# Generated by pormake.
# Topology afi, (4)-cn, num edge types: 1
# Building blocks:
#     Node 0, Type 0, BuildingBlock: QUQFOY_clean_sbu_3, # of connection points: 4
#     Node 1, Type 0, BuildingBlock: QUQFOY_clean_sbu_3, # of connection points: 4
#     Node 2, Type 0, BuildingBlock: QUQFOY_clean_sbu_3, # of connection points: 4
#     Node 3, Type 0, BuildingBlock: QUQFOY_clean_sbu_3, # of connection points: 4
#     Node 4, Type 0, BuildingBlock: QUQFOY_clean_sbu_3, # of connection points: 4
#     Node 5, Type 0, BuildingBlock: QUQFOY_clean_sbu_3, # of connection points: 4
#     Node 6, Type 0, BuildingBlock: QUQFOY_clean_sbu_3, # of connection points: 4
#     Node 7, Type 0, BuildingBlock: QUQFOY_clean_sbu_3, # of connection points: 4
#     Node 8, Type 0, BuildingBlock: QUQFOY_clean_sbu_3, # of connection points: 4
#     Node 9, Type 0, BuildingBlock: QUQFOY_clean_sbu_3, # of connection points: 4
#     Node 10, Type 0, BuildingBlock: QUQFOY_clean_sbu_3, # of connection points: 4
#     Node 11, Type 0, BuildingBlock: QUQFOY_clean_sbu_3, # of connection points: 4
#     Node 12, Type 0, BuildingBlock: QUQFOY_clean_sbu_3, # of connection points: 4
#     Node 13, Type 0, BuildingBlock: QUQFOY_clean_sbu_3, # of connection points: 4
#     Node 14, Type 0, BuildingBlock: QUQFOY_clean_sbu_3, # of connection points: 4
#     Node 15, Type 0, BuildingBlock: QUQFOY_clean_sbu_3, # of connection points: 4
#     Node 16, Type 0, BuildingBlock: QUQFOY_clean_sbu_3, # of connection points: 4
#     Node 17, Type 0, BuildingBlock: QUQFOY_clean_sbu_3, # of connection points: 4
#     Node 18, Type 0, BuildingBlock: QUQFOY_clean_sbu_3, # of connection points: 4
#     Node 19, Type 0, BuildingBlock: QUQFOY_clean_sbu_3, # of connection points: 4
#     Node 20, Type 0, BuildingBlock: QUQFOY_clean_sbu_3, # of connection points: 4
#     Node 21, Type 0, BuildingBlock: QUQFOY_clean_sbu_3, # of connection points: 4
#     Node 22, Type 0, BuildingBlock: QUQFOY_clean_sbu_3, # of connection points: 4
#     Node 23, Type 0, BuildingBlock: QUQFOY_clean_sbu_3, # of connection points: 4
#     Edge 24, Type (0, 0), BuildingBlock: EZIPEK_clean_linker_0, # of connection points: 2
#     Edge 25, Type (0, 0), BuildingBlock: EZIPEK_clean_linker_0, # of connection points: 2
#     Edge 26, Type (0, 0), BuildingBlock: EZIPEK_clean_linker_0, # of connection points: 2
#     Edge 27, Type (0, 0), BuildingBlock: EZIPEK_clean_linker_0, # of connection points: 2
#     Edge 28, Type (0, 0), BuildingBlock: EZIPEK_clean_linker_0, # of connection points: 2
#     Edge 29, Type (0, 0), BuildingBlock: EZIPEK_clean_linker_0, # of connection points: 2
#     Edge 30, Type (0, 0), BuildingBlock: EZIPEK_clean_linker_0, # of connection points: 2
#     Edge 31, Type (0, 0), BuildingBlock: EZIPEK_clean_linker_0, # of connection points: 2
#     Edge 32, Type (0, 0), BuildingBlock: EZIPEK_clean_linker_0, # of connection points: 2
#     Edge 33, Type (0, 0), BuildingBlock: EZIPEK_clean_linker_0, # of connection points: 2
#     Edge 34, Type (0, 0), BuildingBlock: EZIPEK_clean_linker_0, # of connection points: 2
#     Edge 35, Type (0, 0), BuildingBlock: EZIPEK_clean_linker_0, # of connection points: 2
#     Edge 36, Type (0, 0), BuildingBlock: EZIPEK_clean_linker_0, # of connection points: 2
#     Edge 37, Type (0, 0), BuildingBlock: EZIPEK_clean_linker_0, # of connection points: 2
#     Edge 38, Type (0, 0), BuildingBlock: EZIPEK_clean_linker_0, # of connection points: 2
#     Edge 39, Type (0, 0), BuildingBlock: EZIPEK_clean_linker_0, # of connection points: 2
#     Edge 40, Type (0, 0), BuildingBlock: EZIPEK_clean_linker_0, # of connection points: 2
#     Edge 41, Type (0, 0), BuildingBlock: EZIPEK_clean_linker_0, # of connection points: 2
#     Edge 42, Type (0, 0), BuildingBlock: EZIPEK_clean_linker_0, # of connection points: 2
#     Edge 43, Type (0, 0), BuildingBlock: EZIPEK_clean_linker_0, # of connection points: 2
#     Edge 44, Type (0, 0), BuildingBlock: EZIPEK_clean_linker_0, # of connection points: 2
#     Edge 45, Type (0, 0), BuildingBlock: EZIPEK_clean_linker_0, # of connection points: 2
#     Edge 46, Type (0, 0), BuildingBlock: EZIPEK_clean_linker_0, # of connection points: 2
#     Edge 47, Type (0, 0), BuildingBlock: EZIPEK_clean_linker_0, # of connection points: 2
#     Edge 48, Type (0, 0), BuildingBlock: EZIPEK_clean_linker_0, # of connection points: 2
#     Edge 49, Type (0, 0), BuildingBlock: EZIPEK_clean_linker_0, # of connection points: 2
#     Edge 50, Type (0, 0), BuildingBlock: EZIPEK_clean_linker_0, # of connection points: 2
#     Edge 51, Type (0, 0), BuildingBlock: EZIPEK_clean_linker_0, # of connection points: 2
#     Edge 52, Type (0, 0), BuildingBlock: EZIPEK_clean_linker_0, # of connection points: 2
#     Edge 53, Type (0, 0), BuildingBlock: EZIPEK_clean_linker_0, # of connection points: 2
#     Edge 54, Type (0, 0), BuildingBlock: EZIPEK_clean_linker_0, # of connection points: 2
#     Edge 55, Type (0, 0), BuildingBlock: EZIPEK_clean_linker_0, # of connection points: 2
#     Edge 56, Type (0, 0), BuildingBlock: EZIPEK_clean_linker_0, # of connection points: 2
#     Edge 57, Type (0, 0), BuildingBlock: EZIPEK_clean_linker_0, # of connection points: 2
#     Edge 58, Type (0, 0), BuildingBlock: EZIPEK_clean_linker_0, # of connection points: 2
#     Edge 59, Type (0, 0), BuildingBlock: EZIPEK_clean_linker_0, # of connection points: 2
#     Edge 60, Type (0, 0), BuildingBlock: EZIPEK_clean_linker_0, # of connection points: 2
#     Edge 61, Type (0, 0), BuildingBlock: EZIPEK_clean_linker_0, # of connection points: 2
#     Edge 62, Type (0, 0), BuildingBlock: EZIPEK_clean_linker_0, # of connection points: 2
#     Edge 63, Type (0, 0), BuildingBlock: EZIPEK_clean_linker_0, # of connection points: 2
#     Edge 64, Type (0, 0), BuildingBlock: EZIPEK_clean_linker_0, # of connection points: 2
#     Edge 65, Type (0, 0), BuildingBlock: EZIPEK_clean_linker_0, # of connection points: 2
#     Edge 66, Type (0, 0), BuildingBlock: EZIPEK_clean_linker_0, # of connection points: 2
#     Edge 67, Type (0, 0), BuildingBlock: EZIPEK_clean_linker_0, # of connection points: 2
#     Edge 68, Type (0, 0), BuildingBlock: EZIPEK_clean_linker_0, # of connection points: 2
#     Edge 69, Type (0, 0), BuildingBlock: EZIPEK_clean_linker_0, # of connection points: 2
#     Edge 70, Type (0, 0), BuildingBlock: EZIPEK_clean_linker_0, # of connection points: 2
#     Edge 71, Type (0, 0), BuildingBlock: EZIPEK_clean_linker_0, # of connection points: 2
# Relax obj value: 0.095
# Max RMSD: 0.105
# Mean RMSD: 0.105
data_MOF--net-afi--node1-QUQFOY_clean_sbu_3--edge1-EZIPEK_clean_linker_0
_symmetry_space_group_name_H-M    P1
_symmetry_Int_Tables_number       1
_symmetry_cell_setting            triclinic
loop_
_symmetry_equiv_pos_as_xyz
'x, y, z'
_cell_length_a     52.903467
_cell_length_b     52.659565
_cell_length_c     30.18417
_cell_angle_alpha  89.809501
_cell_angle_beta   90.218919
_cell_angle_gamma 120.26375
loop_
_atom_site_label
_atom_site_type_symbol
_atom_site_fract_x
_atom_site_fract_y
_atom_site_fract_z
_atom_type_partial_charge
C0 C 0.49474 0.10441 0.17586 0.0
O1 O 0.49096 0.09155 0.1389 0.0
Cd2 Cd 0.4479 0.07494 0.09573 0.0
O3 O 0.47684 0.11209 0.18977 0.0
Cd4 Cd 0.4326 0.11279 0.1623 0.0
C5 C 0.39799 0.04006 0.18072 0.0
O6 O 0.44218 0.11646 0.08408 0.0
O7 O 0.39756 0.10289 0.10242 0.0
O8 O 0.45468 0.16496 0.177 0.0
C9 C 0.41676 0.11053 0.07246 0.0
O10 O 0.41191 0.03903 0.14707 0.0
C11 C 0.43393 0.16231 0.20121 0.0
O12 O 0.4008 0.06434 0.19363 0.0
O13 O 0.41296 0.13648 0.20891 0.0
C14 C 0.3715 0.49994 0.17703 0.0
O15 O 0.37897 0.49766 0.13801 0.0
Cd16 Cd 0.3518 0.45382 0.0965 0.0
O17 O 0.3466 0.48097 0.19255 0.0
Cd18 Cd 0.30034 0.43725 0.16578 0.0
C19 C 0.33921 0.40414 0.18174 0.0
O20 O 0.30373 0.44599 0.08725 0.0
O21 O 0.27458 0.40092 0.1074 0.0
O22 O 0.27154 0.45985 0.18325 0.0
C23 C 0.28471 0.41995 0.07672 0.0
O24 O 0.35366 0.41864 0.14787 0.0
C25 C 0.25332 0.43878 0.20734 0.0
O26 O 0.31744 0.40589 0.19549 0.0
O27 O 0.25759 0.41738 0.21377 0.0
C28 C 0.85359 0.38135 0.16908 0.0
O29 O 0.86793 0.39142 0.13348 0.0
Cd30 Cd 0.88665 0.36625 0.09178 0.0
O31 O 0.84625 0.35568 0.18312 0.0
Cd32 Cd 0.8495 0.31243 0.15776 0.0
C33 C 0.92194 0.35158 0.17602 0.0
O34 O 0.84642 0.31813 0.0793 0.0
O35 O 0.86125 0.28816 0.09837 0.0
O36 O 0.79765 0.28019 0.17059 0.0
C37 C 0.8534 0.29938 0.06796 0.0
O38 O 0.92309 0.36591 0.14127 0.0
C39 C 0.80081 0.26263 0.19572 0.0
O40 O 0.89767 0.33095 0.1907 0.0
O41 O 0.82674 0.26868 0.20466 0.0
C42 C 0.45817 0.85944 0.17866 0.0
O43 O 0.462 0.8722 0.1415 0.0
Cd44 Cd 0.50538 0.88997 0.09932 0.0
O45 O 0.4763 0.8522 0.19346 0.0
Cd46 Cd 0.52122 0.85234 0.16739 0.0
C47 C 0.5546 0.92514 0.18538 0.0
O48 O 0.51302 0.84969 0.08919 0.0
O49 O 0.55761 0.86434 0.10891 0.0
O50 O 0.50095 0.80009 0.17944 0.0
C51 C 0.53884 0.85695 0.07816 0.0
O52 O 0.54066 0.92593 0.15137 0.0
C53 C 0.5213 0.80314 0.20519 0.0
O54 O 0.55214 0.90103 0.19873 0.0
O55 O 0.54107 0.82913 0.21511 0.0
C56 C 0.57913 0.46904 0.177 0.0
O57 O 0.56939 0.47293 0.14067 0.0
Cd58 Cd 0.59658 0.51498 0.0951 0.0
O59 O 0.60555 0.48622 0.18903 0.0
Cd60 Cd 0.65083 0.52909 0.15809 0.0
C61 C 0.61716 0.56752 0.17732 0.0
O62 O 0.64223 0.51776 0.08034 0.0
O63 O 0.67572 0.56238 0.09601 0.0
O64 O 0.68022 0.5066 0.17355 0.0
C65 C 0.66246 0.54258 0.0671 0.0
O66 O 0.60036 0.55327 0.14512 0.0
C67 C 0.69864 0.52758 0.19757 0.0
O68 O 0.63821 0.56372 0.18845 0.0
O69 O 0.69445 0.54896 0.20432 0.0
C70 C 0.09872 0.58444 0.17196 0.0
O71 O 0.08488 0.57448 0.13589 0.0
Cd72 Cd 0.0656 0.59917 0.09379 0.0
O73 O 0.10551 0.60991 0.18605 0.0
Cd74 Cd 0.102 0.65298 0.15992 0.0
C75 C 0.02986 0.61325 0.1777 0.0
O76 O 0.10485 0.64781 0.08117 0.0
O77 O 0.08872 0.67649 0.10147 0.0
O78 O 0.15389 0.68517 0.17272 0.0
C79 C 0.09715 0.66624 0.07066 0.0
O80 O 0.02904 0.59914 0.143 0.0
C81 C 0.15089 0.70319 0.19676 0.0
O82 O 0.05395 0.63397 0.19281 0.0
O83 O 0.12499 0.69733 0.2053 0.0
C84 C 0.84432 0.47208 0.25821 0.0
O85 O 0.825 0.47067 0.28406 0.0
Cd86 Cd 0.85462 0.52423 0.29852 0.0
O87 O 0.86586 0.49725 0.25022 0.0
Cd88 Cd 0.85668 0.53569 0.29102 0.0
C89 C 0.91625 0.56665 0.25754 0.0
O90 O 0.85584 0.52632 0.37387 0.0
O91 O 0.87863 0.57173 0.3533 0.0
O92 O 0.80265 0.51071 0.28368 0.0
C93 C 0.86984 0.55312 0.38464 0.0
O94 O 0.90808 0.54426 0.28188 0.0
C95 C 0.80316 0.53172 0.26231 0.0
O96 O 0.89767 0.57442 0.2494 0.0
O97 O 0.82795 0.55409 0.25442 0.0
C98 C 0.37139 0.86388 0.28775 0.0
O99 O 0.37998 0.87638 0.32509 0.0
Cd100 Cd 0.35399 0.89479 0.36447 0.0
O101 O 0.34638 0.85729 0.27209 0.0
Cd102 Cd 0.30167 0.8582 0.29661 0.0
C103 C 0.34157 0.93055 0.27741 0.0
O104 O 0.30611 0.85408 0.3749 0.0
O105 O 0.27703 0.86983 0.3551 0.0
O106 O 0.27092 0.80607 0.28326 0.0
C107 C 0.2874 0.86116 0.38565 0.0
O108 O 0.35602 0.93113 0.31165 0.0
C109 C 0.25326 0.80864 0.25769 0.0
O110 O 0.31965 0.90659 0.26427 0.0
O111 O 0.25859 0.83446 0.24864 0.0
C112 C 0.49027 0.38263 0.29187 0.0
O113 O 0.48607 0.39087 0.32922 0.0
Cd114 Cd 0.44094 0.36364 0.36773 0.0
O115 O 0.4722 0.35733 0.27632 0.0
Cd116 Cd 0.42707 0.31142 0.29999 0.0
C117 C 0.39414 0.35003 0.27824 0.0
O118 O 0.43196 0.31507 0.37921 0.0
O119 O 0.38834 0.28506 0.35436 0.0
O120 O 0.45043 0.28248 0.28953 0.0
C121 C 0.40562 0.29568 0.38706 0.0
O122 O 0.40721 0.36443 0.31299 0.0
C123 C 0.43106 0.26428 0.26319 0.0
O124 O 0.39692 0.32859 0.26527 0.0
O125 O 0.41027 0.26859 0.25242 0.0
C126 C 0.10696 0.49306 0.26187 0.0
O127 O 0.12626 0.49406 0.28759 0.0
Cd128 Cd 0.09592 0.44046 0.30214 0.0
O129 O 0.08509 0.46807 0.25408 0.0
Cd130 Cd 0.09392 0.42929 0.29527 0.0
C131 C 0.03478 0.39816 0.2595 0.0
O132 O 0.09387 0.4386 0.37758 0.0
O133 O 0.07146 0.39312 0.35759 0.0
O134 O 0.14814 0.45426 0.29095 0.0
C135 C 0.07991 0.41184 0.38866 0.0
O136 O 0.04264 0.42056 0.28356 0.0
C137 C 0.14801 0.43364 0.26925 0.0
O138 O 0.05349 0.39044 0.25258 0.0
O139 O 0.12336 0.41152 0.25973 0.0
C140 C 0.58133 0.10145 0.28867 0.0
O141 O 0.5729 0.08952 0.32644 0.0
Cd142 Cd 0.59903 0.07133 0.36674 0.0
O143 O 0.60627 0.10782 0.27329 0.0
Cd144 Cd 0.65127 0.10759 0.2983 0.0
C145 C 0.61107 0.03521 0.28028 0.0
O146 O 0.64732 0.11165 0.37666 0.0
O147 O 0.67669 0.09642 0.3564 0.0
O148 O 0.6808 0.15975 0.28368 0.0
C149 C 0.66642 0.10492 0.38709 0.0
O150 O 0.59682 0.03487 0.31443 0.0
C151 C 0.69899 0.15759 0.25904 0.0
O152 O 0.63298 0.05905 0.26674 0.0
O153 O 0.69445 0.13194 0.25099 0.0
C154 C 0.4646 0.58193 0.29105 0.0
O155 O 0.47165 0.57027 0.32215 0.0
Cd156 Cd 0.51487 0.59001 0.36739 0.0
O157 O 0.4804 0.60909 0.28093 0.0
Cd158 Cd 0.52604 0.65362 0.30638 0.0
C159 C 0.56505 0.61902 0.28091 0.0
O160 O 0.52614 0.63783 0.37855 0.0
O161 O 0.53685 0.68251 0.37782 0.0
O162 O 0.50199 0.67963 0.28187 0.0
C163 C 0.53234 0.66042 0.40049 0.0
O164 O 0.55078 0.59962 0.31045 0.0
C165 C 0.52501 0.70114 0.26559 0.0
O166 O 0.56156 0.6411 0.27485 0.0
O167 O 0.54848 0.69995 0.26626 0.0
C168 C 0.46843 0.88316 0.78871 0.0
O169 O 0.47323 0.89654 0.82539 0.0
Cd170 Cd 0.51501 0.90925 0.87067 0.0
O171 O 0.48524 0.87411 0.77485 0.0
Cd172 Cd 0.52895 0.87289 0.80271 0.0
C173 C 0.57062 0.94602 0.79436 0.0
O174 O 0.51806 0.86608 0.8811 0.0
O175 O 0.56286 0.88033 0.86319 0.0
O176 O 0.50448 0.82158 0.78211 0.0
C177 C 0.54317 0.87094 0.89259 0.0
O178 O 0.55697 0.94623 0.82888 0.0
C179 C 0.52666 0.82303 0.76358 0.0
O180 O 0.56269 0.92182 0.77457 0.0
O181 O 0.5495 0.84821 0.76034 0.0
C182 C 0.58161 0.47191 0.76629 0.0
O183 O 0.57122 0.47255 0.80382 0.0
Cd184 Cd 0.59534 0.51162 0.85614 0.0
O185 O 0.6071 0.4919 0.75458 0.0
Cd186 Cd 0.64835 0.53698 0.78689 0.0
C187 C 0.60436 0.56614 0.78377 0.0
O188 O 0.6442 0.5219 0.86316 0.0
O189 O 0.67109 0.56867 0.85161 0.0
O190 O 0.68147 0.52049 0.76523 0.0
C191 C 0.6614 0.54725 0.87848 0.0
O192 O 0.59299 0.55156 0.81912 0.0
C193 C 0.69903 0.54382 0.74463 0.0
O194 O 0.62416 0.56399 0.76307 0.0
O195 O 0.69254 0.56395 0.7417 0.0
C196 C 0.09967 0.58688 0.78246 0.0
O197 O 0.08473 0.57639 0.81747 0.0
Cd198 Cd 0.06571 0.6011 0.85988 0.0
O199 O 0.10727 0.61271 0.76896 0.0
Cd200 Cd 0.10357 0.65558 0.79461 0.0
C201 C 0.03096 0.61726 0.77654 0.0
O202 O 0.10574 0.64908 0.8733 0.0
O203 O 0.09178 0.67971 0.85365 0.0
O204 O 0.15566 0.68717 0.783 0.0
C205 C 0.09898 0.66808 0.88428 0.0
O206 O 0.02965 0.60279 0.81121 0.0
C207 C 0.15321 0.70543 0.75848 0.0
O208 O 0.05537 0.63743 0.76141 0.0
O209 O 0.12752 0.70001 0.74914 0.0
C210 C 0.4917 0.10701 0.77792 0.0
O211 O 0.48882 0.09462 0.81518 0.0
Cd212 Cd 0.44633 0.07771 0.85925 0.0
O213 O 0.47349 0.11459 0.7648 0.0
Cd214 Cd 0.43019 0.11592 0.79511 0.0
C215 C 0.39471 0.04375 0.77554 0.0
O216 O 0.44043 0.11881 0.8731 0.0
O217 O 0.39541 0.10436 0.85567 0.0
O218 O 0.45263 0.16835 0.78199 0.0
C219 C 0.41495 0.11218 0.8853 0.0
O220 O 0.40932 0.04248 0.8083 0.0
C221 C 0.43164 0.16623 0.75868 0.0
O222 O 0.39736 0.06811 0.76335 0.0
O223 O 0.41036 0.1406 0.75083 0.0
C224 C 0.36892 0.50761 0.79982 0.0
O225 O 0.37848 0.50197 0.83488 0.0
Cd226 Cd 0.35382 0.456 0.87275 0.0
O227 O 0.34408 0.48914 0.78348 0.0
Cd228 Cd 0.30274 0.4394 0.80206 0.0
C229 C 0.34733 0.41206 0.78452 0.0
O230 O 0.30488 0.44589 0.88082 0.0
O231 O 0.27792 0.40092 0.85912 0.0
O232 O 0.26835 0.45568 0.786 0.0
C233 C 0.28684 0.41945 0.89044 0.0
O234 O 0.35873 0.42267 0.82209 0.0
C235 C 0.25293 0.43498 0.75929 0.0
O236 O 0.32727 0.41585 0.76815 0.0
O237 O 0.26112 0.41661 0.75094 0.0
C238 C 0.85566 0.39382 0.79416 0.0
O239 O 0.87061 0.40247 0.82959 0.0
Cd240 Cd 0.88855 0.37471 0.86735 0.0
O241 O 0.84761 0.36852 0.77805 0.0
Cd242 Cd 0.8511 0.32439 0.79604 0.0
C243 C 0.92348 0.36451 0.77856 0.0
O244 O 0.84851 0.32591 0.87544 0.0
O245 O 0.86343 0.29732 0.84988 0.0
O246 O 0.79909 0.2947 0.78231 0.0
C247 C 0.85549 0.30653 0.88271 0.0
O248 O 0.92476 0.37615 0.81604 0.0
C249 C 0.8011 0.27708 0.75598 0.0
O250 O 0.8991 0.34582 0.76128 0.0
O251 O 0.82661 0.28211 0.74651 0.0
C252 C 0.11228 0.49765 0.69566 0.0
O253 O 0.12929 0.4987 0.66561 0.0
Cd254 Cd 0.10033 0.44475 0.65753 0.0
O255 O 0.09263 0.47258 0.70856 0.0
Cd256 Cd 0.09682 0.4313 0.66803 0.0
C257 C 0.03696 0.40858 0.69831 0.0
O258 O 0.10022 0.43918 0.58391 0.0
O259 O 0.06976 0.39535 0.60697 0.0
O260 O 0.14982 0.4525 0.67909 0.0
C261 C 0.08196 0.41276 0.57464 0.0
O262 O 0.04726 0.42855 0.66901 0.0
C263 C 0.14737 0.42953 0.69696 0.0
O264 O 0.05373 0.39988 0.71313 0.0
O265 O 0.12175 0.40759 0.7016 0.0
C266 C 0.57942 0.10598 0.66636 0.0
O267 O 0.57105 0.08996 0.63196 0.0
Cd268 Cd 0.60021 0.07395 0.59482 0.0
O269 O 0.60558 0.11724 0.68071 0.0
Cd270 Cd 0.65199 0.11966 0.65818 0.0
C271 C 0.61857 0.04828 0.68735 0.0
O272 O 0.64603 0.11672 0.57922 0.0
O273 O 0.67911 0.10779 0.60471 0.0
O274 O 0.68014 0.17279 0.66655 0.0
C275 C 0.66678 0.11192 0.57167 0.0
O276 O 0.60382 0.04261 0.65161 0.0
C277 C 0.69863 0.17237 0.69305 0.0
O278 O 0.63729 0.07452 0.69817 0.0
O279 O 0.69477 0.14746 0.70463 0.0
C280 C 0.45966 0.61384 0.72294 0.0
O281 O 0.45921 0.63459 0.70284 0.0
Cd282 Cd 0.51174 0.65623 0.68206 0.0
O283 O 0.48395 0.61498 0.72565 0.0
Cd284 Cd 0.52271 0.66329 0.68714 0.0
C285 C 0.55163 0.63183 0.71606 0.0
O286 O 0.50708 0.65734 0.60712 0.0
O287 O 0.55141 0.66749 0.61819 0.0
O288 O 0.50094 0.6942 0.70515 0.0
C289 C 0.53119 0.66271 0.59083 0.0
O290 O 0.53027 0.62026 0.68931 0.0
C291 C 0.52532 0.71678 0.71419 0.0
O292 O 0.55929 0.65739 0.72976 0.0
O293 O 0.54808 0.71455 0.71197 0.0
C294 C 0.84304 0.48389 0.70643 0.0
O295 O 0.82507 0.48125 0.67667 0.0
Cd296 Cd 0.85396 0.53424 0.66025 0.0
O297 O 0.86322 0.50959 0.71571 0.0
Cd298 Cd 0.85713 0.54752 0.66697 0.0
C299 C 0.91717 0.57575 0.69872 0.0
O300 O 0.85367 0.53359 0.58536 0.0
O301 O 0.88207 0.57939 0.60092 0.0
O302 O 0.80372 0.5263 0.67477 0.0
C303 C 0.87046 0.55943 0.57172 0.0
O304 O 0.90711 0.55233 0.67634 0.0
C305 C 0.80585 0.54956 0.69065 0.0
O306 O 0.90017 0.58563 0.70588 0.0
O307 O 0.83135 0.57155 0.69577 0.0
C308 C 0.37605 0.87494 0.67658 0.0
O309 O 0.38454 0.88744 0.63919 0.0
Cd310 Cd 0.35627 0.90151 0.59549 0.0
O311 O 0.35013 0.86595 0.69044 0.0
Cd312 Cd 0.30375 0.86212 0.6623 0.0
C313 C 0.33906 0.93456 0.68036 0.0
O314 O 0.30987 0.85868 0.58423 0.0
O315 O 0.2779 0.87102 0.60245 0.0
O316 O 0.27493 0.80967 0.67601 0.0
C317 C 0.28989 0.86387 0.57256 0.0
O318 O 0.35429 0.93622 0.6467 0.0
C319 C 0.25626 0.81128 0.70029 0.0
O320 O 0.31809 0.90993 0.6934 0.0
O321 O 0.26031 0.83669 0.70872 0.0
C322 C 0.49058 0.38567 0.65487 0.0
O323 O 0.48606 0.39141 0.61577 0.0
Cd324 Cd 0.43839 0.36411 0.5846 0.0
O325 O 0.47206 0.36191 0.67417 0.0
Cd326 Cd 0.42573 0.31538 0.6568 0.0
C327 C 0.39708 0.35745 0.67809 0.0
O328 O 0.42906 0.31534 0.57795 0.0
O329 O 0.38519 0.28878 0.6038 0.0
O330 O 0.44932 0.28697 0.67044 0.0
C331 C 0.40242 0.29666 0.57098 0.0
O332 O 0.40793 0.36947 0.64089 0.0
C333 C 0.42985 0.26901 0.69683 0.0
O334 O 0.40031 0.33674 0.69344 0.0
O335 O 0.40897 0.27336 0.70648 0.0
C336 C 0.36271 0.98579 0.1825 0.0
C337 C 0.37946 0.01253 0.20597 0.0
C338 C 0.36228 0.98509 0.27543 0.0
C339 C 0.35152 0.95825 0.25204 0.0
N340 N 0.34748 0.93435 0.18146 0.0
N341 N 0.39984 0.03612 0.27666 0.0
C342 C 0.35303 0.95877 0.20496 0.0
C343 C 0.38037 0.01195 0.25305 0.0
N344 N 0.35576 0.98609 0.13895 0.0
N345 N 0.35504 0.98507 0.31882 0.0
H346 H 0.41552 0.05574 0.26216 0.0
H347 H 0.4027 0.03544 0.31076 0.0
H348 H 0.34049 0.96587 0.33569 0.0
H349 H 0.36067 0.00434 0.33608 0.0
H350 H 0.34164 0.96698 0.12159 0.0
H351 H 0.36118 0.00547 0.12198 0.0
H352 H 0.35102 0.93491 0.14742 0.0
H353 H 0.34283 0.91452 0.19604 0.0
C354 C 0.37767 0.36145 0.20555 0.0
C355 C 0.37612 0.35928 0.25256 0.0
C356 C 0.35028 0.38678 0.25367 0.0
C357 C 0.34921 0.38638 0.20657 0.0
N358 N 0.35341 0.36407 0.13919 0.0
N359 N 0.35141 0.36076 0.31889 0.0
C360 C 0.3601 0.37064 0.18295 0.0
C361 C 0.35921 0.36888 0.27583 0.0
N362 N 0.39716 0.35692 0.18234 0.0
N363 N 0.34507 0.40567 0.27757 0.0
H364 H 0.35615 0.34624 0.33552 0.0
H365 H 0.33723 0.36557 0.33594 0.0
H366 H 0.34133 0.4215 0.2633 0.0
H367 H 0.34819 0.40807 0.31177 0.0
H368 H 0.40055 0.36101 0.14843 0.0
H369 H 0.41234 0.3525 0.19715 0.0
H370 H 0.3591 0.35064 0.12169 0.0
H371 H 0.33921 0.36896 0.12209 0.0
C372 C 0.95326 0.36691 0.24497 0.0
C373 C 0.94961 0.35942 0.19929 0.0
C374 C 0.00196 0.37703 0.19289 0.0
C375 C 0.00527 0.38261 0.23918 0.0
N376 N -0.01747 0.37507 0.31093 0.0
N377 N 0.96874 0.34925 0.13349 0.0
C378 C -0.01959 0.37508 0.26578 0.0
C379 C 0.97343 0.36186 0.17445 0.0
N380 N 0.9316 0.36794 0.26801 0.0
N381 N 0.02589 0.38779 0.16588 0.0
H382 H 0.94792 0.33709 0.1195 0.0
H383 H -0.01502 0.34808 0.11575 0.0
H384 H 0.04733 0.4004 0.17724 0.0
H385 H 0.02432 0.38684 0.13143 0.0
H386 H 0.93459 0.37648 0.29993 0.0
H387 H 0.91156 0.36288 0.25408 0.0
H388 H 0.96443 0.36714 0.33175 0.0
H389 H 0.00184 0.37993 0.32736 0.0
C390 C 0.57215 0.95364 0.2573 0.0
C391 C 0.57298 0.95285 0.21026 0.0
C392 C 0.59922 0.00659 0.20839 0.0
C393 C 0.6009 0.00735 0.25546 0.0
N394 N 0.59757 0.98086 0.32282 0.0
N395 N 0.5965 0.97904 0.14298 0.0
C396 C 0.59023 0.98062 0.27933 0.0
C397 C 0.58959 0.97949 0.18641 0.0
N398 N 0.5528 0.92953 0.28115 0.0
N399 N 0.60458 0.03087 0.18445 0.0
H400 H 0.59121 0.95962 0.1264 0.0
H401 H 0.61049 -0.0019 0.12539 0.0
H402 H 0.60916 0.05072 0.19869 0.0
H403 H 0.60093 0.03014 0.15038 0.0
H404 H 0.54997 0.93034 0.31518 0.0
H405 H 0.53719 0.90981 0.26682 0.0
H406 H 0.59201 0.96167 0.34042 0.0
H407 H 0.61213 0.00014 0.33947 0.0
C408 C 0.5844 0.61455 0.20615 0.0
C409 C 0.58561 0.61456 0.25322 0.0
C410 C 0.61068 0.58639 0.25104 0.0
C411 C 0.61038 0.58705 0.20389 0.0
N412 N 0.60669 0.61124 0.13815 0.0
N413 N 0.61038 0.61116 0.31812 0.0
C414 C 0.60054 0.60438 0.18194 0.0
C415 C 0.60262 0.60433 0.27472 0.0
N416 N 0.56645 0.62208 0.18428 0.0
N417 N 0.61581 0.56689 0.27365 0.0
H418 H 0.60519 0.62487 0.33598 0.0
H419 H 0.62466 0.606 0.33436 0.0
H420 H 0.6189 0.55093 0.25858 0.0
H421 H 0.61343 0.5642 0.3079 0.0
H422 H 0.56257 0.61903 0.15029 0.0
H423 H 0.55357 0.62905 0.20001 0.0
H424 H 0.60198 0.62578 0.12159 0.0
H425 H 0.61953 0.60514 0.11998 0.0
C426 C -0.00211 0.59779 0.2457 0.0
C427 C 0.00196 0.60531 0.20002 0.0
C428 C 0.9497 0.58771 0.19184 0.0
C429 C 0.94595 0.58212 0.23811 0.0
N430 N 0.96799 0.58955 0.31063 0.0
N431 N -0.01651 0.61564 0.13324 0.0
C432 C 0.97055 0.58959 0.26558 0.0
C433 C -0.02159 0.60292 0.17425 0.0
N434 N 0.01935 0.59679 0.26966 0.0
N435 N 0.92606 0.57692 0.16406 0.0
H436 H 0.00444 0.62784 0.11982 0.0
H437 H 0.96741 0.61683 0.11485 0.0
H438 H 0.90451 0.56422 0.17478 0.0
H439 H 0.92798 0.57792 0.12966 0.0
H440 H 0.01609 0.58824 0.30167 0.0
H441 H 0.03953 0.60189 0.25643 0.0
H442 H -0.01412 0.59745 0.33202 0.0
H443 H 0.94852 0.58467 0.32637 0.0
C444 C 0.59686 0.00134 0.79124 0.0
C445 C 0.59272 0.97463 0.77366 0.0
C446 C 0.61521 -0.00012 0.70396 0.0
C447 C 0.61237 0.02402 0.71828 0.0
N448 N 0.59784 0.0466 0.775 0.0
N449 N 0.61258 0.95375 0.72363 0.0
C450 C 0.60301 0.02476 0.76204 0.0
C451 C 0.60621 0.9753 0.73279 0.0
N452 N 0.59674 0.00495 0.83599 0.0
N453 N 0.62605 0.00034 0.66272 0.0
H454 H 0.61001 0.9381 0.74721 0.0
H455 H 0.62369 0.95335 0.69554 0.0
H456 H 0.63501 0.01889 0.64235 0.0
H457 H 0.62546 0.98223 0.64795 0.0
H458 H 0.6018 0.02489 0.85058 0.0
H459 H 0.59612 -0.01051 0.85835 0.0
H460 H 0.58792 0.04604 0.80505 0.0
H461 H 0.60064 0.06371 0.75433 0.0
C462 C 0.56087 0.569 0.75845 0.0
C463 C 0.59164 0.58311 0.76427 0.0
C464 C 0.59663 0.62827 0.73224 0.0
C465 C 0.56567 0.61529 0.73257 0.0
N466 N 0.51884 0.57525 0.75687 0.0
N467 N 0.63871 0.62777 0.76323 0.0
C468 C 0.54789 0.58617 0.74857 0.0
C469 C 0.60959 0.61321 0.75286 0.0
N470 N 0.54394 0.53906 0.76096 0.0
N471 N 0.61361 0.65436 0.71082 0.0
H472 H 0.64891 0.61768 0.77905 0.0
H473 H 0.65212 0.65045 0.75983 0.0
H474 H 0.60493 0.66561 0.69409 0.0
H475 H 0.63599 0.6633 0.70584 0.0
H476 H 0.52184 0.52769 0.75229 0.0
H477 H 0.55248 0.52534 0.76694 0.0
H478 H 0.50572 0.55516 0.77263 0.0
H479 H 0.50864 0.58762 0.7531 0.0
C480 C 0.95181 0.59636 0.76337 0.0
C481 C 0.94714 0.58991 0.7174 0.0
C482 C -0.00184 0.60219 0.70926 0.0
C483 C 0.00323 0.61059 0.75452 0.0
N484 N -0.0129 0.62368 0.82082 0.0
N485 N 0.96772 0.59405 0.64466 0.0
C486 C -0.01926 0.61026 0.78034 0.0
C487 C 0.97092 0.59514 0.68969 0.0
N488 N 0.92867 0.58756 0.79153 0.0
N489 N 0.01854 0.59935 0.68551 0.0
H490 H 0.94835 0.58986 0.62909 0.0
H491 H -0.01488 0.60037 0.62287 0.0
H492 H 0.03857 0.6037 0.69863 0.0
H493 H 0.01446 0.59011 0.65396 0.0
H494 H 0.93101 0.58907 0.82588 0.0
H495 H 0.90689 0.57593 0.78131 0.0
H496 H 0.972 0.62644 0.83915 0.0
H497 H 0.00828 0.63491 0.83378 0.0
C498 C 0.35934 -0.01036 0.77477 0.0
C499 C 0.37538 0.01629 0.75078 0.0
C500 C 0.357 -0.01155 0.68197 0.0
C501 C 0.34752 0.96186 0.70564 0.0
N502 N 0.34515 0.93849 0.77639 0.0
N503 N 0.39344 0.03983 0.67924 0.0
C504 C 0.34975 0.9626 0.75267 0.0
C505 C 0.37506 0.01557 0.70365 0.0
N506 N 0.35317 -0.00993 0.81856 0.0
N507 N 0.34881 -0.01214 0.63884 0.0
H508 H 0.40902 0.05977 0.693 0.0
H509 H 0.39551 0.03907 0.64501 0.0
H510 H 0.33451 0.96832 0.62253 0.0
H511 H 0.35344 0.00683 0.62136 0.0
H512 H 0.3396 0.97099 0.83642 0.0
H513 H 0.35867 0.0095 0.83532 0.0
H514 H 0.34937 0.93937 0.81029 0.0
H515 H 0.34052 0.91864 0.76213 0.0
C516 C 0.38964 0.41374 0.74538 0.0
C517 C 0.3597 0.39754 0.75765 0.0
C518 C 0.35357 0.35509 0.71535 0.0
C519 C 0.38401 0.37057 0.70638 0.0
N520 N 0.43214 0.41183 0.72109 0.0
N521 N 0.31404 0.35149 0.76052 0.0
C522 C 0.40239 0.39911 0.72377 0.0
C523 C 0.34182 0.36782 0.74429 0.0
N524 N 0.40565 0.4434 0.75261 0.0
N525 N 0.33584 0.32869 0.69524 0.0
H526 H 0.30482 0.36005 0.78204 0.0
H527 H 0.30099 0.32892 0.7557 0.0
H528 H 0.34385 0.31863 0.67432 0.0
H529 H 0.31309 0.31782 0.6966 0.0
H530 H 0.42656 0.45677 0.73982 0.0
H531 H 0.39712 0.45525 0.7677 0.0
H532 H 0.44667 0.43131 0.73722 0.0
H533 H 0.44237 0.40145 0.7065 0.0
C534 C -0.00216 0.41664 0.73073 0.0
C535 C 0.00695 0.39691 0.71588 0.0
C536 C 0.96069 0.35515 0.74186 0.0
C537 C 0.95098 0.37487 0.75368 0.0
N538 N 0.957 0.42333 0.74799 0.0
N539 N -0.00587 0.34721 0.69745 0.0
C540 C 0.96853 0.40529 0.74449 0.0
C541 C -0.01249 0.36606 0.71853 0.0
N542 N 0.01746 0.44606 0.73437 0.0
N543 N 0.94504 0.32631 0.75448 0.0
H544 H 0.01308 0.35439 0.67875 0.0
H545 H -0.02054 0.32473 0.69469 0.0
H546 H 0.92535 0.31748 0.77175 0.0
H547 H 0.9528 0.31176 0.75106 0.0
H548 H 0.01247 0.46075 0.74948 0.0
H549 H 0.03954 0.45545 0.72679 0.0
H550 H 0.96793 0.44511 0.73724 0.0
H551 H 0.93536 0.41573 0.75721 0.0
C552 C 0.43394 0.19365 0.26338 0.0
C553 C 0.43332 0.18842 0.21729 0.0
C554 C 0.43411 0.23446 0.20135 0.0
C555 C 0.43202 0.23831 0.24734 0.0
N556 N 0.42463 0.21915 0.32195 0.0
N557 N 0.42714 0.20056 0.14234 0.0
C558 C 0.43054 0.21728 0.2784 0.0
C559 C 0.43189 0.20795 0.18619 0.0
N560 N 0.43872 0.17667 0.29272 0.0
N561 N 0.43924 0.25653 0.17231 0.0
H562 H 0.42474 0.18099 0.13007 0.0
H563 H 0.42278 0.21239 0.11885 0.0
H564 H 0.44123 0.27641 0.18223 0.0
H565 H 0.44416 0.25623 0.139 0.0
H566 H 0.44262 0.18147 0.32635 0.0
H567 H 0.44134 0.15916 0.28289 0.0
H568 H 0.42012 0.20272 0.34514 0.0
H569 H 0.42157 0.23588 0.33422 0.0
C570 C 0.1818 0.43903 0.20809 0.0
C571 C 0.17541 0.43579 0.25397 0.0
C572 C 0.22173 0.43763 0.26992 0.0
C573 C 0.22671 0.438 0.22373 0.0
N574 N 0.20917 0.43368 0.14852 0.0
N575 N 0.1868 0.42819 0.32853 0.0
C576 C 0.20616 0.43733 0.19266 0.0
C577 C 0.19473 0.43412 0.28499 0.0
N578 N 0.16512 0.44464 0.17941 0.0
N579 N 0.24319 0.44163 0.29924 0.0
H580 H 0.16727 0.42571 0.34081 0.0
H581 H 0.19842 0.42348 0.35185 0.0
H582 H 0.26327 0.44433 0.28929 0.0
H583 H 0.24213 0.4447 0.3331 0.0
H584 H 0.17069 0.45048 0.14638 0.0
H585 H 0.14705 0.44611 0.18949 0.0
H586 H 0.19316 0.42973 0.12499 0.0
H587 H 0.22646 0.43183 0.13577 0.0
C588 C 0.72979 0.18935 0.1965 0.0
C589 C 0.72535 0.1841 0.24265 0.0
C590 C 0.76953 0.23132 0.25817 0.0
C591 C 0.77517 0.23547 0.21209 0.0
N592 N 0.76407 0.21615 0.13767 0.0
N593 N 0.74359 0.19701 0.31754 0.0
C594 C 0.75624 0.21384 0.18126 0.0
C595 C 0.74594 0.20424 0.27359 0.0
N596 N 0.7083 0.17161 0.1673 0.0
N597 N 0.78599 0.25365 0.28705 0.0
H598 H 0.72681 0.17722 0.33014 0.0
H599 H 0.75967 0.20935 0.3409 0.0
H600 H 0.80346 0.27387 0.27699 0.0
H601 H 0.78083 0.25311 0.32043 0.0
H602 H 0.70894 0.17627 0.13363 0.0
H603 H 0.68854 0.15348 0.17723 0.0
H604 H 0.75271 0.19953 0.11455 0.0
H605 H 0.7835 0.23356 0.12532 0.0
C606 C 0.51812 0.76942 0.26617 0.0
C607 C 0.52281 0.77739 0.22082 0.0
C608 C 0.52769 0.73451 0.2042 0.0
C609 C 0.52489 0.72765 0.24998 0.0
N610 N 0.52262 0.74098 0.3257 0.0
N611 N 0.53691 0.77095 0.14762 0.0
C612 C 0.52153 0.74577 0.28134 0.0
C613 C 0.52892 0.76087 0.19002 0.0
N614 N 0.5094 0.7838 0.29439 0.0
N615 N 0.52818 0.71535 0.17422 0.0
H616 H 0.53814 0.79022 0.13601 0.0
H617 H 0.54467 0.76164 0.12496 0.0
H618 H 0.52767 0.69599 0.18354 0.0
H619 H 0.52684 0.71741 0.14011 0.0
H620 H 0.50239 0.77687 0.32667 0.0
H621 H 0.5069 0.8014 0.28449 0.0
H622 H 0.52356 0.75533 0.35013 0.0
H623 H 0.52513 0.72388 0.33819 0.0
C624 C 0.72889 0.52649 0.26068 0.0
C625 C 0.72503 0.52805 0.21445 0.0
C626 C 0.77081 0.52867 0.19983 0.0
C627 C 0.77602 0.52991 0.24608 0.0
N628 N 0.76251 0.53407 0.3208 0.0
N629 N 0.74425 0.53564 0.1401 0.0
C630 C 0.7557 0.52984 0.27668 0.0
C631 C 0.74648 0.53044 0.18397 0.0
N632 N 0.7066 0.52091 0.28909 0.0
N633 N 0.78855 0.52481 0.17116 0.0
H634 H 0.72687 0.53735 0.12713 0.0
H635 H 0.76084 0.54086 0.1172 0.0
H636 H 0.80656 0.52326 0.18155 0.0
H637 H 0.78395 0.52049 0.13754 0.0
H638 H 0.70685 0.51636 0.32263 0.0
H639 H 0.68668 0.51841 0.27847 0.0
H640 H 0.75008 0.53748 0.34412 0.0
H641 H 0.78194 0.53654 0.33377 0.0
C642 C 0.18151 0.73627 0.25836 0.0
C643 C 0.17664 0.7306 0.21234 0.0
C644 C 0.22279 0.77574 0.19582 0.0
C645 C 0.22653 0.7824 0.24163 0.0
N646 N 0.20673 0.77256 0.31567 0.0
N647 N 0.18931 0.74753 0.13682 0.0
C648 C 0.2051 0.76367 0.27272 0.0
C649 C 0.19637 0.75106 0.18087 0.0
N650 N 0.16437 0.71504 0.28838 0.0
N651 N 0.24489 0.79234 0.16682 0.0
H652 H 0.16995 0.72997 0.12455 0.0
H653 H 0.20129 0.76335 0.11289 0.0
H654 H 0.26453 0.81071 0.17654 0.0
H655 H 0.24476 0.78655 0.13383 0.0
H656 H 0.16893 0.71675 0.32219 0.0
H657 H 0.14703 0.69451 0.27917 0.0
H658 H 0.19016 0.76123 0.33875 0.0
H659 H 0.2234 0.7928 0.32717 0.0
C660 C 0.53645 0.76771 0.69605 0.0
C661 C 0.52688 0.74442 0.72717 0.0
C662 C 0.52002 0.77385 0.78303 0.0
C663 C 0.52674 0.79604 0.75066 0.0
N664 N 0.53722 0.81256 0.67481 0.0
N665 N 0.5061 0.72329 0.79824 0.0
C666 C 0.53406 0.79269 0.70675 0.0
C667 C 0.51754 0.74685 0.77001 0.0
N668 N 0.54778 0.76592 0.65631 0.0
N669 N 0.51756 0.77913 0.82671 0.0
H670 H 0.50542 0.7036 0.79099 0.0
H671 H 0.49548 0.72252 0.82763 0.0
H672 H 0.51976 0.79879 0.83811 0.0
H673 H 0.51609 0.76516 0.85233 0.0
H674 H 0.55814 0.78348 0.63432 0.0
H675 H 0.54872 0.74743 0.64652 0.0
H676 H 0.5395 0.80972 0.64124 0.0
H677 H 0.53501 0.83079 0.68123 0.0
C678 C 0.74863 0.55236 0.76237 0.0
C679 C 0.72756 0.54846 0.72981 0.0
C680 C 0.76017 0.55014 0.67109 0.0
C681 C 0.77961 0.55056 0.704 0.0
N682 N 0.79124 0.54865 0.78087 0.0
N683 N 0.71158 0.54147 0.65374 0.0
C684 C 0.77368 0.55096 0.74966 0.0
C685 C 0.73293 0.54697 0.68421 0.0
N686 N 0.74496 0.55809 0.80532 0.0
N687 N 0.76812 0.55347 0.62747 0.0
H688 H 0.69166 0.53972 0.66223 0.0
H689 H 0.71275 0.53679 0.62059 0.0
H690 H 0.7879 0.55576 0.61678 0.0
H691 H 0.75633 0.55633 0.60221 0.0
H692 H 0.76095 0.56415 0.82969 0.0
H693 H 0.7269 0.55944 0.81584 0.0
H694 H 0.78611 0.5453 0.81443 0.0
H695 H 0.80996 0.54777 0.77294 0.0
C696 C 0.20884 0.76568 0.68367 0.0
C697 C 0.22975 0.78447 0.71542 0.0
C698 C 0.19869 0.75308 0.7754 0.0
C699 C 0.17937 0.7327 0.74347 0.0
N700 N 0.16825 0.71708 0.66733 0.0
N701 N 0.24703 0.79431 0.79089 0.0
C702 C 0.18499 0.7383 0.69758 0.0
C703 C 0.22536 0.77773 0.76118 0.0
N704 N 0.21114 0.77454 0.64051 0.0
N705 N 0.19098 0.74957 0.81913 0.0
H706 H 0.26684 0.81264 0.78166 0.0
H707 H 0.24641 0.78851 0.82406 0.0
H708 H 0.17135 0.73211 0.83077 0.0
H709 H 0.20266 0.76533 0.84325 0.0
H710 H 0.19495 0.76318 0.61682 0.0
H711 H 0.22797 0.79477 0.62926 0.0
H712 H 0.17334 0.71872 0.63376 0.0
H713 H 0.15068 0.69662 0.67627 0.0
C714 C 0.4333 0.23919 0.75881 0.0
C715 C 0.43039 0.24282 0.71291 0.0
C716 C 0.43117 0.19765 0.69677 0.0
C717 C 0.43146 0.19267 0.74286 0.0
N718 N 0.42773 0.20574 0.81819 0.0
N719 N 0.42123 0.22318 0.6386 0.0
C720 C 0.4312 0.21266 0.77408 0.0
C721 C 0.4279 0.22143 0.68192 0.0
N722 N 0.43905 0.26147 0.7876 0.0
N723 N 0.43507 0.1803 0.6672 0.0
H724 H 0.41837 0.24011 0.62638 0.0
H725 H 0.41593 0.20652 0.61561 0.0
H726 H 0.43772 0.16275 0.67685 0.0
H727 H 0.4383 0.18487 0.63342 0.0
H728 H 0.44462 0.26142 0.82071 0.0
H729 H 0.44074 0.28125 0.77755 0.0
H730 H 0.42413 0.21787 0.84194 0.0
H731 H 0.42583 0.1864 0.83072 0.0
C732 C 0.19505 0.43224 0.68114 0.0
C733 C 0.17345 0.42868 0.71227 0.0
C734 C 0.20189 0.42379 0.77229 0.0
C735 C 0.22506 0.43107 0.74213 0.0
N736 N 0.24538 0.44494 0.66877 0.0
N737 N 0.15777 0.42508 0.78821 0.0
C738 C 0.22208 0.43587 0.69668 0.0
C739 C 0.17713 0.42534 0.75806 0.0
N740 N 0.18935 0.43123 0.63676 0.0
N741 N 0.20323 0.4146 0.81422 0.0
H742 H 0.13941 0.42641 0.77927 0.0
H743 H 0.16121 0.42611 0.82231 0.0
H744 H 0.22087 0.41274 0.82558 0.0
H745 H 0.18573 0.4061 0.83625 0.0
H746 H 0.20297 0.43068 0.61245 0.0
H747 H 0.16964 0.42827 0.6242 0.0
H748 H 0.24566 0.45206 0.63646 0.0
H749 H 0.26536 0.4474 0.67893 0.0
C750 C 0.75485 0.22968 0.77037 0.0
C751 C 0.77462 0.25066 0.73953 0.0
C752 C 0.74528 0.21946 0.67798 0.0
C753 C 0.72423 0.19982 0.70883 0.0
N754 N 0.70598 0.18891 0.78368 0.0
N755 N 0.78623 0.26838 0.66435 0.0
C756 C 0.72815 0.20569 0.75487 0.0
C757 C 0.76918 0.24638 0.69337 0.0
N758 N 0.76214 0.2319 0.81428 0.0
N759 N 0.74319 0.21186 0.63428 0.0
H760 H 0.80382 0.2885 0.67445 0.0
H761 H 0.78137 0.26774 0.63076 0.0
H762 H 0.72619 0.19222 0.62164 0.0
H763 H 0.75962 0.22378 0.61125 0.0
H764 H 0.75008 0.21549 0.83741 0.0
H765 H 0.78172 0.24886 0.82705 0.0
H766 H 0.70641 0.19412 0.81703 0.0
H767 H 0.68591 0.17132 0.77347 0.0
C768 C 0.41439 0.13474 0.00281 0.0
C769 C 0.40926 0.10889 0.02527 0.0
C770 C 0.40097 0.08285 0.95505 0.0
C771 C 0.40772 0.10921 0.93263 0.0
N772 N 0.41306 0.15732 0.93321 0.0
N773 N 0.39131 0.0568 0.02519 0.0
C774 C 0.41177 0.13422 0.956 0.0
C775 C 0.40029 0.08232 0.00208 0.0
N776 N 0.42298 0.16 0.02618 0.0
N777 N 0.39636 0.05882 0.93124 0.0
H778 H 0.3909 0.05593 0.05974 0.0
H779 H 0.38223 0.03616 0.01057 0.0
H780 H 0.395 0.05807 0.89672 0.0
H781 H 0.39479 0.04 0.94523 0.0
H782 H 0.43034 0.18048 0.01164 0.0
H783 H 0.42404 0.16069 0.06067 0.0
H784 H 0.41362 0.17535 0.94824 0.0
H785 H 0.41099 0.1572 0.89882 0.0
C786 C 0.2602 0.41747 0.95918 0.0
C787 C 0.27971 0.41078 0.93709 0.0
C788 C 0.29737 0.40285 0.0078 0.0
C789 C 0.27924 0.41146 0.02979 0.0
N790 N 0.23821 0.41923 0.02879 0.0
N791 N 0.3116 0.39052 0.93825 0.0
C792 C 0.2588 0.41611 0.00612 0.0
C793 C 0.29639 0.40101 0.96082 0.0
N794 N 0.24401 0.42631 0.93517 0.0
N795 N 0.31649 0.39795 0.03181 0.0
H796 H 0.31165 0.38948 0.90376 0.0
H797 H 0.32233 0.38081 0.95338 0.0
H798 H 0.31677 0.39787 0.06637 0.0
H799 H 0.33281 0.39505 0.01786 0.0
H800 H 0.23189 0.43482 0.94914 0.0
H801 H 0.24358 0.42612 0.90061 0.0
H802 H 0.22112 0.42044 0.01373 0.0
H803 H 0.23681 0.41809 0.06328 0.0
C804 C 0.83412 0.27509 0.94923 0.0
C805 C 0.85855 0.29884 0.92847 0.0
C806 C 0.8836 0.31534 -0.00024 0.0
C807 C 0.85708 0.29514 0.02087 0.0
N808 N 0.80776 0.25424 0.01782 0.0
N809 N 0.90778 0.3399 0.93137 0.0
C810 C 0.83265 0.27412 -0.0038 0.0
C811 C 0.88395 0.31818 0.95295 0.0
N812 N 0.81244 0.25375 0.9238 0.0
N813 N 0.90818 0.33184 0.0247 0.0
H814 H 0.90916 0.34123 0.89688 0.0
H815 H 0.92582 0.35696 0.94722 0.0
H816 H 0.9083 0.33007 0.05913 0.0
H817 H 0.92885 0.34556 0.01151 0.0
H818 H 0.79482 0.23466 0.93649 0.0
H819 H 0.81349 0.25407 0.88927 0.0
H820 H 0.78798 0.24039 0.00208 0.0
H821 H 0.80669 0.25229 0.05226 0.0
C822 C 0.55569 0.89098 0.01376 0.0
C823 C 0.5476 0.86296 0.03152 0.0
C824 C 0.54745 0.84426 0.95755 0.0
C825 C 0.5501 0.87033 0.9396 0.0
N826 N 0.5595 0.91976 0.94844 0.0
N827 N 0.53689 0.81309 0.02233 0.0
C828 C 0.55549 0.89429 0.96711 0.0
C829 C 0.54424 0.83972 0.00402 0.0
N830 N 0.56343 0.91421 0.04162 0.0
N831 N 0.5482 0.82411 0.93001 0.0
H832 H 0.53569 0.80959 0.0565 0.0
H833 H 0.53081 0.79419 0.00391 0.0
H834 H 0.55139 0.82759 0.89595 0.0
H835 H 0.54848 0.8055 0.94099 0.0
H836 H 0.57174 0.93579 0.03104 0.0
H837 H 0.56364 0.91229 0.076 0.0
H838 H 0.55998 0.93687 0.96627 0.0
H839 H 0.56165 0.92349 0.91434 0.0
C840 C 0.65044 0.56049 -0.00191 0.0
C841 C 0.66671 0.54929 0.01947 0.0
C842 C 0.68324 0.54119 0.94814 0.0
C843 C 0.66628 0.55156 0.92659 0.0
N844 N 0.63783 0.57575 0.92953 0.0
N845 N 0.70321 0.5349 0.01722 0.0
C846 C 0.65138 0.56297 0.95115 0.0
C847 C 0.68466 0.54156 -0.00485 0.0
N848 N 0.63308 0.56743 0.02267 0.0
N849 N 0.69729 0.53029 0.92351 0.0
H850 H 0.70453 0.53491 0.05172 0.0
H851 H 0.71886 0.53158 0.0018 0.0
H852 H 0.6981 0.53128 0.88897 0.0
H853 H 0.70718 0.5192 0.93688 0.0
H854 H 0.61784 0.57225 0.00922 0.0
H855 H 0.63291 0.56714 0.05723 0.0
H856 H 0.6292 0.5872 0.94537 0.0
H857 H 0.6367 0.57662 0.89513 0.0
C858 C 0.06924 0.65225 0.95303 0.0
C859 C 0.09536 0.67274 0.93124 0.0
C860 C 0.11788 0.69546 0.00199 0.0
C861 C 0.09399 0.67175 0.02381 0.0
N862 N 0.04563 0.62919 0.02247 0.0
N863 N 0.14386 0.71511 0.93282 0.0
C864 C 0.06901 0.65084 0.0 0.0
C865 C 0.11934 0.69511 0.95508 0.0
N866 N 0.04486 0.63431 0.92857 0.0
N867 N 0.13901 0.71808 0.02637 0.0
H868 H 0.14486 0.71611 0.89833 0.0
H869 H 0.16346 0.72998 0.94816 0.0
H870 H 0.13801 0.71875 0.06083 0.0
H871 H 0.15605 0.73721 0.01271 0.0
H872 H 0.02439 0.62025 0.9421 0.0
H873 H 0.0446 0.63515 0.89403 0.0
H874 H 0.02806 0.61117 0.00742 0.0
H875 H 0.04417 0.62892 0.05695 0.0
C876 C 0.89383 0.55546 0.50273 0.0
C877 C 0.87659 0.56536 0.52415 0.0
C878 C 0.85954 0.57319 0.45279 0.0
C879 C 0.87563 0.56187 0.43149 0.0
N880 N 0.91367 0.54955 0.4336 0.0
N881 N 0.84899 0.59031 0.52107 0.0
C882 C 0.89467 0.5554 0.45575 0.0
C883 C 0.8616 0.5767 0.49955 0.0
N884 N 0.90861 0.54529 0.52749 0.0
N885 N 0.84094 0.57878 0.42864 0.0
H886 H 0.84959 0.59255 0.55543 0.0
H887 H 0.84002 0.60145 0.50495 0.0
H888 H 0.83929 0.57699 0.39422 0.0
H889 H 0.82594 0.58365 0.44266 0.0
H890 H 0.91873 0.53446 0.51423 0.0
H891 H 0.90988 0.54679 0.56199 0.0
H892 H 0.92989 0.54703 0.44902 0.0
H893 H 0.91483 0.54969 0.39907 0.0
C894 C 0.26682 0.83661 0.50312 0.0
C895 C 0.28297 0.86386 0.52541 0.0
C896 C 0.29668 0.89036 0.4549 0.0
C897 C 0.28149 0.86297 0.43267 0.0
N898 N 0.24623 0.81124 0.43375 0.0
N899 N 0.3076 0.91681 0.52459 0.0
C900 C 0.26451 0.83645 0.45633 0.0
C901 C 0.29581 0.89085 0.5019 0.0
N902 N 0.25475 0.81091 0.52668 0.0
N903 N 0.31338 0.91558 0.43119 0.0
H904 H 0.30813 0.9179 0.5591 0.0
H905 H 0.31486 0.93712 0.5095 0.0
H906 H 0.3139 0.9161 0.39665 0.0
H907 H 0.32785 0.93576 0.4455 0.0
H908 H 0.24568 0.79022 0.51224 0.0
H909 H 0.25507 0.81035 0.56121 0.0
H910 H 0.23128 0.79157 0.44897 0.0
H911 H 0.24424 0.81075 0.39935 0.0
C912 C 0.3931 0.26633 0.50385 0.0
C913 C 0.39181 0.2895 0.52514 0.0
C914 C 0.3876 0.30906 0.45375 0.0
C915 C 0.39488 0.28956 0.43286 0.0
N916 N 0.40143 0.24757 0.43533 0.0
N917 N 0.38433 0.33089 0.52272 0.0
C918 C 0.39609 0.26711 0.45706 0.0
C919 C 0.38731 0.3099 0.50073 0.0
N920 N 0.39189 0.24403 0.52877 0.0
N921 N 0.38137 0.32682 0.42847 0.0
H922 H 0.38246 0.33084 0.55714 0.0
H923 H 0.38435 0.34863 0.5074 0.0
H924 H 0.3815 0.32647 0.3939 0.0
H925 H 0.37396 0.34023 0.44121 0.0
H926 H 0.39108 0.2254 0.51562 0.0
H927 H 0.38927 0.24319 0.5631 0.0
H928 H 0.40564 0.23248 0.45106 0.0
H929 H 0.40234 0.24699 0.40085 0.0
C930 C 0.05595 0.41175 0.50535 0.0
C931 C 0.07426 0.40367 0.52826 0.0
C932 C 0.09052 0.39328 0.4585 0.0
C933 C 0.07379 0.40338 0.43557 0.0
N934 N 0.03475 0.41421 0.43505 0.0
N935 N 0.10261 0.37956 0.52904 0.0
C936 C 0.05446 0.4099 0.45845 0.0
C937 C 0.08926 0.39177 0.50551 0.0
N938 N 0.04103 0.42231 0.52851 0.0
N939 N 0.10894 0.38703 0.4355 0.0
H940 H 0.10218 0.37857 0.56359 0.0
H941 H 0.11194 0.3683 0.51463 0.0
H942 H 0.10983 0.38724 0.40098 0.0
H943 H 0.1243 0.38293 0.4504 0.0
H944 H 0.03004 0.4319 0.51379 0.0
H945 H 0.0405 0.42238 0.56308 0.0
H946 H 0.01839 0.41681 0.44961 0.0
H947 H 0.03319 0.41266 0.40056 0.0
C948 C 0.69569 0.12779 0.45488 0.0
C949 C 0.67262 0.10282 0.43397 0.0
C950 C 0.65349 0.07967 0.50575 0.0
C951 C 0.67286 0.10687 0.52615 0.0
N952 N 0.71413 0.15609 0.5227 0.0
N953 N 0.63136 0.0536 0.43733 0.0
C954 C 0.69495 0.13058 0.50155 0.0
C955 C 0.65233 0.07805 0.45882 0.0
N956 N 0.71794 0.14874 0.42984 0.0
N957 N 0.63633 0.05565 0.53149 0.0
H958 H 0.63125 0.05129 0.40298 0.0
H959 H 0.61374 0.03601 0.45302 0.0
H960 H 0.63723 0.05644 0.56604 0.0
H961 H 0.62307 0.03455 0.51909 0.0
H962 H 0.73657 0.1667 0.44294 0.0
H963 H 0.71884 0.14669 0.39558 0.0
H964 H 0.72874 0.17545 0.50644 0.0
H965 H 0.71477 0.15812 0.5571 0.0
C966 C 0.55772 0.68359 0.47213 0.0
C967 C 0.53344 0.66064 0.44935 0.0
C968 C 0.51278 0.63607 0.51973 0.0
C969 C 0.5343 0.66121 0.54259 0.0
N970 N 0.5753 0.71093 0.54053 0.0
N971 N 0.48472 0.61791 0.45243 0.0
C972 C 0.55642 0.68553 0.5189 0.0
C973 C 0.51014 0.63752 0.47333 0.0
N974 N 0.58238 0.70286 0.44947 0.0
N975 N 0.49525 0.61056 0.54225 0.0
H976 H 0.4809 0.61903 0.41878 0.0
H977 H 0.46613 0.60251 0.46946 0.0
H978 H 0.49725 0.60834 0.57625 0.0
H979 H 0.48106 0.59081 0.52645 0.0
H980 H 0.60169 0.71819 0.46511 0.0
H981 H 0.58461 0.70156 0.41538 0.0
H982 H 0.58966 0.73034 0.52409 0.0
H983 H 0.57496 0.71342 0.57473 0.0
C984 C 0.54304 0.13135 0.21594 0.0
C985 C 0.51672 0.10482 0.20649 0.0
C986 C 0.53444 0.07652 0.2468 0.0
C987 C 0.55975 0.10313 0.2595 0.0
N988 N 0.58707 0.15609 0.2611 0.0
N989 N 0.48442 0.0531 0.22081 0.0
C990 C 0.56384 0.13069 0.24537 0.0
C991 C 0.51154 0.07768 0.2243 0.0
N992 N 0.54839 0.15689 0.1959 0.0
N993 N 0.53281 0.0501 0.25441 0.0
H994 H 0.46683 0.05302 0.20492 0.0
H995 H 0.47855 0.03352 0.2374 0.0
H996 H 0.54947 0.04818 0.26974 0.0
H997 H 0.51627 0.03029 0.24152 0.0
H998 H 0.56841 0.17641 0.19761 0.0
H999 H 0.53324 0.15809 0.17505 0.0
H1000 H 0.58973 0.17683 0.25572 0.0
H1001 H 0.60278 0.15627 0.28231 0.0
C1002 C 0.41506 0.56417 0.25601 0.0
C1003 C 0.44064 0.56207 0.26102 0.0
C1004 C 0.41879 0.51746 0.21614 0.0
C1005 C 0.39442 0.52104 0.20732 0.0
N1006 N 0.37025 0.54922 0.21446 0.0
N1007 N 0.46975 0.54114 0.23684 0.0
C1008 C 0.39272 0.54479 0.2261 0.0
C1009 C 0.44334 0.53998 0.23849 0.0
N1010 N 0.41179 0.58399 0.28078 0.0
N1011 N 0.41806 0.49196 0.20474 0.0
H1012 H 0.48874 0.55788 0.25148 0.0
H1013 H 0.47355 0.52727 0.21696 0.0
H1014 H 0.4001 0.47436 0.1894 0.0
H1015 H 0.43399 0.48703 0.21471 0.0
H1016 H 0.39244 0.58461 0.28208 0.0
H1017 H 0.42786 0.59859 0.30261 0.0
H1018 H 0.36931 0.5678 0.22336 0.0
H1019 H 0.35342 0.53513 0.19315 0.0
C1020 C 0.86202 0.43639 0.257 0.0
C1021 C 0.84296 0.44556 0.2397 0.0
C1022 C 0.82581 0.40735 0.18274 0.0
C1023 C 0.84772 0.40099 0.19632 0.0
N1024 N 0.88815 0.41029 0.24414 0.0
N1025 N 0.80735 0.44121 0.18568 0.0
C1026 C 0.86601 0.41546 0.23323 0.0
C1027 C 0.82471 0.43119 0.20274 0.0
N1028 N 0.87598 0.44747 0.29651 0.0
N1029 N 0.80594 0.39031 0.15111 0.0
H1030 H 0.80549 0.45814 0.20024 0.0
H1031 H 0.79605 0.43399 0.15582 0.0
H1032 H 0.80634 0.37274 0.1359 0.0
H1033 H 0.78773 0.39192 0.14251 0.0
H1034 H 0.88786 0.43955 0.31323 0.0
H1035 H 0.87355 0.46293 0.31469 0.0
H1036 H 0.90443 0.42267 0.2672 0.0
H1037 H 0.89149 0.39475 0.22799 0.0
C1038 C 0.40964 0.83295 0.21791 0.0
C1039 C 0.43618 0.85929 0.20866 0.0
C1040 C 0.41843 0.88814 0.24665 0.0
C1041 C 0.39289 0.86175 0.25931 0.0
N1042 N 0.3652 0.8088 0.26196 0.0
N1043 N 0.46868 0.91103 0.22239 0.0
C1044 C 0.38868 0.834 0.24625 0.0
C1045 C 0.44142 0.88661 0.22552 0.0
N1046 N 0.40426 0.80722 0.19875 0.0
N1047 N 0.42019 0.91472 0.25295 0.0
H1048 H 0.48636 0.91083 0.20753 0.0
H1049 H 0.47453 0.93075 0.23837 0.0
H1050 H 0.40343 0.9169 0.2671 0.0
H1051 H 0.43696 0.93437 0.24 0.0
H1052 H 0.38413 0.78781 0.20028 0.0
H1053 H 0.41955 0.80575 0.17882 0.0
H1054 H 0.36242 0.78796 0.25737 0.0
H1055 H 0.34939 0.80891 0.28237 0.0
C1056 C 0.53608 0.45247 0.22621 0.0
C1057 C 0.55797 0.44741 0.20869 0.0
C1058 C 0.53734 0.40087 0.24966 0.0
C1059 C 0.51373 0.4046 0.26313 0.0
N1060 N 0.48737 0.4309 0.25654 0.0
N1061 N 0.57852 0.41602 0.19981 0.0
C1062 C 0.51222 0.4296 0.24939 0.0
C1063 C 0.55847 0.42142 0.21947 0.0
N1064 N 0.53854 0.4795 0.22184 0.0
N1065 N 0.53992 0.37819 0.26663 0.0
H1066 H 0.59456 0.43091 0.17825 0.0
H1067 H 0.57811 0.39611 0.20249 0.0
H1068 H 0.52468 0.36271 0.28852 0.0
H1069 H 0.55814 0.37591 0.26172 0.0
H1070 H 0.52488 0.48535 0.23807 0.0
H1071 H 0.55601 0.49711 0.20567 0.0
H1072 H 0.48391 0.4471 0.24287 0.0
H1073 H 0.46889 0.41426 0.27234 0.0
C1074 C 0.12647 0.55848 0.18687 0.0
C1075 C 0.10448 0.5648 0.19972 0.0
C1076 C 0.08961 0.52903 0.26017 0.0
C1077 C 0.10869 0.51983 0.24341 0.0
N1078 N 0.14474 0.52447 0.19043 0.0
N1079 N 0.06367 0.55528 0.24641 0.0
C1080 C 0.12731 0.53444 0.20697 0.0
C1081 C 0.08587 0.55014 0.23618 0.0
N1082 N 0.14667 0.57574 0.15583 0.0
N1083 N 0.07539 0.5178 0.2994 0.0
H1084 H 0.06049 0.57093 0.23008 0.0
H1085 H 0.0472 0.54276 0.26905 0.0
H1086 H 0.07766 0.50223 0.31776 0.0
H1087 H 0.06346 0.5257 0.31576 0.0
H1088 H 0.16494 0.57414 0.1478 0.0
H1089 H 0.14648 0.59347 0.1406 0.0
H1090 H 0.15632 0.5319 0.16091 0.0
H1091 H 0.14637 0.50736 0.20504 0.0
C1092 C 0.42089 0.85218 0.7481 0.0
C1093 C 0.44438 0.88036 0.76016 0.0
C1094 C 0.42014 0.90384 0.72345 0.0
C1095 C 0.39834 0.87603 0.7073 0.0
N1096 N 0.37897 0.82392 0.69997 0.0
N1097 N 0.46935 0.93318 0.75184 0.0
C1098 C 0.39891 0.85017 0.71852 0.0
C1099 C 0.44481 0.90626 0.74588 0.0
N1100 N 0.41908 0.82747 0.76611 0.0
N1101 N 0.41684 0.92785 0.71848 0.0
H1102 H 0.48834 0.93598 0.76699 0.0
H1103 H 0.47197 0.95247 0.73782 0.0
H1104 H 0.39884 0.92697 0.7027 0.0
H1105 H 0.43046 0.94797 0.73379 0.0
H1106 H 0.40099 0.8065 0.76225 0.0
H1107 H 0.43472 0.82814 0.78798 0.0
H1108 H 0.38014 0.80484 0.7029 0.0
H1109 H 0.36224 0.82169 0.679 0.0
C1110 C 0.54615 0.45928 0.70467 0.0
C1111 C 0.56174 0.45061 0.73323 0.0
C1112 C 0.53465 0.40062 0.70347 0.0
C1113 C 0.51608 0.40829 0.68006 0.0
N1114 N 0.50072 0.44394 0.66627 0.0
N1115 N 0.5701 0.41296 0.76278 0.0
C1116 C 0.52102 0.43743 0.68236 0.0
C1117 C 0.55582 0.42122 0.73347 0.0
N1118 N 0.55518 0.4884 0.69904 0.0
N1119 N 0.53271 0.37412 0.69591 0.0
H1120 H 0.58666 0.42789 0.78371 0.0
H1121 H 0.56439 0.39116 0.76813 0.0
H1122 H 0.51808 0.3589 0.67314 0.0
H1123 H 0.54741 0.36838 0.70893 0.0
H1124 H 0.54633 0.49602 0.67512 0.0
H1125 H 0.57338 0.50519 0.71516 0.0
H1126 H 0.50184 0.464 0.67188 0.0
H1127 H 0.48106 0.42855 0.65163 0.0
C1128 C 0.1289 0.56229 0.76988 0.0
C1129 C 0.10654 0.5678 0.75562 0.0
C1130 C 0.09373 0.5326 0.69499 0.0
C1131 C 0.11331 0.52428 0.71289 0.0
N1132 N 0.14917 0.52994 0.7673 0.0
N1133 N 0.06647 0.55772 0.70651 0.0
C1134 C 0.13109 0.53901 0.75006 0.0
C1135 C 0.08885 0.55312 0.71828 0.0
N1136 N 0.14816 0.57961 0.80197 0.0
N1137 N 0.07995 0.5209 0.65558 0.0
H1138 H 0.06262 0.57308 0.72216 0.0
H1139 H 0.05056 0.54515 0.6831 0.0
H1140 H 0.08287 0.50555 0.63795 0.0
H1141 H 0.0676 0.52808 0.63843 0.0
H1142 H 0.16661 0.57862 0.81119 0.0
H1143 H 0.14696 0.59677 0.81706 0.0
H1144 H 0.16022 0.53735 0.79731 0.0
H1145 H 0.15204 0.51368 0.75248 0.0
C1146 C 0.53418 0.08044 0.71188 0.0
C1147 C 0.55708 0.10712 0.69415 0.0
C1148 C 0.53758 0.13468 0.73228 0.0
C1149 C 0.51347 0.10767 0.74676 0.0
N1150 N 0.48499 0.05476 0.74086 0.0
N1151 N 0.57885 0.15926 0.682 0.0
C1152 C 0.51062 0.08052 0.73368 0.0
C1153 C 0.55835 0.13422 0.7028 0.0
N1154 N 0.53558 0.05522 0.70989 0.0
N1155 N 0.54113 0.16062 0.74783 0.0
H1156 H 0.5944 0.1596 0.66047 0.0
H1157 H 0.5791 0.17913 0.68339 0.0
H1158 H 0.52609 0.16164 0.76892 0.0
H1159 H 0.55984 0.18092 0.74234 0.0
H1160 H 0.52102 0.03599 0.72657 0.0
H1161 H 0.55298 0.05424 0.69558 0.0
H1162 H 0.48073 0.03467 0.72786 0.0
H1163 H 0.46678 0.05385 0.75576 0.0
C1164 C 0.39563 0.56247 0.7959 0.0
C1165 C 0.38823 0.53522 0.77599 0.0
C1166 C 0.42237 0.56098 0.71539 0.0
C1167 C 0.4328 0.58774 0.73874 0.0
N1168 N 0.43061 0.61477 0.80137 0.0
N1169 N 0.39564 0.5078 0.71854 0.0
C1170 C 0.41952 0.58883 0.7788 0.0
C1171 C 0.40156 0.53424 0.73582 0.0
N1172 N 0.37947 0.56304 0.83072 0.0
N1173 N 0.43216 0.56126 0.67341 0.0
H1174 H 0.38016 0.48761 0.73192 0.0
H1175 H 0.40746 0.50577 0.69268 0.0
H1176 H 0.44744 0.58056 0.65747 0.0
H1177 H 0.42326 0.5429 0.65286 0.0
H1178 H 0.38191 0.5823 0.84427 0.0
H1179 H 0.36174 0.54402 0.8437 0.0
H1180 H 0.42418 0.61646 0.83326 0.0
H1181 H 0.44758 0.63459 0.78908 0.0
C1182 C 0.8331 0.42573 0.79058 0.0
C1183 C 0.84934 0.41439 0.76973 0.0
C1184 C 0.85536 0.4441 0.70369 0.0
C1185 C 0.84248 0.45812 0.72677 0.0
N1186 N 0.82062 0.4642 0.79276 0.0
N1187 N 0.87957 0.4156 0.70894 0.0
C1188 C 0.83169 0.44942 0.7704 0.0
C1189 C 0.86117 0.42403 0.72669 0.0
N1190 N 0.81835 0.41322 0.82897 0.0
N1191 N 0.86225 0.45014 0.65983 0.0
H1192 H 0.88493 0.40132 0.72477 0.0
H1193 H 0.89164 0.42471 0.68018 0.0
H1194 H 0.85935 0.46554 0.64215 0.0
H1195 H 0.86859 0.43819 0.63998 0.0
H1196 H 0.80384 0.41854 0.84362 0.0
H1197 H 0.81859 0.39553 0.84421 0.0
H1198 H 0.81559 0.4613 0.82637 0.0
H1199 H 0.818 0.48072 0.77816 0.0
loop_
_geom_bond_atom_site_label_1
_geom_bond_atom_site_label_2
_geom_bond_distance
_geom_bond_site_symmetry_2
_ccdc_geom_bond_type
C0 O1 1.306 . S
C0 O3 1.160 . S
O1 C0 1.306 . S
O1 Cd2 2.228 . S
Cd2 O1 2.228 . S
Cd2 O6 2.273 . S
Cd2 O10 2.277 . S
O3 C0 1.160 . S
O3 Cd4 2.203 . S
Cd4 O3 2.203 . S
Cd4 O6 2.411 . S
Cd4 O7 2.333 . S
Cd4 O8 2.352 . S
Cd4 O12 2.277 . S
Cd4 O13 2.356 . S
C5 O10 1.209 . S
C5 O12 1.226 . S
O6 Cd2 2.273 . S
O6 Cd4 2.411 . S
O6 C9 1.320 . S
O7 Cd4 2.333 . S
O7 C9 1.214 . S
O8 Cd4 2.352 . S
O8 C11 1.258 . S
C9 O6 1.320 . S
C9 O7 1.214 . S
O10 Cd2 2.277 . S
O10 C5 1.209 . S
C11 O8 1.258 . S
C11 O13 1.282 . S
O12 Cd4 2.277 . S
O12 C5 1.226 . S
O13 Cd4 2.356 . S
O13 C11 1.282 . S
C14 O15 1.306 . S
C14 O17 1.160 . S
O15 C14 1.306 . S
O15 Cd16 2.228 . S
Cd16 O15 2.228 . S
Cd16 O20 2.273 . S
Cd16 O24 2.277 . S
O17 C14 1.160 . S
O17 Cd18 2.203 . S
Cd18 O17 2.203 . S
Cd18 O20 2.411 . S
Cd18 O21 2.333 . S
Cd18 O22 2.352 . S
Cd18 O26 2.277 . S
Cd18 O27 2.356 . S
C19 O24 1.209 . S
C19 O26 1.226 . S
O20 Cd16 2.273 . S
O20 Cd18 2.411 . S
O20 C23 1.320 . S
O21 Cd18 2.333 . S
O21 C23 1.214 . S
O22 Cd18 2.352 . S
O22 C25 1.258 . S
C23 O20 1.320 . S
C23 O21 1.214 . S
O24 Cd16 2.277 . S
O24 C19 1.209 . S
C25 O22 1.258 . S
C25 O27 1.282 . S
O26 Cd18 2.277 . S
O26 C19 1.226 . S
O27 Cd18 2.356 . S
O27 C25 1.282 . S
C28 O29 1.306 . S
C28 O31 1.160 . S
O29 C28 1.306 . S
O29 Cd30 2.228 . S
Cd30 O29 2.228 . S
Cd30 O34 2.273 . S
Cd30 O38 2.277 . S
O31 C28 1.160 . S
O31 Cd32 2.203 . S
Cd32 O31 2.203 . S
Cd32 O34 2.411 . S
Cd32 O35 2.333 . S
Cd32 O36 2.352 . S
Cd32 O40 2.277 . S
Cd32 O41 2.356 . S
C33 O38 1.209 . S
C33 O40 1.226 . S
O34 Cd30 2.273 . S
O34 Cd32 2.411 . S
O34 C37 1.320 . S
O35 Cd32 2.333 . S
O35 C37 1.214 . S
O36 Cd32 2.352 . S
O36 C39 1.258 . S
C37 O34 1.320 . S
C37 O35 1.214 . S
O38 Cd30 2.277 . S
O38 C33 1.209 . S
C39 O36 1.258 . S
C39 O41 1.282 . S
O40 Cd32 2.277 . S
O40 C33 1.226 . S
O41 Cd32 2.356 . S
O41 C39 1.282 . S
C42 O43 1.306 . S
C42 O45 1.160 . S
O43 C42 1.306 . S
O43 Cd44 2.228 . S
Cd44 O43 2.228 . S
Cd44 O48 2.273 . S
Cd44 O52 2.277 . S
O45 C42 1.160 . S
O45 Cd46 2.203 . S
Cd46 O45 2.203 . S
Cd46 O48 2.411 . S
Cd46 O49 2.333 . S
Cd46 O50 2.352 . S
Cd46 O54 2.277 . S
Cd46 O55 2.356 . S
C47 O52 1.209 . S
C47 O54 1.226 . S
O48 Cd44 2.273 . S
O48 Cd46 2.411 . S
O48 C51 1.320 . S
O49 Cd46 2.333 . S
O49 C51 1.214 . S
O50 Cd46 2.352 . S
O50 C53 1.258 . S
C51 O48 1.320 . S
C51 O49 1.214 . S
O52 Cd44 2.277 . S
O52 C47 1.209 . S
C53 O50 1.258 . S
C53 O55 1.282 . S
O54 Cd46 2.277 . S
O54 C47 1.226 . S
O55 Cd46 2.356 . S
O55 C53 1.282 . S
C56 O57 1.306 . S
C56 O59 1.160 . S
O57 C56 1.306 . S
O57 Cd58 2.228 . S
Cd58 O57 2.228 . S
Cd58 O62 2.273 . S
Cd58 O66 2.277 . S
O59 C56 1.160 . S
O59 Cd60 2.203 . S
Cd60 O59 2.203 . S
Cd60 O62 2.411 . S
Cd60 O63 2.333 . S
Cd60 O64 2.352 . S
Cd60 O68 2.277 . S
Cd60 O69 2.356 . S
C61 O66 1.209 . S
C61 O68 1.226 . S
O62 Cd58 2.273 . S
O62 Cd60 2.411 . S
O62 C65 1.320 . S
O63 Cd60 2.333 . S
O63 C65 1.214 . S
O64 Cd60 2.352 . S
O64 C67 1.258 . S
C65 O62 1.320 . S
C65 O63 1.214 . S
O66 Cd58 2.277 . S
O66 C61 1.209 . S
C67 O64 1.258 . S
C67 O69 1.282 . S
O68 Cd60 2.277 . S
O68 C61 1.226 . S
O69 Cd60 2.356 . S
O69 C67 1.282 . S
C70 O71 1.306 . S
C70 O73 1.160 . S
O71 C70 1.306 . S
O71 Cd72 2.228 . S
Cd72 O71 2.228 . S
Cd72 O76 2.273 . S
Cd72 O80 2.277 . S
O73 C70 1.160 . S
O73 Cd74 2.203 . S
Cd74 O73 2.203 . S
Cd74 O76 2.411 . S
Cd74 O77 2.333 . S
Cd74 O78 2.352 . S
Cd74 O82 2.277 . S
Cd74 O83 2.356 . S
C75 O80 1.209 . S
C75 O82 1.226 . S
O76 Cd72 2.273 . S
O76 Cd74 2.411 . S
O76 C79 1.320 . S
O77 Cd74 2.333 . S
O77 C79 1.214 . S
O78 Cd74 2.352 . S
O78 C81 1.258 . S
C79 O76 1.320 . S
C79 O77 1.214 . S
O80 Cd72 2.277 . S
O80 C75 1.209 . S
C81 O78 1.258 . S
C81 O83 1.282 . S
O82 Cd74 2.277 . S
O82 C75 1.226 . S
O83 Cd74 2.356 . S
O83 C81 1.282 . S
C84 O85 1.306 . S
C84 O87 1.160 . S
O85 C84 1.306 . S
O85 Cd86 2.228 . S
Cd86 O85 2.228 . S
Cd86 O90 2.273 . S
Cd86 O94 2.277 . S
O87 C84 1.160 . S
O87 Cd88 2.203 . S
Cd88 O87 2.203 . S
Cd88 O90 2.411 . S
Cd88 O91 2.333 . S
Cd88 O92 2.352 . S
Cd88 O96 2.277 . S
Cd88 O97 2.356 . S
C89 O94 1.209 . S
C89 O96 1.226 . S
O90 Cd86 2.273 . S
O90 Cd88 2.411 . S
O90 C93 1.320 . S
O91 Cd88 2.333 . S
O91 C93 1.214 . S
O92 Cd88 2.352 . S
O92 C95 1.258 . S
C93 O90 1.320 . S
C93 O91 1.214 . S
O94 Cd86 2.277 . S
O94 C89 1.209 . S
C95 O92 1.258 . S
C95 O97 1.282 . S
O96 Cd88 2.277 . S
O96 C89 1.226 . S
O97 Cd88 2.356 . S
O97 C95 1.282 . S
C98 O99 1.306 . S
C98 O101 1.160 . S
O99 C98 1.306 . S
O99 Cd100 2.228 . S
Cd100 O99 2.228 . S
Cd100 O104 2.273 . S
Cd100 O108 2.277 . S
O101 C98 1.160 . S
O101 Cd102 2.203 . S
Cd102 O101 2.203 . S
Cd102 O104 2.411 . S
Cd102 O105 2.333 . S
Cd102 O106 2.352 . S
Cd102 O110 2.277 . S
Cd102 O111 2.356 . S
C103 O108 1.209 . S
C103 O110 1.226 . S
O104 Cd100 2.273 . S
O104 Cd102 2.411 . S
O104 C107 1.320 . S
O105 Cd102 2.333 . S
O105 C107 1.214 . S
O106 Cd102 2.352 . S
O106 C109 1.258 . S
C107 O104 1.320 . S
C107 O105 1.214 . S
O108 Cd100 2.277 . S
O108 C103 1.209 . S
C109 O106 1.258 . S
C109 O111 1.282 . S
O110 Cd102 2.277 . S
O110 C103 1.226 . S
O111 Cd102 2.356 . S
O111 C109 1.282 . S
C112 O113 1.306 . S
C112 O115 1.160 . S
O113 C112 1.306 . S
O113 Cd114 2.228 . S
Cd114 O113 2.228 . S
Cd114 O118 2.273 . S
Cd114 O122 2.277 . S
O115 C112 1.160 . S
O115 Cd116 2.203 . S
Cd116 O115 2.203 . S
Cd116 O118 2.411 . S
Cd116 O119 2.333 . S
Cd116 O120 2.352 . S
Cd116 O124 2.277 . S
Cd116 O125 2.356 . S
C117 O122 1.209 . S
C117 O124 1.226 . S
O118 Cd114 2.273 . S
O118 Cd116 2.411 . S
O118 C121 1.320 . S
O119 Cd116 2.333 . S
O119 C121 1.214 . S
O120 Cd116 2.352 . S
O120 C123 1.258 . S
C121 O118 1.320 . S
C121 O119 1.214 . S
O122 Cd114 2.277 . S
O122 C117 1.209 . S
C123 O120 1.258 . S
C123 O125 1.282 . S
O124 Cd116 2.277 . S
O124 C117 1.226 . S
O125 Cd116 2.356 . S
O125 C123 1.282 . S
C126 O127 1.306 . S
C126 O129 1.160 . S
O127 C126 1.306 . S
O127 Cd128 2.228 . S
Cd128 O127 2.228 . S
Cd128 O132 2.273 . S
Cd128 O136 2.277 . S
O129 C126 1.160 . S
O129 Cd130 2.203 . S
Cd130 O129 2.203 . S
Cd130 O132 2.411 . S
Cd130 O133 2.333 . S
Cd130 O134 2.352 . S
Cd130 O138 2.277 . S
Cd130 O139 2.356 . S
C131 O136 1.209 . S
C131 O138 1.226 . S
O132 Cd128 2.273 . S
O132 Cd130 2.411 . S
O132 C135 1.320 . S
O133 Cd130 2.333 . S
O133 C135 1.214 . S
O134 Cd130 2.352 . S
O134 C137 1.258 . S
C135 O132 1.320 . S
C135 O133 1.214 . S
O136 Cd128 2.277 . S
O136 C131 1.209 . S
C137 O134 1.258 . S
C137 O139 1.282 . S
O138 Cd130 2.277 . S
O138 C131 1.226 . S
O139 Cd130 2.356 . S
O139 C137 1.282 . S
C140 O141 1.306 . S
C140 O143 1.160 . S
O141 C140 1.306 . S
O141 Cd142 2.228 . S
Cd142 O141 2.228 . S
Cd142 O146 2.273 . S
Cd142 O150 2.277 . S
O143 C140 1.160 . S
O143 Cd144 2.203 . S
Cd144 O143 2.203 . S
Cd144 O146 2.411 . S
Cd144 O147 2.333 . S
Cd144 O148 2.352 . S
Cd144 O152 2.277 . S
Cd144 O153 2.356 . S
C145 O150 1.209 . S
C145 O152 1.226 . S
O146 Cd142 2.273 . S
O146 Cd144 2.411 . S
O146 C149 1.320 . S
O147 Cd144 2.333 . S
O147 C149 1.214 . S
O148 Cd144 2.352 . S
O148 C151 1.258 . S
C149 O146 1.320 . S
C149 O147 1.214 . S
O150 Cd142 2.277 . S
O150 C145 1.209 . S
C151 O148 1.258 . S
C151 O153 1.282 . S
O152 Cd144 2.277 . S
O152 C145 1.226 . S
O153 Cd144 2.356 . S
O153 C151 1.282 . S
C154 O155 1.306 . S
C154 O157 1.160 . S
O155 C154 1.306 . S
O155 Cd156 2.228 . S
Cd156 O155 2.228 . S
Cd156 O160 2.273 . S
Cd156 O164 2.277 . S
O157 C154 1.160 . S
O157 Cd158 2.203 . S
Cd158 O157 2.203 . S
Cd158 O160 2.411 . S
Cd158 O161 2.333 . S
Cd158 O162 2.352 . S
Cd158 O166 2.277 . S
Cd158 O167 2.356 . S
C159 O164 1.209 . S
C159 O166 1.226 . S
O160 Cd156 2.273 . S
O160 Cd158 2.411 . S
O160 C163 1.320 . S
O161 Cd158 2.333 . S
O161 C163 1.214 . S
O162 Cd158 2.352 . S
O162 C165 1.258 . S
C163 O160 1.320 . S
C163 O161 1.214 . S
O164 Cd156 2.277 . S
O164 C159 1.209 . S
C165 O162 1.258 . S
C165 O167 1.282 . S
O166 Cd158 2.277 . S
O166 C159 1.226 . S
O167 Cd158 2.356 . S
O167 C165 1.282 . S
C168 O169 1.306 . S
C168 O171 1.160 . S
O169 C168 1.306 . S
O169 Cd170 2.228 . S
Cd170 O169 2.228 . S
Cd170 O174 2.273 . S
Cd170 O178 2.277 . S
O171 C168 1.160 . S
O171 Cd172 2.203 . S
Cd172 O171 2.203 . S
Cd172 O174 2.411 . S
Cd172 O175 2.333 . S
Cd172 O176 2.352 . S
Cd172 O180 2.277 . S
Cd172 O181 2.356 . S
C173 O178 1.209 . S
C173 O180 1.226 . S
O174 Cd170 2.273 . S
O174 Cd172 2.411 . S
O174 C177 1.320 . S
O175 Cd172 2.333 . S
O175 C177 1.214 . S
O176 Cd172 2.352 . S
O176 C179 1.258 . S
C177 O174 1.320 . S
C177 O175 1.214 . S
O178 Cd170 2.277 . S
O178 C173 1.209 . S
C179 O176 1.258 . S
C179 O181 1.282 . S
O180 Cd172 2.277 . S
O180 C173 1.226 . S
O181 Cd172 2.356 . S
O181 C179 1.282 . S
C182 O183 1.306 . S
C182 O185 1.160 . S
O183 C182 1.306 . S
O183 Cd184 2.228 . S
Cd184 O183 2.228 . S
Cd184 O188 2.273 . S
Cd184 O192 2.277 . S
O185 C182 1.160 . S
O185 Cd186 2.203 . S
Cd186 O185 2.203 . S
Cd186 O188 2.411 . S
Cd186 O189 2.333 . S
Cd186 O190 2.352 . S
Cd186 O194 2.277 . S
Cd186 O195 2.356 . S
C187 O192 1.209 . S
C187 O194 1.226 . S
O188 Cd184 2.273 . S
O188 Cd186 2.411 . S
O188 C191 1.320 . S
O189 Cd186 2.333 . S
O189 C191 1.214 . S
O190 Cd186 2.352 . S
O190 C193 1.258 . S
C191 O188 1.320 . S
C191 O189 1.214 . S
O192 Cd184 2.277 . S
O192 C187 1.209 . S
C193 O190 1.258 . S
C193 O195 1.282 . S
O194 Cd186 2.277 . S
O194 C187 1.226 . S
O195 Cd186 2.356 . S
O195 C193 1.282 . S
C196 O197 1.306 . S
C196 O199 1.160 . S
O197 C196 1.306 . S
O197 Cd198 2.228 . S
Cd198 O197 2.228 . S
Cd198 O202 2.273 . S
Cd198 O206 2.277 . S
O199 C196 1.160 . S
O199 Cd200 2.203 . S
Cd200 O199 2.203 . S
Cd200 O202 2.411 . S
Cd200 O203 2.333 . S
Cd200 O204 2.352 . S
Cd200 O208 2.277 . S
Cd200 O209 2.356 . S
C201 O206 1.209 . S
C201 O208 1.226 . S
O202 Cd198 2.273 . S
O202 Cd200 2.411 . S
O202 C205 1.320 . S
O203 Cd200 2.333 . S
O203 C205 1.214 . S
O204 Cd200 2.352 . S
O204 C207 1.258 . S
C205 O202 1.320 . S
C205 O203 1.214 . S
O206 Cd198 2.277 . S
O206 C201 1.209 . S
C207 O204 1.258 . S
C207 O209 1.282 . S
O208 Cd200 2.277 . S
O208 C201 1.226 . S
O209 Cd200 2.356 . S
O209 C207 1.282 . S
C210 O211 1.306 . S
C210 O213 1.160 . S
O211 C210 1.306 . S
O211 Cd212 2.228 . S
Cd212 O211 2.228 . S
Cd212 O216 2.273 . S
Cd212 O220 2.277 . S
O213 C210 1.160 . S
O213 Cd214 2.203 . S
Cd214 O213 2.203 . S
Cd214 O216 2.411 . S
Cd214 O217 2.333 . S
Cd214 O218 2.352 . S
Cd214 O222 2.277 . S
Cd214 O223 2.356 . S
C215 O220 1.209 . S
C215 O222 1.226 . S
O216 Cd212 2.273 . S
O216 Cd214 2.411 . S
O216 C219 1.320 . S
O217 Cd214 2.333 . S
O217 C219 1.214 . S
O218 Cd214 2.352 . S
O218 C221 1.258 . S
C219 O216 1.320 . S
C219 O217 1.214 . S
O220 Cd212 2.277 . S
O220 C215 1.209 . S
C221 O218 1.258 . S
C221 O223 1.282 . S
O222 Cd214 2.277 . S
O222 C215 1.226 . S
O223 Cd214 2.356 . S
O223 C221 1.282 . S
C224 O225 1.306 . S
C224 O227 1.160 . S
O225 C224 1.306 . S
O225 Cd226 2.228 . S
Cd226 O225 2.228 . S
Cd226 O230 2.273 . S
Cd226 O234 2.277 . S
O227 C224 1.160 . S
O227 Cd228 2.203 . S
Cd228 O227 2.203 . S
Cd228 O230 2.411 . S
Cd228 O231 2.333 . S
Cd228 O232 2.352 . S
Cd228 O236 2.277 . S
Cd228 O237 2.356 . S
C229 O234 1.209 . S
C229 O236 1.226 . S
O230 Cd226 2.273 . S
O230 Cd228 2.411 . S
O230 C233 1.320 . S
O231 Cd228 2.333 . S
O231 C233 1.214 . S
O232 Cd228 2.352 . S
O232 C235 1.258 . S
C233 O230 1.320 . S
C233 O231 1.214 . S
O234 Cd226 2.277 . S
O234 C229 1.209 . S
C235 O232 1.258 . S
C235 O237 1.282 . S
O236 Cd228 2.277 . S
O236 C229 1.226 . S
O237 Cd228 2.356 . S
O237 C235 1.282 . S
C238 O239 1.306 . S
C238 O241 1.160 . S
O239 C238 1.306 . S
O239 Cd240 2.228 . S
Cd240 O239 2.228 . S
Cd240 O244 2.273 . S
Cd240 O248 2.277 . S
O241 C238 1.160 . S
O241 Cd242 2.203 . S
Cd242 O241 2.203 . S
Cd242 O244 2.411 . S
Cd242 O245 2.333 . S
Cd242 O246 2.352 . S
Cd242 O250 2.277 . S
Cd242 O251 2.356 . S
C243 O248 1.209 . S
C243 O250 1.226 . S
O244 Cd240 2.273 . S
O244 Cd242 2.411 . S
O244 C247 1.320 . S
O245 Cd242 2.333 . S
O245 C247 1.214 . S
O246 Cd242 2.352 . S
O246 C249 1.258 . S
C247 O244 1.320 . S
C247 O245 1.214 . S
O248 Cd240 2.277 . S
O248 C243 1.209 . S
C249 O246 1.258 . S
C249 O251 1.282 . S
O250 Cd242 2.277 . S
O250 C243 1.226 . S
O251 Cd242 2.356 . S
O251 C249 1.282 . S
C252 O253 1.306 . S
C252 O255 1.160 . S
O253 C252 1.306 . S
O253 Cd254 2.228 . S
Cd254 O253 2.228 . S
Cd254 O258 2.273 . S
Cd254 O262 2.277 . S
O255 C252 1.160 . S
O255 Cd256 2.203 . S
Cd256 O255 2.203 . S
Cd256 O258 2.411 . S
Cd256 O259 2.333 . S
Cd256 O260 2.352 . S
Cd256 O264 2.277 . S
Cd256 O265 2.356 . S
C257 O262 1.209 . S
C257 O264 1.226 . S
O258 Cd254 2.273 . S
O258 Cd256 2.411 . S
O258 C261 1.320 . S
O259 Cd256 2.333 . S
O259 C261 1.214 . S
O260 Cd256 2.352 . S
O260 C263 1.258 . S
C261 O258 1.320 . S
C261 O259 1.214 . S
O262 Cd254 2.277 . S
O262 C257 1.209 . S
C263 O260 1.258 . S
C263 O265 1.282 . S
O264 Cd256 2.277 . S
O264 C257 1.226 . S
O265 Cd256 2.356 . S
O265 C263 1.282 . S
C266 O267 1.306 . S
C266 O269 1.160 . S
O267 C266 1.306 . S
O267 Cd268 2.228 . S
Cd268 O267 2.228 . S
Cd268 O272 2.273 . S
Cd268 O276 2.277 . S
O269 C266 1.160 . S
O269 Cd270 2.203 . S
Cd270 O269 2.203 . S
Cd270 O272 2.411 . S
Cd270 O273 2.333 . S
Cd270 O274 2.352 . S
Cd270 O278 2.277 . S
Cd270 O279 2.356 . S
C271 O276 1.209 . S
C271 O278 1.226 . S
O272 Cd268 2.273 . S
O272 Cd270 2.411 . S
O272 C275 1.320 . S
O273 Cd270 2.333 . S
O273 C275 1.214 . S
O274 Cd270 2.352 . S
O274 C277 1.258 . S
C275 O272 1.320 . S
C275 O273 1.214 . S
O276 Cd268 2.277 . S
O276 C271 1.209 . S
C277 O274 1.258 . S
C277 O279 1.282 . S
O278 Cd270 2.277 . S
O278 C271 1.226 . S
O279 Cd270 2.356 . S
O279 C277 1.282 . S
C280 O281 1.306 . S
C280 O283 1.160 . S
O281 C280 1.306 . S
O281 Cd282 2.228 . S
Cd282 O281 2.228 . S
Cd282 O286 2.273 . S
Cd282 O290 2.277 . S
O283 C280 1.160 . S
O283 Cd284 2.203 . S
Cd284 O283 2.203 . S
Cd284 O286 2.411 . S
Cd284 O287 2.333 . S
Cd284 O288 2.352 . S
Cd284 O292 2.277 . S
Cd284 O293 2.356 . S
C285 O290 1.209 . S
C285 O292 1.226 . S
O286 Cd282 2.273 . S
O286 Cd284 2.411 . S
O286 C289 1.320 . S
O287 Cd284 2.333 . S
O287 C289 1.214 . S
O288 Cd284 2.352 . S
O288 C291 1.258 . S
C289 O286 1.320 . S
C289 O287 1.214 . S
O290 Cd282 2.277 . S
O290 C285 1.209 . S
C291 O288 1.258 . S
C291 O293 1.282 . S
O292 Cd284 2.277 . S
O292 C285 1.226 . S
O293 Cd284 2.356 . S
O293 C291 1.282 . S
C294 O295 1.306 . S
C294 O297 1.160 . S
O295 C294 1.306 . S
O295 Cd296 2.228 . S
Cd296 O295 2.228 . S
Cd296 O300 2.273 . S
Cd296 O304 2.277 . S
O297 C294 1.160 . S
O297 Cd298 2.203 . S
Cd298 O297 2.203 . S
Cd298 O300 2.411 . S
Cd298 O301 2.333 . S
Cd298 O302 2.352 . S
Cd298 O306 2.277 . S
Cd298 O307 2.356 . S
C299 O304 1.209 . S
C299 O306 1.226 . S
O300 Cd296 2.273 . S
O300 Cd298 2.411 . S
O300 C303 1.320 . S
O301 Cd298 2.333 . S
O301 C303 1.214 . S
O302 Cd298 2.352 . S
O302 C305 1.258 . S
C303 O300 1.320 . S
C303 O301 1.214 . S
O304 Cd296 2.277 . S
O304 C299 1.209 . S
C305 O302 1.258 . S
C305 O307 1.282 . S
O306 Cd298 2.277 . S
O306 C299 1.226 . S
O307 Cd298 2.356 . S
O307 C305 1.282 . S
C308 O309 1.306 . S
C308 O311 1.160 . S
O309 C308 1.306 . S
O309 Cd310 2.228 . S
Cd310 O309 2.228 . S
Cd310 O314 2.273 . S
Cd310 O318 2.277 . S
O311 C308 1.160 . S
O311 Cd312 2.203 . S
Cd312 O311 2.203 . S
Cd312 O314 2.411 . S
Cd312 O315 2.333 . S
Cd312 O316 2.352 . S
Cd312 O320 2.277 . S
Cd312 O321 2.356 . S
C313 O318 1.209 . S
C313 O320 1.226 . S
O314 Cd310 2.273 . S
O314 Cd312 2.411 . S
O314 C317 1.320 . S
O315 Cd312 2.333 . S
O315 C317 1.214 . S
O316 Cd312 2.352 . S
O316 C319 1.258 . S
C317 O314 1.320 . S
C317 O315 1.214 . S
O318 Cd310 2.277 . S
O318 C313 1.209 . S
C319 O316 1.258 . S
C319 O321 1.282 . S
O320 Cd312 2.277 . S
O320 C313 1.226 . S
O321 Cd312 2.356 . S
O321 C319 1.282 . S
C322 O323 1.306 . S
C322 O325 1.160 . S
O323 C322 1.306 . S
O323 Cd324 2.228 . S
Cd324 O323 2.228 . S
Cd324 O328 2.273 . S
Cd324 O332 2.277 . S
O325 C322 1.160 . S
O325 Cd326 2.203 . S
Cd326 O325 2.203 . S
Cd326 O328 2.411 . S
Cd326 O329 2.333 . S
Cd326 O330 2.352 . S
Cd326 O334 2.277 . S
Cd326 O335 2.356 . S
C327 O332 1.209 . S
C327 O334 1.226 . S
O328 Cd324 2.273 . S
O328 Cd326 2.411 . S
O328 C331 1.320 . S
O329 Cd326 2.333 . S
O329 C331 1.214 . S
O330 Cd326 2.352 . S
O330 C333 1.258 . S
C331 O328 1.320 . S
C331 O329 1.214 . S
O332 Cd324 2.277 . S
O332 C327 1.209 . S
C333 O330 1.258 . S
C333 O335 1.282 . S
O334 Cd326 2.277 . S
O334 C327 1.226 . S
O335 Cd326 2.356 . S
O335 C333 1.282 . S
C336 C337 1.363 . S
C336 C342 1.379 1_545 S
C336 N344 1.356 . S
C337 C336 1.363 . S
C337 C343 1.363 . S
C338 C339 1.363 . S
C338 C343 1.379 1_565 S
C338 N345 1.356 . S
C339 C338 1.363 . S
C339 C342 1.363 . S
N340 C342 1.356 . S
N340 H352 0.984 . S
N340 H353 0.985 . S
N341 C343 1.356 . S
N341 H346 0.984 . S
N341 H347 0.985 . S
C342 C336 1.379 1_565 S
C342 C339 1.363 . S
C342 N340 1.356 . S
C343 C337 1.363 . S
C343 C338 1.379 1_545 S
C343 N341 1.356 . S
N344 C336 1.356 . S
N344 H350 0.984 . S
N344 H351 0.984 . S
N345 C338 1.356 . S
N345 H348 0.984 . S
N345 H349 0.985 . S
H346 N341 0.984 . S
H347 N341 0.985 . S
H348 N345 0.984 . S
H349 N345 0.985 . S
H350 N344 0.984 . S
H351 N344 0.984 . S
H352 N340 0.984 . S
H353 N340 0.985 . S
C354 C355 1.363 . S
C354 C360 1.379 . S
C354 N362 1.356 . S
C355 C354 1.363 . S
C355 C361 1.363 . S
C356 C357 1.363 . S
C356 C361 1.379 . S
C356 N363 1.356 . S
C357 C356 1.363 . S
C357 C360 1.363 . S
N358 C360 1.356 . S
N358 H370 0.984 . S
N358 H371 0.985 . S
N359 C361 1.356 . S
N359 H364 0.984 . S
N359 H365 0.985 . S
C360 C354 1.379 . S
C360 C357 1.363 . S
C360 N358 1.356 . S
C361 C355 1.363 . S
C361 C356 1.379 . S
C361 N359 1.356 . S
N362 C354 1.356 . S
N362 H368 0.984 . S
N362 H369 0.984 . S
N363 C356 1.356 . S
N363 H366 0.984 . S
N363 H367 0.985 . S
H364 N359 0.984 . S
H365 N359 0.985 . S
H366 N363 0.984 . S
H367 N363 0.985 . S
H368 N362 0.984 . S
H369 N362 0.984 . S
H370 N358 0.984 . S
H371 N358 0.985 . S
C372 C373 1.363 . S
C372 C378 1.379 1_655 S
C372 N380 1.356 . S
C373 C372 1.363 . S
C373 C379 1.363 . S
C374 C375 1.363 . S
C374 C379 1.379 1_455 S
C374 N381 1.356 . S
C375 C374 1.363 . S
C375 C378 1.363 . S
N376 C378 1.356 . S
N376 H388 0.984 . S
N376 H389 0.985 . S
N377 C379 1.356 . S
N377 H382 0.984 . S
N377 H383 0.985 . S
C378 C372 1.379 1_455 S
C378 C375 1.363 . S
C378 N376 1.356 . S
C379 C373 1.363 . S
C379 C374 1.379 1_655 S
C379 N377 1.356 . S
N380 C372 1.356 . S
N380 H386 0.984 . S
N380 H387 0.984 . S
N381 C374 1.356 . S
N381 H384 0.984 . S
N381 H385 0.985 . S
H382 N377 0.984 . S
H383 N377 0.985 . S
H384 N381 0.984 . S
H385 N381 0.985 . S
H386 N380 0.984 . S
H387 N380 0.984 . S
H388 N376 0.984 . S
H389 N376 0.985 . S
C390 C391 1.363 . S
C390 C396 1.379 1_565 S
C390 N398 1.356 . S
C391 C390 1.363 . S
C391 C397 1.363 . S
C392 C393 1.363 . S
C392 C397 1.379 1_545 S
C392 N399 1.356 . S
C393 C392 1.363 . S
C393 C396 1.363 . S
N394 C396 1.356 . S
N394 H406 0.984 . S
N394 H407 0.985 . S
N395 C397 1.356 . S
N395 H400 0.984 . S
N395 H401 0.985 . S
C396 C390 1.379 1_545 S
C396 C393 1.363 . S
C396 N394 1.356 . S
C397 C391 1.363 . S
C397 C392 1.379 1_565 S
C397 N395 1.356 . S
N398 C390 1.356 . S
N398 H404 0.984 . S
N398 H405 0.984 . S
N399 C392 1.356 . S
N399 H402 0.984 . S
N399 H403 0.985 . S
H400 N395 0.984 . S
H401 N395 0.985 . S
H402 N399 0.984 . S
H403 N399 0.985 . S
H404 N398 0.984 . S
H405 N398 0.984 . S
H406 N394 0.984 . S
H407 N394 0.985 . S
C408 C409 1.363 . S
C408 C414 1.379 . S
C408 N416 1.356 . S
C409 C408 1.363 . S
C409 C415 1.363 . S
C410 C411 1.363 . S
C410 C415 1.379 . S
C410 N417 1.356 . S
C411 C410 1.363 . S
C411 C414 1.363 . S
N412 C414 1.356 . S
N412 H424 0.984 . S
N412 H425 0.985 . S
N413 C415 1.356 . S
N413 H418 0.984 . S
N413 H419 0.985 . S
C414 C408 1.379 . S
C414 C411 1.363 . S
C414 N412 1.356 . S
C415 C409 1.363 . S
C415 C410 1.379 . S
C415 N413 1.356 . S
N416 C408 1.356 . S
N416 H422 0.984 . S
N416 H423 0.984 . S
N417 C410 1.356 . S
N417 H420 0.984 . S
N417 H421 0.985 . S
H418 N413 0.984 . S
H419 N413 0.985 . S
H420 N417 0.984 . S
H421 N417 0.985 . S
H422 N416 0.984 . S
H423 N416 0.984 . S
H424 N412 0.984 . S
H425 N412 0.985 . S
C426 C427 1.363 . S
C426 C432 1.379 1_455 S
C426 N434 1.356 . S
C427 C426 1.363 . S
C427 C433 1.363 . S
C428 C429 1.363 . S
C428 C433 1.379 1_655 S
C428 N435 1.356 . S
C429 C428 1.363 . S
C429 C432 1.363 . S
N430 C432 1.356 . S
N430 H442 0.970 1_655 S
N430 H443 0.985 . S
N431 C433 1.356 . S
N431 H436 0.984 . S
N431 H437 0.970 1_455 S
C432 C426 1.379 1_655 S
C432 C429 1.363 . S
C432 N430 1.356 . S
C433 C427 1.363 . S
C433 C428 1.379 1_455 S
C433 N431 1.356 . S
N434 C426 1.356 . S
N434 H440 0.984 . S
N434 H441 0.984 . S
N435 C428 1.356 . S
N435 H438 0.984 . S
N435 H439 0.985 . S
H436 N431 0.984 . S
H437 N431 0.970 1_655 S
H438 N435 0.984 . S
H439 N435 0.985 . S
H440 N434 0.984 . S
H441 N434 0.984 . S
H442 N430 0.970 1_455 S
H443 N430 0.985 . S
C444 C445 1.363 . S
C444 C450 1.379 1_565 S
C444 N452 1.356 . S
C445 C444 1.363 . S
C445 C451 1.363 . S
C446 C447 1.363 . S
C446 C451 1.379 1_545 S
C446 N453 1.356 . S
C447 C446 1.363 . S
C447 C450 1.363 . S
N448 C450 1.356 . S
N448 H460 0.984 . S
N448 H461 0.985 . S
N449 C451 1.356 . S
N449 H454 0.984 . S
N449 H455 0.985 . S
C450 C444 1.379 1_545 S
C450 C447 1.363 . S
C450 N448 1.356 . S
C451 C445 1.363 . S
C451 C446 1.379 1_565 S
C451 N449 1.356 . S
N452 C444 1.356 . S
N452 H458 0.984 . S
N452 H459 0.984 . S
N453 C446 1.356 . S
N453 H456 0.984 . S
N453 H457 0.985 . S
H454 N449 0.984 . S
H455 N449 0.985 . S
H456 N453 0.984 . S
H457 N453 0.985 . S
H458 N452 0.984 . S
H459 N452 0.984 . S
H460 N448 0.984 . S
H461 N448 0.985 . S
C462 C463 1.363 . S
C462 C468 1.379 . S
C462 N470 1.356 . S
C463 C462 1.363 . S
C463 C469 1.363 . S
C464 C465 1.363 . S
C464 C469 1.379 . S
C464 N471 1.356 . S
C465 C464 1.363 . S
C465 C468 1.363 . S
N466 C468 1.356 . S
N466 H478 0.984 . S
N466 H479 0.985 . S
N467 C469 1.356 . S
N467 H472 0.984 . S
N467 H473 0.985 . S
C468 C462 1.379 . S
C468 C465 1.363 . S
C468 N466 1.356 . S
C469 C463 1.363 . S
C469 C464 1.379 . S
C469 N467 1.356 . S
N470 C462 1.356 . S
N470 H476 0.984 . S
N470 H477 0.984 . S
N471 C464 1.356 . S
N471 H474 0.984 . S
N471 H475 0.985 . S
H472 N467 0.984 . S
H473 N467 0.985 . S
H474 N471 0.984 . S
H475 N471 0.985 . S
H476 N470 0.984 . S
H477 N470 0.984 . S
H478 N466 0.984 . S
H479 N466 0.985 . S
C480 C481 1.363 . S
C480 C486 1.379 1_655 S
C480 N488 1.356 . S
C481 C480 1.363 . S
C481 C487 1.363 . S
C482 C483 1.363 . S
C482 C487 1.379 1_455 S
C482 N489 1.356 . S
C483 C482 1.363 . S
C483 C486 1.363 . S
N484 C486 1.356 . S
N484 H496 0.969 1_455 S
N484 H497 0.985 . S
N485 C487 1.356 . S
N485 H490 0.984 . S
N485 H491 0.969 1_655 S
C486 C480 1.379 1_455 S
C486 C483 1.363 . S
C486 N484 1.356 . S
C487 C481 1.363 . S
C487 C482 1.379 1_655 S
C487 N485 1.356 . S
N488 C480 1.356 . S
N488 H494 0.984 . S
N488 H495 0.984 . S
N489 C482 1.356 . S
N489 H492 0.984 . S
N489 H493 0.985 . S
H490 N485 0.984 . S
H491 N485 0.969 1_455 S
H492 N489 0.984 . S
H493 N489 0.985 . S
H494 N488 0.984 . S
H495 N488 0.984 . S
H496 N484 0.969 1_655 S
H497 N484 0.985 . S
C498 C499 1.363 . S
C498 C504 1.379 1_545 S
C498 N506 1.356 . S
C499 C498 1.363 . S
C499 C505 1.363 . S
C500 C501 1.363 . S
C500 C505 1.379 1_565 S
C500 N507 1.356 . S
C501 C500 1.363 . S
C501 C504 1.363 . S
N502 C504 1.356 . S
N502 H514 0.984 . S
N502 H515 0.985 . S
N503 C505 1.356 . S
N503 H508 0.984 . S
N503 H509 0.985 . S
C504 C498 1.379 1_565 S
C504 C501 1.363 . S
C504 N502 1.356 . S
C505 C499 1.363 . S
C505 C500 1.379 1_545 S
C505 N503 1.356 . S
N506 C498 1.356 . S
N506 H512 0.984 . S
N506 H513 0.984 . S
N507 C500 1.356 . S
N507 H510 0.984 . S
N507 H511 0.985 . S
H508 N503 0.984 . S
H509 N503 0.985 . S
H510 N507 0.984 . S
H511 N507 0.985 . S
H512 N506 0.984 . S
H513 N506 0.984 . S
H514 N502 0.984 . S
H515 N502 0.985 . S
C516 C517 1.363 . S
C516 C522 1.379 . S
C516 N524 1.356 . S
C517 C516 1.363 . S
C517 C523 1.363 . S
C518 C519 1.363 . S
C518 C523 1.379 . S
C518 N525 1.356 . S
C519 C518 1.363 . S
C519 C522 1.363 . S
N520 C522 1.356 . S
N520 H532 0.984 . S
N520 H533 0.985 . S
N521 C523 1.356 . S
N521 H526 0.984 . S
N521 H527 0.985 . S
C522 C516 1.379 . S
C522 C519 1.363 . S
C522 N520 1.356 . S
C523 C517 1.363 . S
C523 C518 1.379 . S
C523 N521 1.356 . S
N524 C516 1.356 . S
N524 H530 0.984 . S
N524 H531 0.984 . S
N525 C518 1.356 . S
N525 H528 0.984 . S
N525 H529 0.985 . S
H526 N521 0.984 . S
H527 N521 0.985 . S
H528 N525 0.984 . S
H529 N525 0.985 . S
H530 N524 0.984 . S
H531 N524 0.984 . S
H532 N520 0.984 . S
H533 N520 0.985 . S
C534 C535 1.363 . S
C534 C540 1.379 1_455 S
C534 N542 1.356 . S
C535 C534 1.363 . S
C535 C541 1.363 . S
C536 C537 1.363 . S
C536 C541 1.379 1_655 S
C536 N543 1.356 . S
C537 C536 1.363 . S
C537 C540 1.363 . S
N538 C540 1.356 . S
N538 H550 0.984 . S
N538 H551 0.985 . S
N539 C541 1.356 . S
N539 H544 0.984 . S
N539 H545 0.985 . S
C540 C534 1.379 1_655 S
C540 C537 1.363 . S
C540 N538 1.356 . S
C541 C535 1.363 . S
C541 C536 1.379 1_455 S
C541 N539 1.356 . S
N542 C534 1.356 . S
N542 H548 0.984 . S
N542 H549 0.984 . S
N543 C536 1.356 . S
N543 H546 0.984 . S
N543 H547 0.985 . S
H544 N539 0.984 . S
H545 N539 0.985 . S
H546 N543 0.984 . S
H547 N543 0.985 . S
H548 N542 0.984 . S
H549 N542 0.984 . S
H550 N538 0.984 . S
H551 N538 0.985 . S
C552 C553 1.363 . S
C552 C558 1.379 . S
C552 N560 1.356 . S
C553 C552 1.363 . S
C553 C559 1.363 . S
C554 C555 1.363 . S
C554 C559 1.379 . S
C554 N561 1.356 . S
C555 C554 1.363 . S
C555 C558 1.363 . S
N556 C558 1.356 . S
N556 H568 0.984 . S
N556 H569 0.985 . S
N557 C559 1.356 . S
N557 H562 0.984 . S
N557 H563 0.985 . S
C558 C552 1.379 . S
C558 C555 1.363 . S
C558 N556 1.356 . S
C559 C553 1.363 . S
C559 C554 1.379 . S
C559 N557 1.356 . S
N560 C552 1.356 . S
N560 H566 0.984 . S
N560 H567 0.984 . S
N561 C554 1.356 . S
N561 H564 0.984 . S
N561 H565 0.985 . S
H562 N557 0.984 . S
H563 N557 0.985 . S
H564 N561 0.984 . S
H565 N561 0.985 . S
H566 N560 0.984 . S
H567 N560 0.984 . S
H568 N556 0.984 . S
H569 N556 0.985 . S
C570 C571 1.363 . S
C570 C576 1.379 . S
C570 N578 1.356 . S
C571 C570 1.363 . S
C571 C577 1.363 . S
C572 C573 1.363 . S
C572 C577 1.379 . S
C572 N579 1.356 . S
C573 C572 1.363 . S
C573 C576 1.363 . S
N574 C576 1.356 . S
N574 H586 0.984 . S
N574 H587 0.985 . S
N575 C577 1.356 . S
N575 H580 0.984 . S
N575 H581 0.985 . S
C576 C570 1.379 . S
C576 C573 1.363 . S
C576 N574 1.356 . S
C577 C571 1.363 . S
C577 C572 1.379 . S
C577 N575 1.356 . S
N578 C570 1.356 . S
N578 H584 0.984 . S
N578 H585 0.984 . S
N579 C572 1.356 . S
N579 H582 0.984 . S
N579 H583 0.985 . S
H580 N575 0.984 . S
H581 N575 0.985 . S
H582 N579 0.984 . S
H583 N579 0.985 . S
H584 N578 0.984 . S
H585 N578 0.984 . S
H586 N574 0.984 . S
H587 N574 0.985 . S
C588 C589 1.363 . S
C588 C594 1.379 . S
C588 N596 1.356 . S
C589 C588 1.363 . S
C589 C595 1.363 . S
C590 C591 1.363 . S
C590 C595 1.379 . S
C590 N597 1.356 . S
C591 C590 1.363 . S
C591 C594 1.363 . S
N592 C594 1.356 . S
N592 H604 0.984 . S
N592 H605 0.985 . S
N593 C595 1.356 . S
N593 H598 0.984 . S
N593 H599 0.985 . S
C594 C588 1.379 . S
C594 C591 1.363 . S
C594 N592 1.356 . S
C595 C589 1.363 . S
C595 C590 1.379 . S
C595 N593 1.356 . S
N596 C588 1.356 . S
N596 H602 0.984 . S
N596 H603 0.984 . S
N597 C590 1.356 . S
N597 H600 0.984 . S
N597 H601 0.985 . S
H598 N593 0.984 . S
H599 N593 0.985 . S
H600 N597 0.984 . S
H601 N597 0.985 . S
H602 N596 0.984 . S
H603 N596 0.984 . S
H604 N592 0.984 . S
H605 N592 0.985 . S
C606 C607 1.363 . S
C606 C612 1.379 . S
C606 N614 1.356 . S
C607 C606 1.363 . S
C607 C613 1.363 . S
C608 C609 1.363 . S
C608 C613 1.379 . S
C608 N615 1.356 . S
C609 C608 1.363 . S
C609 C612 1.363 . S
N610 C612 1.356 . S
N610 H622 0.984 . S
N610 H623 0.985 . S
N611 C613 1.356 . S
N611 H616 0.984 . S
N611 H617 0.985 . S
C612 C606 1.379 . S
C612 C609 1.363 . S
C612 N610 1.356 . S
C613 C607 1.363 . S
C613 C608 1.379 . S
C613 N611 1.356 . S
N614 C606 1.356 . S
N614 H620 0.984 . S
N614 H621 0.984 . S
N615 C608 1.356 . S
N615 H618 0.984 . S
N615 H619 0.985 . S
H616 N611 0.984 . S
H617 N611 0.985 . S
H618 N615 0.984 . S
H619 N615 0.985 . S
H620 N614 0.984 . S
H621 N614 0.984 . S
H622 N610 0.984 . S
H623 N610 0.985 . S
C624 C625 1.363 . S
C624 C630 1.379 . S
C624 N632 1.356 . S
C625 C624 1.363 . S
C625 C631 1.363 . S
C626 C627 1.363 . S
C626 C631 1.379 . S
C626 N633 1.356 . S
C627 C626 1.363 . S
C627 C630 1.363 . S
N628 C630 1.356 . S
N628 H640 0.984 . S
N628 H641 0.985 . S
N629 C631 1.356 . S
N629 H634 0.984 . S
N629 H635 0.985 . S
C630 C624 1.379 . S
C630 C627 1.363 . S
C630 N628 1.356 . S
C631 C625 1.363 . S
C631 C626 1.379 . S
C631 N629 1.356 . S
N632 C624 1.356 . S
N632 H638 0.984 . S
N632 H639 0.984 . S
N633 C626 1.356 . S
N633 H636 0.984 . S
N633 H637 0.985 . S
H634 N629 0.984 . S
H635 N629 0.985 . S
H636 N633 0.984 . S
H637 N633 0.985 . S
H638 N632 0.984 . S
H639 N632 0.984 . S
H640 N628 0.984 . S
H641 N628 0.985 . S
C642 C643 1.363 . S
C642 C648 1.379 . S
C642 N650 1.356 . S
C643 C642 1.363 . S
C643 C649 1.363 . S
C644 C645 1.363 . S
C644 C649 1.379 . S
C644 N651 1.356 . S
C645 C644 1.363 . S
C645 C648 1.363 . S
N646 C648 1.356 . S
N646 H658 0.984 . S
N646 H659 0.985 . S
N647 C649 1.356 . S
N647 H652 0.984 . S
N647 H653 0.985 . S
C648 C642 1.379 . S
C648 C645 1.363 . S
C648 N646 1.356 . S
C649 C643 1.363 . S
C649 C644 1.379 . S
C649 N647 1.356 . S
N650 C642 1.356 . S
N650 H656 0.984 . S
N650 H657 0.984 . S
N651 C644 1.356 . S
N651 H654 0.984 . S
N651 H655 0.985 . S
H652 N647 0.984 . S
H653 N647 0.985 . S
H654 N651 0.984 . S
H655 N651 0.985 . S
H656 N650 0.984 . S
H657 N650 0.984 . S
H658 N646 0.984 . S
H659 N646 0.985 . S
C660 C661 1.363 . S
C660 C666 1.379 . S
C660 N668 1.356 . S
C661 C660 1.363 . S
C661 C667 1.363 . S
C662 C663 1.363 . S
C662 C667 1.379 . S
C662 N669 1.356 . S
C663 C662 1.363 . S
C663 C666 1.363 . S
N664 C666 1.356 . S
N664 H676 0.984 . S
N664 H677 0.985 . S
N665 C667 1.356 . S
N665 H670 0.984 . S
N665 H671 0.985 . S
C666 C660 1.379 . S
C666 C663 1.363 . S
C666 N664 1.356 . S
C667 C661 1.363 . S
C667 C662 1.379 . S
C667 N665 1.356 . S
N668 C660 1.356 . S
N668 H674 0.984 . S
N668 H675 0.984 . S
N669 C662 1.356 . S
N669 H672 0.984 . S
N669 H673 0.985 . S
H670 N665 0.984 . S
H671 N665 0.985 . S
H672 N669 0.984 . S
H673 N669 0.985 . S
H674 N668 0.984 . S
H675 N668 0.984 . S
H676 N664 0.984 . S
H677 N664 0.985 . S
C678 C679 1.363 . S
C678 C684 1.379 . S
C678 N686 1.356 . S
C679 C678 1.363 . S
C679 C685 1.363 . S
C680 C681 1.363 . S
C680 C685 1.379 . S
C680 N687 1.356 . S
C681 C680 1.363 . S
C681 C684 1.363 . S
N682 C684 1.356 . S
N682 H694 0.984 . S
N682 H695 0.985 . S
N683 C685 1.356 . S
N683 H688 0.984 . S
N683 H689 0.985 . S
C684 C678 1.379 . S
C684 C681 1.363 . S
C684 N682 1.356 . S
C685 C679 1.363 . S
C685 C680 1.379 . S
C685 N683 1.356 . S
N686 C678 1.356 . S
N686 H692 0.984 . S
N686 H693 0.984 . S
N687 C680 1.356 . S
N687 H690 0.984 . S
N687 H691 0.985 . S
H688 N683 0.984 . S
H689 N683 0.985 . S
H690 N687 0.984 . S
H691 N687 0.985 . S
H692 N686 0.984 . S
H693 N686 0.984 . S
H694 N682 0.984 . S
H695 N682 0.985 . S
C696 C697 1.363 . S
C696 C702 1.379 . S
C696 N704 1.356 . S
C697 C696 1.363 . S
C697 C703 1.363 . S
C698 C699 1.363 . S
C698 C703 1.379 . S
C698 N705 1.356 . S
C699 C698 1.363 . S
C699 C702 1.363 . S
N700 C702 1.356 . S
N700 H712 0.984 . S
N700 H713 0.985 . S
N701 C703 1.356 . S
N701 H706 0.984 . S
N701 H707 0.985 . S
C702 C696 1.379 . S
C702 C699 1.363 . S
C702 N700 1.356 . S
C703 C697 1.363 . S
C703 C698 1.379 . S
C703 N701 1.356 . S
N704 C696 1.356 . S
N704 H710 0.984 . S
N704 H711 0.984 . S
N705 C698 1.356 . S
N705 H708 0.984 . S
N705 H709 0.985 . S
H706 N701 0.984 . S
H707 N701 0.985 . S
H708 N705 0.984 . S
H709 N705 0.985 . S
H710 N704 0.984 . S
H711 N704 0.984 . S
H712 N700 0.984 . S
H713 N700 0.985 . S
C714 C715 1.363 . S
C714 C720 1.379 . S
C714 N722 1.356 . S
C715 C714 1.363 . S
C715 C721 1.363 . S
C716 C717 1.363 . S
C716 C721 1.379 . S
C716 N723 1.356 . S
C717 C716 1.363 . S
C717 C720 1.363 . S
N718 C720 1.356 . S
N718 H730 0.984 . S
N718 H731 0.985 . S
N719 C721 1.356 . S
N719 H724 0.984 . S
N719 H725 0.985 . S
C720 C714 1.379 . S
C720 C717 1.363 . S
C720 N718 1.356 . S
C721 C715 1.363 . S
C721 C716 1.379 . S
C721 N719 1.356 . S
N722 C714 1.356 . S
N722 H728 0.984 . S
N722 H729 0.984 . S
N723 C716 1.356 . S
N723 H726 0.984 . S
N723 H727 0.985 . S
H724 N719 0.984 . S
H725 N719 0.985 . S
H726 N723 0.984 . S
H727 N723 0.985 . S
H728 N722 0.984 . S
H729 N722 0.984 . S
H730 N718 0.984 . S
H731 N718 0.985 . S
C732 C733 1.363 . S
C732 C738 1.379 . S
C732 N740 1.356 . S
C733 C732 1.363 . S
C733 C739 1.363 . S
C734 C735 1.363 . S
C734 C739 1.379 . S
C734 N741 1.356 . S
C735 C734 1.363 . S
C735 C738 1.363 . S
N736 C738 1.356 . S
N736 H748 0.984 . S
N736 H749 0.985 . S
N737 C739 1.356 . S
N737 H742 0.984 . S
N737 H743 0.985 . S
C738 C732 1.379 . S
C738 C735 1.363 . S
C738 N736 1.356 . S
C739 C733 1.363 . S
C739 C734 1.379 . S
C739 N737 1.356 . S
N740 C732 1.356 . S
N740 H746 0.984 . S
N740 H747 0.984 . S
N741 C734 1.356 . S
N741 H744 0.984 . S
N741 H745 0.985 . S
H742 N737 0.984 . S
H743 N737 0.985 . S
H744 N741 0.984 . S
H745 N741 0.985 . S
H746 N740 0.984 . S
H747 N740 0.984 . S
H748 N736 0.984 . S
H749 N736 0.985 . S
C750 C751 1.363 . S
C750 C756 1.379 . S
C750 N758 1.356 . S
C751 C750 1.363 . S
C751 C757 1.363 . S
C752 C753 1.363 . S
C752 C757 1.379 . S
C752 N759 1.356 . S
C753 C752 1.363 . S
C753 C756 1.363 . S
N754 C756 1.356 . S
N754 H766 0.984 . S
N754 H767 0.985 . S
N755 C757 1.356 . S
N755 H760 0.984 . S
N755 H761 0.985 . S
C756 C750 1.379 . S
C756 C753 1.363 . S
C756 N754 1.356 . S
C757 C751 1.363 . S
C757 C752 1.379 . S
C757 N755 1.356 . S
N758 C750 1.356 . S
N758 H764 0.984 . S
N758 H765 0.984 . S
N759 C752 1.356 . S
N759 H762 0.984 . S
N759 H763 0.985 . S
H760 N755 0.984 . S
H761 N755 0.985 . S
H762 N759 0.984 . S
H763 N759 0.985 . S
H764 N758 0.984 . S
H765 N758 0.984 . S
H766 N754 0.984 . S
H767 N754 0.985 . S
C768 C769 1.363 . S
C768 C774 1.379 1_554 S
C768 N776 1.356 . S
C769 C768 1.363 . S
C769 C775 1.363 . S
C770 C771 1.363 . S
C770 C775 1.379 1_556 S
C770 N777 1.356 . S
C771 C770 1.363 . S
C771 C774 1.363 . S
N772 C774 1.356 . S
N772 H784 0.984 . S
N772 H785 0.985 . S
N773 C775 1.356 . S
N773 H778 0.984 . S
N773 H779 0.985 . S
C774 C768 1.379 1_556 S
C774 C771 1.363 . S
C774 N772 1.356 . S
C775 C769 1.363 . S
C775 C770 1.379 1_554 S
C775 N773 1.356 . S
N776 C768 1.356 . S
N776 H782 0.984 . S
N776 H783 0.984 . S
N777 C770 1.356 . S
N777 H780 0.984 . S
N777 H781 0.985 . S
H778 N773 0.984 . S
H779 N773 0.985 . S
H780 N777 0.984 . S
H781 N777 0.985 . S
H782 N776 0.984 . S
H783 N776 0.984 . S
H784 N772 0.984 . S
H785 N772 0.985 . S
C786 C787 1.363 . S
C786 C792 1.379 1_556 S
C786 N794 1.356 . S
C787 C786 1.363 . S
C787 C793 1.363 . S
C788 C789 1.363 . S
C788 C793 1.379 1_554 S
C788 N795 1.356 . S
C789 C788 1.363 . S
C789 C792 1.363 . S
N790 C792 1.356 . S
N790 H802 0.984 . S
N790 H803 0.985 . S
N791 C793 1.356 . S
N791 H796 0.984 . S
N791 H797 0.985 . S
C792 C786 1.379 1_554 S
C792 C789 1.363 . S
C792 N790 1.356 . S
C793 C787 1.363 . S
C793 C788 1.379 1_556 S
C793 N791 1.356 . S
N794 C786 1.356 . S
N794 H800 0.984 . S
N794 H801 0.984 . S
N795 C788 1.356 . S
N795 H798 0.984 . S
N795 H799 0.985 . S
H796 N791 0.984 . S
H797 N791 0.985 . S
H798 N795 0.984 . S
H799 N795 0.985 . S
H800 N794 0.984 . S
H801 N794 0.984 . S
H802 N790 0.984 . S
H803 N790 0.985 . S
C804 C805 1.363 . S
C804 C810 1.379 1_556 S
C804 N812 1.356 . S
C805 C804 1.363 . S
C805 C811 1.363 . S
C806 C807 1.363 . S
C806 C811 1.379 1_554 S
C806 N813 1.356 . S
C807 C806 1.363 . S
C807 C810 1.363 . S
N808 C810 1.356 . S
N808 H820 0.984 . S
N808 H821 0.985 . S
N809 C811 1.356 . S
N809 H814 0.984 . S
N809 H815 0.985 . S
C810 C804 1.379 1_554 S
C810 C807 1.363 . S
C810 N808 1.356 . S
C811 C805 1.363 . S
C811 C806 1.379 1_556 S
C811 N809 1.356 . S
N812 C804 1.356 . S
N812 H818 0.984 . S
N812 H819 0.984 . S
N813 C806 1.356 . S
N813 H816 0.984 . S
N813 H817 0.985 . S
H814 N809 0.984 . S
H815 N809 0.985 . S
H816 N813 0.984 . S
H817 N813 0.985 . S
H818 N812 0.984 . S
H819 N812 0.984 . S
H820 N808 0.984 . S
H821 N808 0.985 . S
C822 C823 1.363 . S
C822 C828 1.379 1_554 S
C822 N830 1.356 . S
C823 C822 1.363 . S
C823 C829 1.363 . S
C824 C825 1.363 . S
C824 C829 1.379 1_556 S
C824 N831 1.356 . S
C825 C824 1.363 . S
C825 C828 1.363 . S
N826 C828 1.356 . S
N826 H838 0.984 . S
N826 H839 0.985 . S
N827 C829 1.356 . S
N827 H832 0.984 . S
N827 H833 0.985 . S
C828 C822 1.379 1_556 S
C828 C825 1.363 . S
C828 N826 1.356 . S
C829 C823 1.363 . S
C829 C824 1.379 1_554 S
C829 N827 1.356 . S
N830 C822 1.356 . S
N830 H836 0.984 . S
N830 H837 0.984 . S
N831 C824 1.356 . S
N831 H834 0.984 . S
N831 H835 0.985 . S
H832 N827 0.984 . S
H833 N827 0.985 . S
H834 N831 0.984 . S
H835 N831 0.985 . S
H836 N830 0.984 . S
H837 N830 0.984 . S
H838 N826 0.984 . S
H839 N826 0.985 . S
C840 C841 1.363 . S
C840 C846 1.379 1_554 S
C840 N848 1.356 . S
C841 C840 1.363 . S
C841 C847 1.363 . S
C842 C843 1.363 . S
C842 C847 1.379 1_556 S
C842 N849 1.356 . S
C843 C842 1.363 . S
C843 C846 1.363 . S
N844 C846 1.356 . S
N844 H856 0.984 . S
N844 H857 0.985 . S
N845 C847 1.356 . S
N845 H850 0.984 . S
N845 H851 0.985 . S
C846 C840 1.379 1_556 S
C846 C843 1.363 . S
C846 N844 1.356 . S
C847 C841 1.363 . S
C847 C842 1.379 1_554 S
C847 N845 1.356 . S
N848 C840 1.356 . S
N848 H854 0.984 . S
N848 H855 0.984 . S
N849 C842 1.356 . S
N849 H852 0.984 . S
N849 H853 0.985 . S
H850 N845 0.984 . S
H851 N845 0.985 . S
H852 N849 0.984 . S
H853 N849 0.985 . S
H854 N848 0.984 . S
H855 N848 0.984 . S
H856 N844 0.984 . S
H857 N844 0.985 . S
C858 C859 1.363 . S
C858 C864 1.379 1_556 S
C858 N866 1.356 . S
C859 C858 1.363 . S
C859 C865 1.363 . S
C860 C861 1.363 . S
C860 C865 1.379 1_554 S
C860 N867 1.356 . S
C861 C860 1.363 . S
C861 C864 1.363 . S
N862 C864 1.356 . S
N862 H874 0.984 . S
N862 H875 0.985 . S
N863 C865 1.356 . S
N863 H868 0.984 . S
N863 H869 0.985 . S
C864 C858 1.379 1_554 S
C864 C861 1.363 . S
C864 N862 1.356 . S
C865 C859 1.363 . S
C865 C860 1.379 1_556 S
C865 N863 1.356 . S
N866 C858 1.356 . S
N866 H872 0.984 . S
N866 H873 0.984 . S
N867 C860 1.356 . S
N867 H870 0.984 . S
N867 H871 0.985 . S
H868 N863 0.984 . S
H869 N863 0.985 . S
H870 N867 0.984 . S
H871 N867 0.985 . S
H872 N866 0.984 . S
H873 N866 0.984 . S
H874 N862 0.984 . S
H875 N862 0.985 . S
C876 C877 1.363 . S
C876 C882 1.379 . S
C876 N884 1.356 . S
C877 C876 1.363 . S
C877 C883 1.363 . S
C878 C879 1.363 . S
C878 C883 1.379 . S
C878 N885 1.356 . S
C879 C878 1.363 . S
C879 C882 1.363 . S
N880 C882 1.356 . S
N880 H892 0.984 . S
N880 H893 0.985 . S
N881 C883 1.356 . S
N881 H886 0.984 . S
N881 H887 0.985 . S
C882 C876 1.379 . S
C882 C879 1.363 . S
C882 N880 1.356 . S
C883 C877 1.363 . S
C883 C878 1.379 . S
C883 N881 1.356 . S
N884 C876 1.356 . S
N884 H890 0.984 . S
N884 H891 0.984 . S
N885 C878 1.356 . S
N885 H888 0.984 . S
N885 H889 0.985 . S
H886 N881 0.984 . S
H887 N881 0.985 . S
H888 N885 0.984 . S
H889 N885 0.985 . S
H890 N884 0.984 . S
H891 N884 0.984 . S
H892 N880 0.984 . S
H893 N880 0.985 . S
C894 C895 1.363 . S
C894 C900 1.379 . S
C894 N902 1.356 . S
C895 C894 1.363 . S
C895 C901 1.363 . S
C896 C897 1.363 . S
C896 C901 1.379 . S
C896 N903 1.356 . S
C897 C896 1.363 . S
C897 C900 1.363 . S
N898 C900 1.356 . S
N898 H910 0.984 . S
N898 H911 0.985 . S
N899 C901 1.356 . S
N899 H904 0.984 . S
N899 H905 0.985 . S
C900 C894 1.379 . S
C900 C897 1.363 . S
C900 N898 1.356 . S
C901 C895 1.363 . S
C901 C896 1.379 . S
C901 N899 1.356 . S
N902 C894 1.356 . S
N902 H908 0.984 . S
N902 H909 0.984 . S
N903 C896 1.356 . S
N903 H906 0.984 . S
N903 H907 0.985 . S
H904 N899 0.984 . S
H905 N899 0.985 . S
H906 N903 0.984 . S
H907 N903 0.985 . S
H908 N902 0.984 . S
H909 N902 0.984 . S
H910 N898 0.984 . S
H911 N898 0.985 . S
C912 C913 1.363 . S
C912 C918 1.379 . S
C912 N920 1.356 . S
C913 C912 1.363 . S
C913 C919 1.363 . S
C914 C915 1.363 . S
C914 C919 1.379 . S
C914 N921 1.356 . S
C915 C914 1.363 . S
C915 C918 1.363 . S
N916 C918 1.356 . S
N916 H928 0.984 . S
N916 H929 0.985 . S
N917 C919 1.356 . S
N917 H922 0.984 . S
N917 H923 0.985 . S
C918 C912 1.379 . S
C918 C915 1.363 . S
C918 N916 1.356 . S
C919 C913 1.363 . S
C919 C914 1.379 . S
C919 N917 1.356 . S
N920 C912 1.356 . S
N920 H926 0.984 . S
N920 H927 0.984 . S
N921 C914 1.356 . S
N921 H924 0.984 . S
N921 H925 0.985 . S
H922 N917 0.984 . S
H923 N917 0.985 . S
H924 N921 0.984 . S
H925 N921 0.985 . S
H926 N920 0.984 . S
H927 N920 0.984 . S
H928 N916 0.984 . S
H929 N916 0.985 . S
C930 C931 1.363 . S
C930 C936 1.379 . S
C930 N938 1.356 . S
C931 C930 1.363 . S
C931 C937 1.363 . S
C932 C933 1.363 . S
C932 C937 1.379 . S
C932 N939 1.356 . S
C933 C932 1.363 . S
C933 C936 1.363 . S
N934 C936 1.356 . S
N934 H946 0.984 . S
N934 H947 0.985 . S
N935 C937 1.356 . S
N935 H940 0.984 . S
N935 H941 0.985 . S
C936 C930 1.379 . S
C936 C933 1.363 . S
C936 N934 1.356 . S
C937 C931 1.363 . S
C937 C932 1.379 . S
C937 N935 1.356 . S
N938 C930 1.356 . S
N938 H944 0.984 . S
N938 H945 0.984 . S
N939 C932 1.356 . S
N939 H942 0.984 . S
N939 H943 0.985 . S
H940 N935 0.984 . S
H941 N935 0.985 . S
H942 N939 0.984 . S
H943 N939 0.985 . S
H944 N938 0.984 . S
H945 N938 0.984 . S
H946 N934 0.984 . S
H947 N934 0.985 . S
C948 C949 1.363 . S
C948 C954 1.379 . S
C948 N956 1.356 . S
C949 C948 1.363 . S
C949 C955 1.363 . S
C950 C951 1.363 . S
C950 C955 1.379 . S
C950 N957 1.356 . S
C951 C950 1.363 . S
C951 C954 1.363 . S
N952 C954 1.356 . S
N952 H964 0.984 . S
N952 H965 0.985 . S
N953 C955 1.356 . S
N953 H958 0.984 . S
N953 H959 0.985 . S
C954 C948 1.379 . S
C954 C951 1.363 . S
C954 N952 1.356 . S
C955 C949 1.363 . S
C955 C950 1.379 . S
C955 N953 1.356 . S
N956 C948 1.356 . S
N956 H962 0.984 . S
N956 H963 0.984 . S
N957 C950 1.356 . S
N957 H960 0.984 . S
N957 H961 0.985 . S
H958 N953 0.984 . S
H959 N953 0.985 . S
H960 N957 0.984 . S
H961 N957 0.985 . S
H962 N956 0.984 . S
H963 N956 0.984 . S
H964 N952 0.984 . S
H965 N952 0.985 . S
C966 C967 1.363 . S
C966 C972 1.379 . S
C966 N974 1.356 . S
C967 C966 1.363 . S
C967 C973 1.363 . S
C968 C969 1.363 . S
C968 C973 1.379 . S
C968 N975 1.356 . S
C969 C968 1.363 . S
C969 C972 1.363 . S
N970 C972 1.356 . S
N970 H982 0.984 . S
N970 H983 0.985 . S
N971 C973 1.356 . S
N971 H976 0.984 . S
N971 H977 0.985 . S
C972 C966 1.379 . S
C972 C969 1.363 . S
C972 N970 1.356 . S
C973 C967 1.363 . S
C973 C968 1.379 . S
C973 N971 1.356 . S
N974 C966 1.356 . S
N974 H980 0.984 . S
N974 H981 0.984 . S
N975 C968 1.356 . S
N975 H978 0.984 . S
N975 H979 0.985 . S
H976 N971 0.984 . S
H977 N971 0.985 . S
H978 N975 0.984 . S
H979 N975 0.985 . S
H980 N974 0.984 . S
H981 N974 0.984 . S
H982 N970 0.984 . S
H983 N970 0.985 . S
C984 C985 1.363 . S
C984 C990 1.379 . S
C984 N992 1.356 . S
C985 C984 1.363 . S
C985 C991 1.363 . S
C986 C987 1.363 . S
C986 C991 1.379 . S
C986 N993 1.356 . S
C987 C986 1.363 . S
C987 C990 1.363 . S
N988 C990 1.356 . S
N988 H1000 0.984 . S
N988 H1001 0.985 . S
N989 C991 1.356 . S
N989 H994 0.984 . S
N989 H995 0.985 . S
C990 C984 1.379 . S
C990 C987 1.363 . S
C990 N988 1.356 . S
C991 C985 1.363 . S
C991 C986 1.379 . S
C991 N989 1.356 . S
N992 C984 1.356 . S
N992 H998 0.984 . S
N992 H999 0.984 . S
N993 C986 1.356 . S
N993 H996 0.984 . S
N993 H997 0.985 . S
H994 N989 0.984 . S
H995 N989 0.985 . S
H996 N993 0.984 . S
H997 N993 0.985 . S
H998 N992 0.984 . S
H999 N992 0.984 . S
H1000 N988 0.984 . S
H1001 N988 0.985 . S
C1002 C1003 1.363 . S
C1002 C1008 1.379 . S
C1002 N1010 1.356 . S
C1003 C1002 1.363 . S
C1003 C1009 1.363 . S
C1004 C1005 1.363 . S
C1004 C1009 1.379 . S
C1004 N1011 1.356 . S
C1005 C1004 1.363 . S
C1005 C1008 1.363 . S
N1006 C1008 1.356 . S
N1006 H1018 0.984 . S
N1006 H1019 0.985 . S
N1007 C1009 1.356 . S
N1007 H1012 0.984 . S
N1007 H1013 0.985 . S
C1008 C1002 1.379 . S
C1008 C1005 1.363 . S
C1008 N1006 1.356 . S
C1009 C1003 1.363 . S
C1009 C1004 1.379 . S
C1009 N1007 1.356 . S
N1010 C1002 1.356 . S
N1010 H1016 0.984 . S
N1010 H1017 0.984 . S
N1011 C1004 1.356 . S
N1011 H1014 0.984 . S
N1011 H1015 0.985 . S
H1012 N1007 0.984 . S
H1013 N1007 0.985 . S
H1014 N1011 0.984 . S
H1015 N1011 0.985 . S
H1016 N1010 0.984 . S
H1017 N1010 0.984 . S
H1018 N1006 0.984 . S
H1019 N1006 0.985 . S
C1020 C1021 1.363 . S
C1020 C1026 1.379 . S
C1020 N1028 1.356 . S
C1021 C1020 1.363 . S
C1021 C1027 1.363 . S
C1022 C1023 1.363 . S
C1022 C1027 1.379 . S
C1022 N1029 1.356 . S
C1023 C1022 1.363 . S
C1023 C1026 1.363 . S
N1024 C1026 1.356 . S
N1024 H1036 0.984 . S
N1024 H1037 0.985 . S
N1025 C1027 1.356 . S
N1025 H1030 0.984 . S
N1025 H1031 0.985 . S
C1026 C1020 1.379 . S
C1026 C1023 1.363 . S
C1026 N1024 1.356 . S
C1027 C1021 1.363 . S
C1027 C1022 1.379 . S
C1027 N1025 1.356 . S
N1028 C1020 1.356 . S
N1028 H1034 0.984 . S
N1028 H1035 0.984 . S
N1029 C1022 1.356 . S
N1029 H1032 0.984 . S
N1029 H1033 0.985 . S
H1030 N1025 0.984 . S
H1031 N1025 0.985 . S
H1032 N1029 0.984 . S
H1033 N1029 0.985 . S
H1034 N1028 0.984 . S
H1035 N1028 0.984 . S
H1036 N1024 0.984 . S
H1037 N1024 0.985 . S
C1038 C1039 1.363 . S
C1038 C1044 1.379 . S
C1038 N1046 1.356 . S
C1039 C1038 1.363 . S
C1039 C1045 1.363 . S
C1040 C1041 1.363 . S
C1040 C1045 1.379 . S
C1040 N1047 1.356 . S
C1041 C1040 1.363 . S
C1041 C1044 1.363 . S
N1042 C1044 1.356 . S
N1042 H1054 0.984 . S
N1042 H1055 0.985 . S
N1043 C1045 1.356 . S
N1043 H1048 0.984 . S
N1043 H1049 0.985 . S
C1044 C1038 1.379 . S
C1044 C1041 1.363 . S
C1044 N1042 1.356 . S
C1045 C1039 1.363 . S
C1045 C1040 1.379 . S
C1045 N1043 1.356 . S
N1046 C1038 1.356 . S
N1046 H1052 0.984 . S
N1046 H1053 0.984 . S
N1047 C1040 1.356 . S
N1047 H1050 0.984 . S
N1047 H1051 0.985 . S
H1048 N1043 0.984 . S
H1049 N1043 0.985 . S
H1050 N1047 0.984 . S
H1051 N1047 0.985 . S
H1052 N1046 0.984 . S
H1053 N1046 0.984 . S
H1054 N1042 0.984 . S
H1055 N1042 0.985 . S
C1056 C1057 1.363 . S
C1056 C1062 1.379 . S
C1056 N1064 1.356 . S
C1057 C1056 1.363 . S
C1057 C1063 1.363 . S
C1058 C1059 1.363 . S
C1058 C1063 1.379 . S
C1058 N1065 1.356 . S
C1059 C1058 1.363 . S
C1059 C1062 1.363 . S
N1060 C1062 1.356 . S
N1060 H1072 0.984 . S
N1060 H1073 0.985 . S
N1061 C1063 1.356 . S
N1061 H1066 0.984 . S
N1061 H1067 0.985 . S
C1062 C1056 1.379 . S
C1062 C1059 1.363 . S
C1062 N1060 1.356 . S
C1063 C1057 1.363 . S
C1063 C1058 1.379 . S
C1063 N1061 1.356 . S
N1064 C1056 1.356 . S
N1064 H1070 0.984 . S
N1064 H1071 0.984 . S
N1065 C1058 1.356 . S
N1065 H1068 0.984 . S
N1065 H1069 0.985 . S
H1066 N1061 0.984 . S
H1067 N1061 0.985 . S
H1068 N1065 0.984 . S
H1069 N1065 0.985 . S
H1070 N1064 0.984 . S
H1071 N1064 0.984 . S
H1072 N1060 0.984 . S
H1073 N1060 0.985 . S
C1074 C1075 1.363 . S
C1074 C1080 1.379 . S
C1074 N1082 1.356 . S
C1075 C1074 1.363 . S
C1075 C1081 1.363 . S
C1076 C1077 1.363 . S
C1076 C1081 1.379 . S
C1076 N1083 1.356 . S
C1077 C1076 1.363 . S
C1077 C1080 1.363 . S
N1078 C1080 1.356 . S
N1078 H1090 0.984 . S
N1078 H1091 0.985 . S
N1079 C1081 1.356 . S
N1079 H1084 0.984 . S
N1079 H1085 0.985 . S
C1080 C1074 1.379 . S
C1080 C1077 1.363 . S
C1080 N1078 1.356 . S
C1081 C1075 1.363 . S
C1081 C1076 1.379 . S
C1081 N1079 1.356 . S
N1082 C1074 1.356 . S
N1082 H1088 0.984 . S
N1082 H1089 0.984 . S
N1083 C1076 1.356 . S
N1083 H1086 0.984 . S
N1083 H1087 0.985 . S
H1084 N1079 0.984 . S
H1085 N1079 0.985 . S
H1086 N1083 0.984 . S
H1087 N1083 0.985 . S
H1088 N1082 0.984 . S
H1089 N1082 0.984 . S
H1090 N1078 0.984 . S
H1091 N1078 0.985 . S
C1092 C1093 1.363 . S
C1092 C1098 1.379 . S
C1092 N1100 1.356 . S
C1093 C1092 1.363 . S
C1093 C1099 1.363 . S
C1094 C1095 1.363 . S
C1094 C1099 1.379 . S
C1094 N1101 1.356 . S
C1095 C1094 1.363 . S
C1095 C1098 1.363 . S
N1096 C1098 1.356 . S
N1096 H1108 0.984 . S
N1096 H1109 0.985 . S
N1097 C1099 1.356 . S
N1097 H1102 0.984 . S
N1097 H1103 0.985 . S
C1098 C1092 1.379 . S
C1098 C1095 1.363 . S
C1098 N1096 1.356 . S
C1099 C1093 1.363 . S
C1099 C1094 1.379 . S
C1099 N1097 1.356 . S
N1100 C1092 1.356 . S
N1100 H1106 0.984 . S
N1100 H1107 0.984 . S
N1101 C1094 1.356 . S
N1101 H1104 0.984 . S
N1101 H1105 0.985 . S
H1102 N1097 0.984 . S
H1103 N1097 0.985 . S
H1104 N1101 0.984 . S
H1105 N1101 0.985 . S
H1106 N1100 0.984 . S
H1107 N1100 0.984 . S
H1108 N1096 0.984 . S
H1109 N1096 0.985 . S
C1110 C1111 1.363 . S
C1110 C1116 1.379 . S
C1110 N1118 1.356 . S
C1111 C1110 1.363 . S
C1111 C1117 1.363 . S
C1112 C1113 1.363 . S
C1112 C1117 1.379 . S
C1112 N1119 1.356 . S
C1113 C1112 1.363 . S
C1113 C1116 1.363 . S
N1114 C1116 1.356 . S
N1114 H1126 0.984 . S
N1114 H1127 0.985 . S
N1115 C1117 1.356 . S
N1115 H1120 0.984 . S
N1115 H1121 0.985 . S
C1116 C1110 1.379 . S
C1116 C1113 1.363 . S
C1116 N1114 1.356 . S
C1117 C1111 1.363 . S
C1117 C1112 1.379 . S
C1117 N1115 1.356 . S
N1118 C1110 1.356 . S
N1118 H1124 0.984 . S
N1118 H1125 0.984 . S
N1119 C1112 1.356 . S
N1119 H1122 0.984 . S
N1119 H1123 0.985 . S
H1120 N1115 0.984 . S
H1121 N1115 0.985 . S
H1122 N1119 0.984 . S
H1123 N1119 0.985 . S
H1124 N1118 0.984 . S
H1125 N1118 0.984 . S
H1126 N1114 0.984 . S
H1127 N1114 0.985 . S
C1128 C1129 1.363 . S
C1128 C1134 1.379 . S
C1128 N1136 1.356 . S
C1129 C1128 1.363 . S
C1129 C1135 1.363 . S
C1130 C1131 1.363 . S
C1130 C1135 1.379 . S
C1130 N1137 1.356 . S
C1131 C1130 1.363 . S
C1131 C1134 1.363 . S
N1132 C1134 1.356 . S
N1132 H1144 0.984 . S
N1132 H1145 0.985 . S
N1133 C1135 1.356 . S
N1133 H1138 0.984 . S
N1133 H1139 0.985 . S
C1134 C1128 1.379 . S
C1134 C1131 1.363 . S
C1134 N1132 1.356 . S
C1135 C1129 1.363 . S
C1135 C1130 1.379 . S
C1135 N1133 1.356 . S
N1136 C1128 1.356 . S
N1136 H1142 0.984 . S
N1136 H1143 0.984 . S
N1137 C1130 1.356 . S
N1137 H1140 0.984 . S
N1137 H1141 0.985 . S
H1138 N1133 0.984 . S
H1139 N1133 0.985 . S
H1140 N1137 0.984 . S
H1141 N1137 0.985 . S
H1142 N1136 0.984 . S
H1143 N1136 0.984 . S
H1144 N1132 0.984 . S
H1145 N1132 0.985 . S
C1146 C1147 1.363 . S
C1146 C1152 1.379 . S
C1146 N1154 1.356 . S
C1147 C1146 1.363 . S
C1147 C1153 1.363 . S
C1148 C1149 1.363 . S
C1148 C1153 1.379 . S
C1148 N1155 1.356 . S
C1149 C1148 1.363 . S
C1149 C1152 1.363 . S
N1150 C1152 1.356 . S
N1150 H1162 0.984 . S
N1150 H1163 0.985 . S
N1151 C1153 1.356 . S
N1151 H1156 0.984 . S
N1151 H1157 0.985 . S
C1152 C1146 1.379 . S
C1152 C1149 1.363 . S
C1152 N1150 1.356 . S
C1153 C1147 1.363 . S
C1153 C1148 1.379 . S
C1153 N1151 1.356 . S
N1154 C1146 1.356 . S
N1154 H1160 0.984 . S
N1154 H1161 0.984 . S
N1155 C1148 1.356 . S
N1155 H1158 0.984 . S
N1155 H1159 0.985 . S
H1156 N1151 0.984 . S
H1157 N1151 0.985 . S
H1158 N1155 0.984 . S
H1159 N1155 0.985 . S
H1160 N1154 0.984 . S
H1161 N1154 0.984 . S
H1162 N1150 0.984 . S
H1163 N1150 0.985 . S
C1164 C1165 1.363 . S
C1164 C1170 1.379 . S
C1164 N1172 1.356 . S
C1165 C1164 1.363 . S
C1165 C1171 1.363 . S
C1166 C1167 1.363 . S
C1166 C1171 1.379 . S
C1166 N1173 1.356 . S
C1167 C1166 1.363 . S
C1167 C1170 1.363 . S
N1168 C1170 1.356 . S
N1168 H1180 0.984 . S
N1168 H1181 0.985 . S
N1169 C1171 1.356 . S
N1169 H1174 0.984 . S
N1169 H1175 0.985 . S
C1170 C1164 1.379 . S
C1170 C1167 1.363 . S
C1170 N1168 1.356 . S
C1171 C1165 1.363 . S
C1171 C1166 1.379 . S
C1171 N1169 1.356 . S
N1172 C1164 1.356 . S
N1172 H1178 0.984 . S
N1172 H1179 0.984 . S
N1173 C1166 1.356 . S
N1173 H1176 0.984 . S
N1173 H1177 0.985 . S
H1174 N1169 0.984 . S
H1175 N1169 0.985 . S
H1176 N1173 0.984 . S
H1177 N1173 0.985 . S
H1178 N1172 0.984 . S
H1179 N1172 0.984 . S
H1180 N1168 0.984 . S
H1181 N1168 0.985 . S
C1182 C1183 1.363 . S
C1182 C1188 1.379 . S
C1182 N1190 1.356 . S
C1183 C1182 1.363 . S
C1183 C1189 1.363 . S
C1184 C1185 1.363 . S
C1184 C1189 1.379 . S
C1184 N1191 1.356 . S
C1185 C1184 1.363 . S
C1185 C1188 1.363 . S
N1186 C1188 1.356 . S
N1186 H1198 0.984 . S
N1186 H1199 0.985 . S
N1187 C1189 1.356 . S
N1187 H1192 0.984 . S
N1187 H1193 0.985 . S
C1188 C1182 1.379 . S
C1188 C1185 1.363 . S
C1188 N1186 1.356 . S
C1189 C1183 1.363 . S
C1189 C1184 1.379 . S
C1189 N1187 1.356 . S
N1190 C1182 1.356 . S
N1190 H1196 0.984 . S
N1190 H1197 0.984 . S
N1191 C1184 1.356 . S
N1191 H1194 0.984 . S
N1191 H1195 0.985 . S
H1192 N1187 0.984 . S
H1193 N1187 0.985 . S
H1194 N1191 0.984 . S
H1195 N1191 0.985 . S
H1196 N1190 0.984 . S
H1197 N1190 0.984 . S
H1198 N1186 0.984 . S
H1199 N1186 0.985 . S
C337 C5 1.547 . S
C339 C103 1.547 . S
C355 C117 1.547 . S
C357 C19 1.547 . S
C373 C33 1.547 . S
C375 C131 1.547 . S
C391 C47 1.547 . S
C393 C145 1.547 . S
C409 C159 1.547 . S
C411 C61 1.547 . S
C427 C75 1.547 . S
C429 C89 1.547 . S
C445 C173 1.547 . S
C447 C271 1.547 . S
C463 C187 1.547 . S
C465 C285 1.547 . S
C481 C299 1.547 . S
C483 C201 1.547 . S
C499 C215 1.547 . S
C501 C313 1.547 . S
C517 C229 1.547 . S
C519 C327 1.547 . S
C535 C257 1.547 . S
C537 C243 1.547 . S
C553 C11 1.418 . S
C555 C123 1.418 . S
C571 C137 1.418 . S
C573 C25 1.418 . S
C589 C151 1.418 . S
C591 C39 1.418 . S
C607 C53 1.418 . S
C609 C165 1.418 . S
C625 C67 1.418 . S
C627 C95 1.418 . S
C643 C81 1.418 . S
C645 C109 1.418 . S
C661 C291 1.418 . S
C663 C179 1.418 . S
C679 C193 1.418 . S
C681 C305 1.418 . S
C697 C319 1.418 . S
C699 C207 1.418 . S
C715 C333 1.418 . S
C717 C221 1.418 . S
C733 C263 1.418 . S
C735 C235 1.418 . S
C751 C249 1.418 . S
C753 C277 1.418 . S
C769 C9 1.586 . S
C771 C219 1.586 . S
C787 C233 1.585 . S
C789 C23 1.585 . S
C805 C247 1.585 . S
C807 C37 1.585 . S
C823 C51 1.586 . S
C825 C177 1.586 . S
C841 C65 1.585 . S
C843 C191 1.585 . S
C859 C205 1.585 . S
C861 C79 1.585 . S
C877 C303 1.586 . S
C879 C93 1.586 . S
C895 C317 1.585 . S
C897 C107 1.585 . S
C913 C331 1.585 . S
C915 C121 1.585 . S
C931 C261 1.586 . S
C933 C135 1.586 . S
C949 C149 1.585 . S
C951 C275 1.585 . S
C967 C163 1.585 . S
C969 C289 1.585 . S
C985 C0 1.458 . S
C987 C140 1.458 . S
C1003 C154 1.458 . S
C1005 C14 1.458 . S
C1021 C84 1.458 . S
C1023 C28 1.458 . S
C1039 C42 1.458 . S
C1041 C98 1.459 . S
C1057 C56 1.458 . S
C1059 C112 1.458 . S
C1075 C70 1.459 . S
C1077 C126 1.458 . S
C1093 C168 1.458 . S
C1095 C308 1.458 . S
C1111 C182 1.458 . S
C1113 C322 1.458 . S
C1129 C196 1.458 . S
C1131 C252 1.458 . S
C1147 C266 1.459 . S
C1149 C210 1.458 . S
C1165 C224 1.458 . S
C1167 C280 1.458 . S
C1183 C238 1.459 . S
C1185 C294 1.458 . S
