# Generated by pormake.
# Topology rob, (6)-cn, num edge types: 1
# Building blocks:
#     Node 0, Type 0, BuildingBlock: HISSIN_clean_sbu_0, # of connection points: 6
#     Node 1, Type 0, BuildingBlock: HISSIN_clean_sbu_0, # of connection points: 6
#     Node 2, Type 0, BuildingBlock: HISSIN_clean_sbu_0, # of connection points: 6
#     Node 3, Type 0, BuildingBlock: HISSIN_clean_sbu_0, # of connection points: 6
#     Edge 4, Type (0, 0), BuildingBlock: UVAHIK_clean_linker_0, # of connection points: 2
#     Edge 5, Type (0, 0), BuildingBlock: UVAHIK_clean_linker_0, # of connection points: 2
#     Edge 6, Type (0, 0), BuildingBlock: UVAHIK_clean_linker_0, # of connection points: 2
#     Edge 7, Type (0, 0), BuildingBlock: UVAHIK_clean_linker_0, # of connection points: 2
#     Edge 8, Type (0, 0), BuildingBlock: UVAHIK_clean_linker_0, # of connection points: 2
#     Edge 9, Type (0, 0), BuildingBlock: UVAHIK_clean_linker_0, # of connection points: 2
#     Edge 10, Type (0, 0), BuildingBlock: UVAHIK_clean_linker_0, # of connection points: 2
#     Edge 11, Type (0, 0), BuildingBlock: UVAHIK_clean_linker_0, # of connection points: 2
#     Edge 12, Type (0, 0), BuildingBlock: UVAHIK_clean_linker_0, # of connection points: 2
#     Edge 13, Type (0, 0), BuildingBlock: UVAHIK_clean_linker_0, # of connection points: 2
#     Edge 14, Type (0, 0), BuildingBlock: UVAHIK_clean_linker_0, # of connection points: 2
#     Edge 15, Type (0, 0), BuildingBlock: UVAHIK_clean_linker_0, # of connection points: 2
# Relax obj value: 0.030
# Max RMSD: 0.124
# Mean RMSD: 0.124
data_MOF--net-rob--node1-HISSIN_clean_sbu_0--edge1-UVAHIK_clean_linker_0
_symmetry_space_group_name_H-M    P1
_symmetry_Int_Tables_number       1
_symmetry_cell_setting            triclinic
loop_
_symmetry_equiv_pos_as_xyz
'x, y, z'
_cell_length_a     19.633142
_cell_length_b     34.377147
_cell_length_c     44.640348
_cell_angle_alpha  95.171204
_cell_angle_beta   89.874739
_cell_angle_gamma 89.949652
loop_
_atom_site_label
_atom_site_type_symbol
_atom_site_fract_x
_atom_site_fract_y
_atom_site_fract_z
_atom_type_partial_charge
Eu0 Eu 0.17501 0.2662 0.03283 0.0
Eu1 Eu 0.3011 0.21817 0.99709 0.0
C2 C 0.17201 0.1729 0.01921 0.0
C3 C 0.05458 0.29909 0.09591 0.0
C4 C 0.06963 0.26551 0.11034 0.0
C5 C 0.00041 0.32768 0.14169 0.0
C6 C 0.0502 0.26301 0.14023 0.0
C7 C 0.01972 0.3301 0.11171 0.0
C8 C 0.01569 0.29415 0.15633 0.0
C9 C 0.0796 0.3029 0.06524 0.0
O10 O 0.21699 0.22435 0.96362 0.0
O11 O 0.16415 0.27982 0.98454 0.0
C12 C 0.17746 0.25476 0.96124 0.0
O13 O 0.26626 0.30581 0.03378 0.0
O14 O 0.33668 0.1681 0.96778 0.0
O15 O 0.40754 0.21396 0.98272 0.0
O16 O 0.31381 0.2815 0.98947 0.0
C17 C 0.30631 0.30992 1.01078 0.0
O18 O 0.22823 0.23361 0.06739 0.0
O19 O 0.33436 0.22696 0.04582 0.0
O20 O 0.23879 0.17279 0.01787 0.0
O21 O 0.14184 0.31554 0.0636 0.0
O22 O 0.06777 0.27354 0.04536 0.0
O23 O 0.13705 0.20543 0.01874 0.0
C24 C 0.41866 0.18515 0.93303 0.0
C25 C 0.38386 0.20965 0.91471 0.0
C26 C 0.49195 0.16369 0.89086 0.0
C27 C 0.40285 0.21109 0.88462 0.0
C28 C 0.4728 0.16223 0.92096 0.0
C29 C 0.45709 0.18807 0.87228 0.0
C30 C 0.39712 0.18278 0.96438 0.0
C31 C 0.29397 0.22732 0.06945 0.0
H32 H 0.09743 0.24147 0.09862 0.0
H33 H 0.97339 0.35201 0.1534 0.0
H34 H 0.06367 0.23704 0.15095 0.0
H35 H 0.00823 0.35637 0.10098 0.0
H36 H 0.3418 0.22756 0.92369 0.0
H37 H 0.53335 0.14522 0.882 0.0
H38 H 0.37548 0.23055 0.87112 0.0
H39 H 0.49991 0.14299 0.93475 0.0
Eu40 Eu 0.68669 0.75843 0.03398 0.0
Eu41 Eu 0.8184 0.71522 0.99874 0.0
C42 C 0.68651 0.66801 0.014 0.0
C43 C 0.5639 0.78742 0.09739 0.0
C44 C 0.59796 0.76266 0.11575 0.0
C45 C 0.48951 0.80861 0.13927 0.0
C46 C 0.57804 0.76096 0.14571 0.0
C47 C 0.50955 0.8103 0.10929 0.0
C48 C 0.52366 0.78401 0.15791 0.0
C49 C 0.58661 0.79039 0.06624 0.0
O50 O 0.76295 0.746 0.96372 0.0
O51 O 0.65611 0.75245 0.98492 0.0
C52 C 0.6972 0.75233 0.96153 0.0
O53 O 0.75003 0.80546 0.01587 0.0
O54 O 0.8702 0.66333 0.97778 0.0
O55 O 0.91862 0.71981 0.97828 0.0
O56 O 0.85161 0.77419 0.01975 0.0
C57 C 0.81659 0.80645 0.0181 0.0
O58 O 0.76657 0.75092 0.06911 0.0
O59 O 0.82811 0.69946 0.04653 0.0
O60 O 0.72792 0.67521 0.9921 0.0
O61 O 0.64572 0.80694 0.06342 0.0
O62 O 0.57976 0.759 0.04776 0.0
O63 O 0.67792 0.69378 0.03716 0.0
C64 C 0.93659 0.67625 0.93558 0.0
C65 C 0.88774 0.68333 0.9138 0.0
C66 C 0.0203 0.66215 0.89601 0.0
C67 C 0.90529 0.6802 0.88327 0.0
C68 C 0.00264 0.66521 0.92649 0.0
C69 C 0.97213 0.67018 0.87407 0.0
C70 C 0.92062 0.68323 0.9678 0.0
C71 C 0.80987 0.722 0.07058 0.0
H72 H 0.64023 0.74481 0.10692 0.0
H73 H 0.44806 0.82715 0.14799 0.0
H74 H 0.60492 0.74133 0.15925 0.0
H75 H 0.48304 0.82979 0.0955 0.0
H76 H 0.83655 0.69222 0.92047 0.0
H77 H 0.07193 0.65388 0.88963 0.0
H78 H 0.86722 0.68697 0.867 0.0
H79 H 0.041 0.65975 0.94303 0.0
Eu80 Eu 0.17615 0.71463 0.4996 0.0
Eu81 Eu 0.30691 0.75857 0.53475 0.0
C82 C 0.1743 0.8055 0.52022 0.0
C83 C 0.05934 0.68273 0.43529 0.0
C84 C 0.08053 0.71386 0.41922 0.0
C85 C 0.0073 0.65204 0.38979 0.0
C86 C 0.06472 0.71429 0.38879 0.0
C87 C 0.02298 0.65172 0.42037 0.0
C88 C 0.02763 0.6835 0.37374 0.0
C89 C 0.07688 0.68224 0.46729 0.0
O90 O 0.22997 0.74737 0.57049 0.0
O91 O 0.16702 0.69711 0.54694 0.0
C92 C 0.18714 0.71809 0.57144 0.0
O93 O 0.26709 0.67476 0.4938 0.0
O94 O 0.34609 0.80715 0.56448 0.0
O95 O 0.41447 0.76097 0.54725 0.0
O96 O 0.31866 0.69421 0.53825 0.0
C97 C 0.30879 0.66793 0.51559 0.0
O98 O 0.22894 0.74855 0.4655 0.0
O99 O 0.33661 0.75226 0.48553 0.0
O100 O 0.24089 0.80543 0.51801 0.0
O101 O 0.13298 0.66406 0.47293 0.0
O102 O 0.07137 0.71551 0.48358 0.0
O103 O 0.14051 0.77276 0.52114 0.0
C104 C 0.43023 0.78789 0.59721 0.0
C105 C 0.4 0.76059 0.61465 0.0
C106 C 0.50107 0.81059 0.63975 0.0
C107 C 0.41976 0.7585 0.64454 0.0
C108 C 0.481 0.81276 0.60987 0.0
C109 C 0.47034 0.78361 0.65751 0.0
C110 C 0.40636 0.79163 0.56641 0.0
C111 C 0.29485 0.75375 0.46262 0.0
H112 H 0.10929 0.7379 0.43024 0.0
H113 H 0.97833 0.62803 0.37884 0.0
H114 H 0.08205 0.73862 0.37696 0.0
H115 H 0.00662 0.62734 0.43238 0.0
H116 H 0.36067 0.74112 0.60518 0.0
H117 H 0.5396 0.83063 0.64914 0.0
H118 H 0.39567 0.73708 0.65743 0.0
H119 H 0.50449 0.83419 0.59678 0.0
Eu120 Eu 0.68122 0.21414 0.49651 0.0
Eu121 Eu 0.80768 0.26138 0.53241 0.0
C122 C 0.67607 0.30546 0.51176 0.0
C123 C 0.56358 0.18262 0.43233 0.0
C124 C 0.5992 0.20688 0.41406 0.0
C125 C 0.48904 0.16283 0.39037 0.0
C126 C 0.57999 0.20902 0.3841 0.0
C127 C 0.50841 0.16067 0.42034 0.0
C128 C 0.52469 0.18698 0.37184 0.0
C129 C 0.5851 0.17962 0.46358 0.0
O130 O 0.75379 0.2289 0.56692 0.0
O131 O 0.64782 0.2223 0.54531 0.0
C132 C 0.68802 0.22258 0.56893 0.0
O133 O 0.74304 0.16847 0.51712 0.0
O134 O 0.84233 0.31144 0.56205 0.0
O135 O 0.91435 0.26684 0.54599 0.0
O136 O 0.84494 0.20075 0.51742 0.0
C137 C 0.80981 0.16837 0.51822 0.0
O138 O 0.76547 0.22056 0.46302 0.0
O139 O 0.81847 0.27568 0.48426 0.0
O140 O 0.71575 0.3005 0.53463 0.0
O141 O 0.64545 0.16467 0.46673 0.0
O142 O 0.57481 0.21053 0.48225 0.0
O143 O 0.66912 0.27778 0.48986 0.0
C144 C 0.92604 0.29474 0.59596 0.0
C145 C 0.909 0.26204 0.6111 0.0
C146 C 0.97952 0.32424 0.6415 0.0
C147 C 0.92723 0.26037 0.6412 0.0
C148 C 0.96141 0.3258 0.61131 0.0
C149 C 0.96256 0.2915 0.6568 0.0
C150 C 0.90337 0.29743 0.56483 0.0
C151 C 0.80496 0.251 0.46079 0.0
H152 H 0.64202 0.22408 0.42298 0.0
H153 H 0.44679 0.14511 0.38158 0.0
H154 H 0.60802 0.22828 0.37064 0.0
H155 H 0.48062 0.14164 0.43409 0.0
H156 H 0.88085 0.23796 0.59974 0.0
H157 H 0.00718 0.34852 0.65282 0.0
H158 H 0.91248 0.23502 0.65243 0.0
H159 H 0.97448 0.3514 0.60003 0.0
C160 C 0.60224 0.62345 0.03541 0.0
C161 C 0.64819 0.63086 1.01243 0.0
C162 C 0.56497 0.58877 0.03377 0.0
C163 C 0.56318 0.48791 0.99811 0.0
H164 H 0.37272 0.49182 0.02143 0.0
C165 C 0.38822 0.35202 0.98504 0.0
C166 C 0.34422 0.34687 1.00926 0.0
C167 C 0.42463 0.38681 0.98398 0.0
C168 C 0.426 0.49019 0.01509 0.0
H169 H 0.69131 0.60748 0.96973 0.0
H170 H 0.62585 0.54694 0.96684 0.0
H171 H 0.43805 0.55215 0.0224 0.0
H172 H 0.3039 0.37429 0.05131 0.0
H173 H 0.36776 0.43462 0.04957 0.0
H174 H 0.55119 0.42587 0.99105 0.0
C175 C 0.61915 0.56789 0.98624 0.0
C176 C 0.46343 0.52475 0.01566 0.0
C177 C 0.6564 0.60266 0.98785 0.0
C178 C 0.33718 0.3773 0.03227 0.0
C179 C 0.3735 0.41203 0.0312 0.0
C180 C 0.52572 0.4533 0.99757 0.0
C181 C 0.57279 0.56066 1.00913 0.0
C182 C 0.53259 0.52398 1.00743 0.0
C183 C 0.4177 0.41719 1.00707 0.0
C184 C 0.45685 0.45403 1.00632 0.0
H185 H 0.5948 0.64448 0.05472 0.0
H186 H 0.53044 0.58381 0.052 0.0
H187 H 0.61657 0.48632 0.99195 0.0
H188 H 0.39469 0.32918 0.9669 0.0
H189 H 0.45773 0.39006 0.96493 0.0
C190 C 0.3897 0.62233 0.53788 0.0
C191 C 0.3453 0.63024 0.51454 0.0
C192 C 0.42405 0.58668 0.53698 0.0
C193 C 0.48103 0.50367 0.48509 0.0
H194 H 0.49613 0.45116 0.55813 0.0
C195 C 0.59386 0.34834 0.48711 0.0
C196 C 0.63779 0.34239 0.5111 0.0
C197 C 0.55694 0.38309 0.48692 0.0
C198 C 0.4929 0.46566 0.53761 0.0
H199 H 0.30213 0.60693 0.47192 0.0
H200 H 0.36184 0.54458 0.47051 0.0
H201 H 0.43375 0.51255 0.55898 0.0
H202 H 0.67801 0.36844 0.55353 0.0
H203 H 0.61418 0.42902 0.55302 0.0
H204 H 0.54049 0.45676 0.46377 0.0
C205 C 0.37055 0.56613 0.48934 0.0
C206 C 0.45719 0.50081 0.53811 0.0
C207 C 0.33609 0.60178 0.49024 0.0
C208 C 0.64439 0.37198 0.53476 0.0
C209 C 0.60749 0.40664 0.53458 0.0
C210 C 0.5168 0.46847 0.4846 0.0
C211 C 0.41479 0.55819 0.51273 0.0
C212 C 0.45125 0.52033 0.51191 0.0
C213 C 0.56315 0.41252 0.51074 0.0
C214 C 0.5235 0.44925 0.51091 0.0
H215 H 0.39811 0.64366 0.55688 0.0
H216 H 0.45853 0.58163 0.55514 0.0
H217 H 0.47798 0.51828 0.46463 0.0
H218 H 0.58757 0.32608 0.46855 0.0
H219 H 0.52271 0.38666 0.46837 0.0
C220 C 0.17117 0.10023 0.02112 0.0
C221 C 0.13522 0.13556 0.0207 0.0
C222 C 0.1363 0.06491 0.02181 0.0
C223 C 0.97022 0.01911 1.00365 0.0
H224 H 0.0328 0.94059 0.0544 0.0
C225 C 0.81591 0.87943 0.01886 0.0
C226 C 0.85259 0.84434 0.01909 0.0
C227 C 0.84999 0.91517 0.01971 0.0
C228 C 0.0151 0.96205 0.03986 0.0
H229 H 0.03429 0.16148 0.0211 0.0
H230 H 0.97364 0.09989 0.02248 0.0
H231 H 0.09316 0.00264 0.05488 0.0
H232 H 0.95395 0.81928 0.02033 0.0
H233 H 0.01332 0.88155 0.02144 0.0
H234 H 0.89248 0.9785 0.98846 0.0
C235 C 0.02879 0.09948 0.02191 0.0
C236 C 0.04966 -0.0024 0.04016 0.0
C237 C 0.06363 0.1348 0.02128 0.0
C238 C 0.92409 0.84577 0.02024 0.0
C239 C 0.95816 0.88151 0.02105 0.0
C240 C 0.93574 0.98356 1.00331 0.0
C241 C 0.06472 0.06412 0.02205 0.0
C242 C 0.02764 0.0265 0.02203 0.0
C243 C 0.92152 0.91663 0.02078 0.0
C244 C 0.95783 0.95459 0.02138 0.0
H245 H 0.22633 0.09974 0.02066 0.0
H246 H 0.16543 0.03811 0.02159 0.0
H247 H 0.95262 0.04055 0.98907 0.0
H248 H 0.76077 0.87939 0.01811 0.0
H249 H 0.82022 0.94173 0.01987 0.0
C250 C 0.81036 0.09592 0.52105 0.0
C251 C 0.84643 0.13107 0.52004 0.0
C252 C 0.84515 0.06065 0.52233 0.0
C253 C 0.01212 0.01971 0.54119 0.0
H254 H 0.94965 0.92855 0.49135 0.0
C255 C 0.1715 0.87847 0.52125 0.0
C256 C 0.13658 0.84284 0.52152 0.0
C257 C 0.1356 0.91365 0.5221 0.0
C258 C 0.96725 0.95363 0.50566 0.0
H259 H 0.9474 0.15676 0.5198 0.0
H260 H 0.00791 0.09522 0.52166 0.0
H261 H 0.88755 -0.01007 0.49113 0.0
H262 H 0.03652 0.81625 0.52318 0.0
H263 H 0.97409 0.87763 0.52486 0.0
H264 H 0.09216 0.9834 0.55553 0.0
C265 C 0.95274 0.09498 0.52185 0.0
C266 C 0.93165 -0.01122 0.50556 0.0
C267 C 0.918 0.13023 0.52058 0.0
C268 C 0.06504 0.84316 0.52285 0.0
C269 C 0.02918 0.87831 0.52364 0.0
C270 C 0.04779 0.98455 0.54126 0.0
C271 C 0.91672 0.05978 0.52262 0.0
C272 C 0.95379 0.02224 0.52326 0.0
C273 C 0.06404 0.91392 0.52318 0.0
C274 C 0.02581 0.95116 0.52344 0.0
H275 H 0.7552 0.09555 0.52081 0.0
H276 H 0.81594 0.03408 0.5233 0.0
H277 H 0.02987 0.04483 0.55542 0.0
H278 H 0.2266 0.87924 0.52021 0.0
H279 H 0.16385 0.9406 0.52139 0.0
C280 C 0.55366 0.19054 0.31714 0.0
C281 C 0.50425 0.18921 0.33991 0.0
C282 C 0.53433 0.19266 0.28716 0.0
C283 C 0.38785 0.17445 0.23546 0.0
H284 H 0.48422 0.24329 0.18575 0.0
C285 C 0.27788 0.21799 0.12399 0.0
C286 C 0.32208 0.22025 0.09934 0.0
C287 C 0.30331 0.21212 0.1524 0.0
C288 C 0.45738 0.22351 0.1992 0.0
H289 H 0.39567 0.18981 0.34894 0.0
H290 H 0.362 0.19359 0.2968 0.0
H291 H 0.52227 0.23732 0.23719 0.0
H292 H 0.42802 0.21799 0.08543 0.0
H293 H 0.47256 0.20762 0.13528 0.0
H294 H 0.32246 0.16101 0.19767 0.0
C295 C 0.41576 0.19226 0.302 0.0
C296 C 0.47915 0.22009 0.22871 0.0
C297 C 0.43507 0.19011 0.33194 0.0
C298 C 0.39254 0.21636 0.10388 0.0
C299 C 0.41809 0.21064 0.13247 0.0
C300 C 0.36606 0.17791 0.20604 0.0
C301 C 0.4651 0.19349 0.2792 0.0
C302 C 0.44414 0.19586 0.24733 0.0
C303 C 0.37368 0.20841 0.15706 0.0
C304 C 0.4 0.20285 0.18765 0.0
H305 H 0.60741 0.18934 0.3224 0.0
H306 H 0.57368 0.19305 0.27015 0.0
H307 H 0.36056 0.15487 0.24891 0.0
H308 H 0.22331 0.22096 0.12147 0.0
H309 H 0.26771 0.21119 0.17089 0.0
C310 C 0.4336 0.78343 0.19811 0.0
C311 C 0.50285 0.78256 0.18994 0.0
C312 C 0.41401 0.78226 0.22816 0.0
C313 C 0.47518 0.75416 0.30163 0.0
H314 H 0.32373 0.81806 0.33289 0.0
C315 C 0.39252 0.76233 0.42706 0.0
C316 C 0.32202 0.76072 0.43247 0.0
C317 C 0.41739 0.76708 0.39815 0.0
C318 C 0.3658 0.7998 0.32446 0.0
H319 H 0.60581 0.78029 0.20725 0.0
H320 H 0.5716 0.77818 0.25965 0.0
H321 H 0.36152 0.82195 0.28122 0.0
H322 H 0.22249 0.76342 0.4116 0.0
H323 H 0.26567 0.77139 0.36155 0.0
H324 H 0.47904 0.73181 0.34489 0.0
C325 C 0.53238 0.77923 0.24272 0.0
C326 C 0.38742 0.80198 0.2948 0.0
C327 C 0.55199 0.78041 0.21264 0.0
C328 C 0.2771 0.76455 0.40839 0.0
C329 C 0.30189 0.7694 0.37962 0.0
C330 C 0.45355 0.75198 0.33135 0.0
C331 C 0.46312 0.78021 0.25088 0.0
C332 C 0.44194 0.77891 0.28288 0.0
C333 C 0.37231 0.77053 0.37405 0.0
C334 C 0.3981 0.77448 0.34304 0.0
H335 H 0.39433 0.78441 0.1812 0.0
H336 H 0.36019 0.78234 0.23353 0.0
H337 H 0.51684 0.73564 0.29311 0.0
H338 H 0.42859 0.75947 0.44505 0.0
H339 H 0.47194 0.76822 0.3947 0.0
C340 C 0.59892 0.7606 0.92641 0.0
C341 C 0.6695 0.75901 0.93151 0.0
C342 C 0.57371 0.76533 0.8976 0.0
C343 C 0.62358 0.79948 0.8244 0.0
H344 H 0.47725 0.73282 0.79201 0.0
C345 C 0.55935 0.78476 0.69799 0.0
C346 C 0.49052 0.78191 0.6895 0.0
C347 C 0.57833 0.78336 0.72804 0.0
C348 C 0.51749 0.75207 0.80083 0.0
H349 H 0.76883 0.76158 0.91021 0.0
H350 H 0.72498 0.7698 0.86038 0.0
H351 H 0.51435 0.7289 0.84382 0.0
H352 H 0.38753 0.77586 0.70612 0.0
H353 H 0.42058 0.77366 0.75859 0.0
H354 H 0.62702 0.82266 0.78155 0.0
C355 C 0.68903 0.76771 0.8786 0.0
C356 C 0.53873 0.7498 0.83054 0.0
C357 C 0.71415 0.76274 0.90723 0.0
C358 C 0.4411 0.77759 0.71182 0.0
C359 C 0.46007 0.77632 0.74192 0.0
C360 C 0.60221 0.80186 0.79478 0.0
C361 C 0.61857 0.76891 0.87337 0.0
C362 C 0.59262 0.77313 0.84254 0.0
C363 C 0.52894 0.77924 0.75044 0.0
C364 C 0.54947 0.77785 0.78246 0.0
H365 H 0.56309 0.75774 0.94456 0.0
H366 H 0.51913 0.76642 0.89431 0.0
H367 H 0.66447 0.81833 0.83313 0.0
H368 H 0.59879 0.78748 0.68131 0.0
H369 H 0.63195 0.78494 0.73365 0.0
C370 C 0.70355 0.21274 0.62336 0.0
C371 C 0.65956 0.21558 0.59881 0.0
C372 C 0.67778 0.20721 0.65182 0.0
C373 C 0.52422 0.2211 0.69891 0.0
H374 H 0.6182 0.1515 0.74871 0.0
C375 C 0.4276 0.1912 0.81765 0.0
C376 C 0.47722 0.18949 0.8402 0.0
C377 C 0.44666 0.19255 0.78752 0.0
C378 C 0.59171 0.17134 0.73523 0.0
H379 H 0.55364 0.21465 0.58508 0.0
H380 H 0.50849 0.20487 0.63502 0.0
H381 H 0.65632 0.1565 0.69724 0.0
H382 H 0.58589 0.18863 0.84868 0.0
H383 H 0.61909 0.19106 0.79629 0.0
H384 H 0.46016 0.23633 0.7371 0.0
C385 C 0.56307 0.20717 0.6321 0.0
C386 C 0.61349 0.17414 0.70568 0.0
C387 C 0.58896 0.21254 0.60346 0.0
C388 C 0.54632 0.18924 0.83187 0.0
C389 C 0.56536 0.19061 0.80178 0.0
C390 C 0.50244 0.21833 0.72854 0.0
C391 C 0.60727 0.20443 0.65661 0.0
C392 C 0.58063 0.19944 0.68728 0.0
C393 C 0.5158 0.19221 0.7792 0.0
C394 C 0.53651 0.19378 0.74719 0.0
H395 H 0.75822 0.21503 0.62075 0.0
H396 H 0.71324 0.20585 0.67025 0.0
H397 H 0.49823 0.24116 0.68544 0.0
H398 H 0.37389 0.19088 0.8232 0.0
H399 H 0.40715 0.19326 0.77069 0.0
C400 C 0.83096 0.7441 0.12461 0.0
C401 C 0.83918 0.71553 0.10028 0.0
C402 C 0.85762 0.73843 0.15281 0.0
C403 C 0.90696 0.66348 0.20129 0.0
H404 H 0.00261 0.74879 0.24572 0.0
C405 C 0.01644 0.65152 0.32099 0.0
C406 C 0.00952 0.68476 0.34155 0.0
C407 C 0.00066 0.65332 0.29056 0.0
C408 C 0.97541 0.72479 0.23378 0.0
H409 H 0.88149 0.65833 0.08665 0.0
H410 H 0.92751 0.64821 0.13639 0.0
H411 H 0.96639 0.75536 0.19428 0.0
H412 H 0.97858 0.74554 0.34651 0.0
H413 H 0.9501 0.74858 0.2938 0.0
H414 H 0.91402 0.63333 0.24112 0.0
C415 C 0.90057 0.67508 0.13336 0.0
C416 C 0.95497 0.72853 0.20425 0.0
C417 C 0.87454 0.68097 0.1049 0.0
C418 C 0.98564 0.71962 0.33113 0.0
C419 C 0.96954 0.72137 0.30085 0.0
C420 C 0.92693 0.65983 0.231 0.0
C421 C 0.8926 0.70389 0.15754 0.0
C422 C 0.91957 0.69819 0.18786 0.0
C423 C 0.97729 0.68836 0.28009 0.0
C424 C 0.96037 0.69075 0.24779 0.0
H425 H 0.80397 0.77106 0.12192 0.0
H426 H 0.84991 0.76092 0.17112 0.0
H427 H 0.87933 0.63974 0.18922 0.0
H428 H 0.03533 0.62433 0.32831 0.0
H429 H 0.00787 0.62744 0.27517 0.0
C430 C 0.8255 0.22826 0.40675 0.0
C431 C 0.83393 0.25711 0.43087 0.0
C432 C 0.8506 0.23387 0.37821 0.0
C433 C 0.89765 0.30967 0.32943 0.0
H434 H 0.98629 0.22367 0.28234 0.0
C435 C 0.00622 0.32381 0.20981 0.0
C436 C -0.00331 0.29172 0.18838 0.0
C437 C 0.99016 0.32102 0.24011 0.0
C438 C 0.96101 0.24787 0.29504 0.0
H439 H 0.87549 0.31461 0.44377 0.0
H440 H 0.9193 0.32447 0.39356 0.0
H441 H 0.95291 0.21638 0.33411 0.0
H442 H 0.96103 0.23191 0.18187 0.0
H443 H 0.93234 0.22712 0.23449 0.0
H444 H 0.90444 0.3409 0.29013 0.0
C445 C 0.89308 0.29751 0.39696 0.0
C446 C 0.94211 0.24372 0.32476 0.0
C447 C 0.86833 0.29176 0.42572 0.0
C448 C 0.97001 0.25695 0.19788 0.0
C449 C 0.95374 0.2542 0.22809 0.0
C450 C 0.91629 0.31379 0.29959 0.0
C451 C 0.8845 0.26855 0.37292 0.0
C452 C 0.90938 0.27435 0.34217 0.0
C453 C 0.96402 0.28609 0.24965 0.0
C454 C 0.94735 0.28271 0.28189 0.0
H455 H 0.79908 0.20124 0.40979 0.0
H456 H 0.84225 0.21124 0.36009 0.0
H457 H 0.87194 0.33366 0.3422 0.0
H458 H 0.02751 0.35086 0.20328 0.0
H459 H -0.00053 0.346 0.25613 0.0
C460 C 0.00666 0.25501 0.69898 0.0
C461 C 0.98117 0.28975 0.68894 0.0
C462 C 0.02305 0.25297 0.72924 0.0
C463 C 0.0634 0.31418 0.79957 0.0
H464 H 0.0255 0.21829 0.83603 0.0
C465 C 0.11403 0.29507 0.92593 0.0
C466 C 0.14803 0.26037 0.93136 0.0
C467 C 0.08867 0.30029 0.89722 0.0
C468 C 0.03665 0.24521 0.82614 0.0
H469 H 0.95248 0.34957 0.70291 0.0
H470 H 0.98065 0.34595 0.75586 0.0
H471 H 0.99091 0.22446 0.78431 0.0
H472 H 0.1815 0.20387 0.91081 0.0
H473 H 0.13719 0.21293 0.86119 0.0
H474 H 0.10928 0.33477 0.8416 0.0
C475 C 0.98897 0.32043 0.74022 0.0
C476 C 0.01706 0.24873 0.79644 0.0
C477 C 0.97281 0.32251 0.70987 0.0
C478 C 0.15545 0.23095 0.90756 0.0
C479 C 0.12968 0.23602 0.87907 0.0
C480 C 0.0827 0.31072 0.8294 0.0
C481 C 0.01407 0.28556 0.75031 0.0
C482 C 0.03121 0.28298 0.78258 0.0
C483 C 0.09617 0.27074 0.87351 0.0
C484 C 0.07055 0.27593 0.84282 0.0
H485 H 0.01475 0.22945 0.68335 0.0
H486 H 0.04364 0.22589 0.73603 0.0
H487 H 0.07567 0.34086 0.78956 0.0
H488 H 0.10765 0.31836 0.94373 0.0
H489 H 0.06277 0.3273 0.89362 0.0
C490 C 0.10623 0.68372 0.60416 0.0
C491 C 0.16222 0.70865 0.60132 0.0
C492 C 0.08342 0.67532 0.63267 0.0
C493 C 0.1413 0.67332 0.71087 0.0
H494 H 0.95072 0.68548 0.73269 0.0
C495 C 0.05471 0.6868 0.83427 0.0
C496 C 0.99259 0.66998 0.84194 0.0
C497 C 0.07378 0.68767 0.80419 0.0
C498 C 0.00395 0.68127 0.72686 0.0
H499 H 0.23839 0.74396 0.62629 0.0
H500 H 0.19927 0.72894 0.67558 0.0
H501 H 0.98677 0.69318 0.6811 0.0
H502 H 0.90203 0.64048 0.82393 0.0
H503 H 0.93572 0.64156 0.77125 0.0
H504 H 0.15894 0.6614 0.75637 0.0
C505 C 0.17296 0.71589 0.65586 0.0
C506 C 0.02454 0.68575 0.6973 0.0
C507 C 0.19509 0.72468 0.62754 0.0
C508 C 0.94998 0.65394 0.81874 0.0
C509 C 0.96926 0.65463 0.78855 0.0
C510 C 0.12073 0.66852 0.74027 0.0
C511 C 0.11691 0.69117 0.65879 0.0
C512 C 0.09365 0.68262 0.68919 0.0
C513 C 0.03145 0.67156 0.7809 0.0
C514 C 0.05201 0.67326 0.74886 0.0
H515 H 0.07974 0.67095 0.58441 0.0
H516 H 0.04018 0.65607 0.63428 0.0
H517 H 0.19477 0.67006 0.70513 0.0
H518 H 0.08808 0.70014 0.85154 0.0
H519 H 0.12125 0.70179 0.79922 0.0
loop_
_geom_bond_atom_site_label_1
_geom_bond_atom_site_label_2
_geom_bond_distance
_geom_bond_site_symmetry_2
_ccdc_geom_bond_type
Eu0 C9 2.828 . S
Eu0 O11 2.392 1_554 S
Eu0 O13 2.418 . S
Eu0 O18 2.373 . S
Eu0 O21 2.488 . S
Eu0 O22 2.471 . S
Eu0 O23 2.349 . S
Eu1 O10 2.373 . S
Eu1 O14 2.488 . S
Eu1 O15 2.471 . S
Eu1 O16 2.349 . S
Eu1 O19 2.392 1_556 S
Eu1 O20 2.418 . S
Eu1 C30 2.828 . S
C2 O20 1.244 . S
C2 O23 1.265 1_556 S
C3 C4 1.379 . S
C3 C7 1.373 . S
C3 C9 1.505 . S
C4 C3 1.379 . S
C4 C6 1.369 . S
C4 H32 0.930 . S
C5 C7 1.383 . S
C5 C8 1.382 . S
C5 H33 0.930 . S
C6 C4 1.369 . S
C6 C8 1.392 . S
C6 H34 0.930 . S
C7 C3 1.373 . S
C7 C5 1.383 . S
C7 H35 0.931 . S
C8 C5 1.382 . S
C8 C6 1.392 . S
C9 Eu0 2.828 . S
C9 C3 1.505 . S
C9 O21 1.249 . S
C9 O22 1.244 . S
O10 Eu1 2.373 . S
O10 C12 1.258 . S
O11 Eu0 2.392 1_556 S
O11 C12 1.242 . S
C12 O10 1.258 . S
C12 O11 1.242 . S
O13 Eu0 2.418 . S
O13 C17 1.244 . S
O14 Eu1 2.488 . S
O14 C30 1.249 . S
O15 Eu1 2.471 . S
O15 C30 1.244 . S
O16 Eu1 2.349 . S
O16 C17 1.265 1_556 S
C17 O13 1.244 . S
C17 O16 1.265 1_554 S
O18 Eu0 2.373 . S
O18 C31 1.258 . S
O19 Eu1 2.392 1_554 S
O19 C31 1.242 . S
O20 Eu1 2.418 . S
O20 C2 1.244 . S
O21 Eu0 2.488 . S
O21 C9 1.249 . S
O22 Eu0 2.471 . S
O22 C9 1.244 . S
O23 Eu0 2.349 . S
O23 C2 1.265 1_554 S
C24 C25 1.379 . S
C24 C28 1.373 . S
C24 C30 1.505 . S
C25 C24 1.379 . S
C25 C27 1.369 . S
C25 H36 0.930 . S
C26 C28 1.383 . S
C26 C29 1.382 . S
C26 H37 0.930 . S
C27 C25 1.369 . S
C27 C29 1.392 . S
C27 H38 0.930 . S
C28 C24 1.373 . S
C28 C26 1.383 . S
C28 H39 0.931 . S
C29 C26 1.382 . S
C29 C27 1.392 . S
C30 Eu1 2.828 . S
C30 O14 1.249 . S
C30 O15 1.244 . S
C30 C24 1.505 . S
C31 O18 1.258 . S
C31 O19 1.242 . S
H32 C4 0.930 . S
H33 C5 0.930 . S
H34 C6 0.930 . S
H35 C7 0.931 . S
H36 C25 0.930 . S
H37 C26 0.930 . S
H38 C27 0.930 . S
H39 C28 0.931 . S
Eu40 C49 2.828 . S
Eu40 O51 2.392 1_554 S
Eu40 O53 2.418 . S
Eu40 O58 2.373 . S
Eu40 O61 2.488 . S
Eu40 O62 2.471 . S
Eu40 O63 2.349 . S
Eu41 O50 2.373 . S
Eu41 O54 2.488 . S
Eu41 O55 2.471 . S
Eu41 O56 2.349 . S
Eu41 O59 2.392 1_556 S
Eu41 O60 2.418 . S
Eu41 C70 2.828 . S
C42 O60 1.244 . S
C42 O63 1.265 1_556 S
C43 C44 1.379 . S
C43 C47 1.373 . S
C43 C49 1.505 . S
C44 C43 1.379 . S
C44 C46 1.369 . S
C44 H72 0.930 . S
C45 C47 1.383 . S
C45 C48 1.382 . S
C45 H73 0.930 . S
C46 C44 1.369 . S
C46 C48 1.392 . S
C46 H74 0.930 . S
C47 C43 1.373 . S
C47 C45 1.383 . S
C47 H75 0.931 . S
C48 C45 1.382 . S
C48 C46 1.392 . S
C49 Eu40 2.828 . S
C49 C43 1.505 . S
C49 O61 1.249 . S
C49 O62 1.244 . S
O50 Eu41 2.373 . S
O50 C52 1.258 . S
O51 Eu40 2.392 1_556 S
O51 C52 1.242 . S
C52 O50 1.258 . S
C52 O51 1.242 . S
O53 Eu40 2.418 . S
O53 C57 1.244 . S
O54 Eu41 2.488 . S
O54 C70 1.249 . S
O55 Eu41 2.471 . S
O55 C70 1.244 . S
O56 Eu41 2.349 . S
O56 C57 1.265 1_556 S
C57 O53 1.244 . S
C57 O56 1.265 1_554 S
O58 Eu40 2.373 . S
O58 C71 1.258 . S
O59 Eu41 2.392 1_554 S
O59 C71 1.242 . S
O60 Eu41 2.418 . S
O60 C42 1.244 . S
O61 Eu40 2.488 . S
O61 C49 1.249 . S
O62 Eu40 2.471 . S
O62 C49 1.244 . S
O63 Eu40 2.349 . S
O63 C42 1.265 1_554 S
C64 C65 1.379 . S
C64 C68 1.373 . S
C64 C70 1.505 . S
C65 C64 1.379 . S
C65 C67 1.369 . S
C65 H76 0.930 . S
C66 C68 1.383 . S
C66 C69 1.382 . S
C66 H77 0.930 . S
C67 C65 1.369 . S
C67 C69 1.392 . S
C67 H78 0.930 . S
C68 C64 1.373 . S
C68 C66 1.383 . S
C68 H79 0.931 . S
C69 C66 1.382 . S
C69 C67 1.392 . S
C70 Eu41 2.828 . S
C70 O54 1.249 . S
C70 O55 1.244 . S
C70 C64 1.505 . S
C71 O58 1.258 . S
C71 O59 1.242 . S
H72 C44 0.930 . S
H73 C45 0.930 . S
H74 C46 0.930 . S
H75 C47 0.931 . S
H76 C65 0.930 . S
H77 C66 0.930 . S
H78 C67 0.930 . S
H79 C68 0.931 . S
Eu80 C89 2.828 . S
Eu80 O91 2.392 . S
Eu80 O93 2.418 . S
Eu80 O98 2.373 . S
Eu80 O101 2.488 . S
Eu80 O102 2.471 . S
Eu80 O103 2.349 . S
Eu81 O90 2.373 . S
Eu81 O94 2.488 . S
Eu81 O95 2.471 . S
Eu81 O96 2.349 . S
Eu81 O99 2.392 . S
Eu81 O100 2.418 . S
Eu81 C110 2.828 . S
C82 O100 1.244 . S
C82 O103 1.265 . S
C83 C84 1.379 . S
C83 C87 1.373 . S
C83 C89 1.505 . S
C84 C83 1.379 . S
C84 C86 1.369 . S
C84 H112 0.930 . S
C85 C87 1.383 . S
C85 C88 1.382 . S
C85 H113 0.930 . S
C86 C84 1.369 . S
C86 C88 1.392 . S
C86 H114 0.930 . S
C87 C83 1.373 . S
C87 C85 1.383 . S
C87 H115 0.931 . S
C88 C85 1.382 . S
C88 C86 1.392 . S
C89 Eu80 2.828 . S
C89 C83 1.505 . S
C89 O101 1.249 . S
C89 O102 1.244 . S
O90 Eu81 2.373 . S
O90 C92 1.258 . S
O91 Eu80 2.392 . S
O91 C92 1.242 . S
C92 O90 1.258 . S
C92 O91 1.242 . S
O93 Eu80 2.418 . S
O93 C97 1.244 . S
O94 Eu81 2.488 . S
O94 C110 1.249 . S
O95 Eu81 2.471 . S
O95 C110 1.244 . S
O96 Eu81 2.349 . S
O96 C97 1.265 . S
C97 O93 1.244 . S
C97 O96 1.265 . S
O98 Eu80 2.373 . S
O98 C111 1.258 . S
O99 Eu81 2.392 . S
O99 C111 1.242 . S
O100 Eu81 2.418 . S
O100 C82 1.244 . S
O101 Eu80 2.488 . S
O101 C89 1.249 . S
O102 Eu80 2.471 . S
O102 C89 1.244 . S
O103 Eu80 2.349 . S
O103 C82 1.265 . S
C104 C105 1.379 . S
C104 C108 1.373 . S
C104 C110 1.505 . S
C105 C104 1.379 . S
C105 C107 1.369 . S
C105 H116 0.930 . S
C106 C108 1.383 . S
C106 C109 1.382 . S
C106 H117 0.930 . S
C107 C105 1.369 . S
C107 C109 1.392 . S
C107 H118 0.930 . S
C108 C104 1.373 . S
C108 C106 1.383 . S
C108 H119 0.931 . S
C109 C106 1.382 . S
C109 C107 1.392 . S
C110 Eu81 2.828 . S
C110 O94 1.249 . S
C110 O95 1.244 . S
C110 C104 1.505 . S
C111 O98 1.258 . S
C111 O99 1.242 . S
H112 C84 0.930 . S
H113 C85 0.930 . S
H114 C86 0.930 . S
H115 C87 0.931 . S
H116 C105 0.930 . S
H117 C106 0.930 . S
H118 C107 0.930 . S
H119 C108 0.931 . S
Eu120 C129 2.828 . S
Eu120 O131 2.392 . S
Eu120 O133 2.418 . S
Eu120 O138 2.373 . S
Eu120 O141 2.488 . S
Eu120 O142 2.471 . S
Eu120 O143 2.349 . S
Eu121 O130 2.373 . S
Eu121 O134 2.488 . S
Eu121 O135 2.471 . S
Eu121 O136 2.349 . S
Eu121 O139 2.392 . S
Eu121 O140 2.418 . S
Eu121 C150 2.828 . S
C122 O140 1.244 . S
C122 O143 1.265 . S
C123 C124 1.379 . S
C123 C127 1.373 . S
C123 C129 1.505 . S
C124 C123 1.379 . S
C124 C126 1.369 . S
C124 H152 0.930 . S
C125 C127 1.383 . S
C125 C128 1.382 . S
C125 H153 0.930 . S
C126 C124 1.369 . S
C126 C128 1.392 . S
C126 H154 0.930 . S
C127 C123 1.373 . S
C127 C125 1.383 . S
C127 H155 0.931 . S
C128 C125 1.382 . S
C128 C126 1.392 . S
C129 Eu120 2.828 . S
C129 C123 1.505 . S
C129 O141 1.249 . S
C129 O142 1.244 . S
O130 Eu121 2.373 . S
O130 C132 1.258 . S
O131 Eu120 2.392 . S
O131 C132 1.242 . S
C132 O130 1.258 . S
C132 O131 1.242 . S
O133 Eu120 2.418 . S
O133 C137 1.244 . S
O134 Eu121 2.488 . S
O134 C150 1.249 . S
O135 Eu121 2.471 . S
O135 C150 1.244 . S
O136 Eu121 2.349 . S
O136 C137 1.265 . S
C137 O133 1.244 . S
C137 O136 1.265 . S
O138 Eu120 2.373 . S
O138 C151 1.258 . S
O139 Eu121 2.392 . S
O139 C151 1.242 . S
O140 Eu121 2.418 . S
O140 C122 1.244 . S
O141 Eu120 2.488 . S
O141 C129 1.249 . S
O142 Eu120 2.471 . S
O142 C129 1.244 . S
O143 Eu120 2.349 . S
O143 C122 1.265 . S
C144 C145 1.379 . S
C144 C148 1.373 . S
C144 C150 1.505 . S
C145 C144 1.379 . S
C145 C147 1.369 . S
C145 H156 0.930 . S
C146 C148 1.383 . S
C146 C149 1.382 . S
C146 H157 0.930 . S
C147 C145 1.369 . S
C147 C149 1.392 . S
C147 H158 0.930 . S
C148 C144 1.373 . S
C148 C146 1.383 . S
C148 H159 0.931 . S
C149 C146 1.382 . S
C149 C147 1.392 . S
C150 Eu121 2.828 . S
C150 O134 1.249 . S
C150 O135 1.244 . S
C150 C144 1.505 . S
C151 O138 1.258 . S
C151 O139 1.242 . S
H152 C124 0.930 . S
H153 C125 0.930 . S
H154 C126 0.930 . S
H155 C127 0.931 . S
H156 C145 0.930 . S
H157 C146 0.930 . S
H158 C147 0.930 . S
H159 C148 0.931 . S
C160 C161 1.349 . S
C160 C162 1.327 . S
C160 H185 0.950 . S
C161 C160 1.349 . S
C161 C177 1.349 1_554 S
C162 C160 1.327 . S
C162 C181 1.429 . S
C162 H186 0.950 . S
C163 C180 1.574 . S
C163 C182 1.368 1_556 S
C163 H187 0.949 . S
H164 C168 0.949 . S
C165 C166 1.349 1_556 S
C165 C167 1.327 . S
C165 H188 0.950 . S
C166 C165 1.349 1_554 S
C166 C178 1.349 . S
C167 C165 1.327 . S
C167 C183 1.429 1_556 S
C167 H189 0.950 . S
C168 H164 0.949 . S
C168 C176 1.574 . S
C168 C184 1.368 . S
H169 C177 0.950 . S
H170 C175 0.950 . S
H171 C176 0.949 . S
H172 C178 0.950 . S
H173 C179 0.950 . S
H174 C180 0.949 . S
C175 H170 0.950 . S
C175 C177 1.327 . S
C175 C181 1.429 1_556 S
C176 C168 1.574 . S
C176 H171 0.949 . S
C176 C182 1.368 . S
C177 C161 1.349 1_556 S
C177 H169 0.950 . S
C177 C175 1.327 . S
C178 C166 1.349 . S
C178 H172 0.950 . S
C178 C179 1.327 . S
C179 H173 0.950 . S
C179 C178 1.327 . S
C179 C183 1.429 . S
C180 C163 1.574 . S
C180 H174 0.949 . S
C180 C184 1.368 1_556 S
C181 C162 1.429 . S
C181 C175 1.429 1_554 S
C181 C182 1.523 . S
C182 C163 1.368 1_554 S
C182 C176 1.368 . S
C182 C181 1.523 . S
C183 C167 1.429 1_554 S
C183 C179 1.429 . S
C183 C184 1.523 . S
C184 C168 1.368 . S
C184 C180 1.368 1_554 S
C184 C183 1.523 . S
H185 C160 0.950 . S
H186 C162 0.950 . S
H187 C163 0.949 . S
H188 C165 0.950 . S
H189 C167 0.950 . S
C190 C191 1.349 . S
C190 C192 1.327 . S
C190 H215 0.950 . S
C191 C190 1.349 . S
C191 C207 1.349 . S
C192 C190 1.327 . S
C192 C211 1.429 . S
C192 H216 0.950 . S
C193 C210 1.574 . S
C193 C212 1.368 . S
C193 H217 0.949 . S
H194 C198 0.949 . S
C195 C196 1.349 . S
C195 C197 1.327 . S
C195 H218 0.950 . S
C196 C195 1.349 . S
C196 C208 1.349 . S
C197 C195 1.327 . S
C197 C213 1.429 . S
C197 H219 0.950 . S
C198 H194 0.949 . S
C198 C206 1.574 . S
C198 C214 1.368 . S
H199 C207 0.950 . S
H200 C205 0.950 . S
H201 C206 0.949 . S
H202 C208 0.950 . S
H203 C209 0.950 . S
H204 C210 0.949 . S
C205 H200 0.950 . S
C205 C207 1.327 . S
C205 C211 1.429 . S
C206 C198 1.574 . S
C206 H201 0.949 . S
C206 C212 1.368 . S
C207 C191 1.349 . S
C207 H199 0.950 . S
C207 C205 1.327 . S
C208 C196 1.349 . S
C208 H202 0.950 . S
C208 C209 1.327 . S
C209 H203 0.950 . S
C209 C208 1.327 . S
C209 C213 1.429 . S
C210 C193 1.574 . S
C210 H204 0.949 . S
C210 C214 1.368 . S
C211 C192 1.429 . S
C211 C205 1.429 . S
C211 C212 1.523 . S
C212 C193 1.368 . S
C212 C206 1.368 . S
C212 C211 1.523 . S
C213 C197 1.429 . S
C213 C209 1.429 . S
C213 C214 1.523 . S
C214 C198 1.368 . S
C214 C210 1.368 . S
C214 C213 1.523 . S
H215 C190 0.950 . S
H216 C192 0.950 . S
H217 C193 0.949 . S
H218 C195 0.950 . S
H219 C197 0.950 . S
C220 C221 1.349 1_556 S
C220 C222 1.327 . S
C220 H245 0.950 . S
C221 C220 1.349 1_554 S
C221 C237 1.349 . S
C222 C220 1.327 . S
C222 C241 1.429 1_556 S
C222 H246 0.950 . S
C223 C240 1.574 1_545 S
C223 C242 1.368 1_655 S
C223 H247 0.949 . S
H224 C228 0.949 . S
C225 C226 1.349 . S
C225 C227 1.327 . S
C225 H248 0.950 . S
C226 C225 1.349 . S
C226 C238 1.349 1_554 S
C227 C225 1.327 . S
C227 C243 1.429 . S
C227 H249 0.950 . S
C228 H224 0.949 . S
C228 C236 1.574 1_565 S
C228 C244 1.368 1_456 S
H229 C237 0.950 . S
H230 C235 0.950 . S
H231 C236 0.949 . S
H232 C238 0.950 . S
H233 C239 0.950 . S
H234 C240 0.949 . S
C235 H230 0.950 . S
C235 C237 1.327 . S
C235 C241 1.429 . S
C236 C228 1.574 1_545 S
C236 H231 0.949 . S
C236 C242 1.368 1_556 S
C237 C221 1.349 . S
C237 H229 0.950 . S
C237 C235 1.327 . S
C238 C226 1.349 1_556 S
C238 H232 0.950 . S
C238 C239 1.327 . S
C239 H233 0.950 . S
C239 C238 1.327 . S
C239 C243 1.429 1_556 S
C240 C223 1.574 1_565 S
C240 H234 0.949 . S
C240 C244 1.368 . S
C241 C222 1.429 1_554 S
C241 C235 1.429 . S
C241 C242 1.523 . S
C242 C223 1.368 1_455 S
C242 C236 1.368 1_554 S
C242 C241 1.523 . S
C243 C227 1.429 . S
C243 C239 1.429 1_554 S
C243 C244 1.523 . S
C244 C228 1.368 1_654 S
C244 C240 1.368 . S
C244 C243 1.523 . S
H245 C220 0.950 . S
H246 C222 0.950 . S
H247 C223 0.949 . S
H248 C225 0.950 . S
H249 C227 0.950 . S
C250 C251 1.349 . S
C250 C252 1.327 . S
C250 H275 0.950 . S
C251 C250 1.349 . S
C251 C267 1.349 . S
C252 C250 1.327 . S
C252 C271 1.429 . S
C252 H276 0.950 . S
C253 C270 1.574 1_545 S
C253 C272 1.368 1_455 S
C253 H277 0.949 . S
H254 C258 0.949 . S
C255 C256 1.349 . S
C255 C257 1.327 . S
C255 H278 0.950 . S
C256 C255 1.349 . S
C256 C268 1.349 . S
C257 C255 1.327 . S
C257 C273 1.429 . S
C257 H279 0.950 . S
C258 H254 0.949 . S
C258 C266 1.574 1_565 S
C258 C274 1.368 1_655 S
H259 C267 0.950 . S
H260 C265 0.950 . S
H261 C266 0.949 . S
H262 C268 0.950 . S
H263 C269 0.950 . S
H264 C270 0.949 . S
C265 H260 0.950 . S
C265 C267 1.327 . S
C265 C271 1.429 . S
C266 C258 1.574 1_545 S
C266 H261 0.949 . S
C266 C272 1.368 . S
C267 C251 1.349 . S
C267 H259 0.950 . S
C267 C265 1.327 . S
C268 C256 1.349 . S
C268 H262 0.950 . S
C268 C269 1.327 . S
C269 H263 0.950 . S
C269 C268 1.327 . S
C269 C273 1.429 . S
C270 C253 1.574 1_565 S
C270 H264 0.949 . S
C270 C274 1.368 . S
C271 C252 1.429 . S
C271 C265 1.429 . S
C271 C272 1.523 . S
C272 C253 1.368 1_655 S
C272 C266 1.368 . S
C272 C271 1.523 . S
C273 C257 1.429 . S
C273 C269 1.429 . S
C273 C274 1.523 . S
C274 C258 1.368 1_455 S
C274 C270 1.368 . S
C274 C273 1.523 . S
H275 C250 0.950 . S
H276 C252 0.950 . S
H277 C253 0.949 . S
H278 C255 0.950 . S
H279 C257 0.950 . S
C280 C281 1.349 . S
C280 C282 1.327 . S
C280 H305 0.950 . S
C281 C280 1.349 . S
C281 C297 1.349 . S
C282 C280 1.327 . S
C282 C301 1.429 . S
C282 H306 0.950 . S
C283 C300 1.574 . S
C283 C302 1.368 . S
C283 H307 0.949 . S
H284 C288 0.949 . S
C285 C286 1.349 . S
C285 C287 1.327 . S
C285 H308 0.950 . S
C286 C285 1.349 . S
C286 C298 1.349 . S
C287 C285 1.327 . S
C287 C303 1.429 . S
C287 H309 0.950 . S
C288 H284 0.949 . S
C288 C296 1.574 . S
C288 C304 1.368 . S
H289 C297 0.950 . S
H290 C295 0.950 . S
H291 C296 0.949 . S
H292 C298 0.950 . S
H293 C299 0.950 . S
H294 C300 0.949 . S
C295 H290 0.950 . S
C295 C297 1.327 . S
C295 C301 1.429 . S
C296 C288 1.574 . S
C296 H291 0.949 . S
C296 C302 1.368 . S
C297 C281 1.349 . S
C297 H289 0.950 . S
C297 C295 1.327 . S
C298 C286 1.349 . S
C298 H292 0.950 . S
C298 C299 1.327 . S
C299 H293 0.950 . S
C299 C298 1.327 . S
C299 C303 1.429 . S
C300 C283 1.574 . S
C300 H294 0.949 . S
C300 C304 1.368 . S
C301 C282 1.429 . S
C301 C295 1.429 . S
C301 C302 1.523 . S
C302 C283 1.368 . S
C302 C296 1.368 . S
C302 C301 1.523 . S
C303 C287 1.429 . S
C303 C299 1.429 . S
C303 C304 1.523 . S
C304 C288 1.368 . S
C304 C300 1.368 . S
C304 C303 1.523 . S
H305 C280 0.950 . S
H306 C282 0.950 . S
H307 C283 0.949 . S
H308 C285 0.950 . S
H309 C287 0.950 . S
C310 C311 1.349 . S
C310 C312 1.327 . S
C310 H335 0.950 . S
C311 C310 1.349 . S
C311 C327 1.349 . S
C312 C310 1.327 . S
C312 C331 1.429 . S
C312 H336 0.950 . S
C313 C330 1.574 . S
C313 C332 1.368 . S
C313 H337 0.949 . S
H314 C318 0.949 . S
C315 C316 1.349 . S
C315 C317 1.327 . S
C315 H338 0.950 . S
C316 C315 1.349 . S
C316 C328 1.349 . S
C317 C315 1.327 . S
C317 C333 1.429 . S
C317 H339 0.950 . S
C318 H314 0.949 . S
C318 C326 1.574 . S
C318 C334 1.368 . S
H319 C327 0.950 . S
H320 C325 0.950 . S
H321 C326 0.949 . S
H322 C328 0.950 . S
H323 C329 0.950 . S
H324 C330 0.949 . S
C325 H320 0.950 . S
C325 C327 1.327 . S
C325 C331 1.429 . S
C326 C318 1.574 . S
C326 H321 0.949 . S
C326 C332 1.368 . S
C327 C311 1.349 . S
C327 H319 0.950 . S
C327 C325 1.327 . S
C328 C316 1.349 . S
C328 H322 0.950 . S
C328 C329 1.327 . S
C329 H323 0.950 . S
C329 C328 1.327 . S
C329 C333 1.429 . S
C330 C313 1.574 . S
C330 H324 0.949 . S
C330 C334 1.368 . S
C331 C312 1.429 . S
C331 C325 1.429 . S
C331 C332 1.523 . S
C332 C313 1.368 . S
C332 C326 1.368 . S
C332 C331 1.523 . S
C333 C317 1.429 . S
C333 C329 1.429 . S
C333 C334 1.523 . S
C334 C318 1.368 . S
C334 C330 1.368 . S
C334 C333 1.523 . S
H335 C310 0.950 . S
H336 C312 0.950 . S
H337 C313 0.949 . S
H338 C315 0.950 . S
H339 C317 0.950 . S
C340 C341 1.349 . S
C340 C342 1.327 . S
C340 H365 0.950 . S
C341 C340 1.349 . S
C341 C357 1.349 . S
C342 C340 1.327 . S
C342 C361 1.429 . S
C342 H366 0.950 . S
C343 C360 1.574 . S
C343 C362 1.368 . S
C343 H367 0.949 . S
H344 C348 0.949 . S
C345 C346 1.349 . S
C345 C347 1.327 . S
C345 H368 0.950 . S
C346 C345 1.349 . S
C346 C358 1.349 . S
C347 C345 1.327 . S
C347 C363 1.429 . S
C347 H369 0.950 . S
C348 H344 0.949 . S
C348 C356 1.574 . S
C348 C364 1.368 . S
H349 C357 0.950 . S
H350 C355 0.950 . S
H351 C356 0.949 . S
H352 C358 0.950 . S
H353 C359 0.950 . S
H354 C360 0.949 . S
C355 H350 0.950 . S
C355 C357 1.327 . S
C355 C361 1.429 . S
C356 C348 1.574 . S
C356 H351 0.949 . S
C356 C362 1.368 . S
C357 C341 1.349 . S
C357 H349 0.950 . S
C357 C355 1.327 . S
C358 C346 1.349 . S
C358 H352 0.950 . S
C358 C359 1.327 . S
C359 H353 0.950 . S
C359 C358 1.327 . S
C359 C363 1.429 . S
C360 C343 1.574 . S
C360 H354 0.949 . S
C360 C364 1.368 . S
C361 C342 1.429 . S
C361 C355 1.429 . S
C361 C362 1.523 . S
C362 C343 1.368 . S
C362 C356 1.368 . S
C362 C361 1.523 . S
C363 C347 1.429 . S
C363 C359 1.429 . S
C363 C364 1.523 . S
C364 C348 1.368 . S
C364 C360 1.368 . S
C364 C363 1.523 . S
H365 C340 0.950 . S
H366 C342 0.950 . S
H367 C343 0.949 . S
H368 C345 0.950 . S
H369 C347 0.950 . S
C370 C371 1.349 . S
C370 C372 1.327 . S
C370 H395 0.950 . S
C371 C370 1.349 . S
C371 C387 1.349 . S
C372 C370 1.327 . S
C372 C391 1.429 . S
C372 H396 0.950 . S
C373 C390 1.574 . S
C373 C392 1.368 . S
C373 H397 0.949 . S
H374 C378 0.949 . S
C375 C376 1.349 . S
C375 C377 1.327 . S
C375 H398 0.950 . S
C376 C375 1.349 . S
C376 C388 1.349 . S
C377 C375 1.327 . S
C377 C393 1.429 . S
C377 H399 0.950 . S
C378 H374 0.949 . S
C378 C386 1.574 . S
C378 C394 1.368 . S
H379 C387 0.950 . S
H380 C385 0.950 . S
H381 C386 0.949 . S
H382 C388 0.950 . S
H383 C389 0.950 . S
H384 C390 0.949 . S
C385 H380 0.950 . S
C385 C387 1.327 . S
C385 C391 1.429 . S
C386 C378 1.574 . S
C386 H381 0.949 . S
C386 C392 1.368 . S
C387 C371 1.349 . S
C387 H379 0.950 . S
C387 C385 1.327 . S
C388 C376 1.349 . S
C388 H382 0.950 . S
C388 C389 1.327 . S
C389 H383 0.950 . S
C389 C388 1.327 . S
C389 C393 1.429 . S
C390 C373 1.574 . S
C390 H384 0.949 . S
C390 C394 1.368 . S
C391 C372 1.429 . S
C391 C385 1.429 . S
C391 C392 1.523 . S
C392 C373 1.368 . S
C392 C386 1.368 . S
C392 C391 1.523 . S
C393 C377 1.429 . S
C393 C389 1.429 . S
C393 C394 1.523 . S
C394 C378 1.368 . S
C394 C390 1.368 . S
C394 C393 1.523 . S
H395 C370 0.950 . S
H396 C372 0.950 . S
H397 C373 0.949 . S
H398 C375 0.950 . S
H399 C377 0.950 . S
C400 C401 1.349 . S
C400 C402 1.327 . S
C400 H425 0.950 . S
C401 C400 1.349 . S
C401 C417 1.349 . S
C402 C400 1.327 . S
C402 C421 1.429 . S
C402 H426 0.950 . S
C403 C420 1.574 . S
C403 C422 1.368 . S
C403 H427 0.949 . S
H404 C408 0.949 . S
C405 C406 1.349 . S
C405 C407 1.327 . S
C405 H428 0.950 . S
C406 C405 1.349 . S
C406 C418 1.349 1_455 S
C407 C405 1.327 . S
C407 C423 1.429 1_455 S
C407 H429 0.950 . S
C408 H404 0.949 . S
C408 C416 1.574 . S
C408 C424 1.368 . S
H409 C417 0.950 . S
H410 C415 0.950 . S
H411 C416 0.949 . S
H412 C418 0.950 . S
H413 C419 0.950 . S
H414 C420 0.949 1_455 S
C415 H410 0.950 . S
C415 C417 1.327 . S
C415 C421 1.429 . S
C416 C408 1.574 . S
C416 H411 0.949 . S
C416 C422 1.368 . S
C417 C401 1.349 . S
C417 H409 0.950 . S
C417 C415 1.327 . S
C418 C406 1.349 1_655 S
C418 H412 0.950 . S
C418 C419 1.327 . S
C419 H413 0.950 . S
C419 C418 1.327 . S
C419 C423 1.429 . S
C420 C403 1.574 . S
C420 H414 0.949 1_655 S
C420 C424 1.368 . S
C421 C402 1.429 . S
C421 C415 1.429 . S
C421 C422 1.523 . S
C422 C403 1.368 . S
C422 C416 1.368 . S
C422 C421 1.523 . S
C423 C407 1.429 1_655 S
C423 C419 1.429 . S
C423 C424 1.523 . S
C424 C408 1.368 . S
C424 C420 1.368 . S
C424 C423 1.523 . S
H425 C400 0.950 . S
H426 C402 0.950 . S
H427 C403 0.949 . S
H428 C405 0.950 . S
H429 C407 0.950 . S
C430 C431 1.349 . S
C430 C432 1.327 . S
C430 H455 0.950 . S
C431 C430 1.349 . S
C431 C447 1.349 . S
C432 C430 1.327 . S
C432 C451 1.429 . S
C432 H456 0.950 . S
C433 C450 1.574 . S
C433 C452 1.368 . S
C433 H457 0.949 . S
H434 C438 0.949 . S
C435 C436 1.349 . S
C435 C437 1.327 . S
C435 H458 0.950 . S
C436 C435 1.349 . S
C436 C448 1.349 1_455 S
C437 C435 1.327 . S
C437 C453 1.429 1_455 S
C437 H459 0.950 . S
C438 H434 0.949 . S
C438 C446 1.574 . S
C438 C454 1.368 . S
H439 C447 0.950 . S
H440 C445 0.950 . S
H441 C446 0.949 . S
H442 C448 0.950 . S
H443 C449 0.950 . S
H444 C450 0.949 1_455 S
C445 H440 0.950 . S
C445 C447 1.327 . S
C445 C451 1.429 . S
C446 C438 1.574 . S
C446 H441 0.949 . S
C446 C452 1.368 . S
C447 C431 1.349 . S
C447 H439 0.950 . S
C447 C445 1.327 . S
C448 C436 1.349 1_655 S
C448 H442 0.950 . S
C448 C449 1.327 . S
C449 H443 0.950 . S
C449 C448 1.327 . S
C449 C453 1.429 . S
C450 C433 1.574 . S
C450 H444 0.949 1_655 S
C450 C454 1.368 . S
C451 C432 1.429 . S
C451 C445 1.429 . S
C451 C452 1.523 . S
C452 C433 1.368 . S
C452 C446 1.368 . S
C452 C451 1.523 . S
C453 C437 1.429 1_655 S
C453 C449 1.429 . S
C453 C454 1.523 . S
C454 C438 1.368 . S
C454 C450 1.368 . S
C454 C453 1.523 . S
H455 C430 0.950 . S
H456 C432 0.950 . S
H457 C433 0.949 . S
H458 C435 0.950 . S
H459 C437 0.950 . S
C460 C461 1.349 1_455 S
C460 C462 1.327 . S
C460 H485 0.950 . S
C461 C460 1.349 1_655 S
C461 C477 1.349 . S
C462 C460 1.327 . S
C462 C481 1.429 . S
C462 H486 0.950 . S
C463 C480 1.574 . S
C463 C482 1.368 . S
C463 H487 0.949 1_455 S
H464 C468 0.949 . S
C465 C466 1.349 . S
C465 C467 1.327 . S
C465 H488 0.950 . S
C466 C465 1.349 . S
C466 C478 1.349 . S
C467 C465 1.327 . S
C467 C483 1.429 . S
C467 H489 0.950 . S
C468 H464 0.949 . S
C468 C476 1.574 . S
C468 C484 1.368 . S
H469 C477 0.950 . S
H470 C475 0.950 . S
H471 C476 0.949 . S
H472 C478 0.950 . S
H473 C479 0.950 . S
H474 C480 0.949 . S
C475 H470 0.950 . S
C475 C477 1.327 . S
C475 C481 1.429 1_655 S
C476 C468 1.574 . S
C476 H471 0.949 . S
C476 C482 1.368 . S
C477 C461 1.349 . S
C477 H469 0.950 . S
C477 C475 1.327 . S
C478 C466 1.349 . S
C478 H472 0.950 . S
C478 C479 1.327 . S
C479 H473 0.950 . S
C479 C478 1.327 . S
C479 C483 1.429 . S
C480 C463 1.574 . S
C480 H474 0.949 . S
C480 C484 1.368 . S
C481 C462 1.429 . S
C481 C475 1.429 1_455 S
C481 C482 1.523 . S
C482 C463 1.368 . S
C482 C476 1.368 . S
C482 C481 1.523 . S
C483 C467 1.429 . S
C483 C479 1.429 . S
C483 C484 1.523 . S
C484 C468 1.368 . S
C484 C480 1.368 . S
C484 C483 1.523 . S
H485 C460 0.950 . S
H486 C462 0.950 . S
H487 C463 0.949 1_655 S
H488 C465 0.950 . S
H489 C467 0.950 . S
C490 C491 1.349 . S
C490 C492 1.327 . S
C490 H515 0.950 . S
C491 C490 1.349 . S
C491 C507 1.349 . S
C492 C490 1.327 . S
C492 C511 1.429 . S
C492 H516 0.950 . S
C493 C510 1.574 . S
C493 C512 1.368 . S
C493 H517 0.949 . S
H494 C498 0.949 1_655 S
C495 C496 1.349 1_455 S
C495 C497 1.327 . S
C495 H518 0.950 . S
C496 C495 1.349 1_655 S
C496 C508 1.349 . S
C497 C495 1.327 . S
C497 C513 1.429 . S
C497 H519 0.950 . S
C498 H494 0.949 1_455 S
C498 C506 1.574 . S
C498 C514 1.368 . S
H499 C507 0.950 . S
H500 C505 0.950 . S
H501 C506 0.949 . S
H502 C508 0.950 . S
H503 C509 0.950 . S
H504 C510 0.949 . S
C505 H500 0.950 . S
C505 C507 1.327 . S
C505 C511 1.429 . S
C506 C498 1.574 . S
C506 H501 0.949 . S
C506 C512 1.368 . S
C507 C491 1.349 . S
C507 H499 0.950 . S
C507 C505 1.327 . S
C508 C496 1.349 . S
C508 H502 0.950 . S
C508 C509 1.327 . S
C509 H503 0.950 . S
C509 C508 1.327 . S
C509 C513 1.429 1_655 S
C510 C493 1.574 . S
C510 H504 0.949 . S
C510 C514 1.368 . S
C511 C492 1.429 . S
C511 C505 1.429 . S
C511 C512 1.523 . S
C512 C493 1.368 . S
C512 C506 1.368 . S
C512 C511 1.523 . S
C513 C497 1.429 . S
C513 C509 1.429 1_455 S
C513 C514 1.523 . S
C514 C498 1.368 . S
C514 C510 1.368 . S
C514 C513 1.523 . S
H515 C490 0.950 . S
H516 C492 0.950 . S
H517 C493 0.949 . S
H518 C495 0.950 . S
H519 C497 0.950 . S
C161 C42 1.503 1_554 S
C166 C17 1.503 . S
C191 C97 1.503 . S
C196 C122 1.503 . S
C221 C2 1.503 1_554 S
C226 C57 1.503 . S
C251 C137 1.503 . S
C256 C82 1.503 . S
C281 C128 1.222 . S
C286 C31 1.221 . S
C311 C48 1.222 . S
C316 C111 1.221 . S
C341 C52 1.221 . S
C346 C109 1.222 . S
C371 C132 1.221 . S
C376 C29 1.222 . S
C401 C71 1.221 . S
C406 C88 1.222 . S
C431 C151 1.221 . S
C436 C8 1.222 . S
C461 C149 1.222 . S
C466 C12 1.221 . S
C491 C92 1.221 . S
C496 C69 1.222 . S
