# Generated by pormake.
# Topology sml, (6)-cn, num edge types: 1
# Building blocks:
#     Node 0, Type 0, BuildingBlock: CUKXOW_clean_sbu_0, # of connection points: 6
#     Node 1, Type 0, BuildingBlock: CUKXOW_clean_sbu_0, # of connection points: 6
#     Node 2, Type 0, BuildingBlock: CUKXOW_clean_sbu_0, # of connection points: 6
#     Node 3, Type 0, BuildingBlock: CUKXOW_clean_sbu_0, # of connection points: 6
#     Node 4, Type 0, BuildingBlock: CUKXOW_clean_sbu_0, # of connection points: 6
#     Node 5, Type 0, BuildingBlock: CUKXOW_clean_sbu_0, # of connection points: 6
#     Edge 6, Type (0, 0), BuildingBlock: FUNLAD_clean_linker_1, # of connection points: 2
#     Edge 7, Type (0, 0), BuildingBlock: FUNLAD_clean_linker_1, # of connection points: 2
#     Edge 8, Type (0, 0), BuildingBlock: FUNLAD_clean_linker_1, # of connection points: 2
#     Edge 9, Type (0, 0), BuildingBlock: FUNLAD_clean_linker_1, # of connection points: 2
#     Edge 10, Type (0, 0), BuildingBlock: FUNLAD_clean_linker_1, # of connection points: 2
#     Edge 11, Type (0, 0), BuildingBlock: FUNLAD_clean_linker_1, # of connection points: 2
#     Edge 12, Type (0, 0), BuildingBlock: FUNLAD_clean_linker_1, # of connection points: 2
#     Edge 13, Type (0, 0), BuildingBlock: FUNLAD_clean_linker_1, # of connection points: 2
#     Edge 14, Type (0, 0), BuildingBlock: FUNLAD_clean_linker_1, # of connection points: 2
#     Edge 15, Type (0, 0), BuildingBlock: FUNLAD_clean_linker_1, # of connection points: 2
#     Edge 16, Type (0, 0), BuildingBlock: FUNLAD_clean_linker_1, # of connection points: 2
#     Edge 17, Type (0, 0), BuildingBlock: FUNLAD_clean_linker_1, # of connection points: 2
#     Edge 18, Type (0, 0), BuildingBlock: FUNLAD_clean_linker_1, # of connection points: 2
#     Edge 19, Type (0, 0), BuildingBlock: FUNLAD_clean_linker_1, # of connection points: 2
#     Edge 20, Type (0, 0), BuildingBlock: FUNLAD_clean_linker_1, # of connection points: 2
#     Edge 21, Type (0, 0), BuildingBlock: FUNLAD_clean_linker_1, # of connection points: 2
#     Edge 22, Type (0, 0), BuildingBlock: FUNLAD_clean_linker_1, # of connection points: 2
#     Edge 23, Type (0, 0), BuildingBlock: FUNLAD_clean_linker_1, # of connection points: 2
# Relax obj value: 0.146
# Max RMSD: 0.192
# Mean RMSD: 0.192
data_MOF--net-sml--node1-CUKXOW_clean_sbu_0--edge1-FUNLAD_clean_linker_1
_symmetry_space_group_name_H-M    P1
_symmetry_Int_Tables_number       1
_symmetry_cell_setting            triclinic
loop_
_symmetry_equiv_pos_as_xyz
'x, y, z'
_cell_length_a     43.861845
_cell_length_b     44.09529
_cell_length_c     15.288715
_cell_angle_alpha  90.443075
_cell_angle_beta   89.392872
_cell_angle_gamma 119.88636
loop_
_atom_site_label
_atom_site_type_symbol
_atom_site_fract_x
_atom_site_fract_y
_atom_site_fract_z
_atom_type_partial_charge
Tb0 Tb 0.21782 0.39513 0.06641 0.0
C1 C 0.13916 0.37776 0.09144 0.0
Tb2 Tb 0.20078 0.4568 0.07945 0.0
O3 O 0.20477 0.38265 0.20498 0.0
O4 O 0.22279 0.43343 0.16029 0.0
O5 O 0.16016 0.36565 0.06412 0.0
C6 C 0.19178 0.50872 0.13772 0.0
O7 O 0.15012 0.41121 0.1086 0.0
C8 C 0.19745 0.43408 0.9156 0.0
C9 C 0.27821 0.4746 0.04706 0.0
O10 O 0.17683 0.47751 0.1714 0.0
O11 O 0.2114 0.51048 0.07179 0.0
O12 O 0.19154 0.45928 0.93703 0.0
O13 O 0.2034 0.42368 0.98596 0.0
O14 O 0.25766 0.48503 0.08451 0.0
O15 O 0.26704 0.44148 1.02496 0.0
C16 C 0.24319 0.35378 1.01774 0.0
O17 O 0.2531 0.37427 0.08546 0.0
O18 O 0.21827 0.35591 0.97763 0.0
C19 C 0.20998 0.41351 0.22583 0.0
Tb20 Tb 0.81612 0.20249 0.32409 0.0
C21 C 0.76063 0.12554 0.3751 0.0
Tb22 Tb 0.73901 0.18355 0.34077 0.0
O23 O 0.8197 0.19409 0.4638 0.0
O24 O 0.78462 0.20968 0.41992 0.0
O25 O 0.79222 0.14615 0.34054 0.0
C26 C 0.67467 0.16694 0.39762 0.0
O27 O 0.73717 0.13587 0.38852 0.0
C28 C 0.76182 0.18646 0.1787 0.0
C29 C 0.79438 0.26096 0.29436 0.0
O30 O 0.68148 0.15284 0.3309 0.0
O31 O 0.70402 0.19008 0.43278 0.0
O32 O 0.73604 0.19166 0.19993 0.0
O33 O 0.77058 0.17622 0.24594 0.0
O34 O 0.76207 0.23954 0.32328 0.0
O35 O 0.81867 0.25155 0.28462 0.0
C36 C 0.8797 0.22024 0.25892 0.0
O37 O 0.8738 0.23283 0.33009 0.0
O38 O 0.84992 0.19768 0.22477 0.0
C39 C 0.79396 0.19929 0.48623 0.0
Tb40 Tb 0.60359 0.81112 0.70852 0.0
C41 C 0.62949 0.75817 0.74975 0.0
Tb42 Tb 0.54886 0.73421 0.71973 0.0
O43 O 0.61543 0.81344 0.848 0.0
O44 O 0.56514 0.77848 0.80235 0.0
O45 O 0.63953 0.7904 0.72201 0.0
C46 C 0.50486 0.66871 0.7714 0.0
O47 O 0.59608 0.73363 0.75907 0.0
C48 C 0.56729 0.75818 0.55901 0.0
C49 C 0.52231 0.78516 0.67764 0.0
O50 O 0.52014 0.67763 0.69548 0.0
O51 O 0.51445 0.69658 0.81844 0.0
O52 O 0.53652 0.7325 0.58065 0.0
O53 O 0.58712 0.76704 0.62506 0.0
O54 O 0.51371 0.75509 0.71537 0.0
O55 O 0.55543 0.80886 0.65893 0.0
C56 C 0.6414 0.87858 0.66273 0.0
O57 O 0.61888 0.86614 0.72648 0.0
O58 O 0.64331 0.85307 0.62478 0.0
C59 C 0.5847 0.78754 0.86889 0.0
Tb60 Tb 0.79684 0.61306 1.02322 0.0
C61 C 0.87108 0.62295 0.0662 0.0
Tb62 Tb 0.80437 0.54758 0.03397 0.0
O63 O 0.80639 0.62417 0.1632 0.0
O64 O 0.78448 0.57289 0.11657 0.0
O65 O 0.85367 0.63859 0.03889 0.0
C66 C 0.8132 0.49375 0.0779 0.0
O67 O 0.85647 0.58853 0.07471 0.0
C68 C 0.80267 0.56892 0.87421 0.0
C69 C 0.73007 0.53706 0.9973 0.0
O70 O 0.82314 0.51086 1.00493 0.0
O71 O 0.79859 0.50718 0.12708 0.0
O72 O 0.7923 0.53666 0.89433 0.0
O73 O 0.81646 0.58778 0.94089 0.0
O74 O 0.7476 0.52242 1.02941 0.0
O75 O 0.74493 0.57112 0.98161 0.0
C76 C 0.78606 0.66376 0.96246 0.0
O77 O 0.76949 0.64341 1.02803 0.0
O78 O 0.80891 0.65584 0.93184 0.0
C79 C 0.79728 0.59213 0.18347 0.0
Tb80 Tb 0.18302 0.79379 0.36902 0.0
C81 C 0.24781 0.86822 0.40682 0.0
Tb82 Tb 0.2593 0.8031 0.37719 0.0
O83 O 0.17075 0.78576 0.51124 0.0
O84 O 0.21677 0.79181 0.46031 0.0
O85 O 0.21502 0.85071 0.37676 0.0
C86 C 0.32365 0.81702 0.4211 0.0
O87 O 0.26799 0.85406 0.41892 0.0
C88 C 0.23306 0.79818 0.21958 0.0
C89 C 0.1943 0.72747 0.36276 0.0
O90 O 0.31634 0.83122 0.3566 0.0
O91 O 0.29476 0.795 0.46118 0.0
O92 O 0.2564 0.78928 0.23805 0.0
O93 O 0.22819 0.81233 0.28637 0.0
O94 O 0.22785 0.74668 0.38507 0.0
O95 O 0.17335 0.74056 0.34744 0.0
C96 C 0.12245 0.78172 0.2995 0.0
O97 O 0.14284 0.77077 0.26776 0.0
O98 O 0.13642 0.80001 0.3698 0.0
C99 C 0.20058 0.78798 0.53138 0.0
Tb100 Tb 0.39845 0.18429 0.68568 0.0
C101 C 0.37742 0.24215 0.72375 0.0
Tb102 Tb 0.45766 0.26389 0.70007 0.0
O103 O 0.38701 0.1816 0.82667 0.0
O104 O 0.43653 0.21787 0.77876 0.0
O105 O 0.36726 0.21034 0.69224 0.0
C106 C 0.50972 0.32496 0.75624 0.0
O107 O 0.41078 0.266 0.73916 0.0
C108 C 0.43412 0.24511 0.5366 0.0
C109 C 0.47853 0.20655 0.6592 0.0
O110 O 0.47873 0.30799 0.79263 0.0
O111 O 0.51114 0.30772 0.68885 0.0
O112 O 0.45835 0.2765 0.5583 0.0
O113 O 0.42475 0.22836 0.60687 0.0
O114 O 0.48775 0.23682 0.69848 0.0
O115 O 0.44548 0.18356 0.63848 0.0
C116 C 0.35285 0.1211 0.625 0.0
O117 O 0.37634 0.12747 0.68441 0.0
O118 O 0.35503 0.15017 0.60001 0.0
C119 C 0.41713 0.20869 0.84638 0.0
H120 H 0.32236 0.23046 0.73544 0.0
C121 C 0.34955 0.25043 0.74647 0.0
H122 H 0.38354 0.30134 0.79514 0.0
H123 H 0.27063 0.35047 0.76538 0.0
H124 H 0.30253 0.37447 0.62991 0.0
H125 H 0.3461 0.35877 0.57608 0.0
H126 H 0.35817 0.31903 0.65801 0.0
C127 C 0.35658 0.2808 0.78442 0.0
C128 C 0.32796 0.28754 0.81316 0.0
C129 C 0.32071 0.31028 0.76399 0.0
C130 C 0.29521 0.31893 0.79458 0.0
C131 C 0.2893 0.34252 0.745 0.0
C132 C 0.3075 0.3566 0.66703 0.0
C133 C 0.33206 0.34779 0.63676 0.0
C134 C 0.33875 0.32497 0.68446 0.0
H135 H 0.28378 0.33866 1.02407 0.0
C136 C 0.26139 0.33528 0.98651 0.0
H137 H 0.23188 0.31492 0.87155 0.0
H138 H 0.33591 0.24352 0.9241 0.0
H139 H 0.30241 0.21742 0.05655 0.0
H140 H 0.25542 0.22925 0.10454 0.0
H141 H 0.24228 0.26792 1.02125 0.0
C142 C 0.25338 0.31722 0.91109 0.0
C143 C 0.2769 0.30471 0.8744 0.0
C144 C 0.28295 0.28054 0.9213 0.0
C145 C 0.30901 0.27253 0.89162 0.0
C146 C 0.31584 0.24985 0.94235 0.0
C147 C 0.29681 0.2347 1.01864 0.0
C148 C 0.27047 0.24147 0.04583 0.0
C149 C 0.2634 0.26396 0.99782 0.0
H150 H 0.08535 0.36577 0.12092 0.0
C151 C 0.1013 0.35374 0.10637 0.0
H152 H 0.1015 0.30594 0.10081 0.0
H153 H 0.97285 0.24149 0.37249 0.0
H154 H 0.01924 0.24099 0.45641 0.0
H155 H 0.07944 0.26649 0.39639 0.0
H156 H 0.09361 0.29244 0.25187 0.0
C157 C 0.08602 0.31877 0.11002 0.0
C158 C 0.04853 0.29795 0.13933 0.0
C159 C 0.04054 0.2825 0.22349 0.0
C160 C 0.0059 0.26827 0.25861 0.0
C161 C 0.99879 0.25314 0.34308 0.0
C162 C 0.02515 0.25258 0.39189 0.0
C163 C 0.05904 0.26691 0.35808 0.0
C164 C 0.06682 0.28176 0.27499 0.0
H165 H 0.91552 0.21695 0.16179 0.0
C166 C 0.91443 0.23078 0.2198 0.0
H167 H 0.94312 0.2712 0.31025 0.0
H168 H 0.05346 0.3195 0.97031 0.0
H169 H 0.00779 0.32179 0.887 0.0
H170 H 0.9491 0.30186 0.95189 0.0
H171 H 0.9355 0.27898 0.09911 0.0
C172 C 0.94411 0.25784 0.25116 0.0
C173 C 0.97927 0.26965 0.2098 0.0
C174 C 0.98702 0.28413 0.12423 0.0
C175 C 0.02141 0.29736 0.08827 0.0
C176 C 0.02814 0.31036 1.00165 0.0
C177 C 0.00214 0.31164 0.95303 0.0
C178 C 0.96907 0.30029 0.98944 0.0
C179 C 0.9615 0.28685 0.07404 0.0
H180 H 0.77045 0.0811 0.38477 0.0
C181 C 0.7518 0.08977 0.40089 0.0
H182 H 0.70391 0.07685 0.46507 0.0
H183 H 0.66752 0.91519 0.40689 0.0
H184 H 0.65909 0.92489 0.25571 0.0
H185 H 0.67518 0.98378 0.20331 0.0
H186 H 0.7005 0.0336 0.30187 0.0
C187 C 0.72226 0.06823 0.44545 0.0
C188 C 0.71481 0.03303 0.47519 0.0
C189 C 0.70028 0.00416 0.41681 0.0
C190 C 0.69088 0.9701 0.4473 0.0
C191 C 0.6756 0.9417 0.38762 0.0
C192 C 0.67036 0.94683 0.30053 0.0
C193 C 0.67952 0.98001 0.27097 0.0
C194 C 0.69414 0.0084 0.3282 0.0
H195 H 0.64985 0.93201 0.66553 0.0
C196 C 0.65847 0.91536 0.63402 0.0
H197 H 0.69082 0.91173 0.53678 0.0
H198 H 0.74315 0.08292 0.603 0.0
H199 H 0.75534 0.07439 0.7524 0.0
H200 H 0.74273 0.01623 0.80307 0.0
H201 H 0.71713 0.96618 0.70532 0.0
C202 C 0.68274 0.92853 0.56976 0.0
C203 C 0.6961 0.96493 0.53632 0.0
C204 C 0.7126 0.99431 0.59334 0.0
C205 C 0.72116 0.02816 0.56323 0.0
C206 C 0.73638 0.05673 0.62235 0.0
C207 C 0.74365 0.05223 0.70817 0.0
C208 C 0.73645 0.01947 0.73674 0.0
C209 C 0.72135 0.99084 0.68019 0.0
H210 H 0.6448 0.71944 0.78219 0.0
C211 C 0.65529 0.74733 0.77215 0.0
H212 H 0.70056 0.79727 0.78388 0.0
H213 H 0.7564 0.73181 0.07141 0.0
H214 H 0.74833 0.77383 0.1573 0.0
H215 H 0.72319 0.80731 0.09119 0.0
H216 H 0.70632 0.79929 0.93848 0.0
C217 C 0.68953 0.76912 0.78783 0.0
C218 C 0.71116 0.75434 0.82259 0.0
C219 C 0.7214 0.75967 0.9115 0.0
C220 C 0.73537 0.73989 0.94999 0.0
C221 C 0.74515 0.74569 0.03918 0.0
C222 C 0.74076 0.76981 0.08918 0.0
C223 C 0.72664 0.78869 0.05194 0.0
C224 C 0.71702 0.78379 0.96422 0.0
H225 H 0.7955 0.70627 0.87134 0.0
C226 C 0.77823 0.68957 0.92301 0.0
H227 H 0.73206 0.67438 0.99677 0.0
H228 H 0.70107 0.7432 0.64701 0.0
H229 H 0.70737 0.7001 0.56079 0.0
H230 H 0.72633 0.66186 0.62957 0.0
H231 H 0.73984 0.66691 0.78363 0.0
C232 C 0.74904 0.69079 0.94426 0.0
C233 C 0.73888 0.71454 0.8998 0.0
C234 C 0.72992 0.71024 0.80963 0.0
C235 C 0.71708 0.73093 0.77071 0.0
C236 C 0.70964 0.72718 0.68014 0.0
C237 C 0.71331 0.7027 0.62991 0.0
C238 C 0.72413 0.68128 0.66857 0.0
C239 C 0.73217 0.68474 0.7573 0.0
H240 H 0.07106 0.77955 0.30478 0.0
C241 C 0.08669 0.77071 0.26871 0.0
H242 H 0.08772 0.73881 0.16625 0.0
H243 H 0.9182 0.65604 0.26143 0.0
H244 H 0.9356 0.63998 0.3953 0.0
H245 H 0.99818 0.66566 0.43296 0.0
H246 H 0.04376 0.7072 0.3365 0.0
C247 C 0.07213 0.74747 0.20323 0.0
C248 C 0.03425 0.7318 0.18067 0.0
C249 C 0.00791 0.70695 0.23723 0.0
C250 C 0.97183 0.691 0.21379 0.0
C251 C 0.94605 0.66761 0.2736 0.0
C252 C 0.95564 0.65852 0.35141 0.0
C253 C 0.99087 0.67297 0.37261 0.0
C254 C 0.0168 0.69697 0.31665 0.0
H255 H 0.92263 0.63022 0.10283 0.0
C256 C 0.90845 0.64411 0.09012 0.0
H257 H 0.91141 0.69343 0.08912 0.0
H258 H 0.07801 0.77863 0.05859 0.0
H259 H 0.06089 0.79202 0.92003 0.0
H260 H 0.99856 0.7628 0.87676 0.0
H261 H 0.95293 0.72009 0.97173 0.0
C262 C 0.92489 0.67892 0.10225 0.0
C263 C 0.96224 0.69849 0.13166 0.0
C264 C 0.98856 0.72363 0.07569 0.0
C265 C 0.02457 0.74026 0.10024 0.0
C266 C 0.05032 0.76506 0.04282 0.0
C267 C 0.04085 0.77302 0.96318 0.0
C268 C 0.00575 0.75658 0.93885 0.0
C269 C 0.97981 0.73213 0.99407 0.0
H270 H 0.30832 0.08467 0.54333 0.0
C271 C 0.32833 0.0866 0.58801 0.0
H272 H 0.35101 0.06013 0.64978 0.0
H273 H 0.22642 0.90646 0.61051 0.0
H274 H 0.22838 0.91456 0.76792 0.0
H275 H 0.26549 0.97287 0.83342 0.0
H276 H 0.30131 0.02331 0.74209 0.0
C277 C 0.33136 0.05836 0.60412 0.0
C278 C 0.30744 0.02374 0.5634 0.0
C279 C 0.28577 0.99477 0.61769 0.0
C280 C 0.26388 0.96126 0.57995 0.0
C281 C 0.24335 0.93254 0.63579 0.0
C282 C 0.24416 0.93682 0.72624 0.0
C283 C 0.26509 0.96965 0.7631 0.0
C284 C 0.28561 0.99838 0.70985 0.0
H285 H 0.29212 0.92002 0.43767 0.0
C286 C 0.26371 0.90543 0.42969 0.0
H287 H 0.21642 0.90647 0.44915 0.0
H288 H 0.34902 0.07235 0.43972 0.0
H289 H 0.3462 0.064 0.28284 0.0
H290 H 0.30464 0.00688 0.21753 0.0
H291 H 0.26606 0.95757 0.30957 0.0
C292 C 0.24498 0.92096 0.45029 0.0
C293 C 0.26349 0.95683 0.48803 0.0
C294 C 0.28437 0.98587 0.43351 0.0
C295 C 0.30708 0.0192 0.47114 0.0
C296 C 0.32982 0.04694 0.41503 0.0
C297 C 0.32878 0.04241 0.32461 0.0
C298 C 0.30548 0.01023 0.28785 0.0
C299 C 0.28359 0.98215 0.34137 0.0
H300 H 0.20362 0.4002 0.81673 0.0
C301 C 0.19941 0.42231 0.82538 0.0
H302 H 0.19375 0.46189 0.76407 0.0
H303 H 0.26614 0.46036 0.40543 0.0
H304 H 0.31385 0.51121 0.47393 0.0
H305 H 0.3099 0.52533 0.62821 0.0
H306 H 0.25811 0.48835 0.71579 0.0
C307 C 0.19659 0.43895 0.75471 0.0
C308 C 0.19939 0.429 0.66197 0.0
C309 C 0.22927 0.45143 0.61032 0.0
C310 C 0.23114 0.44376 0.52001 0.0
C311 C 0.2624 0.46558 0.47261 0.0
C312 C 0.29027 0.49476 0.51149 0.0
C313 C 0.28805 0.50271 0.5985 0.0
C314 C 0.25809 0.48132 0.64781 0.0
H315 H 0.21128 0.45074 0.32668 0.0
C316 C 0.20827 0.42498 0.31661 0.0
H317 H 0.20107 0.3787 0.37457 0.0
H318 H 0.13794 0.38081 0.74022 0.0
H319 H 0.08973 0.33006 0.67186 0.0
H320 H 0.09215 0.31744 0.51541 0.0
H321 H 0.14276 0.35541 0.42615 0.0
C322 C 0.20438 0.40452 0.38615 0.0
C323 C 0.20246 0.41424 0.47993 0.0
C324 C 0.17261 0.39175 0.53193 0.0
C325 C 0.17112 0.39906 0.62262 0.0
C326 C 0.14069 0.37636 0.67168 0.0
C327 C 0.11273 0.34715 0.63317 0.0
C328 C 0.1141 0.34003 0.54507 0.0
C329 C 0.14349 0.36201 0.49468 0.0
H330 H 0.79597 0.18138 0.07774 0.0
C331 C 0.77442 0.18657 0.08758 0.0
H332 H 0.73703 0.19623 1.02766 0.0
H333 H 0.8507 0.24962 0.69901 0.0
H334 H 0.89075 0.2952 0.7975 0.0
H335 H 0.87593 0.29444 0.95379 0.0
H336 H 0.82112 0.24801 1.01296 0.0
C337 C 0.75946 0.19243 1.01749 0.0
C338 C 0.77038 0.19163 0.92397 0.0
C339 C 0.80245 0.21914 0.88971 0.0
C340 C 0.81087 0.21977 0.79879 0.0
C341 C 0.84307 0.24767 0.76717 0.0
C342 C 0.86625 0.27411 0.82293 0.0
C343 C 0.8579 0.27368 0.91096 0.0
C344 C 0.82636 0.24673 0.94418 0.0
H345 H 0.76025 0.20371 0.58969 0.0
C346 C 0.78189 0.19881 0.57812 0.0
H347 H 0.81996 0.18932 0.63485 0.0
H348 H 0.70756 0.1344 0.96679 0.0
H349 H 0.66844 0.08779 0.86922 0.0
H350 H 0.68333 0.08856 0.71294 0.0
H351 H 0.73713 0.13612 0.65278 0.0
C352 C 0.7975 0.19291 0.64681 0.0
C353 C 0.78712 0.19319 0.74107 0.0
C354 C 0.75535 0.16536 0.77564 0.0
C355 C 0.74693 0.16472 0.86655 0.0
C356 C 0.71515 0.13637 0.89858 0.0
C357 C 0.69252 0.10935 0.84336 0.0
C358 C 0.70088 0.10979 0.75534 0.0
C359 C 0.73186 0.13735 0.72156 0.0
H360 H 0.60599 0.79011 0.45584 0.0
C361 C 0.57885 0.77008 0.46763 0.0
H362 H 0.52979 0.73521 0.41181 0.0
H363 H 0.59751 0.84658 0.08163 0.0
H364 H 0.59739 0.88969 0.1807 0.0
H365 H 0.58336 0.87648 0.33724 0.0
H366 H 0.56901 0.81998 0.3957 0.0
C367 C 0.55658 0.75602 0.39954 0.0
C368 C 0.56739 0.76534 0.3054 0.0
C369 C 0.5758 0.79859 0.27189 0.0
C370 C 0.5838 0.80619 0.18103 0.0
C371 C 0.59161 0.83948 0.14982 0.0
C372 C 0.59147 0.86444 0.20593 0.0
C373 C 0.58354 0.857 0.29407 0.0
C374 C 0.57559 0.82447 0.32691 0.0
H375 H 0.54556 0.75542 0.97101 0.0
C376 C 0.57266 0.77572 0.96009 0.0
H377 H 0.62113 0.81118 1.01755 0.0
H378 H 0.5518 0.69886 0.34609 0.0
H379 H 0.55117 0.65548 0.24667 0.0
H380 H 0.56614 0.66902 0.0906 0.0
H381 H 0.58155 0.72586 0.03269 0.0
C382 C 0.59442 0.79005 1.02899 0.0
C383 C 0.58315 0.78055 0.12285 0.0
C384 C 0.57457 0.74723 0.1563 0.0
C385 C 0.56639 0.73958 0.24708 0.0
C386 C 0.55797 0.70607 0.27802 0.0
C387 C 0.55768 0.68094 0.22173 0.0
C388 C 0.56609 0.68855 0.13384 0.0
C389 C 0.57468 0.7213 0.1013 0.0
H390 H 0.81075 0.60896 0.77521 0.0
C391 C 0.80397 0.58188 0.78388 0.0
H392 H 0.79093 0.53396 0.72332 0.0
H393 H 0.7357 0.54964 0.36075 0.0
H394 H 0.68364 0.50195 0.42627 0.0
H395 H 0.6833 0.48575 0.58027 0.0
H396 H 0.73475 0.51782 0.67054 0.0
C397 C 0.79801 0.56107 0.71313 0.0
C398 C 0.79862 0.57229 0.61983 0.0
C399 C 0.76836 0.55314 0.56684 0.0
C400 C 0.76884 0.56192 0.47673 0.0
C401 C 0.73752 0.54331 0.42787 0.0
C402 C 0.7072 0.51602 0.46501 0.0
C403 C 0.70697 0.50698 0.55183 0.0
C404 C 0.7369 0.52546 0.6027 0.0
H405 H 0.78915 0.55253 0.28398 0.0
C406 C 0.79545 0.57943 0.27441 0.0
H407 H 0.80721 0.62727 0.33356 0.0
H408 H 0.863 0.61203 0.69689 0.0
H409 H 0.91454 0.66059 0.63235 0.0
H410 H 0.91445 0.67752 0.47923 0.0
H411 H 0.86324 0.645 0.38854 0.0
C412 C 0.80061 0.60034 0.34455 0.0
C413 C 0.79987 0.58951 0.43825 0.0
C414 C 0.82999 0.60893 0.4915 0.0
C415 C 0.82961 0.59999 0.58144 0.0
C416 C 0.86095 0.61864 0.6302 0.0
C417 C 0.89101 0.64641 0.59357 0.0
C418 C 0.891 0.65585 0.50725 0.0
C419 C 0.8612 0.6371 0.45612 0.0
H420 H 0.23895 0.7911 0.63038 0.0
C421 C 0.21358 0.78934 0.62163 0.0
H422 H 0.16879 0.78641 0.6819 0.0
H423 H 0.17415 0.73261 0.05482 0.0
H424 H 0.1221 0.68307 0.99434 0.0
H425 H 0.10804 0.68105 0.83797 0.0
H426 H 0.14556 0.72874 0.7411 0.0
C427 C 0.19443 0.7889 0.69212 0.0
C428 C 0.20512 0.78942 0.78561 0.0
C429 C 0.1832 0.76108 0.84178 0.0
C430 C 0.19154 0.762 0.93221 0.0
C431 C 0.16908 0.73329 0.98597 0.0
C432 C 0.13916 0.70463 0.95207 0.0
C433 C 0.13119 0.70354 0.86404 0.0
C434 C 0.1529 0.73123 0.80921 0.0
H435 H 0.20029 0.8059 0.12199 0.0
C436 C 0.22014 0.7983 0.13002 0.0
H437 H 0.25396 0.78372 0.06688 0.0
H438 H 0.24973 0.85091 0.70232 0.0
H439 H 0.30055 0.90106 0.76439 0.0
H440 H 0.31662 0.90119 0.91856 0.0
H441 H 0.28135 0.85134 1.01238 0.0
C442 C 0.23329 0.79021 0.05893 0.0
C443 C 0.22199 0.7911 0.96701 0.0
C444 C 0.24351 0.81975 0.91154 0.0
C445 C 0.23481 0.81922 0.82145 0.0
C446 C 0.25573 0.84923 0.76987 0.0
C447 C 0.2849 0.87836 0.8049 0.0
C448 C 0.29391 0.87846 0.89178 0.0
C449 C 0.27353 0.84963 0.94481 0.0
H450 H 0.4035 0.204 0.43759 0.0
C451 C 0.4234 0.23128 0.44605 0.0
H452 H 0.45802 0.279 0.38444 0.0
H453 H 0.43559 0.17111 0.05429 0.0
H454 H 0.46111 0.14572 0.14862 0.0
H455 H 0.47381 0.16362 0.30327 0.0
H456 H 0.46056 0.20646 0.36518 0.0
C457 C 0.43876 0.25155 0.37492 0.0
C458 C 0.4298 0.23903 0.28159 0.0
C459 C 0.43832 0.21431 0.24553 0.0
C460 C 0.43184 0.20459 0.15518 0.0
C461 C 0.4401 0.17949 0.12196 0.0
C462 C 0.45486 0.1648 0.1753 0.0
C463 C 0.46195 0.17484 0.26243 0.0
C464 C 0.45399 0.19937 0.29735 0.0
H465 H 0.45419 0.24555 0.94552 0.0
C466 C 0.42839 0.22267 0.93666 0.0
H467 H 0.38198 0.18407 0.99823 0.0
H468 H 0.41031 0.28707 0.32689 0.0
H469 H 0.38614 0.3133 0.23116 0.0
H470 H 0.37625 0.29734 0.0749 0.0
H471 H 0.39055 0.25506 1.01311 0.0
C472 C 0.40754 0.20726 1.0072 0.0
C473 C 0.41771 0.22014 0.09964 0.0
C474 C 0.40975 0.24522 0.1352 0.0
C475 C 0.41572 0.25461 0.22572 0.0
C476 C 0.40683 0.27932 0.25877 0.0
C477 C 0.39279 0.29447 0.2046 0.0
C478 C 0.38717 0.28546 0.11662 0.0
C479 C 0.39545 0.26112 0.08201 0.0
H480 H 0.20595 0.56377 0.13897 0.0
C481 C 0.18917 0.5387 0.17026 0.0
H482 H 0.15177 0.51192 0.27001 0.0
H483 H 0.20857 0.65274 0.49038 0.0
H484 H 0.2161 0.61467 0.59095 0.0
H485 H 0.20248 0.55542 0.54567 0.0
H486 H 0.18086 0.53371 0.40005 0.0
C487 C 0.16797 0.53661 0.23667 0.0
C488 C 0.16919 0.56906 0.26997 0.0
C489 C 0.18147 0.58113 0.35564 0.0
C490 C 0.18992 0.61552 0.38121 0.0
C491 C 0.20227 0.62703 0.46711 0.0
C492 C 0.20662 0.60543 0.52557 0.0
C493 C 0.19891 0.57205 0.5001 0.0
C494 C 0.18654 0.55992 0.4162 0.0
H495 H 0.15156 0.67351 0.33748 0.0
C496 C 0.17958 0.68957 0.34966 0.0
H497 H 0.2283 0.69094 0.35701 0.0
H498 H 0.13692 0.55031 0.11105 0.0
H499 H 0.13083 0.58859 1.00791 0.0
H500 H 0.15235 0.65053 0.04453 0.0
H501 H 0.17851 0.67415 0.18497 0.0
C502 C 0.20032 0.67525 0.34407 0.0
C503 C 0.18651 0.63786 0.32075 0.0
C504 C 0.17256 0.62513 0.23633 0.0
C505 C 0.16253 0.59018 0.21255 0.0
C506 C 0.14663 0.57724 0.13028 0.0
C507 C 0.14275 0.59883 0.07085 0.0
C508 C 0.15465 0.63363 0.09169 0.0
C509 C 0.16943 0.64679 0.1732 0.0
H510 H 0.61687 0.14114 0.38614 0.0
C511 C 0.63932 0.16011 0.42357 0.0
H512 H 0.6574 0.1984 0.523 0.0
H513 H 0.53281 0.22983 0.47936 0.0
H514 H 0.58039 0.28043 0.40811 0.0
H515 H 0.63772 0.28422 0.38247 0.0
H516 H 0.64736 0.23666 0.42359 0.0
C517 C 0.63476 0.17837 0.48806 0.0
C518 C 0.60003 0.17582 0.50531 0.0
C519 C 0.59505 0.20408 0.48163 0.0
C520 C 0.56254 0.20268 0.50024 0.0
C521 C 0.55758 0.23033 0.471 0.0
C522 C 0.58454 0.25937 0.42906 0.0
C523 C 0.61676 0.26139 0.41405 0.0
C524 C 0.62199 0.23399 0.43877 0.0
H525 H 0.53329 0.21806 0.66057 0.0
C526 C 0.50729 0.19978 0.63571 0.0
H527 H 0.4783 0.15632 0.55231 0.0
H528 H 0.60068 0.11711 0.55949 0.0
H529 H 0.55315 0.06688 0.63257 0.0
H530 H 0.49714 0.06498 0.66695 0.0
H531 H 0.4883 0.11338 0.62847 0.0
C532 C 0.50389 0.17503 0.57835 0.0
C533 C 0.53566 0.17388 0.54691 0.0
C534 C 0.54014 0.1451 0.56795 0.0
C535 C 0.5724 0.14609 0.54736 0.0
C536 C 0.57656 0.11749 0.57202 0.0
C537 C 0.54954 0.08856 0.6144 0.0
C538 C 0.518 0.0875 0.63385 0.0
C539 C 0.51326 0.11543 0.6114 0.0
H540 H 0.32215 0.52856 0.0471 0.0
C541 C 0.31416 0.50216 1.0248 0.0
H542 H 0.32847 0.47133 0.94625 0.0
H543 H 0.41506 0.63275 0.78513 0.0
H544 H 0.35824 0.61795 0.72604 0.0
H545 H 0.30557 0.56136 0.7601 0.0
H546 H 0.30947 0.51922 0.85341 0.0
C547 C 0.33555 0.49723 0.97048 0.0
C548 C 0.36827 0.52807 0.93741 0.0
C549 C 0.3659 0.55158 0.87874 0.0
C550 C 0.39644 0.58374 0.85712 0.0
C551 C 0.39292 0.60756 0.8022 0.0
C552 C 0.3604 0.59945 0.76799 0.0
C553 C 0.33074 0.56763 0.78731 0.0
C554 C 0.33332 0.5438 0.84153 0.0
H555 H 0.46918 0.61255 0.74638 0.0
C556 C 0.47758 0.63307 0.79548 0.0
H557 H 0.46938 0.64651 0.92303 0.0
H558 H 0.38216 0.48732 0.04485 0.0
H559 H 0.43938 0.5013 0.1011 0.0
H560 H 0.49262 0.55671 0.06171 0.0
H561 H 0.48903 0.59854 0.96587 0.0
C562 C 0.46104 0.62626 0.87321 0.0
C563 C 0.42951 0.59176 0.89176 0.0
C564 C 0.43213 0.56753 0.94706 0.0
C565 C 0.40145 0.53555 0.96966 0.0
C566 C 0.40469 0.51197 1.0258 0.0
C567 C 0.43734 0.51967 0.05837 0.0
C568 C 0.46733 0.55087 0.03618 0.0
C569 C 0.46492 0.57465 0.98123 0.0
H570 H 0.82669 0.31833 0.30744 0.0
C571 C 0.80404 0.29736 0.27479 0.0
H572 H 0.76294 0.28288 0.18611 0.0
H573 H 0.73844 0.41025 0.20076 0.0
H574 H 0.68097 0.36102 0.23311 0.0
H575 H 0.67304 0.30223 0.25584 0.0
H576 H 0.72235 0.2924 0.24869 0.0
C577 C 0.78503 0.30455 0.2188 0.0
C578 C 0.7907 0.3407 0.2055 0.0
C579 C 0.76173 0.3465 0.21552 0.0
C580 C 0.76645 0.38063 0.20407 0.0
C581 C 0.73667 0.38516 0.21059 0.0
C582 C 0.70341 0.35708 0.22898 0.0
C583 C 0.69895 0.32402 0.24206 0.0
C584 C 0.72763 0.3187 0.23661 0.0
H585 H 0.82264 0.45057 0.04281 0.0
C586 C 0.81462 0.46164 0.09594 0.0
H587 H 0.79557 0.45556 0.22519 0.0
H588 H 0.85005 0.3382 0.15821 0.0
H589 H 0.90788 0.38768 0.12966 0.0
H590 H 0.91781 0.44789 0.13265 0.0
H591 H 0.86957 0.45874 0.16076 0.0
C592 C 0.80453 0.44491 0.17304 0.0
C593 C 0.80031 0.40934 0.18524 0.0
C594 C 0.82934 0.40366 0.17593 0.0
C595 C 0.82422 0.36915 0.18184 0.0
C596 C 0.85291 0.36397 0.16176 0.0
C597 C 0.88621 0.39216 0.14397 0.0
C598 C 0.89175 0.42602 0.14509 0.0
C599 C 0.86375 0.43186 0.16068 0.0
H600 H 0.38125 0.84312 0.40361 0.0
C601 C 0.35923 0.82403 0.44253 0.0
H602 H 0.34278 0.78678 0.54392 0.0
H603 H 0.47719 0.7693 0.47776 0.0
H604 H 0.43654 0.72352 0.38046 0.0
H605 H 0.37872 0.71733 0.34774 0.0
H606 H 0.36139 0.75716 0.41134 0.0
C607 C 0.36473 0.80663 0.50626 0.0
C608 C 0.40032 0.81165 0.52256 0.0
C609 C 0.40975 0.78783 0.48594 0.0
C610 C 0.44271 0.79088 0.50638 0.0
C611 C 0.45199 0.76745 0.46664 0.0
C612 C 0.42902 0.74122 0.41015 0.0
C613 C 0.3965 0.73778 0.39161 0.0
C614 C 0.38685 0.76077 0.4287 0.0
H615 H 0.4667 0.77036 0.66924 0.0
C616 C 0.49315 0.79037 0.6505 0.0
H617 H 0.52326 0.83717 0.57889 0.0
H618 H 0.39133 0.86305 0.59857 0.0
H619 H 0.43278 0.90982 0.69268 0.0
H620 H 0.48974 0.91473 0.72922 0.0
H621 H 0.50566 0.87288 0.67184 0.0
C622 C 0.49726 0.81657 0.59849 0.0
C623 C 0.46569 0.81711 0.56556 0.0
C624 C 0.45713 0.84211 0.59822 0.0
C625 C 0.42431 0.83932 0.57692 0.0
C626 C 0.41599 0.8641 0.61226 0.0
C627 C 0.43951 0.89102 0.66643 0.0
C628 C 0.47159 0.89378 0.68704 0.0
C629 C 0.48039 0.86961 0.65377 0.0
H630 H 0.67692 0.52697 0.96347 0.0
C631 C 0.69256 0.51463 0.97614 0.0
H632 H 0.69366 0.4674 0.98046 0.0
H633 H 0.53652 0.35573 1.01715 0.0
H634 H 0.55855 0.35295 0.15976 0.0
H635 H 0.6179 0.39792 0.20619 0.0
H636 H 0.6557 0.44577 0.10983 0.0
C637 C 0.67813 0.47981 0.96714 0.0
C638 C 0.64059 0.45645 0.94339 0.0
C639 C 0.61832 0.42926 1.00163 0.0
C640 C 0.58384 0.40371 0.97555 0.0
C641 C 0.56277 0.37608 0.03378 0.0
C642 C 0.57509 0.37416 0.11598 0.0
C643 C 0.60852 0.39945 0.14208 0.0
C644 C 0.62999 0.42672 0.08592 0.0
H645 H 0.56496 0.36619 0.75421 0.0
C646 C 0.54003 0.35736 0.78807 0.0
H647 H 0.51399 0.3662 0.89348 0.0
H648 H 0.67643 0.50404 0.81202 0.0
H649 H 0.652 0.51016 0.67683 0.0
H650 H 0.59003 0.46959 0.63962 0.0
H651 H 0.55227 0.42225 0.73779 0.0
C652 C 0.53853 0.37533 0.85763 0.0
C653 C 0.57148 0.40567 0.89169 0.0
C654 C 0.59249 0.43469 0.83689 0.0
C655 C 0.62756 0.45938 0.86103 0.0
C656 C 0.64898 0.48582 0.80033 0.0
C657 C 0.6354 0.48939 0.72159 0.0
C658 C 0.60055 0.4665 0.70051 0.0
C659 C 0.57926 0.43934 0.75707 0.0
loop_
_geom_bond_atom_site_label_1
_geom_bond_atom_site_label_2
_geom_bond_distance
_geom_bond_site_symmetry_2
_ccdc_geom_bond_type
Tb0 O3 2.453 . S
Tb0 O4 2.596 . S
Tb0 O5 2.374 . S
Tb0 O13 2.343 1_554 S
Tb0 O15 2.353 . S
Tb0 O17 2.427 1_554 S
Tb0 O18 2.513 1_554 S
C1 O5 1.251 . S
C1 O7 1.263 . S
Tb2 O4 2.343 1_556 S
Tb2 O7 2.353 1_556 S
Tb2 O10 2.427 1_556 S
Tb2 O11 2.513 1_556 S
Tb2 O12 2.453 . S
Tb2 O13 2.596 . S
Tb2 O14 2.374 . S
O3 Tb0 2.453 . S
O3 C19 1.245 . S
O4 Tb0 2.596 . S
O4 Tb2 2.343 1_554 S
O4 C19 1.259 . S
O5 Tb0 2.374 . S
O5 C1 1.251 . S
C6 O10 1.275 . S
C6 O11 1.246 . S
O7 C1 1.263 . S
O7 Tb2 2.353 1_554 S
C8 O12 1.245 . S
C8 O13 1.259 . S
C9 O14 1.250 . S
C9 O15 1.263 1_556 S
O10 Tb2 2.427 1_554 S
O10 C6 1.275 . S
O11 Tb2 2.513 1_554 S
O11 C6 1.246 . S
O12 Tb2 2.453 . S
O12 C8 1.245 . S
O13 Tb0 2.343 1_556 S
O13 Tb2 2.596 . S
O13 C8 1.259 . S
O14 Tb2 2.374 . S
O14 C9 1.250 . S
O15 Tb0 2.353 . S
O15 C9 1.263 1_554 S
C16 O17 1.275 . S
C16 O18 1.246 . S
O17 Tb0 2.427 1_556 S
O17 C16 1.275 . S
O18 Tb0 2.513 1_556 S
O18 C16 1.246 . S
C19 O3 1.245 . S
C19 O4 1.259 . S
Tb20 O23 2.453 . S
Tb20 O24 2.596 . S
Tb20 O25 2.374 . S
Tb20 O33 2.343 . S
Tb20 O35 2.353 . S
Tb20 O37 2.427 . S
Tb20 O38 2.513 . S
C21 O25 1.251 . S
C21 O27 1.263 . S
Tb22 O24 2.343 . S
Tb22 O27 2.353 . S
Tb22 O30 2.427 . S
Tb22 O31 2.513 . S
Tb22 O32 2.453 . S
Tb22 O33 2.596 . S
Tb22 O34 2.374 . S
O23 Tb20 2.453 . S
O23 C39 1.245 . S
O24 Tb20 2.596 . S
O24 Tb22 2.343 . S
O24 C39 1.259 . S
O25 Tb20 2.374 . S
O25 C21 1.251 . S
C26 O30 1.275 . S
C26 O31 1.246 . S
O27 C21 1.263 . S
O27 Tb22 2.353 . S
C28 O32 1.245 . S
C28 O33 1.259 . S
C29 O34 1.250 . S
C29 O35 1.263 . S
O30 Tb22 2.427 . S
O30 C26 1.275 . S
O31 Tb22 2.513 . S
O31 C26 1.246 . S
O32 Tb22 2.453 . S
O32 C28 1.245 . S
O33 Tb20 2.343 . S
O33 Tb22 2.596 . S
O33 C28 1.259 . S
O34 Tb22 2.374 . S
O34 C29 1.250 . S
O35 Tb20 2.353 . S
O35 C29 1.263 . S
C36 O37 1.275 . S
C36 O38 1.246 . S
O37 Tb20 2.427 . S
O37 C36 1.275 . S
O38 Tb20 2.513 . S
O38 C36 1.246 . S
C39 O23 1.245 . S
C39 O24 1.259 . S
Tb40 O43 2.453 . S
Tb40 O44 2.596 . S
Tb40 O45 2.374 . S
Tb40 O53 2.343 . S
Tb40 O55 2.353 . S
Tb40 O57 2.427 . S
Tb40 O58 2.513 . S
C41 O45 1.251 . S
C41 O47 1.263 . S
Tb42 O44 2.343 . S
Tb42 O47 2.353 . S
Tb42 O50 2.427 . S
Tb42 O51 2.513 . S
Tb42 O52 2.453 . S
Tb42 O53 2.596 . S
Tb42 O54 2.374 . S
O43 Tb40 2.453 . S
O43 C59 1.245 . S
O44 Tb40 2.596 . S
O44 Tb42 2.343 . S
O44 C59 1.259 . S
O45 Tb40 2.374 . S
O45 C41 1.251 . S
C46 O50 1.275 . S
C46 O51 1.246 . S
O47 C41 1.263 . S
O47 Tb42 2.353 . S
C48 O52 1.245 . S
C48 O53 1.259 . S
C49 O54 1.250 . S
C49 O55 1.263 . S
O50 Tb42 2.427 . S
O50 C46 1.275 . S
O51 Tb42 2.513 . S
O51 C46 1.246 . S
O52 Tb42 2.453 . S
O52 C48 1.245 . S
O53 Tb40 2.343 . S
O53 Tb42 2.596 . S
O53 C48 1.259 . S
O54 Tb42 2.374 . S
O54 C49 1.250 . S
O55 Tb40 2.353 . S
O55 C49 1.263 . S
C56 O57 1.275 . S
C56 O58 1.246 . S
O57 Tb40 2.427 . S
O57 C56 1.275 . S
O58 Tb40 2.513 . S
O58 C56 1.246 . S
C59 O43 1.245 . S
C59 O44 1.259 . S
Tb60 O63 2.453 . S
Tb60 O64 2.596 . S
Tb60 O65 2.374 . S
Tb60 O73 2.343 1_554 S
Tb60 O75 2.353 . S
Tb60 O77 2.427 1_554 S
Tb60 O78 2.513 1_554 S
C61 O65 1.251 . S
C61 O67 1.263 . S
Tb62 O64 2.343 1_556 S
Tb62 O67 2.353 1_556 S
Tb62 O70 2.427 1_556 S
Tb62 O71 2.513 1_556 S
Tb62 O72 2.453 . S
Tb62 O73 2.596 . S
Tb62 O74 2.374 . S
O63 Tb60 2.453 . S
O63 C79 1.245 . S
O64 Tb60 2.596 . S
O64 Tb62 2.343 1_554 S
O64 C79 1.259 . S
O65 Tb60 2.374 . S
O65 C61 1.251 . S
C66 O70 1.275 . S
C66 O71 1.246 . S
O67 C61 1.263 . S
O67 Tb62 2.353 1_554 S
C68 O72 1.245 . S
C68 O73 1.259 . S
C69 O74 1.250 . S
C69 O75 1.263 1_556 S
O70 Tb62 2.427 1_554 S
O70 C66 1.275 . S
O71 Tb62 2.513 1_554 S
O71 C66 1.246 . S
O72 Tb62 2.453 . S
O72 C68 1.245 . S
O73 Tb60 2.343 1_556 S
O73 Tb62 2.596 . S
O73 C68 1.259 . S
O74 Tb62 2.374 . S
O74 C69 1.250 . S
O75 Tb60 2.353 . S
O75 C69 1.263 1_554 S
C76 O77 1.275 . S
C76 O78 1.246 . S
O77 Tb60 2.427 1_556 S
O77 C76 1.275 . S
O78 Tb60 2.513 1_556 S
O78 C76 1.246 . S
C79 O63 1.245 . S
C79 O64 1.259 . S
Tb80 O83 2.453 . S
Tb80 O84 2.596 . S
Tb80 O85 2.374 . S
Tb80 O93 2.343 . S
Tb80 O95 2.353 . S
Tb80 O97 2.427 . S
Tb80 O98 2.513 . S
C81 O85 1.251 . S
C81 O87 1.263 . S
Tb82 O84 2.343 . S
Tb82 O87 2.353 . S
Tb82 O90 2.427 . S
Tb82 O91 2.513 . S
Tb82 O92 2.453 . S
Tb82 O93 2.596 . S
Tb82 O94 2.374 . S
O83 Tb80 2.453 . S
O83 C99 1.245 . S
O84 Tb80 2.596 . S
O84 Tb82 2.343 . S
O84 C99 1.259 . S
O85 Tb80 2.374 . S
O85 C81 1.251 . S
C86 O90 1.275 . S
C86 O91 1.246 . S
O87 C81 1.263 . S
O87 Tb82 2.353 . S
C88 O92 1.245 . S
C88 O93 1.259 . S
C89 O94 1.250 . S
C89 O95 1.263 . S
O90 Tb82 2.427 . S
O90 C86 1.275 . S
O91 Tb82 2.513 . S
O91 C86 1.246 . S
O92 Tb82 2.453 . S
O92 C88 1.245 . S
O93 Tb80 2.343 . S
O93 Tb82 2.596 . S
O93 C88 1.259 . S
O94 Tb82 2.374 . S
O94 C89 1.250 . S
O95 Tb80 2.353 . S
O95 C89 1.263 . S
C96 O97 1.275 . S
C96 O98 1.246 . S
O97 Tb80 2.427 . S
O97 C96 1.275 . S
O98 Tb80 2.513 . S
O98 C96 1.246 . S
C99 O83 1.245 . S
C99 O84 1.259 . S
Tb100 O103 2.453 . S
Tb100 O104 2.596 . S
Tb100 O105 2.374 . S
Tb100 O113 2.343 . S
Tb100 O115 2.353 . S
Tb100 O117 2.427 . S
Tb100 O118 2.513 . S
C101 O105 1.251 . S
C101 O107 1.263 . S
Tb102 O104 2.343 . S
Tb102 O107 2.353 . S
Tb102 O110 2.427 . S
Tb102 O111 2.513 . S
Tb102 O112 2.453 . S
Tb102 O113 2.596 . S
Tb102 O114 2.374 . S
O103 Tb100 2.453 . S
O103 C119 1.245 . S
O104 Tb100 2.596 . S
O104 Tb102 2.343 . S
O104 C119 1.259 . S
O105 Tb100 2.374 . S
O105 C101 1.251 . S
C106 O110 1.275 . S
C106 O111 1.246 . S
O107 C101 1.263 . S
O107 Tb102 2.353 . S
C108 O112 1.245 . S
C108 O113 1.259 . S
C109 O114 1.250 . S
C109 O115 1.263 . S
O110 Tb102 2.427 . S
O110 C106 1.275 . S
O111 Tb102 2.513 . S
O111 C106 1.246 . S
O112 Tb102 2.453 . S
O112 C108 1.245 . S
O113 Tb100 2.343 . S
O113 Tb102 2.596 . S
O113 C108 1.259 . S
O114 Tb102 2.374 . S
O114 C109 1.250 . S
O115 Tb100 2.353 . S
O115 C109 1.263 . S
C116 O117 1.275 . S
C116 O118 1.246 . S
O117 Tb100 2.427 . S
O117 C116 1.275 . S
O118 Tb100 2.513 . S
O118 C116 1.246 . S
C119 O103 1.245 . S
C119 O104 1.259 . S
H120 C121 0.951 . S
C121 H120 0.951 . S
C121 C127 1.265 . S
H122 C127 0.950 . S
H123 C131 0.949 . S
H124 C132 0.950 . S
H125 C133 0.951 . S
H126 C134 0.951 . S
C127 C121 1.265 . S
C127 H122 0.950 . S
C127 C128 1.478 . S
C128 C127 1.478 . S
C128 C129 1.397 . S
C128 C145 1.394 . S
C129 C128 1.397 . S
C129 C130 1.438 . S
C129 C134 1.429 . S
C130 C129 1.438 . S
C130 C131 1.428 . S
C130 C143 1.394 . S
C131 H123 0.949 . S
C131 C130 1.428 . S
C131 C132 1.345 . S
C132 H124 0.950 . S
C132 C131 1.345 . S
C132 C133 1.424 . S
C133 H125 0.951 . S
C133 C132 1.424 . S
C133 C134 1.347 . S
C134 H126 0.951 . S
C134 C129 1.429 . S
C134 C133 1.347 . S
H135 C136 0.951 . S
C136 H135 0.951 . S
C136 C142 1.265 . S
H137 C142 0.950 . S
H138 C146 0.949 . S
H139 C147 0.950 1_554 S
H140 C148 0.951 . S
H141 C149 0.951 . S
C142 C136 1.265 . S
C142 H137 0.950 . S
C142 C143 1.478 . S
C143 C130 1.394 . S
C143 C142 1.478 . S
C143 C144 1.397 . S
C144 C143 1.397 . S
C144 C145 1.438 . S
C144 C149 1.429 . S
C145 C128 1.394 . S
C145 C144 1.438 . S
C145 C146 1.428 . S
C146 H138 0.949 . S
C146 C145 1.428 . S
C146 C147 1.345 . S
C147 H139 0.950 1_556 S
C147 C146 1.345 . S
C147 C148 1.424 1_556 S
C148 H140 0.951 . S
C148 C147 1.424 1_554 S
C148 C149 1.347 1_554 S
C149 H141 0.951 . S
C149 C144 1.429 . S
C149 C148 1.347 1_556 S
H150 C151 0.951 . S
C151 H150 0.951 . S
C151 C157 1.265 . S
H152 C157 0.950 . S
H153 C161 0.949 . S
H154 C162 0.944 1_655 S
H155 C163 0.951 . S
H156 C164 0.951 . S
C157 C151 1.265 . S
C157 H152 0.950 . S
C157 C158 1.478 . S
C158 C157 1.478 . S
C158 C159 1.397 . S
C158 C175 1.394 . S
C159 C158 1.397 . S
C159 C160 1.405 1_455 S
C159 C164 1.429 . S
C160 C159 1.405 1_655 S
C160 C161 1.434 . S
C160 C173 1.420 . S
C161 H153 0.949 . S
C161 C160 1.434 . S
C161 C162 1.345 1_655 S
C162 H154 0.944 1_455 S
C162 C161 1.345 1_455 S
C162 C163 1.424 . S
C163 H155 0.951 . S
C163 C162 1.424 . S
C163 C164 1.347 . S
C164 H156 0.951 . S
C164 C159 1.429 . S
C164 C163 1.347 . S
H165 C166 0.951 . S
C166 H165 0.951 . S
C166 C172 1.265 . S
H167 C172 0.950 . S
H168 C176 0.949 . S
H169 C177 0.950 . S
H170 C178 0.951 . S
H171 C179 0.951 . S
C172 C166 1.265 . S
C172 H167 0.950 . S
C172 C173 1.478 . S
C173 C160 1.420 . S
C173 C172 1.478 . S
C173 C174 1.397 . S
C174 C173 1.397 . S
C174 C175 1.438 1_655 S
C174 C179 1.429 . S
C175 C158 1.394 . S
C175 C174 1.438 1_455 S
C175 C176 1.428 1_554 S
C176 H168 0.949 . S
C176 C175 1.428 1_556 S
C176 C177 1.345 . S
C177 H169 0.950 . S
C177 C176 1.345 . S
C177 C178 1.424 1_455 S
C178 H170 0.951 . S
C178 C177 1.424 1_655 S
C178 C179 1.347 1_556 S
C179 H171 0.951 . S
C179 C174 1.429 . S
C179 C178 1.347 1_554 S
H180 C181 0.951 . S
C181 H180 0.951 . S
C181 C187 1.265 . S
H182 C187 0.950 . S
H183 C191 0.949 . S
H184 C192 0.950 . S
H185 C193 0.942 1_545 S
H186 C194 0.951 . S
C187 C181 1.265 . S
C187 H182 0.950 . S
C187 C188 1.478 . S
C188 C187 1.478 . S
C188 C189 1.397 . S
C188 C205 1.394 . S
C189 C188 1.397 . S
C189 C190 1.438 1_545 S
C189 C194 1.429 . S
C190 C189 1.438 1_565 S
C190 C191 1.428 . S
C190 C203 1.394 . S
C191 H183 0.949 . S
C191 C190 1.428 . S
C191 C192 1.345 . S
C192 H184 0.950 . S
C192 C191 1.345 . S
C192 C193 1.449 . S
C193 H185 0.942 1_565 S
C193 C192 1.449 . S
C193 C194 1.332 1_565 S
C194 H186 0.951 . S
C194 C189 1.429 . S
C194 C193 1.332 1_545 S
H195 C196 0.951 . S
C196 H195 0.951 . S
C196 C202 1.265 . S
H197 C202 0.950 . S
H198 C206 0.949 . S
H199 C207 0.950 . S
H200 C208 0.951 . S
H201 C209 0.936 1_565 S
C202 C196 1.265 . S
C202 H197 0.950 . S
C202 C203 1.478 . S
C203 C190 1.394 . S
C203 C202 1.478 . S
C203 C204 1.397 1_565 S
C204 C203 1.397 1_545 S
C204 C205 1.438 . S
C204 C209 1.434 . S
C205 C188 1.394 . S
C205 C204 1.438 . S
C205 C206 1.428 . S
C206 H198 0.949 . S
C206 C205 1.428 . S
C206 C207 1.345 . S
C207 H199 0.950 . S
C207 C206 1.345 . S
C207 C208 1.424 . S
C208 H200 0.951 . S
C208 C207 1.424 . S
C208 C209 1.357 . S
C209 H201 0.936 1_545 S
C209 C204 1.434 . S
C209 C208 1.357 . S
H210 C211 0.951 . S
C211 H210 0.951 . S
C211 C217 1.265 . S
H212 C217 0.950 . S
H213 C221 0.949 . S
H214 C222 0.950 1_554 S
H215 C223 0.951 1_554 S
H216 C224 0.951 . S
C217 C211 1.265 . S
C217 H212 0.950 . S
C217 C218 1.478 . S
C218 C217 1.478 . S
C218 C219 1.397 . S
C218 C235 1.394 . S
C219 C218 1.397 . S
C219 C220 1.438 . S
C219 C224 1.429 . S
C220 C219 1.438 . S
C220 C221 1.428 . S
C220 C233 1.394 . S
C221 H213 0.949 . S
C221 C220 1.428 . S
C221 C222 1.345 . S
C222 H214 0.950 1_556 S
C222 C221 1.345 . S
C222 C223 1.424 . S
C223 H215 0.951 1_556 S
C223 C222 1.424 . S
C223 C224 1.347 . S
C224 H216 0.951 . S
C224 C219 1.429 . S
C224 C223 1.347 . S
H225 C226 0.951 . S
C226 H225 0.951 . S
C226 C232 1.265 . S
H227 C232 0.950 . S
H228 C236 0.949 . S
H229 C237 0.950 . S
H230 C238 0.951 . S
H231 C239 0.951 . S
C232 C226 1.265 . S
C232 H227 0.950 . S
C232 C233 1.478 . S
C233 C220 1.394 . S
C233 C232 1.478 . S
C233 C234 1.397 . S
C234 C233 1.397 . S
C234 C235 1.438 . S
C234 C239 1.429 . S
C235 C218 1.394 . S
C235 C234 1.438 . S
C235 C236 1.428 . S
C236 H228 0.949 . S
C236 C235 1.428 . S
C236 C237 1.345 . S
C237 H229 0.950 . S
C237 C236 1.345 . S
C237 C238 1.424 . S
C238 H230 0.951 . S
C238 C237 1.424 . S
C238 C239 1.347 . S
C239 H231 0.951 . S
C239 C234 1.429 . S
C239 C238 1.347 . S
H240 C241 0.951 . S
C241 H240 0.951 . S
C241 C247 1.265 . S
H242 C247 0.950 . S
H243 C251 0.949 . S
H244 C252 0.950 . S
H245 C253 0.951 . S
H246 C254 0.951 . S
C247 C241 1.265 . S
C247 H242 0.950 . S
C247 C248 1.478 . S
C248 C247 1.478 . S
C248 C249 1.391 1_455 S
C248 C265 1.394 . S
C249 C248 1.391 1_655 S
C249 C250 1.461 . S
C249 C254 1.412 1_655 S
C250 C249 1.461 . S
C250 C251 1.428 . S
C250 C263 1.394 . S
C251 H243 0.949 . S
C251 C250 1.428 . S
C251 C252 1.345 . S
C252 H244 0.950 . S
C252 C251 1.345 . S
C252 C253 1.424 . S
C253 H245 0.951 . S
C253 C252 1.424 . S
C253 C254 1.347 1_655 S
C254 H246 0.951 . S
C254 C249 1.412 1_455 S
C254 C253 1.347 1_455 S
H255 C256 0.951 . S
C256 H255 0.951 . S
C256 C262 1.265 . S
H257 C262 0.950 . S
H258 C266 0.949 . S
H259 C267 0.950 . S
H260 C268 0.951 . S
H261 C269 0.951 . S
C262 C256 1.265 . S
C262 H257 0.950 . S
C262 C263 1.478 . S
C263 C250 1.394 . S
C263 C262 1.478 . S
C263 C264 1.397 . S
C264 C263 1.397 . S
C264 C265 1.438 1_655 S
C264 C269 1.429 . S
C265 C248 1.394 . S
C265 C264 1.438 1_455 S
C265 C266 1.428 . S
C266 H258 0.949 . S
C266 C265 1.428 . S
C266 C267 1.345 . S
C267 H259 0.950 . S
C267 C266 1.345 . S
C267 C268 1.424 1_455 S
C268 H260 0.951 . S
C268 C267 1.424 1_655 S
C268 C269 1.347 . S
C269 H261 0.951 . S
C269 C264 1.429 . S
C269 C268 1.347 . S
H270 C271 0.951 . S
C271 H270 0.951 . S
C271 C277 1.265 . S
H272 C277 0.950 . S
H273 C281 0.949 . S
H274 C282 0.950 . S
H275 C283 0.951 . S
H276 C284 0.951 . S
C277 C271 1.265 . S
C277 H272 0.950 . S
C277 C278 1.478 . S
C278 C277 1.478 . S
C278 C279 1.397 1_545 S
C278 C295 1.394 . S
C279 C278 1.397 1_565 S
C279 C280 1.438 . S
C279 C284 1.429 1_565 S
C280 C279 1.438 . S
C280 C281 1.428 . S
C280 C293 1.394 . S
C281 H273 0.949 . S
C281 C280 1.428 . S
C281 C282 1.345 . S
C282 H274 0.950 . S
C282 C281 1.345 . S
C282 C283 1.424 . S
C283 H275 0.951 . S
C283 C282 1.424 . S
C283 C284 1.347 1_565 S
C284 H276 0.951 . S
C284 C279 1.429 1_545 S
C284 C283 1.347 1_545 S
H285 C286 0.951 . S
C286 H285 0.951 . S
C286 C292 1.265 . S
H287 C292 0.950 . S
H288 C296 0.949 . S
H289 C297 0.950 . S
H290 C298 0.951 . S
H291 C299 0.951 . S
C292 C286 1.265 . S
C292 H287 0.950 . S
C292 C293 1.478 . S
C293 C280 1.394 . S
C293 C292 1.478 . S
C293 C294 1.397 . S
C294 C293 1.397 . S
C294 C295 1.438 1_565 S
C294 C299 1.429 . S
C295 C278 1.394 . S
C295 C294 1.438 1_545 S
C295 C296 1.428 . S
C296 H288 0.949 . S
C296 C295 1.428 . S
C296 C297 1.345 . S
C297 H289 0.950 . S
C297 C296 1.345 . S
C297 C298 1.424 1_545 S
C298 H290 0.951 . S
C298 C297 1.424 1_565 S
C298 C299 1.347 . S
C299 H291 0.951 . S
C299 C294 1.429 . S
C299 C298 1.347 . S
H300 C301 0.951 . S
C301 H300 0.951 . S
C301 C307 1.265 . S
H302 C307 0.950 . S
H303 C311 0.949 . S
H304 C312 0.950 . S
H305 C313 0.951 . S
H306 C314 0.951 . S
C307 C301 1.265 . S
C307 H302 0.950 . S
C307 C308 1.478 . S
C308 C307 1.478 . S
C308 C309 1.397 . S
C308 C325 1.394 . S
C309 C308 1.397 . S
C309 C310 1.438 . S
C309 C314 1.429 . S
C310 C309 1.438 . S
C310 C311 1.428 . S
C310 C323 1.394 . S
C311 H303 0.949 . S
C311 C310 1.428 . S
C311 C312 1.345 . S
C312 H304 0.950 . S
C312 C311 1.345 . S
C312 C313 1.424 . S
C313 H305 0.951 . S
C313 C312 1.424 . S
C313 C314 1.347 . S
C314 H306 0.951 . S
C314 C309 1.429 . S
C314 C313 1.347 . S
H315 C316 0.951 . S
C316 H315 0.951 . S
C316 C322 1.265 . S
H317 C322 0.950 . S
H318 C326 0.949 . S
H319 C327 0.950 . S
H320 C328 0.951 . S
H321 C329 0.951 . S
C322 C316 1.265 . S
C322 H317 0.950 . S
C322 C323 1.478 . S
C323 C310 1.394 . S
C323 C322 1.478 . S
C323 C324 1.397 . S
C324 C323 1.397 . S
C324 C325 1.438 . S
C324 C329 1.429 . S
C325 C308 1.394 . S
C325 C324 1.438 . S
C325 C326 1.428 . S
C326 H318 0.949 . S
C326 C325 1.428 . S
C326 C327 1.345 . S
C327 H319 0.950 . S
C327 C326 1.345 . S
C327 C328 1.424 . S
C328 H320 0.951 . S
C328 C327 1.424 . S
C328 C329 1.347 . S
C329 H321 0.951 . S
C329 C324 1.429 . S
C329 C328 1.347 . S
H330 C331 0.951 . S
C331 H330 0.951 . S
C331 C337 1.265 . S
H332 C337 0.950 . S
H333 C341 0.949 . S
H334 C342 0.950 . S
H335 C343 0.951 . S
H336 C344 0.951 . S
C337 C331 1.265 . S
C337 H332 0.950 . S
C337 C338 1.478 1_554 S
C338 C337 1.478 1_556 S
C338 C339 1.397 . S
C338 C355 1.394 . S
C339 C338 1.397 . S
C339 C340 1.438 . S
C339 C344 1.429 . S
C340 C339 1.438 . S
C340 C341 1.428 . S
C340 C353 1.394 . S
C341 H333 0.949 . S
C341 C340 1.428 . S
C341 C342 1.345 . S
C342 H334 0.950 . S
C342 C341 1.345 . S
C342 C343 1.424 . S
C343 H335 0.951 . S
C343 C342 1.424 . S
C343 C344 1.347 . S
C344 H336 0.951 . S
C344 C339 1.429 . S
C344 C343 1.347 . S
H345 C346 0.951 . S
C346 H345 0.951 . S
C346 C352 1.265 . S
H347 C352 0.950 . S
H348 C356 0.949 . S
H349 C357 0.950 . S
H350 C358 0.951 . S
H351 C359 0.951 . S
C352 C346 1.265 . S
C352 H347 0.950 . S
C352 C353 1.478 . S
C353 C340 1.394 . S
C353 C352 1.478 . S
C353 C354 1.397 . S
C354 C353 1.397 . S
C354 C355 1.438 . S
C354 C359 1.429 . S
C355 C338 1.394 . S
C355 C354 1.438 . S
C355 C356 1.428 . S
C356 H348 0.949 . S
C356 C355 1.428 . S
C356 C357 1.345 . S
C357 H349 0.950 . S
C357 C356 1.345 . S
C357 C358 1.424 . S
C358 H350 0.951 . S
C358 C357 1.424 . S
C358 C359 1.347 . S
C359 H351 0.951 . S
C359 C354 1.429 . S
C359 C358 1.347 . S
H360 C361 0.951 . S
C361 H360 0.951 . S
C361 C367 1.265 . S
H362 C367 0.950 . S
H363 C371 0.949 . S
H364 C372 0.950 . S
H365 C373 0.951 . S
H366 C374 0.951 . S
C367 C361 1.265 . S
C367 H362 0.950 . S
C367 C368 1.478 . S
C368 C367 1.478 . S
C368 C369 1.397 . S
C368 C385 1.394 . S
C369 C368 1.397 . S
C369 C370 1.438 . S
C369 C374 1.429 . S
C370 C369 1.438 . S
C370 C371 1.428 . S
C370 C383 1.394 . S
C371 H363 0.949 . S
C371 C370 1.428 . S
C371 C372 1.345 . S
C372 H364 0.950 . S
C372 C371 1.345 . S
C372 C373 1.424 . S
C373 H365 0.951 . S
C373 C372 1.424 . S
C373 C374 1.347 . S
C374 H366 0.951 . S
C374 C369 1.429 . S
C374 C373 1.347 . S
H375 C376 0.951 . S
C376 H375 0.951 . S
C376 C382 1.265 . S
H377 C382 0.950 . S
H378 C386 0.949 . S
H379 C387 0.950 . S
H380 C388 0.951 . S
H381 C389 0.951 . S
C382 C376 1.265 . S
C382 H377 0.950 . S
C382 C383 1.478 1_556 S
C383 C370 1.394 . S
C383 C382 1.478 1_554 S
C383 C384 1.397 . S
C384 C383 1.397 . S
C384 C385 1.438 . S
C384 C389 1.429 . S
C385 C368 1.394 . S
C385 C384 1.438 . S
C385 C386 1.428 . S
C386 H378 0.949 . S
C386 C385 1.428 . S
C386 C387 1.345 . S
C387 H379 0.950 . S
C387 C386 1.345 . S
C387 C388 1.424 . S
C388 H380 0.951 . S
C388 C387 1.424 . S
C388 C389 1.347 . S
C389 H381 0.951 . S
C389 C384 1.429 . S
C389 C388 1.347 . S
H390 C391 0.951 . S
C391 H390 0.951 . S
C391 C397 1.265 . S
H392 C397 0.950 . S
H393 C401 0.949 . S
H394 C402 0.950 . S
H395 C403 0.951 . S
H396 C404 0.951 . S
C397 C391 1.265 . S
C397 H392 0.950 . S
C397 C398 1.478 . S
C398 C397 1.478 . S
C398 C399 1.397 . S
C398 C415 1.394 . S
C399 C398 1.397 . S
C399 C400 1.438 . S
C399 C404 1.429 . S
C400 C399 1.438 . S
C400 C401 1.428 . S
C400 C413 1.394 . S
C401 H393 0.949 . S
C401 C400 1.428 . S
C401 C402 1.345 . S
C402 H394 0.950 . S
C402 C401 1.345 . S
C402 C403 1.424 . S
C403 H395 0.951 . S
C403 C402 1.424 . S
C403 C404 1.347 . S
C404 H396 0.951 . S
C404 C399 1.429 . S
C404 C403 1.347 . S
H405 C406 0.951 . S
C406 H405 0.951 . S
C406 C412 1.265 . S
H407 C412 0.950 . S
H408 C416 0.949 . S
H409 C417 0.950 . S
H410 C418 0.951 . S
H411 C419 0.951 . S
C412 C406 1.265 . S
C412 H407 0.950 . S
C412 C413 1.478 . S
C413 C400 1.394 . S
C413 C412 1.478 . S
C413 C414 1.397 . S
C414 C413 1.397 . S
C414 C415 1.438 . S
C414 C419 1.429 . S
C415 C398 1.394 . S
C415 C414 1.438 . S
C415 C416 1.428 . S
C416 H408 0.949 . S
C416 C415 1.428 . S
C416 C417 1.345 . S
C417 H409 0.950 . S
C417 C416 1.345 . S
C417 C418 1.424 . S
C418 H410 0.951 . S
C418 C417 1.424 . S
C418 C419 1.347 . S
C419 H411 0.951 . S
C419 C414 1.429 . S
C419 C418 1.347 . S
H420 C421 0.951 . S
C421 H420 0.951 . S
C421 C427 1.265 . S
H422 C427 0.950 . S
H423 C431 0.949 . S
H424 C432 0.950 . S
H425 C433 0.951 . S
H426 C434 0.951 . S
C427 C421 1.265 . S
C427 H422 0.950 . S
C427 C428 1.478 . S
C428 C427 1.478 . S
C428 C429 1.397 . S
C428 C445 1.394 . S
C429 C428 1.397 . S
C429 C430 1.438 . S
C429 C434 1.429 . S
C430 C429 1.438 . S
C430 C431 1.428 . S
C430 C443 1.394 . S
C431 H423 0.949 . S
C431 C430 1.428 . S
C431 C432 1.345 . S
C432 H424 0.950 . S
C432 C431 1.345 . S
C432 C433 1.424 . S
C433 H425 0.951 . S
C433 C432 1.424 . S
C433 C434 1.347 . S
C434 H426 0.951 . S
C434 C429 1.429 . S
C434 C433 1.347 . S
H435 C436 0.951 . S
C436 H435 0.951 . S
C436 C442 1.265 . S
H437 C442 0.950 . S
H438 C446 0.949 . S
H439 C447 0.950 . S
H440 C448 0.951 . S
H441 C449 0.951 . S
C442 C436 1.265 . S
C442 H437 0.950 . S
C442 C443 1.478 1_554 S
C443 C430 1.394 . S
C443 C442 1.478 1_556 S
C443 C444 1.397 . S
C444 C443 1.397 . S
C444 C445 1.438 . S
C444 C449 1.429 . S
C445 C428 1.394 . S
C445 C444 1.438 . S
C445 C446 1.428 . S
C446 H438 0.949 . S
C446 C445 1.428 . S
C446 C447 1.345 . S
C447 H439 0.950 . S
C447 C446 1.345 . S
C447 C448 1.424 . S
C448 H440 0.951 . S
C448 C447 1.424 . S
C448 C449 1.347 . S
C449 H441 0.951 . S
C449 C444 1.429 . S
C449 C448 1.347 . S
H450 C451 0.951 . S
C451 H450 0.951 . S
C451 C457 1.265 . S
H452 C457 0.950 . S
H453 C461 0.949 . S
H454 C462 0.950 . S
H455 C463 0.951 . S
H456 C464 0.951 . S
C457 C451 1.265 . S
C457 H452 0.950 . S
C457 C458 1.478 . S
C458 C457 1.478 . S
C458 C459 1.397 . S
C458 C475 1.394 . S
C459 C458 1.397 . S
C459 C460 1.438 . S
C459 C464 1.429 . S
C460 C459 1.438 . S
C460 C461 1.428 . S
C460 C473 1.394 . S
C461 H453 0.949 . S
C461 C460 1.428 . S
C461 C462 1.345 . S
C462 H454 0.950 . S
C462 C461 1.345 . S
C462 C463 1.424 . S
C463 H455 0.951 . S
C463 C462 1.424 . S
C463 C464 1.347 . S
C464 H456 0.951 . S
C464 C459 1.429 . S
C464 C463 1.347 . S
H465 C466 0.951 . S
C466 H465 0.951 . S
C466 C472 1.265 . S
H467 C472 0.950 . S
H468 C476 0.949 . S
H469 C477 0.950 . S
H470 C478 0.951 . S
H471 C479 0.951 . S
C472 C466 1.265 . S
C472 H467 0.950 . S
C472 C473 1.478 1_556 S
C473 C460 1.394 . S
C473 C472 1.478 1_554 S
C473 C474 1.397 . S
C474 C473 1.397 . S
C474 C475 1.438 . S
C474 C479 1.429 . S
C475 C458 1.394 . S
C475 C474 1.438 . S
C475 C476 1.428 . S
C476 H468 0.949 . S
C476 C475 1.428 . S
C476 C477 1.345 . S
C477 H469 0.950 . S
C477 C476 1.345 . S
C477 C478 1.424 . S
C478 H470 0.951 . S
C478 C477 1.424 . S
C478 C479 1.347 . S
C479 H471 0.951 . S
C479 C474 1.429 . S
C479 C478 1.347 . S
H480 C481 0.951 . S
C481 H480 0.951 . S
C481 C487 1.265 . S
H482 C487 0.950 . S
H483 C491 0.949 . S
H484 C492 0.950 . S
H485 C493 0.951 . S
H486 C494 0.951 . S
C487 C481 1.265 . S
C487 H482 0.950 . S
C487 C488 1.478 . S
C488 C487 1.478 . S
C488 C489 1.397 . S
C488 C505 1.394 . S
C489 C488 1.397 . S
C489 C490 1.438 . S
C489 C494 1.429 . S
C490 C489 1.438 . S
C490 C491 1.428 . S
C490 C503 1.394 . S
C491 H483 0.949 . S
C491 C490 1.428 . S
C491 C492 1.345 . S
C492 H484 0.950 . S
C492 C491 1.345 . S
C492 C493 1.424 . S
C493 H485 0.951 . S
C493 C492 1.424 . S
C493 C494 1.347 . S
C494 H486 0.951 . S
C494 C489 1.429 . S
C494 C493 1.347 . S
H495 C496 0.951 . S
C496 H495 0.951 . S
C496 C502 1.265 . S
H497 C502 0.950 . S
H498 C506 0.949 . S
H499 C507 0.961 . S
H500 C508 0.951 1_556 S
H501 C509 0.951 . S
C502 C496 1.265 . S
C502 H497 0.950 . S
C502 C503 1.478 . S
C503 C490 1.394 . S
C503 C502 1.478 . S
C503 C504 1.397 . S
C504 C503 1.397 . S
C504 C505 1.438 . S
C504 C509 1.429 . S
C505 C488 1.394 . S
C505 C504 1.438 . S
C505 C506 1.428 . S
C506 H498 0.949 . S
C506 C505 1.428 . S
C506 C507 1.336 1_554 S
C507 H499 0.961 . S
C507 C506 1.336 1_556 S
C507 C508 1.421 1_556 S
C508 H500 0.951 1_554 S
C508 C507 1.421 1_554 S
C508 C509 1.347 . S
C509 H501 0.951 . S
C509 C504 1.429 . S
C509 C508 1.347 . S
H510 C511 0.951 . S
C511 H510 0.951 . S
C511 C517 1.265 . S
H512 C517 0.950 . S
H513 C521 0.949 . S
H514 C522 0.950 . S
H515 C523 0.951 . S
H516 C524 0.951 . S
C517 C511 1.265 . S
C517 H512 0.950 . S
C517 C518 1.478 . S
C518 C517 1.478 . S
C518 C519 1.397 . S
C518 C535 1.394 . S
C519 C518 1.397 . S
C519 C520 1.438 . S
C519 C524 1.429 . S
C520 C519 1.438 . S
C520 C521 1.428 . S
C520 C533 1.394 . S
C521 H513 0.949 . S
C521 C520 1.428 . S
C521 C522 1.345 . S
C522 H514 0.950 . S
C522 C521 1.345 . S
C522 C523 1.424 . S
C523 H515 0.951 . S
C523 C522 1.424 . S
C523 C524 1.347 . S
C524 H516 0.951 . S
C524 C519 1.429 . S
C524 C523 1.347 . S
H525 C526 0.951 . S
C526 H525 0.951 . S
C526 C532 1.265 . S
H527 C532 0.950 . S
H528 C536 0.949 . S
H529 C537 0.950 . S
H530 C538 0.951 . S
H531 C539 0.951 . S
C532 C526 1.265 . S
C532 H527 0.950 . S
C532 C533 1.478 . S
C533 C520 1.394 . S
C533 C532 1.478 . S
C533 C534 1.397 . S
C534 C533 1.397 . S
C534 C535 1.438 . S
C534 C539 1.429 . S
C535 C518 1.394 . S
C535 C534 1.438 . S
C535 C536 1.428 . S
C536 H528 0.949 . S
C536 C535 1.428 . S
C536 C537 1.345 . S
C537 H529 0.950 . S
C537 C536 1.345 . S
C537 C538 1.424 . S
C538 H530 0.951 . S
C538 C537 1.424 . S
C538 C539 1.347 . S
C539 H531 0.951 . S
C539 C534 1.429 . S
C539 C538 1.347 . S
H540 C541 0.951 . S
C541 H540 0.951 . S
C541 C547 1.265 . S
H542 C547 0.950 . S
H543 C551 0.949 . S
H544 C552 0.950 . S
H545 C553 0.951 . S
H546 C554 0.951 . S
C547 C541 1.265 . S
C547 H542 0.950 . S
C547 C548 1.478 . S
C548 C547 1.478 . S
C548 C549 1.397 . S
C548 C565 1.394 . S
C549 C548 1.397 . S
C549 C550 1.438 . S
C549 C554 1.429 . S
C550 C549 1.438 . S
C550 C551 1.428 . S
C550 C563 1.394 . S
C551 H543 0.949 . S
C551 C550 1.428 . S
C551 C552 1.345 . S
C552 H544 0.950 . S
C552 C551 1.345 . S
C552 C553 1.424 . S
C553 H545 0.951 . S
C553 C552 1.424 . S
C553 C554 1.347 . S
C554 H546 0.951 . S
C554 C549 1.429 . S
C554 C553 1.347 . S
H555 C556 0.951 . S
C556 H555 0.951 . S
C556 C562 1.265 . S
H557 C562 0.950 . S
H558 C566 0.949 . S
H559 C567 0.950 . S
H560 C568 0.951 . S
H561 C569 0.951 . S
C562 C556 1.265 . S
C562 H557 0.950 . S
C562 C563 1.478 . S
C563 C550 1.394 . S
C563 C562 1.478 . S
C563 C564 1.397 . S
C564 C563 1.397 . S
C564 C565 1.438 . S
C564 C569 1.429 . S
C565 C548 1.394 . S
C565 C564 1.438 . S
C565 C566 1.428 . S
C566 H558 0.949 . S
C566 C565 1.428 . S
C566 C567 1.345 . S
C567 H559 0.950 . S
C567 C566 1.345 . S
C567 C568 1.424 . S
C568 H560 0.951 . S
C568 C567 1.424 . S
C568 C569 1.347 . S
C569 H561 0.951 . S
C569 C564 1.429 . S
C569 C568 1.347 . S
H570 C571 0.951 . S
C571 H570 0.951 . S
C571 C577 1.265 . S
H572 C577 0.950 . S
H573 C581 0.949 . S
H574 C582 0.950 . S
H575 C583 0.951 . S
H576 C584 0.951 . S
C577 C571 1.265 . S
C577 H572 0.950 . S
C577 C578 1.478 . S
C578 C577 1.478 . S
C578 C579 1.397 . S
C578 C595 1.394 . S
C579 C578 1.397 . S
C579 C580 1.438 . S
C579 C584 1.429 . S
C580 C579 1.438 . S
C580 C581 1.428 . S
C580 C593 1.394 . S
C581 H573 0.949 . S
C581 C580 1.428 . S
C581 C582 1.345 . S
C582 H574 0.950 . S
C582 C581 1.345 . S
C582 C583 1.424 . S
C583 H575 0.951 . S
C583 C582 1.424 . S
C583 C584 1.347 . S
C584 H576 0.951 . S
C584 C579 1.429 . S
C584 C583 1.347 . S
H585 C586 0.951 . S
C586 H585 0.951 . S
C586 C592 1.265 . S
H587 C592 0.950 . S
H588 C596 0.949 . S
H589 C597 0.950 . S
H590 C598 0.951 . S
H591 C599 0.951 . S
C592 C586 1.265 . S
C592 H587 0.950 . S
C592 C593 1.478 . S
C593 C580 1.394 . S
C593 C592 1.478 . S
C593 C594 1.397 . S
C594 C593 1.397 . S
C594 C595 1.438 . S
C594 C599 1.429 . S
C595 C578 1.394 . S
C595 C594 1.438 . S
C595 C596 1.428 . S
C596 H588 0.949 . S
C596 C595 1.428 . S
C596 C597 1.345 . S
C597 H589 0.950 . S
C597 C596 1.345 . S
C597 C598 1.424 . S
C598 H590 0.951 . S
C598 C597 1.424 . S
C598 C599 1.347 . S
C599 H591 0.951 . S
C599 C594 1.429 . S
C599 C598 1.347 . S
H600 C601 0.951 . S
C601 H600 0.951 . S
C601 C607 1.265 . S
H602 C607 0.950 . S
H603 C611 0.949 . S
H604 C612 0.950 . S
H605 C613 0.951 . S
H606 C614 0.951 . S
C607 C601 1.265 . S
C607 H602 0.950 . S
C607 C608 1.478 . S
C608 C607 1.478 . S
C608 C609 1.397 . S
C608 C625 1.394 . S
C609 C608 1.397 . S
C609 C610 1.438 . S
C609 C614 1.429 . S
C610 C609 1.438 . S
C610 C611 1.428 . S
C610 C623 1.394 . S
C611 H603 0.949 . S
C611 C610 1.428 . S
C611 C612 1.345 . S
C612 H604 0.950 . S
C612 C611 1.345 . S
C612 C613 1.424 . S
C613 H605 0.951 . S
C613 C612 1.424 . S
C613 C614 1.347 . S
C614 H606 0.951 . S
C614 C609 1.429 . S
C614 C613 1.347 . S
H615 C616 0.951 . S
C616 H615 0.951 . S
C616 C622 1.265 . S
H617 C622 0.950 . S
H618 C626 0.949 . S
H619 C627 0.950 . S
H620 C628 0.951 . S
H621 C629 0.951 . S
C622 C616 1.265 . S
C622 H617 0.950 . S
C622 C623 1.478 . S
C623 C610 1.394 . S
C623 C622 1.478 . S
C623 C624 1.397 . S
C624 C623 1.397 . S
C624 C625 1.438 . S
C624 C629 1.429 . S
C625 C608 1.394 . S
C625 C624 1.438 . S
C625 C626 1.428 . S
C626 H618 0.949 . S
C626 C625 1.428 . S
C626 C627 1.345 . S
C627 H619 0.950 . S
C627 C626 1.345 . S
C627 C628 1.424 . S
C628 H620 0.951 . S
C628 C627 1.424 . S
C628 C629 1.347 . S
C629 H621 0.951 . S
C629 C624 1.429 . S
C629 C628 1.347 . S
H630 C631 0.951 . S
C631 H630 0.951 . S
C631 C637 1.265 . S
H632 C637 0.950 . S
H633 C641 0.949 . S
H634 C642 0.950 . S
H635 C643 0.951 . S
H636 C644 0.951 . S
C637 C631 1.265 . S
C637 H632 0.950 . S
C637 C638 1.478 . S
C638 C637 1.478 . S
C638 C639 1.397 . S
C638 C655 1.394 . S
C639 C638 1.397 . S
C639 C640 1.438 . S
C639 C644 1.429 1_556 S
C640 C639 1.438 . S
C640 C641 1.428 . S
C640 C653 1.394 . S
C641 H633 0.949 . S
C641 C640 1.428 . S
C641 C642 1.345 1_556 S
C642 H634 0.950 . S
C642 C641 1.345 1_554 S
C642 C643 1.424 . S
C643 H635 0.951 . S
C643 C642 1.424 . S
C643 C644 1.347 . S
C644 H636 0.951 . S
C644 C639 1.429 1_554 S
C644 C643 1.347 . S
H645 C646 0.951 . S
C646 H645 0.951 . S
C646 C652 1.265 . S
H647 C652 0.950 . S
H648 C656 0.949 . S
H649 C657 0.950 . S
H650 C658 0.951 . S
H651 C659 0.951 . S
C652 C646 1.265 . S
C652 H647 0.950 . S
C652 C653 1.478 . S
C653 C640 1.394 . S
C653 C652 1.478 . S
C653 C654 1.397 . S
C654 C653 1.397 . S
C654 C655 1.438 . S
C654 C659 1.429 . S
C655 C638 1.394 . S
C655 C654 1.438 . S
C655 C656 1.428 . S
C656 H648 0.949 . S
C656 C655 1.428 . S
C656 C657 1.345 . S
C657 H649 0.950 . S
C657 C656 1.345 . S
C657 C658 1.424 . S
C658 H650 0.951 . S
C658 C657 1.424 . S
C658 C659 1.347 . S
C659 H651 0.951 . S
C659 C654 1.429 . S
C659 C658 1.347 . S
C121 C101 1.497 . S
C136 C16 1.411 . S
C151 C1 1.471 . S
C166 C36 1.448 . S
C181 C21 1.498 . S
C196 C56 1.413 . S
C211 C41 1.477 . S
C226 C76 1.458 . S
C241 C96 1.413 . S
C256 C61 1.457 . S
C271 C116 1.447 . S
C286 C81 1.470 . S
C301 C8 1.885 . S
C316 C19 1.885 . S
C331 C28 1.867 . S
C346 C39 1.867 . S
C361 C48 1.840 . S
C376 C59 1.840 . S
C391 C68 1.889 . S
C406 C79 1.889 . S
C421 C99 1.886 . S
C436 C88 1.886 . S
C451 C108 1.838 . S
C466 C119 1.838 . S
C481 C6 1.376 . S
C496 C89 1.452 . S
C511 C26 1.348 . S
C526 C109 1.391 . S
C541 C9 1.402 . S
C556 C46 1.334 . S
C571 C29 1.416 . S
C586 C66 1.336 . S
C601 C86 1.348 . S
C616 C49 1.391 . S
C631 C69 1.451 . S
C646 C106 1.373 . S
