# Generated by pormake.
# Topology rob, (6)-cn, num edge types: 1
# Building blocks:
#     Node 0, Type 0, BuildingBlock: LEVNOQ01_clean_sbu_1, # of connection points: 6
#     Node 1, Type 0, BuildingBlock: LEVNOQ01_clean_sbu_1, # of connection points: 6
#     Node 2, Type 0, BuildingBlock: LEVNOQ01_clean_sbu_1, # of connection points: 6
#     Node 3, Type 0, BuildingBlock: LEVNOQ01_clean_sbu_1, # of connection points: 6
#     Edge 4, Type (0, 0), BuildingBlock: XUDNAN_clean_linker_2, # of connection points: 2
#     Edge 5, Type (0, 0), BuildingBlock: XUDNAN_clean_linker_2, # of connection points: 2
#     Edge 6, Type (0, 0), BuildingBlock: XUDNAN_clean_linker_2, # of connection points: 2
#     Edge 7, Type (0, 0), BuildingBlock: XUDNAN_clean_linker_2, # of connection points: 2
#     Edge 8, Type (0, 0), BuildingBlock: XUDNAN_clean_linker_2, # of connection points: 2
#     Edge 9, Type (0, 0), BuildingBlock: XUDNAN_clean_linker_2, # of connection points: 2
#     Edge 10, Type (0, 0), BuildingBlock: XUDNAN_clean_linker_2, # of connection points: 2
#     Edge 11, Type (0, 0), BuildingBlock: XUDNAN_clean_linker_2, # of connection points: 2
#     Edge 12, Type (0, 0), BuildingBlock: XUDNAN_clean_linker_2, # of connection points: 2
#     Edge 13, Type (0, 0), BuildingBlock: XUDNAN_clean_linker_2, # of connection points: 2
#     Edge 14, Type (0, 0), BuildingBlock: XUDNAN_clean_linker_2, # of connection points: 2
#     Edge 15, Type (0, 0), BuildingBlock: XUDNAN_clean_linker_2, # of connection points: 2
# Relax obj value: 0.201
# Max RMSD: 0.226
# Mean RMSD: 0.226
data_MOF--net-rob--node1-LEVNOQ01_clean_sbu_1--edge1-XUDNAN_clean_linker_2
_symmetry_space_group_name_H-M    P1
_symmetry_Int_Tables_number       1
_symmetry_cell_setting            triclinic
loop_
_symmetry_equiv_pos_as_xyz
'x, y, z'
_cell_length_a     15.514285
_cell_length_b     27.072893
_cell_length_c     25.331055
_cell_angle_alpha  108.01341
_cell_angle_beta   90.026174
_cell_angle_gamma 90.349766
loop_
_atom_site_label
_atom_site_type_symbol
_atom_site_fract_x
_atom_site_fract_y
_atom_site_fract_z
_atom_type_partial_charge
O0 O 0.03646 0.2894 0.04988 0.0
Mg1 Mg 0.14696 0.32868 0.09063 0.0
O2 O 0.10528 0.21677 0.04112 0.0
Mg3 Mg 0.24706 0.22631 0.01283 0.0
O4 O 0.24209 0.31433 0.03387 0.0
O5 O 0.19608 0.39427 0.07428 0.0
O6 O 0.38813 0.23705 0.98584 0.0
O7 O 0.20789 0.21766 0.92147 0.0
Mg8 Mg 0.34441 0.12542 0.93189 0.0
O9 O 0.25446 0.13802 0.99202 0.0
O10 O 0.45908 0.16373 0.96754 0.0
O11 O 0.28561 0.15149 0.8688 0.0
O12 O 0.30092 0.05881 0.94814 0.0
C13 C 0.25526 0.26454 0.15045 0.0
C14 C 0.03575 0.24303 0.05104 0.0
C15 C 0.24986 0.36355 0.04154 0.0
C16 C 0.45839 0.21187 0.97324 0.0
C17 C 0.23254 0.18841 0.87375 0.0
C18 C 0.25036 0.08857 0.9845 0.0
O19 O 0.20145 0.30086 0.15408 0.0
O20 O 0.28415 0.23536 0.10394 0.0
O21 O 0.54675 0.85201 0.06908 0.0
Mg22 Mg 0.67117 0.83284 0.08935 0.0
O23 O 0.56222 0.76919 0.05155 0.0
Mg24 Mg 0.7028 0.75286 0.01316 0.0
O25 O 0.7744 0.83816 0.04141 0.0
O26 O 0.73109 0.90047 0.11829 0.0
O27 O 0.83269 0.72699 0.96754 0.0
O28 O 0.66194 0.78089 0.93585 0.0
Mg29 Mg 0.6451 0.69064 0.92519 0.0
O30 O 0.64285 0.66519 0.99172 0.0
O31 O 0.76678 0.69177 0.88765 0.0
O32 O 0.54342 0.73782 0.91348 0.0
O33 O 0.60051 0.61818 0.90532 0.0
C34 C 0.73151 0.75535 0.14087 0.0
C35 C 0.51327 0.80867 0.06518 0.0
C36 C 0.78321 0.88471 0.0771 0.0
C37 C 0.83575 0.70664 0.91488 0.0
C38 C 0.59327 0.7722 0.90694 0.0
C39 C 0.60989 0.62288 0.95721 0.0
O40 O 0.68964 0.79729 0.15248 0.0
O41 O 0.75129 0.73173 0.09059 0.0
O42 O 0.06511 0.65793 0.45332 0.0
Mg43 Mg 0.19151 0.66985 0.42948 0.0
O44 O 0.09052 0.73907 0.46285 0.0
Mg45 Mg 0.23262 0.75239 0.50319 0.0
O46 O 0.29819 0.66623 0.47492 0.0
O47 O 0.24947 0.60124 0.40173 0.0
O48 O 0.37112 0.76772 0.54407 0.0
O49 O 0.18415 0.73764 0.58431 0.0
Mg50 Mg 0.275 0.84531 0.5872 0.0
O51 O 0.17679 0.83755 0.53197 0.0
O52 O 0.40251 0.84968 0.56181 0.0
O53 O 0.24857 0.80478 0.64511 0.0
O54 O 0.21022 0.91201 0.5988 0.0
C55 C 0.25229 0.74619 0.37526 0.0
C56 C 0.03766 0.70085 0.45082 0.0
C57 C 0.30579 0.61916 0.44041 0.0
C58 C 0.42603 0.80469 0.55969 0.0
C59 C 0.20567 0.76268 0.63431 0.0
C60 C 0.1623 0.88655 0.55759 0.0
O61 O 0.20734 0.70528 0.36634 0.0
O62 O 0.27964 0.76993 0.42406 0.0
O63 O 0.52892 0.20819 0.50303 0.0
Mg64 Mg 0.65308 0.18661 0.47048 0.0
O65 O 0.59804 0.2719 0.48746 0.0
Mg66 Mg 0.73801 0.26562 0.52393 0.0
O67 O 0.75301 0.17398 0.51582 0.0
O68 O 0.66454 0.11169 0.46342 0.0
O69 O 0.8779 0.26593 0.56169 0.0
O70 O 0.68206 0.27208 0.61113 0.0
Mg71 Mg 0.77908 0.36725 0.61276 0.0
O72 O 0.72862 0.35574 0.5353 0.0
O73 O 0.90659 0.34495 0.61719 0.0
O74 O 0.69438 0.35097 0.6705 0.0
O75 O 0.76158 0.43396 0.59534 0.0
C76 C 0.75638 0.22357 0.39026 0.0
C77 C 0.52687 0.24831 0.48804 0.0
C78 C 0.72984 0.12514 0.49626 0.0
C79 C 0.92862 0.29819 0.59538 0.0
C80 C 0.66927 0.30431 0.65918 0.0
C81 C 0.72935 0.40645 0.54835 0.0
O82 O 0.69146 0.1961 0.39381 0.0
O83 O 0.79258 0.25294 0.43436 0.0
H84 H 0.45443 0.57843 0.93018 0.0
H85 H 0.68215 0.57449 0.02779 0.0
H86 H 0.62029 0.4989 0.05158 0.0
H87 H 0.30538 0.55127 0.02588 0.0
H88 H 0.23347 0.51482 0.97169 0.0
H89 H 0.29915 0.56599 0.96129 0.0
H90 H 0.36062 0.50081 0.87188 0.0
H91 H 0.29762 0.44868 0.88275 0.0
H92 H 0.41288 0.44277 0.87559 0.0
H93 H 0.53269 0.42103 0.06082 0.0
H94 H 0.41749 0.36048 0.07074 0.0
H95 H 0.24546 0.42188 0.97224 0.0
C96 C 0.49138 0.56154 0.95652 0.0
C97 C 0.57322 0.58148 0.97677 0.0
C98 C 0.61923 0.55942 1.012 0.0
C99 C 0.5849 0.51638 0.02519 0.0
C100 C 0.50424 0.49695 1.00348 0.0
C101 C 0.4575 0.51973 0.97087 0.0
C102 C 0.3698 0.49469 0.95598 0.0
C103 C 0.29772 0.53401 0.98018 0.0
C104 C 0.35969 0.47029 0.89281 0.0
C105 C 0.37428 0.45357 0.9847 0.0
C106 C 0.45264 0.45479 1.01126 0.0
C107 C 0.47101 0.42012 0.04056 0.0
C108 C 0.40591 0.3854 0.04528 0.0
C109 C 0.32378 0.3863 0.02137 0.0
C110 C 0.30857 0.41989 0.98977 0.0
H111 H 0.43126 0.63331 0.52207 0.0
H112 H 0.35041 0.52903 0.36195 0.0
H113 H 0.46811 0.46984 0.36458 0.0
H114 H 0.67687 0.59612 0.49494 0.0
H115 H 0.68715 0.60918 0.5689 0.0
H116 H 0.61151 0.64499 0.5409 0.0
H117 H 0.49586 0.61507 0.60298 0.0
H118 H 0.5736 0.57478 0.62217 0.0
H119 H 0.47519 0.5464 0.58778 0.0
H120 H 0.57774 0.41424 0.39105 0.0
H121 H 0.66947 0.36768 0.44043 0.0
H122 H 0.68298 0.50817 0.5815 0.0
C123 C 0.43893 0.59825 0.4874 0.0
C124 C 0.38041 0.58565 0.44238 0.0
C125 C 0.39307 0.53939 0.3976 0.0
C126 C 0.46 0.5053 0.39847 0.0
C127 C 0.51421 0.51755 0.44436 0.0
C128 C 0.50571 0.56338 0.48756 0.0
C129 C 0.57034 0.56571 0.53309 0.0
C130 C 0.64063 0.60641 0.53471 0.0
C131 C 0.52605 0.57605 0.58983 0.0
C132 C 0.60772 0.51158 0.51193 0.0
C133 C 0.57784 0.48529 0.45949 0.0
C134 C 0.60125 0.434 0.43232 0.0
C135 C 0.65368 0.40807 0.46046 0.0
C136 C 0.6832 0.43409 0.51483 0.0
C137 C 0.66184 0.48701 0.53985 0.0
H138 H 0.18941 0.9893 0.94815 0.0
H139 H 0.16064 0.13542 0.07998 0.0
H140 H 0.04326 0.09646 0.12045 0.0
H141 H 0.96851 0.96038 0.9273 0.0
H142 H -0.02015 0.89132 0.91372 0.0
H143 H 0.06725 0.92863 0.89831 0.0
H144 H 0.16956 0.89482 0.96003 0.0
H145 H 0.08242 0.85727 0.97554 0.0
H146 H 0.14077 0.9031 0.03119 0.0
H147 H 0.92331 0.04467 0.14172 0.0
H148 H 0.81013 0.98277 0.14612 0.0
H149 H 0.91367 0.86943 0.9987 0.0
C150 C 0.15916 0.01296 0.98597 0.0
C151 C 0.18395 0.06538 1.01118 0.0
C152 C 0.14215 0.09532 0.06004 0.0
C153 C 0.07561 0.07351 0.0832 0.0
C154 C 0.05128 0.02211 0.05643 0.0
C155 C 0.09191 0.99209 1.00904 0.0
C156 C 0.05069 0.93862 0.98696 0.0
C157 C 0.01441 0.92923 0.9281 0.0
C158 C 0.11469 0.89594 0.98856 0.0
C159 C -0.02081 0.94359 0.02887 0.0
C160 C -0.01854 0.99197 0.06871 0.0
C161 C 0.9212 0.0066 0.11103 0.0
C162 C 0.85689 0.97092 0.11293 0.0
C163 C 0.85275 0.92093 0.07266 0.0
C164 C 0.91507 0.90716 0.03008 0.0
H165 H 0.8913 0.13138 0.5438 0.0
H166 H 0.68167 0.02384 0.47395 0.0
H167 H 0.76893 0.95128 0.48259 0.0
H168 H 0.06176 0.04838 0.47635 0.0
H169 H 0.13325 0.07043 0.53522 0.0
H170 H 0.05024 0.11257 0.52444 0.0
H171 H -0.00896 0.12175 0.62586 0.0
H172 H 0.07692 0.07959 0.63302 0.0
H173 H 0.96651 0.06339 0.64261 0.0
H174 H 0.8802 0.88968 0.49602 0.0
H175 H 0.00956 0.84335 0.51244 0.0
H176 H 0.14647 0.99024 0.57292 0.0
C177 C 0.86325 0.09274 0.53131 0.0
C178 C 0.77972 0.08343 0.50818 0.0
C179 C 0.74565 0.03209 0.49173 0.0
C180 C 0.79461 0.99046 0.49647 0.0
C181 C 0.87746 1.00069 0.51805 0.0
C182 C 0.91137 0.05051 0.53564 0.0
C183 C 0.00312 0.05045 0.55577 0.0
C184 C 0.06582 0.07174 0.52093 0.0
C185 C 0.00991 0.08062 0.61798 0.0
C186 C 0.01601 0.99287 0.5454 0.0
C187 C 0.94255 0.96484 0.524 0.0
C188 C 0.93881 0.91096 0.51137 0.0
C189 C 0.01248 0.88498 0.52054 0.0
C190 C 0.08804 0.91311 0.54279 0.0
C191 C 0.08959 0.96771 0.55538 0.0
H192 H 0.51386 0.31981 0.43229 0.0
H193 H 0.38122 0.18778 0.45853 0.0
H194 H 0.29034 0.17992 0.37641 0.0
H195 H 0.32078 0.37116 0.37406 0.0
H196 H 0.39029 0.39098 0.32736 0.0
H197 H 0.42944 0.39118 0.39472 0.0
H198 H 0.55848 0.32801 0.34339 0.0
H199 H 0.51518 0.33287 0.27926 0.0
H200 H 0.52926 0.27021 0.28899 0.0
H201 H 0.23338 0.17647 0.28128 0.0
H202 H 0.19919 0.18735 0.18968 0.0
H203 H 0.36717 0.32213 0.22747 0.0
C204 C 0.46351 0.29049 0.42216 0.0
C205 C 0.45525 0.2543 0.45178 0.0
C206 C 0.38885 0.21617 0.43669 0.0
C207 C 0.33718 0.2111 0.38976 0.0
C208 C 0.35167 0.24501 0.359 0.0
C209 C 0.41162 0.28483 0.37549 0.0
C210 C 0.41877 0.31403 0.33356 0.0
C211 C 0.38821 0.37023 0.35892 0.0
C212 C 0.51079 0.31123 0.30998 0.0
C213 C 0.35634 0.28334 0.28985 0.0
C214 C 0.31792 0.24361 0.30512 0.0
C215 C 0.26198 0.20804 0.26945 0.0
C216 C 0.24374 0.21406 0.21745 0.0
C217 C 0.28142 0.25524 0.20206 0.0
C218 C 0.33799 0.2903 0.23864 0.0
H219 H 0.4355 0.72326 0.07994 0.0
H220 H 0.4149 0.89088 0.12422 0.0
H221 H 0.32535 0.89164 0.20446 0.0
H222 H 0.21206 0.70018 0.13758 0.0
H223 H 0.25735 0.64902 0.16034 0.0
H224 H 0.29651 0.66003 0.09789 0.0
H225 H 0.45117 0.66821 0.13769 0.0
H226 H 0.41315 0.65959 0.20116 0.0
H227 H 0.47469 0.71681 0.20307 0.0
H228 H 0.281 0.87774 0.29327 0.0
H229 H 0.25342 0.84688 0.37429 0.0
H230 H 0.29525 0.68835 0.27105 0.0
C231 C 0.40812 0.75978 0.10467 0.0
C232 C 0.4333 0.80701 0.0963 0.0
C233 C 0.39685 0.85414 0.12988 0.0
C234 C 0.34606 0.85502 0.17584 0.0
C235 C 0.33018 0.80832 0.18648 0.0
C236 C 0.35707 0.76122 0.15057 0.0
C237 C 0.3409 0.71738 0.17475 0.0
C238 C 0.2726 0.67943 0.14062 0.0
C239 C 0.42497 0.6889 0.17944 0.0
C240 C 0.30676 0.74774 0.23132 0.0
C241 C 0.30057 0.8001 0.2373 0.0
C242 C 0.28226 0.83663 0.2885 0.0
C243 C 0.26805 0.81899 0.33439 0.0
C244 C 0.2716 0.7654 0.32835 0.0
C245 C 0.29049 0.72948 0.27618 0.0
H246 H 0.55534 0.85535 0.86894 0.0
H247 H 0.63993 0.6953 0.81725 0.0
H248 H 0.63883 0.69355 0.71973 0.0
H249 H 0.40684 0.84099 0.76672 0.0
H250 H 0.42394 0.90241 0.75439 0.0
H251 H 0.44979 0.89562 0.8209 0.0
H252 H 0.60606 0.92643 0.81278 0.0
H253 H 0.58098 0.93334 0.74588 0.0
H254 H 0.6699 0.89332 0.75301 0.0
H255 H 0.59965 0.70183 0.63022 0.0
H256 H 0.52394 0.7198 0.55201 0.0
H257 H 0.47098 0.87588 0.65778 0.0
C258 C 0.57606 0.82074 0.83695 0.0
C259 C 0.59876 0.77566 0.85026 0.0
C260 C 0.62343 0.73038 0.80764 0.0
C261 C 0.62342 0.72908 0.75215 0.0
C262 C 0.599 0.77357 0.73977 0.0
C263 C 0.57627 0.81878 0.78078 0.0
C264 C 0.54236 0.85866 0.75523 0.0
C265 C 0.45028 0.87536 0.77548 0.0
C266 C 0.60349 0.90573 0.76746 0.0
C267 C 0.54399 0.82741 0.69401 0.0
C268 C 0.57879 0.77886 0.68608 0.0
C269 C 0.57548 0.74026 0.63479 0.0
C270 C 0.53274 0.75076 0.5907 0.0
C271 C 0.49423 0.79955 0.59826 0.0
C272 C 0.50331 0.83899 0.64998 0.0
H273 H 0.56594 0.34959 0.74937 0.0
H274 H 0.72613 0.21552 0.67402 0.0
H275 H 0.71182 0.18825 0.75791 0.0
H276 H 0.63847 0.37351 0.89158 0.0
H277 H 0.53324 0.38954 0.92131 0.0
H278 H 0.56021 0.40231 0.85759 0.0
H279 H 0.42909 0.34698 0.80732 0.0
H280 H 0.39972 0.33741 0.87212 0.0
H281 H 0.41501 0.28207 0.81129 0.0
H282 H 0.68378 0.17635 0.84957 0.0
H283 H 0.60918 0.1646 0.93037 0.0
H284 H 0.45599 0.30176 0.94391 0.0
C285 C 0.59705 0.31424 0.75054 0.0
C286 C 0.64689 0.28451 0.70539 0.0
C287 C 0.68674 0.23843 0.70802 0.0
C288 C 0.68026 0.22313 0.75582 0.0
C289 C 0.63256 0.25391 0.80026 0.0
C290 C 0.58905 0.29741 0.79739 0.0
C291 C 0.53515 0.32043 0.84891 0.0
C292 C 0.5688 0.37471 0.88174 0.0
C293 C 0.43908 0.32174 0.83401 0.0
C294 C 0.55237 0.28171 0.88001 0.0
C295 C 0.61188 0.24515 0.85225 0.0
C296 C 0.63662 0.2045 0.87157 0.0
C297 C 0.59416 0.1984 0.91789 0.0
C298 C 0.52543 0.23165 0.94307 0.0
C299 C 0.5084 0.2758 0.926 0.0
H300 H 0.79257 0.81401 0.241 0.0
H301 H 0.73982 0.65468 0.14297 0.0
H302 H 0.78996 0.62485 0.22112 0.0
H303 H -0.01112 0.78868 0.29655 0.0
H304 H 0.97378 0.83728 0.36296 0.0
H305 H 0.92351 0.84489 0.30204 0.0
H306 H 0.77521 0.85343 0.35109 0.0
H307 H 0.8247 0.84413 0.4115 0.0
H308 H 0.7377 0.80225 0.3772 0.0
H309 H 0.85092 0.613 0.30914 0.0
H310 H 0.94232 0.61705 0.38981 0.0
H311 H 0.96614 0.78409 0.42642 0.0
C312 C 0.79042 0.77288 0.23637 0.0
C313 C 0.76133 0.73656 0.18652 0.0
C314 C 0.76159 0.68299 0.18111 0.0
C315 C 0.78918 0.66587 0.2254 0.0
C316 C 0.81736 0.70285 0.27428 0.0
C317 C 0.81981 0.75514 0.27941 0.0
C318 C 0.86147 0.78655 0.33352 0.0
C319 C 0.94167 0.81604 0.32311 0.0
C320 C 0.79583 0.82379 0.3705 0.0
C321 C 0.88538 0.7436 0.35738 0.0
C322 C 0.85659 0.69584 0.32354 0.0
C323 C 0.87363 0.65019 0.33592 0.0
C324 C 0.92543 0.65302 0.38221 0.0
C325 C 0.96199 0.701 0.41476 0.0
C326 C 0.93852 0.74699 0.40318 0.0
H327 H 0.83886 0.29682 0.35238 0.0
H328 H 0.75178 0.13637 0.30159 0.0
H329 H 0.80543 0.12425 0.20683 0.0
H330 H 0.77944 0.32109 0.22455 0.0
H331 H 0.87142 0.3622 0.22493 0.0
H332 H 0.82801 0.35822 0.28947 0.0
H333 H -0.02219 0.3313 0.31678 0.0
H334 H 0.02172 0.33604 0.25275 0.0
H335 H 0.03216 0.27649 0.26982 0.0
H336 H 0.8766 0.12813 0.11832 0.0
H337 H 0.95773 0.1494 0.04349 0.0
H338 H -0.01515 0.30863 0.1496 0.0
C339 C 0.83156 0.25919 0.32131 0.0
C340 C 0.79143 0.21755 0.33432 0.0
C341 C 0.78203 0.16894 0.2924 0.0
C342 C 0.81228 0.16159 0.23842 0.0
C343 C 0.85054 0.20351 0.22656 0.0
C344 C 0.85985 0.25143 0.2667 0.0
C345 C 0.90243 0.29019 0.24282 0.0
C346 C 0.84169 0.33561 0.24561 0.0
C347 C -0.01137 0.30962 0.27229 0.0
C348 C 0.91631 0.25645 0.18342 0.0
C349 C 0.88662 0.20643 0.17479 0.0
C350 C 0.89871 0.16745 0.12423 0.0
C351 C 0.94423 0.17979 0.08187 0.0
C352 C 0.97476 0.23089 0.09006 0.0
C353 C 0.95913 0.26965 0.14124 0.0
H354 H -0.0062 0.34363 0.69837 0.0
H355 H 0.02321 0.20833 0.55341 0.0
H356 H 0.12219 0.17009 0.60725 0.0
H357 H 0.21337 0.34188 0.76161 0.0
H358 H 0.1681 0.36124 0.83042 0.0
H359 H 0.12007 0.38323 0.77692 0.0
H360 H 0.97301 0.34541 0.79496 0.0
H361 H 0.02076 0.3221 0.8473 0.0
H362 H 0.96496 0.27751 0.78939 0.0
H363 H 0.19477 0.14013 0.68125 0.0
H364 H 0.24292 0.12338 0.76692 0.0
H365 H 0.15471 0.27623 0.86438 0.0
C366 C 0.0233 0.30672 0.677 0.0
C367 C 0.00172 0.27919 0.62127 0.0
C368 C 0.03957 0.23023 0.59577 0.0
C369 C 0.09525 0.20819 0.62612 0.0
C370 C 0.11025 0.23497 0.68208 0.0
C371 C 0.0761 0.28355 0.70705 0.0
C372 C 0.09274 0.30181 0.76908 0.0
C373 C 0.15211 0.34989 0.78545 0.0
C374 C 0.00782 0.31228 0.80207 0.0
C375 C 0.13822 0.2549 0.77569 0.0
C376 C 0.14947 0.21721 0.72496 0.0
C377 C 0.18692 0.1696 0.72101 0.0
C378 C 0.21378 0.16042 0.77003 0.0
C379 C 0.20212 0.1984 0.82252 0.0
C380 C 0.16403 0.24627 0.82505 0.0
H381 H 0.0714 0.69682 0.6374 0.0
H382 H 0.27273 0.79213 0.73885 0.0
H383 H 0.21214 0.77618 0.8219 0.0
H384 H 0.90731 0.74319 0.7284 0.0
H385 H 0.84934 0.68269 0.71531 0.0
H386 H 0.91748 0.69321 0.66245 0.0
H387 H 0.00244 0.60959 0.65705 0.0
H388 H 0.93412 0.59876 0.71002 0.0
H389 H 0.04947 0.60212 0.71922 0.0
H390 H 0.11617 0.76283 0.89581 0.0
H391 H -0.00669 0.75137 0.95334 0.0
H392 H 0.85781 0.6624 0.80384 0.0
C393 C 0.10442 0.71274 0.67675 0.0
C394 C 0.17692 0.74554 0.68158 0.0
C395 C 0.21705 0.76685 0.73413 0.0
C396 C 0.18338 0.75782 0.7816 0.0
C397 C 0.10989 0.72691 0.77592 0.0
C398 C 0.07136 0.7042 0.7247 0.0
C399 C -0.01222 0.67741 0.73073 0.0
C400 C 0.91102 0.70053 0.7079 0.0
C401 C -0.00613 0.61846 0.70259 0.0
C402 C -0.01628 0.69053 0.79329 0.0
C403 C 0.05515 0.71852 0.81873 0.0
C404 C 0.06092 0.73969 0.87642 0.0
C405 C -0.00906 0.73295 0.90884 0.0
C406 C 0.9163 0.70556 0.88327 0.0
C407 C 0.91439 0.68287 0.82489 0.0
loop_
_geom_bond_atom_site_label_1
_geom_bond_atom_site_label_2
_geom_bond_distance
_geom_bond_site_symmetry_2
_ccdc_geom_bond_type
O0 Mg1 1.990 . S
O0 C14 1.253 . S
Mg1 O0 1.990 . S
Mg1 O4 2.180 . S
Mg1 O5 2.117 . S
Mg1 O19 2.030 . S
O2 Mg3 2.074 . S
O2 C14 1.260 . S
Mg3 O2 2.074 . S
Mg3 O4 2.099 . S
Mg3 O6 2.077 1_554 S
Mg3 O7 2.070 1_554 S
Mg3 O9 2.098 1_554 S
Mg3 O20 2.081 . S
O4 Mg1 2.180 . S
O4 Mg3 2.099 . S
O4 C15 1.279 . S
O5 Mg1 2.117 . S
O5 C15 1.250 . S
O6 Mg3 2.077 1_556 S
O6 C16 1.264 . S
O7 Mg3 2.070 1_556 S
O7 C17 1.260 . S
Mg8 O9 2.180 . S
Mg8 O10 2.030 . S
Mg8 O11 1.990 . S
Mg8 O12 2.117 . S
O9 Mg3 2.098 1_556 S
O9 Mg8 2.180 . S
O9 C18 1.279 . S
O10 Mg8 2.030 . S
O10 C16 1.248 . S
O11 Mg8 1.990 . S
O11 C17 1.253 . S
O12 Mg8 2.117 . S
O12 C18 1.250 . S
C13 O19 1.248 . S
C13 O20 1.264 . S
C14 O0 1.253 . S
C14 O2 1.260 . S
C15 O4 1.279 . S
C15 O5 1.250 . S
C16 O6 1.264 . S
C16 O10 1.248 . S
C17 O7 1.260 . S
C17 O11 1.253 . S
C18 O9 1.279 . S
C18 O12 1.250 . S
O19 Mg1 2.030 . S
O19 C13 1.248 . S
O20 Mg3 2.081 . S
O20 C13 1.264 . S
O21 Mg22 1.990 . S
O21 C35 1.253 . S
Mg22 O21 1.990 . S
Mg22 O25 2.180 . S
Mg22 O26 2.117 . S
Mg22 O40 2.030 . S
O23 Mg24 2.074 . S
O23 C35 1.260 . S
Mg24 O23 2.074 . S
Mg24 O25 2.099 . S
Mg24 O27 2.077 1_554 S
Mg24 O28 2.070 1_554 S
Mg24 O30 2.098 1_554 S
Mg24 O41 2.081 . S
O25 Mg22 2.180 . S
O25 Mg24 2.099 . S
O25 C36 1.279 . S
O26 Mg22 2.117 . S
O26 C36 1.250 . S
O27 Mg24 2.077 1_556 S
O27 C37 1.264 . S
O28 Mg24 2.070 1_556 S
O28 C38 1.260 . S
Mg29 O30 2.180 . S
Mg29 O31 2.030 . S
Mg29 O32 1.990 . S
Mg29 O33 2.117 . S
O30 Mg24 2.098 1_556 S
O30 Mg29 2.180 . S
O30 C39 1.279 . S
O31 Mg29 2.030 . S
O31 C37 1.248 . S
O32 Mg29 1.990 . S
O32 C38 1.253 . S
O33 Mg29 2.117 . S
O33 C39 1.250 . S
C34 O40 1.248 . S
C34 O41 1.264 . S
C35 O21 1.253 . S
C35 O23 1.260 . S
C36 O25 1.279 . S
C36 O26 1.250 . S
C37 O27 1.264 . S
C37 O31 1.248 . S
C38 O28 1.260 . S
C38 O32 1.253 . S
C39 O30 1.279 . S
C39 O33 1.250 . S
O40 Mg22 2.030 . S
O40 C34 1.248 . S
O41 Mg24 2.081 . S
O41 C34 1.264 . S
O42 Mg43 1.990 . S
O42 C56 1.253 . S
Mg43 O42 1.990 . S
Mg43 O46 2.180 . S
Mg43 O47 2.117 . S
Mg43 O61 2.030 . S
O44 Mg45 2.072 . S
O44 C56 1.260 . S
Mg45 O44 2.072 . S
Mg45 O46 2.099 . S
Mg45 O48 2.079 . S
Mg45 O49 2.072 . S
Mg45 O51 2.099 . S
Mg45 O62 2.079 . S
O46 Mg43 2.180 . S
O46 Mg45 2.099 . S
O46 C57 1.279 . S
O47 Mg43 2.117 . S
O47 C57 1.250 . S
O48 Mg45 2.079 . S
O48 C58 1.264 . S
O49 Mg45 2.072 . S
O49 C59 1.260 . S
Mg50 O51 2.180 . S
Mg50 O52 2.030 . S
Mg50 O53 1.990 . S
Mg50 O54 2.117 . S
O51 Mg45 2.099 . S
O51 Mg50 2.180 . S
O51 C60 1.279 . S
O52 Mg50 2.030 . S
O52 C58 1.248 . S
O53 Mg50 1.990 . S
O53 C59 1.253 . S
O54 Mg50 2.117 . S
O54 C60 1.250 . S
C55 O61 1.248 . S
C55 O62 1.264 . S
C56 O42 1.253 . S
C56 O44 1.260 . S
C57 O46 1.279 . S
C57 O47 1.250 . S
C58 O48 1.264 . S
C58 O52 1.248 . S
C59 O49 1.260 . S
C59 O53 1.253 . S
C60 O51 1.279 . S
C60 O54 1.250 . S
O61 Mg43 2.030 . S
O61 C55 1.248 . S
O62 Mg45 2.079 . S
O62 C55 1.264 . S
O63 Mg64 1.990 . S
O63 C77 1.253 . S
Mg64 O63 1.990 . S
Mg64 O67 2.180 . S
Mg64 O68 2.117 . S
Mg64 O82 2.030 . S
O65 Mg66 2.072 . S
O65 C77 1.260 . S
Mg66 O65 2.072 . S
Mg66 O67 2.099 . S
Mg66 O69 2.079 . S
Mg66 O70 2.072 . S
Mg66 O72 2.099 . S
Mg66 O83 2.079 . S
O67 Mg64 2.180 . S
O67 Mg66 2.099 . S
O67 C78 1.279 . S
O68 Mg64 2.117 . S
O68 C78 1.250 . S
O69 Mg66 2.079 . S
O69 C79 1.264 . S
O70 Mg66 2.072 . S
O70 C80 1.260 . S
Mg71 O72 2.180 . S
Mg71 O73 2.030 . S
Mg71 O74 1.990 . S
Mg71 O75 2.117 . S
O72 Mg66 2.099 . S
O72 Mg71 2.180 . S
O72 C81 1.279 . S
O73 Mg71 2.030 . S
O73 C79 1.248 . S
O74 Mg71 1.990 . S
O74 C80 1.253 . S
O75 Mg71 2.117 . S
O75 C81 1.250 . S
C76 O82 1.248 . S
C76 O83 1.264 . S
C77 O63 1.253 . S
C77 O65 1.260 . S
C78 O67 1.279 . S
C78 O68 1.250 . S
C79 O69 1.264 . S
C79 O73 1.248 . S
C80 O70 1.260 . S
C80 O74 1.253 . S
C81 O72 1.279 . S
C81 O75 1.250 . S
O82 Mg64 2.030 . S
O82 C76 1.248 . S
O83 Mg66 2.079 . S
O83 C76 1.264 . S
H84 C96 0.930 . S
H85 C98 0.930 . S
H86 C99 0.930 . S
H87 C103 0.959 1_554 S
H88 C103 0.959 . S
H89 C103 0.961 . S
H90 C104 0.960 . S
H91 C104 0.961 . S
H92 C104 0.959 . S
H93 C107 0.929 . S
H94 C108 0.931 . S
H95 C110 0.930 . S
C96 H84 0.930 . S
C96 C97 1.391 1_556 S
C96 C101 1.399 . S
C97 C96 1.391 1_554 S
C97 C98 1.391 . S
C98 H85 0.930 . S
C98 C97 1.391 . S
C98 C99 1.388 . S
C99 H86 0.930 . S
C99 C98 1.388 . S
C99 C100 1.390 . S
C100 C99 1.390 . S
C100 C101 1.394 1_554 S
C100 C106 1.465 . S
C101 C96 1.399 . S
C101 C100 1.394 1_556 S
C101 C102 1.516 . S
C102 C101 1.516 . S
C102 C103 1.502 . S
C102 C104 1.561 . S
C102 C105 1.526 . S
C103 H87 0.959 1_556 S
C103 H88 0.959 . S
C103 H89 0.961 . S
C103 C102 1.502 . S
C104 H90 0.960 . S
C104 H91 0.961 . S
C104 H92 0.959 . S
C104 C102 1.561 . S
C105 C102 1.526 . S
C105 C106 1.396 1_556 S
C105 C110 1.390 . S
C106 C100 1.465 . S
C106 C105 1.396 1_554 S
C106 C107 1.399 . S
C107 H93 0.929 . S
C107 C106 1.399 . S
C107 C108 1.385 . S
C108 H94 0.931 . S
C108 C107 1.385 . S
C108 C109 1.389 . S
C109 C108 1.389 . S
C109 C110 1.387 1_554 S
C110 H95 0.930 . S
C110 C105 1.390 . S
C110 C109 1.387 1_556 S
H111 C123 0.930 . S
H112 C125 0.930 . S
H113 C126 0.930 . S
H114 C130 0.959 . S
H115 C130 0.959 . S
H116 C130 0.961 . S
H117 C131 0.960 . S
H118 C131 0.961 . S
H119 C131 0.959 . S
H120 C134 0.929 . S
H121 C135 0.931 . S
H122 C137 0.930 . S
C123 H111 0.930 . S
C123 C124 1.399 . S
C123 C128 1.399 . S
C124 C123 1.399 . S
C124 C125 1.376 . S
C125 H112 0.930 . S
C125 C124 1.376 . S
C125 C126 1.388 . S
C126 H113 0.930 . S
C126 C125 1.388 . S
C126 C127 1.390 . S
C127 C126 1.390 . S
C127 C128 1.394 . S
C127 C133 1.465 . S
C128 C123 1.399 . S
C128 C127 1.394 . S
C128 C129 1.516 . S
C129 C128 1.516 . S
C129 C130 1.502 . S
C129 C131 1.561 . S
C129 C132 1.526 . S
C130 H114 0.959 . S
C130 H115 0.959 . S
C130 H116 0.961 . S
C130 C129 1.502 . S
C131 H117 0.960 . S
C131 H118 0.961 . S
C131 H119 0.959 . S
C131 C129 1.561 . S
C132 C129 1.526 . S
C132 C133 1.396 . S
C132 C137 1.390 . S
C133 C127 1.465 . S
C133 C132 1.396 . S
C133 C134 1.399 . S
C134 H120 0.929 . S
C134 C133 1.399 . S
C134 C135 1.385 . S
C135 H121 0.931 . S
C135 C134 1.385 . S
C135 C136 1.389 . S
C136 C135 1.389 . S
C136 C137 1.387 . S
C137 H122 0.930 . S
C137 C132 1.390 . S
C137 C136 1.387 . S
H138 C150 0.930 . S
H139 C152 0.930 . S
H140 C153 0.930 . S
H141 C157 0.959 . S
H142 C157 0.959 1_565 S
H143 C157 0.961 . S
H144 C158 0.960 . S
H145 C158 0.961 1_655 S
H146 C158 0.959 . S
H147 C161 0.929 . S
H148 C162 0.931 . S
H149 C164 0.930 . S
C150 H138 0.930 . S
C150 C151 1.399 1_556 S
C150 C155 1.399 . S
C151 C150 1.399 1_554 S
C151 C152 1.376 . S
C152 H139 0.930 . S
C152 C151 1.376 . S
C152 C153 1.388 . S
C153 H140 0.930 . S
C153 C152 1.388 . S
C153 C154 1.390 . S
C154 C153 1.390 . S
C154 C155 1.394 1_554 S
C154 C160 1.465 1_445 S
C155 C150 1.399 . S
C155 C154 1.394 1_556 S
C155 C156 1.516 1_445 S
C156 C155 1.516 1_665 S
C156 C157 1.502 1_565 S
C156 C158 1.561 1_655 S
C156 C159 1.526 . S
C157 H141 0.959 . S
C157 H142 0.959 1_545 S
C157 H143 0.961 . S
C157 C156 1.502 1_545 S
C158 H144 0.960 . S
C158 H145 0.961 1_455 S
C158 H146 0.959 . S
C158 C156 1.561 1_455 S
C159 C156 1.526 . S
C159 C160 1.396 1_556 S
C159 C164 1.390 . S
C160 C154 1.465 1_665 S
C160 C159 1.396 1_554 S
C160 C161 1.399 . S
C161 H147 0.929 . S
C161 C160 1.399 . S
C161 C162 1.385 . S
C162 H148 0.931 . S
C162 C161 1.385 . S
C162 C163 1.389 . S
C163 C162 1.389 . S
C163 C164 1.387 1_554 S
C164 H149 0.930 . S
C164 C159 1.390 . S
C164 C163 1.387 1_556 S
H165 C177 0.930 . S
H166 C179 0.930 . S
H167 C180 0.930 1_565 S
H168 C184 0.959 . S
H169 C184 0.959 . S
H170 C184 0.961 . S
H171 C185 0.960 . S
H172 C185 0.961 1_565 S
H173 C185 0.959 1_565 S
H174 C188 0.929 1_655 S
H175 C189 0.931 . S
H176 C191 0.930 . S
C177 H165 0.930 . S
C177 C178 1.399 . S
C177 C182 1.399 . S
C178 C177 1.399 . S
C178 C179 1.376 . S
C179 H166 0.930 . S
C179 C178 1.376 . S
C179 C180 1.388 . S
C180 H167 0.930 1_545 S
C180 C179 1.388 . S
C180 C181 1.390 . S
C181 C180 1.390 . S
C181 C182 1.394 . S
C181 C187 1.465 1_545 S
C182 C177 1.399 . S
C182 C181 1.394 . S
C182 C183 1.516 . S
C183 C182 1.516 . S
C183 C184 1.502 1_655 S
C183 C185 1.561 . S
C183 C186 1.526 1_645 S
C184 H168 0.959 . S
C184 H169 0.959 . S
C184 H170 0.961 . S
C184 C183 1.502 1_455 S
C185 H171 0.960 . S
C185 H172 0.961 1_545 S
C185 H173 0.959 1_545 S
C185 C183 1.561 . S
C186 C183 1.526 1_465 S
C186 C187 1.396 1_455 S
C186 C191 1.390 . S
C187 C181 1.465 1_565 S
C187 C186 1.396 1_655 S
C187 C188 1.399 1_655 S
C188 H174 0.929 1_455 S
C188 C187 1.399 1_455 S
C188 C189 1.385 . S
C189 H175 0.931 . S
C189 C188 1.385 . S
C189 C190 1.389 . S
C190 C189 1.389 . S
C190 C191 1.387 . S
C191 H176 0.930 . S
C191 C186 1.390 . S
C191 C190 1.387 . S
H192 C204 0.930 . S
H193 C206 0.930 . S
H194 C207 0.930 . S
H195 C211 0.959 . S
H196 C211 0.959 . S
H197 C211 0.961 . S
H198 C212 0.960 . S
H199 C212 0.961 . S
H200 C212 0.959 . S
H201 C215 0.929 . S
H202 C216 0.931 . S
H203 C218 0.930 . S
C204 H192 0.930 . S
C204 C205 1.399 . S
C204 C209 1.399 . S
C205 C204 1.399 . S
C205 C206 1.376 . S
C206 H193 0.930 . S
C206 C205 1.376 . S
C206 C207 1.388 . S
C207 H194 0.930 . S
C207 C206 1.388 . S
C207 C208 1.390 . S
C208 C207 1.390 . S
C208 C209 1.394 . S
C208 C214 1.465 . S
C209 C204 1.399 . S
C209 C208 1.394 . S
C209 C210 1.516 . S
C210 C209 1.516 . S
C210 C211 1.502 . S
C210 C212 1.561 . S
C210 C213 1.526 . S
C211 H195 0.959 . S
C211 H196 0.959 . S
C211 H197 0.961 . S
C211 C210 1.502 . S
C212 H198 0.960 . S
C212 H199 0.961 . S
C212 H200 0.959 . S
C212 C210 1.561 . S
C213 C210 1.526 . S
C213 C214 1.396 . S
C213 C218 1.390 . S
C214 C208 1.465 . S
C214 C213 1.396 . S
C214 C215 1.399 . S
C215 H201 0.929 . S
C215 C214 1.399 . S
C215 C216 1.385 . S
C216 H202 0.931 . S
C216 C215 1.385 . S
C216 C217 1.389 . S
C217 C216 1.389 . S
C217 C218 1.387 . S
C218 H203 0.930 . S
C218 C213 1.390 . S
C218 C217 1.387 . S
H219 C231 0.930 . S
H220 C233 0.930 . S
H221 C234 0.930 . S
H222 C238 0.959 . S
H223 C238 0.959 . S
H224 C238 0.961 . S
H225 C239 0.960 . S
H226 C239 0.961 . S
H227 C239 0.959 . S
H228 C242 0.929 . S
H229 C243 0.931 . S
H230 C245 0.930 . S
C231 H219 0.930 . S
C231 C232 1.399 . S
C231 C236 1.399 . S
C232 C231 1.399 . S
C232 C233 1.376 . S
C233 H220 0.930 . S
C233 C232 1.376 . S
C233 C234 1.388 . S
C234 H221 0.930 . S
C234 C233 1.388 . S
C234 C235 1.390 . S
C235 C234 1.390 . S
C235 C236 1.394 . S
C235 C241 1.465 . S
C236 C231 1.399 . S
C236 C235 1.394 . S
C236 C237 1.516 . S
C237 C236 1.516 . S
C237 C238 1.502 . S
C237 C239 1.561 . S
C237 C240 1.526 . S
C238 H222 0.959 . S
C238 H223 0.959 . S
C238 H224 0.961 . S
C238 C237 1.502 . S
C239 H225 0.960 . S
C239 H226 0.961 . S
C239 H227 0.959 . S
C239 C237 1.561 . S
C240 C237 1.526 . S
C240 C241 1.396 . S
C240 C245 1.390 . S
C241 C235 1.465 . S
C241 C240 1.396 . S
C241 C242 1.399 . S
C242 H228 0.929 . S
C242 C241 1.399 . S
C242 C243 1.385 . S
C243 H229 0.931 . S
C243 C242 1.385 . S
C243 C244 1.389 . S
C244 C243 1.389 . S
C244 C245 1.387 . S
C245 H230 0.930 . S
C245 C240 1.390 . S
C245 C244 1.387 . S
H246 C258 0.930 . S
H247 C260 0.930 . S
H248 C261 0.930 . S
H249 C265 0.959 . S
H250 C265 0.959 . S
H251 C265 0.961 . S
H252 C266 0.960 . S
H253 C266 0.961 . S
H254 C266 0.959 . S
H255 C269 0.929 . S
H256 C270 0.931 . S
H257 C272 0.930 . S
C258 H246 0.930 . S
C258 C259 1.399 . S
C258 C263 1.399 . S
C259 C258 1.399 . S
C259 C260 1.376 . S
C260 H247 0.930 . S
C260 C259 1.376 . S
C260 C261 1.388 . S
C261 H248 0.930 . S
C261 C260 1.388 . S
C261 C262 1.390 . S
C262 C261 1.390 . S
C262 C263 1.394 . S
C262 C268 1.465 . S
C263 C258 1.399 . S
C263 C262 1.394 . S
C263 C264 1.516 . S
C264 C263 1.516 . S
C264 C265 1.502 . S
C264 C266 1.561 . S
C264 C267 1.526 . S
C265 H249 0.959 . S
C265 H250 0.959 . S
C265 H251 0.961 . S
C265 C264 1.502 . S
C266 H252 0.960 . S
C266 H253 0.961 . S
C266 H254 0.959 . S
C266 C264 1.561 . S
C267 C264 1.526 . S
C267 C268 1.396 . S
C267 C272 1.390 . S
C268 C262 1.465 . S
C268 C267 1.396 . S
C268 C269 1.399 . S
C269 H255 0.929 . S
C269 C268 1.399 . S
C269 C270 1.385 . S
C270 H256 0.931 . S
C270 C269 1.385 . S
C270 C271 1.389 . S
C271 C270 1.389 . S
C271 C272 1.387 . S
C272 H257 0.930 . S
C272 C267 1.390 . S
C272 C271 1.387 . S
H273 C285 0.930 . S
H274 C287 0.930 . S
H275 C288 0.930 . S
H276 C292 0.959 . S
H277 C292 0.959 . S
H278 C292 0.961 . S
H279 C293 0.960 . S
H280 C293 0.961 . S
H281 C293 0.959 . S
H282 C296 0.929 . S
H283 C297 0.931 . S
H284 C299 0.930 . S
C285 H273 0.930 . S
C285 C286 1.399 . S
C285 C290 1.399 . S
C286 C285 1.399 . S
C286 C287 1.376 . S
C287 H274 0.930 . S
C287 C286 1.376 . S
C287 C288 1.388 . S
C288 H275 0.930 . S
C288 C287 1.388 . S
C288 C289 1.390 . S
C289 C288 1.390 . S
C289 C290 1.394 . S
C289 C295 1.465 . S
C290 C285 1.399 . S
C290 C289 1.394 . S
C290 C291 1.516 . S
C291 C290 1.516 . S
C291 C292 1.502 . S
C291 C293 1.561 . S
C291 C294 1.526 . S
C292 H276 0.959 . S
C292 H277 0.959 . S
C292 H278 0.961 . S
C292 C291 1.502 . S
C293 H279 0.960 . S
C293 H280 0.961 . S
C293 H281 0.959 . S
C293 C291 1.561 . S
C294 C291 1.526 . S
C294 C295 1.396 . S
C294 C299 1.390 . S
C295 C289 1.465 . S
C295 C294 1.396 . S
C295 C296 1.399 . S
C296 H282 0.929 . S
C296 C295 1.399 . S
C296 C297 1.385 . S
C297 H283 0.931 . S
C297 C296 1.385 . S
C297 C298 1.389 . S
C298 C297 1.389 . S
C298 C299 1.387 . S
C299 H284 0.930 . S
C299 C294 1.390 . S
C299 C298 1.387 . S
H300 C312 0.930 . S
H301 C314 0.930 . S
H302 C315 0.930 . S
H303 C319 0.959 . S
H304 C319 0.959 . S
H305 C319 0.961 . S
H306 C320 0.960 . S
H307 C320 0.961 1_455 S
H308 C320 0.959 . S
H309 C323 0.929 . S
H310 C324 0.931 . S
H311 C326 0.930 . S
C312 H300 0.930 . S
C312 C313 1.399 . S
C312 C317 1.399 . S
C313 C312 1.399 . S
C313 C314 1.376 . S
C314 H301 0.930 . S
C314 C313 1.376 . S
C314 C315 1.388 . S
C315 H302 0.930 . S
C315 C314 1.388 . S
C315 C316 1.390 . S
C316 C315 1.390 . S
C316 C317 1.394 . S
C316 C322 1.464 1_655 S
C317 C312 1.399 . S
C317 C316 1.394 . S
C317 C318 1.516 1_655 S
C318 C317 1.516 1_455 S
C318 C319 1.502 . S
C318 C320 1.561 1_455 S
C318 C321 1.526 . S
C319 H303 0.959 . S
C319 H304 0.959 . S
C319 H305 0.961 . S
C319 C318 1.502 . S
C320 H306 0.960 . S
C320 H307 0.961 1_655 S
C320 H308 0.959 . S
C320 C318 1.561 1_655 S
C321 C318 1.526 . S
C321 C322 1.398 . S
C321 C326 1.390 . S
C322 C316 1.464 1_455 S
C322 C321 1.398 . S
C322 C323 1.399 1_455 S
C323 H309 0.929 . S
C323 C322 1.399 1_655 S
C323 C324 1.385 1_655 S
C324 H310 0.931 . S
C324 C323 1.385 1_455 S
C324 C325 1.389 . S
C325 C324 1.389 . S
C325 C326 1.387 . S
C326 H311 0.930 . S
C326 C321 1.390 . S
C326 C325 1.387 . S
H327 C339 0.930 . S
H328 C341 0.930 . S
H329 C342 0.930 . S
H330 C346 0.959 . S
H331 C346 0.959 . S
H332 C346 0.961 . S
H333 C347 0.960 . S
H334 C347 0.961 . S
H335 C347 0.959 . S
H336 C350 0.929 . S
H337 C351 0.931 . S
H338 C353 0.930 . S
C339 H327 0.930 . S
C339 C340 1.399 . S
C339 C344 1.399 . S
C340 C339 1.399 . S
C340 C341 1.376 . S
C341 H328 0.930 . S
C341 C340 1.376 . S
C341 C342 1.388 1_655 S
C342 H329 0.930 . S
C342 C341 1.388 1_455 S
C342 C343 1.390 . S
C343 C342 1.390 . S
C343 C344 1.394 1_455 S
C343 C349 1.465 . S
C344 C339 1.399 . S
C344 C343 1.394 1_655 S
C344 C345 1.516 . S
C345 C344 1.516 . S
C345 C346 1.502 . S
C345 C347 1.561 1_655 S
C345 C348 1.526 1_655 S
C346 H330 0.959 . S
C346 H331 0.959 . S
C346 H332 0.961 . S
C346 C345 1.502 . S
C347 H333 0.960 . S
C347 H334 0.961 . S
C347 H335 0.959 . S
C347 C345 1.561 1_455 S
C348 C345 1.526 1_455 S
C348 C349 1.396 . S
C348 C353 1.390 . S
C349 C343 1.465 . S
C349 C348 1.396 . S
C349 C350 1.399 . S
C350 H336 0.929 . S
C350 C349 1.399 . S
C350 C351 1.385 . S
C351 H337 0.931 . S
C351 C350 1.385 . S
C351 C352 1.389 . S
C352 C351 1.389 . S
C352 C353 1.387 . S
C353 H338 0.930 . S
C353 C348 1.390 . S
C353 C352 1.387 . S
H354 C366 0.930 . S
H355 C368 0.930 . S
H356 C369 0.930 . S
H357 C373 0.959 . S
H358 C373 0.959 . S
H359 C373 0.961 . S
H360 C374 0.960 . S
H361 C374 0.961 1_455 S
H362 C374 0.959 . S
H363 C377 0.929 1_655 S
H364 C378 0.931 . S
H365 C380 0.930 . S
C366 H354 0.930 . S
C366 C367 1.399 . S
C366 C371 1.399 . S
C367 C366 1.399 . S
C367 C368 1.376 . S
C368 H355 0.930 . S
C368 C367 1.376 . S
C368 C369 1.388 . S
C369 H356 0.930 . S
C369 C368 1.388 . S
C369 C370 1.390 . S
C370 C369 1.390 . S
C370 C371 1.394 . S
C370 C376 1.465 1_655 S
C371 C366 1.399 . S
C371 C370 1.394 . S
C371 C372 1.516 1_655 S
C372 C371 1.516 1_455 S
C372 C373 1.502 . S
C372 C374 1.561 1_455 S
C372 C375 1.526 . S
C373 H357 0.959 . S
C373 H358 0.959 . S
C373 H359 0.961 . S
C373 C372 1.502 . S
C374 H360 0.960 . S
C374 H361 0.961 1_655 S
C374 H362 0.959 . S
C374 C372 1.561 1_655 S
C375 C372 1.526 . S
C375 C376 1.396 . S
C375 C380 1.390 . S
C376 C370 1.465 1_455 S
C376 C375 1.396 . S
C376 C377 1.399 . S
C377 H363 0.929 1_455 S
C377 C376 1.399 . S
C377 C378 1.385 . S
C378 H364 0.931 . S
C378 C377 1.385 . S
C378 C379 1.389 . S
C379 C378 1.389 . S
C379 C380 1.387 . S
C380 H365 0.930 . S
C380 C375 1.390 . S
C380 C379 1.387 . S
H381 C393 0.930 . S
H382 C395 0.930 . S
H383 C396 0.930 . S
H384 C400 0.959 . S
H385 C400 0.959 . S
H386 C400 0.961 . S
H387 C401 0.960 . S
H388 C401 0.961 1_655 S
H389 C401 0.959 . S
H390 C404 0.929 . S
H391 C405 0.931 . S
H392 C407 0.930 . S
C393 H381 0.930 . S
C393 C394 1.399 . S
C393 C398 1.399 . S
C394 C393 1.399 . S
C394 C395 1.376 . S
C395 H382 0.930 . S
C395 C394 1.376 . S
C395 C396 1.388 . S
C396 H383 0.930 . S
C396 C395 1.388 . S
C396 C397 1.390 . S
C397 C396 1.390 . S
C397 C398 1.394 . S
C397 C403 1.465 . S
C398 C393 1.399 . S
C398 C397 1.394 . S
C398 C399 1.516 1_455 S
C399 C398 1.516 1_655 S
C399 C400 1.502 . S
C399 C401 1.561 1_655 S
C399 C402 1.526 . S
C400 H384 0.959 . S
C400 H385 0.959 . S
C400 H386 0.961 . S
C400 C399 1.502 . S
C401 H387 0.960 . S
C401 H388 0.961 1_455 S
C401 H389 0.959 . S
C401 C399 1.561 1_455 S
C402 C399 1.526 . S
C402 C403 1.396 1_655 S
C402 C407 1.390 . S
C403 C397 1.465 . S
C403 C402 1.396 1_455 S
C403 C404 1.399 . S
C404 H390 0.929 . S
C404 C403 1.399 . S
C404 C405 1.385 1_455 S
C405 H391 0.931 . S
C405 C404 1.385 1_655 S
C405 C406 1.389 . S
C406 C405 1.389 . S
C406 C407 1.387 . S
C407 H392 0.930 . S
C407 C402 1.390 . S
C407 C406 1.387 . S
C97 C39 1.404 1_554 S
C109 C15 1.344 . S
C124 C57 1.353 . S
C136 C81 1.441 . S
C151 C18 1.449 1_554 S
C163 C36 1.322 . S
C178 C78 1.351 . S
C190 C60 1.443 . S
C205 C77 0.931 . S
C217 C13 1.043 . S
C232 C35 0.932 . S
C244 C55 1.044 . S
C259 C38 0.922 . S
C271 C58 1.036 . S
C286 C80 1.054 . S
C298 C16 0.960 . S
C313 C34 0.985 . S
C325 C56 0.992 . S
C340 C76 0.945 . S
C352 C14 1.000 . S
C367 C79 0.960 . S
C379 C17 0.936 . S
C394 C59 0.934 . S
C406 C37 1.049 . S
