# Generated by pormake.
# Topology wjd, (6)-cn, num edge types: 1
# Building blocks:
#     Node 0, Type 0, BuildingBlock: MAKGUD_clean_sbu_1, # of connection points: 6
#     Node 1, Type 0, BuildingBlock: MAKGUD_clean_sbu_1, # of connection points: 6
#     Node 2, Type 0, BuildingBlock: MAKGUD_clean_sbu_1, # of connection points: 6
#     Node 3, Type 0, BuildingBlock: MAKGUD_clean_sbu_1, # of connection points: 6
#     Node 4, Type 0, BuildingBlock: MAKGUD_clean_sbu_1, # of connection points: 6
#     Node 5, Type 0, BuildingBlock: MAKGUD_clean_sbu_1, # of connection points: 6
#     Node 6, Type 0, BuildingBlock: MAKGUD_clean_sbu_1, # of connection points: 6
#     Node 7, Type 0, BuildingBlock: MAKGUD_clean_sbu_1, # of connection points: 6
#     Node 8, Type 0, BuildingBlock: MAKGUD_clean_sbu_1, # of connection points: 6
#     Node 9, Type 0, BuildingBlock: MAKGUD_clean_sbu_1, # of connection points: 6
#     Node 10, Type 0, BuildingBlock: MAKGUD_clean_sbu_1, # of connection points: 6
#     Node 11, Type 0, BuildingBlock: MAKGUD_clean_sbu_1, # of connection points: 6
#     Edge 12, Type (0, 0), BuildingBlock: TEMPAE_clean_linker_10, # of connection points: 2
#     Edge 13, Type (0, 0), BuildingBlock: TEMPAE_clean_linker_10, # of connection points: 2
#     Edge 14, Type (0, 0), BuildingBlock: TEMPAE_clean_linker_10, # of connection points: 2
#     Edge 15, Type (0, 0), BuildingBlock: TEMPAE_clean_linker_10, # of connection points: 2
#     Edge 16, Type (0, 0), BuildingBlock: TEMPAE_clean_linker_10, # of connection points: 2
#     Edge 17, Type (0, 0), BuildingBlock: TEMPAE_clean_linker_10, # of connection points: 2
#     Edge 18, Type (0, 0), BuildingBlock: TEMPAE_clean_linker_10, # of connection points: 2
#     Edge 19, Type (0, 0), BuildingBlock: TEMPAE_clean_linker_10, # of connection points: 2
#     Edge 20, Type (0, 0), BuildingBlock: TEMPAE_clean_linker_10, # of connection points: 2
#     Edge 21, Type (0, 0), BuildingBlock: TEMPAE_clean_linker_10, # of connection points: 2
#     Edge 22, Type (0, 0), BuildingBlock: TEMPAE_clean_linker_10, # of connection points: 2
#     Edge 23, Type (0, 0), BuildingBlock: TEMPAE_clean_linker_10, # of connection points: 2
#     Edge 24, Type (0, 0), BuildingBlock: TEMPAE_clean_linker_10, # of connection points: 2
#     Edge 25, Type (0, 0), BuildingBlock: TEMPAE_clean_linker_10, # of connection points: 2
#     Edge 26, Type (0, 0), BuildingBlock: TEMPAE_clean_linker_10, # of connection points: 2
#     Edge 27, Type (0, 0), BuildingBlock: TEMPAE_clean_linker_10, # of connection points: 2
#     Edge 28, Type (0, 0), BuildingBlock: TEMPAE_clean_linker_10, # of connection points: 2
#     Edge 29, Type (0, 0), BuildingBlock: TEMPAE_clean_linker_10, # of connection points: 2
#     Edge 30, Type (0, 0), BuildingBlock: TEMPAE_clean_linker_10, # of connection points: 2
#     Edge 31, Type (0, 0), BuildingBlock: TEMPAE_clean_linker_10, # of connection points: 2
#     Edge 32, Type (0, 0), BuildingBlock: TEMPAE_clean_linker_10, # of connection points: 2
#     Edge 33, Type (0, 0), BuildingBlock: TEMPAE_clean_linker_10, # of connection points: 2
#     Edge 34, Type (0, 0), BuildingBlock: TEMPAE_clean_linker_10, # of connection points: 2
#     Edge 35, Type (0, 0), BuildingBlock: TEMPAE_clean_linker_10, # of connection points: 2
#     Edge 36, Type (0, 0), BuildingBlock: TEMPAE_clean_linker_10, # of connection points: 2
#     Edge 37, Type (0, 0), BuildingBlock: TEMPAE_clean_linker_10, # of connection points: 2
#     Edge 38, Type (0, 0), BuildingBlock: TEMPAE_clean_linker_10, # of connection points: 2
#     Edge 39, Type (0, 0), BuildingBlock: TEMPAE_clean_linker_10, # of connection points: 2
#     Edge 40, Type (0, 0), BuildingBlock: TEMPAE_clean_linker_10, # of connection points: 2
#     Edge 41, Type (0, 0), BuildingBlock: TEMPAE_clean_linker_10, # of connection points: 2
#     Edge 42, Type (0, 0), BuildingBlock: TEMPAE_clean_linker_10, # of connection points: 2
#     Edge 43, Type (0, 0), BuildingBlock: TEMPAE_clean_linker_10, # of connection points: 2
#     Edge 44, Type (0, 0), BuildingBlock: TEMPAE_clean_linker_10, # of connection points: 2
#     Edge 45, Type (0, 0), BuildingBlock: TEMPAE_clean_linker_10, # of connection points: 2
#     Edge 46, Type (0, 0), BuildingBlock: TEMPAE_clean_linker_10, # of connection points: 2
#     Edge 47, Type (0, 0), BuildingBlock: TEMPAE_clean_linker_10, # of connection points: 2
# Relax obj value: 0.156
# Max RMSD: 0.285
# Mean RMSD: 0.285
data_MOF--net-wjd--node1-MAKGUD_clean_sbu_1--edge1-TEMPAE_clean_linker_10
_symmetry_space_group_name_H-M    P1
_symmetry_Int_Tables_number       1
_symmetry_cell_setting            triclinic
loop_
_symmetry_equiv_pos_as_xyz
'x, y, z'
_cell_length_a     36.84195
_cell_length_b     37.406236
_cell_length_c     51.198387
_cell_angle_alpha  90.259088
_cell_angle_beta   89.685022
_cell_angle_gamma 119.97455
loop_
_atom_site_label
_atom_site_type_symbol
_atom_site_fract_x
_atom_site_fract_y
_atom_site_fract_z
_atom_type_partial_charge
O0 O 0.50841 0.18179 0.10073 0.0
Tb1 Tb 0.44799 0.16145 0.11989 0.0
C2 C 0.40091 0.15616 0.17102 0.0
O3 O 0.36255 0.14689 0.08495 0.0
Tb4 Tb 0.33929 0.14224 0.12481 0.0
C5 C 0.27557 0.06595 0.13435 0.0
O6 O 0.40556 0.11964 0.09059 0.0
O7 O 0.30735 0.17641 0.11554 0.0
C8 C 0.27387 0.1579 0.10062 0.0
O9 O 0.26389 0.12189 0.09035 0.0
O10 O 0.42045 0.14031 0.15809 0.0
O11 O 0.3797 0.17094 0.15882 0.0
O12 O 0.4694 0.22728 0.12389 0.0
C13 C 0.37789 0.1237 0.07679 0.0
C14 C 0.51949 0.15999 0.11474 0.0
O15 O 0.31073 0.07449 0.1229 0.0
O16 O 0.27741 0.10028 0.14118 0.0
C17 C 0.49973 0.24694 0.14104 0.0
O18 O 0.50986 0.22458 0.15576 0.0
O19 O 0.49003 0.13861 0.13164 0.0
O20 O 0.73939 0.58982 0.41067 0.0
Tb21 Tb 0.80528 0.62665 0.40039 0.0
C22 C 0.84486 0.70313 0.36139 0.0
O23 O 0.86634 0.71471 0.42405 0.0
Tb24 Tb 0.88957 0.7713 0.40215 0.0
C25 C 0.8654 0.82381 0.41874 0.0
O26 O 0.80357 0.66064 0.43487 0.0
O27 O 0.95713 0.8048 0.39739 0.0
C28 C 0.98045 0.80526 0.41692 0.0
O29 O 0.96192 0.78173 0.43727 0.0
O30 O 0.85086 0.68248 0.37994 0.0
O31 O 0.86404 0.74367 0.36408 0.0
O32 O 0.8334 0.58832 0.40689 0.0
C33 C 0.83231 0.69957 0.43828 0.0
C34 C 0.72544 0.57742 0.38722 0.0
O35 O 0.89218 0.81644 0.43047 0.0
O36 O 0.85153 0.80092 0.39791 0.0
C37 C 0.82657 0.56002 0.38918 0.0
O38 O 0.80452 0.55743 0.36847 0.0
O39 O 0.75666 0.59409 0.37064 0.0
O40 O 0.88458 0.31477 0.10218 0.0
Tb41 Tb 0.9083 0.27295 0.11046 0.0
C42 C 0.92919 0.22317 0.15735 0.0
O43 O 0.92753 0.21524 0.08015 0.0
Tb44 Tb 0.95323 0.18764 0.1049 0.0
C45 C 1.03394 0.21162 0.09683 0.0
O46 O 0.9497 0.28232 0.07799 0.0
O47 O 0.91974 0.12053 0.10584 0.0
C48 C 0.93845 0.103 0.11768 0.0
O49 O 0.97465 0.12698 0.129 0.0
O50 O 0.91964 0.25011 0.14712 0.0
O51 O 0.94007 0.1986 0.14487 0.0
O52 O 0.84199 0.22758 0.10745 0.0
C53 C 0.95254 0.25097 0.06948 0.0
C54 C 0.9085 0.34369 0.11842 0.0
O55 O 1.00334 0.18875 0.0811 0.0
O56 O 1.01908 0.22192 0.11682 0.0
C57 C 0.81881 0.22752 0.12716 0.0
O58 O 0.83821 0.25064 0.14751 0.0
O59 O 0.93293 0.33303 0.13015 0.0
O60 O 0.52757 0.21991 0.41251 0.0
Tb61 Tb 0.46131 0.19919 0.40791 0.0
C62 C 0.38714 0.15515 0.36709 0.0
O63 O 0.37474 0.16755 0.43229 0.0
Tb64 Tb 0.31801 0.13196 0.41013 0.0
C65 C 0.26386 0.05549 0.42585 0.0
O66 O 0.43137 0.16341 0.44298 0.0
O67 O 0.28228 0.16207 0.39987 0.0
C68 C 0.26777 0.1758 0.41866 0.0
O69 O 0.27934 0.17496 0.44278 0.0
O70 O 0.40998 0.18856 0.38132 0.0
O71 O 0.34719 0.1307 0.37329 0.0
O72 O 0.48749 0.26571 0.41214 0.0
C73 C 0.39153 0.15091 0.4469 0.0
C74 C 0.52959 0.19403 0.39644 0.0
O75 O 0.29081 0.0651 0.40692 0.0
O76 O 0.26826 0.08915 0.43637 0.0
C77 C 0.48631 0.28864 0.39303 0.0
O78 O 0.46323 0.27067 0.37243 0.0
O79 O 0.49248 0.17046 0.38623 0.0
O80 O 0.74797 0.56105 0.11424 0.0
Tb81 Tb 0.80015 0.6137 0.13327 0.0
C82 C 0.8469 0.68824 0.17222 0.0
O83 O 0.86654 0.69736 0.11126 0.0
Tb84 Tb 0.89702 0.75692 0.13058 0.0
C85 C 0.86936 0.80933 0.12156 0.0
O86 O 0.80522 0.64563 0.09687 0.0
O87 O 0.96564 0.79195 0.1316 0.0
C88 C 0.987 0.81864 0.11297 0.0
O89 O 0.96665 0.8204 0.09249 0.0
O90 O 0.81742 0.67138 0.15424 0.0
O91 O 0.87909 0.72594 0.16843 0.0
O92 O 0.84611 0.59378 0.13674 0.0
C93 C 0.83549 0.68408 0.09457 0.0
C94 C 0.72368 0.54688 0.13462 0.0
O95 O 0.88324 0.79398 0.10387 0.0
O96 O 0.86968 0.79385 0.14426 0.0
C97 C 0.84074 0.56708 0.15512 0.0
O98 O 0.81127 0.55806 0.17268 0.0
O99 O 0.74212 0.57129 0.15454 0.0
O100 O 0.88327 0.30603 0.42059 0.0
Tb101 Tb 0.90238 0.26571 0.40157 0.0
C102 C 0.91748 0.22236 0.3542 0.0
O103 O 0.91952 0.20535 0.44254 0.0
Tb104 Tb 0.92568 0.18083 0.40528 0.0
C105 C 1.00169 0.18806 0.40222 0.0
O106 O 0.94716 0.27293 0.4313 0.0
O107 O 0.8833 0.11471 0.40738 0.0
C108 C 0.87568 0.09429 0.42947 0.0
O109 O 0.88824 0.11484 0.45155 0.0
O110 O 0.92833 0.25812 0.36525 0.0
O111 O 0.90203 0.18789 0.36775 0.0
O112 O 0.83578 0.21951 0.39935 0.0
C113 C 0.94382 0.24472 0.44779 0.0
C114 C 0.89984 0.33564 0.40359 0.0
O115 O 0.96708 0.15513 0.40869 0.0
O116 O 0.99364 0.21759 0.39713 0.0
C117 C 0.81542 0.2226 0.37912 0.0
O118 O 0.83783 0.2476 0.36015 0.0
O119 O 0.91828 0.32606 0.38535 0.0
O120 O 0.22558 0.50738 0.61701 0.0
Tb121 Tb 0.20678 0.44385 0.62555 0.0
C122 C 0.17211 0.37448 0.66924 0.0
O123 O 0.17457 0.35894 0.60617 0.0
Tb124 Tb 0.14395 0.30223 0.62807 0.0
C125 C 0.06504 0.24244 0.62124 0.0
O126 O 0.16719 0.41126 0.59243 0.0
O127 O 0.18354 0.27478 0.62285 0.0
C128 C 0.17231 0.24595 0.60484 0.0
O129 O 0.14027 0.23804 0.58987 0.0
O130 O 0.20323 0.39695 0.65299 0.0
O131 O 0.14769 0.33441 0.66461 0.0
O132 O 0.27356 0.46888 0.6201 0.0
C133 C 0.15616 0.3723 0.59036 0.0
C134 C 0.2046 0.51262 0.63563 0.0
O135 O 0.08565 0.27347 0.60545 0.0
O136 O 0.08878 0.2455 0.64081 0.0
C137 C 0.29738 0.49324 0.63891 0.0
O138 O 0.27887 0.49747 0.65975 0.0
O139 O 0.18376 0.4783 0.64901 0.0
O140 O 0.37869 0.87697 0.91673 0.0
Tb141 Tb 0.32393 0.87287 0.89716 0.0
C142 C 0.28052 0.89149 0.84923 0.0
O143 O 0.25741 0.8997 0.91872 0.0
Tb144 Tb 0.23489 0.92172 0.88736 0.0
C145 C 0.24831 0.99786 0.89457 0.0
O146 O 0.32717 0.92284 0.92089 0.0
O147 O 0.16794 0.88139 0.87994 0.0
C148 C 0.14813 0.89586 0.86596 0.0
O149 O 0.17071 0.93053 0.85318 0.0
O150 O 0.2967 0.86962 0.85864 0.0
O151 O 0.28398 0.92342 0.8623 0.0
O152 O 0.28284 0.81011 0.91051 0.0
C153 C 0.29444 0.92567 0.92821 0.0
C154 C 0.40039 0.88066 0.89584 0.0
O155 O 0.23656 0.96979 0.91262 0.0
O156 O 0.25291 0.98306 0.87252 0.0
C157 C 0.24798 0.7844 0.89831 0.0
O158 O 0.23288 0.79862 0.88057 0.0
O159 O 0.37921 0.88043 0.87551 0.0
O160 O 0.60108 0.75289 0.59863 0.0
Tb161 Tb 0.66236 0.79527 0.61522 0.0
C162 C 0.71804 0.84148 0.662 0.0
O163 O 0.73676 0.86144 0.57305 0.0
Tb164 Tb 0.76455 0.88528 0.61113 0.0
C165 C 0.83249 0.87721 0.61517 0.0
O166 O 0.70081 0.79317 0.584 0.0
O167 O 0.78775 0.95029 0.60394 0.0
C168 C 0.81434 0.96896 0.5847 0.0
O169 O 0.82112 0.94636 0.56779 0.0
O170 O 0.69684 0.80498 0.65107 0.0
O171 O 0.73143 0.8754 0.64823 0.0
O172 O 0.64075 0.83986 0.61849 0.0
C173 C 0.72302 0.82249 0.56716 0.0
C174 C 0.5919 0.72241 0.61439 0.0
O175 O 0.79477 0.84718 0.61025 0.0
O176 O 0.83139 0.91107 0.6185 0.0
C177 C 0.61269 0.83213 0.63697 0.0
O178 O 0.60506 0.80247 0.65359 0.0
O179 O 0.62253 0.7329 0.63074 0.0
O180 O 0.19548 0.47852 0.91595 0.0
Tb181 Tb 0.21511 0.43721 0.89916 0.0
C182 C 0.18702 0.36197 0.86038 0.0
O183 O 0.19826 0.355 0.92201 0.0
Tb184 Tb 0.1654 0.29593 0.90236 0.0
C185 C 0.08424 0.24581 0.91241 0.0
O186 O 0.19127 0.40758 0.93679 0.0
O187 O 0.196 0.25913 0.90212 0.0
C188 C 0.17324 0.22008 0.8954 0.0
O189 O 0.13434 0.20632 0.88808 0.0
O190 O 0.17556 0.3783 0.8793 0.0
O191 O 0.18005 0.32402 0.86371 0.0
O192 O 0.28306 0.46434 0.8988 0.0
C193 C 0.18204 0.36902 0.93927 0.0
C194 C 0.19457 0.49568 0.89414 0.0
O195 O 0.11466 0.25607 0.92892 0.0
O196 O 0.09965 0.26513 0.89045 0.0
C197 C 0.30501 0.48928 0.87959 0.0
O198 O 0.2848 0.49325 0.85978 0.0
O199 O 0.20472 0.47944 0.87487 0.0
O200 O 0.35162 0.87801 0.60055 0.0
Tb201 Tb 0.30083 0.8848 0.61711 0.0
C202 C 0.25008 0.90892 0.65582 0.0
O203 O 0.23841 0.9072 0.59559 0.0
Tb204 Tb 0.20572 0.93498 0.61437 0.0
C205 C 0.23388 1.01579 0.61424 0.0
O206 O 0.29741 0.91218 0.58017 0.0
O207 O 0.13782 0.90166 0.61 0.0
C208 C 0.11966 0.91295 0.59236 0.0
O209 O 0.14328 0.94168 0.57547 0.0
O210 O 0.28151 0.9233 0.63894 0.0
O211 O 0.21825 0.91523 0.65165 0.0
O212 O 0.25623 0.81986 0.62444 0.0
C213 C 0.26851 0.92277 0.5781 0.0
C214 C 0.37732 0.89374 0.62008 0.0
O215 O 0.23107 0.99392 0.59359 0.0
O216 O 0.22216 0.99219 0.63478 0.0
C217 C 0.26077 0.80313 0.64589 0.0
O218 O 0.28855 0.82752 0.66311 0.0
O219 O 0.36023 0.90557 0.63812 0.0
O220 O 0.61703 0.74251 0.91839 0.0
Tb221 Tb 0.68198 0.78062 0.90529 0.0
C222 C 0.73878 0.83301 0.85735 0.0
O223 O 0.76002 0.83914 0.94395 0.0
Tb224 Tb 0.79594 0.86567 0.90844 0.0
C225 C 0.86084 0.85237 0.90376 0.0
O226 O 0.71936 0.77109 0.93404 0.0
O227 O 0.82532 0.93249 0.91183 0.0
C228 C 0.85527 0.9551 0.89506 0.0
O229 O 0.86331 0.93624 0.87608 0.0
O230 O 0.71129 0.79664 0.86697 0.0
O231 O 0.7662 0.86466 0.87145 0.0
O232 O 0.66499 0.82804 0.9123 0.0
C233 C 0.74655 0.80026 0.94941 0.0
C234 C 0.60678 0.71188 0.90246 0.0
O235 O 0.85994 0.88101 0.91768 0.0
O236 O 0.82441 0.83021 0.8926 0.0
C237 C 0.65133 0.84124 0.89292 0.0
O238 O 0.65598 0.83198 0.86887 0.0
O239 O 0.63925 0.71962 0.8882 0.0
C240 C 0.10061 0.22556 0.118 0.0
C241 C 0.07607 0.21594 0.09544 0.0
C242 C 0.13659 0.22157 0.11851 0.0
C243 C 0.14879 0.20855 0.09572 0.0
C244 C 0.12571 0.20173 0.07236 0.0
C245 C 0.08937 0.20513 0.07257 0.0
C246 C 0.15945 0.22804 0.14402 0.0
C247 C 0.13831 0.1889 0.04747 0.0
C248 C 0.25508 0.21353 0.09521 0.0
C249 C 0.24301 0.17214 0.09972 0.0
C250 C 0.22479 0.22598 0.09341 0.0
C251 C 0.18181 0.19657 0.09724 0.0
C252 C 0.16987 0.15497 0.10254 0.0
C253 C 0.20049 0.1432 0.10323 0.0
C254 C 0.23859 0.27028 0.08693 0.0
C255 C 0.12464 0.12272 0.10747 0.0
H256 H 0.09024 0.23365 0.13578 0.0
H257 H 0.07047 0.19781 0.05509 0.0
H258 H 0.15374 0.19782 0.15144 0.0
H259 H 0.19373 0.24784 0.14116 0.0
H260 H 0.14896 0.24236 0.15913 0.0
H261 H 0.11671 0.18408 0.03107 0.0
H262 H 0.17048 0.21291 0.04178 0.0
H263 H 0.13881 0.15982 0.05055 0.0
H264 H 0.28798 0.23584 0.09238 0.0
H265 H 0.19119 0.11123 0.107 0.0
H266 H 0.22858 0.28413 0.10257 0.0
H267 H 0.22332 0.27155 0.0686 0.0
H268 H 0.2731 0.28932 0.08446 0.0
H269 H 0.12094 0.09229 0.11276 0.0
H270 H 0.10574 0.11868 0.08976 0.0
H271 H 0.11151 0.13292 0.12351 0.0
C272 C 0.19317 1.00924 0.44467 0.0
C273 C 0.22745 1.01396 0.42997 0.0
C274 C 0.15486 0.97197 0.44423 0.0
C275 C 0.15099 0.93862 0.42889 0.0
C276 C 0.18659 0.94224 0.41574 0.0
C277 C 0.22442 0.98003 0.41632 0.0
C278 C 0.11777 0.96939 0.45866 0.0
C279 C 0.18405 0.90713 0.39969 0.0
C280 C 1.05079 0.83575 0.43836 0.0
C281 C 1.02568 0.83651 0.41806 0.0
C282 C 0.09227 0.868 0.4416 0.0
C283 C 0.10881 0.90201 0.42433 0.0
C284 C 0.08411 0.90221 0.40326 0.0
C285 C 1.04298 0.86935 0.40028 0.0
C286 C 0.11786 0.86634 0.46401 0.0
C287 C 0.10052 0.93803 0.38447 0.0
H288 H 0.1955 0.03542 0.45532 0.0
H289 H 0.25103 0.98358 0.40507 0.0
H290 H 0.0946 0.96806 0.44435 0.0
H291 H 0.10195 0.94083 0.47052 0.0
H292 H 0.12694 0.99634 0.47173 0.0
H293 H 0.21556 0.91262 0.39396 0.0
H294 H 0.16743 0.8777 0.41067 0.0
H295 H 0.16589 0.90338 0.38166 0.0
H296 H 1.03773 0.81038 0.45212 0.0
H297 H 1.02383 0.87027 0.3846 0.0
H298 H 0.12329 0.89061 0.47852 0.0
H299 H 0.14905 0.87264 0.45697 0.0
H300 H 0.10209 0.83595 0.47401 0.0
H301 H 0.10724 0.96653 0.39519 0.0
H302 H 0.07793 0.9328 0.3686 0.0
H303 H 0.13036 0.9435 0.37553 0.0
C304 C 0.88131 1.03056 0.10709 0.0
C305 C 0.92121 0.05763 0.11721 0.0
C306 C 0.86577 0.98763 0.10633 0.0
C307 C 0.89092 0.9716 0.11566 0.0
C308 C 0.93118 0.99888 0.12586 0.0
C309 C 0.94566 0.04136 0.12661 0.0
C310 C 0.82257 0.95947 0.09556 0.0
C311 C 0.95931 0.98328 0.13577 0.0
C312 C 0.85236 0.86204 0.13841 0.0
C313 C 0.86555 0.84647 0.11778 0.0
C314 C 0.85713 0.9017 0.13709 0.0
C315 C 0.87604 0.92647 0.11474 0.0
C316 C 0.8866 0.90962 0.09312 0.0
C317 C 0.88104 0.86971 0.09487 0.0
C318 C 0.84496 0.91822 0.16044 0.0
C319 C 0.9069 0.93495 0.06896 0.0
H320 H 0.86221 0.04287 0.09981 0.0
H321 H 0.97661 0.06194 0.13435 0.0
H322 H 0.82461 0.94227 0.07844 0.0
H323 H 0.80295 0.93628 0.11047 0.0
H324 H 0.80662 0.97664 0.08952 0.0
H325 H 0.98988 1.00861 0.14289 0.0
H326 H 0.94364 0.96117 0.15199 0.0
H327 H 0.96538 0.96652 0.11996 0.0
H328 H 0.84027 0.84407 0.15614 0.0
H329 H 0.89148 0.85783 0.07894 0.0
H330 H 0.82822 0.93448 0.1542 0.0
H331 H 0.87365 0.94092 0.17092 0.0
H332 H 0.82471 0.89333 0.17432 0.0
H333 H 0.88771 0.94775 0.06121 0.0
H334 H 0.91114 0.91667 0.05331 0.0
H335 H 0.9381 0.96144 0.07398 0.0
C336 C 0.21862 0.19959 0.43424 0.0
C337 C 0.23437 0.18633 0.41361 0.0
C338 C 0.18341 0.20438 0.43094 0.0
C339 C 0.16321 0.19575 0.40637 0.0
C340 C 0.18025 0.18447 0.38509 0.0
C341 C 0.21557 0.17988 0.38895 0.0
C342 C 0.16649 0.21652 0.45419 0.0
C343 C 0.15989 0.17518 0.35854 0.0
C344 C 1.04578 0.15553 0.40832 0.0
C345 C 1.04326 0.19067 0.40197 0.0
C346 C 0.08446 0.15675 0.40935 0.0
C347 C 0.12189 0.19409 0.40385 0.0
C348 C 0.11957 0.22963 0.39701 0.0
C349 C 0.08023 0.22752 0.39619 0.0
C350 C 0.08523 0.11811 0.41682 0.0
C351 C 0.15866 0.26998 0.39098 0.0
H352 H 0.23295 0.20493 0.45335 0.0
H353 H 0.22745 0.16972 0.37286 0.0
H354 H 0.16104 0.24222 0.44901 0.0
H355 H 0.13585 0.19 0.46015 0.0
H356 H 0.18799 0.22611 0.47118 0.0
H357 H 0.12922 0.14618 0.35948 0.0
H358 H 0.15376 0.20012 0.35249 0.0
H359 H 0.1795 0.17158 0.34337 0.0
H360 H 1.01734 0.12691 0.4128 0.0
H361 H 0.07846 0.25477 0.39129 0.0
H362 H 0.10329 0.12355 0.43511 0.0
H363 H 0.10122 0.11007 0.40139 0.0
H364 H 1.05329 0.09129 0.41982 0.0
H365 H 0.17889 0.28118 0.40853 0.0
H366 H 0.1515 0.29417 0.3847 0.0
H367 H 0.17697 0.26547 0.37533 0.0
C368 C 0.23407 0.99058 0.12244 0.0
C369 C 0.23639 1.02521 0.13476 0.0
C370 C 0.19539 0.95362 0.11978 0.0
C371 C 0.15816 0.95138 0.12953 0.0
C372 C 0.16078 0.98589 0.14284 0.0
C373 C 0.19976 1.0222 0.14534 0.0
C374 C 0.19412 0.91759 0.10558 0.0
C375 C 0.12208 0.98521 0.15339 0.0
C376 C 1.05265 0.88127 0.09755 0.0
C377 C 1.03233 0.84979 0.11615 0.0
C378 C 0.09397 0.91359 0.10128 0.0
C379 C 0.11603 0.91455 0.12409 0.0
C380 C 0.0964 0.88197 0.14243 0.0
C381 C 1.05477 0.85012 0.13832 0.0
C382 C 0.11337 0.94768 0.08125 0.0
C383 C 0.11891 0.88152 0.16685 0.0
H384 H 0.26222 0.99278 0.11409 0.0
H385 H 0.20126 0.04889 0.15481 0.0
H386 H 0.17593 0.8888 0.117 0.0
H387 H 0.17806 0.91302 0.08656 0.0
H388 H 0.22599 0.92242 0.10183 0.0
H389 H 0.10129 0.98246 0.13697 0.0
H390 H 0.10418 0.958 0.16618 0.0
H391 H 0.1297 1.01352 0.1647 0.0
H392 H 1.03581 0.88147 0.08032 0.0
H393 H 1.03952 0.82597 0.15279 0.0
H394 H 0.1441 0.95214 0.07468 0.0
H395 H 0.11914 0.97716 0.09017 0.0
H396 H 0.09307 0.94126 0.06387 0.0
H397 H 0.15025 0.88599 0.16184 0.0
H398 H 0.10106 0.85223 0.17789 0.0
H399 H 0.1239 0.90747 0.17977 0.0
C400 C 0.82234 0.85823 0.41634 0.0
C401 C 0.85835 0.85833 0.42504 0.0
C402 C 0.8179 0.8932 0.41958 0.0
C403 C 0.8511 0.92954 0.43071 0.0
C404 C 0.88689 0.92913 0.44034 0.0
C405 C 0.88976 0.89327 0.43773 0.0
C406 C 0.77838 0.8917 0.41031 0.0
C407 C 0.92333 0.96731 0.45195 0.0
C408 C 0.87182 0.0337 0.40652 0.0
C409 C 0.86271 0.04992 0.42872 0.0
C410 C 0.86689 0.99404 0.40673 0.0
C411 C 0.85107 0.96932 0.42941 0.0
C412 C 0.839 0.98442 0.45127 0.0
C413 C 0.84577 1.02493 0.45086 0.0
C414 C 0.88118 0.97971 0.38321 0.0
C415 C 0.82058 0.95863 0.47549 0.0
H416 H 0.79792 0.83101 0.40669 0.0
H417 H 0.91768 0.89335 0.44438 0.0
H418 H 0.76702 0.90561 0.42513 0.0
H419 H 0.78496 0.90995 0.39212 0.0
H420 H 0.75306 0.85961 0.40627 0.0
H421 H 0.94826 0.96148 0.45922 0.0
H422 H 0.93716 0.99202 0.43699 0.0
H423 H 0.91247 0.97904 0.46838 0.0
H424 H 0.8853 0.05295 0.38942 0.0
H425 H 0.83854 0.0373 0.46804 0.0
H426 H 0.85539 0.94977 0.37602 0.0
H427 H 0.90743 0.97481 0.38882 0.0
H428 H 0.89186 1.00228 0.36691 0.0
H429 H 0.79844 0.92596 0.47034 0.0
H430 H 0.80388 0.97043 0.48778 0.0
H431 H 0.84608 0.95946 0.48734 0.0
C432 C 0.22054 0.06878 0.63414 0.0
C433 C 0.23822 0.05726 0.6138 0.0
C434 C 0.21647 0.10399 0.63216 0.0
C435 C 0.23165 0.12912 0.6096 0.0
C436 C 0.25281 0.11949 0.58999 0.0
C437 C 0.25521 0.0832 0.59213 0.0
C438 C 0.1929 0.11236 0.65331 0.0
C439 C 0.27089 0.14606 0.56605 0.0
C440 C 0.16843 0.17998 0.59136 0.0
C441 C 0.19074 0.21858 0.60367 0.0
C442 C 0.18237 0.15131 0.59229 0.0
C443 C 0.22021 0.16173 0.60531 0.0
C444 C 0.24427 0.20161 0.61641 0.0
C445 C 0.22893 0.22939 0.61583 0.0
C446 C 0.15535 0.10901 0.58048 0.0
C447 C 0.28561 0.21447 0.62949 0.0
H448 H 0.20729 0.04874 0.65094 0.0
H449 H 0.26941 0.07457 0.57659 0.0
H450 H 0.21134 0.1447 0.66024 0.0
H451 H 0.16306 0.1081 0.64528 0.0
H452 H 0.18549 0.09149 0.67034 0.0
H453 H 0.29642 0.14225 0.55729 0.0
H454 H 0.24593 0.1368 0.55119 0.0
H455 H 0.28334 0.17918 0.57066 0.0
H456 H 0.1389 0.17128 0.58191 0.0
H457 H 0.24658 0.25934 0.62511 0.0
H458 H 0.14476 0.08521 0.596 0.0
H459 H 0.17374 0.10223 0.56611 0.0
H460 H 0.12728 0.10611 0.57053 0.0
H461 H 0.28013 0.1973 0.64805 0.0
H462 H 0.30316 0.24805 0.6339 0.0
H463 H 0.30533 0.20674 0.61686 0.0
C464 C 0.08266 0.89683 0.85427 0.0
C465 C 0.10196 0.87888 0.86852 0.0
C466 C 1.0411 0.88683 0.85934 0.0
C467 C 1.0177 0.85784 0.87908 0.0
C468 C 1.03605 0.83768 0.89245 0.0
C469 C 0.07796 0.84849 0.88708 0.0
C470 C 1.02311 0.90927 0.84458 0.0
C471 C 1.01218 0.80627 0.91343 0.0
C472 C 0.93636 0.87722 0.9123 0.0
C473 C 0.89935 0.8497 0.89923 0.0
C474 C 0.97455 0.87891 0.90664 0.0
C475 C 0.97607 0.85231 0.88741 0.0
C476 C 0.93841 0.82321 0.87487 0.0
C477 C 0.90048 0.82231 0.88088 0.0
C478 C 1.0137 0.9105 0.92053 0.0
C479 C 0.93847 0.79409 0.85443 0.0
H480 H 0.10066 0.92017 0.83978 0.0
H481 H 0.09241 0.83438 0.89822 0.0
H482 H 0.992 0.88697 0.83642 0.0
H483 H 1.0185 0.9299 0.85815 0.0
H484 H 1.04385 0.92823 0.82835 0.0
H485 H 1.02839 0.78933 0.91945 0.0
H486 H 1.00865 0.82205 0.93084 0.0
H487 H 0.98023 0.78366 0.90658 0.0
H488 H 0.93576 0.89845 0.92655 0.0
H489 H 0.87201 0.80097 0.87071 0.0
H490 H 1.0356 0.93352 0.90625 0.0
H491 H 1.03002 0.89544 0.9294 0.0
H492 H 1.00686 0.92709 0.93611 0.0
H493 H 0.95555 0.81182 0.83681 0.0
H494 H 0.90625 0.7704 0.8486 0.0
H495 H 0.95513 0.77832 0.86174 0.0
C496 C 0.84069 0.03757 0.6066 0.0
C497 C 0.84366 1.01411 0.58609 0.0
C498 C 0.87311 0.07807 0.61143 0.0
C499 C 0.90939 0.09541 0.59544 0.0
C500 C 0.91105 0.07304 0.5735 0.0
C501 C 0.8781 0.03275 0.56903 0.0
C502 C 0.86983 0.10106 0.63479 0.0
C503 C 0.94907 0.09034 0.5559 0.0
C504 C 0.99448 0.20859 0.59995 0.0
C505 C 1.02374 0.20602 0.616 0.0
C506 C 0.9562 0.17305 0.59378 0.0
C507 C 0.9477 0.13418 0.60349 0.0
C508 C 0.97698 0.1318 0.62016 0.0
C509 C 1.01439 0.16782 0.62643 0.0
C510 C 0.92487 0.17708 0.57703 0.0
C511 C 0.96938 0.091 0.63081 0.0
H512 H 0.81404 1.0236 0.61977 0.0
H513 H 0.88059 1.01506 0.553 0.0
H514 H 0.89085 0.10168 0.65045 0.0
H515 H 0.88005 0.13351 0.62965 0.0
H516 H 0.83739 0.08631 0.64269 0.0
H517 H 0.94287 0.07225 0.53755 0.0
H518 H 0.95963 0.12287 0.55085 0.0
H519 H 0.97516 0.08987 0.56632 0.0
H520 H 1.00153 0.23833 0.59224 0.0
H521 H 1.03709 0.16583 0.63882 0.0
H522 H 0.89757 0.17161 0.58919 0.0
H523 H 0.91297 0.15353 0.56127 0.0
H524 H 0.93838 0.20818 0.56812 0.0
H525 H 0.93928 0.07543 0.64169 0.0
H526 H 0.9948 0.09463 0.64405 0.0
H527 H 0.96697 0.07037 0.61445 0.0
C528 C 0.23136 0.20495 0.90428 0.0
C529 C 0.18982 0.19127 0.89689 0.0
C530 C 0.24668 0.17726 0.90579 0.0
C531 C 0.21977 0.13503 0.89979 0.0
C532 C 0.17774 0.12109 0.89258 0.0
C533 C 0.16335 0.14933 0.89119 0.0
C534 C 0.29168 0.1932 0.9135 0.0
C535 C 0.14788 0.07627 0.88613 0.0
C536 C 0.25673 0.06273 0.87562 0.0
C537 C 0.24877 0.03734 0.89742 0.0
C538 C 0.25025 0.09662 0.87669 0.0
C539 C 0.23529 0.10512 0.90009 0.0
C540 C 0.22996 0.0812 0.92269 0.0
C541 C 0.23693 0.04758 0.92109 0.0
C542 C 0.25655 0.12146 0.8522 0.0
C543 C 0.21438 0.0895 0.94805 0.0
H544 H 0.25195 0.23728 0.9088 0.0
H545 H 0.13113 0.13835 0.8856 0.0
H546 H 0.29312 0.17584 0.9306 0.0
H547 H 0.30874 0.18822 0.89727 0.0
H548 H 0.30814 0.2266 0.91843 0.0
H549 H 0.1159 0.07029 0.88149 0.0
H550 H 0.15989 0.06675 0.86912 0.0
H551 H 0.14564 0.05646 0.90284 0.0
H552 H 0.26616 0.055 0.85733 0.0
H553 H 0.23113 1.02815 0.93805 0.0
H554 H 0.27447 0.15498 0.85656 0.0
H555 H 0.22561 0.11446 0.84445 0.0
H556 H 0.27336 0.11443 0.83675 0.0
H557 H 0.23488 0.12207 0.95408 0.0
H558 H 0.21332 0.06905 0.96406 0.0
H559 H 0.1824 0.08476 0.94535 0.0
C560 C 1.05465 0.90967 0.57476 0.0
C561 C 0.07396 0.89816 0.59391 0.0
C562 C 1.01303 0.90091 0.5777 0.0
C563 C 0.99011 0.88037 0.60044 0.0
C564 C 1.00866 0.86671 0.61916 0.0
C565 C 1.05029 0.87564 0.61563 0.0
C566 C 0.99435 0.91559 0.55707 0.0
C567 C 0.98538 0.8447 0.64365 0.0
C568 C 0.9092 0.90907 0.62237 0.0
C569 C 0.87164 0.87536 0.61364 0.0
C570 C 0.94765 0.91041 0.61881 0.0
C571 C 0.94877 0.87738 0.60591 0.0
C572 C 0.91076 0.84276 0.59751 0.0
C573 C 0.87254 0.84207 0.60159 0.0
C574 C 0.98727 0.9478 0.62826 0.0
C575 C 0.91061 0.80716 0.58343 0.0
H576 H 0.0725 0.92677 0.55779 0.0
H577 H 0.06481 0.86649 0.63053 0.0
H578 H 0.96288 0.8903 0.55134 0.0
H579 H 0.99036 0.94102 0.56511 0.0
H580 H 1.01439 0.92701 0.53932 0.0
H581 H 1.00226 0.83213 0.65484 0.0
H582 H 0.98129 0.86651 0.6564 0.0
H583 H 0.95366 0.81901 0.63877 0.0
H584 H 0.90862 0.9349 0.63164 0.0
H585 H 0.84358 0.81616 0.59455 0.0
H586 H 1.00793 0.96404 0.61137 0.0
H587 H 1.00478 0.93818 0.64131 0.0
H588 H 0.98084 0.96993 0.639 0.0
H589 H 0.92688 0.81787 0.56435 0.0
H590 H 0.87835 0.7813 0.57986 0.0
H591 H 0.928 0.79547 0.59486 0.0
C592 C 1.03502 0.18006 0.93473 0.0
C593 C 1.04228 0.20885 0.91508 0.0
C594 C 0.99968 0.14032 0.93402 0.0
C595 C 0.97084 0.12923 0.91317 0.0
C596 C 0.97611 0.15952 0.89464 0.0
C597 C 1.012 0.19893 0.8957 0.0
C598 C 0.99553 0.10918 0.95419 0.0
C599 C 0.94568 0.14934 0.87245 0.0
C600 C 0.92336 1.01955 0.88769 0.0
C601 C 0.8834 1.00002 0.89918 0.0
C602 C 0.95187 0.0614 0.89223 0.0
C603 C 0.93995 0.08484 0.90821 0.0
C604 C 0.89932 0.0656 0.91949 0.0
C605 C 0.87163 1.02321 0.9151 0.0
C606 C 0.99515 0.08031 0.88023 0.0
C607 C 0.88522 0.08979 0.93619 0.0
H608 H 0.05848 0.18752 0.94969 0.0
H609 H 1.01747 0.2212 0.88051 0.0
H610 H 0.9627 0.09065 0.9611 0.0
H611 H 1.00444 0.08757 0.94523 0.0
H612 H 1.01608 0.12416 0.97132 0.0
H613 H 0.94977 0.1776 0.86268 0.0
H614 H 0.95074 0.13041 0.85771 0.0
H615 H 0.91289 0.13098 0.87952 0.0
H616 H 0.93291 1.00182 0.87559 0.0
H617 H 0.84075 1.00829 0.92398 0.0
H618 H 1.01925 0.09313 0.89579 0.0
H619 H 1.00067 0.10621 0.86723 0.0
H620 H 0.99971 0.05764 0.86868 0.0
H621 H 0.90587 0.10268 0.95345 0.0
H622 H 0.85235 0.07058 0.94304 0.0
H623 H 0.88784 0.11628 0.92494 0.0
C624 C 0.37181 0.11997 0.32368 0.0
C625 C 0.39823 0.15421 0.3392 0.0
C626 C 0.37615 0.12102 0.29642 0.0
C627 C 0.40786 0.15715 0.28425 0.0
C628 C 0.43655 0.19074 0.29986 0.0
C629 C 0.43157 0.18876 0.32719 0.0
C630 C 0.3453 0.08419 0.28059 0.0
C631 C 0.47114 0.22962 0.28764 0.0
C632 C 0.42951 0.14576 0.21288 0.0
C633 C 0.40461 0.15885 0.19996 0.0
C634 C 0.43205 0.14636 0.24026 0.0
C635 C 0.40911 0.16031 0.25518 0.0
C636 C 0.38484 0.17462 0.24229 0.0
C637 C 0.38288 0.17373 0.21486 0.0
C638 C 0.45832 0.13091 0.25322 0.0
C639 C 0.35996 0.18982 0.25752 0.0
H640 H 0.34643 0.09274 0.33275 0.0
H641 H 0.45268 0.21502 0.33895 0.0
H642 H 0.32553 0.09268 0.26883 0.0
H643 H 0.36213 0.0746 0.26675 0.0
H644 H 0.32447 0.0574 0.29307 0.0
H645 H 0.49332 0.25117 0.30243 0.0
H646 H 0.4889 0.22207 0.27322 0.0
H647 H 0.45731 0.24567 0.27695 0.0
H648 H 0.44672 0.13446 0.20163 0.0
H649 H 0.36371 0.18406 0.20513 0.0
H650 H 0.43771 0.1022 0.26418 0.0
H651 H 0.48003 0.15394 0.26752 0.0
H652 H 0.47696 0.12429 0.23887 0.0
H653 H 0.33537 0.16414 0.26922 0.0
H654 H 0.34464 0.20214 0.24462 0.0
H655 H 0.38065 0.21441 0.27138 0.0
C656 C 0.81904 0.70721 0.31738 0.0
C657 C 0.8278 0.68459 0.33549 0.0
C658 C 0.81399 0.69678 0.29079 0.0
C659 C 0.81749 0.66262 0.28204 0.0
C660 C 0.82166 0.63696 0.30064 0.0
C661 C 0.82712 0.64845 0.3272 0.0
C662 C 0.80911 0.72487 0.27179 0.0
C663 C 0.82402 0.59944 0.29236 0.0
C664 C 0.79864 0.64605 0.20886 0.0
C665 C 0.83932 0.67203 0.19931 0.0
C666 C 0.79106 0.63928 0.23592 0.0
C667 C 0.82489 0.65928 0.25364 0.0
C668 C 0.86632 0.68216 0.2438 0.0
C669 C 0.87297 0.68803 0.21682 0.0
C670 C 0.74658 0.61339 0.24549 0.0
C671 C 0.90354 0.7037 0.26182 0.0
H672 H 0.81897 0.73487 0.32372 0.0
H673 H 0.83387 0.63076 0.34106 0.0
H674 H 0.83849 0.74244 0.26034 0.0
H675 H 0.78351 0.70659 0.2578 0.0
H676 H 0.8023 0.74726 0.28185 0.0
H677 H 0.81589 0.5773 0.30874 0.0
H678 H 0.80274 0.58345 0.27573 0.0
H679 H 0.85643 0.60912 0.28592 0.0
H680 H 0.77243 0.63325 0.19547 0.0
H681 H 0.90458 0.70747 0.20952 0.0
H682 H 0.73397 0.63387 0.25087 0.0
H683 H 0.74507 0.59552 0.26312 0.0
H684 H 0.72609 0.59167 0.23015 0.0
H685 H 0.90211 0.72896 0.27238 0.0
H686 H 0.93382 0.71716 0.2511 0.0
H687 H 0.90292 0.68189 0.27665 0.0
C688 C 0.8988 0.22825 0.19997 0.0
C689 C 0.92699 0.22022 0.1862 0.0
C690 C 0.89673 0.22658 0.22731 0.0
C691 C 0.9241 0.21744 0.24131 0.0
C692 C 0.95247 0.209 0.22756 0.0
C693 C 0.95328 0.21007 0.20012 0.0
C694 C 0.86548 0.23499 0.24122 0.0
C695 C 0.98261 0.19981 0.24185 0.0
C696 C 0.94597 0.25656 0.31121 0.0
C697 C 0.92003 0.22061 0.3254 0.0
C698 C 0.94844 0.25569 0.28389 0.0
C699 C 0.92381 0.21808 0.27037 0.0
C700 C 0.89774 0.1816 0.28457 0.0
C701 C 0.89644 0.18323 0.31195 0.0
C702 C 0.9771 0.29513 0.26946 0.0
C703 C 0.87049 0.14107 0.2708 0.0
H704 H 0.87801 0.23557 0.18933 0.0
H705 H 0.97529 0.20405 0.18959 0.0
H706 H 0.84549 0.20899 0.25445 0.0
H707 H 0.88225 0.2631 0.25349 0.0
H708 H 0.84495 0.23949 0.22742 0.0
H709 H 1.0021 0.19309 0.22829 0.0
H710 H 1.00367 0.22657 0.25426 0.0
H711 H 0.96518 0.17299 0.25501 0.0
H712 H 0.96461 0.28548 0.32148 0.0
H713 H 0.8762 0.15534 0.32278 0.0
H714 H 0.95835 0.30369 0.25676 0.0
H715 H 0.9988 0.29055 0.25661 0.0
H716 H 0.9959 0.32126 0.28294 0.0
H717 H 0.84783 0.14386 0.25799 0.0
H718 H 0.85274 0.11532 0.28471 0.0
H719 H 0.88995 0.13315 0.25811 0.0
C720 C 0.1428 0.36302 0.71445 0.0
C721 C 0.17554 0.38724 0.6971 0.0
C722 C 0.14827 0.36815 0.74157 0.0
C723 C 0.18734 0.39869 0.75173 0.0
C724 C 0.21914 0.4259 0.73434 0.0
C725 C 0.21298 0.4197 0.7072 0.0
C726 C 0.11329 0.33854 0.7593 0.0
C727 C 0.26078 0.45967 0.74431 0.0
C728 C 0.18424 0.40794 0.82565 0.0
C729 C 0.19628 0.37955 0.83363 0.0
C730 C 0.18452 0.41747 0.79903 0.0
C731 C 0.19635 0.39751 0.78002 0.0
C732 C 0.21157 0.37131 0.78823 0.0
C733 C 0.21157 0.36289 0.81489 0.0
C734 C 0.16925 0.44654 0.79124 0.0
C735 C 0.22469 0.34941 0.76875 0.0
H736 H 0.11348 0.33833 0.70685 0.0
H737 H 0.23847 0.43871 0.69406 0.0
H738 H 0.1227 0.318 0.76907 0.0
H739 H 0.10711 0.35565 0.77479 0.0
H740 H 0.08372 0.31902 0.74849 0.0
H741 H 0.2783 0.48322 0.72906 0.0
H742 H 0.25645 0.47511 0.76163 0.0
H743 H 0.28014 0.44609 0.75041 0.0
H744 H 0.17197 0.42065 0.83991 0.0
H745 H 0.22135 0.34125 0.82093 0.0
H746 H 0.13613 0.42837 0.78488 0.0
H747 H 0.18782 0.46629 0.77463 0.0
H748 H 0.17092 0.46662 0.80779 0.0
H749 H 0.19689 0.32656 0.75761 0.0
H750 H 0.23911 0.33294 0.77832 0.0
H751 H 0.24744 0.37169 0.75451 0.0
C752 C 0.27072 0.85587 0.80602 0.0
C753 C 0.2727 0.88873 0.82061 0.0
C754 C 0.26685 0.85444 0.77868 0.0
C755 C 0.265 0.88667 0.76553 0.0
C756 C 0.26603 0.91943 0.78016 0.0
C757 C 0.26962 0.91995 0.8075 0.0
C758 C 0.26517 0.81866 0.76384 0.0
C759 C 0.26398 0.95436 0.76689 0.0
C760 C 0.29388 0.91056 0.69367 0.0
C761 C 0.25434 0.89597 0.68239 0.0
C762 C 0.29785 0.90604 0.72061 0.0
C763 C 0.26141 0.88614 0.73649 0.0
C764 C 0.22142 0.86863 0.72477 0.0
C765 C 0.2184 0.87391 0.69791 0.0
C766 C 0.34108 0.92494 0.73231 0.0
C767 C 0.18176 0.84647 0.74083 0.0
H768 H 0.27265 0.83134 0.81594 0.0
H769 H 0.27096 0.9454 0.81851 0.0
H770 H 0.23615 0.80303 0.75202 0.0
H771 H 0.29201 0.83009 0.75006 0.0
H772 H 0.26606 0.79558 0.77701 0.0
H773 H 0.26536 0.97762 0.78102 0.0
H774 H 0.2904 0.97001 0.75287 0.0
H775 H 0.23454 0.94206 0.75556 0.0
H776 H 0.32178 0.92776 0.68181 0.0
H777 H 0.18772 0.86221 0.68924 0.0
H778 H 0.34347 0.9025 0.74525 0.0
H779 H 0.34699 0.95192 0.74451 0.0
H780 H 0.36594 0.93537 0.71712 0.0
H781 H 0.1829 0.82335 0.75378 0.0
H782 H 0.15335 0.83058 0.72843 0.0
H783 H 0.17878 0.86899 0.75352 0.0
C784 C 0.72867 0.81332 0.70334 0.0
C785 C 0.72449 0.84404 0.6905 0.0
C786 C 0.73406 0.81457 0.73047 0.0
C787 C 0.73394 0.84664 0.7452 0.0
C788 C 0.73 0.87795 0.73229 0.0
C789 C 0.72596 0.87661 0.70498 0.0
C790 C 0.73924 0.78119 0.74342 0.0
C791 C 0.72853 0.91196 0.7474 0.0
C792 C 0.69956 0.81779 0.81551 0.0
C793 C 0.73772 0.8386 0.82889 0.0
C794 C 0.69776 0.82175 0.78842 0.0
C795 C 0.7353 0.84574 0.7742 0.0
C796 C 0.774 0.86689 0.78759 0.0
C797 C 0.77466 0.86364 0.8149 0.0
C798 C 0.65571 0.79971 0.775 0.0
C799 C 0.8148 0.89166 0.77299 0.0
H800 H 0.72804 0.78838 0.69209 0.0
H801 H 0.72252 0.90029 0.69505 0.0
H802 H 0.76731 0.79517 0.75615 0.0
H803 H 0.7117 0.76203 0.75602 0.0
H804 H 0.74245 0.76067 0.72897 0.0
H805 H 0.72686 0.93477 0.73438 0.0
H806 H 0.7007 0.89844 0.76047 0.0
H807 H 0.75659 0.92838 0.75997 0.0
H808 H 0.6709 0.79848 0.82626 0.0
H809 H 0.80424 0.87945 0.82521 0.0
H810 H 0.65407 0.77498 0.76217 0.0
H811 H 0.65162 0.82152 0.76243 0.0
H812 H 0.62926 0.78558 0.78914 0.0
H813 H 0.8199 0.87101 0.75974 0.0
H814 H 0.84204 0.9073 0.78635 0.0
H815 H 0.81356 0.91531 0.76064 0.0
C816 C 0.26947 0.95479 0.96346 0.0
C817 C 0.30054 0.96016 0.94541 0.0
C818 C 0.27758 0.98455 0.9829 0.0
C819 C 0.3176 1.02059 0.98411 0.0
C820 C 0.34775 1.02763 0.96453 0.0
C821 C 0.33905 0.99711 0.94561 0.0
C822 C 0.24453 0.97578 1.00336 0.0
C823 C 0.39042 0.06601 0.9647 0.0
C824 C 0.34068 0.10675 0.03324 0.0
C825 C 0.36085 0.09754 0.05309 0.0
C826 C 0.3258 0.08182 0.01065 0.0
C827 C 0.33071 0.04668 1.00817 0.0
C828 C 0.34991 0.03674 0.02856 0.0
C829 C 0.36493 0.06234 0.05054 0.0
C830 C 0.30595 0.0937 0.98919 0.0
C831 C 0.35511 0.99916 0.02708 0.0
H832 H 0.23964 0.92625 0.96335 0.0
H833 H 0.36298 1.00163 0.93146 0.0
H834 H 0.25366 0.96737 0.02197 0.0
H835 H 0.24187 1.0036 1.00716 0.0
H836 H 0.21333 0.95 0.99751 0.0
H837 H 0.40759 0.07001 0.94604 0.0
H838 H 0.38757 0.0938 0.96821 0.0
H839 H 0.40935 0.06403 0.98082 0.0
H840 H 0.33733 0.13384 0.0351 0.0
H841 H 0.37978 0.05446 0.06593 0.0
H842 H 0.27666 0.06641 0.98233 0.0
H843 H 0.32764 0.1056 0.97224 0.0
H844 H 0.29874 0.1179 0.99559 0.0
H845 H 0.32434 0.97105 0.02364 0.0
H846 H 0.3688 0.99464 0.04519 0.0
H847 H 0.37586 1.00222 1.01043 0.0
C848 C 0.8431 0.74475 0.4765 0.0
C849 C 0.82202 0.72698 0.4532 0.0
C850 C 0.83028 0.76685 0.49269 0.0
C851 C 0.79639 0.77215 0.48489 0.0
C852 C 0.77763 0.75733 0.46018 0.0
C853 C 0.78995 0.73391 0.44488 0.0
C854 C 0.85108 0.78205 0.5189 0.0
C855 C 0.74321 0.76451 0.45049 0.0
C856 C 0.72424 0.76894 0.5388 0.0
C857 C 0.73906 0.81092 0.54386 0.0
C858 C 0.74248 0.75628 0.51954 0.0
C859 C 0.77595 0.78625 0.50433 0.0
C860 C 0.79016 0.82872 0.50856 0.0
C861 C 0.77146 0.84061 0.52827 0.0
C862 C 0.72686 0.71067 0.51625 0.0
C863 C 0.82477 0.86167 0.49228 0.0
H864 H 0.86816 0.73951 0.48268 0.0
H865 H 0.77431 0.72072 0.42653 0.0
H866 H 0.86092 0.81511 0.52159 0.0
H867 H 0.82835 0.76458 0.53469 0.0
H868 H 0.87894 0.77826 0.52118 0.0
H869 H 0.73749 0.75799 0.42926 0.0
H870 H 0.71372 0.74411 0.46117 0.0
H871 H 0.75122 0.79689 0.45424 0.0
H872 H 0.699 0.74561 0.55053 0.0
H873 H 0.78297 0.87309 0.53189 0.0
H874 H 0.75304 0.70446 0.51917 0.0
H875 H 0.71495 0.70072 0.49614 0.0
H876 H 0.70136 0.69144 0.53022 0.0
H877 H 0.84933 0.85378 0.4875 0.0
H878 H 0.83969 0.89216 0.50221 0.0
H879 H 0.81113 0.86441 0.47369 0.0
C880 C 0.15138 0.31551 0.9743 0.0
C881 C 0.14708 0.34145 0.9565 0.0
C882 C 0.12007 0.29346 0.99312 0.0
C883 C 0.0836 0.29715 0.99374 0.0
C884 C 0.07827 0.32144 0.97464 0.0
C885 C 0.11031 0.3437 0.9565 0.0
C886 C 0.12678 0.26776 0.013 0.0
C887 C 1.03963 0.32575 0.97423 0.0
C888 C 0.98454 0.23077 0.03324 0.0
C889 C 0.98881 0.2584 0.05315 0.0
C890 C 1.01642 0.24164 0.01445 0.0
C891 C 1.05352 0.28065 0.01607 0.0
C892 C 0.05919 0.30695 0.03752 0.0
C893 C 1.02659 0.29572 0.0556 0.0
C894 C 1.0094 0.21253 0.99208 0.0
C895 C 0.09852 0.34842 0.0404 0.0
H896 H 0.17994 0.31387 0.97419 0.0
H897 H 0.10698 0.36359 0.94254 0.0
H898 H 0.12735 0.27975 0.03295 0.0
H899 H 0.10034 0.23559 0.01229 0.0
H900 H 0.15647 0.26751 1.00964 0.0
H901 H 1.03838 0.34225 0.95657 0.0
H902 H 1.01094 0.2949 0.97488 0.0
H903 H 1.03926 0.34314 0.99175 0.0
H904 H 0.95533 0.20181 0.03144 0.0
H905 H 1.03016 0.31689 0.07123 0.0
H906 H 1.0343 0.20414 0.992 0.0
H907 H 1.01137 0.22791 0.97322 0.0
H908 H 0.9785 0.18375 0.99331 0.0
H909 H 0.12675 0.34532 0.03785 0.0
H910 H 0.10023 0.36275 0.05974 0.0
H911 H 0.09936 0.3696 0.025 0.0
C912 C 0.33127 0.11229 0.47791 0.0
C913 C 0.36615 0.11558 0.46457 0.0
C914 C 0.30892 0.08047 0.49614 0.0
C915 C 0.322 0.0514 0.5013 0.0
C916 C 0.35664 0.05413 0.48732 0.0
C917 C 0.37839 0.08626 0.46933 0.0
C918 C 0.27139 0.0782 0.50972 0.0
C919 C 0.37141 1.02356 0.4918 0.0
C920 C 0.30751 0.99708 0.56626 0.0
C921 C 0.27582 0.95688 0.56048 0.0
C922 C 0.32031 1.02892 0.54782 0.0
C923 C 0.30219 1.01997 0.52257 0.0
C924 C 0.2687 0.9797 0.5171 0.0
C925 C 0.25573 0.94862 0.53623 0.0
C926 C 0.35463 0.07178 0.55496 0.0
C927 C 0.24786 0.96906 0.4907 0.0
H928 H 0.32197 0.13516 0.47448 0.0
H929 H 0.4053 0.08858 0.45906 0.0
H930 H 0.24247 0.05461 0.49989 0.0
H931 H 0.26957 0.06896 0.53042 0.0
H932 H 0.27188 0.10811 0.50888 0.0
H933 H 0.39685 1.02814 0.47809 0.0
H934 H 0.38317 1.02669 0.51206 0.0
H935 H 0.34489 0.99158 0.48949 0.0
H936 H 0.32303 1.00336 0.58504 0.0
H937 H 0.23138 0.91738 0.53175 0.0
H938 H 0.34519 0.09477 0.5498 0.0
H939 H 0.38342 0.07948 0.54367 0.0
H940 H 0.3622 0.07472 0.57611 0.0
H941 H 0.23411 0.98892 0.48677 0.0
H942 H 0.22263 0.93626 0.48936 0.0
H943 H 0.27141 0.97525 0.47516 0.0
C944 C 0.85894 0.73501 0.05812 0.0
C945 C 0.82922 0.71184 0.07726 0.0
C946 C 0.84957 0.75543 0.03852 0.0
C947 C 0.80976 0.7527 0.03837 0.0
C948 C 0.78101 0.73179 0.0589 0.0
C949 C 0.79088 0.71112 0.07788 0.0
C950 C 0.88106 0.7773 0.01699 0.0
C951 C 0.7387 0.72898 0.0599 0.0
C952 C 0.78571 0.81765 0.99194 0.0
C953 C 0.76355 0.78896 0.97212 0.0
C954 C 0.80141 0.80661 0.01358 0.0
C955 C 0.79561 0.76627 0.01511 0.0
C956 C 0.77405 0.73757 0.99485 0.0
C957 C 0.75804 0.74914 0.97378 0.0
C958 C 0.824 0.838 0.03481 0.0
C959 C 0.76742 0.69432 0.99555 0.0
H960 H 0.88851 0.7353 0.05765 0.0
H961 H 0.76802 0.69327 0.09282 0.0
H962 H 0.86981 0.75899 0.99871 0.0
H963 H 0.88445 0.80796 0.01313 0.0
H964 H 0.91233 0.78147 0.02175 0.0
H965 H 0.72239 0.71644 0.07881 0.0
H966 H 0.74203 0.75983 0.05684 0.0
H967 H 0.71869 0.70851 0.04398 0.0
H968 H 0.79025 0.84854 0.99074 0.0
H969 H 0.74139 0.72689 0.95844 0.0
H970 H 0.85726 0.84587 0.03522 0.0
H971 H 0.8102 0.82498 0.05419 0.0
H972 H 0.8229 0.86684 0.03185 0.0
H973 H 0.7979 0.69543 0.99784 0.0
H974 H 0.75199 0.67648 0.9776 0.0
H975 H 0.74764 0.67749 0.01263 0.0
C976 C 0.08267 0.3414 0.57483 0.0
C977 C 0.1222 0.34496 0.57262 0.0
C978 C 1.05115 0.31836 0.55656 0.0
C979 C 0.06043 0.30104 0.53461 0.0
C980 C 0.10012 0.30371 0.53275 0.0
C981 C 0.13027 0.32491 0.55219 0.0
C982 C 1.00843 0.31392 0.56028 0.0
C983 C 0.11152 0.28609 0.50962 0.0
C984 C 0.97337 0.2296 0.48783 0.0
C985 C 0.97256 0.25817 0.47055 0.0
C986 C 1.00202 0.2427 0.50867 0.0
C987 C 1.03076 0.2854 0.51216 0.0
C988 C 1.03075 0.31416 0.49429 0.0
C989 C 1.00139 0.3003 0.47404 0.0
C990 C 1.00178 0.21033 0.52619 0.0
C991 C 0.06242 0.3597 0.49618 0.0
H992 H 0.07643 0.3566 0.59088 0.0
H993 H 0.161 0.32782 0.55062 0.0
H994 H 1.00551 0.33629 0.54759 0.0
H995 H 0.9834 0.28247 0.5547 0.0
H996 H 1.00321 0.31996 0.58083 0.0
H997 H 0.14472 0.29356 0.51014 0.0
H998 H 0.09122 0.25207 0.50931 0.0
H999 H 0.10614 0.29818 0.49115 0.0
H1000 H 0.95185 0.19691 0.48502 0.0
H1001 H 1.00163 0.32275 0.46063 0.0
H1002 H 1.01501 0.22257 0.54573 0.0
H1003 H 1.02066 0.19809 0.51694 0.0
H1004 H 0.96947 0.18397 0.52844 0.0
H1005 H 0.05651 0.37287 0.51406 0.0
H1006 H 0.06123 0.37726 0.47908 0.0
H1007 H 0.09457 0.3644 0.49764 0.0
C1008 C 0.75023 0.18452 0.10365 0.0
C1009 C 0.77266 0.2091 0.12503 0.0
C1010 C 0.70724 0.171 0.10062 0.0
C1011 C 0.68659 0.18312 0.11909 0.0
C1012 C 0.70889 0.20694 0.14104 0.0
C1013 C 0.75134 0.21916 0.14387 0.0
C1014 C 0.68424 0.14478 0.0773 0.0
C1015 C 0.68846 0.22121 0.16102 0.0
C1016 C 0.59406 0.19574 0.10019 0.0
C1017 C 0.561 0.16288 0.11352 0.0
C1018 C 0.63482 0.2017 0.10095 0.0
C1019 C 0.64255 0.17358 0.11492 0.0
C1020 C 0.60874 0.13905 0.12726 0.0
C1021 C 0.56841 0.1344 0.12669 0.0
C1022 C 0.67 0.23942 0.08801 0.0
C1023 C 0.61545 0.10791 0.14188 0.0
H1024 H 0.76638 0.17648 0.08906 0.0
H1025 H 0.76824 0.23814 0.16049 0.0
H1026 H 0.65447 0.11741 0.08358 0.0
H1027 H 0.67605 0.16278 0.06382 0.0
H1028 H 0.70328 0.13415 0.0664 0.0
H1029 H 0.70987 0.23869 0.17733 0.0
H1030 H 0.67829 0.24132 0.15149 0.0
H1031 H 0.66009 0.19438 0.16928 0.0
H1032 H 0.58845 0.21789 0.09004 0.0
H1033 H 0.5428 0.10881 0.13688 0.0
H1034 H 0.68817 0.2305 0.07484 0.0
H1035 H 0.69189 0.26032 0.10313 0.0
H1036 H 0.65842 0.2568 0.07652 0.0
H1037 H 0.63424 0.09819 0.12991 0.0
H1038 H 0.58538 0.0801 0.14731 0.0
H1039 H 0.63331 0.12214 0.16002 0.0
C1040 C 0.65108 0.53174 0.3999 0.0
C1041 C 0.68395 0.54092 0.38239 0.0
C1042 C 0.61488 0.49259 0.40018 0.0
C1043 C 0.61206 0.46152 0.38302 0.0
C1044 C 0.64409 0.47149 0.36418 0.0
C1045 C 0.67953 0.51133 0.36389 0.0
C1046 C 0.58102 0.48374 0.42007 0.0
C1047 C 0.64264 0.4392 0.34574 0.0
C1048 C 0.55266 0.35078 0.40757 0.0
C1049 C 0.51604 0.33377 0.39256 0.0
C1050 C 0.58397 0.3923 0.40468 0.0
C1051 C 0.57818 0.41778 0.38674 0.0
C1052 C 0.54051 0.40122 0.3723 0.0
C1053 C 0.51011 0.3593 0.37516 0.0
C1054 C 0.62387 0.40853 0.42025 0.0
C1055 C 0.53267 0.42756 0.35349 0.0
H1056 H 0.65457 0.55463 0.41427 0.0
H1057 H 0.7052 0.51819 0.3506 0.0
H1058 H 0.5496 0.46669 0.41094 0.0
H1059 H 0.5821 0.46394 0.43577 0.0
H1060 H 0.58481 0.51245 0.42912 0.0
H1061 H 0.66758 0.45277 0.33058 0.0
H1062 H 0.64673 0.41617 0.357 0.0
H1063 H 0.61176 0.42245 0.33594 0.0
H1064 H 0.55773 0.33119 0.42083 0.0
H1065 H 0.48185 0.34637 0.3635 0.0
H1066 H 0.62864 0.43515 0.4324 0.0
H1067 H 0.65111 0.41972 0.40679 0.0
H1068 H 0.62361 0.3847 0.43325 0.0
H1069 H 0.53701 0.45581 0.36349 0.0
H1070 H 0.50063 0.41084 0.34511 0.0
H1071 H 0.55572 0.43766 0.33725 0.0
C1072 C 0.93364 0.41192 0.14077 0.0
C1073 C 0.90542 0.38094 0.12392 0.0
C1074 C 0.92923 0.44633 0.14685 0.0
C1075 C 0.89549 0.44935 0.13611 0.0
C1076 C 0.86733 0.41831 0.1188 0.0
C1077 C 0.87282 0.38468 0.11281 0.0
C1078 C 0.96017 0.47903 0.16511 0.0
C1079 C 0.83065 0.42 0.1071 0.0
C1080 C 0.84833 0.50741 0.16963 0.0
C1081 C 0.86101 0.54141 0.15302 0.0
C1082 C 0.86121 0.47836 0.16518 0.0
C1083 C 0.88789 0.4836 0.14376 0.0
C1084 C 0.90324 0.51938 0.12805 0.0
C1085 C 0.88945 0.54778 0.13277 0.0
C1086 C 0.84391 0.4406 0.18237 0.0
C1087 C 0.93229 0.52649 0.1053 0.0
H1088 H 0.95894 0.40911 0.14934 0.0
H1089 H 0.85087 0.36073 0.09982 0.0
H1090 H 0.97336 0.50996 0.15604 0.0
H1091 H 0.94399 0.47946 0.18334 0.0
H1092 H 0.98634 0.47371 0.17029 0.0
H1093 H 0.81215 0.39383 0.09358 0.0
H1094 H 0.80958 0.41934 0.1229 0.0
H1095 H 0.84187 0.44928 0.09625 0.0
H1096 H 0.82654 0.50225 0.18542 0.0
H1097 H 0.89969 0.57409 0.11994 0.0
H1098 H 0.86947 0.43549 0.1892 0.0
H1099 H 0.82186 0.41297 0.17093 0.0
H1100 H 0.82698 0.44308 0.19968 0.0
H1101 H 0.95808 0.52108 0.1112 0.0
H1102 H 0.94604 0.55826 0.09736 0.0
H1103 H 0.9147 0.50426 0.08944 0.0
C1104 C 0.56839 0.15778 0.38096 0.0
C1105 C 0.5687 0.19242 0.39184 0.0
C1106 C 0.60586 0.15625 0.37843 0.0
C1107 C 0.64458 0.19044 0.3865 0.0
C1108 C 0.64484 0.22562 0.39712 0.0
C1109 C 0.60706 0.22597 0.39985 0.0
C1110 C 0.60404 0.11795 0.36736 0.0
C1111 C 0.68521 0.26322 0.40548 0.0
C1112 C 0.74496 0.18831 0.40211 0.0
C1113 C 0.76921 0.20658 0.37968 0.0
C1114 C 0.70318 0.1801 0.40396 0.0
C1115 C 0.68532 0.19084 0.38303 0.0
C1116 C 0.70891 0.20699 0.35981 0.0
C1117 C 0.75021 0.21433 0.35837 0.0
C1118 C 0.67898 0.1621 0.42891 0.0
C1119 C 0.69168 0.21941 0.33707 0.0
H1120 H 0.53882 0.13161 0.37496 0.0
H1121 H 0.60763 0.25292 0.40823 0.0
H1122 H 0.62346 0.12572 0.34939 0.0
H1123 H 0.61729 0.1053 0.3816 0.0
H1124 H 0.57154 0.09364 0.36257 0.0
H1125 H 0.68013 0.28818 0.4132 0.0
H1126 H 0.70064 0.25469 0.42082 0.0
H1127 H 0.70717 0.27552 0.38866 0.0
H1128 H 0.75911 0.18206 0.41868 0.0
H1129 H 0.76835 0.22816 0.34081 0.0
H1130 H 0.6467 0.137 0.42454 0.0
H1131 H 0.67637 0.18636 0.43988 0.0
H1132 H 0.69444 0.14971 0.44163 0.0
H1133 H 0.65984 0.19423 0.33194 0.0
H1134 H 0.71201 0.22736 0.31946 0.0
H1135 H 0.68898 0.2467 0.34264 0.0
C1136 C 0.51494 0.31931 0.13018 0.0
C1137 C 0.52713 0.29275 0.14133 0.0
C1138 C 0.5425 0.3625 0.12984 0.0
C1139 C 0.58356 0.37934 0.14017 0.0
C1140 C 0.59568 0.35253 0.15161 0.0
C1141 C 0.5673 0.30993 0.15234 0.0
C1142 C 0.52793 0.39005 0.11807 0.0
C1143 C 0.63934 0.36861 0.16223 0.0
C1144 C 0.67509 0.47897 0.11406 0.0
C1145 C 0.68454 0.50603 0.13529 0.0
C1146 C 0.64124 0.4383 0.11497 0.0
C1147 C 0.61532 0.42433 0.13746 0.0
C1148 C 0.62328 0.45229 0.15842 0.0
C1149 C 0.65815 0.49266 0.15724 0.0
C1150 C 0.63487 0.40958 0.09242 0.0
C1151 C 0.5959 0.43908 0.1825 0.0
H1152 H 0.48397 0.30639 0.12175 0.0
H1153 H 0.57734 0.28983 0.16085 0.0
H1154 H 0.5343 0.4157 0.13168 0.0
H1155 H 0.54562 0.40406 0.09981 0.0
H1156 H 0.49394 0.37293 0.11348 0.0
H1157 H 0.64368 0.34378 0.17082 0.0
H1158 H 0.66272 0.38365 0.14635 0.0
H1159 H 0.6462 0.3923 0.17747 0.0
H1160 H 0.69536 0.489 0.09702 0.0
H1161 H 0.66515 0.51346 0.17366 0.0
H1162 H 0.60199 0.39443 0.08556 0.0
H1163 H 0.641 0.38485 0.09899 0.0
H1164 H 0.65594 0.42585 0.07566 0.0
H1165 H 0.56231 0.42263 0.17696 0.0
H1166 H 0.60222 0.46572 0.1952 0.0
H1167 H 0.60161 0.4173 0.19399 0.0
C1168 C 0.87174 0.53624 0.4111 0.0
C1169 C 0.84123 0.52998 0.39256 0.0
C1170 C 0.88532 0.50737 0.41408 0.0
C1171 C 0.86738 0.47119 0.39846 0.0
C1172 C 0.83651 0.46479 0.3798 0.0
C1173 C 0.82411 0.49436 0.37694 0.0
C1174 C 0.91871 0.51545 0.43393 0.0
C1175 C 0.81602 0.42632 0.36307 0.0
C1176 C 0.91777 0.40524 0.38675 0.0
C1177 C 0.89479 0.37236 0.40389 0.0
C1178 C 0.91083 0.43891 0.3858 0.0
C1179 C 0.87958 0.4391 0.40197 0.0
C1180 C 0.8571 0.40638 0.41978 0.0
C1181 C 0.86528 0.37358 0.42068 0.0
C1182 C 0.93589 0.47354 0.36685 0.0
C1183 C 0.82295 0.40493 0.43697 0.0
H1184 H 0.88521 0.56381 0.42312 0.0
H1185 H 0.80031 0.48912 0.36267 0.0
H1186 H 0.90594 0.49091 0.449 0.0
H1187 H 0.94531 0.51453 0.42432 0.0
H1188 H 0.93074 0.54581 0.44376 0.0
H1189 H 0.79249 0.42605 0.34947 0.0
H1190 H 0.84009 0.42375 0.35142 0.0
H1191 H 0.80024 0.39857 0.37568 0.0
H1192 H 0.94077 0.4044 0.37386 0.0
H1193 H 0.84739 0.34809 0.43391 0.0
H1194 H 0.94895 0.50383 0.37688 0.0
H1195 H 0.91513 0.47304 0.35106 0.0
H1196 H 0.96204 0.47108 0.35782 0.0
H1197 H 0.83483 0.43416 0.44809 0.0
H1198 H 0.81045 0.37885 0.45102 0.0
H1199 H 0.79673 0.40155 0.42463 0.0
C1200 C 0.25299 0.74104 0.66937 0.0
C1201 C 0.24137 0.75755 0.64856 0.0
C1202 C 0.24134 0.69909 0.66998 0.0
C1203 C 0.21693 0.67261 0.64945 0.0
C1204 C 0.20225 0.68836 0.6295 0.0
C1205 C 0.21485 0.73067 0.62919 0.0
C1206 C 0.25811 0.68396 0.69151 0.0
C1207 C 0.17555 0.66113 0.60749 0.0
C1208 C 0.24005 0.58826 0.62911 0.0
C1209 C 0.20699 0.55285 0.64052 0.0
C1210 C 0.24357 0.62711 0.63211 0.0
C1211 C 0.21281 0.6309 0.64658 0.0
C1212 C 0.17924 0.59525 0.65829 0.0
C1213 C 0.17692 0.55656 0.65532 0.0
C1214 C 0.28041 0.66418 0.61971 0.0
C1215 C 0.14558 0.59794 0.67358 0.0
H1216 H 0.2732 0.76135 0.6846 0.0
H1217 H 0.20534 0.74294 0.61315 0.0
H1218 H 0.23313 0.65411 0.69938 0.0
H1219 H 0.28314 0.67872 0.68351 0.0
H1220 H 0.27147 0.70649 0.70783 0.0
H1221 H 0.16107 0.67593 0.59606 0.0
H1222 H 0.1952 0.65446 0.59407 0.0
H1223 H 0.15036 0.63118 0.61515 0.0
H1224 H 0.26361 0.58568 0.61779 0.0
H1225 H 0.15122 0.52921 0.66407 0.0
H1226 H 0.29828 0.68782 0.63483 0.0
H1227 H 0.26912 0.67844 0.6053 0.0
H1228 H 0.30212 0.6561 0.60961 0.0
H1229 H 0.15974 0.62009 0.68998 0.0
H1230 H 0.12171 0.56756 0.68158 0.0
H1231 H 0.1297 0.60981 0.66083 0.0
C1232 C 0.46785 0.89636 0.91695 0.0
C1233 C 0.4407 0.88082 0.89553 0.0
C1234 C 0.505 0.89438 0.91776 0.0
C1235 C 0.51435 0.87478 0.89717 0.0
C1236 C 0.48693 0.85911 0.87545 0.0
C1237 C 0.45089 0.86307 0.87467 0.0
C1238 C 0.53403 0.91291 0.94077 0.0
C1239 C 0.49481 0.83676 0.85347 0.0
C1240 C 0.62316 0.88883 0.8853 0.0
C1241 C 0.61998 0.85418 0.89785 0.0
C1242 C 0.58991 0.89724 0.88617 0.0
C1243 C 0.55178 0.86912 0.89873 0.0
C1244 C 0.54875 0.83429 0.9117 0.0
C1245 C 0.58316 0.82771 0.91151 0.0
C1246 C 0.59517 0.93555 0.87298 0.0
C1247 C 0.50837 0.80264 0.9245 0.0
H1248 H 0.46006 0.91024 0.93307 0.0
H1249 H 0.42969 0.85063 0.85823 0.0
H1250 H 0.53464 0.88815 0.95225 0.0
H1251 H 0.56648 0.93397 0.93386 0.0
H1252 H 0.52432 0.93038 0.95391 0.0
H1253 H 0.47027 0.82594 0.83818 0.0
H1254 H 0.52565 0.85728 0.84425 0.0
H1255 H 0.49584 0.80967 0.86133 0.0
H1256 H 0.65143 0.90898 0.87443 0.0
H1257 H 0.58028 0.80027 0.92061 0.0
H1258 H 0.58481 0.95234 0.88621 0.0
H1259 H 0.57526 0.92682 0.8553 0.0
H1260 H 0.62817 0.95677 0.86706 0.0
H1261 H 0.49848 0.8175 0.93952 0.0
H1262 H 0.5112 0.77741 0.93386 0.0
H1263 H 0.48313 0.78889 0.90967 0.0
C1264 C 0.5459 0.65019 0.63009 0.0
C1265 C 0.55124 0.68376 0.61514 0.0
C1266 C 0.50629 0.6146 0.6325 0.0
C1267 C 0.47124 0.61321 0.62022 0.0
C1268 C 0.47691 0.64658 0.60438 0.0
C1269 C 0.51696 0.68128 0.60182 0.0
C1270 C 0.50166 0.57925 0.64904 0.0
C1271 C 0.44028 0.64675 0.59138 0.0
C1272 C 0.36454 0.51597 0.61415 0.0
C1273 C 0.34303 0.52077 0.63533 0.0
C1274 C 0.40708 0.54476 0.60962 0.0
C1275 C 0.42808 0.57946 0.62632 0.0
C1276 C 0.40675 0.58369 0.64812 0.0
C1277 C 0.36473 0.5541 0.6525 0.0
C1278 C 0.42916 0.53874 0.58656 0.0
C1279 C 0.42769 0.62055 0.66619 0.0
H1280 H 0.57254 0.65201 0.64022 0.0
H1281 H 0.52109 0.70728 0.59026 0.0
H1282 H 0.48491 0.57785 0.66742 0.0
H1283 H 0.48268 0.54947 0.63868 0.0
H1284 H 0.53248 0.58258 0.65414 0.0
H1285 H 0.45036 0.6738 0.57836 0.0
H1286 H 0.42202 0.6182 0.57973 0.0
H1287 H 0.41894 0.64739 0.60653 0.0
H1288 H 0.34801 0.49014 0.60091 0.0
H1289 H 0.3484 0.55814 0.66891 0.0
H1290 H 0.45969 0.54239 0.59266 0.0
H1291 H 0.4358 0.56268 0.57164 0.0
H1292 H 0.41015 0.5079 0.57738 0.0
H1293 H 0.4569 0.62341 0.67426 0.0
H1294 H 0.4071 0.61855 0.68272 0.0
H1295 H 0.43655 0.64921 0.6551 0.0
C1296 C 0.19351 0.71098 0.88861 0.0
C1297 C 0.23136 0.73932 0.90058 0.0
C1298 C 0.18073 0.66873 0.8874 0.0
C1299 C 0.20686 0.65472 0.89795 0.0
C1300 C 0.24432 0.68298 0.91087 0.0
C1301 C 0.25585 0.72478 0.91227 0.0
C1302 C 0.14003 0.63936 0.8741 0.0
C1303 C 0.27331 0.66944 0.92221 0.0
C1304 C 0.17342 0.54355 0.91378 0.0
C1305 C 0.19052 0.53291 0.89266 0.0
C1306 C 0.17567 0.58211 0.91484 0.0
C1307 C 0.19651 0.61104 0.89462 0.0
C1308 C 0.21182 0.5995 0.87256 0.0
C1309 C 0.2082 0.56029 0.87172 0.0
C1310 C 0.1579 0.59272 0.93832 0.0
C1311 C 0.23471 0.62958 0.85073 0.0
H1312 H 0.17432 0.72194 0.87961 0.0
H1313 H 0.28521 0.74637 0.92149 0.0
H1314 H 0.14663 0.62815 0.85558 0.0
H1315 H 0.12112 0.61196 0.88659 0.0
H1316 H 0.12111 0.65416 0.86959 0.0
H1317 H 0.30088 0.69512 0.93204 0.0
H1318 H 0.25622 0.64433 0.93658 0.0
H1319 H 0.28468 0.65698 0.90645 0.0
H1320 H 0.15947 0.52221 0.92992 0.0
H1321 H 0.22158 0.55212 0.85543 0.0
H1322 H 0.13985 0.6077 0.93218 0.0
H1323 H 0.18388 0.61498 0.95092 0.0
H1324 H 0.13716 0.56503 0.95017 0.0
H1325 H 0.21614 0.64346 0.84363 0.0
H1326 H 0.24142 0.61475 0.83398 0.0
H1327 H 0.26486 0.6551 0.85816 0.0
C1328 C 0.42452 0.868 0.60493 0.0
C1329 C 0.41705 0.89283 0.62223 0.0
C1330 C 0.45977 0.8632 0.60755 0.0
C1331 C 0.48918 0.88462 0.6276 0.0
C1332 C 0.48284 0.91132 0.64442 0.0
C1333 C 0.4465 0.91464 0.64179 0.0
C1334 C 0.46441 0.83355 0.5896 0.0
C1335 C 0.5139 0.93553 0.66561 0.0
C1336 C 0.54739 0.83114 0.65161 0.0
C1337 C 0.58432 0.84984 0.63656 0.0
C1338 C 0.51702 0.84316 0.64949 0.0
C1339 C 0.5239 0.87556 0.63235 0.0
C1340 C 0.56214 0.89621 0.61815 0.0
C1341 C 0.59167 0.88276 0.62015 0.0
C1342 C 0.47647 0.81949 0.66458 0.0
C1343 C 0.57124 0.93162 0.6002 0.0
H1344 H 0.40182 0.85091 0.58981 0.0
H1345 H 0.44099 0.93404 0.65513 0.0
H1346 H 0.49542 0.84928 0.57977 0.0
H1347 H 0.46276 0.80775 0.60117 0.0
H1348 H 0.43967 0.82042 0.5744 0.0
H1349 H 0.50742 0.95876 0.67477 0.0
H1350 H 0.51266 0.91421 0.68102 0.0
H1351 H 0.54623 0.95154 0.65756 0.0
H1352 H 0.54115 0.80561 0.66434 0.0
H1353 H 0.62013 0.89756 0.60855 0.0
H1354 H 0.45003 0.80326 0.65074 0.0
H1355 H 0.47032 0.84093 0.67627 0.0
H1356 H 0.47671 0.79629 0.67794 0.0
H1357 H 0.55063 0.91986 0.58284 0.0
H1358 H 0.60435 0.94804 0.59343 0.0
H1359 H 0.56442 0.954 0.61022 0.0
C1360 C 0.55654 0.64141 0.88487 0.0
C1361 C 0.564 0.6759 0.89981 0.0
C1362 C 0.51558 0.6079 0.88165 0.0
C1363 C 0.48127 0.60937 0.8932 0.0
C1364 C 0.48885 0.64414 0.90845 0.0
C1365 C 0.5301 0.67674 0.91174 0.0
C1366 C 0.50894 0.57121 0.86557 0.0
C1367 C 0.45328 0.64745 0.92073 0.0
C1368 C 0.37242 0.54883 0.86355 0.0
C1369 C 0.35116 0.51694 0.88174 0.0
C1370 C 0.41497 0.57834 0.86667 0.0
C1371 C 0.43724 0.57577 0.88836 0.0
C1372 C 0.4165 0.54261 0.90618 0.0
C1373 C 0.37366 0.51375 0.90277 0.0
C1374 C 0.4356 0.61333 0.84732 0.0
C1375 C 0.43925 0.53837 0.92933 0.0
H1376 H 0.58271 0.64064 0.87567 0.0
H1377 H 0.53569 0.70347 0.92319 0.0
H1378 H 0.49059 0.54235 0.87691 0.0
H1379 H 0.49056 0.56862 0.84787 0.0
H1380 H 0.539 0.57352 0.85939 0.0
H1381 H 0.46448 0.67627 0.93228 0.0
H1382 H 0.4319 0.64674 0.90529 0.0
H1383 H 0.43467 0.62069 0.93373 0.0
H1384 H 0.35545 0.5517 0.84722 0.0
H1385 H 0.35761 0.48918 0.91688 0.0
H1386 H 0.46455 0.61525 0.83931 0.0
H1387 H 0.44488 0.64304 0.85733 0.0
H1388 H 0.41461 0.60981 0.83081 0.0
H1389 H 0.46884 0.54 0.92289 0.0
H1390 H 0.41995 0.50891 0.93996 0.0
H1391 H 0.44772 0.56432 0.94311 0.0
loop_
_geom_bond_atom_site_label_1
_geom_bond_atom_site_label_2
_geom_bond_distance
_geom_bond_site_symmetry_2
_ccdc_geom_bond_type
O0 Tb1 2.506 . S
O0 C14 1.265 . S
Tb1 O0 2.506 . S
Tb1 O6 2.312 . S
Tb1 O10 2.271 . S
Tb1 O12 2.338 . S
Tb1 O19 2.441 . S
C2 O10 1.252 . S
C2 O11 1.253 . S
O3 Tb4 2.271 . S
O3 C13 1.252 . S
Tb4 O3 2.271 . S
Tb4 O7 2.338 . S
Tb4 O11 2.312 . S
Tb4 O15 2.441 . S
Tb4 O16 2.506 . S
C5 O15 1.244 . S
C5 O16 1.265 . S
O6 Tb1 2.312 . S
O6 C13 1.253 . S
O7 Tb4 2.338 . S
O7 C8 1.258 . S
C8 O7 1.258 . S
C8 O9 1.251 . S
O9 C8 1.251 . S
O10 Tb1 2.271 . S
O10 C2 1.252 . S
O11 C2 1.253 . S
O11 Tb4 2.312 . S
O12 Tb1 2.338 . S
O12 C17 1.258 . S
C13 O3 1.252 . S
C13 O6 1.253 . S
C14 O0 1.265 . S
C14 O19 1.244 . S
O15 Tb4 2.441 . S
O15 C5 1.244 . S
O16 Tb4 2.506 . S
O16 C5 1.265 . S
C17 O12 1.258 . S
C17 O18 1.251 . S
O18 C17 1.251 . S
O19 Tb1 2.441 . S
O19 C14 1.244 . S
O20 Tb21 2.506 . S
O20 C34 1.265 . S
Tb21 O20 2.506 . S
Tb21 O26 2.312 . S
Tb21 O30 2.271 . S
Tb21 O32 2.338 . S
Tb21 O39 2.441 . S
C22 O30 1.252 . S
C22 O31 1.253 . S
O23 Tb24 2.271 . S
O23 C33 1.252 . S
Tb24 O23 2.271 . S
Tb24 O27 2.338 . S
Tb24 O31 2.312 . S
Tb24 O35 2.441 . S
Tb24 O36 2.506 . S
C25 O35 1.244 . S
C25 O36 1.265 . S
O26 Tb21 2.312 . S
O26 C33 1.253 . S
O27 Tb24 2.338 . S
O27 C28 1.258 . S
C28 O27 1.258 . S
C28 O29 1.251 . S
O29 C28 1.251 . S
O30 Tb21 2.271 . S
O30 C22 1.252 . S
O31 C22 1.253 . S
O31 Tb24 2.312 . S
O32 Tb21 2.338 . S
O32 C37 1.258 . S
C33 O23 1.252 . S
C33 O26 1.253 . S
C34 O20 1.265 . S
C34 O39 1.244 . S
O35 Tb24 2.441 . S
O35 C25 1.244 . S
O36 Tb24 2.506 . S
O36 C25 1.265 . S
C37 O32 1.258 . S
C37 O38 1.251 . S
O38 C37 1.251 . S
O39 Tb21 2.441 . S
O39 C34 1.244 . S
O40 Tb41 2.506 . S
O40 C54 1.265 . S
Tb41 O40 2.506 . S
Tb41 O46 2.312 . S
Tb41 O50 2.271 . S
Tb41 O52 2.338 . S
Tb41 O59 2.441 . S
C42 O50 1.252 . S
C42 O51 1.253 . S
O43 Tb44 2.271 . S
O43 C53 1.252 . S
Tb44 O43 2.271 . S
Tb44 O47 2.338 . S
Tb44 O51 2.312 . S
Tb44 O55 2.441 . S
Tb44 O56 2.506 . S
C45 O55 1.244 . S
C45 O56 1.265 . S
O46 Tb41 2.312 . S
O46 C53 1.253 . S
O47 Tb44 2.338 . S
O47 C48 1.258 . S
C48 O47 1.258 . S
C48 O49 1.251 . S
O49 C48 1.251 . S
O50 Tb41 2.271 . S
O50 C42 1.252 . S
O51 C42 1.253 . S
O51 Tb44 2.312 . S
O52 Tb41 2.338 . S
O52 C57 1.258 . S
C53 O43 1.252 . S
C53 O46 1.253 . S
C54 O40 1.265 . S
C54 O59 1.244 . S
O55 Tb44 2.441 . S
O55 C45 1.244 . S
O56 Tb44 2.506 . S
O56 C45 1.265 . S
C57 O52 1.258 . S
C57 O58 1.251 . S
O58 C57 1.251 . S
O59 Tb41 2.441 . S
O59 C54 1.244 . S
O60 Tb61 2.506 . S
O60 C74 1.265 . S
Tb61 O60 2.506 . S
Tb61 O66 2.312 . S
Tb61 O70 2.271 . S
Tb61 O72 2.338 . S
Tb61 O79 2.441 . S
C62 O70 1.252 . S
C62 O71 1.253 . S
O63 Tb64 2.271 . S
O63 C73 1.252 . S
Tb64 O63 2.271 . S
Tb64 O67 2.338 . S
Tb64 O71 2.312 . S
Tb64 O75 2.441 . S
Tb64 O76 2.506 . S
C65 O75 1.244 . S
C65 O76 1.265 . S
O66 Tb61 2.312 . S
O66 C73 1.253 . S
O67 Tb64 2.338 . S
O67 C68 1.258 . S
C68 O67 1.258 . S
C68 O69 1.251 . S
O69 C68 1.251 . S
O70 Tb61 2.271 . S
O70 C62 1.252 . S
O71 C62 1.253 . S
O71 Tb64 2.312 . S
O72 Tb61 2.338 . S
O72 C77 1.258 . S
C73 O63 1.252 . S
C73 O66 1.253 . S
C74 O60 1.265 . S
C74 O79 1.244 . S
O75 Tb64 2.441 . S
O75 C65 1.244 . S
O76 Tb64 2.506 . S
O76 C65 1.265 . S
C77 O72 1.258 . S
C77 O78 1.251 . S
O78 C77 1.251 . S
O79 Tb61 2.441 . S
O79 C74 1.244 . S
O80 Tb81 2.506 . S
O80 C94 1.265 . S
Tb81 O80 2.506 . S
Tb81 O86 2.312 . S
Tb81 O90 2.271 . S
Tb81 O92 2.338 . S
Tb81 O99 2.441 . S
C82 O90 1.252 . S
C82 O91 1.253 . S
O83 Tb84 2.271 . S
O83 C93 1.252 . S
Tb84 O83 2.271 . S
Tb84 O87 2.338 . S
Tb84 O91 2.312 . S
Tb84 O95 2.441 . S
Tb84 O96 2.506 . S
C85 O95 1.244 . S
C85 O96 1.265 . S
O86 Tb81 2.312 . S
O86 C93 1.253 . S
O87 Tb84 2.338 . S
O87 C88 1.258 . S
C88 O87 1.258 . S
C88 O89 1.251 . S
O89 C88 1.251 . S
O90 Tb81 2.271 . S
O90 C82 1.252 . S
O91 C82 1.253 . S
O91 Tb84 2.312 . S
O92 Tb81 2.338 . S
O92 C97 1.258 . S
C93 O83 1.252 . S
C93 O86 1.253 . S
C94 O80 1.265 . S
C94 O99 1.244 . S
O95 Tb84 2.441 . S
O95 C85 1.244 . S
O96 Tb84 2.506 . S
O96 C85 1.265 . S
C97 O92 1.258 . S
C97 O98 1.251 . S
O98 C97 1.251 . S
O99 Tb81 2.441 . S
O99 C94 1.244 . S
O100 Tb101 2.506 . S
O100 C114 1.265 . S
Tb101 O100 2.506 . S
Tb101 O106 2.312 . S
Tb101 O110 2.271 . S
Tb101 O112 2.338 . S
Tb101 O119 2.441 . S
C102 O110 1.252 . S
C102 O111 1.253 . S
O103 Tb104 2.271 . S
O103 C113 1.252 . S
Tb104 O103 2.271 . S
Tb104 O107 2.338 . S
Tb104 O111 2.312 . S
Tb104 O115 2.441 . S
Tb104 O116 2.506 . S
C105 O115 1.244 . S
C105 O116 1.265 . S
O106 Tb101 2.312 . S
O106 C113 1.253 . S
O107 Tb104 2.338 . S
O107 C108 1.258 . S
C108 O107 1.258 . S
C108 O109 1.251 . S
O109 C108 1.251 . S
O110 Tb101 2.271 . S
O110 C102 1.252 . S
O111 C102 1.253 . S
O111 Tb104 2.312 . S
O112 Tb101 2.338 . S
O112 C117 1.258 . S
C113 O103 1.252 . S
C113 O106 1.253 . S
C114 O100 1.265 . S
C114 O119 1.244 . S
O115 Tb104 2.441 . S
O115 C105 1.244 . S
O116 Tb104 2.506 . S
O116 C105 1.265 . S
C117 O112 1.258 . S
C117 O118 1.251 . S
O118 C117 1.251 . S
O119 Tb101 2.441 . S
O119 C114 1.244 . S
O120 Tb121 2.506 . S
O120 C134 1.265 . S
Tb121 O120 2.506 . S
Tb121 O126 2.312 . S
Tb121 O130 2.271 . S
Tb121 O132 2.338 . S
Tb121 O139 2.441 . S
C122 O130 1.252 . S
C122 O131 1.253 . S
O123 Tb124 2.271 . S
O123 C133 1.252 . S
Tb124 O123 2.271 . S
Tb124 O127 2.338 . S
Tb124 O131 2.312 . S
Tb124 O135 2.441 . S
Tb124 O136 2.506 . S
C125 O135 1.244 . S
C125 O136 1.265 . S
O126 Tb121 2.312 . S
O126 C133 1.253 . S
O127 Tb124 2.338 . S
O127 C128 1.258 . S
C128 O127 1.258 . S
C128 O129 1.251 . S
O129 C128 1.251 . S
O130 Tb121 2.271 . S
O130 C122 1.252 . S
O131 C122 1.253 . S
O131 Tb124 2.312 . S
O132 Tb121 2.338 . S
O132 C137 1.258 . S
C133 O123 1.252 . S
C133 O126 1.253 . S
C134 O120 1.265 . S
C134 O139 1.244 . S
O135 Tb124 2.441 . S
O135 C125 1.244 . S
O136 Tb124 2.506 . S
O136 C125 1.265 . S
C137 O132 1.258 . S
C137 O138 1.251 . S
O138 C137 1.251 . S
O139 Tb121 2.441 . S
O139 C134 1.244 . S
O140 Tb141 2.506 . S
O140 C154 1.265 . S
Tb141 O140 2.506 . S
Tb141 O146 2.312 . S
Tb141 O150 2.271 . S
Tb141 O152 2.338 . S
Tb141 O159 2.441 . S
C142 O150 1.252 . S
C142 O151 1.253 . S
O143 Tb144 2.271 . S
O143 C153 1.252 . S
Tb144 O143 2.271 . S
Tb144 O147 2.338 . S
Tb144 O151 2.312 . S
Tb144 O155 2.441 . S
Tb144 O156 2.506 . S
C145 O155 1.244 . S
C145 O156 1.265 . S
O146 Tb141 2.312 . S
O146 C153 1.253 . S
O147 Tb144 2.338 . S
O147 C148 1.258 . S
C148 O147 1.258 . S
C148 O149 1.251 . S
O149 C148 1.251 . S
O150 Tb141 2.271 . S
O150 C142 1.252 . S
O151 C142 1.253 . S
O151 Tb144 2.312 . S
O152 Tb141 2.338 . S
O152 C157 1.258 . S
C153 O143 1.252 . S
C153 O146 1.253 . S
C154 O140 1.265 . S
C154 O159 1.244 . S
O155 Tb144 2.441 . S
O155 C145 1.244 . S
O156 Tb144 2.506 . S
O156 C145 1.265 . S
C157 O152 1.258 . S
C157 O158 1.251 . S
O158 C157 1.251 . S
O159 Tb141 2.441 . S
O159 C154 1.244 . S
O160 Tb161 2.506 . S
O160 C174 1.265 . S
Tb161 O160 2.506 . S
Tb161 O166 2.312 . S
Tb161 O170 2.271 . S
Tb161 O172 2.338 . S
Tb161 O179 2.441 . S
C162 O170 1.252 . S
C162 O171 1.253 . S
O163 Tb164 2.271 . S
O163 C173 1.252 . S
Tb164 O163 2.271 . S
Tb164 O167 2.338 . S
Tb164 O171 2.312 . S
Tb164 O175 2.441 . S
Tb164 O176 2.506 . S
C165 O175 1.244 . S
C165 O176 1.265 . S
O166 Tb161 2.312 . S
O166 C173 1.253 . S
O167 Tb164 2.338 . S
O167 C168 1.258 . S
C168 O167 1.258 . S
C168 O169 1.251 . S
O169 C168 1.251 . S
O170 Tb161 2.271 . S
O170 C162 1.252 . S
O171 C162 1.253 . S
O171 Tb164 2.312 . S
O172 Tb161 2.338 . S
O172 C177 1.258 . S
C173 O163 1.252 . S
C173 O166 1.253 . S
C174 O160 1.265 . S
C174 O179 1.244 . S
O175 Tb164 2.441 . S
O175 C165 1.244 . S
O176 Tb164 2.506 . S
O176 C165 1.265 . S
C177 O172 1.258 . S
C177 O178 1.251 . S
O178 C177 1.251 . S
O179 Tb161 2.441 . S
O179 C174 1.244 . S
O180 Tb181 2.506 . S
O180 C194 1.265 . S
Tb181 O180 2.506 . S
Tb181 O186 2.312 . S
Tb181 O190 2.271 . S
Tb181 O192 2.338 . S
Tb181 O199 2.441 . S
C182 O190 1.252 . S
C182 O191 1.253 . S
O183 Tb184 2.271 . S
O183 C193 1.252 . S
Tb184 O183 2.271 . S
Tb184 O187 2.338 . S
Tb184 O191 2.312 . S
Tb184 O195 2.441 . S
Tb184 O196 2.506 . S
C185 O195 1.244 . S
C185 O196 1.265 . S
O186 Tb181 2.312 . S
O186 C193 1.253 . S
O187 Tb184 2.338 . S
O187 C188 1.258 . S
C188 O187 1.258 . S
C188 O189 1.251 . S
O189 C188 1.251 . S
O190 Tb181 2.271 . S
O190 C182 1.252 . S
O191 C182 1.253 . S
O191 Tb184 2.312 . S
O192 Tb181 2.338 . S
O192 C197 1.258 . S
C193 O183 1.252 . S
C193 O186 1.253 . S
C194 O180 1.265 . S
C194 O199 1.244 . S
O195 Tb184 2.441 . S
O195 C185 1.244 . S
O196 Tb184 2.506 . S
O196 C185 1.265 . S
C197 O192 1.258 . S
C197 O198 1.251 . S
O198 C197 1.251 . S
O199 Tb181 2.441 . S
O199 C194 1.244 . S
O200 Tb201 2.506 . S
O200 C214 1.265 . S
Tb201 O200 2.506 . S
Tb201 O206 2.312 . S
Tb201 O210 2.271 . S
Tb201 O212 2.338 . S
Tb201 O219 2.441 . S
C202 O210 1.252 . S
C202 O211 1.253 . S
O203 Tb204 2.271 . S
O203 C213 1.252 . S
Tb204 O203 2.271 . S
Tb204 O207 2.338 . S
Tb204 O211 2.312 . S
Tb204 O215 2.441 . S
Tb204 O216 2.506 . S
C205 O215 1.244 . S
C205 O216 1.265 . S
O206 Tb201 2.312 . S
O206 C213 1.253 . S
O207 Tb204 2.338 . S
O207 C208 1.258 . S
C208 O207 1.258 . S
C208 O209 1.251 . S
O209 C208 1.251 . S
O210 Tb201 2.271 . S
O210 C202 1.252 . S
O211 C202 1.253 . S
O211 Tb204 2.312 . S
O212 Tb201 2.338 . S
O212 C217 1.258 . S
C213 O203 1.252 . S
C213 O206 1.253 . S
C214 O200 1.265 . S
C214 O219 1.244 . S
O215 Tb204 2.441 . S
O215 C205 1.244 . S
O216 Tb204 2.506 . S
O216 C205 1.265 . S
C217 O212 1.258 . S
C217 O218 1.251 . S
O218 C217 1.251 . S
O219 Tb201 2.441 . S
O219 C214 1.244 . S
O220 Tb221 2.506 . S
O220 C234 1.265 . S
Tb221 O220 2.506 . S
Tb221 O226 2.312 . S
Tb221 O230 2.271 . S
Tb221 O232 2.338 . S
Tb221 O239 2.441 . S
C222 O230 1.252 . S
C222 O231 1.253 . S
O223 Tb224 2.271 . S
O223 C233 1.252 . S
Tb224 O223 2.271 . S
Tb224 O227 2.338 . S
Tb224 O231 2.312 . S
Tb224 O235 2.441 . S
Tb224 O236 2.506 . S
C225 O235 1.244 . S
C225 O236 1.265 . S
O226 Tb221 2.312 . S
O226 C233 1.253 . S
O227 Tb224 2.338 . S
O227 C228 1.258 . S
C228 O227 1.258 . S
C228 O229 1.251 . S
O229 C228 1.251 . S
O230 Tb221 2.271 . S
O230 C222 1.252 . S
O231 C222 1.253 . S
O231 Tb224 2.312 . S
O232 Tb221 2.338 . S
O232 C237 1.258 . S
C233 O223 1.252 . S
C233 O226 1.253 . S
C234 O220 1.265 . S
C234 O239 1.244 . S
O235 Tb224 2.441 . S
O235 C225 1.244 . S
O236 Tb224 2.506 . S
O236 C225 1.265 . S
C237 O232 1.258 . S
C237 O238 1.251 . S
O238 C237 1.251 . S
O239 Tb221 2.441 . S
O239 C234 1.244 . S
C240 C241 1.391 . S
C240 C242 1.394 . S
C240 H256 0.931 . S
C241 C240 1.391 . S
C241 C245 1.376 . S
C242 C240 1.394 . S
C242 C243 1.369 . S
C242 C246 1.531 . S
C243 C242 1.369 . S
C243 C244 1.410 . S
C243 C251 1.503 . S
C244 C243 1.410 . S
C244 C245 1.392 . S
C244 C247 1.511 . S
C245 C241 1.376 . S
C245 C244 1.392 . S
C245 H257 0.929 1_455 S
C246 C242 1.531 . S
C246 H258 0.960 . S
C246 H259 0.962 . S
C246 H260 0.960 . S
C247 C244 1.511 . S
C247 H261 0.961 . S
C247 H262 0.961 . S
C247 H263 0.961 . S
C248 C249 1.370 . S
C248 C250 1.363 . S
C248 H264 0.931 . S
C249 C248 1.370 . S
C249 C253 1.408 . S
C250 C248 1.363 . S
C250 C251 1.370 . S
C250 C254 1.524 . S
C251 C243 1.503 . S
C251 C250 1.370 . S
C251 C252 1.403 . S
C252 C251 1.403 . S
C252 C253 1.404 . S
C252 C255 1.539 . S
C253 C249 1.408 . S
C253 C252 1.404 . S
C253 H265 0.930 . S
C254 C250 1.524 . S
C254 H266 0.956 . S
C254 H267 0.961 . S
C254 H268 0.961 . S
C255 C252 1.539 . S
C255 H269 0.958 . S
C255 H270 0.961 . S
C255 H271 0.960 . S
H256 C240 0.931 . S
H257 C245 0.929 1_655 S
H258 C246 0.960 . S
H259 C246 0.962 . S
H260 C246 0.960 . S
H261 C247 0.961 . S
H262 C247 0.961 . S
H263 C247 0.961 . S
H264 C248 0.931 . S
H265 C253 0.930 . S
H266 C254 0.956 . S
H267 C254 0.961 . S
H268 C254 0.961 . S
H269 C255 0.958 . S
H270 C255 0.961 . S
H271 C255 0.960 . S
C272 C273 1.391 . S
C272 C274 1.394 . S
C272 H288 0.931 1_565 S
C273 C272 1.391 . S
C273 C277 1.376 . S
C274 C272 1.394 . S
C274 C275 1.369 . S
C274 C278 1.531 . S
C275 C274 1.369 . S
C275 C276 1.410 . S
C275 C283 1.503 . S
C276 C275 1.410 . S
C276 C277 1.392 . S
C276 C279 1.511 . S
C277 C273 1.376 . S
C277 C276 1.392 . S
C277 H289 0.929 . S
C278 C274 1.531 . S
C278 H290 0.964 . S
C278 H291 0.962 . S
C278 H292 0.960 . S
C279 C276 1.511 . S
C279 H293 0.961 . S
C279 H294 0.961 . S
C279 H295 0.961 . S
C280 C281 1.370 . S
C280 C282 1.363 1_655 S
C280 H296 0.931 . S
C281 C280 1.370 . S
C281 C285 1.408 . S
C282 C280 1.363 1_455 S
C282 C283 1.370 . S
C282 C286 1.524 . S
C283 C275 1.503 . S
C283 C282 1.370 . S
C283 C284 1.403 1_455 S
C284 C283 1.403 1_655 S
C284 C285 1.404 . S
C284 C287 1.539 1_655 S
C285 C281 1.408 . S
C285 C284 1.404 . S
C285 H297 0.930 . S
C286 C282 1.524 . S
C286 H298 0.956 . S
C286 H299 0.961 . S
C286 H300 0.961 . S
C287 C284 1.539 1_455 S
C287 H301 0.958 1_455 S
C287 H302 0.961 1_455 S
C287 H303 0.960 . S
H288 C272 0.931 1_545 S
H289 C277 0.929 . S
H290 C278 0.964 . S
H291 C278 0.962 . S
H292 C278 0.960 . S
H293 C279 0.961 . S
H294 C279 0.961 . S
H295 C279 0.961 . S
H296 C280 0.931 . S
H297 C285 0.930 . S
H298 C286 0.956 . S
H299 C286 0.961 . S
H300 C286 0.961 . S
H301 C287 0.958 1_655 S
H302 C287 0.961 1_655 S
H303 C287 0.960 . S
C304 C305 1.391 . S
C304 C306 1.394 1_545 S
C304 H320 0.931 . S
C305 C304 1.391 . S
C305 C309 1.376 . S
C306 C304 1.394 1_565 S
C306 C307 1.369 . S
C306 C310 1.531 . S
C307 C306 1.369 . S
C307 C308 1.410 1_565 S
C307 C315 1.503 . S
C308 C307 1.410 1_545 S
C308 C309 1.392 . S
C308 C311 1.511 . S
C309 C305 1.376 . S
C309 C308 1.392 . S
C309 H321 0.929 . S
C310 C306 1.531 . S
C310 H322 0.960 . S
C310 H323 0.962 . S
C310 H324 0.960 . S
C311 C308 1.511 . S
C311 H325 0.961 . S
C311 H326 0.961 1_545 S
C311 H327 0.961 . S
C312 C313 1.370 . S
C312 C314 1.363 . S
C312 H328 0.931 . S
C313 C312 1.370 . S
C313 C317 1.408 . S
C314 C312 1.363 . S
C314 C315 1.370 . S
C314 C318 1.524 . S
C315 C307 1.503 . S
C315 C314 1.370 . S
C315 C316 1.403 . S
C316 C315 1.403 . S
C316 C317 1.404 . S
C316 C319 1.539 . S
C317 C313 1.408 . S
C317 C316 1.404 . S
C317 H329 0.930 . S
C318 C314 1.524 . S
C318 H330 0.956 . S
C318 H331 0.961 . S
C318 H332 0.961 . S
C319 C316 1.539 . S
C319 H333 0.958 . S
C319 H334 0.961 . S
C319 H335 0.960 . S
H320 C304 0.931 . S
H321 C309 0.929 . S
H322 C310 0.960 . S
H323 C310 0.962 . S
H324 C310 0.960 . S
H325 C311 0.961 . S
H326 C311 0.961 1_565 S
H327 C311 0.961 . S
H328 C312 0.931 . S
H329 C317 0.930 . S
H330 C318 0.956 . S
H331 C318 0.961 . S
H332 C318 0.961 . S
H333 C319 0.958 . S
H334 C319 0.961 . S
H335 C319 0.960 . S
C336 C337 1.391 . S
C336 C338 1.394 . S
C336 H352 0.931 . S
C337 C336 1.391 . S
C337 C341 1.376 . S
C338 C336 1.394 . S
C338 C339 1.369 . S
C338 C342 1.531 . S
C339 C338 1.369 . S
C339 C340 1.410 . S
C339 C347 1.503 . S
C340 C339 1.410 . S
C340 C341 1.392 . S
C340 C343 1.511 . S
C341 C337 1.376 . S
C341 C340 1.392 . S
C341 H353 0.929 . S
C342 C338 1.531 . S
C342 H354 0.960 . S
C342 H355 0.962 . S
C342 H356 0.960 . S
C343 C340 1.511 . S
C343 H357 0.961 . S
C343 H358 0.961 . S
C343 H359 0.961 . S
C344 C345 1.370 . S
C344 C346 1.363 . S
C344 H360 0.931 1_455 S
C345 C344 1.370 . S
C345 C349 1.408 . S
C346 C344 1.363 . S
C346 C347 1.370 . S
C346 C350 1.524 . S
C347 C339 1.503 . S
C347 C346 1.370 . S
C347 C348 1.403 . S
C348 C347 1.403 . S
C348 C349 1.404 . S
C348 C351 1.539 . S
C349 C345 1.408 . S
C349 C348 1.404 . S
C349 H361 0.930 . S
C350 C346 1.524 . S
C350 H362 0.956 . S
C350 H363 0.961 . S
C350 H364 0.961 . S
C351 C348 1.539 . S
C351 H365 0.958 . S
C351 H366 0.961 . S
C351 H367 0.960 . S
H352 C336 0.931 . S
H353 C341 0.929 . S
H354 C342 0.960 . S
H355 C342 0.962 . S
H356 C342 0.960 . S
H357 C343 0.961 . S
H358 C343 0.961 . S
H359 C343 0.961 . S
H360 C344 0.931 1_655 S
H361 C349 0.930 . S
H362 C350 0.956 . S
H363 C350 0.961 . S
H364 C350 0.961 . S
H365 C351 0.958 . S
H366 C351 0.961 . S
H367 C351 0.960 . S
C368 C369 1.391 . S
C368 C370 1.394 . S
C368 H384 0.931 . S
C369 C368 1.391 . S
C369 C373 1.376 . S
C370 C368 1.394 . S
C370 C371 1.369 . S
C370 C374 1.531 . S
C371 C370 1.369 . S
C371 C372 1.410 . S
C371 C379 1.503 . S
C372 C371 1.410 . S
C372 C373 1.392 . S
C372 C375 1.511 . S
C373 C369 1.376 . S
C373 C372 1.392 . S
C373 H385 0.929 1_565 S
C374 C370 1.531 . S
C374 H386 0.960 . S
C374 H387 0.962 . S
C374 H388 0.960 . S
C375 C372 1.511 . S
C375 H389 0.961 . S
C375 H390 0.961 . S
C375 H391 0.961 . S
C376 C377 1.370 . S
C376 C378 1.363 1_655 S
C376 H392 0.931 . S
C377 C376 1.370 . S
C377 C381 1.408 . S
C378 C376 1.363 1_455 S
C378 C379 1.370 . S
C378 C382 1.524 . S
C379 C371 1.503 . S
C379 C378 1.370 . S
C379 C380 1.403 1_455 S
C380 C379 1.403 1_655 S
C380 C381 1.404 . S
C380 C383 1.539 . S
C381 C377 1.408 . S
C381 C380 1.404 . S
C381 H393 0.930 . S
C382 C378 1.524 . S
C382 H394 0.956 . S
C382 H395 0.961 . S
C382 H396 0.961 . S
C383 C380 1.539 . S
C383 H397 0.958 1_655 S
C383 H398 0.961 . S
C383 H399 0.960 1_655 S
H384 C368 0.931 . S
H385 C373 0.929 1_545 S
H386 C374 0.960 . S
H387 C374 0.962 . S
H388 C374 0.960 . S
H389 C375 0.961 . S
H390 C375 0.961 . S
H391 C375 0.961 . S
H392 C376 0.931 . S
H393 C381 0.930 . S
H394 C382 0.956 . S
H395 C382 0.961 . S
H396 C382 0.961 . S
H397 C383 0.958 1_455 S
H398 C383 0.961 . S
H399 C383 0.960 1_455 S
C400 C401 1.391 . S
C400 C402 1.394 . S
C400 H416 0.931 . S
C401 C400 1.391 . S
C401 C405 1.376 . S
C402 C400 1.394 . S
C402 C403 1.369 . S
C402 C406 1.531 . S
C403 C402 1.369 . S
C403 C404 1.410 . S
C403 C411 1.503 . S
C404 C403 1.410 . S
C404 C405 1.392 . S
C404 C407 1.511 . S
C405 C401 1.376 . S
C405 C404 1.392 . S
C405 H417 0.929 . S
C406 C402 1.531 . S
C406 H418 0.960 . S
C406 H419 0.962 . S
C406 H420 0.960 . S
C407 C404 1.511 . S
C407 H421 0.961 . S
C407 H422 0.961 . S
C407 H423 0.961 . S
C408 C409 1.370 . S
C408 C410 1.363 . S
C408 H424 0.931 . S
C409 C408 1.370 . S
C409 C413 1.408 . S
C410 C408 1.363 . S
C410 C411 1.370 1_545 S
C410 C414 1.524 . S
C411 C403 1.503 . S
C411 C410 1.370 1_565 S
C411 C412 1.403 . S
C412 C411 1.403 . S
C412 C413 1.404 1_565 S
C412 C415 1.539 . S
C413 C409 1.408 . S
C413 C412 1.404 1_545 S
C413 H425 0.930 . S
C414 C410 1.524 . S
C414 H426 0.956 1_545 S
C414 H427 0.961 1_545 S
C414 H428 0.961 . S
C415 C412 1.539 . S
C415 H429 0.958 . S
C415 H430 0.961 . S
C415 H431 0.960 . S
H416 C400 0.931 . S
H417 C405 0.929 . S
H418 C406 0.960 . S
H419 C406 0.962 . S
H420 C406 0.960 . S
H421 C407 0.961 . S
H422 C407 0.961 . S
H423 C407 0.961 . S
H424 C408 0.931 . S
H425 C413 0.930 . S
H426 C414 0.956 1_565 S
H427 C414 0.961 1_565 S
H428 C414 0.961 . S
H429 C415 0.958 . S
H430 C415 0.961 . S
H431 C415 0.960 . S
C432 C433 1.391 . S
C432 C434 1.394 . S
C432 H448 0.931 1_545 S
C433 C432 1.391 . S
C433 C437 1.376 . S
C434 C432 1.394 . S
C434 C435 1.369 . S
C434 C438 1.531 . S
C435 C434 1.369 . S
C435 C436 1.410 . S
C435 C443 1.503 . S
C436 C435 1.410 . S
C436 C437 1.392 . S
C436 C439 1.511 . S
C437 C433 1.376 . S
C437 C436 1.392 . S
C437 H449 0.929 . S
C438 C434 1.531 . S
C438 H450 0.960 . S
C438 H451 0.962 . S
C438 H452 0.960 . S
C439 C436 1.511 . S
C439 H453 0.961 . S
C439 H454 0.961 . S
C439 H455 0.961 . S
C440 C441 1.370 . S
C440 C442 1.363 . S
C440 H456 0.931 . S
C441 C440 1.370 . S
C441 C445 1.408 . S
C442 C440 1.363 . S
C442 C443 1.370 . S
C442 C446 1.524 . S
C443 C435 1.503 . S
C443 C442 1.370 . S
C443 C444 1.403 . S
C444 C443 1.403 . S
C444 C445 1.404 . S
C444 C447 1.539 . S
C445 C441 1.408 . S
C445 C444 1.404 . S
C445 H457 0.930 . S
C446 C442 1.524 . S
C446 H458 0.956 . S
C446 H459 0.961 . S
C446 H460 0.961 . S
C447 C444 1.539 . S
C447 H461 0.958 . S
C447 H462 0.961 . S
C447 H463 0.960 . S
H448 C432 0.931 1_565 S
H449 C437 0.929 . S
H450 C438 0.960 . S
H451 C438 0.962 . S
H452 C438 0.960 . S
H453 C439 0.961 . S
H454 C439 0.961 . S
H455 C439 0.961 . S
H456 C440 0.931 . S
H457 C445 0.930 . S
H458 C446 0.956 . S
H459 C446 0.961 . S
H460 C446 0.961 . S
H461 C447 0.958 . S
H462 C447 0.961 . S
H463 C447 0.960 . S
C464 C465 1.391 . S
C464 C466 1.394 . S
C464 H480 0.931 . S
C465 C464 1.391 . S
C465 C469 1.376 . S
C466 C464 1.394 . S
C466 C467 1.369 1_455 S
C466 C470 1.531 . S
C467 C466 1.369 1_655 S
C467 C468 1.410 . S
C467 C475 1.503 . S
C468 C467 1.410 . S
C468 C469 1.392 1_655 S
C468 C471 1.511 . S
C469 C465 1.376 . S
C469 C468 1.392 1_455 S
C469 H481 0.929 . S
C470 C466 1.531 . S
C470 H482 0.960 1_455 S
C470 H483 0.962 . S
C470 H484 0.960 . S
C471 C468 1.511 . S
C471 H485 0.961 . S
C471 H486 0.961 . S
C471 H487 0.961 . S
C472 C473 1.370 . S
C472 C474 1.363 . S
C472 H488 0.931 . S
C473 C472 1.370 . S
C473 C477 1.408 . S
C474 C472 1.363 . S
C474 C475 1.370 . S
C474 C478 1.524 . S
C475 C467 1.503 . S
C475 C474 1.370 . S
C475 C476 1.403 . S
C476 C475 1.403 . S
C476 C477 1.404 . S
C476 C479 1.539 . S
C477 C473 1.408 . S
C477 C476 1.404 . S
C477 H489 0.930 . S
C478 C474 1.524 . S
C478 H490 0.956 . S
C478 H491 0.961 . S
C478 H492 0.961 . S
C479 C476 1.539 . S
C479 H493 0.958 . S
C479 H494 0.961 . S
C479 H495 0.960 . S
H480 C464 0.931 . S
H481 C469 0.929 . S
H482 C470 0.960 1_655 S
H483 C470 0.962 . S
H484 C470 0.960 . S
H485 C471 0.961 . S
H486 C471 0.961 . S
H487 C471 0.961 . S
H488 C472 0.931 . S
H489 C477 0.930 . S
H490 C478 0.956 . S
H491 C478 0.961 . S
H492 C478 0.961 . S
H493 C479 0.958 . S
H494 C479 0.961 . S
H495 C479 0.960 . S
C496 C497 1.391 . S
C496 C498 1.394 . S
C496 H512 0.931 . S
C497 C496 1.391 . S
C497 C501 1.376 . S
C498 C496 1.394 . S
C498 C499 1.369 1_565 S
C498 C502 1.531 1_565 S
C499 C498 1.369 1_545 S
C499 C500 1.410 . S
C499 C507 1.503 . S
C500 C499 1.410 . S
C500 C501 1.392 1_545 S
C500 C503 1.511 . S
C501 C497 1.376 . S
C501 C500 1.392 1_565 S
C501 H513 0.929 . S
C502 C498 1.531 1_545 S
C502 H514 0.960 . S
C502 H515 0.962 . S
C502 H516 0.960 1_545 S
C503 C500 1.511 . S
C503 H517 0.961 . S
C503 H518 0.961 . S
C503 H519 0.961 . S
C504 C505 1.370 . S
C504 C506 1.363 . S
C504 H520 0.931 . S
C505 C504 1.370 . S
C505 C509 1.408 . S
C506 C504 1.363 . S
C506 C507 1.370 . S
C506 C510 1.524 . S
C507 C499 1.503 . S
C507 C506 1.370 . S
C507 C508 1.403 . S
C508 C507 1.403 . S
C508 C509 1.404 . S
C508 C511 1.539 . S
C509 C505 1.408 . S
C509 C508 1.404 . S
C509 H521 0.930 1_655 S
C510 C506 1.524 . S
C510 H522 0.956 . S
C510 H523 0.961 . S
C510 H524 0.961 . S
C511 C508 1.539 . S
C511 H525 0.958 . S
C511 H526 0.961 . S
C511 H527 0.960 . S
H512 C496 0.931 . S
H513 C501 0.929 . S
H514 C502 0.960 . S
H515 C502 0.962 . S
H516 C502 0.960 1_565 S
H517 C503 0.961 . S
H518 C503 0.961 . S
H519 C503 0.961 . S
H520 C504 0.931 . S
H521 C509 0.930 1_455 S
H522 C510 0.956 . S
H523 C510 0.961 . S
H524 C510 0.961 . S
H525 C511 0.958 . S
H526 C511 0.961 . S
H527 C511 0.960 . S
C528 C529 1.391 . S
C528 C530 1.394 . S
C528 H544 0.931 . S
C529 C528 1.391 . S
C529 C533 1.376 . S
C530 C528 1.394 . S
C530 C531 1.369 . S
C530 C534 1.531 . S
C531 C530 1.369 . S
C531 C532 1.410 . S
C531 C539 1.503 . S
C532 C531 1.410 . S
C532 C533 1.392 . S
C532 C535 1.511 . S
C533 C529 1.376 . S
C533 C532 1.392 . S
C533 H545 0.929 . S
C534 C530 1.531 . S
C534 H546 0.960 . S
C534 H547 0.962 . S
C534 H548 0.960 . S
C535 C532 1.511 . S
C535 H549 0.961 . S
C535 H550 0.961 . S
C535 H551 0.961 . S
C536 C537 1.370 . S
C536 C538 1.363 . S
C536 H552 0.931 . S
C537 C536 1.370 . S
C537 C541 1.408 . S
C538 C536 1.363 . S
C538 C539 1.370 . S
C538 C542 1.524 . S
C539 C531 1.503 . S
C539 C538 1.370 . S
C539 C540 1.403 . S
C540 C539 1.403 . S
C540 C541 1.404 . S
C540 C543 1.539 . S
C541 C537 1.408 . S
C541 C540 1.404 . S
C541 H553 0.930 . S
C542 C538 1.524 . S
C542 H554 0.956 . S
C542 H555 0.961 . S
C542 H556 0.961 . S
C543 C540 1.539 . S
C543 H557 0.958 . S
C543 H558 0.961 . S
C543 H559 0.960 . S
H544 C528 0.931 . S
H545 C533 0.929 . S
H546 C534 0.960 . S
H547 C534 0.962 . S
H548 C534 0.960 . S
H549 C535 0.961 . S
H550 C535 0.961 . S
H551 C535 0.961 . S
H552 C536 0.931 . S
H553 C541 0.930 . S
H554 C542 0.956 . S
H555 C542 0.961 . S
H556 C542 0.961 . S
H557 C543 0.958 . S
H558 C543 0.961 . S
H559 C543 0.960 . S
C560 C561 1.391 . S
C560 C562 1.394 1_455 S
C560 H576 0.931 . S
C561 C560 1.391 . S
C561 C565 1.376 . S
C562 C560 1.394 1_655 S
C562 C563 1.369 . S
C562 C566 1.531 . S
C563 C562 1.369 . S
C563 C564 1.410 1_655 S
C563 C571 1.503 . S
C564 C563 1.410 1_455 S
C564 C565 1.392 . S
C564 C567 1.511 1_455 S
C565 C561 1.376 . S
C565 C564 1.392 . S
C565 H577 0.929 . S
C566 C562 1.531 . S
C566 H578 0.960 . S
C566 H579 0.962 . S
C566 H580 0.960 . S
C567 C564 1.511 1_655 S
C567 H581 0.961 1_655 S
C567 H582 0.961 . S
C567 H583 0.961 . S
C568 C569 1.370 . S
C568 C570 1.363 . S
C568 H584 0.931 . S
C569 C568 1.370 . S
C569 C573 1.408 . S
C570 C568 1.363 . S
C570 C571 1.370 . S
C570 C574 1.524 . S
C571 C563 1.503 . S
C571 C570 1.370 . S
C571 C572 1.403 . S
C572 C571 1.403 . S
C572 C573 1.404 . S
C572 C575 1.539 . S
C573 C569 1.408 . S
C573 C572 1.404 . S
C573 H585 0.930 . S
C574 C570 1.524 . S
C574 H586 0.956 . S
C574 H587 0.961 . S
C574 H588 0.961 . S
C575 C572 1.539 . S
C575 H589 0.958 . S
C575 H590 0.961 . S
C575 H591 0.960 . S
H576 C560 0.931 . S
H577 C565 0.929 . S
H578 C566 0.960 . S
H579 C566 0.962 . S
H580 C566 0.960 . S
H581 C567 0.961 1_455 S
H582 C567 0.961 . S
H583 C567 0.961 . S
H584 C568 0.931 . S
H585 C573 0.930 . S
H586 C574 0.956 . S
H587 C574 0.961 . S
H588 C574 0.961 . S
H589 C575 0.958 . S
H590 C575 0.961 . S
H591 C575 0.960 . S
C592 C593 1.391 . S
C592 C594 1.394 . S
C592 H608 0.931 . S
C593 C592 1.391 . S
C593 C597 1.376 . S
C594 C592 1.394 . S
C594 C595 1.369 . S
C594 C598 1.531 . S
C595 C594 1.369 . S
C595 C596 1.410 . S
C595 C603 1.503 . S
C596 C595 1.410 . S
C596 C597 1.392 . S
C596 C599 1.511 . S
C597 C593 1.376 . S
C597 C596 1.392 . S
C597 H609 0.929 . S
C598 C594 1.531 . S
C598 H610 0.960 . S
C598 H611 0.962 . S
C598 H612 0.960 . S
C599 C596 1.511 . S
C599 H613 0.961 . S
C599 H614 0.961 . S
C599 H615 0.961 . S
C600 C601 1.370 . S
C600 C602 1.363 . S
C600 H616 0.931 . S
C601 C600 1.370 . S
C601 C605 1.408 . S
C602 C600 1.363 . S
C602 C603 1.370 1_565 S
C602 C606 1.524 . S
C603 C595 1.503 . S
C603 C602 1.370 1_545 S
C603 C604 1.403 . S
C604 C603 1.403 . S
C604 C605 1.404 1_545 S
C604 C607 1.539 . S
C605 C601 1.408 . S
C605 C604 1.404 1_565 S
C605 H617 0.930 . S
C606 C602 1.524 . S
C606 H618 0.956 1_565 S
C606 H619 0.961 1_565 S
C606 H620 0.961 . S
C607 C604 1.539 . S
C607 H621 0.958 . S
C607 H622 0.961 . S
C607 H623 0.960 . S
H608 C592 0.931 . S
H609 C597 0.929 . S
H610 C598 0.960 . S
H611 C598 0.962 . S
H612 C598 0.960 . S
H613 C599 0.961 . S
H614 C599 0.961 . S
H615 C599 0.961 . S
H616 C600 0.931 . S
H617 C605 0.930 . S
H618 C606 0.956 1_545 S
H619 C606 0.961 1_545 S
H620 C606 0.961 . S
H621 C607 0.958 . S
H622 C607 0.961 . S
H623 C607 0.960 . S
C624 C625 1.391 . S
C624 C626 1.394 . S
C624 H640 0.931 . S
C625 C624 1.391 . S
C625 C629 1.376 . S
C626 C624 1.394 . S
C626 C627 1.369 . S
C626 C630 1.531 . S
C627 C626 1.369 . S
C627 C628 1.410 . S
C627 C635 1.503 . S
C628 C627 1.410 . S
C628 C629 1.392 . S
C628 C631 1.511 . S
C629 C625 1.376 . S
C629 C628 1.392 . S
C629 H641 0.929 . S
C630 C626 1.531 . S
C630 H642 0.960 . S
C630 H643 0.962 . S
C630 H644 0.960 . S
C631 C628 1.511 . S
C631 H645 0.961 . S
C631 H646 0.961 . S
C631 H647 0.961 . S
C632 C633 1.370 . S
C632 C634 1.363 . S
C632 H648 0.931 . S
C633 C632 1.370 . S
C633 C637 1.408 . S
C634 C632 1.363 . S
C634 C635 1.370 . S
C634 C638 1.524 . S
C635 C627 1.503 . S
C635 C634 1.370 . S
C635 C636 1.403 . S
C636 C635 1.403 . S
C636 C637 1.404 . S
C636 C639 1.539 . S
C637 C633 1.408 . S
C637 C636 1.404 . S
C637 H649 0.930 . S
C638 C634 1.524 . S
C638 H650 0.956 . S
C638 H651 0.961 . S
C638 H652 0.961 . S
C639 C636 1.539 . S
C639 H653 0.958 . S
C639 H654 0.961 . S
C639 H655 0.960 . S
H640 C624 0.931 . S
H641 C629 0.929 . S
H642 C630 0.960 . S
H643 C630 0.962 . S
H644 C630 0.960 . S
H645 C631 0.961 . S
H646 C631 0.961 . S
H647 C631 0.961 . S
H648 C632 0.931 . S
H649 C637 0.930 . S
H650 C638 0.956 . S
H651 C638 0.961 . S
H652 C638 0.961 . S
H653 C639 0.958 . S
H654 C639 0.961 . S
H655 C639 0.960 . S
C656 C657 1.391 . S
C656 C658 1.394 . S
C656 H672 0.931 . S
C657 C656 1.391 . S
C657 C661 1.376 . S
C658 C656 1.394 . S
C658 C659 1.369 . S
C658 C662 1.531 . S
C659 C658 1.369 . S
C659 C660 1.410 . S
C659 C667 1.503 . S
C660 C659 1.410 . S
C660 C661 1.392 . S
C660 C663 1.511 . S
C661 C657 1.376 . S
C661 C660 1.392 . S
C661 H673 0.929 . S
C662 C658 1.531 . S
C662 H674 0.960 . S
C662 H675 0.962 . S
C662 H676 0.960 . S
C663 C660 1.511 . S
C663 H677 0.961 . S
C663 H678 0.961 . S
C663 H679 0.961 . S
C664 C665 1.370 . S
C664 C666 1.363 . S
C664 H680 0.931 . S
C665 C664 1.370 . S
C665 C669 1.408 . S
C666 C664 1.363 . S
C666 C667 1.370 . S
C666 C670 1.524 . S
C667 C659 1.503 . S
C667 C666 1.370 . S
C667 C668 1.403 . S
C668 C667 1.403 . S
C668 C669 1.404 . S
C668 C671 1.539 . S
C669 C665 1.408 . S
C669 C668 1.404 . S
C669 H681 0.930 . S
C670 C666 1.524 . S
C670 H682 0.956 . S
C670 H683 0.961 . S
C670 H684 0.961 . S
C671 C668 1.539 . S
C671 H685 0.958 . S
C671 H686 0.961 . S
C671 H687 0.960 . S
H672 C656 0.931 . S
H673 C661 0.929 . S
H674 C662 0.960 . S
H675 C662 0.962 . S
H676 C662 0.960 . S
H677 C663 0.961 . S
H678 C663 0.961 . S
H679 C663 0.961 . S
H680 C664 0.931 . S
H681 C669 0.930 . S
H682 C670 0.956 . S
H683 C670 0.961 . S
H684 C670 0.961 . S
H685 C671 0.958 . S
H686 C671 0.961 . S
H687 C671 0.960 . S
C688 C689 1.391 . S
C688 C690 1.394 . S
C688 H704 0.931 . S
C689 C688 1.391 . S
C689 C693 1.376 . S
C690 C688 1.394 . S
C690 C691 1.369 . S
C690 C694 1.531 . S
C691 C690 1.369 . S
C691 C692 1.410 . S
C691 C699 1.503 . S
C692 C691 1.410 . S
C692 C693 1.392 . S
C692 C695 1.511 . S
C693 C689 1.376 . S
C693 C692 1.392 . S
C693 H705 0.929 . S
C694 C690 1.531 . S
C694 H706 0.960 . S
C694 H707 0.962 . S
C694 H708 0.960 . S
C695 C692 1.511 . S
C695 H709 0.961 . S
C695 H710 0.961 . S
C695 H711 0.961 . S
C696 C697 1.370 . S
C696 C698 1.363 . S
C696 H712 0.931 . S
C697 C696 1.370 . S
C697 C701 1.408 . S
C698 C696 1.363 . S
C698 C699 1.370 . S
C698 C702 1.524 . S
C699 C691 1.503 . S
C699 C698 1.370 . S
C699 C700 1.403 . S
C700 C699 1.403 . S
C700 C701 1.404 . S
C700 C703 1.539 . S
C701 C697 1.408 . S
C701 C700 1.404 . S
C701 H713 0.930 . S
C702 C698 1.524 . S
C702 H714 0.956 . S
C702 H715 0.961 . S
C702 H716 0.961 . S
C703 C700 1.539 . S
C703 H717 0.958 . S
C703 H718 0.961 . S
C703 H719 0.960 . S
H704 C688 0.931 . S
H705 C693 0.929 . S
H706 C694 0.960 . S
H707 C694 0.962 . S
H708 C694 0.960 . S
H709 C695 0.961 . S
H710 C695 0.961 . S
H711 C695 0.961 . S
H712 C696 0.931 . S
H713 C701 0.930 . S
H714 C702 0.956 . S
H715 C702 0.961 . S
H716 C702 0.961 . S
H717 C703 0.958 . S
H718 C703 0.961 . S
H719 C703 0.960 . S
C720 C721 1.391 . S
C720 C722 1.394 . S
C720 H736 0.931 . S
C721 C720 1.391 . S
C721 C725 1.376 . S
C722 C720 1.394 . S
C722 C723 1.369 . S
C722 C726 1.531 . S
C723 C722 1.369 . S
C723 C724 1.410 . S
C723 C731 1.503 . S
C724 C723 1.410 . S
C724 C725 1.392 . S
C724 C727 1.511 . S
C725 C721 1.376 . S
C725 C724 1.392 . S
C725 H737 0.929 . S
C726 C722 1.531 . S
C726 H738 0.960 . S
C726 H739 0.962 . S
C726 H740 0.960 . S
C727 C724 1.511 . S
C727 H741 0.961 . S
C727 H742 0.961 . S
C727 H743 0.961 . S
C728 C729 1.370 . S
C728 C730 1.363 . S
C728 H744 0.931 . S
C729 C728 1.370 . S
C729 C733 1.408 . S
C730 C728 1.363 . S
C730 C731 1.370 . S
C730 C734 1.524 . S
C731 C723 1.503 . S
C731 C730 1.370 . S
C731 C732 1.403 . S
C732 C731 1.403 . S
C732 C733 1.404 . S
C732 C735 1.539 . S
C733 C729 1.408 . S
C733 C732 1.404 . S
C733 H745 0.930 . S
C734 C730 1.524 . S
C734 H746 0.956 . S
C734 H747 0.961 . S
C734 H748 0.961 . S
C735 C732 1.539 . S
C735 H749 0.958 . S
C735 H750 0.961 . S
C735 H751 0.960 . S
H736 C720 0.931 . S
H737 C725 0.929 . S
H738 C726 0.960 . S
H739 C726 0.962 . S
H740 C726 0.960 . S
H741 C727 0.961 . S
H742 C727 0.961 . S
H743 C727 0.961 . S
H744 C728 0.931 . S
H745 C733 0.930 . S
H746 C734 0.956 . S
H747 C734 0.961 . S
H748 C734 0.961 . S
H749 C735 0.958 . S
H750 C735 0.961 . S
H751 C735 0.960 . S
C752 C753 1.391 . S
C752 C754 1.394 . S
C752 H768 0.931 . S
C753 C752 1.391 . S
C753 C757 1.376 . S
C754 C752 1.394 . S
C754 C755 1.369 . S
C754 C758 1.531 . S
C755 C754 1.369 . S
C755 C756 1.410 . S
C755 C763 1.503 . S
C756 C755 1.410 . S
C756 C757 1.392 . S
C756 C759 1.511 . S
C757 C753 1.376 . S
C757 C756 1.392 . S
C757 H769 0.929 . S
C758 C754 1.531 . S
C758 H770 0.960 . S
C758 H771 0.962 . S
C758 H772 0.960 . S
C759 C756 1.511 . S
C759 H773 0.961 . S
C759 H774 0.961 . S
C759 H775 0.961 . S
C760 C761 1.370 . S
C760 C762 1.363 . S
C760 H776 0.931 . S
C761 C760 1.370 . S
C761 C765 1.408 . S
C762 C760 1.363 . S
C762 C763 1.370 . S
C762 C766 1.524 . S
C763 C755 1.503 . S
C763 C762 1.370 . S
C763 C764 1.403 . S
C764 C763 1.403 . S
C764 C765 1.404 . S
C764 C767 1.539 . S
C765 C761 1.408 . S
C765 C764 1.404 . S
C765 H777 0.930 . S
C766 C762 1.524 . S
C766 H778 0.956 . S
C766 H779 0.961 . S
C766 H780 0.961 . S
C767 C764 1.539 . S
C767 H781 0.958 . S
C767 H782 0.961 . S
C767 H783 0.960 . S
H768 C752 0.931 . S
H769 C757 0.929 . S
H770 C758 0.960 . S
H771 C758 0.962 . S
H772 C758 0.960 . S
H773 C759 0.961 . S
H774 C759 0.961 . S
H775 C759 0.961 . S
H776 C760 0.931 . S
H777 C765 0.930 . S
H778 C766 0.956 . S
H779 C766 0.961 . S
H780 C766 0.961 . S
H781 C767 0.958 . S
H782 C767 0.961 . S
H783 C767 0.960 . S
C784 C785 1.391 . S
C784 C786 1.394 . S
C784 H800 0.931 . S
C785 C784 1.391 . S
C785 C789 1.376 . S
C786 C784 1.394 . S
C786 C787 1.369 . S
C786 C790 1.531 . S
C787 C786 1.369 . S
C787 C788 1.410 . S
C787 C795 1.503 . S
C788 C787 1.410 . S
C788 C789 1.392 . S
C788 C791 1.511 . S
C789 C785 1.376 . S
C789 C788 1.392 . S
C789 H801 0.929 . S
C790 C786 1.531 . S
C790 H802 0.960 . S
C790 H803 0.962 . S
C790 H804 0.960 . S
C791 C788 1.511 . S
C791 H805 0.961 . S
C791 H806 0.961 . S
C791 H807 0.961 . S
C792 C793 1.370 . S
C792 C794 1.363 . S
C792 H808 0.931 . S
C793 C792 1.370 . S
C793 C797 1.408 . S
C794 C792 1.363 . S
C794 C795 1.370 . S
C794 C798 1.524 . S
C795 C787 1.503 . S
C795 C794 1.370 . S
C795 C796 1.403 . S
C796 C795 1.403 . S
C796 C797 1.404 . S
C796 C799 1.539 . S
C797 C793 1.408 . S
C797 C796 1.404 . S
C797 H809 0.930 . S
C798 C794 1.524 . S
C798 H810 0.956 . S
C798 H811 0.961 . S
C798 H812 0.961 . S
C799 C796 1.539 . S
C799 H813 0.958 . S
C799 H814 0.961 . S
C799 H815 0.960 . S
H800 C784 0.931 . S
H801 C789 0.929 . S
H802 C790 0.960 . S
H803 C790 0.962 . S
H804 C790 0.960 . S
H805 C791 0.961 . S
H806 C791 0.961 . S
H807 C791 0.961 . S
H808 C792 0.931 . S
H809 C797 0.930 . S
H810 C798 0.956 . S
H811 C798 0.961 . S
H812 C798 0.961 . S
H813 C799 0.958 . S
H814 C799 0.961 . S
H815 C799 0.960 . S
C816 C817 1.391 . S
C816 C818 1.394 . S
C816 H832 0.931 . S
C817 C816 1.391 . S
C817 C821 1.376 . S
C818 C816 1.394 . S
C818 C819 1.369 . S
C818 C822 1.531 1_556 S
C819 C818 1.369 . S
C819 C820 1.410 . S
C819 C827 1.503 1_566 S
C820 C819 1.410 . S
C820 C821 1.392 . S
C820 C823 1.511 . S
C821 C817 1.376 . S
C821 C820 1.392 . S
C821 H833 0.929 . S
C822 C818 1.531 1_554 S
C822 H834 0.960 . S
C822 H835 0.962 1_554 S
C822 H836 0.960 . S
C823 C820 1.511 . S
C823 H837 0.961 . S
C823 H838 0.961 1_565 S
C823 H839 0.956 1_556 S
C824 C825 1.370 . S
C824 C826 1.363 . S
C824 H840 0.931 . S
C825 C824 1.370 . S
C825 C829 1.408 . S
C826 C824 1.363 . S
C826 C827 1.370 . S
C826 C830 1.524 1_554 S
C827 C819 1.503 1_544 S
C827 C826 1.370 . S
C827 C828 1.403 . S
C828 C827 1.403 . S
C828 C829 1.404 . S
C828 C831 1.539 1_545 S
C829 C825 1.408 . S
C829 C828 1.404 . S
C829 H841 0.930 . S
C830 C826 1.524 1_556 S
C830 H842 0.956 . S
C830 H843 0.961 . S
C830 H844 0.961 . S
C831 C828 1.539 1_565 S
C831 H845 0.958 . S
C831 H846 0.961 . S
C831 H847 0.960 . S
H832 C816 0.931 . S
H833 C821 0.929 . S
H834 C822 0.960 . S
H835 C822 0.962 1_556 S
H836 C822 0.960 . S
H837 C823 0.961 . S
H838 C823 0.961 1_545 S
H839 C823 0.956 1_554 S
H840 C824 0.931 . S
H841 C829 0.930 . S
H842 C830 0.956 . S
H843 C830 0.961 . S
H844 C830 0.961 . S
H845 C831 0.958 . S
H846 C831 0.961 . S
H847 C831 0.960 . S
C848 C849 1.391 . S
C848 C850 1.394 . S
C848 H864 0.931 . S
C849 C848 1.391 . S
C849 C853 1.376 . S
C850 C848 1.394 . S
C850 C851 1.369 . S
C850 C854 1.531 . S
C851 C850 1.369 . S
C851 C852 1.410 . S
C851 C859 1.503 . S
C852 C851 1.410 . S
C852 C853 1.392 . S
C852 C855 1.511 . S
C853 C849 1.376 . S
C853 C852 1.392 . S
C853 H865 0.929 . S
C854 C850 1.531 . S
C854 H866 0.960 . S
C854 H867 0.962 . S
C854 H868 0.960 . S
C855 C852 1.511 . S
C855 H869 0.961 . S
C855 H870 0.961 . S
C855 H871 0.961 . S
C856 C857 1.370 . S
C856 C858 1.363 . S
C856 H872 0.931 . S
C857 C856 1.370 . S
C857 C861 1.408 . S
C858 C856 1.363 . S
C858 C859 1.370 . S
C858 C862 1.524 . S
C859 C851 1.503 . S
C859 C858 1.370 . S
C859 C860 1.403 . S
C860 C859 1.403 . S
C860 C861 1.404 . S
C860 C863 1.539 . S
C861 C857 1.408 . S
C861 C860 1.404 . S
C861 H873 0.930 . S
C862 C858 1.524 . S
C862 H874 0.956 . S
C862 H875 0.961 . S
C862 H876 0.961 . S
C863 C860 1.539 . S
C863 H877 0.958 . S
C863 H878 0.961 . S
C863 H879 0.960 . S
H864 C848 0.931 . S
H865 C853 0.929 . S
H866 C854 0.960 . S
H867 C854 0.962 . S
H868 C854 0.960 . S
H869 C855 0.961 . S
H870 C855 0.961 . S
H871 C855 0.961 . S
H872 C856 0.931 . S
H873 C861 0.930 . S
H874 C862 0.956 . S
H875 C862 0.961 . S
H876 C862 0.961 . S
H877 C863 0.958 . S
H878 C863 0.961 . S
H879 C863 0.960 . S
C880 C881 1.391 . S
C880 C882 1.394 . S
C880 H896 0.931 . S
C881 C880 1.391 . S
C881 C885 1.376 . S
C882 C880 1.394 . S
C882 C883 1.369 . S
C882 C886 1.531 1_556 S
C883 C882 1.369 . S
C883 C884 1.410 . S
C883 C891 1.503 1_456 S
C884 C883 1.410 . S
C884 C885 1.392 . S
C884 C887 1.511 1_455 S
C885 C881 1.376 . S
C885 C884 1.392 . S
C885 H897 0.929 . S
C886 C882 1.531 1_554 S
C886 H898 0.960 . S
C886 H899 0.962 . S
C886 H900 0.960 . S
C887 C884 1.511 1_655 S
C887 H901 0.961 . S
C887 H902 0.961 . S
C887 H903 0.961 . S
C888 C889 1.370 . S
C888 C890 1.363 . S
C888 H904 0.931 . S
C889 C888 1.370 . S
C889 C893 1.408 . S
C890 C888 1.363 . S
C890 C891 1.370 . S
C890 C894 1.524 1_554 S
C891 C883 1.503 1_654 S
C891 C890 1.370 . S
C891 C892 1.403 . S
C892 C891 1.403 . S
C892 C893 1.404 . S
C892 C895 1.539 1_655 S
C893 C889 1.408 . S
C893 C892 1.404 . S
C893 H905 0.930 . S
C894 C890 1.524 1_556 S
C894 H906 0.956 . S
C894 H907 0.961 . S
C894 H908 0.961 . S
C895 C892 1.539 1_455 S
C895 H909 0.958 . S
C895 H910 0.961 . S
C895 H911 0.960 . S
H896 C880 0.931 . S
H897 C885 0.929 . S
H898 C886 0.960 . S
H899 C886 0.962 . S
H900 C886 0.960 . S
H901 C887 0.961 . S
H902 C887 0.961 . S
H903 C887 0.961 . S
H904 C888 0.931 . S
H905 C893 0.930 . S
H906 C894 0.956 . S
H907 C894 0.961 . S
H908 C894 0.961 . S
H909 C895 0.958 . S
H910 C895 0.961 . S
H911 C895 0.960 . S
C912 C913 1.391 . S
C912 C914 1.394 . S
C912 H928 0.931 . S
C913 C912 1.391 . S
C913 C917 1.376 . S
C914 C912 1.394 . S
C914 C915 1.369 . S
C914 C918 1.531 . S
C915 C914 1.369 . S
C915 C916 1.410 . S
C915 C923 1.503 1_545 S
C916 C915 1.410 . S
C916 C917 1.392 . S
C916 C919 1.511 . S
C917 C913 1.376 . S
C917 C916 1.392 . S
C917 H929 0.929 . S
C918 C914 1.531 . S
C918 H930 0.960 1_545 S
C918 H931 0.962 . S
C918 H932 0.960 . S
C919 C916 1.511 . S
C919 H933 0.961 . S
C919 H934 0.961 1_545 S
C919 H935 0.961 1_545 S
C920 C921 1.370 . S
C920 C922 1.363 . S
C920 H936 0.931 . S
C921 C920 1.370 . S
C921 C925 1.408 . S
C922 C920 1.363 . S
C922 C923 1.370 . S
C922 C926 1.524 1_565 S
C923 C915 1.503 1_565 S
C923 C922 1.370 . S
C923 C924 1.403 . S
C924 C923 1.403 . S
C924 C925 1.404 . S
C924 C927 1.539 . S
C925 C921 1.408 . S
C925 C924 1.404 . S
C925 H937 0.930 . S
C926 C922 1.524 1_545 S
C926 H938 0.956 . S
C926 H939 0.961 . S
C926 H940 0.961 . S
C927 C924 1.539 . S
C927 H941 0.958 . S
C927 H942 0.961 . S
C927 H943 0.960 . S
H928 C912 0.931 . S
H929 C917 0.929 . S
H930 C918 0.960 1_565 S
H931 C918 0.962 . S
H932 C918 0.960 . S
H933 C919 0.961 . S
H934 C919 0.961 1_565 S
H935 C919 0.961 1_565 S
H936 C920 0.931 . S
H937 C925 0.930 . S
H938 C926 0.956 . S
H939 C926 0.961 . S
H940 C926 0.961 . S
H941 C927 0.958 . S
H942 C927 0.961 . S
H943 C927 0.960 . S
C944 C945 1.391 . S
C944 C946 1.394 . S
C944 H960 0.931 . S
C945 C944 1.391 . S
C945 C949 1.376 . S
C946 C944 1.394 . S
C946 C947 1.369 . S
C946 C950 1.531 1_554 S
C947 C946 1.369 . S
C947 C948 1.410 . S
C947 C955 1.503 1_554 S
C948 C947 1.410 . S
C948 C949 1.392 . S
C948 C951 1.511 . S
C949 C945 1.376 . S
C949 C948 1.392 . S
C949 H961 0.929 . S
C950 C946 1.531 1_556 S
C950 H962 0.960 . S
C950 H963 0.962 . S
C950 H964 0.960 . S
C951 C948 1.511 . S
C951 H965 0.961 . S
C951 H966 0.961 . S
C951 H967 0.961 . S
C952 C953 1.370 . S
C952 C954 1.363 . S
C952 H968 0.931 . S
C953 C952 1.370 . S
C953 C957 1.408 . S
C954 C952 1.363 . S
C954 C955 1.370 . S
C954 C958 1.524 1_556 S
C955 C947 1.503 1_556 S
C955 C954 1.370 . S
C955 C956 1.403 . S
C956 C955 1.403 . S
C956 C957 1.404 . S
C956 C959 1.539 . S
C957 C953 1.408 . S
C957 C956 1.404 . S
C957 H969 0.930 . S
C958 C954 1.524 1_554 S
C958 H970 0.956 . S
C958 H971 0.961 . S
C958 H972 0.961 . S
C959 C956 1.539 . S
C959 H973 0.958 . S
C959 H974 0.961 . S
C959 H975 0.960 . S
H960 C944 0.931 . S
H961 C949 0.929 . S
H962 C950 0.960 . S
H963 C950 0.962 . S
H964 C950 0.960 . S
H965 C951 0.961 . S
H966 C951 0.961 . S
H967 C951 0.961 . S
H968 C952 0.931 . S
H969 C957 0.930 . S
H970 C958 0.956 . S
H971 C958 0.961 . S
H972 C958 0.961 . S
H973 C959 0.958 . S
H974 C959 0.961 . S
H975 C959 0.960 . S
C976 C977 1.391 . S
C976 C978 1.394 . S
C976 H992 0.931 . S
C977 C976 1.391 . S
C977 C981 1.376 . S
C978 C976 1.394 . S
C978 C979 1.369 . S
C978 C982 1.531 . S
C979 C978 1.369 . S
C979 C980 1.410 . S
C979 C987 1.503 1_455 S
C980 C979 1.410 . S
C980 C981 1.392 . S
C980 C983 1.511 . S
C981 C977 1.376 . S
C981 C980 1.392 . S
C981 H993 0.929 . S
C982 C978 1.531 . S
C982 H994 0.960 . S
C982 H995 0.962 1_455 S
C982 H996 0.960 . S
C983 C980 1.511 . S
C983 H997 0.961 . S
C983 H998 0.961 . S
C983 H999 0.961 . S
C984 C985 1.370 . S
C984 C986 1.363 . S
C984 H1000 0.931 . S
C985 C984 1.370 . S
C985 C989 1.408 . S
C986 C984 1.363 . S
C986 C987 1.370 . S
C986 C990 1.524 . S
C987 C979 1.503 1_655 S
C987 C986 1.370 . S
C987 C988 1.403 . S
C988 C987 1.403 . S
C988 C989 1.404 . S
C988 C991 1.539 1_655 S
C989 C985 1.408 . S
C989 C988 1.404 . S
C989 H1001 0.930 . S
C990 C986 1.524 . S
C990 H1002 0.956 . S
C990 H1003 0.961 . S
C990 H1004 0.961 . S
C991 C988 1.539 1_455 S
C991 H1005 0.958 . S
C991 H1006 0.961 . S
C991 H1007 0.960 . S
H992 C976 0.931 . S
H993 C981 0.929 . S
H994 C982 0.960 . S
H995 C982 0.962 1_655 S
H996 C982 0.960 . S
H997 C983 0.961 . S
H998 C983 0.961 . S
H999 C983 0.961 . S
H1000 C984 0.931 . S
H1001 C989 0.930 . S
H1002 C990 0.956 . S
H1003 C990 0.961 . S
H1004 C990 0.961 . S
H1005 C991 0.958 . S
H1006 C991 0.961 . S
H1007 C991 0.960 . S
C1008 C1009 1.391 . S
C1008 C1010 1.394 . S
C1008 H1024 0.931 . S
C1009 C1008 1.391 . S
C1009 C1013 1.376 . S
C1010 C1008 1.394 . S
C1010 C1011 1.369 . S
C1010 C1014 1.531 . S
C1011 C1010 1.369 . S
C1011 C1012 1.410 . S
C1011 C1019 1.503 . S
C1012 C1011 1.410 . S
C1012 C1013 1.392 . S
C1012 C1015 1.511 . S
C1013 C1009 1.376 . S
C1013 C1012 1.392 . S
C1013 H1025 0.929 . S
C1014 C1010 1.531 . S
C1014 H1026 0.960 . S
C1014 H1027 0.962 . S
C1014 H1028 0.960 . S
C1015 C1012 1.511 . S
C1015 H1029 0.961 . S
C1015 H1030 0.961 . S
C1015 H1031 0.961 . S
C1016 C1017 1.370 . S
C1016 C1018 1.363 . S
C1016 H1032 0.931 . S
C1017 C1016 1.370 . S
C1017 C1021 1.408 . S
C1018 C1016 1.363 . S
C1018 C1019 1.370 . S
C1018 C1022 1.524 . S
C1019 C1011 1.503 . S
C1019 C1018 1.370 . S
C1019 C1020 1.403 . S
C1020 C1019 1.403 . S
C1020 C1021 1.404 . S
C1020 C1023 1.539 . S
C1021 C1017 1.408 . S
C1021 C1020 1.404 . S
C1021 H1033 0.930 . S
C1022 C1018 1.524 . S
C1022 H1034 0.956 . S
C1022 H1035 0.961 . S
C1022 H1036 0.961 . S
C1023 C1020 1.539 . S
C1023 H1037 0.958 . S
C1023 H1038 0.961 . S
C1023 H1039 0.960 . S
H1024 C1008 0.931 . S
H1025 C1013 0.929 . S
H1026 C1014 0.960 . S
H1027 C1014 0.962 . S
H1028 C1014 0.960 . S
H1029 C1015 0.961 . S
H1030 C1015 0.961 . S
H1031 C1015 0.961 . S
H1032 C1016 0.931 . S
H1033 C1021 0.930 . S
H1034 C1022 0.956 . S
H1035 C1022 0.961 . S
H1036 C1022 0.961 . S
H1037 C1023 0.958 . S
H1038 C1023 0.961 . S
H1039 C1023 0.960 . S
C1040 C1041 1.391 . S
C1040 C1042 1.394 . S
C1040 H1056 0.931 . S
C1041 C1040 1.391 . S
C1041 C1045 1.376 . S
C1042 C1040 1.394 . S
C1042 C1043 1.369 . S
C1042 C1046 1.531 . S
C1043 C1042 1.369 . S
C1043 C1044 1.410 . S
C1043 C1051 1.503 . S
C1044 C1043 1.410 . S
C1044 C1045 1.392 . S
C1044 C1047 1.511 . S
C1045 C1041 1.376 . S
C1045 C1044 1.392 . S
C1045 H1057 0.929 . S
C1046 C1042 1.531 . S
C1046 H1058 0.960 . S
C1046 H1059 0.962 . S
C1046 H1060 0.960 . S
C1047 C1044 1.511 . S
C1047 H1061 0.961 . S
C1047 H1062 0.961 . S
C1047 H1063 0.961 . S
C1048 C1049 1.370 . S
C1048 C1050 1.363 . S
C1048 H1064 0.931 . S
C1049 C1048 1.370 . S
C1049 C1053 1.408 . S
C1050 C1048 1.363 . S
C1050 C1051 1.370 . S
C1050 C1054 1.524 . S
C1051 C1043 1.503 . S
C1051 C1050 1.370 . S
C1051 C1052 1.403 . S
C1052 C1051 1.403 . S
C1052 C1053 1.404 . S
C1052 C1055 1.539 . S
C1053 C1049 1.408 . S
C1053 C1052 1.404 . S
C1053 H1065 0.930 . S
C1054 C1050 1.524 . S
C1054 H1066 0.956 . S
C1054 H1067 0.961 . S
C1054 H1068 0.961 . S
C1055 C1052 1.539 . S
C1055 H1069 0.958 . S
C1055 H1070 0.961 . S
C1055 H1071 0.960 . S
H1056 C1040 0.931 . S
H1057 C1045 0.929 . S
H1058 C1046 0.960 . S
H1059 C1046 0.962 . S
H1060 C1046 0.960 . S
H1061 C1047 0.961 . S
H1062 C1047 0.961 . S
H1063 C1047 0.961 . S
H1064 C1048 0.931 . S
H1065 C1053 0.930 . S
H1066 C1054 0.956 . S
H1067 C1054 0.961 . S
H1068 C1054 0.961 . S
H1069 C1055 0.958 . S
H1070 C1055 0.961 . S
H1071 C1055 0.960 . S
C1072 C1073 1.391 . S
C1072 C1074 1.394 . S
C1072 H1088 0.931 . S
C1073 C1072 1.391 . S
C1073 C1077 1.376 . S
C1074 C1072 1.394 . S
C1074 C1075 1.369 . S
C1074 C1078 1.531 . S
C1075 C1074 1.369 . S
C1075 C1076 1.410 . S
C1075 C1083 1.503 . S
C1076 C1075 1.410 . S
C1076 C1077 1.392 . S
C1076 C1079 1.511 . S
C1077 C1073 1.376 . S
C1077 C1076 1.392 . S
C1077 H1089 0.929 . S
C1078 C1074 1.531 . S
C1078 H1090 0.960 . S
C1078 H1091 0.962 . S
C1078 H1092 0.960 . S
C1079 C1076 1.511 . S
C1079 H1093 0.961 . S
C1079 H1094 0.961 . S
C1079 H1095 0.961 . S
C1080 C1081 1.370 . S
C1080 C1082 1.363 . S
C1080 H1096 0.931 . S
C1081 C1080 1.370 . S
C1081 C1085 1.408 . S
C1082 C1080 1.363 . S
C1082 C1083 1.370 . S
C1082 C1086 1.524 . S
C1083 C1075 1.503 . S
C1083 C1082 1.370 . S
C1083 C1084 1.403 . S
C1084 C1083 1.403 . S
C1084 C1085 1.404 . S
C1084 C1087 1.539 . S
C1085 C1081 1.408 . S
C1085 C1084 1.404 . S
C1085 H1097 0.930 . S
C1086 C1082 1.524 . S
C1086 H1098 0.956 . S
C1086 H1099 0.961 . S
C1086 H1100 0.961 . S
C1087 C1084 1.539 . S
C1087 H1101 0.958 . S
C1087 H1102 0.961 . S
C1087 H1103 0.960 . S
H1088 C1072 0.931 . S
H1089 C1077 0.929 . S
H1090 C1078 0.960 . S
H1091 C1078 0.962 . S
H1092 C1078 0.960 . S
H1093 C1079 0.961 . S
H1094 C1079 0.961 . S
H1095 C1079 0.961 . S
H1096 C1080 0.931 . S
H1097 C1085 0.930 . S
H1098 C1086 0.956 . S
H1099 C1086 0.961 . S
H1100 C1086 0.961 . S
H1101 C1087 0.958 . S
H1102 C1087 0.961 . S
H1103 C1087 0.960 . S
C1104 C1105 1.391 . S
C1104 C1106 1.394 . S
C1104 H1120 0.931 . S
C1105 C1104 1.391 . S
C1105 C1109 1.376 . S
C1106 C1104 1.394 . S
C1106 C1107 1.369 . S
C1106 C1110 1.531 . S
C1107 C1106 1.369 . S
C1107 C1108 1.410 . S
C1107 C1115 1.503 . S
C1108 C1107 1.410 . S
C1108 C1109 1.392 . S
C1108 C1111 1.511 . S
C1109 C1105 1.376 . S
C1109 C1108 1.392 . S
C1109 H1121 0.929 . S
C1110 C1106 1.531 . S
C1110 H1122 0.960 . S
C1110 H1123 0.962 . S
C1110 H1124 0.960 . S
C1111 C1108 1.511 . S
C1111 H1125 0.961 . S
C1111 H1126 0.961 . S
C1111 H1127 0.961 . S
C1112 C1113 1.370 . S
C1112 C1114 1.363 . S
C1112 H1128 0.931 . S
C1113 C1112 1.370 . S
C1113 C1117 1.408 . S
C1114 C1112 1.363 . S
C1114 C1115 1.370 . S
C1114 C1118 1.524 . S
C1115 C1107 1.503 . S
C1115 C1114 1.370 . S
C1115 C1116 1.403 . S
C1116 C1115 1.403 . S
C1116 C1117 1.404 . S
C1116 C1119 1.539 . S
C1117 C1113 1.408 . S
C1117 C1116 1.404 . S
C1117 H1129 0.930 . S
C1118 C1114 1.524 . S
C1118 H1130 0.956 . S
C1118 H1131 0.961 . S
C1118 H1132 0.961 . S
C1119 C1116 1.539 . S
C1119 H1133 0.958 . S
C1119 H1134 0.961 . S
C1119 H1135 0.960 . S
H1120 C1104 0.931 . S
H1121 C1109 0.929 . S
H1122 C1110 0.960 . S
H1123 C1110 0.962 . S
H1124 C1110 0.960 . S
H1125 C1111 0.961 . S
H1126 C1111 0.961 . S
H1127 C1111 0.961 . S
H1128 C1112 0.931 . S
H1129 C1117 0.930 . S
H1130 C1118 0.956 . S
H1131 C1118 0.961 . S
H1132 C1118 0.961 . S
H1133 C1119 0.958 . S
H1134 C1119 0.961 . S
H1135 C1119 0.960 . S
C1136 C1137 1.391 . S
C1136 C1138 1.394 . S
C1136 H1152 0.931 . S
C1137 C1136 1.391 . S
C1137 C1141 1.376 . S
C1138 C1136 1.394 . S
C1138 C1139 1.369 . S
C1138 C1142 1.531 . S
C1139 C1138 1.369 . S
C1139 C1140 1.410 . S
C1139 C1147 1.503 . S
C1140 C1139 1.410 . S
C1140 C1141 1.392 . S
C1140 C1143 1.511 . S
C1141 C1137 1.376 . S
C1141 C1140 1.392 . S
C1141 H1153 0.929 . S
C1142 C1138 1.531 . S
C1142 H1154 0.960 . S
C1142 H1155 0.962 . S
C1142 H1156 0.960 . S
C1143 C1140 1.511 . S
C1143 H1157 0.961 . S
C1143 H1158 0.961 . S
C1143 H1159 0.961 . S
C1144 C1145 1.370 . S
C1144 C1146 1.363 . S
C1144 H1160 0.931 . S
C1145 C1144 1.370 . S
C1145 C1149 1.408 . S
C1146 C1144 1.363 . S
C1146 C1147 1.370 . S
C1146 C1150 1.524 . S
C1147 C1139 1.503 . S
C1147 C1146 1.370 . S
C1147 C1148 1.403 . S
C1148 C1147 1.403 . S
C1148 C1149 1.404 . S
C1148 C1151 1.539 . S
C1149 C1145 1.408 . S
C1149 C1148 1.404 . S
C1149 H1161 0.930 . S
C1150 C1146 1.524 . S
C1150 H1162 0.956 . S
C1150 H1163 0.961 . S
C1150 H1164 0.961 . S
C1151 C1148 1.539 . S
C1151 H1165 0.958 . S
C1151 H1166 0.961 . S
C1151 H1167 0.960 . S
H1152 C1136 0.931 . S
H1153 C1141 0.929 . S
H1154 C1142 0.960 . S
H1155 C1142 0.962 . S
H1156 C1142 0.960 . S
H1157 C1143 0.961 . S
H1158 C1143 0.961 . S
H1159 C1143 0.961 . S
H1160 C1144 0.931 . S
H1161 C1149 0.930 . S
H1162 C1150 0.956 . S
H1163 C1150 0.961 . S
H1164 C1150 0.961 . S
H1165 C1151 0.958 . S
H1166 C1151 0.961 . S
H1167 C1151 0.960 . S
C1168 C1169 1.391 . S
C1168 C1170 1.394 . S
C1168 H1184 0.931 . S
C1169 C1168 1.391 . S
C1169 C1173 1.376 . S
C1170 C1168 1.394 . S
C1170 C1171 1.369 . S
C1170 C1174 1.531 . S
C1171 C1170 1.369 . S
C1171 C1172 1.410 . S
C1171 C1179 1.503 . S
C1172 C1171 1.410 . S
C1172 C1173 1.392 . S
C1172 C1175 1.511 . S
C1173 C1169 1.376 . S
C1173 C1172 1.392 . S
C1173 H1185 0.929 . S
C1174 C1170 1.531 . S
C1174 H1186 0.960 . S
C1174 H1187 0.962 . S
C1174 H1188 0.960 . S
C1175 C1172 1.511 . S
C1175 H1189 0.961 . S
C1175 H1190 0.961 . S
C1175 H1191 0.961 . S
C1176 C1177 1.370 . S
C1176 C1178 1.363 . S
C1176 H1192 0.931 . S
C1177 C1176 1.370 . S
C1177 C1181 1.408 . S
C1178 C1176 1.363 . S
C1178 C1179 1.370 . S
C1178 C1182 1.524 . S
C1179 C1171 1.503 . S
C1179 C1178 1.370 . S
C1179 C1180 1.403 . S
C1180 C1179 1.403 . S
C1180 C1181 1.404 . S
C1180 C1183 1.539 . S
C1181 C1177 1.408 . S
C1181 C1180 1.404 . S
C1181 H1193 0.930 . S
C1182 C1178 1.524 . S
C1182 H1194 0.956 . S
C1182 H1195 0.961 . S
C1182 H1196 0.961 . S
C1183 C1180 1.539 . S
C1183 H1197 0.958 . S
C1183 H1198 0.961 . S
C1183 H1199 0.960 . S
H1184 C1168 0.931 . S
H1185 C1173 0.929 . S
H1186 C1174 0.960 . S
H1187 C1174 0.962 . S
H1188 C1174 0.960 . S
H1189 C1175 0.961 . S
H1190 C1175 0.961 . S
H1191 C1175 0.961 . S
H1192 C1176 0.931 . S
H1193 C1181 0.930 . S
H1194 C1182 0.956 . S
H1195 C1182 0.961 . S
H1196 C1182 0.961 . S
H1197 C1183 0.958 . S
H1198 C1183 0.961 . S
H1199 C1183 0.960 . S
C1200 C1201 1.391 . S
C1200 C1202 1.394 . S
C1200 H1216 0.931 . S
C1201 C1200 1.391 . S
C1201 C1205 1.376 . S
C1202 C1200 1.394 . S
C1202 C1203 1.369 . S
C1202 C1206 1.531 . S
C1203 C1202 1.369 . S
C1203 C1204 1.410 . S
C1203 C1211 1.503 . S
C1204 C1203 1.410 . S
C1204 C1205 1.392 . S
C1204 C1207 1.511 . S
C1205 C1201 1.376 . S
C1205 C1204 1.392 . S
C1205 H1217 0.929 . S
C1206 C1202 1.531 . S
C1206 H1218 0.960 . S
C1206 H1219 0.962 . S
C1206 H1220 0.960 . S
C1207 C1204 1.511 . S
C1207 H1221 0.961 . S
C1207 H1222 0.961 . S
C1207 H1223 0.961 . S
C1208 C1209 1.370 . S
C1208 C1210 1.363 . S
C1208 H1224 0.931 . S
C1209 C1208 1.370 . S
C1209 C1213 1.408 . S
C1210 C1208 1.363 . S
C1210 C1211 1.370 . S
C1210 C1214 1.524 . S
C1211 C1203 1.503 . S
C1211 C1210 1.370 . S
C1211 C1212 1.403 . S
C1212 C1211 1.403 . S
C1212 C1213 1.404 . S
C1212 C1215 1.539 . S
C1213 C1209 1.408 . S
C1213 C1212 1.404 . S
C1213 H1225 0.930 . S
C1214 C1210 1.524 . S
C1214 H1226 0.956 . S
C1214 H1227 0.961 . S
C1214 H1228 0.961 . S
C1215 C1212 1.539 . S
C1215 H1229 0.958 . S
C1215 H1230 0.961 . S
C1215 H1231 0.960 . S
H1216 C1200 0.931 . S
H1217 C1205 0.929 . S
H1218 C1206 0.960 . S
H1219 C1206 0.962 . S
H1220 C1206 0.960 . S
H1221 C1207 0.961 . S
H1222 C1207 0.961 . S
H1223 C1207 0.961 . S
H1224 C1208 0.931 . S
H1225 C1213 0.930 . S
H1226 C1214 0.956 . S
H1227 C1214 0.961 . S
H1228 C1214 0.961 . S
H1229 C1215 0.958 . S
H1230 C1215 0.961 . S
H1231 C1215 0.960 . S
C1232 C1233 1.391 . S
C1232 C1234 1.394 . S
C1232 H1248 0.931 . S
C1233 C1232 1.391 . S
C1233 C1237 1.376 . S
C1234 C1232 1.394 . S
C1234 C1235 1.369 . S
C1234 C1238 1.531 . S
C1235 C1234 1.369 . S
C1235 C1236 1.410 . S
C1235 C1243 1.503 . S
C1236 C1235 1.410 . S
C1236 C1237 1.392 . S
C1236 C1239 1.511 . S
C1237 C1233 1.376 . S
C1237 C1236 1.392 . S
C1237 H1249 0.929 . S
C1238 C1234 1.531 . S
C1238 H1250 0.960 . S
C1238 H1251 0.962 . S
C1238 H1252 0.960 . S
C1239 C1236 1.511 . S
C1239 H1253 0.961 . S
C1239 H1254 0.961 . S
C1239 H1255 0.961 . S
C1240 C1241 1.370 . S
C1240 C1242 1.363 . S
C1240 H1256 0.931 . S
C1241 C1240 1.370 . S
C1241 C1245 1.408 . S
C1242 C1240 1.363 . S
C1242 C1243 1.370 . S
C1242 C1246 1.524 . S
C1243 C1235 1.503 . S
C1243 C1242 1.370 . S
C1243 C1244 1.403 . S
C1244 C1243 1.403 . S
C1244 C1245 1.404 . S
C1244 C1247 1.539 . S
C1245 C1241 1.408 . S
C1245 C1244 1.404 . S
C1245 H1257 0.930 . S
C1246 C1242 1.524 . S
C1246 H1258 0.956 . S
C1246 H1259 0.961 . S
C1246 H1260 0.961 . S
C1247 C1244 1.539 . S
C1247 H1261 0.958 . S
C1247 H1262 0.961 . S
C1247 H1263 0.960 . S
H1248 C1232 0.931 . S
H1249 C1237 0.929 . S
H1250 C1238 0.960 . S
H1251 C1238 0.962 . S
H1252 C1238 0.960 . S
H1253 C1239 0.961 . S
H1254 C1239 0.961 . S
H1255 C1239 0.961 . S
H1256 C1240 0.931 . S
H1257 C1245 0.930 . S
H1258 C1246 0.956 . S
H1259 C1246 0.961 . S
H1260 C1246 0.961 . S
H1261 C1247 0.958 . S
H1262 C1247 0.961 . S
H1263 C1247 0.960 . S
C1264 C1265 1.391 . S
C1264 C1266 1.394 . S
C1264 H1280 0.931 . S
C1265 C1264 1.391 . S
C1265 C1269 1.376 . S
C1266 C1264 1.394 . S
C1266 C1267 1.369 . S
C1266 C1270 1.531 . S
C1267 C1266 1.369 . S
C1267 C1268 1.410 . S
C1267 C1275 1.503 . S
C1268 C1267 1.410 . S
C1268 C1269 1.392 . S
C1268 C1271 1.511 . S
C1269 C1265 1.376 . S
C1269 C1268 1.392 . S
C1269 H1281 0.929 . S
C1270 C1266 1.531 . S
C1270 H1282 0.960 . S
C1270 H1283 0.962 . S
C1270 H1284 0.960 . S
C1271 C1268 1.511 . S
C1271 H1285 0.961 . S
C1271 H1286 0.961 . S
C1271 H1287 0.961 . S
C1272 C1273 1.370 . S
C1272 C1274 1.363 . S
C1272 H1288 0.931 . S
C1273 C1272 1.370 . S
C1273 C1277 1.408 . S
C1274 C1272 1.363 . S
C1274 C1275 1.370 . S
C1274 C1278 1.524 . S
C1275 C1267 1.503 . S
C1275 C1274 1.370 . S
C1275 C1276 1.403 . S
C1276 C1275 1.403 . S
C1276 C1277 1.404 . S
C1276 C1279 1.539 . S
C1277 C1273 1.408 . S
C1277 C1276 1.404 . S
C1277 H1289 0.930 . S
C1278 C1274 1.524 . S
C1278 H1290 0.956 . S
C1278 H1291 0.961 . S
C1278 H1292 0.961 . S
C1279 C1276 1.539 . S
C1279 H1293 0.958 . S
C1279 H1294 0.961 . S
C1279 H1295 0.960 . S
H1280 C1264 0.931 . S
H1281 C1269 0.929 . S
H1282 C1270 0.960 . S
H1283 C1270 0.962 . S
H1284 C1270 0.960 . S
H1285 C1271 0.961 . S
H1286 C1271 0.961 . S
H1287 C1271 0.961 . S
H1288 C1272 0.931 . S
H1289 C1277 0.930 . S
H1290 C1278 0.956 . S
H1291 C1278 0.961 . S
H1292 C1278 0.961 . S
H1293 C1279 0.958 . S
H1294 C1279 0.961 . S
H1295 C1279 0.960 . S
C1296 C1297 1.391 . S
C1296 C1298 1.394 . S
C1296 H1312 0.931 . S
C1297 C1296 1.391 . S
C1297 C1301 1.376 . S
C1298 C1296 1.394 . S
C1298 C1299 1.369 . S
C1298 C1302 1.531 . S
C1299 C1298 1.369 . S
C1299 C1300 1.410 . S
C1299 C1307 1.503 . S
C1300 C1299 1.410 . S
C1300 C1301 1.392 . S
C1300 C1303 1.511 . S
C1301 C1297 1.376 . S
C1301 C1300 1.392 . S
C1301 H1313 0.929 . S
C1302 C1298 1.531 . S
C1302 H1314 0.960 . S
C1302 H1315 0.962 . S
C1302 H1316 0.960 . S
C1303 C1300 1.511 . S
C1303 H1317 0.961 . S
C1303 H1318 0.961 . S
C1303 H1319 0.961 . S
C1304 C1305 1.370 . S
C1304 C1306 1.363 . S
C1304 H1320 0.931 . S
C1305 C1304 1.370 . S
C1305 C1309 1.408 . S
C1306 C1304 1.363 . S
C1306 C1307 1.370 . S
C1306 C1310 1.524 . S
C1307 C1299 1.503 . S
C1307 C1306 1.370 . S
C1307 C1308 1.403 . S
C1308 C1307 1.403 . S
C1308 C1309 1.404 . S
C1308 C1311 1.539 . S
C1309 C1305 1.408 . S
C1309 C1308 1.404 . S
C1309 H1321 0.930 . S
C1310 C1306 1.524 . S
C1310 H1322 0.956 . S
C1310 H1323 0.961 . S
C1310 H1324 0.961 . S
C1311 C1308 1.539 . S
C1311 H1325 0.958 . S
C1311 H1326 0.961 . S
C1311 H1327 0.960 . S
H1312 C1296 0.931 . S
H1313 C1301 0.929 . S
H1314 C1302 0.960 . S
H1315 C1302 0.962 . S
H1316 C1302 0.960 . S
H1317 C1303 0.961 . S
H1318 C1303 0.961 . S
H1319 C1303 0.961 . S
H1320 C1304 0.931 . S
H1321 C1309 0.930 . S
H1322 C1310 0.956 . S
H1323 C1310 0.961 . S
H1324 C1310 0.961 . S
H1325 C1311 0.958 . S
H1326 C1311 0.961 . S
H1327 C1311 0.960 . S
C1328 C1329 1.391 . S
C1328 C1330 1.394 . S
C1328 H1344 0.931 . S
C1329 C1328 1.391 . S
C1329 C1333 1.376 . S
C1330 C1328 1.394 . S
C1330 C1331 1.369 . S
C1330 C1334 1.531 . S
C1331 C1330 1.369 . S
C1331 C1332 1.410 . S
C1331 C1339 1.503 . S
C1332 C1331 1.410 . S
C1332 C1333 1.392 . S
C1332 C1335 1.511 . S
C1333 C1329 1.376 . S
C1333 C1332 1.392 . S
C1333 H1345 0.929 . S
C1334 C1330 1.531 . S
C1334 H1346 0.960 . S
C1334 H1347 0.962 . S
C1334 H1348 0.960 . S
C1335 C1332 1.511 . S
C1335 H1349 0.961 . S
C1335 H1350 0.961 . S
C1335 H1351 0.961 . S
C1336 C1337 1.370 . S
C1336 C1338 1.363 . S
C1336 H1352 0.931 . S
C1337 C1336 1.370 . S
C1337 C1341 1.408 . S
C1338 C1336 1.363 . S
C1338 C1339 1.370 . S
C1338 C1342 1.524 . S
C1339 C1331 1.503 . S
C1339 C1338 1.370 . S
C1339 C1340 1.403 . S
C1340 C1339 1.403 . S
C1340 C1341 1.404 . S
C1340 C1343 1.539 . S
C1341 C1337 1.408 . S
C1341 C1340 1.404 . S
C1341 H1353 0.930 . S
C1342 C1338 1.524 . S
C1342 H1354 0.956 . S
C1342 H1355 0.961 . S
C1342 H1356 0.961 . S
C1343 C1340 1.539 . S
C1343 H1357 0.958 . S
C1343 H1358 0.961 . S
C1343 H1359 0.960 . S
H1344 C1328 0.931 . S
H1345 C1333 0.929 . S
H1346 C1334 0.960 . S
H1347 C1334 0.962 . S
H1348 C1334 0.960 . S
H1349 C1335 0.961 . S
H1350 C1335 0.961 . S
H1351 C1335 0.961 . S
H1352 C1336 0.931 . S
H1353 C1341 0.930 . S
H1354 C1342 0.956 . S
H1355 C1342 0.961 . S
H1356 C1342 0.961 . S
H1357 C1343 0.958 . S
H1358 C1343 0.961 . S
H1359 C1343 0.960 . S
C1360 C1361 1.391 . S
C1360 C1362 1.394 . S
C1360 H1376 0.931 . S
C1361 C1360 1.391 . S
C1361 C1365 1.376 . S
C1362 C1360 1.394 . S
C1362 C1363 1.369 . S
C1362 C1366 1.531 . S
C1363 C1362 1.369 . S
C1363 C1364 1.410 . S
C1363 C1371 1.503 . S
C1364 C1363 1.410 . S
C1364 C1365 1.392 . S
C1364 C1367 1.511 . S
C1365 C1361 1.376 . S
C1365 C1364 1.392 . S
C1365 H1377 0.929 . S
C1366 C1362 1.531 . S
C1366 H1378 0.960 . S
C1366 H1379 0.962 . S
C1366 H1380 0.960 . S
C1367 C1364 1.511 . S
C1367 H1381 0.961 . S
C1367 H1382 0.961 . S
C1367 H1383 0.961 . S
C1368 C1369 1.370 . S
C1368 C1370 1.363 . S
C1368 H1384 0.931 . S
C1369 C1368 1.370 . S
C1369 C1373 1.408 . S
C1370 C1368 1.363 . S
C1370 C1371 1.370 . S
C1370 C1374 1.524 . S
C1371 C1363 1.503 . S
C1371 C1370 1.370 . S
C1371 C1372 1.403 . S
C1372 C1371 1.403 . S
C1372 C1373 1.404 . S
C1372 C1375 1.539 . S
C1373 C1369 1.408 . S
C1373 C1372 1.404 . S
C1373 H1385 0.930 . S
C1374 C1370 1.524 . S
C1374 H1386 0.956 . S
C1374 H1387 0.961 . S
C1374 H1388 0.961 . S
C1375 C1372 1.539 . S
C1375 H1389 0.958 . S
C1375 H1390 0.961 . S
C1375 H1391 0.960 . S
H1376 C1360 0.931 . S
H1377 C1365 0.929 . S
H1378 C1366 0.960 . S
H1379 C1366 0.962 . S
H1380 C1366 0.960 . S
H1381 C1367 0.961 . S
H1382 C1367 0.961 . S
H1383 C1367 0.961 . S
H1384 C1368 0.931 . S
H1385 C1373 0.930 . S
H1386 C1374 0.956 . S
H1387 C1374 0.961 . S
H1388 C1374 0.961 . S
H1389 C1375 0.958 . S
H1390 C1375 0.961 . S
H1391 C1375 0.960 . S
C241 C45 2.052 1_455 S
C249 C8 1.746 . S
C273 C65 2.049 1_565 S
C281 C28 1.720 . S
C305 C48 1.775 . S
C313 C85 2.049 . S
C337 C68 1.687 . S
C345 C105 2.051 1_455 S
C369 C5 2.050 1_565 S
C377 C88 1.726 . S
C401 C25 2.038 . S
C409 C108 1.740 . S
C433 C205 2.047 1_545 S
C441 C128 1.719 . S
C465 C148 1.688 . S
C473 C225 2.050 . S
C497 C168 1.748 . S
C505 C125 2.052 1_655 S
C529 C188 1.760 . S
C537 C145 2.048 1_545 S
C561 C208 1.701 . S
C569 C165 2.049 . S
C593 C185 2.039 1_655 S
C601 C228 1.726 . S
C625 C62 1.819 . S
C633 C2 1.838 . S
C657 C22 1.831 . S
C665 C82 1.844 . S
C689 C42 1.847 . S
C697 C102 1.846 . S
C721 C122 1.842 . S
C729 C182 1.848 . S
C753 C142 1.847 . S
C761 C202 1.847 . S
C785 C162 1.824 . S
C793 C222 1.838 . S
C817 C153 1.920 . S
C825 C13 1.896 . S
C849 C33 1.892 . S
C857 C173 1.918 . S
C881 C193 1.905 . S
C889 C53 1.897 . S
C913 C73 1.882 . S
C921 C213 1.916 . S
C945 C93 1.902 . S
C953 C233 1.897 . S
C977 C133 1.921 . S
C985 C113 1.897 . S
C1009 C57 1.801 . S
C1017 C14 1.898 . S
C1041 C34 1.880 . S
C1049 C77 1.774 . S
C1073 C54 1.876 . S
C1081 C97 1.757 . S
C1105 C74 1.896 . S
C1113 C117 1.786 . S
C1137 C17 1.804 . S
C1145 C94 1.900 . S
C1169 C37 1.763 . S
C1177 C114 1.898 . S
C1201 C217 1.778 . S
C1209 C134 1.891 . S
C1233 C154 1.893 . S
C1241 C237 1.769 . S
C1265 C174 1.904 . S
C1273 C137 1.786 . S
C1297 C157 1.803 . S
C1305 C194 1.899 . S
C1329 C214 1.874 . S
C1337 C177 1.765 . S
C1361 C234 1.875 . S
C1369 C197 1.756 . S
