# Generated by pormake.
# Topology snk, (6)-cn, num edge types: 1
# Building blocks:
#     Node 0, Type 0, BuildingBlock: UKALOJ_clean_sbu_0, # of connection points: 6
#     Node 1, Type 0, BuildingBlock: UKALOJ_clean_sbu_0, # of connection points: 6
#     Node 2, Type 0, BuildingBlock: UKALOJ_clean_sbu_0, # of connection points: 6
#     Node 3, Type 0, BuildingBlock: UKALOJ_clean_sbu_0, # of connection points: 6
#     Node 4, Type 0, BuildingBlock: UKALOJ_clean_sbu_0, # of connection points: 6
#     Node 5, Type 0, BuildingBlock: UKALOJ_clean_sbu_0, # of connection points: 6
#     Node 6, Type 0, BuildingBlock: UKALOJ_clean_sbu_0, # of connection points: 6
#     Node 7, Type 0, BuildingBlock: UKALOJ_clean_sbu_0, # of connection points: 6
#     Edge 8, Type (0, 0), BuildingBlock: TEMPAE_clean_linker_10, # of connection points: 2
#     Edge 9, Type (0, 0), BuildingBlock: TEMPAE_clean_linker_10, # of connection points: 2
#     Edge 10, Type (0, 0), BuildingBlock: TEMPAE_clean_linker_10, # of connection points: 2
#     Edge 11, Type (0, 0), BuildingBlock: TEMPAE_clean_linker_10, # of connection points: 2
#     Edge 12, Type (0, 0), BuildingBlock: TEMPAE_clean_linker_10, # of connection points: 2
#     Edge 13, Type (0, 0), BuildingBlock: TEMPAE_clean_linker_10, # of connection points: 2
#     Edge 14, Type (0, 0), BuildingBlock: TEMPAE_clean_linker_10, # of connection points: 2
#     Edge 15, Type (0, 0), BuildingBlock: TEMPAE_clean_linker_10, # of connection points: 2
#     Edge 16, Type (0, 0), BuildingBlock: TEMPAE_clean_linker_10, # of connection points: 2
#     Edge 17, Type (0, 0), BuildingBlock: TEMPAE_clean_linker_10, # of connection points: 2
#     Edge 18, Type (0, 0), BuildingBlock: TEMPAE_clean_linker_10, # of connection points: 2
#     Edge 19, Type (0, 0), BuildingBlock: TEMPAE_clean_linker_10, # of connection points: 2
#     Edge 20, Type (0, 0), BuildingBlock: TEMPAE_clean_linker_10, # of connection points: 2
#     Edge 21, Type (0, 0), BuildingBlock: TEMPAE_clean_linker_10, # of connection points: 2
#     Edge 22, Type (0, 0), BuildingBlock: TEMPAE_clean_linker_10, # of connection points: 2
#     Edge 23, Type (0, 0), BuildingBlock: TEMPAE_clean_linker_10, # of connection points: 2
#     Edge 24, Type (0, 0), BuildingBlock: TEMPAE_clean_linker_10, # of connection points: 2
#     Edge 25, Type (0, 0), BuildingBlock: TEMPAE_clean_linker_10, # of connection points: 2
#     Edge 26, Type (0, 0), BuildingBlock: TEMPAE_clean_linker_10, # of connection points: 2
#     Edge 27, Type (0, 0), BuildingBlock: TEMPAE_clean_linker_10, # of connection points: 2
#     Edge 28, Type (0, 0), BuildingBlock: TEMPAE_clean_linker_10, # of connection points: 2
#     Edge 29, Type (0, 0), BuildingBlock: TEMPAE_clean_linker_10, # of connection points: 2
#     Edge 30, Type (0, 0), BuildingBlock: TEMPAE_clean_linker_10, # of connection points: 2
#     Edge 31, Type (0, 0), BuildingBlock: TEMPAE_clean_linker_10, # of connection points: 2
# Relax obj value: 0.133
# Max RMSD: 0.103
# Mean RMSD: 0.094
data_MOF--net-snk--node1-UKALOJ_clean_sbu_0--edge1-TEMPAE_clean_linker_10
_symmetry_space_group_name_H-M    P1
_symmetry_Int_Tables_number       1
_symmetry_cell_setting            triclinic
loop_
_symmetry_equiv_pos_as_xyz
'x, y, z'
_cell_length_a     48.024235
_cell_length_b     48.110612
_cell_length_c     15.552262
_cell_angle_alpha  81.251691
_cell_angle_beta   81.350813
_cell_angle_gamma 93.750608
loop_
_atom_site_label
_atom_site_type_symbol
_atom_site_fract_x
_atom_site_fract_y
_atom_site_fract_z
_atom_type_partial_charge
Zn0 Zn 0.04897 1.01514 0.49132 0.0
O1 O 0.05054 1.01691 0.62641 0.0
C2 C 0.98885 0.98629 0.53663 0.0
Zn3 Zn 1.01722 0.04699 0.49467 0.0
C4 C 0.03392 0.03131 0.66929 0.0
O5 O 1.01701 0.04584 0.63029 0.0
C6 C 0.03215 0.03072 0.31685 0.0
O7 O 0.05156 0.08133 0.46555 0.0
O8 O 0.08261 0.05014 0.45241 0.0
N9 N 0.98687 0.07515 0.49869 0.0
C10 C 0.98078 0.09666 0.43991 0.0
C11 C 0.94976 0.09303 0.55533 0.0
N12 N 0.96756 0.07302 0.57027 0.0
N13 N 0.95743 0.10817 0.47384 0.0
C14 C 0.08401 0.96512 0.55078 0.0
C15 C 0.11493 0.96625 0.43646 0.0
N16 N 0.0789 0.98643 0.48948 0.0
N17 N 0.09815 0.98703 0.41856 0.0
N18 N 0.10665 0.95218 0.51919 0.0
H19 H 0.07458 0.9676 0.68804 0.0
H20 H 0.06584 0.9332 0.66165 0.0
H21 H 0.04396 0.9616 0.63788 0.0
C22 C 0.06595 0.95625 0.63944 0.0
C23 C 0.99857 0.10709 0.35172 0.0
H24 H 1.02093 0.10297 0.3532 0.0
H25 H 0.9973 0.13005 0.3316 0.0
H26 H 0.99078 0.0957 0.30186 0.0
O27 O 1.0178 0.04741 0.35758 0.0
O28 O 0.04699 1.01404 0.35774 0.0
C29 C 0.07734 0.07596 0.44849 0.0
O30 O 1.0147 0.98088 0.52667 0.0
O31 O 0.9835 1.01212 0.52635 0.0
Zn32 Zn 0.26225 0.75946 0.7762 0.0
O33 O 0.22696 0.78417 0.77106 0.0
C34 C 0.28143 0.77329 0.58133 0.0
Zn35 Zn 0.2946 0.79537 0.73845 0.0
C36 C 0.23367 0.81029 0.74214 0.0
O37 O 0.25966 0.81934 0.72477 0.0
C38 C 0.32347 0.74479 0.77087 0.0
O39 O 0.2906 0.79969 0.87518 0.0
O40 O 0.26101 0.76165 0.90982 0.0
N41 N 0.31941 0.8318 0.70141 0.0
C42 C 0.33663 0.84503 0.74555 0.0
C43 C 0.32917 0.87513 0.63776 0.0
N44 N 0.31512 0.85035 0.63347 0.0
N45 N 0.34287 0.87218 0.70742 0.0
C46 C 0.2187 0.71048 0.77149 0.0
C47 C 0.22843 0.67925 0.87239 0.0
N48 N 0.23728 0.72302 0.81295 0.0
N49 N 0.24289 0.70376 0.87698 0.0
N50 N 0.21293 0.68302 0.80706 0.0
H51 H 0.20923 0.7471 0.68527 0.0
H52 H 0.1871 0.71501 0.68714 0.0
H53 H 0.22285 0.71904 0.63071 0.0
C54 C 0.20887 0.7239 0.68909 0.0
C55 C 0.34566 0.83229 0.83006 0.0
H56 H 0.33097 0.83726 0.88674 0.0
H57 H 0.36713 0.84159 0.83386 0.0
H58 H 0.34568 0.80908 0.8354 0.0
O59 O 0.32956 0.77132 0.75108 0.0
O60 O 0.29772 0.73501 0.78143 0.0
C61 C 0.27542 0.78126 0.93358 0.0
O62 O 0.26375 0.75724 0.63978 0.0
O63 O 0.29834 0.79099 0.6045 0.0
Zn64 Zn 0.56002 0.05716 0.94543 0.0
O65 O 0.53589 0.09308 0.9509 0.0
C66 C 0.54902 0.04007 0.13871 0.0
Zn67 Zn 0.52359 1.0254 -0.01538 0.0
C68 C 0.50962 0.08657 0.97908 0.0
O69 O 0.50036 0.06069 -0.00399 0.0
C70 C 0.57341 0.99545 0.95307 0.0
O71 O 0.51668 0.02697 0.8501 0.0
O72 O 0.55486 0.05649 0.81443 0.0
N73 N 0.48746 1.00117 0.03462 0.0
C74 C 0.47269 0.9814 0.00368 0.0
C75 C 0.44705 0.99037 0.11885 0.0
N76 N 0.47173 1.00647 0.10691 0.0
N77 N 0.4474 0.97418 0.05559 0.0
C78 C 0.61194 0.09952 0.93186 0.0
C79 C 0.63907 0.088 0.8242 0.0
N80 N 0.59664 0.08123 0.89673 0.0
N81 N 0.61331 0.0746 0.82837 0.0
N82 N 0.63876 0.10391 0.88832 0.0
H83 H 0.57862 0.11047 0.02694 0.0
H84 H 0.61202 0.1315 0.0147 0.0
H85 H 0.60813 0.09584 0.07207 0.0
C86 C 0.60192 0.10999 0.01621 0.0
C87 C 0.48154 0.97156 0.91752 0.0
H88 H 0.50489 0.97302 0.90053 0.0
H89 H 0.47301 0.98501 0.86487 0.0
H90 H 0.47286 0.94943 0.92034 0.0
O91 O 0.54681 0.98993 0.9741 0.0
O92 O 0.58374 1.02104 0.94058 0.0
C93 C 0.53518 0.04198 0.79129 0.0
O94 O 0.56531 0.05734 0.07964 0.0
O95 O 0.5306 1.02384 0.11594 0.0
Zn96 Zn 0.29958 0.26498 0.23744 0.0
O97 O 0.29992 0.26615 0.10011 0.0
C98 C 0.32802 0.32534 0.19333 0.0
Zn99 Zn 0.26749 0.29655 0.23419 0.0
C100 C 0.2831 0.28035 0.05944 0.0
O101 O 0.26621 0.2949 0.10052 0.0
C102 C 0.28384 0.2811 0.41227 0.0
O103 O 0.23347 0.26202 0.26961 0.0
O104 O 0.26485 0.23088 0.26828 0.0
N105 N 0.23872 0.32635 0.232 0.0
C106 C 0.2173 0.33181 0.29226 0.0
C107 C 0.219 0.3624 0.17672 0.0
N108 N 0.23967 0.34541 0.16039 0.0
N109 N 0.20461 0.35447 0.25917 0.0
C110 C 0.35119 0.23192 0.17691 0.0
C111 C 0.34935 0.19924 0.28712 0.0
N112 N 0.32896 0.23558 0.23738 0.0
N113 N 0.32793 0.21523 0.30574 0.0
N114 N 0.36429 0.20913 0.20644 0.0
H115 H 0.35054 0.24363 0.03912 0.0
H116 H 0.38406 0.25233 0.07185 0.0
H117 H 0.35471 0.27305 0.09565 0.0
C118 C 0.36078 0.25148 0.09127 0.0
C119 C 0.20813 0.31406 0.38123 0.0
H120 H 0.21342 0.29204 0.38048 0.0
H121 H 0.18503 0.31413 0.40267 0.0
H122 H 0.21942 0.32278 0.42983 0.0
O123 O 0.2694 0.29774 0.36931 0.0
O124 O 0.29843 0.26422 0.37335 0.0
C125 C 0.23893 0.23621 0.27915 0.0
O126 O 0.33343 0.29964 0.2104 0.0
O127 O 0.30218 0.33049 0.19597 0.0
Zn128 Zn 0.75726 0.25477 0.28607 0.0
O129 O 0.72086 0.27819 0.28115 0.0
C130 C 0.77477 0.2664 0.09239 0.0
Zn131 Zn 0.78899 0.29124 0.247 0.0
C132 C 0.72728 0.30441 0.25275 0.0
O133 O 0.75318 0.31374 0.23565 0.0
C134 C 0.81945 0.24214 0.27838 0.0
O135 O 0.78678 0.29758 0.38212 0.0
O136 O 0.75747 0.25929 0.41759 0.0
N137 N 0.81239 0.32807 0.19933 0.0
C138 C 0.83041 0.34362 0.2346 0.0
C139 C 0.8205 0.36976 0.12178 0.0
N140 N 0.80659 0.34414 0.12827 0.0
N141 N 0.83582 0.36979 0.18729 0.0
C142 C 0.71574 0.2025 0.29627 0.0
C143 C 0.7278 0.17494 0.40216 0.0
N144 N 0.73377 0.21772 0.33259 0.0
N145 N 0.74075 0.20076 0.39986 0.0
N146 N 0.71184 0.1755 0.33798 0.0
H147 H 0.70424 0.2361 0.20308 0.0
H148 H 0.68365 0.20257 0.21344 0.0
H149 H 0.71933 0.20723 0.15587 0.0
C150 C 0.70508 0.21289 0.21239 0.0
C151 C 0.84023 0.33442 0.3207 0.0
H152 H 0.8408 0.31119 0.33366 0.0
H153 H 0.82553 0.34093 0.37469 0.0
H154 H 0.86159 0.34482 0.32031 0.0
O155 O 0.82495 0.26872 0.25767 0.0
O156 O 0.79384 0.23177 0.29043 0.0
C157 C 0.77184 0.27902 0.44084 0.0
O158 O 0.75747 0.25011 0.1514 0.0
O159 O 0.79108 0.28475 0.11514 0.0
Zn160 Zn 0.79967 0.76533 0.74178 0.0
O161 O 0.79884 0.7643 0.606 0.0
C162 C 0.82767 0.82598 0.69686 0.0
Zn163 Zn 0.76748 0.79682 0.73838 0.0
C164 C 0.78394 0.78047 0.5634 0.0
O165 O 0.7688 0.79682 0.60273 0.0
C166 C 0.78343 0.78204 0.91649 0.0
O167 O 0.73383 0.76174 0.76764 0.0
O168 O 0.76537 0.73088 0.77937 0.0
N169 N 0.73865 0.82656 0.73358 0.0
C170 C 0.71729 0.8328 0.79256 0.0
C171 C 0.72039 0.8633 0.67611 0.0
N172 N 0.74043 0.84554 0.66135 0.0
N173 N 0.70556 0.85595 0.75814 0.0
C174 C 0.83825 0.71765 0.69517 0.0
C175 C 0.86871 0.72127 0.78024 0.0
N176 N 0.83056 0.73765 0.74404 0.0
N177 N 0.84951 0.73974 0.79693 0.0
N178 N 0.86232 0.70722 0.71612 0.0
H179 H 0.79849 0.70947 0.65157 0.0
H180 H 0.82442 0.68502 0.62604 0.0
H181 H 0.82824 0.72039 0.56497 0.0
C182 C 0.82129 0.7074 0.631 0.0
C183 C 0.7072 0.81531 0.88142 0.0
H184 H 0.71118 0.79293 0.88035 0.0
H185 H 0.68427 0.8167 0.9024 0.0
H186 H 0.71895 0.82321 0.93033 0.0
O187 O 0.76683 0.79649 0.87545 0.0
O188 O 0.80006 0.76717 0.87583 0.0
C189 C 0.73942 0.73601 0.78368 0.0
O190 O 0.83321 0.80023 0.70698 0.0
O191 O 0.80176 0.83117 0.7067 0.0
Zn192 Zn 0.54932 0.51459 -0.00669 0.0
O193 O 0.54819 0.51413 0.13071 0.0
C194 C 0.48896 0.48611 0.03734 0.0
Zn195 Zn 0.51775 0.54661 -0.00362 0.0
C196 C 0.53404 0.53098 0.17121 0.0
O197 O 0.51953 0.5479 0.12994 0.0
C198 C 0.53311 0.53035 0.8184 0.0
O199 O 0.5523 0.58073 0.96052 0.0
O200 O 0.58342 0.54932 0.96262 0.0
N201 N 0.48766 0.57504 -0.00078 0.0
C202 C 0.48145 0.59605 0.93895 0.0
C203 C 0.45122 0.59398 0.05549 0.0
N204 N 0.46883 0.57387 0.07147 0.0
N205 N 0.45852 0.60823 0.97264 0.0
C206 C 0.58227 0.463 0.05394 0.0
C207 C 0.61507 0.46484 0.94407 0.0
N208 N 0.57874 0.48528 -0.00652 0.0
N209 N 0.59915 0.48632 0.92532 0.0
N210 N 0.60505 0.44986 0.02461 0.0
H211 H 0.5705 0.46347 0.19177 0.0
H212 H 0.56164 0.43013 0.15864 0.0
H213 H 0.54105 0.45957 0.13494 0.0
C214 C 0.56262 0.45339 0.1394 0.0
C215 C 0.49876 0.60534 0.84937 0.0
H216 H 0.52106 0.60081 0.84976 0.0
H217 H 0.49791 0.62826 0.82715 0.0
H218 H 0.49023 0.5935 0.80168 0.0
O219 O 0.51642 0.54473 0.86128 0.0
O220 O 0.55006 0.51582 0.85741 0.0
C221 C 0.57815 0.57521 0.95135 0.0
O222 O 0.51469 0.48073 0.02007 0.0
O223 O 0.48381 0.51189 0.03488 0.0
Zn224 Zn 1.01118 0.5118 0.49638 0.0
O225 O 1.00453 0.51341 0.3619 0.0
C226 C 0.06238 0.48369 0.46396 0.0
Zn227 Zn 0.04681 0.54447 0.45796 0.0
C228 C 1.02275 0.52879 0.30322 0.0
O229 O 0.04209 0.54369 0.3266 0.0
C230 C 0.03582 0.52717 0.65089 0.0
O231 O 1.02174 0.57928 0.46328 0.0
O232 O 0.98655 0.5465 0.50818 0.0
N233 N 0.08253 0.56987 0.41008 0.0
C234 C 0.09643 0.58971 0.44333 0.0
C235 C 0.12411 0.58037 0.33306 0.0
N236 N 0.09952 0.56445 0.34041 0.0
N237 N 0.12257 0.59665 0.39636 0.0
C238 C 0.96016 0.46841 0.51019 0.0
C239 C 0.93426 0.47684 0.62541 0.0
N240 N 0.97547 0.48664 0.54545 0.0
N241 N 0.95958 0.49147 0.61807 0.0
N242 N 0.93424 0.46199 0.55887 0.0
H243 H 0.96201 0.47424 0.37025 0.0
H244 H 0.95924 0.43801 0.42217 0.0
H245 H 0.99252 0.45951 0.4085 0.0
C246 C 0.96919 0.45946 0.42276 0.0
C247 C 0.08595 0.5997 0.52816 0.0
H248 H 0.06253 0.59857 0.54047 0.0
H249 H 0.09466 0.62176 0.52639 0.0
H250 H 0.09328 0.58622 0.58331 0.0
O251 O 0.05169 0.54492 0.59211 0.0
O252 O 1.018 0.51034 0.62792 0.0
C253 C 0.99552 0.57247 0.49072 0.0
O254 O 0.03588 0.47708 0.48453 0.0
O255 O 0.07168 0.50956 0.45283 0.0
C256 C 0.12444 0.09791 0.35903 0.0
C257 C 0.10098 0.09949 0.42366 0.0
C258 C 0.14651 0.12009 0.33355 0.0
C259 C 0.14614 0.14426 0.37614 0.0
C260 C 0.12274 0.14562 0.44291 0.0
C261 C 0.10032 0.12371 0.46422 0.0
C262 C 0.17007 0.11782 0.25965 0.0
C263 C 0.12156 0.17008 0.49321 0.0
C264 C 0.21768 0.18812 0.36303 0.0
C265 C 0.21533 0.21263 0.30342 0.0
C266 C 0.1953 0.16624 0.38859 0.0
C267 C 0.1701 0.16795 0.35099 0.0
C268 C 0.16796 0.19243 0.28909 0.0
C269 C 0.19014 0.21457 0.26784 0.0
C270 C 0.19849 0.14144 0.45737 0.0
C271 C 0.14234 0.19509 0.24395 0.0
H272 H 0.1252 0.07952 0.32651 0.0
H273 H 0.08251 0.12521 0.51462 0.0
H274 H 0.17213 0.1368 0.20789 0.0
H275 H 0.19047 0.117 0.28475 0.0
H276 H 0.16649 0.09875 0.22909 0.0
H277 H 0.10308 0.16724 0.54709 0.0
H278 H 0.14117 0.17261 0.52206 0.0
H279 H 0.12034 0.18995 0.44787 0.0
H280 H 0.23683 0.18639 0.39178 0.0
H281 H 0.18802 0.23323 0.22136 0.0
H282 H 0.19828 0.12176 0.42845 0.0
H283 H 0.18036 0.13879 0.51229 0.0
H284 H 0.21842 0.14398 0.48469 0.0
H285 H 0.13871 0.1763 0.21219 0.0
H286 H 0.1446 0.21434 0.19305 0.0
H287 H 0.12327 0.19585 0.29318 0.0
C288 C 0.12468 0.92744 0.64861 0.0
C289 C 0.12037 0.92916 0.56078 0.0
C290 C 0.14022 0.90642 0.68665 0.0
C291 C 0.15237 0.88711 0.63496 0.0
C292 C 0.14762 0.88843 0.54677 0.0
C293 C 0.13169 0.90939 0.51094 0.0
C294 C 0.14471 0.90573 0.78091 0.0
C295 C 0.16047 0.86853 0.48887 0.0
C296 C 0.22097 0.85824 0.68381 0.0
C297 C 0.21213 0.8301 0.72229 0.0
C298 C 0.20165 0.87701 0.65685 0.0
C299 C 0.17256 0.86764 0.66936 0.0
C300 C 0.16326 0.83956 0.71079 0.0
C301 C 0.18319 0.82103 0.7364 0.0
C302 C 0.21258 0.90668 0.61234 0.0
C303 C 0.13237 0.82894 0.72628 0.0
H304 H 0.11697 0.9432 0.68663 0.0
H305 H 0.12851 0.91077 0.44295 0.0
H306 H 0.14045 0.88388 0.81791 0.0
H307 H 0.16709 0.91278 0.7822 0.0
H308 H 0.13095 0.91965 0.81548 0.0
H309 H 0.15308 0.87096 0.42402 0.0
H310 H 0.18386 0.87262 0.47721 0.0
H311 H 0.15522 0.84632 0.52209 0.0
H312 H 0.24325 0.86556 0.67253 0.0
H313 H 0.17615 0.79936 0.76608 0.0
H314 H 0.2017 0.9223 0.64766 0.0
H315 H 0.20795 0.9102 0.54393 0.0
H316 H 0.23574 0.91088 0.60978 0.0
H317 H 0.11957 0.84326 0.76207 0.0
H318 H 0.12831 0.80723 0.7647 0.0
H319 H 0.12496 0.82888 0.66209 0.0
C320 C 0.37848 0.90809 0.72666 0.0
C321 C 0.35139 0.89437 0.75123 0.0
C322 C 0.38944 0.92478 0.78203 0.0
C323 C 0.37277 0.92714 0.86356 0.0
C324 C 0.34448 0.91516 0.88472 0.0
C325 C 0.33402 0.89897 0.82748 0.0
C326 C 0.41961 0.93783 0.75689 0.0
C327 C 0.32618 0.9171 0.97111 0.0
C328 C 0.41991 0.93254 0.03283 0.0
C329 C 0.42317 0.9617 0.02896 0.0
C330 C 0.40138 0.9206 -0.01538 0.0
C331 C 0.3864 0.9386 0.93087 0.0
C332 C 0.38782 0.96787 0.93327 0.0
C333 C 0.40632 0.97914 0.9829 0.0
C334 C 0.39987 0.88913 -0.01517 0.0
C335 C 0.37204 0.98759 0.87709 0.0
H336 H 0.39158 0.90421 0.66733 0.0
H337 H 0.31296 0.88811 0.84517 0.0
H338 H 0.42101 0.96018 0.76694 0.0
H339 H 0.43308 0.92637 0.79982 0.0
H340 H 0.42835 0.93694 0.68713 0.0
H341 H 0.30346 0.91149 0.9697 0.0
H342 H 0.33275 0.90224 0.02466 0.0
H343 H 0.32873 0.93863 -0.01222 0.0
H344 H 0.43337 0.91946 0.06842 0.0
H345 H 0.40946 1.0018 0.98001 0.0
H346 H 0.41097 0.8849 0.92085 0.0
H347 H 0.37757 0.88021 -0.00747 0.0
H348 H 0.40985 0.8779 0.03848 0.0
H349 H 0.3828 0.99074 0.80755 0.0
H350 H 0.37133 1.00855 0.89863 0.0
H351 H 0.35009 0.97848 0.87895 0.0
C352 C 0.49892 0.13683 -0.0106 0.0
C353 C 0.48974 0.10807 -0.00114 0.0
C354 C 0.48015 0.15645 0.01585 0.0
C355 C 0.45169 0.147 0.05333 0.0
C356 C 0.44224 0.11812 0.06088 0.0
C357 C 0.46125 0.09915 0.03322 0.0
C358 C 0.49087 0.18714 0.00562 0.0
C359 C 0.41219 0.10699 0.10096 0.0
C360 C 0.4075 0.1847 0.21532 0.0
C361 C 0.38818 0.19663 0.16455 0.0
C362 C 0.42924 0.16977 0.17873 0.0
C363 C 0.43182 0.16667 0.08881 0.0
C364 C 0.41303 0.17957 0.03627 0.0
C365 C 0.39123 0.19406 0.07502 0.0
C366 C 0.44852 0.15606 0.23757 0.0
C367 C 0.41503 0.17684 0.94017 0.0
H368 H 0.52085 0.14393 0.96298 0.0
H369 H 0.4538 0.07702 0.04079 0.0
H370 H 0.47697 0.2006 0.96994 0.0
H371 H 0.49027 0.19341 0.07158 0.0
H372 H 0.51288 0.19149 0.96942 0.0
H373 H 0.40801 0.08406 0.10001 0.0
H374 H 0.40781 0.11057 0.17035 0.0
H375 H 0.39708 0.11851 0.0648 0.0
H376 H 0.40514 0.18653 0.28458 0.0
H377 H 0.37585 0.20225 0.03598 0.0
H378 H 0.47097 0.16159 0.20691 0.0
H379 H 0.44445 0.13276 0.246 0.0
H380 H 0.44534 0.16247 0.30379 0.0
H381 H 0.43725 0.18138 0.90612 0.0
H382 H 0.40165 0.19131 0.90562 0.0
H383 H 0.40804 0.15485 0.93445 0.0
C384 C 0.96672 0.93818 0.52179 0.0
C385 C 0.96524 0.9628 0.56018 0.0
C386 C 0.94433 0.91628 0.5417 0.0
C387 C 0.92011 0.91809 0.605 0.0
C388 C 0.9189 0.94268 0.64549 0.0
C389 C 0.94099 0.96484 0.62123 0.0
C390 C 0.94643 0.89133 0.4936 0.0
C391 C 0.89441 0.94542 0.71589 0.0
C392 C 0.8494 0.87368 0.61173 0.0
C393 C 0.85116 0.8496 0.67376 0.0
C394 C 0.87174 0.8956 0.58744 0.0
C395 C 0.89621 0.89438 0.62885 0.0
C396 C 0.89771 0.87036 0.69322 0.0
C397 C 0.87565 0.84813 0.71316 0.0
C398 C 0.86934 0.9199 0.51598 0.0
C399 C 0.9225 0.86828 0.74233 0.0
H400 H 0.98516 0.93637 0.47408 0.0
H401 H 0.93962 0.98358 0.65199 0.0
H402 H 0.9472 0.87179 0.54088 0.0
H403 H 0.92738 0.8884 0.46228 0.0
H404 H 0.9655 0.89389 0.4419 0.0
H405 H 0.89737 0.96481 0.7454 0.0
H406 H 0.87454 0.94594 0.6877 0.0
H407 H 0.89173 0.92677 0.76906 0.0
H408 H 0.83078 0.87502 0.58016 0.0
H409 H 0.87725 0.8298 0.76159 0.0
H410 H 0.88812 0.92229 0.46336 0.0
H411 H 0.86888 0.93987 0.54331 0.0
H412 H 0.85 0.91696 0.48595 0.0
H413 H 0.94216 0.86722 0.69584 0.0
H414 H 0.91968 0.84939 0.79475 0.0
H415 H 0.92547 0.88743 0.77291 0.0
C416 C 0.92932 0.14859 0.48841 0.0
C417 C 0.94213 0.13039 0.43529 0.0
C418 C 0.91136 0.16814 0.45643 0.0
C419 C 0.90605 0.16962 0.3688 0.0
C420 C 0.91969 0.15199 0.31369 0.0
C421 C 0.93733 0.13236 0.34789 0.0
C422 C 0.89709 0.18633 0.51779 0.0
C423 C 0.91467 0.15298 0.21982 0.0
C424 C 0.835 0.19466 0.32916 0.0
C425 C 0.84212 0.22333 0.29411 0.0
C426 C 0.8557 0.17687 0.3516 0.0
C427 C 0.88438 0.18787 0.33795 0.0
C428 C 0.8919 0.21654 0.29976 0.0
C429 C 0.87066 0.23399 0.27872 0.0
C430 C 0.84669 0.14649 0.39283 0.0
C431 C 0.92228 0.22893 0.28319 0.0
H432 H 0.93289 0.14699 0.5561 0.0
H433 H 0.94629 0.11775 0.30734 0.0
H434 H 0.90076 0.2089 0.48709 0.0
H435 H 0.87391 0.18062 0.53007 0.0
H436 H 0.90478 0.18383 0.58219 0.0
H437 H 0.92931 0.14041 0.18263 0.0
H438 H 0.89264 0.14451 0.21958 0.0
H439 H 0.91727 0.17511 0.18481 0.0
H440 H 0.81303 0.18618 0.34143 0.0
H441 H 0.87639 0.25608 0.25143 0.0
H442 H 0.85159 0.14266 0.46091 0.0
H443 H 0.85864 0.13209 0.35502 0.0
H444 H 0.82371 0.14093 0.39567 0.0
H445 H 0.93002 0.22887 0.34692 0.0
H446 H 0.92492 0.25095 0.24699 0.0
H447 H 0.93585 0.21583 0.24469 0.0
C448 C 0.72953 0.14453 0.23739 0.0
C449 C 0.70683 0.15234 0.29361 0.0
C450 C 0.72477 0.13099 0.16696 0.0
C451 C 0.69664 0.12488 0.1546 0.0
C452 C 0.67372 0.12913 0.2189 0.0
C453 C 0.67917 0.14328 0.28755 0.0
C454 C 0.74971 0.12664 0.10038 0.0
C455 C 0.64337 0.1218 0.20962 0.0
C456 C 0.67086 0.1369 0.93797 0.0
C457 C 0.66231 0.10923 0.93096 0.0
C458 C 0.68548 0.14231 0.00576 0.0
C459 C 0.69073 0.11933 0.06822 0.0
C460 C 0.68517 0.09131 0.05454 0.0
C461 C 0.67113 0.0866 -0.015 0.0
C462 C 0.6922 0.17259 0.01642 0.0
C463 C 0.69062 0.0663 0.11912 0.0
H464 H 0.75092 0.152 0.2426 0.0
H465 H 0.66186 0.14962 0.33139 0.0
H466 H 0.74588 0.10719 0.07207 0.0
H467 H 0.75323 0.14479 0.04544 0.0
H468 H 0.76932 0.12537 0.13012 0.0
H469 H 0.62856 0.12235 0.27142 0.0
H470 H 0.63741 0.13719 0.15623 0.0
H471 H 0.64071 0.10048 0.19145 0.0
H472 H 0.66376 0.15416 0.89579 0.0
H473 H 0.66407 0.0652 0.97908 0.0
H474 H 0.71368 0.17565 0.03341 0.0
H475 H 0.67686 0.17787 0.0711 0.0
H476 H 0.69095 0.18759 0.95557 0.0
H477 H 0.71034 0.07045 0.14597 0.0
H478 H 0.69211 0.047 0.08812 0.0
H479 H 0.67285 0.0621 0.17528 0.0
C480 C 0.66527 0.88438 0.7443 0.0
C481 C 0.68368 0.87157 0.79691 0.0
C482 C 0.64614 0.90271 0.77616 0.0
C483 C 0.64529 0.90841 0.86315 0.0
C484 C 0.66314 0.89481 0.91779 0.0
C485 C 0.68233 0.87678 0.88371 0.0
C486 C 0.6277 0.91691 0.71532 0.0
C487 C 0.66281 0.90022 0.011 0.0
C488 C 0.62079 0.97972 0.90111 0.0
C489 C 0.59217 0.97275 0.93751 0.0
C490 C 0.63842 0.95889 0.87878 0.0
C491 C 0.62731 0.93026 0.89393 0.0
C492 C 0.59871 0.92291 0.93353 0.0
C493 C 0.58142 0.94426 0.95442 0.0
C494 C 0.66872 0.96771 0.83604 0.0
C495 C 0.58618 0.8926 0.95174 0.0
H496 H 0.66639 0.88052 0.67706 0.0
H497 H 0.69712 0.86783 0.9238 0.0
H498 H 0.60518 0.91343 0.74694 0.0
H499 H 0.63354 0.94004 0.70212 0.0
H500 H 0.62979 0.90903 0.65131 0.0
H501 H 0.67556 0.88569 0.04798 0.0
H502 H 0.67148 0.92225 0.00984 0.0
H503 H 0.6408 0.89782 0.04709 0.0
H504 H 0.62933 1.00165 0.88765 0.0
H505 H 0.55937 0.93864 0.98278 0.0
H506 H 0.67214 0.96262 0.76821 0.0
H507 H 0.68332 0.95582 0.87336 0.0
H508 H 0.67444 0.99066 0.83229 0.0
H509 H 0.58582 0.88463 0.88858 0.0
H510 H 0.56428 0.89012 -0.01109 0.0
H511 H 0.59948 0.87914 -0.01005 0.0
C512 C 0.60018 0.6238 0.96292 0.0
C513 C 0.60187 0.5987 0.92707 0.0
C514 C 0.62253 0.64578 0.94191 0.0
C515 C 0.64698 0.64357 0.87996 0.0
C516 C 0.64843 0.61847 0.84205 0.0
C517 C 0.62635 0.59628 0.86741 0.0
C518 C 0.62012 0.67128 -0.01263 0.0
C519 C 0.67316 0.61522 0.77315 0.0
C520 C 0.6916 0.71317 0.76737 0.0
C521 C 0.71592 0.7123 0.80781 0.0
C522 C 0.66957 0.69087 0.78842 0.0
C523 C 0.67088 0.66736 0.8549 0.0
C524 C 0.69516 0.66675 0.89729 0.0
C525 C 0.71747 0.68871 0.87201 0.0
C526 C 0.64501 0.69232 0.73825 0.0
C527 C 0.69739 0.64306 0.97087 0.0
H528 H 0.58156 0.62597 0.00947 0.0
H529 H 0.62792 0.5772 0.83847 0.0
H530 H 0.63907 0.6748 0.01865 0.0
H531 H 0.61925 0.69039 0.9384 0.0
H532 H 0.60097 0.669 0.0387 0.0
H533 H 0.67036 0.59547 0.74531 0.0
H534 H 0.676 0.63347 0.71859 0.0
H535 H 0.69288 0.61504 0.80217 0.0
H536 H 0.6901 0.73109 0.71732 0.0
H537 H 0.73592 0.68779 0.90448 0.0
H538 H 0.62523 0.69385 0.7836 0.0
H539 H 0.64214 0.67272 0.70979 0.0
H540 H 0.64802 0.71073 0.68409 0.0
H541 H 0.67841 0.64097 0.02265 0.0
H542 H 0.71652 0.64648 0.0015 0.0
H543 H 0.69812 0.62277 0.94542 0.0
C544 C 0.7146 0.35268 0.19891 0.0
C545 C 0.70571 0.3242 0.23298 0.0
C546 C 0.6956 0.37165 0.17115 0.0
C547 C 0.66671 0.36217 0.17836 0.0
C548 C 0.65726 0.33373 0.21562 0.0
C549 C 0.67692 0.31499 0.24214 0.0
C550 C 0.70672 0.4017 0.1313 0.0
C551 C 0.62654 0.323 0.22556 0.0
C552 C 0.61985 0.42271 0.15627 0.0
C553 C 0.61739 0.42588 0.06661 0.0
C554 C 0.63416 0.40078 0.19524 0.0
C555 C 0.64702 0.38203 0.14276 0.0
C556 C 0.64402 0.38473 0.05271 0.0
C557 C 0.62924 0.40658 0.01591 0.0
C558 C 0.63677 0.39864 0.29149 0.0
C559 C 0.65772 0.3655 -0.00606 0.0
H560 H 0.73675 0.36017 0.19165 0.0
H561 H 0.66985 0.29307 0.26836 0.0
H562 H 0.70314 0.40615 0.06188 0.0
H563 H 0.69517 0.41672 0.16753 0.0
H564 H 0.72969 0.40587 0.13239 0.0
H565 H 0.62219 0.30102 0.26185 0.0
H566 H 0.61301 0.33686 0.261 0.0
H567 H 0.6203 0.32358 0.1595 0.0
H568 H 0.61173 0.43808 0.19527 0.0
H569 H 0.62749 0.40904 0.94655 0.0
H570 H 0.65876 0.40563 0.29762 0.0
H571 H 0.63224 0.37642 0.32532 0.0
H572 H 0.62222 0.41192 0.32597 0.0
H573 H 0.68107 0.36944 -0.01407 0.0
H574 H 0.6514 0.36879 0.92755 0.0
H575 H 0.65206 0.34307 0.02444 0.0
C576 C 0.90104 0.42543 0.53106 0.0
C577 C 0.9098 0.45394 0.52407 0.0
C578 C 0.88322 0.41662 0.47531 0.0
C579 C 0.87485 0.43701 0.41052 0.0
C580 C 0.88149 0.46609 0.40939 0.0
C581 C 0.89892 0.47425 0.46705 0.0
C582 C 0.87585 0.38537 0.47971 0.0
C583 C 0.87299 0.48837 0.34135 0.0
C584 C 0.87292 0.40335 0.20983 0.0
C585 C 0.84434 0.39405 0.22201 0.0
C586 C 0.88289 0.4204 0.26585 0.0
C587 C 0.86362 0.42739 0.33607 0.0
C588 C 0.83429 0.42046 0.34235 0.0
C589 C 0.82493 0.40385 0.28435 0.0
C590 C 0.91433 0.42818 0.25588 0.0
C591 C 0.81317 0.42756 0.41617 0.0
H592 H 0.9099 0.41005 0.57522 0.0
H593 H 0.90627 0.49632 0.46209 0.0
H594 H 0.85317 0.38097 0.47541 0.0
H595 H 0.88847 0.37805 0.42296 0.0
H596 H 0.88033 0.37285 0.54146 0.0
H597 H 0.87401 0.50949 0.36189 0.0
H598 H 0.88766 0.48968 0.27823 0.0
H599 H 0.8513 0.48299 0.32886 0.0
H600 H 0.88761 0.39535 0.16149 0.0
H601 H 0.8028 0.39611 0.29316 0.0
H602 H 0.92308 0.41481 0.30823 0.0
H603 H 0.91869 0.45052 0.26353 0.0
H604 H 0.92565 0.42502 0.19082 0.0
H605 H 0.81328 0.41208 0.47677 0.0
H606 H 0.79139 0.42661 0.40014 0.0
H607 H 0.81875 0.44887 0.43095 0.0
C608 C 0.89308 0.66847 0.73144 0.0
C609 C 0.87956 0.68741 0.67755 0.0
C610 C 0.91182 0.65048 0.69539 0.0
C611 C 0.91734 0.65152 0.60283 0.0
C612 C 0.90368 0.67056 0.54791 0.0
C613 C 0.8851 0.68842 0.5859 0.0
C614 C 0.9259 0.63052 0.75642 0.0
C615 C 0.90902 0.67234 0.44899 0.0
C616 C 0.98545 0.62161 0.51447 0.0
C617 C 0.97557 0.59396 0.50889 0.0
C618 C 0.96663 0.64093 0.54217 0.0
C619 C 0.93725 0.63245 0.56422 0.0
C620 C 0.9271 0.60497 0.5549 0.0
C621 C 0.94634 0.58608 0.52766 0.0
C622 C 0.97831 0.67004 0.55139 0.0
C623 C 0.89596 0.59513 0.57696 0.0
H624 H 0.88903 0.66788 0.80218 0.0
H625 H 0.87561 0.70376 0.54366 0.0
H626 H 0.9206 0.60841 0.74797 0.0
H627 H 0.94922 0.63487 0.73958 0.0
H628 H 0.91938 0.63236 0.82681 0.0
H629 H 0.89608 0.68761 0.41572 0.0
H630 H 0.93169 0.67886 0.42314 0.0
H631 H 0.9042 0.65127 0.4312 0.0
H632 H 1.00798 0.62784 0.5004 0.0
H633 H 0.93845 0.56481 0.52301 0.0
H634 H 0.97487 0.67241 0.62197 0.0
H635 H 0.96701 0.68639 0.51602 0.0
H636 H 1.0013 0.6741 0.5254 0.0
H637 H 0.88863 0.59421 0.64857 0.0
H638 H 0.89127 0.57391 0.55985 0.0
H639 H 0.88353 0.61033 0.54138 0.0
C640 C 0.37602 0.34748 0.21013 0.0
C641 C 0.35155 0.34896 0.17057 0.0
C642 C 0.39803 0.36975 0.1907 0.0
C643 C 0.39649 0.39392 0.12693 0.0
C644 C 0.37205 0.39519 0.08538 0.0
C645 C 0.34979 0.37316 0.10893 0.0
C646 C 0.42284 0.36757 0.23972 0.0
C647 C 0.36957 0.41967 0.01464 0.0
C648 C 0.4411 0.46431 0.12177 0.0
C649 C 0.46531 0.4626 0.0601 0.0
C650 C 0.41906 0.44208 0.14531 0.0
C651 C 0.42031 0.41771 0.10375 0.0
C652 C 0.44448 0.41621 0.03994 0.0
C653 C 0.46678 0.43821 0.02051 0.0
C654 C 0.39457 0.44451 0.21608 0.0
C655 C 0.44664 0.39149 -0.00911 0.0
H656 H 0.37765 0.32908 0.25826 0.0
H657 H 0.33121 0.37457 0.0772 0.0
H658 H 0.44255 0.36696 0.19296 0.0
H659 H 0.42557 0.38649 0.27157 0.0
H660 H 0.4202 0.34842 0.29113 0.0
H661 H 0.35016 0.41689 -0.01514 0.0
H662 H 0.36923 0.43954 0.04257 0.0
H663 H 0.38827 0.42215 0.96172 0.0
H664 H 0.43971 0.48284 0.15353 0.0
H665 H 0.48518 0.4366 0.97235 0.0
H666 H 0.39212 0.42581 0.26898 0.0
H667 H 0.37464 0.44485 0.18817 0.0
H668 H 0.39737 0.46387 0.24587 0.0
H669 H 0.44728 0.37178 0.03764 0.0
H670 H 0.46579 0.39415 0.93947 0.0
H671 H 0.42767 0.38877 0.95906 0.0
C672 C 0.43127 0.64936 -0.01502 0.0
C673 C 0.44342 0.63047 0.93316 0.0
C674 C 0.41366 0.66915 0.95217 0.0
C675 C 0.40808 0.67022 0.86494 0.0
C676 C 0.42101 0.65185 0.81113 0.0
C677 C 0.43826 0.63196 0.84622 0.0
C678 C 0.40009 0.68809 0.01223 0.0
C679 C 0.41571 0.65241 0.71768 0.0
C680 C 0.33776 0.69695 0.82416 0.0
C681 C 0.3456 0.7254 0.78753 0.0
C682 C 0.35797 0.67868 0.8476 0.0
C683 C 0.38688 0.68893 0.83319 0.0
C684 C 0.39511 0.71735 0.79336 0.0
C685 C 0.37436 0.73532 0.77152 0.0
C686 C 0.3482 0.64863 0.89074 0.0
C687 C 0.42576 0.72894 0.77582 0.0
H688 H 0.43509 0.64815 0.05232 0.0
H689 H 0.44666 0.61683 0.80674 0.0
H690 H 0.40437 0.71051 0.98028 0.0
H691 H 0.37681 0.68305 0.02479 0.0
H692 H 0.40781 0.68569 0.07657 0.0
H693 H 0.42982 0.63917 0.68137 0.0
H694 H 0.39346 0.64448 0.71828 0.0
H695 H 0.41888 0.67437 0.68125 0.0
H696 H 0.31561 0.68906 0.83701 0.0
H697 H 0.38063 0.75723 0.74299 0.0
H698 H 0.35321 0.64501 0.95871 0.0
H699 H 0.35958 0.63364 0.85389 0.0
H700 H 0.3251 0.64364 0.89421 0.0
H701 H 0.43367 0.72904 0.83924 0.0
H702 H 0.42893 0.75079 0.73832 0.0
H703 H 0.43881 0.71522 0.73822 0.0
C704 C 0.1773 0.65148 0.7661 0.0
C705 C 0.2055 0.66174 0.75834 0.0
C706 C 0.16855 0.63695 0.7021 0.0
C707 C 0.18859 0.63353 0.62842 0.0
C708 C 0.21751 0.64203 0.62423 0.0
C709 C 0.22568 0.6559 0.69021 0.0
C710 C 0.13755 0.62741 0.70954 0.0
C711 C 0.23935 0.63905 0.5463 0.0
C712 C 0.15889 0.58669 0.48617 0.0
C713 C 0.14611 0.60638 0.43268 0.0
C714 C 0.17499 0.59538 0.54647 0.0
C715 C 0.17845 0.62442 0.55153 0.0
C716 C 0.16825 0.64459 0.49032 0.0
C717 C 0.15176 0.63519 0.43186 0.0
C718 C 0.18548 0.57333 0.61079 0.0
C719 C 0.17236 0.67587 0.4924 0.0
H720 H 0.16198 0.65647 0.81888 0.0
H721 H 0.24745 0.66444 0.68482 0.0
H722 H 0.12817 0.64115 0.65959 0.0
H723 H 0.13484 0.60547 0.69619 0.0
H724 H 0.12557 0.62836 0.7758 0.0
H725 H 0.26121 0.64166 0.56109 0.0
H726 H 0.23597 0.61822 0.52542 0.0
H727 H 0.2374 0.65552 0.48979 0.0
H728 H 0.15392 0.56436 0.48658 0.0
H729 H 0.14146 0.65009 0.39043 0.0
H730 H 0.17124 0.57052 0.67526 0.0
H731 H 0.20702 0.58003 0.62183 0.0
H732 H 0.18582 0.5526 0.58763 0.0
H733 H 0.15861 0.68088 0.55102 0.0
H734 H 0.16693 0.6887 0.43256 0.0
H735 H 0.19456 0.68219 0.49801 0.0
C736 C 0.17937 0.37322 0.38626 0.0
C737 C 0.18156 0.36857 0.2987 0.0
C738 C 0.15852 0.38939 0.42178 0.0
C739 C 0.13985 0.40178 0.3678 0.0
C740 C 0.14162 0.39668 0.27993 0.0
C741 C 0.16238 0.38013 0.24667 0.0
C742 C 0.15727 0.39422 0.51587 0.0
C743 C 0.1224 0.40973 0.21966 0.0
C744 C 0.07321 0.43326 0.4613 0.0
C745 C 0.08239 0.46214 0.44676 0.0
C746 C 0.09189 0.41317 0.43881 0.0
C747 C 0.12028 0.42222 0.39988 0.0
C748 C 0.12977 0.45126 0.38692 0.0
C749 C 0.1108 0.47077 0.41092 0.0
C750 C 0.08112 0.38235 0.45478 0.0
C751 C 0.15976 0.46191 0.34481 0.0
H752 H 0.19468 0.36528 0.426 0.0
H753 H 0.16411 0.37669 0.17888 0.0
H754 H 0.16448 0.41655 0.51664 0.0
H755 H 0.1352 0.3903 0.55144 0.0
H756 H 0.1708 0.38043 0.55218 0.0
H757 H 0.12531 0.40228 0.15496 0.0
H758 H 0.09996 0.40472 0.25101 0.0
H759 H 0.12673 0.43306 0.20788 0.0
H760 H 0.05133 0.42638 0.48914 0.0
H761 H 0.11817 0.49302 0.39919 0.0
H762 H 0.09508 0.3696 0.49245 0.0
H763 H 0.08155 0.37472 0.39081 0.0
H764 H 0.05916 0.3785 0.49156 0.0
H765 H 0.17496 0.45092 0.38189 0.0
H766 H 0.16406 0.48502 0.34217 0.0
H767 H 0.16382 0.45721 0.27659 0.0
C768 C 1.00822 0.03153 0.82019 0.0
C769 C 0.03379 0.03089 0.76409 0.0
C770 C 1.00754 0.03096 0.91086 0.0
C771 C 0.03318 0.03085 0.94537 0.0
C772 C 0.05914 0.03063 0.88856 0.0
C773 C 0.05906 0.03007 0.79862 0.0
C774 C 0.97936 0.03015 0.9698 0.0
C775 C 0.08698 0.03141 0.92251 0.0
C776 C 0.03201 0.05627 0.16526 0.0
C777 C 0.03188 0.03079 0.22243 0.0
C778 C 0.03303 0.05666 0.07443 0.0
C779 C 0.0328 0.03086 0.04103 0.0
C780 C 0.03197 1.00502 0.09915 0.0
C781 C 0.03208 1.00536 0.18909 0.0
C782 C 0.03481 0.08468 0.01412 0.0
C783 C 0.03065 0.97703 0.06653 0.0
H784 H 0.98865 0.03188 0.79331 0.0
H785 H 0.07883 0.02976 0.75482 0.0
H786 H 0.97672 1.01154 0.02307 0.0
H787 H 0.97854 0.04922 0.00184 0.0
H788 H 0.96131 0.02907 0.93302 0.0
H789 H 0.10534 0.03233 0.86901 0.0
H790 H 0.08939 0.0501 0.9556 0.0
H791 H 0.08745 1.01241 0.97236 0.0
H792 H 0.03215 0.07594 0.19128 0.0
H793 H 0.03178 0.98566 0.23378 0.0
H794 H 1.01611 0.0858 0.98013 0.0
H795 H 0.05381 0.08677 0.96242 0.0
H796 H 0.03591 0.10285 0.05022 0.0
H797 H 1.01222 0.97504 0.03185 0.0
H798 H 0.02887 0.95882 0.12097 0.0
H799 H 0.04988 0.97585 0.01833 0.0
C800 C 0.30597 0.77652 0.42667 0.0
C801 C 0.28077 0.77324 0.48706 0.0
C802 C 0.30552 0.77796 0.33604 0.0
C803 C 0.27923 0.77739 0.30512 0.0
C804 C 0.25372 0.77454 0.36609 0.0
C805 C 0.2548 0.77191 0.45662 0.0
C806 C 0.33312 0.77974 0.27359 0.0
C807 C 0.22531 0.77473 0.33564 0.0
C808 C 0.28012 0.80589 0.06226 0.0
C809 C 0.27621 0.78086 0.02822 0.0
C810 C 0.28068 0.80517 0.15275 0.0
C811 C 0.27836 0.77876 0.20933 0.0
C812 C 0.27511 0.75345 0.17447 0.0
C813 C 0.27357 0.75484 0.0847 0.0
C814 C 0.2833 0.83261 0.18799 0.0
C815 C 0.27364 0.72488 0.23171 0.0
H816 H 0.32603 0.77755 0.4506 0.0
H817 H 0.23533 0.76985 0.5035 0.0
H818 H 0.33298 0.76202 0.23548 0.0
H819 H 0.33576 0.79962 0.22544 0.0
H820 H 0.35165 0.77897 0.30863 0.0
H821 H 0.20761 0.77412 0.39104 0.0
H822 H 0.22487 0.79398 0.2866 0.0
H823 H 0.22171 0.75626 0.30258 0.0
H824 H 0.28214 0.82599 0.01851 0.0
H825 H 0.27099 0.73543 0.05811 0.0
H826 H 0.30265 0.83405 0.21861 0.0
H827 H 0.26499 0.83335 0.24022 0.0
H828 H 0.28423 0.85132 0.13568 0.0
H829 H 0.29248 0.72345 0.26513 0.0
H830 H 0.27259 0.70726 0.19332 0.0
H831 H 0.25475 0.72202 0.28391 0.0
C832 C 0.51262 0.04308 0.65537 0.0
C833 C 0.53645 0.04048 0.69679 0.0
C834 C 0.51493 0.04362 0.5637 0.0
C835 C 0.54145 0.04036 0.51361 0.0
C836 C 0.56529 0.03678 0.5563 0.0
C837 C 0.56259 0.03741 0.64694 0.0
C838 C 0.4892 0.04823 0.52013 0.0
C839 C 0.59365 0.03207 0.50643 0.0
C840 C 0.54068 1.01501 0.29404 0.0
C841 C 0.54961 0.03985 0.23358 0.0
C842 C 0.53841 1.0148 0.38516 0.0
C843 C 0.54432 0.04027 0.41682 0.0
C844 C 0.55357 0.06542 0.35594 0.0
C845 C 0.55652 0.06481 0.26487 0.0
C846 C 0.52965 0.9873 0.44752 0.0
C847 C 0.55961 0.09311 0.38698 0.0
H848 H 0.49247 0.04563 0.69403 0.0
H849 H 0.58098 0.03512 0.67942 0.0
H850 H 0.49373 0.06703 0.46745 0.0
H851 H 0.48397 0.02986 0.48835 0.0
H852 H 0.47043 0.05136 0.56771 0.0
H853 H 0.60973 0.02833 0.55034 0.0
H854 H 0.59142 1.01363 0.47216 0.0
H855 H 0.60158 0.05069 0.45518 0.0
H856 H 0.53542 0.99566 0.26991 0.0
H857 H 0.5631 0.08412 0.21826 0.0
H858 H 0.5093 0.98876 0.49021 0.0
H859 H 0.54563 0.98302 0.49139 0.0
H860 H 0.52718 0.96913 0.41209 0.0
H861 H 0.54054 0.09812 0.42963 0.0
H862 H 0.56595 0.11086 0.33128 0.0
H863 H 0.57679 0.09147 0.42733 0.0
C864 C 0.2577 0.27972 0.93171 0.0
C865 C 0.2832 0.28013 0.965 0.0
C866 C 0.2574 0.27941 0.84184 0.0
C867 C 0.28332 0.28065 0.78377 0.0
C868 C 0.30919 0.28154 0.8171 0.0
C869 C 0.30877 0.28073 0.90784 0.0
C870 C 0.22937 0.27742 0.80927 0.0
C871 C 0.33728 0.28378 0.75682 0.0
C872 C 0.2846 0.2557 0.56342 0.0
C873 C 0.28348 0.28108 0.50701 0.0
C874 C 0.284 0.25518 0.65405 0.0
C875 C 0.28336 0.28083 0.68818 0.0
C876 C 0.28267 0.3066 0.63105 0.0
C877 C 0.28217 0.30633 0.54119 0.0
C878 C 0.28373 0.22718 0.71336 0.0
C879 C 0.28287 0.33445 0.66458 0.0
H880 H 0.23793 0.27906 0.97641 0.0
H881 H 0.32849 0.28137 0.93382 0.0
H882 H 0.22783 0.29644 0.76067 0.0
H883 H 0.22775 0.25888 0.77507 0.0
H884 H 0.21112 0.27542 0.86367 0.0
H885 H 0.35546 0.28534 0.79288 0.0
H886 H 0.33879 0.26507 0.72316 0.0
H887 H 0.33902 0.30266 0.70485 0.0
H888 H 0.28533 0.23613 0.53684 0.0
H889 H 0.28149 0.32597 0.49717 0.0
H890 H 0.26507 0.22425 0.76654 0.0
H891 H 0.30284 0.22684 0.74551 0.0
H892 H 0.28307 0.20908 0.67685 0.0
H893 H 0.26377 0.33462 0.71435 0.0
H894 H 0.28345 0.35267 0.61087 0.0
H895 H 0.30154 0.33731 0.69767 0.0
C896 C 0.79973 0.27414 0.93706 0.0
C897 C 0.7748 0.26586 -0.00232 0.0
C898 C 0.79979 0.27624 0.84604 0.0
C899 C 0.77408 0.27091 0.81472 0.0
C900 C 0.74881 0.26243 0.87581 0.0
C901 C 0.74957 0.25956 0.96675 0.0
C902 C 0.82738 0.28412 0.78344 0.0
C903 C 0.72087 0.2571 0.84513 0.0
C904 C 0.77157 0.30201 0.57543 0.0
C905 C 0.77324 0.27791 0.53535 0.0
C906 C 0.77124 0.3 0.66691 0.0
C907 C 0.77381 0.2735 0.71812 0.0
C908 C 0.77646 0.24935 0.6768 0.0
C909 C 0.77559 0.25177 0.58635 0.0
C910 C 0.76759 0.32607 0.70906 0.0
C911 C 0.78045 0.22096 0.72791 0.0
H912 H 0.81928 0.27894 0.961 0.0
H913 H 0.73021 0.25351 0.01354 0.0
H914 H 0.83109 0.26787 0.74042 0.0
H915 H 0.82642 0.30443 0.7399 0.0
H916 H 0.8457 0.28622 0.81867 0.0
H917 H 0.70304 0.25155 0.90097 0.0
H918 H 0.71641 0.27618 0.80136 0.0
H919 H 0.72182 0.23963 0.80605 0.0
H920 H 0.76962 0.32216 0.53585 0.0
H921 H 0.77722 0.23317 0.55489 0.0
H922 H 0.78621 0.3309 0.74037 0.0
H923 H 0.74881 0.32225 0.76191 0.0
H924 H 0.76491 0.34482 0.66068 0.0
H925 H 0.79906 0.2228 0.76191 0.0
H926 H 0.7836 0.20461 0.68491 0.0
H927 H 0.76175 0.21367 0.77946 0.0
C928 C 0.78484 0.75533 0.43446 0.0
C929 C 0.7843 0.7806 0.46866 0.0
C930 C 0.78407 0.75522 0.34465 0.0
C931 C 0.78385 0.78113 0.28766 0.0
C932 C 0.78399 0.80677 0.32188 0.0
C933 C 0.78365 0.80612 0.41244 0.0
C934 C 0.78303 0.72739 0.31105 0.0
C935 C 0.78481 0.83489 0.26275 0.0
C936 C 0.80899 0.78206 0.04398 0.0
C937 C 0.78345 0.78237 0.01083 0.0
C938 C 0.80947 0.78219 0.13382 0.0
C939 C 0.78368 0.78149 0.19209 0.0
C940 C 0.75777 0.78137 0.1589 0.0
C941 C 0.75802 0.78236 0.06813 0.0
C942 C 0.83758 0.78339 0.16618 0.0
C943 C 0.72979 0.77973 0.2194 0.0
H944 H 0.78506 0.73559 0.47844 0.0
H945 H 0.78346 0.82567 0.43917 0.0
H946 H 0.76416 0.72504 0.27851 0.0
H947 H 0.8019 0.72684 0.2608 0.0
H948 H 0.7822 0.70908 0.36464 0.0
H949 H 0.78605 0.85294 0.29931 0.0
H950 H 0.80336 0.83745 0.20928 0.0
H951 H 0.76564 0.83578 0.23098 0.0
H952 H 0.82866 0.78227 -0.00081 0.0
H953 H 0.73828 0.78229 0.04226 0.0
H954 H 0.83873 0.76419 0.2145 0.0
H955 H 0.83973 0.80181 0.20064 0.0
H956 H 0.85574 0.78508 0.11163 0.0
H957 H 0.72767 0.76076 0.27121 0.0
H958 H 0.71152 0.77872 0.18347 0.0
H959 H 0.72883 0.79841 0.25324 0.0
C960 C 0.55856 0.52951 0.66747 0.0
C961 C 0.53314 0.53072 0.72365 0.0
C962 C 0.55909 0.53006 0.57686 0.0
C963 C 0.53342 0.53076 0.5425 0.0
C964 C 0.50761 0.53155 0.59939 0.0
C965 C 0.50786 0.53207 0.68925 0.0
C966 C 0.58713 0.53023 0.5178 0.0
C967 C 0.47974 0.53141 0.56561 0.0
C968 C 0.53473 0.55635 0.29873 0.0
C969 C 0.53427 0.53088 0.26564 0.0
C970 C 0.53498 0.55666 0.38862 0.0
C971 C 0.53363 0.53078 0.44691 0.0
C972 C 0.53269 0.50494 0.41377 0.0
C973 C 0.53355 0.50535 0.32301 0.0
C974 C 0.53703 0.58466 0.42099 0.0
C975 C 0.53033 0.4769 0.47427 0.0
H976 H 0.57814 0.52874 0.69422 0.0
H977 H 0.4882 0.53282 0.73308 0.0
H978 H 0.58742 0.51113 0.48586 0.0
H979 H 0.59014 0.54884 0.46446 0.0
H980 H 0.60525 0.53084 0.55447 0.0
H981 H 0.46148 0.53091 0.61916 0.0
H982 H 0.47963 0.55046 0.51562 0.0
H983 H 0.47682 0.51275 0.53271 0.0
H984 H 0.53547 0.57609 0.25388 0.0
H985 H 0.53287 0.48565 0.29718 0.0
H986 H 0.55558 0.58622 0.45538 0.0
H987 H 0.51797 0.58625 0.46938 0.0
H988 H 0.5391 0.60287 0.36646 0.0
H989 H 0.54903 0.47533 0.50817 0.0
H990 H 0.52873 0.45874 0.43834 0.0
H991 H 0.5114 0.47523 0.52605 0.0
C992 C 0.04027 0.55252 0.77759 0.0
C993 C 0.03617 0.52711 0.74567 0.0
C994 C 0.03708 0.55297 0.86873 0.0
C995 C 0.03061 0.52728 0.92897 0.0
C996 C 1.02744 0.50148 0.89662 0.0
C997 C 0.02974 0.50178 0.80543 0.0
C998 C 0.03999 0.58097 0.90059 0.0
C999 C 1.0217 0.47355 0.95825 0.0
C1000 C 0.05028 0.52729 0.15626 0.0
C1001 C 1.02387 0.52757 0.20856 0.0
C1002 C 0.05265 0.5266 0.06574 0.0
C1003 C 1.02808 0.52726 0.02569 0.0
C1004 C 1.00128 0.52768 0.07821 0.0
C1005 C 0.99942 0.52726 0.16969 0.0
C1006 C 0.08146 0.52495 0.01316 0.0
C1007 C 0.9747 0.52916 0.03748 0.0
H1008 H 0.04481 0.57216 0.7314 0.0
H1009 H 1.02658 0.48212 0.78066 0.0
H1010 H 1.02041 0.58367 0.94533 0.0
H1011 H 0.05764 0.58152 0.93897 0.0
H1012 H 0.04399 0.59909 0.84539 0.0
H1013 H 1.02096 0.45533 0.92226 0.0
H1014 H 0.03838 0.4711 0.00039 0.0
H1015 H 1.00124 0.47289 0.00273 0.0
H1016 H 0.06917 0.52715 0.18669 0.0
H1017 H 0.97904 0.52758 0.21025 0.0
H1018 H 0.08722 0.54404 0.96211 0.0
H1019 H 0.08105 0.50644 0.97846 0.0
H1020 H 0.09823 0.52314 0.05524 0.0
H1021 H 0.97691 0.54808 -0.01455 0.0
H1022 H 0.95566 0.53017 0.08688 0.0
H1023 H 0.97136 0.51042 0.00539 0.0
loop_
_geom_bond_atom_site_label_1
_geom_bond_atom_site_label_2
_geom_bond_distance
_geom_bond_site_symmetry_2
_ccdc_geom_bond_type
Zn0 O1 2.055 . S
Zn0 O8 2.046 1_565 S
Zn0 N16 2.036 . S
Zn0 O28 2.053 . S
Zn0 O30 2.066 1_455 S
O1 Zn0 2.055 . S
O1 C4 1.259 1_565 S
C2 O30 1.256 . S
C2 O31 1.244 . S
Zn3 O5 2.046 . S
Zn3 O7 2.055 1_655 S
Zn3 N9 2.036 . S
Zn3 O27 2.066 . S
Zn3 O31 2.053 1_545 S
C4 O1 1.259 1_545 S
C4 O5 1.254 1_455 S
O5 Zn3 2.046 . S
O5 C4 1.254 1_655 S
C6 O27 1.256 1_455 S
C6 O28 1.244 1_545 S
O7 Zn3 2.055 1_455 S
O7 C29 1.259 . S
O8 Zn0 2.046 1_545 S
O8 C29 1.254 . S
N9 Zn3 2.036 . S
N9 C10 1.298 . S
N9 N12 1.398 . S
C10 N9 1.298 . S
C10 N13 1.367 . S
C10 C23 1.481 . S
C11 N12 1.299 . S
C11 N13 1.379 . S
N12 N9 1.398 . S
N12 C11 1.299 . S
N13 C10 1.367 . S
N13 C11 1.379 . S
C14 N16 1.298 . S
C14 N18 1.367 . S
C14 C22 1.481 . S
C15 N17 1.299 . S
C15 N18 1.379 . S
N16 Zn0 2.036 . S
N16 C14 1.298 . S
N16 N17 1.398 . S
N17 C15 1.299 . S
N17 N16 1.398 . S
N18 C14 1.367 . S
N18 C15 1.379 . S
H19 C22 0.980 . S
H20 C22 0.981 . S
H21 C22 0.981 . S
C22 C14 1.481 . S
C22 H19 0.980 . S
C22 H20 0.981 . S
C22 H21 0.981 . S
C23 C10 1.481 . S
C23 H24 0.980 . S
C23 H25 0.981 . S
C23 H26 0.981 . S
H24 C23 0.980 . S
H25 C23 0.981 . S
H26 C23 0.981 . S
O27 Zn3 2.066 . S
O27 C6 1.256 1_655 S
O28 Zn0 2.053 . S
O28 C6 1.244 1_565 S
C29 O7 1.259 . S
C29 O8 1.254 . S
O30 Zn0 2.066 1_655 S
O30 C2 1.256 . S
O31 C2 1.244 . S
O31 Zn3 2.053 1_565 S
Zn32 O33 2.055 . S
Zn32 O40 2.046 . S
Zn32 N48 2.036 . S
Zn32 O60 2.053 . S
Zn32 O62 2.066 . S
O33 Zn32 2.055 . S
O33 C36 1.259 . S
C34 O62 1.256 . S
C34 O63 1.244 . S
Zn35 O37 2.046 . S
Zn35 O39 2.055 . S
Zn35 N41 2.036 . S
Zn35 O59 2.066 . S
Zn35 O63 2.053 . S
C36 O33 1.259 . S
C36 O37 1.254 . S
O37 Zn35 2.046 . S
O37 C36 1.254 . S
C38 O59 1.256 . S
C38 O60 1.244 . S
O39 Zn35 2.055 . S
O39 C61 1.259 . S
O40 Zn32 2.046 . S
O40 C61 1.254 . S
N41 Zn35 2.036 . S
N41 C42 1.298 . S
N41 N44 1.398 . S
C42 N41 1.298 . S
C42 N45 1.367 . S
C42 C55 1.481 . S
C43 N44 1.299 . S
C43 N45 1.379 . S
N44 N41 1.398 . S
N44 C43 1.299 . S
N45 C42 1.367 . S
N45 C43 1.379 . S
C46 N48 1.298 . S
C46 N50 1.367 . S
C46 C54 1.481 . S
C47 N49 1.299 . S
C47 N50 1.379 . S
N48 Zn32 2.036 . S
N48 C46 1.298 . S
N48 N49 1.398 . S
N49 C47 1.299 . S
N49 N48 1.398 . S
N50 C46 1.367 . S
N50 C47 1.379 . S
H51 C54 0.980 . S
H52 C54 0.981 . S
H53 C54 0.981 . S
C54 C46 1.481 . S
C54 H51 0.980 . S
C54 H52 0.981 . S
C54 H53 0.981 . S
C55 C42 1.481 . S
C55 H56 0.980 . S
C55 H57 0.981 . S
C55 H58 0.981 . S
H56 C55 0.980 . S
H57 C55 0.981 . S
H58 C55 0.981 . S
O59 Zn35 2.066 . S
O59 C38 1.256 . S
O60 Zn32 2.053 . S
O60 C38 1.244 . S
C61 O39 1.259 . S
C61 O40 1.254 . S
O62 Zn32 2.066 . S
O62 C34 1.256 . S
O63 C34 1.244 . S
O63 Zn35 2.053 . S
Zn64 O65 2.055 1_556 S
Zn64 O72 2.046 . S
Zn64 N80 2.036 . S
Zn64 O92 2.053 1_545 S
Zn64 O94 2.066 1_556 S
O65 Zn64 2.055 1_554 S
O65 C68 1.259 . S
C66 O94 1.256 . S
C66 O95 1.244 1_545 S
Zn67 O69 2.046 1_566 S
Zn67 O71 2.055 . S
Zn67 N73 2.036 1_556 S
Zn67 O91 2.066 . S
Zn67 O95 2.053 1_556 S
C68 O65 1.259 . S
C68 O69 1.254 . S
O69 Zn67 2.046 1_544 S
O69 C68 1.254 . S
C70 O91 1.256 . S
C70 O92 1.244 . S
O71 Zn67 2.055 . S
O71 C93 1.259 1_565 S
O72 Zn64 2.046 . S
O72 C93 1.254 . S
N73 Zn67 2.036 1_554 S
N73 C74 1.298 1_554 S
N73 N76 1.398 . S
C74 N73 1.298 1_556 S
C74 N77 1.367 . S
C74 C87 1.481 . S
C75 N76 1.299 . S
C75 N77 1.379 1_554 S
N76 N73 1.398 . S
N76 C75 1.299 . S
N77 C74 1.367 . S
N77 C75 1.379 1_556 S
C78 N80 1.298 1_554 S
C78 N82 1.367 . S
C78 C86 1.481 . S
C79 N81 1.299 . S
C79 N82 1.379 1_556 S
N80 Zn64 2.036 . S
N80 C78 1.298 1_556 S
N80 N81 1.398 . S
N81 C79 1.299 . S
N81 N80 1.398 . S
N82 C78 1.367 . S
N82 C79 1.379 1_554 S
H83 C86 0.980 . S
H84 C86 0.981 . S
H85 C86 0.981 . S
C86 C78 1.481 . S
C86 H83 0.980 . S
C86 H84 0.981 . S
C86 H85 0.981 . S
C87 C74 1.481 . S
C87 H88 0.980 . S
C87 H89 0.981 . S
C87 H90 0.981 . S
H88 C87 0.980 . S
H89 C87 0.981 . S
H90 C87 0.981 . S
O91 Zn67 2.066 . S
O91 C70 1.256 . S
O92 Zn64 2.053 1_565 S
O92 C70 1.244 . S
C93 O71 1.259 1_545 S
C93 O72 1.254 . S
O94 Zn64 2.066 1_554 S
O94 C66 1.256 . S
O95 C66 1.244 1_565 S
O95 Zn67 2.053 1_554 S
Zn96 O97 2.055 . S
Zn96 O104 2.046 . S
Zn96 N112 2.036 . S
Zn96 O124 2.053 . S
Zn96 O126 2.066 . S
O97 Zn96 2.055 . S
O97 C100 1.259 . S
C98 O126 1.256 . S
C98 O127 1.244 . S
Zn99 O101 2.046 . S
Zn99 O103 2.055 . S
Zn99 N105 2.036 . S
Zn99 O123 2.066 . S
Zn99 O127 2.053 . S
C100 O97 1.259 . S
C100 O101 1.254 . S
O101 Zn99 2.046 . S
O101 C100 1.254 . S
C102 O123 1.256 . S
C102 O124 1.244 . S
O103 Zn99 2.055 . S
O103 C125 1.259 . S
O104 Zn96 2.046 . S
O104 C125 1.254 . S
N105 Zn99 2.036 . S
N105 C106 1.298 . S
N105 N108 1.398 . S
C106 N105 1.298 . S
C106 N109 1.367 . S
C106 C119 1.481 . S
C107 N108 1.299 . S
C107 N109 1.379 . S
N108 N105 1.398 . S
N108 C107 1.299 . S
N109 C106 1.367 . S
N109 C107 1.379 . S
C110 N112 1.298 . S
C110 N114 1.367 . S
C110 C118 1.481 . S
C111 N113 1.299 . S
C111 N114 1.379 . S
N112 Zn96 2.036 . S
N112 C110 1.298 . S
N112 N113 1.398 . S
N113 C111 1.299 . S
N113 N112 1.398 . S
N114 C110 1.367 . S
N114 C111 1.379 . S
H115 C118 0.980 . S
H116 C118 0.981 . S
H117 C118 0.981 . S
C118 C110 1.481 . S
C118 H115 0.980 . S
C118 H116 0.981 . S
C118 H117 0.981 . S
C119 C106 1.481 . S
C119 H120 0.980 . S
C119 H121 0.981 . S
C119 H122 0.981 . S
H120 C119 0.980 . S
H121 C119 0.981 . S
H122 C119 0.981 . S
O123 Zn99 2.066 . S
O123 C102 1.256 . S
O124 Zn96 2.053 . S
O124 C102 1.244 . S
C125 O103 1.259 . S
C125 O104 1.254 . S
O126 Zn96 2.066 . S
O126 C98 1.256 . S
O127 C98 1.244 . S
O127 Zn99 2.053 . S
Zn128 O129 2.055 . S
Zn128 O136 2.046 . S
Zn128 N144 2.036 . S
Zn128 O156 2.053 . S
Zn128 O158 2.066 . S
O129 Zn128 2.055 . S
O129 C132 1.259 . S
C130 O158 1.256 . S
C130 O159 1.244 . S
Zn131 O133 2.046 . S
Zn131 O135 2.055 . S
Zn131 N137 2.036 . S
Zn131 O155 2.066 . S
Zn131 O159 2.053 . S
C132 O129 1.259 . S
C132 O133 1.254 . S
O133 Zn131 2.046 . S
O133 C132 1.254 . S
C134 O155 1.256 . S
C134 O156 1.244 . S
O135 Zn131 2.055 . S
O135 C157 1.259 . S
O136 Zn128 2.046 . S
O136 C157 1.254 . S
N137 Zn131 2.036 . S
N137 C138 1.298 . S
N137 N140 1.398 . S
C138 N137 1.298 . S
C138 N141 1.367 . S
C138 C151 1.481 . S
C139 N140 1.299 . S
C139 N141 1.379 . S
N140 N137 1.398 . S
N140 C139 1.299 . S
N141 C138 1.367 . S
N141 C139 1.379 . S
C142 N144 1.298 . S
C142 N146 1.367 . S
C142 C150 1.481 . S
C143 N145 1.299 . S
C143 N146 1.379 . S
N144 Zn128 2.036 . S
N144 C142 1.298 . S
N144 N145 1.398 . S
N145 C143 1.299 . S
N145 N144 1.398 . S
N146 C142 1.367 . S
N146 C143 1.379 . S
H147 C150 0.980 . S
H148 C150 0.981 . S
H149 C150 0.981 . S
C150 C142 1.481 . S
C150 H147 0.980 . S
C150 H148 0.981 . S
C150 H149 0.981 . S
C151 C138 1.481 . S
C151 H152 0.980 . S
C151 H153 0.981 . S
C151 H154 0.981 . S
H152 C151 0.980 . S
H153 C151 0.981 . S
H154 C151 0.981 . S
O155 Zn131 2.066 . S
O155 C134 1.256 . S
O156 Zn128 2.053 . S
O156 C134 1.244 . S
C157 O135 1.259 . S
C157 O136 1.254 . S
O158 Zn128 2.066 . S
O158 C130 1.256 . S
O159 C130 1.244 . S
O159 Zn131 2.053 . S
Zn160 O161 2.055 . S
Zn160 O168 2.046 . S
Zn160 N176 2.036 . S
Zn160 O188 2.053 . S
Zn160 O190 2.066 . S
O161 Zn160 2.055 . S
O161 C164 1.259 . S
C162 O190 1.256 . S
C162 O191 1.244 . S
Zn163 O165 2.046 . S
Zn163 O167 2.055 . S
Zn163 N169 2.036 . S
Zn163 O187 2.066 . S
Zn163 O191 2.053 . S
C164 O161 1.259 . S
C164 O165 1.254 . S
O165 Zn163 2.046 . S
O165 C164 1.254 . S
C166 O187 1.256 . S
C166 O188 1.244 . S
O167 Zn163 2.055 . S
O167 C189 1.259 . S
O168 Zn160 2.046 . S
O168 C189 1.254 . S
N169 Zn163 2.036 . S
N169 C170 1.298 . S
N169 N172 1.398 . S
C170 N169 1.298 . S
C170 N173 1.367 . S
C170 C183 1.481 . S
C171 N172 1.299 . S
C171 N173 1.379 . S
N172 N169 1.398 . S
N172 C171 1.299 . S
N173 C170 1.367 . S
N173 C171 1.379 . S
C174 N176 1.298 . S
C174 N178 1.367 . S
C174 C182 1.481 . S
C175 N177 1.299 . S
C175 N178 1.379 . S
N176 Zn160 2.036 . S
N176 C174 1.298 . S
N176 N177 1.398 . S
N177 C175 1.299 . S
N177 N176 1.398 . S
N178 C174 1.367 . S
N178 C175 1.379 . S
H179 C182 0.980 . S
H180 C182 0.981 . S
H181 C182 0.981 . S
C182 C174 1.481 . S
C182 H179 0.980 . S
C182 H180 0.981 . S
C182 H181 0.981 . S
C183 C170 1.481 . S
C183 H184 0.980 . S
C183 H185 0.981 . S
C183 H186 0.981 . S
H184 C183 0.980 . S
H185 C183 0.981 . S
H186 C183 0.981 . S
O187 Zn163 2.066 . S
O187 C166 1.256 . S
O188 Zn160 2.053 . S
O188 C166 1.244 . S
C189 O167 1.259 . S
C189 O168 1.254 . S
O190 Zn160 2.066 . S
O190 C162 1.256 . S
O191 C162 1.244 . S
O191 Zn163 2.053 . S
Zn192 O193 2.055 . S
Zn192 O200 2.046 . S
Zn192 N208 2.036 . S
Zn192 O220 2.053 1_554 S
Zn192 O222 2.066 . S
O193 Zn192 2.055 . S
O193 C196 1.259 . S
C194 O222 1.256 . S
C194 O223 1.244 . S
Zn195 O197 2.046 . S
Zn195 O199 2.055 1_554 S
Zn195 N201 2.036 . S
Zn195 O219 2.066 1_554 S
Zn195 O223 2.053 . S
C196 O193 1.259 . S
C196 O197 1.254 . S
O197 Zn195 2.046 . S
O197 C196 1.254 . S
C198 O219 1.256 . S
C198 O220 1.244 . S
O199 Zn195 2.055 1_556 S
O199 C221 1.259 . S
O200 Zn192 2.046 . S
O200 C221 1.254 1_554 S
N201 Zn195 2.036 . S
N201 C202 1.298 1_554 S
N201 N204 1.398 . S
C202 N201 1.298 1_556 S
C202 N205 1.367 . S
C202 C215 1.481 . S
C203 N204 1.299 . S
C203 N205 1.379 1_554 S
N204 N201 1.398 . S
N204 C203 1.299 . S
N205 C202 1.367 . S
N205 C203 1.379 1_556 S
C206 N208 1.298 . S
C206 N210 1.367 . S
C206 C214 1.481 . S
C207 N209 1.299 . S
C207 N210 1.379 1_556 S
N208 Zn192 2.036 . S
N208 C206 1.298 . S
N208 N209 1.398 1_554 S
N209 C207 1.299 . S
N209 N208 1.398 1_556 S
N210 C206 1.367 . S
N210 C207 1.379 1_554 S
H211 C214 0.980 . S
H212 C214 0.981 . S
H213 C214 0.981 . S
C214 C206 1.481 . S
C214 H211 0.980 . S
C214 H212 0.981 . S
C214 H213 0.981 . S
C215 C202 1.481 . S
C215 H216 0.980 . S
C215 H217 0.981 . S
C215 H218 0.981 . S
H216 C215 0.980 . S
H217 C215 0.981 . S
H218 C215 0.981 . S
O219 Zn195 2.066 1_556 S
O219 C198 1.256 . S
O220 Zn192 2.053 1_556 S
O220 C198 1.244 . S
C221 O199 1.259 . S
C221 O200 1.254 1_556 S
O222 Zn192 2.066 . S
O222 C194 1.256 . S
O223 C194 1.244 . S
O223 Zn195 2.053 . S
Zn224 O225 2.055 . S
Zn224 O232 2.046 . S
Zn224 N240 2.036 . S
Zn224 O252 2.053 . S
Zn224 O254 2.066 1_655 S
O225 Zn224 2.055 . S
O225 C228 1.259 1_655 S
C226 O254 1.256 . S
C226 O255 1.244 . S
Zn227 O229 2.046 . S
Zn227 O231 2.055 1_455 S
Zn227 N233 2.036 . S
Zn227 O251 2.066 . S
Zn227 O255 2.053 . S
C228 O225 1.259 1_455 S
C228 O229 1.254 . S
O229 Zn227 2.046 . S
O229 C228 1.254 . S
C230 O251 1.256 . S
C230 O252 1.244 1_455 S
O231 Zn227 2.055 1_655 S
O231 C253 1.259 . S
O232 Zn224 2.046 . S
O232 C253 1.254 . S
N233 Zn227 2.036 . S
N233 C234 1.298 . S
N233 N236 1.398 . S
C234 N233 1.298 . S
C234 N237 1.367 . S
C234 C247 1.481 . S
C235 N236 1.299 . S
C235 N237 1.379 . S
N236 N233 1.398 . S
N236 C235 1.299 . S
N237 C234 1.367 . S
N237 C235 1.379 . S
C238 N240 1.298 . S
C238 N242 1.367 . S
C238 C246 1.481 . S
C239 N241 1.299 . S
C239 N242 1.379 . S
N240 Zn224 2.036 . S
N240 C238 1.298 . S
N240 N241 1.398 . S
N241 C239 1.299 . S
N241 N240 1.398 . S
N242 C238 1.367 . S
N242 C239 1.379 . S
H243 C246 0.980 . S
H244 C246 0.981 . S
H245 C246 0.981 . S
C246 C238 1.481 . S
C246 H243 0.980 . S
C246 H244 0.981 . S
C246 H245 0.981 . S
C247 C234 1.481 . S
C247 H248 0.980 . S
C247 H249 0.981 . S
C247 H250 0.981 . S
H248 C247 0.980 . S
H249 C247 0.981 . S
H250 C247 0.981 . S
O251 Zn227 2.066 . S
O251 C230 1.256 . S
O252 Zn224 2.053 . S
O252 C230 1.244 1_655 S
C253 O231 1.259 . S
C253 O232 1.254 . S
O254 Zn224 2.066 1_455 S
O254 C226 1.256 . S
O255 C226 1.244 . S
O255 Zn227 2.053 . S
C256 C257 1.391 . S
C256 C258 1.394 . S
C256 H272 0.931 . S
C257 C256 1.391 . S
C257 C261 1.376 . S
C258 C256 1.394 . S
C258 C259 1.369 . S
C258 C262 1.531 . S
C259 C258 1.369 . S
C259 C260 1.410 . S
C259 C267 1.503 . S
C260 C259 1.410 . S
C260 C261 1.392 . S
C260 C263 1.511 . S
C261 C257 1.376 . S
C261 C260 1.392 . S
C261 H273 0.929 . S
C262 C258 1.531 . S
C262 H274 0.960 . S
C262 H275 0.962 . S
C262 H276 0.960 . S
C263 C260 1.511 . S
C263 H277 0.961 . S
C263 H278 0.961 . S
C263 H279 0.961 . S
C264 C265 1.370 . S
C264 C266 1.363 . S
C264 H280 0.931 . S
C265 C264 1.370 . S
C265 C269 1.408 . S
C266 C264 1.363 . S
C266 C267 1.370 . S
C266 C270 1.524 . S
C267 C259 1.503 . S
C267 C266 1.370 . S
C267 C268 1.403 . S
C268 C267 1.403 . S
C268 C269 1.404 . S
C268 C271 1.539 . S
C269 C265 1.408 . S
C269 C268 1.404 . S
C269 H281 0.930 . S
C270 C266 1.524 . S
C270 H282 0.956 . S
C270 H283 0.961 . S
C270 H284 0.961 . S
C271 C268 1.539 . S
C271 H285 0.958 . S
C271 H286 0.961 . S
C271 H287 0.960 . S
H272 C256 0.931 . S
H273 C261 0.929 . S
H274 C262 0.960 . S
H275 C262 0.962 . S
H276 C262 0.960 . S
H277 C263 0.961 . S
H278 C263 0.961 . S
H279 C263 0.961 . S
H280 C264 0.931 . S
H281 C269 0.930 . S
H282 C270 0.956 . S
H283 C270 0.961 . S
H284 C270 0.961 . S
H285 C271 0.958 . S
H286 C271 0.961 . S
H287 C271 0.960 . S
C288 C289 1.391 . S
C288 C290 1.394 . S
C288 H304 0.931 . S
C289 C288 1.391 . S
C289 C293 1.376 . S
C290 C288 1.394 . S
C290 C291 1.369 . S
C290 C294 1.531 . S
C291 C290 1.369 . S
C291 C292 1.410 . S
C291 C299 1.503 . S
C292 C291 1.410 . S
C292 C293 1.392 . S
C292 C295 1.511 . S
C293 C289 1.376 . S
C293 C292 1.392 . S
C293 H305 0.929 . S
C294 C290 1.531 . S
C294 H306 0.960 . S
C294 H307 0.962 . S
C294 H308 0.960 . S
C295 C292 1.511 . S
C295 H309 0.961 . S
C295 H310 0.961 . S
C295 H311 0.961 . S
C296 C297 1.370 . S
C296 C298 1.363 . S
C296 H312 0.931 . S
C297 C296 1.370 . S
C297 C301 1.408 . S
C298 C296 1.363 . S
C298 C299 1.370 . S
C298 C302 1.524 . S
C299 C291 1.503 . S
C299 C298 1.370 . S
C299 C300 1.403 . S
C300 C299 1.403 . S
C300 C301 1.404 . S
C300 C303 1.539 . S
C301 C297 1.408 . S
C301 C300 1.404 . S
C301 H313 0.930 . S
C302 C298 1.524 . S
C302 H314 0.956 . S
C302 H315 0.961 . S
C302 H316 0.961 . S
C303 C300 1.539 . S
C303 H317 0.958 . S
C303 H318 0.961 . S
C303 H319 0.960 . S
H304 C288 0.931 . S
H305 C293 0.929 . S
H306 C294 0.960 . S
H307 C294 0.962 . S
H308 C294 0.960 . S
H309 C295 0.961 . S
H310 C295 0.961 . S
H311 C295 0.961 . S
H312 C296 0.931 . S
H313 C301 0.930 . S
H314 C302 0.956 . S
H315 C302 0.961 . S
H316 C302 0.961 . S
H317 C303 0.958 . S
H318 C303 0.961 . S
H319 C303 0.960 . S
C320 C321 1.391 . S
C320 C322 1.394 . S
C320 H336 0.931 . S
C321 C320 1.391 . S
C321 C325 1.376 . S
C322 C320 1.394 . S
C322 C323 1.369 . S
C322 C326 1.531 . S
C323 C322 1.369 . S
C323 C324 1.410 . S
C323 C331 1.503 . S
C324 C323 1.410 . S
C324 C325 1.392 . S
C324 C327 1.511 1_556 S
C325 C321 1.376 . S
C325 C324 1.392 . S
C325 H337 0.929 . S
C326 C322 1.531 . S
C326 H338 0.960 . S
C326 H339 0.962 . S
C326 H340 0.960 . S
C327 C324 1.511 1_554 S
C327 H341 0.961 . S
C327 H342 0.961 . S
C327 H343 0.961 . S
C328 C329 1.370 . S
C328 C330 1.363 . S
C328 H344 0.931 . S
C329 C328 1.370 . S
C329 C333 1.408 . S
C330 C328 1.363 . S
C330 C331 1.370 . S
C330 C334 1.524 . S
C331 C323 1.503 . S
C331 C330 1.370 . S
C331 C332 1.403 . S
C332 C331 1.403 . S
C332 C333 1.404 . S
C332 C335 1.539 . S
C333 C329 1.408 . S
C333 C332 1.404 . S
C333 H345 0.930 . S
C334 C330 1.524 . S
C334 H346 0.956 . S
C334 H347 0.961 . S
C334 H348 0.961 . S
C335 C332 1.539 . S
C335 H349 0.958 . S
C335 H350 0.961 . S
C335 H351 0.960 . S
H336 C320 0.931 . S
H337 C325 0.929 . S
H338 C326 0.960 . S
H339 C326 0.962 . S
H340 C326 0.960 . S
H341 C327 0.961 . S
H342 C327 0.961 . S
H343 C327 0.961 . S
H344 C328 0.931 . S
H345 C333 0.930 . S
H346 C334 0.956 . S
H347 C334 0.961 . S
H348 C334 0.961 . S
H349 C335 0.958 . S
H350 C335 0.961 . S
H351 C335 0.960 . S
C352 C353 1.391 . S
C352 C354 1.394 . S
C352 H368 0.931 1_554 S
C353 C352 1.391 . S
C353 C357 1.376 . S
C354 C352 1.394 . S
C354 C355 1.369 . S
C354 C358 1.531 1_554 S
C355 C354 1.369 . S
C355 C356 1.410 . S
C355 C363 1.503 . S
C356 C355 1.410 . S
C356 C357 1.392 . S
C356 C359 1.511 . S
C357 C353 1.376 . S
C357 C356 1.392 . S
C357 H369 0.929 . S
C358 C354 1.531 1_556 S
C358 H370 0.960 . S
C358 H371 0.962 1_556 S
C358 H372 0.960 . S
C359 C356 1.511 . S
C359 H373 0.961 . S
C359 H374 0.961 . S
C359 H375 0.961 . S
C360 C361 1.370 . S
C360 C362 1.363 . S
C360 H376 0.931 . S
C361 C360 1.370 . S
C361 C365 1.408 . S
C362 C360 1.363 . S
C362 C363 1.370 . S
C362 C366 1.524 . S
C363 C355 1.503 . S
C363 C362 1.370 . S
C363 C364 1.403 . S
C364 C363 1.403 . S
C364 C365 1.404 . S
C364 C367 1.539 1_554 S
C365 C361 1.408 . S
C365 C364 1.404 . S
C365 H377 0.930 . S
C366 C362 1.524 . S
C366 H378 0.956 . S
C366 H379 0.961 . S
C366 H380 0.961 . S
C367 C364 1.539 1_556 S
C367 H381 0.958 . S
C367 H382 0.961 . S
C367 H383 0.960 . S
H368 C352 0.931 1_556 S
H369 C357 0.929 . S
H370 C358 0.960 . S
H371 C358 0.962 1_554 S
H372 C358 0.960 . S
H373 C359 0.961 . S
H374 C359 0.961 . S
H375 C359 0.961 . S
H376 C360 0.931 . S
H377 C365 0.930 . S
H378 C366 0.956 . S
H379 C366 0.961 . S
H380 C366 0.961 . S
H381 C367 0.958 . S
H382 C367 0.961 . S
H383 C367 0.960 . S
C384 C385 1.391 . S
C384 C386 1.394 . S
C384 H400 0.931 . S
C385 C384 1.391 . S
C385 C389 1.376 . S
C386 C384 1.394 . S
C386 C387 1.369 . S
C386 C390 1.531 . S
C387 C386 1.369 . S
C387 C388 1.410 . S
C387 C395 1.503 . S
C388 C387 1.410 . S
C388 C389 1.392 . S
C388 C391 1.511 . S
C389 C385 1.376 . S
C389 C388 1.392 . S
C389 H401 0.929 . S
C390 C386 1.531 . S
C390 H402 0.960 . S
C390 H403 0.962 . S
C390 H404 0.960 . S
C391 C388 1.511 . S
C391 H405 0.961 . S
C391 H406 0.961 . S
C391 H407 0.961 . S
C392 C393 1.370 . S
C392 C394 1.363 . S
C392 H408 0.931 . S
C393 C392 1.370 . S
C393 C397 1.408 . S
C394 C392 1.363 . S
C394 C395 1.370 . S
C394 C398 1.524 . S
C395 C387 1.503 . S
C395 C394 1.370 . S
C395 C396 1.403 . S
C396 C395 1.403 . S
C396 C397 1.404 . S
C396 C399 1.539 . S
C397 C393 1.408 . S
C397 C396 1.404 . S
C397 H409 0.930 . S
C398 C394 1.524 . S
C398 H410 0.956 . S
C398 H411 0.961 . S
C398 H412 0.961 . S
C399 C396 1.539 . S
C399 H413 0.958 . S
C399 H414 0.961 . S
C399 H415 0.960 . S
H400 C384 0.931 . S
H401 C389 0.929 . S
H402 C390 0.960 . S
H403 C390 0.962 . S
H404 C390 0.960 . S
H405 C391 0.961 . S
H406 C391 0.961 . S
H407 C391 0.961 . S
H408 C392 0.931 . S
H409 C397 0.930 . S
H410 C398 0.956 . S
H411 C398 0.961 . S
H412 C398 0.961 . S
H413 C399 0.958 . S
H414 C399 0.961 . S
H415 C399 0.960 . S
C416 C417 1.391 . S
C416 C418 1.394 . S
C416 H432 0.931 . S
C417 C416 1.391 . S
C417 C421 1.376 . S
C418 C416 1.394 . S
C418 C419 1.369 . S
C418 C422 1.531 . S
C419 C418 1.369 . S
C419 C420 1.410 . S
C419 C427 1.503 . S
C420 C419 1.410 . S
C420 C421 1.392 . S
C420 C423 1.511 . S
C421 C417 1.376 . S
C421 C420 1.392 . S
C421 H433 0.929 . S
C422 C418 1.531 . S
C422 H434 0.960 . S
C422 H435 0.962 . S
C422 H436 0.960 . S
C423 C420 1.511 . S
C423 H437 0.961 . S
C423 H438 0.961 . S
C423 H439 0.961 . S
C424 C425 1.370 . S
C424 C426 1.363 . S
C424 H440 0.931 . S
C425 C424 1.370 . S
C425 C429 1.408 . S
C426 C424 1.363 . S
C426 C427 1.370 . S
C426 C430 1.524 . S
C427 C419 1.503 . S
C427 C426 1.370 . S
C427 C428 1.403 . S
C428 C427 1.403 . S
C428 C429 1.404 . S
C428 C431 1.539 . S
C429 C425 1.408 . S
C429 C428 1.404 . S
C429 H441 0.930 . S
C430 C426 1.524 . S
C430 H442 0.956 . S
C430 H443 0.961 . S
C430 H444 0.961 . S
C431 C428 1.539 . S
C431 H445 0.958 . S
C431 H446 0.961 . S
C431 H447 0.960 . S
H432 C416 0.931 . S
H433 C421 0.929 . S
H434 C422 0.960 . S
H435 C422 0.962 . S
H436 C422 0.960 . S
H437 C423 0.961 . S
H438 C423 0.961 . S
H439 C423 0.961 . S
H440 C424 0.931 . S
H441 C429 0.930 . S
H442 C430 0.956 . S
H443 C430 0.961 . S
H444 C430 0.961 . S
H445 C431 0.958 . S
H446 C431 0.961 . S
H447 C431 0.960 . S
C448 C449 1.391 . S
C448 C450 1.394 . S
C448 H464 0.931 . S
C449 C448 1.391 . S
C449 C453 1.376 . S
C450 C448 1.394 . S
C450 C451 1.369 . S
C450 C454 1.531 . S
C451 C450 1.369 . S
C451 C452 1.410 . S
C451 C459 1.503 . S
C452 C451 1.410 . S
C452 C453 1.392 . S
C452 C455 1.511 . S
C453 C449 1.376 . S
C453 C452 1.392 . S
C453 H465 0.929 . S
C454 C450 1.531 . S
C454 H466 0.960 . S
C454 H467 0.962 . S
C454 H468 0.960 . S
C455 C452 1.511 . S
C455 H469 0.961 . S
C455 H470 0.961 . S
C455 H471 0.961 . S
C456 C457 1.370 . S
C456 C458 1.363 . S
C456 H472 0.931 1_554 S
C457 C456 1.370 . S
C457 C461 1.408 . S
C458 C456 1.363 . S
C458 C459 1.370 . S
C458 C462 1.524 1_554 S
C459 C451 1.503 . S
C459 C458 1.370 . S
C459 C460 1.403 . S
C460 C459 1.403 . S
C460 C461 1.404 . S
C460 C463 1.539 . S
C461 C457 1.408 . S
C461 C460 1.404 . S
C461 H473 0.930 . S
C462 C458 1.524 1_556 S
C462 H474 0.956 . S
C462 H475 0.961 1_556 S
C462 H476 0.961 . S
C463 C460 1.539 . S
C463 H477 0.958 . S
C463 H478 0.961 . S
C463 H479 0.960 . S
H464 C448 0.931 . S
H465 C453 0.929 . S
H466 C454 0.960 . S
H467 C454 0.962 . S
H468 C454 0.960 . S
H469 C455 0.961 . S
H470 C455 0.961 . S
H471 C455 0.961 . S
H472 C456 0.931 1_556 S
H473 C461 0.930 . S
H474 C462 0.956 . S
H475 C462 0.961 1_554 S
H476 C462 0.961 . S
H477 C463 0.958 . S
H478 C463 0.961 . S
H479 C463 0.960 . S
C480 C481 1.391 . S
C480 C482 1.394 . S
C480 H496 0.931 . S
C481 C480 1.391 . S
C481 C485 1.376 . S
C482 C480 1.394 . S
C482 C483 1.369 . S
C482 C486 1.531 . S
C483 C482 1.369 . S
C483 C484 1.410 . S
C483 C491 1.503 . S
C484 C483 1.410 . S
C484 C485 1.392 . S
C484 C487 1.511 . S
C485 C481 1.376 . S
C485 C484 1.392 . S
C485 H497 0.929 . S
C486 C482 1.531 . S
C486 H498 0.960 . S
C486 H499 0.962 . S
C486 H500 0.960 . S
C487 C484 1.511 . S
C487 H501 0.961 . S
C487 H502 0.961 . S
C487 H503 0.961 . S
C488 C489 1.370 . S
C488 C490 1.363 . S
C488 H504 0.931 . S
C489 C488 1.370 . S
C489 C493 1.408 1_556 S
C490 C488 1.363 . S
C490 C491 1.370 . S
C490 C494 1.524 . S
C491 C483 1.503 . S
C491 C490 1.370 . S
C491 C492 1.403 1_556 S
C492 C491 1.403 1_554 S
C492 C493 1.404 . S
C492 C495 1.539 . S
C493 C489 1.408 1_554 S
C493 C492 1.404 . S
C493 H505 0.930 . S
C494 C490 1.524 . S
C494 H506 0.956 . S
C494 H507 0.961 . S
C494 H508 0.961 . S
C495 C492 1.539 . S
C495 H509 0.958 . S
C495 H510 0.961 . S
C495 H511 0.960 . S
H496 C480 0.931 . S
H497 C485 0.929 . S
H498 C486 0.960 . S
H499 C486 0.962 . S
H500 C486 0.960 . S
H501 C487 0.961 . S
H502 C487 0.961 . S
H503 C487 0.961 . S
H504 C488 0.931 . S
H505 C493 0.930 . S
H506 C494 0.956 . S
H507 C494 0.961 . S
H508 C494 0.961 . S
H509 C495 0.958 . S
H510 C495 0.961 . S
H511 C495 0.960 . S
C512 C513 1.391 . S
C512 C514 1.394 . S
C512 H528 0.931 1_556 S
C513 C512 1.391 . S
C513 C517 1.376 . S
C514 C512 1.394 . S
C514 C515 1.369 . S
C514 C518 1.531 . S
C515 C514 1.369 . S
C515 C516 1.410 . S
C515 C523 1.503 . S
C516 C515 1.410 . S
C516 C517 1.392 . S
C516 C519 1.511 . S
C517 C513 1.376 . S
C517 C516 1.392 . S
C517 H529 0.929 . S
C518 C514 1.531 . S
C518 H530 0.960 1_556 S
C518 H531 0.962 . S
C518 H532 0.960 1_556 S
C519 C516 1.511 . S
C519 H533 0.961 . S
C519 H534 0.961 . S
C519 H535 0.961 . S
C520 C521 1.370 . S
C520 C522 1.363 . S
C520 H536 0.931 . S
C521 C520 1.370 . S
C521 C525 1.408 . S
C522 C520 1.363 . S
C522 C523 1.370 . S
C522 C526 1.524 . S
C523 C515 1.503 . S
C523 C522 1.370 . S
C523 C524 1.403 . S
C524 C523 1.403 . S
C524 C525 1.404 . S
C524 C527 1.539 1_556 S
C525 C521 1.408 . S
C525 C524 1.404 . S
C525 H537 0.930 . S
C526 C522 1.524 . S
C526 H538 0.956 . S
C526 H539 0.961 . S
C526 H540 0.961 . S
C527 C524 1.539 1_554 S
C527 H541 0.958 . S
C527 H542 0.961 . S
C527 H543 0.960 . S
H528 C512 0.931 1_554 S
H529 C517 0.929 . S
H530 C518 0.960 1_554 S
H531 C518 0.962 . S
H532 C518 0.960 1_554 S
H533 C519 0.961 . S
H534 C519 0.961 . S
H535 C519 0.961 . S
H536 C520 0.931 . S
H537 C525 0.930 . S
H538 C526 0.956 . S
H539 C526 0.961 . S
H540 C526 0.961 . S
H541 C527 0.958 . S
H542 C527 0.961 . S
H543 C527 0.960 . S
C544 C545 1.391 . S
C544 C546 1.394 . S
C544 H560 0.931 . S
C545 C544 1.391 . S
C545 C549 1.376 . S
C546 C544 1.394 . S
C546 C547 1.369 . S
C546 C550 1.531 1_554 S
C547 C546 1.369 . S
C547 C548 1.410 . S
C547 C555 1.503 . S
C548 C547 1.410 . S
C548 C549 1.392 . S
C548 C551 1.511 . S
C549 C545 1.376 . S
C549 C548 1.392 . S
C549 H561 0.929 . S
C550 C546 1.531 1_556 S
C550 H562 0.960 . S
C550 H563 0.962 . S
C550 H564 0.960 . S
C551 C548 1.511 . S
C551 H565 0.961 . S
C551 H566 0.961 . S
C551 H567 0.961 . S
C552 C553 1.370 . S
C552 C554 1.363 . S
C552 H568 0.931 . S
C553 C552 1.370 . S
C553 C557 1.408 . S
C554 C552 1.363 . S
C554 C555 1.370 . S
C554 C558 1.524 . S
C555 C547 1.503 . S
C555 C554 1.370 . S
C555 C556 1.403 . S
C556 C555 1.403 . S
C556 C557 1.404 . S
C556 C559 1.539 . S
C557 C553 1.408 . S
C557 C556 1.404 . S
C557 H569 0.930 . S
C558 C554 1.524 . S
C558 H570 0.956 . S
C558 H571 0.961 . S
C558 H572 0.961 . S
C559 C556 1.539 . S
C559 H573 0.958 . S
C559 H574 0.961 . S
C559 H575 0.960 . S
H560 C544 0.931 . S
H561 C549 0.929 . S
H562 C550 0.960 . S
H563 C550 0.962 . S
H564 C550 0.960 . S
H565 C551 0.961 . S
H566 C551 0.961 . S
H567 C551 0.961 . S
H568 C552 0.931 . S
H569 C557 0.930 . S
H570 C558 0.956 . S
H571 C558 0.961 . S
H572 C558 0.961 . S
H573 C559 0.958 . S
H574 C559 0.961 . S
H575 C559 0.960 . S
C576 C577 1.391 . S
C576 C578 1.394 . S
C576 H592 0.931 . S
C577 C576 1.391 . S
C577 C581 1.376 . S
C578 C576 1.394 . S
C578 C579 1.369 . S
C578 C582 1.531 . S
C579 C578 1.369 . S
C579 C580 1.410 . S
C579 C587 1.503 . S
C580 C579 1.410 . S
C580 C581 1.392 . S
C580 C583 1.511 . S
C581 C577 1.376 . S
C581 C580 1.392 . S
C581 H593 0.929 . S
C582 C578 1.531 . S
C582 H594 0.960 . S
C582 H595 0.962 . S
C582 H596 0.960 . S
C583 C580 1.511 . S
C583 H597 0.961 . S
C583 H598 0.961 . S
C583 H599 0.961 . S
C584 C585 1.370 . S
C584 C586 1.363 . S
C584 H600 0.931 . S
C585 C584 1.370 . S
C585 C589 1.408 . S
C586 C584 1.363 . S
C586 C587 1.370 . S
C586 C590 1.524 . S
C587 C579 1.503 . S
C587 C586 1.370 . S
C587 C588 1.403 . S
C588 C587 1.403 . S
C588 C589 1.404 . S
C588 C591 1.539 . S
C589 C585 1.408 . S
C589 C588 1.404 . S
C589 H601 0.930 . S
C590 C586 1.524 . S
C590 H602 0.956 . S
C590 H603 0.961 . S
C590 H604 0.961 . S
C591 C588 1.539 . S
C591 H605 0.958 . S
C591 H606 0.961 . S
C591 H607 0.960 . S
H592 C576 0.931 . S
H593 C581 0.929 . S
H594 C582 0.960 . S
H595 C582 0.962 . S
H596 C582 0.960 . S
H597 C583 0.961 . S
H598 C583 0.961 . S
H599 C583 0.961 . S
H600 C584 0.931 . S
H601 C589 0.930 . S
H602 C590 0.956 . S
H603 C590 0.961 . S
H604 C590 0.961 . S
H605 C591 0.958 . S
H606 C591 0.961 . S
H607 C591 0.960 . S
C608 C609 1.391 . S
C608 C610 1.394 . S
C608 H624 0.931 . S
C609 C608 1.391 . S
C609 C613 1.376 . S
C610 C608 1.394 . S
C610 C611 1.369 . S
C610 C614 1.531 . S
C611 C610 1.369 . S
C611 C612 1.410 . S
C611 C619 1.503 . S
C612 C611 1.410 . S
C612 C613 1.392 . S
C612 C615 1.511 . S
C613 C609 1.376 . S
C613 C612 1.392 . S
C613 H625 0.929 . S
C614 C610 1.531 . S
C614 H626 0.960 . S
C614 H627 0.962 . S
C614 H628 0.960 . S
C615 C612 1.511 . S
C615 H629 0.961 . S
C615 H630 0.961 . S
C615 H631 0.961 . S
C616 C617 1.370 . S
C616 C618 1.363 . S
C616 H632 0.931 . S
C617 C616 1.370 . S
C617 C621 1.408 . S
C618 C616 1.363 . S
C618 C619 1.370 . S
C618 C622 1.524 . S
C619 C611 1.503 . S
C619 C618 1.370 . S
C619 C620 1.403 . S
C620 C619 1.403 . S
C620 C621 1.404 . S
C620 C623 1.539 . S
C621 C617 1.408 . S
C621 C620 1.404 . S
C621 H633 0.930 . S
C622 C618 1.524 . S
C622 H634 0.956 . S
C622 H635 0.961 . S
C622 H636 0.961 . S
C623 C620 1.539 . S
C623 H637 0.958 . S
C623 H638 0.961 . S
C623 H639 0.960 . S
H624 C608 0.931 . S
H625 C613 0.929 . S
H626 C614 0.960 . S
H627 C614 0.962 . S
H628 C614 0.960 . S
H629 C615 0.961 . S
H630 C615 0.961 . S
H631 C615 0.961 . S
H632 C616 0.931 . S
H633 C621 0.930 . S
H634 C622 0.956 . S
H635 C622 0.961 . S
H636 C622 0.961 . S
H637 C623 0.958 . S
H638 C623 0.961 . S
H639 C623 0.960 . S
C640 C641 1.391 . S
C640 C642 1.394 . S
C640 H656 0.931 . S
C641 C640 1.391 . S
C641 C645 1.376 . S
C642 C640 1.394 . S
C642 C643 1.369 . S
C642 C646 1.531 . S
C643 C642 1.369 . S
C643 C644 1.410 . S
C643 C651 1.503 . S
C644 C643 1.410 . S
C644 C645 1.392 . S
C644 C647 1.511 1_554 S
C645 C641 1.376 . S
C645 C644 1.392 . S
C645 H657 0.929 . S
C646 C642 1.531 . S
C646 H658 0.960 . S
C646 H659 0.962 . S
C646 H660 0.960 . S
C647 C644 1.511 1_556 S
C647 H661 0.961 . S
C647 H662 0.961 . S
C647 H663 0.961 . S
C648 C649 1.370 . S
C648 C650 1.363 . S
C648 H664 0.931 . S
C649 C648 1.370 . S
C649 C653 1.408 . S
C650 C648 1.363 . S
C650 C651 1.370 . S
C650 C654 1.524 . S
C651 C643 1.503 . S
C651 C650 1.370 . S
C651 C652 1.403 . S
C652 C651 1.403 . S
C652 C653 1.404 . S
C652 C655 1.539 . S
C653 C649 1.408 . S
C653 C652 1.404 . S
C653 H665 0.930 . S
C654 C650 1.524 . S
C654 H666 0.956 . S
C654 H667 0.961 . S
C654 H668 0.961 . S
C655 C652 1.539 . S
C655 H669 0.958 . S
C655 H670 0.961 . S
C655 H671 0.960 . S
H656 C640 0.931 . S
H657 C645 0.929 . S
H658 C646 0.960 . S
H659 C646 0.962 . S
H660 C646 0.960 . S
H661 C647 0.961 . S
H662 C647 0.961 . S
H663 C647 0.961 . S
H664 C648 0.931 . S
H665 C653 0.930 . S
H666 C654 0.956 . S
H667 C654 0.961 . S
H668 C654 0.961 . S
H669 C655 0.958 . S
H670 C655 0.961 . S
H671 C655 0.960 . S
C672 C673 1.391 . S
C672 C674 1.394 . S
C672 H688 0.931 1_556 S
C673 C672 1.391 . S
C673 C677 1.376 . S
C674 C672 1.394 . S
C674 C675 1.369 . S
C674 C678 1.531 1_556 S
C675 C674 1.369 . S
C675 C676 1.410 . S
C675 C683 1.503 . S
C676 C675 1.410 . S
C676 C677 1.392 . S
C676 C679 1.511 . S
C677 C673 1.376 . S
C677 C676 1.392 . S
C677 H689 0.929 . S
C678 C674 1.531 1_554 S
C678 H690 0.960 . S
C678 H691 0.962 . S
C678 H692 0.960 . S
C679 C676 1.511 . S
C679 H693 0.961 . S
C679 H694 0.961 . S
C679 H695 0.961 . S
C680 C681 1.370 . S
C680 C682 1.363 . S
C680 H696 0.931 . S
C681 C680 1.370 . S
C681 C685 1.408 . S
C682 C680 1.363 . S
C682 C683 1.370 . S
C682 C686 1.524 . S
C683 C675 1.503 . S
C683 C682 1.370 . S
C683 C684 1.403 . S
C684 C683 1.403 . S
C684 C685 1.404 . S
C684 C687 1.539 . S
C685 C681 1.408 . S
C685 C684 1.404 . S
C685 H697 0.930 . S
C686 C682 1.524 . S
C686 H698 0.956 . S
C686 H699 0.961 . S
C686 H700 0.961 . S
C687 C684 1.539 . S
C687 H701 0.958 . S
C687 H702 0.961 . S
C687 H703 0.960 . S
H688 C672 0.931 1_554 S
H689 C677 0.929 . S
H690 C678 0.960 . S
H691 C678 0.962 . S
H692 C678 0.960 . S
H693 C679 0.961 . S
H694 C679 0.961 . S
H695 C679 0.961 . S
H696 C680 0.931 . S
H697 C685 0.930 . S
H698 C686 0.956 . S
H699 C686 0.961 . S
H700 C686 0.961 . S
H701 C687 0.958 . S
H702 C687 0.961 . S
H703 C687 0.960 . S
C704 C705 1.391 . S
C704 C706 1.394 . S
C704 H720 0.931 . S
C705 C704 1.391 . S
C705 C709 1.376 . S
C706 C704 1.394 . S
C706 C707 1.369 . S
C706 C710 1.531 . S
C707 C706 1.369 . S
C707 C708 1.410 . S
C707 C715 1.503 . S
C708 C707 1.410 . S
C708 C709 1.392 . S
C708 C711 1.511 . S
C709 C705 1.376 . S
C709 C708 1.392 . S
C709 H721 0.929 . S
C710 C706 1.531 . S
C710 H722 0.960 . S
C710 H723 0.962 . S
C710 H724 0.960 . S
C711 C708 1.511 . S
C711 H725 0.961 . S
C711 H726 0.961 . S
C711 H727 0.961 . S
C712 C713 1.370 . S
C712 C714 1.363 . S
C712 H728 0.931 . S
C713 C712 1.370 . S
C713 C717 1.408 . S
C714 C712 1.363 . S
C714 C715 1.370 . S
C714 C718 1.524 . S
C715 C707 1.503 . S
C715 C714 1.370 . S
C715 C716 1.403 . S
C716 C715 1.403 . S
C716 C717 1.404 . S
C716 C719 1.539 . S
C717 C713 1.408 . S
C717 C716 1.404 . S
C717 H729 0.930 . S
C718 C714 1.524 . S
C718 H730 0.956 . S
C718 H731 0.961 . S
C718 H732 0.961 . S
C719 C716 1.539 . S
C719 H733 0.958 . S
C719 H734 0.961 . S
C719 H735 0.960 . S
H720 C704 0.931 . S
H721 C709 0.929 . S
H722 C710 0.960 . S
H723 C710 0.962 . S
H724 C710 0.960 . S
H725 C711 0.961 . S
H726 C711 0.961 . S
H727 C711 0.961 . S
H728 C712 0.931 . S
H729 C717 0.930 . S
H730 C718 0.956 . S
H731 C718 0.961 . S
H732 C718 0.961 . S
H733 C719 0.958 . S
H734 C719 0.961 . S
H735 C719 0.960 . S
C736 C737 1.391 . S
C736 C738 1.394 . S
C736 H752 0.931 . S
C737 C736 1.391 . S
C737 C741 1.376 . S
C738 C736 1.394 . S
C738 C739 1.369 . S
C738 C742 1.531 . S
C739 C738 1.369 . S
C739 C740 1.410 . S
C739 C747 1.503 . S
C740 C739 1.410 . S
C740 C741 1.392 . S
C740 C743 1.511 . S
C741 C737 1.376 . S
C741 C740 1.392 . S
C741 H753 0.929 . S
C742 C738 1.531 . S
C742 H754 0.960 . S
C742 H755 0.962 . S
C742 H756 0.960 . S
C743 C740 1.511 . S
C743 H757 0.961 . S
C743 H758 0.961 . S
C743 H759 0.961 . S
C744 C745 1.370 . S
C744 C746 1.363 . S
C744 H760 0.931 . S
C745 C744 1.370 . S
C745 C749 1.408 . S
C746 C744 1.363 . S
C746 C747 1.370 . S
C746 C750 1.524 . S
C747 C739 1.503 . S
C747 C746 1.370 . S
C747 C748 1.403 . S
C748 C747 1.403 . S
C748 C749 1.404 . S
C748 C751 1.539 . S
C749 C745 1.408 . S
C749 C748 1.404 . S
C749 H761 0.930 . S
C750 C746 1.524 . S
C750 H762 0.956 . S
C750 H763 0.961 . S
C750 H764 0.961 . S
C751 C748 1.539 . S
C751 H765 0.958 . S
C751 H766 0.961 . S
C751 H767 0.960 . S
H752 C736 0.931 . S
H753 C741 0.929 . S
H754 C742 0.960 . S
H755 C742 0.962 . S
H756 C742 0.960 . S
H757 C743 0.961 . S
H758 C743 0.961 . S
H759 C743 0.961 . S
H760 C744 0.931 . S
H761 C749 0.930 . S
H762 C750 0.956 . S
H763 C750 0.961 . S
H764 C750 0.961 . S
H765 C751 0.958 . S
H766 C751 0.961 . S
H767 C751 0.960 . S
C768 C769 1.380 1_665 S
C768 C770 1.394 . S
C768 H784 0.931 . S
C769 C768 1.380 1_445 S
C769 C773 1.390 . S
C770 C768 1.394 . S
C770 C771 1.369 1_665 S
C770 C774 1.531 1_556 S
C771 C770 1.369 1_445 S
C771 C772 1.410 . S
C771 C779 1.503 1_556 S
C772 C771 1.410 . S
C772 C773 1.392 . S
C772 C775 1.511 . S
C773 C769 1.390 . S
C773 C772 1.392 . S
C773 H785 0.929 . S
C774 C770 1.531 1_554 S
C774 H786 0.960 . S
C774 H787 0.962 . S
C774 H788 0.960 1_554 S
C775 C772 1.511 . S
C775 H789 0.961 . S
C775 H790 0.961 1_556 S
C775 H791 0.961 . S
C776 C777 1.370 1_655 S
C776 C778 1.363 . S
C776 H792 0.931 . S
C777 C776 1.370 1_455 S
C777 C781 1.408 1_545 S
C778 C776 1.363 . S
C778 C779 1.370 1_655 S
C778 C782 1.524 . S
C779 C771 1.503 1_554 S
C779 C778 1.370 1_455 S
C779 C780 1.403 1_545 S
C780 C779 1.403 1_565 S
C780 C781 1.404 . S
C780 C783 1.539 . S
C781 C777 1.408 1_565 S
C781 C780 1.404 . S
C781 H793 0.930 . S
C782 C778 1.524 . S
C782 H794 0.956 . S
C782 H795 0.939 1_655 S
C782 H796 0.961 . S
C783 C780 1.539 . S
C783 H797 0.958 . S
C783 H798 0.961 . S
C783 H799 0.960 . S
H784 C768 0.931 . S
H785 C773 0.929 . S
H786 C774 0.960 . S
H787 C774 0.962 . S
H788 C774 0.960 1_556 S
H789 C775 0.961 . S
H790 C775 0.961 1_554 S
H791 C775 0.961 . S
H792 C776 0.931 . S
H793 C781 0.930 . S
H794 C782 0.956 . S
H795 C782 0.939 1_455 S
H796 C782 0.961 . S
H797 C783 0.958 . S
H798 C783 0.961 . S
H799 C783 0.960 . S
C800 C801 1.391 . S
C800 C802 1.394 . S
C800 H816 0.931 . S
C801 C800 1.391 . S
C801 C805 1.376 . S
C802 C800 1.394 . S
C802 C803 1.369 . S
C802 C806 1.531 . S
C803 C802 1.369 . S
C803 C804 1.410 . S
C803 C811 1.503 . S
C804 C803 1.410 . S
C804 C805 1.392 . S
C804 C807 1.511 . S
C805 C801 1.376 . S
C805 C804 1.392 . S
C805 H817 0.929 . S
C806 C802 1.531 . S
C806 H818 0.960 . S
C806 H819 0.962 . S
C806 H820 0.960 . S
C807 C804 1.511 . S
C807 H821 0.961 . S
C807 H822 0.961 . S
C807 H823 0.961 . S
C808 C809 1.370 . S
C808 C810 1.363 . S
C808 H824 0.931 . S
C809 C808 1.370 . S
C809 C813 1.408 . S
C810 C808 1.363 . S
C810 C811 1.370 . S
C810 C814 1.524 . S
C811 C803 1.503 . S
C811 C810 1.370 . S
C811 C812 1.403 . S
C812 C811 1.403 . S
C812 C813 1.404 . S
C812 C815 1.539 . S
C813 C809 1.408 . S
C813 C812 1.404 . S
C813 H825 0.930 . S
C814 C810 1.524 . S
C814 H826 0.956 . S
C814 H827 0.961 . S
C814 H828 0.961 . S
C815 C812 1.539 . S
C815 H829 0.958 . S
C815 H830 0.961 . S
C815 H831 0.960 . S
H816 C800 0.931 . S
H817 C805 0.929 . S
H818 C806 0.960 . S
H819 C806 0.962 . S
H820 C806 0.960 . S
H821 C807 0.961 . S
H822 C807 0.961 . S
H823 C807 0.961 . S
H824 C808 0.931 . S
H825 C813 0.930 . S
H826 C814 0.956 . S
H827 C814 0.961 . S
H828 C814 0.961 . S
H829 C815 0.958 . S
H830 C815 0.961 . S
H831 C815 0.960 . S
C832 C833 1.391 . S
C832 C834 1.394 . S
C832 H848 0.931 . S
C833 C832 1.391 . S
C833 C837 1.376 1_545 S
C834 C832 1.394 . S
C834 C835 1.369 . S
C834 C838 1.531 . S
C835 C834 1.369 . S
C835 C836 1.410 1_545 S
C835 C843 1.503 . S
C836 C835 1.410 1_565 S
C836 C837 1.392 . S
C836 C839 1.511 . S
C837 C833 1.376 1_565 S
C837 C836 1.392 . S
C837 H849 0.929 . S
C838 C834 1.531 . S
C838 H850 0.960 . S
C838 H851 0.962 . S
C838 H852 0.960 . S
C839 C836 1.511 . S
C839 H853 0.961 . S
C839 H854 0.961 . S
C839 H855 0.961 . S
C840 C841 1.370 1_565 S
C840 C842 1.363 . S
C840 H856 0.931 . S
C841 C840 1.370 1_545 S
C841 C845 1.408 . S
C842 C840 1.363 . S
C842 C843 1.370 1_565 S
C842 C846 1.524 . S
C843 C835 1.503 . S
C843 C842 1.370 1_545 S
C843 C844 1.403 . S
C844 C843 1.403 . S
C844 C845 1.404 . S
C844 C847 1.539 . S
C845 C841 1.408 . S
C845 C844 1.404 . S
C845 H857 0.930 . S
C846 C842 1.524 . S
C846 H858 0.956 . S
C846 H859 0.961 . S
C846 H860 0.961 . S
C847 C844 1.539 . S
C847 H861 0.958 . S
C847 H862 0.961 . S
C847 H863 0.960 . S
H848 C832 0.931 . S
H849 C837 0.929 . S
H850 C838 0.960 . S
H851 C838 0.962 . S
H852 C838 0.960 . S
H853 C839 0.961 . S
H854 C839 0.961 . S
H855 C839 0.961 . S
H856 C840 0.931 . S
H857 C845 0.930 . S
H858 C846 0.956 . S
H859 C846 0.961 . S
H860 C846 0.961 . S
H861 C847 0.958 . S
H862 C847 0.961 . S
H863 C847 0.960 . S
C864 C865 1.391 . S
C864 C866 1.394 . S
C864 H880 0.931 . S
C865 C864 1.391 . S
C865 C869 1.376 . S
C866 C864 1.394 . S
C866 C867 1.369 . S
C866 C870 1.531 . S
C867 C866 1.369 . S
C867 C868 1.410 . S
C867 C875 1.503 . S
C868 C867 1.410 . S
C868 C869 1.392 . S
C868 C871 1.511 . S
C869 C865 1.376 . S
C869 C868 1.392 . S
C869 H881 0.929 . S
C870 C866 1.531 . S
C870 H882 0.960 . S
C870 H883 0.962 . S
C870 H884 0.960 . S
C871 C868 1.511 . S
C871 H885 0.961 . S
C871 H886 0.961 . S
C871 H887 0.961 . S
C872 C873 1.370 . S
C872 C874 1.363 . S
C872 H888 0.931 . S
C873 C872 1.370 . S
C873 C877 1.408 . S
C874 C872 1.363 . S
C874 C875 1.370 . S
C874 C878 1.524 . S
C875 C867 1.503 . S
C875 C874 1.370 . S
C875 C876 1.403 . S
C876 C875 1.403 . S
C876 C877 1.404 . S
C876 C879 1.539 . S
C877 C873 1.408 . S
C877 C876 1.404 . S
C877 H889 0.930 . S
C878 C874 1.524 . S
C878 H890 0.956 . S
C878 H891 0.961 . S
C878 H892 0.961 . S
C879 C876 1.539 . S
C879 H893 0.958 . S
C879 H894 0.961 . S
C879 H895 0.960 . S
H880 C864 0.931 . S
H881 C869 0.929 . S
H882 C870 0.960 . S
H883 C870 0.962 . S
H884 C870 0.960 . S
H885 C871 0.961 . S
H886 C871 0.961 . S
H887 C871 0.961 . S
H888 C872 0.931 . S
H889 C877 0.930 . S
H890 C878 0.956 . S
H891 C878 0.961 . S
H892 C878 0.961 . S
H893 C879 0.958 . S
H894 C879 0.961 . S
H895 C879 0.960 . S
C896 C897 1.391 1_556 S
C896 C898 1.394 . S
C896 H912 0.931 . S
C897 C896 1.391 1_554 S
C897 C901 1.376 1_554 S
C898 C896 1.394 . S
C898 C899 1.369 . S
C898 C902 1.531 . S
C899 C898 1.369 . S
C899 C900 1.410 . S
C899 C907 1.503 . S
C900 C899 1.410 . S
C900 C901 1.392 . S
C900 C903 1.511 . S
C901 C897 1.376 1_556 S
C901 C900 1.392 . S
C901 H913 0.929 1_556 S
C902 C898 1.531 . S
C902 H914 0.960 . S
C902 H915 0.962 . S
C902 H916 0.960 . S
C903 C900 1.511 . S
C903 H917 0.961 . S
C903 H918 0.961 . S
C903 H919 0.961 . S
C904 C905 1.370 . S
C904 C906 1.363 . S
C904 H920 0.931 . S
C905 C904 1.370 . S
C905 C909 1.408 . S
C906 C904 1.363 . S
C906 C907 1.370 . S
C906 C910 1.524 . S
C907 C899 1.503 . S
C907 C906 1.370 . S
C907 C908 1.403 . S
C908 C907 1.403 . S
C908 C909 1.404 . S
C908 C911 1.539 . S
C909 C905 1.408 . S
C909 C908 1.404 . S
C909 H921 0.930 . S
C910 C906 1.524 . S
C910 H922 0.956 . S
C910 H923 0.961 . S
C910 H924 0.961 . S
C911 C908 1.539 . S
C911 H925 0.958 . S
C911 H926 0.961 . S
C911 H927 0.960 . S
H912 C896 0.931 . S
H913 C901 0.929 1_554 S
H914 C902 0.960 . S
H915 C902 0.962 . S
H916 C902 0.960 . S
H917 C903 0.961 . S
H918 C903 0.961 . S
H919 C903 0.961 . S
H920 C904 0.931 . S
H921 C909 0.930 . S
H922 C910 0.956 . S
H923 C910 0.961 . S
H924 C910 0.961 . S
H925 C911 0.958 . S
H926 C911 0.961 . S
H927 C911 0.960 . S
C928 C929 1.391 . S
C928 C930 1.394 . S
C928 H944 0.931 . S
C929 C928 1.391 . S
C929 C933 1.376 . S
C930 C928 1.394 . S
C930 C931 1.369 . S
C930 C934 1.531 . S
C931 C930 1.369 . S
C931 C932 1.410 . S
C931 C939 1.503 . S
C932 C931 1.410 . S
C932 C933 1.392 . S
C932 C935 1.511 . S
C933 C929 1.376 . S
C933 C932 1.392 . S
C933 H945 0.929 . S
C934 C930 1.531 . S
C934 H946 0.960 . S
C934 H947 0.962 . S
C934 H948 0.960 . S
C935 C932 1.511 . S
C935 H949 0.961 . S
C935 H950 0.961 . S
C935 H951 0.961 . S
C936 C937 1.370 . S
C936 C938 1.363 . S
C936 H952 0.931 . S
C937 C936 1.370 . S
C937 C941 1.408 . S
C938 C936 1.363 . S
C938 C939 1.370 . S
C938 C942 1.524 . S
C939 C931 1.503 . S
C939 C938 1.370 . S
C939 C940 1.403 . S
C940 C939 1.403 . S
C940 C941 1.404 . S
C940 C943 1.539 . S
C941 C937 1.408 . S
C941 C940 1.404 . S
C941 H953 0.930 . S
C942 C938 1.524 . S
C942 H954 0.956 . S
C942 H955 0.961 . S
C942 H956 0.961 . S
C943 C940 1.539 . S
C943 H957 0.958 . S
C943 H958 0.961 . S
C943 H959 0.960 . S
H944 C928 0.931 . S
H945 C933 0.929 . S
H946 C934 0.960 . S
H947 C934 0.962 . S
H948 C934 0.960 . S
H949 C935 0.961 . S
H950 C935 0.961 . S
H951 C935 0.961 . S
H952 C936 0.931 . S
H953 C941 0.930 . S
H954 C942 0.956 . S
H955 C942 0.961 . S
H956 C942 0.961 . S
H957 C943 0.958 . S
H958 C943 0.961 . S
H959 C943 0.960 . S
C960 C961 1.391 . S
C960 C962 1.394 . S
C960 H976 0.931 . S
C961 C960 1.391 . S
C961 C965 1.376 . S
C962 C960 1.394 . S
C962 C963 1.369 . S
C962 C966 1.531 . S
C963 C962 1.369 . S
C963 C964 1.410 . S
C963 C971 1.503 . S
C964 C963 1.410 . S
C964 C965 1.392 . S
C964 C967 1.511 . S
C965 C961 1.376 . S
C965 C964 1.392 . S
C965 H977 0.929 . S
C966 C962 1.531 . S
C966 H978 0.960 . S
C966 H979 0.962 . S
C966 H980 0.960 . S
C967 C964 1.511 . S
C967 H981 0.961 . S
C967 H982 0.961 . S
C967 H983 0.961 . S
C968 C969 1.370 . S
C968 C970 1.363 . S
C968 H984 0.931 . S
C969 C968 1.370 . S
C969 C973 1.408 . S
C970 C968 1.363 . S
C970 C971 1.370 . S
C970 C974 1.524 . S
C971 C963 1.503 . S
C971 C970 1.370 . S
C971 C972 1.403 . S
C972 C971 1.403 . S
C972 C973 1.404 . S
C972 C975 1.539 . S
C973 C969 1.408 . S
C973 C972 1.404 . S
C973 H985 0.930 . S
C974 C970 1.524 . S
C974 H986 0.956 . S
C974 H987 0.961 . S
C974 H988 0.961 . S
C975 C972 1.539 . S
C975 H989 0.958 . S
C975 H990 0.961 . S
C975 H991 0.960 . S
H976 C960 0.931 . S
H977 C965 0.929 . S
H978 C966 0.960 . S
H979 C966 0.962 . S
H980 C966 0.960 . S
H981 C967 0.961 . S
H982 C967 0.961 . S
H983 C967 0.961 . S
H984 C968 0.931 . S
H985 C973 0.930 . S
H986 C974 0.956 . S
H987 C974 0.961 . S
H988 C974 0.961 . S
H989 C975 0.958 . S
H990 C975 0.961 . S
H991 C975 0.960 . S
C992 C993 1.391 . S
C992 C994 1.394 . S
C992 H1008 0.931 . S
C993 C992 1.391 . S
C993 C997 1.376 1_455 S
C994 C992 1.394 . S
C994 C995 1.369 . S
C994 C998 1.531 . S
C995 C994 1.369 . S
C995 C996 1.410 1_455 S
C995 C1003 1.503 1_556 S
C996 C995 1.410 1_655 S
C996 C997 1.392 . S
C996 C999 1.511 . S
C997 C993 1.376 1_655 S
C997 C996 1.392 . S
C997 H1009 0.929 . S
C998 C994 1.531 . S
C998 H1010 0.960 . S
C998 H1011 0.962 . S
C998 H1012 0.960 . S
C999 C996 1.511 . S
C999 H1013 0.961 . S
C999 H1014 0.961 1_556 S
C999 H1015 0.961 . S
C1000 C1001 1.370 . S
C1000 C1002 1.363 . S
C1000 H1016 0.931 . S
C1001 C1000 1.370 . S
C1001 C1005 1.408 1_455 S
C1002 C1000 1.363 . S
C1002 C1003 1.370 . S
C1002 C1006 1.524 . S
C1003 C995 1.503 1_554 S
C1003 C1002 1.370 . S
C1003 C1004 1.403 1_455 S
C1004 C1003 1.403 1_655 S
C1004 C1005 1.404 . S
C1004 C1007 1.539 . S
C1005 C1001 1.408 1_655 S
C1005 C1004 1.404 . S
C1005 H1017 0.930 . S
C1006 C1002 1.524 . S
C1006 H1018 0.956 1_554 S
C1006 H1019 0.961 1_554 S
C1006 H1020 0.961 . S
C1007 C1004 1.539 . S
C1007 H1021 0.958 . S
C1007 H1022 0.961 . S
C1007 H1023 0.960 1_554 S
H1008 C992 0.931 . S
H1009 C997 0.929 . S
H1010 C998 0.960 . S
H1011 C998 0.962 . S
H1012 C998 0.960 . S
H1013 C999 0.961 . S
H1014 C999 0.961 1_554 S
H1015 C999 0.961 . S
H1016 C1000 0.931 . S
H1017 C1005 0.930 . S
H1018 C1006 0.956 1_556 S
H1019 C1006 0.961 1_556 S
H1020 C1006 0.961 . S
H1021 C1007 0.958 . S
H1022 C1007 0.961 . S
H1023 C1007 0.960 1_556 S
C257 C29 2.705 . S
C265 C125 2.703 . S
C289 N18 1.502 . S
C297 C36 1.534 . S
C321 N45 0.608 . S
C329 N77 0.637 . S
C353 C68 1.530 . S
C361 N114 1.484 . S
C385 C2 3.053 . S
C393 C162 3.054 . S
C417 N13 1.445 . S
C425 C134 1.494 . S
C449 N146 0.250 . S
C457 N82 0.324 . S
C481 N173 1.475 . S
C489 C70 1.492 . S
C513 C221 2.693 . S
C521 C189 2.707 . S
C545 C132 1.531 . S
C553 N210 1.499 . S
C577 N242 0.618 . S
C585 N141 0.639 . S
C609 N178 1.474 . S
C617 C253 1.535 . S
C641 C98 3.050 . S
C649 C194 3.055 . S
C673 N205 1.470 . S
C681 C38 1.493 . S
C705 N50 0.397 . S
C713 N237 0.318 . S
C737 N109 1.423 . S
C745 C226 1.494 . S
C769 C4 1.350 . S
C777 C6 1.360 . S
C801 C34 1.363 . S
C809 C61 1.386 1_554 S
C833 C93 1.388 . S
C841 C66 1.374 . S
C865 C100 1.362 1_556 S
C873 C102 1.353 . S
C897 C130 1.364 . S
C905 C157 1.386 . S
C929 C164 1.349 . S
C937 C166 1.355 1_554 S
C961 C198 1.348 . S
C969 C196 1.359 . S
C993 C230 1.377 . S
C1001 C228 1.376 . S
