# Generated by pormake.
# Topology ilc, (8)-cn, num edge types: 1
# Building blocks:
#     Node 0, Type 0, BuildingBlock: HISSIN_clean_sbu_1, # of connection points: 8
#     Node 1, Type 0, BuildingBlock: HISSIN_clean_sbu_1, # of connection points: 8
#     Node 2, Type 0, BuildingBlock: HISSIN_clean_sbu_1, # of connection points: 8
#     Edge 3, Type (0, 0), BuildingBlock: MIFKUJ_clean_linker_0, # of connection points: 2
#     Edge 4, Type (0, 0), BuildingBlock: MIFKUJ_clean_linker_0, # of connection points: 2
#     Edge 5, Type (0, 0), BuildingBlock: MIFKUJ_clean_linker_0, # of connection points: 2
#     Edge 6, Type (0, 0), BuildingBlock: MIFKUJ_clean_linker_0, # of connection points: 2
#     Edge 7, Type (0, 0), BuildingBlock: MIFKUJ_clean_linker_0, # of connection points: 2
#     Edge 8, Type (0, 0), BuildingBlock: MIFKUJ_clean_linker_0, # of connection points: 2
#     Edge 9, Type (0, 0), BuildingBlock: MIFKUJ_clean_linker_0, # of connection points: 2
#     Edge 10, Type (0, 0), BuildingBlock: MIFKUJ_clean_linker_0, # of connection points: 2
#     Edge 11, Type (0, 0), BuildingBlock: MIFKUJ_clean_linker_0, # of connection points: 2
#     Edge 12, Type (0, 0), BuildingBlock: MIFKUJ_clean_linker_0, # of connection points: 2
#     Edge 13, Type (0, 0), BuildingBlock: MIFKUJ_clean_linker_0, # of connection points: 2
#     Edge 14, Type (0, 0), BuildingBlock: MIFKUJ_clean_linker_0, # of connection points: 2
# Relax obj value: 0.144
# Max RMSD: 0.201
# Mean RMSD: 0.201
data_MOF--net-ilc--node1-HISSIN_clean_sbu_1--edge1-MIFKUJ_clean_linker_0
_symmetry_space_group_name_H-M    P1
_symmetry_Int_Tables_number       1
_symmetry_cell_setting            triclinic
loop_
_symmetry_equiv_pos_as_xyz
'x, y, z'
_cell_length_a     27.369492
_cell_length_b     38.29714
_cell_length_c     23.904698
_cell_angle_alpha  100.54253
_cell_angle_beta   76.574393
_cell_angle_gamma 139.90502
loop_
_atom_site_label
_atom_site_type_symbol
_atom_site_fract_x
_atom_site_fract_y
_atom_site_fract_z
_atom_type_partial_charge
Eu0 Eu 0.9421 0.96753 0.94196 0.0
C1 C 0.12156 0.07668 0.9501 0.0
O2 O 0.91065 0.90492 0.87539 0.0
C3 C 0.14906 0.01815 0.14936 0.0
C4 C 0.1629 0.99412 0.24396 0.0
C5 C 0.12838 0.02611 0.20539 0.0
C6 C 0.13344 0.01294 0.25313 0.0
C7 C 0.17835 0.99906 0.14077 0.0
C8 C 0.1853 0.98707 0.18843 0.0
Eu9 Eu 0.10916 0.07547 0.08101 0.0
O10 O 0.89027 0.9345 0.03237 0.0
O11 O 0.13595 0.13379 0.15189 0.0
O12 O 0.16274 0.11033 0.99118 0.0
O13 O 0.99023 0.02013 0.06108 0.0
C14 C 0.1727 0.18173 0.13823 0.0
O15 O 0.19358 0.19427 0.08358 0.0
O16 O 0.06532 1.00237 0.10459 0.0
C17 C 0.13429 0.02586 0.10032 0.0
C18 C 0.87754 0.85839 0.89015 0.0
O19 O 0.86135 0.84779 0.94492 0.0
O20 O 0.18867 0.07529 0.08014 0.0
O21 O 0.06053 0.02544 0.96428 0.0
C22 C 0.90441 1.00809 0.91999 0.0
O23 O 0.97052 0.02766 0.89829 0.0
C24 C 0.8587 0.99212 0.8776 0.0
C25 C 0.78579 0.96427 0.78632 0.0
C26 C 0.82106 0.944 0.84657 0.0
C27 C 0.78902 0.93142 0.7982 0.0
C28 C 0.85817 0.02599 0.86382 0.0
C29 C 0.8199 0.01144 0.81863 0.0
C30 C 0.92891 0.9685 0.07444 0.0
O31 O 0.86552 0.97194 0.96004 0.0
H32 H 0.16439 0.98158 0.2801 0.0
H33 H 0.10551 0.04054 0.21156 0.0
H34 H 0.19297 0.99182 0.0976 0.0
H35 H 0.76372 0.95668 0.74815 0.0
H36 H 0.82306 0.91887 0.85733 0.0
H37 H 0.88832 0.06366 0.88729 0.0
Eu38 Eu 0.62863 0.30028 0.26329 0.0
C39 C 0.80262 0.40905 0.28669 0.0
O40 O 0.58782 0.22792 0.2118 0.0
C41 C 0.76039 0.32471 0.50221 0.0
C42 C 0.72697 0.27235 0.59633 0.0
C43 C 0.71183 0.31498 0.55172 0.0
C44 C 0.69506 0.28883 0.59919 0.0
C45 C 0.79282 0.30847 0.5004 0.0
C46 C 0.77556 0.28188 0.54761 0.0
Eu47 Eu 0.76018 0.40163 0.41757 0.0
O48 O 0.55779 0.26403 0.35043 0.0
O49 O 0.76692 0.45391 0.48624 0.0
O50 O 0.83347 0.44131 0.33155 0.0
O51 O 0.64756 0.34898 0.38614 0.0
C52 C 0.80997 0.50384 0.47359 0.0
O53 O 0.84925 0.52199 0.42178 0.0
O54 O 0.71091 0.3249 0.43354 0.0
C55 C 0.77291 0.348 0.45072 0.0
C56 C 0.59868 0.20359 0.22856 0.0
O57 O 0.63292 0.22274 0.27403 0.0
O58 O 0.82957 0.40117 0.447 0.0
O59 O 0.73962 0.35728 0.2982 0.0
C60 C 0.60804 0.34687 0.22452 0.0
O61 O 0.66043 0.35094 0.19922 0.0
C62 C 0.55796 0.33166 0.18761 0.0
C63 C 0.46017 0.30118 0.11888 0.0
C64 C 0.51038 0.28143 0.15887 0.0
C65 C 0.4621 0.26624 0.12345 0.0
C66 C 0.55696 0.36694 0.18138 0.0
C67 C 0.5073 0.35148 0.14715 0.0
C68 C 0.58594 0.29654 0.39546 0.0
O69 O 0.57245 0.32119 0.27369 0.0
H70 H 0.71224 0.2503 0.63182 0.0
H71 H 0.68665 0.32722 0.55291 0.0
H72 H 0.82922 0.31501 0.46202 0.0
H73 H 0.42635 0.29134 0.08921 0.0
H74 H 0.51261 0.25493 0.16291 0.0
H75 H 0.59456 0.4061 0.2029 0.0
Eu76 Eu 0.3125 0.65203 0.59267 0.0
C77 C 0.48372 0.75088 0.63359 0.0
O78 O 0.30481 0.59625 0.5309 0.0
C79 C 0.47583 0.67514 0.81641 0.0
C80 C 0.57855 0.70377 0.87683 0.0
C81 C 0.53323 0.72786 0.83856 0.0
C82 C 0.58401 0.7423 0.86981 0.0
C83 C 0.46965 0.63636 0.82477 0.0
C84 C 0.52182 0.6508 0.85492 0.0
Eu85 Eu 0.42432 0.72599 0.7602 0.0
O86 O 0.22834 0.61174 0.67634 0.0
O87 O 0.4649 0.78807 0.83064 0.0
O88 O 0.51204 0.77531 0.68199 0.0
O89 O 0.3242 0.68845 0.72124 0.0
C90 C 0.49479 0.83426 0.81952 0.0
O91 O 0.50312 0.84434 0.76635 0.0
O92 O 0.378 0.66317 0.81408 0.0
C93 C 0.42433 0.66263 0.78407 0.0
C94 C 0.28776 0.55753 0.55055 0.0
O95 O 0.27772 0.55314 0.60639 0.0
O96 O 0.459 0.68925 0.73569 0.0
O97 O 0.41304 0.70081 0.63932 0.0
C98 C 0.3142 0.70711 0.54082 0.0
O99 O 0.37296 0.72924 0.5629 0.0
C100 C 0.33109 0.7212 0.48052 0.0
C101 C 0.36959 0.75185 0.36671 0.0
C102 C 0.3712 0.71611 0.43894 0.0
C103 C 0.39011 0.73126 0.38205 0.0
C104 C 0.31092 0.74233 0.46463 0.0
C105 C 0.33155 0.75864 0.40754 0.0
C106 C 0.25539 0.63759 0.72516 0.0
O107 O 0.25153 0.65569 0.55425 0.0
H108 H 0.61463 0.71357 0.90388 0.0
H109 H 0.53674 0.75725 0.83297 0.0
H110 H 0.42474 0.59549 0.80816 0.0
H111 H 0.38651 0.76501 0.32283 0.0
H112 H 0.38885 0.70139 0.45099 0.0
H113 H 0.28195 0.7478 0.49675 0.0
H114 H 0.6901 0.87003 0.71641 0.0
H115 H 0.73116 0.86135 0.61826 0.0
H116 H 0.90286 0.89671 0.67704 0.0
H117 H 0.86763 0.90972 0.7734 0.0
H118 H 0.95837 0.9833 0.6212 0.0
H119 H 0.80676 0.7951 0.58388 0.0
H120 H 0.68386 0.69683 0.58705 0.0
H121 H 0.59793 0.72061 0.48912 0.0
H122 H 0.72062 0.81926 0.48645 0.0
H123 H 0.18369 0.03758 0.35565 0.0
H124 H 0.10704 1.00858 0.45045 0.0
H125 H 0.92662 0.95528 0.37948 0.0
H126 H 1.00225 0.98265 0.28391 0.0
H127 H 0.8716 0.87548 0.44054 0.0
H128 H 0.03063 0.0632 0.46947 0.0
H129 H 0.15028 0.16191 0.47058 0.0
H130 H 0.22042 0.1421 0.59265 0.0
H131 H 0.10239 0.04307 0.59094 0.0
C132 C 0.73511 0.87436 0.70893 0.0
C133 C 0.77967 0.89523 0.75217 0.0
C134 C 0.75768 0.86851 0.65277 0.0
C135 C 0.8225 0.88114 0.64057 0.0
C136 C 0.85419 0.88853 0.68586 0.0
C137 C 0.83314 0.89572 0.74154 0.0
C138 C 0.87056 0.90371 0.584 0.0
C139 C 0.94046 0.95957 0.58168 0.0
C140 C 0.84513 0.87314 0.53288 0.0
C141 C 0.7725 0.81406 0.53414 0.0
C142 C 0.76157 0.77923 0.56298 0.0
C143 C 0.69207 0.72356 0.56485 0.0
C144 C 0.63316 0.70242 0.53813 0.0
C145 C 0.64367 0.73693 0.50953 0.0
C146 C 0.71314 0.79256 0.50757 0.0
C147 C 0.12806 0.02022 0.3602 0.0
C148 C 0.09781 0.01051 0.31183 0.0
C149 C 0.08449 1.00399 0.41454 0.0
C150 C 1.01067 0.979 0.42175 0.0
C151 C 0.98308 0.97376 0.37455 0.0
C152 C 0.0267 0.98989 0.32006 0.0
C153 C 0.96087 0.9551 0.47774 0.0
C154 C 0.89025 0.89922 0.48002 0.0
C155 C 0.9859 0.98583 0.52924 0.0
C156 C 0.05777 0.04549 0.52965 0.0
C157 C 0.07198 0.07975 0.49599 0.0
C158 C 0.13958 0.13581 0.49673 0.0
C159 C 0.19315 0.15822 0.53141 0.0
C160 C 0.17917 0.12463 0.5655 0.0
C161 C 0.11192 0.06853 0.56466 0.0
H162 H 0.24536 0.20162 0.53205 0.0
H163 H 0.57934 0.65936 0.53969 0.0
H164 H 0.55833 0.24969 0.60491 0.0
H165 H 0.45933 0.21159 0.68993 0.0
H166 H 0.61114 0.25782 0.79437 0.0
H167 H 0.70992 0.29707 0.71095 0.0
H168 H 0.45172 0.13872 0.79094 0.0
H169 H 0.59917 0.32811 0.79953 0.0
H170 H 0.64265 0.40945 0.77754 0.0
H171 H 0.41062 0.32338 0.81343 0.0
H172 H 0.36533 0.24086 0.83421 0.0
H173 H 0.52055 0.23431 0.06209 0.0
H174 H 0.48893 0.19026 0.96882 0.0
H175 H 0.29249 0.15382 0.99452 0.0
H176 H 0.32087 0.19512 0.09012 0.0
H177 H 0.40334 0.23028 0.91694 0.0
H178 H 0.26765 0.05405 0.93931 0.0
H179 H 0.23162 0.98061 0.97879 0.0
H180 H 0.44852 0.04912 0.90044 0.0
H181 H 0.48659 0.12355 0.86128 0.0
C182 C 0.57072 0.2526 0.64627 0.0
C183 C 0.64097 0.27516 0.65102 0.0
C184 C 0.51423 0.23065 0.69451 0.0
C185 C 0.52791 0.23125 0.74779 0.0
C186 C 0.5994 0.25635 0.75317 0.0
C187 C 0.6557 0.27872 0.70551 0.0
C188 C 0.46828 0.20409 0.79856 0.0
C189 C 0.43983 0.15803 0.81845 0.0
C190 C 0.45039 0.22823 0.83297 0.0
C191 C 0.47819 0.27714 0.81574 0.0
C192 C 0.55686 0.32561 0.80062 0.0
C193 C 0.58208 0.37235 0.7892 0.0
C194 C 0.52943 0.37156 0.79378 0.0
C195 C 0.45142 0.32398 0.8096 0.0
C196 C 0.42594 0.27713 0.82092 0.0
C197 C 0.46749 0.21367 0.04996 0.0
C198 C 0.42479 0.22001 0.08255 0.0
C199 C 0.4493 0.18828 0.99622 0.0
C200 C 0.38867 0.16937 0.97445 0.0
C201 C 0.33918 0.16806 0.01072 0.0
C202 C 0.35622 0.1923 0.06503 0.0
C203 C 0.39329 0.16824 0.91146 0.0
C204 C 0.41091 0.20866 0.88865 0.0
C205 C 0.40284 0.13992 0.87503 0.0
C206 C 0.37985 0.09441 0.89702 0.0
C207 C 0.3078 0.05357 0.9305 0.0
C208 C 0.28702 0.01175 0.9529 0.0
C209 C 0.33768 0.01014 0.94203 0.0
C210 C 0.4092 0.05031 0.90863 0.0
C211 C 0.43032 0.09227 0.88615 0.0
H212 H 0.32156 0.9778 0.95954 0.0
H213 H 0.54911 0.40787 0.78525 0.0
H214 H 0.54342 0.78612 0.93241 0.0
H215 H 0.58382 0.82951 0.02458 0.0
H216 H 0.76849 0.85226 0.98447 0.0
H217 H 0.72997 0.81043 0.89036 0.0
H218 H 0.64744 0.7675 0.05414 0.0
H219 H 0.80845 0.9579 0.06986 0.0
H220 H 0.85011 0.03788 0.04359 0.0
H221 H 0.62551 0.96093 0.10979 0.0
H222 H 0.58264 0.88041 0.13567 0.0
H223 H 0.54076 0.80256 0.38018 0.0
H224 H 0.63282 0.83163 0.29398 0.0
H225 H 0.44634 0.69872 0.19863 0.0
H226 H 0.35431 0.67033 0.2849 0.0
H227 H 0.62666 0.86399 0.20614 0.0
H228 H 0.52198 0.67555 0.07418 0.0
H229 H 0.46768 0.58886 0.09084 0.0
H230 H 0.55593 0.64941 0.25128 0.0
H231 H 0.61346 0.73749 0.23459 0.0
C232 C 0.59612 0.80386 0.9411 0.0
C233 C 0.6312 0.79224 0.90568 0.0
C234 C 0.61962 0.82914 0.99426 0.0
C235 C 0.67791 0.8426 0.01217 0.0
C236 C 0.72312 0.84176 0.97163 0.0
C237 C 0.70032 0.81716 0.91812 0.0
C238 C 0.66976 0.83561 0.07369 0.0
C239 C 0.64419 0.78912 0.0878 0.0
C240 C 0.6664 0.86416 0.11732 0.0
C241 C 0.69247 0.9132 0.10424 0.0
C242 C 0.76805 0.95808 0.0784 0.0
C243 C 0.79185 1.00349 0.06374 0.0
C244 C 0.74045 1.00447 0.07496 0.0
C245 C 0.66531 0.96018 0.10122 0.0
C246 C 0.64135 0.91474 0.11607 0.0
C247 C 0.5199 0.77793 0.34173 0.0
C248 C 0.44107 0.73406 0.33908 0.0
C249 C 0.57238 0.7947 0.29249 0.0
C250 C 0.54648 0.76728 0.24019 0.0
C251 C 0.46756 0.71999 0.23885 0.0
C252 C 0.41503 0.70363 0.28805 0.0
C253 C 0.59925 0.79358 0.18569 0.0
C254 C 0.63251 0.84336 0.17318 0.0
C255 C 0.60674 0.76658 0.14285 0.0
C256 C 0.5724 0.71356 0.15321 0.0
C257 C 0.53087 0.67088 0.11277 0.0
C258 C 0.49944 0.62139 0.12216 0.0
C259 C 0.50847 0.61371 0.17208 0.0
C260 C 0.54933 0.6556 0.21254 0.0
C261 C 0.58147 0.70535 0.20309 0.0
H262 H 0.48346 0.5752 0.17954 0.0
H263 H 0.75885 0.03955 0.06338 0.0
H264 H 0.44061 0.85891 0.36228 0.0
H265 H 0.42252 0.89897 0.31442 0.0
H266 H 0.17747 0.76003 0.36005 0.0
H267 H 0.19572 0.71942 0.40779 0.0
H268 H 0.22133 0.78689 0.24446 0.0
H269 H 0.27694 0.88096 0.42763 0.0
H270 H 0.35317 0.93717 0.50724 0.0
H271 H 0.54441 0.06685 0.38988 0.0
H272 H 0.46964 0.01112 0.30939 0.0
H273 H 0.09055 0.88164 0.2031 0.0
H274 H 0.12509 0.84415 0.22773 0.0
H275 H 0.36495 0.9983 0.1915 0.0
H276 H 0.32969 0.03635 0.16851 0.0
H277 H 0.33645 0.96765 0.29306 0.0
H278 H 0.27485 0.88059 0.11263 0.0
H279 H 0.20018 0.82652 0.03226 0.0
H280 H 0.02547 0.68488 0.1382 0.0
H281 H 0.09742 0.73847 0.22014 0.0
C282 C 0.38294 0.83747 0.36313 0.0
C283 C 0.31951 0.78633 0.38913 0.0
C284 C 0.37266 0.86031 0.33563 0.0
C285 C 0.29867 0.83259 0.33361 0.0
C286 C 0.23511 0.78209 0.361 0.0
C287 C 0.24546 0.75924 0.38888 0.0
C288 C 0.28804 0.85583 0.30148 0.0
C289 C 0.2454 0.82604 0.25545 0.0
C290 C 0.32293 0.90815 0.31402 0.0
C291 C 0.36796 0.94161 0.3624 0.0
C292 C 0.33548 0.92127 0.41871 0.0
C293 C 0.37838 0.95309 0.46401 0.0
C294 C 0.45367 1.00548 0.4536 0.0
C295 C 0.48615 0.02622 0.39787 0.0
C296 C 0.44352 0.99455 0.3524 0.0
C297 C 0.15064 0.90673 0.19797 0.0
C298 C 0.20754 0.96148 0.18305 0.0
C299 C 0.17049 0.88539 0.21226 0.0
C300 C 0.24778 0.91825 0.21132 0.0
C301 C 0.30499 0.97214 0.19247 0.0
C302 C 0.28499 0.99368 0.17859 0.0
C303 C 0.26756 0.89808 0.23672 0.0
C304 C 0.31251 0.92859 0.2814 0.0
C305 C 0.23518 0.84658 0.22246 0.0
C306 C 0.19151 0.81391 0.17301 0.0
C307 C 0.21994 0.83814 0.11928 0.0
C308 C 0.17797 0.80753 0.07336 0.0
C309 C 0.10805 0.75233 0.08014 0.0
C310 C 0.0797 0.72767 0.133 0.0
C311 C 0.12101 0.75822 0.17928 0.0
H312 H 0.07592 0.72862 0.04439 0.0
H313 H 0.48678 0.03006 0.48873 0.0
H314 H 0.29597 0.5514 0.4334 0.0
H315 H 0.27372 0.4844 0.36817 0.0
H316 H 0.23164 0.40668 0.51163 0.0
H317 H 0.25428 0.4738 0.57725 0.0
H318 H 0.3206 0.41485 0.42237 0.0
H319 H 0.08373 0.34774 0.45241 0.0
H320 H 0.99205 0.34736 0.45982 0.0
H321 H 0.05931 0.38726 0.28099 0.0
H322 H 0.15207 0.38836 0.27253 0.0
H323 H 0.14836 0.17311 0.25539 0.0
H324 H 0.1683 0.23552 0.32902 0.0
H325 H 0.24905 0.33905 0.19645 0.0
H326 H 0.22999 0.2774 0.12273 0.0
H327 H 0.13288 0.31152 0.28605 0.0
H328 H 0.37772 0.38168 0.26363 0.0
H329 H 0.45821 0.37275 0.26217 0.0
H330 H 0.35896 0.31456 0.43563 0.0
H331 H 0.27764 0.32303 0.43814 0.0
C332 C 0.28215 0.52017 0.45116 0.0
C333 C 0.27669 0.51793 0.51062 0.0
C334 C 0.26908 0.48169 0.4138 0.0
C335 C 0.25015 0.4401 0.43505 0.0
C336 C 0.24604 0.43832 0.49425 0.0
C337 C 0.25887 0.47671 0.53171 0.0
C338 C 0.23493 0.39873 0.39517 0.0
C339 C 0.27878 0.39174 0.39314 0.0
C340 C 0.18029 0.36839 0.35703 0.0
C341 C 0.12545 0.36863 0.36195 0.0
C342 C 0.07951 0.35689 0.41473 0.0
C343 C 0.02717 0.3564 0.41911 0.0
C344 C 1.01997 0.3674 0.37096 0.0
C345 C 0.06502 0.37881 0.31828 0.0
C346 C 0.11742 0.37928 0.31363 0.0
C347 C 0.17069 0.20929 0.24191 0.0
C348 C 0.1873 0.22015 0.18316 0.0
C349 C 0.18217 0.24492 0.28403 0.0
C350 C 0.21002 0.29182 0.26812 0.0
C351 C 0.22715 0.30293 0.20959 0.0
C352 C 0.2164 0.26768 0.16753 0.0
C353 C 0.21991 0.32888 0.31236 0.0
C354 C 0.17472 0.3348 0.3153 0.0
C355 C 0.27186 0.35714 0.35223 0.0
C356 C 0.32119 0.35255 0.35091 0.0
C357 C 0.37272 0.36666 0.30133 0.0
C358 C 0.41856 0.36175 0.30032 0.0
C359 C 0.41347 0.34287 0.34863 0.0
C360 C 0.3628 0.32913 0.39821 0.0
C361 C 0.31697 0.33411 0.39952 0.0
H362 H 0.44895 0.33904 0.34768 0.0
H363 H 0.97937 0.36698 0.37445 0.0
H364 H 0.62441 0.85664 0.61534 0.0
H365 H 0.71022 0.89944 0.52469 0.0
H366 H 0.53781 0.74962 0.43436 0.0
H367 H 0.45285 0.7062 0.52539 0.0
H368 H 0.66748 0.78807 0.40056 0.0
H369 H 0.5958 0.87565 0.43853 0.0
H370 H 0.58908 0.93311 0.49316 0.0
H371 H 0.8341 0.06655 0.48399 0.0
H372 H 0.84236 0.00959 0.42958 0.0
H373 H 0.80111 0.86482 0.11238 0.0
H374 H 0.73855 0.83426 0.21088 0.0
H375 H 0.92298 0.9978 0.27288 0.0
H376 H 0.98474 0.02902 0.1736 0.0
H377 H 0.80133 0.96087 0.32696 0.0
H378 H 0.88702 0.89071 0.28491 0.0
H379 H 0.91528 0.8436 0.24115 0.0
H380 H 0.67675 0.69026 0.27671 0.0
H381 H 0.6469 0.73643 0.31915 0.0
C382 C 0.60405 0.83308 0.57598 0.0
C383 C 0.53094 0.77819 0.57748 0.0
C384 C 0.6532 0.85784 0.52395 0.0
C385 C 0.63005 0.82856 0.47194 0.0
C386 C 0.55675 0.77372 0.47348 0.0
C387 C 0.50781 0.74883 0.5256 0.0
C388 C 0.68398 0.85332 0.41661 0.0
C389 C 0.69622 0.82554 0.38395 0.0
C390 C 0.72545 0.9042 0.39688 0.0
C391 C 0.71964 0.93804 0.43 0.0
C392 C 0.6483 0.91704 0.44817 0.0
C393 C 0.64421 0.94962 0.4792 0.0
C394 C 0.71111 1.00344 0.49212 0.0
C395 C 0.78229 0.02483 0.47398 0.0
C396 C 0.78668 0.9924 0.44299 0.0
C397 C 0.82898 0.89431 0.14692 0.0
C398 C 0.89798 0.94946 0.13493 0.0
C399 C 0.79311 0.87664 0.20352 0.0
C400 C 0.82574 0.91345 0.2499 0.0
C401 C 0.89611 0.96842 0.23811 0.0
C402 C 0.93185 0.98624 0.18126 0.0
C403 C 0.78367 0.89477 0.30989 0.0
C404 C 0.77363 0.92365 0.3435 0.0
C405 C 0.74737 0.84621 0.33212 0.0
C406 C 0.76454 0.81766 0.30435 0.0
C407 C 0.84034 0.84711 0.28253 0.0
C408 C 0.85673 0.8204 0.25795 0.0
C409 C 0.79779 0.76388 0.25553 0.0
C410 C 0.72248 0.73405 0.27792 0.0
C411 C 0.70585 0.76063 0.30228 0.0
H412 H 0.81061 0.74325 0.23668 0.0
H413 H 0.70783 0.0286 0.51613 0.0
H414 H 0.9151 0.33706 0.56832 0.0
H415 H 0.94019 0.29637 0.60451 0.0
H416 H 0.71812 0.13698 0.57055 0.0
H417 H 0.69369 0.17747 0.53369 0.0
H418 H 0.74742 0.16999 0.69183 0.0
H419 H 0.84953 0.1585 0.5051 0.0
H420 H 0.93774 0.19295 0.41363 0.0
H421 H 0.12942 0.29835 0.50611 0.0
H422 H 0.04239 0.265 0.59831 0.0
H423 H 0.70114 0.98339 0.79343 0.0
H424 H 0.70836 0.03714 0.74233 0.0
H425 H 0.95234 0.1748 0.74574 0.0
H426 H 0.94537 0.12031 0.79596 0.0
H427 H 0.92455 0.16166 0.64065 0.0
H428 H 0.82715 0.17228 0.8261 0.0
H429 H 0.74456 0.14386 0.91922 0.0
H430 H 0.55038 0.04838 0.83317 0.0
H431 H 0.63177 0.07545 0.73914 0.0
C432 C 0.87368 0.2935 0.56567 0.0
C433 C 0.80289 0.26031 0.54764 0.0
C434 C 0.88778 0.27027 0.58666 0.0
C435 C 0.83082 0.21365 0.59042 0.0
C436 C 0.76295 0.18071 0.56771 0.0
C437 C 0.74924 0.20385 0.54629 0.0
C438 C 0.83465 0.18901 0.62783 0.0
C439 C 0.78538 0.16743 0.68036 0.0
C440 C 0.88681 0.18817 0.6139 0.0
C441 C 0.93948 0.20968 0.55862 0.0
C442 C 0.91057 0.18959 0.50599 0.0
C443 C 0.96032 0.20872 0.45401 0.0
C444 C 0.03906 0.24772 0.45412 0.0
C445 C 0.06837 0.26805 0.50617 0.0
C446 C 1.01885 0.24903 0.55828 0.0
C447 C 0.7561 0.02546 0.7843 0.0
C448 C 0.82265 0.04767 0.79886 0.0
C449 C 0.76023 0.05627 0.7551 0.0
C450 C 0.83095 0.11026 0.74008 0.0
C451 C 0.89714 0.13326 0.75666 0.0
C452 C 0.89299 0.10233 0.78605 0.0
C453 C 0.83565 0.14119 0.70446 0.0
C454 C 0.8867 0.16429 0.65244 0.0
C455 C 0.78566 0.14414 0.71909 0.0
C456 C 0.73558 0.12563 0.7755 0.0
C457 C 0.76666 0.14466 0.82695 0.0
C458 C 0.72001 0.12893 0.87997 0.0
C459 C 0.64221 0.09449 0.88221 0.0
C460 C 0.61072 0.07523 0.83137 0.0
C461 C 0.65708 0.0907 0.77817 0.0
H462 H 0.60616 0.08256 0.92326 0.0
H463 H 0.07732 0.26203 0.41389 0.0
H464 H 0.72578 0.47691 0.58042 0.0
H465 H 0.73082 0.53521 0.64984 0.0
H466 H 0.90669 0.66853 0.53169 0.0
H467 H 0.90212 0.61076 0.46268 0.0
H468 H 0.9426 0.69881 0.63957 0.0
H469 H 0.73118 0.60256 0.54785 0.0
H470 H 0.60687 0.52618 0.51248 0.0
H471 H 0.49079 0.4785 0.6859 0.0
H472 H 0.61483 0.55263 0.72269 0.0
H473 H 0.93392 0.87664 0.77559 0.0
H474 H 0.9167 0.81451 0.70359 0.0
H475 H 0.76702 0.68944 0.83142 0.0
H476 H 0.78489 0.75161 0.90383 0.0
H477 H 0.71619 0.65509 0.71836 0.0
H478 H 0.93758 0.75591 0.80663 0.0
H479 H 0.0648 0.83805 0.83569 0.0
H480 H 0.16427 0.88306 0.65867 0.0
H481 H 0.03706 0.80264 0.62865 0.0
C482 C 0.7653 0.51857 0.56938 0.0
C483 C 0.81329 0.53902 0.51609 0.0
C484 C 0.7678 0.55174 0.60883 0.0
C485 C 0.81843 0.60607 0.59571 0.0
C486 C 0.86699 0.62672 0.54275 0.0
C487 C 0.86419 0.59354 0.50327 0.0
C488 C 0.82248 0.64194 0.63762 0.0
C489 C 0.89318 0.68947 0.65624 0.0
C490 C 0.75768 0.62942 0.65991 0.0
C491 C 0.68291 0.58274 0.63807 0.0
C492 C 0.67949 0.57498 0.5786 0.0
C493 C 0.60895 0.53202 0.55827 0.0
C494 C 0.54107 0.49712 0.59697 0.0
C495 C 0.54361 0.50512 0.65608 0.0
C496 C 0.61408 0.54741 0.67668 0.0
C497 C 0.89704 0.83586 0.78825 0.0
C498 C 0.86179 0.81936 0.84556 0.0
C499 C 0.8873 0.80043 0.74712 0.0
C500 C 0.84128 0.74759 0.76238 0.0
C501 C 0.80304 0.73013 0.81887 0.0
C502 C 0.81366 0.76581 0.86023 0.0
C503 C 0.83601 0.71144 0.72019 0.0
C504 C 0.76523 0.66401 0.70164 0.0
C505 C 0.90094 0.72441 0.69711 0.0
C506 C 0.97731 0.77357 0.71542 0.0
C507 C 0.98622 0.78387 0.77392 0.0
C508 C 0.05843 0.83019 0.79059 0.0
C509 C 0.12251 0.86607 0.7491 0.0
C510 C 0.1145 0.85561 0.69084 0.0
C511 C 0.04228 0.80977 0.67399 0.0
H512 H 0.17843 0.90178 0.76206 0.0
H513 H 0.48645 0.46413 0.58118 0.0
H514 H 0.52096 0.32275 0.45712 0.0
H515 H 0.42786 0.28011 0.54466 0.0
H516 H 0.45066 0.18087 0.54986 0.0
H517 H 0.53821 0.22026 0.45904 0.0
H518 H 0.31971 0.12306 0.58547 0.0
H519 H 0.53582 0.31012 0.64862 0.0
H520 H 0.63235 0.40928 0.64836 0.0
H521 H 0.45513 0.39159 0.66067 0.0
H522 H 0.35738 0.29226 0.66301 0.0
H523 H 0.19782 0.06218 0.88084 0.0
H524 H 0.266 0.09619 0.78343 0.0
H525 H 0.19105 0.16283 0.78535 0.0
H526 H 0.12649 0.13132 0.88468 0.0
H527 H 0.32989 0.2323 0.74164 0.0
H528 H 0.11766 0.04633 0.69838 0.0
H529 H 1.02246 0.94781 0.70659 0.0
H530 H 0.20216 0.96586 0.66331 0.0
H531 H 0.2985 0.06455 0.65504 0.0
C532 C 0.50693 0.29251 0.4778 0.0
C533 C 0.5382 0.27577 0.45246 0.0
C534 C 0.45401 0.26831 0.52838 0.0
C535 C 0.43398 0.22865 0.5565 0.0
C536 C 0.46515 0.21172 0.53025 0.0
C537 C 0.51604 0.23463 0.47857 0.0
C538 C 0.37954 0.20378 0.61208 0.0
C539 C 0.32423 0.14769 0.62015 0.0
C540 C 0.38088 0.23432 0.6571 0.0
C541 C 0.43961 0.2939 0.65506 0.0
C542 C 0.51764 0.32744 0.65079 0.0
C543 C 0.5726 0.38375 0.6503 0.0
C544 C 0.5502 0.40693 0.65356 0.0
C545 C 0.47263 0.37376 0.65797 0.0
C546 C 0.41737 0.31747 0.65928 0.0
C547 C 0.19486 0.08326 0.85991 0.0
C548 C 0.15543 0.09301 0.8894 0.0
C549 C 0.23345 0.10244 0.80404 0.0
C550 C 0.23199 0.13076 0.7758 0.0
C551 C 0.1924 0.14054 0.8056 0.0
C552 C 0.15508 0.12227 0.86215 0.0
C553 C 0.2764 0.15331 0.71704 0.0
C554 C 0.32799 0.20841 0.70775 0.0
C555 C 0.27315 0.12225 0.67178 0.0
C556 C 0.21528 0.06283 0.6764 0.0
C557 C 0.13686 0.02927 0.6909 0.0
C558 C 0.08261 0.97331 0.69551 0.0
C559 C 0.10602 0.95038 0.68575 0.0
C560 C 0.18385 0.98345 0.67097 0.0
C561 C 0.23834 0.03943 0.6661 0.0
H562 H 0.06392 0.90704 0.68952 0.0
H563 H 0.59271 0.45051 0.6532 0.0
H564 H 0.6319 0.45608 0.11007 0.0
H565 H 0.63019 0.50729 0.06402 0.0
H566 H 0.38371 0.38034 0.10544 0.0
H567 H 0.38529 0.32941 0.15205 0.0
H568 H 0.43761 0.40385 0.98768 0.0
H569 H 0.48738 0.49928 0.16763 0.0
H570 H 0.55917 0.55027 0.25 0.0
H571 H 0.76332 0.67828 0.13743 0.0
H572 H 0.69312 0.62761 0.0541 0.0
H573 H 0.39156 0.54829 0.89779 0.0
H574 H 0.3861 0.49398 0.94642 0.0
H575 H 0.63052 0.61087 0.89986 0.0
H576 H 0.63595 0.66406 0.84939 0.0
H577 H 0.57425 0.59194 0.02258 0.0
H578 H 0.54487 0.49676 0.84733 0.0
H579 H 0.49244 0.44352 0.75873 0.0
H580 H 0.26761 0.32031 0.85542 0.0
H581 H 0.31943 0.37235 0.94514 0.0
C582 C 0.57775 0.44018 0.1113 0.0
C583 C 0.50874 0.38873 0.13429 0.0
C584 C 0.57671 0.4692 0.08459 0.0
C585 C 0.50669 0.44726 0.08076 0.0
C586 C 0.43823 0.39772 0.10745 0.0
C587 C 0.43927 0.36887 0.13428 0.0
C588 C 0.50427 0.47332 0.04435 0.0
C589 C 0.46606 0.44456 0.99607 0.0
C590 C 0.54405 0.52719 0.054 0.0
C591 C 0.58518 0.55924 0.10445 0.0
C592 C 0.5477 0.53816 0.16033 0.0
C593 C 0.58809 0.56701 0.20721 0.0
C594 C 0.66592 0.61716 0.19882 0.0
C595 C 0.70312 0.63921 0.14375 0.0
C596 C 0.663 0.61049 0.09668 0.0
C597 C 0.44356 0.56122 0.89589 0.0
C598 C 0.51432 0.61078 0.87033 0.0
C599 C 0.4405 0.53043 0.92412 0.0
C600 C 0.50812 0.54893 0.92744 0.0
C601 C 0.57784 0.5962 0.89828 0.0
C602 C 0.58077 0.62645 0.86941 0.0
C603 C 0.50736 0.52228 0.9661 0.0
C604 C 0.54488 0.55095 0.01479 0.0
C605 C 0.4683 0.46872 0.95636 0.0
C606 C 0.43566 0.43886 0.90263 0.0
C607 C 0.48403 0.4587 0.84954 0.0
C608 C 0.45449 0.42862 0.79916 0.0
C609 C 0.37646 0.37894 0.80118 0.0
C610 C 0.32793 0.35899 0.85382 0.0
C611 C 0.35742 0.38861 0.90451 0.0
H612 H 0.35376 0.35566 0.76209 0.0
H613 H 0.69742 0.63887 0.23502 0.0
H614 H 0.48714 0.82739 0.93433 0.0
H615 H 0.50484 0.88605 0.01281 0.0
H616 H 0.55657 0.98386 0.89021 0.0
H617 H 0.54152 0.9269 0.81184 0.0
H618 H 0.65002 0.04603 0.97049 0.0
H619 H 0.37357 0.87726 0.9693 0.0
H620 H 0.26116 0.7777 0.97745 0.0
H621 H 0.29616 0.78751 0.14825 0.0
H622 H 0.40968 0.88704 0.14071 0.0
H623 H 0.50501 0.14112 0.14474 0.0
H624 H 0.4789 0.06981 0.08558 0.0
H625 H 0.6186 0.09144 0.17782 0.0
H626 H 0.64357 0.16155 0.23783 0.0
H627 H 0.4284 0.96621 0.12147 0.0
H628 H 0.74785 0.11683 0.05562 0.0
H629 H 0.86832 0.21558 0.04909 0.0
H630 H 0.74847 0.23975 0.01502 0.0
H631 H 0.6278 0.14119 0.02031 0.0
C632 C 0.50304 0.86175 0.92408 0.0
C633 C 0.51195 0.87204 0.86682 0.0
C634 C 0.51282 0.89511 0.96904 0.0
C635 C 0.53059 0.93883 0.95757 0.0
C636 C 0.54262 0.95035 0.90023 0.0
C637 C 0.53362 0.91749 0.85538 0.0
C638 C 0.53439 0.97198 1.00463 0.0
C639 C 0.60146 0.02838 1.00341 0.0
C640 C 0.4716 0.94906 0.04853 0.0
C641 C 0.40072 0.88956 0.05412 0.0
C642 C 0.35751 0.85816 0.00847 0.0
C643 C 0.29379 0.80171 0.0129 0.0
C644 C 0.27186 0.77626 0.06318 0.0
C645 C 0.31345 0.80724 0.10922 0.0
C646 C 0.37749 0.86368 0.10489 0.0
C647 C 0.52924 0.13013 0.15295 0.0
C648 C 0.57715 0.15749 0.19551 0.0
C649 C 0.5137 0.08908 0.11951 0.0
C650 C 0.54681 0.07544 0.1275 0.0
C651 C 0.59217 0.1012 0.17131 0.0
C652 C 0.60671 0.14151 0.20529 0.0
C653 C 0.54293 0.03999 0.0854 0.0
C654 C 0.47657 0.98348 0.08827 0.0
C655 C 0.60646 0.06254 0.04315 0.0
C656 C 0.67868 0.12181 0.03937 0.0
C657 C 0.74732 0.14329 0.04675 0.0
C658 C 0.81563 0.19919 0.04316 0.0
C659 C 0.81597 0.23394 0.03195 0.0
C660 C 0.74805 0.21284 0.02408 0.0
C661 C 0.67964 0.15698 0.02756 0.0
H662 H 0.8689 0.2772 0.02918 0.0
H663 H 0.22232 0.73259 0.06661 0.0
H664 H 0.27877 0.6879 0.82955 0.0
H665 H 0.19755 0.64735 0.92211 0.0
H666 H 0.04495 0.48822 0.84354 0.0
H667 H 0.12431 0.52927 0.74971 0.0
H668 H 0.96198 0.49138 0.91598 0.0
H669 H 0.18217 0.54176 0.9327 0.0
H670 H 0.32091 0.6051 0.92576 0.0
H671 H 0.34127 0.71082 0.05001 0.0
H672 H 0.20276 0.64829 0.0574 0.0
H673 H 0.77186 0.35166 0.18548 0.0
H674 H 0.84515 0.38796 0.08921 0.0
H675 H 0.99421 0.55082 0.15691 0.0
H676 H 0.92195 0.51481 0.25307 0.0
H677 H 0.07717 0.54281 0.08949 0.0
H678 H 0.85651 0.49155 0.07402 0.0
H679 H 0.71749 0.4276 0.08218 0.0
H680 H 0.69744 0.32299 0.956 0.0
H681 H 0.8362 0.38586 0.94782 0.0
C682 C 0.22826 0.6442 0.83193 0.0
C683 C 0.20854 0.61182 0.78218 0.0
C684 C 0.18175 0.62089 0.88519 0.0
C685 C 0.11543 0.56431 0.8907 0.0
C686 C 0.09567 0.53187 0.8409 0.0
C687 C 0.14144 0.55536 0.78723 0.0
C688 C 0.06692 0.53934 0.9482 0.0
C689 C 0.98718 0.50206 0.95366 0.0
C690 C 0.0993 0.55376 0.99811 0.0
C691 C 0.18211 0.59042 0.9954 0.0
C692 C 0.21625 0.57851 0.95854 0.0
C693 C 0.29485 0.61428 0.95449 0.0
C694 C 0.33989 0.66199 0.98734 0.0
C695 C 0.30631 0.67383 0.02461 0.0
C696 C 0.22771 0.63816 0.02887 0.0
C697 C 0.81945 0.39519 0.17966 0.0
C698 C 0.84057 0.43028 0.22701 0.0
C699 C 0.86152 0.41597 0.12452 0.0
C700 C 0.92537 0.47233 0.11539 0.0
C701 C 0.94556 0.50727 0.16257 0.0
C702 C 0.90375 0.48656 0.2176 0.0
C703 C 0.9725 0.49511 0.05725 0.0
C704 C 0.05197 0.53197 0.05172 0.0
C705 C 0.93977 0.48017 0.00741 0.0
C706 C 0.85677 0.44325 0.01066 0.0
C707 C 0.82244 0.45481 0.04816 0.0
C708 C 0.74367 0.41874 0.05283 0.0
C709 C 0.69864 0.37121 0.01974 0.0
C710 C 0.7324 0.35981 0.98167 0.0
C711 C 0.81114 0.39567 0.97696 0.0
H712 H 0.63764 0.34327 0.02354 0.0
H713 H 0.40077 0.68972 0.98396 0.0
loop_
_geom_bond_atom_site_label_1
_geom_bond_atom_site_label_2
_geom_bond_distance
_geom_bond_site_symmetry_2
_ccdc_geom_bond_type
Eu0 O2 2.323 . S
Eu0 O10 2.328 1_556 S
Eu0 O21 2.316 1_655 S
Eu0 C22 2.837 . S
Eu0 O23 2.488 . S
Eu0 O31 2.461 . S
C1 O12 1.251 . S
C1 O21 1.237 1_545 S
O2 Eu0 2.323 . S
O2 C18 1.279 . S
C3 C5 1.383 . S
C3 C7 1.388 1_545 S
C3 C17 1.491 . S
C4 C6 1.403 . S
C4 C8 1.385 . S
C4 H32 0.931 . S
C5 C3 1.383 . S
C5 C6 1.393 1_545 S
C5 H33 0.930 . S
C6 C4 1.403 . S
C6 C5 1.393 1_565 S
C7 C3 1.388 1_565 S
C7 C8 1.394 . S
C7 H34 0.930 . S
C8 C4 1.385 . S
C8 C7 1.394 . S
Eu9 O11 2.323 . S
Eu9 O12 2.328 1_554 S
Eu9 O13 2.316 1_455 S
Eu9 O16 2.488 . S
Eu9 C17 2.837 . S
Eu9 O20 2.461 . S
O10 Eu0 2.328 1_554 S
O10 C30 1.251 . S
O11 Eu9 2.323 . S
O11 C14 1.279 . S
O12 C1 1.251 . S
O12 Eu9 2.328 1_556 S
O13 Eu9 2.316 1_655 S
O13 C30 1.237 1_545 S
C14 O11 1.279 . S
C14 O15 1.244 . S
O15 C14 1.244 . S
O16 Eu9 2.488 . S
O16 C17 1.271 . S
C17 C3 1.491 . S
C17 Eu9 2.837 . S
C17 O16 1.271 . S
C17 O20 1.261 . S
C18 O2 1.279 . S
C18 O19 1.244 . S
O19 C18 1.244 . S
O20 Eu9 2.461 . S
O20 C17 1.261 . S
O21 Eu0 2.316 1_455 S
O21 C1 1.237 1_565 S
C22 Eu0 2.837 . S
C22 O23 1.271 . S
C22 C24 1.491 . S
C22 O31 1.261 . S
O23 Eu0 2.488 . S
O23 C22 1.271 . S
C24 C22 1.491 . S
C24 C26 1.383 . S
C24 C28 1.388 1_565 S
C25 C27 1.403 . S
C25 C29 1.385 . S
C25 H35 0.931 . S
C26 C24 1.383 . S
C26 C27 1.393 1_565 S
C26 H36 0.930 . S
C27 C25 1.403 . S
C27 C26 1.393 1_545 S
C28 C24 1.388 1_545 S
C28 C29 1.394 . S
C28 H37 0.930 . S
C29 C25 1.385 . S
C29 C28 1.394 . S
C30 O10 1.251 . S
C30 O13 1.237 1_565 S
O31 Eu0 2.461 . S
O31 C22 1.261 . S
H32 C4 0.931 . S
H33 C5 0.930 . S
H34 C7 0.930 . S
H35 C25 0.931 . S
H36 C26 0.930 . S
H37 C28 0.930 . S
Eu38 O40 2.323 . S
Eu38 O48 2.328 . S
Eu38 O59 2.316 . S
Eu38 C60 2.837 . S
Eu38 O61 2.488 . S
Eu38 O69 2.461 . S
C39 O50 1.251 . S
C39 O59 1.237 . S
O40 Eu38 2.323 . S
O40 C56 1.279 . S
C41 C43 1.383 . S
C41 C45 1.388 . S
C41 C55 1.491 . S
C42 C44 1.403 . S
C42 C46 1.385 . S
C42 H70 0.931 . S
C43 C41 1.383 . S
C43 C44 1.393 . S
C43 H71 0.930 . S
C44 C42 1.403 . S
C44 C43 1.393 . S
C45 C41 1.388 . S
C45 C46 1.394 . S
C45 H72 0.930 . S
C46 C42 1.385 . S
C46 C45 1.394 . S
Eu47 O49 2.323 . S
Eu47 O50 2.328 . S
Eu47 O51 2.316 . S
Eu47 O54 2.488 . S
Eu47 C55 2.837 . S
Eu47 O58 2.461 . S
O48 Eu38 2.328 . S
O48 C68 1.251 . S
O49 Eu47 2.323 . S
O49 C52 1.279 . S
O50 C39 1.251 . S
O50 Eu47 2.328 . S
O51 Eu47 2.316 . S
O51 C68 1.237 . S
C52 O49 1.279 . S
C52 O53 1.244 . S
O53 C52 1.244 . S
O54 Eu47 2.488 . S
O54 C55 1.271 . S
C55 C41 1.491 . S
C55 Eu47 2.837 . S
C55 O54 1.271 . S
C55 O58 1.261 . S
C56 O40 1.279 . S
C56 O57 1.244 . S
O57 C56 1.244 . S
O58 Eu47 2.461 . S
O58 C55 1.261 . S
O59 Eu38 2.316 . S
O59 C39 1.237 . S
C60 Eu38 2.837 . S
C60 O61 1.271 . S
C60 C62 1.491 . S
C60 O69 1.261 . S
O61 Eu38 2.488 . S
O61 C60 1.271 . S
C62 C60 1.491 . S
C62 C64 1.383 . S
C62 C66 1.388 . S
C63 C65 1.403 . S
C63 C67 1.385 . S
C63 H73 0.931 . S
C64 C62 1.383 . S
C64 C65 1.393 . S
C64 H74 0.930 . S
C65 C63 1.403 . S
C65 C64 1.393 . S
C66 C62 1.388 . S
C66 C67 1.394 . S
C66 H75 0.930 . S
C67 C63 1.385 . S
C67 C66 1.394 . S
C68 O48 1.251 . S
C68 O51 1.237 . S
O69 Eu38 2.461 . S
O69 C60 1.261 . S
H70 C42 0.931 . S
H71 C43 0.930 . S
H72 C45 0.930 . S
H73 C63 0.931 . S
H74 C64 0.930 . S
H75 C66 0.930 . S
Eu76 O78 2.323 . S
Eu76 O86 2.328 . S
Eu76 O97 2.316 . S
Eu76 C98 2.837 . S
Eu76 O99 2.488 . S
Eu76 O107 2.461 . S
C77 O88 1.251 . S
C77 O97 1.237 . S
O78 Eu76 2.323 . S
O78 C94 1.279 . S
C79 C81 1.383 . S
C79 C83 1.388 . S
C79 C93 1.491 . S
C80 C82 1.403 . S
C80 C84 1.385 . S
C80 H108 0.931 . S
C81 C79 1.383 . S
C81 C82 1.393 . S
C81 H109 0.930 . S
C82 C80 1.403 . S
C82 C81 1.393 . S
C83 C79 1.388 . S
C83 C84 1.394 . S
C83 H110 0.930 . S
C84 C80 1.385 . S
C84 C83 1.394 . S
Eu85 O87 2.323 . S
Eu85 O88 2.328 . S
Eu85 O89 2.316 . S
Eu85 O92 2.488 . S
Eu85 C93 2.837 . S
Eu85 O96 2.461 . S
O86 Eu76 2.328 . S
O86 C106 1.251 . S
O87 Eu85 2.323 . S
O87 C90 1.279 . S
O88 C77 1.251 . S
O88 Eu85 2.328 . S
O89 Eu85 2.316 . S
O89 C106 1.237 . S
C90 O87 1.279 . S
C90 O91 1.244 . S
O91 C90 1.244 . S
O92 Eu85 2.488 . S
O92 C93 1.271 . S
C93 C79 1.491 . S
C93 Eu85 2.837 . S
C93 O92 1.271 . S
C93 O96 1.261 . S
C94 O78 1.279 . S
C94 O95 1.244 . S
O95 C94 1.244 . S
O96 Eu85 2.461 . S
O96 C93 1.261 . S
O97 Eu76 2.316 . S
O97 C77 1.237 . S
C98 Eu76 2.837 . S
C98 O99 1.271 . S
C98 C100 1.491 . S
C98 O107 1.261 . S
O99 Eu76 2.488 . S
O99 C98 1.271 . S
C100 C98 1.491 . S
C100 C102 1.383 . S
C100 C104 1.388 . S
C101 C103 1.403 . S
C101 C105 1.385 . S
C101 H111 0.931 . S
C102 C100 1.383 . S
C102 C103 1.393 . S
C102 H112 0.930 . S
C103 C101 1.403 . S
C103 C102 1.393 . S
C104 C100 1.388 . S
C104 C105 1.394 . S
C104 H113 0.930 . S
C105 C101 1.385 . S
C105 C104 1.394 . S
C106 O86 1.251 . S
C106 O89 1.237 . S
O107 Eu76 2.461 . S
O107 C98 1.261 . S
H108 C80 0.931 . S
H109 C81 0.930 . S
H110 C83 0.930 . S
H111 C101 0.931 . S
H112 C102 0.930 . S
H113 C104 0.930 . S
H114 C132 0.951 . S
H115 C134 0.951 . S
H116 C136 0.950 . S
H117 C137 0.950 1_455 S
H118 C139 0.950 . S
H119 C142 0.950 . S
H120 C143 0.950 . S
H121 C145 0.950 . S
H122 C146 0.950 . S
H123 C147 0.951 . S
H124 C149 0.951 . S
H125 C151 0.950 . S
H126 C152 0.950 1_655 S
H127 C154 0.950 . S
H128 C157 0.950 . S
H129 C158 0.950 . S
H130 C160 0.950 . S
H131 C161 0.950 . S
C132 H114 0.951 . S
C132 C133 1.366 1_565 S
C132 C134 1.388 . S
C133 C132 1.366 1_545 S
C133 C137 1.385 . S
C134 H115 0.951 . S
C134 C132 1.388 . S
C134 C135 1.366 1_565 S
C135 C134 1.366 1_545 S
C135 C136 1.414 1_655 S
C135 C138 1.504 . S
C136 H116 0.950 . S
C136 C135 1.414 1_455 S
C136 C137 1.374 1_455 S
C137 H117 0.950 1_655 S
C137 C133 1.385 . S
C137 C136 1.374 1_655 S
C138 C135 1.504 . S
C138 C139 1.387 1_655 S
C138 C140 1.373 1_545 S
C139 H118 0.950 . S
C139 C138 1.387 1_455 S
C139 C155 1.377 . S
C140 C138 1.373 1_565 S
C140 C141 1.524 . S
C140 C154 1.377 . S
C141 C140 1.524 . S
C141 C142 1.397 . S
C141 C146 1.363 . S
C142 H119 0.950 . S
C142 C141 1.397 . S
C142 C143 1.334 . S
C143 H120 0.950 . S
C143 C142 1.334 . S
C143 C144 1.287 . S
C144 C143 1.287 . S
C144 C145 1.524 . S
C144 H163 0.913 . S
C145 H121 0.950 . S
C145 C144 1.524 . S
C145 C146 1.415 . S
C146 H122 0.950 . S
C146 C141 1.363 . S
C146 C145 1.415 . S
C147 H123 0.951 . S
C147 C148 1.366 1_545 S
C147 C149 1.388 . S
C148 C147 1.366 1_565 S
C148 C152 1.385 . S
C149 H124 0.951 . S
C149 C147 1.388 . S
C149 C150 1.366 1_545 S
C150 C149 1.366 1_565 S
C150 C151 1.414 1_455 S
C150 C153 1.503 . S
C151 H125 0.950 . S
C151 C150 1.414 1_655 S
C151 C152 1.374 1_655 S
C152 H126 0.950 1_455 S
C152 C148 1.385 . S
C152 C151 1.374 1_455 S
C153 C150 1.503 . S
C153 C154 1.383 1_455 S
C153 C155 1.377 1_565 S
C154 H127 0.950 . S
C154 C140 1.377 . S
C154 C153 1.383 1_655 S
C155 C139 1.377 . S
C155 C153 1.377 1_545 S
C155 C156 1.524 . S
C156 C155 1.524 . S
C156 C157 1.397 . S
C156 C161 1.363 . S
C157 H128 0.950 . S
C157 C156 1.397 . S
C157 C158 1.334 . S
C158 H129 0.950 . S
C158 C157 1.334 . S
C158 C159 1.287 . S
C159 C158 1.287 . S
C159 C160 1.524 . S
C159 H162 0.999 . S
C160 H130 0.950 . S
C160 C159 1.524 . S
C160 C161 1.415 . S
C161 H131 0.950 . S
C161 C156 1.363 . S
C161 C160 1.415 . S
H162 C159 0.999 . S
H163 C144 0.913 . S
H164 C182 0.951 . S
H165 C184 0.951 . S
H166 C186 0.950 . S
H167 C187 0.950 . S
H168 C189 0.950 . S
H169 C192 0.950 . S
H170 C193 0.950 . S
H171 C195 0.950 . S
H172 C196 0.950 . S
H173 C197 0.951 . S
H174 C199 0.951 . S
H175 C201 0.950 . S
H176 C202 0.950 . S
H177 C204 0.950 . S
H178 C207 0.950 . S
H179 C208 0.950 . S
H180 C210 0.950 . S
H181 C211 0.950 . S
C182 H164 0.951 . S
C182 C183 1.366 . S
C182 C184 1.388 . S
C183 C182 1.366 . S
C183 C187 1.385 . S
C184 H165 0.951 . S
C184 C182 1.388 . S
C184 C185 1.366 . S
C185 C184 1.366 . S
C185 C186 1.414 . S
C185 C188 1.499 . S
C186 H166 0.950 . S
C186 C185 1.414 . S
C186 C187 1.374 . S
C187 H167 0.950 . S
C187 C183 1.385 . S
C187 C186 1.374 . S
C188 C185 1.499 . S
C188 C189 1.373 . S
C188 C190 1.389 . S
C189 H168 0.950 . S
C189 C188 1.373 . S
C189 C205 1.377 . S
C190 C188 1.389 . S
C190 C191 1.524 . S
C190 C204 1.377 . S
C191 C190 1.524 . S
C191 C192 1.397 . S
C191 C196 1.363 . S
C192 H169 0.950 . S
C192 C191 1.397 . S
C192 C193 1.334 . S
C193 H170 0.950 . S
C193 C192 1.334 . S
C193 C194 1.287 . S
C194 C193 1.287 . S
C194 C195 1.524 . S
C194 H213 0.913 . S
C195 H171 0.950 . S
C195 C194 1.524 . S
C195 C196 1.415 . S
C196 H172 0.950 . S
C196 C191 1.363 . S
C196 C195 1.415 . S
C197 H173 0.951 . S
C197 C198 1.366 . S
C197 C199 1.388 1_554 S
C198 C197 1.366 . S
C198 C202 1.385 . S
C199 H174 0.951 . S
C199 C197 1.388 1_556 S
C199 C200 1.366 . S
C200 C199 1.366 . S
C200 C201 1.414 . S
C200 C203 1.499 . S
C201 H175 0.950 . S
C201 C200 1.414 . S
C201 C202 1.374 1_556 S
C202 H176 0.950 . S
C202 C198 1.385 . S
C202 C201 1.374 1_554 S
C203 C200 1.499 . S
C203 C204 1.373 . S
C203 C205 1.389 . S
C204 H177 0.950 . S
C204 C190 1.377 . S
C204 C203 1.373 . S
C205 C189 1.377 . S
C205 C203 1.389 . S
C205 C206 1.524 . S
C206 C205 1.524 . S
C206 C207 1.397 . S
C206 C211 1.363 . S
C207 H178 0.950 . S
C207 C206 1.397 . S
C207 C208 1.334 . S
C208 H179 0.950 . S
C208 C207 1.334 . S
C208 C209 1.287 . S
C209 C208 1.287 . S
C209 C210 1.524 . S
C209 H212 0.999 . S
C210 H180 0.950 . S
C210 C209 1.524 . S
C210 C211 1.415 . S
C211 H181 0.950 . S
C211 C206 1.363 . S
C211 C210 1.415 . S
H212 C209 0.999 . S
H213 C194 0.913 . S
H214 C232 0.951 . S
H215 C234 0.951 . S
H216 C236 0.950 . S
H217 C237 0.950 . S
H218 C239 0.950 . S
H219 C242 0.950 . S
H220 C243 0.950 . S
H221 C245 0.950 . S
H222 C246 0.950 . S
H223 C247 0.951 . S
H224 C249 0.951 . S
H225 C251 0.950 . S
H226 C252 0.950 . S
H227 C254 0.950 . S
H228 C257 0.950 . S
H229 C258 0.950 . S
H230 C260 0.950 . S
H231 C261 0.950 . S
C232 H214 0.951 . S
C232 C233 1.366 . S
C232 C234 1.388 1_556 S
C233 C232 1.366 . S
C233 C237 1.385 . S
C234 H215 0.951 . S
C234 C232 1.388 1_554 S
C234 C235 1.366 . S
C235 C234 1.366 . S
C235 C236 1.414 . S
C235 C238 1.499 . S
C236 H216 0.950 . S
C236 C235 1.414 . S
C236 C237 1.374 1_554 S
C237 H217 0.950 . S
C237 C233 1.385 . S
C237 C236 1.374 1_556 S
C238 C235 1.499 . S
C238 C239 1.373 . S
C238 C240 1.389 . S
C239 H218 0.950 . S
C239 C238 1.373 . S
C239 C255 1.377 . S
C240 C238 1.389 . S
C240 C241 1.524 . S
C240 C254 1.377 . S
C241 C240 1.524 . S
C241 C242 1.397 . S
C241 C246 1.363 . S
C242 H219 0.950 . S
C242 C241 1.397 . S
C242 C243 1.334 . S
C243 H220 0.950 . S
C243 C242 1.334 . S
C243 C244 1.287 . S
C244 C243 1.287 . S
C244 C245 1.524 . S
C244 H263 0.913 . S
C245 H221 0.950 . S
C245 C244 1.524 . S
C245 C246 1.415 . S
C246 H222 0.950 . S
C246 C241 1.363 . S
C246 C245 1.415 . S
C247 H223 0.951 . S
C247 C248 1.366 . S
C247 C249 1.388 . S
C248 C247 1.366 . S
C248 C252 1.385 . S
C249 H224 0.951 . S
C249 C247 1.388 . S
C249 C250 1.366 . S
C250 C249 1.366 . S
C250 C251 1.414 . S
C250 C253 1.499 . S
C251 H225 0.950 . S
C251 C250 1.414 . S
C251 C252 1.374 . S
C252 H226 0.950 . S
C252 C248 1.385 . S
C252 C251 1.374 . S
C253 C250 1.499 . S
C253 C254 1.373 . S
C253 C255 1.389 . S
C254 H227 0.950 . S
C254 C240 1.377 . S
C254 C253 1.373 . S
C255 C239 1.377 . S
C255 C253 1.389 . S
C255 C256 1.524 . S
C256 C255 1.524 . S
C256 C257 1.397 . S
C256 C261 1.363 . S
C257 H228 0.950 . S
C257 C256 1.397 . S
C257 C258 1.334 . S
C258 H229 0.950 . S
C258 C257 1.334 . S
C258 C259 1.287 . S
C259 C258 1.287 . S
C259 C260 1.524 . S
C259 H262 0.999 . S
C260 H230 0.950 . S
C260 C259 1.524 . S
C260 C261 1.415 . S
C261 H231 0.950 . S
C261 C256 1.363 . S
C261 C260 1.415 . S
H262 C259 0.999 . S
H263 C244 0.913 . S
H264 C282 0.951 . S
H265 C284 0.951 . S
H266 C286 0.950 . S
H267 C287 0.950 . S
H268 C289 0.950 . S
H269 C292 0.950 . S
H270 C293 0.950 . S
H271 C295 0.950 1_545 S
H272 C296 0.950 . S
H273 C297 0.951 . S
H274 C299 0.951 . S
H275 C301 0.950 . S
H276 C302 0.950 . S
H277 C304 0.950 . S
H278 C307 0.950 . S
H279 C308 0.950 . S
H280 C310 0.950 . S
H281 C311 0.950 . S
C282 H264 0.951 . S
C282 C283 1.366 . S
C282 C284 1.388 . S
C283 C282 1.366 . S
C283 C287 1.385 . S
C284 H265 0.951 . S
C284 C282 1.388 . S
C284 C285 1.366 . S
C285 C284 1.366 . S
C285 C286 1.414 . S
C285 C288 1.499 . S
C286 H266 0.950 . S
C286 C285 1.414 . S
C286 C287 1.374 . S
C287 H267 0.950 . S
C287 C283 1.385 . S
C287 C286 1.374 . S
C288 C285 1.499 . S
C288 C289 1.373 . S
C288 C290 1.389 . S
C289 H268 0.950 . S
C289 C288 1.373 . S
C289 C305 1.377 . S
C290 C288 1.389 . S
C290 C291 1.524 . S
C290 C304 1.377 . S
C291 C290 1.524 . S
C291 C292 1.397 . S
C291 C296 1.363 . S
C292 H269 0.950 . S
C292 C291 1.397 . S
C292 C293 1.334 . S
C293 H270 0.950 . S
C293 C292 1.334 . S
C293 C294 1.287 . S
C294 C293 1.287 . S
C294 C295 1.524 . S
C294 H313 0.913 1_565 S
C295 H271 0.950 1_565 S
C295 C294 1.524 . S
C295 C296 1.415 . S
C296 H272 0.950 . S
C296 C291 1.363 . S
C296 C295 1.415 . S
C297 H273 0.951 . S
C297 C298 1.366 . S
C297 C299 1.388 . S
C298 C297 1.366 . S
C298 C302 1.385 . S
C299 H274 0.951 . S
C299 C297 1.388 . S
C299 C300 1.366 . S
C300 C299 1.366 . S
C300 C301 1.414 . S
C300 C303 1.499 . S
C301 H275 0.950 . S
C301 C300 1.414 . S
C301 C302 1.374 . S
C302 H276 0.950 . S
C302 C298 1.385 . S
C302 C301 1.374 . S
C303 C300 1.499 . S
C303 C304 1.373 . S
C303 C305 1.389 . S
C304 H277 0.950 . S
C304 C290 1.377 . S
C304 C303 1.373 . S
C305 C289 1.377 . S
C305 C303 1.389 . S
C305 C306 1.524 . S
C306 C305 1.524 . S
C306 C307 1.397 . S
C306 C311 1.363 1_455 S
C307 H278 0.950 . S
C307 C306 1.397 . S
C307 C308 1.334 1_455 S
C308 H279 0.950 . S
C308 C307 1.334 1_655 S
C308 C309 1.287 . S
C309 C308 1.287 . S
C309 C310 1.524 . S
C309 H312 0.999 . S
C310 H280 0.950 . S
C310 C309 1.524 . S
C310 C311 1.415 . S
C311 H281 0.950 . S
C311 C306 1.363 1_655 S
C311 C310 1.415 . S
H312 C309 0.999 . S
H313 C294 0.913 1_545 S
H314 C332 0.951 . S
H315 C334 0.951 . S
H316 C336 0.950 . S
H317 C337 0.950 . S
H318 C339 0.950 . S
H319 C342 0.950 . S
H320 C343 0.950 1_655 S
H321 C345 0.950 . S
H322 C346 0.950 . S
H323 C347 0.951 . S
H324 C349 0.951 . S
H325 C351 0.950 . S
H326 C352 0.950 . S
H327 C354 0.950 . S
H328 C357 0.950 . S
H329 C358 0.950 . S
H330 C360 0.950 . S
H331 C361 0.950 . S
C332 H314 0.951 . S
C332 C333 1.366 . S
C332 C334 1.388 . S
C333 C332 1.366 . S
C333 C337 1.385 . S
C334 H315 0.951 . S
C334 C332 1.388 . S
C334 C335 1.366 . S
C335 C334 1.366 . S
C335 C336 1.414 . S
C335 C338 1.499 . S
C336 H316 0.950 . S
C336 C335 1.414 . S
C336 C337 1.374 . S
C337 H317 0.950 . S
C337 C333 1.385 . S
C337 C336 1.374 . S
C338 C335 1.499 . S
C338 C339 1.373 . S
C338 C340 1.389 . S
C339 H318 0.950 . S
C339 C338 1.373 . S
C339 C355 1.377 . S
C340 C338 1.389 . S
C340 C341 1.524 . S
C340 C354 1.377 . S
C341 C340 1.524 . S
C341 C342 1.397 . S
C341 C346 1.363 . S
C342 H319 0.950 . S
C342 C341 1.397 . S
C342 C343 1.334 . S
C343 H320 0.950 1_455 S
C343 C342 1.334 . S
C343 C344 1.287 1_455 S
C344 C343 1.287 1_655 S
C344 C345 1.524 1_655 S
C344 H363 0.913 . S
C345 H321 0.950 . S
C345 C344 1.524 1_455 S
C345 C346 1.415 . S
C346 H322 0.950 . S
C346 C341 1.363 . S
C346 C345 1.415 . S
C347 H323 0.951 . S
C347 C348 1.366 . S
C347 C349 1.388 . S
C348 C347 1.366 . S
C348 C352 1.385 . S
C349 H324 0.951 . S
C349 C347 1.388 . S
C349 C350 1.366 . S
C350 C349 1.366 . S
C350 C351 1.414 . S
C350 C353 1.499 . S
C351 H325 0.950 . S
C351 C350 1.414 . S
C351 C352 1.374 . S
C352 H326 0.950 . S
C352 C348 1.385 . S
C352 C351 1.374 . S
C353 C350 1.499 . S
C353 C354 1.373 . S
C353 C355 1.389 . S
C354 H327 0.950 . S
C354 C340 1.377 . S
C354 C353 1.373 . S
C355 C339 1.377 . S
C355 C353 1.389 . S
C355 C356 1.524 . S
C356 C355 1.524 . S
C356 C357 1.397 . S
C356 C361 1.363 . S
C357 H328 0.950 . S
C357 C356 1.397 . S
C357 C358 1.334 . S
C358 H329 0.950 . S
C358 C357 1.334 . S
C358 C359 1.287 . S
C359 C358 1.287 . S
C359 C360 1.524 . S
C359 H362 0.999 . S
C360 H330 0.950 . S
C360 C359 1.524 . S
C360 C361 1.415 . S
C361 H331 0.950 . S
C361 C356 1.363 . S
C361 C360 1.415 . S
H362 C359 0.999 . S
H363 C344 0.913 . S
H364 C382 0.951 . S
H365 C384 0.951 . S
H366 C386 0.950 . S
H367 C387 0.950 . S
H368 C389 0.950 . S
H369 C392 0.950 . S
H370 C393 0.950 . S
H371 C395 0.950 . S
H372 C396 0.950 . S
H373 C397 0.951 . S
H374 C399 0.951 . S
H375 C401 0.950 . S
H376 C402 0.950 1_545 S
H377 C404 0.950 . S
H378 C407 0.950 . S
H379 C408 0.950 . S
H380 C410 0.950 . S
H381 C411 0.950 . S
C382 H364 0.951 . S
C382 C383 1.366 . S
C382 C384 1.388 . S
C383 C382 1.366 . S
C383 C387 1.385 . S
C384 H365 0.951 . S
C384 C382 1.388 . S
C384 C385 1.366 . S
C385 C384 1.366 . S
C385 C386 1.414 . S
C385 C388 1.499 . S
C386 H366 0.950 . S
C386 C385 1.414 . S
C386 C387 1.374 . S
C387 H367 0.950 . S
C387 C383 1.385 . S
C387 C386 1.374 . S
C388 C385 1.499 . S
C388 C389 1.373 . S
C388 C390 1.389 . S
C389 H368 0.950 . S
C389 C388 1.373 . S
C389 C405 1.377 . S
C390 C388 1.389 . S
C390 C391 1.524 . S
C390 C404 1.377 . S
C391 C390 1.524 . S
C391 C392 1.397 . S
C391 C396 1.363 . S
C392 H369 0.950 . S
C392 C391 1.397 . S
C392 C393 1.334 . S
C393 H370 0.950 . S
C393 C392 1.334 . S
C393 C394 1.287 . S
C394 C393 1.287 . S
C394 C395 1.524 . S
C394 H413 0.913 . S
C395 H371 0.950 . S
C395 C394 1.524 . S
C395 C396 1.415 . S
C396 H372 0.950 . S
C396 C391 1.363 . S
C396 C395 1.415 . S
C397 H373 0.951 . S
C397 C398 1.366 . S
C397 C399 1.388 . S
C398 C397 1.366 . S
C398 C402 1.385 . S
C399 H374 0.951 . S
C399 C397 1.388 . S
C399 C400 1.366 . S
C400 C399 1.366 . S
C400 C401 1.414 . S
C400 C403 1.499 . S
C401 H375 0.950 . S
C401 C400 1.414 . S
C401 C402 1.374 . S
C402 H376 0.950 1_565 S
C402 C398 1.385 . S
C402 C401 1.374 . S
C403 C400 1.499 . S
C403 C404 1.373 . S
C403 C405 1.389 . S
C404 H377 0.950 . S
C404 C390 1.377 . S
C404 C403 1.373 . S
C405 C389 1.377 . S
C405 C403 1.389 . S
C405 C406 1.524 . S
C406 C405 1.524 . S
C406 C407 1.397 . S
C406 C411 1.363 . S
C407 H378 0.950 . S
C407 C406 1.397 . S
C407 C408 1.334 . S
C408 H379 0.950 . S
C408 C407 1.334 . S
C408 C409 1.287 . S
C409 C408 1.287 . S
C409 C410 1.524 . S
C409 H412 0.999 . S
C410 H380 0.950 . S
C410 C409 1.524 . S
C410 C411 1.415 . S
C411 H381 0.950 . S
C411 C406 1.363 . S
C411 C410 1.415 . S
H412 C409 0.999 . S
H413 C394 0.913 . S
H414 C432 0.951 . S
H415 C434 0.951 . S
H416 C436 0.950 . S
H417 C437 0.950 . S
H418 C439 0.950 . S
H419 C442 0.950 . S
H420 C443 0.950 . S
H421 C445 0.950 . S
H422 C446 0.950 1_455 S
H423 C447 0.951 . S
H424 C449 0.951 . S
H425 C451 0.950 . S
H426 C452 0.950 1_455 S
H427 C454 0.950 . S
H428 C457 0.950 . S
H429 C458 0.950 . S
H430 C460 0.950 . S
H431 C461 0.950 . S
C432 H414 0.951 . S
C432 C433 1.366 . S
C432 C434 1.388 . S
C433 C432 1.366 . S
C433 C437 1.385 . S
C434 H415 0.951 . S
C434 C432 1.388 . S
C434 C435 1.366 . S
C435 C434 1.366 . S
C435 C436 1.414 . S
C435 C438 1.499 . S
C436 H416 0.950 . S
C436 C435 1.414 . S
C436 C437 1.374 . S
C437 H417 0.950 . S
C437 C433 1.385 . S
C437 C436 1.374 . S
C438 C435 1.499 . S
C438 C439 1.373 . S
C438 C440 1.389 . S
C439 H418 0.950 . S
C439 C438 1.373 . S
C439 C455 1.377 . S
C440 C438 1.389 . S
C440 C441 1.524 . S
C440 C454 1.377 . S
C441 C440 1.524 . S
C441 C442 1.397 . S
C441 C446 1.363 . S
C442 H419 0.950 . S
C442 C441 1.397 . S
C442 C443 1.334 . S
C443 H420 0.950 . S
C443 C442 1.334 . S
C443 C444 1.287 . S
C444 C443 1.287 . S
C444 C445 1.524 1_655 S
C444 H463 0.913 1_655 S
C445 H421 0.950 . S
C445 C444 1.524 1_455 S
C445 C446 1.415 1_455 S
C446 H422 0.950 1_655 S
C446 C441 1.363 . S
C446 C445 1.415 1_655 S
C447 H423 0.951 . S
C447 C448 1.366 . S
C447 C449 1.388 . S
C448 C447 1.366 . S
C448 C452 1.385 . S
C449 H424 0.951 . S
C449 C447 1.388 . S
C449 C450 1.366 . S
C450 C449 1.366 . S
C450 C451 1.414 . S
C450 C453 1.499 . S
C451 H425 0.950 . S
C451 C450 1.414 . S
C451 C452 1.374 . S
C452 H426 0.950 1_655 S
C452 C448 1.385 . S
C452 C451 1.374 . S
C453 C450 1.499 . S
C453 C454 1.373 . S
C453 C455 1.389 . S
C454 H427 0.950 . S
C454 C440 1.377 . S
C454 C453 1.373 . S
C455 C439 1.377 . S
C455 C453 1.389 . S
C455 C456 1.524 . S
C456 C455 1.524 . S
C456 C457 1.397 . S
C456 C461 1.363 . S
C457 H428 0.950 . S
C457 C456 1.397 . S
C457 C458 1.334 . S
C458 H429 0.950 . S
C458 C457 1.334 . S
C458 C459 1.287 . S
C459 C458 1.287 . S
C459 C460 1.524 . S
C459 H462 0.999 . S
C460 H430 0.950 . S
C460 C459 1.524 . S
C460 C461 1.415 . S
C461 H431 0.950 . S
C461 C456 1.363 . S
C461 C460 1.415 . S
H462 C459 0.999 . S
H463 C444 0.913 1_455 S
H464 C482 0.951 . S
H465 C484 0.951 . S
H466 C486 0.950 . S
H467 C487 0.950 . S
H468 C489 0.950 . S
H469 C492 0.950 . S
H470 C493 0.950 . S
H471 C495 0.950 . S
H472 C496 0.950 . S
H473 C497 0.951 1_455 S
H474 C499 0.951 . S
H475 C501 0.950 . S
H476 C502 0.950 . S
H477 C504 0.950 . S
H478 C507 0.950 1_655 S
H479 C508 0.950 . S
H480 C510 0.950 . S
H481 C511 0.950 . S
C482 H464 0.951 . S
C482 C483 1.366 . S
C482 C484 1.388 . S
C483 C482 1.366 . S
C483 C487 1.385 . S
C484 H465 0.951 . S
C484 C482 1.388 . S
C484 C485 1.366 . S
C485 C484 1.366 . S
C485 C486 1.414 . S
C485 C488 1.499 . S
C486 H466 0.950 . S
C486 C485 1.414 . S
C486 C487 1.374 . S
C487 H467 0.950 . S
C487 C483 1.385 . S
C487 C486 1.374 . S
C488 C485 1.499 . S
C488 C489 1.373 . S
C488 C490 1.389 . S
C489 H468 0.950 . S
C489 C488 1.373 . S
C489 C505 1.377 . S
C490 C488 1.389 . S
C490 C491 1.524 . S
C490 C504 1.377 . S
C491 C490 1.524 . S
C491 C492 1.397 . S
C491 C496 1.363 . S
C492 H469 0.950 . S
C492 C491 1.397 . S
C492 C493 1.334 . S
C493 H470 0.950 . S
C493 C492 1.334 . S
C493 C494 1.287 . S
C494 C493 1.287 . S
C494 C495 1.524 . S
C494 H513 0.913 . S
C495 H471 0.950 . S
C495 C494 1.524 . S
C495 C496 1.415 . S
C496 H472 0.950 . S
C496 C491 1.363 . S
C496 C495 1.415 . S
C497 H473 0.951 1_655 S
C497 C498 1.366 . S
C497 C499 1.388 . S
C498 C497 1.366 . S
C498 C502 1.385 . S
C499 H474 0.951 . S
C499 C497 1.388 . S
C499 C500 1.366 . S
C500 C499 1.366 . S
C500 C501 1.414 . S
C500 C503 1.499 . S
C501 H475 0.950 . S
C501 C500 1.414 . S
C501 C502 1.374 . S
C502 H476 0.950 . S
C502 C498 1.385 . S
C502 C501 1.374 . S
C503 C500 1.499 . S
C503 C504 1.373 . S
C503 C505 1.389 . S
C504 H477 0.950 . S
C504 C490 1.377 . S
C504 C503 1.373 . S
C505 C489 1.377 . S
C505 C503 1.389 . S
C505 C506 1.524 . S
C506 C505 1.524 . S
C506 C507 1.397 1_655 S
C506 C511 1.363 1_655 S
C507 H478 0.950 1_455 S
C507 C506 1.397 1_455 S
C507 C508 1.334 . S
C508 H479 0.950 . S
C508 C507 1.334 . S
C508 C509 1.287 . S
C509 C508 1.287 . S
C509 C510 1.524 . S
C509 H512 0.999 . S
C510 H480 0.950 . S
C510 C509 1.524 . S
C510 C511 1.415 . S
C511 H481 0.950 . S
C511 C506 1.363 1_455 S
C511 C510 1.415 . S
H512 C509 0.999 . S
H513 C494 0.913 . S
H514 C532 0.951 . S
H515 C534 0.951 . S
H516 C536 0.950 . S
H517 C537 0.950 . S
H518 C539 0.950 . S
H519 C542 0.950 . S
H520 C543 0.950 . S
H521 C545 0.950 . S
H522 C546 0.950 . S
H523 C547 0.951 . S
H524 C549 0.951 . S
H525 C551 0.950 . S
H526 C552 0.950 . S
H527 C554 0.950 . S
H528 C557 0.950 . S
H529 C558 0.950 . S
H530 C560 0.950 . S
H531 C561 0.950 . S
C532 H514 0.951 . S
C532 C533 1.366 . S
C532 C534 1.388 . S
C533 C532 1.366 . S
C533 C537 1.385 . S
C534 H515 0.951 . S
C534 C532 1.388 . S
C534 C535 1.366 . S
C535 C534 1.366 . S
C535 C536 1.414 . S
C535 C538 1.499 . S
C536 H516 0.950 . S
C536 C535 1.414 . S
C536 C537 1.374 . S
C537 H517 0.950 . S
C537 C533 1.385 . S
C537 C536 1.374 . S
C538 C535 1.499 . S
C538 C539 1.373 . S
C538 C540 1.389 . S
C539 H518 0.950 . S
C539 C538 1.373 . S
C539 C555 1.377 . S
C540 C538 1.389 . S
C540 C541 1.524 . S
C540 C554 1.377 . S
C541 C540 1.524 . S
C541 C542 1.397 . S
C541 C546 1.363 . S
C542 H519 0.950 . S
C542 C541 1.397 . S
C542 C543 1.334 . S
C543 H520 0.950 . S
C543 C542 1.334 . S
C543 C544 1.287 . S
C544 C543 1.287 . S
C544 C545 1.524 . S
C544 H563 0.913 . S
C545 H521 0.950 . S
C545 C544 1.524 . S
C545 C546 1.415 . S
C546 H522 0.950 . S
C546 C541 1.363 . S
C546 C545 1.415 . S
C547 H523 0.951 . S
C547 C548 1.366 . S
C547 C549 1.388 . S
C548 C547 1.366 . S
C548 C552 1.385 . S
C549 H524 0.951 . S
C549 C547 1.388 . S
C549 C550 1.366 . S
C550 C549 1.366 . S
C550 C551 1.414 . S
C550 C553 1.499 . S
C551 H525 0.950 . S
C551 C550 1.414 . S
C551 C552 1.374 . S
C552 H526 0.950 . S
C552 C548 1.385 . S
C552 C551 1.374 . S
C553 C550 1.499 . S
C553 C554 1.373 . S
C553 C555 1.389 . S
C554 H527 0.950 . S
C554 C540 1.377 . S
C554 C553 1.373 . S
C555 C539 1.377 . S
C555 C553 1.389 . S
C555 C556 1.524 . S
C556 C555 1.524 . S
C556 C557 1.397 . S
C556 C561 1.363 . S
C557 H528 0.950 . S
C557 C556 1.397 . S
C557 C558 1.334 1_545 S
C558 H529 0.950 . S
C558 C557 1.334 1_565 S
C558 C559 1.287 . S
C559 C558 1.287 . S
C559 C560 1.524 . S
C559 H562 0.999 . S
C560 H530 0.950 . S
C560 C559 1.524 . S
C560 C561 1.415 1_565 S
C561 H531 0.950 . S
C561 C556 1.363 . S
C561 C560 1.415 1_545 S
H562 C559 0.999 . S
H563 C544 0.913 . S
H564 C582 0.951 . S
H565 C584 0.951 . S
H566 C586 0.950 . S
H567 C587 0.950 . S
H568 C589 0.950 . S
H569 C592 0.950 . S
H570 C593 0.950 . S
H571 C595 0.950 . S
H572 C596 0.950 . S
H573 C597 0.951 . S
H574 C599 0.951 . S
H575 C601 0.950 . S
H576 C602 0.950 . S
H577 C604 0.950 . S
H578 C607 0.950 . S
H579 C608 0.950 . S
H580 C610 0.950 . S
H581 C611 0.950 . S
C582 H564 0.951 . S
C582 C583 1.366 . S
C582 C584 1.388 . S
C583 C582 1.366 . S
C583 C587 1.385 . S
C584 H565 0.951 . S
C584 C582 1.388 . S
C584 C585 1.366 . S
C585 C584 1.366 . S
C585 C586 1.414 . S
C585 C588 1.499 . S
C586 H566 0.950 . S
C586 C585 1.414 . S
C586 C587 1.374 . S
C587 H567 0.950 . S
C587 C583 1.385 . S
C587 C586 1.374 . S
C588 C585 1.499 . S
C588 C589 1.373 . S
C588 C590 1.389 . S
C589 H568 0.950 . S
C589 C588 1.373 . S
C589 C605 1.377 1_554 S
C590 C588 1.389 . S
C590 C591 1.524 . S
C590 C604 1.377 1_554 S
C591 C590 1.524 . S
C591 C592 1.397 . S
C591 C596 1.363 1_554 S
C592 H569 0.950 . S
C592 C591 1.397 . S
C592 C593 1.334 . S
C593 H570 0.950 . S
C593 C592 1.334 . S
C593 C594 1.287 . S
C594 C593 1.287 . S
C594 C595 1.524 1_554 S
C594 H613 0.913 . S
C595 H571 0.950 . S
C595 C594 1.524 1_556 S
C595 C596 1.415 . S
C596 H572 0.950 . S
C596 C591 1.363 1_556 S
C596 C595 1.415 . S
C597 H573 0.951 . S
C597 C598 1.366 . S
C597 C599 1.388 . S
C598 C597 1.366 . S
C598 C602 1.385 . S
C599 H574 0.951 . S
C599 C597 1.388 . S
C599 C600 1.366 . S
C600 C599 1.366 . S
C600 C601 1.414 . S
C600 C603 1.499 . S
C601 H575 0.950 . S
C601 C600 1.414 . S
C601 C602 1.374 . S
C602 H576 0.950 . S
C602 C598 1.385 . S
C602 C601 1.374 . S
C603 C600 1.499 . S
C603 C604 1.373 . S
C603 C605 1.389 . S
C604 H577 0.950 . S
C604 C590 1.377 1_556 S
C604 C603 1.373 . S
C605 C589 1.377 1_556 S
C605 C603 1.389 . S
C605 C606 1.524 . S
C606 C605 1.524 . S
C606 C607 1.397 . S
C606 C611 1.363 1_556 S
C607 H578 0.950 . S
C607 C606 1.397 . S
C607 C608 1.334 . S
C608 H579 0.950 . S
C608 C607 1.334 . S
C608 C609 1.287 . S
C609 C608 1.287 . S
C609 C610 1.524 1_556 S
C609 H612 0.999 . S
C610 H580 0.950 . S
C610 C609 1.524 1_554 S
C610 C611 1.415 . S
C611 H581 0.950 . S
C611 C606 1.363 1_554 S
C611 C610 1.415 . S
H612 C609 0.999 . S
H613 C594 0.913 . S
H614 C632 0.951 . S
H615 C634 0.951 . S
H616 C636 0.950 . S
H617 C637 0.950 . S
H618 C639 0.950 . S
H619 C642 0.950 . S
H620 C643 0.950 . S
H621 C645 0.950 . S
H622 C646 0.950 . S
H623 C647 0.951 . S
H624 C649 0.951 . S
H625 C651 0.950 . S
H626 C652 0.950 . S
H627 C654 0.950 . S
H628 C657 0.950 . S
H629 C658 0.950 . S
H630 C660 0.950 . S
H631 C661 0.950 . S
C632 H614 0.951 . S
C632 C633 1.366 . S
C632 C634 1.388 . S
C633 C632 1.366 . S
C633 C637 1.385 . S
C634 H615 0.951 . S
C634 C632 1.388 . S
C634 C635 1.366 . S
C635 C634 1.366 . S
C635 C636 1.414 . S
C635 C638 1.499 . S
C636 H616 0.950 . S
C636 C635 1.414 . S
C636 C637 1.374 . S
C637 H617 0.950 . S
C637 C633 1.385 . S
C637 C636 1.374 . S
C638 C635 1.499 . S
C638 C639 1.373 1_565 S
C638 C640 1.389 1_556 S
C639 H618 0.950 . S
C639 C638 1.373 1_545 S
C639 C655 1.377 . S
C640 C638 1.389 1_554 S
C640 C641 1.524 . S
C640 C654 1.377 . S
C641 C640 1.524 . S
C641 C642 1.397 1_554 S
C641 C646 1.363 . S
C642 H619 0.950 . S
C642 C641 1.397 1_556 S
C642 C643 1.334 . S
C643 H620 0.950 . S
C643 C642 1.334 . S
C643 C644 1.287 1_556 S
C644 C643 1.287 1_554 S
C644 C645 1.524 . S
C644 H663 0.913 . S
C645 H621 0.950 . S
C645 C644 1.524 . S
C645 C646 1.415 . S
C646 H622 0.950 . S
C646 C641 1.363 . S
C646 C645 1.415 . S
C647 H623 0.951 . S
C647 C648 1.366 . S
C647 C649 1.388 . S
C648 C647 1.366 . S
C648 C652 1.385 . S
C649 H624 0.951 . S
C649 C647 1.388 . S
C649 C650 1.366 . S
C650 C649 1.366 . S
C650 C651 1.414 . S
C650 C653 1.499 . S
C651 H625 0.950 . S
C651 C650 1.414 . S
C651 C652 1.374 . S
C652 H626 0.950 . S
C652 C648 1.385 . S
C652 C651 1.374 . S
C653 C650 1.499 . S
C653 C654 1.373 1_545 S
C653 C655 1.389 1_554 S
C654 H627 0.950 . S
C654 C640 1.377 . S
C654 C653 1.373 1_565 S
C655 C639 1.377 . S
C655 C653 1.389 1_556 S
C655 C656 1.524 . S
C656 C655 1.524 . S
C656 C657 1.397 1_556 S
C656 C661 1.363 . S
C657 H628 0.950 . S
C657 C656 1.397 1_554 S
C657 C658 1.334 . S
C658 H629 0.950 . S
C658 C657 1.334 . S
C658 C659 1.287 1_554 S
C659 C658 1.287 1_556 S
C659 C660 1.524 . S
C659 H662 0.999 . S
C660 H630 0.950 . S
C660 C659 1.524 . S
C660 C661 1.415 . S
C661 H631 0.950 . S
C661 C656 1.363 . S
C661 C660 1.415 . S
H662 C659 0.999 . S
H663 C644 0.913 . S
H664 C682 0.951 . S
H665 C684 0.951 . S
H666 C686 0.950 . S
H667 C687 0.950 . S
H668 C689 0.950 . S
H669 C692 0.950 . S
H670 C693 0.950 . S
H671 C695 0.950 . S
H672 C696 0.950 . S
H673 C697 0.951 . S
H674 C699 0.951 . S
H675 C701 0.950 . S
H676 C702 0.950 . S
H677 C704 0.950 . S
H678 C707 0.950 . S
H679 C708 0.950 . S
H680 C710 0.950 . S
H681 C711 0.950 . S
C682 H664 0.951 . S
C682 C683 1.366 . S
C682 C684 1.388 . S
C683 C682 1.366 . S
C683 C687 1.385 . S
C684 H665 0.951 . S
C684 C682 1.388 . S
C684 C685 1.366 . S
C685 C684 1.366 . S
C685 C686 1.414 . S
C685 C688 1.499 . S
C686 H666 0.950 . S
C686 C685 1.414 . S
C686 C687 1.374 . S
C687 H667 0.950 . S
C687 C683 1.385 . S
C687 C686 1.374 . S
C688 C685 1.499 . S
C688 C689 1.373 1_455 S
C688 C690 1.389 1_556 S
C689 H668 0.950 . S
C689 C688 1.373 1_655 S
C689 C705 1.377 . S
C690 C688 1.389 1_554 S
C690 C691 1.524 . S
C690 C704 1.377 . S
C691 C690 1.524 . S
C691 C692 1.397 1_554 S
C691 C696 1.363 . S
C692 H669 0.950 . S
C692 C691 1.397 1_556 S
C692 C693 1.334 . S
C693 H670 0.950 . S
C693 C692 1.334 . S
C693 C694 1.287 1_556 S
C694 C693 1.287 1_554 S
C694 C695 1.524 . S
C694 H713 0.913 . S
C695 H671 0.950 . S
C695 C694 1.524 . S
C695 C696 1.415 . S
C696 H672 0.950 . S
C696 C691 1.363 . S
C696 C695 1.415 . S
C697 H673 0.951 . S
C697 C698 1.366 . S
C697 C699 1.388 . S
C698 C697 1.366 . S
C698 C702 1.385 . S
C699 H674 0.951 . S
C699 C697 1.388 . S
C699 C700 1.366 . S
C700 C699 1.366 . S
C700 C701 1.414 . S
C700 C703 1.499 . S
C701 H675 0.950 . S
C701 C700 1.414 . S
C701 C702 1.374 . S
C702 H676 0.950 . S
C702 C698 1.385 . S
C702 C701 1.374 . S
C703 C700 1.499 . S
C703 C704 1.373 1_655 S
C703 C705 1.389 1_554 S
C704 H677 0.950 . S
C704 C690 1.377 . S
C704 C703 1.373 1_455 S
C705 C689 1.377 . S
C705 C703 1.389 1_556 S
C705 C706 1.524 . S
C706 C705 1.524 . S
C706 C707 1.397 1_556 S
C706 C711 1.363 . S
C707 H678 0.950 . S
C707 C706 1.397 1_554 S
C707 C708 1.334 . S
C708 H679 0.950 . S
C708 C707 1.334 . S
C708 C709 1.287 1_554 S
C709 C708 1.287 1_556 S
C709 C710 1.524 . S
C709 H712 0.999 . S
C710 H680 0.950 . S
C710 C709 1.524 . S
C710 C711 1.415 . S
C711 H681 0.950 . S
C711 C706 1.363 . S
C711 C710 1.415 . S
H712 C709 0.999 . S
H713 C694 0.913 . S
C133 C27 0.325 . S
C148 C6 0.325 . S
C183 C44 0.324 . S
C198 C65 0.324 . S
C233 C82 0.325 . S
C248 C103 0.325 . S
C283 C105 2.632 . S
C298 C8 2.632 . S
C333 C94 1.160 . S
C348 C14 1.158 . S
C383 C77 1.420 . S
C398 C30 1.419 . S
C433 C46 2.632 . S
C448 C29 2.632 . S
C483 C52 1.159 . S
C498 C18 1.161 . S
C533 C68 1.420 . S
C548 C1 1.421 . S
C583 C67 2.632 . S
C598 C84 2.632 . S
C633 C90 1.158 . S
C648 C56 1.158 . S
C683 C106 1.420 . S
C698 C39 1.420 . S
