# Generated by pormake.
# Topology lcy-e, (6)-cn, num edge types: 1
# Building blocks:
#     Node 0, Type 0, BuildingBlock: KUMBOL_clean_sbu_0, # of connection points: 6
#     Node 1, Type 0, BuildingBlock: KUMBOL_clean_sbu_0, # of connection points: 6
#     Node 2, Type 0, BuildingBlock: KUMBOL_clean_sbu_0, # of connection points: 6
#     Node 3, Type 0, BuildingBlock: KUMBOL_clean_sbu_0, # of connection points: 6
#     Node 4, Type 0, BuildingBlock: KUMBOL_clean_sbu_0, # of connection points: 6
#     Node 5, Type 0, BuildingBlock: KUMBOL_clean_sbu_0, # of connection points: 6
#     Node 6, Type 0, BuildingBlock: KUMBOL_clean_sbu_0, # of connection points: 6
#     Node 7, Type 0, BuildingBlock: KUMBOL_clean_sbu_0, # of connection points: 6
#     Node 8, Type 0, BuildingBlock: KUMBOL_clean_sbu_0, # of connection points: 6
#     Node 9, Type 0, BuildingBlock: KUMBOL_clean_sbu_0, # of connection points: 6
#     Node 10, Type 0, BuildingBlock: KUMBOL_clean_sbu_0, # of connection points: 6
#     Node 11, Type 0, BuildingBlock: KUMBOL_clean_sbu_0, # of connection points: 6
#     Edge 12, Type (0, 0), BuildingBlock: UVAHIK_clean_linker_0, # of connection points: 2
#     Edge 13, Type (0, 0), BuildingBlock: UVAHIK_clean_linker_0, # of connection points: 2
#     Edge 14, Type (0, 0), BuildingBlock: UVAHIK_clean_linker_0, # of connection points: 2
#     Edge 15, Type (0, 0), BuildingBlock: UVAHIK_clean_linker_0, # of connection points: 2
#     Edge 16, Type (0, 0), BuildingBlock: UVAHIK_clean_linker_0, # of connection points: 2
#     Edge 17, Type (0, 0), BuildingBlock: UVAHIK_clean_linker_0, # of connection points: 2
#     Edge 18, Type (0, 0), BuildingBlock: UVAHIK_clean_linker_0, # of connection points: 2
#     Edge 19, Type (0, 0), BuildingBlock: UVAHIK_clean_linker_0, # of connection points: 2
#     Edge 20, Type (0, 0), BuildingBlock: UVAHIK_clean_linker_0, # of connection points: 2
#     Edge 21, Type (0, 0), BuildingBlock: UVAHIK_clean_linker_0, # of connection points: 2
#     Edge 22, Type (0, 0), BuildingBlock: UVAHIK_clean_linker_0, # of connection points: 2
#     Edge 23, Type (0, 0), BuildingBlock: UVAHIK_clean_linker_0, # of connection points: 2
#     Edge 24, Type (0, 0), BuildingBlock: UVAHIK_clean_linker_0, # of connection points: 2
#     Edge 25, Type (0, 0), BuildingBlock: UVAHIK_clean_linker_0, # of connection points: 2
#     Edge 26, Type (0, 0), BuildingBlock: UVAHIK_clean_linker_0, # of connection points: 2
#     Edge 27, Type (0, 0), BuildingBlock: UVAHIK_clean_linker_0, # of connection points: 2
#     Edge 28, Type (0, 0), BuildingBlock: UVAHIK_clean_linker_0, # of connection points: 2
#     Edge 29, Type (0, 0), BuildingBlock: UVAHIK_clean_linker_0, # of connection points: 2
#     Edge 30, Type (0, 0), BuildingBlock: UVAHIK_clean_linker_0, # of connection points: 2
#     Edge 31, Type (0, 0), BuildingBlock: UVAHIK_clean_linker_0, # of connection points: 2
#     Edge 32, Type (0, 0), BuildingBlock: UVAHIK_clean_linker_0, # of connection points: 2
#     Edge 33, Type (0, 0), BuildingBlock: UVAHIK_clean_linker_0, # of connection points: 2
#     Edge 34, Type (0, 0), BuildingBlock: UVAHIK_clean_linker_0, # of connection points: 2
#     Edge 35, Type (0, 0), BuildingBlock: UVAHIK_clean_linker_0, # of connection points: 2
#     Edge 36, Type (0, 0), BuildingBlock: UVAHIK_clean_linker_0, # of connection points: 2
#     Edge 37, Type (0, 0), BuildingBlock: UVAHIK_clean_linker_0, # of connection points: 2
#     Edge 38, Type (0, 0), BuildingBlock: UVAHIK_clean_linker_0, # of connection points: 2
#     Edge 39, Type (0, 0), BuildingBlock: UVAHIK_clean_linker_0, # of connection points: 2
#     Edge 40, Type (0, 0), BuildingBlock: UVAHIK_clean_linker_0, # of connection points: 2
#     Edge 41, Type (0, 0), BuildingBlock: UVAHIK_clean_linker_0, # of connection points: 2
#     Edge 42, Type (0, 0), BuildingBlock: UVAHIK_clean_linker_0, # of connection points: 2
#     Edge 43, Type (0, 0), BuildingBlock: UVAHIK_clean_linker_0, # of connection points: 2
#     Edge 44, Type (0, 0), BuildingBlock: UVAHIK_clean_linker_0, # of connection points: 2
#     Edge 45, Type (0, 0), BuildingBlock: UVAHIK_clean_linker_0, # of connection points: 2
#     Edge 46, Type (0, 0), BuildingBlock: UVAHIK_clean_linker_0, # of connection points: 2
#     Edge 47, Type (0, 0), BuildingBlock: UVAHIK_clean_linker_0, # of connection points: 2
# Relax obj value: 0.116
# Max RMSD: 0.279
# Mean RMSD: 0.278
data_MOF--net-lcy-e--node1-KUMBOL_clean_sbu_0--edge1-UVAHIK_clean_linker_0
_symmetry_space_group_name_H-M    P1
_symmetry_Int_Tables_number       1
_symmetry_cell_setting            triclinic
loop_
_symmetry_equiv_pos_as_xyz
'x, y, z'
_cell_length_a     53.848466
_cell_length_b     53.935682
_cell_length_c     53.958635
_cell_angle_alpha  89.72882
_cell_angle_beta   90.351508
_cell_angle_gamma 90.536519
loop_
_atom_site_label
_atom_site_type_symbol
_atom_site_fract_x
_atom_site_fract_y
_atom_site_fract_z
_atom_type_partial_charge
Gd0 Gd 0.12579 0.25419 0.46831 0.0
Gd1 Gd 0.14222 0.21009 0.51724 0.0
C2 C 0.20464 0.24321 0.56471 0.0
C3 C 0.23921 0.21626 0.55534 0.0
C4 C 0.19862 0.20873 0.53672 0.0
C5 C 0.18936 0.22921 0.54859 0.0
C6 C 0.22337 0.20137 0.54078 0.0
C7 C 0.22985 0.23719 0.56727 0.0
C8 C 0.19384 0.26208 0.5786 0.0
C9 C 0.16824 0.26572 0.57709 0.0
N10 N 0.16482 0.23404 0.54615 0.0
C11 C 0.15389 0.25122 0.5609 0.0
H12 H 0.13419 0.25406 0.55998 0.0
C13 C 0.18926 0.17119 0.51625 0.0
N14 N 0.18263 0.19453 0.52335 0.0
C15 C 0.21371 0.16318 0.51944 0.0
C16 C 0.23102 0.1786 0.53127 0.0
H17 H 0.17586 0.15926 0.50708 0.0
H18 H 0.24199 0.24796 0.57926 0.0
H19 H 0.14752 0.22029 0.41792 0.0
H20 H 0.20492 0.27329 0.59117 0.0
H21 H 0.15954 0.27974 0.58829 0.0
H22 H 0.25841 0.21114 0.55836 0.0
H23 H 0.07577 0.28626 0.48873 0.0
H24 H 0.08539 0.19237 0.37819 0.0
H25 H 0.13061 0.19519 0.38498 0.0
H26 H 0.01608 0.23103 0.41578 0.0
H27 H 0.21914 0.14511 0.51285 0.0
H28 H 0.24988 0.17226 0.53397 0.0
H29 H 0.04303 0.20593 0.38962 0.0
H30 H 0.03105 0.28709 0.48243 0.0
N31 N 0.11223 0.23033 0.43334 0.0
C32 C 0.09267 0.20317 0.39353 0.0
C33 C 0.11816 0.20462 0.39739 0.0
C34 C 0.07691 0.21638 0.40894 0.0
C35 C 0.08728 0.23008 0.42887 0.0
C36 C 0.12768 0.2187 0.41698 0.0
N37 N 0.08216 0.25686 0.46297 0.0
C38 C 0.07192 0.24375 0.44401 0.0
C39 C 0.04219 0.2744 0.47182 0.0
C40 C 0.03118 0.25964 0.45371 0.0
C41 C 0.06779 0.27325 0.47578 0.0
C42 C 0.04606 0.24452 0.43916 0.0
H43 H 0.01133 0.26071 0.45053 0.0
O44 O 0.11985 0.29382 0.46987 0.0
O45 O 0.14584 0.24966 0.50445 0.0
O46 O 0.10649 0.22905 0.5266 0.0
O47 O 0.10971 0.2661 0.50517 0.0
O48 O 0.16532 0.2658 0.4757 0.0
O49 O 0.13335 0.27718 0.43556 0.0
O50 O 0.1324 0.17215 0.52772 0.0
O51 O 0.11539 0.21894 0.48705 0.0
O52 O 0.1596 0.23352 0.45527 0.0
O53 O 0.16989 0.20507 0.48659 0.0
O54 O 0.12969 0.18338 0.48764 0.0
O55 O 0.12642 0.20186 0.55336 0.0
C56 C 0.16601 0.2608 0.49913 0.0
C57 C 0.03584 0.23066 0.41965 0.0
C58 C 0.05119 0.21647 0.4047 0.0
C59 C 0.12666 0.29725 0.447 0.0
C60 C 0.12673 0.32211 0.4354 0.0
C61 C 0.11436 0.34157 0.44715 0.0
C62 C 0.13887 0.3267 0.41271 0.0
C63 C 0.13884 0.35066 0.40207 0.0
C64 C 0.11399 0.36516 0.43654 0.0
C65 C 0.12608 0.36971 0.41421 0.0
C66 C 0.10035 0.25242 0.52333 0.0
C67 C 0.11408 0.19797 0.47685 0.0
C68 C 0.12603 0.17799 0.5501 0.0
C69 C 0.1366 0.16276 0.57028 0.0
C70 C 0.15911 0.16979 0.58161 0.0
C71 C 0.12411 0.14119 0.57854 0.0
C72 C 0.13394 0.12708 0.59827 0.0
C73 C 0.16894 0.15569 0.601 0.0
C74 C 0.1564 0.13454 0.60939 0.0
C75 C 0.17321 0.21532 0.46455 0.0
H76 H 0.10476 0.33854 0.46451 0.0
H77 H 0.14869 0.31186 0.40365 0.0
H78 H 0.10423 0.37998 0.44565 0.0
H79 H 0.12521 0.38817 0.40629 0.0
H80 H 0.16899 0.18627 0.57561 0.0
H81 H 0.10672 0.13558 0.56991 0.0
H82 H 0.18629 0.16127 0.60965 0.0
H83 H 0.16426 0.12389 0.62455 0.0
Gd84 Gd 0.06173 0.89279 0.77676 0.0
Gd85 Gd 0.01354 0.87399 0.7329 0.0
C86 C 0.96254 0.81247 0.76149 0.0
C87 C 0.97172 0.77858 0.73356 0.0
C88 C 0.99285 0.81834 0.72897 0.0
C89 C 0.98027 0.82741 0.74921 0.0
C90 C 0.98797 0.79416 0.72029 0.0
C91 C 0.95905 0.78771 0.75417 0.0
C92 C 0.94778 0.8233 0.77968 0.0
C93 C 0.94995 0.84872 0.78416 0.0
N94 N 0.98333 0.85167 0.75507 0.0
C95 C 0.96767 0.86278 0.77129 0.0
H96 H 0.96916 0.88242 0.77468 0.0
C97 C 0.01671 0.82775 0.69342 0.0
N98 N 1.00789 0.83411 0.71624 0.0
C99 C 0.01252 0.80392 0.68409 0.0
C100 C 0.99849 0.78687 0.69782 0.0
H101 H 0.02764 0.84093 0.68285 0.0
H102 H 0.94573 0.77584 0.76358 0.0
H103 H 0.10944 0.87385 0.7383 0.0
H104 H 0.93393 0.81248 0.78953 0.0
H105 H 0.93802 0.85749 0.79752 0.0
H106 H 0.96799 0.75981 0.7274 0.0
H107 H 0.04195 0.94126 0.81187 0.0
H108 H 0.14642 0.93777 0.7107 0.0
H109 H 0.141 0.89237 0.71241 0.0
H110 H 0.10774 1.00493 0.752 0.0
H111 H 0.02011 0.79871 0.66636 0.0
H112 H 0.99511 0.76847 0.69048 0.0
H113 H 0.13375 0.97942 0.72525 0.0
H114 H 0.04643 0.98624 0.81301 0.0
N115 N 0.09499 0.90817 0.7517 0.0
C116 C 0.13214 0.92972 0.72238 0.0
C117 C 0.12909 0.90413 0.72326 0.0
C118 C 0.11698 0.94461 0.73684 0.0
C119 C 0.09849 0.93322 0.75171 0.0
C120 C 0.11063 0.89363 0.73816 0.0
N121 N 0.06593 0.93647 0.78069 0.0
C122 C 0.08349 0.94771 0.76646 0.0
C123 C 0.05662 0.97574 0.79946 0.0
C124 C 0.07298 0.98773 0.78347 0.0
C125 C 0.05377 0.95002 0.79825 0.0
C126 C 0.08709 0.97373 0.76712 0.0
H127 H 0.07526 0.00768 0.78452 0.0
O128 O 0.06277 0.89857 0.81644 0.0
O129 O 0.02512 0.873 0.773 0.0
O130 O 1.0034 0.91004 0.75045 0.0
O131 O 0.02468 0.90985 0.7878 0.0
O132 O 0.05313 0.85454 0.79134 0.0
O133 O 0.09602 0.88526 0.79757 0.0
O134 O 1.0038 0.88319 0.69467 0.0
O135 O 0.04376 0.90121 0.74048 0.0
O136 O 0.07543 0.85837 0.75703 0.0
O137 O 0.0418 0.84351 0.73352 0.0
O138 O 0.04375 0.88455 0.70602 0.0
O139 O 0.97764 0.88974 0.72396 0.0
C140 C 0.02983 0.85369 0.78571 0.0
C141 C 0.10499 0.985 0.75191 0.0
C142 C 0.11986 0.97048 0.73677 0.0
C143 C 0.08582 0.89164 0.81843 0.0
C144 C 0.09896 0.89137 0.84264 0.0
C145 C 0.08723 0.90153 0.8634 0.0
C146 C 0.12263 0.88051 0.84561 0.0
C147 C 0.13392 0.87932 0.86929 0.0
C148 C 0.09854 0.9007 0.88667 0.0
C149 C 0.12161 0.88958 0.88966 0.0
C150 C 1.00662 0.9181 0.77322 0.0
C151 C 0.054 0.90156 0.71949 0.0
C152 C 0.98133 0.88974 0.70015 0.0
C153 C 0.9612 0.87915 0.68484 0.0
C154 C 0.94958 0.8568 0.6918 0.0
C155 C 0.95291 0.8918 0.66352 0.0
C156 C 0.93273 0.88239 0.64965 0.0
C157 C 0.92993 0.84719 0.6778 0.0
C158 C 0.92142 0.85995 0.65693 0.0
C159 C 0.06467 0.84167 0.74235 0.0
H160 H 0.06917 0.91009 0.86172 0.0
H161 H 0.13189 0.87247 0.82983 0.0
H162 H 0.08931 0.9086 0.90251 0.0
H163 H 0.12998 0.88914 0.90797 0.0
H164 H 0.95541 0.84695 0.70823 0.0
H165 H 0.96164 0.90919 0.65815 0.0
H166 H 0.92108 0.82994 0.6833 0.0
H167 H 0.90598 0.85229 0.64642 0.0
Gd168 Gd 0.38289 0.80436 0.02127 0.0
Gd169 Gd 0.39661 0.75692 0.9752 0.0
C170 C 0.45643 0.70521 1.00534 0.0
C171 C 0.49171 0.71552 0.97926 0.0
C172 C 0.45209 0.73589 0.9728 0.0
C173 C 0.4421 0.72291 0.99248 0.0
C174 C 0.47664 0.73145 0.96517 0.0
C175 C 0.4816 0.70242 0.99937 0.0
C176 C 0.44462 0.68977 0.02263 0.0
C177 C 0.41893 0.69125 0.02559 0.0
N178 N 0.41755 0.72549 0.99709 0.0
C179 C 0.40558 0.70913 0.01234 0.0
H180 H 0.38578 0.71003 0.01459 0.0
C181 C 0.44359 0.75812 0.93599 0.0
N182 N 0.43671 0.75038 0.95918 0.0
C183 C 0.46788 0.75464 0.92777 0.0
C184 C 0.4847 0.74178 0.94274 0.0
H185 H 0.43052 0.768 0.92438 0.0
H186 H 0.49303 0.68922 1.00931 0.0
H187 H 0.40083 0.85653 0.98792 0.0
H188 H 0.45493 0.67588 0.03286 0.0
H189 H 0.40942 0.67876 0.03818 0.0
H190 H 0.51076 0.71219 0.97397 0.0
H191 H 0.33556 0.78214 0.05762 0.0
H192 H 0.33587 0.89249 0.96201 0.0
H193 H 0.38147 0.88892 0.96357 0.0
H194 H 0.2698 0.84944 1.00253 0.0
H195 H 0.47356 0.76177 0.90988 0.0
H196 H 0.50342 0.7388 0.9362 0.0
H197 H 0.2945 0.87763 0.97648 0.0
H198 H 0.29058 0.78539 0.0602 0.0
N199 N 0.36663 0.83889 0.99885 0.0
C200 C 0.34426 0.8776 0.97258 0.0
C201 C 0.36997 0.87554 0.9733 0.0
C202 C 0.32972 0.86094 0.98619 0.0
C203 C 0.34154 0.84171 0.9996 0.0
C204 C 0.3809 0.85641 0.98692 0.0
N205 N 0.33932 0.80768 0.02724 0.0
C206 C 0.32754 0.82561 0.01405 0.0
C207 C 0.30062 0.79646 0.04673 0.0
C208 C 0.28807 0.81339 0.03185 0.0
C209 C 0.32632 0.79423 0.0446 0.0
C210 C 0.30152 0.82863 0.0157 0.0
H211 H 0.26814 0.8152 0.03366 0.0
O212 O 0.37762 0.80816 0.06113 0.0
O213 O 0.40129 0.76758 0.01541 0.0
O214 O 0.36076 0.74887 0.99499 0.0
O215 O 0.36702 0.76676 0.03333 0.0
O216 O 0.42199 0.79478 0.03239 0.0
O217 O 0.39832 0.83605 0.04094 0.0
O218 O 0.38589 0.74882 0.93699 0.0
O219 O 0.37144 0.78772 0.98524 0.0
O220 O 0.41476 0.81847 0.99786 0.0
O221 O 0.42617 0.78638 0.97137 0.0
O222 O 0.38522 0.78801 0.94958 0.0
O223 O 0.37863 0.72192 0.96549 0.0
C224 C 0.4217 0.77164 0.02668 0.0
C225 C 0.28975 0.84712 1.0017 0.0
C226 C 0.30381 0.8632 0.98693 0.0
C227 C 0.38862 0.82982 0.06211 0.0
C228 C 0.37615 0.85004 0.07562 0.0
C229 C 0.35021 0.85021 0.07796 0.0
C230 C 0.39025 0.87001 0.08545 0.0
C231 C 0.37838 0.8901 0.09703 0.0
C232 C 0.33846 0.86985 0.08963 0.0
C233 C 0.35236 0.88966 0.09901 0.0
C234 C 0.35589 0.75016 0.01884 0.0
C235 C 0.37001 0.79862 0.9645 0.0
C236 C 0.37811 0.72648 0.94181 0.0
C237 C 0.38738 0.7067 0.9255 0.0
C238 C 0.41071 0.69628 0.93022 0.0
C239 C 0.37297 0.69791 0.90531 0.0
C240 C 0.38178 0.67845 0.89036 0.0
C241 C 0.41966 0.67746 0.91522 0.0
C242 C 0.40534 0.66853 0.89553 0.0
C243 C 0.42903 0.80886 0.98058 0.0
H244 H 0.3389 0.83529 0.07071 0.0
H245 H 0.41027 0.87019 0.08353 0.0
H246 H 0.31844 0.86977 0.09131 0.0
H247 H 0.34271 0.90465 0.10802 0.0
H248 H 0.42195 0.70255 0.94565 0.0
H249 H 0.35484 0.70573 0.90164 0.0
H250 H 0.43773 0.66961 0.91899 0.0
H251 H 0.41273 0.65382 0.88422 0.0
Gd252 Gd 0.46866 0.12286 0.27098 0.0
Gd253 Gd 0.51559 0.13994 0.22604 0.0
C254 C 0.56512 0.20019 0.2603 0.0
C255 C 0.55371 0.23664 0.23637 0.0
C256 C 0.53493 0.19653 0.22714 0.0
C257 C 0.54802 0.18592 0.24637 0.0
C258 C 0.53852 0.22179 0.22113 0.0
C259 C 0.56703 0.22584 0.25597 0.0
C260 C 0.5809 0.18801 0.27697 0.0
C261 C 0.58033 0.16215 0.27829 0.0
N262 N 0.54621 0.16102 0.24946 0.0
C263 C 0.56296 0.14888 0.26408 0.0
H264 H 0.56287 0.12897 0.26503 0.0
C265 C 0.51358 0.18954 0.1895 0.0
N266 N 0.52125 0.18138 0.21236 0.0
C267 C 0.51615 0.21453 0.1829 0.0
C268 C 0.52813 0.2309 0.1991 0.0
H269 H 0.50436 0.17688 0.17689 0.0
H270 H 0.57972 0.23721 0.26678 0.0
H271 H 0.4144 0.14515 0.24384 0.0
H272 H 0.59437 0.19826 0.28796 0.0
H273 H 0.59313 0.15242 0.29033 0.0
H274 H 0.55636 0.25619 0.23234 0.0
H275 H 0.49084 0.0715 0.30028 0.0
H276 H 0.37606 0.08457 0.21089 0.0
H277 H 0.38067 0.12945 0.21836 0.0
H278 H 0.4189 0.01362 0.24139 0.0
H279 H 0.50901 0.2211 0.16529 0.0
H280 H 0.53044 0.25018 0.19381 0.0
H281 H 0.39035 0.0416 0.21965 0.0
H282 H 0.48629 0.0266 0.29801 0.0
N283 N 0.43235 0.10996 0.24854 0.0
C284 C 0.39171 0.09142 0.22166 0.0
C285 C 0.39435 0.11675 0.22569 0.0
C286 C 0.4086 0.07516 0.23256 0.0
C287 C 0.42883 0.08504 0.24631 0.0
C288 C 0.41436 0.12567 0.23974 0.0
N289 N 0.46408 0.0791 0.27175 0.0
C290 C 0.4451 0.06922 0.25829 0.0
C291 C 0.4749 0.0383 0.2863 0.0
C292 C 0.4569 0.0278 0.27091 0.0
C293 C 0.47783 0.06404 0.28697 0.0
C294 C 0.4413 0.04325 0.25715 0.0
H295 H 0.45457 0.00783 0.27051 0.0
O296 O 0.47203 0.11581 0.31057 0.0
O297 O 0.50441 0.14365 0.26588 0.0
O298 O 0.52537 0.10385 0.24473 0.0
O299 O 0.50629 0.10772 0.28267 0.0
O300 O 0.47543 0.16264 0.28157 0.0
O301 O 0.43699 0.12931 0.29502 0.0
O302 O 0.52548 0.13359 0.18753 0.0
O303 O 0.48612 0.11222 0.23541 0.0
O304 O 0.4542 0.15648 0.25022 0.0
O305 O 0.48395 0.16641 0.22038 0.0
O306 O 0.48517 0.12722 0.20007 0.0
O307 O 0.55041 0.12243 0.21669 0.0
C308 C 0.49891 0.16368 0.27682 0.0
C309 C 0.42182 0.03347 0.24275 0.0
C310 C 0.40555 0.0494 0.23041 0.0
C311 C 0.44933 0.1226 0.31471 0.0
C312 C 0.43842 0.1224 0.33971 0.0
C313 C 0.45242 0.11377 0.35999 0.0
C314 C 0.41405 0.13077 0.34357 0.0
C315 C 0.40365 0.13004 0.36741 0.0
C316 C 0.44223 0.11325 0.38367 0.0
C317 C 0.41798 0.12122 0.3874 0.0
C318 C 0.52345 0.09793 0.26836 0.0
C319 C 0.47522 0.11094 0.21463 0.0
C320 C 0.54729 0.12504 0.19295 0.0
C321 C 0.56824 0.13596 0.17933 0.0
C322 C 0.57995 0.15769 0.18782 0.0
C323 C 0.57688 0.12439 0.15783 0.0
C324 C 0.5975 0.1342 0.14515 0.0
C325 C 0.60024 0.16763 0.17513 0.0
C326 C 0.6091 0.15591 0.15399 0.0
C327 C 0.46236 0.16981 0.23123 0.0
H328 H 0.47125 0.10737 0.35756 0.0
H329 H 0.40304 0.13744 0.32808 0.0
H330 H 0.45314 0.1066 0.39921 0.0
H331 H 0.41049 0.12072 0.40598 0.0
H332 H 0.57356 0.16685 0.20432 0.0
H333 H 0.56791 0.10754 0.1513 0.0
H334 H 0.60921 0.18439 0.18177 0.0
H335 H 0.62488 0.16393 0.14439 0.0
Gd336 Gd 0.65718 0.2992 0.50245 0.0
Gd337 Gd 0.6299 0.2523 0.54526 0.0
C338 C 0.55964 0.20748 0.52818 0.0
C339 C 0.53007 0.22492 0.55701 0.0
C340 C 0.57263 0.24029 0.556 0.0
C341 C 0.57799 0.22411 0.53699 0.0
C342 C 0.54874 0.24061 0.56651 0.0
C343 C 0.53551 0.20838 0.53787 0.0
C344 C 0.56635 0.18976 0.51065 0.0
C345 C 0.59107 0.18819 0.50327 0.0
N346 N 0.60166 0.22327 0.52853 0.0
C347 C 0.60867 0.20487 0.51285 0.0
H348 H 0.62778 0.2032 0.50726 0.0
C349 C 0.58744 0.26964 0.58515 0.0
N350 N 0.59115 0.25506 0.56487 0.0
C351 C 0.56401 0.27071 0.59611 0.0
C352 C 0.5445 0.25631 0.58661 0.0
H353 H 0.60241 0.28087 0.59253 0.0
H354 H 0.52111 0.19589 0.53119 0.0
H355 H 0.65122 0.34542 0.5437 0.0
H356 H 0.5528 0.17667 0.50338 0.0
H357 H 0.59664 0.17408 0.49029 0.0
H358 H 0.51154 0.22502 0.56471 0.0
H359 H 0.69161 0.28009 0.45516 0.0
H360 H 0.72296 0.37637 0.55886 0.0
H361 H 0.67764 0.37532 0.56598 0.0
H362 H 0.77537 0.33503 0.50106 0.0
H363 H 0.56102 0.28264 0.61186 0.0
H364 H 0.52639 0.25712 0.59519 0.0
H365 H 0.75953 0.36065 0.53505 0.0
H366 H 0.73529 0.28216 0.4413 0.0
N367 N 0.68116 0.32898 0.52422 0.0
C368 C 0.71141 0.36315 0.54893 0.0
C369 C 0.68584 0.36265 0.55294 0.0
C370 C 0.72163 0.34716 0.53149 0.0
C371 C 0.70575 0.33031 0.51909 0.0
C372 C 0.67088 0.34555 0.54019 0.0
N373 N 0.69823 0.3016 0.4875 0.0
C374 C 0.71465 0.3159 0.5002 0.0
C375 C 0.7298 0.29159 0.45803 0.0
C376 C 0.74728 0.30503 0.47183 0.0
C377 C 0.70512 0.29048 0.4659 0.0
C378 C 0.73968 0.3179 0.49289 0.0
H379 H 0.76635 0.30608 0.46559 0.0
O380 O 0.65208 0.31164 0.46433 0.0
O381 O 0.62908 0.26922 0.50737 0.0
O382 O 0.65816 0.23415 0.52098 0.0
O383 O 0.68244 0.2653 0.50211 0.0
O384 O 0.64505 0.27275 0.47263 0.0
O385 O 0.63712 0.33317 0.49416 0.0
O386 O 0.64054 0.24367 0.58323 0.0
O387 O 0.66013 0.27997 0.53865 0.0
O388 O 0.62516 0.31416 0.52624 0.0
O389 O 0.60055 0.27999 0.53637 0.0
O390 O 0.64441 0.28048 0.57314 0.0
O391 O 0.64291 0.21543 0.55496 0.0
C392 C 0.62947 0.26016 0.48572 0.0
C393 C 0.75598 0.33349 0.50615 0.0
C394 C 0.74696 0.3481 0.52546 0.0
C395 C 0.64133 0.33223 0.47045 0.0
C396 C 0.65133 0.35518 0.45909 0.0
C397 C 0.67693 0.36013 0.46017 0.0
C398 C 0.63542 0.37265 0.44778 0.0
C399 C 0.64519 0.39506 0.43806 0.0
C400 C 0.68664 0.38206 0.45036 0.0
C401 C 0.67095 0.39943 0.43946 0.0
C402 C 0.67779 0.24181 0.50835 0.0
C403 C 0.66177 0.28989 0.55965 0.0
C404 C 0.6447 0.2204 0.57858 0.0
C405 C 0.63317 0.20251 0.59586 0.0
C406 C 0.60913 0.19333 0.59129 0.0
C407 C 0.6457 0.19544 0.61775 0.0
C408 C 0.63392 0.1798 0.63516 0.0
C409 C 0.59747 0.17779 0.60843 0.0
C410 C 0.60968 0.17118 0.63031 0.0
C411 C 0.60367 0.30408 0.53332 0.0
H412 H 0.68945 0.34708 0.46865 0.0
H413 H 0.61559 0.36908 0.44705 0.0
H414 H 0.70644 0.38566 0.4513 0.0
H415 H 0.679 0.41633 0.43196 0.0
H416 H 0.59928 0.19824 0.57455 0.0
H417 H 0.66426 0.20252 0.62148 0.0
H418 H 0.57886 0.17092 0.60479 0.0
H419 H 0.60028 0.15905 0.64337 0.0
Gd420 Gd 0.0148 0.38063 0.80325 0.0
Gd421 Gd 0.97022 0.39811 0.75503 0.0
C422 C 1.00288 0.46008 0.70712 0.0
C423 C 0.97677 0.49498 0.71753 0.0
C424 C 0.96925 0.45454 0.73623 0.0
C425 C 0.98923 0.44501 0.72367 0.0
C426 C 0.96202 0.47931 0.73235 0.0
C427 C 0.99723 0.48537 0.70495 0.0
C428 C 0.02072 0.44893 0.69217 0.0
C429 C 0.02352 0.42322 0.69298 0.0
N430 N 0.99351 0.42036 0.72556 0.0
C431 C 0.00944 0.4091 0.70969 0.0
H432 H 0.01166 0.38928 0.71021 0.0
C433 C 0.93172 0.44536 0.75687 0.0
N434 N 0.95505 0.43866 0.7497 0.0
C435 C 0.92384 0.46983 0.75384 0.0
C436 C 0.93936 0.48707 0.74209 0.0
H437 H 0.91973 0.43197 0.76594 0.0
H438 H 1.00775 0.49735 0.69262 0.0
H439 H 0.98334 0.40278 0.85467 0.0
H440 H 0.03159 0.45983 0.67918 0.0
H441 H 0.03662 0.41427 0.68089 0.0
H442 H 0.97179 0.51421 0.71466 0.0
H443 H 0.04607 0.32987 0.78315 0.0
H444 H 0.9514 0.34141 0.89254 0.0
H445 H 0.95731 0.38651 0.88736 0.0
H446 H 0.98512 0.27103 0.85215 0.0
H447 H 0.9058 0.47533 0.76049 0.0
H448 H 0.9331 0.50595 0.7395 0.0
H449 H 0.96178 0.29862 0.87928 0.0
H450 H 0.04431 0.28496 0.78793 0.0
N451 N 0.99075 0.36743 0.83811 0.0
C452 C 0.96263 0.34845 0.87742 0.0
C453 C 0.96579 0.37388 0.87445 0.0
C454 C 0.9747 0.33237 0.8614 0.0
C455 C 0.98905 0.34247 0.84183 0.0
C456 C 0.98033 0.38308 0.85507 0.0
N457 N 0.01611 0.3369 0.80805 0.0
C458 C 1.00196 0.32684 0.82633 0.0
C459 C 0.03187 0.29643 0.79849 0.0
C460 C 0.01583 0.28567 0.81564 0.0
C461 C 0.03226 0.32214 0.7954 0.0
C462 C 1.00113 0.30088 0.83029 0.0
H463 H 0.01569 0.26572 0.81814 0.0
O464 O 0.05459 0.37395 0.80309 0.0
O465 O 0.01059 0.40035 0.76678 0.0
O466 O 0.98882 0.36243 0.74494 0.0
O467 O 0.02617 0.36393 0.76641 0.0
O468 O 0.02777 0.41954 0.79512 0.0
O469 O 0.03697 0.38836 0.83647 0.0
O470 O 0.93216 0.38691 0.74611 0.0
O471 O 0.97889 0.37114 0.78508 0.0
O472 O 0.99481 0.41476 0.81646 0.0
O473 O 0.96702 0.42671 0.78519 0.0
O474 O 0.94382 0.38653 0.78528 0.0
O475 O 0.96026 0.38416 0.71837 0.0
C476 C 0.02295 0.41999 0.77166 0.0
C477 C 0.98619 0.29088 0.84911 0.0
C478 C 0.97297 0.30659 0.86459 0.0
C479 C 0.0574 0.38141 0.82588 0.0
C480 C 0.08187 0.38176 0.8386 0.0
C481 C 0.10283 0.37305 0.82607 0.0
C482 C 0.0848 0.39135 0.86282 0.0
C483 C 0.10857 0.39275 0.87393 0.0
C484 C 0.12625 0.37411 0.83717 0.0
C485 C 0.12916 0.38401 0.86083 0.0
C486 C 0.01191 0.35519 0.74829 0.0
C487 C 0.95801 0.37026 0.79559 0.0
C488 C 0.93669 0.38197 0.72307 0.0
C489 C 0.91935 0.39268 0.70459 0.0
C490 C 0.92203 0.41761 0.69764 0.0
C491 C 0.89987 0.37831 0.69404 0.0
C492 C 0.8831 0.38903 0.67676 0.0
C493 C 0.90523 0.42847 0.6813 0.0
C494 C 0.88587 0.41447 0.67112 0.0
C495 C 0.97741 0.42942 0.80726 0.0
H496 H 0.10118 0.36553 0.80754 0.0
H497 H 0.06886 0.39825 0.87272 0.0
H498 H 0.14226 0.36737 0.82732 0.0
H499 H 0.14758 0.38467 0.86903 0.0
H500 H 0.9371 0.42878 0.70487 0.0
H501 H 0.89808 0.35889 0.69898 0.0
H502 H 0.90723 0.44788 0.67646 0.0
H503 H 0.87297 0.42374 0.65881 0.0
Gd504 Gd 0.86299 0.72467 1.00755 0.0
Gd505 Gd 0.88853 0.77069 0.05209 0.0
C506 C 0.95679 0.81487 0.02668 0.0
C507 C 0.9891 0.79895 0.05386 0.0
C508 C 0.9465 0.78417 0.05785 0.0
C509 C 0.93939 0.79887 0.03814 0.0
C510 C 0.97123 0.78476 0.0666 0.0
C511 C 0.98187 0.81401 0.03391 0.0
C512 C 0.9482 0.83236 1.00953 0.0
C513 C 0.92272 0.83459 1.0054 0.0
N514 N 0.9149 0.79972 0.03222 0.0
C515 C 0.90621 0.8183 0.01727 0.0
H516 H 0.88662 0.82028 0.01369 0.0
C517 C 0.93362 0.76101 0.09281 0.0
N518 N 0.92862 0.77134 0.07011 0.0
C519 C 0.95793 0.76073 0.10209 0.0
C520 C 0.97694 0.7722 0.08864 0.0
H521 H 0.91896 0.75189 0.10312 0.0
H522 H 0.99557 0.82585 0.02504 0.0
H523 H 0.88044 0.68123 0.05026 0.0
H524 H 0.96093 0.84503 1.00036 0.0
H525 H 0.91575 0.84872 0.99293 0.0
H526 H 1.00828 0.79934 0.06005 0.0
H527 H 0.81821 0.74079 0.96715 0.0
H528 H 0.81657 0.63999 0.07236 0.0
H529 H 0.86168 0.64832 0.07504 0.0
H530 H 0.75122 0.67377 0.02262 0.0
H531 H 0.96197 0.75168 0.11958 0.0
H532 H 0.99572 0.77218 0.09597 0.0
H533 H 0.77539 0.6501 0.05328 0.0
H534 H 0.77348 0.73344 0.96034 0.0
N535 N 0.84652 0.69236 0.03285 0.0
C536 C 0.82477 0.65456 0.06109 0.0
C537 C 0.85021 0.6592 0.06264 0.0
C538 C 0.81025 0.66859 0.04482 0.0
C539 C 0.82185 0.68738 0.03055 0.0
C540 C 0.86083 0.67813 0.04832 0.0
N541 N 0.82022 0.71788 0.99942 0.0
C542 C 0.80821 0.70084 0.01358 0.0
C543 C 0.78291 0.72438 0.97561 0.0
C544 C 0.76995 0.70814 0.99112 0.0
C545 C 0.80823 0.72864 0.97971 0.0
C546 C 0.78267 0.6957 1.01004 0.0
H547 H 0.75036 0.70469 0.9878 0.0
O548 O 0.8593 0.71256 0.96929 0.0
O549 O 0.892 0.75406 0.01392 0.0
O550 O 0.85906 0.78871 0.02869 0.0
O551 O 0.8395 0.75941 1.00304 0.0
O552 O 0.87406 0.75307 0.97948 0.0
O553 O 0.8855 0.69455 0.99363 0.0
O554 O 0.88061 0.78001 0.09049 0.0
O555 O 0.85824 0.74355 0.04366 0.0
O556 O 0.89911 0.71035 0.02455 0.0
O557 O 0.91479 0.73887 0.05334 0.0
O558 O 0.8717 0.74328 0.07941 0.0
O559 O 0.87343 0.80661 0.06136 0.0
C560 C 0.89085 0.76422 0.99255 0.0
C561 C 0.77086 0.67775 0.02487 0.0
C562 C 0.78463 0.66421 0.04224 0.0
C563 C 0.87461 0.69419 0.97204 0.0
C564 C 0.86592 0.66963 0.96352 0.0
C565 C 0.84133 0.66193 0.96771 0.0
C566 C 0.8825 0.65324 0.95207 0.0
C567 C 0.87457 0.62919 0.94534 0.0
C568 C 0.83341 0.63823 0.96099 0.0
C569 C 0.84989 0.62191 0.94998 0.0
C570 C 0.84197 0.78205 0.01231 0.0
C571 C 0.85517 0.73393 0.06477 0.0
C572 C 0.87424 0.80262 0.08518 0.0
C573 C 0.8857 0.82232 0.10033 0.0
C574 C 0.90782 0.83395 0.09272 0.0
C575 C 0.87424 0.82999 0.12236 0.0
C576 C 0.88454 0.84961 0.13625 0.0
C577 C 0.91814 0.85326 0.1066 0.0
C578 C 0.90649 0.86121 0.12814 0.0
C579 C 0.91553 0.71759 0.04153 0.0
H580 H 0.8282 0.67418 0.9762 0.0
H581 H 0.90156 0.659 0.94887 0.0
H582 H 0.81441 0.63248 0.96435 0.0
H583 H 0.84324 0.60362 0.94478 0.0
H584 H 0.91698 0.8283 0.07593 0.0
H585 H 0.85717 0.82109 0.1284 0.0
H586 H 0.93515 0.86221 0.10055 0.0
H587 H 0.9147 0.87633 0.13862 0.0
Gd588 Gd 0.5512 0.61267 0.25534 0.0
Gd589 Gd 0.50217 0.63595 0.29765 0.0
C590 C 0.45649 0.70259 0.2725 0.0
C591 C 0.47021 0.73451 0.30125 0.0
C592 C 0.48664 0.69277 0.30438 0.0
C593 C 0.47275 0.68565 0.28402 0.0
C594 C 0.48482 0.71701 0.31384 0.0
C595 C 0.45606 0.7273 0.28057 0.0
C596 C 0.44009 0.69382 0.25427 0.0
C597 C 0.43916 0.66851 0.24909 0.0
N598 N 0.47308 0.66146 0.27727 0.0
C599 C 0.45558 0.65244 0.26115 0.0
H600 H 0.45459 0.63295 0.25688 0.0
C601 C 0.50964 0.67984 0.33947 0.0
N602 N 0.49997 0.67522 0.31642 0.0
C603 C 0.50865 0.70368 0.34949 0.0
C604 C 0.49663 0.7225 0.33637 0.0
H605 H 0.51906 0.66531 0.34957 0.0
H606 H 0.44397 0.74067 0.27171 0.0
H607 H 0.59183 0.63446 0.29934 0.0
H608 H 0.42728 0.70621 0.24499 0.0
H609 H 0.42589 0.66135 0.23572 0.0
H610 H 0.46885 0.75333 0.308 0.0
H611 H 0.5373 0.56434 0.21792 0.0
H612 H 0.63428 0.57417 0.32686 0.0
H613 H 0.62414 0.61871 0.32665 0.0
H614 H 0.60464 0.50474 0.28024 0.0
H615 H 0.51713 0.7075 0.36732 0.0
H616 H 0.49568 0.7409 0.34427 0.0
H617 H 0.62649 0.53176 0.3099 0.0
H618 H 0.54579 0.51977 0.21518 0.0
N619 N 0.58271 0.59929 0.28332 0.0
C620 C 0.61998 0.58102 0.31446 0.0
C621 C 0.61429 0.60614 0.3144 0.0
C622 C 0.60728 0.56505 0.29838 0.0
C623 C 0.58878 0.5749 0.28255 0.0
C624 C 0.59567 0.61501 0.29863 0.0
N625 N 0.55915 0.56978 0.25066 0.0
C626 C 0.5764 0.55966 0.26598 0.0
C627 C 0.55425 0.53065 0.22983 0.0
C628 C 0.57056 0.51964 0.24662 0.0
C629 C 0.54918 0.55592 0.23176 0.0
C630 C 0.5823 0.53423 0.26463 0.0
H631 H 0.57458 0.50006 0.245 0.0
O632 O 0.56855 0.60492 0.21999 0.0
O633 O 0.52045 0.63988 0.26008 0.0
O634 O 0.486 0.60603 0.27355 0.0
O635 O 0.51647 0.58898 0.24797 0.0
O636 O 0.52467 0.62356 0.22534 0.0
O637 O 0.58146 0.63615 0.24139 0.0
O638 O 0.49368 0.6237 0.33529 0.0
O639 O 0.53061 0.60689 0.29064 0.0
O640 O 0.56297 0.64999 0.27164 0.0
O641 O 0.53254 0.6645 0.29876 0.0
O642 O 0.52992 0.62205 0.32578 0.0
O643 O 0.46532 0.62187 0.30711 0.0
C644 C 0.51188 0.63913 0.238 0.0
C645 C 0.6001 0.52426 0.28084 0.0
C646 C 0.61259 0.53965 0.29767 0.0
C647 C 0.58398 0.62363 0.22101 0.0
C648 C 0.58831 0.63767 0.19771 0.0
C649 C 0.56852 0.64234 0.18141 0.0
C650 C 0.61267 0.64516 0.19091 0.0
C651 C 0.61723 0.65696 0.16778 0.0
C652 C 0.57281 0.6537 0.15858 0.0
C653 C 0.59683 0.6607 0.15171 0.0
C654 C 0.49354 0.58998 0.25687 0.0
C655 C 0.53976 0.60528 0.31216 0.0
C656 C 0.47044 0.61896 0.33058 0.0
C657 C 0.45233 0.62874 0.34857 0.0
C658 C 0.44301 0.65278 0.34552 0.0
C659 C 0.44461 0.61435 0.36922 0.0
C660 C 0.42768 0.62409 0.3865 0.0
C661 C 0.42636 0.66241 0.36262 0.0
C662 C 0.41875 0.64821 0.38295 0.0
C663 C 0.55429 0.66623 0.28776 0.0
H664 H 0.54976 0.63676 0.18606 0.0
H665 H 0.62791 0.64177 0.20364 0.0
H666 H 0.55745 0.65682 0.14595 0.0
H667 H 0.59933 0.66874 0.13347 0.0
H668 H 0.4486 0.66413 0.32991 0.0
H669 H 0.45175 0.5958 0.37186 0.0
H670 H 0.41934 0.68099 0.3601 0.0
H671 H 0.40583 0.65608 0.39599 0.0
Gd672 Gd 0.25818 0.45991 0.12376 0.0
Gd673 Gd 0.21322 0.50663 0.14178 0.0
C674 C 0.24026 0.55369 0.20668 0.0
C675 C 0.21126 0.54196 0.23914 0.0
C676 C 0.20737 0.52398 0.19807 0.0
C677 C 0.22799 0.53729 0.19032 0.0
C678 C 0.19827 0.52677 0.22232 0.0
C679 C 0.23226 0.55537 0.23135 0.0
C680 C 0.2595 0.56867 0.19747 0.0
C681 C 0.26523 0.56788 0.17228 0.0
N682 N 0.23479 0.53572 0.16621 0.0
C683 C 0.25235 0.55144 0.15676 0.0
H684 H 0.25682 0.55098 0.13736 0.0
C685 C 0.17222 0.49988 0.18664 0.0
N686 N 0.19506 0.50979 0.18123 0.0
C687 C 0.16255 0.50189 0.21053 0.0
C688 C 0.17584 0.51504 0.22859 0.0
H689 H 0.16202 0.4896 0.17268 0.0
H690 H 0.24162 0.56766 0.24428 0.0
H691 H 0.2362 0.4033 0.14341 0.0
H692 H 0.26942 0.58149 0.20944 0.0
H693 H 0.27961 0.57986 0.16481 0.0
H694 H 0.20475 0.54412 0.25796 0.0
H695 H 0.2878 0.48406 0.07284 0.0
H696 H 0.20016 0.36776 0.0826 0.0
H697 H 0.21065 0.36933 0.1272 0.0
H698 H 0.22666 0.41584 0.01292 0.0
H699 H 0.14487 0.49334 0.215 0.0
H700 H 0.16823 0.51673 0.24704 0.0
H701 H 0.20624 0.38528 0.04005 0.0
H702 H 0.28438 0.48206 0.02789 0.0
N703 N 0.23699 0.42372 0.10935 0.0
C704 C 0.21072 0.38335 0.08983 0.0
C705 C 0.21645 0.38426 0.115 0.0
C706 C 0.22009 0.40174 0.07406 0.0
C707 C 0.23368 0.42175 0.08446 0.0
C708 C 0.23034 0.4042 0.12432 0.0
N709 N 0.2589 0.45733 0.07974 0.0
C710 C 0.24502 0.43902 0.06921 0.0
C711 C 0.27274 0.47019 0.03925 0.0
C712 C 0.2568 0.45299 0.02821 0.0
C713 C 0.27405 0.47167 0.06506 0.0
C714 C 0.24325 0.43664 0.04316 0.0
H715 H 0.25595 0.45176 1.00818 0.0
O716 O 0.29771 0.46136 0.11595 0.0
O717 O 0.25315 0.49524 0.14458 0.0
O718 O 0.23296 0.51879 0.10728 0.0
O719 O 0.27023 0.4979 0.10897 0.0
O720 O 0.2702 0.46662 0.16318 0.0
O721 O 0.28172 0.42853 0.13395 0.0
O722 O 0.17534 0.51593 0.13088 0.0
O723 O 0.22234 0.47758 0.11426 0.0
O724 O 0.23405 0.44421 0.15493 0.0
O725 O 0.21316 0.47785 0.17181 0.0
O726 O 0.18722 0.476 0.12932 0.0
O727 O 0.20465 0.54319 0.12727 0.0
C728 C 0.2647 0.48981 0.16442 0.0
C729 C 0.22859 0.41763 0.03284 0.0
C730 C 0.21697 0.40025 0.04827 0.0
C731 C 0.30157 0.43953 0.12553 0.0
C732 C 0.32653 0.42823 0.12636 0.0
C733 C 0.34693 0.44165 0.11703 0.0
C734 C 0.33033 0.40424 0.13632 0.0
C735 C 0.35423 0.39373 0.13632 0.0
C736 C 0.37059 0.43142 0.11733 0.0
C737 C 0.37424 0.40765 0.12678 0.0
C738 C 0.25633 0.51643 0.1008 0.0
C739 C 0.20165 0.46647 0.11296 0.0
C740 C 0.18088 0.53884 0.12547 0.0
C741 C 0.1645 0.55801 0.13561 0.0
C742 C 0.1689 0.56748 0.15942 0.0
C743 C 0.14485 0.5676 0.12118 0.0
C744 C 0.13015 0.58695 0.1304 0.0
C745 C 0.15408 0.58627 0.16876 0.0
C746 C 0.13494 0.59607 0.15433 0.0
C747 C 0.22 0.45448 0.17212 0.0
H748 H 0.34465 0.46013 0.10945 0.0
H749 H 0.31478 0.39363 0.14357 0.0
H750 H 0.38619 0.44195 0.11013 0.0
H751 H 0.39284 0.40015 0.12682 0.0
H752 H 0.184 0.56061 0.17068 0.0
H753 H 0.14147 0.56055 0.10267 0.0
H754 H 0.15763 0.59346 0.18715 0.0
H755 H 0.12379 0.61082 0.16188 0.0
Gd756 Gd 0.71755 0.01466 0.8726 0.0
Gd757 Gd 0.76449 0.06008 0.89162 0.0
C758 C 0.8087 0.02859 0.95682 0.0
C759 C 0.79666 0.05556 0.99054 0.0
C760 C 0.78035 0.06233 0.94896 0.0
C761 C 0.79324 0.04208 0.94056 0.0
C762 C 0.78279 0.06999 0.97381 0.0
C763 C 0.80958 0.03485 0.98205 0.0
C764 C 0.82368 0.01003 0.947 0.0
C765 C 0.82388 1.00619 0.92143 0.0
N766 N 0.79248 0.03704 0.91597 0.0
C767 C 0.80829 0.02018 0.90608 0.0
H768 H 0.80864 0.01719 0.88641 0.0
C769 C 0.75996 0.09946 0.93818 0.0
N770 N 0.76776 0.07617 0.93214 0.0
C771 C 0.76152 0.10772 0.96267 0.0
C772 C 0.77248 0.09265 0.98071 0.0
H773 H 0.75145 0.11111 0.92419 0.0
H774 H 0.82104 0.02447 0.99492 0.0
H775 H 0.66226 0.03941 0.8936 0.0
H776 H 0.8358 0.99922 0.95886 0.0
H777 H 0.83593 0.9924 0.91353 0.0
H778 H 0.79843 0.0609 1.00981 0.0
H779 H 0.74177 0.98712 0.82157 0.0
H780 H 0.62491 0.0722 0.83242 0.0
H781 H 0.62838 0.06397 0.8773 0.0
H782 H 0.67044 0.04464 0.76239 0.0
H783 H 0.75436 0.12571 0.96758 0.0
H784 H 0.77394 0.0992 0.99962 0.0
H785 H 0.64053 0.06466 0.78978 0.0
H786 H 0.7385 0.99011 0.77665 0.0
N787 N 0.68137 0.03631 0.85889 0.0
C788 C 0.64062 0.06193 0.83958 0.0
C789 C 0.64261 0.05748 0.8649 0.0
C790 C 0.65823 0.052 0.82367 0.0
C791 C 0.67852 0.03889 0.83393 0.0
C792 C 0.66269 0.04401 0.87418 0.0
N793 N 0.71435 0.01468 0.82874 0.0
C794 C 0.69545 0.02775 0.81847 0.0
C795 C 0.7266 1.00125 0.78813 0.0
C796 C 0.70863 0.01624 0.7773 0.0
C797 C 0.7288 1.0002 0.81391 0.0
C798 C 0.69236 0.02921 0.79244 0.0
H799 H 0.70685 0.01689 0.7573 0.0
O800 O 0.72029 0.97513 0.86523 0.0
O801 O 0.75247 0.0202 0.89458 0.0
O802 O 0.77568 0.0413 0.85637 0.0
O803 O 0.75567 1.00333 0.85871 0.0
O804 O 0.72292 1.00358 0.91244 0.0
O805 O 0.68576 0.99032 0.87971 0.0
O806 O 0.77481 0.09792 0.88139 0.0
O807 O 0.73577 0.05056 0.86328 0.0
O808 O 0.70231 0.03578 0.90524 0.0
O809 O 0.73272 0.06434 0.91795 0.0
O810 O 0.73467 0.08592 0.87815 0.0
O811 O 0.80174 0.06892 0.87875 0.0
C812 C 0.74623 0.00906 0.91441 0.0
C813 C 0.67283 0.04305 0.78229 0.0
C814 C 0.65582 0.05444 0.79787 0.0
C815 C 0.69773 0.97075 0.87272 0.0
C816 C 0.68649 0.94564 0.87274 0.0
C817 C 0.69977 0.92575 0.86284 0.0
C818 C 0.66266 0.94121 0.88274 0.0
C819 C 0.65215 0.91719 0.88235 0.0
C820 C 0.6895 0.90194 0.86266 0.0
C821 C 0.66587 0.89766 0.87225 0.0
C822 C 0.77394 0.0177 0.85044 0.0
C823 C 0.72494 0.0712 0.8619 0.0
C824 C 0.79789 0.09264 0.87726 0.0
C825 C 0.81652 0.10882 0.88933 0.0
C826 C 0.8241 0.10397 0.91376 0.0
C827 C 0.82672 0.12933 0.87656 0.0
C828 C 0.84443 0.14493 0.88822 0.0
C829 C 0.84116 0.11954 0.92555 0.0
C830 C 0.85119 0.1399 0.91299 0.0
C831 C 0.7106 0.05383 0.91971 0.0
H832 H 0.71814 0.92858 0.8552 0.0
H833 H 0.6522 0.95638 0.89046 0.0
H834 H 0.6999 0.88672 0.85503 0.0
H835 H 0.65837 0.87895 0.87199 0.0
H836 H 0.81688 0.08812 0.92374 0.0
H837 H 0.82117 0.13282 0.85753 0.0
H838 H 0.84667 0.11579 0.94452 0.0
H839 H 0.86418 0.15181 0.9228 0.0
Gd840 Gd 0.81086 0.00974 0.37991 0.0
Gd841 Gd 0.76206 0.96456 0.39414 0.0
C842 C 0.71295 0.99515 0.45534 0.0
C843 C 0.7219 0.96732 0.48973 0.0
C844 C 0.74144 0.96123 0.44974 0.0
C845 C 0.72952 0.98181 0.44042 0.0
C846 C 0.73692 0.95308 0.47418 0.0
C847 C 0.70996 0.98838 0.48032 0.0
C848 C 0.69899 0.01405 0.44437 0.0
C849 C 0.70083 0.01833 0.41889 0.0
N850 N 0.73233 0.98731 0.41606 0.0
C851 C 0.71748 1.00447 0.4049 0.0
H852 H 0.71869 0.00781 0.38528 0.0
C853 C 0.76242 0.9242 0.44049 0.0
N854 N 0.75525 0.94765 0.43399 0.0
C855 C 0.75876 0.91541 0.46464 0.0
C856 C 0.74644 0.93018 0.48175 0.0
H857 H 0.77202 0.9128 0.42726 0.0
H858 H 0.69759 0.99862 0.49219 0.0
H859 H 0.86113 0.97421 0.39966 0.0
H860 H 0.68606 0.02476 0.45517 0.0
H861 H 0.68956 0.03236 0.41004 0.0
H862 H 0.71852 0.9616 0.5087 0.0
H863 H 0.79093 0.04605 0.33187 0.0
H864 H 0.89873 0.94865 0.33612 0.0
H865 H 0.89308 0.94924 0.3814 0.0
H866 H 0.86057 0.99191 0.269 0.0
H867 H 0.76538 0.89727 0.47 0.0
H868 H 0.74338 0.92324 0.50037 0.0
H869 H 0.8866 0.96465 0.29451 0.0
H870 H 0.7965 0.04948 0.28726 0.0
N871 N 0.84547 0.98672 0.36504 0.0
C872 C 0.88395 0.95953 0.344 0.0
C873 C 0.88073 0.95973 0.36952 0.0
C874 C 0.86862 0.97404 0.32901 0.0
C875 C 0.84944 0.98779 0.34015 0.0
C876 C 0.86178 0.9738 0.3798 0.0
N877 N 0.81618 0.01587 0.33666 0.0
C878 C 0.83445 1.00279 0.32563 0.0
C879 C 0.80697 0.03589 0.29769 0.0
C880 C 0.82434 0.02125 0.28585 0.0
C881 C 0.80345 0.0333 0.32318 0.0
C882 C 0.83867 1.00481 0.29983 0.0
H883 H 0.82709 0.02335 0.26607 0.0
O884 O 0.81141 0.0499 0.37637 0.0
O885 O 0.77423 1.00419 0.39868 0.0
O886 O 0.7532 0.98467 0.3585 0.0
O887 O 0.77411 0.02198 0.36316 0.0
O888 O 0.80247 0.01954 0.41944 0.0
O889 O 0.84297 0.03093 0.39242 0.0
O890 O 0.75189 0.92686 0.38349 0.0
O891 O 0.79272 0.97443 0.36847 0.0
O892 O 0.82394 0.98696 0.41255 0.0
O893 O 0.79194 0.95929 0.42311 0.0
O894 O 0.79212 0.93852 0.38213 0.0
O895 O 0.72642 0.95667 0.37671 0.0
C896 C 0.77901 0.01461 0.41922 0.0
C897 C 0.85731 0.99075 0.28877 0.0
C898 C 0.87215 0.97529 0.3033 0.0
C899 C 0.83387 0.05209 0.3853 0.0
C900 C 0.85122 0.06949 0.37305 0.0
C901 C 0.84656 0.07897 0.34919 0.0
C902 C 0.87258 0.07742 0.38601 0.0
C903 C 0.8892 0.09439 0.37515 0.0
C904 C 0.86317 0.09578 0.33834 0.0
C905 C 0.88444 0.10345 0.35121 0.0
C906 C 0.75643 0.00826 0.35278 0.0
C907 C 0.80299 0.95354 0.36689 0.0
C908 C 0.72974 0.93284 0.37612 0.0
C909 C 0.70918 0.91736 0.38549 0.0
C910 C 0.69827 0.92267 0.40838 0.0
C911 C 0.69995 0.89748 0.37125 0.0
C912 C 0.6795 0.88339 0.37963 0.0
C913 C 0.67829 0.90847 0.41693 0.0
C914 C 0.66883 0.88905 0.40261 0.0
C915 C 0.8143 0.96904 0.4264 0.0
H916 H 0.83005 0.07366 0.33898 0.0
H917 H 0.87624 0.0705 0.40457 0.0
H918 H 0.85946 0.10301 0.31995 0.0
H919 H 0.89709 0.1166 0.34261 0.0
H920 H 0.70498 0.93794 0.41952 0.0
H921 H 0.70821 0.8934 0.35347 0.0
H922 H 0.66997 0.91268 0.43461 0.0
H923 H 0.6532 0.87835 0.40953 0.0
Gd924 Gd 0.25858 0.54406 0.62082 0.0
Gd925 Gd 0.30186 0.49743 0.64611 0.0
C926 C 0.28788 0.45131 0.71581 0.0
C927 C 0.31917 0.46758 0.74421 0.0
C928 C 0.31586 0.48401 0.7023 0.0
C929 C 0.29607 0.46819 0.6975 0.0
C930 C 0.32789 0.48364 0.72558 0.0
C931 C 0.29919 0.45146 0.73935 0.0
C932 C 0.26918 0.4342 0.70965 0.0
C933 C 0.25996 0.4335 0.68543 0.0
N934 N 0.28593 0.46816 0.6744 0.0
C935 C 0.26898 0.45039 0.66783 0.0
H936 H 0.26209 0.44929 0.64906 0.0
C937 C 0.34465 0.51367 0.687 0.0
N938 N 0.32384 0.49926 0.68387 0.0
C939 C 0.35714 0.51402 0.70979 0.0
C940 C 0.34861 0.4991 0.72925 0.0
H941 H 0.35132 0.52528 0.67207 0.0
H942 H 0.29303 0.43875 0.75371 0.0
H943 H 0.30256 0.58841 0.63043 0.0
H944 H 0.26233 0.42096 0.72319 0.0
H945 H 0.24603 0.41986 0.68024 0.0
H946 H 0.32806 0.46714 0.76228 0.0
H947 H 0.21207 0.5263 0.58373 0.0
H948 H 0.31756 0.62486 0.56179 0.0
H949 H 0.32557 0.61965 0.60666 0.0
H950 H 0.2582 0.58861 0.50594 0.0
H951 H 0.37334 0.52578 0.71234 0.0
H952 H 0.35836 0.49937 0.74687 0.0
H953 H 0.29265 0.61283 0.52419 0.0
H954 H 0.19846 0.53161 0.54019 0.0
N955 N 0.28141 0.57521 0.59949 0.0
C956 C 0.30719 0.61105 0.5722 0.0
C957 C 0.31173 0.60819 0.59751 0.0
C958 C 0.2889 0.59646 0.56076 0.0
C959 C 0.27603 0.57865 0.57515 0.0
C960 C 0.29846 0.59031 0.61098 0.0
N961 N 0.24437 0.54891 0.57965 0.0
C962 C 0.25702 0.56484 0.56482 0.0
C963 C 0.21513 0.54089 0.54678 0.0
C964 C 0.22889 0.55607 0.53085 0.0
C965 C 0.22291 0.53788 0.57137 0.0
C966 C 0.24985 0.56868 0.53992 0.0
H967 H 0.22274 0.55854 0.51185 0.0
O968 O 0.22012 0.55476 0.62553 0.0
O969 O 0.26374 0.51396 0.64888 0.0
O970 O 0.27631 0.47934 0.61833 0.0
O971 O 0.25704 0.51063 0.59492 0.0
O972 O 0.22925 0.51645 0.63154 0.0
O973 O 0.24942 0.5776 0.641 0.0
O974 O 0.3394 0.48879 0.63439 0.0
O975 O 0.2944 0.52509 0.61635 0.0
O976 O 0.28131 0.55873 0.65407 0.0
O977 O 0.2955 0.52468 0.67651 0.0
O978 O 0.32947 0.52587 0.63113 0.0
O979 O 0.31032 0.46089 0.63182 0.0
C980 C 0.24209 0.50424 0.6476 0.0
C981 C 0.26323 0.58561 0.52519 0.0
C982 C 0.28278 0.59945 0.53559 0.0
C983 C 0.2257 0.57549 0.6366 0.0
C984 C 0.2132 0.59787 0.6272 0.0
C985 C 0.2117 0.60254 0.60162 0.0
C986 C 0.20226 0.61455 0.6438 0.0
C987 C 0.18938 0.63532 0.63472 0.0
C988 C 0.19919 0.62326 0.59264 0.0
C989 C 0.18792 0.63948 0.60905 0.0
C990 C 0.26312 0.48711 0.5991 0.0
C991 C 0.31547 0.53505 0.61407 0.0
C992 C 0.33397 0.4658 0.62924 0.0
C993 C 0.35153 0.44705 0.63857 0.0
C994 C 0.34782 0.43574 0.66173 0.0
C995 C 0.37213 0.44018 0.62416 0.0
C996 C 0.38848 0.42165 0.63263 0.0
C997 C 0.36415 0.41767 0.67033 0.0
C998 C 0.38423 0.41054 0.65586 0.0
C999 C 0.29068 0.54853 0.67453 0.0
H1000 H 0.21995 0.5901 0.58853 0.0
H1001 H 0.20329 0.61111 0.6636 0.0
H1002 H 0.19806 0.62664 0.57288 0.0
H1003 H 0.17813 0.65541 0.60173 0.0
H1004 H 0.33221 0.44071 0.6731 0.0
H1005 H 0.37507 0.44879 0.60621 0.0
H1006 H 0.36113 0.40903 0.68821 0.0
H1007 H 0.39659 0.39636 0.66288 0.0
C1008 C 0.16076 0.29818 0.52538 0.0
C1009 C 0.17661 0.28062 0.51486 0.0
C1010 C 0.17026 0.32018 0.53536 0.0
C1011 C 0.22521 0.36164 0.52963 0.0
H1012 H 0.1946 0.39642 0.58409 0.0
C1013 C 0.26868 0.44783 0.57636 0.0
C1014 C 0.25302 0.46726 0.5832 0.0
C1015 C 0.25888 0.42594 0.56647 0.0
C1016 C 0.20312 0.38706 0.56863 0.0
H1017 H 0.21481 0.27207 0.50681 0.0
H1018 H 0.23177 0.31014 0.52518 0.0
H1019 H 0.17975 0.35502 0.57295 0.0
H1020 H 0.21483 0.47923 0.58496 0.0
H1021 H 0.19748 0.44072 0.56751 0.0
H1022 H 0.24891 0.39352 0.52573 0.0
C1023 C 0.21187 0.30712 0.52541 0.0
C1024 C 0.19467 0.36326 0.56227 0.0
C1025 C 0.20227 0.28515 0.5152 0.0
C1026 C 0.22734 0.46477 0.57919 0.0
C1027 C 0.21742 0.4426 0.56962 0.0
C1028 C 0.23379 0.38529 0.53616 0.0
C1029 C 0.19591 0.32531 0.53493 0.0
C1030 C 0.20561 0.35019 0.54265 0.0
C1031 C 0.23311 0.42277 0.5636 0.0
C1032 C 0.22287 0.39829 0.55572 0.0
H1033 H 0.14086 0.29557 0.52482 0.0
H1034 H 0.15727 0.33372 0.54213 0.0
H1035 H 0.23372 0.35254 0.51404 0.0
H1036 H 0.28852 0.44917 0.57971 0.0
H1037 H 0.27145 0.41098 0.56229 0.0
C1038 C 0.79993 0.98117 0.83827 0.0
C1039 C 0.79573 1.00686 0.8381 0.0
C1040 C 0.82297 0.97184 0.83093 0.0
C1041 C 0.8815 0.99091 0.79875 0.0
H1042 H 0.9097 0.93531 0.83451 0.0
C1043 C 0.97031 0.94505 0.76605 0.0
C1044 C 0.9864 0.9335 0.78302 0.0
C1045 C 0.948 0.95504 0.77381 0.0
C1046 C 0.90228 0.95115 0.82465 0.0
H1047 H 0.81198 0.04271 0.82884 0.0
H1048 H 0.85173 0.02681 0.81709 0.0
H1049 H 0.86803 0.94935 0.84464 0.0
H1050 H 0.99247 0.92489 0.82183 0.0
H1051 H 0.95358 0.94348 0.83576 0.0
H1052 H 0.91596 0.99384 0.77981 0.0
C1053 C 0.83742 0.0136 0.82233 0.0
C1054 C 0.87814 0.95888 0.8301 0.0
C1055 C 0.81449 0.02281 0.82928 0.0
C1056 C 0.98045 0.9337 0.80833 0.0
C1057 C 0.958 0.94401 0.81622 0.0
C1058 C 0.90567 0.9836 0.79374 0.0
C1059 C 0.8422 0.98805 0.82337 0.0
C1060 C 0.86741 0.97884 0.81712 0.0
C1061 C 0.94124 0.95429 0.7989 0.0
C1062 C 0.91633 0.9634 0.80631 0.0
H1063 H 0.78586 0.96839 0.84501 0.0
H1064 H 0.8258 0.952 0.83155 0.0
H1065 H 0.87388 1.00607 0.788 0.0
H1066 H 0.97434 0.94533 0.7464 0.0
H1067 H 0.93558 0.96232 0.75977 0.0
C1068 C 0.32861 0.71341 0.01293 0.0
C1069 C 0.34118 0.72937 0.02933 0.0
C1070 C 0.31918 0.69077 0.02104 0.0
C1071 C 0.2916 0.64775 0.04194 0.0
H1072 H 0.3272 0.61019 0.09194 0.0
C1073 C 0.2519 0.55685 0.07921 0.0
C1074 C 0.26761 0.53806 0.08799 0.0
C1075 C 0.26147 0.57969 0.07186 0.0
C1076 C 0.31731 0.62026 0.07762 0.0
H1077 H 0.35205 0.73486 0.06767 0.0
H1078 H 0.33421 0.69548 0.08232 0.0
H1079 H 0.34143 0.65193 0.08103 0.0
H1080 H 0.30603 0.52804 0.09431 0.0
H1081 H 0.32308 0.56787 0.08 0.0
H1082 H 0.26866 0.61587 0.03703 0.0
C1083 C 0.33261 0.70019 0.06285 0.0
C1084 C 0.32515 0.64445 0.07175 0.0
C1085 C 0.34248 0.72293 0.05457 0.0
C1086 C 0.29342 0.54214 0.08764 0.0
C1087 C 0.30314 0.56511 0.07981 0.0
C1088 C 0.28425 0.62353 0.04728 0.0
C1089 C 0.32131 0.68358 0.04601 0.0
C1090 C 0.31237 0.65849 0.05377 0.0
C1091 C 0.28718 0.58436 0.07228 0.0
C1092 C 0.29673 0.60949 0.06541 0.0
H1093 H 0.32713 0.71776 0.99335 0.0
H1094 H 0.31113 0.6785 1.00729 0.0
H1095 H 0.28089 0.658 0.02837 0.0
H1096 H 0.2319 0.55445 0.07911 0.0
H1097 H 0.24842 0.594 0.06676 0.0
C1098 C 0.55884 0.06915 0.26385 0.0
C1099 C 0.5441 0.08371 0.27931 0.0
C1100 C 0.58184 0.06064 0.272 0.0
C1101 C 0.62305 0.0538 0.32716 0.0
H1102 H 0.67454 0.05704 0.27712 0.0
C1103 C 0.73128 0.04555 0.34137 0.0
C1104 C 0.73626 0.02017 0.33853 0.0
C1105 C 0.70868 0.05526 0.3331 0.0
C1106 C 0.66032 0.0563 0.29123 0.0
H1107 H 0.54079 0.09883 0.31628 0.0
H1108 H 0.58145 0.08478 0.33032 0.0
H1109 H 0.63208 0.06858 0.26624 0.0
H1110 H 0.72266 0.98569 0.32258 0.0
H1111 H 0.68362 1.00297 0.30753 0.0
H1112 H 0.65179 0.04174 0.3521 0.0
C1113 C 0.5752 0.07975 0.3119 0.0
C1114 C 0.63595 0.06253 0.28502 0.0
C1115 C 0.55188 0.08786 0.30384 0.0
C1116 C 0.71928 1.00526 0.32527 0.0
C1117 C 0.69693 0.01505 0.31673 0.0
C1118 C 0.64752 0.0478 0.33339 0.0
C1119 C 0.59086 0.06684 0.2957 0.0
C1120 C 0.6169 0.06095 0.30279 0.0
C1121 C 0.69118 0.03983 0.32135 0.0
C1122 C 0.66617 0.04879 0.31538 0.0
H1123 H 0.55311 0.06529 0.24495 0.0
H1124 H 0.59294 0.04992 0.25936 0.0
H1125 H 0.6089 0.0522 0.34126 0.0
H1126 H 0.74408 0.05756 0.35128 0.0
H1127 H 0.70448 0.07452 0.33663 0.0
C1128 C 0.70114 0.20321 0.51619 0.0
C1129 C 0.69392 0.22183 0.49947 0.0
C1130 C 0.71098 0.18097 0.50768 0.0
C1131 C 0.7354 0.14898 0.45168 0.0
H1132 H 0.71477 0.09001 0.48789 0.0
C1133 C 0.75193 0.05139 0.41326 0.0
C1134 C 0.76316 0.03432 0.42944 0.0
C1135 C 0.74195 0.0734 0.42211 0.0
C1136 C 0.72081 0.1063 0.47769 0.0
H1137 H 0.69159 0.23208 0.46076 0.0
H1138 H 0.70843 0.19301 0.44561 0.0
H1139 H 0.70195 0.13073 0.50213 0.0
H1140 H 0.77255 0.02684 0.46774 0.0
H1141 H 0.75457 0.06535 0.48356 0.0
H1142 H 0.75378 0.12432 0.42692 0.0
C1143 C 0.70716 0.19574 0.46542 0.0
C1144 C 0.71361 0.12974 0.4859 0.0
C1145 C 0.69766 0.21826 0.47404 0.0
C1146 C 0.76349 0.03941 0.45493 0.0
C1147 C 0.75329 0.06147 0.46391 0.0
C1148 C 0.74236 0.12551 0.44332 0.0
C1149 C 0.7133 0.17649 0.48213 0.0
C1150 C 0.72095 0.15148 0.47314 0.0
C1151 C 0.74312 0.07907 0.44745 0.0
C1152 C 0.73522 0.1039 0.45627 0.0
H1153 H 0.69821 0.20548 0.5359 0.0
H1154 H 0.71611 0.16701 0.5212 0.0
H1155 H 0.74172 0.16516 0.44149 0.0
H1156 H 0.75176 0.04831 0.39355 0.0
H1157 H 0.73393 0.08635 0.40898 0.0
C1158 C 0.05316 0.45346 0.75956 0.0
C1159 C 0.04362 0.42944 0.75583 0.0
C1160 C 0.07595 0.46086 0.74916 0.0
C1161 C 0.13354 0.4335 0.72045 0.0
H1162 H 0.14942 0.50242 0.7068 0.0
C1163 C 0.21367 0.46952 0.65752 0.0
C1164 C 0.22852 0.48927 0.66622 0.0
C1165 C 0.19365 0.46043 0.67141 0.0
C1166 C 0.14536 0.48311 0.71083 0.0
H1167 H 0.05107 0.39426 0.73837 0.0
H1168 H 0.08913 0.4075 0.71853 0.0
H1169 H 0.10839 0.49123 0.72231 0.0
H1170 H 0.23375 0.51518 0.69629 0.0
H1171 H 0.19812 0.49972 0.72046 0.0
H1172 H 0.17023 0.42552 0.70739 0.0
C1173 C 0.07969 0.42068 0.73011 0.0
C1174 C 0.12172 0.47659 0.71982 0.0
C1175 C 0.0573 0.41315 0.74106 0.0
C1176 C 0.2233 0.49927 0.6896 0.0
C1177 C 0.20265 0.49071 0.70319 0.0
C1178 C 0.15692 0.44 0.71091 0.0
C1179 C 0.08992 0.44445 0.73453 0.0
C1180 C 0.11528 0.45162 0.72477 0.0
C1181 C 0.18721 0.47162 0.69389 0.0
C1182 C 0.16315 0.46488 0.70601 0.0
H1183 H 0.04353 0.4662 0.77154 0.0
H1184 H 0.08301 0.47916 0.75359 0.0
H1185 H 0.13001 0.41415 0.72456 0.0
H1186 H 0.21663 0.46211 0.63915 0.0
H1187 H 0.18206 0.44588 0.66362 0.0
C1188 C 0.77349 0.9723 0.91048 0.0
C1189 C 0.76168 0.98953 0.92576 0.0
C1190 C 0.78321 0.95045 0.92033 0.0
C1191 C 0.77472 0.90845 0.97423 0.0
H1192 H 0.83114 0.87468 0.94607 0.0
C1193 C 0.81967 0.82167 0.01792 0.0
C1194 C 0.82703 0.80252 1.0021 0.0
C1195 C 0.81033 0.84378 1.00829 0.0
C1196 C 0.81516 0.88377 0.9539 0.0
H1197 H 0.75109 0.99764 0.96339 0.0
H1198 H 0.76901 0.95982 0.98104 0.0
H1199 H 0.8206 0.9162 0.93151 0.0
H1200 H 0.83004 0.79124 0.9638 0.0
H1201 H 0.81373 0.83022 0.94676 0.0
H1202 H 0.76974 0.87617 0.99703 0.0
C1203 C 0.77045 0.963 0.96127 0.0
C1204 C 0.80912 0.90763 0.94561 0.0
C1205 C 0.76048 0.98483 0.9513 0.0
C1206 C 0.82402 0.80553 0.9764 0.0
C1207 C 0.81505 0.82794 0.96668 0.0
C1208 C 0.78095 0.88475 0.9827 0.0
C1209 C 0.78125 0.94512 0.94578 0.0
C1210 C 0.78874 0.9203 0.9556 0.0
C1211 C 0.80854 0.84746 0.98256 0.0
C1212 C 0.80119 0.87211 0.9726 0.0
H1213 H 0.77416 0.97501 0.89067 0.0
H1214 H 0.79098 0.93713 0.90766 0.0
H1215 H 0.75857 0.91725 0.982 0.0
H1216 H 0.82208 0.81991 0.0378 0.0
H1217 H 0.80569 0.8585 0.02099 0.0
C1218 C 0.45534 0.56467 0.26219 0.0
C1219 C 0.47364 0.57425 0.24628 0.0
C1220 C 0.43317 0.55492 0.25273 0.0
C1221 C 0.39099 0.56152 0.19993 0.0
H1222 H 0.35926 0.50277 0.22734 0.0
C1223 C 0.30059 0.51888 0.15936 0.0
C1224 C 0.28422 0.50604 0.17514 0.0
C1225 C 0.3228 0.52901 0.1684 0.0
C1226 C 0.36758 0.51949 0.21978 0.0
H1227 H 0.48345 0.58061 0.20794 0.0
H1228 H 0.44435 0.56349 0.19115 0.0
H1229 H 0.40098 0.51431 0.24086 0.0
H1230 H 0.27797 0.49428 0.21294 0.0
H1231 H 0.31647 0.51276 0.22917 0.0
H1232 H 0.35745 0.56701 0.17917 0.0
C1233 C 0.44732 0.56347 0.21102 0.0
C1234 C 0.39165 0.52596 0.22738 0.0
C1235 C 0.46982 0.5729 0.22056 0.0
C1236 C 0.29007 0.50443 0.20045 0.0
C1237 C 0.31231 0.51471 0.20961 0.0
C1238 C 0.36679 0.55516 0.19246 0.0
C1239 C 0.42856 0.55483 0.22708 0.0
C1240 C 0.40365 0.54705 0.21759 0.0
C1241 C 0.32939 0.5264 0.19352 0.0
C1242 C 0.35471 0.53406 0.20231 0.0
H1243 H 0.45771 0.56581 0.28212 0.0
H1244 H 0.41908 0.54866 0.26562 0.0
H1245 H 0.39955 0.57813 0.19236 0.0
H1246 H 0.29699 0.52001 0.13971 0.0
H1247 H 0.33544 0.53756 0.15531 0.0
C1248 C 0.53084 0.15963 0.3105 0.0
C1249 C 0.51474 0.17466 0.29664 0.0
C1250 C 0.54232 0.16837 0.33209 0.0
C1251 C 0.55194 0.22568 0.37106 0.0
H1252 H 0.56806 0.17654 0.42123 0.0
C1253 C 0.58659 0.25157 0.4701 0.0
C1254 C 0.61125 0.2439 0.47326 0.0
C1255 C 0.57189 0.24159 0.45091 0.0
C1256 C 0.56343 0.19046 0.40745 0.0
H1257 H 0.49714 0.21049 0.29532 0.0
H1258 H 0.51602 0.22557 0.33369 0.0
H1259 H 0.54917 0.16341 0.3823 0.0
H1260 H 0.63955 0.21924 0.4598 0.0
H1261 H 0.61339 0.20056 0.42763 0.0
H1262 H 0.56565 0.25269 0.39702 0.0
C1263 C 0.52106 0.20734 0.32725 0.0
C1264 C 0.55295 0.18297 0.38484 0.0
C1265 C 0.51013 0.19873 0.30516 0.0
C1266 C 0.62036 0.22496 0.45815 0.0
C1267 C 0.60547 0.21442 0.43962 0.0
C1268 C 0.56186 0.23318 0.39396 0.0
C1269 C 0.53705 0.19212 0.34137 0.0
C1270 C 0.54743 0.20039 0.36599 0.0
C1271 C 0.5815 0.2234 0.43508 0.0
C1272 C 0.56801 0.21562 0.41224 0.0
H1273 H 0.5341 0.14073 0.30507 0.0
H1274 H 0.55498 0.15613 0.3417 0.0
H1275 H 0.54847 0.23976 0.35716 0.0
H1276 H 0.57945 0.26674 0.48097 0.0
H1277 H 0.55345 0.24884 0.44771 0.0
C1278 C 0.08699 0.29037 0.5462 0.0
C1279 C 0.08703 0.26442 0.54381 0.0
C1280 C 0.07936 0.30124 0.56835 0.0
C1281 C 0.07696 0.28744 0.63436 0.0
H1282 H 0.02797 0.3394 0.63876 0.0
C1283 C 0.04868 0.33953 0.72483 0.0
C1284 C 0.02283 0.34058 0.72811 0.0
C1285 C 0.05842 0.3302 0.70278 0.0
C1286 C 0.04181 0.32498 0.63771 0.0
H1287 H 0.07719 0.22967 0.56199 0.0
H1288 H 0.06408 0.24868 0.6004 0.0
H1289 H 0.0404 0.32422 0.59801 0.0
H1290 H 0.98706 0.33075 0.71185 0.0
H1291 H 1.00408 0.31477 0.67365 0.0
H1292 H 0.07813 0.28802 0.67411 0.0
C1293 C 0.07038 0.26052 0.58539 0.0
C1294 C 0.04896 0.31644 0.61448 0.0
C1295 C 0.07769 0.24971 0.56329 0.0
C1296 C 1.00706 0.33057 0.70979 0.0
C1297 C 0.01674 0.32156 0.68782 0.0
C1298 C 0.07007 0.29623 0.6576 0.0
C1299 C 0.07185 0.28628 0.58837 0.0
C1300 C 0.06612 0.29718 0.61267 0.0
C1301 C 0.0424 0.322 0.68381 0.0
C1302 C 0.05198 0.31462 0.65943 0.0
H1303 H 0.09407 0.30222 0.53156 0.0
H1304 H 0.08044 0.32121 0.57024 0.0
H1305 H 0.09049 0.27274 0.63333 0.0
H1306 H 0.0613 0.34709 0.73861 0.0
H1307 H 0.07834 0.33049 0.70008 0.0
C1308 C 0.01597 0.8192 0.81359 0.0
C1309 C 0.01312 0.84366 0.80516 0.0
C1310 C 1.00434 0.81102 0.83541 0.0
C1311 C 0.9736 0.83646 0.89259 0.0
H1312 H 0.95629 0.76743 0.90382 0.0
C1313 C 0.90194 0.79715 0.96276 0.0
C1314 C 0.91005 0.77865 0.97927 0.0
C1315 C 0.91768 0.80667 0.94451 0.0
C1316 C 0.96139 0.78672 0.90104 0.0
H1317 H 0.99624 0.87887 0.81345 0.0
H1318 H 0.97415 0.86434 0.84972 0.0
H1319 H 0.97475 0.77996 0.8645 0.0
H1320 H 0.94095 0.75527 0.98941 0.0
H1321 H 0.96849 0.77135 0.95651 0.0
H1322 H 0.95841 0.84318 0.92866 0.0
C1323 C 0.98594 0.85138 0.84023 0.0
C1324 C 0.97204 0.794 0.87844 0.0
C1325 C 0.99815 0.85967 0.81888 0.0
C1326 C 0.93455 0.77013 0.97747 0.0
C1327 C 0.95014 0.7791 0.95852 0.0
C1328 C 0.96238 0.82923 0.91489 0.0
C1329 C 0.98939 0.82711 0.84938 0.0
C1330 C 0.97822 0.81907 0.8737 0.0
C1331 C 0.94158 0.7971 0.94158 0.0
C1332 C 0.95615 0.80431 0.91933 0.0
H1333 H 0.02813 0.80669 0.80387 0.0
H1334 H 1.00803 0.79236 0.84177 0.0
H1335 H 0.97863 0.8558 0.89033 0.0
H1336 H 0.88292 0.80354 0.96335 0.0
H1337 H 0.91057 0.82038 0.93163 0.0
C1338 C 0.50447 0.68206 0.2218 0.0
C1339 C 0.49657 0.65728 0.22441 0.0
C1340 C 0.49539 0.6967 0.20212 0.0
C1341 C 0.44568 0.70553 0.15707 0.0
H1342 H 0.49569 0.71925 0.10739 0.0
C1343 C 0.41603 0.73921 0.05981 0.0
C1344 C 0.4319 0.75476 0.04606 0.0
C1345 C 0.42429 0.72735 0.08142 0.0
C1346 C 0.48141 0.71614 0.12109 0.0
H1347 H 0.47272 0.62868 0.20903 0.0
H1348 H 0.45556 0.65466 0.17607 0.0
H1349 H 0.50791 0.70208 0.14749 0.0
H1350 H 0.46879 0.77081 0.04499 0.0
H1351 H 0.48303 0.75134 0.08329 0.0
H1352 H 0.41916 0.72013 0.13153 0.0
C1353 C 0.46887 0.66273 0.18892 0.0
C1354 C 0.48852 0.70623 0.14415 0.0
C1355 C 0.47854 0.64793 0.2079 0.0
C1356 C 0.45633 0.75827 0.05469 0.0
C1357 C 0.46447 0.74699 0.07679 0.0
C1358 C 0.4386 0.71601 0.1343 0.0
C1359 C 0.47789 0.68692 0.18519 0.0
C1360 C 0.47069 0.70054 0.16224 0.0
C1361 C 0.44841 0.73167 0.09087 0.0
C1362 C 0.45626 0.72112 0.11564 0.0
H1363 H 0.51907 0.68939 0.23364 0.0
H1364 H 0.50273 0.71528 0.19952 0.0
H1365 H 0.43154 0.7012 0.17067 0.0
H1366 H 0.39687 0.73668 0.05436 0.0
H1367 H 0.41137 0.7152 0.09094 0.0
C1368 C 0.16519 0.37865 0.37573 0.0
C1369 C 0.15192 0.35625 0.37842 0.0
C1370 C 0.17532 0.38549 0.35295 0.0
C1371 C 0.16778 0.37422 0.28579 0.0
H1372 H 0.22726 0.41515 0.28245 0.0
C1373 C 0.20839 0.41458 0.19375 0.0
C1374 C 0.21383 0.44008 0.19466 0.0
C1375 C 0.20243 0.4015 0.21547 0.0
C1376 C 0.21062 0.40373 0.2831 0.0
H1377 H 0.13992 0.32287 0.35942 0.0
H1378 H 0.15824 0.33453 0.31957 0.0
H1379 H 0.2153 0.39631 0.32176 0.0
H1380 H 0.21752 0.47184 0.21897 0.0
H1381 H 0.20729 0.44911 0.25667 0.0
H1382 H 0.16325 0.38183 0.24695 0.0
C1383 C 0.16031 0.34708 0.33507 0.0
C1384 C 0.20368 0.39298 0.30564 0.0
C1385 C 0.15005 0.34025 0.35798 0.0
C1386 C 0.21327 0.45222 0.21764 0.0
C1387 C 0.20765 0.43916 0.23928 0.0
C1388 C 0.1749 0.38478 0.26312 0.0
C1389 C 0.17272 0.37001 0.33217 0.0
C1390 C 0.1818 0.37862 0.30748 0.0
C1391 C 0.20221 0.41366 0.23848 0.0
C1392 C 0.19606 0.40015 0.26171 0.0
H1393 H 0.16735 0.39123 0.3912 0.0
H1394 H 0.18445 0.4034 0.35149 0.0
H1395 H 0.15068 0.36351 0.28649 0.0
H1396 H 0.20823 0.40485 0.17628 0.0
H1397 H 0.19825 0.38186 0.21434 0.0
C1398 C 0.89748 0.90179 0.62689 0.0
C1399 C 0.92277 0.8959 0.62789 0.0
C1400 C 0.8871 0.91191 0.60541 0.0
C1401 C 0.90209 0.93989 0.54378 0.0
H1402 H 0.83599 0.91538 0.52795 0.0
C1403 C 0.84496 0.97722 0.46044 0.0
C1404 C 0.82884 0.96069 0.44813 0.0
C1405 C 0.85751 0.96987 0.48198 0.0
C1406 C 0.85458 0.92221 0.53183 0.0
H1407 H 0.95736 0.89675 0.60771 0.0
H1408 H 0.93912 0.91371 0.56963 0.0
H1409 H 0.85601 0.90228 0.56601 0.0
H1410 H 0.81443 0.9231 0.44778 0.0
H1411 H 0.83663 0.91001 0.48493 0.0
H1412 H 0.90097 0.95894 0.50889 0.0
C1413 C 0.92731 0.91101 0.5856 0.0
C1414 C 0.86594 0.91504 0.55401 0.0
C1415 C 0.93779 0.90123 0.60735 0.0
C1416 C 0.82619 0.93643 0.45725 0.0
C1417 C 0.83895 0.92896 0.4786 0.0
C1418 C 0.8908 0.94687 0.52139 0.0
C1419 C 0.90167 0.91592 0.58417 0.0
C1420 C 0.88979 0.92387 0.56041 0.0
C1421 C 0.85449 0.9457 0.49151 0.0
C1422 C 0.86686 0.93813 0.51513 0.0
H1423 H 0.88561 0.89815 0.64267 0.0
H1424 H 0.86749 0.91617 0.60535 0.0
H1425 H 0.92038 0.94724 0.54812 0.0
H1426 H 0.84728 0.99611 0.45387 0.0
H1427 H 0.86903 0.98338 0.49151 0.0
C1428 C 0.30254 0.55304 0.7193 0.0
C1429 C 0.29662 0.56432 0.69647 0.0
C1430 C 0.30983 0.56718 0.73973 0.0
C1431 C 0.30907 0.62978 0.7675 0.0
H1432 H 0.36483 0.60417 0.80512 0.0
C1433 C 0.35764 0.68242 0.85015 0.0
C1434 C 0.36683 0.66765 0.86963 0.0
C1435 C 0.34713 0.67139 0.82888 0.0
C1436 C 0.34901 0.61149 0.79511 0.0
H1437 H 0.29263 0.59977 0.67782 0.0
H1438 H 0.30528 0.62467 0.71384 0.0
H1439 H 0.3506 0.58251 0.76831 0.0
H1440 H 0.37045 0.62993 0.88295 0.0
H1441 H 0.35169 0.61081 0.84656 0.0
H1442 H 0.30753 0.6588 0.79464 0.0
C1443 C 0.3044 0.60468 0.71569 0.0
C1444 C 0.34087 0.59904 0.77387 0.0
C1445 C 0.29721 0.5904 0.69502 0.0
C1446 C 0.36391 0.64179 0.86807 0.0
C1447 C 0.35331 0.63083 0.84707 0.0
C1448 C 0.31721 0.64229 0.78895 0.0
C1449 C 0.31126 0.59317 0.73818 0.0
C1450 C 0.32056 0.60774 0.75994 0.0
C1451 C 0.34552 0.64536 0.82677 0.0
C1452 C 0.33707 0.63305 0.80329 0.0
H1453 H 0.30168 0.53311 0.72149 0.0
H1454 H 0.31436 0.55765 0.75686 0.0
H1455 H 0.29333 0.63697 0.75725 0.0
H1456 H 0.35972 0.7024 0.85081 0.0
H1457 H 0.34133 0.6832 0.81367 0.0
C1458 C 0.63264 0.11696 0.12094 0.0
C1459 C 0.6072 0.12191 0.12279 0.0
C1460 C 0.64234 0.10727 0.09916 0.0
C1461 C 0.62536 0.07834 0.03866 0.0
H1462 H 0.68921 0.10593 0.01959 0.0
C1463 C 0.68052 0.04389 0.95352 0.0
C1464 C 0.69507 0.06139 0.94069 0.0
C1465 C 0.66821 0.05055 0.97522 0.0
C1466 C 0.67121 0.09824 0.0244 0.0
H1467 H 0.57174 0.11988 0.10375 0.0
H1468 H 0.58875 0.10366 0.06523 0.0
H1469 H 0.67083 0.11819 0.05839 0.0
H1470 H 0.70669 0.09989 0.93927 0.0
H1471 H 0.6848 0.11176 0.97662 0.0
H1472 H 0.62542 0.05918 1.00397 0.0
C1473 C 0.60121 0.10678 0.08076 0.0
C1474 C 0.66084 0.10494 0.04697 0.0
C1475 C 0.59144 0.11617 0.10275 0.0
C1476 C 0.69609 0.08591 0.94917 0.0
C1477 C 0.68359 0.09265 0.97063 0.0
C1478 C 0.63566 0.0718 0.01586 0.0
C1479 C 0.62689 0.1027 0.07853 0.0
C1480 C 0.63783 0.09504 0.05449 0.0
C1481 C 0.67 0.07493 0.98431 0.0
C1482 C 0.65871 0.08175 1.00843 0.0
H1483 H 0.6451 0.12083 0.13632 0.0
H1484 H 0.66207 0.10368 0.09842 0.0
H1485 H 0.6077 0.07018 0.04392 0.0
H1486 H 0.67955 0.0248 0.94739 0.0
H1487 H 0.65811 0.03636 0.98535 0.0
C1488 C 0.63441 0.17577 0.68127 0.0
C1489 C 0.6464 0.17229 0.65856 0.0
C1490 C 0.64431 0.16597 0.70315 0.0
C1491 C 0.70083 0.13729 0.73114 0.0
H1492 H 0.65266 0.11063 0.77757 0.0
C1493 C 0.72758 0.07627 0.81598 0.0
C1494 C 0.71577 0.0818 0.8384 0.0
C1495 C 0.71989 0.08748 0.79385 0.0
C1496 C 0.66634 0.11814 0.76489 0.0
H1497 H 0.67858 0.15661 0.64092 0.0
H1498 H 0.69573 0.13879 0.67911 0.0
H1499 H 0.63842 0.13014 0.73941 0.0
H1500 H 0.6877 0.10419 0.85567 0.0
H1501 H 0.67385 0.1236 0.81686 0.0
H1502 H 0.72875 0.1246 0.75663 0.0
C1503 C 0.67886 0.14948 0.68017 0.0
C1504 C 0.6582 0.12948 0.74301 0.0
C1505 C 0.66907 0.15964 0.65826 0.0
C1506 C 0.69666 0.09927 0.83848 0.0
C1507 C 0.68877 0.11029 0.81631 0.0
C1508 C 0.70898 0.12567 0.75297 0.0
C1509 C 0.66628 0.15203 0.70285 0.0
C1510 C 0.67529 0.1395 0.72593 0.0
C1511 C 0.70029 0.10451 0.79373 0.0
C1512 C 0.6918 0.1162 0.77019 0.0
H1513 H 0.61704 0.18572 0.68201 0.0
H1514 H 0.63448 0.16904 0.72029 0.0
H1515 H 0.71457 0.14493 0.7186 0.0
H1516 H 0.74279 0.06327 0.81558 0.0
H1517 H 0.72903 0.08254 0.77677 0.0
C1518 C 0.19721 0.47074 0.06709 0.0
C1519 C 0.19069 0.45842 0.08912 0.0
C1520 C 0.18598 0.46426 0.0446 0.0
C1521 C 0.14969 0.41403 0.01377 0.0
H1522 H 0.13674 0.46559 0.96516 0.0
C1523 C 0.10034 0.39359 0.91983 0.0
C1524 C 0.11259 0.40342 0.89901 0.0
C1525 C 0.1071 0.40129 0.94379 0.0
C1526 C 0.14028 0.45096 0.9785 0.0
H1527 H 0.16645 0.43065 0.10525 0.0
H1528 H 0.14651 0.41927 0.06587 0.0
H1529 H 0.15422 0.47661 1.00542 0.0
H1530 H 0.14046 0.42987 0.88679 0.0
H1531 H 0.15195 0.44358 0.92835 0.0
H1532 H 0.13568 0.38841 0.98668 0.0
C1533 C 0.16084 0.43348 0.06581 0.0
C1534 C 0.15044 0.45725 1.00159 0.0
C1535 C 0.17214 0.44001 0.08838 0.0
C1536 C 0.13077 0.42194 0.90253 0.0
C1537 C 0.13727 0.42986 0.92635 0.0
C1538 C 0.13934 0.40776 0.9907 0.0
C1539 C 0.1676 0.44556 0.04359 0.0
C1540 C 0.15561 0.43885 0.01945 0.0
C1541 C 0.12594 0.41925 0.94733 0.0
C1542 C 0.13481 0.42612 0.97266 0.0
H1543 H 0.2111 0.48541 0.06722 0.0
H1544 H 0.19202 0.47373 0.02792 0.0
H1545 H 0.15371 0.39932 0.02686 0.0
H1546 H 0.08635 0.37919 0.91763 0.0
H1547 H 0.09784 0.39294 0.95956 0.0
C1548 C 0.82769 0.92268 0.34329 0.0
C1549 C 0.81245 0.94364 0.34332 0.0
C1550 C 0.83493 0.91198 0.32089 0.0
C1551 C 0.8446 0.92544 0.25536 0.0
H1552 H 0.83364 0.85513 0.2448 0.0
C1553 C 0.86276 0.88244 0.15989 0.0
C1554 C 0.87255 0.85848 0.15909 0.0
C1555 C 0.85384 0.89205 0.1821 0.0
C1556 C 0.83724 0.87471 0.24748 0.0
H1557 H 0.79165 0.96904 0.32007 0.0
H1558 H 0.80514 0.95103 0.28096 0.0
H1559 H 0.82279 0.87357 0.28448 0.0
H1560 H 0.8805 0.82552 0.18053 0.0
H1561 H 0.86591 0.84249 0.2197 0.0
H1562 H 0.8599 0.92675 0.219 0.0
C1563 C 0.81172 0.94304 0.29822 0.0
C1564 C 0.83091 0.88526 0.27024 0.0
C1565 C 0.80415 0.95343 0.32058 0.0
C1566 C 0.87279 0.844 0.18074 0.0
C1567 C 0.86431 0.85377 0.20313 0.0
C1568 C 0.85137 0.91486 0.23281 0.0
C1569 C 0.82706 0.92212 0.29814 0.0
C1570 C 0.83442 0.91075 0.27433 0.0
C1571 C 0.85507 0.87813 0.20425 0.0
C1572 C 0.84766 0.88934 0.22842 0.0
H1573 H 0.83388 0.9145 0.36061 0.0
H1574 H 0.84677 0.89586 0.32132 0.0
H1575 H 0.84766 0.94511 0.2581 0.0
H1576 H 0.86233 0.89387 0.14332 0.0
H1577 H 0.84622 0.91055 0.18189 0.0
C1578 C 0.3485 0.5577 0.59018 0.0
C1579 C 0.32618 0.54404 0.5902 0.0
C1580 C 0.35944 0.56537 0.56786 0.0
C1581 C 0.35996 0.55224 0.49977 0.0
H1582 H 0.39408 0.61574 0.4967 0.0
C1583 C 0.39682 0.59601 0.40755 0.0
C1584 C 0.41904 0.60983 0.40856 0.0
C1585 C 0.38609 0.5864 0.4293 0.0
C1586 C 0.38495 0.59778 0.49725 0.0
H1587 H 0.29848 0.52661 0.56663 0.0
H1588 H 0.31703 0.54055 0.52768 0.0
H1589 H 0.3735 0.60305 0.53476 0.0
H1590 H 0.44764 0.62419 0.43297 0.0
H1591 H 0.42935 0.60707 0.4709 0.0
H1592 H 0.3712 0.54721 0.46203 0.0
C1593 C 0.32625 0.54538 0.5449 0.0
C1594 C 0.37306 0.59046 0.5192 0.0
C1595 C 0.31538 0.53762 0.56728 0.0
C1596 C 0.43068 0.6133 0.43165 0.0
C1597 C 0.41997 0.60375 0.4534 0.0
C1598 C 0.37177 0.55963 0.47773 0.0
C1599 C 0.3485 0.55939 0.54481 0.0
C1600 C 0.36051 0.56748 0.52094 0.0
C1601 C 0.3972 0.59062 0.45266 0.0
C1602 C 0.38461 0.58246 0.47617 0.0
H1603 H 0.35753 0.5625 0.60753 0.0
H1604 H 0.37679 0.57562 0.56874 0.0
H1605 H 0.35083 0.53428 0.50032 0.0
H1606 H 0.38722 0.59351 0.39003 0.0
H1607 H 0.36848 0.57663 0.42789 0.0
C1608 C 0.20742 0.22285 0.43398 0.0
C1609 C 0.19459 0.20671 0.45005 0.0
C1610 C 0.22908 0.21508 0.42216 0.0
C1611 C 0.27892 0.16965 0.43046 0.0
H1612 H 0.29521 0.18382 0.36189 0.0
C1613 C 0.36175 0.12326 0.3858 0.0
C1614 C 0.37788 0.13826 0.37181 0.0
C1615 C 0.33844 0.13186 0.39256 0.0
C1616 C 0.29098 0.17992 0.38112 0.0
H1617 H 0.1931 0.16926 0.46465 0.0
H1618 H 0.23076 0.15578 0.44434 0.0
H1619 H 0.25609 0.19883 0.37909 0.0
H1620 H 0.38185 0.17351 0.35276 0.0
H1621 H 0.34099 0.18886 0.36499 0.0
H1622 H 0.3136 0.15099 0.43278 0.0
C1623 C 0.22461 0.17463 0.44137 0.0
C1624 C 0.26862 0.18851 0.39095 0.0
C1625 C 0.20308 0.18237 0.45311 0.0
C1626 C 0.36973 0.16159 0.36358 0.0
C1627 C 0.34636 0.17034 0.37055 0.0
C1628 C 0.30113 0.16115 0.4207 0.0
C1629 C 0.23818 0.19103 0.4262 0.0
C1630 C 0.26222 0.18311 0.41565 0.0
C1631 C 0.33076 0.15579 0.38572 0.0
C1632 C 0.3073 0.16582 0.39583 0.0
H1633 H 0.20124 0.24173 0.43124 0.0
H1634 H 0.23916 0.22815 0.4106 0.0
H1635 H 0.27485 0.16575 0.44973 0.0
H1636 H 0.36739 0.10499 0.39193 0.0
H1637 H 0.32659 0.11991 0.40364 0.0
C1638 C 0.10895 0.1052 0.63065 0.0
C1639 C 0.12114 0.10459 0.60775 0.0
C1640 C 0.09994 0.08331 0.64154 0.0
C1641 C 0.11245 0.01672 0.64383 0.0
H1642 H 0.04819 0.0114 0.67545 0.0
C1643 C 0.07737 0.92396 0.68612 0.0
C1644 C 0.06253 0.9248 0.70735 0.0
C1645 C 0.08408 0.94583 0.67361 0.0
C1646 C 0.06639 0.01261 0.6671 0.0
H1647 H 0.13325 0.08095 0.57802 0.0
H1648 H 0.11767 0.04246 0.59712 0.0
H1649 H 0.05978 0.04957 0.65389 0.0
H1650 H 0.04192 0.94908 0.73142 0.0
H1651 H 0.05459 0.98723 0.7106 0.0
H1652 H 0.11958 0.98024 0.65766 0.0
C1653 C 0.11497 0.05986 0.60663 0.0
C1654 C 0.07293 0.0345 0.65456 0.0
C1655 C 0.12368 0.08184 0.59559 0.0
C1656 C 0.05401 0.9479 0.7155 0.0
C1657 C 0.06095 0.96978 0.70324 0.0
C1658 C 0.10608 0.99496 0.65667 0.0
C1659 C 0.10336 0.06029 0.62993 0.0
C1660 C 0.09601 0.03679 0.64271 0.0
C1661 C 0.076 0.96912 0.68199 0.0
C1662 C 0.08291 0.9925 0.66846 0.0
H1663 H 0.10707 0.12256 0.64046 0.0
H1664 H 0.09126 0.08427 0.65956 0.0
H1665 H 0.13055 0.01806 0.63527 0.0
H1666 H 0.08368 0.90633 0.6791 0.0
H1667 H 0.0952 0.94434 0.65705 0.0
C1668 C 0.17974 0.87558 0.86107 0.0
C1669 C 0.15836 0.86736 0.87356 0.0
C1670 C 0.20329 0.86712 0.86835 0.0
C1671 C 0.23531 0.81809 0.90511 0.0
H1672 H 0.28661 0.86817 0.91445 0.0
C1673 C 0.32358 0.79804 0.96254 0.0
C1674 C 0.34629 0.80797 0.95427 0.0
C1675 C 0.30117 0.80532 0.95162 0.0
C1676 C 0.27264 0.85386 0.91166 0.0
H1677 H 0.14464 0.84286 0.90238 0.0
H1678 H 0.18542 0.82794 0.91487 0.0
H1679 H 0.24697 0.87959 0.89558 0.0
H1680 H 0.3635 0.83245 0.92745 0.0
H1681 H 0.32431 0.84514 0.90806 0.0
H1682 H 0.26082 0.79238 0.92125 0.0
C1683 C 0.18423 0.84093 0.89956 0.0
C1684 C 0.2499 0.86041 0.90077 0.0
C1685 C 0.16084 0.84955 0.89248 0.0
C1686 C 0.34618 0.82494 0.93449 0.0
C1687 C 0.32373 0.83224 0.92349 0.0
C1688 C 0.25804 0.81153 0.9159 0.0
C1689 C 0.20585 0.85004 0.88804 0.0
C1690 C 0.23082 0.84267 0.89761 0.0
C1691 C 0.3009 0.82237 0.93179 0.0
C1692 C 0.27695 0.82937 0.91958 0.0
H1693 H 0.17835 0.88941 0.84651 0.0
H1694 H 0.21953 0.87428 0.85888 0.0
H1695 H 0.2212 0.80386 0.90267 0.0
H1696 H 0.32312 0.78446 0.9774 0.0
H1697 H 0.28402 0.79758 0.9588 0.0
C1698 C 0.47654 0.06466 0.21028 0.0
C1699 C 0.4658 0.08747 0.20381 0.0
C1700 C 0.46882 0.04269 0.19864 0.0
C1701 C 0.43777 0.02004 0.1413 0.0
H1702 H 0.42881 0.9589 0.1784 0.0
C1703 C 0.3844 0.93604 0.10132 0.0
C1704 C 0.39253 0.91192 0.10682 0.0
C1705 C 0.39567 0.95671 0.11234 0.0
C1706 C 0.43158 0.97572 0.16768 0.0
H1707 H 0.43935 0.10539 0.17954 0.0
H1708 H 0.42546 0.06708 0.15944 0.0
H1709 H 0.44306 0.99638 0.19973 0.0
H1710 H 0.41942 0.89069 0.12779 0.0
H1711 H 0.4393 0.92699 0.14718 0.0
H1712 H 0.42607 0.99957 0.10934 0.0
C1713 C 0.43987 0.06604 0.17348 0.0
C1714 C 0.4397 0.99726 0.17994 0.0
C1715 C 0.44764 0.08798 0.18509 0.0
C1716 C 0.41281 0.90904 0.1231 0.0
C1717 C 0.424 0.92981 0.13439 0.0
C1718 C 0.42964 0.99858 0.12909 0.0
C1719 C 0.45044 0.04308 0.17997 0.0
C1720 C 0.4426 0.01981 0.16696 0.0
C1721 C 0.41538 0.95393 0.12933 0.0
C1722 C 0.4261 0.97618 0.14213 0.0
H1723 H 0.4911 0.06384 0.2242 0.0
H1724 H 0.47763 0.02549 0.20393 0.0
H1725 H 0.44035 0.03686 0.13054 0.0
H1726 H 0.36893 0.93891 0.08873 0.0
H1727 H 0.38834 0.97488 0.10813 0.0
C1728 C 0.85576 0.38016 0.63969 0.0
C1729 C 0.86267 0.37445 0.6643 0.0
C1730 C 0.83488 0.36918 0.62864 0.0
C1731 C 0.79258 0.31628 0.62782 0.0
H1732 H 0.74405 0.36297 0.60259 0.0
C1733 C 0.70846 0.29072 0.56288 0.0
C1734 C 0.68525 0.29906 0.5711 0.0
C1735 C 0.73048 0.29857 0.57464 0.0
C1736 C 0.75742 0.34972 0.60953 0.0
H1737 H 0.85352 0.35107 0.69585 0.0
H1738 H 0.81736 0.3311 0.67599 0.0
H1739 H 0.78219 0.3783 0.62242 0.0
H1740 H 0.66685 0.3213 0.59859 0.0
H1741 H 0.70535 0.3358 0.61856 0.0
H1742 H 0.76795 0.28769 0.61423 0.0
C1743 C 0.82809 0.34463 0.6656 0.0
C1744 C 0.77927 0.35847 0.62082 0.0
C1745 C 0.84888 0.35602 0.67692 0.0
C1746 C 0.6845 0.31493 0.59163 0.0
C1747 C 0.7065 0.32321 0.60303 0.0
C1748 C 0.77091 0.3075 0.61597 0.0
C1749 C 0.8205 0.35166 0.64157 0.0
C1750 C 0.79708 0.34189 0.63016 0.0
C1751 C 0.72973 0.31508 0.59472 0.0
C1752 C 0.75304 0.32415 0.60682 0.0
H1753 H 0.86629 0.39354 0.62892 0.0
H1754 H 0.82979 0.37461 0.60994 0.0
H1755 H 0.80604 0.30309 0.63471 0.0
H1756 H 0.70958 0.27805 0.54742 0.0
H1757 H 0.74811 0.29207 0.56779 0.0
C1758 C 0.94627 0.46148 0.81892 0.0
C1759 C 0.96983 0.45099 0.82226 0.0
C1760 C 0.93932 0.48236 0.83233 0.0
C1761 C 0.95281 0.51672 0.88965 0.0
H1762 H 0.91537 0.56869 0.85696 0.0
C1763 C 0.89291 0.5869 0.94217 0.0
C1764 C 0.89157 0.61141 0.93336 0.0
C1765 C 0.90628 0.5691 0.92926 0.0
C1766 C 0.92611 0.55453 0.86632 0.0
H1767 H 1.00441 0.45384 0.8429 0.0
H1768 H 0.99218 0.49028 0.86657 0.0
H1769 H 0.93107 0.53415 0.83277 0.0
H1770 H 0.90393 0.63677 0.90466 0.0
H1771 H 0.92737 0.60552 0.8819 0.0
H1772 H 0.94759 0.53697 0.92325 0.0
C1773 C 0.97911 0.48236 0.85342 0.0
C1774 C 0.93484 0.53457 0.8525 0.0
C1775 C 0.9861 0.4615 0.83986 0.0
C1776 C 0.90475 0.61802 0.9119 0.0
C1777 C 0.91795 0.6001 0.89879 0.0
C1778 C 0.94396 0.53661 0.90349 0.0
C1779 C 0.95569 0.49316 0.84966 0.0
C1780 C 0.94797 0.51523 0.86406 0.0
C1781 C 0.91849 0.57532 0.90711 0.0
C1782 C 0.93019 0.55557 0.89206 0.0
H1783 H 0.93293 0.45328 0.80631 0.0
H1784 H 0.9209 0.48977 0.82944 0.0
H1785 H 0.96274 0.50208 0.89915 0.0
H1786 H 0.88305 0.58135 0.95876 0.0
H1787 H 0.90612 0.55019 0.9361 0.0
C1788 C 0.83072 0.7085 0.09528 0.0
C1789 C 0.8311 0.72446 0.07462 0.0
C1790 C 0.80813 0.70033 0.10546 0.0
C1791 C 0.74318 0.71874 0.11273 0.0
H1792 H 0.73031 0.64967 0.12861 0.0
C1793 C 0.64579 0.68625 0.14444 0.0
C1794 C 0.64283 0.66523 0.15979 0.0
C1795 C 0.66902 0.69307 0.13495 0.0
C1796 C 0.73363 0.66912 0.12477 0.0
H1797 H 0.80807 0.74546 0.04923 0.0
H1798 H 0.76857 0.73155 0.06723 0.0
H1799 H 0.76981 0.66189 0.10986 0.0
H1800 H 0.66305 0.63553 0.17787 0.0
H1801 H 0.7038 0.64823 0.16251 0.0
H1802 H 0.70775 0.72643 0.12828 0.0
C1803 C 0.78576 0.7249 0.07525 0.0
C1804 C 0.75632 0.67609 0.11382 0.0
C1805 C 0.80836 0.73274 0.06483 0.0
C1806 C 0.66434 0.65187 0.16621 0.0
C1807 C 0.68781 0.65897 0.15698 0.0
C1808 C 0.72074 0.7119 0.12404 0.0
C1809 C 0.78534 0.70859 0.09573 0.0
C1810 C 0.76128 0.70097 0.10744 0.0
C1811 C 0.69053 0.67956 0.1409 0.0
C1812 C 0.71534 0.68691 0.13002 0.0
H1813 H 0.84797 0.70219 0.10347 0.0
H1814 H 0.80851 0.68802 0.12137 0.0
H1815 H 0.74655 0.73813 0.1085 0.0
H1816 H 0.63003 0.69758 0.13944 0.0
H1817 H 0.66984 0.70877 0.12242 0.0
C1818 C 0.6321 0.43927 0.43403 0.0
C1819 C 0.62908 0.41443 0.42678 0.0
C1820 C 0.61946 0.45822 0.42171 0.0
C1821 C 0.59067 0.47393 0.36164 0.0
H1822 H 0.56639 0.53041 0.39814 0.0
C1823 C 0.5424 0.55873 0.31446 0.0
C1824 C 0.54923 0.5822 0.32364 0.0
C1825 C 0.55051 0.53707 0.32642 0.0
C1826 C 0.57328 0.51491 0.3876 0.0
H1827 H 0.60984 0.3899 0.40132 0.0
H1828 H 0.58751 0.42322 0.37962 0.0
H1829 H 0.58212 0.49455 0.42056 0.0
H1830 H 0.56893 0.60147 0.3529 0.0
H1831 H 0.58333 0.5639 0.37361 0.0
H1832 H 0.58208 0.49461 0.32862 0.0
C1833 C 0.59987 0.42796 0.39482 0.0
C1834 C 0.58225 0.49427 0.40049 0.0
C1835 C 0.61242 0.40887 0.40738 0.0
C1836 C 0.56369 0.5836 0.34529 0.0
C1837 C 0.57177 0.56205 0.35722 0.0
C1838 C 0.58168 0.49467 0.34868 0.0
C1839 C 0.60347 0.45293 0.40168 0.0
C1840 C 0.5915 0.47368 0.38773 0.0
C1841 C 0.56518 0.53847 0.34808 0.0
C1842 C 0.57329 0.51563 0.36153 0.0
H1843 H 0.64474 0.44412 0.44898 0.0
H1844 H 0.62293 0.47717 0.42739 0.0
H1845 H 0.59785 0.4585 0.3512 0.0
H1846 H 0.53068 0.55714 0.29815 0.0
H1847 H 0.54485 0.51926 0.319 0.0
C1848 C 0.3523 0.3612 0.17006 0.0
C1849 C 0.35897 0.36829 0.14587 0.0
C1850 C 0.36059 0.33863 0.18011 0.0
C1851 C 0.41208 0.2947 0.17177 0.0
H1852 H 0.37434 0.25039 0.21432 0.0
C1853 C 0.44943 0.19897 0.19755 0.0
C1854 C 0.44715 0.1908 0.22217 0.0
C1855 C 0.43689 0.21997 0.18921 0.0
C1856 C 0.38519 0.26272 0.20266 0.0
H1857 H 0.37774 0.35655 0.11262 0.0
H1858 H 0.39167 0.31722 0.12978 0.0
H1859 H 0.3549 0.28799 0.19778 0.0
H1860 H 0.429 0.19771 0.25717 0.0
H1861 H 0.40701 0.23468 0.2426 0.0
H1862 H 0.44235 0.2698 0.17659 0.0
C1863 C 0.38078 0.32927 0.14136 0.0
C1864 C 0.37404 0.28425 0.19317 0.0
C1865 C 0.37266 0.35174 0.13145 0.0
C1866 C 0.43115 0.20357 0.23807 0.0
C1867 C 0.41854 0.22473 0.22971 0.0
C1868 C 0.42316 0.27333 0.18121 0.0
C1869 C 0.37561 0.32276 0.16608 0.0
C1870 C 0.38727 0.30029 0.17726 0.0
C1871 C 0.42165 0.23345 0.20527 0.0
C1872 C 0.4098 0.25682 0.19646 0.0
H1873 H 0.34181 0.37365 0.1816 0.0
H1874 H 0.35625 0.33418 0.1992 0.0
H1875 H 0.4231 0.30696 0.16019 0.0
H1876 H 0.46093 0.1891 0.1846 0.0
H1877 H 0.4392 0.2257 0.17009 0.0
C1878 C 0.9279 0.34694 0.82222 0.0
C1879 C 0.94675 0.3468 0.80443 0.0
C1880 C 0.91661 0.32469 0.82986 0.0
C1881 C 0.92546 0.25614 0.82892 0.0
H1882 H 0.85594 0.25494 0.84711 0.0
C1883 C 0.88127 0.1723 0.87902 0.0
C1884 C 0.85606 0.16643 0.875 0.0
C1885 C 0.89197 0.19353 0.86854 0.0
C1886 C 0.87528 0.25479 0.84176 0.0
H1887 H 0.96744 0.32369 0.77931 0.0
H1888 H 0.94747 0.28505 0.79204 0.0
H1889 H 0.87485 0.29341 0.83252 0.0
H1890 H 0.82261 0.17801 0.85578 0.0
H1891 H 0.84153 0.21467 0.83667 0.0
H1892 H 0.92572 0.21739 0.83729 0.0
C1893 C 0.94199 0.30204 0.801 0.0
C1894 C 0.88628 0.27704 0.83378 0.0
C1895 C 0.95343 0.32421 0.79362 0.0
C1896 C 0.84208 0.18189 0.85927 0.0
C1897 C 0.85288 0.20313 0.84858 0.0
C1898 C 0.91441 0.23387 0.83664 0.0
C1899 C 0.92351 0.3019 0.81935 0.0
C1900 C 0.91159 0.2781 0.82745 0.0
C1901 C 0.87791 0.20946 0.85338 0.0
C1902 C 0.88922 0.23289 0.84347 0.0
H1903 H 0.92222 0.36421 0.83052 0.0
H1904 H 0.90272 0.32538 0.84424 0.0
H1905 H 0.94503 0.25616 0.82447 0.0
H1906 H 0.89279 0.16059 0.8906 0.0
H1907 H 0.91118 0.19776 0.87297 0.0
C1908 C 0.08986 0.58432 0.10655 0.0
C1909 C 0.11013 0.59842 0.1153 0.0
C1910 C 0.06933 0.59604 0.09558 0.0
C1911 C 0.03928 0.65788 0.09459 0.0
H1912 H 0.99689 0.62861 0.04411 0.0
C1913 C 0.94417 0.69949 0.07299 0.0
C1914 C 0.93621 0.7009 0.04822 0.0
C1915 C 0.96495 0.68565 0.07961 0.0
C1916 C 0.00865 0.63717 0.05804 0.0
H1917 H 0.12571 0.63543 0.11788 0.0
H1918 H 0.09067 0.65575 0.09791 0.0
H1919 H 0.03494 0.60753 0.05685 0.0
H1920 H 0.94313 0.68803 1.011 0.0
H1921 H 0.98005 0.66403 0.02243 0.0
H1922 H 0.01368 0.68779 0.0954 0.0
C1923 C 0.08993 0.63581 0.10032 0.0
C1924 C 0.03036 0.62492 0.06558 0.0
C1925 C 0.11016 0.62418 0.11157 0.0
C1926 C 0.94892 0.68728 0.03025 0.0
C1927 C 0.97002 0.67351 0.03685 0.0
C1928 C 0.01781 0.67014 0.08697 0.0
C1929 C 0.06881 0.62206 0.09291 0.0
C1930 C 0.04596 0.6351 0.08404 0.0
C1931 C 0.9786 0.67293 0.0616 0.0
C1932 C 1.00199 0.65989 0.06879 0.0
H1933 H 0.08937 0.56442 0.10932 0.0
H1934 H 0.05344 0.58478 0.09025 0.0
H1935 H 0.05043 0.6662 0.10916 0.0
H1936 H 0.93424 0.70909 0.08737 0.0
H1937 H 0.97036 0.68503 0.09897 0.0
C1938 C 0.64311 0.8628 0.35931 0.0
C1939 C 0.66866 0.86307 0.36452 0.0
C1940 C 0.63202 0.84248 0.34758 0.0
C1941 C 0.64459 0.78343 0.31401 0.0
H1942 H 0.58035 0.76539 0.34104 0.0
C1943 C 0.58402 0.70085 0.27697 0.0
C1944 C 0.57004 0.6877 0.29465 0.0
C1945 C 0.59729 0.72233 0.2838 0.0
C1946 C 0.59839 0.76994 0.33339 0.0
H1947 H 0.70293 0.84286 0.36067 0.0
H1948 H 0.68346 0.80675 0.34083 0.0
H1949 H 0.60125 0.80251 0.35544 0.0
H1950 H 0.56075 0.68526 0.33355 0.0
H1951 H 0.58388 0.72213 0.34554 0.0
H1952 H 0.64196 0.74997 0.29273 0.0
C1953 C 0.67199 0.82245 0.34536 0.0
C1954 C 0.61025 0.79159 0.34137 0.0
C1955 C 0.68317 0.84306 0.3568 0.0
C1956 C 0.57055 0.69559 0.31937 0.0
C1957 C 0.58389 0.71676 0.32623 0.0
C1958 C 0.63274 0.76153 0.30612 0.0
C1959 C 0.64613 0.82164 0.34118 0.0
C1960 C 0.63351 0.7987 0.33184 0.0
C1961 C 0.59699 0.73079 0.30848 0.0
C1962 C 0.60955 0.75442 0.3159 0.0
H1963 H 0.63159 0.87819 0.36474 0.0
H1964 H 0.61223 0.84294 0.344 0.0
H1965 H 0.66239 0.78838 0.3061 0.0
H1966 H 0.584 0.69503 0.25779 0.0
H1967 H 0.60712 0.73267 0.26963 0.0
C1968 C 0.55838 0.3089 0.54173 0.0
C1969 C 0.58198 0.31996 0.53907 0.0
C1970 C 0.53792 0.32277 0.54882 0.0
C1971 C 0.52 0.38162 0.57904 0.0
H1972 H 0.45479 0.36187 0.55492 0.0
C1973 C 0.42803 0.42982 0.60899 0.0
C1974 C 0.40967 0.41314 0.61739 0.0
C1975 C 0.44921 0.42108 0.59681 0.0
C1976 C 0.47286 0.36763 0.56183 0.0
H1977 H 0.60222 0.35481 0.54102 0.0
H1978 H 0.56607 0.37945 0.55276 0.0
H1979 H 0.4916 0.34248 0.53806 0.0
H1980 H 0.39856 0.37449 0.61883 0.0
H1981 H 0.43502 0.35933 0.59715 0.0
H1982 H 0.50089 0.40689 0.60281 0.0
C1983 C 0.56365 0.35972 0.54991 0.0
C1984 C 0.49404 0.35642 0.55227 0.0
C1985 C 0.58435 0.34565 0.54296 0.0
C1986 C 0.41245 0.38774 0.61261 0.0
C1987 C 0.43329 0.37909 0.6001 0.0
C1988 C 0.49872 0.39308 0.58843 0.0
C1989 C 0.54013 0.3484 0.55305 0.0
C1990 C 0.51791 0.36271 0.5612 0.0
C1991 C 0.45211 0.39557 0.59234 0.0
C1992 C 0.47488 0.38576 0.58036 0.0
H1993 H 0.5556 0.28927 0.53856 0.0
H1994 H 0.5204 0.31314 0.55147 0.0
H1995 H 0.53797 0.38688 0.58655 0.0
H1996 H 0.4264 0.44948 0.61257 0.0
H1997 H 0.46333 0.43424 0.59094 0.0
C1998 C 0.19067 0.66813 0.66744 0.0
C1999 C 0.17686 0.65269 0.65154 0.0
C2000 C 0.17899 0.6873 0.68025 0.0
C2001 C 0.12223 0.72558 0.67552 0.0
H2002 H 0.14204 0.74927 0.74051 0.0
C2003 C 0.06548 0.79818 0.72656 0.0
C2004 C 0.07845 0.81881 0.73609 0.0
C2005 C 0.0781 0.77736 0.71836 0.0
C2006 C 0.13647 0.74292 0.72228 0.0
H2007 H 0.14011 0.64392 0.63761 0.0
H2008 H 0.11948 0.67646 0.6607 0.0
H2009 H 0.16245 0.71303 0.72291 0.0
H2010 H 0.11498 0.83241 0.74689 0.0
H2011 H 0.13715 0.79585 0.73247 0.0
H2012 H 0.09611 0.75518 0.67497 0.0
C2013 C 0.13939 0.67458 0.66272 0.0
C2014 C 0.14816 0.72219 0.71216 0.0
C2015 C 0.1511 0.65575 0.64969 0.0
C2016 C 0.10439 0.81726 0.73894 0.0
C2017 C 0.1171 0.79622 0.73087 0.0
C2018 C 0.11046 0.74605 0.6857 0.0
C2019 C 0.15327 0.69117 0.67752 0.0
C2020 C 0.14105 0.71315 0.68869 0.0
C2021 C 0.10409 0.77633 0.71991 0.0
C2022 C 0.11732 0.75488 0.70922 0.0
H2023 H 0.21062 0.66616 0.66896 0.0
H2024 H 0.19031 0.69974 0.69134 0.0
H2025 H 0.11672 0.71973 0.65711 0.0
H2026 H 0.04548 0.79801 0.72539 0.0
H2027 H 0.06747 0.76202 0.71071 0.0
C2028 C 0.45792 0.82109 0.94664 0.0
C2029 C 0.45006 0.82393 0.97119 0.0
C2030 C 0.47889 0.83367 0.93798 0.0
C2031 C 0.52187 0.88626 0.94986 0.0
H2032 H 0.56582 0.84751 0.90899 0.0
C2033 C 0.62027 0.91919 0.91633 0.0
C2034 C 0.62695 0.91195 0.89228 0.0
C2035 C 0.59779 0.91092 0.92669 0.0
C2036 C 0.55363 0.85873 0.92012 0.0
H2037 H 0.45728 0.84318 1.00567 0.0
H2038 H 0.49427 0.86527 0.99054 0.0
H2039 H 0.5287 0.8283 0.926 0.0
H2040 H 0.61454 0.89221 0.85955 0.0
H2041 H 0.57537 0.87822 0.8773 0.0
H2042 H 0.54718 0.91673 0.9439 0.0
C2043 C 0.48413 0.85323 0.97798 0.0
C2044 C 0.53231 0.84769 0.92991 0.0
C2045 C 0.463 0.84057 0.98666 0.0
C2046 C 0.6101 0.89766 0.87829 0.0
C2047 C 0.58771 0.88956 0.88852 0.0
C2048 C 0.54336 0.89738 0.94003 0.0
C2049 C 0.49259 0.84952 0.95365 0.0
C2050 C 0.51593 0.86137 0.94456 0.0
C2051 C 0.58162 0.89537 0.91311 0.0
C2052 C 0.55926 0.88381 0.92468 0.0
H2053 H 0.44776 0.80922 0.93399 0.0
H2054 H 0.48441 0.83094 0.91893 0.0
H2055 H 0.5096 0.89733 0.96105 0.0
H2056 H 0.63294 0.93018 0.92752 0.0
H2057 H 0.59363 0.91574 0.94567 0.0
C2058 C 0.90991 0.12281 0.4053 0.0
C2059 C 0.91144 0.10296 0.38873 0.0
C2060 C 0.93138 0.13226 0.41668 0.0
C2061 C 0.99779 0.11807 0.42977 0.0
H2062 H 1.00401 0.18954 0.43461 0.0
C2063 C 0.09133 0.16793 0.44984 0.0
C2064 C 0.09079 0.18755 0.46677 0.0
C2065 C 0.06917 0.1572 0.44124 0.0
C2066 C 1.00252 0.16956 0.43348 0.0
H2067 H 0.936 0.07692 0.3713 0.0
H2068 H 0.97368 0.09344 0.39095 0.0
H2069 H 0.96577 0.17125 0.41842 0.0
H2070 H 0.06697 0.21034 0.48931 0.0
H2071 H 0.02825 0.19191 0.47402 0.0
H2072 H 0.03487 0.11655 0.44432 0.0
C2073 C 0.95601 0.10164 0.39548 0.0
C2074 C 0.98051 0.15903 0.42437 0.0
C2075 C 0.93454 0.09225 0.38411 0.0
C2076 C 0.06782 0.19574 0.47563 0.0
C2077 C 0.04569 0.18515 0.46694 0.0
C2078 C 0.01991 0.12864 0.43863 0.0
C2079 C 0.95477 0.12202 0.41163 0.0
C2080 C 0.97788 0.13314 0.4223 0.0
C2081 C 0.04611 0.16577 0.44964 0.0
C2082 C 0.02255 0.15451 0.44047 0.0
H2083 H 0.89217 0.13129 0.40904 0.0
H2084 H 0.92965 0.1477 0.42929 0.0
H2085 H 0.99627 0.09806 0.42888 0.0
H2086 H 0.10888 0.16106 0.44315 0.0
H2087 H 0.07006 0.14239 0.42781 0.0
loop_
_geom_bond_atom_site_label_1
_geom_bond_atom_site_label_2
_geom_bond_distance
_geom_bond_site_symmetry_2
_ccdc_geom_bond_type
Gd0 N31 2.661 . S
Gd0 N37 2.601 . S
Gd0 O44 2.545 . S
Gd0 O45 2.606 . S
Gd0 O47 2.429 . S
Gd0 O48 2.545 . S
Gd0 O49 2.412 . S
Gd0 O51 2.362 . S
Gd0 O52 2.324 . S
Gd0 C59 2.828 . S
Gd1 N10 2.661 . S
Gd1 N14 2.601 . S
Gd1 O45 2.362 . S
Gd1 O46 2.324 . S
Gd1 O50 2.545 . S
Gd1 O51 2.606 . S
Gd1 O53 2.429 . S
Gd1 O54 2.545 . S
Gd1 O55 2.412 . S
Gd1 C68 2.828 . S
C2 C5 1.417 . S
C2 C7 1.431 . S
C2 C8 1.412 . S
C3 C6 1.437 . S
C3 C7 1.317 . S
C3 H22 0.929 . S
C4 C5 1.426 . S
C4 C6 1.413 . S
C4 N14 1.359 . S
C5 C2 1.417 . S
C5 C4 1.426 . S
C5 N10 1.350 . S
C6 C3 1.437 . S
C6 C4 1.413 . S
C6 C16 1.391 . S
C7 C2 1.431 . S
C7 C3 1.317 . S
C7 H18 0.930 . S
C8 C2 1.412 . S
C8 C9 1.355 . S
C8 H20 0.930 . S
C9 C8 1.355 . S
C9 C11 1.402 . S
C9 H21 0.930 . S
N10 Gd1 2.661 . S
N10 C5 1.350 . S
N10 C11 1.307 . S
C11 C9 1.402 . S
C11 N10 1.307 . S
C11 H12 0.930 . S
H12 C11 0.930 . S
C13 N14 1.334 . S
C13 C15 1.394 . S
C13 H17 0.930 . S
N14 Gd1 2.601 . S
N14 C4 1.359 . S
N14 C13 1.334 . S
C15 C13 1.394 . S
C15 C16 1.359 . S
C15 H27 0.930 . S
C16 C6 1.391 . S
C16 C15 1.359 . S
C16 H28 0.929 . S
H17 C13 0.930 . S
H18 C7 0.930 . S
H19 C36 0.930 . S
H20 C8 0.930 . S
H21 C9 0.930 . S
H22 C3 0.929 . S
H23 C41 0.930 . S
H24 C32 0.930 . S
H25 C33 0.930 . S
H26 C57 0.929 . S
H27 C15 0.930 . S
H28 C16 0.929 . S
H29 C58 0.930 . S
H30 C39 0.930 . S
N31 Gd0 2.661 . S
N31 C35 1.350 . S
N31 C36 1.307 . S
C32 H24 0.930 . S
C32 C33 1.355 . S
C32 C34 1.412 . S
C33 H25 0.930 . S
C33 C32 1.355 . S
C33 C36 1.402 . S
C34 C32 1.412 . S
C34 C35 1.417 . S
C34 C58 1.431 . S
C35 N31 1.350 . S
C35 C34 1.417 . S
C35 C38 1.426 . S
C36 H19 0.930 . S
C36 N31 1.307 . S
C36 C33 1.402 . S
N37 Gd0 2.601 . S
N37 C38 1.359 . S
N37 C41 1.334 . S
C38 C35 1.426 . S
C38 N37 1.359 . S
C38 C42 1.413 . S
C39 H30 0.930 . S
C39 C40 1.359 . S
C39 C41 1.394 . S
C40 C39 1.359 . S
C40 C42 1.391 . S
C40 H43 0.929 . S
C41 H23 0.930 . S
C41 N37 1.334 . S
C41 C39 1.394 . S
C42 C38 1.413 . S
C42 C40 1.391 . S
C42 C57 1.437 . S
H43 C40 0.929 . S
O44 Gd0 2.545 . S
O44 C59 1.258 . S
O45 Gd0 2.606 . S
O45 Gd1 2.362 . S
O45 C56 1.284 . S
O46 Gd1 2.324 . S
O46 C66 1.254 . S
O47 Gd0 2.429 . S
O47 C66 1.268 . S
O48 Gd0 2.545 . S
O48 C56 1.250 . S
O49 Gd0 2.412 . S
O49 C59 1.252 . S
O50 Gd1 2.545 . S
O50 C68 1.258 . S
O51 Gd0 2.362 . S
O51 Gd1 2.606 . S
O51 C67 1.284 . S
O52 Gd0 2.324 . S
O52 C75 1.254 . S
O53 Gd1 2.429 . S
O53 C75 1.268 . S
O54 Gd1 2.545 . S
O54 C67 1.250 . S
O55 Gd1 2.412 . S
O55 C68 1.252 . S
C56 O45 1.284 . S
C56 O48 1.250 . S
C57 H26 0.929 . S
C57 C42 1.437 . S
C57 C58 1.317 . S
C58 H29 0.930 . S
C58 C34 1.431 . S
C58 C57 1.317 . S
C59 Gd0 2.828 . S
C59 O44 1.258 . S
C59 O49 1.252 . S
C59 C60 1.497 . S
C60 C59 1.497 . S
C60 C61 1.395 . S
C60 C62 1.380 . S
C61 C60 1.395 . S
C61 C64 1.398 . S
C61 H76 0.930 . S
C62 C60 1.380 . S
C62 C63 1.391 . S
C62 H77 0.930 . S
C63 C62 1.391 . S
C63 C65 1.387 . S
C64 C61 1.398 . S
C64 C65 1.380 . S
C64 H78 0.930 . S
C65 C63 1.387 . S
C65 C64 1.380 . S
C65 H79 0.930 . S
C66 O46 1.254 . S
C66 O47 1.268 . S
C67 O51 1.284 . S
C67 O54 1.250 . S
C68 Gd1 2.828 . S
C68 O50 1.258 . S
C68 O55 1.252 . S
C68 C69 1.497 . S
C69 C68 1.497 . S
C69 C70 1.395 . S
C69 C71 1.380 . S
C70 C69 1.395 . S
C70 C73 1.398 . S
C70 H80 0.930 . S
C71 C69 1.380 . S
C71 C72 1.391 . S
C71 H81 0.930 . S
C72 C71 1.391 . S
C72 C74 1.387 . S
C73 C70 1.398 . S
C73 C74 1.380 . S
C73 H82 0.930 . S
C74 C72 1.387 . S
C74 C73 1.380 . S
C74 H83 0.930 . S
C75 O52 1.254 . S
C75 O53 1.268 . S
H76 C61 0.930 . S
H77 C62 0.930 . S
H78 C64 0.930 . S
H79 C65 0.930 . S
H80 C70 0.930 . S
H81 C71 0.930 . S
H82 C73 0.930 . S
H83 C74 0.930 . S
Gd84 N115 2.661 . S
Gd84 N121 2.601 . S
Gd84 O128 2.545 . S
Gd84 O129 2.606 . S
Gd84 O131 2.429 . S
Gd84 O132 2.545 . S
Gd84 O133 2.412 . S
Gd84 O135 2.362 . S
Gd84 O136 2.324 . S
Gd84 C143 2.828 . S
Gd85 N94 2.661 . S
Gd85 N98 2.601 . S
Gd85 O129 2.362 1_655 S
Gd85 O130 2.324 . S
Gd85 O134 2.545 . S
Gd85 O135 2.606 1_655 S
Gd85 O137 2.429 1_655 S
Gd85 O138 2.545 1_655 S
Gd85 O139 2.412 . S
Gd85 C152 2.828 . S
C86 C89 1.417 . S
C86 C91 1.431 . S
C86 C92 1.412 . S
C87 C90 1.437 . S
C87 C91 1.317 . S
C87 H106 0.929 . S
C88 C89 1.426 . S
C88 C90 1.413 . S
C88 N98 1.359 . S
C89 C86 1.417 . S
C89 C88 1.426 . S
C89 N94 1.350 . S
C90 C87 1.437 . S
C90 C88 1.413 . S
C90 C100 1.391 . S
C91 C86 1.431 . S
C91 C87 1.317 . S
C91 H102 0.930 . S
C92 C86 1.412 . S
C92 C93 1.355 . S
C92 H104 0.930 . S
C93 C92 1.355 . S
C93 C95 1.402 . S
C93 H105 0.930 . S
N94 Gd85 2.661 . S
N94 C89 1.350 . S
N94 C95 1.307 . S
C95 C93 1.402 . S
C95 N94 1.307 . S
C95 H96 0.930 . S
H96 C95 0.930 . S
C97 N98 1.334 . S
C97 C99 1.394 . S
C97 H101 0.930 1_655 S
N98 Gd85 2.601 . S
N98 C88 1.359 . S
N98 C97 1.334 . S
C99 C97 1.394 . S
C99 C100 1.359 . S
C99 H111 0.930 . S
C100 C90 1.391 . S
C100 C99 1.359 . S
C100 H112 0.929 . S
H101 C97 0.930 1_455 S
H102 C91 0.930 . S
H103 C120 0.930 . S
H104 C92 0.930 . S
H105 C93 0.930 . S
H106 C87 0.929 . S
H107 C125 0.930 . S
H108 C116 0.930 . S
H109 C117 0.930 . S
H110 C141 0.929 . S
H111 C99 0.930 . S
H112 C100 0.929 . S
H113 C142 0.930 . S
H114 C123 0.930 . S
N115 Gd84 2.661 . S
N115 C119 1.350 . S
N115 C120 1.307 . S
C116 H108 0.930 . S
C116 C117 1.355 . S
C116 C118 1.412 . S
C117 H109 0.930 . S
C117 C116 1.355 . S
C117 C120 1.402 . S
C118 C116 1.412 . S
C118 C119 1.417 . S
C118 C142 1.431 . S
C119 N115 1.350 . S
C119 C118 1.417 . S
C119 C122 1.426 . S
C120 H103 0.930 . S
C120 N115 1.307 . S
C120 C117 1.402 . S
N121 Gd84 2.601 . S
N121 C122 1.359 . S
N121 C125 1.334 . S
C122 C119 1.426 . S
C122 N121 1.359 . S
C122 C126 1.413 . S
C123 H114 0.930 . S
C123 C124 1.359 . S
C123 C125 1.394 . S
C124 C123 1.359 . S
C124 C126 1.391 . S
C124 H127 0.929 . S
C125 H107 0.930 . S
C125 N121 1.334 . S
C125 C123 1.394 . S
C126 C122 1.413 . S
C126 C124 1.391 . S
C126 C141 1.437 . S
H127 C124 0.929 . S
O128 Gd84 2.545 . S
O128 C143 1.258 . S
O129 Gd84 2.606 . S
O129 Gd85 2.362 1_455 S
O129 C140 1.284 . S
O130 Gd85 2.324 . S
O130 C150 1.254 . S
O131 Gd84 2.429 . S
O131 C150 1.268 1_455 S
O132 Gd84 2.545 . S
O132 C140 1.250 . S
O133 Gd84 2.412 . S
O133 C143 1.252 . S
O134 Gd85 2.545 . S
O134 C152 1.258 . S
O135 Gd84 2.362 . S
O135 Gd85 2.606 1_455 S
O135 C151 1.284 . S
O136 Gd84 2.324 . S
O136 C159 1.254 . S
O137 Gd85 2.429 1_455 S
O137 C159 1.268 . S
O138 Gd85 2.545 1_455 S
O138 C151 1.250 . S
O139 Gd85 2.412 . S
O139 C152 1.252 . S
C140 O129 1.284 . S
C140 O132 1.250 . S
C141 H110 0.929 . S
C141 C126 1.437 . S
C141 C142 1.317 . S
C142 H113 0.930 . S
C142 C118 1.431 . S
C142 C141 1.317 . S
C143 Gd84 2.828 . S
C143 O128 1.258 . S
C143 O133 1.252 . S
C143 C144 1.497 . S
C144 C143 1.497 . S
C144 C145 1.395 . S
C144 C146 1.380 . S
C145 C144 1.395 . S
C145 C148 1.398 . S
C145 H160 0.930 . S
C146 C144 1.380 . S
C146 C147 1.391 . S
C146 H161 0.930 . S
C147 C146 1.391 . S
C147 C149 1.387 . S
C148 C145 1.398 . S
C148 C149 1.380 . S
C148 H162 0.930 . S
C149 C147 1.387 . S
C149 C148 1.380 . S
C149 H163 0.930 . S
C150 O130 1.254 . S
C150 O131 1.268 1_655 S
C151 O135 1.284 . S
C151 O138 1.250 . S
C152 Gd85 2.828 . S
C152 O134 1.258 . S
C152 O139 1.252 . S
C152 C153 1.497 . S
C153 C152 1.497 . S
C153 C154 1.395 . S
C153 C155 1.380 . S
C154 C153 1.395 . S
C154 C157 1.398 . S
C154 H164 0.930 . S
C155 C153 1.380 . S
C155 C156 1.391 . S
C155 H165 0.930 . S
C156 C155 1.391 . S
C156 C158 1.387 . S
C157 C154 1.398 . S
C157 C158 1.380 . S
C157 H166 0.930 . S
C158 C156 1.387 . S
C158 C157 1.380 . S
C158 H167 0.930 . S
C159 O136 1.254 . S
C159 O137 1.268 . S
H160 C145 0.930 . S
H161 C146 0.930 . S
H162 C148 0.930 . S
H163 C149 0.930 . S
H164 C154 0.930 . S
H165 C155 0.930 . S
H166 C157 0.930 . S
H167 C158 0.930 . S
Gd168 N199 2.661 1_554 S
Gd168 N205 2.601 . S
Gd168 O212 2.545 . S
Gd168 O213 2.605 . S
Gd168 O215 2.429 . S
Gd168 O216 2.545 . S
Gd168 O217 2.412 . S
Gd168 O219 2.362 1_554 S
Gd168 O220 2.324 1_554 S
Gd168 C227 2.828 . S
Gd169 N178 2.661 . S
Gd169 N182 2.601 . S
Gd169 O213 2.367 1_556 S
Gd169 O214 2.324 . S
Gd169 O218 2.545 . S
Gd169 O219 2.606 . S
Gd169 O221 2.429 . S
Gd169 O222 2.545 . S
Gd169 O223 2.412 . S
Gd169 C236 2.828 . S
C170 C173 1.417 . S
C170 C175 1.431 . S
C170 C176 1.412 1_556 S
C171 C174 1.437 . S
C171 C175 1.317 . S
C171 H190 0.929 . S
C172 C173 1.426 . S
C172 C174 1.413 . S
C172 N182 1.359 . S
C173 C170 1.417 . S
C173 C172 1.426 . S
C173 N178 1.350 . S
C174 C171 1.437 . S
C174 C172 1.413 . S
C174 C184 1.391 . S
C175 C170 1.431 . S
C175 C171 1.317 . S
C175 H186 0.930 . S
C176 C170 1.412 1_554 S
C176 C177 1.355 . S
C176 H188 0.930 . S
C177 C176 1.355 . S
C177 C179 1.402 . S
C177 H189 0.930 . S
N178 Gd169 2.661 . S
N178 C173 1.350 . S
N178 C179 1.307 1_556 S
C179 C177 1.402 . S
C179 N178 1.307 1_554 S
C179 H180 0.930 . S
H180 C179 0.930 . S
C181 N182 1.334 . S
C181 C183 1.394 . S
C181 H185 0.930 . S
N182 Gd169 2.601 . S
N182 C172 1.359 . S
N182 C181 1.334 . S
C183 C181 1.394 . S
C183 C184 1.359 . S
C183 H195 0.930 . S
C184 C174 1.391 . S
C184 C183 1.359 . S
C184 H196 0.929 . S
H185 C181 0.930 . S
H186 C175 0.930 . S
H187 C204 0.930 . S
H188 C176 0.930 . S
H189 C177 0.930 . S
H190 C171 0.929 . S
H191 C209 0.930 . S
H192 C200 0.930 . S
H193 C201 0.930 . S
H194 C225 0.929 . S
H195 C183 0.930 . S
H196 C184 0.929 . S
H197 C226 0.930 . S
H198 C207 0.930 . S
N199 Gd168 2.661 1_556 S
N199 C203 1.350 . S
N199 C204 1.307 . S
C200 H192 0.930 . S
C200 C201 1.355 . S
C200 C202 1.412 . S
C201 H193 0.930 . S
C201 C200 1.355 . S
C201 C204 1.402 . S
C202 C200 1.412 . S
C202 C203 1.417 . S
C202 C226 1.431 . S
C203 N199 1.350 . S
C203 C202 1.417 . S
C203 C206 1.426 1_556 S
C204 H187 0.930 . S
C204 N199 1.307 . S
C204 C201 1.402 . S
N205 Gd168 2.601 . S
N205 C206 1.359 . S
N205 C209 1.334 . S
C206 C203 1.426 1_554 S
C206 N205 1.359 . S
C206 C210 1.413 . S
C207 H198 0.930 . S
C207 C208 1.359 . S
C207 C209 1.394 . S
C208 C207 1.359 . S
C208 C210 1.391 . S
C208 H211 0.929 . S
C209 H191 0.930 . S
C209 N205 1.334 . S
C209 C207 1.394 . S
C210 C206 1.413 . S
C210 C208 1.391 . S
C210 C225 1.437 . S
H211 C208 0.929 . S
O212 Gd168 2.545 . S
O212 C227 1.258 . S
O213 Gd168 2.605 . S
O213 Gd169 2.367 1_554 S
O213 C224 1.280 . S
O214 Gd169 2.324 . S
O214 C234 1.254 1_556 S
O215 Gd168 2.429 . S
O215 C234 1.268 . S
O216 Gd168 2.545 . S
O216 C224 1.250 . S
O217 Gd168 2.412 . S
O217 C227 1.252 . S
O218 Gd169 2.545 . S
O218 C236 1.258 . S
O219 Gd168 2.362 1_556 S
O219 Gd169 2.606 . S
O219 C235 1.284 . S
O220 Gd168 2.324 1_556 S
O220 C243 1.254 . S
O221 Gd169 2.429 . S
O221 C243 1.268 . S
O222 Gd169 2.545 . S
O222 C235 1.250 . S
O223 Gd169 2.412 . S
O223 C236 1.252 . S
C224 O213 1.280 . S
C224 O216 1.250 . S
C225 H194 0.929 . S
C225 C210 1.437 . S
C225 C226 1.317 1_554 S
C226 H197 0.930 . S
C226 C202 1.431 . S
C226 C225 1.317 1_556 S
C227 Gd168 2.828 . S
C227 O212 1.258 . S
C227 O217 1.252 . S
C227 C228 1.497 . S
C228 C227 1.497 . S
C228 C229 1.395 . S
C228 C230 1.380 . S
C229 C228 1.395 . S
C229 C232 1.398 . S
C229 H244 0.930 . S
C230 C228 1.380 . S
C230 C231 1.391 . S
C230 H245 0.930 . S
C231 C230 1.391 . S
C231 C233 1.387 . S
C232 C229 1.398 . S
C232 C233 1.380 . S
C232 H246 0.930 . S
C233 C231 1.387 . S
C233 C232 1.380 . S
C233 H247 0.930 . S
C234 O214 1.254 1_554 S
C234 O215 1.268 . S
C235 O219 1.284 . S
C235 O222 1.250 . S
C236 Gd169 2.828 . S
C236 O218 1.258 . S
C236 O223 1.252 . S
C236 C237 1.497 . S
C237 C236 1.497 . S
C237 C238 1.395 . S
C237 C239 1.380 . S
C238 C237 1.395 . S
C238 C241 1.398 . S
C238 H248 0.930 . S
C239 C237 1.380 . S
C239 C240 1.391 . S
C239 H249 0.930 . S
C240 C239 1.391 . S
C240 C242 1.387 . S
C241 C238 1.398 . S
C241 C242 1.380 . S
C241 H250 0.930 . S
C242 C240 1.387 . S
C242 C241 1.380 . S
C242 H251 0.930 . S
C243 O220 1.254 . S
C243 O221 1.268 . S
H244 C229 0.930 . S
H245 C230 0.930 . S
H246 C232 0.930 . S
H247 C233 0.930 . S
H248 C238 0.930 . S
H249 C239 0.930 . S
H250 C241 0.930 . S
H251 C242 0.930 . S
Gd252 N283 2.661 . S
Gd252 N289 2.601 . S
Gd252 O296 2.545 . S
Gd252 O297 2.606 . S
Gd252 O299 2.429 . S
Gd252 O300 2.545 . S
Gd252 O301 2.412 . S
Gd252 O303 2.362 . S
Gd252 O304 2.324 . S
Gd252 C311 2.828 . S
Gd253 N262 2.661 . S
Gd253 N266 2.601 . S
Gd253 O297 2.362 . S
Gd253 O298 2.324 . S
Gd253 O302 2.545 . S
Gd253 O303 2.606 . S
Gd253 O305 2.429 . S
Gd253 O306 2.545 . S
Gd253 O307 2.412 . S
Gd253 C320 2.828 . S
C254 C257 1.417 . S
C254 C259 1.431 . S
C254 C260 1.412 . S
C255 C258 1.437 . S
C255 C259 1.317 . S
C255 H274 0.929 . S
C256 C257 1.426 . S
C256 C258 1.413 . S
C256 N266 1.359 . S
C257 C254 1.417 . S
C257 C256 1.426 . S
C257 N262 1.350 . S
C258 C255 1.437 . S
C258 C256 1.413 . S
C258 C268 1.391 . S
C259 C254 1.431 . S
C259 C255 1.317 . S
C259 H270 0.930 . S
C260 C254 1.412 . S
C260 C261 1.355 . S
C260 H272 0.930 . S
C261 C260 1.355 . S
C261 C263 1.402 . S
C261 H273 0.930 . S
N262 Gd253 2.661 . S
N262 C257 1.350 . S
N262 C263 1.307 . S
C263 C261 1.402 . S
C263 N262 1.307 . S
C263 H264 0.930 . S
H264 C263 0.930 . S
C265 N266 1.334 . S
C265 C267 1.394 . S
C265 H269 0.930 . S
N266 Gd253 2.601 . S
N266 C256 1.359 . S
N266 C265 1.334 . S
C267 C265 1.394 . S
C267 C268 1.359 . S
C267 H279 0.930 . S
C268 C258 1.391 . S
C268 C267 1.359 . S
C268 H280 0.929 . S
H269 C265 0.930 . S
H270 C259 0.930 . S
H271 C288 0.930 . S
H272 C260 0.930 . S
H273 C261 0.930 . S
H274 C255 0.929 . S
H275 C293 0.930 . S
H276 C284 0.930 . S
H277 C285 0.930 . S
H278 C309 0.929 . S
H279 C267 0.930 . S
H280 C268 0.929 . S
H281 C310 0.930 . S
H282 C291 0.930 . S
N283 Gd252 2.661 . S
N283 C287 1.350 . S
N283 C288 1.307 . S
C284 H276 0.930 . S
C284 C285 1.355 . S
C284 C286 1.412 . S
C285 H277 0.930 . S
C285 C284 1.355 . S
C285 C288 1.402 . S
C286 C284 1.412 . S
C286 C287 1.417 . S
C286 C310 1.431 . S
C287 N283 1.350 . S
C287 C286 1.417 . S
C287 C290 1.426 . S
C288 H271 0.930 . S
C288 N283 1.307 . S
C288 C285 1.402 . S
N289 Gd252 2.601 . S
N289 C290 1.359 . S
N289 C293 1.334 . S
C290 C287 1.426 . S
C290 N289 1.359 . S
C290 C294 1.413 . S
C291 H282 0.930 . S
C291 C292 1.359 . S
C291 C293 1.394 . S
C292 C291 1.359 . S
C292 C294 1.391 . S
C292 H295 0.929 . S
C293 H275 0.930 . S
C293 N289 1.334 . S
C293 C291 1.394 . S
C294 C290 1.413 . S
C294 C292 1.391 . S
C294 C309 1.437 . S
H295 C292 0.929 . S
O296 Gd252 2.545 . S
O296 C311 1.258 . S
O297 Gd252 2.606 . S
O297 Gd253 2.362 . S
O297 C308 1.284 . S
O298 Gd253 2.324 . S
O298 C318 1.254 . S
O299 Gd252 2.429 . S
O299 C318 1.268 . S
O300 Gd252 2.545 . S
O300 C308 1.250 . S
O301 Gd252 2.412 . S
O301 C311 1.252 . S
O302 Gd253 2.545 . S
O302 C320 1.258 . S
O303 Gd252 2.362 . S
O303 Gd253 2.606 . S
O303 C319 1.284 . S
O304 Gd252 2.324 . S
O304 C327 1.254 . S
O305 Gd253 2.429 . S
O305 C327 1.268 . S
O306 Gd253 2.545 . S
O306 C319 1.250 . S
O307 Gd253 2.412 . S
O307 C320 1.252 . S
C308 O297 1.284 . S
C308 O300 1.250 . S
C309 H278 0.929 . S
C309 C294 1.437 . S
C309 C310 1.317 . S
C310 H281 0.930 . S
C310 C286 1.431 . S
C310 C309 1.317 . S
C311 Gd252 2.828 . S
C311 O296 1.258 . S
C311 O301 1.252 . S
C311 C312 1.497 . S
C312 C311 1.497 . S
C312 C313 1.395 . S
C312 C314 1.380 . S
C313 C312 1.395 . S
C313 C316 1.398 . S
C313 H328 0.930 . S
C314 C312 1.380 . S
C314 C315 1.391 . S
C314 H329 0.930 . S
C315 C314 1.391 . S
C315 C317 1.387 . S
C316 C313 1.398 . S
C316 C317 1.380 . S
C316 H330 0.930 . S
C317 C315 1.387 . S
C317 C316 1.380 . S
C317 H331 0.930 . S
C318 O298 1.254 . S
C318 O299 1.268 . S
C319 O303 1.284 . S
C319 O306 1.250 . S
C320 Gd253 2.828 . S
C320 O302 1.258 . S
C320 O307 1.252 . S
C320 C321 1.497 . S
C321 C320 1.497 . S
C321 C322 1.395 . S
C321 C323 1.380 . S
C322 C321 1.395 . S
C322 C325 1.398 . S
C322 H332 0.930 . S
C323 C321 1.380 . S
C323 C324 1.391 . S
C323 H333 0.930 . S
C324 C323 1.391 . S
C324 C326 1.387 . S
C325 C322 1.398 . S
C325 C326 1.380 . S
C325 H334 0.930 . S
C326 C324 1.387 . S
C326 C325 1.380 . S
C326 H335 0.930 . S
C327 O304 1.254 . S
C327 O305 1.268 . S
H328 C313 0.930 . S
H329 C314 0.930 . S
H330 C316 0.930 . S
H331 C317 0.930 . S
H332 C322 0.930 . S
H333 C323 0.930 . S
H334 C325 0.930 . S
H335 C326 0.930 . S
Gd336 N367 2.661 . S
Gd336 N373 2.601 . S
Gd336 O380 2.545 . S
Gd336 O381 2.606 . S
Gd336 O383 2.429 . S
Gd336 O384 2.545 . S
Gd336 O385 2.412 . S
Gd336 O387 2.362 . S
Gd336 O388 2.324 . S
Gd336 C395 2.828 . S
Gd337 N346 2.661 . S
Gd337 N350 2.601 . S
Gd337 O381 2.362 . S
Gd337 O382 2.324 . S
Gd337 O386 2.545 . S
Gd337 O387 2.606 . S
Gd337 O389 2.429 . S
Gd337 O390 2.545 . S
Gd337 O391 2.412 . S
Gd337 C404 2.828 . S
C338 C341 1.417 . S
C338 C343 1.431 . S
C338 C344 1.412 . S
C339 C342 1.437 . S
C339 C343 1.317 . S
C339 H358 0.929 . S
C340 C341 1.426 . S
C340 C342 1.413 . S
C340 N350 1.359 . S
C341 C338 1.417 . S
C341 C340 1.426 . S
C341 N346 1.350 . S
C342 C339 1.437 . S
C342 C340 1.413 . S
C342 C352 1.391 . S
C343 C338 1.431 . S
C343 C339 1.317 . S
C343 H354 0.930 . S
C344 C338 1.412 . S
C344 C345 1.355 . S
C344 H356 0.930 . S
C345 C344 1.355 . S
C345 C347 1.402 . S
C345 H357 0.930 . S
N346 Gd337 2.661 . S
N346 C341 1.350 . S
N346 C347 1.307 . S
C347 C345 1.402 . S
C347 N346 1.307 . S
C347 H348 0.930 . S
H348 C347 0.930 . S
C349 N350 1.334 . S
C349 C351 1.394 . S
C349 H353 0.930 . S
N350 Gd337 2.601 . S
N350 C340 1.359 . S
N350 C349 1.334 . S
C351 C349 1.394 . S
C351 C352 1.359 . S
C351 H363 0.930 . S
C352 C342 1.391 . S
C352 C351 1.359 . S
C352 H364 0.929 . S
H353 C349 0.930 . S
H354 C343 0.930 . S
H355 C372 0.930 . S
H356 C344 0.930 . S
H357 C345 0.930 . S
H358 C339 0.929 . S
H359 C377 0.930 . S
H360 C368 0.930 . S
H361 C369 0.930 . S
H362 C393 0.929 . S
H363 C351 0.930 . S
H364 C352 0.929 . S
H365 C394 0.930 . S
H366 C375 0.930 . S
N367 Gd336 2.661 . S
N367 C371 1.350 . S
N367 C372 1.307 . S
C368 H360 0.930 . S
C368 C369 1.355 . S
C368 C370 1.412 . S
C369 H361 0.930 . S
C369 C368 1.355 . S
C369 C372 1.402 . S
C370 C368 1.412 . S
C370 C371 1.417 . S
C370 C394 1.431 . S
C371 N367 1.350 . S
C371 C370 1.417 . S
C371 C374 1.426 . S
C372 H355 0.930 . S
C372 N367 1.307 . S
C372 C369 1.402 . S
N373 Gd336 2.601 . S
N373 C374 1.359 . S
N373 C377 1.334 . S
C374 C371 1.426 . S
C374 N373 1.359 . S
C374 C378 1.413 . S
C375 H366 0.930 . S
C375 C376 1.359 . S
C375 C377 1.394 . S
C376 C375 1.359 . S
C376 C378 1.391 . S
C376 H379 0.929 . S
C377 H359 0.930 . S
C377 N373 1.334 . S
C377 C375 1.394 . S
C378 C374 1.413 . S
C378 C376 1.391 . S
C378 C393 1.437 . S
H379 C376 0.929 . S
O380 Gd336 2.545 . S
O380 C395 1.258 . S
O381 Gd336 2.606 . S
O381 Gd337 2.362 . S
O381 C392 1.284 . S
O382 Gd337 2.324 . S
O382 C402 1.254 . S
O383 Gd336 2.429 . S
O383 C402 1.268 . S
O384 Gd336 2.545 . S
O384 C392 1.250 . S
O385 Gd336 2.412 . S
O385 C395 1.252 . S
O386 Gd337 2.545 . S
O386 C404 1.258 . S
O387 Gd336 2.362 . S
O387 Gd337 2.606 . S
O387 C403 1.284 . S
O388 Gd336 2.324 . S
O388 C411 1.254 . S
O389 Gd337 2.429 . S
O389 C411 1.268 . S
O390 Gd337 2.545 . S
O390 C403 1.250 . S
O391 Gd337 2.412 . S
O391 C404 1.252 . S
C392 O381 1.284 . S
C392 O384 1.250 . S
C393 H362 0.929 . S
C393 C378 1.437 . S
C393 C394 1.317 . S
C394 H365 0.930 . S
C394 C370 1.431 . S
C394 C393 1.317 . S
C395 Gd336 2.828 . S
C395 O380 1.258 . S
C395 O385 1.252 . S
C395 C396 1.497 . S
C396 C395 1.497 . S
C396 C397 1.395 . S
C396 C398 1.380 . S
C397 C396 1.395 . S
C397 C400 1.398 . S
C397 H412 0.930 . S
C398 C396 1.380 . S
C398 C399 1.391 . S
C398 H413 0.930 . S
C399 C398 1.391 . S
C399 C401 1.387 . S
C400 C397 1.398 . S
C400 C401 1.380 . S
C400 H414 0.930 . S
C401 C399 1.387 . S
C401 C400 1.380 . S
C401 H415 0.930 . S
C402 O382 1.254 . S
C402 O383 1.268 . S
C403 O387 1.284 . S
C403 O390 1.250 . S
C404 Gd337 2.828 . S
C404 O386 1.258 . S
C404 O391 1.252 . S
C404 C405 1.497 . S
C405 C404 1.497 . S
C405 C406 1.395 . S
C405 C407 1.380 . S
C406 C405 1.395 . S
C406 C409 1.398 . S
C406 H416 0.930 . S
C407 C405 1.380 . S
C407 C408 1.391 . S
C407 H417 0.930 . S
C408 C407 1.391 . S
C408 C410 1.387 . S
C409 C406 1.398 . S
C409 C410 1.380 . S
C409 H418 0.930 . S
C410 C408 1.387 . S
C410 C409 1.380 . S
C410 H419 0.930 . S
C411 O388 1.254 . S
C411 O389 1.268 . S
H412 C397 0.930 . S
H413 C398 0.930 . S
H414 C400 0.930 . S
H415 C401 0.930 . S
H416 C406 0.930 . S
H417 C407 0.930 . S
H418 C409 0.930 . S
H419 C410 0.930 . S
Gd420 N451 2.661 1_455 S
Gd420 N457 2.601 . S
Gd420 O464 2.545 . S
Gd420 O465 2.609 . S
Gd420 O467 2.429 . S
Gd420 O468 2.545 . S
Gd420 O469 2.412 . S
Gd420 O471 2.362 1_455 S
Gd420 O472 2.324 1_455 S
Gd420 C479 2.828 . S
Gd421 N430 2.661 . S
Gd421 N434 2.601 . S
Gd421 O465 2.349 1_655 S
Gd421 O466 2.324 . S
Gd421 O470 2.545 . S
Gd421 O471 2.606 . S
Gd421 O473 2.429 . S
Gd421 O474 2.545 . S
Gd421 O475 2.412 . S
Gd421 C488 2.828 . S
C422 C425 1.417 . S
C422 C427 1.431 . S
C422 C428 1.412 1_655 S
C423 C426 1.437 . S
C423 C427 1.317 . S
C423 H442 0.929 . S
C424 C425 1.426 . S
C424 C426 1.413 . S
C424 N434 1.359 . S
C425 C422 1.417 . S
C425 C424 1.426 . S
C425 N430 1.350 . S
C426 C423 1.437 . S
C426 C424 1.413 . S
C426 C436 1.391 . S
C427 C422 1.431 . S
C427 C423 1.317 . S
C427 H438 0.930 . S
C428 C422 1.412 1_455 S
C428 C429 1.355 . S
C428 H440 0.930 . S
C429 C428 1.355 . S
C429 C431 1.402 . S
C429 H441 0.930 . S
N430 Gd421 2.661 . S
N430 C425 1.350 . S
N430 C431 1.307 1_655 S
C431 C429 1.402 . S
C431 N430 1.307 1_455 S
C431 H432 0.930 . S
H432 C431 0.930 . S
C433 N434 1.334 . S
C433 C435 1.394 . S
C433 H437 0.930 . S
N434 Gd421 2.601 . S
N434 C424 1.359 . S
N434 C433 1.334 . S
C435 C433 1.394 . S
C435 C436 1.359 . S
C435 H447 0.930 . S
C436 C426 1.391 . S
C436 C435 1.359 . S
C436 H448 0.929 . S
H437 C433 0.930 . S
H438 C427 0.930 . S
H439 C456 0.930 . S
H440 C428 0.930 . S
H441 C429 0.930 . S
H442 C423 0.929 . S
H443 C461 0.930 . S
H444 C452 0.930 . S
H445 C453 0.930 . S
H446 C477 0.929 . S
H447 C435 0.930 . S
H448 C436 0.929 . S
H449 C478 0.930 . S
H450 C459 0.930 . S
N451 Gd420 2.661 1_655 S
N451 C455 1.350 . S
N451 C456 1.307 . S
C452 H444 0.930 . S
C452 C453 1.355 . S
C452 C454 1.412 . S
C453 H445 0.930 . S
C453 C452 1.355 . S
C453 C456 1.402 . S
C454 C452 1.412 . S
C454 C455 1.417 . S
C454 C478 1.431 . S
C455 N451 1.350 . S
C455 C454 1.417 . S
C455 C458 1.426 1_655 S
C456 H439 0.930 . S
C456 N451 1.307 . S
C456 C453 1.402 . S
N457 Gd420 2.601 . S
N457 C458 1.359 . S
N457 C461 1.334 . S
C458 C455 1.426 1_455 S
C458 N457 1.359 . S
C458 C462 1.413 . S
C459 H450 0.930 . S
C459 C460 1.359 . S
C459 C461 1.394 . S
C460 C459 1.359 . S
C460 C462 1.391 . S
C460 H463 0.929 . S
C461 H443 0.930 . S
C461 N457 1.334 . S
C461 C459 1.394 . S
C462 C458 1.413 . S
C462 C460 1.391 . S
C462 C477 1.437 . S
H463 C460 0.929 . S
O464 Gd420 2.545 . S
O464 C479 1.258 . S
O465 Gd420 2.609 . S
O465 Gd421 2.349 1_455 S
O465 C476 1.297 . S
O466 Gd421 2.324 . S
O466 C486 1.254 1_655 S
O467 Gd420 2.429 . S
O467 C486 1.268 . S
O468 Gd420 2.545 . S
O468 C476 1.250 . S
O469 Gd420 2.412 . S
O469 C479 1.252 . S
O470 Gd421 2.545 . S
O470 C488 1.258 . S
O471 Gd420 2.362 1_655 S
O471 Gd421 2.606 . S
O471 C487 1.284 . S
O472 Gd420 2.324 1_655 S
O472 C495 1.254 . S
O473 Gd421 2.429 . S
O473 C495 1.268 . S
O474 Gd421 2.545 . S
O474 C487 1.250 . S
O475 Gd421 2.412 . S
O475 C488 1.252 . S
C476 O465 1.297 . S
C476 O468 1.250 . S
C477 H446 0.929 . S
C477 C462 1.437 . S
C477 C478 1.317 1_455 S
C478 H449 0.930 . S
C478 C454 1.431 . S
C478 C477 1.317 1_655 S
C479 Gd420 2.828 . S
C479 O464 1.258 . S
C479 O469 1.252 . S
C479 C480 1.497 . S
C480 C479 1.497 . S
C480 C481 1.395 . S
C480 C482 1.380 . S
C481 C480 1.395 . S
C481 C484 1.398 . S
C481 H496 0.930 . S
C482 C480 1.380 . S
C482 C483 1.391 . S
C482 H497 0.930 . S
C483 C482 1.391 . S
C483 C485 1.387 . S
C484 C481 1.398 . S
C484 C485 1.380 . S
C484 H498 0.930 . S
C485 C483 1.387 . S
C485 C484 1.380 . S
C485 H499 0.930 . S
C486 O466 1.254 1_455 S
C486 O467 1.268 . S
C487 O471 1.284 . S
C487 O474 1.250 . S
C488 Gd421 2.828 . S
C488 O470 1.258 . S
C488 O475 1.252 . S
C488 C489 1.497 . S
C489 C488 1.497 . S
C489 C490 1.395 . S
C489 C491 1.380 . S
C490 C489 1.395 . S
C490 C493 1.398 . S
C490 H500 0.930 . S
C491 C489 1.380 . S
C491 C492 1.391 . S
C491 H501 0.930 . S
C492 C491 1.391 . S
C492 C494 1.387 . S
C493 C490 1.398 . S
C493 C494 1.380 . S
C493 H502 0.930 . S
C494 C492 1.387 . S
C494 C493 1.380 . S
C494 H503 0.930 . S
C495 O472 1.254 . S
C495 O473 1.268 . S
H496 C481 0.930 . S
H497 C482 0.930 . S
H498 C484 0.930 . S
H499 C485 0.930 . S
H500 C490 0.930 . S
H501 C491 0.930 . S
H502 C493 0.930 . S
H503 C494 0.930 . S
Gd504 N535 2.661 1_556 S
Gd504 N541 2.601 . S
Gd504 O548 2.545 . S
Gd504 O549 2.606 1_556 S
Gd504 O551 2.429 . S
Gd504 O552 2.545 . S
Gd504 O553 2.412 . S
Gd504 O555 2.362 1_556 S
Gd504 O556 2.324 1_556 S
Gd504 C563 2.828 . S
Gd505 N514 2.661 . S
Gd505 N518 2.601 . S
Gd505 O549 2.362 . S
Gd505 O550 2.324 . S
Gd505 O554 2.545 . S
Gd505 O555 2.606 . S
Gd505 O557 2.429 . S
Gd505 O558 2.545 . S
Gd505 O559 2.412 . S
Gd505 C572 2.828 . S
C506 C509 1.417 . S
C506 C511 1.431 . S
C506 C512 1.412 1_554 S
C507 C510 1.437 . S
C507 C511 1.317 . S
C507 H526 0.929 . S
C508 C509 1.426 . S
C508 C510 1.413 . S
C508 N518 1.359 . S
C509 C506 1.417 . S
C509 C508 1.426 . S
C509 N514 1.350 . S
C510 C507 1.437 . S
C510 C508 1.413 . S
C510 C520 1.391 . S
C511 C506 1.431 . S
C511 C507 1.317 . S
C511 H522 0.930 . S
C512 C506 1.412 1_556 S
C512 C513 1.355 . S
C512 H524 0.930 . S
C513 C512 1.355 . S
C513 C515 1.402 . S
C513 H525 0.930 . S
N514 Gd505 2.661 . S
N514 C509 1.350 . S
N514 C515 1.307 1_554 S
C515 C513 1.402 . S
C515 N514 1.307 1_556 S
C515 H516 0.930 . S
H516 C515 0.930 . S
C517 N518 1.334 . S
C517 C519 1.394 . S
C517 H521 0.930 . S
N518 Gd505 2.601 . S
N518 C508 1.359 . S
N518 C517 1.334 . S
C519 C517 1.394 . S
C519 C520 1.359 . S
C519 H531 0.930 . S
C520 C510 1.391 . S
C520 C519 1.359 . S
C520 H532 0.929 . S
H521 C517 0.930 . S
H522 C511 0.930 . S
H523 C540 0.930 . S
H524 C512 0.930 . S
H525 C513 0.930 . S
H526 C507 0.929 . S
H527 C545 0.930 . S
H528 C536 0.930 . S
H529 C537 0.930 . S
H530 C561 0.919 1_556 S
H531 C519 0.930 . S
H532 C520 0.929 . S
H533 C562 0.930 . S
H534 C543 0.930 . S
N535 Gd504 2.661 1_554 S
N535 C539 1.350 . S
N535 C540 1.307 . S
C536 H528 0.930 . S
C536 C537 1.355 . S
C536 C538 1.412 . S
C537 H529 0.930 . S
C537 C536 1.355 . S
C537 C540 1.402 . S
C538 C536 1.412 . S
C538 C539 1.417 . S
C538 C562 1.431 . S
C539 N535 1.350 . S
C539 C538 1.417 . S
C539 C542 1.426 1_554 S
C540 H523 0.930 . S
C540 N535 1.307 . S
C540 C537 1.402 . S
N541 Gd504 2.601 . S
N541 C542 1.359 . S
N541 C545 1.334 . S
C542 C539 1.426 1_556 S
C542 N541 1.359 . S
C542 C546 1.413 . S
C543 H534 0.930 . S
C543 C544 1.359 . S
C543 C545 1.394 . S
C544 C543 1.359 . S
C544 C546 1.391 . S
C544 H547 0.929 . S
C545 H527 0.930 . S
C545 N541 1.334 . S
C545 C543 1.394 . S
C546 C542 1.413 . S
C546 C544 1.391 . S
C546 C561 1.416 1_556 S
H547 C544 0.929 . S
O548 Gd504 2.545 . S
O548 C563 1.258 . S
O549 Gd504 2.606 1_554 S
O549 Gd505 2.362 . S
O549 C560 1.284 1_554 S
O550 Gd505 2.324 . S
O550 C570 1.254 . S
O551 Gd504 2.429 . S
O551 C570 1.268 1_556 S
O552 Gd504 2.545 . S
O552 C560 1.250 . S
O553 Gd504 2.412 . S
O553 C563 1.252 . S
O554 Gd505 2.545 . S
O554 C572 1.258 . S
O555 Gd504 2.362 1_554 S
O555 Gd505 2.606 . S
O555 C571 1.284 . S
O556 Gd504 2.324 1_554 S
O556 C579 1.254 . S
O557 Gd505 2.429 . S
O557 C579 1.268 . S
O558 Gd505 2.545 . S
O558 C571 1.250 . S
O559 Gd505 2.412 . S
O559 C572 1.252 . S
C560 O549 1.284 1_556 S
C560 O552 1.250 . S
C561 H530 0.919 1_554 S
C561 C546 1.416 1_554 S
C561 C562 1.349 . S
C562 H533 0.930 . S
C562 C538 1.431 . S
C562 C561 1.349 . S
C563 Gd504 2.828 . S
C563 O548 1.258 . S
C563 O553 1.252 . S
C563 C564 1.497 . S
C564 C563 1.497 . S
C564 C565 1.395 . S
C564 C566 1.380 . S
C565 C564 1.395 . S
C565 C568 1.398 . S
C565 H580 0.930 . S
C566 C564 1.380 . S
C566 C567 1.391 . S
C566 H581 0.930 . S
C567 C566 1.391 . S
C567 C569 1.387 . S
C568 C565 1.398 . S
C568 C569 1.380 . S
C568 H582 0.930 . S
C569 C567 1.387 . S
C569 C568 1.380 . S
C569 H583 0.930 . S
C570 O550 1.254 . S
C570 O551 1.268 1_554 S
C571 O555 1.284 . S
C571 O558 1.250 . S
C572 Gd505 2.828 . S
C572 O554 1.258 . S
C572 O559 1.252 . S
C572 C573 1.497 . S
C573 C572 1.497 . S
C573 C574 1.395 . S
C573 C575 1.380 . S
C574 C573 1.395 . S
C574 C577 1.398 . S
C574 H584 0.930 . S
C575 C573 1.380 . S
C575 C576 1.391 . S
C575 H585 0.930 . S
C576 C575 1.391 . S
C576 C578 1.387 . S
C577 C574 1.398 . S
C577 C578 1.380 . S
C577 H586 0.930 . S
C578 C576 1.387 . S
C578 C577 1.380 . S
C578 H587 0.930 . S
C579 O556 1.254 . S
C579 O557 1.268 . S
H580 C565 0.930 . S
H581 C566 0.930 . S
H582 C568 0.930 . S
H583 C569 0.930 . S
H584 C574 0.930 . S
H585 C575 0.930 . S
H586 C577 0.930 . S
H587 C578 0.930 . S
Gd588 N619 2.661 . S
Gd588 N625 2.601 . S
Gd588 O632 2.545 . S
Gd588 O633 2.606 . S
Gd588 O635 2.429 . S
Gd588 O636 2.545 . S
Gd588 O637 2.412 . S
Gd588 O639 2.362 . S
Gd588 O640 2.324 . S
Gd588 C647 2.828 . S
Gd589 N598 2.661 . S
Gd589 N602 2.601 . S
Gd589 O633 2.362 . S
Gd589 O634 2.324 . S
Gd589 O638 2.545 . S
Gd589 O639 2.606 . S
Gd589 O641 2.429 . S
Gd589 O642 2.545 . S
Gd589 O643 2.412 . S
Gd589 C656 2.828 . S
C590 C593 1.417 . S
C590 C595 1.431 . S
C590 C596 1.412 . S
C591 C594 1.437 . S
C591 C595 1.317 . S
C591 H610 0.929 . S
C592 C593 1.426 . S
C592 C594 1.413 . S
C592 N602 1.359 . S
C593 C590 1.417 . S
C593 C592 1.426 . S
C593 N598 1.350 . S
C594 C591 1.437 . S
C594 C592 1.413 . S
C594 C604 1.391 . S
C595 C590 1.431 . S
C595 C591 1.317 . S
C595 H606 0.930 . S
C596 C590 1.412 . S
C596 C597 1.355 . S
C596 H608 0.930 . S
C597 C596 1.355 . S
C597 C599 1.402 . S
C597 H609 0.930 . S
N598 Gd589 2.661 . S
N598 C593 1.350 . S
N598 C599 1.307 . S
C599 C597 1.402 . S
C599 N598 1.307 . S
C599 H600 0.930 . S
H600 C599 0.930 . S
C601 N602 1.334 . S
C601 C603 1.394 . S
C601 H605 0.930 . S
N602 Gd589 2.601 . S
N602 C592 1.359 . S
N602 C601 1.334 . S
C603 C601 1.394 . S
C603 C604 1.359 . S
C603 H615 0.930 . S
C604 C594 1.391 . S
C604 C603 1.359 . S
C604 H616 0.929 . S
H605 C601 0.930 . S
H606 C595 0.930 . S
H607 C624 0.930 . S
H608 C596 0.930 . S
H609 C597 0.930 . S
H610 C591 0.929 . S
H611 C629 0.930 . S
H612 C620 0.930 . S
H613 C621 0.930 . S
H614 C645 0.929 . S
H615 C603 0.930 . S
H616 C604 0.929 . S
H617 C646 0.930 . S
H618 C627 0.930 . S
N619 Gd588 2.661 . S
N619 C623 1.350 . S
N619 C624 1.307 . S
C620 H612 0.930 . S
C620 C621 1.355 . S
C620 C622 1.412 . S
C621 H613 0.930 . S
C621 C620 1.355 . S
C621 C624 1.402 . S
C622 C620 1.412 . S
C622 C623 1.417 . S
C622 C646 1.431 . S
C623 N619 1.350 . S
C623 C622 1.417 . S
C623 C626 1.426 . S
C624 H607 0.930 . S
C624 N619 1.307 . S
C624 C621 1.402 . S
N625 Gd588 2.601 . S
N625 C626 1.359 . S
N625 C629 1.334 . S
C626 C623 1.426 . S
C626 N625 1.359 . S
C626 C630 1.413 . S
C627 H618 0.930 . S
C627 C628 1.359 . S
C627 C629 1.394 . S
C628 C627 1.359 . S
C628 C630 1.391 . S
C628 H631 0.929 . S
C629 H611 0.930 . S
C629 N625 1.334 . S
C629 C627 1.394 . S
C630 C626 1.413 . S
C630 C628 1.391 . S
C630 C645 1.437 . S
H631 C628 0.929 . S
O632 Gd588 2.545 . S
O632 C647 1.258 . S
O633 Gd588 2.606 . S
O633 Gd589 2.362 . S
O633 C644 1.284 . S
O634 Gd589 2.324 . S
O634 C654 1.254 . S
O635 Gd588 2.429 . S
O635 C654 1.268 . S
O636 Gd588 2.545 . S
O636 C644 1.250 . S
O637 Gd588 2.412 . S
O637 C647 1.252 . S
O638 Gd589 2.545 . S
O638 C656 1.258 . S
O639 Gd588 2.362 . S
O639 Gd589 2.606 . S
O639 C655 1.284 . S
O640 Gd588 2.324 . S
O640 C663 1.254 . S
O641 Gd589 2.429 . S
O641 C663 1.268 . S
O642 Gd589 2.545 . S
O642 C655 1.250 . S
O643 Gd589 2.412 . S
O643 C656 1.252 . S
C644 O633 1.284 . S
C644 O636 1.250 . S
C645 H614 0.929 . S
C645 C630 1.437 . S
C645 C646 1.317 . S
C646 H617 0.930 . S
C646 C622 1.431 . S
C646 C645 1.317 . S
C647 Gd588 2.828 . S
C647 O632 1.258 . S
C647 O637 1.252 . S
C647 C648 1.497 . S
C648 C647 1.497 . S
C648 C649 1.395 . S
C648 C650 1.380 . S
C649 C648 1.395 . S
C649 C652 1.398 . S
C649 H664 0.930 . S
C650 C648 1.380 . S
C650 C651 1.391 . S
C650 H665 0.930 . S
C651 C650 1.391 . S
C651 C653 1.387 . S
C652 C649 1.398 . S
C652 C653 1.380 . S
C652 H666 0.930 . S
C653 C651 1.387 . S
C653 C652 1.380 . S
C653 H667 0.930 . S
C654 O634 1.254 . S
C654 O635 1.268 . S
C655 O639 1.284 . S
C655 O642 1.250 . S
C656 Gd589 2.828 . S
C656 O638 1.258 . S
C656 O643 1.252 . S
C656 C657 1.497 . S
C657 C656 1.497 . S
C657 C658 1.395 . S
C657 C659 1.380 . S
C658 C657 1.395 . S
C658 C661 1.398 . S
C658 H668 0.930 . S
C659 C657 1.380 . S
C659 C660 1.391 . S
C659 H669 0.930 . S
C660 C659 1.391 . S
C660 C662 1.387 . S
C661 C658 1.398 . S
C661 C662 1.380 . S
C661 H670 0.930 . S
C662 C660 1.387 . S
C662 C661 1.380 . S
C662 H671 0.930 . S
C663 O640 1.254 . S
C663 O641 1.268 . S
H664 C649 0.930 . S
H665 C650 0.930 . S
H666 C652 0.930 . S
H667 C653 0.930 . S
H668 C658 0.930 . S
H669 C659 0.930 . S
H670 C661 0.930 . S
H671 C662 0.930 . S
Gd672 N703 2.661 . S
Gd672 N709 2.601 . S
Gd672 O716 2.545 . S
Gd672 O717 2.606 . S
Gd672 O719 2.429 . S
Gd672 O720 2.545 . S
Gd672 O721 2.412 . S
Gd672 O723 2.362 . S
Gd672 O724 2.324 . S
Gd672 C731 2.828 . S
Gd673 N682 2.661 . S
Gd673 N686 2.601 . S
Gd673 O717 2.362 . S
Gd673 O718 2.324 . S
Gd673 O722 2.545 . S
Gd673 O723 2.606 . S
Gd673 O725 2.429 . S
Gd673 O726 2.545 . S
Gd673 O727 2.412 . S
Gd673 C740 2.828 . S
C674 C677 1.417 . S
C674 C679 1.431 . S
C674 C680 1.412 . S
C675 C678 1.437 . S
C675 C679 1.317 . S
C675 H694 0.929 . S
C676 C677 1.426 . S
C676 C678 1.413 . S
C676 N686 1.359 . S
C677 C674 1.417 . S
C677 C676 1.426 . S
C677 N682 1.350 . S
C678 C675 1.437 . S
C678 C676 1.413 . S
C678 C688 1.391 . S
C679 C674 1.431 . S
C679 C675 1.317 . S
C679 H690 0.930 . S
C680 C674 1.412 . S
C680 C681 1.355 . S
C680 H692 0.930 . S
C681 C680 1.355 . S
C681 C683 1.402 . S
C681 H693 0.930 . S
N682 Gd673 2.661 . S
N682 C677 1.350 . S
N682 C683 1.307 . S
C683 C681 1.402 . S
C683 N682 1.307 . S
C683 H684 0.930 . S
H684 C683 0.930 . S
C685 N686 1.334 . S
C685 C687 1.394 . S
C685 H689 0.930 . S
N686 Gd673 2.601 . S
N686 C676 1.359 . S
N686 C685 1.334 . S
C687 C685 1.394 . S
C687 C688 1.359 . S
C687 H699 0.930 . S
C688 C678 1.391 . S
C688 C687 1.359 . S
C688 H700 0.929 . S
H689 C685 0.930 . S
H690 C679 0.930 . S
H691 C708 0.930 . S
H692 C680 0.930 . S
H693 C681 0.930 . S
H694 C675 0.929 . S
H695 C713 0.930 . S
H696 C704 0.930 . S
H697 C705 0.930 . S
H698 C729 0.929 . S
H699 C687 0.930 . S
H700 C688 0.929 . S
H701 C730 0.930 . S
H702 C711 0.930 . S
N703 Gd672 2.661 . S
N703 C707 1.350 . S
N703 C708 1.307 . S
C704 H696 0.930 . S
C704 C705 1.355 . S
C704 C706 1.412 . S
C705 H697 0.930 . S
C705 C704 1.355 . S
C705 C708 1.402 . S
C706 C704 1.412 . S
C706 C707 1.417 . S
C706 C730 1.431 . S
C707 N703 1.350 . S
C707 C706 1.417 . S
C707 C710 1.426 . S
C708 H691 0.930 . S
C708 N703 1.307 . S
C708 C705 1.402 . S
N709 Gd672 2.601 . S
N709 C710 1.359 . S
N709 C713 1.334 . S
C710 C707 1.426 . S
C710 N709 1.359 . S
C710 C714 1.413 . S
C711 H702 0.930 . S
C711 C712 1.359 . S
C711 C713 1.394 . S
C712 C711 1.359 . S
C712 C714 1.391 . S
C712 H715 0.929 . S
C713 H695 0.930 . S
C713 N709 1.334 . S
C713 C711 1.394 . S
C714 C710 1.413 . S
C714 C712 1.391 . S
C714 C729 1.437 . S
H715 C712 0.929 . S
O716 Gd672 2.545 . S
O716 C731 1.258 . S
O717 Gd672 2.606 . S
O717 Gd673 2.362 . S
O717 C728 1.284 . S
O718 Gd673 2.324 . S
O718 C738 1.254 . S
O719 Gd672 2.429 . S
O719 C738 1.268 . S
O720 Gd672 2.545 . S
O720 C728 1.250 . S
O721 Gd672 2.412 . S
O721 C731 1.252 . S
O722 Gd673 2.545 . S
O722 C740 1.258 . S
O723 Gd672 2.362 . S
O723 Gd673 2.606 . S
O723 C739 1.284 . S
O724 Gd672 2.324 . S
O724 C747 1.254 . S
O725 Gd673 2.429 . S
O725 C747 1.268 . S
O726 Gd673 2.545 . S
O726 C739 1.250 . S
O727 Gd673 2.412 . S
O727 C740 1.252 . S
C728 O717 1.284 . S
C728 O720 1.250 . S
C729 H698 0.929 . S
C729 C714 1.437 . S
C729 C730 1.317 . S
C730 H701 0.930 . S
C730 C706 1.431 . S
C730 C729 1.317 . S
C731 Gd672 2.828 . S
C731 O716 1.258 . S
C731 O721 1.252 . S
C731 C732 1.497 . S
C732 C731 1.497 . S
C732 C733 1.395 . S
C732 C734 1.380 . S
C733 C732 1.395 . S
C733 C736 1.398 . S
C733 H748 0.930 . S
C734 C732 1.380 . S
C734 C735 1.391 . S
C734 H749 0.930 . S
C735 C734 1.391 . S
C735 C737 1.387 . S
C736 C733 1.398 . S
C736 C737 1.380 . S
C736 H750 0.930 . S
C737 C735 1.387 . S
C737 C736 1.380 . S
C737 H751 0.930 . S
C738 O718 1.254 . S
C738 O719 1.268 . S
C739 O723 1.284 . S
C739 O726 1.250 . S
C740 Gd673 2.828 . S
C740 O722 1.258 . S
C740 O727 1.252 . S
C740 C741 1.497 . S
C741 C740 1.497 . S
C741 C742 1.395 . S
C741 C743 1.380 . S
C742 C741 1.395 . S
C742 C745 1.398 . S
C742 H752 0.930 . S
C743 C741 1.380 . S
C743 C744 1.391 . S
C743 H753 0.930 . S
C744 C743 1.391 . S
C744 C746 1.387 . S
C745 C742 1.398 . S
C745 C746 1.380 . S
C745 H754 0.930 . S
C746 C744 1.387 . S
C746 C745 1.380 . S
C746 H755 0.930 . S
C747 O724 1.254 . S
C747 O725 1.268 . S
H748 C733 0.930 . S
H749 C734 0.930 . S
H750 C736 0.930 . S
H751 C737 0.930 . S
H752 C742 0.930 . S
H753 C743 0.930 . S
H754 C745 0.930 . S
H755 C746 0.930 . S
Gd756 N787 2.661 1_565 S
Gd756 N793 2.601 . S
Gd756 O800 2.545 . S
Gd756 O801 2.606 1_565 S
Gd756 O803 2.429 . S
Gd756 O804 2.545 . S
Gd756 O805 2.412 . S
Gd756 O807 2.362 1_565 S
Gd756 O808 2.324 1_565 S
Gd756 C815 2.828 . S
Gd757 N766 2.661 . S
Gd757 N770 2.601 . S
Gd757 O801 2.362 . S
Gd757 O802 2.324 . S
Gd757 O806 2.545 . S
Gd757 O807 2.606 . S
Gd757 O809 2.429 . S
Gd757 O810 2.545 . S
Gd757 O811 2.412 . S
Gd757 C824 2.828 . S
C758 C761 1.417 . S
C758 C763 1.431 . S
C758 C764 1.412 1_545 S
C759 C762 1.437 . S
C759 C763 1.317 . S
C759 H778 0.929 . S
C760 C761 1.426 . S
C760 C762 1.413 . S
C760 N770 1.359 . S
C761 C758 1.417 . S
C761 C760 1.426 . S
C761 N766 1.350 . S
C762 C759 1.437 . S
C762 C760 1.413 . S
C762 C772 1.391 . S
C763 C758 1.431 . S
C763 C759 1.317 . S
C763 H774 0.930 . S
C764 C758 1.412 1_565 S
C764 C765 1.355 . S
C764 H776 0.930 . S
C765 C764 1.355 . S
C765 C767 1.403 . S
C765 H777 0.930 . S
N766 Gd757 2.661 . S
N766 C761 1.350 . S
N766 C767 1.306 1_545 S
C767 C765 1.403 . S
C767 N766 1.306 1_565 S
C767 H768 0.930 . S
H768 C767 0.930 . S
C769 N770 1.334 . S
C769 C771 1.394 . S
C769 H773 0.930 . S
N770 Gd757 2.601 . S
N770 C760 1.359 . S
N770 C769 1.334 . S
C771 C769 1.394 . S
C771 C772 1.359 . S
C771 H783 0.930 . S
C772 C762 1.391 . S
C772 C771 1.359 . S
C772 H784 0.929 . S
H773 C769 0.930 . S
H774 C763 0.930 . S
H775 C792 0.930 . S
H776 C764 0.930 . S
H777 C765 0.930 . S
H778 C759 0.929 . S
H779 C797 0.930 . S
H780 C788 0.930 . S
H781 C789 0.930 . S
H782 C813 0.929 1_565 S
H783 C771 0.930 . S
H784 C772 0.929 . S
H785 C814 0.930 . S
H786 C795 0.930 . S
N787 Gd756 2.661 1_545 S
N787 C791 1.350 . S
N787 C792 1.307 . S
C788 H780 0.930 . S
C788 C789 1.355 . S
C788 C790 1.412 . S
C789 H781 0.930 . S
C789 C788 1.355 . S
C789 C792 1.402 . S
C790 C788 1.412 . S
C790 C791 1.417 . S
C790 C814 1.431 . S
C791 N787 1.350 . S
C791 C790 1.417 . S
C791 C794 1.426 1_545 S
C792 H775 0.930 . S
C792 N787 1.307 . S
C792 C789 1.402 . S
N793 Gd756 2.601 . S
N793 C794 1.359 . S
N793 C797 1.334 . S
C794 C791 1.426 1_565 S
C794 N793 1.359 . S
C794 C798 1.413 . S
C795 H786 0.930 . S
C795 C796 1.359 . S
C795 C797 1.394 . S
C796 C795 1.359 . S
C796 C798 1.391 . S
C796 H799 0.929 . S
C797 H779 0.930 . S
C797 N793 1.334 . S
C797 C795 1.394 . S
C798 C794 1.413 . S
C798 C796 1.391 . S
C798 C813 1.437 1_565 S
H799 C796 0.929 . S
O800 Gd756 2.545 . S
O800 C815 1.258 . S
O801 Gd756 2.606 1_545 S
O801 Gd757 2.362 . S
O801 C812 1.284 1_545 S
O802 Gd757 2.324 . S
O802 C822 1.254 . S
O803 Gd756 2.429 . S
O803 C822 1.268 1_565 S
O804 Gd756 2.545 . S
O804 C812 1.250 . S
O805 Gd756 2.412 . S
O805 C815 1.252 . S
O806 Gd757 2.545 . S
O806 C824 1.258 . S
O807 Gd756 2.362 1_545 S
O807 Gd757 2.606 . S
O807 C823 1.284 . S
O808 Gd756 2.324 1_545 S
O808 C831 1.254 . S
O809 Gd757 2.429 . S
O809 C831 1.268 . S
O810 Gd757 2.545 . S
O810 C823 1.250 . S
O811 Gd757 2.412 . S
O811 C824 1.252 . S
C812 O801 1.284 1_565 S
C812 O804 1.250 . S
C813 H782 0.929 1_545 S
C813 C798 1.437 1_545 S
C813 C814 1.317 . S
C814 H785 0.930 . S
C814 C790 1.431 . S
C814 C813 1.317 . S
C815 Gd756 2.828 . S
C815 O800 1.258 . S
C815 O805 1.252 . S
C815 C816 1.497 . S
C816 C815 1.497 . S
C816 C817 1.395 . S
C816 C818 1.380 . S
C817 C816 1.395 . S
C817 C820 1.398 . S
C817 H832 0.930 . S
C818 C816 1.380 . S
C818 C819 1.391 . S
C818 H833 0.930 . S
C819 C818 1.391 . S
C819 C821 1.387 . S
C820 C817 1.398 . S
C820 C821 1.380 . S
C820 H834 0.930 . S
C821 C819 1.387 . S
C821 C820 1.380 . S
C821 H835 0.930 . S
C822 O802 1.254 . S
C822 O803 1.268 1_545 S
C823 O807 1.284 . S
C823 O810 1.250 . S
C824 Gd757 2.828 . S
C824 O806 1.258 . S
C824 O811 1.252 . S
C824 C825 1.497 . S
C825 C824 1.497 . S
C825 C826 1.395 . S
C825 C827 1.380 . S
C826 C825 1.395 . S
C826 C829 1.398 . S
C826 H836 0.930 . S
C827 C825 1.380 . S
C827 C828 1.391 . S
C827 H837 0.930 . S
C828 C827 1.391 . S
C828 C830 1.387 . S
C829 C826 1.398 . S
C829 C830 1.380 . S
C829 H838 0.930 . S
C830 C828 1.387 . S
C830 C829 1.380 . S
C830 H839 0.930 . S
C831 O808 1.254 . S
C831 O809 1.268 . S
H832 C817 0.930 . S
H833 C818 0.930 . S
H834 C820 0.930 . S
H835 C821 0.930 . S
H836 C826 0.930 . S
H837 C827 0.930 . S
H838 C829 0.930 . S
H839 C830 0.930 . S
Gd840 N871 2.661 1_545 S
Gd840 N877 2.601 . S
Gd840 O884 2.545 . S
Gd840 O885 2.606 1_545 S
Gd840 O887 2.429 . S
Gd840 O888 2.545 . S
Gd840 O889 2.412 . S
Gd840 O891 2.362 1_545 S
Gd840 O892 2.324 1_545 S
Gd840 C899 2.828 . S
Gd841 N850 2.661 . S
Gd841 N854 2.601 . S
Gd841 O885 2.362 . S
Gd841 O886 2.324 . S
Gd841 O890 2.545 . S
Gd841 O891 2.606 . S
Gd841 O893 2.429 . S
Gd841 O894 2.545 . S
Gd841 O895 2.412 . S
Gd841 C908 2.828 . S
C842 C845 1.417 . S
C842 C847 1.431 . S
C842 C848 1.412 1_565 S
C843 C846 1.437 . S
C843 C847 1.317 . S
C843 H862 0.929 . S
C844 C845 1.426 . S
C844 C846 1.413 . S
C844 N854 1.359 . S
C845 C842 1.417 . S
C845 C844 1.426 . S
C845 N850 1.350 . S
C846 C843 1.437 . S
C846 C844 1.413 . S
C846 C856 1.391 . S
C847 C842 1.431 . S
C847 C843 1.317 . S
C847 H858 0.930 . S
C848 C842 1.412 1_545 S
C848 C849 1.355 . S
C848 H860 0.930 . S
C849 C848 1.355 . S
C849 C851 1.402 . S
C849 H861 0.930 . S
N850 Gd841 2.661 . S
N850 C845 1.350 . S
N850 C851 1.307 1_565 S
C851 C849 1.402 . S
C851 N850 1.307 1_545 S
C851 H852 0.930 . S
H852 C851 0.930 . S
C853 N854 1.334 . S
C853 C855 1.394 . S
C853 H857 0.930 . S
N854 Gd841 2.601 . S
N854 C844 1.359 . S
N854 C853 1.334 . S
C855 C853 1.394 . S
C855 C856 1.359 . S
C855 H867 0.930 . S
C856 C846 1.391 . S
C856 C855 1.359 . S
C856 H868 0.929 . S
H857 C853 0.930 . S
H858 C847 0.930 . S
H859 C876 0.930 . S
H860 C848 0.930 . S
H861 C849 0.930 . S
H862 C843 0.929 . S
H863 C881 0.930 . S
H864 C872 0.930 . S
H865 C873 0.930 . S
H866 C897 0.934 . S
H867 C855 0.930 . S
H868 C856 0.929 . S
H869 C898 0.930 . S
H870 C879 0.930 . S
N871 Gd840 2.661 1_565 S
N871 C875 1.350 . S
N871 C876 1.307 . S
C872 H864 0.930 . S
C872 C873 1.355 . S
C872 C874 1.412 . S
C873 H865 0.930 . S
C873 C872 1.355 . S
C873 C876 1.402 . S
C874 C872 1.412 . S
C874 C875 1.417 . S
C874 C898 1.431 . S
C875 N871 1.350 . S
C875 C874 1.417 . S
C875 C878 1.426 1_565 S
C876 H859 0.930 . S
C876 N871 1.307 . S
C876 C873 1.402 . S
N877 Gd840 2.601 . S
N877 C878 1.359 . S
N877 C881 1.334 . S
C878 C875 1.426 1_545 S
C878 N877 1.359 . S
C878 C882 1.413 . S
C879 H870 0.930 . S
C879 C880 1.359 . S
C879 C881 1.394 . S
C880 C879 1.359 . S
C880 C882 1.391 . S
C880 H883 0.929 . S
C881 H863 0.930 . S
C881 N877 1.334 . S
C881 C879 1.394 . S
C882 C878 1.413 . S
C882 C880 1.391 . S
C882 C897 1.447 . S
H883 C880 0.929 . S
O884 Gd840 2.545 . S
O884 C899 1.258 . S
O885 Gd840 2.606 1_565 S
O885 Gd841 2.362 . S
O885 C896 1.284 1_565 S
O886 Gd841 2.324 . S
O886 C906 1.266 . S
O887 Gd840 2.429 . S
O887 C906 1.256 1_545 S
O888 Gd840 2.545 . S
O888 C896 1.250 . S
O889 Gd840 2.412 . S
O889 C899 1.252 . S
O890 Gd841 2.545 . S
O890 C908 1.258 . S
O891 Gd840 2.362 1_565 S
O891 Gd841 2.606 . S
O891 C907 1.284 . S
O892 Gd840 2.324 1_565 S
O892 C915 1.254 . S
O893 Gd841 2.429 . S
O893 C915 1.268 . S
O894 Gd841 2.545 . S
O894 C907 1.250 . S
O895 Gd841 2.412 . S
O895 C908 1.252 . S
C896 O885 1.284 1_545 S
C896 O888 1.250 . S
C897 H866 0.934 . S
C897 C882 1.447 . S
C897 C898 1.301 1_545 S
C898 H869 0.930 . S
C898 C874 1.431 . S
C898 C897 1.301 1_565 S
C899 Gd840 2.828 . S
C899 O884 1.258 . S
C899 O889 1.252 . S
C899 C900 1.497 . S
C900 C899 1.497 . S
C900 C901 1.395 . S
C900 C902 1.380 . S
C901 C900 1.395 . S
C901 C904 1.398 . S
C901 H916 0.930 . S
C902 C900 1.380 . S
C902 C903 1.391 . S
C902 H917 0.930 . S
C903 C902 1.391 . S
C903 C905 1.387 . S
C904 C901 1.398 . S
C904 C905 1.380 . S
C904 H918 0.930 . S
C905 C903 1.387 . S
C905 C904 1.380 . S
C905 H919 0.930 . S
C906 O886 1.266 . S
C906 O887 1.256 1_565 S
C907 O891 1.284 . S
C907 O894 1.250 . S
C908 Gd841 2.828 . S
C908 O890 1.258 . S
C908 O895 1.252 . S
C908 C909 1.497 . S
C909 C908 1.497 . S
C909 C910 1.395 . S
C909 C911 1.380 . S
C910 C909 1.395 . S
C910 C913 1.398 . S
C910 H920 0.930 . S
C911 C909 1.380 . S
C911 C912 1.391 . S
C911 H921 0.930 . S
C912 C911 1.391 . S
C912 C914 1.387 . S
C913 C910 1.398 . S
C913 C914 1.380 . S
C913 H922 0.930 . S
C914 C912 1.387 . S
C914 C913 1.380 . S
C914 H923 0.930 . S
C915 O892 1.254 . S
C915 O893 1.268 . S
H916 C901 0.930 . S
H917 C902 0.930 . S
H918 C904 0.930 . S
H919 C905 0.930 . S
H920 C910 0.930 . S
H921 C911 0.930 . S
H922 C913 0.930 . S
H923 C914 0.930 . S
Gd924 N955 2.661 . S
Gd924 N961 2.601 . S
Gd924 O968 2.545 . S
Gd924 O969 2.606 . S
Gd924 O971 2.429 . S
Gd924 O972 2.545 . S
Gd924 O973 2.412 . S
Gd924 O975 2.362 . S
Gd924 O976 2.324 . S
Gd924 C983 2.828 . S
Gd925 N934 2.661 . S
Gd925 N938 2.601 . S
Gd925 O969 2.362 . S
Gd925 O970 2.324 . S
Gd925 O974 2.545 . S
Gd925 O975 2.606 . S
Gd925 O977 2.429 . S
Gd925 O978 2.545 . S
Gd925 O979 2.412 . S
Gd925 C992 2.828 . S
C926 C929 1.417 . S
C926 C931 1.431 . S
C926 C932 1.412 . S
C927 C930 1.437 . S
C927 C931 1.317 . S
C927 H946 0.929 . S
C928 C929 1.426 . S
C928 C930 1.413 . S
C928 N938 1.359 . S
C929 C926 1.417 . S
C929 C928 1.426 . S
C929 N934 1.350 . S
C930 C927 1.437 . S
C930 C928 1.413 . S
C930 C940 1.391 . S
C931 C926 1.431 . S
C931 C927 1.317 . S
C931 H942 0.930 . S
C932 C926 1.412 . S
C932 C933 1.355 . S
C932 H944 0.930 . S
C933 C932 1.355 . S
C933 C935 1.402 . S
C933 H945 0.930 . S
N934 Gd925 2.661 . S
N934 C929 1.350 . S
N934 C935 1.307 . S
C935 C933 1.402 . S
C935 N934 1.307 . S
C935 H936 0.930 . S
H936 C935 0.930 . S
C937 N938 1.334 . S
C937 C939 1.394 . S
C937 H941 0.930 . S
N938 Gd925 2.601 . S
N938 C928 1.359 . S
N938 C937 1.334 . S
C939 C937 1.394 . S
C939 C940 1.359 . S
C939 H951 0.930 . S
C940 C930 1.391 . S
C940 C939 1.359 . S
C940 H952 0.929 . S
H941 C937 0.930 . S
H942 C931 0.930 . S
H943 C960 0.930 . S
H944 C932 0.930 . S
H945 C933 0.930 . S
H946 C927 0.929 . S
H947 C965 0.930 . S
H948 C956 0.930 . S
H949 C957 0.930 . S
H950 C981 0.929 . S
H951 C939 0.930 . S
H952 C940 0.929 . S
H953 C982 0.930 . S
H954 C963 0.930 . S
N955 Gd924 2.661 . S
N955 C959 1.350 . S
N955 C960 1.307 . S
C956 H948 0.930 . S
C956 C957 1.355 . S
C956 C958 1.412 . S
C957 H949 0.930 . S
C957 C956 1.355 . S
C957 C960 1.402 . S
C958 C956 1.412 . S
C958 C959 1.417 . S
C958 C982 1.431 . S
C959 N955 1.350 . S
C959 C958 1.417 . S
C959 C962 1.426 . S
C960 H943 0.930 . S
C960 N955 1.307 . S
C960 C957 1.402 . S
N961 Gd924 2.601 . S
N961 C962 1.359 . S
N961 C965 1.334 . S
C962 C959 1.426 . S
C962 N961 1.359 . S
C962 C966 1.413 . S
C963 H954 0.930 . S
C963 C964 1.359 . S
C963 C965 1.394 . S
C964 C963 1.359 . S
C964 C966 1.391 . S
C964 H967 0.929 . S
C965 H947 0.930 . S
C965 N961 1.334 . S
C965 C963 1.394 . S
C966 C962 1.413 . S
C966 C964 1.391 . S
C966 C981 1.437 . S
H967 C964 0.929 . S
O968 Gd924 2.545 . S
O968 C983 1.258 . S
O969 Gd924 2.606 . S
O969 Gd925 2.362 . S
O969 C980 1.284 . S
O970 Gd925 2.324 . S
O970 C990 1.254 . S
O971 Gd924 2.429 . S
O971 C990 1.268 . S
O972 Gd924 2.545 . S
O972 C980 1.250 . S
O973 Gd924 2.412 . S
O973 C983 1.252 . S
O974 Gd925 2.545 . S
O974 C992 1.258 . S
O975 Gd924 2.362 . S
O975 Gd925 2.606 . S
O975 C991 1.284 . S
O976 Gd924 2.324 . S
O976 C999 1.254 . S
O977 Gd925 2.429 . S
O977 C999 1.268 . S
O978 Gd925 2.545 . S
O978 C991 1.250 . S
O979 Gd925 2.412 . S
O979 C992 1.252 . S
C980 O969 1.284 . S
C980 O972 1.250 . S
C981 H950 0.929 . S
C981 C966 1.437 . S
C981 C982 1.317 . S
C982 H953 0.930 . S
C982 C958 1.431 . S
C982 C981 1.317 . S
C983 Gd924 2.828 . S
C983 O968 1.258 . S
C983 O973 1.252 . S
C983 C984 1.497 . S
C984 C983 1.497 . S
C984 C985 1.395 . S
C984 C986 1.380 . S
C985 C984 1.395 . S
C985 C988 1.398 . S
C985 H1000 0.930 . S
C986 C984 1.380 . S
C986 C987 1.391 . S
C986 H1001 0.930 . S
C987 C986 1.391 . S
C987 C989 1.387 . S
C988 C985 1.398 . S
C988 C989 1.380 . S
C988 H1002 0.930 . S
C989 C987 1.387 . S
C989 C988 1.380 . S
C989 H1003 0.930 . S
C990 O970 1.254 . S
C990 O971 1.268 . S
C991 O975 1.284 . S
C991 O978 1.250 . S
C992 Gd925 2.828 . S
C992 O974 1.258 . S
C992 O979 1.252 . S
C992 C993 1.497 . S
C993 C992 1.497 . S
C993 C994 1.395 . S
C993 C995 1.380 . S
C994 C993 1.395 . S
C994 C997 1.398 . S
C994 H1004 0.930 . S
C995 C993 1.380 . S
C995 C996 1.391 . S
C995 H1005 0.930 . S
C996 C995 1.391 . S
C996 C998 1.387 . S
C997 C994 1.398 . S
C997 C998 1.380 . S
C997 H1006 0.930 . S
C998 C996 1.387 . S
C998 C997 1.380 . S
C998 H1007 0.930 . S
C999 O976 1.254 . S
C999 O977 1.268 . S
H1000 C985 0.930 . S
H1001 C986 0.930 . S
H1002 C988 0.930 . S
H1003 C989 0.930 . S
H1004 C994 0.930 . S
H1005 C995 0.930 . S
H1006 C997 0.930 . S
H1007 C998 0.930 . S
C1008 C1009 1.349 . S
C1008 C1010 1.327 . S
C1008 H1033 0.950 . S
C1009 C1008 1.349 . S
C1009 C1025 1.349 . S
C1010 C1008 1.327 . S
C1010 C1029 1.429 . S
C1010 H1034 0.950 . S
C1011 C1028 1.574 . S
C1011 C1030 1.368 . S
C1011 H1035 0.949 . S
H1012 C1016 0.949 . S
C1013 C1014 1.349 . S
C1013 C1015 1.327 . S
C1013 H1036 0.950 . S
C1014 C1013 1.349 . S
C1014 C1026 1.349 . S
C1015 C1013 1.327 . S
C1015 C1031 1.429 . S
C1015 H1037 0.950 . S
C1016 H1012 0.949 . S
C1016 C1024 1.574 . S
C1016 C1032 1.368 . S
H1017 C1025 0.950 . S
H1018 C1023 0.950 . S
H1019 C1024 0.949 . S
H1020 C1026 0.950 . S
H1021 C1027 0.950 . S
H1022 C1028 0.949 . S
C1023 H1018 0.950 . S
C1023 C1025 1.327 . S
C1023 C1029 1.429 . S
C1024 C1016 1.574 . S
C1024 H1019 0.949 . S
C1024 C1030 1.368 . S
C1025 C1009 1.349 . S
C1025 H1017 0.950 . S
C1025 C1023 1.327 . S
C1026 C1014 1.349 . S
C1026 H1020 0.950 . S
C1026 C1027 1.327 . S
C1027 H1021 0.950 . S
C1027 C1026 1.327 . S
C1027 C1031 1.429 . S
C1028 C1011 1.574 . S
C1028 H1022 0.949 . S
C1028 C1032 1.368 . S
C1029 C1010 1.429 . S
C1029 C1023 1.429 . S
C1029 C1030 1.523 . S
C1030 C1011 1.368 . S
C1030 C1024 1.368 . S
C1030 C1029 1.523 . S
C1031 C1015 1.429 . S
C1031 C1027 1.429 . S
C1031 C1032 1.523 . S
C1032 C1016 1.368 . S
C1032 C1028 1.368 . S
C1032 C1031 1.523 . S
H1033 C1008 0.950 . S
H1034 C1010 0.950 . S
H1035 C1011 0.949 . S
H1036 C1013 0.950 . S
H1037 C1015 0.950 . S
C1038 C1039 1.349 . S
C1038 C1040 1.327 . S
C1038 H1063 0.950 . S
C1039 C1038 1.349 . S
C1039 C1055 1.349 1_565 S
C1040 C1038 1.327 . S
C1040 C1059 1.429 . S
C1040 H1064 0.950 . S
C1041 C1058 1.574 . S
C1041 C1060 1.368 . S
C1041 H1065 0.949 1_565 S
H1042 C1046 0.949 . S
C1043 C1044 1.349 . S
C1043 C1045 1.327 . S
C1043 H1066 0.950 . S
C1044 C1043 1.349 . S
C1044 C1056 1.349 . S
C1045 C1043 1.327 . S
C1045 C1061 1.429 . S
C1045 H1067 0.950 . S
C1046 H1042 0.949 . S
C1046 C1054 1.574 . S
C1046 C1062 1.368 . S
H1047 C1055 0.950 . S
H1048 C1053 0.950 . S
H1049 C1054 0.949 . S
H1050 C1056 0.950 . S
H1051 C1057 0.950 . S
H1052 C1058 0.949 . S
C1053 H1048 0.950 . S
C1053 C1055 1.327 . S
C1053 C1059 1.429 1_545 S
C1054 C1046 1.574 . S
C1054 H1049 0.949 . S
C1054 C1060 1.368 . S
C1055 C1039 1.349 1_545 S
C1055 H1047 0.950 . S
C1055 C1053 1.327 . S
C1056 C1044 1.349 . S
C1056 H1050 0.950 . S
C1056 C1057 1.327 . S
C1057 H1051 0.950 . S
C1057 C1056 1.327 . S
C1057 C1061 1.429 . S
C1058 C1041 1.574 . S
C1058 H1052 0.949 . S
C1058 C1062 1.368 . S
C1059 C1040 1.429 . S
C1059 C1053 1.429 1_565 S
C1059 C1060 1.523 . S
C1060 C1041 1.368 . S
C1060 C1054 1.368 . S
C1060 C1059 1.523 . S
C1061 C1045 1.429 . S
C1061 C1057 1.429 . S
C1061 C1062 1.523 . S
C1062 C1046 1.368 . S
C1062 C1058 1.368 . S
C1062 C1061 1.523 . S
H1063 C1038 0.950 . S
H1064 C1040 0.950 . S
H1065 C1041 0.949 1_545 S
H1066 C1043 0.950 . S
H1067 C1045 0.950 . S
C1068 C1069 1.349 . S
C1068 C1070 1.327 . S
C1068 H1093 0.950 . S
C1069 C1068 1.349 . S
C1069 C1085 1.349 . S
C1070 C1068 1.327 . S
C1070 C1089 1.429 . S
C1070 H1094 0.950 . S
C1071 C1088 1.574 . S
C1071 C1090 1.368 . S
C1071 H1095 0.949 . S
H1072 C1076 0.949 . S
C1073 C1074 1.349 . S
C1073 C1075 1.327 . S
C1073 H1096 0.950 . S
C1074 C1073 1.349 . S
C1074 C1086 1.349 . S
C1075 C1073 1.327 . S
C1075 C1091 1.429 . S
C1075 H1097 0.950 . S
C1076 H1072 0.949 . S
C1076 C1084 1.574 . S
C1076 C1092 1.368 . S
H1077 C1085 0.950 . S
H1078 C1083 0.950 . S
H1079 C1084 0.949 . S
H1080 C1086 0.950 . S
H1081 C1087 0.950 . S
H1082 C1088 0.949 . S
C1083 H1078 0.950 . S
C1083 C1085 1.327 . S
C1083 C1089 1.429 . S
C1084 C1076 1.574 . S
C1084 H1079 0.949 . S
C1084 C1090 1.368 . S
C1085 C1069 1.349 . S
C1085 H1077 0.950 . S
C1085 C1083 1.327 . S
C1086 C1074 1.349 . S
C1086 H1080 0.950 . S
C1086 C1087 1.327 . S
C1087 H1081 0.950 . S
C1087 C1086 1.327 . S
C1087 C1091 1.429 . S
C1088 C1071 1.574 . S
C1088 H1082 0.949 . S
C1088 C1092 1.368 . S
C1089 C1070 1.429 . S
C1089 C1083 1.429 . S
C1089 C1090 1.523 . S
C1090 C1071 1.368 . S
C1090 C1084 1.368 . S
C1090 C1089 1.523 . S
C1091 C1075 1.429 . S
C1091 C1087 1.429 . S
C1091 C1092 1.523 . S
C1092 C1076 1.368 . S
C1092 C1088 1.368 . S
C1092 C1091 1.523 . S
H1093 C1068 0.950 . S
H1094 C1070 0.950 . S
H1095 C1071 0.949 . S
H1096 C1073 0.950 . S
H1097 C1075 0.950 . S
C1098 C1099 1.349 . S
C1098 C1100 1.327 . S
C1098 H1123 0.950 . S
C1099 C1098 1.349 . S
C1099 C1115 1.349 . S
C1100 C1098 1.327 . S
C1100 C1119 1.429 . S
C1100 H1124 0.950 . S
C1101 C1118 1.574 . S
C1101 C1120 1.368 . S
C1101 H1125 0.949 . S
H1102 C1106 0.949 . S
C1103 C1104 1.349 . S
C1103 C1105 1.327 . S
C1103 H1126 0.950 . S
C1104 C1103 1.349 . S
C1104 C1116 1.349 . S
C1105 C1103 1.327 . S
C1105 C1121 1.429 . S
C1105 H1127 0.950 . S
C1106 H1102 0.949 . S
C1106 C1114 1.574 . S
C1106 C1122 1.368 . S
H1107 C1115 0.950 . S
H1108 C1113 0.950 . S
H1109 C1114 0.949 . S
H1110 C1116 0.950 1_565 S
H1111 C1117 0.950 . S
H1112 C1118 0.949 . S
C1113 H1108 0.950 . S
C1113 C1115 1.327 . S
C1113 C1119 1.429 . S
C1114 C1106 1.574 . S
C1114 H1109 0.949 . S
C1114 C1120 1.368 . S
C1115 C1099 1.349 . S
C1115 H1107 0.950 . S
C1115 C1113 1.327 . S
C1116 C1104 1.349 . S
C1116 H1110 0.950 1_545 S
C1116 C1117 1.327 . S
C1117 H1111 0.950 . S
C1117 C1116 1.327 . S
C1117 C1121 1.429 . S
C1118 C1101 1.574 . S
C1118 H1112 0.949 . S
C1118 C1122 1.368 . S
C1119 C1100 1.429 . S
C1119 C1113 1.429 . S
C1119 C1120 1.523 . S
C1120 C1101 1.368 . S
C1120 C1114 1.368 . S
C1120 C1119 1.523 . S
C1121 C1105 1.429 . S
C1121 C1117 1.429 . S
C1121 C1122 1.523 . S
C1122 C1106 1.368 . S
C1122 C1118 1.368 . S
C1122 C1121 1.523 . S
H1123 C1098 0.950 . S
H1124 C1100 0.950 . S
H1125 C1101 0.949 . S
H1126 C1103 0.950 . S
H1127 C1105 0.950 . S
C1128 C1129 1.349 . S
C1128 C1130 1.327 . S
C1128 H1153 0.950 . S
C1129 C1128 1.349 . S
C1129 C1145 1.349 . S
C1130 C1128 1.327 . S
C1130 C1149 1.429 . S
C1130 H1154 0.950 . S
C1131 C1148 1.574 . S
C1131 C1150 1.368 . S
C1131 H1155 0.949 . S
H1132 C1136 0.949 . S
C1133 C1134 1.349 . S
C1133 C1135 1.327 . S
C1133 H1156 0.950 . S
C1134 C1133 1.349 . S
C1134 C1146 1.349 . S
C1135 C1133 1.327 . S
C1135 C1151 1.429 . S
C1135 H1157 0.950 . S
C1136 H1132 0.949 . S
C1136 C1144 1.574 . S
C1136 C1152 1.368 . S
H1137 C1145 0.950 . S
H1138 C1143 0.950 . S
H1139 C1144 0.949 . S
H1140 C1146 0.950 . S
H1141 C1147 0.950 . S
H1142 C1148 0.949 . S
C1143 H1138 0.950 . S
C1143 C1145 1.327 . S
C1143 C1149 1.429 . S
C1144 C1136 1.574 . S
C1144 H1139 0.949 . S
C1144 C1150 1.368 . S
C1145 C1129 1.349 . S
C1145 H1137 0.950 . S
C1145 C1143 1.327 . S
C1146 C1134 1.349 . S
C1146 H1140 0.950 . S
C1146 C1147 1.327 . S
C1147 H1141 0.950 . S
C1147 C1146 1.327 . S
C1147 C1151 1.429 . S
C1148 C1131 1.574 . S
C1148 H1142 0.949 . S
C1148 C1152 1.368 . S
C1149 C1130 1.429 . S
C1149 C1143 1.429 . S
C1149 C1150 1.523 . S
C1150 C1131 1.368 . S
C1150 C1144 1.368 . S
C1150 C1149 1.523 . S
C1151 C1135 1.429 . S
C1151 C1147 1.429 . S
C1151 C1152 1.523 . S
C1152 C1136 1.368 . S
C1152 C1148 1.368 . S
C1152 C1151 1.523 . S
H1153 C1128 0.950 . S
H1154 C1130 0.950 . S
H1155 C1131 0.949 . S
H1156 C1133 0.950 . S
H1157 C1135 0.950 . S
C1158 C1159 1.349 . S
C1158 C1160 1.327 . S
C1158 H1183 0.950 . S
C1159 C1158 1.349 . S
C1159 C1175 1.349 . S
C1160 C1158 1.327 . S
C1160 C1179 1.429 . S
C1160 H1184 0.950 . S
C1161 C1178 1.574 . S
C1161 C1180 1.368 . S
C1161 H1185 0.949 . S
H1162 C1166 0.949 . S
C1163 C1164 1.349 . S
C1163 C1165 1.327 . S
C1163 H1186 0.950 . S
C1164 C1163 1.349 . S
C1164 C1176 1.349 . S
C1165 C1163 1.327 . S
C1165 C1181 1.429 . S
C1165 H1187 0.950 . S
C1166 H1162 0.949 . S
C1166 C1174 1.574 . S
C1166 C1182 1.368 . S
H1167 C1175 0.950 . S
H1168 C1173 0.950 . S
H1169 C1174 0.949 . S
H1170 C1176 0.950 . S
H1171 C1177 0.950 . S
H1172 C1178 0.949 . S
C1173 H1168 0.950 . S
C1173 C1175 1.327 . S
C1173 C1179 1.429 . S
C1174 C1166 1.574 . S
C1174 H1169 0.949 . S
C1174 C1180 1.368 . S
C1175 C1159 1.349 . S
C1175 H1167 0.950 . S
C1175 C1173 1.327 . S
C1176 C1164 1.349 . S
C1176 H1170 0.950 . S
C1176 C1177 1.327 . S
C1177 H1171 0.950 . S
C1177 C1176 1.327 . S
C1177 C1181 1.429 . S
C1178 C1161 1.574 . S
C1178 H1172 0.949 . S
C1178 C1182 1.368 . S
C1179 C1160 1.429 . S
C1179 C1173 1.429 . S
C1179 C1180 1.523 . S
C1180 C1161 1.368 . S
C1180 C1174 1.368 . S
C1180 C1179 1.523 . S
C1181 C1165 1.429 . S
C1181 C1177 1.429 . S
C1181 C1182 1.523 . S
C1182 C1166 1.368 . S
C1182 C1178 1.368 . S
C1182 C1181 1.523 . S
H1183 C1158 0.950 . S
H1184 C1160 0.950 . S
H1185 C1161 0.949 . S
H1186 C1163 0.950 . S
H1187 C1165 0.950 . S
C1188 C1189 1.349 . S
C1188 C1190 1.327 . S
C1188 H1213 0.950 . S
C1189 C1188 1.349 . S
C1189 C1205 1.349 . S
C1190 C1188 1.327 . S
C1190 C1209 1.429 . S
C1190 H1214 0.950 . S
C1191 C1208 1.574 . S
C1191 C1210 1.368 . S
C1191 H1215 0.949 . S
H1192 C1196 0.949 . S
C1193 C1194 1.349 1_554 S
C1193 C1195 1.325 1_554 S
C1193 H1216 0.950 . S
C1194 C1193 1.349 1_556 S
C1194 C1206 1.349 . S
C1195 C1193 1.325 1_556 S
C1195 C1211 1.433 . S
C1195 H1217 0.947 1_556 S
C1196 H1192 0.949 . S
C1196 C1204 1.574 . S
C1196 C1212 1.368 . S
H1197 C1205 0.950 . S
H1198 C1203 0.950 . S
H1199 C1204 0.949 . S
H1200 C1206 0.950 . S
H1201 C1207 0.950 . S
H1202 C1208 0.949 . S
C1203 H1198 0.950 . S
C1203 C1205 1.327 . S
C1203 C1209 1.429 . S
C1204 C1196 1.574 . S
C1204 H1199 0.949 . S
C1204 C1210 1.368 . S
C1205 C1189 1.349 . S
C1205 H1197 0.950 . S
C1205 C1203 1.327 . S
C1206 C1194 1.349 . S
C1206 H1200 0.950 . S
C1206 C1207 1.327 . S
C1207 H1201 0.950 . S
C1207 C1206 1.327 . S
C1207 C1211 1.429 . S
C1208 C1191 1.574 . S
C1208 H1202 0.949 . S
C1208 C1212 1.368 . S
C1209 C1190 1.429 . S
C1209 C1203 1.429 . S
C1209 C1210 1.523 . S
C1210 C1191 1.368 . S
C1210 C1204 1.368 . S
C1210 C1209 1.523 . S
C1211 C1195 1.433 . S
C1211 C1207 1.429 . S
C1211 C1212 1.523 . S
C1212 C1196 1.368 . S
C1212 C1208 1.368 . S
C1212 C1211 1.523 . S
H1213 C1188 0.950 . S
H1214 C1190 0.950 . S
H1215 C1191 0.949 . S
H1216 C1193 0.950 . S
H1217 C1195 0.947 1_554 S
C1218 C1219 1.349 . S
C1218 C1220 1.327 . S
C1218 H1243 0.950 . S
C1219 C1218 1.349 . S
C1219 C1235 1.349 . S
C1220 C1218 1.327 . S
C1220 C1239 1.429 . S
C1220 H1244 0.950 . S
C1221 C1238 1.574 . S
C1221 C1240 1.368 . S
C1221 H1245 0.949 . S
H1222 C1226 0.949 . S
C1223 C1224 1.349 . S
C1223 C1225 1.327 . S
C1223 H1246 0.950 . S
C1224 C1223 1.349 . S
C1224 C1236 1.349 . S
C1225 C1223 1.327 . S
C1225 C1241 1.429 . S
C1225 H1247 0.950 . S
C1226 H1222 0.949 . S
C1226 C1234 1.574 . S
C1226 C1242 1.368 . S
H1227 C1235 0.950 . S
H1228 C1233 0.950 . S
H1229 C1234 0.949 . S
H1230 C1236 0.950 . S
H1231 C1237 0.950 . S
H1232 C1238 0.949 . S
C1233 H1228 0.950 . S
C1233 C1235 1.327 . S
C1233 C1239 1.429 . S
C1234 C1226 1.574 . S
C1234 H1229 0.949 . S
C1234 C1240 1.368 . S
C1235 C1219 1.349 . S
C1235 H1227 0.950 . S
C1235 C1233 1.327 . S
C1236 C1224 1.349 . S
C1236 H1230 0.950 . S
C1236 C1237 1.327 . S
C1237 H1231 0.950 . S
C1237 C1236 1.327 . S
C1237 C1241 1.429 . S
C1238 C1221 1.574 . S
C1238 H1232 0.949 . S
C1238 C1242 1.368 . S
C1239 C1220 1.429 . S
C1239 C1233 1.429 . S
C1239 C1240 1.523 . S
C1240 C1221 1.368 . S
C1240 C1234 1.368 . S
C1240 C1239 1.523 . S
C1241 C1225 1.429 . S
C1241 C1237 1.429 . S
C1241 C1242 1.523 . S
C1242 C1226 1.368 . S
C1242 C1238 1.368 . S
C1242 C1241 1.523 . S
H1243 C1218 0.950 . S
H1244 C1220 0.950 . S
H1245 C1221 0.949 . S
H1246 C1223 0.950 . S
H1247 C1225 0.950 . S
C1248 C1249 1.349 . S
C1248 C1250 1.327 . S
C1248 H1273 0.950 . S
C1249 C1248 1.349 . S
C1249 C1265 1.349 . S
C1250 C1248 1.327 . S
C1250 C1269 1.429 . S
C1250 H1274 0.950 . S
C1251 C1268 1.574 . S
C1251 C1270 1.368 . S
C1251 H1275 0.949 . S
H1252 C1256 0.949 . S
C1253 C1254 1.349 . S
C1253 C1255 1.327 . S
C1253 H1276 0.950 . S
C1254 C1253 1.349 . S
C1254 C1266 1.349 . S
C1255 C1253 1.327 . S
C1255 C1271 1.429 . S
C1255 H1277 0.950 . S
C1256 H1252 0.949 . S
C1256 C1264 1.574 . S
C1256 C1272 1.368 . S
H1257 C1265 0.950 . S
H1258 C1263 0.950 . S
H1259 C1264 0.949 . S
H1260 C1266 0.950 . S
H1261 C1267 0.950 . S
H1262 C1268 0.949 . S
C1263 H1258 0.950 . S
C1263 C1265 1.327 . S
C1263 C1269 1.429 . S
C1264 C1256 1.574 . S
C1264 H1259 0.949 . S
C1264 C1270 1.368 . S
C1265 C1249 1.349 . S
C1265 H1257 0.950 . S
C1265 C1263 1.327 . S
C1266 C1254 1.349 . S
C1266 H1260 0.950 . S
C1266 C1267 1.327 . S
C1267 H1261 0.950 . S
C1267 C1266 1.327 . S
C1267 C1271 1.429 . S
C1268 C1251 1.574 . S
C1268 H1262 0.949 . S
C1268 C1272 1.368 . S
C1269 C1250 1.429 . S
C1269 C1263 1.429 . S
C1269 C1270 1.523 . S
C1270 C1251 1.368 . S
C1270 C1264 1.368 . S
C1270 C1269 1.523 . S
C1271 C1255 1.429 . S
C1271 C1267 1.429 . S
C1271 C1272 1.523 . S
C1272 C1256 1.368 . S
C1272 C1268 1.368 . S
C1272 C1271 1.523 . S
H1273 C1248 0.950 . S
H1274 C1250 0.950 . S
H1275 C1251 0.949 . S
H1276 C1253 0.950 . S
H1277 C1255 0.950 . S
C1278 C1279 1.349 . S
C1278 C1280 1.327 . S
C1278 H1303 0.950 . S
C1279 C1278 1.349 . S
C1279 C1295 1.349 . S
C1280 C1278 1.327 . S
C1280 C1299 1.429 . S
C1280 H1304 0.950 . S
C1281 C1298 1.574 . S
C1281 C1300 1.368 . S
C1281 H1305 0.949 . S
H1282 C1286 0.949 . S
C1283 C1284 1.349 . S
C1283 C1285 1.327 . S
C1283 H1306 0.950 . S
C1284 C1283 1.349 . S
C1284 C1296 1.349 1_455 S
C1285 C1283 1.327 . S
C1285 C1301 1.429 . S
C1285 H1307 0.950 . S
C1286 H1282 0.949 . S
C1286 C1294 1.574 . S
C1286 C1302 1.368 . S
H1287 C1295 0.950 . S
H1288 C1293 0.950 . S
H1289 C1294 0.949 . S
H1290 C1296 0.949 . S
H1291 C1297 0.950 . S
H1292 C1298 0.949 . S
C1293 H1288 0.950 . S
C1293 C1295 1.327 . S
C1293 C1299 1.429 . S
C1294 C1286 1.574 . S
C1294 H1289 0.949 . S
C1294 C1300 1.368 . S
C1295 C1279 1.349 . S
C1295 H1287 0.950 . S
C1295 C1293 1.327 . S
C1296 C1284 1.349 1_655 S
C1296 H1290 0.949 . S
C1296 C1297 1.328 1_655 S
C1297 H1291 0.950 . S
C1297 C1296 1.328 1_455 S
C1297 C1301 1.429 . S
C1298 C1281 1.574 . S
C1298 H1292 0.949 . S
C1298 C1302 1.368 . S
C1299 C1280 1.429 . S
C1299 C1293 1.429 . S
C1299 C1300 1.523 . S
C1300 C1281 1.368 . S
C1300 C1294 1.368 . S
C1300 C1299 1.523 . S
C1301 C1285 1.429 . S
C1301 C1297 1.429 . S
C1301 C1302 1.523 . S
C1302 C1286 1.368 . S
C1302 C1298 1.368 . S
C1302 C1301 1.523 . S
H1303 C1278 0.950 . S
H1304 C1280 0.950 . S
H1305 C1281 0.949 . S
H1306 C1283 0.950 . S
H1307 C1285 0.950 . S
C1308 C1309 1.348 . S
C1308 C1310 1.316 1_455 S
C1308 H1333 0.950 . S
C1309 C1308 1.348 . S
C1309 C1325 1.351 1_455 S
C1310 C1308 1.316 1_655 S
C1310 C1329 1.451 . S
C1310 H1334 0.939 1_655 S
C1311 C1328 1.574 . S
C1311 C1330 1.368 . S
C1311 H1335 0.949 . S
H1312 C1316 0.949 . S
C1313 C1314 1.349 . S
C1313 C1315 1.327 . S
C1313 H1336 0.950 . S
C1314 C1313 1.349 . S
C1314 C1326 1.349 . S
C1315 C1313 1.327 . S
C1315 C1331 1.429 . S
C1315 H1337 0.950 . S
C1316 H1312 0.949 . S
C1316 C1324 1.574 . S
C1316 C1332 1.368 . S
H1317 C1325 0.950 . S
H1318 C1323 0.950 . S
H1319 C1324 0.949 . S
H1320 C1326 0.950 . S
H1321 C1327 0.950 . S
H1322 C1328 0.949 . S
C1323 H1318 0.950 . S
C1323 C1325 1.327 . S
C1323 C1329 1.429 . S
C1324 C1316 1.574 . S
C1324 H1319 0.949 . S
C1324 C1330 1.368 . S
C1325 C1309 1.351 1_655 S
C1325 H1317 0.950 . S
C1325 C1323 1.327 . S
C1326 C1314 1.349 . S
C1326 H1320 0.950 . S
C1326 C1327 1.327 . S
C1327 H1321 0.950 . S
C1327 C1326 1.327 . S
C1327 C1331 1.429 . S
C1328 C1311 1.574 . S
C1328 H1322 0.949 . S
C1328 C1332 1.368 . S
C1329 C1310 1.451 . S
C1329 C1323 1.429 . S
C1329 C1330 1.523 . S
C1330 C1311 1.368 . S
C1330 C1324 1.368 . S
C1330 C1329 1.523 . S
C1331 C1315 1.429 . S
C1331 C1327 1.429 . S
C1331 C1332 1.523 . S
C1332 C1316 1.368 . S
C1332 C1328 1.368 . S
C1332 C1331 1.523 . S
H1333 C1308 0.950 . S
H1334 C1310 0.939 1_455 S
H1335 C1311 0.949 . S
H1336 C1313 0.950 . S
H1337 C1315 0.950 . S
C1338 C1339 1.349 . S
C1338 C1340 1.327 . S
C1338 H1363 0.950 . S
C1339 C1338 1.349 . S
C1339 C1355 1.349 . S
C1340 C1338 1.327 . S
C1340 C1359 1.429 . S
C1340 H1364 0.950 . S
C1341 C1358 1.574 . S
C1341 C1360 1.368 . S
C1341 H1365 0.949 . S
H1342 C1346 0.949 . S
C1343 C1344 1.349 . S
C1343 C1345 1.327 . S
C1343 H1366 0.950 . S
C1344 C1343 1.349 . S
C1344 C1356 1.349 . S
C1345 C1343 1.327 . S
C1345 C1361 1.429 . S
C1345 H1367 0.950 . S
C1346 H1342 0.949 . S
C1346 C1354 1.574 . S
C1346 C1362 1.368 . S
H1347 C1355 0.950 . S
H1348 C1353 0.950 . S
H1349 C1354 0.949 . S
H1350 C1356 0.950 . S
H1351 C1357 0.950 . S
H1352 C1358 0.949 . S
C1353 H1348 0.950 . S
C1353 C1355 1.327 . S
C1353 C1359 1.429 . S
C1354 C1346 1.574 . S
C1354 H1349 0.949 . S
C1354 C1360 1.368 . S
C1355 C1339 1.349 . S
C1355 H1347 0.950 . S
C1355 C1353 1.327 . S
C1356 C1344 1.349 . S
C1356 H1350 0.950 . S
C1356 C1357 1.327 . S
C1357 H1351 0.950 . S
C1357 C1356 1.327 . S
C1357 C1361 1.429 . S
C1358 C1341 1.574 . S
C1358 H1352 0.949 . S
C1358 C1362 1.368 . S
C1359 C1340 1.429 . S
C1359 C1353 1.429 . S
C1359 C1360 1.523 . S
C1360 C1341 1.368 . S
C1360 C1354 1.368 . S
C1360 C1359 1.523 . S
C1361 C1345 1.429 . S
C1361 C1357 1.429 . S
C1361 C1362 1.523 . S
C1362 C1346 1.368 . S
C1362 C1358 1.368 . S
C1362 C1361 1.523 . S
H1363 C1338 0.950 . S
H1364 C1340 0.950 . S
H1365 C1341 0.949 . S
H1366 C1343 0.950 . S
H1367 C1345 0.950 . S
C1368 C1369 1.349 . S
C1368 C1370 1.327 . S
C1368 H1393 0.950 . S
C1369 C1368 1.349 . S
C1369 C1385 1.349 . S
C1370 C1368 1.327 . S
C1370 C1389 1.429 . S
C1370 H1394 0.950 . S
C1371 C1388 1.574 . S
C1371 C1390 1.368 . S
C1371 H1395 0.949 . S
H1372 C1376 0.949 . S
C1373 C1374 1.349 . S
C1373 C1375 1.327 . S
C1373 H1396 0.950 . S
C1374 C1373 1.349 . S
C1374 C1386 1.349 . S
C1375 C1373 1.327 . S
C1375 C1391 1.429 . S
C1375 H1397 0.950 . S
C1376 H1372 0.949 . S
C1376 C1384 1.574 . S
C1376 C1392 1.368 . S
H1377 C1385 0.950 . S
H1378 C1383 0.950 . S
H1379 C1384 0.949 . S
H1380 C1386 0.950 . S
H1381 C1387 0.950 . S
H1382 C1388 0.949 . S
C1383 H1378 0.950 . S
C1383 C1385 1.327 . S
C1383 C1389 1.429 . S
C1384 C1376 1.574 . S
C1384 H1379 0.949 . S
C1384 C1390 1.368 . S
C1385 C1369 1.349 . S
C1385 H1377 0.950 . S
C1385 C1383 1.327 . S
C1386 C1374 1.349 . S
C1386 H1380 0.950 . S
C1386 C1387 1.327 . S
C1387 H1381 0.950 . S
C1387 C1386 1.327 . S
C1387 C1391 1.429 . S
C1388 C1371 1.574 . S
C1388 H1382 0.949 . S
C1388 C1392 1.368 . S
C1389 C1370 1.429 . S
C1389 C1383 1.429 . S
C1389 C1390 1.523 . S
C1390 C1371 1.368 . S
C1390 C1384 1.368 . S
C1390 C1389 1.523 . S
C1391 C1375 1.429 . S
C1391 C1387 1.429 . S
C1391 C1392 1.523 . S
C1392 C1376 1.368 . S
C1392 C1388 1.368 . S
C1392 C1391 1.523 . S
H1393 C1368 0.950 . S
H1394 C1370 0.950 . S
H1395 C1371 0.949 . S
H1396 C1373 0.950 . S
H1397 C1375 0.950 . S
C1398 C1399 1.349 . S
C1398 C1400 1.327 . S
C1398 H1423 0.950 . S
C1399 C1398 1.349 . S
C1399 C1415 1.349 . S
C1400 C1398 1.327 . S
C1400 C1419 1.429 . S
C1400 H1424 0.950 . S
C1401 C1418 1.574 . S
C1401 C1420 1.368 . S
C1401 H1425 0.949 . S
H1402 C1406 0.949 . S
C1403 C1404 1.349 . S
C1403 C1405 1.327 . S
C1403 H1426 0.950 . S
C1404 C1403 1.349 . S
C1404 C1416 1.349 . S
C1405 C1403 1.327 . S
C1405 C1421 1.429 . S
C1405 H1427 0.950 . S
C1406 H1402 0.949 . S
C1406 C1414 1.574 . S
C1406 C1422 1.368 . S
H1407 C1415 0.950 . S
H1408 C1413 0.950 . S
H1409 C1414 0.949 . S
H1410 C1416 0.950 . S
H1411 C1417 0.950 . S
H1412 C1418 0.949 . S
C1413 H1408 0.950 . S
C1413 C1415 1.327 . S
C1413 C1419 1.429 . S
C1414 C1406 1.574 . S
C1414 H1409 0.949 . S
C1414 C1420 1.368 . S
C1415 C1399 1.349 . S
C1415 H1407 0.950 . S
C1415 C1413 1.327 . S
C1416 C1404 1.349 . S
C1416 H1410 0.950 . S
C1416 C1417 1.327 . S
C1417 H1411 0.950 . S
C1417 C1416 1.327 . S
C1417 C1421 1.429 . S
C1418 C1401 1.574 . S
C1418 H1412 0.949 . S
C1418 C1422 1.368 . S
C1419 C1400 1.429 . S
C1419 C1413 1.429 . S
C1419 C1420 1.523 . S
C1420 C1401 1.368 . S
C1420 C1414 1.368 . S
C1420 C1419 1.523 . S
C1421 C1405 1.429 . S
C1421 C1417 1.429 . S
C1421 C1422 1.523 . S
C1422 C1406 1.368 . S
C1422 C1418 1.368 . S
C1422 C1421 1.523 . S
H1423 C1398 0.950 . S
H1424 C1400 0.950 . S
H1425 C1401 0.949 . S
H1426 C1403 0.950 . S
H1427 C1405 0.950 . S
C1428 C1429 1.349 . S
C1428 C1430 1.327 . S
C1428 H1453 0.950 . S
C1429 C1428 1.349 . S
C1429 C1445 1.349 . S
C1430 C1428 1.327 . S
C1430 C1449 1.429 . S
C1430 H1454 0.950 . S
C1431 C1448 1.574 . S
C1431 C1450 1.368 . S
C1431 H1455 0.949 . S
H1432 C1436 0.949 . S
C1433 C1434 1.349 . S
C1433 C1435 1.327 . S
C1433 H1456 0.950 . S
C1434 C1433 1.349 . S
C1434 C1446 1.349 . S
C1435 C1433 1.327 . S
C1435 C1451 1.429 . S
C1435 H1457 0.950 . S
C1436 H1432 0.949 . S
C1436 C1444 1.574 . S
C1436 C1452 1.368 . S
H1437 C1445 0.950 . S
H1438 C1443 0.950 . S
H1439 C1444 0.949 . S
H1440 C1446 0.950 . S
H1441 C1447 0.950 . S
H1442 C1448 0.949 . S
C1443 H1438 0.950 . S
C1443 C1445 1.327 . S
C1443 C1449 1.429 . S
C1444 C1436 1.574 . S
C1444 H1439 0.949 . S
C1444 C1450 1.368 . S
C1445 C1429 1.349 . S
C1445 H1437 0.950 . S
C1445 C1443 1.327 . S
C1446 C1434 1.349 . S
C1446 H1440 0.950 . S
C1446 C1447 1.327 . S
C1447 H1441 0.950 . S
C1447 C1446 1.327 . S
C1447 C1451 1.429 . S
C1448 C1431 1.574 . S
C1448 H1442 0.949 . S
C1448 C1452 1.368 . S
C1449 C1430 1.429 . S
C1449 C1443 1.429 . S
C1449 C1450 1.523 . S
C1450 C1431 1.368 . S
C1450 C1444 1.368 . S
C1450 C1449 1.523 . S
C1451 C1435 1.429 . S
C1451 C1447 1.429 . S
C1451 C1452 1.523 . S
C1452 C1436 1.368 . S
C1452 C1448 1.368 . S
C1452 C1451 1.523 . S
H1453 C1428 0.950 . S
H1454 C1430 0.950 . S
H1455 C1431 0.949 . S
H1456 C1433 0.950 . S
H1457 C1435 0.950 . S
C1458 C1459 1.349 . S
C1458 C1460 1.327 . S
C1458 H1483 0.950 . S
C1459 C1458 1.349 . S
C1459 C1475 1.349 . S
C1460 C1458 1.327 . S
C1460 C1479 1.429 . S
C1460 H1484 0.950 . S
C1461 C1478 1.574 . S
C1461 C1480 1.368 . S
C1461 H1485 0.949 . S
H1462 C1466 0.949 . S
C1463 C1464 1.349 . S
C1463 C1465 1.327 . S
C1463 H1486 0.950 . S
C1464 C1463 1.349 . S
C1464 C1476 1.349 . S
C1465 C1463 1.327 . S
C1465 C1481 1.429 . S
C1465 H1487 0.950 . S
C1466 H1462 0.949 . S
C1466 C1474 1.574 . S
C1466 C1482 1.368 . S
H1467 C1475 0.950 . S
H1468 C1473 0.950 . S
H1469 C1474 0.949 . S
H1470 C1476 0.950 . S
H1471 C1477 0.950 . S
H1472 C1478 0.950 1_556 S
C1473 H1468 0.950 . S
C1473 C1475 1.327 . S
C1473 C1479 1.429 . S
C1474 C1466 1.574 . S
C1474 H1469 0.949 . S
C1474 C1480 1.368 . S
C1475 C1459 1.349 . S
C1475 H1467 0.950 . S
C1475 C1473 1.327 . S
C1476 C1464 1.349 . S
C1476 H1470 0.950 . S
C1476 C1477 1.327 . S
C1477 H1471 0.950 . S
C1477 C1476 1.327 . S
C1477 C1481 1.429 . S
C1478 C1461 1.574 . S
C1478 H1472 0.950 1_554 S
C1478 C1482 1.368 . S
C1479 C1460 1.429 . S
C1479 C1473 1.429 . S
C1479 C1480 1.523 . S
C1480 C1461 1.368 . S
C1480 C1474 1.368 . S
C1480 C1479 1.523 . S
C1481 C1465 1.429 . S
C1481 C1477 1.429 . S
C1481 C1482 1.523 1_556 S
C1482 C1466 1.368 . S
C1482 C1478 1.368 . S
C1482 C1481 1.523 1_554 S
H1483 C1458 0.950 . S
H1484 C1460 0.950 . S
H1485 C1461 0.949 . S
H1486 C1463 0.950 . S
H1487 C1465 0.950 . S
C1488 C1489 1.349 . S
C1488 C1490 1.327 . S
C1488 H1513 0.950 . S
C1489 C1488 1.349 . S
C1489 C1505 1.349 . S
C1490 C1488 1.327 . S
C1490 C1509 1.429 . S
C1490 H1514 0.950 . S
C1491 C1508 1.574 . S
C1491 C1510 1.368 . S
C1491 H1515 0.949 . S
H1492 C1496 0.949 . S
C1493 C1494 1.349 . S
C1493 C1495 1.327 . S
C1493 H1516 0.950 . S
C1494 C1493 1.349 . S
C1494 C1506 1.349 . S
C1495 C1493 1.327 . S
C1495 C1511 1.429 . S
C1495 H1517 0.950 . S
C1496 H1492 0.949 . S
C1496 C1504 1.574 . S
C1496 C1512 1.368 . S
H1497 C1505 0.950 . S
H1498 C1503 0.950 . S
H1499 C1504 0.949 . S
H1500 C1506 0.950 . S
H1501 C1507 0.950 . S
H1502 C1508 0.949 . S
C1503 H1498 0.950 . S
C1503 C1505 1.327 . S
C1503 C1509 1.429 . S
C1504 C1496 1.574 . S
C1504 H1499 0.949 . S
C1504 C1510 1.368 . S
C1505 C1489 1.349 . S
C1505 H1497 0.950 . S
C1505 C1503 1.327 . S
C1506 C1494 1.349 . S
C1506 H1500 0.950 . S
C1506 C1507 1.327 . S
C1507 H1501 0.950 . S
C1507 C1506 1.327 . S
C1507 C1511 1.429 . S
C1508 C1491 1.574 . S
C1508 H1502 0.949 . S
C1508 C1512 1.368 . S
C1509 C1490 1.429 . S
C1509 C1503 1.429 . S
C1509 C1510 1.523 . S
C1510 C1491 1.368 . S
C1510 C1504 1.368 . S
C1510 C1509 1.523 . S
C1511 C1495 1.429 . S
C1511 C1507 1.429 . S
C1511 C1512 1.523 . S
C1512 C1496 1.368 . S
C1512 C1508 1.368 . S
C1512 C1511 1.523 . S
H1513 C1488 0.950 . S
H1514 C1490 0.950 . S
H1515 C1491 0.949 . S
H1516 C1493 0.950 . S
H1517 C1495 0.950 . S
C1518 C1519 1.349 . S
C1518 C1520 1.327 . S
C1518 H1543 0.950 . S
C1519 C1518 1.349 . S
C1519 C1535 1.349 . S
C1520 C1518 1.327 . S
C1520 C1539 1.429 . S
C1520 H1544 0.950 . S
C1521 C1538 1.574 . S
C1521 C1540 1.368 . S
C1521 H1545 0.949 1_556 S
H1522 C1526 0.949 . S
C1523 C1524 1.349 . S
C1523 C1525 1.327 . S
C1523 H1546 0.950 . S
C1524 C1523 1.349 . S
C1524 C1536 1.349 . S
C1525 C1523 1.327 . S
C1525 C1541 1.429 . S
C1525 H1547 0.950 . S
C1526 H1522 0.949 . S
C1526 C1534 1.574 . S
C1526 C1542 1.368 . S
H1527 C1535 0.950 . S
H1528 C1533 0.950 . S
H1529 C1534 0.949 . S
H1530 C1536 0.950 . S
H1531 C1537 0.950 . S
H1532 C1538 0.949 . S
C1533 H1528 0.950 . S
C1533 C1535 1.327 . S
C1533 C1539 1.429 . S
C1534 C1526 1.574 . S
C1534 H1529 0.949 . S
C1534 C1540 1.368 . S
C1535 C1519 1.349 . S
C1535 H1527 0.950 . S
C1535 C1533 1.327 . S
C1536 C1524 1.349 . S
C1536 H1530 0.950 . S
C1536 C1537 1.327 . S
C1537 H1531 0.950 . S
C1537 C1536 1.327 . S
C1537 C1541 1.429 . S
C1538 C1521 1.574 . S
C1538 H1532 0.949 . S
C1538 C1542 1.368 . S
C1539 C1520 1.429 . S
C1539 C1533 1.429 . S
C1539 C1540 1.523 1_554 S
C1540 C1521 1.368 . S
C1540 C1534 1.368 . S
C1540 C1539 1.523 1_556 S
C1541 C1525 1.429 . S
C1541 C1537 1.429 . S
C1541 C1542 1.523 . S
C1542 C1526 1.368 . S
C1542 C1538 1.368 . S
C1542 C1541 1.523 . S
H1543 C1518 0.950 . S
H1544 C1520 0.950 . S
H1545 C1521 0.949 1_554 S
H1546 C1523 0.950 . S
H1547 C1525 0.950 . S
C1548 C1549 1.349 . S
C1548 C1550 1.327 . S
C1548 H1573 0.950 . S
C1549 C1548 1.349 . S
C1549 C1565 1.349 . S
C1550 C1548 1.327 . S
C1550 C1569 1.429 . S
C1550 H1574 0.950 . S
C1551 C1568 1.574 . S
C1551 C1570 1.368 . S
C1551 H1575 0.949 . S
H1552 C1556 0.949 . S
C1553 C1554 1.349 . S
C1553 C1555 1.327 . S
C1553 H1576 0.950 . S
C1554 C1553 1.349 . S
C1554 C1566 1.349 . S
C1555 C1553 1.327 . S
C1555 C1571 1.429 . S
C1555 H1577 0.950 . S
C1556 H1552 0.949 . S
C1556 C1564 1.574 . S
C1556 C1572 1.368 . S
H1557 C1565 0.950 . S
H1558 C1563 0.950 . S
H1559 C1564 0.949 . S
H1560 C1566 0.950 . S
H1561 C1567 0.950 . S
H1562 C1568 0.949 . S
C1563 H1558 0.950 . S
C1563 C1565 1.327 . S
C1563 C1569 1.429 . S
C1564 C1556 1.574 . S
C1564 H1559 0.949 . S
C1564 C1570 1.368 . S
C1565 C1549 1.349 . S
C1565 H1557 0.950 . S
C1565 C1563 1.327 . S
C1566 C1554 1.349 . S
C1566 H1560 0.950 . S
C1566 C1567 1.327 . S
C1567 H1561 0.950 . S
C1567 C1566 1.327 . S
C1567 C1571 1.429 . S
C1568 C1551 1.574 . S
C1568 H1562 0.949 . S
C1568 C1572 1.368 . S
C1569 C1550 1.429 . S
C1569 C1563 1.429 . S
C1569 C1570 1.523 . S
C1570 C1551 1.368 . S
C1570 C1564 1.368 . S
C1570 C1569 1.523 . S
C1571 C1555 1.429 . S
C1571 C1567 1.429 . S
C1571 C1572 1.523 . S
C1572 C1556 1.368 . S
C1572 C1568 1.368 . S
C1572 C1571 1.523 . S
H1573 C1548 0.950 . S
H1574 C1550 0.950 . S
H1575 C1551 0.949 . S
H1576 C1553 0.950 . S
H1577 C1555 0.950 . S
C1578 C1579 1.349 . S
C1578 C1580 1.327 . S
C1578 H1603 0.950 . S
C1579 C1578 1.349 . S
C1579 C1595 1.349 . S
C1580 C1578 1.327 . S
C1580 C1599 1.429 . S
C1580 H1604 0.950 . S
C1581 C1598 1.574 . S
C1581 C1600 1.368 . S
C1581 H1605 0.949 . S
H1582 C1586 0.949 . S
C1583 C1584 1.349 . S
C1583 C1585 1.327 . S
C1583 H1606 0.950 . S
C1584 C1583 1.349 . S
C1584 C1596 1.349 . S
C1585 C1583 1.327 . S
C1585 C1601 1.429 . S
C1585 H1607 0.950 . S
C1586 H1582 0.949 . S
C1586 C1594 1.574 . S
C1586 C1602 1.368 . S
H1587 C1595 0.950 . S
H1588 C1593 0.950 . S
H1589 C1594 0.949 . S
H1590 C1596 0.950 . S
H1591 C1597 0.950 . S
H1592 C1598 0.949 . S
C1593 H1588 0.950 . S
C1593 C1595 1.327 . S
C1593 C1599 1.429 . S
C1594 C1586 1.574 . S
C1594 H1589 0.949 . S
C1594 C1600 1.368 . S
C1595 C1579 1.349 . S
C1595 H1587 0.950 . S
C1595 C1593 1.327 . S
C1596 C1584 1.349 . S
C1596 H1590 0.950 . S
C1596 C1597 1.327 . S
C1597 H1591 0.950 . S
C1597 C1596 1.327 . S
C1597 C1601 1.429 . S
C1598 C1581 1.574 . S
C1598 H1592 0.949 . S
C1598 C1602 1.368 . S
C1599 C1580 1.429 . S
C1599 C1593 1.429 . S
C1599 C1600 1.523 . S
C1600 C1581 1.368 . S
C1600 C1594 1.368 . S
C1600 C1599 1.523 . S
C1601 C1585 1.429 . S
C1601 C1597 1.429 . S
C1601 C1602 1.523 . S
C1602 C1586 1.368 . S
C1602 C1598 1.368 . S
C1602 C1601 1.523 . S
H1603 C1578 0.950 . S
H1604 C1580 0.950 . S
H1605 C1581 0.949 . S
H1606 C1583 0.950 . S
H1607 C1585 0.950 . S
C1608 C1609 1.349 . S
C1608 C1610 1.327 . S
C1608 H1633 0.950 . S
C1609 C1608 1.349 . S
C1609 C1625 1.349 . S
C1610 C1608 1.327 . S
C1610 C1629 1.429 . S
C1610 H1634 0.950 . S
C1611 C1628 1.574 . S
C1611 C1630 1.368 . S
C1611 H1635 0.949 . S
H1612 C1616 0.949 . S
C1613 C1614 1.349 . S
C1613 C1615 1.327 . S
C1613 H1636 0.950 . S
C1614 C1613 1.349 . S
C1614 C1626 1.349 . S
C1615 C1613 1.327 . S
C1615 C1631 1.429 . S
C1615 H1637 0.950 . S
C1616 H1612 0.949 . S
C1616 C1624 1.574 . S
C1616 C1632 1.368 . S
H1617 C1625 0.950 . S
H1618 C1623 0.950 . S
H1619 C1624 0.949 . S
H1620 C1626 0.950 . S
H1621 C1627 0.950 . S
H1622 C1628 0.949 . S
C1623 H1618 0.950 . S
C1623 C1625 1.327 . S
C1623 C1629 1.429 . S
C1624 C1616 1.574 . S
C1624 H1619 0.949 . S
C1624 C1630 1.368 . S
C1625 C1609 1.349 . S
C1625 H1617 0.950 . S
C1625 C1623 1.327 . S
C1626 C1614 1.349 . S
C1626 H1620 0.950 . S
C1626 C1627 1.327 . S
C1627 H1621 0.950 . S
C1627 C1626 1.327 . S
C1627 C1631 1.429 . S
C1628 C1611 1.574 . S
C1628 H1622 0.949 . S
C1628 C1632 1.368 . S
C1629 C1610 1.429 . S
C1629 C1623 1.429 . S
C1629 C1630 1.523 . S
C1630 C1611 1.368 . S
C1630 C1624 1.368 . S
C1630 C1629 1.523 . S
C1631 C1615 1.429 . S
C1631 C1627 1.429 . S
C1631 C1632 1.523 . S
C1632 C1616 1.368 . S
C1632 C1628 1.368 . S
C1632 C1631 1.523 . S
H1633 C1608 0.950 . S
H1634 C1610 0.950 . S
H1635 C1611 0.949 . S
H1636 C1613 0.950 . S
H1637 C1615 0.950 . S
C1638 C1639 1.349 . S
C1638 C1640 1.327 . S
C1638 H1663 0.950 . S
C1639 C1638 1.349 . S
C1639 C1655 1.349 . S
C1640 C1638 1.327 . S
C1640 C1659 1.429 . S
C1640 H1664 0.950 . S
C1641 C1658 1.574 1_545 S
C1641 C1660 1.368 . S
C1641 H1665 0.949 . S
H1642 C1646 0.949 . S
C1643 C1644 1.349 . S
C1643 C1645 1.327 . S
C1643 H1666 0.950 . S
C1644 C1643 1.349 . S
C1644 C1656 1.349 . S
C1645 C1643 1.327 . S
C1645 C1661 1.429 . S
C1645 H1667 0.950 . S
C1646 H1642 0.949 . S
C1646 C1654 1.574 . S
C1646 C1662 1.379 . S
H1647 C1655 0.950 . S
H1648 C1653 0.950 . S
H1649 C1654 0.949 . S
H1650 C1656 0.950 . S
H1651 C1657 0.950 . S
H1652 C1658 0.949 . S
C1653 H1648 0.950 . S
C1653 C1655 1.327 . S
C1653 C1659 1.429 . S
C1654 C1646 1.574 . S
C1654 H1649 0.949 . S
C1654 C1660 1.368 . S
C1655 C1639 1.349 . S
C1655 H1647 0.950 . S
C1655 C1653 1.327 . S
C1656 C1644 1.349 . S
C1656 H1650 0.950 . S
C1656 C1657 1.327 . S
C1657 H1651 0.950 . S
C1657 C1656 1.327 . S
C1657 C1661 1.429 . S
C1658 C1641 1.574 1_565 S
C1658 H1652 0.949 . S
C1658 C1662 1.367 1_565 S
C1659 C1640 1.429 . S
C1659 C1653 1.429 . S
C1659 C1660 1.523 . S
C1660 C1641 1.368 . S
C1660 C1654 1.368 . S
C1660 C1659 1.523 . S
C1661 C1645 1.429 . S
C1661 C1657 1.429 . S
C1661 C1662 1.512 1_565 S
C1662 C1646 1.379 . S
C1662 C1658 1.367 1_545 S
C1662 C1661 1.512 1_545 S
H1663 C1638 0.950 . S
H1664 C1640 0.950 . S
H1665 C1641 0.949 . S
H1666 C1643 0.950 . S
H1667 C1645 0.950 . S
C1668 C1669 1.349 . S
C1668 C1670 1.327 . S
C1668 H1693 0.950 . S
C1669 C1668 1.349 . S
C1669 C1685 1.349 . S
C1670 C1668 1.327 . S
C1670 C1689 1.429 . S
C1670 H1694 0.950 . S
C1671 C1688 1.574 . S
C1671 C1690 1.368 . S
C1671 H1695 0.949 . S
H1672 C1676 0.949 . S
C1673 C1674 1.349 . S
C1673 C1675 1.327 . S
C1673 H1696 0.950 . S
C1674 C1673 1.349 . S
C1674 C1686 1.349 . S
C1675 C1673 1.327 . S
C1675 C1691 1.429 . S
C1675 H1697 0.950 . S
C1676 H1672 0.949 . S
C1676 C1684 1.574 . S
C1676 C1692 1.368 . S
H1677 C1685 0.950 . S
H1678 C1683 0.950 . S
H1679 C1684 0.949 . S
H1680 C1686 0.950 . S
H1681 C1687 0.950 . S
H1682 C1688 0.949 . S
C1683 H1678 0.950 . S
C1683 C1685 1.327 . S
C1683 C1689 1.429 . S
C1684 C1676 1.574 . S
C1684 H1679 0.949 . S
C1684 C1690 1.368 . S
C1685 C1669 1.349 . S
C1685 H1677 0.950 . S
C1685 C1683 1.327 . S
C1686 C1674 1.349 . S
C1686 H1680 0.950 . S
C1686 C1687 1.327 . S
C1687 H1681 0.950 . S
C1687 C1686 1.327 . S
C1687 C1691 1.429 . S
C1688 C1671 1.574 . S
C1688 H1682 0.949 . S
C1688 C1692 1.368 . S
C1689 C1670 1.429 . S
C1689 C1683 1.429 . S
C1689 C1690 1.523 . S
C1690 C1671 1.368 . S
C1690 C1684 1.368 . S
C1690 C1689 1.523 . S
C1691 C1675 1.429 . S
C1691 C1687 1.429 . S
C1691 C1692 1.523 . S
C1692 C1676 1.368 . S
C1692 C1688 1.368 . S
C1692 C1691 1.523 . S
H1693 C1668 0.950 . S
H1694 C1670 0.950 . S
H1695 C1671 0.949 . S
H1696 C1673 0.950 . S
H1697 C1675 0.950 . S
C1698 C1699 1.349 . S
C1698 C1700 1.327 . S
C1698 H1723 0.950 . S
C1699 C1698 1.349 . S
C1699 C1715 1.349 . S
C1700 C1698 1.327 . S
C1700 C1719 1.429 . S
C1700 H1724 0.950 . S
C1701 C1718 1.574 . S
C1701 C1720 1.368 . S
C1701 H1725 0.949 1_565 S
H1702 C1706 0.949 . S
C1703 C1704 1.349 . S
C1703 C1705 1.327 . S
C1703 H1726 0.950 . S
C1704 C1703 1.349 . S
C1704 C1716 1.349 . S
C1705 C1703 1.327 . S
C1705 C1721 1.429 . S
C1705 H1727 0.950 . S
C1706 H1702 0.949 . S
C1706 C1714 1.574 . S
C1706 C1722 1.368 . S
H1707 C1715 0.950 . S
H1708 C1713 0.950 . S
H1709 C1714 0.949 . S
H1710 C1716 0.950 . S
H1711 C1717 0.950 . S
H1712 C1718 0.949 . S
C1713 H1708 0.950 . S
C1713 C1715 1.327 . S
C1713 C1719 1.429 . S
C1714 C1706 1.574 . S
C1714 H1709 0.949 . S
C1714 C1720 1.368 . S
C1715 C1699 1.349 . S
C1715 H1707 0.950 . S
C1715 C1713 1.327 . S
C1716 C1704 1.349 . S
C1716 H1710 0.950 . S
C1716 C1717 1.327 . S
C1717 H1711 0.950 . S
C1717 C1716 1.327 . S
C1717 C1721 1.429 . S
C1718 C1701 1.574 . S
C1718 H1712 0.949 . S
C1718 C1722 1.368 . S
C1719 C1700 1.429 . S
C1719 C1713 1.429 . S
C1719 C1720 1.523 1_545 S
C1720 C1701 1.368 . S
C1720 C1714 1.368 . S
C1720 C1719 1.523 1_565 S
C1721 C1705 1.429 . S
C1721 C1717 1.429 . S
C1721 C1722 1.523 . S
C1722 C1706 1.368 . S
C1722 C1718 1.368 . S
C1722 C1721 1.523 . S
H1723 C1698 0.950 . S
H1724 C1700 0.950 . S
H1725 C1701 0.949 1_545 S
H1726 C1703 0.950 . S
H1727 C1705 0.950 . S
C1728 C1729 1.349 . S
C1728 C1730 1.327 . S
C1728 H1753 0.950 . S
C1729 C1728 1.349 . S
C1729 C1745 1.349 . S
C1730 C1728 1.327 . S
C1730 C1749 1.429 . S
C1730 H1754 0.950 . S
C1731 C1748 1.574 . S
C1731 C1750 1.368 . S
C1731 H1755 0.949 . S
H1732 C1736 0.949 . S
C1733 C1734 1.349 . S
C1733 C1735 1.327 . S
C1733 H1756 0.950 . S
C1734 C1733 1.349 . S
C1734 C1746 1.349 . S
C1735 C1733 1.327 . S
C1735 C1751 1.429 . S
C1735 H1757 0.950 . S
C1736 H1732 0.949 . S
C1736 C1744 1.574 . S
C1736 C1752 1.368 . S
H1737 C1745 0.950 . S
H1738 C1743 0.950 . S
H1739 C1744 0.949 . S
H1740 C1746 0.950 . S
H1741 C1747 0.950 . S
H1742 C1748 0.949 . S
C1743 H1738 0.950 . S
C1743 C1745 1.327 . S
C1743 C1749 1.429 . S
C1744 C1736 1.574 . S
C1744 H1739 0.949 . S
C1744 C1750 1.368 . S
C1745 C1729 1.349 . S
C1745 H1737 0.950 . S
C1745 C1743 1.327 . S
C1746 C1734 1.349 . S
C1746 H1740 0.950 . S
C1746 C1747 1.327 . S
C1747 H1741 0.950 . S
C1747 C1746 1.327 . S
C1747 C1751 1.429 . S
C1748 C1731 1.574 . S
C1748 H1742 0.949 . S
C1748 C1752 1.368 . S
C1749 C1730 1.429 . S
C1749 C1743 1.429 . S
C1749 C1750 1.523 . S
C1750 C1731 1.368 . S
C1750 C1744 1.368 . S
C1750 C1749 1.523 . S
C1751 C1735 1.429 . S
C1751 C1747 1.429 . S
C1751 C1752 1.523 . S
C1752 C1736 1.368 . S
C1752 C1748 1.368 . S
C1752 C1751 1.523 . S
H1753 C1728 0.950 . S
H1754 C1730 0.950 . S
H1755 C1731 0.949 . S
H1756 C1733 0.950 . S
H1757 C1735 0.950 . S
C1758 C1759 1.349 . S
C1758 C1760 1.327 . S
C1758 H1783 0.950 . S
C1759 C1758 1.349 . S
C1759 C1775 1.349 . S
C1760 C1758 1.327 . S
C1760 C1779 1.429 . S
C1760 H1784 0.950 . S
C1761 C1778 1.574 . S
C1761 C1780 1.368 . S
C1761 H1785 0.949 . S
H1762 C1766 0.949 . S
C1763 C1764 1.349 . S
C1763 C1765 1.327 . S
C1763 H1786 0.950 . S
C1764 C1763 1.349 . S
C1764 C1776 1.349 . S
C1765 C1763 1.327 . S
C1765 C1781 1.429 . S
C1765 H1787 0.950 . S
C1766 H1762 0.949 . S
C1766 C1774 1.574 . S
C1766 C1782 1.368 . S
H1767 C1775 0.950 . S
H1768 C1773 0.950 . S
H1769 C1774 0.949 . S
H1770 C1776 0.950 . S
H1771 C1777 0.950 . S
H1772 C1778 0.949 . S
C1773 H1768 0.950 . S
C1773 C1775 1.327 . S
C1773 C1779 1.429 . S
C1774 C1766 1.574 . S
C1774 H1769 0.949 . S
C1774 C1780 1.368 . S
C1775 C1759 1.349 . S
C1775 H1767 0.950 . S
C1775 C1773 1.327 . S
C1776 C1764 1.349 . S
C1776 H1770 0.950 . S
C1776 C1777 1.327 . S
C1777 H1771 0.950 . S
C1777 C1776 1.327 . S
C1777 C1781 1.429 . S
C1778 C1761 1.574 . S
C1778 H1772 0.949 . S
C1778 C1782 1.368 . S
C1779 C1760 1.429 . S
C1779 C1773 1.429 . S
C1779 C1780 1.523 . S
C1780 C1761 1.368 . S
C1780 C1774 1.368 . S
C1780 C1779 1.523 . S
C1781 C1765 1.429 . S
C1781 C1777 1.429 . S
C1781 C1782 1.523 . S
C1782 C1766 1.368 . S
C1782 C1778 1.368 . S
C1782 C1781 1.523 . S
H1783 C1758 0.950 . S
H1784 C1760 0.950 . S
H1785 C1761 0.949 . S
H1786 C1763 0.950 . S
H1787 C1765 0.950 . S
C1788 C1789 1.349 . S
C1788 C1790 1.327 . S
C1788 H1813 0.950 . S
C1789 C1788 1.349 . S
C1789 C1805 1.349 . S
C1790 C1788 1.327 . S
C1790 C1809 1.429 . S
C1790 H1814 0.950 . S
C1791 C1808 1.574 . S
C1791 C1810 1.368 . S
C1791 H1815 0.949 . S
H1792 C1796 0.949 . S
C1793 C1794 1.349 . S
C1793 C1795 1.327 . S
C1793 H1816 0.950 . S
C1794 C1793 1.349 . S
C1794 C1806 1.349 . S
C1795 C1793 1.327 . S
C1795 C1811 1.429 . S
C1795 H1817 0.950 . S
C1796 H1792 0.949 . S
C1796 C1804 1.574 . S
C1796 C1812 1.368 . S
H1797 C1805 0.950 . S
H1798 C1803 0.950 . S
H1799 C1804 0.949 . S
H1800 C1806 0.950 . S
H1801 C1807 0.950 . S
H1802 C1808 0.949 . S
C1803 H1798 0.950 . S
C1803 C1805 1.327 . S
C1803 C1809 1.429 . S
C1804 C1796 1.574 . S
C1804 H1799 0.949 . S
C1804 C1810 1.368 . S
C1805 C1789 1.349 . S
C1805 H1797 0.950 . S
C1805 C1803 1.327 . S
C1806 C1794 1.349 . S
C1806 H1800 0.950 . S
C1806 C1807 1.327 . S
C1807 H1801 0.950 . S
C1807 C1806 1.327 . S
C1807 C1811 1.429 . S
C1808 C1791 1.574 . S
C1808 H1802 0.949 . S
C1808 C1812 1.368 . S
C1809 C1790 1.429 . S
C1809 C1803 1.429 . S
C1809 C1810 1.523 . S
C1810 C1791 1.368 . S
C1810 C1804 1.368 . S
C1810 C1809 1.523 . S
C1811 C1795 1.429 . S
C1811 C1807 1.429 . S
C1811 C1812 1.523 . S
C1812 C1796 1.368 . S
C1812 C1808 1.368 . S
C1812 C1811 1.523 . S
H1813 C1788 0.950 . S
H1814 C1790 0.950 . S
H1815 C1791 0.949 . S
H1816 C1793 0.950 . S
H1817 C1795 0.950 . S
C1818 C1819 1.349 . S
C1818 C1820 1.327 . S
C1818 H1843 0.950 . S
C1819 C1818 1.349 . S
C1819 C1835 1.349 . S
C1820 C1818 1.327 . S
C1820 C1839 1.429 . S
C1820 H1844 0.950 . S
C1821 C1838 1.574 . S
C1821 C1840 1.368 . S
C1821 H1845 0.949 . S
H1822 C1826 0.949 . S
C1823 C1824 1.349 . S
C1823 C1825 1.327 . S
C1823 H1846 0.950 . S
C1824 C1823 1.349 . S
C1824 C1836 1.349 . S
C1825 C1823 1.327 . S
C1825 C1841 1.429 . S
C1825 H1847 0.950 . S
C1826 H1822 0.949 . S
C1826 C1834 1.574 . S
C1826 C1842 1.368 . S
H1827 C1835 0.950 . S
H1828 C1833 0.950 . S
H1829 C1834 0.949 . S
H1830 C1836 0.950 . S
H1831 C1837 0.950 . S
H1832 C1838 0.949 . S
C1833 H1828 0.950 . S
C1833 C1835 1.327 . S
C1833 C1839 1.429 . S
C1834 C1826 1.574 . S
C1834 H1829 0.949 . S
C1834 C1840 1.368 . S
C1835 C1819 1.349 . S
C1835 H1827 0.950 . S
C1835 C1833 1.327 . S
C1836 C1824 1.349 . S
C1836 H1830 0.950 . S
C1836 C1837 1.327 . S
C1837 H1831 0.950 . S
C1837 C1836 1.327 . S
C1837 C1841 1.429 . S
C1838 C1821 1.574 . S
C1838 H1832 0.949 . S
C1838 C1842 1.368 . S
C1839 C1820 1.429 . S
C1839 C1833 1.429 . S
C1839 C1840 1.523 . S
C1840 C1821 1.368 . S
C1840 C1834 1.368 . S
C1840 C1839 1.523 . S
C1841 C1825 1.429 . S
C1841 C1837 1.429 . S
C1841 C1842 1.523 . S
C1842 C1826 1.368 . S
C1842 C1838 1.368 . S
C1842 C1841 1.523 . S
H1843 C1818 0.950 . S
H1844 C1820 0.950 . S
H1845 C1821 0.949 . S
H1846 C1823 0.950 . S
H1847 C1825 0.950 . S
C1848 C1849 1.349 . S
C1848 C1850 1.327 . S
C1848 H1873 0.950 . S
C1849 C1848 1.349 . S
C1849 C1865 1.349 . S
C1850 C1848 1.327 . S
C1850 C1869 1.429 . S
C1850 H1874 0.950 . S
C1851 C1868 1.574 . S
C1851 C1870 1.368 . S
C1851 H1875 0.949 . S
H1852 C1856 0.949 . S
C1853 C1854 1.349 . S
C1853 C1855 1.327 . S
C1853 H1876 0.950 . S
C1854 C1853 1.349 . S
C1854 C1866 1.349 . S
C1855 C1853 1.327 . S
C1855 C1871 1.429 . S
C1855 H1877 0.950 . S
C1856 H1852 0.949 . S
C1856 C1864 1.574 . S
C1856 C1872 1.368 . S
H1857 C1865 0.950 . S
H1858 C1863 0.950 . S
H1859 C1864 0.949 . S
H1860 C1866 0.950 . S
H1861 C1867 0.950 . S
H1862 C1868 0.949 . S
C1863 H1858 0.950 . S
C1863 C1865 1.327 . S
C1863 C1869 1.429 . S
C1864 C1856 1.574 . S
C1864 H1859 0.949 . S
C1864 C1870 1.368 . S
C1865 C1849 1.349 . S
C1865 H1857 0.950 . S
C1865 C1863 1.327 . S
C1866 C1854 1.349 . S
C1866 H1860 0.950 . S
C1866 C1867 1.327 . S
C1867 H1861 0.950 . S
C1867 C1866 1.327 . S
C1867 C1871 1.429 . S
C1868 C1851 1.574 . S
C1868 H1862 0.949 . S
C1868 C1872 1.368 . S
C1869 C1850 1.429 . S
C1869 C1863 1.429 . S
C1869 C1870 1.523 . S
C1870 C1851 1.368 . S
C1870 C1864 1.368 . S
C1870 C1869 1.523 . S
C1871 C1855 1.429 . S
C1871 C1867 1.429 . S
C1871 C1872 1.523 . S
C1872 C1856 1.368 . S
C1872 C1868 1.368 . S
C1872 C1871 1.523 . S
H1873 C1848 0.950 . S
H1874 C1850 0.950 . S
H1875 C1851 0.949 . S
H1876 C1853 0.950 . S
H1877 C1855 0.950 . S
C1878 C1879 1.349 . S
C1878 C1880 1.327 . S
C1878 H1903 0.950 . S
C1879 C1878 1.349 . S
C1879 C1895 1.349 . S
C1880 C1878 1.327 . S
C1880 C1899 1.429 . S
C1880 H1904 0.950 . S
C1881 C1898 1.574 . S
C1881 C1900 1.368 . S
C1881 H1905 0.949 . S
H1882 C1886 0.949 . S
C1883 C1884 1.349 . S
C1883 C1885 1.327 . S
C1883 H1906 0.950 . S
C1884 C1883 1.349 . S
C1884 C1896 1.349 . S
C1885 C1883 1.327 . S
C1885 C1901 1.429 . S
C1885 H1907 0.950 . S
C1886 H1882 0.949 . S
C1886 C1894 1.574 . S
C1886 C1902 1.368 . S
H1887 C1895 0.950 . S
H1888 C1893 0.950 . S
H1889 C1894 0.949 . S
H1890 C1896 0.950 . S
H1891 C1897 0.950 . S
H1892 C1898 0.949 . S
C1893 H1888 0.950 . S
C1893 C1895 1.327 . S
C1893 C1899 1.429 . S
C1894 C1886 1.574 . S
C1894 H1889 0.949 . S
C1894 C1900 1.368 . S
C1895 C1879 1.349 . S
C1895 H1887 0.950 . S
C1895 C1893 1.327 . S
C1896 C1884 1.349 . S
C1896 H1890 0.950 . S
C1896 C1897 1.327 . S
C1897 H1891 0.950 . S
C1897 C1896 1.327 . S
C1897 C1901 1.429 . S
C1898 C1881 1.574 . S
C1898 H1892 0.949 . S
C1898 C1902 1.368 . S
C1899 C1880 1.429 . S
C1899 C1893 1.429 . S
C1899 C1900 1.523 . S
C1900 C1881 1.368 . S
C1900 C1894 1.368 . S
C1900 C1899 1.523 . S
C1901 C1885 1.429 . S
C1901 C1897 1.429 . S
C1901 C1902 1.523 . S
C1902 C1886 1.368 . S
C1902 C1898 1.368 . S
C1902 C1901 1.523 . S
H1903 C1878 0.950 . S
H1904 C1880 0.950 . S
H1905 C1881 0.949 . S
H1906 C1883 0.950 . S
H1907 C1885 0.950 . S
C1908 C1909 1.349 . S
C1908 C1910 1.327 . S
C1908 H1933 0.950 . S
C1909 C1908 1.349 . S
C1909 C1925 1.349 . S
C1910 C1908 1.327 . S
C1910 C1929 1.429 . S
C1910 H1934 0.950 . S
C1911 C1928 1.574 . S
C1911 C1930 1.368 . S
C1911 H1935 0.949 . S
H1912 C1916 0.949 . S
C1913 C1914 1.349 . S
C1913 C1915 1.327 . S
C1913 H1936 0.950 . S
C1914 C1913 1.349 . S
C1914 C1926 1.349 . S
C1915 C1913 1.327 . S
C1915 C1931 1.429 . S
C1915 H1937 0.950 . S
C1916 H1912 0.949 . S
C1916 C1924 1.574 . S
C1916 C1932 1.368 . S
H1917 C1925 0.950 . S
H1918 C1923 0.950 . S
H1919 C1924 0.949 . S
H1920 C1926 0.950 . S
H1921 C1927 0.950 . S
H1922 C1928 0.949 . S
C1923 H1918 0.950 . S
C1923 C1925 1.327 . S
C1923 C1929 1.429 . S
C1924 C1916 1.574 . S
C1924 H1919 0.949 . S
C1924 C1930 1.368 . S
C1925 C1909 1.349 . S
C1925 H1917 0.950 . S
C1925 C1923 1.327 . S
C1926 C1914 1.349 . S
C1926 H1920 0.950 . S
C1926 C1927 1.327 . S
C1927 H1921 0.950 . S
C1927 C1926 1.327 . S
C1927 C1931 1.429 . S
C1928 C1911 1.574 . S
C1928 H1922 0.949 . S
C1928 C1932 1.368 . S
C1929 C1910 1.429 . S
C1929 C1923 1.429 . S
C1929 C1930 1.523 . S
C1930 C1911 1.368 . S
C1930 C1924 1.368 . S
C1930 C1929 1.523 . S
C1931 C1915 1.429 . S
C1931 C1927 1.429 . S
C1931 C1932 1.523 1_655 S
C1932 C1916 1.368 . S
C1932 C1928 1.368 . S
C1932 C1931 1.523 1_455 S
H1933 C1908 0.950 . S
H1934 C1910 0.950 . S
H1935 C1911 0.949 . S
H1936 C1913 0.950 . S
H1937 C1915 0.950 . S
C1938 C1939 1.349 . S
C1938 C1940 1.327 . S
C1938 H1963 0.950 . S
C1939 C1938 1.349 . S
C1939 C1955 1.349 . S
C1940 C1938 1.327 . S
C1940 C1959 1.429 . S
C1940 H1964 0.950 . S
C1941 C1958 1.574 . S
C1941 C1960 1.368 . S
C1941 H1965 0.949 . S
H1942 C1946 0.949 . S
C1943 C1944 1.349 . S
C1943 C1945 1.327 . S
C1943 H1966 0.950 . S
C1944 C1943 1.349 . S
C1944 C1956 1.349 . S
C1945 C1943 1.327 . S
C1945 C1961 1.429 . S
C1945 H1967 0.950 . S
C1946 H1942 0.949 . S
C1946 C1954 1.574 . S
C1946 C1962 1.368 . S
H1947 C1955 0.950 . S
H1948 C1953 0.950 . S
H1949 C1954 0.949 . S
H1950 C1956 0.950 . S
H1951 C1957 0.950 . S
H1952 C1958 0.949 . S
C1953 H1948 0.950 . S
C1953 C1955 1.327 . S
C1953 C1959 1.429 . S
C1954 C1946 1.574 . S
C1954 H1949 0.949 . S
C1954 C1960 1.368 . S
C1955 C1939 1.349 . S
C1955 H1947 0.950 . S
C1955 C1953 1.327 . S
C1956 C1944 1.349 . S
C1956 H1950 0.950 . S
C1956 C1957 1.327 . S
C1957 H1951 0.950 . S
C1957 C1956 1.327 . S
C1957 C1961 1.429 . S
C1958 C1941 1.574 . S
C1958 H1952 0.949 . S
C1958 C1962 1.368 . S
C1959 C1940 1.429 . S
C1959 C1953 1.429 . S
C1959 C1960 1.523 . S
C1960 C1941 1.368 . S
C1960 C1954 1.368 . S
C1960 C1959 1.523 . S
C1961 C1945 1.429 . S
C1961 C1957 1.429 . S
C1961 C1962 1.523 . S
C1962 C1946 1.368 . S
C1962 C1958 1.368 . S
C1962 C1961 1.523 . S
H1963 C1938 0.950 . S
H1964 C1940 0.950 . S
H1965 C1941 0.949 . S
H1966 C1943 0.950 . S
H1967 C1945 0.950 . S
C1968 C1969 1.349 . S
C1968 C1970 1.327 . S
C1968 H1993 0.950 . S
C1969 C1968 1.349 . S
C1969 C1985 1.349 . S
C1970 C1968 1.327 . S
C1970 C1989 1.429 . S
C1970 H1994 0.950 . S
C1971 C1988 1.574 . S
C1971 C1990 1.368 . S
C1971 H1995 0.949 . S
H1972 C1976 0.949 . S
C1973 C1974 1.349 . S
C1973 C1975 1.327 . S
C1973 H1996 0.950 . S
C1974 C1973 1.349 . S
C1974 C1986 1.349 . S
C1975 C1973 1.327 . S
C1975 C1991 1.429 . S
C1975 H1997 0.950 . S
C1976 H1972 0.949 . S
C1976 C1984 1.574 . S
C1976 C1992 1.368 . S
H1977 C1985 0.950 . S
H1978 C1983 0.950 . S
H1979 C1984 0.949 . S
H1980 C1986 0.950 . S
H1981 C1987 0.950 . S
H1982 C1988 0.949 . S
C1983 H1978 0.950 . S
C1983 C1985 1.327 . S
C1983 C1989 1.429 . S
C1984 C1976 1.574 . S
C1984 H1979 0.949 . S
C1984 C1990 1.368 . S
C1985 C1969 1.349 . S
C1985 H1977 0.950 . S
C1985 C1983 1.327 . S
C1986 C1974 1.349 . S
C1986 H1980 0.950 . S
C1986 C1987 1.327 . S
C1987 H1981 0.950 . S
C1987 C1986 1.327 . S
C1987 C1991 1.429 . S
C1988 C1971 1.574 . S
C1988 H1982 0.949 . S
C1988 C1992 1.368 . S
C1989 C1970 1.429 . S
C1989 C1983 1.429 . S
C1989 C1990 1.523 . S
C1990 C1971 1.368 . S
C1990 C1984 1.368 . S
C1990 C1989 1.523 . S
C1991 C1975 1.429 . S
C1991 C1987 1.429 . S
C1991 C1992 1.523 . S
C1992 C1976 1.368 . S
C1992 C1988 1.368 . S
C1992 C1991 1.523 . S
H1993 C1968 0.950 . S
H1994 C1970 0.950 . S
H1995 C1971 0.949 . S
H1996 C1973 0.950 . S
H1997 C1975 0.950 . S
C1998 C1999 1.349 . S
C1998 C2000 1.327 . S
C1998 H2023 0.950 . S
C1999 C1998 1.349 . S
C1999 C2015 1.349 . S
C2000 C1998 1.327 . S
C2000 C2019 1.429 . S
C2000 H2024 0.950 . S
C2001 C2018 1.574 . S
C2001 C2020 1.368 . S
C2001 H2025 0.949 . S
H2002 C2006 0.949 . S
C2003 C2004 1.349 . S
C2003 C2005 1.327 . S
C2003 H2026 0.950 . S
C2004 C2003 1.349 . S
C2004 C2016 1.349 . S
C2005 C2003 1.327 . S
C2005 C2021 1.429 . S
C2005 H2027 0.950 . S
C2006 H2002 0.949 . S
C2006 C2014 1.574 . S
C2006 C2022 1.368 . S
H2007 C2015 0.950 . S
H2008 C2013 0.950 . S
H2009 C2014 0.949 . S
H2010 C2016 0.950 . S
H2011 C2017 0.950 . S
H2012 C2018 0.949 . S
C2013 H2008 0.950 . S
C2013 C2015 1.327 . S
C2013 C2019 1.429 . S
C2014 C2006 1.574 . S
C2014 H2009 0.949 . S
C2014 C2020 1.368 . S
C2015 C1999 1.349 . S
C2015 H2007 0.950 . S
C2015 C2013 1.327 . S
C2016 C2004 1.349 . S
C2016 H2010 0.950 . S
C2016 C2017 1.327 . S
C2017 H2011 0.950 . S
C2017 C2016 1.327 . S
C2017 C2021 1.429 . S
C2018 C2001 1.574 . S
C2018 H2012 0.949 . S
C2018 C2022 1.368 . S
C2019 C2000 1.429 . S
C2019 C2013 1.429 . S
C2019 C2020 1.523 . S
C2020 C2001 1.368 . S
C2020 C2014 1.368 . S
C2020 C2019 1.523 . S
C2021 C2005 1.429 . S
C2021 C2017 1.429 . S
C2021 C2022 1.523 . S
C2022 C2006 1.368 . S
C2022 C2018 1.368 . S
C2022 C2021 1.523 . S
H2023 C1998 0.950 . S
H2024 C2000 0.950 . S
H2025 C2001 0.949 . S
H2026 C2003 0.950 . S
H2027 C2005 0.950 . S
C2028 C2029 1.349 . S
C2028 C2030 1.327 . S
C2028 H2053 0.950 . S
C2029 C2028 1.349 . S
C2029 C2045 1.349 . S
C2030 C2028 1.327 . S
C2030 C2049 1.429 . S
C2030 H2054 0.950 . S
C2031 C2048 1.574 . S
C2031 C2050 1.368 . S
C2031 H2055 0.949 . S
H2032 C2036 0.949 . S
C2033 C2034 1.349 . S
C2033 C2035 1.327 . S
C2033 H2056 0.950 . S
C2034 C2033 1.349 . S
C2034 C2046 1.349 . S
C2035 C2033 1.327 . S
C2035 C2051 1.429 . S
C2035 H2057 0.950 . S
C2036 H2032 0.949 . S
C2036 C2044 1.574 . S
C2036 C2052 1.368 . S
H2037 C2045 0.950 . S
H2038 C2043 0.950 . S
H2039 C2044 0.949 . S
H2040 C2046 0.950 . S
H2041 C2047 0.950 . S
H2042 C2048 0.949 . S
C2043 H2038 0.950 . S
C2043 C2045 1.327 . S
C2043 C2049 1.429 . S
C2044 C2036 1.574 . S
C2044 H2039 0.949 . S
C2044 C2050 1.368 . S
C2045 C2029 1.349 . S
C2045 H2037 0.950 . S
C2045 C2043 1.327 . S
C2046 C2034 1.349 . S
C2046 H2040 0.950 . S
C2046 C2047 1.327 . S
C2047 H2041 0.950 . S
C2047 C2046 1.327 . S
C2047 C2051 1.429 . S
C2048 C2031 1.574 . S
C2048 H2042 0.949 . S
C2048 C2052 1.368 . S
C2049 C2030 1.429 . S
C2049 C2043 1.429 . S
C2049 C2050 1.523 . S
C2050 C2031 1.368 . S
C2050 C2044 1.368 . S
C2050 C2049 1.523 . S
C2051 C2035 1.429 . S
C2051 C2047 1.429 . S
C2051 C2052 1.523 . S
C2052 C2036 1.368 . S
C2052 C2048 1.368 . S
C2052 C2051 1.523 . S
H2053 C2028 0.950 . S
H2054 C2030 0.950 . S
H2055 C2031 0.949 . S
H2056 C2033 0.950 . S
H2057 C2035 0.950 . S
C2058 C2059 1.349 . S
C2058 C2060 1.327 . S
C2058 H2083 0.950 . S
C2059 C2058 1.349 . S
C2059 C2075 1.349 . S
C2060 C2058 1.327 . S
C2060 C2079 1.429 . S
C2060 H2084 0.950 . S
C2061 C2078 1.574 1_655 S
C2061 C2080 1.368 . S
C2061 H2085 0.949 . S
H2062 C2066 0.949 . S
C2063 C2064 1.349 . S
C2063 C2065 1.327 . S
C2063 H2086 0.950 . S
C2064 C2063 1.349 . S
C2064 C2076 1.349 . S
C2065 C2063 1.327 . S
C2065 C2081 1.429 . S
C2065 H2087 0.950 . S
C2066 H2062 0.949 . S
C2066 C2074 1.574 . S
C2066 C2082 1.389 . S
H2067 C2075 0.950 . S
H2068 C2073 0.950 . S
H2069 C2074 0.949 . S
H2070 C2076 0.950 . S
H2071 C2077 0.950 . S
H2072 C2078 0.949 . S
C2073 H2068 0.950 . S
C2073 C2075 1.327 . S
C2073 C2079 1.429 . S
C2074 C2066 1.574 . S
C2074 H2069 0.949 . S
C2074 C2080 1.368 . S
C2075 C2059 1.349 . S
C2075 H2067 0.950 . S
C2075 C2073 1.327 . S
C2076 C2064 1.349 . S
C2076 H2070 0.950 . S
C2076 C2077 1.327 . S
C2077 H2071 0.950 . S
C2077 C2076 1.327 . S
C2077 C2081 1.429 . S
C2078 C2061 1.574 1_455 S
C2078 H2072 0.949 . S
C2078 C2082 1.365 1_455 S
C2079 C2060 1.429 . S
C2079 C2073 1.429 . S
C2079 C2080 1.523 . S
C2080 C2061 1.368 . S
C2080 C2074 1.368 . S
C2080 C2079 1.523 . S
C2081 C2065 1.429 . S
C2081 C2077 1.429 . S
C2081 C2082 1.500 1_455 S
C2082 C2066 1.389 . S
C2082 C2078 1.365 1_655 S
C2082 C2081 1.500 1_655 S
H2083 C2058 0.950 . S
H2084 C2060 0.950 . S
H2085 C2061 0.949 . S
H2086 C2063 0.950 . S
H2087 C2065 0.950 . S
C1009 C56 1.480 . S
C1014 C990 1.518 . S
C1039 C822 1.477 1_565 S
C1044 C150 1.486 . S
C1069 C234 1.401 . S
C1074 C738 1.398 . S
C1099 C318 1.441 . S
C1104 C906 1.436 1_545 S
C1129 C402 1.584 . S
C1134 C896 1.540 . S
C1159 C476 1.579 . S
C1164 C980 1.582 . S
C1189 C812 1.502 . S
C1194 C570 1.540 1_556 S
C1219 C654 1.499 . S
C1224 C728 1.461 . S
C1249 C308 1.581 . S
C1254 C392 1.581 . S
C1279 C66 1.463 . S
C1284 C486 1.469 . S
C1309 C140 1.578 . S
C1314 C560 1.586 . S
C1339 C644 1.586 . S
C1344 C224 1.583 . S
C1369 C63 1.621 . S
C1374 C747 1.754 . S
C1399 C156 1.413 . S
C1404 C915 1.605 . S
C1429 C999 1.673 . S
C1434 C240 1.469 . S
C1459 C324 1.504 . S
C1464 C831 1.716 . S
C1489 C408 1.484 . S
C1494 C823 1.683 . S
C1519 C739 1.834 . S
C1524 C483 1.693 . S
C1549 C907 1.792 . S
C1554 C576 1.578 . S
C1579 C991 1.750 . S
C1584 C660 1.541 . S
C1609 C75 1.761 . S
C1614 C315 1.625 . S
C1639 C72 1.597 . S
C1644 C151 1.812 . S
C1669 C147 1.724 . S
C1674 C235 1.868 . S
C1699 C319 1.834 . S
C1704 C231 1.693 . S
C1729 C492 1.473 . S
C1734 C403 1.667 . S
C1759 C495 1.611 . S
C1764 C567 1.492 . S
C1789 C571 1.686 . S
C1794 C651 1.559 . S
C1819 C399 1.589 . S
C1824 C655 1.720 . S
C1849 C735 1.552 . S
C1854 C327 1.681 . S
C1879 C487 1.731 . S
C1884 C828 1.522 . S
C1909 C744 1.484 . S
C1914 C579 1.691 . S
C1939 C912 1.419 . S
C1944 C663 1.615 . S
C1969 C411 1.598 . S
C1974 C996 1.402 . S
C1999 C987 1.461 . S
C2004 C159 1.585 . S
C2029 C243 1.603 . S
C2034 C819 1.481 . S
C2059 C903 1.588 . S
C2064 C67 1.720 . S
