# Generated by pormake.
# Topology atn, (4)-cn, num edge types: 1
# Building blocks:
#     Node 0, Type 0, BuildingBlock: UXUYUI_clean_sbu_0, # of connection points: 4
#     Node 1, Type 0, BuildingBlock: UXUYUI_clean_sbu_0, # of connection points: 4
#     Node 2, Type 0, BuildingBlock: UXUYUI_clean_sbu_0, # of connection points: 4
#     Node 3, Type 0, BuildingBlock: UXUYUI_clean_sbu_0, # of connection points: 4
#     Node 4, Type 0, BuildingBlock: UXUYUI_clean_sbu_0, # of connection points: 4
#     Node 5, Type 0, BuildingBlock: UXUYUI_clean_sbu_0, # of connection points: 4
#     Node 6, Type 0, BuildingBlock: UXUYUI_clean_sbu_0, # of connection points: 4
#     Node 7, Type 0, BuildingBlock: UXUYUI_clean_sbu_0, # of connection points: 4
#     Node 8, Type 0, BuildingBlock: UXUYUI_clean_sbu_0, # of connection points: 4
#     Node 9, Type 0, BuildingBlock: UXUYUI_clean_sbu_0, # of connection points: 4
#     Node 10, Type 0, BuildingBlock: UXUYUI_clean_sbu_0, # of connection points: 4
#     Node 11, Type 0, BuildingBlock: UXUYUI_clean_sbu_0, # of connection points: 4
#     Node 12, Type 0, BuildingBlock: UXUYUI_clean_sbu_0, # of connection points: 4
#     Node 13, Type 0, BuildingBlock: UXUYUI_clean_sbu_0, # of connection points: 4
#     Node 14, Type 0, BuildingBlock: UXUYUI_clean_sbu_0, # of connection points: 4
#     Node 15, Type 0, BuildingBlock: UXUYUI_clean_sbu_0, # of connection points: 4
#     Edge 16, Type (0, 0), BuildingBlock: MIFKUJ_clean_linker_0, # of connection points: 2
#     Edge 17, Type (0, 0), BuildingBlock: MIFKUJ_clean_linker_0, # of connection points: 2
#     Edge 18, Type (0, 0), BuildingBlock: MIFKUJ_clean_linker_0, # of connection points: 2
#     Edge 19, Type (0, 0), BuildingBlock: MIFKUJ_clean_linker_0, # of connection points: 2
#     Edge 20, Type (0, 0), BuildingBlock: MIFKUJ_clean_linker_0, # of connection points: 2
#     Edge 21, Type (0, 0), BuildingBlock: MIFKUJ_clean_linker_0, # of connection points: 2
#     Edge 22, Type (0, 0), BuildingBlock: MIFKUJ_clean_linker_0, # of connection points: 2
#     Edge 23, Type (0, 0), BuildingBlock: MIFKUJ_clean_linker_0, # of connection points: 2
#     Edge 24, Type (0, 0), BuildingBlock: MIFKUJ_clean_linker_0, # of connection points: 2
#     Edge 25, Type (0, 0), BuildingBlock: MIFKUJ_clean_linker_0, # of connection points: 2
#     Edge 26, Type (0, 0), BuildingBlock: MIFKUJ_clean_linker_0, # of connection points: 2
#     Edge 27, Type (0, 0), BuildingBlock: MIFKUJ_clean_linker_0, # of connection points: 2
#     Edge 28, Type (0, 0), BuildingBlock: MIFKUJ_clean_linker_0, # of connection points: 2
#     Edge 29, Type (0, 0), BuildingBlock: MIFKUJ_clean_linker_0, # of connection points: 2
#     Edge 30, Type (0, 0), BuildingBlock: MIFKUJ_clean_linker_0, # of connection points: 2
#     Edge 31, Type (0, 0), BuildingBlock: MIFKUJ_clean_linker_0, # of connection points: 2
#     Edge 32, Type (0, 0), BuildingBlock: MIFKUJ_clean_linker_0, # of connection points: 2
#     Edge 33, Type (0, 0), BuildingBlock: MIFKUJ_clean_linker_0, # of connection points: 2
#     Edge 34, Type (0, 0), BuildingBlock: MIFKUJ_clean_linker_0, # of connection points: 2
#     Edge 35, Type (0, 0), BuildingBlock: MIFKUJ_clean_linker_0, # of connection points: 2
#     Edge 36, Type (0, 0), BuildingBlock: MIFKUJ_clean_linker_0, # of connection points: 2
#     Edge 37, Type (0, 0), BuildingBlock: MIFKUJ_clean_linker_0, # of connection points: 2
#     Edge 38, Type (0, 0), BuildingBlock: MIFKUJ_clean_linker_0, # of connection points: 2
#     Edge 39, Type (0, 0), BuildingBlock: MIFKUJ_clean_linker_0, # of connection points: 2
#     Edge 40, Type (0, 0), BuildingBlock: MIFKUJ_clean_linker_0, # of connection points: 2
#     Edge 41, Type (0, 0), BuildingBlock: MIFKUJ_clean_linker_0, # of connection points: 2
#     Edge 42, Type (0, 0), BuildingBlock: MIFKUJ_clean_linker_0, # of connection points: 2
#     Edge 43, Type (0, 0), BuildingBlock: MIFKUJ_clean_linker_0, # of connection points: 2
#     Edge 44, Type (0, 0), BuildingBlock: MIFKUJ_clean_linker_0, # of connection points: 2
#     Edge 45, Type (0, 0), BuildingBlock: MIFKUJ_clean_linker_0, # of connection points: 2
#     Edge 46, Type (0, 0), BuildingBlock: MIFKUJ_clean_linker_0, # of connection points: 2
#     Edge 47, Type (0, 0), BuildingBlock: MIFKUJ_clean_linker_0, # of connection points: 2
# Relax obj value: 0.164
# Max RMSD: 0.140
# Mean RMSD: 0.140
data_MOF--net-atn--node1-UXUYUI_clean_sbu_0--edge1-MIFKUJ_clean_linker_0
_symmetry_space_group_name_H-M    P1
_symmetry_Int_Tables_number       1
_symmetry_cell_setting            triclinic
loop_
_symmetry_equiv_pos_as_xyz
'x, y, z'
_cell_length_a     109.49885
_cell_length_b     109.48691
_cell_length_c     44.926423
_cell_angle_alpha  90.018434
_cell_angle_beta   90.014334
_cell_angle_gamma 89.994089
loop_
_atom_site_label
_atom_site_type_symbol
_atom_site_fract_x
_atom_site_fract_y
_atom_site_fract_z
_atom_type_partial_charge
Li0 Li 0.21166 0.39199 0.99674 0.0
Li1 Li 0.2022 0.37509 0.02318 0.0
Li2 Li 0.22142 0.37247 0.9939 0.0
Li3 Li 0.20173 0.37489 0.9681 0.0
C4 C 0.22366 0.39055 0.04908 0.0
N5 N 0.23373 0.40769 0.08699 0.0
C6 C 0.21809 0.3931 0.07638 0.0
C7 C 0.23443 0.3966 0.04122 0.0
C8 C 0.22331 0.40182 0.09521 0.0
C9 C 0.23935 0.40527 0.06064 0.0
C10 C 0.18218 0.38961 -0.00016 0.0
C11 C 0.16088 0.38457 0.99379 0.0
N12 N 0.15776 0.3952 0.00749 0.0
C13 C 0.17876 0.40058 0.01346 0.0
C14 C 0.17317 0.38161 0.98958 0.0
C15 C 0.16637 0.4032 0.01729 0.0
C16 C 0.21942 0.4146 0.9739 0.0
N17 N 0.21423 0.40903 0.99776 0.0
C18 C 0.21316 0.42793 0.02406 0.0
C19 C 0.21093 0.41542 0.02238 0.0
C20 C 0.21854 0.43399 -0.00021 0.0
C21 C 0.22161 0.42714 0.97437 0.0
H22 H 0.22179 0.40929 0.95444 0.0
H23 H 0.20664 0.41079 0.04085 0.0
C24 C 0.19769 0.35935 0.07049 0.0
N25 N 0.19402 0.3701 0.05833 0.0
C26 C 0.19232 0.35509 0.09662 0.0
C27 C 0.17973 0.37322 0.09776 0.0
C28 C 0.18531 0.37711 0.07149 0.0
C29 C 0.1832 0.36205 0.11058 0.0
H30 H 0.20487 0.35412 0.05996 0.0
H31 H 0.1828 0.38578 0.06191 0.0
C32 C 0.22698 0.38197 0.94118 0.0
N33 N 0.24652 0.37822 0.90337 0.0
C34 C 0.22554 0.37488 0.91554 0.0
C35 C 0.2383 0.38728 0.9474 0.0
C36 C 0.23554 0.37307 0.89674 0.0
C37 C 0.24808 0.38524 0.92807 0.0
C38 C 0.20121 0.35063 0.99654 0.0
C39 C 0.20783 0.33992 0.99143 0.0
C40 C 0.18875 0.34991 0.00306 0.0
C41 C 0.20183 0.32866 0.99259 0.0
C42 C 0.18309 0.33849 0.00406 0.0
N43 N 0.18969 0.32819 -0.00119 0.0
C44 C 0.24495 0.36547 0.0136 0.0
C45 C 0.23803 0.35583 0.96944 0.0
C46 C 0.2557 0.35862 0.01309 0.0
N47 N 0.23638 0.36389 0.99205 0.0
C48 C 0.24867 0.34888 0.96789 0.0
C49 C 0.2576 0.35007 0.99019 0.0
H50 H 0.2433 0.3718 0.03159 0.0
H51 H 0.23097 0.35465 0.95287 0.0
C52 C 0.1876 0.37963 0.91709 0.0
N53 N 0.19279 0.37061 0.93355 0.0
C54 C 0.1815 0.37683 0.89062 0.0
C55 C 0.18603 0.3555 0.89903 0.0
C56 C 0.19216 0.35873 0.92501 0.0
C57 C 0.18072 0.3646 0.88116 0.0
H58 H 0.18838 0.38903 0.92431 0.0
H59 H 0.19658 0.35174 0.93803 0.0
O60 O 0.21862 0.38211 0.03027 0.0
O61 O 0.19429 0.38698 0.99568 0.0
O62 O 0.21733 0.38371 0.96006 0.0
O63 O 0.20697 0.36172 0.9954 0.0
H64 H 0.2098 0.38846 0.08289 0.0
H65 H 0.23888 0.39469 0.02026 0.0
H66 H 0.21907 0.40394 0.11633 0.0
H67 H 0.24763 0.41009 0.05475 0.0
H68 H 0.15382 0.37843 0.98604 0.0
H69 H 0.1856 0.40696 0.02119 0.0
H70 H 0.1756 0.37327 0.97818 0.0
H71 H 0.1636 0.4116 0.02801 0.0
H72 H 0.21078 0.43273 0.0443 0.0
H73 H 0.22551 0.43143 0.95486 0.0
H74 H 0.19545 0.34655 0.10611 0.0
H75 H 0.17274 0.37887 0.10786 0.0
H76 H 0.21683 0.37073 0.91033 0.0
H77 H 0.23954 0.39286 0.96704 0.0
H78 H 0.23459 0.36754 0.87691 0.0
H79 H 0.25692 0.38922 0.93272 0.0
H80 H 0.2175 0.34028 0.98656 0.0
H81 H 0.18355 0.35806 0.00774 0.0
H82 H 0.20684 0.3203 0.98856 0.0
H83 H 0.17346 0.33781 0.00913 0.0
H84 H 0.26223 0.35969 0.031 0.0
H85 H 0.2498 0.34252 0.94964 0.0
H86 H 0.17771 0.38418 0.87742 0.0
H87 H 0.1855 0.34593 0.89302 0.0
Li88 Li 0.60566 0.21239 0.99856 0.0
Li89 Li 0.62343 0.20401 0.02344 0.0
Li90 Li 0.62501 0.22384 0.99595 0.0
Li91 Li 0.62357 0.20414 0.97006 0.0
C92 C 0.60908 0.22832 0.04831 0.0
N93 N 0.59704 0.24573 0.08191 0.0
C94 C 0.60596 0.22589 0.07791 0.0
C95 C 0.60626 0.2397 0.03602 0.0
C96 C 0.59982 0.23477 0.09446 0.0
C97 C 0.60013 0.24836 0.0533 0.0
C98 C 0.61015 0.18456 0.01065 0.0
C99 C 0.61736 0.16468 0.02569 0.0
N100 N 0.60683 0.1629 0.04112 0.0
C101 C 0.59935 0.18249 0.02642 0.0
C102 C 0.61919 0.17555 0.01003 0.0
C103 C 0.59786 0.17149 0.04176 0.0
C104 C 0.58232 0.2138 0.97333 0.0
N105 N 0.58849 0.21366 -0.00044 0.0
C106 C 0.56986 0.21478 0.02694 0.0
C107 C 0.58256 0.21401 0.02609 0.0
C108 C 0.56323 0.21513 0.00019 0.0
C109 C 0.56962 0.21464 0.9731 0.0
H110 H 0.58728 0.21325 0.95256 0.0
H111 H 0.58766 0.21343 0.0466 0.0
C112 C 0.64009 0.1921 0.0619 0.0
N113 N 0.62825 0.19546 0.05811 0.0
C114 C 0.64363 0.18577 0.08744 0.0
C115 C 0.62271 0.18651 0.10463 0.0
C116 C 0.6196 0.19284 0.0788 0.0
C117 C 0.63488 0.18292 0.10925 0.0
H118 H 0.64681 0.19443 0.04522 0.0
H119 H 0.61025 0.19563 0.07514 0.0
C120 C 0.60987 0.22785 0.94329 0.0
N121 N 0.60168 0.24534 0.90361 0.0
C122 C 0.61438 0.22814 0.91418 0.0
C123 C 0.60106 0.23637 0.95204 0.0
C124 C 0.61017 0.23708 0.8945 0.0
C125 C 0.59707 0.24516 0.93171 0.0
C126 C 0.64741 0.20729 0.98303 0.0
C127 C 0.65433 0.21663 0.97019 0.0
C128 C 0.65144 0.1952 0.98098 0.0
C129 C 0.6651 0.21369 0.95512 0.0
C130 C 0.66224 0.19264 0.96567 0.0
N131 N 0.66879 0.20186 0.95315 0.0
C132 C 0.63761 0.24319 0.02193 0.0
C133 C 0.63254 0.2467 0.97138 0.0
C134 C 0.6435 0.25447 0.02364 0.0
N135 N 0.63232 0.23954 0.99607 0.0
C136 C 0.63821 0.2581 0.97216 0.0
C137 C 0.64391 0.26209 0.99846 0.0
H138 H 0.63738 0.23723 0.04113 0.0
H139 H 0.6285 0.24356 0.95092 0.0
C140 C 0.6237 0.18444 0.92937 0.0
N141 N 0.62838 0.1957 0.93514 0.0
C142 C 0.62734 0.17803 0.904 0.0
C143 C 0.64051 0.19495 0.89107 0.0
C144 C 0.63648 0.20109 0.91639 0.0
C145 C 0.63596 0.18327 0.88471 0.0
H146 H 0.61715 0.18044 0.94449 0.0
H147 H 0.63984 0.21016 0.92114 0.0
O148 O 0.61513 0.2197 0.03185 0.0
O149 O 0.61187 0.19537 0.99595 0.0
O150 O 0.61394 0.21915 0.96282 0.0
O151 O 0.63678 0.20998 0.99766 0.0
H152 H 0.60821 0.21721 0.08797 0.0
H153 H 0.60889 0.24191 0.01353 0.0
H154 H 0.59729 0.23297 0.11731 0.0
H155 H 0.59787 0.25719 0.044 0.0
H156 H 0.62432 0.15767 0.02559 0.0
H157 H 0.59223 0.18933 0.02702 0.0
H158 H 0.62756 0.17698 0.99778 0.0
H159 H 0.58958 0.16979 0.05422 0.0
H160 H 0.56528 0.21484 0.0483 0.0
H161 H 0.56488 0.21495 0.95196 0.0
H162 H 0.65314 0.18335 0.09034 0.0
H163 H 0.61565 0.18438 0.1207 0.0
H164 H 0.6211 0.22157 0.90686 0.0
H165 H 0.59719 0.23612 0.97413 0.0
H166 H 0.61364 0.23743 0.87198 0.0
H167 H 0.59027 0.25181 0.93823 0.0
H168 H 0.65139 0.22604 0.97166 0.0
H169 H 0.64623 0.18787 0.99087 0.0
H170 H 0.67051 0.22082 0.94494 0.0
H171 H 0.66542 0.18332 0.96372 0.0
H172 H 0.64796 0.25703 0.04423 0.0
H173 H 0.63817 0.26369 0.95228 0.0
H174 H 0.62364 0.16903 0.89974 0.0
H175 H 0.64702 0.19936 0.87642 0.0
Li176 Li 0.79409 0.62382 0.02013 0.0
Li177 Li 0.78554 0.60608 0.99518 0.0
Li178 Li 0.79579 0.62209 0.96715 0.0
Li179 Li 0.77571 0.62536 0.98929 0.0
C180 C 0.81334 0.60756 0.98423 0.0
N181 N 0.83428 0.60073 0.95424 0.0
C182 C 0.81391 0.59625 0.96986 0.0
C183 C 0.82344 0.61537 0.9835 0.0
C184 C 0.82459 0.59297 0.95481 0.0
C185 C 0.83393 0.61176 0.96815 0.0
C186 C 0.77336 0.60774 0.04543 0.0
C187 C 0.75841 0.59232 0.05737 0.0
N188 N 0.76477 0.58951 0.08245 0.0
C189 C 0.77972 0.60474 0.0714 0.0
C190 C 0.76257 0.60154 0.03842 0.0
C191 C 0.77524 0.59549 0.08981 0.0
C192 C 0.79533 0.63671 0.07419 0.0
N193 N 0.80162 0.62917 0.0557 0.0
C194 C 0.8185 0.62866 0.08927 0.0
C195 C 0.81296 0.62506 0.06272 0.0
C196 C 0.81232 0.63661 0.1087 0.0
C197 C 0.80058 0.64068 0.10074 0.0
H198 H 0.78621 0.63963 0.06825 0.0
H199 H 0.81762 0.61884 0.0479 0.0
C200 C 0.77555 0.58294 0.98089 0.0
N201 N 0.78323 0.5891 -0.00075 0.0
C202 C 0.77375 0.57042 0.98471 0.0
C203 C 0.78788 0.57091 0.02613 0.0
C204 C 0.78944 0.58338 0.02139 0.0
C205 C 0.77996 0.56426 0.00761 0.0
H206 H 0.77087 0.58772 0.96323 0.0
H207 H 0.79554 0.58857 0.0355 0.0
C208 C 0.79282 0.64694 0.00423 0.0
N209 N 0.79842 0.66794 0.03556 0.0
C210 C 0.78348 0.65441 0.01516 0.0
C211 C 0.80501 0.6502 0.00906 0.0
C212 C 0.78651 0.66498 0.03096 0.0
C213 C 0.80765 0.66083 0.02502 0.0
C214 C 0.77123 0.6151 0.93722 0.0
C215 C 0.77348 0.62151 0.91087 0.0
C216 C 0.75951 0.61062 0.94297 0.0
C217 C 0.76392 0.6234 0.89079 0.0
C218 C 0.75019 0.61273 0.92236 0.0
N219 N 0.75257 0.61902 0.89692 0.0
C220 C 0.80793 0.61698 0.91274 0.0
C221 C 0.8098 0.6373 0.93047 0.0
C222 C 0.81468 0.61986 0.88733 0.0
N223 N 0.80562 0.62569 0.93358 0.0
C224 C 0.81653 0.64059 0.90544 0.0
C225 C 0.81893 0.63186 0.88331 0.0
H226 H 0.8043 0.60787 0.91561 0.0
H227 H 0.8077 0.64407 0.94717 0.0
C228 C 0.75191 0.63246 0.00605 0.0
N229 N 0.7607 0.63371 0.98494 0.0
C230 C 0.74119 0.63931 0.00429 0.0
C231 C 0.74867 0.64834 0.95869 0.0
C232 C 0.7593 0.64144 0.96155 0.0
C233 C 0.73951 0.64749 0.98053 0.0
H234 H 0.7534 0.62644 0.02476 0.0
H235 H 0.76657 0.64243 0.94544 0.0
O236 O 0.8029 0.61105 0.99861 0.0
O237 O 0.77774 0.61658 0.02677 0.0
O238 O 0.79005 0.63647 0.989 0.0
O239 O 0.78044 0.61325 0.9573 0.0
H240 H 0.80617 0.59012 0.97007 0.0
H241 H 0.82312 0.62418 0.99437 0.0
H242 H 0.82514 0.58426 0.94348 0.0
H243 H 0.84179 0.61774 0.96723 0.0
H244 H 0.75013 0.58738 0.0521 0.0
H245 H 0.7881 0.60941 0.07713 0.0
H246 H 0.75756 0.60371 0.01836 0.0
H247 H 0.7801 0.59303 0.10989 0.0
H248 H 0.82744 0.62506 0.09471 0.0
H249 H 0.79551 0.64692 0.11476 0.0
H250 H 0.76774 0.5656 0.96961 0.0
H251 H 0.79274 0.56656 0.04423 0.0
H252 H 0.774 0.65204 0.01173 0.0
H253 H 0.81235 0.64448 0.00096 0.0
H254 H 0.77937 0.67081 0.03965 0.0
H255 H 0.81704 0.66341 0.02912 0.0
H256 H 0.78247 0.62508 0.90607 0.0
H257 H 0.75758 0.60572 0.96334 0.0
H258 H 0.76551 0.62839 0.87037 0.0
H259 H 0.74106 0.60939 0.92663 0.0
H260 H 0.81622 0.61291 0.8706 0.0
H261 H 0.81974 0.6499 0.9033 0.0
H262 H 0.73452 0.63853 0.02197 0.0
H263 H 0.74774 0.65441 0.93981 0.0
Li264 Li 0.37376 0.79298 0.02572 0.0
Li265 Li 0.39003 0.78295 0.99743 0.0
Li266 Li 0.37316 0.79222 0.97112 0.0
Li267 Li 0.37096 0.77358 0.00101 0.0
C268 C 0.39404 0.80786 0.00877 0.0
N269 N 0.41212 0.82238 0.03311 0.0
C270 C 0.40079 0.80373 0.03322 0.0
C271 C 0.39651 0.81936 0.99668 0.0
C272 C 0.40989 0.81121 0.04519 0.0
C273 C 0.40566 0.82657 0.00934 0.0
C274 C 0.38051 0.76756 0.05272 0.0
C275 C 0.38268 0.74599 0.0626 0.0
N276 N 0.37653 0.74745 0.08866 0.0
C277 C 0.37436 0.76885 0.0798 0.0
C278 C 0.38485 0.75606 0.04424 0.0
C279 C 0.37239 0.75857 0.09758 0.0
C280 C 0.35801 0.79825 0.0723 0.0
N281 N 0.3685 0.80229 0.0594 0.0
C282 C 0.36996 0.81853 0.09481 0.0
C283 C 0.37437 0.81238 0.06982 0.0
C284 C 0.35924 0.81444 0.10867 0.0
C285 C 0.35316 0.80424 0.09699 0.0
H286 H 0.35346 0.79026 0.06347 0.0
H287 H 0.38243 0.81575 0.0589 0.0
C288 C 0.41368 0.78621 0.97418 0.0
N289 N 0.40712 0.78042 0.99563 0.0
C290 C 0.42627 0.78452 0.97241 0.0
C291 C 0.42513 0.77124 0.01536 0.0
C292 C 0.41255 0.7731 0.01612 0.0
C293 C 0.43213 0.77698 0.99325 0.0
H294 H 0.4091 0.79217 0.95855 0.0
H295 H 0.40714 0.7688 0.03325 0.0
C296 C 0.35122 0.79695 -0.00021 0.0
N297 N 0.3336 0.81502 -0.00037 0.0
C298 C 0.33886 0.79386 0.00156 0.0
C299 C 0.35463 0.80924 0.998 0.0
C300 C 0.33009 0.80313 0.00144 0.0
C301 C 0.34558 0.81823 0.99793 0.0
C302 C 0.38943 0.77182 0.94562 0.0
C303 C 0.39233 0.77833 0.91982 0.0
C304 C 0.39596 0.76122 0.95258 0.0
C305 C 0.40187 0.77426 0.90169 0.0
C306 C 0.40545 0.75746 0.93392 0.0
N307 N 0.40819 0.764 0.90909 0.0
C308 C 0.37561 0.80893 0.92369 0.0
C309 C 0.35673 0.79835 0.92557 0.0
C310 C 0.37194 0.81514 0.89806 0.0
N311 N 0.36802 0.8007 0.93671 0.0
C312 C 0.35261 0.80449 0.90033 0.0
C313 C 0.36028 0.81296 0.88601 0.0
H314 H 0.38459 0.8105 0.93295 0.0
H315 H 0.35091 0.79172 0.9364 0.0
C316 C 0.35409 0.75701 0.0254 0.0
N317 N 0.36253 0.75854 0.00357 0.0
C318 C 0.34818 0.74581 0.02871 0.0
C319 C 0.35954 0.73812 0.98649 0.0
C320 C 0.36528 0.74944 0.98412 0.0
C321 C 0.3509 0.7362 0.00909 0.0
H322 H 0.35206 0.76448 0.0404 0.0
H323 H 0.37197 0.75096 0.96686 0.0
O324 O 0.38536 0.80056 0.99598 0.0
O325 O 0.38235 0.7775 0.03475 0.0
O326 O 0.35988 0.78793 9e-05 0.0
O327 O 0.38024 0.7758 0.96392 0.0
H328 H 0.39899 0.7949 0.043 0.0
H329 H 0.3914 0.82267 0.9777 0.0
H330 H 0.41518 0.80814 0.06411 0.0
H331 H 0.40766 0.8355 0.00023 0.0
H332 H 0.38586 0.73703 0.0561 0.0
H333 H 0.37117 0.77769 0.08709 0.0
H334 H 0.38968 0.75487 0.02348 0.0
H335 H 0.36758 0.75944 0.1185 0.0
H336 H 0.37478 0.82649 0.10303 0.0
H337 H 0.34489 0.8008 0.10722 0.0
H338 H 0.43141 0.78926 0.95535 0.0
H339 H 0.42934 0.76534 0.03178 0.0
H340 H 0.33608 0.78439 0.00306 0.0
H341 H 0.36414 0.81182 0.99671 0.0
H342 H 0.32049 0.80087 0.00279 0.0
H343 H 0.34808 0.82777 0.99655 0.0
H344 H 0.38733 0.78647 0.91388 0.0
H345 H 0.39385 0.75603 0.97236 0.0
H346 H 0.40425 0.77926 0.88176 0.0
H347 H 0.41065 0.74934 0.93922 0.0
H348 H 0.37826 0.8214 0.88758 0.0
H349 H 0.34347 0.80266 0.8923 0.0
H350 H 0.34141 0.74475 0.0461 0.0
H351 H 0.3619 0.73092 0.97099 0.0
Li352 Li 0.20281 0.62356 0.02592 0.0
Li353 Li 0.2225 0.62551 0.00093 0.0
Li354 Li 0.20352 0.62311 0.97102 0.0
Li355 Li 0.21261 0.60604 0.99839 0.0
C356 C 0.2015 0.64715 -0.00064 0.0
N357 N 0.18781 0.66834 0.00111 0.0
C358 C 0.20698 0.65823 0.00717 0.0
C359 C 0.18909 0.64688 0.99215 0.0
C360 C 0.19989 0.66884 0.00803 0.0
C361 C 0.18231 0.65768 0.99321 0.0
C362 C 0.22798 0.61611 0.05319 0.0
C363 C 0.24904 0.61211 0.06553 0.0
N364 N 0.24804 0.61966 0.08946 0.0
C365 C 0.22713 0.62374 0.07804 0.0
C366 C 0.23898 0.61015 0.04699 0.0
C367 C 0.23739 0.62545 0.09606 0.0
C368 C 0.18641 0.61914 0.07252 0.0
N369 N 0.19351 0.62787 0.05978 0.0
C370 C 0.18765 0.64237 0.09678 0.0
C371 C 0.19433 0.63929 0.07146 0.0
C372 C 0.18018 0.63357 0.11037 0.0
C373 C 0.1796 0.62181 0.09797 0.0
H374 H 0.18608 0.61008 0.06293 0.0
H375 H 0.20035 0.64594 0.06148 0.0
C376 C 0.24699 0.63042 0.98476 0.0
N377 N 0.23777 0.63352 0.00352 0.0
C378 C 0.25838 0.63605 0.98732 0.0
C379 C 0.25049 0.648 0.02832 0.0
C380 C 0.23925 0.64219 0.02485 0.0
C381 C 0.26023 0.64493 0.0094 0.0
H382 H 0.24552 0.62358 0.96783 0.0
H383 H 0.2317 0.64453 0.03926 0.0
C384 C 0.1836 0.60785 0.9932 0.0
N385 N 0.15985 0.60034 0.98301 0.0
C386 C 0.18129 0.59665 0.9793 0.0
C387 C 0.17379 0.61513 0.00233 0.0
C388 C 0.16923 0.59305 0.97422 0.0
C389 C 0.16186 0.6112 0.99687 0.0
C390 C 0.22448 0.60713 0.94551 0.0
C391 C 0.2188 0.60506 0.9181 0.0
C392 C 0.23497 0.60052 0.953 0.0
C393 C 0.22363 0.59631 0.89876 0.0
C394 C 0.23951 0.59183 0.93308 0.0
N395 N 0.23379 0.58992 0.90661 0.0
C396 C 0.1996 0.63863 0.92305 0.0
C397 C 0.18613 0.62169 0.92347 0.0
C398 C 0.19418 0.64311 0.89717 0.0
N399 N 0.19545 0.62816 0.93573 0.0
C400 C 0.18041 0.62586 0.89764 0.0
C401 C 0.18441 0.63673 0.88418 0.0
H402 H 0.20715 0.64349 0.9331 0.0
H403 H 0.18314 0.61329 0.93353 0.0
C404 C 0.21891 0.5839 0.02521 0.0
N405 N 0.21505 0.58892 -0.00081 0.0
C406 C 0.22117 0.57139 0.02703 0.0
C407 C 0.21546 0.56947 0.97522 0.0
C408 C 0.21308 0.58197 0.97457 0.0
C409 C 0.21956 0.56409 0.0017 0.0
H410 H 0.22024 0.58962 0.04456 0.0
H411 H 0.20971 0.58613 0.95439 0.0
O412 O 0.20833 0.63669 0.99852 0.0
O413 O 0.21811 0.61453 0.03491 0.0
O414 O 0.19537 0.61146 0.99853 0.0
O415 O 0.21986 0.61565 0.96472 0.0
H416 H 0.21659 0.65862 0.01263 0.0
H417 H 0.18477 0.63846 0.98546 0.0
H418 H 0.204 0.67746 0.01417 0.0
H419 H 0.1727 0.65759 0.98768 0.0
H420 H 0.25764 0.60764 0.06086 0.0
H421 H 0.21867 0.6284 0.08318 0.0
H422 H 0.23976 0.60417 0.02793 0.0
H423 H 0.23689 0.6314 0.11525 0.0
H424 H 0.18855 0.65147 0.10604 0.0
H425 H 0.17393 0.61478 0.10774 0.0
H426 H 0.26567 0.63341 0.97234 0.0
H427 H 0.25148 0.65496 0.04528 0.0
H428 H 0.18873 0.59085 0.97229 0.0
H429 H 0.17534 0.62367 0.0138 0.0
H430 H 0.16733 0.58445 0.9633 0.0
H431 H 0.15421 0.61677 0.00377 0.0
H432 H 0.21071 0.61013 0.91185 0.0
H433 H 0.23948 0.60198 0.97413 0.0
H434 H 0.21929 0.59459 0.87753 0.0
H435 H 0.24756 0.58659 0.93869 0.0
H436 H 0.19772 0.6514 0.88725 0.0
H437 H 0.17286 0.62068 0.88851 0.0
H438 H 0.22428 0.56748 0.04785 0.0
H439 H 0.21392 0.56403 0.95542 0.0
Li440 Li 0.37058 0.2206 -0.0 0.0
Li441 Li 0.37332 0.20099 0.02635 0.0
Li442 Li 0.38993 0.21038 -0.00114 0.0
Li443 Li 0.37312 0.20201 0.9734 0.0
C444 C 0.37746 0.22158 0.06083 0.0
N445 N 0.36916 0.23072 0.11448 0.0
C446 C 0.365 0.22128 0.06763 0.0
C447 C 0.38569 0.22651 0.08134 0.0
C448 C 0.36099 0.22595 0.09487 0.0
C449 C 0.38132 0.2311 0.10833 0.0
C450 C 0.35029 0.19955 0.98893 0.0
C451 C 0.34063 0.1801 0.9799 0.0
N452 N 0.3321 0.18574 0.96272 0.0
C453 C 0.34138 0.20517 0.97135 0.0
C454 C 0.34989 0.18692 0.99336 0.0
C455 C 0.33228 0.19802 0.95823 0.0
C456 C 0.35572 0.23799 0.97427 0.0
N457 N 0.36273 0.23607 -0.00125 0.0
C458 C 0.3576 0.25576 0.01791 0.0
C459 C 0.36411 0.24484 0.01993 0.0
C460 C 0.34977 0.25774 0.99359 0.0
C461 C 0.34912 0.2488 0.97122 0.0
H462 H 0.35524 0.23107 0.95714 0.0
H463 H 0.37017 0.24339 0.03853 0.0
C464 C 0.37884 0.18787 0.07796 0.0
N465 N 0.36946 0.19206 0.06101 0.0
C466 C 0.37647 0.18175 0.10459 0.0
C467 C 0.35484 0.18427 0.09546 0.0
C468 C 0.35763 0.19045 0.06921 0.0
C469 C 0.36433 0.17989 0.11355 0.0
H470 H 0.38816 0.18943 0.07091 0.0
H471 H 0.35037 0.19415 0.05563 0.0
C472 C 0.38641 0.22862 0.95722 0.0
N473 N 0.39715 0.25052 0.94146 0.0
C474 C 0.38725 0.23197 0.92729 0.0
C475 C 0.39102 0.23642 0.97917 0.0
C476 C 0.39272 0.24308 0.91976 0.0
C477 C 0.39642 0.24745 0.97074 0.0
C478 C 0.39299 0.18626 0.98257 0.0
C479 C 0.39647 0.19004 0.95409 0.0
C480 C 0.39801 0.17561 0.99459 0.0
C481 C 0.40492 0.1831 0.93809 0.0
C482 C 0.40643 0.16891 0.97788 0.0
N483 N 0.40969 0.17276 0.95022 0.0
C484 C 0.41287 0.21189 0.02558 0.0
C485 C 0.41316 0.21438 0.97313 0.0
C486 C 0.42555 0.21306 0.02685 0.0
N487 N 0.40701 0.21254 -0.001 0.0
C488 C 0.42583 0.21557 0.97334 0.0
C489 C 0.43217 0.21483 0.00044 0.0
H490 H 0.4077 0.21031 0.04572 0.0
H491 H 0.40826 0.21482 0.95227 0.0
C492 C 0.36416 0.20085 0.91544 0.0
N493 N 0.36796 0.19378 0.93846 0.0
C494 C 0.36004 0.19546 0.8892 0.0
C495 C 0.36382 0.1756 0.91091 0.0
C496 C 0.36788 0.18139 0.93676 0.0
C497 C 0.35981 0.18267 0.88672 0.0
H498 H 0.36431 0.21069 0.91758 0.0
H499 H 0.37085 0.176 0.95559 0.0
O500 O 0.3817 0.21686 0.03458 0.0
O501 O 0.35948 0.20633 0.00137 0.0
O502 O 0.38102 0.21776 0.96471 0.0
O503 O 0.38478 0.19291 -0.00113 0.0
H504 H 0.35847 0.21754 0.05206 0.0
H505 H 0.39537 0.22678 0.07645 0.0
H506 H 0.35138 0.22578 0.10041 0.0
H507 H 0.38759 0.23495 0.1244 0.0
H508 H 0.34027 0.1703 0.98295 0.0
H509 H 0.34149 0.21493 0.96781 0.0
H510 H 0.3568 0.18239 0.0066 0.0
H511 H 0.32536 0.20225 0.94447 0.0
H512 H 0.3584 0.26241 0.03566 0.0
H513 H 0.34348 0.25008 0.95166 0.0
H514 H 0.38403 0.17848 0.11796 0.0
H515 H 0.34537 0.18319 0.10192 0.0
H516 H 0.38372 0.22603 0.91004 0.0
H517 H 0.39048 0.23403 0.00245 0.0
H518 H 0.39344 0.24578 0.89667 0.0
H519 H 0.40002 0.25357 0.98748 0.0
H520 H 0.3927 0.19825 0.94438 0.0
H521 H 0.39542 0.17257 0.01663 0.0
H522 H 0.40769 0.18593 0.91604 0.0
H523 H 0.41039 0.16065 0.98692 0.0
H524 H 0.43012 0.21228 0.04813 0.0
H525 H 0.4306 0.21705 0.95254 0.0
H526 H 0.35718 0.20126 0.87094 0.0
H527 H 0.36365 0.16572 0.91006 0.0
Li528 Li 0.79169 0.37379 0.02958 0.0
Li529 Li 0.77265 0.37329 0.00112 0.0
Li530 Li 0.79241 0.37459 0.97567 0.0
Li531 Li 0.78391 0.39181 0.00373 0.0
C532 C 0.78946 0.35041 0.01277 0.0
N533 N 0.79638 0.32869 0.03914 0.0
C534 C 0.78081 0.34319 0.02735 0.0
C535 C 0.80161 0.34653 0.01134 0.0
C536 C 0.78449 0.33225 0.0406 0.0
C537 C 0.80493 0.33554 0.0249 0.0
C538 C 0.77323 0.3919 0.05632 0.0
C539 C 0.76078 0.40932 0.06903 0.0
N540 N 0.7677 0.41115 0.09377 0.0
C541 C 0.78019 0.39393 0.08194 0.0
C542 C 0.7634 0.39962 0.04987 0.0
C543 C 0.77725 0.40372 0.10058 0.0
C544 C 0.8111 0.37217 0.07078 0.0
N545 N 0.79967 0.36815 0.06432 0.0
C546 C 0.799 0.35651 0.10917 0.0
C547 C 0.79352 0.3606 0.08301 0.0
C548 C 0.81083 0.36051 0.1166 0.0
C549 C 0.81688 0.36846 0.09695 0.0
H550 H 0.81564 0.37845 0.05592 0.0
H551 H 0.7843 0.35783 0.0777 0.0
C552 C 0.75556 0.35597 0.98191 0.0
N553 N 0.757 0.36601 -0.00067 0.0
C554 C 0.74432 0.35002 0.98072 0.0
C555 C 0.73618 0.36503 0.01486 0.0
C556 C 0.74762 0.37062 0.0156 0.0
C557 C 0.73444 0.35449 0.99752 0.0
H558 H 0.76324 0.35248 0.96936 0.0
H559 H 0.74904 0.37858 0.02934 0.0
C560 C 0.8119 0.38831 0.99321 0.0
N561 N 0.83427 0.39401 0.96837 0.0
C562 C 0.81393 0.39991 0.9812 0.0
C563 C 0.82128 0.37964 0.99282 0.0
C564 C 0.8253 0.40261 0.96871 0.0
C565 C 0.83251 0.38269 0.98007 0.0
C566 C 0.76759 0.38224 0.9492 0.0
C567 C 0.76854 0.37417 0.92521 0.0
C568 C 0.75642 0.38792 0.95519 0.0
C569 C 0.75825 0.37185 0.90769 0.0
C570 C 0.74634 0.38534 0.93719 0.0
N571 N 0.74745 0.37742 0.91402 0.0
C572 C 0.80055 0.35762 0.93356 0.0
C573 C 0.80722 0.37783 0.92418 0.0
C574 C 0.80632 0.35346 0.90781 0.0
N575 N 0.80115 0.3696 0.94127 0.0
C576 C 0.81341 0.37402 0.89866 0.0
C577 C 0.81295 0.36168 0.88994 0.0
H578 H 0.79534 0.35133 0.94705 0.0
H579 H 0.8072 0.38737 0.93019 0.0
C580 C 0.78932 0.41488 0.02731 0.0
N581 N 0.78289 0.40899 0.00581 0.0
C582 C 0.78818 0.42748 0.03073 0.0
C583 C 0.77411 0.42771 0.9892 0.0
C584 C 0.7755 0.4151 0.98665 0.0
C585 C 0.78042 0.43404 0.01164 0.0
H586 H 0.79518 0.40974 0.04209 0.0
H587 H 0.77064 0.41018 0.9695 0.0
O588 O 0.78607 0.36121 -6e-05 0.0
O589 O 0.77609 0.38248 0.03753 0.0
O590 O 0.80083 0.38549 0.00551 0.0
O591 O 0.77748 0.38439 0.96708 0.0
H592 H 0.77137 0.34607 0.02875 0.0
H593 H 0.8084 0.35197 -6e-05 0.0
H594 H 0.7779 0.3266 0.05213 0.0
H595 H 0.81431 0.33245 0.02409 0.0
H596 H 0.75328 0.41544 0.06413 0.0
H597 H 0.78783 0.38809 0.0873 0.0
H598 H 0.75802 0.39831 0.02992 0.0
H599 H 0.78258 0.40542 0.12042 0.0
H600 H 0.79402 0.35027 0.12336 0.0
H601 H 0.82587 0.37201 0.10199 0.0
H602 H 0.7435 0.3418 0.96747 0.0
H603 H 0.72881 0.36889 0.02788 0.0
H604 H 0.80678 0.40673 0.98128 0.0
H605 H 0.81988 0.37065 0.00216 0.0
H606 H 0.82699 0.41153 0.95921 0.0
H607 H 0.83982 0.37605 0.97948 0.0
H608 H 0.77709 0.36968 0.92026 0.0
H609 H 0.75547 0.39408 0.97389 0.0
H610 H 0.75884 0.36558 0.88912 0.0
H611 H 0.73761 0.38958 0.94173 0.0
H612 H 0.80532 0.34395 0.90173 0.0
H613 H 0.81847 0.38073 0.88597 0.0
H614 H 0.79314 0.432 0.04845 0.0
H615 H 0.76823 0.43246 0.97364 0.0
Li616 Li 0.62002 0.79356 0.02779 0.0
Li617 Li 0.62352 0.77517 0.99573 0.0
Li618 Li 0.62026 0.79536 0.97259 0.0
Li619 Li 0.60448 0.78526 0.99777 0.0
C620 C 0.64565 0.79048 0.0014 0.0
N621 N 0.67075 0.78961 0.00589 0.0
C622 C 0.65126 0.7811 0.0172 0.0
C623 C 0.65278 0.79948 0.98765 0.0
C624 C 0.66394 0.78078 0.01918 0.0
C625 C 0.66549 0.79889 0.99033 0.0
C626 C 0.60338 0.77183 0.04542 0.0
C627 C 0.58904 0.75528 0.05165 0.0
N628 N 0.58297 0.76196 0.07245 0.0
C629 C 0.59705 0.77848 0.06703 0.0
C630 C 0.59941 0.7601 0.03777 0.0
C631 C 0.58673 0.77335 0.08038 0.0
C632 C 0.61714 0.80884 0.07752 0.0
N633 N 0.62476 0.80073 0.06419 0.0
C634 C 0.63928 0.80274 0.10351 0.0
C635 C 0.63561 0.79755 0.07666 0.0
C636 C 0.63162 0.81121 0.11775 0.0
C637 C 0.62043 0.81427 0.10442 0.0
H638 H 0.60847 0.81103 0.06732 0.0
H639 H 0.64139 0.79092 0.06593 0.0
C640 C 0.63799 0.75786 0.96604 0.0
N641 N 0.63208 0.76016 0.99202 0.0
C642 C 0.645 0.74728 0.96287 0.0
C643 C 0.63918 0.74132 0.01269 0.0
C644 C 0.6323 0.75204 0.01493 0.0
C645 C 0.64588 0.73897 0.98662 0.0
H646 H 0.63743 0.76438 0.948 0.0
H647 H 0.62739 0.75405 0.03524 0.0
C648 C 0.61129 0.81512 0.00439 0.0
N649 N 0.61624 0.83982 0.009 0.0
C650 C 0.60181 0.82361 0.00363 0.0
C651 C 0.62336 0.81919 0.00786 0.0
C652 C 0.60447 0.83604 0.00607 0.0
C653 C 0.62566 0.83173 0.0099 0.0
C654 C 0.60609 0.78091 0.9366 0.0
C655 C 0.59873 0.79127 0.93349 0.0
C656 C 0.60656 0.77232 0.91359 0.0
C657 C 0.59202 0.7929 0.90736 0.0
C658 C 0.59969 0.77427 0.88778 0.0
N659 N 0.59263 0.78444 0.88523 0.0
C660 C 0.63453 0.79858 0.92268 0.0
C661 C 0.62068 0.81492 0.93056 0.0
C662 C 0.6389 0.80407 0.89682 0.0
N663 N 0.62565 0.8041 0.93897 0.0
C664 C 0.62482 0.82078 0.90494 0.0
C665 C 0.63404 0.81534 0.88764 0.0
H666 H 0.63813 0.78985 0.92973 0.0
H667 H 0.61342 0.81895 0.94353 0.0
C668 C 0.57998 0.79041 0.01054 0.0
N669 N 0.58751 0.78231 0.99688 0.0
C670 C 0.56739 0.78852 0.0104 0.0
C671 C 0.5706 0.77001 0.98198 0.0
C672 C 0.58313 0.77222 0.98285 0.0
C673 C 0.56258 0.77823 0.99587 0.0
H674 H 0.58379 0.79833 0.02155 0.0
H675 H 0.58939 0.76588 0.97245 0.0
O676 O 0.63324 0.79055 -0.00112 0.0
O677 O 0.61327 0.77691 0.03151 0.0
O678 O 0.60851 0.80296 0.0017 0.0
O679 O 0.61298 0.77924 0.96172 0.0
H680 H 0.64582 0.7742 0.02815 0.0
H681 H 0.6486 0.80684 0.97518 0.0
H682 H 0.66836 0.7735 0.03138 0.0
H683 H 0.67118 0.80577 0.98003 0.0
H684 H 0.58579 0.74627 0.0458 0.0
H685 H 0.59999 0.78757 0.07315 0.0
H686 H 0.60416 0.75484 0.02096 0.0
H687 H 0.58169 0.77844 0.09696 0.0
H688 H 0.64804 0.80022 0.11288 0.0
H689 H 0.6142 0.82063 0.11489 0.0
H690 H 0.64983 0.74571 0.94219 0.0
H691 H 0.63965 0.7352 0.03158 0.0
H692 H 0.59246 0.82059 0.00113 0.0
H693 H 0.63087 0.81287 0.0092 0.0
H694 H 0.59716 0.84267 0.0056 0.0
H695 H 0.63492 0.83503 0.01236 0.0
H696 H 0.59826 0.79804 0.95095 0.0
H697 H 0.61224 0.76426 0.91557 0.0
H698 H 0.58634 0.80091 0.90464 0.0
H699 H 0.6 0.76773 0.86974 0.0
H700 H 0.64583 0.79942 0.88389 0.0
H701 H 0.62088 0.82949 0.89883 0.0
H702 H 0.56148 0.79513 0.02109 0.0
H703 H 0.56723 0.76191 0.97083 0.0
Li704 Li 0.71098 0.89013 0.49991 0.0
Li705 Li 0.70218 0.87259 0.52569 0.0
Li706 Li 0.72237 0.87079 0.49944 0.0
Li707 Li 0.70303 0.872 0.47228 0.0
C708 C 0.72514 0.88727 0.55341 0.0
N709 N 0.74006 0.89976 0.59264 0.0
C710 C 0.72077 0.89067 0.58145 0.0
C711 C 0.73718 0.89003 0.54557 0.0
C712 C 0.72843 0.89704 0.60089 0.0
C713 C 0.74456 0.8964 0.56564 0.0
C714 C 0.68295 0.88628 0.51012 0.0
C715 C 0.66282 0.87978 0.52508 0.0
N716 N 0.66075 0.89101 0.53698 0.0
C717 C 0.68058 0.89779 0.52227 0.0
C718 C 0.67396 0.87722 0.51129 0.0
C719 C 0.66931 0.9 0.53583 0.0
C720 C 0.71311 0.91292 0.47262 0.0
N721 N 0.71243 0.90728 0.4995 0.0
C722 C 0.71355 0.9264 0.52482 0.0
C723 C 0.71248 0.91372 0.52535 0.0
C724 C 0.71445 0.93247 0.49738 0.0
C725 C 0.7142 0.92558 0.47103 0.0
H726 H 0.71282 0.90756 0.45241 0.0
H727 H 0.71145 0.90906 0.54634 0.0
C728 C 0.69291 0.85554 0.56645 0.0
N729 N 0.69352 0.86767 0.56017 0.0
C730 C 0.68706 0.85154 0.59224 0.0
C731 C 0.6824 0.87256 0.60432 0.0
C732 C 0.68851 0.87617 0.57854 0.0
C733 C 0.68174 0.86011 0.61149 0.0
H734 H 0.69711 0.849 0.55163 0.0
H735 H 0.6894 0.88577 0.57341 0.0
C736 C 0.72788 0.88522 0.44822 0.0
N737 N 0.74739 0.89286 0.41391 0.0
C738 C 0.72924 0.88094 0.41909 0.0
C739 C 0.73635 0.89353 0.45972 0.0
C740 C 0.7392 0.88486 0.40215 0.0
C741 C 0.74617 0.89724 0.44208 0.0
C742 C 0.70568 0.84847 0.48618 0.0
C743 C 0.71486 0.84172 0.47218 0.0
C744 C 0.69361 0.84434 0.48523 0.0
C745 C 0.71178 0.83101 0.45699 0.0
C746 C 0.69089 0.8336 0.46976 0.0
N747 N 0.69995 0.82723 0.45607 0.0
C748 C 0.74128 0.85933 0.52926 0.0
C749 C 0.74525 0.86179 0.47772 0.0
C750 C 0.75225 0.85306 0.53305 0.0
N751 N 0.73798 0.86346 0.50191 0.0
C752 C 0.75635 0.85565 0.48053 0.0
C753 C 0.75986 0.85104 0.5084 0.0
H754 H 0.73525 0.8607 0.54802 0.0
H755 H 0.74228 0.86484 0.45607 0.0
C756 C 0.68328 0.87093 0.43223 0.0
N757 N 0.69483 0.8669 0.43728 0.0
C758 C 0.67696 0.8672 0.40684 0.0
C759 C 0.6946 0.85534 0.39223 0.0
C760 C 0.70061 0.85939 0.41777 0.0
C761 C 0.68261 0.85925 0.38658 0.0
H762 H 0.67896 0.87704 0.44791 0.0
H763 H 0.70988 0.85651 0.42208 0.0
O764 O 0.71776 0.88096 0.53419 0.0
O765 O 0.69397 0.88393 0.49696 0.0
O766 O 0.71818 0.88143 0.46508 0.0
O767 O 0.70851 0.85905 0.50085 0.0
H768 H 0.71154 0.88849 0.58807 0.0
H769 H 0.74087 0.88715 0.52441 0.0
H770 H 0.72513 0.89981 0.62256 0.0
H771 H 0.75389 0.89862 0.5598 0.0
H772 H 0.65582 0.87282 0.52634 0.0
H773 H 0.68739 0.90494 0.52137 0.0
H774 H 0.67562 0.86829 0.50185 0.0
H775 H 0.66738 0.90884 0.54546 0.0
H776 H 0.71342 0.93141 0.5456 0.0
H777 H 0.7149 0.92992 0.44944 0.0
H778 H 0.68671 0.84186 0.59712 0.0
H779 H 0.67855 0.87943 0.61892 0.0
H780 H 0.72272 0.8746 0.4097 0.0
H781 H 0.73527 0.8972 0.48187 0.0
H782 H 0.7404 0.88156 0.37965 0.0
H783 H 0.75279 0.90366 0.45074 0.0
H784 H 0.72426 0.84475 0.47281 0.0
H785 H 0.68642 0.8494 0.49616 0.0
H786 H 0.71878 0.82573 0.44589 0.0
H787 H 0.68158 0.83034 0.46865 0.0
H788 H 0.75467 0.84965 0.5549 0.0
H789 H 0.76186 0.85404 0.46089 0.0
H790 H 0.6677 0.87037 0.40332 0.0
H791 H 0.69933 0.84935 0.3769 0.0
Li792 Li 0.10429 0.71014 0.49607 0.0
Li793 Li 0.12167 0.70124 0.52245 0.0
Li794 Li 0.12404 0.72005 0.49261 0.0
Li795 Li 0.12101 0.70051 0.46851 0.0
C796 C 0.10875 0.7239 0.55037 0.0
N797 N 0.09786 0.73723 0.59538 0.0
C798 C 0.10602 0.71836 0.5776 0.0
C799 C 0.10612 0.73628 0.54623 0.0
C800 C 0.10046 0.72523 0.60002 0.0
C801 C 0.10056 0.74285 0.5692 0.0
C802 C 0.11136 0.68028 0.49713 0.0
C803 C 0.12501 0.66303 0.50018 0.0
N804 N 0.11534 0.65536 0.49662 0.0
C805 C 0.10157 0.67224 0.49349 0.0
C806 C 0.12318 0.67565 0.50049 0.0
C807 C 0.10377 0.65966 0.49331 0.0
C808 C 0.08124 0.71366 0.47056 0.0
N809 N 0.08722 0.7128 0.49697 0.0
C810 C 0.06875 0.71634 0.52378 0.0
C811 C 0.08123 0.71385 0.52331 0.0
C812 C 0.06234 0.71753 0.49684 0.0
C813 C 0.06873 0.71605 0.46996 0.0
H814 H 0.0862 0.71251 0.44994 0.0
H815 H 0.08609 0.71275 0.54398 0.0
C816 C 0.1373 0.69791 0.57026 0.0
N817 N 0.12674 0.69374 0.55813 0.0
C818 C 0.14149 0.69316 0.59716 0.0
C819 C 0.12388 0.67982 0.59843 0.0
C820 C 0.11997 0.68492 0.57158 0.0
C821 C 0.13474 0.68401 0.61158 0.0
H822 H 0.14241 0.70502 0.55906 0.0
H823 H 0.11149 0.68194 0.56164 0.0
C824 C 0.10915 0.72618 0.44413 0.0
N825 N 0.10228 0.74674 0.41267 0.0
C826 C 0.11234 0.72739 0.41414 0.0
C827 C 0.1024 0.73537 0.45804 0.0
C828 C 0.1088 0.73787 0.39864 0.0
C829 C 0.09903 0.74571 0.44178 0.0
C830 C 0.14534 0.70786 0.47795 0.0
C831 C 0.14445 0.71265 0.44919 0.0
C832 C 0.15685 0.70568 0.49031 0.0
C833 C 0.1551 0.71518 0.43325 0.0
C834 C 0.16729 0.70833 0.47365 0.0
N835 N 0.16621 0.71299 0.44571 0.0
C836 C 0.13606 0.7394 0.51928 0.0
C837 C 0.13507 0.7413 0.46677 0.0
C838 C 0.14287 0.75011 0.52139 0.0
N839 N 0.13235 0.73521 0.49229 0.0
C840 C 0.1419 0.75206 0.46783 0.0
C841 C 0.14601 0.7565 0.49541 0.0
H842 H 0.1339 0.73427 0.53915 0.0
H843 H 0.13227 0.73766 0.44552 0.0
C844 C 0.11695 0.69168 0.41099 0.0
N845 N 0.12471 0.69101 0.43451 0.0
C846 C 0.11951 0.68531 0.38483 0.0
C847 C 0.13785 0.67746 0.40795 0.0
C848 C 0.13495 0.68401 0.43362 0.0
C849 C 0.13014 0.67816 0.38301 0.0
H850 H 0.10884 0.6973 0.41249 0.0
H851 H 0.14098 0.68367 0.45267 0.0
O852 O 0.1143 0.71732 0.52827 0.0
O853 O 0.10932 0.69262 0.49713 0.0
O854 O 0.11264 0.716 0.45963 0.0
O855 O 0.13506 0.70542 0.49419 0.0
H856 H 0.10806 0.70881 0.58129 0.0
H857 H 0.10845 0.74083 0.52564 0.0
H858 H 0.09821 0.72103 0.62111 0.0
H859 H 0.09845 0.75242 0.56626 0.0
H860 H 0.13411 0.65932 0.50275 0.0
H861 H 0.09237 0.67568 0.4908 0.0
H862 H 0.13088 0.68172 0.50334 0.0
H863 H 0.09628 0.65333 0.4905 0.0
H864 H 0.06422 0.71745 0.54503 0.0
H865 H 0.06411 0.71659 0.44869 0.0
H866 H 0.14996 0.69655 0.60649 0.0
H867 H 0.11836 0.67288 0.60908 0.0
H868 H 0.11755 0.72033 0.40302 0.0
H869 H 0.09972 0.7345 0.48107 0.0
H870 H 0.11125 0.73895 0.37547 0.0
H871 H 0.0938 0.7529 0.45229 0.0
H872 H 0.13564 0.71441 0.43926 0.0
H873 H 0.15769 0.70199 0.51256 0.0
H874 H 0.15453 0.7189 0.41099 0.0
H875 H 0.17626 0.70669 0.48294 0.0
H876 H 0.14577 0.75327 0.54312 0.0
H877 H 0.14432 0.75657 0.44722 0.0
H878 H 0.11325 0.68598 0.36623 0.0
H879 H 0.14622 0.67219 0.40736 0.0
Li880 Li 0.29602 0.12117 0.52349 0.0
Li881 Li 0.28593 0.10411 0.49894 0.0
Li882 Li 0.29604 0.11995 0.47028 0.0
Li883 Li 0.27691 0.12389 0.49636 0.0
C884 C 0.31333 0.10493 0.51497 0.0
N885 N 0.3328 0.0985 0.55087 0.0
C886 C 0.31326 0.09379 0.53017 0.0
C887 C 0.32334 0.11278 0.51794 0.0
C888 C 0.32319 0.09071 0.54821 0.0
C889 C 0.33308 0.10937 0.53625 0.0
C890 C 0.27036 0.11732 0.54998 0.0
C891 C 0.24885 0.11693 0.5616 0.0
N892 N 0.25078 0.12518 0.58375 0.0
C893 C 0.27213 0.12576 0.57294 0.0
C894 C 0.25863 0.11282 0.54434 0.0
C895 C 0.26211 0.12962 0.58975 0.0
C896 C 0.30791 0.13811 0.56046 0.0
N897 N 0.30455 0.12621 0.55803 0.0
C898 C 0.31204 0.12193 0.60684 0.0
C899 C 0.30643 0.11813 0.58054 0.0
C900 C 0.31547 0.13421 0.6101 0.0
C901 C 0.31342 0.14233 0.58646 0.0
H902 H 0.30605 0.14439 0.54248 0.0
H903 H 0.30335 0.10879 0.57824 0.0
C904 C 0.28835 0.07955 0.48172 0.0
N905 N 0.28271 0.08718 0.5012 0.0
C906 C 0.28597 0.06705 0.48254 0.0
C907 C 0.27233 0.07049 0.52407 0.0
C908 C 0.2749 0.08294 0.52227 0.0
C909 C 0.27787 0.0624 0.50395 0.0
H910 H 0.29471 0.08319 0.46559 0.0
H911 H 0.2707 0.0892 0.53775 0.0
C912 C 0.29545 0.14352 0.47765 0.0
N913 N 0.30317 0.16158 0.43902 0.0
C914 C 0.28709 0.14923 0.45868 0.0
C915 C 0.30772 0.14703 0.47706 0.0
C916 C 0.29117 0.15834 0.43932 0.0
C917 C 0.31145 0.15616 0.45733 0.0
C918 C 0.27528 0.10321 0.44666 0.0
C919 C 0.28205 0.09854 0.42285 0.0
C920 C 0.26418 0.09775 0.45434 0.0
C921 C 0.27762 0.08844 0.4072 0.0
C922 C 0.26008 0.08764 0.43819 0.0
N923 N 0.26682 0.08324 0.41515 0.0
C924 C 0.31731 0.12292 0.43492 0.0
C925 C 0.29854 0.12763 0.41116 0.0
C926 C 0.32382 0.12652 0.40972 0.0
N927 N 0.30492 0.12367 0.43524 0.0
C928 C 0.30467 0.13119 0.3854 0.0
C929 C 0.31748 0.13076 0.38461 0.0
H930 H 0.32213 0.11971 0.45434 0.0
H931 H 0.28868 0.12818 0.4122 0.0
C932 C 0.26231 0.14323 0.51397 0.0
N933 N 0.26235 0.13319 0.49625 0.0
C934 C 0.252 0.15065 0.51542 0.0
C935 C 0.24198 0.13729 0.48014 0.0
C936 C 0.25252 0.1301 0.4794 0.0
C937 C 0.24168 0.14776 0.49823 0.0
H938 H 0.27031 0.14546 0.527 0.0
H939 H 0.25288 0.12214 0.46522 0.0
O940 O 0.30365 0.10816 0.4974 0.0
O941 O 0.28001 0.11362 0.53282 0.0
O942 O 0.2917 0.13433 0.49614 0.0
O943 O 0.27957 0.11297 0.46257 0.0
H944 H 0.3056 0.08762 0.52826 0.0
H945 H 0.32347 0.12152 0.50674 0.0
H946 H 0.32324 0.08213 0.56017 0.0
H947 H 0.34082 0.1154 0.53894 0.0
H948 H 0.23972 0.1136 0.55731 0.0
H949 H 0.28111 0.12939 0.57758 0.0
H950 H 0.25706 0.10637 0.5265 0.0
H951 H 0.26335 0.13619 0.60749 0.0
H952 H 0.31331 0.11545 0.62479 0.0
H953 H 0.31597 0.15187 0.58817 0.0
H954 H 0.29059 0.06106 0.46699 0.0
H955 H 0.26602 0.06724 0.54085 0.0
H956 H 0.27759 0.14655 0.45859 0.0
H957 H 0.31434 0.14261 0.49133 0.0
H958 H 0.28482 0.16279 0.42441 0.0
H959 H 0.32093 0.1589 0.45646 0.0
H960 H 0.29071 0.10257 0.41674 0.0
H961 H 0.25889 0.10114 0.47291 0.0
H962 H 0.28279 0.08471 0.38881 0.0
H963 H 0.25155 0.08327 0.44405 0.0
H964 H 0.3337 0.12597 0.40981 0.0
H965 H 0.29947 0.13452 0.36656 0.0
H966 H 0.2521 0.15855 0.52994 0.0
H967 H 0.23427 0.13485 0.46627 0.0
Li968 Li 0.8738 0.29442 0.52922 0.0
Li969 Li 0.89143 0.28551 0.5036 0.0
Li970 Li 0.87396 0.29447 0.47533 0.0
Li971 Li 0.87175 0.27474 0.50001 0.0
C972 C 0.88908 0.31361 0.51438 0.0
N973 N 0.89594 0.33562 0.53945 0.0
C974 C 0.90067 0.31493 0.52708 0.0
C975 C 0.88105 0.32353 0.5141 0.0
C976 C 0.90395 0.32612 0.53971 0.0
C977 C 0.88466 0.33456 0.527 0.0
C978 C 0.88699 0.27138 0.55768 0.0
C979 C 0.8955 0.25229 0.57464 0.0
N980 N 0.89801 0.25748 0.60146 0.0
C981 C 0.88954 0.27649 0.58551 0.0
C982 C 0.88989 0.25914 0.55227 0.0
C983 C 0.89516 0.26933 0.60731 0.0
C984 C 0.85658 0.3011 0.57217 0.0
N985 N 0.86847 0.30256 0.56421 0.0
C986 C 0.87226 0.31482 0.60722 0.0
C987 C 0.87634 0.30913 0.58129 0.0
C988 C 0.86006 0.3134 0.616 0.0
C989 C 0.85217 0.30642 0.59827 0.0
H990 H 0.85056 0.29566 0.55842 0.0
H991 H 0.88584 0.30976 0.57521 0.0
C992 C 0.91449 0.2847 0.47756 0.0
N993 N 0.90857 0.28341 0.50394 0.0
C994 C 0.9271 0.28305 0.47599 0.0
C995 C 0.92727 0.27887 0.52883 0.0
C996 C 0.91469 0.28073 0.52941 0.0
C997 C 0.93366 0.28001 0.50186 0.0
H998 H 0.90938 0.287 0.45773 0.0
H999 H 0.90987 0.28004 0.55022 0.0
C1000 C 0.85013 0.29363 0.48995 0.0
N1001 N 0.82931 0.30316 0.46415 0.0
C1002 C 0.8422 0.28604 0.47406 0.0
C1003 C 0.84738 0.30602 0.49313 0.0
C1004 C 0.83175 0.29104 0.46107 0.0
C1005 C 0.83683 0.31068 0.4798 0.0
C1006 C 0.8874 0.26951 0.45142 0.0
C1007 C 0.88457 0.26836 0.4212 0.0
C1008 C 0.89478 0.26075 0.46511 0.0
C1009 C 0.88906 0.25836 0.40527 0.0
C1010 C 0.89911 0.25089 0.44842 0.0
N1011 N 0.89617 0.2499 0.41911 0.0
C1012 C 0.87299 0.31436 0.43444 0.0
C1013 C 0.86168 0.29665 0.42155 0.0
C1014 C 0.86902 0.32029 0.40865 0.0
N1015 N 0.86916 0.30281 0.44043 0.0
C1016 C 0.85732 0.30228 0.39589 0.0
C1017 C 0.86096 0.31426 0.3893 0.0
H1018 H 0.87909 0.31896 0.44966 0.0
H1019 H 0.85906 0.28735 0.42657 0.0
C1020 C 0.86088 0.25328 0.52265 0.0
N1021 N 0.86387 0.25945 0.49745 0.0
C1022 C 0.85439 0.24232 0.52085 0.0
C1023 C 0.85425 0.24433 0.46724 0.0
C1024 C 0.86072 0.25522 0.47009 0.0
C1025 C 0.85087 0.23781 0.49286 0.0
H1026 H 0.86327 0.25702 0.54415 0.0
H1027 H 0.86292 0.26049 0.45049 0.0
O1028 O 0.88573 0.30272 0.50192 0.0
O1029 O 0.88146 0.27828 0.53613 0.0
O1030 O 0.86053 0.28894 0.50237 0.0
O1031 O 0.88303 0.27924 0.4673 0.0
H1032 H 0.90703 0.30737 0.52733 0.0
H1033 H 0.8721 0.32271 0.5041 0.0
H1034 H 0.91286 0.32725 0.54975 0.0
H1035 H 0.87851 0.34229 0.52709 0.0
H1036 H 0.89782 0.24282 0.57072 0.0
H1037 H 0.8873 0.28591 0.59018 0.0
H1038 H 0.88775 0.25493 0.53115 0.0
H1039 H 0.89726 0.2732 0.62888 0.0
H1040 H 0.87863 0.31998 0.62072 0.0
H1041 H 0.8427 0.30513 0.60451 0.0
H1042 H 0.93166 0.28427 0.45482 0.0
H1043 H 0.9319 0.27644 0.54929 0.0
H1044 H 0.84417 0.27641 0.47155 0.0
H1045 H 0.85333 0.31197 0.50571 0.0
H1046 H 0.82558 0.2853 0.44851 0.0
H1047 H 0.83462 0.32027 0.48192 0.0
H1048 H 0.87892 0.2751 0.41021 0.0
H1049 H 0.89725 0.26161 0.48828 0.0
H1050 H 0.88689 0.25732 0.38191 0.0
H1051 H 0.90483 0.24405 0.45876 0.0
H1052 H 0.87202 0.32953 0.40412 0.0
H1053 H 0.85126 0.2973 0.38118 0.0
H1054 H 0.85177 0.23771 0.54118 0.0
H1055 H 0.85175 0.24115 0.44524 0.0
Li1056 Li 0.72106 0.1255 0.49494 0.0
Li1057 Li 0.7021 0.12339 0.5232 0.0
Li1058 Li 0.71044 0.1057 0.49411 0.0
Li1059 Li 0.70075 0.12305 0.46993 0.0
C1060 C 0.72734 0.11119 0.54639 0.0
N1061 N 0.7468 0.10464 0.58229 0.0
C1062 C 0.72866 0.11636 0.57467 0.0
C1063 C 0.7358 0.10249 0.53667 0.0
C1064 C 0.7386 0.113 0.59239 0.0
C1065 C 0.7456 0.09935 0.55505 0.0
C1066 C 0.70345 0.14722 0.50925 0.0
C1067 C 0.68795 0.16097 0.5275 0.0
N1068 N 0.6968 0.16832 0.53892 0.0
C1069 C 0.7124 0.15497 0.5209 0.0
C1070 C 0.69113 0.1503 0.5123 0.0
C1071 C 0.70885 0.16557 0.53591 0.0
C1072 C 0.74092 0.13627 0.46571 0.0
N1073 N 0.73645 0.13336 0.49302 0.0
C1074 C 0.75358 0.1427 0.51676 0.0
C1075 C 0.7425 0.13645 0.51833 0.0
C1076 C 0.75841 0.14587 0.48886 0.0
C1077 C 0.75198 0.14248 0.46308 0.0
H1078 H 0.7358 0.13389 0.44596 0.0
H1079 H 0.73854 0.13445 0.53976 0.0
C1080 C 0.68349 0.12262 0.56673 0.0
N1081 N 0.6943 0.12787 0.55921 0.0
C1082 C 0.67779 0.12565 0.59355 0.0
C1083 C 0.69445 0.13947 0.60417 0.0
C1084 C 0.69985 0.1361 0.57733 0.0
C1085 C 0.68331 0.13417 0.61272 0.0
H1086 H 0.67936 0.11597 0.55206 0.0
H1087 H 0.70852 0.14003 0.57098 0.0
C1088 C 0.72475 0.10947 0.44169 0.0
N1089 N 0.74124 0.09773 0.40486 0.0
C1090 C 0.72155 0.10659 0.41239 0.0
C1091 C 0.73643 0.10655 0.45205 0.0
C1092 C 0.72998 0.1006 0.39418 0.0
C1093 C 0.74461 0.10058 0.43316 0.0
C1094 C 0.68228 0.10869 0.4854 0.0
C1095 C 0.6806 0.09763 0.47043 0.0
C1096 C 0.6727 0.1171 0.48684 0.0
C1097 C 0.6694 0.09525 0.45667 0.0
C1098 C 0.66165 0.1144 0.47276 0.0
N1099 N 0.66024 0.10363 0.45807 0.0
C1100 C 0.71298 0.0826 0.51979 0.0
C1101 C 0.71283 0.08255 0.46701 0.0
C1102 C 0.71421 0.06993 0.52035 0.0
N1103 N 0.71242 0.08861 0.49339 0.0
C1104 C 0.71407 0.0699 0.4665 0.0
C1105 C 0.71475 0.06342 0.49343 0.0
H1106 H 0.71237 0.08766 0.54042 0.0
H1107 H 0.71197 0.08751 0.44637 0.0
C1108 C 0.6883 0.13932 0.43161 0.0
N1109 N 0.69144 0.12746 0.4361 0.0
C1110 C 0.68203 0.14271 0.40586 0.0
C1111 C 0.68221 0.12159 0.39012 0.0
C1112 C 0.6885 0.11862 0.41612 0.0
C1113 C 0.67902 0.1338 0.38456 0.0
H1114 H 0.69092 0.14618 0.44767 0.0
H1115 H 0.6912 0.10927 0.42019 0.0
O1116 O 0.71761 0.11436 0.52883 0.0
O1117 O 0.70676 0.13674 0.49474 0.0
O1118 O 0.71657 0.11533 0.45981 0.0
O1119 O 0.69324 0.11125 0.49866 0.0
H1120 H 0.72214 0.12296 0.58282 0.0
H1121 H 0.73474 0.09805 0.51538 0.0
H1122 H 0.73977 0.11701 0.61421 0.0
H1123 H 0.75221 0.09265 0.54774 0.0
H1124 H 0.67844 0.16341 0.53023 0.0
H1125 H 0.72198 0.1528 0.51852 0.0
H1126 H 0.68409 0.14447 0.50321 0.0
H1127 H 0.71568 0.17162 0.54519 0.0
H1128 H 0.75807 0.14541 0.5372 0.0
H1129 H 0.7554 0.14472 0.44113 0.0
H1130 H 0.66929 0.12121 0.59941 0.0
H1131 H 0.69895 0.14623 0.61796 0.0
H1132 H 0.71262 0.10892 0.40379 0.0
H1133 H 0.73924 0.10906 0.47423 0.0
H1134 H 0.72758 0.09825 0.37153 0.0
H1135 H 0.75367 0.09826 0.44094 0.0
H1136 H 0.68788 0.09098 0.46925 0.0
H1137 H 0.6738 0.12565 0.49859 0.0
H1138 H 0.668 0.08676 0.44484 0.0
H1139 H 0.65418 0.12087 0.47353 0.0
H1140 H 0.71446 0.06526 0.54159 0.0
H1141 H 0.71448 0.06523 0.44526 0.0
H1142 H 0.67993 0.15226 0.40224 0.0
H1143 H 0.67997 0.11441 0.37445 0.0
Li1144 Li 0.87105 0.71985 0.50141 0.0
Li1145 Li 0.87481 0.69974 0.52332 0.0
Li1146 Li 0.89086 0.71085 0.4972 0.0
Li1147 Li 0.87378 0.70174 0.47035 0.0
C1148 C 0.88019 0.72439 0.55449 0.0
N1149 N 0.87477 0.74268 0.59478 0.0
C1150 C 0.87308 0.72184 0.57956 0.0
C1151 C 0.88463 0.73622 0.55004 0.0
C1152 C 0.87043 0.73121 0.59965 0.0
C1153 C 0.88176 0.74535 0.57062 0.0
C1154 C 0.85036 0.70175 0.48503 0.0
C1155 C 0.83728 0.68614 0.46452 0.0
N1156 N 0.82996 0.69496 0.45283 0.0
C1157 C 0.84267 0.71065 0.47297 0.0
C1158 C 0.84762 0.68939 0.48096 0.0
C1159 C 0.83241 0.70703 0.45672 0.0
C1160 C 0.8642 0.74381 0.48574 0.0
N1161 N 0.86225 0.73461 0.50546 0.0
C1162 C 0.84701 0.74628 0.53058 0.0
C1163 C 0.85384 0.73561 0.52753 0.0
C1164 C 0.8487 0.75592 0.51033 0.0
C1165 C 0.8575 0.75461 0.48777 0.0
H1166 H 0.87078 0.74266 0.46806 0.0
H1167 H 0.85236 0.72805 0.54259 0.0
C1168 C 0.88017 0.68715 0.57666 0.0
N1169 N 0.87123 0.68979 0.55666 0.0
C1170 C 0.87743 0.68062 0.60247 0.0
C1171 C 0.85631 0.6798 0.58672 0.0
C1172 C 0.8595 0.68621 0.56106 0.0
C1173 C 0.86532 0.67705 0.60791 0.0
H1174 H 0.88937 0.69041 0.57293 0.0
H1175 H 0.85254 0.68863 0.54507 0.0
C1176 C 0.88929 0.72328 0.44662 0.0
N1177 N 0.90711 0.73306 0.41019 0.0
C1178 C 0.89222 0.71759 0.41969 0.0
C1179 C 0.89534 0.734 0.45489 0.0
C1180 C 0.90127 0.72267 0.4016 0.0
C1181 C 0.90435 0.73878 0.43622 0.0
C1182 C 0.89047 0.68285 0.50638 0.0
C1183 C 0.90194 0.6824 0.52002 0.0
C1184 C 0.88291 0.67257 0.50699 0.0
C1185 C 0.9056 0.67168 0.53435 0.0
C1186 C 0.88689 0.66203 0.52161 0.0
N1187 N 0.89805 0.66182 0.53488 0.0
C1188 C 0.91283 0.72011 0.5199 0.0
C1189 C 0.9146 0.71041 0.47285 0.0
C1190 C 0.92528 0.72274 0.52007 0.0
N1191 N 0.90777 0.71413 0.49643 0.0
C1192 C 0.92705 0.71305 0.47185 0.0
C1193 C 0.93249 0.71926 0.49573 0.0
H1194 H 0.90721 0.72276 0.53857 0.0
H1195 H 0.91037 0.7054 0.45487 0.0
C1196 C 0.86127 0.70041 0.41601 0.0
N1197 N 0.86889 0.69418 0.43444 0.0
C1198 C 0.85705 0.69499 0.3899 0.0
C1199 C 0.86917 0.67711 0.40138 0.0
C1200 C 0.87298 0.6828 0.42759 0.0
C1201 C 0.86099 0.68319 0.38244 0.0
H1202 H 0.8584 0.70956 0.42178 0.0
H1203 H 0.87918 0.67815 0.44249 0.0
O1204 O 0.88274 0.71538 0.53431 0.0
O1205 O 0.86057 0.70511 0.50059 0.0
O1206 O 0.88055 0.71837 0.46479 0.0
O1207 O 0.88666 0.6933 0.49256 0.0
H1208 H 0.86954 0.71275 0.58334 0.0
H1209 H 0.89012 0.73836 0.53071 0.0
H1210 H 0.86488 0.72938 0.61907 0.0
H1211 H 0.88506 0.75456 0.56734 0.0
H1212 H 0.83511 0.67661 0.46098 0.0
H1213 H 0.84466 0.72026 0.47584 0.0
H1214 H 0.85349 0.68238 0.4901 0.0
H1215 H 0.82641 0.71382 0.44712 0.0
H1216 H 0.84043 0.74693 0.5485 0.0
H1217 H 0.85894 0.76168 0.47131 0.0
H1218 H 0.88457 0.67881 0.61856 0.0
H1219 H 0.84688 0.67718 0.59019 0.0
H1220 H 0.88765 0.70928 0.41294 0.0
H1221 H 0.89321 0.7385 0.4757 0.0
H1222 H 0.90368 0.71834 0.38077 0.0
H1223 H 0.90917 0.74701 0.44245 0.0
H1224 H 0.90791 0.69027 0.51976 0.0
H1225 H 0.874 0.67277 0.49658 0.0
H1226 H 0.91442 0.67122 0.54513 0.0
H1227 H 0.88109 0.65404 0.52245 0.0
H1228 H 0.92921 0.72752 0.53889 0.0
H1229 H 0.93242 0.71005 0.45295 0.0
H1230 H 0.85088 0.69999 0.37554 0.0
H1231 H 0.87239 0.668 0.39623 0.0
Li1232 Li 0.2754 0.87066 0.49733 0.0
Li1233 Li 0.29528 0.87462 0.52544 0.0
Li1234 Li 0.28433 0.89079 0.49931 0.0
Li1235 Li 0.29423 0.87545 0.4719 0.0
C1236 C 0.27092 0.88896 0.5472 0.0
N1237 N 0.25616 0.90636 0.57349 0.0
C1238 C 0.27537 0.89608 0.57064 0.0
C1239 C 0.25894 0.89065 0.53722 0.0
C1240 C 0.26777 0.90484 0.58361 0.0
C1241 C 0.25163 0.8995 0.5508 0.0
C1242 C 0.29506 0.85158 0.48095 0.0
C1243 C 0.31173 0.83953 0.46167 0.0
N1244 N 0.30367 0.83291 0.44523 0.0
C1245 C 0.28693 0.84457 0.46409 0.0
C1246 C 0.30755 0.84897 0.47997 0.0
C1247 C 0.29147 0.8352 0.4461 0.0
C1248 C 0.25458 0.85967 0.47212 0.0
N1249 N 0.26086 0.86158 0.49777 0.0
C1250 C 0.24639 0.84995 0.52547 0.0
C1251 C 0.25697 0.857 0.5242 0.0
C1252 C 0.2398 0.84757 0.49924 0.0
C1253 C 0.24396 0.85263 0.47233 0.0
H1254 H 0.25797 0.86342 0.45144 0.0
H1255 H 0.26216 0.85878 0.54423 0.0
C1256 C 0.3077 0.87891 0.57952 0.0
N1257 N 0.3041 0.8702 0.55983 0.0
C1258 C 0.31339 0.87555 0.60611 0.0
C1259 C 0.31204 0.85441 0.59082 0.0
C1260 C 0.30626 0.85816 0.56474 0.0
C1261 C 0.31547 0.86313 0.61225 0.0
H1262 H 0.30592 0.88843 0.5748 0.0
H1263 H 0.30333 0.85146 0.54856 0.0
C1264 C 0.27765 0.88965 0.43983 0.0
N1265 N 0.27764 0.90476 0.39056 0.0
C1266 C 0.28766 0.89719 0.43403 0.0
C1267 C 0.26763 0.88979 0.42056 0.0
C1268 C 0.28749 0.90476 0.40902 0.0
C1269 C 0.2678 0.89749 0.39577 0.0
C1270 C 0.3141 0.8897 0.49652 0.0
C1271 C 0.31803 0.90081 0.48453 0.0
C1272 C 0.32273 0.88113 0.50601 0.0
C1273 C 0.33053 0.90306 0.48174 0.0
C1274 C 0.33516 0.88374 0.50287 0.0
N1275 N 0.33877 0.89455 0.49087 0.0
C1276 C 0.2882 0.91482 0.51737 0.0
C1277 C 0.27012 0.912 0.48906 0.0
C1278 C 0.28577 0.92726 0.5202 0.0
N1279 N 0.28043 0.90753 0.5019 0.0
C1280 C 0.26739 0.92441 0.49107 0.0
C1281 C 0.27529 0.93218 0.50678 0.0
H1282 H 0.29628 0.91094 0.5275 0.0
H1283 H 0.264 0.90592 0.47734 0.0
C1284 C 0.29497 0.86606 0.4149 0.0
N1285 N 0.30231 0.87155 0.4353 0.0
C1286 C 0.29961 0.86239 0.38747 0.0
C1287 C 0.31929 0.87038 0.402 0.0
C1288 C 0.31428 0.8738 0.42933 0.0
C1289 C 0.31194 0.86453 0.38067 0.0
H1290 H 0.28548 0.86438 0.42018 0.0
H1291 H 0.31999 0.87821 0.44557 0.0
O1292 O 0.27833 0.88063 0.53351 0.0
O1293 O 0.29081 0.86099 0.49814 0.0
O1294 O 0.27757 0.88213 0.46419 0.0
O1295 O 0.30188 0.88745 0.49974 0.0
H1296 H 0.28463 0.89493 0.57853 0.0
H1297 H 0.25539 0.88531 0.51889 0.0
H1298 H 0.27112 0.91047 0.60165 0.0
H1299 H 0.24237 0.90095 0.54319 0.0
H1300 H 0.32138 0.83748 0.46051 0.0
H1301 H 0.27724 0.84643 0.46462 0.0
H1302 H 0.31397 0.85422 0.49299 0.0
H1303 H 0.28529 0.82977 0.43276 0.0
H1304 H 0.24341 0.84636 0.54673 0.0
H1305 H 0.23925 0.85089 0.45155 0.0
H1306 H 0.31577 0.88258 0.62202 0.0
H1307 H 0.31369 0.84476 0.59426 0.0
H1308 H 0.29549 0.8972 0.4486 0.0
H1309 H 0.25979 0.88402 0.42475 0.0
H1310 H 0.29518 0.91064 0.40427 0.0
H1311 H 0.2601 0.89769 0.38068 0.0
H1312 H 0.31148 0.90763 0.47748 0.0
H1313 H 0.31991 0.87254 0.51555 0.0
H1314 H 0.33369 0.9116 0.47238 0.0
H1315 H 0.34193 0.87716 0.50998 0.0
H1316 H 0.29214 0.933 0.53223 0.0
H1317 H 0.25917 0.92789 0.48067 0.0
H1318 H 0.29363 0.85773 0.372 0.0
H1319 H 0.3288 0.87239 0.39758 0.0
Li1320 Li 0.12212 0.29394 0.52454 0.0
Li1321 Li 0.12558 0.27479 0.4973 0.0
Li1322 Li 0.1224 0.29364 0.47022 0.0
Li1323 Li 0.10614 0.2836 0.49793 0.0
C1324 C 0.14444 0.29877 0.4968 0.0
N1325 N 0.1617 0.31716 0.495 0.0
C1326 C 0.15684 0.29589 0.49473 0.0
C1327 C 0.14081 0.31101 0.49785 0.0
C1328 C 0.16543 0.30532 0.49388 0.0
C1329 C 0.14968 0.32017 0.49694 0.0
C1330 C 0.1059 0.27368 0.55036 0.0
C1331 C 0.09043 0.25882 0.5628 0.0
N1332 N 0.08605 0.26647 0.58412 0.0
C1333 C 0.10129 0.28134 0.57257 0.0
C1334 C 0.10048 0.26228 0.5456 0.0
C1335 C 0.09124 0.27755 0.58935 0.0
C1336 C 0.11881 0.3115 0.57013 0.0
N1337 N 0.1266 0.30311 0.55846 0.0
C1338 C 0.1413 0.30719 0.59634 0.0
C1339 C 0.13767 0.30088 0.57089 0.0
C1340 C 0.13333 0.31568 0.6096 0.0
C1341 C 0.12196 0.31786 0.59598 0.0
H1342 H 0.11003 0.31302 0.55975 0.0
H1343 H 0.14368 0.29416 0.56105 0.0
C1344 C 0.14403 0.25936 0.47657 0.0
N1345 N 0.13503 0.26036 0.49722 0.0
C1346 C 0.15134 0.24894 0.47568 0.0
C1347 C 0.13989 0.24076 0.51719 0.0
C1348 C 0.13285 0.25138 0.51739 0.0
C1349 C 0.14933 0.23951 0.49627 0.0
H1350 H 0.14552 0.2667 0.46084 0.0
H1351 H 0.12572 0.25251 0.53376 0.0
C1352 C 0.10156 0.30791 0.48185 0.0
N1353 N 0.08407 0.32087 0.45072 0.0
C1354 C 0.09646 0.30304 0.45587 0.0
C1355 C 0.09773 0.31935 0.49201 0.0
C1356 C 0.08763 0.30974 0.44046 0.0
C1357 C 0.08889 0.32577 0.47594 0.0
C1358 C 0.11656 0.26729 0.4455 0.0
C1359 C 0.1213 0.26821 0.4167 0.0
C1360 C 0.11355 0.25578 0.45684 0.0
C1361 C 0.12331 0.2576 0.40013 0.0
C1362 C 0.11572 0.24538 0.43963 0.0
N1363 N 0.12054 0.2465 0.41187 0.0
C1364 C 0.13707 0.29698 0.42095 0.0
C1365 C 0.12346 0.31356 0.42794 0.0
C1366 C 0.14176 0.30235 0.39527 0.0
N1367 N 0.12787 0.30245 0.43623 0.0
C1368 C 0.12791 0.31929 0.40239 0.0
C1369 C 0.13705 0.31358 0.38546 0.0
H1370 H 0.1407 0.28836 0.4287 0.0
H1371 H 0.11653 0.31804 0.44103 0.0
C1372 C 0.08191 0.28804 0.51485 0.0
N1373 N 0.08913 0.28052 0.49847 0.0
C1374 C 0.06932 0.28624 0.51553 0.0
C1375 C 0.07187 0.26889 0.48277 0.0
C1376 C 0.08441 0.2711 0.48253 0.0
C1377 C 0.06414 0.27655 0.49931 0.0
H1378 H 0.08594 0.29549 0.52722 0.0
H1379 H 0.09035 0.26532 0.46959 0.0
O1380 O 0.13594 0.28962 0.49736 0.0
O1381 O 0.11555 0.27739 0.53318 0.0
O1382 O 0.11009 0.30148 0.49771 0.0
O1383 O 0.11462 0.2776 0.46217 0.0
H1384 H 0.15978 0.28646 0.49376 0.0
H1385 H 0.13125 0.31343 0.49929 0.0
H1386 H 0.17506 0.30322 0.4923 0.0
H1387 H 0.147 0.32968 0.49775 0.0
H1388 H 0.08609 0.25007 0.55914 0.0
H1389 H 0.10534 0.29017 0.57667 0.0
H1390 H 0.10388 0.2562 0.52858 0.0
H1391 H 0.08754 0.28343 0.60647 0.0
H1392 H 0.15027 0.30539 0.6055 0.0
H1393 H 0.11543 0.32416 0.6055 0.0
H1394 H 0.15848 0.24827 0.45908 0.0
H1395 H 0.13819 0.23376 0.53371 0.0
H1396 H 0.09926 0.2942 0.44761 0.0
H1397 H 0.10156 0.32323 0.51211 0.0
H1398 H 0.08362 0.30609 0.42034 0.0
H1399 H 0.08586 0.33464 0.48353 0.0
H1400 H 0.12326 0.27702 0.40704 0.0
H1401 H 0.10976 0.25487 0.47891 0.0
H1402 H 0.12703 0.2582 0.37787 0.0
H1403 H 0.11359 0.23643 0.44836 0.0
H1404 H 0.14903 0.29779 0.38329 0.0
H1405 H 0.12407 0.32798 0.39566 0.0
H1406 H 0.0637 0.29251 0.52817 0.0
H1407 H 0.0683 0.26123 0.47023 0.0
H1408 H 0.23429 0.55067 0.96558 0.0
H1409 H 0.23729 0.52849 0.96631 0.0
H1410 H 0.21246 0.52562 0.04068 0.0
H1411 H 0.20993 0.54782 0.04077 0.0
H1412 H 0.23016 0.51046 0.04861 0.0
H1413 H 0.2037 0.52011 0.96628 0.0
H1414 H 0.19775 0.53038 0.91962 0.0
H1415 H 0.22836 0.5142 0.87472 0.0
H1416 H 0.23458 0.50396 0.92125 0.0
H1417 H 0.20434 0.45153 0.02625 0.0
H1418 H 0.20791 0.47348 0.02799 0.0
H1419 H 0.24069 0.46904 0.97604 0.0
H1420 H 0.23764 0.44691 0.97554 0.0
H1421 H 0.22192 0.48741 0.95561 0.0
H1422 H 0.24621 0.47559 0.04004 0.0
H1423 H 0.25011 0.46487 0.08734 0.0
H1424 H 0.22095 0.48476 0.12898 0.0
H1425 H 0.21675 0.49548 0.08178 0.0
C1426 C 0.22957 0.54525 0.98215 0.0
C1427 C 0.22183 0.55084 0.003 0.0
C1428 C 0.23124 0.53262 0.98252 0.0
C1429 C 0.22492 0.52536 0.00319 0.0
C1430 C 0.21744 0.53102 0.02454 0.0
C1431 C 0.21597 0.54367 0.02455 0.0
C1432 C 0.22566 0.51185 0.00198 0.0
C1433 C 0.2283 0.50544 0.02828 0.0
C1434 C 0.22344 0.50528 0.97535 0.0
C1435 C 0.21969 0.51139 0.94732 0.0
C1436 C 0.20921 0.51882 0.9465 0.0
C1437 C 0.20578 0.52462 0.92008 0.0
C1438 C 0.21269 0.52297 0.89424 0.0
C1439 C 0.22303 0.51549 0.89477 0.0
C1440 C 0.22651 0.50968 0.92115 0.0
C1441 C 0.21247 0.45512 0.01572 0.0
C1442 C 0.22072 0.44738 0.00084 0.0
C1443 C 0.21443 0.46769 0.01658 0.0
C1444 C 0.22458 0.47279 0.00226 0.0
C1445 C 0.23281 0.4652 0.9872 0.0
C1446 C 0.23098 0.45258 0.98676 0.0
C1447 C 0.22622 0.48614 0.00223 0.0
C1448 C 0.22399 0.49249 0.97574 0.0
C1449 C 0.22854 0.49264 0.02878 0.0
C1450 C 0.2311 0.48627 0.05727 0.0
C1451 C 0.24056 0.47761 0.0592 0.0
C1452 C 0.24284 0.47154 0.08602 0.0
C1453 C 0.23576 0.47411 0.11113 0.0
C1454 C 0.22642 0.48278 0.1095 0.0
C1455 C 0.22409 0.48886 0.08273 0.0
H1456 H 0.23754 0.46941 0.13188 0.0
H1457 H 0.21002 0.52747 0.87381 0.0
H1458 H 0.44819 0.20377 0.96262 0.0
H1459 H 0.47047 0.20458 0.96398 0.0
H1460 H 0.46896 0.22797 0.04117 0.0
H1461 H 0.44659 0.22745 0.03954 0.0
H1462 H 0.48581 0.23577 -0.00048 0.0
H1463 H 0.47543 0.19867 0.05036 0.0
H1464 H 0.46519 0.17879 0.05664 0.0
H1465 H 0.48382 0.16484 0.97973 0.0
H1466 H 0.49405 0.18471 0.97272 0.0
H1467 H 0.54861 0.22866 0.03705 0.0
H1468 H 0.5263 0.2291 0.03839 0.0
H1469 H 0.525 0.20372 0.96494 0.0
H1470 H 0.54727 0.20282 0.96431 0.0
H1471 H 0.50945 0.19723 0.00738 0.0
H1472 H 0.51928 0.23432 0.95523 0.0
H1473 H 0.52938 0.25423 0.94804 0.0
H1474 H 0.51176 0.26819 0.02635 0.0
H1475 H 0.50168 0.2483 0.03424 0.0
C1476 C 0.45259 0.2092 0.97969 0.0
C1477 C 0.44566 0.21554 0.00101 0.0
C1478 C 0.46531 0.20957 0.98058 0.0
C1479 C 0.47132 0.21622 0.00288 0.0
C1480 C 0.46446 0.22275 0.02387 0.0
C1481 C 0.45171 0.22237 0.02304 0.0
C1482 C 0.4848 0.21622 0.00434 0.0
C1483 C 0.49101 0.22738 0.00169 0.0
C1484 C 0.49151 0.20522 0.00658 0.0
C1485 C 0.48543 0.19322 0.01087 0.0
C1486 C 0.47728 0.1914 0.03465 0.0
C1487 C 0.47148 0.18012 0.03837 0.0
C1488 C 0.47383 0.17057 0.01856 0.0
C1489 C 0.482 0.17226 0.99504 0.0
C1490 C 0.48781 0.18352 0.99121 0.0
C1491 C 0.54357 0.2231 0.02133 0.0
C1492 C 0.54971 0.21572 0.00053 0.0
C1493 C 0.53083 0.22346 0.02192 0.0
C1494 C 0.52401 0.21655 0.00154 0.0
C1495 C 0.5301 0.20916 0.9808 0.0
C1496 C 0.54283 0.20875 0.98028 0.0
C1497 C 0.5105 0.21677 0.00216 0.0
C1498 C 0.50428 0.20564 0.0053 0.0
C1499 C 0.50379 0.22779 0.00026 0.0
C1500 C 0.50982 0.23977 0.9955 0.0
C1501 C 0.51764 0.2416 0.97106 0.0
C1502 C 0.52335 0.25289 0.96683 0.0
C1503 C 0.52124 0.26246 0.98677 0.0
C1504 C 0.5134 0.26076 0.01094 0.0
C1505 C 0.50767 0.24949 0.01529 0.0
H1506 H 0.52567 0.27119 0.98346 0.0
H1507 H 0.46933 0.16184 0.02146 0.0
H1508 H 0.75937 0.4474 0.00771 0.0
H1509 H 0.75719 0.4696 0.01112 0.0
H1510 H 0.7959 0.47305 0.02682 0.0
H1511 H 0.7982 0.45091 0.02307 0.0
H1512 H 0.78228 0.48772 0.06395 0.0
H1513 H 0.78467 0.47808 0.95897 0.0
H1514 H 0.77829 0.46763 0.91288 0.0
H1515 H 0.74258 0.48355 0.92024 0.0
H1516 H 0.74871 0.49396 0.96664 0.0
H1517 H 0.79762 0.54747 0.02046 0.0
H1518 H 0.79524 0.52546 0.02622 0.0
H1519 H 0.75662 0.52872 0.00908 0.0
H1520 H 0.75887 0.55087 0.00377 0.0
H1521 H 0.76732 0.51071 0.976 0.0
H1522 H 0.7658 0.52244 0.07786 0.0
H1523 H 0.77234 0.53304 0.12358 0.0
H1524 H 0.8063 0.51342 0.12237 0.0
H1525 H 0.80004 0.50283 0.07637 0.0
C1526 C 0.76743 0.4529 0.01174 0.0
C1527 C 0.77898 0.44742 0.01491 0.0
C1528 C 0.76615 0.46556 0.01383 0.0
C1529 C 0.7764 0.47294 0.019 0.0
C1530 C 0.78788 0.46749 0.02293 0.0
C1531 C 0.78917 0.45484 0.02082 0.0
C1532 C 0.77531 0.48639 0.01925 0.0
C1533 C 0.77908 0.49278 0.0447 0.0
C1534 C 0.77078 0.4929 0.9944 0.0
C1535 C 0.7671 0.48668 0.96645 0.0
C1536 C 0.77543 0.47927 0.95089 0.0
C1537 C 0.77186 0.47337 0.92469 0.0
C1538 C 0.76003 0.4749 0.91369 0.0
C1539 C 0.75174 0.48236 0.92882 0.0
C1540 C 0.75525 0.48826 0.95506 0.0
C1541 C 0.78857 0.54355 0.01842 0.0
C1542 C 0.77842 0.55092 0.01174 0.0
C1543 C 0.78724 0.53097 0.02168 0.0
C1544 C 0.77573 0.5255 0.0184 0.0
C1545 C 0.76556 0.53279 0.01174 0.0
C1546 C 0.76688 0.54542 0.00857 0.0
C1547 C 0.77454 0.51208 0.0205 0.0
C1548 C 0.77034 0.50568 0.99547 0.0
C1549 C 0.77868 0.50557 0.04575 0.0
C1550 C 0.78248 0.5119 0.07351 0.0
C1551 C 0.77471 0.52045 0.0872 0.0
C1552 C 0.77836 0.52645 0.1132 0.0
C1553 C 0.78974 0.52392 0.12584 0.0
C1554 C 0.79748 0.51537 0.11254 0.0
C1555 C 0.79388 0.50936 0.08652 0.0
H1556 H 0.79255 0.52858 0.14597 0.0
H1557 H 0.75728 0.47032 0.89339 0.0
H1558 H 0.54625 0.78029 0.04146 0.0
H1559 H 0.52406 0.77785 0.03903 0.0
H1560 H 0.52666 0.76905 0.94563 0.0
H1561 H 0.54885 0.77167 0.9478 0.0
H1562 H 0.50936 0.78652 0.95746 0.0
H1563 H 0.52035 0.74692 0.99386 0.0
H1564 H 0.53055 0.73223 0.02719 0.0
H1565 H 0.51061 0.74653 0.10173 0.0
H1566 H 0.50041 0.76144 0.06891 0.0
H1567 H 0.44644 0.77216 0.94493 0.0
H1568 H 0.46871 0.77026 0.9436 0.0
H1569 H 0.47022 0.77649 0.03841 0.0
H1570 H 0.44797 0.77822 0.03989 0.0
H1571 H 0.4856 0.75878 0.02281 0.0
H1572 H 0.47617 0.79941 0.98858 0.0
H1573 H 0.46617 0.81473 0.95658 0.0
H1574 H 0.48341 0.7992 0.87954 0.0
H1575 H 0.4934 0.78366 0.91105 0.0
C1576 C 0.54208 0.77783 0.02043 0.0
C1577 C 0.54924 0.77619 0.9948 0.0
C1578 C 0.52944 0.77633 0.01913 0.0
C1579 C 0.52377 0.77317 0.9922 0.0
C1580 C 0.5309 0.77144 0.96663 0.0
C1581 C 0.54355 0.77287 0.96794 0.0
C1582 C 0.51033 0.77229 0.99048 0.0
C1583 C 0.50415 0.7803 0.97132 0.0
C1584 C 0.5036 0.76437 0.00914 0.0
C1585 C 0.50969 0.75537 0.02894 0.0
C1586 C 0.51821 0.747 0.01739 0.0
C1587 C 0.52398 0.73862 0.03619 0.0
C1588 C 0.52125 0.73846 0.06657 0.0
C1589 C 0.51272 0.74667 0.0782 0.0
C1590 C 0.50693 0.75508 0.0595 0.0
C1591 C 0.45155 0.77312 0.96544 0.0
C1592 C 0.44552 0.77539 0.99248 0.0
C1593 C 0.46424 0.77203 0.96468 0.0
C1594 C 0.47111 0.77338 0.99086 0.0
C1595 C 0.46508 0.77538 0.01797 0.0
C1596 C 0.45239 0.77637 0.01879 0.0
C1597 C 0.48462 0.7731 0.99 0.0
C1598 C 0.49081 0.76491 0.0087 0.0
C1599 C 0.49138 0.78093 0.9711 0.0
C1600 C 0.48542 0.79029 0.95213 0.0
C1601 C 0.47775 0.7992 0.96478 0.0
C1602 C 0.4721 0.80793 0.94674 0.0
C1603 C 0.47413 0.80792 0.91603 0.0
C1604 C 0.48184 0.79918 0.90332 0.0
C1605 C 0.4875 0.79042 0.92126 0.0
H1606 H 0.46974 0.81469 0.9021 0.0
H1607 H 0.52573 0.73197 0.08108 0.0
H1608 H 0.70244 0.04743 0.45776 0.0
H1609 H 0.7034 0.02517 0.45851 0.0
H1610 H 0.72948 0.02658 0.53044 0.0
H1611 H 0.7289 0.04893 0.52913 0.0
H1612 H 0.73576 0.00966 0.48884 0.0
H1613 H 0.70013 0.02026 0.54501 0.0
H1614 H 0.68048 0.03055 0.55453 0.0
H1615 H 0.6644 0.01188 0.48017 0.0
H1616 H 0.68401 0.0016 0.46993 0.0
H1617 H 0.72843 0.94736 0.53234 0.0
H1618 H 0.72927 0.9697 0.53154 0.0
H1619 H 0.70348 0.97026 0.45892 0.0
H1620 H 0.70235 0.94798 0.46011 0.0
H1621 H 0.6974 0.98621 0.50266 0.0
H1622 H 0.73331 0.97577 0.44638 0.0
H1623 H 0.75301 0.96549 0.43739 0.0
H1624 H 0.76859 0.98379 0.51294 0.0
H1625 H 0.74893 0.99405 0.52263 0.0
C1626 C 0.70851 0.04302 0.47346 0.0
C1627 C 0.71558 0.04993 0.49344 0.0
C1628 C 0.70896 0.0303 0.47405 0.0
C1629 C 0.71638 0.02426 0.49481 0.0
C1630 C 0.72365 0.0311 0.51436 0.0
C1631 C 0.72323 0.04385 0.51375 0.0
C1632 C 0.71636 0.01078 0.49633 0.0
C1633 C 0.72741 0.00452 0.49228 0.0
C1634 C 0.70541 0.00412 0.50034 0.0
C1635 C 0.69357 0.01024 0.50654 0.0
C1636 C 0.69243 0.01842 0.53055 0.0
C1637 C 0.68129 0.02424 0.5361 0.0
C1638 C 0.67121 0.02189 0.51792 0.0
C1639 C 0.67222 0.0137 0.4942 0.0
C1640 C 0.68334 0.00786 0.48854 0.0
C1641 C 0.72292 0.95226 0.51628 0.0
C1642 C 0.71533 0.94594 0.49628 0.0
C1643 C 0.72349 0.96499 0.51568 0.0
C1644 C 0.71651 0.97159 0.495 0.0
C1645 C 0.70896 0.96531 0.47498 0.0
C1646 C 0.7084 0.95259 0.47553 0.0
C1647 C 0.71677 0.98508 0.49482 0.0
C1648 C 0.70575 0.99135 0.49925 0.0
C1649 C 0.72776 0.99172 0.49126 0.0
C1650 C 0.7396 0.98558 0.48541 0.0
C1651 C 0.74091 0.97752 0.46123 0.0
C1652 C 0.75207 0.97172 0.45597 0.0
C1653 C 0.76204 0.97396 0.47463 0.0
C1654 C 0.76086 0.98204 0.49853 0.0
C1655 C 0.74971 0.98787 0.5039 0.0
H1656 H 0.77067 0.96946 0.47052 0.0
H1657 H 0.66259 0.02641 0.52226 0.0
H1658 H 0.94879 0.71378 0.53923 0.0
H1659 H 0.97087 0.71681 0.53839 0.0
H1660 H 0.96805 0.73358 0.45165 0.0
H1661 H 0.94593 0.73008 0.45203 0.0
H1662 H 0.9857 0.71828 0.45103 0.0
H1663 H 0.97482 0.75045 0.51665 0.0
H1664 H 0.96468 0.76043 0.5592 0.0
H1665 H 0.98423 0.73725 0.61981 0.0
H1666 H 0.99436 0.72701 0.57762 0.0
H1667 H 0.04951 0.73239 0.45894 0.0
H1668 H 0.02743 0.73578 0.45776 0.0
H1669 H 0.02305 0.71218 0.53384 0.0
H1670 H 0.04501 0.70841 0.53467 0.0
H1671 H 0.00934 0.73436 0.53675 0.0
H1672 H 0.01787 0.70079 0.46847 0.0
H1673 H 0.02809 0.69154 0.42505 0.0
H1674 H 0.01286 0.71915 0.36822 0.0
H1675 H 0.00268 0.72867 0.41142 0.0
C1676 C 0.95289 0.71823 0.52016 0.0
C1677 C 0.94573 0.72172 0.49572 0.0
C1678 C 0.96549 0.72004 0.51975 0.0
C1679 C 0.97112 0.72564 0.49519 0.0
C1680 C 0.96391 0.72928 0.47087 0.0
C1681 C 0.95132 0.72728 0.47107 0.0
C1682 C 0.98459 0.7269 0.49417 0.0
C1683 C 0.99083 0.72207 0.46952 0.0
C1684 C 0.99133 0.73173 0.51838 0.0
C1685 C 0.9853 0.73791 0.54391 0.0
C1686 C 0.9769 0.74742 0.53904 0.0
C1687 C 0.97116 0.75313 0.5631 0.0
C1688 C 0.97379 0.74946 0.59218 0.0
C1689 C 0.98219 0.74009 0.59727 0.0
C1690 C 0.98796 0.73434 0.57328 0.0
C1691 C 0.04385 0.72785 0.4753 0.0
C1692 C 0.04903 0.72007 0.4968 0.0
C1693 C 0.03126 0.72989 0.47472 0.0
C1694 C 0.02367 0.72421 0.49569 0.0
C1695 C 0.02881 0.71671 0.51762 0.0
C1696 C 0.04137 0.71459 0.51808 0.0
C1697 C 0.01028 0.72554 0.49402 0.0
C1698 C 0.00411 0.73083 0.51813 0.0
C1699 C 0.0036 0.7213 0.46918 0.0
C1700 C 0.00964 0.71552 0.44321 0.0
C1701 C 0.01678 0.70494 0.44675 0.0
C1702 C 0.02255 0.69964 0.42218 0.0
C1703 C 0.02116 0.70478 0.39391 0.0
C1704 C 0.01396 0.7152 0.39014 0.0
C1705 C 0.00818 0.72055 0.41465 0.0
H1706 H 0.02563 0.70066 0.37491 0.0
H1707 H 0.96934 0.75389 0.61078 0.0
H1708 H 0.27304 0.04669 0.45825 0.0
H1709 H 0.27021 0.02453 0.46117 0.0
H1710 H 0.27449 0.02606 0.55656 0.0
H1711 H 0.27747 0.04819 0.55376 0.0
H1712 H 0.28909 0.00872 0.52989 0.0
H1713 H 0.24697 0.02093 0.52821 0.0
H1714 H 0.22891 0.03172 0.50866 0.0
H1715 H 0.2318 0.01194 0.42644 0.0
H1716 H 0.24999 0.00114 0.44533 0.0
H1717 H 0.27625 0.94681 0.55583 0.0
H1718 H 0.27424 0.96906 0.55755 0.0
H1719 H 0.26719 0.96968 0.46304 0.0
H1720 H 0.269 0.94741 0.46132 0.0
H1721 H 0.25316 0.98607 0.4913 0.0
H1722 H 0.29563 0.97517 0.48984 0.0
H1723 H 0.31418 0.96451 0.507 0.0
H1724 H 0.3113 0.98214 0.5921 0.0
H1725 H 0.29261 0.99277 0.57558 0.0
C1726 C 0.27335 0.04228 0.47983 0.0
C1727 C 0.2755 0.04912 0.50578 0.0
C1728 C 0.27163 0.02967 0.48149 0.0
C1729 C 0.27205 0.02371 0.50911 0.0
C1730 C 0.27407 0.03053 0.53507 0.0
C1731 C 0.27571 0.04315 0.53345 0.0
C1732 C 0.27113 0.01027 0.51071 0.0
C1733 C 0.28114 0.00376 0.52198 0.0
C1734 C 0.2609 0.00386 0.49948 0.0
C1735 C 0.24992 0.0103 0.48811 0.0
C1736 C 0.24382 0.01895 0.50587 0.0
C1737 C 0.23354 0.02505 0.49492 0.0
C1738 C 0.22923 0.02254 0.4663 0.0
C1739 C 0.23516 0.01388 0.4486 0.0
C1740 C 0.24545 0.00776 0.45943 0.0
C1741 C 0.27419 0.95171 0.53549 0.0
C1742 C 0.2729 0.94545 0.50839 0.0
C1743 C 0.27303 0.96439 0.53649 0.0
C1744 C 0.27078 0.97102 0.51032 0.0
C1745 C 0.26893 0.96473 0.48348 0.0
C1746 C 0.26997 0.95203 0.48252 0.0
C1747 C 0.27111 0.98453 0.51057 0.0
C1748 C 0.26104 0.99104 0.49951 0.0
C1749 C 0.28136 0.99098 0.52165 0.0
C1750 C 0.29264 0.98466 0.53158 0.0
C1751 C 0.2989 0.9767 0.51229 0.0
C1752 C 0.30944 0.97068 0.52189 0.0
C1753 C 0.31389 0.97262 0.55065 0.0
C1754 C 0.30782 0.98063 0.56985 0.0
C1755 C 0.29726 0.98666 0.56037 0.0
H1756 H 0.32206 0.96795 0.55804 0.0
H1757 H 0.22127 0.02728 0.45787 0.0
H1758 H 0.04816 0.27914 0.54574 0.0
H1759 H 0.02597 0.27752 0.54436 0.0
H1760 H 0.02756 0.26753 0.4515 0.0
H1761 H 0.04972 0.26986 0.45224 0.0
H1762 H 0.01087 0.284 0.45918 0.0
H1763 H 0.02039 0.24639 0.50683 0.0
H1764 H 0.0301 0.23268 0.54335 0.0
H1765 H 0.01154 0.25112 0.61455 0.0
H1766 H 0.00184 0.26506 0.57849 0.0
H1767 H 0.94713 0.26904 0.45787 0.0
H1768 H 0.96931 0.2665 0.45591 0.0
H1769 H 0.97268 0.28376 0.54179 0.0
H1770 H 0.95061 0.2868 0.54352 0.0
H1771 H 0.98654 0.26153 0.53456 0.0
H1772 H 0.97869 0.3002 0.48529 0.0
H1773 H 0.96888 0.31334 0.44768 0.0
H1774 H 0.98435 0.29155 0.37773 0.0
H1775 H 0.99412 0.27815 0.41498 0.0
C1776 C 0.04379 0.27666 0.52497 0.0
C1777 C 0.05072 0.27468 0.49907 0.0
C1778 C 0.03111 0.27555 0.52432 0.0
C1779 C 0.02511 0.27223 0.49792 0.0
C1780 C 0.03201 0.27004 0.47215 0.0
C1781 C 0.04469 0.27127 0.4727 0.0
C1782 C 0.0116 0.27178 0.49683 0.0
C1783 C 0.00557 0.27887 0.47531 0.0
C1784 C 0.00467 0.26524 0.51812 0.0
C1785 C 0.01046 0.25684 0.53993 0.0
C1786 C 0.01845 0.24759 0.53029 0.0
C1787 C 0.02394 0.23976 0.55091 0.0
C1788 C 0.02146 0.24104 0.58126 0.0
C1789 C 0.01346 0.25014 0.59103 0.0
C1790 C 0.00795 0.258 0.5705 0.0
C1791 C 0.95259 0.27242 0.47622 0.0
C1792 C 0.94708 0.27816 0.50082 0.0
C1793 C 0.96523 0.27086 0.47514 0.0
C1794 C 0.97256 0.27494 0.49872 0.0
C1795 C 0.96712 0.28047 0.52351 0.0
C1796 C 0.9545 0.28216 0.52448 0.0
C1797 C 0.98596 0.27383 0.49723 0.0
C1798 C 0.99192 0.26648 0.51825 0.0
C1799 C 0.99283 0.28001 0.4753 0.0
C1800 C 0.98701 0.28809 0.45291 0.0
C1801 C 0.97991 0.29814 0.46189 0.0
C1802 C 0.97437 0.30565 0.44065 0.0
C1803 C 0.97596 0.30326 0.41034 0.0
C1804 C 0.98311 0.29337 0.40122 0.0
C1805 C 0.98865 0.28582 0.42238 0.0
H1806 H 0.97167 0.30908 0.39392 0.0
H1807 H 0.02572 0.23498 0.59719 0.0
H1808 H 0.28128 0.35573 0.0053 0.0
H1809 H 0.29871 0.34174 0.00829 0.0
H1810 H 0.2758 0.31213 0.97823 0.0
H1811 H 0.25833 0.32583 0.97648 0.0
H1812 H 0.28886 0.30557 0.02545 0.0
H1813 H 0.29669 0.32666 0.93206 0.0
H1814 H 0.30045 0.34488 0.90109 0.0
H1815 H 0.33216 0.35351 0.95326 0.0
H1816 H 0.32849 0.33542 0.98478 0.0
H1817 H 0.32602 0.25882 0.97568 0.0
H1818 H 0.31238 0.27635 0.97665 0.0
H1819 H 0.34142 0.2989 0.01114 0.0
H1820 H 0.35539 0.28139 0.00917 0.0
H1821 H 0.32736 0.31088 0.96866 0.0
H1822 H 0.32087 0.28854 0.05838 0.0
H1823 H 0.31731 0.27019 0.08897 0.0
H1824 H 0.28317 0.26404 0.0444 0.0
H1825 H 0.2866 0.28226 0.01322 0.0
C1826 C 0.27996 0.34622 -0.00055 0.0
C1827 C 0.26841 0.34191 0.99054 0.0
C1828 C 0.28995 0.33828 0.00092 0.0
C1829 C 0.28856 0.32592 0.99329 0.0
C1830 C 0.27708 0.32164 0.98419 0.0
C1831 C 0.26712 0.32953 0.98287 0.0
C1832 C 0.29887 0.31721 0.99547 0.0
C1833 C 0.29724 0.3067 0.01287 0.0
C1834 C 0.31001 0.31894 0.98002 0.0
C1835 C 0.31223 0.32977 0.96098 0.0
C1836 C 0.30441 0.3325 0.93707 0.0
C1837 C 0.30653 0.34279 0.91939 0.0
C1838 C 0.31652 0.35037 0.92526 0.0
C1839 C 0.32442 0.34765 0.94877 0.0
C1840 C 0.32232 0.33737 0.96654 0.0
C1841 C 0.32962 0.26754 0.9829 0.0
C1842 C 0.3418 0.26869 0.99244 0.0
C1843 C 0.32177 0.27753 0.98374 0.0
C1844 C 0.32585 0.28885 0.99446 0.0
C1845 C 0.33809 0.2902 0.003 0.0
C1846 C 0.34601 0.28018 0.00209 0.0
C1847 C 0.31708 0.29904 0.99761 0.0
C1848 C 0.31903 0.30984 0.9815 0.0
C1849 C 0.30622 0.29763 0.01431 0.0
C1850 C 0.30403 0.28674 0.03333 0.0
C1851 C 0.31263 0.28324 0.05498 0.0
C1852 C 0.31064 0.27286 0.07244 0.0
C1853 C 0.30003 0.26595 0.0686 0.0
C1854 C 0.29138 0.26941 0.04735 0.0
C1855 C 0.29334 0.27977 0.0298 0.0
H1856 H 0.29851 0.25791 0.08213 0.0
H1857 H 0.31815 0.35833 0.91155 0.0
H1858 H 0.71927 0.3508 0.04521 0.0
H1859 H 0.70093 0.33822 0.04716 0.0
H1860 H 0.70489 0.32981 0.95384 0.0
H1861 H 0.72285 0.34297 0.95124 0.0
H1862 H 0.68142 0.3321 0.9675 0.0
H1863 H 0.71615 0.31076 0.00844 0.0
H1864 H 0.73363 0.30791 0.04239 0.0
H1865 H 0.70956 0.30976 0.1177 0.0
H1866 H 0.69195 0.31279 0.08418 0.0
H1867 H 0.65795 0.27211 0.95438 0.0
H1868 H 0.67002 0.29077 0.95645 0.0
H1869 H 0.65798 0.29711 0.0465 0.0
H1870 H 0.64545 0.27862 0.04435 0.0
H1871 H 0.68336 0.29767 0.03918 0.0
H1872 H 0.64805 0.31574 0.99516 0.0
H1873 H 0.63112 0.31755 0.95925 0.0
H1874 H 0.6568 0.32068 0.88746 0.0
H1875 H 0.6739 0.31871 0.92288 0.0
C1876 C 0.71609 0.34655 0.02488 0.0
C1877 C 0.72265 0.34779 0.99811 0.0
C1878 C 0.70565 0.33925 0.02613 0.0
C1879 C 0.70169 0.33287 0.0008 0.0
C1880 C 0.70783 0.33459 0.97372 0.0
C1881 C 0.71819 0.34199 0.97236 0.0
C1882 C 0.69174 0.32374 0.00289 0.0
C1883 C 0.68185 0.32454 0.98308 0.0
C1884 C 0.6922 0.31402 0.02366 0.0
C1885 C 0.70276 0.31215 0.04383 0.0
C1886 C 0.7146 0.31065 0.03225 0.0
C1887 C 0.72453 0.30899 0.05141 0.0
C1888 C 0.72271 0.30869 0.08219 0.0
C1889 C 0.71096 0.31002 0.09386 0.0
C1890 C 0.701 0.3117 0.0748 0.0
C1891 C 0.65758 0.2776 0.97441 0.0
C1892 C 0.6507 0.27383 -0.00079 0.0
C1893 C 0.66453 0.28826 0.97556 0.0
C1894 C 0.66481 0.29534 0.00154 0.0
C1895 C 0.65785 0.29175 0.02623 0.0
C1896 C 0.65078 0.28114 0.02501 0.0
C1897 C 0.67315 0.30592 0.00349 0.0
C1898 C 0.68278 0.30536 0.024 0.0
C1899 C 0.67253 0.31574 0.9831 0.0
C1900 C 0.66227 0.31699 0.9617 0.0
C1901 C 0.65009 0.31672 0.97169 0.0
C1902 C 0.64046 0.31779 0.95142 0.0
C1903 C 0.64288 0.31921 0.92109 0.0
C1904 C 0.65494 0.31958 0.91097 0.0
C1905 C 0.6646 0.3185 0.93114 0.0
H1906 H 0.63541 0.32004 0.90543 0.0
H1907 H 0.73041 0.3074 0.09698 0.0
H1908 H 0.73881 0.67142 0.96328 0.0
H1909 H 0.7215 0.6853 0.96448 0.0
H1910 H 0.69858 0.65654 -0.00114 0.0
H1911 H 0.71578 0.64229 0.99615 0.0
H1912 H 0.68635 0.67015 0.95908 0.0
H1913 H 0.71021 0.67793 0.04556 0.0
H1914 H 0.72893 0.68201 0.07442 0.0
H1915 H 0.73411 0.71569 0.02714 0.0
H1916 H 0.71551 0.71173 0.99767 0.0
H1917 H 0.64195 0.71536 0.00523 0.0
H1918 H 0.65658 0.69838 0.00487 0.0
H1919 H 0.68349 0.7217 0.96387 0.0
H1920 H 0.66908 0.7387 0.96467 0.0
H1921 H 0.6924 0.70939 0.01235 0.0
H1922 H 0.66873 0.70027 0.92364 0.0
H1923 H 0.64971 0.69582 0.8963 0.0
H1924 H 0.64361 0.66426 0.95102 0.0
H1925 H 0.66253 0.66861 0.97895 0.0
C1926 C 0.73005 0.66792 0.97048 0.0
C1927 C 0.72872 0.65571 0.9797 0.0
C1928 C 0.72019 0.67593 0.97153 0.0
C1929 C 0.70883 0.67202 0.98238 0.0
C1930 C 0.70731 0.65977 0.99067 0.0
C1931 C 0.71718 0.65167 0.98936 0.0
C1932 C 0.69871 0.68091 0.98566 0.0
C1933 C 0.68759 0.67864 0.97113 0.0
C1934 C 0.70035 0.692 0.00137 0.0
C1935 C 0.7115 0.69448 0.01925 0.0
C1936 C 0.71538 0.68617 0.04117 0.0
C1937 C 0.72596 0.68847 0.05766 0.0
C1938 C 0.73271 0.69909 0.05257 0.0
C1939 C 0.72887 0.70746 0.03104 0.0
C1940 C 0.7183 0.7052 0.01447 0.0
C1941 C 0.65098 0.71685 0.99611 0.0
C1942 C 0.65435 0.72838 0.98491 0.0
C1943 C 0.65929 0.70713 0.99574 0.0
C1944 C 0.67108 0.70879 0.98422 0.0
C1945 C 0.67442 0.72023 0.97281 0.0
C1946 C 0.66613 0.72991 0.97305 0.0
C1947 C 0.68021 0.69882 0.98495 0.0
C1948 C 0.69113 0.70085 0.00048 0.0
C1949 C 0.6783 0.68749 0.9705 0.0
C1950 C 0.66697 0.68485 0.9536 0.0
C1951 C 0.66328 0.69244 0.93 0.0
C1952 C 0.65253 0.68992 0.91437 0.0
C1953 C 0.64544 0.67978 0.92198 0.0
C1954 C 0.6491 0.67212 0.94518 0.0
C1955 C 0.65984 0.6746 0.96091 0.0
H1956 H 0.63712 0.67785 0.90985 0.0
H1957 H 0.74091 0.70085 0.06535 0.0
H1958 H 0.27431 0.65405 0.96453 0.0
H1959 H 0.29284 0.66629 0.96904 0.0
H1960 H 0.29145 0.66266 0.06463 0.0
H1961 H 0.27282 0.65042 0.06023 0.0
H1962 H 0.29367 0.68574 0.04911 0.0
H1963 H 0.31432 0.64898 0.02377 0.0
H1964 H 0.31862 0.63023 0.99523 0.0
H1965 H 0.3261 0.65165 0.91731 0.0
H1966 H 0.32168 0.67053 0.94523 0.0
H1967 H 0.34611 0.72312 0.05959 0.0
H1968 H 0.33381 0.70452 0.06391 0.0
H1969 H 0.32876 0.70409 0.96866 0.0
H1970 H 0.34108 0.7226 0.96419 0.0
H1971 H 0.33181 0.68109 0.9906 0.0
H1972 H 0.30765 0.71705 0.01369 0.0
H1973 H 0.30303 0.73595 0.0414 0.0
H1974 H 0.30188 0.71571 0.1232 0.0
H1975 H 0.30666 0.69671 0.09598 0.0
C1976 C 0.2781 0.65563 0.98647 0.0
C1977 C 0.27209 0.65134 0.01204 0.0
C1978 C 0.28871 0.6626 0.98902 0.0
C1979 C 0.2936 0.66529 0.01717 0.0
C1980 C 0.28783 0.66068 0.0427 0.0
C1981 C 0.27718 0.65375 0.04016 0.0
C1982 C 0.30393 0.67395 0.01993 0.0
C1983 C 0.30214 0.68456 0.03691 0.0
C1984 C 0.31488 0.67253 0.00351 0.0
C1985 C 0.31759 0.66118 0.98659 0.0
C1986 C 0.3168 0.6497 0.00049 0.0
C1987 C 0.31927 0.63904 0.98443 0.0
C1988 C 0.32261 0.63975 0.95447 0.0
C1989 C 0.32351 0.65111 0.94052 0.0
C1990 C 0.32104 0.6618 0.95647 0.0
C1991 C 0.34243 0.719 0.03958 0.0
C1992 C 0.34442 0.72437 0.01159 0.0
C1993 C 0.33547 0.70837 0.04206 0.0
C1994 C 0.33026 0.70303 0.01663 0.0
C1995 C 0.33273 0.70805 0.98855 0.0
C1996 C 0.33975 0.71863 0.98603 0.0
C1997 C 0.32139 0.69289 0.01931 0.0
C1998 C 0.32345 0.68207 0.00331 0.0
C1999 C 0.31064 0.6941 0.03655 0.0
C2000 C 0.30765 0.7055 0.05286 0.0
C2001 C 0.30649 0.71665 0.03761 0.0
C2002 C 0.30383 0.72738 0.05322 0.0
C2003 C 0.3022 0.72704 0.08405 0.0
C2004 C 0.30318 0.71596 0.09933 0.0
C2005 C 0.30586 0.70521 0.08382 0.0
H2006 H 0.30014 0.73535 0.0961 0.0
H2007 H 0.32452 0.63149 0.94207 0.0
H2008 H 0.85531 0.77977 0.50005 0.0
H2009 H 0.84199 0.79771 0.49918 0.0
H2010 H 0.81132 0.77514 0.52392 0.0
H2011 H 0.82437 0.75715 0.52329 0.0
H2012 H 0.80537 0.78939 0.47945 0.0
H2013 H 0.82594 0.79471 0.57378 0.0
H2014 H 0.84381 0.79699 0.60672 0.0
H2015 H 0.85471 0.82921 0.55917 0.0
H2016 H 0.83697 0.82703 0.52568 0.0
H2017 H 0.76143 0.82907 0.53606 0.0
H2018 H 0.77872 0.81498 0.5362 0.0
H2019 H 0.8002 0.84097 0.48668 0.0
H2020 H 0.78281 0.8552 0.48629 0.0
H2021 H 0.81239 0.82701 0.53874 0.0
H2022 H 0.79063 0.82196 0.44629 0.0
H2023 H 0.77207 0.81967 0.41572 0.0
H2024 H 0.76304 0.7866 0.4621 0.0
H2025 H 0.78146 0.78881 0.49331 0.0
C2026 C 0.84571 0.77862 0.50516 0.0
C2027 C 0.84091 0.76701 0.51175 0.0
C2028 C 0.83814 0.78891 0.50497 0.0
C2029 C 0.82568 0.78777 0.51169 0.0
C2030 C 0.82092 0.77623 0.51867 0.0
C2031 C 0.82843 0.76596 0.51864 0.0
C2032 C 0.81738 0.79845 0.51046 0.0
C2033 C 0.80691 0.79757 0.49257 0.0
C2034 C 0.81956 0.80929 0.52686 0.0
C2035 C 0.83021 0.81062 0.547 0.0
C2036 C 0.8322 0.80222 0.57019 0.0
C2037 C 0.8423 0.80351 0.58899 0.0
C2038 C 0.85041 0.81322 0.58498 0.0
C2039 C 0.84843 0.82168 0.56221 0.0
C2040 C 0.83835 0.82043 0.54332 0.0
C2041 C 0.76991 0.83191 0.52575 0.0
C2042 C 0.7708 0.84321 0.51113 0.0
C2043 C 0.77974 0.82384 0.52577 0.0
C2044 C 0.79066 0.82697 0.51138 0.0
C2045 C 0.79182 0.83846 0.49794 0.0
C2046 C 0.7819 0.84651 0.49757 0.0
C2047 C 0.80035 0.8177 0.50843 0.0
C2048 C 0.81103 0.81887 0.52537 0.0
C2049 C 0.79837 0.80706 0.49132 0.0
C2050 C 0.78737 0.80561 0.47231 0.0
C2051 C 0.78464 0.81426 0.45014 0.0
C2052 C 0.77415 0.81297 0.43267 0.0
C2053 C 0.76637 0.80301 0.43701 0.0
C2054 C 0.76908 0.79431 0.45878 0.0
C2055 C 0.77955 0.79557 0.47635 0.0
H2056 H 0.75825 0.80203 0.42346 0.0
H2057 H 0.85822 0.8142 0.59956 0.0
H2058 H 0.21813 0.85026 0.46926 0.0
H2059 H 0.2009 0.836 0.46812 0.0
H2060 H 0.21981 0.81233 0.52954 0.0
H2061 H 0.23716 0.82628 0.53004 0.0
H2062 H 0.21112 0.79991 0.48275 0.0
H2063 H 0.1958 0.82992 0.55193 0.0
H2064 H 0.18999 0.8506 0.56842 0.0
H2065 H 0.16389 0.85304 0.49733 0.0
H2066 H 0.16965 0.83242 0.48016 0.0
H2067 H 0.16634 0.75918 0.52977 0.0
H2068 H 0.18076 0.77613 0.52996 0.0
H2069 H 0.15916 0.79486 0.46392 0.0
H2070 H 0.1444 0.77799 0.46417 0.0
H2071 H 0.16834 0.81046 0.50864 0.0
H2072 H 0.18307 0.78008 0.44089 0.0
H2073 H 0.18865 0.75925 0.42507 0.0
H2074 H 0.21593 0.75758 0.4936 0.0
H2075 H 0.21039 0.77834 0.51014 0.0
C2076 C 0.21861 0.842 0.48248 0.0
C2077 C 0.22901 0.8394 0.49975 0.0
C2078 C 0.20872 0.83393 0.48202 0.0
C2079 C 0.20906 0.82315 0.4989 0.0
C2080 C 0.21936 0.82061 0.5164 0.0
C2081 C 0.22923 0.82865 0.51686 0.0
C2082 C 0.19897 0.81417 0.49743 0.0
C2083 C 0.2018 0.80219 0.48871 0.0
C2084 C 0.18674 0.81728 0.50425 0.0
C2085 C 0.18326 0.82968 0.51455 0.0
C2086 C 0.1889 0.83491 0.53964 0.0
C2087 C 0.18559 0.84661 0.54915 0.0
C2088 C 0.1766 0.85315 0.53387 0.0
C2089 C 0.17087 0.84797 0.50911 0.0
C2090 C 0.17414 0.83627 0.49949 0.0
C2091 C 0.16449 0.767 0.51571 0.0
C2092 C 0.15424 0.76723 0.49688 0.0
C2093 C 0.1728 0.77663 0.51568 0.0
C2094 C 0.17109 0.78664 0.49667 0.0
C2095 C 0.16064 0.78717 0.47865 0.0
C2096 C 0.1523 0.7775 0.47864 0.0
C2097 C 0.1806 0.79618 0.49469 0.0
C2098 C 0.17767 0.80823 0.50253 0.0
C2099 C 0.19277 0.79318 0.48704 0.0
C2100 C 0.19624 0.78074 0.4769 0.0
C2101 C 0.1902 0.77524 0.45272 0.0
C2102 C 0.19336 0.76345 0.44361 0.0
C2103 C 0.20262 0.75709 0.45836 0.0
C2104 C 0.20876 0.76252 0.48221 0.0
C2105 C 0.20562 0.7743 0.49144 0.0
H2106 H 0.20505 0.74795 0.45128 0.0
H2107 H 0.17406 0.86221 0.54127 0.0
H2108 H 0.21751 0.14122 0.5002 0.0
H2109 H 0.19974 0.15486 0.50194 0.0
H2110 H 0.22371 0.18612 0.49912 0.0
H2111 H 0.2414 0.17262 0.49718 0.0
H2112 H 0.20651 0.18841 0.54202 0.0
H2113 H 0.20821 0.17664 0.43775 0.0
H2114 H 0.20811 0.16185 0.39634 0.0
H2115 H 0.1728 0.14896 0.42353 0.0
H2116 H 0.17277 0.16358 0.46537 0.0
H2117 H 0.17412 0.23919 0.4927 0.0
H2118 H 0.18764 0.2215 0.49541 0.0
H2119 H 0.15648 0.19769 0.50437 0.0
H2120 H 0.1428 0.21544 0.50137 0.0
H2121 H 0.17449 0.18909 0.46383 0.0
H2122 H 0.17163 0.20286 0.56401 0.0
H2123 H 0.17164 0.21791 0.60484 0.0
H2124 H 0.20897 0.22696 0.58568 0.0
H2125 H 0.20913 0.2121 0.54441 0.0
C2126 C 0.21895 0.151 0.4997 0.0
C2127 C 0.23084 0.15586 0.49871 0.0
C2128 C 0.20882 0.15877 0.50077 0.0
C2129 C 0.21043 0.17149 0.50065 0.0
C2130 C 0.22228 0.17632 0.49949 0.0
C2131 C 0.23238 0.1686 0.49846 0.0
C2132 C 0.19989 0.17993 0.50186 0.0
C2133 C 0.19953 0.18859 0.52487 0.0
C2134 C 0.19055 0.17985 0.48008 0.0
C2135 C 0.19055 0.17109 0.45489 0.0
C2136 C 0.20047 0.17058 0.43505 0.0
C2137 C 0.20043 0.16224 0.41147 0.0
C2138 C 0.19047 0.15444 0.40736 0.0
C2139 C 0.18052 0.15499 0.42678 0.0
C2140 C 0.18052 0.1633 0.45041 0.0
C2141 C 0.17013 0.23018 0.49491 0.0
C2142 C 0.15742 0.22868 0.49684 0.0
C2143 C 0.17786 0.2201 0.49668 0.0
C2144 C 0.17304 0.20833 0.50041 0.0
C2145 C 0.16034 0.20672 0.50163 0.0
C2146 C 0.15257 0.21685 0.50009 0.0
C2147 C 0.18142 0.19783 0.50333 0.0
C2148 C 0.18134 0.18876 0.48126 0.0
C2149 C 0.19037 0.1975 0.526 0.0
C2150 C 0.19036 0.20641 0.55096 0.0
C2151 C 0.17981 0.20812 0.56835 0.0
C2152 C 0.17979 0.21661 0.5916 0.0
C2153 C 0.19029 0.2234 0.59782 0.0
C2154 C 0.20084 0.2217 0.58083 0.0
C2155 C 0.20091 0.21323 0.55753 0.0
H2156 H 0.19026 0.22997 0.61583 0.0
H2157 H 0.19045 0.14799 0.38909 0.0
H2158 H 0.85256 0.21629 0.52393 0.0
H2159 H 0.83834 0.199 0.5224 0.0
H2160 H 0.81719 0.21738 0.45489 0.0
H2161 H 0.8311 0.23475 0.45683 0.0
H2162 H 0.80321 0.20951 0.50064 0.0
H2163 H 0.83485 0.19313 0.43743 0.0
H2164 H 0.85585 0.18684 0.42492 0.0
H2165 H 0.85568 0.16123 0.49727 0.0
H2166 H 0.83471 0.16749 0.51048 0.0
H2167 H 0.76249 0.16519 0.4519 0.0
H2168 H 0.77996 0.17899 0.45178 0.0
H2169 H 0.79688 0.15798 0.52173 0.0
H2170 H 0.7795 0.14385 0.52146 0.0
H2171 H 0.81363 0.16633 0.47853 0.0
H2172 H 0.78208 0.18224 0.54124 0.0
H2173 H 0.76106 0.18833 0.55416 0.0
H2174 H 0.76127 0.2149 0.48388 0.0
H2175 H 0.78223 0.20883 0.47023 0.0
C2176 C 0.84489 0.21661 0.50871 0.0
C2177 C 0.84294 0.22688 0.4905 0.0
C2178 C 0.83685 0.2067 0.50769 0.0
C2179 C 0.82676 0.20691 0.48843 0.0
C2180 C 0.82494 0.21704 0.46986 0.0
C2181 C 0.83296 0.22691 0.47083 0.0
C2182 C 0.81759 0.19699 0.48879 0.0
C2183 C 0.80547 0.2001 0.49546 0.0
C2184 C 0.82065 0.18465 0.48308 0.0
C2185 C 0.83326 0.18088 0.47516 0.0
C2186 C 0.83933 0.18624 0.45085 0.0
C2187 C 0.85122 0.18266 0.44359 0.0
C2188 C 0.85711 0.17367 0.46035 0.0
C2189 C 0.85111 0.16821 0.48435 0.0
C2190 C 0.83922 0.17176 0.49172 0.0
C2191 C 0.77004 0.16331 0.46679 0.0
C2192 C 0.76958 0.15347 0.48683 0.0
C2193 C 0.77997 0.17126 0.46683 0.0
C2194 C 0.7896 0.16958 0.48703 0.0
C2195 C 0.78949 0.15944 0.50607 0.0
C2196 C 0.77953 0.15145 0.50606 0.0
C2197 C 0.79924 0.17896 0.48959 0.0
C2198 C 0.81141 0.17575 0.48376 0.0
C2199 C 0.79628 0.19124 0.49622 0.0
C2200 C 0.7837 0.195 0.50455 0.0
C2201 C 0.77762 0.18932 0.52839 0.0
C2202 C 0.76571 0.19278 0.53587 0.0
C2203 C 0.75982 0.20198 0.5198 0.0
C2204 C 0.76584 0.20776 0.49628 0.0
C2205 C 0.77774 0.20433 0.48868 0.0
H2206 H 0.75061 0.20464 0.52562 0.0
H2207 H 0.86631 0.17091 0.45468 0.0
H2208 H 0.1426 0.33759 0.37499 0.0
H2209 H 0.15006 0.34664 0.32858 0.0
H2210 H 0.14906 0.31122 0.28651 0.0
H2211 H 0.14162 0.30214 0.33272 0.0
H2212 H 0.17004 0.32281 0.27482 0.0
H2213 H 0.12716 0.33267 0.2725 0.0
H2214 H 0.10799 0.34135 0.29201 0.0
H2215 H 0.12434 0.37698 0.29478 0.0
H2216 H 0.14368 0.36847 0.27564 0.0
H2217 H 0.17552 0.339 0.124 0.0
H2218 H 0.16736 0.33162 0.17131 0.0
H2219 H 0.16999 0.36796 0.20794 0.0
H2220 H 0.17818 0.37541 0.16059 0.0
H2221 H 0.14869 0.35683 0.22365 0.0
H2222 H 0.19137 0.3471 0.22469 0.0
H2223 H 0.21052 0.33845 0.20497 0.0
H2224 H 0.19459 0.30262 0.20486 0.0
H2225 H 0.17527 0.31108 0.22418 0.0
C2226 C 0.14388 0.33176 0.35576 0.0
C2227 C 0.14154 0.31916 0.35749 0.0
C2228 C 0.14814 0.33694 0.32929 0.0
C2229 C 0.15002 0.32961 0.30405 0.0
C2230 C 0.14771 0.31703 0.30577 0.0
C2231 C 0.1435 0.31185 0.3322 0.0
C2232 C 0.15457 0.33496 0.27589 0.0
C2233 C 0.16529 0.33015 0.26345 0.0
C2234 C 0.14855 0.34477 0.26154 0.0
C2235 C 0.13691 0.34991 0.27293 0.0
C2236 C 0.1267 0.34234 0.27749 0.0
C2237 C 0.1158 0.34723 0.28844 0.0
C2238 C 0.11496 0.3597 0.29471 0.0
C2239 C 0.12501 0.36732 0.28996 0.0
C2240 C 0.13594 0.36247 0.27904 0.0
C2241 C 0.17439 0.34541 0.14216 0.0
C2242 C 0.17759 0.35776 0.13869 0.0
C2243 C 0.16971 0.34119 0.16913 0.0
C2244 C 0.16825 0.34922 0.19324 0.0
C2245 C 0.17107 0.36163 0.1896 0.0
C2246 C 0.17572 0.36587 0.16254 0.0
C2247 C 0.16406 0.34455 0.22242 0.0
C2248 C 0.15344 0.34951 0.23509 0.0
C2249 C 0.17018 0.33488 0.23704 0.0
C2250 C 0.18183 0.32974 0.22564 0.0
C2251 C 0.19192 0.33739 0.22026 0.0
C2252 C 0.20281 0.33252 0.20918 0.0
C2253 C 0.20376 0.32 0.2036 0.0
C2254 C 0.19383 0.31232 0.20916 0.0
C2255 C 0.18291 0.31714 0.2202 0.0
H2256 H 0.2122 0.31625 0.19502 0.0
H2257 H 0.10651 0.36348 0.30319 0.0
H2258 H 0.6844 0.12537 0.32885 0.0
H2259 H 0.67573 0.13209 0.28154 0.0
H2260 H 0.65218 0.15724 0.32811 0.0
H2261 H 0.66054 0.15027 0.37572 0.0
H2262 H 0.64032 0.1458 0.28231 0.0
H2263 H 0.67817 0.16731 0.29731 0.0
H2264 H 0.70023 0.16912 0.30741 0.0
H2265 H 0.70819 0.14812 0.22904 0.0
H2266 H 0.68615 0.14604 0.2187 0.0
H2267 H 0.62734 0.18775 0.16603 0.0
H2268 H 0.63375 0.17761 0.21185 0.0
H2269 H 0.6571 0.15362 0.1612 0.0
H2270 H 0.65064 0.16366 0.11515 0.0
H2271 H 0.6689 0.16342 0.20813 0.0
H2272 H 0.6309 0.14296 0.1915 0.0
H2273 H 0.60882 0.14137 0.18149 0.0
H2274 H 0.60104 0.16057 0.26264 0.0
H2275 H 0.62309 0.16243 0.27295 0.0
C2276 C 0.67721 0.13216 0.3291 0.0
C2277 C 0.67319 0.13734 0.35604 0.0
C2278 C 0.67235 0.13607 0.30203 0.0
C2279 C 0.66345 0.14528 0.30134 0.0
C2280 C 0.65909 0.15016 0.32819 0.0
C2281 C 0.66395 0.14625 0.35532 0.0
C2282 C 0.65907 0.15019 0.27256 0.0
C2283 C 0.64653 0.14976 0.26617 0.0
C2284 C 0.66724 0.15511 0.25132 0.0
C2285 C 0.6805 0.15641 0.25741 0.0
C2286 C 0.68462 0.16299 0.28236 0.0
C2287 C 0.69712 0.16409 0.2881 0.0
C2288 C 0.70561 0.15871 0.26892 0.0
C2289 C 0.70161 0.15226 0.2439 0.0
C2290 C 0.68911 0.15113 0.23808 0.0
C2291 C 0.63369 0.18019 0.16458 0.0
C2292 C 0.63848 0.1765 0.13696 0.0
C2293 C 0.63735 0.17441 0.19079 0.0
C2294 C 0.64581 0.16479 0.18988 0.0
C2295 C 0.65056 0.16104 0.16236 0.0
C2296 C 0.64691 0.16681 0.13611 0.0
C2297 C 0.65013 0.15906 0.21781 0.0
C2298 C 0.66267 0.15936 0.22411 0.0
C2299 C 0.64195 0.15406 0.23894 0.0
C2300 C 0.62866 0.15293 0.23286 0.0
C2301 C 0.62449 0.14693 0.2071 0.0
C2302 C 0.61197 0.14596 0.20139 0.0
C2303 C 0.60353 0.15089 0.22138 0.0
C2304 C 0.60759 0.15677 0.24716 0.0
C2305 C 0.62009 0.15777 0.25296 0.0
H2306 H 0.59384 0.15013 0.21692 0.0
H2307 H 0.71528 0.15957 0.27341 0.0
H2308 H 0.87456 0.67263 0.33859 0.0
H2309 H 0.8671 0.66353 0.29203 0.0
H2310 H 0.83 0.67122 0.31832 0.0
H2311 H 0.83742 0.68048 0.36465 0.0
H2312 H 0.83476 0.64658 0.2947 0.0
H2313 H 0.84122 0.68952 0.27259 0.0
H2314 H 0.85357 0.70833 0.27033 0.0
H2315 H 0.8794 0.69045 0.21314 0.0
H2316 H 0.86729 0.67146 0.21543 0.0
H2317 H 0.80109 0.64029 0.16252 0.0
H2318 H 0.81031 0.64721 0.20883 0.0
H2319 H 0.84572 0.64793 0.16672 0.0
H2320 H 0.83643 0.64182 0.11963 0.0
H2321 H 0.84328 0.66728 0.19866 0.0
H2322 H 0.83701 0.62491 0.2169 0.0
H2323 H 0.8257 0.60547 0.21929 0.0
H2324 H 0.80109 0.62087 0.28352 0.0
H2325 H 0.81216 0.64048 0.28123 0.0
C2326 C 0.86482 0.67228 0.33443 0.0
C2327 C 0.85654 0.67727 0.35498 0.0
C2328 C 0.86059 0.66713 0.30792 0.0
C2329 C 0.84803 0.66676 0.30187 0.0
C2330 C 0.83973 0.67144 0.32272 0.0
C2331 C 0.84397 0.67677 0.34898 0.0
C2332 C 0.84351 0.66183 0.27334 0.0
C2333 C 0.8365 0.65112 0.27366 0.0
C2334 C 0.84618 0.6676 0.24599 0.0
C2335 C 0.85343 0.67903 0.24447 0.0
C2336 C 0.8496 0.68956 0.25977 0.0
C2337 C 0.85654 0.70027 0.25843 0.0
C2338 C 0.86728 0.70057 0.24168 0.0
C2339 C 0.87109 0.69019 0.22615 0.0
C2340 C 0.86419 0.67946 0.22745 0.0
C2341 C 0.81082 0.64206 0.16291 0.0
C2342 C 0.818 0.6405 0.13723 0.0
C2343 C 0.81612 0.64584 0.18961 0.0
C2344 C 0.82875 0.64787 0.19145 0.0
C2345 C 0.83596 0.64634 0.1659 0.0
C2346 C 0.83064 0.64272 0.13904 0.0
C2347 C 0.83435 0.65201 0.2198 0.0
C2348 C 0.84158 0.6626 0.21954 0.0
C2349 C 0.83204 0.646 0.24717 0.0
C2350 C 0.82536 0.63421 0.24869 0.0
C2351 C 0.82913 0.62419 0.23137 0.0
C2352 C 0.82278 0.61313 0.23274 0.0
C2353 C 0.81267 0.61194 0.25149 0.0
C2354 C 0.80892 0.62181 0.26898 0.0
C2355 C 0.81524 0.63289 0.26769 0.0
H2356 H 0.80776 0.60338 0.25251 0.0
H2357 H 0.87264 0.70887 0.24066 0.0
H2358 H 0.33455 0.85471 0.36982 0.0
H2359 H 0.34272 0.84753 0.32231 0.0
H2360 H 0.3091 0.85754 0.27866 0.0
H2361 H 0.30099 0.86515 0.32581 0.0
H2362 H 0.31718 0.83351 0.26631 0.0
H2363 H 0.33283 0.87466 0.26723 0.0
H2364 H 0.34389 0.89217 0.28881 0.0
H2365 H 0.37683 0.87094 0.29215 0.0
H2366 H 0.36592 0.85324 0.27097 0.0
H2367 H 0.33612 0.82267 0.11857 0.0
H2368 H 0.32817 0.83233 0.16372 0.0
H2369 H 0.36373 0.82935 0.20469 0.0
H2370 H 0.37178 0.82013 0.15909 0.0
H2371 H 0.35441 0.85026 0.21842 0.0
H2372 H 0.3396 0.80908 0.22027 0.0
H2373 H 0.32913 0.79077 0.20097 0.0
H2374 H 0.29547 0.81076 0.19538 0.0
H2375 H 0.30578 0.82924 0.21428 0.0
C2376 C 0.32896 0.85561 0.35005 0.0
C2377 C 0.3171 0.8605 0.35168 0.0
C2378 C 0.33363 0.85144 0.32296 0.0
C2379 C 0.32651 0.85205 0.29706 0.0
C2380 C 0.31471 0.85696 0.2985 0.0
C2381 C 0.31007 0.86124 0.3255 0.0
C2382 C 0.33124 0.84721 0.26859 0.0
C2383 C 0.32522 0.83727 0.25553 0.0
C2384 C 0.34194 0.85191 0.25521 0.0
C2385 C 0.34853 0.86258 0.26777 0.0
C2386 C 0.34241 0.87369 0.2728 0.0
C2387 C 0.34865 0.88366 0.28491 0.0
C2388 C 0.36105 0.88266 0.29192 0.0
C2389 C 0.36723 0.8717 0.28674 0.0
C2390 C 0.36102 0.8617 0.27466 0.0
C2391 C 0.34221 0.82412 0.13725 0.0
C2392 C 0.35453 0.82063 0.13553 0.0
C2393 C 0.33767 0.82959 0.16305 0.0
C2394 C 0.3453 0.83135 0.18785 0.0
C2395 C 0.35767 0.82807 0.18588 0.0
C2396 C 0.36226 0.8228 0.15988 0.0
C2397 C 0.34036 0.83649 0.21596 0.0
C2398 C 0.34635 0.84649 0.22904 0.0
C2399 C 0.32973 0.83171 0.22967 0.0
C2400 C 0.3235 0.82058 0.21841 0.0
C2401 C 0.32999 0.8096 0.21472 0.0
C2402 C 0.32408 0.79919 0.20389 0.0
C2403 C 0.31165 0.79961 0.19688 0.0
C2404 C 0.3051 0.81045 0.20078 0.0
C2405 C 0.31097 0.82089 0.21157 0.0
H2406 H 0.3071 0.79154 0.18849 0.0
H2407 H 0.36587 0.89039 0.3013 0.0
H2408 H 0.13591 0.66005 0.62824 0.0
H2409 H 0.14357 0.65175 0.67526 0.0
H2410 H 0.15067 0.68831 0.70679 0.0
H2411 H 0.14319 0.69662 0.65968 0.0
H2412 H 0.16949 0.67417 0.71776 0.0
H2413 H 0.12621 0.67121 0.73242 0.0
H2414 H 0.10509 0.66522 0.72015 0.0
H2415 H 0.11543 0.6274 0.7218 0.0
H2416 H 0.13666 0.63317 0.73369 0.0
H2417 H 0.17894 0.6604 0.86995 0.0
H2418 H 0.16992 0.66806 0.82385 0.0
H2419 H 0.16719 0.63125 0.79034 0.0
H2420 H 0.17645 0.6235 0.83614 0.0
H2421 H 0.14612 0.64513 0.78051 0.0
H2422 H 0.18953 0.64848 0.76606 0.0
H2423 H 0.21046 0.65479 0.77926 0.0
H2424 H 0.19947 0.69243 0.77813 0.0
H2425 H 0.17841 0.68634 0.76534 0.0
C2426 C 0.139 0.6663 0.64535 0.0
C2427 C 0.13898 0.67897 0.64034 0.0
C2428 C 0.14335 0.66156 0.67219 0.0
C2429 C 0.14758 0.66942 0.69466 0.0
C2430 C 0.14748 0.68208 0.68974 0.0
C2431 C 0.14323 0.68681 0.66283 0.0
C2432 C 0.15249 0.66447 0.72294 0.0
C2433 C 0.1643 0.66796 0.73167 0.0
C2434 C 0.14583 0.65613 0.74074 0.0
C2435 C 0.13306 0.65263 0.73366 0.0
C2436 C 0.124 0.66162 0.72993 0.0
C2437 C 0.11201 0.65827 0.72309 0.0
C2438 C 0.10893 0.64594 0.72011 0.0
C2439 C 0.11783 0.63694 0.72407 0.0
C2440 C 0.12985 0.64025 0.73089 0.0
C2441 C 0.17652 0.65393 0.8527 0.0
C2442 C 0.1785 0.64134 0.85665 0.0
C2443 C 0.17131 0.65832 0.82645 0.0
C2444 C 0.168 0.65021 0.80366 0.0
C2445 C 0.16967 0.63763 0.80775 0.0
C2446 C 0.17493 0.63323 0.83396 0.0
C2447 C 0.16303 0.65492 0.77528 0.0
C2448 C 0.15126 0.65136 0.76654 0.0
C2449 C 0.16968 0.66325 0.75753 0.0
C2450 C 0.18236 0.66694 0.76503 0.0
C2451 C 0.19155 0.6581 0.76886 0.0
C2452 C 0.20344 0.66163 0.77623 0.0
C2453 C 0.20628 0.674 0.77961 0.0
C2454 C 0.19725 0.68285 0.77555 0.0
C2455 C 0.18534 0.67937 0.76821 0.0
H2456 H 0.2155 0.67672 0.78531 0.0
H2457 H 0.09964 0.64336 0.71481 0.0
H2458 H 0.3338 0.12401 0.6431 0.0
H2459 H 0.3422 0.13149 0.69029 0.0
H2460 H 0.3169 0.16174 0.68846 0.0
H2461 H 0.30871 0.15444 0.64112 0.0
H2462 H 0.33858 0.1695 0.70362 0.0
H2463 H 0.31266 0.13613 0.73367 0.0
H2464 H 0.30526 0.11486 0.73367 0.0
H2465 H 0.34048 0.10238 0.76263 0.0
H2466 H 0.34815 0.12358 0.76244 0.0
H2467 H 0.34016 0.18916 0.85276 0.0
H2468 H 0.33352 0.18011 0.80578 0.0
H2469 H 0.36269 0.15373 0.8111 0.0
H2470 H 0.36952 0.16284 0.85804 0.0
H2471 H 0.34059 0.14346 0.79388 0.0
H2472 H 0.36596 0.17737 0.76616 0.0
H2473 H 0.37281 0.19882 0.76711 0.0
H2474 H 0.33785 0.21045 0.73437 0.0
H2475 H 0.33073 0.18907 0.73364 0.0
C2476 C 0.33004 0.13223 0.65289 0.0
C2477 C 0.32064 0.13867 0.63851 0.0
C2478 C 0.33481 0.13648 0.67983 0.0
C2479 C 0.33008 0.14711 0.69307 0.0
C2480 C 0.32072 0.15354 0.67862 0.0
C2481 C 0.31606 0.14938 0.65157 0.0
C2482 C 0.33492 0.15166 0.72183 0.0
C2483 C 0.33889 0.16383 0.72341 0.0
C2484 C 0.33562 0.14417 0.74748 0.0
C2485 C 0.33101 0.13143 0.74773 0.0
C2486 C 0.31885 0.12884 0.73982 0.0
C2487 C 0.31461 0.1168 0.7399 0.0
C2488 C 0.3224 0.10727 0.74806 0.0
C2489 C 0.33446 0.10977 0.75626 0.0
C2490 C 0.33876 0.12179 0.7562 0.0
C2491 C 0.34522 0.18149 0.84386 0.0
C2492 C 0.35544 0.17679 0.85896 0.0
C2493 C 0.34138 0.1763 0.81708 0.0
C2494 C 0.34772 0.16636 0.80484 0.0
C2495 C 0.3577 0.16141 0.82023 0.0
C2496 C 0.36156 0.1666 0.84704 0.0
C2497 C 0.34401 0.16132 0.77565 0.0
C2498 C 0.34031 0.14908 0.77399 0.0
C2499 C 0.34347 0.16876 0.74995 0.0
C2500 C 0.34778 0.18162 0.75008 0.0
C2501 C 0.3597 0.18451 0.75936 0.0
C2502 C 0.36364 0.19665 0.75983 0.0
C2503 C 0.35576 0.20599 0.75086 0.0
C2504 C 0.34394 0.2032 0.74133 0.0
C2505 C 0.33995 0.19107 0.74085 0.0
H2506 H 0.35883 0.21539 0.75125 0.0
H2507 H 0.3191 0.09795 0.7481 0.0
H2508 H 0.82334 0.33927 0.87853 0.0
H2509 H 0.83191 0.33195 0.83203 0.0
H2510 H 0.82611 0.36735 0.79223 0.0
H2511 H 0.81632 0.37438 0.83766 0.0
H2512 H 0.82009 0.35183 0.75442 0.0
H2513 H 0.85558 0.35573 0.81471 0.0
H2514 H 0.86878 0.35307 0.85872 0.0
H2515 H 0.86835 0.31419 0.84615 0.0
H2516 H 0.85501 0.3166 0.80229 0.0
H2517 H 0.86124 0.33728 0.63259 0.0
H2518 H 0.85395 0.34634 0.67944 0.0
H2519 H 0.84227 0.31081 0.70947 0.0
H2520 H 0.84922 0.30178 0.66237 0.0
H2521 H 0.85828 0.32748 0.75076 0.0
H2522 H 0.82107 0.32522 0.69041 0.0
H2523 H 0.80926 0.32949 0.64484 0.0
H2524 H 0.81519 0.36796 0.65656 0.0
H2525 H 0.82721 0.36389 0.70199 0.0
C2526 C 0.82369 0.34549 0.85984 0.0
C2527 C 0.81904 0.35745 0.86209 0.0
C2528 C 0.82885 0.34134 0.83331 0.0
C2529 C 0.82991 0.34915 0.80866 0.0
C2530 C 0.82546 0.36114 0.81093 0.0
C2531 C 0.82 0.36521 0.83721 0.0
C2532 C 0.83513 0.34464 0.78015 0.0
C2533 C 0.82855 0.34669 0.75373 0.0
C2534 C 0.84615 0.33784 0.77897 0.0
C2535 C 0.8542 0.33634 0.80534 0.0
C2536 C 0.85822 0.3466 0.82145 0.0
C2537 C 0.86574 0.34514 0.84635 0.0
C2538 C 0.86937 0.33347 0.85526 0.0
C2539 C 0.86552 0.32323 0.83924 0.0
C2540 C 0.85799 0.32464 0.81433 0.0
C2541 C 0.8571 0.33145 0.64925 0.0
C2542 C 0.85571 0.31888 0.64403 0.0
C2543 C 0.85296 0.33661 0.67585 0.0
C2544 C 0.84762 0.3292 0.69772 0.0
C2545 C 0.8464 0.31662 0.69275 0.0
C2546 C 0.85029 0.31151 0.66591 0.0
C2547 C 0.84314 0.3346 0.72571 0.0
C2548 C 0.84987 0.33272 0.75181 0.0
C2549 C 0.83246 0.34181 0.72652 0.0
C2550 C 0.82516 0.34424 0.69937 0.0
C2551 C 0.81996 0.33458 0.68309 0.0
C2552 C 0.8132 0.33696 0.65734 0.0
C2553 C 0.81151 0.34899 0.64776 0.0
C2554 C 0.81653 0.35865 0.66398 0.0
C2555 C 0.82331 0.35631 0.68974 0.0
H2556 H 0.80627 0.35082 0.62781 0.0
H2557 H 0.87519 0.33235 0.87455 0.0
H2558 H 0.62052 0.82766 0.84596 0.0
H2559 H 0.6277 0.83684 0.79964 0.0
H2560 H 0.66442 0.82503 0.8194 0.0
H2561 H 0.65745 0.81644 0.8665 0.0
H2562 H 0.66494 0.84711 0.79754 0.0
H2563 H 0.64554 0.80935 0.77023 0.0
H2564 H 0.62879 0.79433 0.76783 0.0
H2565 H 0.60624 0.82041 0.72226 0.0
H2566 H 0.62282 0.83565 0.72475 0.0
H2567 H 0.69131 0.84503 0.65346 0.0
H2568 H 0.68206 0.83889 0.70081 0.0
H2569 H 0.64993 0.86002 0.68005 0.0
H2570 H 0.65922 0.86633 0.6327 0.0
H2571 H 0.6459 0.83485 0.70182 0.0
H2572 H 0.66689 0.87207 0.72667 0.0
H2573 H 0.68457 0.886 0.72794 0.0
H2574 H 0.70516 0.85946 0.77727 0.0
H2575 H 0.68765 0.84528 0.77589 0.0
C2576 C 0.63016 0.82719 0.8407 0.0
C2577 C 0.6384 0.82124 0.85987 0.0
C2578 C 0.63422 0.83232 0.81403 0.0
C2579 C 0.64656 0.83144 0.80581 0.0
C2580 C 0.65484 0.82576 0.82521 0.0
C2581 C 0.65082 0.82073 0.85199 0.0
C2582 C 0.65087 0.83625 0.77683 0.0
C2583 C 0.66082 0.84434 0.77663 0.0
C2584 C 0.64536 0.83283 0.74953 0.0
C2585 C 0.63538 0.82368 0.74799 0.0
C2586 C 0.63698 0.81191 0.75992 0.0
C2587 C 0.62752 0.80336 0.7585 0.0
C2588 C 0.61644 0.80643 0.74499 0.0
C2589 C 0.61482 0.81805 0.73278 0.0
C2590 C 0.62425 0.82665 0.73417 0.0
C2591 C 0.68225 0.84829 0.65895 0.0
C2592 C 0.67595 0.85614 0.63955 0.0
C2593 C 0.67701 0.84484 0.68597 0.0
C2594 C 0.66537 0.84907 0.69384 0.0
C2595 C 0.65894 0.8567 0.67427 0.0
C2596 C 0.66426 0.86033 0.64741 0.0
C2597 C 0.66 0.84552 0.7227 0.0
C2598 C 0.64989 0.83768 0.72283 0.0
C2599 C 0.66547 0.84902 0.74989 0.0
C2600 C 0.67599 0.85756 0.75094 0.0
C2601 C 0.67522 0.86915 0.73756 0.0
C2602 C 0.68521 0.87711 0.73835 0.0
C2603 C 0.69599 0.87361 0.75262 0.0
C2604 C 0.6968 0.86215 0.7662 0.0
C2605 C 0.68685 0.85416 0.76545 0.0
H2606 H 0.70371 0.87978 0.7532 0.0
H2607 H 0.60913 0.79979 0.7439 0.0
H2608 H 0.87622 0.65756 0.63533 0.0
H2609 H 0.87061 0.64837 0.68337 0.0
H2610 H 0.84141 0.67455 0.69277 0.0
H2611 H 0.8469 0.68366 0.64493 0.0
H2612 H 0.85673 0.67197 0.74391 0.0
H2613 H 0.83423 0.64733 0.67243 0.0
H2614 H 0.83248 0.63373 0.62887 0.0
H2615 H 0.85592 0.60753 0.67123 0.0
H2616 H 0.85794 0.62107 0.71491 0.0
H2617 H 0.81499 0.65221 0.85003 0.0
H2618 H 0.82547 0.65845 0.80469 0.0
H2619 H 0.84767 0.62592 0.80812 0.0
H2620 H 0.83709 0.61955 0.85376 0.0
H2621 H 0.8396 0.63015 0.75251 0.0
H2622 H 0.86003 0.65324 0.8267 0.0
H2623 H 0.86209 0.66662 0.87055 0.0
H2624 H 0.84369 0.6955 0.824 0.0
H2625 H 0.84135 0.68224 0.77999 0.0
C2626 C 0.86861 0.66131 0.64772 0.0
C2627 C 0.86193 0.67126 0.63645 0.0
C2628 C 0.8654 0.65606 0.67501 0.0
C2629 C 0.8556 0.6608 0.69147 0.0
C2630 C 0.84901 0.67078 0.68033 0.0
C2631 C 0.85209 0.67591 0.65296 0.0
C2632 C 0.8521 0.65547 0.72044 0.0
C2633 C 0.85294 0.66285 0.74586 0.0
C2634 C 0.8476 0.64342 0.72297 0.0
C2635 C 0.84637 0.63528 0.69675 0.0
C2636 C 0.83911 0.63873 0.67233 0.0
C2637 C 0.83804 0.63102 0.64765 0.0
C2638 C 0.84412 0.6198 0.64724 0.0
C2639 C 0.85124 0.61624 0.67155 0.0
C2640 C 0.85235 0.62392 0.69628 0.0
C2641 C 0.8222 0.64644 0.84135 0.0
C2642 C 0.82533 0.63547 0.85562 0.0
C2643 C 0.82818 0.65001 0.81543 0.0
C2644 C 0.83751 0.64277 0.80336 0.0
C2645 C 0.84053 0.63167 0.81719 0.0
C2646 C 0.83448 0.62804 0.84317 0.0
C2647 C 0.84386 0.6468 0.77595 0.0
C2648 C 0.8436 0.63919 0.7508 0.0
C2649 C 0.84901 0.65863 0.7737 0.0
C2650 C 0.85046 0.6667 0.80007 0.0
C2651 C 0.85635 0.66241 0.82587 0.0
C2652 C 0.85758 0.66998 0.85075 0.0
C2653 C 0.85301 0.6819 0.85008 0.0
C2654 C 0.84723 0.68627 0.82449 0.0
C2655 C 0.84596 0.67873 0.79955 0.0
H2656 H 0.85397 0.68774 0.86937 0.0
H2657 H 0.84328 0.61384 0.62811 0.0
H2658 H 0.30905 0.8432 0.64536 0.0
H2659 H 0.31738 0.83668 0.69292 0.0
H2660 H 0.34139 0.86793 0.69389 0.0
H2661 H 0.33357 0.87417 0.64515 0.0
H2662 H 0.35328 0.8485 0.71219 0.0
H2663 H 0.31559 0.86699 0.73792 0.0
H2664 H 0.29352 0.87134 0.73522 0.0
H2665 H 0.2855 0.83412 0.75803 0.0
H2666 H 0.30753 0.82949 0.76045 0.0
H2667 H 0.36516 0.83655 0.86848 0.0
H2668 H 0.35837 0.84682 0.82302 0.0
H2669 H 0.3389 0.81438 0.7965 0.0
H2670 H 0.3461 0.80381 0.84091 0.0
H2671 H 0.32515 0.83732 0.79439 0.0
H2672 H 0.36373 0.8192 0.76355 0.0
H2673 H 0.38594 0.81585 0.76752 0.0
H2674 H 0.39226 0.8543 0.7567 0.0
H2675 H 0.37005 0.85789 0.75309 0.0
C2676 C 0.31624 0.84862 0.65536 0.0
C2677 C 0.32065 0.85921 0.64131 0.0
C2678 C 0.32087 0.84497 0.68285 0.0
C2679 C 0.32983 0.85195 0.69728 0.0
C2680 C 0.33439 0.86246 0.68325 0.0
C2681 C 0.32984 0.86607 0.65552 0.0
C2682 C 0.33452 0.84806 0.72677 0.0
C2683 C 0.34714 0.84629 0.73036 0.0
C2684 C 0.32651 0.84514 0.75049 0.0
C2685 C 0.31323 0.84787 0.74916 0.0
C2686 C 0.30912 0.85971 0.74216 0.0
C2687 C 0.29662 0.86222 0.74071 0.0
C2688 C 0.28812 0.853 0.7464 0.0
C2689 C 0.2921 0.84125 0.75361 0.0
C2690 C 0.3046 0.83868 0.75507 0.0
C2691 C 0.35959 0.83151 0.85281 0.0
C2692 C 0.35616 0.81933 0.85851 0.0
C2693 C 0.35565 0.83744 0.82696 0.0
C2694 C 0.34813 0.83133 0.80658 0.0
C2695 C 0.34464 0.81925 0.81218 0.0
C2696 C 0.34871 0.81326 0.83771 0.0
C2697 C 0.3438 0.83749 0.77931 0.0
C2698 C 0.33126 0.83971 0.77628 0.0
C2699 C 0.35188 0.84101 0.75636 0.0
C2700 C 0.36523 0.83883 0.75843 0.0
C2701 C 0.36984 0.82695 0.76232 0.0
C2702 C 0.38243 0.82501 0.76443 0.0
C2703 C 0.3905 0.83486 0.76247 0.0
C2704 C 0.386 0.84668 0.75829 0.0
C2705 C 0.37341 0.84867 0.75619 0.0
H2706 H 0.40025 0.83333 0.7641 0.0
H2707 H 0.27844 0.85497 0.74526 0.0
H2708 H 0.12779 0.33912 0.62752 0.0
H2709 H 0.13333 0.34907 0.67425 0.0
H2710 H 0.15285 0.31669 0.70144 0.0
H2711 H 0.14653 0.30638 0.65617 0.0
H2712 H 0.14137 0.3248 0.74625 0.0
H2713 H 0.16706 0.34356 0.67186 0.0
H2714 H 0.17147 0.35489 0.62565 0.0
H2715 H 0.15115 0.38564 0.6583 0.0
H2716 H 0.14649 0.37443 0.70459 0.0
H2717 H 0.18759 0.34693 0.84146 0.0
H2718 H 0.17704 0.34056 0.7963 0.0
H2719 H 0.15009 0.36874 0.80944 0.0
H2720 H 0.16022 0.37485 0.8558 0.0
H2721 H 0.16244 0.36493 0.74653 0.0
H2722 H 0.13918 0.34534 0.82479 0.0
H2723 H 0.13716 0.33335 0.871 0.0
H2724 H 0.15565 0.30317 0.82985 0.0
H2725 H 0.15795 0.31505 0.78353 0.0
C2726 C 0.1331 0.33404 0.64362 0.0
C2727 C 0.13678 0.32194 0.63782 0.0
C2728 C 0.1364 0.33981 0.6702 0.0
C2729 C 0.14369 0.33372 0.69122 0.0
C2730 C 0.14726 0.32163 0.68558 0.0
C2731 C 0.14378 0.31578 0.65936 0.0
C2732 C 0.14768 0.33979 0.71914 0.0
C2733 C 0.14599 0.33356 0.74617 0.0
C2734 C 0.15351 0.35136 0.71931 0.0
C2735 C 0.1563 0.35811 0.69151 0.0
C2736 C 0.16345 0.35271 0.66908 0.0
C2737 C 0.16601 0.35911 0.6429 0.0
C2738 C 0.16156 0.37096 0.639 0.0
C2739 C 0.15457 0.37645 0.66132 0.0
C2740 C 0.15197 0.37008 0.68754 0.0
C2741 C 0.17933 0.3517 0.83512 0.0
C2742 C 0.17467 0.3613 0.85262 0.0
C2743 C 0.1734 0.34812 0.80912 0.0
C2744 C 0.1628 0.35416 0.79979 0.0
C2745 C 0.1583 0.36401 0.81641 0.0
C2746 C 0.16414 0.3675 0.84279 0.0
C2747 C 0.15633 0.34976 0.77306 0.0
C2748 C 0.15757 0.35629 0.74642 0.0
C2749 C 0.15033 0.33835 0.77307 0.0
C2750 C 0.14881 0.33113 0.80077 0.0
C2751 C 0.1429 0.33618 0.82568 0.0
C2752 C 0.14169 0.3294 0.85187 0.0
C2753 C 0.1463 0.31751 0.85338 0.0
C2754 C 0.1521 0.31238 0.82866 0.0
C2755 C 0.15334 0.31913 0.80242 0.0
H2756 H 0.14536 0.31228 0.87368 0.0
H2757 H 0.16355 0.37591 0.61871 0.0
H2758 H 0.62208 0.17205 0.84225 0.0
H2759 H 0.62921 0.16232 0.79631 0.0
H2760 H 0.66654 0.16969 0.82158 0.0
H2761 H 0.65941 0.17971 0.86699 0.0
H2762 H 0.66325 0.17606 0.7668 0.0
H2763 H 0.65344 0.14037 0.82421 0.0
H2764 H 0.6404 0.12686 0.85447 0.0
H2765 H 0.6151 0.12356 0.78187 0.0
H2766 H 0.62792 0.13719 0.75128 0.0
H2767 H 0.69462 0.13825 0.66606 0.0
H2768 H 0.68541 0.1454 0.71234 0.0
H2769 H 0.64978 0.14443 0.67156 0.0
H2770 H 0.65896 0.13764 0.62466 0.0
H2771 H 0.65117 0.13474 0.73224 0.0
H2772 H 0.66181 0.17039 0.67498 0.0
H2773 H 0.67565 0.1833 0.64524 0.0
H2774 H 0.70027 0.186 0.71934 0.0
H2775 H 0.68666 0.17294 0.74939 0.0
C2776 C 0.63181 0.17145 0.83806 0.0
C2777 C 0.64021 0.17665 0.858 0.0
C2778 C 0.63588 0.16587 0.81189 0.0
C2779 C 0.64843 0.16519 0.80559 0.0
C2780 C 0.65682 0.17015 0.8259 0.0
C2781 C 0.65275 0.17587 0.85179 0.0
C2782 C 0.65286 0.15987 0.77721 0.0
C2783 C 0.66071 0.16696 0.75952 0.0
C2784 C 0.6493 0.14812 0.76722 0.0
C2785 C 0.64158 0.13991 0.78556 0.0
C2786 C 0.64505 0.13684 0.81477 0.0
C2787 C 0.6377 0.12915 0.83197 0.0
C2788 C 0.62691 0.12438 0.82013 0.0
C2789 C 0.62345 0.12727 0.79103 0.0
C2790 C 0.63076 0.13497 0.77374 0.0
C2791 C 0.68483 0.13962 0.66679 0.0
C2792 C 0.67755 0.13754 0.64149 0.0
C2793 C 0.67958 0.1436 0.69334 0.0
C2794 C 0.66695 0.14551 0.69518 0.0
C2795 C 0.65955 0.14296 0.67048 0.0
C2796 C 0.66482 0.13907 0.64376 0.0
C2797 C 0.66165 0.15086 0.72244 0.0
C2798 C 0.65364 0.14383 0.73971 0.0
C2799 C 0.66513 0.16262 0.73227 0.0
C2800 C 0.67327 0.1706 0.71435 0.0
C2801 C 0.67022 0.17366 0.68486 0.0
C2802 C 0.67801 0.18101 0.66796 0.0
C2803 C 0.68885 0.18544 0.68037 0.0
C2804 C 0.69189 0.18255 0.70974 0.0
C2805 C 0.68413 0.17518 0.72673 0.0
H2806 H 0.69487 0.19113 0.66724 0.0
H2807 H 0.62123 0.11842 0.83348 0.0
H2808 H 0.87415 0.32531 0.34545 0.0
H2809 H 0.8664 0.33401 0.29889 0.0
H2810 H 0.8295 0.32581 0.32639 0.0
H2811 H 0.83731 0.31668 0.37228 0.0
H2812 H 0.83218 0.31908 0.27231 0.0
H2813 H 0.84199 0.35572 0.3258 0.0
H2814 H 0.85501 0.36993 0.35422 0.0
H2815 H 0.87972 0.37249 0.28029 0.0
H2816 H 0.86692 0.35817 0.25155 0.0
H2817 H 0.79996 0.3568 0.17082 0.0
H2818 H 0.80944 0.34947 0.21659 0.0
H2819 H 0.8445 0.34852 0.1731 0.0
H2820 H 0.83504 0.35531 0.12662 0.0
H2821 H 0.84356 0.35992 0.23329 0.0
H2822 H 0.83256 0.3232 0.18006 0.0
H2823 H 0.81844 0.30978 0.15254 0.0
H2824 H 0.7946 0.30838 0.22832 0.0
H2825 H 0.8085 0.32197 0.25616 0.0
C2826 C 0.86439 0.3255 0.34155 0.0
C2827 C 0.8563 0.32034 0.36226 0.0
C2828 C 0.85996 0.3305 0.31505 0.0
C2829 C 0.84734 0.33068 0.30921 0.0
C2830 C 0.83927 0.32574 0.3303 0.0
C2831 C 0.84371 0.32055 0.35649 0.0
C2832 C 0.84253 0.33551 0.28065 0.0
C2833 C 0.83457 0.32809 0.26407 0.0
C2834 C 0.84585 0.34714 0.26941 0.0
C2835 C 0.85356 0.35577 0.28664 0.0
C2836 C 0.85025 0.35924 0.31569 0.0
C2837 C 0.85758 0.36732 0.33184 0.0
C2838 C 0.8682 0.37208 0.3191 0.0
C2839 C 0.87149 0.36879 0.29015 0.0
C2840 C 0.8642 0.36069 0.2739 0.0
C2841 C 0.80966 0.35489 0.17074 0.0
C2842 C 0.8167 0.35654 0.14484 0.0
C2843 C 0.81507 0.35081 0.19703 0.0
C2844 C 0.82763 0.34844 0.19806 0.0
C2845 C 0.83479 0.35037 0.17265 0.0
C2846 C 0.82936 0.35429 0.14617 0.0
C2847 C 0.83316 0.34355 0.22555 0.0
C2848 C 0.84125 0.35093 0.24174 0.0
C2849 C 0.82983 0.33196 0.2367 0.0
C2850 C 0.82152 0.3237 0.22009 0.0
C2851 C 0.82426 0.32012 0.19077 0.0
C2852 C 0.8163 0.31247 0.17513 0.0
C2853 C 0.80561 0.30826 0.18865 0.0
C2854 C 0.80287 0.31167 0.21787 0.0
C2855 C 0.81079 0.31933 0.2336 0.0
H2856 H 0.79946 0.30233 0.1765 0.0
H2857 H 0.87386 0.37834 0.33164 0.0
H2858 H 0.62923 0.83504 0.13502 0.0
H2859 H 0.63592 0.84427 0.18189 0.0
H2860 H 0.64922 0.80923 0.21165 0.0
H2861 H 0.64221 0.79989 0.16532 0.0
H2862 H 0.63745 0.82112 0.25564 0.0
H2863 H 0.66856 0.83038 0.18292 0.0
H2864 H 0.67646 0.83871 0.13571 0.0
H2865 H 0.66392 0.87449 0.16017 0.0
H2866 H 0.65579 0.86633 0.20739 0.0
H2867 H 0.68144 0.83606 0.36462 0.0
H2868 H 0.67083 0.82908 0.31983 0.0
H2869 H 0.65824 0.8658 0.30326 0.0
H2870 H 0.66899 0.87288 0.34792 0.0
H2871 H 0.66783 0.85474 0.2532 0.0
H2872 H 0.63849 0.84556 0.32854 0.0
H2873 H 0.63108 0.83704 0.376 0.0
H2874 H 0.64065 0.80092 0.34692 0.0
H2875 H 0.64829 0.80925 0.29943 0.0
C2876 C 0.63344 0.82929 0.15172 0.0
C2877 C 0.6353 0.81677 0.14642 0.0
C2878 C 0.63734 0.83458 0.17837 0.0
C2879 C 0.6432 0.82745 0.20006 0.0
C2880 C 0.64475 0.8149 0.19514 0.0
C2881 C 0.64086 0.8096 0.16855 0.0
C2882 C 0.64803 0.83306 0.22762 0.0
C2883 C 0.64416 0.82841 0.25514 0.0
C2884 C 0.65654 0.84279 0.22688 0.0
C2885 C 0.66144 0.84771 0.19852 0.0
C2886 C 0.66739 0.84 0.17812 0.0
C2887 C 0.67193 0.84469 0.15138 0.0
C2888 C 0.67066 0.85711 0.1449 0.0
C2889 C 0.66487 0.86486 0.1652 0.0
C2890 C 0.66031 0.86021 0.19195 0.0
C2891 C 0.67644 0.84265 0.35136 0.0
C2892 C 0.67603 0.85501 0.35971 0.0
C2893 C 0.67031 0.83864 0.32596 0.0
C2894 C 0.66366 0.84691 0.30845 0.0
C2895 C 0.66328 0.85928 0.3166 0.0
C2896 C 0.66935 0.86328 0.34215 0.0
C2897 C 0.6574 0.84264 0.28119 0.0
C2898 C 0.66101 0.84755 0.25373 0.0
C2899 C 0.64869 0.83312 0.28198 0.0
C2900 C 0.64406 0.82805 0.31049 0.0
C2901 C 0.63911 0.83581 0.33235 0.0
C2902 C 0.63485 0.83101 0.35924 0.0
C2903 C 0.63542 0.81845 0.3645 0.0
C2904 C 0.64022 0.81066 0.34283 0.0
C2905 C 0.6445 0.81541 0.3159 0.0
H2906 H 0.63211 0.81475 0.38533 0.0
H2907 H 0.67418 0.86073 0.1242 0.0
H2908 H 0.12849 0.68709 0.32644 0.0
H2909 H 0.13509 0.67728 0.28039 0.0
H2910 H 0.14609 0.64534 0.32982 0.0
H2911 H 0.13946 0.65512 0.37611 0.0
H2912 H 0.16365 0.65254 0.29261 0.0
H2913 H 0.12096 0.64456 0.28493 0.0
H2914 H 0.09897 0.6494 0.28536 0.0
H2915 H 0.10389 0.67391 0.21175 0.0
H2916 H 0.12595 0.66935 0.21113 0.0
H2917 H 0.17789 0.61976 0.16073 0.0
H2918 H 0.16755 0.62532 0.20711 0.0
H2919 H 0.15691 0.65981 0.16863 0.0
H2920 H 0.16702 0.65421 0.122 0.0
H2921 H 0.13834 0.64919 0.20134 0.0
H2922 H 0.1812 0.65859 0.21264 0.0
H2923 H 0.20323 0.65391 0.21235 0.0
H2924 H 0.19779 0.6266 0.27964 0.0
H2925 H 0.17568 0.63101 0.28003 0.0
C2926 C 0.1321 0.67789 0.32746 0.0
C2927 C 0.13345 0.67187 0.3549 0.0
C2928 C 0.13587 0.67229 0.30112 0.0
C2929 C 0.14097 0.66053 0.30164 0.0
C2930 C 0.14218 0.65442 0.32894 0.0
C2931 C 0.13843 0.66003 0.35534 0.0
C2932 C 0.14569 0.65496 0.27387 0.0
C2933 C 0.15805 0.65157 0.27283 0.0
C2934 C 0.13843 0.65394 0.24792 0.0
C2935 C 0.12515 0.65668 0.24814 0.0
C2936 C 0.11738 0.65106 0.26897 0.0
C2937 C 0.10489 0.65373 0.26923 0.0
C2938 C 0.10004 0.66197 0.24864 0.0
C2939 C 0.10766 0.66753 0.2277 0.0
C2940 C 0.12016 0.66489 0.22736 0.0
C2941 C 0.17318 0.62844 0.16201 0.0
C2942 C 0.17331 0.63659 0.13783 0.0
C2943 C 0.16735 0.63164 0.18855 0.0
C2944 C 0.16158 0.64302 0.19134 0.0
C2945 C 0.16133 0.65099 0.1669 0.0
C2946 C 0.1672 0.64783 0.14041 0.0
C2947 C 0.15629 0.64691 0.22012 0.0
C2948 C 0.14386 0.65001 0.22129 0.0
C2949 C 0.16347 0.64766 0.24623 0.0
C2950 C 0.17677 0.64503 0.24611 0.0
C2951 C 0.18468 0.65152 0.22719 0.0
C2952 C 0.19719 0.64892 0.22704 0.0
C2953 C 0.2019 0.63994 0.2459 0.0
C2954 C 0.19412 0.63355 0.26501 0.0
C2955 C 0.1816 0.63609 0.26521 0.0
H2956 H 0.21158 0.63795 0.24576 0.0
H2957 H 0.09038 0.66404 0.24887 0.0
H2958 H 0.31279 0.12494 0.32673 0.0
H2959 H 0.32329 0.13252 0.28234 0.0
H2960 H 0.34766 0.15357 0.33769 0.0
H2961 H 0.33713 0.14605 0.38224 0.0
H2962 H 0.33766 0.16698 0.29144 0.0
H2963 H 0.35862 0.12926 0.30467 0.0
H2964 H 0.36073 0.1071 0.31287 0.0
H2965 H 0.34196 0.09998 0.23077 0.0
H2966 H 0.33957 0.12211 0.22226 0.0
H2967 H 0.3746 0.18412 0.16794 0.0
H2968 H 0.36889 0.17489 0.21565 0.0
H2969 H 0.34197 0.15268 0.17108 0.0
H2970 H 0.34767 0.16183 0.12332 0.0
H2971 H 0.35547 0.13987 0.21423 0.0
H2972 H 0.33282 0.17745 0.2039 0.0
H2973 H 0.33051 0.19959 0.19572 0.0
H2974 H 0.35248 0.20689 0.27288 0.0
H2975 H 0.35507 0.18476 0.28126 0.0
C2976 C 0.3204 0.13116 0.3294 0.0
C2977 C 0.32416 0.13491 0.35786 0.0
C2978 C 0.32644 0.13541 0.30409 0.0
C2979 C 0.3363 0.14352 0.3068 0.0
C2980 C 0.3401 0.14727 0.33519 0.0
C2981 C 0.33414 0.14292 0.36056 0.0
C2982 C 0.34226 0.14845 0.27982 0.0
C2983 C 0.34179 0.16109 0.27482 0.0
C2984 C 0.34741 0.1407 0.25797 0.0
C2985 C 0.34883 0.12736 0.26295 0.0
C2986 C 0.35485 0.12298 0.28848 0.0
C2987 C 0.35611 0.11042 0.29316 0.0
C2988 C 0.35145 0.10214 0.27239 0.0
C2989 C 0.34555 0.1064 0.24685 0.0
C2990 C 0.34425 0.11896 0.24207 0.0
C2991 C 0.36759 0.17715 0.16831 0.0
C2992 C 0.36152 0.17372 0.14203 0.0
C2993 C 0.36431 0.17193 0.19552 0.0
C2994 C 0.35496 0.16318 0.19682 0.0
C2995 C 0.3492 0.15943 0.17048 0.0
C2996 C 0.3524 0.16471 0.14331 0.0
C2997 C 0.35073 0.15836 0.22577 0.0
C2998 C 0.3515 0.14576 0.23108 0.0
C2999 C 0.34584 0.16614 0.24792 0.0
C3000 C 0.34427 0.17945 0.24298 0.0
C3001 C 0.33725 0.18377 0.21896 0.0
C3002 C 0.33587 0.19632 0.21432 0.0
C3003 C 0.34138 0.20464 0.23371 0.0
C3004 C 0.34824 0.20043 0.25784 0.0
C3005 C 0.34967 0.18788 0.26255 0.0
H3006 H 0.34029 0.21436 0.23009 0.0
H3007 H 0.35244 0.09242 0.27605 0.0
loop_
_geom_bond_atom_site_label_1
_geom_bond_atom_site_label_2
_geom_bond_distance
_geom_bond_site_symmetry_2
_ccdc_geom_bond_type
Li0 N17 1.991 . S
Li0 O60 1.983 . S
Li0 O61 1.969 1_554 S
Li0 O62 1.933 1_554 S
Li1 N25 1.990 . S
Li1 O60 1.970 . S
Li1 O61 1.936 1_554 S
Li1 O63 1.986 . S
Li2 N47 1.991 . S
Li2 O60 1.939 1_556 S
Li2 O62 1.977 . S
Li2 O63 1.969 1_556 S
Li3 N53 1.990 . S
Li3 O61 1.980 . S
Li3 O62 1.970 . S
Li3 O63 1.930 1_556 S
C4 C6 1.348 . S
C4 C7 1.356 . S
C4 O60 1.325 . S
N5 C8 1.314 . S
N5 C9 1.279 . S
C6 C4 1.348 . S
C6 C8 1.353 . S
C6 H64 0.929 . S
C7 C4 1.356 . S
C7 C9 1.358 . S
C7 H65 0.930 . S
C8 N5 1.314 . S
C8 C6 1.353 . S
C8 H66 0.930 . S
C9 N5 1.279 . S
C9 C7 1.358 . S
C9 H67 0.930 . S
C10 C13 1.346 . S
C10 C14 1.357 1_554 S
C10 O61 1.324 1_554 S
C11 N12 1.279 1_556 S
C11 C14 1.358 . S
C11 H68 0.930 . S
N12 C11 1.279 1_554 S
N12 C15 1.314 . S
C13 C10 1.346 . S
C13 C15 1.353 . S
C13 H69 0.929 . S
C14 C10 1.357 1_556 S
C14 C11 1.358 . S
C14 H70 0.930 . S
C15 N12 1.314 . S
C15 C13 1.353 . S
C15 H71 0.930 . S
C16 N17 1.314 1_556 S
C16 C21 1.353 . S
C16 H22 0.930 . S
N17 Li0 1.991 . S
N17 C16 1.314 1_554 S
N17 C19 1.279 . S
C18 C19 1.358 . S
C18 C20 1.359 . S
C18 H72 0.930 . S
C19 N17 1.279 . S
C19 C18 1.358 . S
C19 H23 0.930 . S
C20 C18 1.359 . S
C20 C21 1.345 1_554 S
C21 C16 1.353 . S
C21 C20 1.345 1_556 S
C21 H73 0.929 . S
H22 C16 0.930 . S
H23 C19 0.930 . S
C24 N25 1.314 . S
C24 C26 1.353 . S
C24 H30 0.930 . S
N25 Li1 1.990 . S
N25 C24 1.314 . S
N25 C28 1.279 . S
C26 C24 1.353 . S
C26 C29 1.348 . S
C26 H74 0.929 . S
C27 C28 1.358 . S
C27 C29 1.356 . S
C27 H75 0.930 . S
C28 N25 1.279 . S
C28 C27 1.358 . S
C28 H31 0.930 . S
C29 C26 1.348 . S
C29 C27 1.356 . S
H30 C24 0.930 . S
H31 C28 0.930 . S
C32 C34 1.348 . S
C32 C35 1.356 . S
C32 O62 1.325 . S
N33 C36 1.314 . S
N33 C37 1.279 . S
C34 C32 1.348 . S
C34 C36 1.353 . S
C34 H76 0.929 . S
C35 C32 1.356 . S
C35 C37 1.358 . S
C35 H77 0.930 . S
C36 N33 1.314 . S
C36 C34 1.353 . S
C36 H78 0.930 . S
C37 N33 1.279 . S
C37 C35 1.358 . S
C37 H79 0.930 . S
C38 C39 1.347 1_554 S
C38 C40 1.357 . S
C38 O63 1.324 . S
C39 C38 1.347 1_556 S
C39 C41 1.353 . S
C39 H80 0.929 . S
C40 C38 1.357 . S
C40 C42 1.358 . S
C40 H81 0.930 . S
C41 C39 1.353 . S
C41 N43 1.314 . S
C41 H82 0.930 . S
C42 C40 1.358 . S
C42 N43 1.279 1_554 S
C42 H83 0.930 . S
N43 C41 1.314 . S
N43 C42 1.279 1_556 S
C44 C46 1.353 . S
C44 N47 1.314 1_554 S
C44 H50 0.930 . S
C45 N47 1.279 . S
C45 C48 1.358 . S
C45 H51 0.930 . S
C46 C44 1.353 . S
C46 C49 1.345 . S
C46 H84 0.929 . S
N47 Li2 1.991 . S
N47 C44 1.314 1_556 S
N47 C45 1.279 . S
C48 C45 1.358 . S
C48 C49 1.359 1_556 S
C48 H85 0.930 . S
C49 C46 1.345 . S
C49 C48 1.359 1_554 S
H50 C44 0.930 . S
H51 C45 0.930 . S
C52 N53 1.314 . S
C52 C54 1.353 . S
C52 H58 0.930 . S
N53 Li3 1.990 . S
N53 C52 1.314 . S
N53 C56 1.279 . S
C54 C52 1.353 . S
C54 C57 1.348 . S
C54 H86 0.929 . S
C55 C56 1.358 . S
C55 C57 1.356 . S
C55 H87 0.930 . S
C56 N53 1.279 . S
C56 C55 1.358 . S
C56 H59 0.930 . S
C57 C54 1.348 . S
C57 C55 1.356 . S
H58 C52 0.930 . S
H59 C56 0.930 . S
O60 Li0 1.983 . S
O60 Li1 1.970 . S
O60 Li2 1.939 1_554 S
O60 C4 1.325 . S
O61 Li0 1.969 1_556 S
O61 Li1 1.936 1_556 S
O61 Li3 1.980 . S
O61 C10 1.324 1_556 S
O62 Li0 1.933 1_556 S
O62 Li2 1.977 . S
O62 Li3 1.970 . S
O62 C32 1.325 . S
O63 Li1 1.986 . S
O63 Li2 1.969 1_554 S
O63 Li3 1.930 1_554 S
O63 C38 1.324 . S
H64 C6 0.929 . S
H65 C7 0.930 . S
H66 C8 0.930 . S
H67 C9 0.930 . S
H68 C11 0.930 . S
H69 C13 0.929 . S
H70 C14 0.930 . S
H71 C15 0.930 . S
H72 C18 0.930 . S
H73 C21 0.929 . S
H74 C26 0.929 . S
H75 C27 0.930 . S
H76 C34 0.929 . S
H77 C35 0.930 . S
H78 C36 0.930 . S
H79 C37 0.930 . S
H80 C39 0.929 . S
H81 C40 0.930 . S
H82 C41 0.930 . S
H83 C42 0.930 . S
H84 C46 0.929 . S
H85 C48 0.930 . S
H86 C54 0.929 . S
H87 C55 0.930 . S
Li88 N105 1.991 . S
Li88 O148 1.983 . S
Li88 O149 1.969 1_554 S
Li88 O150 1.933 1_554 S
Li89 N113 1.990 . S
Li89 O148 1.970 . S
Li89 O149 1.936 1_554 S
Li89 O151 1.986 . S
Li90 N135 1.991 . S
Li90 O148 1.939 1_556 S
Li90 O150 1.977 . S
Li90 O151 1.969 1_556 S
Li91 N141 1.990 . S
Li91 O149 1.980 . S
Li91 O150 1.970 . S
Li91 O151 1.930 1_556 S
C92 C94 1.348 . S
C92 C95 1.356 . S
C92 O148 1.325 . S
N93 C96 1.314 . S
N93 C97 1.279 . S
C94 C92 1.348 . S
C94 C96 1.353 . S
C94 H152 0.929 . S
C95 C92 1.356 . S
C95 C97 1.358 . S
C95 H153 0.930 . S
C96 N93 1.314 . S
C96 C94 1.353 . S
C96 H154 0.930 . S
C97 N93 1.279 . S
C97 C95 1.358 . S
C97 H155 0.930 . S
C98 C101 1.346 . S
C98 C102 1.357 1_554 S
C98 O149 1.324 1_554 S
C99 N100 1.279 1_556 S
C99 C102 1.358 . S
C99 H156 0.930 . S
N100 C99 1.279 1_554 S
N100 C103 1.314 . S
C101 C98 1.346 . S
C101 C103 1.353 . S
C101 H157 0.929 . S
C102 C98 1.357 1_556 S
C102 C99 1.358 . S
C102 H158 0.930 . S
C103 N100 1.314 . S
C103 C101 1.353 . S
C103 H159 0.930 . S
C104 N105 1.314 1_556 S
C104 C109 1.353 . S
C104 H110 0.930 . S
N105 Li88 1.991 . S
N105 C104 1.314 1_554 S
N105 C107 1.279 . S
C106 C107 1.358 . S
C106 C108 1.359 . S
C106 H160 0.930 . S
C107 N105 1.279 . S
C107 C106 1.358 . S
C107 H111 0.930 . S
C108 C106 1.359 . S
C108 C109 1.345 1_554 S
C109 C104 1.353 . S
C109 C108 1.345 1_556 S
C109 H161 0.929 . S
H110 C104 0.930 . S
H111 C107 0.930 . S
C112 N113 1.314 . S
C112 C114 1.353 . S
C112 H118 0.930 . S
N113 Li89 1.990 . S
N113 C112 1.314 . S
N113 C116 1.279 . S
C114 C112 1.353 . S
C114 C117 1.348 . S
C114 H162 0.929 . S
C115 C116 1.358 . S
C115 C117 1.356 . S
C115 H163 0.930 . S
C116 N113 1.279 . S
C116 C115 1.358 . S
C116 H119 0.930 . S
C117 C114 1.348 . S
C117 C115 1.356 . S
H118 C112 0.930 . S
H119 C116 0.930 . S
C120 C122 1.348 . S
C120 C123 1.356 . S
C120 O150 1.325 . S
N121 C124 1.314 . S
N121 C125 1.279 . S
C122 C120 1.348 . S
C122 C124 1.353 . S
C122 H164 0.929 . S
C123 C120 1.356 . S
C123 C125 1.358 . S
C123 H165 0.930 . S
C124 N121 1.314 . S
C124 C122 1.353 . S
C124 H166 0.930 . S
C125 N121 1.279 . S
C125 C123 1.358 . S
C125 H167 0.930 . S
C126 C127 1.347 1_554 S
C126 C128 1.357 . S
C126 O151 1.324 . S
C127 C126 1.347 1_556 S
C127 C129 1.353 . S
C127 H168 0.929 . S
C128 C126 1.357 . S
C128 C130 1.358 . S
C128 H169 0.930 . S
C129 C127 1.353 . S
C129 N131 1.314 . S
C129 H170 0.930 . S
C130 C128 1.358 . S
C130 N131 1.279 1_554 S
C130 H171 0.930 . S
N131 C129 1.314 . S
N131 C130 1.279 1_556 S
C132 C134 1.353 . S
C132 N135 1.314 1_554 S
C132 H138 0.930 . S
C133 N135 1.279 . S
C133 C136 1.358 . S
C133 H139 0.930 . S
C134 C132 1.353 . S
C134 C137 1.345 . S
C134 H172 0.929 . S
N135 Li90 1.991 . S
N135 C132 1.314 1_556 S
N135 C133 1.279 . S
C136 C133 1.358 . S
C136 C137 1.359 1_556 S
C136 H173 0.930 . S
C137 C134 1.345 . S
C137 C136 1.359 1_554 S
H138 C132 0.930 . S
H139 C133 0.930 . S
C140 N141 1.314 . S
C140 C142 1.353 . S
C140 H146 0.930 . S
N141 Li91 1.990 . S
N141 C140 1.314 . S
N141 C144 1.279 . S
C142 C140 1.353 . S
C142 C145 1.348 . S
C142 H174 0.929 . S
C143 C144 1.358 . S
C143 C145 1.356 . S
C143 H175 0.930 . S
C144 N141 1.279 . S
C144 C143 1.358 . S
C144 H147 0.930 . S
C145 C142 1.348 . S
C145 C143 1.356 . S
H146 C140 0.930 . S
H147 C144 0.930 . S
O148 Li88 1.983 . S
O148 Li89 1.970 . S
O148 Li90 1.939 1_554 S
O148 C92 1.325 . S
O149 Li88 1.969 1_556 S
O149 Li89 1.936 1_556 S
O149 Li91 1.980 . S
O149 C98 1.324 1_556 S
O150 Li88 1.933 1_556 S
O150 Li90 1.977 . S
O150 Li91 1.970 . S
O150 C120 1.325 . S
O151 Li89 1.986 . S
O151 Li90 1.969 1_554 S
O151 Li91 1.930 1_554 S
O151 C126 1.324 . S
H152 C94 0.929 . S
H153 C95 0.930 . S
H154 C96 0.930 . S
H155 C97 0.930 . S
H156 C99 0.930 . S
H157 C101 0.929 . S
H158 C102 0.930 . S
H159 C103 0.930 . S
H160 C106 0.930 . S
H161 C109 0.929 . S
H162 C114 0.929 . S
H163 C115 0.930 . S
H164 C122 0.929 . S
H165 C123 0.930 . S
H166 C124 0.930 . S
H167 C125 0.930 . S
H168 C127 0.929 . S
H169 C128 0.930 . S
H170 C129 0.930 . S
H171 C130 0.930 . S
H172 C134 0.929 . S
H173 C136 0.930 . S
H174 C142 0.929 . S
H175 C143 0.930 . S
Li176 N193 1.990 . S
Li176 O236 1.936 1_554 S
Li176 O237 1.970 . S
Li176 O238 1.986 . S
Li177 N201 1.991 . S
Li177 O236 1.969 1_554 S
Li177 O237 1.983 . S
Li177 O239 1.933 1_554 S
Li178 N223 1.990 . S
Li178 O236 1.980 . S
Li178 O238 1.930 1_556 S
Li178 O239 1.970 . S
Li179 N229 1.991 . S
Li179 O237 1.939 1_556 S
Li179 O238 1.969 1_556 S
Li179 O239 1.977 . S
C180 C182 1.346 . S
C180 C183 1.357 1_554 S
C180 O236 1.324 1_554 S
N181 C184 1.314 . S
N181 C185 1.279 1_554 S
C182 C180 1.346 . S
C182 C184 1.353 . S
C182 H240 0.929 . S
C183 C180 1.357 1_556 S
C183 C185 1.358 . S
C183 H241 0.930 . S
C184 N181 1.314 . S
C184 C182 1.353 . S
C184 H242 0.930 . S
C185 N181 1.279 1_556 S
C185 C183 1.358 . S
C185 H243 0.930 . S
C186 C189 1.348 . S
C186 C190 1.356 . S
C186 O237 1.325 . S
C187 N188 1.279 . S
C187 C190 1.358 . S
C187 H244 0.930 . S
N188 C187 1.279 . S
N188 C191 1.314 . S
C189 C186 1.348 . S
C189 C191 1.353 . S
C189 H245 0.929 . S
C190 C186 1.356 . S
C190 C187 1.358 . S
C190 H246 0.930 . S
C191 N188 1.314 . S
C191 C189 1.353 . S
C191 H247 0.930 . S
C192 N193 1.314 . S
C192 C197 1.353 . S
C192 H198 0.930 . S
N193 Li176 1.990 . S
N193 C192 1.314 . S
N193 C195 1.279 . S
C194 C195 1.358 . S
C194 C196 1.356 . S
C194 H248 0.930 . S
C195 N193 1.279 . S
C195 C194 1.358 . S
C195 H199 0.930 . S
C196 C194 1.356 . S
C196 C197 1.348 . S
C197 C192 1.353 . S
C197 C196 1.348 . S
C197 H249 0.929 . S
H198 C192 0.930 . S
H199 C195 0.930 . S
C200 N201 1.314 1_556 S
C200 C202 1.353 . S
C200 H206 0.930 . S
N201 Li177 1.991 . S
N201 C200 1.314 1_554 S
N201 C204 1.279 . S
C202 C200 1.353 . S
C202 C205 1.345 1_556 S
C202 H250 0.929 . S
C203 C204 1.358 . S
C203 C205 1.359 . S
C203 H251 0.930 . S
C204 N201 1.279 . S
C204 C203 1.358 . S
C204 H207 0.930 . S
C205 C202 1.345 1_554 S
C205 C203 1.359 . S
H206 C200 0.930 . S
H207 C204 0.930 . S
C208 C210 1.347 1_554 S
C208 C211 1.357 . S
C208 O238 1.324 . S
N209 C212 1.314 . S
N209 C213 1.279 1_556 S
C210 C208 1.347 1_556 S
C210 C212 1.353 . S
C210 H252 0.929 . S
C211 C208 1.357 . S
C211 C213 1.358 . S
C211 H253 0.930 . S
C212 N209 1.314 . S
C212 C210 1.353 . S
C212 H254 0.930 . S
C213 N209 1.279 1_554 S
C213 C211 1.358 . S
C213 H255 0.930 . S
C214 C215 1.348 . S
C214 C216 1.356 . S
C214 O239 1.325 . S
C215 C214 1.348 . S
C215 C217 1.353 . S
C215 H256 0.929 . S
C216 C214 1.356 . S
C216 C218 1.358 . S
C216 H257 0.930 . S
C217 C215 1.353 . S
C217 N219 1.314 . S
C217 H258 0.930 . S
C218 C216 1.358 . S
C218 N219 1.279 . S
C218 H259 0.930 . S
N219 C217 1.314 . S
N219 C218 1.279 . S
C220 C222 1.353 . S
C220 N223 1.314 . S
C220 H226 0.930 . S
C221 N223 1.279 . S
C221 C224 1.358 . S
C221 H227 0.930 . S
C222 C220 1.353 . S
C222 C225 1.348 . S
C222 H260 0.929 . S
N223 Li178 1.990 . S
N223 C220 1.314 . S
N223 C221 1.279 . S
C224 C221 1.358 . S
C224 C225 1.356 . S
C224 H261 0.930 . S
C225 C222 1.348 . S
C225 C224 1.356 . S
H226 C220 0.930 . S
H227 C221 0.930 . S
C228 N229 1.314 1_554 S
C228 C230 1.353 . S
C228 H234 0.930 . S
N229 Li179 1.991 . S
N229 C228 1.314 1_556 S
N229 C232 1.279 . S
C230 C228 1.353 . S
C230 C233 1.345 . S
C230 H262 0.929 . S
C231 C232 1.358 . S
C231 C233 1.359 1_556 S
C231 H263 0.930 . S
C232 N229 1.279 . S
C232 C231 1.358 . S
C232 H235 0.930 . S
C233 C230 1.345 . S
C233 C231 1.359 1_554 S
H234 C228 0.930 . S
H235 C232 0.930 . S
O236 Li176 1.936 1_556 S
O236 Li177 1.969 1_556 S
O236 Li178 1.980 . S
O236 C180 1.324 1_556 S
O237 Li176 1.970 . S
O237 Li177 1.983 . S
O237 Li179 1.939 1_554 S
O237 C186 1.325 . S
O238 Li176 1.986 . S
O238 Li178 1.930 1_554 S
O238 Li179 1.969 1_554 S
O238 C208 1.324 . S
O239 Li177 1.933 1_556 S
O239 Li178 1.970 . S
O239 Li179 1.977 . S
O239 C214 1.325 . S
H240 C182 0.929 . S
H241 C183 0.930 . S
H242 C184 0.930 . S
H243 C185 0.930 . S
H244 C187 0.930 . S
H245 C189 0.929 . S
H246 C190 0.930 . S
H247 C191 0.930 . S
H248 C194 0.930 . S
H249 C197 0.929 . S
H250 C202 0.929 . S
H251 C203 0.930 . S
H252 C210 0.929 . S
H253 C211 0.930 . S
H254 C212 0.930 . S
H255 C213 0.930 . S
H256 C215 0.929 . S
H257 C216 0.930 . S
H258 C217 0.930 . S
H259 C218 0.930 . S
H260 C222 0.929 . S
H261 C224 0.930 . S
H262 C230 0.929 . S
H263 C231 0.930 . S
Li264 N281 1.990 . S
Li264 O324 1.936 1_554 S
Li264 O325 1.970 . S
Li264 O326 1.986 . S
Li265 N289 1.991 . S
Li265 O324 1.969 1_554 S
Li265 O325 1.983 . S
Li265 O327 1.933 1_554 S
Li266 N311 1.990 . S
Li266 O324 1.980 . S
Li266 O326 1.930 1_556 S
Li266 O327 1.970 . S
Li267 N317 1.991 . S
Li267 O325 1.939 1_556 S
Li267 O326 1.969 1_556 S
Li267 O327 1.977 . S
C268 C270 1.346 . S
C268 C271 1.357 1_554 S
C268 O324 1.324 1_554 S
N269 C272 1.314 . S
N269 C273 1.279 1_554 S
C270 C268 1.346 . S
C270 C272 1.353 . S
C270 H328 0.929 . S
C271 C268 1.357 1_556 S
C271 C273 1.358 . S
C271 H329 0.930 . S
C272 N269 1.314 . S
C272 C270 1.353 . S
C272 H330 0.930 . S
C273 N269 1.279 1_556 S
C273 C271 1.358 . S
C273 H331 0.930 . S
C274 C277 1.348 . S
C274 C278 1.356 . S
C274 O325 1.325 . S
C275 N276 1.279 . S
C275 C278 1.358 . S
C275 H332 0.930 . S
N276 C275 1.279 . S
N276 C279 1.314 . S
C277 C274 1.348 . S
C277 C279 1.353 . S
C277 H333 0.929 . S
C278 C274 1.356 . S
C278 C275 1.358 . S
C278 H334 0.930 . S
C279 N276 1.314 . S
C279 C277 1.353 . S
C279 H335 0.930 . S
C280 N281 1.314 . S
C280 C285 1.353 . S
C280 H286 0.930 . S
N281 Li264 1.990 . S
N281 C280 1.314 . S
N281 C283 1.279 . S
C282 C283 1.358 . S
C282 C284 1.356 . S
C282 H336 0.930 . S
C283 N281 1.279 . S
C283 C282 1.358 . S
C283 H287 0.930 . S
C284 C282 1.356 . S
C284 C285 1.348 . S
C285 C280 1.353 . S
C285 C284 1.348 . S
C285 H337 0.929 . S
H286 C280 0.930 . S
H287 C283 0.930 . S
C288 N289 1.314 1_556 S
C288 C290 1.353 . S
C288 H294 0.930 . S
N289 Li265 1.991 . S
N289 C288 1.314 1_554 S
N289 C292 1.279 . S
C290 C288 1.353 . S
C290 C293 1.345 1_556 S
C290 H338 0.929 . S
C291 C292 1.358 . S
C291 C293 1.359 . S
C291 H339 0.930 . S
C292 N289 1.279 . S
C292 C291 1.358 . S
C292 H295 0.930 . S
C293 C290 1.345 1_554 S
C293 C291 1.359 . S
H294 C288 0.930 . S
H295 C292 0.930 . S
C296 C298 1.347 1_554 S
C296 C299 1.357 . S
C296 O326 1.324 . S
N297 C300 1.314 . S
N297 C301 1.279 1_556 S
C298 C296 1.347 1_556 S
C298 C300 1.353 . S
C298 H340 0.929 . S
C299 C296 1.357 . S
C299 C301 1.358 . S
C299 H341 0.930 . S
C300 N297 1.314 . S
C300 C298 1.353 . S
C300 H342 0.930 . S
C301 N297 1.279 1_554 S
C301 C299 1.358 . S
C301 H343 0.930 . S
C302 C303 1.348 . S
C302 C304 1.356 . S
C302 O327 1.325 . S
C303 C302 1.348 . S
C303 C305 1.353 . S
C303 H344 0.929 . S
C304 C302 1.356 . S
C304 C306 1.358 . S
C304 H345 0.930 . S
C305 C303 1.353 . S
C305 N307 1.314 . S
C305 H346 0.930 . S
C306 C304 1.358 . S
C306 N307 1.279 . S
C306 H347 0.930 . S
N307 C305 1.314 . S
N307 C306 1.279 . S
C308 C310 1.353 . S
C308 N311 1.314 . S
C308 H314 0.930 . S
C309 N311 1.279 . S
C309 C312 1.358 . S
C309 H315 0.930 . S
C310 C308 1.353 . S
C310 C313 1.348 . S
C310 H348 0.929 . S
N311 Li266 1.990 . S
N311 C308 1.314 . S
N311 C309 1.279 . S
C312 C309 1.358 . S
C312 C313 1.356 . S
C312 H349 0.930 . S
C313 C310 1.348 . S
C313 C312 1.356 . S
H314 C308 0.930 . S
H315 C309 0.930 . S
C316 N317 1.314 1_554 S
C316 C318 1.353 . S
C316 H322 0.930 . S
N317 Li267 1.991 . S
N317 C316 1.314 1_556 S
N317 C320 1.279 . S
C318 C316 1.353 . S
C318 C321 1.345 . S
C318 H350 0.929 . S
C319 C320 1.358 . S
C319 C321 1.359 1_556 S
C319 H351 0.930 . S
C320 N317 1.279 . S
C320 C319 1.358 . S
C320 H323 0.930 . S
C321 C318 1.345 . S
C321 C319 1.359 1_554 S
H322 C316 0.930 . S
H323 C320 0.930 . S
O324 Li264 1.936 1_556 S
O324 Li265 1.969 1_556 S
O324 Li266 1.980 . S
O324 C268 1.324 1_556 S
O325 Li264 1.970 . S
O325 Li265 1.983 . S
O325 Li267 1.939 1_554 S
O325 C274 1.325 . S
O326 Li264 1.986 . S
O326 Li266 1.930 1_554 S
O326 Li267 1.969 1_554 S
O326 C296 1.324 . S
O327 Li265 1.933 1_556 S
O327 Li266 1.970 . S
O327 Li267 1.977 . S
O327 C302 1.325 . S
H328 C270 0.929 . S
H329 C271 0.930 . S
H330 C272 0.930 . S
H331 C273 0.930 . S
H332 C275 0.930 . S
H333 C277 0.929 . S
H334 C278 0.930 . S
H335 C279 0.930 . S
H336 C282 0.930 . S
H337 C285 0.929 . S
H338 C290 0.929 . S
H339 C291 0.930 . S
H340 C298 0.929 . S
H341 C299 0.930 . S
H342 C300 0.930 . S
H343 C301 0.930 . S
H344 C303 0.929 . S
H345 C304 0.930 . S
H346 C305 0.930 . S
H347 C306 0.930 . S
H348 C310 0.929 . S
H349 C312 0.930 . S
H350 C318 0.929 . S
H351 C319 0.930 . S
Li352 N369 1.990 . S
Li352 O412 1.936 1_554 S
Li352 O413 1.970 . S
Li352 O414 1.986 . S
Li353 N377 1.991 . S
Li353 O412 1.969 1_554 S
Li353 O413 1.983 . S
Li353 O415 1.933 1_554 S
Li354 N399 1.990 . S
Li354 O412 1.980 . S
Li354 O414 1.930 1_556 S
Li354 O415 1.970 . S
Li355 N405 1.991 . S
Li355 O413 1.939 1_556 S
Li355 O414 1.969 1_556 S
Li355 O415 1.977 . S
C356 C358 1.347 . S
C356 C359 1.357 1_554 S
C356 O412 1.324 1_554 S
N357 C360 1.314 . S
N357 C361 1.279 1_554 S
C358 C356 1.347 . S
C358 C360 1.353 . S
C358 H416 0.929 . S
C359 C356 1.357 1_556 S
C359 C361 1.358 . S
C359 H417 0.930 . S
C360 N357 1.314 . S
C360 C358 1.353 . S
C360 H418 0.930 . S
C361 N357 1.279 1_556 S
C361 C359 1.358 . S
C361 H419 0.930 . S
C362 C365 1.348 . S
C362 C366 1.356 . S
C362 O413 1.325 . S
C363 N364 1.279 . S
C363 C366 1.358 . S
C363 H420 0.930 . S
N364 C363 1.279 . S
N364 C367 1.314 . S
C365 C362 1.348 . S
C365 C367 1.353 . S
C365 H421 0.929 . S
C366 C362 1.356 . S
C366 C363 1.358 . S
C366 H422 0.930 . S
C367 N364 1.314 . S
C367 C365 1.353 . S
C367 H423 0.930 . S
C368 N369 1.314 . S
C368 C373 1.353 . S
C368 H374 0.930 . S
N369 Li352 1.990 . S
N369 C368 1.314 . S
N369 C371 1.279 . S
C370 C371 1.358 . S
C370 C372 1.356 . S
C370 H424 0.930 . S
C371 N369 1.279 . S
C371 C370 1.358 . S
C371 H375 0.930 . S
C372 C370 1.356 . S
C372 C373 1.348 . S
C373 C368 1.353 . S
C373 C372 1.348 . S
C373 H425 0.929 . S
H374 C368 0.930 . S
H375 C371 0.930 . S
C376 N377 1.314 1_556 S
C376 C378 1.353 . S
C376 H382 0.930 . S
N377 Li353 1.991 . S
N377 C376 1.314 1_554 S
N377 C380 1.279 . S
C378 C376 1.353 . S
C378 C381 1.345 1_556 S
C378 H426 0.929 . S
C379 C380 1.358 . S
C379 C381 1.359 . S
C379 H427 0.930 . S
C380 N377 1.279 . S
C380 C379 1.358 . S
C380 H383 0.930 . S
C381 C378 1.345 1_554 S
C381 C379 1.359 . S
H382 C376 0.930 . S
H383 C380 0.930 . S
C384 C386 1.346 1_554 S
C384 C387 1.357 . S
C384 O414 1.324 . S
N385 C388 1.314 . S
N385 C389 1.279 1_556 S
C386 C384 1.346 1_556 S
C386 C388 1.353 . S
C386 H428 0.929 . S
C387 C384 1.357 . S
C387 C389 1.358 . S
C387 H429 0.930 . S
C388 N385 1.314 . S
C388 C386 1.353 . S
C388 H430 0.930 . S
C389 N385 1.279 1_554 S
C389 C387 1.358 . S
C389 H431 0.930 . S
C390 C391 1.348 . S
C390 C392 1.356 . S
C390 O415 1.325 . S
C391 C390 1.348 . S
C391 C393 1.353 . S
C391 H432 0.929 . S
C392 C390 1.356 . S
C392 C394 1.358 . S
C392 H433 0.930 . S
C393 C391 1.353 . S
C393 N395 1.314 . S
C393 H434 0.930 . S
C394 C392 1.358 . S
C394 N395 1.279 . S
C394 H435 0.930 . S
N395 C393 1.314 . S
N395 C394 1.279 . S
C396 C398 1.353 . S
C396 N399 1.314 . S
C396 H402 0.930 . S
C397 N399 1.279 . S
C397 C400 1.358 . S
C397 H403 0.930 . S
C398 C396 1.353 . S
C398 C401 1.348 . S
C398 H436 0.929 . S
N399 Li354 1.990 . S
N399 C396 1.314 . S
N399 C397 1.279 . S
C400 C397 1.358 . S
C400 C401 1.356 . S
C400 H437 0.930 . S
C401 C398 1.348 . S
C401 C400 1.356 . S
H402 C396 0.930 . S
H403 C397 0.930 . S
C404 N405 1.314 1_554 S
C404 C406 1.353 . S
C404 H410 0.930 . S
N405 Li355 1.991 . S
N405 C404 1.314 1_556 S
N405 C408 1.279 . S
C406 C404 1.353 . S
C406 C409 1.345 . S
C406 H438 0.929 . S
C407 C408 1.358 . S
C407 C409 1.359 1_556 S
C407 H439 0.930 . S
C408 N405 1.279 . S
C408 C407 1.358 . S
C408 H411 0.930 . S
C409 C406 1.345 . S
C409 C407 1.359 1_554 S
H410 C404 0.930 . S
H411 C408 0.930 . S
O412 Li352 1.936 1_556 S
O412 Li353 1.969 1_556 S
O412 Li354 1.980 . S
O412 C356 1.324 1_556 S
O413 Li352 1.970 . S
O413 Li353 1.983 . S
O413 Li355 1.939 1_554 S
O413 C362 1.325 . S
O414 Li352 1.986 . S
O414 Li354 1.930 1_554 S
O414 Li355 1.969 1_554 S
O414 C384 1.324 . S
O415 Li353 1.933 1_556 S
O415 Li354 1.970 . S
O415 Li355 1.977 . S
O415 C390 1.325 . S
H416 C358 0.929 . S
H417 C359 0.930 . S
H418 C360 0.930 . S
H419 C361 0.930 . S
H420 C363 0.930 . S
H421 C365 0.929 . S
H422 C366 0.930 . S
H423 C367 0.930 . S
H424 C370 0.930 . S
H425 C373 0.929 . S
H426 C378 0.929 . S
H427 C379 0.930 . S
H428 C386 0.929 . S
H429 C387 0.930 . S
H430 C388 0.930 . S
H431 C389 0.930 . S
H432 C391 0.929 . S
H433 C392 0.930 . S
H434 C393 0.930 . S
H435 C394 0.930 . S
H436 C398 0.929 . S
H437 C400 0.930 . S
H438 C406 0.929 . S
H439 C407 0.930 . S
Li440 N457 1.991 . S
Li440 O500 1.983 . S
Li440 O501 1.969 1_554 S
Li440 O502 1.933 1_554 S
Li441 N465 1.990 . S
Li441 O500 1.970 . S
Li441 O501 1.936 1_554 S
Li441 O503 1.986 . S
Li442 N487 1.991 . S
Li442 O500 1.939 1_556 S
Li442 O502 1.977 . S
Li442 O503 1.969 1_556 S
Li443 N493 1.990 . S
Li443 O501 1.980 . S
Li443 O502 1.970 . S
Li443 O503 1.930 1_556 S
C444 C446 1.348 . S
C444 C447 1.356 . S
C444 O500 1.325 . S
N445 C448 1.314 . S
N445 C449 1.279 . S
C446 C444 1.348 . S
C446 C448 1.353 . S
C446 H504 0.929 . S
C447 C444 1.356 . S
C447 C449 1.358 . S
C447 H505 0.930 . S
C448 N445 1.314 . S
C448 C446 1.353 . S
C448 H506 0.930 . S
C449 N445 1.279 . S
C449 C447 1.358 . S
C449 H507 0.930 . S
C450 C453 1.347 . S
C450 C454 1.357 1_554 S
C450 O501 1.324 1_554 S
C451 N452 1.279 1_556 S
C451 C454 1.358 . S
C451 H508 0.930 . S
N452 C451 1.279 1_554 S
N452 C455 1.314 . S
C453 C450 1.347 . S
C453 C455 1.353 . S
C453 H509 0.929 . S
C454 C450 1.357 1_556 S
C454 C451 1.358 . S
C454 H510 0.930 . S
C455 N452 1.314 . S
C455 C453 1.353 . S
C455 H511 0.930 . S
C456 N457 1.314 1_556 S
C456 C461 1.353 . S
C456 H462 0.930 . S
N457 Li440 1.991 . S
N457 C456 1.314 1_554 S
N457 C459 1.279 . S
C458 C459 1.358 . S
C458 C460 1.359 . S
C458 H512 0.930 . S
C459 N457 1.279 . S
C459 C458 1.358 . S
C459 H463 0.930 . S
C460 C458 1.359 . S
C460 C461 1.345 1_554 S
C461 C456 1.353 . S
C461 C460 1.345 1_556 S
C461 H513 0.929 . S
H462 C456 0.930 . S
H463 C459 0.930 . S
C464 N465 1.314 . S
C464 C466 1.353 . S
C464 H470 0.930 . S
N465 Li441 1.990 . S
N465 C464 1.314 . S
N465 C468 1.279 . S
C466 C464 1.353 . S
C466 C469 1.348 . S
C466 H514 0.929 . S
C467 C468 1.358 . S
C467 C469 1.356 . S
C467 H515 0.930 . S
C468 N465 1.279 . S
C468 C467 1.358 . S
C468 H471 0.930 . S
C469 C466 1.348 . S
C469 C467 1.356 . S
H470 C464 0.930 . S
H471 C468 0.930 . S
C472 C474 1.348 . S
C472 C475 1.356 . S
C472 O502 1.325 . S
N473 C476 1.314 . S
N473 C477 1.279 . S
C474 C472 1.348 . S
C474 C476 1.353 . S
C474 H516 0.929 . S
C475 C472 1.356 . S
C475 C477 1.358 . S
C475 H517 0.930 . S
C476 N473 1.314 . S
C476 C474 1.353 . S
C476 H518 0.930 . S
C477 N473 1.279 . S
C477 C475 1.358 . S
C477 H519 0.930 . S
C478 C479 1.346 1_554 S
C478 C480 1.357 . S
C478 O503 1.324 . S
C479 C478 1.346 1_556 S
C479 C481 1.353 . S
C479 H520 0.929 . S
C480 C478 1.357 . S
C480 C482 1.358 . S
C480 H521 0.930 . S
C481 C479 1.353 . S
C481 N483 1.314 . S
C481 H522 0.930 . S
C482 C480 1.358 . S
C482 N483 1.279 1_554 S
C482 H523 0.930 . S
N483 C481 1.314 . S
N483 C482 1.279 1_556 S
C484 C486 1.353 . S
C484 N487 1.314 1_554 S
C484 H490 0.930 . S
C485 N487 1.279 . S
C485 C488 1.358 . S
C485 H491 0.930 . S
C486 C484 1.353 . S
C486 C489 1.345 . S
C486 H524 0.929 . S
N487 Li442 1.991 . S
N487 C484 1.314 1_556 S
N487 C485 1.279 . S
C488 C485 1.358 . S
C488 C489 1.359 1_556 S
C488 H525 0.930 . S
C489 C486 1.345 . S
C489 C488 1.359 1_554 S
H490 C484 0.930 . S
H491 C485 0.930 . S
C492 N493 1.314 . S
C492 C494 1.353 . S
C492 H498 0.930 . S
N493 Li443 1.990 . S
N493 C492 1.314 . S
N493 C496 1.279 . S
C494 C492 1.353 . S
C494 C497 1.348 . S
C494 H526 0.929 . S
C495 C496 1.358 . S
C495 C497 1.356 . S
C495 H527 0.930 . S
C496 N493 1.279 . S
C496 C495 1.358 . S
C496 H499 0.930 . S
C497 C494 1.348 . S
C497 C495 1.356 . S
H498 C492 0.930 . S
H499 C496 0.930 . S
O500 Li440 1.983 . S
O500 Li441 1.970 . S
O500 Li442 1.939 1_554 S
O500 C444 1.325 . S
O501 Li440 1.969 1_556 S
O501 Li441 1.936 1_556 S
O501 Li443 1.980 . S
O501 C450 1.324 1_556 S
O502 Li440 1.933 1_556 S
O502 Li442 1.977 . S
O502 Li443 1.970 . S
O502 C472 1.325 . S
O503 Li441 1.986 . S
O503 Li442 1.969 1_554 S
O503 Li443 1.930 1_554 S
O503 C478 1.324 . S
H504 C446 0.929 . S
H505 C447 0.930 . S
H506 C448 0.930 . S
H507 C449 0.930 . S
H508 C451 0.930 . S
H509 C453 0.929 . S
H510 C454 0.930 . S
H511 C455 0.930 . S
H512 C458 0.930 . S
H513 C461 0.929 . S
H514 C466 0.929 . S
H515 C467 0.930 . S
H516 C474 0.929 . S
H517 C475 0.930 . S
H518 C476 0.930 . S
H519 C477 0.930 . S
H520 C479 0.929 . S
H521 C480 0.930 . S
H522 C481 0.930 . S
H523 C482 0.930 . S
H524 C486 0.929 . S
H525 C488 0.930 . S
H526 C494 0.929 . S
H527 C495 0.930 . S
Li528 N545 1.990 . S
Li528 O588 1.936 1_554 S
Li528 O589 1.970 . S
Li528 O590 1.986 . S
Li529 N553 1.991 . S
Li529 O588 1.969 1_554 S
Li529 O589 1.983 . S
Li529 O591 1.933 1_554 S
Li530 N575 1.990 . S
Li530 O588 1.980 . S
Li530 O590 1.930 1_556 S
Li530 O591 1.970 . S
Li531 N581 1.991 . S
Li531 O589 1.939 1_556 S
Li531 O590 1.969 1_556 S
Li531 O591 1.977 . S
C532 C534 1.347 . S
C532 C535 1.357 1_554 S
C532 O588 1.324 1_554 S
N533 C536 1.314 . S
N533 C537 1.279 1_554 S
C534 C532 1.347 . S
C534 C536 1.353 . S
C534 H592 0.929 . S
C535 C532 1.357 1_556 S
C535 C537 1.358 . S
C535 H593 0.930 . S
C536 N533 1.314 . S
C536 C534 1.353 . S
C536 H594 0.930 . S
C537 N533 1.279 1_556 S
C537 C535 1.358 . S
C537 H595 0.930 . S
C538 C541 1.348 . S
C538 C542 1.356 . S
C538 O589 1.325 . S
C539 N540 1.279 . S
C539 C542 1.358 . S
C539 H596 0.930 . S
N540 C539 1.279 . S
N540 C543 1.314 . S
C541 C538 1.348 . S
C541 C543 1.353 . S
C541 H597 0.929 . S
C542 C538 1.356 . S
C542 C539 1.358 . S
C542 H598 0.930 . S
C543 N540 1.314 . S
C543 C541 1.353 . S
C543 H599 0.930 . S
C544 N545 1.314 . S
C544 C549 1.353 . S
C544 H550 0.930 . S
N545 Li528 1.990 . S
N545 C544 1.314 . S
N545 C547 1.279 . S
C546 C547 1.358 . S
C546 C548 1.356 . S
C546 H600 0.930 . S
C547 N545 1.279 . S
C547 C546 1.358 . S
C547 H551 0.930 . S
C548 C546 1.356 . S
C548 C549 1.348 . S
C549 C544 1.353 . S
C549 C548 1.348 . S
C549 H601 0.929 . S
H550 C544 0.930 . S
H551 C547 0.930 . S
C552 N553 1.314 1_556 S
C552 C554 1.353 . S
C552 H558 0.930 . S
N553 Li529 1.991 . S
N553 C552 1.314 1_554 S
N553 C556 1.279 . S
C554 C552 1.353 . S
C554 C557 1.345 1_556 S
C554 H602 0.929 . S
C555 C556 1.358 . S
C555 C557 1.359 . S
C555 H603 0.930 . S
C556 N553 1.279 . S
C556 C555 1.358 . S
C556 H559 0.930 . S
C557 C554 1.345 1_554 S
C557 C555 1.359 . S
H558 C552 0.930 . S
H559 C556 0.930 . S
C560 C562 1.346 1_554 S
C560 C563 1.357 . S
C560 O590 1.324 . S
N561 C564 1.314 . S
N561 C565 1.279 1_556 S
C562 C560 1.346 1_556 S
C562 C564 1.353 . S
C562 H604 0.929 . S
C563 C560 1.357 . S
C563 C565 1.358 . S
C563 H605 0.930 . S
C564 N561 1.314 . S
C564 C562 1.353 . S
C564 H606 0.930 . S
C565 N561 1.279 1_554 S
C565 C563 1.358 . S
C565 H607 0.930 . S
C566 C567 1.348 . S
C566 C568 1.356 . S
C566 O591 1.325 . S
C567 C566 1.348 . S
C567 C569 1.353 . S
C567 H608 0.929 . S
C568 C566 1.356 . S
C568 C570 1.358 . S
C568 H609 0.930 . S
C569 C567 1.353 . S
C569 N571 1.314 . S
C569 H610 0.930 . S
C570 C568 1.358 . S
C570 N571 1.279 . S
C570 H611 0.930 . S
N571 C569 1.314 . S
N571 C570 1.279 . S
C572 C574 1.353 . S
C572 N575 1.314 . S
C572 H578 0.930 . S
C573 N575 1.279 . S
C573 C576 1.358 . S
C573 H579 0.930 . S
C574 C572 1.353 . S
C574 C577 1.348 . S
C574 H612 0.929 . S
N575 Li530 1.990 . S
N575 C572 1.314 . S
N575 C573 1.279 . S
C576 C573 1.358 . S
C576 C577 1.356 . S
C576 H613 0.930 . S
C577 C574 1.348 . S
C577 C576 1.356 . S
H578 C572 0.930 . S
H579 C573 0.930 . S
C580 N581 1.314 1_554 S
C580 C582 1.353 . S
C580 H586 0.930 . S
N581 Li531 1.991 . S
N581 C580 1.314 1_556 S
N581 C584 1.279 . S
C582 C580 1.353 . S
C582 C585 1.345 . S
C582 H614 0.929 . S
C583 C584 1.358 . S
C583 C585 1.359 1_556 S
C583 H615 0.930 . S
C584 N581 1.279 . S
C584 C583 1.358 . S
C584 H587 0.930 . S
C585 C582 1.345 . S
C585 C583 1.359 1_554 S
H586 C580 0.930 . S
H587 C584 0.930 . S
O588 Li528 1.936 1_556 S
O588 Li529 1.969 1_556 S
O588 Li530 1.980 . S
O588 C532 1.324 1_556 S
O589 Li528 1.970 . S
O589 Li529 1.983 . S
O589 Li531 1.939 1_554 S
O589 C538 1.325 . S
O590 Li528 1.986 . S
O590 Li530 1.930 1_554 S
O590 Li531 1.969 1_554 S
O590 C560 1.324 . S
O591 Li529 1.933 1_556 S
O591 Li530 1.970 . S
O591 Li531 1.977 . S
O591 C566 1.325 . S
H592 C534 0.929 . S
H593 C535 0.930 . S
H594 C536 0.930 . S
H595 C537 0.930 . S
H596 C539 0.930 . S
H597 C541 0.929 . S
H598 C542 0.930 . S
H599 C543 0.930 . S
H600 C546 0.930 . S
H601 C549 0.929 . S
H602 C554 0.929 . S
H603 C555 0.930 . S
H604 C562 0.929 . S
H605 C563 0.930 . S
H606 C564 0.930 . S
H607 C565 0.930 . S
H608 C567 0.929 . S
H609 C568 0.930 . S
H610 C569 0.930 . S
H611 C570 0.930 . S
H612 C574 0.929 . S
H613 C576 0.930 . S
H614 C582 0.929 . S
H615 C583 0.930 . S
Li616 N633 1.990 . S
Li616 O676 1.936 1_554 S
Li616 O677 1.970 . S
Li616 O678 1.986 . S
Li617 N641 1.991 . S
Li617 O676 1.969 1_554 S
Li617 O677 1.983 . S
Li617 O679 1.933 1_554 S
Li618 N663 1.990 . S
Li618 O676 1.980 . S
Li618 O678 1.930 1_556 S
Li618 O679 1.970 . S
Li619 N669 1.991 . S
Li619 O677 1.939 1_556 S
Li619 O678 1.969 1_556 S
Li619 O679 1.977 . S
C620 C622 1.347 . S
C620 C623 1.357 1_554 S
C620 O676 1.324 1_554 S
N621 C624 1.314 . S
N621 C625 1.279 1_554 S
C622 C620 1.347 . S
C622 C624 1.353 . S
C622 H680 0.929 . S
C623 C620 1.357 1_556 S
C623 C625 1.358 . S
C623 H681 0.930 . S
C624 N621 1.314 . S
C624 C622 1.353 . S
C624 H682 0.930 . S
C625 N621 1.279 1_556 S
C625 C623 1.358 . S
C625 H683 0.930 . S
C626 C629 1.348 . S
C626 C630 1.356 . S
C626 O677 1.325 . S
C627 N628 1.279 . S
C627 C630 1.358 . S
C627 H684 0.930 . S
N628 C627 1.279 . S
N628 C631 1.314 . S
C629 C626 1.348 . S
C629 C631 1.353 . S
C629 H685 0.929 . S
C630 C626 1.356 . S
C630 C627 1.358 . S
C630 H686 0.930 . S
C631 N628 1.314 . S
C631 C629 1.353 . S
C631 H687 0.930 . S
C632 N633 1.314 . S
C632 C637 1.353 . S
C632 H638 0.930 . S
N633 Li616 1.990 . S
N633 C632 1.314 . S
N633 C635 1.279 . S
C634 C635 1.358 . S
C634 C636 1.356 . S
C634 H688 0.930 . S
C635 N633 1.279 . S
C635 C634 1.358 . S
C635 H639 0.930 . S
C636 C634 1.356 . S
C636 C637 1.348 . S
C637 C632 1.353 . S
C637 C636 1.348 . S
C637 H689 0.929 . S
H638 C632 0.930 . S
H639 C635 0.930 . S
C640 N641 1.314 1_556 S
C640 C642 1.353 . S
C640 H646 0.930 . S
N641 Li617 1.991 . S
N641 C640 1.314 1_554 S
N641 C644 1.279 . S
C642 C640 1.353 . S
C642 C645 1.345 1_556 S
C642 H690 0.929 . S
C643 C644 1.358 . S
C643 C645 1.359 . S
C643 H691 0.930 . S
C644 N641 1.279 . S
C644 C643 1.358 . S
C644 H647 0.930 . S
C645 C642 1.345 1_554 S
C645 C643 1.359 . S
H646 C640 0.930 . S
H647 C644 0.930 . S
C648 C650 1.346 1_554 S
C648 C651 1.357 . S
C648 O678 1.324 . S
N649 C652 1.314 . S
N649 C653 1.279 1_556 S
C650 C648 1.346 1_556 S
C650 C652 1.353 . S
C650 H692 0.929 . S
C651 C648 1.357 . S
C651 C653 1.358 . S
C651 H693 0.930 . S
C652 N649 1.314 . S
C652 C650 1.353 . S
C652 H694 0.930 . S
C653 N649 1.279 1_554 S
C653 C651 1.358 . S
C653 H695 0.930 . S
C654 C655 1.348 . S
C654 C656 1.356 . S
C654 O679 1.325 . S
C655 C654 1.348 . S
C655 C657 1.353 . S
C655 H696 0.929 . S
C656 C654 1.356 . S
C656 C658 1.358 . S
C656 H697 0.930 . S
C657 C655 1.353 . S
C657 N659 1.314 . S
C657 H698 0.930 . S
C658 C656 1.358 . S
C658 N659 1.279 . S
C658 H699 0.930 . S
N659 C657 1.314 . S
N659 C658 1.279 . S
C660 C662 1.353 . S
C660 N663 1.314 . S
C660 H666 0.930 . S
C661 N663 1.279 . S
C661 C664 1.358 . S
C661 H667 0.930 . S
C662 C660 1.353 . S
C662 C665 1.348 . S
C662 H700 0.929 . S
N663 Li618 1.990 . S
N663 C660 1.314 . S
N663 C661 1.279 . S
C664 C661 1.358 . S
C664 C665 1.356 . S
C664 H701 0.930 . S
C665 C662 1.348 . S
C665 C664 1.356 . S
H666 C660 0.930 . S
H667 C661 0.930 . S
C668 N669 1.314 1_554 S
C668 C670 1.353 . S
C668 H674 0.930 . S
N669 Li619 1.991 . S
N669 C668 1.314 1_556 S
N669 C672 1.279 . S
C670 C668 1.353 . S
C670 C673 1.345 . S
C670 H702 0.929 . S
C671 C672 1.358 . S
C671 C673 1.359 1_556 S
C671 H703 0.930 . S
C672 N669 1.279 . S
C672 C671 1.358 . S
C672 H675 0.930 . S
C673 C670 1.345 . S
C673 C671 1.359 1_554 S
H674 C668 0.930 . S
H675 C672 0.930 . S
O676 Li616 1.936 1_556 S
O676 Li617 1.969 1_556 S
O676 Li618 1.980 . S
O676 C620 1.324 1_556 S
O677 Li616 1.970 . S
O677 Li617 1.983 . S
O677 Li619 1.939 1_554 S
O677 C626 1.325 . S
O678 Li616 1.986 . S
O678 Li618 1.930 1_554 S
O678 Li619 1.969 1_554 S
O678 C648 1.324 . S
O679 Li617 1.933 1_556 S
O679 Li618 1.970 . S
O679 Li619 1.977 . S
O679 C654 1.325 . S
H680 C622 0.929 . S
H681 C623 0.930 . S
H682 C624 0.930 . S
H683 C625 0.930 . S
H684 C627 0.930 . S
H685 C629 0.929 . S
H686 C630 0.930 . S
H687 C631 0.930 . S
H688 C634 0.930 . S
H689 C637 0.929 . S
H690 C642 0.929 . S
H691 C643 0.930 . S
H692 C650 0.929 . S
H693 C651 0.930 . S
H694 C652 0.930 . S
H695 C653 0.930 . S
H696 C655 0.929 . S
H697 C656 0.930 . S
H698 C657 0.930 . S
H699 C658 0.930 . S
H700 C662 0.929 . S
H701 C664 0.930 . S
H702 C670 0.929 . S
H703 C671 0.930 . S
Li704 N721 1.990 . S
Li704 O764 1.956 . S
Li704 O765 1.970 . S
Li704 O766 1.961 . S
Li705 N729 1.990 . S
Li705 O764 1.970 . S
Li705 O765 1.956 . S
Li705 O767 1.961 . S
Li706 N751 1.990 . S
Li706 O764 1.961 . S
Li706 O766 1.956 . S
Li706 O767 1.970 . S
Li707 N757 1.990 . S
Li707 O765 1.961 . S
Li707 O766 1.970 . S
Li707 O767 1.956 . S
C708 C710 1.348 . S
C708 C711 1.356 . S
C708 O764 1.325 . S
N709 C712 1.314 . S
N709 C713 1.279 . S
C710 C708 1.348 . S
C710 C712 1.353 . S
C710 H768 0.929 . S
C711 C708 1.356 . S
C711 C713 1.358 . S
C711 H769 0.930 . S
C712 N709 1.314 . S
C712 C710 1.353 . S
C712 H770 0.930 . S
C713 N709 1.279 . S
C713 C711 1.358 . S
C713 H771 0.930 . S
C714 C717 1.348 . S
C714 C718 1.356 . S
C714 O765 1.325 . S
C715 N716 1.279 . S
C715 C718 1.358 . S
C715 H772 0.930 . S
N716 C715 1.279 . S
N716 C719 1.314 . S
C717 C714 1.348 . S
C717 C719 1.353 . S
C717 H773 0.929 . S
C718 C714 1.356 . S
C718 C715 1.358 . S
C718 H774 0.930 . S
C719 N716 1.314 . S
C719 C717 1.353 . S
C719 H775 0.930 . S
C720 N721 1.314 . S
C720 C725 1.353 . S
C720 H726 0.930 . S
N721 Li704 1.990 . S
N721 C720 1.314 . S
N721 C723 1.279 . S
C722 C723 1.358 . S
C722 C724 1.356 . S
C722 H776 0.930 . S
C723 N721 1.279 . S
C723 C722 1.358 . S
C723 H727 0.930 . S
C724 C722 1.356 . S
C724 C725 1.348 . S
C725 C720 1.353 . S
C725 C724 1.348 . S
C725 H777 0.929 . S
H726 C720 0.930 . S
H727 C723 0.930 . S
C728 N729 1.314 . S
C728 C730 1.353 . S
C728 H734 0.930 . S
N729 Li705 1.990 . S
N729 C728 1.314 . S
N729 C732 1.279 . S
C730 C728 1.353 . S
C730 C733 1.348 . S
C730 H778 0.929 . S
C731 C732 1.358 . S
C731 C733 1.356 . S
C731 H779 0.930 . S
C732 N729 1.279 . S
C732 C731 1.358 . S
C732 H735 0.930 . S
C733 C730 1.348 . S
C733 C731 1.356 . S
H734 C728 0.930 . S
H735 C732 0.930 . S
C736 C738 1.348 . S
C736 C739 1.356 . S
C736 O766 1.325 . S
N737 C740 1.314 . S
N737 C741 1.279 . S
C738 C736 1.348 . S
C738 C740 1.353 . S
C738 H780 0.929 . S
C739 C736 1.356 . S
C739 C741 1.358 . S
C739 H781 0.930 . S
C740 N737 1.314 . S
C740 C738 1.353 . S
C740 H782 0.930 . S
C741 N737 1.279 . S
C741 C739 1.358 . S
C741 H783 0.930 . S
C742 C743 1.348 . S
C742 C744 1.356 . S
C742 O767 1.325 . S
C743 C742 1.348 . S
C743 C745 1.353 . S
C743 H784 0.929 . S
C744 C742 1.356 . S
C744 C746 1.358 . S
C744 H785 0.930 . S
C745 C743 1.353 . S
C745 N747 1.314 . S
C745 H786 0.930 . S
C746 C744 1.358 . S
C746 N747 1.279 . S
C746 H787 0.930 . S
N747 C745 1.314 . S
N747 C746 1.279 . S
C748 C750 1.353 . S
C748 N751 1.314 . S
C748 H754 0.930 . S
C749 N751 1.279 . S
C749 C752 1.358 . S
C749 H755 0.930 . S
C750 C748 1.353 . S
C750 C753 1.348 . S
C750 H788 0.929 . S
N751 Li706 1.990 . S
N751 C748 1.314 . S
N751 C749 1.279 . S
C752 C749 1.358 . S
C752 C753 1.356 . S
C752 H789 0.930 . S
C753 C750 1.348 . S
C753 C752 1.356 . S
H754 C748 0.930 . S
H755 C749 0.930 . S
C756 N757 1.314 . S
C756 C758 1.353 . S
C756 H762 0.930 . S
N757 Li707 1.990 . S
N757 C756 1.314 . S
N757 C760 1.279 . S
C758 C756 1.353 . S
C758 C761 1.348 . S
C758 H790 0.929 . S
C759 C760 1.358 . S
C759 C761 1.356 . S
C759 H791 0.930 . S
C760 N757 1.279 . S
C760 C759 1.358 . S
C760 H763 0.930 . S
C761 C758 1.348 . S
C761 C759 1.356 . S
H762 C756 0.930 . S
H763 C760 0.930 . S
O764 Li704 1.956 . S
O764 Li705 1.970 . S
O764 Li706 1.961 . S
O764 C708 1.325 . S
O765 Li704 1.970 . S
O765 Li705 1.956 . S
O765 Li707 1.961 . S
O765 C714 1.325 . S
O766 Li704 1.961 . S
O766 Li706 1.956 . S
O766 Li707 1.970 . S
O766 C736 1.325 . S
O767 Li705 1.961 . S
O767 Li706 1.970 . S
O767 Li707 1.956 . S
O767 C742 1.325 . S
H768 C710 0.929 . S
H769 C711 0.930 . S
H770 C712 0.930 . S
H771 C713 0.930 . S
H772 C715 0.930 . S
H773 C717 0.929 . S
H774 C718 0.930 . S
H775 C719 0.930 . S
H776 C722 0.930 . S
H777 C725 0.929 . S
H778 C730 0.929 . S
H779 C731 0.930 . S
H780 C738 0.929 . S
H781 C739 0.930 . S
H782 C740 0.930 . S
H783 C741 0.930 . S
H784 C743 0.929 . S
H785 C744 0.930 . S
H786 C745 0.930 . S
H787 C746 0.930 . S
H788 C750 0.929 . S
H789 C752 0.930 . S
H790 C758 0.929 . S
H791 C759 0.930 . S
Li792 N809 1.990 . S
Li792 O852 1.956 . S
Li792 O853 1.970 . S
Li792 O854 1.961 . S
Li793 N817 1.990 . S
Li793 O852 1.970 . S
Li793 O853 1.956 . S
Li793 O855 1.961 . S
Li794 N839 1.990 . S
Li794 O852 1.961 . S
Li794 O854 1.956 . S
Li794 O855 1.970 . S
Li795 N845 1.990 . S
Li795 O853 1.961 . S
Li795 O854 1.970 . S
Li795 O855 1.956 . S
C796 C798 1.348 . S
C796 C799 1.356 . S
C796 O852 1.325 . S
N797 C800 1.314 . S
N797 C801 1.279 . S
C798 C796 1.348 . S
C798 C800 1.353 . S
C798 H856 0.929 . S
C799 C796 1.356 . S
C799 C801 1.358 . S
C799 H857 0.930 . S
C800 N797 1.314 . S
C800 C798 1.353 . S
C800 H858 0.930 . S
C801 N797 1.279 . S
C801 C799 1.358 . S
C801 H859 0.930 . S
C802 C805 1.348 . S
C802 C806 1.356 . S
C802 O853 1.325 . S
C803 N804 1.279 . S
C803 C806 1.358 . S
C803 H860 0.930 . S
N804 C803 1.279 . S
N804 C807 1.314 . S
C805 C802 1.348 . S
C805 C807 1.353 . S
C805 H861 0.929 . S
C806 C802 1.356 . S
C806 C803 1.358 . S
C806 H862 0.930 . S
C807 N804 1.314 . S
C807 C805 1.353 . S
C807 H863 0.930 . S
C808 N809 1.314 . S
C808 C813 1.353 . S
C808 H814 0.930 . S
N809 Li792 1.990 . S
N809 C808 1.314 . S
N809 C811 1.279 . S
C810 C811 1.358 . S
C810 C812 1.356 . S
C810 H864 0.930 . S
C811 N809 1.279 . S
C811 C810 1.358 . S
C811 H815 0.930 . S
C812 C810 1.356 . S
C812 C813 1.348 . S
C813 C808 1.353 . S
C813 C812 1.348 . S
C813 H865 0.929 . S
H814 C808 0.930 . S
H815 C811 0.930 . S
C816 N817 1.314 . S
C816 C818 1.353 . S
C816 H822 0.930 . S
N817 Li793 1.990 . S
N817 C816 1.314 . S
N817 C820 1.279 . S
C818 C816 1.353 . S
C818 C821 1.348 . S
C818 H866 0.929 . S
C819 C820 1.358 . S
C819 C821 1.356 . S
C819 H867 0.930 . S
C820 N817 1.279 . S
C820 C819 1.358 . S
C820 H823 0.930 . S
C821 C818 1.348 . S
C821 C819 1.356 . S
H822 C816 0.930 . S
H823 C820 0.930 . S
C824 C826 1.348 . S
C824 C827 1.356 . S
C824 O854 1.325 . S
N825 C828 1.314 . S
N825 C829 1.279 . S
C826 C824 1.348 . S
C826 C828 1.353 . S
C826 H868 0.929 . S
C827 C824 1.356 . S
C827 C829 1.358 . S
C827 H869 0.930 . S
C828 N825 1.314 . S
C828 C826 1.353 . S
C828 H870 0.930 . S
C829 N825 1.279 . S
C829 C827 1.358 . S
C829 H871 0.930 . S
C830 C831 1.348 . S
C830 C832 1.356 . S
C830 O855 1.325 . S
C831 C830 1.348 . S
C831 C833 1.353 . S
C831 H872 0.929 . S
C832 C830 1.356 . S
C832 C834 1.358 . S
C832 H873 0.930 . S
C833 C831 1.353 . S
C833 N835 1.314 . S
C833 H874 0.930 . S
C834 C832 1.358 . S
C834 N835 1.279 . S
C834 H875 0.930 . S
N835 C833 1.314 . S
N835 C834 1.279 . S
C836 C838 1.353 . S
C836 N839 1.314 . S
C836 H842 0.930 . S
C837 N839 1.279 . S
C837 C840 1.358 . S
C837 H843 0.930 . S
C838 C836 1.353 . S
C838 C841 1.348 . S
C838 H876 0.929 . S
N839 Li794 1.990 . S
N839 C836 1.314 . S
N839 C837 1.279 . S
C840 C837 1.358 . S
C840 C841 1.356 . S
C840 H877 0.930 . S
C841 C838 1.348 . S
C841 C840 1.356 . S
H842 C836 0.930 . S
H843 C837 0.930 . S
C844 N845 1.314 . S
C844 C846 1.353 . S
C844 H850 0.930 . S
N845 Li795 1.990 . S
N845 C844 1.314 . S
N845 C848 1.279 . S
C846 C844 1.353 . S
C846 C849 1.348 . S
C846 H878 0.929 . S
C847 C848 1.358 . S
C847 C849 1.356 . S
C847 H879 0.930 . S
C848 N845 1.279 . S
C848 C847 1.358 . S
C848 H851 0.930 . S
C849 C846 1.348 . S
C849 C847 1.356 . S
H850 C844 0.930 . S
H851 C848 0.930 . S
O852 Li792 1.956 . S
O852 Li793 1.970 . S
O852 Li794 1.961 . S
O852 C796 1.325 . S
O853 Li792 1.970 . S
O853 Li793 1.956 . S
O853 Li795 1.961 . S
O853 C802 1.325 . S
O854 Li792 1.961 . S
O854 Li794 1.956 . S
O854 Li795 1.970 . S
O854 C824 1.325 . S
O855 Li793 1.961 . S
O855 Li794 1.970 . S
O855 Li795 1.956 . S
O855 C830 1.325 . S
H856 C798 0.929 . S
H857 C799 0.930 . S
H858 C800 0.930 . S
H859 C801 0.930 . S
H860 C803 0.930 . S
H861 C805 0.929 . S
H862 C806 0.930 . S
H863 C807 0.930 . S
H864 C810 0.930 . S
H865 C813 0.929 . S
H866 C818 0.929 . S
H867 C819 0.930 . S
H868 C826 0.929 . S
H869 C827 0.930 . S
H870 C828 0.930 . S
H871 C829 0.930 . S
H872 C831 0.929 . S
H873 C832 0.930 . S
H874 C833 0.930 . S
H875 C834 0.930 . S
H876 C838 0.929 . S
H877 C840 0.930 . S
H878 C846 0.929 . S
H879 C847 0.930 . S
Li880 N897 1.990 . S
Li880 O940 1.956 . S
Li880 O941 1.970 . S
Li880 O942 1.961 . S
Li881 N905 1.990 . S
Li881 O940 1.970 . S
Li881 O941 1.956 . S
Li881 O943 1.961 . S
Li882 N927 1.990 . S
Li882 O940 1.961 . S
Li882 O942 1.956 . S
Li882 O943 1.970 . S
Li883 N933 1.990 . S
Li883 O941 1.961 . S
Li883 O942 1.970 . S
Li883 O943 1.956 . S
C884 C886 1.348 . S
C884 C887 1.356 . S
C884 O940 1.325 . S
N885 C888 1.314 . S
N885 C889 1.279 . S
C886 C884 1.348 . S
C886 C888 1.353 . S
C886 H944 0.929 . S
C887 C884 1.356 . S
C887 C889 1.358 . S
C887 H945 0.930 . S
C888 N885 1.314 . S
C888 C886 1.353 . S
C888 H946 0.930 . S
C889 N885 1.279 . S
C889 C887 1.358 . S
C889 H947 0.930 . S
C890 C893 1.348 . S
C890 C894 1.356 . S
C890 O941 1.325 . S
C891 N892 1.279 . S
C891 C894 1.358 . S
C891 H948 0.930 . S
N892 C891 1.279 . S
N892 C895 1.314 . S
C893 C890 1.348 . S
C893 C895 1.353 . S
C893 H949 0.929 . S
C894 C890 1.356 . S
C894 C891 1.358 . S
C894 H950 0.930 . S
C895 N892 1.314 . S
C895 C893 1.353 . S
C895 H951 0.930 . S
C896 N897 1.314 . S
C896 C901 1.353 . S
C896 H902 0.930 . S
N897 Li880 1.990 . S
N897 C896 1.314 . S
N897 C899 1.279 . S
C898 C899 1.358 . S
C898 C900 1.356 . S
C898 H952 0.930 . S
C899 N897 1.279 . S
C899 C898 1.358 . S
C899 H903 0.930 . S
C900 C898 1.356 . S
C900 C901 1.348 . S
C901 C896 1.353 . S
C901 C900 1.348 . S
C901 H953 0.929 . S
H902 C896 0.930 . S
H903 C899 0.930 . S
C904 N905 1.314 . S
C904 C906 1.353 . S
C904 H910 0.930 . S
N905 Li881 1.990 . S
N905 C904 1.314 . S
N905 C908 1.279 . S
C906 C904 1.353 . S
C906 C909 1.348 . S
C906 H954 0.929 . S
C907 C908 1.358 . S
C907 C909 1.356 . S
C907 H955 0.930 . S
C908 N905 1.279 . S
C908 C907 1.358 . S
C908 H911 0.930 . S
C909 C906 1.348 . S
C909 C907 1.356 . S
H910 C904 0.930 . S
H911 C908 0.930 . S
C912 C914 1.348 . S
C912 C915 1.356 . S
C912 O942 1.325 . S
N913 C916 1.314 . S
N913 C917 1.279 . S
C914 C912 1.348 . S
C914 C916 1.353 . S
C914 H956 0.929 . S
C915 C912 1.356 . S
C915 C917 1.358 . S
C915 H957 0.930 . S
C916 N913 1.314 . S
C916 C914 1.353 . S
C916 H958 0.930 . S
C917 N913 1.279 . S
C917 C915 1.358 . S
C917 H959 0.930 . S
C918 C919 1.348 . S
C918 C920 1.356 . S
C918 O943 1.325 . S
C919 C918 1.348 . S
C919 C921 1.353 . S
C919 H960 0.929 . S
C920 C918 1.356 . S
C920 C922 1.358 . S
C920 H961 0.930 . S
C921 C919 1.353 . S
C921 N923 1.314 . S
C921 H962 0.930 . S
C922 C920 1.358 . S
C922 N923 1.279 . S
C922 H963 0.930 . S
N923 C921 1.314 . S
N923 C922 1.279 . S
C924 C926 1.353 . S
C924 N927 1.314 . S
C924 H930 0.930 . S
C925 N927 1.279 . S
C925 C928 1.358 . S
C925 H931 0.930 . S
C926 C924 1.353 . S
C926 C929 1.348 . S
C926 H964 0.929 . S
N927 Li882 1.990 . S
N927 C924 1.314 . S
N927 C925 1.279 . S
C928 C925 1.358 . S
C928 C929 1.356 . S
C928 H965 0.930 . S
C929 C926 1.348 . S
C929 C928 1.356 . S
H930 C924 0.930 . S
H931 C925 0.930 . S
C932 N933 1.314 . S
C932 C934 1.353 . S
C932 H938 0.930 . S
N933 Li883 1.990 . S
N933 C932 1.314 . S
N933 C936 1.279 . S
C934 C932 1.353 . S
C934 C937 1.348 . S
C934 H966 0.929 . S
C935 C936 1.358 . S
C935 C937 1.356 . S
C935 H967 0.930 . S
C936 N933 1.279 . S
C936 C935 1.358 . S
C936 H939 0.930 . S
C937 C934 1.348 . S
C937 C935 1.356 . S
H938 C932 0.930 . S
H939 C936 0.930 . S
O940 Li880 1.956 . S
O940 Li881 1.970 . S
O940 Li882 1.961 . S
O940 C884 1.325 . S
O941 Li880 1.970 . S
O941 Li881 1.956 . S
O941 Li883 1.961 . S
O941 C890 1.325 . S
O942 Li880 1.961 . S
O942 Li882 1.956 . S
O942 Li883 1.970 . S
O942 C912 1.325 . S
O943 Li881 1.961 . S
O943 Li882 1.970 . S
O943 Li883 1.956 . S
O943 C918 1.325 . S
H944 C886 0.929 . S
H945 C887 0.930 . S
H946 C888 0.930 . S
H947 C889 0.930 . S
H948 C891 0.930 . S
H949 C893 0.929 . S
H950 C894 0.930 . S
H951 C895 0.930 . S
H952 C898 0.930 . S
H953 C901 0.929 . S
H954 C906 0.929 . S
H955 C907 0.930 . S
H956 C914 0.929 . S
H957 C915 0.930 . S
H958 C916 0.930 . S
H959 C917 0.930 . S
H960 C919 0.929 . S
H961 C920 0.930 . S
H962 C921 0.930 . S
H963 C922 0.930 . S
H964 C926 0.929 . S
H965 C928 0.930 . S
H966 C934 0.929 . S
H967 C935 0.930 . S
Li968 N985 1.990 . S
Li968 O1028 1.956 . S
Li968 O1029 1.970 . S
Li968 O1030 1.961 . S
Li969 N993 1.990 . S
Li969 O1028 1.970 . S
Li969 O1029 1.956 . S
Li969 O1031 1.961 . S
Li970 N1015 1.990 . S
Li970 O1028 1.961 . S
Li970 O1030 1.956 . S
Li970 O1031 1.970 . S
Li971 N1021 1.990 . S
Li971 O1029 1.961 . S
Li971 O1030 1.970 . S
Li971 O1031 1.956 . S
C972 C974 1.348 . S
C972 C975 1.356 . S
C972 O1028 1.325 . S
N973 C976 1.314 . S
N973 C977 1.279 . S
C974 C972 1.348 . S
C974 C976 1.353 . S
C974 H1032 0.929 . S
C975 C972 1.356 . S
C975 C977 1.358 . S
C975 H1033 0.930 . S
C976 N973 1.314 . S
C976 C974 1.353 . S
C976 H1034 0.930 . S
C977 N973 1.279 . S
C977 C975 1.358 . S
C977 H1035 0.930 . S
C978 C981 1.348 . S
C978 C982 1.356 . S
C978 O1029 1.325 . S
C979 N980 1.279 . S
C979 C982 1.358 . S
C979 H1036 0.930 . S
N980 C979 1.279 . S
N980 C983 1.314 . S
C981 C978 1.348 . S
C981 C983 1.353 . S
C981 H1037 0.929 . S
C982 C978 1.356 . S
C982 C979 1.358 . S
C982 H1038 0.930 . S
C983 N980 1.314 . S
C983 C981 1.353 . S
C983 H1039 0.930 . S
C984 N985 1.314 . S
C984 C989 1.353 . S
C984 H990 0.930 . S
N985 Li968 1.990 . S
N985 C984 1.314 . S
N985 C987 1.279 . S
C986 C987 1.358 . S
C986 C988 1.356 . S
C986 H1040 0.930 . S
C987 N985 1.279 . S
C987 C986 1.358 . S
C987 H991 0.930 . S
C988 C986 1.356 . S
C988 C989 1.348 . S
C989 C984 1.353 . S
C989 C988 1.348 . S
C989 H1041 0.929 . S
H990 C984 0.930 . S
H991 C987 0.930 . S
C992 N993 1.314 . S
C992 C994 1.353 . S
C992 H998 0.930 . S
N993 Li969 1.990 . S
N993 C992 1.314 . S
N993 C996 1.279 . S
C994 C992 1.353 . S
C994 C997 1.348 . S
C994 H1042 0.929 . S
C995 C996 1.358 . S
C995 C997 1.356 . S
C995 H1043 0.930 . S
C996 N993 1.279 . S
C996 C995 1.358 . S
C996 H999 0.930 . S
C997 C994 1.348 . S
C997 C995 1.356 . S
H998 C992 0.930 . S
H999 C996 0.930 . S
C1000 C1002 1.348 . S
C1000 C1003 1.356 . S
C1000 O1030 1.325 . S
N1001 C1004 1.314 . S
N1001 C1005 1.279 . S
C1002 C1000 1.348 . S
C1002 C1004 1.353 . S
C1002 H1044 0.929 . S
C1003 C1000 1.356 . S
C1003 C1005 1.358 . S
C1003 H1045 0.930 . S
C1004 N1001 1.314 . S
C1004 C1002 1.353 . S
C1004 H1046 0.930 . S
C1005 N1001 1.279 . S
C1005 C1003 1.358 . S
C1005 H1047 0.930 . S
C1006 C1007 1.348 . S
C1006 C1008 1.356 . S
C1006 O1031 1.325 . S
C1007 C1006 1.348 . S
C1007 C1009 1.353 . S
C1007 H1048 0.929 . S
C1008 C1006 1.356 . S
C1008 C1010 1.358 . S
C1008 H1049 0.930 . S
C1009 C1007 1.353 . S
C1009 N1011 1.314 . S
C1009 H1050 0.930 . S
C1010 C1008 1.358 . S
C1010 N1011 1.279 . S
C1010 H1051 0.930 . S
N1011 C1009 1.314 . S
N1011 C1010 1.279 . S
C1012 C1014 1.353 . S
C1012 N1015 1.314 . S
C1012 H1018 0.930 . S
C1013 N1015 1.279 . S
C1013 C1016 1.358 . S
C1013 H1019 0.930 . S
C1014 C1012 1.353 . S
C1014 C1017 1.348 . S
C1014 H1052 0.929 . S
N1015 Li970 1.990 . S
N1015 C1012 1.314 . S
N1015 C1013 1.279 . S
C1016 C1013 1.358 . S
C1016 C1017 1.356 . S
C1016 H1053 0.930 . S
C1017 C1014 1.348 . S
C1017 C1016 1.356 . S
H1018 C1012 0.930 . S
H1019 C1013 0.930 . S
C1020 N1021 1.314 . S
C1020 C1022 1.353 . S
C1020 H1026 0.930 . S
N1021 Li971 1.990 . S
N1021 C1020 1.314 . S
N1021 C1024 1.279 . S
C1022 C1020 1.353 . S
C1022 C1025 1.348 . S
C1022 H1054 0.929 . S
C1023 C1024 1.358 . S
C1023 C1025 1.356 . S
C1023 H1055 0.930 . S
C1024 N1021 1.279 . S
C1024 C1023 1.358 . S
C1024 H1027 0.930 . S
C1025 C1022 1.348 . S
C1025 C1023 1.356 . S
H1026 C1020 0.930 . S
H1027 C1024 0.930 . S
O1028 Li968 1.956 . S
O1028 Li969 1.970 . S
O1028 Li970 1.961 . S
O1028 C972 1.325 . S
O1029 Li968 1.970 . S
O1029 Li969 1.956 . S
O1029 Li971 1.961 . S
O1029 C978 1.325 . S
O1030 Li968 1.961 . S
O1030 Li970 1.956 . S
O1030 Li971 1.970 . S
O1030 C1000 1.325 . S
O1031 Li969 1.961 . S
O1031 Li970 1.970 . S
O1031 Li971 1.956 . S
O1031 C1006 1.325 . S
H1032 C974 0.929 . S
H1033 C975 0.930 . S
H1034 C976 0.930 . S
H1035 C977 0.930 . S
H1036 C979 0.930 . S
H1037 C981 0.929 . S
H1038 C982 0.930 . S
H1039 C983 0.930 . S
H1040 C986 0.930 . S
H1041 C989 0.929 . S
H1042 C994 0.929 . S
H1043 C995 0.930 . S
H1044 C1002 0.929 . S
H1045 C1003 0.930 . S
H1046 C1004 0.930 . S
H1047 C1005 0.930 . S
H1048 C1007 0.929 . S
H1049 C1008 0.930 . S
H1050 C1009 0.930 . S
H1051 C1010 0.930 . S
H1052 C1014 0.929 . S
H1053 C1016 0.930 . S
H1054 C1022 0.929 . S
H1055 C1023 0.930 . S
Li1056 N1073 1.990 . S
Li1056 O1116 1.956 . S
Li1056 O1117 1.970 . S
Li1056 O1118 1.961 . S
Li1057 N1081 1.990 . S
Li1057 O1116 1.970 . S
Li1057 O1117 1.956 . S
Li1057 O1119 1.961 . S
Li1058 N1103 1.990 . S
Li1058 O1116 1.961 . S
Li1058 O1118 1.956 . S
Li1058 O1119 1.970 . S
Li1059 N1109 1.990 . S
Li1059 O1117 1.961 . S
Li1059 O1118 1.970 . S
Li1059 O1119 1.956 . S
C1060 C1062 1.348 . S
C1060 C1063 1.356 . S
C1060 O1116 1.325 . S
N1061 C1064 1.314 . S
N1061 C1065 1.279 . S
C1062 C1060 1.348 . S
C1062 C1064 1.353 . S
C1062 H1120 0.929 . S
C1063 C1060 1.356 . S
C1063 C1065 1.358 . S
C1063 H1121 0.930 . S
C1064 N1061 1.314 . S
C1064 C1062 1.353 . S
C1064 H1122 0.930 . S
C1065 N1061 1.279 . S
C1065 C1063 1.358 . S
C1065 H1123 0.930 . S
C1066 C1069 1.348 . S
C1066 C1070 1.356 . S
C1066 O1117 1.325 . S
C1067 N1068 1.279 . S
C1067 C1070 1.358 . S
C1067 H1124 0.930 . S
N1068 C1067 1.279 . S
N1068 C1071 1.314 . S
C1069 C1066 1.348 . S
C1069 C1071 1.353 . S
C1069 H1125 0.929 . S
C1070 C1066 1.356 . S
C1070 C1067 1.358 . S
C1070 H1126 0.930 . S
C1071 N1068 1.314 . S
C1071 C1069 1.353 . S
C1071 H1127 0.930 . S
C1072 N1073 1.314 . S
C1072 C1077 1.353 . S
C1072 H1078 0.930 . S
N1073 Li1056 1.990 . S
N1073 C1072 1.314 . S
N1073 C1075 1.279 . S
C1074 C1075 1.358 . S
C1074 C1076 1.356 . S
C1074 H1128 0.930 . S
C1075 N1073 1.279 . S
C1075 C1074 1.358 . S
C1075 H1079 0.930 . S
C1076 C1074 1.356 . S
C1076 C1077 1.348 . S
C1077 C1072 1.353 . S
C1077 C1076 1.348 . S
C1077 H1129 0.929 . S
H1078 C1072 0.930 . S
H1079 C1075 0.930 . S
C1080 N1081 1.314 . S
C1080 C1082 1.353 . S
C1080 H1086 0.930 . S
N1081 Li1057 1.990 . S
N1081 C1080 1.314 . S
N1081 C1084 1.279 . S
C1082 C1080 1.353 . S
C1082 C1085 1.348 . S
C1082 H1130 0.929 . S
C1083 C1084 1.358 . S
C1083 C1085 1.356 . S
C1083 H1131 0.930 . S
C1084 N1081 1.279 . S
C1084 C1083 1.358 . S
C1084 H1087 0.930 . S
C1085 C1082 1.348 . S
C1085 C1083 1.356 . S
H1086 C1080 0.930 . S
H1087 C1084 0.930 . S
C1088 C1090 1.348 . S
C1088 C1091 1.356 . S
C1088 O1118 1.325 . S
N1089 C1092 1.314 . S
N1089 C1093 1.279 . S
C1090 C1088 1.348 . S
C1090 C1092 1.353 . S
C1090 H1132 0.929 . S
C1091 C1088 1.356 . S
C1091 C1093 1.358 . S
C1091 H1133 0.930 . S
C1092 N1089 1.314 . S
C1092 C1090 1.353 . S
C1092 H1134 0.930 . S
C1093 N1089 1.279 . S
C1093 C1091 1.358 . S
C1093 H1135 0.930 . S
C1094 C1095 1.348 . S
C1094 C1096 1.356 . S
C1094 O1119 1.325 . S
C1095 C1094 1.348 . S
C1095 C1097 1.353 . S
C1095 H1136 0.929 . S
C1096 C1094 1.356 . S
C1096 C1098 1.358 . S
C1096 H1137 0.930 . S
C1097 C1095 1.353 . S
C1097 N1099 1.314 . S
C1097 H1138 0.930 . S
C1098 C1096 1.358 . S
C1098 N1099 1.279 . S
C1098 H1139 0.930 . S
N1099 C1097 1.314 . S
N1099 C1098 1.279 . S
C1100 C1102 1.353 . S
C1100 N1103 1.314 . S
C1100 H1106 0.930 . S
C1101 N1103 1.279 . S
C1101 C1104 1.358 . S
C1101 H1107 0.930 . S
C1102 C1100 1.353 . S
C1102 C1105 1.348 . S
C1102 H1140 0.929 . S
N1103 Li1058 1.990 . S
N1103 C1100 1.314 . S
N1103 C1101 1.279 . S
C1104 C1101 1.358 . S
C1104 C1105 1.356 . S
C1104 H1141 0.930 . S
C1105 C1102 1.348 . S
C1105 C1104 1.356 . S
H1106 C1100 0.930 . S
H1107 C1101 0.930 . S
C1108 N1109 1.314 . S
C1108 C1110 1.353 . S
C1108 H1114 0.930 . S
N1109 Li1059 1.990 . S
N1109 C1108 1.314 . S
N1109 C1112 1.279 . S
C1110 C1108 1.353 . S
C1110 C1113 1.348 . S
C1110 H1142 0.929 . S
C1111 C1112 1.358 . S
C1111 C1113 1.356 . S
C1111 H1143 0.930 . S
C1112 N1109 1.279 . S
C1112 C1111 1.358 . S
C1112 H1115 0.930 . S
C1113 C1110 1.348 . S
C1113 C1111 1.356 . S
H1114 C1108 0.930 . S
H1115 C1112 0.930 . S
O1116 Li1056 1.956 . S
O1116 Li1057 1.970 . S
O1116 Li1058 1.961 . S
O1116 C1060 1.325 . S
O1117 Li1056 1.970 . S
O1117 Li1057 1.956 . S
O1117 Li1059 1.961 . S
O1117 C1066 1.325 . S
O1118 Li1056 1.961 . S
O1118 Li1058 1.956 . S
O1118 Li1059 1.970 . S
O1118 C1088 1.325 . S
O1119 Li1057 1.961 . S
O1119 Li1058 1.970 . S
O1119 Li1059 1.956 . S
O1119 C1094 1.325 . S
H1120 C1062 0.929 . S
H1121 C1063 0.930 . S
H1122 C1064 0.930 . S
H1123 C1065 0.930 . S
H1124 C1067 0.930 . S
H1125 C1069 0.929 . S
H1126 C1070 0.930 . S
H1127 C1071 0.930 . S
H1128 C1074 0.930 . S
H1129 C1077 0.929 . S
H1130 C1082 0.929 . S
H1131 C1083 0.930 . S
H1132 C1090 0.929 . S
H1133 C1091 0.930 . S
H1134 C1092 0.930 . S
H1135 C1093 0.930 . S
H1136 C1095 0.929 . S
H1137 C1096 0.930 . S
H1138 C1097 0.930 . S
H1139 C1098 0.930 . S
H1140 C1102 0.929 . S
H1141 C1104 0.930 . S
H1142 C1110 0.929 . S
H1143 C1111 0.930 . S
Li1144 N1161 1.990 . S
Li1144 O1204 1.956 . S
Li1144 O1205 1.970 . S
Li1144 O1206 1.961 . S
Li1145 N1169 1.990 . S
Li1145 O1204 1.970 . S
Li1145 O1205 1.956 . S
Li1145 O1207 1.961 . S
Li1146 N1191 1.990 . S
Li1146 O1204 1.961 . S
Li1146 O1206 1.956 . S
Li1146 O1207 1.970 . S
Li1147 N1197 1.990 . S
Li1147 O1205 1.961 . S
Li1147 O1206 1.970 . S
Li1147 O1207 1.956 . S
C1148 C1150 1.348 . S
C1148 C1151 1.356 . S
C1148 O1204 1.325 . S
N1149 C1152 1.314 . S
N1149 C1153 1.279 . S
C1150 C1148 1.348 . S
C1150 C1152 1.353 . S
C1150 H1208 0.929 . S
C1151 C1148 1.356 . S
C1151 C1153 1.358 . S
C1151 H1209 0.930 . S
C1152 N1149 1.314 . S
C1152 C1150 1.353 . S
C1152 H1210 0.930 . S
C1153 N1149 1.279 . S
C1153 C1151 1.358 . S
C1153 H1211 0.930 . S
C1154 C1157 1.348 . S
C1154 C1158 1.356 . S
C1154 O1205 1.325 . S
C1155 N1156 1.279 . S
C1155 C1158 1.358 . S
C1155 H1212 0.930 . S
N1156 C1155 1.279 . S
N1156 C1159 1.314 . S
C1157 C1154 1.348 . S
C1157 C1159 1.353 . S
C1157 H1213 0.929 . S
C1158 C1154 1.356 . S
C1158 C1155 1.358 . S
C1158 H1214 0.930 . S
C1159 N1156 1.314 . S
C1159 C1157 1.353 . S
C1159 H1215 0.930 . S
C1160 N1161 1.314 . S
C1160 C1165 1.353 . S
C1160 H1166 0.930 . S
N1161 Li1144 1.990 . S
N1161 C1160 1.314 . S
N1161 C1163 1.279 . S
C1162 C1163 1.358 . S
C1162 C1164 1.356 . S
C1162 H1216 0.930 . S
C1163 N1161 1.279 . S
C1163 C1162 1.358 . S
C1163 H1167 0.930 . S
C1164 C1162 1.356 . S
C1164 C1165 1.348 . S
C1165 C1160 1.353 . S
C1165 C1164 1.348 . S
C1165 H1217 0.929 . S
H1166 C1160 0.930 . S
H1167 C1163 0.930 . S
C1168 N1169 1.314 . S
C1168 C1170 1.353 . S
C1168 H1174 0.930 . S
N1169 Li1145 1.990 . S
N1169 C1168 1.314 . S
N1169 C1172 1.279 . S
C1170 C1168 1.353 . S
C1170 C1173 1.348 . S
C1170 H1218 0.929 . S
C1171 C1172 1.358 . S
C1171 C1173 1.356 . S
C1171 H1219 0.930 . S
C1172 N1169 1.279 . S
C1172 C1171 1.358 . S
C1172 H1175 0.930 . S
C1173 C1170 1.348 . S
C1173 C1171 1.356 . S
H1174 C1168 0.930 . S
H1175 C1172 0.930 . S
C1176 C1178 1.348 . S
C1176 C1179 1.356 . S
C1176 O1206 1.325 . S
N1177 C1180 1.314 . S
N1177 C1181 1.279 . S
C1178 C1176 1.348 . S
C1178 C1180 1.353 . S
C1178 H1220 0.929 . S
C1179 C1176 1.356 . S
C1179 C1181 1.358 . S
C1179 H1221 0.930 . S
C1180 N1177 1.314 . S
C1180 C1178 1.353 . S
C1180 H1222 0.930 . S
C1181 N1177 1.279 . S
C1181 C1179 1.358 . S
C1181 H1223 0.930 . S
C1182 C1183 1.348 . S
C1182 C1184 1.356 . S
C1182 O1207 1.325 . S
C1183 C1182 1.348 . S
C1183 C1185 1.353 . S
C1183 H1224 0.929 . S
C1184 C1182 1.356 . S
C1184 C1186 1.358 . S
C1184 H1225 0.930 . S
C1185 C1183 1.353 . S
C1185 N1187 1.314 . S
C1185 H1226 0.930 . S
C1186 C1184 1.358 . S
C1186 N1187 1.279 . S
C1186 H1227 0.930 . S
N1187 C1185 1.314 . S
N1187 C1186 1.279 . S
C1188 C1190 1.353 . S
C1188 N1191 1.314 . S
C1188 H1194 0.930 . S
C1189 N1191 1.279 . S
C1189 C1192 1.358 . S
C1189 H1195 0.930 . S
C1190 C1188 1.353 . S
C1190 C1193 1.348 . S
C1190 H1228 0.929 . S
N1191 Li1146 1.990 . S
N1191 C1188 1.314 . S
N1191 C1189 1.279 . S
C1192 C1189 1.358 . S
C1192 C1193 1.356 . S
C1192 H1229 0.930 . S
C1193 C1190 1.348 . S
C1193 C1192 1.356 . S
H1194 C1188 0.930 . S
H1195 C1189 0.930 . S
C1196 N1197 1.314 . S
C1196 C1198 1.353 . S
C1196 H1202 0.930 . S
N1197 Li1147 1.990 . S
N1197 C1196 1.314 . S
N1197 C1200 1.279 . S
C1198 C1196 1.353 . S
C1198 C1201 1.348 . S
C1198 H1230 0.929 . S
C1199 C1200 1.358 . S
C1199 C1201 1.356 . S
C1199 H1231 0.930 . S
C1200 N1197 1.279 . S
C1200 C1199 1.358 . S
C1200 H1203 0.930 . S
C1201 C1198 1.348 . S
C1201 C1199 1.356 . S
H1202 C1196 0.930 . S
H1203 C1200 0.930 . S
O1204 Li1144 1.956 . S
O1204 Li1145 1.970 . S
O1204 Li1146 1.961 . S
O1204 C1148 1.325 . S
O1205 Li1144 1.970 . S
O1205 Li1145 1.956 . S
O1205 Li1147 1.961 . S
O1205 C1154 1.325 . S
O1206 Li1144 1.961 . S
O1206 Li1146 1.956 . S
O1206 Li1147 1.970 . S
O1206 C1176 1.325 . S
O1207 Li1145 1.961 . S
O1207 Li1146 1.970 . S
O1207 Li1147 1.956 . S
O1207 C1182 1.325 . S
H1208 C1150 0.929 . S
H1209 C1151 0.930 . S
H1210 C1152 0.930 . S
H1211 C1153 0.930 . S
H1212 C1155 0.930 . S
H1213 C1157 0.929 . S
H1214 C1158 0.930 . S
H1215 C1159 0.930 . S
H1216 C1162 0.930 . S
H1217 C1165 0.929 . S
H1218 C1170 0.929 . S
H1219 C1171 0.930 . S
H1220 C1178 0.929 . S
H1221 C1179 0.930 . S
H1222 C1180 0.930 . S
H1223 C1181 0.930 . S
H1224 C1183 0.929 . S
H1225 C1184 0.930 . S
H1226 C1185 0.930 . S
H1227 C1186 0.930 . S
H1228 C1190 0.929 . S
H1229 C1192 0.930 . S
H1230 C1198 0.929 . S
H1231 C1199 0.930 . S
Li1232 N1249 1.990 . S
Li1232 O1292 1.956 . S
Li1232 O1293 1.970 . S
Li1232 O1294 1.961 . S
Li1233 N1257 1.990 . S
Li1233 O1292 1.970 . S
Li1233 O1293 1.956 . S
Li1233 O1295 1.961 . S
Li1234 N1279 1.990 . S
Li1234 O1292 1.961 . S
Li1234 O1294 1.956 . S
Li1234 O1295 1.970 . S
Li1235 N1285 1.990 . S
Li1235 O1293 1.961 . S
Li1235 O1294 1.970 . S
Li1235 O1295 1.956 . S
C1236 C1238 1.348 . S
C1236 C1239 1.356 . S
C1236 O1292 1.325 . S
N1237 C1240 1.314 . S
N1237 C1241 1.279 . S
C1238 C1236 1.348 . S
C1238 C1240 1.353 . S
C1238 H1296 0.929 . S
C1239 C1236 1.356 . S
C1239 C1241 1.358 . S
C1239 H1297 0.930 . S
C1240 N1237 1.314 . S
C1240 C1238 1.353 . S
C1240 H1298 0.930 . S
C1241 N1237 1.279 . S
C1241 C1239 1.358 . S
C1241 H1299 0.930 . S
C1242 C1245 1.348 . S
C1242 C1246 1.356 . S
C1242 O1293 1.325 . S
C1243 N1244 1.279 . S
C1243 C1246 1.358 . S
C1243 H1300 0.930 . S
N1244 C1243 1.279 . S
N1244 C1247 1.314 . S
C1245 C1242 1.348 . S
C1245 C1247 1.353 . S
C1245 H1301 0.929 . S
C1246 C1242 1.356 . S
C1246 C1243 1.358 . S
C1246 H1302 0.930 . S
C1247 N1244 1.314 . S
C1247 C1245 1.353 . S
C1247 H1303 0.930 . S
C1248 N1249 1.314 . S
C1248 C1253 1.353 . S
C1248 H1254 0.930 . S
N1249 Li1232 1.990 . S
N1249 C1248 1.314 . S
N1249 C1251 1.279 . S
C1250 C1251 1.358 . S
C1250 C1252 1.356 . S
C1250 H1304 0.930 . S
C1251 N1249 1.279 . S
C1251 C1250 1.358 . S
C1251 H1255 0.930 . S
C1252 C1250 1.356 . S
C1252 C1253 1.348 . S
C1253 C1248 1.353 . S
C1253 C1252 1.348 . S
C1253 H1305 0.929 . S
H1254 C1248 0.930 . S
H1255 C1251 0.930 . S
C1256 N1257 1.314 . S
C1256 C1258 1.353 . S
C1256 H1262 0.930 . S
N1257 Li1233 1.990 . S
N1257 C1256 1.314 . S
N1257 C1260 1.279 . S
C1258 C1256 1.353 . S
C1258 C1261 1.348 . S
C1258 H1306 0.929 . S
C1259 C1260 1.358 . S
C1259 C1261 1.356 . S
C1259 H1307 0.930 . S
C1260 N1257 1.279 . S
C1260 C1259 1.358 . S
C1260 H1263 0.930 . S
C1261 C1258 1.348 . S
C1261 C1259 1.356 . S
H1262 C1256 0.930 . S
H1263 C1260 0.930 . S
C1264 C1266 1.348 . S
C1264 C1267 1.356 . S
C1264 O1294 1.325 . S
N1265 C1268 1.314 . S
N1265 C1269 1.279 . S
C1266 C1264 1.348 . S
C1266 C1268 1.353 . S
C1266 H1308 0.929 . S
C1267 C1264 1.356 . S
C1267 C1269 1.358 . S
C1267 H1309 0.930 . S
C1268 N1265 1.314 . S
C1268 C1266 1.353 . S
C1268 H1310 0.930 . S
C1269 N1265 1.279 . S
C1269 C1267 1.358 . S
C1269 H1311 0.930 . S
C1270 C1271 1.348 . S
C1270 C1272 1.356 . S
C1270 O1295 1.325 . S
C1271 C1270 1.348 . S
C1271 C1273 1.353 . S
C1271 H1312 0.929 . S
C1272 C1270 1.356 . S
C1272 C1274 1.358 . S
C1272 H1313 0.930 . S
C1273 C1271 1.353 . S
C1273 N1275 1.314 . S
C1273 H1314 0.930 . S
C1274 C1272 1.358 . S
C1274 N1275 1.279 . S
C1274 H1315 0.930 . S
N1275 C1273 1.314 . S
N1275 C1274 1.279 . S
C1276 C1278 1.353 . S
C1276 N1279 1.314 . S
C1276 H1282 0.930 . S
C1277 N1279 1.279 . S
C1277 C1280 1.358 . S
C1277 H1283 0.930 . S
C1278 C1276 1.353 . S
C1278 C1281 1.348 . S
C1278 H1316 0.929 . S
N1279 Li1234 1.990 . S
N1279 C1276 1.314 . S
N1279 C1277 1.279 . S
C1280 C1277 1.358 . S
C1280 C1281 1.356 . S
C1280 H1317 0.930 . S
C1281 C1278 1.348 . S
C1281 C1280 1.356 . S
H1282 C1276 0.930 . S
H1283 C1277 0.930 . S
C1284 N1285 1.314 . S
C1284 C1286 1.353 . S
C1284 H1290 0.930 . S
N1285 Li1235 1.990 . S
N1285 C1284 1.314 . S
N1285 C1288 1.279 . S
C1286 C1284 1.353 . S
C1286 C1289 1.348 . S
C1286 H1318 0.929 . S
C1287 C1288 1.358 . S
C1287 C1289 1.356 . S
C1287 H1319 0.930 . S
C1288 N1285 1.279 . S
C1288 C1287 1.358 . S
C1288 H1291 0.930 . S
C1289 C1286 1.348 . S
C1289 C1287 1.356 . S
H1290 C1284 0.930 . S
H1291 C1288 0.930 . S
O1292 Li1232 1.956 . S
O1292 Li1233 1.970 . S
O1292 Li1234 1.961 . S
O1292 C1236 1.325 . S
O1293 Li1232 1.970 . S
O1293 Li1233 1.956 . S
O1293 Li1235 1.961 . S
O1293 C1242 1.325 . S
O1294 Li1232 1.961 . S
O1294 Li1234 1.956 . S
O1294 Li1235 1.970 . S
O1294 C1264 1.325 . S
O1295 Li1233 1.961 . S
O1295 Li1234 1.970 . S
O1295 Li1235 1.956 . S
O1295 C1270 1.325 . S
H1296 C1238 0.929 . S
H1297 C1239 0.930 . S
H1298 C1240 0.930 . S
H1299 C1241 0.930 . S
H1300 C1243 0.930 . S
H1301 C1245 0.929 . S
H1302 C1246 0.930 . S
H1303 C1247 0.930 . S
H1304 C1250 0.930 . S
H1305 C1253 0.929 . S
H1306 C1258 0.929 . S
H1307 C1259 0.930 . S
H1308 C1266 0.929 . S
H1309 C1267 0.930 . S
H1310 C1268 0.930 . S
H1311 C1269 0.930 . S
H1312 C1271 0.929 . S
H1313 C1272 0.930 . S
H1314 C1273 0.930 . S
H1315 C1274 0.930 . S
H1316 C1278 0.929 . S
H1317 C1280 0.930 . S
H1318 C1286 0.929 . S
H1319 C1287 0.930 . S
Li1320 N1337 1.990 . S
Li1320 O1380 1.956 . S
Li1320 O1381 1.970 . S
Li1320 O1382 1.961 . S
Li1321 N1345 1.990 . S
Li1321 O1380 1.970 . S
Li1321 O1381 1.956 . S
Li1321 O1383 1.961 . S
Li1322 N1367 1.990 . S
Li1322 O1380 1.961 . S
Li1322 O1382 1.956 . S
Li1322 O1383 1.970 . S
Li1323 N1373 1.990 . S
Li1323 O1381 1.961 . S
Li1323 O1382 1.970 . S
Li1323 O1383 1.956 . S
C1324 C1326 1.348 . S
C1324 C1327 1.356 . S
C1324 O1380 1.325 . S
N1325 C1328 1.314 . S
N1325 C1329 1.279 . S
C1326 C1324 1.348 . S
C1326 C1328 1.353 . S
C1326 H1384 0.929 . S
C1327 C1324 1.356 . S
C1327 C1329 1.358 . S
C1327 H1385 0.930 . S
C1328 N1325 1.314 . S
C1328 C1326 1.353 . S
C1328 H1386 0.930 . S
C1329 N1325 1.279 . S
C1329 C1327 1.358 . S
C1329 H1387 0.930 . S
C1330 C1333 1.348 . S
C1330 C1334 1.356 . S
C1330 O1381 1.325 . S
C1331 N1332 1.279 . S
C1331 C1334 1.358 . S
C1331 H1388 0.930 . S
N1332 C1331 1.279 . S
N1332 C1335 1.314 . S
C1333 C1330 1.348 . S
C1333 C1335 1.353 . S
C1333 H1389 0.929 . S
C1334 C1330 1.356 . S
C1334 C1331 1.358 . S
C1334 H1390 0.930 . S
C1335 N1332 1.314 . S
C1335 C1333 1.353 . S
C1335 H1391 0.930 . S
C1336 N1337 1.314 . S
C1336 C1341 1.353 . S
C1336 H1342 0.930 . S
N1337 Li1320 1.990 . S
N1337 C1336 1.314 . S
N1337 C1339 1.279 . S
C1338 C1339 1.358 . S
C1338 C1340 1.356 . S
C1338 H1392 0.930 . S
C1339 N1337 1.279 . S
C1339 C1338 1.358 . S
C1339 H1343 0.930 . S
C1340 C1338 1.356 . S
C1340 C1341 1.348 . S
C1341 C1336 1.353 . S
C1341 C1340 1.348 . S
C1341 H1393 0.929 . S
H1342 C1336 0.930 . S
H1343 C1339 0.930 . S
C1344 N1345 1.314 . S
C1344 C1346 1.353 . S
C1344 H1350 0.930 . S
N1345 Li1321 1.990 . S
N1345 C1344 1.314 . S
N1345 C1348 1.279 . S
C1346 C1344 1.353 . S
C1346 C1349 1.348 . S
C1346 H1394 0.929 . S
C1347 C1348 1.358 . S
C1347 C1349 1.356 . S
C1347 H1395 0.930 . S
C1348 N1345 1.279 . S
C1348 C1347 1.358 . S
C1348 H1351 0.930 . S
C1349 C1346 1.348 . S
C1349 C1347 1.356 . S
H1350 C1344 0.930 . S
H1351 C1348 0.930 . S
C1352 C1354 1.348 . S
C1352 C1355 1.356 . S
C1352 O1382 1.325 . S
N1353 C1356 1.314 . S
N1353 C1357 1.279 . S
C1354 C1352 1.348 . S
C1354 C1356 1.353 . S
C1354 H1396 0.929 . S
C1355 C1352 1.356 . S
C1355 C1357 1.358 . S
C1355 H1397 0.930 . S
C1356 N1353 1.314 . S
C1356 C1354 1.353 . S
C1356 H1398 0.930 . S
C1357 N1353 1.279 . S
C1357 C1355 1.358 . S
C1357 H1399 0.930 . S
C1358 C1359 1.348 . S
C1358 C1360 1.356 . S
C1358 O1383 1.325 . S
C1359 C1358 1.348 . S
C1359 C1361 1.353 . S
C1359 H1400 0.929 . S
C1360 C1358 1.356 . S
C1360 C1362 1.358 . S
C1360 H1401 0.930 . S
C1361 C1359 1.353 . S
C1361 N1363 1.314 . S
C1361 H1402 0.930 . S
C1362 C1360 1.358 . S
C1362 N1363 1.279 . S
C1362 H1403 0.930 . S
N1363 C1361 1.314 . S
N1363 C1362 1.279 . S
C1364 C1366 1.353 . S
C1364 N1367 1.314 . S
C1364 H1370 0.930 . S
C1365 N1367 1.279 . S
C1365 C1368 1.358 . S
C1365 H1371 0.930 . S
C1366 C1364 1.353 . S
C1366 C1369 1.348 . S
C1366 H1404 0.929 . S
N1367 Li1322 1.990 . S
N1367 C1364 1.314 . S
N1367 C1365 1.279 . S
C1368 C1365 1.358 . S
C1368 C1369 1.356 . S
C1368 H1405 0.930 . S
C1369 C1366 1.348 . S
C1369 C1368 1.356 . S
H1370 C1364 0.930 . S
H1371 C1365 0.930 . S
C1372 N1373 1.314 . S
C1372 C1374 1.353 . S
C1372 H1378 0.930 . S
N1373 Li1323 1.990 . S
N1373 C1372 1.314 . S
N1373 C1376 1.279 . S
C1374 C1372 1.353 . S
C1374 C1377 1.348 . S
C1374 H1406 0.929 . S
C1375 C1376 1.358 . S
C1375 C1377 1.356 . S
C1375 H1407 0.930 . S
C1376 N1373 1.279 . S
C1376 C1375 1.358 . S
C1376 H1379 0.930 . S
C1377 C1374 1.348 . S
C1377 C1375 1.356 . S
H1378 C1372 0.930 . S
H1379 C1376 0.930 . S
O1380 Li1320 1.956 . S
O1380 Li1321 1.970 . S
O1380 Li1322 1.961 . S
O1380 C1324 1.325 . S
O1381 Li1320 1.970 . S
O1381 Li1321 1.956 . S
O1381 Li1323 1.961 . S
O1381 C1330 1.325 . S
O1382 Li1320 1.961 . S
O1382 Li1322 1.956 . S
O1382 Li1323 1.970 . S
O1382 C1352 1.325 . S
O1383 Li1321 1.961 . S
O1383 Li1322 1.970 . S
O1383 Li1323 1.956 . S
O1383 C1358 1.325 . S
H1384 C1326 0.929 . S
H1385 C1327 0.930 . S
H1386 C1328 0.930 . S
H1387 C1329 0.930 . S
H1388 C1331 0.930 . S
H1389 C1333 0.929 . S
H1390 C1334 0.930 . S
H1391 C1335 0.930 . S
H1392 C1338 0.930 . S
H1393 C1341 0.929 . S
H1394 C1346 0.929 . S
H1395 C1347 0.930 . S
H1396 C1354 0.929 . S
H1397 C1355 0.930 . S
H1398 C1356 0.930 . S
H1399 C1357 0.930 . S
H1400 C1359 0.929 . S
H1401 C1360 0.930 . S
H1402 C1361 0.930 . S
H1403 C1362 0.930 . S
H1404 C1366 0.929 . S
H1405 C1368 0.930 . S
H1406 C1374 0.929 . S
H1407 C1375 0.930 . S
H1408 C1426 0.951 . S
H1409 C1428 0.951 . S
H1410 C1430 0.950 . S
H1411 C1431 0.950 . S
H1412 C1433 0.950 . S
H1413 C1436 0.950 . S
H1414 C1437 0.950 . S
H1415 C1439 0.950 . S
H1416 C1440 0.950 . S
H1417 C1441 0.951 . S
H1418 C1443 0.951 . S
H1419 C1445 0.950 . S
H1420 C1446 0.950 . S
H1421 C1448 0.950 . S
H1422 C1451 0.950 . S
H1423 C1452 0.950 . S
H1424 C1454 0.950 . S
H1425 C1455 0.950 . S
C1426 H1408 0.951 . S
C1426 C1427 1.360 1_556 S
C1426 C1428 1.388 . S
C1427 C1426 1.360 1_554 S
C1427 C1431 1.390 . S
C1428 H1409 0.951 . S
C1428 C1426 1.388 . S
C1428 C1429 1.387 . S
C1429 C1428 1.387 . S
C1429 C1430 1.392 1_556 S
C1429 C1432 1.498 . S
C1430 H1410 0.950 . S
C1430 C1429 1.392 1_554 S
C1430 C1431 1.374 . S
C1431 H1411 0.950 . S
C1431 C1427 1.390 . S
C1431 C1430 1.374 . S
C1432 C1429 1.498 . S
C1432 C1433 1.359 1_556 S
C1432 C1434 1.403 . S
C1433 H1412 0.950 . S
C1433 C1432 1.359 1_554 S
C1433 C1449 1.377 . S
C1434 C1432 1.403 . S
C1434 C1435 1.524 . S
C1434 C1448 1.377 . S
C1435 C1434 1.524 . S
C1435 C1436 1.397 . S
C1435 C1440 1.363 . S
C1436 H1413 0.950 . S
C1436 C1435 1.397 . S
C1436 C1437 1.334 . S
C1437 H1414 0.950 . S
C1437 C1436 1.334 . S
C1437 C1438 1.287 . S
C1438 C1437 1.287 . S
C1438 C1439 1.524 . S
C1438 H1457 0.913 . S
C1439 H1415 0.950 . S
C1439 C1438 1.524 . S
C1439 C1440 1.415 . S
C1440 H1416 0.950 . S
C1440 C1435 1.363 . S
C1440 C1439 1.415 . S
C1441 H1417 0.951 . S
C1441 C1442 1.366 1_554 S
C1441 C1443 1.388 . S
C1442 C1441 1.366 1_556 S
C1442 C1446 1.385 . S
C1443 H1418 0.951 . S
C1443 C1441 1.388 . S
C1443 C1444 1.366 . S
C1444 C1443 1.366 . S
C1444 C1445 1.414 1_554 S
C1444 C1447 1.499 . S
C1445 H1419 0.950 . S
C1445 C1444 1.414 1_556 S
C1445 C1446 1.374 . S
C1446 H1420 0.950 . S
C1446 C1442 1.385 . S
C1446 C1445 1.374 . S
C1447 C1444 1.499 . S
C1447 C1448 1.352 1_554 S
C1447 C1449 1.410 . S
C1448 H1421 0.950 . S
C1448 C1434 1.377 . S
C1448 C1447 1.352 1_556 S
C1449 C1433 1.377 . S
C1449 C1447 1.410 . S
C1449 C1450 1.524 . S
C1450 C1449 1.524 . S
C1450 C1451 1.397 . S
C1450 C1455 1.363 . S
C1451 H1422 0.950 . S
C1451 C1450 1.397 . S
C1451 C1452 1.334 . S
C1452 H1423 0.950 . S
C1452 C1451 1.334 . S
C1452 C1453 1.287 . S
C1453 C1452 1.287 . S
C1453 C1454 1.524 . S
C1453 H1456 0.999 . S
C1454 H1424 0.950 . S
C1454 C1453 1.524 . S
C1454 C1455 1.415 . S
C1455 H1425 0.950 . S
C1455 C1450 1.363 . S
C1455 C1454 1.415 . S
H1456 C1453 0.999 . S
H1457 C1438 0.913 . S
H1458 C1476 0.951 . S
H1459 C1478 0.951 . S
H1460 C1480 0.950 . S
H1461 C1481 0.950 . S
H1462 C1483 0.950 . S
H1463 C1486 0.950 . S
H1464 C1487 0.950 1_554 S
H1465 C1489 0.950 . S
H1466 C1490 0.950 . S
H1467 C1491 0.951 . S
H1468 C1493 0.951 . S
H1469 C1495 0.950 . S
H1470 C1496 0.950 . S
H1471 C1498 0.950 . S
H1472 C1501 0.950 . S
H1473 C1502 0.950 1_556 S
H1474 C1504 0.950 . S
H1475 C1505 0.950 . S
C1476 H1458 0.951 . S
C1476 C1477 1.360 1_556 S
C1476 C1478 1.388 . S
C1477 C1476 1.360 1_554 S
C1477 C1481 1.391 . S
C1478 H1459 0.951 . S
C1478 C1476 1.388 . S
C1478 C1479 1.341 1_556 S
C1479 C1478 1.341 1_554 S
C1479 C1480 1.438 . S
C1479 C1482 1.500 . S
C1480 H1460 0.950 . S
C1480 C1479 1.438 . S
C1480 C1481 1.374 . S
C1481 H1461 0.950 . S
C1481 C1477 1.391 . S
C1481 C1480 1.374 . S
C1482 C1479 1.500 . S
C1482 C1483 1.373 . S
C1482 C1484 1.389 1_554 S
C1483 H1462 0.950 . S
C1483 C1482 1.373 . S
C1483 C1499 1.377 . S
C1484 C1482 1.389 1_556 S
C1484 C1485 1.524 . S
C1484 C1498 1.377 . S
C1485 C1484 1.524 . S
C1485 C1486 1.397 1_556 S
C1485 C1490 1.363 . S
C1486 H1463 0.950 . S
C1486 C1485 1.397 1_554 S
C1486 C1487 1.334 1_554 S
C1487 H1464 0.950 1_556 S
C1487 C1486 1.334 1_556 S
C1487 C1488 1.287 . S
C1488 C1487 1.287 . S
C1488 C1489 1.524 . S
C1488 H1507 0.913 . S
C1489 H1465 0.950 . S
C1489 C1488 1.524 . S
C1489 C1490 1.415 . S
C1490 H1466 0.950 . S
C1490 C1485 1.363 . S
C1490 C1489 1.415 . S
C1491 H1467 0.951 . S
C1491 C1492 1.367 1_554 S
C1491 C1493 1.388 . S
C1492 C1491 1.367 1_556 S
C1492 C1496 1.383 . S
C1493 H1468 0.951 . S
C1493 C1491 1.388 . S
C1493 C1494 1.348 1_554 S
C1494 C1493 1.348 1_556 S
C1494 C1495 1.431 . S
C1494 C1497 1.499 . S
C1495 H1469 0.950 . S
C1495 C1494 1.431 . S
C1495 C1496 1.374 . S
C1496 H1470 0.950 . S
C1496 C1492 1.383 . S
C1496 C1495 1.374 . S
C1497 C1494 1.499 . S
C1497 C1498 1.373 . S
C1497 C1499 1.389 1_556 S
C1498 H1471 0.950 . S
C1498 C1484 1.377 . S
C1498 C1497 1.373 . S
C1499 C1483 1.377 . S
C1499 C1497 1.389 1_554 S
C1499 C1500 1.524 . S
C1500 C1499 1.524 . S
C1500 C1501 1.397 1_554 S
C1500 C1505 1.363 . S
C1501 H1472 0.950 . S
C1501 C1500 1.397 1_556 S
C1501 C1502 1.334 1_556 S
C1502 H1473 0.950 1_554 S
C1502 C1501 1.334 1_554 S
C1502 C1503 1.287 . S
C1503 C1502 1.287 . S
C1503 C1504 1.524 . S
C1503 H1506 0.999 . S
C1504 H1474 0.950 . S
C1504 C1503 1.524 . S
C1504 C1505 1.415 . S
C1505 H1475 0.950 . S
C1505 C1500 1.363 . S
C1505 C1504 1.415 . S
H1506 C1503 0.999 . S
H1507 C1488 0.913 . S
H1508 C1526 0.951 . S
H1509 C1528 0.951 . S
H1510 C1530 0.950 . S
H1511 C1531 0.950 . S
H1512 C1533 0.950 . S
H1513 C1536 0.950 . S
H1514 C1537 0.950 . S
H1515 C1539 0.950 . S
H1516 C1540 0.950 . S
H1517 C1541 0.951 . S
H1518 C1543 0.951 . S
H1519 C1545 0.950 . S
H1520 C1546 0.950 . S
H1521 C1548 0.950 . S
H1522 C1551 0.950 . S
H1523 C1552 0.950 . S
H1524 C1554 0.950 . S
H1525 C1555 0.950 . S
C1526 H1508 0.951 . S
C1526 C1527 1.362 1_556 S
C1526 C1528 1.388 . S
C1527 C1526 1.362 1_554 S
C1527 C1531 1.389 . S
C1528 H1509 0.951 . S
C1528 C1526 1.388 . S
C1528 C1529 1.366 . S
C1529 C1528 1.366 . S
C1529 C1530 1.414 1_556 S
C1529 C1532 1.499 . S
C1530 H1510 0.950 . S
C1530 C1529 1.414 1_554 S
C1530 C1531 1.374 . S
C1531 H1511 0.950 . S
C1531 C1527 1.389 . S
C1531 C1530 1.374 . S
C1532 C1529 1.499 . S
C1532 C1533 1.345 1_556 S
C1532 C1534 1.417 . S
C1533 H1512 0.950 . S
C1533 C1532 1.345 1_554 S
C1533 C1549 1.377 . S
C1534 C1532 1.417 . S
C1534 C1535 1.524 . S
C1534 C1548 1.377 . S
C1535 C1534 1.524 . S
C1535 C1536 1.397 . S
C1535 C1540 1.363 . S
C1536 H1513 0.950 . S
C1536 C1535 1.397 . S
C1536 C1537 1.334 . S
C1537 H1514 0.950 . S
C1537 C1536 1.334 . S
C1537 C1538 1.287 . S
C1538 C1537 1.287 . S
C1538 C1539 1.524 . S
C1538 H1557 0.913 . S
C1539 H1515 0.950 . S
C1539 C1538 1.524 . S
C1539 C1540 1.415 . S
C1540 H1516 0.950 . S
C1540 C1535 1.363 . S
C1540 C1539 1.415 . S
C1541 H1517 0.951 . S
C1541 C1542 1.366 1_554 S
C1541 C1543 1.388 . S
C1542 C1541 1.366 1_556 S
C1542 C1546 1.385 . S
C1543 H1518 0.951 . S
C1543 C1541 1.388 . S
C1543 C1544 1.366 . S
C1544 C1543 1.366 . S
C1544 C1545 1.414 1_554 S
C1544 C1547 1.499 . S
C1545 H1519 0.950 . S
C1545 C1544 1.414 1_556 S
C1545 C1546 1.374 . S
C1546 H1520 0.950 . S
C1546 C1542 1.385 . S
C1546 C1545 1.374 . S
C1547 C1544 1.499 . S
C1547 C1548 1.373 1_554 S
C1547 C1549 1.389 . S
C1548 H1521 0.950 . S
C1548 C1534 1.377 . S
C1548 C1547 1.373 1_556 S
C1549 C1533 1.377 . S
C1549 C1547 1.389 . S
C1549 C1550 1.524 . S
C1550 C1549 1.524 . S
C1550 C1551 1.397 . S
C1550 C1555 1.363 . S
C1551 H1522 0.950 . S
C1551 C1550 1.397 . S
C1551 C1552 1.334 . S
C1552 H1523 0.950 . S
C1552 C1551 1.334 . S
C1552 C1553 1.287 . S
C1553 C1552 1.287 . S
C1553 C1554 1.524 . S
C1553 H1556 0.999 . S
C1554 H1524 0.950 . S
C1554 C1553 1.524 . S
C1554 C1555 1.415 . S
C1555 H1525 0.950 . S
C1555 C1550 1.363 . S
C1555 C1554 1.415 . S
H1556 C1553 0.999 . S
H1557 C1538 0.913 . S
H1558 C1576 0.951 . S
H1559 C1578 0.951 . S
H1560 C1580 0.950 . S
H1561 C1581 0.950 . S
H1562 C1583 0.950 . S
H1563 C1586 0.950 . S
H1564 C1587 0.950 . S
H1565 C1589 0.950 . S
H1566 C1590 0.950 . S
H1567 C1591 0.951 . S
H1568 C1593 0.951 . S
H1569 C1595 0.950 . S
H1570 C1596 0.950 . S
H1571 C1598 0.950 . S
H1572 C1601 0.950 . S
H1573 C1602 0.950 . S
H1574 C1604 0.950 . S
H1575 C1605 0.950 . S
C1576 H1558 0.951 . S
C1576 C1577 1.371 . S
C1576 C1578 1.388 . S
C1577 C1576 1.371 . S
C1577 C1581 1.379 1_554 S
C1578 H1559 0.951 . S
C1578 C1576 1.388 . S
C1578 C1579 1.375 . S
C1579 C1578 1.375 . S
C1579 C1580 1.404 1_554 S
C1579 C1582 1.498 1_554 S
C1580 H1560 0.950 . S
C1580 C1579 1.404 1_556 S
C1580 C1581 1.374 . S
C1581 H1561 0.950 . S
C1581 C1577 1.379 1_556 S
C1581 C1580 1.374 . S
C1582 C1579 1.498 1_556 S
C1582 C1583 1.387 . S
C1582 C1584 1.376 1_556 S
C1583 H1562 0.950 . S
C1583 C1582 1.387 . S
C1583 C1599 1.377 . S
C1584 C1582 1.376 1_554 S
C1584 C1585 1.524 . S
C1584 C1598 1.377 . S
C1585 C1584 1.524 . S
C1585 C1586 1.397 . S
C1585 C1590 1.363 . S
C1586 H1563 0.950 . S
C1586 C1585 1.397 . S
C1586 C1587 1.334 . S
C1587 H1564 0.950 . S
C1587 C1586 1.334 . S
C1587 C1588 1.287 . S
C1588 C1587 1.287 . S
C1588 C1589 1.524 . S
C1588 H1607 0.913 . S
C1589 H1565 0.950 . S
C1589 C1588 1.524 . S
C1589 C1590 1.415 . S
C1590 H1566 0.950 . S
C1590 C1585 1.363 . S
C1590 C1589 1.415 . S
C1591 H1567 0.951 . S
C1591 C1592 1.364 . S
C1591 C1593 1.388 . S
C1592 C1591 1.364 . S
C1592 C1596 1.387 1_556 S
C1593 H1568 0.951 . S
C1593 C1591 1.388 . S
C1593 C1594 1.368 . S
C1594 C1593 1.368 . S
C1594 C1595 1.412 1_556 S
C1594 C1597 1.498 1_556 S
C1595 H1569 0.950 . S
C1595 C1594 1.412 1_554 S
C1595 C1596 1.374 . S
C1596 H1570 0.950 . S
C1596 C1592 1.387 1_554 S
C1596 C1595 1.374 . S
C1597 C1594 1.498 1_554 S
C1597 C1598 1.393 . S
C1597 C1599 1.370 1_554 S
C1598 H1571 0.950 . S
C1598 C1584 1.377 . S
C1598 C1597 1.393 . S
C1599 C1583 1.377 . S
C1599 C1597 1.370 1_556 S
C1599 C1600 1.524 . S
C1600 C1599 1.524 . S
C1600 C1601 1.397 . S
C1600 C1605 1.363 . S
C1601 H1572 0.950 . S
C1601 C1600 1.397 . S
C1601 C1602 1.334 . S
C1602 H1573 0.950 . S
C1602 C1601 1.334 . S
C1602 C1603 1.287 . S
C1603 C1602 1.287 . S
C1603 C1604 1.524 . S
C1603 H1606 0.999 . S
C1604 H1574 0.950 . S
C1604 C1603 1.524 . S
C1604 C1605 1.415 . S
C1605 H1575 0.950 . S
C1605 C1600 1.363 . S
C1605 C1604 1.415 . S
H1606 C1603 0.999 . S
H1607 C1588 0.913 . S
H1608 C1626 0.951 . S
H1609 C1628 0.951 . S
H1610 C1630 0.950 . S
H1611 C1631 0.950 . S
H1612 C1633 0.950 . S
H1613 C1636 0.950 . S
H1614 C1637 0.950 . S
H1615 C1639 0.950 . S
H1616 C1640 0.950 . S
H1617 C1641 0.951 . S
H1618 C1643 0.951 . S
H1619 C1645 0.950 . S
H1620 C1646 0.950 . S
H1621 C1648 0.950 . S
H1622 C1651 0.950 . S
H1623 C1652 0.950 . S
H1624 C1654 0.950 . S
H1625 C1655 0.950 . S
C1626 H1608 0.951 . S
C1626 C1627 1.366 . S
C1626 C1628 1.388 . S
C1627 C1626 1.366 . S
C1627 C1631 1.385 . S
C1628 H1609 0.951 . S
C1628 C1626 1.388 . S
C1628 C1629 1.366 . S
C1629 C1628 1.366 . S
C1629 C1630 1.414 . S
C1629 C1632 1.499 . S
C1630 H1610 0.950 . S
C1630 C1629 1.414 . S
C1630 C1631 1.374 . S
C1631 H1611 0.950 . S
C1631 C1627 1.385 . S
C1631 C1630 1.374 . S
C1632 C1629 1.499 . S
C1632 C1633 1.373 . S
C1632 C1634 1.389 . S
C1633 H1612 0.950 . S
C1633 C1632 1.373 . S
C1633 C1649 1.377 1_545 S
C1634 C1632 1.389 . S
C1634 C1635 1.524 . S
C1634 C1648 1.377 1_545 S
C1635 C1634 1.524 . S
C1635 C1636 1.397 . S
C1635 C1640 1.363 . S
C1636 H1613 0.950 . S
C1636 C1635 1.397 . S
C1636 C1637 1.334 . S
C1637 H1614 0.950 . S
C1637 C1636 1.334 . S
C1637 C1638 1.287 . S
C1638 C1637 1.287 . S
C1638 C1639 1.524 . S
C1638 H1657 0.913 . S
C1639 H1615 0.950 . S
C1639 C1638 1.524 . S
C1639 C1640 1.415 . S
C1640 H1616 0.950 . S
C1640 C1635 1.363 . S
C1640 C1639 1.415 . S
C1641 H1617 0.951 . S
C1641 C1642 1.366 . S
C1641 C1643 1.388 . S
C1642 C1641 1.366 . S
C1642 C1646 1.385 . S
C1643 H1618 0.951 . S
C1643 C1641 1.388 . S
C1643 C1644 1.366 . S
C1644 C1643 1.366 . S
C1644 C1645 1.414 . S
C1644 C1647 1.499 . S
C1645 H1619 0.950 . S
C1645 C1644 1.414 . S
C1645 C1646 1.374 . S
C1646 H1620 0.950 . S
C1646 C1642 1.385 . S
C1646 C1645 1.374 . S
C1647 C1644 1.499 . S
C1647 C1648 1.373 . S
C1647 C1649 1.389 . S
C1648 H1621 0.950 . S
C1648 C1634 1.377 1_565 S
C1648 C1647 1.373 . S
C1649 C1633 1.377 1_565 S
C1649 C1647 1.389 . S
C1649 C1650 1.524 . S
C1650 C1649 1.524 . S
C1650 C1651 1.397 . S
C1650 C1655 1.363 . S
C1651 H1622 0.950 . S
C1651 C1650 1.397 . S
C1651 C1652 1.334 . S
C1652 H1623 0.950 . S
C1652 C1651 1.334 . S
C1652 C1653 1.287 . S
C1653 C1652 1.287 . S
C1653 C1654 1.524 . S
C1653 H1656 0.999 . S
C1654 H1624 0.950 . S
C1654 C1653 1.524 . S
C1654 C1655 1.415 . S
C1655 H1625 0.950 . S
C1655 C1650 1.363 . S
C1655 C1654 1.415 . S
H1656 C1653 0.999 . S
H1657 C1638 0.913 . S
H1658 C1676 0.951 . S
H1659 C1678 0.951 . S
H1660 C1680 0.950 . S
H1661 C1681 0.950 . S
H1662 C1683 0.950 . S
H1663 C1686 0.950 . S
H1664 C1687 0.950 . S
H1665 C1689 0.950 . S
H1666 C1690 0.950 . S
H1667 C1691 0.951 . S
H1668 C1693 0.951 . S
H1669 C1695 0.950 . S
H1670 C1696 0.950 . S
H1671 C1698 0.950 . S
H1672 C1701 0.950 . S
H1673 C1702 0.950 . S
H1674 C1704 0.950 . S
H1675 C1705 0.950 . S
C1676 H1658 0.951 . S
C1676 C1677 1.366 . S
C1676 C1678 1.388 . S
C1677 C1676 1.366 . S
C1677 C1681 1.385 . S
C1678 H1659 0.951 . S
C1678 C1676 1.388 . S
C1678 C1679 1.366 . S
C1679 C1678 1.366 . S
C1679 C1680 1.414 . S
C1679 C1682 1.499 . S
C1680 H1660 0.950 . S
C1680 C1679 1.414 . S
C1680 C1681 1.374 . S
C1681 H1661 0.950 . S
C1681 C1677 1.385 . S
C1681 C1680 1.374 . S
C1682 C1679 1.499 . S
C1682 C1683 1.373 . S
C1682 C1684 1.389 . S
C1683 H1662 0.950 . S
C1683 C1682 1.373 . S
C1683 C1699 1.377 1_655 S
C1684 C1682 1.389 . S
C1684 C1685 1.524 . S
C1684 C1698 1.377 1_655 S
C1685 C1684 1.524 . S
C1685 C1686 1.397 . S
C1685 C1690 1.363 . S
C1686 H1663 0.950 . S
C1686 C1685 1.397 . S
C1686 C1687 1.334 . S
C1687 H1664 0.950 . S
C1687 C1686 1.334 . S
C1687 C1688 1.287 . S
C1688 C1687 1.287 . S
C1688 C1689 1.524 . S
C1688 H1707 0.913 . S
C1689 H1665 0.950 . S
C1689 C1688 1.524 . S
C1689 C1690 1.415 . S
C1690 H1666 0.950 . S
C1690 C1685 1.363 . S
C1690 C1689 1.415 . S
C1691 H1667 0.951 . S
C1691 C1692 1.366 . S
C1691 C1693 1.388 . S
C1692 C1691 1.366 . S
C1692 C1696 1.385 . S
C1693 H1668 0.951 . S
C1693 C1691 1.388 . S
C1693 C1694 1.366 . S
C1694 C1693 1.366 . S
C1694 C1695 1.414 . S
C1694 C1697 1.499 . S
C1695 H1669 0.950 . S
C1695 C1694 1.414 . S
C1695 C1696 1.374 . S
C1696 H1670 0.950 . S
C1696 C1692 1.385 . S
C1696 C1695 1.374 . S
C1697 C1694 1.499 . S
C1697 C1698 1.373 . S
C1697 C1699 1.389 . S
C1698 H1671 0.950 . S
C1698 C1684 1.377 1_455 S
C1698 C1697 1.373 . S
C1699 C1683 1.377 1_455 S
C1699 C1697 1.389 . S
C1699 C1700 1.524 . S
C1700 C1699 1.524 . S
C1700 C1701 1.397 . S
C1700 C1705 1.363 . S
C1701 H1672 0.950 . S
C1701 C1700 1.397 . S
C1701 C1702 1.334 . S
C1702 H1673 0.950 . S
C1702 C1701 1.334 . S
C1702 C1703 1.287 . S
C1703 C1702 1.287 . S
C1703 C1704 1.524 . S
C1703 H1706 0.999 . S
C1704 H1674 0.950 . S
C1704 C1703 1.524 . S
C1704 C1705 1.415 . S
C1705 H1675 0.950 . S
C1705 C1700 1.363 . S
C1705 C1704 1.415 . S
H1706 C1703 0.999 . S
H1707 C1688 0.913 . S
H1708 C1726 0.951 . S
H1709 C1728 0.951 . S
H1710 C1730 0.950 . S
H1711 C1731 0.950 . S
H1712 C1733 0.950 . S
H1713 C1736 0.950 . S
H1714 C1737 0.950 . S
H1715 C1739 0.950 . S
H1716 C1740 0.950 . S
H1717 C1741 0.951 . S
H1718 C1743 0.951 . S
H1719 C1745 0.950 . S
H1720 C1746 0.950 . S
H1721 C1748 0.950 . S
H1722 C1751 0.950 . S
H1723 C1752 0.950 . S
H1724 C1754 0.950 . S
H1725 C1755 0.950 . S
C1726 H1708 0.951 . S
C1726 C1727 1.366 . S
C1726 C1728 1.388 . S
C1727 C1726 1.366 . S
C1727 C1731 1.385 . S
C1728 H1709 0.951 . S
C1728 C1726 1.388 . S
C1728 C1729 1.366 . S
C1729 C1728 1.366 . S
C1729 C1730 1.414 . S
C1729 C1732 1.499 . S
C1730 H1710 0.950 . S
C1730 C1729 1.414 . S
C1730 C1731 1.374 . S
C1731 H1711 0.950 . S
C1731 C1727 1.385 . S
C1731 C1730 1.374 . S
C1732 C1729 1.499 . S
C1732 C1733 1.373 . S
C1732 C1734 1.389 . S
C1733 H1712 0.950 . S
C1733 C1732 1.373 . S
C1733 C1749 1.377 1_545 S
C1734 C1732 1.389 . S
C1734 C1735 1.524 . S
C1734 C1748 1.377 1_545 S
C1735 C1734 1.524 . S
C1735 C1736 1.397 . S
C1735 C1740 1.363 . S
C1736 H1713 0.950 . S
C1736 C1735 1.397 . S
C1736 C1737 1.334 . S
C1737 H1714 0.950 . S
C1737 C1736 1.334 . S
C1737 C1738 1.287 . S
C1738 C1737 1.287 . S
C1738 C1739 1.524 . S
C1738 H1757 0.913 . S
C1739 H1715 0.950 . S
C1739 C1738 1.524 . S
C1739 C1740 1.415 . S
C1740 H1716 0.950 . S
C1740 C1735 1.363 . S
C1740 C1739 1.415 . S
C1741 H1717 0.951 . S
C1741 C1742 1.366 . S
C1741 C1743 1.388 . S
C1742 C1741 1.366 . S
C1742 C1746 1.385 . S
C1743 H1718 0.951 . S
C1743 C1741 1.388 . S
C1743 C1744 1.366 . S
C1744 C1743 1.366 . S
C1744 C1745 1.414 . S
C1744 C1747 1.499 . S
C1745 H1719 0.950 . S
C1745 C1744 1.414 . S
C1745 C1746 1.374 . S
C1746 H1720 0.950 . S
C1746 C1742 1.385 . S
C1746 C1745 1.374 . S
C1747 C1744 1.499 . S
C1747 C1748 1.373 . S
C1747 C1749 1.389 . S
C1748 H1721 0.950 . S
C1748 C1734 1.377 1_565 S
C1748 C1747 1.373 . S
C1749 C1733 1.377 1_565 S
C1749 C1747 1.389 . S
C1749 C1750 1.524 . S
C1750 C1749 1.524 . S
C1750 C1751 1.397 . S
C1750 C1755 1.363 . S
C1751 H1722 0.950 . S
C1751 C1750 1.397 . S
C1751 C1752 1.334 . S
C1752 H1723 0.950 . S
C1752 C1751 1.334 . S
C1752 C1753 1.287 . S
C1753 C1752 1.287 . S
C1753 C1754 1.524 . S
C1753 H1756 0.999 . S
C1754 H1724 0.950 . S
C1754 C1753 1.524 . S
C1754 C1755 1.415 . S
C1755 H1725 0.950 . S
C1755 C1750 1.363 . S
C1755 C1754 1.415 . S
H1756 C1753 0.999 . S
H1757 C1738 0.913 . S
H1758 C1776 0.951 . S
H1759 C1778 0.951 . S
H1760 C1780 0.950 . S
H1761 C1781 0.950 . S
H1762 C1783 0.950 . S
H1763 C1786 0.950 . S
H1764 C1787 0.950 . S
H1765 C1789 0.950 . S
H1766 C1790 0.950 . S
H1767 C1791 0.951 . S
H1768 C1793 0.951 . S
H1769 C1795 0.950 . S
H1770 C1796 0.950 . S
H1771 C1798 0.950 . S
H1772 C1801 0.950 . S
H1773 C1802 0.950 . S
H1774 C1804 0.950 . S
H1775 C1805 0.950 . S
C1776 H1758 0.951 . S
C1776 C1777 1.366 . S
C1776 C1778 1.388 . S
C1777 C1776 1.366 . S
C1777 C1781 1.385 . S
C1778 H1759 0.951 . S
C1778 C1776 1.388 . S
C1778 C1779 1.366 . S
C1779 C1778 1.366 . S
C1779 C1780 1.414 . S
C1779 C1782 1.499 . S
C1780 H1760 0.950 . S
C1780 C1779 1.414 . S
C1780 C1781 1.374 . S
C1781 H1761 0.950 . S
C1781 C1777 1.385 . S
C1781 C1780 1.374 . S
C1782 C1779 1.499 . S
C1782 C1783 1.373 . S
C1782 C1784 1.389 . S
C1783 H1762 0.950 . S
C1783 C1782 1.373 . S
C1783 C1799 1.377 1_455 S
C1784 C1782 1.389 . S
C1784 C1785 1.524 . S
C1784 C1798 1.377 1_455 S
C1785 C1784 1.524 . S
C1785 C1786 1.397 . S
C1785 C1790 1.363 . S
C1786 H1763 0.950 . S
C1786 C1785 1.397 . S
C1786 C1787 1.334 . S
C1787 H1764 0.950 . S
C1787 C1786 1.334 . S
C1787 C1788 1.287 . S
C1788 C1787 1.287 . S
C1788 C1789 1.524 . S
C1788 H1807 0.913 . S
C1789 H1765 0.950 . S
C1789 C1788 1.524 . S
C1789 C1790 1.415 . S
C1790 H1766 0.950 . S
C1790 C1785 1.363 . S
C1790 C1789 1.415 . S
C1791 H1767 0.951 . S
C1791 C1792 1.366 . S
C1791 C1793 1.388 . S
C1792 C1791 1.366 . S
C1792 C1796 1.385 . S
C1793 H1768 0.951 . S
C1793 C1791 1.388 . S
C1793 C1794 1.366 . S
C1794 C1793 1.366 . S
C1794 C1795 1.414 . S
C1794 C1797 1.499 . S
C1795 H1769 0.950 . S
C1795 C1794 1.414 . S
C1795 C1796 1.374 . S
C1796 H1770 0.950 . S
C1796 C1792 1.385 . S
C1796 C1795 1.374 . S
C1797 C1794 1.499 . S
C1797 C1798 1.373 . S
C1797 C1799 1.389 . S
C1798 H1771 0.950 . S
C1798 C1784 1.377 1_655 S
C1798 C1797 1.373 . S
C1799 C1783 1.377 1_655 S
C1799 C1797 1.389 . S
C1799 C1800 1.524 . S
C1800 C1799 1.524 . S
C1800 C1801 1.397 . S
C1800 C1805 1.363 . S
C1801 H1772 0.950 . S
C1801 C1800 1.397 . S
C1801 C1802 1.334 . S
C1802 H1773 0.950 . S
C1802 C1801 1.334 . S
C1802 C1803 1.287 . S
C1803 C1802 1.287 . S
C1803 C1804 1.524 . S
C1803 H1806 0.999 . S
C1804 H1774 0.950 . S
C1804 C1803 1.524 . S
C1804 C1805 1.415 . S
C1805 H1775 0.950 . S
C1805 C1800 1.363 . S
C1805 C1804 1.415 . S
H1806 C1803 0.999 . S
H1807 C1788 0.913 . S
H1808 C1826 0.951 . S
H1809 C1828 0.951 . S
H1810 C1830 0.950 . S
H1811 C1831 0.950 . S
H1812 C1833 0.950 . S
H1813 C1836 0.950 . S
H1814 C1837 0.950 . S
H1815 C1839 0.950 . S
H1816 C1840 0.950 1_554 S
H1817 C1841 0.951 . S
H1818 C1843 0.951 . S
H1819 C1845 0.950 . S
H1820 C1846 0.950 . S
H1821 C1848 0.950 . S
H1822 C1851 0.950 . S
H1823 C1852 0.950 . S
H1824 C1854 0.950 . S
H1825 C1855 0.950 1_556 S
C1826 H1808 0.951 . S
C1826 C1827 1.369 . S
C1826 C1828 1.388 . S
C1827 C1826 1.369 . S
C1827 C1831 1.381 1_554 S
C1828 H1809 0.951 . S
C1828 C1826 1.388 . S
C1828 C1829 1.366 1_554 S
C1829 C1828 1.366 1_556 S
C1829 C1830 1.414 . S
C1829 C1832 1.499 . S
C1830 H1810 0.950 . S
C1830 C1829 1.414 . S
C1830 C1831 1.374 . S
C1831 H1811 0.950 . S
C1831 C1827 1.381 1_556 S
C1831 C1830 1.374 . S
C1832 C1829 1.499 . S
C1832 C1833 1.373 1_556 S
C1832 C1834 1.389 . S
C1833 H1812 0.950 . S
C1833 C1832 1.373 1_554 S
C1833 C1849 1.377 . S
C1834 C1832 1.389 . S
C1834 C1835 1.524 . S
C1834 C1848 1.377 . S
C1835 C1834 1.524 . S
C1835 C1836 1.397 . S
C1835 C1840 1.363 . S
C1836 H1813 0.950 . S
C1836 C1835 1.397 . S
C1836 C1837 1.334 . S
C1837 H1814 0.950 . S
C1837 C1836 1.334 . S
C1837 C1838 1.287 . S
C1838 C1837 1.287 . S
C1838 C1839 1.524 . S
C1838 H1857 0.913 . S
C1839 H1815 0.950 . S
C1839 C1838 1.524 . S
C1839 C1840 1.415 . S
C1840 H1816 0.950 1_556 S
C1840 C1835 1.363 . S
C1840 C1839 1.415 . S
C1841 H1817 0.951 . S
C1841 C1842 1.366 . S
C1841 C1843 1.388 . S
C1842 C1841 1.366 . S
C1842 C1846 1.385 1_556 S
C1843 H1818 0.951 . S
C1843 C1841 1.388 . S
C1843 C1844 1.366 1_556 S
C1844 C1843 1.366 1_554 S
C1844 C1845 1.414 . S
C1844 C1847 1.499 . S
C1845 H1819 0.950 . S
C1845 C1844 1.414 . S
C1845 C1846 1.374 . S
C1846 H1820 0.950 . S
C1846 C1842 1.385 1_554 S
C1846 C1845 1.374 . S
C1847 C1844 1.499 . S
C1847 C1848 1.373 1_554 S
C1847 C1849 1.389 . S
C1848 H1821 0.950 . S
C1848 C1834 1.377 . S
C1848 C1847 1.373 1_556 S
C1849 C1833 1.377 . S
C1849 C1847 1.389 . S
C1849 C1850 1.524 . S
C1850 C1849 1.524 . S
C1850 C1851 1.397 . S
C1850 C1855 1.363 . S
C1851 H1822 0.950 . S
C1851 C1850 1.397 . S
C1851 C1852 1.334 . S
C1852 H1823 0.950 . S
C1852 C1851 1.334 . S
C1852 C1853 1.287 . S
C1853 C1852 1.287 . S
C1853 C1854 1.524 . S
C1853 H1856 0.999 . S
C1854 H1824 0.950 . S
C1854 C1853 1.524 . S
C1854 C1855 1.415 . S
C1855 H1825 0.950 1_554 S
C1855 C1850 1.363 . S
C1855 C1854 1.415 . S
H1856 C1853 0.999 . S
H1857 C1838 0.913 . S
H1858 C1876 0.951 . S
H1859 C1878 0.951 . S
H1860 C1880 0.950 . S
H1861 C1881 0.950 . S
H1862 C1883 0.950 . S
H1863 C1886 0.950 1_556 S
H1864 C1887 0.950 . S
H1865 C1889 0.950 . S
H1866 C1890 0.950 . S
H1867 C1891 0.951 . S
H1868 C1893 0.951 . S
H1869 C1895 0.950 . S
H1870 C1896 0.950 . S
H1871 C1898 0.950 . S
H1872 C1901 0.950 1_554 S
H1873 C1902 0.950 . S
H1874 C1904 0.950 . S
H1875 C1905 0.950 . S
C1876 H1858 0.951 . S
C1876 C1877 1.367 1_554 S
C1876 C1878 1.388 . S
C1877 C1876 1.367 1_556 S
C1877 C1881 1.383 . S
C1878 H1859 0.951 . S
C1878 C1876 1.388 . S
C1878 C1879 1.365 1_554 S
C1879 C1878 1.365 1_556 S
C1879 C1880 1.415 . S
C1879 C1882 1.499 . S
C1880 H1860 0.950 . S
C1880 C1879 1.415 . S
C1880 C1881 1.374 . S
C1881 H1861 0.950 . S
C1881 C1877 1.383 . S
C1881 C1880 1.374 . S
C1882 C1879 1.499 . S
C1882 C1883 1.373 . S
C1882 C1884 1.389 1_556 S
C1883 H1862 0.950 . S
C1883 C1882 1.373 . S
C1883 C1899 1.377 . S
C1884 C1882 1.389 1_554 S
C1884 C1885 1.524 . S
C1884 C1898 1.377 . S
C1885 C1884 1.524 . S
C1885 C1886 1.397 . S
C1885 C1890 1.363 . S
C1886 H1863 0.950 1_554 S
C1886 C1885 1.397 . S
C1886 C1887 1.334 . S
C1887 H1864 0.950 . S
C1887 C1886 1.334 . S
C1887 C1888 1.287 . S
C1888 C1887 1.287 . S
C1888 C1889 1.524 . S
C1888 H1907 0.913 . S
C1889 H1865 0.950 . S
C1889 C1888 1.524 . S
C1889 C1890 1.415 . S
C1890 H1866 0.950 . S
C1890 C1885 1.363 . S
C1890 C1889 1.415 . S
C1891 H1867 0.951 . S
C1891 C1892 1.359 1_556 S
C1891 C1893 1.388 . S
C1892 C1891 1.359 1_554 S
C1892 C1896 1.391 . S
C1893 H1868 0.951 . S
C1893 C1891 1.388 . S
C1893 C1894 1.357 1_556 S
C1894 C1893 1.357 1_554 S
C1894 C1895 1.423 . S
C1894 C1897 1.499 . S
C1895 H1869 0.950 . S
C1895 C1894 1.423 . S
C1895 C1896 1.374 . S
C1896 H1870 0.950 . S
C1896 C1892 1.391 . S
C1896 C1895 1.374 . S
C1897 C1894 1.499 . S
C1897 C1898 1.373 . S
C1897 C1899 1.389 1_554 S
C1898 H1871 0.950 . S
C1898 C1884 1.377 . S
C1898 C1897 1.373 . S
C1899 C1883 1.377 . S
C1899 C1897 1.389 1_556 S
C1899 C1900 1.524 . S
C1900 C1899 1.524 . S
C1900 C1901 1.397 . S
C1900 C1905 1.363 . S
C1901 H1872 0.950 1_556 S
C1901 C1900 1.397 . S
C1901 C1902 1.334 . S
C1902 H1873 0.950 . S
C1902 C1901 1.334 . S
C1902 C1903 1.287 . S
C1903 C1902 1.287 . S
C1903 C1904 1.524 . S
C1903 H1906 0.999 . S
C1904 H1874 0.950 . S
C1904 C1903 1.524 . S
C1904 C1905 1.415 . S
C1905 H1875 0.950 . S
C1905 C1900 1.363 . S
C1905 C1904 1.415 . S
H1906 C1903 0.999 . S
H1907 C1888 0.913 . S
H1908 C1926 0.951 . S
H1909 C1928 0.951 . S
H1910 C1930 0.950 . S
H1911 C1931 0.950 . S
H1912 C1933 0.952 . S
H1913 C1936 0.950 . S
H1914 C1937 0.950 . S
H1915 C1939 0.950 . S
H1916 C1940 0.950 . S
H1917 C1941 0.951 . S
H1918 C1943 0.951 . S
H1919 C1945 0.950 . S
H1920 C1946 0.950 . S
H1921 C1948 0.951 . S
H1922 C1951 0.950 . S
H1923 C1952 0.950 . S
H1924 C1954 0.950 . S
H1925 C1955 0.950 . S
C1926 H1908 0.951 . S
C1926 C1927 1.362 1_556 S
C1926 C1928 1.388 . S
C1927 C1926 1.362 1_554 S
C1927 C1931 1.389 . S
C1928 H1909 0.951 . S
C1928 C1926 1.388 . S
C1928 C1929 1.366 1_556 S
C1929 C1928 1.366 1_554 S
C1929 C1930 1.414 . S
C1929 C1932 1.499 . S
C1930 H1910 0.950 . S
C1930 C1929 1.414 . S
C1930 C1931 1.374 . S
C1931 H1911 0.950 . S
C1931 C1927 1.389 . S
C1931 C1930 1.374 . S
C1932 C1929 1.499 . S
C1932 C1933 1.375 . S
C1932 C1934 1.389 . S
C1933 H1912 0.952 . S
C1933 C1932 1.375 . S
C1933 C1949 1.375 1_554 S
C1934 C1932 1.389 . S
C1934 C1935 1.524 . S
C1934 C1948 1.375 1_554 S
C1935 C1934 1.524 . S
C1935 C1936 1.397 . S
C1935 C1940 1.363 1_554 S
C1936 H1913 0.950 . S
C1936 C1935 1.397 . S
C1936 C1937 1.334 . S
C1937 H1914 0.950 . S
C1937 C1936 1.334 . S
C1937 C1938 1.287 . S
C1938 C1937 1.287 . S
C1938 C1939 1.524 1_554 S
C1938 H1957 0.913 . S
C1939 H1915 0.950 . S
C1939 C1938 1.524 1_556 S
C1939 C1940 1.415 . S
C1940 H1916 0.950 . S
C1940 C1935 1.363 1_556 S
C1940 C1939 1.415 . S
C1941 H1917 0.951 . S
C1941 C1942 1.368 1_554 S
C1941 C1943 1.388 . S
C1942 C1941 1.368 1_556 S
C1942 C1946 1.383 . S
C1943 H1918 0.951 . S
C1943 C1941 1.388 . S
C1943 C1944 1.366 1_554 S
C1944 C1943 1.366 1_556 S
C1944 C1945 1.414 . S
C1944 C1947 1.499 . S
C1945 H1919 0.950 . S
C1945 C1944 1.414 . S
C1945 C1946 1.374 . S
C1946 H1920 0.950 . S
C1946 C1942 1.383 . S
C1946 C1945 1.374 . S
C1947 C1944 1.499 . S
C1947 C1948 1.374 . S
C1947 C1949 1.389 . S
C1948 H1921 0.951 . S
C1948 C1934 1.375 1_556 S
C1948 C1947 1.374 . S
C1949 C1933 1.375 1_556 S
C1949 C1947 1.389 . S
C1949 C1950 1.524 . S
C1950 C1949 1.524 . S
C1950 C1951 1.397 . S
C1950 C1955 1.363 1_556 S
C1951 H1922 0.950 . S
C1951 C1950 1.397 . S
C1951 C1952 1.334 . S
C1952 H1923 0.950 . S
C1952 C1951 1.334 . S
C1952 C1953 1.287 . S
C1953 C1952 1.287 . S
C1953 C1954 1.524 1_556 S
C1953 H1956 0.999 . S
C1954 H1924 0.950 . S
C1954 C1953 1.524 1_554 S
C1954 C1955 1.415 . S
C1955 H1925 0.950 . S
C1955 C1950 1.363 1_554 S
C1955 C1954 1.415 . S
H1956 C1953 0.999 . S
H1957 C1938 0.913 . S
H1958 C1976 0.951 . S
H1959 C1978 0.951 . S
H1960 C1980 0.950 . S
H1961 C1981 0.950 . S
H1962 C1983 0.950 . S
H1963 C1986 0.950 . S
H1964 C1987 0.950 . S
H1965 C1989 0.950 . S
H1966 C1990 0.950 . S
H1967 C1991 0.951 . S
H1968 C1993 0.951 . S
H1969 C1995 0.950 . S
H1970 C1996 0.950 . S
H1971 C1998 0.950 . S
H1972 C2001 0.950 . S
H1973 C2002 0.950 . S
H1974 C2004 0.950 . S
H1975 C2005 0.950 . S
C1976 H1958 0.951 . S
C1976 C1977 1.363 . S
C1976 C1978 1.388 . S
C1977 C1976 1.363 . S
C1977 C1981 1.387 1_556 S
C1978 H1959 0.951 . S
C1978 C1976 1.388 . S
C1978 C1979 1.373 . S
C1979 C1978 1.373 . S
C1979 C1980 1.407 1_556 S
C1979 C1982 1.498 1_556 S
C1980 H1960 0.950 . S
C1980 C1979 1.407 1_554 S
C1980 C1981 1.374 . S
C1981 H1961 0.950 . S
C1981 C1977 1.387 1_554 S
C1981 C1980 1.374 . S
C1982 C1979 1.498 1_554 S
C1982 C1983 1.389 . S
C1982 C1984 1.374 1_554 S
C1983 H1962 0.950 . S
C1983 C1982 1.389 . S
C1983 C1999 1.377 . S
C1984 C1982 1.374 1_556 S
C1984 C1985 1.524 . S
C1984 C1998 1.377 . S
C1985 C1984 1.524 . S
C1985 C1986 1.397 . S
C1985 C1990 1.363 . S
C1986 H1963 0.950 . S
C1986 C1985 1.397 . S
C1986 C1987 1.334 . S
C1987 H1964 0.950 . S
C1987 C1986 1.334 . S
C1987 C1988 1.287 . S
C1988 C1987 1.287 . S
C1988 C1989 1.524 . S
C1988 H2007 0.913 . S
C1989 H1965 0.950 . S
C1989 C1988 1.524 . S
C1989 C1990 1.415 . S
C1990 H1966 0.950 . S
C1990 C1985 1.363 . S
C1990 C1989 1.415 . S
C1991 H1967 0.951 . S
C1991 C1992 1.371 . S
C1991 C1993 1.388 . S
C1992 C1991 1.371 . S
C1992 C1996 1.380 1_554 S
C1993 H1968 0.951 . S
C1993 C1991 1.388 . S
C1993 C1994 1.380 . S
C1994 C1993 1.380 . S
C1994 C1995 1.399 1_554 S
C1994 C1997 1.498 1_554 S
C1995 H1969 0.950 . S
C1995 C1994 1.399 1_556 S
C1995 C1996 1.374 . S
C1996 H1970 0.950 . S
C1996 C1992 1.380 1_556 S
C1996 C1995 1.374 . S
C1997 C1994 1.498 1_556 S
C1997 C1998 1.383 . S
C1997 C1999 1.380 1_556 S
C1998 H1971 0.950 . S
C1998 C1984 1.377 . S
C1998 C1997 1.383 . S
C1999 C1983 1.377 . S
C1999 C1997 1.380 1_554 S
C1999 C2000 1.524 . S
C2000 C1999 1.524 . S
C2000 C2001 1.397 . S
C2000 C2005 1.363 . S
C2001 H1972 0.950 . S
C2001 C2000 1.397 . S
C2001 C2002 1.334 . S
C2002 H1973 0.950 . S
C2002 C2001 1.334 . S
C2002 C2003 1.287 . S
C2003 C2002 1.287 . S
C2003 C2004 1.524 . S
C2003 H2006 0.999 . S
C2004 H1974 0.950 . S
C2004 C2003 1.524 . S
C2004 C2005 1.415 . S
C2005 H1975 0.950 . S
C2005 C2000 1.363 . S
C2005 C2004 1.415 . S
H2006 C2003 0.999 . S
H2007 C1988 0.913 . S
H2008 C2026 0.951 . S
H2009 C2028 0.951 . S
H2010 C2030 0.950 . S
H2011 C2031 0.950 . S
H2012 C2033 0.950 . S
H2013 C2036 0.950 . S
H2014 C2037 0.950 . S
H2015 C2039 0.950 . S
H2016 C2040 0.950 . S
H2017 C2041 0.951 . S
H2018 C2043 0.951 . S
H2019 C2045 0.950 . S
H2020 C2046 0.950 . S
H2021 C2048 0.950 . S
H2022 C2051 0.950 . S
H2023 C2052 0.950 . S
H2024 C2054 0.950 . S
H2025 C2055 0.950 . S
C2026 H2008 0.951 . S
C2026 C2027 1.366 . S
C2026 C2028 1.388 . S
C2027 C2026 1.366 . S
C2027 C2031 1.385 . S
C2028 H2009 0.951 . S
C2028 C2026 1.388 . S
C2028 C2029 1.366 . S
C2029 C2028 1.366 . S
C2029 C2030 1.414 . S
C2029 C2032 1.499 . S
C2030 H2010 0.950 . S
C2030 C2029 1.414 . S
C2030 C2031 1.374 . S
C2031 H2011 0.950 . S
C2031 C2027 1.385 . S
C2031 C2030 1.374 . S
C2032 C2029 1.499 . S
C2032 C2033 1.373 . S
C2032 C2034 1.389 . S
C2033 H2012 0.950 . S
C2033 C2032 1.373 . S
C2033 C2049 1.377 . S
C2034 C2032 1.389 . S
C2034 C2035 1.524 . S
C2034 C2048 1.377 . S
C2035 C2034 1.524 . S
C2035 C2036 1.397 . S
C2035 C2040 1.363 . S
C2036 H2013 0.950 . S
C2036 C2035 1.397 . S
C2036 C2037 1.334 . S
C2037 H2014 0.950 . S
C2037 C2036 1.334 . S
C2037 C2038 1.287 . S
C2038 C2037 1.287 . S
C2038 C2039 1.524 . S
C2038 H2057 0.913 . S
C2039 H2015 0.950 . S
C2039 C2038 1.524 . S
C2039 C2040 1.415 . S
C2040 H2016 0.950 . S
C2040 C2035 1.363 . S
C2040 C2039 1.415 . S
C2041 H2017 0.951 . S
C2041 C2042 1.366 . S
C2041 C2043 1.388 . S
C2042 C2041 1.366 . S
C2042 C2046 1.385 . S
C2043 H2018 0.951 . S
C2043 C2041 1.388 . S
C2043 C2044 1.366 . S
C2044 C2043 1.366 . S
C2044 C2045 1.414 . S
C2044 C2047 1.499 . S
C2045 H2019 0.950 . S
C2045 C2044 1.414 . S
C2045 C2046 1.374 . S
C2046 H2020 0.950 . S
C2046 C2042 1.385 . S
C2046 C2045 1.374 . S
C2047 C2044 1.499 . S
C2047 C2048 1.373 . S
C2047 C2049 1.389 . S
C2048 H2021 0.950 . S
C2048 C2034 1.377 . S
C2048 C2047 1.373 . S
C2049 C2033 1.377 . S
C2049 C2047 1.389 . S
C2049 C2050 1.524 . S
C2050 C2049 1.524 . S
C2050 C2051 1.397 . S
C2050 C2055 1.363 . S
C2051 H2022 0.950 . S
C2051 C2050 1.397 . S
C2051 C2052 1.334 . S
C2052 H2023 0.950 . S
C2052 C2051 1.334 . S
C2052 C2053 1.287 . S
C2053 C2052 1.287 . S
C2053 C2054 1.524 . S
C2053 H2056 0.999 . S
C2054 H2024 0.950 . S
C2054 C2053 1.524 . S
C2054 C2055 1.415 . S
C2055 H2025 0.950 . S
C2055 C2050 1.363 . S
C2055 C2054 1.415 . S
H2056 C2053 0.999 . S
H2057 C2038 0.913 . S
H2058 C2076 0.951 . S
H2059 C2078 0.951 . S
H2060 C2080 0.950 . S
H2061 C2081 0.950 . S
H2062 C2083 0.950 . S
H2063 C2086 0.950 . S
H2064 C2087 0.950 . S
H2065 C2089 0.950 . S
H2066 C2090 0.950 . S
H2067 C2091 0.951 . S
H2068 C2093 0.951 . S
H2069 C2095 0.950 . S
H2070 C2096 0.950 . S
H2071 C2098 0.950 . S
H2072 C2101 0.950 . S
H2073 C2102 0.950 . S
H2074 C2104 0.950 . S
H2075 C2105 0.950 . S
C2076 H2058 0.951 . S
C2076 C2077 1.366 . S
C2076 C2078 1.388 . S
C2077 C2076 1.366 . S
C2077 C2081 1.385 . S
C2078 H2059 0.951 . S
C2078 C2076 1.388 . S
C2078 C2079 1.366 . S
C2079 C2078 1.366 . S
C2079 C2080 1.414 . S
C2079 C2082 1.499 . S
C2080 H2060 0.950 . S
C2080 C2079 1.414 . S
C2080 C2081 1.374 . S
C2081 H2061 0.950 . S
C2081 C2077 1.385 . S
C2081 C2080 1.374 . S
C2082 C2079 1.499 . S
C2082 C2083 1.373 . S
C2082 C2084 1.389 . S
C2083 H2062 0.950 . S
C2083 C2082 1.373 . S
C2083 C2099 1.377 . S
C2084 C2082 1.389 . S
C2084 C2085 1.524 . S
C2084 C2098 1.377 . S
C2085 C2084 1.524 . S
C2085 C2086 1.397 . S
C2085 C2090 1.363 . S
C2086 H2063 0.950 . S
C2086 C2085 1.397 . S
C2086 C2087 1.334 . S
C2087 H2064 0.950 . S
C2087 C2086 1.334 . S
C2087 C2088 1.287 . S
C2088 C2087 1.287 . S
C2088 C2089 1.524 . S
C2088 H2107 0.913 . S
C2089 H2065 0.950 . S
C2089 C2088 1.524 . S
C2089 C2090 1.415 . S
C2090 H2066 0.950 . S
C2090 C2085 1.363 . S
C2090 C2089 1.415 . S
C2091 H2067 0.951 . S
C2091 C2092 1.366 . S
C2091 C2093 1.388 . S
C2092 C2091 1.366 . S
C2092 C2096 1.385 . S
C2093 H2068 0.951 . S
C2093 C2091 1.388 . S
C2093 C2094 1.366 . S
C2094 C2093 1.366 . S
C2094 C2095 1.414 . S
C2094 C2097 1.499 . S
C2095 H2069 0.950 . S
C2095 C2094 1.414 . S
C2095 C2096 1.374 . S
C2096 H2070 0.950 . S
C2096 C2092 1.385 . S
C2096 C2095 1.374 . S
C2097 C2094 1.499 . S
C2097 C2098 1.373 . S
C2097 C2099 1.389 . S
C2098 H2071 0.950 . S
C2098 C2084 1.377 . S
C2098 C2097 1.373 . S
C2099 C2083 1.377 . S
C2099 C2097 1.389 . S
C2099 C2100 1.524 . S
C2100 C2099 1.524 . S
C2100 C2101 1.397 . S
C2100 C2105 1.363 . S
C2101 H2072 0.950 . S
C2101 C2100 1.397 . S
C2101 C2102 1.334 . S
C2102 H2073 0.950 . S
C2102 C2101 1.334 . S
C2102 C2103 1.287 . S
C2103 C2102 1.287 . S
C2103 C2104 1.524 . S
C2103 H2106 0.999 . S
C2104 H2074 0.950 . S
C2104 C2103 1.524 . S
C2104 C2105 1.415 . S
C2105 H2075 0.950 . S
C2105 C2100 1.363 . S
C2105 C2104 1.415 . S
H2106 C2103 0.999 . S
H2107 C2088 0.913 . S
H2108 C2126 0.951 . S
H2109 C2128 0.951 . S
H2110 C2130 0.950 . S
H2111 C2131 0.950 . S
H2112 C2133 0.950 . S
H2113 C2136 0.950 . S
H2114 C2137 0.950 . S
H2115 C2139 0.950 . S
H2116 C2140 0.950 . S
H2117 C2141 0.951 . S
H2118 C2143 0.951 . S
H2119 C2145 0.950 . S
H2120 C2146 0.950 . S
H2121 C2148 0.950 . S
H2122 C2151 0.950 . S
H2123 C2152 0.950 . S
H2124 C2154 0.950 . S
H2125 C2155 0.950 . S
C2126 H2108 0.951 . S
C2126 C2127 1.366 . S
C2126 C2128 1.388 . S
C2127 C2126 1.366 . S
C2127 C2131 1.385 . S
C2128 H2109 0.951 . S
C2128 C2126 1.388 . S
C2128 C2129 1.366 . S
C2129 C2128 1.366 . S
C2129 C2130 1.414 . S
C2129 C2132 1.499 . S
C2130 H2110 0.950 . S
C2130 C2129 1.414 . S
C2130 C2131 1.374 . S
C2131 H2111 0.950 . S
C2131 C2127 1.385 . S
C2131 C2130 1.374 . S
C2132 C2129 1.499 . S
C2132 C2133 1.373 . S
C2132 C2134 1.389 . S
C2133 H2112 0.950 . S
C2133 C2132 1.373 . S
C2133 C2149 1.377 . S
C2134 C2132 1.389 . S
C2134 C2135 1.524 . S
C2134 C2148 1.377 . S
C2135 C2134 1.524 . S
C2135 C2136 1.397 . S
C2135 C2140 1.363 . S
C2136 H2113 0.950 . S
C2136 C2135 1.397 . S
C2136 C2137 1.334 . S
C2137 H2114 0.950 . S
C2137 C2136 1.334 . S
C2137 C2138 1.287 . S
C2138 C2137 1.287 . S
C2138 C2139 1.524 . S
C2138 H2157 0.913 . S
C2139 H2115 0.950 . S
C2139 C2138 1.524 . S
C2139 C2140 1.415 . S
C2140 H2116 0.950 . S
C2140 C2135 1.363 . S
C2140 C2139 1.415 . S
C2141 H2117 0.951 . S
C2141 C2142 1.366 . S
C2141 C2143 1.388 . S
C2142 C2141 1.366 . S
C2142 C2146 1.385 . S
C2143 H2118 0.951 . S
C2143 C2141 1.388 . S
C2143 C2144 1.366 . S
C2144 C2143 1.366 . S
C2144 C2145 1.414 . S
C2144 C2147 1.499 . S
C2145 H2119 0.950 . S
C2145 C2144 1.414 . S
C2145 C2146 1.374 . S
C2146 H2120 0.950 . S
C2146 C2142 1.385 . S
C2146 C2145 1.374 . S
C2147 C2144 1.499 . S
C2147 C2148 1.373 . S
C2147 C2149 1.389 . S
C2148 H2121 0.950 . S
C2148 C2134 1.377 . S
C2148 C2147 1.373 . S
C2149 C2133 1.377 . S
C2149 C2147 1.389 . S
C2149 C2150 1.524 . S
C2150 C2149 1.524 . S
C2150 C2151 1.397 . S
C2150 C2155 1.363 . S
C2151 H2122 0.950 . S
C2151 C2150 1.397 . S
C2151 C2152 1.334 . S
C2152 H2123 0.950 . S
C2152 C2151 1.334 . S
C2152 C2153 1.287 . S
C2153 C2152 1.287 . S
C2153 C2154 1.524 . S
C2153 H2156 0.999 . S
C2154 H2124 0.950 . S
C2154 C2153 1.524 . S
C2154 C2155 1.415 . S
C2155 H2125 0.950 . S
C2155 C2150 1.363 . S
C2155 C2154 1.415 . S
H2156 C2153 0.999 . S
H2157 C2138 0.913 . S
H2158 C2176 0.951 . S
H2159 C2178 0.951 . S
H2160 C2180 0.950 . S
H2161 C2181 0.950 . S
H2162 C2183 0.950 . S
H2163 C2186 0.950 . S
H2164 C2187 0.950 . S
H2165 C2189 0.950 . S
H2166 C2190 0.950 . S
H2167 C2191 0.951 . S
H2168 C2193 0.951 . S
H2169 C2195 0.950 . S
H2170 C2196 0.950 . S
H2171 C2198 0.950 . S
H2172 C2201 0.950 . S
H2173 C2202 0.950 . S
H2174 C2204 0.950 . S
H2175 C2205 0.950 . S
C2176 H2158 0.951 . S
C2176 C2177 1.366 . S
C2176 C2178 1.388 . S
C2177 C2176 1.366 . S
C2177 C2181 1.385 . S
C2178 H2159 0.951 . S
C2178 C2176 1.388 . S
C2178 C2179 1.366 . S
C2179 C2178 1.366 . S
C2179 C2180 1.414 . S
C2179 C2182 1.499 . S
C2180 H2160 0.950 . S
C2180 C2179 1.414 . S
C2180 C2181 1.374 . S
C2181 H2161 0.950 . S
C2181 C2177 1.385 . S
C2181 C2180 1.374 . S
C2182 C2179 1.499 . S
C2182 C2183 1.373 . S
C2182 C2184 1.389 . S
C2183 H2162 0.950 . S
C2183 C2182 1.373 . S
C2183 C2199 1.377 . S
C2184 C2182 1.389 . S
C2184 C2185 1.524 . S
C2184 C2198 1.377 . S
C2185 C2184 1.524 . S
C2185 C2186 1.397 . S
C2185 C2190 1.363 . S
C2186 H2163 0.950 . S
C2186 C2185 1.397 . S
C2186 C2187 1.334 . S
C2187 H2164 0.950 . S
C2187 C2186 1.334 . S
C2187 C2188 1.287 . S
C2188 C2187 1.287 . S
C2188 C2189 1.524 . S
C2188 H2207 0.913 . S
C2189 H2165 0.950 . S
C2189 C2188 1.524 . S
C2189 C2190 1.415 . S
C2190 H2166 0.950 . S
C2190 C2185 1.363 . S
C2190 C2189 1.415 . S
C2191 H2167 0.951 . S
C2191 C2192 1.366 . S
C2191 C2193 1.388 . S
C2192 C2191 1.366 . S
C2192 C2196 1.385 . S
C2193 H2168 0.951 . S
C2193 C2191 1.388 . S
C2193 C2194 1.366 . S
C2194 C2193 1.366 . S
C2194 C2195 1.414 . S
C2194 C2197 1.499 . S
C2195 H2169 0.950 . S
C2195 C2194 1.414 . S
C2195 C2196 1.374 . S
C2196 H2170 0.950 . S
C2196 C2192 1.385 . S
C2196 C2195 1.374 . S
C2197 C2194 1.499 . S
C2197 C2198 1.373 . S
C2197 C2199 1.389 . S
C2198 H2171 0.950 . S
C2198 C2184 1.377 . S
C2198 C2197 1.373 . S
C2199 C2183 1.377 . S
C2199 C2197 1.389 . S
C2199 C2200 1.524 . S
C2200 C2199 1.524 . S
C2200 C2201 1.397 . S
C2200 C2205 1.363 . S
C2201 H2172 0.950 . S
C2201 C2200 1.397 . S
C2201 C2202 1.334 . S
C2202 H2173 0.950 . S
C2202 C2201 1.334 . S
C2202 C2203 1.287 . S
C2203 C2202 1.287 . S
C2203 C2204 1.524 . S
C2203 H2206 0.999 . S
C2204 H2174 0.950 . S
C2204 C2203 1.524 . S
C2204 C2205 1.415 . S
C2205 H2175 0.950 . S
C2205 C2200 1.363 . S
C2205 C2204 1.415 . S
H2206 C2203 0.999 . S
H2207 C2188 0.913 . S
H2208 C2226 0.951 . S
H2209 C2228 0.951 . S
H2210 C2230 0.950 . S
H2211 C2231 0.950 . S
H2212 C2233 0.950 . S
H2213 C2236 0.950 . S
H2214 C2237 0.950 . S
H2215 C2239 0.950 . S
H2216 C2240 0.950 . S
H2217 C2241 0.951 . S
H2218 C2243 0.951 . S
H2219 C2245 0.950 . S
H2220 C2246 0.950 . S
H2221 C2248 0.950 . S
H2222 C2251 0.950 . S
H2223 C2252 0.950 . S
H2224 C2254 0.950 . S
H2225 C2255 0.950 . S
C2226 H2208 0.951 . S
C2226 C2227 1.366 . S
C2226 C2228 1.388 . S
C2227 C2226 1.366 . S
C2227 C2231 1.385 . S
C2228 H2209 0.951 . S
C2228 C2226 1.388 . S
C2228 C2229 1.366 . S
C2229 C2228 1.366 . S
C2229 C2230 1.414 . S
C2229 C2232 1.499 . S
C2230 H2210 0.950 . S
C2230 C2229 1.414 . S
C2230 C2231 1.374 . S
C2231 H2211 0.950 . S
C2231 C2227 1.385 . S
C2231 C2230 1.374 . S
C2232 C2229 1.499 . S
C2232 C2233 1.373 . S
C2232 C2234 1.389 . S
C2233 H2212 0.950 . S
C2233 C2232 1.373 . S
C2233 C2249 1.377 . S
C2234 C2232 1.389 . S
C2234 C2235 1.524 . S
C2234 C2248 1.377 . S
C2235 C2234 1.524 . S
C2235 C2236 1.397 . S
C2235 C2240 1.363 . S
C2236 H2213 0.950 . S
C2236 C2235 1.397 . S
C2236 C2237 1.334 . S
C2237 H2214 0.950 . S
C2237 C2236 1.334 . S
C2237 C2238 1.287 . S
C2238 C2237 1.287 . S
C2238 C2239 1.524 . S
C2238 H2257 0.913 . S
C2239 H2215 0.950 . S
C2239 C2238 1.524 . S
C2239 C2240 1.415 . S
C2240 H2216 0.950 . S
C2240 C2235 1.363 . S
C2240 C2239 1.415 . S
C2241 H2217 0.951 . S
C2241 C2242 1.366 . S
C2241 C2243 1.388 . S
C2242 C2241 1.366 . S
C2242 C2246 1.385 . S
C2243 H2218 0.951 . S
C2243 C2241 1.388 . S
C2243 C2244 1.366 . S
C2244 C2243 1.366 . S
C2244 C2245 1.414 . S
C2244 C2247 1.499 . S
C2245 H2219 0.950 . S
C2245 C2244 1.414 . S
C2245 C2246 1.374 . S
C2246 H2220 0.950 . S
C2246 C2242 1.385 . S
C2246 C2245 1.374 . S
C2247 C2244 1.499 . S
C2247 C2248 1.373 . S
C2247 C2249 1.389 . S
C2248 H2221 0.950 . S
C2248 C2234 1.377 . S
C2248 C2247 1.373 . S
C2249 C2233 1.377 . S
C2249 C2247 1.389 . S
C2249 C2250 1.524 . S
C2250 C2249 1.524 . S
C2250 C2251 1.397 . S
C2250 C2255 1.363 . S
C2251 H2222 0.950 . S
C2251 C2250 1.397 . S
C2251 C2252 1.334 . S
C2252 H2223 0.950 . S
C2252 C2251 1.334 . S
C2252 C2253 1.287 . S
C2253 C2252 1.287 . S
C2253 C2254 1.524 . S
C2253 H2256 0.999 . S
C2254 H2224 0.950 . S
C2254 C2253 1.524 . S
C2254 C2255 1.415 . S
C2255 H2225 0.950 . S
C2255 C2250 1.363 . S
C2255 C2254 1.415 . S
H2256 C2253 0.999 . S
H2257 C2238 0.913 . S
H2258 C2276 0.951 . S
H2259 C2278 0.951 . S
H2260 C2280 0.950 . S
H2261 C2281 0.950 . S
H2262 C2283 0.950 . S
H2263 C2286 0.950 . S
H2264 C2287 0.950 . S
H2265 C2289 0.950 . S
H2266 C2290 0.950 . S
H2267 C2291 0.951 . S
H2268 C2293 0.951 . S
H2269 C2295 0.950 . S
H2270 C2296 0.950 . S
H2271 C2298 0.950 . S
H2272 C2301 0.950 . S
H2273 C2302 0.950 . S
H2274 C2304 0.950 . S
H2275 C2305 0.950 . S
C2276 H2258 0.951 . S
C2276 C2277 1.366 . S
C2276 C2278 1.388 . S
C2277 C2276 1.366 . S
C2277 C2281 1.385 . S
C2278 H2259 0.951 . S
C2278 C2276 1.388 . S
C2278 C2279 1.366 . S
C2279 C2278 1.366 . S
C2279 C2280 1.414 . S
C2279 C2282 1.499 . S
C2280 H2260 0.950 . S
C2280 C2279 1.414 . S
C2280 C2281 1.374 . S
C2281 H2261 0.950 . S
C2281 C2277 1.385 . S
C2281 C2280 1.374 . S
C2282 C2279 1.499 . S
C2282 C2283 1.373 . S
C2282 C2284 1.389 . S
C2283 H2262 0.950 . S
C2283 C2282 1.373 . S
C2283 C2299 1.377 . S
C2284 C2282 1.389 . S
C2284 C2285 1.524 . S
C2284 C2298 1.377 . S
C2285 C2284 1.524 . S
C2285 C2286 1.397 . S
C2285 C2290 1.363 . S
C2286 H2263 0.950 . S
C2286 C2285 1.397 . S
C2286 C2287 1.334 . S
C2287 H2264 0.950 . S
C2287 C2286 1.334 . S
C2287 C2288 1.287 . S
C2288 C2287 1.287 . S
C2288 C2289 1.524 . S
C2288 H2307 0.913 . S
C2289 H2265 0.950 . S
C2289 C2288 1.524 . S
C2289 C2290 1.415 . S
C2290 H2266 0.950 . S
C2290 C2285 1.363 . S
C2290 C2289 1.415 . S
C2291 H2267 0.951 . S
C2291 C2292 1.366 . S
C2291 C2293 1.388 . S
C2292 C2291 1.366 . S
C2292 C2296 1.385 . S
C2293 H2268 0.951 . S
C2293 C2291 1.388 . S
C2293 C2294 1.366 . S
C2294 C2293 1.366 . S
C2294 C2295 1.414 . S
C2294 C2297 1.499 . S
C2295 H2269 0.950 . S
C2295 C2294 1.414 . S
C2295 C2296 1.374 . S
C2296 H2270 0.950 . S
C2296 C2292 1.385 . S
C2296 C2295 1.374 . S
C2297 C2294 1.499 . S
C2297 C2298 1.373 . S
C2297 C2299 1.389 . S
C2298 H2271 0.950 . S
C2298 C2284 1.377 . S
C2298 C2297 1.373 . S
C2299 C2283 1.377 . S
C2299 C2297 1.389 . S
C2299 C2300 1.524 . S
C2300 C2299 1.524 . S
C2300 C2301 1.397 . S
C2300 C2305 1.363 . S
C2301 H2272 0.950 . S
C2301 C2300 1.397 . S
C2301 C2302 1.334 . S
C2302 H2273 0.950 . S
C2302 C2301 1.334 . S
C2302 C2303 1.287 . S
C2303 C2302 1.287 . S
C2303 C2304 1.524 . S
C2303 H2306 0.999 . S
C2304 H2274 0.950 . S
C2304 C2303 1.524 . S
C2304 C2305 1.415 . S
C2305 H2275 0.950 . S
C2305 C2300 1.363 . S
C2305 C2304 1.415 . S
H2306 C2303 0.999 . S
H2307 C2288 0.913 . S
H2308 C2326 0.951 . S
H2309 C2328 0.951 . S
H2310 C2330 0.950 . S
H2311 C2331 0.950 . S
H2312 C2333 0.950 . S
H2313 C2336 0.950 . S
H2314 C2337 0.950 . S
H2315 C2339 0.950 . S
H2316 C2340 0.950 . S
H2317 C2341 0.951 . S
H2318 C2343 0.951 . S
H2319 C2345 0.950 . S
H2320 C2346 0.950 . S
H2321 C2348 0.950 . S
H2322 C2351 0.950 . S
H2323 C2352 0.950 . S
H2324 C2354 0.950 . S
H2325 C2355 0.950 . S
C2326 H2308 0.951 . S
C2326 C2327 1.366 . S
C2326 C2328 1.388 . S
C2327 C2326 1.366 . S
C2327 C2331 1.385 . S
C2328 H2309 0.951 . S
C2328 C2326 1.388 . S
C2328 C2329 1.366 . S
C2329 C2328 1.366 . S
C2329 C2330 1.414 . S
C2329 C2332 1.499 . S
C2330 H2310 0.950 . S
C2330 C2329 1.414 . S
C2330 C2331 1.374 . S
C2331 H2311 0.950 . S
C2331 C2327 1.385 . S
C2331 C2330 1.374 . S
C2332 C2329 1.499 . S
C2332 C2333 1.373 . S
C2332 C2334 1.389 . S
C2333 H2312 0.950 . S
C2333 C2332 1.373 . S
C2333 C2349 1.377 . S
C2334 C2332 1.389 . S
C2334 C2335 1.524 . S
C2334 C2348 1.377 . S
C2335 C2334 1.524 . S
C2335 C2336 1.397 . S
C2335 C2340 1.363 . S
C2336 H2313 0.950 . S
C2336 C2335 1.397 . S
C2336 C2337 1.334 . S
C2337 H2314 0.950 . S
C2337 C2336 1.334 . S
C2337 C2338 1.287 . S
C2338 C2337 1.287 . S
C2338 C2339 1.524 . S
C2338 H2357 0.913 . S
C2339 H2315 0.950 . S
C2339 C2338 1.524 . S
C2339 C2340 1.415 . S
C2340 H2316 0.950 . S
C2340 C2335 1.363 . S
C2340 C2339 1.415 . S
C2341 H2317 0.951 . S
C2341 C2342 1.366 . S
C2341 C2343 1.388 . S
C2342 C2341 1.366 . S
C2342 C2346 1.385 . S
C2343 H2318 0.951 . S
C2343 C2341 1.388 . S
C2343 C2344 1.366 . S
C2344 C2343 1.366 . S
C2344 C2345 1.414 . S
C2344 C2347 1.499 . S
C2345 H2319 0.950 . S
C2345 C2344 1.414 . S
C2345 C2346 1.374 . S
C2346 H2320 0.950 . S
C2346 C2342 1.385 . S
C2346 C2345 1.374 . S
C2347 C2344 1.499 . S
C2347 C2348 1.373 . S
C2347 C2349 1.389 . S
C2348 H2321 0.950 . S
C2348 C2334 1.377 . S
C2348 C2347 1.373 . S
C2349 C2333 1.377 . S
C2349 C2347 1.389 . S
C2349 C2350 1.524 . S
C2350 C2349 1.524 . S
C2350 C2351 1.397 . S
C2350 C2355 1.363 . S
C2351 H2322 0.950 . S
C2351 C2350 1.397 . S
C2351 C2352 1.334 . S
C2352 H2323 0.950 . S
C2352 C2351 1.334 . S
C2352 C2353 1.287 . S
C2353 C2352 1.287 . S
C2353 C2354 1.524 . S
C2353 H2356 0.999 . S
C2354 H2324 0.950 . S
C2354 C2353 1.524 . S
C2354 C2355 1.415 . S
C2355 H2325 0.950 . S
C2355 C2350 1.363 . S
C2355 C2354 1.415 . S
H2356 C2353 0.999 . S
H2357 C2338 0.913 . S
H2358 C2376 0.951 . S
H2359 C2378 0.951 . S
H2360 C2380 0.950 . S
H2361 C2381 0.950 . S
H2362 C2383 0.950 . S
H2363 C2386 0.950 . S
H2364 C2387 0.950 . S
H2365 C2389 0.950 . S
H2366 C2390 0.950 . S
H2367 C2391 0.951 . S
H2368 C2393 0.951 . S
H2369 C2395 0.950 . S
H2370 C2396 0.950 . S
H2371 C2398 0.950 . S
H2372 C2401 0.950 . S
H2373 C2402 0.950 . S
H2374 C2404 0.950 . S
H2375 C2405 0.950 . S
C2376 H2358 0.951 . S
C2376 C2377 1.366 . S
C2376 C2378 1.388 . S
C2377 C2376 1.366 . S
C2377 C2381 1.385 . S
C2378 H2359 0.951 . S
C2378 C2376 1.388 . S
C2378 C2379 1.366 . S
C2379 C2378 1.366 . S
C2379 C2380 1.414 . S
C2379 C2382 1.499 . S
C2380 H2360 0.950 . S
C2380 C2379 1.414 . S
C2380 C2381 1.374 . S
C2381 H2361 0.950 . S
C2381 C2377 1.385 . S
C2381 C2380 1.374 . S
C2382 C2379 1.499 . S
C2382 C2383 1.373 . S
C2382 C2384 1.389 . S
C2383 H2362 0.950 . S
C2383 C2382 1.373 . S
C2383 C2399 1.377 . S
C2384 C2382 1.389 . S
C2384 C2385 1.524 . S
C2384 C2398 1.377 . S
C2385 C2384 1.524 . S
C2385 C2386 1.397 . S
C2385 C2390 1.363 . S
C2386 H2363 0.950 . S
C2386 C2385 1.397 . S
C2386 C2387 1.334 . S
C2387 H2364 0.950 . S
C2387 C2386 1.334 . S
C2387 C2388 1.287 . S
C2388 C2387 1.287 . S
C2388 C2389 1.524 . S
C2388 H2407 0.913 . S
C2389 H2365 0.950 . S
C2389 C2388 1.524 . S
C2389 C2390 1.415 . S
C2390 H2366 0.950 . S
C2390 C2385 1.363 . S
C2390 C2389 1.415 . S
C2391 H2367 0.951 . S
C2391 C2392 1.366 . S
C2391 C2393 1.388 . S
C2392 C2391 1.366 . S
C2392 C2396 1.385 . S
C2393 H2368 0.951 . S
C2393 C2391 1.388 . S
C2393 C2394 1.366 . S
C2394 C2393 1.366 . S
C2394 C2395 1.414 . S
C2394 C2397 1.499 . S
C2395 H2369 0.950 . S
C2395 C2394 1.414 . S
C2395 C2396 1.374 . S
C2396 H2370 0.950 . S
C2396 C2392 1.385 . S
C2396 C2395 1.374 . S
C2397 C2394 1.499 . S
C2397 C2398 1.373 . S
C2397 C2399 1.389 . S
C2398 H2371 0.950 . S
C2398 C2384 1.377 . S
C2398 C2397 1.373 . S
C2399 C2383 1.377 . S
C2399 C2397 1.389 . S
C2399 C2400 1.524 . S
C2400 C2399 1.524 . S
C2400 C2401 1.397 . S
C2400 C2405 1.363 . S
C2401 H2372 0.950 . S
C2401 C2400 1.397 . S
C2401 C2402 1.334 . S
C2402 H2373 0.950 . S
C2402 C2401 1.334 . S
C2402 C2403 1.287 . S
C2403 C2402 1.287 . S
C2403 C2404 1.524 . S
C2403 H2406 0.999 . S
C2404 H2374 0.950 . S
C2404 C2403 1.524 . S
C2404 C2405 1.415 . S
C2405 H2375 0.950 . S
C2405 C2400 1.363 . S
C2405 C2404 1.415 . S
H2406 C2403 0.999 . S
H2407 C2388 0.913 . S
H2408 C2426 0.951 . S
H2409 C2428 0.951 . S
H2410 C2430 0.950 . S
H2411 C2431 0.950 . S
H2412 C2433 0.950 . S
H2413 C2436 0.950 . S
H2414 C2437 0.950 . S
H2415 C2439 0.950 . S
H2416 C2440 0.950 . S
H2417 C2441 0.951 . S
H2418 C2443 0.951 . S
H2419 C2445 0.950 . S
H2420 C2446 0.950 . S
H2421 C2448 0.950 . S
H2422 C2451 0.950 . S
H2423 C2452 0.950 . S
H2424 C2454 0.950 . S
H2425 C2455 0.950 . S
C2426 H2408 0.951 . S
C2426 C2427 1.366 . S
C2426 C2428 1.388 . S
C2427 C2426 1.366 . S
C2427 C2431 1.385 . S
C2428 H2409 0.951 . S
C2428 C2426 1.388 . S
C2428 C2429 1.366 . S
C2429 C2428 1.366 . S
C2429 C2430 1.414 . S
C2429 C2432 1.499 . S
C2430 H2410 0.950 . S
C2430 C2429 1.414 . S
C2430 C2431 1.374 . S
C2431 H2411 0.950 . S
C2431 C2427 1.385 . S
C2431 C2430 1.374 . S
C2432 C2429 1.499 . S
C2432 C2433 1.373 . S
C2432 C2434 1.389 . S
C2433 H2412 0.950 . S
C2433 C2432 1.373 . S
C2433 C2449 1.377 . S
C2434 C2432 1.389 . S
C2434 C2435 1.524 . S
C2434 C2448 1.377 . S
C2435 C2434 1.524 . S
C2435 C2436 1.397 . S
C2435 C2440 1.363 . S
C2436 H2413 0.950 . S
C2436 C2435 1.397 . S
C2436 C2437 1.334 . S
C2437 H2414 0.950 . S
C2437 C2436 1.334 . S
C2437 C2438 1.287 . S
C2438 C2437 1.287 . S
C2438 C2439 1.524 . S
C2438 H2457 0.913 . S
C2439 H2415 0.950 . S
C2439 C2438 1.524 . S
C2439 C2440 1.415 . S
C2440 H2416 0.950 . S
C2440 C2435 1.363 . S
C2440 C2439 1.415 . S
C2441 H2417 0.951 . S
C2441 C2442 1.366 . S
C2441 C2443 1.388 . S
C2442 C2441 1.366 . S
C2442 C2446 1.385 . S
C2443 H2418 0.951 . S
C2443 C2441 1.388 . S
C2443 C2444 1.366 . S
C2444 C2443 1.366 . S
C2444 C2445 1.414 . S
C2444 C2447 1.499 . S
C2445 H2419 0.950 . S
C2445 C2444 1.414 . S
C2445 C2446 1.374 . S
C2446 H2420 0.950 . S
C2446 C2442 1.385 . S
C2446 C2445 1.374 . S
C2447 C2444 1.499 . S
C2447 C2448 1.373 . S
C2447 C2449 1.389 . S
C2448 H2421 0.950 . S
C2448 C2434 1.377 . S
C2448 C2447 1.373 . S
C2449 C2433 1.377 . S
C2449 C2447 1.389 . S
C2449 C2450 1.524 . S
C2450 C2449 1.524 . S
C2450 C2451 1.397 . S
C2450 C2455 1.363 . S
C2451 H2422 0.950 . S
C2451 C2450 1.397 . S
C2451 C2452 1.334 . S
C2452 H2423 0.950 . S
C2452 C2451 1.334 . S
C2452 C2453 1.287 . S
C2453 C2452 1.287 . S
C2453 C2454 1.524 . S
C2453 H2456 0.999 . S
C2454 H2424 0.950 . S
C2454 C2453 1.524 . S
C2454 C2455 1.415 . S
C2455 H2425 0.950 . S
C2455 C2450 1.363 . S
C2455 C2454 1.415 . S
H2456 C2453 0.999 . S
H2457 C2438 0.913 . S
H2458 C2476 0.951 . S
H2459 C2478 0.951 . S
H2460 C2480 0.950 . S
H2461 C2481 0.950 . S
H2462 C2483 0.950 . S
H2463 C2486 0.950 . S
H2464 C2487 0.950 . S
H2465 C2489 0.950 . S
H2466 C2490 0.950 . S
H2467 C2491 0.951 . S
H2468 C2493 0.951 . S
H2469 C2495 0.950 . S
H2470 C2496 0.950 . S
H2471 C2498 0.950 . S
H2472 C2501 0.950 . S
H2473 C2502 0.950 . S
H2474 C2504 0.950 . S
H2475 C2505 0.950 . S
C2476 H2458 0.951 . S
C2476 C2477 1.366 . S
C2476 C2478 1.388 . S
C2477 C2476 1.366 . S
C2477 C2481 1.385 . S
C2478 H2459 0.951 . S
C2478 C2476 1.388 . S
C2478 C2479 1.366 . S
C2479 C2478 1.366 . S
C2479 C2480 1.414 . S
C2479 C2482 1.499 . S
C2480 H2460 0.950 . S
C2480 C2479 1.414 . S
C2480 C2481 1.374 . S
C2481 H2461 0.950 . S
C2481 C2477 1.385 . S
C2481 C2480 1.374 . S
C2482 C2479 1.499 . S
C2482 C2483 1.373 . S
C2482 C2484 1.389 . S
C2483 H2462 0.950 . S
C2483 C2482 1.373 . S
C2483 C2499 1.377 . S
C2484 C2482 1.389 . S
C2484 C2485 1.524 . S
C2484 C2498 1.377 . S
C2485 C2484 1.524 . S
C2485 C2486 1.397 . S
C2485 C2490 1.363 . S
C2486 H2463 0.950 . S
C2486 C2485 1.397 . S
C2486 C2487 1.334 . S
C2487 H2464 0.950 . S
C2487 C2486 1.334 . S
C2487 C2488 1.287 . S
C2488 C2487 1.287 . S
C2488 C2489 1.524 . S
C2488 H2507 0.913 . S
C2489 H2465 0.950 . S
C2489 C2488 1.524 . S
C2489 C2490 1.415 . S
C2490 H2466 0.950 . S
C2490 C2485 1.363 . S
C2490 C2489 1.415 . S
C2491 H2467 0.951 . S
C2491 C2492 1.366 . S
C2491 C2493 1.388 . S
C2492 C2491 1.366 . S
C2492 C2496 1.385 . S
C2493 H2468 0.951 . S
C2493 C2491 1.388 . S
C2493 C2494 1.366 . S
C2494 C2493 1.366 . S
C2494 C2495 1.414 . S
C2494 C2497 1.499 . S
C2495 H2469 0.950 . S
C2495 C2494 1.414 . S
C2495 C2496 1.374 . S
C2496 H2470 0.950 . S
C2496 C2492 1.385 . S
C2496 C2495 1.374 . S
C2497 C2494 1.499 . S
C2497 C2498 1.373 . S
C2497 C2499 1.389 . S
C2498 H2471 0.950 . S
C2498 C2484 1.377 . S
C2498 C2497 1.373 . S
C2499 C2483 1.377 . S
C2499 C2497 1.389 . S
C2499 C2500 1.524 . S
C2500 C2499 1.524 . S
C2500 C2501 1.397 . S
C2500 C2505 1.363 . S
C2501 H2472 0.950 . S
C2501 C2500 1.397 . S
C2501 C2502 1.334 . S
C2502 H2473 0.950 . S
C2502 C2501 1.334 . S
C2502 C2503 1.287 . S
C2503 C2502 1.287 . S
C2503 C2504 1.524 . S
C2503 H2506 0.999 . S
C2504 H2474 0.950 . S
C2504 C2503 1.524 . S
C2504 C2505 1.415 . S
C2505 H2475 0.950 . S
C2505 C2500 1.363 . S
C2505 C2504 1.415 . S
H2506 C2503 0.999 . S
H2507 C2488 0.913 . S
H2508 C2526 0.951 . S
H2509 C2528 0.951 . S
H2510 C2530 0.950 . S
H2511 C2531 0.950 . S
H2512 C2533 0.950 . S
H2513 C2536 0.950 . S
H2514 C2537 0.950 . S
H2515 C2539 0.950 . S
H2516 C2540 0.950 . S
H2517 C2541 0.951 . S
H2518 C2543 0.951 . S
H2519 C2545 0.950 . S
H2520 C2546 0.950 . S
H2521 C2548 0.950 . S
H2522 C2551 0.950 . S
H2523 C2552 0.950 . S
H2524 C2554 0.950 . S
H2525 C2555 0.950 . S
C2526 H2508 0.951 . S
C2526 C2527 1.366 . S
C2526 C2528 1.388 . S
C2527 C2526 1.366 . S
C2527 C2531 1.385 . S
C2528 H2509 0.951 . S
C2528 C2526 1.388 . S
C2528 C2529 1.366 . S
C2529 C2528 1.366 . S
C2529 C2530 1.414 . S
C2529 C2532 1.499 . S
C2530 H2510 0.950 . S
C2530 C2529 1.414 . S
C2530 C2531 1.374 . S
C2531 H2511 0.950 . S
C2531 C2527 1.385 . S
C2531 C2530 1.374 . S
C2532 C2529 1.499 . S
C2532 C2533 1.373 . S
C2532 C2534 1.389 . S
C2533 H2512 0.950 . S
C2533 C2532 1.373 . S
C2533 C2549 1.377 . S
C2534 C2532 1.389 . S
C2534 C2535 1.524 . S
C2534 C2548 1.377 . S
C2535 C2534 1.524 . S
C2535 C2536 1.397 . S
C2535 C2540 1.363 . S
C2536 H2513 0.950 . S
C2536 C2535 1.397 . S
C2536 C2537 1.334 . S
C2537 H2514 0.950 . S
C2537 C2536 1.334 . S
C2537 C2538 1.287 . S
C2538 C2537 1.287 . S
C2538 C2539 1.524 . S
C2538 H2557 0.913 . S
C2539 H2515 0.950 . S
C2539 C2538 1.524 . S
C2539 C2540 1.415 . S
C2540 H2516 0.950 . S
C2540 C2535 1.363 . S
C2540 C2539 1.415 . S
C2541 H2517 0.951 . S
C2541 C2542 1.366 . S
C2541 C2543 1.388 . S
C2542 C2541 1.366 . S
C2542 C2546 1.385 . S
C2543 H2518 0.951 . S
C2543 C2541 1.388 . S
C2543 C2544 1.366 . S
C2544 C2543 1.366 . S
C2544 C2545 1.414 . S
C2544 C2547 1.499 . S
C2545 H2519 0.950 . S
C2545 C2544 1.414 . S
C2545 C2546 1.374 . S
C2546 H2520 0.950 . S
C2546 C2542 1.385 . S
C2546 C2545 1.374 . S
C2547 C2544 1.499 . S
C2547 C2548 1.373 . S
C2547 C2549 1.389 . S
C2548 H2521 0.950 . S
C2548 C2534 1.377 . S
C2548 C2547 1.373 . S
C2549 C2533 1.377 . S
C2549 C2547 1.389 . S
C2549 C2550 1.524 . S
C2550 C2549 1.524 . S
C2550 C2551 1.397 . S
C2550 C2555 1.363 . S
C2551 H2522 0.950 . S
C2551 C2550 1.397 . S
C2551 C2552 1.334 . S
C2552 H2523 0.950 . S
C2552 C2551 1.334 . S
C2552 C2553 1.287 . S
C2553 C2552 1.287 . S
C2553 C2554 1.524 . S
C2553 H2556 0.999 . S
C2554 H2524 0.950 . S
C2554 C2553 1.524 . S
C2554 C2555 1.415 . S
C2555 H2525 0.950 . S
C2555 C2550 1.363 . S
C2555 C2554 1.415 . S
H2556 C2553 0.999 . S
H2557 C2538 0.913 . S
H2558 C2576 0.951 . S
H2559 C2578 0.951 . S
H2560 C2580 0.950 . S
H2561 C2581 0.950 . S
H2562 C2583 0.950 . S
H2563 C2586 0.950 . S
H2564 C2587 0.950 . S
H2565 C2589 0.950 . S
H2566 C2590 0.950 . S
H2567 C2591 0.951 . S
H2568 C2593 0.951 . S
H2569 C2595 0.950 . S
H2570 C2596 0.950 . S
H2571 C2598 0.950 . S
H2572 C2601 0.950 . S
H2573 C2602 0.950 . S
H2574 C2604 0.950 . S
H2575 C2605 0.950 . S
C2576 H2558 0.951 . S
C2576 C2577 1.366 . S
C2576 C2578 1.388 . S
C2577 C2576 1.366 . S
C2577 C2581 1.385 . S
C2578 H2559 0.951 . S
C2578 C2576 1.388 . S
C2578 C2579 1.366 . S
C2579 C2578 1.366 . S
C2579 C2580 1.414 . S
C2579 C2582 1.499 . S
C2580 H2560 0.950 . S
C2580 C2579 1.414 . S
C2580 C2581 1.374 . S
C2581 H2561 0.950 . S
C2581 C2577 1.385 . S
C2581 C2580 1.374 . S
C2582 C2579 1.499 . S
C2582 C2583 1.373 . S
C2582 C2584 1.389 . S
C2583 H2562 0.950 . S
C2583 C2582 1.373 . S
C2583 C2599 1.377 . S
C2584 C2582 1.389 . S
C2584 C2585 1.524 . S
C2584 C2598 1.377 . S
C2585 C2584 1.524 . S
C2585 C2586 1.397 . S
C2585 C2590 1.363 . S
C2586 H2563 0.950 . S
C2586 C2585 1.397 . S
C2586 C2587 1.334 . S
C2587 H2564 0.950 . S
C2587 C2586 1.334 . S
C2587 C2588 1.287 . S
C2588 C2587 1.287 . S
C2588 C2589 1.524 . S
C2588 H2607 0.913 . S
C2589 H2565 0.950 . S
C2589 C2588 1.524 . S
C2589 C2590 1.415 . S
C2590 H2566 0.950 . S
C2590 C2585 1.363 . S
C2590 C2589 1.415 . S
C2591 H2567 0.951 . S
C2591 C2592 1.366 . S
C2591 C2593 1.388 . S
C2592 C2591 1.366 . S
C2592 C2596 1.385 . S
C2593 H2568 0.951 . S
C2593 C2591 1.388 . S
C2593 C2594 1.366 . S
C2594 C2593 1.366 . S
C2594 C2595 1.414 . S
C2594 C2597 1.499 . S
C2595 H2569 0.950 . S
C2595 C2594 1.414 . S
C2595 C2596 1.374 . S
C2596 H2570 0.950 . S
C2596 C2592 1.385 . S
C2596 C2595 1.374 . S
C2597 C2594 1.499 . S
C2597 C2598 1.373 . S
C2597 C2599 1.389 . S
C2598 H2571 0.950 . S
C2598 C2584 1.377 . S
C2598 C2597 1.373 . S
C2599 C2583 1.377 . S
C2599 C2597 1.389 . S
C2599 C2600 1.524 . S
C2600 C2599 1.524 . S
C2600 C2601 1.397 . S
C2600 C2605 1.363 . S
C2601 H2572 0.950 . S
C2601 C2600 1.397 . S
C2601 C2602 1.334 . S
C2602 H2573 0.950 . S
C2602 C2601 1.334 . S
C2602 C2603 1.287 . S
C2603 C2602 1.287 . S
C2603 C2604 1.524 . S
C2603 H2606 0.999 . S
C2604 H2574 0.950 . S
C2604 C2603 1.524 . S
C2604 C2605 1.415 . S
C2605 H2575 0.950 . S
C2605 C2600 1.363 . S
C2605 C2604 1.415 . S
H2606 C2603 0.999 . S
H2607 C2588 0.913 . S
H2608 C2626 0.951 . S
H2609 C2628 0.951 . S
H2610 C2630 0.950 . S
H2611 C2631 0.950 . S
H2612 C2633 0.950 . S
H2613 C2636 0.950 . S
H2614 C2637 0.950 . S
H2615 C2639 0.950 . S
H2616 C2640 0.950 . S
H2617 C2641 0.951 . S
H2618 C2643 0.951 . S
H2619 C2645 0.950 . S
H2620 C2646 0.950 . S
H2621 C2648 0.950 . S
H2622 C2651 0.950 . S
H2623 C2652 0.950 . S
H2624 C2654 0.950 . S
H2625 C2655 0.950 . S
C2626 H2608 0.951 . S
C2626 C2627 1.366 . S
C2626 C2628 1.388 . S
C2627 C2626 1.366 . S
C2627 C2631 1.385 . S
C2628 H2609 0.951 . S
C2628 C2626 1.388 . S
C2628 C2629 1.366 . S
C2629 C2628 1.366 . S
C2629 C2630 1.414 . S
C2629 C2632 1.499 . S
C2630 H2610 0.950 . S
C2630 C2629 1.414 . S
C2630 C2631 1.374 . S
C2631 H2611 0.950 . S
C2631 C2627 1.385 . S
C2631 C2630 1.374 . S
C2632 C2629 1.499 . S
C2632 C2633 1.373 . S
C2632 C2634 1.389 . S
C2633 H2612 0.950 . S
C2633 C2632 1.373 . S
C2633 C2649 1.377 . S
C2634 C2632 1.389 . S
C2634 C2635 1.524 . S
C2634 C2648 1.377 . S
C2635 C2634 1.524 . S
C2635 C2636 1.397 . S
C2635 C2640 1.363 . S
C2636 H2613 0.950 . S
C2636 C2635 1.397 . S
C2636 C2637 1.334 . S
C2637 H2614 0.950 . S
C2637 C2636 1.334 . S
C2637 C2638 1.287 . S
C2638 C2637 1.287 . S
C2638 C2639 1.524 . S
C2638 H2657 0.913 . S
C2639 H2615 0.950 . S
C2639 C2638 1.524 . S
C2639 C2640 1.415 . S
C2640 H2616 0.950 . S
C2640 C2635 1.363 . S
C2640 C2639 1.415 . S
C2641 H2617 0.951 . S
C2641 C2642 1.366 . S
C2641 C2643 1.388 . S
C2642 C2641 1.366 . S
C2642 C2646 1.385 . S
C2643 H2618 0.951 . S
C2643 C2641 1.388 . S
C2643 C2644 1.366 . S
C2644 C2643 1.366 . S
C2644 C2645 1.414 . S
C2644 C2647 1.499 . S
C2645 H2619 0.950 . S
C2645 C2644 1.414 . S
C2645 C2646 1.374 . S
C2646 H2620 0.950 . S
C2646 C2642 1.385 . S
C2646 C2645 1.374 . S
C2647 C2644 1.499 . S
C2647 C2648 1.373 . S
C2647 C2649 1.389 . S
C2648 H2621 0.950 . S
C2648 C2634 1.377 . S
C2648 C2647 1.373 . S
C2649 C2633 1.377 . S
C2649 C2647 1.389 . S
C2649 C2650 1.524 . S
C2650 C2649 1.524 . S
C2650 C2651 1.397 . S
C2650 C2655 1.363 . S
C2651 H2622 0.950 . S
C2651 C2650 1.397 . S
C2651 C2652 1.334 . S
C2652 H2623 0.950 . S
C2652 C2651 1.334 . S
C2652 C2653 1.287 . S
C2653 C2652 1.287 . S
C2653 C2654 1.524 . S
C2653 H2656 0.999 . S
C2654 H2624 0.950 . S
C2654 C2653 1.524 . S
C2654 C2655 1.415 . S
C2655 H2625 0.950 . S
C2655 C2650 1.363 . S
C2655 C2654 1.415 . S
H2656 C2653 0.999 . S
H2657 C2638 0.913 . S
H2658 C2676 0.951 . S
H2659 C2678 0.951 . S
H2660 C2680 0.950 . S
H2661 C2681 0.950 . S
H2662 C2683 0.950 . S
H2663 C2686 0.950 . S
H2664 C2687 0.950 . S
H2665 C2689 0.950 . S
H2666 C2690 0.950 . S
H2667 C2691 0.951 . S
H2668 C2693 0.951 . S
H2669 C2695 0.950 . S
H2670 C2696 0.950 . S
H2671 C2698 0.950 . S
H2672 C2701 0.950 . S
H2673 C2702 0.950 . S
H2674 C2704 0.950 . S
H2675 C2705 0.950 . S
C2676 H2658 0.951 . S
C2676 C2677 1.366 . S
C2676 C2678 1.388 . S
C2677 C2676 1.366 . S
C2677 C2681 1.385 . S
C2678 H2659 0.951 . S
C2678 C2676 1.388 . S
C2678 C2679 1.366 . S
C2679 C2678 1.366 . S
C2679 C2680 1.414 . S
C2679 C2682 1.499 . S
C2680 H2660 0.950 . S
C2680 C2679 1.414 . S
C2680 C2681 1.374 . S
C2681 H2661 0.950 . S
C2681 C2677 1.385 . S
C2681 C2680 1.374 . S
C2682 C2679 1.499 . S
C2682 C2683 1.373 . S
C2682 C2684 1.389 . S
C2683 H2662 0.950 . S
C2683 C2682 1.373 . S
C2683 C2699 1.377 . S
C2684 C2682 1.389 . S
C2684 C2685 1.524 . S
C2684 C2698 1.377 . S
C2685 C2684 1.524 . S
C2685 C2686 1.397 . S
C2685 C2690 1.363 . S
C2686 H2663 0.950 . S
C2686 C2685 1.397 . S
C2686 C2687 1.334 . S
C2687 H2664 0.950 . S
C2687 C2686 1.334 . S
C2687 C2688 1.287 . S
C2688 C2687 1.287 . S
C2688 C2689 1.524 . S
C2688 H2707 0.913 . S
C2689 H2665 0.950 . S
C2689 C2688 1.524 . S
C2689 C2690 1.415 . S
C2690 H2666 0.950 . S
C2690 C2685 1.363 . S
C2690 C2689 1.415 . S
C2691 H2667 0.951 . S
C2691 C2692 1.366 . S
C2691 C2693 1.388 . S
C2692 C2691 1.366 . S
C2692 C2696 1.385 . S
C2693 H2668 0.951 . S
C2693 C2691 1.388 . S
C2693 C2694 1.366 . S
C2694 C2693 1.366 . S
C2694 C2695 1.414 . S
C2694 C2697 1.499 . S
C2695 H2669 0.950 . S
C2695 C2694 1.414 . S
C2695 C2696 1.374 . S
C2696 H2670 0.950 . S
C2696 C2692 1.385 . S
C2696 C2695 1.374 . S
C2697 C2694 1.499 . S
C2697 C2698 1.373 . S
C2697 C2699 1.389 . S
C2698 H2671 0.950 . S
C2698 C2684 1.377 . S
C2698 C2697 1.373 . S
C2699 C2683 1.377 . S
C2699 C2697 1.389 . S
C2699 C2700 1.524 . S
C2700 C2699 1.524 . S
C2700 C2701 1.397 . S
C2700 C2705 1.363 . S
C2701 H2672 0.950 . S
C2701 C2700 1.397 . S
C2701 C2702 1.334 . S
C2702 H2673 0.950 . S
C2702 C2701 1.334 . S
C2702 C2703 1.287 . S
C2703 C2702 1.287 . S
C2703 C2704 1.524 . S
C2703 H2706 0.999 . S
C2704 H2674 0.950 . S
C2704 C2703 1.524 . S
C2704 C2705 1.415 . S
C2705 H2675 0.950 . S
C2705 C2700 1.363 . S
C2705 C2704 1.415 . S
H2706 C2703 0.999 . S
H2707 C2688 0.913 . S
H2708 C2726 0.951 . S
H2709 C2728 0.951 . S
H2710 C2730 0.950 . S
H2711 C2731 0.950 . S
H2712 C2733 0.950 . S
H2713 C2736 0.950 . S
H2714 C2737 0.950 . S
H2715 C2739 0.950 . S
H2716 C2740 0.950 . S
H2717 C2741 0.951 . S
H2718 C2743 0.951 . S
H2719 C2745 0.950 . S
H2720 C2746 0.950 . S
H2721 C2748 0.950 . S
H2722 C2751 0.950 . S
H2723 C2752 0.950 . S
H2724 C2754 0.950 . S
H2725 C2755 0.950 . S
C2726 H2708 0.951 . S
C2726 C2727 1.366 . S
C2726 C2728 1.388 . S
C2727 C2726 1.366 . S
C2727 C2731 1.385 . S
C2728 H2709 0.951 . S
C2728 C2726 1.388 . S
C2728 C2729 1.366 . S
C2729 C2728 1.366 . S
C2729 C2730 1.414 . S
C2729 C2732 1.499 . S
C2730 H2710 0.950 . S
C2730 C2729 1.414 . S
C2730 C2731 1.374 . S
C2731 H2711 0.950 . S
C2731 C2727 1.385 . S
C2731 C2730 1.374 . S
C2732 C2729 1.499 . S
C2732 C2733 1.373 . S
C2732 C2734 1.389 . S
C2733 H2712 0.950 . S
C2733 C2732 1.373 . S
C2733 C2749 1.377 . S
C2734 C2732 1.389 . S
C2734 C2735 1.524 . S
C2734 C2748 1.377 . S
C2735 C2734 1.524 . S
C2735 C2736 1.397 . S
C2735 C2740 1.363 . S
C2736 H2713 0.950 . S
C2736 C2735 1.397 . S
C2736 C2737 1.334 . S
C2737 H2714 0.950 . S
C2737 C2736 1.334 . S
C2737 C2738 1.287 . S
C2738 C2737 1.287 . S
C2738 C2739 1.524 . S
C2738 H2757 0.913 . S
C2739 H2715 0.950 . S
C2739 C2738 1.524 . S
C2739 C2740 1.415 . S
C2740 H2716 0.950 . S
C2740 C2735 1.363 . S
C2740 C2739 1.415 . S
C2741 H2717 0.951 . S
C2741 C2742 1.366 . S
C2741 C2743 1.388 . S
C2742 C2741 1.366 . S
C2742 C2746 1.385 . S
C2743 H2718 0.951 . S
C2743 C2741 1.388 . S
C2743 C2744 1.366 . S
C2744 C2743 1.366 . S
C2744 C2745 1.414 . S
C2744 C2747 1.499 . S
C2745 H2719 0.950 . S
C2745 C2744 1.414 . S
C2745 C2746 1.374 . S
C2746 H2720 0.950 . S
C2746 C2742 1.385 . S
C2746 C2745 1.374 . S
C2747 C2744 1.499 . S
C2747 C2748 1.373 . S
C2747 C2749 1.389 . S
C2748 H2721 0.950 . S
C2748 C2734 1.377 . S
C2748 C2747 1.373 . S
C2749 C2733 1.377 . S
C2749 C2747 1.389 . S
C2749 C2750 1.524 . S
C2750 C2749 1.524 . S
C2750 C2751 1.397 . S
C2750 C2755 1.363 . S
C2751 H2722 0.950 . S
C2751 C2750 1.397 . S
C2751 C2752 1.334 . S
C2752 H2723 0.950 . S
C2752 C2751 1.334 . S
C2752 C2753 1.287 . S
C2753 C2752 1.287 . S
C2753 C2754 1.524 . S
C2753 H2756 0.999 . S
C2754 H2724 0.950 . S
C2754 C2753 1.524 . S
C2754 C2755 1.415 . S
C2755 H2725 0.950 . S
C2755 C2750 1.363 . S
C2755 C2754 1.415 . S
H2756 C2753 0.999 . S
H2757 C2738 0.913 . S
H2758 C2776 0.951 . S
H2759 C2778 0.951 . S
H2760 C2780 0.950 . S
H2761 C2781 0.950 . S
H2762 C2783 0.950 . S
H2763 C2786 0.950 . S
H2764 C2787 0.950 . S
H2765 C2789 0.950 . S
H2766 C2790 0.950 . S
H2767 C2791 0.951 . S
H2768 C2793 0.951 . S
H2769 C2795 0.950 . S
H2770 C2796 0.950 . S
H2771 C2798 0.950 . S
H2772 C2801 0.950 . S
H2773 C2802 0.950 . S
H2774 C2804 0.950 . S
H2775 C2805 0.950 . S
C2776 H2758 0.951 . S
C2776 C2777 1.366 . S
C2776 C2778 1.388 . S
C2777 C2776 1.366 . S
C2777 C2781 1.385 . S
C2778 H2759 0.951 . S
C2778 C2776 1.388 . S
C2778 C2779 1.366 . S
C2779 C2778 1.366 . S
C2779 C2780 1.414 . S
C2779 C2782 1.499 . S
C2780 H2760 0.950 . S
C2780 C2779 1.414 . S
C2780 C2781 1.374 . S
C2781 H2761 0.950 . S
C2781 C2777 1.385 . S
C2781 C2780 1.374 . S
C2782 C2779 1.499 . S
C2782 C2783 1.373 . S
C2782 C2784 1.389 . S
C2783 H2762 0.950 . S
C2783 C2782 1.373 . S
C2783 C2799 1.377 . S
C2784 C2782 1.389 . S
C2784 C2785 1.524 . S
C2784 C2798 1.377 . S
C2785 C2784 1.524 . S
C2785 C2786 1.397 . S
C2785 C2790 1.363 . S
C2786 H2763 0.950 . S
C2786 C2785 1.397 . S
C2786 C2787 1.334 . S
C2787 H2764 0.950 . S
C2787 C2786 1.334 . S
C2787 C2788 1.287 . S
C2788 C2787 1.287 . S
C2788 C2789 1.524 . S
C2788 H2807 0.913 . S
C2789 H2765 0.950 . S
C2789 C2788 1.524 . S
C2789 C2790 1.415 . S
C2790 H2766 0.950 . S
C2790 C2785 1.363 . S
C2790 C2789 1.415 . S
C2791 H2767 0.951 . S
C2791 C2792 1.366 . S
C2791 C2793 1.388 . S
C2792 C2791 1.366 . S
C2792 C2796 1.385 . S
C2793 H2768 0.951 . S
C2793 C2791 1.388 . S
C2793 C2794 1.366 . S
C2794 C2793 1.366 . S
C2794 C2795 1.414 . S
C2794 C2797 1.499 . S
C2795 H2769 0.950 . S
C2795 C2794 1.414 . S
C2795 C2796 1.374 . S
C2796 H2770 0.950 . S
C2796 C2792 1.385 . S
C2796 C2795 1.374 . S
C2797 C2794 1.499 . S
C2797 C2798 1.373 . S
C2797 C2799 1.389 . S
C2798 H2771 0.950 . S
C2798 C2784 1.377 . S
C2798 C2797 1.373 . S
C2799 C2783 1.377 . S
C2799 C2797 1.389 . S
C2799 C2800 1.524 . S
C2800 C2799 1.524 . S
C2800 C2801 1.397 . S
C2800 C2805 1.363 . S
C2801 H2772 0.950 . S
C2801 C2800 1.397 . S
C2801 C2802 1.334 . S
C2802 H2773 0.950 . S
C2802 C2801 1.334 . S
C2802 C2803 1.287 . S
C2803 C2802 1.287 . S
C2803 C2804 1.524 . S
C2803 H2806 0.999 . S
C2804 H2774 0.950 . S
C2804 C2803 1.524 . S
C2804 C2805 1.415 . S
C2805 H2775 0.950 . S
C2805 C2800 1.363 . S
C2805 C2804 1.415 . S
H2806 C2803 0.999 . S
H2807 C2788 0.913 . S
H2808 C2826 0.951 . S
H2809 C2828 0.951 . S
H2810 C2830 0.950 . S
H2811 C2831 0.950 . S
H2812 C2833 0.950 . S
H2813 C2836 0.950 . S
H2814 C2837 0.950 . S
H2815 C2839 0.950 . S
H2816 C2840 0.950 . S
H2817 C2841 0.951 . S
H2818 C2843 0.951 . S
H2819 C2845 0.950 . S
H2820 C2846 0.950 . S
H2821 C2848 0.950 . S
H2822 C2851 0.950 . S
H2823 C2852 0.950 . S
H2824 C2854 0.950 . S
H2825 C2855 0.950 . S
C2826 H2808 0.951 . S
C2826 C2827 1.366 . S
C2826 C2828 1.388 . S
C2827 C2826 1.366 . S
C2827 C2831 1.385 . S
C2828 H2809 0.951 . S
C2828 C2826 1.388 . S
C2828 C2829 1.366 . S
C2829 C2828 1.366 . S
C2829 C2830 1.414 . S
C2829 C2832 1.499 . S
C2830 H2810 0.950 . S
C2830 C2829 1.414 . S
C2830 C2831 1.374 . S
C2831 H2811 0.950 . S
C2831 C2827 1.385 . S
C2831 C2830 1.374 . S
C2832 C2829 1.499 . S
C2832 C2833 1.373 . S
C2832 C2834 1.389 . S
C2833 H2812 0.950 . S
C2833 C2832 1.373 . S
C2833 C2849 1.377 . S
C2834 C2832 1.389 . S
C2834 C2835 1.524 . S
C2834 C2848 1.377 . S
C2835 C2834 1.524 . S
C2835 C2836 1.397 . S
C2835 C2840 1.363 . S
C2836 H2813 0.950 . S
C2836 C2835 1.397 . S
C2836 C2837 1.334 . S
C2837 H2814 0.950 . S
C2837 C2836 1.334 . S
C2837 C2838 1.287 . S
C2838 C2837 1.287 . S
C2838 C2839 1.524 . S
C2838 H2857 0.913 . S
C2839 H2815 0.950 . S
C2839 C2838 1.524 . S
C2839 C2840 1.415 . S
C2840 H2816 0.950 . S
C2840 C2835 1.363 . S
C2840 C2839 1.415 . S
C2841 H2817 0.951 . S
C2841 C2842 1.366 . S
C2841 C2843 1.388 . S
C2842 C2841 1.366 . S
C2842 C2846 1.385 . S
C2843 H2818 0.951 . S
C2843 C2841 1.388 . S
C2843 C2844 1.366 . S
C2844 C2843 1.366 . S
C2844 C2845 1.414 . S
C2844 C2847 1.499 . S
C2845 H2819 0.950 . S
C2845 C2844 1.414 . S
C2845 C2846 1.374 . S
C2846 H2820 0.950 . S
C2846 C2842 1.385 . S
C2846 C2845 1.374 . S
C2847 C2844 1.499 . S
C2847 C2848 1.373 . S
C2847 C2849 1.389 . S
C2848 H2821 0.950 . S
C2848 C2834 1.377 . S
C2848 C2847 1.373 . S
C2849 C2833 1.377 . S
C2849 C2847 1.389 . S
C2849 C2850 1.524 . S
C2850 C2849 1.524 . S
C2850 C2851 1.397 . S
C2850 C2855 1.363 . S
C2851 H2822 0.950 . S
C2851 C2850 1.397 . S
C2851 C2852 1.334 . S
C2852 H2823 0.950 . S
C2852 C2851 1.334 . S
C2852 C2853 1.287 . S
C2853 C2852 1.287 . S
C2853 C2854 1.524 . S
C2853 H2856 0.999 . S
C2854 H2824 0.950 . S
C2854 C2853 1.524 . S
C2854 C2855 1.415 . S
C2855 H2825 0.950 . S
C2855 C2850 1.363 . S
C2855 C2854 1.415 . S
H2856 C2853 0.999 . S
H2857 C2838 0.913 . S
H2858 C2876 0.951 . S
H2859 C2878 0.951 . S
H2860 C2880 0.950 . S
H2861 C2881 0.950 . S
H2862 C2883 0.950 . S
H2863 C2886 0.950 . S
H2864 C2887 0.950 . S
H2865 C2889 0.950 . S
H2866 C2890 0.950 . S
H2867 C2891 0.951 . S
H2868 C2893 0.951 . S
H2869 C2895 0.950 . S
H2870 C2896 0.950 . S
H2871 C2898 0.950 . S
H2872 C2901 0.950 . S
H2873 C2902 0.950 . S
H2874 C2904 0.950 . S
H2875 C2905 0.950 . S
C2876 H2858 0.951 . S
C2876 C2877 1.366 . S
C2876 C2878 1.388 . S
C2877 C2876 1.366 . S
C2877 C2881 1.385 . S
C2878 H2859 0.951 . S
C2878 C2876 1.388 . S
C2878 C2879 1.366 . S
C2879 C2878 1.366 . S
C2879 C2880 1.414 . S
C2879 C2882 1.499 . S
C2880 H2860 0.950 . S
C2880 C2879 1.414 . S
C2880 C2881 1.374 . S
C2881 H2861 0.950 . S
C2881 C2877 1.385 . S
C2881 C2880 1.374 . S
C2882 C2879 1.499 . S
C2882 C2883 1.373 . S
C2882 C2884 1.389 . S
C2883 H2862 0.950 . S
C2883 C2882 1.373 . S
C2883 C2899 1.377 . S
C2884 C2882 1.389 . S
C2884 C2885 1.524 . S
C2884 C2898 1.377 . S
C2885 C2884 1.524 . S
C2885 C2886 1.397 . S
C2885 C2890 1.363 . S
C2886 H2863 0.950 . S
C2886 C2885 1.397 . S
C2886 C2887 1.334 . S
C2887 H2864 0.950 . S
C2887 C2886 1.334 . S
C2887 C2888 1.287 . S
C2888 C2887 1.287 . S
C2888 C2889 1.524 . S
C2888 H2907 0.913 . S
C2889 H2865 0.950 . S
C2889 C2888 1.524 . S
C2889 C2890 1.415 . S
C2890 H2866 0.950 . S
C2890 C2885 1.363 . S
C2890 C2889 1.415 . S
C2891 H2867 0.951 . S
C2891 C2892 1.366 . S
C2891 C2893 1.388 . S
C2892 C2891 1.366 . S
C2892 C2896 1.385 . S
C2893 H2868 0.951 . S
C2893 C2891 1.388 . S
C2893 C2894 1.366 . S
C2894 C2893 1.366 . S
C2894 C2895 1.414 . S
C2894 C2897 1.499 . S
C2895 H2869 0.950 . S
C2895 C2894 1.414 . S
C2895 C2896 1.374 . S
C2896 H2870 0.950 . S
C2896 C2892 1.385 . S
C2896 C2895 1.374 . S
C2897 C2894 1.499 . S
C2897 C2898 1.373 . S
C2897 C2899 1.389 . S
C2898 H2871 0.950 . S
C2898 C2884 1.377 . S
C2898 C2897 1.373 . S
C2899 C2883 1.377 . S
C2899 C2897 1.389 . S
C2899 C2900 1.524 . S
C2900 C2899 1.524 . S
C2900 C2901 1.397 . S
C2900 C2905 1.363 . S
C2901 H2872 0.950 . S
C2901 C2900 1.397 . S
C2901 C2902 1.334 . S
C2902 H2873 0.950 . S
C2902 C2901 1.334 . S
C2902 C2903 1.287 . S
C2903 C2902 1.287 . S
C2903 C2904 1.524 . S
C2903 H2906 0.999 . S
C2904 H2874 0.950 . S
C2904 C2903 1.524 . S
C2904 C2905 1.415 . S
C2905 H2875 0.950 . S
C2905 C2900 1.363 . S
C2905 C2904 1.415 . S
H2906 C2903 0.999 . S
H2907 C2888 0.913 . S
H2908 C2926 0.951 . S
H2909 C2928 0.951 . S
H2910 C2930 0.950 . S
H2911 C2931 0.950 . S
H2912 C2933 0.950 . S
H2913 C2936 0.950 . S
H2914 C2937 0.950 . S
H2915 C2939 0.950 . S
H2916 C2940 0.950 . S
H2917 C2941 0.951 . S
H2918 C2943 0.951 . S
H2919 C2945 0.950 . S
H2920 C2946 0.950 . S
H2921 C2948 0.950 . S
H2922 C2951 0.950 . S
H2923 C2952 0.950 . S
H2924 C2954 0.950 . S
H2925 C2955 0.950 . S
C2926 H2908 0.951 . S
C2926 C2927 1.366 . S
C2926 C2928 1.388 . S
C2927 C2926 1.366 . S
C2927 C2931 1.385 . S
C2928 H2909 0.951 . S
C2928 C2926 1.388 . S
C2928 C2929 1.366 . S
C2929 C2928 1.366 . S
C2929 C2930 1.414 . S
C2929 C2932 1.499 . S
C2930 H2910 0.950 . S
C2930 C2929 1.414 . S
C2930 C2931 1.374 . S
C2931 H2911 0.950 . S
C2931 C2927 1.385 . S
C2931 C2930 1.374 . S
C2932 C2929 1.499 . S
C2932 C2933 1.373 . S
C2932 C2934 1.389 . S
C2933 H2912 0.950 . S
C2933 C2932 1.373 . S
C2933 C2949 1.377 . S
C2934 C2932 1.389 . S
C2934 C2935 1.524 . S
C2934 C2948 1.377 . S
C2935 C2934 1.524 . S
C2935 C2936 1.397 . S
C2935 C2940 1.363 . S
C2936 H2913 0.950 . S
C2936 C2935 1.397 . S
C2936 C2937 1.334 . S
C2937 H2914 0.950 . S
C2937 C2936 1.334 . S
C2937 C2938 1.287 . S
C2938 C2937 1.287 . S
C2938 C2939 1.524 . S
C2938 H2957 0.913 . S
C2939 H2915 0.950 . S
C2939 C2938 1.524 . S
C2939 C2940 1.415 . S
C2940 H2916 0.950 . S
C2940 C2935 1.363 . S
C2940 C2939 1.415 . S
C2941 H2917 0.951 . S
C2941 C2942 1.366 . S
C2941 C2943 1.388 . S
C2942 C2941 1.366 . S
C2942 C2946 1.385 . S
C2943 H2918 0.951 . S
C2943 C2941 1.388 . S
C2943 C2944 1.366 . S
C2944 C2943 1.366 . S
C2944 C2945 1.414 . S
C2944 C2947 1.499 . S
C2945 H2919 0.950 . S
C2945 C2944 1.414 . S
C2945 C2946 1.374 . S
C2946 H2920 0.950 . S
C2946 C2942 1.385 . S
C2946 C2945 1.374 . S
C2947 C2944 1.499 . S
C2947 C2948 1.373 . S
C2947 C2949 1.389 . S
C2948 H2921 0.950 . S
C2948 C2934 1.377 . S
C2948 C2947 1.373 . S
C2949 C2933 1.377 . S
C2949 C2947 1.389 . S
C2949 C2950 1.524 . S
C2950 C2949 1.524 . S
C2950 C2951 1.397 . S
C2950 C2955 1.363 . S
C2951 H2922 0.950 . S
C2951 C2950 1.397 . S
C2951 C2952 1.334 . S
C2952 H2923 0.950 . S
C2952 C2951 1.334 . S
C2952 C2953 1.287 . S
C2953 C2952 1.287 . S
C2953 C2954 1.524 . S
C2953 H2956 0.999 . S
C2954 H2924 0.950 . S
C2954 C2953 1.524 . S
C2954 C2955 1.415 . S
C2955 H2925 0.950 . S
C2955 C2950 1.363 . S
C2955 C2954 1.415 . S
H2956 C2953 0.999 . S
H2957 C2938 0.913 . S
H2958 C2976 0.951 . S
H2959 C2978 0.951 . S
H2960 C2980 0.950 . S
H2961 C2981 0.950 . S
H2962 C2983 0.950 . S
H2963 C2986 0.950 . S
H2964 C2987 0.950 . S
H2965 C2989 0.950 . S
H2966 C2990 0.950 . S
H2967 C2991 0.951 . S
H2968 C2993 0.951 . S
H2969 C2995 0.950 . S
H2970 C2996 0.950 . S
H2971 C2998 0.950 . S
H2972 C3001 0.950 . S
H2973 C3002 0.950 . S
H2974 C3004 0.950 . S
H2975 C3005 0.950 . S
C2976 H2958 0.951 . S
C2976 C2977 1.366 . S
C2976 C2978 1.388 . S
C2977 C2976 1.366 . S
C2977 C2981 1.385 . S
C2978 H2959 0.951 . S
C2978 C2976 1.388 . S
C2978 C2979 1.366 . S
C2979 C2978 1.366 . S
C2979 C2980 1.414 . S
C2979 C2982 1.499 . S
C2980 H2960 0.950 . S
C2980 C2979 1.414 . S
C2980 C2981 1.374 . S
C2981 H2961 0.950 . S
C2981 C2977 1.385 . S
C2981 C2980 1.374 . S
C2982 C2979 1.499 . S
C2982 C2983 1.373 . S
C2982 C2984 1.389 . S
C2983 H2962 0.950 . S
C2983 C2982 1.373 . S
C2983 C2999 1.377 . S
C2984 C2982 1.389 . S
C2984 C2985 1.524 . S
C2984 C2998 1.377 . S
C2985 C2984 1.524 . S
C2985 C2986 1.397 . S
C2985 C2990 1.363 . S
C2986 H2963 0.950 . S
C2986 C2985 1.397 . S
C2986 C2987 1.334 . S
C2987 H2964 0.950 . S
C2987 C2986 1.334 . S
C2987 C2988 1.287 . S
C2988 C2987 1.287 . S
C2988 C2989 1.524 . S
C2988 H3007 0.913 . S
C2989 H2965 0.950 . S
C2989 C2988 1.524 . S
C2989 C2990 1.415 . S
C2990 H2966 0.950 . S
C2990 C2985 1.363 . S
C2990 C2989 1.415 . S
C2991 H2967 0.951 . S
C2991 C2992 1.366 . S
C2991 C2993 1.388 . S
C2992 C2991 1.366 . S
C2992 C2996 1.385 . S
C2993 H2968 0.951 . S
C2993 C2991 1.388 . S
C2993 C2994 1.366 . S
C2994 C2993 1.366 . S
C2994 C2995 1.414 . S
C2994 C2997 1.499 . S
C2995 H2969 0.950 . S
C2995 C2994 1.414 . S
C2995 C2996 1.374 . S
C2996 H2970 0.950 . S
C2996 C2992 1.385 . S
C2996 C2995 1.374 . S
C2997 C2994 1.499 . S
C2997 C2998 1.373 . S
C2997 C2999 1.389 . S
C2998 H2971 0.950 . S
C2998 C2984 1.377 . S
C2998 C2997 1.373 . S
C2999 C2983 1.377 . S
C2999 C2997 1.389 . S
C2999 C3000 1.524 . S
C3000 C2999 1.524 . S
C3000 C3001 1.397 . S
C3000 C3005 1.363 . S
C3001 H2972 0.950 . S
C3001 C3000 1.397 . S
C3001 C3002 1.334 . S
C3002 H2973 0.950 . S
C3002 C3001 1.334 . S
C3002 C3003 1.287 . S
C3003 C3002 1.287 . S
C3003 C3004 1.524 . S
C3003 H3006 0.999 . S
C3004 H2974 0.950 . S
C3004 C3003 1.524 . S
C3004 C3005 1.415 . S
C3005 H2975 0.950 . S
C3005 C3000 1.363 . S
C3005 C3004 1.415 . S
H3006 C3003 0.999 . S
H3007 C2988 0.913 . S
C1427 C409 0.717 . S
C1442 C20 0.717 1_556 S
C1477 C489 0.717 . S
C1492 C108 0.717 1_556 S
C1527 C585 0.717 . S
C1542 C205 0.717 1_556 S
C1577 C673 0.717 . S
C1592 C293 0.717 1_556 S
C1627 C1105 0.717 . S
C1642 C724 0.717 . S
C1677 C1193 0.717 . S
C1692 C812 0.717 . S
C1727 C909 0.717 . S
C1742 C1281 0.717 . S
C1777 C1377 0.717 . S
C1792 C997 0.717 . S
C1827 C49 1.127 . S
C1842 C460 1.127 1_556 S
C1877 C557 1.127 1_556 S
C1892 C137 1.126 . S
C1927 C233 1.127 . S
C1942 C645 1.126 1_556 S
C1977 C381 1.127 1_556 S
C1992 C321 1.127 . S
C2027 C1164 1.127 . S
C2042 C753 1.127 . S
C2077 C1252 1.127 . S
C2092 C841 1.127 . S
C2127 C937 1.127 . S
C2142 C1349 1.127 . S
C2177 C1025 1.127 . S
C2192 C1076 1.127 . S
C2227 C1369 1.517 . S
C2242 C29 1.514 . S
C2277 C1113 1.518 . S
C2292 C117 1.514 . S
C2327 C1201 1.518 . S
C2342 C196 1.514 . S
C2377 C1289 1.517 . S
C2392 C284 1.514 . S
C2427 C821 1.517 . S
C2442 C401 1.521 . S
C2477 C900 1.517 . S
C2492 C497 1.521 . S
C2527 C577 1.518 . S
C2542 C988 1.521 . S
C2577 C665 1.518 . S
C2592 C733 1.521 . S
C2627 C1173 1.518 . S
C2642 C225 1.522 . S
C2677 C1261 1.518 . S
C2692 C313 1.522 . S
C2727 C1340 1.518 . S
C2742 C57 1.522 . S
C2777 C145 1.518 . S
C2792 C1085 1.522 . S
C2827 C1017 1.518 . S
C2842 C548 1.515 . S
C2877 C636 1.518 . S
C2892 C761 1.514 . S
C2927 C849 1.518 . S
C2942 C372 1.515 . S
C2977 C929 1.518 . S
C2992 C469 1.515 . S
