# Generated by pormake.
# Topology wjf, (4)-cn, num edge types: 1
# Building blocks:
#     Node 0, Type 0, BuildingBlock: NAHDIM_clean_sbu_0, # of connection points: 4
#     Node 1, Type 0, BuildingBlock: NAHDIM_clean_sbu_0, # of connection points: 4
#     Node 2, Type 0, BuildingBlock: NAHDIM_clean_sbu_0, # of connection points: 4
#     Node 3, Type 0, BuildingBlock: NAHDIM_clean_sbu_0, # of connection points: 4
#     Node 4, Type 0, BuildingBlock: NAHDIM_clean_sbu_0, # of connection points: 4
#     Node 5, Type 0, BuildingBlock: NAHDIM_clean_sbu_0, # of connection points: 4
#     Node 6, Type 0, BuildingBlock: NAHDIM_clean_sbu_0, # of connection points: 4
#     Node 7, Type 0, BuildingBlock: NAHDIM_clean_sbu_0, # of connection points: 4
#     Node 8, Type 0, BuildingBlock: NAHDIM_clean_sbu_0, # of connection points: 4
#     Node 9, Type 0, BuildingBlock: NAHDIM_clean_sbu_0, # of connection points: 4
#     Node 10, Type 0, BuildingBlock: NAHDIM_clean_sbu_0, # of connection points: 4
#     Node 11, Type 0, BuildingBlock: NAHDIM_clean_sbu_0, # of connection points: 4
#     Edge 12, Type (0, 0), BuildingBlock: EZIPEK_clean_linker_0, # of connection points: 2
#     Edge 13, Type (0, 0), BuildingBlock: EZIPEK_clean_linker_0, # of connection points: 2
#     Edge 14, Type (0, 0), BuildingBlock: EZIPEK_clean_linker_0, # of connection points: 2
#     Edge 15, Type (0, 0), BuildingBlock: EZIPEK_clean_linker_0, # of connection points: 2
#     Edge 16, Type (0, 0), BuildingBlock: EZIPEK_clean_linker_0, # of connection points: 2
#     Edge 17, Type (0, 0), BuildingBlock: EZIPEK_clean_linker_0, # of connection points: 2
#     Edge 18, Type (0, 0), BuildingBlock: EZIPEK_clean_linker_0, # of connection points: 2
#     Edge 19, Type (0, 0), BuildingBlock: EZIPEK_clean_linker_0, # of connection points: 2
#     Edge 20, Type (0, 0), BuildingBlock: EZIPEK_clean_linker_0, # of connection points: 2
#     Edge 21, Type (0, 0), BuildingBlock: EZIPEK_clean_linker_0, # of connection points: 2
#     Edge 22, Type (0, 0), BuildingBlock: EZIPEK_clean_linker_0, # of connection points: 2
#     Edge 23, Type (0, 0), BuildingBlock: EZIPEK_clean_linker_0, # of connection points: 2
#     Edge 24, Type (0, 0), BuildingBlock: EZIPEK_clean_linker_0, # of connection points: 2
#     Edge 25, Type (0, 0), BuildingBlock: EZIPEK_clean_linker_0, # of connection points: 2
#     Edge 26, Type (0, 0), BuildingBlock: EZIPEK_clean_linker_0, # of connection points: 2
#     Edge 27, Type (0, 0), BuildingBlock: EZIPEK_clean_linker_0, # of connection points: 2
#     Edge 28, Type (0, 0), BuildingBlock: EZIPEK_clean_linker_0, # of connection points: 2
#     Edge 29, Type (0, 0), BuildingBlock: EZIPEK_clean_linker_0, # of connection points: 2
#     Edge 30, Type (0, 0), BuildingBlock: EZIPEK_clean_linker_0, # of connection points: 2
#     Edge 31, Type (0, 0), BuildingBlock: EZIPEK_clean_linker_0, # of connection points: 2
#     Edge 32, Type (0, 0), BuildingBlock: EZIPEK_clean_linker_0, # of connection points: 2
#     Edge 33, Type (0, 0), BuildingBlock: EZIPEK_clean_linker_0, # of connection points: 2
#     Edge 34, Type (0, 0), BuildingBlock: EZIPEK_clean_linker_0, # of connection points: 2
#     Edge 35, Type (0, 0), BuildingBlock: EZIPEK_clean_linker_0, # of connection points: 2
# Relax obj value: 0.230
# Max RMSD: 0.247
# Mean RMSD: 0.247
data_MOF--net-wjf--node1-NAHDIM_clean_sbu_0--edge1-EZIPEK_clean_linker_0
_symmetry_space_group_name_H-M    P1
_symmetry_Int_Tables_number       1
_symmetry_cell_setting            triclinic
loop_
_symmetry_equiv_pos_as_xyz
'x, y, z'
_cell_length_a     38.918799
_cell_length_b     38.824607
_cell_length_c     18.882652
_cell_angle_alpha  89.928727
_cell_angle_beta   90.182424
_cell_angle_gamma 119.67821
loop_
_atom_site_label
_atom_site_type_symbol
_atom_site_fract_x
_atom_site_fract_y
_atom_site_fract_z
_atom_type_partial_charge
C0 C 0.24865 0.37997 0.04468 0.0
O1 O 0.23896 0.3441 0.06602 0.0
O2 O 0.31509 0.35285 0.13182 0.0
Zn3 Zn 0.32405 0.38725 0.0466 0.0
O4 O 0.32389 0.36221 0.9539 0.0
C5 C 0.40615 0.42503 0.05492 0.0
O6 O 0.39742 0.38792 0.04794 0.0
O7 O 0.2848 0.40586 0.03822 0.0
C8 C 0.29618 0.33261 0.92214 0.0
O9 O 0.26207 0.31068 0.95354 0.0
C10 C 0.30634 0.31674 0.13475 0.0
O11 O 0.30007 0.29608 0.07644 0.0
O12 O 0.37853 0.43348 0.05671 0.0
C13 C 0.85168 0.25718 0.38518 0.0
O14 O 0.88159 0.25205 0.3689 0.0
O15 O 0.93563 0.30879 0.52169 0.0
Zn16 Zn 0.91537 0.32515 0.43844 0.0
O17 O 0.94335 0.32817 0.34874 0.0
C18 C 0.96416 0.40434 0.47076 0.0
O19 O -0.01112 0.39055 0.4731 0.0
O20 O 0.85781 0.28779 0.41971 0.0
C21 C 0.96568 0.31433 0.33213 0.0
O22 O 0.97554 0.29585 0.3793 0.0
C23 C 0.92955 0.27552 0.54472 0.0
O24 O 0.90686 0.24269 0.5098 0.0
O25 O 0.92781 0.38091 0.45724 0.0
C26 C 0.54109 0.83508 0.73686 0.0
O27 O 0.51471 0.84485 0.75653 0.0
O28 O 0.62257 0.92399 0.86984 0.0
Zn29 Zn 0.60122 0.91652 0.77002 0.0
O30 O 0.64192 0.94636 0.69564 0.0
C31 C 0.55939 0.96058 0.79468 0.0
O32 O 0.58719 0.98019 0.84179 0.0
O33 O 0.57777 0.85982 0.74201 0.0
C34 C 0.65323 0.98233 0.68117 0.0
O35 O 0.6418 0.00159 0.72326 0.0
C36 C 0.64833 0.95733 0.8946 0.0
O37 O 0.66561 0.98799 0.85211 0.0
O38 O 0.55894 0.93218 0.76059 0.0
C39 C 0.72681 0.62309 0.0344 0.0
O40 O 0.72831 0.6564 0.01565 0.0
O41 O 0.64839 0.63822 0.12651 0.0
Zn42 Zn 0.64812 0.60278 0.04954 0.0
O43 O 0.64769 0.62117 0.95067 0.0
C44 C 0.56664 0.55431 0.05628 0.0
O45 O 0.56988 0.58929 0.04673 0.0
O46 O 0.69439 0.59426 0.05559 0.0
C47 C 0.63832 0.64608 0.92746 0.0
O48 O 0.62791 0.66544 0.97141 0.0
C49 C 0.66479 0.67542 0.13588 0.0
O50 O 0.68784 0.70016 0.08714 0.0
O51 O 0.59768 0.55142 0.06106 0.0
C52 C 0.13784 0.72746 0.43516 0.0
O53 O 0.11021 0.73609 0.45155 0.0
O54 O 0.06076 0.67464 0.5545 0.0
Zn55 Zn 0.07373 0.65685 0.46363 0.0
O56 O 0.04833 0.66616 0.37877 0.0
C57 C 0.02575 0.57318 0.49337 0.0
O58 O 0.00211 0.5845 0.52124 0.0
O59 O 0.13095 0.69207 0.44232 0.0
C60 C 0.01454 0.64339 0.35241 0.0
O61 O -0.01016 0.61034 0.3846 0.0
C62 C 0.02684 0.67015 0.5678 0.0
O63 O -0.00057 0.65623 0.51838 0.0
O64 O 0.05883 0.59892 0.46772 0.0
C65 C 0.41148 0.13177 0.71859 0.0
O66 O 0.37385 0.10484 0.72042 0.0
O67 O 0.37708 0.03758 0.81048 0.0
Zn68 Zn 0.41283 0.06223 0.72705 0.0
O69 O 0.38303 0.04694 0.63539 0.0
C70 C 0.44415 0.01102 0.74998 0.0
O71 O 0.407 0.98674 0.7657 0.0
O72 O 0.4373 0.12129 0.72813 0.0
C73 C 0.37353 0.01656 0.59766 0.0
O74 O 0.38129 0.98901 0.61934 0.0
C75 C 0.33952 0.0191 0.8118 0.0
O76 O 0.31906 0.01477 0.75381 0.0
O77 O 0.45464 0.04605 0.7296 0.0
C78 C 0.55039 0.71622 0.58608 0.0
O79 O 0.58873 0.72994 0.58451 0.0
O80 O 0.58443 0.67967 0.43621 0.0
Zn81 Zn 0.55673 0.65507 0.52842 0.0
O82 O 0.59076 0.66006 0.61289 0.0
C83 C 0.53155 0.5745 0.49185 0.0
O84 O 0.5684 0.59009 0.47102 0.0
O85 O 0.52724 0.68221 0.56046 0.0
C86 C 0.61533 0.64846 0.62673 0.0
O87 O 0.62571 0.63139 0.57795 0.0
C88 C 0.61618 0.68139 0.41511 0.0
O89 O 0.63645 0.67188 0.45861 0.0
O90 O 0.51891 0.59682 0.51539 0.0
C91 C 0.868 0.6165 0.97676 0.0
O92 O 0.90001 0.65033 0.99 0.0
O93 O 0.95473 0.63098 0.86561 0.0
Zn94 Zn 0.9265 0.5971 0.94902 0.0
O95 O 0.9533 0.61838 0.04225 0.0
C96 C 0.96495 0.55461 0.93046 0.0
O97 O -0.00597 0.59132 0.936 0.0
O98 O 0.871 0.58703 0.95592 0.0
C99 C 0.97422 0.65355 0.06481 0.0
O100 O 0.98284 0.68404 0.02375 0.0
C101 C 0.96601 0.66594 0.84399 0.0
O102 O 0.96009 0.69071 0.88229 0.0
O103 O 0.92939 0.54746 0.93435 0.0
C104 C 0.24826 0.86108 0.27844 0.0
O105 O 0.23558 0.88675 0.27725 0.0
O106 O 0.30017 0.93386 0.1227 0.0
Zn107 Zn 0.31479 0.92702 0.22245 0.0
O108 O 0.30645 0.95927 0.29628 0.0
C109 C 0.39994 0.96799 0.19515 0.0
O110 O 0.39258 0.98857 0.14846 0.0
O111 O 0.28215 0.87082 0.25397 0.0
C112 C 0.33159 -0.00496 0.31019 0.0
O113 O 0.36203 0.01336 0.26774 0.0
C114 C 0.309 0.96756 0.09735 0.0
O115 O 0.32357 -0.00147 0.13935 0.0
O116 O 0.37181 0.9404 0.22965 0.0
C117 C 0.40356 0.25771 0.58828 0.0
O118 O 0.36534 0.24319 0.57974 0.0
O119 O 0.37283 0.30027 0.44419 0.0
Zn120 Zn 0.39862 0.32172 0.53899 0.0
O121 O 0.35985 0.31083 0.61716 0.0
C122 C 0.43122 0.4043 0.49585 0.0
O123 O 0.3996 0.3903 0.45565 0.0
O124 O 0.42713 0.29338 0.57086 0.0
C125 C 0.34629 0.33298 0.63672 0.0
O126 O 0.35308 0.36405 0.59879 0.0
C127 C 0.34446 0.30456 0.42131 0.0
O128 O 0.32771 0.31856 0.46401 0.0
O129 O 0.43727 0.38086 0.53424 0.0
C130 C 0.11088 0.38045 0.94325 0.0
O131 O 0.0811 0.34405 0.94764 0.0
O132 O 0.02483 0.34515 0.84019 0.0
Zn133 Zn 0.04651 0.38786 0.91512 0.0
O134 O 0.02757 0.36741 0.01244 0.0
C135 C 0.00206 0.4285 0.9152 0.0
O136 O 0.97562 0.39529 0.94471 0.0
O137 O 0.10441 0.40815 0.92456 0.0
C138 C -0.0039 0.33745 0.03352 0.0
O139 O 0.96928 0.31406 0.98754 0.0
C140 C -0.00728 0.33566 0.80796 0.0
O141 O 0.97109 0.35118 0.82785 0.0
O142 O 0.03505 0.43244 0.89559 0.0
C143 C 0.71623 0.12226 0.27864 0.0
O144 O 0.72547 0.0941 0.28374 0.0
O145 O 0.65422 0.02888 0.18207 0.0
Zn146 Zn 0.64449 0.05466 0.26553 0.0
O147 O 0.65693 0.03738 0.35717 0.0
C148 C 0.56228 0.00798 0.23995 0.0
O149 O 0.57322 0.98201 0.22352 0.0
O150 O 0.68083 0.11322 0.26475 0.0
C151 C 0.63485 0.00715 0.39402 0.0
O152 O 0.59941 0.98119 0.37134 0.0
C153 C 0.6725 0.0094 0.18006 0.0
O154 O 0.68872 0.00458 0.23753 0.0
O155 O 0.58788 0.04215 0.26185 0.0
C156 C 0.35251 0.3125 0.21973 0.0
C157 C 0.31327 0.30226 0.20252 0.0
C158 C 0.29336 0.28102 0.3247 0.0
C159 C 0.33389 0.29942 0.34481 0.0
N160 N 0.40293 0.3385 0.30966 0.0
N161 N 0.24559 0.2769 0.23722 0.0
C162 C 0.36384 0.3161 0.29187 0.0
C163 C 0.2833 0.28614 0.25449 0.0
N164 N 0.37919 0.3197 0.16701 0.0
N165 N 0.26465 0.25808 0.37224 0.0
H166 H 0.23718 0.2787 0.1854 0.0
H167 H 0.22338 0.26944 0.27461 0.0
H168 H 0.27117 0.25249 0.42317 0.0
H169 H 0.23481 0.24138 0.35891 0.0
H170 H 0.40739 0.32383 0.17643 0.0
H171 H 0.37153 0.31707 0.11351 0.0
H172 H 0.42489 0.35489 0.27274 0.0
H173 H 0.41352 0.34456 0.3613 0.0
C174 C 0.92319 0.26261 0.67506 0.0
C175 C 0.94721 0.27539 0.61381 0.0
C176 C 0.00503 0.31974 0.68435 0.0
C177 C 0.98038 0.30943 0.74514 0.0
N178 N 0.92066 0.26183 0.80353 0.0
N179 N 0.01188 0.30315 0.56317 0.0
C180 C 0.94096 0.2775 0.74215 0.0
C181 C -0.01136 0.29925 0.62003 0.0
N182 N 0.88322 0.23871 0.66866 0.0
N183 N 0.04273 0.35117 0.68579 0.0
H184 H -0.00016 0.28809 0.51574 0.0
H185 H 0.04265 0.3176 0.56548 0.0
H186 H 0.05623 0.36771 0.73099 0.0
H187 H 0.05994 0.36273 0.64056 0.0
H188 H 0.86356 0.23257 0.71034 0.0
H189 H 0.86951 0.2262 0.62058 0.0
H190 H 0.89289 0.23648 0.80532 0.0
H191 H 0.93349 0.27205 0.85326 0.0
C192 C 0.62374 0.94877 0.02078 0.0
C193 C 0.65578 0.96316 0.97198 0.0
C194 C 0.70193 0.00232 0.06676 0.0
C195 C 0.66982 0.98771 0.11442 0.0
N196 N 0.60435 0.93628 0.14393 0.0
N197 N 0.72627 -0.00657 0.95414 0.0
C198 C 0.63216 0.95708 0.09368 0.0
C199 C 0.69528 0.98667 -0.00314 0.0
N200 N 0.58532 0.93034 -0.00196 0.0
N201 N 0.73821 0.03218 0.08726 0.0
H202 H 0.72226 0.98108 0.90366 0.0
H203 H 0.75555 0.00766 0.97141 0.0
H204 H 0.74414 0.04316 0.13894 0.0
H205 H 0.76164 0.04731 0.05227 0.0
H206 H 0.56169 0.92361 0.03182 0.0
H207 H 0.5768 0.92541 0.94514 0.0
H208 H 0.57722 0.91137 0.13222 0.0
H209 H 0.61051 0.94139 0.19799 0.0
C210 C 0.61285 0.67277 0.21393 0.0
C211 C 0.65365 0.6893 0.20008 0.0
C212 C 0.66823 0.71368 0.32193 0.0
C213 C 0.62776 0.68871 0.33943 0.0
N214 N 0.56159 0.63978 0.30047 0.0
N215 N 0.72122 0.72599 0.24071 0.0
C216 C 0.59975 0.66757 0.28494 0.0
C217 C 0.68181 0.71067 0.2536 0.0
N218 N 0.58662 0.66116 0.15887 0.0
N219 N 0.69348 0.74035 0.37044 0.0
H220 H 0.73224 0.72502 0.19097 0.0
H221 H 0.74271 0.73762 0.2803 0.0
H222 H 0.68404 0.74393 0.42017 0.0
H223 H 0.72254 0.76156 0.35869 0.0
H224 H 0.55667 0.65174 0.16549 0.0
H225 H 0.59587 0.66531 0.10618 0.0
H226 H 0.54179 0.62088 0.26244 0.0
H227 H 0.55043 0.63225 0.35152 0.0
C228 C 0.97562 0.69145 0.71828 0.0
C229 C -0.01134 0.67825 0.77721 0.0
C230 C 0.02835 0.66161 0.69999 0.0
C231 C 0.01679 0.67623 0.64072 0.0
N232 N -0.01058 0.71631 0.59799 0.0
N233 N 0.03831 0.66543 0.82672 0.0
C234 C -0.00637 0.69485 0.65129 0.0
C235 C 0.01899 0.66862 0.76874 0.0
N236 N 0.94472 0.69851 0.72485 0.0
N237 N 0.045 0.63806 0.69145 0.0
H238 H 0.03248 0.67132 0.8779 0.0
H239 H 0.06282 0.66141 0.82296 0.0
H240 H 0.0493 0.62856 0.6425 0.0
H241 H 0.05011 0.62385 0.7337 0.0
H242 H 0.9312 0.70364 0.68155 0.0
H243 H 0.93074 0.69651 0.77287 0.0
H244 H 0.97561 0.73319 0.60497 0.0
H245 H 0.00353 0.72075 0.54922 0.0
C246 C 0.32439 0.95744 0.97147 0.0
C247 C 0.30778 0.97334 0.01981 0.0
C248 C 0.30343 0.01412 0.92459 0.0
C249 C 0.31989 -0.00199 0.8774 0.0
N250 N 0.33105 0.94417 0.84855 0.0
N251 N 0.27032 0.00705 0.03665 0.0
C252 C 0.32508 0.96603 0.8985 0.0
C253 C 0.2936 -0.00145 -0.00557 0.0
N254 N 0.34271 0.93722 -0.00527 0.0
N255 N 0.29876 0.04524 0.9037 0.0
H256 H 0.26143 -0.00514 0.08707 0.0
H257 H 0.25656 0.02265 0.019 0.0
H258 H 0.30443 0.05622 0.85203 0.0
H259 H 0.29129 0.06132 0.93837 0.0
H260 H 0.35893 0.92928 0.96133 0.0
H261 H 0.34565 0.93187 0.04771 0.0
H262 H 0.33192 0.91839 0.86048 0.0
H263 H 0.33046 0.94945 0.79444 0.0
C264 C 0.18163 0.39962 0.92463 0.0
C265 C 0.1497 0.38923 0.97154 0.0
C266 C 0.18836 0.3846 0.07001 0.0
C267 C 0.21744 0.38841 0.0209 0.0
N268 N 0.24197 0.39815 0.90074 0.0
N269 N 0.12217 0.37381 0.08922 0.0
C270 C 0.21464 0.3964 0.94817 0.0
C271 C 0.15308 0.38264 0.04459 0.0
N272 N 0.18004 0.41189 0.8574 0.0
N273 N 0.1951 0.38382 0.14099 0.0
H274 H 0.09725 0.37543 0.07379 0.0
H275 H 0.12044 0.36358 0.14078 0.0
H276 H 0.22105 0.38579 0.161 0.0
H277 H 0.17685 0.38467 0.18027 0.0
H278 H 0.20401 0.42392 0.82294 0.0
H279 H 0.15562 0.41315 0.83777 0.0
H280 H 0.239 0.39915 0.8461 0.0
H281 H 0.26653 0.39571 0.91508 0.0
C282 C 0.80724 0.22374 0.28304 0.0
C283 C 0.81221 0.22884 0.35747 0.0
C284 C 0.74666 0.17141 0.37584 0.0
C285 C 0.74512 0.16239 0.30274 0.0
N286 N 0.77245 0.17919 0.18547 0.0
N287 N 0.78774 0.20791 0.47595 0.0
C288 C 0.77474 0.18866 0.25568 0.0
C289 C 0.78185 0.20331 0.40435 0.0
N290 N 0.83358 0.25271 0.23895 0.0
N291 N 0.71466 0.14906 0.41788 0.0
H292 H 0.81295 0.23125 0.49876 0.0
H293 H 0.76885 0.1874 0.5129 0.0
H294 H 0.68864 0.12526 0.39839 0.0
H295 H 0.71247 0.15607 0.47025 0.0
H296 H 0.83 0.25246 0.18427 0.0
H297 H 0.85738 0.279 0.25786 0.0
H298 H 0.79534 0.19454 0.14965 0.0
H299 H 0.74795 0.15459 0.16353 0.0
C300 C 0.51689 0.78959 0.63281 0.0
C301 C 0.52929 0.79621 0.70465 0.0
C302 C 0.5398 0.73914 0.70219 0.0
C303 C 0.53507 0.73771 0.62766 0.0
N304 N 0.51639 0.75828 0.52103 0.0
N305 N 0.54863 0.77601 0.81095 0.0
C306 C 0.52181 0.76131 0.59281 0.0
C307 C 0.53886 0.77004 0.74067 0.0
N308 N 0.50148 0.81106 0.60276 0.0
N309 N 0.54535 0.71096 0.7355 0.0
H310 H 0.54578 0.79698 0.84109 0.0
H311 H 0.56044 0.76122 0.83905 0.0
H312 H 0.54582 0.68786 0.70807 0.0
H313 H 0.54632 0.70837 0.79021 0.0
H314 H 0.48899 0.80569 0.55237 0.0
H315 H 0.49828 0.83248 0.63048 0.0
H316 H 0.51122 0.77762 0.4906 0.0
H317 H 0.51855 0.73688 0.49104 0.0
C318 C 0.77126 0.6156 0.94852 0.0
C319 C 0.76072 0.61719 0.01997 0.0
C320 C 0.81791 0.61289 0.06279 0.0
C321 C 0.82907 0.61251 0.99141 0.0
N322 N 0.81483 0.60756 0.86646 0.0
N323 N 0.76942 0.6117 0.14508 0.0
C324 C 0.80512 0.61187 0.93422 0.0
C325 C 0.78259 0.61391 0.0772 0.0
N326 N 0.74906 0.61821 0.89456 0.0
N327 N 0.84166 0.613 0.11653 0.0
H328 H 0.7446 0.61408 0.15765 0.0
H329 H 0.78159 0.60554 0.18908 0.0
H330 H 0.86602 0.60916 0.10791 0.0
H331 H 0.83826 0.61795 0.16948 0.0
H332 H 0.75724 0.6219 0.84154 0.0
H333 H 0.72242 0.61789 0.90275 0.0
H334 H 0.79705 0.60325 0.82242 0.0
H335 H 0.84013 0.60602 0.85409 0.0
C336 C 0.20059 0.79163 0.43344 0.0
C337 C 0.17286 0.75725 0.39666 0.0
C338 C 0.2032 0.78788 0.28337 0.0
C339 C 0.22626 0.82421 0.31935 0.0
N340 N 0.24944 0.86159 0.42786 0.0
N341 N 0.14615 0.72186 0.28694 0.0
C342 C 0.22604 0.82626 0.39438 0.0
C343 C 0.17422 0.75476 0.32173 0.0
N344 N 0.20252 0.79076 0.50569 0.0
N345 N 0.20876 0.78528 0.21255 0.0
H346 H 0.12497 0.69656 0.31297 0.0
H347 H 0.14232 0.72028 0.23223 0.0
H348 H 0.2291 0.80941 0.18273 0.0
H349 H 0.1957 0.7587 0.18453 0.0
H350 H 0.22406 0.81363 0.53612 0.0
H351 H 0.18428 0.7654 0.53508 0.0
H352 H 0.24738 0.86646 0.48145 0.0
H353 H 0.27029 0.8869 0.4012 0.0
C354 C 0.43462 0.18154 0.62036 0.0
C355 C 0.4225 0.17164 0.69197 0.0
C356 C 0.40833 0.2262 0.70013 0.0
C357 C 0.41762 0.23412 0.62721 0.0
N358 N 0.44993 0.22811 0.52345 0.0
N359 N 0.40823 0.18974 0.80509 0.0
C360 C 0.43461 0.2149 0.58937 0.0
C361 C 0.41294 0.19595 0.73364 0.0
N362 N 0.44323 0.1574 0.58055 0.0
N363 N 0.39386 0.24678 0.73627 0.0
H364 H 0.41192 0.16784 0.83033 0.0
H365 H 0.40398 0.20799 0.84002 0.0
H366 H 0.39242 0.27066 0.71407 0.0
H367 H 0.38224 0.23972 0.78716 0.0
H368 H 0.44701 0.15986 0.52588 0.0
H369 H 0.44473 0.13338 0.60158 0.0
H370 H 0.46603 0.21778 0.4955 0.0
H371 H 0.44948 0.25201 0.4991 0.0
C372 C 0.29214 0.32229 0.72099 0.0
C373 C 0.33075 0.32853 0.70939 0.0
C374 C 0.33916 0.32349 0.8366 0.0
C375 C 0.30361 0.32405 0.84918 0.0
N376 N 0.247 0.327 0.80303 0.0
N377 N 0.39417 0.34263 0.75749 0.0
C378 C 0.2799 0.32372 0.79136 0.0
C379 C 0.35508 0.33084 0.76747 0.0
N380 N 0.26699 0.31437 0.66495 0.0
N381 N 0.35757 0.31565 0.89091 0.0
H382 H 0.40794 0.35037 0.7082 0.0
H383 H 0.41397 0.34873 0.79919 0.0
H384 H 0.34602 0.30915 0.9421 0.0
H385 H 0.38167 0.31129 0.88341 0.0
H386 H 0.23713 0.30546 0.67071 0.0
H387 H 0.27518 0.31331 0.61277 0.0
H388 H 0.23172 0.33212 0.76278 0.0
H389 H 0.23624 0.3272 0.85328 0.0
C390 C 0.96964 0.28663 0.21373 0.0
C391 C 0.97972 0.31972 0.25837 0.0
C392 C -0.00335 0.36296 0.15541 0.0
C393 C -0.01035 0.3307 0.11068 0.0
N394 N 0.97931 0.26419 0.09984 0.0
N395 N 0.01341 0.39064 0.27327 0.0
C396 C 0.97905 0.29315 0.1405 0.0
C397 C -0.00315 0.35833 0.22956 0.0
N398 N 0.94937 0.24896 0.24003 0.0
N399 N 0.00067 0.39727 0.1276 0.0
H400 H 0.01481 0.38818 0.32813 0.0
H401 H 0.02939 0.41965 0.25462 0.0
H402 H -0.00199 0.40115 0.07376 0.0
H403 H 0.00199 0.42009 0.1586 0.0
H404 H 0.93731 0.22385 0.20787 0.0
H405 H 0.94189 0.2427 0.29325 0.0
H406 H 0.9756 0.23773 0.12083 0.0
H407 H -0.0128 0.26815 0.04651 0.0
C408 C 0.66668 0.03205 0.58566 0.0
C409 C 0.66585 -0.00314 0.60733 0.0
C410 C 0.65579 0.97372 0.48439 0.0
C411 C 0.64764 0.00448 0.46642 0.0
N412 N 0.64326 0.06225 0.50081 0.0
N413 N 0.68079 0.94618 0.57335 0.0
C414 C 0.65334 0.03403 0.51681 0.0
C415 C 0.66691 0.97114 0.55528 0.0
N416 N 0.68161 0.06391 0.63018 0.0
N417 N 0.65191 0.94661 0.4343 0.0
H418 H 0.69295 0.94733 0.62326 0.0
H419 H 0.68462 0.92797 0.53769 0.0
H420 H 0.64563 0.94885 0.38128 0.0
H421 H 0.65321 0.92104 0.44546 0.0
H422 H 0.68589 0.09161 0.61532 0.0
H423 H 0.69458 0.06376 0.6786 0.0
H424 H 0.64295 0.08178 0.53825 0.0
H425 H 0.6317 0.06393 0.45187 0.0
C426 C 0.64872 0.68441 0.73837 0.0
C427 C 0.62592 0.64806 0.70169 0.0
C428 C 0.60741 0.61216 0.81392 0.0
C429 C 0.63305 0.64779 0.85027 0.0
N430 N 0.68281 0.71693 0.84702 0.0
N431 N 0.58981 0.57632 0.70335 0.0
C432 C 0.655 0.6838 0.81255 0.0
C433 C 0.60754 0.6116 0.73902 0.0
N434 N 0.66401 0.71949 0.70236 0.0
N435 N 0.58099 0.5794 0.85094 0.0
H436 H 0.58801 0.57412 0.6484 0.0
H437 H 0.57989 0.54905 0.72823 0.0
H438 H 0.57832 0.57924 0.90582 0.0
H439 H 0.55868 0.55391 0.827 0.0
H440 H 0.67668 0.74703 0.72722 0.0
H441 H 0.66216 0.72095 0.6474 0.0
H442 H 0.70266 0.74293 0.82114 0.0
H443 H 0.68814 0.71749 0.90129 0.0
C444 C 0.97919 0.66318 0.26469 0.0
C445 C 0.00681 0.6503 0.27884 0.0
C446 C 0.02061 0.65126 0.15217 0.0
C447 C -0.01053 0.6591 0.13771 0.0
N448 N 0.93828 0.67215 0.17751 0.0
N449 N 0.05224 0.62927 0.23736 0.0
C450 C 0.96878 0.66544 0.19326 0.0
C451 C 0.02748 0.644 0.22298 0.0
N452 N 0.96361 0.67393 0.31954 0.0
N453 N 0.04379 0.6512 0.09791 0.0
H454 H 0.05873 0.62412 0.28854 0.0
H455 H 0.06436 0.61949 0.19858 0.0
H456 H 0.03935 0.65653 0.04539 0.0
H457 H 0.06942 0.6495 0.10526 0.0
H458 H 0.94629 0.68726 0.31285 0.0
H459 H 0.97039 0.67214 0.37246 0.0
H460 H 0.91874 0.67214 0.215 0.0
H461 H 0.93138 0.67607 0.12578 0.0
C462 C 0.30642 0.985 0.43559 0.0
C463 C 0.33397 0.00987 0.38403 0.0
C464 C 0.3836 0.04446 0.47535 0.0
C465 C 0.35867 0.01541 0.52526 0.0
N466 N 0.29525 0.95995 0.55631 0.0
N467 N 0.38738 0.07566 0.36226 0.0
C468 C 0.31944 0.98646 0.50665 0.0
C469 C 0.36902 0.04376 0.40633 0.0
N470 N 0.26766 0.96189 0.41676 0.0
N471 N 0.42207 0.07086 0.49197 0.0
H472 H 0.3749 0.07664 0.3138 0.0
H473 H 0.41153 0.10258 0.37758 0.0
H474 H 0.43471 0.07148 0.54105 0.0
H475 H 0.44249 0.08977 0.45488 0.0
H476 H 0.24518 0.94431 0.45188 0.0
H477 H 0.25741 0.96389 0.3666 0.0
H478 H 0.26781 0.93555 0.54479 0.0
H479 H 0.30339 0.96145 0.6094 0.0
C480 C 0.4624 0.48182 0.11752 0.0
C481 C 0.44789 0.4568 0.05731 0.0
C482 C 0.51364 0.49108 0.00324 0.0
C483 C 0.52696 0.51889 0.05968 0.0
N484 N 0.51397 0.54309 0.16832 0.0
N485 N 0.45743 0.44091 0.93799 0.0
C486 C 0.50128 0.51497 0.11617 0.0
C487 C 0.47296 0.46203 -0.00095 0.0
N488 N 0.43961 0.47288 0.17705 0.0
N489 N 0.53969 0.49257 0.95324 0.0
H490 H 0.42759 0.41995 0.93195 0.0
H491 H 0.47321 0.44662 0.89095 0.0
H492 H 0.56939 0.51441 0.95216 0.0
H493 H 0.53264 0.47039 0.91576 0.0
H494 H 0.44988 0.48762 0.22511 0.0
H495 H 0.41124 0.44838 0.18044 0.0
H496 H 0.4951 0.54496 0.20514 0.0
H497 H 0.54317 0.56602 0.17263 0.0
C498 C 0.00518 0.50736 0.54999 0.0
C499 C 0.01212 0.53026 0.48743 0.0
C500 C 0.98536 0.47002 0.41451 0.0
C501 C 0.97965 0.44743 0.47688 0.0
N502 N -0.01231 0.4436 0.60269 0.0
N503 N 0.01273 0.53483 0.35975 0.0
C504 C -0.00938 0.46584 0.54432 0.0
C505 C 0.00347 0.512 0.41951 0.0
N506 N 0.01225 0.52537 0.61482 0.0
N507 N 0.97282 0.45114 0.3506 0.0
H508 H 0.02359 0.56527 0.36076 0.0
H509 H 0.0118 0.52427 0.30879 0.0
H510 H 0.96122 0.42069 0.34422 0.0
H511 H 0.97171 0.46494 0.3041 0.0
H512 H 0.00348 0.51013 0.66263 0.0
H513 H 0.02568 0.55601 0.6211 0.0
H514 H -0.00085 0.45547 0.65225 0.0
H515 H 0.97549 0.41288 0.60096 0.0
C516 C 0.50385 0.96968 0.8378 0.0
C517 C 0.52878 0.97182 0.78145 0.0
C518 C 0.49557 -0.00368 0.70209 0.0
C519 C 0.47373 -0.00184 0.76053 0.0
N520 N 0.46172 -0.00691 0.88656 0.0
N521 N 0.55215 -0.00832 0.66177 0.0
C522 C 0.47904 0.98652 0.82911 0.0
C523 C 0.52562 0.98625 0.7139 0.0
N524 N 0.50272 0.95011 0.89874 0.0
N525 N 0.48658 0.0027 0.63499 0.0
H526 H 0.574 0.98383 0.66743 0.0
H527 H 0.5544 0.00663 0.61467 0.0
H528 H 0.46475 0.01012 0.62417 0.0
H529 H 0.49836 -0.0026 0.58957 0.0
H530 H 0.48162 0.94337 0.93798 0.0
H531 H 0.52011 0.93691 0.90692 0.0
H532 H 0.46812 0.98924 0.93859 0.0
H533 H 0.44382 0.00602 0.88286 0.0
C534 C 0.49061 0.51131 0.55888 0.0
C535 C 0.50605 0.53089 0.49336 0.0
C536 C 0.47822 0.46673 0.43294 0.0
C537 C 0.45918 0.44749 0.49671 0.0
N538 N 0.44332 0.45136 0.61897 0.0
N539 N 0.51054 0.52806 0.36634 0.0
C540 C 0.46444 0.4697 0.55945 0.0
C541 C 0.49889 0.50881 0.42989 0.0
N542 N 0.50218 0.53216 0.62099 0.0
N543 N 0.47763 0.44471 0.37601 0.0
H544 H 0.52509 0.55884 0.36173 0.0
H545 H 0.50291 0.51363 0.31766 0.0
H546 H 0.46356 0.41384 0.37709 0.0
H547 H 0.49416 0.45686 0.33029 0.0
H548 H 0.49587 0.51881 0.6707 0.0
H549 H 0.52107 0.56271 0.62335 0.0
H550 H 0.44194 0.46665 0.66316 0.0
H551 H 0.42482 0.42083 0.62274 0.0
C552 C -0.00581 0.51587 0.98268 0.0
C553 C 0.9742 0.52214 0.92548 0.0
C554 C 0.97351 0.46744 0.85952 0.0
C555 C -0.0046 0.46272 0.91515 0.0
N556 N 0.0331 0.48655 0.02322 0.0
N557 N 0.95036 0.50896 0.80503 0.0
C558 C 0.00781 0.48829 0.97474 0.0
C559 C 0.96527 0.49926 0.86259 0.0
N560 N -0.00138 0.53503 0.0457 0.0
N561 N 0.96021 0.44117 0.80436 0.0
H562 H 0.94389 0.53202 0.80553 0.0
H563 H 0.94707 0.49621 0.75524 0.0
H564 H 0.96751 0.41884 0.79874 0.0
H565 H 0.94037 0.44012 0.76616 0.0
H566 H 0.00906 0.52854 0.09177 0.0
H567 H -0.01145 0.5551 0.05404 0.0
H568 H 0.04648 0.5071 0.06384 0.0
H569 H 0.04359 0.46657 0.01931 0.0
C570 C 0.49788 -0.00214 0.28749 0.0
C571 C 0.52078 -0.00203 0.22913 0.0
C572 C 0.46287 0.97334 0.15146 0.0
C573 C 0.4411 0.9772 0.20785 0.0
N574 N 0.43898 -0.0019 0.32752 0.0
N575 N 0.52736 -0.0074 0.10302 0.0
C576 C 0.45884 0.99074 0.27547 0.0
C577 C 0.50391 0.98749 0.16037 0.0
N578 N 0.51283 0.00296 0.35472 0.0
N579 N 0.44401 0.95464 0.09032 0.0
H580 H 0.55778 0.00362 0.10689 0.0
H581 H 0.51736 0.98951 0.05092 0.0
H582 H 0.41384 0.9435 0.08183 0.0
H583 H 0.45739 0.94654 0.05115 0.0
H584 H 0.49598 -0.00127 0.4 0.0
H585 H 0.54125 0.00807 0.36579 0.0
H586 H 0.45213 0.01257 0.37469 0.0
H587 H 0.41005 -0.00751 0.32165 0.0
loop_
_geom_bond_atom_site_label_1
_geom_bond_atom_site_label_2
_geom_bond_distance
_geom_bond_site_symmetry_2
_ccdc_geom_bond_type
C0 O1 1.160 . S
C0 O7 1.185 . S
O1 C0 1.160 . S
O2 Zn3 1.899 . S
O2 C10 1.284 . S
Zn3 O2 1.899 . S
Zn3 O4 2.032 1_554 S
Zn3 O7 2.086 . S
Zn3 O12 1.977 . S
O4 Zn3 2.032 1_556 S
O4 C8 1.278 . S
C5 O6 1.203 . S
C5 O12 1.267 . S
O6 C5 1.203 . S
O7 C0 1.185 . S
O7 Zn3 2.086 . S
C8 O4 1.278 . S
C8 O9 1.211 . S
O9 C8 1.211 . S
C10 O2 1.284 . S
C10 O11 1.273 . S
O11 C10 1.273 . S
O12 Zn3 1.977 . S
O12 C5 1.267 . S
C13 O14 1.160 . S
C13 O20 1.185 . S
O14 C13 1.160 . S
O15 Zn16 1.899 . S
O15 C23 1.284 . S
Zn16 O15 1.899 . S
Zn16 O17 2.032 . S
Zn16 O20 2.086 . S
Zn16 O25 1.977 . S
O17 Zn16 2.032 . S
O17 C21 1.260 1_655 S
C18 O19 1.203 . S
C18 O25 1.267 . S
O19 C18 1.203 . S
O20 C13 1.185 . S
O20 Zn16 2.086 . S
C21 O17 1.260 1_455 S
C21 O22 1.213 . S
O22 C21 1.213 . S
C23 O15 1.284 . S
C23 O24 1.273 1_655 S
O24 C23 1.273 1_455 S
O25 Zn16 1.977 . S
O25 C18 1.267 . S
C26 O27 1.160 . S
C26 O33 1.185 . S
O27 C26 1.160 . S
O28 Zn29 1.899 . S
O28 C36 1.284 . S
Zn29 O28 1.899 . S
Zn29 O30 2.032 . S
Zn29 O33 2.086 . S
Zn29 O38 1.977 . S
O30 Zn29 2.032 . S
O30 C34 1.249 1_565 S
C31 O32 1.203 . S
C31 O38 1.267 . S
O32 C31 1.203 . S
O33 C26 1.185 . S
O33 Zn29 2.086 . S
C34 O30 1.249 1_545 S
C34 O35 1.240 . S
O35 C34 1.240 . S
C36 O28 1.284 . S
C36 O37 1.273 1_565 S
O37 C36 1.273 1_545 S
O38 Zn29 1.977 . S
O38 C31 1.267 . S
C39 O40 1.160 . S
C39 O46 1.185 . S
O40 C39 1.160 . S
O41 Zn42 1.899 . S
O41 C49 1.284 . S
Zn42 O41 1.899 . S
Zn42 O43 2.032 1_554 S
Zn42 O46 2.086 . S
Zn42 O51 1.977 . S
O43 Zn42 2.032 1_556 S
O43 C47 1.278 . S
C44 O45 1.203 . S
C44 O51 1.267 . S
O45 C44 1.203 . S
O46 C39 1.185 . S
O46 Zn42 2.086 . S
C47 O43 1.278 . S
C47 O48 1.211 . S
O48 C47 1.211 . S
C49 O41 1.284 . S
C49 O50 1.273 . S
O50 C49 1.273 . S
O51 Zn42 1.977 . S
O51 C44 1.267 . S
C52 O53 1.160 . S
C52 O59 1.185 . S
O53 C52 1.160 . S
O54 Zn55 1.899 . S
O54 C62 1.284 . S
Zn55 O54 1.899 . S
Zn55 O56 2.032 . S
Zn55 O59 2.086 . S
Zn55 O64 1.977 . S
O56 Zn55 2.032 . S
O56 C60 1.260 1_455 S
C57 O58 1.203 . S
C57 O64 1.267 . S
O58 C57 1.203 . S
O59 C52 1.185 . S
O59 Zn55 2.086 . S
C60 O56 1.260 1_655 S
C60 O61 1.213 . S
O61 C60 1.213 . S
C62 O54 1.284 . S
C62 O63 1.273 1_455 S
O63 C62 1.273 1_655 S
O64 Zn55 1.977 . S
O64 C57 1.267 . S
C65 O66 1.160 . S
C65 O72 1.185 . S
O66 C65 1.160 . S
O67 Zn68 1.899 . S
O67 C75 1.284 . S
Zn68 O67 1.899 . S
Zn68 O69 2.032 . S
Zn68 O72 2.086 . S
Zn68 O77 1.977 . S
O69 Zn68 2.032 . S
O69 C73 1.249 1_545 S
C70 O71 1.203 . S
C70 O77 1.267 . S
O71 C70 1.203 . S
O72 C65 1.185 . S
O72 Zn68 2.086 . S
C73 O69 1.249 1_565 S
C73 O74 1.240 . S
O74 C73 1.240 . S
C75 O67 1.284 . S
C75 O76 1.273 1_545 S
O76 C75 1.273 1_565 S
O77 Zn68 1.977 . S
O77 C70 1.267 . S
C78 O79 1.160 . S
C78 O85 1.185 . S
O79 C78 1.160 . S
O80 Zn81 1.899 . S
O80 C88 1.284 . S
Zn81 O80 1.899 . S
Zn81 O82 2.032 . S
Zn81 O85 2.086 . S
Zn81 O90 1.977 . S
O82 Zn81 2.032 . S
O82 C86 1.278 . S
C83 O84 1.203 . S
C83 O90 1.267 . S
O84 C83 1.203 . S
O85 C78 1.185 . S
O85 Zn81 2.086 . S
C86 O82 1.278 . S
C86 O87 1.211 . S
O87 C86 1.211 . S
C88 O80 1.284 . S
C88 O89 1.273 . S
O89 C88 1.273 . S
O90 Zn81 1.977 . S
O90 C83 1.267 . S
C91 O92 1.160 . S
C91 O98 1.185 . S
O92 C91 1.160 . S
O93 Zn94 1.899 . S
O93 C101 1.284 . S
Zn94 O93 1.899 . S
Zn94 O95 2.032 1_556 S
Zn94 O98 2.086 . S
Zn94 O103 1.977 . S
O95 Zn94 2.032 1_554 S
O95 C99 1.249 1_655 S
C96 O97 1.203 . S
C96 O103 1.267 . S
O97 C96 1.203 . S
O98 C91 1.185 . S
O98 Zn94 2.086 . S
C99 O95 1.249 1_455 S
C99 O100 1.240 . S
O100 C99 1.240 . S
C101 O93 1.284 . S
C101 O102 1.273 1_655 S
O102 C101 1.273 1_455 S
O103 Zn94 1.977 . S
O103 C96 1.267 . S
C104 O105 1.160 . S
C104 O111 1.185 . S
O105 C104 1.160 . S
O106 Zn107 1.899 . S
O106 C114 1.284 . S
Zn107 O106 1.899 . S
Zn107 O108 2.032 . S
Zn107 O111 2.086 . S
Zn107 O116 1.977 . S
O108 Zn107 2.032 . S
O108 C112 1.260 1_565 S
C109 O110 1.203 . S
C109 O116 1.267 . S
O110 C109 1.203 . S
O111 C104 1.185 . S
O111 Zn107 2.086 . S
C112 O108 1.260 1_545 S
C112 O113 1.213 . S
O113 C112 1.213 . S
C114 O106 1.284 . S
C114 O115 1.273 1_565 S
O115 C114 1.273 1_545 S
O116 Zn107 1.977 . S
O116 C109 1.267 . S
C117 O118 1.160 . S
C117 O124 1.185 . S
O118 C117 1.160 . S
O119 Zn120 1.899 . S
O119 C127 1.284 . S
Zn120 O119 1.899 . S
Zn120 O121 2.032 . S
Zn120 O124 2.086 . S
Zn120 O129 1.977 . S
O121 Zn120 2.032 . S
O121 C125 1.278 . S
C122 O123 1.203 . S
C122 O129 1.267 . S
O123 C122 1.203 . S
O124 C117 1.185 . S
O124 Zn120 2.086 . S
C125 O121 1.278 . S
C125 O126 1.211 . S
O126 C125 1.211 . S
C127 O119 1.284 . S
C127 O128 1.273 . S
O128 C127 1.273 . S
O129 Zn120 1.977 . S
O129 C122 1.267 . S
C130 O131 1.160 . S
C130 O137 1.185 . S
O131 C130 1.160 . S
O132 Zn133 1.899 . S
O132 C140 1.284 . S
Zn133 O132 1.899 . S
Zn133 O134 2.032 1_556 S
Zn133 O137 2.086 . S
Zn133 O142 1.977 . S
O134 Zn133 2.032 1_554 S
O134 C138 1.249 1_455 S
C135 O136 1.203 . S
C135 O142 1.267 . S
O136 C135 1.203 . S
O137 C130 1.185 . S
O137 Zn133 2.086 . S
C138 O134 1.249 1_655 S
C138 O139 1.240 . S
O139 C138 1.240 . S
C140 O132 1.284 . S
C140 O141 1.273 1_455 S
O141 C140 1.273 1_655 S
O142 Zn133 1.977 . S
O142 C135 1.267 . S
C143 O144 1.160 . S
C143 O150 1.185 . S
O144 C143 1.160 . S
O145 Zn146 1.899 . S
O145 C153 1.284 . S
Zn146 O145 1.899 . S
Zn146 O147 2.032 . S
Zn146 O150 2.086 . S
Zn146 O155 1.977 . S
O147 Zn146 2.032 . S
O147 C151 1.260 1_545 S
C148 O149 1.203 . S
C148 O155 1.267 . S
O149 C148 1.203 . S
O150 C143 1.185 . S
O150 Zn146 2.086 . S
C151 O147 1.260 1_565 S
C151 O152 1.213 . S
O152 C151 1.213 . S
C153 O145 1.284 . S
C153 O154 1.273 1_545 S
O154 C153 1.273 1_565 S
O155 Zn146 1.977 . S
O155 C148 1.267 . S
C156 C157 1.363 . S
C156 C162 1.379 . S
C156 N164 1.356 . S
C157 C156 1.363 . S
C157 C163 1.363 . S
C158 C159 1.363 . S
C158 C163 1.379 . S
C158 N165 1.356 . S
C159 C158 1.363 . S
C159 C162 1.363 . S
N160 C162 1.356 . S
N160 H172 0.984 . S
N160 H173 0.985 . S
N161 C163 1.356 . S
N161 H166 0.984 . S
N161 H167 0.985 . S
C162 C156 1.379 . S
C162 C159 1.363 . S
C162 N160 1.356 . S
C163 C157 1.363 . S
C163 C158 1.379 . S
C163 N161 1.356 . S
N164 C156 1.356 . S
N164 H170 0.984 . S
N164 H171 0.984 . S
N165 C158 1.356 . S
N165 H168 0.984 . S
N165 H169 0.985 . S
H166 N161 0.984 . S
H167 N161 0.985 . S
H168 N165 0.984 . S
H169 N165 0.985 . S
H170 N164 0.984 . S
H171 N164 0.984 . S
H172 N160 0.984 . S
H173 N160 0.985 . S
C174 C175 1.366 . S
C174 C180 1.379 . S
C174 N182 1.356 . S
C175 C174 1.366 . S
C175 C181 1.360 1_655 S
C176 C177 1.366 . S
C176 C181 1.379 . S
C176 N183 1.356 . S
C177 C176 1.366 . S
C177 C180 1.360 1_455 S
N178 C180 1.356 . S
N178 H190 0.984 . S
N178 H191 0.985 . S
N179 C181 1.356 . S
N179 H184 0.984 . S
N179 H185 0.985 . S
C180 C174 1.379 . S
C180 C177 1.360 1_655 S
C180 N178 1.356 . S
C181 C175 1.360 1_455 S
C181 C176 1.379 . S
C181 N179 1.356 . S
N182 C174 1.356 . S
N182 H188 0.984 . S
N182 H189 0.984 . S
N183 C176 1.356 . S
N183 H186 0.984 . S
N183 H187 0.985 . S
H184 N179 0.984 . S
H185 N179 0.985 . S
H186 N183 0.984 . S
H187 N183 0.985 . S
H188 N182 0.984 . S
H189 N182 0.984 . S
H190 N178 0.984 . S
H191 N178 0.985 . S
C192 C193 1.365 . S
C192 C198 1.379 1_556 S
C192 N200 1.356 . S
C193 C192 1.365 . S
C193 C199 1.361 1_565 S
C194 C195 1.365 . S
C194 C199 1.379 1_554 S
C194 N201 1.356 . S
C195 C194 1.365 . S
C195 C198 1.361 1_545 S
N196 C198 1.356 . S
N196 H208 0.984 . S
N196 H209 0.985 . S
N197 C199 1.356 . S
N197 H202 0.984 . S
N197 H203 0.985 . S
C198 C192 1.379 1_554 S
C198 C195 1.361 1_565 S
C198 N196 1.356 . S
C199 C193 1.361 1_545 S
C199 C194 1.379 1_556 S
C199 N197 1.356 . S
N200 C192 1.356 . S
N200 H206 0.984 . S
N200 H207 0.984 . S
N201 C194 1.356 . S
N201 H204 0.984 . S
N201 H205 0.985 . S
H202 N197 0.984 . S
H203 N197 0.985 . S
H204 N201 0.984 . S
H205 N201 0.985 . S
H206 N200 0.984 . S
H207 N200 0.984 . S
H208 N196 0.984 . S
H209 N196 0.985 . S
C210 C211 1.363 . S
C210 C216 1.379 . S
C210 N218 1.356 . S
C211 C210 1.363 . S
C211 C217 1.363 . S
C212 C213 1.363 . S
C212 C217 1.379 . S
C212 N219 1.356 . S
C213 C212 1.363 . S
C213 C216 1.363 . S
N214 C216 1.356 . S
N214 H226 0.984 . S
N214 H227 0.985 . S
N215 C217 1.356 . S
N215 H220 0.984 . S
N215 H221 0.985 . S
C216 C210 1.379 . S
C216 C213 1.363 . S
C216 N214 1.356 . S
C217 C211 1.363 . S
C217 C212 1.379 . S
C217 N215 1.356 . S
N218 C210 1.356 . S
N218 H224 0.984 . S
N218 H225 0.984 . S
N219 C212 1.356 . S
N219 H222 0.984 . S
N219 H223 0.985 . S
H220 N215 0.984 . S
H221 N215 0.985 . S
H222 N219 0.984 . S
H223 N219 0.985 . S
H224 N218 0.984 . S
H225 N218 0.984 . S
H226 N214 0.984 . S
H227 N214 0.985 . S
C228 C229 1.366 . S
C228 C234 1.379 . S
C228 N236 1.356 . S
C229 C228 1.366 . S
C229 C235 1.360 1_655 S
C230 C231 1.366 . S
C230 C235 1.379 . S
C230 N237 1.356 . S
C231 C230 1.366 . S
C231 C234 1.360 1_455 S
N232 C234 1.356 . S
N232 H244 0.984 . S
N232 H245 0.985 . S
N233 C235 1.356 . S
N233 H238 0.984 . S
N233 H239 0.985 . S
C234 C228 1.379 . S
C234 C231 1.360 1_655 S
C234 N232 1.356 . S
C235 C229 1.360 1_455 S
C235 C230 1.379 . S
C235 N233 1.356 . S
N236 C228 1.356 . S
N236 H242 0.984 . S
N236 H243 0.984 . S
N237 C230 1.356 . S
N237 H240 0.984 . S
N237 H241 0.985 . S
H238 N233 0.984 . S
H239 N233 0.985 . S
H240 N237 0.984 . S
H241 N237 0.985 . S
H242 N236 0.984 . S
H243 N236 0.984 . S
H244 N232 0.984 . S
H245 N232 0.985 . S
C246 C247 1.368 . S
C246 C252 1.379 1_554 S
C246 N254 1.356 . S
C247 C246 1.368 . S
C247 C253 1.358 1_565 S
C248 C249 1.368 . S
C248 C253 1.379 1_556 S
C248 N255 1.356 . S
C249 C248 1.368 . S
C249 C252 1.358 1_545 S
N250 C252 1.356 . S
N250 H262 0.984 . S
N250 H263 0.985 . S
N251 C253 1.356 . S
N251 H256 0.984 . S
N251 H257 0.985 . S
C252 C246 1.379 1_556 S
C252 C249 1.358 1_565 S
C252 N250 1.356 . S
C253 C247 1.358 1_545 S
C253 C248 1.379 1_554 S
C253 N251 1.356 . S
N254 C246 1.356 . S
N254 H260 0.984 . S
N254 H261 0.984 . S
N255 C248 1.356 . S
N255 H258 0.984 . S
N255 H259 0.985 . S
H256 N251 0.984 . S
H257 N251 0.985 . S
H258 N255 0.984 . S
H259 N255 0.985 . S
H260 N254 0.984 . S
H261 N254 0.984 . S
H262 N250 0.984 . S
H263 N250 0.985 . S
C264 C265 1.363 . S
C264 C270 1.379 . S
C264 N272 1.356 . S
C265 C264 1.363 . S
C265 C271 1.363 1_556 S
C266 C267 1.363 . S
C266 C271 1.379 . S
C266 N273 1.356 . S
C267 C266 1.363 . S
C267 C270 1.363 1_554 S
N268 C270 1.356 . S
N268 H280 0.984 . S
N268 H281 0.985 1_556 S
N269 C271 1.356 . S
N269 H274 0.984 1_554 S
N269 H275 0.985 . S
C270 C264 1.379 . S
C270 C267 1.363 1_556 S
C270 N268 1.356 . S
C271 C265 1.363 1_554 S
C271 C266 1.379 . S
C271 N269 1.356 . S
N272 C264 1.356 . S
N272 H278 0.984 . S
N272 H279 0.984 . S
N273 C266 1.356 . S
N273 H276 0.984 . S
N273 H277 0.985 . S
H274 N269 0.984 1_556 S
H275 N269 0.985 . S
H276 N273 0.984 . S
H277 N273 0.985 . S
H278 N272 0.984 . S
H279 N272 0.984 . S
H280 N268 0.984 . S
H281 N268 0.985 1_554 S
C282 C283 1.363 . S
C282 C288 1.379 . S
C282 N290 1.356 . S
C283 C282 1.363 . S
C283 C289 1.363 . S
C284 C285 1.363 . S
C284 C289 1.379 . S
C284 N291 1.356 . S
C285 C284 1.363 . S
C285 C288 1.363 . S
N286 C288 1.356 . S
N286 H298 0.984 . S
N286 H299 0.985 . S
N287 C289 1.356 . S
N287 H292 0.984 . S
N287 H293 0.985 . S
C288 C282 1.379 . S
C288 C285 1.363 . S
C288 N286 1.356 . S
C289 C283 1.363 . S
C289 C284 1.379 . S
C289 N287 1.356 . S
N290 C282 1.356 . S
N290 H296 0.984 . S
N290 H297 0.984 . S
N291 C284 1.356 . S
N291 H294 0.984 . S
N291 H295 0.985 . S
H292 N287 0.984 . S
H293 N287 0.985 . S
H294 N291 0.984 . S
H295 N291 0.985 . S
H296 N290 0.984 . S
H297 N290 0.984 . S
H298 N286 0.984 . S
H299 N286 0.985 . S
C300 C301 1.363 . S
C300 C306 1.379 . S
C300 N308 1.356 . S
C301 C300 1.363 . S
C301 C307 1.363 . S
C302 C303 1.363 . S
C302 C307 1.379 . S
C302 N309 1.356 . S
C303 C302 1.363 . S
C303 C306 1.363 . S
N304 C306 1.356 . S
N304 H316 0.984 . S
N304 H317 0.985 . S
N305 C307 1.356 . S
N305 H310 0.984 . S
N305 H311 0.985 . S
C306 C300 1.379 . S
C306 C303 1.363 . S
C306 N304 1.356 . S
C307 C301 1.363 . S
C307 C302 1.379 . S
C307 N305 1.356 . S
N308 C300 1.356 . S
N308 H314 0.984 . S
N308 H315 0.984 . S
N309 C302 1.356 . S
N309 H312 0.984 . S
N309 H313 0.985 . S
H310 N305 0.984 . S
H311 N305 0.985 . S
H312 N309 0.984 . S
H313 N309 0.985 . S
H314 N308 0.984 . S
H315 N308 0.984 . S
H316 N304 0.984 . S
H317 N304 0.985 . S
C318 C319 1.363 1_556 S
C318 C324 1.379 . S
C318 N326 1.356 . S
C319 C318 1.363 1_554 S
C319 C325 1.363 . S
C320 C321 1.363 1_554 S
C320 C325 1.379 . S
C320 N327 1.356 . S
C321 C320 1.363 1_556 S
C321 C324 1.363 . S
N322 C324 1.356 . S
N322 H334 0.984 . S
N322 H335 0.985 . S
N323 C325 1.356 . S
N323 H328 0.984 . S
N323 H329 0.985 . S
C324 C318 1.379 . S
C324 C321 1.363 . S
C324 N322 1.356 . S
C325 C319 1.363 . S
C325 C320 1.379 . S
C325 N323 1.356 . S
N326 C318 1.356 . S
N326 H332 0.984 . S
N326 H333 0.984 1_556 S
N327 C320 1.356 . S
N327 H330 0.984 1_554 S
N327 H331 0.985 . S
H328 N323 0.984 . S
H329 N323 0.985 . S
H330 N327 0.984 1_556 S
H331 N327 0.985 . S
H332 N326 0.984 . S
H333 N326 0.984 1_554 S
H334 N322 0.984 . S
H335 N322 0.985 . S
C336 C337 1.363 . S
C336 C342 1.379 . S
C336 N344 1.356 . S
C337 C336 1.363 . S
C337 C343 1.363 . S
C338 C339 1.363 . S
C338 C343 1.379 . S
C338 N345 1.356 . S
C339 C338 1.363 . S
C339 C342 1.363 . S
N340 C342 1.356 . S
N340 H352 0.984 . S
N340 H353 0.985 . S
N341 C343 1.356 . S
N341 H346 0.984 . S
N341 H347 0.985 . S
C342 C336 1.379 . S
C342 C339 1.363 . S
C342 N340 1.356 . S
C343 C337 1.363 . S
C343 C338 1.379 . S
C343 N341 1.356 . S
N344 C336 1.356 . S
N344 H350 0.984 . S
N344 H351 0.984 . S
N345 C338 1.356 . S
N345 H348 0.984 . S
N345 H349 0.985 . S
H346 N341 0.984 . S
H347 N341 0.985 . S
H348 N345 0.984 . S
H349 N345 0.985 . S
H350 N344 0.984 . S
H351 N344 0.984 . S
H352 N340 0.984 . S
H353 N340 0.985 . S
C354 C355 1.363 . S
C354 C360 1.379 . S
C354 N362 1.356 . S
C355 C354 1.363 . S
C355 C361 1.363 . S
C356 C357 1.363 . S
C356 C361 1.379 . S
C356 N363 1.356 . S
C357 C356 1.363 . S
C357 C360 1.363 . S
N358 C360 1.356 . S
N358 H370 0.984 . S
N358 H371 0.985 . S
N359 C361 1.356 . S
N359 H364 0.984 . S
N359 H365 0.985 . S
C360 C354 1.379 . S
C360 C357 1.363 . S
C360 N358 1.356 . S
C361 C355 1.363 . S
C361 C356 1.379 . S
C361 N359 1.356 . S
N362 C354 1.356 . S
N362 H368 0.984 . S
N362 H369 0.984 . S
N363 C356 1.356 . S
N363 H366 0.984 . S
N363 H367 0.985 . S
H364 N359 0.984 . S
H365 N359 0.985 . S
H366 N363 0.984 . S
H367 N363 0.985 . S
H368 N362 0.984 . S
H369 N362 0.984 . S
H370 N358 0.984 . S
H371 N358 0.985 . S
C372 C373 1.363 . S
C372 C378 1.379 . S
C372 N380 1.356 . S
C373 C372 1.363 . S
C373 C379 1.363 . S
C374 C375 1.363 . S
C374 C379 1.379 . S
C374 N381 1.356 . S
C375 C374 1.363 . S
C375 C378 1.363 . S
N376 C378 1.356 . S
N376 H388 0.984 . S
N376 H389 0.985 . S
N377 C379 1.356 . S
N377 H382 0.984 . S
N377 H383 0.985 . S
C378 C372 1.379 . S
C378 C375 1.363 . S
C378 N376 1.356 . S
C379 C373 1.363 . S
C379 C374 1.379 . S
C379 N377 1.356 . S
N380 C372 1.356 . S
N380 H386 0.984 . S
N380 H387 0.984 . S
N381 C374 1.356 . S
N381 H384 0.984 . S
N381 H385 0.985 . S
H382 N377 0.984 . S
H383 N377 0.985 . S
H384 N381 0.984 . S
H385 N381 0.985 . S
H386 N380 0.984 . S
H387 N380 0.984 . S
H388 N376 0.984 . S
H389 N376 0.985 . S
C390 C391 1.363 . S
C390 C396 1.379 1_455 S
C390 N398 1.356 . S
C391 C390 1.363 . S
C391 C397 1.363 . S
C392 C393 1.363 . S
C392 C397 1.379 1_655 S
C392 N399 1.356 . S
C393 C392 1.363 . S
C393 C396 1.363 . S
N394 C396 1.356 . S
N394 H406 0.984 . S
N394 H407 0.985 . S
N395 C397 1.356 . S
N395 H400 0.984 . S
N395 H401 0.985 . S
C396 C390 1.379 1_655 S
C396 C393 1.363 . S
C396 N394 1.356 . S
C397 C391 1.363 . S
C397 C392 1.379 1_455 S
C397 N395 1.356 . S
N398 C390 1.356 . S
N398 H404 0.984 . S
N398 H405 0.984 . S
N399 C392 1.356 . S
N399 H402 0.984 . S
N399 H403 0.985 . S
H400 N395 0.984 . S
H401 N395 0.985 . S
H402 N399 0.984 . S
H403 N399 0.985 . S
H404 N398 0.984 . S
H405 N398 0.984 . S
H406 N394 0.984 . S
H407 N394 0.985 . S
C408 C409 1.363 . S
C408 C414 1.379 . S
C408 N416 1.356 . S
C409 C408 1.363 . S
C409 C415 1.363 1_545 S
C410 C411 1.363 . S
C410 C415 1.379 . S
C410 N417 1.356 . S
C411 C410 1.363 . S
C411 C414 1.363 1_565 S
N412 C414 1.356 . S
N412 H424 0.984 . S
N412 H425 0.985 . S
N413 C415 1.356 . S
N413 H418 0.984 . S
N413 H419 0.985 . S
C414 C408 1.379 . S
C414 C411 1.363 1_545 S
C414 N412 1.356 . S
C415 C409 1.363 1_565 S
C415 C410 1.379 . S
C415 N413 1.356 . S
N416 C408 1.356 . S
N416 H422 0.984 . S
N416 H423 0.984 . S
N417 C410 1.356 . S
N417 H420 0.984 . S
N417 H421 0.985 . S
H418 N413 0.984 . S
H419 N413 0.985 . S
H420 N417 0.984 . S
H421 N417 0.985 . S
H422 N416 0.984 . S
H423 N416 0.984 . S
H424 N412 0.984 . S
H425 N412 0.985 . S
C426 C427 1.363 . S
C426 C432 1.379 . S
C426 N434 1.356 . S
C427 C426 1.363 . S
C427 C433 1.363 . S
C428 C429 1.363 . S
C428 C433 1.379 . S
C428 N435 1.356 . S
C429 C428 1.363 . S
C429 C432 1.363 . S
N430 C432 1.356 . S
N430 H442 0.984 . S
N430 H443 0.985 . S
N431 C433 1.356 . S
N431 H436 0.984 . S
N431 H437 0.985 . S
C432 C426 1.379 . S
C432 C429 1.363 . S
C432 N430 1.356 . S
C433 C427 1.363 . S
C433 C428 1.379 . S
C433 N431 1.356 . S
N434 C426 1.356 . S
N434 H440 0.984 . S
N434 H441 0.984 . S
N435 C428 1.356 . S
N435 H438 0.984 . S
N435 H439 0.985 . S
H436 N431 0.984 . S
H437 N431 0.985 . S
H438 N435 0.984 . S
H439 N435 0.985 . S
H440 N434 0.984 . S
H441 N434 0.984 . S
H442 N430 0.984 . S
H443 N430 0.985 . S
C444 C445 1.363 . S
C444 C450 1.379 . S
C444 N452 1.356 . S
C445 C444 1.363 . S
C445 C451 1.362 1_655 S
C446 C447 1.363 . S
C446 C451 1.379 . S
C446 N453 1.356 . S
C447 C446 1.363 . S
C447 C450 1.362 1_455 S
N448 C450 1.357 1_455 S
N448 H460 0.984 1_455 S
N448 H461 0.985 . S
N449 C451 1.357 1_655 S
N449 H454 0.984 . S
N449 H455 0.985 1_655 S
C450 C444 1.379 . S
C450 C447 1.362 1_655 S
C450 N448 1.357 1_655 S
C451 C445 1.362 1_455 S
C451 C446 1.379 . S
C451 N449 1.357 1_455 S
N452 C444 1.356 . S
N452 H458 0.984 . S
N452 H459 0.984 . S
N453 C446 1.356 . S
N453 H456 0.984 . S
N453 H457 0.985 . S
H454 N449 0.984 . S
H455 N449 0.985 1_455 S
H456 N453 0.984 . S
H457 N453 0.985 . S
H458 N452 0.984 . S
H459 N452 0.984 . S
H460 N448 0.984 1_655 S
H461 N448 0.985 . S
C462 C463 1.363 1_565 S
C462 C468 1.379 . S
C462 N470 1.356 . S
C463 C462 1.363 1_545 S
C463 C469 1.363 . S
C464 C465 1.363 1_545 S
C464 C469 1.379 . S
C464 N471 1.356 . S
C465 C464 1.363 1_565 S
C465 C468 1.363 . S
N466 C468 1.356 . S
N466 H478 0.984 . S
N466 H479 0.985 . S
N467 C469 1.356 . S
N467 H472 0.984 . S
N467 H473 0.985 . S
C468 C462 1.379 . S
C468 C465 1.363 . S
C468 N466 1.356 . S
C469 C463 1.363 . S
C469 C464 1.379 . S
C469 N467 1.356 . S
N470 C462 1.356 . S
N470 H476 0.984 . S
N470 H477 0.984 . S
N471 C464 1.356 . S
N471 H474 0.984 . S
N471 H475 0.985 . S
H472 N467 0.984 . S
H473 N467 0.985 . S
H474 N471 0.984 . S
H475 N471 0.985 . S
H476 N470 0.984 . S
H477 N470 0.984 . S
H478 N466 0.984 . S
H479 N466 0.985 . S
C480 C481 1.363 . S
C480 C486 1.379 . S
C480 N488 1.356 . S
C481 C480 1.363 . S
C481 C487 1.363 . S
C482 C483 1.363 . S
C482 C487 1.379 . S
C482 N489 1.356 1_554 S
C483 C482 1.363 . S
C483 C486 1.363 . S
N484 C486 1.356 . S
N484 H496 0.984 . S
N484 H497 0.985 . S
N485 C487 1.356 1_556 S
N485 H490 0.984 . S
N485 H491 0.985 . S
C486 C480 1.379 . S
C486 C483 1.363 . S
C486 N484 1.356 . S
C487 C481 1.363 . S
C487 C482 1.379 . S
C487 N485 1.356 1_554 S
N488 C480 1.356 . S
N488 H494 0.984 . S
N488 H495 0.984 . S
N489 C482 1.356 1_556 S
N489 H492 0.984 . S
N489 H493 0.985 . S
H490 N485 0.984 . S
H491 N485 0.985 . S
H492 N489 0.984 . S
H493 N489 0.985 . S
H494 N488 0.984 . S
H495 N488 0.984 . S
H496 N484 0.984 . S
H497 N484 0.985 . S
C498 C499 1.363 . S
C498 C504 1.379 . S
C498 N506 1.356 . S
C499 C498 1.363 . S
C499 C505 1.363 1_455 S
C500 C501 1.363 . S
C500 C505 1.379 . S
C500 N507 1.356 . S
C501 C500 1.363 . S
C501 C504 1.363 1_655 S
N502 C504 1.356 . S
N502 H514 0.984 . S
N502 H515 0.985 1_455 S
N503 C505 1.356 . S
N503 H508 0.984 1_655 S
N503 H509 0.985 . S
C504 C498 1.379 . S
C504 C501 1.363 1_455 S
C504 N502 1.356 . S
C505 C499 1.363 1_655 S
C505 C500 1.379 . S
C505 N503 1.356 . S
N506 C498 1.356 . S
N506 H512 0.984 . S
N506 H513 0.984 . S
N507 C500 1.356 . S
N507 H510 0.984 . S
N507 H511 0.985 . S
H508 N503 0.984 1_455 S
H509 N503 0.985 . S
H510 N507 0.984 . S
H511 N507 0.985 . S
H512 N506 0.984 . S
H513 N506 0.984 . S
H514 N502 0.984 . S
H515 N502 0.985 1_655 S
C516 C517 1.363 . S
C516 C522 1.379 . S
C516 N524 1.356 . S
C517 C516 1.363 . S
C517 C523 1.363 1_565 S
C518 C519 1.363 . S
C518 C523 1.379 . S
C518 N525 1.356 . S
C519 C518 1.363 . S
C519 C522 1.363 1_545 S
N520 C522 1.356 . S
N520 H532 0.984 . S
N520 H533 0.985 1_565 S
N521 C523 1.356 . S
N521 H526 0.984 1_545 S
N521 H527 0.985 . S
C522 C516 1.379 . S
C522 C519 1.363 1_565 S
C522 N520 1.356 . S
C523 C517 1.363 1_545 S
C523 C518 1.379 . S
C523 N521 1.356 . S
N524 C516 1.356 . S
N524 H530 0.984 . S
N524 H531 0.984 . S
N525 C518 1.356 . S
N525 H528 0.984 . S
N525 H529 0.985 . S
H526 N521 0.984 1_565 S
H527 N521 0.985 . S
H528 N525 0.984 . S
H529 N525 0.985 . S
H530 N524 0.984 . S
H531 N524 0.984 . S
H532 N520 0.984 . S
H533 N520 0.985 1_545 S
C534 C535 1.363 . S
C534 C540 1.379 . S
C534 N542 1.356 . S
C535 C534 1.363 . S
C535 C541 1.363 . S
C536 C537 1.363 . S
C536 C541 1.379 . S
C536 N543 1.356 . S
C537 C536 1.363 . S
C537 C540 1.363 . S
N538 C540 1.356 . S
N538 H550 0.984 . S
N538 H551 0.985 . S
N539 C541 1.356 . S
N539 H544 0.984 . S
N539 H545 0.985 . S
C540 C534 1.379 . S
C540 C537 1.363 . S
C540 N538 1.356 . S
C541 C535 1.363 . S
C541 C536 1.379 . S
C541 N539 1.356 . S
N542 C534 1.356 . S
N542 H548 0.984 . S
N542 H549 0.984 . S
N543 C536 1.356 . S
N543 H546 0.984 . S
N543 H547 0.985 . S
H544 N539 0.984 . S
H545 N539 0.985 . S
H546 N543 0.984 . S
H547 N543 0.985 . S
H548 N542 0.984 . S
H549 N542 0.984 . S
H550 N538 0.984 . S
H551 N538 0.985 . S
C552 C553 1.363 1_455 S
C552 C558 1.379 . S
C552 N560 1.356 1_556 S
C553 C552 1.363 1_655 S
C553 C559 1.363 . S
C554 C555 1.363 1_655 S
C554 C559 1.379 . S
C554 N561 1.356 . S
C555 C554 1.363 1_455 S
C555 C558 1.363 . S
N556 C558 1.356 1_554 S
N556 H568 0.984 . S
N556 H569 0.985 . S
N557 C559 1.356 . S
N557 H562 0.984 . S
N557 H563 0.985 . S
C558 C552 1.379 . S
C558 C555 1.363 . S
C558 N556 1.356 1_556 S
C559 C553 1.363 . S
C559 C554 1.379 . S
C559 N557 1.356 . S
N560 C552 1.356 1_554 S
N560 H566 0.984 . S
N560 H567 0.984 1_455 S
N561 C554 1.356 . S
N561 H564 0.984 1_655 S
N561 H565 0.985 . S
H562 N557 0.984 . S
H563 N557 0.985 . S
H564 N561 0.984 1_455 S
H565 N561 0.985 . S
H566 N560 0.984 . S
H567 N560 0.984 1_655 S
H568 N556 0.984 . S
H569 N556 0.985 . S
C570 C571 1.363 1_565 S
C570 C576 1.379 . S
C570 N578 1.356 . S
C571 C570 1.363 1_545 S
C571 C577 1.363 . S
C572 C573 1.363 1_545 S
C572 C577 1.379 . S
C572 N579 1.356 . S
C573 C572 1.363 1_565 S
C573 C576 1.363 . S
N574 C576 1.356 . S
N574 H586 0.984 . S
N574 H587 0.985 . S
N575 C577 1.356 . S
N575 H580 0.984 . S
N575 H581 0.985 . S
C576 C570 1.379 . S
C576 C573 1.363 . S
C576 N574 1.356 . S
C577 C571 1.363 . S
C577 C572 1.379 . S
C577 N575 1.356 . S
N578 C570 1.356 . S
N578 H584 0.984 . S
N578 H585 0.984 1_565 S
N579 C572 1.356 . S
N579 H582 0.984 1_545 S
N579 H583 0.985 . S
H580 N575 0.984 . S
H581 N575 0.985 . S
H582 N579 0.984 1_565 S
H583 N579 0.985 . S
H584 N578 0.984 . S
H585 N578 0.984 1_545 S
H586 N574 0.984 . S
H587 N574 0.985 . S
C157 C10 1.482 . S
C159 C127 1.482 . S
C175 C23 1.483 . S
C177 C140 1.482 . S
C193 C36 1.482 . S
C195 C153 1.483 . S
C211 C49 1.482 . S
C213 C88 1.482 . S
C229 C101 1.482 . S
C231 C62 1.483 . S
C247 C114 1.483 . S
C249 C75 1.482 . S
C265 C130 1.423 . S
C267 C0 1.423 . S
C283 C13 1.423 . S
C285 C143 1.423 . S
C301 C26 1.423 . S
C303 C78 1.423 . S
C319 C39 1.423 . S
C321 C91 1.423 . S
C337 C52 1.423 . S
C339 C104 1.423 . S
C355 C65 1.423 . S
C357 C117 1.423 . S
C373 C125 1.026 . S
C375 C8 1.026 . S
C391 C21 1.040 . S
C393 C138 1.025 . S
C409 C34 1.025 . S
C411 C151 1.040 . S
C427 C86 1.026 . S
C429 C47 1.026 . S
C445 C60 1.040 . S
C447 C99 1.025 . S
C463 C112 1.040 . S
C465 C73 1.025 . S
C481 C5 1.409 . S
C483 C44 1.409 . S
C499 C57 1.409 . S
C501 C18 1.409 . S
C517 C31 1.409 . S
C519 C70 1.409 . S
C535 C83 1.409 . S
C537 C122 1.409 . S
C553 C96 1.409 . S
C555 C135 1.409 . S
C571 C148 1.409 . S
C573 C109 1.409 . S
