# Generated by pormake.
# Topology uka, (4)-cn, num edge types: 1
# Building blocks:
#     Node 0, Type 0, BuildingBlock: GALJAG_clean_sbu_0, # of connection points: 4
#     Node 1, Type 0, BuildingBlock: GALJAG_clean_sbu_0, # of connection points: 4
#     Node 2, Type 0, BuildingBlock: GALJAG_clean_sbu_0, # of connection points: 4
#     Node 3, Type 0, BuildingBlock: GALJAG_clean_sbu_0, # of connection points: 4
#     Node 4, Type 0, BuildingBlock: GALJAG_clean_sbu_0, # of connection points: 4
#     Node 5, Type 0, BuildingBlock: GALJAG_clean_sbu_0, # of connection points: 4
#     Node 6, Type 0, BuildingBlock: GALJAG_clean_sbu_0, # of connection points: 4
#     Node 7, Type 0, BuildingBlock: GALJAG_clean_sbu_0, # of connection points: 4
#     Node 8, Type 0, BuildingBlock: GALJAG_clean_sbu_0, # of connection points: 4
#     Node 9, Type 0, BuildingBlock: GALJAG_clean_sbu_0, # of connection points: 4
#     Node 10, Type 0, BuildingBlock: GALJAG_clean_sbu_0, # of connection points: 4
#     Node 11, Type 0, BuildingBlock: GALJAG_clean_sbu_0, # of connection points: 4
#     Node 12, Type 0, BuildingBlock: GALJAG_clean_sbu_0, # of connection points: 4
#     Node 13, Type 0, BuildingBlock: GALJAG_clean_sbu_0, # of connection points: 4
#     Node 14, Type 0, BuildingBlock: GALJAG_clean_sbu_0, # of connection points: 4
#     Node 15, Type 0, BuildingBlock: GALJAG_clean_sbu_0, # of connection points: 4
#     Node 16, Type 0, BuildingBlock: GALJAG_clean_sbu_0, # of connection points: 4
#     Node 17, Type 0, BuildingBlock: GALJAG_clean_sbu_0, # of connection points: 4
#     Node 18, Type 0, BuildingBlock: GALJAG_clean_sbu_0, # of connection points: 4
#     Node 19, Type 0, BuildingBlock: GALJAG_clean_sbu_0, # of connection points: 4
#     Node 20, Type 0, BuildingBlock: GALJAG_clean_sbu_0, # of connection points: 4
#     Node 21, Type 0, BuildingBlock: GALJAG_clean_sbu_0, # of connection points: 4
#     Node 22, Type 0, BuildingBlock: GALJAG_clean_sbu_0, # of connection points: 4
#     Node 23, Type 0, BuildingBlock: GALJAG_clean_sbu_0, # of connection points: 4
#     Node 24, Type 0, BuildingBlock: GALJAG_clean_sbu_0, # of connection points: 4
#     Node 25, Type 0, BuildingBlock: GALJAG_clean_sbu_0, # of connection points: 4
#     Node 26, Type 0, BuildingBlock: GALJAG_clean_sbu_0, # of connection points: 4
#     Node 27, Type 0, BuildingBlock: GALJAG_clean_sbu_0, # of connection points: 4
#     Node 28, Type 0, BuildingBlock: GALJAG_clean_sbu_0, # of connection points: 4
#     Node 29, Type 0, BuildingBlock: GALJAG_clean_sbu_0, # of connection points: 4
#     Node 30, Type 0, BuildingBlock: GALJAG_clean_sbu_0, # of connection points: 4
#     Node 31, Type 0, BuildingBlock: GALJAG_clean_sbu_0, # of connection points: 4
#     Edge 32, Type (0, 0), BuildingBlock: KIFKEQ_clean_linker_1, # of connection points: 2
#     Edge 33, Type (0, 0), BuildingBlock: KIFKEQ_clean_linker_1, # of connection points: 2
#     Edge 34, Type (0, 0), BuildingBlock: KIFKEQ_clean_linker_1, # of connection points: 2
#     Edge 35, Type (0, 0), BuildingBlock: KIFKEQ_clean_linker_1, # of connection points: 2
#     Edge 36, Type (0, 0), BuildingBlock: KIFKEQ_clean_linker_1, # of connection points: 2
#     Edge 37, Type (0, 0), BuildingBlock: KIFKEQ_clean_linker_1, # of connection points: 2
#     Edge 38, Type (0, 0), BuildingBlock: KIFKEQ_clean_linker_1, # of connection points: 2
#     Edge 39, Type (0, 0), BuildingBlock: KIFKEQ_clean_linker_1, # of connection points: 2
#     Edge 40, Type (0, 0), BuildingBlock: KIFKEQ_clean_linker_1, # of connection points: 2
#     Edge 41, Type (0, 0), BuildingBlock: KIFKEQ_clean_linker_1, # of connection points: 2
#     Edge 42, Type (0, 0), BuildingBlock: KIFKEQ_clean_linker_1, # of connection points: 2
#     Edge 43, Type (0, 0), BuildingBlock: KIFKEQ_clean_linker_1, # of connection points: 2
#     Edge 44, Type (0, 0), BuildingBlock: KIFKEQ_clean_linker_1, # of connection points: 2
#     Edge 45, Type (0, 0), BuildingBlock: KIFKEQ_clean_linker_1, # of connection points: 2
#     Edge 46, Type (0, 0), BuildingBlock: KIFKEQ_clean_linker_1, # of connection points: 2
#     Edge 47, Type (0, 0), BuildingBlock: KIFKEQ_clean_linker_1, # of connection points: 2
#     Edge 48, Type (0, 0), BuildingBlock: KIFKEQ_clean_linker_1, # of connection points: 2
#     Edge 49, Type (0, 0), BuildingBlock: KIFKEQ_clean_linker_1, # of connection points: 2
#     Edge 50, Type (0, 0), BuildingBlock: KIFKEQ_clean_linker_1, # of connection points: 2
#     Edge 51, Type (0, 0), BuildingBlock: KIFKEQ_clean_linker_1, # of connection points: 2
#     Edge 52, Type (0, 0), BuildingBlock: KIFKEQ_clean_linker_1, # of connection points: 2
#     Edge 53, Type (0, 0), BuildingBlock: KIFKEQ_clean_linker_1, # of connection points: 2
#     Edge 54, Type (0, 0), BuildingBlock: KIFKEQ_clean_linker_1, # of connection points: 2
#     Edge 55, Type (0, 0), BuildingBlock: KIFKEQ_clean_linker_1, # of connection points: 2
#     Edge 56, Type (0, 0), BuildingBlock: KIFKEQ_clean_linker_1, # of connection points: 2
#     Edge 57, Type (0, 0), BuildingBlock: KIFKEQ_clean_linker_1, # of connection points: 2
#     Edge 58, Type (0, 0), BuildingBlock: KIFKEQ_clean_linker_1, # of connection points: 2
#     Edge 59, Type (0, 0), BuildingBlock: KIFKEQ_clean_linker_1, # of connection points: 2
#     Edge 60, Type (0, 0), BuildingBlock: KIFKEQ_clean_linker_1, # of connection points: 2
#     Edge 61, Type (0, 0), BuildingBlock: KIFKEQ_clean_linker_1, # of connection points: 2
#     Edge 62, Type (0, 0), BuildingBlock: KIFKEQ_clean_linker_1, # of connection points: 2
#     Edge 63, Type (0, 0), BuildingBlock: KIFKEQ_clean_linker_1, # of connection points: 2
#     Edge 64, Type (0, 0), BuildingBlock: KIFKEQ_clean_linker_1, # of connection points: 2
#     Edge 65, Type (0, 0), BuildingBlock: KIFKEQ_clean_linker_1, # of connection points: 2
#     Edge 66, Type (0, 0), BuildingBlock: KIFKEQ_clean_linker_1, # of connection points: 2
#     Edge 67, Type (0, 0), BuildingBlock: KIFKEQ_clean_linker_1, # of connection points: 2
#     Edge 68, Type (0, 0), BuildingBlock: KIFKEQ_clean_linker_1, # of connection points: 2
#     Edge 69, Type (0, 0), BuildingBlock: KIFKEQ_clean_linker_1, # of connection points: 2
#     Edge 70, Type (0, 0), BuildingBlock: KIFKEQ_clean_linker_1, # of connection points: 2
#     Edge 71, Type (0, 0), BuildingBlock: KIFKEQ_clean_linker_1, # of connection points: 2
#     Edge 72, Type (0, 0), BuildingBlock: KIFKEQ_clean_linker_1, # of connection points: 2
#     Edge 73, Type (0, 0), BuildingBlock: KIFKEQ_clean_linker_1, # of connection points: 2
#     Edge 74, Type (0, 0), BuildingBlock: KIFKEQ_clean_linker_1, # of connection points: 2
#     Edge 75, Type (0, 0), BuildingBlock: KIFKEQ_clean_linker_1, # of connection points: 2
#     Edge 76, Type (0, 0), BuildingBlock: KIFKEQ_clean_linker_1, # of connection points: 2
#     Edge 77, Type (0, 0), BuildingBlock: KIFKEQ_clean_linker_1, # of connection points: 2
#     Edge 78, Type (0, 0), BuildingBlock: KIFKEQ_clean_linker_1, # of connection points: 2
#     Edge 79, Type (0, 0), BuildingBlock: KIFKEQ_clean_linker_1, # of connection points: 2
#     Edge 80, Type (0, 0), BuildingBlock: KIFKEQ_clean_linker_1, # of connection points: 2
#     Edge 81, Type (0, 0), BuildingBlock: KIFKEQ_clean_linker_1, # of connection points: 2
#     Edge 82, Type (0, 0), BuildingBlock: KIFKEQ_clean_linker_1, # of connection points: 2
#     Edge 83, Type (0, 0), BuildingBlock: KIFKEQ_clean_linker_1, # of connection points: 2
#     Edge 84, Type (0, 0), BuildingBlock: KIFKEQ_clean_linker_1, # of connection points: 2
#     Edge 85, Type (0, 0), BuildingBlock: KIFKEQ_clean_linker_1, # of connection points: 2
#     Edge 86, Type (0, 0), BuildingBlock: KIFKEQ_clean_linker_1, # of connection points: 2
#     Edge 87, Type (0, 0), BuildingBlock: KIFKEQ_clean_linker_1, # of connection points: 2
#     Edge 88, Type (0, 0), BuildingBlock: KIFKEQ_clean_linker_1, # of connection points: 2
#     Edge 89, Type (0, 0), BuildingBlock: KIFKEQ_clean_linker_1, # of connection points: 2
#     Edge 90, Type (0, 0), BuildingBlock: KIFKEQ_clean_linker_1, # of connection points: 2
#     Edge 91, Type (0, 0), BuildingBlock: KIFKEQ_clean_linker_1, # of connection points: 2
#     Edge 92, Type (0, 0), BuildingBlock: KIFKEQ_clean_linker_1, # of connection points: 2
#     Edge 93, Type (0, 0), BuildingBlock: KIFKEQ_clean_linker_1, # of connection points: 2
#     Edge 94, Type (0, 0), BuildingBlock: KIFKEQ_clean_linker_1, # of connection points: 2
#     Edge 95, Type (0, 0), BuildingBlock: KIFKEQ_clean_linker_1, # of connection points: 2
# Relax obj value: 0.105
# Max RMSD: 0.149
# Mean RMSD: 0.149
data_MOF--net-uka--node1-GALJAG_clean_sbu_0--edge1-KIFKEQ_clean_linker_1
_symmetry_space_group_name_H-M    P1
_symmetry_Int_Tables_number       1
_symmetry_cell_setting            triclinic
loop_
_symmetry_equiv_pos_as_xyz
'x, y, z'
_cell_length_a     58.253194
_cell_length_b     58.198438
_cell_length_c     47.673597
_cell_angle_alpha  90.015631
_cell_angle_beta   90.110579
_cell_angle_gamma 89.990822
loop_
_atom_site_label
_atom_site_type_symbol
_atom_site_fract_x
_atom_site_fract_y
_atom_site_fract_z
_atom_type_partial_charge
In0 In 0.10865 0.26746 0.26385 0.0
O1 O 0.14497 0.28105 0.26877 0.0
O2 O 0.1379 0.25849 0.23463 0.0
C3 C 0.08983 0.28902 0.30808 0.0
C4 C 0.08573 0.28389 0.21892 0.0
C5 C 0.10917 0.22476 0.28564 0.0
O6 O 0.10829 0.29586 0.29702 0.0
O7 O 0.08076 0.27184 0.29638 0.0
O8 O 0.09343 0.23139 0.2692 0.0
O9 O 0.12461 0.23943 0.2903 0.0
C10 C 0.15265 0.27008 0.24794 0.0
O11 O 0.0871 0.26264 0.22404 0.0
O12 O 0.09572 0.29663 0.23651 0.0
In13 In 0.95266 0.87278 0.51646 0.0
O14 O 0.95956 0.84864 0.47969 0.0
O15 O 0.9283 0.86748 0.47949 0.0
C16 C 0.9901 0.85495 0.5418 0.0
C17 C 0.95929 0.9173 0.50365 0.0
C18 C 0.9223 0.86558 0.55832 0.0
O19 O 0.97317 0.84282 0.53455 0.0
O20 O 0.98854 0.87585 0.53523 0.0
O21 O 0.93887 0.87936 0.56044 0.0
O22 O 0.92047 0.85605 0.53465 0.0
C23 C 0.94094 0.853 0.46723 0.0
O24 O 0.94328 0.91071 0.51953 0.0
O25 O 0.9713 0.90136 0.49339 0.0
In26 In 0.37265 0.70435 0.76099 0.0
O27 O 0.39505 0.70841 0.72196 0.0
O28 O 0.37837 0.67637 0.72841 0.0
C29 C 0.39465 0.73854 0.78811 0.0
C30 C 0.33048 0.71681 0.74386 0.0
C31 C 0.37347 0.6756 0.80543 0.0
O32 O 0.40518 0.72145 0.77813 0.0
O33 O 0.37342 0.73882 0.78314 0.0
O34 O 0.35907 0.69165 0.80313 0.0
O35 O 0.38676 0.67343 0.78474 0.0
C36 C 0.39152 0.68824 0.71321 0.0
O37 O 0.33448 0.69762 0.75523 0.0
O38 O 0.34793 0.72925 0.74011 0.0
In39 In 0.51531 0.11371 0.0117 0.0
O40 O 0.52752 0.07654 0.01357 0.0
O41 O 0.49423 0.08346 0.99696 0.0
C42 C 0.54526 0.13584 0.04488 0.0
C43 C 0.52647 0.13037 0.96086 0.0
C44 C 0.4793 0.12065 0.04571 0.0
O45 O 0.54517 0.11416 0.04282 0.0
O46 O 0.53113 0.14609 0.02914 0.0
O47 O 0.47816 0.12543 0.01982 0.0
O48 O 0.49823 0.11257 0.0538 0.0
C49 C 0.50898 0.06859 0.00372 0.0
O50 O 0.50877 0.13699 0.9739 0.0
O51 O 0.53812 0.11517 0.97329 0.0
In52 In 0.11156 0.72521 0.23285 0.0
O53 O 0.14773 0.71262 0.22356 0.0
O54 O 0.14305 0.73744 0.25603 0.0
C55 C 0.08786 0.70144 0.19391 0.0
C56 C 0.09738 0.70824 0.28242 0.0
C57 C 0.10724 0.76747 0.21026 0.0
O58 O 0.10944 0.70021 0.19585 0.0
O59 O 0.07839 0.71416 0.2119 0.0
O60 O 0.09337 0.76018 0.22859 0.0
O61 O 0.123 0.75365 0.20394 0.0
C62 C 0.15691 0.72555 0.24174 0.0
O63 O 0.09514 0.72921 0.27605 0.0
O64 O 0.10665 0.69598 0.26377 0.0
In65 In 0.52318 0.87277 0.48169 0.0
O66 O 0.51672 0.8527 0.52216 0.0
O67 O 0.54859 0.87031 0.51759 0.0
C68 C 0.48593 0.86704 0.44901 0.0
C69 C 0.51948 0.91828 0.489 0.0
C70 C 0.55115 0.84759 0.44936 0.0
O71 O 0.48576 0.86098 0.47453 0.0
O72 O 0.50443 0.87592 0.44079 0.0
O73 O 0.55294 0.86922 0.45091 0.0
O74 O 0.53599 0.83884 0.46496 0.0
C75 C 0.53606 0.85765 0.53269 0.0
O76 O 0.53526 0.90951 0.47431 0.0
O77 O 0.50626 0.90404 0.50069 0.0
In78 In 0.37436 0.26312 0.73795 0.0
O79 O 0.39293 0.26074 0.78029 0.0
O80 O 0.38565 0.29392 0.76418 0.0
C81 C 0.38273 0.22084 0.71705 0.0
C82 C 0.32924 0.26114 0.74901 0.0
C83 C 0.39017 0.28528 0.69232 0.0
O84 O 0.39704 0.23139 0.73228 0.0
O85 O 0.36386 0.23109 0.71383 0.0
O86 O 0.37111 0.29029 0.70329 0.0
O87 O 0.40144 0.27005 0.70511 0.0
C88 C 0.39446 0.28218 0.78364 0.0
O89 O 0.33746 0.27355 0.7298 0.0
O90 O 0.34392 0.25037 0.76345 0.0
In91 In 0.97003 0.11724 0.98264 0.0
O92 O 0.95581 0.08162 0.97336 0.0
O93 O 0.97655 0.08588 0.00974 0.0
C94 C 0.94814 0.13718 0.93931 0.0
C95 C 0.95646 0.13951 0.02943 0.0
C96 C 0.01271 0.11837 0.96094 0.0
O97 O 0.94047 0.11934 0.95114 0.0
O98 O 0.96624 0.14525 0.95001 0.0
O99 O 0.00546 0.13374 0.97741 0.0
O100 O -0.00128 0.10231 0.95632 0.0
C101 C 0.96552 0.07229 0.99412 0.0
O102 O 0.97696 0.13335 0.02549 0.0
O103 O 0.94282 0.13445 0.00981 0.0
In104 In 0.86988 0.72346 0.72988 0.0
O105 O 0.83406 0.70983 0.72042 0.0
O106 O 0.83842 0.73218 0.75547 0.0
C107 C 0.89291 0.70356 0.68741 0.0
C108 C 0.88799 0.70557 0.77721 0.0
C109 C 0.87163 0.76679 0.70993 0.0
O110 O 0.87232 0.69845 0.69288 0.0
O111 O 0.90186 0.71796 0.70387 0.0
O112 O 0.88614 0.75934 0.72745 0.0
O113 O 0.85619 0.75265 0.70335 0.0
C114 C 0.82477 0.72071 0.74035 0.0
O115 O 0.88748 0.72693 0.77257 0.0
O116 O 0.87947 0.69333 0.75797 0.0
In117 In 0.03118 0.12248 0.48115 0.0
O118 O 0.02588 0.14292 0.52161 0.0
O119 O 0.05702 0.12425 0.51691 0.0
C120 C -0.00329 0.14246 0.45215 0.0
C121 C 0.01743 0.07972 0.49382 0.0
C122 C 0.06338 0.12971 0.44147 0.0
O123 O 0.00939 0.15378 0.46864 0.0
O124 O 0.00105 0.1213 0.45114 0.0
O125 O 0.05115 0.11186 0.44195 0.0
O126 O 0.06003 0.14333 0.4616 0.0
C127 C 0.04505 0.13738 0.53205 0.0
O128 O 0.03721 0.08391 0.48426 0.0
O129 O 0.00504 0.09717 0.49796 0.0
In130 In 0.62118 0.26698 0.23035 0.0
O131 O 0.659 0.27595 0.22651 0.0
O132 O 0.65011 0.24583 0.2493 0.0
C133 C 0.6144 0.29711 0.18801 0.0
C134 C 0.60306 0.27949 0.28024 0.0
C135 C 0.60131 0.23042 0.20576 0.0
O136 O 0.62473 0.27829 0.18487 0.0
O137 O 0.60824 0.30128 0.21286 0.0
O138 O 0.62179 0.23018 0.21434 0.0
O139 O 0.59039 0.24862 0.21124 0.0
C140 C 0.66584 0.25854 0.2399 0.0
O141 O 0.59621 0.26206 0.26689 0.0
O142 O 0.61907 0.29042 0.26854 0.0
In143 In 0.47983 0.8539 0.98934 0.0
O144 O 0.46498 0.8895 0.98236 0.0
O145 O 0.49078 0.88549 0.01375 0.0
C146 C 0.45892 0.83028 0.94819 0.0
C147 C 0.4619 0.83574 0.03641 0.0
C148 C 0.52148 0.85341 0.96513 0.0
O149 O 0.45399 0.85095 0.95362 0.0
O150 O 0.47373 0.82137 0.9642 0.0
O151 O 0.5171 0.84088 0.98619 0.0
O152 O 0.5052 0.86614 0.95734 0.0
C153 C 0.47768 0.89896 0.00051 0.0
O154 O 0.48326 0.83542 0.03166 0.0
O155 O 0.44993 0.84499 0.01744 0.0
In156 In 0.865 0.26622 0.75852 0.0
O157 O 0.88097 0.26207 0.71512 0.0
O158 O 0.86782 0.29489 0.72627 0.0
C159 C 0.87836 0.227 0.78356 0.0
C160 C 0.81999 0.25912 0.75101 0.0
C161 C 0.88406 0.29278 0.79847 0.0
O162 O 0.88938 0.23559 0.76329 0.0
O163 O 0.86038 0.23772 0.79021 0.0
O164 O 0.86258 0.29109 0.79564 0.0
O165 O 0.89562 0.28216 0.78028 0.0
C166 C 0.87757 0.28268 0.70796 0.0
O167 O 0.82766 0.2768 0.76326 0.0
O168 O 0.83508 0.2455 0.74183 0.0
In169 In 0.46321 0.12809 0.50364 0.0
O170 O 0.46503 0.15082 0.46457 0.0
O171 O 0.43501 0.13073 0.47063 0.0
C172 C 0.50258 0.13926 0.52974 0.0
C173 C 0.47264 0.08435 0.49033 0.0
C174 C 0.43675 0.14292 0.54635 0.0
O175 O 0.49448 0.15128 0.50996 0.0
O176 O 0.49124 0.12142 0.53543 0.0
O177 O 0.43745 0.12201 0.53935 0.0
O178 O 0.44818 0.15615 0.53083 0.0
C179 C 0.44551 0.14503 0.45549 0.0
O180 O 0.45463 0.09005 0.50335 0.0
O181 O 0.48541 0.10084 0.48312 0.0
In182 In 0.61926 0.70874 0.26251 0.0
O183 O 0.65667 0.69827 0.26183 0.0
O184 O 0.6481 0.73171 0.24681 0.0
C185 C 0.60494 0.67253 0.29306 0.0
C186 C 0.59978 0.70123 0.21205 0.0
C187 C 0.60903 0.74272 0.29899 0.0
O188 O 0.62501 0.68047 0.29496 0.0
O189 O 0.59257 0.68201 0.27469 0.0
O190 O 0.60353 0.74415 0.27339 0.0
O191 O 0.61926 0.72452 0.30557 0.0
C192 C 0.66365 0.71732 0.2525 0.0
O193 O 0.59018 0.71313 0.23087 0.0
O194 O 0.61932 0.69343 0.21855 0.0
In195 In 0.02717 0.86473 0.00983 0.0
O196 O 0.03394 0.90313 0.01013 0.0
O197 O 0.00351 0.89108 0.99007 0.0
C198 C 0.05694 0.85976 0.05288 0.0
C199 C 0.04266 0.84891 0.96011 0.0
C200 C 0.99144 0.84383 0.03514 0.0
O201 O 0.04148 0.87489 0.0527 0.0
O202 O 0.05795 0.84776 0.0309 0.0
O203 O 0.0086 0.83276 0.02629 0.0
O204 O 0.99191 0.86501 0.0299 0.0
C205 C 0.01548 0.90809 -0.00246 0.0
O206 O 0.02375 0.84255 0.97042 0.0
O207 O 0.05356 0.86331 0.97476 0.0
In208 In 0.61519 0.77613 0.76274 0.0
O209 O 0.59353 0.77323 0.72274 0.0
O210 O 0.60919 0.80532 0.73157 0.0
C211 C 0.589 0.74266 0.78484 0.0
C212 C 0.65873 0.76486 0.74951 0.0
C213 C 0.61512 0.80109 0.81045 0.0
O214 O 0.58117 0.76243 0.77947 0.0
O215 O 0.60956 0.7395 0.7775 0.0
O216 O 0.62284 0.78092 0.8091 0.0
O217 O 0.60805 0.80915 0.78741 0.0
C218 C 0.59668 0.79376 0.71522 0.0
O219 O 0.65351 0.78354 0.76125 0.0
O220 O 0.6419 0.7522 0.74346 0.0
In221 In 0.47575 0.3684 0.00874 0.0
O222 O 0.46303 0.40527 0.01201 0.0
O223 O 0.49604 0.39942 0.99423 0.0
C224 C 0.44577 0.34562 0.04123 0.0
C225 C 0.46331 0.35335 0.95741 0.0
C226 C 0.51271 0.36021 0.04114 0.0
O227 O 0.44685 0.36731 0.04107 0.0
O228 O 0.45922 0.33569 0.02443 0.0
O229 O 0.51232 0.35439 0.01554 0.0
O230 O 0.49478 0.37001 0.04973 0.0
C231 C 0.4811 0.41384 0.00179 0.0
O232 O 0.48154 0.34663 0.96932 0.0
O233 O 0.45189 0.36795 0.97111 0.0
In234 In 0.87924 0.22976 0.25385 0.0
O235 O 0.84434 0.21556 0.26637 0.0
O236 O 0.84678 0.23437 0.22821 0.0
C237 C 0.90202 0.21054 0.29707 0.0
C238 C 0.89845 0.21266 0.20682 0.0
C239 C 0.88111 0.27368 0.27183 0.0
O240 O 0.88263 0.20332 0.28905 0.0
O241 O 0.91005 0.22692 0.28283 0.0
O242 O 0.89594 0.26533 0.25544 0.0
O243 O 0.86505 0.26015 0.27807 0.0
C244 C 0.83407 0.22383 0.24532 0.0
O245 O 0.89301 0.23355 0.20925 0.0
O246 O 0.8943 0.20049 0.22809 0.0
In247 In 0.02986 0.6219 0.51479 0.0
O248 O 0.03528 0.58412 0.525 0.0
O249 O 0.01294 0.59231 0.49121 0.0
C250 C 0.05784 0.62936 0.55915 0.0
C251 C 0.0449 0.64054 0.46629 0.0
C252 C 0.99172 0.64284 0.53372 0.0
O253 O 0.03721 0.62331 0.56146 0.0
O254 O 0.06481 0.63121 0.5342 0.0
O255 O 0.01006 0.65363 0.52864 0.0
O256 O 0.99233 0.62169 0.5279 0.0
C257 C 0.02173 0.57688 0.50636 0.0
O258 O 0.02623 0.64628 0.47766 0.0
O259 O 0.05603 0.62531 0.47935 0.0
In260 In 0.60562 0.22289 0.73807 0.0
O261 O 0.5889 0.22493 0.78142 0.0
O262 O 0.59483 0.19189 0.76407 0.0
C263 C 0.59698 0.26557 0.71881 0.0
C264 C 0.65113 0.22381 0.74689 0.0
C265 C 0.58765 0.2013 0.69315 0.0
O266 O 0.58338 0.25513 0.73502 0.0
O267 O 0.61538 0.25496 0.71378 0.0
O268 O 0.60686 0.19567 0.70336 0.0
O269 O 0.5773 0.21694 0.70631 0.0
C270 C 0.58715 0.20346 0.78433 0.0
O271 O 0.642 0.21246 0.72728 0.0
O272 O 0.63719 0.23419 0.76272 0.0
In273 In 0.01259 0.36308 0.98603 0.0
O274 O 0.00625 0.34191 0.02562 0.0
O275 O 0.03721 0.36115 0.02298 0.0
C276 C 0.97354 0.34586 0.96399 0.0
C277 C 0.0088 0.40873 0.99305 0.0
C278 C 0.04167 0.3496 0.94512 0.0
O279 O 0.98996 0.3333 0.9719 0.0
O280 O 0.97629 0.36697 0.96876 0.0
O281 O 0.02579 0.3639 0.941 0.0
O282 O 0.04357 0.34291 0.97018 0.0
C283 C 0.02495 0.34758 0.03715 0.0
O284 O 0.02373 0.39994 0.97716 0.0
O285 O -0.00365 0.39447 0.00591 0.0
In286 In 0.87517 0.76283 0.23648 0.0
O287 O 0.83837 0.77607 0.23509 0.0
O288 O 0.84601 0.74621 0.25955 0.0
C289 C 0.89803 0.78492 0.19589 0.0
C290 C 0.89262 0.7804 0.28414 0.0
C291 C 0.8756 0.72281 0.20865 0.0
O292 O 0.87706 0.78895 0.2008 0.0
O293 O 0.90742 0.77066 0.21223 0.0
O294 O 0.88926 0.72641 0.22897 0.0
O295 O 0.86208 0.73912 0.20316 0.0
C296 C 0.83092 0.75989 0.25036 0.0
O297 O 0.89523 0.75943 0.27772 0.0
O298 O 0.8815 0.79214 0.26648 0.0
In299 In 0.4629 0.61434 0.47707 0.0
O300 O 0.46954 0.63558 0.51671 0.0
O301 O 0.44043 0.61341 0.51563 0.0
C302 C 0.49751 0.62427 0.44201 0.0
C303 C 0.47104 0.56927 0.48264 0.0
C304 C 0.43087 0.63657 0.44726 0.0
O305 O 0.49948 0.62752 0.46818 0.0
O306 O 0.47843 0.6164 0.43417 0.0
O307 O 0.43293 0.61494 0.44631 0.0
O308 O 0.44433 0.64666 0.46403 0.0
C309 C 0.45198 0.62799 0.52927 0.0
O310 O 0.45201 0.57677 0.47372 0.0
O311 O 0.4854 0.58449 0.48945 0.0
In312 In 0.36057 0.21077 0.22192 0.0
O313 O 0.38871 0.21324 0.25517 0.0
O314 O 0.35823 0.19476 0.26527 0.0
C315 C 0.37518 0.24377 0.18655 0.0
C316 C 0.31752 0.22444 0.23241 0.0
C317 C 0.37157 0.17385 0.19056 0.0
O318 O 0.3815 0.24338 0.21194 0.0
O319 O 0.36189 0.22774 0.17954 0.0
O320 O 0.35277 0.18432 0.18782 0.0
O321 O 0.38423 0.18124 0.21002 0.0
C322 C 0.37782 0.20154 0.27311 0.0
O323 O 0.32236 0.20398 0.22582 0.0
O324 O 0.33452 0.23775 0.23466 0.0
In325 In 0.50293 0.62994 0.98725 0.0
O326 O 0.50136 0.65011 0.02858 0.0
O327 O 0.53334 0.63567 0.0163 0.0
C328 C 0.45922 0.63148 0.96842 0.0
C329 C 0.50577 0.58481 -0.0024 0.0
C330 C 0.52272 0.65199 0.9437 0.0
O331 O 0.46714 0.64665 0.98478 0.0
O332 O 0.47304 0.6156 0.96258 0.0
O333 O 0.52584 0.63089 0.9483 0.0
O334 O 0.51032 0.66202 0.96153 0.0
C335 C 0.52235 0.64716 0.03424 0.0
O336 O 0.51748 0.59455 0.97872 0.0
O337 O 0.49317 0.59806 0.01192 0.0
In338 In 0.12244 0.7733 0.72823 0.0
O339 O 0.10328 0.768 0.76935 0.0
O340 O 0.11673 0.8013 0.76063 0.0
C341 C 0.11987 0.73266 0.70162 0.0
C342 C 0.16783 0.77229 0.73739 0.0
C343 C 0.09607 0.79652 0.69171 0.0
O344 O 0.11058 0.73574 0.72531 0.0
O345 O 0.1304 0.74984 0.69203 0.0
O346 O 0.11707 0.80134 0.69515 0.0
O347 O 0.08852 0.78074 0.70731 0.0
C348 C 0.10573 0.78858 0.77735 0.0
O349 O 0.15895 0.78567 0.71951 0.0
O350 O 0.15371 0.76044 0.75127 0.0
In351 In 0.95556 0.3705 0.48202 0.0
O352 O 0.94757 0.40884 0.48149 0.0
O353 O 0.97641 0.39735 0.50509 0.0
C354 C 0.93105 0.35654 0.43726 0.0
C355 C 0.93718 0.35122 0.52836 0.0
C356 C -0.00419 0.35895 0.45846 0.0
O357 O 0.92929 0.37673 0.44672 0.0
O358 O 0.94386 0.34346 0.45135 0.0
O359 O 0.98678 0.34719 0.47781 0.0
O360 O 0.98485 0.37682 0.45173 0.0
C361 C 0.96465 0.41413 0.49653 0.0
O362 O 0.95781 0.34839 0.52125 0.0
O363 O 0.92569 0.36395 0.51215 0.0
In364 In 0.36553 0.78016 0.2669 0.0
O365 O 0.39248 0.77299 0.23335 0.0
O366 O 0.3701 0.80165 0.22767 0.0
C367 C 0.37431 0.74454 0.30129 0.0
C368 C 0.32275 0.77069 0.24945 0.0
C369 C 0.37839 0.81376 0.3026 0.0
O370 O 0.38545 0.74743 0.27881 0.0
O371 O 0.35917 0.75944 0.30599 0.0
O372 O 0.35862 0.80499 0.30315 0.0
O373 O 0.39129 0.80625 0.28351 0.0
C374 C 0.3866 0.78986 0.21822 0.0
O375 O 0.32828 0.79015 0.25908 0.0
O376 O 0.339 0.75648 0.24764 0.0
In377 In 0.95327 0.6189 0.01051 0.0
O378 O 0.94475 0.58112 0.00455 0.0
O379 O 0.97877 0.59199 0.99543 0.0
C380 C 0.92012 0.63075 0.04706 0.0
C381 C 0.94133 0.6371 0.96054 0.0
C382 C 0.98763 0.63257 0.04453 0.0
O383 O 0.92755 0.61047 0.04502 0.0
O384 O 0.92851 0.64472 0.02963 0.0
O385 O 0.98456 0.64158 0.02066 0.0
O386 O 0.97386 0.61665 0.05048 0.0
C387 C 0.96475 0.57554 0.99705 0.0
O388 O 0.95924 0.6432 0.97355 0.0
O389 O 0.9296 0.62186 0.97271 0.0
In390 In 0.11882 0.20778 0.77003 0.0
O391 O 0.09833 0.21353 0.72962 0.0
O392 O 0.1154 0.18152 0.73499 0.0
C393 C 0.10518 0.24529 0.79887 0.0
C394 C 0.16264 0.21696 0.75702 0.0
C395 C 0.10654 0.17628 0.80865 0.0
O396 O 0.09261 0.23612 0.78035 0.0
O397 O 0.12433 0.2357 0.80234 0.0
O398 O 0.12653 0.18451 0.8075 0.0
O399 O 0.09299 0.18353 0.79001 0.0
C400 C 0.10279 0.19391 0.71965 0.0
O401 O 0.15663 0.19826 0.76829 0.0
O402 O 0.1464 0.23053 0.75129 0.0
In403 In 0.51242 0.35616 0.50555 0.0
O404 O 0.5101 0.33824 0.46293 0.0
O405 O 0.54325 0.3456 0.47907 0.0
C406 C 0.47077 0.3461 0.52676 0.0
C407 C 0.50904 0.4011 0.49364 0.0
C408 C 0.53563 0.34162 0.55111 0.0
O409 O 0.48147 0.33248 0.51081 0.0
O410 O 0.48062 0.3651 0.53075 0.0
O411 O 0.53934 0.36101 0.54016 0.0
O412 O 0.52119 0.32936 0.53827 0.0
C413 C 0.53152 0.33717 0.45936 0.0
O414 O 0.5223 0.39338 0.51234 0.0
O415 O 0.4979 0.38603 0.48029 0.0
H416 H 0.09506 0.16384 0.43869 0.0
H417 H 0.06294 0.11066 0.38911 0.0
H418 H 0.11136 0.18047 0.39642 0.0
H419 H 0.07935 0.12736 0.34653 0.0
H420 H 0.07366 0.19413 0.2882 0.0
H421 H 0.06832 0.16437 0.32361 0.0
H422 H 0.13671 0.17703 0.3552 0.0
H423 H 0.14195 0.20696 0.32004 0.0
C424 C 0.09206 0.15532 0.4188 0.0
C425 C 0.07752 0.13616 0.41711 0.0
C426 C 0.10151 0.16476 0.39456 0.0
C427 C 0.09645 0.15532 0.36809 0.0
C428 C 0.08334 0.13509 0.36662 0.0
C429 C 0.07407 0.12548 0.39099 0.0
C430 C 0.0878 0.19006 0.30215 0.0
C431 C 0.10802 0.20316 0.30178 0.0
C432 C 0.0848 0.17292 0.32236 0.0
C433 C 0.10199 0.16864 0.34247 0.0
C434 C 0.12304 0.18023 0.34026 0.0
C435 C 0.12603 0.19734 0.3201 0.0
H436 H -0.00339 0.81087 0.55923 0.0
H437 H 0.02538 0.87911 0.56532 0.0
H438 H 0.02389 0.79728 0.59431 0.0
H439 H 0.05239 0.86562 0.60093 0.0
H440 H 0.10902 0.82648 0.65026 0.0
H441 H 0.0854 0.84034 0.61118 0.0
H442 H 0.02706 0.80367 0.64464 0.0
H443 H 0.05058 0.78962 0.68309 0.0
C444 C 0.00895 0.82289 0.56782 0.0
C445 C 0.00876 0.84607 0.55972 0.0
C446 C 0.02445 0.81517 0.58807 0.0
C447 C 0.04002 0.83048 0.60073 0.0
C448 C 0.04065 0.8534 0.59151 0.0
C449 C 0.02515 0.86112 0.57117 0.0
C450 C 0.0911 0.82158 0.6493 0.0
C451 C 0.08165 0.80691 0.66963 0.0
C452 C 0.0776 0.82949 0.62696 0.0
C453 C 0.05447 0.82279 0.6246 0.0
C454 C 0.04496 0.80867 0.64545 0.0
C455 C 0.05839 0.80081 0.66766 0.0
H456 H 0.46633 0.7857 0.93347 0.0
H457 H 0.43027 0.84705 0.9077 0.0
H458 H 0.45187 0.76556 0.89231 0.0
H459 H 0.41625 0.82709 0.86602 0.0
H460 H 0.37391 0.77374 0.81572 0.0
H461 H 0.38988 0.79699 0.85338 0.0
H462 H 0.45579 0.7642 0.84193 0.0
H463 H 0.43954 0.74039 0.80469 0.0
C464 C 0.45532 0.79489 0.91896 0.0
C465 C 0.44932 0.8179 0.92385 0.0
C466 C 0.44724 0.78343 0.8952 0.0
C467 C 0.43306 0.79477 0.87573 0.0
C468 C 0.42699 0.8178 0.88072 0.0
C469 C 0.43502 0.82924 0.90457 0.0
C470 C 0.39191 0.77175 0.82093 0.0
C471 C 0.40546 0.75515 0.8074 0.0
C472 C 0.40109 0.78514 0.84249 0.0
C473 C 0.42405 0.78228 0.85089 0.0
C474 C 0.43791 0.76648 0.83633 0.0
C475 C 0.42869 0.75301 0.81482 0.0
H476 H 0.40098 0.13807 0.19775 0.0
H477 H 0.36316 0.17549 0.13472 0.0
H478 H 0.4235 0.11945 0.16122 0.0
H479 H 0.3868 0.15855 0.09825 0.0
H480 H 0.43305 0.12435 0.03512 0.0
H481 H 0.40251 0.13037 0.06964 0.0
H482 H 0.45371 0.13317 0.13553 0.0
H483 H 0.48345 0.12581 0.10158 0.0
C484 C 0.39724 0.14193 0.17598 0.0
C485 C 0.38056 0.15828 0.16896 0.0
C486 C 0.41033 0.13157 0.15501 0.0
C487 C 0.40764 0.13812 0.12672 0.0
C488 C 0.38947 0.15298 0.11965 0.0
C489 C 0.37587 0.16276 0.14061 0.0
C490 C 0.43755 0.1261 0.05708 0.0
C491 C 0.46053 0.12462 0.06575 0.0
C492 C 0.42012 0.12956 0.07688 0.0
C493 C 0.42548 0.13205 0.10559 0.0
C494 C 0.44862 0.13059 0.11392 0.0
C495 C 0.46583 0.12667 0.09433 0.0
H496 H 0.06851 0.79385 0.20656 0.0
H497 H 0.13857 0.78919 0.17769 0.0
H498 H 0.06071 0.82317 0.17118 0.0
H499 H 0.13098 0.81881 0.14279 0.0
H500 H 0.09229 0.82949 0.05732 0.0
H501 H 0.10831 0.81374 0.10028 0.0
H502 H 0.06738 0.86096 0.14913 0.0
H503 H 0.05111 0.87665 0.10586 0.0
C504 C 0.08243 0.79968 0.19331 0.0
C505 C 0.10397 0.78896 0.19441 0.0
C506 C 0.07803 0.81655 0.1731 0.0
C507 C 0.09516 0.82298 0.15384 0.0
C508 C 0.11733 0.81386 0.15694 0.0
C509 C 0.12167 0.79695 0.17697 0.0
C510 C 0.08715 0.83693 0.07719 0.0
C511 C 0.07024 0.85406 0.07828 0.0
C512 C 0.09644 0.82801 0.10186 0.0
C513 C 0.08894 0.83598 0.12816 0.0
C514 C 0.07327 0.85431 0.12918 0.0
C515 C 0.06407 0.86336 0.10442 0.0
H516 H 0.40534 0.85153 0.29785 0.0
H517 H 0.37237 0.80757 0.35833 0.0
H518 H 0.42714 0.86993 0.33528 0.0
H519 H 0.39561 0.82423 0.39563 0.0
H520 H 0.44035 0.85863 0.46055 0.0
H521 H 0.40957 0.85176 0.42639 0.0
H522 H 0.45893 0.85834 0.35907 0.0
H523 H 0.48867 0.86652 0.39269 0.0
C524 C 0.40259 0.8461 0.31931 0.0
C525 C 0.38739 0.82817 0.32534 0.0
C526 C 0.41528 0.85633 0.34079 0.0
C527 C 0.41387 0.84804 0.36853 0.0
C528 C 0.39725 0.83121 0.37472 0.0
C529 C 0.38393 0.82158 0.35331 0.0
C530 C 0.44435 0.85883 0.43836 0.0
C531 C 0.46683 0.86312 0.42924 0.0
C532 C 0.42679 0.85484 0.41876 0.0
C533 C 0.43155 0.85465 0.38974 0.0
C534 C 0.45417 0.85906 0.38097 0.0
C535 C 0.47144 0.86348 0.40039 0.0
H536 H 0.42558 0.20345 0.70879 0.0
H537 H 0.35477 0.19484 0.68374 0.0
H538 H 0.43769 0.18008 0.66896 0.0
H539 H 0.36703 0.17118 0.64405 0.0
H540 H 0.40755 0.11975 0.58175 0.0
H541 H 0.39356 0.13297 0.62775 0.0
H542 H 0.4296 0.19706 0.61653 0.0
H543 H 0.443 0.18436 0.57082 0.0
C544 C 0.41255 0.19585 0.69546 0.0
C545 C 0.38926 0.20127 0.69908 0.0
C546 C 0.4195 0.18255 0.67263 0.0
C547 C 0.40326 0.17419 0.65337 0.0
C548 C 0.37982 0.17745 0.65869 0.0
C549 C 0.37286 0.19101 0.68136 0.0
C550 C 0.41222 0.13674 0.58908 0.0
C551 C 0.42629 0.15107 0.57271 0.0
C552 C 0.40433 0.1442 0.61533 0.0
C553 C 0.41093 0.1658 0.62572 0.0
C554 C 0.42465 0.18016 0.60913 0.0
C555 C 0.4321 0.17296 0.58285 0.0
H556 H 0.12646 0.17038 0.86002 0.0
H557 H 0.06879 0.14902 0.80927 0.0
H558 H 0.10962 0.15101 0.90074 0.0
H559 H 0.05221 0.12952 0.84962 0.0
H560 H 0.02915 0.08906 0.92133 0.0
H561 H 0.05789 0.09777 0.88577 0.0
H562 H 0.07255 0.16221 0.92696 0.0
H563 H 0.04374 0.15357 0.96256 0.0
C564 C 0.11052 0.16103 0.85741 0.0
C565 C 0.09877 0.16133 0.83164 0.0
C566 C 0.1009 0.15004 0.88068 0.0
C567 C 0.07965 0.1388 0.8783 0.0
C568 C 0.06875 0.13781 0.852 0.0
C569 C 0.07814 0.14911 0.82894 0.0
C570 C 0.03897 0.10478 0.92328 0.0
C571 C 0.03391 0.12088 0.94437 0.0
C572 C 0.05538 0.10975 0.9029 0.0
C573 C 0.06715 0.13078 0.90342 0.0
C574 C 0.06377 0.14582 0.92613 0.0
C575 C 0.04721 0.14092 0.94644 0.0
H576 H 0.88756 0.8343 0.55954 0.0
H577 H 0.92641 0.8804 0.61243 0.0
H578 H 0.87101 0.81644 0.60088 0.0
H579 H 0.90948 0.86277 0.65401 0.0
H580 H 0.90909 0.79496 0.70878 0.0
H581 H 0.91661 0.82521 0.67469 0.0
H582 H 0.84753 0.81831 0.64254 0.0
H583 H 0.84026 0.78766 0.67619 0.0
C584 C 0.89205 0.84107 0.58001 0.0
C585 C 0.90853 0.85848 0.58278 0.0
C586 C 0.88245 0.83092 0.60377 0.0
C587 C 0.88913 0.83802 0.63081 0.0
C588 C 0.90427 0.85669 0.63349 0.0
C589 C 0.91386 0.86686 0.60967 0.0
C590 C 0.89532 0.80038 0.69497 0.0
C591 C 0.87426 0.78869 0.69474 0.0
C592 C 0.89957 0.8178 0.67547 0.0
C593 C 0.88277 0.82388 0.65554 0.0
C594 C 0.86097 0.81366 0.65721 0.0
C595 C 0.85678 0.79618 0.67657 0.0
H596 H 0.96764 0.12065 0.41639 0.0
H597 H 0.98753 0.18823 0.44499 0.0
H598 H 0.9431 0.13781 0.38081 0.0
H599 H 0.96247 0.20552 0.40958 0.0
H600 H 0.94319 0.2243 0.31826 0.0
H601 H 0.96369 0.20869 0.35854 0.0
H602 H 0.90862 0.16026 0.37229 0.0
H603 H 0.88828 0.17564 0.33154 0.0
C604 C 0.96644 0.1392 0.41539 0.0
C605 C 0.97961 0.15311 0.43335 0.0
C606 C 0.95227 0.14904 0.39507 0.0
C607 C 0.95094 0.17303 0.39224 0.0
C608 C 0.9634 0.18697 0.41099 0.0
C609 C 0.9776 0.17709 0.43139 0.0
C610 C 0.93545 0.21033 0.32989 0.0
C611 C 0.91422 0.20106 0.32164 0.0
C612 C 0.94709 0.20154 0.35315 0.0
C613 C 0.93775 0.18329 0.36869 0.0
C614 C 0.91637 0.17419 0.3606 0.0
C615 C 0.90471 0.183 0.3373 0.0
H616 H 0.56838 0.1176 0.08972 0.0
H617 H 0.54954 0.18198 0.05087 0.0
H618 H 0.58204 0.13845 0.13116 0.0
H619 H 0.56333 0.20268 0.09191 0.0
H620 H 0.55981 0.23005 0.17949 0.0
H621 H 0.5482 0.20558 0.14051 0.0
H622 H 0.61136 0.1672 0.14811 0.0
H623 H 0.62295 0.19158 0.18744 0.0
C624 C 0.56765 0.13619 0.08977 0.0
C625 C 0.55772 0.14818 0.06721 0.0
C626 C 0.57538 0.1481 0.1135 0.0
C627 C 0.57321 0.17212 0.11498 0.0
C628 C 0.56462 0.18411 0.09165 0.0
C629 C 0.55695 0.17227 0.06803 0.0
C630 C 0.57101 0.2161 0.17326 0.0
C631 C 0.59235 0.21283 0.18635 0.0
C632 C 0.56448 0.20225 0.15075 0.0
C633 C 0.57913 0.18484 0.14091 0.0
C634 C 0.59979 0.18055 0.15521 0.0
C635 C 0.60637 0.19448 0.17772 0.0
H636 H 0.56016 0.82762 0.97568 0.0
H637 H 0.5302 0.87465 0.91591 0.0
H638 H 0.59131 0.81964 0.94279 0.0
H639 H 0.55979 0.86569 0.88264 0.0
H640 H 0.60967 0.84701 0.82045 0.0
H641 H 0.59531 0.8646 0.86342 0.0
H642 H 0.5947 0.79771 0.90322 0.0
H643 H 0.6108 0.78088 0.86129 0.0
C644 C 0.5604 0.83645 0.95567 0.0
C645 C 0.54255 0.85141 0.94815 0.0
C646 C 0.57812 0.83176 0.93667 0.0
C647 C 0.57799 0.84157 0.90959 0.0
C648 C 0.56094 0.85788 0.90318 0.0
C649 C 0.54362 0.86288 0.92229 0.0
C650 C 0.60708 0.83632 0.83878 0.0
C651 C 0.61096 0.81259 0.83749 0.0
C652 C 0.59863 0.84629 0.86337 0.0
C653 C 0.59303 0.83255 0.88675 0.0
C654 C 0.5988 0.80906 0.88598 0.0
C655 C 0.60792 0.79927 0.86172 0.0
H656 H 0.92099 0.20748 0.78188 0.0
H657 H 0.85599 0.20436 0.82517 0.0
H658 H 0.93785 0.18196 0.81706 0.0
H659 H 0.87284 0.17918 0.86039 0.0
H660 H 0.90814 0.12451 0.91334 0.0
H661 H 0.89094 0.14172 0.8714 0.0
H662 H 0.9472 0.18992 0.86676 0.0
H663 H 0.96438 0.17271 0.90826 0.0
C664 C 0.91019 0.20092 0.79852 0.0
C665 C 0.88727 0.20808 0.801 0.0
C666 C 0.91986 0.18647 0.81876 0.0
C667 C 0.90673 0.17886 0.84168 0.0
C668 C 0.88337 0.18467 0.84293 0.0
C669 C 0.87374 0.19918 0.82281 0.0
C670 C 0.91681 0.13874 0.90326 0.0
C671 C 0.93749 0.1474 0.91415 0.0
C672 C 0.907 0.14855 0.87928 0.0
C673 C 0.91781 0.16705 0.86569 0.0
C674 C 0.93866 0.17542 0.87644 0.0
C675 C 0.94837 0.16574 0.90042 0.0
H676 H 0.60317 0.16384 0.66391 0.0
H677 H 0.55163 0.21724 0.66287 0.0
H678 H 0.58758 0.14843 0.61989 0.0
H679 H 0.53626 0.20201 0.61921 0.0
H680 H 0.52243 0.18171 0.53141 0.0
H681 H 0.5473 0.19668 0.5685 0.0
H682 H 0.54976 0.12943 0.60664 0.0
H683 H 0.52502 0.11445 0.5696 0.0
C684 C 0.58859 0.17228 0.65425 0.0
C685 C 0.57847 0.19159 0.66688 0.0
C686 C 0.57973 0.16352 0.62911 0.0
C687 C 0.56089 0.1742 0.61603 0.0
C688 C 0.55106 0.19369 0.62853 0.0
C689 C 0.55969 0.20223 0.65373 0.0
C690 C 0.52882 0.17001 0.54727 0.0
C691 C 0.52157 0.14702 0.54788 0.0
C692 C 0.54292 0.17859 0.56856 0.0
C693 C 0.55014 0.16427 0.59063 0.0
C694 C 0.5445 0.14083 0.58987 0.0
C695 C 0.53025 0.1323 0.56872 0.0
H696 H 0.62066 0.74173 0.35393 0.0
H697 H 0.5854 0.7833 0.29231 0.0
H698 H 0.60995 0.76869 0.39052 0.0
H699 H 0.57446 0.81045 0.3294 0.0
H700 H 0.57456 0.86247 0.40312 0.0
H701 H 0.59105 0.8386 0.36583 0.0
H702 H 0.57182 0.77755 0.41161 0.0
H703 H 0.55544 0.80122 0.4486 0.0
C704 C 0.61072 0.75673 0.34816 0.0
C705 C 0.60364 0.7603 0.32029 0.0
C706 C 0.60457 0.77214 0.36916 0.0
C707 C 0.59124 0.79152 0.36283 0.0
C708 C 0.58489 0.79567 0.33479 0.0
C709 C 0.591 0.78011 0.31365 0.0
C710 C 0.57425 0.84395 0.40535 0.0
C711 C 0.56379 0.83365 0.42873 0.0
C712 C 0.58346 0.83034 0.38394 0.0
C713 C 0.58265 0.80627 0.38583 0.0
C714 C 0.57288 0.79607 0.40971 0.0
C715 C 0.56347 0.80962 0.43086 0.0
H716 H 0.94281 0.77844 0.18236 0.0
H717 H 0.88095 0.81223 0.15398 0.0
H718 H 0.96284 0.79151 0.14065 0.0
H719 H 0.90096 0.82503 0.1117 0.0
H720 H 0.95559 0.86574 0.06002 0.0
H721 H 0.93143 0.85125 0.09768 0.0
H722 H 0.96376 0.78468 0.09045 0.0
H723 H 0.9884 0.7994 0.0532 0.0
C724 C 0.93349 0.78871 0.16719 0.0
C725 C 0.91033 0.79438 0.17146 0.0
C726 C 0.9449 0.79597 0.1431 0.0
C727 C 0.93341 0.80903 0.12266 0.0
C728 C 0.9103 0.81504 0.12712 0.0
C729 C 0.89885 0.80775 0.15132 0.0
C730 C 0.95725 0.84788 0.06612 0.0
C731 C 0.97403 0.83374 0.05387 0.0
C732 C 0.94334 0.83957 0.08766 0.0
C733 C 0.94591 0.81693 0.09734 0.0
C734 C 0.96172 0.80237 0.08385 0.0
C735 C 0.97568 0.81071 0.06234 0.0
H736 H 0.54523 0.63312 0.89904 0.0
H737 H 0.52025 0.69763 0.93179 0.0
H738 H 0.55873 0.65275 0.8569 0.0
H739 H 0.53431 0.71736 0.89026 0.0
H740 H 0.54522 0.74592 0.80481 0.0
H741 H 0.52763 0.72217 0.84103 0.0
H742 H 0.58807 0.67908 0.84272 0.0
H743 H 0.60523 0.70232 0.80592 0.0
C744 C 0.54279 0.65152 0.89731 0.0
C745 C 0.53178 0.66387 0.91872 0.0
C746 C 0.55053 0.66277 0.87319 0.0
C747 C 0.54749 0.68662 0.87008 0.0
C748 C 0.53651 0.69891 0.89163 0.0
C749 C 0.52868 0.68765 0.91561 0.0
C750 C 0.55449 0.73105 0.81248 0.0
C751 C 0.57664 0.72606 0.80267 0.0
C752 C 0.54453 0.71758 0.83345 0.0
C753 C 0.55661 0.69895 0.84516 0.0
C754 C 0.57821 0.69319 0.8341 0.0
C755 C 0.58808 0.70656 0.81301 0.0
H756 H 0.59812 0.3411 0.1886 0.0
H757 H 0.61295 0.28432 0.13324 0.0
H758 H 0.57853 0.36094 0.15037 0.0
H759 H 0.59227 0.30331 0.09557 0.0
H760 H 0.55531 0.34258 0.02867 0.0
H761 H 0.5856 0.33213 0.06203 0.0
H762 H 0.54258 0.3551 0.1304 0.0
H763 H 0.51327 0.36635 0.09733 0.0
C764 C 0.59745 0.33302 0.16812 0.0
C765 C 0.60674 0.31107 0.16395 0.0
C766 C 0.58606 0.34426 0.14625 0.0
C767 C 0.58323 0.33349 0.11999 0.0
C768 C 0.59413 0.31226 0.11534 0.0
C769 C 0.60592 0.30126 0.13705 0.0
C770 C 0.5526 0.34565 0.05085 0.0
C771 C 0.5319 0.35513 0.06042 0.0
C772 C 0.56988 0.33961 0.06998 0.0
C773 C 0.56663 0.34274 0.09903 0.0
C774 C 0.54608 0.35287 0.10829 0.0
C775 C 0.52905 0.35911 0.08925 0.0
H776 H 0.85161 0.29462 0.30807 0.0
H777 H 0.91921 0.30087 0.2717 0.0
H778 H 0.86247 0.32161 0.345 0.0
H779 H 0.92997 0.32781 0.3087 0.0
H780 H 0.94608 0.32143 0.40546 0.0
H781 H 0.93242 0.30944 0.35965 0.0
H782 H 0.88103 0.36288 0.361 0.0
H783 H 0.8953 0.37554 0.40727 0.0
C784 C 0.86847 0.30246 0.30731 0.0
C785 C 0.88479 0.29523 0.28748 0.0
C786 C 0.87461 0.318 0.32838 0.0
C787 C 0.89714 0.32636 0.32987 0.0
C788 C 0.91253 0.32135 0.30804 0.0
C789 C 0.90636 0.30596 0.28688 0.0
C790 C 0.93188 0.33071 0.39608 0.0
C791 C 0.9216 0.34929 0.40998 0.0
C792 C 0.92429 0.32404 0.36967 0.0
C793 C 0.90597 0.33552 0.35667 0.0
C794 C 0.89538 0.35399 0.37057 0.0
C795 C 0.90341 0.36109 0.39696 0.0
H796 H 0.87666 0.67536 0.64581 0.0
H797 H 0.93723 0.71184 0.67334 0.0
H798 H 0.8973 0.66222 0.60407 0.0
H799 H 0.95787 0.69842 0.6323 0.0
H800 H 0.98613 0.68787 0.54771 0.0
H801 H 0.95945 0.70348 0.58213 0.0
H802 H 0.92861 0.6364 0.59166 0.0
H803 H 0.95484 0.62099 0.55661 0.0
C804 C 0.89439 0.68044 0.64301 0.0
C805 C 0.90536 0.69457 0.66282 0.0
C806 C 0.90619 0.67294 0.61915 0.0
C807 C 0.92914 0.6795 0.61469 0.0
C808 C 0.94005 0.69351 0.6347 0.0
C809 C 0.92829 0.70098 0.65843 0.0
C810 C 0.97328 0.67661 0.55666 0.0
C811 C 0.97273 0.65318 0.54975 0.0
C812 C 0.95813 0.68548 0.57655 0.0
C813 C 0.94226 0.67106 0.59009 0.0
C814 C 0.94059 0.64799 0.5816 0.0
C815 C 0.95566 0.63914 0.56155 0.0
H816 H 0.52239 0.30567 0.58323 0.0
H817 H 0.5711 0.3616 0.58021 0.0
H818 H 0.53754 0.29403 0.62856 0.0
H819 H 0.58654 0.34966 0.62596 0.0
H820 H 0.62279 0.28982 0.68148 0.0
H821 H 0.60801 0.31345 0.64324 0.0
H822 H 0.53995 0.30922 0.67852 0.0
H823 H 0.55465 0.28549 0.71672 0.0
C824 C 0.53639 0.31547 0.59226 0.0
C825 C 0.54568 0.33444 0.57813 0.0
C826 C 0.54485 0.30898 0.61841 0.0
C827 C 0.56297 0.32118 0.63095 0.0
C828 C 0.57246 0.34009 0.61678 0.0
C829 C 0.56371 0.34683 0.59065 0.0
C830 C 0.60483 0.29462 0.68162 0.0
C831 C 0.58977 0.28543 0.70173 0.0
C832 C 0.59639 0.30819 0.65975 0.0
C833 C 0.57278 0.31268 0.65765 0.0
C834 C 0.55818 0.30563 0.67946 0.0
C835 C 0.56663 0.29217 0.7014 0.0
H836 H 0.96799 0.30232 0.9444 0.0
H837 H 0.93789 0.37016 0.94132 0.0
H838 H 0.94364 0.29039 0.9054 0.0
H839 H 0.91344 0.35806 0.9022 0.0
H840 H 0.86344 0.31567 0.84201 0.0
H841 H 0.88172 0.32827 0.88587 0.0
H842 H 0.9474 0.30554 0.85461 0.0
H843 H 0.92944 0.29323 0.81105 0.0
C844 C 0.95575 0.3145 0.93591 0.0
C845 C 0.95504 0.33725 0.94564 0.0
C846 C 0.94194 0.30771 0.91348 0.0
C847 C 0.92705 0.32348 0.90054 0.0
C848 C 0.92484 0.34564 0.91181 0.0
C849 C 0.93882 0.35251 0.93418 0.0
C850 C 0.88182 0.31371 0.84443 0.0
C851 C 0.89501 0.3034 0.82319 0.0
C852 C 0.89222 0.32083 0.86949 0.0
C853 C 0.91583 0.31739 0.87373 0.0
C854 C 0.92907 0.3079 0.85206 0.0
C855 C 0.9188 0.30107 0.82703 0.0
H856 H 0.91476 0.60955 0.09759 0.0
H857 H 0.89513 0.67001 0.05085 0.0
H858 H 0.89925 0.62675 0.14046 0.0
H859 H 0.8794 0.68698 0.09341 0.0
H860 H 0.84429 0.71019 0.16952 0.0
H861 H 0.84955 0.68258 0.13171 0.0
H862 H 0.91458 0.66221 0.16747 0.0
H863 H 0.90934 0.68999 0.20555 0.0
C864 C 0.90647 0.62618 0.09632 0.0
C865 C 0.90621 0.63855 0.07099 0.0
C866 C 0.89777 0.63604 0.12086 0.0
C867 C 0.88826 0.6582 0.12025 0.0
C868 C 0.88647 0.66978 0.09446 0.0
C869 C 0.89551 0.66012 0.0701 0.0
C870 C 0.85948 0.69945 0.16972 0.0
C871 C 0.87665 0.70252 0.19016 0.0
C872 C 0.86245 0.68366 0.14806 0.0
C873 C 0.88258 0.67054 0.14648 0.0
C874 C 0.89882 0.67207 0.1683 0.0
C875 C 0.89588 0.68799 0.19003 0.0
H876 H 0.61564 0.6717 0.34836 0.0
H877 H 0.57093 0.64104 0.28661 0.0
H878 H 0.59149 0.65689 0.38576 0.0
H879 H 0.54768 0.62448 0.32391 0.0
H880 H 0.49158 0.63467 0.38755 0.0
H881 H 0.52053 0.64124 0.35226 0.0
H882 H 0.57378 0.62946 0.41409 0.0
H883 H 0.54421 0.62422 0.45007 0.0
C884 C 0.60119 0.66086 0.34288 0.0
C885 C 0.59488 0.65771 0.31471 0.0
C886 C 0.5873 0.65232 0.36435 0.0
C887 C 0.56714 0.64006 0.35795 0.0
C888 C 0.5625 0.63468 0.32966 0.0
C889 C 0.57598 0.64382 0.30823 0.0
C890 C 0.50949 0.63353 0.39362 0.0
C891 C 0.51571 0.62902 0.42149 0.0
C892 C 0.52618 0.63695 0.37325 0.0
C893 C 0.54965 0.63541 0.38001 0.0
C894 C 0.55591 0.63089 0.40807 0.0
C895 C 0.53904 0.62792 0.42871 0.0
H896 H 0.43531 0.30026 0.0392 0.0
H897 H 0.42512 0.36145 0.08895 0.0
H898 H 0.41607 0.27746 0.07492 0.0
H899 H 0.40577 0.33847 0.12495 0.0
H900 H 0.40437 0.28022 0.19483 0.0
H901 H 0.41869 0.30693 0.15909 0.0
H902 H 0.37731 0.27283 0.0964 0.0
H903 H 0.36322 0.24626 0.13171 0.0
C904 C 0.42866 0.30887 0.05763 0.0
C905 C 0.43168 0.33259 0.06133 0.0
C906 C 0.4176 0.29584 0.07804 0.0
C907 C 0.4095 0.30621 0.10272 0.0
C908 C 0.41203 0.33005 0.1062 0.0
C909 C 0.4229 0.34319 0.08553 0.0
C910 C 0.39824 0.27862 0.17344 0.0
C911 C 0.38289 0.26104 0.16598 0.0
C912 C 0.40629 0.29396 0.15308 0.0
C913 C 0.39919 0.29181 0.12497 0.0
C914 C 0.38328 0.27469 0.11782 0.0
C915 C 0.3752 0.25951 0.13808 0.0
H916 H 0.4366 0.59834 0.93935 0.0
H917 H 0.43304 0.67009 0.96199 0.0
H918 H 0.40756 0.60442 0.90324 0.0
H919 H 0.40435 0.67633 0.92546 0.0
H920 H 0.35423 0.68437 0.85655 0.0
H921 H 0.36726 0.66959 0.90187 0.0
H922 H 0.41468 0.62445 0.85925 0.0
H923 H 0.40158 0.63901 0.81426 0.0
C924 C 0.42911 0.61528 0.93713 0.0
C925 C 0.43736 0.63387 0.95304 0.0
C926 C 0.41255 0.61877 0.91638 0.0
C927 C 0.40406 0.64094 0.91105 0.0
C928 C 0.4105 0.65901 0.92906 0.0
C929 C 0.427 0.65548 0.94997 0.0
C930 C 0.36694 0.67078 0.85691 0.0
C931 C 0.37715 0.66304 0.83193 0.0
C932 C 0.37447 0.66242 0.88286 0.0
C933 C 0.39216 0.64604 0.8842 0.0
C934 C 0.40087 0.63691 0.85904 0.0
C935 C 0.39348 0.64536 0.83319 0.0
H936 H 0.09883 0.69229 0.71662 0.0
H937 H 0.13398 0.72575 0.64823 0.0
H938 H 0.08908 0.66027 0.6856 0.0
H939 H 0.12334 0.69485 0.61708 0.0
H940 H 0.10379 0.63914 0.56147 0.0
H941 H 0.12426 0.65757 0.60014 0.0
H942 H 0.06223 0.65573 0.6499 0.0
H943 H 0.04251 0.63621 0.61213 0.0
C944 C 0.10468 0.69266 0.69505 0.0
C945 C 0.11681 0.71166 0.6847 0.0
C946 C 0.09901 0.67441 0.67721 0.0
C947 C 0.10506 0.67504 0.6486 0.0
C948 C 0.11855 0.69343 0.63893 0.0
C949 C 0.12448 0.71141 0.6568 0.0
C950 C 0.0948 0.64219 0.58101 0.0
C951 C 0.07148 0.63664 0.58366 0.0
C952 C 0.10644 0.65288 0.60312 0.0
C953 C 0.09481 0.65869 0.62805 0.0
C954 C 0.07193 0.65146 0.63129 0.0
C955 C 0.06047 0.64041 0.60943 0.0
H956 H 0.01779 0.3813 0.41612 0.0
H957 H 0.01813 0.31796 0.46339 0.0
H958 H 0.04477 0.36471 0.38272 0.0
H959 H 0.0453 0.30145 0.43006 0.0
H960 H 0.05499 0.27247 0.33978 0.0
H961 H 0.03717 0.29028 0.3804 0.0
H962 H 0.08395 0.34763 0.37401 0.0
H963 H 0.10194 0.32966 0.33302 0.0
C964 C 0.02409 0.36404 0.41976 0.0
C965 C 0.01562 0.35077 0.44208 0.0
C966 C 0.03963 0.35459 0.40071 0.0
C967 C 0.04685 0.3317 0.40362 0.0
C968 C 0.03971 0.31904 0.42714 0.0
C969 C 0.02427 0.32852 0.44626 0.0
C970 C 0.06158 0.28882 0.3471 0.0
C971 C 0.07972 0.29979 0.33315 0.0
C972 C 0.05155 0.2989 0.37056 0.0
C973 C 0.0593 0.32026 0.38047 0.0
C974 C 0.07766 0.33115 0.36675 0.0
C975 C 0.08791 0.3209 0.34336 0.0
H976 H 0.41626 0.6806 0.45246 0.0
H977 H 0.41429 0.62213 0.39669 0.0
H978 H 0.39906 0.70449 0.41607 0.0
H979 H 0.39721 0.64622 0.36001 0.0
H980 H 0.4052 0.7092 0.29657 0.0
H981 H 0.41446 0.6803 0.33224 0.0
H982 H 0.36291 0.70908 0.38692 0.0
H983 H 0.35366 0.7378 0.35154 0.0
C984 C 0.41168 0.67277 0.4326 0.0
C985 C 0.4166 0.64958 0.42732 0.0
C986 C 0.40181 0.68641 0.4118 0.0
C987 C 0.39698 0.67719 0.38521 0.0
C988 C 0.40095 0.65373 0.3803 0.0
C989 C 0.41051 0.63995 0.40133 0.0
C990 C 0.3957 0.70913 0.31608 0.0
C991 C 0.3789 0.72586 0.32141 0.0
C992 C 0.40086 0.69254 0.33637 0.0
C993 C 0.38941 0.69257 0.36232 0.0
C994 C 0.37208 0.70881 0.36718 0.0
C995 C 0.36682 0.72522 0.3469 0.0
H996 H 0.99145 0.61977 0.09895 0.0
H997 H 0.0221 0.66412 0.03671 0.0
H998 H 0.01714 0.63529 0.13453 0.0
H999 H 0.04817 0.67955 0.07265 0.0
H1000 H 0.10384 0.68258 0.14513 0.0
H1001 H 0.08105 0.66488 0.10752 0.0
H1002 H 0.0193 0.67644 0.15541 0.0
H1003 H 0.04185 0.69432 0.19264 0.0
C1004 C 0.00387 0.63265 0.09278 0.0
C1005 C 0.00471 0.64083 0.06507 0.0
C1006 C 0.0185 0.64157 0.1132 0.0
C1007 C 0.03448 0.65866 0.1063 0.0
C1008 C 0.03601 0.66628 0.07839 0.0
C1009 C 0.02109 0.65754 0.05793 0.0
C1010 C 0.08542 0.6812 0.14761 0.0
C1011 C 0.07458 0.68973 0.17178 0.0
C1012 C 0.07242 0.67124 0.12606 0.0
C1013 C 0.04849 0.6693 0.12868 0.0
C1014 C 0.03776 0.67758 0.15301 0.0
C1015 C 0.05065 0.68784 0.17426 0.0
H1016 H 0.13097 0.26859 0.83691 0.0
H1017 H 0.06286 0.26571 0.80109 0.0
H1018 H 0.11824 0.29773 0.87006 0.0
H1019 H 0.04995 0.29467 0.83472 0.0
H1020 H 0.0361 0.35671 0.88893 0.0
H1021 H 0.05345 0.33482 0.85071 0.0
H1022 H 0.09333 0.29624 0.91099 0.0
H1023 H 0.07625 0.31827 0.94903 0.0
C1024 C 0.11331 0.27434 0.83597 0.0
C1025 C 0.09783 0.26472 0.8166 0.0
C1026 C 0.10601 0.29098 0.85503 0.0
C1027 C 0.08305 0.29835 0.85521 0.0
C1028 C 0.06781 0.2895 0.83496 0.0
C1029 C 0.07515 0.27283 0.8158 0.0
C1030 C 0.04892 0.34387 0.89392 0.0
C1031 C 0.05476 0.33911 0.92195 0.0
C1032 C 0.05871 0.33122 0.87207 0.0
C1033 C 0.07461 0.31368 0.87783 0.0
C1034 C 0.08129 0.30978 0.9058 0.0
C1035 C 0.07145 0.32235 0.92762 0.0
H1036 H 0.44666 0.3718 0.56437 0.0
H1037 H 0.45117 0.30359 0.52899 0.0
H1038 H 0.42233 0.35714 0.60189 0.0
H1039 H 0.42663 0.28901 0.5664 0.0
H1040 H 0.42595 0.27046 0.66106 0.0
H1041 H 0.43932 0.28546 0.61648 0.0
H1042 H 0.38588 0.33691 0.61784 0.0
H1043 H 0.37228 0.32169 0.66291 0.0
C1044 C 0.44183 0.35383 0.56408 0.0
C1045 C 0.45116 0.33873 0.54409 0.0
C1046 C 0.42783 0.34546 0.58553 0.0
C1047 C 0.42302 0.32188 0.58734 0.0
C1048 C 0.43046 0.30722 0.56574 0.0
C1049 C 0.44438 0.31559 0.54424 0.0
C1050 C 0.41699 0.28496 0.6519 0.0
C1051 C 0.39818 0.29503 0.66554 0.0
C1052 C 0.42447 0.29336 0.62616 0.0
C1053 C 0.41344 0.31215 0.61351 0.0
C1054 C 0.39461 0.32233 0.62712 0.0
C1055 C 0.38691 0.3137 0.65287 0.0
H1056 H 0.30302 0.26799 0.24388 0.0
H1057 H 0.27839 0.19937 0.22665 0.0
H1058 H 0.2635 0.28201 0.24497 0.0
H1059 H 0.23898 0.21328 0.22821 0.0
H1060 H 0.17296 0.24713 0.20492 0.0
H1061 H 0.21357 0.23791 0.20016 0.0
H1062 H 0.22868 0.27838 0.27392 0.0
H1063 H 0.18808 0.28797 0.27838 0.0
C1064 C 0.28915 0.25589 0.24058 0.0
C1065 C 0.29372 0.2326 0.23517 0.0
C1066 C 0.26657 0.26392 0.24121 0.0
C1067 C 0.2482 0.2488 0.23635 0.0
C1068 C 0.25282 0.22544 0.23143 0.0
C1069 C 0.27536 0.21742 0.23083 0.0
C1070 C 0.18501 0.25441 0.21979 0.0
C1071 C 0.17738 0.26806 0.24218 0.0
C1072 C 0.20821 0.24898 0.2172 0.0
C1073 C 0.22419 0.25707 0.23698 0.0
C1074 C 0.21675 0.27193 0.25834 0.0
C1075 C 0.19351 0.2774 0.2609 0.0
H1076 H 0.98994 0.93558 0.46689 0.0
H1077 H 0.94267 0.95391 0.5329 0.0
H1078 H 0.0033 0.9752 0.46475 0.0
H1079 H 0.95661 -0.00663 0.5316 0.0
H1080 H 0.97338 0.06677 0.50423 0.0
H1081 H 0.95791 0.02792 0.50502 0.0
H1082 H 0.02615 0.00062 0.49232 0.0
H1083 H 0.04143 0.03958 0.49045 0.0
C1084 C 0.98233 0.94814 0.48083 0.0
C1085 C 0.96532 0.9417 0.50008 0.0
C1086 C 0.99015 0.97079 0.47984 0.0
C1087 C 0.98129 0.98742 0.4983 0.0
C1088 C 0.9637 0.98107 0.51692 0.0
C1089 C 0.95572 0.95846 0.51771 0.0
C1090 C 0.98508 0.05244 0.50184 0.0
C1091 C 0.0086 0.05616 0.49723 0.0
C1092 C 0.97622 0.03016 0.50234 0.0
C1093 C 0.99074 0.01112 0.49849 0.0
C1094 C 0.01439 0.0149 0.49471 0.0
C1095 C 0.02321 0.0372 0.49394 0.0
H1096 H 0.31751 0.75946 0.72608 0.0
H1097 H 0.29047 0.69336 0.75072 0.0
H1098 H 0.27861 0.77508 0.72456 0.0
H1099 H 0.25164 0.70879 0.74861 0.0
H1100 H 0.19025 0.74835 0.77779 0.0
H1101 H 0.23005 0.73576 0.77736 0.0
H1102 H 0.2413 0.77314 0.70029 0.0
H1103 H 0.20137 0.78621 0.70108 0.0
C1104 C 0.30322 0.74817 0.73066 0.0
C1105 C 0.30699 0.72525 0.73874 0.0
C1106 C 0.28097 0.75712 0.72977 0.0
C1107 C 0.26212 0.74328 0.73696 0.0
C1108 C 0.26588 0.72004 0.74365 0.0
C1109 C 0.28809 0.71113 0.74459 0.0
C1110 C 0.20131 0.75418 0.76099 0.0
C1111 C 0.19272 0.76813 0.73938 0.0
C1112 C 0.22404 0.74677 0.76058 0.0
C1113 C 0.23865 0.75302 0.73845 0.0
C1114 C 0.23042 0.76801 0.7176 0.0
C1115 C 0.20761 0.77554 0.71808 0.0
H1116 H 0.53834 0.03297 0.01388 0.0
H1117 H 0.46818 0.0484 0.99116 0.0
H1118 H 0.52922 0.99206 0.01428 0.0
H1119 H 0.45883 0.00769 0.99253 0.0
H1120 H 0.45798 0.93149 0.96724 0.0
H1121 H 0.4653 0.97267 0.96783 0.0
H1122 H 0.50821 0.96434 0.04124 0.0
H1123 H 0.5015 0.92302 0.03999 0.0
C1124 C 0.52098 0.02759 0.00896 0.0
C1125 C 0.504 0.04381 0.00238 0.0
C1126 C 0.51568 0.0042 0.00947 0.0
C1127 C 0.49323 -0.00339 0.00365 0.0
C1128 C 0.47633 0.01291 0.99681 0.0
C1129 C 0.48168 0.03625 0.99607 0.0
C1130 C 0.46872 0.93853 0.98373 0.0
C1131 C 0.47928 0.92409 0.00348 0.0
C1132 C 0.47289 0.96213 0.9841 0.0
C1133 C 0.48756 0.97177 0.00439 0.0
C1134 C 0.49726 0.95739 0.02493 0.0
C1135 C 0.49323 0.93376 0.02441 0.0
H1136 H 0.19003 0.7092 0.20648 0.0
H1137 H 0.18 0.75031 0.28094 0.0
H1138 H 0.23054 0.72012 0.2058 0.0
H1139 H 0.22042 0.7608 0.28063 0.0
H1140 H 0.2846 0.79753 0.25402 0.0
H1141 H 0.24469 0.78511 0.25142 0.0
H1142 H 0.26685 0.71617 0.23139 0.0
H1143 H 0.30676 0.72872 0.23336 0.0
C1144 C 0.19659 0.7202 0.22299 0.0
C1145 C 0.18189 0.72903 0.24367 0.0
C1146 C 0.21974 0.72647 0.22258 0.0
C1147 C 0.22854 0.74165 0.24287 0.0
C1148 C 0.21401 0.74956 0.26428 0.0
C1149 C 0.19091 0.74336 0.26465 0.0
C1150 C 0.28092 0.77981 0.24864 0.0
C1151 C 0.29875 0.76406 0.24406 0.0
C1152 C 0.2581 0.77264 0.24743 0.0
C1153 C 0.25268 0.74956 0.2417 0.0
C1154 C 0.2705 0.73406 0.2358 0.0
C1155 C 0.29334 0.74125 0.23697 0.0
H1156 H 0.49224 0.94104 0.52584 0.0
H1157 H 0.53648 0.95146 0.45438 0.0
H1158 H 0.48151 0.98143 0.52483 0.0
H1159 H 0.52503 0.99178 0.45253 0.0
H1160 H 0.51461 0.06797 0.47514 0.0
H1161 H 0.52737 0.0281 0.47531 0.0
H1162 H 0.45869 0.00632 0.49704 0.0
H1163 H 0.44627 0.04627 0.49802 0.0
C1164 C 0.49972 0.95204 0.50997 0.0
C1165 C 0.51514 0.94317 0.49017 0.0
C1166 C 0.49339 0.97513 0.50917 0.0
C1167 C 0.50208 0.98979 0.48828 0.0
C1168 C 0.51811 0.98102 0.469 0.0
C1169 C 0.52467 0.95794 0.47003 0.0
C1170 C 0.50221 0.05461 0.47965 0.0
C1171 C 0.47949 0.06017 0.48672 0.0
C1172 C 0.50951 0.03175 0.4797 0.0
C1173 C 0.49414 0.014 0.48656 0.0
C1174 C 0.47114 0.0196 0.4924 0.0
C1175 C 0.46393 0.04246 0.49266 0.0
H1176 H 0.17951 0.25858 0.74117 0.0
H1177 H 0.20044 0.19032 0.76599 0.0
H1178 H 0.21949 0.27079 0.74066 0.0
H1179 H 0.24054 0.20228 0.76459 0.0
H1180 H 0.30727 0.23619 0.78925 0.0
H1181 H 0.26665 0.22611 0.79075 0.0
H1182 H 0.2548 0.26618 0.71575 0.0
H1183 H 0.2952 0.27684 0.71485 0.0
C1184 C 0.1927 0.24609 0.74607 0.0
C1185 C 0.1869 0.22352 0.75365 0.0
C1186 C 0.21562 0.25307 0.74575 0.0
C1187 C 0.2332 0.23757 0.75283 0.0
C1188 C 0.22737 0.21479 0.75963 0.0
C1189 C 0.20444 0.20786 0.76012 0.0
C1190 C 0.29589 0.24309 0.77335 0.0
C1191 C 0.30436 0.25725 0.75193 0.0
C1192 C 0.27268 0.23713 0.77402 0.0
C1193 C 0.25754 0.24508 0.75315 0.0
C1194 C 0.26594 0.25989 0.73227 0.0
C1195 C 0.2891 0.26597 0.73173 0.0
H1196 H 0.95211 0.03954 0.95662 0.0
H1197 H 0.984 0.04854 0.03777 0.0
H1198 H 0.96308 -0.00091 0.95687 0.0
H1199 H -0.00558 0.00801 0.03839 0.0
H1200 H 0.03809 0.94726 0.01202 0.0
H1201 H 0.02292 0.98625 0.01237 0.0
H1202 H 0.95856 0.9615 0.97868 0.0
H1203 H 0.97399 0.92251 0.9777 0.0
C1204 C 0.96091 0.03271 0.97485 0.0
C1205 C 0.96746 0.04719 0.99704 0.0
C1206 C 0.9672 0.00956 0.97498 0.0
C1207 C 0.98005 0.00051 -0.00262 0.0
C1208 C 0.98508 0.01466 0.02049 0.0
C1209 C 0.9789 0.0378 0.02029 0.0
C1210 C 0.02079 0.95019 0.00441 0.0
C1211 C 0.00721 0.93189 0.99485 0.0
C1212 C 0.012 0.97246 0.00492 0.0
C1213 C 0.98939 0.97687 0.99601 0.0
C1214 C 0.97604 0.95865 0.98564 0.0
C1215 C 0.98488 0.93634 0.98505 0.0
H1216 H 0.7916 0.70619 0.70385 0.0
H1217 H 0.80145 0.7403 0.78346 0.0
H1218 H 0.7508 0.71585 0.70516 0.0
H1219 H 0.7607 0.74946 0.78511 0.0
H1220 H 0.67431 0.72344 0.73044 0.0
H1221 H 0.71406 0.70999 0.7293 0.0
H1222 H 0.73688 0.77633 0.75905 0.0
H1223 H 0.69728 0.78954 0.76073 0.0
C1224 C 0.78494 0.71528 0.72192 0.0
C1225 C 0.79969 0.72272 0.74342 0.0
C1226 C 0.76159 0.72081 0.72267 0.0
C1227 C 0.75265 0.7338 0.74498 0.0
C1228 C 0.76721 0.73995 0.76729 0.0
C1229 C 0.79051 0.73453 0.76648 0.0
C1230 C 0.68788 0.73517 0.73648 0.0
C1231 C 0.68274 0.7575 0.74579 0.0
C1232 C 0.71061 0.72747 0.73582 0.0
C1233 C 0.72855 0.74198 0.7445 0.0
C1234 C 0.72338 0.76455 0.75289 0.0
C1235 C 0.70072 0.77221 0.75358 0.0
H1236 H 0.68433 0.21959 0.26236 0.0
H1237 H 0.70244 0.28355 0.22207 0.0
H1238 H 0.72464 0.20805 0.26225 0.0
H1239 H 0.74269 0.2723 0.22256 0.0
H1240 H 0.8087 0.23812 0.20071 0.0
H1241 H 0.76742 0.24471 0.19938 0.0
H1242 H 0.76144 0.21786 0.28358 0.0
H1243 H 0.80271 0.2107 0.28459 0.0
C1244 C 0.69697 0.23128 0.2538 0.0
C1245 C 0.6903 0.25244 0.24218 0.0
C1246 C 0.72002 0.22467 0.25374 0.0
C1247 C 0.73679 0.23914 0.24208 0.0
C1248 C 0.7301 0.26054 0.2311 0.0
C1249 C 0.70709 0.2671 0.23109 0.0
C1250 C 0.7985 0.23325 0.21872 0.0
C1251 C 0.80889 0.22411 0.24284 0.0
C1252 C 0.7749 0.23721 0.21807 0.0
C1253 C 0.76127 0.23224 0.24159 0.0
C1254 C 0.77148 0.22183 0.26511 0.0
C1255 C 0.79511 0.21775 0.26569 0.0
H1256 H 0.67508 0.24551 0.7884 0.0
H1257 H 0.68358 0.20903 0.71017 0.0
H1258 H 0.71621 0.25336 0.78969 0.0
H1259 H 0.72445 0.21754 0.71087 0.0
H1260 H 0.80025 0.2193 0.73343 0.0
H1261 H 0.7597 0.20927 0.73413 0.0
H1262 H 0.74343 0.27707 0.76546 0.0
H1263 H 0.78416 0.28677 0.76569 0.0
C1264 C 0.68577 0.23909 0.77158 0.0
C1265 C 0.67618 0.22669 0.74919 0.0
C1266 C 0.70928 0.24376 0.77215 0.0
C1267 C 0.72359 0.23628 0.75024 0.0
C1268 C 0.71399 0.22335 0.72824 0.0
C1269 C 0.69055 0.21852 0.72779 0.0
C1270 C 0.78799 0.23209 0.74032 0.0
C1271 C 0.79531 0.25382 0.74948 0.0
C1272 C 0.76474 0.22637 0.74067 0.0
C1273 C 0.74832 0.24233 0.74996 0.0
C1274 C 0.75568 0.26422 0.75869 0.0
C1275 C 0.77896 0.26987 0.75855 0.0
H1276 H 0.81183 0.7193 0.26462 0.0
H1277 H 0.79465 0.7892 0.24273 0.0
H1278 H 0.77165 0.70909 0.26429 0.0
H1279 H 0.75386 0.77947 0.2444 0.0
H1280 H 0.68459 0.74935 0.21953 0.0
H1281 H 0.72503 0.76035 0.22018 0.0
H1282 H 0.73732 0.7113 0.28684 0.0
H1283 H 0.69751 0.6993 0.28442 0.0
C1284 C 0.79933 0.73266 0.26048 0.0
C1285 C 0.80631 0.75505 0.25377 0.0
C1286 C 0.77616 0.72684 0.26042 0.0
C1287 C 0.75929 0.74341 0.25436 0.0
C1288 C 0.76632 0.7661 0.24859 0.0
C1289 C 0.78965 0.77179 0.24797 0.0
C1290 C 0.69615 0.74078 0.23397 0.0
C1291 C 0.68814 0.72328 0.25161 0.0
C1292 C 0.71925 0.74727 0.23466 0.0
C1293 C 0.73462 0.73677 0.25359 0.0
C1294 C 0.72629 0.71942 0.27145 0.0
C1295 C 0.70342 0.71253 0.27017 0.0
H1296 H 0.52087 0.4357 0.98826 0.0
H1297 H 0.45071 0.44826 0.01312 0.0
H1298 H 0.52852 0.47683 0.98929 0.0
H1299 H 0.45809 0.4895 0.01322 0.0
H1300 H 0.48342 0.55994 0.0376 0.0
H1301 H 0.47839 0.51836 0.03921 0.0
H1302 H 0.51993 0.51144 0.96463 0.0
H1303 H 0.52557 0.55287 0.96364 0.0
C1304 C 0.50701 0.4473 0.99361 0.0
C1305 C 0.48518 0.43881 0.00057 0.0
C1306 C 0.51138 0.47087 0.99415 0.0
C1307 C 0.49396 0.48648 0.00146 0.0
C1308 C 0.47202 0.47794 0.00803 0.0
C1309 C 0.46771 0.45434 0.0077 0.0
C1310 C 0.49172 0.54947 0.02181 0.0
C1311 C 0.50484 0.55961 0.00047 0.0
C1312 C 0.48867 0.52568 0.02256 0.0
C1313 C 0.49852 0.51158 0.00185 0.0
C1314 C 0.51226 0.52174 0.98105 0.0
C1315 C 0.51545 0.5455 0.98044 0.0
H1316 H 0.00477 0.42883 0.51938 0.0
H1317 H 0.94139 0.45332 0.48292 0.0
H1318 H 0.01928 0.46793 0.52128 0.0
H1319 H 0.95549 0.49272 0.4859 0.0
H1320 H -0.00298 0.55632 0.46476 0.0
H1321 H 0.98294 0.51688 0.46362 0.0
H1322 H 0.0155 0.50388 0.54368 0.0
H1323 H 0.03035 0.54295 0.54411 0.0
C1324 C -0.00624 0.44266 0.51229 0.0
C1325 C 0.97198 0.43806 0.50094 0.0
C1326 C 0.00205 0.46511 0.51344 0.0
C1327 C 0.98863 0.48349 0.50355 0.0
C1328 C 0.96648 0.47892 0.49313 0.0
C1329 C 0.95828 0.4564 0.4917 0.0
C1330 C 0.00135 0.5449 0.48191 0.0
C1331 C 0.01481 0.55262 0.50446 0.0
C1332 C -0.00692 0.52239 0.48145 0.0
C1333 C -0.00211 0.50725 0.50369 0.0
C1334 C 0.01169 0.51496 0.52603 0.0
C1335 C 0.02017 0.53737 0.52631 0.0
H1336 H 0.97948 0.43112 0.02788 0.0
H1337 H 0.02844 0.44251 0.96137 0.0
H1338 H 0.96959 0.47175 0.02748 0.0
H1339 H 0.01812 0.4832 0.96045 0.0
H1340 H 0.00792 0.55893 0.98813 0.0
H1341 H 0.01993 0.51874 0.98745 0.0
H1342 H 0.9492 0.49761 0.99646 0.0
H1343 H 0.93731 0.53771 -0.00214 0.0
C1344 C 0.9882 0.44236 0.01326 0.0
C1345 C 0.00465 0.43367 0.99458 0.0
C1346 C 0.98239 0.46559 0.01284 0.0
C1347 C -0.00719 0.48062 0.99362 0.0
C1348 C 0.00985 0.47207 0.97557 0.0
C1349 C 0.01574 0.44879 0.97607 0.0
C1350 C -0.00505 0.54566 0.98966 0.0
C1351 C 0.97171 0.5514 0.99322 0.0
C1352 C 0.00182 0.52266 0.98923 0.0
C1353 C 0.98555 0.50501 0.99228 0.0
C1354 C 0.96221 0.51083 0.99471 0.0
C1355 C 0.95537 0.53378 0.99525 0.0
H1356 H 0.48264 0.42207 0.45379 0.0
H1357 H 0.52651 0.43596 0.52497 0.0
H1358 H 0.47393 0.46299 0.44992 0.0
H1359 H 0.51725 0.47659 0.52178 0.0
H1360 H 0.51268 0.5504 0.49354 0.0
H1361 H 0.52295 0.50994 0.49378 0.0
H1362 H 0.45257 0.49198 0.47494 0.0
H1363 H 0.44247 0.53272 0.47371 0.0
C1364 C 0.49049 0.43389 0.4685 0.0
C1365 C 0.50526 0.42589 0.48965 0.0
C1366 C 0.48535 0.45727 0.46646 0.0
C1367 C 0.49478 0.47303 0.48565 0.0
C1368 C 0.50993 0.46498 0.50643 0.0
C1369 C 0.51518 0.44167 0.50832 0.0
C1370 C 0.49939 0.53781 0.48951 0.0
C1371 C 0.47675 0.54465 0.48374 0.0
C1372 C 0.50526 0.51461 0.48973 0.0
C1373 C 0.48858 0.49772 0.48446 0.0
C1374 C 0.46589 0.50459 0.47869 0.0
C1375 C 0.46005 0.52787 0.47824 0.0
H1376 H 0.06317 0.35936 0.06667 0.0
H1377 H 0.00336 0.31557 0.0698 0.0
H1378 H 0.07613 0.34396 0.11148 0.0
H1379 H 0.01626 0.30026 0.11497 0.0
H1380 H 0.06424 0.26019 0.17679 0.0
H1381 H 0.04799 0.27591 0.1335 0.0
H1382 H 0.06516 0.34449 0.16117 0.0
H1383 H 0.08161 0.32882 0.20411 0.0
C1384 C 0.05272 0.34653 0.07704 0.0
C1385 C 0.03226 0.33867 0.06475 0.0
C1386 C 0.06008 0.3378 0.10279 0.0
C1387 C 0.04717 0.32095 0.1168 0.0
C1388 C 0.02665 0.31311 0.10455 0.0
C1389 C 0.01921 0.32195 0.0788 0.0
C1390 C 0.06436 0.27862 0.17367 0.0
C1391 C 0.07434 0.29326 0.1937 0.0
C1392 C 0.05497 0.28763 0.14897 0.0
C1393 C 0.05547 0.31142 0.14385 0.0
C1394 C 0.06486 0.32605 0.16431 0.0
C1395 C 0.07418 0.31708 0.18896 0.0
H1396 H 0.88997 0.82512 0.30005 0.0
H1397 H 0.91446 0.75887 0.32792 0.0
H1398 H 0.90235 0.84224 0.34406 0.0
H1399 H 0.92655 0.77602 0.37248 0.0
H1400 H 0.90179 0.8597 0.43692 0.0
H1401 H 0.89081 0.84151 0.39287 0.0
H1402 H 0.95435 0.8032 0.3928 0.0
H1403 H 0.96516 0.82115 0.43725 0.0
C1404 C 0.89801 0.81419 0.31562 0.0
C1405 C 0.90116 0.79061 0.31057 0.0
C1406 C 0.90497 0.82399 0.34094 0.0
C1407 C 0.91523 0.81047 0.36191 0.0
C1408 C 0.91882 0.78694 0.35667 0.0
C1409 C 0.91183 0.77709 0.33123 0.0
C1410 C 0.91341 0.8474 0.42751 0.0
C1411 C 0.93436 0.84192 0.44048 0.0
C1412 C 0.90718 0.83705 0.40219 0.0
C1413 C 0.92177 0.82098 0.38922 0.0
C1414 C 0.94265 0.81534 0.40236 0.0
C1415 C 0.94889 0.82573 0.42772 0.0
H1416 H 0.41627 0.71166 0.67383 0.0
H1417 H 0.3903 0.64419 0.69409 0.0
H1418 H 0.43209 0.6967 0.63007 0.0
H1419 H 0.40671 0.62905 0.65096 0.0
H1420 H 0.41303 0.61649 0.55713 0.0
H1421 H 0.39957 0.63097 0.60193 0.0
H1422 H 0.46101 0.67212 0.60993 0.0
H1423 H 0.47418 0.65805 0.56435 0.0
C1424 C 0.41413 0.69359 0.66903 0.0
C1425 C 0.40189 0.67913 0.68723 0.0
C1426 C 0.42333 0.68497 0.64406 0.0
C1427 C 0.42059 0.66168 0.63689 0.0
C1428 C 0.40878 0.64716 0.65552 0.0
C1429 C 0.39945 0.65581 0.68032 0.0
C1430 C 0.42375 0.62854 0.56848 0.0
C1431 C 0.44467 0.63613 0.55723 0.0
C1432 C 0.41608 0.63676 0.5943 0.0
C1433 C 0.42923 0.65266 0.60966 0.0
C1434 C 0.45033 0.66009 0.59851 0.0
C1435 C 0.45796 0.65193 0.57251 0.0
H1436 H 0.56925 0.22472 0.83049 0.0
H1437 H 0.58202 0.15773 0.79473 0.0
H1438 H 0.55328 0.20662 0.87238 0.0
H1439 H 0.56577 0.13967 0.83634 0.0
H1440 H 0.50683 0.16601 0.93205 0.0
H1441 H 0.52033 0.18351 0.88845 0.0
H1442 H 0.57639 0.13496 0.88557 0.0
H1443 H 0.56277 0.11735 0.92875 0.0
C1444 C 0.56853 0.20615 0.83153 0.0
C1445 C 0.57699 0.19264 0.80942 0.0
C1446 C 0.55925 0.19578 0.85542 0.0
C1447 C 0.5583 0.17171 0.85769 0.0
C1448 C 0.56653 0.15825 0.83538 0.0
C1449 C 0.57575 0.1686 0.81151 0.0
C1450 C 0.52193 0.15899 0.92194 0.0
C1451 C 0.53374 0.14031 0.93379 0.0
C1452 C 0.52974 0.1691 0.8971 0.0
C1453 C 0.54945 0.16064 0.88358 0.0
C1454 C 0.561 0.14171 0.89526 0.0
C1455 C 0.55326 0.13169 0.9201 0.0
H1456 H 0.02353 0.67329 0.43478 0.0
H1457 H 0.08449 0.63111 0.43795 0.0
H1458 H 0.03642 0.68989 0.39057 0.0
H1459 H 0.09764 0.64804 0.39398 0.0
H1460 H 0.10007 0.66375 0.29983 0.0
H1461 H 0.0876 0.64772 0.34449 0.0
H1462 H 0.06575 0.71516 0.37141 0.0
H1463 H 0.07783 0.73112 0.32641 0.0
C1464 C 0.03975 0.66765 0.42608 0.0
C1465 C 0.05297 0.65085 0.43976 0.0
C1466 C 0.0472 0.67727 0.40084 0.0
C1467 C 0.06805 0.67029 0.38872 0.0
C1468 C 0.08135 0.65357 0.40256 0.0
C1469 C 0.07389 0.64396 0.42781 0.0
C1470 C 0.0926 0.67516 0.31529 0.0
C1471 C 0.08989 0.69869 0.30962 0.0
C1472 C 0.08559 0.66599 0.34096 0.0
C1473 C 0.07573 0.68016 0.36155 0.0
C1474 C 0.07305 0.70373 0.35587 0.0
C1475 C 0.08006 0.7129 0.33016 0.0
H1476 H 0.60094 0.83752 0.69552 0.0
H1477 H 0.56979 0.77201 0.6764 0.0
H1478 H 0.58507 0.85352 0.65239 0.0
H1479 H 0.55428 0.78787 0.63289 0.0
H1480 H 0.51269 0.83012 0.56948 0.0
H1481 H 0.52633 0.81519 0.61448 0.0
H1482 H 0.59103 0.85009 0.60246 0.0
H1483 H 0.57726 0.86533 0.55799 0.0
C1484 C 0.59072 0.82653 0.68206 0.0
C1485 C 0.58668 0.80349 0.68928 0.0
C1486 C 0.58172 0.83566 0.65727 0.0
C1487 C 0.56848 0.82196 0.63909 0.0
C1488 C 0.56418 0.79897 0.64655 0.0
C1489 C 0.57319 0.78984 0.67138 0.0
C1490 C 0.52978 0.83466 0.57657 0.0
C1491 C 0.54389 0.84891 0.56023 0.0
C1492 C 0.53764 0.82601 0.60225 0.0
C1493 C 0.55978 0.83145 0.61211 0.0
C1494 C 0.57378 0.84583 0.59575 0.0
C1495 C 0.56593 0.85446 0.57015 0.0
H1496 H 0.39957 0.32785 0.79469 0.0
H1497 H 0.41502 0.26057 0.82799 0.0
H1498 H 0.41793 0.34557 0.83529 0.0
H1499 H 0.43309 0.27832 0.86892 0.0
H1500 H 0.42572 0.36681 0.92774 0.0
H1501 H 0.41016 0.34974 0.88516 0.0
H1502 H 0.4665 0.30148 0.88325 0.0
H1503 H 0.48195 0.31845 0.92631 0.0
C1504 C 0.40686 0.31684 0.81073 0.0
C1505 C 0.40576 0.29282 0.80823 0.0
C1506 C 0.41731 0.327 0.83404 0.0
C1507 C 0.42693 0.31337 0.85539 0.0
C1508 C 0.42609 0.28931 0.85269 0.0
C1509 C 0.41559 0.27914 0.82936 0.0
C1510 C 0.4349 0.35267 0.91814 0.0
C1511 C 0.45505 0.34396 0.93039 0.0
C1512 C 0.42603 0.34295 0.89363 0.0
C1513 C 0.43706 0.32423 0.8808 0.0
C1514 C 0.45745 0.31573 0.89281 0.0
C1515 C 0.46639 0.32554 0.91733 0.0
H1516 H 0.90006 0.23245 0.15498 0.0
H1517 H 0.91901 0.17099 0.20026 0.0
H1518 H 0.915 0.21558 0.11165 0.0
H1519 H 0.93415 0.15429 0.15702 0.0
H1520 H 0.97991 0.14393 0.07869 0.0
H1521 H 0.96683 0.1626 0.1218 0.0
H1522 H 0.90305 0.18069 0.08116 0.0
H1523 H 0.91597 0.16181 0.03816 0.0
C1524 C 0.90756 0.21543 0.15569 0.0
C1525 C 0.90834 0.20299 0.18092 0.0
C1526 C 0.916 0.20576 0.13092 0.0
C1527 C 0.92569 0.18366 0.13107 0.0
C1528 C 0.92691 0.17144 0.15642 0.0
C1529 C 0.91816 0.18095 0.18108 0.0
C1530 C 0.96314 0.15197 0.07896 0.0
C1531 C 0.94891 0.15139 0.05515 0.0
C1532 C 0.95565 0.16255 0.10362 0.0
C1533 C 0.93396 0.17307 0.10473 0.0
C1534 C 0.91992 0.17286 0.08075 0.0
C1535 C 0.92726 0.16197 0.05624 0.0
H1536 H 0.96269 0.67124 0.93099 0.0
H1537 H 0.90425 0.6256 0.92863 0.0
H1538 H 0.9509 0.68775 0.88604 0.0
H1539 H 0.8923 0.64227 0.88408 0.0
H1540 H 0.89041 0.66029 0.79145 0.0
H1541 H 0.9044 0.64372 0.83521 0.0
H1542 H 0.92011 0.7117 0.86621 0.0
H1543 H 0.90643 0.72827 0.82215 0.0
C1544 C 0.94733 0.66476 0.92088 0.0
C1545 C 0.93441 0.64711 0.9333 0.0
C1546 C 0.94051 0.67429 0.89523 0.0
C1547 C 0.92069 0.66629 0.88145 0.0
C1548 C 0.90784 0.6486 0.89392 0.0
C1549 C 0.9146 0.63913 0.91955 0.0
C1550 C 0.89694 0.6717 0.80756 0.0
C1551 C 0.89725 0.69559 0.80341 0.0
C1552 C 0.90484 0.66221 0.8327 0.0
C1553 C 0.91324 0.6764 0.85427 0.0
C1554 C 0.91394 0.70029 0.84991 0.0
C1555 C 0.90599 0.70979 0.82474 0.0
H1556 H 0.10837 0.15166 0.69611 0.0
H1557 H 0.077 0.21785 0.68154 0.0
H1558 H 0.09376 0.13804 0.65123 0.0
H1559 H 0.06281 0.2044 0.63614 0.0
H1560 H 0.02192 0.16445 0.56945 0.0
H1561 H 0.03541 0.17815 0.61505 0.0
H1562 H 0.10013 0.1435 0.60194 0.0
H1563 H 0.08644 0.12939 0.55684 0.0
C1564 C 0.09844 0.16335 0.68323 0.0
C1565 C 0.09388 0.18585 0.69231 0.0
C1566 C 0.09016 0.15558 0.6574 0.0
C1567 C 0.0772 0.17015 0.63997 0.0
C1568 C 0.07252 0.19265 0.64917 0.0
C1569 C 0.08077 0.20041 0.67509 0.0
C1570 C 0.039 0.15975 0.57639 0.0
C1571 C 0.05309 0.14579 0.55964 0.0
C1572 C 0.04679 0.16771 0.60243 0.0
C1573 C 0.06885 0.1619 0.61221 0.0
C1574 C 0.08292 0.148 0.5953 0.0
C1575 C 0.07512 0.14001 0.56935 0.0
H1576 H 0.5771 0.33301 0.44764 0.0
H1577 H 0.50975 0.31912 0.4136 0.0
H1578 H 0.59461 0.31783 0.40506 0.0
H1579 H 0.52724 0.30431 0.37074 0.0
H1580 H 0.56752 0.25965 0.30872 0.0
H1581 H 0.5504 0.27243 0.35283 0.0
H1582 H 0.5983 0.32906 0.35613 0.0
H1583 H 0.6156 0.31607 0.31243 0.0
C1584 C 0.56604 0.32671 0.43104 0.0
C1585 C 0.54206 0.32732 0.43389 0.0
C1586 C 0.57606 0.31812 0.4066 0.0
C1587 C 0.56232 0.30996 0.38445 0.0
C1588 C 0.53832 0.31024 0.38752 0.0
C1589 C 0.52828 0.31885 0.41199 0.0
C1590 C 0.57443 0.27477 0.31897 0.0
C1591 C 0.5929 0.28686 0.30716 0.0
C1592 C 0.56455 0.28216 0.34413 0.0
C1593 C 0.573 0.30176 0.358 0.0
C1594 C 0.59159 0.31372 0.3462 0.0
C1595 C 0.60142 0.30636 0.32106 0.0
H1596 H 0.41648 0.83289 0.04856 0.0
H1597 H 0.4836 0.81867 0.0831 0.0
H1598 H 0.39877 0.82054 0.09215 0.0
H1599 H 0.4658 0.80666 0.12723 0.0
H1600 H 0.42242 0.76738 0.19312 0.0
H1601 H 0.44112 0.77707 0.14872 0.0
H1602 H 0.39587 0.83542 0.13942 0.0
H1603 H 0.37702 0.82552 0.18326 0.0
C1604 C 0.42748 0.82709 0.0655 0.0
C1605 C 0.45145 0.82689 0.06248 0.0
C1606 C 0.41732 0.82013 0.09056 0.0
C1607 C 0.43088 0.81288 0.11329 0.0
C1608 C 0.45487 0.81205 0.11004 0.0
C1609 C 0.46508 0.819 0.08485 0.0
C1610 C 0.41649 0.78225 0.18151 0.0
C1611 C 0.39818 0.79563 0.19158 0.0
C1612 C 0.42727 0.78786 0.15619 0.0
C1613 C 0.41989 0.80693 0.14045 0.0
C1614 C 0.40171 0.82038 0.15075 0.0
C1615 C 0.39097 0.81479 0.17598 0.0
H1616 H 0.95834 0.32148 0.56405 0.0
H1617 H 0.89404 0.35665 0.54987 0.0
H1618 H 0.94279 0.30427 0.60655 0.0
H1619 H 0.87834 0.33917 0.59234 0.0
H1620 H 0.87098 0.32603 0.68786 0.0
H1621 H 0.88442 0.34195 0.6435 0.0
H1622 H 0.91383 0.27619 0.62171 0.0
H1623 H 0.90063 0.26034 0.66628 0.0
C1624 C 0.94083 0.32545 0.56996 0.0
C1625 C 0.92742 0.34047 0.55371 0.0
C1626 C 0.93187 0.31546 0.5942 0.0
C1627 C 0.90933 0.32034 0.60278 0.0
C1628 C 0.89585 0.33526 0.5864 0.0
C1629 C 0.90479 0.34519 0.56205 0.0
C1630 C 0.88023 0.31495 0.67354 0.0
C1631 C 0.88486 0.29197 0.68057 0.0
C1632 C 0.88779 0.32403 0.64806 0.0
C1633 C 0.90022 0.31034 0.62914 0.0
C1634 C 0.90454 0.28724 0.63602 0.0
C1635 C 0.8969 0.27814 0.66147 0.0
H1636 H 0.42258 0.2041 0.28987 0.0
H1637 H 0.35505 0.18467 0.31841 0.0
H1638 H 0.43901 0.19092 0.33411 0.0
H1639 H 0.37114 0.17256 0.36317 0.0
H1640 H 0.40898 0.12834 0.4263 0.0
H1641 H 0.39287 0.14285 0.38267 0.0
H1642 H 0.44299 0.1977 0.38246 0.0
H1643 H 0.45977 0.18233 0.42547 0.0
C1644 C 0.41121 0.19733 0.30582 0.0
C1645 C 0.38757 0.19527 0.30067 0.0
C1646 C 0.42059 0.18988 0.33128 0.0
C1647 C 0.40646 0.18049 0.3523 0.0
C1648 C 0.38267 0.17915 0.34732 0.0
C1649 C 0.37338 0.18627 0.32173 0.0
C1650 C 0.41655 0.14349 0.41689 0.0
C1651 C 0.43564 0.15419 0.42923 0.0
C1652 C 0.4072 0.15196 0.39196 0.0
C1653 C 0.41649 0.17159 0.37897 0.0
C1654 C 0.43556 0.18237 0.39154 0.0
C1655 C 0.44513 0.17366 0.41629 0.0
H1656 H 0.56214 0.63258 0.05796 0.0
H1657 H 0.50748 0.68186 0.06839 0.0
H1658 H 0.58047 0.64659 0.10041 0.0
H1659 H 0.52649 0.69706 0.11013 0.0
H1660 H 0.55405 0.70259 0.19992 0.0
H1661 H 0.53513 0.69012 0.15691 0.0
H1662 H 0.60147 0.67608 0.11994 0.0
H1663 H 0.62007 0.68717 0.16363 0.0
C1664 C 0.5542 0.64666 0.06922 0.0
C1665 C 0.53338 0.65612 0.05992 0.0
C1666 C 0.56482 0.65489 0.09349 0.0
C1667 C 0.55517 0.67318 0.10881 0.0
C1668 C 0.53433 0.68275 0.09927 0.0
C1669 C 0.52345 0.67415 0.07523 0.0
C1670 C 0.56452 0.69692 0.18248 0.0
C1671 C 0.58849 0.69568 0.18513 0.0
C1672 C 0.55371 0.68988 0.1577 0.0
C1673 C 0.56667 0.68185 0.13479 0.0
C1674 C 0.59078 0.6815 0.13725 0.0
C1675 C 0.60153 0.68807 0.16223 0.0
H1676 H 0.10768 0.83232 0.79758 0.0
H1677 H 0.08248 0.76446 0.81743 0.0
H1678 H 0.09194 0.84688 0.84143 0.0
H1679 H 0.06714 0.77891 0.8617 0.0
H1680 H 0.02215 0.81844 0.92433 0.0
H1681 H 0.03714 0.80384 0.87995 0.0
H1682 H 0.09864 0.84433 0.89136 0.0
H1683 H 0.08344 0.85926 0.9353 0.0
C1684 C 0.09886 0.82049 0.8114 0.0
C1685 C 0.09633 0.79724 0.8041 0.0
C1686 C 0.08994 0.8288 0.83661 0.0
C1687 C 0.07833 0.81405 0.85513 0.0
C1688 C 0.07575 0.79079 0.84775 0.0
C1689 C 0.08466 0.78247 0.82249 0.0
C1690 C 0.03885 0.82424 0.91729 0.0
C1691 C 0.0516 0.84004 0.93323 0.0
C1692 C 0.0475 0.81577 0.89196 0.0
C1693 C 0.06908 0.82293 0.88208 0.0
C1694 C 0.08181 0.83872 0.89813 0.0
C1695 C 0.07316 0.84719 0.9234 0.0
loop_
_geom_bond_atom_site_label_1
_geom_bond_atom_site_label_2
_geom_bond_distance
_geom_bond_site_symmetry_2
_ccdc_geom_bond_type
In0 O1 2.294 . S
In0 O2 2.326 . S
In0 O6 2.266 . S
In0 O7 2.326 . S
In0 O8 2.266 . S
In0 O9 2.326 . S
In0 O11 2.294 . S
In0 O12 2.326 . S
O1 In0 2.294 . S
O1 C10 1.240 . S
O2 In0 2.326 . S
O2 C10 1.252 . S
C3 O6 1.252 . S
C3 O7 1.260 . S
C4 O11 1.240 . S
C4 O12 1.252 . S
C5 O8 1.252 . S
C5 O9 1.260 . S
O6 In0 2.266 . S
O6 C3 1.252 . S
O7 In0 2.326 . S
O7 C3 1.260 . S
O8 In0 2.266 . S
O8 C5 1.252 . S
O9 In0 2.326 . S
O9 C5 1.260 . S
C10 O1 1.240 . S
C10 O2 1.252 . S
O11 In0 2.294 . S
O11 C4 1.240 . S
O12 In0 2.326 . S
O12 C4 1.252 . S
In13 O14 2.294 . S
In13 O15 2.326 . S
In13 O19 2.266 . S
In13 O20 2.326 . S
In13 O21 2.266 . S
In13 O22 2.326 . S
In13 O24 2.294 . S
In13 O25 2.326 . S
O14 In13 2.294 . S
O14 C23 1.240 . S
O15 In13 2.326 . S
O15 C23 1.252 . S
C16 O19 1.252 . S
C16 O20 1.260 . S
C17 O24 1.240 . S
C17 O25 1.252 . S
C18 O21 1.252 . S
C18 O22 1.260 . S
O19 In13 2.266 . S
O19 C16 1.252 . S
O20 In13 2.326 . S
O20 C16 1.260 . S
O21 In13 2.266 . S
O21 C18 1.252 . S
O22 In13 2.326 . S
O22 C18 1.260 . S
C23 O14 1.240 . S
C23 O15 1.252 . S
O24 In13 2.294 . S
O24 C17 1.240 . S
O25 In13 2.326 . S
O25 C17 1.252 . S
In26 O27 2.294 . S
In26 O28 2.326 . S
In26 O32 2.266 . S
In26 O33 2.326 . S
In26 O34 2.266 . S
In26 O35 2.326 . S
In26 O37 2.294 . S
In26 O38 2.326 . S
O27 In26 2.294 . S
O27 C36 1.240 . S
O28 In26 2.326 . S
O28 C36 1.252 . S
C29 O32 1.252 . S
C29 O33 1.260 . S
C30 O37 1.240 . S
C30 O38 1.252 . S
C31 O34 1.252 . S
C31 O35 1.260 . S
O32 In26 2.266 . S
O32 C29 1.252 . S
O33 In26 2.326 . S
O33 C29 1.260 . S
O34 In26 2.266 . S
O34 C31 1.252 . S
O35 In26 2.326 . S
O35 C31 1.260 . S
C36 O27 1.240 . S
C36 O28 1.252 . S
O37 In26 2.294 . S
O37 C30 1.240 . S
O38 In26 2.326 . S
O38 C30 1.252 . S
In39 O40 2.294 . S
In39 O41 2.326 . S
In39 O45 2.266 . S
In39 O46 2.326 . S
In39 O47 2.266 . S
In39 O48 2.326 . S
In39 O50 2.294 1_554 S
In39 O51 2.326 1_554 S
O40 In39 2.294 . S
O40 C49 1.240 . S
O41 In39 2.326 . S
O41 C49 1.252 . S
C42 O45 1.252 . S
C42 O46 1.260 . S
C43 O50 1.240 . S
C43 O51 1.252 . S
C44 O47 1.252 . S
C44 O48 1.260 . S
O45 In39 2.266 . S
O45 C42 1.252 . S
O46 In39 2.326 . S
O46 C42 1.260 . S
O47 In39 2.266 . S
O47 C44 1.252 . S
O48 In39 2.326 . S
O48 C44 1.260 . S
C49 O40 1.240 . S
C49 O41 1.252 . S
O50 In39 2.294 1_556 S
O50 C43 1.240 . S
O51 In39 2.326 1_556 S
O51 C43 1.252 . S
In52 O53 2.294 . S
In52 O54 2.326 . S
In52 O58 2.266 . S
In52 O59 2.326 . S
In52 O60 2.266 . S
In52 O61 2.326 . S
In52 O63 2.294 . S
In52 O64 2.326 . S
O53 In52 2.294 . S
O53 C62 1.240 . S
O54 In52 2.326 . S
O54 C62 1.252 . S
C55 O58 1.252 . S
C55 O59 1.260 . S
C56 O63 1.240 . S
C56 O64 1.252 . S
C57 O60 1.252 . S
C57 O61 1.260 . S
O58 In52 2.266 . S
O58 C55 1.252 . S
O59 In52 2.326 . S
O59 C55 1.260 . S
O60 In52 2.266 . S
O60 C57 1.252 . S
O61 In52 2.326 . S
O61 C57 1.260 . S
C62 O53 1.240 . S
C62 O54 1.252 . S
O63 In52 2.294 . S
O63 C56 1.240 . S
O64 In52 2.326 . S
O64 C56 1.252 . S
In65 O66 2.294 . S
In65 O67 2.326 . S
In65 O71 2.266 . S
In65 O72 2.326 . S
In65 O73 2.266 . S
In65 O74 2.326 . S
In65 O76 2.294 . S
In65 O77 2.326 . S
O66 In65 2.294 . S
O66 C75 1.240 . S
O67 In65 2.326 . S
O67 C75 1.252 . S
C68 O71 1.252 . S
C68 O72 1.260 . S
C69 O76 1.240 . S
C69 O77 1.252 . S
C70 O73 1.252 . S
C70 O74 1.260 . S
O71 In65 2.266 . S
O71 C68 1.252 . S
O72 In65 2.326 . S
O72 C68 1.260 . S
O73 In65 2.266 . S
O73 C70 1.252 . S
O74 In65 2.326 . S
O74 C70 1.260 . S
C75 O66 1.240 . S
C75 O67 1.252 . S
O76 In65 2.294 . S
O76 C69 1.240 . S
O77 In65 2.326 . S
O77 C69 1.252 . S
In78 O79 2.294 . S
In78 O80 2.326 . S
In78 O84 2.266 . S
In78 O85 2.326 . S
In78 O86 2.266 . S
In78 O87 2.326 . S
In78 O89 2.294 . S
In78 O90 2.326 . S
O79 In78 2.294 . S
O79 C88 1.240 . S
O80 In78 2.326 . S
O80 C88 1.252 . S
C81 O84 1.252 . S
C81 O85 1.260 . S
C82 O89 1.240 . S
C82 O90 1.252 . S
C83 O86 1.252 . S
C83 O87 1.260 . S
O84 In78 2.266 . S
O84 C81 1.252 . S
O85 In78 2.326 . S
O85 C81 1.260 . S
O86 In78 2.266 . S
O86 C83 1.252 . S
O87 In78 2.326 . S
O87 C83 1.260 . S
C88 O79 1.240 . S
C88 O80 1.252 . S
O89 In78 2.294 . S
O89 C82 1.240 . S
O90 In78 2.326 . S
O90 C82 1.252 . S
In91 O92 2.294 . S
In91 O93 2.326 . S
In91 O97 2.266 . S
In91 O98 2.326 . S
In91 O99 2.266 . S
In91 O100 2.326 . S
In91 O102 2.294 1_556 S
In91 O103 2.326 1_556 S
O92 In91 2.294 . S
O92 C101 1.240 . S
O93 In91 2.326 . S
O93 C101 1.252 . S
C94 O97 1.252 . S
C94 O98 1.260 . S
C95 O102 1.240 . S
C95 O103 1.252 . S
C96 O99 1.252 . S
C96 O100 1.260 . S
O97 In91 2.266 . S
O97 C94 1.252 . S
O98 In91 2.326 . S
O98 C94 1.260 . S
O99 In91 2.266 . S
O99 C96 1.252 . S
O100 In91 2.326 . S
O100 C96 1.260 . S
C101 O92 1.240 . S
C101 O93 1.252 . S
O102 In91 2.294 1_554 S
O102 C95 1.240 . S
O103 In91 2.326 1_554 S
O103 C95 1.252 . S
In104 O105 2.294 . S
In104 O106 2.326 . S
In104 O110 2.266 . S
In104 O111 2.326 . S
In104 O112 2.266 . S
In104 O113 2.326 . S
In104 O115 2.294 . S
In104 O116 2.326 . S
O105 In104 2.294 . S
O105 C114 1.240 . S
O106 In104 2.326 . S
O106 C114 1.252 . S
C107 O110 1.252 . S
C107 O111 1.260 . S
C108 O115 1.240 . S
C108 O116 1.252 . S
C109 O112 1.252 . S
C109 O113 1.260 . S
O110 In104 2.266 . S
O110 C107 1.252 . S
O111 In104 2.326 . S
O111 C107 1.260 . S
O112 In104 2.266 . S
O112 C109 1.252 . S
O113 In104 2.326 . S
O113 C109 1.260 . S
C114 O105 1.240 . S
C114 O106 1.252 . S
O115 In104 2.294 . S
O115 C108 1.240 . S
O116 In104 2.326 . S
O116 C108 1.252 . S
In117 O118 2.294 . S
In117 O119 2.326 . S
In117 O123 2.266 . S
In117 O124 2.326 . S
In117 O125 2.266 . S
In117 O126 2.326 . S
In117 O128 2.294 . S
In117 O129 2.326 . S
O118 In117 2.294 . S
O118 C127 1.240 . S
O119 In117 2.326 . S
O119 C127 1.252 . S
C120 O123 1.252 . S
C120 O124 1.260 . S
C121 O128 1.240 . S
C121 O129 1.252 . S
C122 O125 1.252 . S
C122 O126 1.260 . S
O123 In117 2.266 . S
O123 C120 1.252 . S
O124 In117 2.326 . S
O124 C120 1.260 . S
O125 In117 2.266 . S
O125 C122 1.252 . S
O126 In117 2.326 . S
O126 C122 1.260 . S
C127 O118 1.240 . S
C127 O119 1.252 . S
O128 In117 2.294 . S
O128 C121 1.240 . S
O129 In117 2.326 . S
O129 C121 1.252 . S
In130 O131 2.294 . S
In130 O132 2.326 . S
In130 O136 2.266 . S
In130 O137 2.326 . S
In130 O138 2.266 . S
In130 O139 2.326 . S
In130 O141 2.294 . S
In130 O142 2.326 . S
O131 In130 2.294 . S
O131 C140 1.240 . S
O132 In130 2.326 . S
O132 C140 1.252 . S
C133 O136 1.252 . S
C133 O137 1.260 . S
C134 O141 1.240 . S
C134 O142 1.252 . S
C135 O138 1.252 . S
C135 O139 1.260 . S
O136 In130 2.266 . S
O136 C133 1.252 . S
O137 In130 2.326 . S
O137 C133 1.260 . S
O138 In130 2.266 . S
O138 C135 1.252 . S
O139 In130 2.326 . S
O139 C135 1.260 . S
C140 O131 1.240 . S
C140 O132 1.252 . S
O141 In130 2.294 . S
O141 C134 1.240 . S
O142 In130 2.326 . S
O142 C134 1.252 . S
In143 O144 2.294 . S
In143 O145 2.326 . S
In143 O149 2.266 . S
In143 O150 2.326 . S
In143 O151 2.266 . S
In143 O152 2.326 . S
In143 O154 2.294 1_556 S
In143 O155 2.326 1_556 S
O144 In143 2.294 . S
O144 C153 1.240 . S
O145 In143 2.326 . S
O145 C153 1.252 . S
C146 O149 1.252 . S
C146 O150 1.260 . S
C147 O154 1.240 . S
C147 O155 1.252 . S
C148 O151 1.252 . S
C148 O152 1.260 . S
O149 In143 2.266 . S
O149 C146 1.252 . S
O150 In143 2.326 . S
O150 C146 1.260 . S
O151 In143 2.266 . S
O151 C148 1.252 . S
O152 In143 2.326 . S
O152 C148 1.260 . S
C153 O144 1.240 . S
C153 O145 1.252 . S
O154 In143 2.294 1_554 S
O154 C147 1.240 . S
O155 In143 2.326 1_554 S
O155 C147 1.252 . S
In156 O157 2.294 . S
In156 O158 2.326 . S
In156 O162 2.266 . S
In156 O163 2.326 . S
In156 O164 2.266 . S
In156 O165 2.326 . S
In156 O167 2.294 . S
In156 O168 2.326 . S
O157 In156 2.294 . S
O157 C166 1.240 . S
O158 In156 2.326 . S
O158 C166 1.252 . S
C159 O162 1.252 . S
C159 O163 1.260 . S
C160 O167 1.240 . S
C160 O168 1.252 . S
C161 O164 1.252 . S
C161 O165 1.260 . S
O162 In156 2.266 . S
O162 C159 1.252 . S
O163 In156 2.326 . S
O163 C159 1.260 . S
O164 In156 2.266 . S
O164 C161 1.252 . S
O165 In156 2.326 . S
O165 C161 1.260 . S
C166 O157 1.240 . S
C166 O158 1.252 . S
O167 In156 2.294 . S
O167 C160 1.240 . S
O168 In156 2.326 . S
O168 C160 1.252 . S
In169 O170 2.294 . S
In169 O171 2.326 . S
In169 O175 2.266 . S
In169 O176 2.326 . S
In169 O177 2.266 . S
In169 O178 2.326 . S
In169 O180 2.294 . S
In169 O181 2.326 . S
O170 In169 2.294 . S
O170 C179 1.240 . S
O171 In169 2.326 . S
O171 C179 1.252 . S
C172 O175 1.252 . S
C172 O176 1.260 . S
C173 O180 1.240 . S
C173 O181 1.252 . S
C174 O177 1.252 . S
C174 O178 1.260 . S
O175 In169 2.266 . S
O175 C172 1.252 . S
O176 In169 2.326 . S
O176 C172 1.260 . S
O177 In169 2.266 . S
O177 C174 1.252 . S
O178 In169 2.326 . S
O178 C174 1.260 . S
C179 O170 1.240 . S
C179 O171 1.252 . S
O180 In169 2.294 . S
O180 C173 1.240 . S
O181 In169 2.326 . S
O181 C173 1.252 . S
In182 O183 2.294 . S
In182 O184 2.326 . S
In182 O188 2.266 . S
In182 O189 2.326 . S
In182 O190 2.266 . S
In182 O191 2.326 . S
In182 O193 2.294 . S
In182 O194 2.326 . S
O183 In182 2.294 . S
O183 C192 1.240 . S
O184 In182 2.326 . S
O184 C192 1.252 . S
C185 O188 1.252 . S
C185 O189 1.260 . S
C186 O193 1.240 . S
C186 O194 1.252 . S
C187 O190 1.252 . S
C187 O191 1.260 . S
O188 In182 2.266 . S
O188 C185 1.252 . S
O189 In182 2.326 . S
O189 C185 1.260 . S
O190 In182 2.266 . S
O190 C187 1.252 . S
O191 In182 2.326 . S
O191 C187 1.260 . S
C192 O183 1.240 . S
C192 O184 1.252 . S
O193 In182 2.294 . S
O193 C186 1.240 . S
O194 In182 2.326 . S
O194 C186 1.252 . S
In195 O196 2.294 . S
In195 O197 2.326 . S
In195 O201 2.266 . S
In195 O202 2.326 . S
In195 O203 2.266 . S
In195 O204 2.326 . S
In195 O206 2.294 1_554 S
In195 O207 2.326 1_554 S
O196 In195 2.294 . S
O196 C205 1.240 . S
O197 In195 2.326 . S
O197 C205 1.252 . S
C198 O201 1.252 . S
C198 O202 1.260 . S
C199 O206 1.240 . S
C199 O207 1.252 . S
C200 O203 1.252 . S
C200 O204 1.260 . S
O201 In195 2.266 . S
O201 C198 1.252 . S
O202 In195 2.326 . S
O202 C198 1.260 . S
O203 In195 2.266 . S
O203 C200 1.252 . S
O204 In195 2.326 . S
O204 C200 1.260 . S
C205 O196 1.240 . S
C205 O197 1.252 . S
O206 In195 2.294 1_556 S
O206 C199 1.240 . S
O207 In195 2.326 1_556 S
O207 C199 1.252 . S
In208 O209 2.294 . S
In208 O210 2.326 . S
In208 O214 2.266 . S
In208 O215 2.326 . S
In208 O216 2.266 . S
In208 O217 2.326 . S
In208 O219 2.294 . S
In208 O220 2.326 . S
O209 In208 2.294 . S
O209 C218 1.240 . S
O210 In208 2.326 . S
O210 C218 1.252 . S
C211 O214 1.252 . S
C211 O215 1.260 . S
C212 O219 1.240 . S
C212 O220 1.252 . S
C213 O216 1.252 . S
C213 O217 1.260 . S
O214 In208 2.266 . S
O214 C211 1.252 . S
O215 In208 2.326 . S
O215 C211 1.260 . S
O216 In208 2.266 . S
O216 C213 1.252 . S
O217 In208 2.326 . S
O217 C213 1.260 . S
C218 O209 1.240 . S
C218 O210 1.252 . S
O219 In208 2.294 . S
O219 C212 1.240 . S
O220 In208 2.326 . S
O220 C212 1.252 . S
In221 O222 2.294 . S
In221 O223 2.326 . S
In221 O227 2.266 . S
In221 O228 2.326 . S
In221 O229 2.266 . S
In221 O230 2.326 . S
In221 O232 2.294 1_554 S
In221 O233 2.326 1_554 S
O222 In221 2.294 . S
O222 C231 1.240 . S
O223 In221 2.326 . S
O223 C231 1.252 . S
C224 O227 1.252 . S
C224 O228 1.260 . S
C225 O232 1.240 . S
C225 O233 1.252 . S
C226 O229 1.252 . S
C226 O230 1.260 . S
O227 In221 2.266 . S
O227 C224 1.252 . S
O228 In221 2.326 . S
O228 C224 1.260 . S
O229 In221 2.266 . S
O229 C226 1.252 . S
O230 In221 2.326 . S
O230 C226 1.260 . S
C231 O222 1.240 . S
C231 O223 1.252 . S
O232 In221 2.294 1_556 S
O232 C225 1.240 . S
O233 In221 2.326 1_556 S
O233 C225 1.252 . S
In234 O235 2.294 . S
In234 O236 2.326 . S
In234 O240 2.266 . S
In234 O241 2.326 . S
In234 O242 2.266 . S
In234 O243 2.326 . S
In234 O245 2.294 . S
In234 O246 2.326 . S
O235 In234 2.294 . S
O235 C244 1.240 . S
O236 In234 2.326 . S
O236 C244 1.252 . S
C237 O240 1.252 . S
C237 O241 1.260 . S
C238 O245 1.240 . S
C238 O246 1.252 . S
C239 O242 1.252 . S
C239 O243 1.260 . S
O240 In234 2.266 . S
O240 C237 1.252 . S
O241 In234 2.326 . S
O241 C237 1.260 . S
O242 In234 2.266 . S
O242 C239 1.252 . S
O243 In234 2.326 . S
O243 C239 1.260 . S
C244 O235 1.240 . S
C244 O236 1.252 . S
O245 In234 2.294 . S
O245 C238 1.240 . S
O246 In234 2.326 . S
O246 C238 1.252 . S
In247 O248 2.294 . S
In247 O249 2.326 . S
In247 O253 2.266 . S
In247 O254 2.326 . S
In247 O255 2.266 . S
In247 O256 2.326 . S
In247 O258 2.294 . S
In247 O259 2.326 . S
O248 In247 2.294 . S
O248 C257 1.240 . S
O249 In247 2.326 . S
O249 C257 1.252 . S
C250 O253 1.252 . S
C250 O254 1.260 . S
C251 O258 1.240 . S
C251 O259 1.252 . S
C252 O255 1.252 . S
C252 O256 1.260 . S
O253 In247 2.266 . S
O253 C250 1.252 . S
O254 In247 2.326 . S
O254 C250 1.260 . S
O255 In247 2.266 . S
O255 C252 1.252 . S
O256 In247 2.326 . S
O256 C252 1.260 . S
C257 O248 1.240 . S
C257 O249 1.252 . S
O258 In247 2.294 . S
O258 C251 1.240 . S
O259 In247 2.326 . S
O259 C251 1.252 . S
In260 O261 2.294 . S
In260 O262 2.326 . S
In260 O266 2.266 . S
In260 O267 2.326 . S
In260 O268 2.266 . S
In260 O269 2.326 . S
In260 O271 2.294 . S
In260 O272 2.326 . S
O261 In260 2.294 . S
O261 C270 1.240 . S
O262 In260 2.326 . S
O262 C270 1.252 . S
C263 O266 1.252 . S
C263 O267 1.260 . S
C264 O271 1.240 . S
C264 O272 1.252 . S
C265 O268 1.252 . S
C265 O269 1.260 . S
O266 In260 2.266 . S
O266 C263 1.252 . S
O267 In260 2.326 . S
O267 C263 1.260 . S
O268 In260 2.266 . S
O268 C265 1.252 . S
O269 In260 2.326 . S
O269 C265 1.260 . S
C270 O261 1.240 . S
C270 O262 1.252 . S
O271 In260 2.294 . S
O271 C264 1.240 . S
O272 In260 2.326 . S
O272 C264 1.252 . S
In273 O274 2.294 1_556 S
In273 O275 2.326 1_556 S
In273 O279 2.266 . S
In273 O280 2.326 . S
In273 O281 2.266 . S
In273 O282 2.326 . S
In273 O284 2.294 . S
In273 O285 2.326 . S
O274 In273 2.294 1_554 S
O274 C283 1.240 . S
O275 In273 2.326 1_554 S
O275 C283 1.252 . S
C276 O279 1.252 . S
C276 O280 1.260 . S
C277 O284 1.240 . S
C277 O285 1.252 . S
C278 O281 1.252 . S
C278 O282 1.260 . S
O279 In273 2.266 . S
O279 C276 1.252 . S
O280 In273 2.326 . S
O280 C276 1.260 . S
O281 In273 2.266 . S
O281 C278 1.252 . S
O282 In273 2.326 . S
O282 C278 1.260 . S
C283 O274 1.240 . S
C283 O275 1.252 . S
O284 In273 2.294 . S
O284 C277 1.240 . S
O285 In273 2.326 . S
O285 C277 1.252 . S
In286 O287 2.294 . S
In286 O288 2.326 . S
In286 O292 2.266 . S
In286 O293 2.326 . S
In286 O294 2.266 . S
In286 O295 2.326 . S
In286 O297 2.294 . S
In286 O298 2.326 . S
O287 In286 2.294 . S
O287 C296 1.240 . S
O288 In286 2.326 . S
O288 C296 1.252 . S
C289 O292 1.252 . S
C289 O293 1.260 . S
C290 O297 1.240 . S
C290 O298 1.252 . S
C291 O294 1.252 . S
C291 O295 1.260 . S
O292 In286 2.266 . S
O292 C289 1.252 . S
O293 In286 2.326 . S
O293 C289 1.260 . S
O294 In286 2.266 . S
O294 C291 1.252 . S
O295 In286 2.326 . S
O295 C291 1.260 . S
C296 O287 1.240 . S
C296 O288 1.252 . S
O297 In286 2.294 . S
O297 C290 1.240 . S
O298 In286 2.326 . S
O298 C290 1.252 . S
In299 O300 2.294 . S
In299 O301 2.326 . S
In299 O305 2.266 . S
In299 O306 2.326 . S
In299 O307 2.266 . S
In299 O308 2.326 . S
In299 O310 2.294 . S
In299 O311 2.326 . S
O300 In299 2.294 . S
O300 C309 1.240 . S
O301 In299 2.326 . S
O301 C309 1.252 . S
C302 O305 1.252 . S
C302 O306 1.260 . S
C303 O310 1.240 . S
C303 O311 1.252 . S
C304 O307 1.252 . S
C304 O308 1.260 . S
O305 In299 2.266 . S
O305 C302 1.252 . S
O306 In299 2.326 . S
O306 C302 1.260 . S
O307 In299 2.266 . S
O307 C304 1.252 . S
O308 In299 2.326 . S
O308 C304 1.260 . S
C309 O300 1.240 . S
C309 O301 1.252 . S
O310 In299 2.294 . S
O310 C303 1.240 . S
O311 In299 2.326 . S
O311 C303 1.252 . S
In312 O313 2.294 . S
In312 O314 2.326 . S
In312 O318 2.266 . S
In312 O319 2.326 . S
In312 O320 2.266 . S
In312 O321 2.326 . S
In312 O323 2.294 . S
In312 O324 2.326 . S
O313 In312 2.294 . S
O313 C322 1.240 . S
O314 In312 2.326 . S
O314 C322 1.252 . S
C315 O318 1.252 . S
C315 O319 1.260 . S
C316 O323 1.240 . S
C316 O324 1.252 . S
C317 O320 1.252 . S
C317 O321 1.260 . S
O318 In312 2.266 . S
O318 C315 1.252 . S
O319 In312 2.326 . S
O319 C315 1.260 . S
O320 In312 2.266 . S
O320 C317 1.252 . S
O321 In312 2.326 . S
O321 C317 1.260 . S
C322 O313 1.240 . S
C322 O314 1.252 . S
O323 In312 2.294 . S
O323 C316 1.240 . S
O324 In312 2.326 . S
O324 C316 1.252 . S
In325 O326 2.294 1_556 S
In325 O327 2.326 1_556 S
In325 O331 2.266 . S
In325 O332 2.326 . S
In325 O333 2.266 . S
In325 O334 2.326 . S
In325 O336 2.294 . S
In325 O337 2.326 . S
O326 In325 2.294 1_554 S
O326 C335 1.240 . S
O327 In325 2.326 1_554 S
O327 C335 1.252 . S
C328 O331 1.252 . S
C328 O332 1.260 . S
C329 O336 1.240 . S
C329 O337 1.252 . S
C330 O333 1.252 . S
C330 O334 1.260 . S
O331 In325 2.266 . S
O331 C328 1.252 . S
O332 In325 2.326 . S
O332 C328 1.260 . S
O333 In325 2.266 . S
O333 C330 1.252 . S
O334 In325 2.326 . S
O334 C330 1.260 . S
C335 O326 1.240 . S
C335 O327 1.252 . S
O336 In325 2.294 . S
O336 C329 1.240 . S
O337 In325 2.326 . S
O337 C329 1.252 . S
In338 O339 2.294 . S
In338 O340 2.326 . S
In338 O344 2.266 . S
In338 O345 2.326 . S
In338 O346 2.266 . S
In338 O347 2.326 . S
In338 O349 2.294 . S
In338 O350 2.326 . S
O339 In338 2.294 . S
O339 C348 1.240 . S
O340 In338 2.326 . S
O340 C348 1.252 . S
C341 O344 1.252 . S
C341 O345 1.260 . S
C342 O349 1.240 . S
C342 O350 1.252 . S
C343 O346 1.252 . S
C343 O347 1.260 . S
O344 In338 2.266 . S
O344 C341 1.252 . S
O345 In338 2.326 . S
O345 C341 1.260 . S
O346 In338 2.266 . S
O346 C343 1.252 . S
O347 In338 2.326 . S
O347 C343 1.260 . S
C348 O339 1.240 . S
C348 O340 1.252 . S
O349 In338 2.294 . S
O349 C342 1.240 . S
O350 In338 2.326 . S
O350 C342 1.252 . S
In351 O352 2.294 . S
In351 O353 2.326 . S
In351 O357 2.266 . S
In351 O358 2.326 . S
In351 O359 2.266 . S
In351 O360 2.326 . S
In351 O362 2.294 . S
In351 O363 2.326 . S
O352 In351 2.294 . S
O352 C361 1.240 . S
O353 In351 2.326 . S
O353 C361 1.252 . S
C354 O357 1.252 . S
C354 O358 1.260 . S
C355 O362 1.240 . S
C355 O363 1.252 . S
C356 O359 1.252 . S
C356 O360 1.260 . S
O357 In351 2.266 . S
O357 C354 1.252 . S
O358 In351 2.326 . S
O358 C354 1.260 . S
O359 In351 2.266 . S
O359 C356 1.252 . S
O360 In351 2.326 . S
O360 C356 1.260 . S
C361 O352 1.240 . S
C361 O353 1.252 . S
O362 In351 2.294 . S
O362 C355 1.240 . S
O363 In351 2.326 . S
O363 C355 1.252 . S
In364 O365 2.294 . S
In364 O366 2.326 . S
In364 O370 2.266 . S
In364 O371 2.326 . S
In364 O372 2.266 . S
In364 O373 2.326 . S
In364 O375 2.294 . S
In364 O376 2.326 . S
O365 In364 2.294 . S
O365 C374 1.240 . S
O366 In364 2.326 . S
O366 C374 1.252 . S
C367 O370 1.252 . S
C367 O371 1.260 . S
C368 O375 1.240 . S
C368 O376 1.252 . S
C369 O372 1.252 . S
C369 O373 1.260 . S
O370 In364 2.266 . S
O370 C367 1.252 . S
O371 In364 2.326 . S
O371 C367 1.260 . S
O372 In364 2.266 . S
O372 C369 1.252 . S
O373 In364 2.326 . S
O373 C369 1.260 . S
C374 O365 1.240 . S
C374 O366 1.252 . S
O375 In364 2.294 . S
O375 C368 1.240 . S
O376 In364 2.326 . S
O376 C368 1.252 . S
In377 O378 2.294 . S
In377 O379 2.326 . S
In377 O383 2.266 . S
In377 O384 2.326 . S
In377 O385 2.266 . S
In377 O386 2.326 . S
In377 O388 2.294 1_554 S
In377 O389 2.326 1_554 S
O378 In377 2.294 . S
O378 C387 1.240 . S
O379 In377 2.326 . S
O379 C387 1.252 . S
C380 O383 1.252 . S
C380 O384 1.260 . S
C381 O388 1.240 . S
C381 O389 1.252 . S
C382 O385 1.252 . S
C382 O386 1.260 . S
O383 In377 2.266 . S
O383 C380 1.252 . S
O384 In377 2.326 . S
O384 C380 1.260 . S
O385 In377 2.266 . S
O385 C382 1.252 . S
O386 In377 2.326 . S
O386 C382 1.260 . S
C387 O378 1.240 . S
C387 O379 1.252 . S
O388 In377 2.294 1_556 S
O388 C381 1.240 . S
O389 In377 2.326 1_556 S
O389 C381 1.252 . S
In390 O391 2.294 . S
In390 O392 2.326 . S
In390 O396 2.266 . S
In390 O397 2.326 . S
In390 O398 2.266 . S
In390 O399 2.326 . S
In390 O401 2.294 . S
In390 O402 2.326 . S
O391 In390 2.294 . S
O391 C400 1.240 . S
O392 In390 2.326 . S
O392 C400 1.252 . S
C393 O396 1.252 . S
C393 O397 1.260 . S
C394 O401 1.240 . S
C394 O402 1.252 . S
C395 O398 1.252 . S
C395 O399 1.260 . S
O396 In390 2.266 . S
O396 C393 1.252 . S
O397 In390 2.326 . S
O397 C393 1.260 . S
O398 In390 2.266 . S
O398 C395 1.252 . S
O399 In390 2.326 . S
O399 C395 1.260 . S
C400 O391 1.240 . S
C400 O392 1.252 . S
O401 In390 2.294 . S
O401 C394 1.240 . S
O402 In390 2.326 . S
O402 C394 1.252 . S
In403 O404 2.294 . S
In403 O405 2.326 . S
In403 O409 2.266 . S
In403 O410 2.326 . S
In403 O411 2.266 . S
In403 O412 2.326 . S
In403 O414 2.294 . S
In403 O415 2.326 . S
O404 In403 2.294 . S
O404 C413 1.240 . S
O405 In403 2.326 . S
O405 C413 1.252 . S
C406 O409 1.252 . S
C406 O410 1.260 . S
C407 O414 1.240 . S
C407 O415 1.252 . S
C408 O411 1.252 . S
C408 O412 1.260 . S
O409 In403 2.266 . S
O409 C406 1.252 . S
O410 In403 2.326 . S
O410 C406 1.260 . S
O411 In403 2.266 . S
O411 C408 1.252 . S
O412 In403 2.326 . S
O412 C408 1.260 . S
C413 O404 1.240 . S
C413 O405 1.252 . S
O414 In403 2.294 . S
O414 C407 1.240 . S
O415 In403 2.326 . S
O415 C407 1.252 . S
H416 C424 0.950 . S
H417 C429 0.950 . S
H418 C426 0.950 . S
H419 C428 0.950 . S
H420 C430 0.950 . S
H421 C432 0.950 . S
H422 C434 0.950 . S
H423 C435 0.950 . S
C424 H416 0.950 . S
C424 C425 1.386 . S
C424 C426 1.391 . S
C425 C424 1.386 . S
C425 C429 1.393 . S
C426 H418 0.950 . S
C426 C424 1.391 . S
C426 C427 1.400 . S
C427 C426 1.400 . S
C427 C428 1.398 . S
C427 C433 1.491 . S
C428 H419 0.950 . S
C428 C427 1.398 . S
C428 C429 1.391 . S
C429 H417 0.950 . S
C429 C425 1.393 . S
C429 C428 1.391 . S
C430 H420 0.950 . S
C430 C431 1.386 . S
C430 C432 1.391 . S
C431 C430 1.386 . S
C431 C435 1.393 . S
C432 H421 0.950 . S
C432 C430 1.391 . S
C432 C433 1.400 . S
C433 C427 1.491 . S
C433 C432 1.400 . S
C433 C434 1.398 . S
C434 H422 0.950 . S
C434 C433 1.398 . S
C434 C435 1.391 . S
C435 H423 0.950 . S
C435 C431 1.393 . S
C435 C434 1.391 . S
H436 C444 0.950 . S
H437 C449 0.950 . S
H438 C446 0.950 . S
H439 C448 0.950 . S
H440 C450 0.950 . S
H441 C452 0.950 . S
H442 C454 0.950 . S
H443 C455 0.950 . S
C444 H436 0.950 . S
C444 C445 1.388 . S
C444 C446 1.391 1_655 S
C445 C444 1.388 . S
C445 C449 1.374 1_655 S
C446 H438 0.950 . S
C446 C444 1.391 1_455 S
C446 C447 1.400 . S
C447 C446 1.400 . S
C447 C448 1.398 . S
C447 C453 1.491 . S
C448 H439 0.950 . S
C448 C447 1.398 . S
C448 C449 1.391 . S
C449 H437 0.950 . S
C449 C445 1.374 1_455 S
C449 C448 1.391 . S
C450 H440 0.950 . S
C450 C451 1.386 . S
C450 C452 1.391 . S
C451 C450 1.386 . S
C451 C455 1.393 . S
C452 H441 0.950 . S
C452 C450 1.391 . S
C452 C453 1.400 . S
C453 C447 1.491 . S
C453 C452 1.400 . S
C453 C454 1.398 . S
C454 H442 0.950 . S
C454 C453 1.398 . S
C454 C455 1.391 . S
C455 H443 0.950 . S
C455 C451 1.393 . S
C455 C454 1.391 . S
H456 C464 0.950 . S
H457 C469 0.950 . S
H458 C466 0.950 . S
H459 C468 0.950 . S
H460 C470 0.950 . S
H461 C472 0.950 . S
H462 C474 0.950 . S
H463 C475 0.950 . S
C464 H456 0.950 . S
C464 C465 1.386 . S
C464 C466 1.391 . S
C465 C464 1.386 . S
C465 C469 1.393 . S
C466 H458 0.950 . S
C466 C464 1.391 . S
C466 C467 1.400 . S
C467 C466 1.400 . S
C467 C468 1.398 . S
C467 C473 1.491 . S
C468 H459 0.950 . S
C468 C467 1.398 . S
C468 C469 1.391 . S
C469 H457 0.950 . S
C469 C465 1.393 . S
C469 C468 1.391 . S
C470 H460 0.950 . S
C470 C471 1.386 . S
C470 C472 1.391 . S
C471 C470 1.386 . S
C471 C475 1.393 . S
C472 H461 0.950 . S
C472 C470 1.391 . S
C472 C473 1.400 . S
C473 C467 1.491 . S
C473 C472 1.400 . S
C473 C474 1.398 . S
C474 H462 0.950 . S
C474 C473 1.398 . S
C474 C475 1.391 . S
C475 H463 0.950 . S
C475 C471 1.393 . S
C475 C474 1.391 . S
H476 C484 0.950 . S
H477 C489 0.950 . S
H478 C486 0.950 . S
H479 C488 0.950 . S
H480 C490 0.950 . S
H481 C492 0.950 . S
H482 C494 0.950 . S
H483 C495 0.950 . S
C484 H476 0.950 . S
C484 C485 1.386 . S
C484 C486 1.391 . S
C485 C484 1.386 . S
C485 C489 1.393 . S
C486 H478 0.950 . S
C486 C484 1.391 . S
C486 C487 1.400 . S
C487 C486 1.400 . S
C487 C488 1.398 . S
C487 C493 1.491 . S
C488 H479 0.950 . S
C488 C487 1.398 . S
C488 C489 1.391 . S
C489 H477 0.950 . S
C489 C485 1.393 . S
C489 C488 1.391 . S
C490 H480 0.950 . S
C490 C491 1.386 . S
C490 C492 1.391 . S
C491 C490 1.386 . S
C491 C495 1.393 . S
C492 H481 0.950 . S
C492 C490 1.391 . S
C492 C493 1.400 . S
C493 C487 1.491 . S
C493 C492 1.400 . S
C493 C494 1.398 . S
C494 H482 0.950 . S
C494 C493 1.398 . S
C494 C495 1.391 . S
C495 H483 0.950 . S
C495 C491 1.393 . S
C495 C494 1.391 . S
H496 C504 0.950 . S
H497 C509 0.950 . S
H498 C506 0.950 . S
H499 C508 0.950 . S
H500 C510 0.950 . S
H501 C512 0.950 . S
H502 C514 0.950 . S
H503 C515 0.950 . S
C504 H496 0.950 . S
C504 C505 1.386 . S
C504 C506 1.391 . S
C505 C504 1.386 . S
C505 C509 1.393 . S
C506 H498 0.950 . S
C506 C504 1.391 . S
C506 C507 1.400 . S
C507 C506 1.400 . S
C507 C508 1.398 . S
C507 C513 1.491 . S
C508 H499 0.950 . S
C508 C507 1.398 . S
C508 C509 1.391 . S
C509 H497 0.950 . S
C509 C505 1.393 . S
C509 C508 1.391 . S
C510 H500 0.950 . S
C510 C511 1.386 . S
C510 C512 1.391 . S
C511 C510 1.386 . S
C511 C515 1.393 . S
C512 H501 0.950 . S
C512 C510 1.391 . S
C512 C513 1.400 . S
C513 C507 1.491 . S
C513 C512 1.400 . S
C513 C514 1.398 . S
C514 H502 0.950 . S
C514 C513 1.398 . S
C514 C515 1.391 . S
C515 H503 0.950 . S
C515 C511 1.393 . S
C515 C514 1.391 . S
H516 C524 0.950 . S
H517 C529 0.950 . S
H518 C526 0.950 . S
H519 C528 0.950 . S
H520 C530 0.950 . S
H521 C532 0.950 . S
H522 C534 0.950 . S
H523 C535 0.950 . S
C524 H516 0.950 . S
C524 C525 1.386 . S
C524 C526 1.391 . S
C525 C524 1.386 . S
C525 C529 1.393 . S
C526 H518 0.950 . S
C526 C524 1.391 . S
C526 C527 1.400 . S
C527 C526 1.400 . S
C527 C528 1.398 . S
C527 C533 1.491 . S
C528 H519 0.950 . S
C528 C527 1.398 . S
C528 C529 1.391 . S
C529 H517 0.950 . S
C529 C525 1.393 . S
C529 C528 1.391 . S
C530 H520 0.950 . S
C530 C531 1.386 . S
C530 C532 1.391 . S
C531 C530 1.386 . S
C531 C535 1.393 . S
C532 H521 0.950 . S
C532 C530 1.391 . S
C532 C533 1.400 . S
C533 C527 1.491 . S
C533 C532 1.400 . S
C533 C534 1.398 . S
C534 H522 0.950 . S
C534 C533 1.398 . S
C534 C535 1.391 . S
C535 H523 0.950 . S
C535 C531 1.393 . S
C535 C534 1.391 . S
H536 C544 0.950 . S
H537 C549 0.950 . S
H538 C546 0.950 . S
H539 C548 0.950 . S
H540 C550 0.950 . S
H541 C552 0.950 . S
H542 C554 0.950 . S
H543 C555 0.950 . S
C544 H536 0.950 . S
C544 C545 1.386 . S
C544 C546 1.391 . S
C545 C544 1.386 . S
C545 C549 1.393 . S
C546 H538 0.950 . S
C546 C544 1.391 . S
C546 C547 1.400 . S
C547 C546 1.400 . S
C547 C548 1.398 . S
C547 C553 1.491 . S
C548 H539 0.950 . S
C548 C547 1.398 . S
C548 C549 1.391 . S
C549 H537 0.950 . S
C549 C545 1.393 . S
C549 C548 1.391 . S
C550 H540 0.950 . S
C550 C551 1.386 . S
C550 C552 1.391 . S
C551 C550 1.386 . S
C551 C555 1.393 . S
C552 H541 0.950 . S
C552 C550 1.391 . S
C552 C553 1.400 . S
C553 C547 1.491 . S
C553 C552 1.400 . S
C553 C554 1.398 . S
C554 H542 0.950 . S
C554 C553 1.398 . S
C554 C555 1.391 . S
C555 H543 0.950 . S
C555 C551 1.393 . S
C555 C554 1.391 . S
H556 C564 0.950 . S
H557 C569 0.950 . S
H558 C566 0.950 . S
H559 C568 0.950 . S
H560 C570 0.950 1_655 S
H561 C572 0.950 . S
H562 C574 0.950 . S
H563 C575 0.950 . S
C564 H556 0.950 . S
C564 C565 1.386 . S
C564 C566 1.391 . S
C565 C564 1.386 . S
C565 C569 1.393 . S
C566 H558 0.950 . S
C566 C564 1.391 . S
C566 C567 1.400 . S
C567 C566 1.400 . S
C567 C568 1.398 . S
C567 C573 1.491 . S
C568 H559 0.950 . S
C568 C567 1.398 . S
C568 C569 1.391 . S
C569 H557 0.950 . S
C569 C565 1.393 . S
C569 C568 1.391 . S
C570 H560 0.950 1_455 S
C570 C571 1.384 1_455 S
C570 C572 1.391 . S
C571 C570 1.384 1_655 S
C571 C575 1.386 1_655 S
C572 H561 0.950 . S
C572 C570 1.391 . S
C572 C573 1.400 . S
C573 C567 1.491 . S
C573 C572 1.400 . S
C573 C574 1.398 . S
C574 H562 0.950 . S
C574 C573 1.398 . S
C574 C575 1.391 . S
C575 H563 0.950 . S
C575 C571 1.386 1_455 S
C575 C574 1.391 . S
H576 C584 0.950 . S
H577 C589 0.950 . S
H578 C586 0.950 . S
H579 C588 0.950 . S
H580 C590 0.950 . S
H581 C592 0.950 . S
H582 C594 0.950 . S
H583 C595 0.950 . S
C584 H576 0.950 . S
C584 C585 1.386 . S
C584 C586 1.391 . S
C585 C584 1.386 . S
C585 C589 1.393 . S
C586 H578 0.950 . S
C586 C584 1.391 . S
C586 C587 1.400 . S
C587 C586 1.400 . S
C587 C588 1.398 . S
C587 C593 1.491 . S
C588 H579 0.950 . S
C588 C587 1.398 . S
C588 C589 1.391 . S
C589 H577 0.950 . S
C589 C585 1.393 . S
C589 C588 1.391 . S
C590 H580 0.950 . S
C590 C591 1.386 . S
C590 C592 1.391 . S
C591 C590 1.386 . S
C591 C595 1.393 . S
C592 H581 0.950 . S
C592 C590 1.391 . S
C592 C593 1.400 . S
C593 C587 1.491 . S
C593 C592 1.400 . S
C593 C594 1.398 . S
C594 H582 0.950 . S
C594 C593 1.398 . S
C594 C595 1.391 . S
C595 H583 0.950 . S
C595 C591 1.393 . S
C595 C594 1.391 . S
H596 C604 0.950 . S
H597 C609 0.950 . S
H598 C606 0.950 . S
H599 C608 0.950 . S
H600 C610 0.950 . S
H601 C612 0.950 . S
H602 C614 0.950 . S
H603 C615 0.950 . S
C604 H596 0.950 . S
C604 C605 1.356 1_655 S
C604 C606 1.391 . S
C605 C604 1.356 1_455 S
C605 C609 1.397 . S
C606 H598 0.950 . S
C606 C604 1.391 . S
C606 C607 1.400 . S
C607 C606 1.400 . S
C607 C608 1.398 . S
C607 C613 1.491 . S
C608 H599 0.950 . S
C608 C607 1.398 . S
C608 C609 1.391 1_655 S
C609 H597 0.950 . S
C609 C605 1.397 . S
C609 C608 1.391 1_455 S
C610 H600 0.950 . S
C610 C611 1.386 . S
C610 C612 1.391 . S
C611 C610 1.386 . S
C611 C615 1.393 . S
C612 H601 0.950 . S
C612 C610 1.391 . S
C612 C613 1.400 . S
C613 C607 1.491 . S
C613 C612 1.400 . S
C613 C614 1.398 . S
C614 H602 0.950 . S
C614 C613 1.398 . S
C614 C615 1.391 . S
C615 H603 0.950 . S
C615 C611 1.393 . S
C615 C614 1.391 . S
H616 C624 0.950 . S
H617 C629 0.950 . S
H618 C626 0.950 . S
H619 C628 0.950 . S
H620 C630 0.950 . S
H621 C632 0.950 . S
H622 C634 0.950 . S
H623 C635 0.950 . S
C624 H616 0.950 . S
C624 C625 1.386 . S
C624 C626 1.391 . S
C625 C624 1.386 . S
C625 C629 1.393 . S
C626 H618 0.950 . S
C626 C624 1.391 . S
C626 C627 1.400 . S
C627 C626 1.400 . S
C627 C628 1.398 . S
C627 C633 1.491 . S
C628 H619 0.950 . S
C628 C627 1.398 . S
C628 C629 1.391 . S
C629 H617 0.950 . S
C629 C625 1.393 . S
C629 C628 1.391 . S
C630 H620 0.950 . S
C630 C631 1.386 . S
C630 C632 1.391 . S
C631 C630 1.386 . S
C631 C635 1.393 . S
C632 H621 0.950 . S
C632 C630 1.391 . S
C632 C633 1.400 . S
C633 C627 1.491 . S
C633 C632 1.400 . S
C633 C634 1.398 . S
C634 H622 0.950 . S
C634 C633 1.398 . S
C634 C635 1.391 . S
C635 H623 0.950 . S
C635 C631 1.393 . S
C635 C634 1.391 . S
H636 C644 0.950 . S
H637 C649 0.950 . S
H638 C646 0.950 . S
H639 C648 0.950 . S
H640 C650 0.950 . S
H641 C652 0.950 . S
H642 C654 0.950 . S
H643 C655 0.950 . S
C644 H636 0.950 . S
C644 C645 1.386 . S
C644 C646 1.391 . S
C645 C644 1.386 . S
C645 C649 1.393 . S
C646 H638 0.950 . S
C646 C644 1.391 . S
C646 C647 1.400 . S
C647 C646 1.400 . S
C647 C648 1.398 . S
C647 C653 1.491 . S
C648 H639 0.950 . S
C648 C647 1.398 . S
C648 C649 1.391 . S
C649 H637 0.950 . S
C649 C645 1.393 . S
C649 C648 1.391 . S
C650 H640 0.950 . S
C650 C651 1.386 . S
C650 C652 1.391 . S
C651 C650 1.386 . S
C651 C655 1.393 . S
C652 H641 0.950 . S
C652 C650 1.391 . S
C652 C653 1.400 . S
C653 C647 1.491 . S
C653 C652 1.400 . S
C653 C654 1.398 . S
C654 H642 0.950 . S
C654 C653 1.398 . S
C654 C655 1.391 . S
C655 H643 0.950 . S
C655 C651 1.393 . S
C655 C654 1.391 . S
H656 C664 0.950 . S
H657 C669 0.950 . S
H658 C666 0.950 . S
H659 C668 0.950 . S
H660 C670 0.950 . S
H661 C672 0.950 . S
H662 C674 0.950 . S
H663 C675 0.950 . S
C664 H656 0.950 . S
C664 C665 1.386 . S
C664 C666 1.391 . S
C665 C664 1.386 . S
C665 C669 1.393 . S
C666 H658 0.950 . S
C666 C664 1.391 . S
C666 C667 1.400 . S
C667 C666 1.400 . S
C667 C668 1.398 . S
C667 C673 1.491 . S
C668 H659 0.950 . S
C668 C667 1.398 . S
C668 C669 1.391 . S
C669 H657 0.950 . S
C669 C665 1.393 . S
C669 C668 1.391 . S
C670 H660 0.950 . S
C670 C671 1.386 . S
C670 C672 1.391 . S
C671 C670 1.386 . S
C671 C675 1.393 . S
C672 H661 0.950 . S
C672 C670 1.391 . S
C672 C673 1.400 . S
C673 C667 1.491 . S
C673 C672 1.400 . S
C673 C674 1.398 . S
C674 H662 0.950 . S
C674 C673 1.398 . S
C674 C675 1.391 . S
C675 H663 0.950 . S
C675 C671 1.393 . S
C675 C674 1.391 . S
H676 C684 0.950 . S
H677 C689 0.950 . S
H678 C686 0.950 . S
H679 C688 0.950 . S
H680 C690 0.950 . S
H681 C692 0.950 . S
H682 C694 0.950 . S
H683 C695 0.950 . S
C684 H676 0.950 . S
C684 C685 1.386 . S
C684 C686 1.391 . S
C685 C684 1.386 . S
C685 C689 1.393 . S
C686 H678 0.950 . S
C686 C684 1.391 . S
C686 C687 1.400 . S
C687 C686 1.400 . S
C687 C688 1.398 . S
C687 C693 1.491 . S
C688 H679 0.950 . S
C688 C687 1.398 . S
C688 C689 1.391 . S
C689 H677 0.950 . S
C689 C685 1.393 . S
C689 C688 1.391 . S
C690 H680 0.950 . S
C690 C691 1.386 . S
C690 C692 1.391 . S
C691 C690 1.386 . S
C691 C695 1.393 . S
C692 H681 0.950 . S
C692 C690 1.391 . S
C692 C693 1.400 . S
C693 C687 1.491 . S
C693 C692 1.400 . S
C693 C694 1.398 . S
C694 H682 0.950 . S
C694 C693 1.398 . S
C694 C695 1.391 . S
C695 H683 0.950 . S
C695 C691 1.393 . S
C695 C694 1.391 . S
H696 C704 0.950 . S
H697 C709 0.950 . S
H698 C706 0.950 . S
H699 C708 0.950 . S
H700 C710 0.950 . S
H701 C712 0.950 . S
H702 C714 0.950 . S
H703 C715 0.950 . S
C704 H696 0.950 . S
C704 C705 1.386 . S
C704 C706 1.391 . S
C705 C704 1.386 . S
C705 C709 1.393 . S
C706 H698 0.950 . S
C706 C704 1.391 . S
C706 C707 1.400 . S
C707 C706 1.400 . S
C707 C708 1.398 . S
C707 C713 1.491 . S
C708 H699 0.950 . S
C708 C707 1.398 . S
C708 C709 1.391 . S
C709 H697 0.950 . S
C709 C705 1.393 . S
C709 C708 1.391 . S
C710 H700 0.950 . S
C710 C711 1.386 . S
C710 C712 1.391 . S
C711 C710 1.386 . S
C711 C715 1.393 . S
C712 H701 0.950 . S
C712 C710 1.391 . S
C712 C713 1.400 . S
C713 C707 1.491 . S
C713 C712 1.400 . S
C713 C714 1.398 . S
C714 H702 0.950 . S
C714 C713 1.398 . S
C714 C715 1.391 . S
C715 H703 0.950 . S
C715 C711 1.393 . S
C715 C714 1.391 . S
H716 C724 0.950 . S
H717 C729 0.950 . S
H718 C726 0.950 . S
H719 C728 0.950 . S
H720 C730 0.950 . S
H721 C732 0.950 . S
H722 C734 0.950 . S
H723 C735 0.950 . S
C724 H716 0.950 . S
C724 C725 1.386 . S
C724 C726 1.391 . S
C725 C724 1.386 . S
C725 C729 1.393 . S
C726 H718 0.950 . S
C726 C724 1.391 . S
C726 C727 1.400 . S
C727 C726 1.400 . S
C727 C728 1.398 . S
C727 C733 1.491 . S
C728 H719 0.950 . S
C728 C727 1.398 . S
C728 C729 1.391 . S
C729 H717 0.950 . S
C729 C725 1.393 . S
C729 C728 1.391 . S
C730 H720 0.950 . S
C730 C731 1.386 1_655 S
C730 C732 1.391 . S
C731 C730 1.386 1_455 S
C731 C735 1.393 . S
C732 H721 0.950 . S
C732 C730 1.391 . S
C732 C733 1.400 . S
C733 C727 1.491 . S
C733 C732 1.400 . S
C733 C734 1.398 . S
C734 H722 0.950 . S
C734 C733 1.398 . S
C734 C735 1.391 1_655 S
C735 H723 0.950 . S
C735 C731 1.393 . S
C735 C734 1.391 1_455 S
H736 C744 0.950 . S
H737 C749 0.950 . S
H738 C746 0.950 . S
H739 C748 0.950 . S
H740 C750 0.950 . S
H741 C752 0.950 . S
H742 C754 0.950 . S
H743 C755 0.950 . S
C744 H736 0.950 . S
C744 C745 1.386 . S
C744 C746 1.391 . S
C745 C744 1.386 . S
C745 C749 1.393 . S
C746 H738 0.950 . S
C746 C744 1.391 . S
C746 C747 1.400 . S
C747 C746 1.400 . S
C747 C748 1.398 . S
C747 C753 1.491 . S
C748 H739 0.950 . S
C748 C747 1.398 . S
C748 C749 1.391 . S
C749 H737 0.950 . S
C749 C745 1.393 . S
C749 C748 1.391 . S
C750 H740 0.950 . S
C750 C751 1.386 . S
C750 C752 1.391 . S
C751 C750 1.386 . S
C751 C755 1.393 . S
C752 H741 0.950 . S
C752 C750 1.391 . S
C752 C753 1.400 . S
C753 C747 1.491 . S
C753 C752 1.400 . S
C753 C754 1.398 . S
C754 H742 0.950 . S
C754 C753 1.398 . S
C754 C755 1.391 . S
C755 H743 0.950 . S
C755 C751 1.393 . S
C755 C754 1.391 . S
H756 C764 0.950 . S
H757 C769 0.950 . S
H758 C766 0.950 . S
H759 C768 0.950 . S
H760 C770 0.950 . S
H761 C772 0.950 . S
H762 C774 0.950 . S
H763 C775 0.950 . S
C764 H756 0.950 . S
C764 C765 1.386 . S
C764 C766 1.391 . S
C765 C764 1.386 . S
C765 C769 1.393 . S
C766 H758 0.950 . S
C766 C764 1.391 . S
C766 C767 1.400 . S
C767 C766 1.400 . S
C767 C768 1.398 . S
C767 C773 1.491 . S
C768 H759 0.950 . S
C768 C767 1.398 . S
C768 C769 1.391 . S
C769 H757 0.950 . S
C769 C765 1.393 . S
C769 C768 1.391 . S
C770 H760 0.950 . S
C770 C771 1.386 . S
C770 C772 1.391 . S
C771 C770 1.386 . S
C771 C775 1.393 . S
C772 H761 0.950 . S
C772 C770 1.391 . S
C772 C773 1.400 . S
C773 C767 1.491 . S
C773 C772 1.400 . S
C773 C774 1.398 . S
C774 H762 0.950 . S
C774 C773 1.398 . S
C774 C775 1.391 . S
C775 H763 0.950 . S
C775 C771 1.393 . S
C775 C774 1.391 . S
H776 C784 0.950 . S
H777 C789 0.950 . S
H778 C786 0.950 . S
H779 C788 0.950 . S
H780 C790 0.950 . S
H781 C792 0.950 . S
H782 C794 0.950 . S
H783 C795 0.950 . S
C784 H776 0.950 . S
C784 C785 1.386 . S
C784 C786 1.391 . S
C785 C784 1.386 . S
C785 C789 1.393 . S
C786 H778 0.950 . S
C786 C784 1.391 . S
C786 C787 1.400 . S
C787 C786 1.400 . S
C787 C788 1.398 . S
C787 C793 1.491 . S
C788 H779 0.950 . S
C788 C787 1.398 . S
C788 C789 1.391 . S
C789 H777 0.950 . S
C789 C785 1.393 . S
C789 C788 1.391 . S
C790 H780 0.950 . S
C790 C791 1.386 . S
C790 C792 1.391 . S
C791 C790 1.386 . S
C791 C795 1.393 . S
C792 H781 0.950 . S
C792 C790 1.391 . S
C792 C793 1.400 . S
C793 C787 1.491 . S
C793 C792 1.400 . S
C793 C794 1.398 . S
C794 H782 0.950 . S
C794 C793 1.398 . S
C794 C795 1.391 . S
C795 H783 0.950 . S
C795 C791 1.393 . S
C795 C794 1.391 . S
H796 C804 0.950 . S
H797 C809 0.950 . S
H798 C806 0.950 . S
H799 C808 0.950 . S
H800 C810 0.919 1_455 S
H801 C812 0.950 . S
H802 C814 0.950 . S
H803 C815 0.950 . S
C804 H796 0.950 . S
C804 C805 1.386 . S
C804 C806 1.391 . S
C805 C804 1.386 . S
C805 C809 1.393 . S
C806 H798 0.950 . S
C806 C804 1.391 . S
C806 C807 1.400 . S
C807 C806 1.400 . S
C807 C808 1.398 . S
C807 C813 1.491 . S
C808 H799 0.950 . S
C808 C807 1.398 . S
C808 C809 1.391 . S
C809 H797 0.950 . S
C809 C805 1.393 . S
C809 C808 1.391 . S
C810 H800 0.919 1_655 S
C810 C811 1.383 1_655 S
C810 C812 1.426 . S
C811 C810 1.383 1_455 S
C811 C815 1.393 1_455 S
C812 H801 0.950 . S
C812 C810 1.426 . S
C812 C813 1.400 . S
C813 C807 1.491 . S
C813 C812 1.400 . S
C813 C814 1.398 . S
C814 H802 0.950 . S
C814 C813 1.398 . S
C814 C815 1.391 . S
C815 H803 0.950 . S
C815 C811 1.393 1_655 S
C815 C814 1.391 . S
H816 C824 0.950 . S
H817 C829 0.950 . S
H818 C826 0.950 . S
H819 C828 0.950 . S
H820 C830 0.950 . S
H821 C832 0.950 . S
H822 C834 0.950 . S
H823 C835 0.950 . S
C824 H816 0.950 . S
C824 C825 1.386 . S
C824 C826 1.391 . S
C825 C824 1.386 . S
C825 C829 1.393 . S
C826 H818 0.950 . S
C826 C824 1.391 . S
C826 C827 1.400 . S
C827 C826 1.400 . S
C827 C828 1.398 . S
C827 C833 1.491 . S
C828 H819 0.950 . S
C828 C827 1.398 . S
C828 C829 1.391 . S
C829 H817 0.950 . S
C829 C825 1.393 . S
C829 C828 1.391 . S
C830 H820 0.950 . S
C830 C831 1.386 . S
C830 C832 1.391 . S
C831 C830 1.386 . S
C831 C835 1.393 . S
C832 H821 0.950 . S
C832 C830 1.391 . S
C832 C833 1.400 . S
C833 C827 1.491 . S
C833 C832 1.400 . S
C833 C834 1.398 . S
C834 H822 0.950 . S
C834 C833 1.398 . S
C834 C835 1.391 . S
C835 H823 0.950 . S
C835 C831 1.393 . S
C835 C834 1.391 . S
H836 C844 0.950 . S
H837 C849 0.950 . S
H838 C846 0.950 . S
H839 C848 0.950 . S
H840 C850 0.950 . S
H841 C852 0.950 . S
H842 C854 0.950 . S
H843 C855 0.950 . S
C844 H836 0.950 . S
C844 C845 1.387 . S
C844 C846 1.391 1_455 S
C845 C844 1.387 . S
C845 C849 1.379 1_455 S
C846 H838 0.950 . S
C846 C844 1.391 1_655 S
C846 C847 1.400 . S
C847 C846 1.400 . S
C847 C848 1.398 . S
C847 C853 1.491 . S
C848 H839 0.950 . S
C848 C847 1.398 . S
C848 C849 1.391 . S
C849 H837 0.950 . S
C849 C845 1.379 1_655 S
C849 C848 1.391 . S
C850 H840 0.950 . S
C850 C851 1.386 . S
C850 C852 1.391 . S
C851 C850 1.386 . S
C851 C855 1.393 . S
C852 H841 0.950 . S
C852 C850 1.391 . S
C852 C853 1.400 . S
C853 C847 1.491 . S
C853 C852 1.400 . S
C853 C854 1.398 . S
C854 H842 0.950 . S
C854 C853 1.398 . S
C854 C855 1.391 . S
C855 H843 0.950 . S
C855 C851 1.393 . S
C855 C854 1.391 . S
H856 C864 0.950 . S
H857 C869 0.950 . S
H858 C866 0.950 . S
H859 C868 0.950 . S
H860 C870 0.950 . S
H861 C872 0.950 . S
H862 C874 0.950 . S
H863 C875 0.950 . S
C864 H856 0.950 . S
C864 C865 1.386 . S
C864 C866 1.391 . S
C865 C864 1.386 . S
C865 C869 1.393 . S
C866 H858 0.950 . S
C866 C864 1.391 . S
C866 C867 1.400 . S
C867 C866 1.400 . S
C867 C868 1.398 . S
C867 C873 1.491 . S
C868 H859 0.950 . S
C868 C867 1.398 . S
C868 C869 1.391 . S
C869 H857 0.950 . S
C869 C865 1.393 . S
C869 C868 1.391 . S
C870 H860 0.950 . S
C870 C871 1.386 . S
C870 C872 1.391 . S
C871 C870 1.386 . S
C871 C875 1.393 . S
C872 H861 0.950 . S
C872 C870 1.391 . S
C872 C873 1.400 . S
C873 C867 1.491 . S
C873 C872 1.400 . S
C873 C874 1.398 . S
C874 H862 0.950 . S
C874 C873 1.398 . S
C874 C875 1.391 . S
C875 H863 0.950 . S
C875 C871 1.393 . S
C875 C874 1.391 . S
H876 C884 0.950 . S
H877 C889 0.950 . S
H878 C886 0.950 . S
H879 C888 0.950 . S
H880 C890 0.950 . S
H881 C892 0.950 . S
H882 C894 0.950 . S
H883 C895 0.950 . S
C884 H876 0.950 . S
C884 C885 1.386 . S
C884 C886 1.391 . S
C885 C884 1.386 . S
C885 C889 1.393 . S
C886 H878 0.950 . S
C886 C884 1.391 . S
C886 C887 1.400 . S
C887 C886 1.400 . S
C887 C888 1.398 . S
C887 C893 1.491 . S
C888 H879 0.950 . S
C888 C887 1.398 . S
C888 C889 1.391 . S
C889 H877 0.950 . S
C889 C885 1.393 . S
C889 C888 1.391 . S
C890 H880 0.950 . S
C890 C891 1.386 . S
C890 C892 1.391 . S
C891 C890 1.386 . S
C891 C895 1.393 . S
C892 H881 0.950 . S
C892 C890 1.391 . S
C892 C893 1.400 . S
C893 C887 1.491 . S
C893 C892 1.400 . S
C893 C894 1.398 . S
C894 H882 0.950 . S
C894 C893 1.398 . S
C894 C895 1.391 . S
C895 H883 0.950 . S
C895 C891 1.393 . S
C895 C894 1.391 . S
H896 C904 0.950 . S
H897 C909 0.950 . S
H898 C906 0.950 . S
H899 C908 0.950 . S
H900 C910 0.950 . S
H901 C912 0.950 . S
H902 C914 0.950 . S
H903 C915 0.950 . S
C904 H896 0.950 . S
C904 C905 1.386 . S
C904 C906 1.391 . S
C905 C904 1.386 . S
C905 C909 1.393 . S
C906 H898 0.950 . S
C906 C904 1.391 . S
C906 C907 1.400 . S
C907 C906 1.400 . S
C907 C908 1.398 . S
C907 C913 1.491 . S
C908 H899 0.950 . S
C908 C907 1.398 . S
C908 C909 1.391 . S
C909 H897 0.950 . S
C909 C905 1.393 . S
C909 C908 1.391 . S
C910 H900 0.950 . S
C910 C911 1.386 . S
C910 C912 1.391 . S
C911 C910 1.386 . S
C911 C915 1.393 . S
C912 H901 0.950 . S
C912 C910 1.391 . S
C912 C913 1.400 . S
C913 C907 1.491 . S
C913 C912 1.400 . S
C913 C914 1.398 . S
C914 H902 0.950 . S
C914 C913 1.398 . S
C914 C915 1.391 . S
C915 H903 0.950 . S
C915 C911 1.393 . S
C915 C914 1.391 . S
H916 C924 0.950 . S
H917 C929 0.950 . S
H918 C926 0.950 . S
H919 C928 0.950 . S
H920 C930 0.950 . S
H921 C932 0.950 . S
H922 C934 0.950 . S
H923 C935 0.950 . S
C924 H916 0.950 . S
C924 C925 1.386 . S
C924 C926 1.391 . S
C925 C924 1.386 . S
C925 C929 1.393 . S
C926 H918 0.950 . S
C926 C924 1.391 . S
C926 C927 1.400 . S
C927 C926 1.400 . S
C927 C928 1.398 . S
C927 C933 1.491 . S
C928 H919 0.950 . S
C928 C927 1.398 . S
C928 C929 1.391 . S
C929 H917 0.950 . S
C929 C925 1.393 . S
C929 C928 1.391 . S
C930 H920 0.950 . S
C930 C931 1.386 . S
C930 C932 1.391 . S
C931 C930 1.386 . S
C931 C935 1.393 . S
C932 H921 0.950 . S
C932 C930 1.391 . S
C932 C933 1.400 . S
C933 C927 1.491 . S
C933 C932 1.400 . S
C933 C934 1.398 . S
C934 H922 0.950 . S
C934 C933 1.398 . S
C934 C935 1.391 . S
C935 H923 0.950 . S
C935 C931 1.393 . S
C935 C934 1.391 . S
H936 C944 0.950 . S
H937 C949 0.950 . S
H938 C946 0.950 . S
H939 C948 0.950 . S
H940 C950 0.950 . S
H941 C952 0.950 . S
H942 C954 0.950 . S
H943 C955 0.950 . S
C944 H936 0.950 . S
C944 C945 1.386 . S
C944 C946 1.391 . S
C945 C944 1.386 . S
C945 C949 1.393 . S
C946 H938 0.950 . S
C946 C944 1.391 . S
C946 C947 1.400 . S
C947 C946 1.400 . S
C947 C948 1.398 . S
C947 C953 1.491 . S
C948 H939 0.950 . S
C948 C947 1.398 . S
C948 C949 1.391 . S
C949 H937 0.950 . S
C949 C945 1.393 . S
C949 C948 1.391 . S
C950 H940 0.950 . S
C950 C951 1.386 . S
C950 C952 1.391 . S
C951 C950 1.386 . S
C951 C955 1.393 . S
C952 H941 0.950 . S
C952 C950 1.391 . S
C952 C953 1.400 . S
C953 C947 1.491 . S
C953 C952 1.400 . S
C953 C954 1.398 . S
C954 H942 0.950 . S
C954 C953 1.398 . S
C954 C955 1.391 . S
C955 H943 0.950 . S
C955 C951 1.393 . S
C955 C954 1.391 . S
H956 C964 0.950 . S
H957 C969 0.950 1_655 S
H958 C966 0.950 . S
H959 C968 0.950 . S
H960 C970 0.950 . S
H961 C972 0.950 . S
H962 C974 0.950 . S
H963 C975 0.950 . S
C964 H956 0.950 . S
C964 C965 1.380 1_455 S
C964 C966 1.391 . S
C965 C964 1.380 1_655 S
C965 C969 1.390 1_655 S
C966 H958 0.950 . S
C966 C964 1.391 . S
C966 C967 1.400 . S
C967 C966 1.400 . S
C967 C968 1.398 . S
C967 C973 1.491 . S
C968 H959 0.950 . S
C968 C967 1.398 . S
C968 C969 1.391 . S
C969 H957 0.950 1_455 S
C969 C965 1.390 1_455 S
C969 C968 1.391 . S
C970 H960 0.950 . S
C970 C971 1.386 . S
C970 C972 1.391 . S
C971 C970 1.386 . S
C971 C975 1.393 . S
C972 H961 0.950 . S
C972 C970 1.391 . S
C972 C973 1.400 . S
C973 C967 1.491 . S
C973 C972 1.400 . S
C973 C974 1.398 . S
C974 H962 0.950 . S
C974 C973 1.398 . S
C974 C975 1.391 . S
C975 H963 0.950 . S
C975 C971 1.393 . S
C975 C974 1.391 . S
H976 C984 0.950 . S
H977 C989 0.950 . S
H978 C986 0.950 . S
H979 C988 0.950 . S
H980 C990 0.950 . S
H981 C992 0.950 . S
H982 C994 0.950 . S
H983 C995 0.950 . S
C984 H976 0.950 . S
C984 C985 1.386 . S
C984 C986 1.391 . S
C985 C984 1.386 . S
C985 C989 1.393 . S
C986 H978 0.950 . S
C986 C984 1.391 . S
C986 C987 1.400 . S
C987 C986 1.400 . S
C987 C988 1.398 . S
C987 C993 1.491 . S
C988 H979 0.950 . S
C988 C987 1.398 . S
C988 C989 1.391 . S
C989 H977 0.950 . S
C989 C985 1.393 . S
C989 C988 1.391 . S
C990 H980 0.950 . S
C990 C991 1.386 . S
C990 C992 1.391 . S
C991 C990 1.386 . S
C991 C995 1.393 . S
C992 H981 0.950 . S
C992 C990 1.391 . S
C992 C993 1.400 . S
C993 C987 1.491 . S
C993 C992 1.400 . S
C993 C994 1.398 . S
C994 H982 0.950 . S
C994 C993 1.398 . S
C994 C995 1.391 . S
C995 H983 0.950 . S
C995 C991 1.393 . S
C995 C994 1.391 . S
H996 C1004 0.950 . S
H997 C1009 0.950 . S
H998 C1006 0.950 . S
H999 C1008 0.950 . S
H1000 C1010 0.950 . S
H1001 C1012 0.950 . S
H1002 C1014 0.950 . S
H1003 C1015 0.950 . S
C1004 H996 0.950 . S
C1004 C1005 1.392 . S
C1004 C1006 1.391 1_655 S
C1005 C1004 1.392 . S
C1005 C1009 1.352 1_655 S
C1006 H998 0.950 . S
C1006 C1004 1.391 1_455 S
C1006 C1007 1.400 . S
C1007 C1006 1.400 . S
C1007 C1008 1.398 . S
C1007 C1013 1.491 . S
C1008 H999 0.950 . S
C1008 C1007 1.398 . S
C1008 C1009 1.391 . S
C1009 H997 0.950 . S
C1009 C1005 1.352 1_455 S
C1009 C1008 1.391 . S
C1010 H1000 0.950 . S
C1010 C1011 1.386 . S
C1010 C1012 1.391 . S
C1011 C1010 1.386 . S
C1011 C1015 1.393 . S
C1012 H1001 0.950 . S
C1012 C1010 1.391 . S
C1012 C1013 1.400 . S
C1013 C1007 1.491 . S
C1013 C1012 1.400 . S
C1013 C1014 1.398 . S
C1014 H1002 0.950 . S
C1014 C1013 1.398 . S
C1014 C1015 1.391 . S
C1015 H1003 0.950 . S
C1015 C1011 1.393 . S
C1015 C1014 1.391 . S
H1016 C1024 0.950 . S
H1017 C1029 0.950 . S
H1018 C1026 0.950 . S
H1019 C1028 0.950 . S
H1020 C1030 0.950 . S
H1021 C1032 0.950 . S
H1022 C1034 0.950 . S
H1023 C1035 0.950 . S
C1024 H1016 0.950 . S
C1024 C1025 1.386 . S
C1024 C1026 1.391 . S
C1025 C1024 1.386 . S
C1025 C1029 1.393 . S
C1026 H1018 0.950 . S
C1026 C1024 1.391 . S
C1026 C1027 1.400 . S
C1027 C1026 1.400 . S
C1027 C1028 1.398 . S
C1027 C1033 1.491 . S
C1028 H1019 0.950 . S
C1028 C1027 1.398 . S
C1028 C1029 1.391 . S
C1029 H1017 0.950 . S
C1029 C1025 1.393 . S
C1029 C1028 1.391 . S
C1030 H1020 0.950 . S
C1030 C1031 1.386 . S
C1030 C1032 1.391 . S
C1031 C1030 1.386 . S
C1031 C1035 1.393 . S
C1032 H1021 0.950 . S
C1032 C1030 1.391 . S
C1032 C1033 1.400 . S
C1033 C1027 1.491 . S
C1033 C1032 1.400 . S
C1033 C1034 1.398 . S
C1034 H1022 0.950 . S
C1034 C1033 1.398 . S
C1034 C1035 1.391 . S
C1035 H1023 0.950 . S
C1035 C1031 1.393 . S
C1035 C1034 1.391 . S
H1036 C1044 0.950 . S
H1037 C1049 0.950 . S
H1038 C1046 0.950 . S
H1039 C1048 0.950 . S
H1040 C1050 0.950 . S
H1041 C1052 0.950 . S
H1042 C1054 0.950 . S
H1043 C1055 0.950 . S
C1044 H1036 0.950 . S
C1044 C1045 1.386 . S
C1044 C1046 1.391 . S
C1045 C1044 1.386 . S
C1045 C1049 1.393 . S
C1046 H1038 0.950 . S
C1046 C1044 1.391 . S
C1046 C1047 1.400 . S
C1047 C1046 1.400 . S
C1047 C1048 1.398 . S
C1047 C1053 1.491 . S
C1048 H1039 0.950 . S
C1048 C1047 1.398 . S
C1048 C1049 1.391 . S
C1049 H1037 0.950 . S
C1049 C1045 1.393 . S
C1049 C1048 1.391 . S
C1050 H1040 0.950 . S
C1050 C1051 1.386 . S
C1050 C1052 1.391 . S
C1051 C1050 1.386 . S
C1051 C1055 1.393 . S
C1052 H1041 0.950 . S
C1052 C1050 1.391 . S
C1052 C1053 1.400 . S
C1053 C1047 1.491 . S
C1053 C1052 1.400 . S
C1053 C1054 1.398 . S
C1054 H1042 0.950 . S
C1054 C1053 1.398 . S
C1054 C1055 1.391 . S
C1055 H1043 0.950 . S
C1055 C1051 1.393 . S
C1055 C1054 1.391 . S
H1056 C1064 0.950 . S
H1057 C1069 0.950 . S
H1058 C1066 0.950 . S
H1059 C1068 0.950 . S
H1060 C1070 0.950 . S
H1061 C1072 0.950 . S
H1062 C1074 0.950 . S
H1063 C1075 0.950 . S
C1064 H1056 0.950 . S
C1064 C1065 1.386 . S
C1064 C1066 1.391 . S
C1065 C1064 1.386 . S
C1065 C1069 1.393 . S
C1066 H1058 0.950 . S
C1066 C1064 1.391 . S
C1066 C1067 1.400 . S
C1067 C1066 1.400 . S
C1067 C1068 1.398 . S
C1067 C1073 1.491 . S
C1068 H1059 0.950 . S
C1068 C1067 1.398 . S
C1068 C1069 1.391 . S
C1069 H1057 0.950 . S
C1069 C1065 1.393 . S
C1069 C1068 1.391 . S
C1070 H1060 0.950 . S
C1070 C1071 1.386 . S
C1070 C1072 1.391 . S
C1071 C1070 1.386 . S
C1071 C1075 1.393 . S
C1072 H1061 0.950 . S
C1072 C1070 1.391 . S
C1072 C1073 1.400 . S
C1073 C1067 1.491 . S
C1073 C1072 1.400 . S
C1073 C1074 1.398 . S
C1074 H1062 0.950 . S
C1074 C1073 1.398 . S
C1074 C1075 1.391 . S
C1075 H1063 0.950 . S
C1075 C1071 1.393 . S
C1075 C1074 1.391 . S
H1076 C1084 0.950 . S
H1077 C1089 0.950 . S
H1078 C1086 0.950 . S
H1079 C1088 0.950 . S
H1080 C1090 0.950 . S
H1081 C1092 0.950 . S
H1082 C1094 0.950 . S
H1083 C1095 0.950 . S
C1084 H1076 0.950 . S
C1084 C1085 1.386 . S
C1084 C1086 1.391 . S
C1085 C1084 1.386 . S
C1085 C1089 1.393 . S
C1086 H1078 0.950 . S
C1086 C1084 1.391 . S
C1086 C1087 1.400 . S
C1087 C1086 1.400 . S
C1087 C1088 1.398 . S
C1087 C1093 1.491 1_665 S
C1088 H1079 0.950 . S
C1088 C1087 1.398 . S
C1088 C1089 1.391 . S
C1089 H1077 0.950 . S
C1089 C1085 1.393 . S
C1089 C1088 1.391 . S
C1090 H1080 0.950 . S
C1090 C1091 1.386 . S
C1090 C1092 1.391 . S
C1091 C1090 1.386 . S
C1091 C1095 1.393 . S
C1092 H1081 0.950 . S
C1092 C1090 1.391 . S
C1092 C1093 1.400 . S
C1093 C1087 1.491 1_445 S
C1093 C1092 1.400 . S
C1093 C1094 1.398 . S
C1094 H1082 0.950 . S
C1094 C1093 1.398 . S
C1094 C1095 1.391 . S
C1095 H1083 0.950 . S
C1095 C1091 1.393 . S
C1095 C1094 1.391 . S
H1096 C1104 0.950 . S
H1097 C1109 0.950 . S
H1098 C1106 0.950 . S
H1099 C1108 0.950 . S
H1100 C1110 0.950 . S
H1101 C1112 0.950 . S
H1102 C1114 0.950 . S
H1103 C1115 0.950 . S
C1104 H1096 0.950 . S
C1104 C1105 1.386 . S
C1104 C1106 1.391 . S
C1105 C1104 1.386 . S
C1105 C1109 1.393 . S
C1106 H1098 0.950 . S
C1106 C1104 1.391 . S
C1106 C1107 1.400 . S
C1107 C1106 1.400 . S
C1107 C1108 1.398 . S
C1107 C1113 1.491 . S
C1108 H1099 0.950 . S
C1108 C1107 1.398 . S
C1108 C1109 1.391 . S
C1109 H1097 0.950 . S
C1109 C1105 1.393 . S
C1109 C1108 1.391 . S
C1110 H1100 0.950 . S
C1110 C1111 1.386 . S
C1110 C1112 1.391 . S
C1111 C1110 1.386 . S
C1111 C1115 1.393 . S
C1112 H1101 0.950 . S
C1112 C1110 1.391 . S
C1112 C1113 1.400 . S
C1113 C1107 1.491 . S
C1113 C1112 1.400 . S
C1113 C1114 1.398 . S
C1114 H1102 0.950 . S
C1114 C1113 1.398 . S
C1114 C1115 1.391 . S
C1115 H1103 0.950 . S
C1115 C1111 1.393 . S
C1115 C1114 1.391 . S
H1116 C1124 0.950 . S
H1117 C1129 0.950 . S
H1118 C1126 0.950 . S
H1119 C1128 0.950 . S
H1120 C1130 0.950 . S
H1121 C1132 0.950 . S
H1122 C1134 0.950 . S
H1123 C1135 0.950 . S
C1124 H1116 0.950 . S
C1124 C1125 1.386 . S
C1124 C1126 1.391 . S
C1125 C1124 1.386 . S
C1125 C1129 1.393 1_554 S
C1126 H1118 0.950 . S
C1126 C1124 1.391 . S
C1126 C1127 1.400 . S
C1127 C1126 1.400 . S
C1127 C1128 1.398 1_554 S
C1127 C1133 1.491 1_544 S
C1128 H1119 0.950 . S
C1128 C1127 1.398 1_556 S
C1128 C1129 1.391 . S
C1129 H1117 0.950 . S
C1129 C1125 1.393 1_556 S
C1129 C1128 1.391 . S
C1130 H1120 0.950 . S
C1130 C1131 1.386 . S
C1130 C1132 1.391 . S
C1131 C1130 1.386 . S
C1131 C1135 1.393 1_556 S
C1132 H1121 0.950 . S
C1132 C1130 1.391 . S
C1132 C1133 1.400 . S
C1133 C1127 1.491 1_566 S
C1133 C1132 1.400 . S
C1133 C1134 1.398 1_556 S
C1134 H1122 0.950 . S
C1134 C1133 1.398 1_554 S
C1134 C1135 1.391 . S
C1135 H1123 0.950 . S
C1135 C1131 1.393 1_554 S
C1135 C1134 1.391 . S
H1136 C1144 0.950 . S
H1137 C1149 0.950 . S
H1138 C1146 0.950 . S
H1139 C1148 0.950 . S
H1140 C1150 0.950 . S
H1141 C1152 0.950 . S
H1142 C1154 0.950 . S
H1143 C1155 0.950 . S
C1144 H1136 0.950 . S
C1144 C1145 1.386 . S
C1144 C1146 1.391 . S
C1145 C1144 1.386 . S
C1145 C1149 1.393 . S
C1146 H1138 0.950 . S
C1146 C1144 1.391 . S
C1146 C1147 1.400 . S
C1147 C1146 1.400 . S
C1147 C1148 1.398 . S
C1147 C1153 1.491 . S
C1148 H1139 0.950 . S
C1148 C1147 1.398 . S
C1148 C1149 1.391 . S
C1149 H1137 0.950 . S
C1149 C1145 1.393 . S
C1149 C1148 1.391 . S
C1150 H1140 0.950 . S
C1150 C1151 1.386 . S
C1150 C1152 1.391 . S
C1151 C1150 1.386 . S
C1151 C1155 1.393 . S
C1152 H1141 0.950 . S
C1152 C1150 1.391 . S
C1152 C1153 1.400 . S
C1153 C1147 1.491 . S
C1153 C1152 1.400 . S
C1153 C1154 1.398 . S
C1154 H1142 0.950 . S
C1154 C1153 1.398 . S
C1154 C1155 1.391 . S
C1155 H1143 0.950 . S
C1155 C1151 1.393 . S
C1155 C1154 1.391 . S
H1156 C1164 0.950 . S
H1157 C1169 0.950 . S
H1158 C1166 0.950 . S
H1159 C1168 0.950 1_545 S
H1160 C1170 0.950 . S
H1161 C1172 0.950 . S
H1162 C1174 0.950 1_565 S
H1163 C1175 0.950 . S
C1164 H1156 0.950 . S
C1164 C1165 1.386 . S
C1164 C1166 1.391 . S
C1165 C1164 1.386 . S
C1165 C1169 1.393 . S
C1166 H1158 0.950 . S
C1166 C1164 1.391 . S
C1166 C1167 1.400 . S
C1167 C1166 1.400 . S
C1167 C1168 1.398 . S
C1167 C1173 1.491 1_565 S
C1168 H1159 0.950 1_565 S
C1168 C1167 1.398 . S
C1168 C1169 1.391 . S
C1169 H1157 0.950 . S
C1169 C1165 1.393 . S
C1169 C1168 1.391 . S
C1170 H1160 0.950 . S
C1170 C1171 1.386 . S
C1170 C1172 1.391 . S
C1171 C1170 1.386 . S
C1171 C1175 1.393 . S
C1172 H1161 0.950 . S
C1172 C1170 1.391 . S
C1172 C1173 1.400 . S
C1173 C1167 1.491 1_545 S
C1173 C1172 1.400 . S
C1173 C1174 1.398 . S
C1174 H1162 0.950 1_545 S
C1174 C1173 1.398 . S
C1174 C1175 1.391 . S
C1175 H1163 0.950 . S
C1175 C1171 1.393 . S
C1175 C1174 1.391 . S
H1176 C1184 0.950 . S
H1177 C1189 0.950 . S
H1178 C1186 0.950 . S
H1179 C1188 0.950 . S
H1180 C1190 0.950 . S
H1181 C1192 0.950 . S
H1182 C1194 0.950 . S
H1183 C1195 0.950 . S
C1184 H1176 0.950 . S
C1184 C1185 1.386 . S
C1184 C1186 1.391 . S
C1185 C1184 1.386 . S
C1185 C1189 1.393 . S
C1186 H1178 0.950 . S
C1186 C1184 1.391 . S
C1186 C1187 1.400 . S
C1187 C1186 1.400 . S
C1187 C1188 1.398 . S
C1187 C1193 1.491 . S
C1188 H1179 0.950 . S
C1188 C1187 1.398 . S
C1188 C1189 1.391 . S
C1189 H1177 0.950 . S
C1189 C1185 1.393 . S
C1189 C1188 1.391 . S
C1190 H1180 0.950 . S
C1190 C1191 1.386 . S
C1190 C1192 1.391 . S
C1191 C1190 1.386 . S
C1191 C1195 1.393 . S
C1192 H1181 0.950 . S
C1192 C1190 1.391 . S
C1192 C1193 1.400 . S
C1193 C1187 1.491 . S
C1193 C1192 1.400 . S
C1193 C1194 1.398 . S
C1194 H1182 0.950 . S
C1194 C1193 1.398 . S
C1194 C1195 1.391 . S
C1195 H1183 0.950 . S
C1195 C1191 1.393 . S
C1195 C1194 1.391 . S
H1196 C1204 0.950 . S
H1197 C1209 0.950 . S
H1198 C1206 0.950 . S
H1199 C1208 0.950 . S
H1200 C1210 0.950 . S
H1201 C1212 0.950 . S
H1202 C1214 0.950 . S
H1203 C1215 0.950 . S
C1204 H1196 0.950 . S
C1204 C1205 1.386 . S
C1204 C1206 1.391 . S
C1205 C1204 1.386 . S
C1205 C1209 1.393 1_556 S
C1206 H1198 0.950 . S
C1206 C1204 1.391 . S
C1206 C1207 1.400 . S
C1207 C1206 1.400 . S
C1207 C1208 1.398 1_556 S
C1207 C1213 1.491 1_646 S
C1208 H1199 0.950 . S
C1208 C1207 1.398 1_554 S
C1208 C1209 1.391 . S
C1209 H1197 0.950 . S
C1209 C1205 1.393 1_554 S
C1209 C1208 1.391 . S
C1210 H1200 0.950 . S
C1210 C1211 1.386 . S
C1210 C1212 1.391 . S
C1211 C1210 1.386 . S
C1211 C1215 1.393 1_554 S
C1212 H1201 0.950 . S
C1212 C1210 1.391 . S
C1212 C1213 1.400 . S
C1213 C1207 1.491 1_464 S
C1213 C1212 1.400 . S
C1213 C1214 1.398 1_554 S
C1214 H1202 0.950 . S
C1214 C1213 1.398 1_556 S
C1214 C1215 1.391 . S
C1215 H1203 0.950 . S
C1215 C1211 1.393 1_556 S
C1215 C1214 1.391 . S
H1216 C1224 0.950 . S
H1217 C1229 0.950 . S
H1218 C1226 0.950 . S
H1219 C1228 0.950 . S
H1220 C1230 0.950 . S
H1221 C1232 0.950 . S
H1222 C1234 0.950 . S
H1223 C1235 0.950 . S
C1224 H1216 0.950 . S
C1224 C1225 1.386 . S
C1224 C1226 1.391 . S
C1225 C1224 1.386 . S
C1225 C1229 1.393 . S
C1226 H1218 0.950 . S
C1226 C1224 1.391 . S
C1226 C1227 1.400 . S
C1227 C1226 1.400 . S
C1227 C1228 1.398 . S
C1227 C1233 1.491 . S
C1228 H1219 0.950 . S
C1228 C1227 1.398 . S
C1228 C1229 1.391 . S
C1229 H1217 0.950 . S
C1229 C1225 1.393 . S
C1229 C1228 1.391 . S
C1230 H1220 0.950 . S
C1230 C1231 1.386 . S
C1230 C1232 1.391 . S
C1231 C1230 1.386 . S
C1231 C1235 1.393 . S
C1232 H1221 0.950 . S
C1232 C1230 1.391 . S
C1232 C1233 1.400 . S
C1233 C1227 1.491 . S
C1233 C1232 1.400 . S
C1233 C1234 1.398 . S
C1234 H1222 0.950 . S
C1234 C1233 1.398 . S
C1234 C1235 1.391 . S
C1235 H1223 0.950 . S
C1235 C1231 1.393 . S
C1235 C1234 1.391 . S
H1236 C1244 0.950 . S
H1237 C1249 0.950 . S
H1238 C1246 0.950 . S
H1239 C1248 0.950 . S
H1240 C1250 0.950 . S
H1241 C1252 0.950 . S
H1242 C1254 0.950 . S
H1243 C1255 0.950 . S
C1244 H1236 0.950 . S
C1244 C1245 1.386 . S
C1244 C1246 1.391 . S
C1245 C1244 1.386 . S
C1245 C1249 1.393 . S
C1246 H1238 0.950 . S
C1246 C1244 1.391 . S
C1246 C1247 1.400 . S
C1247 C1246 1.400 . S
C1247 C1248 1.398 . S
C1247 C1253 1.491 . S
C1248 H1239 0.950 . S
C1248 C1247 1.398 . S
C1248 C1249 1.391 . S
C1249 H1237 0.950 . S
C1249 C1245 1.393 . S
C1249 C1248 1.391 . S
C1250 H1240 0.950 . S
C1250 C1251 1.386 . S
C1250 C1252 1.391 . S
C1251 C1250 1.386 . S
C1251 C1255 1.393 . S
C1252 H1241 0.950 . S
C1252 C1250 1.391 . S
C1252 C1253 1.400 . S
C1253 C1247 1.491 . S
C1253 C1252 1.400 . S
C1253 C1254 1.398 . S
C1254 H1242 0.950 . S
C1254 C1253 1.398 . S
C1254 C1255 1.391 . S
C1255 H1243 0.950 . S
C1255 C1251 1.393 . S
C1255 C1254 1.391 . S
H1256 C1264 0.950 . S
H1257 C1269 0.950 . S
H1258 C1266 0.950 . S
H1259 C1268 0.950 . S
H1260 C1270 0.950 . S
H1261 C1272 0.950 . S
H1262 C1274 0.950 . S
H1263 C1275 0.950 . S
C1264 H1256 0.950 . S
C1264 C1265 1.386 . S
C1264 C1266 1.391 . S
C1265 C1264 1.386 . S
C1265 C1269 1.393 . S
C1266 H1258 0.950 . S
C1266 C1264 1.391 . S
C1266 C1267 1.400 . S
C1267 C1266 1.400 . S
C1267 C1268 1.398 . S
C1267 C1273 1.491 . S
C1268 H1259 0.950 . S
C1268 C1267 1.398 . S
C1268 C1269 1.391 . S
C1269 H1257 0.950 . S
C1269 C1265 1.393 . S
C1269 C1268 1.391 . S
C1270 H1260 0.950 . S
C1270 C1271 1.386 . S
C1270 C1272 1.391 . S
C1271 C1270 1.386 . S
C1271 C1275 1.393 . S
C1272 H1261 0.950 . S
C1272 C1270 1.391 . S
C1272 C1273 1.400 . S
C1273 C1267 1.491 . S
C1273 C1272 1.400 . S
C1273 C1274 1.398 . S
C1274 H1262 0.950 . S
C1274 C1273 1.398 . S
C1274 C1275 1.391 . S
C1275 H1263 0.950 . S
C1275 C1271 1.393 . S
C1275 C1274 1.391 . S
H1276 C1284 0.950 . S
H1277 C1289 0.950 . S
H1278 C1286 0.950 . S
H1279 C1288 0.950 . S
H1280 C1290 0.950 . S
H1281 C1292 0.950 . S
H1282 C1294 0.950 . S
H1283 C1295 0.950 . S
C1284 H1276 0.950 . S
C1284 C1285 1.386 . S
C1284 C1286 1.391 . S
C1285 C1284 1.386 . S
C1285 C1289 1.393 . S
C1286 H1278 0.950 . S
C1286 C1284 1.391 . S
C1286 C1287 1.400 . S
C1287 C1286 1.400 . S
C1287 C1288 1.398 . S
C1287 C1293 1.491 . S
C1288 H1279 0.950 . S
C1288 C1287 1.398 . S
C1288 C1289 1.391 . S
C1289 H1277 0.950 . S
C1289 C1285 1.393 . S
C1289 C1288 1.391 . S
C1290 H1280 0.950 . S
C1290 C1291 1.386 . S
C1290 C1292 1.391 . S
C1291 C1290 1.386 . S
C1291 C1295 1.393 . S
C1292 H1281 0.950 . S
C1292 C1290 1.391 . S
C1292 C1293 1.400 . S
C1293 C1287 1.491 . S
C1293 C1292 1.400 . S
C1293 C1294 1.398 . S
C1294 H1282 0.950 . S
C1294 C1293 1.398 . S
C1294 C1295 1.391 . S
C1295 H1283 0.950 . S
C1295 C1291 1.393 . S
C1295 C1294 1.391 . S
H1296 C1304 0.950 . S
H1297 C1309 0.950 . S
H1298 C1306 0.950 1_556 S
H1299 C1308 0.950 . S
H1300 C1310 0.950 . S
H1301 C1312 0.950 1_554 S
H1302 C1314 0.950 . S
H1303 C1315 0.950 . S
C1304 H1296 0.950 . S
C1304 C1305 1.386 . S
C1304 C1306 1.391 . S
C1305 C1304 1.386 . S
C1305 C1309 1.393 . S
C1306 H1298 0.950 1_554 S
C1306 C1304 1.391 . S
C1306 C1307 1.400 . S
C1307 C1306 1.400 . S
C1307 C1308 1.398 . S
C1307 C1313 1.491 1_554 S
C1308 H1299 0.950 . S
C1308 C1307 1.398 . S
C1308 C1309 1.391 . S
C1309 H1297 0.950 . S
C1309 C1305 1.393 . S
C1309 C1308 1.391 . S
C1310 H1300 0.950 . S
C1310 C1311 1.386 . S
C1310 C1312 1.391 . S
C1311 C1310 1.386 . S
C1311 C1315 1.393 . S
C1312 H1301 0.950 1_556 S
C1312 C1310 1.391 . S
C1312 C1313 1.400 . S
C1313 C1307 1.491 1_556 S
C1313 C1312 1.400 . S
C1313 C1314 1.398 . S
C1314 H1302 0.950 . S
C1314 C1313 1.398 . S
C1314 C1315 1.391 . S
C1315 H1303 0.950 . S
C1315 C1311 1.393 . S
C1315 C1314 1.391 . S
H1316 C1324 0.950 . S
H1317 C1329 0.950 . S
H1318 C1326 0.993 . S
H1319 C1328 0.950 . S
H1320 C1330 0.950 . S
H1321 C1332 0.993 . S
H1322 C1334 0.950 . S
H1323 C1335 0.950 . S
C1324 H1316 0.950 . S
C1324 C1325 1.386 . S
C1324 C1326 1.365 1_655 S
C1325 C1324 1.386 . S
C1325 C1329 1.393 . S
C1326 H1318 0.993 . S
C1326 C1324 1.365 1_455 S
C1326 C1327 1.385 1_455 S
C1327 C1326 1.385 1_655 S
C1327 C1328 1.398 . S
C1327 C1333 1.491 1_655 S
C1328 H1319 0.950 . S
C1328 C1327 1.398 . S
C1328 C1329 1.391 . S
C1329 H1317 0.950 . S
C1329 C1325 1.393 . S
C1329 C1328 1.391 . S
C1330 H1320 0.950 . S
C1330 C1331 1.386 . S
C1330 C1332 1.365 1_455 S
C1331 C1330 1.386 . S
C1331 C1335 1.393 . S
C1332 H1321 0.993 . S
C1332 C1330 1.365 1_655 S
C1332 C1333 1.385 1_655 S
C1333 C1327 1.491 1_455 S
C1333 C1332 1.385 1_455 S
C1333 C1334 1.398 . S
C1334 H1322 0.950 . S
C1334 C1333 1.398 . S
C1334 C1335 1.391 . S
C1335 H1323 0.950 . S
C1335 C1331 1.393 . S
C1335 C1334 1.391 . S
H1336 C1344 0.950 . S
H1337 C1349 0.949 1_554 S
H1338 C1346 0.950 . S
H1339 C1348 0.950 . S
H1340 C1350 0.950 . S
H1341 C1352 0.950 . S
H1342 C1354 0.950 . S
H1343 C1355 0.949 1_556 S
C1344 H1336 0.950 . S
C1344 C1345 1.386 . S
C1344 C1346 1.391 1_455 S
C1345 C1344 1.386 . S
C1345 C1349 1.394 . S
C1346 H1338 0.950 . S
C1346 C1344 1.391 1_655 S
C1346 C1347 1.400 1_655 S
C1347 C1346 1.400 1_455 S
C1347 C1348 1.398 1_556 S
C1347 C1353 1.491 1_456 S
C1348 H1339 0.950 . S
C1348 C1347 1.398 1_554 S
C1348 C1349 1.390 1_554 S
C1349 H1337 0.949 1_556 S
C1349 C1345 1.394 . S
C1349 C1348 1.390 1_556 S
C1350 H1340 0.950 . S
C1350 C1351 1.386 . S
C1350 C1352 1.391 1_655 S
C1351 C1350 1.386 . S
C1351 C1355 1.394 . S
C1352 H1341 0.950 . S
C1352 C1350 1.391 1_455 S
C1352 C1353 1.400 1_455 S
C1353 C1347 1.491 1_654 S
C1353 C1352 1.400 1_655 S
C1353 C1354 1.398 1_554 S
C1354 H1342 0.950 . S
C1354 C1353 1.398 1_556 S
C1354 C1355 1.390 1_556 S
C1355 H1343 0.949 1_554 S
C1355 C1351 1.394 . S
C1355 C1354 1.390 1_554 S
H1356 C1364 0.950 . S
H1357 C1369 0.950 . S
H1358 C1366 0.950 . S
H1359 C1368 0.950 . S
H1360 C1370 0.950 . S
H1361 C1372 0.950 . S
H1362 C1374 0.950 . S
H1363 C1375 0.950 . S
C1364 H1356 0.950 . S
C1364 C1365 1.386 . S
C1364 C1366 1.391 . S
C1365 C1364 1.386 . S
C1365 C1369 1.393 . S
C1366 H1358 0.950 . S
C1366 C1364 1.391 . S
C1366 C1367 1.400 . S
C1367 C1366 1.400 . S
C1367 C1368 1.398 . S
C1367 C1373 1.491 . S
C1368 H1359 0.950 . S
C1368 C1367 1.398 . S
C1368 C1369 1.391 . S
C1369 H1357 0.950 . S
C1369 C1365 1.393 . S
C1369 C1368 1.391 . S
C1370 H1360 0.950 . S
C1370 C1371 1.386 . S
C1370 C1372 1.391 . S
C1371 C1370 1.386 . S
C1371 C1375 1.393 . S
C1372 H1361 0.950 . S
C1372 C1370 1.391 . S
C1372 C1373 1.400 . S
C1373 C1367 1.491 . S
C1373 C1372 1.400 . S
C1373 C1374 1.398 . S
C1374 H1362 0.950 . S
C1374 C1373 1.398 . S
C1374 C1375 1.391 . S
C1375 H1363 0.950 . S
C1375 C1371 1.393 . S
C1375 C1374 1.391 . S
H1376 C1384 0.950 . S
H1377 C1389 0.950 . S
H1378 C1386 0.950 . S
H1379 C1388 0.950 . S
H1380 C1390 0.950 . S
H1381 C1392 0.950 . S
H1382 C1394 0.950 . S
H1383 C1395 0.950 . S
C1384 H1376 0.950 . S
C1384 C1385 1.386 . S
C1384 C1386 1.391 . S
C1385 C1384 1.386 . S
C1385 C1389 1.393 . S
C1386 H1378 0.950 . S
C1386 C1384 1.391 . S
C1386 C1387 1.400 . S
C1387 C1386 1.400 . S
C1387 C1388 1.398 . S
C1387 C1393 1.491 . S
C1388 H1379 0.950 . S
C1388 C1387 1.398 . S
C1388 C1389 1.391 . S
C1389 H1377 0.950 . S
C1389 C1385 1.393 . S
C1389 C1388 1.391 . S
C1390 H1380 0.950 . S
C1390 C1391 1.386 . S
C1390 C1392 1.391 . S
C1391 C1390 1.386 . S
C1391 C1395 1.393 . S
C1392 H1381 0.950 . S
C1392 C1390 1.391 . S
C1392 C1393 1.400 . S
C1393 C1387 1.491 . S
C1393 C1392 1.400 . S
C1393 C1394 1.398 . S
C1394 H1382 0.950 . S
C1394 C1393 1.398 . S
C1394 C1395 1.391 . S
C1395 H1383 0.950 . S
C1395 C1391 1.393 . S
C1395 C1394 1.391 . S
H1396 C1404 0.950 . S
H1397 C1409 0.950 . S
H1398 C1406 0.950 . S
H1399 C1408 0.950 . S
H1400 C1410 0.950 . S
H1401 C1412 0.950 . S
H1402 C1414 0.950 . S
H1403 C1415 0.950 . S
C1404 H1396 0.950 . S
C1404 C1405 1.386 . S
C1404 C1406 1.391 . S
C1405 C1404 1.386 . S
C1405 C1409 1.393 . S
C1406 H1398 0.950 . S
C1406 C1404 1.391 . S
C1406 C1407 1.400 . S
C1407 C1406 1.400 . S
C1407 C1408 1.398 . S
C1407 C1413 1.491 . S
C1408 H1399 0.950 . S
C1408 C1407 1.398 . S
C1408 C1409 1.391 . S
C1409 H1397 0.950 . S
C1409 C1405 1.393 . S
C1409 C1408 1.391 . S
C1410 H1400 0.950 . S
C1410 C1411 1.386 . S
C1410 C1412 1.391 . S
C1411 C1410 1.386 . S
C1411 C1415 1.393 . S
C1412 H1401 0.950 . S
C1412 C1410 1.391 . S
C1412 C1413 1.400 . S
C1413 C1407 1.491 . S
C1413 C1412 1.400 . S
C1413 C1414 1.398 . S
C1414 H1402 0.950 . S
C1414 C1413 1.398 . S
C1414 C1415 1.391 . S
C1415 H1403 0.950 . S
C1415 C1411 1.393 . S
C1415 C1414 1.391 . S
H1416 C1424 0.950 . S
H1417 C1429 0.950 . S
H1418 C1426 0.950 . S
H1419 C1428 0.950 . S
H1420 C1430 0.950 . S
H1421 C1432 0.950 . S
H1422 C1434 0.950 . S
H1423 C1435 0.950 . S
C1424 H1416 0.950 . S
C1424 C1425 1.386 . S
C1424 C1426 1.391 . S
C1425 C1424 1.386 . S
C1425 C1429 1.393 . S
C1426 H1418 0.950 . S
C1426 C1424 1.391 . S
C1426 C1427 1.400 . S
C1427 C1426 1.400 . S
C1427 C1428 1.398 . S
C1427 C1433 1.491 . S
C1428 H1419 0.950 . S
C1428 C1427 1.398 . S
C1428 C1429 1.391 . S
C1429 H1417 0.950 . S
C1429 C1425 1.393 . S
C1429 C1428 1.391 . S
C1430 H1420 0.950 . S
C1430 C1431 1.386 . S
C1430 C1432 1.391 . S
C1431 C1430 1.386 . S
C1431 C1435 1.393 . S
C1432 H1421 0.950 . S
C1432 C1430 1.391 . S
C1432 C1433 1.400 . S
C1433 C1427 1.491 . S
C1433 C1432 1.400 . S
C1433 C1434 1.398 . S
C1434 H1422 0.950 . S
C1434 C1433 1.398 . S
C1434 C1435 1.391 . S
C1435 H1423 0.950 . S
C1435 C1431 1.393 . S
C1435 C1434 1.391 . S
H1436 C1444 0.950 . S
H1437 C1449 0.950 . S
H1438 C1446 0.950 . S
H1439 C1448 0.950 . S
H1440 C1450 0.950 . S
H1441 C1452 0.950 . S
H1442 C1454 0.950 . S
H1443 C1455 0.950 . S
C1444 H1436 0.950 . S
C1444 C1445 1.386 . S
C1444 C1446 1.391 . S
C1445 C1444 1.386 . S
C1445 C1449 1.393 . S
C1446 H1438 0.950 . S
C1446 C1444 1.391 . S
C1446 C1447 1.400 . S
C1447 C1446 1.400 . S
C1447 C1448 1.398 . S
C1447 C1453 1.491 . S
C1448 H1439 0.950 . S
C1448 C1447 1.398 . S
C1448 C1449 1.391 . S
C1449 H1437 0.950 . S
C1449 C1445 1.393 . S
C1449 C1448 1.391 . S
C1450 H1440 0.950 . S
C1450 C1451 1.386 . S
C1450 C1452 1.391 . S
C1451 C1450 1.386 . S
C1451 C1455 1.393 . S
C1452 H1441 0.950 . S
C1452 C1450 1.391 . S
C1452 C1453 1.400 . S
C1453 C1447 1.491 . S
C1453 C1452 1.400 . S
C1453 C1454 1.398 . S
C1454 H1442 0.950 . S
C1454 C1453 1.398 . S
C1454 C1455 1.391 . S
C1455 H1443 0.950 . S
C1455 C1451 1.393 . S
C1455 C1454 1.391 . S
H1456 C1464 0.950 . S
H1457 C1469 0.950 . S
H1458 C1466 0.950 . S
H1459 C1468 0.950 . S
H1460 C1470 0.950 . S
H1461 C1472 0.950 . S
H1462 C1474 0.950 . S
H1463 C1475 0.950 . S
C1464 H1456 0.950 . S
C1464 C1465 1.386 . S
C1464 C1466 1.391 . S
C1465 C1464 1.386 . S
C1465 C1469 1.393 . S
C1466 H1458 0.950 . S
C1466 C1464 1.391 . S
C1466 C1467 1.400 . S
C1467 C1466 1.400 . S
C1467 C1468 1.398 . S
C1467 C1473 1.491 . S
C1468 H1459 0.950 . S
C1468 C1467 1.398 . S
C1468 C1469 1.391 . S
C1469 H1457 0.950 . S
C1469 C1465 1.393 . S
C1469 C1468 1.391 . S
C1470 H1460 0.950 . S
C1470 C1471 1.386 . S
C1470 C1472 1.391 . S
C1471 C1470 1.386 . S
C1471 C1475 1.393 . S
C1472 H1461 0.950 . S
C1472 C1470 1.391 . S
C1472 C1473 1.400 . S
C1473 C1467 1.491 . S
C1473 C1472 1.400 . S
C1473 C1474 1.398 . S
C1474 H1462 0.950 . S
C1474 C1473 1.398 . S
C1474 C1475 1.391 . S
C1475 H1463 0.950 . S
C1475 C1471 1.393 . S
C1475 C1474 1.391 . S
H1476 C1484 0.950 . S
H1477 C1489 0.950 . S
H1478 C1486 0.950 . S
H1479 C1488 0.950 . S
H1480 C1490 0.950 . S
H1481 C1492 0.950 . S
H1482 C1494 0.950 . S
H1483 C1495 0.950 . S
C1484 H1476 0.950 . S
C1484 C1485 1.386 . S
C1484 C1486 1.391 . S
C1485 C1484 1.386 . S
C1485 C1489 1.393 . S
C1486 H1478 0.950 . S
C1486 C1484 1.391 . S
C1486 C1487 1.400 . S
C1487 C1486 1.400 . S
C1487 C1488 1.398 . S
C1487 C1493 1.491 . S
C1488 H1479 0.950 . S
C1488 C1487 1.398 . S
C1488 C1489 1.391 . S
C1489 H1477 0.950 . S
C1489 C1485 1.393 . S
C1489 C1488 1.391 . S
C1490 H1480 0.950 . S
C1490 C1491 1.386 . S
C1490 C1492 1.391 . S
C1491 C1490 1.386 . S
C1491 C1495 1.393 . S
C1492 H1481 0.950 . S
C1492 C1490 1.391 . S
C1492 C1493 1.400 . S
C1493 C1487 1.491 . S
C1493 C1492 1.400 . S
C1493 C1494 1.398 . S
C1494 H1482 0.950 . S
C1494 C1493 1.398 . S
C1494 C1495 1.391 . S
C1495 H1483 0.950 . S
C1495 C1491 1.393 . S
C1495 C1494 1.391 . S
H1496 C1504 0.950 . S
H1497 C1509 0.950 . S
H1498 C1506 0.950 . S
H1499 C1508 0.950 . S
H1500 C1510 0.950 . S
H1501 C1512 0.950 . S
H1502 C1514 0.950 . S
H1503 C1515 0.950 . S
C1504 H1496 0.950 . S
C1504 C1505 1.386 . S
C1504 C1506 1.391 . S
C1505 C1504 1.386 . S
C1505 C1509 1.393 . S
C1506 H1498 0.950 . S
C1506 C1504 1.391 . S
C1506 C1507 1.400 . S
C1507 C1506 1.400 . S
C1507 C1508 1.398 . S
C1507 C1513 1.491 . S
C1508 H1499 0.950 . S
C1508 C1507 1.398 . S
C1508 C1509 1.391 . S
C1509 H1497 0.950 . S
C1509 C1505 1.393 . S
C1509 C1508 1.391 . S
C1510 H1500 0.950 . S
C1510 C1511 1.386 . S
C1510 C1512 1.391 . S
C1511 C1510 1.386 . S
C1511 C1515 1.393 . S
C1512 H1501 0.950 . S
C1512 C1510 1.391 . S
C1512 C1513 1.400 . S
C1513 C1507 1.491 . S
C1513 C1512 1.400 . S
C1513 C1514 1.398 . S
C1514 H1502 0.950 . S
C1514 C1513 1.398 . S
C1514 C1515 1.391 . S
C1515 H1503 0.950 . S
C1515 C1511 1.393 . S
C1515 C1514 1.391 . S
H1516 C1524 0.950 . S
H1517 C1529 0.950 . S
H1518 C1526 0.950 . S
H1519 C1528 0.950 . S
H1520 C1530 0.950 . S
H1521 C1532 0.950 . S
H1522 C1534 0.950 . S
H1523 C1535 0.950 . S
C1524 H1516 0.950 . S
C1524 C1525 1.386 . S
C1524 C1526 1.391 . S
C1525 C1524 1.386 . S
C1525 C1529 1.393 . S
C1526 H1518 0.950 . S
C1526 C1524 1.391 . S
C1526 C1527 1.400 . S
C1527 C1526 1.400 . S
C1527 C1528 1.398 . S
C1527 C1533 1.491 . S
C1528 H1519 0.950 . S
C1528 C1527 1.398 . S
C1528 C1529 1.391 . S
C1529 H1517 0.950 . S
C1529 C1525 1.393 . S
C1529 C1528 1.391 . S
C1530 H1520 0.950 . S
C1530 C1531 1.386 . S
C1530 C1532 1.391 . S
C1531 C1530 1.386 . S
C1531 C1535 1.393 . S
C1532 H1521 0.950 . S
C1532 C1530 1.391 . S
C1532 C1533 1.400 . S
C1533 C1527 1.491 . S
C1533 C1532 1.400 . S
C1533 C1534 1.398 . S
C1534 H1522 0.950 . S
C1534 C1533 1.398 . S
C1534 C1535 1.391 . S
C1535 H1523 0.950 . S
C1535 C1531 1.393 . S
C1535 C1534 1.391 . S
H1536 C1544 0.950 . S
H1537 C1549 0.950 . S
H1538 C1546 0.950 . S
H1539 C1548 0.950 . S
H1540 C1550 0.950 . S
H1541 C1552 0.950 . S
H1542 C1554 0.950 . S
H1543 C1555 0.950 . S
C1544 H1536 0.950 . S
C1544 C1545 1.386 . S
C1544 C1546 1.391 . S
C1545 C1544 1.386 . S
C1545 C1549 1.393 . S
C1546 H1538 0.950 . S
C1546 C1544 1.391 . S
C1546 C1547 1.400 . S
C1547 C1546 1.400 . S
C1547 C1548 1.398 . S
C1547 C1553 1.491 . S
C1548 H1539 0.950 . S
C1548 C1547 1.398 . S
C1548 C1549 1.391 . S
C1549 H1537 0.950 . S
C1549 C1545 1.393 . S
C1549 C1548 1.391 . S
C1550 H1540 0.950 . S
C1550 C1551 1.386 . S
C1550 C1552 1.391 . S
C1551 C1550 1.386 . S
C1551 C1555 1.393 . S
C1552 H1541 0.950 . S
C1552 C1550 1.391 . S
C1552 C1553 1.400 . S
C1553 C1547 1.491 . S
C1553 C1552 1.400 . S
C1553 C1554 1.398 . S
C1554 H1542 0.950 . S
C1554 C1553 1.398 . S
C1554 C1555 1.391 . S
C1555 H1543 0.950 . S
C1555 C1551 1.393 . S
C1555 C1554 1.391 . S
H1556 C1564 0.950 . S
H1557 C1569 0.950 . S
H1558 C1566 0.950 . S
H1559 C1568 0.950 . S
H1560 C1570 0.950 . S
H1561 C1572 0.950 . S
H1562 C1574 0.950 . S
H1563 C1575 0.950 . S
C1564 H1556 0.950 . S
C1564 C1565 1.386 . S
C1564 C1566 1.391 . S
C1565 C1564 1.386 . S
C1565 C1569 1.393 . S
C1566 H1558 0.950 . S
C1566 C1564 1.391 . S
C1566 C1567 1.400 . S
C1567 C1566 1.400 . S
C1567 C1568 1.398 . S
C1567 C1573 1.491 . S
C1568 H1559 0.950 . S
C1568 C1567 1.398 . S
C1568 C1569 1.391 . S
C1569 H1557 0.950 . S
C1569 C1565 1.393 . S
C1569 C1568 1.391 . S
C1570 H1560 0.950 . S
C1570 C1571 1.386 . S
C1570 C1572 1.391 . S
C1571 C1570 1.386 . S
C1571 C1575 1.393 . S
C1572 H1561 0.950 . S
C1572 C1570 1.391 . S
C1572 C1573 1.400 . S
C1573 C1567 1.491 . S
C1573 C1572 1.400 . S
C1573 C1574 1.398 . S
C1574 H1562 0.950 . S
C1574 C1573 1.398 . S
C1574 C1575 1.391 . S
C1575 H1563 0.950 . S
C1575 C1571 1.393 . S
C1575 C1574 1.391 . S
H1576 C1584 0.950 . S
H1577 C1589 0.950 . S
H1578 C1586 0.950 . S
H1579 C1588 0.950 . S
H1580 C1590 0.950 . S
H1581 C1592 0.950 . S
H1582 C1594 0.950 . S
H1583 C1595 0.950 . S
C1584 H1576 0.950 . S
C1584 C1585 1.386 . S
C1584 C1586 1.391 . S
C1585 C1584 1.386 . S
C1585 C1589 1.393 . S
C1586 H1578 0.950 . S
C1586 C1584 1.391 . S
C1586 C1587 1.400 . S
C1587 C1586 1.400 . S
C1587 C1588 1.398 . S
C1587 C1593 1.491 . S
C1588 H1579 0.950 . S
C1588 C1587 1.398 . S
C1588 C1589 1.391 . S
C1589 H1577 0.950 . S
C1589 C1585 1.393 . S
C1589 C1588 1.391 . S
C1590 H1580 0.950 . S
C1590 C1591 1.386 . S
C1590 C1592 1.391 . S
C1591 C1590 1.386 . S
C1591 C1595 1.393 . S
C1592 H1581 0.950 . S
C1592 C1590 1.391 . S
C1592 C1593 1.400 . S
C1593 C1587 1.491 . S
C1593 C1592 1.400 . S
C1593 C1594 1.398 . S
C1594 H1582 0.950 . S
C1594 C1593 1.398 . S
C1594 C1595 1.391 . S
C1595 H1583 0.950 . S
C1595 C1591 1.393 . S
C1595 C1594 1.391 . S
H1596 C1604 0.950 . S
H1597 C1609 0.950 . S
H1598 C1606 0.950 . S
H1599 C1608 0.950 . S
H1600 C1610 0.950 . S
H1601 C1612 0.950 . S
H1602 C1614 0.950 . S
H1603 C1615 0.950 . S
C1604 H1596 0.950 . S
C1604 C1605 1.386 . S
C1604 C1606 1.391 . S
C1605 C1604 1.386 . S
C1605 C1609 1.393 . S
C1606 H1598 0.950 . S
C1606 C1604 1.391 . S
C1606 C1607 1.400 . S
C1607 C1606 1.400 . S
C1607 C1608 1.398 . S
C1607 C1613 1.491 . S
C1608 H1599 0.950 . S
C1608 C1607 1.398 . S
C1608 C1609 1.391 . S
C1609 H1597 0.950 . S
C1609 C1605 1.393 . S
C1609 C1608 1.391 . S
C1610 H1600 0.950 . S
C1610 C1611 1.386 . S
C1610 C1612 1.391 . S
C1611 C1610 1.386 . S
C1611 C1615 1.393 . S
C1612 H1601 0.950 . S
C1612 C1610 1.391 . S
C1612 C1613 1.400 . S
C1613 C1607 1.491 . S
C1613 C1612 1.400 . S
C1613 C1614 1.398 . S
C1614 H1602 0.950 . S
C1614 C1613 1.398 . S
C1614 C1615 1.391 . S
C1615 H1603 0.950 . S
C1615 C1611 1.393 . S
C1615 C1614 1.391 . S
H1616 C1624 0.950 . S
H1617 C1629 0.950 . S
H1618 C1626 0.950 . S
H1619 C1628 0.950 . S
H1620 C1630 0.950 . S
H1621 C1632 0.950 . S
H1622 C1634 0.950 . S
H1623 C1635 0.950 . S
C1624 H1616 0.950 . S
C1624 C1625 1.386 . S
C1624 C1626 1.391 . S
C1625 C1624 1.386 . S
C1625 C1629 1.393 . S
C1626 H1618 0.950 . S
C1626 C1624 1.391 . S
C1626 C1627 1.400 . S
C1627 C1626 1.400 . S
C1627 C1628 1.398 . S
C1627 C1633 1.491 . S
C1628 H1619 0.950 . S
C1628 C1627 1.398 . S
C1628 C1629 1.391 . S
C1629 H1617 0.950 . S
C1629 C1625 1.393 . S
C1629 C1628 1.391 . S
C1630 H1620 0.950 . S
C1630 C1631 1.386 . S
C1630 C1632 1.391 . S
C1631 C1630 1.386 . S
C1631 C1635 1.393 . S
C1632 H1621 0.950 . S
C1632 C1630 1.391 . S
C1632 C1633 1.400 . S
C1633 C1627 1.491 . S
C1633 C1632 1.400 . S
C1633 C1634 1.398 . S
C1634 H1622 0.950 . S
C1634 C1633 1.398 . S
C1634 C1635 1.391 . S
C1635 H1623 0.950 . S
C1635 C1631 1.393 . S
C1635 C1634 1.391 . S
H1636 C1644 0.950 . S
H1637 C1649 0.950 . S
H1638 C1646 0.950 . S
H1639 C1648 0.950 . S
H1640 C1650 0.950 . S
H1641 C1652 0.950 . S
H1642 C1654 0.950 . S
H1643 C1655 0.950 . S
C1644 H1636 0.950 . S
C1644 C1645 1.386 . S
C1644 C1646 1.391 . S
C1645 C1644 1.386 . S
C1645 C1649 1.393 . S
C1646 H1638 0.950 . S
C1646 C1644 1.391 . S
C1646 C1647 1.400 . S
C1647 C1646 1.400 . S
C1647 C1648 1.398 . S
C1647 C1653 1.491 . S
C1648 H1639 0.950 . S
C1648 C1647 1.398 . S
C1648 C1649 1.391 . S
C1649 H1637 0.950 . S
C1649 C1645 1.393 . S
C1649 C1648 1.391 . S
C1650 H1640 0.950 . S
C1650 C1651 1.386 . S
C1650 C1652 1.391 . S
C1651 C1650 1.386 . S
C1651 C1655 1.393 . S
C1652 H1641 0.950 . S
C1652 C1650 1.391 . S
C1652 C1653 1.400 . S
C1653 C1647 1.491 . S
C1653 C1652 1.400 . S
C1653 C1654 1.398 . S
C1654 H1642 0.950 . S
C1654 C1653 1.398 . S
C1654 C1655 1.391 . S
C1655 H1643 0.950 . S
C1655 C1651 1.393 . S
C1655 C1654 1.391 . S
H1656 C1664 0.950 . S
H1657 C1669 0.950 . S
H1658 C1666 0.950 . S
H1659 C1668 0.950 . S
H1660 C1670 0.950 . S
H1661 C1672 0.950 . S
H1662 C1674 0.950 . S
H1663 C1675 0.950 . S
C1664 H1656 0.950 . S
C1664 C1665 1.386 . S
C1664 C1666 1.391 . S
C1665 C1664 1.386 . S
C1665 C1669 1.393 . S
C1666 H1658 0.950 . S
C1666 C1664 1.391 . S
C1666 C1667 1.400 . S
C1667 C1666 1.400 . S
C1667 C1668 1.398 . S
C1667 C1673 1.491 . S
C1668 H1659 0.950 . S
C1668 C1667 1.398 . S
C1668 C1669 1.391 . S
C1669 H1657 0.950 . S
C1669 C1665 1.393 . S
C1669 C1668 1.391 . S
C1670 H1660 0.950 . S
C1670 C1671 1.386 . S
C1670 C1672 1.391 . S
C1671 C1670 1.386 . S
C1671 C1675 1.393 . S
C1672 H1661 0.950 . S
C1672 C1670 1.391 . S
C1672 C1673 1.400 . S
C1673 C1667 1.491 . S
C1673 C1672 1.400 . S
C1673 C1674 1.398 . S
C1674 H1662 0.950 . S
C1674 C1673 1.398 . S
C1674 C1675 1.391 . S
C1675 H1663 0.950 . S
C1675 C1671 1.393 . S
C1675 C1674 1.391 . S
H1676 C1684 0.950 . S
H1677 C1689 0.950 . S
H1678 C1686 0.950 . S
H1679 C1688 0.950 . S
H1680 C1690 0.950 . S
H1681 C1692 0.950 . S
H1682 C1694 0.950 . S
H1683 C1695 0.950 . S
C1684 H1676 0.950 . S
C1684 C1685 1.386 . S
C1684 C1686 1.391 . S
C1685 C1684 1.386 . S
C1685 C1689 1.393 . S
C1686 H1678 0.950 . S
C1686 C1684 1.391 . S
C1686 C1687 1.400 . S
C1687 C1686 1.400 . S
C1687 C1688 1.398 . S
C1687 C1693 1.491 . S
C1688 H1679 0.950 . S
C1688 C1687 1.398 . S
C1688 C1689 1.391 . S
C1689 H1677 0.950 . S
C1689 C1685 1.393 . S
C1689 C1688 1.391 . S
C1690 H1680 0.950 . S
C1690 C1691 1.386 . S
C1690 C1692 1.391 . S
C1691 C1690 1.386 . S
C1691 C1695 1.393 . S
C1692 H1681 0.950 . S
C1692 C1690 1.391 . S
C1692 C1693 1.400 . S
C1693 C1687 1.491 . S
C1693 C1692 1.400 . S
C1693 C1694 1.398 . S
C1694 H1682 0.950 . S
C1694 C1693 1.398 . S
C1694 C1695 1.391 . S
C1695 H1683 0.950 . S
C1695 C1691 1.393 . S
C1695 C1694 1.391 . S
C425 C122 1.076 . S
C431 C5 1.093 . S
C445 C16 1.114 . S
C451 C343 1.070 . S
C465 C146 1.058 . S
C471 C29 1.096 . S
C485 C317 1.080 . S
C491 C44 1.094 . S
C505 C57 1.095 . S
C511 C198 1.055 . S
C525 C369 1.081 . S
C531 C68 1.094 . S
C545 C81 1.096 . S
C551 C174 1.059 . S
C565 C395 1.051 . S
C571 C96 1.101 . S
C585 C18 1.049 . S
C591 C109 1.092 . S
C605 C120 1.122 . S
C611 C237 1.076 . S
C625 C42 1.082 . S
C631 C135 1.095 . S
C645 C148 1.096 . S
C651 C213 1.080 . S
C665 C159 1.092 . S
C671 C94 1.074 . S
C685 C265 1.069 . S
C691 C172 1.096 . S
C705 C187 1.093 . S
C711 C70 1.050 . S
C725 C289 1.062 . S
C731 C200 1.090 . S
C745 C330 1.068 . S
C751 C211 1.091 . S
C765 C133 1.082 . S
C771 C226 1.095 . S
C785 C239 1.093 . S
C791 C354 1.076 . S
C805 C107 1.064 . S
C811 C252 1.090 . S
C825 C408 1.065 . S
C831 C263 1.097 . S
C845 C276 1.110 . S
C851 C161 1.067 . S
C865 C380 1.054 . S
C871 C291 1.095 . S
C885 C185 1.049 . S
C891 C302 1.092 . S
C905 C224 1.050 . S
C911 C315 1.093 . S
C925 C328 1.090 . S
C931 C31 1.058 . S
C945 C341 1.097 . S
C951 C250 1.077 . S
C965 C356 1.105 . S
C971 C3 1.062 . S
C985 C304 1.059 . S
C991 C367 1.090 . S
C1005 C382 1.126 . S
C1011 C55 1.055 . S
C1025 C393 1.095 . S
C1031 C278 1.054 . S
C1045 C406 1.097 . S
C1051 C83 1.070 . S
C1065 C316 1.530 . S
C1071 C10 1.530 . S
C1085 C17 1.537 . S
C1091 C121 1.537 . S
C1105 C30 1.537 . S
C1111 C342 1.537 . S
C1125 C49 1.516 . S
C1131 C153 1.516 . S
C1145 C62 1.515 . S
C1151 C368 1.515 . S
C1165 C69 1.533 . S
C1171 C173 1.533 . S
C1185 C394 1.534 . S
C1191 C82 1.534 . S
C1205 C101 1.516 . S
C1211 C205 1.516 . S
C1225 C114 1.535 . S
C1231 C212 1.535 . S
C1245 C140 1.516 . S
C1251 C244 1.516 . S
C1265 C264 1.535 . S
C1271 C160 1.535 . S
C1285 C296 1.536 . S
C1291 C192 1.536 . S
C1305 C231 1.529 . S
C1311 C329 1.529 . S
C1325 C361 1.525 . S
C1331 C257 1.525 . S
C1345 C277 1.524 . S
C1351 C387 1.524 . S
C1365 C407 1.535 . S
C1371 C303 1.535 . S
C1385 C283 2.005 . S
C1391 C4 2.003 . S
C1405 C290 2.003 . S
C1411 C23 2.001 . S
C1425 C36 2.001 . S
C1431 C309 2.002 . S
C1445 C270 2.001 . S
C1451 C43 2.004 . S
C1465 C251 2.003 . S
C1471 C56 2.001 . S
C1485 C218 2.004 . S
C1491 C75 2.004 . S
C1505 C88 2.004 . S
C1511 C225 2.002 . S
C1525 C238 2.001 . S
C1531 C95 2.004 . S
C1545 C381 2.005 . S
C1551 C108 2.003 . S
C1565 C400 2.002 . S
C1571 C127 2.001 . S
C1585 C413 2.001 . S
C1591 C134 2.002 . S
C1605 C147 2.001 . S
C1611 C374 2.003 . S
C1625 C355 2.004 . S
C1631 C166 2.004 . S
C1645 C322 2.002 . S
C1651 C179 2.004 . S
C1665 C335 2.001 . S
C1671 C186 2.003 . S
C1685 C348 2.001 . S
C1691 C199 2.003 . S
