# Generated by pormake.
# Topology uon, (4)-cn, num edge types: 1
# Building blocks:
#     Node 0, Type 0, BuildingBlock: NAWXER_clean_sbu_0, # of connection points: 4
#     Node 1, Type 0, BuildingBlock: NAWXER_clean_sbu_0, # of connection points: 4
#     Node 2, Type 0, BuildingBlock: NAWXER_clean_sbu_0, # of connection points: 4
#     Node 3, Type 0, BuildingBlock: NAWXER_clean_sbu_0, # of connection points: 4
#     Node 4, Type 0, BuildingBlock: NAWXER_clean_sbu_0, # of connection points: 4
#     Node 5, Type 0, BuildingBlock: NAWXER_clean_sbu_0, # of connection points: 4
#     Edge 6, Type (0, 0), BuildingBlock: UVAHIK_clean_linker_0, # of connection points: 2
#     Edge 7, Type (0, 0), BuildingBlock: UVAHIK_clean_linker_0, # of connection points: 2
#     Edge 8, Type (0, 0), BuildingBlock: UVAHIK_clean_linker_0, # of connection points: 2
#     Edge 9, Type (0, 0), BuildingBlock: UVAHIK_clean_linker_0, # of connection points: 2
#     Edge 10, Type (0, 0), BuildingBlock: UVAHIK_clean_linker_0, # of connection points: 2
#     Edge 11, Type (0, 0), BuildingBlock: UVAHIK_clean_linker_0, # of connection points: 2
#     Edge 12, Type (0, 0), BuildingBlock: UVAHIK_clean_linker_0, # of connection points: 2
#     Edge 13, Type (0, 0), BuildingBlock: UVAHIK_clean_linker_0, # of connection points: 2
#     Edge 14, Type (0, 0), BuildingBlock: UVAHIK_clean_linker_0, # of connection points: 2
#     Edge 15, Type (0, 0), BuildingBlock: UVAHIK_clean_linker_0, # of connection points: 2
#     Edge 16, Type (0, 0), BuildingBlock: UVAHIK_clean_linker_0, # of connection points: 2
#     Edge 17, Type (0, 0), BuildingBlock: UVAHIK_clean_linker_0, # of connection points: 2
# Relax obj value: 0.135
# Max RMSD: 0.134
# Mean RMSD: 0.134
data_MOF--net-uon--node1-NAWXER_clean_sbu_0--edge1-UVAHIK_clean_linker_0
_symmetry_space_group_name_H-M    P1
_symmetry_Int_Tables_number       1
_symmetry_cell_setting            triclinic
loop_
_symmetry_equiv_pos_as_xyz
'x, y, z'
_cell_length_a     43.941752
_cell_length_b     43.977698
_cell_length_c     28.032301
_cell_angle_alpha  90.002348
_cell_angle_beta   90.062554
_cell_angle_gamma 119.85015
loop_
_atom_site_label
_atom_site_type_symbol
_atom_site_fract_x
_atom_site_fract_y
_atom_site_fract_z
_atom_type_partial_charge
C0 C 0.183 0.38702 0.0907 0.0
C1 C 0.28243 0.47302 0.99281 0.0
O2 O 0.21405 0.40601 0.10685 0.0
Zn3 Zn 0.2348 0.43188 0.04697 0.0
O4 O 0.17584 0.39087 0.04771 0.0
Zn5 Zn 0.19915 0.42094 0.98603 0.0
O6 O 0.19256 0.38359 0.94114 0.0
O7 O 0.2281 0.39051 1.0012 0.0
O8 O 0.25234 0.45782 0.97252 0.0
O9 O 0.28489 0.46656 0.03658 0.0
O10 O 0.21134 0.46341 0.04407 0.0
O11 O 0.17534 0.44907 0.9825 0.0
C12 C 0.21214 0.37436 0.9631 0.0
C13 C 0.18939 0.4678 0.01944 0.0
C14 C 0.82074 0.18506 0.41665 0.0
C15 C 0.84205 0.29554 0.34046 0.0
O16 O 0.84064 0.21531 0.43469 0.0
Zn17 Zn 0.83195 0.24234 0.38541 0.0
O18 O 0.80325 0.18219 0.37877 0.0
Zn19 Zn 0.79395 0.21243 0.32843 0.0
O20 O 0.81175 0.20143 0.27015 0.0
O21 O 0.85268 0.23018 0.32481 0.0
O22 O 0.81939 0.2671 0.32039 0.0
O23 O 0.85544 0.29426 0.38029 0.0
O24 O 0.77974 0.22757 0.40143 0.0
O25 O 0.74435 0.19863 0.34191 0.0
C26 C 0.8436 0.21523 0.28404 0.0
C27 C 0.74877 0.21117 0.38399 0.0
C28 C 0.64156 0.84621 0.62066 0.0
C29 C 0.55426 0.73823 0.70356 0.0
O30 O 0.62633 0.81589 0.60138 0.0
Zn31 Zn 0.59635 0.79014 0.65659 0.0
O32 O 0.63313 0.8499 0.663 0.0
Zn33 Zn 0.59973 0.82153 0.71973 0.0
O34 O 0.63447 0.82838 0.76943 0.0
O35 O 0.6349 0.7972 0.70784 0.0
O36 O 0.56568 0.76694 0.72673 0.0
O37 O 0.56427 0.7389 0.66065 0.0
O38 O 0.56032 0.80849 0.65698 0.0
O39 O 0.56764 0.84102 0.72065 0.0
C40 C 0.64727 0.81152 0.74834 0.0
C41 C 0.55167 0.82741 0.68167 0.0
C42 C 0.81579 0.64071 0.95568 0.0
C43 C 0.83659 0.55404 0.04099 0.0
O44 O 0.83418 0.62812 0.93873 0.0
Zn45 Zn 0.82633 0.59539 0.99188 0.0
O46 O 0.79985 0.62922 0.99543 0.0
Zn47 Zn 0.79174 0.59307 0.05044 0.0
O48 O 0.81328 0.62576 0.10465 0.0
O49 O 0.85098 0.63177 0.04817 0.0
O50 O 0.81578 0.56251 0.06111 0.0
O51 O 0.84821 0.56553 0.99928 0.0
O52 O 0.77293 0.5589 0.98132 0.0
O53 O 0.74114 0.5582 0.0424 0.0
C54 C 0.84456 0.6413 0.08827 0.0
C55 C 0.74296 0.54684 1.00124 0.0
C56 C 0.29091 0.81762 0.37168 0.0
C57 C 0.18044 0.80095 0.29984 0.0
O58 O 0.28965 0.83346 0.33425 0.0
Zn59 Zn 0.23781 0.81119 0.33051 0.0
O60 O 0.26247 0.79599 0.39278 0.0
Zn61 Zn 0.2077 0.77522 0.3892 0.0
O62 O 0.19028 0.72468 0.37844 0.0
O63 O 0.2217 0.75781 0.31831 0.0
O64 O 0.1777 0.78448 0.33863 0.0
O65 O 0.21057 0.81941 0.28074 0.0
O66 O 0.22848 0.83481 0.38973 0.0
O67 O 0.20018 0.79662 0.4471 0.0
C68 C 0.20398 0.72748 0.3374 0.0
C69 C 0.21465 0.82795 0.43122 0.0
C70 C 0.47143 0.2793 0.71652 0.0
C71 C 0.38474 0.16487 0.6464 0.0
O72 O 0.45858 0.2756 0.67471 0.0
Zn73 Zn 0.42886 0.22369 0.67565 0.0
O74 O 0.46375 0.25226 0.74177 0.0
Zn75 Zn 0.43382 0.19729 0.73948 0.0
O76 O 0.47006 0.18298 0.7367 0.0
O77 O 0.46565 0.20661 0.66945 0.0
O78 O 0.3974 0.16404 0.68723 0.0
O79 O 0.39536 0.19432 0.62567 0.0
O80 O 0.39362 0.21595 0.73195 0.0
O81 O 0.40206 0.18965 0.79357 0.0
C82 C 0.47927 0.1917 0.69346 0.0
C83 C 0.38539 0.20329 0.7741 0.0
C84 C 0.21573 0.33688 0.8973 0.0
C85 C 0.21826 0.34598 0.94577 0.0
C86 C 0.22729 0.31396 0.88153 0.0
C87 C 0.29047 0.2861 0.91691 0.0
H88 H 0.24652 0.21571 0.81825 0.0
C89 C 0.35677 0.20927 0.84896 0.0
C90 C 0.35767 0.207 0.79907 0.0
C91 C 0.33429 0.21933 0.87063 0.0
C92 C 0.25925 0.23538 0.84574 0.0
H93 H 0.23214 0.336 0.0161 0.0
H94 H 0.25167 0.29619 0.98883 0.0
H95 H 0.21745 0.24734 0.84675 0.0
H96 H 0.3339 0.21092 0.73313 0.0
H97 H 0.29562 0.22867 0.77034 0.0
H98 H 0.33282 0.27533 0.91494 0.0
C99 C 0.24177 0.30729 0.96273 0.0
C100 C 0.24255 0.25351 0.86198 0.0
C101 C 0.23041 0.33005 0.97834 0.0
C102 C 0.33411 0.21269 0.7717 0.0
C103 C 0.3118 0.22263 0.79316 0.0
C104 C 0.30726 0.26821 0.90049 0.0
C105 C 0.24145 0.29979 0.91403 0.0
C106 C 0.25812 0.27931 0.8975 0.0
C107 C 0.31223 0.22712 0.84279 0.0
C108 C 0.29215 0.2429 0.86423 0.0
H109 H 0.20655 0.34877 0.8714 0.0
H110 H 0.22672 0.3087 0.84371 0.0
H111 H 0.30349 0.30619 0.94384 0.0
H112 H 0.37461 0.20508 0.87098 0.0
H113 H 0.33493 0.22198 0.90907 0.0
C114 C 0.89521 0.20754 0.27531 0.0
C115 C 0.87185 0.21666 0.25425 0.0
C116 C 0.92854 0.21942 0.25607 0.0
C117 C 0.98641 0.26378 0.15219 0.0
H118 H 0.05939 0.30165 0.24892 0.0
C119 C 0.13101 0.32806 0.0987 0.0
C120 C 0.15376 0.36065 0.11968 0.0
C121 C 0.09777 0.30624 0.11774 0.0
C122 C 0.03938 0.29128 0.22146 0.0
H123 H 0.8642 0.24385 0.19531 0.0
H124 H 0.9226 0.26466 0.16114 0.0
H125 H 0.99791 0.27044 0.27279 0.0
H126 H 0.16042 0.39533 0.17839 0.0
H127 H 0.10197 0.3571 0.21212 0.0
H128 H 0.02783 0.28571 0.10087 0.0
C129 C 0.91502 0.24789 0.19227 0.0
C130 C 1.00406 0.27298 0.23509 0.0
C131 C 0.88141 0.23572 0.21148 0.0
C132 C 0.14361 0.37001 0.16213 0.0
C133 C 0.11003 0.34818 0.18114 0.0
C134 C 0.02172 0.28201 0.13857 0.0
C135 C 0.93951 0.24115 0.21561 0.0
C136 C 0.97708 0.25908 0.20064 0.0
C137 C 0.0862 0.31667 0.15796 0.0
C138 C 0.0487 0.29611 0.17301 0.0
H139 H 0.88854 0.19319 0.30867 0.0
H140 H 0.94634 0.21298 0.27431 0.0
H141 H 0.9664 0.2534 0.12473 0.0
H142 H 0.13822 0.32035 0.06577 0.0
H143 H 0.08055 0.2818 0.09969 0.0
C144 C 0.81484 0.14687 0.48735 0.0
C145 C 0.81616 0.1522 0.43783 0.0
C146 C 0.80283 0.11301 0.50569 0.0
C147 C 0.74362 0.02146 0.47027 0.0
H148 H 0.77893 0.99764 0.5824 0.0
C149 C 0.6728 0.88014 0.54621 0.0
C150 C 0.66866 0.87817 0.59599 0.0
C151 C 0.69599 0.91227 0.5243 0.0
C152 C 0.76857 1.00385 0.55114 0.0
H153 H 0.80905 0.12712 0.36887 0.0
H154 H 0.78882 0.06878 0.40065 0.0
H155 H 0.81029 0.05743 0.55126 0.0
H156 H 0.68715 0.90802 0.66184 0.0
H157 H 0.72632 0.96316 0.62416 0.0
H158 H 0.70122 0.96853 0.47096 0.0
C159 C 0.79603 0.09022 0.42541 0.0
C160 C 0.78661 0.03816 0.53337 0.0
C161 C 0.80783 0.12374 0.40725 0.0
C162 C 0.68933 0.90849 0.62332 0.0
C163 C 0.71228 0.94028 0.60165 0.0
C164 C 0.72543 0.9873 0.48824 0.0
C165 C 0.79208 0.08413 0.47473 0.0
C166 C 0.77416 0.04745 0.49296 0.0
C167 C 0.71556 0.94291 0.55182 0.0
C168 C 0.73733 0.9781 0.52935 0.0
H169 H 0.8209 0.16829 0.51168 0.0
H170 H 0.80008 0.10912 0.54394 0.0
H171 H 0.733 0.02784 0.43943 0.0
H172 H 0.65734 0.85727 0.52418 0.0
H173 H 0.69817 0.91322 0.4858 0.0
C174 C 0.80044 0.68798 0.958 0.0
C175 C 0.81129 0.66808 0.93103 0.0
C176 C 0.79076 0.71028 0.93594 0.0
C177 C 0.75569 0.72087 0.822 0.0
H178 H 0.76601 0.80462 0.8834 0.0
C179 C 0.6955 0.79791 0.7391 0.0
C180 C 0.67532 0.80635 0.76951 0.0
C181 C 0.71793 0.78694 0.7575 0.0
C182 C 0.76279 0.78122 0.86596 0.0
H183 H 0.82235 0.65757 0.85961 0.0
H184 H 0.80569 0.6972 0.82051 0.0
H185 H 0.79693 0.77581 0.91548 0.0
H186 H 0.6645 0.81188 0.84335 0.0
H187 H 0.70399 0.79247 0.87594 0.0
H188 H 0.7213 0.72603 0.77284 0.0
C189 C 0.80422 0.69498 0.85901 0.0
C190 C 0.78053 0.76467 0.88426 0.0
C191 C 0.81409 0.67253 0.88132 0.0
C192 C 0.67978 0.80566 0.81906 0.0
C193 C 0.70236 0.79451 0.83763 0.0
C194 C 0.73818 0.73753 0.80357 0.0
C195 C 0.79166 0.71353 0.88608 0.0
C196 C 0.77671 0.73388 0.86303 0.0
C197 C 0.72083 0.78397 0.80691 0.0
C198 C 0.74112 0.76764 0.82565 0.0
H199 H 0.79825 0.68545 0.99648 0.0
H200 H 0.78089 0.72363 0.9581 0.0
H201 H 0.7515 0.69692 0.80517 0.0
H202 H 0.69311 0.79867 0.7007 0.0
H203 H 0.73238 0.7799 0.73285 0.0
C204 C 0.8767 0.66941 0.16481 0.0
C205 C 0.87495 0.66898 0.1148 0.0
C206 C 0.90873 0.691 0.18813 0.0
C207 C 1.00177 0.76342 0.16737 0.0
H208 H 0.02246 0.71649 0.26858 0.0
C209 C 0.14319 0.79921 0.22965 0.0
C210 C 0.14761 0.79698 0.27894 0.0
C211 C 0.10977 0.78933 0.21096 0.0
C212 C 0.01705 0.7302 0.24071 0.0
H213 H 0.90452 0.69284 0.0503 0.0
H214 H 0.95969 0.72955 0.09028 0.0
H215 H 0.96339 0.68976 0.23626 0.0
H216 H 0.12117 0.78553 0.34747 0.0
H217 H 0.06374 0.76876 0.31516 0.0
H218 H 0.05615 0.8032 0.1709 0.0
C219 C 0.9368 0.71372 0.11202 0.0
C220 C 0.98299 0.71496 0.22235 0.0
C221 C 0.90504 0.69234 0.08894 0.0
C222 C 0.11861 0.78695 0.3092 0.0
C223 C 0.08556 0.77719 0.29072 0.0
C224 C 0.03602 0.77852 0.18548 0.0
C225 C 0.9395 0.71256 0.16183 0.0
C226 C 0.97486 0.7311 0.18505 0.0
C227 C 0.08041 0.77712 0.24134 0.0
C228 C 0.04408 0.76196 0.22219 0.0
H229 H 0.85399 0.65166 0.18567 0.0
H230 H 0.90963 0.68988 0.22666 0.0
H231 H 0.99649 0.77696 0.13914 0.0
H232 H 0.165 0.80678 0.20547 0.0
H233 H 0.10659 0.78957 0.17268 0.0
C234 C 0.34739 0.12812 0.57704 0.0
C235 C 0.35887 0.13084 0.62446 0.0
C236 C 0.32506 0.09504 0.55679 0.0
C237 C 0.26708 1.00006 0.58876 0.0
H238 H 0.28809 0.98404 0.46018 0.0
C239 C 0.22621 0.86236 0.50764 0.0
C240 C 0.21739 0.85784 0.45899 0.0
C241 C 0.23734 0.89499 0.52966 0.0
C242 C 0.28152 0.98812 0.49596 0.0
H243 H 0.35478 0.10076 0.6881 0.0
H244 H 0.31717 0.04409 0.65296 0.0
H245 H 0.31879 0.04297 0.49329 0.0
H246 H 0.21025 0.88262 0.39643 0.0
H247 H 0.22889 0.93878 0.43474 0.0
H248 H 0.23066 0.94472 0.59171 0.0
C249 C 0.32463 0.06713 0.63129 0.0
C250 C 0.29907 0.02204 0.5149 0.0
C251 C 0.34668 0.0999 0.65139 0.0
C252 C 0.21723 0.88545 0.43392 0.0
C253 C 0.22819 0.91775 0.45574 0.0
C254 C 0.24974 0.96601 0.56991 0.0
C255 C 0.31374 0.06405 0.58359 0.0
C256 C 0.29244 0.02849 0.56178 0.0
C257 C 0.23975 0.92343 0.50327 0.0
C258 C 0.25693 0.95961 0.52337 0.0
H259 H 0.35619 0.15138 0.55534 0.0
H260 H 0.31689 0.09374 0.52004 0.0
H261 H 0.26077 1.00402 0.62472 0.0
H262 H 0.22689 0.84164 0.52765 0.0
H263 H 0.24608 0.89856 0.56641 0.0
C264 C 0.2245 0.70232 0.27406 0.0
C265 C 0.19979 0.69678 0.30974 0.0
C266 C 0.21985 0.67528 0.24362 0.0
C267 C 0.15294 0.59194 0.19096 0.0
H268 H 0.23468 0.58581 0.1538 0.0
C269 C 0.15134 0.48355 0.06672 0.0
C270 C 0.18063 0.49408 0.03702 0.0
C271 C 0.14962 0.50759 0.09807 0.0
C272 C 0.21162 0.58742 0.16319 0.0
H273 H 0.15089 0.65801 0.3418 0.0
H274 H 0.14265 0.61012 0.28803 0.0
H275 H 0.23987 0.62645 0.21615 0.0
H276 H 0.23016 0.53801 0.01497 0.0
H277 H 0.22667 0.58025 0.06786 0.0
H278 H 0.12476 0.55262 0.13757 0.0
C279 C 0.16565 0.63576 0.28383 0.0
C280 C 0.21457 0.61064 0.19925 0.0
C281 C 0.17052 0.66302 0.31491 0.0
C282 C 0.20693 0.52944 0.03673 0.0
C283 C 0.20519 0.55344 0.06773 0.0
C284 C 0.14994 0.56847 0.15472 0.0
C285 C 0.19026 0.64171 0.24761 0.0
C286 C 0.18551 0.6138 0.21304 0.0
C287 C 0.17738 0.54248 0.10046 0.0
C288 C 0.17948 0.56648 0.13971 0.0
H289 H 0.24739 0.72795 0.269 0.0
H290 H 0.23913 0.68107 0.21588 0.0
H291 H 0.13007 0.59384 0.2005 0.0
H292 H 0.13128 0.45616 0.06868 0.0
H293 H 0.1279 0.4982 0.12283 0.0
C294 C 0.49719 0.17303 0.62036 0.0
C295 C 0.50414 0.18385 0.66826 0.0
C296 C 0.52242 0.17118 0.59229 0.0
C297 C 0.61739 0.21309 0.58046 0.0
H298 H 0.59641 0.14133 0.48509 0.0
C299 C 0.72609 0.2164 0.46334 0.0
C300 C 0.71911 0.20595 0.41521 0.0
C301 C 0.69926 0.21144 0.49438 0.0
C302 C 0.60262 0.16183 0.51106 0.0
H303 H 0.54251 0.20001 0.72497 0.0
H304 H 0.58731 0.19717 0.67546 0.0
H305 H 0.55108 0.13442 0.54166 0.0
H306 H 0.6779 0.18179 0.36226 0.0
H307 H 0.63063 0.17381 0.4166 0.0
H308 H 0.66841 0.24113 0.54933 0.0
C309 C 0.56207 0.19 0.6598 0.0
C310 C 0.5767 0.15773 0.54377 0.0
C311 C 0.53641 0.19131 0.68828 0.0
C312 C 0.68423 0.19023 0.399 0.0
C313 C 0.65715 0.18546 0.4303 0.0
C314 C 0.64315 0.21734 0.5476 0.0
C315 C 0.55556 0.18061 0.61115 0.0
C316 C 0.58378 0.18334 0.57887 0.0
C317 C 0.6644 0.19617 0.47845 0.0
C318 C 0.63623 0.19177 0.51244 0.0
H319 H 0.47248 0.16713 0.60401 0.0
H320 H 0.51656 0.16414 0.55503 0.0
H321 H 0.62349 0.23371 0.60624 0.0
H322 H 0.75247 0.22821 0.4776 0.0
H323 H 0.70595 0.21925 0.53127 0.0
C324 C 0.53303 0.70417 0.7788 0.0
C325 C 0.53029 0.70523 0.72888 0.0
C326 C 0.50846 0.67548 0.80506 0.0
C327 C 0.41653 0.60657 0.80116 0.0
H328 H 0.44118 0.57132 0.91293 0.0
C329 C 0.31019 0.49509 0.91338 0.0
C330 C 0.31341 0.49685 0.96342 0.0
C331 C 0.33789 0.51799 0.88427 0.0
C332 C 0.43381 0.58111 0.88217 0.0
H333 H 0.50023 0.6763 0.66713 0.0
H334 H 0.45659 0.62575 0.71337 0.0
H335 H 0.4874 0.61399 0.86108 0.0
H336 H 0.34893 0.52377 0.02198 0.0
H337 H 0.39753 0.5647 0.97087 0.0
H338 H 0.36313 0.57469 0.82268 0.0
C339 C 0.47798 0.64742 0.73204 0.0
C340 C 0.46032 0.60543 0.85224 0.0
C341 C 0.50305 0.67616 0.7055 0.0
C342 C 0.34559 0.52174 0.98361 0.0
C343 C 0.37345 0.54507 0.95423 0.0
C344 C 0.39008 0.58245 0.83117 0.0
C345 C 0.48016 0.64705 0.78226 0.0
C346 C 0.45201 0.61865 0.81152 0.0
C347 C 0.36973 0.54376 0.9041 0.0
C348 C 0.39829 0.56944 0.87223 0.0
H349 H 0.55387 0.72609 0.79791 0.0
H350 H 0.51085 0.67634 0.84356 0.0
H351 H 0.40919 0.6167 0.77072 0.0
H352 H 0.28604 0.47588 0.89637 0.0
H353 H 0.33422 0.51539 0.84597 0.0
C354 C 0.85271 0.50647 0.05055 0.0
C355 C 0.84854 0.53365 0.06975 0.0
C356 C 0.85908 0.48469 0.08088 0.0
C357 C 0.84695 0.45654 0.20828 0.0
H358 H 0.90179 0.41315 0.1733 0.0
C359 C 0.86084 0.36008 0.33573 0.0
C360 C 0.85361 0.32854 0.3136 0.0
C361 C 0.86666 0.38914 0.30787 0.0
C362 C 0.88639 0.4251 0.18363 0.0
H363 H 0.85051 0.56113 0.13492 0.0
H364 H 0.86277 0.5245 0.18691 0.0
H365 H 0.89937 0.4556 0.11943 0.0
H366 H 0.84912 0.30337 0.24534 0.0
H367 H 0.85945 0.3535 0.19744 0.0
H368 H 0.83355 0.42573 0.27205 0.0
C369 C 0.85974 0.51872 0.14909 0.0
C370 C 0.88485 0.44931 0.15257 0.0
C371 C 0.85295 0.53995 0.11913 0.0
C372 C 0.85432 0.32726 0.26349 0.0
C373 C 0.86056 0.35616 0.23591 0.0
C374 C 0.84864 0.43252 0.23935 0.0
C375 C 0.86177 0.49005 0.13078 0.0
C376 C 0.8648 0.46514 0.16424 0.0
C377 C 0.86598 0.38725 0.25754 0.0
C378 C 0.86796 0.41609 0.22719 0.0
H379 H 0.84935 0.501 0.01265 0.0
H380 H 0.86041 0.46282 0.06542 0.0
H381 H 0.83063 0.46754 0.21829 0.0
H382 H 0.86038 0.36176 0.37424 0.0
H383 H 0.87103 0.41284 0.32565 0.0
C384 C 0.32511 0.79543 0.41473 0.0
C385 C 0.32417 0.82399 0.39391 0.0
C386 C 0.35173 0.80069 0.44651 0.0
C387 C 0.4391 0.86343 0.4951 0.0
H388 H 0.40247 0.80324 0.60614 0.0
C389 C 0.52857 0.86595 0.65158 0.0
C390 C 0.52307 0.83245 0.66285 0.0
C391 C 0.50435 0.86961 0.6227 0.0
C392 C 0.4132 0.82027 0.57543 0.0
H393 H 0.35155 0.88055 0.38802 0.0
H394 H 0.39872 0.88994 0.44404 0.0
H395 H 0.36243 0.8008 0.54437 0.0
H396 H 0.48776 0.77676 0.65439 0.0
H397 H 0.44528 0.78294 0.6058 0.0
H398 H 0.49014 0.88232 0.52624 0.0
C399 C 0.37872 0.86339 0.4354 0.0
C400 C 0.39024 0.81877 0.53983 0.0
C401 C 0.35191 0.85805 0.40307 0.0
C402 C 0.49229 0.80287 0.64692 0.0
C403 C 0.46799 0.80647 0.61893 0.0
C404 C 0.46223 0.86493 0.53096 0.0
C405 C 0.37806 0.83472 0.45893 0.0
C406 C 0.4029 0.83953 0.4985 0.0
C407 C 0.47405 0.83982 0.60536 0.0
C408 C 0.44958 0.84262 0.57095 0.0
H409 H 0.30413 0.76888 0.40821 0.0
H410 H 0.35093 0.77796 0.4628 0.0
H411 H 0.44969 0.87986 0.46383 0.0
H412 H 0.55252 0.88915 0.66253 0.0
H413 H 0.5097 0.89566 0.61303 0.0
C414 C 0.52568 0.33891 0.71961 0.0
C415 C 0.49346 0.31387 0.73917 0.0
C416 C 0.54981 0.36749 0.74736 0.0
C417 C 0.57124 0.39165 0.87552 0.0
H418 H 0.63856 0.48241 0.82437 0.0
C419 C 0.67742 0.5044 0.99342 0.0
C420 C 0.71136 0.52142 0.97375 0.0
C421 C 0.6484 0.48096 0.96562 0.0
C422 C 0.61996 0.45714 0.83923 0.0
H423 H 0.46014 0.30003 0.80148 0.0
H424 H 0.50108 0.35032 0.84877 0.0
H425 H 0.59246 0.43932 0.77278 0.0
H426 H 0.74103 0.52707 0.90906 0.0
H427 H 0.69113 0.48684 0.86161 0.0
H428 H 0.59899 0.40944 0.94184 0.0
C429 C 0.50859 0.34765 0.81292 0.0
C430 C 0.59356 0.43235 0.80953 0.0
C431 C 0.48487 0.31904 0.78556 0.0
C432 C 0.71542 0.51455 0.92577 0.0
C433 C 0.68664 0.49161 0.89814 0.0
C434 C 0.5975 0.41651 0.90525 0.0
C435 C 0.54198 0.37159 0.79501 0.0
C436 C 0.56903 0.39905 0.82706 0.0
C437 C 0.65272 0.4745 0.91749 0.0
C438 C 0.62256 0.44938 0.88732 0.0
H439 H 0.53315 0.33516 0.68423 0.0
H440 H 0.5753 0.38521 0.7323 0.0
H441 H 0.55335 0.36614 0.89033 0.0
H442 H 0.6733 0.5091 0.03014 0.0
H443 H 0.62255 0.46821 0.9816 0.0
loop_
_geom_bond_atom_site_label_1
_geom_bond_atom_site_label_2
_geom_bond_distance
_geom_bond_site_symmetry_2
_ccdc_geom_bond_type
C0 O2 1.247 . S
C0 O4 1.258 . S
C1 O8 1.247 . S
C1 O9 1.258 1_556 S
O2 C0 1.247 . S
O2 Zn3 2.028 . S
Zn3 O2 2.028 . S
Zn3 O7 2.035 . S
Zn3 O9 2.035 . S
Zn3 O10 2.028 . S
O4 C0 1.258 . S
O4 Zn5 2.035 1_554 S
Zn5 O4 2.035 1_556 S
Zn5 O6 2.028 . S
Zn5 O8 2.028 . S
Zn5 O11 2.035 1_556 S
O6 Zn5 2.028 . S
O6 C12 1.247 . S
O7 Zn3 2.035 . S
O7 C12 1.258 1_554 S
O8 C1 1.247 . S
O8 Zn5 2.028 . S
O9 C1 1.258 1_554 S
O9 Zn3 2.035 . S
O10 Zn3 2.028 . S
O10 C13 1.247 . S
O11 Zn5 2.035 1_554 S
O11 C13 1.258 . S
C12 O6 1.247 . S
C12 O7 1.258 1_556 S
C13 O10 1.247 . S
C13 O11 1.258 . S
C14 O16 1.247 . S
C14 O18 1.258 . S
C15 O22 1.247 . S
C15 O23 1.258 . S
O16 C14 1.247 . S
O16 Zn17 2.028 . S
Zn17 O16 2.028 . S
Zn17 O21 2.035 . S
Zn17 O23 2.035 . S
Zn17 O24 2.028 . S
O18 C14 1.258 . S
O18 Zn19 2.035 . S
Zn19 O18 2.035 . S
Zn19 O20 2.028 . S
Zn19 O22 2.028 . S
Zn19 O25 2.035 . S
O20 Zn19 2.028 . S
O20 C26 1.247 . S
O21 Zn17 2.035 . S
O21 C26 1.258 . S
O22 C15 1.247 . S
O22 Zn19 2.028 . S
O23 C15 1.258 . S
O23 Zn17 2.035 . S
O24 Zn17 2.028 . S
O24 C27 1.247 . S
O25 Zn19 2.035 . S
O25 C27 1.258 . S
C26 O20 1.247 . S
C26 O21 1.258 . S
C27 O24 1.247 . S
C27 O25 1.258 . S
C28 O30 1.247 . S
C28 O32 1.258 . S
C29 O36 1.247 . S
C29 O37 1.258 . S
O30 C28 1.247 . S
O30 Zn31 2.028 . S
Zn31 O30 2.028 . S
Zn31 O35 2.035 . S
Zn31 O37 2.035 . S
Zn31 O38 2.028 . S
O32 C28 1.258 . S
O32 Zn33 2.035 . S
Zn33 O32 2.035 . S
Zn33 O34 2.028 . S
Zn33 O36 2.028 . S
Zn33 O39 2.035 . S
O34 Zn33 2.028 . S
O34 C40 1.247 . S
O35 Zn31 2.035 . S
O35 C40 1.258 . S
O36 C29 1.247 . S
O36 Zn33 2.028 . S
O37 C29 1.258 . S
O37 Zn31 2.035 . S
O38 Zn31 2.028 . S
O38 C41 1.247 . S
O39 Zn33 2.035 . S
O39 C41 1.258 . S
C40 O34 1.247 . S
C40 O35 1.258 . S
C41 O38 1.247 . S
C41 O39 1.258 . S
C42 O44 1.247 . S
C42 O46 1.258 1_556 S
C43 O50 1.247 . S
C43 O51 1.258 . S
O44 C42 1.247 . S
O44 Zn45 2.028 . S
Zn45 O44 2.028 . S
Zn45 O49 2.035 1_556 S
Zn45 O51 2.035 1_556 S
Zn45 O52 2.028 . S
O46 C42 1.258 1_554 S
O46 Zn47 2.035 . S
Zn47 O46 2.035 . S
Zn47 O48 2.028 . S
Zn47 O50 2.028 . S
Zn47 O53 2.035 . S
O48 Zn47 2.028 . S
O48 C54 1.247 . S
O49 Zn45 2.035 1_554 S
O49 C54 1.258 . S
O50 C43 1.247 . S
O50 Zn47 2.028 . S
O51 C43 1.258 . S
O51 Zn45 2.035 1_554 S
O52 Zn45 2.028 . S
O52 C55 1.247 . S
O53 Zn47 2.035 . S
O53 C55 1.258 1_554 S
C54 O48 1.247 . S
C54 O49 1.258 . S
C55 O52 1.247 . S
C55 O53 1.258 1_556 S
C56 O58 1.247 . S
C56 O60 1.258 . S
C57 O64 1.247 . S
C57 O65 1.258 . S
O58 C56 1.247 . S
O58 Zn59 2.028 . S
Zn59 O58 2.028 . S
Zn59 O63 2.035 . S
Zn59 O65 2.035 . S
Zn59 O66 2.028 . S
O60 C56 1.258 . S
O60 Zn61 2.035 . S
Zn61 O60 2.035 . S
Zn61 O62 2.028 . S
Zn61 O64 2.028 . S
Zn61 O67 2.035 . S
O62 Zn61 2.028 . S
O62 C68 1.247 . S
O63 Zn59 2.035 . S
O63 C68 1.258 . S
O64 C57 1.247 . S
O64 Zn61 2.028 . S
O65 C57 1.258 . S
O65 Zn59 2.035 . S
O66 Zn59 2.028 . S
O66 C69 1.247 . S
O67 Zn61 2.035 . S
O67 C69 1.258 . S
C68 O62 1.247 . S
C68 O63 1.258 . S
C69 O66 1.247 . S
C69 O67 1.258 . S
C70 O72 1.247 . S
C70 O74 1.258 . S
C71 O78 1.247 . S
C71 O79 1.258 . S
O72 C70 1.247 . S
O72 Zn73 2.028 . S
Zn73 O72 2.028 . S
Zn73 O77 2.035 . S
Zn73 O79 2.035 . S
Zn73 O80 2.028 . S
O74 C70 1.258 . S
O74 Zn75 2.035 . S
Zn75 O74 2.035 . S
Zn75 O76 2.028 . S
Zn75 O78 2.028 . S
Zn75 O81 2.035 . S
O76 Zn75 2.028 . S
O76 C82 1.247 . S
O77 Zn73 2.035 . S
O77 C82 1.258 . S
O78 C71 1.247 . S
O78 Zn75 2.028 . S
O79 C71 1.258 . S
O79 Zn73 2.035 . S
O80 Zn73 2.028 . S
O80 C83 1.247 . S
O81 Zn75 2.035 . S
O81 C83 1.258 . S
C82 O76 1.247 . S
C82 O77 1.258 . S
C83 O80 1.247 . S
C83 O81 1.258 . S
C84 C85 1.349 . S
C84 C86 1.327 . S
C84 H109 0.950 . S
C85 C84 1.349 . S
C85 C101 1.349 . S
C86 C84 1.327 . S
C86 C105 1.429 . S
C86 H110 0.950 . S
C87 C104 1.574 . S
C87 C106 1.368 . S
C87 H111 0.949 . S
H88 C92 0.949 . S
C89 C90 1.349 . S
C89 C91 1.327 . S
C89 H112 0.950 . S
C90 C89 1.349 . S
C90 C102 1.349 . S
C91 C89 1.327 . S
C91 C107 1.429 . S
C91 H113 0.950 . S
C92 H88 0.949 . S
C92 C100 1.574 . S
C92 C108 1.368 . S
H93 C101 0.950 . S
H94 C99 0.950 . S
H95 C100 0.949 . S
H96 C102 0.950 . S
H97 C103 0.950 . S
H98 C104 0.949 . S
C99 H94 0.950 . S
C99 C101 1.327 . S
C99 C105 1.429 . S
C100 C92 1.574 . S
C100 H95 0.949 . S
C100 C106 1.368 . S
C101 C85 1.349 . S
C101 H93 0.950 . S
C101 C99 1.327 . S
C102 C90 1.349 . S
C102 H96 0.950 . S
C102 C103 1.327 . S
C103 H97 0.950 . S
C103 C102 1.327 . S
C103 C107 1.429 . S
C104 C87 1.574 . S
C104 H98 0.949 . S
C104 C108 1.368 . S
C105 C86 1.429 . S
C105 C99 1.429 . S
C105 C106 1.523 . S
C106 C87 1.368 . S
C106 C100 1.368 . S
C106 C105 1.523 . S
C107 C91 1.429 . S
C107 C103 1.429 . S
C107 C108 1.523 . S
C108 C92 1.368 . S
C108 C104 1.368 . S
C108 C107 1.523 . S
H109 C84 0.950 . S
H110 C86 0.950 . S
H111 C87 0.949 . S
H112 C89 0.950 . S
H113 C91 0.950 . S
C114 C115 1.349 . S
C114 C116 1.327 . S
C114 H139 0.950 . S
C115 C114 1.349 . S
C115 C131 1.349 . S
C116 C114 1.327 . S
C116 C135 1.429 . S
C116 H140 0.950 . S
C117 C134 1.574 1_655 S
C117 C136 1.368 . S
C117 H141 0.949 . S
H118 C122 0.949 . S
C119 C120 1.349 . S
C119 C121 1.327 . S
C119 H142 0.950 . S
C120 C119 1.349 . S
C120 C132 1.349 . S
C121 C119 1.327 . S
C121 C137 1.429 . S
C121 H143 0.950 . S
C122 H118 0.949 . S
C122 C130 1.574 1_455 S
C122 C138 1.368 . S
H123 C131 0.950 . S
H124 C129 0.950 . S
H125 C130 0.949 . S
H126 C132 0.950 . S
H127 C133 0.950 . S
H128 C134 0.949 . S
C129 H124 0.950 . S
C129 C131 1.327 . S
C129 C135 1.429 . S
C130 C122 1.574 1_655 S
C130 H125 0.949 . S
C130 C136 1.368 . S
C131 C115 1.349 . S
C131 H123 0.950 . S
C131 C129 1.327 . S
C132 C120 1.349 . S
C132 H126 0.950 . S
C132 C133 1.327 . S
C133 H127 0.950 . S
C133 C132 1.327 . S
C133 C137 1.429 . S
C134 C117 1.574 1_455 S
C134 H128 0.949 . S
C134 C138 1.368 . S
C135 C116 1.429 . S
C135 C129 1.429 . S
C135 C136 1.523 . S
C136 C117 1.368 . S
C136 C130 1.368 . S
C136 C135 1.523 . S
C137 C121 1.429 . S
C137 C133 1.429 . S
C137 C138 1.523 . S
C138 C122 1.368 . S
C138 C134 1.368 . S
C138 C137 1.523 . S
H139 C114 0.950 . S
H140 C116 0.950 . S
H141 C117 0.949 . S
H142 C119 0.950 . S
H143 C121 0.950 . S
C144 C145 1.349 . S
C144 C146 1.327 . S
C144 H169 0.950 . S
C145 C144 1.349 . S
C145 C161 1.349 . S
C146 C144 1.327 . S
C146 C165 1.429 . S
C146 H170 0.950 . S
C147 C164 1.574 1_545 S
C147 C166 1.368 . S
C147 H171 0.949 . S
H148 C152 0.949 . S
C149 C150 1.349 . S
C149 C151 1.327 . S
C149 H172 0.950 . S
C150 C149 1.349 . S
C150 C162 1.349 . S
C151 C149 1.327 . S
C151 C167 1.429 . S
C151 H173 0.950 . S
C152 H148 0.949 . S
C152 C160 1.574 1_565 S
C152 C168 1.368 . S
H153 C161 0.950 . S
H154 C159 0.950 . S
H155 C160 0.949 . S
H156 C162 0.950 . S
H157 C163 0.950 . S
H158 C164 0.949 . S
C159 H154 0.950 . S
C159 C161 1.327 . S
C159 C165 1.429 . S
C160 C152 1.574 1_545 S
C160 H155 0.949 . S
C160 C166 1.368 . S
C161 C145 1.349 . S
C161 H153 0.950 . S
C161 C159 1.327 . S
C162 C150 1.349 . S
C162 H156 0.950 . S
C162 C163 1.327 . S
C163 H157 0.950 . S
C163 C162 1.327 . S
C163 C167 1.429 . S
C164 C147 1.574 1_565 S
C164 H158 0.949 . S
C164 C168 1.368 . S
C165 C146 1.429 . S
C165 C159 1.429 . S
C165 C166 1.523 . S
C166 C147 1.368 . S
C166 C160 1.368 . S
C166 C165 1.523 . S
C167 C151 1.429 . S
C167 C163 1.429 . S
C167 C168 1.523 . S
C168 C152 1.368 . S
C168 C164 1.368 . S
C168 C167 1.523 . S
H169 C144 0.950 . S
H170 C146 0.950 . S
H171 C147 0.949 . S
H172 C149 0.950 . S
H173 C151 0.950 . S
C174 C175 1.349 . S
C174 C176 1.327 . S
C174 H199 0.950 . S
C175 C174 1.349 . S
C175 C191 1.349 . S
C176 C174 1.327 . S
C176 C195 1.429 . S
C176 H200 0.950 . S
C177 C194 1.574 . S
C177 C196 1.368 . S
C177 H201 0.949 . S
H178 C182 0.949 . S
C179 C180 1.349 . S
C179 C181 1.327 . S
C179 H202 0.950 . S
C180 C179 1.349 . S
C180 C192 1.349 . S
C181 C179 1.327 . S
C181 C197 1.429 . S
C181 H203 0.950 . S
C182 H178 0.949 . S
C182 C190 1.574 . S
C182 C198 1.368 . S
H183 C191 0.950 . S
H184 C189 0.950 . S
H185 C190 0.949 . S
H186 C192 0.950 . S
H187 C193 0.950 . S
H188 C194 0.949 . S
C189 H184 0.950 . S
C189 C191 1.327 . S
C189 C195 1.429 . S
C190 C182 1.574 . S
C190 H185 0.949 . S
C190 C196 1.368 . S
C191 C175 1.349 . S
C191 H183 0.950 . S
C191 C189 1.327 . S
C192 C180 1.349 . S
C192 H186 0.950 . S
C192 C193 1.327 . S
C193 H187 0.950 . S
C193 C192 1.327 . S
C193 C197 1.429 . S
C194 C177 1.574 . S
C194 H188 0.949 . S
C194 C198 1.368 . S
C195 C176 1.429 . S
C195 C189 1.429 . S
C195 C196 1.523 . S
C196 C177 1.368 . S
C196 C190 1.368 . S
C196 C195 1.523 . S
C197 C181 1.429 . S
C197 C193 1.429 . S
C197 C198 1.523 . S
C198 C182 1.368 . S
C198 C194 1.368 . S
C198 C197 1.523 . S
H199 C174 0.950 . S
H200 C176 0.950 . S
H201 C177 0.949 . S
H202 C179 0.950 . S
H203 C181 0.950 . S
C204 C205 1.349 . S
C204 C206 1.327 . S
C204 H229 0.950 . S
C205 C204 1.349 . S
C205 C221 1.349 . S
C206 C204 1.327 . S
C206 C225 1.429 . S
C206 H230 0.950 . S
C207 C224 1.574 1_655 S
C207 C226 1.368 . S
C207 H231 0.949 . S
H208 C212 0.949 . S
C209 C210 1.349 . S
C209 C211 1.327 . S
C209 H232 0.950 . S
C210 C209 1.349 . S
C210 C222 1.349 . S
C211 C209 1.327 . S
C211 C227 1.429 . S
C211 H233 0.950 . S
C212 H208 0.949 . S
C212 C220 1.574 1_455 S
C212 C228 1.368 . S
H213 C221 0.950 . S
H214 C219 0.950 . S
H215 C220 0.949 . S
H216 C222 0.950 . S
H217 C223 0.950 . S
H218 C224 0.949 . S
C219 H214 0.950 . S
C219 C221 1.327 . S
C219 C225 1.429 . S
C220 C212 1.574 1_655 S
C220 H215 0.949 . S
C220 C226 1.368 . S
C221 C205 1.349 . S
C221 H213 0.950 . S
C221 C219 1.327 . S
C222 C210 1.349 . S
C222 H216 0.950 . S
C222 C223 1.327 . S
C223 H217 0.950 . S
C223 C222 1.327 . S
C223 C227 1.429 . S
C224 C207 1.574 1_455 S
C224 H218 0.949 . S
C224 C228 1.368 . S
C225 C206 1.429 . S
C225 C219 1.429 . S
C225 C226 1.523 . S
C226 C207 1.368 . S
C226 C220 1.368 . S
C226 C225 1.523 . S
C227 C211 1.429 . S
C227 C223 1.429 . S
C227 C228 1.523 . S
C228 C212 1.368 . S
C228 C224 1.368 . S
C228 C227 1.523 . S
H229 C204 0.950 . S
H230 C206 0.950 . S
H231 C207 0.949 . S
H232 C209 0.950 . S
H233 C211 0.950 . S
C234 C235 1.349 . S
C234 C236 1.327 . S
C234 H259 0.950 . S
C235 C234 1.349 . S
C235 C251 1.349 . S
C236 C234 1.327 . S
C236 C255 1.429 . S
C236 H260 0.950 . S
C237 C254 1.574 1_545 S
C237 C256 1.368 . S
C237 H261 0.949 . S
H238 C242 0.949 . S
C239 C240 1.349 . S
C239 C241 1.327 . S
C239 H262 0.950 . S
C240 C239 1.349 . S
C240 C252 1.349 . S
C241 C239 1.327 . S
C241 C257 1.429 . S
C241 H263 0.950 . S
C242 H238 0.949 . S
C242 C250 1.574 1_565 S
C242 C258 1.368 . S
H243 C251 0.950 . S
H244 C249 0.950 . S
H245 C250 0.949 . S
H246 C252 0.950 . S
H247 C253 0.950 . S
H248 C254 0.949 . S
C249 H244 0.950 . S
C249 C251 1.327 . S
C249 C255 1.429 . S
C250 C242 1.574 1_545 S
C250 H245 0.949 . S
C250 C256 1.368 . S
C251 C235 1.349 . S
C251 H243 0.950 . S
C251 C249 1.327 . S
C252 C240 1.349 . S
C252 H246 0.950 . S
C252 C253 1.327 . S
C253 H247 0.950 . S
C253 C252 1.327 . S
C253 C257 1.429 . S
C254 C237 1.574 1_565 S
C254 H248 0.949 . S
C254 C258 1.368 . S
C255 C236 1.429 . S
C255 C249 1.429 . S
C255 C256 1.523 . S
C256 C237 1.368 . S
C256 C250 1.368 . S
C256 C255 1.523 . S
C257 C241 1.429 . S
C257 C253 1.429 . S
C257 C258 1.523 . S
C258 C242 1.368 . S
C258 C254 1.368 . S
C258 C257 1.523 . S
H259 C234 0.950 . S
H260 C236 0.950 . S
H261 C237 0.949 . S
H262 C239 0.950 . S
H263 C241 0.950 . S
C264 C265 1.349 . S
C264 C266 1.327 . S
C264 H289 0.950 . S
C265 C264 1.349 . S
C265 C281 1.349 . S
C266 C264 1.327 . S
C266 C285 1.429 . S
C266 H290 0.950 . S
C267 C284 1.574 . S
C267 C286 1.368 . S
C267 H291 0.949 . S
H268 C272 0.949 . S
C269 C270 1.349 . S
C269 C271 1.327 . S
C269 H292 0.950 . S
C270 C269 1.349 . S
C270 C282 1.349 . S
C271 C269 1.327 . S
C271 C287 1.429 . S
C271 H293 0.950 . S
C272 H268 0.949 . S
C272 C280 1.574 . S
C272 C288 1.368 . S
H273 C281 0.950 . S
H274 C279 0.950 . S
H275 C280 0.949 . S
H276 C282 0.950 . S
H277 C283 0.950 . S
H278 C284 0.949 . S
C279 H274 0.950 . S
C279 C281 1.327 . S
C279 C285 1.429 . S
C280 C272 1.574 . S
C280 H275 0.949 . S
C280 C286 1.368 . S
C281 C265 1.349 . S
C281 H273 0.950 . S
C281 C279 1.327 . S
C282 C270 1.349 . S
C282 H276 0.950 . S
C282 C283 1.327 . S
C283 H277 0.950 . S
C283 C282 1.327 . S
C283 C287 1.429 . S
C284 C267 1.574 . S
C284 H278 0.949 . S
C284 C288 1.368 . S
C285 C266 1.429 . S
C285 C279 1.429 . S
C285 C286 1.523 . S
C286 C267 1.368 . S
C286 C280 1.368 . S
C286 C285 1.523 . S
C287 C271 1.429 . S
C287 C283 1.429 . S
C287 C288 1.523 . S
C288 C272 1.368 . S
C288 C284 1.368 . S
C288 C287 1.523 . S
H289 C264 0.950 . S
H290 C266 0.950 . S
H291 C267 0.949 . S
H292 C269 0.950 . S
H293 C271 0.950 . S
C294 C295 1.349 . S
C294 C296 1.327 . S
C294 H319 0.950 . S
C295 C294 1.349 . S
C295 C311 1.349 . S
C296 C294 1.327 . S
C296 C315 1.429 . S
C296 H320 0.950 . S
C297 C314 1.574 . S
C297 C316 1.368 . S
C297 H321 0.949 . S
H298 C302 0.949 . S
C299 C300 1.349 . S
C299 C301 1.327 . S
C299 H322 0.950 . S
C300 C299 1.349 . S
C300 C312 1.349 . S
C301 C299 1.327 . S
C301 C317 1.429 . S
C301 H323 0.950 . S
C302 H298 0.949 . S
C302 C310 1.574 . S
C302 C318 1.368 . S
H303 C311 0.950 . S
H304 C309 0.950 . S
H305 C310 0.949 . S
H306 C312 0.950 . S
H307 C313 0.950 . S
H308 C314 0.949 . S
C309 H304 0.950 . S
C309 C311 1.327 . S
C309 C315 1.429 . S
C310 C302 1.574 . S
C310 H305 0.949 . S
C310 C316 1.368 . S
C311 C295 1.349 . S
C311 H303 0.950 . S
C311 C309 1.327 . S
C312 C300 1.349 . S
C312 H306 0.950 . S
C312 C313 1.327 . S
C313 H307 0.950 . S
C313 C312 1.327 . S
C313 C317 1.429 . S
C314 C297 1.574 . S
C314 H308 0.949 . S
C314 C318 1.368 . S
C315 C296 1.429 . S
C315 C309 1.429 . S
C315 C316 1.523 . S
C316 C297 1.368 . S
C316 C310 1.368 . S
C316 C315 1.523 . S
C317 C301 1.429 . S
C317 C313 1.429 . S
C317 C318 1.523 . S
C318 C302 1.368 . S
C318 C314 1.368 . S
C318 C317 1.523 . S
H319 C294 0.950 . S
H320 C296 0.950 . S
H321 C297 0.949 . S
H322 C299 0.950 . S
H323 C301 0.950 . S
C324 C325 1.349 . S
C324 C326 1.327 . S
C324 H349 0.950 . S
C325 C324 1.349 . S
C325 C341 1.349 . S
C326 C324 1.327 . S
C326 C345 1.429 . S
C326 H350 0.950 . S
C327 C344 1.574 . S
C327 C346 1.368 . S
C327 H351 0.949 . S
H328 C332 0.949 . S
C329 C330 1.349 . S
C329 C331 1.327 . S
C329 H352 0.950 . S
C330 C329 1.349 . S
C330 C342 1.349 . S
C331 C329 1.327 . S
C331 C347 1.429 . S
C331 H353 0.950 . S
C332 H328 0.949 . S
C332 C340 1.574 . S
C332 C348 1.368 . S
H333 C341 0.950 . S
H334 C339 0.950 . S
H335 C340 0.949 . S
H336 C342 0.950 . S
H337 C343 0.950 . S
H338 C344 0.949 . S
C339 H334 0.950 . S
C339 C341 1.327 . S
C339 C345 1.429 . S
C340 C332 1.574 . S
C340 H335 0.949 . S
C340 C346 1.368 . S
C341 C325 1.349 . S
C341 H333 0.950 . S
C341 C339 1.327 . S
C342 C330 1.349 . S
C342 H336 0.950 . S
C342 C343 1.327 . S
C343 H337 0.950 . S
C343 C342 1.327 . S
C343 C347 1.429 . S
C344 C327 1.574 . S
C344 H338 0.949 . S
C344 C348 1.368 . S
C345 C326 1.429 . S
C345 C339 1.429 . S
C345 C346 1.523 . S
C346 C327 1.368 . S
C346 C340 1.368 . S
C346 C345 1.523 . S
C347 C331 1.429 . S
C347 C343 1.429 . S
C347 C348 1.523 . S
C348 C332 1.368 . S
C348 C344 1.368 . S
C348 C347 1.523 . S
H349 C324 0.950 . S
H350 C326 0.950 . S
H351 C327 0.949 . S
H352 C329 0.950 . S
H353 C331 0.950 . S
C354 C355 1.349 . S
C354 C356 1.327 . S
C354 H379 0.950 . S
C355 C354 1.349 . S
C355 C371 1.349 . S
C356 C354 1.327 . S
C356 C375 1.429 . S
C356 H380 0.950 . S
C357 C374 1.574 . S
C357 C376 1.368 . S
C357 H381 0.949 . S
H358 C362 0.949 . S
C359 C360 1.349 . S
C359 C361 1.327 . S
C359 H382 0.950 . S
C360 C359 1.349 . S
C360 C372 1.349 . S
C361 C359 1.327 . S
C361 C377 1.429 . S
C361 H383 0.950 . S
C362 H358 0.949 . S
C362 C370 1.574 . S
C362 C378 1.368 . S
H363 C371 0.950 . S
H364 C369 0.950 . S
H365 C370 0.949 . S
H366 C372 0.950 . S
H367 C373 0.950 . S
H368 C374 0.949 . S
C369 H364 0.950 . S
C369 C371 1.327 . S
C369 C375 1.429 . S
C370 C362 1.574 . S
C370 H365 0.949 . S
C370 C376 1.368 . S
C371 C355 1.349 . S
C371 H363 0.950 . S
C371 C369 1.327 . S
C372 C360 1.349 . S
C372 H366 0.950 . S
C372 C373 1.327 . S
C373 H367 0.950 . S
C373 C372 1.327 . S
C373 C377 1.429 . S
C374 C357 1.574 . S
C374 H368 0.949 . S
C374 C378 1.368 . S
C375 C356 1.429 . S
C375 C369 1.429 . S
C375 C376 1.523 . S
C376 C357 1.368 . S
C376 C370 1.368 . S
C376 C375 1.523 . S
C377 C361 1.429 . S
C377 C373 1.429 . S
C377 C378 1.523 . S
C378 C362 1.368 . S
C378 C374 1.368 . S
C378 C377 1.523 . S
H379 C354 0.950 . S
H380 C356 0.950 . S
H381 C357 0.949 . S
H382 C359 0.950 . S
H383 C361 0.950 . S
C384 C385 1.349 . S
C384 C386 1.327 . S
C384 H409 0.950 . S
C385 C384 1.349 . S
C385 C401 1.349 . S
C386 C384 1.327 . S
C386 C405 1.429 . S
C386 H410 0.950 . S
C387 C404 1.574 . S
C387 C406 1.368 . S
C387 H411 0.949 . S
H388 C392 0.949 . S
C389 C390 1.349 . S
C389 C391 1.327 . S
C389 H412 0.950 . S
C390 C389 1.349 . S
C390 C402 1.349 . S
C391 C389 1.327 . S
C391 C407 1.429 . S
C391 H413 0.950 . S
C392 H388 0.949 . S
C392 C400 1.574 . S
C392 C408 1.368 . S
H393 C401 0.950 . S
H394 C399 0.950 . S
H395 C400 0.949 . S
H396 C402 0.950 . S
H397 C403 0.950 . S
H398 C404 0.949 . S
C399 H394 0.950 . S
C399 C401 1.327 . S
C399 C405 1.429 . S
C400 C392 1.574 . S
C400 H395 0.949 . S
C400 C406 1.368 . S
C401 C385 1.349 . S
C401 H393 0.950 . S
C401 C399 1.327 . S
C402 C390 1.349 . S
C402 H396 0.950 . S
C402 C403 1.327 . S
C403 H397 0.950 . S
C403 C402 1.327 . S
C403 C407 1.429 . S
C404 C387 1.574 . S
C404 H398 0.949 . S
C404 C408 1.368 . S
C405 C386 1.429 . S
C405 C399 1.429 . S
C405 C406 1.523 . S
C406 C387 1.368 . S
C406 C400 1.368 . S
C406 C405 1.523 . S
C407 C391 1.429 . S
C407 C403 1.429 . S
C407 C408 1.523 . S
C408 C392 1.368 . S
C408 C404 1.368 . S
C408 C407 1.523 . S
H409 C384 0.950 . S
H410 C386 0.950 . S
H411 C387 0.949 . S
H412 C389 0.950 . S
H413 C391 0.950 . S
C414 C415 1.349 . S
C414 C416 1.327 . S
C414 H439 0.950 . S
C415 C414 1.349 . S
C415 C431 1.349 . S
C416 C414 1.327 . S
C416 C435 1.429 . S
C416 H440 0.950 . S
C417 C434 1.574 . S
C417 C436 1.368 . S
C417 H441 0.949 . S
H418 C422 0.949 . S
C419 C420 1.349 . S
C419 C421 1.327 . S
C419 H442 0.950 . S
C420 C419 1.349 . S
C420 C432 1.349 . S
C421 C419 1.327 . S
C421 C437 1.429 . S
C421 H443 0.950 . S
C422 H418 0.949 . S
C422 C430 1.574 . S
C422 C438 1.368 . S
H423 C431 0.950 . S
H424 C429 0.950 . S
H425 C430 0.949 . S
H426 C432 0.950 . S
H427 C433 0.950 . S
H428 C434 0.949 . S
C429 H424 0.950 . S
C429 C431 1.327 . S
C429 C435 1.429 . S
C430 C422 1.574 . S
C430 H425 0.949 . S
C430 C436 1.368 . S
C431 C415 1.349 . S
C431 H423 0.950 . S
C431 C429 1.327 . S
C432 C420 1.349 . S
C432 H426 0.950 . S
C432 C433 1.327 . S
C433 H427 0.950 . S
C433 C432 1.327 . S
C433 C437 1.429 . S
C434 C417 1.574 . S
C434 H428 0.949 . S
C434 C438 1.368 . S
C435 C416 1.429 . S
C435 C429 1.429 . S
C435 C436 1.523 . S
C436 C417 1.368 . S
C436 C430 1.368 . S
C436 C435 1.523 . S
C437 C421 1.429 . S
C437 C433 1.429 . S
C437 C438 1.523 . S
C438 C422 1.368 . S
C438 C434 1.368 . S
C438 C437 1.523 . S
H439 C414 0.950 . S
H440 C416 0.950 . S
H441 C417 0.949 . S
H442 C419 0.950 . S
H443 C421 0.950 . S
C85 C12 1.357 . S
C90 C83 1.356 . S
C115 C26 1.357 . S
C120 C0 1.357 . S
C145 C14 1.357 . S
C150 C28 1.357 . S
C175 C42 1.357 . S
C180 C40 1.357 . S
C205 C54 1.357 . S
C210 C57 1.356 . S
C235 C71 1.357 . S
C240 C69 1.357 . S
C265 C68 1.476 . S
C270 C13 1.475 . S
C295 C82 1.476 . S
C300 C27 1.475 . S
C325 C29 1.475 . S
C330 C1 1.475 . S
C355 C43 1.475 . S
C360 C15 1.475 . S
C385 C56 1.476 . S
C390 C41 1.475 . S
C415 C70 1.476 . S
C420 C55 1.475 . S
