# Generated by pormake.
# Topology whw, (6)-cn, num edge types: 1
# Building blocks:
#     Node 0, Type 0, BuildingBlock: GEDQOX_clean_sbu_0, # of connection points: 6
#     Node 1, Type 0, BuildingBlock: GEDQOX_clean_sbu_0, # of connection points: 6
#     Node 2, Type 0, BuildingBlock: GEDQOX_clean_sbu_0, # of connection points: 6
#     Node 3, Type 0, BuildingBlock: GEDQOX_clean_sbu_0, # of connection points: 6
#     Node 4, Type 0, BuildingBlock: GEDQOX_clean_sbu_0, # of connection points: 6
#     Node 5, Type 0, BuildingBlock: GEDQOX_clean_sbu_0, # of connection points: 6
#     Node 6, Type 0, BuildingBlock: GEDQOX_clean_sbu_0, # of connection points: 6
#     Node 7, Type 0, BuildingBlock: GEDQOX_clean_sbu_0, # of connection points: 6
#     Node 8, Type 0, BuildingBlock: GEDQOX_clean_sbu_0, # of connection points: 6
#     Node 9, Type 0, BuildingBlock: GEDQOX_clean_sbu_0, # of connection points: 6
#     Node 10, Type 0, BuildingBlock: GEDQOX_clean_sbu_0, # of connection points: 6
#     Node 11, Type 0, BuildingBlock: GEDQOX_clean_sbu_0, # of connection points: 6
#     Node 12, Type 0, BuildingBlock: GEDQOX_clean_sbu_0, # of connection points: 6
#     Node 13, Type 0, BuildingBlock: GEDQOX_clean_sbu_0, # of connection points: 6
#     Node 14, Type 0, BuildingBlock: GEDQOX_clean_sbu_0, # of connection points: 6
#     Node 15, Type 0, BuildingBlock: GEDQOX_clean_sbu_0, # of connection points: 6
#     Edge 16, Type (0, 0), BuildingBlock: AJUNOK_clean_linker_0, # of connection points: 2
#     Edge 17, Type (0, 0), BuildingBlock: AJUNOK_clean_linker_0, # of connection points: 2
#     Edge 18, Type (0, 0), BuildingBlock: AJUNOK_clean_linker_0, # of connection points: 2
#     Edge 19, Type (0, 0), BuildingBlock: AJUNOK_clean_linker_0, # of connection points: 2
#     Edge 20, Type (0, 0), BuildingBlock: AJUNOK_clean_linker_0, # of connection points: 2
#     Edge 21, Type (0, 0), BuildingBlock: AJUNOK_clean_linker_0, # of connection points: 2
#     Edge 22, Type (0, 0), BuildingBlock: AJUNOK_clean_linker_0, # of connection points: 2
#     Edge 23, Type (0, 0), BuildingBlock: AJUNOK_clean_linker_0, # of connection points: 2
#     Edge 24, Type (0, 0), BuildingBlock: AJUNOK_clean_linker_0, # of connection points: 2
#     Edge 25, Type (0, 0), BuildingBlock: AJUNOK_clean_linker_0, # of connection points: 2
#     Edge 26, Type (0, 0), BuildingBlock: AJUNOK_clean_linker_0, # of connection points: 2
#     Edge 27, Type (0, 0), BuildingBlock: AJUNOK_clean_linker_0, # of connection points: 2
#     Edge 28, Type (0, 0), BuildingBlock: AJUNOK_clean_linker_0, # of connection points: 2
#     Edge 29, Type (0, 0), BuildingBlock: AJUNOK_clean_linker_0, # of connection points: 2
#     Edge 30, Type (0, 0), BuildingBlock: AJUNOK_clean_linker_0, # of connection points: 2
#     Edge 31, Type (0, 0), BuildingBlock: AJUNOK_clean_linker_0, # of connection points: 2
#     Edge 32, Type (0, 0), BuildingBlock: AJUNOK_clean_linker_0, # of connection points: 2
#     Edge 33, Type (0, 0), BuildingBlock: AJUNOK_clean_linker_0, # of connection points: 2
#     Edge 34, Type (0, 0), BuildingBlock: AJUNOK_clean_linker_0, # of connection points: 2
#     Edge 35, Type (0, 0), BuildingBlock: AJUNOK_clean_linker_0, # of connection points: 2
#     Edge 36, Type (0, 0), BuildingBlock: AJUNOK_clean_linker_0, # of connection points: 2
#     Edge 37, Type (0, 0), BuildingBlock: AJUNOK_clean_linker_0, # of connection points: 2
#     Edge 38, Type (0, 0), BuildingBlock: AJUNOK_clean_linker_0, # of connection points: 2
#     Edge 39, Type (0, 0), BuildingBlock: AJUNOK_clean_linker_0, # of connection points: 2
#     Edge 40, Type (0, 0), BuildingBlock: AJUNOK_clean_linker_0, # of connection points: 2
#     Edge 41, Type (0, 0), BuildingBlock: AJUNOK_clean_linker_0, # of connection points: 2
#     Edge 42, Type (0, 0), BuildingBlock: AJUNOK_clean_linker_0, # of connection points: 2
#     Edge 43, Type (0, 0), BuildingBlock: AJUNOK_clean_linker_0, # of connection points: 2
#     Edge 44, Type (0, 0), BuildingBlock: AJUNOK_clean_linker_0, # of connection points: 2
#     Edge 45, Type (0, 0), BuildingBlock: AJUNOK_clean_linker_0, # of connection points: 2
#     Edge 46, Type (0, 0), BuildingBlock: AJUNOK_clean_linker_0, # of connection points: 2
#     Edge 47, Type (0, 0), BuildingBlock: AJUNOK_clean_linker_0, # of connection points: 2
#     Edge 48, Type (0, 0), BuildingBlock: AJUNOK_clean_linker_0, # of connection points: 2
#     Edge 49, Type (0, 0), BuildingBlock: AJUNOK_clean_linker_0, # of connection points: 2
#     Edge 50, Type (0, 0), BuildingBlock: AJUNOK_clean_linker_0, # of connection points: 2
#     Edge 51, Type (0, 0), BuildingBlock: AJUNOK_clean_linker_0, # of connection points: 2
#     Edge 52, Type (0, 0), BuildingBlock: AJUNOK_clean_linker_0, # of connection points: 2
#     Edge 53, Type (0, 0), BuildingBlock: AJUNOK_clean_linker_0, # of connection points: 2
#     Edge 54, Type (0, 0), BuildingBlock: AJUNOK_clean_linker_0, # of connection points: 2
#     Edge 55, Type (0, 0), BuildingBlock: AJUNOK_clean_linker_0, # of connection points: 2
#     Edge 56, Type (0, 0), BuildingBlock: AJUNOK_clean_linker_0, # of connection points: 2
#     Edge 57, Type (0, 0), BuildingBlock: AJUNOK_clean_linker_0, # of connection points: 2
#     Edge 58, Type (0, 0), BuildingBlock: AJUNOK_clean_linker_0, # of connection points: 2
#     Edge 59, Type (0, 0), BuildingBlock: AJUNOK_clean_linker_0, # of connection points: 2
#     Edge 60, Type (0, 0), BuildingBlock: AJUNOK_clean_linker_0, # of connection points: 2
#     Edge 61, Type (0, 0), BuildingBlock: AJUNOK_clean_linker_0, # of connection points: 2
#     Edge 62, Type (0, 0), BuildingBlock: AJUNOK_clean_linker_0, # of connection points: 2
#     Edge 63, Type (0, 0), BuildingBlock: AJUNOK_clean_linker_0, # of connection points: 2
# Relax obj value: 0.227
# Max RMSD: 0.207
# Mean RMSD: 0.207
data_MOF--net-whw--node1-GEDQOX_clean_sbu_0--edge1-AJUNOK_clean_linker_0
_symmetry_space_group_name_H-M    P1
_symmetry_Int_Tables_number       1
_symmetry_cell_setting            triclinic
loop_
_symmetry_equiv_pos_as_xyz
'x, y, z'
_cell_length_a     33.876122
_cell_length_b     33.924421
_cell_length_c     28.061454
_cell_angle_alpha  89.9699
_cell_angle_beta   90.09747
_cell_angle_gamma 90.024301
loop_
_atom_site_label
_atom_site_type_symbol
_atom_site_fract_x
_atom_site_fract_y
_atom_site_fract_z
_atom_type_partial_charge
Nd0 Nd 0.96177 0.08685 0.14254 0.0
Nd1 Nd 0.04387 0.08321 0.19009 0.0
C2 C 0.90418 0.08235 0.07893 0.0
C3 C 0.90159 0.09701 1.02944 0.0
C4 C 0.88221 0.07493 0.99413 0.0
C5 C 0.87954 0.08924 0.94729 0.0
C6 C 0.89612 0.12591 0.93525 0.0
C7 C 0.91679 0.14716 0.9703 0.0
C8 C 0.91952 0.13288 1.01684 0.0
C9 C 0.98176 0.15416 0.19111 0.0
C10 C 0.04228 0.11094 0.08048 0.0
C11 C 0.1055 0.08629 0.2486 0.0
C12 C 0.11664 0.09998 0.29701 0.0
C13 C 0.0928 0.09251 0.33699 0.0
C14 C 0.10432 0.10552 0.38242 0.0
C15 C 0.14001 0.12617 0.38889 0.0
C16 C 0.16377 0.1335 0.34875 0.0
C17 C 0.15224 0.12049 0.30343 0.0
C18 C 0.02643 0.02065 0.13091 0.0
C19 C 0.96161 0.07125 0.2536 0.0
O20 O 0.92923 0.0538 0.08639 0.0
O21 O 0.90557 0.10918 0.11229 0.0
O22 O 0.94616 0.14019 0.18828 0.0
O23 O 0.00529 0.13377 0.1663 0.0
O24 O 0.00443 0.10184 0.08183 0.0
O25 O 0.06441 0.11079 0.11943 0.0
O26 O 0.09792 0.1134 0.21668 0.0
O27 O 0.08187 0.05582 0.24536 0.0
O28 O 0.06172 0.03394 0.13853 0.0
O29 O 0.00269 0.03707 0.15963 0.0
O30 O -0.00153 0.08418 0.2517 0.0
O31 O 0.94192 0.06213 0.2144 0.0
H32 H 0.86875 0.04688 1.00292 0.0
H33 H 0.86351 0.0723 0.92088 0.0
H34 H 0.93054 0.17512 0.96174 0.0
H35 H 0.93557 0.15004 0.04304 0.0
H36 H 0.06518 0.07684 0.33312 0.0
H37 H 0.08482 0.10021 0.41229 0.0
H38 H 0.19137 0.14935 0.35242 0.0
H39 H 0.17121 0.12653 0.27323 0.0
Nd40 Nd 0.15127 0.7097 0.39087 0.0
Nd41 Nd 0.15565 0.79132 0.43687 0.0
C42 C 0.1571 0.65071 0.32949 0.0
C43 C 0.14177 0.64376 0.28074 0.0
C44 C 0.16811 0.63745 0.24288 0.0
C45 C 0.15401 0.63231 0.19632 0.0
C46 C 0.11325 0.63352 0.18669 0.0
C47 C 0.08698 0.63941 0.22479 0.0
C48 C 0.10104 0.64466 0.27118 0.0
C49 C 0.08311 0.73048 0.43702 0.0
C50 C 0.12684 0.79039 0.32842 0.0
C51 C 0.15423 0.85216 0.49615 0.0
C52 C 0.13945 0.86057 0.5446 0.0
C53 C 0.10873 0.83821 0.56453 0.0
C54 C 0.09418 0.84727 0.60991 0.0
C55 C 0.11033 0.87856 0.63651 0.0
C56 C 0.14154 0.90045 0.61674 0.0
C57 C 0.15592 0.89152 0.57117 0.0
C58 C 0.21896 0.77186 0.37973 0.0
C59 C 0.16462 0.71082 0.50258 0.0
O60 O 0.18385 0.67817 0.33377 0.0
O61 O 0.13135 0.6515 0.3641 0.0
O62 O 0.09669 0.69477 0.43483 0.0
O63 O 0.1043 0.7537 0.41271 0.0
O64 O 0.1361 0.75247 0.32935 0.0
O65 O 0.12797 0.81244 0.36719 0.0
O66 O 0.12755 0.84609 0.46315 0.0
O67 O 0.1841 0.82783 0.49307 0.0
O68 O 0.20519 0.80727 0.38448 0.0
O69 O 0.2019 0.74912 0.40904 0.0
O70 O 0.15102 0.74715 0.49887 0.0
O71 O 0.17462 0.69053 0.4642 0.0
H72 H 0.19965 0.63665 0.24932 0.0
H73 H 0.17499 0.62692 0.16801 0.0
H74 H 0.05544 0.64086 0.21858 0.0
H75 H 0.0799 0.64987 0.29939 0.0
H76 H 0.09588 0.81387 0.54494 0.0
H77 H 0.07035 0.82966 0.62435 0.0
H78 H 0.15425 0.92502 0.63605 0.0
H79 H 0.17968 0.90909 0.55646 0.0
Nd80 Nd 0.53808 0.89489 0.63868 0.0
Nd81 Nd 0.4569 0.90224 0.68612 0.0
C82 C 0.59619 0.89646 0.57589 0.0
C83 C 0.59922 0.88425 0.52524 0.0
C84 C 0.58432 0.90792 0.48807 0.0
C85 C 0.58511 0.89453 0.44082 0.0
C86 C 0.6004 0.85711 0.43004 0.0
C87 C 0.61607 0.83392 0.46693 0.0
C88 C 0.61569 0.84741 0.51391 0.0
C89 C 0.51681 0.82941 0.68967 0.0
C90 C 0.45596 0.87055 0.57882 0.0
C91 C 0.39676 0.90284 0.74667 0.0
C92 C 0.38819 0.88831 0.79532 0.0
C93 C 0.41073 0.85799 0.81585 0.0
C94 C 0.40076 0.84275 0.86067 0.0
C95 C 0.36824 0.85773 0.88606 0.0
C96 C 0.34672 0.88918 0.86629 0.0
C97 C 0.3565 0.90417 0.82119 0.0
C98 C 0.47661 0.96298 0.62505 0.0
C99 C 0.539 0.91126 0.74991 0.0
O100 O 0.57448 0.92728 0.58566 0.0
O101 O 0.59134 0.86802 0.60673 0.0
O102 O 0.55268 0.84263 0.68667 0.0
O103 O 0.49362 0.84978 0.66425 0.0
O104 O 0.49382 0.88032 0.57833 0.0
O105 O 0.43496 0.87179 0.61844 0.0
O106 O 0.40155 0.87599 0.71368 0.0
O107 O 0.42212 0.9318 0.74304 0.0
O108 O 0.44089 0.95057 0.63194 0.0
O109 O 0.49952 0.94652 0.65467 0.0
O110 O 0.50196 0.89928 0.74746 0.0
O111 O 0.55944 0.91882 0.7108 0.0
H112 H 0.57155 0.93652 0.49545 0.0
H113 H 0.5731 0.91303 0.41287 0.0
H114 H 0.62876 0.80529 0.45935 0.0
H115 H 0.62779 0.82863 0.54154 0.0
H116 H 0.43576 0.84577 0.797 0.0
H117 H 0.41835 0.81903 0.87542 0.0
H118 H 0.32162 0.90134 0.88509 0.0
H119 H 0.33888 0.92775 0.80614 0.0
Nd120 Nd 0.35804 0.27898 0.88576 0.0
Nd121 Nd 0.34936 0.19944 0.93718 0.0
C122 C 0.35602 0.33437 0.81949 0.0
C123 C 0.36754 0.33519 0.76849 0.0
C124 C 0.33881 0.33195 0.73242 0.0
C125 C 0.34982 0.33153 0.6843 0.0
C126 C 0.38979 0.33426 0.67131 0.0
C127 C 0.4184 0.33789 0.70739 0.0
C128 C 0.40746 0.33828 0.75532 0.0
C129 C 0.42236 0.25957 0.93998 0.0
C130 C 0.38351 0.1954 0.83115 0.0
C131 C 0.34907 0.13948 0.99797 0.0
C132 C 0.36351 0.12884 0.04621 0.0
C133 C 0.35789 0.15357 0.08583 0.0
C134 C 0.37284 0.14295 0.13073 0.0
C135 C 0.39391 0.10755 0.13679 0.0
C136 C 0.39875 0.08255 0.09728 0.0
C137 C 0.38375 0.09311 0.05254 0.0
C138 C 0.28915 0.21862 0.87478 0.0
C139 C 0.33958 0.28384 0.99624 0.0
O140 O 0.32545 0.31276 0.83052 0.0
O141 O 0.38453 0.33121 0.85075 0.0
O142 O 0.40931 0.2953 0.93443 0.0
O143 O 0.40246 0.23545 0.91524 0.0
O144 O 0.37542 0.23346 0.82842 0.0
O145 O 0.37926 0.17499 0.87079 0.0
O146 O 0.37599 0.14431 0.96512 0.0
O147 O 0.32014 0.16499 0.99454 0.0
O148 O 0.30149 0.18297 0.88201 0.0
O149 O 0.30596 0.24166 0.90375 0.0
O150 O 0.35062 0.24641 0.9967 0.0
O151 O 0.33292 0.30264 0.95573 0.0
H152 H 0.3078 0.32964 0.74139 0.0
H153 H 0.3271 0.32894 0.65727 0.0
H154 H 0.44934 0.34124 0.69855 0.0
H155 H 0.43043 0.34109 0.78199 0.0
H156 H 0.34234 0.18124 0.08204 0.0
H157 H 0.36881 0.16288 0.16047 0.0
H158 H 0.41431 0.05483 0.10094 0.0
H159 H 0.38825 0.07342 1.02266 0.0
Nd160 Nd 0.95648 0.89691 0.88634 0.0
Nd161 Nd 0.03791 0.88928 0.93391 0.0
C162 C 0.89577 0.89676 0.82634 0.0
C163 C 0.88693 0.88265 0.77754 0.0
C164 C 0.90859 0.85173 0.75707 0.0
C165 C 0.89836 0.83702 0.71205 0.0
C166 C 0.86644 0.85311 0.68637 0.0
C167 C 0.84582 0.88511 0.70609 0.0
C168 C 0.85585 0.8996 0.7514 0.0
C169 C 0.97703 0.95827 0.94593 0.0
C170 C 0.03854 0.9058 0.82267 0.0
C171 C 0.09906 0.89065 0.99286 0.0
C172 C 0.10557 0.88308 0.04406 0.0
C173 C 0.0828 0.90162 0.07949 0.0
C174 C 0.08657 0.89026 0.12729 0.0
C175 C 0.11239 0.85963 0.14001 0.0
C176 C 0.13644 0.8426 0.10492 0.0
C177 C 0.13315 0.85432 0.05744 0.0
C178 C 0.01563 0.82386 0.8831 0.0
C179 C 0.95604 0.86834 0.99522 0.0
O180 O 0.90152 0.86966 0.85887 0.0
O181 O 0.92048 0.92628 0.83016 0.0
O182 O 0.94111 0.94619 0.93942 0.0
O183 O -0.00029 0.94098 0.91689 0.0
O184 O 0.00129 0.8943 0.82459 0.0
O185 O 0.05865 0.9134 0.86198 0.0
O186 O 0.07907 0.92208 0.981 0.0
O187 O 0.08933 0.8599 0.96748 0.0
O188 O 0.05146 0.83728 0.88507 0.0
O189 O 0.99298 0.84438 0.9089 0.0
O190 O 0.99401 0.87775 0.99535 0.0
O191 O 0.93468 0.86898 0.95572 0.0
H192 H 0.9331 0.8386 0.77614 0.0
H193 H 0.91527 0.81282 0.69738 0.0
H194 H 0.82121 0.89815 0.68709 0.0
H195 H 0.83891 0.92366 0.76637 0.0
H196 H 0.06111 0.92374 0.07014 0.0
H197 H 0.06774 0.90379 0.15382 0.0
H198 H 0.15698 0.8193 0.11407 0.0
H199 H 0.15113 0.83979 1.03081 0.0
Nd200 Nd 0.3453 0.7022 0.13429 0.0
Nd201 Nd 0.35338 0.78371 0.18164 0.0
C202 C 0.34336 0.64248 0.07329 0.0
C203 C 0.35717 0.63421 1.02424 0.0
C204 C 0.39069 0.65308 1.00558 0.0
C205 C 0.40475 0.64333 0.96017 0.0
C206 C 0.3852 0.61504 0.93205 0.0
C207 C 0.35094 0.59709 0.95018 0.0
C208 C 0.33716 0.60651 0.99593 0.0
C209 C 0.2863 0.72114 0.19788 0.0
C210 C 0.33621 0.78417 0.0702 0.0
C211 C 0.35103 0.84245 0.24361 0.0
C212 C 0.36014 0.84676 0.29488 0.0
C213 C 0.34594 0.81989 0.32906 0.0
C214 C 0.35837 0.8225 0.37665 0.0
C215 C 0.38566 0.85157 0.3906 0.0
C216 C 0.39892 0.87892 0.35657 0.0
C217 C 0.38616 0.87662 0.3093 0.0
C218 C 0.41789 0.76228 0.1287 0.0
C219 C 0.38106 0.702 0.23975 0.0
O220 O 0.37065 0.64677 0.10601 0.0
O221 O 0.31449 0.66786 0.07776 0.0
O222 O 0.2987 0.68559 0.19023 0.0
O223 O 0.3017 0.74439 0.16784 0.0
O224 O 0.34743 0.74697 0.0727 0.0
O225 O 0.32948 0.8049 0.10931 0.0
O226 O 0.31993 0.82174 0.23178 0.0
O227 O 0.38133 0.83539 0.21621 0.0
O228 O 0.40507 0.79826 0.13227 0.0
O229 O 0.39778 0.73947 0.15473 0.0
O230 O 0.37028 0.73954 0.24117 0.0
O231 O 0.37847 0.68082 0.20034 0.0
H232 H 0.40622 0.67511 1.02624 0.0
H233 H 0.43097 0.65795 0.94693 0.0
H234 H 0.33542 0.57502 0.92949 0.0
H235 H 0.31115 0.59172 1.00949 0.0
H236 H 0.32623 0.7962 0.31882 0.0
H237 H 0.34804 0.80076 0.40202 0.0
H238 H 0.41968 0.90182 0.36646 0.0
H239 H 0.39756 0.89758 0.28361 0.0
Nd240 Nd 0.54987 0.09204 0.38592 0.0
Nd241 Nd 0.46903 0.09818 0.43339 0.0
C242 C 0.61074 0.09459 0.32681 0.0
C243 C 0.61933 0.10803 0.27779 0.0
C244 C 0.59858 0.13966 0.25736 0.0
C245 C 0.6087 0.15359 0.21201 0.0
C246 C 0.63945 0.13593 0.18598 0.0
C247 C 0.65946 0.10362 0.20603 0.0
C248 C 0.64951 0.08985 0.25157 0.0
C249 C 0.52976 0.02931 0.44369 0.0
C250 C 0.46802 0.08181 0.32215 0.0
C251 C 0.41108 0.0953 0.49618 0.0
C252 C 0.40866 0.1074 0.54687 0.0
C253 C 0.41162 0.07924 0.58354 0.0
C254 C 0.41155 0.09096 0.6314 0.0
C255 C 0.40868 0.13107 0.64346 0.0
C256 C 0.40504 0.15908 0.60684 0.0
C257 C 0.40505 0.14744 0.55917 0.0
C258 C 0.49021 0.16455 0.38393 0.0
C259 C 0.55115 0.11929 0.49471 0.0
O260 O 0.60303 0.12211 0.35819 0.0
O261 O 0.58791 0.06365 0.33123 0.0
O262 O 0.5655 0.04229 0.43849 0.0
O263 O 0.50707 0.04687 0.4148 0.0
O264 O 0.50499 0.09407 0.32428 0.0
O265 O 0.44775 0.07427 0.36136 0.0
O266 O 0.43364 0.06511 0.48664 0.0
O267 O 0.41474 0.12352 0.46476 0.0
O268 O 0.45454 0.1507 0.38587 0.0
O269 O 0.51327 0.14412 0.40948 0.0
O270 O 0.51285 0.11155 0.49468 0.0
O271 O 0.5725 0.11807 0.45549 0.0
H272 H 0.57494 0.15396 0.27674 0.0
H273 H 0.59254 0.17832 0.19728 0.0
H274 H 0.68351 0.08968 0.18704 0.0
H275 H 0.66585 0.0654 0.26668 0.0
H276 H 0.41435 0.04818 0.57522 0.0
H277 H 0.41412 0.06874 0.65896 0.0
H278 H 0.40165 0.1901 0.61506 0.0
H279 H 0.40244 0.16997 0.532 0.0
Nd280 Nd 0.15921 0.28388 0.63159 0.0
Nd281 Nd 0.15362 0.20527 0.68536 0.0
C282 C 0.15702 0.34216 0.56869 0.0
C283 C 0.14251 0.35 0.51982 0.0
C284 C 0.10638 0.33453 0.50373 0.0
C285 C 0.09189 0.34437 0.4585 0.0
C286 C 0.11335 0.36954 0.42821 0.0
C287 C 0.14991 0.38428 0.44399 0.0
C288 C 0.16429 0.37463 0.4894 0.0
C289 C 0.22153 0.26729 0.6921 0.0
C290 C 0.16868 0.19955 0.57372 0.0
C291 C 0.16019 0.15036 0.75209 0.0
C292 C 0.1441 0.14612 0.80062 0.0
C293 C 0.16673 0.12851 0.83678 0.0
C294 C 0.15138 0.12447 0.88292 0.0
C295 C 0.11307 0.13783 0.89341 0.0
C296 C 0.09105 0.15637 0.85732 0.0
C297 C 0.10639 0.16059 0.81149 0.0
C298 C 0.08666 0.22307 0.63475 0.0
C299 C 0.12544 0.28961 0.73771 0.0
O300 O 0.13022 0.33676 0.60165 0.0
O301 O 0.18725 0.31837 0.57315 0.0
O302 O 0.20832 0.30247 0.68376 0.0
O303 O 0.20455 0.24309 0.66457 0.0
O304 O 0.15646 0.2365 0.57315 0.0
O305 O 0.17719 0.18144 0.61425 0.0
O306 O 0.1859 0.17857 0.74628 0.0
O307 O 0.1348 0.1484 0.71701 0.0
O308 O 0.10011 0.18757 0.64077 0.0
O309 O 0.10755 0.24757 0.65755 0.0
O310 O 0.13368 0.2515 0.74134 0.0
O311 O 0.12992 0.30935 0.69761 0.0
H312 H 0.08908 0.31527 0.52635 0.0
H313 H 0.06379 0.33231 0.44716 0.0
H314 H 0.1669 0.40406 0.42171 0.0
H315 H 0.19217 0.38696 0.50112 0.0
H316 H 0.19613 0.11763 0.82923 0.0
H317 H 0.16899 0.11001 0.91002 0.0
H318 H 0.06166 0.16731 0.86449 0.0
H319 H 0.08862 0.17494 0.78444 0.0
Nd320 Nd 0.84692 0.19655 0.63737 0.0
Nd321 Nd 0.85399 0.27821 0.6834 0.0
C322 C 0.84878 0.13467 0.57947 0.0
C323 C 0.86291 0.12361 0.53119 0.0
C324 C 0.88572 0.08938 0.52551 0.0
C325 C 0.89936 0.07808 0.48041 0.0
C326 C 0.89031 0.10062 0.43973 0.0
C327 C 0.86743 0.13495 0.44545 0.0
C328 C 0.85385 0.1463 0.49064 0.0
C329 C 0.784 0.21805 0.69413 0.0
C330 C 0.83791 0.2783 0.57266 0.0
C331 C 0.85206 0.33832 0.74334 0.0
C332 C 0.86281 0.3423 0.7943 0.0
C333 C 0.83374 0.34007 0.82995 0.0
C334 C 0.84443 0.33987 0.87817 0.0
C335 C 0.88441 0.34139 0.89157 0.0
C336 C 0.91317 0.34587 0.85594 0.0
C337 C 0.90255 0.34622 0.80794 0.0
C338 C 0.92053 0.25487 0.63531 0.0
C339 C 0.87208 0.19743 0.74782 0.0
O340 O 0.87575 0.14161 0.61181 0.0
O341 O 0.81869 0.1588 0.58242 0.0
O342 O 0.79618 0.18209 0.68887 0.0
O343 O 0.80221 0.24029 0.66531 0.0
O344 O 0.84968 0.24113 0.5748 0.0
O345 O 0.82963 0.29831 0.61169 0.0
O346 O 0.82125 0.3166 0.73368 0.0
O347 O 0.88105 0.33214 0.71359 0.0
O348 O 0.90743 0.29079 0.63628 0.0
O349 O 0.89935 0.23273 0.66104 0.0
O350 O 0.86415 0.23554 0.74603 0.0
O351 O 0.87238 0.17541 0.70889 0.0
H352 H 0.89308 0.07133 0.55613 0.0
H353 H 0.91693 0.05154 0.47731 0.0
H354 H 0.86071 0.15353 0.41511 0.0
H355 H 0.83648 0.17294 0.49385 0.0
H356 H 0.80282 0.33749 0.82058 0.0
H357 H 0.82154 0.33701 0.90485 0.0
H358 H 0.94409 0.34903 0.86514 0.0
H359 H 0.92571 0.34882 0.78156 0.0
Nd360 Nd 0.65427 0.78901 0.13551 0.0
Nd361 Nd 0.64698 0.70756 0.18387 0.0
C362 C 0.65323 0.84919 0.07516 0.0
C363 C 0.6401 0.8573 1.02576 0.0
C364 C 0.60853 0.83636 1.0054 0.0
C365 C 0.59425 0.84652 0.96015 0.0
C366 C 0.61132 0.87771 0.93423 0.0
C367 C 0.64406 0.89742 0.95375 0.0
C368 C 0.65819 0.88742 0.99924 0.0
C369 C 0.71491 0.76929 0.19672 0.0
C370 C 0.66454 0.70653 0.07248 0.0
C371 C 0.6501 0.64854 0.24569 0.0
C372 C 0.64292 0.64467 0.29723 0.0
C373 C 0.64432 0.67779 0.32728 0.0
C374 C 0.63232 0.67477 0.37484 0.0
C375 C 0.6192 0.63855 0.39303 0.0
C376 C 0.6194 0.60512 0.3636 0.0
C377 C 0.63104 0.60821 0.31593 0.0
C378 C 0.58247 0.72849 0.13064 0.0
C379 C 0.62189 0.78986 0.24239 0.0
O380 O 0.62538 0.84234 0.10645 0.0
O381 O 0.68382 0.82598 0.08049 0.0
O382 O 0.70224 0.805 0.19051 0.0
O383 O 0.69829 0.74646 0.16726 0.0
O384 O 0.65374 0.74393 0.07408 0.0
O385 O 0.67041 0.68587 0.11188 0.0
O386 O 0.68103 0.66894 0.23279 0.0
O387 O 0.61896 0.65659 0.21997 0.0
O388 O 0.59578 0.6927 0.13412 0.0
O389 O 0.60225 0.75154 0.15682 0.0
O390 O 0.6312 0.75196 0.24345 0.0
O391 O 0.62453 0.81122 0.20318 0.0
H392 H 0.59439 0.81267 1.02487 0.0
H393 H 0.56946 0.8303 0.94561 0.0
H394 H 0.65785 0.92144 0.93453 0.0
H395 H 0.68272 0.90381 1.01416 0.0
H396 H 0.65361 0.70617 0.31371 0.0
H397 H 0.63246 0.70083 0.39714 0.0
H398 H 0.60925 0.57696 0.3771 0.0
H399 H 0.62962 0.58239 0.29327 0.0
Nd400 Nd 0.65367 0.20635 0.89038 0.0
Nd401 Nd 0.65808 0.28908 0.93686 0.0
C402 C 0.6561 0.14574 0.83104 0.0
C403 C 0.64385 0.13943 0.78081 0.0
C404 C 0.66998 0.14681 0.74295 0.0
C405 C 0.65722 0.14343 0.69564 0.0
C406 C 0.61804 0.13263 0.68514 0.0
C407 C 0.59241 0.12392 0.72305 0.0
C408 C 0.60517 0.12713 0.77022 0.0
C409 C 0.58749 0.22781 0.94019 0.0
C410 C 0.63003 0.28662 0.82739 0.0
C411 C 0.65281 0.3512 0.99404 0.0
C412 C 0.64026 0.36231 0.0429 0.0
C413 C 0.61836 0.39699 0.04952 0.0
C414 C 0.6056 0.40814 0.09503 0.0
C415 C 0.61454 0.38494 0.13521 0.0
C416 C 0.6368 0.3503 0.12859 0.0
C417 C 0.64957 0.33914 0.08293 0.0
C418 C 0.71991 0.27058 0.87696 0.0
C419 C 0.67122 0.20751 1.00111 0.0
O420 O 0.6863 0.1689 0.83874 0.0
O421 O 0.62773 0.15137 0.86176 0.0
O422 O 0.60131 0.19219 0.93884 0.0
O423 O 0.60767 0.25034 0.91397 0.0
O424 O 0.63987 0.24889 0.82851 0.0
O425 O 0.62985 0.30854 0.8664 0.0
O426 O 0.62491 0.34087 0.96418 0.0
O427 O 0.68491 0.32994 0.98953 0.0
O428 O 0.70705 0.3061 0.88409 0.0
O429 O 0.70362 0.24737 0.9064 0.0
O430 O 0.65861 0.2444 0.9991 0.0
O431 O 0.67958 0.18754 0.96201 0.0
H432 H 0.70004 0.15612 0.7498 0.0
H433 H 0.67765 0.15088 0.6674 0.0
H434 H 0.56229 0.11475 0.71625 0.0
H435 H 0.58439 0.12057 0.79843 0.0
H436 H 0.6109 0.41545 1.01929 0.0
H437 H 0.58855 0.43496 0.09879 0.0
H438 H 0.64348 0.33125 0.15852 0.0
H439 H 0.66637 0.31224 0.07889 0.0
Nd440 Nd 0.84934 0.7809 0.38934 0.0
Nd441 Nd 0.84514 0.69949 0.4376 0.0
C442 C 0.8444 0.83977 0.32741 0.0
C443 C 0.85543 0.84574 0.27676 0.0
C444 C 0.83714 0.82467 0.2395 0.0
C445 C 0.85066 0.82856 0.19248 0.0
C446 C 0.8831 0.85293 0.18213 0.0
C447 C 0.90013 0.87518 0.21902 0.0
C448 C 0.88635 0.87175 0.26571 0.0
C449 C 0.91665 0.76092 0.43809 0.0
C450 C 0.87498 0.69917 0.32965 0.0
C451 C 0.84811 0.6394 0.49804 0.0
C452 C 0.8617 0.63133 0.54728 0.0
C453 C 0.89316 0.65254 0.56747 0.0
C454 C 0.90754 0.64265 0.61277 0.0
C455 C 0.89075 0.61141 0.6389 0.0
C456 C 0.85815 0.59138 0.61948 0.0
C457 C 0.84389 0.60115 0.57398 0.0
C458 C 0.78261 0.71755 0.37817 0.0
C459 C 0.83484 0.78115 0.50134 0.0
O460 O 0.81497 0.81606 0.3368 0.0
O461 O 0.87373 0.8354 0.3572 0.0
O462 O 0.90246 0.7964 0.43582 0.0
O463 O 0.89599 0.73751 0.41341 0.0
O464 O 0.8645 0.73682 0.32906 0.0
O465 O 0.87416 0.67795 0.36912 0.0
O466 O 0.87553 0.64682 0.46637 0.0
O467 O 0.81706 0.66203 0.49321 0.0
O468 O 0.79602 0.6822 0.38497 0.0
O469 O 0.79918 0.74092 0.40717 0.0
O470 O 0.84759 0.74446 0.49875 0.0
O471 O 0.82636 0.80145 0.46233 0.0
H472 H 0.8132 0.8044 0.24674 0.0
H473 H 0.837 0.81113 0.16463 0.0
H474 H 0.92472 0.89473 0.21182 0.0
H475 H 0.90067 0.88868 0.29354 0.0
H476 H 0.90705 0.67633 0.5479 0.0
H477 H 0.93216 0.65919 0.62724 0.0
H478 H 0.84455 0.56731 0.63881 0.0
H479 H 0.81942 0.58457 0.55922 0.0
Nd480 Nd 0.46236 0.59949 0.63619 0.0
Nd481 Nd 0.54247 0.59132 0.68743 0.0
C482 C 0.40448 0.59839 0.57288 0.0
C483 C 0.40205 0.60718 0.52143 0.0
C484 C 0.42914 0.59123 0.48865 0.0
C485 C 0.42883 0.60358 0.44097 0.0
C486 C 0.40191 0.63241 0.42579 0.0
C487 C 0.37433 0.64755 0.45822 0.0
C488 C 0.37428 0.6349 0.50555 0.0
C489 C 0.48385 0.66453 0.68782 0.0
C490 C 0.54607 0.61915 0.57831 0.0
C491 C 0.60355 0.59341 0.74676 0.0
C492 C 0.61458 0.60639 0.79539 0.0
C493 C 0.58832 0.60358 0.83398 0.0
C494 C 0.59939 0.61733 0.87929 0.0
C495 C 0.63675 0.63447 0.88668 0.0
C496 C 0.66316 0.63649 0.84816 0.0
C497 C 0.65218 0.62261 0.80306 0.0
C498 C 0.52258 0.53003 0.62717 0.0
C499 C 0.45824 0.58332 0.74779 0.0
O500 O 0.42384 0.56679 0.58581 0.0
O501 O 0.41199 0.62866 0.60017 0.0
O502 O 0.44789 0.65169 0.6841 0.0
O503 O 0.50707 0.64382 0.663 0.0
O504 O 0.50781 0.6114 0.57651 0.0
O505 O 0.56628 0.61792 0.61855 0.0
O506 O 0.59582 0.62128 0.71582 0.0
O507 O 0.57996 0.56294 0.74264 0.0
O508 O 0.55848 0.54187 0.63453 0.0
O509 O 0.4996 0.54765 0.65552 0.0
O510 O 0.49607 0.59309 0.74769 0.0
O511 O 0.4388 0.57682 0.70762 0.0
H512 H 0.4512 0.57012 0.50005 0.0
H513 H 0.4504 0.59169 0.41642 0.0
H514 H 0.35323 0.66973 0.44703 0.0
H515 H 0.3533 0.64772 0.53019 0.0
H516 H 0.55915 0.59126 0.82898 0.0
H517 H 0.57835 0.61557 0.90824 0.0
H518 H 0.6923 0.64908 0.85287 0.0
H519 H 0.673 0.62492 0.77392 0.0
Nd520 Nd 0.03373 0.38339 0.1332 0.0
Nd521 Nd 0.95418 0.3931 0.18553 0.0
C522 C 0.09098 0.3864 0.06911 0.0
C523 C 0.0929 0.38231 1.01701 0.0
C524 C 0.05822 0.381 0.98952 0.0
C525 C 0.05992 0.37124 0.94116 0.0
C526 C 0.09641 0.36327 0.91953 0.0
C527 C 0.13122 0.36684 0.94647 0.0
C528 C 0.12944 0.37603 0.99499 0.0
C529 C 0.01322 0.31958 0.18763 0.0
C530 C 0.94884 0.35902 0.07981 0.0
C531 C 0.89418 0.39252 0.24609 0.0
C532 C 0.88434 0.37913 0.29491 0.0
C533 C 0.91013 0.38499 0.33355 0.0
C534 C 0.9003 0.37101 0.37908 0.0
C535 C 0.86456 0.35079 0.3868 0.0
C536 C 0.83886 0.34505 0.34804 0.0
C537 C 0.84859 0.35921 0.30268 0.0
C538 C 0.97352 0.4525 0.12196 0.0
C539 C 0.03916 0.40074 0.24459 0.0
O540 O 0.07312 0.4177 0.08555 0.0
O541 O 0.08138 0.35437 0.09222 0.0
O542 O 0.04927 0.33193 0.18216 0.0
O543 O 0.98962 0.34005 0.16294 0.0
O544 O 0.9868 0.36779 0.07634 0.0
O545 O 0.92902 0.36273 0.1199 0.0
O546 O 0.90035 0.36477 0.21459 0.0
O547 O 0.91835 0.42249 0.24141 0.0
O548 O 0.93769 0.44103 0.1304 0.0
O549 O -0.00331 0.43564 0.1508 0.0
O550 O 0.0011 0.39198 0.24531 0.0
O551 O 0.0584 0.40582 0.2041 0.0
H552 H 0.02976 0.38624 1.00567 0.0
H553 H 0.03273 0.36884 0.92098 0.0
H554 H 0.15964 0.36055 0.93053 0.0
H555 H 0.15647 0.37685 1.01567 0.0
H556 H 0.93803 0.39996 0.3285 0.0
H557 H 0.92107 0.37521 0.40803 0.0
H558 H 0.81117 0.32958 0.35287 0.0
H559 H 0.82825 0.35428 0.27344 0.0
Nd560 Nd 0.45803 0.40302 0.38057 0.0
Nd561 Nd 0.53734 0.39633 0.43266 0.0
C562 C 0.39893 0.40379 0.3184 0.0
C563 C 0.39038 0.38959 0.26969 0.0
C564 C 0.41068 0.35722 0.25051 0.0
C565 C 0.40044 0.34241 0.2056 0.0
C566 C 0.37008 0.35999 0.17868 0.0
C567 C 0.35054 0.39306 0.19742 0.0
C568 C 0.36056 0.40765 0.24261 0.0
C569 C 0.47464 0.46351 0.44352 0.0
C570 C 0.54188 0.41242 0.32102 0.0
C571 C 0.59306 0.40219 0.49869 0.0
C572 C 0.59539 0.3887 0.54851 0.0
C573 C 0.61931 0.40847 0.5817 0.0
C574 C 0.6224 0.3945 0.62863 0.0
C575 C 0.60164 0.36058 0.6427 0.0
C576 C 0.57648 0.342 0.60989 0.0
C577 C 0.57337 0.35589 0.56327 0.0
C578 C 0.51949 0.33063 0.38009 0.0
C579 C 0.45375 0.36588 0.48516 0.0
O580 O 0.40338 0.37672 0.35123 0.0
O581 O 0.42436 0.43268 0.32254 0.0
O582 O 0.43951 0.45019 0.435 0.0
O583 O 0.49883 0.44766 0.41503 0.0
O584 O 0.50465 0.40083 0.32105 0.0
O585 O 0.56072 0.42008 0.36134 0.0
O586 O 0.56741 0.42996 0.49011 0.0
O587 O 0.59245 0.37455 0.46626 0.0
O588 O 0.55505 0.34423 0.38598 0.0
O589 O 0.49495 0.35078 0.40378 0.0
O590 O 0.49171 0.375 0.48873 0.0
O591 O 0.43354 0.37088 0.44542 0.0
H592 H 0.43408 0.34306 0.27051 0.0
H593 H 0.41622 0.31708 0.19189 0.0
H594 H 0.32681 0.40696 0.17771 0.0
H595 H 0.34454 0.43266 0.25678 0.0
H596 H 0.63614 0.43416 0.57107 0.0
H597 H 0.64207 0.40924 0.65335 0.0
H598 H 0.56007 0.31598 0.62014 0.0
H599 H 0.55442 0.34046 0.5384 0.0
Nd600 Nd 0.04499 0.58744 0.88739 0.0
Nd601 Nd 0.96334 0.59052 0.93552 0.0
C602 C 0.10504 0.59285 0.82707 0.0
C603 C 0.11297 0.60749 0.77826 0.0
C604 C 0.09117 0.63881 0.75872 0.0
C605 C 0.10081 0.65403 0.71376 0.0
C606 C 0.13238 0.63824 0.68733 0.0
C607 C 0.15312 0.60589 0.70618 0.0
C608 C 0.1436 0.59079 0.75131 0.0
C609 C 0.0257 0.52244 0.94203 0.0
C610 C 0.96269 0.57776 0.82361 0.0
C611 C 0.90541 0.58765 0.99899 0.0
C612 C 0.90423 0.59868 0.0498 0.0
C613 C 0.93529 0.62065 0.06957 0.0
C614 C 0.93381 0.63322 0.11679 0.0
C615 C 0.90052 0.62533 0.14495 0.0
C616 C 0.86985 0.60222 0.12572 0.0
C617 C 0.87177 0.58888 0.07843 0.0
C618 C 0.984 0.65837 0.88888 0.0
C619 C 0.04596 0.61037 0.99703 0.0
O620 O 0.09706 0.61944 0.8595 0.0
O621 O 0.08299 0.56131 0.83095 0.0
O622 O 0.06132 0.53598 0.93721 0.0
O623 O 0.00268 0.5408 0.91422 0.0
O624 O -0.00058 0.5907 0.82655 0.0
O625 O 0.94238 0.56848 0.86233 0.0
O626 O 0.92727 0.55728 0.98819 0.0
O627 O 0.91053 0.6169 0.96941 0.0
O628 O 0.94841 0.64439 0.89032 0.0
O629 O 0.0071 0.63748 0.91371 0.0
O630 O 0.00879 0.5985 0.99634 0.0
O631 O 0.06669 0.61398 0.95749 0.0
H632 H 0.06705 0.65188 0.77851 0.0
H633 H 0.08371 0.67841 0.69975 0.0
H634 H 0.17747 0.59304 0.68664 0.0
H635 H 0.16067 0.56649 0.76557 0.0
H636 H 0.96025 0.62932 0.04818 0.0
H637 H 0.95829 0.6502 0.13086 0.0
H638 H 0.8438 0.59575 0.14665 0.0
H639 H 0.84747 0.57195 0.06385 0.0
C640 C 0.09817 0.13473 1.02834 0.0
C641 C 0.05992 0.11888 1.03278 0.0
C642 C 0.11542 0.14072 0.98327 0.0
C643 C 0.09508 0.13098 0.94106 0.0
H644 H 0.11493 0.14261 0.05982 0.0
H645 H 0.14474 0.15338 0.98144 0.0
S646 S -0.00385 0.08459 0.93264 0.0
N647 N 0.00333 0.09131 0.99019 0.0
N648 N 0.03611 0.10196 0.90658 0.0
C649 C 0.05724 0.11445 0.94499 0.0
C650 C 0.03955 0.10862 0.99051 0.0
C651 C 0.12349 0.84943 0.27443 0.0
C652 C 0.11794 0.80865 0.28153 0.0
C653 C 0.1205 0.86625 0.22874 0.0
C654 C 0.11213 0.84278 0.18872 0.0
H655 H 0.1317 0.86827 0.30397 0.0
H656 H 0.12617 0.89748 0.22443 0.0
S657 S 0.08913 0.73606 0.18868 0.0
N658 N 0.09922 0.74627 0.2449 0.0
N659 N 0.09422 0.77793 0.15948 0.0
C660 C 0.10455 0.80253 0.19564 0.0
C661 C 0.1073 0.78545 0.24192 0.0
C662 C 0.44349 0.85399 0.44584 0.0
C663 C 0.40234 0.8525 0.43963 0.0
C664 C 0.46036 0.85801 0.49114 0.0
C665 C 0.43681 0.8609 0.5324 0.0
H666 H 0.4629 0.85259 0.41522 0.0
H667 H 0.49223 0.85989 0.49347 0.0
S668 S 0.32721 0.85707 0.53536 0.0
N669 N 0.33829 0.85287 0.4783 0.0
N670 N 0.3698 0.86048 0.5638 0.0
C671 C 0.39552 0.85805 0.52682 0.0
C672 C 0.37835 0.85383 0.48041 0.0
C673 C 0.37511 0.14135 0.77193 0.0
C674 C 0.39537 0.17526 0.78703 0.0
C675 C 0.3809 0.12601 0.72602 0.0
C676 C 0.40742 0.14393 0.69402 0.0
H677 H 0.353 0.12798 0.79466 0.0
H678 H 0.36308 0.10119 0.71471 0.0
S679 S 0.47322 0.22861 0.72068 0.0
N680 N 0.44622 0.2234 0.76922 0.0
N681 N 0.45829 0.19385 0.68356 0.0
C682 C 0.42996 0.17609 0.71027 0.0
C683 C 0.42361 0.19197 0.75664 0.0
C684 C 0.87843 0.86307 0.09331 0.0
C685 C 0.90104 0.85356 0.13381 0.0
C686 C 0.89605 0.86633 0.04806 0.0
C687 C 0.93683 0.8599 0.04176 0.0
H688 H 0.84721 0.86928 0.09689 0.0
H689 H 0.87783 0.87529 1.01821 0.0
S690 S 0.00731 0.82777 0.13554 0.0
N691 N 0.9652 0.8338 0.164 0.0
N692 N -0.00183 0.83904 0.07937 0.0
C693 C 0.95918 0.84829 0.08173 0.0
C694 C 0.94134 0.84535 0.12761 0.0
C695 C 0.8942 0.14091 0.80026 0.0
C696 C 0.87857 0.17926 0.79566 0.0
C697 C 0.89967 0.12343 0.84538 0.0
C698 C 0.88968 0.14368 0.88743 0.0
H699 H 0.90249 0.12433 0.76886 0.0
H700 H 0.91222 0.09411 0.84742 0.0
S701 S 0.84402 0.24255 0.89558 0.0
N702 N 0.85109 0.23576 0.83803 0.0
N703 N 0.86083 0.20246 0.92175 0.0
C704 C 0.87327 0.18146 0.88335 0.0
C705 C 0.86788 0.19936 0.83781 0.0
C706 C 0.56569 0.14722 0.62426 0.0
C707 C 0.60314 0.13146 0.63514 0.0
C708 C 0.54962 0.14431 0.57834 0.0
C709 C 0.57068 0.12626 0.54115 0.0
H710 H 0.54836 0.16159 0.65163 0.0
H711 H 0.52027 0.15593 0.57205 0.0
S712 S 0.66947 0.07975 0.55057 0.0
N713 N 0.66043 0.09639 0.60474 0.0
N714 N 0.63083 0.09232 0.51803 0.0
C715 C 0.60856 0.11136 0.55102 0.0
C716 C 0.62466 0.11367 0.59806 0.0
C717 C 0.61992 0.8633 0.34418 0.0
C718 C 0.60077 0.84201 0.38045 0.0
C719 C 0.62488 0.84706 0.29852 0.0
C720 C 0.61094 0.809 0.2878 0.0
H721 H 0.63265 0.89193 0.35176 0.0
H722 H 0.64143 0.86361 0.27225 0.0
S723 S 0.55256 0.74444 0.3678 0.0
N724 N 0.56341 0.78325 0.40083 0.0
N725 N 0.57297 0.75262 0.3153 0.0
C726 C 0.58972 0.78848 0.32294 0.0
C727 C 0.58456 0.80503 0.36921 0.0
C728 C 0.56409 0.64969 0.4501 0.0
C729 C 0.60257 0.63605 0.44155 0.0
C730 C 0.54637 0.64496 0.49488 0.0
C731 C 0.56681 0.62705 0.53288 0.0
H732 H 0.5472 0.66309 0.42158 0.0
H733 H 0.51628 0.65503 0.4996 0.0
S734 S 0.66831 0.58609 0.52802 0.0
N735 N 0.6605 0.60365 0.47389 0.0
N736 N 0.62772 0.59541 0.55856 0.0
C737 C 0.60567 0.61395 0.52485 0.0
C738 C 0.6234 0.61822 0.47899 0.0
C739 C 0.60871 0.34444 0.77693 0.0
C740 C 0.62143 0.30492 0.78018 0.0
C741 C 0.60258 0.36269 0.73246 0.0
C742 C 0.60877 0.34198 0.68975 0.0
H743 H 0.60364 0.36155 0.8089 0.0
H744 H 0.59263 0.39302 0.73146 0.0
S745 S 0.64524 0.23971 0.67755 0.0
N746 N 0.64187 0.24662 0.73557 0.0
N747 N 0.63046 0.28124 0.65292 0.0
C748 C 0.62189 0.30288 0.69233 0.0
C749 C 0.62812 0.28424 0.73725 0.0
C750 C 0.89223 0.36557 1.02344 0.0
C751 C 0.92797 0.34732 0.03604 0.0
C752 C 0.87697 0.362 0.97709 0.0
C753 C 0.89655 0.33927 0.94245 0.0
H754 H 0.8776 0.3851 0.04831 0.0
H755 H 0.8511 0.37906 0.96765 0.0
S756 S 0.98369 0.27531 0.96367 0.0
N757 N 0.97798 0.29963 1.01411 0.0
N758 N 0.94813 0.29078 0.92792 0.0
C759 C 0.92959 0.31703 0.9568 0.0
C760 C 0.94559 0.32156 1.00343 0.0
C761 C 0.88048 0.63917 0.27759 0.0
C762 C 0.88552 0.6801 0.28379 0.0
C763 C 0.88559 0.62144 0.23273 0.0
C764 C 0.89661 0.64387 0.19273 0.0
H765 H 0.87101 0.62091 0.3071 0.0
H766 H 0.88062 0.59003 0.22926 0.0
S767 S 0.91646 0.75136 0.1907 0.0
N768 N 0.90446 0.74201 0.24651 0.0
N769 N 0.91365 0.70882 0.16256 0.0
C770 C 0.90297 0.68452 0.19886 0.0
C771 C 0.89757 0.70257 0.24426 0.0
C772 C 0.39799 0.36906 0.54296 0.0
C773 C 0.43339 0.35139 0.52812 0.0
C774 C 0.38273 0.36187 0.58866 0.0
C775 C 0.40192 0.33601 0.6204 0.0
H776 H 0.38342 0.39052 0.52041 0.0
H777 H 0.35704 0.37834 0.60006 0.0
S778 S 0.48819 0.273 0.59186 0.0
N779 N 0.48261 0.30121 0.54433 0.0
N780 N 0.45307 0.28628 0.62931 0.0
C781 C 0.43479 0.31487 0.60358 0.0
C782 C 0.45073 0.32285 0.55759 0.0
C783 C 0.39102 0.62553 0.33788 0.0
C784 C 0.40319 0.64849 0.37688 0.0
C785 C 0.38625 0.6425 0.29252 0.0
C786 C 0.39333 0.68297 0.28497 0.0
H787 H 0.38325 0.59484 0.343 0.0
H788 H 0.37476 0.62432 0.26397 0.0
S789 S 0.43339 0.75335 0.3741 0.0
N790 N 0.42744 0.71188 0.40405 0.0
N791 N 0.41872 0.74393 0.31911 0.0
C792 C 0.40833 0.70536 0.32316 0.0
C793 C 0.41316 0.68807 0.36909 0.0
C794 C 0.06484 0.60325 0.12999 0.0
C795 C 0.09761 0.62798 0.13743 0.0
C796 C 0.04852 0.59814 0.08459 0.0
C797 C 0.06455 0.61703 0.04431 0.0
H798 H 0.05169 0.58747 0.15954 0.0
H799 H 0.02322 0.57882 0.08114 0.0
S800 S 0.14866 0.68704 0.04464 0.0
N801 N 0.14421 0.67344 0.1009 0.0
N802 N 0.11419 0.66273 1.01507 0.0
C803 C 0.09729 0.64191 0.05103 0.0
C804 C 0.11368 0.64759 0.09762 0.0
C805 C 0.12785 0.34842 0.79109 0.0
C806 C 0.11247 0.31085 0.78078 0.0
C807 C 0.12148 0.3661 0.83565 0.0
C808 C 0.09833 0.34738 0.87049 0.0
H809 H 0.1469 0.36317 0.76575 0.0
H810 H 0.13563 0.39402 0.84342 0.0
S811 S 0.04574 0.25223 0.85752 0.0
N812 N 0.06957 0.25768 0.80667 0.0
N813 N 0.05666 0.29142 0.8898 0.0
C814 C 0.08037 0.31129 0.8591 0.0
C815 C 0.08762 0.29289 0.81433 0.0
C816 C 0.9658 0.26397 0.19506 0.0
C817 C 0.00445 0.27838 0.20062 0.0
C818 C 0.95814 0.22345 0.19576 0.0
C819 C 0.98895 0.19607 0.2015 0.0
H820 H 0.94167 0.28393 0.18726 0.0
H821 H 0.92832 0.21358 0.18844 0.0
S822 S 0.0936 0.21887 0.22799 0.0
N823 N 0.07265 0.26238 0.22043 0.0
N824 N 0.05807 0.18612 0.22045 0.0
C825 C 0.02693 0.21018 0.21153 0.0
C826 C 0.03473 0.25145 0.21156 0.0
C827 C 0.97315 0.71462 0.44596 0.0
C828 C 0.95865 0.75335 0.44848 0.0
C829 C 0.01378 0.7072 0.44571 0.0
C830 C 0.04121 0.73834 0.44715 0.0
H831 H 0.95303 0.69001 0.44183 0.0
H832 H 0.02361 0.67703 0.44138 0.0
S833 S 0.01856 0.84438 0.4622 0.0
N834 N 0.97494 0.82276 0.45943 0.0
N835 N 0.05131 0.80862 0.45717 0.0
C836 C 0.02715 0.77683 0.45331 0.0
C837 C 0.9858 0.7844 0.45453 0.0
C838 C 0.53153 0.71966 0.69698 0.0
C839 C 0.49257 0.70577 0.70033 0.0
C840 C 0.5396 0.76009 0.69762 0.0
C841 C 0.50887 0.78783 0.70082 0.0
H842 H 0.55569 0.69933 0.69108 0.0
H843 H 0.5698 0.76955 0.69211 0.0
S844 S 0.40291 0.76654 0.7201 0.0
N845 N 0.42374 0.72273 0.71517 0.0
N846 N 0.43906 0.79881 0.71433 0.0
C847 C 0.47034 0.77429 0.70845 0.0
C848 C 0.46214 0.73313 0.70883 0.0
C849 C 0.53202 0.27512 0.9473 0.0
C850 C 0.54615 0.23643 0.95246 0.0
C851 C 0.49154 0.28297 0.94754 0.0
C852 C 0.46391 0.25225 0.95224 0.0
H853 H 0.55222 0.29918 0.94018 0.0
H854 H 0.48194 0.31286 0.94046 0.0
S855 S 0.48583 0.14734 0.97713 0.0
N856 N 0.52959 0.16815 0.97072 0.0
N857 N 0.45327 0.18304 0.96979 0.0
C858 C 0.47767 0.21415 0.962 0.0
C859 C 0.51895 0.20618 0.96253 0.0
C860 C 0.03886 0.75449 0.87782 0.0
C861 C 0.00791 0.78195 0.87368 0.0
C862 C 0.0311 0.71403 0.87978 0.0
C863 C 0.99226 0.69979 0.8768 0.0
H864 H 0.06902 0.76429 0.88284 0.0
H865 H 0.05546 0.69397 0.88602 0.0
S866 S 0.90196 0.75951 0.85604 0.0
N867 N 0.93793 0.79215 0.86047 0.0
N868 N 0.92316 0.71597 0.86218 0.0
C869 C 0.96153 0.72677 0.86787 0.0
C870 C 0.96943 0.76797 0.86688 0.0
C871 C 0.5277 0.77596 0.11766 0.0
C872 C 0.54126 0.73684 0.11733 0.0
C873 C 0.48726 0.78431 0.11687 0.0
C874 C 0.45922 0.7537 0.11664 0.0
H875 H 0.54834 0.80018 0.12141 0.0
H876 H 0.47805 0.81476 0.12012 0.0
S877 S 0.47958 0.64679 0.1064 0.0
N878 N 0.52363 0.66755 0.10867 0.0
N879 N 0.44763 0.68341 0.1094 0.0
C880 C 0.47245 0.71477 0.11191 0.0
C881 C 0.51357 0.70626 0.11162 0.0
C882 C 0.53673 0.22094 0.3758 0.0
C883 C 0.49815 0.20612 0.37183 0.0
C884 C 0.54395 0.26156 0.37437 0.0
C885 C 0.51269 0.28863 0.3697 0.0
H886 H 0.56126 0.20121 0.38254 0.0
H887 H 0.57387 0.27175 0.38025 0.0
S888 S 0.40737 0.26471 0.34926 0.0
N889 N 0.4291 0.22146 0.35558 0.0
N890 N 0.44278 0.29785 0.35474 0.0
C891 C 0.47454 0.2741 0.36172 0.0
C892 C 0.46722 0.23275 0.36226 0.0
C893 C 0.03052 0.26946 0.62398 0.0
C894 C 0.04472 0.23056 0.62385 0.0
C895 C 0.98994 0.2772 0.62413 0.0
C896 C 0.96226 0.24625 0.62492 0.0
H897 H 0.05084 0.29406 0.62645 0.0
H898 H 0.98038 0.30759 0.62669 0.0
S899 S 0.98408 0.13954 0.61605 0.0
N900 N 0.02786 0.16091 0.61719 0.0
N901 N 0.95163 0.17573 0.61913 0.0
C902 C 0.97602 0.20744 0.62092 0.0
C903 C 0.01731 0.19951 0.61986 0.0
C904 C 0.97835 0.9847 0.078 0.0
C905 C 0.0151 0.0032 0.08405 0.0
C906 C 0.96593 0.97123 1.03299 0.0
C907 C 0.99006 0.97516 0.99229 0.0
H908 H 0.95881 0.98098 0.1082 0.0
H909 H 0.93734 0.95709 1.03031 0.0
S910 S 0.08983 0.01976 0.98894 0.0
N911 N 0.07642 0.02302 0.04535 0.0
N912 N 0.05236 -0.00118 0.96101 0.0
C913 C 0.02702 0.99314 0.99789 0.0
C914 C 0.03985 0.00658 0.04371 0.0
C915 C 0.23386 0.78199 0.29294 0.0
C916 C 0.23791 0.75888 0.33454 0.0
C917 C 0.24912 0.76949 0.24886 0.0
C918 C 0.26917 0.73343 0.24452 0.0
H919 H 0.21809 0.80973 0.29412 0.0
H920 H 0.24496 0.7881 0.21787 0.0
S921 S 0.28938 0.66291 0.34318 0.0
N922 N 0.26495 0.69919 0.36894 0.0
N923 N 0.29283 0.67502 0.28633 0.0
C924 C 0.27367 0.71019 0.286 0.0
C925 C 0.25847 0.72318 0.33093 0.0
C926 C 0.53921 0.01437 0.53069 0.0
C927 C 0.51634 0.01061 0.48885 0.0
C928 C 0.52595 -0.00041 0.57472 0.0
C929 C 0.48941 0.98027 0.57868 0.0
H930 H 0.56739 0.02943 0.52968 0.0
H931 H 0.54448 0.00333 0.6059 0.0
S932 S 0.41898 0.96151 0.47932 0.0
N933 N 0.45616 0.98487 0.45388 0.0
N934 N 0.43059 0.958 0.53635 0.0
C935 C 0.46631 0.97624 0.53698 0.0
C936 C 0.48005 0.99094 0.49214 0.0
C937 C 0.27527 0.20786 0.78773 0.0
C938 C 0.27108 0.23129 0.82892 0.0
C939 C 0.26033 0.2202 0.7433 0.0
C940 C 0.24026 0.25626 0.73838 0.0
H941 H 0.29063 0.17991 0.78962 0.0
H942 H 0.26403 0.2011 0.71271 0.0
S943 S 0.22187 0.32854 0.83544 0.0
N944 N 0.24534 0.29199 0.862 0.0
N945 N 0.21804 0.31575 0.77884 0.0
C946 C 0.23638 0.28015 0.77929 0.0
C947 C 0.2513 0.26739 0.82449 0.0
C948 C 0.75457 0.22101 0.82518 0.0
C949 C 0.73697 0.25823 0.83027 0.0
C950 C 0.76854 0.2079 0.78076 0.0
C951 C 0.76583 0.23163 0.73956 0.0
H952 H 0.7577 0.20185 0.85585 0.0
H953 H 0.78234 0.17914 0.77903 0.0
S954 S 0.72158 0.3313 0.73299 0.0
N955 N 0.71769 0.31884 0.78969 0.0
N956 N 0.74281 0.29346 0.70636 0.0
C957 C 0.7479 0.26868 0.74393 0.0
C958 C 0.73405 0.28228 0.78924 0.0
C959 C 0.74421 0.76582 0.32801 0.0
C960 C 0.76436 0.72975 0.33202 0.0
C961 C 0.72905 0.77878 0.28396 0.0
C962 C 0.73329 0.75606 0.24217 0.0
H963 H 0.74027 0.78427 0.35914 0.0
H964 H 0.7134 0.8066 0.28283 0.0
S965 S 0.78391 0.65969 0.23283 0.0
N966 N 0.78728 0.67129 0.28984 0.0
N967 N 0.75997 0.69645 0.20733 0.0
C968 C 0.75346 0.72012 0.24559 0.0
C969 C 0.76846 0.70665 0.29043 0.0
C970 C 0.53407 0.51605 0.54027 0.0
C971 C 0.51 0.51233 0.58104 0.0
C972 C 0.52194 0.50146 0.4956 0.0
C973 C 0.4856 0.48197 0.49002 0.0
H974 H 0.56235 0.5308 0.54266 0.0
H975 H 0.54144 0.50502 0.46534 0.0
S976 S 0.41156 0.46516 0.58566 0.0
N977 N 0.44829 0.48786 0.61292 0.0
N978 N 0.42503 0.46109 0.52934 0.0
C979 C 0.46104 0.47867 0.53046 0.0
C980 C 0.47349 0.49338 0.57589 0.0
C981 C 0.03664 0.50326 1.02757 0.0
C982 C 0.01269 0.50217 0.98642 0.0
C983 C 0.02345 0.48799 0.07139 0.0
C984 C 0.98599 0.47055 0.07582 0.0
H985 H 0.06549 0.517 1.02637 0.0
H986 H 0.04271 0.49008 0.10215 0.0
S987 S 0.91252 0.45908 0.97823 0.0
N988 N 0.95051 0.48076 0.95243 0.0
N989 N 0.92511 0.45314 1.03468 0.0
C990 C 0.96188 0.46907 1.03479 0.0
C991 C 0.97551 0.48427 0.9901 0.0
C992 C 0.16281 0.18219 0.44035 0.0
C993 C 0.15125 0.14248 0.43655 0.0
C994 C 0.1705 0.19954 0.48476 0.0
C995 C 0.1674 0.17794 0.52752 0.0
H996 H 0.16445 0.20057 0.40883 0.0
H997 H 0.17783 0.23063 0.48562 0.0
S998 S 0.14129 0.072 0.53712 0.0
N999 N 0.13955 0.08122 0.47933 0.0
N1000 N 0.1539 0.11393 0.56292 0.0
C1001 C 0.15759 0.13771 0.52422 0.0
C1002 C 0.1494 0.12004 0.47881 0.0
C1003 C 0.05251 0.89313 0.6892 0.0
C1004 C 0.09355 0.88885 0.68404 0.0
C1005 C 0.03544 0.90063 0.73376 0.0
C1006 C 0.0586 0.90404 0.7754 0.0
H1007 H 0.03329 0.89027 0.65849 0.0
H1008 H 0.00358 0.90281 0.73561 0.0
S1009 S 0.16783 0.89555 0.78104 0.0
N1010 N 0.15718 0.88909 0.72412 0.0
N1011 N 0.12522 0.90318 0.80803 0.0
C1012 C 0.09989 0.90092 0.77054 0.0
C1013 C 0.1173 0.89331 0.72491 0.0
C1014 C 0.34326 0.8447 1.01813 0.0
C1015 C 0.33816 0.80359 1.0224 0.0
C1016 C 0.35189 0.86231 0.97378 0.0
C1017 C 0.35609 0.83945 0.93217 0.0
H1018 H 0.34222 0.86325 0.04949 0.0
H1019 H 0.35676 0.89385 0.97237 0.0
S1020 S 0.34047 0.73155 0.92241 0.0
N1021 N 0.33397 0.74123 0.9795 0.0
N1022 N 0.35068 0.77429 0.89717 0.0
C1023 C 0.34919 0.79873 0.93552 0.0
C1024 C 0.34006 0.78085 0.98029 0.0
C1025 C 0.40764 0.09091 0.27064 0.0
C1026 C 0.44828 0.08273 0.27464 0.0
C1027 C 0.39007 0.09846 0.226 0.0
C1028 C 0.41234 0.09755 0.18363 0.0
H1029 H 0.38958 0.0932 0.30234 0.0
H1030 H 0.3589 0.1055 0.22466 0.0
S1031 S 0.51951 0.0763 0.17429 0.0
N1032 N 0.50995 0.07292 0.2318 0.0
N1033 N 0.47703 0.08719 0.14858 0.0
C1034 C 0.45269 0.08824 0.18704 0.0
C1035 C 0.47059 0.08081 0.23231 0.0
C1036 C 0.84212 0.8414 0.55379 0.0
C1037 C 0.83637 0.80041 0.54918 0.0
C1038 C 0.85065 0.85861 0.59843 0.0
C1039 C 0.85405 0.83543 0.63996 0.0
H1040 H 0.84181 0.86009 0.52249 0.0
H1041 H 0.85616 0.89003 0.60014 0.0
S1042 S 0.83619 0.72779 0.6486 0.0
N1043 N 0.83051 0.73793 0.59147 0.0
N1044 N 0.84694 0.77019 0.67439 0.0
C1045 C 0.84633 0.79487 0.6362 0.0
C1046 C 0.83737 0.77743 0.59114 0.0
C1047 C 0.94694 0.08037 0.38749 0.0
C1048 C 0.90659 0.08943 0.39208 0.0
C1049 C 0.96386 0.07257 0.34284 0.0
C1050 C 0.94121 0.07308 0.30067 0.0
H1051 H 0.96601 0.08067 0.41852 0.0
H1052 H -0.00473 0.06699 0.3413 0.0
S1053 S 0.83337 0.09187 0.29353 0.0
N1054 N 0.84375 0.09588 0.35086 0.0
N1055 N 0.87554 0.08137 0.26693 0.0
C1056 C 0.90043 0.0804 0.30492 0.0
C1057 C 0.8832 0.08867 0.35051 0.0
C1058 C 0.66749 0.20999 0.09008 0.0
C1059 C 0.6692 0.18718 0.04817 0.0
C1060 C 0.65868 0.19302 0.13438 0.0
C1061 C 0.65135 0.15241 0.13888 0.0
H1062 H 0.67195 0.24155 0.08858 0.0
H1063 H 0.65707 0.21202 0.16535 0.0
S1064 S 0.65278 0.07908 0.04089 0.0
N1065 N 0.66353 0.12128 1.01454 0.0
N1066 N 0.64713 0.08947 0.09797 0.0
C1067 C 0.65428 0.12888 0.09775 0.0
C1068 C 0.66321 0.14621 0.05243 0.0
C1069 C 0.59942 0.90225 0.80182 0.0
C1070 C 0.55856 0.90933 0.79757 0.0
C1071 C 0.6167 0.89317 0.84629 0.0
C1072 C 0.59368 0.89057 0.88799 0.0
H1073 H 0.6179 0.9019 0.77037 0.0
H1074 H 0.64797 0.88662 0.84775 0.0
S1075 S 0.48664 0.91204 0.89753 0.0
N1076 N 0.49654 0.91731 0.84031 0.0
N1077 N 0.5289 0.89992 0.92297 0.0
C1078 C 0.55333 0.89965 0.88458 0.0
C1079 C 0.53584 0.90915 0.83968 0.0
C1080 C 0.64377 0.63003 0.97615 0.0
C1081 C 0.64744 0.65201 0.93376 0.0
C1082 C 0.65191 0.64699 1.02095 0.0
C1083 C 0.6634 0.68678 1.02507 0.0
H1084 H 0.63407 0.59962 0.97469 0.0
H1085 H 0.64738 0.62932 0.05263 0.0
S1086 S 0.67784 0.75685 0.92476 0.0
N1087 N 0.66403 0.7154 0.89883 0.0
N1088 N 0.67917 0.74722 0.9824 0.0
C1089 C 0.66805 0.7087 0.98275 0.0
C1090 C 0.6601 0.69138 0.93732 0.0
C1091 C 0.54079 0.41265 0.2319 0.0
C1092 C 0.56302 0.41108 0.2744 0.0
C1093 C 0.55797 0.40525 0.18735 0.0
C1094 C 0.59819 0.39557 0.18306 0.0
H1095 H 0.50938 0.4186 0.23306 0.0
H1096 H 0.53915 0.40573 0.1561 0.0
S1097 S 0.67037 0.3902 0.28257 0.0
N1098 N 0.62816 0.40106 0.30886 0.0
N1099 N 0.6605 0.38727 0.225 0.0
C1100 C 0.6212 0.39521 0.22497 0.0
C1101 C 0.60368 0.40308 0.27055 0.0
C1102 C 0.84432 0.29402 0.4387 0.0
C1103 C 0.85483 0.33401 0.43451 0.0
C1104 C 0.83738 0.27673 0.48339 0.0
C1105 C 0.84003 0.2988 0.52578 0.0
H1106 H 0.84266 0.27558 0.40726 0.0
H1107 H 0.83055 0.24558 0.48474 0.0
S1108 S 0.86424 0.40539 0.534 0.0
N1109 N 0.86582 0.39572 0.47635 0.0
N1110 N 0.85257 0.36342 0.56031 0.0
C1111 C 0.84914 0.33922 0.52195 0.0
C1112 C 0.8567 0.35671 0.4764 0.0
C1113 C 0.9024 0.58625 0.77126 0.0
C1114 C 0.94337 0.58001 0.77582 0.0
C1115 C 0.88523 0.59538 0.72673 0.0
C1116 C 0.90844 0.59885 0.68527 0.0
H1117 H 0.88372 0.58585 0.80254 0.0
H1118 H 0.85382 0.60121 0.72507 0.0
S1119 S 0.01604 0.57998 0.67657 0.0
N1120 N 0.00586 0.57395 0.7336 0.0
N1121 N 0.97369 0.59133 0.65085 0.0
C1122 C 0.94898 0.5907 0.68899 0.0
C1123 C 0.96638 0.58119 0.73394 0.0
C1124 C 0.35002 0.30205 0.12907 0.0
C1125 C 0.35815 0.3426 0.13205 0.0
C1126 C 0.34161 0.28402 0.0853 0.0
C1127 C 0.34118 0.30561 0.04236 0.0
H1128 H 0.35078 0.28392 0.16086 0.0
H1129 H 0.33651 0.25253 0.08506 0.0
S1130 S 0.35937 0.41318 1.03106 0.0
N1131 N 0.36397 0.40431 0.08869 0.0
N1132 N 0.34842 0.37043 1.00616 0.0
C1133 C 0.34777 0.34658 0.04506 0.0
C1134 C 0.35623 0.36503 0.0899 0.0
C1135 C 0.44145 0.59217 0.88122 0.0
C1136 C 0.40165 0.60348 0.88477 0.0
C1137 C 0.45864 0.58344 0.83701 0.0
C1138 C 0.43692 0.58584 0.79421 0.0
H1139 H 0.45968 0.59051 0.91293 0.0
H1140 H 0.4896 0.57562 0.83634 0.0
S1141 S 0.33131 0.61406 0.78414 0.0
N1142 N 0.34061 0.61608 0.84189 0.0
N1143 N 0.37291 0.60001 0.75863 0.0
C1144 C 0.39666 0.59602 0.79739 0.0
C1145 C 0.37908 0.6048 0.84264 0.0
C1146 C 0.15739 0.65064 0.55509 0.0
C1147 C 0.16236 0.69171 0.55047 0.0
C1148 C 0.14864 0.63329 0.59956 0.0
C1149 C 0.14432 0.65639 0.64099 0.0
H1150 H 0.15857 0.63191 0.52388 0.0
H1151 H 0.14384 0.60175 0.60121 0.0
S1152 S 0.15996 0.76441 0.64962 0.0
N1153 N 0.16635 0.75435 0.59261 0.0
N1154 N 0.14979 0.72184 0.67534 0.0
C1155 C 0.15118 0.69713 0.63724 0.0
C1156 C 0.16026 0.71473 0.59228 0.0
C1157 C 0.04021 0.4033 0.33363 0.0
C1158 C 0.06101 0.39846 0.2906 0.0
C1159 C 0.05768 0.39478 0.3778 0.0
C1160 C 0.09678 0.38108 0.38095 0.0
H1161 H 0.00972 0.41285 0.3332 0.0
H1162 H 0.04018 0.39842 0.40978 0.0
S1163 S 0.16443 0.36351 0.27933 0.0
N1164 N 0.12332 0.37951 0.25422 0.0
N1165 N 0.1561 0.36353 0.33731 0.0
C1166 C 0.11845 0.37728 0.33845 0.0
C1167 C 0.10062 0.38598 0.29331 0.0
loop_
_geom_bond_atom_site_label_1
_geom_bond_atom_site_label_2
_geom_bond_distance
_geom_bond_site_symmetry_2
_ccdc_geom_bond_type
Nd0 C2 2.836 1_554 S
Nd0 O20 2.500 . S
Nd0 O21 2.492 . S
Nd0 O22 2.487 . S
Nd0 O23 2.682 1_655 S
Nd0 O24 2.410 1_655 S
Nd0 O29 2.414 . S
Nd0 O31 2.424 . S
Nd1 C11 2.836 . S
Nd1 O23 2.414 . S
Nd1 O25 2.424 . S
Nd1 O26 2.500 . S
Nd1 O27 2.492 . S
Nd1 O28 2.487 . S
Nd1 O29 2.682 1_455 S
Nd1 O30 2.410 1_455 S
C2 Nd0 2.836 1_556 S
C2 C3 1.498 . S
C2 O20 1.258 1_556 S
C2 O21 1.239 1_556 S
C3 C2 1.498 . S
C3 C4 1.366 . S
C3 C8 1.407 . S
C4 C3 1.366 . S
C4 C5 1.392 . S
C4 H32 0.930 . S
C5 C4 1.392 . S
C5 C6 1.398 . S
C5 H33 0.929 . S
C6 C5 1.398 . S
C6 C7 1.352 . S
C7 C6 1.352 . S
C7 C8 1.384 . S
C7 H34 0.930 . S
C8 C3 1.407 . S
C8 C7 1.384 . S
C8 H35 0.929 . S
C9 O22 1.241 . S
C9 O23 1.273 1_655 S
C10 O24 1.251 . S
C10 O25 1.268 . S
C11 Nd1 2.836 . S
C11 C12 1.498 . S
C11 O26 1.258 . S
C11 O27 1.239 . S
C12 C11 1.498 . S
C12 C13 1.366 . S
C12 C17 1.407 . S
C13 C12 1.366 . S
C13 C14 1.392 . S
C13 H36 0.930 . S
C14 C13 1.392 . S
C14 C15 1.398 . S
C14 H37 0.929 . S
C15 C14 1.398 . S
C15 C16 1.352 . S
C16 C15 1.352 . S
C16 C17 1.384 . S
C16 H38 0.930 . S
C17 C12 1.407 . S
C17 C16 1.384 . S
C17 H39 0.929 . S
C18 O28 1.241 . S
C18 O29 1.273 1_455 S
C19 O30 1.251 . S
C19 O31 1.268 . S
O20 Nd0 2.500 . S
O20 C2 1.258 1_554 S
O21 Nd0 2.492 . S
O21 C2 1.239 1_554 S
O22 Nd0 2.487 . S
O22 C9 1.241 . S
O23 Nd0 2.682 1_455 S
O23 Nd1 2.414 . S
O23 C9 1.273 1_455 S
O24 Nd0 2.410 1_455 S
O24 C10 1.251 . S
O25 Nd1 2.424 . S
O25 C10 1.268 . S
O26 Nd1 2.500 . S
O26 C11 1.258 . S
O27 Nd1 2.492 . S
O27 C11 1.239 . S
O28 Nd1 2.487 . S
O28 C18 1.241 . S
O29 Nd0 2.414 . S
O29 Nd1 2.682 1_655 S
O29 C18 1.273 1_655 S
O30 Nd1 2.410 1_655 S
O30 C19 1.251 . S
O31 Nd0 2.424 . S
O31 C19 1.268 . S
H32 C4 0.930 . S
H33 C5 0.929 . S
H34 C7 0.930 . S
H35 C8 0.929 . S
H36 C13 0.930 . S
H37 C14 0.929 . S
H38 C16 0.930 . S
H39 C17 0.929 . S
Nd40 C42 2.836 . S
Nd40 O60 2.500 . S
Nd40 O61 2.492 . S
Nd40 O62 2.487 . S
Nd40 O63 2.682 . S
Nd40 O64 2.410 . S
Nd40 O69 2.414 . S
Nd40 O71 2.424 . S
Nd41 C51 2.836 . S
Nd41 O63 2.414 . S
Nd41 O65 2.424 . S
Nd41 O66 2.500 . S
Nd41 O67 2.492 . S
Nd41 O68 2.487 . S
Nd41 O69 2.682 . S
Nd41 O70 2.410 . S
C42 Nd40 2.836 . S
C42 C43 1.498 . S
C42 O60 1.258 . S
C42 O61 1.239 . S
C43 C42 1.498 . S
C43 C44 1.366 . S
C43 C48 1.407 . S
C44 C43 1.366 . S
C44 C45 1.392 . S
C44 H72 0.930 . S
C45 C44 1.392 . S
C45 C46 1.398 . S
C45 H73 0.929 . S
C46 C45 1.398 . S
C46 C47 1.352 . S
C47 C46 1.352 . S
C47 C48 1.384 . S
C47 H74 0.930 . S
C48 C43 1.407 . S
C48 C47 1.384 . S
C48 H75 0.929 . S
C49 O62 1.241 . S
C49 O63 1.273 . S
C50 O64 1.251 . S
C50 O65 1.268 . S
C51 Nd41 2.836 . S
C51 C52 1.498 . S
C51 O66 1.258 . S
C51 O67 1.239 . S
C52 C51 1.498 . S
C52 C53 1.366 . S
C52 C57 1.407 . S
C53 C52 1.366 . S
C53 C54 1.392 . S
C53 H76 0.930 . S
C54 C53 1.392 . S
C54 C55 1.398 . S
C54 H77 0.929 . S
C55 C54 1.398 . S
C55 C56 1.352 . S
C56 C55 1.352 . S
C56 C57 1.384 . S
C56 H78 0.930 . S
C57 C52 1.407 . S
C57 C56 1.384 . S
C57 H79 0.929 . S
C58 O68 1.241 . S
C58 O69 1.273 . S
C59 O70 1.251 . S
C59 O71 1.268 . S
O60 Nd40 2.500 . S
O60 C42 1.258 . S
O61 Nd40 2.492 . S
O61 C42 1.239 . S
O62 Nd40 2.487 . S
O62 C49 1.241 . S
O63 Nd40 2.682 . S
O63 Nd41 2.414 . S
O63 C49 1.273 . S
O64 Nd40 2.410 . S
O64 C50 1.251 . S
O65 Nd41 2.424 . S
O65 C50 1.268 . S
O66 Nd41 2.500 . S
O66 C51 1.258 . S
O67 Nd41 2.492 . S
O67 C51 1.239 . S
O68 Nd41 2.487 . S
O68 C58 1.241 . S
O69 Nd40 2.414 . S
O69 Nd41 2.682 . S
O69 C58 1.273 . S
O70 Nd41 2.410 . S
O70 C59 1.251 . S
O71 Nd40 2.424 . S
O71 C59 1.268 . S
H72 C44 0.930 . S
H73 C45 0.929 . S
H74 C47 0.930 . S
H75 C48 0.929 . S
H76 C53 0.930 . S
H77 C54 0.929 . S
H78 C56 0.930 . S
H79 C57 0.929 . S
Nd80 C82 2.836 . S
Nd80 O100 2.500 . S
Nd80 O101 2.492 . S
Nd80 O102 2.487 . S
Nd80 O103 2.682 . S
Nd80 O104 2.410 . S
Nd80 O109 2.414 . S
Nd80 O111 2.424 . S
Nd81 C91 2.836 . S
Nd81 O103 2.414 . S
Nd81 O105 2.424 . S
Nd81 O106 2.500 . S
Nd81 O107 2.492 . S
Nd81 O108 2.487 . S
Nd81 O109 2.682 . S
Nd81 O110 2.410 . S
C82 Nd80 2.836 . S
C82 C83 1.498 . S
C82 O100 1.258 . S
C82 O101 1.239 . S
C83 C82 1.498 . S
C83 C84 1.366 . S
C83 C88 1.407 . S
C84 C83 1.366 . S
C84 C85 1.392 . S
C84 H112 0.930 . S
C85 C84 1.392 . S
C85 C86 1.398 . S
C85 H113 0.929 . S
C86 C85 1.398 . S
C86 C87 1.352 . S
C87 C86 1.352 . S
C87 C88 1.384 . S
C87 H114 0.930 . S
C88 C83 1.407 . S
C88 C87 1.384 . S
C88 H115 0.929 . S
C89 O102 1.241 . S
C89 O103 1.273 . S
C90 O104 1.251 . S
C90 O105 1.268 . S
C91 Nd81 2.836 . S
C91 C92 1.498 . S
C91 O106 1.258 . S
C91 O107 1.239 . S
C92 C91 1.498 . S
C92 C93 1.366 . S
C92 C97 1.407 . S
C93 C92 1.366 . S
C93 C94 1.392 . S
C93 H116 0.930 . S
C94 C93 1.392 . S
C94 C95 1.398 . S
C94 H117 0.929 . S
C95 C94 1.398 . S
C95 C96 1.352 . S
C96 C95 1.352 . S
C96 C97 1.384 . S
C96 H118 0.930 . S
C97 C92 1.407 . S
C97 C96 1.384 . S
C97 H119 0.929 . S
C98 O108 1.241 . S
C98 O109 1.273 . S
C99 O110 1.251 . S
C99 O111 1.268 . S
O100 Nd80 2.500 . S
O100 C82 1.258 . S
O101 Nd80 2.492 . S
O101 C82 1.239 . S
O102 Nd80 2.487 . S
O102 C89 1.241 . S
O103 Nd80 2.682 . S
O103 Nd81 2.414 . S
O103 C89 1.273 . S
O104 Nd80 2.410 . S
O104 C90 1.251 . S
O105 Nd81 2.424 . S
O105 C90 1.268 . S
O106 Nd81 2.500 . S
O106 C91 1.258 . S
O107 Nd81 2.492 . S
O107 C91 1.239 . S
O108 Nd81 2.487 . S
O108 C98 1.241 . S
O109 Nd80 2.414 . S
O109 Nd81 2.682 . S
O109 C98 1.273 . S
O110 Nd81 2.410 . S
O110 C99 1.251 . S
O111 Nd80 2.424 . S
O111 C99 1.268 . S
H112 C84 0.930 . S
H113 C85 0.929 . S
H114 C87 0.930 . S
H115 C88 0.929 . S
H116 C93 0.930 . S
H117 C94 0.929 . S
H118 C96 0.930 . S
H119 C97 0.929 . S
Nd120 C122 2.836 . S
Nd120 O140 2.500 . S
Nd120 O141 2.492 . S
Nd120 O142 2.487 . S
Nd120 O143 2.682 . S
Nd120 O144 2.410 . S
Nd120 O149 2.414 . S
Nd120 O151 2.424 . S
Nd121 C131 2.836 . S
Nd121 O143 2.414 . S
Nd121 O145 2.424 . S
Nd121 O146 2.500 . S
Nd121 O147 2.492 . S
Nd121 O148 2.487 . S
Nd121 O149 2.682 . S
Nd121 O150 2.410 . S
C122 Nd120 2.836 . S
C122 C123 1.498 . S
C122 O140 1.258 . S
C122 O141 1.239 . S
C123 C122 1.498 . S
C123 C124 1.366 . S
C123 C128 1.407 . S
C124 C123 1.366 . S
C124 C125 1.392 . S
C124 H152 0.930 . S
C125 C124 1.392 . S
C125 C126 1.398 . S
C125 H153 0.929 . S
C126 C125 1.398 . S
C126 C127 1.352 . S
C127 C126 1.352 . S
C127 C128 1.384 . S
C127 H154 0.930 . S
C128 C123 1.407 . S
C128 C127 1.384 . S
C128 H155 0.929 . S
C129 O142 1.241 . S
C129 O143 1.273 . S
C130 O144 1.251 . S
C130 O145 1.268 . S
C131 Nd121 2.836 . S
C131 C132 1.498 1_556 S
C131 O146 1.258 . S
C131 O147 1.239 . S
C132 C131 1.498 1_554 S
C132 C133 1.366 . S
C132 C137 1.407 . S
C133 C132 1.366 . S
C133 C134 1.392 . S
C133 H156 0.930 . S
C134 C133 1.392 . S
C134 C135 1.398 . S
C134 H157 0.929 . S
C135 C134 1.398 . S
C135 C136 1.352 . S
C136 C135 1.352 . S
C136 C137 1.384 . S
C136 H158 0.930 . S
C137 C132 1.407 . S
C137 C136 1.384 . S
C137 H159 0.929 . S
C138 O148 1.241 . S
C138 O149 1.273 . S
C139 O150 1.251 . S
C139 O151 1.268 . S
O140 Nd120 2.500 . S
O140 C122 1.258 . S
O141 Nd120 2.492 . S
O141 C122 1.239 . S
O142 Nd120 2.487 . S
O142 C129 1.241 . S
O143 Nd120 2.682 . S
O143 Nd121 2.414 . S
O143 C129 1.273 . S
O144 Nd120 2.410 . S
O144 C130 1.251 . S
O145 Nd121 2.424 . S
O145 C130 1.268 . S
O146 Nd121 2.500 . S
O146 C131 1.258 . S
O147 Nd121 2.492 . S
O147 C131 1.239 . S
O148 Nd121 2.487 . S
O148 C138 1.241 . S
O149 Nd120 2.414 . S
O149 Nd121 2.682 . S
O149 C138 1.273 . S
O150 Nd121 2.410 . S
O150 C139 1.251 . S
O151 Nd120 2.424 . S
O151 C139 1.268 . S
H152 C124 0.930 . S
H153 C125 0.929 . S
H154 C127 0.930 . S
H155 C128 0.929 . S
H156 C133 0.930 . S
H157 C134 0.929 . S
H158 C136 0.930 . S
H159 C137 0.929 . S
Nd160 C162 2.836 . S
Nd160 O180 2.500 . S
Nd160 O181 2.492 . S
Nd160 O182 2.487 . S
Nd160 O183 2.682 1_655 S
Nd160 O184 2.410 1_655 S
Nd160 O189 2.414 1_655 S
Nd160 O191 2.424 . S
Nd161 C171 2.836 1_556 S
Nd161 O183 2.414 . S
Nd161 O185 2.424 . S
Nd161 O186 2.500 . S
Nd161 O187 2.492 . S
Nd161 O188 2.487 . S
Nd161 O189 2.682 . S
Nd161 O190 2.410 . S
C162 Nd160 2.836 . S
C162 C163 1.498 . S
C162 O180 1.258 . S
C162 O181 1.239 . S
C163 C162 1.498 . S
C163 C164 1.366 . S
C163 C168 1.407 . S
C164 C163 1.366 . S
C164 C165 1.392 . S
C164 H192 0.930 . S
C165 C164 1.392 . S
C165 C166 1.398 . S
C165 H193 0.929 . S
C166 C165 1.398 . S
C166 C167 1.352 . S
C167 C166 1.352 . S
C167 C168 1.384 . S
C167 H194 0.930 . S
C168 C163 1.407 . S
C168 C167 1.384 . S
C168 H195 0.929 . S
C169 O182 1.241 1_455 S
C169 O183 1.273 . S
C170 O184 1.251 . S
C170 O185 1.268 . S
C171 Nd161 2.836 1_554 S
C171 C172 1.498 . S
C171 O186 1.258 1_554 S
C171 O187 1.239 1_554 S
C172 C171 1.498 . S
C172 C173 1.366 . S
C172 C177 1.407 . S
C173 C172 1.366 . S
C173 C174 1.392 . S
C173 H196 0.930 . S
C174 C173 1.392 . S
C174 C175 1.398 . S
C174 H197 0.929 . S
C175 C174 1.398 . S
C175 C176 1.352 . S
C176 C175 1.352 . S
C176 C177 1.384 . S
C176 H198 0.930 . S
C177 C172 1.407 . S
C177 C176 1.384 . S
C177 H199 0.929 . S
C178 O188 1.241 . S
C178 O189 1.273 . S
C179 O190 1.251 1_655 S
C179 O191 1.268 . S
O180 Nd160 2.500 . S
O180 C162 1.258 . S
O181 Nd160 2.492 . S
O181 C162 1.239 . S
O182 Nd160 2.487 . S
O182 C169 1.241 1_655 S
O183 Nd160 2.682 1_455 S
O183 Nd161 2.414 . S
O183 C169 1.273 . S
O184 Nd160 2.410 1_455 S
O184 C170 1.251 . S
O185 Nd161 2.424 . S
O185 C170 1.268 . S
O186 Nd161 2.500 . S
O186 C171 1.258 1_556 S
O187 Nd161 2.492 . S
O187 C171 1.239 1_556 S
O188 Nd161 2.487 . S
O188 C178 1.241 . S
O189 Nd160 2.414 1_455 S
O189 Nd161 2.682 . S
O189 C178 1.273 . S
O190 Nd161 2.410 . S
O190 C179 1.251 1_455 S
O191 Nd160 2.424 . S
O191 C179 1.268 . S
H192 C164 0.930 . S
H193 C165 0.929 . S
H194 C167 0.930 . S
H195 C168 0.929 . S
H196 C173 0.930 . S
H197 C174 0.929 . S
H198 C176 0.930 . S
H199 C177 0.929 . S
Nd200 C202 2.836 . S
Nd200 O220 2.500 . S
Nd200 O221 2.492 . S
Nd200 O222 2.487 . S
Nd200 O223 2.682 . S
Nd200 O224 2.410 . S
Nd200 O229 2.414 . S
Nd200 O231 2.424 . S
Nd201 C211 2.836 . S
Nd201 O223 2.414 . S
Nd201 O225 2.424 . S
Nd201 O226 2.500 . S
Nd201 O227 2.492 . S
Nd201 O228 2.487 . S
Nd201 O229 2.682 . S
Nd201 O230 2.410 . S
C202 Nd200 2.836 . S
C202 C203 1.498 1_554 S
C202 O220 1.258 . S
C202 O221 1.239 . S
C203 C202 1.498 1_556 S
C203 C204 1.366 . S
C203 C208 1.407 . S
C204 C203 1.366 . S
C204 C205 1.392 . S
C204 H232 0.930 . S
C205 C204 1.392 . S
C205 C206 1.398 . S
C205 H233 0.929 . S
C206 C205 1.398 . S
C206 C207 1.352 . S
C207 C206 1.352 . S
C207 C208 1.384 . S
C207 H234 0.930 . S
C208 C203 1.407 . S
C208 C207 1.384 . S
C208 H235 0.929 . S
C209 O222 1.241 . S
C209 O223 1.273 . S
C210 O224 1.251 . S
C210 O225 1.268 . S
C211 Nd201 2.836 . S
C211 C212 1.498 . S
C211 O226 1.258 . S
C211 O227 1.239 . S
C212 C211 1.498 . S
C212 C213 1.366 . S
C212 C217 1.407 . S
C213 C212 1.366 . S
C213 C214 1.392 . S
C213 H236 0.930 . S
C214 C213 1.392 . S
C214 C215 1.398 . S
C214 H237 0.929 . S
C215 C214 1.398 . S
C215 C216 1.352 . S
C216 C215 1.352 . S
C216 C217 1.384 . S
C216 H238 0.930 . S
C217 C212 1.407 . S
C217 C216 1.384 . S
C217 H239 0.929 . S
C218 O228 1.241 . S
C218 O229 1.273 . S
C219 O230 1.251 . S
C219 O231 1.268 . S
O220 Nd200 2.500 . S
O220 C202 1.258 . S
O221 Nd200 2.492 . S
O221 C202 1.239 . S
O222 Nd200 2.487 . S
O222 C209 1.241 . S
O223 Nd200 2.682 . S
O223 Nd201 2.414 . S
O223 C209 1.273 . S
O224 Nd200 2.410 . S
O224 C210 1.251 . S
O225 Nd201 2.424 . S
O225 C210 1.268 . S
O226 Nd201 2.500 . S
O226 C211 1.258 . S
O227 Nd201 2.492 . S
O227 C211 1.239 . S
O228 Nd201 2.487 . S
O228 C218 1.241 . S
O229 Nd200 2.414 . S
O229 Nd201 2.682 . S
O229 C218 1.273 . S
O230 Nd201 2.410 . S
O230 C219 1.251 . S
O231 Nd200 2.424 . S
O231 C219 1.268 . S
H232 C204 0.930 . S
H233 C205 0.929 . S
H234 C207 0.930 . S
H235 C208 0.929 . S
H236 C213 0.930 . S
H237 C214 0.929 . S
H238 C216 0.930 . S
H239 C217 0.929 . S
Nd240 C242 2.836 . S
Nd240 O260 2.500 . S
Nd240 O261 2.492 . S
Nd240 O262 2.487 . S
Nd240 O263 2.682 . S
Nd240 O264 2.410 . S
Nd240 O269 2.414 . S
Nd240 O271 2.424 . S
Nd241 C251 2.836 . S
Nd241 O263 2.414 . S
Nd241 O265 2.424 . S
Nd241 O266 2.500 . S
Nd241 O267 2.492 . S
Nd241 O268 2.487 . S
Nd241 O269 2.682 . S
Nd241 O270 2.410 . S
C242 Nd240 2.836 . S
C242 C243 1.498 . S
C242 O260 1.258 . S
C242 O261 1.239 . S
C243 C242 1.498 . S
C243 C244 1.366 . S
C243 C248 1.407 . S
C244 C243 1.366 . S
C244 C245 1.392 . S
C244 H272 0.930 . S
C245 C244 1.392 . S
C245 C246 1.398 . S
C245 H273 0.929 . S
C246 C245 1.398 . S
C246 C247 1.352 . S
C247 C246 1.352 . S
C247 C248 1.384 . S
C247 H274 0.930 . S
C248 C243 1.407 . S
C248 C247 1.384 . S
C248 H275 0.929 . S
C249 O262 1.241 . S
C249 O263 1.273 . S
C250 O264 1.251 . S
C250 O265 1.268 . S
C251 Nd241 2.836 . S
C251 C252 1.498 . S
C251 O266 1.258 . S
C251 O267 1.239 . S
C252 C251 1.498 . S
C252 C253 1.366 . S
C252 C257 1.407 . S
C253 C252 1.366 . S
C253 C254 1.392 . S
C253 H276 0.930 . S
C254 C253 1.392 . S
C254 C255 1.398 . S
C254 H277 0.929 . S
C255 C254 1.398 . S
C255 C256 1.352 . S
C256 C255 1.352 . S
C256 C257 1.384 . S
C256 H278 0.930 . S
C257 C252 1.407 . S
C257 C256 1.384 . S
C257 H279 0.929 . S
C258 O268 1.241 . S
C258 O269 1.273 . S
C259 O270 1.251 . S
C259 O271 1.268 . S
O260 Nd240 2.500 . S
O260 C242 1.258 . S
O261 Nd240 2.492 . S
O261 C242 1.239 . S
O262 Nd240 2.487 . S
O262 C249 1.241 . S
O263 Nd240 2.682 . S
O263 Nd241 2.414 . S
O263 C249 1.273 . S
O264 Nd240 2.410 . S
O264 C250 1.251 . S
O265 Nd241 2.424 . S
O265 C250 1.268 . S
O266 Nd241 2.500 . S
O266 C251 1.258 . S
O267 Nd241 2.492 . S
O267 C251 1.239 . S
O268 Nd241 2.487 . S
O268 C258 1.241 . S
O269 Nd240 2.414 . S
O269 Nd241 2.682 . S
O269 C258 1.273 . S
O270 Nd241 2.410 . S
O270 C259 1.251 . S
O271 Nd240 2.424 . S
O271 C259 1.268 . S
H272 C244 0.930 . S
H273 C245 0.929 . S
H274 C247 0.930 . S
H275 C248 0.929 . S
H276 C253 0.930 . S
H277 C254 0.929 . S
H278 C256 0.930 . S
H279 C257 0.929 . S
Nd280 C282 2.836 . S
Nd280 O300 2.500 . S
Nd280 O301 2.492 . S
Nd280 O302 2.487 . S
Nd280 O303 2.682 . S
Nd280 O304 2.410 . S
Nd280 O309 2.414 . S
Nd280 O311 2.424 . S
Nd281 C291 2.836 . S
Nd281 O303 2.414 . S
Nd281 O305 2.424 . S
Nd281 O306 2.500 . S
Nd281 O307 2.492 . S
Nd281 O308 2.487 . S
Nd281 O309 2.682 . S
Nd281 O310 2.410 . S
C282 Nd280 2.836 . S
C282 C283 1.498 . S
C282 O300 1.258 . S
C282 O301 1.239 . S
C283 C282 1.498 . S
C283 C284 1.366 . S
C283 C288 1.407 . S
C284 C283 1.366 . S
C284 C285 1.392 . S
C284 H312 0.930 . S
C285 C284 1.392 . S
C285 C286 1.398 . S
C285 H313 0.929 . S
C286 C285 1.398 . S
C286 C287 1.352 . S
C287 C286 1.352 . S
C287 C288 1.384 . S
C287 H314 0.930 . S
C288 C283 1.407 . S
C288 C287 1.384 . S
C288 H315 0.929 . S
C289 O302 1.241 . S
C289 O303 1.273 . S
C290 O304 1.251 . S
C290 O305 1.268 . S
C291 Nd281 2.836 . S
C291 C292 1.498 . S
C291 O306 1.258 . S
C291 O307 1.239 . S
C292 C291 1.498 . S
C292 C293 1.366 . S
C292 C297 1.407 . S
C293 C292 1.366 . S
C293 C294 1.392 . S
C293 H316 0.930 . S
C294 C293 1.392 . S
C294 C295 1.398 . S
C294 H317 0.929 . S
C295 C294 1.398 . S
C295 C296 1.352 . S
C296 C295 1.352 . S
C296 C297 1.384 . S
C296 H318 0.930 . S
C297 C292 1.407 . S
C297 C296 1.384 . S
C297 H319 0.929 . S
C298 O308 1.241 . S
C298 O309 1.273 . S
C299 O310 1.251 . S
C299 O311 1.268 . S
O300 Nd280 2.500 . S
O300 C282 1.258 . S
O301 Nd280 2.492 . S
O301 C282 1.239 . S
O302 Nd280 2.487 . S
O302 C289 1.241 . S
O303 Nd280 2.682 . S
O303 Nd281 2.414 . S
O303 C289 1.273 . S
O304 Nd280 2.410 . S
O304 C290 1.251 . S
O305 Nd281 2.424 . S
O305 C290 1.268 . S
O306 Nd281 2.500 . S
O306 C291 1.258 . S
O307 Nd281 2.492 . S
O307 C291 1.239 . S
O308 Nd281 2.487 . S
O308 C298 1.241 . S
O309 Nd280 2.414 . S
O309 Nd281 2.682 . S
O309 C298 1.273 . S
O310 Nd281 2.410 . S
O310 C299 1.251 . S
O311 Nd280 2.424 . S
O311 C299 1.268 . S
H312 C284 0.930 . S
H313 C285 0.929 . S
H314 C287 0.930 . S
H315 C288 0.929 . S
H316 C293 0.930 . S
H317 C294 0.929 . S
H318 C296 0.930 . S
H319 C297 0.929 . S
Nd320 C322 2.836 . S
Nd320 O340 2.500 . S
Nd320 O341 2.492 . S
Nd320 O342 2.487 . S
Nd320 O343 2.682 . S
Nd320 O344 2.410 . S
Nd320 O349 2.414 . S
Nd320 O351 2.424 . S
Nd321 C331 2.836 . S
Nd321 O343 2.414 . S
Nd321 O345 2.424 . S
Nd321 O346 2.500 . S
Nd321 O347 2.492 . S
Nd321 O348 2.487 . S
Nd321 O349 2.682 . S
Nd321 O350 2.410 . S
C322 Nd320 2.836 . S
C322 C323 1.498 . S
C322 O340 1.258 . S
C322 O341 1.239 . S
C323 C322 1.498 . S
C323 C324 1.366 . S
C323 C328 1.407 . S
C324 C323 1.366 . S
C324 C325 1.392 . S
C324 H352 0.930 . S
C325 C324 1.392 . S
C325 C326 1.398 . S
C325 H353 0.929 . S
C326 C325 1.398 . S
C326 C327 1.352 . S
C327 C326 1.352 . S
C327 C328 1.384 . S
C327 H354 0.930 . S
C328 C323 1.407 . S
C328 C327 1.384 . S
C328 H355 0.929 . S
C329 O342 1.241 . S
C329 O343 1.273 . S
C330 O344 1.251 . S
C330 O345 1.268 . S
C331 Nd321 2.836 . S
C331 C332 1.498 . S
C331 O346 1.258 . S
C331 O347 1.239 . S
C332 C331 1.498 . S
C332 C333 1.366 . S
C332 C337 1.407 . S
C333 C332 1.366 . S
C333 C334 1.392 . S
C333 H356 0.930 . S
C334 C333 1.392 . S
C334 C335 1.398 . S
C334 H357 0.929 . S
C335 C334 1.398 . S
C335 C336 1.352 . S
C336 C335 1.352 . S
C336 C337 1.384 . S
C336 H358 0.930 . S
C337 C332 1.407 . S
C337 C336 1.384 . S
C337 H359 0.929 . S
C338 O348 1.241 . S
C338 O349 1.273 . S
C339 O350 1.251 . S
C339 O351 1.268 . S
O340 Nd320 2.500 . S
O340 C322 1.258 . S
O341 Nd320 2.492 . S
O341 C322 1.239 . S
O342 Nd320 2.487 . S
O342 C329 1.241 . S
O343 Nd320 2.682 . S
O343 Nd321 2.414 . S
O343 C329 1.273 . S
O344 Nd320 2.410 . S
O344 C330 1.251 . S
O345 Nd321 2.424 . S
O345 C330 1.268 . S
O346 Nd321 2.500 . S
O346 C331 1.258 . S
O347 Nd321 2.492 . S
O347 C331 1.239 . S
O348 Nd321 2.487 . S
O348 C338 1.241 . S
O349 Nd320 2.414 . S
O349 Nd321 2.682 . S
O349 C338 1.273 . S
O350 Nd321 2.410 . S
O350 C339 1.251 . S
O351 Nd320 2.424 . S
O351 C339 1.268 . S
H352 C324 0.930 . S
H353 C325 0.929 . S
H354 C327 0.930 . S
H355 C328 0.929 . S
H356 C333 0.930 . S
H357 C334 0.929 . S
H358 C336 0.930 . S
H359 C337 0.929 . S
Nd360 C362 2.836 . S
Nd360 O380 2.500 . S
Nd360 O381 2.492 . S
Nd360 O382 2.487 . S
Nd360 O383 2.682 . S
Nd360 O384 2.410 . S
Nd360 O389 2.414 . S
Nd360 O391 2.424 . S
Nd361 C371 2.836 . S
Nd361 O383 2.414 . S
Nd361 O385 2.424 . S
Nd361 O386 2.500 . S
Nd361 O387 2.492 . S
Nd361 O388 2.487 . S
Nd361 O389 2.682 . S
Nd361 O390 2.410 . S
C362 Nd360 2.836 . S
C362 C363 1.498 1_554 S
C362 O380 1.258 . S
C362 O381 1.239 . S
C363 C362 1.498 1_556 S
C363 C364 1.366 . S
C363 C368 1.407 . S
C364 C363 1.366 . S
C364 C365 1.392 . S
C364 H392 0.930 . S
C365 C364 1.392 . S
C365 C366 1.398 . S
C365 H393 0.929 . S
C366 C365 1.398 . S
C366 C367 1.352 . S
C367 C366 1.352 . S
C367 C368 1.384 . S
C367 H394 0.930 . S
C368 C363 1.407 . S
C368 C367 1.384 . S
C368 H395 0.929 . S
C369 O382 1.241 . S
C369 O383 1.273 . S
C370 O384 1.251 . S
C370 O385 1.268 . S
C371 Nd361 2.836 . S
C371 C372 1.498 . S
C371 O386 1.258 . S
C371 O387 1.239 . S
C372 C371 1.498 . S
C372 C373 1.366 . S
C372 C377 1.407 . S
C373 C372 1.366 . S
C373 C374 1.392 . S
C373 H396 0.930 . S
C374 C373 1.392 . S
C374 C375 1.398 . S
C374 H397 0.929 . S
C375 C374 1.398 . S
C375 C376 1.352 . S
C376 C375 1.352 . S
C376 C377 1.384 . S
C376 H398 0.930 . S
C377 C372 1.407 . S
C377 C376 1.384 . S
C377 H399 0.929 . S
C378 O388 1.241 . S
C378 O389 1.273 . S
C379 O390 1.251 . S
C379 O391 1.268 . S
O380 Nd360 2.500 . S
O380 C362 1.258 . S
O381 Nd360 2.492 . S
O381 C362 1.239 . S
O382 Nd360 2.487 . S
O382 C369 1.241 . S
O383 Nd360 2.682 . S
O383 Nd361 2.414 . S
O383 C369 1.273 . S
O384 Nd360 2.410 . S
O384 C370 1.251 . S
O385 Nd361 2.424 . S
O385 C370 1.268 . S
O386 Nd361 2.500 . S
O386 C371 1.258 . S
O387 Nd361 2.492 . S
O387 C371 1.239 . S
O388 Nd361 2.487 . S
O388 C378 1.241 . S
O389 Nd360 2.414 . S
O389 Nd361 2.682 . S
O389 C378 1.273 . S
O390 Nd361 2.410 . S
O390 C379 1.251 . S
O391 Nd360 2.424 . S
O391 C379 1.268 . S
H392 C364 0.930 . S
H393 C365 0.929 . S
H394 C367 0.930 . S
H395 C368 0.929 . S
H396 C373 0.930 . S
H397 C374 0.929 . S
H398 C376 0.930 . S
H399 C377 0.929 . S
Nd400 C402 2.836 . S
Nd400 O420 2.500 . S
Nd400 O421 2.492 . S
Nd400 O422 2.487 . S
Nd400 O423 2.682 . S
Nd400 O424 2.410 . S
Nd400 O429 2.414 . S
Nd400 O431 2.424 . S
Nd401 C411 2.836 . S
Nd401 O423 2.414 . S
Nd401 O425 2.424 . S
Nd401 O426 2.500 . S
Nd401 O427 2.492 . S
Nd401 O428 2.487 . S
Nd401 O429 2.682 . S
Nd401 O430 2.410 . S
C402 Nd400 2.836 . S
C402 C403 1.498 . S
C402 O420 1.258 . S
C402 O421 1.239 . S
C403 C402 1.498 . S
C403 C404 1.366 . S
C403 C408 1.407 . S
C404 C403 1.366 . S
C404 C405 1.392 . S
C404 H432 0.930 . S
C405 C404 1.392 . S
C405 C406 1.398 . S
C405 H433 0.929 . S
C406 C405 1.398 . S
C406 C407 1.352 . S
C407 C406 1.352 . S
C407 C408 1.384 . S
C407 H434 0.930 . S
C408 C403 1.407 . S
C408 C407 1.384 . S
C408 H435 0.929 . S
C409 O422 1.241 . S
C409 O423 1.273 . S
C410 O424 1.251 . S
C410 O425 1.268 . S
C411 Nd401 2.836 . S
C411 C412 1.498 1_556 S
C411 O426 1.258 . S
C411 O427 1.239 . S
C412 C411 1.498 1_554 S
C412 C413 1.366 . S
C412 C417 1.407 . S
C413 C412 1.366 . S
C413 C414 1.392 . S
C413 H436 0.930 . S
C414 C413 1.392 . S
C414 C415 1.398 . S
C414 H437 0.929 . S
C415 C414 1.398 . S
C415 C416 1.352 . S
C416 C415 1.352 . S
C416 C417 1.384 . S
C416 H438 0.930 . S
C417 C412 1.407 . S
C417 C416 1.384 . S
C417 H439 0.929 . S
C418 O428 1.241 . S
C418 O429 1.273 . S
C419 O430 1.251 . S
C419 O431 1.268 . S
O420 Nd400 2.500 . S
O420 C402 1.258 . S
O421 Nd400 2.492 . S
O421 C402 1.239 . S
O422 Nd400 2.487 . S
O422 C409 1.241 . S
O423 Nd400 2.682 . S
O423 Nd401 2.414 . S
O423 C409 1.273 . S
O424 Nd400 2.410 . S
O424 C410 1.251 . S
O425 Nd401 2.424 . S
O425 C410 1.268 . S
O426 Nd401 2.500 . S
O426 C411 1.258 . S
O427 Nd401 2.492 . S
O427 C411 1.239 . S
O428 Nd401 2.487 . S
O428 C418 1.241 . S
O429 Nd400 2.414 . S
O429 Nd401 2.682 . S
O429 C418 1.273 . S
O430 Nd401 2.410 . S
O430 C419 1.251 . S
O431 Nd400 2.424 . S
O431 C419 1.268 . S
H432 C404 0.930 . S
H433 C405 0.929 . S
H434 C407 0.930 . S
H435 C408 0.929 . S
H436 C413 0.930 . S
H437 C414 0.929 . S
H438 C416 0.930 . S
H439 C417 0.929 . S
Nd440 C442 2.836 . S
Nd440 O460 2.500 . S
Nd440 O461 2.492 . S
Nd440 O462 2.487 . S
Nd440 O463 2.682 . S
Nd440 O464 2.410 . S
Nd440 O469 2.414 . S
Nd440 O471 2.424 . S
Nd441 C451 2.836 . S
Nd441 O463 2.414 . S
Nd441 O465 2.424 . S
Nd441 O466 2.500 . S
Nd441 O467 2.492 . S
Nd441 O468 2.487 . S
Nd441 O469 2.682 . S
Nd441 O470 2.410 . S
C442 Nd440 2.836 . S
C442 C443 1.498 . S
C442 O460 1.258 . S
C442 O461 1.239 . S
C443 C442 1.498 . S
C443 C444 1.366 . S
C443 C448 1.407 . S
C444 C443 1.366 . S
C444 C445 1.392 . S
C444 H472 0.930 . S
C445 C444 1.392 . S
C445 C446 1.398 . S
C445 H473 0.929 . S
C446 C445 1.398 . S
C446 C447 1.352 . S
C447 C446 1.352 . S
C447 C448 1.384 . S
C447 H474 0.930 . S
C448 C443 1.407 . S
C448 C447 1.384 . S
C448 H475 0.929 . S
C449 O462 1.241 . S
C449 O463 1.273 . S
C450 O464 1.251 . S
C450 O465 1.268 . S
C451 Nd441 2.836 . S
C451 C452 1.498 . S
C451 O466 1.258 . S
C451 O467 1.239 . S
C452 C451 1.498 . S
C452 C453 1.366 . S
C452 C457 1.407 . S
C453 C452 1.366 . S
C453 C454 1.392 . S
C453 H476 0.930 . S
C454 C453 1.392 . S
C454 C455 1.398 . S
C454 H477 0.929 . S
C455 C454 1.398 . S
C455 C456 1.352 . S
C456 C455 1.352 . S
C456 C457 1.384 . S
C456 H478 0.930 . S
C457 C452 1.407 . S
C457 C456 1.384 . S
C457 H479 0.929 . S
C458 O468 1.241 . S
C458 O469 1.273 . S
C459 O470 1.251 . S
C459 O471 1.268 . S
O460 Nd440 2.500 . S
O460 C442 1.258 . S
O461 Nd440 2.492 . S
O461 C442 1.239 . S
O462 Nd440 2.487 . S
O462 C449 1.241 . S
O463 Nd440 2.682 . S
O463 Nd441 2.414 . S
O463 C449 1.273 . S
O464 Nd440 2.410 . S
O464 C450 1.251 . S
O465 Nd441 2.424 . S
O465 C450 1.268 . S
O466 Nd441 2.500 . S
O466 C451 1.258 . S
O467 Nd441 2.492 . S
O467 C451 1.239 . S
O468 Nd441 2.487 . S
O468 C458 1.241 . S
O469 Nd440 2.414 . S
O469 Nd441 2.682 . S
O469 C458 1.273 . S
O470 Nd441 2.410 . S
O470 C459 1.251 . S
O471 Nd440 2.424 . S
O471 C459 1.268 . S
H472 C444 0.930 . S
H473 C445 0.929 . S
H474 C447 0.930 . S
H475 C448 0.929 . S
H476 C453 0.930 . S
H477 C454 0.929 . S
H478 C456 0.930 . S
H479 C457 0.929 . S
Nd480 C482 2.836 . S
Nd480 O500 2.500 . S
Nd480 O501 2.492 . S
Nd480 O502 2.487 . S
Nd480 O503 2.682 . S
Nd480 O504 2.410 . S
Nd480 O509 2.414 . S
Nd480 O511 2.424 . S
Nd481 C491 2.836 . S
Nd481 O503 2.414 . S
Nd481 O505 2.424 . S
Nd481 O506 2.500 . S
Nd481 O507 2.492 . S
Nd481 O508 2.487 . S
Nd481 O509 2.682 . S
Nd481 O510 2.410 . S
C482 Nd480 2.836 . S
C482 C483 1.498 . S
C482 O500 1.258 . S
C482 O501 1.239 . S
C483 C482 1.498 . S
C483 C484 1.366 . S
C483 C488 1.407 . S
C484 C483 1.366 . S
C484 C485 1.392 . S
C484 H512 0.930 . S
C485 C484 1.392 . S
C485 C486 1.398 . S
C485 H513 0.929 . S
C486 C485 1.398 . S
C486 C487 1.352 . S
C487 C486 1.352 . S
C487 C488 1.384 . S
C487 H514 0.930 . S
C488 C483 1.407 . S
C488 C487 1.384 . S
C488 H515 0.929 . S
C489 O502 1.241 . S
C489 O503 1.273 . S
C490 O504 1.251 . S
C490 O505 1.268 . S
C491 Nd481 2.836 . S
C491 C492 1.498 . S
C491 O506 1.258 . S
C491 O507 1.239 . S
C492 C491 1.498 . S
C492 C493 1.366 . S
C492 C497 1.407 . S
C493 C492 1.366 . S
C493 C494 1.392 . S
C493 H516 0.930 . S
C494 C493 1.392 . S
C494 C495 1.398 . S
C494 H517 0.929 . S
C495 C494 1.398 . S
C495 C496 1.352 . S
C496 C495 1.352 . S
C496 C497 1.384 . S
C496 H518 0.930 . S
C497 C492 1.407 . S
C497 C496 1.384 . S
C497 H519 0.929 . S
C498 O508 1.241 . S
C498 O509 1.273 . S
C499 O510 1.251 . S
C499 O511 1.268 . S
O500 Nd480 2.500 . S
O500 C482 1.258 . S
O501 Nd480 2.492 . S
O501 C482 1.239 . S
O502 Nd480 2.487 . S
O502 C489 1.241 . S
O503 Nd480 2.682 . S
O503 Nd481 2.414 . S
O503 C489 1.273 . S
O504 Nd480 2.410 . S
O504 C490 1.251 . S
O505 Nd481 2.424 . S
O505 C490 1.268 . S
O506 Nd481 2.500 . S
O506 C491 1.258 . S
O507 Nd481 2.492 . S
O507 C491 1.239 . S
O508 Nd481 2.487 . S
O508 C498 1.241 . S
O509 Nd480 2.414 . S
O509 Nd481 2.682 . S
O509 C498 1.273 . S
O510 Nd481 2.410 . S
O510 C499 1.251 . S
O511 Nd480 2.424 . S
O511 C499 1.268 . S
H512 C484 0.930 . S
H513 C485 0.929 . S
H514 C487 0.930 . S
H515 C488 0.929 . S
H516 C493 0.930 . S
H517 C494 0.929 . S
H518 C496 0.930 . S
H519 C497 0.929 . S
Nd520 C522 2.836 1_554 S
Nd520 O540 2.500 . S
Nd520 O541 2.492 . S
Nd520 O542 2.487 . S
Nd520 O543 2.682 . S
Nd520 O544 2.410 . S
Nd520 O549 2.414 . S
Nd520 O551 2.424 . S
Nd521 C531 2.836 . S
Nd521 O543 2.414 1_655 S
Nd521 O545 2.424 . S
Nd521 O546 2.500 . S
Nd521 O547 2.492 . S
Nd521 O548 2.487 . S
Nd521 O549 2.682 1_655 S
Nd521 O550 2.410 1_655 S
C522 Nd520 2.836 1_556 S
C522 C523 1.498 . S
C522 O540 1.258 1_556 S
C522 O541 1.239 1_556 S
C523 C522 1.498 . S
C523 C524 1.366 . S
C523 C528 1.407 . S
C524 C523 1.366 . S
C524 C525 1.392 . S
C524 H552 0.930 . S
C525 C524 1.392 . S
C525 C526 1.398 . S
C525 H553 0.929 . S
C526 C525 1.398 . S
C526 C527 1.352 . S
C527 C526 1.352 . S
C527 C528 1.384 . S
C527 H554 0.930 . S
C528 C523 1.407 . S
C528 C527 1.384 . S
C528 H555 0.929 . S
C529 O542 1.241 . S
C529 O543 1.273 . S
C530 O544 1.251 1_655 S
C530 O545 1.268 . S
C531 Nd521 2.836 . S
C531 C532 1.498 . S
C531 O546 1.258 . S
C531 O547 1.239 . S
C532 C531 1.498 . S
C532 C533 1.366 . S
C532 C537 1.407 . S
C533 C532 1.366 . S
C533 C534 1.392 . S
C533 H556 0.930 . S
C534 C533 1.392 . S
C534 C535 1.398 . S
C534 H557 0.929 . S
C535 C534 1.398 . S
C535 C536 1.352 . S
C536 C535 1.352 . S
C536 C537 1.384 . S
C536 H558 0.930 . S
C537 C532 1.407 . S
C537 C536 1.384 . S
C537 H559 0.929 . S
C538 O548 1.241 1_455 S
C538 O549 1.273 . S
C539 O550 1.251 . S
C539 O551 1.268 . S
O540 Nd520 2.500 . S
O540 C522 1.258 1_554 S
O541 Nd520 2.492 . S
O541 C522 1.239 1_554 S
O542 Nd520 2.487 . S
O542 C529 1.241 . S
O543 Nd520 2.682 . S
O543 Nd521 2.414 1_455 S
O543 C529 1.273 . S
O544 Nd520 2.410 . S
O544 C530 1.251 1_455 S
O545 Nd521 2.424 . S
O545 C530 1.268 . S
O546 Nd521 2.500 . S
O546 C531 1.258 . S
O547 Nd521 2.492 . S
O547 C531 1.239 . S
O548 Nd521 2.487 . S
O548 C538 1.241 1_655 S
O549 Nd520 2.414 . S
O549 Nd521 2.682 1_455 S
O549 C538 1.273 . S
O550 Nd521 2.410 1_455 S
O550 C539 1.251 . S
O551 Nd520 2.424 . S
O551 C539 1.268 . S
H552 C524 0.930 . S
H553 C525 0.929 . S
H554 C527 0.930 . S
H555 C528 0.929 . S
H556 C533 0.930 . S
H557 C534 0.929 . S
H558 C536 0.930 . S
H559 C537 0.929 . S
Nd560 C562 2.836 . S
Nd560 O580 2.500 . S
Nd560 O581 2.492 . S
Nd560 O582 2.487 . S
Nd560 O583 2.682 . S
Nd560 O584 2.410 . S
Nd560 O589 2.414 . S
Nd560 O591 2.424 . S
Nd561 C571 2.836 . S
Nd561 O583 2.414 . S
Nd561 O585 2.424 . S
Nd561 O586 2.500 . S
Nd561 O587 2.492 . S
Nd561 O588 2.487 . S
Nd561 O589 2.682 . S
Nd561 O590 2.410 . S
C562 Nd560 2.836 . S
C562 C563 1.498 . S
C562 O580 1.258 . S
C562 O581 1.239 . S
C563 C562 1.498 . S
C563 C564 1.366 . S
C563 C568 1.407 . S
C564 C563 1.366 . S
C564 C565 1.392 . S
C564 H592 0.930 . S
C565 C564 1.392 . S
C565 C566 1.398 . S
C565 H593 0.929 . S
C566 C565 1.398 . S
C566 C567 1.352 . S
C567 C566 1.352 . S
C567 C568 1.384 . S
C567 H594 0.930 . S
C568 C563 1.407 . S
C568 C567 1.384 . S
C568 H595 0.929 . S
C569 O582 1.241 . S
C569 O583 1.273 . S
C570 O584 1.251 . S
C570 O585 1.268 . S
C571 Nd561 2.836 . S
C571 C572 1.498 . S
C571 O586 1.258 . S
C571 O587 1.239 . S
C572 C571 1.498 . S
C572 C573 1.366 . S
C572 C577 1.407 . S
C573 C572 1.366 . S
C573 C574 1.392 . S
C573 H596 0.930 . S
C574 C573 1.392 . S
C574 C575 1.398 . S
C574 H597 0.929 . S
C575 C574 1.398 . S
C575 C576 1.352 . S
C576 C575 1.352 . S
C576 C577 1.384 . S
C576 H598 0.930 . S
C577 C572 1.407 . S
C577 C576 1.384 . S
C577 H599 0.929 . S
C578 O588 1.241 . S
C578 O589 1.273 . S
C579 O590 1.251 . S
C579 O591 1.268 . S
O580 Nd560 2.500 . S
O580 C562 1.258 . S
O581 Nd560 2.492 . S
O581 C562 1.239 . S
O582 Nd560 2.487 . S
O582 C569 1.241 . S
O583 Nd560 2.682 . S
O583 Nd561 2.414 . S
O583 C569 1.273 . S
O584 Nd560 2.410 . S
O584 C570 1.251 . S
O585 Nd561 2.424 . S
O585 C570 1.268 . S
O586 Nd561 2.500 . S
O586 C571 1.258 . S
O587 Nd561 2.492 . S
O587 C571 1.239 . S
O588 Nd561 2.487 . S
O588 C578 1.241 . S
O589 Nd560 2.414 . S
O589 Nd561 2.682 . S
O589 C578 1.273 . S
O590 Nd561 2.410 . S
O590 C579 1.251 . S
O591 Nd560 2.424 . S
O591 C579 1.268 . S
H592 C564 0.930 . S
H593 C565 0.929 . S
H594 C567 0.930 . S
H595 C568 0.929 . S
H596 C573 0.930 . S
H597 C574 0.929 . S
H598 C576 0.930 . S
H599 C577 0.929 . S
Nd600 C602 2.836 . S
Nd600 O620 2.500 . S
Nd600 O621 2.492 . S
Nd600 O622 2.487 . S
Nd600 O623 2.682 1_455 S
Nd600 O624 2.410 1_455 S
Nd600 O629 2.414 . S
Nd600 O631 2.424 . S
Nd601 C611 2.836 1_556 S
Nd601 O623 2.414 . S
Nd601 O625 2.424 . S
Nd601 O626 2.500 . S
Nd601 O627 2.492 . S
Nd601 O628 2.487 . S
Nd601 O629 2.682 1_655 S
Nd601 O630 2.410 1_655 S
C602 Nd600 2.836 . S
C602 C603 1.498 . S
C602 O620 1.258 . S
C602 O621 1.239 . S
C603 C602 1.498 . S
C603 C604 1.366 . S
C603 C608 1.407 . S
C604 C603 1.366 . S
C604 C605 1.392 . S
C604 H632 0.930 . S
C605 C604 1.392 . S
C605 C606 1.398 . S
C605 H633 0.929 . S
C606 C605 1.398 . S
C606 C607 1.352 . S
C607 C606 1.352 . S
C607 C608 1.384 . S
C607 H634 0.930 . S
C608 C603 1.407 . S
C608 C607 1.384 . S
C608 H635 0.929 . S
C609 O622 1.241 . S
C609 O623 1.273 1_455 S
C610 O624 1.251 . S
C610 O625 1.268 . S
C611 Nd601 2.836 1_554 S
C611 C612 1.498 . S
C611 O626 1.258 1_554 S
C611 O627 1.239 1_554 S
C612 C611 1.498 . S
C612 C613 1.366 . S
C612 C617 1.407 . S
C613 C612 1.366 . S
C613 C614 1.392 . S
C613 H636 0.930 . S
C614 C613 1.392 . S
C614 C615 1.398 . S
C614 H637 0.929 . S
C615 C614 1.398 . S
C615 C616 1.352 . S
C616 C615 1.352 . S
C616 C617 1.384 . S
C616 H638 0.930 . S
C617 C612 1.407 . S
C617 C616 1.384 . S
C617 H639 0.929 . S
C618 O628 1.241 . S
C618 O629 1.273 1_655 S
C619 O630 1.251 . S
C619 O631 1.268 . S
O620 Nd600 2.500 . S
O620 C602 1.258 . S
O621 Nd600 2.492 . S
O621 C602 1.239 . S
O622 Nd600 2.487 . S
O622 C609 1.241 . S
O623 Nd600 2.682 1_655 S
O623 Nd601 2.414 . S
O623 C609 1.273 1_655 S
O624 Nd600 2.410 1_655 S
O624 C610 1.251 . S
O625 Nd601 2.424 . S
O625 C610 1.268 . S
O626 Nd601 2.500 . S
O626 C611 1.258 1_556 S
O627 Nd601 2.492 . S
O627 C611 1.239 1_556 S
O628 Nd601 2.487 . S
O628 C618 1.241 . S
O629 Nd600 2.414 . S
O629 Nd601 2.682 1_455 S
O629 C618 1.273 1_455 S
O630 Nd601 2.410 1_455 S
O630 C619 1.251 . S
O631 Nd600 2.424 . S
O631 C619 1.268 . S
H632 C604 0.930 . S
H633 C605 0.929 . S
H634 C607 0.930 . S
H635 C608 0.929 . S
H636 C613 0.930 . S
H637 C614 0.929 . S
H638 C616 0.930 . S
H639 C617 0.929 . S
C640 C641 1.369 1_554 S
C640 C642 1.419 1_554 S
C640 H644 0.930 . S
C641 C640 1.369 1_556 S
C641 C650 1.429 . S
C642 C640 1.419 1_556 S
C642 C643 1.363 . S
C642 H645 0.929 . S
C643 C642 1.363 . S
C643 C649 1.428 . S
H644 C640 0.930 . S
H645 C642 0.929 . S
S646 N647 1.613 . S
S646 N648 1.610 . S
N647 S646 1.613 . S
N647 C650 1.350 . S
N648 S646 1.610 . S
N648 C649 1.351 . S
C649 C643 1.428 . S
C649 N648 1.351 . S
C649 C650 1.434 . S
C650 C641 1.429 . S
C650 N647 1.350 . S
C650 C649 1.434 . S
C651 C652 1.369 . S
C651 C653 1.419 . S
C651 H655 0.930 . S
C652 C651 1.369 . S
C652 C661 1.429 . S
C653 C651 1.419 . S
C653 C654 1.363 . S
C653 H656 0.929 . S
C654 C653 1.363 . S
C654 C660 1.428 . S
H655 C651 0.930 . S
H656 C653 0.929 . S
S657 N658 1.613 . S
S657 N659 1.610 . S
N658 S657 1.613 . S
N658 C661 1.350 . S
N659 S657 1.610 . S
N659 C660 1.351 . S
C660 C654 1.428 . S
C660 N659 1.351 . S
C660 C661 1.434 . S
C661 C652 1.429 . S
C661 N658 1.350 . S
C661 C660 1.434 . S
C662 C663 1.369 . S
C662 C664 1.419 . S
C662 H666 0.930 . S
C663 C662 1.369 . S
C663 C672 1.429 . S
C664 C662 1.419 . S
C664 C665 1.363 . S
C664 H667 0.929 . S
C665 C664 1.363 . S
C665 C671 1.428 . S
H666 C662 0.930 . S
H667 C664 0.929 . S
S668 N669 1.613 . S
S668 N670 1.610 . S
N669 S668 1.613 . S
N669 C672 1.350 . S
N670 S668 1.610 . S
N670 C671 1.351 . S
C671 C665 1.428 . S
C671 N670 1.351 . S
C671 C672 1.434 . S
C672 C663 1.429 . S
C672 N669 1.350 . S
C672 C671 1.434 . S
C673 C674 1.369 . S
C673 C675 1.419 . S
C673 H677 0.930 . S
C674 C673 1.369 . S
C674 C683 1.429 . S
C675 C673 1.419 . S
C675 C676 1.363 . S
C675 H678 0.929 . S
C676 C675 1.363 . S
C676 C682 1.428 . S
H677 C673 0.930 . S
H678 C675 0.929 . S
S679 N680 1.613 . S
S679 N681 1.610 . S
N680 S679 1.613 . S
N680 C683 1.350 . S
N681 S679 1.610 . S
N681 C682 1.351 . S
C682 C676 1.428 . S
C682 N681 1.351 . S
C682 C683 1.434 . S
C683 C674 1.429 . S
C683 N680 1.350 . S
C683 C682 1.434 . S
C684 C685 1.369 . S
C684 C686 1.419 . S
C684 H688 0.930 . S
C685 C684 1.369 . S
C685 C694 1.429 . S
C686 C684 1.419 . S
C686 C687 1.363 . S
C686 H689 0.929 . S
C687 C686 1.363 . S
C687 C693 1.428 . S
H688 C684 0.930 . S
H689 C686 0.929 . S
S690 N691 1.613 . S
S690 N692 1.610 . S
N691 S690 1.613 . S
N691 C694 1.350 . S
N692 S690 1.610 . S
N692 C693 1.351 . S
C693 C687 1.428 . S
C693 N692 1.351 . S
C693 C694 1.434 . S
C694 C685 1.429 . S
C694 N691 1.350 . S
C694 C693 1.434 . S
C695 C696 1.369 . S
C695 C697 1.419 . S
C695 H699 0.930 . S
C696 C695 1.369 . S
C696 C705 1.429 . S
C697 C695 1.419 . S
C697 C698 1.363 . S
C697 H700 0.929 . S
C698 C697 1.363 . S
C698 C704 1.428 . S
H699 C695 0.930 . S
H700 C697 0.929 . S
S701 N702 1.613 . S
S701 N703 1.610 . S
N702 S701 1.613 . S
N702 C705 1.350 . S
N703 S701 1.610 . S
N703 C704 1.351 . S
C704 C698 1.428 . S
C704 N703 1.351 . S
C704 C705 1.434 . S
C705 C696 1.429 . S
C705 N702 1.350 . S
C705 C704 1.434 . S
C706 C707 1.369 . S
C706 C708 1.419 . S
C706 H710 0.930 . S
C707 C706 1.369 . S
C707 C716 1.429 . S
C708 C706 1.419 . S
C708 C709 1.363 . S
C708 H711 0.929 . S
C709 C708 1.363 . S
C709 C715 1.428 . S
H710 C706 0.930 . S
H711 C708 0.929 . S
S712 N713 1.613 . S
S712 N714 1.610 . S
N713 S712 1.613 . S
N713 C716 1.350 . S
N714 S712 1.610 . S
N714 C715 1.351 . S
C715 C709 1.428 . S
C715 N714 1.351 . S
C715 C716 1.434 . S
C716 C707 1.429 . S
C716 N713 1.350 . S
C716 C715 1.434 . S
C717 C718 1.369 . S
C717 C719 1.419 . S
C717 H721 0.930 . S
C718 C717 1.369 . S
C718 C727 1.429 . S
C719 C717 1.419 . S
C719 C720 1.363 . S
C719 H722 0.929 . S
C720 C719 1.363 . S
C720 C726 1.428 . S
H721 C717 0.930 . S
H722 C719 0.929 . S
S723 N724 1.613 . S
S723 N725 1.610 . S
N724 S723 1.613 . S
N724 C727 1.350 . S
N725 S723 1.610 . S
N725 C726 1.351 . S
C726 C720 1.428 . S
C726 N725 1.351 . S
C726 C727 1.434 . S
C727 C718 1.429 . S
C727 N724 1.350 . S
C727 C726 1.434 . S
C728 C729 1.369 . S
C728 C730 1.419 . S
C728 H732 0.930 . S
C729 C728 1.369 . S
C729 C738 1.429 . S
C730 C728 1.419 . S
C730 C731 1.363 . S
C730 H733 0.929 . S
C731 C730 1.363 . S
C731 C737 1.428 . S
H732 C728 0.930 . S
H733 C730 0.929 . S
S734 N735 1.613 . S
S734 N736 1.610 . S
N735 S734 1.613 . S
N735 C738 1.350 . S
N736 S734 1.610 . S
N736 C737 1.351 . S
C737 C731 1.428 . S
C737 N736 1.351 . S
C737 C738 1.434 . S
C738 C729 1.429 . S
C738 N735 1.350 . S
C738 C737 1.434 . S
C739 C740 1.369 . S
C739 C741 1.419 . S
C739 H743 0.930 . S
C740 C739 1.369 . S
C740 C749 1.429 . S
C741 C739 1.419 . S
C741 C742 1.363 . S
C741 H744 0.929 . S
C742 C741 1.363 . S
C742 C748 1.428 . S
H743 C739 0.930 . S
H744 C741 0.929 . S
S745 N746 1.613 . S
S745 N747 1.610 . S
N746 S745 1.613 . S
N746 C749 1.350 . S
N747 S745 1.610 . S
N747 C748 1.351 . S
C748 C742 1.428 . S
C748 N747 1.351 . S
C748 C749 1.434 . S
C749 C740 1.429 . S
C749 N746 1.350 . S
C749 C748 1.434 . S
C750 C751 1.369 . S
C750 C752 1.419 . S
C750 H754 0.930 . S
C751 C750 1.369 . S
C751 C760 1.429 . S
C752 C750 1.419 . S
C752 C753 1.363 . S
C752 H755 0.929 . S
C753 C752 1.363 . S
C753 C759 1.428 . S
H754 C750 0.930 . S
H755 C752 0.929 . S
S756 N757 1.613 . S
S756 N758 1.610 . S
N757 S756 1.613 . S
N757 C760 1.350 . S
N758 S756 1.610 . S
N758 C759 1.351 . S
C759 C753 1.428 . S
C759 N758 1.351 . S
C759 C760 1.434 . S
C760 C751 1.429 . S
C760 N757 1.350 . S
C760 C759 1.434 . S
C761 C762 1.369 . S
C761 C763 1.419 . S
C761 H765 0.930 . S
C762 C761 1.369 . S
C762 C771 1.429 . S
C763 C761 1.419 . S
C763 C764 1.363 . S
C763 H766 0.929 . S
C764 C763 1.363 . S
C764 C770 1.428 . S
H765 C761 0.930 . S
H766 C763 0.929 . S
S767 N768 1.613 . S
S767 N769 1.610 . S
N768 S767 1.613 . S
N768 C771 1.350 . S
N769 S767 1.610 . S
N769 C770 1.351 . S
C770 C764 1.428 . S
C770 N769 1.351 . S
C770 C771 1.434 . S
C771 C762 1.429 . S
C771 N768 1.350 . S
C771 C770 1.434 . S
C772 C773 1.369 . S
C772 C774 1.419 . S
C772 H776 0.930 . S
C773 C772 1.369 . S
C773 C782 1.429 . S
C774 C772 1.419 . S
C774 C775 1.363 . S
C774 H777 0.929 . S
C775 C774 1.363 . S
C775 C781 1.428 . S
H776 C772 0.930 . S
H777 C774 0.929 . S
S778 N779 1.613 . S
S778 N780 1.610 . S
N779 S778 1.613 . S
N779 C782 1.350 . S
N780 S778 1.610 . S
N780 C781 1.351 . S
C781 C775 1.428 . S
C781 N780 1.351 . S
C781 C782 1.434 . S
C782 C773 1.429 . S
C782 N779 1.350 . S
C782 C781 1.434 . S
C783 C784 1.369 . S
C783 C785 1.419 . S
C783 H787 0.930 . S
C784 C783 1.369 . S
C784 C793 1.429 . S
C785 C783 1.419 . S
C785 C786 1.363 . S
C785 H788 0.929 . S
C786 C785 1.363 . S
C786 C792 1.428 . S
H787 C783 0.930 . S
H788 C785 0.929 . S
S789 N790 1.613 . S
S789 N791 1.610 . S
N790 S789 1.613 . S
N790 C793 1.350 . S
N791 S789 1.610 . S
N791 C792 1.351 . S
C792 C786 1.428 . S
C792 N791 1.351 . S
C792 C793 1.434 . S
C793 C784 1.429 . S
C793 N790 1.350 . S
C793 C792 1.434 . S
C794 C795 1.369 . S
C794 C796 1.419 . S
C794 H798 0.930 . S
C795 C794 1.369 . S
C795 C804 1.429 . S
C796 C794 1.419 . S
C796 C797 1.363 . S
C796 H799 0.929 . S
C797 C796 1.363 . S
C797 C803 1.428 1_554 S
H798 C794 0.930 . S
H799 C796 0.929 . S
S800 N801 1.613 1_556 S
S800 N802 1.610 . S
N801 S800 1.613 1_554 S
N801 C804 1.350 . S
N802 S800 1.610 . S
N802 C803 1.351 . S
C803 C797 1.428 1_556 S
C803 N802 1.351 . S
C803 C804 1.434 1_556 S
C804 C795 1.429 . S
C804 N801 1.350 . S
C804 C803 1.434 1_554 S
C805 C806 1.369 . S
C805 C807 1.419 . S
C805 H809 0.930 . S
C806 C805 1.369 . S
C806 C815 1.429 . S
C807 C805 1.419 . S
C807 C808 1.363 . S
C807 H810 0.929 . S
C808 C807 1.363 . S
C808 C814 1.428 . S
H809 C805 0.930 . S
H810 C807 0.929 . S
S811 N812 1.613 . S
S811 N813 1.610 . S
N812 S811 1.613 . S
N812 C815 1.350 . S
N813 S811 1.610 . S
N813 C814 1.351 . S
C814 C808 1.428 . S
C814 N813 1.351 . S
C814 C815 1.434 . S
C815 C806 1.429 . S
C815 N812 1.350 . S
C815 C814 1.434 . S
C816 C817 1.369 1_655 S
C816 C818 1.419 . S
C816 H820 0.930 . S
C817 C816 1.369 1_455 S
C817 C826 1.429 . S
C818 C816 1.419 . S
C818 C819 1.363 1_655 S
C818 H821 0.929 . S
C819 C818 1.363 1_455 S
C819 C825 1.428 . S
H820 C816 0.930 . S
H821 C818 0.929 . S
S822 N823 1.613 . S
S822 N824 1.610 . S
N823 S822 1.613 . S
N823 C826 1.350 . S
N824 S822 1.610 . S
N824 C825 1.351 . S
C825 C819 1.428 . S
C825 N824 1.351 . S
C825 C826 1.434 . S
C826 C817 1.429 . S
C826 N823 1.350 . S
C826 C825 1.434 . S
C827 C828 1.369 . S
C827 C829 1.419 1_655 S
C827 H831 0.930 . S
C828 C827 1.369 . S
C828 C837 1.429 . S
C829 C827 1.419 1_455 S
C829 C830 1.363 . S
C829 H832 0.929 . S
C830 C829 1.363 . S
C830 C836 1.428 . S
H831 C827 0.930 . S
H832 C829 0.929 . S
S833 N834 1.613 1_455 S
S833 N835 1.610 . S
N834 S833 1.613 1_655 S
N834 C837 1.350 . S
N835 S833 1.610 . S
N835 C836 1.351 . S
C836 C830 1.428 . S
C836 N835 1.351 . S
C836 C837 1.434 1_455 S
C837 C828 1.429 . S
C837 N834 1.350 . S
C837 C836 1.434 1_655 S
C838 C839 1.369 . S
C838 C840 1.419 . S
C838 H842 0.930 . S
C839 C838 1.369 . S
C839 C848 1.429 . S
C840 C838 1.419 . S
C840 C841 1.363 . S
C840 H843 0.929 . S
C841 C840 1.363 . S
C841 C847 1.428 . S
H842 C838 0.930 . S
H843 C840 0.929 . S
S844 N845 1.613 . S
S844 N846 1.610 . S
N845 S844 1.613 . S
N845 C848 1.350 . S
N846 S844 1.610 . S
N846 C847 1.351 . S
C847 C841 1.428 . S
C847 N846 1.351 . S
C847 C848 1.434 . S
C848 C839 1.429 . S
C848 N845 1.350 . S
C848 C847 1.434 . S
C849 C850 1.369 . S
C849 C851 1.419 . S
C849 H853 0.930 . S
C850 C849 1.369 . S
C850 C859 1.429 . S
C851 C849 1.419 . S
C851 C852 1.363 . S
C851 H854 0.929 . S
C852 C851 1.363 . S
C852 C858 1.428 . S
H853 C849 0.930 . S
H854 C851 0.929 . S
S855 N856 1.613 1_554 S
S855 N857 1.610 1_554 S
N856 S855 1.613 1_556 S
N856 C859 1.350 . S
N857 S855 1.610 1_556 S
N857 C858 1.351 . S
C858 C852 1.428 . S
C858 N857 1.351 . S
C858 C859 1.434 . S
C859 C850 1.429 . S
C859 N856 1.350 . S
C859 C858 1.434 . S
C860 C861 1.369 . S
C860 C862 1.419 . S
C860 H864 0.930 . S
C861 C860 1.369 . S
C861 C870 1.429 1_455 S
C862 C860 1.419 . S
C862 C863 1.363 . S
C862 H865 0.929 . S
C863 C862 1.363 . S
C863 C869 1.428 1_455 S
H864 C860 0.930 . S
H865 C862 0.929 . S
S866 N867 1.613 . S
S866 N868 1.610 . S
N867 S866 1.613 . S
N867 C870 1.350 . S
N868 S866 1.610 . S
N868 C869 1.351 . S
C869 C863 1.428 1_655 S
C869 N868 1.351 . S
C869 C870 1.434 . S
C870 C861 1.429 1_655 S
C870 N867 1.350 . S
C870 C869 1.434 . S
C871 C872 1.369 . S
C871 C873 1.419 . S
C871 H875 0.930 . S
C872 C871 1.369 . S
C872 C881 1.429 . S
C873 C871 1.419 . S
C873 C874 1.363 . S
C873 H876 0.929 . S
C874 C873 1.363 . S
C874 C880 1.428 . S
H875 C871 0.930 . S
H876 C873 0.929 . S
S877 N878 1.613 . S
S877 N879 1.610 . S
N878 S877 1.613 . S
N878 C881 1.350 . S
N879 S877 1.610 . S
N879 C880 1.351 . S
C880 C874 1.428 . S
C880 N879 1.351 . S
C880 C881 1.434 . S
C881 C872 1.429 . S
C881 N878 1.350 . S
C881 C880 1.434 . S
C882 C883 1.369 . S
C882 C884 1.419 . S
C882 H886 0.930 . S
C883 C882 1.369 . S
C883 C892 1.429 . S
C884 C882 1.419 . S
C884 C885 1.363 . S
C884 H887 0.929 . S
C885 C884 1.363 . S
C885 C891 1.428 . S
H886 C882 0.930 . S
H887 C884 0.929 . S
S888 N889 1.613 . S
S888 N890 1.610 . S
N889 S888 1.613 . S
N889 C892 1.350 . S
N890 S888 1.610 . S
N890 C891 1.351 . S
C891 C885 1.428 . S
C891 N890 1.351 . S
C891 C892 1.434 . S
C892 C883 1.429 . S
C892 N889 1.350 . S
C892 C891 1.434 . S
C893 C894 1.369 . S
C893 C895 1.419 1_455 S
C893 H897 0.930 . S
C894 C893 1.369 . S
C894 C903 1.429 . S
C895 C893 1.419 1_655 S
C895 C896 1.363 . S
C895 H898 0.929 . S
C896 C895 1.363 . S
C896 C902 1.428 . S
H897 C893 0.930 . S
H898 C895 0.929 . S
S899 N900 1.613 . S
S899 N901 1.610 1_455 S
N900 S899 1.613 . S
N900 C903 1.350 . S
N901 S899 1.610 1_655 S
N901 C902 1.351 . S
C902 C896 1.428 . S
C902 N901 1.351 . S
C902 C903 1.434 1_655 S
C903 C894 1.429 . S
C903 N900 1.350 . S
C903 C902 1.434 1_455 S
C904 C905 1.369 1_665 S
C904 C906 1.419 1_554 S
C904 H908 0.930 . S
C905 C904 1.369 1_445 S
C905 C914 1.429 . S
C906 C904 1.419 1_556 S
C906 C907 1.363 1_655 S
C906 H909 0.929 . S
C907 C906 1.363 1_455 S
C907 C913 1.428 1_565 S
H908 C904 0.930 . S
H909 C906 0.929 . S
S910 N911 1.613 1_556 S
S910 N912 1.610 . S
N911 S910 1.613 1_554 S
N911 C914 1.350 . S
N912 S910 1.610 . S
N912 C913 1.351 . S
C913 C907 1.428 1_545 S
C913 N912 1.351 . S
C913 C914 1.434 1_556 S
C914 C905 1.429 . S
C914 N911 1.350 . S
C914 C913 1.434 1_554 S
C915 C916 1.369 . S
C915 C917 1.419 . S
C915 H919 0.930 . S
C916 C915 1.369 . S
C916 C925 1.429 . S
C917 C915 1.419 . S
C917 C918 1.363 . S
C917 H920 0.929 . S
C918 C917 1.363 . S
C918 C924 1.428 . S
H919 C915 0.930 . S
H920 C917 0.929 . S
S921 N922 1.613 . S
S921 N923 1.610 . S
N922 S921 1.613 . S
N922 C925 1.350 . S
N923 S921 1.610 . S
N923 C924 1.351 . S
C924 C918 1.428 . S
C924 N923 1.351 . S
C924 C925 1.434 . S
C925 C916 1.429 . S
C925 N922 1.350 . S
C925 C924 1.434 . S
C926 C927 1.369 . S
C926 C928 1.419 . S
C926 H930 0.930 . S
C927 C926 1.369 . S
C927 C936 1.429 1_545 S
C928 C926 1.419 . S
C928 C929 1.363 1_545 S
C928 H931 0.929 . S
C929 C928 1.363 1_565 S
C929 C935 1.428 . S
H930 C926 0.930 . S
H931 C928 0.929 . S
S932 N933 1.613 . S
S932 N934 1.610 . S
N933 S932 1.613 . S
N933 C936 1.350 . S
N934 S932 1.610 . S
N934 C935 1.351 . S
C935 C929 1.428 . S
C935 N934 1.351 . S
C935 C936 1.434 . S
C936 C927 1.429 1_565 S
C936 N933 1.350 . S
C936 C935 1.434 . S
C937 C938 1.369 . S
C937 C939 1.419 . S
C937 H941 0.930 . S
C938 C937 1.369 . S
C938 C947 1.429 . S
C939 C937 1.419 . S
C939 C940 1.363 . S
C939 H942 0.929 . S
C940 C939 1.363 . S
C940 C946 1.428 . S
H941 C937 0.930 . S
H942 C939 0.929 . S
S943 N944 1.613 . S
S943 N945 1.610 . S
N944 S943 1.613 . S
N944 C947 1.350 . S
N945 S943 1.610 . S
N945 C946 1.351 . S
C946 C940 1.428 . S
C946 N945 1.351 . S
C946 C947 1.434 . S
C947 C938 1.429 . S
C947 N944 1.350 . S
C947 C946 1.434 . S
C948 C949 1.369 . S
C948 C950 1.419 . S
C948 H952 0.930 . S
C949 C948 1.369 . S
C949 C958 1.429 . S
C950 C948 1.419 . S
C950 C951 1.363 . S
C950 H953 0.929 . S
C951 C950 1.363 . S
C951 C957 1.428 . S
H952 C948 0.930 . S
H953 C950 0.929 . S
S954 N955 1.613 . S
S954 N956 1.610 . S
N955 S954 1.613 . S
N955 C958 1.350 . S
N956 S954 1.610 . S
N956 C957 1.351 . S
C957 C951 1.428 . S
C957 N956 1.351 . S
C957 C958 1.434 . S
C958 C949 1.429 . S
C958 N955 1.350 . S
C958 C957 1.434 . S
C959 C960 1.369 . S
C959 C961 1.419 . S
C959 H963 0.930 . S
C960 C959 1.369 . S
C960 C969 1.429 . S
C961 C959 1.419 . S
C961 C962 1.363 . S
C961 H964 0.929 . S
C962 C961 1.363 . S
C962 C968 1.428 . S
H963 C959 0.930 . S
H964 C961 0.929 . S
S965 N966 1.613 . S
S965 N967 1.610 . S
N966 S965 1.613 . S
N966 C969 1.350 . S
N967 S965 1.610 . S
N967 C968 1.351 . S
C968 C962 1.428 . S
C968 N967 1.351 . S
C968 C969 1.434 . S
C969 C960 1.429 . S
C969 N966 1.350 . S
C969 C968 1.434 . S
C970 C971 1.369 . S
C970 C972 1.419 . S
C970 H974 0.930 . S
C971 C970 1.369 . S
C971 C980 1.429 . S
C972 C970 1.419 . S
C972 C973 1.363 . S
C972 H975 0.929 . S
C973 C972 1.363 . S
C973 C979 1.428 . S
H974 C970 0.930 . S
H975 C972 0.929 . S
S976 N977 1.613 . S
S976 N978 1.610 . S
N977 S976 1.613 . S
N977 C980 1.350 . S
N978 S976 1.610 . S
N978 C979 1.351 . S
C979 C973 1.428 . S
C979 N978 1.351 . S
C979 C980 1.434 . S
C980 C971 1.429 . S
C980 N977 1.350 . S
C980 C979 1.434 . S
C981 C982 1.369 . S
C981 C983 1.419 1_556 S
C981 H985 0.930 . S
C982 C981 1.369 . S
C982 C991 1.429 1_455 S
C983 C981 1.419 1_554 S
C983 C984 1.363 . S
C983 H986 0.929 . S
C984 C983 1.363 . S
C984 C990 1.428 1_455 S
H985 C981 0.930 . S
H986 C983 0.929 . S
S987 N988 1.613 1_554 S
S987 N989 1.610 . S
N988 S987 1.613 1_556 S
N988 C991 1.350 . S
N989 S987 1.610 . S
N989 C990 1.351 . S
C990 C984 1.428 1_655 S
C990 N989 1.351 . S
C990 C991 1.434 1_554 S
C991 C982 1.429 1_655 S
C991 N988 1.350 . S
C991 C990 1.434 1_556 S
C992 C993 1.369 . S
C992 C994 1.419 . S
C992 H996 0.930 . S
C993 C992 1.369 . S
C993 C1002 1.429 . S
C994 C992 1.419 . S
C994 C995 1.363 . S
C994 H997 0.929 . S
C995 C994 1.363 . S
C995 C1001 1.428 . S
H996 C992 0.930 . S
H997 C994 0.929 . S
S998 N999 1.613 . S
S998 N1000 1.610 . S
N999 S998 1.613 . S
N999 C1002 1.350 . S
N1000 S998 1.610 . S
N1000 C1001 1.351 . S
C1001 C995 1.428 . S
C1001 N1000 1.351 . S
C1001 C1002 1.434 . S
C1002 C993 1.429 . S
C1002 N999 1.350 . S
C1002 C1001 1.434 . S
C1003 C1004 1.369 . S
C1003 C1005 1.419 . S
C1003 H1007 0.930 . S
C1004 C1003 1.369 . S
C1004 C1013 1.429 . S
C1005 C1003 1.419 . S
C1005 C1006 1.363 . S
C1005 H1008 0.929 . S
C1006 C1005 1.363 . S
C1006 C1012 1.428 . S
H1007 C1003 0.930 . S
H1008 C1005 0.929 . S
S1009 N1010 1.613 . S
S1009 N1011 1.610 . S
N1010 S1009 1.613 . S
N1010 C1013 1.350 . S
N1011 S1009 1.610 . S
N1011 C1012 1.351 . S
C1012 C1006 1.428 . S
C1012 N1011 1.351 . S
C1012 C1013 1.434 . S
C1013 C1004 1.429 . S
C1013 N1010 1.350 . S
C1013 C1012 1.434 . S
C1014 C1015 1.369 1_554 S
C1014 C1016 1.419 1_554 S
C1014 H1018 0.930 . S
C1015 C1014 1.369 1_556 S
C1015 C1024 1.429 . S
C1016 C1014 1.419 1_556 S
C1016 C1017 1.363 . S
C1016 H1019 0.929 . S
C1017 C1016 1.363 . S
C1017 C1023 1.428 . S
H1018 C1014 0.930 . S
H1019 C1016 0.929 . S
S1020 N1021 1.613 . S
S1020 N1022 1.610 . S
N1021 S1020 1.613 . S
N1021 C1024 1.350 . S
N1022 S1020 1.610 . S
N1022 C1023 1.351 . S
C1023 C1017 1.428 . S
C1023 N1022 1.351 . S
C1023 C1024 1.434 . S
C1024 C1015 1.429 . S
C1024 N1021 1.350 . S
C1024 C1023 1.434 . S
C1025 C1026 1.369 . S
C1025 C1027 1.419 . S
C1025 H1029 0.930 . S
C1026 C1025 1.369 . S
C1026 C1035 1.429 . S
C1027 C1025 1.419 . S
C1027 C1028 1.363 . S
C1027 H1030 0.929 . S
C1028 C1027 1.363 . S
C1028 C1034 1.428 . S
H1029 C1025 0.930 . S
H1030 C1027 0.929 . S
S1031 N1032 1.613 . S
S1031 N1033 1.610 . S
N1032 S1031 1.613 . S
N1032 C1035 1.350 . S
N1033 S1031 1.610 . S
N1033 C1034 1.351 . S
C1034 C1028 1.428 . S
C1034 N1033 1.351 . S
C1034 C1035 1.434 . S
C1035 C1026 1.429 . S
C1035 N1032 1.350 . S
C1035 C1034 1.434 . S
C1036 C1037 1.369 . S
C1036 C1038 1.419 . S
C1036 H1040 0.930 . S
C1037 C1036 1.369 . S
C1037 C1046 1.429 . S
C1038 C1036 1.419 . S
C1038 C1039 1.363 . S
C1038 H1041 0.929 . S
C1039 C1038 1.363 . S
C1039 C1045 1.428 . S
H1040 C1036 0.930 . S
H1041 C1038 0.929 . S
S1042 N1043 1.613 . S
S1042 N1044 1.610 . S
N1043 S1042 1.613 . S
N1043 C1046 1.350 . S
N1044 S1042 1.610 . S
N1044 C1045 1.351 . S
C1045 C1039 1.428 . S
C1045 N1044 1.351 . S
C1045 C1046 1.434 . S
C1046 C1037 1.429 . S
C1046 N1043 1.350 . S
C1046 C1045 1.434 . S
C1047 C1048 1.369 . S
C1047 C1049 1.419 . S
C1047 H1051 0.930 . S
C1048 C1047 1.369 . S
C1048 C1057 1.429 . S
C1049 C1047 1.419 . S
C1049 C1050 1.363 . S
C1049 H1052 0.929 . S
C1050 C1049 1.363 . S
C1050 C1056 1.428 . S
H1051 C1047 0.930 . S
H1052 C1049 0.929 . S
S1053 N1054 1.613 . S
S1053 N1055 1.610 . S
N1054 S1053 1.613 . S
N1054 C1057 1.350 . S
N1055 S1053 1.610 . S
N1055 C1056 1.351 . S
C1056 C1050 1.428 . S
C1056 N1055 1.351 . S
C1056 C1057 1.434 . S
C1057 C1048 1.429 . S
C1057 N1054 1.350 . S
C1057 C1056 1.434 . S
C1058 C1059 1.369 . S
C1058 C1060 1.419 . S
C1058 H1062 0.930 . S
C1059 C1058 1.369 . S
C1059 C1068 1.429 1_554 S
C1060 C1058 1.419 . S
C1060 C1061 1.363 . S
C1060 H1063 0.929 . S
C1061 C1060 1.363 . S
C1061 C1067 1.428 . S
H1062 C1058 0.930 . S
H1063 C1060 0.929 . S
S1064 N1065 1.613 . S
S1064 N1066 1.610 1_556 S
N1065 S1064 1.613 . S
N1065 C1068 1.350 . S
N1066 S1064 1.610 1_554 S
N1066 C1067 1.351 . S
C1067 C1061 1.428 . S
C1067 N1066 1.351 . S
C1067 C1068 1.434 1_554 S
C1068 C1059 1.429 1_556 S
C1068 N1065 1.350 . S
C1068 C1067 1.434 1_556 S
C1069 C1070 1.369 . S
C1069 C1071 1.419 . S
C1069 H1073 0.930 . S
C1070 C1069 1.369 . S
C1070 C1079 1.429 . S
C1071 C1069 1.419 . S
C1071 C1072 1.363 . S
C1071 H1074 0.929 . S
C1072 C1071 1.363 . S
C1072 C1078 1.428 . S
H1073 C1069 0.930 . S
H1074 C1071 0.929 . S
S1075 N1076 1.613 . S
S1075 N1077 1.610 . S
N1076 S1075 1.613 . S
N1076 C1079 1.350 . S
N1077 S1075 1.610 . S
N1077 C1078 1.351 . S
C1078 C1072 1.428 . S
C1078 N1077 1.351 . S
C1078 C1079 1.434 . S
C1079 C1070 1.429 . S
C1079 N1076 1.350 . S
C1079 C1078 1.434 . S
C1080 C1081 1.369 . S
C1080 C1082 1.419 . S
C1080 H1084 0.930 . S
C1081 C1080 1.369 . S
C1081 C1090 1.429 . S
C1082 C1080 1.419 . S
C1082 C1083 1.363 . S
C1082 H1085 0.929 . S
C1083 C1082 1.363 . S
C1083 C1089 1.428 . S
H1084 C1080 0.930 . S
H1085 C1082 0.929 . S
S1086 N1087 1.613 . S
S1086 N1088 1.610 . S
N1087 S1086 1.613 . S
N1087 C1090 1.350 . S
N1088 S1086 1.610 . S
N1088 C1089 1.351 . S
C1089 C1083 1.428 . S
C1089 N1088 1.351 . S
C1089 C1090 1.434 . S
C1090 C1081 1.429 . S
C1090 N1087 1.350 . S
C1090 C1089 1.434 . S
C1091 C1092 1.369 . S
C1091 C1093 1.419 . S
C1091 H1095 0.930 . S
C1092 C1091 1.369 . S
C1092 C1101 1.429 . S
C1093 C1091 1.419 . S
C1093 C1094 1.363 . S
C1093 H1096 0.929 . S
C1094 C1093 1.363 . S
C1094 C1100 1.428 . S
H1095 C1091 0.930 . S
H1096 C1093 0.929 . S
S1097 N1098 1.613 . S
S1097 N1099 1.610 . S
N1098 S1097 1.613 . S
N1098 C1101 1.350 . S
N1099 S1097 1.610 . S
N1099 C1100 1.351 . S
C1100 C1094 1.428 . S
C1100 N1099 1.351 . S
C1100 C1101 1.434 . S
C1101 C1092 1.429 . S
C1101 N1098 1.350 . S
C1101 C1100 1.434 . S
C1102 C1103 1.369 . S
C1102 C1104 1.419 . S
C1102 H1106 0.930 . S
C1103 C1102 1.369 . S
C1103 C1112 1.429 . S
C1104 C1102 1.419 . S
C1104 C1105 1.363 . S
C1104 H1107 0.929 . S
C1105 C1104 1.363 . S
C1105 C1111 1.428 . S
H1106 C1102 0.930 . S
H1107 C1104 0.929 . S
S1108 N1109 1.613 . S
S1108 N1110 1.610 . S
N1109 S1108 1.613 . S
N1109 C1112 1.350 . S
N1110 S1108 1.610 . S
N1110 C1111 1.351 . S
C1111 C1105 1.428 . S
C1111 N1110 1.351 . S
C1111 C1112 1.434 . S
C1112 C1103 1.429 . S
C1112 N1109 1.350 . S
C1112 C1111 1.434 . S
C1113 C1114 1.369 . S
C1113 C1115 1.419 . S
C1113 H1117 0.930 . S
C1114 C1113 1.369 . S
C1114 C1123 1.429 . S
C1115 C1113 1.419 . S
C1115 C1116 1.363 . S
C1115 H1118 0.929 . S
C1116 C1115 1.363 . S
C1116 C1122 1.428 . S
H1117 C1113 0.930 . S
H1118 C1115 0.929 . S
S1119 N1120 1.613 . S
S1119 N1121 1.610 . S
N1120 S1119 1.613 . S
N1120 C1123 1.350 . S
N1121 S1119 1.610 . S
N1121 C1122 1.351 . S
C1122 C1116 1.428 . S
C1122 N1121 1.351 . S
C1122 C1123 1.434 . S
C1123 C1114 1.429 . S
C1123 N1120 1.350 . S
C1123 C1122 1.434 . S
C1124 C1125 1.369 . S
C1124 C1126 1.419 . S
C1124 H1128 0.930 . S
C1125 C1124 1.369 . S
C1125 C1134 1.429 . S
C1126 C1124 1.419 . S
C1126 C1127 1.363 . S
C1126 H1129 0.929 . S
C1127 C1126 1.363 . S
C1127 C1133 1.428 1_554 S
H1128 C1124 0.930 . S
H1129 C1126 0.929 . S
S1130 N1131 1.613 1_556 S
S1130 N1132 1.610 . S
N1131 S1130 1.613 1_554 S
N1131 C1134 1.350 . S
N1132 S1130 1.610 . S
N1132 C1133 1.351 . S
C1133 C1127 1.428 1_556 S
C1133 N1132 1.351 . S
C1133 C1134 1.434 1_556 S
C1134 C1125 1.429 . S
C1134 N1131 1.350 . S
C1134 C1133 1.434 1_554 S
C1135 C1136 1.369 . S
C1135 C1137 1.419 . S
C1135 H1139 0.930 . S
C1136 C1135 1.369 . S
C1136 C1145 1.429 . S
C1137 C1135 1.419 . S
C1137 C1138 1.363 . S
C1137 H1140 0.929 . S
C1138 C1137 1.363 . S
C1138 C1144 1.428 . S
H1139 C1135 0.930 . S
H1140 C1137 0.929 . S
S1141 N1142 1.613 . S
S1141 N1143 1.610 . S
N1142 S1141 1.613 . S
N1142 C1145 1.350 . S
N1143 S1141 1.610 . S
N1143 C1144 1.351 . S
C1144 C1138 1.428 . S
C1144 N1143 1.351 . S
C1144 C1145 1.434 . S
C1145 C1136 1.429 . S
C1145 N1142 1.350 . S
C1145 C1144 1.434 . S
C1146 C1147 1.369 . S
C1146 C1148 1.419 . S
C1146 H1150 0.930 . S
C1147 C1146 1.369 . S
C1147 C1156 1.429 . S
C1148 C1146 1.419 . S
C1148 C1149 1.363 . S
C1148 H1151 0.929 . S
C1149 C1148 1.363 . S
C1149 C1155 1.428 . S
H1150 C1146 0.930 . S
H1151 C1148 0.929 . S
S1152 N1153 1.613 . S
S1152 N1154 1.610 . S
N1153 S1152 1.613 . S
N1153 C1156 1.350 . S
N1154 S1152 1.610 . S
N1154 C1155 1.351 . S
C1155 C1149 1.428 . S
C1155 N1154 1.351 . S
C1155 C1156 1.434 . S
C1156 C1147 1.429 . S
C1156 N1153 1.350 . S
C1156 C1155 1.434 . S
C1157 C1158 1.369 . S
C1157 C1159 1.419 . S
C1157 H1161 0.930 . S
C1158 C1157 1.369 . S
C1158 C1167 1.429 . S
C1159 C1157 1.419 . S
C1159 C1160 1.363 . S
C1159 H1162 0.929 . S
C1160 C1159 1.363 . S
C1160 C1166 1.428 . S
H1161 C1157 0.930 . S
H1162 C1159 0.929 . S
S1163 N1164 1.613 . S
S1163 N1165 1.610 . S
N1164 S1163 1.613 . S
N1164 C1167 1.350 . S
N1165 S1163 1.610 . S
N1165 C1166 1.351 . S
C1166 C1160 1.428 . S
C1166 N1165 1.351 . S
C1166 C1167 1.434 . S
C1167 C1158 1.429 . S
C1167 N1164 1.350 . S
C1167 C1166 1.434 . S
C641 C10 1.193 1_556 S
C643 C295 1.133 . S
C652 C50 1.193 . S
C654 C175 1.130 . S
C663 C215 1.140 . S
C665 C90 1.189 . S
C674 C130 1.190 . S
C676 C255 1.128 . S
C685 C446 1.129 . S
C687 C179 1.189 1_554 S
C696 C339 1.192 . S
C698 C6 1.130 . S
C707 C406 1.142 . S
C709 C259 1.188 . S
C718 C86 1.126 . S
C720 C379 1.191 . S
C729 C375 1.132 . S
C731 C490 1.192 . S
C740 C410 1.192 . S
C742 C575 1.133 . S
C751 C530 1.190 1_556 S
C753 C335 1.129 . S
C762 C450 1.189 . S
C764 C615 1.128 . S
C773 C579 1.190 . S
C775 C126 1.129 . S
C784 C486 1.129 . S
C786 C219 1.192 . S
C795 C46 1.135 . S
C797 C619 1.187 1_554 S
C806 C299 1.185 . S
C808 C526 1.135 . S
C817 C529 0.727 . S
C819 C9 0.737 1_455 S
C828 C449 0.727 . S
C830 C49 0.727 . S
C839 C489 0.736 . S
C841 C89 0.741 . S
C850 C409 0.740 . S
C852 C129 0.741 . S
C861 C178 0.727 . S
C863 C618 0.726 1_455 S
C872 C378 0.741 . S
C874 C218 0.740 . S
C883 C258 0.740 . S
C885 C578 0.740 . S
C894 C298 0.743 . S
C896 C338 0.739 . S
C905 C18 1.896 . S
C907 C169 1.907 . S
C916 C58 1.903 . S
C918 C209 1.901 . S
C927 C249 1.907 . S
C929 C98 1.898 . S
C938 C138 1.902 . S
C940 C289 1.902 . S
C949 C418 1.896 . S
C951 C329 1.906 . S
C960 C458 1.900 . S
C962 C369 1.903 . S
C971 C498 1.906 . S
C973 C569 1.899 . S
C982 C609 1.902 . S
C984 C538 1.902 . S
C993 C15 1.966 . S
C995 C290 2.078 . S
C1004 C55 1.969 . S
C1006 C170 2.076 . S
C1015 C210 2.080 1_556 S
C1017 C95 1.965 . S
C1026 C250 2.078 . S
C1028 C135 1.966 . S
C1037 C459 2.080 . S
C1039 C166 1.965 . S
C1048 C326 1.970 . S
C1050 C19 2.077 . S
C1059 C419 2.076 1_554 S
C1061 C246 1.971 . S
C1070 C99 2.079 . S
C1072 C366 1.965 . S
C1081 C495 1.972 . S
C1083 C370 2.077 1_556 S
C1092 C570 2.078 . S
C1094 C415 1.968 . S
C1103 C535 1.965 . S
C1105 C330 2.078 . S
C1114 C610 2.079 . S
C1116 C455 1.965 . S
C1125 C566 1.972 . S
C1127 C139 2.076 1_554 S
C1136 C206 1.971 . S
C1138 C499 2.075 . S
C1147 C59 2.080 . S
C1149 C606 1.965 . S
C1158 C539 2.075 . S
C1160 C286 1.971 . S
