# Generated by pormake.
# Topology can, (4)-cn, num edge types: 1
# Building blocks:
#     Node 0, Type 0, BuildingBlock: KUFVIS_clean_sbu_0, # of connection points: 4
#     Node 1, Type 0, BuildingBlock: KUFVIS_clean_sbu_0, # of connection points: 4
#     Node 2, Type 0, BuildingBlock: KUFVIS_clean_sbu_0, # of connection points: 4
#     Node 3, Type 0, BuildingBlock: KUFVIS_clean_sbu_0, # of connection points: 4
#     Node 4, Type 0, BuildingBlock: KUFVIS_clean_sbu_0, # of connection points: 4
#     Node 5, Type 0, BuildingBlock: KUFVIS_clean_sbu_0, # of connection points: 4
#     Node 6, Type 0, BuildingBlock: KUFVIS_clean_sbu_0, # of connection points: 4
#     Node 7, Type 0, BuildingBlock: KUFVIS_clean_sbu_0, # of connection points: 4
#     Node 8, Type 0, BuildingBlock: KUFVIS_clean_sbu_0, # of connection points: 4
#     Node 9, Type 0, BuildingBlock: KUFVIS_clean_sbu_0, # of connection points: 4
#     Node 10, Type 0, BuildingBlock: KUFVIS_clean_sbu_0, # of connection points: 4
#     Node 11, Type 0, BuildingBlock: KUFVIS_clean_sbu_0, # of connection points: 4
#     Edge 12, Type (0, 0), BuildingBlock: CIFDUS_clean_linker_0, # of connection points: 2
#     Edge 13, Type (0, 0), BuildingBlock: CIFDUS_clean_linker_0, # of connection points: 2
#     Edge 14, Type (0, 0), BuildingBlock: CIFDUS_clean_linker_0, # of connection points: 2
#     Edge 15, Type (0, 0), BuildingBlock: CIFDUS_clean_linker_0, # of connection points: 2
#     Edge 16, Type (0, 0), BuildingBlock: CIFDUS_clean_linker_0, # of connection points: 2
#     Edge 17, Type (0, 0), BuildingBlock: CIFDUS_clean_linker_0, # of connection points: 2
#     Edge 18, Type (0, 0), BuildingBlock: CIFDUS_clean_linker_0, # of connection points: 2
#     Edge 19, Type (0, 0), BuildingBlock: CIFDUS_clean_linker_0, # of connection points: 2
#     Edge 20, Type (0, 0), BuildingBlock: CIFDUS_clean_linker_0, # of connection points: 2
#     Edge 21, Type (0, 0), BuildingBlock: CIFDUS_clean_linker_0, # of connection points: 2
#     Edge 22, Type (0, 0), BuildingBlock: CIFDUS_clean_linker_0, # of connection points: 2
#     Edge 23, Type (0, 0), BuildingBlock: CIFDUS_clean_linker_0, # of connection points: 2
#     Edge 24, Type (0, 0), BuildingBlock: CIFDUS_clean_linker_0, # of connection points: 2
#     Edge 25, Type (0, 0), BuildingBlock: CIFDUS_clean_linker_0, # of connection points: 2
#     Edge 26, Type (0, 0), BuildingBlock: CIFDUS_clean_linker_0, # of connection points: 2
#     Edge 27, Type (0, 0), BuildingBlock: CIFDUS_clean_linker_0, # of connection points: 2
#     Edge 28, Type (0, 0), BuildingBlock: CIFDUS_clean_linker_0, # of connection points: 2
#     Edge 29, Type (0, 0), BuildingBlock: CIFDUS_clean_linker_0, # of connection points: 2
#     Edge 30, Type (0, 0), BuildingBlock: CIFDUS_clean_linker_0, # of connection points: 2
#     Edge 31, Type (0, 0), BuildingBlock: CIFDUS_clean_linker_0, # of connection points: 2
#     Edge 32, Type (0, 0), BuildingBlock: CIFDUS_clean_linker_0, # of connection points: 2
#     Edge 33, Type (0, 0), BuildingBlock: CIFDUS_clean_linker_0, # of connection points: 2
#     Edge 34, Type (0, 0), BuildingBlock: CIFDUS_clean_linker_0, # of connection points: 2
#     Edge 35, Type (0, 0), BuildingBlock: CIFDUS_clean_linker_0, # of connection points: 2
# Relax obj value: 0.069
# Max RMSD: 0.070
# Mean RMSD: 0.064
data_MOF--net-can--node1-KUFVIS_clean_sbu_0--edge1-CIFDUS_clean_linker_0
_symmetry_space_group_name_H-M    P1
_symmetry_Int_Tables_number       1
_symmetry_cell_setting            triclinic
loop_
_symmetry_equiv_pos_as_xyz
'x, y, z'
_cell_length_a     47.797411
_cell_length_b     48.208167
_cell_length_c     23.442708
_cell_angle_alpha  90.126733
_cell_angle_beta   89.902109
_cell_angle_gamma 119.52193
loop_
_atom_site_label
_atom_site_type_symbol
_atom_site_fract_x
_atom_site_fract_y
_atom_site_fract_z
_atom_type_partial_charge
Mn0 Mn 0.06869 0.41112 0.26017 0.0
Mn1 Mn 0.13073 0.46685 0.33739 0.0
C2 C 0.07305 0.46045 0.27561 0.0
C3 C 0.04537 0.38585 0.17442 0.0
C4 C 0.07333 0.40994 0.39005 0.0
O5 O 0.10109 0.39509 0.25906 0.0
O6 O 0.14207 0.43511 0.30729 0.0
C7 C 0.17853 0.49712 0.24492 0.0
N8 N 0.16087 0.49956 0.2883 0.0
C9 C 0.18448 0.55612 0.27406 0.0
C10 C 0.20308 0.55426 0.22946 0.0
C11 C 0.20004 0.52462 0.21478 0.0
C12 C 0.1636 0.52795 0.3028 0.0
H13 H 0.17618 0.47437 0.23339 0.0
C14 C 0.12956 0.40878 0.27954 0.0
O15 O 0.03502 0.3716 0.22305 0.0
O16 O 0.07014 0.41436 0.1755 0.0
N17 N 0.12299 0.49918 0.36857 0.0
C18 C 0.10186 0.49653 0.41016 0.0
C19 C 0.10099 0.52386 0.42844 0.0
C20 C 0.12199 0.55362 0.40414 0.0
C21 C 0.14376 0.55579 0.36183 0.0
C22 C 0.14365 0.52777 0.34554 0.0
H23 H 0.0856 0.4737 0.4289 0.0
O24 O 0.04545 0.43597 0.2631 0.0
O25 O 0.09731 0.45536 0.2789 0.0
O26 O 0.05775 0.39858 0.34396 0.0
O27 O 0.10105 0.43476 0.39221 0.0
C28 C 0.16502 0.58454 0.33423 0.0
C29 C 0.18535 0.58469 0.29035 0.0
H30 H 0.21956 0.57538 0.20587 0.0
H31 H 0.2142 0.52297 0.18023 0.0
H32 H 0.08406 0.52197 0.461 0.0
H33 H 0.121 0.57458 0.4179 0.0
H34 H 0.16557 0.60657 0.34578 0.0
H35 H 0.20125 0.60686 0.26888 0.0
Mn36 Mn 0.67483 0.07558 0.74817 0.0
Mn37 Mn 0.72296 0.04304 0.75413 0.0
C38 C 0.69042 0.06144 0.66382 0.0
C39 C 0.62519 0.07351 0.75199 0.0
C40 C 0.74765 0.11385 0.76798 0.0
O41 O 0.67076 0.06172 0.83133 0.0
O42 O 0.70189 0.03889 0.82954 0.0
C43 C 0.67241 0.97576 0.77014 0.0
N44 N 0.69825 0.99821 0.74074 0.0
C45 C 0.69941 0.95832 0.68063 0.0
C46 C 0.67285 0.93471 0.71029 0.0
C47 C 0.65915 0.94351 0.75498 0.0
C48 C 0.7111 0.99009 0.69684 0.0
H49 H 0.6621 0.98242 0.80496 0.0
C50 C 0.68299 0.04649 0.8554 0.0
O51 O 0.65175 0.09912 0.76451 0.0
O52 O 0.6272 0.04847 0.73757 0.0
N53 N 0.74498 0.04462 0.68522 0.0
C54 C 0.77001 0.07042 0.66024 0.0
C55 C 0.78739 0.0658 0.61662 0.0
C56 C 0.77899 0.03476 0.59948 0.0
C57 C 0.75239 0.00856 0.6243 0.0
C58 C 0.73625 0.01466 0.6681 0.0
H59 H 0.77723 0.09432 0.67451 0.0
O60 O 0.68085 0.08239 0.66441 0.0
O61 O 0.69 0.04861 0.71307 0.0
O62 O 0.72038 0.11199 0.76152 0.0
O63 O 0.75142 0.08942 0.76721 0.0
C64 C 0.74177 0.97665 0.60857 0.0
C65 C 0.71493 0.95159 0.63597 0.0
H66 H 0.6628 0.90978 0.69915 0.0
H67 H 0.63863 0.92544 0.77805 0.0
H68 H 0.80776 0.08609 0.5973 0.0
H69 H 0.79365 0.03148 0.56804 0.0
H70 H 0.75401 0.97099 0.57559 0.0
H71 H 0.70671 0.92721 0.62291 0.0
Mn72 Mn 0.60583 0.67115 0.22559 0.0
Mn73 Mn 0.68599 0.71926 0.21941 0.0
C74 C 0.63252 0.68127 0.13903 0.0
C75 C 0.56184 0.61982 0.23535 0.0
C76 C 0.63883 0.74389 0.23659 0.0
O77 O 0.62001 0.67193 0.30771 0.0
O78 O 0.67393 0.70185 0.29836 0.0
C79 C 0.70702 0.67153 0.23733 0.0
N80 N 0.70626 0.69433 0.20418 0.0
C81 C 0.73645 0.68631 0.13 0.0
C82 C 0.73774 0.66292 0.16353 0.0
C83 C 0.72296 0.65551 0.21743 0.0
C84 C 0.72055 0.70176 0.15235 0.0
H85 H 0.69542 0.6655 0.27854 0.0
C86 C 0.64855 0.68446 0.32784 0.0
O87 O 0.55923 0.64489 0.24635 0.0
O88 O 0.59001 0.62466 0.22056 0.0
N89 N 0.70013 0.73657 0.14467 0.0
C90 C 0.69494 0.75822 0.11613 0.0
C91 C 0.70733 0.76751 0.06081 0.0
C92 C 0.72484 0.75441 0.03536 0.0
C93 C 0.72993 0.73223 0.06559 0.0
C94 C 0.71736 0.72417 0.12088 0.0
H95 H 0.68123 0.76814 0.1352 0.0
O96 O 0.60207 0.6723 0.14047 0.0
O97 O 0.64616 0.68485 0.18831 0.0
O98 O 0.61318 0.71685 0.23329 0.0
O99 O 0.66699 0.74707 0.23344 0.0
C100 C 0.74636 0.71726 0.04252 0.0
C101 C 0.74963 0.69434 0.07471 0.0
H102 H 0.74972 0.65027 0.14809 0.0
H103 H 0.72368 0.63735 0.24341 0.0
H104 H 0.70317 0.78453 0.03764 0.0
H105 H 0.734 0.76133 0.99239 0.0
H106 H 0.75621 0.7229 0.99977 0.0
H107 H 0.76196 0.6827 0.05623 0.0
Mn108 Mn 0.93963 0.60758 0.75547 0.0
Mn109 Mn 0.88972 0.55164 0.84919 0.0
C110 C 0.94531 0.56348 0.77428 0.0
C111 C 0.9527 0.62823 0.66299 0.0
C112 C 0.94618 0.61439 0.88599 0.0
O113 O 0.90263 0.61704 0.7613 0.0
O114 O 0.8717 0.57934 0.82512 0.0
C115 C 0.83576 0.51512 0.76943 0.0
N116 N 0.85776 0.51603 0.80735 0.0
C117 C 0.83739 0.45958 0.79773 0.0
C118 C 0.81439 0.45801 0.75883 0.0
C119 C 0.81365 0.48592 0.7445 0.0
C120 C 0.85884 0.48936 0.82109 0.0
H121 H 0.83509 0.5365 0.75828 0.0
C122 C 0.87753 0.60283 0.79232 0.0
O123 O 0.96556 0.64618 0.70744 0.0
O124 O 0.93151 0.59868 0.67238 0.0
N125 N 0.90335 0.52275 0.87625 0.0
C126 C 0.92764 0.52848 0.91309 0.0
C127 C 0.93219 0.50314 0.93066 0.0
C128 C 0.91138 0.47211 0.91099 0.0
C129 C 0.8861 0.46667 0.87413 0.0
C130 C 0.88277 0.49286 0.85805 0.0
H131 H 0.94355 0.55222 0.92868 0.0
O132 O 0.96913 0.58942 0.7541 0.0
O133 O 0.91856 0.56385 0.78274 0.0
O134 O 0.95538 0.62593 0.83608 0.0
O135 O 0.92225 0.58685 0.89578 0.0
C136 C 0.86438 0.43636 0.85202 0.0
C137 C 0.84008 0.43283 0.81374 0.0
H138 H 0.79731 0.43554 0.73947 0.0
H139 H 0.79606 0.48492 0.71434 0.0
H140 H 0.95168 0.50753 0.9593 0.0
H141 H 0.91508 0.45266 0.92434 0.0
H142 H 0.86645 0.41569 0.86348 0.0
H143 H 0.82382 0.40948 0.79638 0.0
Mn144 Mn 0.34799 0.93717 0.25074 0.0
Mn145 Mn 0.29998 0.97028 0.24593 0.0
C146 C 0.34096 0.95782 0.16576 0.0
C147 C 0.39721 0.93842 0.26391 0.0
C148 C 0.27401 0.89898 0.25118 0.0
O149 O 0.34489 0.94717 0.33481 0.0
O150 O 0.31329 0.96966 0.32574 0.0
C151 C 0.34735 0.0363 0.27965 0.0
N152 N 0.32564 0.01562 0.2414 0.0
C153 C 0.33441 0.05852 0.17841 0.0
C154 C 0.35672 0.08031 0.21729 0.0
C155 C 0.36324 0.06914 0.26808 0.0
C156 C 0.31911 0.02611 0.1925 0.0
H157 H 0.35252 0.0278 0.31862 0.0
C158 C 0.32984 0.96071 0.35555 0.0
O159 O 0.36987 0.9125 0.26979 0.0
O160 O 0.39612 0.96422 0.25218 0.0
N161 N 0.28577 0.97249 0.17097 0.0
C162 C 0.26541 0.94815 0.13632 0.0
C163 C 0.25743 0.95515 0.08279 0.0
C164 C 0.27034 0.98701 0.06582 0.0
C165 C 0.29101 0.01167 0.10227 0.0
C166 C 0.29793 1.00326 0.15527 0.0
H167 H 0.25561 0.9236 0.14916 0.0
O168 O 0.34939 0.93601 0.16516 0.0
O169 O 0.33642 0.96648 0.2159 0.0
O170 O 0.30136 0.90046 0.25154 0.0
O171 O 0.2708 0.92371 0.24946 0.0
C172 C 0.30564 0.04417 0.08756 0.0
C173 C 0.32732 0.0676 0.12563 0.0
H174 H 0.36922 0.10564 0.20832 0.0
H175 H 0.38055 0.0858 0.29816 0.0
H176 H 0.24156 0.93607 0.05454 0.0
H177 H 0.26449 0.99223 0.0245 0.0
H178 H 0.30079 0.05139 0.04672 0.0
H179 H 0.3388 0.09248 0.11351 0.0
Mn180 Mn 0.41184 0.33683 0.75061 0.0
Mn181 Mn 0.33113 0.30089 0.74373 0.0
C182 C 0.38705 0.32954 0.66279 0.0
C183 C 0.4604 0.38422 0.76296 0.0
C184 C 0.36781 0.26467 0.76059 0.0
O185 O 0.39878 0.33807 0.83282 0.0
O186 O 0.34543 0.31802 0.82264 0.0
C187 C 0.32363 0.35784 0.75946 0.0
N188 N 0.31859 0.33209 0.72767 0.0
C189 C 0.29208 0.34544 0.65431 0.0
C190 C 0.29672 0.37191 0.68653 0.0
C191 C 0.3126 0.37815 0.7393 0.0
C192 C 0.30337 0.32589 0.6768 0.0
H193 H 0.33614 0.36295 0.79974 0.0
C194 C 0.37116 0.33075 0.85287 0.0
O195 O 0.45825 0.35673 0.77337 0.0
O196 O 0.43444 0.38396 0.74656 0.0
N197 N 0.31411 0.28386 0.66994 0.0
C198 C 0.31312 0.25839 0.64268 0.0
C199 C 0.2988 0.2495 0.58858 0.0
C200 C 0.28557 0.26679 0.56317 0.0
C201 C 0.28658 0.2927 0.59227 0.0
C202 C 0.30082 0.30023 0.64639 0.0
H203 H 0.32339 0.2451 0.66181 0.0
O204 O 0.41634 0.33477 0.66615 0.0
O205 O 0.37344 0.32933 0.71106 0.0
O206 O 0.39613 0.28878 0.75741 0.0
O207 O 0.34226 0.26698 0.75831 0.0
C208 C 0.27459 0.31175 0.56922 0.0
C209 C 0.27735 0.3381 0.60019 0.0
H210 H 0.28849 0.38779 0.67091 0.0
H211 H 0.31648 0.39867 0.76422 0.0
H212 H 0.29814 0.22949 0.56636 0.0
H213 H 0.27489 0.26009 0.52114 0.0
H214 H 0.2636 0.3066 0.52734 0.0
H215 H 0.26848 0.35285 0.58165 0.0
Mn216 Mn 0.62097 0.95527 0.28104 0.0
Mn217 Mn 0.70176 0.99003 0.28716 0.0
C218 C 0.64687 0.96933 0.36941 0.0
C219 C 0.57408 0.95895 0.27155 0.0
C220 C 0.65848 0.9189 0.26856 0.0
O221 O 0.63444 0.96988 0.19846 0.0
O222 O 0.68815 0.99391 0.20908 0.0
C223 C 0.71709 0.0569 0.26991 0.0
N224 N 0.71981 0.03462 0.3013 0.0
C225 C 0.75568 0.07434 0.3676 0.0
C226 C 0.7534 0.09779 0.3359 0.0
C227 C 0.73389 0.089 0.287 0.0
C228 C 0.73815 0.04275 0.34877 0.0
H229 H 0.70224 0.0502 0.23214 0.0
C230 C 0.66301 0.9855 0.17872 0.0
O231 O 0.57446 0.9328 0.25985 0.0
O232 O 0.60106 0.98313 0.28763 0.0
N233 N 0.71897 0.98835 0.3595 0.0
C234 C 0.71724 0.96257 0.38654 0.0
C235 C 0.73561 0.96716 0.43577 0.0
C236 C 0.75566 0.99815 0.45622 0.0
C237 C 0.75651 0.02427 0.42849 0.0
C238 C 0.73801 0.01825 0.37919 0.0
H239 H 0.70237 0.93876 0.37015 0.0
O240 O 0.61673 0.948 0.36534 0.0
O241 O 0.66104 0.98237 0.3214 0.0
O242 O 0.63172 0.91884 0.27082 0.0
O243 O 0.68563 0.94429 0.27354 0.0
C244 C 0.77515 0.05603 0.44738 0.0
C245 C 0.77446 0.08101 0.41732 0.0
H246 H 0.7664 0.12258 0.34885 0.0
H247 H 0.73193 0.10694 0.26241 0.0
H248 H 0.73481 0.94694 0.45729 0.0
H249 H 0.77069 1.00152 0.49257 0.0
H250 H 0.78995 0.06155 0.48511 0.0
H251 H 0.78847 0.10525 0.43279 0.0
Mn252 Mn 0.6601 0.60617 0.74851 0.0
Mn253 Mn 0.65699 0.54561 0.67036 0.0
C254 C 0.61231 0.55858 0.74012 0.0
C255 C 0.66732 0.635 0.83264 0.0
C256 C 0.65361 0.60081 0.61768 0.0
O257 O 0.70733 0.61866 0.74346 0.0
O258 O 0.70226 0.57975 0.68388 0.0
C259 C 0.68621 0.5236 0.75822 0.0
N260 N 0.66171 0.51726 0.72145 0.0
C261 C 0.63452 0.46167 0.74678 0.0
C262 C 0.65955 0.4676 0.78461 0.0
C263 C 0.68544 0.49874 0.79052 0.0
C264 C 0.63648 0.48746 0.71605 0.0
H265 H 0.70624 0.54741 0.76294 0.0
C266 C 0.71925 0.60512 0.71301 0.0
O267 O 0.67034 0.6479 0.7829 0.0
O268 O 0.66157 0.60571 0.83361 0.0
N269 N 0.61553 0.51001 0.65356 0.0
C270 C 0.59315 0.50816 0.61554 0.0
C271 C 0.56552 0.47869 0.60524 0.0
C272 C 0.56154 0.4512 0.63299 0.0
C273 C 0.58532 0.45344 0.67061 0.0
C274 C 0.61228 0.48353 0.67943 0.0
H275 H 0.59629 0.52902 0.59346 0.0
O276 O 0.61241 0.58493 0.75191 0.0
O277 O 0.64029 0.56045 0.73354 0.0
O278 O 0.65937 0.61688 0.66369 0.0
O279 O 0.65081 0.57308 0.61514 0.0
C280 C 0.58315 0.42706 0.70023 0.0
C281 C 0.60764 0.4312 0.73854 0.0
H282 H 0.6591 0.44847 0.80946 0.0
H283 H 0.70482 0.50354 0.81976 0.0
H284 H 0.54739 0.47715 0.57581 0.0
H285 H 0.54013 0.42853 0.62513 0.0
H286 H 0.56252 0.40355 0.69447 0.0
H287 H 0.6055 0.4108 0.76162 0.0
Mn288 Mn 0.06736 0.6712 0.29192 0.0
Mn289 Mn 0.02715 0.71206 0.28683 0.0
C290 C 0.05137 0.68467 0.37563 0.0
C291 C 0.0655 0.62188 0.29121 0.0
C292 C 0.09951 0.74297 0.269 0.0
O293 O 0.05245 0.66592 0.20955 0.0
O294 O 0.02344 0.69117 0.21114 0.0
C295 C 0.96121 0.65744 0.27507 0.0
N296 N 0.98292 0.68373 0.30431 0.0
C297 C 0.94392 0.67537 0.37698 0.0
C298 C 0.92108 0.64836 0.3474 0.0
C299 C 0.92977 0.63937 0.29624 0.0
C300 C 0.97479 0.69265 0.35352 0.0
H301 H 0.96786 0.6502 0.23607 0.0
C302 C 0.03416 0.67472 0.18556 0.0
O303 O 0.0915 0.64774 0.27642 0.0
O304 O 0.04082 0.62476 0.30493 0.0
N305 N 0.02832 0.73276 0.35732 0.0
C306 C 0.05364 0.75835 0.3823 0.0
C307 C 0.04916 0.7699 0.43458 0.0
C308 C 0.01874 0.75504 0.46063 0.0
C309 C 0.99299 0.7289 0.43393 0.0
C310 C 0.99878 0.71871 0.38144 0.0
H311 H 0.07715 0.7697 0.36275 0.0
O312 O 0.0745 0.67791 0.37588 0.0
O313 O 0.03833 0.68317 0.32623 0.0
O314 O 0.10164 0.71783 0.27682 0.0
O315 O 0.07277 0.74307 0.27034 0.0
C316 C 0.96198 0.71213 0.45792 0.0
C317 C 0.93747 0.68538 0.42949 0.0
H318 H 0.8969 0.63417 0.36388 0.0
H319 H 0.91234 0.61842 0.27336 0.0
H320 H 0.06917 0.79004 0.45499 0.0
H321 H 0.01548 0.76376 0.50133 0.0
H322 H 0.95683 0.71935 0.49861 0.0
H323 H 0.91385 0.67241 0.44877 0.0
Mn324 Mn 0.40376 0.05855 0.77925 0.0
Mn325 Mn 0.32393 0.02977 0.77088 0.0
C326 C 0.37273 0.03983 0.86144 0.0
C327 C 0.44922 0.05284 0.77143 0.0
C328 C 0.37292 0.10049 0.7656 0.0
O329 O 0.39447 0.04935 0.69446 0.0
O330 O 0.34043 0.02524 0.69538 0.0
C331 C 0.30133 0.96141 0.74912 0.0
N332 N 0.30056 0.98463 0.78114 0.0
C333 C 0.25814 0.94576 0.84005 0.0
C334 C 0.25844 0.9214 0.80772 0.0
C335 C 0.28026 0.92927 0.76226 0.0
C336 C 0.27999 0.97733 0.82544 0.0
H337 H 0.31784 0.96737 0.71379 0.0
C338 C 0.36721 0.03369 0.66994 0.0
O339 O 0.45054 0.08016 0.76503 0.0
O340 O 0.42121 0.02842 0.78229 0.0
N341 N 0.30475 0.03205 0.84105 0.0
C342 C 0.30857 0.05836 0.86953 0.0
C343 C 0.28823 0.05474 0.9155 0.0
C344 C 0.26409 0.02416 0.93146 0.0
C345 C 0.26117 0.99735 0.90253 0.0
C346 C 0.28201 1.00247 0.85682 0.0
H347 H 0.3266 0.08199 0.85668 0.0
O348 O 0.4033 0.06014 0.86416 0.0
O349 O 0.3611 0.03126 0.81016 0.0
O350 O 0.39742 0.09736 0.7746 0.0
O351 O 0.34465 0.07668 0.76066 0.0
C352 C 0.23829 0.96577 0.91695 0.0
C353 C 0.23705 0.93999 0.88621 0.0
H354 H 0.24209 0.89659 0.81748 0.0
H355 H 0.28066 0.91061 0.73714 0.0
H356 H 0.29083 0.0755 0.93805 0.0
H357 H 0.24805 0.02158 0.96627 0.0
H358 H 0.22171 0.96101 0.95195 0.0
H359 H 0.21971 0.91583 0.89829 0.0
Mn360 Mn 0.35205 0.40651 0.27759 0.0
Mn361 Mn 0.3469 0.45841 0.18735 0.0
C362 C 0.39734 0.45484 0.2574 0.0
C363 C 0.34854 0.38699 0.37046 0.0
C364 C 0.34601 0.39797 0.14787 0.0
O365 O 0.30384 0.39113 0.27504 0.0
O366 O 0.30378 0.4296 0.22007 0.0
C367 C 0.33089 0.49534 0.2692 0.0
N368 N 0.35064 0.49442 0.22821 0.0
C369 C 0.3848 0.55135 0.23215 0.0
C370 C 0.36471 0.55294 0.27417 0.0
C371 C 0.33768 0.52479 0.29283 0.0
C372 C 0.37668 0.52135 0.20985 0.0
H373 H 0.31014 0.47374 0.28375 0.0
C374 C 0.28957 0.40455 0.25111 0.0
O375 O 0.34554 0.36956 0.32606 0.0
O376 O 0.35277 0.41526 0.36078 0.0
N377 N 0.38727 0.48778 0.1535 0.0
C378 C 0.40546 0.48184 0.11588 0.0
C379 C 0.43414 0.50733 0.09486 0.0
C380 C 0.44371 0.53863 0.11245 0.0
C381 C 0.42449 0.54416 0.15092 0.0
C382 C 0.39607 0.51784 0.17021 0.0
H383 H 0.39827 0.45783 0.10236 0.0
O384 O 0.40021 0.43107 0.27624 0.0
O385 O 0.36811 0.44946 0.2505 0.0
O386 O 0.35089 0.38912 0.19642 0.0
O387 O 0.3432 0.42271 0.14065 0.0
C388 C 0.43279 0.57467 0.17194 0.0
C389 C 0.41296 0.57827 0.2125 0.0
H390 H 0.36999 0.57558 0.29281 0.0
H391 H 0.32215 0.52581 0.32544 0.0
H392 H 0.44892 0.50286 0.06538 0.0
H393 H 0.46602 0.55819 0.09662 0.0
H394 H 0.45467 0.59546 0.15793 0.0
H395 H 0.41987 0.60178 0.22901 0.0
Mn396 Mn 0.94243 0.34903 0.78086 0.0
Mn397 Mn 0.9891 0.3149 0.79084 0.0
C398 C 0.96359 0.3463 0.86809 0.0
C399 C 0.93783 0.39448 0.76477 0.0
C400 C 0.91639 0.27706 0.77659 0.0
O401 O 0.9556 0.34794 0.69837 0.0
O402 O 0.99094 0.33023 0.71143 0.0
C403 C 0.05271 0.37209 0.77239 0.0
N404 N 0.03263 0.34681 0.80542 0.0
C405 C 0.07314 0.36178 0.87799 0.0
C406 C 0.09442 0.38764 0.84427 0.0
C407 C 0.08411 0.39287 0.79132 0.0
C408 C 0.04223 0.3417 0.85665 0.0
H409 H 0.04474 0.37655 0.73216 0.0
C410 C 0.9769 0.34142 0.67991 0.0
O411 O 0.91351 0.36604 0.75741 0.0
O412 O 0.96479 0.39639 0.77986 0.0
N413 N 0.98978 0.29988 0.86614 0.0
C414 C 0.96566 0.27521 0.89523 0.0
C415 C 0.97166 0.26761 0.95 0.0
C416 C 1.00236 0.28536 0.97425 0.0
C417 C 0.02685 0.31052 0.94341 0.0
C418 C 0.01956 0.31678 0.88874 0.0
H419 H 0.94197 0.26153 0.87696 0.0
O420 O 0.93854 0.35008 0.86607 0.0
O421 O 0.97505 0.34409 0.81926 0.0
O422 O 0.91154 0.30081 0.77931 0.0
O423 O 0.94448 0.27997 0.77772 0.0
C424 C 0.058 0.33004 0.96528 0.0
C425 C 0.08112 0.35566 0.93261 0.0
H426 H 0.11856 0.4039 0.85896 0.0
H427 H 0.10025 0.41301 0.76535 0.0
H428 H 0.9526 0.24822 0.97361 0.0
H429 H 1.00678 0.27966 0.01679 0.0
H430 H 0.06427 0.32586 1.00754 0.0
H431 H 0.10482 0.37083 0.95027 0.0
H432 H 0.06353 0.40828 0.06689 0.0
H433 H 0.98742 0.33156 0.16186 0.0
H434 H 0.95516 0.31195 0.0751 0.0
H435 H 0.94711 0.31883 0.97291 0.0
H436 H 0.02388 0.39492 0.87859 0.0
H437 H 0.05717 0.41287 0.96436 0.0
C438 C 0.04002 0.3871 0.06855 0.0
C439 C 0.02779 0.37161 0.12082 0.0
C440 C 0.02152 0.37609 0.01869 0.0
C441 C 0.99738 0.34401 0.12214 0.0
C442 C 0.97881 0.33287 0.07263 0.0
C443 C 0.97122 0.33915 0.97146 0.0
C444 C 0.9834 0.3553 0.91983 0.0
C445 C 0.99036 0.34911 0.02088 0.0
C446 C 0.0144 0.38188 0.918 0.0
C447 C 0.03336 0.39218 0.96695 0.0
H448 H 0.68279 0.03118 0.40314 0.0
H449 H 0.63878 0.93488 0.46555 0.0
H450 H 0.6517 0.9546 0.56379 0.0
H451 H 0.66851 0.99944 0.63181 0.0
H452 H 0.7173 0.09574 0.5685 0.0
H453 H 0.71037 0.07599 0.47057 0.0
C454 C 0.67761 0.01457 0.4379 0.0
C455 C 0.6607 0.98163 0.42678 0.0
C456 C 0.68567 0.02613 0.49421 0.0
C457 C 0.65223 0.96037 0.47289 0.0
C458 C 0.65953 0.97164 0.5291 0.0
C459 C 0.67926 0.01609 0.59691 0.0
C460 C 0.69398 0.04907 0.60772 0.0
C461 C 0.67545 1.00451 0.54043 0.0
C462 C 0.70613 0.07027 0.56143 0.0
C463 C 0.70199 0.05898 0.50533 0.0
H464 H 0.63806 0.7051 0.03178 0.0
H465 H 0.65477 0.63992 0.13209 0.0
H466 H 0.67 0.62151 0.04655 0.0
H467 H 0.67358 0.62035 0.94211 0.0
H468 H 0.65876 0.68673 0.8413 0.0
H469 H 0.64848 0.70869 0.92776 0.0
C470 C 0.64557 0.68727 0.03466 0.0
C471 C 0.6457 0.67409 0.08787 0.0
C472 C 0.6545 0.67691 0.98519 0.0
C473 C 0.65506 0.65073 0.09146 0.0
C474 C 0.66358 0.64007 0.04258 0.0
C475 C 0.66856 0.63992 0.93916 0.0
C476 C 0.66651 0.65156 0.88536 0.0
C477 C 0.66272 0.65249 0.98905 0.0
C478 C 0.66038 0.67723 0.88222 0.0
C479 C 0.65429 0.6897 0.93164 0.0
H480 H 0.98964 0.64478 0.40301 0.0
H481 H 0.07833 0.72032 0.47061 0.0
H482 H 0.05391 0.71234 0.56559 0.0
H483 H 0.00909 0.67982 0.63088 0.0
H484 H 0.92169 0.60183 0.56336 0.0
H485 H 0.94336 0.61533 0.46665 0.0
C486 C 1.00322 0.66007 0.43832 0.0
C487 C 0.03537 0.68366 0.42993 0.0
C488 C 0.98927 0.65469 0.49281 0.0
C489 C 0.05331 0.70244 0.47621 0.0
C490 C 0.03939 0.69778 0.53039 0.0
C491 C 0.99457 0.66618 0.59488 0.0
C492 C 0.96391 0.63972 0.60432 0.0
C493 C 1.00762 0.67343 0.5395 0.0
C494 C 0.94546 0.62214 0.55727 0.0
C495 C 0.95787 0.62977 0.50198 0.0
H496 H 0.38156 0.06037 0.97055 0.0
H497 H 0.33236 0.97563 0.86795 0.0
H498 H 0.31462 0.94268 0.95354 0.0
H499 H 0.31903 0.93743 0.05786 0.0
H500 H 0.37541 0.02192 0.15819 0.0
H501 H 0.38553 0.05531 0.07397 0.0
C502 C 0.36626 0.03474 0.96713 0.0
C503 C 0.35679 0.02066 0.91291 0.0
C504 C 0.35838 0.01578 0.01646 0.0
C505 C 0.33802 0.98732 0.90905 0.0
C506 C 0.32871 0.96835 0.95812 0.0
C507 C 0.33319 0.96317 0.06109 0.0
C508 C 0.34552 0.97734 0.11437 0.0
C509 C 0.33952 0.98223 1.01201 0.0
C510 C 0.36473 0.01061 0.11792 0.0
C511 C 0.37067 0.0297 0.06973 0.0
H512 H 0.35553 0.3365 0.40414 0.0
H513 H 0.34424 0.41414 0.46963 0.0
H514 H 0.35225 0.40127 0.56673 0.0
H515 H 0.36767 0.3713 0.63227 0.0
H516 H 0.38126 0.2952 0.56729 0.0
H517 H 0.36741 0.30412 0.47091 0.0
C518 C 0.35436 0.3503 0.43974 0.0
C519 C 0.34952 0.3764 0.42949 0.0
C520 C 0.3597 0.34319 0.49558 0.0
C521 C 0.3482 0.3941 0.47616 0.0
C522 C 0.35287 0.38682 0.53177 0.0
C523 C 0.36672 0.35618 0.59712 0.0
C524 C 0.37444 0.332 0.60679 0.0
C525 C 0.35937 0.36191 0.54187 0.0
C526 C 0.37468 0.31348 0.56074 0.0
C527 C 0.36687 0.31866 0.50573 0.0
H528 H 0.98908 0.60585 0.94642 0.0
H529 H 0.94325 0.66339 0.93784 0.0
H530 H 0.96777 0.68865 0.02924 0.0
H531 H 0.99911 0.69125 0.11472 0.0
H532 H 0.04472 0.63308 0.12215 0.0
H533 H 0.02355 0.61131 0.02825 0.0
C534 C 0.98489 0.62425 0.96439 0.0
C535 C 0.9646 0.63296 0.93586 0.0
C536 C 0.99881 0.63832 0.01694 0.0
C537 C 0.95913 0.65668 0.95914 0.0
C538 C 0.97296 0.6709 1.01146 0.0
C539 C 1.00467 0.67402 0.09569 0.0
C540 C 0.02336 0.66374 0.12608 0.0
C541 C 0.99236 0.66146 0.04131 0.0
C542 C 0.0304 0.64149 0.10021 0.0
C543 C 0.01824 0.62891 0.04637 0.0
H544 H 0.38364 0.99146 0.42101 0.0
H545 H 0.28035 0.94762 0.42616 0.0
H546 H 0.28278 0.96651 0.52378 0.0
H547 H 0.31412 0.99751 0.60552 0.0
H548 H 0.4178 0.0437 0.60049 0.0
H549 H 0.41539 0.02233 0.50487 0.0
C550 C 0.36174 0.98554 0.4442 0.0
C551 C 0.33183 0.96781 0.41706 0.0
C552 C 0.36341 0.99746 0.49978 0.0
C553 C 0.30359 0.96096 0.44666 0.0
C554 C 0.30499 0.97195 0.50222 0.0
C555 C 0.33629 1.00312 0.58364 0.0
C556 C 0.3661 0.02245 0.61037 0.0
C557 C 0.33477 0.9907 0.52881 0.0
C558 C 0.39447 0.02913 0.58103 0.0
C559 C 0.39314 0.01674 0.52636 0.0
H560 H 0.32274 0.33615 0.90387 0.0
H561 H 0.41539 0.34477 0.93812 0.0
H562 H 0.41418 0.36281 0.03513 0.0
H563 H 0.38861 0.38025 0.10835 0.0
H564 H 0.29821 0.37551 0.07028 0.0
H565 H 0.29647 0.35152 0.97743 0.0
C566 C 0.34251 0.34156 0.93269 0.0
C567 C 0.36913 0.33911 0.91339 0.0
C568 C 0.34205 0.35269 0.98805 0.0
C569 C 0.39463 0.34656 0.9515 0.0
C570 C 0.39397 0.35688 1.00713 0.0
C571 C 0.36827 0.37326 0.08007 0.0
C572 C 0.34338 0.37924 0.09618 0.0
C573 C 0.36805 0.36056 0.02566 0.0
C574 C 0.3175 0.37089 0.05876 0.0
C575 C 0.31658 0.35732 1.0056 0.0
H576 H 0.03446 0.35348 0.63709 0.0
H577 H 0.94522 0.34898 0.58887 0.0
H578 H 0.96632 0.36722 0.49268 0.0
H579 H 0.01162 0.3877 0.42417 0.0
H580 H 0.10235 0.39753 0.47752 0.0
H581 H 0.07925 0.37399 0.57004 0.0
C582 C 0.01944 0.35622 0.60556 0.0
C583 C 0.98827 0.34984 0.62026 0.0
C584 C 0.03215 0.36787 0.55134 0.0
C585 C 0.96931 0.35378 0.57874 0.0
C586 C 0.98139 0.36424 0.52378 0.0
C587 C 0.0261 0.38429 0.45599 0.0
C588 C 0.05852 0.39407 0.44426 0.0
C589 C 0.01297 0.37183 0.50987 0.0
C590 C 0.07735 0.39016 0.48589 0.0
C591 C 0.06415 0.37671 0.53865 0.0
H592 H 0.71174 0.02347 0.92604 0.0
H593 H 0.63479 0.04587 0.92099 0.0
H594 H 0.62021 0.02717 0.01934 0.0
H595 H 0.62996 1.00488 0.10809 0.0
H596 H 0.70885 0.98535 0.11187 0.0
H597 H 0.72165 1.00207 0.01287 0.0
C598 C 0.69173 0.0243 0.94622 0.0
C599 C 0.67447 0.03613 0.91583 0.0
C600 C 0.68365 0.01379 1.00279 0.0
C601 C 0.6487 0.03709 0.94324 0.0
C602 C 0.64023 0.02625 0.99952 0.0
C603 C 0.6497 1.00403 0.08688 0.0
C604 C 0.66836 0.99379 0.11729 0.0
C605 C 0.65755 0.01452 0.02985 0.0
C606 C 0.69419 0.99323 0.08953 0.0
C607 C 0.70157 1.00282 0.03288 0.0
H608 H 0.60697 0.63239 0.38836 0.0
H609 H 0.70039 0.71662 0.39867 0.0
H610 H 0.70973 0.69915 0.49115 0.0
H611 H 0.69239 0.65806 0.56697 0.0
H612 H 0.60025 0.57287 0.55209 0.0
H613 H 0.58939 0.59243 0.46385 0.0
C614 C 0.62919 0.64723 0.41117 0.0
C615 C 0.65285 0.67587 0.38667 0.0
C616 C 0.63481 0.63658 0.46334 0.0
C617 C 0.68173 0.69447 0.41655 0.0
C618 C 0.68714 0.68445 0.46939 0.0
C619 C 0.66996 0.64396 0.54428 0.0
C620 C 0.64739 0.6138 0.56529 0.0
C621 C 0.66406 0.65526 0.49281 0.0
C622 C 0.61836 0.5957 0.53587 0.0
C623 C 0.612 0.60703 0.48565 0.0
H624 H 0.10398 0.60246 0.23822 0.0
H625 H 0.02268 0.57061 0.3516 0.0
H626 H 0.01822 0.51815 0.35773 0.0
H627 H 0.03686 0.48079 0.33025 0.0
H628 H 0.11586 0.51087 0.21289 0.0
H629 H 0.1216 0.56423 0.20814 0.0
C630 C 0.08538 0.58402 0.2643 0.0
C631 C 0.06372 0.59043 0.29438 0.0
C632 C 0.08248 0.55353 0.26678 0.0
C633 C 0.03956 0.56625 0.32773 0.0
C634 C 0.03697 0.53621 0.33135 0.0
C635 C 0.05541 0.4992 0.304 0.0
C636 C 0.07681 0.49262 0.2739 0.0
C637 C 0.05819 0.52953 0.30095 0.0
C638 C 0.10003 0.51605 0.2383 0.0
C639 C 0.10312 0.5464 0.23521 0.0
H640 H 0.51001 0.10129 0.76418 0.0
H641 H 0.45464 0.99863 0.76885 0.0
H642 H 0.50424 0.99553 0.76131 0.0
H643 H 0.56385 0.02257 0.75446 0.0
H644 H 0.61773 0.12548 0.75334 0.0
H645 H 0.56818 0.12782 0.75818 0.0
C646 C 0.50867 0.07817 0.76341 0.0
C647 C 0.47871 0.05025 0.76694 0.0
C648 C 0.53709 0.07662 0.75968 0.0
C649 C 0.47748 0.02051 0.76626 0.0
C650 C 0.50581 0.01873 0.76188 0.0
C651 C 0.56462 0.04543 0.75504 0.0
C652 C 0.59444 0.07379 0.75357 0.0
C653 C 0.53583 0.04669 0.75866 0.0
C654 C 0.59514 0.10328 0.75472 0.0
C655 C 0.5668 0.10469 0.75742 0.0
H656 H 0.50327 0.59931 0.28562 0.0
H657 H 0.55788 0.56683 0.18682 0.0
H658 H 0.51193 0.51301 0.18449 0.0
H659 H 0.45572 0.47493 0.20942 0.0
H660 H 0.40192 0.50633 0.3123 0.0
H661 H 0.44793 0.56049 0.315 0.0
C662 C 0.5051 0.58041 0.26377 0.0
C663 C 0.53394 0.58712 0.23639 0.0
C664 C 0.47867 0.54927 0.26331 0.0
C665 C 0.536 0.56232 0.20849 0.0
C666 C 0.50971 0.53149 0.207 0.0
C667 C 0.4542 0.49377 0.23213 0.0
C668 C 0.42524 0.48726 0.25845 0.0
C669 C 0.48088 0.52469 0.23405 0.0
C670 C 0.42369 0.51135 0.28967 0.0
C671 C 0.45004 0.54219 0.29161 0.0
H672 H 0.90512 0.50554 0.72847 0.0
H673 H 0.99318 0.55746 0.82329 0.0
H674 H 0.99942 0.51001 0.82645 0.0
H675 H 0.97902 0.45353 0.80461 0.0
H676 H 0.88982 0.40055 0.71281 0.0
H677 H 0.88472 0.44858 0.70596 0.0
C678 C 0.92537 0.50617 0.75047 0.0
C679 C 0.94806 0.5344 0.77754 0.0
C680 C 0.92867 0.47875 0.7522 0.0
C681 C 0.97506 0.53562 0.8035 0.0
C682 C 0.97862 0.50857 0.8052 0.0
C683 C 0.95852 0.45249 0.78284 0.0
C684 C 0.93489 0.42354 0.75906 0.0
C685 C 0.95545 0.47995 0.78009 0.0
C686 C 0.90834 0.42255 0.73144 0.0
C687 C 0.90545 0.45 0.72745 0.0
H688 H 0.45891 0.98878 0.26422 0.0
H689 H 0.40436 0.88601 0.27039 0.0
H690 H 0.45388 0.88331 0.27126 0.0
H691 H 0.51274 0.90976 0.26981 0.0
H692 H 0.568 0.01243 0.26818 0.0
H693 H 0.51839 0.01551 0.26574 0.0
C694 C 0.4579 0.96583 0.26594 0.0
C695 C 0.42787 0.93767 0.26717 0.0
C696 C 0.48667 0.96438 0.26696 0.0
C697 C 0.42705 0.90812 0.26959 0.0
C698 C 0.45541 0.90649 0.2699 0.0
C699 C 0.51394 0.93282 0.26862 0.0
C700 C 0.54403 0.9608 0.26875 0.0
C701 C 0.48534 0.93441 0.26838 0.0
C702 C 0.54514 0.9905 0.26801 0.0
C703 C 0.51676 0.99228 0.26666 0.0
H704 H 0.5991 0.50394 0.79531 0.0
H705 H 0.55665 0.54656 0.69018 0.0
H706 H 0.50534 0.49668 0.69064 0.0
H707 H 0.47351 0.44056 0.71696 0.0
H708 H 0.51592 0.3963 0.81831 0.0
H709 H 0.56639 0.4472 0.82346 0.0
C710 C 0.5786 0.50202 0.77212 0.0
C711 C 0.58173 0.52829 0.74097 0.0
C712 C 0.54928 0.47313 0.77217 0.0
C713 C 0.55482 0.52627 0.71323 0.0
C714 C 0.52556 0.49782 0.71352 0.0
C715 C 0.49373 0.44201 0.74042 0.0
C716 C 0.49099 0.41471 0.76726 0.0
C717 C 0.52268 0.47101 0.74213 0.0
C718 C 0.51748 0.41697 0.79716 0.0
C719 C 0.54626 0.44607 0.80026 0.0
H720 H 0.16518 0.39587 0.35288 0.0
H721 H 0.14342 0.39537 0.17452 0.0
H722 H 0.19001 0.38963 0.14885 0.0
H723 H 0.24175 0.39406 0.17762 0.0
H724 H 0.26219 0.39204 0.35603 0.0
H725 H 0.21096 0.38876 0.38158 0.0
C726 C 0.17014 0.39342 0.30852 0.0
C727 C 0.15121 0.39617 0.26553 0.0
C728 C 0.19685 0.39002 0.29424 0.0
C729 C 0.15763 0.39304 0.20818 0.0
C730 C 0.18442 0.39008 0.19355 0.0
C731 C 0.23441 0.39188 0.22196 0.0
C732 C 0.25563 0.39353 0.26499 0.0
C733 C 0.20491 0.38989 0.2362 0.0
C734 C 0.24606 0.39061 0.3223 0.0
C735 C 0.21694 0.38906 0.33689 0.0
H736 H 0.85278 0.25967 0.78416 0.0
H737 H 0.91618 0.22038 0.76364 0.0
H738 H 0.87 0.16664 0.7612 0.0
H739 H 0.81141 0.13056 0.76394 0.0
H740 H 0.74838 0.17032 0.78453 0.0
H741 H 0.79458 0.2238 0.78827 0.0
C742 C 0.8566 0.23943 0.77897 0.0
C743 C 0.88809 0.24432 0.77383 0.0
C744 C 0.82992 0.20847 0.77788 0.0
C745 C 0.89233 0.21756 0.76753 0.0
C746 C 0.86588 0.1867 0.76624 0.0
C747 C 0.80774 0.15087 0.76966 0.0
C748 C 0.77627 0.14617 0.77388 0.0
C749 C 0.83453 0.18183 0.77139 0.0
C750 C 0.77218 0.17298 0.78099 0.0
C751 C 0.79865 0.20371 0.78307 0.0
H752 H 0.68762 0.80532 0.23805 0.0
H753 H 0.58425 0.74921 0.24969 0.0
H754 H 0.58078 0.798 0.2597 0.0
H755 H 0.60744 0.85712 0.26571 0.0
H756 H 0.71108 0.91172 0.25387 0.0
H757 H 0.71378 0.8631 0.24337 0.0
C758 C 0.66422 0.80354 0.2429 0.0
C759 C 0.63627 0.77339 0.24325 0.0
C760 C 0.66237 0.83162 0.24854 0.0
C761 C 0.60625 0.77196 0.24931 0.0
C762 C 0.60423 0.79993 0.25502 0.0
C763 C 0.63059 0.85839 0.26065 0.0
C764 C 0.65896 0.88837 0.26068 0.0
C765 C 0.63217 0.82999 0.25471 0.0
C766 C 0.68873 0.88928 0.25418 0.0
C767 C 0.6904 0.86136 0.24815 0.0
H768 H 0.85514 0.61611 0.69584 0.0
H769 H 0.84244 0.60834 0.87826 0.0
H770 H 0.79493 0.61476 0.87 0.0
H771 H 0.753 0.61516 0.81004 0.0
H772 H 0.76161 0.6154 0.62714 0.0
H773 H 0.81482 0.62 0.636 0.0
C774 C 0.84237 0.61663 0.73376 0.0
C775 C 0.85227 0.61193 0.7876 0.0
C776 C 0.81419 0.61883 0.72839 0.0
C777 C 0.83519 0.61193 0.83641 0.0
C778 C 0.80801 0.61553 0.83167 0.0
C779 C 0.76708 0.6173 0.77227 0.0
C780 C 0.75379 0.61549 0.71804 0.0
C781 C 0.79672 0.61802 0.77779 0.0
C782 C 0.77166 0.61717 0.66927 0.0
C783 C 0.80191 0.61952 0.67437 0.0
H784 H 0.21161 0.88535 0.24112 0.0
H785 H 0.26971 0.84048 0.26548 0.0
H786 H 0.22123 0.78836 0.27104 0.0
H787 H 0.16212 0.75549 0.27168 0.0
H788 H 0.10452 0.801 0.24767 0.0
H789 H 0.15298 0.85259 0.23917 0.0
C790 C 0.2138 0.86424 0.24764 0.0
C791 C 0.24446 0.86708 0.25315 0.0
C792 C 0.1858 0.83427 0.25086 0.0
C793 C 0.24655 0.83921 0.26114 0.0
C794 C 0.21877 0.80931 0.26438 0.0
C795 C 0.1601 0.77662 0.26422 0.0
C796 C 0.12947 0.77408 0.26047 0.0
C797 C 0.18823 0.80653 0.25963 0.0
C798 C 0.12758 0.80195 0.25086 0.0
C799 C 0.15536 0.83163 0.24605 0.0
H800 H 0.41468 0.2474 0.75919 0.0
H801 H 0.31172 0.20795 0.76951 0.0
H802 H 0.3043 0.15428 0.77061 0.0
H803 H 0.3266 0.11809 0.76783 0.0
H804 H 0.42946 0.15713 0.7585 0.0
H805 H 0.4371 0.21104 0.75754 0.0
C806 C 0.3906 0.22712 0.76199 0.0
C807 C 0.36387 0.23203 0.76432 0.0
C808 C 0.38635 0.19602 0.76242 0.0
C809 C 0.33287 0.2052 0.76774 0.0
C810 C 0.32851 0.17433 0.76823 0.0
C811 C 0.35072 0.13833 0.76528 0.0
C812 C 0.37736 0.13332 0.76302 0.0
C813 C 0.35503 0.16941 0.76528 0.0
C814 C 0.40842 0.16006 0.76027 0.0
C815 C 0.41286 0.19101 0.75979 0.0
loop_
_geom_bond_atom_site_label_1
_geom_bond_atom_site_label_2
_geom_bond_distance
_geom_bond_site_symmetry_2
_ccdc_geom_bond_type
Mn0 O5 2.095 . S
Mn0 O15 2.162 . S
Mn0 O16 2.297 . S
Mn0 O24 2.385 . S
Mn0 O25 2.209 . S
Mn0 O26 2.094 . S
Mn1 O6 2.121 . S
Mn1 N8 2.257 . S
Mn1 N17 2.282 . S
Mn1 O25 2.215 . S
Mn1 O27 2.117 . S
C2 O24 1.234 . S
C2 O25 1.283 . S
C3 O15 1.281 . S
C3 O16 1.236 . S
C4 O26 1.240 . S
C4 O27 1.264 . S
O5 Mn0 2.095 . S
O5 C14 1.250 . S
O6 Mn1 2.121 . S
O6 C14 1.258 . S
C7 N8 1.326 . S
C7 C11 1.460 . S
C7 H13 0.929 . S
N8 Mn1 2.257 . S
N8 C7 1.326 . S
N8 C12 1.362 . S
C9 C10 1.258 . S
C9 C12 1.431 . S
C9 C29 1.449 . S
C10 C9 1.258 . S
C10 C11 1.477 . S
C10 H30 0.931 . S
C11 C7 1.460 . S
C11 C10 1.477 . S
C11 H31 0.930 . S
C12 N8 1.362 . S
C12 C9 1.431 . S
C12 C22 1.476 . S
H13 C7 0.929 . S
C14 O5 1.250 . S
C14 O6 1.258 . S
O15 Mn0 2.162 . S
O15 C3 1.281 . S
O16 Mn0 2.297 . S
O16 C3 1.236 . S
N17 Mn1 2.282 . S
N17 C18 1.328 . S
N17 C22 1.318 . S
C18 N17 1.328 . S
C18 C19 1.457 . S
C18 H23 0.929 . S
C19 C18 1.457 . S
C19 C20 1.291 . S
C19 H32 0.931 . S
C20 C19 1.291 . S
C20 C21 1.373 . S
C20 H33 0.929 . S
C21 C20 1.373 . S
C21 C22 1.396 . S
C21 C28 1.403 . S
C22 C12 1.476 . S
C22 N17 1.318 . S
C22 C21 1.396 . S
H23 C18 0.929 . S
O24 Mn0 2.385 . S
O24 C2 1.234 . S
O25 Mn0 2.209 . S
O25 Mn1 2.215 . S
O25 C2 1.283 . S
O26 Mn0 2.094 . S
O26 C4 1.240 . S
O27 Mn1 2.117 . S
O27 C4 1.264 . S
C28 C21 1.403 . S
C28 C29 1.399 . S
C28 H34 0.929 . S
C29 C9 1.449 . S
C29 C28 1.399 . S
C29 H35 0.930 . S
H30 C10 0.931 . S
H31 C11 0.930 . S
H32 C19 0.931 . S
H33 C20 0.929 . S
H34 C28 0.929 . S
H35 C29 0.930 . S
Mn36 O41 2.095 . S
Mn36 O51 2.162 . S
Mn36 O52 2.297 . S
Mn36 O60 2.385 . S
Mn36 O61 2.209 . S
Mn36 O62 2.094 . S
Mn37 O42 2.121 . S
Mn37 N44 2.257 1_545 S
Mn37 N53 2.282 . S
Mn37 O61 2.215 . S
Mn37 O63 2.117 . S
C38 O60 1.234 . S
C38 O61 1.283 . S
C39 O51 1.281 . S
C39 O52 1.236 . S
C40 O62 1.240 . S
C40 O63 1.264 . S
O41 Mn36 2.095 . S
O41 C50 1.250 . S
O42 Mn37 2.121 . S
O42 C50 1.258 . S
C43 N44 1.326 . S
C43 C47 1.460 . S
C43 H49 0.929 . S
N44 Mn37 2.257 1_565 S
N44 C43 1.326 . S
N44 C48 1.362 . S
C45 C46 1.258 . S
C45 C48 1.431 . S
C45 C65 1.449 . S
C46 C45 1.258 . S
C46 C47 1.477 . S
C46 H66 0.931 . S
C47 C43 1.460 . S
C47 C46 1.477 . S
C47 H67 0.930 . S
C48 N44 1.362 . S
C48 C45 1.431 . S
C48 C58 1.476 1_565 S
H49 C43 0.929 . S
C50 O41 1.250 . S
C50 O42 1.258 . S
O51 Mn36 2.162 . S
O51 C39 1.281 . S
O52 Mn36 2.297 . S
O52 C39 1.236 . S
N53 Mn37 2.282 . S
N53 C54 1.328 . S
N53 C58 1.318 . S
C54 N53 1.328 . S
C54 C55 1.457 . S
C54 H59 0.929 . S
C55 C54 1.457 . S
C55 C56 1.291 . S
C55 H68 0.931 . S
C56 C55 1.291 . S
C56 C57 1.373 . S
C56 H69 0.929 . S
C57 C56 1.373 . S
C57 C58 1.396 . S
C57 C64 1.403 1_545 S
C58 C48 1.476 1_545 S
C58 N53 1.318 . S
C58 C57 1.396 . S
H59 C54 0.929 . S
O60 Mn36 2.385 . S
O60 C38 1.234 . S
O61 Mn36 2.209 . S
O61 Mn37 2.215 . S
O61 C38 1.283 . S
O62 Mn36 2.094 . S
O62 C40 1.240 . S
O63 Mn37 2.117 . S
O63 C40 1.264 . S
C64 C57 1.403 1_565 S
C64 C65 1.399 . S
C64 H70 0.929 . S
C65 C45 1.449 . S
C65 C64 1.399 . S
C65 H71 0.930 . S
H66 C46 0.931 . S
H67 C47 0.930 . S
H68 C55 0.931 . S
H69 C56 0.929 . S
H70 C64 0.929 . S
H71 C65 0.930 . S
Mn72 O77 2.095 . S
Mn72 O87 2.162 . S
Mn72 O88 2.297 . S
Mn72 O96 2.385 . S
Mn72 O97 2.209 . S
Mn72 O98 2.094 . S
Mn73 O78 2.121 . S
Mn73 N80 2.257 . S
Mn73 N89 2.282 . S
Mn73 O97 2.215 . S
Mn73 O99 2.117 . S
C74 O96 1.234 . S
C74 O97 1.283 . S
C75 O87 1.281 . S
C75 O88 1.236 . S
C76 O98 1.240 . S
C76 O99 1.264 . S
O77 Mn72 2.095 . S
O77 C86 1.250 . S
O78 Mn73 2.121 . S
O78 C86 1.258 . S
C79 N80 1.326 . S
C79 C83 1.460 . S
C79 H85 0.929 . S
N80 Mn73 2.257 . S
N80 C79 1.326 . S
N80 C84 1.362 . S
C81 C82 1.258 . S
C81 C84 1.431 . S
C81 C101 1.449 . S
C82 C81 1.258 . S
C82 C83 1.477 . S
C82 H102 0.931 . S
C83 C79 1.460 . S
C83 C82 1.477 . S
C83 H103 0.930 . S
C84 N80 1.362 . S
C84 C81 1.431 . S
C84 C94 1.476 . S
H85 C79 0.929 . S
C86 O77 1.250 . S
C86 O78 1.258 . S
O87 Mn72 2.162 . S
O87 C75 1.281 . S
O88 Mn72 2.297 . S
O88 C75 1.236 . S
N89 Mn73 2.282 . S
N89 C90 1.328 . S
N89 C94 1.318 . S
C90 N89 1.328 . S
C90 C91 1.457 . S
C90 H95 0.929 . S
C91 C90 1.457 . S
C91 C92 1.291 . S
C91 H104 0.931 . S
C92 C91 1.291 . S
C92 C93 1.373 . S
C92 H105 0.929 . S
C93 C92 1.373 . S
C93 C94 1.396 . S
C93 C100 1.403 . S
C94 C84 1.476 . S
C94 N89 1.318 . S
C94 C93 1.396 . S
H95 C90 0.929 . S
O96 Mn72 2.385 . S
O96 C74 1.234 . S
O97 Mn72 2.209 . S
O97 Mn73 2.215 . S
O97 C74 1.283 . S
O98 Mn72 2.094 . S
O98 C76 1.240 . S
O99 Mn73 2.117 . S
O99 C76 1.264 . S
C100 C93 1.403 . S
C100 C101 1.399 . S
C100 H106 0.929 . S
C101 C81 1.449 . S
C101 C100 1.399 . S
C101 H107 0.930 . S
H102 C82 0.931 . S
H103 C83 0.930 . S
H104 C91 0.931 . S
H105 C92 0.929 . S
H106 C100 0.929 . S
H107 C101 0.930 . S
Mn108 O113 2.095 . S
Mn108 O123 2.162 . S
Mn108 O124 2.297 . S
Mn108 O132 2.385 . S
Mn108 O133 2.209 . S
Mn108 O134 2.094 . S
Mn109 O114 2.121 . S
Mn109 N116 2.257 . S
Mn109 N125 2.282 . S
Mn109 O133 2.215 . S
Mn109 O135 2.117 . S
C110 O132 1.234 . S
C110 O133 1.283 . S
C111 O123 1.281 . S
C111 O124 1.236 . S
C112 O134 1.240 . S
C112 O135 1.264 . S
O113 Mn108 2.095 . S
O113 C122 1.250 . S
O114 Mn109 2.121 . S
O114 C122 1.258 . S
C115 N116 1.326 . S
C115 C119 1.460 . S
C115 H121 0.929 . S
N116 Mn109 2.257 . S
N116 C115 1.326 . S
N116 C120 1.362 . S
C117 C118 1.258 . S
C117 C120 1.431 . S
C117 C137 1.449 . S
C118 C117 1.258 . S
C118 C119 1.477 . S
C118 H138 0.931 . S
C119 C115 1.460 . S
C119 C118 1.477 . S
C119 H139 0.930 . S
C120 N116 1.362 . S
C120 C117 1.431 . S
C120 C130 1.476 . S
H121 C115 0.929 . S
C122 O113 1.250 . S
C122 O114 1.258 . S
O123 Mn108 2.162 . S
O123 C111 1.281 . S
O124 Mn108 2.297 . S
O124 C111 1.236 . S
N125 Mn109 2.282 . S
N125 C126 1.328 . S
N125 C130 1.318 . S
C126 N125 1.328 . S
C126 C127 1.457 . S
C126 H131 0.929 . S
C127 C126 1.457 . S
C127 C128 1.291 . S
C127 H140 0.931 . S
C128 C127 1.291 . S
C128 C129 1.373 . S
C128 H141 0.929 . S
C129 C128 1.373 . S
C129 C130 1.396 . S
C129 C136 1.403 . S
C130 C120 1.476 . S
C130 N125 1.318 . S
C130 C129 1.396 . S
H131 C126 0.929 . S
O132 Mn108 2.385 . S
O132 C110 1.234 . S
O133 Mn108 2.209 . S
O133 Mn109 2.215 . S
O133 C110 1.283 . S
O134 Mn108 2.094 . S
O134 C112 1.240 . S
O135 Mn109 2.117 . S
O135 C112 1.264 . S
C136 C129 1.403 . S
C136 C137 1.399 . S
C136 H142 0.929 . S
C137 C117 1.449 . S
C137 C136 1.399 . S
C137 H143 0.930 . S
H138 C118 0.931 . S
H139 C119 0.930 . S
H140 C127 0.931 . S
H141 C128 0.929 . S
H142 C136 0.929 . S
H143 C137 0.930 . S
Mn144 O149 2.095 . S
Mn144 O159 2.162 . S
Mn144 O160 2.297 . S
Mn144 O168 2.385 . S
Mn144 O169 2.209 . S
Mn144 O170 2.094 . S
Mn145 O150 2.121 . S
Mn145 N152 2.257 1_565 S
Mn145 N161 2.282 . S
Mn145 O169 2.215 . S
Mn145 O171 2.117 . S
C146 O168 1.234 . S
C146 O169 1.283 . S
C147 O159 1.281 . S
C147 O160 1.236 . S
C148 O170 1.240 . S
C148 O171 1.264 . S
O149 Mn144 2.095 . S
O149 C158 1.250 . S
O150 Mn145 2.121 . S
O150 C158 1.258 . S
C151 N152 1.326 . S
C151 C155 1.460 . S
C151 H157 0.929 . S
N152 Mn145 2.257 1_545 S
N152 C151 1.326 . S
N152 C156 1.362 . S
C153 C154 1.258 . S
C153 C156 1.431 . S
C153 C173 1.449 . S
C154 C153 1.258 . S
C154 C155 1.477 . S
C154 H174 0.931 . S
C155 C151 1.460 . S
C155 C154 1.477 . S
C155 H175 0.930 . S
C156 N152 1.362 . S
C156 C153 1.431 . S
C156 C166 1.476 1_545 S
H157 C151 0.929 . S
C158 O149 1.250 . S
C158 O150 1.258 . S
O159 Mn144 2.162 . S
O159 C147 1.281 . S
O160 Mn144 2.297 . S
O160 C147 1.236 . S
N161 Mn145 2.282 . S
N161 C162 1.328 . S
N161 C166 1.318 . S
C162 N161 1.328 . S
C162 C163 1.457 . S
C162 H167 0.929 . S
C163 C162 1.457 . S
C163 C164 1.291 . S
C163 H176 0.931 . S
C164 C163 1.291 . S
C164 C165 1.373 . S
C164 H177 0.929 . S
C165 C164 1.373 . S
C165 C166 1.396 . S
C165 C172 1.403 1_565 S
C166 C156 1.476 1_565 S
C166 N161 1.318 . S
C166 C165 1.396 . S
H167 C162 0.929 . S
O168 Mn144 2.385 . S
O168 C146 1.234 . S
O169 Mn144 2.209 . S
O169 Mn145 2.215 . S
O169 C146 1.283 . S
O170 Mn144 2.094 . S
O170 C148 1.240 . S
O171 Mn145 2.117 . S
O171 C148 1.264 . S
C172 C165 1.403 1_545 S
C172 C173 1.399 . S
C172 H178 0.929 . S
C173 C153 1.449 . S
C173 C172 1.399 . S
C173 H179 0.930 . S
H174 C154 0.931 . S
H175 C155 0.930 . S
H176 C163 0.931 . S
H177 C164 0.929 . S
H178 C172 0.929 . S
H179 C173 0.930 . S
Mn180 O185 2.095 . S
Mn180 O195 2.162 . S
Mn180 O196 2.297 . S
Mn180 O204 2.385 . S
Mn180 O205 2.209 . S
Mn180 O206 2.094 . S
Mn181 O186 2.121 . S
Mn181 N188 2.257 . S
Mn181 N197 2.282 . S
Mn181 O205 2.215 . S
Mn181 O207 2.117 . S
C182 O204 1.234 . S
C182 O205 1.283 . S
C183 O195 1.281 . S
C183 O196 1.236 . S
C184 O206 1.240 . S
C184 O207 1.264 . S
O185 Mn180 2.095 . S
O185 C194 1.250 . S
O186 Mn181 2.121 . S
O186 C194 1.258 . S
C187 N188 1.326 . S
C187 C191 1.460 . S
C187 H193 0.929 . S
N188 Mn181 2.257 . S
N188 C187 1.326 . S
N188 C192 1.362 . S
C189 C190 1.258 . S
C189 C192 1.431 . S
C189 C209 1.449 . S
C190 C189 1.258 . S
C190 C191 1.477 . S
C190 H210 0.931 . S
C191 C187 1.460 . S
C191 C190 1.477 . S
C191 H211 0.930 . S
C192 N188 1.362 . S
C192 C189 1.431 . S
C192 C202 1.476 . S
H193 C187 0.929 . S
C194 O185 1.250 . S
C194 O186 1.258 . S
O195 Mn180 2.162 . S
O195 C183 1.281 . S
O196 Mn180 2.297 . S
O196 C183 1.236 . S
N197 Mn181 2.282 . S
N197 C198 1.328 . S
N197 C202 1.318 . S
C198 N197 1.328 . S
C198 C199 1.457 . S
C198 H203 0.929 . S
C199 C198 1.457 . S
C199 C200 1.291 . S
C199 H212 0.931 . S
C200 C199 1.291 . S
C200 C201 1.373 . S
C200 H213 0.929 . S
C201 C200 1.373 . S
C201 C202 1.396 . S
C201 C208 1.403 . S
C202 C192 1.476 . S
C202 N197 1.318 . S
C202 C201 1.396 . S
H203 C198 0.929 . S
O204 Mn180 2.385 . S
O204 C182 1.234 . S
O205 Mn180 2.209 . S
O205 Mn181 2.215 . S
O205 C182 1.283 . S
O206 Mn180 2.094 . S
O206 C184 1.240 . S
O207 Mn181 2.117 . S
O207 C184 1.264 . S
C208 C201 1.403 . S
C208 C209 1.399 . S
C208 H214 0.929 . S
C209 C189 1.449 . S
C209 C208 1.399 . S
C209 H215 0.930 . S
H210 C190 0.931 . S
H211 C191 0.930 . S
H212 C199 0.931 . S
H213 C200 0.929 . S
H214 C208 0.929 . S
H215 C209 0.930 . S
Mn216 O221 2.095 . S
Mn216 O231 2.162 . S
Mn216 O232 2.297 . S
Mn216 O240 2.385 . S
Mn216 O241 2.209 . S
Mn216 O242 2.094 . S
Mn217 O222 2.121 . S
Mn217 N224 2.257 1_565 S
Mn217 N233 2.282 . S
Mn217 O241 2.215 . S
Mn217 O243 2.117 . S
C218 O240 1.234 . S
C218 O241 1.283 . S
C219 O231 1.281 . S
C219 O232 1.236 . S
C220 O242 1.240 . S
C220 O243 1.264 . S
O221 Mn216 2.095 . S
O221 C230 1.250 . S
O222 Mn217 2.121 . S
O222 C230 1.258 . S
C223 N224 1.326 . S
C223 C227 1.460 . S
C223 H229 0.929 . S
N224 Mn217 2.257 1_545 S
N224 C223 1.326 . S
N224 C228 1.362 . S
C225 C226 1.258 . S
C225 C228 1.431 . S
C225 C245 1.449 . S
C226 C225 1.258 . S
C226 C227 1.477 . S
C226 H246 0.931 . S
C227 C223 1.460 . S
C227 C226 1.477 . S
C227 H247 0.930 . S
C228 N224 1.362 . S
C228 C225 1.431 . S
C228 C238 1.476 1_545 S
H229 C223 0.929 . S
C230 O221 1.250 . S
C230 O222 1.258 . S
O231 Mn216 2.162 . S
O231 C219 1.281 . S
O232 Mn216 2.297 . S
O232 C219 1.236 . S
N233 Mn217 2.282 . S
N233 C234 1.328 . S
N233 C238 1.318 . S
C234 N233 1.328 . S
C234 C235 1.457 . S
C234 H239 0.929 . S
C235 C234 1.457 . S
C235 C236 1.291 . S
C235 H248 0.931 . S
C236 C235 1.291 . S
C236 C237 1.373 . S
C236 H249 0.929 . S
C237 C236 1.373 . S
C237 C238 1.396 . S
C237 C244 1.403 1_565 S
C238 C228 1.476 1_565 S
C238 N233 1.318 . S
C238 C237 1.396 . S
H239 C234 0.929 . S
O240 Mn216 2.385 . S
O240 C218 1.234 . S
O241 Mn216 2.209 . S
O241 Mn217 2.215 . S
O241 C218 1.283 . S
O242 Mn216 2.094 . S
O242 C220 1.240 . S
O243 Mn217 2.117 . S
O243 C220 1.264 . S
C244 C237 1.403 1_545 S
C244 C245 1.399 . S
C244 H250 0.929 . S
C245 C225 1.449 . S
C245 C244 1.399 . S
C245 H251 0.930 . S
H246 C226 0.931 . S
H247 C227 0.930 . S
H248 C235 0.931 . S
H249 C236 0.929 . S
H250 C244 0.929 . S
H251 C245 0.930 . S
Mn252 O257 2.095 . S
Mn252 O267 2.162 . S
Mn252 O268 2.297 . S
Mn252 O276 2.385 . S
Mn252 O277 2.209 . S
Mn252 O278 2.094 . S
Mn253 O258 2.121 . S
Mn253 N260 2.257 . S
Mn253 N269 2.282 . S
Mn253 O277 2.215 . S
Mn253 O279 2.117 . S
C254 O276 1.234 . S
C254 O277 1.283 . S
C255 O267 1.281 . S
C255 O268 1.236 . S
C256 O278 1.240 . S
C256 O279 1.264 . S
O257 Mn252 2.095 . S
O257 C266 1.250 . S
O258 Mn253 2.121 . S
O258 C266 1.258 . S
C259 N260 1.326 . S
C259 C263 1.460 . S
C259 H265 0.929 . S
N260 Mn253 2.257 . S
N260 C259 1.326 . S
N260 C264 1.362 . S
C261 C262 1.258 . S
C261 C264 1.431 . S
C261 C281 1.449 . S
C262 C261 1.258 . S
C262 C263 1.477 . S
C262 H282 0.931 . S
C263 C259 1.460 . S
C263 C262 1.477 . S
C263 H283 0.930 . S
C264 N260 1.362 . S
C264 C261 1.431 . S
C264 C274 1.476 . S
H265 C259 0.929 . S
C266 O257 1.250 . S
C266 O258 1.258 . S
O267 Mn252 2.162 . S
O267 C255 1.281 . S
O268 Mn252 2.297 . S
O268 C255 1.236 . S
N269 Mn253 2.282 . S
N269 C270 1.328 . S
N269 C274 1.318 . S
C270 N269 1.328 . S
C270 C271 1.457 . S
C270 H275 0.929 . S
C271 C270 1.457 . S
C271 C272 1.291 . S
C271 H284 0.931 . S
C272 C271 1.291 . S
C272 C273 1.373 . S
C272 H285 0.929 . S
C273 C272 1.373 . S
C273 C274 1.396 . S
C273 C280 1.403 . S
C274 C264 1.476 . S
C274 N269 1.318 . S
C274 C273 1.396 . S
H275 C270 0.929 . S
O276 Mn252 2.385 . S
O276 C254 1.234 . S
O277 Mn252 2.209 . S
O277 Mn253 2.215 . S
O277 C254 1.283 . S
O278 Mn252 2.094 . S
O278 C256 1.240 . S
O279 Mn253 2.117 . S
O279 C256 1.264 . S
C280 C273 1.403 . S
C280 C281 1.399 . S
C280 H286 0.929 . S
C281 C261 1.449 . S
C281 C280 1.399 . S
C281 H287 0.930 . S
H282 C262 0.931 . S
H283 C263 0.930 . S
H284 C271 0.931 . S
H285 C272 0.929 . S
H286 C280 0.929 . S
H287 C281 0.930 . S
Mn288 O293 2.095 . S
Mn288 O303 2.162 . S
Mn288 O304 2.297 . S
Mn288 O312 2.385 . S
Mn288 O313 2.209 . S
Mn288 O314 2.094 . S
Mn289 O294 2.121 . S
Mn289 N296 2.257 1_455 S
Mn289 N305 2.282 . S
Mn289 O313 2.215 . S
Mn289 O315 2.117 . S
C290 O312 1.234 . S
C290 O313 1.283 . S
C291 O303 1.281 . S
C291 O304 1.236 . S
C292 O314 1.240 . S
C292 O315 1.264 . S
O293 Mn288 2.095 . S
O293 C302 1.250 . S
O294 Mn289 2.121 . S
O294 C302 1.258 . S
C295 N296 1.326 . S
C295 C299 1.460 . S
C295 H301 0.929 . S
N296 Mn289 2.257 1_655 S
N296 C295 1.326 . S
N296 C300 1.362 . S
C297 C298 1.258 . S
C297 C300 1.431 . S
C297 C317 1.449 . S
C298 C297 1.258 . S
C298 C299 1.477 . S
C298 H318 0.931 . S
C299 C295 1.460 . S
C299 C298 1.477 . S
C299 H319 0.930 . S
C300 N296 1.362 . S
C300 C297 1.431 . S
C300 C310 1.476 1_655 S
H301 C295 0.929 . S
C302 O293 1.250 . S
C302 O294 1.258 . S
O303 Mn288 2.162 . S
O303 C291 1.281 . S
O304 Mn288 2.297 . S
O304 C291 1.236 . S
N305 Mn289 2.282 . S
N305 C306 1.328 . S
N305 C310 1.318 . S
C306 N305 1.328 . S
C306 C307 1.457 . S
C306 H311 0.929 . S
C307 C306 1.457 . S
C307 C308 1.291 . S
C307 H320 0.931 . S
C308 C307 1.291 . S
C308 C309 1.373 . S
C308 H321 0.929 . S
C309 C308 1.373 . S
C309 C310 1.396 . S
C309 C316 1.403 1_455 S
C310 C300 1.476 1_455 S
C310 N305 1.318 . S
C310 C309 1.396 . S
H311 C306 0.929 . S
O312 Mn288 2.385 . S
O312 C290 1.234 . S
O313 Mn288 2.209 . S
O313 Mn289 2.215 . S
O313 C290 1.283 . S
O314 Mn288 2.094 . S
O314 C292 1.240 . S
O315 Mn289 2.117 . S
O315 C292 1.264 . S
C316 C309 1.403 1_655 S
C316 C317 1.399 . S
C316 H322 0.929 . S
C317 C297 1.449 . S
C317 C316 1.399 . S
C317 H323 0.930 . S
H318 C298 0.931 . S
H319 C299 0.930 . S
H320 C307 0.931 . S
H321 C308 0.929 . S
H322 C316 0.929 . S
H323 C317 0.930 . S
Mn324 O329 2.095 . S
Mn324 O339 2.162 . S
Mn324 O340 2.297 . S
Mn324 O348 2.385 . S
Mn324 O349 2.209 . S
Mn324 O350 2.094 . S
Mn325 O330 2.121 . S
Mn325 N332 2.257 1_545 S
Mn325 N341 2.282 . S
Mn325 O349 2.215 . S
Mn325 O351 2.117 . S
C326 O348 1.234 . S
C326 O349 1.283 . S
C327 O339 1.281 . S
C327 O340 1.236 . S
C328 O350 1.240 . S
C328 O351 1.264 . S
O329 Mn324 2.095 . S
O329 C338 1.250 . S
O330 Mn325 2.121 . S
O330 C338 1.258 . S
C331 N332 1.326 . S
C331 C335 1.460 . S
C331 H337 0.929 . S
N332 Mn325 2.257 1_565 S
N332 C331 1.326 . S
N332 C336 1.362 . S
C333 C334 1.258 . S
C333 C336 1.431 . S
C333 C353 1.449 . S
C334 C333 1.258 . S
C334 C335 1.477 . S
C334 H354 0.931 . S
C335 C331 1.460 . S
C335 C334 1.477 . S
C335 H355 0.930 . S
C336 N332 1.362 . S
C336 C333 1.431 . S
C336 C346 1.476 1_565 S
H337 C331 0.929 . S
C338 O329 1.250 . S
C338 O330 1.258 . S
O339 Mn324 2.162 . S
O339 C327 1.281 . S
O340 Mn324 2.297 . S
O340 C327 1.236 . S
N341 Mn325 2.282 . S
N341 C342 1.328 . S
N341 C346 1.318 . S
C342 N341 1.328 . S
C342 C343 1.457 . S
C342 H347 0.929 . S
C343 C342 1.457 . S
C343 C344 1.291 . S
C343 H356 0.931 . S
C344 C343 1.291 . S
C344 C345 1.373 . S
C344 H357 0.929 . S
C345 C344 1.373 . S
C345 C346 1.396 . S
C345 C352 1.403 1_545 S
C346 C336 1.476 1_545 S
C346 N341 1.318 . S
C346 C345 1.396 . S
H347 C342 0.929 . S
O348 Mn324 2.385 . S
O348 C326 1.234 . S
O349 Mn324 2.209 . S
O349 Mn325 2.215 . S
O349 C326 1.283 . S
O350 Mn324 2.094 . S
O350 C328 1.240 . S
O351 Mn325 2.117 . S
O351 C328 1.264 . S
C352 C345 1.403 1_565 S
C352 C353 1.399 . S
C352 H358 0.929 . S
C353 C333 1.449 . S
C353 C352 1.399 . S
C353 H359 0.930 . S
H354 C334 0.931 . S
H355 C335 0.930 . S
H356 C343 0.931 . S
H357 C344 0.929 . S
H358 C352 0.929 . S
H359 C353 0.930 . S
Mn360 O365 2.095 . S
Mn360 O375 2.162 . S
Mn360 O376 2.297 . S
Mn360 O384 2.385 . S
Mn360 O385 2.209 . S
Mn360 O386 2.094 . S
Mn361 O366 2.121 . S
Mn361 N368 2.257 . S
Mn361 N377 2.282 . S
Mn361 O385 2.215 . S
Mn361 O387 2.117 . S
C362 O384 1.234 . S
C362 O385 1.283 . S
C363 O375 1.281 . S
C363 O376 1.236 . S
C364 O386 1.240 . S
C364 O387 1.264 . S
O365 Mn360 2.095 . S
O365 C374 1.250 . S
O366 Mn361 2.121 . S
O366 C374 1.258 . S
C367 N368 1.326 . S
C367 C371 1.460 . S
C367 H373 0.929 . S
N368 Mn361 2.257 . S
N368 C367 1.326 . S
N368 C372 1.362 . S
C369 C370 1.258 . S
C369 C372 1.431 . S
C369 C389 1.449 . S
C370 C369 1.258 . S
C370 C371 1.477 . S
C370 H390 0.931 . S
C371 C367 1.460 . S
C371 C370 1.477 . S
C371 H391 0.930 . S
C372 N368 1.362 . S
C372 C369 1.431 . S
C372 C382 1.476 . S
H373 C367 0.929 . S
C374 O365 1.250 . S
C374 O366 1.258 . S
O375 Mn360 2.162 . S
O375 C363 1.281 . S
O376 Mn360 2.297 . S
O376 C363 1.236 . S
N377 Mn361 2.282 . S
N377 C378 1.328 . S
N377 C382 1.318 . S
C378 N377 1.328 . S
C378 C379 1.457 . S
C378 H383 0.929 . S
C379 C378 1.457 . S
C379 C380 1.291 . S
C379 H392 0.931 . S
C380 C379 1.291 . S
C380 C381 1.373 . S
C380 H393 0.929 . S
C381 C380 1.373 . S
C381 C382 1.396 . S
C381 C388 1.403 . S
C382 C372 1.476 . S
C382 N377 1.318 . S
C382 C381 1.396 . S
H383 C378 0.929 . S
O384 Mn360 2.385 . S
O384 C362 1.234 . S
O385 Mn360 2.209 . S
O385 Mn361 2.215 . S
O385 C362 1.283 . S
O386 Mn360 2.094 . S
O386 C364 1.240 . S
O387 Mn361 2.117 . S
O387 C364 1.264 . S
C388 C381 1.403 . S
C388 C389 1.399 . S
C388 H394 0.929 . S
C389 C369 1.449 . S
C389 C388 1.399 . S
C389 H395 0.930 . S
H390 C370 0.931 . S
H391 C371 0.930 . S
H392 C379 0.931 . S
H393 C380 0.929 . S
H394 C388 0.929 . S
H395 C389 0.930 . S
Mn396 O401 2.095 . S
Mn396 O411 2.162 . S
Mn396 O412 2.297 . S
Mn396 O420 2.385 . S
Mn396 O421 2.209 . S
Mn396 O422 2.094 . S
Mn397 O402 2.121 . S
Mn397 N404 2.257 1_655 S
Mn397 N413 2.282 . S
Mn397 O421 2.215 . S
Mn397 O423 2.117 . S
C398 O420 1.234 . S
C398 O421 1.283 . S
C399 O411 1.281 . S
C399 O412 1.236 . S
C400 O422 1.240 . S
C400 O423 1.264 . S
O401 Mn396 2.095 . S
O401 C410 1.250 . S
O402 Mn397 2.121 . S
O402 C410 1.258 . S
C403 N404 1.326 . S
C403 C407 1.460 . S
C403 H409 0.929 . S
N404 Mn397 2.257 1_455 S
N404 C403 1.326 . S
N404 C408 1.362 . S
C405 C406 1.258 . S
C405 C408 1.431 . S
C405 C425 1.449 . S
C406 C405 1.258 . S
C406 C407 1.477 . S
C406 H426 0.931 . S
C407 C403 1.460 . S
C407 C406 1.477 . S
C407 H427 0.930 . S
C408 N404 1.362 . S
C408 C405 1.431 . S
C408 C418 1.476 1_455 S
H409 C403 0.929 . S
C410 O401 1.250 . S
C410 O402 1.258 . S
O411 Mn396 2.162 . S
O411 C399 1.281 . S
O412 Mn396 2.297 . S
O412 C399 1.236 . S
N413 Mn397 2.282 . S
N413 C414 1.328 . S
N413 C418 1.318 . S
C414 N413 1.328 . S
C414 C415 1.457 . S
C414 H419 0.929 . S
C415 C414 1.457 . S
C415 C416 1.291 . S
C415 H428 0.931 . S
C416 C415 1.291 . S
C416 C417 1.373 . S
C416 H429 0.929 . S
C417 C416 1.373 . S
C417 C418 1.396 . S
C417 C424 1.403 1_655 S
C418 C408 1.476 1_655 S
C418 N413 1.318 . S
C418 C417 1.396 . S
H419 C414 0.929 . S
O420 Mn396 2.385 . S
O420 C398 1.234 . S
O421 Mn396 2.209 . S
O421 Mn397 2.215 . S
O421 C398 1.283 . S
O422 Mn396 2.094 . S
O422 C400 1.240 . S
O423 Mn397 2.117 . S
O423 C400 1.264 . S
C424 C417 1.403 1_455 S
C424 C425 1.399 . S
C424 H430 0.929 . S
C425 C405 1.449 . S
C425 C424 1.399 . S
C425 H431 0.930 . S
H426 C406 0.931 . S
H427 C407 0.930 . S
H428 C415 0.931 . S
H429 C416 0.929 . S
H430 C424 0.929 . S
H431 C425 0.930 . S
H432 C438 0.930 . S
H433 C441 0.930 . S
H434 C442 0.930 . S
H435 C443 0.930 . S
H436 C446 0.930 . S
H437 C447 0.930 . S
C438 H432 0.930 . S
C438 C439 1.355 . S
C438 C440 1.415 1_554 S
C439 C438 1.355 . S
C439 C441 1.419 1_455 S
C440 C438 1.415 1_556 S
C440 C445 1.425 1_455 S
C440 C447 1.409 . S
C441 H433 0.930 . S
C441 C439 1.419 1_655 S
C441 C442 1.362 . S
C442 H434 0.930 . S
C442 C441 1.362 . S
C442 C445 1.409 1_554 S
C443 H435 0.930 . S
C443 C444 1.355 . S
C443 C445 1.415 . S
C444 C443 1.355 . S
C444 C446 1.419 1_655 S
C445 C440 1.425 1_655 S
C445 C442 1.409 1_556 S
C445 C443 1.415 . S
C446 H436 0.930 . S
C446 C444 1.419 1_455 S
C446 C447 1.362 . S
C447 H437 0.930 . S
C447 C440 1.409 . S
C447 C446 1.362 . S
H448 C454 0.930 . S
H449 C457 0.930 . S
H450 C458 0.930 . S
H451 C459 0.930 . S
H452 C462 0.930 . S
H453 C463 0.930 . S
C454 H448 0.930 . S
C454 C455 1.355 1_545 S
C454 C456 1.415 . S
C455 C454 1.355 1_565 S
C455 C457 1.419 . S
C456 C454 1.415 . S
C456 C461 1.425 1_545 S
C456 C463 1.409 . S
C457 H449 0.930 . S
C457 C455 1.419 . S
C457 C458 1.362 . S
C458 H450 0.930 . S
C458 C457 1.362 . S
C458 C461 1.409 . S
C459 H451 0.930 . S
C459 C460 1.355 1_565 S
C459 C461 1.415 . S
C460 C459 1.355 1_545 S
C460 C462 1.419 . S
C461 C456 1.425 1_565 S
C461 C458 1.409 . S
C461 C459 1.415 . S
C462 H452 0.930 . S
C462 C460 1.419 . S
C462 C463 1.362 . S
C463 H453 0.930 . S
C463 C456 1.409 . S
C463 C462 1.362 . S
H464 C470 0.930 . S
H465 C473 0.930 . S
H466 C474 0.930 . S
H467 C475 0.930 . S
H468 C478 0.930 . S
H469 C479 0.930 . S
C470 H464 0.930 . S
C470 C471 1.355 . S
C470 C472 1.415 . S
C471 C470 1.355 . S
C471 C473 1.419 . S
C472 C470 1.415 . S
C472 C477 1.425 . S
C472 C479 1.409 1_554 S
C473 H465 0.930 . S
C473 C471 1.419 . S
C473 C474 1.362 . S
C474 H466 0.930 . S
C474 C473 1.362 . S
C474 C477 1.409 . S
C475 H467 0.930 . S
C475 C476 1.355 . S
C475 C477 1.415 1_556 S
C476 C475 1.355 . S
C476 C478 1.419 . S
C477 C472 1.425 . S
C477 C474 1.409 . S
C477 C475 1.415 1_554 S
C478 H468 0.930 . S
C478 C476 1.419 . S
C478 C479 1.362 . S
C479 H469 0.930 . S
C479 C472 1.409 1_556 S
C479 C478 1.362 . S
H480 C486 0.929 . S
H481 C489 0.930 . S
H482 C490 0.930 . S
H483 C491 0.930 1_455 S
H484 C494 0.930 . S
H485 C495 0.930 . S
C486 H480 0.929 . S
C486 C487 1.354 1_655 S
C486 C488 1.415 . S
C487 C486 1.354 1_455 S
C487 C489 1.419 . S
C488 C486 1.415 . S
C488 C493 1.425 1_655 S
C488 C495 1.409 . S
C489 H481 0.930 . S
C489 C487 1.419 . S
C489 C490 1.362 . S
C490 H482 0.930 . S
C490 C489 1.362 . S
C490 C493 1.409 . S
C491 H483 0.930 1_655 S
C491 C492 1.355 . S
C491 C493 1.415 1_655 S
C492 C491 1.355 . S
C492 C494 1.419 . S
C493 C488 1.425 1_455 S
C493 C490 1.409 . S
C493 C491 1.415 1_455 S
C494 H484 0.930 . S
C494 C492 1.419 . S
C494 C495 1.362 . S
C495 H485 0.930 . S
C495 C488 1.409 . S
C495 C494 1.362 . S
H496 C502 0.930 . S
H497 C505 0.930 . S
H498 C506 0.930 . S
H499 C507 0.930 . S
H500 C510 0.930 . S
H501 C511 0.930 . S
C502 H496 0.930 . S
C502 C503 1.355 . S
C502 C504 1.415 . S
C503 C502 1.355 . S
C503 C505 1.419 1_545 S
C504 C502 1.415 . S
C504 C509 1.425 1_546 S
C504 C511 1.409 1_556 S
C505 H497 0.930 . S
C505 C503 1.419 1_565 S
C505 C506 1.362 . S
C506 H498 0.930 . S
C506 C505 1.362 . S
C506 C509 1.409 1_556 S
C507 H499 0.930 . S
C507 C508 1.355 . S
C507 C509 1.415 . S
C508 C507 1.355 . S
C508 C510 1.419 1_565 S
C509 C504 1.425 1_564 S
C509 C506 1.409 1_554 S
C509 C507 1.415 . S
C510 H500 0.930 . S
C510 C508 1.419 1_545 S
C510 C511 1.362 . S
C511 H501 0.930 . S
C511 C504 1.409 1_554 S
C511 C510 1.362 . S
H512 C518 0.930 . S
H513 C521 0.930 . S
H514 C522 0.930 . S
H515 C523 0.930 . S
H516 C526 0.930 . S
H517 C527 0.930 . S
C518 H512 0.930 . S
C518 C519 1.355 . S
C518 C520 1.415 . S
C519 C518 1.355 . S
C519 C521 1.419 . S
C520 C518 1.415 . S
C520 C525 1.425 . S
C520 C527 1.409 . S
C521 H513 0.930 . S
C521 C519 1.419 . S
C521 C522 1.362 . S
C522 H514 0.930 . S
C522 C521 1.362 . S
C522 C525 1.409 . S
C523 H515 0.930 . S
C523 C524 1.355 . S
C523 C525 1.415 . S
C524 C523 1.355 . S
C524 C526 1.419 . S
C525 C520 1.425 . S
C525 C522 1.409 . S
C525 C523 1.415 . S
C526 H516 0.930 . S
C526 C524 1.419 . S
C526 C527 1.362 . S
C527 H517 0.930 . S
C527 C520 1.409 . S
C527 C526 1.362 . S
H528 C534 0.930 1_455 S
H529 C537 0.930 . S
H530 C538 0.930 1_554 S
H531 C539 0.930 . S
H532 C542 0.930 . S
H533 C543 0.930 . S
C534 H528 0.930 1_655 S
C534 C535 1.355 . S
C534 C536 1.415 1_655 S
C535 C534 1.355 . S
C535 C537 1.419 . S
C536 C534 1.415 1_455 S
C536 C541 1.425 1_456 S
C536 C543 1.409 1_556 S
C537 H529 0.930 . S
C537 C535 1.419 . S
C537 C538 1.362 . S
C538 H530 0.930 1_556 S
C538 C537 1.362 . S
C538 C541 1.409 1_556 S
C539 H531 0.930 . S
C539 C540 1.355 1_655 S
C539 C541 1.415 . S
C540 C539 1.355 1_455 S
C540 C542 1.419 . S
C541 C536 1.425 1_654 S
C541 C538 1.409 1_554 S
C541 C539 1.415 . S
C542 H532 0.930 . S
C542 C540 1.419 . S
C542 C543 1.362 . S
C543 H533 0.930 . S
C543 C536 1.409 1_554 S
C543 C542 1.362 . S
H544 C550 0.930 . S
H545 C553 0.930 . S
H546 C554 0.930 . S
H547 C555 0.930 . S
H548 C558 0.930 . S
H549 C559 0.930 . S
C550 H544 0.930 . S
C550 C551 1.355 . S
C550 C552 1.424 . S
C551 C550 1.355 . S
C551 C553 1.419 . S
C552 C550 1.424 . S
C552 C557 1.395 1_565 S
C552 C559 1.415 1_565 S
C553 H545 0.930 . S
C553 C551 1.419 . S
C553 C554 1.362 . S
C554 H546 0.930 . S
C554 C553 1.362 . S
C554 C557 1.415 1_565 S
C555 H547 0.930 . S
C555 C556 1.355 . S
C555 C557 1.424 . S
C556 C555 1.355 . S
C556 C558 1.419 . S
C557 C552 1.395 1_545 S
C557 C554 1.415 1_545 S
C557 C555 1.424 . S
C558 H548 0.930 . S
C558 C556 1.419 . S
C558 C559 1.362 . S
C559 H549 0.930 . S
C559 C552 1.415 1_545 S
C559 C558 1.362 . S
H560 C566 0.930 . S
H561 C569 0.930 . S
H562 C570 0.930 . S
H563 C571 0.930 . S
H564 C574 0.930 . S
H565 C575 0.930 . S
C566 H560 0.930 . S
C566 C567 1.355 . S
C566 C568 1.415 . S
C567 C566 1.355 . S
C567 C569 1.419 . S
C568 C566 1.415 . S
C568 C573 1.425 1_556 S
C568 C575 1.409 1_556 S
C569 H561 0.930 . S
C569 C567 1.419 . S
C569 C570 1.362 . S
C570 H562 0.930 . S
C570 C569 1.362 . S
C570 C573 1.409 1_556 S
C571 H563 0.930 . S
C571 C572 1.355 . S
C571 C573 1.415 . S
C572 C571 1.355 . S
C572 C574 1.419 . S
C573 C568 1.425 1_554 S
C573 C570 1.409 1_554 S
C573 C571 1.415 . S
C574 H564 0.930 . S
C574 C572 1.419 . S
C574 C575 1.362 . S
C575 H565 0.930 . S
C575 C568 1.409 1_554 S
C575 C574 1.362 . S
H576 C582 0.930 . S
H577 C585 0.930 . S
H578 C586 0.930 . S
H579 C587 0.904 1_655 S
H580 C590 0.930 . S
H581 C591 0.930 . S
C582 H576 0.930 . S
C582 C583 1.355 1_455 S
C582 C584 1.415 . S
C583 C582 1.355 1_655 S
C583 C585 1.419 . S
C584 C582 1.415 . S
C584 C589 1.425 1_455 S
C584 C591 1.409 . S
C585 H577 0.930 . S
C585 C583 1.419 . S
C585 C586 1.362 . S
C586 H578 0.930 . S
C586 C585 1.362 . S
C586 C589 1.409 . S
C587 H579 0.904 1_455 S
C587 C588 1.384 . S
C587 C589 1.411 1_455 S
C588 C587 1.384 . S
C588 C590 1.419 . S
C589 C584 1.425 1_655 S
C589 C586 1.409 . S
C589 C587 1.411 1_655 S
C590 H580 0.930 . S
C590 C588 1.419 . S
C590 C591 1.362 . S
C591 H581 0.930 . S
C591 C584 1.409 . S
C591 C590 1.362 . S
H592 C598 0.930 . S
H593 C601 0.930 . S
H594 C602 0.930 . S
H595 C603 0.930 . S
H596 C606 0.930 . S
H597 C607 0.930 . S
C598 H592 0.930 . S
C598 C599 1.355 . S
C598 C600 1.415 . S
C599 C598 1.355 . S
C599 C601 1.419 1_545 S
C600 C598 1.415 . S
C600 C605 1.425 1_546 S
C600 C607 1.409 1_556 S
C601 H593 0.930 . S
C601 C599 1.419 1_565 S
C601 C602 1.362 . S
C602 H594 0.930 . S
C602 C601 1.362 . S
C602 C605 1.409 1_556 S
C603 H595 0.930 . S
C603 C604 1.355 . S
C603 C605 1.415 . S
C604 C603 1.355 . S
C604 C606 1.419 1_565 S
C605 C600 1.425 1_564 S
C605 C602 1.409 1_554 S
C605 C603 1.415 . S
C606 H596 0.930 . S
C606 C604 1.419 1_545 S
C606 C607 1.362 . S
C607 H597 0.930 . S
C607 C600 1.409 1_554 S
C607 C606 1.362 . S
H608 C614 0.930 . S
H609 C617 0.930 . S
H610 C618 0.930 . S
H611 C619 0.930 . S
H612 C622 0.930 . S
H613 C623 0.930 . S
C614 H608 0.930 . S
C614 C615 1.355 . S
C614 C616 1.415 . S
C615 C614 1.355 . S
C615 C617 1.419 . S
C616 C614 1.415 . S
C616 C621 1.425 . S
C616 C623 1.409 . S
C617 H609 0.930 . S
C617 C615 1.419 . S
C617 C618 1.362 . S
C618 H610 0.930 . S
C618 C617 1.362 . S
C618 C621 1.409 . S
C619 H611 0.930 . S
C619 C620 1.355 . S
C619 C621 1.415 . S
C620 C619 1.355 . S
C620 C622 1.419 . S
C621 C616 1.425 . S
C621 C618 1.409 . S
C621 C619 1.415 . S
C622 H612 0.930 . S
C622 C620 1.419 . S
C622 C623 1.362 . S
C623 H613 0.930 . S
C623 C616 1.409 . S
C623 C622 1.362 . S
H624 C630 0.930 . S
H625 C633 0.930 . S
H626 C634 0.930 1_655 S
H627 C635 0.930 . S
H628 C638 0.930 . S
H629 C639 0.930 . S
C630 H624 0.930 . S
C630 C631 1.355 . S
C630 C632 1.415 . S
C631 C630 1.355 . S
C631 C633 1.419 . S
C632 C630 1.415 . S
C632 C637 1.425 . S
C632 C639 1.409 . S
C633 H625 0.930 . S
C633 C631 1.419 . S
C633 C634 1.362 . S
C634 H626 0.930 1_455 S
C634 C633 1.362 . S
C634 C637 1.409 . S
C635 H627 0.930 . S
C635 C636 1.355 . S
C635 C637 1.415 . S
C636 C635 1.355 . S
C636 C638 1.419 . S
C637 C632 1.425 . S
C637 C634 1.409 . S
C637 C635 1.415 . S
C638 H628 0.930 . S
C638 C636 1.419 . S
C638 C639 1.362 . S
C639 H629 0.930 . S
C639 C632 1.409 . S
C639 C638 1.362 . S
H640 C646 0.930 . S
H641 C649 0.930 . S
H642 C650 0.930 . S
H643 C651 0.930 . S
H644 C654 0.930 . S
H645 C655 0.930 . S
C646 H640 0.930 . S
C646 C647 1.355 . S
C646 C648 1.415 . S
C647 C646 1.355 . S
C647 C649 1.419 . S
C648 C646 1.415 . S
C648 C653 1.425 . S
C648 C655 1.409 . S
C649 H641 0.930 . S
C649 C647 1.419 . S
C649 C650 1.362 . S
C650 H642 0.930 . S
C650 C649 1.362 . S
C650 C653 1.409 . S
C651 H643 0.930 . S
C651 C652 1.355 . S
C651 C653 1.415 . S
C652 C651 1.355 . S
C652 C654 1.419 . S
C653 C648 1.425 . S
C653 C650 1.409 . S
C653 C651 1.415 . S
C654 H644 0.930 . S
C654 C652 1.419 . S
C654 C655 1.362 . S
C655 H645 0.930 . S
C655 C648 1.409 . S
C655 C654 1.362 . S
H656 C662 0.930 . S
H657 C665 0.930 . S
H658 C666 0.930 . S
H659 C667 0.930 . S
H660 C670 0.930 . S
H661 C671 0.930 . S
C662 H656 0.930 . S
C662 C663 1.355 . S
C662 C664 1.415 . S
C663 C662 1.355 . S
C663 C665 1.419 . S
C664 C662 1.415 . S
C664 C669 1.425 . S
C664 C671 1.409 . S
C665 H657 0.930 . S
C665 C663 1.419 . S
C665 C666 1.362 . S
C666 H658 0.930 . S
C666 C665 1.362 . S
C666 C669 1.409 . S
C667 H659 0.930 . S
C667 C668 1.355 . S
C667 C669 1.415 . S
C668 C667 1.355 . S
C668 C670 1.419 . S
C669 C664 1.425 . S
C669 C666 1.409 . S
C669 C667 1.415 . S
C670 H660 0.930 . S
C670 C668 1.419 . S
C670 C671 1.362 . S
C671 H661 0.930 . S
C671 C664 1.409 . S
C671 C670 1.362 . S
H672 C678 0.930 . S
H673 C681 0.930 . S
H674 C682 0.930 . S
H675 C683 0.930 . S
H676 C686 0.930 . S
H677 C687 0.930 . S
C678 H672 0.930 . S
C678 C679 1.355 . S
C678 C680 1.415 . S
C679 C678 1.355 . S
C679 C681 1.419 . S
C680 C678 1.415 . S
C680 C685 1.425 . S
C680 C687 1.409 . S
C681 H673 0.930 . S
C681 C679 1.419 . S
C681 C682 1.362 . S
C682 H674 0.930 . S
C682 C681 1.362 . S
C682 C685 1.409 . S
C683 H675 0.930 . S
C683 C684 1.355 . S
C683 C685 1.415 . S
C684 C683 1.355 . S
C684 C686 1.419 . S
C685 C680 1.425 . S
C685 C682 1.409 . S
C685 C683 1.415 . S
C686 H676 0.930 . S
C686 C684 1.419 . S
C686 C687 1.362 . S
C687 H677 0.930 . S
C687 C680 1.409 . S
C687 C686 1.362 . S
H688 C694 0.930 . S
H689 C697 0.930 . S
H690 C698 0.930 . S
H691 C699 0.930 . S
H692 C702 0.930 . S
H693 C703 0.930 . S
C694 H688 0.930 . S
C694 C695 1.355 . S
C694 C696 1.415 . S
C695 C694 1.355 . S
C695 C697 1.419 . S
C696 C694 1.415 . S
C696 C701 1.425 . S
C696 C703 1.409 . S
C697 H689 0.930 . S
C697 C695 1.419 . S
C697 C698 1.362 . S
C698 H690 0.930 . S
C698 C697 1.362 . S
C698 C701 1.409 . S
C699 H691 0.930 . S
C699 C700 1.355 . S
C699 C701 1.415 . S
C700 C699 1.355 . S
C700 C702 1.419 . S
C701 C696 1.425 . S
C701 C698 1.409 . S
C701 C699 1.415 . S
C702 H692 0.930 . S
C702 C700 1.419 . S
C702 C703 1.362 . S
C703 H693 0.930 . S
C703 C696 1.409 . S
C703 C702 1.362 . S
H704 C710 0.930 . S
H705 C713 0.930 . S
H706 C714 0.930 . S
H707 C715 0.930 . S
H708 C718 0.930 . S
H709 C719 0.930 . S
C710 H704 0.930 . S
C710 C711 1.355 . S
C710 C712 1.415 . S
C711 C710 1.355 . S
C711 C713 1.419 . S
C712 C710 1.415 . S
C712 C717 1.425 . S
C712 C719 1.409 . S
C713 H705 0.930 . S
C713 C711 1.419 . S
C713 C714 1.362 . S
C714 H706 0.930 . S
C714 C713 1.362 . S
C714 C717 1.409 . S
C715 H707 0.930 . S
C715 C716 1.355 . S
C715 C717 1.415 . S
C716 C715 1.355 . S
C716 C718 1.419 . S
C717 C712 1.425 . S
C717 C714 1.409 . S
C717 C715 1.415 . S
C718 H708 0.930 . S
C718 C716 1.419 . S
C718 C719 1.362 . S
C719 H709 0.930 . S
C719 C712 1.409 . S
C719 C718 1.362 . S
H720 C726 0.930 . S
H721 C729 0.930 . S
H722 C730 0.930 . S
H723 C731 0.930 . S
H724 C734 0.930 . S
H725 C735 0.930 . S
C726 H720 0.930 . S
C726 C727 1.355 . S
C726 C728 1.415 . S
C727 C726 1.355 . S
C727 C729 1.419 . S
C728 C726 1.415 . S
C728 C733 1.425 . S
C728 C735 1.409 . S
C729 H721 0.930 . S
C729 C727 1.419 . S
C729 C730 1.362 . S
C730 H722 0.930 . S
C730 C729 1.362 . S
C730 C733 1.409 . S
C731 H723 0.930 . S
C731 C732 1.355 . S
C731 C733 1.415 . S
C732 C731 1.355 . S
C732 C734 1.419 . S
C733 C728 1.425 . S
C733 C730 1.409 . S
C733 C731 1.415 . S
C734 H724 0.930 . S
C734 C732 1.419 . S
C734 C735 1.362 . S
C735 H725 0.930 . S
C735 C728 1.409 . S
C735 C734 1.362 . S
H736 C742 0.930 . S
H737 C745 0.930 . S
H738 C746 0.930 . S
H739 C747 0.930 . S
H740 C750 0.930 . S
H741 C751 0.930 . S
C742 H736 0.930 . S
C742 C743 1.355 . S
C742 C744 1.415 . S
C743 C742 1.355 . S
C743 C745 1.419 . S
C744 C742 1.415 . S
C744 C749 1.425 . S
C744 C751 1.409 . S
C745 H737 0.930 . S
C745 C743 1.419 . S
C745 C746 1.362 . S
C746 H738 0.930 . S
C746 C745 1.362 . S
C746 C749 1.409 . S
C747 H739 0.930 . S
C747 C748 1.355 . S
C747 C749 1.415 . S
C748 C747 1.355 . S
C748 C750 1.419 . S
C749 C744 1.425 . S
C749 C746 1.409 . S
C749 C747 1.415 . S
C750 H740 0.930 . S
C750 C748 1.419 . S
C750 C751 1.362 . S
C751 H741 0.930 . S
C751 C744 1.409 . S
C751 C750 1.362 . S
H752 C758 0.930 . S
H753 C761 0.930 . S
H754 C762 0.930 . S
H755 C763 0.930 . S
H756 C766 0.930 . S
H757 C767 0.930 . S
C758 H752 0.930 . S
C758 C759 1.355 . S
C758 C760 1.415 . S
C759 C758 1.355 . S
C759 C761 1.419 . S
C760 C758 1.415 . S
C760 C765 1.425 . S
C760 C767 1.409 . S
C761 H753 0.930 . S
C761 C759 1.419 . S
C761 C762 1.362 . S
C762 H754 0.930 . S
C762 C761 1.362 . S
C762 C765 1.409 . S
C763 H755 0.930 . S
C763 C764 1.355 . S
C763 C765 1.415 . S
C764 C763 1.355 . S
C764 C766 1.419 . S
C765 C760 1.425 . S
C765 C762 1.409 . S
C765 C763 1.415 . S
C766 H756 0.930 . S
C766 C764 1.419 . S
C766 C767 1.362 . S
C767 H757 0.930 . S
C767 C760 1.409 . S
C767 C766 1.362 . S
H768 C774 0.930 . S
H769 C777 0.930 . S
H770 C778 0.930 . S
H771 C779 0.930 . S
H772 C782 0.930 . S
H773 C783 0.930 . S
C774 H768 0.930 . S
C774 C775 1.355 . S
C774 C776 1.415 . S
C775 C774 1.355 . S
C775 C777 1.419 . S
C776 C774 1.415 . S
C776 C781 1.425 . S
C776 C783 1.409 . S
C777 H769 0.930 . S
C777 C775 1.419 . S
C777 C778 1.362 . S
C778 H770 0.930 . S
C778 C777 1.362 . S
C778 C781 1.409 . S
C779 H771 0.930 . S
C779 C780 1.355 . S
C779 C781 1.415 . S
C780 C779 1.355 . S
C780 C782 1.419 . S
C781 C776 1.425 . S
C781 C778 1.409 . S
C781 C779 1.415 . S
C782 H772 0.930 . S
C782 C780 1.419 . S
C782 C783 1.362 . S
C783 H773 0.930 . S
C783 C776 1.409 . S
C783 C782 1.362 . S
H784 C790 0.930 . S
H785 C793 0.930 . S
H786 C794 0.930 . S
H787 C795 0.930 . S
H788 C798 0.930 . S
H789 C799 0.930 . S
C790 H784 0.930 . S
C790 C791 1.355 . S
C790 C792 1.415 . S
C791 C790 1.355 . S
C791 C793 1.419 . S
C792 C790 1.415 . S
C792 C797 1.425 . S
C792 C799 1.409 . S
C793 H785 0.930 . S
C793 C791 1.419 . S
C793 C794 1.362 . S
C794 H786 0.930 . S
C794 C793 1.362 . S
C794 C797 1.409 . S
C795 H787 0.930 . S
C795 C796 1.355 . S
C795 C797 1.415 . S
C796 C795 1.355 . S
C796 C798 1.419 . S
C797 C792 1.425 . S
C797 C794 1.409 . S
C797 C795 1.415 . S
C798 H788 0.930 . S
C798 C796 1.419 . S
C798 C799 1.362 . S
C799 H789 0.930 . S
C799 C792 1.409 . S
C799 C798 1.362 . S
H800 C806 0.930 . S
H801 C809 0.930 . S
H802 C810 0.930 . S
H803 C811 0.930 . S
H804 C814 0.930 . S
H805 C815 0.930 . S
C806 H800 0.930 . S
C806 C807 1.355 . S
C806 C808 1.415 . S
C807 C806 1.355 . S
C807 C809 1.419 . S
C808 C806 1.415 . S
C808 C813 1.425 . S
C808 C815 1.409 . S
C809 H801 0.930 . S
C809 C807 1.419 . S
C809 C810 1.362 . S
C810 H802 0.930 . S
C810 C809 1.362 . S
C810 C813 1.409 . S
C811 H803 0.930 . S
C811 C812 1.355 . S
C811 C813 1.415 . S
C812 C811 1.355 . S
C812 C814 1.419 . S
C813 C808 1.425 . S
C813 C810 1.409 . S
C813 C811 1.415 . S
C814 H804 0.930 . S
C814 C812 1.419 . S
C814 C815 1.362 . S
C815 H805 0.930 . S
C815 C808 1.409 . S
C815 C814 1.362 . S
C439 C3 1.355 . S
C444 C398 1.350 . S
C455 C218 1.453 . S
C460 C38 1.453 . S
C471 C74 1.354 . S
C476 C255 1.347 . S
C487 C290 1.337 . S
C492 C111 1.340 . S
C503 C326 1.513 . S
C508 C146 1.498 . S
C519 C363 1.354 . S
C524 C182 1.292 . S
C535 C112 1.242 . S
C540 C302 1.255 . S
C551 C158 1.397 . S
C556 C338 1.433 . S
C567 C194 1.305 . S
C572 C364 1.300 . S
C583 C410 1.300 . S
C588 C4 1.289 . S
C599 C50 1.438 . S
C604 C230 1.426 . S
C615 C86 1.258 . S
C620 C256 1.249 . S
C631 C291 1.588 . S
C636 C2 1.587 . S
C647 C327 1.564 . S
C652 C39 1.563 . S
C663 C75 1.588 . S
C668 C362 1.587 . S
C679 C110 1.575 . S
C684 C399 1.583 . S
C695 C147 1.577 . S
C700 C219 1.579 . S
C711 C254 1.557 . S
C716 C183 1.581 . S
C727 C14 1.427 . S
C732 C374 1.469 . S
C743 C400 1.535 . S
C748 C40 1.539 . S
C759 C76 1.535 . S
C764 C220 1.533 . S
C775 C122 1.422 . S
C780 C266 1.417 . S
C791 C148 1.536 . S
C796 C292 1.530 . S
C807 C184 1.532 . S
C812 C328 1.532 . S
