# Generated by pormake.
# Topology unp, (4)-cn, num edge types: 1
# Building blocks:
#     Node 0, Type 0, BuildingBlock: QUQFOY_clean_sbu_1, # of connection points: 4
#     Node 1, Type 0, BuildingBlock: QUQFOY_clean_sbu_1, # of connection points: 4
#     Node 2, Type 0, BuildingBlock: QUQFOY_clean_sbu_1, # of connection points: 4
#     Node 3, Type 0, BuildingBlock: QUQFOY_clean_sbu_1, # of connection points: 4
#     Node 4, Type 0, BuildingBlock: QUQFOY_clean_sbu_1, # of connection points: 4
#     Node 5, Type 0, BuildingBlock: QUQFOY_clean_sbu_1, # of connection points: 4
#     Node 6, Type 0, BuildingBlock: QUQFOY_clean_sbu_1, # of connection points: 4
#     Node 7, Type 0, BuildingBlock: QUQFOY_clean_sbu_1, # of connection points: 4
#     Node 8, Type 0, BuildingBlock: QUQFOY_clean_sbu_1, # of connection points: 4
#     Node 9, Type 0, BuildingBlock: QUQFOY_clean_sbu_1, # of connection points: 4
#     Node 10, Type 0, BuildingBlock: QUQFOY_clean_sbu_1, # of connection points: 4
#     Node 11, Type 0, BuildingBlock: QUQFOY_clean_sbu_1, # of connection points: 4
#     Node 12, Type 0, BuildingBlock: QUQFOY_clean_sbu_1, # of connection points: 4
#     Node 13, Type 0, BuildingBlock: QUQFOY_clean_sbu_1, # of connection points: 4
#     Node 14, Type 0, BuildingBlock: QUQFOY_clean_sbu_1, # of connection points: 4
#     Node 15, Type 0, BuildingBlock: QUQFOY_clean_sbu_1, # of connection points: 4
#     Node 16, Type 0, BuildingBlock: QUQFOY_clean_sbu_1, # of connection points: 4
#     Node 17, Type 0, BuildingBlock: QUQFOY_clean_sbu_1, # of connection points: 4
#     Edge 18, Type (0, 0), None
#     Edge 19, Type (0, 0), None
#     Edge 20, Type (0, 0), None
#     Edge 21, Type (0, 0), None
#     Edge 22, Type (0, 0), None
#     Edge 23, Type (0, 0), None
#     Edge 24, Type (0, 0), None
#     Edge 25, Type (0, 0), None
#     Edge 26, Type (0, 0), None
#     Edge 27, Type (0, 0), None
#     Edge 28, Type (0, 0), None
#     Edge 29, Type (0, 0), None
#     Edge 30, Type (0, 0), None
#     Edge 31, Type (0, 0), None
#     Edge 32, Type (0, 0), None
#     Edge 33, Type (0, 0), None
#     Edge 34, Type (0, 0), None
#     Edge 35, Type (0, 0), None
#     Edge 36, Type (0, 0), None
#     Edge 37, Type (0, 0), None
#     Edge 38, Type (0, 0), None
#     Edge 39, Type (0, 0), None
#     Edge 40, Type (0, 0), None
#     Edge 41, Type (0, 0), None
#     Edge 42, Type (0, 0), None
#     Edge 43, Type (0, 0), None
#     Edge 44, Type (0, 0), None
#     Edge 45, Type (0, 0), None
#     Edge 46, Type (0, 0), None
#     Edge 47, Type (0, 0), None
#     Edge 48, Type (0, 0), None
#     Edge 49, Type (0, 0), None
#     Edge 50, Type (0, 0), None
#     Edge 51, Type (0, 0), None
#     Edge 52, Type (0, 0), None
#     Edge 53, Type (0, 0), None
# Relax obj value: 0.339
# Max RMSD: 0.196
# Mean RMSD: 0.196
data_MOF--net-unp--node1-QUQFOY_clean_sbu_1--edge1-none
_symmetry_space_group_name_H-M    P1
_symmetry_Int_Tables_number       1
_symmetry_cell_setting            triclinic
loop_
_symmetry_equiv_pos_as_xyz
'x, y, z'
_cell_length_a     21.90662
_cell_length_b     21.906977
_cell_length_c     36.313664
_cell_angle_alpha  89.997855
_cell_angle_beta   90.003569
_cell_angle_gamma 120.00423
loop_
_atom_site_label
_atom_site_type_symbol
_atom_site_fract_x
_atom_site_fract_y
_atom_site_fract_z
_atom_type_partial_charge
O0 O 0.17192 0.07249 0.15808 0.0
Cd1 Cd 0.1989 0.17681 0.15767 0.0
Cd2 Cd 0.18594 0.16023 0.08146 0.0
O3 O 0.19107 0.07188 0.09849 0.0
O4 O 0.27857 0.23523 0.19151 0.0
O5 O 0.28681 0.24111 0.13031 0.0
C6 C 0.31695 0.25985 0.1622 0.0
C7 C 0.18921 0.17531 0.01688 0.0
C8 C 0.17386 0.0402 0.12949 0.0
C9 C 0.07409 0.17284 0.12831 0.0
O10 O 0.09816 0.16278 0.09862 0.0
O11 O 0.10993 0.18717 0.15783 0.0
O12 O 0.14172 0.12018 0.03315 0.0
O13 O 0.23933 0.22243 0.03674 0.0
O14 O 0.96474 0.10729 0.15794 0.0
Cd15 Cd 0.86042 0.02994 0.15757 0.0
Cd16 Cd 0.877 0.0334 0.08135 0.0
O17 O 0.96534 0.12695 0.09832 0.0
O18 O 0.80204 0.05122 0.19142 0.0
O19 O 0.79608 0.0535 0.13021 0.0
C20 C 0.77738 0.06493 0.1621 0.0
C21 C 0.86188 0.02135 0.01679 0.0
C22 C 0.997 0.14148 0.12933 0.0
C23 C 0.86445 0.90908 0.12831 0.0
O24 O 0.87451 0.94315 0.0986 0.0
O25 O 0.85007 0.93061 0.15781 0.0
O26 O 0.81476 0.02437 0.03661 0.0
O27 O 0.91704 0.02912 0.03308 0.0
O28 O 0.92987 0.86523 0.15805 0.0
Cd29 Cd 1.00724 0.83831 0.15777 0.0
Cd30 Cd 1.00398 0.85126 0.08152 0.0
O31 O 0.91051 0.84632 0.0984 0.0
O32 O 0.98593 0.75864 0.19163 0.0
O33 O 0.98377 0.75042 0.13042 0.0
C34 C 0.97228 0.72028 0.16232 0.0
C35 C 1.01606 0.84797 0.01696 0.0
C36 C 0.89584 0.86338 0.12939 0.0
C37 C 0.12823 0.96309 0.12847 0.0
O38 O 0.0943 0.939 0.09873 0.0
O39 O 0.10655 0.92733 0.15801 0.0
O40 O 1.00841 0.89549 0.03318 0.0
O41 O 1.01291 0.79783 0.03685 0.0
O42 O 0.08002 0.16434 0.83585 0.0
Cd43 Cd 0.18434 0.19132 0.83626 0.0
Cd44 Cd 0.16777 0.17836 0.91247 0.0
O45 O 0.07942 0.1835 0.89545 0.0
O46 O 0.24276 0.27099 0.80242 0.0
O47 O 0.24865 0.27923 0.86363 0.0
C48 C 0.26738 0.30937 0.83173 0.0
C49 C 0.18287 0.18164 0.97705 0.0
C50 C 0.04774 0.16629 0.86445 0.0
C51 C 0.18037 0.06652 0.86562 0.0
O52 O 0.17031 0.09058 0.89531 0.0
O53 O 0.1947 0.10235 0.8361 0.0
O54 O 0.12774 0.13416 0.96078 0.0
O55 O 0.22998 0.23176 0.95719 0.0
O56 O 0.87277 0.9223 0.83589 0.0
Cd57 Cd 0.84584 0.99966 0.83618 0.0
Cd58 Cd 0.85881 0.99641 0.91242 0.0
O59 O 0.85389 0.90295 0.89553 0.0
O60 O 0.76617 0.97834 0.80231 0.0
O61 O 0.75794 0.97618 0.86352 0.0
C62 C 0.72781 0.96469 0.83162 0.0
C63 C 0.85554 1.0085 0.97697 0.0
C64 C 0.87097 0.88828 0.86455 0.0
C65 C 0.97063 0.12066 0.86547 0.0
O66 O 0.94654 0.08674 0.89521 0.0
O67 O 0.93485 0.09897 0.83593 0.0
O68 O 0.90305 1.00085 0.96075 0.0
O69 O 0.80538 1.00533 0.95708 0.0
O70 O 0.11485 0.95717 0.83597 0.0
Cd71 Cd 0.03749 0.85286 0.83633 0.0
Cd72 Cd 0.04093 0.86938 0.91258 0.0
O73 O 0.13444 0.95776 0.89561 0.0
O74 O 0.05875 0.79447 0.80248 0.0
O75 O 0.06103 0.7885 0.86369 0.0
C76 C 0.07246 0.7698 0.83179 0.0
C77 C 0.0289 0.8543 0.97715 0.0
C78 C 0.149 0.98942 0.8646 0.0
C79 C 0.9166 0.85681 0.86562 0.0
O80 O 0.95063 0.86683 0.89533 0.0
O81 O 0.93817 0.84253 0.8361 0.0
O82 O 0.03195 0.80718 0.95733 0.0
O83 O 0.03663 0.90944 0.96085 0.0
O84 O 0.83843 0.40527 0.49133 0.0
Cd85 Cd 0.86541 0.50958 0.49102 0.0
Cd86 Cd 0.8524 0.49325 0.4148 0.0
O87 O 0.85743 0.40479 0.43171 0.0
O88 O 0.94505 0.5679 0.5249 0.0
O89 O 0.95333 0.57398 0.46369 0.0
C90 C 0.98345 0.59261 0.4956 0.0
C91 C 0.85563 0.50856 0.35024 0.0
C92 C 0.84029 0.37304 0.46269 0.0
C93 C 0.74058 0.50571 0.46174 0.0
O94 O 0.76464 0.49578 0.43202 0.0
O95 O 0.77642 0.51992 0.49126 0.0
O96 O 0.80815 0.45339 0.36648 0.0
O97 O 0.90578 0.55559 0.37012 0.0
O98 O 0.63123 0.44009 0.49138 0.0
Cd99 Cd 0.52692 0.36274 0.49099 0.0
Cd100 Cd 0.54346 0.36634 0.41477 0.0
O101 O 0.63182 0.45984 0.43177 0.0
O102 O 0.46851 0.38398 0.52484 0.0
O103 O 0.46259 0.38632 0.46364 0.0
C104 C 0.44387 0.39772 0.49554 0.0
C105 C 0.5283 0.35446 0.35019 0.0
C106 C 0.66348 0.47432 0.46278 0.0
C107 C 0.5309 0.24191 0.46163 0.0
O108 O 0.54094 0.27603 0.43194 0.0
O109 O 0.51656 0.26341 0.49115 0.0
O110 O 0.58345 0.36215 0.36645 0.0
O111 O 0.4812 0.35746 0.37006 0.0
O112 O 0.59638 0.19805 0.49129 0.0
Cd113 Cd 0.67374 0.1711 0.49093 0.0
Cd114 Cd 0.67033 0.18417 0.41469 0.0
O115 O 0.57685 0.17912 0.43165 0.0
O116 O 0.65247 0.09147 0.5248 0.0
O117 O 0.65019 0.08319 0.46359 0.0
C118 C 0.63876 0.05308 0.4955 0.0
C119 C 0.68233 0.18108 0.35011 0.0
C120 C 0.56227 0.19619 0.46265 0.0
C121 C 0.79466 0.29593 0.46164 0.0
O122 O 0.76065 0.27191 0.43191 0.0
O123 O 0.77306 0.2601 0.49116 0.0
O124 O 0.67466 0.22852 0.3664 0.0
O125 O 0.67925 0.1309 0.36995 0.0
O126 O 0.74634 0.49806 0.16928 0.0
Cd127 Cd 0.85066 0.52505 0.16965 0.0
Cd128 Cd 0.83412 0.51193 0.24586 0.0
O129 O 0.74575 0.5171 0.22889 0.0
O130 O 0.90905 0.60473 0.13581 0.0
O131 O 0.91499 0.61294 0.19703 0.0
C132 C 0.93369 0.64309 0.16513 0.0
C133 C 0.84926 0.51503 0.31043 0.0
C134 C 0.71406 0.49995 0.19789 0.0
C135 C 0.84666 0.40016 0.19891 0.0
O136 O 0.83661 0.42416 0.22862 0.0
O137 O 0.86101 0.43607 0.16941 0.0
O138 O 0.7941 0.46761 0.29414 0.0
O139 O 0.89637 0.56518 0.29059 0.0
O140 O 0.53912 0.25605 0.16918 0.0
Cd141 Cd 0.51217 0.3334 0.16956 0.0
Cd142 Cd 0.52514 0.32989 0.24579 0.0
O143 O 0.52012 0.23644 0.22879 0.0
O144 O 0.43251 0.31216 0.13571 0.0
O145 O 0.42428 0.30985 0.19692 0.0
C146 C 0.39414 0.29843 0.16502 0.0
C147 C 0.52192 0.34175 0.31037 0.0
C148 C 0.53725 0.2219 0.19779 0.0
C149 C 0.63696 0.4543 0.19891 0.0
O150 O 0.61289 0.42026 0.22862 0.0
O151 O 0.60117 0.43272 0.16938 0.0
O152 O 0.56941 0.33414 0.29409 0.0
O153 O 0.47177 0.33868 0.29052 0.0
O154 O 0.78118 0.29088 0.16918 0.0
Cd155 Cd 0.70381 0.18657 0.16948 0.0
Cd156 Cd 0.70717 0.20286 0.24574 0.0
O157 O 0.80066 0.29133 0.22882 0.0
O158 O 0.72511 0.12823 0.13561 0.0
O159 O 0.72731 0.12218 0.19682 0.0
C160 C 0.73879 0.10353 0.16492 0.0
C161 C 0.69514 0.18755 0.3103 0.0
C162 C 0.81527 0.32306 0.19783 0.0
C163 C 0.58288 0.19041 0.19881 0.0
O164 O 0.61686 0.2003 0.22853 0.0
O165 O 0.6045 0.17627 0.16927 0.0
O166 O 0.70282 0.24272 0.29406 0.0
O167 O 0.69824 0.14052 0.29041 0.0
O168 O 0.50559 0.73875 0.82464 0.0
Cd169 Cd 0.53257 0.84307 0.82428 0.0
Cd170 Cd 0.51944 0.82656 0.74807 0.0
O171 O 0.52455 0.73816 0.76502 0.0
O172 O 0.61225 0.90144 0.85812 0.0
O173 O 0.62046 0.90741 0.79691 0.0
C174 C 0.65061 0.9261 0.82881 0.0
C175 C 0.52254 0.84171 0.6835 0.0
C176 C 0.50743 0.70647 0.79602 0.0
C177 C 0.40768 0.8391 0.79503 0.0
O178 O 0.43169 0.82908 0.76531 0.0
O179 O 0.44358 0.85341 0.82453 0.0
O180 O 0.47511 0.78657 0.69978 0.0
O181 O 0.57271 0.88881 0.70334 0.0
O182 O 0.29839 0.77356 0.82473 0.0
Cd183 Cd 0.19408 0.69621 0.82442 0.0
Cd184 Cd 0.21044 0.69961 0.74818 0.0
O185 O 0.29886 0.79314 0.76511 0.0
O186 O 0.13573 0.71751 0.85828 0.0
O187 O 0.1297 0.71973 0.79707 0.0
C188 C 0.11105 0.7312 0.82897 0.0
C189 C 0.19513 0.68758 0.68362 0.0
C190 C 0.33058 0.80771 0.7961 0.0
C191 C 0.19799 0.5753 0.79511 0.0
O192 O 0.20795 0.60934 0.7654 0.0
O193 O 0.18374 0.59688 0.82463 0.0
O194 O 0.25031 0.69529 0.69985 0.0
O195 O 0.14808 0.69064 0.70351 0.0
O196 O 0.26356 0.53152 0.82475 0.0
Cd197 Cd 0.34092 0.50458 0.82438 0.0
Cd198 Cd 0.33737 0.51753 0.74813 0.0
O199 O 0.24391 0.51247 0.76512 0.0
O200 O 0.31969 0.42493 0.85822 0.0
O201 O 0.31737 0.41669 0.79701 0.0
C202 C 0.30596 0.38656 0.82891 0.0
C203 C 0.34924 0.5143 0.68355 0.0
C204 C 0.22938 0.5296 0.79613 0.0
C205 C 0.46178 0.62936 0.795 0.0
O206 O 0.42772 0.60529 0.7653 0.0
O207 O 0.44023 0.59358 0.82454 0.0
O208 O 0.3416 0.56177 0.69983 0.0
O209 O 0.3462 0.46416 0.70341 0.0
O210 O 0.41283 0.83087 0.50259 0.0
Cd211 Cd 0.51715 0.85785 0.50291 0.0
Cd212 Cd 0.50079 0.84486 0.57913 0.0
O213 O 0.41235 0.84994 0.56221 0.0
O214 O 0.57547 0.93749 0.46903 0.0
O215 O 0.58154 0.94578 0.53024 0.0
C216 C 0.60017 0.97588 0.49833 0.0
C217 C 0.51608 0.8481 0.64369 0.0
C218 C 0.38061 0.83277 0.53122 0.0
C219 C 0.51324 0.73302 0.5322 0.0
O220 O 0.50328 0.75709 0.56191 0.0
O221 O 0.52749 0.76887 0.50268 0.0
O222 O 0.4609 0.80063 0.62745 0.0
O223 O 0.56313 0.89823 0.62381 0.0
O224 O 0.20563 0.58884 0.50263 0.0
Cd225 Cd 0.17867 0.66618 0.50299 0.0
Cd226 Cd 0.19175 0.66279 0.57923 0.0
O227 O 0.18671 0.56932 0.56226 0.0
O228 O 0.09902 0.64491 0.46913 0.0
O229 O 0.09076 0.64263 0.53034 0.0
C230 C 0.06064 0.6312 0.49843 0.0
C231 C 0.18866 0.67478 0.6438 0.0
C232 C 0.2038 0.55473 0.53126 0.0
C233 C 0.3035 0.78712 0.53228 0.0
O234 O 0.27948 0.75312 0.562 0.0
O235 O 0.26766 0.76551 0.50276 0.0
O236 O 0.23611 0.66712 0.62751 0.0
O237 O 0.13847 0.67168 0.62397 0.0
O238 O 0.44768 0.62368 0.50254 0.0
Cd239 Cd 0.37032 0.51937 0.50291 0.0
Cd240 Cd 0.37384 0.53583 0.57916 0.0
O241 O 0.46731 0.62426 0.56217 0.0
O242 O 0.39156 0.46098 0.46905 0.0
O243 O 0.39387 0.45503 0.53026 0.0
C244 C 0.40529 0.43633 0.49836 0.0
C245 C 0.36196 0.52067 0.64373 0.0
C246 C 0.48185 0.65592 0.53116 0.0
C247 C 0.24944 0.52327 0.53228 0.0
O248 O 0.28349 0.53323 0.56198 0.0
O249 O 0.271 0.50905 0.50274 0.0
O250 O 0.3696 0.5758 0.62747 0.0
O251 O 0.36501 0.47359 0.62386 0.0
loop_
_geom_bond_atom_site_label_1
_geom_bond_atom_site_label_2
_geom_bond_distance
_geom_bond_site_symmetry_2
_ccdc_geom_bond_type
O0 Cd1 2.223 . S
O0 C8 1.315 . S
Cd1 O0 2.223 . S
Cd1 O4 2.297 . S
Cd1 O5 2.439 . S
Cd1 O11 2.240 . S
Cd2 O3 2.240 . S
Cd2 O10 2.223 . S
Cd2 O12 2.297 . S
Cd2 O13 2.439 . S
O3 Cd2 2.240 . S
O3 C8 1.279 . S
O4 Cd1 2.297 . S
O4 C6 1.247 . S
O5 Cd1 2.439 . S
O5 C6 1.208 . S
C6 O4 1.247 . S
C6 O5 1.208 . S
C7 O12 1.247 . S
C7 O13 1.208 . S
C8 O0 1.315 . S
C8 O3 1.279 . S
C9 O10 1.315 . S
C9 O11 1.279 . S
O10 Cd2 2.223 . S
O10 C9 1.315 . S
O11 Cd1 2.240 . S
O11 C9 1.279 . S
O12 Cd2 2.297 . S
O12 C7 1.247 . S
O13 Cd2 2.439 . S
O13 C7 1.208 . S
O14 Cd15 2.223 1_545 S
O14 C22 1.315 . S
Cd15 O14 2.223 1_565 S
Cd15 O18 2.297 1_565 S
Cd15 O19 2.439 1_565 S
Cd15 O25 2.240 . S
Cd16 O17 2.240 . S
Cd16 O24 2.223 1_545 S
Cd16 O26 2.297 1_545 S
Cd16 O27 2.439 1_545 S
O17 Cd16 2.240 . S
O17 C22 1.279 . S
O18 Cd15 2.297 1_545 S
O18 C20 1.247 . S
O19 Cd15 2.439 1_545 S
O19 C20 1.208 . S
C20 O18 1.247 . S
C20 O19 1.208 . S
C21 O26 1.247 . S
C21 O27 1.208 . S
C22 O14 1.315 . S
C22 O17 1.279 . S
C23 O24 1.315 . S
C23 O25 1.279 . S
O24 Cd16 2.223 1_565 S
O24 C23 1.315 . S
O25 Cd15 2.240 . S
O25 C23 1.279 . S
O26 Cd16 2.297 1_565 S
O26 C21 1.247 . S
O27 Cd16 2.439 1_565 S
O27 C21 1.208 . S
O28 Cd29 2.223 1_655 S
O28 C36 1.315 . S
Cd29 O28 2.223 1_455 S
Cd29 O32 2.297 1_455 S
Cd29 O33 2.439 1_455 S
Cd29 O39 2.240 . S
Cd30 O31 2.240 . S
Cd30 O38 2.223 1_655 S
Cd30 O40 2.297 1_655 S
Cd30 O41 2.439 1_655 S
O31 Cd30 2.240 . S
O31 C36 1.279 . S
O32 Cd29 2.297 1_655 S
O32 C34 1.247 . S
O33 Cd29 2.439 1_655 S
O33 C34 1.208 . S
C34 O32 1.247 . S
C34 O33 1.208 . S
C35 O40 1.247 . S
C35 O41 1.208 . S
C36 O28 1.315 . S
C36 O31 1.279 . S
C37 O38 1.315 . S
C37 O39 1.279 . S
O38 Cd30 2.223 1_455 S
O38 C37 1.315 . S
O39 Cd29 2.240 . S
O39 C37 1.279 . S
O40 Cd30 2.297 1_455 S
O40 C35 1.247 . S
O41 Cd30 2.439 1_455 S
O41 C35 1.208 . S
O42 Cd43 2.223 . S
O42 C50 1.315 . S
Cd43 O42 2.223 . S
Cd43 O46 2.297 . S
Cd43 O47 2.439 . S
Cd43 O53 2.240 . S
Cd44 O45 2.240 . S
Cd44 O52 2.223 . S
Cd44 O54 2.297 . S
Cd44 O55 2.439 . S
O45 Cd44 2.240 . S
O45 C50 1.279 . S
O46 Cd43 2.297 . S
O46 C48 1.247 . S
O47 Cd43 2.439 . S
O47 C48 1.208 . S
C48 O46 1.247 . S
C48 O47 1.208 . S
C49 O54 1.247 . S
C49 O55 1.208 . S
C50 O42 1.315 . S
C50 O45 1.279 . S
C51 O52 1.315 . S
C51 O53 1.279 . S
O52 Cd44 2.223 . S
O52 C51 1.315 . S
O53 Cd43 2.240 . S
O53 C51 1.279 . S
O54 Cd44 2.297 . S
O54 C49 1.247 . S
O55 Cd44 2.439 . S
O55 C49 1.208 . S
O56 Cd57 2.223 1_565 S
O56 C64 1.315 . S
Cd57 O56 2.223 1_545 S
Cd57 O60 2.297 1_545 S
Cd57 O61 2.439 1_545 S
Cd57 O67 2.240 . S
Cd58 O59 2.240 . S
Cd58 O66 2.223 1_565 S
Cd58 O68 2.297 1_565 S
Cd58 O69 2.439 1_565 S
O59 Cd58 2.240 . S
O59 C64 1.279 . S
O60 Cd57 2.297 1_565 S
O60 C62 1.247 . S
O61 Cd57 2.439 1_565 S
O61 C62 1.208 . S
C62 O60 1.247 . S
C62 O61 1.208 . S
C63 O68 1.247 . S
C63 O69 1.208 . S
C64 O56 1.315 . S
C64 O59 1.279 . S
C65 O66 1.315 . S
C65 O67 1.279 . S
O66 Cd58 2.223 1_545 S
O66 C65 1.315 . S
O67 Cd57 2.240 . S
O67 C65 1.279 . S
O68 Cd58 2.297 1_545 S
O68 C63 1.247 . S
O69 Cd58 2.439 1_545 S
O69 C63 1.208 . S
O70 Cd71 2.223 1_455 S
O70 C78 1.315 . S
Cd71 O70 2.223 1_655 S
Cd71 O74 2.297 1_655 S
Cd71 O75 2.439 1_655 S
Cd71 O81 2.240 . S
Cd72 O73 2.240 . S
Cd72 O80 2.223 1_455 S
Cd72 O82 2.297 1_455 S
Cd72 O83 2.439 1_455 S
O73 Cd72 2.240 . S
O73 C78 1.279 . S
O74 Cd71 2.297 1_455 S
O74 C76 1.247 . S
O75 Cd71 2.439 1_455 S
O75 C76 1.208 . S
C76 O74 1.247 . S
C76 O75 1.208 . S
C77 O82 1.247 . S
C77 O83 1.208 . S
C78 O70 1.315 . S
C78 O73 1.279 . S
C79 O80 1.315 . S
C79 O81 1.279 . S
O80 Cd72 2.223 1_655 S
O80 C79 1.315 . S
O81 Cd71 2.240 . S
O81 C79 1.279 . S
O82 Cd72 2.297 1_655 S
O82 C77 1.247 . S
O83 Cd72 2.439 1_655 S
O83 C77 1.208 . S
O84 Cd85 2.223 . S
O84 C92 1.315 . S
Cd85 O84 2.223 . S
Cd85 O88 2.297 . S
Cd85 O89 2.439 . S
Cd85 O95 2.240 . S
Cd86 O87 2.240 . S
Cd86 O94 2.223 . S
Cd86 O96 2.297 . S
Cd86 O97 2.439 . S
O87 Cd86 2.240 . S
O87 C92 1.279 . S
O88 Cd85 2.297 . S
O88 C90 1.247 . S
O89 Cd85 2.439 . S
O89 C90 1.208 . S
C90 O88 1.247 . S
C90 O89 1.208 . S
C91 O96 1.247 . S
C91 O97 1.208 . S
C92 O84 1.315 . S
C92 O87 1.279 . S
C93 O94 1.315 . S
C93 O95 1.279 . S
O94 Cd86 2.223 . S
O94 C93 1.315 . S
O95 Cd85 2.240 . S
O95 C93 1.279 . S
O96 Cd86 2.297 . S
O96 C91 1.247 . S
O97 Cd86 2.439 . S
O97 C91 1.208 . S
O98 Cd99 2.223 . S
O98 C106 1.315 . S
Cd99 O98 2.223 . S
Cd99 O102 2.297 . S
Cd99 O103 2.439 . S
Cd99 O109 2.240 . S
Cd100 O101 2.240 . S
Cd100 O108 2.223 . S
Cd100 O110 2.297 . S
Cd100 O111 2.439 . S
O101 Cd100 2.240 . S
O101 C106 1.279 . S
O102 Cd99 2.297 . S
O102 C104 1.247 . S
O103 Cd99 2.439 . S
O103 C104 1.208 . S
C104 O102 1.247 . S
C104 O103 1.208 . S
C105 O110 1.247 . S
C105 O111 1.208 . S
C106 O98 1.315 . S
C106 O101 1.279 . S
C107 O108 1.315 . S
C107 O109 1.279 . S
O108 Cd100 2.223 . S
O108 C107 1.315 . S
O109 Cd99 2.240 . S
O109 C107 1.279 . S
O110 Cd100 2.297 . S
O110 C105 1.247 . S
O111 Cd100 2.439 . S
O111 C105 1.208 . S
O112 Cd113 2.223 . S
O112 C120 1.315 . S
Cd113 O112 2.223 . S
Cd113 O116 2.297 . S
Cd113 O117 2.439 . S
Cd113 O123 2.240 . S
Cd114 O115 2.240 . S
Cd114 O122 2.223 . S
Cd114 O124 2.297 . S
Cd114 O125 2.439 . S
O115 Cd114 2.240 . S
O115 C120 1.279 . S
O116 Cd113 2.297 . S
O116 C118 1.247 . S
O117 Cd113 2.439 . S
O117 C118 1.208 . S
C118 O116 1.247 . S
C118 O117 1.208 . S
C119 O124 1.247 . S
C119 O125 1.208 . S
C120 O112 1.315 . S
C120 O115 1.279 . S
C121 O122 1.315 . S
C121 O123 1.279 . S
O122 Cd114 2.223 . S
O122 C121 1.315 . S
O123 Cd113 2.240 . S
O123 C121 1.279 . S
O124 Cd114 2.297 . S
O124 C119 1.247 . S
O125 Cd114 2.439 . S
O125 C119 1.208 . S
O126 Cd127 2.223 . S
O126 C134 1.315 . S
Cd127 O126 2.223 . S
Cd127 O130 2.297 . S
Cd127 O131 2.439 . S
Cd127 O137 2.240 . S
Cd128 O129 2.240 . S
Cd128 O136 2.223 . S
Cd128 O138 2.297 . S
Cd128 O139 2.439 . S
O129 Cd128 2.240 . S
O129 C134 1.279 . S
O130 Cd127 2.297 . S
O130 C132 1.247 . S
O131 Cd127 2.439 . S
O131 C132 1.208 . S
C132 O130 1.247 . S
C132 O131 1.208 . S
C133 O138 1.247 . S
C133 O139 1.208 . S
C134 O126 1.315 . S
C134 O129 1.279 . S
C135 O136 1.315 . S
C135 O137 1.279 . S
O136 Cd128 2.223 . S
O136 C135 1.315 . S
O137 Cd127 2.240 . S
O137 C135 1.279 . S
O138 Cd128 2.297 . S
O138 C133 1.247 . S
O139 Cd128 2.439 . S
O139 C133 1.208 . S
O140 Cd141 2.223 . S
O140 C148 1.315 . S
Cd141 O140 2.223 . S
Cd141 O144 2.297 . S
Cd141 O145 2.439 . S
Cd141 O151 2.240 . S
Cd142 O143 2.240 . S
Cd142 O150 2.223 . S
Cd142 O152 2.297 . S
Cd142 O153 2.439 . S
O143 Cd142 2.240 . S
O143 C148 1.279 . S
O144 Cd141 2.297 . S
O144 C146 1.247 . S
O145 Cd141 2.439 . S
O145 C146 1.208 . S
C146 O144 1.247 . S
C146 O145 1.208 . S
C147 O152 1.247 . S
C147 O153 1.208 . S
C148 O140 1.315 . S
C148 O143 1.279 . S
C149 O150 1.315 . S
C149 O151 1.279 . S
O150 Cd142 2.223 . S
O150 C149 1.315 . S
O151 Cd141 2.240 . S
O151 C149 1.279 . S
O152 Cd142 2.297 . S
O152 C147 1.247 . S
O153 Cd142 2.439 . S
O153 C147 1.208 . S
O154 Cd155 2.223 . S
O154 C162 1.315 . S
Cd155 O154 2.223 . S
Cd155 O158 2.297 . S
Cd155 O159 2.439 . S
Cd155 O165 2.240 . S
Cd156 O157 2.240 . S
Cd156 O164 2.223 . S
Cd156 O166 2.297 . S
Cd156 O167 2.439 . S
O157 Cd156 2.240 . S
O157 C162 1.279 . S
O158 Cd155 2.297 . S
O158 C160 1.247 . S
O159 Cd155 2.439 . S
O159 C160 1.208 . S
C160 O158 1.247 . S
C160 O159 1.208 . S
C161 O166 1.247 . S
C161 O167 1.208 . S
C162 O154 1.315 . S
C162 O157 1.279 . S
C163 O164 1.315 . S
C163 O165 1.279 . S
O164 Cd156 2.223 . S
O164 C163 1.315 . S
O165 Cd155 2.240 . S
O165 C163 1.279 . S
O166 Cd156 2.297 . S
O166 C161 1.247 . S
O167 Cd156 2.439 . S
O167 C161 1.208 . S
O168 Cd169 2.223 . S
O168 C176 1.315 . S
Cd169 O168 2.223 . S
Cd169 O172 2.297 . S
Cd169 O173 2.439 . S
Cd169 O179 2.240 . S
Cd170 O171 2.240 . S
Cd170 O178 2.223 . S
Cd170 O180 2.297 . S
Cd170 O181 2.439 . S
O171 Cd170 2.240 . S
O171 C176 1.279 . S
O172 Cd169 2.297 . S
O172 C174 1.247 . S
O173 Cd169 2.439 . S
O173 C174 1.208 . S
C174 O172 1.247 . S
C174 O173 1.208 . S
C175 O180 1.247 . S
C175 O181 1.208 . S
C176 O168 1.315 . S
C176 O171 1.279 . S
C177 O178 1.315 . S
C177 O179 1.279 . S
O178 Cd170 2.223 . S
O178 C177 1.315 . S
O179 Cd169 2.240 . S
O179 C177 1.279 . S
O180 Cd170 2.297 . S
O180 C175 1.247 . S
O181 Cd170 2.439 . S
O181 C175 1.208 . S
O182 Cd183 2.223 . S
O182 C190 1.315 . S
Cd183 O182 2.223 . S
Cd183 O186 2.297 . S
Cd183 O187 2.439 . S
Cd183 O193 2.240 . S
Cd184 O185 2.240 . S
Cd184 O192 2.223 . S
Cd184 O194 2.297 . S
Cd184 O195 2.439 . S
O185 Cd184 2.240 . S
O185 C190 1.279 . S
O186 Cd183 2.297 . S
O186 C188 1.247 . S
O187 Cd183 2.439 . S
O187 C188 1.208 . S
C188 O186 1.247 . S
C188 O187 1.208 . S
C189 O194 1.247 . S
C189 O195 1.208 . S
C190 O182 1.315 . S
C190 O185 1.279 . S
C191 O192 1.315 . S
C191 O193 1.279 . S
O192 Cd184 2.223 . S
O192 C191 1.315 . S
O193 Cd183 2.240 . S
O193 C191 1.279 . S
O194 Cd184 2.297 . S
O194 C189 1.247 . S
O195 Cd184 2.439 . S
O195 C189 1.208 . S
O196 Cd197 2.223 . S
O196 C204 1.315 . S
Cd197 O196 2.223 . S
Cd197 O200 2.297 . S
Cd197 O201 2.439 . S
Cd197 O207 2.240 . S
Cd198 O199 2.240 . S
Cd198 O206 2.223 . S
Cd198 O208 2.297 . S
Cd198 O209 2.439 . S
O199 Cd198 2.240 . S
O199 C204 1.279 . S
O200 Cd197 2.297 . S
O200 C202 1.247 . S
O201 Cd197 2.439 . S
O201 C202 1.208 . S
C202 O200 1.247 . S
C202 O201 1.208 . S
C203 O208 1.247 . S
C203 O209 1.208 . S
C204 O196 1.315 . S
C204 O199 1.279 . S
C205 O206 1.315 . S
C205 O207 1.279 . S
O206 Cd198 2.223 . S
O206 C205 1.315 . S
O207 Cd197 2.240 . S
O207 C205 1.279 . S
O208 Cd198 2.297 . S
O208 C203 1.247 . S
O209 Cd198 2.439 . S
O209 C203 1.208 . S
O210 Cd211 2.223 . S
O210 C218 1.315 . S
Cd211 O210 2.223 . S
Cd211 O214 2.297 . S
Cd211 O215 2.439 . S
Cd211 O221 2.240 . S
Cd212 O213 2.240 . S
Cd212 O220 2.223 . S
Cd212 O222 2.297 . S
Cd212 O223 2.439 . S
O213 Cd212 2.240 . S
O213 C218 1.279 . S
O214 Cd211 2.297 . S
O214 C216 1.247 . S
O215 Cd211 2.439 . S
O215 C216 1.208 . S
C216 O214 1.247 . S
C216 O215 1.208 . S
C217 O222 1.247 . S
C217 O223 1.208 . S
C218 O210 1.315 . S
C218 O213 1.279 . S
C219 O220 1.315 . S
C219 O221 1.279 . S
O220 Cd212 2.223 . S
O220 C219 1.315 . S
O221 Cd211 2.240 . S
O221 C219 1.279 . S
O222 Cd212 2.297 . S
O222 C217 1.247 . S
O223 Cd212 2.439 . S
O223 C217 1.208 . S
O224 Cd225 2.223 . S
O224 C232 1.315 . S
Cd225 O224 2.223 . S
Cd225 O228 2.297 . S
Cd225 O229 2.439 . S
Cd225 O235 2.240 . S
Cd226 O227 2.240 . S
Cd226 O234 2.223 . S
Cd226 O236 2.297 . S
Cd226 O237 2.439 . S
O227 Cd226 2.240 . S
O227 C232 1.279 . S
O228 Cd225 2.297 . S
O228 C230 1.247 . S
O229 Cd225 2.439 . S
O229 C230 1.208 . S
C230 O228 1.247 . S
C230 O229 1.208 . S
C231 O236 1.247 . S
C231 O237 1.208 . S
C232 O224 1.315 . S
C232 O227 1.279 . S
C233 O234 1.315 . S
C233 O235 1.279 . S
O234 Cd226 2.223 . S
O234 C233 1.315 . S
O235 Cd225 2.240 . S
O235 C233 1.279 . S
O236 Cd226 2.297 . S
O236 C231 1.247 . S
O237 Cd226 2.439 . S
O237 C231 1.208 . S
O238 Cd239 2.223 . S
O238 C246 1.315 . S
Cd239 O238 2.223 . S
Cd239 O242 2.297 . S
Cd239 O243 2.439 . S
Cd239 O249 2.240 . S
Cd240 O241 2.240 . S
Cd240 O248 2.223 . S
Cd240 O250 2.297 . S
Cd240 O251 2.439 . S
O241 Cd240 2.240 . S
O241 C246 1.279 . S
O242 Cd239 2.297 . S
O242 C244 1.247 . S
O243 Cd239 2.439 . S
O243 C244 1.208 . S
C244 O242 1.247 . S
C244 O243 1.208 . S
C245 O250 1.247 . S
C245 O251 1.208 . S
C246 O238 1.315 . S
C246 O241 1.279 . S
C247 O248 1.315 . S
C247 O249 1.279 . S
O248 Cd240 2.223 . S
O248 C247 1.315 . S
O249 Cd239 2.240 . S
O249 C247 1.279 . S
O250 Cd240 2.297 . S
O250 C245 1.247 . S
O251 Cd240 2.439 . S
O251 C245 1.208 . S
C146 C6 1.657 . S
C20 C160 1.651 . S
C132 C34 1.657 . S
C202 C48 1.657 . S
C62 C174 1.657 . S
C188 C76 1.651 . S
C90 C230 1.660 1_655 S
C244 C104 1.664 . S
C118 C216 1.659 1_545 S
C9 C22 1.967 1_455 S
C23 C36 1.966 . S
C8 C37 1.973 1_545 S
C78 C51 1.967 1_565 S
C50 C65 1.972 1_455 S
C79 C64 1.966 . S
C93 C106 1.973 . S
C107 C120 1.971 . S
C92 C121 1.974 . S
C162 C135 1.975 . S
C134 C149 1.970 . S
C148 C163 1.970 . S
C190 C177 1.975 . S
C204 C191 1.970 . S
C176 C205 1.970 . S
C219 C246 1.973 . S
C233 C218 1.973 . S
C247 C232 1.971 . S
C7 C49 2.139 1_554 S
C63 C21 2.124 1_546 S
C77 C35 2.123 1_656 S
C133 C91 2.140 . S
C147 C105 2.137 . S
C119 C161 2.140 . S
C217 C175 2.140 . S
C231 C189 2.140 . S
C245 C203 2.138 . S
