# Generated by pormake.
# Topology bcu-f, (3)-cn, num edge types: 1
# Building blocks:
#     Node 0, Type 0, BuildingBlock: WUSLED_clean_sbu_0, # of connection points: 3
#     Node 1, Type 0, BuildingBlock: WUSLED_clean_sbu_0, # of connection points: 3
#     Node 2, Type 0, BuildingBlock: WUSLED_clean_sbu_0, # of connection points: 3
#     Node 3, Type 0, BuildingBlock: WUSLED_clean_sbu_0, # of connection points: 3
#     Node 4, Type 0, BuildingBlock: WUSLED_clean_sbu_0, # of connection points: 3
#     Node 5, Type 0, BuildingBlock: WUSLED_clean_sbu_0, # of connection points: 3
#     Node 6, Type 0, BuildingBlock: WUSLED_clean_sbu_0, # of connection points: 3
#     Node 7, Type 0, BuildingBlock: WUSLED_clean_sbu_0, # of connection points: 3
#     Node 8, Type 0, BuildingBlock: WUSLED_clean_sbu_0, # of connection points: 3
#     Node 9, Type 0, BuildingBlock: WUSLED_clean_sbu_0, # of connection points: 3
#     Node 10, Type 0, BuildingBlock: WUSLED_clean_sbu_0, # of connection points: 3
#     Node 11, Type 0, BuildingBlock: WUSLED_clean_sbu_0, # of connection points: 3
#     Node 12, Type 0, BuildingBlock: WUSLED_clean_sbu_0, # of connection points: 3
#     Node 13, Type 0, BuildingBlock: WUSLED_clean_sbu_0, # of connection points: 3
#     Node 14, Type 0, BuildingBlock: WUSLED_clean_sbu_0, # of connection points: 3
#     Node 15, Type 0, BuildingBlock: WUSLED_clean_sbu_0, # of connection points: 3
#     Edge 16, Type (0, 0), BuildingBlock: XUDNAN_clean_linker_2, # of connection points: 2
#     Edge 17, Type (0, 0), BuildingBlock: XUDNAN_clean_linker_2, # of connection points: 2
#     Edge 18, Type (0, 0), BuildingBlock: XUDNAN_clean_linker_2, # of connection points: 2
#     Edge 19, Type (0, 0), BuildingBlock: XUDNAN_clean_linker_2, # of connection points: 2
#     Edge 20, Type (0, 0), BuildingBlock: XUDNAN_clean_linker_2, # of connection points: 2
#     Edge 21, Type (0, 0), BuildingBlock: XUDNAN_clean_linker_2, # of connection points: 2
#     Edge 22, Type (0, 0), BuildingBlock: XUDNAN_clean_linker_2, # of connection points: 2
#     Edge 23, Type (0, 0), BuildingBlock: XUDNAN_clean_linker_2, # of connection points: 2
#     Edge 24, Type (0, 0), BuildingBlock: XUDNAN_clean_linker_2, # of connection points: 2
#     Edge 25, Type (0, 0), BuildingBlock: XUDNAN_clean_linker_2, # of connection points: 2
#     Edge 26, Type (0, 0), BuildingBlock: XUDNAN_clean_linker_2, # of connection points: 2
#     Edge 27, Type (0, 0), BuildingBlock: XUDNAN_clean_linker_2, # of connection points: 2
#     Edge 28, Type (0, 0), BuildingBlock: XUDNAN_clean_linker_2, # of connection points: 2
#     Edge 29, Type (0, 0), BuildingBlock: XUDNAN_clean_linker_2, # of connection points: 2
#     Edge 30, Type (0, 0), BuildingBlock: XUDNAN_clean_linker_2, # of connection points: 2
#     Edge 31, Type (0, 0), BuildingBlock: XUDNAN_clean_linker_2, # of connection points: 2
#     Edge 32, Type (0, 0), BuildingBlock: XUDNAN_clean_linker_2, # of connection points: 2
#     Edge 33, Type (0, 0), BuildingBlock: XUDNAN_clean_linker_2, # of connection points: 2
#     Edge 34, Type (0, 0), BuildingBlock: XUDNAN_clean_linker_2, # of connection points: 2
#     Edge 35, Type (0, 0), BuildingBlock: XUDNAN_clean_linker_2, # of connection points: 2
#     Edge 36, Type (0, 0), BuildingBlock: XUDNAN_clean_linker_2, # of connection points: 2
#     Edge 37, Type (0, 0), BuildingBlock: XUDNAN_clean_linker_2, # of connection points: 2
#     Edge 38, Type (0, 0), BuildingBlock: XUDNAN_clean_linker_2, # of connection points: 2
#     Edge 39, Type (0, 0), BuildingBlock: XUDNAN_clean_linker_2, # of connection points: 2
# Relax obj value: 0.004
# Max RMSD: 0.006
# Mean RMSD: 0.006
data_MOF--net-bcu-f--node1-WUSLED_clean_sbu_0--edge1-XUDNAN_clean_linker_2
_symmetry_space_group_name_H-M    P1
_symmetry_Int_Tables_number       1
_symmetry_cell_setting            triclinic
loop_
_symmetry_equiv_pos_as_xyz
'x, y, z'
_cell_length_a     79.52055
_cell_length_b     80.121438
_cell_length_c     64.6122
_cell_angle_alpha  89.955442
_cell_angle_beta   89.84982
_cell_angle_gamma 90.141098
loop_
_atom_site_label
_atom_site_type_symbol
_atom_site_fract_x
_atom_site_fract_y
_atom_site_fract_z
_atom_type_partial_charge
C0 C 0.34735 0.14408 0.14933 0.0
C1 C 0.35337 0.15993 0.15536 0.0
C2 C 0.35541 0.15068 0.19154 0.0
C3 C 0.35726 0.16324 0.17635 0.0
C4 C 0.34875 0.13518 0.18537 0.0
C5 C 0.34483 0.13196 0.16469 0.0
U6 U 0.33332 0.1456 0.09004 0.0
O7 O 0.34624 0.13272 0.06423 0.0
O8 O 0.32088 0.12491 0.07338 0.0
C9 C 0.33388 0.12201 0.06135 0.0
C10 C 0.34488 0.13877 0.12741 0.0
C11 C 0.33815 0.10412 0.05725 0.0
C12 C 0.35678 0.07984 0.05895 0.0
C13 C 0.35289 0.09643 0.06455 0.0
C14 C 0.33129 0.07829 0.03883 0.0
C15 C 0.3461 0.07049 0.04579 0.0
C16 C 0.3274 0.09476 0.04449 0.0
C17 C 0.31136 0.18659 0.06784 0.0
C18 C 0.29591 0.19239 0.03595 0.0
C19 C 0.29944 0.21419 0.0614 0.0
C20 C 0.30857 0.20318 0.07392 0.0
C21 C 0.29274 0.20899 0.04231 0.0
C22 C 0.30507 0.18129 0.04862 0.0
C23 C 0.32007 0.17529 0.08265 0.0
O24 O 0.32947 0.13537 0.12143 0.0
O25 O 0.35414 0.14556 0.11274 0.0
O26 O 0.33601 0.17177 0.07937 0.0
O27 O 0.3115 0.16257 0.09005 0.0
H28 H 0.35549 0.16955 0.14386 0.0
H29 H 0.36238 0.17531 0.18053 0.0
H30 H 0.34695 0.12526 0.19657 0.0
H31 H 0.3403 0.11964 0.16056 0.0
H32 H 0.36819 0.07437 0.06498 0.0
H33 H 0.36147 0.10327 0.07441 0.0
H34 H 0.32282 0.0719 0.0284 0.0
H35 H 0.31603 0.10036 0.03845 0.0
H36 H 0.29093 0.18781 0.02145 0.0
H37 H 0.29766 0.22687 0.06676 0.0
H38 H 0.3133 0.20761 0.08864 0.0
H39 H 0.30699 0.16855 0.04356 0.0
C40 C 0.87003 0.34475 0.14656 0.0
C41 C 0.85592 0.34966 0.15823 0.0
C42 C 0.87298 0.35214 0.18946 0.0
C43 C 0.85738 0.3534 0.1794 0.0
C44 C 0.88725 0.34807 0.17751 0.0
C45 C 0.88582 0.34449 0.15628 0.0
U46 U 0.88316 0.33352 0.08958 0.0
O47 O 0.9009 0.35346 0.07977 0.0
O48 O 0.91045 0.33023 0.09312 0.0
C49 C 0.91427 0.34465 0.08459 0.0
C50 C 0.86753 0.33804 0.1253 0.0
C51 C 0.92876 0.34476 0.0699 0.0
C52 C 0.95574 0.35712 0.05969 0.0
C53 C 0.94044 0.35797 0.07064 0.0
C54 C 0.94755 0.33021 0.04612 0.0
C55 C 0.95978 0.34294 0.04783 0.0
C56 C 0.93226 0.33109 0.05701 0.0
C57 C 0.8524 0.30761 0.05449 0.0
C58 C 0.83782 0.28752 0.03236 0.0
C59 C 0.82314 0.29999 0.06123 0.0
C60 C 0.83766 0.30921 0.06632 0.0
C61 C 0.82301 0.28881 0.04427 0.0
C62 C 0.85225 0.29679 0.03739 0.0
C63 C 0.86817 0.31681 0.05948 0.0
O64 O 0.87605 0.32453 0.12055 0.0
O65 O 0.86672 0.34874 0.10989 0.0
O66 O 0.86716 0.3331 0.06166 0.0
O67 O 0.87815 0.30987 0.07316 0.0
H68 H 0.84358 0.34983 0.15117 0.0
H69 H 0.84613 0.35628 0.18817 0.0
H70 H 0.89946 0.34704 0.18479 0.0
H71 H 0.89692 0.34079 0.1477 0.0
H72 H 0.96478 0.36714 0.06148 0.0
H73 H 0.93809 0.36864 0.0805 0.0
H74 H 0.95004 0.31924 0.03683 0.0
H75 H 0.92349 0.32076 0.05602 0.0
H76 H 0.83851 0.27897 0.01942 0.0
H77 H 0.81201 0.30168 0.07066 0.0
H78 H 0.83739 0.31752 0.07953 0.0
H79 H 0.86345 0.29533 0.02799 0.0
C80 C 0.68249 0.88327 0.14718 0.0
C81 C 0.68657 0.86678 0.15247 0.0
C82 C 0.67746 0.87145 0.18842 0.0
C83 C 0.6841 0.86094 0.17284 0.0
C84 C 0.67343 0.88798 0.18288 0.0
C85 C 0.67593 0.89377 0.16259 0.0
U86 U 0.6976 0.88231 0.08926 0.0
O87 O 0.68533 0.89402 0.06215 0.0
O88 O 0.71024 0.9025 0.07195 0.0
C89 C 0.69769 0.90468 0.05904 0.0
C90 C 0.68502 0.89007 0.12596 0.0
C91 C 0.69323 0.92227 0.05391 0.0
C92 C 0.68671 0.95097 0.06388 0.0
C93 C 0.68873 0.934 0.06911 0.0
C94 C 0.69268 0.94461 0.02805 0.0
C95 C 0.68892 0.95651 0.04333 0.0
C96 C 0.69486 0.92773 0.0333 0.0
C97 C 0.72055 0.84177 0.06862 0.0
C98 C 0.74385 0.83784 0.04443 0.0
C99 C 0.73009 0.81369 0.05926 0.0
C100 C 0.71906 0.82429 0.0701 0.0
C101 C 0.74302 0.82036 0.04686 0.0
C102 C 0.73273 0.84842 0.05511 0.0
C103 C 0.71108 0.85249 0.08348 0.0
O104 O 0.70059 0.89325 0.12037 0.0
O105 O 0.6761 0.8834 0.11096 0.0
O106 O 0.6952 0.8558 0.07962 0.0
O107 O 0.71921 0.86533 0.09125 0.0
H108 H 0.69171 0.85843 0.1409 0.0
H109 H 0.68762 0.84822 0.17637 0.0
H110 H 0.66803 0.89644 0.19411 0.0
H111 H 0.67266 0.90655 0.1589 0.0
H112 H 0.68395 0.95988 0.07601 0.0
H113 H 0.68737 0.93015 0.08511 0.0
H114 H 0.69479 0.94852 1.0122 0.0
H115 H 0.69846 0.919 0.02129 0.0
H116 H 0.7536 0.84337 0.03488 0.0
H117 H 0.72918 0.80034 0.06165 0.0
H118 H 0.70989 0.8188 0.08052 0.0
H119 H 0.7342 0.8618 0.05359 0.0
C120 C 0.14717 0.67849 0.14918 0.0
C121 C 0.15932 0.68847 0.15914 0.0
C122 C 0.15757 0.67102 0.19032 0.0
C123 C 0.16443 0.6848 0.17958 0.0
C124 C 0.14532 0.66128 0.18023 0.0
C125 C 0.14024 0.66496 0.16002 0.0
U126 U 0.14843 0.69511 0.09166 0.0
O127 O 0.13724 0.68285 0.06423 0.0
O128 O 0.12782 0.70716 0.07448 0.0
C129 C 0.12629 0.69486 0.06116 0.0
C130 C 0.14073 0.68195 0.12799 0.0
C131 C 0.10894 0.6902 0.05459 0.0
C132 C 0.07984 0.68162 0.06149 0.0
C133 C 0.09664 0.68379 0.06819 0.0
C134 C 0.08768 0.69151 0.02745 0.0
C135 C 0.07512 0.68588 0.04113 0.0
C136 C 0.10432 0.69358 0.03406 0.0
C137 C 0.18979 0.71835 0.07227 0.0
C138 C 0.19921 0.7278 0.03814 0.0
C139 C 0.21468 0.73604 0.06862 0.0
C140 C 0.20336 0.72705 0.08101 0.0
C141 C 0.2128 0.7367 0.04697 0.0
C142 C 0.18781 0.71873 0.05066 0.0
C143 C 0.17836 0.709 0.08645 0.0
O144 O 0.13765 0.69755 0.12302 0.0
O145 O 0.14727 0.67334 0.11266 0.0
O146 O 0.17515 0.69324 0.08234 0.0
O147 O 0.16525 0.71702 0.09377 0.0
H148 H 0.16483 0.69905 0.15116 0.0
H149 H 0.17395 0.6925 0.18681 0.0
H150 H 0.13953 0.65076 0.18803 0.0
H151 H 0.13073 0.65719 0.15285 0.0
H152 H 0.0704 0.67753 0.07249 0.0
H153 H 0.09985 0.68107 0.08412 0.0
H154 H 0.08443 0.69513 1.01181 0.0
H155 H 0.1135 0.69855 0.02325 0.0
H156 H 0.1972 0.72804 0.02157 0.0
H157 H 0.22509 0.74232 0.0761 0.0
H158 H 0.20528 0.72685 0.09761 0.0
H159 H 0.17747 0.71211 0.04348 0.0
C160 C 0.34371 0.86775 0.88308 0.0
C161 C 0.34258 0.85383 0.86997 0.0
C162 C 0.35357 0.86995 0.84074 0.0
C163 C 0.34741 0.85489 0.84913 0.0
C164 C 0.35509 0.88382 0.85416 0.0
C165 C 0.35018 0.88274 0.87508 0.0
U166 U 0.33399 0.88147 0.94065 0.0
O167 O 0.3545 0.89905 0.94869 0.0
O168 O 0.32995 0.90871 0.93912 0.0
C169 C 0.34524 0.91236 0.94538 0.0
C170 C 0.33742 0.86613 0.90466 0.0
C171 C 0.34757 0.92707 0.95929 0.0
C172 C 0.36327 0.95268 0.96652 0.0
C173 C 0.36109 0.93789 0.95523 0.0
C174 C 0.3385 0.9462 0.98672 0.0
C175 C 0.35204 0.95719 0.9825 0.0
C176 C 0.33627 0.93134 0.97522 0.0
C177 C 0.31077 0.84869 0.97532 0.0
C178 C 0.30126 0.82805 1.00068 0.0
C179 C 0.29333 0.82498 0.96481 0.0
C180 C 0.30243 0.83956 0.95983 0.0
C181 C 0.29232 0.81913 0.98543 0.0
C182 C 0.31028 0.8426 0.9957 0.0
C183 C 0.31902 0.86508 0.97109 0.0
O184 O 0.32417 0.87501 0.90976 0.0
O185 O 0.34865 0.86538 0.91951 0.0
O186 O 0.33539 0.86507 0.96819 0.0
O187 O 0.31115 0.87523 0.95842 0.0
H188 H 0.3376 0.84212 0.87578 0.0
H189 H 0.34575 0.84399 0.83945 0.0
H190 H 0.36003 0.89557 0.8485 0.0
H191 H 0.35124 0.89364 0.88491 0.0
H192 H 0.37361 0.96078 0.96224 0.0
H193 H 0.36987 0.93508 0.94286 0.0
H194 H 0.32964 0.94901 0.99895 0.0
H195 H 0.32565 0.92331 0.97866 0.0
H196 H 0.30124 0.82387 0.01662 0.0
H197 H 0.28662 0.81865 0.95256 0.0
H198 H 0.3026 0.84391 0.94396 0.0
H199 H 0.31664 0.84934 1.00794 0.0
C200 C 0.16323 0.34401 0.88443 0.0
C201 C 0.17745 0.34918 0.87315 0.0
C202 C 0.161 0.35064 0.84139 0.0
C203 C 0.17634 0.35257 0.85188 0.0
C204 C 0.14658 0.3463 0.85291 0.0
C205 C 0.14765 0.34311 0.87425 0.0
U206 U 0.14955 0.33355 0.94135 0.0
O207 O 0.1319 0.3536 0.9504 0.0
O208 O 0.12222 0.33016 0.93771 0.0
C209 C 0.11848 0.34481 0.94557 0.0
C210 C 0.16549 0.33758 0.9058 0.0
C211 C 0.10394 0.34531 0.96006 0.0
C212 C 0.07474 0.35338 0.9664 0.0
C213 C 0.08937 0.35399 0.9542 0.0
C214 C 0.0892 0.33593 0.99112 0.0
C215 C 0.07425 0.34402 0.98484 0.0
C216 C 0.10383 0.3365 0.97884 0.0
C217 C 0.18038 0.308 0.97598 0.0
C218 C 0.19551 0.28836 0.99796 0.0
C219 C 0.20898 0.29934 0.96723 0.0
C220 C 0.19448 0.30879 0.96285 0.0
C221 C 0.20968 0.28884 0.98482 0.0
C222 C 0.18113 0.2978 0.9936 0.0
C223 C 0.16453 0.31714 0.97158 0.0
O224 O 0.15685 0.32414 0.91071 0.0
O225 O 0.16625 0.3485 0.92096 0.0
O226 O 0.16553 0.33342 0.96929 0.0
O227 O 0.15432 0.31011 0.95821 0.0
H228 H 0.18963 0.34983 0.88059 0.0
H229 H 0.18769 0.35571 0.8434 0.0
H230 H 0.13457 0.34479 0.84523 0.0
H231 H 0.13647 0.33921 0.88258 0.0
H232 H 0.06359 0.35966 0.96084 0.0
H233 H 0.08914 0.36086 0.93975 0.0
H234 H 0.08954 0.32887 1.00541 0.0
H235 H 0.11492 0.32977 0.98377 0.0
H236 H 0.19527 0.28029 1.0114 0.0
H237 H 0.21963 0.30028 0.95682 0.0
H238 H 0.19423 0.31658 0.94915 0.0
H239 H 0.1704 0.29692 1.00392 0.0
C240 C 0.68943 0.16015 0.88212 0.0
C241 C 0.69165 0.1737 0.8686 0.0
C242 C 0.67978 0.15787 0.83972 0.0
C243 C 0.68695 0.1726 0.84774 0.0
C244 C 0.67712 0.14441 0.85355 0.0
C245 C 0.68194 0.14552 0.87449 0.0
U246 U 0.6999 0.14568 0.93909 0.0
O247 O 0.67983 0.12782 0.94794 0.0
O248 O 0.70373 0.11853 0.93579 0.0
C249 C 0.6889 0.11461 0.9434 0.0
C250 C 0.69585 0.16166 0.90363 0.0
C251 C 0.6882 0.10013 0.95792 0.0
C252 C 0.68079 0.07081 0.96375 0.0
C253 C 0.68068 0.08519 0.95126 0.0
C254 C 0.69542 0.08621 0.99034 0.0
C255 C 0.68843 0.07092 0.98342 0.0
C256 C 0.69539 0.10058 0.97773 0.0
C257 C 0.72472 0.17575 0.97729 0.0
C258 C 0.74044 0.18905 1.00514 0.0
C259 C 0.73484 0.20457 0.97383 0.0
C260 C 0.72628 0.19054 0.96562 0.0
C261 C 0.74187 0.20407 0.9939 0.0
C262 C 0.732 0.17521 0.997 0.0
C263 C 0.71578 0.1605 0.96997 0.0
O264 O 0.70929 0.15293 0.90823 0.0
O265 O 0.6848 0.16206 0.9188 0.0
O266 O 0.69942 0.16132 0.96728 0.0
O267 O 0.72335 0.1512 0.95605 0.0
H268 H 0.69745 0.18512 0.87409 0.0
H269 H 0.68951 0.18318 0.83779 0.0
H270 H 0.67138 0.13294 0.84822 0.0
H271 H 0.68003 0.13489 0.88462 0.0
H272 H 0.67541 0.05945 0.95757 0.0
H273 H 0.67501 0.08449 0.93605 0.0
H274 H 0.70107 0.08713 1.00551 0.0
H275 H 0.70118 0.11196 0.98333 0.0
H276 H 0.74596 0.1879 0.02037 0.0
H277 H 0.73564 0.21587 0.96469 0.0
H278 H 0.72082 0.19128 0.95031 0.0
H279 H 0.73113 0.16396 1.00627 0.0
C280 C 0.88712 0.67731 0.88126 0.0
C281 C 0.87169 0.68231 0.87262 0.0
C282 C 0.87903 0.669 0.83949 0.0
C283 C 0.8677 0.67822 0.85189 0.0
C284 C 0.89452 0.66438 0.84833 0.0
C285 C 0.89844 0.66842 0.86882 0.0
U286 U 0.88404 0.69456 0.93885 0.0
O287 O 0.89506 0.68246 0.96652 0.0
O288 O 0.90454 0.70678 0.95618 0.0
C289 C 0.90595 0.69456 0.96964 0.0
C290 C 0.89228 0.68106 0.90291 0.0
C291 C 0.92325 0.69018 0.97668 0.0
C292 C 0.95209 0.68036 0.97096 0.0
C293 C 0.93535 0.68238 0.96398 0.0
C294 C 0.94459 0.69322 1.00351 0.0
C295 C 0.95697 0.68617 0.99068 0.0
C296 C 0.92802 0.69513 0.99665 0.0
C297 C 0.8435 0.71849 0.95831 0.0
C298 C 0.8385 0.73285 0.99109 0.0
C299 C 0.81787 0.73478 0.96381 0.0
C300 C 0.82793 0.72449 0.9513 0.0
C301 C 0.8231 0.73943 0.98381 0.0
C302 C 0.84861 0.72257 0.97848 0.0
C303 C 0.85428 0.70884 0.94372 0.0
O304 O 0.89539 0.69669 0.90772 0.0
O305 O 0.88494 0.67272 0.91798 0.0
O306 O 0.8572 0.69306 0.94796 0.0
O307 O 0.86755 0.71656 0.93622 0.0
H308 H 0.86275 0.68925 0.88186 0.0
H309 H 0.85565 0.68199 0.84573 0.0
H310 H 0.9038 0.65766 0.83933 0.0
H311 H 0.91048 0.66455 0.875 0.0
H312 H 0.96139 0.67511 0.96058 0.0
H313 H 0.93202 0.67843 0.9485 0.0
H314 H 0.94795 0.69798 0.01864 0.0
H315 H 0.919 0.70116 1.00677 0.0
H316 H 0.8429 0.73579 1.0065 0.0
H317 H 0.8063 0.73962 0.95741 0.0
H318 H 0.82369 0.72155 0.9358 0.0
H319 H 0.86051 0.71806 0.98434 0.0
C320 C 0.84357 0.65854 0.64711 0.0
C321 C 0.84889 0.6727 0.65813 0.0
C322 C 0.85361 0.65608 0.6894 0.0
C323 C 0.85385 0.67152 0.67893 0.0
C324 C 0.84865 0.6418 0.67809 0.0
C325 C 0.84369 0.64301 0.65723 0.0
U326 U 0.83277 0.6462 0.58944 0.0
O327 O 0.85346 0.62932 0.57979 0.0
O328 O 0.82952 0.61887 0.59077 0.0
C329 C 0.84467 0.61573 0.58361 0.0
C330 C 0.83668 0.66075 0.62586 0.0
C331 C 0.84705 0.60076 0.57008 0.0
C332 C 0.86363 0.57569 0.56322 0.0
C333 C 0.86185 0.59142 0.57248 0.0
C334 C 0.83623 0.57854 0.54761 0.0
C335 C 0.85068 0.56875 0.5511 0.0
C336 C 0.83436 0.59431 0.55715 0.0
C337 C 0.80721 0.67803 0.55542 0.0
C338 C 0.78651 0.69253 0.53412 0.0
C339 C 0.80035 0.70736 0.56184 0.0
C340 C 0.80954 0.69283 0.56679 0.0
C341 C 0.78864 0.70744 0.54538 0.0
C342 C 0.79565 0.67812 0.53905 0.0
C343 C 0.81647 0.66227 0.55988 0.0
O344 O 0.82346 0.65176 0.62083 0.0
O345 O 0.84747 0.66238 0.61054 0.0
O346 O 0.83285 0.6632 0.56245 0.0
O347 O 0.80924 0.65173 0.57272 0.0
H348 H 0.8489 0.68484 0.65073 0.0
H349 H 0.85789 0.68276 0.68677 0.0
H350 H 0.84811 0.62968 0.68547 0.0
H351 H 0.8396 0.63187 0.64918 0.0
H352 H 0.87504 0.5687 0.56606 0.0
H353 H 0.87183 0.59597 0.58239 0.0
H354 H 0.82598 0.57364 0.53841 0.0
H355 H 0.82275 0.60115 0.55504 0.0
H356 H 0.77747 0.6918 0.52166 0.0
H357 H 0.80254 0.71855 0.57082 0.0
H358 H 0.81841 0.69315 0.57947 0.0
H359 H 0.79358 0.66691 0.53004 0.0
C360 C 0.37022 0.84224 0.64861 0.0
C361 C 0.35554 0.84901 0.65727 0.0
C362 C 0.36967 0.85363 0.69024 0.0
C363 C 0.35528 0.85471 0.67774 0.0
C364 C 0.38445 0.84685 0.68165 0.0
C365 C 0.38476 0.84128 0.66096 0.0
U366 U 0.38545 0.8314 0.59192 0.0
O367 O 0.40263 0.8519 0.58273 0.0
O368 O 0.41289 0.82865 0.59515 0.0
C369 C 0.41626 0.84338 0.58719 0.0
C370 C 0.36929 0.83518 0.62736 0.0
C371 C 0.43048 0.84413 0.57222 0.0
C372 C 0.45973 0.85185 0.56527 0.0
C373 C 0.44546 0.85211 0.57812 0.0
C374 C 0.44408 0.83616 0.53981 0.0
C375 C 0.45943 0.84359 0.54602 0.0
C376 C 0.42983 0.83634 0.55279 0.0
C377 C 0.35479 0.80584 0.55684 0.0
C378 C 0.34024 0.78545 0.53529 0.0
C379 C 0.32525 0.799 0.56319 0.0
C380 C 0.33988 0.80808 0.56824 0.0
C381 C 0.32522 0.78748 0.54663 0.0
C382 C 0.35475 0.79451 0.54031 0.0
C383 C 0.37061 0.81496 0.5616 0.0
O384 O 0.3788 0.82223 0.62306 0.0
O385 O 0.36808 0.84575 0.61186 0.0
O386 O 0.36961 0.83122 0.56392 0.0
O387 O 0.38072 0.80791 0.57507 0.0
H388 H 0.3441 0.84966 0.64823 0.0
H389 H 0.34368 0.85973 0.68396 0.0
H390 H 0.39577 0.846 0.69087 0.0
H391 H 0.39626 0.83607 0.65472 0.0
H392 H 0.47118 0.85758 0.57088 0.0
H393 H 0.4463 0.85821 0.59305 0.0
H394 H 0.44306 0.83 0.52496 0.0
H395 H 0.41841 0.83016 0.54781 0.0
H396 H 0.34097 0.77655 0.52273 0.0
H397 H 0.31396 0.8011 0.57219 0.0
H398 H 0.33956 0.81679 0.58105 0.0
H399 H 0.36608 0.79254 0.53129 0.0
C400 C 0.1848 0.37821 0.6497 0.0
C401 C 0.18861 0.36176 0.65561 0.0
C402 C 0.17801 0.36715 0.69079 0.0
C403 C 0.18522 0.35628 0.67599 0.0
C404 C 0.17424 0.38353 0.68455 0.0
C405 C 0.1776 0.38893 0.66438 0.0
U406 U 0.19929 0.38444 0.59033 0.0
O407 O 0.18397 0.39831 0.56738 0.0
O408 O 0.208 0.40887 0.57852 0.0
C409 C 0.1951 0.41042 0.56603 0.0
C410 C 0.18775 0.38508 0.62862 0.0
C411 C 0.19064 0.42697 0.55733 0.0
C412 C 0.1808 0.45582 0.55975 0.0
C413 C 0.18402 0.44019 0.56911 0.0
C414 C 0.19096 0.44509 0.52707 0.0
C415 C 0.18421 0.45847 0.5385 0.0
C416 C 0.194 0.42963 0.53631 0.0
C417 C 0.22482 0.34427 0.56661 0.0
C418 C 0.24439 0.33219 0.5416 0.0
C419 C 0.23334 0.31517 0.56944 0.0
C420 C 0.22385 0.32875 0.57656 0.0
C421 C 0.24398 0.31672 0.55204 0.0
C422 C 0.23499 0.34583 0.54889 0.0
C423 C 0.2156 0.35879 0.57516 0.0
O424 O 0.20296 0.39006 0.6235 0.0
O425 O 0.17905 0.37916 0.61297 0.0
O426 O 0.19913 0.35994 0.57439 0.0
O427 O 0.2233 0.37117 0.58457 0.0
H428 H 0.19416 0.35321 0.64457 0.0
H429 H 0.18841 0.34359 0.6802 0.0
H430 H 0.16838 0.3922 0.69518 0.0
H431 H 0.17444 0.40164 0.66016 0.0
H432 H 0.17554 0.46574 0.56909 0.0
H433 H 0.18139 0.43848 0.58543 0.0
H434 H 0.19425 0.44657 0.51091 0.0
H435 H 0.1993 0.41971 0.52697 0.0
H436 H 0.25244 0.33395 0.52823 0.0
H437 H 0.23242 0.30345 0.57772 0.0
H438 H 0.21602 0.32723 0.59018 0.0
H439 H 0.23584 0.35767 0.54083 0.0
C440 C 0.64671 0.1788 0.64829 0.0
C441 C 0.65893 0.18841 0.65863 0.0
C442 C 0.65631 0.17075 0.6895 0.0
C443 C 0.66362 0.18447 0.67911 0.0
C444 C 0.64419 0.1612 0.67898 0.0
C445 C 0.63942 0.16522 0.65874 0.0
U446 U 0.64871 0.19655 0.59131 0.0
O447 O 0.63739 0.18499 0.56362 0.0
O448 O 0.62839 0.20935 0.5743 0.0
C449 C 0.62647 0.19711 0.56098 0.0
C450 C 0.64053 0.18282 0.62716 0.0
C451 C 0.60891 0.19248 0.55536 0.0
C452 C 0.58421 0.1742 0.55666 0.0
C453 C 0.60062 0.1783 0.56328 0.0
C454 C 0.58425 0.19832 0.53416 0.0
C455 C 0.57574 0.18421 0.542 0.0
C456 C 0.60052 0.20237 0.54077 0.0
C457 C 0.68992 0.21909 0.57137 0.0
C458 C 0.6949 0.23485 0.53953 0.0
C459 C 0.71744 0.23147 0.56419 0.0
C460 C 0.7067 0.2221 0.57698 0.0
C461 C 0.71172 0.23818 0.54533 0.0
C462 C 0.68411 0.22545 0.55243 0.0
C463 C 0.67888 0.20994 0.58617 0.0
O464 O 0.63786 0.1986 0.62266 0.0
O465 O 0.64704 0.17441 0.61164 0.0
O466 O 0.67544 0.19422 0.58214 0.0
O467 O 0.66591 0.21809 0.59368 0.0
H468 H 0.66476 0.19897 0.65094 0.0
H469 H 0.6731 0.19198 0.68672 0.0
H470 H 0.6382 0.15068 0.68657 0.0
H471 H 0.62985 0.15772 0.65124 0.0
H472 H 0.57811 0.16331 0.5632 0.0
H473 H 0.60681 0.17038 0.5745 0.0
H474 H 0.57847 0.20616 0.52255 0.0
H475 H 0.60667 0.21325 0.53421 0.0
H476 H 0.68991 0.23986 0.52525 0.0
H477 H 0.7303 0.23339 0.56913 0.0
H478 H 0.71151 0.21732 0.59149 0.0
H479 H 0.67121 0.22335 0.54775 0.0
C480 C 0.84365 0.36588 0.38209 0.0
C481 C 0.84224 0.35074 0.37141 0.0
C482 C 0.85514 0.36284 0.34046 0.0
C483 C 0.84783 0.34923 0.35098 0.0
C484 C 0.8563 0.37823 0.35103 0.0
C485 C 0.85064 0.37973 0.37173 0.0
U486 U 0.8336 0.38253 0.43906 0.0
O487 O 0.85398 0.39993 0.44799 0.0
O488 O 0.83027 0.40978 0.436 0.0
C489 C 0.84519 0.41333 0.44351 0.0
C490 C 0.83733 0.36634 0.40375 0.0
C491 C 0.84638 0.42791 0.45777 0.0
C492 C 0.85316 0.45748 0.46234 0.0
C493 C 0.8519 0.44328 0.44973 0.0
C494 C 0.84348 0.44128 0.4916 0.0
C495 C 0.84894 0.45681 0.48351 0.0
C496 C 0.8422 0.42701 0.47889 0.0
C497 C 0.80839 0.35142 0.47432 0.0
C498 C 0.78967 0.33597 0.4975 0.0
C499 C 0.79955 0.32294 0.46604 0.0
C500 C 0.80877 0.33748 0.46111 0.0
C501 C 0.7897 0.32199 0.48428 0.0
C502 C 0.79888 0.3504 0.4926 0.0
C503 C 0.81735 0.3673 0.46949 0.0
O504 O 0.82434 0.37587 0.40794 0.0
O505 O 0.84833 0.36571 0.41887 0.0
O506 O 0.83375 0.36659 0.46701 0.0
O507 O 0.81008 0.37729 0.45611 0.0
H508 H 0.83675 0.33992 0.37894 0.0
H509 H 0.84636 0.33728 0.34335 0.0
H510 H 0.86188 0.38897 0.34346 0.0
H511 H 0.8518 0.3916 0.37961 0.0
H512 H 0.85772 0.46897 0.45548 0.0
H513 H 0.8553 0.44431 0.43353 0.0
H514 H 0.83995 0.44017 0.50774 0.0
H515 H 0.8379 0.41534 0.48553 0.0
H516 H 0.78212 0.33603 0.51146 0.0
H517 H 0.80017 0.31244 0.45553 0.0
H518 H 0.81606 0.3379 0.44694 0.0
H519 H 0.79835 0.36096 0.50305 0.0
C520 C 0.64854 0.84884 0.3811 0.0
C521 C 0.65907 0.83675 0.37219 0.0
C522 C 0.65815 0.85112 0.33868 0.0
C523 C 0.66377 0.83785 0.35123 0.0
C524 C 0.64834 0.86367 0.34796 0.0
C525 C 0.64353 0.86248 0.36888 0.0
U526 U 0.64845 0.83347 0.43865 0.0
O527 O 0.63705 0.8456 0.46611 0.0
O528 O 0.62788 0.82121 0.45579 0.0
C529 C 0.62604 0.83354 0.46899 0.0
C530 C 0.64127 0.84671 0.40223 0.0
C531 C 0.60845 0.83826 0.47428 0.0
C532 C 0.57957 0.84483 0.46445 0.0
C533 C 0.59664 0.84278 0.45913 0.0
C534 C 0.58603 0.83881 0.50023 0.0
C535 C 0.57405 0.84259 0.48501 0.0
C536 C 0.60301 0.83663 0.4949 0.0
C537 C 0.68913 0.80983 0.45824 0.0
C538 C 0.69512 0.79623 0.49128 0.0
C539 C 0.71577 0.79543 0.46378 0.0
C540 C 0.70498 0.80472 0.45113 0.0
C541 C 0.71103 0.79088 0.48404 0.0
C542 C 0.68427 0.80558 0.4785 0.0
C543 C 0.67812 0.81923 0.44378 0.0
O544 O 0.63718 0.83142 0.40769 0.0
O545 O 0.64817 0.85522 0.41741 0.0
O546 O 0.67517 0.83503 0.44787 0.0
O547 O 0.66489 0.81139 0.43645 0.0
H548 H 0.66323 0.82615 0.38122 0.0
H549 H 0.67154 0.82808 0.34471 0.0
H550 H 0.64368 0.87399 0.3388 0.0
H551 H 0.63535 0.87196 0.37531 0.0
H552 H 0.57056 0.84758 0.45238 0.0
H553 H 0.60048 0.84409 0.44312 0.0
H554 H 0.5821 0.83668 0.51608 0.0
H555 H 0.61182 0.83299 0.50684 0.0
H556 H 0.69088 0.79291 0.50668 0.0
H557 H 0.72795 0.79195 0.45766 0.0
H558 H 0.70906 0.80789 0.43559 0.0
H559 H 0.67209 0.80935 0.48437 0.0
C560 C 0.18217 0.64623 0.38287 0.0
C561 C 0.19279 0.65744 0.37222 0.0
C562 C 0.17717 0.65283 0.34011 0.0
C563 C 0.19024 0.66079 0.35102 0.0
C564 C 0.1661 0.64238 0.35116 0.0
C565 C 0.16854 0.63918 0.37224 0.0
U566 U 0.19972 0.64787 0.43986 0.0
O567 O 0.18843 0.63632 0.46765 0.0
O568 O 0.21293 0.62769 0.45644 0.0
C569 C 0.20069 0.62548 0.46988 0.0
C570 C 0.18584 0.64003 0.40408 0.0
C571 C 0.19593 0.60791 0.47452 0.0
C572 C 0.17865 0.58303 0.46931 0.0
C573 C 0.18279 0.59964 0.46423 0.0
C574 C 0.20071 0.58274 0.49499 0.0
C575 C 0.1876 0.57427 0.48476 0.0
C576 C 0.20477 0.5993 0.48995 0.0
C577 C 0.22235 0.68875 0.45943 0.0
C578 C 0.23602 0.69456 0.49246 0.0
C579 C 0.23645 0.71537 0.46534 0.0
C580 C 0.22722 0.70465 0.45256 0.0
C581 C 0.24117 0.7105 0.48544 0.0
C582 C 0.22672 0.68377 0.47956 0.0
C583 C 0.21308 0.6778 0.44485 0.0
O584 O 0.20166 0.63707 0.40863 0.0
O585 O 0.17735 0.64653 0.41958 0.0
O586 O 0.19731 0.67427 0.44925 0.0
O587 O 0.22132 0.66504 0.43713 0.0
H588 H 0.20343 0.66305 0.38004 0.0
H589 H 0.19904 0.66882 0.3429 0.0
H590 H 0.15589 0.63611 0.34324 0.0
H591 H 0.16018 0.63051 0.38004 0.0
H592 H 0.16834 0.57712 0.4612 0.0
H593 H 0.17572 0.60601 0.4523 0.0
H594 H 0.20815 0.5765 0.50665 0.0
H595 H 0.21496 0.60539 0.49812 0.0
H596 H 0.23948 0.69025 0.50774 0.0
H597 H 0.23978 0.72759 0.45942 0.0
H598 H 0.22393 0.7088 0.43713 0.0
H599 H 0.22311 0.67154 0.48521 0.0
C600 C 0.38976 0.18054 0.38138 0.0
C601 C 0.37388 0.18453 0.37317 0.0
C602 C 0.3817 0.17213 0.33974 0.0
C603 C 0.36989 0.1804 0.35246 0.0
C604 C 0.39765 0.16862 0.34812 0.0
C605 C 0.40155 0.1727 0.36857 0.0
U606 U 0.38608 0.19704 0.43902 0.0
O607 O 0.39712 0.18498 0.46655 0.0
O608 O 0.40613 0.20963 0.45678 0.0
C609 C 0.40798 0.19711 0.46973 0.0
C610 C 0.39488 0.18415 0.40301 0.0
C611 C 0.42553 0.19247 0.47526 0.0
C612 C 0.45065 0.17501 0.47235 0.0
C613 C 0.43417 0.17907 0.46604 0.0
C614 C 0.44999 0.19758 0.49712 0.0
C615 C 0.45886 0.18428 0.48797 0.0
C616 C 0.43365 0.2016 0.49083 0.0
C617 C 0.34491 0.21917 0.4588 0.0
C618 C 0.33996 0.23409 0.49117 0.0
C619 C 0.31751 0.2315 0.4662 0.0
C620 C 0.32821 0.22243 0.45314 0.0
C621 C 0.32321 0.23761 0.48537 0.0
C622 C 0.35071 0.225 0.478 0.0
C623 C 0.35592 0.2103 0.44385 0.0
O624 O 0.39754 0.19982 0.40806 0.0
O625 O 0.38776 0.17544 0.4179 0.0
O626 O 0.35924 0.19451 0.44756 0.0
O627 O 0.36901 0.21859 0.43677 0.0
H628 H 0.36457 0.19066 0.38276 0.0
H629 H 0.35749 0.18327 0.3466 0.0
H630 H 0.40724 0.16262 0.33883 0.0
H631 H 0.41391 0.1696 0.37445 0.0
H632 H 0.45701 0.16475 0.46479 0.0
H633 H 0.4282 0.17176 0.45402 0.0
H634 H 0.45557 0.20482 0.50948 0.0
H635 H 0.42724 0.21187 0.49835 0.0
H636 H 0.34491 0.23867 0.50569 0.0
H637 H 0.30469 0.23363 0.46127 0.0
H638 H 0.32343 0.21805 0.43842 0.0
H639 H 0.36357 0.22271 0.48269 0.0
H640 H 0.32792 0.97883 0.99894 0.0
H641 H 0.38196 0.9726 0.99306 0.0
H642 H 0.38634 1.0 1.00939 0.0
H643 H 0.32623 0.02199 0.98855 0.0
H644 H 0.31029 0.02661 1.00758 0.0
H645 H 0.31129 1.00615 0.99615 0.0
H646 H 0.31346 0.99286 0.0326 0.0
H647 H 0.3124 0.01329 0.04417 0.0
H648 H 0.32978 0.99968 0.04997 0.0
H649 H 0.38489 0.02933 0.02469 0.0
H650 H 0.37767 0.05718 0.03819 0.0
H651 H 0.32471 0.04383 0.03655 0.0
C652 C 0.34071 0.98302 1.00137 0.0
C653 C 0.35454 0.97337 0.99424 0.0
C654 C 0.37103 0.9797 0.99773 0.0
C655 C 0.3737 0.99529 1.00723 0.0
C656 C 0.35981 1.00456 1.01361 0.0
C657 C 0.34364 0.99857 1.01105 0.0
C658 C 0.33088 1.01112 0.01915 0.0
C659 C 0.31897 0.0168 1.00182 0.0
C660 C 0.32105 1.0038 0.03756 0.0
C661 C 0.34235 0.02529 0.02606 0.0
C662 C 0.35901 0.02121 0.02288 0.0
C663 C 0.37186 0.03252 0.02747 0.0
C664 C 0.3676 0.04838 0.03533 0.0
C665 C 0.35056 0.05303 0.03865 0.0
C666 C 0.33786 0.04103 0.03408 0.0
H667 H 0.98078 0.36586 0.02747 0.0
H668 H 0.97856 0.31457 0.04911 0.0
H669 H 1.00732 0.30993 0.03635 0.0
H670 H 1.00453 0.35714 0.98054 0.0
H671 H 1.01701 0.37591 0.98184 0.0
H672 H 0.99616 0.37555 0.9928 0.0
H673 H 1.00821 0.38509 0.02801 0.0
H674 H 0.02911 0.38538 0.01718 0.0
H675 H 0.02472 0.37315 0.04 0.0
H676 H 0.03623 0.31043 0.02171 0.0
H677 H 0.06319 0.31558 1.0042 0.0
H678 H 0.04793 0.36661 0.99154 0.0
C679 C 0.98637 0.35366 0.02953 0.0
C680 C 0.97718 0.34052 0.0392 0.0
C681 C 0.98505 0.32476 0.04145 0.0
C682 C 1.0015 0.32202 0.03439 0.0
C683 C 1.01015 0.33512 0.02496 0.0
C684 C 1.00289 0.35062 0.02234 0.0
C685 C 1.01505 0.36236 1.0112 0.0
C686 C 1.00775 0.36807 0.99036 0.0
C687 C 0.01954 0.37738 0.02492 0.0
C688 C 0.0302 0.35097 1.00804 0.0
C689 C 0.02704 0.33537 0.01627 0.0
C690 C 0.03889 0.32263 1.01527 0.0
C691 C 0.05432 0.32576 1.0054 0.0
C692 C 0.05799 0.34155 0.99651 0.0
C693 C 0.04564 0.35435 0.99801 0.0
H694 H 0.66661 0.0433 0.98573 0.0
H695 H 0.71427 0.0618 1.00935 0.0
H696 H 0.71797 0.03577 0.02881 0.0
H697 H 0.6544 0.0198 0.03268 0.0
H698 H 0.64528 1.00279 0.01829 0.0
H699 H 0.64528 0.02359 1.00761 0.0
H700 H 0.66042 1.01276 0.9748 0.0
H701 H 0.66044 0.99196 0.98538 0.0
H702 H 0.67994 1.00155 0.97739 0.0
H703 H 0.71739 1.00742 0.04509 0.0
H704 H 0.71326 0.97795 0.05529 0.0
H705 H 0.66725 0.97607 0.01957 0.0
C706 C 0.67785 0.04197 0.99498 0.0
C707 C 0.69003 0.05505 0.996 0.0
C708 C 0.70444 0.05248 1.00855 0.0
C709 C 0.70676 0.03757 0.01964 0.0
C710 C 0.69464 0.02503 0.01816 0.0
C711 C 0.68046 0.027 1.00611 0.0
C712 C 0.66978 1.01114 1.0066 0.0
C713 C 0.65267 0.01454 0.0169 0.0
C714 C 0.66752 1.00393 0.98474 0.0
C715 C 0.68055 0.99978 0.02009 0.0
C716 C 0.69461 1.00828 0.02698 0.0
C717 C 0.70641 1.00067 0.03982 0.0
C718 C 0.70395 0.98393 0.0456 0.0
C719 C 0.68996 0.97473 0.03834 0.0
C720 C 0.67806 0.98281 0.02542 0.0
H721 H 0.05041 0.66153 0.03258 0.0
H722 H 0.05928 0.71492 0.0352 0.0
H723 H 0.03072 0.72005 0.0221 0.0
H724 H 0.02615 0.66188 0.98534 0.0
H725 H 1.01121 0.64615 0.99325 0.0
H726 H 0.03218 0.64608 1.00374 0.0
H727 H 0.02013 0.64698 0.04087 0.0
H728 H 0.99911 0.64684 0.0305 0.0
H729 H 1.00554 0.66322 0.0479 0.0
H730 H 1.00223 0.72009 1.00798 0.0
H731 H 0.97357 0.71507 0.99511 0.0
H732 H 0.98113 0.66165 1.00051 0.0
C733 C 0.04616 0.67426 0.03063 0.0
C734 C 0.05709 0.68791 0.03501 0.0
C735 C 0.05116 0.70435 0.032 0.0
C736 C 0.03495 0.70738 0.02451 0.0
C737 C 0.02461 0.69384 0.01995 0.0
C738 C 0.02978 0.67757 0.02299 0.0
C739 C 1.0158 0.66549 0.01649 0.0
C740 C 0.02169 0.65423 0.99864 0.0
C741 C 1.00979 0.65501 0.03505 0.0
C742 C 1.00213 0.6776 1.00933 0.0
C743 C 1.00769 0.69386 1.01153 0.0
C744 C 0.99768 0.70743 1.00624 0.0
C745 C 0.98141 0.70446 0.99888 0.0
C746 C 0.97507 0.68805 0.99672 0.0
C747 C 0.98568 0.67435 1.00181 0.0
H748 H 0.84321 0.55504 0.51236 0.0
H749 H 0.86067 0.54176 0.57374 0.0
H750 H 0.8625 0.51226 0.5632 0.0
H751 H 0.81789 0.51873 0.50325 0.0
H752 H 0.82363 0.51661 0.47638 0.0
H753 H 0.82396 0.53686 0.48843 0.0
H754 H 0.85511 0.54069 0.47763 0.0
H755 H 0.85487 0.52044 0.46551 0.0
H756 H 0.87033 0.52516 0.48499 0.0
H757 H 0.86167 0.48371 0.54639 0.0
H758 H 0.85913 0.45875 0.52427 0.0
H759 H 0.84236 0.48999 0.47344 0.0
C760 C 0.84739 0.54591 0.52357 0.0
C761 C 0.85183 0.55088 0.54395 0.0
C762 C 0.85738 0.53845 0.55802 0.0
C763 C 0.8584 0.52157 0.55219 0.0
C764 C 0.85398 0.5171 0.53208 0.0
C765 C 0.84872 0.52891 0.51789 0.0
C766 C 0.84494 0.52068 0.49716 0.0
C767 C 0.82651 0.52338 0.49095 0.0
C768 C 0.85703 0.52713 0.48033 0.0
C769 C 0.84838 0.50241 0.50212 0.0
C770 C 0.85368 0.50065 0.52232 0.0
C771 C 0.85751 0.48499 0.53053 0.0
C772 C 0.85588 0.47079 0.51783 0.0
C773 C 0.85045 0.47215 0.49698 0.0
C774 C 0.84671 0.48834 0.48916 0.0
H775 H 0.55402 0.86487 0.50707 0.0
H776 H 0.55303 0.81741 0.47501 0.0
H777 H 0.52344 0.81323 0.48568 0.0
H778 H 0.52914 0.85374 0.55019 0.0
H779 H 0.51746 0.87296 0.55172 0.0
H780 H 0.53827 0.8729 0.54066 0.0
H781 H 0.52678 0.8861 0.50703 0.0
H782 H 0.50592 0.88628 0.51803 0.0
H783 H 0.50966 0.87611 0.49359 0.0
H784 H 0.49495 0.81292 0.50212 0.0
H785 H 0.46881 0.81697 0.52173 0.0
H786 H 0.48661 0.86571 0.54164 0.0
C787 C 0.54742 0.85375 0.50208 0.0
C788 C 0.55576 0.84145 0.49007 0.0
C789 C 0.54681 0.82701 0.48397 0.0
C790 C 0.53001 0.82453 0.49001 0.0
C791 C 0.52213 0.83674 0.50194 0.0
C792 C 0.5304 0.85122 0.50766 0.0
C793 C 0.51884 0.86226 0.52058 0.0
C794 C 0.52638 0.86565 0.54206 0.0
C795 C 0.51508 0.87866 0.50913 0.0
C796 C 0.50315 0.85134 0.52204 0.0
C797 C 0.50533 0.83678 0.51097 0.0
C798 C 0.49298 0.82443 0.51052 0.0
C799 C 0.478 0.82694 0.52167 0.0
C800 C 0.47525 0.84176 0.53322 0.0
C801 C 0.48812 0.85417 0.53316 0.0
H802 H 0.18931 0.55801 0.52278 0.0
H803 H 0.17756 0.54934 0.45804 0.0
H804 H 0.17294 0.51954 0.46561 0.0
H805 H 0.21303 0.52148 0.53014 0.0
H806 H 0.20574 0.51754 0.55613 0.0
H807 H 0.20621 0.53854 0.54626 0.0
H808 H 0.17451 0.54182 0.55463 0.0
H809 H 0.17395 0.52079 0.56458 0.0
H810 H 0.15969 0.52695 0.54435 0.0
H811 H 0.17104 0.49026 0.47973 0.0
H812 H 0.17311 0.46377 0.49874 0.0
H813 H 0.18807 0.49075 0.55403 0.0
C814 C 0.18574 0.54991 0.51013 0.0
C815 C 0.18377 0.55629 0.48974 0.0
C816 C 0.17886 0.54507 0.47385 0.0
C817 C 0.17628 0.52801 0.47798 0.0
C818 C 0.17859 0.52218 0.49813 0.0
C819 C 0.18318 0.5328 0.51396 0.0
C820 C 0.18569 0.52317 0.53403 0.0
C821 C 0.20374 0.52531 0.54211 0.0
C822 C 0.17269 0.5285 0.55036 0.0
C823 C 0.18243 0.5054 0.52683 0.0
C824 C 0.17802 0.50519 0.50615 0.0
C825 C 0.17455 0.49031 0.4959 0.0
C826 C 0.17592 0.47524 0.50688 0.0
C827 C 0.18106 0.47493 0.52794 0.0
C828 C 0.18402 0.49038 0.53806 0.0
H829 H 0.55012 0.20611 0.53267 0.0
H830 H 0.56134 0.15317 0.53454 0.0
H831 H 0.53293 0.14701 0.52079 0.0
H832 H 0.50659 0.20315 0.54712 0.0
H833 H 0.50027 0.21976 0.53001 0.0
H834 H 0.52119 0.2196 0.54061 0.0
H835 H 0.53364 0.22101 0.5035 0.0
H836 H 0.51276 0.22104 0.49277 0.0
H837 H 0.52769 0.20541 0.48479 0.0
H838 H 0.50256 0.14707 0.50558 0.0
H839 H 0.474 0.15328 0.49245 0.0
H840 H 0.48396 0.20624 0.49941 0.0
C841 C 0.54676 0.19318 0.53009 0.0
C842 C 0.55821 0.18017 0.53467 0.0
C843 C 0.55289 0.16343 0.53141 0.0
C844 C 0.53676 0.15981 0.52343 0.0
C845 C 0.52595 0.17302 0.51875 0.0
C846 C 0.53081 0.18937 0.52209 0.0
C847 C 0.5171 0.20143 0.51578 0.0
C848 C 0.51092 0.21158 0.5345 0.0
C849 C 0.52316 0.2129 0.49816 0.0
C850 C 0.50367 0.18942 0.50834 0.0
C851 C 0.50892 0.17306 0.5101 0.0
C852 C 0.49843 0.15988 0.50417 0.0
C853 C 0.48221 0.16355 0.49656 0.0
C854 C 0.47648 0.18028 0.49492 0.0
C855 C 0.48763 0.19329 0.50073 0.0
H856 H 0.26985 0.23264 0.05578 0.0
H857 H 0.29172 0.2123 0.99963 0.0
H858 H 0.27429 0.23154 0.9788 0.0
H859 H 0.22847 0.23761 0.03714 0.0
H860 H 0.22471 0.25694 0.05062 0.0
H861 H 0.23942 0.24208 0.06091 0.0
H862 H 0.26263 0.26486 0.06118 0.0
H863 H 0.24795 0.27977 0.05081 0.0
H864 H 0.26755 0.27591 0.03761 0.0
H865 H 0.25326 0.25276 0.96395 0.0
H866 H 0.23031 0.27263 0.95676 0.0
H867 H 0.22316 0.27979 0.02279 0.0
C868 C 0.27124 0.23234 0.03911 0.0
C869 C 0.28231 0.22081 0.02948 0.0
C870 C 0.28327 0.22076 1.00753 0.0
C871 C 0.27349 0.23179 0.99552 0.0
C872 C 0.26274 0.24293 1.00559 0.0
C873 C 0.26161 0.24327 0.02692 0.0
C874 C 0.24875 0.25605 0.03403 0.0
C875 C 0.2345 0.24766 0.0464 0.0
C876 C 0.25723 0.26997 0.04665 0.0
C877 C 0.24248 0.26259 1.0134 0.0
C878 C 0.25081 0.25503 0.99714 0.0
C879 C 0.24677 0.25879 0.97664 0.0
C880 C 0.23372 0.27024 0.9727 0.0
C881 C 0.22468 0.27789 0.98913 0.0
C882 C 0.2295 0.2741 1.00975 0.0
H883 H 0.76413 0.22738 0.97641 0.0
H884 H 0.73897 0.21457 0.03399 0.0
H885 H 0.75542 0.23599 0.05219 0.0
H886 H 0.80415 0.23434 0.99589 0.0
H887 H 0.80922 0.25247 0.98052 0.0
H888 H 0.79428 0.2374 0.97108 0.0
H889 H 0.77197 0.26061 0.9669 0.0
H890 H 0.78692 0.2758 0.97617 0.0
H891 H 0.76677 0.27364 0.98872 0.0
H892 H 0.7768 0.25621 0.06531 0.0
H893 H 0.80047 0.27516 0.07203 0.0
H894 H 0.81127 0.27705 1.00609 0.0
C895 C 0.76181 0.22934 0.99274 0.0
C896 C 0.75038 0.2189 1.00375 0.0
C897 C 0.74788 0.22197 0.02519 0.0
C898 C 0.7571 0.23426 0.03571 0.0
C899 C 0.76869 0.24381 0.02466 0.0
C900 C 0.77089 0.24179 1.00357 0.0
C901 C 0.78459 0.25356 0.9957 0.0
C902 C 0.79891 0.24385 0.98518 0.0
C903 C 0.77712 0.26668 0.981 0.0
C904 C 0.79041 0.26163 0.01583 0.0
C905 C 0.78082 0.256 0.03225 0.0
C906 C 0.78417 0.26098 0.0525 0.0
C907 C 0.79769 0.27191 0.05615 0.0
C908 C 0.8079 0.27794 0.03969 0.0
C909 C 0.80394 0.27274 0.01918 0.0
H910 H 0.74128 0.79141 0.02265 0.0
H911 H 0.77637 0.82459 0.05345 0.0
H912 H 0.8 0.8069 0.04214 0.0
H913 H 0.76311 0.75253 0.03292 0.0
H914 H 0.75913 0.7436 1.0078 0.0
H915 H 0.7446 0.75846 0.01865 0.0
H916 H 0.74764 0.77705 0.98614 0.0
H917 H 0.76208 0.7622 0.97509 0.0
H918 H 0.76828 0.78373 0.97793 0.0
H919 H 0.81997 0.78584 0.02794 0.0
H920 H 0.83542 0.76399 1.00929 0.0
H921 H 0.78818 0.74398 0.98634 0.0
C922 C 0.75396 0.7949 0.02699 0.0
C923 C 0.75696 0.80949 0.03894 0.0
C924 C 0.77375 0.81364 0.04416 0.0
C925 C 0.78726 0.80359 0.03791 0.0
C926 C 0.78396 0.78938 0.02615 0.0
C927 C 0.76777 0.78509 0.02047 0.0
C928 C 0.76799 0.76949 1.00693 0.0
C929 C 0.75812 0.75517 0.01719 0.0
C930 C 0.76109 0.77335 0.98524 0.0
C931 C 0.78678 0.7657 1.0061 0.0
C932 C 0.79567 0.77731 0.01746 0.0
C933 C 0.81313 0.77665 0.01901 0.0
C934 C 0.82183 0.764 1.00844 0.0
C935 C 0.8132 0.752 0.99626 0.0
C936 C 0.79532 0.75292 0.99531 0.0
H937 H 0.22792 0.76689 0.05634 0.0
H938 H 0.22551 0.72939 1.008 0.0
H939 H 0.24592 0.74574 0.98721 0.0
H940 H 0.23096 0.80252 0.02374 0.0
H941 H 0.24548 0.81342 0.04036 0.0
H942 H 0.23089 0.79858 0.05123 0.0
H943 H 0.25568 0.78239 0.06767 0.0
H944 H 0.27037 0.79714 0.05675 0.0
H945 H 0.27262 0.77518 0.05142 0.0
H946 H 0.26725 0.7668 0.97165 0.0
H947 H 0.28601 0.79039 0.96269 0.0
H948 H 0.27388 0.81393 0.02134 0.0
C949 C 0.23176 0.76193 0.04149 0.0
C950 C 0.22498 0.7467 0.03397 0.0
C951 C 0.23025 0.74105 1.01416 0.0
C952 C 0.24199 0.75022 1.00226 0.0
C953 C 0.24846 0.7651 1.01028 0.0
C954 C 0.24346 0.77088 0.02946 0.0
C955 C 0.25205 0.78729 0.03461 0.0
C956 C 0.23907 0.80128 0.03766 0.0
C957 C 0.26335 0.78538 0.05375 0.0
C958 C 0.26247 0.79008 1.01521 0.0
C959 C 0.2604 0.7771 1.00139 0.0
C960 C 0.26882 0.77704 0.98239 0.0
C961 C 0.27942 0.79063 0.97736 0.0
C962 C 0.28154 0.80427 0.99117 0.0
C963 C 0.2729 0.80375 1.01041 0.0
H964 H 0.77817 0.71845 0.5068 0.0
H965 H 0.77524 0.73106 0.57202 0.0
H966 H 0.75625 0.75448 0.56361 0.0
H967 H 0.77625 0.76126 0.48679 0.0
H968 H 0.76363 0.75526 0.46489 0.0
H969 H 0.7782 0.74061 0.47601 0.0
H970 H 0.75391 0.71932 0.48096 0.0
H971 H 0.73926 0.73396 0.47004 0.0
H972 H 0.73549 0.72536 0.49543 0.0
H973 H 0.7355 0.77571 0.54781 0.0
H974 H 0.71642 0.79281 0.52635 0.0
H975 H 0.73216 0.76524 0.47188 0.0
C976 C 0.77359 0.72608 0.51941 0.0
C977 C 0.77828 0.72264 0.54018 0.0
C978 C 0.77211 0.73335 0.55598 0.0
C979 C 0.76118 0.74669 0.55135 0.0
C980 C 0.75648 0.74936 0.53079 0.0
C981 C 0.76265 0.73939 0.51508 0.0
C982 C 0.7553 0.74443 0.49433 0.0
C983 C 0.76917 0.75076 0.47964 0.0
C984 C 0.7454 0.7299 0.48463 0.0
C985 C 0.74371 0.75851 0.50079 0.0
C986 C 0.74462 0.76132 0.52185 0.0
C987 C 0.73478 0.77358 0.5313 0.0
C988 C 0.72382 0.78317 0.51895 0.0
C989 C 0.72264 0.78052 0.49727 0.0
C990 C 0.73283 0.76793 0.48827 0.0
H991 H 0.2669 0.73157 0.4732 0.0
H992 H 0.23929 0.71558 0.52779 0.0
H993 H 0.25659 0.73452 0.54926 0.0
H994 H 0.30696 0.73479 0.49631 0.0
H995 H 0.31311 0.75311 0.48194 0.0
H996 H 0.29819 0.73867 0.47105 0.0
H997 H 0.27682 0.76274 0.46634 0.0
H998 H 0.29166 0.77726 0.4773 0.0
H999 H 0.27093 0.77525 0.48836 0.0
H1000 H 0.27798 0.75504 0.56501 0.0
H1001 H 0.30162 0.77391 0.57338 0.0
H1002 H 0.31407 0.77729 0.50805 0.0
C1003 C 0.26424 0.73217 0.48962 0.0
C1004 C 0.25159 0.72198 0.49867 0.0
C1005 C 0.24897 0.72302 0.52038 0.0
C1006 C 0.25867 0.73389 0.53272 0.0
C1007 C 0.27097 0.74375 0.52322 0.0
C1008 C 0.27372 0.74297 0.50212 0.0
C1009 C 0.28792 0.75454 0.49563 0.0
C1010 C 0.3024 0.74468 0.48565 0.0
C1011 C 0.28144 0.76826 0.48105 0.0
C1012 C 0.29304 0.76172 0.51639 0.0
C1013 C 0.28305 0.75549 0.53214 0.0
C1014 C 0.28579 0.76003 0.55272 0.0
C1015 C 0.29924 0.7709 0.55733 0.0
C1016 C 0.30994 0.77716 0.54147 0.0
C1017 C 0.30643 0.77263 0.52069 0.0
H1018 H 0.25288 0.30643 0.51238 0.0
H1019 H 0.26122 0.29515 0.57727 0.0
H1020 H 0.2812 0.27308 0.56739 0.0
H1021 H 0.25631 0.26313 0.49367 0.0
H1022 H 0.26694 0.26919 0.47017 0.0
H1023 H 0.25226 0.28326 0.48228 0.0
H1024 H 0.2753 0.30612 0.48353 0.0
H1025 H 0.29009 0.29211 0.47158 0.0
H1026 H 0.29504 0.30172 0.49605 0.0
H1027 H 0.30192 0.25329 0.55051 0.0
H1028 H 0.32068 0.23677 0.52795 0.0
H1029 H 0.29951 0.26121 0.47401 0.0
C1030 C 0.25886 0.2993 0.52454 0.0
C1031 C 0.25533 0.30263 0.54568 0.0
C1032 C 0.26339 0.29279 0.56099 0.0
C1033 C 0.27489 0.28023 0.55553 0.0
C1034 C 0.27826 0.27748 0.53462 0.0
C1035 C 0.27036 0.28663 0.51935 0.0
C1036 C 0.27655 0.28143 0.49804 0.0
C1037 C 0.26215 0.2738 0.48529 0.0
C1038 C 0.28473 0.29623 0.48663 0.0
C1039 C 0.28948 0.26828 0.50374 0.0
C1040 C 0.29019 0.2661 0.52492 0.0
C1041 C 0.30142 0.25487 0.53389 0.0
C1042 C 0.31215 0.24562 0.52091 0.0
C1043 C 0.31171 0.24759 0.49909 0.0
C1044 C 0.30011 0.25913 0.49055 0.0
H1045 H 0.78189 0.30832 0.52272 0.0
H1046 H 0.77255 0.30144 0.45709 0.0
H1047 H 0.75299 0.27838 0.46523 0.0
H1048 H 0.77883 0.2641 0.53753 0.0
H1049 H 0.76848 0.26876 0.56169 0.0
H1050 H 0.78301 0.28357 0.55053 0.0
H1051 H 0.75992 0.30632 0.55164 0.0
H1052 H 0.74531 0.29157 0.56264 0.0
H1053 H 0.74004 0.30248 0.53914 0.0
H1054 H 0.73243 0.25711 0.48097 0.0
H1055 H 0.71387 0.23941 0.50259 0.0
H1056 H 0.73581 0.26108 0.55786 0.0
C1057 C 0.7758 0.30201 0.50997 0.0
C1058 C 0.77891 0.30694 0.48917 0.0
C1059 C 0.77073 0.29795 0.47313 0.0
C1060 C 0.75944 0.28483 0.47762 0.0
C1061 C 0.75638 0.28065 0.49827 0.0
C1062 C 0.76445 0.28891 0.51417 0.0
C1063 C 0.75853 0.28248 0.53509 0.0
C1064 C 0.77308 0.27424 0.5469 0.0
C1065 C 0.75047 0.29655 0.54788 0.0
C1066 C 0.74554 0.26962 0.52855 0.0
C1067 C 0.74456 0.2686 0.50725 0.0
C1068 C 0.73317 0.25782 0.49767 0.0
C1069 C 0.72253 0.24788 0.51013 0.0
C1070 C 0.72322 0.24872 0.53207 0.0
C1071 C 0.73501 0.2598 0.54122 0.0
H1072 H 0.36422 0.18855 0.30789 0.0
H1073 H 0.38985 0.14222 0.32256 0.0
H1074 H 0.38684 0.13307 0.28655 0.0
H1075 H 0.33394 0.16912 0.27152 0.0
H1076 H 0.33391 0.18674 0.25416 0.0
H1077 H 0.33777 0.18983 0.28137 0.0
H1078 H 0.3657 0.20479 0.27243 0.0
H1079 H 0.36211 0.20146 0.24522 0.0
H1080 H 0.38126 0.19416 0.25701 0.0
H1081 H 0.38316 0.12929 0.24915 0.0
H1082 H 0.3751 0.129 0.2125 0.0
H1083 H 0.35003 0.17669 0.22013 0.0
C1084 C 0.36901 0.17641 0.30355 0.0
C1085 C 0.3777 0.16631 0.31817 0.0
C1086 C 0.38364 0.15046 0.31172 0.0
C1087 C 0.38193 0.14508 0.29123 0.0
C1088 C 0.37398 0.15551 0.27711 0.0
C1089 C 0.36726 0.17068 0.28293 0.0
C1090 C 0.35898 0.17909 0.26432 0.0
C1091 C 0.34002 0.18132 0.26807 0.0
C1092 C 0.36753 0.19588 0.25946 0.0
C1093 C 0.36232 0.16631 0.24724 0.0
C1094 C 0.37112 0.15292 0.25517 0.0
C1095 C 0.37601 0.13957 0.24282 0.0
C1096 C 0.37133 0.13951 0.22196 0.0
C1097 C 0.36163 0.15262 0.21336 0.0
C1098 C 0.35739 0.16645 0.22617 0.0
H1099 H 0.85204 0.38343 0.30565 0.0
H1100 H 0.87336 0.33645 0.32621 0.0
H1101 H 0.88171 0.32996 0.29047 0.0
H1102 H 0.83471 0.36973 0.25926 0.0
H1103 H 0.84031 0.38766 0.24379 0.0
H1104 H 0.83756 0.38983 0.27131 0.0
H1105 H 0.86751 0.40223 0.27447 0.0
H1106 H 0.87031 0.40019 0.24688 0.0
H1107 H 0.88516 0.39075 0.26432 0.0
H1108 H 0.88617 0.32727 0.25263 0.0
H1109 H 0.88614 0.32844 0.2145 0.0
H1110 H 0.86161 0.3767 0.21677 0.0
C1111 C 0.85877 0.37195 0.30266 0.0
C1112 C 0.86184 0.36037 0.3189 0.0
C1113 C 0.87057 0.34542 0.31416 0.0
C1114 C 0.8755 0.34165 0.29386 0.0
C1115 C 0.87187 0.35301 0.27819 0.0
C1116 C 0.86386 0.36795 0.28226 0.0
C1117 C 0.86102 0.37756 0.26218 0.0
C1118 C 0.84228 0.38141 0.25895 0.0
C1119 C 0.87162 0.39364 0.26195 0.0
C1120 C 0.86757 0.36514 0.24622 0.0
C1121 C 0.87426 0.35132 0.25597 0.0
C1122 C 0.88112 0.33809 0.24482 0.0
C1123 C 0.88109 0.33889 0.22313 0.0
C1124 C 0.87399 0.35267 0.21259 0.0
C1125 C 0.86716 0.36601 0.22438 0.0
H1126 H 0.68017 0.8887 0.22579 0.0
H1127 H 0.66747 0.83996 0.20078 0.0
H1128 H 0.6623 0.82957 0.23611 0.0
H1129 H 0.70059 0.87404 0.27243 0.0
H1130 H 0.69233 0.89052 0.28844 0.0
H1131 H 0.69579 0.89408 0.26122 0.0
H1132 H 0.66469 0.90293 0.25699 0.0
H1133 H 0.66118 0.89945 0.28421 0.0
H1134 H 0.64821 0.88897 0.26539 0.0
H1135 H 0.6584 0.82424 0.27431 0.0
H1136 H 0.65468 0.8248 0.31222 0.0
H1137 H 0.66832 0.87726 0.31298 0.0
C1138 C 0.6762 0.87586 0.22762 0.0
C1139 C 0.67443 0.86518 0.21016 0.0
C1140 C 0.66936 0.8484 0.21365 0.0
C1141 C 0.66625 0.84237 0.23376 0.0
C1142 C 0.66814 0.85321 0.25048 0.0
C1143 C 0.67291 0.86963 0.24764 0.0
C1144 C 0.67365 0.87875 0.2683 0.0
C1145 C 0.69166 0.8847 0.27286 0.0
C1146 C 0.66119 0.89339 0.26874 0.0
C1147 C 0.66832 0.86495 0.28315 0.0
C1148 C 0.66542 0.85026 0.27251 0.0
C1149 C 0.66064 0.83568 0.28277 0.0
C1150 C 0.65865 0.8361 0.30439 0.0
C1151 C 0.66125 0.85102 0.31574 0.0
C1152 C 0.66615 0.86565 0.30483 0.0
H1153 H 0.17415 0.68031 0.31357 0.0
H1154 H 0.17791 0.62631 0.31441 0.0
H1155 H 0.17544 0.62569 0.27643 0.0
H1156 H 0.14293 0.68229 0.27366 0.0
H1157 H 0.15126 0.70076 0.26136 0.0
H1158 H 0.15461 0.69735 0.28859 0.0
H1159 H 0.18672 0.70014 0.28303 0.0
H1160 H 0.18347 0.70346 0.25573 0.0
H1161 H 0.19708 0.68692 0.2644 0.0
H1162 H 0.17172 0.6303 0.23896 0.0
H1163 H 0.16528 0.63976 0.20367 0.0
H1164 H 0.16274 0.69097 0.22534 0.0
C1165 C 0.17466 0.66842 0.30565 0.0
C1166 C 0.17627 0.65331 0.31699 0.0
C1167 C 0.17663 0.63799 0.3061 0.0
C1168 C 0.17531 0.63752 0.28449 0.0
C1169 C 0.17355 0.65249 0.27376 0.0
C1170 C 0.17312 0.66769 0.28386 0.0
C1171 C 0.17017 0.68176 0.26835 0.0
C1172 C 0.15377 0.69109 0.27329 0.0
C1173 C 0.18526 0.69378 0.26785 0.0
C1174 C 0.16876 0.67202 0.24813 0.0
C1175 C 0.17098 0.65517 0.25176 0.0
C1176 C 0.16994 0.64346 0.23592 0.0
C1177 C 0.16618 0.64897 0.21588 0.0
C1178 C 0.16331 0.66609 0.2116 0.0
C1179 C 0.16497 0.67781 0.228 0.0
H1180 H 0.36701 0.84597 0.81418 0.0
H1181 H 0.34843 0.89692 0.8151 0.0
H1182 H 0.35279 0.89883 0.77744 0.0
H1183 H 0.39858 0.85178 0.77322 0.0
H1184 H 0.39453 0.8317 0.76169 0.0
H1185 H 0.39138 0.83466 0.78908 0.0
H1186 H 0.36066 0.82426 0.78564 0.0
H1187 H 0.36373 0.82126 0.75828 0.0
H1188 H 0.34683 0.83429 0.76742 0.0
H1189 H 0.35665 0.89459 0.73917 0.0
H1190 H 0.36044 0.88458 0.70326 0.0
H1191 H 0.37667 0.83648 0.7264 0.0
C1192 C 0.3639 0.85759 0.80655 0.0
C1193 C 0.35743 0.87134 0.81795 0.0
C1194 C 0.35371 0.88628 0.80709 0.0
C1195 C 0.35604 0.88747 0.78556 0.0
C1196 C 0.36216 0.87365 0.77486 0.0
C1197 C 0.36613 0.859 0.78498 0.0
C1198 C 0.37184 0.84574 0.76963 0.0
C1199 C 0.39017 0.84068 0.77365 0.0
C1200 C 0.36006 0.83049 0.77029 0.0
C1201 C 0.37019 0.85515 0.74929 0.0
C1202 C 0.36461 0.87125 0.75271 0.0
C1203 C 0.36122 0.88208 0.73635 0.0
C1204 C 0.36338 0.87629 0.71599 0.0
C1205 C 0.36901 0.85984 0.71202 0.0
C1206 C 0.37267 0.84922 0.72897 0.0
H1207 H 0.18129 0.38511 0.72721 0.0
H1208 H 0.16563 0.33671 0.7039 0.0
H1209 H 0.15826 0.328 0.73949 0.0
H1210 H 0.19991 0.37131 0.77387 0.0
H1211 H 0.19252 0.38861 0.78921 0.0
H1212 H 0.19592 0.39123 0.76184 0.0
H1213 H 0.1652 0.40133 0.75761 0.0
H1214 H 0.16174 0.39869 0.785 0.0
H1215 H 0.14819 0.38834 0.76672 0.0
H1216 H 0.15218 0.32462 0.77773 0.0
H1217 H 0.15049 0.32584 0.81591 0.0
H1218 H 0.17093 0.37602 0.81481 0.0
C1219 C 0.17617 0.37271 0.72949 0.0
C1220 C 0.17407 0.36162 0.71252 0.0
C1221 C 0.16759 0.34541 0.71648 0.0
C1222 C 0.16319 0.3404 0.73667 0.0
C1223 C 0.16531 0.35169 0.75291 0.0
C1224 C 0.17174 0.36749 0.74956 0.0
C1225 C 0.17319 0.37708 0.76979 0.0
C1226 C 0.19148 0.38236 0.77392 0.0
C1227 C 0.16138 0.39226 0.76978 0.0
C1228 C 0.16723 0.36397 0.78517 0.0
C1229 C 0.16231 0.34957 0.77501 0.0
C1230 C 0.15603 0.33582 0.7858 0.0
C1231 C 0.15503 0.33664 0.80749 0.0
C1232 C 0.16056 0.351 0.81832 0.0
C1233 C 0.16665 0.36488 0.80693 0.0
H1234 H 0.65742 0.19057 0.72465 0.0
H1235 H 0.66606 0.14006 0.70318 0.0
H1236 H 0.67254 0.13123 0.73894 0.0
H1237 H 0.68982 0.19145 0.76435 0.0
H1238 H 0.6772 0.20314 0.78243 0.0
H1239 H 0.67394 0.20559 0.75501 0.0
H1240 H 0.6425 0.19805 0.7599 0.0
H1241 H 0.6457 0.19536 0.78729 0.0
H1242 H 0.63686 0.17861 0.77218 0.0
H1243 H 0.67801 0.12778 0.77725 0.0
H1244 H 0.6825 0.13001 0.81484 0.0
H1245 H 0.6688 0.18244 0.81228 0.0
C1246 C 0.66089 0.17771 0.72749 0.0
C1247 C 0.6613 0.16601 0.71105 0.0
C1248 C 0.66562 0.14923 0.71548 0.0
C1249 C 0.66933 0.1441 0.73577 0.0
C1250 C 0.66855 0.15583 0.75167 0.0
C1251 C 0.66443 0.1723 0.7478 0.0
C1252 C 0.66399 0.18224 0.76784 0.0
C1253 C 0.67702 0.19644 0.76737 0.0
C1254 C 0.6462 0.18896 0.77205 0.0
C1255 C 0.66876 0.16888 0.7835 0.0
C1256 C 0.67129 0.15373 0.77383 0.0
C1257 C 0.67597 0.13958 0.78498 0.0
C1258 C 0.67834 0.14096 0.80649 0.0
C1259 C 0.67601 0.15639 0.81691 0.0
C1260 C 0.67095 0.17046 0.80504 0.0
H1261 H 0.84807 0.67912 0.72103 0.0
H1262 H 0.87024 0.63052 0.70933 0.0
H1263 H 0.87755 0.62818 0.74624 0.0
H1264 H 0.87951 0.69287 0.7576 0.0
H1265 H 0.8647 0.70386 0.77373 0.0
H1266 H 0.86065 0.70146 0.74647 0.0
H1267 H 0.83187 0.68788 0.75496 0.0
H1268 H 0.83591 0.69007 0.78226 0.0
H1269 H 0.83105 0.66984 0.77162 0.0
H1270 H 0.88242 0.63089 0.78457 0.0
H1271 H 0.88627 0.63911 0.82091 0.0
H1272 H 0.86248 0.68676 0.80825 0.0
C1273 C 0.85458 0.66801 0.7261 0.0
C1274 C 0.85837 0.65492 0.71196 0.0
C1275 C 0.86678 0.64059 0.71964 0.0
C1276 C 0.8711 0.63917 0.74067 0.0
C1277 C 0.86705 0.65221 0.75408 0.0
C1278 C 0.8591 0.66642 0.7471 0.0
C1279 C 0.85655 0.67877 0.76476 0.0
C1280 C 0.86591 0.69521 0.76038 0.0
C1281 C 0.83773 0.68182 0.76863 0.0
C1282 C 0.86448 0.66935 0.78273 0.0
C1283 C 0.8703 0.65398 0.77617 0.0
C1284 C 0.87805 0.64296 0.78979 0.0
C1285 C 0.88028 0.64784 0.81047 0.0
C1286 C 0.87499 0.66375 0.81764 0.0
C1287 C 0.86668 0.6745 0.80348 0.0
loop_
_geom_bond_atom_site_label_1
_geom_bond_atom_site_label_2
_geom_bond_distance
_geom_bond_site_symmetry_2
_ccdc_geom_bond_type
C0 C1 1.264 . S
C0 C5 1.479 . S
C0 C10 1.465 . S
C1 C0 1.264 . S
C1 C3 1.339 . S
C1 H28 0.931 . S
C2 C3 1.395 . S
C2 C4 1.320 . S
C3 C1 1.339 . S
C3 C2 1.395 . S
C3 H29 0.929 . S
C4 C2 1.320 . S
C4 C5 1.405 . S
C4 H30 0.930 . S
C5 C0 1.479 . S
C5 C4 1.405 . S
C5 H31 0.931 . S
U6 O7 2.454 . S
U6 O8 2.458 . S
U6 C9 2.984 . S
U6 C10 2.847 . S
U6 C23 2.882 . S
U6 O24 2.441 . S
U6 O25 2.420 . S
U6 O26 2.455 . S
U6 O27 2.449 . S
O7 U6 2.454 . S
O7 C9 1.353 . S
O8 U6 2.458 . S
O8 C9 1.286 . S
C9 U6 2.984 . S
C9 O7 1.353 . S
C9 O8 1.286 . S
C9 C11 1.363 . S
C10 C0 1.465 . S
C10 U6 2.847 . S
C10 O24 1.249 . S
C10 O25 1.202 . S
C11 C9 1.363 . S
C11 C13 1.408 . S
C11 C16 1.342 . S
C12 C13 1.310 . S
C12 C15 1.461 . S
C12 H32 0.932 . S
C13 C11 1.408 . S
C13 C12 1.310 . S
C13 H33 0.930 . S
C14 C15 1.474 . S
C14 C16 1.285 . S
C14 H34 0.929 . S
C15 C12 1.461 . S
C15 C14 1.474 . S
C16 C11 1.342 . S
C16 C14 1.285 . S
C16 H35 0.930 . S
C17 C20 1.424 . S
C17 C22 1.245 . S
C17 C23 1.428 . S
C18 C21 1.260 . S
C18 C22 1.477 . S
C18 H36 0.907 1_554 S
C19 C20 1.384 . S
C19 C21 1.479 . S
C19 H37 0.929 . S
C20 C17 1.424 . S
C20 C19 1.384 . S
C20 H38 0.928 . S
C21 C18 1.260 . S
C21 C19 1.479 . S
C22 C17 1.245 . S
C22 C18 1.477 . S
C22 H39 0.932 . S
C23 U6 2.882 . S
C23 C17 1.428 . S
C23 O26 1.301 . S
C23 O27 1.282 . S
O24 U6 2.441 . S
O24 C10 1.249 . S
O25 U6 2.420 . S
O25 C10 1.202 . S
O26 U6 2.455 . S
O26 C23 1.301 . S
O27 U6 2.449 . S
O27 C23 1.282 . S
H28 C1 0.931 . S
H29 C3 0.929 . S
H30 C4 0.930 . S
H31 C5 0.931 . S
H32 C12 0.932 . S
H33 C13 0.930 . S
H34 C14 0.929 . S
H35 C16 0.930 . S
H36 C18 0.907 1_556 S
H37 C19 0.929 . S
H38 C20 0.928 . S
H39 C22 0.932 . S
C40 C41 1.264 . S
C40 C45 1.479 . S
C40 C50 1.465 . S
C41 C40 1.264 . S
C41 C43 1.339 . S
C41 H68 0.931 . S
C42 C43 1.395 . S
C42 C44 1.320 . S
C43 C41 1.339 . S
C43 C42 1.395 . S
C43 H69 0.929 . S
C44 C42 1.320 . S
C44 C45 1.405 . S
C44 H70 0.930 . S
C45 C40 1.479 . S
C45 C44 1.405 . S
C45 H71 0.931 . S
U46 O47 2.454 . S
U46 O48 2.458 . S
U46 C49 2.984 . S
U46 C50 2.847 . S
U46 C63 2.882 . S
U46 O64 2.441 . S
U46 O65 2.420 . S
U46 O66 2.455 . S
U46 O67 2.449 . S
O47 U46 2.454 . S
O47 C49 1.353 . S
O48 U46 2.458 . S
O48 C49 1.286 . S
C49 U46 2.984 . S
C49 O47 1.353 . S
C49 O48 1.286 . S
C49 C51 1.363 . S
C50 C40 1.465 . S
C50 U46 2.847 . S
C50 O64 1.249 . S
C50 O65 1.202 . S
C51 C49 1.363 . S
C51 C53 1.408 . S
C51 C56 1.342 . S
C52 C53 1.310 . S
C52 C55 1.461 . S
C52 H72 0.932 . S
C53 C51 1.408 . S
C53 C52 1.310 . S
C53 H73 0.930 . S
C54 C55 1.474 . S
C54 C56 1.285 . S
C54 H74 0.929 . S
C55 C52 1.461 . S
C55 C54 1.474 . S
C56 C51 1.342 . S
C56 C54 1.285 . S
C56 H75 0.930 . S
C57 C60 1.424 . S
C57 C62 1.245 . S
C57 C63 1.428 . S
C58 C61 1.260 . S
C58 C62 1.477 . S
C58 H76 0.907 1_554 S
C59 C60 1.384 . S
C59 C61 1.479 . S
C59 H77 0.929 . S
C60 C57 1.424 . S
C60 C59 1.384 . S
C60 H78 0.928 . S
C61 C58 1.260 . S
C61 C59 1.479 . S
C62 C57 1.245 . S
C62 C58 1.477 . S
C62 H79 0.932 . S
C63 U46 2.882 . S
C63 C57 1.428 . S
C63 O66 1.301 . S
C63 O67 1.282 . S
O64 U46 2.441 . S
O64 C50 1.249 . S
O65 U46 2.420 . S
O65 C50 1.202 . S
O66 U46 2.455 . S
O66 C63 1.301 . S
O67 U46 2.449 . S
O67 C63 1.282 . S
H68 C41 0.931 . S
H69 C43 0.929 . S
H70 C44 0.930 . S
H71 C45 0.931 . S
H72 C52 0.932 . S
H73 C53 0.930 . S
H74 C54 0.929 . S
H75 C56 0.930 . S
H76 C58 0.907 1_556 S
H77 C59 0.929 . S
H78 C60 0.928 . S
H79 C62 0.932 . S
C80 C81 1.264 . S
C80 C85 1.479 . S
C80 C90 1.465 . S
C81 C80 1.264 . S
C81 C83 1.339 . S
C81 H108 0.931 . S
C82 C83 1.395 . S
C82 C84 1.320 . S
C83 C81 1.339 . S
C83 C82 1.395 . S
C83 H109 0.929 . S
C84 C82 1.320 . S
C84 C85 1.405 . S
C84 H110 0.930 . S
C85 C80 1.479 . S
C85 C84 1.405 . S
C85 H111 0.931 . S
U86 O87 2.454 . S
U86 O88 2.458 . S
U86 C89 2.984 . S
U86 C90 2.847 . S
U86 C103 2.882 . S
U86 O104 2.441 . S
U86 O105 2.420 . S
U86 O106 2.455 . S
U86 O107 2.449 . S
O87 U86 2.454 . S
O87 C89 1.353 . S
O88 U86 2.458 . S
O88 C89 1.286 . S
C89 U86 2.984 . S
C89 O87 1.353 . S
C89 O88 1.286 . S
C89 C91 1.363 . S
C90 C80 1.465 . S
C90 U86 2.847 . S
C90 O104 1.249 . S
C90 O105 1.202 . S
C91 C89 1.363 . S
C91 C93 1.408 . S
C91 C96 1.342 . S
C92 C93 1.310 . S
C92 C95 1.461 . S
C92 H112 0.932 . S
C93 C91 1.408 . S
C93 C92 1.310 . S
C93 H113 0.930 . S
C94 C95 1.474 . S
C94 C96 1.285 . S
C94 H114 0.929 . S
C95 C92 1.461 . S
C95 C94 1.474 . S
C96 C91 1.342 . S
C96 C94 1.285 . S
C96 H115 0.930 . S
C97 C100 1.424 . S
C97 C102 1.245 . S
C97 C103 1.428 . S
C98 C101 1.260 . S
C98 C102 1.477 . S
C98 H116 0.907 1_554 S
C99 C100 1.384 . S
C99 C101 1.479 . S
C99 H117 0.929 . S
C100 C97 1.424 . S
C100 C99 1.384 . S
C100 H118 0.928 . S
C101 C98 1.260 . S
C101 C99 1.479 . S
C102 C97 1.245 . S
C102 C98 1.477 . S
C102 H119 0.932 . S
C103 U86 2.882 . S
C103 C97 1.428 . S
C103 O106 1.301 . S
C103 O107 1.282 . S
O104 U86 2.441 . S
O104 C90 1.249 . S
O105 U86 2.420 . S
O105 C90 1.202 . S
O106 U86 2.455 . S
O106 C103 1.301 . S
O107 U86 2.449 . S
O107 C103 1.282 . S
H108 C81 0.931 . S
H109 C83 0.929 . S
H110 C84 0.930 . S
H111 C85 0.931 . S
H112 C92 0.932 . S
H113 C93 0.930 . S
H114 C94 0.929 . S
H115 C96 0.930 . S
H116 C98 0.907 1_556 S
H117 C99 0.929 . S
H118 C100 0.928 . S
H119 C102 0.932 . S
C120 C121 1.264 . S
C120 C125 1.479 . S
C120 C130 1.465 . S
C121 C120 1.264 . S
C121 C123 1.339 . S
C121 H148 0.931 . S
C122 C123 1.395 . S
C122 C124 1.320 . S
C123 C121 1.339 . S
C123 C122 1.395 . S
C123 H149 0.929 . S
C124 C122 1.320 . S
C124 C125 1.405 . S
C124 H150 0.930 . S
C125 C120 1.479 . S
C125 C124 1.405 . S
C125 H151 0.931 . S
U126 O127 2.454 . S
U126 O128 2.458 . S
U126 C129 2.984 . S
U126 C130 2.847 . S
U126 C143 2.882 . S
U126 O144 2.441 . S
U126 O145 2.420 . S
U126 O146 2.455 . S
U126 O147 2.449 . S
O127 U126 2.454 . S
O127 C129 1.353 . S
O128 U126 2.458 . S
O128 C129 1.286 . S
C129 U126 2.984 . S
C129 O127 1.353 . S
C129 O128 1.286 . S
C129 C131 1.363 . S
C130 C120 1.465 . S
C130 U126 2.847 . S
C130 O144 1.249 . S
C130 O145 1.202 . S
C131 C129 1.363 . S
C131 C133 1.408 . S
C131 C136 1.342 . S
C132 C133 1.310 . S
C132 C135 1.461 . S
C132 H152 0.932 . S
C133 C131 1.408 . S
C133 C132 1.310 . S
C133 H153 0.930 . S
C134 C135 1.474 . S
C134 C136 1.285 . S
C134 H154 0.929 . S
C135 C132 1.461 . S
C135 C134 1.474 . S
C136 C131 1.342 . S
C136 C134 1.285 . S
C136 H155 0.930 . S
C137 C140 1.424 . S
C137 C142 1.245 . S
C137 C143 1.428 . S
C138 C141 1.260 . S
C138 C142 1.477 . S
C138 H156 0.907 1_554 S
C139 C140 1.384 . S
C139 C141 1.479 . S
C139 H157 0.929 . S
C140 C137 1.424 . S
C140 C139 1.384 . S
C140 H158 0.928 . S
C141 C138 1.260 . S
C141 C139 1.479 . S
C142 C137 1.245 . S
C142 C138 1.477 . S
C142 H159 0.932 . S
C143 U126 2.882 . S
C143 C137 1.428 . S
C143 O146 1.301 . S
C143 O147 1.282 . S
O144 U126 2.441 . S
O144 C130 1.249 . S
O145 U126 2.420 . S
O145 C130 1.202 . S
O146 U126 2.455 . S
O146 C143 1.301 . S
O147 U126 2.449 . S
O147 C143 1.282 . S
H148 C121 0.931 . S
H149 C123 0.929 . S
H150 C124 0.930 . S
H151 C125 0.931 . S
H152 C132 0.932 . S
H153 C133 0.930 . S
H154 C134 0.929 . S
H155 C136 0.930 . S
H156 C138 0.907 1_556 S
H157 C139 0.929 . S
H158 C140 0.928 . S
H159 C142 0.932 . S
C160 C161 1.264 . S
C160 C165 1.479 . S
C160 C170 1.465 . S
C161 C160 1.264 . S
C161 C163 1.339 . S
C161 H188 0.931 . S
C162 C163 1.395 . S
C162 C164 1.320 . S
C163 C161 1.339 . S
C163 C162 1.395 . S
C163 H189 0.929 . S
C164 C162 1.320 . S
C164 C165 1.405 . S
C164 H190 0.930 . S
C165 C160 1.479 . S
C165 C164 1.405 . S
C165 H191 0.931 . S
U166 O167 2.454 . S
U166 O168 2.458 . S
U166 C169 2.984 . S
U166 C170 2.847 . S
U166 C183 2.882 . S
U166 O184 2.441 . S
U166 O185 2.420 . S
U166 O186 2.455 . S
U166 O187 2.449 . S
O167 U166 2.454 . S
O167 C169 1.353 . S
O168 U166 2.458 . S
O168 C169 1.286 . S
C169 U166 2.984 . S
C169 O167 1.353 . S
C169 O168 1.286 . S
C169 C171 1.363 . S
C170 C160 1.465 . S
C170 U166 2.847 . S
C170 O184 1.249 . S
C170 O185 1.202 . S
C171 C169 1.363 . S
C171 C173 1.408 . S
C171 C176 1.342 . S
C172 C173 1.310 . S
C172 C175 1.461 . S
C172 H192 0.932 . S
C173 C171 1.408 . S
C173 C172 1.310 . S
C173 H193 0.930 . S
C174 C175 1.474 . S
C174 C176 1.285 . S
C174 H194 0.929 . S
C175 C172 1.461 . S
C175 C174 1.474 . S
C176 C171 1.342 . S
C176 C174 1.285 . S
C176 H195 0.930 . S
C177 C180 1.424 . S
C177 C182 1.245 . S
C177 C183 1.428 . S
C178 C181 1.260 . S
C178 C182 1.477 . S
C178 H196 0.907 1_556 S
C179 C180 1.384 . S
C179 C181 1.479 . S
C179 H197 0.929 . S
C180 C177 1.424 . S
C180 C179 1.384 . S
C180 H198 0.928 . S
C181 C178 1.260 . S
C181 C179 1.479 . S
C182 C177 1.245 . S
C182 C178 1.477 . S
C182 H199 0.932 . S
C183 U166 2.882 . S
C183 C177 1.428 . S
C183 O186 1.301 . S
C183 O187 1.282 . S
O184 U166 2.441 . S
O184 C170 1.249 . S
O185 U166 2.420 . S
O185 C170 1.202 . S
O186 U166 2.455 . S
O186 C183 1.301 . S
O187 U166 2.449 . S
O187 C183 1.282 . S
H188 C161 0.931 . S
H189 C163 0.929 . S
H190 C164 0.930 . S
H191 C165 0.931 . S
H192 C172 0.932 . S
H193 C173 0.930 . S
H194 C174 0.929 . S
H195 C176 0.930 . S
H196 C178 0.907 1_554 S
H197 C179 0.929 . S
H198 C180 0.928 . S
H199 C182 0.932 . S
C200 C201 1.264 . S
C200 C205 1.479 . S
C200 C210 1.465 . S
C201 C200 1.264 . S
C201 C203 1.339 . S
C201 H228 0.931 . S
C202 C203 1.395 . S
C202 C204 1.320 . S
C203 C201 1.339 . S
C203 C202 1.395 . S
C203 H229 0.929 . S
C204 C202 1.320 . S
C204 C205 1.405 . S
C204 H230 0.930 . S
C205 C200 1.479 . S
C205 C204 1.405 . S
C205 H231 0.931 . S
U206 O207 2.454 . S
U206 O208 2.458 . S
U206 C209 2.984 . S
U206 C210 2.847 . S
U206 C223 2.882 . S
U206 O224 2.441 . S
U206 O225 2.420 . S
U206 O226 2.455 . S
U206 O227 2.449 . S
O207 U206 2.454 . S
O207 C209 1.353 . S
O208 U206 2.458 . S
O208 C209 1.286 . S
C209 U206 2.984 . S
C209 O207 1.353 . S
C209 O208 1.286 . S
C209 C211 1.363 . S
C210 C200 1.465 . S
C210 U206 2.847 . S
C210 O224 1.249 . S
C210 O225 1.202 . S
C211 C209 1.363 . S
C211 C213 1.408 . S
C211 C216 1.342 . S
C212 C213 1.310 . S
C212 C215 1.461 . S
C212 H232 0.932 . S
C213 C211 1.408 . S
C213 C212 1.310 . S
C213 H233 0.930 . S
C214 C215 1.474 . S
C214 C216 1.285 . S
C214 H234 0.929 . S
C215 C212 1.461 . S
C215 C214 1.474 . S
C216 C211 1.342 . S
C216 C214 1.285 . S
C216 H235 0.930 . S
C217 C220 1.424 . S
C217 C222 1.245 . S
C217 C223 1.428 . S
C218 C221 1.260 . S
C218 C222 1.477 . S
C218 H236 0.907 1_556 S
C219 C220 1.384 . S
C219 C221 1.479 . S
C219 H237 0.929 . S
C220 C217 1.424 . S
C220 C219 1.384 . S
C220 H238 0.928 . S
C221 C218 1.260 . S
C221 C219 1.479 . S
C222 C217 1.245 . S
C222 C218 1.477 . S
C222 H239 0.932 . S
C223 U206 2.882 . S
C223 C217 1.428 . S
C223 O226 1.301 . S
C223 O227 1.282 . S
O224 U206 2.441 . S
O224 C210 1.249 . S
O225 U206 2.420 . S
O225 C210 1.202 . S
O226 U206 2.455 . S
O226 C223 1.301 . S
O227 U206 2.449 . S
O227 C223 1.282 . S
H228 C201 0.931 . S
H229 C203 0.929 . S
H230 C204 0.930 . S
H231 C205 0.931 . S
H232 C212 0.932 . S
H233 C213 0.930 . S
H234 C214 0.929 . S
H235 C216 0.930 . S
H236 C218 0.907 1_554 S
H237 C219 0.929 . S
H238 C220 0.928 . S
H239 C222 0.932 . S
C240 C241 1.264 . S
C240 C245 1.479 . S
C240 C250 1.465 . S
C241 C240 1.264 . S
C241 C243 1.339 . S
C241 H268 0.931 . S
C242 C243 1.395 . S
C242 C244 1.320 . S
C243 C241 1.339 . S
C243 C242 1.395 . S
C243 H269 0.929 . S
C244 C242 1.320 . S
C244 C245 1.405 . S
C244 H270 0.930 . S
C245 C240 1.479 . S
C245 C244 1.405 . S
C245 H271 0.931 . S
U246 O247 2.454 . S
U246 O248 2.458 . S
U246 C249 2.984 . S
U246 C250 2.847 . S
U246 C263 2.882 . S
U246 O264 2.441 . S
U246 O265 2.420 . S
U246 O266 2.455 . S
U246 O267 2.449 . S
O247 U246 2.454 . S
O247 C249 1.353 . S
O248 U246 2.458 . S
O248 C249 1.286 . S
C249 U246 2.984 . S
C249 O247 1.353 . S
C249 O248 1.286 . S
C249 C251 1.363 . S
C250 C240 1.465 . S
C250 U246 2.847 . S
C250 O264 1.249 . S
C250 O265 1.202 . S
C251 C249 1.363 . S
C251 C253 1.408 . S
C251 C256 1.342 . S
C252 C253 1.310 . S
C252 C255 1.461 . S
C252 H272 0.932 . S
C253 C251 1.408 . S
C253 C252 1.310 . S
C253 H273 0.930 . S
C254 C255 1.474 . S
C254 C256 1.285 . S
C254 H274 0.929 . S
C255 C252 1.461 . S
C255 C254 1.474 . S
C256 C251 1.342 . S
C256 C254 1.285 . S
C256 H275 0.930 . S
C257 C260 1.424 . S
C257 C262 1.245 . S
C257 C263 1.428 . S
C258 C261 1.260 . S
C258 C262 1.477 . S
C258 H276 0.907 1_556 S
C259 C260 1.384 . S
C259 C261 1.479 . S
C259 H277 0.929 . S
C260 C257 1.424 . S
C260 C259 1.384 . S
C260 H278 0.928 . S
C261 C258 1.260 . S
C261 C259 1.479 . S
C262 C257 1.245 . S
C262 C258 1.477 . S
C262 H279 0.932 . S
C263 U246 2.882 . S
C263 C257 1.428 . S
C263 O266 1.301 . S
C263 O267 1.282 . S
O264 U246 2.441 . S
O264 C250 1.249 . S
O265 U246 2.420 . S
O265 C250 1.202 . S
O266 U246 2.455 . S
O266 C263 1.301 . S
O267 U246 2.449 . S
O267 C263 1.282 . S
H268 C241 0.931 . S
H269 C243 0.929 . S
H270 C244 0.930 . S
H271 C245 0.931 . S
H272 C252 0.932 . S
H273 C253 0.930 . S
H274 C254 0.929 . S
H275 C256 0.930 . S
H276 C258 0.907 1_554 S
H277 C259 0.929 . S
H278 C260 0.928 . S
H279 C262 0.932 . S
C280 C281 1.264 . S
C280 C285 1.479 . S
C280 C290 1.465 . S
C281 C280 1.264 . S
C281 C283 1.339 . S
C281 H308 0.931 . S
C282 C283 1.395 . S
C282 C284 1.320 . S
C283 C281 1.339 . S
C283 C282 1.395 . S
C283 H309 0.929 . S
C284 C282 1.320 . S
C284 C285 1.405 . S
C284 H310 0.930 . S
C285 C280 1.479 . S
C285 C284 1.405 . S
C285 H311 0.931 . S
U286 O287 2.454 . S
U286 O288 2.458 . S
U286 C289 2.984 . S
U286 C290 2.847 . S
U286 C303 2.882 . S
U286 O304 2.441 . S
U286 O305 2.420 . S
U286 O306 2.455 . S
U286 O307 2.449 . S
O287 U286 2.454 . S
O287 C289 1.353 . S
O288 U286 2.458 . S
O288 C289 1.286 . S
C289 U286 2.984 . S
C289 O287 1.353 . S
C289 O288 1.286 . S
C289 C291 1.363 . S
C290 C280 1.465 . S
C290 U286 2.847 . S
C290 O304 1.249 . S
C290 O305 1.202 . S
C291 C289 1.363 . S
C291 C293 1.408 . S
C291 C296 1.342 . S
C292 C293 1.310 . S
C292 C295 1.461 . S
C292 H312 0.932 . S
C293 C291 1.408 . S
C293 C292 1.310 . S
C293 H313 0.930 . S
C294 C295 1.474 . S
C294 C296 1.285 . S
C294 H314 0.929 . S
C295 C292 1.461 . S
C295 C294 1.474 . S
C296 C291 1.342 . S
C296 C294 1.285 . S
C296 H315 0.930 . S
C297 C300 1.424 . S
C297 C302 1.245 . S
C297 C303 1.428 . S
C298 C301 1.260 . S
C298 C302 1.477 . S
C298 H316 0.907 1_556 S
C299 C300 1.384 . S
C299 C301 1.479 . S
C299 H317 0.929 . S
C300 C297 1.424 . S
C300 C299 1.384 . S
C300 H318 0.928 . S
C301 C298 1.260 . S
C301 C299 1.479 . S
C302 C297 1.245 . S
C302 C298 1.477 . S
C302 H319 0.932 . S
C303 U286 2.882 . S
C303 C297 1.428 . S
C303 O306 1.301 . S
C303 O307 1.282 . S
O304 U286 2.441 . S
O304 C290 1.249 . S
O305 U286 2.420 . S
O305 C290 1.202 . S
O306 U286 2.455 . S
O306 C303 1.301 . S
O307 U286 2.449 . S
O307 C303 1.282 . S
H308 C281 0.931 . S
H309 C283 0.929 . S
H310 C284 0.930 . S
H311 C285 0.931 . S
H312 C292 0.932 . S
H313 C293 0.930 . S
H314 C294 0.929 . S
H315 C296 0.930 . S
H316 C298 0.907 1_554 S
H317 C299 0.929 . S
H318 C300 0.928 . S
H319 C302 0.932 . S
C320 C321 1.264 . S
C320 C325 1.479 . S
C320 C330 1.465 . S
C321 C320 1.264 . S
C321 C323 1.339 . S
C321 H348 0.931 . S
C322 C323 1.395 . S
C322 C324 1.320 . S
C323 C321 1.339 . S
C323 C322 1.395 . S
C323 H349 0.929 . S
C324 C322 1.320 . S
C324 C325 1.405 . S
C324 H350 0.930 . S
C325 C320 1.479 . S
C325 C324 1.405 . S
C325 H351 0.931 . S
U326 O327 2.454 . S
U326 O328 2.458 . S
U326 C329 2.984 . S
U326 C330 2.847 . S
U326 C343 2.882 . S
U326 O344 2.441 . S
U326 O345 2.420 . S
U326 O346 2.455 . S
U326 O347 2.449 . S
O327 U326 2.454 . S
O327 C329 1.353 . S
O328 U326 2.458 . S
O328 C329 1.286 . S
C329 U326 2.984 . S
C329 O327 1.353 . S
C329 O328 1.286 . S
C329 C331 1.363 . S
C330 C320 1.465 . S
C330 U326 2.847 . S
C330 O344 1.249 . S
C330 O345 1.202 . S
C331 C329 1.363 . S
C331 C333 1.408 . S
C331 C336 1.342 . S
C332 C333 1.310 . S
C332 C335 1.461 . S
C332 H352 0.932 . S
C333 C331 1.408 . S
C333 C332 1.310 . S
C333 H353 0.930 . S
C334 C335 1.474 . S
C334 C336 1.285 . S
C334 H354 0.929 . S
C335 C332 1.461 . S
C335 C334 1.474 . S
C336 C331 1.342 . S
C336 C334 1.285 . S
C336 H355 0.930 . S
C337 C340 1.424 . S
C337 C342 1.245 . S
C337 C343 1.428 . S
C338 C341 1.260 . S
C338 C342 1.477 . S
C338 H356 0.932 . S
C339 C340 1.384 . S
C339 C341 1.479 . S
C339 H357 0.929 . S
C340 C337 1.424 . S
C340 C339 1.384 . S
C340 H358 0.928 . S
C341 C338 1.260 . S
C341 C339 1.479 . S
C342 C337 1.245 . S
C342 C338 1.477 . S
C342 H359 0.932 . S
C343 U326 2.882 . S
C343 C337 1.428 . S
C343 O346 1.301 . S
C343 O347 1.282 . S
O344 U326 2.441 . S
O344 C330 1.249 . S
O345 U326 2.420 . S
O345 C330 1.202 . S
O346 U326 2.455 . S
O346 C343 1.301 . S
O347 U326 2.449 . S
O347 C343 1.282 . S
H348 C321 0.931 . S
H349 C323 0.929 . S
H350 C324 0.930 . S
H351 C325 0.931 . S
H352 C332 0.932 . S
H353 C333 0.930 . S
H354 C334 0.929 . S
H355 C336 0.930 . S
H356 C338 0.932 . S
H357 C339 0.929 . S
H358 C340 0.928 . S
H359 C342 0.932 . S
C360 C361 1.264 . S
C360 C365 1.479 . S
C360 C370 1.465 . S
C361 C360 1.264 . S
C361 C363 1.339 . S
C361 H388 0.931 . S
C362 C363 1.395 . S
C362 C364 1.320 . S
C363 C361 1.339 . S
C363 C362 1.395 . S
C363 H389 0.929 . S
C364 C362 1.320 . S
C364 C365 1.405 . S
C364 H390 0.930 . S
C365 C360 1.479 . S
C365 C364 1.405 . S
C365 H391 0.931 . S
U366 O367 2.454 . S
U366 O368 2.458 . S
U366 C369 2.984 . S
U366 C370 2.847 . S
U366 C383 2.882 . S
U366 O384 2.441 . S
U366 O385 2.420 . S
U366 O386 2.455 . S
U366 O387 2.449 . S
O367 U366 2.454 . S
O367 C369 1.353 . S
O368 U366 2.458 . S
O368 C369 1.286 . S
C369 U366 2.984 . S
C369 O367 1.353 . S
C369 O368 1.286 . S
C369 C371 1.363 . S
C370 C360 1.465 . S
C370 U366 2.847 . S
C370 O384 1.249 . S
C370 O385 1.202 . S
C371 C369 1.363 . S
C371 C373 1.408 . S
C371 C376 1.342 . S
C372 C373 1.310 . S
C372 C375 1.461 . S
C372 H392 0.932 . S
C373 C371 1.408 . S
C373 C372 1.310 . S
C373 H393 0.930 . S
C374 C375 1.474 . S
C374 C376 1.285 . S
C374 H394 0.929 . S
C375 C372 1.461 . S
C375 C374 1.474 . S
C376 C371 1.342 . S
C376 C374 1.285 . S
C376 H395 0.930 . S
C377 C380 1.424 . S
C377 C382 1.245 . S
C377 C383 1.428 . S
C378 C381 1.260 . S
C378 C382 1.477 . S
C378 H396 0.932 . S
C379 C380 1.384 . S
C379 C381 1.479 . S
C379 H397 0.929 . S
C380 C377 1.424 . S
C380 C379 1.384 . S
C380 H398 0.928 . S
C381 C378 1.260 . S
C381 C379 1.479 . S
C382 C377 1.245 . S
C382 C378 1.477 . S
C382 H399 0.932 . S
C383 U366 2.882 . S
C383 C377 1.428 . S
C383 O386 1.301 . S
C383 O387 1.282 . S
O384 U366 2.441 . S
O384 C370 1.249 . S
O385 U366 2.420 . S
O385 C370 1.202 . S
O386 U366 2.455 . S
O386 C383 1.301 . S
O387 U366 2.449 . S
O387 C383 1.282 . S
H388 C361 0.931 . S
H389 C363 0.929 . S
H390 C364 0.930 . S
H391 C365 0.931 . S
H392 C372 0.932 . S
H393 C373 0.930 . S
H394 C374 0.929 . S
H395 C376 0.930 . S
H396 C378 0.932 . S
H397 C379 0.929 . S
H398 C380 0.928 . S
H399 C382 0.932 . S
C400 C401 1.264 . S
C400 C405 1.479 . S
C400 C410 1.465 . S
C401 C400 1.264 . S
C401 C403 1.339 . S
C401 H428 0.931 . S
C402 C403 1.395 . S
C402 C404 1.320 . S
C403 C401 1.339 . S
C403 C402 1.395 . S
C403 H429 0.929 . S
C404 C402 1.320 . S
C404 C405 1.405 . S
C404 H430 0.930 . S
C405 C400 1.479 . S
C405 C404 1.405 . S
C405 H431 0.931 . S
U406 O407 2.454 . S
U406 O408 2.458 . S
U406 C409 2.984 . S
U406 C410 2.847 . S
U406 C423 2.882 . S
U406 O424 2.441 . S
U406 O425 2.420 . S
U406 O426 2.455 . S
U406 O427 2.449 . S
O407 U406 2.454 . S
O407 C409 1.353 . S
O408 U406 2.458 . S
O408 C409 1.286 . S
C409 U406 2.984 . S
C409 O407 1.353 . S
C409 O408 1.286 . S
C409 C411 1.363 . S
C410 C400 1.465 . S
C410 U406 2.847 . S
C410 O424 1.249 . S
C410 O425 1.202 . S
C411 C409 1.363 . S
C411 C413 1.408 . S
C411 C416 1.342 . S
C412 C413 1.310 . S
C412 C415 1.461 . S
C412 H432 0.932 . S
C413 C411 1.408 . S
C413 C412 1.310 . S
C413 H433 0.930 . S
C414 C415 1.474 . S
C414 C416 1.285 . S
C414 H434 0.929 . S
C415 C412 1.461 . S
C415 C414 1.474 . S
C416 C411 1.342 . S
C416 C414 1.285 . S
C416 H435 0.930 . S
C417 C420 1.424 . S
C417 C422 1.245 . S
C417 C423 1.428 . S
C418 C421 1.260 . S
C418 C422 1.477 . S
C418 H436 0.932 . S
C419 C420 1.384 . S
C419 C421 1.479 . S
C419 H437 0.929 . S
C420 C417 1.424 . S
C420 C419 1.384 . S
C420 H438 0.928 . S
C421 C418 1.260 . S
C421 C419 1.479 . S
C422 C417 1.245 . S
C422 C418 1.477 . S
C422 H439 0.932 . S
C423 U406 2.882 . S
C423 C417 1.428 . S
C423 O426 1.301 . S
C423 O427 1.282 . S
O424 U406 2.441 . S
O424 C410 1.249 . S
O425 U406 2.420 . S
O425 C410 1.202 . S
O426 U406 2.455 . S
O426 C423 1.301 . S
O427 U406 2.449 . S
O427 C423 1.282 . S
H428 C401 0.931 . S
H429 C403 0.929 . S
H430 C404 0.930 . S
H431 C405 0.931 . S
H432 C412 0.932 . S
H433 C413 0.930 . S
H434 C414 0.929 . S
H435 C416 0.930 . S
H436 C418 0.932 . S
H437 C419 0.929 . S
H438 C420 0.928 . S
H439 C422 0.932 . S
C440 C441 1.264 . S
C440 C445 1.479 . S
C440 C450 1.465 . S
C441 C440 1.264 . S
C441 C443 1.339 . S
C441 H468 0.931 . S
C442 C443 1.395 . S
C442 C444 1.320 . S
C443 C441 1.339 . S
C443 C442 1.395 . S
C443 H469 0.929 . S
C444 C442 1.320 . S
C444 C445 1.405 . S
C444 H470 0.930 . S
C445 C440 1.479 . S
C445 C444 1.405 . S
C445 H471 0.931 . S
U446 O447 2.454 . S
U446 O448 2.458 . S
U446 C449 2.984 . S
U446 C450 2.847 . S
U446 C463 2.882 . S
U446 O464 2.441 . S
U446 O465 2.420 . S
U446 O466 2.455 . S
U446 O467 2.449 . S
O447 U446 2.454 . S
O447 C449 1.353 . S
O448 U446 2.458 . S
O448 C449 1.286 . S
C449 U446 2.984 . S
C449 O447 1.353 . S
C449 O448 1.286 . S
C449 C451 1.363 . S
C450 C440 1.465 . S
C450 U446 2.847 . S
C450 O464 1.249 . S
C450 O465 1.202 . S
C451 C449 1.363 . S
C451 C453 1.408 . S
C451 C456 1.342 . S
C452 C453 1.310 . S
C452 C455 1.461 . S
C452 H472 0.932 . S
C453 C451 1.408 . S
C453 C452 1.310 . S
C453 H473 0.930 . S
C454 C455 1.474 . S
C454 C456 1.285 . S
C454 H474 0.929 . S
C455 C452 1.461 . S
C455 C454 1.474 . S
C456 C451 1.342 . S
C456 C454 1.285 . S
C456 H475 0.930 . S
C457 C460 1.424 . S
C457 C462 1.245 . S
C457 C463 1.428 . S
C458 C461 1.260 . S
C458 C462 1.477 . S
C458 H476 0.932 . S
C459 C460 1.384 . S
C459 C461 1.479 . S
C459 H477 0.929 . S
C460 C457 1.424 . S
C460 C459 1.384 . S
C460 H478 0.928 . S
C461 C458 1.260 . S
C461 C459 1.479 . S
C462 C457 1.245 . S
C462 C458 1.477 . S
C462 H479 0.932 . S
C463 U446 2.882 . S
C463 C457 1.428 . S
C463 O466 1.301 . S
C463 O467 1.282 . S
O464 U446 2.441 . S
O464 C450 1.249 . S
O465 U446 2.420 . S
O465 C450 1.202 . S
O466 U446 2.455 . S
O466 C463 1.301 . S
O467 U446 2.449 . S
O467 C463 1.282 . S
H468 C441 0.931 . S
H469 C443 0.929 . S
H470 C444 0.930 . S
H471 C445 0.931 . S
H472 C452 0.932 . S
H473 C453 0.930 . S
H474 C454 0.929 . S
H475 C456 0.930 . S
H476 C458 0.932 . S
H477 C459 0.929 . S
H478 C460 0.928 . S
H479 C462 0.932 . S
C480 C481 1.264 . S
C480 C485 1.479 . S
C480 C490 1.465 . S
C481 C480 1.264 . S
C481 C483 1.339 . S
C481 H508 0.931 . S
C482 C483 1.395 . S
C482 C484 1.320 . S
C483 C481 1.339 . S
C483 C482 1.395 . S
C483 H509 0.929 . S
C484 C482 1.320 . S
C484 C485 1.405 . S
C484 H510 0.930 . S
C485 C480 1.479 . S
C485 C484 1.405 . S
C485 H511 0.931 . S
U486 O487 2.454 . S
U486 O488 2.458 . S
U486 C489 2.984 . S
U486 C490 2.847 . S
U486 C503 2.882 . S
U486 O504 2.441 . S
U486 O505 2.420 . S
U486 O506 2.455 . S
U486 O507 2.449 . S
O487 U486 2.454 . S
O487 C489 1.353 . S
O488 U486 2.458 . S
O488 C489 1.286 . S
C489 U486 2.984 . S
C489 O487 1.353 . S
C489 O488 1.286 . S
C489 C491 1.363 . S
C490 C480 1.465 . S
C490 U486 2.847 . S
C490 O504 1.249 . S
C490 O505 1.202 . S
C491 C489 1.363 . S
C491 C493 1.408 . S
C491 C496 1.342 . S
C492 C493 1.310 . S
C492 C495 1.461 . S
C492 H512 0.932 . S
C493 C491 1.408 . S
C493 C492 1.310 . S
C493 H513 0.930 . S
C494 C495 1.474 . S
C494 C496 1.285 . S
C494 H514 0.929 . S
C495 C492 1.461 . S
C495 C494 1.474 . S
C496 C491 1.342 . S
C496 C494 1.285 . S
C496 H515 0.930 . S
C497 C500 1.424 . S
C497 C502 1.245 . S
C497 C503 1.428 . S
C498 C501 1.260 . S
C498 C502 1.477 . S
C498 H516 0.932 . S
C499 C500 1.384 . S
C499 C501 1.479 . S
C499 H517 0.929 . S
C500 C497 1.424 . S
C500 C499 1.384 . S
C500 H518 0.928 . S
C501 C498 1.260 . S
C501 C499 1.479 . S
C502 C497 1.245 . S
C502 C498 1.477 . S
C502 H519 0.932 . S
C503 U486 2.882 . S
C503 C497 1.428 . S
C503 O506 1.301 . S
C503 O507 1.282 . S
O504 U486 2.441 . S
O504 C490 1.249 . S
O505 U486 2.420 . S
O505 C490 1.202 . S
O506 U486 2.455 . S
O506 C503 1.301 . S
O507 U486 2.449 . S
O507 C503 1.282 . S
H508 C481 0.931 . S
H509 C483 0.929 . S
H510 C484 0.930 . S
H511 C485 0.931 . S
H512 C492 0.932 . S
H513 C493 0.930 . S
H514 C494 0.929 . S
H515 C496 0.930 . S
H516 C498 0.932 . S
H517 C499 0.929 . S
H518 C500 0.928 . S
H519 C502 0.932 . S
C520 C521 1.264 . S
C520 C525 1.479 . S
C520 C530 1.465 . S
C521 C520 1.264 . S
C521 C523 1.339 . S
C521 H548 0.931 . S
C522 C523 1.395 . S
C522 C524 1.320 . S
C523 C521 1.339 . S
C523 C522 1.395 . S
C523 H549 0.929 . S
C524 C522 1.320 . S
C524 C525 1.405 . S
C524 H550 0.930 . S
C525 C520 1.479 . S
C525 C524 1.405 . S
C525 H551 0.931 . S
U526 O527 2.454 . S
U526 O528 2.458 . S
U526 C529 2.984 . S
U526 C530 2.847 . S
U526 C543 2.882 . S
U526 O544 2.441 . S
U526 O545 2.420 . S
U526 O546 2.455 . S
U526 O547 2.449 . S
O527 U526 2.454 . S
O527 C529 1.353 . S
O528 U526 2.458 . S
O528 C529 1.286 . S
C529 U526 2.984 . S
C529 O527 1.353 . S
C529 O528 1.286 . S
C529 C531 1.363 . S
C530 C520 1.465 . S
C530 U526 2.847 . S
C530 O544 1.249 . S
C530 O545 1.202 . S
C531 C529 1.363 . S
C531 C533 1.408 . S
C531 C536 1.342 . S
C532 C533 1.310 . S
C532 C535 1.461 . S
C532 H552 0.932 . S
C533 C531 1.408 . S
C533 C532 1.310 . S
C533 H553 0.930 . S
C534 C535 1.474 . S
C534 C536 1.285 . S
C534 H554 0.929 . S
C535 C532 1.461 . S
C535 C534 1.474 . S
C536 C531 1.342 . S
C536 C534 1.285 . S
C536 H555 0.930 . S
C537 C540 1.424 . S
C537 C542 1.245 . S
C537 C543 1.428 . S
C538 C541 1.260 . S
C538 C542 1.477 . S
C538 H556 0.932 . S
C539 C540 1.384 . S
C539 C541 1.479 . S
C539 H557 0.929 . S
C540 C537 1.424 . S
C540 C539 1.384 . S
C540 H558 0.928 . S
C541 C538 1.260 . S
C541 C539 1.479 . S
C542 C537 1.245 . S
C542 C538 1.477 . S
C542 H559 0.932 . S
C543 U526 2.882 . S
C543 C537 1.428 . S
C543 O546 1.301 . S
C543 O547 1.282 . S
O544 U526 2.441 . S
O544 C530 1.249 . S
O545 U526 2.420 . S
O545 C530 1.202 . S
O546 U526 2.455 . S
O546 C543 1.301 . S
O547 U526 2.449 . S
O547 C543 1.282 . S
H548 C521 0.931 . S
H549 C523 0.929 . S
H550 C524 0.930 . S
H551 C525 0.931 . S
H552 C532 0.932 . S
H553 C533 0.930 . S
H554 C534 0.929 . S
H555 C536 0.930 . S
H556 C538 0.932 . S
H557 C539 0.929 . S
H558 C540 0.928 . S
H559 C542 0.932 . S
C560 C561 1.264 . S
C560 C565 1.479 . S
C560 C570 1.465 . S
C561 C560 1.264 . S
C561 C563 1.339 . S
C561 H588 0.931 . S
C562 C563 1.395 . S
C562 C564 1.320 . S
C563 C561 1.339 . S
C563 C562 1.395 . S
C563 H589 0.929 . S
C564 C562 1.320 . S
C564 C565 1.405 . S
C564 H590 0.930 . S
C565 C560 1.479 . S
C565 C564 1.405 . S
C565 H591 0.931 . S
U566 O567 2.454 . S
U566 O568 2.458 . S
U566 C569 2.984 . S
U566 C570 2.847 . S
U566 C583 2.882 . S
U566 O584 2.441 . S
U566 O585 2.420 . S
U566 O586 2.455 . S
U566 O587 2.449 . S
O567 U566 2.454 . S
O567 C569 1.353 . S
O568 U566 2.458 . S
O568 C569 1.286 . S
C569 U566 2.984 . S
C569 O567 1.353 . S
C569 O568 1.286 . S
C569 C571 1.363 . S
C570 C560 1.465 . S
C570 U566 2.847 . S
C570 O584 1.249 . S
C570 O585 1.202 . S
C571 C569 1.363 . S
C571 C573 1.408 . S
C571 C576 1.342 . S
C572 C573 1.310 . S
C572 C575 1.461 . S
C572 H592 0.932 . S
C573 C571 1.408 . S
C573 C572 1.310 . S
C573 H593 0.930 . S
C574 C575 1.474 . S
C574 C576 1.285 . S
C574 H594 0.929 . S
C575 C572 1.461 . S
C575 C574 1.474 . S
C576 C571 1.342 . S
C576 C574 1.285 . S
C576 H595 0.930 . S
C577 C580 1.424 . S
C577 C582 1.245 . S
C577 C583 1.428 . S
C578 C581 1.260 . S
C578 C582 1.477 . S
C578 H596 0.932 . S
C579 C580 1.384 . S
C579 C581 1.479 . S
C579 H597 0.929 . S
C580 C577 1.424 . S
C580 C579 1.384 . S
C580 H598 0.928 . S
C581 C578 1.260 . S
C581 C579 1.479 . S
C582 C577 1.245 . S
C582 C578 1.477 . S
C582 H599 0.932 . S
C583 U566 2.882 . S
C583 C577 1.428 . S
C583 O586 1.301 . S
C583 O587 1.282 . S
O584 U566 2.441 . S
O584 C570 1.249 . S
O585 U566 2.420 . S
O585 C570 1.202 . S
O586 U566 2.455 . S
O586 C583 1.301 . S
O587 U566 2.449 . S
O587 C583 1.282 . S
H588 C561 0.931 . S
H589 C563 0.929 . S
H590 C564 0.930 . S
H591 C565 0.931 . S
H592 C572 0.932 . S
H593 C573 0.930 . S
H594 C574 0.929 . S
H595 C576 0.930 . S
H596 C578 0.932 . S
H597 C579 0.929 . S
H598 C580 0.928 . S
H599 C582 0.932 . S
C600 C601 1.264 . S
C600 C605 1.479 . S
C600 C610 1.465 . S
C601 C600 1.264 . S
C601 C603 1.339 . S
C601 H628 0.931 . S
C602 C603 1.395 . S
C602 C604 1.320 . S
C603 C601 1.339 . S
C603 C602 1.395 . S
C603 H629 0.929 . S
C604 C602 1.320 . S
C604 C605 1.405 . S
C604 H630 0.930 . S
C605 C600 1.479 . S
C605 C604 1.405 . S
C605 H631 0.931 . S
U606 O607 2.454 . S
U606 O608 2.458 . S
U606 C609 2.984 . S
U606 C610 2.847 . S
U606 C623 2.882 . S
U606 O624 2.441 . S
U606 O625 2.420 . S
U606 O626 2.455 . S
U606 O627 2.449 . S
O607 U606 2.454 . S
O607 C609 1.353 . S
O608 U606 2.458 . S
O608 C609 1.286 . S
C609 U606 2.984 . S
C609 O607 1.353 . S
C609 O608 1.286 . S
C609 C611 1.363 . S
C610 C600 1.465 . S
C610 U606 2.847 . S
C610 O624 1.249 . S
C610 O625 1.202 . S
C611 C609 1.363 . S
C611 C613 1.408 . S
C611 C616 1.342 . S
C612 C613 1.310 . S
C612 C615 1.461 . S
C612 H632 0.932 . S
C613 C611 1.408 . S
C613 C612 1.310 . S
C613 H633 0.930 . S
C614 C615 1.474 . S
C614 C616 1.285 . S
C614 H634 0.929 . S
C615 C612 1.461 . S
C615 C614 1.474 . S
C616 C611 1.342 . S
C616 C614 1.285 . S
C616 H635 0.930 . S
C617 C620 1.424 . S
C617 C622 1.245 . S
C617 C623 1.428 . S
C618 C621 1.260 . S
C618 C622 1.477 . S
C618 H636 0.932 . S
C619 C620 1.384 . S
C619 C621 1.479 . S
C619 H637 0.929 . S
C620 C617 1.424 . S
C620 C619 1.384 . S
C620 H638 0.928 . S
C621 C618 1.260 . S
C621 C619 1.479 . S
C622 C617 1.245 . S
C622 C618 1.477 . S
C622 H639 0.932 . S
C623 U606 2.882 . S
C623 C617 1.428 . S
C623 O626 1.301 . S
C623 O627 1.282 . S
O624 U606 2.441 . S
O624 C610 1.249 . S
O625 U606 2.420 . S
O625 C610 1.202 . S
O626 U606 2.455 . S
O626 C623 1.301 . S
O627 U606 2.449 . S
O627 C623 1.282 . S
H628 C601 0.931 . S
H629 C603 0.929 . S
H630 C604 0.930 . S
H631 C605 0.931 . S
H632 C612 0.932 . S
H633 C613 0.930 . S
H634 C614 0.929 . S
H635 C616 0.930 . S
H636 C618 0.932 . S
H637 C619 0.929 . S
H638 C620 0.928 . S
H639 C622 0.932 . S
H640 C652 0.930 . S
H641 C654 0.930 . S
H642 C655 0.930 . S
H643 C659 0.959 . S
H644 C659 0.959 . S
H645 C659 0.961 1_565 S
H646 C660 0.960 . S
H647 C660 0.961 1_545 S
H648 C660 0.959 . S
H649 C663 0.929 . S
H650 C664 0.931 . S
H651 C666 0.930 . S
C652 H640 0.930 . S
C652 C653 1.399 . S
C652 C657 1.399 . S
C653 C652 1.399 . S
C653 C654 1.376 . S
C654 H641 0.930 . S
C654 C653 1.376 . S
C654 C655 1.388 . S
C655 H642 0.930 . S
C655 C654 1.388 . S
C655 C656 1.390 . S
C656 C655 1.390 . S
C656 C657 1.394 . S
C656 C662 1.465 1_566 S
C657 C652 1.399 . S
C657 C656 1.394 . S
C657 C658 1.516 1_556 S
C658 C657 1.516 1_554 S
C658 C659 1.502 1_564 S
C658 C660 1.561 . S
C658 C661 1.526 1_565 S
C659 H643 0.959 . S
C659 H644 0.959 . S
C659 H645 0.961 1_545 S
C659 C658 1.502 1_546 S
C660 H646 0.960 . S
C660 H647 0.961 1_565 S
C660 H648 0.959 . S
C660 C658 1.561 . S
C661 C658 1.526 1_545 S
C661 C662 1.396 . S
C661 C666 1.390 . S
C662 C656 1.465 1_544 S
C662 C661 1.396 . S
C662 C663 1.399 . S
C663 H649 0.929 . S
C663 C662 1.399 . S
C663 C664 1.385 . S
C664 H650 0.931 . S
C664 C663 1.385 . S
C664 C665 1.389 . S
C665 C664 1.389 . S
C665 C666 1.387 . S
C666 H651 0.930 . S
C666 C661 1.390 . S
C666 C665 1.387 . S
H667 C679 0.948 . S
H668 C681 0.930 . S
H669 C682 0.930 . S
H670 C686 0.959 . S
H671 C686 0.959 1_455 S
H672 C686 0.961 . S
H673 C687 0.960 1_655 S
H674 C687 0.959 . S
H675 C687 0.959 . S
H676 C690 0.929 . S
H677 C691 0.931 . S
H678 C693 0.930 . S
C679 H667 0.948 . S
C679 C680 1.399 . S
C679 C684 1.399 . S
C680 C679 1.399 . S
C680 C681 1.376 . S
C681 H668 0.930 . S
C681 C680 1.376 . S
C681 C682 1.388 . S
C682 H669 0.930 . S
C682 C681 1.388 . S
C682 C683 1.390 . S
C683 C682 1.390 . S
C683 C684 1.394 . S
C683 C689 1.465 1_655 S
C684 C679 1.399 . S
C684 C683 1.394 . S
C684 C685 1.516 1_554 S
C685 C684 1.516 1_556 S
C685 C686 1.502 . S
C685 C687 1.561 1_656 S
C685 C688 1.526 1_655 S
C686 H670 0.959 . S
C686 H671 0.959 1_655 S
C686 H672 0.961 . S
C686 C685 1.502 . S
C687 H673 0.960 1_455 S
C687 H674 0.959 . S
C687 H675 0.959 . S
C687 C685 1.561 1_454 S
C688 C685 1.526 1_455 S
C688 C689 1.396 1_556 S
C688 C693 1.390 . S
C689 C683 1.465 1_455 S
C689 C688 1.396 1_554 S
C689 C690 1.399 . S
C690 H676 0.929 . S
C690 C689 1.399 . S
C690 C691 1.385 1_554 S
C691 H677 0.931 . S
C691 C690 1.385 1_556 S
C691 C692 1.389 . S
C692 C691 1.389 . S
C692 C693 1.387 . S
C693 H678 0.930 . S
C693 C688 1.390 . S
C693 C692 1.387 . S
H694 C706 0.930 . S
H695 C708 0.930 . S
H696 C709 0.930 . S
H697 C713 0.950 1_544 S
H698 C713 1.011 . S
H699 C713 0.916 1_545 S
H700 C714 0.922 1_545 S
H701 C714 0.961 . S
H702 C714 0.959 . S
H703 C717 0.929 . S
H704 C718 0.931 . S
H705 C720 0.930 . S
C706 H694 0.930 . S
C706 C707 1.399 . S
C706 C711 1.399 . S
C707 C706 1.399 . S
C707 C708 1.376 . S
C708 H695 0.930 . S
C708 C707 1.376 . S
C708 C709 1.388 1_556 S
C709 H696 0.930 . S
C709 C708 1.388 1_554 S
C709 C710 1.390 1_554 S
C710 C709 1.390 1_556 S
C710 C711 1.394 . S
C710 C716 1.465 1_546 S
C711 C706 1.399 . S
C711 C710 1.394 . S
C711 C712 1.516 1_545 S
C712 C711 1.516 1_565 S
C712 C713 1.509 . S
C712 C714 1.561 . S
C712 C715 1.527 1_556 S
C713 H697 0.950 1_566 S
C713 H698 1.011 . S
C713 H699 0.916 1_565 S
C713 C712 1.509 . S
C714 H700 0.922 1_565 S
C714 H701 0.961 . S
C714 H702 0.959 . S
C714 C712 1.561 . S
C715 C712 1.527 1_554 S
C715 C716 1.396 . S
C715 C720 1.389 . S
C716 C710 1.465 1_564 S
C716 C715 1.396 . S
C716 C717 1.399 . S
C717 H703 0.929 . S
C717 C716 1.399 . S
C717 C718 1.385 . S
C718 H704 0.931 . S
C718 C717 1.385 . S
C718 C719 1.389 . S
C719 C718 1.389 . S
C719 C720 1.387 . S
C720 H705 0.930 . S
C720 C715 1.389 . S
C720 C719 1.387 . S
H721 C733 0.930 . S
H722 C735 0.930 . S
H723 C736 0.930 . S
H724 C740 0.959 . S
H725 C740 0.959 1_655 S
H726 C740 0.961 . S
H727 C741 0.960 1_455 S
H728 C741 0.961 . S
H729 C741 0.959 . S
H730 C744 0.929 . S
H731 C745 0.931 . S
H732 C747 0.930 . S
C733 H721 0.930 . S
C733 C734 1.399 . S
C733 C738 1.399 . S
C734 C733 1.399 . S
C734 C735 1.376 . S
C735 H722 0.930 . S
C735 C734 1.376 . S
C735 C736 1.388 . S
C736 H723 0.930 . S
C736 C735 1.388 . S
C736 C737 1.390 . S
C737 C736 1.390 . S
C737 C738 1.394 . S
C737 C743 1.465 1_454 S
C738 C733 1.399 . S
C738 C737 1.394 . S
C738 C739 1.487 1_455 S
C739 C738 1.487 1_655 S
C739 C740 1.495 1_654 S
C739 C741 1.571 . S
C739 C742 1.554 1_554 S
C740 H724 0.959 . S
C740 H725 0.959 1_455 S
C740 H726 0.961 . S
C740 C739 1.495 1_456 S
C741 H727 0.960 1_655 S
C741 H728 0.961 . S
C741 H729 0.959 . S
C741 C739 1.571 . S
C742 C739 1.554 1_556 S
C742 C743 1.396 . S
C742 C747 1.390 . S
C743 C737 1.465 1_656 S
C743 C742 1.396 . S
C743 C744 1.399 . S
C744 H730 0.929 . S
C744 C743 1.399 . S
C744 C745 1.385 . S
C745 H731 0.931 . S
C745 C744 1.385 . S
C745 C746 1.389 . S
C746 C745 1.389 . S
C746 C747 1.387 . S
C747 H732 0.930 . S
C747 C742 1.390 . S
C747 C746 1.387 . S
H748 C760 0.930 . S
H749 C762 0.930 . S
H750 C763 0.930 . S
H751 C767 0.959 . S
H752 C767 0.959 . S
H753 C767 0.961 . S
H754 C768 0.960 . S
H755 C768 0.961 . S
H756 C768 0.959 . S
H757 C771 0.929 . S
H758 C772 0.931 . S
H759 C774 0.930 . S
C760 H748 0.930 . S
C760 C761 1.399 . S
C760 C765 1.399 . S
C761 C760 1.399 . S
C761 C762 1.376 . S
C762 H749 0.930 . S
C762 C761 1.376 . S
C762 C763 1.388 . S
C763 H750 0.930 . S
C763 C762 1.388 . S
C763 C764 1.390 . S
C764 C763 1.390 . S
C764 C765 1.394 . S
C764 C770 1.465 . S
C765 C760 1.399 . S
C765 C764 1.394 . S
C765 C766 1.516 . S
C766 C765 1.516 . S
C766 C767 1.502 . S
C766 C768 1.561 . S
C766 C769 1.526 . S
C767 H751 0.959 . S
C767 H752 0.959 . S
C767 H753 0.961 . S
C767 C766 1.502 . S
C768 H754 0.960 . S
C768 H755 0.961 . S
C768 H756 0.959 . S
C768 C766 1.561 . S
C769 C766 1.526 . S
C769 C770 1.396 . S
C769 C774 1.390 . S
C770 C764 1.465 . S
C770 C769 1.396 . S
C770 C771 1.399 . S
C771 H757 0.929 . S
C771 C770 1.399 . S
C771 C772 1.385 . S
C772 H758 0.931 . S
C772 C771 1.385 . S
C772 C773 1.389 . S
C773 C772 1.389 . S
C773 C774 1.387 . S
C774 H759 0.930 . S
C774 C769 1.390 . S
C774 C773 1.387 . S
H775 C787 0.930 . S
H776 C789 0.930 . S
H777 C790 0.930 . S
H778 C794 0.959 . S
H779 C794 0.959 . S
H780 C794 0.961 . S
H781 C795 0.960 . S
H782 C795 0.961 . S
H783 C795 0.959 . S
H784 C798 0.929 . S
H785 C799 0.931 . S
H786 C801 0.930 . S
C787 H775 0.930 . S
C787 C788 1.399 . S
C787 C792 1.399 . S
C788 C787 1.399 . S
C788 C789 1.376 . S
C789 H776 0.930 . S
C789 C788 1.376 . S
C789 C790 1.388 . S
C790 H777 0.930 . S
C790 C789 1.388 . S
C790 C791 1.390 . S
C791 C790 1.390 . S
C791 C792 1.394 . S
C791 C797 1.465 . S
C792 C787 1.399 . S
C792 C791 1.394 . S
C792 C793 1.516 . S
C793 C792 1.516 . S
C793 C794 1.502 . S
C793 C795 1.561 . S
C793 C796 1.526 . S
C794 H778 0.959 . S
C794 H779 0.959 . S
C794 H780 0.961 . S
C794 C793 1.502 . S
C795 H781 0.960 . S
C795 H782 0.961 . S
C795 H783 0.959 . S
C795 C793 1.561 . S
C796 C793 1.526 . S
C796 C797 1.396 . S
C796 C801 1.390 . S
C797 C791 1.465 . S
C797 C796 1.396 . S
C797 C798 1.399 . S
C798 H784 0.929 . S
C798 C797 1.399 . S
C798 C799 1.385 . S
C799 H785 0.931 . S
C799 C798 1.385 . S
C799 C800 1.389 . S
C800 C799 1.389 . S
C800 C801 1.387 . S
C801 H786 0.930 . S
C801 C796 1.390 . S
C801 C800 1.387 . S
H802 C814 0.930 . S
H803 C816 0.930 . S
H804 C817 0.930 . S
H805 C821 0.959 . S
H806 C821 0.959 . S
H807 C821 0.961 . S
H808 C822 0.960 . S
H809 C822 0.961 . S
H810 C822 0.959 . S
H811 C825 0.929 . S
H812 C826 0.931 . S
H813 C828 0.930 . S
C814 H802 0.930 . S
C814 C815 1.399 . S
C814 C819 1.399 . S
C815 C814 1.399 . S
C815 C816 1.376 . S
C816 H803 0.930 . S
C816 C815 1.376 . S
C816 C817 1.388 . S
C817 H804 0.930 . S
C817 C816 1.388 . S
C817 C818 1.390 . S
C818 C817 1.390 . S
C818 C819 1.394 . S
C818 C824 1.465 . S
C819 C814 1.399 . S
C819 C818 1.394 . S
C819 C820 1.516 . S
C820 C819 1.516 . S
C820 C821 1.502 . S
C820 C822 1.561 . S
C820 C823 1.526 . S
C821 H805 0.959 . S
C821 H806 0.959 . S
C821 H807 0.961 . S
C821 C820 1.502 . S
C822 H808 0.960 . S
C822 H809 0.961 . S
C822 H810 0.959 . S
C822 C820 1.561 . S
C823 C820 1.526 . S
C823 C824 1.396 . S
C823 C828 1.390 . S
C824 C818 1.465 . S
C824 C823 1.396 . S
C824 C825 1.399 . S
C825 H811 0.929 . S
C825 C824 1.399 . S
C825 C826 1.385 . S
C826 H812 0.931 . S
C826 C825 1.385 . S
C826 C827 1.389 . S
C827 C826 1.389 . S
C827 C828 1.387 . S
C828 H813 0.930 . S
C828 C823 1.390 . S
C828 C827 1.387 . S
H829 C841 0.930 . S
H830 C843 0.930 . S
H831 C844 0.930 . S
H832 C848 0.959 . S
H833 C848 0.959 . S
H834 C848 0.961 . S
H835 C849 0.960 . S
H836 C849 0.961 . S
H837 C849 0.959 . S
H838 C852 0.929 . S
H839 C853 0.931 . S
H840 C855 0.930 . S
C841 H829 0.930 . S
C841 C842 1.399 . S
C841 C846 1.399 . S
C842 C841 1.399 . S
C842 C843 1.376 . S
C843 H830 0.930 . S
C843 C842 1.376 . S
C843 C844 1.388 . S
C844 H831 0.930 . S
C844 C843 1.388 . S
C844 C845 1.390 . S
C845 C844 1.390 . S
C845 C846 1.394 . S
C845 C851 1.465 . S
C846 C841 1.399 . S
C846 C845 1.394 . S
C846 C847 1.516 . S
C847 C846 1.516 . S
C847 C848 1.502 . S
C847 C849 1.561 . S
C847 C850 1.526 . S
C848 H832 0.959 . S
C848 H833 0.959 . S
C848 H834 0.961 . S
C848 C847 1.502 . S
C849 H835 0.960 . S
C849 H836 0.961 . S
C849 H837 0.959 . S
C849 C847 1.561 . S
C850 C847 1.526 . S
C850 C851 1.396 . S
C850 C855 1.390 . S
C851 C845 1.465 . S
C851 C850 1.396 . S
C851 C852 1.399 . S
C852 H838 0.929 . S
C852 C851 1.399 . S
C852 C853 1.385 . S
C853 H839 0.931 . S
C853 C852 1.385 . S
C853 C854 1.389 . S
C854 C853 1.389 . S
C854 C855 1.387 . S
C855 H840 0.930 . S
C855 C850 1.390 . S
C855 C854 1.387 . S
H856 C868 0.930 . S
H857 C870 0.930 . S
H858 C871 0.930 . S
H859 C875 0.959 . S
H860 C875 0.959 . S
H861 C875 0.961 . S
H862 C876 0.960 . S
H863 C876 0.961 . S
H864 C876 0.959 . S
H865 C879 0.929 . S
H866 C880 0.931 . S
H867 C882 0.930 . S
C868 H856 0.930 . S
C868 C869 1.399 . S
C868 C873 1.399 . S
C869 C868 1.399 . S
C869 C870 1.376 1_554 S
C870 H857 0.930 . S
C870 C869 1.376 1_556 S
C870 C871 1.388 . S
C871 H858 0.930 . S
C871 C870 1.388 . S
C871 C872 1.390 . S
C872 C871 1.390 . S
C872 C873 1.394 1_556 S
C872 C878 1.465 . S
C873 C868 1.399 . S
C873 C872 1.394 1_554 S
C873 C874 1.516 . S
C874 C873 1.516 . S
C874 C875 1.502 . S
C874 C876 1.561 . S
C874 C877 1.526 . S
C875 H859 0.959 . S
C875 H860 0.959 . S
C875 H861 0.961 . S
C875 C874 1.502 . S
C876 H862 0.960 . S
C876 H863 0.961 . S
C876 H864 0.959 . S
C876 C874 1.561 . S
C877 C874 1.526 . S
C877 C878 1.396 1_554 S
C877 C882 1.390 . S
C878 C872 1.465 . S
C878 C877 1.396 1_556 S
C878 C879 1.399 . S
C879 H865 0.929 . S
C879 C878 1.399 . S
C879 C880 1.385 . S
C880 H866 0.931 . S
C880 C879 1.385 . S
C880 C881 1.389 . S
C881 C880 1.389 . S
C881 C882 1.387 1_556 S
C882 H867 0.930 . S
C882 C877 1.390 . S
C882 C881 1.387 1_554 S
H883 C895 0.930 . S
H884 C897 0.930 . S
H885 C898 0.930 . S
H886 C902 0.959 . S
H887 C902 0.959 . S
H888 C902 0.961 . S
H889 C903 0.960 . S
H890 C903 0.961 . S
H891 C903 0.959 . S
H892 C906 0.929 . S
H893 C907 0.931 . S
H894 C909 0.930 . S
C895 H883 0.930 . S
C895 C896 1.399 . S
C895 C900 1.399 . S
C896 C895 1.399 . S
C896 C897 1.376 1_556 S
C897 H884 0.930 . S
C897 C896 1.376 1_554 S
C897 C898 1.388 . S
C898 H885 0.930 . S
C898 C897 1.388 . S
C898 C899 1.390 . S
C899 C898 1.390 . S
C899 C900 1.394 1_554 S
C899 C905 1.465 . S
C900 C895 1.399 . S
C900 C899 1.394 1_556 S
C900 C901 1.516 . S
C901 C900 1.516 . S
C901 C902 1.502 . S
C901 C903 1.561 . S
C901 C904 1.526 . S
C902 H886 0.959 . S
C902 H887 0.959 . S
C902 H888 0.961 . S
C902 C901 1.502 . S
C903 H889 0.960 . S
C903 H890 0.961 . S
C903 H891 0.959 . S
C903 C901 1.561 . S
C904 C901 1.526 . S
C904 C905 1.396 1_556 S
C904 C909 1.390 . S
C905 C899 1.465 . S
C905 C904 1.396 1_554 S
C905 C906 1.399 . S
C906 H892 0.929 . S
C906 C905 1.399 . S
C906 C907 1.385 . S
C907 H893 0.931 . S
C907 C906 1.385 . S
C907 C908 1.389 . S
C908 C907 1.389 . S
C908 C909 1.387 1_554 S
C909 H894 0.930 . S
C909 C904 1.390 . S
C909 C908 1.387 1_556 S
H910 C922 0.930 1_556 S
H911 C924 0.930 . S
H912 C925 0.930 . S
H913 C929 0.959 1_554 S
H914 C929 0.959 . S
H915 C929 0.961 . S
H916 C930 0.960 . S
H917 C930 0.961 . S
H918 C930 0.959 . S
H919 C933 0.929 . S
H920 C934 0.931 1_554 S
H921 C936 0.930 . S
C922 H910 0.930 1_554 S
C922 C923 1.399 . S
C922 C927 1.399 1_554 S
C923 C922 1.399 . S
C923 C924 1.376 . S
C924 H911 0.930 . S
C924 C923 1.376 . S
C924 C925 1.388 . S
C925 H912 0.930 . S
C925 C924 1.388 . S
C925 C926 1.390 . S
C926 C925 1.390 . S
C926 C927 1.394 1_554 S
C926 C932 1.472 . S
C927 C922 1.399 1_556 S
C927 C926 1.394 1_556 S
C927 C928 1.516 . S
C928 C927 1.516 . S
C928 C929 1.502 . S
C928 C930 1.561 . S
C928 C931 1.526 . S
C929 H913 0.959 1_556 S
C929 H914 0.959 . S
C929 H915 0.961 . S
C929 C928 1.502 . S
C930 H916 0.960 . S
C930 H917 0.961 . S
C930 H918 0.959 . S
C930 C928 1.561 . S
C931 C928 1.526 . S
C931 C932 1.382 1_556 S
C931 C936 1.390 . S
C932 C926 1.472 . S
C932 C931 1.382 1_554 S
C932 C933 1.405 . S
C933 H919 0.929 . S
C933 C932 1.405 . S
C933 C934 1.385 1_554 S
C934 H920 0.931 1_556 S
C934 C933 1.385 1_556 S
C934 C935 1.389 . S
C935 C934 1.389 . S
C935 C936 1.387 . S
C936 H921 0.930 . S
C936 C931 1.390 . S
C936 C935 1.387 . S
H937 C949 0.930 . S
H938 C951 0.930 . S
H939 C952 0.930 . S
H940 C956 0.959 . S
H941 C956 0.959 . S
H942 C956 0.961 . S
H943 C957 0.960 . S
H944 C957 0.961 . S
H945 C957 0.959 . S
H946 C960 0.929 . S
H947 C961 0.931 . S
H948 C963 0.930 . S
C949 H937 0.930 . S
C949 C950 1.399 . S
C949 C954 1.399 . S
C950 C949 1.399 . S
C950 C951 1.376 1_554 S
C951 H938 0.930 . S
C951 C950 1.376 1_556 S
C951 C952 1.388 . S
C952 H939 0.930 . S
C952 C951 1.388 . S
C952 C953 1.390 . S
C953 C952 1.390 . S
C953 C954 1.394 1_556 S
C953 C959 1.465 . S
C954 C949 1.399 . S
C954 C953 1.394 1_554 S
C954 C955 1.516 . S
C955 C954 1.516 . S
C955 C956 1.502 . S
C955 C957 1.561 . S
C955 C958 1.526 . S
C956 H940 0.959 . S
C956 H941 0.959 . S
C956 H942 0.961 . S
C956 C955 1.502 . S
C957 H943 0.960 . S
C957 H944 0.961 . S
C957 H945 0.959 . S
C957 C955 1.561 . S
C958 C955 1.526 . S
C958 C959 1.396 1_554 S
C958 C963 1.390 . S
C959 C953 1.465 . S
C959 C958 1.396 1_556 S
C959 C960 1.399 . S
C960 H946 0.929 . S
C960 C959 1.399 . S
C960 C961 1.385 . S
C961 H947 0.931 . S
C961 C960 1.385 . S
C961 C962 1.389 . S
C962 C961 1.389 . S
C962 C963 1.387 1_556 S
C963 H948 0.930 . S
C963 C958 1.390 . S
C963 C962 1.387 1_554 S
H964 C976 0.930 . S
H965 C978 0.930 . S
H966 C979 0.930 . S
H967 C983 0.959 . S
H968 C983 0.959 . S
H969 C983 0.961 . S
H970 C984 0.960 . S
H971 C984 0.961 . S
H972 C984 0.959 . S
H973 C987 0.929 . S
H974 C988 0.931 . S
H975 C990 0.930 . S
C976 H964 0.930 . S
C976 C977 1.399 . S
C976 C981 1.399 . S
C977 C976 1.399 . S
C977 C978 1.376 . S
C978 H965 0.930 . S
C978 C977 1.376 . S
C978 C979 1.388 . S
C979 H966 0.930 . S
C979 C978 1.388 . S
C979 C980 1.390 . S
C980 C979 1.390 . S
C980 C981 1.394 . S
C980 C986 1.465 . S
C981 C976 1.399 . S
C981 C980 1.394 . S
C981 C982 1.516 . S
C982 C981 1.516 . S
C982 C983 1.502 . S
C982 C984 1.561 . S
C982 C985 1.526 . S
C983 H967 0.959 . S
C983 H968 0.959 . S
C983 H969 0.961 . S
C983 C982 1.502 . S
C984 H970 0.960 . S
C984 H971 0.961 . S
C984 H972 0.959 . S
C984 C982 1.561 . S
C985 C982 1.526 . S
C985 C986 1.396 . S
C985 C990 1.390 . S
C986 C980 1.465 . S
C986 C985 1.396 . S
C986 C987 1.399 . S
C987 H973 0.929 . S
C987 C986 1.399 . S
C987 C988 1.385 . S
C988 H974 0.931 . S
C988 C987 1.385 . S
C988 C989 1.389 . S
C989 C988 1.389 . S
C989 C990 1.387 . S
C990 H975 0.930 . S
C990 C985 1.390 . S
C990 C989 1.387 . S
H991 C1003 0.930 . S
H992 C1005 0.930 . S
H993 C1006 0.930 . S
H994 C1010 0.959 . S
H995 C1010 0.959 . S
H996 C1010 0.961 . S
H997 C1011 0.960 . S
H998 C1011 0.961 . S
H999 C1011 0.959 . S
H1000 C1014 0.929 . S
H1001 C1015 0.931 . S
H1002 C1017 0.930 . S
C1003 H991 0.930 . S
C1003 C1004 1.399 . S
C1003 C1008 1.399 . S
C1004 C1003 1.399 . S
C1004 C1005 1.376 . S
C1005 H992 0.930 . S
C1005 C1004 1.376 . S
C1005 C1006 1.388 . S
C1006 H993 0.930 . S
C1006 C1005 1.388 . S
C1006 C1007 1.390 . S
C1007 C1006 1.390 . S
C1007 C1008 1.394 . S
C1007 C1013 1.465 . S
C1008 C1003 1.399 . S
C1008 C1007 1.394 . S
C1008 C1009 1.516 . S
C1009 C1008 1.516 . S
C1009 C1010 1.502 . S
C1009 C1011 1.561 . S
C1009 C1012 1.526 . S
C1010 H994 0.959 . S
C1010 H995 0.959 . S
C1010 H996 0.961 . S
C1010 C1009 1.502 . S
C1011 H997 0.960 . S
C1011 H998 0.961 . S
C1011 H999 0.959 . S
C1011 C1009 1.561 . S
C1012 C1009 1.526 . S
C1012 C1013 1.396 . S
C1012 C1017 1.390 . S
C1013 C1007 1.465 . S
C1013 C1012 1.396 . S
C1013 C1014 1.399 . S
C1014 H1000 0.929 . S
C1014 C1013 1.399 . S
C1014 C1015 1.385 . S
C1015 H1001 0.931 . S
C1015 C1014 1.385 . S
C1015 C1016 1.389 . S
C1016 C1015 1.389 . S
C1016 C1017 1.387 . S
C1017 H1002 0.930 . S
C1017 C1012 1.390 . S
C1017 C1016 1.387 . S
H1018 C1030 0.930 . S
H1019 C1032 0.930 . S
H1020 C1033 0.930 . S
H1021 C1037 0.959 . S
H1022 C1037 0.959 . S
H1023 C1037 0.961 . S
H1024 C1038 0.960 . S
H1025 C1038 0.961 . S
H1026 C1038 0.959 . S
H1027 C1041 0.929 . S
H1028 C1042 0.931 . S
H1029 C1044 0.930 . S
C1030 H1018 0.930 . S
C1030 C1031 1.399 . S
C1030 C1035 1.399 . S
C1031 C1030 1.399 . S
C1031 C1032 1.376 . S
C1032 H1019 0.930 . S
C1032 C1031 1.376 . S
C1032 C1033 1.388 . S
C1033 H1020 0.930 . S
C1033 C1032 1.388 . S
C1033 C1034 1.390 . S
C1034 C1033 1.390 . S
C1034 C1035 1.394 . S
C1034 C1040 1.465 . S
C1035 C1030 1.399 . S
C1035 C1034 1.394 . S
C1035 C1036 1.516 . S
C1036 C1035 1.516 . S
C1036 C1037 1.502 . S
C1036 C1038 1.561 . S
C1036 C1039 1.526 . S
C1037 H1021 0.959 . S
C1037 H1022 0.959 . S
C1037 H1023 0.961 . S
C1037 C1036 1.502 . S
C1038 H1024 0.960 . S
C1038 H1025 0.961 . S
C1038 H1026 0.959 . S
C1038 C1036 1.561 . S
C1039 C1036 1.526 . S
C1039 C1040 1.396 . S
C1039 C1044 1.390 . S
C1040 C1034 1.465 . S
C1040 C1039 1.396 . S
C1040 C1041 1.399 . S
C1041 H1027 0.929 . S
C1041 C1040 1.399 . S
C1041 C1042 1.385 . S
C1042 H1028 0.931 . S
C1042 C1041 1.385 . S
C1042 C1043 1.389 . S
C1043 C1042 1.389 . S
C1043 C1044 1.387 . S
C1044 H1029 0.930 . S
C1044 C1039 1.390 . S
C1044 C1043 1.387 . S
H1045 C1057 0.930 . S
H1046 C1059 0.930 . S
H1047 C1060 0.930 . S
H1048 C1064 0.959 . S
H1049 C1064 0.959 . S
H1050 C1064 0.961 . S
H1051 C1065 0.960 . S
H1052 C1065 0.961 . S
H1053 C1065 0.959 . S
H1054 C1068 0.929 . S
H1055 C1069 0.931 . S
H1056 C1071 0.930 . S
C1057 H1045 0.930 . S
C1057 C1058 1.399 . S
C1057 C1062 1.399 . S
C1058 C1057 1.399 . S
C1058 C1059 1.376 . S
C1059 H1046 0.930 . S
C1059 C1058 1.376 . S
C1059 C1060 1.388 . S
C1060 H1047 0.930 . S
C1060 C1059 1.388 . S
C1060 C1061 1.390 . S
C1061 C1060 1.390 . S
C1061 C1062 1.394 . S
C1061 C1067 1.465 . S
C1062 C1057 1.399 . S
C1062 C1061 1.394 . S
C1062 C1063 1.516 . S
C1063 C1062 1.516 . S
C1063 C1064 1.502 . S
C1063 C1065 1.561 . S
C1063 C1066 1.526 . S
C1064 H1048 0.959 . S
C1064 H1049 0.959 . S
C1064 H1050 0.961 . S
C1064 C1063 1.502 . S
C1065 H1051 0.960 . S
C1065 H1052 0.961 . S
C1065 H1053 0.959 . S
C1065 C1063 1.561 . S
C1066 C1063 1.526 . S
C1066 C1067 1.396 . S
C1066 C1071 1.390 . S
C1067 C1061 1.465 . S
C1067 C1066 1.396 . S
C1067 C1068 1.399 . S
C1068 H1054 0.929 . S
C1068 C1067 1.399 . S
C1068 C1069 1.385 . S
C1069 H1055 0.931 . S
C1069 C1068 1.385 . S
C1069 C1070 1.389 . S
C1070 C1069 1.389 . S
C1070 C1071 1.387 . S
C1071 H1056 0.930 . S
C1071 C1066 1.390 . S
C1071 C1070 1.387 . S
H1072 C1084 0.930 . S
H1073 C1086 0.930 . S
H1074 C1087 0.930 . S
H1075 C1091 0.959 . S
H1076 C1091 0.959 . S
H1077 C1091 0.961 . S
H1078 C1092 0.960 . S
H1079 C1092 0.961 . S
H1080 C1092 0.959 . S
H1081 C1095 0.929 . S
H1082 C1096 0.931 . S
H1083 C1098 0.930 . S
C1084 H1072 0.930 . S
C1084 C1085 1.399 . S
C1084 C1089 1.399 . S
C1085 C1084 1.399 . S
C1085 C1086 1.376 . S
C1086 H1073 0.930 . S
C1086 C1085 1.376 . S
C1086 C1087 1.388 . S
C1087 H1074 0.930 . S
C1087 C1086 1.388 . S
C1087 C1088 1.390 . S
C1088 C1087 1.390 . S
C1088 C1089 1.394 . S
C1088 C1094 1.465 . S
C1089 C1084 1.399 . S
C1089 C1088 1.394 . S
C1089 C1090 1.516 . S
C1090 C1089 1.516 . S
C1090 C1091 1.502 . S
C1090 C1092 1.561 . S
C1090 C1093 1.526 . S
C1091 H1075 0.959 . S
C1091 H1076 0.959 . S
C1091 H1077 0.961 . S
C1091 C1090 1.502 . S
C1092 H1078 0.960 . S
C1092 H1079 0.961 . S
C1092 H1080 0.959 . S
C1092 C1090 1.561 . S
C1093 C1090 1.526 . S
C1093 C1094 1.396 . S
C1093 C1098 1.390 . S
C1094 C1088 1.465 . S
C1094 C1093 1.396 . S
C1094 C1095 1.399 . S
C1095 H1081 0.929 . S
C1095 C1094 1.399 . S
C1095 C1096 1.385 . S
C1096 H1082 0.931 . S
C1096 C1095 1.385 . S
C1096 C1097 1.389 . S
C1097 C1096 1.389 . S
C1097 C1098 1.387 . S
C1098 H1083 0.930 . S
C1098 C1093 1.390 . S
C1098 C1097 1.387 . S
H1099 C1111 0.930 . S
H1100 C1113 0.930 . S
H1101 C1114 0.930 . S
H1102 C1118 0.959 . S
H1103 C1118 0.959 . S
H1104 C1118 0.961 . S
H1105 C1119 0.960 . S
H1106 C1119 0.961 . S
H1107 C1119 0.959 . S
H1108 C1122 0.929 . S
H1109 C1123 0.931 . S
H1110 C1125 0.930 . S
C1111 H1099 0.930 . S
C1111 C1112 1.399 . S
C1111 C1116 1.399 . S
C1112 C1111 1.399 . S
C1112 C1113 1.376 . S
C1113 H1100 0.930 . S
C1113 C1112 1.376 . S
C1113 C1114 1.388 . S
C1114 H1101 0.930 . S
C1114 C1113 1.388 . S
C1114 C1115 1.390 . S
C1115 C1114 1.390 . S
C1115 C1116 1.394 . S
C1115 C1121 1.465 . S
C1116 C1111 1.399 . S
C1116 C1115 1.394 . S
C1116 C1117 1.516 . S
C1117 C1116 1.516 . S
C1117 C1118 1.502 . S
C1117 C1119 1.561 . S
C1117 C1120 1.526 . S
C1118 H1102 0.959 . S
C1118 H1103 0.959 . S
C1118 H1104 0.961 . S
C1118 C1117 1.502 . S
C1119 H1105 0.960 . S
C1119 H1106 0.961 . S
C1119 H1107 0.959 . S
C1119 C1117 1.561 . S
C1120 C1117 1.526 . S
C1120 C1121 1.396 . S
C1120 C1125 1.390 . S
C1121 C1115 1.465 . S
C1121 C1120 1.396 . S
C1121 C1122 1.399 . S
C1122 H1108 0.929 . S
C1122 C1121 1.399 . S
C1122 C1123 1.385 . S
C1123 H1109 0.931 . S
C1123 C1122 1.385 . S
C1123 C1124 1.389 . S
C1124 C1123 1.389 . S
C1124 C1125 1.387 . S
C1125 H1110 0.930 . S
C1125 C1120 1.390 . S
C1125 C1124 1.387 . S
H1126 C1138 0.930 . S
H1127 C1140 0.930 . S
H1128 C1141 0.930 . S
H1129 C1145 0.959 . S
H1130 C1145 0.959 . S
H1131 C1145 0.961 . S
H1132 C1146 0.960 . S
H1133 C1146 0.961 . S
H1134 C1146 0.959 . S
H1135 C1149 0.929 . S
H1136 C1150 0.931 . S
H1137 C1152 0.930 . S
C1138 H1126 0.930 . S
C1138 C1139 1.399 . S
C1138 C1143 1.399 . S
C1139 C1138 1.399 . S
C1139 C1140 1.376 . S
C1140 H1127 0.930 . S
C1140 C1139 1.376 . S
C1140 C1141 1.388 . S
C1141 H1128 0.930 . S
C1141 C1140 1.388 . S
C1141 C1142 1.390 . S
C1142 C1141 1.390 . S
C1142 C1143 1.394 . S
C1142 C1148 1.465 . S
C1143 C1138 1.399 . S
C1143 C1142 1.394 . S
C1143 C1144 1.516 . S
C1144 C1143 1.516 . S
C1144 C1145 1.502 . S
C1144 C1146 1.561 . S
C1144 C1147 1.526 . S
C1145 H1129 0.959 . S
C1145 H1130 0.959 . S
C1145 H1131 0.961 . S
C1145 C1144 1.502 . S
C1146 H1132 0.960 . S
C1146 H1133 0.961 . S
C1146 H1134 0.959 . S
C1146 C1144 1.561 . S
C1147 C1144 1.526 . S
C1147 C1148 1.396 . S
C1147 C1152 1.390 . S
C1148 C1142 1.465 . S
C1148 C1147 1.396 . S
C1148 C1149 1.399 . S
C1149 H1135 0.929 . S
C1149 C1148 1.399 . S
C1149 C1150 1.385 . S
C1150 H1136 0.931 . S
C1150 C1149 1.385 . S
C1150 C1151 1.389 . S
C1151 C1150 1.389 . S
C1151 C1152 1.387 . S
C1152 H1137 0.930 . S
C1152 C1147 1.390 . S
C1152 C1151 1.387 . S
H1153 C1165 0.930 . S
H1154 C1167 0.930 . S
H1155 C1168 0.930 . S
H1156 C1172 0.959 . S
H1157 C1172 0.959 . S
H1158 C1172 0.961 . S
H1159 C1173 0.960 . S
H1160 C1173 0.961 . S
H1161 C1173 0.959 . S
H1162 C1176 0.929 . S
H1163 C1177 0.931 . S
H1164 C1179 0.930 . S
C1165 H1153 0.930 . S
C1165 C1166 1.399 . S
C1165 C1170 1.399 . S
C1166 C1165 1.399 . S
C1166 C1167 1.376 . S
C1167 H1154 0.930 . S
C1167 C1166 1.376 . S
C1167 C1168 1.388 . S
C1168 H1155 0.930 . S
C1168 C1167 1.388 . S
C1168 C1169 1.390 . S
C1169 C1168 1.390 . S
C1169 C1170 1.394 . S
C1169 C1175 1.465 . S
C1170 C1165 1.399 . S
C1170 C1169 1.394 . S
C1170 C1171 1.516 . S
C1171 C1170 1.516 . S
C1171 C1172 1.502 . S
C1171 C1173 1.561 . S
C1171 C1174 1.526 . S
C1172 H1156 0.959 . S
C1172 H1157 0.959 . S
C1172 H1158 0.961 . S
C1172 C1171 1.502 . S
C1173 H1159 0.960 . S
C1173 H1160 0.961 . S
C1173 H1161 0.959 . S
C1173 C1171 1.561 . S
C1174 C1171 1.526 . S
C1174 C1175 1.396 . S
C1174 C1179 1.390 . S
C1175 C1169 1.465 . S
C1175 C1174 1.396 . S
C1175 C1176 1.399 . S
C1176 H1162 0.929 . S
C1176 C1175 1.399 . S
C1176 C1177 1.385 . S
C1177 H1163 0.931 . S
C1177 C1176 1.385 . S
C1177 C1178 1.389 . S
C1178 C1177 1.389 . S
C1178 C1179 1.387 . S
C1179 H1164 0.930 . S
C1179 C1174 1.390 . S
C1179 C1178 1.387 . S
H1180 C1192 0.930 . S
H1181 C1194 0.930 . S
H1182 C1195 0.930 . S
H1183 C1199 0.959 . S
H1184 C1199 0.959 . S
H1185 C1199 0.961 . S
H1186 C1200 0.960 . S
H1187 C1200 0.961 . S
H1188 C1200 0.959 . S
H1189 C1203 0.929 . S
H1190 C1204 0.931 . S
H1191 C1206 0.930 . S
C1192 H1180 0.930 . S
C1192 C1193 1.399 . S
C1192 C1197 1.399 . S
C1193 C1192 1.399 . S
C1193 C1194 1.376 . S
C1194 H1181 0.930 . S
C1194 C1193 1.376 . S
C1194 C1195 1.388 . S
C1195 H1182 0.930 . S
C1195 C1194 1.388 . S
C1195 C1196 1.390 . S
C1196 C1195 1.390 . S
C1196 C1197 1.394 . S
C1196 C1202 1.465 . S
C1197 C1192 1.399 . S
C1197 C1196 1.394 . S
C1197 C1198 1.516 . S
C1198 C1197 1.516 . S
C1198 C1199 1.502 . S
C1198 C1200 1.561 . S
C1198 C1201 1.526 . S
C1199 H1183 0.959 . S
C1199 H1184 0.959 . S
C1199 H1185 0.961 . S
C1199 C1198 1.502 . S
C1200 H1186 0.960 . S
C1200 H1187 0.961 . S
C1200 H1188 0.959 . S
C1200 C1198 1.561 . S
C1201 C1198 1.526 . S
C1201 C1202 1.396 . S
C1201 C1206 1.390 . S
C1202 C1196 1.465 . S
C1202 C1201 1.396 . S
C1202 C1203 1.399 . S
C1203 H1189 0.929 . S
C1203 C1202 1.399 . S
C1203 C1204 1.385 . S
C1204 H1190 0.931 . S
C1204 C1203 1.385 . S
C1204 C1205 1.389 . S
C1205 C1204 1.389 . S
C1205 C1206 1.387 . S
C1206 H1191 0.930 . S
C1206 C1201 1.390 . S
C1206 C1205 1.387 . S
H1207 C1219 0.930 . S
H1208 C1221 0.930 . S
H1209 C1222 0.930 . S
H1210 C1226 0.959 . S
H1211 C1226 0.959 . S
H1212 C1226 0.961 . S
H1213 C1227 0.960 . S
H1214 C1227 0.961 . S
H1215 C1227 0.959 . S
H1216 C1230 0.929 . S
H1217 C1231 0.931 . S
H1218 C1233 0.930 . S
C1219 H1207 0.930 . S
C1219 C1220 1.399 . S
C1219 C1224 1.399 . S
C1220 C1219 1.399 . S
C1220 C1221 1.376 . S
C1221 H1208 0.930 . S
C1221 C1220 1.376 . S
C1221 C1222 1.388 . S
C1222 H1209 0.930 . S
C1222 C1221 1.388 . S
C1222 C1223 1.390 . S
C1223 C1222 1.390 . S
C1223 C1224 1.394 . S
C1223 C1229 1.465 . S
C1224 C1219 1.399 . S
C1224 C1223 1.394 . S
C1224 C1225 1.516 . S
C1225 C1224 1.516 . S
C1225 C1226 1.502 . S
C1225 C1227 1.561 . S
C1225 C1228 1.526 . S
C1226 H1210 0.959 . S
C1226 H1211 0.959 . S
C1226 H1212 0.961 . S
C1226 C1225 1.502 . S
C1227 H1213 0.960 . S
C1227 H1214 0.961 . S
C1227 H1215 0.959 . S
C1227 C1225 1.561 . S
C1228 C1225 1.526 . S
C1228 C1229 1.396 . S
C1228 C1233 1.390 . S
C1229 C1223 1.465 . S
C1229 C1228 1.396 . S
C1229 C1230 1.399 . S
C1230 H1216 0.929 . S
C1230 C1229 1.399 . S
C1230 C1231 1.385 . S
C1231 H1217 0.931 . S
C1231 C1230 1.385 . S
C1231 C1232 1.389 . S
C1232 C1231 1.389 . S
C1232 C1233 1.387 . S
C1233 H1218 0.930 . S
C1233 C1228 1.390 . S
C1233 C1232 1.387 . S
H1234 C1246 0.930 . S
H1235 C1248 0.930 . S
H1236 C1249 0.930 . S
H1237 C1253 0.959 . S
H1238 C1253 0.959 . S
H1239 C1253 0.961 . S
H1240 C1254 0.960 . S
H1241 C1254 0.961 . S
H1242 C1254 0.959 . S
H1243 C1257 0.929 . S
H1244 C1258 0.931 . S
H1245 C1260 0.930 . S
C1246 H1234 0.930 . S
C1246 C1247 1.399 . S
C1246 C1251 1.399 . S
C1247 C1246 1.399 . S
C1247 C1248 1.376 . S
C1248 H1235 0.930 . S
C1248 C1247 1.376 . S
C1248 C1249 1.388 . S
C1249 H1236 0.930 . S
C1249 C1248 1.388 . S
C1249 C1250 1.390 . S
C1250 C1249 1.390 . S
C1250 C1251 1.394 . S
C1250 C1256 1.465 . S
C1251 C1246 1.399 . S
C1251 C1250 1.394 . S
C1251 C1252 1.516 . S
C1252 C1251 1.516 . S
C1252 C1253 1.502 . S
C1252 C1254 1.561 . S
C1252 C1255 1.526 . S
C1253 H1237 0.959 . S
C1253 H1238 0.959 . S
C1253 H1239 0.961 . S
C1253 C1252 1.502 . S
C1254 H1240 0.960 . S
C1254 H1241 0.961 . S
C1254 H1242 0.959 . S
C1254 C1252 1.561 . S
C1255 C1252 1.526 . S
C1255 C1256 1.396 . S
C1255 C1260 1.390 . S
C1256 C1250 1.465 . S
C1256 C1255 1.396 . S
C1256 C1257 1.399 . S
C1257 H1243 0.929 . S
C1257 C1256 1.399 . S
C1257 C1258 1.385 . S
C1258 H1244 0.931 . S
C1258 C1257 1.385 . S
C1258 C1259 1.389 . S
C1259 C1258 1.389 . S
C1259 C1260 1.387 . S
C1260 H1245 0.930 . S
C1260 C1255 1.390 . S
C1260 C1259 1.387 . S
H1261 C1273 0.930 . S
H1262 C1275 0.930 . S
H1263 C1276 0.930 . S
H1264 C1280 0.959 . S
H1265 C1280 0.959 . S
H1266 C1280 0.961 . S
H1267 C1281 0.960 . S
H1268 C1281 0.961 . S
H1269 C1281 0.959 . S
H1270 C1284 0.929 . S
H1271 C1285 0.931 . S
H1272 C1287 0.930 . S
C1273 H1261 0.930 . S
C1273 C1274 1.399 . S
C1273 C1278 1.399 . S
C1274 C1273 1.399 . S
C1274 C1275 1.376 . S
C1275 H1262 0.930 . S
C1275 C1274 1.376 . S
C1275 C1276 1.388 . S
C1276 H1263 0.930 . S
C1276 C1275 1.388 . S
C1276 C1277 1.390 . S
C1277 C1276 1.390 . S
C1277 C1278 1.394 . S
C1277 C1283 1.465 . S
C1278 C1273 1.399 . S
C1278 C1277 1.394 . S
C1278 C1279 1.516 . S
C1279 C1278 1.516 . S
C1279 C1280 1.502 . S
C1279 C1281 1.561 . S
C1279 C1282 1.526 . S
C1280 H1264 0.959 . S
C1280 H1265 0.959 . S
C1280 H1266 0.961 . S
C1280 C1279 1.502 . S
C1281 H1267 0.960 . S
C1281 H1268 0.961 . S
C1281 H1269 0.959 . S
C1281 C1279 1.561 . S
C1282 C1279 1.526 . S
C1282 C1283 1.396 . S
C1282 C1287 1.390 . S
C1283 C1277 1.465 . S
C1283 C1282 1.396 . S
C1283 C1284 1.399 . S
C1284 H1270 0.929 . S
C1284 C1283 1.399 . S
C1284 C1285 1.385 . S
C1285 H1271 0.931 . S
C1285 C1284 1.385 . S
C1285 C1286 1.389 . S
C1286 C1285 1.389 . S
C1286 C1287 1.387 . S
C1287 H1272 0.930 . S
C1287 C1282 1.390 . S
C1287 C1286 1.387 . S
C653 C175 1.775 . S
C665 C15 1.772 . S
C680 C55 1.748 . S
C692 C215 1.761 . S
C707 C255 1.753 . S
C719 C95 1.751 . S
C734 C135 1.749 . S
C746 C295 1.756 . S
C761 C335 1.763 . S
C773 C495 1.777 . S
C788 C535 1.748 . S
C800 C375 1.761 . S
C815 C575 1.760 . S
C827 C415 1.777 . S
C842 C455 1.777 . S
C854 C615 1.769 . S
C869 C21 1.803 . S
C881 C221 1.786 . S
C896 C261 1.803 . S
C908 C61 1.786 . S
C923 C101 1.800 . S
C935 C301 1.804 . S
C950 C141 1.799 . S
C962 C181 1.786 . S
C977 C341 1.788 . S
C989 C541 1.807 . S
C1004 C581 1.801 . S
C1016 C381 1.786 . S
C1031 C421 1.789 . S
C1043 C621 1.807 . S
C1058 C501 1.789 . S
C1070 C461 1.807 . S
C1085 C602 1.870 . S
C1097 C2 1.870 . S
C1112 C482 1.895 . S
C1124 C42 1.867 . S
C1139 C82 1.894 . S
C1151 C522 1.865 . S
C1166 C562 1.862 . S
C1178 C122 1.889 . S
C1193 C162 1.863 . S
C1205 C362 1.892 . S
C1220 C402 1.895 . S
C1232 C202 1.867 . S
C1247 C442 1.881 . S
C1259 C242 1.863 . S
C1274 C322 1.862 . S
C1286 C282 1.882 . S
