# Generated by pormake.
# Topology snz, (6)-cn, num edge types: 1
# Building blocks:
#     Node 0, Type 0, BuildingBlock: KUMJIN_clean_sbu_0, # of connection points: 6
#     Node 1, Type 0, BuildingBlock: KUMJIN_clean_sbu_0, # of connection points: 6
#     Node 2, Type 0, BuildingBlock: KUMJIN_clean_sbu_0, # of connection points: 6
#     Node 3, Type 0, BuildingBlock: KUMJIN_clean_sbu_0, # of connection points: 6
#     Node 4, Type 0, BuildingBlock: KUMJIN_clean_sbu_0, # of connection points: 6
#     Node 5, Type 0, BuildingBlock: KUMJIN_clean_sbu_0, # of connection points: 6
#     Node 6, Type 0, BuildingBlock: KUMJIN_clean_sbu_0, # of connection points: 6
#     Node 7, Type 0, BuildingBlock: KUMJIN_clean_sbu_0, # of connection points: 6
#     Node 8, Type 0, BuildingBlock: KUMJIN_clean_sbu_0, # of connection points: 6
#     Edge 9, Type (0, 0), BuildingBlock: TEMPAE_clean_linker_10, # of connection points: 2
#     Edge 10, Type (0, 0), BuildingBlock: TEMPAE_clean_linker_10, # of connection points: 2
#     Edge 11, Type (0, 0), BuildingBlock: TEMPAE_clean_linker_10, # of connection points: 2
#     Edge 12, Type (0, 0), BuildingBlock: TEMPAE_clean_linker_10, # of connection points: 2
#     Edge 13, Type (0, 0), BuildingBlock: TEMPAE_clean_linker_10, # of connection points: 2
#     Edge 14, Type (0, 0), BuildingBlock: TEMPAE_clean_linker_10, # of connection points: 2
#     Edge 15, Type (0, 0), BuildingBlock: TEMPAE_clean_linker_10, # of connection points: 2
#     Edge 16, Type (0, 0), BuildingBlock: TEMPAE_clean_linker_10, # of connection points: 2
#     Edge 17, Type (0, 0), BuildingBlock: TEMPAE_clean_linker_10, # of connection points: 2
#     Edge 18, Type (0, 0), BuildingBlock: TEMPAE_clean_linker_10, # of connection points: 2
#     Edge 19, Type (0, 0), BuildingBlock: TEMPAE_clean_linker_10, # of connection points: 2
#     Edge 20, Type (0, 0), BuildingBlock: TEMPAE_clean_linker_10, # of connection points: 2
#     Edge 21, Type (0, 0), BuildingBlock: TEMPAE_clean_linker_10, # of connection points: 2
#     Edge 22, Type (0, 0), BuildingBlock: TEMPAE_clean_linker_10, # of connection points: 2
#     Edge 23, Type (0, 0), BuildingBlock: TEMPAE_clean_linker_10, # of connection points: 2
#     Edge 24, Type (0, 0), BuildingBlock: TEMPAE_clean_linker_10, # of connection points: 2
#     Edge 25, Type (0, 0), BuildingBlock: TEMPAE_clean_linker_10, # of connection points: 2
#     Edge 26, Type (0, 0), BuildingBlock: TEMPAE_clean_linker_10, # of connection points: 2
#     Edge 27, Type (0, 0), BuildingBlock: TEMPAE_clean_linker_10, # of connection points: 2
#     Edge 28, Type (0, 0), BuildingBlock: TEMPAE_clean_linker_10, # of connection points: 2
#     Edge 29, Type (0, 0), BuildingBlock: TEMPAE_clean_linker_10, # of connection points: 2
#     Edge 30, Type (0, 0), BuildingBlock: TEMPAE_clean_linker_10, # of connection points: 2
#     Edge 31, Type (0, 0), BuildingBlock: TEMPAE_clean_linker_10, # of connection points: 2
#     Edge 32, Type (0, 0), BuildingBlock: TEMPAE_clean_linker_10, # of connection points: 2
#     Edge 33, Type (0, 0), BuildingBlock: TEMPAE_clean_linker_10, # of connection points: 2
#     Edge 34, Type (0, 0), BuildingBlock: TEMPAE_clean_linker_10, # of connection points: 2
#     Edge 35, Type (0, 0), BuildingBlock: TEMPAE_clean_linker_10, # of connection points: 2
# Relax obj value: 0.275
# Max RMSD: 0.305
# Mean RMSD: 0.206
data_MOF--net-snz--node1-KUMJIN_clean_sbu_0--edge1-TEMPAE_clean_linker_10
_symmetry_space_group_name_H-M    P1
_symmetry_Int_Tables_number       1
_symmetry_cell_setting            triclinic
loop_
_symmetry_equiv_pos_as_xyz
'x, y, z'
_cell_length_a     61.276358
_cell_length_b     56.179156
_cell_length_c     17.035075
_cell_angle_alpha  93.718125
_cell_angle_beta   94.82278
_cell_angle_gamma 120.59562
loop_
_atom_site_label
_atom_site_type_symbol
_atom_site_fract_x
_atom_site_fract_y
_atom_site_fract_z
_atom_type_partial_charge
Eu0 Eu 0.10833 0.47678 0.22877 0.0
C1 C 1.00162 0.43549 0.29834 0.0
C2 C 0.97502 0.39297 0.20887 0.0
C3 C 0.96276 0.39792 0.33802 0.0
C4 C 0.99746 0.41944 0.22776 0.0
C5 C 0.98377 0.42535 0.35299 0.0
C6 C 0.9583 0.38177 0.26571 0.0
C7 C 0.00558 0.47176 0.42417 0.0
N8 N 0.02133 0.46234 0.30861 0.0
C9 C 0.02244 0.48096 0.36751 0.0
C10 C 0.98651 0.44367 0.41795 0.0
Eu11 Eu 0.04961 0.47656 0.20996 0.0
N12 N 0.01365 0.43111 0.17349 0.0
C13 C 0.00749 0.41847 0.09722 0.0
C14 C 0.96902 0.37953 0.13148 0.0
C15 C 0.98514 0.39257 0.07504 0.0
H16 H 0.03688 0.50281 0.3722 0.0
H17 H 0.98021 0.38302 1.01414 0.0
H18 H 0.94121 0.36124 0.25274 0.0
H19 H 0.00717 0.48639 0.47218 0.0
H20 H 0.01981 0.42851 0.05322 0.0
H21 H 0.16535 0.49216 0.51338 0.0
H22 H 0.95133 0.35981 0.11396 0.0
H23 H 0.12391 0.52117 0.08768 0.0
H24 H 0.132 0.46525 0.39816 0.0
H25 H 0.15376 0.57019 0.07632 0.0
H26 H 0.94904 0.3896 0.37976 0.0
H27 H 0.19307 0.54331 0.51947 0.0
H28 H 0.20738 0.58619 0.45161 0.0
H29 H 0.9732 0.43669 0.46118 0.0
H30 H 0.20477 0.60716 0.33156 0.0
N31 N 0.13983 0.50105 0.34198 0.0
C32 C 0.144 0.48763 0.40053 0.0
C33 C 0.17842 0.53162 0.46898 0.0
C34 C 0.17585 0.54481 0.40498 0.0
C35 C 0.16286 0.50276 0.46573 0.0
C36 C 0.15652 0.52861 0.34047 0.0
H37 H 0.18543 0.60121 0.19103 0.0
N38 N 0.13806 0.52347 0.20839 0.0
C39 C 0.15458 0.562 0.13157 0.0
C40 C 0.15569 0.54013 0.27165 0.0
C41 C 0.13763 0.53395 0.13836 0.0
C42 C 0.17237 0.57946 0.19648 0.0
C43 C 0.17332 0.56857 0.26731 0.0
O44 O 0.13701 0.47422 0.16448 0.0
O45 O 0.06676 0.45117 0.18004 0.0
O46 O 0.05593 0.46648 0.34269 0.0
O47 O 0.09872 0.48012 0.36117 0.0
O48 O 0.08001 0.43359 0.25857 0.0
O49 O 0.11848 0.44478 0.24492 0.0
O50 O 0.04287 0.51146 0.20586 0.0
O51 O 0.0923 0.50505 0.21865 0.0
O52 O 0.09695 0.47232 0.08743 0.0
O53 O 0.06093 0.47654 0.07771 0.0
O54 O 0.0735 0.5152 0.29698 0.0
O55 O 0.02359 0.47706 0.11436 0.0
C56 C 0.06065 0.42892 0.20973 0.0
C57 C 0.16187 0.45849 0.23702 0.0
C58 C 0.19069 0.44121 0.28045 0.0
C59 C 0.16654 0.43607 0.24345 0.0
C60 C 0.20904 0.46876 0.31356 0.0
C61 C 0.1815 0.48558 0.26793 0.0
C62 C 0.20457 0.49053 0.3068 0.0
C63 C 0.07706 0.47295 0.39257 0.0
C64 C 0.13669 0.45428 0.20083 0.0
C65 C 0.19137 0.58522 0.3335 0.0
C66 C 0.19273 0.57333 0.40205 0.0
C67 C 0.09538 0.52351 0.27394 0.0
C68 C 1.00132 0.49932 0.14875 0.0
C69 C 0.99452 0.51535 0.10353 0.0
C70 C 0.97085 0.51379 0.10806 0.0
C71 C 0.95479 0.49679 0.16065 0.0
C72 C 0.98418 0.48163 0.19725 0.0
C73 C 0.96134 0.4807 0.20413 0.0
C74 C 0.07874 0.47413 1.04168 0.0
C75 C 0.02568 0.5001 0.14356 0.0
H76 H 0.15178 0.41507 0.21872 0.0
H77 H 0.22724 0.4737 0.34505 0.0
H78 H 0.17897 0.50313 0.26284 0.0
H79 H 0.21921 0.51154 0.33182 0.0
H80 H 0.00729 0.52836 0.06384 0.0
H81 H 0.93699 0.4958 0.16823 0.0
H82 H 0.98824 0.46827 0.22945 0.0
H83 H 0.94853 0.46727 0.24297 0.0
Eu84 Eu 0.62797 0.53461 0.1338 0.0
C85 C 0.6621 0.45897 0.23362 0.0
C86 C 0.70293 0.47799 0.18406 0.0
C87 C 0.69721 0.45798 0.30829 0.0
C88 C 0.67758 0.47241 0.17732 0.0
C89 C 0.67139 0.45036 0.29765 0.0
C90 C 0.71301 0.47188 0.25165 0.0
C91 C 0.62807 0.42318 0.32733 0.0
N92 N 0.63715 0.45149 0.22069 0.0
C93 C 0.61977 0.43212 0.26285 0.0
C94 C 0.6541 0.43293 0.34612 0.0
Eu95 Eu 0.62502 0.46916 0.11241 0.0
N96 N 0.66692 0.47698 0.11138 0.0
C97 C 0.67939 0.48366 1.04614 0.0
C98 C 0.7168 0.48784 0.12041 0.0
C99 C 0.7047 0.48989 1.05024 0.0
H100 H 0.59965 0.42491 0.24957 0.0
H101 H 0.71481 0.49626 0.99927 0.0
H102 H 0.73255 0.47643 0.2585 0.0
H103 H 0.6144 0.40888 0.36264 0.0
H104 H 0.67028 0.48518 0.99139 0.0
H105 H 0.55122 0.51364 0.31355 0.0
H106 H 0.73633 0.49248 0.12326 0.0
H107 H 0.63637 0.57029 0.97224 0.0
H108 H 0.59452 0.52656 0.29027 0.0
H109 H 0.60996 0.57493 0.86434 0.0
H110 H 0.70481 0.452 0.35792 0.0
H111 H 0.5192 0.50642 0.20169 0.0
H112 H 0.50904 0.50854 0.05799 0.0
H113 H 0.66046 0.42581 0.39577 0.0
H114 H 0.52509 0.52471 0.93278 0.0
N115 N 0.5873 0.52524 0.16471 0.0
C116 C 0.58093 0.5231 0.2401 0.0
C117 C 0.53818 0.51162 0.19066 0.0
C118 C 0.5453 0.51587 0.11468 0.0
C119 C 0.55626 0.51592 0.25397 0.0
C120 C 0.57045 0.52316 0.10354 0.0
H121 H 0.56303 0.55071 0.86123 0.0
N122 N 0.60457 0.5422 1.02807 0.0
C123 C 0.601 0.56232 0.91054 0.0
C124 C 0.57934 0.53172 1.03252 0.0
C125 C 0.61588 0.55968 0.97214 0.0
C126 C 0.57452 0.54846 0.90871 0.0
C127 C 0.56349 0.53393 0.97187 0.0
O128 O 0.65532 0.57779 0.11485 0.0
O129 O 0.64941 0.51424 0.09569 0.0
O130 O 0.6279 0.48181 0.2535 0.0
O131 O 0.63056 0.52465 0.26722 0.0
O132 O 0.6685 0.54787 0.18252 0.0
O133 O 0.63567 0.5701 0.21726 0.0
O134 O 0.59228 0.42618 0.101 0.0
O135 O 0.60405 0.48994 0.15237 0.0
O136 O 0.62503 0.52079 0.99279 0.0
O137 O 0.62953 0.48231 0.98209 0.0
O138 O 0.58442 0.45662 0.06567 0.0
O139 O 0.6215 0.43674 1.02498 0.0
C140 C 0.67115 0.531 0.13556 0.0
C141 C 0.64531 0.61136 0.16237 0.0
C142 C 0.65828 0.6608 0.17121 0.0
C143 C 0.66437 0.63991 0.18178 0.0
C144 C 0.63324 0.65252 0.13791 0.0
C145 C 0.62036 0.60405 0.13281 0.0
C146 C 0.6145 0.62444 0.1194 0.0
C147 C 0.62985 0.50329 0.30117 0.0
C148 C 0.65085 0.58903 0.17589 0.0
C149 C 0.53769 0.52384 0.97959 0.0
C150 C 0.52858 0.51475 1.051 0.0
C151 C 0.5821 0.47341 0.11391 0.0
C152 C 0.59836 0.38973 0.0518 0.0
C153 C 0.57556 0.36474 1.01979 0.0
C154 C 0.57379 0.33857 1.02 0.0
C155 C 0.59549 0.33831 0.05393 0.0
C156 C 0.61931 0.38856 0.08633 0.0
C157 C 0.6178 0.36298 0.08743 0.0
C158 C 0.62687 0.50149 0.94636 0.0
C159 C 0.60038 0.41688 1.04555 0.0
H160 H 0.68351 0.64573 0.20708 0.0
H161 H 0.628 0.66784 0.12663 0.0
H162 H 0.60521 0.58252 0.12091 0.0
H163 H 0.59521 0.61844 0.09544 0.0
H164 H 0.55933 0.36588 0.9947 0.0
H165 H 0.5956 0.31911 0.05341 0.0
H166 H 0.63697 0.40745 0.11127 0.0
H167 H 0.63419 0.36228 0.11322 0.0
Eu168 Eu 0.56692 0.03856 0.90787 0.0
C169 C 0.62563 0.15767 1.0377 0.0
C170 C 0.60284 0.17368 0.95468 0.0
C171 C 0.62023 0.19534 0.09091 0.0
C172 C 0.61213 0.15555 0.96564 0.0
C173 C 0.63055 0.17823 0.10028 0.0
C174 C 0.60633 0.19301 1.01832 0.0
C175 C 0.65785 0.16562 0.17364 0.0
N176 N 0.63547 0.14095 1.04483 0.0
C177 C 0.65245 0.14556 0.11009 0.0
C178 C 0.64647 0.18168 0.16936 0.0
Eu179 Eu 0.62349 0.10575 0.93664 0.0
N180 N 0.60954 0.13703 0.90478 0.0
C181 C 0.5996 0.13721 0.82999 0.0
C182 C 0.59108 0.17253 0.87938 0.0
C183 C 0.58987 0.15456 0.81648 0.0
H184 H 0.66123 0.1331 0.11401 0.0
H185 H 0.58128 0.15389 0.75758 0.0
H186 H 0.59908 0.20688 1.01118 0.0
H187 H 0.67072 0.16861 0.22594 0.0
H188 H 0.59812 0.12332 0.7806 0.0
H189 H 0.56888 0.96998 0.1204 0.0
H190 H 0.58356 0.18598 0.86867 0.0
H191 H 0.54014 0.01122 0.71321 0.0
H192 H 0.562 0.00592 0.07359 0.0
H193 H 0.5403 0.97917 0.60936 0.0
H194 H 0.62353 0.211 0.13863 0.0
H195 H 0.57851 0.94192 1.02752 0.0
H196 H 0.58254 0.92925 0.88899 0.0
H197 H 0.65072 0.19726 0.21863 0.0
H198 H 0.57566 0.93264 0.74714 0.0
N199 N 0.57146 0.00219 0.95746 0.0
C200 C 0.56825 0.99583 1.03348 0.0
C201 C 0.57667 0.95879 1.00749 0.0
C202 C 0.57737 0.96335 0.92799 0.0
C203 C 0.57134 0.9746 0.05996 0.0
C204 C 0.57412 0.98511 0.904 0.0
H205 H 0.55919 0.9507 0.64196 0.0
N206 N 0.56245 0.0047 0.8035 0.0
C207 C 0.5493 0.98152 0.66912 0.0
C208 C 0.56997 0.98681 0.82428 0.0
C209 C 0.54963 1.00005 0.7286 0.0
C210 C 0.56004 0.96559 0.68771 0.0
C211 C 0.56931 0.96702 0.76672 0.0
O212 O 0.53047 0.0275 0.83909 0.0
O213 O 0.58127 0.08291 0.88881 0.0
O214 O 0.60992 0.09745 0.06698 0.0
O215 O 0.57756 0.05085 1.04955 0.0
O216 O 0.55562 0.06652 0.96953 0.0
O217 O 0.53065 0.00913 0.94833 0.0
O218 O 0.6581 0.14372 0.9149 0.0
O219 O 0.60951 0.05987 0.93081 0.0
O220 O 0.57696 0.05264 0.77837 0.0
O221 O 0.6156 0.09431 0.79634 0.0
O222 O 0.63781 0.08716 1.02397 0.0
O223 O 0.65671 0.10503 0.89701 0.0
C224 C 0.56529 0.08608 0.92492 0.0
C225 C 0.48895 0.99599 0.87853 0.0
C226 C 0.44881 0.97213 0.93467 0.0
C227 C 0.47563 0.98512 0.94294 0.0
C228 C 0.43544 0.9699 0.86065 0.0
C229 C 0.47525 0.9936 0.8052 0.0
C230 C 0.44862 0.98047 0.79638 0.0
C231 C 0.59355 0.07448 0.09912 0.0
C232 C 0.51711 0.01135 0.88932 0.0
C233 C 0.57559 0.94757 0.79056 0.0
C234 C 0.57941 0.94558 0.87126 0.0
C235 C 0.62398 0.06153 0.99245 0.0
C236 C 0.69809 0.14566 0.93995 0.0
C237 C 0.71695 0.14177 0.90766 0.0
C238 C 0.74258 0.15552 0.94714 0.0
C239 C 0.74869 0.17291 1.01877 0.0
C240 C 0.70556 0.16397 1.01029 0.0
C241 C 0.73043 0.17709 1.04965 0.0
C242 C 0.5962 0.07324 0.74658 0.0
C243 C 0.67104 0.13185 0.89958 0.0
H244 H 0.48619 0.98751 1.00015 0.0
H245 H 0.41477 0.9597 0.85218 0.0
H246 H 0.48511 1.00205 0.75486 0.0
H247 H 0.43817 0.97867 0.73965 0.0
H248 H 0.71176 0.12828 0.8524 0.0
H249 H 0.76801 0.18417 1.05005 0.0
H250 H 0.69234 0.16873 1.03448 0.0
H251 H 0.73572 0.19106 0.10391 0.0
Eu252 Eu 0.82596 0.91282 0.33856 0.0
C253 C 0.71844 0.86027 0.27384 0.0
C254 C 0.69862 0.85956 0.14376 0.0
C255 C 0.67677 0.82041 0.21803 0.0
C256 C 0.71933 0.8728 0.20599 0.0
C257 C 0.69687 0.83412 0.28112 0.0
C258 C 0.67775 0.83299 0.14922 0.0
C259 C 0.71589 0.83739 0.41417 0.0
N260 N 0.73788 0.87432 0.33471 0.0
C261 C 0.73686 0.86316 0.4043 0.0
C262 C 0.6957 0.82294 0.35263 0.0
Eu263 Eu 0.7712 0.91982 0.31763 0.0
N264 N 0.73924 0.89898 0.20386 0.0
C265 C 0.73795 0.91413 0.14555 0.0
C266 C 0.69873 0.87407 0.08001 0.0
C267 C 0.71827 0.90169 0.08167 0.0
H268 H 0.75222 0.87369 0.45258 0.0
H269 H 0.71798 0.91359 1.03451 0.0
H270 H 0.66176 0.82249 0.10191 0.0
H271 H 0.71525 0.82878 0.46956 0.0
H272 H 0.75257 0.93586 0.14757 0.0
H273 H 0.89754 0.0071 0.53094 0.0
H274 H 0.68319 0.86461 1.03123 0.0
H275 H 0.83687 0.88085 0.18452 0.0
H276 H 0.85678 0.96282 0.49376 0.0
H277 H 0.86809 0.89289 0.08966 0.0
H278 H 0.66005 0.80038 0.22266 0.0
H279 H 0.92876 0.02544 0.43504 0.0
H280 H 0.94091 0.01909 0.30207 0.0
H281 H 0.67912 0.80341 0.36147 0.0
H282 H 0.93267 0.98793 0.18075 0.0
N283 N 0.86401 0.95654 0.3765 0.0
C284 C 0.86997 0.97066 0.45085 0.0
C285 C 0.91055 0.00629 0.41773 0.0
C286 C 0.905 0.99094 0.34329 0.0
C287 C 0.89312 0.99588 0.47221 0.0
C288 C 0.88146 0.96548 0.32474 0.0
H289 H 0.90585 0.94059 0.10197 0.0
N290 N 0.85559 0.92198 0.24638 0.0
C291 C 0.87071 0.90861 0.13594 0.0
C292 C 0.87703 0.94771 0.25725 0.0
C293 C 0.85297 0.90192 0.18961 0.0
C294 C 0.89194 0.93557 0.14294 0.0
C295 C 0.89573 0.95528 0.2055 0.0
O296 O 0.81854 0.87288 0.37659 0.0
O297 O 0.78321 0.88874 0.32514 0.0
O298 O 0.78125 0.92196 0.4588 0.0
O299 O 0.81744 0.91823 0.47104 0.0
O300 O 0.80034 0.87567 0.24725 0.0
O301 O 0.85553 0.90933 0.40916 0.0
O302 O 0.74748 0.92682 0.39444 0.0
O303 O 0.81312 0.94296 0.36375 0.0
O304 O 0.82051 0.91963 0.20127 0.0
O305 O 0.78155 0.9176 0.18591 0.0
O306 O 0.801 0.96088 0.282 0.0
O307 O 0.76108 0.95168 0.29998 0.0
C308 C 0.77874 0.87029 0.26827 0.0
C309 C 0.85356 0.86595 0.39805 0.0
C310 C 0.86103 0.82893 0.43472 0.0
C311 C 0.8483 0.84381 0.44296 0.0
C312 C 0.87839 0.83592 0.37904 0.0
C313 C 0.8713 0.87273 0.34393 0.0
C314 C 0.88338 0.85758 0.33392 0.0
C315 C 0.7994 0.92039 0.50557 0.0
C316 C 0.84155 0.88271 0.41156 0.0
C317 C 0.91823 0.98163 0.2203 0.0
C318 C 0.92291 0.99939 0.28932 0.0
C319 C 0.82036 0.96445 0.3284 0.0
C320 C 0.71791 0.93466 0.31705 0.0
C321 C 0.71198 0.95302 0.28009 0.0
C322 C 0.68689 0.94314 0.24107 0.0
C323 C 0.66867 0.91442 0.23629 0.0
C324 C 0.69838 0.90674 0.31603 0.0
C325 C 0.67425 0.89664 0.27446 0.0
C326 C 0.80142 0.91907 0.15329 0.0
C327 C 0.74461 0.94333 0.35001 0.0
H328 H 0.835 0.83881 0.48603 0.0
H329 H 0.88818 0.82462 0.3705 0.0
H330 H 0.87621 0.89005 0.3104 0.0
H331 H 0.89695 0.86291 0.29178 0.0
H332 H 0.72672 0.97475 0.2824 0.0
H333 H 0.64976 0.90548 0.20331 0.0
H334 H 0.70187 0.89229 0.34545 0.0
H335 H 0.65977 0.87479 0.27151 0.0
Eu336 Eu 0.16473 0.78922 0.39446 0.0
C337 C 0.24559 0.76973 0.50063 0.0
C338 C 0.26273 0.7994 0.627 0.0
C339 C 0.26655 0.75856 0.60758 0.0
C340 C 0.2488 0.79225 0.55015 0.0
C341 C 0.25482 0.75292 0.5288 0.0
C342 C 0.27082 0.78197 0.6562 0.0
C343 C 0.24507 0.72966 0.39542 0.0
N344 N 0.23584 0.76591 0.42314 0.0
C345 C 0.23731 0.74763 0.36969 0.0
C346 C 0.25344 0.73197 0.47571 0.0
Eu347 Eu 0.22321 0.79765 0.38549 0.0
N348 N 0.24053 0.8087 0.52107 0.0
C349 C 0.24698 0.83336 0.56372 0.0
C350 C 0.26853 0.82416 0.67189 0.0
C351 C 0.26068 0.84125 0.63993 0.0
H352 H 0.23234 0.74691 0.30677 0.0
H353 H 0.2655 0.86071 0.67348 0.0
H354 H 0.28096 0.78679 0.71572 0.0
H355 H 0.2452 0.71453 0.35303 0.0
H356 H 0.24187 0.84721 0.53869 0.0
H357 H 0.12069 0.7241 0.10831 0.0
H358 H 0.27934 0.83045 0.73076 0.0
H359 H 0.16506 0.84899 0.45357 0.0
H360 H 0.13729 0.73461 0.25036 0.0
H361 H 0.16268 0.88618 0.39224 0.0
H362 H 0.27354 0.74573 0.63026 0.0
H363 H 0.1211 0.76081 1.03475 0.0
H364 H 0.12997 0.80954 1.03698 0.0
H365 H 0.26012 0.71852 0.49529 0.0
H366 H 0.14214 0.854 0.11414 0.0
N367 N 0.14847 0.77741 0.25748 0.0
C368 C 0.13811 0.75104 0.21922 0.0
C369 C 0.12865 0.76564 0.09729 0.0
C370 C 0.13782 0.79213 0.13781 0.0
C371 C 0.1284 0.74488 0.13855 0.0
C372 C 0.14743 0.7974 0.21938 0.0
H373 H 0.15409 0.88261 0.24635 0.0
N374 N 0.16075 0.82572 0.34306 0.0
C375 C 0.1606 0.86858 0.3551 0.0
C376 C 0.15412 0.8224 0.26318 0.0
C377 C 0.16227 0.84755 0.38948 0.0
C378 C 0.15578 0.86649 0.27279 0.0
C379 C 0.15163 0.84282 0.2259 0.0
O380 O 0.13294 0.79245 0.43179 0.0
O381 O 0.19714 0.7935 0.4885 0.0
O382 O 0.19615 0.75149 0.34616 0.0
O383 O 0.15881 0.74498 0.38647 0.0
O384 O 0.16581 0.79102 0.52954 0.0
O385 O 0.12762 0.75182 0.40207 0.0
O386 O 0.2583 0.8039 0.34307 0.0
O387 O 0.18993 0.79088 0.29338 0.0
O388 O 0.19584 0.83454 0.44718 0.0
O389 O 0.22449 0.83789 0.36707 0.0
O390 O 0.21962 0.79025 0.2485 0.0
O391 O 0.25626 0.83952 0.38841 0.0
C392 C 0.18662 0.79202 0.55649 0.0
C393 C 0.09036 0.75529 0.39176 0.0
C394 C 0.04513 0.7345 0.41044 0.0
C395 C 0.07074 0.74346 0.4402 0.0
C396 C 0.0397 0.7376 0.33101 0.0
C397 C 0.08432 0.75799 0.31301 0.0
C398 C 0.05911 0.74911 0.28291 0.0
C399 C 0.17252 0.73486 0.35947 0.0
C400 C 0.11709 0.76569 0.42546 0.0
C401 C 0.14384 0.8384 0.14373 0.0
C402 C 0.13686 0.81307 0.09982 0.0
C403 C 0.19916 0.79055 0.22432 0.0
C404 C 0.29746 0.8462 0.38682 0.0
C405 C 0.31436 0.86138 0.33439 0.0
C406 C 0.34088 0.87693 0.35864 0.0
C407 C 0.35025 0.87745 0.43741 0.0
C408 C 0.30695 0.84674 0.46501 0.0
C409 C 0.33332 0.86241 0.49016 0.0
C410 C 0.21628 0.85018 0.41331 0.0
C411 C 0.2701 0.83092 0.35752 0.0
H412 H 0.07551 0.74127 0.50097 0.0
H413 H 0.02051 0.73167 0.30621 0.0
H414 H 0.09908 0.7672 0.2751 0.0
H415 H 0.05462 0.75149 0.22216 0.0
H416 H 0.30671 0.86131 0.27451 0.0
H417 H 0.37061 0.8891 0.45785 0.0
H418 H 0.29413 0.83528 0.50638 0.0
H419 H 0.34065 0.86282 0.5506 0.0
Eu420 Eu 0.2421 0.25237 0.39485 0.0
C421 C 0.31596 0.36797 0.50512 0.0
C422 C 0.30757 0.392 0.40466 0.0
C423 C 0.31896 0.4123 0.54254 0.0
C424 C 0.30863 0.36866 0.42634 0.0
C425 C 0.32236 0.39053 0.56316 0.0
C426 C 0.31166 0.41308 0.46335 0.0
C427 C 0.34019 0.3718 0.65403 0.0
N428 N 0.31971 0.34704 0.52354 0.0
C429 C 0.33377 0.35009 0.59467 0.0
C430 C 0.3337 0.39163 0.63907 0.0
Eu431 Eu 0.30612 0.30963 0.41991 0.0
N432 N 0.30478 0.34799 0.37021 0.0
C433 C 0.30211 0.35105 0.29127 0.0
C434 C 0.30356 0.3942 0.32431 0.0
C435 C 0.3011 0.37381 0.26749 0.0
H436 H 0.33926 0.3351 0.60739 0.0
H437 H 0.29869 0.37576 0.205 0.0
H438 H 0.31031 0.43072 0.44764 0.0
H439 H 0.35022 0.37323 0.71121 0.0
H440 H 0.30083 0.33647 0.2447 0.0
H441 H 0.25348 0.17831 0.56446 0.0
H442 H 0.30358 0.41222 0.30543 0.0
H443 H 0.20529 0.23508 0.21495 0.0
H444 H 0.25114 0.21966 0.54674 0.0
H445 H 0.18846 0.19919 0.09966 0.0
H446 H 0.32329 0.42942 0.58669 0.0
H447 H 0.24568 0.14501 0.44827 0.0
H448 H 0.23169 0.12959 0.30263 0.0
H449 H 0.33891 0.40861 0.68498 0.0
H450 H 0.21354 0.13507 0.17567 0.0
N451 N 0.2427 0.21126 0.42029 0.0
C452 C 0.24751 0.20572 0.49475 0.0
C453 C 0.24462 0.16336 0.4398 0.0
C454 C 0.23759 0.16778 0.3645 0.0
C455 C 0.24886 0.18199 0.50546 0.0
C456 C 0.23634 0.19198 0.35668 0.0
H457 H 0.19653 0.16035 0.10041 0.0
N458 N 0.22292 0.21713 0.28216 0.0
C459 C 0.19905 0.19774 0.1514 0.0
C460 C 0.22611 0.19502 0.28536 0.0
C461 C 0.20826 0.21783 0.21783 0.0
C462 C 0.20382 0.17601 0.15182 0.0
C463 C 0.21694 0.17404 0.21991 0.0
O464 O 0.21816 0.26393 0.45767 0.0
O465 O 0.26503 0.29956 0.40742 0.0
O466 O 0.29528 0.29967 0.55223 0.0
O467 O 0.25397 0.26164 0.53505 0.0
O468 O 0.23547 0.27846 0.3131 0.0
O469 O 0.20206 0.22192 0.40589 0.0
O470 O 0.3417 0.31461 0.47625 0.0
O471 O 0.28246 0.26436 0.43872 0.0
O472 O 0.25443 0.25961 0.26302 0.0
O473 O 0.29636 0.29659 0.28017 0.0
O474 O 0.31037 0.27424 0.36661 0.0
O475 O 0.34294 0.33697 0.37489 0.0
C476 C 0.25225 0.30275 0.34961 0.0
C477 C 0.17361 0.23874 0.41175 0.0
C478 C 0.13204 0.234 0.42984 0.0
C479 C 0.15517 0.23584 0.4616 0.0
C480 C 0.12773 0.2342 0.34724 0.0
C481 C 0.16903 0.24051 0.33111 0.0
C482 C 0.14617 0.23785 0.29897 0.0
C483 C 0.27483 0.28087 0.5845 0.0
C484 C 0.19747 0.23959 0.44251 0.0
C485 C 0.22008 0.15112 0.22568 0.0
C486 C 0.23042 0.14801 0.29792 0.0
C487 C 0.29434 0.25471 0.40331 0.0
C488 C 0.38408 0.34354 0.43699 0.0
C489 C 0.39961 0.35839 0.37914 0.0
C490 C 0.42618 0.36786 0.38921 0.0
C491 C 0.43684 0.36279 0.45761 0.0
C492 C 0.3957 0.33912 0.50468 0.0
C493 C 0.42177 0.34871 0.51482 0.0
C494 C 0.27534 0.27754 0.23095 0.0
C495 C 0.35579 0.33158 0.42839 0.0
H496 H 0.15903 0.23536 0.5245 0.0
H497 H 0.10996 0.23143 0.31906 0.0
H498 H 0.18308 0.24374 0.29265 0.0
H499 H 0.14266 0.23851 0.23602 0.0
H500 H 0.3911 0.36198 0.32632 0.0
H501 H 0.45706 0.36989 0.46693 0.0
H502 H 0.38457 0.32803 0.55022 0.0
H503 H 0.43035 0.34505 0.56728 0.0
Eu504 Eu 0.40349 0.11804 0.54415 0.0
C505 C 0.31289 0.10079 0.71299 0.0
C506 C 0.32299 0.14751 0.75668 0.0
C507 C 0.27863 0.11029 0.72694 0.0
C508 C 0.33107 0.1284 0.73835 0.0
C509 C 0.28647 0.09143 0.70754 0.0
C510 C 0.29685 0.13827 0.75133 0.0
C511 C 0.27695 0.04514 0.66402 0.0
N512 N 0.32081 0.08303 0.69212 0.0
C513 C 0.30315 0.05527 0.67016 0.0
C514 C 0.26854 0.06334 0.68227 0.0
Eu515 Eu 0.36564 0.10056 0.70092 0.0
N516 N 0.35637 0.13694 0.74043 0.0
C517 C 0.37394 0.16517 0.75537 0.0
C518 C 0.34128 0.17565 0.77705 0.0
C519 C 0.36682 0.18451 0.77548 0.0
H520 H 0.30904 0.04059 0.6561 0.0
H521 H 0.38112 0.20653 0.78683 0.0
H522 H 0.29052 0.15274 0.76483 0.0
H523 H 0.26329 0.02325 0.64513 0.0
H524 H 0.39346 0.17427 0.74643 0.0
H525 H 0.4299 0.03774 0.53346 0.0
H526 H 0.33581 0.19085 0.79086 0.0
H527 H 0.44045 0.18626 0.52256 0.0
H528 H 0.40095 0.05511 0.54047 0.0
H529 H 0.48579 0.22106 0.52246 0.0
H530 H 0.25849 0.10347 0.72259 0.0
H531 H 0.47591 0.07021 0.5308 0.0
H532 H 0.51224 0.11914 0.53401 0.0
H533 H 0.24818 0.05547 0.67718 0.0
H534 H 0.52769 0.16897 0.53774 0.0
N535 N 0.42979 0.09803 0.54156 0.0
C536 C 0.42074 0.07006 0.53859 0.0
C537 C 0.46326 0.07828 0.53454 0.0
C538 C 0.47261 0.10683 0.53799 0.0
C539 C 0.43727 0.05988 0.53532 0.0
C540 C 0.45524 0.11627 0.54119 0.0
H541 H 0.51809 0.20711 0.53399 0.0
N542 N 0.44682 0.1529 0.54096 0.0
C543 C 0.48 0.19967 0.52894 0.0
C544 C 0.464 0.14445 0.54207 0.0
C545 C 0.45424 0.1798 0.5299 0.0
C546 C 0.49815 0.19171 0.53541 0.0
C547 C 0.49021 0.16374 0.53994 0.0
O548 O 0.37706 0.11354 0.44117 0.0
O549 O 0.36989 0.11909 0.5872 0.0
O550 O 0.3431 0.07584 0.58075 0.0
O551 O 0.37334 0.0709 0.52663 0.0
O552 O 0.40045 0.15637 0.5648 0.0
O553 O 0.41376 0.1195 0.42399 0.0
O554 O 0.35233 0.05704 0.71139 0.0
O555 O 0.39477 0.09371 0.6455 0.0
O556 O 0.4279 0.15184 0.64924 0.0
O557 O 0.40292 0.141 0.75394 0.0
O558 O 0.4022 0.10579 0.76715 0.0
O559 O 0.35308 0.08339 0.81157 0.0
C560 C 0.37756 0.14472 0.58297 0.0
C561 C 0.40194 0.14831 0.36212 0.0
C562 C 0.43086 0.18533 0.28941 0.0
C563 C 0.42316 0.16022 0.32117 0.0
C564 C 0.4182 0.19975 0.304 0.0
C565 C 0.38927 0.1629 0.37586 0.0
C566 C 0.39776 0.18875 0.34841 0.0
C567 C 0.3492 0.06021 0.53832 0.0
C568 C 0.39478 0.12197 0.39526 0.0
C569 C 0.50753 0.15445 0.53917 0.0
C570 C 0.49871 0.12605 0.53721 0.0
C571 C 0.41021 0.09827 0.70797 0.0
C572 C 0.36468 0.04956 0.83532 0.0
C573 C 0.38599 0.0687 0.88919 0.0
C574 C 0.40358 0.06189 0.92099 0.0
C575 C 0.39882 0.0348 0.90451 0.0
C576 C 0.35999 0.0224 0.81804 0.0
C577 C 0.37684 0.01499 0.85341 0.0
C578 C 0.42427 0.15734 0.72264 0.0
C579 C 0.35049 0.05936 0.78668 0.0
H580 H 0.43289 0.14902 0.31016 0.0
H581 H 0.42338 0.21873 0.27808 0.0
H582 H 0.3729 0.15446 0.40787 0.0
H583 H 0.38792 0.19983 0.35933 0.0
H584 H 0.38978 0.08967 0.9038 0.0
H585 H 0.41211 0.02917 0.93007 0.0
H586 H 0.34383 0.00729 0.77531 0.0
H587 H 0.37323 0.99412 0.83946 0.0
Eu588 Eu 0.95421 0.17998 0.80205 0.0
C589 C 0.89435 0.23639 0.68851 0.0
C590 C 0.85464 0.19784 0.61833 0.0
C591 C 0.85685 0.24079 0.6652 0.0
C592 C 0.88079 0.20982 0.64796 0.0
C593 C 0.88238 0.25205 0.6985 0.0
C594 C 0.84309 0.21384 0.62439 0.0
C595 C 0.92206 0.2895 0.77039 0.0
N596 N 0.91903 0.24669 0.71998 0.0
C597 C 0.93321 0.27349 0.75741 0.0
C598 C 0.89648 0.27871 0.74103 0.0
Eu599 Eu 0.93841 0.22105 0.67988 0.0
N600 N 0.89257 0.19491 0.64315 0.0
C601 C 0.87782 0.16664 0.62188 0.0
C602 C 0.84053 0.16977 0.5867 0.0
C603 C 0.85196 0.15385 0.59135 0.0
H604 H 0.95348 0.28309 0.77625 0.0
H605 H 0.84076 0.1316 0.57292 0.0
H606 H 0.82325 0.2052 0.60006 0.0
H607 H 0.93342 0.31045 0.80136 0.0
H608 H 0.8853 0.15331 0.63135 0.0
H609 H 0.05034 0.27312 0.90331 0.0
H610 H 0.82044 0.15981 0.56343 0.0
H611 H 0.94131 0.11846 0.70616 0.0
H612 H 0.00517 0.24896 0.85262 0.0
H613 H 0.96342 0.09384 0.67541 0.0
H614 H 0.84748 0.25264 0.67142 0.0
H615 H 0.07368 0.24806 0.90006 0.0
H616 H 0.07343 0.20467 0.85728 0.0
H617 H 0.88794 0.29129 0.75026 0.0
H618 H 0.05028 0.15678 0.78939 0.0
N619 N 1.00024 0.20839 0.83464 0.0
C620 C 0.01381 0.2366 0.85804 0.0
C621 C 0.05321 0.23681 0.88135 0.0
C622 C 0.04007 0.20881 0.84925 0.0
C623 C 0.04009 0.25094 0.88389 0.0
C624 C 0.01335 0.1951 0.82497 0.0
H625 H 0.00986 0.11616 0.7175 0.0
N626 N 0.97514 0.15632 0.75881 0.0
C627 C 0.97419 0.11494 0.7055 0.0
C628 C 1.00048 0.16843 0.78506 0.0
C629 C 0.9618 0.12939 0.72216 0.0
C630 C 1.00032 0.12752 0.72973 0.0
C631 C 0.01375 0.15438 0.77095 0.0
O632 O 0.9268 0.13646 0.81078 0.0
O633 O 0.92262 0.18604 0.75037 0.0
O634 O 0.95239 0.24148 0.81042 0.0
O635 O 0.96498 0.21729 0.89177 0.0
O636 O 0.92411 0.18172 0.86914 0.0
O637 O 0.95692 0.16138 0.90869 0.0
O638 O 0.96955 0.2636 0.67417 0.0
O639 O 0.96968 0.21414 0.72681 0.0
O640 O 0.93774 0.15779 0.67394 0.0
O641 O 0.92629 0.18273 0.59108 0.0
O642 O 0.96586 0.21726 0.60546 0.0
O643 O 0.93598 0.24319 0.58361 0.0
C644 C 0.91169 0.18504 0.81061 0.0
C645 C 0.91592 0.12692 0.9374 0.0
C646 C 0.89239 0.13724 1.02787 0.0
C647 C 0.91442 0.14556 0.99171 0.0
C648 C 0.87261 0.10927 1.0162 0.0
C649 C 0.896 0.09887 0.92517 0.0
C650 C 0.87464 0.09003 0.96556 0.0
C651 C 0.96205 0.23872 0.87987 0.0
C652 C 0.93568 0.13762 0.88405 0.0
C653 C 0.03992 0.16739 0.79892 0.0
C654 C 0.05306 0.19457 0.83796 0.0
C655 C 0.97899 0.21414 0.66294 0.0
C656 C 0.97412 0.28094 0.54853 0.0
C657 C 0.9624 0.27617 0.4708 0.0
C658 C 0.97626 0.29072 0.41166 0.0
C659 C 1.00237 0.31083 0.43077 0.0
C660 C 1.00014 0.30159 0.56816 0.0
C661 C 0.01417 0.31647 0.5093 0.0
C662 C 0.92817 0.16063 0.60432 0.0
C663 C 0.95826 0.2657 0.60869 0.0
H664 H 0.92985 0.16719 1.00279 0.0
H665 H 0.8556 0.10253 1.04471 0.0
H666 H 0.89659 0.08408 0.88265 0.0
H667 H 0.85926 0.06843 0.95547 0.0
H668 H 0.94236 0.26019 0.45517 0.0
H669 H 0.01355 0.32178 0.3852 0.0
H670 H 0.00958 0.30624 0.62858 0.0
H671 H 0.03426 0.33215 0.5244 0.0
Eu672 Eu 0.84641 0.61336 0.74435 0.0
C673 C 0.91888 0.7367 0.84507 0.0
C674 C 0.9601 0.74615 0.8129 0.0
C675 C 0.9497 0.78247 0.81182 0.0
C676 C 0.93544 0.72734 0.83087 0.0
C677 C 0.92622 0.76462 0.83793 0.0
C678 C 0.96674 0.77334 0.8002 0.0
C679 C 0.88939 0.75707 0.89895 0.0
N680 N 0.89686 0.71942 0.87405 0.0
C681 C 0.88319 0.72977 0.90646 0.0
C682 C 0.91062 0.77435 0.86256 0.0
Eu683 Eu 0.88837 0.67378 0.88577 0.0
N684 N 0.92875 0.70101 0.84431 0.0
C685 C 0.94632 0.69291 0.84684 0.0
C686 C 0.97803 0.73777 0.81411 0.0
C687 C 0.97117 0.7111 0.83151 0.0
H688 H 0.86702 0.71668 0.93599 0.0
H689 H 0.98511 0.70468 0.83445 0.0
H690 H 0.98544 0.78785 0.78477 0.0
H691 H 0.87793 0.76482 0.92185 0.0
H692 H 0.94133 0.67253 0.86172 0.0
H693 H 0.76099 0.62432 0.70941 0.0
H694 H 0.99759 0.75229 0.80596 0.0
H695 H 0.85273 0.56666 0.85512 0.0
H696 H 0.80632 0.64281 0.73152 0.0
H697 H 0.82473 0.52102 0.89175 0.0
H698 H 0.9555 0.80386 0.80503 0.0
H699 H 0.73058 0.57492 0.72023 0.0
H700 H 0.72319 0.52926 0.75498 0.0
H701 H 0.91557 0.79562 0.85781 0.0
H702 H 0.74038 0.50206 0.8107 0.0
N703 N 0.80372 0.60416 0.75304 0.0
C704 C 0.79433 0.62112 0.7359 0.0
C705 C 0.75097 0.58293 0.7304 0.0
C706 C 0.76038 0.56618 0.75428 0.0
C707 C 0.76805 0.61077 0.7241 0.0
C708 C 0.78715 0.57764 0.76739 0.0
H709 H 0.7779 0.4992 0.86423 0.0
N710 N 0.82279 0.5736 0.81127 0.0
C711 C 0.81663 0.53234 0.86543 0.0
C712 C 0.79693 0.56202 0.79737 0.0
C713 C 0.83264 0.55894 0.845 0.0
C714 C 0.79024 0.52003 0.84944 0.0
C715 C 0.78005 0.53481 0.8153 0.0
O716 O 0.85383 0.58442 0.67371 0.0
O717 O 0.88683 0.64907 0.77498 0.0
O718 O 0.86963 0.6875 0.79382 0.0
O719 O 0.84367 0.64925 0.69626 0.0
O720 O 0.87047 0.64124 0.65692 0.0
O721 O 0.81886 0.58446 0.64635 0.0
O722 O 0.88418 0.67227 1.01146 0.0
O723 O 0.85185 0.63155 0.87012 0.0
O724 O 0.8774 0.6063 0.8015 0.0
O725 O 0.8997 0.64182 0.90718 0.0
O726 O 0.85029 0.66578 0.91746 0.0
O727 O 0.92132 0.69888 0.97775 0.0
C728 C 0.89111 0.65687 0.70669 0.0
C729 C 0.83144 0.56749 0.54165 0.0
C730 C 0.82131 0.57529 0.40803 0.0
C731 C 0.82786 0.5839 0.49001 0.0
C732 C 0.82011 0.55079 0.37718 0.0
C733 C 0.83003 0.54295 0.51056 0.0
C734 C 0.82469 0.53484 0.42844 0.0
C735 C 0.85372 0.67577 0.72692 0.0
C736 C 0.83218 0.57346 0.62724 0.0
C737 C 0.75352 0.52306 0.7986 0.0
C738 C 0.74374 0.53856 0.76711 0.0
C739 C 0.83747 0.63905 0.89902 0.0
C740 C 0.90913 0.71696 0.0834 0.0
C741 C 0.89187 0.711 0.13754 0.0
C742 C 0.89032 0.73206 0.18012 0.0
C743 C 0.90684 0.75994 0.17019 0.0
C744 C 0.92579 0.74498 0.07285 0.0
C745 C 0.92461 0.76633 0.1163 0.0
C746 C 0.89423 0.61811 0.86692 0.0
C747 C 0.90727 0.69321 1.03442 0.0
H748 H 0.82951 0.60317 0.51432 0.0
H749 H 0.81539 0.54386 0.31398 0.0
H750 H 0.83231 0.52971 0.54978 0.0
H751 H 0.82348 0.51581 0.40463 0.0
H752 H 0.87906 0.68951 0.14613 0.0
H753 H 0.90607 0.77647 0.20376 0.0
H754 H 0.93928 0.75036 1.03039 0.0
H755 H 0.93737 0.78783 0.10779 0.0
C756 C 0.08938 0.46161 0.89956 0.0
C757 C 0.07813 0.4735 0.94614 0.0
C758 C 0.08853 0.46051 0.81305 0.0
C759 C 0.07711 0.47275 0.76489 0.0
C760 C 0.0661 0.48524 0.81226 0.0
C761 C 0.06624 0.48487 0.89826 0.0
C762 C 0.09995 0.44535 0.77412 0.0
C763 C 0.05404 0.49987 0.77332 0.0
C764 C 0.09938 0.48657 0.54449 0.0
C765 C 0.07678 0.47263 0.48762 0.0
C766 C 0.09976 0.48713 0.63065 0.0
C767 C 0.0769 0.47268 0.66844 0.0
C768 C 0.05392 0.45826 0.61082 0.0
C769 C 0.05418 0.45876 0.52491 0.0
C770 C 0.12557 0.50409 0.6806 0.0
C771 C 0.02816 0.44151 0.63829 0.0
H772 H 0.09867 0.45225 0.93084 0.0
H773 H 0.05723 0.49441 0.92865 0.0
H774 H 0.09302 0.43895 0.70967 0.0
H775 H 0.12109 0.45911 0.78262 0.0
H776 H 0.09544 0.42645 0.80286 0.0
H777 H 0.05832 0.51871 0.81267 0.0
H778 H 0.06063 0.50623 0.71541 0.0
H779 H 0.03294 0.48572 0.76391 0.0
H780 H 0.11745 0.49801 0.52168 0.0
H781 H 0.03608 0.44746 0.48631 0.0
H782 H 0.13505 0.49173 0.68145 0.0
H783 H 0.1243 0.51016 0.74254 0.0
H784 H 0.13803 0.52331 0.65409 0.0
H785 H 0.02948 0.43576 0.69883 0.0
H786 H 0.01567 0.42213 0.59667 0.0
H787 H 0.01866 0.45387 0.63784 0.0
C788 C 0.64091 0.4923 0.80777 0.0
C789 C 0.62768 0.50224 0.85184 0.0
C790 C 0.64207 0.49288 0.7224 0.0
C791 C 0.62877 0.5026 0.672 0.0
C792 C 0.61498 0.51223 0.71637 0.0
C793 C 0.61501 0.51234 0.80233 0.0
C794 C 0.65828 0.483 0.68742 0.0
C795 C 0.59938 0.52248 0.67387 0.0
C796 C 0.64048 0.52755 0.45175 0.0
C797 C 0.62996 0.50299 0.3961 0.0
C798 C 0.64083 0.52779 0.53782 0.0
C799 C 0.62926 0.5027 0.5761 0.0
C800 C 0.61811 0.47775 0.51959 0.0
C801 C 0.61899 0.47826 0.43407 0.0
C802 C 0.6543 0.55591 0.58719 0.0
C803 C 0.60444 0.44948 0.5478 0.0
H804 H 0.65117 0.4843 0.84077 0.0
H805 H 0.60406 0.51975 0.83054 0.0
H806 H 0.64713 0.4599 0.67625 0.0
H807 H 0.66448 0.49139 0.63093 0.0
H808 H 0.67557 0.4891 0.72999 0.0
H809 H 0.58145 0.51583 0.70019 0.0
H810 H 0.61047 0.5456 0.68187 0.0
H811 H 0.5943 0.51489 0.60944 0.0
H812 H 0.64919 0.54734 0.42805 0.0
H813 H 0.61009 0.45858 0.3962 0.0
H814 H 0.66005 0.55505 0.64994 0.0
H815 H 0.64138 0.56435 0.58546 0.0
H816 H 0.67166 0.57081 0.56197 0.0
H817 H 0.61733 0.44101 0.55036 0.0
H818 H 0.58721 0.43475 0.50498 0.0
H819 H 0.59846 0.4501 0.60719 0.0
C820 C 0.61807 0.08754 0.61373 0.0
C821 C 0.59565 0.07335 0.65157 0.0
C822 C 0.61809 0.08755 0.52783 0.0
C823 C 0.59493 0.07416 0.47131 0.0
C824 C 0.57214 0.06032 0.50982 0.0
C825 C 0.57283 0.05961 0.59573 0.0
C826 C 0.64383 0.10205 0.49898 0.0
C827 C 0.54607 0.04606 0.46123 0.0
C828 C 0.60364 0.09916 0.2499 0.0
C829 C 0.59385 0.07467 0.19444 0.0
C830 C 0.60368 0.09933 0.33601 0.0
C831 C 0.59459 0.07443 0.37514 0.0
C832 C 0.58529 0.04972 0.31917 0.0
C833 C 0.58463 0.05015 0.23328 0.0
C834 C 0.61358 0.12713 0.38426 0.0
C835 C 0.57601 0.02186 0.34865 0.0
H836 H 0.63631 0.09851 0.65178 0.0
H837 H 0.55484 0.04854 0.6194 0.0
H838 H 0.64292 0.09508 0.43575 0.0
H839 H 0.65162 0.12485 0.50661 0.0
H840 H 0.65754 0.0984 0.53528 0.0
H841 H 0.53274 0.04975 0.49296 0.0
H842 H 0.5465 0.0532 0.40189 0.0
H843 H 0.53816 0.02324 0.45357 0.0
H844 H 0.61103 0.11881 0.22583 0.0
H845 H 0.5772 0.03057 0.19629 0.0
H846 H 0.63481 0.13873 0.39253 0.0
H847 H 0.60692 0.12512 0.44336 0.0
H848 H 0.60754 0.13984 0.35205 0.0
H849 H 0.58335 0.02376 0.41191 0.0
H850 H 0.58183 0.00935 0.31259 0.0
H851 H 0.55478 0.01009 0.34133 0.0
C852 C 0.77732 0.90874 0.63935 0.0
C853 C 0.79974 0.92088 0.6008 0.0
C854 C 0.77739 0.9076 0.72506 0.0
C855 C 0.8006 0.9203 0.78145 0.0
C856 C 0.82335 0.93327 0.74244 0.0
C857 C 0.82258 0.93265 0.65614 0.0
C858 C 0.75167 0.89172 0.75348 0.0
C859 C 0.84945 0.94872 0.79106 0.0
C860 C 0.79052 0.93196 1.01195 0.0
C861 C 0.80178 0.91973 0.05853 0.0
C862 C 0.79062 0.93297 0.92634 0.0
C863 C 0.80107 0.92009 0.87784 0.0
C864 C 0.81194 0.90703 0.92478 0.0
C865 C 0.81268 0.90764 1.01114 0.0
C866 C 0.77949 0.94877 0.88934 0.0
C867 C 0.82272 0.89135 0.88481 0.0
H868 H 0.75905 0.89896 0.60169 0.0
H869 H 0.84056 0.94234 0.63199 0.0
H870 H 0.75285 0.88555 0.8135 0.0
H871 H 0.74292 0.90482 0.75438 0.0
H872 H 0.73859 0.8726 0.71155 0.0
H873 H 0.8624 0.96788 0.76515 0.0
H874 H 0.84891 0.95474 0.85384 0.0
H875 H 0.85791 0.93534 0.78916 0.0
H876 H 0.78187 0.94175 1.04315 0.0
H877 H 0.82135 0.89751 1.04141 0.0
H878 H 0.7583 0.9356 0.88156 0.0
H879 H 0.78583 0.95493 0.83105 0.0
H880 H 0.78489 0.96789 0.92943 0.0
H881 H 0.81744 0.87202 0.91213 0.0
H882 H 0.84393 0.90443 0.89438 0.0
H883 H 0.81599 0.88559 0.82015 0.0
C884 C 0.20732 0.78637 0.70553 0.0
C885 C 0.19138 0.79284 0.65536 0.0
C886 C 0.20865 0.78679 0.79374 0.0
C887 C 0.19216 0.7915 0.84218 0.0
C888 C 0.175 0.79632 0.79079 0.0
C889 C 0.1754 0.79755 0.70438 0.0
C890 C 0.22863 0.78204 0.83424 0.0
C891 C 0.15457 0.79935 0.8253 0.0
C892 C 0.18826 0.76705 0.07005 0.0
C893 C 0.19189 0.78927 0.12728 0.0
C894 C 0.18752 0.76708 0.98274 0.0
C895 C 0.19215 0.79082 0.94135 0.0
C896 C 0.19635 0.8137 0.99921 0.0
C897 C 0.1962 0.81265 0.08631 0.0
C898 C 0.18155 0.74042 0.93537 0.0
C899 C 0.20211 0.84089 0.97096 0.0
H900 H 0.2186 0.77988 0.67605 0.0
H901 H 0.16173 0.80174 0.67375 0.0
H902 H 0.23282 0.78894 0.89905 0.0
H903 H 0.22198 0.75953 0.82394 0.0
H904 H 0.2467 0.79336 0.80809 0.0
H905 H 0.13637 0.78815 0.7838 0.0
H906 H 0.15073 0.79122 0.88335 0.0
H907 H 0.16053 0.8217 0.83273 0.0
H908 H 0.18603 0.74866 0.0941 0.0
H909 H 0.20052 0.83133 0.12341 0.0
H910 H 0.19911 0.73918 0.93925 0.0
H911 H 0.17452 0.73891 0.87202 0.0
H912 H 0.16689 0.72213 0.96076 0.0
H913 H 0.20855 0.84317 0.91152 0.0
H914 H 0.21713 0.85872 1.01365 0.0
H915 H 0.18461 0.84222 0.96861 0.0
C916 C 0.28996 0.30451 0.73721 0.0
C917 C 0.27526 0.28048 0.67959 0.0
C918 C 0.28967 0.3044 0.82309 0.0
C919 C 0.27518 0.27929 0.85978 0.0
C920 C 0.26074 0.25483 0.80143 0.0
C921 C 0.26046 0.25588 0.71577 0.0
C922 C 0.30506 0.33228 0.87361 0.0
C923 C 0.24531 0.22645 0.82785 0.0
C924 C 0.29739 0.28651 0.09741 0.0
C925 C 0.27507 0.27722 0.13585 0.0
C926 C 0.2976 0.28654 1.01156 0.0
C927 C 0.27512 0.27859 0.9558 0.0
C928 C 0.25259 0.26989 0.99503 0.0
C929 C 0.25277 0.26872 0.08071 0.0
C930 C 0.32274 0.29503 0.98196 0.0
C931 C 0.22749 0.26205 0.94763 0.0
H932 H 0.30145 0.32421 0.71514 0.0
H933 H 0.2486 0.23658 0.67659 0.0
H934 H 0.29906 0.33196 0.93336 0.0
H935 H 0.32558 0.33872 0.88024 0.0
H936 H 0.30337 0.34841 0.84393 0.0
H937 H 0.24689 0.21072 0.78979 0.0
H938 H 0.25137 0.22591 0.89057 0.0
H939 H 0.22482 0.22011 0.82042 0.0
H940 H 0.31524 0.29342 0.13491 0.0
H941 H 0.23498 0.26177 0.1049 0.0
H942 H 0.33506 0.31809 0.99195 0.0
H943 H 0.32043 0.28781 0.91801 0.0
H944 H 0.33297 0.2866 1.01619 0.0
H945 H 0.22979 0.26994 0.88904 0.0
H946 H 0.21742 0.27029 0.98108 0.0
H947 H 0.215 0.23901 0.93849 0.0
C948 C 0.43248 0.18342 0.14781 0.0
C949 C 0.44629 0.19074 0.22378 0.0
C950 C 0.43636 0.16778 0.08961 0.0
C951 C 0.45607 0.16188 0.10694 0.0
C952 C 0.47442 0.17627 0.17492 0.0
C953 C 0.46894 0.19009 0.23456 0.0
C954 C 0.41627 0.15329 1.01732 0.0
C955 C 0.49758 0.1735 0.18982 0.0
C956 C 0.42545 0.08492 0.05432 0.0
C957 C 0.4262 0.08397 0.97289 0.0
C958 C 0.438 0.1106 0.10249 0.0
C959 C 0.45248 0.13555 0.0679 0.0
C960 C 0.45689 0.13393 0.98842 0.0
C961 C 0.443 0.10811 0.94112 0.0
C962 C 0.4319 0.11091 0.18637 0.0
C963 C 0.47424 0.15971 0.95169 0.0
H964 H 0.41542 0.18476 0.13904 0.0
H965 H 0.4802 0.19667 0.29284 0.0
H966 H 0.42506 0.15415 0.96268 0.0
H967 H 0.40364 0.13099 1.02452 0.0
H968 H 0.40418 0.16265 1.00866 0.0
H969 H 0.49273 0.15499 0.22075 0.0
H970 H 0.50426 0.17083 0.13311 0.0
H971 H 0.51342 0.19209 0.22823 0.0
H972 H 0.41211 0.06617 0.07816 0.0
H973 H 0.44356 0.10719 0.87812 0.0
H974 H 0.41836 0.11845 0.18931 0.0
H975 H 0.44938 0.12503 0.2285 0.0
H976 H 0.42282 0.08986 0.20611 0.0
H977 H 0.49407 0.16919 0.98232 0.0
H978 H 0.4687 0.17555 0.95971 0.0
H979 H 0.47415 0.15507 0.88729 0.0
C980 C 0.93846 0.27524 0.31158 0.0
C981 C 0.96344 0.28054 0.32957 0.0
C982 C 0.92117 0.25382 0.25224 0.0
C983 C 0.92966 0.23857 0.20885 0.0
C984 C 0.95602 0.24762 0.21668 0.0
C985 C 0.97256 0.26803 0.27902 0.0
C986 C 0.8934 0.24547 0.24232 0.0
C987 C 0.96621 0.23369 0.16499 0.0
C988 C 0.89483 0.16108 0.15802 0.0
C989 C 0.89093 0.15899 0.07545 0.0
C990 C 0.90471 0.1869 0.20389 0.0
C991 C 0.91112 0.21084 0.16526 0.0
C992 C 0.90405 0.20795 0.08273 0.0
C993 C 0.89352 0.18174 1.03886 0.0
C994 C 0.91121 0.1891 0.29257 0.0
C995 C 0.90964 0.23257 1.03904 0.0
H996 H 0.9316 0.2853 0.35054 0.0
H997 H 0.99196 0.27237 0.2924 0.0
H998 H 0.8855 0.24071 0.17845 0.0
H999 H 0.88226 0.22629 0.27057 0.0
H1000 H 0.89069 0.26204 0.2703 0.0
H1001 H 0.98744 0.24605 0.17024 0.0
H1002 H 0.96028 0.21279 0.18276 0.0
H1003 H 0.95823 0.23078 0.1018 0.0
H1004 H 0.89275 0.14337 0.186 0.0
H1005 H 0.88999 0.17967 0.97489 0.0
H1006 H 0.90589 0.20288 0.32435 0.0
H1007 H 0.93217 0.19843 0.30775 0.0
H1008 H 0.90136 0.16839 0.31437 0.0
H1009 H 0.89184 0.23312 1.02703 0.0
H1010 H 0.91586 0.2303 0.9813 0.0
H1011 H 0.92463 0.25289 0.07232 0.0
C1012 C 0.80453 0.60662 0.38267 0.0
C1013 C 0.81717 0.59323 0.35661 0.0
C1014 C 0.80836 0.63081 0.35243 0.0
C1015 C 0.8247 0.64119 0.29358 0.0
C1016 C 0.83306 0.62448 0.25637 0.0
C1017 C 0.82961 0.60083 0.28942 0.0
C1018 C 0.79625 0.64574 0.38856 0.0
C1019 C 0.84808 0.6331 0.18722 0.0
C1020 C 0.84597 0.70802 0.20428 0.0
C1021 C 0.87186 0.72285 0.23706 0.0
C1022 C 0.82908 0.68195 0.22733 0.0
C1023 C 0.83849 0.67132 0.28541 0.0
C1024 C 0.86345 0.68867 0.32778 0.0
C1025 C 0.87945 0.71498 0.30531 0.0
C1026 C 0.8027 0.66431 0.18096 0.0
C1027 C 0.87452 0.6785 0.39078 0.0
H1028 H 0.7935 0.59966 0.43174 0.0
H1029 H 0.83869 0.58999 0.26716 0.0
H1030 H 0.80081 0.66512 0.36289 0.0
H1031 H 0.77515 0.63156 0.37962 0.0
H1032 H 0.80237 0.6507 0.45372 0.0
H1033 H 0.84702 0.61498 0.15271 0.0
H1034 H 0.84086 0.64302 0.14673 0.0
H1035 H 0.86848 0.64834 0.20989 0.0
H1036 H 0.84012 0.71431 0.15153 0.0
H1037 H 0.89944 0.72674 0.33112 0.0
H1038 H 0.78848 0.6514 0.21942 0.0
H1039 H 0.80314 0.65005 0.1338 0.0
H1040 H 0.79631 0.67731 0.15209 0.0
H1041 H 0.85981 0.66451 0.42637 0.0
H1042 H 0.89049 0.69617 0.43171 0.0
H1043 H 0.88221 0.6666 0.36161 0.0
C1044 C 0.24746 0.34302 0.40805 0.0
C1045 C 0.24635 0.32567 0.34261 0.0
C1046 C 0.23812 0.36147 0.3993 0.0
C1047 C 0.22653 0.36211 0.32386 0.0
C1048 C 0.22539 0.3445 0.25807 0.0
C1049 C 0.23529 0.32684 0.26818 0.0
C1050 C 0.2405 0.38017 0.47113 0.0
C1051 C 0.21341 0.34404 0.17642 0.0
C1052 C 0.18195 0.39252 0.30603 0.0
C1053 C 0.19823 0.41928 0.28512 0.0
C1054 C 0.19077 0.37381 0.31925 0.0
C1055 C 0.21659 0.38184 0.31207 0.0
C1056 C 0.23274 0.40852 0.28913 0.0
C1057 C 0.22341 0.42648 0.27534 0.0
C1058 C 0.17249 0.34546 0.34168 0.0
C1059 C 0.2603 0.41858 0.28086 0.0
H1060 H 0.25521 0.34187 0.46627 0.0
H1061 H 0.23387 0.31328 0.2172 0.0
H1062 H 0.25125 0.40225 0.45978 0.0
H1063 H 0.22121 0.37533 0.4828 0.0
H1064 H 0.25047 0.37786 0.52503 0.0
H1065 H 0.21323 0.32863 0.13168 0.0
H1066 H 0.19343 0.33892 0.1783 0.0
H1067 H 0.22407 0.36497 0.15653 0.0
H1068 H 0.16253 0.38646 0.31423 0.0
H1069 H 0.23625 0.44668 0.25758 0.0
H1070 H 0.17985 0.34312 0.40064 0.0
H1071 H 0.17108 0.32899 0.29822 0.0
H1072 H 0.15302 0.34199 0.34395 0.0
H1073 H 0.27067 0.4207 0.33989 0.0
H1074 H 0.27004 0.43906 0.25776 0.0
H1075 H 0.26163 0.40322 0.24045 0.0
C1076 C 0.6689 0.7079 0.23247 0.0
C1077 C 0.67711 0.69121 0.19605 0.0
C1078 C 0.68484 0.73698 0.2479 0.0
C1079 C 0.71007 0.75012 0.22837 0.0
C1080 C 0.71904 0.73332 0.19548 0.0
C1081 C 0.70245 0.70409 0.17942 0.0
C1082 C 0.67436 0.75367 0.28352 0.0
C1083 C 0.74599 0.7463 0.17548 0.0
C1084 C 0.74327 0.82638 0.18906 0.0
C1085 C 0.75841 0.84045 0.26194 0.0
C1086 C 0.72695 0.79715 0.17812 0.0
C1087 C 0.72665 0.7814 0.24039 0.0
C1088 C 0.74199 0.79564 0.31422 0.0
C1089 C 0.75749 0.82494 0.32422 0.0
C1090 C 0.71025 0.78309 0.09948 0.0
C1091 C 0.74276 0.7799 0.38188 0.0
H1092 H 0.64964 0.69817 0.24784 0.0
H1093 H 0.70906 0.69146 0.15148 0.0
H1094 H 0.68539 0.76447 0.34262 0.0
H1095 H 0.67655 0.76973 0.24521 0.0
H1096 H 0.65382 0.74057 0.29063 0.0
H1097 H 0.75069 0.73038 0.15576 0.0
H1098 H 0.74845 0.75953 0.12744 0.0
H1099 H 0.7599 0.76 0.2279 0.0
H1100 H 0.74438 0.83829 0.14035 0.0
H1101 H 0.76962 0.83569 0.38012 0.0
H1102 H 0.68992 0.77033 0.109 0.0
H1103 H 0.71555 0.76878 0.07088 0.0
H1104 H 0.71196 0.79831 0.05826 0.0
H1105 H 0.75566 0.79403 0.43547 0.0
H1106 H 0.74942 0.76564 0.36314 0.0
H1107 H 0.72329 0.76685 0.39814 0.0
C1108 C 0.44125 0.94551 0.05186 0.0
C1109 C 0.4348 0.96077 1.00297 0.0
C1110 C 0.42741 0.93352 0.11428 0.0
C1111 C 0.40657 0.93679 0.12795 0.0
C1112 C 0.4004 0.95283 0.08028 0.0
C1113 C 0.41462 0.96466 1.01837 0.0
C1114 C 0.43455 0.91655 0.16388 0.0
C1115 C 0.3783 0.95679 0.09306 0.0
C1116 C 0.35357 0.87979 0.2223 0.0
C1117 C 0.3584 0.89222 0.30089 0.0
C1118 C 0.36898 0.8942 0.16552 0.0
C1119 C 0.39003 0.92162 0.18799 0.0
C1120 C 0.39529 0.93422 0.26742 0.0
C1121 C 0.37935 0.91937 0.32299 0.0
C1122 C 0.36267 0.88006 0.08133 0.0
C1123 C 0.41766 0.96339 0.29349 0.0
H1124 H 0.45669 0.94224 1.03986 0.0
H1125 H 0.40984 0.97686 0.98165 0.0
H1126 H 0.43704 0.92376 0.22796 0.0
H1127 H 0.41889 0.89436 0.15353 0.0
H1128 H 0.45246 0.91783 0.1497 0.0
H1129 H 0.37712 0.97142 0.05447 0.0
H1130 H 0.36007 0.93641 0.08025 0.0
H1131 H 0.38011 0.96485 0.15594 0.0
H1132 H 0.33768 0.85864 0.20508 0.0
H1133 H 0.38301 0.92921 0.38336 0.0
H1134 H 0.37897 0.87834 0.06459 0.0
H1135 H 0.35952 0.89274 1.03965 0.0
H1136 H 0.3453 0.85885 0.07327 0.0
H1137 H 0.43574 0.96455 0.28238 0.0
H1138 H 0.41919 0.97016 0.35748 0.0
H1139 H 0.41573 0.97829 0.25818 0.0
C1140 C 0.53207 0.09958 0.93144 0.0
C1141 C 0.54643 0.09277 0.88496 0.0
C1142 C 0.51077 0.10074 0.89747 0.0
C1143 C 0.50298 0.09486 0.81391 0.0
C1144 C 0.51782 0.0884 0.76656 0.0
C1145 C 0.5391 0.08737 0.80222 0.0
C1146 C 0.49608 0.10737 0.95206 0.0
C1147 C 0.51088 0.08192 0.67793 0.0
C1148 C 0.43245 0.07146 0.73679 0.0
C1149 C 0.4341 0.09636 0.71851 0.0
C1150 C 0.45447 0.07052 0.76583 0.0
C1151 C 0.47929 0.09505 0.77699 0.0
C1152 C 0.48109 0.12006 0.7562 0.0
C1153 C 0.45869 0.12048 0.72928 0.0
C1154 C 0.45095 0.04338 0.78806 0.0
C1155 C 0.50668 0.14683 0.76523 0.0
H1156 H 0.53706 0.10317 0.99545 0.0
H1157 H 0.54943 0.08126 0.76529 0.0
H1158 H 0.49472 0.12505 0.93292 0.0
H1159 H 0.47648 0.08899 0.94833 0.0
H1160 H 0.50515 0.11297 1.01497 0.0
H1161 H 0.52484 0.07866 0.64851 0.0
H1162 H 0.49164 0.06289 0.66277 0.0
H1163 H 0.51005 0.09933 0.65426 0.0
H1164 H 0.41366 0.05283 0.73197 0.0
H1165 H 0.46049 0.14004 0.7184 0.0
H1166 H 0.45649 0.04542 0.85296 0.0
H1167 H 0.46364 0.03825 0.75784 0.0
H1168 H 0.43087 0.02582 0.77217 0.0
H1169 H 0.50535 0.16379 0.73938 0.0
H1170 H 0.52058 0.14347 0.73598 0.0
H1171 H 0.51439 0.15375 0.82913 0.0
C1172 C 0.96189 0.2796 0.94696 0.0
C1173 C 0.9728 0.26299 0.94348 0.0
C1174 C 0.97439 0.30581 0.99322 0.0
C1175 C 0.99871 0.31614 1.03814 0.0
C1176 C 0.00904 0.29852 1.03937 0.0
C1177 C 0.9958 0.27205 0.99314 0.0
C1178 C 0.96177 0.32274 0.99124 0.0
C1179 C 0.03471 0.30817 0.08645 0.0
C1180 C 0.04528 0.39529 0.08437 0.0
C1181 C 0.04367 0.40053 0.16481 0.0
C1182 C 0.03057 0.36817 1.04238 0.0
C1183 C 0.01366 0.34552 0.08134 0.0
C1184 C 0.01162 0.35101 0.1621 0.0
C1185 C 0.02693 0.37822 0.20314 0.0
C1186 C 0.03344 0.36371 0.95647 0.0
C1187 C 0.99379 0.32796 0.20603 0.0
H1188 H 0.94352 0.27219 0.91231 0.0
H1189 H 0.0042 0.25913 0.993 0.0
H1190 H 0.96262 0.33126 0.05237 0.0
H1191 H 0.97218 0.34025 0.9564 0.0
H1192 H 0.94142 0.3103 0.96376 0.0
H1193 H 0.04002 0.29199 0.08216 0.0
H1194 H 0.04972 0.32713 0.06451 0.0
H1195 H 0.03455 0.31388 0.14986 0.0
H1196 H 0.05841 0.41239 0.05451 0.0
H1197 H 0.0257 0.38211 0.26532 0.0
H1198 H 0.01463 0.3545 0.91896 0.0
H1199 H 0.04007 0.34873 0.94896 0.0
H1200 H 0.04725 0.38342 0.93449 0.0
H1201 H 0.97442 0.31552 0.17125 0.0
H1202 H 0.99216 0.33589 0.26537 0.0
H1203 H 1.00131 0.31394 0.21387 0.0
C1204 C 0.79663 0.63128 0.94332 0.0
C1205 C 0.81316 0.62128 0.93262 0.0
C1206 C 0.77435 0.6163 0.97938 0.0
C1207 C 0.76755 0.58987 1.003 0.0
C1208 C 0.78446 0.5799 0.99366 0.0
C1209 C 0.80744 0.59618 0.96147 0.0
C1210 C 0.75817 0.62902 0.99229 0.0
C1211 C 0.77816 0.55184 1.01669 0.0
C1212 C 0.71917 0.55629 0.15062 0.0
C1213 C 0.69567 0.54308 0.10104 0.0
C1214 C 0.74262 0.57123 0.12 0.0
C1215 C 0.74279 0.57285 1.0369 0.0
C1216 C 0.71883 0.55928 0.98693 0.0
C1217 C 0.69585 0.54498 1.01959 0.0
C1218 C 0.76675 0.58593 0.17885 0.0
C1219 C 0.71649 0.55988 0.89856 0.0
H1220 H 0.80131 0.65116 0.92399 0.0
H1221 H 0.82093 0.58923 0.95899 0.0
H1222 H 0.74137 0.61935 0.94541 0.0
H1223 H 0.75106 0.62525 1.05076 0.0
H1224 H 0.769 0.65185 0.98947 0.0
H1225 H 0.79286 0.54671 1.00379 0.0
H1226 H 0.77666 0.55137 0.08097 0.0
H1227 H 0.75934 0.53544 0.98409 0.0
H1228 H 0.71924 0.55557 0.21411 0.0
H1229 H 0.67791 0.53575 0.98079 0.0
H1230 H 0.76462 0.59851 0.2272 0.0
H1231 H 0.78412 0.59976 0.15239 0.0
H1232 H 0.76952 0.57017 0.2068 0.0
H1233 H 0.73514 0.57141 0.8767 0.0
H1234 H 0.7052 0.56965 0.88196 0.0
H1235 H 0.70565 0.53818 0.86808 0.0
C1236 C 0.91464 0.60598 0.97726 0.0
C1237 C 0.90825 0.60468 0.89555 0.0
C1238 C 0.9267 0.59213 1.00628 0.0
C1239 C 0.93328 0.57732 0.95219 0.0
C1240 C 0.92784 0.57695 0.86943 0.0
C1241 C 0.91496 0.59024 0.84205 0.0
C1242 C 0.93141 0.59239 0.09489 0.0
C1243 C 0.93523 0.56216 0.80984 0.0
C1244 C 0.97925 0.55691 1.04591 0.0
C1245 C 0.96223 0.52936 0.05885 0.0
C1246 C 0.97033 0.57244 1.00743 0.0
C1247 C 0.94375 0.56029 0.98271 0.0
C1248 C 0.9267 0.53216 0.99251 0.0
C1249 C 0.93619 0.51698 1.02902 0.0
C1250 C 0.9892 0.60213 0.99586 0.0
C1251 C 0.89819 0.51841 0.96804 0.0
H1252 H 0.90933 0.61702 1.0187 0.0
H1253 H 0.91031 0.58951 0.77877 0.0
H1254 H 0.92038 0.57081 0.11027 0.0
H1255 H 0.95194 0.60035 0.11419 0.0
H1256 H 0.92576 0.60547 0.12894 0.0
H1257 H 0.93235 0.56653 0.74838 0.0
H1258 H 0.9556 0.56856 0.82528 0.0
H1259 H 0.92357 0.53933 0.81127 0.0
H1260 H 0.99939 0.56673 0.06844 0.0
H1261 H 0.92294 0.49543 1.03614 0.0
H1262 H 0.98649 0.61661 1.03552 0.0
H1263 H 0.98585 0.60577 0.93391 0.0
H1264 H 0.00933 0.60737 1.00912 0.0
H1265 H 0.89074 0.52961 1.00218 0.0
H1266 H 0.88757 0.49618 0.97828 0.0
H1267 H 0.89406 0.5196 0.90426 0.0
C1268 C 0.54368 0.28627 1.0117 0.0
C1269 C 0.55001 0.31171 0.98319 0.0
C1270 C 0.52302 0.26063 0.97355 0.0
C1271 C 0.5073 0.26016 0.90689 0.0
C1272 C 0.51262 0.28574 0.88022 0.0
C1273 C 0.53404 0.31103 0.91757 0.0
C1274 C 0.51848 0.234 1.00364 0.0
C1275 C 0.49586 0.28638 0.81118 0.0
C1276 C 0.47038 0.1962 0.7508 0.0
C1277 C 0.44566 0.18281 0.77284 0.0
C1278 C 0.49064 0.22071 0.79528 0.0
C1279 C 0.4861 0.23297 0.86252 0.0
C1280 C 0.46128 0.21943 0.88584 0.0
C1281 C 0.44157 0.19431 0.84176 0.0
C1282 C 0.51696 0.23351 0.77002 0.0
C1283 C 0.45535 0.23146 0.95707 0.0
H1284 H 0.55504 0.28618 0.0638 0.0
H1285 H 0.53852 0.33016 0.89369 0.0
H1286 H 0.50005 0.22374 1.02801 0.0
H1287 H 0.51729 0.21939 0.95407 0.0
H1288 H 0.53387 0.23768 1.05097 0.0
H1289 H 0.50106 0.30796 0.80218 0.0
H1290 H 0.49757 0.27622 0.75592 0.0
H1291 H 0.47549 0.27447 0.82098 0.0
H1292 H 0.47409 0.18742 0.69883 0.0
H1293 H 0.42278 0.18405 0.86063 0.0
H1294 H 0.53112 0.23654 0.82071 0.0
H1295 H 0.52288 0.25432 0.75176 0.0
H1296 H 0.51771 0.22042 0.71977 0.0
H1297 H 0.46383 0.22807 1.01216 0.0
H1298 H 0.43442 0.22151 0.95838 0.0
H1299 H 0.46377 0.25426 0.9576 0.0
C1300 C 0.86425 0.15237 0.79799 0.0
C1301 C 0.8853 0.17974 0.81213 0.0
C1302 C 0.83944 0.14627 0.80958 0.0
C1303 C 0.83553 0.16792 0.83831 0.0
C1304 C 0.85674 0.19572 0.85067 0.0
C1305 C 0.88129 0.20122 0.838 0.0
C1306 C 0.8175 0.11647 0.79329 0.0
C1307 C 0.85369 0.21964 0.87976 0.0
C1308 C 0.76825 0.15773 0.83558 0.0
C1309 C 0.76387 0.15371 0.91449 0.0
C1310 C 0.79091 0.1614 0.80897 0.0
C1311 C 0.80998 0.16128 0.86238 0.0
C1312 C 0.805 0.15577 0.94103 0.0
C1313 C 0.78214 0.15196 0.96578 0.0
C1314 C 0.79489 0.16715 0.72479 0.0
C1315 C 0.82443 0.15526 1.00057 0.0
H1316 H 0.86731 0.1356 0.77928 0.0
H1317 H 0.89753 0.22232 0.85002 0.0
H1318 H 0.81054 0.10887 0.84989 0.0
H1319 H 0.80132 0.11515 0.75457 0.0
H1320 H 0.82309 0.10246 0.76423 0.0
H1321 H 0.87174 0.24012 0.88334 0.0
H1322 H 0.83863 0.21986 0.8394 0.0
H1323 H 0.84746 0.2169 0.93952 0.0
H1324 H 0.75457 0.15949 0.79548 0.0
H1325 H 0.77895 0.14853 1.02673 0.0
H1326 H 0.80643 0.15904 0.70081 0.0
H1327 H 0.80515 0.19002 0.72393 0.0
H1328 H 0.77637 0.15783 0.6854 0.0
H1329 H 0.83055 0.14116 0.97583 0.0
H1330 H 0.8169 0.14839 0.05719 0.0
H1331 H 0.8417 0.17647 1.01373 0.0
C1332 C 0.63648 0.04422 0.1072 0.0
C1333 C 0.62904 0.0405 1.02487 0.0
C1334 C 0.64733 0.02996 0.14202 0.0
C1335 C 0.64995 0.01022 0.0942 0.0
C1336 C 0.64192 0.00578 1.01096 0.0
C1337 C 0.63237 0.02165 0.97697 0.0
C1338 C 0.65614 0.03624 0.23037 0.0
C1339 C 0.64299 0.98393 0.95802 0.0
C1340 C 0.69494 0.98504 0.16961 0.0
C1341 C 0.67865 0.96184 0.20648 0.0
C1342 C 0.68605 1.00123 0.13403 0.0
C1343 C 0.65998 0.99355 0.13251 0.0
C1344 C 0.64389 0.97077 0.17235 0.0
C1345 C 0.65344 0.95568 0.20909 0.0
C1346 C 0.70479 0.02703 0.10014 0.0
C1347 C 0.61628 0.96149 0.17747 0.0
H1348 H 0.63475 0.05938 0.14468 0.0
H1349 H 0.62791 0.01961 0.91309 0.0
H1350 H 0.64297 0.01834 0.2602 0.0
H1351 H 0.67557 0.03937 0.24308 0.0
H1352 H 0.65656 0.05509 0.25687 0.0
H1353 H 0.63602 0.9829 0.89483 0.0
H1354 H 0.66282 0.9882 0.96214 0.0
H1355 H 0.6311 0.96323 0.97822 0.0
H1356 H 0.71455 0.99046 0.16778 0.0
H1357 H 0.64077 0.93877 0.24042 0.0
H1358 H 0.70344 0.04511 0.12329 0.0
H1359 H 0.70013 0.02403 1.03466 0.0
H1360 H 0.72484 0.03216 0.11487 0.0
H1361 H 0.6109 0.97644 0.15859 0.0
H1362 H 0.61219 0.95809 0.23941 0.0
H1363 H 0.60388 0.94112 0.14012 0.0
C1364 C 0.17452 0.69311 0.30274 0.0
C1365 C 0.16127 0.70362 0.34221 0.0
C1366 C 0.16553 0.66428 0.2896 0.0
C1367 C 0.1419 0.64463 0.31335 0.0
C1368 C 0.12782 0.65489 0.35059 0.0
C1369 C 0.13769 0.68405 0.36507 0.0
C1370 C 0.18162 0.65487 0.25095 0.0
C1371 C 0.10226 0.63498 0.3755 0.0
C1372 C 0.10758 0.56807 0.21599 0.0
C1373 C 0.11197 0.55452 0.27644 0.0
C1374 C 0.11726 0.59715 0.22677 0.0
C1375 C 0.13212 0.61355 0.29956 0.0
C1376 C 0.13745 0.60004 0.35945 0.0
C1377 C 0.12676 0.5708 0.34806 0.0
C1378 C 0.11042 0.61008 0.16151 0.0
C1379 C 0.15392 0.61635 0.43683 0.0
H1380 H 0.19211 0.70743 0.28133 0.0
H1381 H 0.12692 0.69149 0.3947 0.0
H1382 H 0.18597 0.64237 0.2902 0.0
H1383 H 0.17087 0.64123 0.1945 0.0
H1384 H 0.19995 0.67265 0.2382 0.0
H1385 H 0.093 0.6459 0.40005 0.0
H1386 H 0.08925 0.61969 0.32395 0.0
H1387 H 0.10475 0.62305 0.4212 0.0
H1388 H 0.09525 0.55558 0.16176 0.0
H1389 H 0.12952 0.56048 0.39622 0.0
H1390 H 0.128 0.62775 0.14456 0.0
H1391 H 0.09887 0.61859 0.18321 0.0
H1392 H 0.09934 0.59485 0.10775 0.0
H1393 H 0.17225 0.63439 0.4253 0.0
H1394 H 0.1582 0.60339 0.47432 0.0
H1395 H 0.14405 0.62473 0.47055 0.0
C1396 C 0.55813 0.45847 0.23168 0.0
C1397 C 0.55794 0.46153 0.15055 0.0
C1398 C 0.5352 0.44442 0.26526 0.0
C1399 C 0.51124 0.43251 0.21648 0.0
C1400 C 0.51098 0.43575 0.13452 0.0
C1401 C 0.53426 0.44996 0.10257 0.0
C1402 C 0.53669 0.44173 0.35286 0.0
C1403 C 0.48608 0.42344 0.07995 0.0
C1404 C 0.45595 0.37059 0.29345 0.0
C1405 C 0.44374 0.38279 0.33041 0.0
C1406 C 0.47708 0.38619 0.25321 0.0
C1407 C 0.48669 0.415 0.25044 0.0
C1408 C 0.47372 0.42715 0.28486 0.0
C1409 C 0.45238 0.4109 0.32411 0.0
C1410 C 0.48997 0.37211 0.21728 0.0
C1411 C 0.48306 0.45762 0.28315 0.0
H1412 H 0.57625 0.46658 0.26887 0.0
H1413 H 0.53397 0.45178 1.03956 0.0
H1414 H 0.5255 0.44947 0.38158 0.0
H1415 H 0.52815 0.41946 0.36146 0.0
H1416 H 0.55671 0.4535 0.38347 0.0
H1417 H 0.48906 0.42921 1.01893 0.0
H1418 H 0.47554 0.40038 0.07665 0.0
H1419 H 0.47378 0.43056 0.10375 0.0
H1420 H 0.44962 0.34899 0.29924 0.0
H1421 H 0.44336 0.42059 0.35386 0.0
H1422 H 0.50935 0.38075 0.25054 0.0
H1423 H 0.49238 0.37625 0.15485 0.0
H1424 H 0.479 0.3492 0.21855 0.0
H1425 H 0.50336 0.4705 0.31054 0.0
H1426 H 0.47157 0.46425 0.31501 0.0
H1427 H 0.48208 0.46187 0.22069 0.0
C1428 C 0.84817 0.69452 0.60168 0.0
C1429 C 0.84802 0.69451 0.68373 0.0
C1430 C 0.84744 0.71571 0.56363 0.0
C1431 C 0.84691 0.73748 0.60849 0.0
C1432 C 0.84527 0.7366 0.69063 0.0
C1433 C 0.84548 0.71493 0.72685 0.0
C1434 C 0.84882 0.71566 0.47604 0.0
C1435 C 0.84475 0.75932 0.74119 0.0
C1436 C 0.87822 0.8064 0.5224 0.0
C1437 C 0.85704 0.80662 0.48493 0.0
C1438 C 0.87512 0.78457 0.56523 0.0
C1439 C 0.85018 0.76215 0.57031 0.0
C1440 C 0.82867 0.76254 0.53416 0.0
C1441 C 0.83235 0.78489 0.49241 0.0
C1442 C 0.8986 0.78512 0.60309 0.0
C1443 C 0.80182 0.73873 0.53661 0.0
H1444 H 0.85014 0.67884 0.56789 0.0
H1445 H 0.84426 0.71432 0.78971 0.0
H1446 H 0.83743 0.72362 0.44647 0.0
H1447 H 0.86904 0.72909 0.46636 0.0
H1448 H 0.84156 0.69432 0.44794 0.0
H1449 H 0.83999 0.7537 0.80137 0.0
H1450 H 0.86384 0.7787 0.74774 0.0
H1451 H 0.83064 0.76396 0.71241 0.0
H1452 H 0.89735 0.8233 0.5176 0.0
H1453 H 0.81592 0.78483 0.46304 0.0
H1454 H 0.89975 0.76766 0.57361 0.0
H1455 H 0.89732 0.78218 0.6667 0.0
H1456 H 0.91654 0.80496 0.59867 0.0
H1457 H 0.79908 0.71944 0.504 0.0
H1458 H 0.7871 0.74284 0.50963 0.0
H1459 H 0.79873 0.73475 0.59883 0.0
C1460 C 0.30326 0.02114 0.49361 0.0
C1461 C 0.32921 0.02976 0.51331 0.0
C1462 C 0.28381 0.99256 0.47722 0.0
C1463 C 0.29002 0.97146 0.4819 0.0
C1464 C 0.31626 0.98009 0.50172 0.0
C1465 C 0.3354 0.00888 0.51619 0.0
C1466 C 0.25648 0.98495 0.45474 0.0
C1467 C 0.32413 0.9588 0.50929 0.0
C1468 C 0.23695 0.89606 0.50614 0.0
C1469 C 0.23225 0.88166 0.43013 0.0
C1470 C 0.25548 0.92507 0.52386 0.0
C1471 C 0.26933 0.94058 0.46386 0.0
C1472 C 0.26368 0.92624 0.38627 0.0
C1473 C 0.24572 0.89723 0.37091 0.0
C1474 C 0.26099 0.9389 0.60787 0.0
C1475 C 0.27702 0.94149 0.31921 0.0
H1476 H 0.29808 0.03691 0.49128 0.0
H1477 H 0.3552 0.01503 0.53265 0.0
H1478 H 0.24861 0.97181 0.39625 0.0
H1479 H 0.2445 0.9725 0.49881 0.0
H1480 H 0.25473 0.00361 0.45152 0.0
H1481 H 0.34502 0.9686 0.52793 0.0
H1482 H 0.31371 0.94488 0.5534 0.0
H1483 H 0.31889 0.94552 0.45171 0.0
H1484 H 0.22711 0.88439 0.5529 0.0
H1485 H 0.2424 0.88653 0.31191 0.0
H1486 H 0.25858 0.95719 0.609 0.0
H1487 H 0.28119 0.94669 0.63199 0.0
H1488 H 0.24832 0.92444 0.64746 0.0
H1489 H 0.2752 0.96005 0.31491 0.0
H1490 H 0.26913 0.92806 0.26109 0.0
H1491 H 0.29773 0.94901 0.33112 0.0
C1492 C 0.02668 0.23706 0.6798 0.0
C1493 C 1.00255 0.21361 0.65212 0.0
C1494 C 0.04923 0.23917 0.65793 0.0
C1495 C 0.04762 0.21816 0.6026 0.0
C1496 C 0.02322 0.19414 0.57563 0.0
C1497 C 1.00107 0.19225 0.60047 0.0
C1498 C 0.0747 0.2647 0.6907 0.0
C1499 C 0.02022 0.17135 0.51565 0.0
C1500 C 0.09693 0.24316 0.45792 0.0
C1501 C 0.11203 0.23174 0.48001 0.0
C1502 C 0.07604 0.23864 0.49678 0.0
C1503 C 0.07049 0.22346 0.56289 0.0
C1504 C 0.0865 0.21329 0.58893 0.0
C1505 C 0.10683 0.21724 0.54684 0.0
C1506 C 0.05948 0.24963 0.46543 0.0
C1507 C 0.08216 0.19821 0.66124 0.0
H1508 H 0.02789 0.25444 0.71558 0.0
H1509 H 0.98241 0.17461 0.57648 0.0
H1510 H 0.08876 0.25866 0.71018 0.0
H1511 H 0.08234 0.27843 0.64374 0.0
H1512 H 0.07313 0.27683 0.74176 0.0
H1513 H 1.00065 0.15261 0.50845 0.0
H1514 H 0.02406 0.17925 0.45726 0.0
H1515 H 0.03425 0.16511 0.53327 0.0
H1516 H 0.10117 0.2555 0.40894 0.0
H1517 H 0.11822 0.20836 0.56536 0.0
H1518 H 0.06018 0.26505 0.51122 0.0
H1519 H 0.03924 0.23234 0.4515 0.0
H1520 H 0.06555 0.25978 0.41099 0.0
H1521 H 0.08477 0.21255 0.71386 0.0
H1522 H 0.09554 0.1906 0.67243 0.0
H1523 H 0.06226 0.18022 0.65447 0.0
C1524 C 0.33497 0.14368 0.55334 0.0
C1525 C 0.36187 0.15833 0.56792 0.0
C1526 C 0.32144 0.1573 0.53186 0.0
C1527 C 0.33495 0.18614 0.52149 0.0
C1528 C 0.36206 0.20087 0.53697 0.0
C1529 C 0.37494 0.18705 0.56061 0.0
C1530 C 0.29262 0.14065 0.51896 0.0
C1531 C 0.37774 0.23131 0.52603 0.0
C1532 C 0.30675 0.21834 0.38154 0.0
C1533 C 0.30156 0.23458 0.43425 0.0
C1534 C 0.31645 0.20171 0.40878 0.0
C1535 C 0.32134 0.20099 0.49149 0.0
C1536 C 0.31563 0.21697 0.54504 0.0
C1537 C 0.30638 0.23386 0.51612 0.0
C1538 C 0.32248 0.18572 0.34868 0.0
C1539 C 0.31978 0.21668 0.63341 0.0
H1540 H 0.32449 0.1215 0.55739 0.0
H1541 H 0.39567 0.19882 0.57123 0.0
H1542 H 0.28497 0.15176 0.55248 0.0
H1543 H 0.28563 0.13836 0.45512 0.0
H1544 H 0.28484 0.11956 0.5378 0.0
H1545 H 0.39862 0.24001 0.54133 0.0
H1546 H 0.37395 0.23399 0.46335 0.0
H1547 H 0.37216 0.24366 0.5636 0.0
H1548 H 0.30366 0.21908 0.31836 0.0
H1549 H 0.30314 0.24676 0.55789 0.0
H1550 H 0.31283 0.16344 0.35809 0.0
H1551 H 0.34338 0.19399 0.35661 0.0
H1552 H 0.31646 0.18713 0.28665 0.0
H1553 H 0.31058 0.19488 0.64744 0.0
H1554 H 0.31197 0.22764 0.66686 0.0
H1555 H 0.34055 0.22688 0.65442 0.0
C1556 C 0.85544 0.01292 0.31562 0.0
C1557 C 0.83999 0.99339 0.36387 0.0
C1558 C 0.87182 0.04133 0.34573 0.0
C1559 C 0.87251 0.05061 0.42589 0.0
C1560 C 0.85708 0.03077 0.475 0.0
C1561 C 0.84086 0.00255 0.44326 0.0
C1562 C 0.88791 0.06151 0.2911 0.0
C1563 C 0.85733 0.03946 0.56095 0.0
C1564 C 0.92759 0.11919 0.53786 0.0
C1565 C 0.9167 0.13588 0.54216 0.0
C1566 C 0.91404 0.09202 0.49705 0.0
C1567 C 0.88881 0.08102 0.45852 0.0
C1568 C 0.87864 0.09877 0.45605 0.0
C1569 C 0.89289 0.12613 0.49665 0.0
C1570 C 0.92633 0.07467 0.49889 0.0
C1571 C 0.85205 0.08831 0.41469 0.0
H1572 H 0.85441 0.00598 0.2538 0.0
H1573 H 0.82849 0.98764 0.48026 0.0
H1574 H 0.88157 0.07656 0.28212 0.0
H1575 H 0.90827 0.07371 0.31813 0.0
H1576 H 0.88658 0.05078 0.23221 0.0
H1577 H 0.84474 0.02148 0.59175 0.0
H1578 H 0.87711 0.04992 0.59277 0.0
H1579 H 0.85092 0.0547 0.56494 0.0
H1580 H 0.94658 0.12711 0.56862 0.0
H1581 H 0.88463 0.13915 0.49636 0.0
H1582 H 0.92446 0.06496 0.43811 0.0
H1583 H 0.91639 0.05777 0.5361 0.0
H1584 H 0.94695 0.08714 0.52346 0.0
H1585 H 0.83781 0.07181 0.44633 0.0
H1586 H 0.84975 0.07884 0.3531 0.0
H1587 H 0.84763 0.10517 0.41277 0.0
C1588 C 0.92403 0.69459 0.63911 0.0
C1589 C 0.9164 0.67095 0.67814 0.0
C1590 C 0.94665 0.70632 0.6034 0.0
C1591 C 0.96166 0.69366 0.60481 0.0
C1592 C 0.95417 0.67005 0.64588 0.0
C1593 C 0.93152 0.65883 0.68127 0.0
C1594 C 0.95396 0.73172 0.56175 0.0
C1595 C 0.96968 0.6561 0.65047 0.0
C1596 C 0.99921 0.70149 0.43034 0.0
C1597 C 0.02417 0.72285 0.46194 0.0
C1598 C 0.97893 0.69177 0.47636 0.0
C1599 C 0.98356 0.70332 0.55674 0.0
C1600 C 0.00888 0.72421 0.58964 0.0
C1601 C 0.02871 0.73384 0.54197 0.0
C1602 C 0.9524 0.66935 0.43841 0.0
C1603 C 0.01507 0.7373 0.67441 0.0
H1604 H 0.9121 0.70369 0.63572 0.0
H1605 H 0.92535 0.64023 0.71032 0.0
H1606 H 0.97414 0.74814 0.58291 0.0
H1607 H 0.95243 0.72619 0.49697 0.0
H1608 H 0.94155 0.74042 0.57163 0.0
H1609 H 0.9625 0.63944 0.68999 0.0
H1610 H 0.96902 0.64677 0.59024 0.0
H1611 H 0.99002 0.67171 0.67269 0.0
H1612 H 0.99541 0.69232 0.36916 0.0
H1613 H 0.04771 0.75061 0.56712 0.0
H1614 H 0.94504 0.65114 0.47218 0.0
H1615 H 0.95197 0.6622 0.37565 0.0
H1616 H 0.93914 0.6773 0.44024 0.0
H1617 H 0.00792 0.75184 0.67915 0.0
H1618 H 0.03599 0.74927 0.69502 0.0
H1619 H 0.0056 0.72114 0.71402 0.0
loop_
_geom_bond_atom_site_label_1
_geom_bond_atom_site_label_2
_geom_bond_distance
_geom_bond_site_symmetry_2
_ccdc_geom_bond_type
Eu0 N31 2.657 . S
Eu0 N38 2.609 . S
Eu0 O44 2.558 . S
Eu0 O45 2.612 . S
Eu0 O47 2.339 . S
Eu0 O48 2.563 . S
Eu0 O49 2.419 . S
Eu0 O51 2.380 . S
Eu0 O52 2.432 . S
Eu0 C64 2.848 . S
C1 C4 1.429 . S
C1 C5 1.411 . S
C1 N8 1.377 . S
C2 C4 1.420 . S
C2 C6 1.423 . S
C2 C14 1.392 . S
C3 C5 1.420 . S
C3 C6 1.351 . S
C3 H26 0.931 . S
C4 C1 1.429 . S
C4 C2 1.420 . S
C4 N12 1.362 . S
C5 C1 1.411 . S
C5 C3 1.420 . S
C5 C10 1.395 . S
C6 C2 1.423 . S
C6 C3 1.351 . S
C6 H18 0.930 . S
C7 C9 1.400 . S
C7 C10 1.386 . S
C7 H19 0.930 . S
N8 C1 1.377 . S
N8 C9 1.321 . S
N8 Eu11 2.609 1_655 S
C9 C7 1.400 . S
C9 N8 1.321 . S
C9 H16 0.930 . S
C10 C5 1.395 . S
C10 C7 1.386 . S
C10 H29 0.930 . S
Eu11 N8 2.609 1_455 S
Eu11 N12 2.657 1_455 S
Eu11 O45 2.380 . S
Eu11 O46 2.432 . S
Eu11 O50 2.558 1_455 S
Eu11 O51 2.612 . S
Eu11 O53 2.339 . S
Eu11 O54 2.563 . S
Eu11 O55 2.419 1_455 S
Eu11 C75 2.848 1_455 S
N12 C4 1.362 . S
N12 Eu11 2.657 1_655 S
N12 C13 1.334 . S
C13 N12 1.334 . S
C13 C15 1.413 1_554 S
C13 H20 0.929 . S
C14 C2 1.392 . S
C14 C15 1.367 1_554 S
C14 H22 0.930 1_554 S
C15 C13 1.413 1_556 S
C15 C14 1.367 1_556 S
C15 H17 0.930 . S
H16 C9 0.930 . S
H17 C15 0.930 . S
H18 C6 0.930 . S
H19 C7 0.930 . S
H20 C13 0.929 . S
H21 C35 0.930 . S
H22 C14 0.930 1_556 S
H23 C41 0.930 . S
H24 C32 0.929 . S
H25 C39 0.930 . S
H26 C3 0.931 . S
H27 C33 0.930 . S
H28 C66 0.930 . S
H29 C10 0.930 . S
H30 C65 0.931 . S
N31 Eu0 2.657 . S
N31 C32 1.334 . S
N31 C36 1.362 . S
C32 H24 0.929 . S
C32 N31 1.334 . S
C32 C35 1.413 . S
C33 H27 0.930 . S
C33 C34 1.392 . S
C33 C35 1.367 . S
C34 C33 1.392 . S
C34 C36 1.420 . S
C34 C66 1.423 . S
C35 H21 0.930 . S
C35 C32 1.413 . S
C35 C33 1.367 . S
C36 N31 1.362 . S
C36 C34 1.420 . S
C36 C40 1.429 . S
H37 C42 0.930 . S
N38 Eu0 2.609 . S
N38 C40 1.377 . S
N38 C41 1.321 . S
C39 H25 0.930 . S
C39 C41 1.400 . S
C39 C42 1.386 . S
C40 C36 1.429 . S
C40 N38 1.377 . S
C40 C43 1.411 . S
C41 H23 0.930 . S
C41 N38 1.321 . S
C41 C39 1.400 . S
C42 H37 0.930 . S
C42 C39 1.386 . S
C42 C43 1.395 . S
C43 C40 1.411 . S
C43 C42 1.395 . S
C43 C65 1.420 . S
O44 Eu0 2.558 . S
O44 C64 1.257 . S
O45 Eu0 2.612 . S
O45 Eu11 2.380 . S
O45 C56 1.276 . S
O46 Eu11 2.432 . S
O46 C63 1.264 . S
O47 Eu0 2.339 . S
O47 C63 1.254 . S
O48 Eu0 2.563 . S
O48 C56 1.235 . S
O49 Eu0 2.419 . S
O49 C64 1.249 . S
O50 Eu11 2.558 1_655 S
O50 C75 1.257 . S
O51 Eu0 2.380 . S
O51 Eu11 2.612 . S
O51 C67 1.276 . S
O52 Eu0 2.432 . S
O52 C74 1.264 . S
O53 Eu11 2.339 . S
O53 C74 1.254 . S
O54 Eu11 2.563 . S
O54 C67 1.235 . S
O55 Eu11 2.419 1_655 S
O55 C75 1.249 . S
C56 O45 1.276 . S
C56 O48 1.235 . S
C57 C59 1.393 . S
C57 C61 1.395 . S
C57 C64 1.492 . S
C58 C59 1.392 . S
C58 C60 1.386 . S
C59 C57 1.393 . S
C59 C58 1.392 . S
C59 H76 0.930 . S
C60 C58 1.386 . S
C60 C62 1.395 . S
C60 H77 0.930 . S
C61 C57 1.395 . S
C61 C62 1.379 . S
C61 H78 0.930 . S
C62 C60 1.395 . S
C62 C61 1.379 . S
C62 H79 0.930 . S
C63 O46 1.264 . S
C63 O47 1.254 . S
C64 Eu0 2.848 . S
C64 O44 1.257 . S
C64 O49 1.249 . S
C64 C57 1.492 . S
C65 H30 0.931 . S
C65 C43 1.420 . S
C65 C66 1.351 . S
C66 H28 0.930 . S
C66 C34 1.423 . S
C66 C65 1.351 . S
C67 O51 1.276 . S
C67 O54 1.235 . S
C68 C69 1.393 . S
C68 C72 1.395 . S
C68 C75 1.492 . S
C69 C68 1.393 . S
C69 C70 1.392 . S
C69 H80 0.930 . S
C70 C69 1.392 . S
C70 C71 1.386 . S
C71 C70 1.386 . S
C71 C73 1.395 . S
C71 H81 0.930 . S
C72 C68 1.395 . S
C72 C73 1.379 . S
C72 H82 0.930 . S
C73 C71 1.395 . S
C73 C72 1.379 . S
C73 H83 0.930 . S
C74 O52 1.264 . S
C74 O53 1.254 . S
C75 Eu11 2.848 1_655 S
C75 O50 1.257 . S
C75 O55 1.249 . S
C75 C68 1.492 . S
H76 C59 0.930 . S
H77 C60 0.930 . S
H78 C61 0.930 . S
H79 C62 0.930 . S
H80 C69 0.930 . S
H81 C71 0.930 . S
H82 C72 0.930 . S
H83 C73 0.930 . S
Eu84 N115 2.657 . S
Eu84 N122 2.609 . S
Eu84 O128 2.558 . S
Eu84 O129 2.612 . S
Eu84 O131 2.339 . S
Eu84 O132 2.563 . S
Eu84 O133 2.419 . S
Eu84 O135 2.380 . S
Eu84 O136 2.432 . S
Eu84 C148 2.848 . S
C85 C88 1.429 . S
C85 C89 1.411 . S
C85 N92 1.377 . S
C86 C88 1.420 . S
C86 C90 1.423 . S
C86 C98 1.392 1_554 S
C87 C89 1.420 . S
C87 C90 1.351 . S
C87 H110 0.931 . S
C88 C85 1.429 . S
C88 C86 1.420 . S
C88 N96 1.362 . S
C89 C85 1.411 . S
C89 C87 1.420 . S
C89 C94 1.395 . S
C90 C86 1.423 . S
C90 C87 1.351 . S
C90 H102 0.930 . S
C91 C93 1.400 . S
C91 C94 1.386 . S
C91 H103 0.930 . S
N92 C85 1.377 . S
N92 C93 1.321 . S
N92 Eu95 2.609 . S
C93 C91 1.400 . S
C93 N92 1.321 . S
C93 H100 0.930 . S
C94 C89 1.395 . S
C94 C91 1.386 . S
C94 H113 0.930 . S
Eu95 N92 2.609 . S
Eu95 N96 2.657 . S
Eu95 O129 2.380 . S
Eu95 O130 2.432 . S
Eu95 O134 2.558 . S
Eu95 O135 2.612 . S
Eu95 O137 2.339 . S
Eu95 O138 2.563 . S
Eu95 O139 2.419 . S
Eu95 C159 2.848 . S
N96 C88 1.362 . S
N96 Eu95 2.657 . S
N96 C97 1.334 1_554 S
C97 N96 1.334 1_556 S
C97 C99 1.413 . S
C97 H104 0.929 . S
C98 C86 1.392 1_556 S
C98 C99 1.367 . S
C98 H106 0.930 . S
C99 C97 1.413 . S
C99 C98 1.367 . S
C99 H101 0.930 . S
H100 C93 0.930 . S
H101 C99 0.930 . S
H102 C90 0.930 . S
H103 C91 0.930 . S
H104 C97 0.929 . S
H105 C119 0.930 . S
H106 C98 0.930 . S
H107 C125 0.930 . S
H108 C116 0.929 . S
H109 C123 0.930 . S
H110 C87 0.931 . S
H111 C117 0.930 . S
H112 C150 0.930 . S
H113 C94 0.930 . S
H114 C149 0.931 . S
N115 Eu84 2.657 . S
N115 C116 1.334 . S
N115 C120 1.362 . S
C116 H108 0.929 . S
C116 N115 1.334 . S
C116 C119 1.413 . S
C117 H111 0.930 . S
C117 C118 1.392 . S
C117 C119 1.367 . S
C118 C117 1.392 . S
C118 C120 1.420 . S
C118 C150 1.423 . S
C119 H105 0.930 . S
C119 C116 1.413 . S
C119 C117 1.367 . S
C120 N115 1.362 . S
C120 C118 1.420 . S
C120 C124 1.429 . S
H121 C126 0.930 . S
N122 Eu84 2.609 . S
N122 C124 1.377 . S
N122 C125 1.321 1_554 S
C123 H109 0.930 . S
C123 C125 1.400 . S
C123 C126 1.386 . S
C124 C120 1.429 . S
C124 N122 1.377 . S
C124 C127 1.411 . S
C125 H107 0.930 . S
C125 N122 1.321 1_556 S
C125 C123 1.400 . S
C126 H121 0.930 . S
C126 C123 1.386 . S
C126 C127 1.395 1_556 S
C127 C124 1.411 . S
C127 C126 1.395 1_554 S
C127 C149 1.420 . S
O128 Eu84 2.558 . S
O128 C148 1.257 . S
O129 Eu84 2.612 . S
O129 Eu95 2.380 . S
O129 C140 1.276 . S
O130 Eu95 2.432 . S
O130 C147 1.264 . S
O131 Eu84 2.339 . S
O131 C147 1.254 . S
O132 Eu84 2.563 . S
O132 C140 1.235 . S
O133 Eu84 2.419 . S
O133 C148 1.249 . S
O134 Eu95 2.558 . S
O134 C159 1.257 . S
O135 Eu84 2.380 . S
O135 Eu95 2.612 . S
O135 C151 1.276 . S
O136 Eu84 2.432 . S
O136 C158 1.264 1_554 S
O137 Eu95 2.339 . S
O137 C158 1.254 1_554 S
O138 Eu95 2.563 . S
O138 C151 1.235 . S
O139 Eu95 2.419 . S
O139 C159 1.249 . S
C140 O129 1.276 . S
C140 O132 1.235 . S
C141 C143 1.393 . S
C141 C145 1.395 . S
C141 C148 1.492 . S
C142 C143 1.392 . S
C142 C144 1.386 . S
C143 C141 1.393 . S
C143 C142 1.392 . S
C143 H160 0.930 . S
C144 C142 1.386 . S
C144 C146 1.395 . S
C144 H161 0.930 . S
C145 C141 1.395 . S
C145 C146 1.379 . S
C145 H162 0.930 . S
C146 C144 1.395 . S
C146 C145 1.379 . S
C146 H163 0.930 . S
C147 O130 1.264 . S
C147 O131 1.254 . S
C148 Eu84 2.848 . S
C148 O128 1.257 . S
C148 O133 1.249 . S
C148 C141 1.492 . S
C149 H114 0.931 . S
C149 C127 1.420 . S
C149 C150 1.351 . S
C150 H112 0.930 . S
C150 C118 1.423 . S
C150 C149 1.351 . S
C151 O135 1.276 . S
C151 O138 1.235 . S
C152 C153 1.393 1_554 S
C152 C156 1.395 . S
C152 C159 1.492 . S
C153 C152 1.393 1_556 S
C153 C154 1.392 . S
C153 H164 0.930 . S
C154 C153 1.392 . S
C154 C155 1.386 1_556 S
C155 C154 1.386 1_554 S
C155 C157 1.395 . S
C155 H165 0.930 . S
C156 C152 1.395 . S
C156 C157 1.379 . S
C156 H166 0.930 . S
C157 C155 1.395 . S
C157 C156 1.379 . S
C157 H167 0.930 . S
C158 O136 1.264 1_556 S
C158 O137 1.254 1_556 S
C159 Eu95 2.848 . S
C159 O134 1.257 . S
C159 O139 1.249 . S
C159 C152 1.492 . S
H160 C143 0.930 . S
H161 C144 0.930 . S
H162 C145 0.930 . S
H163 C146 0.930 . S
H164 C153 0.930 . S
H165 C155 0.930 . S
H166 C156 0.930 . S
H167 C157 0.930 . S
Eu168 N199 2.657 1_556 S
Eu168 N206 2.609 . S
Eu168 O212 2.558 . S
Eu168 O213 2.612 . S
Eu168 O215 2.339 1_556 S
Eu168 O216 2.563 . S
Eu168 O217 2.419 1_556 S
Eu168 O219 2.380 1_556 S
Eu168 O220 2.432 . S
Eu168 C232 2.848 . S
C169 C172 1.429 1_554 S
C169 C173 1.411 . S
C169 N176 1.377 . S
C170 C172 1.420 . S
C170 C174 1.423 . S
C170 C182 1.392 . S
C171 C173 1.420 . S
C171 C174 1.351 1_554 S
C171 H194 0.931 . S
C172 C169 1.429 1_556 S
C172 C170 1.420 . S
C172 N180 1.362 . S
C173 C169 1.411 . S
C173 C171 1.420 . S
C173 C178 1.395 . S
C174 C170 1.423 . S
C174 C171 1.351 1_556 S
C174 H186 0.930 . S
C175 C177 1.400 . S
C175 C178 1.386 . S
C175 H187 0.930 . S
N176 C169 1.377 . S
N176 C177 1.321 . S
N176 Eu179 2.609 . S
C177 C175 1.400 . S
C177 N176 1.321 . S
C177 H184 0.930 . S
C178 C173 1.395 . S
C178 C175 1.386 . S
C178 H197 0.930 . S
Eu179 N176 2.609 . S
Eu179 N180 2.657 1_554 S
Eu179 O213 2.380 1_554 S
Eu179 O214 2.432 . S
Eu179 O218 2.558 . S
Eu179 O219 2.612 . S
Eu179 O221 2.339 1_554 S
Eu179 O222 2.563 . S
Eu179 O223 2.419 1_554 S
Eu179 C243 2.848 . S
N180 C172 1.362 . S
N180 Eu179 2.657 1_556 S
N180 C181 1.334 . S
C181 N180 1.334 . S
C181 C183 1.413 . S
C181 H188 0.929 . S
C182 C170 1.392 . S
C182 C183 1.367 . S
C182 H190 0.930 . S
C183 C181 1.413 . S
C183 C182 1.367 . S
C183 H185 0.930 . S
H184 C177 0.930 . S
H185 C183 0.930 . S
H186 C174 0.930 . S
H187 C175 0.930 . S
H188 C181 0.929 . S
H189 C203 0.930 . S
H190 C182 0.930 . S
H191 C209 0.930 . S
H192 C200 0.929 . S
H193 C207 0.930 . S
H194 C171 0.931 . S
H195 C201 0.930 . S
H196 C234 0.930 . S
H197 C178 0.930 . S
H198 C233 0.931 . S
N199 Eu168 2.657 1_554 S
N199 C200 1.334 . S
N199 C204 1.329 1_545 S
C200 H192 0.929 . S
C200 N199 1.334 . S
C200 C203 1.413 . S
C201 H195 0.930 . S
C201 C202 1.392 . S
C201 C203 1.367 1_565 S
C202 C201 1.392 . S
C202 C204 1.453 . S
C202 C234 1.423 . S
C203 H189 0.930 . S
C203 C200 1.413 . S
C203 C201 1.367 1_545 S
C204 N199 1.329 1_565 S
C204 C202 1.453 . S
C204 C208 1.430 1_554 S
H205 C210 0.930 . S
N206 Eu168 2.609 . S
N206 C208 1.377 1_545 S
N206 C209 1.321 . S
C207 H193 0.930 . S
C207 C209 1.400 1_565 S
C207 C210 1.386 . S
C208 C204 1.430 1_556 S
C208 N206 1.377 1_565 S
C208 C211 1.411 . S
C209 H191 0.930 . S
C209 N206 1.321 . S
C209 C207 1.400 1_545 S
C210 H205 0.930 . S
C210 C207 1.386 . S
C210 C211 1.395 . S
C211 C208 1.411 . S
C211 C210 1.395 . S
C211 C233 1.420 . S
O212 Eu168 2.558 . S
O212 C232 1.257 . S
O213 Eu168 2.612 . S
O213 Eu179 2.380 1_556 S
O213 C224 1.276 . S
O214 Eu179 2.432 . S
O214 C231 1.264 . S
O215 Eu168 2.339 1_554 S
O215 C231 1.254 . S
O216 Eu168 2.563 . S
O216 C224 1.235 . S
O217 Eu168 2.419 1_554 S
O217 C232 1.249 1_554 S
O218 Eu179 2.558 . S
O218 C243 1.257 . S
O219 Eu168 2.380 1_554 S
O219 Eu179 2.612 . S
O219 C235 1.276 . S
O220 Eu168 2.432 . S
O220 C242 1.264 . S
O221 Eu179 2.339 1_556 S
O221 C242 1.254 . S
O222 Eu179 2.563 . S
O222 C235 1.235 . S
O223 Eu179 2.419 1_556 S
O223 C243 1.249 1_556 S
C224 O213 1.276 . S
C224 O216 1.235 . S
C225 C227 1.393 1_556 S
C225 C229 1.395 1_545 S
C225 C232 1.492 . S
C226 C227 1.392 1_565 S
C226 C228 1.393 . S
C227 C225 1.393 1_554 S
C227 C226 1.392 1_545 S
C227 H244 0.930 . S
C228 C226 1.393 . S
C228 C230 1.384 1_554 S
C228 H245 0.933 . S
C229 C225 1.395 1_565 S
C229 C230 1.379 . S
C229 H246 0.930 . S
C230 C228 1.384 1_556 S
C230 C229 1.379 . S
C230 H247 0.930 . S
C231 O214 1.264 . S
C231 O215 1.254 . S
C232 Eu168 2.848 . S
C232 O212 1.257 . S
C232 O217 1.249 1_556 S
C232 C225 1.492 . S
C233 H198 0.931 . S
C233 C211 1.420 . S
C233 C234 1.351 1_556 S
C234 H196 0.930 . S
C234 C202 1.423 . S
C234 C233 1.351 1_554 S
C235 O219 1.276 . S
C235 O222 1.235 . S
C236 C237 1.393 1_554 S
C236 C240 1.395 . S
C236 C243 1.492 . S
C237 C236 1.393 1_556 S
C237 C238 1.392 . S
C237 H248 0.930 . S
C238 C237 1.392 . S
C238 C239 1.391 . S
C239 C238 1.391 . S
C239 C241 1.387 1_556 S
C239 H249 0.932 . S
C240 C236 1.395 . S
C240 C241 1.379 . S
C240 H250 0.930 . S
C241 C239 1.387 1_554 S
C241 C240 1.379 . S
C241 H251 0.930 . S
C242 O220 1.264 . S
C242 O221 1.254 . S
C243 Eu179 2.848 . S
C243 O218 1.257 . S
C243 O223 1.249 1_554 S
C243 C236 1.492 . S
H244 C227 0.930 . S
H245 C228 0.933 . S
H246 C229 0.930 . S
H247 C230 0.930 . S
H248 C237 0.930 . S
H249 C239 0.932 . S
H250 C240 0.930 . S
H251 C241 0.930 . S
Eu252 N283 2.657 . S
Eu252 N290 2.609 . S
Eu252 O296 2.558 . S
Eu252 O297 2.612 . S
Eu252 O299 2.339 . S
Eu252 O300 2.563 . S
Eu252 O301 2.419 . S
Eu252 O303 2.380 . S
Eu252 O304 2.432 . S
Eu252 C316 2.848 . S
C253 C256 1.429 . S
C253 C257 1.411 . S
C253 N260 1.377 . S
C254 C256 1.420 . S
C254 C258 1.423 . S
C254 C266 1.392 . S
C255 C257 1.420 . S
C255 C258 1.351 . S
C255 H278 0.931 . S
C256 C253 1.429 . S
C256 C254 1.420 . S
C256 N264 1.362 . S
C257 C253 1.411 . S
C257 C255 1.420 . S
C257 C262 1.395 . S
C258 C254 1.423 . S
C258 C255 1.351 . S
C258 H270 0.930 . S
C259 C261 1.400 . S
C259 C262 1.386 . S
C259 H271 0.930 . S
N260 C253 1.377 . S
N260 C261 1.321 . S
N260 Eu263 2.609 . S
C261 C259 1.400 . S
C261 N260 1.321 . S
C261 H268 0.930 . S
C262 C257 1.395 . S
C262 C259 1.386 . S
C262 H281 0.930 . S
Eu263 N260 2.609 . S
Eu263 N264 2.657 . S
Eu263 O297 2.380 . S
Eu263 O298 2.432 . S
Eu263 O302 2.558 . S
Eu263 O303 2.612 . S
Eu263 O305 2.339 . S
Eu263 O306 2.563 . S
Eu263 O307 2.419 . S
Eu263 C327 2.848 . S
N264 C256 1.362 . S
N264 Eu263 2.657 . S
N264 C265 1.334 . S
C265 N264 1.334 . S
C265 C267 1.413 . S
C265 H272 0.929 . S
C266 C254 1.392 . S
C266 C267 1.367 . S
C266 H274 0.930 . S
C267 C265 1.413 . S
C267 C266 1.367 . S
C267 H269 0.930 . S
H268 C261 0.930 . S
H269 C267 0.930 . S
H270 C258 0.930 . S
H271 C259 0.930 . S
H272 C265 0.929 . S
H273 C287 0.930 . S
H274 C266 0.930 . S
H275 C293 0.930 . S
H276 C284 0.929 . S
H277 C291 0.930 . S
H278 C255 0.931 . S
H279 C285 0.930 . S
H280 C318 0.930 . S
H281 C262 0.930 . S
H282 C317 0.931 . S
N283 Eu252 2.657 . S
N283 C284 1.334 . S
N283 C288 1.362 . S
C284 H276 0.929 . S
C284 N283 1.334 . S
C284 C287 1.413 . S
C285 H279 0.930 . S
C285 C286 1.385 1_545 S
C285 C287 1.367 1_545 S
C286 C285 1.385 1_565 S
C286 C288 1.431 . S
C286 C318 1.420 1_565 S
C287 H273 0.930 . S
C287 C284 1.413 . S
C287 C285 1.367 1_565 S
C288 N283 1.362 . S
C288 C286 1.431 . S
C288 C292 1.429 . S
H289 C294 0.930 . S
N290 Eu252 2.609 . S
N290 C292 1.377 . S
N290 C293 1.321 . S
C291 H277 0.930 . S
C291 C293 1.400 . S
C291 C294 1.386 . S
C292 C288 1.429 . S
C292 N290 1.377 . S
C292 C295 1.411 . S
C293 H275 0.930 . S
C293 N290 1.321 . S
C293 C291 1.400 . S
C294 H289 0.930 . S
C294 C291 1.386 . S
C294 C295 1.395 . S
C295 C292 1.411 . S
C295 C294 1.395 . S
C295 C317 1.420 1_565 S
O296 Eu252 2.558 . S
O296 C316 1.257 . S
O297 Eu252 2.612 . S
O297 Eu263 2.380 . S
O297 C308 1.276 . S
O298 Eu263 2.432 . S
O298 C315 1.264 . S
O299 Eu252 2.339 . S
O299 C315 1.254 . S
O300 Eu252 2.563 . S
O300 C308 1.235 . S
O301 Eu252 2.419 . S
O301 C316 1.249 . S
O302 Eu263 2.558 . S
O302 C327 1.257 . S
O303 Eu252 2.380 . S
O303 Eu263 2.612 . S
O303 C319 1.276 . S
O304 Eu252 2.432 . S
O304 C326 1.264 . S
O305 Eu263 2.339 . S
O305 C326 1.254 . S
O306 Eu263 2.563 . S
O306 C319 1.235 . S
O307 Eu263 2.419 . S
O307 C327 1.249 . S
C308 O297 1.276 . S
C308 O300 1.235 . S
C309 C311 1.393 . S
C309 C313 1.395 . S
C309 C316 1.492 . S
C310 C311 1.392 . S
C310 C312 1.386 . S
C311 C309 1.393 . S
C311 C310 1.392 . S
C311 H328 0.930 . S
C312 C310 1.386 . S
C312 C314 1.395 . S
C312 H329 0.930 . S
C313 C309 1.395 . S
C313 C314 1.379 . S
C313 H330 0.930 . S
C314 C312 1.395 . S
C314 C313 1.379 . S
C314 H331 0.930 . S
C315 O298 1.264 . S
C315 O299 1.254 . S
C316 Eu252 2.848 . S
C316 O296 1.257 . S
C316 O301 1.249 . S
C316 C309 1.492 . S
C317 H282 0.931 . S
C317 C295 1.420 1_545 S
C317 C318 1.351 . S
C318 H280 0.930 . S
C318 C286 1.420 1_545 S
C318 C317 1.351 . S
C319 O303 1.276 . S
C319 O306 1.235 . S
C320 C321 1.393 . S
C320 C324 1.395 . S
C320 C327 1.492 . S
C321 C320 1.393 . S
C321 C322 1.392 . S
C321 H332 0.930 . S
C322 C321 1.392 . S
C322 C323 1.386 . S
C323 C322 1.386 . S
C323 C325 1.395 . S
C323 H333 0.930 1_565 S
C324 C320 1.395 . S
C324 C325 1.379 . S
C324 H334 0.930 . S
C325 C323 1.395 . S
C325 C324 1.379 . S
C325 H335 0.930 . S
C326 O304 1.264 . S
C326 O305 1.254 . S
C327 Eu263 2.848 . S
C327 O302 1.257 . S
C327 O307 1.249 . S
C327 C320 1.492 . S
H328 C311 0.930 . S
H329 C312 0.930 . S
H330 C313 0.930 . S
H331 C314 0.930 . S
H332 C321 0.930 . S
H333 C323 0.930 1_545 S
H334 C324 0.930 . S
H335 C325 0.930 . S
Eu336 N367 2.657 . S
Eu336 N374 2.609 . S
Eu336 O380 2.558 . S
Eu336 O381 2.612 . S
Eu336 O383 2.339 . S
Eu336 O384 2.563 . S
Eu336 O385 2.419 . S
Eu336 O387 2.380 . S
Eu336 O388 2.432 . S
Eu336 C400 2.848 . S
C337 C340 1.429 . S
C337 C341 1.411 . S
C337 N344 1.377 . S
C338 C340 1.420 . S
C338 C342 1.423 . S
C338 C350 1.392 . S
C339 C341 1.420 . S
C339 C342 1.351 . S
C339 H362 0.931 . S
C340 C337 1.429 . S
C340 C338 1.420 . S
C340 N348 1.362 . S
C341 C337 1.411 . S
C341 C339 1.420 . S
C341 C346 1.395 . S
C342 C338 1.423 . S
C342 C339 1.351 . S
C342 H354 0.930 . S
C343 C345 1.400 . S
C343 C346 1.386 . S
C343 H355 0.930 . S
N344 C337 1.377 . S
N344 C345 1.321 . S
N344 Eu347 2.609 . S
C345 C343 1.400 . S
C345 N344 1.321 . S
C345 H352 0.930 . S
C346 C341 1.395 . S
C346 C343 1.386 . S
C346 H365 0.930 . S
Eu347 N344 2.609 . S
Eu347 N348 2.657 . S
Eu347 O381 2.380 . S
Eu347 O382 2.432 . S
Eu347 O386 2.558 . S
Eu347 O387 2.612 . S
Eu347 O389 2.339 . S
Eu347 O390 2.563 . S
Eu347 O391 2.419 . S
Eu347 C411 2.848 . S
N348 C340 1.362 . S
N348 Eu347 2.657 . S
N348 C349 1.334 . S
C349 N348 1.334 . S
C349 C351 1.413 . S
C349 H356 0.929 . S
C350 C338 1.392 . S
C350 C351 1.367 . S
C350 H358 0.930 . S
C351 C349 1.413 . S
C351 C350 1.367 . S
C351 H353 0.930 . S
H352 C345 0.930 . S
H353 C351 0.930 . S
H354 C342 0.930 . S
H355 C343 0.930 . S
H356 C349 0.929 . S
H357 C371 0.925 1_556 S
H358 C350 0.930 . S
H359 C377 0.930 . S
H360 C368 0.929 . S
H361 C375 0.930 . S
H362 C339 0.931 . S
H363 C369 0.930 . S
H364 C402 0.930 . S
H365 C346 0.930 . S
H366 C401 0.931 1_556 S
N367 Eu336 2.657 . S
N367 C368 1.334 . S
N367 C372 1.362 . S
C368 H360 0.929 . S
C368 N367 1.334 . S
C368 C371 1.427 . S
C369 H363 0.930 . S
C369 C370 1.391 . S
C369 C371 1.360 1_556 S
C370 C369 1.391 . S
C370 C372 1.421 1_556 S
C370 C402 1.423 . S
C371 H357 0.925 1_554 S
C371 C368 1.427 . S
C371 C369 1.360 1_554 S
C372 N367 1.362 . S
C372 C370 1.421 1_554 S
C372 C376 1.429 . S
H373 C378 0.930 . S
N374 Eu336 2.609 . S
N374 C376 1.377 . S
N374 C377 1.321 . S
C375 H361 0.930 . S
C375 C377 1.400 . S
C375 C378 1.386 . S
C376 C372 1.429 . S
C376 N374 1.377 . S
C376 C379 1.411 . S
C377 H359 0.930 . S
C377 N374 1.321 . S
C377 C375 1.400 . S
C378 H373 0.930 . S
C378 C375 1.386 . S
C378 C379 1.395 . S
C379 C376 1.411 . S
C379 C378 1.395 . S
C379 C401 1.420 . S
O380 Eu336 2.558 . S
O380 C400 1.257 . S
O381 Eu336 2.612 . S
O381 Eu347 2.380 . S
O381 C392 1.276 . S
O382 Eu347 2.432 . S
O382 C399 1.264 . S
O383 Eu336 2.339 . S
O383 C399 1.254 . S
O384 Eu336 2.563 . S
O384 C392 1.235 . S
O385 Eu336 2.419 . S
O385 C400 1.249 . S
O386 Eu347 2.558 . S
O386 C411 1.257 . S
O387 Eu336 2.380 . S
O387 Eu347 2.612 . S
O387 C403 1.276 . S
O388 Eu336 2.432 . S
O388 C410 1.264 . S
O389 Eu347 2.339 . S
O389 C410 1.254 . S
O390 Eu347 2.563 . S
O390 C403 1.235 . S
O391 Eu347 2.419 . S
O391 C411 1.249 . S
C392 O381 1.276 . S
C392 O384 1.235 . S
C393 C395 1.393 . S
C393 C397 1.395 . S
C393 C400 1.492 . S
C394 C395 1.392 . S
C394 C396 1.386 . S
C395 C393 1.393 . S
C395 C394 1.392 . S
C395 H412 0.930 . S
C396 C394 1.386 . S
C396 C398 1.395 . S
C396 H413 0.905 1_455 S
C397 C393 1.395 . S
C397 C398 1.379 . S
C397 H414 0.930 . S
C398 C396 1.395 . S
C398 C397 1.379 . S
C398 H415 0.930 . S
C399 O382 1.264 . S
C399 O383 1.254 . S
C400 Eu336 2.848 . S
C400 O380 1.257 . S
C400 O385 1.249 . S
C400 C393 1.492 . S
C401 H366 0.931 1_554 S
C401 C379 1.420 . S
C401 C402 1.351 1_554 S
C402 H364 0.930 . S
C402 C370 1.423 . S
C402 C401 1.351 1_556 S
C403 O387 1.276 . S
C403 O390 1.235 . S
C404 C405 1.393 . S
C404 C408 1.395 . S
C404 C411 1.492 . S
C405 C404 1.393 . S
C405 C406 1.392 . S
C405 H416 0.930 . S
C406 C405 1.392 . S
C406 C407 1.386 . S
C407 C406 1.386 . S
C407 C409 1.395 . S
C407 H417 0.930 . S
C408 C404 1.395 . S
C408 C409 1.379 . S
C408 H418 0.930 . S
C409 C407 1.395 . S
C409 C408 1.379 . S
C409 H419 0.930 . S
C410 O388 1.264 . S
C410 O389 1.254 . S
C411 Eu347 2.848 . S
C411 O386 1.257 . S
C411 O391 1.249 . S
C411 C404 1.492 . S
H412 C395 0.930 . S
H413 C396 0.905 1_655 S
H414 C397 0.930 . S
H415 C398 0.930 . S
H416 C405 0.930 . S
H417 C407 0.930 . S
H418 C408 0.930 . S
H419 C409 0.930 . S
Eu420 N451 2.657 . S
Eu420 N458 2.609 . S
Eu420 O464 2.558 . S
Eu420 O465 2.612 . S
Eu420 O467 2.339 . S
Eu420 O468 2.563 . S
Eu420 O469 2.419 . S
Eu420 O471 2.380 . S
Eu420 O472 2.432 . S
Eu420 C484 2.848 . S
C421 C424 1.429 . S
C421 C425 1.411 . S
C421 N428 1.377 . S
C422 C424 1.420 . S
C422 C426 1.423 . S
C422 C434 1.392 . S
C423 C425 1.420 . S
C423 C426 1.351 . S
C423 H446 0.931 . S
C424 C421 1.429 . S
C424 C422 1.420 . S
C424 N432 1.362 . S
C425 C421 1.411 . S
C425 C423 1.420 . S
C425 C430 1.395 . S
C426 C422 1.423 . S
C426 C423 1.351 . S
C426 H438 0.930 . S
C427 C429 1.400 . S
C427 C430 1.386 . S
C427 H439 0.930 . S
N428 C421 1.377 . S
N428 C429 1.321 . S
N428 Eu431 2.609 . S
C429 C427 1.400 . S
C429 N428 1.321 . S
C429 H436 0.930 . S
C430 C425 1.395 . S
C430 C427 1.386 . S
C430 H449 0.930 . S
Eu431 N428 2.609 . S
Eu431 N432 2.657 . S
Eu431 O465 2.380 . S
Eu431 O466 2.432 . S
Eu431 O470 2.558 . S
Eu431 O471 2.612 . S
Eu431 O473 2.339 . S
Eu431 O474 2.563 . S
Eu431 O475 2.419 . S
Eu431 C495 2.848 . S
N432 C424 1.362 . S
N432 Eu431 2.657 . S
N432 C433 1.334 . S
C433 N432 1.334 . S
C433 C435 1.413 . S
C433 H440 0.929 . S
C434 C422 1.392 . S
C434 C435 1.367 . S
C434 H442 0.930 . S
C435 C433 1.413 . S
C435 C434 1.367 . S
C435 H437 0.930 . S
H436 C429 0.930 . S
H437 C435 0.930 . S
H438 C426 0.930 . S
H439 C427 0.930 . S
H440 C433 0.929 . S
H441 C455 0.930 . S
H442 C434 0.930 . S
H443 C461 0.930 . S
H444 C452 0.929 . S
H445 C459 0.930 1_556 S
H446 C423 0.931 . S
H447 C453 0.930 . S
H448 C486 0.930 . S
H449 C430 0.930 . S
H450 C485 0.931 . S
N451 Eu420 2.657 . S
N451 C452 1.334 . S
N451 C456 1.362 . S
C452 H444 0.929 . S
C452 N451 1.334 . S
C452 C455 1.413 . S
C453 H447 0.930 . S
C453 C454 1.392 . S
C453 C455 1.367 . S
C454 C453 1.392 . S
C454 C456 1.420 . S
C454 C486 1.423 . S
C455 H441 0.930 . S
C455 C452 1.413 . S
C455 C453 1.367 . S
C456 N451 1.362 . S
C456 C454 1.420 . S
C456 C460 1.429 . S
H457 C462 0.930 . S
N458 Eu420 2.609 . S
N458 C460 1.377 . S
N458 C461 1.321 . S
C459 H445 0.930 1_554 S
C459 C461 1.400 . S
C459 C462 1.386 . S
C460 C456 1.429 . S
C460 N458 1.377 . S
C460 C463 1.411 . S
C461 H443 0.930 . S
C461 N458 1.321 . S
C461 C459 1.400 . S
C462 H457 0.930 . S
C462 C459 1.386 . S
C462 C463 1.395 . S
C463 C460 1.411 . S
C463 C462 1.395 . S
C463 C485 1.420 . S
O464 Eu420 2.558 . S
O464 C484 1.257 . S
O465 Eu420 2.612 . S
O465 Eu431 2.380 . S
O465 C476 1.276 . S
O466 Eu431 2.432 . S
O466 C483 1.264 . S
O467 Eu420 2.339 . S
O467 C483 1.254 . S
O468 Eu420 2.563 . S
O468 C476 1.235 . S
O469 Eu420 2.419 . S
O469 C484 1.249 . S
O470 Eu431 2.558 . S
O470 C495 1.257 . S
O471 Eu420 2.380 . S
O471 Eu431 2.612 . S
O471 C487 1.276 . S
O472 Eu420 2.432 . S
O472 C494 1.264 . S
O473 Eu431 2.339 . S
O473 C494 1.254 . S
O474 Eu431 2.563 . S
O474 C487 1.235 . S
O475 Eu431 2.419 . S
O475 C495 1.249 . S
C476 O465 1.276 . S
C476 O468 1.235 . S
C477 C479 1.393 . S
C477 C481 1.395 . S
C477 C484 1.492 . S
C478 C479 1.392 . S
C478 C480 1.386 . S
C479 C477 1.393 . S
C479 C478 1.392 . S
C479 H496 0.930 . S
C480 C478 1.386 . S
C480 C482 1.395 . S
C480 H497 0.930 . S
C481 C477 1.395 . S
C481 C482 1.379 . S
C481 H498 0.930 . S
C482 C480 1.395 . S
C482 C481 1.379 . S
C482 H499 0.930 . S
C483 O466 1.264 . S
C483 O467 1.254 . S
C484 Eu420 2.848 . S
C484 O464 1.257 . S
C484 O469 1.249 . S
C484 C477 1.492 . S
C485 H450 0.931 . S
C485 C463 1.420 . S
C485 C486 1.351 . S
C486 H448 0.930 . S
C486 C454 1.423 . S
C486 C485 1.351 . S
C487 O471 1.276 . S
C487 O474 1.235 . S
C488 C489 1.393 . S
C488 C492 1.395 . S
C488 C495 1.492 . S
C489 C488 1.393 . S
C489 C490 1.392 . S
C489 H500 0.930 . S
C490 C489 1.392 . S
C490 C491 1.386 . S
C491 C490 1.386 . S
C491 C493 1.395 . S
C491 H501 0.930 . S
C492 C488 1.395 . S
C492 C493 1.379 . S
C492 H502 0.930 . S
C493 C491 1.395 . S
C493 C492 1.379 . S
C493 H503 0.930 . S
C494 O472 1.264 . S
C494 O473 1.254 . S
C495 Eu431 2.848 . S
C495 O470 1.257 . S
C495 O475 1.249 . S
C495 C488 1.492 . S
H496 C479 0.930 . S
H497 C480 0.930 . S
H498 C481 0.930 . S
H499 C482 0.930 . S
H500 C489 0.930 . S
H501 C491 0.930 . S
H502 C492 0.930 . S
H503 C493 0.930 . S
Eu504 N535 2.657 . S
Eu504 N542 2.609 . S
Eu504 O548 2.558 . S
Eu504 O549 2.612 . S
Eu504 O551 2.339 . S
Eu504 O552 2.563 . S
Eu504 O553 2.419 . S
Eu504 O555 2.380 . S
Eu504 O556 2.432 . S
Eu504 C568 2.848 . S
C505 C508 1.429 . S
C505 C509 1.411 . S
C505 N512 1.377 . S
C506 C508 1.420 . S
C506 C510 1.423 . S
C506 C518 1.392 . S
C507 C509 1.420 . S
C507 C510 1.351 . S
C507 H530 0.931 . S
C508 C505 1.429 . S
C508 C506 1.420 . S
C508 N516 1.362 . S
C509 C505 1.411 . S
C509 C507 1.420 . S
C509 C514 1.395 . S
C510 C506 1.423 . S
C510 C507 1.351 . S
C510 H522 0.930 . S
C511 C513 1.400 . S
C511 C514 1.386 . S
C511 H523 0.930 . S
N512 C505 1.377 . S
N512 C513 1.321 . S
N512 Eu515 2.609 . S
C513 C511 1.400 . S
C513 N512 1.321 . S
C513 H520 0.930 . S
C514 C509 1.395 . S
C514 C511 1.386 . S
C514 H533 0.930 . S
Eu515 N512 2.609 . S
Eu515 N516 2.657 . S
Eu515 O549 2.380 . S
Eu515 O550 2.432 . S
Eu515 O554 2.558 . S
Eu515 O555 2.612 . S
Eu515 O557 2.339 . S
Eu515 O558 2.563 . S
Eu515 O559 2.419 . S
Eu515 C579 2.848 . S
N516 C508 1.362 . S
N516 Eu515 2.657 . S
N516 C517 1.334 . S
C517 N516 1.334 . S
C517 C519 1.413 . S
C517 H524 0.929 . S
C518 C506 1.392 . S
C518 C519 1.367 . S
C518 H526 0.930 . S
C519 C517 1.413 . S
C519 C518 1.367 . S
C519 H521 0.930 . S
H520 C513 0.930 . S
H521 C519 0.930 . S
H522 C510 0.930 . S
H523 C511 0.930 . S
H524 C517 0.929 . S
H525 C539 0.930 . S
H526 C518 0.930 . S
H527 C545 0.930 . S
H528 C536 0.929 . S
H529 C543 0.930 . S
H530 C507 0.931 . S
H531 C537 0.930 . S
H532 C570 0.930 . S
H533 C514 0.930 . S
H534 C569 0.931 . S
N535 Eu504 2.657 . S
N535 C536 1.334 . S
N535 C540 1.362 . S
C536 H528 0.929 . S
C536 N535 1.334 . S
C536 C539 1.413 . S
C537 H531 0.930 . S
C537 C538 1.392 . S
C537 C539 1.367 . S
C538 C537 1.392 . S
C538 C540 1.420 . S
C538 C570 1.423 . S
C539 H525 0.930 . S
C539 C536 1.413 . S
C539 C537 1.367 . S
C540 N535 1.362 . S
C540 C538 1.420 . S
C540 C544 1.429 . S
H541 C546 0.930 . S
N542 Eu504 2.609 . S
N542 C544 1.377 . S
N542 C545 1.321 . S
C543 H529 0.930 . S
C543 C545 1.400 . S
C543 C546 1.386 . S
C544 C540 1.429 . S
C544 N542 1.377 . S
C544 C547 1.411 . S
C545 H527 0.930 . S
C545 N542 1.321 . S
C545 C543 1.400 . S
C546 H541 0.930 . S
C546 C543 1.386 . S
C546 C547 1.395 . S
C547 C544 1.411 . S
C547 C546 1.395 . S
C547 C569 1.420 . S
O548 Eu504 2.558 . S
O548 C568 1.257 . S
O549 Eu504 2.612 . S
O549 Eu515 2.380 . S
O549 C560 1.276 . S
O550 Eu515 2.432 . S
O550 C567 1.264 . S
O551 Eu504 2.339 . S
O551 C567 1.254 . S
O552 Eu504 2.563 . S
O552 C560 1.235 . S
O553 Eu504 2.419 . S
O553 C568 1.249 . S
O554 Eu515 2.558 . S
O554 C579 1.257 . S
O555 Eu504 2.380 . S
O555 Eu515 2.612 . S
O555 C571 1.276 . S
O556 Eu504 2.432 . S
O556 C578 1.264 . S
O557 Eu515 2.339 . S
O557 C578 1.254 . S
O558 Eu515 2.563 . S
O558 C571 1.235 . S
O559 Eu515 2.419 . S
O559 C579 1.249 . S
C560 O549 1.276 . S
C560 O552 1.235 . S
C561 C563 1.393 . S
C561 C565 1.395 . S
C561 C568 1.492 . S
C562 C563 1.392 . S
C562 C564 1.386 . S
C563 C561 1.393 . S
C563 C562 1.392 . S
C563 H580 0.930 . S
C564 C562 1.386 . S
C564 C566 1.395 . S
C564 H581 0.930 . S
C565 C561 1.395 . S
C565 C566 1.379 . S
C565 H582 0.930 . S
C566 C564 1.395 . S
C566 C565 1.379 . S
C566 H583 0.930 . S
C567 O550 1.264 . S
C567 O551 1.254 . S
C568 Eu504 2.848 . S
C568 O548 1.257 . S
C568 O553 1.249 . S
C568 C561 1.492 . S
C569 H534 0.931 . S
C569 C547 1.420 . S
C569 C570 1.351 . S
C570 H532 0.930 . S
C570 C538 1.423 . S
C570 C569 1.351 . S
C571 O555 1.276 . S
C571 O558 1.235 . S
C572 C573 1.393 . S
C572 C576 1.395 . S
C572 C579 1.492 . S
C573 C572 1.393 . S
C573 C574 1.392 . S
C573 H584 0.930 . S
C574 C573 1.392 . S
C574 C575 1.386 . S
C575 C574 1.386 . S
C575 C577 1.395 . S
C575 H585 0.930 1_556 S
C576 C572 1.395 . S
C576 C577 1.379 . S
C576 H586 0.930 . S
C577 C575 1.395 . S
C577 C576 1.379 . S
C577 H587 0.930 . S
C578 O556 1.264 . S
C578 O557 1.254 . S
C579 Eu515 2.848 . S
C579 O554 1.257 . S
C579 O559 1.249 . S
C579 C572 1.492 . S
H580 C563 0.930 . S
H581 C564 0.930 . S
H582 C565 0.930 . S
H583 C566 0.930 . S
H584 C573 0.930 . S
H585 C575 0.930 1_554 S
H586 C576 0.930 . S
H587 C577 0.930 . S
Eu588 N619 2.624 1_655 S
Eu588 N626 2.609 . S
Eu588 O632 2.558 . S
Eu588 O633 2.612 . S
Eu588 O635 2.339 . S
Eu588 O636 2.563 . S
Eu588 O637 2.419 . S
Eu588 O639 2.380 . S
Eu588 O640 2.432 . S
Eu588 C652 2.848 . S
C589 C592 1.429 . S
C589 C593 1.411 . S
C589 N596 1.377 . S
C590 C592 1.420 . S
C590 C594 1.423 . S
C590 C602 1.392 . S
C591 C593 1.420 . S
C591 C594 1.351 . S
C591 H614 0.931 . S
C592 C589 1.429 . S
C592 C590 1.420 . S
C592 N600 1.362 . S
C593 C589 1.411 . S
C593 C591 1.420 . S
C593 C598 1.395 . S
C594 C590 1.423 . S
C594 C591 1.351 . S
C594 H606 0.930 . S
C595 C597 1.400 . S
C595 C598 1.386 . S
C595 H607 0.930 . S
N596 C589 1.377 . S
N596 C597 1.321 . S
N596 Eu599 2.609 . S
C597 C595 1.400 . S
C597 N596 1.321 . S
C597 H604 0.930 . S
C598 C593 1.395 . S
C598 C595 1.386 . S
C598 H617 0.930 . S
Eu599 N596 2.609 . S
Eu599 N600 2.657 . S
Eu599 O633 2.380 . S
Eu599 O634 2.432 . S
Eu599 O638 2.558 . S
Eu599 O639 2.612 . S
Eu599 O641 2.339 . S
Eu599 O642 2.563 . S
Eu599 O643 2.419 . S
Eu599 C663 2.848 . S
N600 C592 1.362 . S
N600 Eu599 2.657 . S
N600 C601 1.334 . S
C601 N600 1.334 . S
C601 C603 1.413 . S
C601 H608 0.929 . S
C602 C590 1.392 . S
C602 C603 1.367 . S
C602 H610 0.930 . S
C603 C601 1.413 . S
C603 C602 1.367 . S
C603 H605 0.930 . S
H604 C597 0.930 . S
H605 C603 0.930 . S
H606 C594 0.930 . S
H607 C595 0.930 . S
H608 C601 0.929 . S
H609 C623 0.930 . S
H610 C602 0.930 . S
H611 C629 0.930 . S
H612 C620 0.929 . S
H613 C627 0.930 . S
H614 C591 0.931 . S
H615 C621 0.930 . S
H616 C654 0.930 . S
H617 C598 0.930 . S
H618 C653 0.931 . S
N619 Eu588 2.624 1_455 S
N619 C620 1.338 . S
N619 C624 1.393 . S
C620 H612 0.929 . S
C620 N619 1.338 . S
C620 C623 1.413 . S
C621 H615 0.930 . S
C621 C622 1.392 . S
C621 C623 1.367 . S
C622 C621 1.392 . S
C622 C624 1.420 . S
C622 C654 1.423 . S
C623 H609 0.930 . S
C623 C620 1.413 . S
C623 C621 1.367 . S
C624 N619 1.393 . S
C624 C622 1.420 . S
C624 C628 1.429 1_455 S
H625 C630 0.970 . S
N626 Eu588 2.609 . S
N626 C628 1.377 . S
N626 C629 1.321 . S
C627 H613 0.930 . S
C627 C629 1.400 . S
C627 C630 1.386 . S
C628 C624 1.429 1_655 S
C628 N626 1.377 . S
C628 C631 1.411 1_655 S
C629 H611 0.930 . S
C629 N626 1.321 . S
C629 C627 1.400 . S
C630 H625 0.970 . S
C630 C627 1.386 . S
C630 C631 1.395 1_655 S
C631 C628 1.411 1_455 S
C631 C630 1.395 1_455 S
C631 C653 1.420 . S
O632 Eu588 2.558 . S
O632 C652 1.257 . S
O633 Eu588 2.612 . S
O633 Eu599 2.380 . S
O633 C644 1.276 . S
O634 Eu599 2.432 . S
O634 C651 1.264 . S
O635 Eu588 2.339 . S
O635 C651 1.254 . S
O636 Eu588 2.563 . S
O636 C644 1.235 . S
O637 Eu588 2.419 . S
O637 C652 1.249 . S
O638 Eu599 2.558 . S
O638 C663 1.257 . S
O639 Eu588 2.380 . S
O639 Eu599 2.612 . S
O639 C655 1.276 . S
O640 Eu588 2.432 . S
O640 C662 1.264 . S
O641 Eu599 2.339 . S
O641 C662 1.254 . S
O642 Eu599 2.563 . S
O642 C655 1.235 . S
O643 Eu599 2.419 . S
O643 C663 1.249 . S
C644 O633 1.276 . S
C644 O636 1.235 . S
C645 C647 1.393 1_556 S
C645 C649 1.395 1_556 S
C645 C652 1.492 . S
C646 C647 1.392 . S
C646 C648 1.386 . S
C647 C645 1.393 1_554 S
C647 C646 1.392 . S
C647 H664 0.930 . S
C648 C646 1.386 . S
C648 C650 1.395 . S
C648 H665 0.930 . S
C649 C645 1.395 1_554 S
C649 C650 1.379 . S
C649 H666 0.930 1_554 S
C650 C648 1.395 . S
C650 C649 1.379 . S
C650 H667 0.930 . S
C651 O634 1.264 . S
C651 O635 1.254 . S
C652 Eu588 2.848 . S
C652 O632 1.257 . S
C652 O637 1.249 . S
C652 C645 1.492 . S
C653 H618 0.931 . S
C653 C631 1.420 . S
C653 C654 1.351 . S
C654 H616 0.930 . S
C654 C622 1.423 . S
C654 C653 1.351 . S
C655 O639 1.276 . S
C655 O642 1.235 . S
C656 C657 1.393 . S
C656 C660 1.395 . S
C656 C663 1.492 . S
C657 C656 1.393 . S
C657 C658 1.392 . S
C657 H668 0.930 . S
C658 C657 1.392 . S
C658 C659 1.386 . S
C659 C658 1.386 . S
C659 C661 1.395 . S
C659 H669 0.930 . S
C660 C656 1.395 . S
C660 C661 1.379 . S
C660 H670 0.930 . S
C661 C659 1.395 . S
C661 C660 1.379 . S
C661 H671 0.930 . S
C662 O640 1.264 . S
C662 O641 1.254 . S
C663 Eu599 2.848 . S
C663 O638 1.257 . S
C663 O643 1.249 . S
C663 C656 1.492 . S
H664 C647 0.930 . S
H665 C648 0.930 . S
H666 C649 0.930 1_556 S
H667 C650 0.930 . S
H668 C657 0.930 . S
H669 C659 0.930 . S
H670 C660 0.930 . S
H671 C661 0.930 . S
Eu672 N703 2.657 . S
Eu672 N710 2.609 . S
Eu672 O716 2.558 . S
Eu672 O717 2.612 . S
Eu672 O719 2.339 . S
Eu672 O720 2.563 . S
Eu672 O721 2.419 . S
Eu672 O723 2.380 . S
Eu672 O724 2.432 . S
Eu672 C736 2.848 . S
C673 C676 1.429 . S
C673 C677 1.411 . S
C673 N680 1.377 . S
C674 C676 1.420 . S
C674 C678 1.423 1_655 S
C674 C686 1.437 . S
C675 C677 1.420 . S
C675 C678 1.351 1_655 S
C675 H698 0.931 1_655 S
C676 C673 1.429 . S
C676 C674 1.420 . S
C676 N684 1.362 . S
C677 C673 1.411 . S
C677 C675 1.420 . S
C677 C682 1.395 . S
C678 C674 1.423 1_455 S
C678 C675 1.351 1_455 S
C678 H690 0.930 . S
C679 C681 1.400 . S
C679 C682 1.386 . S
C679 H691 0.930 . S
N680 C673 1.377 . S
N680 C681 1.321 . S
N680 Eu683 2.609 . S
C681 C679 1.400 . S
C681 N680 1.321 . S
C681 H688 0.930 . S
C682 C677 1.395 . S
C682 C679 1.386 . S
C682 H701 0.930 . S
Eu683 N680 2.609 . S
Eu683 N684 2.657 . S
Eu683 O717 2.380 . S
Eu683 O718 2.432 . S
Eu683 O722 2.558 1_556 S
Eu683 O723 2.612 . S
Eu683 O725 2.339 . S
Eu683 O726 2.563 . S
Eu683 O727 2.419 1_556 S
Eu683 C747 2.848 1_556 S
N684 C676 1.362 . S
N684 Eu683 2.657 . S
N684 C685 1.334 . S
C685 N684 1.334 . S
C685 C687 1.413 . S
C685 H692 0.929 . S
C686 C674 1.437 . S
C686 C687 1.374 . S
C686 H694 0.881 1_655 S
C687 C685 1.413 . S
C687 C686 1.374 . S
C687 H689 0.930 . S
H688 C681 0.930 . S
H689 C687 0.930 . S
H690 C678 0.930 . S
H691 C679 0.930 . S
H692 C685 0.929 . S
H693 C707 0.930 . S
H694 C686 0.881 1_455 S
H695 C713 0.930 . S
H696 C704 0.929 . S
H697 C711 0.930 . S
H698 C675 0.931 1_455 S
H699 C705 0.930 . S
H700 C738 0.930 . S
H701 C682 0.930 . S
H702 C737 0.931 . S
N703 Eu672 2.657 . S
N703 C704 1.334 . S
N703 C708 1.362 . S
C704 H696 0.929 . S
C704 N703 1.334 . S
C704 C707 1.413 . S
C705 H699 0.930 . S
C705 C706 1.392 . S
C705 C707 1.367 . S
C706 C705 1.392 . S
C706 C708 1.420 . S
C706 C738 1.423 . S
C707 H693 0.930 . S
C707 C704 1.413 . S
C707 C705 1.367 . S
C708 N703 1.362 . S
C708 C706 1.420 . S
C708 C712 1.429 . S
H709 C714 0.930 . S
N710 Eu672 2.609 . S
N710 C712 1.377 . S
N710 C713 1.321 . S
C711 H697 0.930 . S
C711 C713 1.400 . S
C711 C714 1.386 . S
C712 C708 1.429 . S
C712 N710 1.377 . S
C712 C715 1.411 . S
C713 H695 0.930 . S
C713 N710 1.321 . S
C713 C711 1.400 . S
C714 H709 0.930 . S
C714 C711 1.386 . S
C714 C715 1.395 . S
C715 C712 1.411 . S
C715 C714 1.395 . S
C715 C737 1.420 . S
O716 Eu672 2.558 . S
O716 C736 1.257 . S
O717 Eu672 2.612 . S
O717 Eu683 2.380 . S
O717 C728 1.276 . S
O718 Eu683 2.432 . S
O718 C735 1.264 . S
O719 Eu672 2.339 . S
O719 C735 1.254 . S
O720 Eu672 2.563 . S
O720 C728 1.235 . S
O721 Eu672 2.419 . S
O721 C736 1.249 . S
O722 Eu683 2.558 1_554 S
O722 C747 1.257 . S
O723 Eu672 2.380 . S
O723 Eu683 2.612 . S
O723 C739 1.276 . S
O724 Eu672 2.432 . S
O724 C746 1.264 . S
O725 Eu683 2.339 . S
O725 C746 1.254 . S
O726 Eu683 2.563 . S
O726 C739 1.235 . S
O727 Eu683 2.419 1_554 S
O727 C747 1.249 . S
C728 O717 1.276 . S
C728 O720 1.235 . S
C729 C731 1.393 . S
C729 C733 1.395 . S
C729 C736 1.492 . S
C730 C731 1.392 . S
C730 C732 1.386 . S
C731 C729 1.393 . S
C731 C730 1.392 . S
C731 H748 0.930 . S
C732 C730 1.386 . S
C732 C734 1.395 . S
C732 H749 0.930 . S
C733 C729 1.395 . S
C733 C734 1.379 . S
C733 H750 0.930 . S
C734 C732 1.395 . S
C734 C733 1.379 . S
C734 H751 0.930 . S
C735 O718 1.264 . S
C735 O719 1.254 . S
C736 Eu672 2.848 . S
C736 O716 1.257 . S
C736 O721 1.249 . S
C736 C729 1.492 . S
C737 H702 0.931 . S
C737 C715 1.420 . S
C737 C738 1.351 . S
C738 H700 0.930 . S
C738 C706 1.423 . S
C738 C737 1.351 . S
C739 O723 1.276 . S
C739 O726 1.235 . S
C740 C741 1.393 . S
C740 C744 1.395 . S
C740 C747 1.492 . S
C741 C740 1.393 . S
C741 C742 1.392 . S
C741 H752 0.930 . S
C742 C741 1.392 . S
C742 C743 1.386 . S
C743 C742 1.386 . S
C743 C745 1.395 . S
C743 H753 0.930 . S
C744 C740 1.395 . S
C744 C745 1.379 . S
C744 H754 0.930 . S
C745 C743 1.395 . S
C745 C744 1.379 . S
C745 H755 0.930 . S
C746 O724 1.264 . S
C746 O725 1.254 . S
C747 Eu683 2.848 1_554 S
C747 O722 1.257 . S
C747 O727 1.249 . S
C747 C740 1.492 . S
H748 C731 0.930 . S
H749 C732 0.930 . S
H750 C733 0.930 . S
H751 C734 0.930 . S
H752 C741 0.930 . S
H753 C743 0.930 . S
H754 C744 0.930 . S
H755 C745 0.930 . S
C756 C757 1.391 . S
C756 C758 1.394 . S
C756 H772 0.931 . S
C757 C756 1.391 . S
C757 C761 1.376 . S
C758 C756 1.394 . S
C758 C759 1.369 . S
C758 C762 1.531 . S
C759 C758 1.369 . S
C759 C760 1.410 . S
C759 C767 1.503 . S
C760 C759 1.410 . S
C760 C761 1.392 . S
C760 C763 1.511 . S
C761 C757 1.376 . S
C761 C760 1.392 . S
C761 H773 0.929 . S
C762 C758 1.531 . S
C762 H774 0.960 . S
C762 H775 0.962 . S
C762 H776 0.960 . S
C763 C760 1.511 . S
C763 H777 0.961 . S
C763 H778 0.961 . S
C763 H779 0.961 1_455 S
C764 C765 1.370 . S
C764 C766 1.363 . S
C764 H780 0.931 . S
C765 C764 1.370 . S
C765 C769 1.408 . S
C766 C764 1.363 . S
C766 C767 1.370 . S
C766 C770 1.524 . S
C767 C759 1.503 . S
C767 C766 1.370 . S
C767 C768 1.403 . S
C768 C767 1.403 . S
C768 C769 1.404 . S
C768 C771 1.539 1_455 S
C769 C765 1.408 . S
C769 C768 1.404 . S
C769 H781 0.930 1_455 S
C770 C766 1.524 . S
C770 H782 0.956 . S
C770 H783 0.961 . S
C770 H784 0.961 . S
C771 C768 1.539 1_655 S
C771 H785 0.958 . S
C771 H786 0.961 . S
C771 H787 0.960 . S
H772 C756 0.931 . S
H773 C761 0.929 . S
H774 C762 0.960 . S
H775 C762 0.962 . S
H776 C762 0.960 . S
H777 C763 0.961 . S
H778 C763 0.961 . S
H779 C763 0.961 1_655 S
H780 C764 0.931 . S
H781 C769 0.930 1_655 S
H782 C770 0.956 . S
H783 C770 0.961 . S
H784 C770 0.961 . S
H785 C771 0.958 . S
H786 C771 0.961 . S
H787 C771 0.960 . S
C788 C789 1.391 . S
C788 C790 1.394 . S
C788 H804 0.931 . S
C789 C788 1.391 . S
C789 C793 1.376 . S
C790 C788 1.394 . S
C790 C791 1.369 . S
C790 C794 1.531 . S
C791 C790 1.369 . S
C791 C792 1.410 . S
C791 C799 1.503 . S
C792 C791 1.410 . S
C792 C793 1.392 . S
C792 C795 1.511 . S
C793 C789 1.376 . S
C793 C792 1.392 . S
C793 H805 0.929 . S
C794 C790 1.531 . S
C794 H806 0.960 . S
C794 H807 0.962 . S
C794 H808 0.960 . S
C795 C792 1.511 . S
C795 H809 0.961 . S
C795 H810 0.961 . S
C795 H811 0.961 . S
C796 C797 1.370 . S
C796 C798 1.363 . S
C796 H812 0.931 . S
C797 C796 1.370 . S
C797 C801 1.408 . S
C798 C796 1.363 . S
C798 C799 1.370 . S
C798 C802 1.524 . S
C799 C791 1.503 . S
C799 C798 1.370 . S
C799 C800 1.403 . S
C800 C799 1.403 . S
C800 C801 1.404 . S
C800 C803 1.539 . S
C801 C797 1.408 . S
C801 C800 1.404 . S
C801 H813 0.930 . S
C802 C798 1.524 . S
C802 H814 0.956 . S
C802 H815 0.961 . S
C802 H816 0.961 . S
C803 C800 1.539 . S
C803 H817 0.958 . S
C803 H818 0.961 . S
C803 H819 0.960 . S
H804 C788 0.931 . S
H805 C793 0.929 . S
H806 C794 0.960 . S
H807 C794 0.962 . S
H808 C794 0.960 . S
H809 C795 0.961 . S
H810 C795 0.961 . S
H811 C795 0.961 . S
H812 C796 0.931 . S
H813 C801 0.930 . S
H814 C802 0.956 . S
H815 C802 0.961 . S
H816 C802 0.961 . S
H817 C803 0.958 . S
H818 C803 0.961 . S
H819 C803 0.960 . S
C820 C821 1.391 . S
C820 C822 1.394 . S
C820 H836 0.931 . S
C821 C820 1.391 . S
C821 C825 1.376 . S
C822 C820 1.394 . S
C822 C823 1.369 . S
C822 C826 1.531 . S
C823 C822 1.369 . S
C823 C824 1.410 . S
C823 C831 1.503 . S
C824 C823 1.410 . S
C824 C825 1.392 . S
C824 C827 1.511 . S
C825 C821 1.376 . S
C825 C824 1.392 . S
C825 H837 0.929 . S
C826 C822 1.531 . S
C826 H838 0.960 . S
C826 H839 0.962 . S
C826 H840 0.960 . S
C827 C824 1.511 . S
C827 H841 0.961 . S
C827 H842 0.961 . S
C827 H843 0.961 . S
C828 C829 1.370 . S
C828 C830 1.363 . S
C828 H844 0.931 . S
C829 C828 1.370 . S
C829 C833 1.408 . S
C830 C828 1.363 . S
C830 C831 1.370 . S
C830 C834 1.524 . S
C831 C823 1.503 . S
C831 C830 1.370 . S
C831 C832 1.403 . S
C832 C831 1.403 . S
C832 C833 1.404 . S
C832 C835 1.539 . S
C833 C829 1.408 . S
C833 C832 1.404 . S
C833 H845 0.930 . S
C834 C830 1.524 . S
C834 H846 0.956 . S
C834 H847 0.961 . S
C834 H848 0.961 . S
C835 C832 1.539 . S
C835 H849 0.958 . S
C835 H850 0.961 . S
C835 H851 0.960 . S
H836 C820 0.931 . S
H837 C825 0.929 . S
H838 C826 0.960 . S
H839 C826 0.962 . S
H840 C826 0.960 . S
H841 C827 0.961 . S
H842 C827 0.961 . S
H843 C827 0.961 . S
H844 C828 0.931 . S
H845 C833 0.930 . S
H846 C834 0.956 . S
H847 C834 0.961 . S
H848 C834 0.961 . S
H849 C835 0.958 . S
H850 C835 0.961 . S
H851 C835 0.960 . S
C852 C853 1.391 . S
C852 C854 1.394 . S
C852 H868 0.931 . S
C853 C852 1.391 . S
C853 C857 1.376 . S
C854 C852 1.394 . S
C854 C855 1.369 . S
C854 C858 1.531 . S
C855 C854 1.369 . S
C855 C856 1.410 . S
C855 C863 1.503 . S
C856 C855 1.410 . S
C856 C857 1.392 . S
C856 C859 1.511 . S
C857 C853 1.376 . S
C857 C856 1.392 . S
C857 H869 0.929 . S
C858 C854 1.531 . S
C858 H870 0.960 . S
C858 H871 0.962 . S
C858 H872 0.960 . S
C859 C856 1.511 . S
C859 H873 0.961 . S
C859 H874 0.961 . S
C859 H875 0.961 . S
C860 C861 1.370 . S
C860 C862 1.363 . S
C860 H876 0.931 . S
C861 C860 1.370 . S
C861 C865 1.408 . S
C862 C860 1.363 . S
C862 C863 1.370 . S
C862 C866 1.524 . S
C863 C855 1.503 . S
C863 C862 1.370 . S
C863 C864 1.403 . S
C864 C863 1.403 . S
C864 C865 1.404 . S
C864 C867 1.539 . S
C865 C861 1.408 . S
C865 C864 1.404 . S
C865 H877 0.930 . S
C866 C862 1.524 . S
C866 H878 0.956 . S
C866 H879 0.961 . S
C866 H880 0.961 . S
C867 C864 1.539 . S
C867 H881 0.958 . S
C867 H882 0.961 . S
C867 H883 0.960 . S
H868 C852 0.931 . S
H869 C857 0.929 . S
H870 C858 0.960 . S
H871 C858 0.962 . S
H872 C858 0.960 . S
H873 C859 0.961 . S
H874 C859 0.961 . S
H875 C859 0.961 . S
H876 C860 0.931 . S
H877 C865 0.930 . S
H878 C866 0.956 . S
H879 C866 0.961 . S
H880 C866 0.961 . S
H881 C867 0.958 . S
H882 C867 0.961 . S
H883 C867 0.960 . S
C884 C885 1.391 . S
C884 C886 1.394 . S
C884 H900 0.931 . S
C885 C884 1.391 . S
C885 C889 1.376 . S
C886 C884 1.394 . S
C886 C887 1.369 . S
C886 C890 1.531 . S
C887 C886 1.369 . S
C887 C888 1.410 . S
C887 C895 1.503 . S
C888 C887 1.410 . S
C888 C889 1.392 . S
C888 C891 1.511 . S
C889 C885 1.376 . S
C889 C888 1.392 . S
C889 H901 0.929 . S
C890 C886 1.531 . S
C890 H902 0.960 . S
C890 H903 0.962 . S
C890 H904 0.960 . S
C891 C888 1.511 . S
C891 H905 0.961 . S
C891 H906 0.961 . S
C891 H907 0.961 . S
C892 C893 1.370 . S
C892 C894 1.363 . S
C892 H908 0.931 . S
C893 C892 1.370 . S
C893 C897 1.408 . S
C894 C892 1.363 . S
C894 C895 1.370 . S
C894 C898 1.524 . S
C895 C887 1.503 . S
C895 C894 1.370 . S
C895 C896 1.403 . S
C896 C895 1.403 . S
C896 C897 1.404 . S
C896 C899 1.539 . S
C897 C893 1.408 . S
C897 C896 1.404 . S
C897 H909 0.930 . S
C898 C894 1.524 . S
C898 H910 0.956 . S
C898 H911 0.961 . S
C898 H912 0.961 . S
C899 C896 1.539 . S
C899 H913 0.958 . S
C899 H914 0.961 . S
C899 H915 0.960 . S
H900 C884 0.931 . S
H901 C889 0.929 . S
H902 C890 0.960 . S
H903 C890 0.962 . S
H904 C890 0.960 . S
H905 C891 0.961 . S
H906 C891 0.961 . S
H907 C891 0.961 . S
H908 C892 0.931 . S
H909 C897 0.930 . S
H910 C898 0.956 . S
H911 C898 0.961 . S
H912 C898 0.961 . S
H913 C899 0.958 . S
H914 C899 0.961 . S
H915 C899 0.960 . S
C916 C917 1.391 . S
C916 C918 1.394 . S
C916 H932 0.931 . S
C917 C916 1.391 . S
C917 C921 1.376 . S
C918 C916 1.394 . S
C918 C919 1.369 . S
C918 C922 1.531 . S
C919 C918 1.369 . S
C919 C920 1.410 . S
C919 C927 1.503 . S
C920 C919 1.410 . S
C920 C921 1.392 . S
C920 C923 1.511 . S
C921 C917 1.376 . S
C921 C920 1.392 . S
C921 H933 0.929 . S
C922 C918 1.531 . S
C922 H934 0.960 . S
C922 H935 0.962 . S
C922 H936 0.960 . S
C923 C920 1.511 . S
C923 H937 0.961 . S
C923 H938 0.961 . S
C923 H939 0.961 . S
C924 C925 1.370 . S
C924 C926 1.363 . S
C924 H940 0.931 . S
C925 C924 1.370 . S
C925 C929 1.408 . S
C926 C924 1.363 . S
C926 C927 1.370 . S
C926 C930 1.524 . S
C927 C919 1.503 . S
C927 C926 1.370 . S
C927 C928 1.403 . S
C928 C927 1.403 . S
C928 C929 1.404 . S
C928 C931 1.539 . S
C929 C925 1.408 . S
C929 C928 1.404 . S
C929 H941 0.930 . S
C930 C926 1.524 . S
C930 H942 0.956 . S
C930 H943 0.961 . S
C930 H944 0.961 . S
C931 C928 1.539 . S
C931 H945 0.958 . S
C931 H946 0.961 . S
C931 H947 0.960 . S
H932 C916 0.931 . S
H933 C921 0.929 . S
H934 C922 0.960 . S
H935 C922 0.962 . S
H936 C922 0.960 . S
H937 C923 0.961 . S
H938 C923 0.961 . S
H939 C923 0.961 . S
H940 C924 0.931 . S
H941 C929 0.930 . S
H942 C930 0.956 . S
H943 C930 0.961 . S
H944 C930 0.961 . S
H945 C931 0.958 . S
H946 C931 0.961 . S
H947 C931 0.960 . S
C948 C949 1.391 . S
C948 C950 1.394 . S
C948 H964 0.931 . S
C949 C948 1.391 . S
C949 C953 1.376 . S
C950 C948 1.394 . S
C950 C951 1.369 . S
C950 C954 1.531 . S
C951 C950 1.369 . S
C951 C952 1.410 . S
C951 C959 1.503 . S
C952 C951 1.410 . S
C952 C953 1.392 . S
C952 C955 1.511 . S
C953 C949 1.376 . S
C953 C952 1.392 . S
C953 H965 0.929 . S
C954 C950 1.531 . S
C954 H966 0.960 . S
C954 H967 0.962 . S
C954 H968 0.960 . S
C955 C952 1.511 . S
C955 H969 0.961 . S
C955 H970 0.961 1_554 S
C955 H971 0.961 . S
C956 C957 1.370 . S
C956 C958 1.363 . S
C956 H972 0.931 . S
C957 C956 1.370 . S
C957 C961 1.408 . S
C958 C956 1.363 . S
C958 C959 1.370 1_556 S
C958 C962 1.524 . S
C959 C951 1.503 . S
C959 C958 1.370 1_554 S
C959 C960 1.403 . S
C960 C959 1.403 . S
C960 C961 1.404 1_554 S
C960 C963 1.539 . S
C961 C957 1.408 . S
C961 C960 1.404 1_556 S
C961 H973 0.930 . S
C962 C958 1.524 . S
C962 H974 0.957 . S
C962 H975 0.961 . S
C962 H976 0.961 . S
C963 C960 1.539 . S
C963 H977 0.958 . S
C963 H978 0.961 . S
C963 H979 0.960 . S
H964 C948 0.931 . S
H965 C953 0.929 . S
H966 C954 0.960 . S
H967 C954 0.962 . S
H968 C954 0.960 . S
H969 C955 0.961 . S
H970 C955 0.961 1_556 S
H971 C955 0.961 . S
H972 C956 0.931 . S
H973 C961 0.930 . S
H974 C962 0.957 . S
H975 C962 0.961 . S
H976 C962 0.961 . S
H977 C963 0.958 . S
H978 C963 0.961 . S
H979 C963 0.960 . S
C980 C981 1.391 . S
C980 C982 1.394 . S
C980 H996 0.931 . S
C981 C980 1.391 . S
C981 C985 1.376 . S
C982 C980 1.394 . S
C982 C983 1.369 . S
C982 C986 1.531 . S
C983 C982 1.369 . S
C983 C984 1.410 . S
C983 C991 1.503 . S
C984 C983 1.410 . S
C984 C985 1.392 . S
C984 C987 1.511 . S
C985 C981 1.376 . S
C985 C984 1.392 . S
C985 H997 0.929 . S
C986 C982 1.531 . S
C986 H998 0.960 . S
C986 H999 0.962 . S
C986 H1000 0.960 . S
C987 C984 1.511 . S
C987 H1001 0.961 . S
C987 H1002 0.961 . S
C987 H1003 0.961 . S
C988 C989 1.370 1_554 S
C988 C990 1.363 . S
C988 H1004 0.931 . S
C989 C988 1.370 1_556 S
C989 C993 1.408 1_556 S
C990 C988 1.363 . S
C990 C991 1.370 . S
C990 C994 1.524 . S
C991 C983 1.503 . S
C991 C990 1.370 . S
C991 C992 1.403 . S
C992 C991 1.403 . S
C992 C993 1.404 . S
C992 C995 1.539 . S
C993 C989 1.408 1_554 S
C993 C992 1.404 . S
C993 H1005 0.930 1_554 S
C994 C990 1.524 . S
C994 H1006 0.956 . S
C994 H1007 0.961 . S
C994 H1008 0.961 . S
C995 C992 1.539 . S
C995 H1009 0.958 . S
C995 H1010 0.961 . S
C995 H1011 0.960 . S
H996 C980 0.931 . S
H997 C985 0.929 . S
H998 C986 0.960 . S
H999 C986 0.962 . S
H1000 C986 0.960 . S
H1001 C987 0.961 . S
H1002 C987 0.961 . S
H1003 C987 0.961 . S
H1004 C988 0.931 . S
H1005 C993 0.930 1_556 S
H1006 C994 0.956 . S
H1007 C994 0.961 . S
H1008 C994 0.961 . S
H1009 C995 0.958 . S
H1010 C995 0.961 . S
H1011 C995 0.960 . S
C1012 C1013 1.391 . S
C1012 C1014 1.394 . S
C1012 H1028 0.931 . S
C1013 C1012 1.391 . S
C1013 C1017 1.376 . S
C1014 C1012 1.394 . S
C1014 C1015 1.369 . S
C1014 C1018 1.531 . S
C1015 C1014 1.369 . S
C1015 C1016 1.410 . S
C1015 C1023 1.503 . S
C1016 C1015 1.410 . S
C1016 C1017 1.392 . S
C1016 C1019 1.511 . S
C1017 C1013 1.376 . S
C1017 C1016 1.392 . S
C1017 H1029 0.929 . S
C1018 C1014 1.531 . S
C1018 H1030 0.960 . S
C1018 H1031 0.962 . S
C1018 H1032 0.960 . S
C1019 C1016 1.511 . S
C1019 H1033 0.961 . S
C1019 H1034 0.961 . S
C1019 H1035 0.961 . S
C1020 C1021 1.370 . S
C1020 C1022 1.363 . S
C1020 H1036 0.931 . S
C1021 C1020 1.370 . S
C1021 C1025 1.408 . S
C1022 C1020 1.363 . S
C1022 C1023 1.370 . S
C1022 C1026 1.524 . S
C1023 C1015 1.503 . S
C1023 C1022 1.370 . S
C1023 C1024 1.403 . S
C1024 C1023 1.403 . S
C1024 C1025 1.404 . S
C1024 C1027 1.539 . S
C1025 C1021 1.408 . S
C1025 C1024 1.404 . S
C1025 H1037 0.930 . S
C1026 C1022 1.524 . S
C1026 H1038 0.956 . S
C1026 H1039 0.961 . S
C1026 H1040 0.961 . S
C1027 C1024 1.539 . S
C1027 H1041 0.958 . S
C1027 H1042 0.961 . S
C1027 H1043 0.960 . S
H1028 C1012 0.931 . S
H1029 C1017 0.929 . S
H1030 C1018 0.960 . S
H1031 C1018 0.962 . S
H1032 C1018 0.960 . S
H1033 C1019 0.961 . S
H1034 C1019 0.961 . S
H1035 C1019 0.961 . S
H1036 C1020 0.931 . S
H1037 C1025 0.930 . S
H1038 C1026 0.956 . S
H1039 C1026 0.961 . S
H1040 C1026 0.961 . S
H1041 C1027 0.958 . S
H1042 C1027 0.961 . S
H1043 C1027 0.960 . S
C1044 C1045 1.391 . S
C1044 C1046 1.394 . S
C1044 H1060 0.931 . S
C1045 C1044 1.391 . S
C1045 C1049 1.376 . S
C1046 C1044 1.394 . S
C1046 C1047 1.369 . S
C1046 C1050 1.531 . S
C1047 C1046 1.369 . S
C1047 C1048 1.410 . S
C1047 C1055 1.503 . S
C1048 C1047 1.410 . S
C1048 C1049 1.392 . S
C1048 C1051 1.511 . S
C1049 C1045 1.376 . S
C1049 C1048 1.392 . S
C1049 H1061 0.929 . S
C1050 C1046 1.531 . S
C1050 H1062 0.960 . S
C1050 H1063 0.962 . S
C1050 H1064 0.960 . S
C1051 C1048 1.511 . S
C1051 H1065 0.961 . S
C1051 H1066 0.961 . S
C1051 H1067 0.961 . S
C1052 C1053 1.370 . S
C1052 C1054 1.363 . S
C1052 H1068 0.931 . S
C1053 C1052 1.370 . S
C1053 C1057 1.408 . S
C1054 C1052 1.363 . S
C1054 C1055 1.370 . S
C1054 C1058 1.524 . S
C1055 C1047 1.503 . S
C1055 C1054 1.370 . S
C1055 C1056 1.403 . S
C1056 C1055 1.403 . S
C1056 C1057 1.404 . S
C1056 C1059 1.539 . S
C1057 C1053 1.408 . S
C1057 C1056 1.404 . S
C1057 H1069 0.930 . S
C1058 C1054 1.524 . S
C1058 H1070 0.956 . S
C1058 H1071 0.961 . S
C1058 H1072 0.961 . S
C1059 C1056 1.539 . S
C1059 H1073 0.958 . S
C1059 H1074 0.961 . S
C1059 H1075 0.960 . S
H1060 C1044 0.931 . S
H1061 C1049 0.929 . S
H1062 C1050 0.960 . S
H1063 C1050 0.962 . S
H1064 C1050 0.960 . S
H1065 C1051 0.961 . S
H1066 C1051 0.961 . S
H1067 C1051 0.961 . S
H1068 C1052 0.931 . S
H1069 C1057 0.930 . S
H1070 C1058 0.956 . S
H1071 C1058 0.961 . S
H1072 C1058 0.961 . S
H1073 C1059 0.958 . S
H1074 C1059 0.961 . S
H1075 C1059 0.960 . S
C1076 C1077 1.391 . S
C1076 C1078 1.394 . S
C1076 H1092 0.931 . S
C1077 C1076 1.391 . S
C1077 C1081 1.376 . S
C1078 C1076 1.394 . S
C1078 C1079 1.369 . S
C1078 C1082 1.531 . S
C1079 C1078 1.369 . S
C1079 C1080 1.410 . S
C1079 C1087 1.503 . S
C1080 C1079 1.410 . S
C1080 C1081 1.392 . S
C1080 C1083 1.511 . S
C1081 C1077 1.376 . S
C1081 C1080 1.392 . S
C1081 H1093 0.929 . S
C1082 C1078 1.531 . S
C1082 H1094 0.960 . S
C1082 H1095 0.962 . S
C1082 H1096 0.960 . S
C1083 C1080 1.511 . S
C1083 H1097 0.961 . S
C1083 H1098 0.961 . S
C1083 H1099 0.961 . S
C1084 C1085 1.370 . S
C1084 C1086 1.363 . S
C1084 H1100 0.931 . S
C1085 C1084 1.370 . S
C1085 C1089 1.408 . S
C1086 C1084 1.363 . S
C1086 C1087 1.370 . S
C1086 C1090 1.524 . S
C1087 C1079 1.503 . S
C1087 C1086 1.370 . S
C1087 C1088 1.403 . S
C1088 C1087 1.403 . S
C1088 C1089 1.404 . S
C1088 C1091 1.539 . S
C1089 C1085 1.408 . S
C1089 C1088 1.404 . S
C1089 H1101 0.930 . S
C1090 C1086 1.524 . S
C1090 H1102 0.956 . S
C1090 H1103 0.961 . S
C1090 H1104 0.961 . S
C1091 C1088 1.539 . S
C1091 H1105 0.958 . S
C1091 H1106 0.961 . S
C1091 H1107 0.960 . S
H1092 C1076 0.931 . S
H1093 C1081 0.929 . S
H1094 C1082 0.960 . S
H1095 C1082 0.962 . S
H1096 C1082 0.960 . S
H1097 C1083 0.961 . S
H1098 C1083 0.961 . S
H1099 C1083 0.961 . S
H1100 C1084 0.931 . S
H1101 C1089 0.930 . S
H1102 C1090 0.956 . S
H1103 C1090 0.961 . S
H1104 C1090 0.961 . S
H1105 C1091 0.958 . S
H1106 C1091 0.961 . S
H1107 C1091 0.960 . S
C1108 C1109 1.391 . S
C1108 C1110 1.394 . S
C1108 H1124 0.931 . S
C1109 C1108 1.391 . S
C1109 C1113 1.376 . S
C1110 C1108 1.394 . S
C1110 C1111 1.369 . S
C1110 C1114 1.531 . S
C1111 C1110 1.369 . S
C1111 C1112 1.410 . S
C1111 C1119 1.503 . S
C1112 C1111 1.410 . S
C1112 C1113 1.392 . S
C1112 C1115 1.511 . S
C1113 C1109 1.376 . S
C1113 C1112 1.392 . S
C1113 H1125 0.929 1_565 S
C1114 C1110 1.531 . S
C1114 H1126 0.960 . S
C1114 H1127 0.962 . S
C1114 H1128 0.960 . S
C1115 C1112 1.511 . S
C1115 H1129 0.961 . S
C1115 H1130 0.961 . S
C1115 H1131 0.961 . S
C1116 C1117 1.370 . S
C1116 C1118 1.363 . S
C1116 H1132 0.931 . S
C1117 C1116 1.370 . S
C1117 C1121 1.408 . S
C1118 C1116 1.363 . S
C1118 C1119 1.370 . S
C1118 C1122 1.524 1_554 S
C1119 C1111 1.503 . S
C1119 C1118 1.370 . S
C1119 C1120 1.403 . S
C1120 C1119 1.403 . S
C1120 C1121 1.404 . S
C1120 C1123 1.539 . S
C1121 C1117 1.408 . S
C1121 C1120 1.404 . S
C1121 H1133 0.930 . S
C1122 C1118 1.524 1_556 S
C1122 H1134 0.956 . S
C1122 H1135 0.961 . S
C1122 H1136 0.961 . S
C1123 C1120 1.539 . S
C1123 H1137 0.958 . S
C1123 H1138 0.961 . S
C1123 H1139 0.960 . S
H1124 C1108 0.931 . S
H1125 C1113 0.929 1_545 S
H1126 C1114 0.960 . S
H1127 C1114 0.962 . S
H1128 C1114 0.960 . S
H1129 C1115 0.961 . S
H1130 C1115 0.961 . S
H1131 C1115 0.961 . S
H1132 C1116 0.931 . S
H1133 C1121 0.930 . S
H1134 C1122 0.956 . S
H1135 C1122 0.961 . S
H1136 C1122 0.961 . S
H1137 C1123 0.958 . S
H1138 C1123 0.961 . S
H1139 C1123 0.960 . S
C1140 C1141 1.391 . S
C1140 C1142 1.394 . S
C1140 H1156 0.931 . S
C1141 C1140 1.391 . S
C1141 C1145 1.376 . S
C1142 C1140 1.394 . S
C1142 C1143 1.369 . S
C1142 C1146 1.531 . S
C1143 C1142 1.369 . S
C1143 C1144 1.410 . S
C1143 C1151 1.503 . S
C1144 C1143 1.410 . S
C1144 C1145 1.392 . S
C1144 C1147 1.511 . S
C1145 C1141 1.376 . S
C1145 C1144 1.392 . S
C1145 H1157 0.929 . S
C1146 C1142 1.531 . S
C1146 H1158 0.960 . S
C1146 H1159 0.962 . S
C1146 H1160 0.960 . S
C1147 C1144 1.511 . S
C1147 H1161 0.961 . S
C1147 H1162 0.961 . S
C1147 H1163 0.961 . S
C1148 C1149 1.370 . S
C1148 C1150 1.363 . S
C1148 H1164 0.931 . S
C1149 C1148 1.370 . S
C1149 C1153 1.408 . S
C1150 C1148 1.363 . S
C1150 C1151 1.370 . S
C1150 C1154 1.524 . S
C1151 C1143 1.503 . S
C1151 C1150 1.370 . S
C1151 C1152 1.403 . S
C1152 C1151 1.403 . S
C1152 C1153 1.404 . S
C1152 C1155 1.539 . S
C1153 C1149 1.408 . S
C1153 C1152 1.404 . S
C1153 H1165 0.930 . S
C1154 C1150 1.524 . S
C1154 H1166 0.956 . S
C1154 H1167 0.961 . S
C1154 H1168 0.961 . S
C1155 C1152 1.539 . S
C1155 H1169 0.958 . S
C1155 H1170 0.961 . S
C1155 H1171 0.960 . S
H1156 C1140 0.931 . S
H1157 C1145 0.929 . S
H1158 C1146 0.960 . S
H1159 C1146 0.962 . S
H1160 C1146 0.960 . S
H1161 C1147 0.961 . S
H1162 C1147 0.961 . S
H1163 C1147 0.961 . S
H1164 C1148 0.931 . S
H1165 C1153 0.930 . S
H1166 C1154 0.956 . S
H1167 C1154 0.961 . S
H1168 C1154 0.961 . S
H1169 C1155 0.958 . S
H1170 C1155 0.961 . S
H1171 C1155 0.960 . S
C1172 C1173 1.391 . S
C1172 C1174 1.394 . S
C1172 H1188 0.931 . S
C1173 C1172 1.391 . S
C1173 C1177 1.376 . S
C1174 C1172 1.394 . S
C1174 C1175 1.369 . S
C1174 C1178 1.531 . S
C1175 C1174 1.369 . S
C1175 C1176 1.410 . S
C1175 C1183 1.503 1_556 S
C1176 C1175 1.410 . S
C1176 C1177 1.392 . S
C1176 C1179 1.511 1_656 S
C1177 C1173 1.376 . S
C1177 C1176 1.392 . S
C1177 H1189 0.929 . S
C1178 C1174 1.531 . S
C1178 H1190 0.960 . S
C1178 H1191 0.962 . S
C1178 H1192 0.960 . S
C1179 C1176 1.511 1_454 S
C1179 H1193 0.961 1_554 S
C1179 H1194 0.961 . S
C1179 H1195 0.961 1_455 S
C1180 C1181 1.370 . S
C1180 C1182 1.363 . S
C1180 H1196 0.931 . S
C1181 C1180 1.370 . S
C1181 C1185 1.408 1_455 S
C1182 C1180 1.363 . S
C1182 C1183 1.370 1_455 S
C1182 C1186 1.524 1_554 S
C1183 C1175 1.503 1_554 S
C1183 C1182 1.370 1_655 S
C1183 C1184 1.403 . S
C1184 C1183 1.403 . S
C1184 C1185 1.404 . S
C1184 C1187 1.539 . S
C1185 C1181 1.408 1_655 S
C1185 C1184 1.404 . S
C1185 H1197 0.930 . S
C1186 C1182 1.524 1_556 S
C1186 H1198 0.956 . S
C1186 H1199 0.961 . S
C1186 H1200 0.961 . S
C1187 C1184 1.539 . S
C1187 H1201 0.958 . S
C1187 H1202 0.961 . S
C1187 H1203 0.960 . S
H1188 C1172 0.931 . S
H1189 C1177 0.929 . S
H1190 C1178 0.960 . S
H1191 C1178 0.962 . S
H1192 C1178 0.960 . S
H1193 C1179 0.961 1_556 S
H1194 C1179 0.961 . S
H1195 C1179 0.961 1_655 S
H1196 C1180 0.931 . S
H1197 C1185 0.930 . S
H1198 C1186 0.956 . S
H1199 C1186 0.961 . S
H1200 C1186 0.961 . S
H1201 C1187 0.958 . S
H1202 C1187 0.961 . S
H1203 C1187 0.960 . S
C1204 C1205 1.391 . S
C1204 C1206 1.394 . S
C1204 H1220 0.931 . S
C1205 C1204 1.391 . S
C1205 C1209 1.376 . S
C1206 C1204 1.394 . S
C1206 C1207 1.369 . S
C1206 C1210 1.531 . S
C1207 C1206 1.369 . S
C1207 C1208 1.410 . S
C1207 C1215 1.503 1_556 S
C1208 C1207 1.410 . S
C1208 C1209 1.392 . S
C1208 C1211 1.511 . S
C1209 C1205 1.376 . S
C1209 C1208 1.392 . S
C1209 H1221 0.929 . S
C1210 C1206 1.531 . S
C1210 H1222 0.960 . S
C1210 H1223 0.962 1_556 S
C1210 H1224 0.960 . S
C1211 C1208 1.511 . S
C1211 H1225 0.961 . S
C1211 H1226 0.961 1_556 S
C1211 H1227 0.961 . S
C1212 C1213 1.370 . S
C1212 C1214 1.363 . S
C1212 H1228 0.931 . S
C1213 C1212 1.370 . S
C1213 C1217 1.408 . S
C1214 C1212 1.363 . S
C1214 C1215 1.370 . S
C1214 C1218 1.524 . S
C1215 C1207 1.503 1_554 S
C1215 C1214 1.370 . S
C1215 C1216 1.403 1_554 S
C1216 C1215 1.403 1_556 S
C1216 C1217 1.404 1_556 S
C1216 C1219 1.539 . S
C1217 C1213 1.408 . S
C1217 C1216 1.404 1_554 S
C1217 H1229 0.930 . S
C1218 C1214 1.524 . S
C1218 H1230 0.956 . S
C1218 H1231 0.961 . S
C1218 H1232 0.961 . S
C1219 C1216 1.539 . S
C1219 H1233 0.958 . S
C1219 H1234 0.961 . S
C1219 H1235 0.960 . S
H1220 C1204 0.931 . S
H1221 C1209 0.929 . S
H1222 C1210 0.960 . S
H1223 C1210 0.962 1_554 S
H1224 C1210 0.960 . S
H1225 C1211 0.961 . S
H1226 C1211 0.961 1_554 S
H1227 C1211 0.961 . S
H1228 C1212 0.931 . S
H1229 C1217 0.930 . S
H1230 C1218 0.956 . S
H1231 C1218 0.961 . S
H1232 C1218 0.961 . S
H1233 C1219 0.958 . S
H1234 C1219 0.961 . S
H1235 C1219 0.960 . S
C1236 C1237 1.391 . S
C1236 C1238 1.394 . S
C1236 H1252 0.931 . S
C1237 C1236 1.391 . S
C1237 C1241 1.376 . S
C1238 C1236 1.394 . S
C1238 C1239 1.369 . S
C1238 C1242 1.531 1_556 S
C1239 C1238 1.369 . S
C1239 C1240 1.410 . S
C1239 C1247 1.503 . S
C1240 C1239 1.410 . S
C1240 C1241 1.392 . S
C1240 C1243 1.511 . S
C1241 C1237 1.376 . S
C1241 C1240 1.392 . S
C1241 H1253 0.929 . S
C1242 C1238 1.531 1_554 S
C1242 H1254 0.960 . S
C1242 H1255 0.962 . S
C1242 H1256 0.960 . S
C1243 C1240 1.511 . S
C1243 H1257 0.961 . S
C1243 H1258 0.961 . S
C1243 H1259 0.961 . S
C1244 C1245 1.370 . S
C1244 C1246 1.363 . S
C1244 H1260 0.931 . S
C1245 C1244 1.370 . S
C1245 C1249 1.408 1_554 S
C1246 C1244 1.363 . S
C1246 C1247 1.370 1_554 S
C1246 C1250 1.524 . S
C1247 C1239 1.503 . S
C1247 C1246 1.370 1_556 S
C1247 C1248 1.403 . S
C1248 C1247 1.403 . S
C1248 C1249 1.404 . S
C1248 C1251 1.539 . S
C1249 C1245 1.408 1_556 S
C1249 C1248 1.404 . S
C1249 H1261 0.930 . S
C1250 C1246 1.524 . S
C1250 H1262 0.956 . S
C1250 H1263 0.961 . S
C1250 H1264 0.961 . S
C1251 C1248 1.539 . S
C1251 H1265 0.958 . S
C1251 H1266 0.961 . S
C1251 H1267 0.960 . S
H1252 C1236 0.931 . S
H1253 C1241 0.929 . S
H1254 C1242 0.960 . S
H1255 C1242 0.962 . S
H1256 C1242 0.960 . S
H1257 C1243 0.961 . S
H1258 C1243 0.961 . S
H1259 C1243 0.961 . S
H1260 C1244 0.931 . S
H1261 C1249 0.930 . S
H1262 C1250 0.956 . S
H1263 C1250 0.961 . S
H1264 C1250 0.961 . S
H1265 C1251 0.958 . S
H1266 C1251 0.961 . S
H1267 C1251 0.960 . S
C1268 C1269 1.391 . S
C1268 C1270 1.394 . S
C1268 H1284 0.931 . S
C1269 C1268 1.391 . S
C1269 C1273 1.376 . S
C1270 C1268 1.394 . S
C1270 C1271 1.369 . S
C1270 C1274 1.531 . S
C1271 C1270 1.369 . S
C1271 C1272 1.410 . S
C1271 C1279 1.503 . S
C1272 C1271 1.410 . S
C1272 C1273 1.392 . S
C1272 C1275 1.511 . S
C1273 C1269 1.376 . S
C1273 C1272 1.392 . S
C1273 H1285 0.929 . S
C1274 C1270 1.531 . S
C1274 H1286 0.960 . S
C1274 H1287 0.962 . S
C1274 H1288 0.960 . S
C1275 C1272 1.511 . S
C1275 H1289 0.961 . S
C1275 H1290 0.961 . S
C1275 H1291 0.961 . S
C1276 C1277 1.370 . S
C1276 C1278 1.363 . S
C1276 H1292 0.931 . S
C1277 C1276 1.370 . S
C1277 C1281 1.408 . S
C1278 C1276 1.363 . S
C1278 C1279 1.370 . S
C1278 C1282 1.524 . S
C1279 C1271 1.503 . S
C1279 C1278 1.370 . S
C1279 C1280 1.403 . S
C1280 C1279 1.403 . S
C1280 C1281 1.404 . S
C1280 C1283 1.539 . S
C1281 C1277 1.408 . S
C1281 C1280 1.404 . S
C1281 H1293 0.930 . S
C1282 C1278 1.524 . S
C1282 H1294 0.956 . S
C1282 H1295 0.961 . S
C1282 H1296 0.961 . S
C1283 C1280 1.539 . S
C1283 H1297 0.958 . S
C1283 H1298 0.961 . S
C1283 H1299 0.960 . S
H1284 C1268 0.931 . S
H1285 C1273 0.929 . S
H1286 C1274 0.960 . S
H1287 C1274 0.962 . S
H1288 C1274 0.960 . S
H1289 C1275 0.961 . S
H1290 C1275 0.961 . S
H1291 C1275 0.961 . S
H1292 C1276 0.931 . S
H1293 C1281 0.930 . S
H1294 C1282 0.956 . S
H1295 C1282 0.961 . S
H1296 C1282 0.961 . S
H1297 C1283 0.958 . S
H1298 C1283 0.961 . S
H1299 C1283 0.960 . S
C1300 C1301 1.391 . S
C1300 C1302 1.394 . S
C1300 H1316 0.931 . S
C1301 C1300 1.391 . S
C1301 C1305 1.376 . S
C1302 C1300 1.394 . S
C1302 C1303 1.369 . S
C1302 C1306 1.531 . S
C1303 C1302 1.369 . S
C1303 C1304 1.410 . S
C1303 C1311 1.503 . S
C1304 C1303 1.410 . S
C1304 C1305 1.392 . S
C1304 C1307 1.511 . S
C1305 C1301 1.376 . S
C1305 C1304 1.392 . S
C1305 H1317 0.929 . S
C1306 C1302 1.531 . S
C1306 H1318 0.960 . S
C1306 H1319 0.962 . S
C1306 H1320 0.960 . S
C1307 C1304 1.511 . S
C1307 H1321 0.961 . S
C1307 H1322 0.961 . S
C1307 H1323 0.961 . S
C1308 C1309 1.370 . S
C1308 C1310 1.363 . S
C1308 H1324 0.931 . S
C1309 C1308 1.370 . S
C1309 C1313 1.408 . S
C1310 C1308 1.363 . S
C1310 C1311 1.370 . S
C1310 C1314 1.524 . S
C1311 C1303 1.503 . S
C1311 C1310 1.370 . S
C1311 C1312 1.403 . S
C1312 C1311 1.403 . S
C1312 C1313 1.404 . S
C1312 C1315 1.539 . S
C1313 C1309 1.408 . S
C1313 C1312 1.404 . S
C1313 H1325 0.930 . S
C1314 C1310 1.524 . S
C1314 H1326 0.956 . S
C1314 H1327 0.961 . S
C1314 H1328 0.961 . S
C1315 C1312 1.539 . S
C1315 H1329 0.958 . S
C1315 H1330 0.961 1_556 S
C1315 H1331 0.960 . S
H1316 C1300 0.931 . S
H1317 C1305 0.929 . S
H1318 C1306 0.960 . S
H1319 C1306 0.962 . S
H1320 C1306 0.960 . S
H1321 C1307 0.961 . S
H1322 C1307 0.961 . S
H1323 C1307 0.961 . S
H1324 C1308 0.931 . S
H1325 C1313 0.930 . S
H1326 C1314 0.956 . S
H1327 C1314 0.961 . S
H1328 C1314 0.961 . S
H1329 C1315 0.958 . S
H1330 C1315 0.961 1_554 S
H1331 C1315 0.960 . S
C1332 C1333 1.391 . S
C1332 C1334 1.394 . S
C1332 H1348 0.931 . S
C1333 C1332 1.391 . S
C1333 C1337 1.376 . S
C1334 C1332 1.394 . S
C1334 C1335 1.369 . S
C1334 C1338 1.531 . S
C1335 C1334 1.369 . S
C1335 C1336 1.410 . S
C1335 C1343 1.503 . S
C1336 C1335 1.410 . S
C1336 C1337 1.392 . S
C1336 C1339 1.511 1_545 S
C1337 C1333 1.376 . S
C1337 C1336 1.392 . S
C1337 H1349 0.929 1_554 S
C1338 C1334 1.531 . S
C1338 H1350 0.960 . S
C1338 H1351 0.962 . S
C1338 H1352 0.960 . S
C1339 C1336 1.511 1_565 S
C1339 H1353 0.961 1_554 S
C1339 H1354 0.961 . S
C1339 H1355 0.961 . S
C1340 C1341 1.370 . S
C1340 C1342 1.363 . S
C1340 H1356 0.931 . S
C1341 C1340 1.370 . S
C1341 C1345 1.408 . S
C1342 C1340 1.363 . S
C1342 C1343 1.370 . S
C1342 C1346 1.524 1_554 S
C1343 C1335 1.503 . S
C1343 C1342 1.370 . S
C1343 C1344 1.403 . S
C1344 C1343 1.403 . S
C1344 C1345 1.404 . S
C1344 C1347 1.539 . S
C1345 C1341 1.408 . S
C1345 C1344 1.404 . S
C1345 H1357 0.930 . S
C1346 C1342 1.524 1_556 S
C1346 H1358 0.956 . S
C1346 H1359 0.961 . S
C1346 H1360 0.961 . S
C1347 C1344 1.539 . S
C1347 H1361 0.958 . S
C1347 H1362 0.961 . S
C1347 H1363 0.960 . S
H1348 C1332 0.931 . S
H1349 C1337 0.929 1_556 S
H1350 C1338 0.960 . S
H1351 C1338 0.962 . S
H1352 C1338 0.960 . S
H1353 C1339 0.961 1_556 S
H1354 C1339 0.961 . S
H1355 C1339 0.961 . S
H1356 C1340 0.931 . S
H1357 C1345 0.930 . S
H1358 C1346 0.956 . S
H1359 C1346 0.961 . S
H1360 C1346 0.961 . S
H1361 C1347 0.958 . S
H1362 C1347 0.961 . S
H1363 C1347 0.960 . S
C1364 C1365 1.391 . S
C1364 C1366 1.394 . S
C1364 H1380 0.931 . S
C1365 C1364 1.391 . S
C1365 C1369 1.376 . S
C1366 C1364 1.394 . S
C1366 C1367 1.369 . S
C1366 C1370 1.531 . S
C1367 C1366 1.369 . S
C1367 C1368 1.410 . S
C1367 C1375 1.503 . S
C1368 C1367 1.410 . S
C1368 C1369 1.392 . S
C1368 C1371 1.511 . S
C1369 C1365 1.376 . S
C1369 C1368 1.392 . S
C1369 H1381 0.929 . S
C1370 C1366 1.531 . S
C1370 H1382 0.960 . S
C1370 H1383 0.962 . S
C1370 H1384 0.960 . S
C1371 C1368 1.511 . S
C1371 H1385 0.961 . S
C1371 H1386 0.961 . S
C1371 H1387 0.961 . S
C1372 C1373 1.370 . S
C1372 C1374 1.363 . S
C1372 H1388 0.931 . S
C1373 C1372 1.370 . S
C1373 C1377 1.408 . S
C1374 C1372 1.363 . S
C1374 C1375 1.370 . S
C1374 C1378 1.524 . S
C1375 C1367 1.503 . S
C1375 C1374 1.370 . S
C1375 C1376 1.403 . S
C1376 C1375 1.403 . S
C1376 C1377 1.404 . S
C1376 C1379 1.539 . S
C1377 C1373 1.408 . S
C1377 C1376 1.404 . S
C1377 H1389 0.930 . S
C1378 C1374 1.524 . S
C1378 H1390 0.956 . S
C1378 H1391 0.961 . S
C1378 H1392 0.961 . S
C1379 C1376 1.539 . S
C1379 H1393 0.958 . S
C1379 H1394 0.961 . S
C1379 H1395 0.960 . S
H1380 C1364 0.931 . S
H1381 C1369 0.929 . S
H1382 C1370 0.960 . S
H1383 C1370 0.962 . S
H1384 C1370 0.960 . S
H1385 C1371 0.961 . S
H1386 C1371 0.961 . S
H1387 C1371 0.961 . S
H1388 C1372 0.931 . S
H1389 C1377 0.930 . S
H1390 C1378 0.956 . S
H1391 C1378 0.961 . S
H1392 C1378 0.961 . S
H1393 C1379 0.958 . S
H1394 C1379 0.961 . S
H1395 C1379 0.960 . S
C1396 C1397 1.391 . S
C1396 C1398 1.394 . S
C1396 H1412 0.931 . S
C1397 C1396 1.391 . S
C1397 C1401 1.376 . S
C1398 C1396 1.394 . S
C1398 C1399 1.369 . S
C1398 C1402 1.531 . S
C1399 C1398 1.369 . S
C1399 C1400 1.410 . S
C1399 C1407 1.503 . S
C1400 C1399 1.410 . S
C1400 C1401 1.392 . S
C1400 C1403 1.511 . S
C1401 C1397 1.376 . S
C1401 C1400 1.392 . S
C1401 H1413 0.929 . S
C1402 C1398 1.531 . S
C1402 H1414 0.960 . S
C1402 H1415 0.962 . S
C1402 H1416 0.960 . S
C1403 C1400 1.511 . S
C1403 H1417 0.961 . S
C1403 H1418 0.961 . S
C1403 H1419 0.961 . S
C1404 C1405 1.370 . S
C1404 C1406 1.363 . S
C1404 H1420 0.931 . S
C1405 C1404 1.370 . S
C1405 C1409 1.408 . S
C1406 C1404 1.363 . S
C1406 C1407 1.370 . S
C1406 C1410 1.524 . S
C1407 C1399 1.503 . S
C1407 C1406 1.370 . S
C1407 C1408 1.403 . S
C1408 C1407 1.403 . S
C1408 C1409 1.404 . S
C1408 C1411 1.539 . S
C1409 C1405 1.408 . S
C1409 C1408 1.404 . S
C1409 H1421 0.930 . S
C1410 C1406 1.524 . S
C1410 H1422 0.956 . S
C1410 H1423 0.961 1_554 S
C1410 H1424 0.961 1_554 S
C1411 C1408 1.539 . S
C1411 H1425 0.958 . S
C1411 H1426 0.961 . S
C1411 H1427 0.960 . S
H1412 C1396 0.931 . S
H1413 C1401 0.929 . S
H1414 C1402 0.960 . S
H1415 C1402 0.962 . S
H1416 C1402 0.960 . S
H1417 C1403 0.961 . S
H1418 C1403 0.961 . S
H1419 C1403 0.961 . S
H1420 C1404 0.931 . S
H1421 C1409 0.930 . S
H1422 C1410 0.956 . S
H1423 C1410 0.961 1_556 S
H1424 C1410 0.961 1_556 S
H1425 C1411 0.958 . S
H1426 C1411 0.961 . S
H1427 C1411 0.960 . S
C1428 C1429 1.391 . S
C1428 C1430 1.394 . S
C1428 H1444 0.931 . S
C1429 C1428 1.391 . S
C1429 C1433 1.376 . S
C1430 C1428 1.394 . S
C1430 C1431 1.369 . S
C1430 C1434 1.531 . S
C1431 C1430 1.369 . S
C1431 C1432 1.410 . S
C1431 C1439 1.503 . S
C1432 C1431 1.410 . S
C1432 C1433 1.392 . S
C1432 C1435 1.511 . S
C1433 C1429 1.376 . S
C1433 C1432 1.392 . S
C1433 H1445 0.929 . S
C1434 C1430 1.531 . S
C1434 H1446 0.960 . S
C1434 H1447 0.962 . S
C1434 H1448 0.960 . S
C1435 C1432 1.511 . S
C1435 H1449 0.961 . S
C1435 H1450 0.961 . S
C1435 H1451 0.961 . S
C1436 C1437 1.370 . S
C1436 C1438 1.363 . S
C1436 H1452 0.931 . S
C1437 C1436 1.370 . S
C1437 C1441 1.408 . S
C1438 C1436 1.363 . S
C1438 C1439 1.370 . S
C1438 C1442 1.524 . S
C1439 C1431 1.503 . S
C1439 C1438 1.370 . S
C1439 C1440 1.403 . S
C1440 C1439 1.403 . S
C1440 C1441 1.404 . S
C1440 C1443 1.539 . S
C1441 C1437 1.408 . S
C1441 C1440 1.404 . S
C1441 H1453 0.930 . S
C1442 C1438 1.524 . S
C1442 H1454 0.956 . S
C1442 H1455 0.961 . S
C1442 H1456 0.961 . S
C1443 C1440 1.539 . S
C1443 H1457 0.958 . S
C1443 H1458 0.961 . S
C1443 H1459 0.960 . S
H1444 C1428 0.931 . S
H1445 C1433 0.929 . S
H1446 C1434 0.960 . S
H1447 C1434 0.962 . S
H1448 C1434 0.960 . S
H1449 C1435 0.961 . S
H1450 C1435 0.961 . S
H1451 C1435 0.961 . S
H1452 C1436 0.931 . S
H1453 C1441 0.930 . S
H1454 C1442 0.956 . S
H1455 C1442 0.961 . S
H1456 C1442 0.961 . S
H1457 C1443 0.958 . S
H1458 C1443 0.961 . S
H1459 C1443 0.960 . S
C1460 C1461 1.391 . S
C1460 C1462 1.394 . S
C1460 H1476 0.931 . S
C1461 C1460 1.391 . S
C1461 C1465 1.376 . S
C1462 C1460 1.394 . S
C1462 C1463 1.369 1_545 S
C1462 C1466 1.531 . S
C1463 C1462 1.369 1_565 S
C1463 C1464 1.410 . S
C1463 C1471 1.503 . S
C1464 C1463 1.410 . S
C1464 C1465 1.392 1_565 S
C1464 C1467 1.511 . S
C1465 C1461 1.376 . S
C1465 C1464 1.392 1_545 S
C1465 H1477 0.929 . S
C1466 C1462 1.531 . S
C1466 H1478 0.960 1_545 S
C1466 H1479 0.962 . S
C1466 H1480 0.960 . S
C1467 C1464 1.511 . S
C1467 H1481 0.961 . S
C1467 H1482 0.961 . S
C1467 H1483 0.961 . S
C1468 C1469 1.370 . S
C1468 C1470 1.363 . S
C1468 H1484 0.931 . S
C1469 C1468 1.370 . S
C1469 C1473 1.408 . S
C1470 C1468 1.363 . S
C1470 C1471 1.370 . S
C1470 C1474 1.524 . S
C1471 C1463 1.503 . S
C1471 C1470 1.370 . S
C1471 C1472 1.403 . S
C1472 C1471 1.403 . S
C1472 C1473 1.404 . S
C1472 C1475 1.539 . S
C1473 C1469 1.408 . S
C1473 C1472 1.404 . S
C1473 H1485 0.930 . S
C1474 C1470 1.524 . S
C1474 H1486 0.956 . S
C1474 H1487 0.961 . S
C1474 H1488 0.961 . S
C1475 C1472 1.539 . S
C1475 H1489 0.958 . S
C1475 H1490 0.961 . S
C1475 H1491 0.960 . S
H1476 C1460 0.931 . S
H1477 C1465 0.929 . S
H1478 C1466 0.960 1_565 S
H1479 C1466 0.962 . S
H1480 C1466 0.960 . S
H1481 C1467 0.961 . S
H1482 C1467 0.961 . S
H1483 C1467 0.961 . S
H1484 C1468 0.931 . S
H1485 C1473 0.930 . S
H1486 C1474 0.956 . S
H1487 C1474 0.961 . S
H1488 C1474 0.961 . S
H1489 C1475 0.958 . S
H1490 C1475 0.961 . S
H1491 C1475 0.960 . S
C1492 C1493 1.391 . S
C1492 C1494 1.394 . S
C1492 H1508 0.931 . S
C1493 C1492 1.391 . S
C1493 C1497 1.376 . S
C1494 C1492 1.394 . S
C1494 C1495 1.369 . S
C1494 C1498 1.531 . S
C1495 C1494 1.369 . S
C1495 C1496 1.410 . S
C1495 C1503 1.503 . S
C1496 C1495 1.410 . S
C1496 C1497 1.392 . S
C1496 C1499 1.511 . S
C1497 C1493 1.376 . S
C1497 C1496 1.392 . S
C1497 H1509 0.938 . S
C1498 C1494 1.531 . S
C1498 H1510 0.960 . S
C1498 H1511 0.962 . S
C1498 H1512 0.960 . S
C1499 C1496 1.511 . S
C1499 H1513 0.961 . S
C1499 H1514 0.961 . S
C1499 H1515 0.961 . S
C1500 C1501 1.370 . S
C1500 C1502 1.363 . S
C1500 H1516 0.931 . S
C1501 C1500 1.370 . S
C1501 C1505 1.408 . S
C1502 C1500 1.363 . S
C1502 C1503 1.370 . S
C1502 C1506 1.524 . S
C1503 C1495 1.503 . S
C1503 C1502 1.370 . S
C1503 C1504 1.403 . S
C1504 C1503 1.403 . S
C1504 C1505 1.404 . S
C1504 C1507 1.539 . S
C1505 C1501 1.408 . S
C1505 C1504 1.404 . S
C1505 H1517 0.930 . S
C1506 C1502 1.524 . S
C1506 H1518 0.956 . S
C1506 H1519 0.961 . S
C1506 H1520 0.961 . S
C1507 C1504 1.539 . S
C1507 H1521 0.958 . S
C1507 H1522 0.961 . S
C1507 H1523 0.960 . S
H1508 C1492 0.931 . S
H1509 C1497 0.938 . S
H1510 C1498 0.960 . S
H1511 C1498 0.962 . S
H1512 C1498 0.960 . S
H1513 C1499 0.961 . S
H1514 C1499 0.961 . S
H1515 C1499 0.961 . S
H1516 C1500 0.931 . S
H1517 C1505 0.930 . S
H1518 C1506 0.956 . S
H1519 C1506 0.961 . S
H1520 C1506 0.961 . S
H1521 C1507 0.958 . S
H1522 C1507 0.961 . S
H1523 C1507 0.960 . S
C1524 C1525 1.391 . S
C1524 C1526 1.394 . S
C1524 H1540 0.931 . S
C1525 C1524 1.391 . S
C1525 C1529 1.376 . S
C1526 C1524 1.394 . S
C1526 C1527 1.369 . S
C1526 C1530 1.531 . S
C1527 C1526 1.369 . S
C1527 C1528 1.410 . S
C1527 C1535 1.503 . S
C1528 C1527 1.410 . S
C1528 C1529 1.392 . S
C1528 C1531 1.511 . S
C1529 C1525 1.376 . S
C1529 C1528 1.392 . S
C1529 H1541 0.929 . S
C1530 C1526 1.531 . S
C1530 H1542 0.960 . S
C1530 H1543 0.962 . S
C1530 H1544 0.960 . S
C1531 C1528 1.511 . S
C1531 H1545 0.961 . S
C1531 H1546 0.961 . S
C1531 H1547 0.961 . S
C1532 C1533 1.370 . S
C1532 C1534 1.363 . S
C1532 H1548 0.931 . S
C1533 C1532 1.370 . S
C1533 C1537 1.408 . S
C1534 C1532 1.363 . S
C1534 C1535 1.370 . S
C1534 C1538 1.524 . S
C1535 C1527 1.503 . S
C1535 C1534 1.370 . S
C1535 C1536 1.403 . S
C1536 C1535 1.403 . S
C1536 C1537 1.404 . S
C1536 C1539 1.539 . S
C1537 C1533 1.408 . S
C1537 C1536 1.404 . S
C1537 H1549 0.930 . S
C1538 C1534 1.524 . S
C1538 H1550 0.956 . S
C1538 H1551 0.961 . S
C1538 H1552 0.961 . S
C1539 C1536 1.539 . S
C1539 H1553 0.958 . S
C1539 H1554 0.961 . S
C1539 H1555 0.960 . S
H1540 C1524 0.931 . S
H1541 C1529 0.929 . S
H1542 C1530 0.960 . S
H1543 C1530 0.962 . S
H1544 C1530 0.960 . S
H1545 C1531 0.961 . S
H1546 C1531 0.961 . S
H1547 C1531 0.961 . S
H1548 C1532 0.931 . S
H1549 C1537 0.930 . S
H1550 C1538 0.956 . S
H1551 C1538 0.961 . S
H1552 C1538 0.961 . S
H1553 C1539 0.958 . S
H1554 C1539 0.961 . S
H1555 C1539 0.960 . S
C1556 C1557 1.391 1_545 S
C1556 C1558 1.394 . S
C1556 H1572 0.931 . S
C1557 C1556 1.391 1_565 S
C1557 C1561 1.376 1_565 S
C1558 C1556 1.394 . S
C1558 C1559 1.369 . S
C1558 C1562 1.531 . S
C1559 C1558 1.369 . S
C1559 C1560 1.410 . S
C1559 C1567 1.503 . S
C1560 C1559 1.410 . S
C1560 C1561 1.392 . S
C1560 C1563 1.511 . S
C1561 C1557 1.376 1_545 S
C1561 C1560 1.392 . S
C1561 H1573 0.929 1_545 S
C1562 C1558 1.531 . S
C1562 H1574 0.960 . S
C1562 H1575 0.962 . S
C1562 H1576 0.960 . S
C1563 C1560 1.511 . S
C1563 H1577 0.961 . S
C1563 H1578 0.961 . S
C1563 H1579 0.961 . S
C1564 C1565 1.370 . S
C1564 C1566 1.363 . S
C1564 H1580 0.931 . S
C1565 C1564 1.370 . S
C1565 C1569 1.408 . S
C1566 C1564 1.363 . S
C1566 C1567 1.370 . S
C1566 C1570 1.524 . S
C1567 C1559 1.503 . S
C1567 C1566 1.370 . S
C1567 C1568 1.403 . S
C1568 C1567 1.403 . S
C1568 C1569 1.404 . S
C1568 C1571 1.539 . S
C1569 C1565 1.408 . S
C1569 C1568 1.404 . S
C1569 H1581 0.930 . S
C1570 C1566 1.524 . S
C1570 H1582 0.956 . S
C1570 H1583 0.961 . S
C1570 H1584 0.961 . S
C1571 C1568 1.539 . S
C1571 H1585 0.958 . S
C1571 H1586 0.961 . S
C1571 H1587 0.960 . S
H1572 C1556 0.931 . S
H1573 C1561 0.929 1_565 S
H1574 C1562 0.960 . S
H1575 C1562 0.962 . S
H1576 C1562 0.960 . S
H1577 C1563 0.961 . S
H1578 C1563 0.961 . S
H1579 C1563 0.961 . S
H1580 C1564 0.931 . S
H1581 C1569 0.930 . S
H1582 C1570 0.956 . S
H1583 C1570 0.961 . S
H1584 C1570 0.961 . S
H1585 C1571 0.958 . S
H1586 C1571 0.961 . S
H1587 C1571 0.960 . S
C1588 C1589 1.391 . S
C1588 C1590 1.394 . S
C1588 H1604 0.931 . S
C1589 C1588 1.391 . S
C1589 C1593 1.376 . S
C1590 C1588 1.394 . S
C1590 C1591 1.369 . S
C1590 C1594 1.531 . S
C1591 C1590 1.369 . S
C1591 C1592 1.410 . S
C1591 C1599 1.503 . S
C1592 C1591 1.410 . S
C1592 C1593 1.392 . S
C1592 C1595 1.511 . S
C1593 C1589 1.376 . S
C1593 C1592 1.392 . S
C1593 H1605 0.929 . S
C1594 C1590 1.531 . S
C1594 H1606 0.960 . S
C1594 H1607 0.962 . S
C1594 H1608 0.960 . S
C1595 C1592 1.511 . S
C1595 H1609 0.961 . S
C1595 H1610 0.961 . S
C1595 H1611 0.961 . S
C1596 C1597 1.370 1_655 S
C1596 C1598 1.363 . S
C1596 H1612 0.931 . S
C1597 C1596 1.370 1_455 S
C1597 C1601 1.408 . S
C1598 C1596 1.363 . S
C1598 C1599 1.370 . S
C1598 C1602 1.524 . S
C1599 C1591 1.503 . S
C1599 C1598 1.370 . S
C1599 C1600 1.403 1_655 S
C1600 C1599 1.403 1_455 S
C1600 C1601 1.404 . S
C1600 C1603 1.539 . S
C1601 C1597 1.408 . S
C1601 C1600 1.404 . S
C1601 H1613 0.930 . S
C1602 C1598 1.524 . S
C1602 H1614 0.956 . S
C1602 H1615 0.961 . S
C1602 H1616 0.961 . S
C1603 C1600 1.539 . S
C1603 H1617 0.958 . S
C1603 H1618 0.961 . S
C1603 H1619 0.960 . S
H1604 C1588 0.931 . S
H1605 C1593 0.929 . S
H1606 C1594 0.960 . S
H1607 C1594 0.962 . S
H1608 C1594 0.960 . S
H1609 C1595 0.961 . S
H1610 C1595 0.961 . S
H1611 C1595 0.961 . S
H1612 C1596 0.931 . S
H1613 C1601 0.930 . S
H1614 C1602 0.956 . S
H1615 C1602 0.961 . S
H1616 C1602 0.961 . S
H1617 C1603 0.958 . S
H1618 C1603 0.961 . S
H1619 C1603 0.960 . S
C757 C74 3.282 1_556 S
C765 C63 3.304 . S
C789 C158 3.372 . S
C797 C147 3.353 . S
C821 C242 3.339 . S
C829 C231 3.344 . S
C853 C315 3.266 . S
C861 C326 3.262 1_556 S
C885 C392 3.386 . S
C893 C403 3.410 1_556 S
C917 C483 3.281 . S
C925 C494 3.261 1_556 S
C949 C562 2.552 . S
C957 C574 2.576 . S
C981 C658 2.002 . S
C989 C646 2.013 1_556 S
C1013 C730 1.538 . S
C1021 C742 1.553 . S
C1045 C476 1.979 . S
C1053 C58 1.634 . S
C1077 C142 1.544 . S
C1085 C308 1.813 . S
C1109 C226 1.229 . S
C1117 C406 1.285 . S
C1141 C224 2.023 . S
C1149 C571 2.295 . S
C1173 C651 1.811 . S
C1181 C56 1.604 . S
C1205 C739 1.856 . S
C1213 C140 1.674 . S
C1237 C746 0.976 . S
C1245 C70 0.952 . S
C1269 C154 1.390 . S
C1277 C578 1.418 . S
C1301 C644 1.553 . S
C1309 C238 1.568 . S
C1333 C235 1.825 . S
C1341 C322 1.557 1_545 S
C1365 C399 2.523 . S
C1373 C67 2.458 . S
C1397 C151 1.994 . S
C1405 C490 1.746 . S
C1429 C735 1.589 . S
C1437 C310 1.579 . S
C1461 C567 1.814 . S
C1469 C410 1.708 . S
C1493 C655 1.753 1_455 S
C1501 C478 1.813 . S
C1525 C560 2.050 . S
C1533 C487 2.014 . S
C1557 C319 1.324 . S
C1565 C662 1.422 . S
C1589 C728 1.378 . S
C1597 C394 1.372 . S
