# Generated by pormake.
# Topology uka, (4)-cn, num edge types: 1
# Building blocks:
#     Node 0, Type 0, BuildingBlock: CEKHIL_clean_sbu_0, # of connection points: 4
#     Node 1, Type 0, BuildingBlock: CEKHIL_clean_sbu_0, # of connection points: 4
#     Node 2, Type 0, BuildingBlock: CEKHIL_clean_sbu_0, # of connection points: 4
#     Node 3, Type 0, BuildingBlock: CEKHIL_clean_sbu_0, # of connection points: 4
#     Node 4, Type 0, BuildingBlock: CEKHIL_clean_sbu_0, # of connection points: 4
#     Node 5, Type 0, BuildingBlock: CEKHIL_clean_sbu_0, # of connection points: 4
#     Node 6, Type 0, BuildingBlock: CEKHIL_clean_sbu_0, # of connection points: 4
#     Node 7, Type 0, BuildingBlock: CEKHIL_clean_sbu_0, # of connection points: 4
#     Node 8, Type 0, BuildingBlock: CEKHIL_clean_sbu_0, # of connection points: 4
#     Node 9, Type 0, BuildingBlock: CEKHIL_clean_sbu_0, # of connection points: 4
#     Node 10, Type 0, BuildingBlock: CEKHIL_clean_sbu_0, # of connection points: 4
#     Node 11, Type 0, BuildingBlock: CEKHIL_clean_sbu_0, # of connection points: 4
#     Node 12, Type 0, BuildingBlock: CEKHIL_clean_sbu_0, # of connection points: 4
#     Node 13, Type 0, BuildingBlock: CEKHIL_clean_sbu_0, # of connection points: 4
#     Node 14, Type 0, BuildingBlock: CEKHIL_clean_sbu_0, # of connection points: 4
#     Node 15, Type 0, BuildingBlock: CEKHIL_clean_sbu_0, # of connection points: 4
#     Node 16, Type 0, BuildingBlock: CEKHIL_clean_sbu_0, # of connection points: 4
#     Node 17, Type 0, BuildingBlock: CEKHIL_clean_sbu_0, # of connection points: 4
#     Node 18, Type 0, BuildingBlock: CEKHIL_clean_sbu_0, # of connection points: 4
#     Node 19, Type 0, BuildingBlock: CEKHIL_clean_sbu_0, # of connection points: 4
#     Node 20, Type 0, BuildingBlock: CEKHIL_clean_sbu_0, # of connection points: 4
#     Node 21, Type 0, BuildingBlock: CEKHIL_clean_sbu_0, # of connection points: 4
#     Node 22, Type 0, BuildingBlock: CEKHIL_clean_sbu_0, # of connection points: 4
#     Node 23, Type 0, BuildingBlock: CEKHIL_clean_sbu_0, # of connection points: 4
#     Node 24, Type 0, BuildingBlock: CEKHIL_clean_sbu_0, # of connection points: 4
#     Node 25, Type 0, BuildingBlock: CEKHIL_clean_sbu_0, # of connection points: 4
#     Node 26, Type 0, BuildingBlock: CEKHIL_clean_sbu_0, # of connection points: 4
#     Node 27, Type 0, BuildingBlock: CEKHIL_clean_sbu_0, # of connection points: 4
#     Node 28, Type 0, BuildingBlock: CEKHIL_clean_sbu_0, # of connection points: 4
#     Node 29, Type 0, BuildingBlock: CEKHIL_clean_sbu_0, # of connection points: 4
#     Node 30, Type 0, BuildingBlock: CEKHIL_clean_sbu_0, # of connection points: 4
#     Node 31, Type 0, BuildingBlock: CEKHIL_clean_sbu_0, # of connection points: 4
#     Edge 32, Type (0, 0), BuildingBlock: CIFDUS_clean_linker_0, # of connection points: 2
#     Edge 33, Type (0, 0), BuildingBlock: CIFDUS_clean_linker_0, # of connection points: 2
#     Edge 34, Type (0, 0), BuildingBlock: CIFDUS_clean_linker_0, # of connection points: 2
#     Edge 35, Type (0, 0), BuildingBlock: CIFDUS_clean_linker_0, # of connection points: 2
#     Edge 36, Type (0, 0), BuildingBlock: CIFDUS_clean_linker_0, # of connection points: 2
#     Edge 37, Type (0, 0), BuildingBlock: CIFDUS_clean_linker_0, # of connection points: 2
#     Edge 38, Type (0, 0), BuildingBlock: CIFDUS_clean_linker_0, # of connection points: 2
#     Edge 39, Type (0, 0), BuildingBlock: CIFDUS_clean_linker_0, # of connection points: 2
#     Edge 40, Type (0, 0), BuildingBlock: CIFDUS_clean_linker_0, # of connection points: 2
#     Edge 41, Type (0, 0), BuildingBlock: CIFDUS_clean_linker_0, # of connection points: 2
#     Edge 42, Type (0, 0), BuildingBlock: CIFDUS_clean_linker_0, # of connection points: 2
#     Edge 43, Type (0, 0), BuildingBlock: CIFDUS_clean_linker_0, # of connection points: 2
#     Edge 44, Type (0, 0), BuildingBlock: CIFDUS_clean_linker_0, # of connection points: 2
#     Edge 45, Type (0, 0), BuildingBlock: CIFDUS_clean_linker_0, # of connection points: 2
#     Edge 46, Type (0, 0), BuildingBlock: CIFDUS_clean_linker_0, # of connection points: 2
#     Edge 47, Type (0, 0), BuildingBlock: CIFDUS_clean_linker_0, # of connection points: 2
#     Edge 48, Type (0, 0), BuildingBlock: CIFDUS_clean_linker_0, # of connection points: 2
#     Edge 49, Type (0, 0), BuildingBlock: CIFDUS_clean_linker_0, # of connection points: 2
#     Edge 50, Type (0, 0), BuildingBlock: CIFDUS_clean_linker_0, # of connection points: 2
#     Edge 51, Type (0, 0), BuildingBlock: CIFDUS_clean_linker_0, # of connection points: 2
#     Edge 52, Type (0, 0), BuildingBlock: CIFDUS_clean_linker_0, # of connection points: 2
#     Edge 53, Type (0, 0), BuildingBlock: CIFDUS_clean_linker_0, # of connection points: 2
#     Edge 54, Type (0, 0), BuildingBlock: CIFDUS_clean_linker_0, # of connection points: 2
#     Edge 55, Type (0, 0), BuildingBlock: CIFDUS_clean_linker_0, # of connection points: 2
#     Edge 56, Type (0, 0), BuildingBlock: CIFDUS_clean_linker_0, # of connection points: 2
#     Edge 57, Type (0, 0), BuildingBlock: CIFDUS_clean_linker_0, # of connection points: 2
#     Edge 58, Type (0, 0), BuildingBlock: CIFDUS_clean_linker_0, # of connection points: 2
#     Edge 59, Type (0, 0), BuildingBlock: CIFDUS_clean_linker_0, # of connection points: 2
#     Edge 60, Type (0, 0), BuildingBlock: CIFDUS_clean_linker_0, # of connection points: 2
#     Edge 61, Type (0, 0), BuildingBlock: CIFDUS_clean_linker_0, # of connection points: 2
#     Edge 62, Type (0, 0), BuildingBlock: CIFDUS_clean_linker_0, # of connection points: 2
#     Edge 63, Type (0, 0), BuildingBlock: CIFDUS_clean_linker_0, # of connection points: 2
#     Edge 64, Type (0, 0), BuildingBlock: CIFDUS_clean_linker_0, # of connection points: 2
#     Edge 65, Type (0, 0), BuildingBlock: CIFDUS_clean_linker_0, # of connection points: 2
#     Edge 66, Type (0, 0), BuildingBlock: CIFDUS_clean_linker_0, # of connection points: 2
#     Edge 67, Type (0, 0), BuildingBlock: CIFDUS_clean_linker_0, # of connection points: 2
#     Edge 68, Type (0, 0), BuildingBlock: CIFDUS_clean_linker_0, # of connection points: 2
#     Edge 69, Type (0, 0), BuildingBlock: CIFDUS_clean_linker_0, # of connection points: 2
#     Edge 70, Type (0, 0), BuildingBlock: CIFDUS_clean_linker_0, # of connection points: 2
#     Edge 71, Type (0, 0), BuildingBlock: CIFDUS_clean_linker_0, # of connection points: 2
#     Edge 72, Type (0, 0), BuildingBlock: CIFDUS_clean_linker_0, # of connection points: 2
#     Edge 73, Type (0, 0), BuildingBlock: CIFDUS_clean_linker_0, # of connection points: 2
#     Edge 74, Type (0, 0), BuildingBlock: CIFDUS_clean_linker_0, # of connection points: 2
#     Edge 75, Type (0, 0), BuildingBlock: CIFDUS_clean_linker_0, # of connection points: 2
#     Edge 76, Type (0, 0), BuildingBlock: CIFDUS_clean_linker_0, # of connection points: 2
#     Edge 77, Type (0, 0), BuildingBlock: CIFDUS_clean_linker_0, # of connection points: 2
#     Edge 78, Type (0, 0), BuildingBlock: CIFDUS_clean_linker_0, # of connection points: 2
#     Edge 79, Type (0, 0), BuildingBlock: CIFDUS_clean_linker_0, # of connection points: 2
#     Edge 80, Type (0, 0), BuildingBlock: CIFDUS_clean_linker_0, # of connection points: 2
#     Edge 81, Type (0, 0), BuildingBlock: CIFDUS_clean_linker_0, # of connection points: 2
#     Edge 82, Type (0, 0), BuildingBlock: CIFDUS_clean_linker_0, # of connection points: 2
#     Edge 83, Type (0, 0), BuildingBlock: CIFDUS_clean_linker_0, # of connection points: 2
#     Edge 84, Type (0, 0), BuildingBlock: CIFDUS_clean_linker_0, # of connection points: 2
#     Edge 85, Type (0, 0), BuildingBlock: CIFDUS_clean_linker_0, # of connection points: 2
#     Edge 86, Type (0, 0), BuildingBlock: CIFDUS_clean_linker_0, # of connection points: 2
#     Edge 87, Type (0, 0), BuildingBlock: CIFDUS_clean_linker_0, # of connection points: 2
#     Edge 88, Type (0, 0), BuildingBlock: CIFDUS_clean_linker_0, # of connection points: 2
#     Edge 89, Type (0, 0), BuildingBlock: CIFDUS_clean_linker_0, # of connection points: 2
#     Edge 90, Type (0, 0), BuildingBlock: CIFDUS_clean_linker_0, # of connection points: 2
#     Edge 91, Type (0, 0), BuildingBlock: CIFDUS_clean_linker_0, # of connection points: 2
#     Edge 92, Type (0, 0), BuildingBlock: CIFDUS_clean_linker_0, # of connection points: 2
#     Edge 93, Type (0, 0), BuildingBlock: CIFDUS_clean_linker_0, # of connection points: 2
#     Edge 94, Type (0, 0), BuildingBlock: CIFDUS_clean_linker_0, # of connection points: 2
#     Edge 95, Type (0, 0), BuildingBlock: CIFDUS_clean_linker_0, # of connection points: 2
# Relax obj value: 0.116
# Max RMSD: 0.170
# Mean RMSD: 0.170
data_MOF--net-uka--node1-CEKHIL_clean_sbu_0--edge1-CIFDUS_clean_linker_0
_symmetry_space_group_name_H-M    P1
_symmetry_Int_Tables_number       1
_symmetry_cell_setting            triclinic
loop_
_symmetry_equiv_pos_as_xyz
'x, y, z'
_cell_length_a     51.80035
_cell_length_b     51.84511
_cell_length_c     36.387476
_cell_angle_alpha  90.013386
_cell_angle_beta   89.958464
_cell_angle_gamma 90.004153
loop_
_atom_site_label
_atom_site_type_symbol
_atom_site_fract_x
_atom_site_fract_y
_atom_site_fract_z
_atom_type_partial_charge
Co0 Co 0.13315 0.27175 0.27145 0.0
O1 O 0.1623 0.25428 0.25052 0.0
O2 O 0.16438 0.29029 0.2833 0.0
C3 C 0.11417 0.2367 0.29603 0.0
O4 O 0.10756 0.29411 0.29943 0.0
Co5 Co 0.07727 0.25894 0.24457 0.0
O6 O 0.06691 0.28197 0.28541 0.0
C7 C 0.11178 0.29039 0.19868 0.0
C8 C 0.17641 0.27179 0.26625 0.0
C9 C 0.08294 0.2955 0.30367 0.0
O10 O 0.12805 0.29287 0.22515 0.0
O11 O 0.09219 0.27542 0.19981 0.0
O12 O 0.13339 0.24776 0.31264 0.0
O13 O 0.10921 0.24521 0.26347 0.0
Co14 Co 0.97974 0.88241 0.51234 0.0
O15 O 0.99567 0.90901 0.48322 0.0
O16 O 0.95936 0.91323 0.51503 0.0
C17 C 0.01622 0.86996 0.54117 0.0
O18 O 0.95803 0.86085 0.54733 0.0
Co19 Co 0.99408 0.82446 0.50783 0.0
O20 O 0.97827 0.82323 0.55737 0.0
C21 C 0.95691 0.84693 0.45456 0.0
C22 C 0.97722 0.92387 0.49507 0.0
C23 C 0.96137 0.84001 0.56578 0.0
O24 O 0.95915 0.86948 0.46898 0.0
O25 O 0.96947 0.82709 0.4655 0.0
O26 O 0.0036 0.89016 0.55214 0.0
O27 O 0.00765 0.85914 0.51155 0.0
Co28 Co 0.36522 0.74367 0.76198 0.0
O29 O 0.33723 0.76061 0.73652 0.0
O30 O 0.33378 0.72495 0.76975 0.0
C31 C 0.3819 0.77945 0.78832 0.0
O32 O 0.38803 0.72124 0.79395 0.0
Co33 Co 0.42339 0.75524 0.74817 0.0
O34 O 0.42848 0.7369 0.79546 0.0
C35 C 0.39533 0.71876 0.69965 0.0
C36 C 0.32249 0.74302 0.75102 0.0
C37 C 0.41096 0.7218 0.80718 0.0
O38 O 0.37419 0.72153 0.71791 0.0
O39 O 0.41612 0.73121 0.70637 0.0
O40 O 0.36167 0.76831 0.80212 0.0
O41 O 0.38983 0.77024 0.75729 0.0
Co42 Co 0.49459 0.1135 0.00789 0.0
O43 O 0.48454 0.08575 0.97575 0.0
O44 O 0.51975 0.08639 0.01035 0.0
C45 C 0.45562 0.11851 0.03499 0.0
O46 O 0.51064 0.1368 0.0466 0.0
Co47 Co 0.47014 0.16811 0.00651 0.0
O48 O 0.48477 0.17081 0.05672 0.0
C49 C 0.51277 0.15525 0.95492 0.0
C50 C 0.50439 0.07351 0.98893 0.0
C51 C 0.5036 0.15641 0.06579 0.0
O52 O 0.51451 0.13207 0.96765 0.0
O53 O 0.4957 0.17146 0.96566 0.0
O54 O 0.47098 0.10004 0.04494 0.0
O55 O 0.4631 0.13151 0.00659 0.0
Co56 Co 0.13442 0.73976 0.22975 0.0
O57 O 0.15947 0.75716 0.25997 0.0
O58 O 0.16783 0.72432 0.22282 0.0
C59 C 0.11642 0.77584 0.20651 0.0
O60 O 0.11464 0.71786 0.1928 0.0
Co61 Co 0.07502 0.74676 0.2385 0.0
O62 O 0.07455 0.73397 0.18721 0.0
C63 C 0.10343 0.70997 0.28634 0.0
C64 C 0.17647 0.74217 0.24467 0.0
C65 C 0.09299 0.71989 0.1758 0.0
O66 O 0.12522 0.71494 0.27071 0.0
O67 O 0.08216 0.72117 0.2783 0.0
O68 O 0.13782 0.76691 0.19302 0.0
O69 O 0.10791 0.76412 0.23539 0.0
Co70 Co 0.5131 0.87412 0.48082 0.0
O71 O 0.50168 0.90153 0.51277 0.0
O72 O 0.5353 0.90355 0.47517 0.0
C73 C 0.47364 0.86437 0.45815 0.0
O74 O 0.53012 0.85164 0.44203 0.0
Co75 Co 0.49445 0.81724 0.48521 0.0
O76 O 0.50647 0.8159 0.43344 0.0
C77 C 0.53752 0.83553 0.53295 0.0
C78 C 0.51998 0.91524 0.49799 0.0
C79 C 0.52394 0.8316 0.42327 0.0
O80 O 0.53619 0.85869 0.52006 0.0
O81 O 0.5222 0.81733 0.52341 0.0
O82 O 0.48652 0.88389 0.44534 0.0
O83 O 0.48394 0.85295 0.48602 0.0
Co84 Co 0.37371 0.2536 0.72943 0.0
O85 O 0.34592 0.2398 0.75865 0.0
O86 O 0.34397 0.27554 0.72535 0.0
C87 C 0.38452 0.21616 0.70157 0.0
O88 O 0.39692 0.27306 0.69367 0.0
Co89 Co 0.43065 0.23579 0.73687 0.0
O90 O 0.43382 0.25076 0.68702 0.0
C91 C 0.40985 0.27519 0.78796 0.0
C92 C 0.33212 0.25864 0.74562 0.0
C93 C 0.41799 0.26796 0.67644 0.0
O94 O 0.38753 0.27443 0.77235 0.0
O95 O 0.42883 0.26081 0.77859 0.0
O96 O 0.36488 0.22953 0.69035 0.0
O97 O 0.39529 0.22438 0.73145 0.0
Co98 Co 0.98327 0.12585 0.98507 0.0
O99 O 0.00048 0.09904 0.01228 0.0
O100 O 0.9627 0.09508 0.98414 0.0
C101 C 0.01842 0.1383 0.95296 0.0
O102 O 0.96017 0.14765 0.95261 0.0
Co103 Co 0.99877 0.18376 0.98922 0.0
O104 O 0.97851 0.18639 0.94309 0.0
C105 C 0.96723 0.16012 0.04849 0.0
C106 C 0.9815 0.08429 0.00206 0.0
C107 C 0.9617 0.16927 0.93564 0.0
O108 O 0.96479 0.1389 0.03041 0.0
O109 O 0.98152 0.17891 0.03802 0.0
O110 O 0.00527 0.1182 0.94289 0.0
O111 O 0.01122 0.1489 0.9834 0.0
Co112 Co 0.87141 0.74172 0.75824 0.0
O113 O 0.84624 0.7585 0.78923 0.0
O114 O 0.83869 0.72473 0.75346 0.0
C115 C 0.88755 0.77813 0.73306 0.0
O116 O 0.89091 0.71996 0.72091 0.0
Co117 Co 0.93068 0.75081 0.76307 0.0
O118 O 0.93053 0.73656 0.71254 0.0
C119 C 0.90511 0.71246 0.8119 0.0
C120 C 0.82966 0.74245 0.77519 0.0
C121 C 0.91215 0.72178 0.70289 0.0
O122 O 0.88254 0.7176 0.79894 0.0
O123 O 0.92583 0.72394 0.80188 0.0
O124 O 0.8661 0.76828 0.72112 0.0
O125 O 0.89721 0.76714 0.76178 0.0
Co126 Co 0.01303 0.11549 0.48827 0.0
O127 O 0.99762 0.08647 0.51267 0.0
O128 O 0.03112 0.08453 0.47471 0.0
C129 C 0.97559 0.13331 0.46904 0.0
O130 O 0.03348 0.14027 0.45665 0.0
Co131 Co 0.00192 0.17249 0.51062 0.0
O132 O 0.01763 0.18047 0.46214 0.0
C133 C 0.04002 0.14124 0.55232 0.0
C134 C 0.0142 0.07247 0.49473 0.0
C135 C 0.03215 0.16394 0.44659 0.0
O136 O 0.03765 0.12194 0.53032 0.0
O137 O 0.02645 0.16183 0.55036 0.0
O138 O 0.98586 0.11424 0.45112 0.0
O139 O 0.98691 0.13937 0.49942 0.0
Co140 Co 0.62589 0.24361 0.23222 0.0
O141 O 0.65025 0.22494 0.26234 0.0
O142 O 0.65956 0.25877 0.22756 0.0
C143 C 0.60778 0.20872 0.20545 0.0
O144 O 0.60738 0.2669 0.19569 0.0
Co145 Co 0.56632 0.23771 0.23922 0.0
O146 O 0.56602 0.25421 0.19024 0.0
C147 C 0.59438 0.27341 0.28889 0.0
C148 C 0.66766 0.2402 0.24855 0.0
C149 C 0.58536 0.26728 0.17947 0.0
O150 O 0.61631 0.26759 0.27425 0.0
O151 O 0.57293 0.2631 0.27948 0.0
O152 O 0.62976 0.21763 0.19403 0.0
O153 O 0.59872 0.21945 0.23486 0.0
Co154 Co 0.49947 0.88319 0.97151 0.0
O155 O 0.50878 0.91017 0.00501 0.0
O156 O 0.47195 0.90812 0.9742 0.0
C157 C 0.53727 0.88372 0.94047 0.0
O158 O 0.48368 0.8597 0.93286 0.0
Co159 Co 0.53043 0.83197 0.96458 0.0
O160 O 0.51216 0.82898 0.91684 0.0
C161 C 0.48957 0.83784 0.02219 0.0
C162 C 0.48755 0.92142 0.99483 0.0
C163 C 0.49122 0.84133 0.91167 0.0
O164 O 0.48391 0.86099 0.01183 0.0
O165 O 0.50815 0.82475 0.00827 0.0
O166 O 0.51935 0.90037 0.93306 0.0
O167 O 0.53272 0.8689 0.96818 0.0
Co168 Co 0.86134 0.25708 0.74612 0.0
O169 O 0.83515 0.2406 0.71673 0.0
O170 O 0.82889 0.27428 0.75317 0.0
C171 C 0.87783 0.22058 0.77058 0.0
O172 O 0.88218 0.27844 0.78236 0.0
Co173 Co 0.92032 0.24692 0.73749 0.0
O174 O 0.92171 0.26105 0.78806 0.0
C175 C 0.89404 0.28613 0.69075 0.0
C176 C 0.81907 0.25648 0.73228 0.0
C177 C 0.90388 0.27606 0.79906 0.0
O178 O 0.87171 0.28128 0.70489 0.0
O179 O 0.91474 0.27405 0.69935 0.0
O180 O 0.85676 0.23061 0.78353 0.0
O181 O 0.88665 0.23128 0.74109 0.0
Co182 Co 0.49745 0.10924 0.51229 0.0
O183 O 0.51266 0.0799 0.48798 0.0
O184 O 0.47646 0.07918 0.52049 0.0
C185 C 0.53403 0.12384 0.53881 0.0
O186 O 0.47667 0.13421 0.54363 0.0
Co187 Co 0.51345 0.16608 0.4969 0.0
O188 O 0.4985 0.17161 0.54654 0.0
C189 C 0.47766 0.13922 0.44624 0.0
C190 C 0.49397 0.06652 0.50235 0.0
C191 C 0.4815 0.15609 0.55872 0.0
O192 O 0.47704 0.11898 0.46681 0.0
O193 O 0.49183 0.15894 0.45252 0.0
O194 O 0.52138 0.1047 0.55318 0.0
O195 O 0.52571 0.13159 0.50724 0.0
Co196 Co 0.6367 0.73127 0.2665 0.0
O197 O 0.66417 0.74336 0.23532 0.0
O198 O 0.66665 0.70984 0.27296 0.0
C199 C 0.62541 0.77023 0.28942 0.0
O200 O 0.61373 0.71381 0.30458 0.0
Co201 Co 0.57951 0.74804 0.25741 0.0
O202 O 0.57669 0.73616 0.30896 0.0
C203 C 0.60069 0.706 0.21117 0.0
C204 C 0.67812 0.72526 0.25004 0.0
C205 C 0.59266 0.71969 0.32131 0.0
O206 O 0.62303 0.70784 0.22646 0.0
O207 O 0.58154 0.72062 0.21892 0.0
O208 O 0.64525 0.7579 0.30233 0.0
O209 O 0.6148 0.75995 0.26079 0.0
Co210 Co 0.01301 0.89258 0.01332 0.0
O211 O 0.99411 0.92116 0.99385 0.0
O212 O 0.0353 0.92238 0.01021 0.0
C213 C 0.98344 0.88052 0.05533 0.0
O214 O 0.03808 0.86727 0.03651 0.0
Co215 Co 0.99069 0.83688 0.00632 0.0
O216 O 0.01575 0.83063 0.04666 0.0
C217 C 0.01629 0.8613 0.94271 0.0
C218 C 0.01486 0.93468 -0.00097 0.0
C219 C 0.03529 0.84513 0.0519 0.0
O220 O 0.0234 0.88063 0.96248 0.0
O221 O 0.00141 0.84332 0.95423 0.0
O222 O 0.99903 0.89952 0.06204 0.0
O223 O 0.98403 0.87178 0.02208 0.0
Co224 Co 0.6354 0.76095 0.76386 0.0
O225 O 0.66181 0.73755 0.74797 0.0
O226 O 0.66795 0.77898 0.76046 0.0
C227 C 0.61852 0.7358 0.8081 0.0
O228 O 0.61302 0.79023 0.78245 0.0
Co229 Co 0.57769 0.74508 0.7543 0.0
O230 O 0.57118 0.77818 0.78006 0.0
C231 C 0.60724 0.76336 0.69053 0.0
C232 C 0.67771 0.75671 0.75151 0.0
C233 C 0.58886 0.79439 0.78792 0.0
O234 O 0.62621 0.76999 0.71133 0.0
O235 O 0.58769 0.75052 0.7018 0.0
O236 O 0.63914 0.74926 0.81438 0.0
O237 O 0.61077 0.73534 0.77436 0.0
Co238 Co 0.4881 0.37979 0.01655 0.0
O239 O 0.50226 0.40887 0.99083 0.0
O240 O 0.46424 0.40837 0.01872 0.0
C241 C 0.52402 0.37039 0.04898 0.0
O242 O 0.46797 0.35416 0.04802 0.0
Co243 Co 0.51099 0.3246 0.00724 0.0
O244 O 0.49292 0.31892 0.05466 0.0
C245 C 0.47803 0.34686 0.94911 0.0
C246 C 0.48185 0.42142 0.00128 0.0
C247 C 0.47394 0.33297 0.06438 0.0
O248 O 0.47186 0.3661 0.96976 0.0
O249 O 0.49477 0.3298 0.95791 0.0
O250 O 0.50867 0.38872 0.05963 0.0
O251 O 0.51859 0.36038 0.0174 0.0
Co252 Co 0.85696 0.23443 0.27033 0.0
O253 O 0.8328 0.24809 0.23553 0.0
O254 O 0.83057 0.20906 0.26015 0.0
C255 C 0.85642 0.26939 0.30733 0.0
O256 O 0.87766 0.2142 0.30808 0.0
Co257 Co 0.90898 0.26229 0.28753 0.0
O258 O 0.90848 0.23987 0.33167 0.0
C259 C 0.90447 0.22688 0.22287 0.0
C260 C 0.81987 0.22692 0.24016 0.0
C261 C 0.89535 0.2191 0.33188 0.0
O262 O 0.88068 0.22128 0.22998 0.0
O263 O 0.91746 0.24361 0.24104 0.0
O264 O 0.83865 0.25192 0.31024 0.0
O265 O 0.87249 0.26625 0.28068 0.0
Co266 Co 0.01069 0.63043 0.51495 0.0
O267 O 0.99537 0.60531 0.48247 0.0
O268 O 0.02783 0.59795 0.52083 0.0
C269 C 0.97323 0.64653 0.53705 0.0
O270 O 0.03064 0.64963 0.55442 0.0
Co271 Co 0.00227 0.68959 0.51006 0.0
O272 O 0.01293 0.68872 0.56235 0.0
C273 C 0.0426 0.66431 0.46437 0.0
C274 C 0.01124 0.58893 0.49741 0.0
C275 C 0.02717 0.67027 0.57322 0.0
O276 O 0.03658 0.64174 0.47647 0.0
O277 O 0.03097 0.68507 0.47381 0.0
O278 O 0.98249 0.62498 0.54959 0.0
O279 O 0.98551 0.65627 0.50941 0.0
Co280 Co 0.62842 0.2396 0.74361 0.0
O281 O 0.65405 0.25922 0.76951 0.0
O282 O 0.65828 0.21833 0.75263 0.0
C283 C 0.62068 0.26938 0.6999 0.0
O284 O 0.607 0.21369 0.71499 0.0
Co285 Co 0.57195 0.2596 0.7359 0.0
O286 O 0.57105 0.23388 0.69541 0.0
C287 C 0.58899 0.23458 0.80503 0.0
C288 C 0.66872 0.23906 0.76627 0.0
C289 C 0.58676 0.21499 0.69469 0.0
O290 O 0.61106 0.22862 0.791 0.0
O291 O 0.57211 0.24851 0.78868 0.0
O292 O 0.64035 0.25406 0.69723 0.0
O293 O 0.60799 0.26807 0.73041 0.0
Co294 Co 0.01073 0.36363 0.9798 0.0
O295 O 0.99751 0.38734 0.01625 0.0
O296 O 0.02693 0.39646 0.9739 0.0
C297 C 0.97214 0.3477 0.96186 0.0
O298 O 0.02832 0.34644 0.93643 0.0
Co299 Co 0.00344 0.30429 0.97971 0.0
O300 O 0.01143 0.30727 0.92656 0.0
C301 C 0.04599 0.32833 0.02297 0.0
C302 C 0.01202 0.40448 0.00019 0.0
C303 C 0.02474 0.32653 0.91615 0.0
O304 O 0.03916 0.3513 0.01359 0.0
O305 O 0.03388 0.30792 0.01316 0.0
O306 O 0.98022 0.36984 0.94973 0.0
O307 O 0.98643 0.33711 0.98669 0.0
Co308 Co 0.87217 0.75192 0.22569 0.0
O309 O 0.84321 0.73459 0.24817 0.0
O310 O 0.84079 0.76944 0.21302 0.0
C311 C 0.89215 0.71652 0.20372 0.0
O312 O 0.89634 0.77434 0.19556 0.0
Co313 Co 0.92923 0.74322 0.24959 0.0
O314 O 0.93807 0.76562 0.20733 0.0
C315 C 0.89447 0.77452 0.2956 0.0
C316 C 0.82893 0.75172 0.23175 0.0
C317 C 0.92057 0.77749 0.18955 0.0
O318 O 0.87689 0.77455 0.27061 0.0
O319 O 0.91529 0.76137 0.29367 0.0
O320 O 0.87256 0.72634 0.18635 0.0
O321 O 0.89724 0.7267 0.23527 0.0
Co322 Co 0.47992 0.61683 0.47685 0.0
O323 O 0.49155 0.5897 0.5088 0.0
O324 O 0.45818 0.58689 0.47097 0.0
C325 C 0.51945 0.62642 0.45416 0.0
O326 O 0.46314 0.63964 0.43801 0.0
Co327 Co 0.49878 0.67364 0.48405 0.0
O328 O 0.48668 0.6759 0.43255 0.0
C329 C 0.45501 0.65489 0.52964 0.0
C330 C 0.4739 0.57547 0.49355 0.0
C331 C 0.4695 0.6604 0.42091 0.0
O332 O 0.45643 0.63197 0.51598 0.0
O333 O 0.47041 0.67329 0.5213 0.0
O334 O 0.50647 0.60695 0.44156 0.0
O335 O 0.50926 0.63795 0.48214 0.0
Co336 Co 0.36516 0.2342 0.23832 0.0
O337 O 0.34058 0.25101 0.27025 0.0
O338 O 0.33366 0.21486 0.23922 0.0
C339 C 0.37762 0.26998 0.20752 0.0
O340 O 0.38378 0.21188 0.20085 0.0
Co341 Co 0.42374 0.24612 0.23625 0.0
O342 O 0.421 0.23145 0.1861 0.0
C343 C 0.4031 0.20987 0.29204 0.0
C344 C 0.3246 0.23298 0.26021 0.0
C345 C 0.40309 0.21537 0.17934 0.0
O346 O 0.37985 0.21307 0.28028 0.0
O347 O 0.42273 0.2216 0.27872 0.0
O348 O 0.35619 0.25835 0.19925 0.0
O349 O 0.38948 0.26114 0.23616 0.0
Co350 Co 0.50461 0.61619 0.98899 0.0
O351 O 0.4881 0.5866 0.011 0.0
O352 O 0.52416 0.58565 0.97816 0.0
C353 C 0.46929 0.63411 0.96371 0.0
O354 O 0.52632 0.64146 0.95949 0.0
Co355 Co 0.49168 0.67255 0.01232 0.0
O356 O 0.51313 0.68227 0.96935 0.0
C357 C 0.52332 0.6398 0.06042 0.0
C358 C 0.50635 0.57307 0.99578 0.0
C359 C 0.52691 0.66575 0.95238 0.0
O360 O 0.52563 0.62267 0.03502 0.0
O361 O 0.5086 0.65951 0.05796 0.0
O362 O 0.48057 0.61462 0.94802 0.0
O363 O 0.47765 0.63984 0.99614 0.0
Co364 Co 0.13195 0.76897 0.73453 0.0
O365 O 0.15924 0.75879 0.76709 0.0
O366 O 0.16083 0.79218 0.72917 0.0
C367 C 0.12453 0.72905 0.71168 0.0
O368 O 0.10868 0.78445 0.69506 0.0
Co369 Co 0.07614 0.74728 0.74052 0.0
O370 O 0.07371 0.75913 0.68894 0.0
C371 C 0.0923 0.79142 0.7873 0.0
C372 C 0.17276 0.77707 0.75206 0.0
C373 C 0.0885 0.77697 0.6774 0.0
O374 O 0.11525 0.79153 0.77346 0.0
O375 O 0.07498 0.77485 0.77878 0.0
O376 O 0.14353 0.74293 0.69952 0.0
O377 O 0.11234 0.73864 0.73951 0.0
Co378 Co 0.96904 0.39967 0.47237 0.0
O379 O 0.98871 0.4268 0.49444 0.0
O380 O 0.94861 0.43082 0.47403 0.0
C381 C -0.00014 0.38626 0.43327 0.0
O382 O 0.94358 0.37641 0.44602 0.0
Co383 Co 0.98743 0.34261 0.4806 0.0
O384 O 0.95879 0.33562 0.44592 0.0
C385 C 0.9603 0.36809 0.54177 0.0
C386 C 0.96915 0.44167 0.48763 0.0
C387 C 0.94221 0.35256 0.43662 0.0
O388 O 0.95539 0.38798 0.52179 0.0
O389 O 0.97468 0.34937 0.53154 0.0
O390 O 0.9857 0.40611 0.42536 0.0
O391 O 0.9971 0.3771 0.46606 0.0
Co392 Co 0.36791 0.76551 0.2446 0.0
O393 O 0.34339 0.74726 0.21468 0.0
O394 O 0.3364 0.78514 0.24117 0.0
C395 C 0.3786 0.7311 0.27963 0.0
O396 O 0.38768 0.78952 0.27875 0.0
Co397 Co 0.42596 0.74951 0.24819 0.0
O398 O 0.42556 0.77086 0.29334 0.0
C399 C 0.40588 0.77947 0.18456 0.0
C400 C 0.32733 0.76563 0.22277 0.0
C401 C 0.40834 0.78805 0.29815 0.0
O402 O 0.38371 0.78297 0.2 0.0
O403 O 0.42367 0.76519 0.19814 0.0
O404 O 0.35794 0.74431 0.28682 0.0
O405 O 0.39077 0.73778 0.25021 0.0
Co406 Co 0.00234 0.59924 0.01294 0.0
O407 O 0.02018 0.57346 0.98482 0.0
O408 O 0.98396 0.56703 0.01608 0.0
C409 C 0.03748 0.61438 0.04266 0.0
O410 O 0.97894 0.62045 0.04612 0.0
Co411 Co 0.01468 0.65785 0.0053 0.0
O412 O 0.99591 0.66013 0.05264 0.0
C413 C 0.9802 0.63209 0.95159 0.0
C414 C 0.0026 0.55752 0.99634 0.0
C415 C 0.97993 0.64263 0.06182 0.0
O416 O 0.98166 0.61038 0.96861 0.0
O417 O 0.99269 0.65237 0.96082 0.0
O418 O 0.02599 0.59358 0.05388 0.0
O419 O 0.02895 0.62383 0.01215 0.0
Co420 Co 0.13943 0.23765 0.7634 0.0
O421 O 0.16788 0.24717 0.73228 0.0
O422 O 0.1689 0.21647 0.77468 0.0
C423 C 0.12843 0.27828 0.78023 0.0
O424 O 0.11503 0.22334 0.80233 0.0
Co425 Co 0.08297 0.25517 0.74817 0.0
O426 O 0.07727 0.2447 0.79987 0.0
C427 C 0.10399 0.20878 0.71109 0.0
C428 C 0.18126 0.23039 0.75074 0.0
C429 C 0.09282 0.22932 0.81565 0.0
O430 O 0.12613 0.21136 0.72678 0.0
O431 O 0.08524 0.22459 0.71504 0.0
O432 O 0.14771 0.26651 0.79559 0.0
O433 O 0.11838 0.26633 0.75251 0.0
Co434 Co 0.51051 0.38417 0.50692 0.0
O435 O 0.49322 0.4116 0.48093 0.0
O436 O 0.53011 0.41553 0.51119 0.0
C437 C 0.47555 0.36932 0.53722 0.0
O438 O 0.53312 0.36168 0.53952 0.0
Co439 Co 0.49657 0.32625 0.49531 0.0
O440 O 0.51969 0.32036 0.53769 0.0
C441 C 0.52994 0.35266 0.44154 0.0
C442 C 0.51143 0.42653 0.49326 0.0
C443 C 0.53407 0.33813 0.55048 0.0
O444 O 0.53041 0.37337 0.46118 0.0
O445 O 0.51631 0.33284 0.44922 0.0
O446 O 0.48762 0.38972 0.54866 0.0
O447 O 0.48315 0.36031 0.50588 0.0
H448 H 0.02173 0.18559 0.38074 0.0
H449 H 0.08386 0.16246 0.45215 0.0
H450 H 0.11546 0.18162 0.41018 0.0
H451 H 0.12482 0.20797 0.35579 0.0
H452 H 0.0631 0.22791 0.28155 0.0
H453 H 0.03189 0.20666 0.32156 0.0
C454 C 0.04223 0.18459 0.38668 0.0
C455 C 0.0507 0.17308 0.41931 0.0
C456 C 0.06024 0.19508 0.36206 0.0
C457 C 0.07717 0.1714 0.42697 0.0
C458 C 0.09515 0.18236 0.40312 0.0
C459 C 0.10457 0.20734 0.34819 0.0
C460 C 0.09616 0.22002 0.31634 0.0
C461 C 0.08684 0.19468 0.37095 0.0
C462 C 0.07002 0.21864 0.30625 0.0
C463 C 0.05212 0.20653 0.32917 0.0
H464 H 0.03263 0.82029 0.5382 0.0
H465 H 0.04259 0.89137 0.5982 0.0
H466 H 0.06976 0.86919 0.64311 0.0
H467 H 0.08614 0.8286 0.66928 0.0
H468 H 0.07106 0.75687 0.61341 0.0
H469 H 0.05049 0.78016 0.56277 0.0
C470 C 0.04094 0.83099 0.56086 0.0
C471 C 0.03538 0.85734 0.56515 0.0
C472 C 0.0555 0.8179 0.58743 0.0
C473 C 0.04643 0.87098 0.59456 0.0
C474 C 0.06191 0.85832 0.62025 0.0
C475 C 0.07886 0.81824 0.64554 0.0
C476 C 0.08015 0.79122 0.64468 0.0
C477 C 0.06595 0.83164 0.61755 0.0
C478 C 0.07024 0.77776 0.61435 0.0
C479 C 0.05843 0.79103 0.58556 0.0
H480 H 0.43906 0.84183 0.91193 0.0
H481 H 0.50479 0.82099 0.84544 0.0
H482 H 0.47608 0.80349 0.79827 0.0
H483 H 0.43268 0.79095 0.77867 0.0
H484 H 0.36746 0.80648 0.84908 0.0
H485 H 0.39546 0.82991 0.89164 0.0
C486 C 0.44703 0.83379 0.88684 0.0
C487 C 0.47393 0.83275 0.88198 0.0
C488 C 0.43049 0.8228 0.86068 0.0
C489 C 0.48411 0.82195 0.84969 0.0
C490 C 0.46772 0.81195 0.82278 0.0
C491 C 0.42452 0.79955 0.80317 0.0
C492 C 0.39808 0.79669 0.81095 0.0
C493 C 0.44092 0.81178 0.82838 0.0
C494 C 0.38781 0.80825 0.84266 0.0
C495 C 0.40381 0.82156 0.86704 0.0
H496 H 0.40721 0.16366 0.1778 0.0
H497 H 0.40542 0.23117 0.10887 0.0
H498 H 0.41521 0.20476 0.0548 0.0
H499 H 0.43014 0.16394 0.02938 0.0
H500 H 0.43973 0.09805 0.10046 0.0
H501 H 0.4197 0.12175 0.15106 0.0
C502 C 0.4085 0.17233 0.15072 0.0
C503 C 0.4057 0.19907 0.14683 0.0
C504 C 0.41544 0.15726 0.12028 0.0
C505 C 0.40766 0.2105 0.11206 0.0
C506 C 0.4132 0.19545 0.08131 0.0
C507 C 0.42761 0.15463 0.0558 0.0
C508 C 0.43715 0.1296 0.06152 0.0
C509 C 0.41802 0.16898 0.08536 0.0
C510 C 0.43293 0.1175 0.09556 0.0
C511 C 0.42171 0.13112 0.12459 0.0
H512 H 0.12812 0.80071 0.14284 0.0
H513 H 0.06677 0.78938 0.22164 0.0
H514 H 0.03632 0.81048 0.18055 0.0
H515 H 0.02629 0.82835 0.12003 0.0
H516 H 0.08746 0.84284 0.0425 0.0
H517 H 0.11904 0.82426 0.08534 0.0
C518 C 0.10818 0.80322 0.15122 0.0
C519 C 0.09956 0.7929 0.18478 0.0
C520 C 0.09077 0.81563 0.12758 0.0
C521 C 0.0738 0.7967 0.19564 0.0
C522 C 0.05633 0.80873 0.17215 0.0
C523 C 0.0466 0.82763 0.11279 0.0
C524 C 0.05472 0.83643 0.07828 0.0
C525 C 0.06447 0.81756 0.1377 0.0
C526 C 0.08099 0.83594 0.06906 0.0
C527 C 0.09893 0.82533 0.09345 0.0
H528 H 0.41156 0.78149 0.37106 0.0
H529 H 0.41776 0.83867 0.28576 0.0
H530 H 0.4358 0.86967 0.32979 0.0
H531 H 0.45545 0.87779 0.39043 0.0
H532 H 0.4477 0.82058 0.47594 0.0
H533 H 0.42401 0.79251 0.43427 0.0
C534 C 0.41628 0.80099 0.36253 0.0
C535 C 0.41362 0.80799 0.32558 0.0
C536 C 0.42651 0.81855 0.3879 0.0
C537 C 0.41966 0.83314 0.31435 0.0
C538 C 0.43008 0.85072 0.33941 0.0
C539 C 0.44803 0.85946 0.40018 0.0
C540 C 0.45396 0.85097 0.43587 0.0
C541 C 0.43443 0.84331 0.37599 0.0
C542 C 0.44386 0.82735 0.44832 0.0
C543 C 0.43036 0.81122 0.4245 0.0
H544 H 0.43432 0.19976 0.70458 0.0
H545 H 0.36427 0.19235 0.64143 0.0
H546 H 0.38799 0.16992 0.59288 0.0
H547 H 0.42962 0.15755 0.56502 0.0
H548 H 0.50021 0.17215 0.62404 0.0
H549 H 0.47557 0.18735 0.67728 0.0
C550 C 0.42418 0.19319 0.68032 0.0
C551 C 0.39769 0.1982 0.67626 0.0
C552 C 0.43823 0.18208 0.65147 0.0
C553 C 0.38476 0.18897 0.64497 0.0
C554 C 0.39833 0.17632 0.61711 0.0
C555 C 0.43944 0.16384 0.58978 0.0
C556 C 0.46649 0.16386 0.59098 0.0
C557 C 0.42521 0.17362 0.61949 0.0
C558 C 0.4793 0.17222 0.62276 0.0
C559 C 0.46525 0.18079 0.65311 0.0
H560 H 0.0898 0.17803 0.82495 0.0
H561 H 0.07341 0.25062 0.87769 0.0
H562 H 0.05161 0.22811 0.92815 0.0
H563 H 0.03383 0.18826 0.9537 0.0
H564 H 0.04475 0.11627 0.89631 0.0
H565 H 0.07248 0.13787 0.85135 0.0
C566 C 0.08193 0.18874 0.84802 0.0
C567 C 0.08338 0.21574 0.84825 0.0
C568 C 0.06828 0.17577 0.87572 0.0
C569 C 0.0726 0.22973 0.87746 0.0
C570 C 0.06009 0.21689 0.90608 0.0
C571 C 0.04239 0.17724 0.93155 0.0
C572 C 0.03711 0.15077 0.9281 0.0
C573 C 0.05725 0.18998 0.90498 0.0
C574 C 0.04842 0.13674 0.89928 0.0
C575 C 0.06424 0.14906 0.87362 0.0
H576 H 0.97395 0.82698 0.63496 0.0
H577 H 0.90914 0.83964 0.56308 0.0
H578 H 0.87953 0.82373 0.61054 0.0
H579 H 0.87303 0.802 0.66995 0.0
H580 H 0.93776 0.7923 0.74332 0.0
H581 H 0.96645 0.8118 0.69814 0.0
C582 C 0.95328 0.82656 0.63008 0.0
C583 C 0.94355 0.83403 0.5958 0.0
C584 C 0.93647 0.81788 0.65761 0.0
C585 C 0.91685 0.83387 0.58951 0.0
C586 C 0.90001 0.82472 0.61651 0.0
C587 C 0.89333 0.80457 0.67629 0.0
C588 C 0.90339 0.79497 0.70941 0.0
C589 C 0.9097 0.81608 0.65033 0.0
C590 C 0.92961 0.79896 0.71765 0.0
C591 C 0.94608 0.81008 0.6918 0.0
H592 H 0.94667 0.12392 0.40821 0.0
H593 H 0.96092 0.18123 0.49183 0.0
H594 H 0.93508 0.21248 0.45811 0.0
H595 H 0.91275 0.225 0.40135 0.0
H596 H 0.89656 0.16745 0.31898 0.0
H597 H 0.91832 0.13467 0.35606 0.0
C598 C 0.9438 0.14314 0.41927 0.0
C599 C 0.95633 0.15047 0.45188 0.0
C600 C 0.9286 0.16098 0.39995 0.0
C601 C 0.95198 0.17523 0.46637 0.0
C602 C 0.93716 0.19316 0.44712 0.0
C603 C 0.91361 0.20516 0.39192 0.0
C604 C 0.90345 0.19863 0.35741 0.0
C605 C 0.92608 0.18648 0.41334 0.0
C606 C 0.90426 0.17286 0.34556 0.0
C607 C 0.91688 0.15417 0.36659 0.0
H608 H 0.55497 0.15016 0.07474 0.0
H609 H 0.48677 0.17925 0.12872 0.0
H610 H 0.51302 0.19449 0.18024 0.0
H611 H 0.55559 0.2027 0.20705 0.0
H612 H 0.6241 0.1785 0.14905 0.0
H613 H 0.5975 0.15737 0.10251 0.0
C614 C 0.54587 0.15953 0.09805 0.0
C615 C 0.51908 0.16369 0.09804 0.0
C616 C 0.56114 0.16904 0.1268 0.0
C617 C 0.50745 0.17608 0.12812 0.0
C618 C 0.52241 0.18472 0.15755 0.0
C619 C 0.56473 0.19267 0.18442 0.0
C620 C 0.59177 0.19248 0.1812 0.0
C621 C 0.54934 0.1818 0.15678 0.0
C622 C 0.60329 0.17909 0.15191 0.0
C623 C 0.58811 0.16711 0.12523 0.0
H624 H 0.52874 0.88192 0.86772 0.0
H625 H 0.58546 0.86474 0.95073 0.0
H626 H 0.60998 0.83881 0.90663 0.0
H627 H 0.61036 0.81455 0.84866 0.0
H628 H 0.54936 0.82625 0.76996 0.0
H629 H 0.53142 0.86096 0.80771 0.0
C630 C 0.547 0.8733 0.87564 0.0
C631 C 0.5555 0.87521 0.91213 0.0
C632 C 0.55985 0.85699 0.85101 0.0
C633 C 0.57877 0.86351 0.92258 0.0
C634 C 0.5926 0.84852 0.89751 0.0
C635 C 0.59357 0.82528 0.83945 0.0
C636 C 0.58109 0.81809 0.80684 0.0
C637 C 0.58261 0.8441 0.86226 0.0
C638 C 0.55911 0.8316 0.79517 0.0
C639 C 0.54889 0.85136 0.81671 0.0
H640 H 0.86743 0.20272 0.83911 0.0
H641 H 0.92652 0.20352 0.75539 0.0
H642 H 0.95799 0.18718 0.79942 0.0
H643 H 0.96974 0.17713 0.86349 0.0
H644 H 0.91035 0.17397 0.94625 0.0
H645 H 0.87786 0.18695 0.90091 0.0
C646 C 0.88706 0.19885 0.8303 0.0
C647 C 0.8948 0.20497 0.79434 0.0
C648 C 0.90506 0.18948 0.85574 0.0
C649 C 0.92019 0.19942 0.78315 0.0
C650 C 0.93825 0.19019 0.80833 0.0
C651 C 0.94961 0.17913 0.87128 0.0
C652 C 0.94222 0.17512 0.90785 0.0
C653 C 0.93109 0.18601 0.84498 0.0
C654 C 0.91621 0.17722 0.91804 0.0
C655 C 0.89774 0.18459 0.8922 0.0
H656 H 0.58406 0.21715 0.62122 0.0
H657 H 0.57675 0.16533 0.7131 0.0
H658 H 0.56214 0.13079 0.67189 0.0
H659 H 0.54749 0.11715 0.6105 0.0
H660 H 0.55733 0.16865 0.51831 0.0
H661 H 0.57559 0.20137 0.55871 0.0
C662 C 0.57959 0.19814 0.63195 0.0
C663 C 0.58107 0.19358 0.66981 0.0
C664 C 0.57172 0.17844 0.60812 0.0
C665 C 0.57559 0.16901 0.68383 0.0
C666 C 0.56723 0.14938 0.66035 0.0
C667 C 0.55414 0.13531 0.59914 0.0
C668 C 0.55047 0.1407 0.56164 0.0
C669 C 0.56469 0.15407 0.62253 0.0
C670 C 0.55953 0.16418 0.54721 0.0
C671 C 0.56988 0.18297 0.57029 0.0
H672 H 0.57596 0.78688 0.28156 0.0
H673 H 0.64373 0.79624 0.34912 0.0
H674 H 0.6183 0.81996 0.39456 0.0
H675 H 0.57576 0.83201 0.41921 0.0
H676 H 0.50722 0.81538 0.35646 0.0
H677 H 0.53376 0.79986 0.30523 0.0
C678 C 0.58525 0.79417 0.30609 0.0
C679 C 0.61156 0.78923 0.31239 0.0
C680 C 0.57018 0.80602 0.33325 0.0
C681 C 0.62341 0.79949 0.34388 0.0
C682 C 0.60885 0.81288 0.36998 0.0
C683 C 0.56676 0.82537 0.394 0.0
C684 C 0.53975 0.82478 0.39126 0.0
C685 C 0.58206 0.8153 0.36563 0.0
C686 C 0.52807 0.81583 0.35893 0.0
C687 C 0.54321 0.80703 0.32976 0.0
H688 H 0.95734 0.81404 0.1949 0.0
H689 H 0.90076 0.78226 0.1209 0.0
H690 H 0.91454 0.81221 0.0726 0.0
H691 H 0.94395 0.8464 0.05102 0.0
H692 H 0.99815 0.88027 0.12698 0.0
H693 H 0.98385 0.85085 0.17516 0.0
C694 C 0.9481 0.81377 0.16815 0.0
C695 C 0.92839 0.79592 0.16103 0.0
C696 C 0.95555 0.83151 0.14109 0.0
C697 C 0.91607 0.7959 0.1267 0.0
C698 C 0.92393 0.81297 0.09919 0.0
C699 C 0.95231 0.84753 0.0783 0.0
C700 C 0.97205 0.86537 0.08547 0.0
C701 C 0.94377 0.83076 0.10602 0.0
C702 C 0.98273 0.86682 0.1209 0.0
C703 C 0.97472 0.84987 0.14839 0.0
H704 H 0.5546 0.70991 0.95049 0.0
H705 H 0.53663 0.64186 0.8874 0.0
H706 H 0.56278 0.65791 0.83619 0.0
H707 H 0.59048 0.69173 0.80918 0.0
H708 H 0.61137 0.7578 0.87468 0.0
H709 H 0.58434 0.74225 0.92514 0.0
C710 C 0.55651 0.69863 0.92552 0.0
C711 C 0.54374 0.67486 0.92249 0.0
C712 C 0.57204 0.70766 0.89668 0.0
C713 C 0.54649 0.66018 0.89028 0.0
C714 C 0.56131 0.66939 0.861 0.0
C715 C 0.58906 0.7026 0.83459 0.0
C716 C 0.60273 0.72579 0.83842 0.0
C717 C 0.57412 0.69314 0.86385 0.0
C718 C 0.60108 0.73974 0.87141 0.0
C719 C 0.5856 0.73093 0.90016 0.0
H720 H 0.57505 0.31764 0.18574 0.0
H721 H 0.58494 0.25658 0.10677 0.0
H722 H 0.57058 0.28528 0.05723 0.0
H723 H 0.55043 0.32585 0.03831 0.0
H724 H 0.53613 0.38536 0.11874 0.0
H725 H 0.5577 0.35956 0.16575 0.0
C726 C 0.5746 0.31099 0.15746 0.0
C727 C 0.58118 0.2854 0.14938 0.0
C728 C 0.56542 0.32725 0.12962 0.0
C729 C 0.58015 0.27644 0.11311 0.0
C730 C 0.57184 0.29276 0.08499 0.0
C731 C 0.55231 0.33334 0.06599 0.0
C732 C 0.54131 0.35726 0.07521 0.0
C733 C 0.56371 0.31795 0.09315 0.0
C734 C 0.54423 0.36686 0.11107 0.0
C735 C 0.55644 0.35208 0.13799 0.0
H736 H 0.87621 0.31712 0.30287 0.0
H737 H 0.85349 0.25839 0.38018 0.0
H738 H 0.87654 0.28087 0.42933 0.0
H739 H 0.90872 0.31357 0.44735 0.0
H740 H 0.9302 0.37312 0.37062 0.0
H741 H 0.90181 0.35424 0.32399 0.0
C742 C 0.87567 0.30978 0.33079 0.0
C743 C 0.86342 0.28622 0.33811 0.0
C744 C 0.889 0.32275 0.35869 0.0
C745 C 0.86266 0.27669 0.37417 0.0
C746 C 0.87608 0.28936 0.40212 0.0
C747 C 0.9066 0.32265 0.42065 0.0
C748 C 0.92148 0.34441 0.41195 0.0
C749 C 0.89015 0.31183 0.39429 0.0
C750 C 0.91872 0.35635 0.37763 0.0
C751 C 0.90266 0.34549 0.35101 0.0
H752 H 0.92506 0.73402 0.63337 0.0
H753 H 0.91018 0.66974 0.70529 0.0
H754 H 0.92529 0.63965 0.65799 0.0
H755 H 0.94766 0.63251 0.59917 0.0
H756 H 0.95961 0.69674 0.52563 0.0
H757 H 0.94018 0.72595 0.57018 0.0
C758 C 0.92472 0.71337 0.63821 0.0
C759 C 0.9169 0.7039 0.67251 0.0
C760 C 0.93301 0.69628 0.61078 0.0
C761 C 0.91617 0.67723 0.67882 0.0
C762 C 0.9249 0.66011 0.65193 0.0
C763 C 0.94552 0.65281 0.59259 0.0
C764 C 0.95587 0.66258 0.55972 0.0
C765 C 0.93406 0.6695 0.6182 0.0
C766 C 0.95241 0.6888 0.55116 0.0
C767 C 0.94133 0.70558 0.57665 0.0
H768 H 0.5679 0.2988 0.55067 0.0
H769 H 0.53977 0.36201 0.61628 0.0
H770 H 0.56527 0.34693 0.66885 0.0
H771 H 0.59282 0.3135 0.69719 0.0
H772 H 0.62335 0.25228 0.6297 0.0
H773 H 0.59984 0.26885 0.57658 0.0
C774 C 0.56771 0.30939 0.5764 0.0
C775 C 0.55199 0.33124 0.58005 0.0
C776 C 0.58272 0.3009 0.60603 0.0
C777 C 0.55191 0.34513 0.61312 0.0
C778 C 0.56633 0.33645 0.64312 0.0
C779 C 0.59457 0.30412 0.67065 0.0
C780 C 0.60955 0.2817 0.66722 0.0
C781 C 0.5814 0.31405 0.64007 0.0
C782 C 0.61198 0.26969 0.63281 0.0
C783 C 0.59844 0.27904 0.60251 0.0
H784 H 0.94274 0.3631 0.90397 0.0
H785 H 0.95981 0.29705 0.97198 0.0
H786 H 0.93846 0.26876 0.92808 0.0
H787 H 0.9203 0.2622 0.86629 0.0
H788 H 0.90052 0.32812 0.80002 0.0
H789 H 0.91734 0.35718 0.84745 0.0
C790 C 0.9413 0.3426 0.90956 0.0
C791 C 0.95365 0.33209 0.94047 0.0
C792 C 0.92876 0.32642 0.88434 0.0
C793 C 0.95107 0.30558 0.94785 0.0
C794 C 0.93889 0.28933 0.92274 0.0
C795 C 0.91929 0.28296 0.86274 0.0
C796 C 0.90964 0.29322 0.8299 0.0
C797 C 0.92861 0.29943 0.89022 0.0
C798 C 0.90798 0.32002 0.82533 0.0
C799 C 0.91767 0.33656 0.85228 0.0
H800 H 0.98711 0.66287 0.12905 0.0
H801 H 0.9282 0.63858 0.05306 0.0
H802 H 0.89484 0.65811 0.09195 0.0
H803 H 0.88339 0.68628 0.14412 0.0
H804 H 0.94232 0.70748 0.22229 0.0
H805 H 0.9747 0.68478 0.18629 0.0
C806 C 0.96688 0.66144 0.12157 0.0
C807 C 0.95992 0.64961 0.08844 0.0
C808 C 0.94793 0.67239 0.14417 0.0
C809 C 0.93379 0.64757 0.07875 0.0
C810 C 0.9148 0.65888 0.10077 0.0
C811 C 0.90326 0.6856 0.15347 0.0
C812 C 0.91057 0.69917 0.18521 0.0
C813 C 0.92176 0.67199 0.13301 0.0
C814 C 0.93623 0.69767 0.19756 0.0
C815 C 0.95482 0.68465 0.177 0.0
H816 H 0.59046 0.66805 0.32805 0.0
H817 H 0.57658 0.73904 0.38638 0.0
H818 H 0.55682 0.71513 0.43717 0.0
H819 H 0.53868 0.67491 0.46069 0.0
H820 H 0.54635 0.60488 0.39758 0.0
H821 H 0.5741 0.62719 0.35349 0.0
C822 C 0.58364 0.67808 0.35237 0.0
C823 C 0.58498 0.70506 0.35394 0.0
C824 C 0.57107 0.66435 0.38037 0.0
C825 C 0.57569 0.71817 0.38497 0.0
C826 C 0.56437 0.70454 0.41382 0.0
C827 C 0.54658 0.66444 0.43752 0.0
C828 C 0.54004 0.63844 0.43198 0.0
C829 C 0.56117 0.67773 0.41121 0.0
C830 C 0.55086 0.62503 0.40216 0.0
C831 C 0.56663 0.63779 0.37687 0.0
H832 H 0.42172 0.32954 0.07 0.0
H833 H 0.49251 0.3171 0.12962 0.0
H834 H 0.4683 0.2999 0.18183 0.0
H835 H 0.42759 0.28545 0.20841 0.0
H836 H 0.3571 0.29242 0.14614 0.0
H837 H 0.38036 0.3153 0.09748 0.0
C838 C 0.43167 0.32332 0.09468 0.0
C839 C 0.45872 0.3245 0.09624 0.0
C840 C 0.41768 0.31249 0.124 0.0
C841 C 0.47163 0.31616 0.12797 0.0
C842 C 0.45783 0.30639 0.15776 0.0
C843 C 0.41722 0.29209 0.18435 0.0
C844 C 0.39071 0.28699 0.18074 0.0
C845 C 0.43091 0.30401 0.15579 0.0
C846 C 0.37757 0.29599 0.14948 0.0
C847 C 0.39087 0.30896 0.12157 0.0
H848 H 0.44813 0.62581 0.89691 0.0
H849 H 0.45562 0.68354 0.98167 0.0
H850 H 0.4379 0.71614 0.94053 0.0
H851 H 0.42384 0.72901 0.87828 0.0
H852 H 0.41365 0.67074 0.79515 0.0
H853 H 0.42884 0.63746 0.83774 0.0
C854 C 0.44552 0.64544 0.90655 0.0
C855 C 0.45382 0.65239 0.94189 0.0
C856 C 0.43509 0.66401 0.88289 0.0
C857 C 0.44986 0.67776 0.95432 0.0
C858 C 0.43977 0.69647 0.93078 0.0
C859 C 0.42481 0.70895 0.86986 0.0
C860 C 0.41809 0.70207 0.83391 0.0
C861 C 0.43301 0.68995 0.89468 0.0
C862 C 0.41893 0.67618 0.82291 0.0
C863 C 0.42759 0.65726 0.84715 0.0
H864 H 0.0773 0.70717 0.7197 0.0
H865 H 0.14488 0.7065 0.65035 0.0
H866 H 0.12088 0.68334 0.60289 0.0
H867 H 0.07882 0.67092 0.57689 0.0
H868 H 0.00995 0.67965 0.64213 0.0
H869 H 0.03597 0.6926 0.69529 0.0
C870 C 0.08688 0.70179 0.69437 0.0
C871 C 0.11256 0.70927 0.68803 0.0
C872 C 0.07245 0.69042 0.6662 0.0
C873 C 0.12495 0.70135 0.65558 0.0
C874 C 0.11119 0.68831 0.62833 0.0
C875 C 0.06972 0.67515 0.60309 0.0
C876 C 0.04276 0.67438 0.60611 0.0
C877 C 0.08464 0.68396 0.63263 0.0
C878 C 0.0308 0.68022 0.63962 0.0
C879 C 0.04563 0.6876 0.66983 0.0
H880 H 0.04375 0.35829 0.44094 0.0
H881 H 0.98713 0.38285 0.36146 0.0
H882 H 0.00833 0.35726 0.31389 0.0
H883 H 0.0418 0.32647 0.2956 0.0
H884 H 0.10051 0.30407 0.37311 0.0
H885 H 0.07993 0.33046 0.42084 0.0
C886 C 0.03627 0.3581 0.4131 0.0
C887 C 0.01396 0.37223 0.40456 0.0
C888 C 0.04891 0.3438 0.38569 0.0
C889 C 0.00442 0.37217 0.36847 0.0
C890 C 0.01644 0.35749 0.34134 0.0
C891 C 0.05014 0.32759 0.32291 0.0
C892 C 0.07239 0.31335 0.33117 0.0
C893 C 0.03852 0.34306 0.34974 0.0
C894 C 0.08337 0.31505 0.36633 0.0
C895 C 0.07155 0.32998 0.39357 0.0
H896 H 0.41822 0.66835 0.41665 0.0
H897 H 0.48862 0.67123 0.35369 0.0
H898 H 0.46548 0.69055 0.3019 0.0
H899 H 0.42641 0.71027 0.27731 0.0
H900 H 0.35702 0.71251 0.34291 0.0
H901 H 0.37835 0.68718 0.39086 0.0
C902 C 0.42822 0.67274 0.39119 0.0
C903 C 0.45485 0.66823 0.38842 0.0
C904 C 0.41503 0.68496 0.36236 0.0
C905 C 0.46801 0.67446 0.35595 0.0
C906 C 0.45483 0.68557 0.32655 0.0
C907 C 0.41585 0.70511 0.30196 0.0
C908 C 0.39028 0.71348 0.30676 0.0
C909 C 0.42851 0.69151 0.32985 0.0
C910 C 0.37681 0.70642 0.33873 0.0
C911 C 0.389 0.69199 0.36615 0.0
H912 H 0.05178 0.66441 0.03525 0.0
H913 H 0.06066 0.59816 0.10585 0.0
H914 H 0.08262 0.62488 0.15159 0.0
H915 H 0.09419 0.66808 0.17463 0.0
H916 H 0.07923 0.73481 0.10744 0.0
H917 H 0.06458 0.70704 0.05709 0.0
C918 C 0.05865 0.65573 0.06048 0.0
C919 C 0.05424 0.62944 0.06743 0.0
C920 C 0.06997 0.67142 0.08733 0.0
C921 C 0.06363 0.61844 0.10006 0.0
C922 C 0.07609 0.63371 0.12625 0.0
C923 C 0.08823 0.67634 0.14859 0.0
C924 C 0.08791 0.70321 0.14421 0.0
C925 C 0.07863 0.66036 0.12065 0.0
C926 C 0.07967 0.71405 0.11096 0.0
C927 C 0.07126 0.69823 0.08237 0.0
H928 H 0.07862 0.29354 0.77005 0.0
H929 H 0.14564 0.30747 0.83747 0.0
H930 H 0.11866 0.32891 0.88329 0.0
H931 H 0.07552 0.33493 0.90981 0.0
H932 H 0.00838 0.31157 0.84841 0.0
H933 H 0.03558 0.30156 0.79507 0.0
C934 C 0.08739 0.30132 0.79464 0.0
C935 C 0.11392 0.29794 0.8011 0.0
C936 C 0.07149 0.31124 0.8224 0.0
C937 C 0.12513 0.30931 0.83228 0.0
C938 C 0.10968 0.32133 0.85865 0.0
C939 C 0.0669 0.32819 0.88439 0.0
C940 C 0.04018 0.32395 0.88263 0.0
C941 C 0.08275 0.321 0.85495 0.0
C942 C 0.02901 0.31483 0.85006 0.0
C943 C 0.04453 0.30917 0.81971 0.0
H944 H 0.46501 0.3181 0.53489 0.0
H945 H 0.44895 0.38743 0.59626 0.0
H946 H 0.42639 0.36213 0.64307 0.0
H947 H 0.41551 0.3198 0.66972 0.0
H948 H 0.43712 0.25047 0.61198 0.0
H949 H 0.4534 0.27614 0.56051 0.0
C950 C 0.45638 0.32772 0.55825 0.0
C951 C 0.45879 0.35454 0.56229 0.0
C952 C 0.44467 0.31296 0.58586 0.0
C953 C 0.44742 0.36674 0.59273 0.0
C954 C 0.43461 0.35229 0.61952 0.0
C955 C 0.42341 0.31044 0.64552 0.0
C956 C 0.42515 0.28345 0.64429 0.0
C957 C 0.43375 0.32532 0.61687 0.0
C958 C 0.43574 0.27132 0.61329 0.0
C959 C 0.44502 0.28595 0.58397 0.0
H960 H 0.29772 0.27532 0.28232 0.0
H961 H 0.28855 0.19556 0.25083 0.0
H962 H 0.2418 0.20086 0.24943 0.0
H963 H 0.20389 0.22866 0.25305 0.0
H964 H 0.21224 0.30839 0.28481 0.0
H965 H 0.25909 0.30271 0.28972 0.0
C966 C 0.28544 0.25898 0.27592 0.0
C967 C 0.29656 0.23509 0.26665 0.0
C968 C 0.25854 0.26231 0.27439 0.0
C969 C 0.28045 0.21415 0.25806 0.0
C970 C 0.25373 0.2172 0.25698 0.0
C971 C 0.21595 0.24487 0.26082 0.0
C972 C 0.20472 0.26902 0.26796 0.0
C973 C 0.24265 0.24133 0.26418 0.0
C974 C 0.22053 0.28968 0.27879 0.0
C975 C 0.24726 0.28639 0.28178 0.0
H976 H 0.01816 0.95212 0.47177 0.0
H977 H 0.94014 0.95901 0.51243 0.0
H978 H 0.94523 0.00567 0.51737 0.0
H979 H 0.97241 0.04414 0.51291 0.0
H980 H 0.05028 0.03764 0.47181 0.0
H981 H 0.04486 0.991 0.46494 0.0
C982 C 0.00212 0.96388 0.48108 0.0
C983 C 0.9788 0.95215 0.49169 0.0
C984 C 0.00535 0.99063 0.48457 0.0
C985 C 0.95827 0.9676 0.50402 0.0
C986 C 0.96123 0.99425 0.50714 0.0
C987 C 0.98829 0.03248 0.50281 0.0
C988 C 0.01182 0.04419 0.49337 0.0
C989 C 0.98484 0.00588 0.49821 0.0
C990 C 0.03205 0.02896 0.47958 0.0
C991 C 0.02891 0.00236 0.47543 0.0
H992 H 0.29336 0.78446 0.7307 0.0
H993 H 0.28791 0.70679 0.77282 0.0
H994 H 0.24146 0.71175 0.78058 0.0
H995 H 0.20253 0.73781 0.7755 0.0
H996 H 0.20678 0.81486 0.7312 0.0
H997 H 0.25374 0.81076 0.7252 0.0
C998 C 0.28193 0.76853 0.74111 0.0
C999 C 0.29406 0.74523 0.75097 0.0
C1000 C 0.25516 0.77159 0.74591 0.0
C1001 C 0.27905 0.72487 0.76486 0.0
C1002 C 0.25251 0.72774 0.76958 0.0
C1003 C 0.21373 0.75393 0.76515 0.0
C1004 C 0.20123 0.77673 0.75423 0.0
C1005 C 0.24042 0.75106 0.76053 0.0
C1006 C 0.21601 0.79721 0.74017 0.0
C1007 C 0.2428 0.79476 0.7364 0.0
H1008 H 0.46574 0.03987 0.97395 0.0
H1009 H 0.54651 0.04366 0.00245 0.0
H1010 H 0.54747 0.99692 0.01096 0.0
H1011 H 0.52532 0.95535 0.01126 0.0
H1012 H 0.44474 0.951 0.9819 0.0
H1013 H 0.44347 0.99791 0.97414 0.0
C1014 C 0.48368 0.0304 0.98128 0.0
C1015 C 0.50613 0.04514 0.9871 0.0
C1016 C 0.4839 0.00362 0.9871 0.0
C1017 C 0.52907 0.03268 -0.00259 0.0
C1018 C 0.52955 0.00602 0.00269 0.0
C1019 C 0.5073 0.96466 0.00388 0.0
C1020 C 0.48505 0.94973 -0.00241 0.0
C1021 C 0.507 0.99139 -0.00184 0.0
C1022 C 0.46203 0.9621 0.98734 0.0
C1023 C 0.4614 0.98886 0.98245 0.0
H1024 H 0.21468 0.72341 0.20132 0.0
H1025 H 0.20049 0.77522 0.29196 0.0
H1026 H 0.24553 0.78924 0.2904 0.0
H1027 H 0.28895 0.78661 0.26343 0.0
H1028 H 0.30328 0.73417 0.17366 0.0
H1029 H 0.25791 0.72114 0.17395 0.0
C1030 C 0.22151 0.73752 0.22106 0.0
C1031 C 0.20433 0.74807 0.24696 0.0
C1032 C 0.24727 0.74583 0.21956 0.0
C1033 C 0.21339 0.76664 0.27196 0.0
C1034 C 0.23908 0.77483 0.27087 0.0
C1035 C 0.282 0.77276 0.2434 0.0
C1036 C 0.29933 0.76158 0.21825 0.0
C1037 C 0.25613 0.76473 0.24458 0.0
C1038 C 0.29021 0.74321 0.19304 0.0
C1039 C 0.26436 0.73557 0.19344 0.0
H1040 H 0.48152 0.94635 0.52225 0.0
H1041 H 0.55929 0.94774 0.47976 0.0
H1042 H 0.5577 0.99478 0.47589 0.0
H1043 H 0.53361 0.03532 0.48229 0.0
H1044 H 0.4556 0.03386 0.52397 0.0
H1045 H 0.45771 0.98696 0.52973 0.0
C1046 C 0.49829 0.95698 0.51279 0.0
C1047 C 0.52056 0.94361 0.50154 0.0
C1048 C 0.49698 0.98394 0.50969 0.0
C1049 C 0.54198 0.95762 0.48877 0.0
C1050 C 0.541 0.98449 0.48626 0.0
C1051 C 0.51697 0.02471 0.49226 0.0
C1052 C 0.49439 0.03802 0.50233 0.0
C1053 C 0.51845 0.9978 0.49602 0.0
C1054 C 0.47314 0.02404 0.51575 0.0
C1055 C 0.47439 0.99724 0.51929 0.0
H1056 H 0.21195 0.26886 0.72642 0.0
H1057 H 0.21422 0.19281 0.77441 0.0
H1058 H 0.26126 0.19562 0.77964 0.0
H1059 H 0.30158 0.21993 0.77095 0.0
H1060 H 0.29883 0.29641 0.72421 0.0
H1061 H 0.25195 0.29346 0.71906 0.0
C1062 C 0.22277 0.25272 0.73749 0.0
C1063 C 0.20972 0.2305 0.74952 0.0
C1064 C 0.24961 0.2548 0.74141 0.0
C1065 C 0.22392 0.21 0.7646 0.0
C1066 C 0.25075 0.2117 0.76788 0.0
C1067 C 0.29069 0.23611 0.76018 0.0
C1068 C 0.30367 0.25841 0.74812 0.0
C1069 C 0.26376 0.23412 0.75671 0.0
C1070 C 0.2893 0.27909 0.73385 0.0
C1071 C 0.26251 0.27733 0.7306 0.0
H1072 H 0.02449 0.05552 0.01348 0.0
H1073 H 0.9424 0.04971 0.99497 0.0
H1074 H 0.94597 0.00288 0.99011 0.0
H1075 H 0.97238 0.96398 0.98948 0.0
H1076 H 0.05453 0.96914 0.00784 0.0
H1077 H 0.05108 0.0161 0.01347 0.0
C1078 C 0.00733 0.04394 0.00904 0.0
C1079 C 0.98316 0.05599 0.0049 0.0
C1080 C 0.00963 0.01708 0.00539 0.0
C1081 C 0.96117 0.04084 -0.00152 0.0
C1082 C 0.96323 0.01411 0.99541 0.0
C1083 C 0.98963 0.97535 0.99432 0.0
C1084 C 0.01372 0.96312 -0.00204 0.0
C1085 C 0.9874 0.00211 -0.00172 0.0
C1086 C 0.03579 0.97814 0.00463 0.0
C1087 C 0.03379 0.00493 0.00816 0.0
H1088 H 0.79168 0.71599 0.74084 0.0
H1089 H 0.80466 0.77956 0.81517 0.0
H1090 H 0.75885 0.79083 0.81232 0.0
H1091 H 0.71524 0.78318 0.78733 0.0
H1092 H 0.70265 0.71912 0.71383 0.0
H1093 H 0.74838 0.70788 0.71697 0.0
C1094 C 0.78447 0.73212 0.75683 0.0
C1095 C 0.80155 0.74685 0.77828 0.0
C1096 C 0.7583 0.73875 0.75453 0.0
C1097 C 0.79189 0.76778 0.79863 0.0
C1098 C 0.76574 0.77439 0.79674 0.0
C1099 C 0.72265 0.76703 0.77158 0.0
C1100 C 0.70576 0.75218 0.74999 0.0
C1101 C 0.74885 0.76025 0.77433 0.0
C1102 C 0.7154 0.73093 0.73038 0.0
C1103 C 0.74147 0.72439 0.73238 0.0
H1104 H 0.70607 0.25814 0.20528 0.0
H1105 H 0.69147 0.20811 0.2977 0.0
H1106 H 0.73724 0.1963 0.29967 0.0
H1107 H 0.78174 0.20202 0.27687 0.0
H1108 H 0.79588 0.25268 0.18503 0.0
H1109 H 0.74973 0.26169 0.18018 0.0
C1110 C 0.71291 0.24482 0.22609 0.0
C1111 C 0.6955 0.23439 0.25177 0.0
C1112 C 0.73905 0.23779 0.22658 0.0
C1113 C 0.70457 0.21668 0.27797 0.0
C1114 C 0.73069 0.20977 0.27891 0.0
C1115 C 0.7746 0.2144 0.25511 0.0
C1116 C 0.79213 0.22652 0.23112 0.0
C1117 C 0.74812 0.22026 0.25339 0.0
C1118 C 0.7827 0.24297 0.20358 0.0
C1119 C 0.75637 0.24838 0.2011 0.0
H1120 H 0.70498 0.21438 0.72619 0.0
H1121 H 0.69521 0.27172 0.81092 0.0
H1122 H 0.7409 0.28326 0.80629 0.0
H1123 H 0.78292 0.27846 0.77606 0.0
H1124 H 0.7925 0.22199 0.68995 0.0
H1125 H 0.74729 0.20922 0.69639 0.0
C1126 C 0.71304 0.22893 0.74428 0.0
C1127 C 0.69693 0.24193 0.76929 0.0
C1128 C 0.73902 0.23617 0.74037 0.0
C1129 C 0.70739 0.26125 0.79183 0.0
C1130 C 0.73339 0.26805 0.78886 0.0
C1131 C 0.77506 0.26359 0.75833 0.0
C1132 C 0.791 0.25138 0.73227 0.0
C1133 C 0.74923 0.25603 0.76266 0.0
C1134 C 0.78057 0.23188 0.70994 0.0
C1135 C 0.7548 0.22439 0.71387 0.0
H1136 H 0.79892 0.71308 0.25884 0.0
H1137 H 0.7951 0.78708 0.20472 0.0
H1138 H 0.74814 0.78429 0.2027 0.0
H1139 H 0.70814 0.76147 0.21765 0.0
H1140 H 0.71158 0.68786 0.27277 0.0
H1141 H 0.75873 0.68963 0.27238 0.0
C1142 C 0.78779 0.72864 0.24677 0.0
C1143 C 0.80047 0.75033 0.23221 0.0
C1144 C 0.76075 0.72685 0.24547 0.0
C1145 C 0.78581 0.77022 0.21631 0.0
C1146 C 0.75895 0.76861 0.21499 0.0
C1147 C 0.71919 0.74562 0.22909 0.0
C1148 C 0.7064 0.72454 0.24513 0.0
C1149 C 0.74623 0.74704 0.22951 0.0
C1150 C 0.721 0.70428 0.26016 0.0
C1151 C 0.74795 0.70536 0.26016 0.0
H1152 H 0.51958 0.45313 0.97686 0.0
H1153 H 0.4422 0.45357 0.0209 0.0
H1154 H 0.44319 0.50071 0.02416 0.0
H1155 H 0.46678 0.54169 0.0165 0.0
H1156 H 0.54438 0.54059 0.97318 0.0
H1157 H 0.54269 0.49371 0.96824 0.0
C1158 C 0.50277 0.4635 0.98673 0.0
C1159 C 0.48081 0.44985 -0.0015 0.0
C1160 C 0.5037 0.49046 0.98928 0.0
C1161 C 0.4593 0.46363 0.01148 0.0
C1162 C 0.45993 0.49057 0.01361 0.0
C1163 C 0.48338 0.53115 0.00627 0.0
C1164 C 0.50575 0.54459 0.99549 0.0
C1165 C 0.48219 0.50416 0.00311 0.0
C1166 C 0.52699 0.53071 0.98184 0.0
C1167 C 0.526 0.50391 0.97884 0.0
H1168 H 0.01217 0.46814 0.50562 0.0
H1169 H 0.93266 0.47868 0.47358 0.0
H1170 H 0.93931 0.5254 0.47063 0.0
H1171 H 0.96797 0.56316 0.47701 0.0
H1172 H 0.04724 0.55196 0.50969 0.0
H1173 H 0.0406 0.50536 0.51154 0.0
C1174 C 0.99617 0.48063 0.49833 0.0
C1175 C 0.9719 0.46997 0.49006 0.0
C1176 C 0.00026 0.50727 0.49605 0.0
C1177 C 0.95148 0.48644 0.48037 0.0
C1178 C 0.95533 0.51311 0.47837 0.0
C1179 C 0.98388 0.55045 0.48385 0.0
C1180 C 0.00813 0.56089 0.49284 0.0
C1181 C 0.97972 0.52371 0.48582 0.0
C1182 C 0.02846 0.5443 0.50242 0.0
C1183 C 0.02462 0.51771 0.50377 0.0
H1184 H 0.03535 0.44324 0.96361 0.0
H1185 H 0.98111 0.42829 0.05115 0.0
H1186 H 0.9722 0.47454 0.05628 0.0
H1187 H 0.97931 0.5191 0.03477 0.0
H1188 H 0.03358 0.53331 0.94699 0.0
H1189 H 0.04254 0.48722 0.94247 0.0
C1190 C 0.02177 0.45006 0.98414 0.0
C1191 C 0.009 0.43237 0.0071 0.0
C1192 C 0.01639 0.47646 0.98636 0.0
C1193 C 0.99134 0.44155 0.03334 0.0
C1194 C 0.98608 0.46795 0.03606 0.0
C1195 C 0.99284 0.51204 0.01434 0.0
C1196 C 0.00563 0.52952 0.99103 0.0
C1197 C 0.99827 0.48554 0.01237 0.0
C1198 C 0.02341 0.52019 0.9651 0.0
C1199 C 0.02866 0.49389 0.96266 0.0
H1200 H 0.46936 0.45475 0.47351 0.0
H1201 H 0.54766 0.46202 0.51273 0.0
H1202 H 0.54193 0.50849 0.51959 0.0
H1203 H 0.51477 0.5469 0.51499 0.0
H1204 H 0.43689 0.54036 0.47411 0.0
H1205 H 0.44213 0.49357 0.46831 0.0
C1206 C 0.48528 0.46655 0.48307 0.0
C1207 C 0.50896 0.45494 0.49238 0.0
C1208 C 0.48174 0.49326 0.48746 0.0
C1209 C 0.52929 0.47048 0.50517 0.0
C1210 C 0.52597 0.49703 0.50938 0.0
C1211 C 0.49875 0.53522 0.50542 0.0
C1212 C 0.47534 0.54703 0.49547 0.0
C1213 C 0.50221 0.50856 0.50102 0.0
C1214 C 0.455 0.53167 0.48234 0.0
C1215 C 0.45808 0.50497 0.4787 0.0
H1216 H 0.06181 0.35725 0.08174 0.0
H1217 H 0.08088 0.29003 0.01734 0.0
H1218 H 0.1107 0.27548 0.06461 0.0
H1219 H 0.12217 0.27627 0.12965 0.0
H1220 H 0.10125 0.34148 0.19637 0.0
H1221 H 0.08219 0.36289 0.14289 0.0
C1222 C 0.0732 0.33993 0.07765 0.0
C1223 C 0.06869 0.32433 0.04673 0.0
C1224 C 0.08985 0.3312 0.10561 0.0
C1225 C 0.08362 0.30199 0.04146 0.0
C1226 C 0.10069 0.29365 0.06845 0.0
C1227 C 0.11468 0.29577 0.13188 0.0
C1228 C 0.11301 0.30736 0.16654 0.0
C1229 C 0.1027 0.30726 0.10151 0.0
C1230 C 0.10298 0.33242 0.16964 0.0
C1231 C 0.09164 0.34442 0.1392 0.0
H1232 H 0.90971 0.82386 0.30107 0.0
H1233 H 0.87685 0.76092 0.36247 0.0
H1234 H 0.89031 0.78107 0.42011 0.0
H1235 H 0.91973 0.81118 0.45088 0.0
H1236 H 0.95435 0.87338 0.38984 0.0
H1237 H 0.93176 0.85929 0.33404 0.0
C1238 C 0.9044 0.81535 0.32725 0.0
C1239 C 0.89214 0.79118 0.32789 0.0
C1240 C 0.9132 0.82656 0.36009 0.0
C1241 C 0.88588 0.77977 0.36164 0.0
C1242 C 0.89394 0.79109 0.39448 0.0
C1243 C 0.92169 0.82202 0.42551 0.0
C1244 C 0.93886 0.84293 0.42396 0.0
C1245 C 0.90891 0.81363 0.39377 0.0
C1246 C 0.94122 0.85715 0.39137 0.0
C1247 C 0.92843 0.849 0.35952 0.0
H1248 H 0.38389 0.72178 0.62733 0.0
H1249 H 0.414 0.67107 0.71049 0.0
H1250 H 0.43169 0.64249 0.66325 0.0
H1251 H 0.44608 0.6372 0.59889 0.0
H1252 H 0.41783 0.68959 0.51639 0.0
H1253 H 0.39138 0.71175 0.56211 0.0
C1254 C 0.39333 0.70386 0.63486 0.0
C1255 C 0.39751 0.69826 0.67202 0.0
C1256 C 0.40412 0.68799 0.60753 0.0
C1257 C 0.41031 0.67541 0.68183 0.0
C1258 C 0.42066 0.65924 0.65486 0.0
C1259 C 0.43329 0.65277 0.59087 0.0
C1260 C 0.43379 0.66186 0.55458 0.0
C1261 C 0.41878 0.66601 0.61765 0.0
C1262 C 0.41759 0.68235 0.54434 0.0
C1263 C 0.40263 0.69514 0.57049 0.0
H1264 H 0.58832 0.18389 0.82415 0.0
H1265 H 0.56985 0.26016 0.8634 0.0
H1266 H 0.54624 0.24178 0.91521 0.0
H1267 H 0.52672 0.20468 0.94473 0.0
H1268 H 0.54249 0.12781 0.90525 0.0
H1269 H 0.57144 0.14568 0.8581 0.0
C1270 C 0.5798 0.19635 0.84481 0.0
C1271 C 0.58098 0.22332 0.84037 0.0
C1272 C 0.56532 0.18556 0.87382 0.0
C1273 C 0.56936 0.23938 0.86661 0.0
C1274 C 0.55567 0.22887 0.89598 0.0
C1275 C 0.53646 0.1917 0.92588 0.0
C1276 C 0.53197 0.16496 0.92796 0.0
C1277 C 0.55277 0.20208 0.89903 0.0
C1278 C 0.54538 0.14848 0.90396 0.0
C1279 C 0.56192 0.15871 0.87704 0.0
H1280 H 0.0494 0.64026 0.39871 0.0
H1281 H 0.08303 0.69644 0.47159 0.0
H1282 H 0.11143 0.71162 0.42261 0.0
H1283 H 0.11886 0.71566 0.35629 0.0
H1284 H 0.08185 0.66276 0.28202 0.0
H1285 H 0.06325 0.63907 0.33379 0.0
C1286 C 0.06367 0.65512 0.40402 0.0
C1287 C 0.06409 0.66744 0.43833 0.0
C1288 C 0.07914 0.66454 0.37519 0.0
C1289 C 0.08237 0.68688 0.4451 0.0
C1290 C 0.09851 0.69564 0.4171 0.0
C1291 C 0.10778 0.69818 0.35173 0.0
C1292 C 0.10183 0.69072 0.31574 0.0
C1293 C 0.09602 0.68561 0.38155 0.0
C1294 C 0.08688 0.66852 0.30974 0.0
C1295 C 0.07597 0.65522 0.3393 0.0
H1296 H 0.60471 0.81378 0.67304 0.0
H1297 H 0.60207 0.73737 0.62661 0.0
H1298 H 0.58347 0.75456 0.56998 0.0
H1299 H 0.56089 0.78957 0.53914 0.0
H1300 H 0.55959 0.8657 0.58683 0.0
H1301 H 0.58708 0.8506 0.63747 0.0
C1302 C 0.60104 0.80117 0.64982 0.0
C1303 C 0.60496 0.77443 0.65354 0.0
C1304 C 0.58901 0.81107 0.61816 0.0
C1305 C 0.5995 0.75803 0.62393 0.0
C1306 C 0.58858 0.76783 0.59183 0.0
C1307 C 0.56689 0.80299 0.56038 0.0
C1308 C 0.55775 0.82854 0.55984 0.0
C1309 C 0.58207 0.79404 0.58949 0.0
C1310 C 0.5662 0.84588 0.58691 0.0
C1311 C 0.58181 0.8372 0.61588 0.0
H1312 H 0.452 0.3045 0.79453 0.0
H1313 H 0.37929 0.28807 0.84704 0.0
H1314 H 0.39248 0.31359 0.90085 0.0
H1315 H 0.42782 0.33473 0.9362 0.0
H1316 H 0.50078 0.34893 0.88297 0.0
H1317 H 0.48428 0.33072 0.82573 0.0
C1318 C 0.43887 0.30688 0.81755 0.0
C1319 C 0.41496 0.29413 0.81733 0.0
C1320 C 0.4467 0.32123 0.84815 0.0
C1321 C 0.39786 0.29766 0.84684 0.0
C1322 C 0.40548 0.31213 0.87759 0.0
C1323 C 0.43964 0.33465 0.91158 0.0
C1324 C 0.46536 0.34326 0.9134 0.0
C1325 C 0.43025 0.32325 0.87906 0.0
C1326 C 0.48085 0.3426 0.88182 0.0
C1327 C 0.47151 0.33198 0.84928 0.0
H1328 H 0.88615 0.19463 0.16777 0.0
H1329 H 0.95631 0.22617 0.2141 0.0
H1330 H 0.9817 0.20519 0.16738 0.0
H1331 H 0.98446 0.18141 0.11039 0.0
H1332 H 0.91601 0.14955 0.06114 0.0
H1333 H 0.88971 0.1665 0.11208 0.0
C1334 C 0.90697 0.1968 0.16762 0.0
C1335 C 0.91903 0.21263 0.19407 0.0
C1336 C 0.92191 0.18451 0.1402 0.0
C1337 C 0.94617 0.21481 0.19372 0.0
C1338 C 0.96092 0.20262 0.16708 0.0
C1339 C 0.96383 0.17775 0.11122 0.0
C1340 C 0.95213 0.16441 0.08226 0.0
C1341 C 0.94901 0.18795 0.13982 0.0
C1342 C 0.92544 0.1596 0.08352 0.0
C1343 C 0.9104 0.16957 0.11237 0.0
H1344 H 0.93316 0.65335 0.95432 0.0
H1345 H 0.98864 0.61964 0.88038 0.0
H1346 H 0.96603 0.63854 0.82776 0.0
H1347 H 0.93639 0.67185 0.80518 0.0
H1348 H 0.88215 0.70753 0.87915 0.0
H1349 H 0.89784 0.68028 0.92963 0.0
C1350 C 0.93952 0.64931 0.92648 0.0
C1351 C 0.96228 0.6351 0.92082 0.0
C1352 C 0.92691 0.66097 0.89669 0.0
C1353 C 0.9709 0.63024 0.88501 0.0
C1354 C 0.95816 0.6413 0.85509 0.0
C1355 C 0.92749 0.67298 0.83216 0.0
C1356 C 0.90843 0.69168 0.83888 0.0
C1357 C 0.93702 0.65777 0.86088 0.0
C1358 C 0.89682 0.69315 0.8736 0.0
C1359 C 0.90596 0.67776 0.90241 0.0
H1360 H 0.12326 0.19371 0.64477 0.0
H1361 H 0.06983 0.17264 0.73039 0.0
H1362 H 0.04771 0.14308 0.68885 0.0
H1363 H 0.03728 0.13231 0.62496 0.0
H1364 H 0.08928 0.15445 0.53834 0.0
H1365 H 0.11864 0.1739 0.58315 0.0
C1366 C 0.10754 0.18171 0.65457 0.0
C1367 C 0.09796 0.18532 0.69026 0.0
C1368 C 0.0944 0.16527 0.6301 0.0
C1369 C 0.07739 0.17004 0.70284 0.0
C1370 C 0.06462 0.15332 0.67905 0.0
C1371 C 0.0557 0.1402 0.61629 0.0
C1372 C 0.06131 0.14196 0.57874 0.0
C1373 C 0.07199 0.152 0.64209 0.0
C1374 C 0.0849 0.15265 0.56735 0.0
C1375 C 0.10147 0.1641 0.59292 0.0
H1376 H 0.57628 0.32955 0.43782 0.0
H1377 H 0.51864 0.36778 0.37232 0.0
H1378 H 0.53713 0.34908 0.3164 0.0
H1379 H 0.5638 0.31506 0.28865 0.0
H1380 H 0.62064 0.27547 0.35396 0.0
H1381 H 0.60883 0.30173 0.40758 0.0
C1382 C 0.56862 0.33468 0.41105 0.0
C1383 C 0.5464 0.3502 0.40886 0.0
C1384 C 0.57888 0.32314 0.37926 0.0
C1385 C 0.53605 0.35628 0.37437 0.0
C1386 C 0.54641 0.34528 0.34254 0.0
C1387 C 0.57411 0.3128 0.31441 0.0
C1388 C 0.59283 0.2933 0.31773 0.0
C1389 C 0.56693 0.32767 0.34496 0.0
C1390 C 0.60622 0.29045 0.35094 0.0
C1391 C 0.5993 0.30531 0.38158 0.0
H1392 H 0.4502 0.8568 0.06671 0.0
H1393 H 0.49128 0.7869 0.03804 0.0
H1394 H 0.46572 0.76258 0.08101 0.0
H1395 H 0.4345 0.76083 0.12993 0.0
H1396 H 0.39406 0.82938 0.16386 0.0
H1397 H 0.41572 0.85417 0.11501 0.0
C1398 C 0.45351 0.83629 0.06994 0.0
C1399 C 0.47315 0.82403 0.0494 0.0
C1400 C 0.43862 0.82197 0.09539 0.0
C1401 C 0.47683 0.79725 0.05373 0.0
C1402 C 0.46203 0.78308 0.07821 0.0
C1403 C 0.43006 0.78114 0.12627 0.0
C1404 C 0.41289 0.7933 0.15047 0.0
C1405 C 0.44326 0.79525 0.09952 0.0
C1406 C 0.40709 0.81953 0.14526 0.0
C1407 C 0.41978 0.83376 0.1177 0.0
H1408 H 0.91108 0.35285 0.54991 0.0
H1409 H 0.97988 0.37236 0.61022 0.0
H1410 H 0.9623 0.35179 0.66532 0.0
H1411 H 0.93158 0.32133 0.69176 0.0
H1412 H 0.86417 0.29832 0.63071 0.0
H1413 H 0.87656 0.3275 0.58042 0.0
C1414 C 0.92161 0.3535 0.57567 0.0
C1415 C 0.94651 0.36432 0.57651 0.0
C1416 C 0.91185 0.3405 0.60661 0.0
C1417 C 0.9605 0.3645 0.60942 0.0
C1418 C 0.95058 0.35248 0.64067 0.0
C1419 C 0.91932 0.32315 0.66771 0.0
C1420 C 0.8973 0.30747 0.6644 0.0
C1421 C 0.92693 0.33932 0.63892 0.0
C1422 C 0.88126 0.31018 0.63363 0.0
C1423 C 0.88847 0.32671 0.60487 0.0
H1424 H 0.43945 0.17308 0.29311 0.0
H1425 H 0.37861 0.20634 0.35847 0.0
H1426 H 0.39396 0.18257 0.41259 0.0
H1427 H 0.42941 0.15844 0.44282 0.0
H1428 H 0.49048 0.1262 0.3769 0.0
H1429 H 0.47007 0.14282 0.32109 0.0
C1430 C 0.42923 0.1746 0.31907 0.0
C1431 C 0.40823 0.19161 0.3222 0.0
C1432 C 0.43826 0.16104 0.34981 0.0
C1433 C 0.39485 0.19333 0.35563 0.0
C1434 C 0.40373 0.17987 0.38653 0.0
C1435 C 0.43753 0.15416 0.41601 0.0
C1436 C 0.46114 0.1409 0.41361 0.0
C1437 C 0.42603 0.16446 0.38422 0.0
C1438 C 0.47204 0.13597 0.37907 0.0
C1439 C 0.46055 0.14576 0.3473 0.0
H1440 H 0.57399 0.65102 0.06455 0.0
H1441 H 0.50805 0.62884 0.12937 0.0
H1442 H 0.52965 0.64353 0.18526 0.0
H1443 H 0.56256 0.6714 0.21249 0.0
H1444 H 0.62744 0.69658 0.14776 0.0
H1445 H 0.61141 0.67177 0.09496 0.0
C1446 C 0.565 0.64832 0.09121 0.0
C1447 C 0.53966 0.63873 0.09322 0.0
C1448 C 0.57711 0.65798 0.12295 0.0
C1449 C 0.52771 0.63587 0.12754 0.0
C1450 C 0.53992 0.64458 0.15934 0.0
C1451 C 0.57356 0.67073 0.1871 0.0
C1452 C 0.59586 0.68589 0.18354 0.0
C1453 C 0.56391 0.657 0.15696 0.0
C1454 C 0.6102 0.68495 0.15087 0.0
C1455 C 0.60091 0.67096 0.1207 0.0
H1456 H 0.0453 0.81247 0.79313 0.0
H1457 H 0.12142 0.81541 0.84076 0.0
H1458 H 0.10493 0.84264 0.89091 0.0
H1459 H 0.06719 0.85926 0.92592 0.0
H1460 H 0.99106 0.85258 0.87913 0.0
H1461 H 0.00921 0.83361 0.82338 0.0
C1462 C 0.05839 0.81933 0.81427 0.0
C1463 C 0.08438 0.81151 0.81385 0.0
C1464 C 0.04868 0.83432 0.84307 0.0
C1465 C 0.10128 0.82104 0.84076 0.0
C1466 C 0.0918 0.83648 0.86945 0.0
C1467 C 0.0548 0.85449 0.90287 0.0
C1468 C 0.02788 0.85738 0.90626 0.0
C1469 C 0.06533 0.84242 0.87159 0.0
C1470 C 0.01182 0.85064 0.87679 0.0
C1471 C 0.02218 0.8396 0.84515 0.0
loop_
_geom_bond_atom_site_label_1
_geom_bond_atom_site_label_2
_geom_bond_distance
_geom_bond_site_symmetry_2
_ccdc_geom_bond_type
Co0 O1 2.216 . S
Co0 O2 2.091 . S
Co0 O4 2.004 . S
Co0 O10 2.021 . S
Co0 O12 2.137 . S
Co0 O13 2.244 . S
O1 Co0 2.216 . S
O1 C8 1.247 . S
O2 Co0 2.091 . S
O2 C8 1.261 . S
C3 O12 1.247 . S
C3 O13 1.272 . S
O4 Co0 2.004 . S
O4 C9 1.259 . S
Co5 O6 2.061 . S
Co5 O11 2.052 . S
Co5 O13 2.135 . S
O6 Co5 2.061 . S
O6 C9 1.235 . S
C7 O10 1.238 . S
C7 O11 1.241 . S
C8 O1 1.247 . S
C8 O2 1.261 . S
C9 O4 1.259 . S
C9 O6 1.235 . S
O10 Co0 2.021 . S
O10 C7 1.238 . S
O11 Co5 2.052 . S
O11 C7 1.241 . S
O12 Co0 2.137 . S
O12 C3 1.247 . S
O13 Co0 2.244 . S
O13 C3 1.272 . S
O13 Co5 2.135 . S
Co14 O15 2.216 . S
Co14 O16 2.091 . S
Co14 O18 2.004 . S
Co14 O24 2.021 . S
Co14 O26 2.137 . S
Co14 O27 2.244 . S
O15 Co14 2.216 . S
O15 C22 1.247 . S
O16 Co14 2.091 . S
O16 C22 1.261 . S
C17 O26 1.247 . S
C17 O27 1.272 . S
O18 Co14 2.004 . S
O18 C23 1.259 . S
Co19 O20 2.061 . S
Co19 O25 2.052 . S
Co19 O27 2.135 . S
O20 Co19 2.061 . S
O20 C23 1.235 . S
C21 O24 1.238 . S
C21 O25 1.241 . S
C22 O15 1.247 . S
C22 O16 1.261 . S
C23 O18 1.259 . S
C23 O20 1.235 . S
O24 Co14 2.021 . S
O24 C21 1.238 . S
O25 Co19 2.052 . S
O25 C21 1.241 . S
O26 Co14 2.137 . S
O26 C17 1.247 . S
O27 Co14 2.244 . S
O27 C17 1.272 . S
O27 Co19 2.135 . S
Co28 O29 2.216 . S
Co28 O30 2.091 . S
Co28 O32 2.004 . S
Co28 O38 2.021 . S
Co28 O40 2.137 . S
Co28 O41 2.244 . S
O29 Co28 2.216 . S
O29 C36 1.247 . S
O30 Co28 2.091 . S
O30 C36 1.261 . S
C31 O40 1.247 . S
C31 O41 1.272 . S
O32 Co28 2.004 . S
O32 C37 1.259 . S
Co33 O34 2.061 . S
Co33 O39 2.052 . S
Co33 O41 2.135 . S
O34 Co33 2.061 . S
O34 C37 1.235 . S
C35 O38 1.238 . S
C35 O39 1.241 . S
C36 O29 1.247 . S
C36 O30 1.261 . S
C37 O32 1.259 . S
C37 O34 1.235 . S
O38 Co28 2.021 . S
O38 C35 1.238 . S
O39 Co33 2.052 . S
O39 C35 1.241 . S
O40 Co28 2.137 . S
O40 C31 1.247 . S
O41 Co28 2.244 . S
O41 C31 1.272 . S
O41 Co33 2.135 . S
Co42 O43 2.216 . S
Co42 O44 2.091 . S
Co42 O46 2.004 . S
Co42 O52 2.022 . S
Co42 O54 2.137 . S
Co42 O55 2.244 . S
O43 Co42 2.216 . S
O43 C50 1.247 . S
O44 Co42 2.091 . S
O44 C50 1.261 . S
C45 O54 1.247 . S
C45 O55 1.272 . S
O46 Co42 2.004 . S
O46 C51 1.259 . S
Co47 O48 2.061 . S
Co47 O53 2.052 1_554 S
Co47 O55 2.135 . S
O48 Co47 2.061 . S
O48 C51 1.235 . S
C49 O52 1.237 1_556 S
C49 O53 1.241 . S
C50 O43 1.247 . S
C50 O44 1.261 . S
C51 O46 1.259 . S
C51 O48 1.235 . S
O52 Co42 2.022 . S
O52 C49 1.237 1_554 S
O53 Co47 2.052 1_556 S
O53 C49 1.241 . S
O54 Co42 2.137 . S
O54 C45 1.247 . S
O55 Co42 2.244 . S
O55 C45 1.272 . S
O55 Co47 2.135 . S
Co56 O57 2.216 . S
Co56 O58 2.091 . S
Co56 O60 2.004 . S
Co56 O66 2.021 . S
Co56 O68 2.137 . S
Co56 O69 2.244 . S
O57 Co56 2.216 . S
O57 C64 1.247 . S
O58 Co56 2.091 . S
O58 C64 1.261 . S
C59 O68 1.247 . S
C59 O69 1.272 . S
O60 Co56 2.004 . S
O60 C65 1.259 . S
Co61 O62 2.061 . S
Co61 O67 2.052 . S
Co61 O69 2.135 . S
O62 Co61 2.061 . S
O62 C65 1.235 . S
C63 O66 1.238 . S
C63 O67 1.241 . S
C64 O57 1.247 . S
C64 O58 1.261 . S
C65 O60 1.259 . S
C65 O62 1.235 . S
O66 Co56 2.021 . S
O66 C63 1.238 . S
O67 Co61 2.052 . S
O67 C63 1.241 . S
O68 Co56 2.137 . S
O68 C59 1.247 . S
O69 Co56 2.244 . S
O69 C59 1.272 . S
O69 Co61 2.135 . S
Co70 O71 2.216 . S
Co70 O72 2.091 . S
Co70 O74 2.004 . S
Co70 O80 2.021 . S
Co70 O82 2.137 . S
Co70 O83 2.244 . S
O71 Co70 2.216 . S
O71 C78 1.247 . S
O72 Co70 2.091 . S
O72 C78 1.261 . S
C73 O82 1.247 . S
C73 O83 1.272 . S
O74 Co70 2.004 . S
O74 C79 1.259 . S
Co75 O76 2.061 . S
Co75 O81 2.052 . S
Co75 O83 2.135 . S
O76 Co75 2.061 . S
O76 C79 1.235 . S
C77 O80 1.238 . S
C77 O81 1.241 . S
C78 O71 1.247 . S
C78 O72 1.261 . S
C79 O74 1.259 . S
C79 O76 1.235 . S
O80 Co70 2.021 . S
O80 C77 1.238 . S
O81 Co75 2.052 . S
O81 C77 1.241 . S
O82 Co70 2.137 . S
O82 C73 1.247 . S
O83 Co70 2.244 . S
O83 C73 1.272 . S
O83 Co75 2.135 . S
Co84 O85 2.216 . S
Co84 O86 2.091 . S
Co84 O88 2.004 . S
Co84 O94 2.021 . S
Co84 O96 2.137 . S
Co84 O97 2.244 . S
O85 Co84 2.216 . S
O85 C92 1.247 . S
O86 Co84 2.091 . S
O86 C92 1.261 . S
C87 O96 1.247 . S
C87 O97 1.272 . S
O88 Co84 2.004 . S
O88 C93 1.259 . S
Co89 O90 2.061 . S
Co89 O95 2.052 . S
Co89 O97 2.135 . S
O90 Co89 2.061 . S
O90 C93 1.235 . S
C91 O94 1.238 . S
C91 O95 1.241 . S
C92 O85 1.247 . S
C92 O86 1.261 . S
C93 O88 1.259 . S
C93 O90 1.235 . S
O94 Co84 2.021 . S
O94 C91 1.238 . S
O95 Co89 2.052 . S
O95 C91 1.241 . S
O96 Co84 2.137 . S
O96 C87 1.247 . S
O97 Co84 2.244 . S
O97 C87 1.272 . S
O97 Co89 2.135 . S
Co98 O99 2.216 . S
Co98 O100 2.091 . S
Co98 O102 2.004 . S
Co98 O108 2.022 . S
Co98 O110 2.137 . S
Co98 O111 2.244 . S
O99 Co98 2.216 . S
O99 C106 1.247 . S
O100 Co98 2.091 . S
O100 C106 1.261 . S
C101 O110 1.247 . S
C101 O111 1.272 . S
O102 Co98 2.004 . S
O102 C107 1.259 . S
Co103 O104 2.061 . S
Co103 O109 2.052 1_556 S
Co103 O111 2.135 . S
O104 Co103 2.061 . S
O104 C107 1.235 . S
C105 O108 1.237 1_554 S
C105 O109 1.241 . S
C106 O99 1.247 . S
C106 O100 1.261 . S
C107 O102 1.259 . S
C107 O104 1.235 . S
O108 Co98 2.022 . S
O108 C105 1.237 1_556 S
O109 Co103 2.052 1_554 S
O109 C105 1.241 . S
O110 Co98 2.137 . S
O110 C101 1.247 . S
O111 Co98 2.244 . S
O111 C101 1.272 . S
O111 Co103 2.135 . S
Co112 O113 2.216 . S
Co112 O114 2.091 . S
Co112 O116 2.004 . S
Co112 O122 2.021 . S
Co112 O124 2.137 . S
Co112 O125 2.244 . S
O113 Co112 2.216 . S
O113 C120 1.247 . S
O114 Co112 2.091 . S
O114 C120 1.261 . S
C115 O124 1.247 . S
C115 O125 1.272 . S
O116 Co112 2.004 . S
O116 C121 1.259 . S
Co117 O118 2.061 . S
Co117 O123 2.052 . S
Co117 O125 2.135 . S
O118 Co117 2.061 . S
O118 C121 1.235 . S
C119 O122 1.238 . S
C119 O123 1.241 . S
C120 O113 1.247 . S
C120 O114 1.261 . S
C121 O116 1.259 . S
C121 O118 1.235 . S
O122 Co112 2.021 . S
O122 C119 1.238 . S
O123 Co117 2.052 . S
O123 C119 1.241 . S
O124 Co112 2.137 . S
O124 C115 1.247 . S
O125 Co112 2.244 . S
O125 C115 1.272 . S
O125 Co117 2.135 . S
Co126 O127 2.216 . S
Co126 O128 2.091 . S
Co126 O130 2.004 . S
Co126 O136 2.021 . S
Co126 O138 2.137 . S
Co126 O139 2.244 . S
O127 Co126 2.216 . S
O127 C134 1.247 . S
O128 Co126 2.091 . S
O128 C134 1.261 . S
C129 O138 1.247 . S
C129 O139 1.272 . S
O130 Co126 2.004 . S
O130 C135 1.259 . S
Co131 O132 2.061 . S
Co131 O137 2.052 . S
Co131 O139 2.135 . S
O132 Co131 2.061 . S
O132 C135 1.235 . S
C133 O136 1.238 . S
C133 O137 1.241 . S
C134 O127 1.247 . S
C134 O128 1.261 . S
C135 O130 1.259 . S
C135 O132 1.235 . S
O136 Co126 2.021 . S
O136 C133 1.238 . S
O137 Co131 2.052 . S
O137 C133 1.241 . S
O138 Co126 2.137 . S
O138 C129 1.247 . S
O139 Co126 2.244 . S
O139 C129 1.272 . S
O139 Co131 2.135 . S
Co140 O141 2.216 . S
Co140 O142 2.091 . S
Co140 O144 2.004 . S
Co140 O150 2.021 . S
Co140 O152 2.137 . S
Co140 O153 2.244 . S
O141 Co140 2.216 . S
O141 C148 1.247 . S
O142 Co140 2.091 . S
O142 C148 1.261 . S
C143 O152 1.247 . S
C143 O153 1.272 . S
O144 Co140 2.004 . S
O144 C149 1.259 . S
Co145 O146 2.061 . S
Co145 O151 2.052 . S
Co145 O153 2.135 . S
O146 Co145 2.061 . S
O146 C149 1.235 . S
C147 O150 1.238 . S
C147 O151 1.241 . S
C148 O141 1.247 . S
C148 O142 1.261 . S
C149 O144 1.259 . S
C149 O146 1.235 . S
O150 Co140 2.021 . S
O150 C147 1.238 . S
O151 Co145 2.052 . S
O151 C147 1.241 . S
O152 Co140 2.137 . S
O152 C143 1.247 . S
O153 Co140 2.244 . S
O153 C143 1.272 . S
O153 Co145 2.135 . S
Co154 O155 2.216 . S
Co154 O156 2.091 . S
Co154 O158 2.004 . S
Co154 O164 2.022 . S
Co154 O166 2.137 . S
Co154 O167 2.244 . S
O155 Co154 2.216 . S
O155 C162 1.247 . S
O156 Co154 2.091 . S
O156 C162 1.261 . S
C157 O166 1.247 . S
C157 O167 1.272 . S
O158 Co154 2.004 . S
O158 C163 1.259 . S
Co159 O160 2.061 . S
Co159 O165 2.052 1_556 S
Co159 O167 2.135 . S
O160 Co159 2.061 . S
O160 C163 1.235 . S
C161 O164 1.237 1_554 S
C161 O165 1.241 . S
C162 O155 1.247 . S
C162 O156 1.261 . S
C163 O158 1.259 . S
C163 O160 1.235 . S
O164 Co154 2.022 . S
O164 C161 1.237 1_556 S
O165 Co159 2.052 1_554 S
O165 C161 1.241 . S
O166 Co154 2.137 . S
O166 C157 1.247 . S
O167 Co154 2.244 . S
O167 C157 1.272 . S
O167 Co159 2.135 . S
Co168 O169 2.216 . S
Co168 O170 2.091 . S
Co168 O172 2.004 . S
Co168 O178 2.021 . S
Co168 O180 2.137 . S
Co168 O181 2.244 . S
O169 Co168 2.216 . S
O169 C176 1.247 . S
O170 Co168 2.091 . S
O170 C176 1.261 . S
C171 O180 1.247 . S
C171 O181 1.272 . S
O172 Co168 2.004 . S
O172 C177 1.259 . S
Co173 O174 2.061 . S
Co173 O179 2.052 . S
Co173 O181 2.135 . S
O174 Co173 2.061 . S
O174 C177 1.235 . S
C175 O178 1.238 . S
C175 O179 1.241 . S
C176 O169 1.247 . S
C176 O170 1.261 . S
C177 O172 1.259 . S
C177 O174 1.235 . S
O178 Co168 2.021 . S
O178 C175 1.238 . S
O179 Co173 2.052 . S
O179 C175 1.241 . S
O180 Co168 2.137 . S
O180 C171 1.247 . S
O181 Co168 2.244 . S
O181 C171 1.272 . S
O181 Co173 2.135 . S
Co182 O183 2.216 . S
Co182 O184 2.091 . S
Co182 O186 2.004 . S
Co182 O192 2.021 . S
Co182 O194 2.137 . S
Co182 O195 2.244 . S
O183 Co182 2.216 . S
O183 C190 1.247 . S
O184 Co182 2.091 . S
O184 C190 1.261 . S
C185 O194 1.247 . S
C185 O195 1.272 . S
O186 Co182 2.004 . S
O186 C191 1.259 . S
Co187 O188 2.061 . S
Co187 O193 2.052 . S
Co187 O195 2.135 . S
O188 Co187 2.061 . S
O188 C191 1.235 . S
C189 O192 1.238 . S
C189 O193 1.241 . S
C190 O183 1.247 . S
C190 O184 1.261 . S
C191 O186 1.259 . S
C191 O188 1.235 . S
O192 Co182 2.021 . S
O192 C189 1.238 . S
O193 Co187 2.052 . S
O193 C189 1.241 . S
O194 Co182 2.137 . S
O194 C185 1.247 . S
O195 Co182 2.244 . S
O195 C185 1.272 . S
O195 Co187 2.135 . S
Co196 O197 2.216 . S
Co196 O198 2.091 . S
Co196 O200 2.004 . S
Co196 O206 2.021 . S
Co196 O208 2.137 . S
Co196 O209 2.244 . S
O197 Co196 2.216 . S
O197 C204 1.247 . S
O198 Co196 2.091 . S
O198 C204 1.261 . S
C199 O208 1.247 . S
C199 O209 1.272 . S
O200 Co196 2.004 . S
O200 C205 1.259 . S
Co201 O202 2.061 . S
Co201 O207 2.052 . S
Co201 O209 2.135 . S
O202 Co201 2.061 . S
O202 C205 1.235 . S
C203 O206 1.238 . S
C203 O207 1.241 . S
C204 O197 1.247 . S
C204 O198 1.261 . S
C205 O200 1.259 . S
C205 O202 1.235 . S
O206 Co196 2.021 . S
O206 C203 1.238 . S
O207 Co201 2.052 . S
O207 C203 1.241 . S
O208 Co196 2.137 . S
O208 C199 1.247 . S
O209 Co196 2.244 . S
O209 C199 1.272 . S
O209 Co201 2.135 . S
Co210 O211 2.216 . S
Co210 O212 2.091 . S
Co210 O214 2.004 . S
Co210 O220 2.022 . S
Co210 O222 2.137 . S
Co210 O223 2.244 . S
O211 Co210 2.216 . S
O211 C218 1.247 . S
O212 Co210 2.091 . S
O212 C218 1.261 . S
C213 O222 1.247 . S
C213 O223 1.272 . S
O214 Co210 2.004 . S
O214 C219 1.259 . S
Co215 O216 2.061 . S
Co215 O221 2.052 1_554 S
Co215 O223 2.135 . S
O216 Co215 2.061 . S
O216 C219 1.235 . S
C217 O220 1.237 1_556 S
C217 O221 1.241 . S
C218 O211 1.247 . S
C218 O212 1.261 . S
C219 O214 1.259 . S
C219 O216 1.235 . S
O220 Co210 2.022 . S
O220 C217 1.237 1_554 S
O221 Co215 2.052 1_556 S
O221 C217 1.241 . S
O222 Co210 2.137 . S
O222 C213 1.247 . S
O223 Co210 2.244 . S
O223 C213 1.272 . S
O223 Co215 2.135 . S
Co224 O225 2.216 . S
Co224 O226 2.091 . S
Co224 O228 2.004 . S
Co224 O234 2.021 . S
Co224 O236 2.137 . S
Co224 O237 2.244 . S
O225 Co224 2.216 . S
O225 C232 1.247 . S
O226 Co224 2.091 . S
O226 C232 1.261 . S
C227 O236 1.247 . S
C227 O237 1.272 . S
O228 Co224 2.004 . S
O228 C233 1.259 . S
Co229 O230 2.061 . S
Co229 O235 2.052 . S
Co229 O237 2.135 . S
O230 Co229 2.061 . S
O230 C233 1.235 . S
C231 O234 1.238 . S
C231 O235 1.241 . S
C232 O225 1.247 . S
C232 O226 1.261 . S
C233 O228 1.259 . S
C233 O230 1.235 . S
O234 Co224 2.021 . S
O234 C231 1.238 . S
O235 Co229 2.052 . S
O235 C231 1.241 . S
O236 Co224 2.137 . S
O236 C227 1.247 . S
O237 Co224 2.244 . S
O237 C227 1.272 . S
O237 Co229 2.135 . S
Co238 O239 2.216 . S
Co238 O240 2.091 . S
Co238 O242 2.004 . S
Co238 O248 2.022 . S
Co238 O250 2.137 . S
Co238 O251 2.244 . S
O239 Co238 2.216 . S
O239 C246 1.247 . S
O240 Co238 2.091 . S
O240 C246 1.261 . S
C241 O250 1.247 . S
C241 O251 1.272 . S
O242 Co238 2.004 . S
O242 C247 1.259 . S
Co243 O244 2.061 . S
Co243 O249 2.052 1_554 S
Co243 O251 2.135 . S
O244 Co243 2.061 . S
O244 C247 1.235 . S
C245 O248 1.237 1_556 S
C245 O249 1.241 . S
C246 O239 1.247 . S
C246 O240 1.261 . S
C247 O242 1.259 . S
C247 O244 1.235 . S
O248 Co238 2.022 . S
O248 C245 1.237 1_554 S
O249 Co243 2.052 1_556 S
O249 C245 1.241 . S
O250 Co238 2.137 . S
O250 C241 1.247 . S
O251 Co238 2.244 . S
O251 C241 1.272 . S
O251 Co243 2.135 . S
Co252 O253 2.216 . S
Co252 O254 2.091 . S
Co252 O256 2.004 . S
Co252 O262 2.021 . S
Co252 O264 2.137 . S
Co252 O265 2.244 . S
O253 Co252 2.216 . S
O253 C260 1.247 . S
O254 Co252 2.091 . S
O254 C260 1.261 . S
C255 O264 1.247 . S
C255 O265 1.272 . S
O256 Co252 2.004 . S
O256 C261 1.259 . S
Co257 O258 2.061 . S
Co257 O263 2.052 . S
Co257 O265 2.135 . S
O258 Co257 2.061 . S
O258 C261 1.235 . S
C259 O262 1.238 . S
C259 O263 1.241 . S
C260 O253 1.247 . S
C260 O254 1.261 . S
C261 O256 1.259 . S
C261 O258 1.235 . S
O262 Co252 2.021 . S
O262 C259 1.238 . S
O263 Co257 2.052 . S
O263 C259 1.241 . S
O264 Co252 2.137 . S
O264 C255 1.247 . S
O265 Co252 2.244 . S
O265 C255 1.272 . S
O265 Co257 2.135 . S
Co266 O267 2.216 . S
Co266 O268 2.091 . S
Co266 O270 2.004 . S
Co266 O276 2.021 . S
Co266 O278 2.137 . S
Co266 O279 2.244 . S
O267 Co266 2.216 . S
O267 C274 1.247 . S
O268 Co266 2.091 . S
O268 C274 1.261 . S
C269 O278 1.247 . S
C269 O279 1.272 . S
O270 Co266 2.004 . S
O270 C275 1.259 . S
Co271 O272 2.061 . S
Co271 O277 2.052 . S
Co271 O279 2.135 . S
O272 Co271 2.061 . S
O272 C275 1.235 . S
C273 O276 1.238 . S
C273 O277 1.241 . S
C274 O267 1.247 . S
C274 O268 1.261 . S
C275 O270 1.259 . S
C275 O272 1.235 . S
O276 Co266 2.021 . S
O276 C273 1.238 . S
O277 Co271 2.052 . S
O277 C273 1.241 . S
O278 Co266 2.137 . S
O278 C269 1.247 . S
O279 Co266 2.244 . S
O279 C269 1.272 . S
O279 Co271 2.135 . S
Co280 O281 2.216 . S
Co280 O282 2.091 . S
Co280 O284 2.004 . S
Co280 O290 2.021 . S
Co280 O292 2.137 . S
Co280 O293 2.244 . S
O281 Co280 2.216 . S
O281 C288 1.247 . S
O282 Co280 2.091 . S
O282 C288 1.261 . S
C283 O292 1.247 . S
C283 O293 1.272 . S
O284 Co280 2.004 . S
O284 C289 1.259 . S
Co285 O286 2.061 . S
Co285 O291 2.052 . S
Co285 O293 2.135 . S
O286 Co285 2.061 . S
O286 C289 1.235 . S
C287 O290 1.238 . S
C287 O291 1.241 . S
C288 O281 1.247 . S
C288 O282 1.261 . S
C289 O284 1.259 . S
C289 O286 1.235 . S
O290 Co280 2.021 . S
O290 C287 1.238 . S
O291 Co285 2.052 . S
O291 C287 1.241 . S
O292 Co280 2.137 . S
O292 C283 1.247 . S
O293 Co280 2.244 . S
O293 C283 1.272 . S
O293 Co285 2.135 . S
Co294 O295 2.216 . S
Co294 O296 2.091 . S
Co294 O298 2.004 . S
Co294 O304 2.022 . S
Co294 O306 2.137 . S
Co294 O307 2.244 . S
O295 Co294 2.216 . S
O295 C302 1.247 . S
O296 Co294 2.091 . S
O296 C302 1.261 . S
C297 O306 1.247 . S
C297 O307 1.272 . S
O298 Co294 2.004 . S
O298 C303 1.259 . S
Co299 O300 2.061 . S
Co299 O305 2.052 1_556 S
Co299 O307 2.135 . S
O300 Co299 2.061 . S
O300 C303 1.235 . S
C301 O304 1.237 1_554 S
C301 O305 1.241 . S
C302 O295 1.247 . S
C302 O296 1.261 . S
C303 O298 1.259 . S
C303 O300 1.235 . S
O304 Co294 2.022 . S
O304 C301 1.237 1_556 S
O305 Co299 2.052 1_554 S
O305 C301 1.241 . S
O306 Co294 2.137 . S
O306 C297 1.247 . S
O307 Co294 2.244 . S
O307 C297 1.272 . S
O307 Co299 2.135 . S
Co308 O309 2.216 . S
Co308 O310 2.091 . S
Co308 O312 2.004 . S
Co308 O318 2.021 . S
Co308 O320 2.137 . S
Co308 O321 2.244 . S
O309 Co308 2.216 . S
O309 C316 1.247 . S
O310 Co308 2.091 . S
O310 C316 1.261 . S
C311 O320 1.247 . S
C311 O321 1.272 . S
O312 Co308 2.004 . S
O312 C317 1.259 . S
Co313 O314 2.061 . S
Co313 O319 2.052 . S
Co313 O321 2.135 . S
O314 Co313 2.061 . S
O314 C317 1.235 . S
C315 O318 1.238 . S
C315 O319 1.241 . S
C316 O309 1.247 . S
C316 O310 1.261 . S
C317 O312 1.259 . S
C317 O314 1.235 . S
O318 Co308 2.021 . S
O318 C315 1.238 . S
O319 Co313 2.052 . S
O319 C315 1.241 . S
O320 Co308 2.137 . S
O320 C311 1.247 . S
O321 Co308 2.244 . S
O321 C311 1.272 . S
O321 Co313 2.135 . S
Co322 O323 2.216 . S
Co322 O324 2.091 . S
Co322 O326 2.004 . S
Co322 O332 2.021 . S
Co322 O334 2.137 . S
Co322 O335 2.244 . S
O323 Co322 2.216 . S
O323 C330 1.247 . S
O324 Co322 2.091 . S
O324 C330 1.261 . S
C325 O334 1.247 . S
C325 O335 1.272 . S
O326 Co322 2.004 . S
O326 C331 1.259 . S
Co327 O328 2.061 . S
Co327 O333 2.052 . S
Co327 O335 2.135 . S
O328 Co327 2.061 . S
O328 C331 1.235 . S
C329 O332 1.238 . S
C329 O333 1.241 . S
C330 O323 1.247 . S
C330 O324 1.261 . S
C331 O326 1.259 . S
C331 O328 1.235 . S
O332 Co322 2.021 . S
O332 C329 1.238 . S
O333 Co327 2.052 . S
O333 C329 1.241 . S
O334 Co322 2.137 . S
O334 C325 1.247 . S
O335 Co322 2.244 . S
O335 C325 1.272 . S
O335 Co327 2.135 . S
Co336 O337 2.216 . S
Co336 O338 2.091 . S
Co336 O340 2.004 . S
Co336 O346 2.021 . S
Co336 O348 2.137 . S
Co336 O349 2.244 . S
O337 Co336 2.216 . S
O337 C344 1.247 . S
O338 Co336 2.091 . S
O338 C344 1.261 . S
C339 O348 1.247 . S
C339 O349 1.272 . S
O340 Co336 2.004 . S
O340 C345 1.259 . S
Co341 O342 2.061 . S
Co341 O347 2.052 . S
Co341 O349 2.135 . S
O342 Co341 2.061 . S
O342 C345 1.235 . S
C343 O346 1.238 . S
C343 O347 1.241 . S
C344 O337 1.247 . S
C344 O338 1.261 . S
C345 O340 1.259 . S
C345 O342 1.235 . S
O346 Co336 2.021 . S
O346 C343 1.238 . S
O347 Co341 2.052 . S
O347 C343 1.241 . S
O348 Co336 2.137 . S
O348 C339 1.247 . S
O349 Co336 2.244 . S
O349 C339 1.272 . S
O349 Co341 2.135 . S
Co350 O351 2.216 . S
Co350 O352 2.091 . S
Co350 O354 2.004 . S
Co350 O360 2.022 . S
Co350 O362 2.137 . S
Co350 O363 2.244 . S
O351 Co350 2.216 . S
O351 C358 1.247 . S
O352 Co350 2.091 . S
O352 C358 1.261 . S
C353 O362 1.247 . S
C353 O363 1.272 . S
O354 Co350 2.004 . S
O354 C359 1.259 . S
Co355 O356 2.061 . S
Co355 O361 2.052 1_556 S
Co355 O363 2.135 . S
O356 Co355 2.061 . S
O356 C359 1.235 . S
C357 O360 1.237 1_554 S
C357 O361 1.241 . S
C358 O351 1.247 . S
C358 O352 1.261 . S
C359 O354 1.259 . S
C359 O356 1.235 . S
O360 Co350 2.022 . S
O360 C357 1.237 1_556 S
O361 Co355 2.052 1_554 S
O361 C357 1.241 . S
O362 Co350 2.137 . S
O362 C353 1.247 . S
O363 Co350 2.244 . S
O363 C353 1.272 . S
O363 Co355 2.135 . S
Co364 O365 2.216 . S
Co364 O366 2.091 . S
Co364 O368 2.004 . S
Co364 O374 2.021 . S
Co364 O376 2.137 . S
Co364 O377 2.244 . S
O365 Co364 2.216 . S
O365 C372 1.247 . S
O366 Co364 2.091 . S
O366 C372 1.261 . S
C367 O376 1.247 . S
C367 O377 1.272 . S
O368 Co364 2.004 . S
O368 C373 1.259 . S
Co369 O370 2.061 . S
Co369 O375 2.052 . S
Co369 O377 2.135 . S
O370 Co369 2.061 . S
O370 C373 1.235 . S
C371 O374 1.238 . S
C371 O375 1.241 . S
C372 O365 1.247 . S
C372 O366 1.261 . S
C373 O368 1.259 . S
C373 O370 1.235 . S
O374 Co364 2.021 . S
O374 C371 1.238 . S
O375 Co369 2.052 . S
O375 C371 1.241 . S
O376 Co364 2.137 . S
O376 C367 1.247 . S
O377 Co364 2.244 . S
O377 C367 1.272 . S
O377 Co369 2.135 . S
Co378 O379 2.216 . S
Co378 O380 2.091 . S
Co378 O382 2.004 . S
Co378 O388 2.021 . S
Co378 O390 2.137 . S
Co378 O391 2.244 . S
O379 Co378 2.216 . S
O379 C386 1.247 . S
O380 Co378 2.091 . S
O380 C386 1.261 . S
C381 O390 1.247 . S
C381 O391 1.272 . S
O382 Co378 2.004 . S
O382 C387 1.259 . S
Co383 O384 2.061 . S
Co383 O389 2.052 . S
Co383 O391 2.135 . S
O384 Co383 2.061 . S
O384 C387 1.235 . S
C385 O388 1.238 . S
C385 O389 1.241 . S
C386 O379 1.247 . S
C386 O380 1.261 . S
C387 O382 1.259 . S
C387 O384 1.235 . S
O388 Co378 2.021 . S
O388 C385 1.238 . S
O389 Co383 2.052 . S
O389 C385 1.241 . S
O390 Co378 2.137 . S
O390 C381 1.247 . S
O391 Co378 2.244 . S
O391 C381 1.272 . S
O391 Co383 2.135 . S
Co392 O393 2.216 . S
Co392 O394 2.091 . S
Co392 O396 2.004 . S
Co392 O402 2.021 . S
Co392 O404 2.137 . S
Co392 O405 2.244 . S
O393 Co392 2.216 . S
O393 C400 1.247 . S
O394 Co392 2.091 . S
O394 C400 1.261 . S
C395 O404 1.247 . S
C395 O405 1.272 . S
O396 Co392 2.004 . S
O396 C401 1.259 . S
Co397 O398 2.061 . S
Co397 O403 2.052 . S
Co397 O405 2.135 . S
O398 Co397 2.061 . S
O398 C401 1.235 . S
C399 O402 1.238 . S
C399 O403 1.241 . S
C400 O393 1.247 . S
C400 O394 1.261 . S
C401 O396 1.259 . S
C401 O398 1.235 . S
O402 Co392 2.021 . S
O402 C399 1.238 . S
O403 Co397 2.052 . S
O403 C399 1.241 . S
O404 Co392 2.137 . S
O404 C395 1.247 . S
O405 Co392 2.244 . S
O405 C395 1.272 . S
O405 Co397 2.135 . S
Co406 O407 2.216 . S
Co406 O408 2.091 . S
Co406 O410 2.004 . S
Co406 O416 2.022 . S
Co406 O418 2.137 . S
Co406 O419 2.244 . S
O407 Co406 2.216 . S
O407 C414 1.247 . S
O408 Co406 2.091 . S
O408 C414 1.261 . S
C409 O418 1.247 . S
C409 O419 1.272 . S
O410 Co406 2.004 . S
O410 C415 1.259 . S
Co411 O412 2.061 . S
Co411 O417 2.052 1_554 S
Co411 O419 2.135 . S
O412 Co411 2.061 . S
O412 C415 1.235 . S
C413 O416 1.237 1_556 S
C413 O417 1.241 . S
C414 O407 1.247 . S
C414 O408 1.261 . S
C415 O410 1.259 . S
C415 O412 1.235 . S
O416 Co406 2.022 . S
O416 C413 1.237 1_554 S
O417 Co411 2.052 1_556 S
O417 C413 1.241 . S
O418 Co406 2.137 . S
O418 C409 1.247 . S
O419 Co406 2.244 . S
O419 C409 1.272 . S
O419 Co411 2.135 . S
Co420 O421 2.216 . S
Co420 O422 2.091 . S
Co420 O424 2.004 . S
Co420 O430 2.021 . S
Co420 O432 2.137 . S
Co420 O433 2.244 . S
O421 Co420 2.216 . S
O421 C428 1.247 . S
O422 Co420 2.091 . S
O422 C428 1.261 . S
C423 O432 1.247 . S
C423 O433 1.272 . S
O424 Co420 2.004 . S
O424 C429 1.259 . S
Co425 O426 2.061 . S
Co425 O431 2.052 . S
Co425 O433 2.135 . S
O426 Co425 2.061 . S
O426 C429 1.235 . S
C427 O430 1.238 . S
C427 O431 1.241 . S
C428 O421 1.247 . S
C428 O422 1.261 . S
C429 O424 1.259 . S
C429 O426 1.235 . S
O430 Co420 2.021 . S
O430 C427 1.238 . S
O431 Co425 2.052 . S
O431 C427 1.241 . S
O432 Co420 2.137 . S
O432 C423 1.247 . S
O433 Co420 2.244 . S
O433 C423 1.272 . S
O433 Co425 2.135 . S
Co434 O435 2.216 . S
Co434 O436 2.091 . S
Co434 O438 2.004 . S
Co434 O444 2.021 . S
Co434 O446 2.137 . S
Co434 O447 2.244 . S
O435 Co434 2.216 . S
O435 C442 1.247 . S
O436 Co434 2.091 . S
O436 C442 1.261 . S
C437 O446 1.247 . S
C437 O447 1.272 . S
O438 Co434 2.004 . S
O438 C443 1.259 . S
Co439 O440 2.061 . S
Co439 O445 2.052 . S
Co439 O447 2.135 . S
O440 Co439 2.061 . S
O440 C443 1.235 . S
C441 O444 1.238 . S
C441 O445 1.241 . S
C442 O435 1.247 . S
C442 O436 1.261 . S
C443 O438 1.259 . S
C443 O440 1.235 . S
O444 Co434 2.021 . S
O444 C441 1.238 . S
O445 Co439 2.052 . S
O445 C441 1.241 . S
O446 Co434 2.137 . S
O446 C437 1.247 . S
O447 Co434 2.244 . S
O447 C437 1.272 . S
O447 Co439 2.135 . S
H448 C454 0.930 . S
H449 C457 0.930 . S
H450 C458 0.930 . S
H451 C459 0.930 . S
H452 C462 0.930 . S
H453 C463 0.930 . S
C454 H448 0.930 . S
C454 C455 1.355 . S
C454 C456 1.415 . S
C455 C454 1.355 . S
C455 C457 1.419 . S
C456 C454 1.415 . S
C456 C461 1.425 . S
C456 C463 1.409 . S
C457 H449 0.930 . S
C457 C455 1.419 . S
C457 C458 1.362 . S
C458 H450 0.930 . S
C458 C457 1.362 . S
C458 C461 1.409 . S
C459 H451 0.930 . S
C459 C460 1.355 . S
C459 C461 1.415 . S
C460 C459 1.355 . S
C460 C462 1.419 . S
C461 C456 1.425 . S
C461 C458 1.409 . S
C461 C459 1.415 . S
C462 H452 0.930 . S
C462 C460 1.419 . S
C462 C463 1.362 . S
C463 H453 0.930 . S
C463 C456 1.409 . S
C463 C462 1.362 . S
H464 C470 0.930 . S
H465 C473 0.930 . S
H466 C474 0.930 . S
H467 C475 0.930 . S
H468 C478 0.930 . S
H469 C479 0.930 . S
C470 H464 0.930 . S
C470 C471 1.355 . S
C470 C472 1.415 . S
C471 C470 1.355 . S
C471 C473 1.419 . S
C472 C470 1.415 . S
C472 C477 1.425 . S
C472 C479 1.409 . S
C473 H465 0.930 . S
C473 C471 1.419 . S
C473 C474 1.362 . S
C474 H466 0.930 . S
C474 C473 1.362 . S
C474 C477 1.409 . S
C475 H467 0.930 . S
C475 C476 1.355 . S
C475 C477 1.415 . S
C476 C475 1.355 . S
C476 C478 1.419 . S
C477 C472 1.425 . S
C477 C474 1.409 . S
C477 C475 1.415 . S
C478 H468 0.930 . S
C478 C476 1.419 . S
C478 C479 1.362 . S
C479 H469 0.930 . S
C479 C472 1.409 . S
C479 C478 1.362 . S
H480 C486 0.930 . S
H481 C489 0.930 . S
H482 C490 0.930 . S
H483 C491 0.930 . S
H484 C494 0.930 . S
H485 C495 0.930 . S
C486 H480 0.930 . S
C486 C487 1.355 . S
C486 C488 1.415 . S
C487 C486 1.355 . S
C487 C489 1.419 . S
C488 C486 1.415 . S
C488 C493 1.425 . S
C488 C495 1.409 . S
C489 H481 0.930 . S
C489 C487 1.419 . S
C489 C490 1.362 . S
C490 H482 0.930 . S
C490 C489 1.362 . S
C490 C493 1.409 . S
C491 H483 0.930 . S
C491 C492 1.355 . S
C491 C493 1.415 . S
C492 C491 1.355 . S
C492 C494 1.419 . S
C493 C488 1.425 . S
C493 C490 1.409 . S
C493 C491 1.415 . S
C494 H484 0.930 . S
C494 C492 1.419 . S
C494 C495 1.362 . S
C495 H485 0.930 . S
C495 C488 1.409 . S
C495 C494 1.362 . S
H496 C502 0.930 . S
H497 C505 0.930 . S
H498 C506 0.930 . S
H499 C507 0.930 . S
H500 C510 0.930 . S
H501 C511 0.930 . S
C502 H496 0.930 . S
C502 C503 1.355 . S
C502 C504 1.415 . S
C503 C502 1.355 . S
C503 C505 1.419 . S
C504 C502 1.415 . S
C504 C509 1.425 . S
C504 C511 1.409 . S
C505 H497 0.930 . S
C505 C503 1.419 . S
C505 C506 1.362 . S
C506 H498 0.930 . S
C506 C505 1.362 . S
C506 C509 1.409 . S
C507 H499 0.930 . S
C507 C508 1.355 . S
C507 C509 1.415 . S
C508 C507 1.355 . S
C508 C510 1.419 . S
C509 C504 1.425 . S
C509 C506 1.409 . S
C509 C507 1.415 . S
C510 H500 0.930 . S
C510 C508 1.419 . S
C510 C511 1.362 . S
C511 H501 0.930 . S
C511 C504 1.409 . S
C511 C510 1.362 . S
H512 C518 0.930 . S
H513 C521 0.930 . S
H514 C522 0.930 . S
H515 C523 0.930 . S
H516 C526 0.930 . S
H517 C527 0.930 . S
C518 H512 0.930 . S
C518 C519 1.355 . S
C518 C520 1.415 . S
C519 C518 1.355 . S
C519 C521 1.419 . S
C520 C518 1.415 . S
C520 C525 1.425 . S
C520 C527 1.409 . S
C521 H513 0.930 . S
C521 C519 1.419 . S
C521 C522 1.362 . S
C522 H514 0.930 . S
C522 C521 1.362 . S
C522 C525 1.409 . S
C523 H515 0.930 . S
C523 C524 1.355 . S
C523 C525 1.415 . S
C524 C523 1.355 . S
C524 C526 1.419 . S
C525 C520 1.425 . S
C525 C522 1.409 . S
C525 C523 1.415 . S
C526 H516 0.930 . S
C526 C524 1.419 . S
C526 C527 1.362 . S
C527 H517 0.930 . S
C527 C520 1.409 . S
C527 C526 1.362 . S
H528 C534 0.930 . S
H529 C537 0.930 . S
H530 C538 0.930 . S
H531 C539 0.930 . S
H532 C542 0.930 . S
H533 C543 0.930 . S
C534 H528 0.930 . S
C534 C535 1.355 . S
C534 C536 1.415 . S
C535 C534 1.355 . S
C535 C537 1.419 . S
C536 C534 1.415 . S
C536 C541 1.425 . S
C536 C543 1.409 . S
C537 H529 0.930 . S
C537 C535 1.419 . S
C537 C538 1.362 . S
C538 H530 0.930 . S
C538 C537 1.362 . S
C538 C541 1.409 . S
C539 H531 0.930 . S
C539 C540 1.355 . S
C539 C541 1.415 . S
C540 C539 1.355 . S
C540 C542 1.419 . S
C541 C536 1.425 . S
C541 C538 1.409 . S
C541 C539 1.415 . S
C542 H532 0.930 . S
C542 C540 1.419 . S
C542 C543 1.362 . S
C543 H533 0.930 . S
C543 C536 1.409 . S
C543 C542 1.362 . S
H544 C550 0.930 . S
H545 C553 0.930 . S
H546 C554 0.930 . S
H547 C555 0.930 . S
H548 C558 0.930 . S
H549 C559 0.930 . S
C550 H544 0.930 . S
C550 C551 1.355 . S
C550 C552 1.415 . S
C551 C550 1.355 . S
C551 C553 1.419 . S
C552 C550 1.415 . S
C552 C557 1.425 . S
C552 C559 1.409 . S
C553 H545 0.930 . S
C553 C551 1.419 . S
C553 C554 1.362 . S
C554 H546 0.930 . S
C554 C553 1.362 . S
C554 C557 1.409 . S
C555 H547 0.930 . S
C555 C556 1.355 . S
C555 C557 1.415 . S
C556 C555 1.355 . S
C556 C558 1.419 . S
C557 C552 1.425 . S
C557 C554 1.409 . S
C557 C555 1.415 . S
C558 H548 0.930 . S
C558 C556 1.419 . S
C558 C559 1.362 . S
C559 H549 0.930 . S
C559 C552 1.409 . S
C559 C558 1.362 . S
H560 C566 0.930 . S
H561 C569 0.930 . S
H562 C570 0.930 . S
H563 C571 0.930 . S
H564 C574 0.930 1_655 S
H565 C575 0.930 . S
C566 H560 0.930 . S
C566 C567 1.355 . S
C566 C568 1.415 . S
C567 C566 1.355 . S
C567 C569 1.419 . S
C568 C566 1.415 . S
C568 C573 1.425 . S
C568 C575 1.409 . S
C569 H561 0.930 . S
C569 C567 1.419 . S
C569 C570 1.362 . S
C570 H562 0.930 . S
C570 C569 1.362 . S
C570 C573 1.409 . S
C571 H563 0.930 . S
C571 C572 1.355 . S
C571 C573 1.415 . S
C572 C571 1.355 . S
C572 C574 1.419 . S
C573 C568 1.425 . S
C573 C570 1.409 . S
C573 C571 1.415 . S
C574 H564 0.930 1_455 S
C574 C572 1.419 . S
C574 C575 1.362 . S
C575 H565 0.930 . S
C575 C568 1.409 . S
C575 C574 1.362 . S
H576 C582 0.930 . S
H577 C585 0.930 . S
H578 C586 0.930 . S
H579 C587 0.930 . S
H580 C590 0.930 . S
H581 C591 0.930 . S
C582 H576 0.930 . S
C582 C583 1.355 . S
C582 C584 1.415 . S
C583 C582 1.355 . S
C583 C585 1.419 . S
C584 C582 1.415 . S
C584 C589 1.425 . S
C584 C591 1.409 . S
C585 H577 0.930 . S
C585 C583 1.419 . S
C585 C586 1.362 . S
C586 H578 0.930 . S
C586 C585 1.362 . S
C586 C589 1.409 . S
C587 H579 0.930 . S
C587 C588 1.355 . S
C587 C589 1.415 . S
C588 C587 1.355 . S
C588 C590 1.419 . S
C589 C584 1.425 . S
C589 C586 1.409 . S
C589 C587 1.415 . S
C590 H580 0.930 . S
C590 C588 1.419 . S
C590 C591 1.362 . S
C591 H581 0.930 . S
C591 C584 1.409 . S
C591 C590 1.362 . S
H592 C598 0.930 . S
H593 C601 0.930 . S
H594 C602 0.930 . S
H595 C603 0.930 . S
H596 C606 0.930 . S
H597 C607 0.930 . S
C598 H592 0.930 . S
C598 C599 1.355 . S
C598 C600 1.415 . S
C599 C598 1.355 . S
C599 C601 1.419 . S
C600 C598 1.415 . S
C600 C605 1.425 . S
C600 C607 1.409 . S
C601 H593 0.930 . S
C601 C599 1.419 . S
C601 C602 1.362 . S
C602 H594 0.930 . S
C602 C601 1.362 . S
C602 C605 1.409 . S
C603 H595 0.930 . S
C603 C604 1.355 . S
C603 C605 1.415 . S
C604 C603 1.355 . S
C604 C606 1.419 . S
C605 C600 1.425 . S
C605 C602 1.409 . S
C605 C603 1.415 . S
C606 H596 0.930 . S
C606 C604 1.419 . S
C606 C607 1.362 . S
C607 H597 0.930 . S
C607 C600 1.409 . S
C607 C606 1.362 . S
H608 C614 0.930 . S
H609 C617 0.930 . S
H610 C618 0.930 . S
H611 C619 0.930 . S
H612 C622 0.930 . S
H613 C623 0.930 . S
C614 H608 0.930 . S
C614 C615 1.355 . S
C614 C616 1.415 . S
C615 C614 1.355 . S
C615 C617 1.419 . S
C616 C614 1.415 . S
C616 C621 1.425 . S
C616 C623 1.409 . S
C617 H609 0.930 . S
C617 C615 1.419 . S
C617 C618 1.362 . S
C618 H610 0.930 . S
C618 C617 1.362 . S
C618 C621 1.409 . S
C619 H611 0.930 . S
C619 C620 1.355 . S
C619 C621 1.415 . S
C620 C619 1.355 . S
C620 C622 1.419 . S
C621 C616 1.425 . S
C621 C618 1.409 . S
C621 C619 1.415 . S
C622 H612 0.930 . S
C622 C620 1.419 . S
C622 C623 1.362 . S
C623 H613 0.930 . S
C623 C616 1.409 . S
C623 C622 1.362 . S
H624 C630 0.930 . S
H625 C633 0.930 . S
H626 C634 0.930 . S
H627 C635 0.930 . S
H628 C638 0.930 . S
H629 C639 0.930 . S
C630 H624 0.930 . S
C630 C631 1.355 . S
C630 C632 1.415 . S
C631 C630 1.355 . S
C631 C633 1.419 . S
C632 C630 1.415 . S
C632 C637 1.425 . S
C632 C639 1.409 . S
C633 H625 0.930 . S
C633 C631 1.419 . S
C633 C634 1.362 . S
C634 H626 0.930 . S
C634 C633 1.362 . S
C634 C637 1.409 . S
C635 H627 0.930 . S
C635 C636 1.355 . S
C635 C637 1.415 . S
C636 C635 1.355 . S
C636 C638 1.419 . S
C637 C632 1.425 . S
C637 C634 1.409 . S
C637 C635 1.415 . S
C638 H628 0.930 . S
C638 C636 1.419 . S
C638 C639 1.362 . S
C639 H629 0.930 . S
C639 C632 1.409 . S
C639 C638 1.362 . S
H640 C646 0.930 . S
H641 C649 0.930 . S
H642 C650 0.930 . S
H643 C651 0.930 . S
H644 C654 0.930 . S
H645 C655 0.930 . S
C646 H640 0.930 . S
C646 C647 1.355 . S
C646 C648 1.415 . S
C647 C646 1.355 . S
C647 C649 1.419 . S
C648 C646 1.415 . S
C648 C653 1.425 . S
C648 C655 1.409 . S
C649 H641 0.930 . S
C649 C647 1.419 . S
C649 C650 1.362 . S
C650 H642 0.930 . S
C650 C649 1.362 . S
C650 C653 1.409 . S
C651 H643 0.930 . S
C651 C652 1.355 . S
C651 C653 1.415 . S
C652 C651 1.355 . S
C652 C654 1.419 . S
C653 C648 1.425 . S
C653 C650 1.409 . S
C653 C651 1.415 . S
C654 H644 0.930 . S
C654 C652 1.419 . S
C654 C655 1.362 . S
C655 H645 0.930 . S
C655 C648 1.409 . S
C655 C654 1.362 . S
H656 C662 0.930 . S
H657 C665 0.930 . S
H658 C666 0.930 . S
H659 C667 0.930 . S
H660 C670 0.930 . S
H661 C671 0.930 . S
C662 H656 0.930 . S
C662 C663 1.355 . S
C662 C664 1.415 . S
C663 C662 1.355 . S
C663 C665 1.419 . S
C664 C662 1.415 . S
C664 C669 1.425 . S
C664 C671 1.409 . S
C665 H657 0.930 . S
C665 C663 1.419 . S
C665 C666 1.362 . S
C666 H658 0.930 . S
C666 C665 1.362 . S
C666 C669 1.409 . S
C667 H659 0.930 . S
C667 C668 1.355 . S
C667 C669 1.415 . S
C668 C667 1.355 . S
C668 C670 1.419 . S
C669 C664 1.425 . S
C669 C666 1.409 . S
C669 C667 1.415 . S
C670 H660 0.930 . S
C670 C668 1.419 . S
C670 C671 1.362 . S
C671 H661 0.930 . S
C671 C664 1.409 . S
C671 C670 1.362 . S
H672 C678 0.930 . S
H673 C681 0.930 . S
H674 C682 0.930 . S
H675 C683 0.930 . S
H676 C686 0.930 . S
H677 C687 0.930 . S
C678 H672 0.930 . S
C678 C679 1.355 . S
C678 C680 1.415 . S
C679 C678 1.355 . S
C679 C681 1.419 . S
C680 C678 1.415 . S
C680 C685 1.425 . S
C680 C687 1.409 . S
C681 H673 0.930 . S
C681 C679 1.419 . S
C681 C682 1.362 . S
C682 H674 0.930 . S
C682 C681 1.362 . S
C682 C685 1.409 . S
C683 H675 0.930 . S
C683 C684 1.355 . S
C683 C685 1.415 . S
C684 C683 1.355 . S
C684 C686 1.419 . S
C685 C680 1.425 . S
C685 C682 1.409 . S
C685 C683 1.415 . S
C686 H676 0.930 . S
C686 C684 1.419 . S
C686 C687 1.362 . S
C687 H677 0.930 . S
C687 C680 1.409 . S
C687 C686 1.362 . S
H688 C694 0.930 . S
H689 C697 0.930 . S
H690 C698 0.930 . S
H691 C699 0.930 . S
H692 C702 0.930 1_455 S
H693 C703 0.930 . S
C694 H688 0.930 . S
C694 C695 1.355 . S
C694 C696 1.415 . S
C695 C694 1.355 . S
C695 C697 1.419 . S
C696 C694 1.415 . S
C696 C701 1.425 . S
C696 C703 1.409 . S
C697 H689 0.930 . S
C697 C695 1.419 . S
C697 C698 1.362 . S
C698 H690 0.930 . S
C698 C697 1.362 . S
C698 C701 1.409 . S
C699 H691 0.930 . S
C699 C700 1.355 . S
C699 C701 1.415 . S
C700 C699 1.355 . S
C700 C702 1.419 . S
C701 C696 1.425 . S
C701 C698 1.409 . S
C701 C699 1.415 . S
C702 H692 0.930 1_655 S
C702 C700 1.419 . S
C702 C703 1.362 . S
C703 H693 0.930 . S
C703 C696 1.409 . S
C703 C702 1.362 . S
H704 C710 0.930 . S
H705 C713 0.930 . S
H706 C714 0.930 . S
H707 C715 0.930 . S
H708 C718 0.930 . S
H709 C719 0.930 . S
C710 H704 0.930 . S
C710 C711 1.355 . S
C710 C712 1.415 . S
C711 C710 1.355 . S
C711 C713 1.419 . S
C712 C710 1.415 . S
C712 C717 1.425 . S
C712 C719 1.409 . S
C713 H705 0.930 . S
C713 C711 1.419 . S
C713 C714 1.362 . S
C714 H706 0.930 . S
C714 C713 1.362 . S
C714 C717 1.409 . S
C715 H707 0.930 . S
C715 C716 1.355 . S
C715 C717 1.415 . S
C716 C715 1.355 . S
C716 C718 1.419 . S
C717 C712 1.425 . S
C717 C714 1.409 . S
C717 C715 1.415 . S
C718 H708 0.930 . S
C718 C716 1.419 . S
C718 C719 1.362 . S
C719 H709 0.930 . S
C719 C712 1.409 . S
C719 C718 1.362 . S
H720 C726 0.930 . S
H721 C729 0.930 . S
H722 C730 0.930 . S
H723 C731 0.930 . S
H724 C734 0.930 . S
H725 C735 0.930 . S
C726 H720 0.930 . S
C726 C727 1.355 . S
C726 C728 1.415 . S
C727 C726 1.355 . S
C727 C729 1.419 . S
C728 C726 1.415 . S
C728 C733 1.425 . S
C728 C735 1.409 . S
C729 H721 0.930 . S
C729 C727 1.419 . S
C729 C730 1.362 . S
C730 H722 0.930 . S
C730 C729 1.362 . S
C730 C733 1.409 . S
C731 H723 0.930 . S
C731 C732 1.355 . S
C731 C733 1.415 . S
C732 C731 1.355 . S
C732 C734 1.419 . S
C733 C728 1.425 . S
C733 C730 1.409 . S
C733 C731 1.415 . S
C734 H724 0.930 . S
C734 C732 1.419 . S
C734 C735 1.362 . S
C735 H725 0.930 . S
C735 C728 1.409 . S
C735 C734 1.362 . S
H736 C742 0.930 . S
H737 C745 0.930 . S
H738 C746 0.930 . S
H739 C747 0.930 . S
H740 C750 0.930 . S
H741 C751 0.930 . S
C742 H736 0.930 . S
C742 C743 1.355 . S
C742 C744 1.415 . S
C743 C742 1.355 . S
C743 C745 1.419 . S
C744 C742 1.415 . S
C744 C749 1.425 . S
C744 C751 1.409 . S
C745 H737 0.930 . S
C745 C743 1.419 . S
C745 C746 1.362 . S
C746 H738 0.930 . S
C746 C745 1.362 . S
C746 C749 1.409 . S
C747 H739 0.930 . S
C747 C748 1.355 . S
C747 C749 1.415 . S
C748 C747 1.355 . S
C748 C750 1.419 . S
C749 C744 1.425 . S
C749 C746 1.409 . S
C749 C747 1.415 . S
C750 H740 0.930 . S
C750 C748 1.419 . S
C750 C751 1.362 . S
C751 H741 0.930 . S
C751 C744 1.409 . S
C751 C750 1.362 . S
H752 C758 0.930 . S
H753 C761 0.930 . S
H754 C762 0.930 . S
H755 C763 0.930 . S
H756 C766 0.930 . S
H757 C767 0.930 . S
C758 H752 0.930 . S
C758 C759 1.355 . S
C758 C760 1.415 . S
C759 C758 1.355 . S
C759 C761 1.419 . S
C760 C758 1.415 . S
C760 C765 1.425 . S
C760 C767 1.409 . S
C761 H753 0.930 . S
C761 C759 1.419 . S
C761 C762 1.362 . S
C762 H754 0.930 . S
C762 C761 1.362 . S
C762 C765 1.409 . S
C763 H755 0.930 . S
C763 C764 1.355 . S
C763 C765 1.415 . S
C764 C763 1.355 . S
C764 C766 1.419 . S
C765 C760 1.425 . S
C765 C762 1.409 . S
C765 C763 1.415 . S
C766 H756 0.930 . S
C766 C764 1.419 . S
C766 C767 1.362 . S
C767 H757 0.930 . S
C767 C760 1.409 . S
C767 C766 1.362 . S
H768 C774 0.930 . S
H769 C777 0.930 . S
H770 C778 0.930 . S
H771 C779 0.930 . S
H772 C782 0.930 . S
H773 C783 0.930 . S
C774 H768 0.930 . S
C774 C775 1.355 . S
C774 C776 1.415 . S
C775 C774 1.355 . S
C775 C777 1.419 . S
C776 C774 1.415 . S
C776 C781 1.425 . S
C776 C783 1.409 . S
C777 H769 0.930 . S
C777 C775 1.419 . S
C777 C778 1.362 . S
C778 H770 0.930 . S
C778 C777 1.362 . S
C778 C781 1.409 . S
C779 H771 0.930 . S
C779 C780 1.355 . S
C779 C781 1.415 . S
C780 C779 1.355 . S
C780 C782 1.419 . S
C781 C776 1.425 . S
C781 C778 1.409 . S
C781 C779 1.415 . S
C782 H772 0.930 . S
C782 C780 1.419 . S
C782 C783 1.362 . S
C783 H773 0.930 . S
C783 C776 1.409 . S
C783 C782 1.362 . S
H784 C790 0.930 . S
H785 C793 0.930 1_455 S
H786 C794 0.930 . S
H787 C795 0.930 . S
H788 C798 0.930 . S
H789 C799 0.930 . S
C790 H784 0.930 . S
C790 C791 1.355 . S
C790 C792 1.415 . S
C791 C790 1.355 . S
C791 C793 1.419 . S
C792 C790 1.415 . S
C792 C797 1.425 . S
C792 C799 1.409 . S
C793 H785 0.930 1_655 S
C793 C791 1.419 . S
C793 C794 1.362 . S
C794 H786 0.930 . S
C794 C793 1.362 . S
C794 C797 1.409 . S
C795 H787 0.930 . S
C795 C796 1.355 . S
C795 C797 1.415 . S
C796 C795 1.355 . S
C796 C798 1.419 . S
C797 C792 1.425 . S
C797 C794 1.409 . S
C797 C795 1.415 . S
C798 H788 0.930 . S
C798 C796 1.419 . S
C798 C799 1.362 . S
C799 H789 0.930 . S
C799 C792 1.409 . S
C799 C798 1.362 . S
H800 C806 0.930 . S
H801 C809 0.930 . S
H802 C810 0.930 . S
H803 C811 0.930 . S
H804 C814 0.930 . S
H805 C815 0.930 . S
C806 H800 0.930 . S
C806 C807 1.355 . S
C806 C808 1.415 . S
C807 C806 1.355 . S
C807 C809 1.419 . S
C808 C806 1.415 . S
C808 C813 1.425 . S
C808 C815 1.409 . S
C809 H801 0.930 . S
C809 C807 1.419 . S
C809 C810 1.362 . S
C810 H802 0.930 . S
C810 C809 1.362 . S
C810 C813 1.409 . S
C811 H803 0.930 . S
C811 C812 1.355 . S
C811 C813 1.415 . S
C812 C811 1.355 . S
C812 C814 1.419 . S
C813 C808 1.425 . S
C813 C810 1.409 . S
C813 C811 1.415 . S
C814 H804 0.930 . S
C814 C812 1.419 . S
C814 C815 1.362 . S
C815 H805 0.930 . S
C815 C808 1.409 . S
C815 C814 1.362 . S
H816 C822 0.930 . S
H817 C825 0.930 . S
H818 C826 0.930 . S
H819 C827 0.930 . S
H820 C830 0.930 . S
H821 C831 0.930 . S
C822 H816 0.930 . S
C822 C823 1.355 . S
C822 C824 1.415 . S
C823 C822 1.355 . S
C823 C825 1.419 . S
C824 C822 1.415 . S
C824 C829 1.425 . S
C824 C831 1.409 . S
C825 H817 0.930 . S
C825 C823 1.419 . S
C825 C826 1.362 . S
C826 H818 0.930 . S
C826 C825 1.362 . S
C826 C829 1.409 . S
C827 H819 0.930 . S
C827 C828 1.355 . S
C827 C829 1.415 . S
C828 C827 1.355 . S
C828 C830 1.419 . S
C829 C824 1.425 . S
C829 C826 1.409 . S
C829 C827 1.415 . S
C830 H820 0.930 . S
C830 C828 1.419 . S
C830 C831 1.362 . S
C831 H821 0.930 . S
C831 C824 1.409 . S
C831 C830 1.362 . S
H832 C838 0.930 . S
H833 C841 0.930 . S
H834 C842 0.930 . S
H835 C843 0.930 . S
H836 C846 0.930 . S
H837 C847 0.930 . S
C838 H832 0.930 . S
C838 C839 1.355 . S
C838 C840 1.415 . S
C839 C838 1.355 . S
C839 C841 1.419 . S
C840 C838 1.415 . S
C840 C845 1.425 . S
C840 C847 1.409 . S
C841 H833 0.930 . S
C841 C839 1.419 . S
C841 C842 1.362 . S
C842 H834 0.930 . S
C842 C841 1.362 . S
C842 C845 1.409 . S
C843 H835 0.930 . S
C843 C844 1.355 . S
C843 C845 1.415 . S
C844 C843 1.355 . S
C844 C846 1.419 . S
C845 C840 1.425 . S
C845 C842 1.409 . S
C845 C843 1.415 . S
C846 H836 0.930 . S
C846 C844 1.419 . S
C846 C847 1.362 . S
C847 H837 0.930 . S
C847 C840 1.409 . S
C847 C846 1.362 . S
H848 C854 0.930 . S
H849 C857 0.930 . S
H850 C858 0.930 . S
H851 C859 0.930 . S
H852 C862 0.930 . S
H853 C863 0.930 . S
C854 H848 0.930 . S
C854 C855 1.355 . S
C854 C856 1.415 . S
C855 C854 1.355 . S
C855 C857 1.419 . S
C856 C854 1.415 . S
C856 C861 1.425 . S
C856 C863 1.409 . S
C857 H849 0.930 . S
C857 C855 1.419 . S
C857 C858 1.362 . S
C858 H850 0.930 . S
C858 C857 1.362 . S
C858 C861 1.409 . S
C859 H851 0.930 . S
C859 C860 1.355 . S
C859 C861 1.415 . S
C860 C859 1.355 . S
C860 C862 1.419 . S
C861 C856 1.425 . S
C861 C858 1.409 . S
C861 C859 1.415 . S
C862 H852 0.930 . S
C862 C860 1.419 . S
C862 C863 1.362 . S
C863 H853 0.930 . S
C863 C856 1.409 . S
C863 C862 1.362 . S
H864 C870 0.930 . S
H865 C873 0.930 . S
H866 C874 0.930 . S
H867 C875 0.930 . S
H868 C878 0.930 . S
H869 C879 0.930 . S
C870 H864 0.930 . S
C870 C871 1.355 . S
C870 C872 1.415 . S
C871 C870 1.355 . S
C871 C873 1.419 . S
C872 C870 1.415 . S
C872 C877 1.425 . S
C872 C879 1.409 . S
C873 H865 0.930 . S
C873 C871 1.419 . S
C873 C874 1.362 . S
C874 H866 0.930 . S
C874 C873 1.362 . S
C874 C877 1.409 . S
C875 H867 0.930 . S
C875 C876 1.355 . S
C875 C877 1.415 . S
C876 C875 1.355 . S
C876 C878 1.419 . S
C877 C872 1.425 . S
C877 C874 1.409 . S
C877 C875 1.415 . S
C878 H868 0.930 . S
C878 C876 1.419 . S
C878 C879 1.362 . S
C879 H869 0.930 . S
C879 C872 1.409 . S
C879 C878 1.362 . S
H880 C886 0.930 . S
H881 C889 0.930 1_655 S
H882 C890 0.930 . S
H883 C891 0.930 . S
H884 C894 0.930 . S
H885 C895 0.930 . S
C886 H880 0.930 . S
C886 C887 1.355 . S
C886 C888 1.415 . S
C887 C886 1.355 . S
C887 C889 1.419 . S
C888 C886 1.415 . S
C888 C893 1.425 . S
C888 C895 1.409 . S
C889 H881 0.930 1_455 S
C889 C887 1.419 . S
C889 C890 1.362 . S
C890 H882 0.930 . S
C890 C889 1.362 . S
C890 C893 1.409 . S
C891 H883 0.930 . S
C891 C892 1.355 . S
C891 C893 1.415 . S
C892 C891 1.355 . S
C892 C894 1.419 . S
C893 C888 1.425 . S
C893 C890 1.409 . S
C893 C891 1.415 . S
C894 H884 0.930 . S
C894 C892 1.419 . S
C894 C895 1.362 . S
C895 H885 0.930 . S
C895 C888 1.409 . S
C895 C894 1.362 . S
H896 C902 0.930 . S
H897 C905 0.930 . S
H898 C906 0.930 . S
H899 C907 0.930 . S
H900 C910 0.930 . S
H901 C911 0.930 . S
C902 H896 0.930 . S
C902 C903 1.355 . S
C902 C904 1.415 . S
C903 C902 1.355 . S
C903 C905 1.419 . S
C904 C902 1.415 . S
C904 C909 1.425 . S
C904 C911 1.409 . S
C905 H897 0.930 . S
C905 C903 1.419 . S
C905 C906 1.362 . S
C906 H898 0.930 . S
C906 C905 1.362 . S
C906 C909 1.409 . S
C907 H899 0.930 . S
C907 C908 1.355 . S
C907 C909 1.415 . S
C908 C907 1.355 . S
C908 C910 1.419 . S
C909 C904 1.425 . S
C909 C906 1.409 . S
C909 C907 1.415 . S
C910 H900 0.930 . S
C910 C908 1.419 . S
C910 C911 1.362 . S
C911 H901 0.930 . S
C911 C904 1.409 . S
C911 C910 1.362 . S
H912 C918 0.930 . S
H913 C921 0.930 1_655 S
H914 C922 0.930 . S
H915 C923 0.930 . S
H916 C926 0.930 . S
H917 C927 0.930 . S
C918 H912 0.930 . S
C918 C919 1.355 . S
C918 C920 1.415 . S
C919 C918 1.355 . S
C919 C921 1.419 . S
C920 C918 1.415 . S
C920 C925 1.425 . S
C920 C927 1.409 . S
C921 H913 0.930 1_455 S
C921 C919 1.419 . S
C921 C922 1.362 . S
C922 H914 0.930 . S
C922 C921 1.362 . S
C922 C925 1.409 . S
C923 H915 0.930 . S
C923 C924 1.355 . S
C923 C925 1.415 . S
C924 C923 1.355 . S
C924 C926 1.419 . S
C925 C920 1.425 . S
C925 C922 1.409 . S
C925 C923 1.415 . S
C926 H916 0.930 . S
C926 C924 1.419 . S
C926 C927 1.362 . S
C927 H917 0.930 . S
C927 C920 1.409 . S
C927 C926 1.362 . S
H928 C934 0.930 . S
H929 C937 0.930 . S
H930 C938 0.930 . S
H931 C939 0.930 . S
H932 C942 0.930 . S
H933 C943 0.930 . S
C934 H928 0.930 . S
C934 C935 1.355 . S
C934 C936 1.415 . S
C935 C934 1.355 . S
C935 C937 1.419 . S
C936 C934 1.415 . S
C936 C941 1.425 . S
C936 C943 1.409 . S
C937 H929 0.930 . S
C937 C935 1.419 . S
C937 C938 1.362 . S
C938 H930 0.930 . S
C938 C937 1.362 . S
C938 C941 1.409 . S
C939 H931 0.930 . S
C939 C940 1.355 . S
C939 C941 1.415 . S
C940 C939 1.355 . S
C940 C942 1.419 . S
C941 C936 1.425 . S
C941 C938 1.409 . S
C941 C939 1.415 . S
C942 H932 0.930 . S
C942 C940 1.419 . S
C942 C943 1.362 . S
C943 H933 0.930 . S
C943 C936 1.409 . S
C943 C942 1.362 . S
H944 C950 0.930 . S
H945 C953 0.930 . S
H946 C954 0.930 . S
H947 C955 0.930 . S
H948 C958 0.930 . S
H949 C959 0.930 . S
C950 H944 0.930 . S
C950 C951 1.355 . S
C950 C952 1.415 . S
C951 C950 1.355 . S
C951 C953 1.419 . S
C952 C950 1.415 . S
C952 C957 1.425 . S
C952 C959 1.409 . S
C953 H945 0.930 . S
C953 C951 1.419 . S
C953 C954 1.362 . S
C954 H946 0.930 . S
C954 C953 1.362 . S
C954 C957 1.409 . S
C955 H947 0.930 . S
C955 C956 1.355 . S
C955 C957 1.415 . S
C956 C955 1.355 . S
C956 C958 1.419 . S
C957 C952 1.425 . S
C957 C954 1.409 . S
C957 C955 1.415 . S
C958 H948 0.930 . S
C958 C956 1.419 . S
C958 C959 1.362 . S
C959 H949 0.930 . S
C959 C952 1.409 . S
C959 C958 1.362 . S
H960 C966 0.930 . S
H961 C969 0.930 . S
H962 C970 0.930 . S
H963 C971 0.930 . S
H964 C974 0.930 . S
H965 C975 0.930 . S
C966 H960 0.930 . S
C966 C967 1.355 . S
C966 C968 1.415 . S
C967 C966 1.355 . S
C967 C969 1.419 . S
C968 C966 1.415 . S
C968 C973 1.425 . S
C968 C975 1.409 . S
C969 H961 0.930 . S
C969 C967 1.419 . S
C969 C970 1.362 . S
C970 H962 0.930 . S
C970 C969 1.362 . S
C970 C973 1.409 . S
C971 H963 0.930 . S
C971 C972 1.355 . S
C971 C973 1.415 . S
C972 C971 1.355 . S
C972 C974 1.419 . S
C973 C968 1.425 . S
C973 C970 1.409 . S
C973 C971 1.415 . S
C974 H964 0.930 . S
C974 C972 1.419 . S
C974 C975 1.362 . S
C975 H965 0.930 . S
C975 C968 1.409 . S
C975 C974 1.362 . S
H976 C982 0.930 . S
H977 C985 0.930 . S
H978 C986 0.930 . S
H979 C987 0.930 . S
H980 C990 0.930 . S
H981 C991 0.930 . S
C982 H976 0.930 . S
C982 C983 1.355 . S
C982 C984 1.415 1_565 S
C983 C982 1.355 . S
C983 C985 1.419 . S
C984 C982 1.415 1_545 S
C984 C989 1.425 1_645 S
C984 C991 1.409 . S
C985 H977 0.930 . S
C985 C983 1.419 . S
C985 C986 1.362 1_655 S
C986 H978 0.930 . S
C986 C985 1.362 1_455 S
C986 C989 1.409 . S
C987 H979 0.930 . S
C987 C988 1.355 . S
C987 C989 1.415 1_545 S
C988 C987 1.355 . S
C988 C990 1.419 . S
C989 C984 1.425 1_465 S
C989 C986 1.409 . S
C989 C987 1.415 1_565 S
C990 H980 0.930 . S
C990 C988 1.419 . S
C990 C991 1.362 1_455 S
C991 H981 0.930 . S
C991 C984 1.409 . S
C991 C990 1.362 1_655 S
H992 C998 0.930 . S
H993 C1001 0.930 . S
H994 C1002 0.930 . S
H995 C1003 0.930 . S
H996 C1006 0.930 . S
H997 C1007 0.930 . S
C998 H992 0.930 . S
C998 C999 1.355 . S
C998 C1000 1.415 . S
C999 C998 1.355 . S
C999 C1001 1.419 . S
C1000 C998 1.415 . S
C1000 C1005 1.425 . S
C1000 C1007 1.409 . S
C1001 H993 0.930 . S
C1001 C999 1.419 . S
C1001 C1002 1.362 . S
C1002 H994 0.930 . S
C1002 C1001 1.362 . S
C1002 C1005 1.409 . S
C1003 H995 0.930 . S
C1003 C1004 1.355 . S
C1003 C1005 1.415 . S
C1004 C1003 1.355 . S
C1004 C1006 1.419 . S
C1005 C1000 1.425 . S
C1005 C1002 1.409 . S
C1005 C1003 1.415 . S
C1006 H996 0.930 . S
C1006 C1004 1.419 . S
C1006 C1007 1.362 . S
C1007 H997 0.930 . S
C1007 C1000 1.409 . S
C1007 C1006 1.362 . S
H1008 C1014 0.930 . S
H1009 C1017 0.930 . S
H1010 C1018 0.932 1_565 S
H1011 C1019 0.930 . S
H1012 C1022 0.930 . S
H1013 C1023 0.932 1_545 S
C1014 H1008 0.930 . S
C1014 C1015 1.355 1_556 S
C1014 C1016 1.415 . S
C1015 C1014 1.355 1_554 S
C1015 C1017 1.419 . S
C1016 C1014 1.415 . S
C1016 C1021 1.425 1_546 S
C1016 C1023 1.409 1_545 S
C1017 H1009 0.930 . S
C1017 C1015 1.419 . S
C1017 C1018 1.362 . S
C1018 H1010 0.932 1_545 S
C1018 C1017 1.362 . S
C1018 C1021 1.409 1_545 S
C1019 H1011 0.930 . S
C1019 C1020 1.355 1_554 S
C1019 C1021 1.415 . S
C1020 C1019 1.355 1_556 S
C1020 C1022 1.419 . S
C1021 C1016 1.425 1_564 S
C1021 C1018 1.409 1_565 S
C1021 C1019 1.415 . S
C1022 H1012 0.930 . S
C1022 C1020 1.419 . S
C1022 C1023 1.362 . S
C1023 H1013 0.932 1_565 S
C1023 C1016 1.409 1_565 S
C1023 C1022 1.362 . S
H1024 C1030 0.930 . S
H1025 C1033 0.930 . S
H1026 C1034 0.930 . S
H1027 C1035 0.930 . S
H1028 C1038 0.930 . S
H1029 C1039 0.930 . S
C1030 H1024 0.930 . S
C1030 C1031 1.355 . S
C1030 C1032 1.415 . S
C1031 C1030 1.355 . S
C1031 C1033 1.419 . S
C1032 C1030 1.415 . S
C1032 C1037 1.425 . S
C1032 C1039 1.409 . S
C1033 H1025 0.930 . S
C1033 C1031 1.419 . S
C1033 C1034 1.362 . S
C1034 H1026 0.930 . S
C1034 C1033 1.362 . S
C1034 C1037 1.409 . S
C1035 H1027 0.930 . S
C1035 C1036 1.355 . S
C1035 C1037 1.415 . S
C1036 C1035 1.355 . S
C1036 C1038 1.419 . S
C1037 C1032 1.425 . S
C1037 C1034 1.409 . S
C1037 C1035 1.415 . S
C1038 H1028 0.930 . S
C1038 C1036 1.419 . S
C1038 C1039 1.362 . S
C1039 H1029 0.930 . S
C1039 C1032 1.409 . S
C1039 C1038 1.362 . S
H1040 C1046 0.930 . S
H1041 C1049 0.930 . S
H1042 C1050 0.930 . S
H1043 C1051 0.930 . S
H1044 C1054 0.930 . S
H1045 C1055 0.930 . S
C1046 H1040 0.930 . S
C1046 C1047 1.355 . S
C1046 C1048 1.415 1_565 S
C1047 C1046 1.355 . S
C1047 C1049 1.419 . S
C1048 C1046 1.415 1_545 S
C1048 C1053 1.425 1_545 S
C1048 C1055 1.409 . S
C1049 H1041 0.930 . S
C1049 C1047 1.419 . S
C1049 C1050 1.362 . S
C1050 H1042 0.930 . S
C1050 C1049 1.362 . S
C1050 C1053 1.409 . S
C1051 H1043 0.930 . S
C1051 C1052 1.355 . S
C1051 C1053 1.415 1_545 S
C1052 C1051 1.355 . S
C1052 C1054 1.419 . S
C1053 C1048 1.425 1_565 S
C1053 C1050 1.409 . S
C1053 C1051 1.415 1_565 S
C1054 H1044 0.930 . S
C1054 C1052 1.419 . S
C1054 C1055 1.362 . S
C1055 H1045 0.930 . S
C1055 C1048 1.409 . S
C1055 C1054 1.362 . S
H1056 C1062 0.930 . S
H1057 C1065 0.930 . S
H1058 C1066 0.930 . S
H1059 C1067 0.930 . S
H1060 C1070 0.930 . S
H1061 C1071 0.930 . S
C1062 H1056 0.930 . S
C1062 C1063 1.355 . S
C1062 C1064 1.415 . S
C1063 C1062 1.355 . S
C1063 C1065 1.419 . S
C1064 C1062 1.415 . S
C1064 C1069 1.425 . S
C1064 C1071 1.409 . S
C1065 H1057 0.930 . S
C1065 C1063 1.419 . S
C1065 C1066 1.362 . S
C1066 H1058 0.930 . S
C1066 C1065 1.362 . S
C1066 C1069 1.409 . S
C1067 H1059 0.930 . S
C1067 C1068 1.355 . S
C1067 C1069 1.415 . S
C1068 C1067 1.355 . S
C1068 C1070 1.419 . S
C1069 C1064 1.425 . S
C1069 C1066 1.409 . S
C1069 C1067 1.415 . S
C1070 H1060 0.930 . S
C1070 C1068 1.419 . S
C1070 C1071 1.362 . S
C1071 H1061 0.930 . S
C1071 C1064 1.409 . S
C1071 C1070 1.362 . S
H1072 C1078 0.930 1_554 S
H1073 C1081 0.930 . S
H1074 C1082 0.930 . S
H1075 C1083 0.930 1_556 S
H1076 C1086 0.930 . S
H1077 C1087 0.930 . S
C1078 H1072 0.930 1_556 S
C1078 C1079 1.355 . S
C1078 C1080 1.415 1_546 S
C1079 C1078 1.355 . S
C1079 C1081 1.419 . S
C1080 C1078 1.415 1_564 S
C1080 C1085 1.425 1_664 S
C1080 C1087 1.409 . S
C1081 H1073 0.930 . S
C1081 C1079 1.419 . S
C1081 C1082 1.362 1_655 S
C1082 H1074 0.930 . S
C1082 C1081 1.362 1_455 S
C1082 C1085 1.409 . S
C1083 H1075 0.930 1_554 S
C1083 C1084 1.355 . S
C1083 C1085 1.415 1_564 S
C1084 C1083 1.355 . S
C1084 C1086 1.419 . S
C1085 C1080 1.425 1_446 S
C1085 C1082 1.409 . S
C1085 C1083 1.415 1_546 S
C1086 H1076 0.930 . S
C1086 C1084 1.419 . S
C1086 C1087 1.362 1_455 S
C1087 H1077 0.930 . S
C1087 C1080 1.409 . S
C1087 C1086 1.362 1_655 S
H1088 C1094 0.930 . S
H1089 C1097 0.930 . S
H1090 C1098 0.930 . S
H1091 C1099 0.930 . S
H1092 C1102 0.930 . S
H1093 C1103 0.930 . S
C1094 H1088 0.930 . S
C1094 C1095 1.355 . S
C1094 C1096 1.415 . S
C1095 C1094 1.355 . S
C1095 C1097 1.419 . S
C1096 C1094 1.415 . S
C1096 C1101 1.425 . S
C1096 C1103 1.409 . S
C1097 H1089 0.930 . S
C1097 C1095 1.419 . S
C1097 C1098 1.362 . S
C1098 H1090 0.930 . S
C1098 C1097 1.362 . S
C1098 C1101 1.409 . S
C1099 H1091 0.930 . S
C1099 C1100 1.355 . S
C1099 C1101 1.415 . S
C1100 C1099 1.355 . S
C1100 C1102 1.419 . S
C1101 C1096 1.425 . S
C1101 C1098 1.409 . S
C1101 C1099 1.415 . S
C1102 H1092 0.930 . S
C1102 C1100 1.419 . S
C1102 C1103 1.362 . S
C1103 H1093 0.930 . S
C1103 C1096 1.409 . S
C1103 C1102 1.362 . S
H1104 C1110 0.930 . S
H1105 C1113 0.930 . S
H1106 C1114 0.930 . S
H1107 C1115 0.930 . S
H1108 C1118 0.930 . S
H1109 C1119 0.930 . S
C1110 H1104 0.930 . S
C1110 C1111 1.355 . S
C1110 C1112 1.415 . S
C1111 C1110 1.355 . S
C1111 C1113 1.419 . S
C1112 C1110 1.415 . S
C1112 C1117 1.425 . S
C1112 C1119 1.409 . S
C1113 H1105 0.930 . S
C1113 C1111 1.419 . S
C1113 C1114 1.362 . S
C1114 H1106 0.930 . S
C1114 C1113 1.362 . S
C1114 C1117 1.409 . S
C1115 H1107 0.930 . S
C1115 C1116 1.355 . S
C1115 C1117 1.415 . S
C1116 C1115 1.355 . S
C1116 C1118 1.419 . S
C1117 C1112 1.425 . S
C1117 C1114 1.409 . S
C1117 C1115 1.415 . S
C1118 H1108 0.930 . S
C1118 C1116 1.419 . S
C1118 C1119 1.362 . S
C1119 H1109 0.930 . S
C1119 C1112 1.409 . S
C1119 C1118 1.362 . S
H1120 C1126 0.930 . S
H1121 C1129 0.930 . S
H1122 C1130 0.930 . S
H1123 C1131 0.930 . S
H1124 C1134 0.930 . S
H1125 C1135 0.930 . S
C1126 H1120 0.930 . S
C1126 C1127 1.355 . S
C1126 C1128 1.415 . S
C1127 C1126 1.355 . S
C1127 C1129 1.419 . S
C1128 C1126 1.415 . S
C1128 C1133 1.425 . S
C1128 C1135 1.409 . S
C1129 H1121 0.930 . S
C1129 C1127 1.419 . S
C1129 C1130 1.362 . S
C1130 H1122 0.930 . S
C1130 C1129 1.362 . S
C1130 C1133 1.409 . S
C1131 H1123 0.930 . S
C1131 C1132 1.355 . S
C1131 C1133 1.415 . S
C1132 C1131 1.355 . S
C1132 C1134 1.419 . S
C1133 C1128 1.425 . S
C1133 C1130 1.409 . S
C1133 C1131 1.415 . S
C1134 H1124 0.930 . S
C1134 C1132 1.419 . S
C1134 C1135 1.362 . S
C1135 H1125 0.930 . S
C1135 C1128 1.409 . S
C1135 C1134 1.362 . S
H1136 C1142 0.930 . S
H1137 C1145 0.930 . S
H1138 C1146 0.930 . S
H1139 C1147 0.930 . S
H1140 C1150 0.930 . S
H1141 C1151 0.930 . S
C1142 H1136 0.930 . S
C1142 C1143 1.355 . S
C1142 C1144 1.415 . S
C1143 C1142 1.355 . S
C1143 C1145 1.419 . S
C1144 C1142 1.415 . S
C1144 C1149 1.425 . S
C1144 C1151 1.409 . S
C1145 H1137 0.930 . S
C1145 C1143 1.419 . S
C1145 C1146 1.362 . S
C1146 H1138 0.930 . S
C1146 C1145 1.362 . S
C1146 C1149 1.409 . S
C1147 H1139 0.930 . S
C1147 C1148 1.355 . S
C1147 C1149 1.415 . S
C1148 C1147 1.355 . S
C1148 C1150 1.419 . S
C1149 C1144 1.425 . S
C1149 C1146 1.409 . S
C1149 C1147 1.415 . S
C1150 H1140 0.930 . S
C1150 C1148 1.419 . S
C1150 C1151 1.362 . S
C1151 H1141 0.930 . S
C1151 C1144 1.409 . S
C1151 C1150 1.362 . S
H1152 C1158 0.929 1_556 S
H1153 C1161 0.930 . S
H1154 C1162 0.930 . S
H1155 C1163 0.929 1_554 S
H1156 C1166 0.930 . S
H1157 C1167 0.930 . S
C1158 H1152 0.929 1_554 S
C1158 C1159 1.355 . S
C1158 C1160 1.415 1_554 S
C1159 C1158 1.355 . S
C1159 C1161 1.419 . S
C1160 C1158 1.415 1_556 S
C1160 C1165 1.425 1_556 S
C1160 C1167 1.409 . S
C1161 H1153 0.930 . S
C1161 C1159 1.419 . S
C1161 C1162 1.362 . S
C1162 H1154 0.930 . S
C1162 C1161 1.362 . S
C1162 C1165 1.409 . S
C1163 H1155 0.929 1_556 S
C1163 C1164 1.355 . S
C1163 C1165 1.415 1_556 S
C1164 C1163 1.355 . S
C1164 C1166 1.419 . S
C1165 C1160 1.425 1_554 S
C1165 C1162 1.409 . S
C1165 C1163 1.415 1_554 S
C1166 H1156 0.930 . S
C1166 C1164 1.419 . S
C1166 C1167 1.362 . S
C1167 H1157 0.930 . S
C1167 C1160 1.409 . S
C1167 C1166 1.362 . S
H1168 C1174 0.930 . S
H1169 C1177 0.930 . S
H1170 C1178 0.930 . S
H1171 C1179 0.930 . S
H1172 C1182 0.930 . S
H1173 C1183 0.930 . S
C1174 H1168 0.930 . S
C1174 C1175 1.355 . S
C1174 C1176 1.415 1_655 S
C1175 C1174 1.355 . S
C1175 C1177 1.419 . S
C1176 C1174 1.415 1_455 S
C1176 C1181 1.425 1_455 S
C1176 C1183 1.409 . S
C1177 H1169 0.930 . S
C1177 C1175 1.419 . S
C1177 C1178 1.362 . S
C1178 H1170 0.930 . S
C1178 C1177 1.362 . S
C1178 C1181 1.409 . S
C1179 H1171 0.930 . S
C1179 C1180 1.355 . S
C1179 C1181 1.415 1_455 S
C1180 C1179 1.355 . S
C1180 C1182 1.419 . S
C1181 C1176 1.425 1_655 S
C1181 C1178 1.409 . S
C1181 C1179 1.415 1_655 S
C1182 H1172 0.930 . S
C1182 C1180 1.419 . S
C1182 C1183 1.362 . S
C1183 H1173 0.930 . S
C1183 C1176 1.409 . S
C1183 C1182 1.362 . S
H1184 C1190 0.930 . S
H1185 C1193 0.930 . S
H1186 C1194 0.930 . S
H1187 C1195 0.930 . S
H1188 C1198 0.930 . S
H1189 C1199 0.930 . S
C1190 H1184 0.930 . S
C1190 C1191 1.355 . S
C1190 C1192 1.415 1_455 S
C1191 C1190 1.355 . S
C1191 C1193 1.419 1_556 S
C1192 C1190 1.415 1_655 S
C1192 C1197 1.425 1_656 S
C1192 C1199 1.409 . S
C1193 H1185 0.930 . S
C1193 C1191 1.419 1_554 S
C1193 C1194 1.362 . S
C1194 H1186 0.930 . S
C1194 C1193 1.362 . S
C1194 C1197 1.409 . S
C1195 H1187 0.930 . S
C1195 C1196 1.355 . S
C1195 C1197 1.415 1_655 S
C1196 C1195 1.355 . S
C1196 C1198 1.419 1_554 S
C1197 C1192 1.425 1_454 S
C1197 C1194 1.409 . S
C1197 C1195 1.415 1_455 S
C1198 H1188 0.930 . S
C1198 C1196 1.419 1_556 S
C1198 C1199 1.362 . S
C1199 H1189 0.930 . S
C1199 C1192 1.409 . S
C1199 C1198 1.362 . S
H1200 C1206 0.930 . S
H1201 C1209 0.930 . S
H1202 C1210 0.930 . S
H1203 C1211 0.930 . S
H1204 C1214 0.930 . S
H1205 C1215 0.930 . S
C1206 H1200 0.930 . S
C1206 C1207 1.355 . S
C1206 C1208 1.415 . S
C1207 C1206 1.355 . S
C1207 C1209 1.419 . S
C1208 C1206 1.415 . S
C1208 C1213 1.425 . S
C1208 C1215 1.409 . S
C1209 H1201 0.930 . S
C1209 C1207 1.419 . S
C1209 C1210 1.362 . S
C1210 H1202 0.930 . S
C1210 C1209 1.362 . S
C1210 C1213 1.409 . S
C1211 H1203 0.930 . S
C1211 C1212 1.355 . S
C1211 C1213 1.415 . S
C1212 C1211 1.355 . S
C1212 C1214 1.419 . S
C1213 C1208 1.425 . S
C1213 C1210 1.409 . S
C1213 C1211 1.415 . S
C1214 H1204 0.930 . S
C1214 C1212 1.419 . S
C1214 C1215 1.362 . S
C1215 H1205 0.930 . S
C1215 C1208 1.409 . S
C1215 C1214 1.362 . S
H1216 C1222 0.930 . S
H1217 C1225 0.930 . S
H1218 C1226 0.930 . S
H1219 C1227 0.930 . S
H1220 C1230 0.930 . S
H1221 C1231 0.930 . S
C1222 H1216 0.930 . S
C1222 C1223 1.355 . S
C1222 C1224 1.415 . S
C1223 C1222 1.355 . S
C1223 C1225 1.419 . S
C1224 C1222 1.415 . S
C1224 C1229 1.425 . S
C1224 C1231 1.409 . S
C1225 H1217 0.930 . S
C1225 C1223 1.419 . S
C1225 C1226 1.362 . S
C1226 H1218 0.930 . S
C1226 C1225 1.362 . S
C1226 C1229 1.409 . S
C1227 H1219 0.930 . S
C1227 C1228 1.355 . S
C1227 C1229 1.415 . S
C1228 C1227 1.355 . S
C1228 C1230 1.419 . S
C1229 C1224 1.425 . S
C1229 C1226 1.409 . S
C1229 C1227 1.415 . S
C1230 H1220 0.930 . S
C1230 C1228 1.419 . S
C1230 C1231 1.362 . S
C1231 H1221 0.930 . S
C1231 C1224 1.409 . S
C1231 C1230 1.362 . S
H1232 C1238 0.930 . S
H1233 C1241 0.930 . S
H1234 C1242 0.930 . S
H1235 C1243 0.930 . S
H1236 C1246 0.930 . S
H1237 C1247 0.930 . S
C1238 H1232 0.930 . S
C1238 C1239 1.355 . S
C1238 C1240 1.415 . S
C1239 C1238 1.355 . S
C1239 C1241 1.419 . S
C1240 C1238 1.415 . S
C1240 C1245 1.425 . S
C1240 C1247 1.409 . S
C1241 H1233 0.930 . S
C1241 C1239 1.419 . S
C1241 C1242 1.362 . S
C1242 H1234 0.930 . S
C1242 C1241 1.362 . S
C1242 C1245 1.409 . S
C1243 H1235 0.930 . S
C1243 C1244 1.355 . S
C1243 C1245 1.415 . S
C1244 C1243 1.355 . S
C1244 C1246 1.419 . S
C1245 C1240 1.425 . S
C1245 C1242 1.409 . S
C1245 C1243 1.415 . S
C1246 H1236 0.930 . S
C1246 C1244 1.419 . S
C1246 C1247 1.362 . S
C1247 H1237 0.930 . S
C1247 C1240 1.409 . S
C1247 C1246 1.362 . S
H1248 C1254 0.930 . S
H1249 C1257 0.930 . S
H1250 C1258 0.930 . S
H1251 C1259 0.930 . S
H1252 C1262 0.930 . S
H1253 C1263 0.930 . S
C1254 H1248 0.930 . S
C1254 C1255 1.355 . S
C1254 C1256 1.415 . S
C1255 C1254 1.355 . S
C1255 C1257 1.419 . S
C1256 C1254 1.415 . S
C1256 C1261 1.425 . S
C1256 C1263 1.409 . S
C1257 H1249 0.930 . S
C1257 C1255 1.419 . S
C1257 C1258 1.362 . S
C1258 H1250 0.930 . S
C1258 C1257 1.362 . S
C1258 C1261 1.409 . S
C1259 H1251 0.930 . S
C1259 C1260 1.355 . S
C1259 C1261 1.415 . S
C1260 C1259 1.355 . S
C1260 C1262 1.419 . S
C1261 C1256 1.425 . S
C1261 C1258 1.409 . S
C1261 C1259 1.415 . S
C1262 H1252 0.930 . S
C1262 C1260 1.419 . S
C1262 C1263 1.362 . S
C1263 H1253 0.930 . S
C1263 C1256 1.409 . S
C1263 C1262 1.362 . S
H1264 C1270 0.930 . S
H1265 C1273 0.930 . S
H1266 C1274 0.930 . S
H1267 C1275 0.930 . S
H1268 C1278 0.930 . S
H1269 C1279 0.930 . S
C1270 H1264 0.930 . S
C1270 C1271 1.355 . S
C1270 C1272 1.415 . S
C1271 C1270 1.355 . S
C1271 C1273 1.419 . S
C1272 C1270 1.415 . S
C1272 C1277 1.425 . S
C1272 C1279 1.409 . S
C1273 H1265 0.930 . S
C1273 C1271 1.419 . S
C1273 C1274 1.362 . S
C1274 H1266 0.930 . S
C1274 C1273 1.362 . S
C1274 C1277 1.409 . S
C1275 H1267 0.930 . S
C1275 C1276 1.355 . S
C1275 C1277 1.415 . S
C1276 C1275 1.355 . S
C1276 C1278 1.419 . S
C1277 C1272 1.425 . S
C1277 C1274 1.409 . S
C1277 C1275 1.415 . S
C1278 H1268 0.930 . S
C1278 C1276 1.419 . S
C1278 C1279 1.362 . S
C1279 H1269 0.930 . S
C1279 C1272 1.409 . S
C1279 C1278 1.362 . S
H1280 C1286 0.930 . S
H1281 C1289 0.930 . S
H1282 C1290 0.930 . S
H1283 C1291 0.930 . S
H1284 C1294 0.930 . S
H1285 C1295 0.930 . S
C1286 H1280 0.930 . S
C1286 C1287 1.355 . S
C1286 C1288 1.415 . S
C1287 C1286 1.355 . S
C1287 C1289 1.419 . S
C1288 C1286 1.415 . S
C1288 C1293 1.425 . S
C1288 C1295 1.409 . S
C1289 H1281 0.930 . S
C1289 C1287 1.419 . S
C1289 C1290 1.362 . S
C1290 H1282 0.930 . S
C1290 C1289 1.362 . S
C1290 C1293 1.409 . S
C1291 H1283 0.930 . S
C1291 C1292 1.355 . S
C1291 C1293 1.415 . S
C1292 C1291 1.355 . S
C1292 C1294 1.419 . S
C1293 C1288 1.425 . S
C1293 C1290 1.409 . S
C1293 C1291 1.415 . S
C1294 H1284 0.930 . S
C1294 C1292 1.419 . S
C1294 C1295 1.362 . S
C1295 H1285 0.930 . S
C1295 C1288 1.409 . S
C1295 C1294 1.362 . S
H1296 C1302 0.930 . S
H1297 C1305 0.930 . S
H1298 C1306 0.930 . S
H1299 C1307 0.930 . S
H1300 C1310 0.930 . S
H1301 C1311 0.930 . S
C1302 H1296 0.930 . S
C1302 C1303 1.355 . S
C1302 C1304 1.415 . S
C1303 C1302 1.355 . S
C1303 C1305 1.419 . S
C1304 C1302 1.415 . S
C1304 C1309 1.425 . S
C1304 C1311 1.409 . S
C1305 H1297 0.930 . S
C1305 C1303 1.419 . S
C1305 C1306 1.362 . S
C1306 H1298 0.930 . S
C1306 C1305 1.362 . S
C1306 C1309 1.409 . S
C1307 H1299 0.930 . S
C1307 C1308 1.355 . S
C1307 C1309 1.415 . S
C1308 C1307 1.355 . S
C1308 C1310 1.419 . S
C1309 C1304 1.425 . S
C1309 C1306 1.409 . S
C1309 C1307 1.415 . S
C1310 H1300 0.930 . S
C1310 C1308 1.419 . S
C1310 C1311 1.362 . S
C1311 H1301 0.930 . S
C1311 C1304 1.409 . S
C1311 C1310 1.362 . S
H1312 C1318 0.930 . S
H1313 C1321 0.930 . S
H1314 C1322 0.930 . S
H1315 C1323 0.930 . S
H1316 C1326 0.930 . S
H1317 C1327 0.930 . S
C1318 H1312 0.930 . S
C1318 C1319 1.355 . S
C1318 C1320 1.415 . S
C1319 C1318 1.355 . S
C1319 C1321 1.419 . S
C1320 C1318 1.415 . S
C1320 C1325 1.425 . S
C1320 C1327 1.409 . S
C1321 H1313 0.930 . S
C1321 C1319 1.419 . S
C1321 C1322 1.362 . S
C1322 H1314 0.930 . S
C1322 C1321 1.362 . S
C1322 C1325 1.409 . S
C1323 H1315 0.930 . S
C1323 C1324 1.355 . S
C1323 C1325 1.415 . S
C1324 C1323 1.355 . S
C1324 C1326 1.419 . S
C1325 C1320 1.425 . S
C1325 C1322 1.409 . S
C1325 C1323 1.415 . S
C1326 H1316 0.930 . S
C1326 C1324 1.419 . S
C1326 C1327 1.362 . S
C1327 H1317 0.930 . S
C1327 C1320 1.409 . S
C1327 C1326 1.362 . S
H1328 C1334 0.930 . S
H1329 C1337 0.930 . S
H1330 C1338 0.930 . S
H1331 C1339 0.930 . S
H1332 C1342 0.930 . S
H1333 C1343 0.930 . S
C1334 H1328 0.930 . S
C1334 C1335 1.355 . S
C1334 C1336 1.415 . S
C1335 C1334 1.355 . S
C1335 C1337 1.419 . S
C1336 C1334 1.415 . S
C1336 C1341 1.425 . S
C1336 C1343 1.409 . S
C1337 H1329 0.930 . S
C1337 C1335 1.419 . S
C1337 C1338 1.362 . S
C1338 H1330 0.930 . S
C1338 C1337 1.362 . S
C1338 C1341 1.409 . S
C1339 H1331 0.930 . S
C1339 C1340 1.355 . S
C1339 C1341 1.415 . S
C1340 C1339 1.355 . S
C1340 C1342 1.419 . S
C1341 C1336 1.425 . S
C1341 C1338 1.409 . S
C1341 C1339 1.415 . S
C1342 H1332 0.930 . S
C1342 C1340 1.419 . S
C1342 C1343 1.362 . S
C1343 H1333 0.930 . S
C1343 C1336 1.409 . S
C1343 C1342 1.362 . S
H1344 C1350 0.930 . S
H1345 C1353 0.930 . S
H1346 C1354 0.930 . S
H1347 C1355 0.930 . S
H1348 C1358 0.930 . S
H1349 C1359 0.930 . S
C1350 H1344 0.930 . S
C1350 C1351 1.355 . S
C1350 C1352 1.415 . S
C1351 C1350 1.355 . S
C1351 C1353 1.419 . S
C1352 C1350 1.415 . S
C1352 C1357 1.425 . S
C1352 C1359 1.409 . S
C1353 H1345 0.930 . S
C1353 C1351 1.419 . S
C1353 C1354 1.362 . S
C1354 H1346 0.930 . S
C1354 C1353 1.362 . S
C1354 C1357 1.409 . S
C1355 H1347 0.930 . S
C1355 C1356 1.355 . S
C1355 C1357 1.415 . S
C1356 C1355 1.355 . S
C1356 C1358 1.419 . S
C1357 C1352 1.425 . S
C1357 C1354 1.409 . S
C1357 C1355 1.415 . S
C1358 H1348 0.930 . S
C1358 C1356 1.419 . S
C1358 C1359 1.362 . S
C1359 H1349 0.930 . S
C1359 C1352 1.409 . S
C1359 C1358 1.362 . S
H1360 C1366 0.930 . S
H1361 C1369 0.930 . S
H1362 C1370 0.930 . S
H1363 C1371 0.930 . S
H1364 C1374 0.930 . S
H1365 C1375 0.930 . S
C1366 H1360 0.930 . S
C1366 C1367 1.355 . S
C1366 C1368 1.415 . S
C1367 C1366 1.355 . S
C1367 C1369 1.419 . S
C1368 C1366 1.415 . S
C1368 C1373 1.425 . S
C1368 C1375 1.409 . S
C1369 H1361 0.930 . S
C1369 C1367 1.419 . S
C1369 C1370 1.362 . S
C1370 H1362 0.930 . S
C1370 C1369 1.362 . S
C1370 C1373 1.409 . S
C1371 H1363 0.930 . S
C1371 C1372 1.355 . S
C1371 C1373 1.415 . S
C1372 C1371 1.355 . S
C1372 C1374 1.419 . S
C1373 C1368 1.425 . S
C1373 C1370 1.409 . S
C1373 C1371 1.415 . S
C1374 H1364 0.930 . S
C1374 C1372 1.419 . S
C1374 C1375 1.362 . S
C1375 H1365 0.930 . S
C1375 C1368 1.409 . S
C1375 C1374 1.362 . S
H1376 C1382 0.930 . S
H1377 C1385 0.930 . S
H1378 C1386 0.930 . S
H1379 C1387 0.930 . S
H1380 C1390 0.930 . S
H1381 C1391 0.930 . S
C1382 H1376 0.930 . S
C1382 C1383 1.355 . S
C1382 C1384 1.415 . S
C1383 C1382 1.355 . S
C1383 C1385 1.419 . S
C1384 C1382 1.415 . S
C1384 C1389 1.425 . S
C1384 C1391 1.409 . S
C1385 H1377 0.930 . S
C1385 C1383 1.419 . S
C1385 C1386 1.362 . S
C1386 H1378 0.930 . S
C1386 C1385 1.362 . S
C1386 C1389 1.409 . S
C1387 H1379 0.930 . S
C1387 C1388 1.355 . S
C1387 C1389 1.415 . S
C1388 C1387 1.355 . S
C1388 C1390 1.419 . S
C1389 C1384 1.425 . S
C1389 C1386 1.409 . S
C1389 C1387 1.415 . S
C1390 H1380 0.930 . S
C1390 C1388 1.419 . S
C1390 C1391 1.362 . S
C1391 H1381 0.930 . S
C1391 C1384 1.409 . S
C1391 C1390 1.362 . S
H1392 C1398 0.930 . S
H1393 C1401 0.930 . S
H1394 C1402 0.930 . S
H1395 C1403 0.930 . S
H1396 C1406 0.930 . S
H1397 C1407 0.930 . S
C1398 H1392 0.930 . S
C1398 C1399 1.355 . S
C1398 C1400 1.415 . S
C1399 C1398 1.355 . S
C1399 C1401 1.419 . S
C1400 C1398 1.415 . S
C1400 C1405 1.425 . S
C1400 C1407 1.409 . S
C1401 H1393 0.930 . S
C1401 C1399 1.419 . S
C1401 C1402 1.362 . S
C1402 H1394 0.930 . S
C1402 C1401 1.362 . S
C1402 C1405 1.409 . S
C1403 H1395 0.930 . S
C1403 C1404 1.355 . S
C1403 C1405 1.415 . S
C1404 C1403 1.355 . S
C1404 C1406 1.419 . S
C1405 C1400 1.425 . S
C1405 C1402 1.409 . S
C1405 C1403 1.415 . S
C1406 H1396 0.930 . S
C1406 C1404 1.419 . S
C1406 C1407 1.362 . S
C1407 H1397 0.930 . S
C1407 C1400 1.409 . S
C1407 C1406 1.362 . S
H1408 C1414 0.930 . S
H1409 C1417 0.930 . S
H1410 C1418 0.930 . S
H1411 C1419 0.930 . S
H1412 C1422 0.930 . S
H1413 C1423 0.930 . S
C1414 H1408 0.930 . S
C1414 C1415 1.355 . S
C1414 C1416 1.415 . S
C1415 C1414 1.355 . S
C1415 C1417 1.419 . S
C1416 C1414 1.415 . S
C1416 C1421 1.425 . S
C1416 C1423 1.409 . S
C1417 H1409 0.930 . S
C1417 C1415 1.419 . S
C1417 C1418 1.362 . S
C1418 H1410 0.930 . S
C1418 C1417 1.362 . S
C1418 C1421 1.409 . S
C1419 H1411 0.930 . S
C1419 C1420 1.355 . S
C1419 C1421 1.415 . S
C1420 C1419 1.355 . S
C1420 C1422 1.419 . S
C1421 C1416 1.425 . S
C1421 C1418 1.409 . S
C1421 C1419 1.415 . S
C1422 H1412 0.930 . S
C1422 C1420 1.419 . S
C1422 C1423 1.362 . S
C1423 H1413 0.930 . S
C1423 C1416 1.409 . S
C1423 C1422 1.362 . S
H1424 C1430 0.930 . S
H1425 C1433 0.930 . S
H1426 C1434 0.930 . S
H1427 C1435 0.930 . S
H1428 C1438 0.930 . S
H1429 C1439 0.930 . S
C1430 H1424 0.930 . S
C1430 C1431 1.355 . S
C1430 C1432 1.415 . S
C1431 C1430 1.355 . S
C1431 C1433 1.419 . S
C1432 C1430 1.415 . S
C1432 C1437 1.425 . S
C1432 C1439 1.409 . S
C1433 H1425 0.930 . S
C1433 C1431 1.419 . S
C1433 C1434 1.362 . S
C1434 H1426 0.930 . S
C1434 C1433 1.362 . S
C1434 C1437 1.409 . S
C1435 H1427 0.930 . S
C1435 C1436 1.355 . S
C1435 C1437 1.415 . S
C1436 C1435 1.355 . S
C1436 C1438 1.419 . S
C1437 C1432 1.425 . S
C1437 C1434 1.409 . S
C1437 C1435 1.415 . S
C1438 H1428 0.930 . S
C1438 C1436 1.419 . S
C1438 C1439 1.362 . S
C1439 H1429 0.930 . S
C1439 C1432 1.409 . S
C1439 C1438 1.362 . S
H1440 C1446 0.930 . S
H1441 C1449 0.930 . S
H1442 C1450 0.930 . S
H1443 C1451 0.930 . S
H1444 C1454 0.930 . S
H1445 C1455 0.930 . S
C1446 H1440 0.930 . S
C1446 C1447 1.355 . S
C1446 C1448 1.415 . S
C1447 C1446 1.355 . S
C1447 C1449 1.419 . S
C1448 C1446 1.415 . S
C1448 C1453 1.425 . S
C1448 C1455 1.409 . S
C1449 H1441 0.930 . S
C1449 C1447 1.419 . S
C1449 C1450 1.362 . S
C1450 H1442 0.930 . S
C1450 C1449 1.362 . S
C1450 C1453 1.409 . S
C1451 H1443 0.930 . S
C1451 C1452 1.355 . S
C1451 C1453 1.415 . S
C1452 C1451 1.355 . S
C1452 C1454 1.419 . S
C1453 C1448 1.425 . S
C1453 C1450 1.409 . S
C1453 C1451 1.415 . S
C1454 H1444 0.930 . S
C1454 C1452 1.419 . S
C1454 C1455 1.362 . S
C1455 H1445 0.930 . S
C1455 C1448 1.409 . S
C1455 C1454 1.362 . S
H1456 C1462 0.930 . S
H1457 C1465 0.930 . S
H1458 C1466 0.930 . S
H1459 C1467 0.930 . S
H1460 C1470 0.930 . S
H1461 C1471 0.930 . S
C1462 H1456 0.930 . S
C1462 C1463 1.355 . S
C1462 C1464 1.415 . S
C1463 C1462 1.355 . S
C1463 C1465 1.419 . S
C1464 C1462 1.415 . S
C1464 C1469 1.425 . S
C1464 C1471 1.409 . S
C1465 H1457 0.930 . S
C1465 C1463 1.419 . S
C1465 C1466 1.362 . S
C1466 H1458 0.930 . S
C1466 C1465 1.362 . S
C1466 C1469 1.409 . S
C1467 H1459 0.930 . S
C1467 C1468 1.355 . S
C1467 C1469 1.415 . S
C1468 C1467 1.355 . S
C1468 C1470 1.419 . S
C1469 C1464 1.425 . S
C1469 C1466 1.409 . S
C1469 C1467 1.415 . S
C1470 H1460 0.930 . S
C1470 C1468 1.419 . S
C1470 C1471 1.362 . S
C1471 H1461 0.930 . S
C1471 C1464 1.409 . S
C1471 C1470 1.362 . S
C455 C135 1.201 . S
C460 C3 1.272 . S
C471 C17 1.246 1_455 S
C476 C373 1.095 . S
C487 C163 1.096 . S
C492 C31 1.255 . S
C503 C345 1.115 . S
C508 C45 1.243 . S
C519 C59 1.270 . S
C524 C219 1.162 . S
C535 C401 1.127 . S
C540 C73 1.265 . S
C551 C87 1.246 . S
C556 C191 1.165 . S
C567 C429 1.200 . S
C572 C101 1.253 1_455 S
C583 C23 1.188 . S
C588 C115 1.272 . S
C599 C129 1.269 1_655 S
C604 C261 1.151 . S
C615 C51 1.099 . S
C620 C143 1.245 . S
C631 C157 1.267 . S
C636 C233 1.137 . S
C647 C171 1.272 . S
C652 C107 1.179 . S
C663 C289 1.102 . S
C668 C185 1.258 . S
C679 C199 1.247 . S
C684 C79 1.094 . S
C695 C317 1.219 . S
C700 C213 1.261 1_655 S
C711 C359 1.148 . S
C716 C227 1.244 . S
C727 C149 1.194 . S
C732 C241 1.251 . S
C743 C255 1.262 . S
C748 C387 1.220 . S
C759 C121 1.125 . S
C764 C269 1.264 1_655 S
C775 C443 1.091 . S
C780 C283 1.248 . S
C791 C297 1.269 1_655 S
C796 C177 1.218 . S
C807 C415 1.152 . S
C812 C311 1.269 . S
C823 C205 1.140 . S
C828 C325 1.243 . S
C839 C247 1.222 . S
C844 C339 1.264 . S
C855 C353 1.272 . S
C860 C37 1.187 . S
C871 C367 1.244 . S
C876 C275 1.104 . S
C887 C381 1.254 1_455 S
C892 C9 1.205 . S
C903 C331 1.136 . S
C908 C395 1.243 . S
C919 C409 1.248 1_455 S
C924 C65 1.177 . S
C935 C423 1.247 . S
C940 C303 1.094 . S
C951 C437 1.252 . S
C956 C93 1.198 . S
C967 C344 1.566 . S
C972 C8 1.566 . S
C983 C22 1.495 . S
C988 C134 1.495 . S
C999 C36 1.569 . S
C1004 C372 1.569 . S
C1015 C50 1.517 . S
C1020 C162 1.517 . S
C1031 C64 1.516 . S
C1036 C400 1.516 . S
C1047 C78 1.495 . S
C1052 C190 1.495 . S
C1063 C428 1.569 . S
C1068 C92 1.569 . S
C1079 C106 1.495 . S
C1084 C218 1.495 . S
C1095 C120 1.496 . S
C1100 C232 1.496 . S
C1111 C148 1.499 . S
C1116 C260 1.499 . S
C1127 C288 1.494 . S
C1132 C176 1.494 . S
C1143 C316 1.495 . S
C1148 C204 1.495 . S
C1159 C246 1.494 . S
C1164 C358 1.494 . S
C1175 C386 1.566 . S
C1180 C274 1.566 . S
C1191 C302 1.552 . S
C1196 C414 1.552 . S
C1207 C442 1.534 . S
C1212 C330 1.534 . S
C1223 C301 1.657 . S
C1228 C7 1.693 . S
C1239 C315 1.702 . S
C1244 C21 1.711 . S
C1255 C35 1.662 . S
C1260 C329 1.673 . S
C1271 C287 1.658 . S
C1276 C49 1.695 . S
C1287 C273 1.686 . S
C1292 C63 1.658 . S
C1303 C231 1.681 . S
C1308 C77 1.716 . S
C1319 C91 1.695 . S
C1324 C245 1.714 . S
C1335 C259 1.696 . S
C1340 C105 1.658 . S
C1351 C413 1.687 . S
C1356 C119 1.716 . S
C1367 C427 1.658 . S
C1372 C133 1.695 . S
C1383 C441 1.716 . S
C1388 C147 1.689 . S
C1399 C161 1.667 . S
C1404 C399 1.711 . S
C1415 C385 1.689 . S
C1420 C175 1.716 . S
C1431 C343 1.711 . S
C1436 C189 1.700 . S
C1447 C357 1.703 . S
C1452 C203 1.710 . S
C1463 C371 1.716 . S
C1468 C217 1.679 . S
