# Generated by pormake.
# Topology wme, (6)-cn, num edge types: 1
# Building blocks:
#     Node 0, Type 0, BuildingBlock: VOLQOD_clean_sbu_1, # of connection points: 6
#     Node 1, Type 0, BuildingBlock: VOLQOD_clean_sbu_1, # of connection points: 6
#     Node 2, Type 0, BuildingBlock: VOLQOD_clean_sbu_1, # of connection points: 6
#     Node 3, Type 0, BuildingBlock: VOLQOD_clean_sbu_1, # of connection points: 6
#     Node 4, Type 0, BuildingBlock: VOLQOD_clean_sbu_1, # of connection points: 6
#     Node 5, Type 0, BuildingBlock: VOLQOD_clean_sbu_1, # of connection points: 6
#     Node 6, Type 0, BuildingBlock: VOLQOD_clean_sbu_1, # of connection points: 6
#     Node 7, Type 0, BuildingBlock: VOLQOD_clean_sbu_1, # of connection points: 6
#     Node 8, Type 0, BuildingBlock: VOLQOD_clean_sbu_1, # of connection points: 6
#     Node 9, Type 0, BuildingBlock: VOLQOD_clean_sbu_1, # of connection points: 6
#     Node 10, Type 0, BuildingBlock: VOLQOD_clean_sbu_1, # of connection points: 6
#     Node 11, Type 0, BuildingBlock: VOLQOD_clean_sbu_1, # of connection points: 6
#     Edge 12, Type (0, 0), BuildingBlock: CIFDUS_clean_linker_0, # of connection points: 2
#     Edge 13, Type (0, 0), BuildingBlock: CIFDUS_clean_linker_0, # of connection points: 2
#     Edge 14, Type (0, 0), BuildingBlock: CIFDUS_clean_linker_0, # of connection points: 2
#     Edge 15, Type (0, 0), BuildingBlock: CIFDUS_clean_linker_0, # of connection points: 2
#     Edge 16, Type (0, 0), BuildingBlock: CIFDUS_clean_linker_0, # of connection points: 2
#     Edge 17, Type (0, 0), BuildingBlock: CIFDUS_clean_linker_0, # of connection points: 2
#     Edge 18, Type (0, 0), BuildingBlock: CIFDUS_clean_linker_0, # of connection points: 2
#     Edge 19, Type (0, 0), BuildingBlock: CIFDUS_clean_linker_0, # of connection points: 2
#     Edge 20, Type (0, 0), BuildingBlock: CIFDUS_clean_linker_0, # of connection points: 2
#     Edge 21, Type (0, 0), BuildingBlock: CIFDUS_clean_linker_0, # of connection points: 2
#     Edge 22, Type (0, 0), BuildingBlock: CIFDUS_clean_linker_0, # of connection points: 2
#     Edge 23, Type (0, 0), BuildingBlock: CIFDUS_clean_linker_0, # of connection points: 2
#     Edge 24, Type (0, 0), BuildingBlock: CIFDUS_clean_linker_0, # of connection points: 2
#     Edge 25, Type (0, 0), BuildingBlock: CIFDUS_clean_linker_0, # of connection points: 2
#     Edge 26, Type (0, 0), BuildingBlock: CIFDUS_clean_linker_0, # of connection points: 2
#     Edge 27, Type (0, 0), BuildingBlock: CIFDUS_clean_linker_0, # of connection points: 2
#     Edge 28, Type (0, 0), BuildingBlock: CIFDUS_clean_linker_0, # of connection points: 2
#     Edge 29, Type (0, 0), BuildingBlock: CIFDUS_clean_linker_0, # of connection points: 2
#     Edge 30, Type (0, 0), BuildingBlock: CIFDUS_clean_linker_0, # of connection points: 2
#     Edge 31, Type (0, 0), BuildingBlock: CIFDUS_clean_linker_0, # of connection points: 2
#     Edge 32, Type (0, 0), BuildingBlock: CIFDUS_clean_linker_0, # of connection points: 2
#     Edge 33, Type (0, 0), BuildingBlock: CIFDUS_clean_linker_0, # of connection points: 2
#     Edge 34, Type (0, 0), BuildingBlock: CIFDUS_clean_linker_0, # of connection points: 2
#     Edge 35, Type (0, 0), BuildingBlock: CIFDUS_clean_linker_0, # of connection points: 2
#     Edge 36, Type (0, 0), BuildingBlock: CIFDUS_clean_linker_0, # of connection points: 2
#     Edge 37, Type (0, 0), BuildingBlock: CIFDUS_clean_linker_0, # of connection points: 2
#     Edge 38, Type (0, 0), BuildingBlock: CIFDUS_clean_linker_0, # of connection points: 2
#     Edge 39, Type (0, 0), BuildingBlock: CIFDUS_clean_linker_0, # of connection points: 2
#     Edge 40, Type (0, 0), BuildingBlock: CIFDUS_clean_linker_0, # of connection points: 2
#     Edge 41, Type (0, 0), BuildingBlock: CIFDUS_clean_linker_0, # of connection points: 2
#     Edge 42, Type (0, 0), BuildingBlock: CIFDUS_clean_linker_0, # of connection points: 2
#     Edge 43, Type (0, 0), BuildingBlock: CIFDUS_clean_linker_0, # of connection points: 2
#     Edge 44, Type (0, 0), BuildingBlock: CIFDUS_clean_linker_0, # of connection points: 2
#     Edge 45, Type (0, 0), BuildingBlock: CIFDUS_clean_linker_0, # of connection points: 2
#     Edge 46, Type (0, 0), BuildingBlock: CIFDUS_clean_linker_0, # of connection points: 2
#     Edge 47, Type (0, 0), BuildingBlock: CIFDUS_clean_linker_0, # of connection points: 2
# Relax obj value: 0.332
# Max RMSD: 0.236
# Mean RMSD: 0.236
data_MOF--net-wme--node1-VOLQOD_clean_sbu_1--edge1-CIFDUS_clean_linker_0
_symmetry_space_group_name_H-M    P1
_symmetry_Int_Tables_number       1
_symmetry_cell_setting            triclinic
loop_
_symmetry_equiv_pos_as_xyz
'x, y, z'
_cell_length_a     28.215264
_cell_length_b     28.113267
_cell_length_c     57.880438
_cell_angle_alpha  89.505797
_cell_angle_beta   90.364312
_cell_angle_gamma 120.37509
loop_
_atom_site_label
_atom_site_type_symbol
_atom_site_fract_x
_atom_site_fract_y
_atom_site_fract_z
_atom_type_partial_charge
O0 O 0.16491 0.40051 0.09388 0.0
Zn1 Zn 0.17508 0.33668 0.08618 0.0
O2 O 0.21696 0.32576 0.11106 0.0
Zn3 Zn 0.28141 0.3277 0.09855 0.0
Zn4 Zn 0.24133 0.3816 0.13435 0.0
Zn5 Zn 0.17029 0.25709 0.12637 0.0
O6 O 0.28398 0.25943 0.10703 0.0
O7 O 0.20044 0.20817 0.12221 0.0
O8 O 0.20929 0.3434 0.05462 0.0
O9 O 0.27643 0.32776 0.06464 0.0
O10 O 0.35155 0.39788 0.10669 0.0
O11 O 0.32147 0.43449 0.13249 0.0
O12 O 0.22038 0.35326 0.16666 0.0
O13 O 0.09606 0.27449 0.08524 0.0
O14 O 0.16494 0.26443 0.16021 0.0
O15 O 0.09293 0.2238 0.11543 0.0
C16 C 0.17364 0.42591 0.11296 0.0
C17 C 0.24616 0.21435 0.11562 0.0
C18 C 0.3601 0.43609 0.12069 0.0
C19 C 0.24863 0.33557 0.0493 0.0
C20 C 0.18708 0.30492 0.17394 0.0
C21 C 0.06922 0.23458 0.09918 0.0
O22 O 0.2016 0.42092 0.12904 0.0
O23 O 0.73842 0.16555 0.59195 0.0
Zn24 Zn 0.81344 0.17325 0.58847 0.0
O25 O 0.86374 0.2186 0.61316 0.0
Zn26 Zn 0.93132 0.27739 0.60015 0.0
Zn27 Zn 0.83097 0.25079 0.63096 0.0
Zn28 Zn 0.87641 0.17354 0.63437 0.0
O29 O -0.0028 0.27685 0.614 0.0
O30 O 0.95516 0.19558 0.63226 0.0
O31 O 0.84889 0.19729 0.55675 0.0
O32 O 0.9335 0.26093 0.56715 0.0
O33 O 0.93341 0.3512 0.60043 0.0
O34 O 0.85716 0.32668 0.62041 0.0
O35 O 0.8421 0.25038 0.6652 0.0
O36 O 0.79296 0.09441 0.59268 0.0
O37 O 0.86106 0.18315 0.6672 0.0
O38 O 0.82759 0.0935 0.62711 0.0
C39 C 0.7196 0.17446 0.61036 0.0
C40 C -0.00132 0.23797 0.62495 0.0
C41 C 0.89831 0.36207 0.60887 0.0
C42 C 0.89924 0.23066 0.55185 0.0
C43 C 0.84996 0.21666 0.67699 0.0
C44 C 0.79789 0.06837 0.6097 0.0
O45 O 0.75133 0.20495 0.62629 0.0
O46 O 0.61711 0.77388 0.0864 0.0
Zn47 Zn 0.67928 0.85256 0.09082 0.0
O48 O 0.66224 0.89475 0.11277 0.0
Zn49 Zn 0.6615 0.9561 0.09703 0.0
Zn50 Zn 0.59303 0.84475 0.12613 0.0
Zn51 Zn 0.71262 0.92216 0.13832 0.0
O52 O 0.71987 0.02995 0.1099 0.0
O53 O 0.76075 0.00282 0.13548 0.0
O54 O 0.70482 0.89216 0.06007 0.0
O55 O 0.6894 0.96162 0.06494 0.0
O56 O 0.58306 0.94275 0.09483 0.0
O57 O 0.53942 0.86106 0.11262 0.0
O58 O 0.58973 0.84525 0.16068 0.0
O59 O 0.73766 0.84136 0.10488 0.0
O60 O 0.67706 0.90143 0.16938 0.0
O61 O 0.75839 0.88755 0.13789 0.0
C62 C 0.58081 0.74535 0.10144 0.0
C63 C 0.75871 0.04063 0.12411 0.0
C64 C 0.53882 0.89939 0.10108 0.0
C65 C 0.70619 0.93571 0.05273 0.0
C66 C 0.62773 0.86903 0.17556 0.0
C67 C 0.76376 0.85603 0.12393 0.0
O68 O 0.57085 0.76799 0.11813 0.0
O69 O 0.78562 0.5877 0.59137 0.0
Zn70 Zn 0.76888 0.6502 0.58746 0.0
O71 O 0.7336 0.65948 0.61505 0.0
Zn72 Zn 0.66368 0.65304 0.60701 0.0
Zn73 Zn 0.72182 0.60442 0.63734 0.0
Zn74 Zn 0.77935 0.72804 0.63007 0.0
O75 O 0.65504 0.71477 0.62039 0.0
O76 O 0.74101 0.76985 0.63229 0.0
O77 O 0.72656 0.64791 0.55807 0.0
O78 O 0.66289 0.6631 0.57305 0.0
O79 O 0.60105 0.57573 0.61391 0.0
O80 O 0.64515 0.5436 0.63492 0.0
O81 O 0.74437 0.63091 0.66991 0.0
O82 O 0.84483 0.71595 0.58464 0.0
O83 O 0.80001 0.71945 0.66231 0.0
O84 O 0.84843 0.77145 0.61265 0.0
C85 C 0.78928 0.56745 0.61068 0.0
C86 C 0.69234 0.75997 0.62903 0.0
C87 C 0.60191 0.53656 0.62482 0.0
C88 C 0.68748 0.6582 0.55571 0.0
C89 C 0.78076 0.67894 0.67633 0.0
C90 C 0.86982 0.76113 0.59559 0.0
O91 O 0.76858 0.57399 0.62894 0.0
O92 O 0.2004 0.80728 0.09251 0.0
Zn93 Zn 0.13033 0.8068 0.09725 0.0
O94 O 0.08645 0.75398 0.12149 0.0
Zn95 Zn 0.01799 0.6953 0.10807 0.0
Zn96 Zn 0.12736 0.72489 0.13684 0.0
Zn97 Zn 0.06953 0.79017 0.14499 0.0
O98 O 0.95167 0.69134 0.12243 0.0
O99 O -0.00891 0.76628 0.14418 0.0
O100 O 0.08943 0.78984 0.06684 0.0
O101 O 0.01253 0.71144 0.0748 0.0
O102 O 0.01367 0.62193 0.10994 0.0
O103 O 0.08663 0.64472 0.13217 0.0
O104 O 0.13883 0.73923 0.17151 0.0
O105 O 0.15429 0.88394 0.10685 0.0
O106 O 0.08784 0.7774 0.17652 0.0
O107 O 0.11316 0.87081 0.14074 0.0
C108 C 0.22292 0.78501 0.10381 0.0
C109 C 0.94846 0.72566 0.13555 0.0
C110 C 0.04439 0.60907 0.12125 0.0
C111 C 0.04271 0.74995 0.06079 0.0
C112 C 0.11773 0.75953 0.1847 0.0
C113 C 0.14523 0.90268 0.12517 0.0
O114 O 0.20007 0.75383 0.12123 0.0
O115 O 0.36173 0.19586 0.60069 0.0
Zn116 Zn 0.29104 0.12202 0.60107 0.0
O117 O 0.29601 0.07103 0.62335 0.0
Zn118 Zn 0.28914 0.00616 0.60813 0.0
Zn119 Zn 0.36357 0.10646 0.63973 0.0
Zn120 Zn 0.23952 0.04709 0.6462 0.0
O121 O 0.22177 0.93549 0.61796 0.0
O122 O 0.18125 0.97235 0.63779 0.0
O123 O 0.27122 0.08797 0.56886 0.0
O124 O 0.27204 0.01033 0.57551 0.0
O125 O 0.35918 0.0028 0.60866 0.0
O126 O 0.4071 0.07169 0.63289 0.0
O127 O 0.35462 0.1079 0.6737 0.0
O128 O 0.23391 0.14029 0.61152 0.0
O129 O 0.26538 0.05266 0.67898 0.0
O130 O 0.20528 0.09376 0.64453 0.0
C131 C 0.40349 0.21382 0.61392 0.0
C132 C 0.17922 0.93212 0.62704 0.0
C133 C 0.40264 0.03297 0.62022 0.0
C134 C 0.26481 0.042 0.56206 0.0
C135 C 0.31351 0.0832 0.68704 0.0
C136 C 0.20516 0.12758 0.62985 0.0
O137 O 0.40744 0.18359 0.62933 0.0
O138 O 0.52359 0.75572 0.38852 0.0
Zn139 Zn 0.59216 0.74935 0.39013 0.0
O140 O 0.59603 0.70751 0.36374 0.0
Zn141 Zn 0.58908 0.63879 0.3746 0.0
Zn142 Zn 0.53961 0.69293 0.3416 0.0
Zn143 Zn 0.66388 0.74951 0.34755 0.0
O144 O 0.65203 0.62978 0.3636 0.0
O145 O 0.70983 0.71583 0.35179 0.0
O146 O 0.60213 0.71845 0.42072 0.0
O147 O 0.5993 0.64221 0.40868 0.0
O148 O 0.51362 0.57438 0.36708 0.0
O149 O 0.4842 0.61317 0.34139 0.0
O150 O 0.56593 0.72087 0.30937 0.0
O151 O 0.65153 0.82884 0.38712 0.0
O152 O 0.65531 0.75634 0.31376 0.0
O153 O 0.70092 0.82714 0.35776 0.0
C154 C 0.49638 0.75242 0.3703 0.0
C155 C 0.69918 0.66722 0.35662 0.0
C156 C 0.47756 0.57142 0.35284 0.0
C157 C 0.60501 0.67521 0.42477 0.0
C158 C 0.61423 0.74558 0.30111 0.0
C159 C 0.69084 0.85337 0.37285 0.0
O160 O 0.50184 0.73162 0.35183 0.0
O161 O 0.8175 0.64863 0.89475 0.0
Zn162 Zn 0.89188 0.71547 0.89094 0.0
O163 O 0.93256 0.70679 0.86534 0.0
Zn164 Zn 0.00134 0.71522 0.87703 0.0
Zn165 Zn 0.88869 0.63612 0.85094 0.0
Zn166 Zn 0.94662 0.76049 0.84151 0.0
O167 O 0.0662 0.78284 0.86324 0.0
O168 O 0.02559 0.81696 0.84102 0.0
O169 O 0.93323 0.73208 0.92114 0.0
O170 O 0.00832 0.73063 0.91097 0.0
O171 O 0.00385 0.64487 0.87273 0.0
O172 O 0.92149 0.58934 0.85709 0.0
O173 O 0.87952 0.63939 0.81655 0.0
O174 O 0.87161 0.77311 0.88336 0.0
O175 O 0.9234 0.72912 0.80993 0.0
O176 O 0.90258 0.796 0.84749 0.0
C177 C 0.79045 0.60981 0.88056 0.0
C178 C 0.06849 0.82024 0.84989 0.0
C179 C 0.96727 0.598 0.86508 0.0
C180 C -0.02058 0.73672 0.92614 0.0
C181 C 0.89537 0.67994 0.80272 0.0
C182 C 0.87544 0.79828 0.86445 0.0
O183 O 0.81296 0.60203 0.86318 0.0
O184 O 0.09723 0.71118 0.41086 0.0
Zn185 Zn 0.10372 0.78605 0.41036 0.0
O186 O 0.14899 0.83126 0.38439 0.0
Zn187 Zn 0.21219 0.89877 0.39551 0.0
Zn188 Zn 0.17128 0.78998 0.36617 0.0
Zn189 Zn 0.10609 0.84732 0.36394 0.0
O190 O 0.21342 0.96619 0.38193 0.0
O191 O 0.12853 0.92512 0.36736 0.0
O192 O 0.13051 0.82672 0.44068 0.0
O193 O 0.20311 0.9054 0.42913 0.0
O194 O 0.28266 0.89619 0.39156 0.0
O195 O 0.24843 0.81564 0.37344 0.0
O196 O 0.16498 0.7957 0.33156 0.0
O197 O 0.02463 0.7645 0.40558 0.0
O198 O 0.11686 0.83774 0.33073 0.0
O199 O 0.02683 0.79817 0.3705 0.0
C200 C 0.09963 0.68606 0.39309 0.0
C201 C 0.1731 0.96831 0.37295 0.0
C202 C 0.28826 0.85784 0.38277 0.0
C203 C 0.17018 0.87518 0.44487 0.0
C204 C 0.14092 0.8164 0.32028 0.0
C205 C 0.00028 0.76874 0.38779 0.0
O206 O 0.12425 0.71174 0.37477 0.0
O207 O 0.4495 0.23961 0.89453 0.0
Zn208 Zn 0.3766 0.2339 0.89213 0.0
O209 O 0.37581 0.27928 0.86673 0.0
Zn210 Zn 0.37235 0.34179 0.87883 0.0
Zn211 Zn 0.44027 0.30641 0.84776 0.0
Zn212 Zn 0.31407 0.23567 0.84737 0.0
O213 O 0.30972 0.3469 0.86508 0.0
O214 O 0.26619 0.2676 0.84616 0.0
O215 O 0.3595 0.25685 0.92205 0.0
O216 O 0.35686 0.33233 0.91272 0.0
O217 O 0.44379 0.41181 0.87366 0.0
O218 O 0.47786 0.38781 0.8444 0.0
O219 O 0.42549 0.27085 0.81643 0.0
O220 O 0.3223 0.15381 0.8872 0.0
O221 O 0.33471 0.22781 0.81569 0.0
O222 O 0.27297 0.1578 0.85807 0.0
C223 C 0.4918 0.26359 0.88177 0.0
C224 C 0.26926 0.31189 0.8531 0.0
C225 C 0.4792 0.42411 0.85778 0.0
C226 C 0.35261 0.29669 0.92752 0.0
C227 C 0.38005 0.24082 0.80614 0.0
C228 C 0.28276 0.13035 0.87294 0.0
O229 O 0.49328 0.29023 0.86365 0.0
O230 O 0.1357 0.32989 0.38617 0.0
Zn231 Zn 0.0587 0.26469 0.3837 0.0
O232 O 0.01767 0.27333 0.35784 0.0
Zn233 Zn 0.94933 0.26595 0.36904 0.0
Zn234 Zn 0.06175 0.34396 0.34318 0.0
Zn235 Zn 0.00095 0.21908 0.33435 0.0
O236 O 0.8829 0.20059 0.35551 0.0
O237 O 0.92104 0.16609 0.33274 0.0
O238 O 0.01787 0.25066 0.41405 0.0
O239 O 0.94183 0.24907 0.40254 0.0
O240 O 0.9488 0.33695 0.36582 0.0
O241 O 0.03022 0.39137 0.34938 0.0
O242 O 0.07093 0.34071 0.30907 0.0
O243 O 0.07231 0.20235 0.37724 0.0
O244 O 0.0296 0.25086 0.30327 0.0
O245 O 0.03723 0.17671 0.34205 0.0
C246 C 0.16184 0.36988 0.37216 0.0
C247 C 0.87896 0.16352 0.34186 0.0
C248 C -0.0146 0.38352 0.35791 0.0
C249 C 0.9707 0.24435 0.41829 0.0
C250 C 0.05737 0.30004 0.29581 0.0
C251 C 0.06342 0.17319 0.35926 0.0
O252 O 0.13792 0.37852 0.35534 0.0
O253 O 0.88763 0.26384 0.90106 0.0
Zn254 Zn 0.87369 0.18608 0.8982 0.0
O255 O 0.81635 0.14318 0.87557 0.0
Zn256 Zn 0.751 0.08541 0.8905 0.0
Zn257 Zn 0.80462 0.19397 0.8581 0.0
Zn258 Zn 0.83895 0.10961 0.85355 0.0
O259 O 0.72974 0.0084 0.87953 0.0
O260 O 0.80689 0.03142 0.86061 0.0
O261 O 0.85588 0.14779 0.92961 0.0
O262 O 0.76932 0.08166 0.92338 0.0
O263 O 0.69123 0.10523 0.88946 0.0
O264 O 0.73411 0.18322 0.86889 0.0
O265 O 0.80257 0.18466 0.82343 0.0
O266 O 0.94508 0.19853 0.88541 0.0
O267 O 0.81808 0.11529 0.82133 0.0
O268 O 0.91938 0.1477 0.85357 0.0
C269 C 0.88752 0.29314 0.88417 0.0
C270 C 0.76156 -0.00467 0.86942 0.0
C271 C 0.69338 0.14824 0.88081 0.0
C272 C 0.81104 0.10623 0.9365 0.0
C273 C 0.80739 0.1494 0.81162 0.0
C274 C 0.95653 0.18233 0.86688 0.0
O275 O 0.86186 0.27125 0.86552 0.0
H276 H 0.21426 0.98464 0.09577 0.0
H277 H 0.13873 0.95512 0.16316 0.0
H278 H 0.17588 0.05329 0.16813 0.0
H279 H 0.21651 0.1446 0.15103 0.0
H280 H 0.28719 0.17546 0.08295 0.0
H281 H 0.26729 0.07991 0.08086 0.0
C282 C 0.20642 -0.00023 0.11162 0.0
C283 C 0.17248 0.96254 0.12876 0.0
C284 C 0.22737 0.05643 0.11431 0.0
C285 C 0.16363 0.98277 0.14943 0.0
C286 C 0.18509 0.03894 0.15239 0.0
C287 C 0.22895 0.13064 0.13604 0.0
C288 C 0.25233 0.16593 0.11706 0.0
C289 C 0.21516 0.07572 0.13462 0.0
C290 C 0.26913 0.14845 0.09776 0.0
C291 C 0.25701 0.09379 0.09645 0.0
H292 H 0.19977 0.20834 0.60535 0.0
H293 H 0.13107 0.10018 0.66456 0.0
H294 H 0.06698 0.13255 0.67045 0.0
H295 H 0.02357 0.18311 0.65643 0.0
H296 H 0.08868 0.28939 0.59671 0.0
H297 H 0.16222 0.26762 0.59387 0.0
C298 C 0.17103 0.19216 0.61962 0.0
C299 C 0.16962 0.15111 0.63419 0.0
C300 C 0.13386 0.21082 0.62294 0.0
C301 C 0.13274 0.13129 0.65287 0.0
C302 C 0.09604 0.14983 0.65632 0.0
C303 C 0.05449 0.20235 0.64305 0.0
C304 C 0.05036 0.23711 0.62663 0.0
C305 C 0.09532 0.18843 0.64113 0.0
C306 C 0.09108 0.26249 0.60959 0.0
C307 C 0.1327 0.24953 0.60779 0.0
H308 H 0.81266 0.09681 0.08589 0.0
H309 H 0.82104 0.10002 0.1603 0.0
H310 H 0.91993 0.16434 0.15873 0.0
H311 H 0.00479 0.20599 0.13643 0.0
H312 H -0.00114 0.20183 0.06201 0.0
H313 H 0.89788 0.15055 0.0632 0.0
C314 C 0.83586 0.1137 0.10171 0.0
C315 C 0.80987 0.09416 0.12321 0.0
C316 C 0.89317 0.14838 0.10062 0.0
C317 C 0.84033 0.11511 0.14362 0.0
C318 C 0.89691 0.15104 0.1427 0.0
C319 C -0.01867 0.19384 0.12046 0.0
C320 C 0.00877 0.20582 0.09917 0.0
C321 C 0.92394 0.16542 0.12135 0.0
C322 C 0.97827 0.19187 0.07858 0.0
C323 C 0.92073 0.16292 0.07929 0.0
H324 H 0.6759 0.81257 0.59421 0.0
H325 H 0.69897 0.81554 0.66788 0.0
H326 H 0.73073 0.91415 0.66851 0.0
H327 H 0.76865 0.00119 0.64711 0.0
H328 H 0.75242 -0.0005 0.57287 0.0
H329 H 0.70207 0.89874 0.57329 0.0
C330 C 0.68521 0.83446 0.61048 0.0
C331 C 0.68463 0.80731 0.63101 0.0
C332 C 0.70707 0.89168 0.61042 0.0
C333 C 0.69826 0.83586 0.65199 0.0
C334 C 0.71752 0.89234 0.65225 0.0
C335 C 0.75397 0.97878 0.63102 0.0
C336 C 0.76555 0.00762 0.60994 0.0
C337 C 0.72516 0.92106 0.6314 0.0
C338 C 0.74486 0.97812 0.58929 0.0
C339 C 0.71581 0.92056 0.58953 0.0
H340 H 0.92598 0.78649 0.16418 0.0
H341 H 0.85615 0.66838 0.10886 0.0
H342 H 0.78894 0.69695 0.10125 0.0
H343 H 0.76187 0.76661 0.10582 0.0
H344 H 0.8379 0.88964 0.15913 0.0
H345 H 0.89238 0.84903 0.17152 0.0
C346 C 0.89529 0.7661 0.15077 0.0
C347 C 0.89701 0.7267 0.13664 0.0
C348 C 0.85941 0.78506 0.14555 0.0
C349 C 0.85606 0.69938 0.11981 0.0
C350 C 0.81821 0.71631 0.1152 0.0
C351 C 0.79051 0.78465 0.12009 0.0
C352 C 0.79699 0.83186 0.13115 0.0
C353 C 0.82177 0.76126 0.12709 0.0
C354 C 0.83297 0.85384 0.15007 0.0
C355 C 0.86378 0.83044 0.15729 0.0
H356 H 0.94846 0.73442 0.59816 0.0
H357 H 0.92074 0.87032 0.58716 0.0
H358 H 0.0178 0.93584 0.5944 0.0
H359 H 0.1051 0.95334 0.6097 0.0
H360 H 0.13456 0.81947 0.62333 0.0
H361 H 0.04136 0.75321 0.60938 0.0
C362 C 0.96447 0.77844 0.59648 0.0
C363 C 0.92839 0.79814 0.59197 0.0
C364 C 0.01955 0.81558 0.60196 0.0
C365 C 0.94846 0.85487 0.59035 0.0
C366 C 0.00353 0.89207 0.5948 0.0
C367 C 0.09102 0.90953 0.60974 0.0
C368 C 0.12516 0.89059 0.61835 0.0
C369 C 0.03848 0.8727 0.60172 0.0
C370 C 0.10792 0.83436 0.61733 0.0
C371 C 0.05503 0.79684 0.60926 0.0
H372 H 0.94012 0.7332 0.34893 0.0
H373 H 0.92573 0.72914 0.42318 0.0
H374 H 0.82542 0.68147 0.41975 0.0
H375 H 0.74421 0.6557 0.39533 0.0
H376 H 0.76112 0.66748 0.32129 0.0
H377 H 0.85808 0.69509 0.32479 0.0
C378 C 0.91502 0.72165 0.36438 0.0
C379 C 0.94002 0.73607 0.38625 0.0
C380 C 0.85792 0.69476 0.36224 0.0
C381 C 0.90718 0.71929 0.40615 0.0
C382 C 0.84997 0.69192 0.40419 0.0
C383 C 0.76875 0.66174 0.38003 0.0
C384 C 0.74615 0.65911 0.35809 0.0
C385 C 0.82508 0.68112 0.38229 0.0
C386 C 0.778 0.66846 0.33827 0.0
C387 C 0.83348 0.6852 0.34032 0.0
H388 H 0.14261 0.87252 0.88377 0.0
H389 H 0.10554 0.88833 0.81267 0.0
H390 H 0.17244 0.98696 0.81339 0.0
H391 H 0.23063 0.0695 0.83571 0.0
H392 H 0.26545 0.0558 0.90738 0.0
H393 H 0.20955 0.95508 0.9051 0.0
C394 C 0.15072 0.89732 0.86823 0.0
C395 C 0.11947 0.87362 0.84819 0.0
C396 C 0.18726 0.95434 0.86913 0.0
C397 C 0.12942 0.90603 0.82824 0.0
C398 C 0.16708 0.96237 0.82874 0.0
C399 C 0.22593 0.04451 0.85087 0.0
C400 C 0.25073 0.06981 0.87186 0.0
C401 C 0.1942 0.98718 0.84938 0.0
C402 C 0.24587 0.03703 0.89114 0.0
C403 C 0.21419 0.97959 0.88981 0.0
H404 H 0.13686 0.16646 0.38814 0.0
H405 H 0.04138 0.09761 0.32589 0.0
H406 H 0.07713 0.03568 0.32234 0.0
H407 H 0.12745 -0.00525 0.33866 0.0
H408 H 0.21891 0.05725 0.40194 0.0
H409 H 0.19484 0.12986 0.40282 0.0
C410 C 0.12392 0.13787 0.37383 0.0
C411 C 0.08578 0.13605 0.35755 0.0
C412 C 0.14457 0.10196 0.37186 0.0
C413 C 0.07019 0.09952 0.33883 0.0
C414 C 0.0908 0.06422 0.33668 0.0
C415 C 0.14311 0.02511 0.35237 0.0
C416 C 0.17425 0.02073 0.37031 0.0
C417 C 0.12706 0.06443 0.35329 0.0
C418 C 0.19505 0.06032 0.38788 0.0
C419 C 0.18054 0.10112 0.38856 0.0
H420 H 0.18599 0.25809 0.82331 0.0
H421 H 0.23879 0.37052 0.88073 0.0
H422 H 0.14337 0.34222 0.88923 0.0
H423 H 0.04568 0.27186 0.8852 0.0
H424 H -0.00483 0.15261 0.83018 0.0
H425 H 0.08916 0.19583 0.81648 0.0
C426 C 0.17666 0.2775 0.83731 0.0
C427 C 0.21884 0.31477 0.85184 0.0
C428 C 0.12207 0.25795 0.84319 0.0
C429 C 0.20675 0.3411 0.86944 0.0
C430 C 0.15217 0.32412 0.87461 0.0
C431 C 0.05529 0.25527 0.87026 0.0
C432 C 0.01379 0.20824 0.85913 0.0
C433 C 0.1096 0.27998 0.86253 0.0
C434 C 0.02656 0.18812 0.83939 0.0
C435 C 0.08018 0.21308 0.83136 0.0
H436 H 0.8133 0.11194 0.37811 0.0
H437 H 0.8354 0.09346 0.30573 0.0
H438 H 0.77566 -0.00637 0.30919 0.0
H439 H 0.73041 0.91231 0.3339 0.0
H440 H 0.71112 0.92902 0.40675 0.0
H441 H 0.75789 0.0296 0.40217 0.0
C442 C 0.80312 0.08617 0.36291 0.0
C443 C 0.82843 0.10961 0.34167 0.0
C444 C 0.77146 0.02877 0.36537 0.0
C445 C 0.81593 0.076 0.32217 0.0
C446 C 0.78262 0.01903 0.32425 0.0
C447 C 0.73672 0.93795 0.34884 0.0
C448 C 0.71918 0.91375 0.37079 0.0
C449 C 0.76274 -0.00497 0.34599 0.0
C450 C 0.72554 0.94712 0.3898 0.0
C451 C 0.75179 0.00438 0.38713 0.0
H452 H 0.81613 0.81761 0.89651 0.0
H453 H 0.86333 0.84237 0.82452 0.0
H454 H 0.81534 0.8926 0.81842 0.0
H455 H 0.77316 0.94155 0.83449 0.0
H456 H 0.73398 0.92686 0.9069 0.0
H457 H 0.7624 0.85805 0.91166 0.0
C458 C 0.81564 0.83378 0.87949 0.0
C459 C 0.8446 0.82744 0.86118 0.0
C460 C 0.78839 0.86353 0.87607 0.0
C461 C 0.84266 0.84775 0.8391 0.0
C462 C 0.81472 0.87607 0.83549 0.0
C463 C 0.76873 0.92142 0.85109 0.0
C464 C 0.75202 0.9391 0.87032 0.0
C465 C 0.78899 0.88561 0.85396 0.0
C466 C 0.74627 0.91323 0.89181 0.0
C467 C 0.76379 0.87495 0.89461 0.0
H468 H 0.06757 0.55559 0.15321 0.0
H469 H 0.01257 0.54395 0.08281 0.0
H470 H 0.04554 0.48051 0.07397 0.0
H471 H 0.10682 0.44469 0.0846 0.0
H472 H 0.17187 0.46984 0.15419 0.0
H473 H 0.12027 0.51358 0.16471 0.0
C474 C 0.06125 0.53762 0.13612 0.0
C475 C 0.03906 0.55494 0.11857 0.0
C476 C 0.08463 0.50587 0.13074 0.0
C477 C 0.02982 0.53103 0.09659 0.0
C478 C 0.04984 0.49589 0.09141 0.0
C479 C 0.10977 0.45992 0.10202 0.0
C480 C 0.1442 0.45511 0.11836 0.0
C481 C 0.08049 0.48608 0.108 0.0
C482 C 0.14676 0.47407 0.14103 0.0
C483 C 0.11669 0.49851 0.14723 0.0
H484 H 0.6337 0.11033 0.58105 0.0
H485 H 0.67246 0.16426 0.65199 0.0
H486 H 0.57673 0.10978 0.66233 0.0
H487 H 0.48179 0.0566 0.65094 0.0
H488 H 0.43844 0.01156 0.57974 0.0
H489 H 0.53564 0.04927 0.57009 0.0
C490 C 0.62102 0.11015 0.59871 0.0
C491 C 0.66028 0.14248 0.61552 0.0
C492 C 0.56506 0.07916 0.60466 0.0
C493 C 0.64328 0.14105 0.63847 0.0
C494 C 0.58846 0.10928 0.64457 0.0
C495 C 0.49356 0.05358 0.63342 0.0
C496 C 0.45356 0.03227 0.61604 0.0
C497 C 0.54905 0.07929 0.62776 0.0
C498 C 0.46877 0.02772 0.59346 0.0
C499 C 0.5244 0.05042 0.58786 0.0
H500 H 0.54289 0.67729 0.13787 0.0
H501 H 0.55214 0.67767 0.06353 0.0
H502 H 0.49106 0.57706 0.06329 0.0
H503 H 0.42458 0.49197 0.08422 0.0
H504 H 0.41279 0.49565 0.15837 0.0
H505 H 0.48664 0.59178 0.15883 0.0
C506 C 0.53188 0.65532 0.12158 0.0
C507 C 0.55059 0.68467 0.1007 0.0
C508 C 0.49659 0.5983 0.12164 0.0
C509 C 0.53751 0.65576 0.07979 0.0
C510 C 0.5026 0.5984 0.07968 0.0
C511 C 0.43964 0.51348 0.10048 0.0
C512 C 0.41355 0.48726 0.12125 0.0
C513 C 0.48047 0.56953 0.10048 0.0
C514 C 0.43248 0.51537 0.14224 0.0
C515 C 0.47429 0.57031 0.14247 0.0
H516 H 0.8307 0.53059 0.57649 0.0
H517 H 0.81917 0.53946 0.65066 0.0
H518 H 0.86417 0.4866 0.65631 0.0
H519 H 0.895 0.42725 0.6408 0.0
H520 H 0.90354 0.41155 0.56731 0.0
H521 H 0.87374 0.47903 0.56074 0.0
C522 C 0.83847 0.52124 0.59383 0.0
C523 C 0.82007 0.53785 0.61304 0.0
C524 C 0.86442 0.49 0.59713 0.0
C525 C 0.83138 0.52616 0.63545 0.0
C526 C 0.85763 0.49619 0.63881 0.0
C527 C 0.89223 0.44026 0.62337 0.0
C528 C 0.90143 0.41504 0.60459 0.0
C529 C 0.8728 0.47661 0.61985 0.0
C530 C 0.89739 0.43138 0.58202 0.0
C531 C 0.87937 0.46911 0.5783 0.0
H532 H 0.44971 0.80157 0.09406 0.0
H533 H 0.50559 0.97554 0.09366 0.0
H534 H 0.40978 0.95439 0.09067 0.0
H535 H 0.3103 0.88549 0.09428 0.0
H536 H 0.25837 0.71276 0.09979 0.0
H537 H 0.353 0.73415 0.09472 0.0
C538 C 0.4411 0.83507 0.09316 0.0
C539 C 0.48423 0.88999 0.09466 0.0
C540 C 0.38672 0.82256 0.09258 0.0
C541 C 0.47279 0.93295 0.09272 0.0
C542 C 0.41815 0.92078 0.0912 0.0
C543 C 0.31995 0.85272 0.09388 0.0
C544 C 0.27815 0.79773 0.09745 0.0
C545 C 0.37477 0.86566 0.09204 0.0
C546 C 0.29039 0.7553 0.0972 0.0
C547 C 0.34426 0.76753 0.09432 0.0
H548 H 0.6074 0.4452 0.63164 0.0
H549 H 0.49495 0.49944 0.61096 0.0
H550 H 0.42368 0.40334 0.60351 0.0
H551 H 0.39384 0.30351 0.60367 0.0
H552 H 0.51035 0.25382 0.62357 0.0
H553 H 0.58049 0.34946 0.6299 0.0
C554 C 0.56717 0.43636 0.62576 0.0
C555 C 0.55616 0.47934 0.62226 0.0
C556 C 0.52763 0.382 0.62092 0.0
C557 C 0.50414 0.46691 0.61409 0.0
C558 C 0.46366 0.41212 0.60966 0.0
C559 C 0.43497 0.31399 0.6089 0.0
C560 C 0.44711 0.27195 0.61318 0.0
C561 C 0.4751 0.36931 0.61293 0.0
C562 C 0.5002 0.28564 0.62024 0.0
C563 C 0.54016 0.34017 0.62401 0.0
H564 H 0.33198 0.83418 0.34772 0.0
H565 H 0.35967 0.88177 0.41922 0.0
H566 H 0.43032 0.8551 0.42181 0.0
H567 H 0.47471 0.80642 0.40451 0.0
H568 H 0.43783 0.75355 0.33335 0.0
H569 H 0.37957 0.79307 0.33005 0.0
C570 C 0.35454 0.83996 0.36372 0.0
C571 C 0.34097 0.85951 0.38323 0.0
C572 C 0.39225 0.822 0.36531 0.0
C573 C 0.3702 0.86722 0.4039 0.0
C574 C 0.40974 0.85107 0.40545 0.0
C575 C 0.45383 0.80356 0.38834 0.0
C576 C 0.46017 0.77619 0.36938 0.0
C577 C 0.41943 0.82622 0.38646 0.0
C578 C 0.43338 0.77357 0.34841 0.0
C579 C 0.40019 0.79655 0.34635 0.0
H580 H 0.72463 0.5859 0.84407 0.0
H581 H 0.72287 0.57372 0.91841 0.0
H582 H 0.62194 0.52509 0.91809 0.0
H583 H 0.53565 0.47594 0.89596 0.0
H584 H 0.53974 0.48596 0.82153 0.0
H585 H 0.63901 0.5486 0.82255 0.0
C586 C 0.70208 0.57233 0.86021 0.0
C587 C 0.7304 0.58109 0.88118 0.0
C588 C 0.64491 0.54551 0.85983 0.0
C589 C 0.70133 0.56581 0.90206 0.0
C590 C 0.64393 0.53855 0.90185 0.0
C591 C 0.55808 0.49381 0.88006 0.0
C592 C 0.53101 0.47655 0.85868 0.0
C593 C 0.61536 0.52706 0.88077 0.0
C594 C 0.56016 0.49909 0.83812 0.0
C595 C 0.61684 0.53403 0.83871 0.0
H596 H 0.05053 0.62662 0.3556 0.0
H597 H 0.07428 0.6108 0.42834 0.0
H598 H 0.0266 0.51 0.4245 0.0
H599 H -0.00804 0.42912 0.39892 0.0
H600 H 0.97635 0.44849 0.32585 0.0
H601 H 0.00526 0.54558 0.33135 0.0
C602 C 0.04518 0.60111 0.37067 0.0
C603 C 0.06734 0.62568 0.39206 0.0
C604 C 0.01844 0.54407 0.36823 0.0
C605 C 0.05839 0.59243 0.41162 0.0
C606 C 0.03109 0.53504 0.40941 0.0
C607 C -0.00732 0.45432 0.38446 0.0
C608 C -0.01837 0.43241 0.36208 0.0
C609 C 0.01257 0.51065 0.38763 0.0
C610 C -0.01604 0.46496 0.34321 0.0
C611 C 0.00125 0.5204 0.34633 0.0
H612 H 0.70233 0.24726 0.87607 0.0
H613 H 0.5887 0.07966 0.89726 0.0
H614 H 0.51731 0.10379 0.90307 0.0
H615 H 0.48569 0.17059 0.89809 0.0
H616 H 0.59949 0.33562 0.87418 0.0
H617 H 0.67345 0.31457 0.87385 0.0
C618 C 0.66194 0.2157 0.88192 0.0
C619 C 0.65024 0.16139 0.8857 0.0
C620 C 0.62161 0.22963 0.88488 0.0
C621 C 0.59829 0.12157 0.89394 0.0
C622 C 0.55766 0.13539 0.89728 0.0
C623 C 0.52706 0.20219 0.89338 0.0
C624 C 0.53761 0.25446 0.88612 0.0
C625 C 0.56865 0.18904 0.89231 0.0
C626 C 0.59086 0.2951 0.87974 0.0
C627 C 0.63287 0.283 0.87944 0.0
H628 H 0.22893 0.414 0.33592 0.0
H629 H 0.22998 0.39479 0.4099 0.0
H630 H 0.33088 0.44872 0.40999 0.0
H631 H 0.4178 0.5084 0.38904 0.0
H632 H 0.41378 0.52738 0.31514 0.0
H633 H 0.31463 0.46452 0.31485 0.0
C634 C 0.25115 0.42183 0.35213 0.0
C635 C 0.22228 0.40197 0.37297 0.0
C636 C 0.30848 0.45182 0.35194 0.0
C637 C 0.25155 0.41065 0.3937 0.0
C638 C 0.30907 0.44114 0.39372 0.0
C639 C 0.3953 0.49714 0.37283 0.0
C640 C 0.42267 0.52211 0.35211 0.0
C641 C 0.33793 0.46262 0.37294 0.0
C642 C 0.39328 0.50828 0.33123 0.0
C643 C 0.33666 0.47294 0.33111 0.0
H644 H 0.96604 0.54153 0.90309 0.0
H645 H -0.01834 0.54723 0.829 0.0
H646 H 0.96539 0.4532 0.82893 0.0
H647 H 0.9311 0.36552 0.84911 0.0
H648 H 0.90921 0.35626 0.92301 0.0
H649 H 0.94409 0.45577 0.9242 0.0
C650 C 0.968 0.52265 0.88713 0.0
C651 C 0.97552 0.55077 0.86609 0.0
C652 C 0.95613 0.46773 0.88718 0.0
C653 C 0.97664 0.52609 0.84534 0.0
C654 C 0.96672 0.47228 0.8453 0.0
C655 C 0.93459 0.38542 0.86553 0.0
C656 C 0.91647 0.3537 0.88587 0.0
C657 C 0.95382 0.442 0.86598 0.0
C658 C 0.92246 0.37996 0.9071 0.0
C659 C 0.94223 0.43673 0.90776 0.0
H660 H 0.06141 0.22537 0.26804 0.0
H661 H 0.10913 0.39732 0.2716 0.0
H662 H 0.15812 0.41498 0.23498 0.0
H663 H 0.18712 0.38135 0.20208 0.0
H664 H 0.13862 0.20923 0.19872 0.0
H665 H 0.09125 0.19216 0.23566 0.0
C666 C 0.08191 0.26665 0.26071 0.0
C667 C 0.08123 0.30988 0.27244 0.0
C668 C 0.11079 0.27667 0.24 0.0
C669 C 0.10873 0.36324 0.26283 0.0
C670 C 0.13708 0.37344 0.242 0.0
C671 C 0.16709 0.34033 0.20965 0.0
C672 C 0.16665 0.29666 0.19781 0.0
C673 C 0.13877 0.33054 0.23056 0.0
C674 C 0.13968 0.24352 0.2076 0.0
C675 C 0.11225 0.23366 0.2286 0.0
H676 H 0.83106 0.1314 0.70483 0.0
H677 H 0.84884 0.29313 0.70572 0.0
H678 H 0.83272 0.28495 0.74746 0.0
H679 H 0.81664 0.23268 0.78387 0.0
H680 H 0.79818 0.07054 0.78209 0.0
H681 H 0.81057 0.07782 0.74039 0.0
C682 C 0.83178 0.16509 0.71414 0.0
C683 C 0.84187 0.21309 0.70226 0.0
C684 C 0.82176 0.15979 0.73793 0.0
C685 C 0.84154 0.25587 0.71452 0.0
C686 C 0.83215 0.25114 0.73836 0.0
C687 C 0.81447 0.19862 0.7743 0.0
C688 C 0.80676 0.15127 0.78611 0.0
C689 C 0.82238 0.20331 0.75026 0.0
C690 C 0.80435 0.1076 0.77346 0.0
C691 C 0.81165 0.11176 0.74962 0.0
H692 H 0.70036 0.87101 0.20648 0.0
H693 H 0.52932 0.82124 0.19846 0.0
H694 H 0.50931 0.77652 0.23652 0.0
H695 H 0.54035 0.74893 0.2714 0.0
H696 H 0.71119 0.79565 0.27777 0.0
H697 H 0.73097 0.84318 0.2407 0.0
C698 C 0.65883 0.85135 0.21321 0.0
C699 C 0.6165 0.85006 0.19982 0.0
C700 C 0.64737 0.82407 0.23457 0.0
C701 C 0.5627 0.82322 0.20857 0.0
C702 C 0.55119 0.79726 0.23022 0.0
C703 C 0.58178 0.76899 0.26457 0.0
C704 C 0.62414 0.76851 0.27738 0.0
C705 C 0.5931 0.79664 0.24319 0.0
C706 C 0.67769 0.79513 0.26831 0.0
C707 C 0.6892 0.82271 0.24715 0.0
H708 H 0.77367 0.60105 0.70674 0.0
H709 H 0.84228 0.77666 0.69847 0.0
H710 H 0.88693 0.79237 0.73606 0.0
H711 H 0.90588 0.7567 0.77128 0.0
H712 H 0.8372 0.58125 0.78018 0.0
H713 H 0.79405 0.56523 0.74208 0.0
C714 C 0.79798 0.64271 0.71326 0.0
C715 C 0.80431 0.68756 0.69986 0.0
C716 C 0.82416 0.6516 0.73483 0.0
C717 C 0.8366 0.74135 0.70843 0.0
C718 C 0.86234 0.75044 0.7299 0.0
C719 C 0.88203 0.71491 0.76484 0.0
C720 C 0.87493 0.67028 0.7786 0.0
C721 C 0.85657 0.70593 0.74318 0.0
C722 C 0.84351 0.61643 0.76995 0.0
C723 C 0.81853 0.60719 0.74822 0.0
H724 H 0.0992 0.82207 0.21398 0.0
H725 H 0.16262 0.711 0.21193 0.0
H726 H 0.1781 0.72062 0.25387 0.0
H727 H 0.17001 0.75852 0.29132 0.0
H728 H 0.10598 0.86946 0.29173 0.0
H729 H 0.09462 0.86193 0.2501 0.0
C730 C 0.11631 0.79967 0.2226 0.0
C731 C 0.12912 0.76533 0.20985 0.0
C732 C 0.12507 0.80547 0.24645 0.0
C733 C 0.15216 0.73753 0.22136 0.0
C734 C 0.16096 0.74301 0.24532 0.0
C735 C 0.15401 0.78136 0.28225 0.0
C736 C 0.13853 0.81421 0.29473 0.0
C737 C 0.14713 0.77662 0.25809 0.0
C738 C 0.11785 0.84353 0.28268 0.0
C739 C 0.11128 0.83929 0.25882 0.0
H740 H 0.29432 0.14998 0.78784 0.0
H741 H 0.46326 0.27389 0.77467 0.0
H742 H 0.45941 0.23085 0.73756 0.0
H743 H 0.40606 0.16201 0.70809 0.0
H744 H 0.23651 0.03934 0.72132 0.0
H745 H 0.24326 0.07733 0.75973 0.0
C746 C 0.33031 0.16786 0.77682 0.0
C747 C 0.3787 0.21573 0.78372 0.0
C748 C 0.32789 0.14278 0.75575 0.0
C749 C 0.42537 0.23745 0.76956 0.0
C750 C 0.42322 0.21275 0.74843 0.0
C751 C 0.37077 0.14286 0.71949 0.0
C752 C 0.32064 0.0982 0.71172 0.0
C753 C 0.37446 0.16581 0.74127 0.0
C754 C 0.27548 0.07388 0.72679 0.0
C755 C 0.27917 0.09583 0.74869 0.0
H756 H 0.29784 0.34688 0.94255 0.0
H757 H 0.37356 0.2545 0.96597 0.0
H758 H 0.34759 0.25882 0.00564 0.0
H759 H 0.30348 0.28788 0.03332 0.0
H760 H 0.22412 0.3773 0.01077 0.0
H761 H 0.25107 0.3746 0.97076 0.0
C762 C 0.30892 0.32805 0.9564 0.0
C763 C 0.33783 0.30068 0.95144 0.0
C764 C 0.293 0.32985 0.97912 0.0
C765 C 0.35125 0.2757 0.9694 0.0
C766 C 0.33646 0.27817 0.99205 0.0
C767 C 0.29218 0.30711 0.01972 0.0
C768 C 0.26234 0.33326 0.02497 0.0
C769 C 0.30731 0.30499 -0.00296 0.0
C770 C 0.24715 0.35697 0.00709 0.0
C771 C 0.2627 0.35558 0.9843 0.0
H772 H 0.02791 0.26914 0.45854 0.0
H773 H 0.86334 0.19356 0.43094 0.0
H774 H 0.82594 0.18025 0.46989 0.0
H775 H 0.84032 0.19416 0.51181 0.0
H776 H 0.00568 0.27388 0.53896 0.0
H777 H 0.04214 0.28142 0.50032 0.0
C778 C -0.01613 0.24921 0.4611 0.0
C779 C 0.94853 0.23252 0.44196 0.0
C780 C 0.96267 0.24282 0.48349 0.0
C781 C 0.89149 0.20717 0.44547 0.0
C782 C 0.87001 0.19952 0.46772 0.0
C783 C 0.88425 0.21294 0.50924 0.0
C784 C 0.92008 0.23373 0.52822 0.0
C785 C 0.90527 0.21792 0.48686 0.0
C786 C 0.97704 0.25807 0.52462 0.0
C787 C -0.00192 0.26226 0.50253 0.0
H788 H 0.77168 0.04286 0.04164 0.0
H789 H 0.69253 0.87935 0.01284 0.0
H790 H 0.72243 0.91856 0.97405 0.0
H791 H 0.76366 -0.00056 0.9483 0.0
H792 H 0.84667 0.16299 0.97703 0.0
H793 H 0.82353 0.12373 0.0162 0.0
C794 C 0.76141 0.01593 0.02683 0.0
C795 C 0.72917 0.95846 0.02984 0.0
C796 C 0.7794 0.03875 0.00477 0.0
C797 C 0.71706 0.9237 0.01078 0.0
C798 C 0.73399 0.94611 0.98867 0.0
C799 C 0.77726 0.02638 0.96321 0.0
C800 C 0.80607 0.08388 0.95999 0.0
C801 C 0.76405 0.00353 0.98545 0.0
C802 C 0.82443 0.11861 0.97925 0.0
C803 C 0.81086 0.09617 0.00155 0.0
H804 H 0.69122 0.61311 0.51464 0.0
H805 H 0.64596 0.72399 0.54511 0.0
H806 H 0.61617 0.73923 0.50757 0.0
H807 H 0.60262 0.72112 0.46589 0.0
H808 H 0.64359 0.60655 0.43574 0.0
H809 H 0.67472 0.59257 0.47311 0.0
C810 C 0.67505 0.64073 0.51297 0.0
C811 C 0.67093 0.66738 0.53258 0.0
C812 C 0.65676 0.64847 0.49136 0.0
C813 C 0.6493 0.70267 0.53026 0.0
C814 C 0.63228 0.71152 0.50879 0.0
C815 C 0.61813 0.69295 0.46753 0.0
C816 C 0.62056 0.66497 0.448 0.0
C817 C 0.63561 0.68452 0.4892 0.0
C818 C 0.6407 0.62841 0.45048 0.0
C819 C 0.65889 0.62051 0.47187 0.0
H820 H 0.9192 0.70802 0.96546 0.0
H821 H 0.08593 0.79094 0.94039 0.0
H822 H 0.12063 0.8061 0.98004 0.0
H823 H 0.10344 0.79167 0.02181 0.0
H824 H 0.9365 0.70222 0.0466 0.0
H825 H 0.90202 0.69388 0.00717 0.0
C826 C 0.9631 0.72988 0.96873 0.0
C827 C -4e-05 0.74838 0.95011 0.0
C828 C -0.01728 0.73702 0.99151 0.0
C829 C 0.05676 0.77605 0.95451 0.0
C830 C 0.07664 0.78478 0.97714 0.0
C831 C 0.05956 0.77083 0.01855 0.0
C832 C 0.02258 0.74762 0.03702 0.0
C833 C 0.03999 0.76483 -0.00422 0.0
C834 C 0.96578 0.72013 0.0326 0.0
C835 C 0.94602 0.71541 0.01008 0.0
H836 H 0.22384 0.98309 0.45661 0.0
H837 H 0.13371 0.81885 0.48565 0.0
H838 H 0.15209 0.85737 0.52457 0.0
H839 H 0.1985 0.93679 0.55007 0.0
H840 H 0.28779 0.10138 0.52159 0.0
H841 H 0.26413 0.06351 0.48236 0.0
C842 C 0.2082 0.9557 0.47147 0.0
C843 C 0.17824 0.89812 0.46833 0.0
C844 C 0.21863 0.97814 0.49371 0.0
C845 C 0.15714 0.86321 0.48766 0.0
C846 C 0.16768 0.8852 0.50987 0.0
C847 C 0.21262 0.96445 0.53525 0.0
C848 C 0.24559 0.02167 0.53854 0.0
C849 C 0.19909 0.94244 0.51304 0.0
C850 C 0.26251 0.0572 0.51936 0.0
C851 C 0.24927 0.03552 0.49702 0.0
loop_
_geom_bond_atom_site_label_1
_geom_bond_atom_site_label_2
_geom_bond_distance
_geom_bond_site_symmetry_2
_ccdc_geom_bond_type
O0 Zn1 1.953 . S
O0 C16 1.225 . S
Zn1 O0 1.953 . S
Zn1 O2 1.949 . S
Zn1 O8 1.919 . S
Zn1 O13 1.924 . S
O2 Zn1 1.949 . S
O2 Zn3 1.923 . S
O2 Zn4 1.950 . S
O2 Zn5 1.945 . S
Zn3 O2 1.923 . S
Zn3 O6 1.933 . S
Zn3 O9 1.941 . S
Zn3 O10 1.965 . S
Zn4 O2 1.950 . S
Zn4 O11 1.938 . S
Zn4 O12 1.906 . S
Zn4 O22 1.953 . S
Zn5 O2 1.945 . S
Zn5 O7 1.932 . S
Zn5 O14 1.977 . S
Zn5 O15 1.910 . S
O6 Zn3 1.933 . S
O6 C17 1.226 . S
O7 Zn5 1.932 . S
O7 C17 1.307 . S
O8 Zn1 1.919 . S
O8 C19 1.253 . S
O9 Zn3 1.941 . S
O9 C19 1.283 . S
O10 Zn3 1.965 . S
O10 C18 1.303 . S
O11 Zn4 1.938 . S
O11 C18 1.247 . S
O12 Zn4 1.906 . S
O12 C20 1.304 . S
O13 Zn1 1.924 . S
O13 C21 1.311 . S
O14 Zn5 1.977 . S
O14 C20 1.272 . S
O15 Zn5 1.910 . S
O15 C21 1.231 . S
C16 O0 1.225 . S
C16 O22 1.298 . S
C17 O6 1.226 . S
C17 O7 1.307 . S
C18 O10 1.303 . S
C18 O11 1.247 . S
C19 O8 1.253 . S
C19 O9 1.283 . S
C20 O12 1.304 . S
C20 O14 1.272 . S
C21 O13 1.311 . S
C21 O15 1.231 . S
O22 Zn4 1.953 . S
O22 C16 1.298 . S
O23 Zn24 1.953 . S
O23 C39 1.225 . S
Zn24 O23 1.953 . S
Zn24 O25 1.949 . S
Zn24 O31 1.919 . S
Zn24 O36 1.924 . S
O25 Zn24 1.949 . S
O25 Zn26 1.923 . S
O25 Zn27 1.950 . S
O25 Zn28 1.945 . S
Zn26 O25 1.923 . S
Zn26 O29 1.933 1_655 S
Zn26 O32 1.941 . S
Zn26 O33 1.965 . S
Zn27 O25 1.950 . S
Zn27 O34 1.938 . S
Zn27 O35 1.906 . S
Zn27 O45 1.953 . S
Zn28 O25 1.945 . S
Zn28 O30 1.932 . S
Zn28 O37 1.977 . S
Zn28 O38 1.910 . S
O29 Zn26 1.933 1_455 S
O29 C40 1.226 . S
O30 Zn28 1.932 . S
O30 C40 1.307 1_655 S
O31 Zn24 1.919 . S
O31 C42 1.253 . S
O32 Zn26 1.941 . S
O32 C42 1.283 . S
O33 Zn26 1.965 . S
O33 C41 1.303 . S
O34 Zn27 1.938 . S
O34 C41 1.247 . S
O35 Zn27 1.906 . S
O35 C43 1.304 . S
O36 Zn24 1.924 . S
O36 C44 1.311 . S
O37 Zn28 1.977 . S
O37 C43 1.272 . S
O38 Zn28 1.910 . S
O38 C44 1.231 . S
C39 O23 1.225 . S
C39 O45 1.298 . S
C40 O29 1.226 . S
C40 O30 1.307 1_455 S
C41 O33 1.303 . S
C41 O34 1.247 . S
C42 O31 1.253 . S
C42 O32 1.283 . S
C43 O35 1.304 . S
C43 O37 1.272 . S
C44 O36 1.311 . S
C44 O38 1.231 . S
O45 Zn27 1.953 . S
O45 C39 1.298 . S
O46 Zn47 1.953 . S
O46 C62 1.225 . S
Zn47 O46 1.953 . S
Zn47 O48 1.949 . S
Zn47 O54 1.919 . S
Zn47 O59 1.924 . S
O48 Zn47 1.949 . S
O48 Zn49 1.923 . S
O48 Zn50 1.950 . S
O48 Zn51 1.945 . S
Zn49 O48 1.923 . S
Zn49 O52 1.933 1_565 S
Zn49 O55 1.941 . S
Zn49 O56 1.965 . S
Zn50 O48 1.950 . S
Zn50 O57 1.938 . S
Zn50 O58 1.906 . S
Zn50 O68 1.953 . S
Zn51 O48 1.945 . S
Zn51 O53 1.932 . S
Zn51 O60 1.977 . S
Zn51 O61 1.910 . S
O52 Zn49 1.933 1_545 S
O52 C63 1.226 . S
O53 Zn51 1.932 . S
O53 C63 1.307 1_565 S
O54 Zn47 1.919 . S
O54 C65 1.253 . S
O55 Zn49 1.941 . S
O55 C65 1.283 . S
O56 Zn49 1.965 . S
O56 C64 1.303 . S
O57 Zn50 1.938 . S
O57 C64 1.247 . S
O58 Zn50 1.906 . S
O58 C66 1.304 . S
O59 Zn47 1.924 . S
O59 C67 1.311 . S
O60 Zn51 1.977 . S
O60 C66 1.272 . S
O61 Zn51 1.910 . S
O61 C67 1.231 . S
C62 O46 1.225 . S
C62 O68 1.298 . S
C63 O52 1.226 . S
C63 O53 1.307 1_545 S
C64 O56 1.303 . S
C64 O57 1.247 . S
C65 O54 1.253 . S
C65 O55 1.283 . S
C66 O58 1.304 . S
C66 O60 1.272 . S
C67 O59 1.311 . S
C67 O61 1.231 . S
O68 Zn50 1.953 . S
O68 C62 1.298 . S
O69 Zn70 1.953 . S
O69 C85 1.225 . S
Zn70 O69 1.953 . S
Zn70 O71 1.949 . S
Zn70 O77 1.919 . S
Zn70 O82 1.924 . S
O71 Zn70 1.949 . S
O71 Zn72 1.923 . S
O71 Zn73 1.950 . S
O71 Zn74 1.945 . S
Zn72 O71 1.923 . S
Zn72 O75 1.933 . S
Zn72 O78 1.941 . S
Zn72 O79 1.965 . S
Zn73 O71 1.950 . S
Zn73 O80 1.938 . S
Zn73 O81 1.906 . S
Zn73 O91 1.953 . S
Zn74 O71 1.945 . S
Zn74 O76 1.932 . S
Zn74 O83 1.977 . S
Zn74 O84 1.910 . S
O75 Zn72 1.933 . S
O75 C86 1.226 . S
O76 Zn74 1.932 . S
O76 C86 1.307 . S
O77 Zn70 1.919 . S
O77 C88 1.253 . S
O78 Zn72 1.941 . S
O78 C88 1.283 . S
O79 Zn72 1.965 . S
O79 C87 1.303 . S
O80 Zn73 1.938 . S
O80 C87 1.247 . S
O81 Zn73 1.906 . S
O81 C89 1.304 . S
O82 Zn70 1.924 . S
O82 C90 1.311 . S
O83 Zn74 1.977 . S
O83 C89 1.272 . S
O84 Zn74 1.910 . S
O84 C90 1.231 . S
C85 O69 1.225 . S
C85 O91 1.298 . S
C86 O75 1.226 . S
C86 O76 1.307 . S
C87 O79 1.303 . S
C87 O80 1.247 . S
C88 O77 1.253 . S
C88 O78 1.283 . S
C89 O81 1.304 . S
C89 O83 1.272 . S
C90 O82 1.311 . S
C90 O84 1.231 . S
O91 Zn73 1.953 . S
O91 C85 1.298 . S
O92 Zn93 1.953 . S
O92 C108 1.225 . S
Zn93 O92 1.953 . S
Zn93 O94 1.949 . S
Zn93 O100 1.919 . S
Zn93 O105 1.924 . S
O94 Zn93 1.949 . S
O94 Zn95 1.923 . S
O94 Zn96 1.950 . S
O94 Zn97 1.945 . S
Zn95 O94 1.923 . S
Zn95 O98 1.933 1_455 S
Zn95 O101 1.941 . S
Zn95 O102 1.965 . S
Zn96 O94 1.950 . S
Zn96 O103 1.938 . S
Zn96 O104 1.906 . S
Zn96 O114 1.953 . S
Zn97 O94 1.945 . S
Zn97 O99 1.932 . S
Zn97 O106 1.977 . S
Zn97 O107 1.910 . S
O98 Zn95 1.933 1_655 S
O98 C109 1.226 . S
O99 Zn97 1.932 . S
O99 C109 1.307 1_455 S
O100 Zn93 1.919 . S
O100 C111 1.253 . S
O101 Zn95 1.941 . S
O101 C111 1.283 . S
O102 Zn95 1.965 . S
O102 C110 1.303 . S
O103 Zn96 1.938 . S
O103 C110 1.247 . S
O104 Zn96 1.906 . S
O104 C112 1.304 . S
O105 Zn93 1.924 . S
O105 C113 1.311 . S
O106 Zn97 1.977 . S
O106 C112 1.272 . S
O107 Zn97 1.910 . S
O107 C113 1.231 . S
C108 O92 1.225 . S
C108 O114 1.298 . S
C109 O98 1.226 . S
C109 O99 1.307 1_655 S
C110 O102 1.303 . S
C110 O103 1.247 . S
C111 O100 1.253 . S
C111 O101 1.283 . S
C112 O104 1.304 . S
C112 O106 1.272 . S
C113 O105 1.311 . S
C113 O107 1.231 . S
O114 Zn96 1.953 . S
O114 C108 1.298 . S
O115 Zn116 1.953 . S
O115 C131 1.225 . S
Zn116 O115 1.953 . S
Zn116 O117 1.949 . S
Zn116 O123 1.919 . S
Zn116 O128 1.924 . S
O117 Zn116 1.949 . S
O117 Zn118 1.923 . S
O117 Zn119 1.950 . S
O117 Zn120 1.945 . S
Zn118 O117 1.923 . S
Zn118 O121 1.933 1_545 S
Zn118 O124 1.941 . S
Zn118 O125 1.965 . S
Zn119 O117 1.950 . S
Zn119 O126 1.938 . S
Zn119 O127 1.906 . S
Zn119 O137 1.953 . S
Zn120 O117 1.945 . S
Zn120 O122 1.932 . S
Zn120 O129 1.977 . S
Zn120 O130 1.910 . S
O121 Zn118 1.933 1_565 S
O121 C132 1.226 . S
O122 Zn120 1.932 . S
O122 C132 1.307 1_545 S
O123 Zn116 1.919 . S
O123 C134 1.253 . S
O124 Zn118 1.941 . S
O124 C134 1.283 . S
O125 Zn118 1.965 . S
O125 C133 1.303 . S
O126 Zn119 1.938 . S
O126 C133 1.247 . S
O127 Zn119 1.906 . S
O127 C135 1.304 . S
O128 Zn116 1.924 . S
O128 C136 1.311 . S
O129 Zn120 1.977 . S
O129 C135 1.272 . S
O130 Zn120 1.910 . S
O130 C136 1.231 . S
C131 O115 1.225 . S
C131 O137 1.298 . S
C132 O121 1.226 . S
C132 O122 1.307 1_565 S
C133 O125 1.303 . S
C133 O126 1.247 . S
C134 O123 1.253 . S
C134 O124 1.283 . S
C135 O127 1.304 . S
C135 O129 1.272 . S
C136 O128 1.311 . S
C136 O130 1.231 . S
O137 Zn119 1.953 . S
O137 C131 1.298 . S
O138 Zn139 1.953 . S
O138 C154 1.225 . S
Zn139 O138 1.953 . S
Zn139 O140 1.949 . S
Zn139 O146 1.919 . S
Zn139 O151 1.924 . S
O140 Zn139 1.949 . S
O140 Zn141 1.923 . S
O140 Zn142 1.950 . S
O140 Zn143 1.945 . S
Zn141 O140 1.923 . S
Zn141 O144 1.933 . S
Zn141 O147 1.941 . S
Zn141 O148 1.965 . S
Zn142 O140 1.950 . S
Zn142 O149 1.938 . S
Zn142 O150 1.906 . S
Zn142 O160 1.953 . S
Zn143 O140 1.945 . S
Zn143 O145 1.932 . S
Zn143 O152 1.977 . S
Zn143 O153 1.910 . S
O144 Zn141 1.933 . S
O144 C155 1.226 . S
O145 Zn143 1.932 . S
O145 C155 1.307 . S
O146 Zn139 1.919 . S
O146 C157 1.253 . S
O147 Zn141 1.941 . S
O147 C157 1.283 . S
O148 Zn141 1.965 . S
O148 C156 1.303 . S
O149 Zn142 1.938 . S
O149 C156 1.247 . S
O150 Zn142 1.906 . S
O150 C158 1.304 . S
O151 Zn139 1.924 . S
O151 C159 1.311 . S
O152 Zn143 1.977 . S
O152 C158 1.272 . S
O153 Zn143 1.910 . S
O153 C159 1.231 . S
C154 O138 1.225 . S
C154 O160 1.298 . S
C155 O144 1.226 . S
C155 O145 1.307 . S
C156 O148 1.303 . S
C156 O149 1.247 . S
C157 O146 1.253 . S
C157 O147 1.283 . S
C158 O150 1.304 . S
C158 O152 1.272 . S
C159 O151 1.311 . S
C159 O153 1.231 . S
O160 Zn142 1.953 . S
O160 C154 1.298 . S
O161 Zn162 1.953 . S
O161 C177 1.225 . S
Zn162 O161 1.953 . S
Zn162 O163 1.949 . S
Zn162 O169 1.919 . S
Zn162 O174 1.924 . S
O163 Zn162 1.949 . S
O163 Zn164 1.923 . S
O163 Zn165 1.950 . S
O163 Zn166 1.945 . S
Zn164 O163 1.923 . S
Zn164 O167 1.933 1_655 S
Zn164 O170 1.941 . S
Zn164 O171 1.965 . S
Zn165 O163 1.950 . S
Zn165 O172 1.938 . S
Zn165 O173 1.906 . S
Zn165 O183 1.953 . S
Zn166 O163 1.945 . S
Zn166 O168 1.932 . S
Zn166 O175 1.977 . S
Zn166 O176 1.910 . S
O167 Zn164 1.933 1_455 S
O167 C178 1.226 . S
O168 Zn166 1.932 . S
O168 C178 1.307 1_655 S
O169 Zn162 1.919 . S
O169 C180 1.253 . S
O170 Zn164 1.941 . S
O170 C180 1.283 . S
O171 Zn164 1.965 . S
O171 C179 1.303 . S
O172 Zn165 1.938 . S
O172 C179 1.247 . S
O173 Zn165 1.906 . S
O173 C181 1.304 . S
O174 Zn162 1.924 . S
O174 C182 1.311 . S
O175 Zn166 1.977 . S
O175 C181 1.272 . S
O176 Zn166 1.910 . S
O176 C182 1.231 . S
C177 O161 1.225 . S
C177 O183 1.298 . S
C178 O167 1.226 . S
C178 O168 1.307 1_455 S
C179 O171 1.303 . S
C179 O172 1.247 . S
C180 O169 1.253 . S
C180 O170 1.283 . S
C181 O173 1.304 . S
C181 O175 1.272 . S
C182 O174 1.311 . S
C182 O176 1.231 . S
O183 Zn165 1.953 . S
O183 C177 1.298 . S
O184 Zn185 1.953 . S
O184 C200 1.225 . S
Zn185 O184 1.953 . S
Zn185 O186 1.949 . S
Zn185 O192 1.919 . S
Zn185 O197 1.924 . S
O186 Zn185 1.949 . S
O186 Zn187 1.923 . S
O186 Zn188 1.950 . S
O186 Zn189 1.945 . S
Zn187 O186 1.923 . S
Zn187 O190 1.933 1_565 S
Zn187 O193 1.941 . S
Zn187 O194 1.965 . S
Zn188 O186 1.950 . S
Zn188 O195 1.938 . S
Zn188 O196 1.906 . S
Zn188 O206 1.953 . S
Zn189 O186 1.945 . S
Zn189 O191 1.932 . S
Zn189 O198 1.977 . S
Zn189 O199 1.910 . S
O190 Zn187 1.933 1_545 S
O190 C201 1.226 . S
O191 Zn189 1.932 . S
O191 C201 1.307 1_565 S
O192 Zn185 1.919 . S
O192 C203 1.253 . S
O193 Zn187 1.941 . S
O193 C203 1.283 . S
O194 Zn187 1.965 . S
O194 C202 1.303 . S
O195 Zn188 1.938 . S
O195 C202 1.247 . S
O196 Zn188 1.906 . S
O196 C204 1.304 . S
O197 Zn185 1.924 . S
O197 C205 1.311 . S
O198 Zn189 1.977 . S
O198 C204 1.272 . S
O199 Zn189 1.910 . S
O199 C205 1.231 . S
C200 O184 1.225 . S
C200 O206 1.298 . S
C201 O190 1.226 . S
C201 O191 1.307 1_545 S
C202 O194 1.303 . S
C202 O195 1.247 . S
C203 O192 1.253 . S
C203 O193 1.283 . S
C204 O196 1.304 . S
C204 O198 1.272 . S
C205 O197 1.311 . S
C205 O199 1.231 . S
O206 Zn188 1.953 . S
O206 C200 1.298 . S
O207 Zn208 1.953 . S
O207 C223 1.225 . S
Zn208 O207 1.953 . S
Zn208 O209 1.949 . S
Zn208 O215 1.919 . S
Zn208 O220 1.924 . S
O209 Zn208 1.949 . S
O209 Zn210 1.923 . S
O209 Zn211 1.950 . S
O209 Zn212 1.945 . S
Zn210 O209 1.923 . S
Zn210 O213 1.933 . S
Zn210 O216 1.941 . S
Zn210 O217 1.965 . S
Zn211 O209 1.950 . S
Zn211 O218 1.938 . S
Zn211 O219 1.906 . S
Zn211 O229 1.953 . S
Zn212 O209 1.945 . S
Zn212 O214 1.932 . S
Zn212 O221 1.977 . S
Zn212 O222 1.910 . S
O213 Zn210 1.933 . S
O213 C224 1.226 . S
O214 Zn212 1.932 . S
O214 C224 1.307 . S
O215 Zn208 1.919 . S
O215 C226 1.253 . S
O216 Zn210 1.941 . S
O216 C226 1.283 . S
O217 Zn210 1.965 . S
O217 C225 1.303 . S
O218 Zn211 1.938 . S
O218 C225 1.247 . S
O219 Zn211 1.906 . S
O219 C227 1.304 . S
O220 Zn208 1.924 . S
O220 C228 1.311 . S
O221 Zn212 1.977 . S
O221 C227 1.272 . S
O222 Zn212 1.910 . S
O222 C228 1.231 . S
C223 O207 1.225 . S
C223 O229 1.298 . S
C224 O213 1.226 . S
C224 O214 1.307 . S
C225 O217 1.303 . S
C225 O218 1.247 . S
C226 O215 1.253 . S
C226 O216 1.283 . S
C227 O219 1.304 . S
C227 O221 1.272 . S
C228 O220 1.311 . S
C228 O222 1.231 . S
O229 Zn211 1.953 . S
O229 C223 1.298 . S
O230 Zn231 1.953 . S
O230 C246 1.225 . S
Zn231 O230 1.953 . S
Zn231 O232 1.949 . S
Zn231 O238 1.919 . S
Zn231 O243 1.924 . S
O232 Zn231 1.949 . S
O232 Zn233 1.923 . S
O232 Zn234 1.950 . S
O232 Zn235 1.945 . S
Zn233 O232 1.923 . S
Zn233 O236 1.933 1_455 S
Zn233 O239 1.941 . S
Zn233 O240 1.965 . S
Zn234 O232 1.950 . S
Zn234 O241 1.938 . S
Zn234 O242 1.906 . S
Zn234 O252 1.953 . S
Zn235 O232 1.945 . S
Zn235 O237 1.932 . S
Zn235 O244 1.977 . S
Zn235 O245 1.910 . S
O236 Zn233 1.933 1_655 S
O236 C247 1.226 . S
O237 Zn235 1.932 . S
O237 C247 1.307 1_455 S
O238 Zn231 1.919 . S
O238 C249 1.253 . S
O239 Zn233 1.941 . S
O239 C249 1.283 . S
O240 Zn233 1.965 . S
O240 C248 1.303 . S
O241 Zn234 1.938 . S
O241 C248 1.247 . S
O242 Zn234 1.906 . S
O242 C250 1.304 . S
O243 Zn231 1.924 . S
O243 C251 1.311 . S
O244 Zn235 1.977 . S
O244 C250 1.272 . S
O245 Zn235 1.910 . S
O245 C251 1.231 . S
C246 O230 1.225 . S
C246 O252 1.298 . S
C247 O236 1.226 . S
C247 O237 1.307 1_655 S
C248 O240 1.303 . S
C248 O241 1.247 . S
C249 O238 1.253 . S
C249 O239 1.283 . S
C250 O242 1.304 . S
C250 O244 1.272 . S
C251 O243 1.311 . S
C251 O245 1.231 . S
O252 Zn234 1.953 . S
O252 C246 1.298 . S
O253 Zn254 1.953 . S
O253 C269 1.225 . S
Zn254 O253 1.953 . S
Zn254 O255 1.949 . S
Zn254 O261 1.919 . S
Zn254 O266 1.924 . S
O255 Zn254 1.949 . S
O255 Zn256 1.923 . S
O255 Zn257 1.950 . S
O255 Zn258 1.945 . S
Zn256 O255 1.923 . S
Zn256 O259 1.933 1_545 S
Zn256 O262 1.941 . S
Zn256 O263 1.965 . S
Zn257 O255 1.950 . S
Zn257 O264 1.938 . S
Zn257 O265 1.906 . S
Zn257 O275 1.953 . S
Zn258 O255 1.945 . S
Zn258 O260 1.932 . S
Zn258 O267 1.977 . S
Zn258 O268 1.910 . S
O259 Zn256 1.933 1_565 S
O259 C270 1.226 . S
O260 Zn258 1.932 . S
O260 C270 1.307 1_545 S
O261 Zn254 1.919 . S
O261 C272 1.253 . S
O262 Zn256 1.941 . S
O262 C272 1.283 . S
O263 Zn256 1.965 . S
O263 C271 1.303 . S
O264 Zn257 1.938 . S
O264 C271 1.247 . S
O265 Zn257 1.906 . S
O265 C273 1.304 . S
O266 Zn254 1.924 . S
O266 C274 1.311 . S
O267 Zn258 1.977 . S
O267 C273 1.272 . S
O268 Zn258 1.910 . S
O268 C274 1.231 . S
C269 O253 1.225 . S
C269 O275 1.298 . S
C270 O259 1.226 . S
C270 O260 1.307 1_565 S
C271 O263 1.303 . S
C271 O264 1.247 . S
C272 O261 1.253 . S
C272 O262 1.283 . S
C273 O265 1.304 . S
C273 O267 1.272 . S
C274 O266 1.311 . S
C274 O268 1.231 . S
O275 Zn257 1.953 . S
O275 C269 1.298 . S
H276 C282 0.930 . S
H277 C285 0.930 . S
H278 C286 0.930 . S
H279 C287 0.930 . S
H280 C290 0.930 . S
H281 C291 0.930 . S
C282 H276 0.930 . S
C282 C283 1.355 1_545 S
C282 C284 1.415 . S
C283 C282 1.355 1_565 S
C283 C285 1.419 . S
C284 C282 1.415 . S
C284 C289 1.425 . S
C284 C291 1.409 . S
C285 H277 0.930 . S
C285 C283 1.419 . S
C285 C286 1.362 1_565 S
C286 H278 0.930 . S
C286 C285 1.362 1_545 S
C286 C289 1.409 . S
C287 H279 0.930 . S
C287 C288 1.355 . S
C287 C289 1.415 . S
C288 C287 1.355 . S
C288 C290 1.419 . S
C289 C284 1.425 . S
C289 C286 1.409 . S
C289 C287 1.415 . S
C290 H280 0.930 . S
C290 C288 1.419 . S
C290 C291 1.362 . S
C291 H281 0.930 . S
C291 C284 1.409 . S
C291 C290 1.362 . S
H292 C298 0.930 . S
H293 C301 0.930 . S
H294 C302 0.930 . S
H295 C303 0.930 . S
H296 C306 0.930 . S
H297 C307 0.930 . S
C298 H292 0.930 . S
C298 C299 1.355 . S
C298 C300 1.415 . S
C299 C298 1.355 . S
C299 C301 1.419 . S
C300 C298 1.415 . S
C300 C305 1.425 . S
C300 C307 1.409 . S
C301 H293 0.930 . S
C301 C299 1.419 . S
C301 C302 1.362 . S
C302 H294 0.930 . S
C302 C301 1.362 . S
C302 C305 1.409 . S
C303 H295 0.930 . S
C303 C304 1.355 . S
C303 C305 1.415 . S
C304 C303 1.355 . S
C304 C306 1.419 . S
C305 C300 1.425 . S
C305 C302 1.409 . S
C305 C303 1.415 . S
C306 H296 0.930 . S
C306 C304 1.419 . S
C306 C307 1.362 . S
C307 H297 0.930 . S
C307 C300 1.409 . S
C307 C306 1.362 . S
H308 C314 0.930 . S
H309 C317 0.947 . S
H310 C318 0.930 . S
H311 C319 0.930 1_455 S
H312 C322 0.930 . S
H313 C323 0.930 . S
C314 H308 0.930 . S
C314 C315 1.355 . S
C314 C316 1.415 . S
C315 C314 1.355 . S
C315 C317 1.419 . S
C316 C314 1.415 . S
C316 C321 1.425 . S
C316 C323 1.409 . S
C317 H309 0.947 . S
C317 C315 1.419 . S
C317 C318 1.362 . S
C318 H310 0.930 . S
C318 C317 1.362 . S
C318 C321 1.409 . S
C319 H311 0.930 1_655 S
C319 C320 1.355 1_655 S
C319 C321 1.415 . S
C320 C319 1.355 1_455 S
C320 C322 1.419 1_455 S
C321 C316 1.425 . S
C321 C318 1.409 . S
C321 C319 1.415 . S
C322 H312 0.930 . S
C322 C320 1.419 1_655 S
C322 C323 1.362 . S
C323 H313 0.930 . S
C323 C316 1.409 . S
C323 C322 1.362 . S
H324 C330 0.930 . S
H325 C333 0.930 . S
H326 C334 0.930 . S
H327 C335 0.930 1_545 S
H328 C338 0.930 . S
H329 C339 0.930 . S
C330 H324 0.930 . S
C330 C331 1.355 . S
C330 C332 1.415 . S
C331 C330 1.355 . S
C331 C333 1.419 . S
C332 C330 1.415 . S
C332 C337 1.425 . S
C332 C339 1.409 . S
C333 H325 0.930 . S
C333 C331 1.419 . S
C333 C334 1.362 . S
C334 H326 0.930 . S
C334 C333 1.362 . S
C334 C337 1.409 . S
C335 H327 0.930 1_565 S
C335 C336 1.355 1_565 S
C335 C337 1.415 . S
C336 C335 1.355 1_545 S
C336 C338 1.419 1_545 S
C337 C332 1.425 . S
C337 C334 1.409 . S
C337 C335 1.415 . S
C338 H328 0.930 . S
C338 C336 1.419 1_565 S
C338 C339 1.362 . S
C339 H329 0.930 . S
C339 C332 1.409 . S
C339 C338 1.362 . S
H340 C346 0.930 . S
H341 C349 0.930 . S
H342 C350 0.930 . S
H343 C351 0.930 . S
H344 C354 0.930 . S
H345 C355 0.930 . S
C346 H340 0.930 . S
C346 C347 1.355 . S
C346 C348 1.415 . S
C347 C346 1.355 . S
C347 C349 1.419 . S
C348 C346 1.415 . S
C348 C353 1.425 . S
C348 C355 1.409 . S
C349 H341 0.930 . S
C349 C347 1.419 . S
C349 C350 1.362 . S
C350 H342 0.930 . S
C350 C349 1.362 . S
C350 C353 1.409 . S
C351 H343 0.930 . S
C351 C352 1.355 . S
C351 C353 1.415 . S
C352 C351 1.355 . S
C352 C354 1.419 . S
C353 C348 1.425 . S
C353 C350 1.409 . S
C353 C351 1.415 . S
C354 H344 0.930 . S
C354 C352 1.419 . S
C354 C355 1.362 . S
C355 H345 0.930 . S
C355 C348 1.409 . S
C355 C354 1.362 . S
H356 C362 0.930 . S
H357 C365 0.930 . S
H358 C366 0.930 . S
H359 C367 0.930 . S
H360 C370 0.930 . S
H361 C371 0.930 . S
C362 H356 0.930 . S
C362 C363 1.355 1_455 S
C362 C364 1.415 . S
C363 C362 1.355 1_655 S
C363 C365 1.419 . S
C364 C362 1.415 . S
C364 C369 1.425 . S
C364 C371 1.409 . S
C365 H357 0.930 . S
C365 C363 1.419 . S
C365 C366 1.362 1_655 S
C366 H358 0.930 . S
C366 C365 1.362 1_455 S
C366 C369 1.409 . S
C367 H359 0.930 . S
C367 C368 1.355 . S
C367 C369 1.415 . S
C368 C367 1.355 . S
C368 C370 1.419 . S
C369 C364 1.425 . S
C369 C366 1.409 . S
C369 C367 1.415 . S
C370 H360 0.930 . S
C370 C368 1.419 . S
C370 C371 1.362 . S
C371 H361 0.930 . S
C371 C364 1.409 . S
C371 C370 1.362 . S
H372 C378 0.930 . S
H373 C381 0.930 1_455 S
H374 C382 0.930 . S
H375 C383 0.930 . S
H376 C386 0.930 . S
H377 C387 0.930 . S
C378 H372 0.930 . S
C378 C379 1.355 1_655 S
C378 C380 1.415 . S
C379 C378 1.355 1_455 S
C379 C381 1.419 1_455 S
C380 C378 1.415 . S
C380 C385 1.425 . S
C380 C387 1.409 . S
C381 H373 0.930 1_655 S
C381 C379 1.419 1_655 S
C381 C382 1.362 . S
C382 H374 0.930 . S
C382 C381 1.362 . S
C382 C385 1.409 . S
C383 H375 0.930 . S
C383 C384 1.355 . S
C383 C385 1.415 . S
C384 C383 1.355 . S
C384 C386 1.419 . S
C385 C380 1.425 . S
C385 C382 1.409 . S
C385 C383 1.415 . S
C386 H376 0.930 . S
C386 C384 1.419 . S
C386 C387 1.362 . S
C387 H377 0.930 . S
C387 C380 1.409 . S
C387 C386 1.362 . S
H388 C394 0.930 . S
H389 C397 0.930 . S
H390 C398 0.930 . S
H391 C399 0.930 1_545 S
H392 C402 0.930 . S
H393 C403 0.930 . S
C394 H388 0.930 . S
C394 C395 1.355 . S
C394 C396 1.415 . S
C395 C394 1.355 . S
C395 C397 1.419 . S
C396 C394 1.415 . S
C396 C401 1.425 . S
C396 C403 1.409 . S
C397 H389 0.930 . S
C397 C395 1.419 . S
C397 C398 1.362 . S
C398 H390 0.930 . S
C398 C397 1.362 . S
C398 C401 1.409 . S
C399 H391 0.930 1_565 S
C399 C400 1.355 1_565 S
C399 C401 1.415 . S
C400 C399 1.355 1_545 S
C400 C402 1.419 1_545 S
C401 C396 1.425 . S
C401 C398 1.409 . S
C401 C399 1.415 . S
C402 H392 0.930 . S
C402 C400 1.419 1_565 S
C402 C403 1.362 . S
C403 H393 0.930 . S
C403 C396 1.409 . S
C403 C402 1.362 . S
H404 C410 0.930 . S
H405 C413 0.930 . S
H406 C414 0.930 . S
H407 C415 0.930 . S
H408 C418 0.930 . S
H409 C419 0.930 . S
C410 H404 0.930 . S
C410 C411 1.355 . S
C410 C412 1.415 . S
C411 C410 1.355 . S
C411 C413 1.419 . S
C412 C410 1.415 . S
C412 C417 1.425 . S
C412 C419 1.409 . S
C413 H405 0.930 . S
C413 C411 1.419 . S
C413 C414 1.362 . S
C414 H406 0.930 . S
C414 C413 1.362 . S
C414 C417 1.409 . S
C415 H407 0.930 . S
C415 C416 1.355 . S
C415 C417 1.415 . S
C416 C415 1.355 . S
C416 C418 1.419 . S
C417 C412 1.425 . S
C417 C414 1.409 . S
C417 C415 1.415 . S
C418 H408 0.930 . S
C418 C416 1.419 . S
C418 C419 1.362 . S
C419 H409 0.930 . S
C419 C412 1.409 . S
C419 C418 1.362 . S
H420 C426 0.930 . S
H421 C429 0.930 . S
H422 C430 0.930 . S
H423 C431 0.930 1_655 S
H424 C434 0.930 . S
H425 C435 0.930 . S
C426 H420 0.930 . S
C426 C427 1.355 . S
C426 C428 1.415 . S
C427 C426 1.355 . S
C427 C429 1.419 . S
C428 C426 1.415 . S
C428 C433 1.425 . S
C428 C435 1.409 . S
C429 H421 0.930 . S
C429 C427 1.419 . S
C429 C430 1.362 . S
C430 H422 0.930 . S
C430 C429 1.362 . S
C430 C433 1.409 . S
C431 H423 0.930 1_455 S
C431 C432 1.355 1_455 S
C431 C433 1.415 . S
C432 C431 1.355 1_655 S
C432 C434 1.419 1_655 S
C433 C428 1.425 . S
C433 C430 1.409 . S
C433 C431 1.415 . S
C434 H424 0.930 . S
C434 C432 1.419 1_455 S
C434 C435 1.362 . S
C435 H425 0.930 . S
C435 C428 1.409 . S
C435 C434 1.362 . S
H436 C442 0.930 . S
H437 C445 0.918 1_455 S
H438 C446 0.930 . S
H439 C447 0.930 1_565 S
H440 C450 0.930 . S
H441 C451 0.930 . S
C442 H436 0.930 . S
C442 C443 1.355 . S
C442 C444 1.415 . S
C443 C442 1.355 . S
C443 C445 1.419 . S
C444 C442 1.415 . S
C444 C449 1.425 . S
C444 C451 1.409 . S
C445 H437 0.918 1_655 S
C445 C443 1.419 . S
C445 C446 1.362 . S
C446 H438 0.930 . S
C446 C445 1.362 . S
C446 C449 1.409 . S
C447 H439 0.930 1_545 S
C447 C448 1.355 1_545 S
C447 C449 1.415 . S
C448 C447 1.355 1_565 S
C448 C450 1.419 1_565 S
C449 C444 1.425 . S
C449 C446 1.409 . S
C449 C447 1.415 . S
C450 H440 0.930 . S
C450 C448 1.419 1_545 S
C450 C451 1.362 . S
C451 H441 0.930 . S
C451 C444 1.409 . S
C451 C450 1.362 . S
H452 C458 0.930 . S
H453 C461 0.930 . S
H454 C462 0.930 . S
H455 C463 0.930 . S
H456 C466 0.930 1_545 S
H457 C467 0.930 . S
C458 H452 0.930 . S
C458 C459 1.355 . S
C458 C460 1.415 . S
C459 C458 1.355 . S
C459 C461 1.419 . S
C460 C458 1.415 . S
C460 C465 1.425 . S
C460 C467 1.409 . S
C461 H453 0.930 . S
C461 C459 1.419 . S
C461 C462 1.362 . S
C462 H454 0.930 . S
C462 C461 1.362 . S
C462 C465 1.409 . S
C463 H455 0.930 . S
C463 C464 1.355 . S
C463 C465 1.415 . S
C464 C463 1.355 . S
C464 C466 1.419 . S
C465 C460 1.425 . S
C465 C462 1.409 . S
C465 C463 1.415 . S
C466 H456 0.930 1_565 S
C466 C464 1.419 . S
C466 C467 1.362 . S
C467 H457 0.930 . S
C467 C460 1.409 . S
C467 C466 1.362 . S
H468 C474 0.930 . S
H469 C477 0.930 . S
H470 C478 0.930 . S
H471 C479 0.930 . S
H472 C482 0.930 . S
H473 C483 0.930 . S
C474 H468 0.930 . S
C474 C475 1.355 . S
C474 C476 1.415 . S
C475 C474 1.355 . S
C475 C477 1.419 . S
C476 C474 1.415 . S
C476 C481 1.425 . S
C476 C483 1.409 . S
C477 H469 0.930 . S
C477 C475 1.419 . S
C477 C478 1.362 . S
C478 H470 0.930 . S
C478 C477 1.362 . S
C478 C481 1.409 . S
C479 H471 0.930 . S
C479 C480 1.355 . S
C479 C481 1.415 . S
C480 C479 1.355 . S
C480 C482 1.419 . S
C481 C476 1.425 . S
C481 C478 1.409 . S
C481 C479 1.415 . S
C482 H472 0.930 . S
C482 C480 1.419 . S
C482 C483 1.362 . S
C483 H473 0.930 . S
C483 C476 1.409 . S
C483 C482 1.362 . S
H484 C490 0.930 . S
H485 C493 0.930 . S
H486 C494 0.930 . S
H487 C495 0.930 . S
H488 C498 0.930 . S
H489 C499 0.930 . S
C490 H484 0.930 . S
C490 C491 1.355 . S
C490 C492 1.415 . S
C491 C490 1.355 . S
C491 C493 1.419 . S
C492 C490 1.415 . S
C492 C497 1.425 . S
C492 C499 1.409 . S
C493 H485 0.930 . S
C493 C491 1.419 . S
C493 C494 1.362 . S
C494 H486 0.930 . S
C494 C493 1.362 . S
C494 C497 1.409 . S
C495 H487 0.930 . S
C495 C496 1.355 . S
C495 C497 1.415 . S
C496 C495 1.355 . S
C496 C498 1.419 . S
C497 C492 1.425 . S
C497 C494 1.409 . S
C497 C495 1.415 . S
C498 H488 0.930 . S
C498 C496 1.419 . S
C498 C499 1.362 . S
C499 H489 0.930 . S
C499 C492 1.409 . S
C499 C498 1.362 . S
H500 C506 0.930 . S
H501 C509 0.930 . S
H502 C510 0.930 . S
H503 C511 0.930 . S
H504 C514 0.930 . S
H505 C515 0.930 . S
C506 H500 0.930 . S
C506 C507 1.355 . S
C506 C508 1.415 . S
C507 C506 1.355 . S
C507 C509 1.419 . S
C508 C506 1.415 . S
C508 C513 1.425 . S
C508 C515 1.409 . S
C509 H501 0.930 . S
C509 C507 1.419 . S
C509 C510 1.362 . S
C510 H502 0.930 . S
C510 C509 1.362 . S
C510 C513 1.409 . S
C511 H503 0.930 . S
C511 C512 1.355 . S
C511 C513 1.415 . S
C512 C511 1.355 . S
C512 C514 1.419 . S
C513 C508 1.425 . S
C513 C510 1.409 . S
C513 C511 1.415 . S
C514 H504 0.930 . S
C514 C512 1.419 . S
C514 C515 1.362 . S
C515 H505 0.930 . S
C515 C508 1.409 . S
C515 C514 1.362 . S
H516 C522 0.930 . S
H517 C525 0.930 . S
H518 C526 0.930 . S
H519 C527 0.930 . S
H520 C530 0.930 . S
H521 C531 0.930 . S
C522 H516 0.930 . S
C522 C523 1.355 . S
C522 C524 1.415 . S
C523 C522 1.355 . S
C523 C525 1.419 . S
C524 C522 1.415 . S
C524 C529 1.425 . S
C524 C531 1.409 . S
C525 H517 0.930 . S
C525 C523 1.419 . S
C525 C526 1.362 . S
C526 H518 0.930 . S
C526 C525 1.362 . S
C526 C529 1.409 . S
C527 H519 0.930 . S
C527 C528 1.355 . S
C527 C529 1.415 . S
C528 C527 1.355 . S
C528 C530 1.419 . S
C529 C524 1.425 . S
C529 C526 1.409 . S
C529 C527 1.415 . S
C530 H520 0.930 . S
C530 C528 1.419 . S
C530 C531 1.362 . S
C531 H521 0.930 . S
C531 C524 1.409 . S
C531 C530 1.362 . S
H532 C538 0.930 . S
H533 C541 0.930 . S
H534 C542 0.930 . S
H535 C543 0.930 . S
H536 C546 0.930 . S
H537 C547 0.930 . S
C538 H532 0.930 . S
C538 C539 1.355 . S
C538 C540 1.415 . S
C539 C538 1.355 . S
C539 C541 1.419 . S
C540 C538 1.415 . S
C540 C545 1.425 . S
C540 C547 1.409 . S
C541 H533 0.930 . S
C541 C539 1.419 . S
C541 C542 1.362 . S
C542 H534 0.930 . S
C542 C541 1.362 . S
C542 C545 1.409 . S
C543 H535 0.930 . S
C543 C544 1.355 . S
C543 C545 1.415 . S
C544 C543 1.355 . S
C544 C546 1.419 . S
C545 C540 1.425 . S
C545 C542 1.409 . S
C545 C543 1.415 . S
C546 H536 0.930 . S
C546 C544 1.419 . S
C546 C547 1.362 . S
C547 H537 0.930 . S
C547 C540 1.409 . S
C547 C546 1.362 . S
H548 C554 0.930 . S
H549 C557 0.930 . S
H550 C558 0.930 . S
H551 C559 0.930 . S
H552 C562 0.930 . S
H553 C563 0.930 . S
C554 H548 0.930 . S
C554 C555 1.355 . S
C554 C556 1.415 . S
C555 C554 1.355 . S
C555 C557 1.419 . S
C556 C554 1.415 . S
C556 C561 1.425 . S
C556 C563 1.409 . S
C557 H549 0.930 . S
C557 C555 1.419 . S
C557 C558 1.362 . S
C558 H550 0.930 . S
C558 C557 1.362 . S
C558 C561 1.409 . S
C559 H551 0.930 . S
C559 C560 1.355 . S
C559 C561 1.415 . S
C560 C559 1.355 . S
C560 C562 1.419 . S
C561 C556 1.425 . S
C561 C558 1.409 . S
C561 C559 1.415 . S
C562 H552 0.930 . S
C562 C560 1.419 . S
C562 C563 1.362 . S
C563 H553 0.930 . S
C563 C556 1.409 . S
C563 C562 1.362 . S
H564 C570 0.930 . S
H565 C573 0.930 . S
H566 C574 0.930 . S
H567 C575 0.930 . S
H568 C578 0.930 . S
H569 C579 0.930 . S
C570 H564 0.930 . S
C570 C571 1.355 . S
C570 C572 1.415 . S
C571 C570 1.355 . S
C571 C573 1.419 . S
C572 C570 1.415 . S
C572 C577 1.425 . S
C572 C579 1.409 . S
C573 H565 0.930 . S
C573 C571 1.419 . S
C573 C574 1.362 . S
C574 H566 0.930 . S
C574 C573 1.362 . S
C574 C577 1.409 . S
C575 H567 0.930 . S
C575 C576 1.355 . S
C575 C577 1.415 . S
C576 C575 1.355 . S
C576 C578 1.419 . S
C577 C572 1.425 . S
C577 C574 1.409 . S
C577 C575 1.415 . S
C578 H568 0.930 . S
C578 C576 1.419 . S
C578 C579 1.362 . S
C579 H569 0.930 . S
C579 C572 1.409 . S
C579 C578 1.362 . S
H580 C586 0.930 . S
H581 C589 0.930 . S
H582 C590 0.930 . S
H583 C591 0.930 . S
H584 C594 0.930 . S
H585 C595 0.930 . S
C586 H580 0.930 . S
C586 C587 1.355 . S
C586 C588 1.415 . S
C587 C586 1.355 . S
C587 C589 1.419 . S
C588 C586 1.415 . S
C588 C593 1.425 . S
C588 C595 1.409 . S
C589 H581 0.930 . S
C589 C587 1.419 . S
C589 C590 1.362 . S
C590 H582 0.930 . S
C590 C589 1.362 . S
C590 C593 1.409 . S
C591 H583 0.930 . S
C591 C592 1.355 . S
C591 C593 1.415 . S
C592 C591 1.355 . S
C592 C594 1.419 . S
C593 C588 1.425 . S
C593 C590 1.409 . S
C593 C591 1.415 . S
C594 H584 0.930 . S
C594 C592 1.419 . S
C594 C595 1.362 . S
C595 H585 0.930 . S
C595 C588 1.409 . S
C595 C594 1.362 . S
H596 C602 0.930 . S
H597 C605 0.930 . S
H598 C606 0.930 . S
H599 C607 0.930 . S
H600 C610 0.930 . S
H601 C611 0.930 . S
C602 H596 0.930 . S
C602 C603 1.355 . S
C602 C604 1.415 . S
C603 C602 1.355 . S
C603 C605 1.419 . S
C604 C602 1.415 . S
C604 C609 1.425 . S
C604 C611 1.409 . S
C605 H597 0.930 . S
C605 C603 1.419 . S
C605 C606 1.362 . S
C606 H598 0.930 . S
C606 C605 1.362 . S
C606 C609 1.409 . S
C607 H599 0.930 . S
C607 C608 1.355 . S
C607 C609 1.415 . S
C608 C607 1.355 . S
C608 C610 1.419 . S
C609 C604 1.425 . S
C609 C606 1.409 . S
C609 C607 1.415 . S
C610 H600 0.930 . S
C610 C608 1.419 . S
C610 C611 1.362 . S
C611 H601 0.930 . S
C611 C604 1.409 . S
C611 C610 1.362 . S
H612 C618 0.930 . S
H613 C621 0.930 . S
H614 C622 0.930 . S
H615 C623 0.930 . S
H616 C626 0.930 . S
H617 C627 0.930 . S
C618 H612 0.930 . S
C618 C619 1.355 . S
C618 C620 1.415 . S
C619 C618 1.355 . S
C619 C621 1.419 . S
C620 C618 1.415 . S
C620 C625 1.425 . S
C620 C627 1.409 . S
C621 H613 0.930 . S
C621 C619 1.419 . S
C621 C622 1.362 . S
C622 H614 0.930 . S
C622 C621 1.362 . S
C622 C625 1.409 . S
C623 H615 0.930 . S
C623 C624 1.355 . S
C623 C625 1.415 . S
C624 C623 1.355 . S
C624 C626 1.419 . S
C625 C620 1.425 . S
C625 C622 1.409 . S
C625 C623 1.415 . S
C626 H616 0.930 . S
C626 C624 1.419 . S
C626 C627 1.362 . S
C627 H617 0.930 . S
C627 C620 1.409 . S
C627 C626 1.362 . S
H628 C634 0.930 . S
H629 C637 0.930 . S
H630 C638 0.930 . S
H631 C639 0.930 . S
H632 C642 0.930 . S
H633 C643 0.930 . S
C634 H628 0.930 . S
C634 C635 1.355 . S
C634 C636 1.415 . S
C635 C634 1.355 . S
C635 C637 1.419 . S
C636 C634 1.415 . S
C636 C641 1.425 . S
C636 C643 1.409 . S
C637 H629 0.930 . S
C637 C635 1.419 . S
C637 C638 1.362 . S
C638 H630 0.930 . S
C638 C637 1.362 . S
C638 C641 1.409 . S
C639 H631 0.930 . S
C639 C640 1.355 . S
C639 C641 1.415 . S
C640 C639 1.355 . S
C640 C642 1.419 . S
C641 C636 1.425 . S
C641 C638 1.409 . S
C641 C639 1.415 . S
C642 H632 0.930 . S
C642 C640 1.419 . S
C642 C643 1.362 . S
C643 H633 0.930 . S
C643 C636 1.409 . S
C643 C642 1.362 . S
H644 C650 0.930 . S
H645 C653 0.930 . S
H646 C654 0.930 . S
H647 C655 0.930 . S
H648 C658 0.930 . S
H649 C659 0.930 . S
C650 H644 0.930 . S
C650 C651 1.355 . S
C650 C652 1.415 . S
C651 C650 1.355 . S
C651 C653 1.419 . S
C652 C650 1.415 . S
C652 C657 1.425 . S
C652 C659 1.409 . S
C653 H645 0.930 . S
C653 C651 1.419 . S
C653 C654 1.362 . S
C654 H646 0.930 . S
C654 C653 1.362 . S
C654 C657 1.409 . S
C655 H647 0.930 . S
C655 C656 1.355 . S
C655 C657 1.415 . S
C656 C655 1.355 . S
C656 C658 1.419 . S
C657 C652 1.425 . S
C657 C654 1.409 . S
C657 C655 1.415 . S
C658 H648 0.930 . S
C658 C656 1.419 . S
C658 C659 1.362 . S
C659 H649 0.930 . S
C659 C652 1.409 . S
C659 C658 1.362 . S
H660 C666 0.930 . S
H661 C669 0.930 . S
H662 C670 0.930 . S
H663 C671 0.930 . S
H664 C674 0.930 . S
H665 C675 0.930 . S
C666 H660 0.930 . S
C666 C667 1.355 . S
C666 C668 1.415 . S
C667 C666 1.355 . S
C667 C669 1.419 . S
C668 C666 1.415 . S
C668 C673 1.425 . S
C668 C675 1.409 . S
C669 H661 0.930 . S
C669 C667 1.419 . S
C669 C670 1.362 . S
C670 H662 0.930 . S
C670 C669 1.362 . S
C670 C673 1.409 . S
C671 H663 0.930 . S
C671 C672 1.355 . S
C671 C673 1.415 . S
C672 C671 1.355 . S
C672 C674 1.419 . S
C673 C668 1.425 . S
C673 C670 1.409 . S
C673 C671 1.415 . S
C674 H664 0.930 . S
C674 C672 1.419 . S
C674 C675 1.362 . S
C675 H665 0.930 . S
C675 C668 1.409 . S
C675 C674 1.362 . S
H676 C682 0.930 . S
H677 C685 0.930 . S
H678 C686 0.930 . S
H679 C687 0.930 . S
H680 C690 0.930 . S
H681 C691 0.930 . S
C682 H676 0.930 . S
C682 C683 1.355 . S
C682 C684 1.415 . S
C683 C682 1.355 . S
C683 C685 1.419 . S
C684 C682 1.415 . S
C684 C689 1.425 . S
C684 C691 1.409 . S
C685 H677 0.930 . S
C685 C683 1.419 . S
C685 C686 1.362 . S
C686 H678 0.930 . S
C686 C685 1.362 . S
C686 C689 1.409 . S
C687 H679 0.930 . S
C687 C688 1.355 . S
C687 C689 1.415 . S
C688 C687 1.355 . S
C688 C690 1.419 . S
C689 C684 1.425 . S
C689 C686 1.409 . S
C689 C687 1.415 . S
C690 H680 0.930 . S
C690 C688 1.419 . S
C690 C691 1.362 . S
C691 H681 0.930 . S
C691 C684 1.409 . S
C691 C690 1.362 . S
H692 C698 0.930 . S
H693 C701 0.930 . S
H694 C702 0.930 . S
H695 C703 0.930 . S
H696 C706 0.930 . S
H697 C707 0.930 . S
C698 H692 0.930 . S
C698 C699 1.355 . S
C698 C700 1.415 . S
C699 C698 1.355 . S
C699 C701 1.419 . S
C700 C698 1.415 . S
C700 C705 1.425 . S
C700 C707 1.409 . S
C701 H693 0.930 . S
C701 C699 1.419 . S
C701 C702 1.362 . S
C702 H694 0.930 . S
C702 C701 1.362 . S
C702 C705 1.409 . S
C703 H695 0.930 . S
C703 C704 1.355 . S
C703 C705 1.415 . S
C704 C703 1.355 . S
C704 C706 1.419 . S
C705 C700 1.425 . S
C705 C702 1.409 . S
C705 C703 1.415 . S
C706 H696 0.930 . S
C706 C704 1.419 . S
C706 C707 1.362 . S
C707 H697 0.930 . S
C707 C700 1.409 . S
C707 C706 1.362 . S
H708 C714 0.930 . S
H709 C717 0.930 . S
H710 C718 0.930 . S
H711 C719 0.930 . S
H712 C722 0.930 . S
H713 C723 0.930 . S
C714 H708 0.930 . S
C714 C715 1.355 . S
C714 C716 1.415 . S
C715 C714 1.355 . S
C715 C717 1.419 . S
C716 C714 1.415 . S
C716 C721 1.425 . S
C716 C723 1.409 . S
C717 H709 0.930 . S
C717 C715 1.419 . S
C717 C718 1.362 . S
C718 H710 0.930 . S
C718 C717 1.362 . S
C718 C721 1.409 . S
C719 H711 0.930 . S
C719 C720 1.355 . S
C719 C721 1.415 . S
C720 C719 1.355 . S
C720 C722 1.419 . S
C721 C716 1.425 . S
C721 C718 1.409 . S
C721 C719 1.415 . S
C722 H712 0.930 . S
C722 C720 1.419 . S
C722 C723 1.362 . S
C723 H713 0.930 . S
C723 C716 1.409 . S
C723 C722 1.362 . S
H724 C730 0.930 . S
H725 C733 0.930 . S
H726 C734 0.930 . S
H727 C735 0.930 . S
H728 C738 0.930 . S
H729 C739 0.930 . S
C730 H724 0.930 . S
C730 C731 1.355 . S
C730 C732 1.415 . S
C731 C730 1.355 . S
C731 C733 1.419 . S
C732 C730 1.415 . S
C732 C737 1.425 . S
C732 C739 1.409 . S
C733 H725 0.930 . S
C733 C731 1.419 . S
C733 C734 1.362 . S
C734 H726 0.930 . S
C734 C733 1.362 . S
C734 C737 1.409 . S
C735 H727 0.930 . S
C735 C736 1.355 . S
C735 C737 1.415 . S
C736 C735 1.355 . S
C736 C738 1.419 . S
C737 C732 1.425 . S
C737 C734 1.409 . S
C737 C735 1.415 . S
C738 H728 0.930 . S
C738 C736 1.419 . S
C738 C739 1.362 . S
C739 H729 0.930 . S
C739 C732 1.409 . S
C739 C738 1.362 . S
H740 C746 0.930 . S
H741 C749 0.930 . S
H742 C750 0.930 . S
H743 C751 0.930 . S
H744 C754 0.930 . S
H745 C755 0.930 . S
C746 H740 0.930 . S
C746 C747 1.355 . S
C746 C748 1.415 . S
C747 C746 1.355 . S
C747 C749 1.419 . S
C748 C746 1.415 . S
C748 C753 1.425 . S
C748 C755 1.409 . S
C749 H741 0.930 . S
C749 C747 1.419 . S
C749 C750 1.362 . S
C750 H742 0.930 . S
C750 C749 1.362 . S
C750 C753 1.409 . S
C751 H743 0.930 . S
C751 C752 1.355 . S
C751 C753 1.415 . S
C752 C751 1.355 . S
C752 C754 1.419 . S
C753 C748 1.425 . S
C753 C750 1.409 . S
C753 C751 1.415 . S
C754 H744 0.930 . S
C754 C752 1.419 . S
C754 C755 1.362 . S
C755 H745 0.930 . S
C755 C748 1.409 . S
C755 C754 1.362 . S
H756 C762 0.930 . S
H757 C765 0.930 . S
H758 C766 0.930 1_554 S
H759 C767 0.930 . S
H760 C770 0.930 . S
H761 C771 0.930 1_556 S
C762 H756 0.930 . S
C762 C763 1.355 . S
C762 C764 1.415 . S
C763 C762 1.355 . S
C763 C765 1.419 . S
C764 C762 1.415 . S
C764 C769 1.425 1_556 S
C764 C771 1.409 1_556 S
C765 H757 0.930 . S
C765 C763 1.419 . S
C765 C766 1.362 . S
C766 H758 0.930 1_556 S
C766 C765 1.362 . S
C766 C769 1.409 1_556 S
C767 H759 0.930 . S
C767 C768 1.355 . S
C767 C769 1.415 . S
C768 C767 1.355 . S
C768 C770 1.419 . S
C769 C764 1.425 1_554 S
C769 C766 1.409 1_554 S
C769 C767 1.415 . S
C770 H760 0.930 . S
C770 C768 1.419 . S
C770 C771 1.362 . S
C771 H761 0.930 1_554 S
C771 C764 1.409 1_554 S
C771 C770 1.362 . S
H772 C778 0.930 . S
H773 C781 0.930 . S
H774 C782 0.930 . S
H775 C783 0.930 . S
H776 C786 0.930 . S
H777 C787 0.930 . S
C778 H772 0.930 . S
C778 C779 1.355 . S
C778 C780 1.415 . S
C779 C778 1.355 . S
C779 C781 1.419 . S
C780 C778 1.415 . S
C780 C785 1.425 1_455 S
C780 C787 1.409 . S
C781 H773 0.930 . S
C781 C779 1.419 . S
C781 C782 1.362 1_455 S
C782 H774 0.930 . S
C782 C781 1.362 1_655 S
C782 C785 1.409 . S
C783 H775 0.930 . S
C783 C784 1.355 . S
C783 C785 1.415 . S
C784 C783 1.355 . S
C784 C786 1.419 . S
C785 C780 1.425 1_655 S
C785 C782 1.409 . S
C785 C783 1.415 . S
C786 H776 0.930 . S
C786 C784 1.419 . S
C786 C787 1.362 1_655 S
C787 H777 0.930 . S
C787 C780 1.409 . S
C787 C786 1.362 1_455 S
H788 C794 0.930 1_545 S
H789 C797 0.930 . S
H790 C798 0.930 . S
H791 C799 0.930 1_565 S
H792 C802 0.930 . S
H793 C803 0.930 . S
C794 H788 0.930 1_565 S
C794 C795 1.355 . S
C794 C796 1.415 1_565 S
C795 C794 1.355 . S
C795 C797 1.419 . S
C796 C794 1.415 1_545 S
C796 C801 1.425 1_544 S
C796 C803 1.409 . S
C797 H789 0.930 . S
C797 C795 1.419 . S
C797 C798 1.362 1_554 S
C798 H790 0.930 . S
C798 C797 1.362 1_556 S
C798 C801 1.409 . S
C799 H791 0.930 1_545 S
C799 C800 1.355 . S
C799 C801 1.415 1_545 S
C800 C799 1.355 . S
C800 C802 1.419 . S
C801 C796 1.425 1_566 S
C801 C798 1.409 . S
C801 C799 1.415 1_565 S
C802 H792 0.930 . S
C802 C800 1.419 . S
C802 C803 1.362 1_556 S
C803 H793 0.930 . S
C803 C796 1.409 . S
C803 C802 1.362 1_554 S
H804 C810 0.930 . S
H805 C813 0.930 . S
H806 C814 0.930 . S
H807 C815 0.930 . S
H808 C818 0.930 . S
H809 C819 0.930 . S
C810 H804 0.930 . S
C810 C811 1.355 . S
C810 C812 1.415 . S
C811 C810 1.355 . S
C811 C813 1.419 . S
C812 C810 1.415 . S
C812 C817 1.425 . S
C812 C819 1.409 . S
C813 H805 0.930 . S
C813 C811 1.419 . S
C813 C814 1.362 . S
C814 H806 0.930 . S
C814 C813 1.362 . S
C814 C817 1.409 . S
C815 H807 0.930 . S
C815 C816 1.355 . S
C815 C817 1.415 . S
C816 C815 1.355 . S
C816 C818 1.419 . S
C817 C812 1.425 . S
C817 C814 1.409 . S
C817 C815 1.415 . S
C818 H808 0.930 . S
C818 C816 1.419 . S
C818 C819 1.362 . S
C819 H809 0.930 . S
C819 C812 1.409 . S
C819 C818 1.362 . S
H820 C826 0.930 . S
H821 C829 0.930 . S
H822 C830 0.930 . S
H823 C831 0.930 . S
H824 C834 0.930 . S
H825 C835 0.930 . S
C826 H820 0.930 . S
C826 C827 1.355 . S
C826 C828 1.415 1_556 S
C827 C826 1.355 . S
C827 C829 1.419 1_655 S
C828 C826 1.415 1_554 S
C828 C833 1.425 1_654 S
C828 C835 1.409 . S
C829 H821 0.930 . S
C829 C827 1.419 1_455 S
C829 C830 1.362 . S
C830 H822 0.930 . S
C830 C829 1.362 . S
C830 C833 1.409 . S
C831 H823 0.930 . S
C831 C832 1.355 . S
C831 C833 1.415 1_554 S
C832 C831 1.355 . S
C832 C834 1.419 1_455 S
C833 C828 1.425 1_456 S
C833 C830 1.409 . S
C833 C831 1.415 1_556 S
C834 H824 0.930 . S
C834 C832 1.419 1_655 S
C834 C835 1.362 . S
C835 H825 0.930 . S
C835 C828 1.409 . S
C835 C834 1.362 . S
H836 C842 0.930 1_545 S
H837 C845 0.930 . S
H838 C846 0.930 . S
H839 C847 0.930 1_565 S
H840 C850 0.930 . S
H841 C851 0.930 . S
C842 H836 0.930 1_565 S
C842 C843 1.355 . S
C842 C844 1.415 1_565 S
C843 C842 1.355 . S
C843 C845 1.419 . S
C844 C842 1.415 1_545 S
C844 C849 1.425 1_545 S
C844 C851 1.409 . S
C845 H837 0.930 . S
C845 C843 1.419 . S
C845 C846 1.362 . S
C846 H838 0.930 . S
C846 C845 1.362 . S
C846 C849 1.409 . S
C847 H839 0.930 1_545 S
C847 C848 1.355 . S
C847 C849 1.415 1_545 S
C848 C847 1.355 . S
C848 C850 1.419 . S
C849 C844 1.425 1_565 S
C849 C846 1.409 . S
C849 C847 1.415 1_565 S
C850 H840 0.930 . S
C850 C848 1.419 . S
C850 C851 1.362 . S
C851 H841 0.930 . S
C851 C844 1.409 . S
C851 C850 1.362 . S
C283 C113 0.928 . S
C288 C17 0.895 . S
C299 C136 0.956 . S
C304 C40 0.884 . S
C315 C63 0.894 . S
C320 C21 0.978 . S
C331 C86 0.894 . S
C336 C44 0.978 . S
C347 C109 0.974 . S
C352 C67 0.872 . S
C363 C90 0.865 . S
C368 C132 0.964 . S
C379 C205 0.890 . S
C384 C155 0.976 . S
C395 C178 0.929 . S
C400 C228 0.965 . S
C411 C251 0.865 . S
C416 C201 0.959 . S
C427 C224 0.885 . S
C432 C274 0.971 . S
C443 C247 0.893 . S
C448 C159 0.978 . S
C459 C182 0.979 . S
C464 C270 0.894 . S
C475 C110 1.199 . S
C480 C16 1.163 . S
C491 C39 1.169 . S
C496 C133 1.193 . S
C507 C62 1.197 . S
C512 C18 1.168 . S
C523 C85 1.175 . S
C528 C41 1.188 . S
C539 C64 1.194 . S
C544 C108 1.168 . S
C555 C87 1.198 . S
C560 C131 1.164 . S
C571 C202 1.186 . S
C576 C154 1.177 . S
C587 C177 1.178 . S
C592 C225 1.185 . S
C603 C200 1.195 . S
C608 C248 1.170 . S
C619 C271 1.186 . S
C624 C223 1.177 . S
C635 C246 1.193 . S
C640 C156 1.171 . S
C651 C179 1.190 . S
C656 C269 1.173 . S
C667 C250 1.466 . S
C672 C20 1.466 . S
C683 C43 1.483 . S
C688 C273 1.493 . S
C699 C66 1.516 . S
C704 C158 1.525 . S
C715 C89 1.499 . S
C720 C181 1.488 . S
C731 C112 1.478 . S
C736 C204 1.487 . S
C747 C227 1.506 . S
C752 C135 1.516 . S
C763 C226 1.527 . S
C768 C19 1.510 . S
C779 C249 1.511 . S
C784 C42 1.528 . S
C795 C65 1.508 . S
C800 C272 1.530 . S
C811 C88 1.518 . S
C816 C157 1.522 . S
C827 C180 1.520 . S
C832 C111 1.519 . S
C843 C203 1.506 . S
C848 C134 1.532 . S
