# Generated by pormake.
# Topology snl, (6)-cn, num edge types: 1
# Building blocks:
#     Node 0, Type 0, BuildingBlock: NUHQIS_clean_sbu_0, # of connection points: 6
#     Node 1, Type 0, BuildingBlock: NUHQIS_clean_sbu_0, # of connection points: 6
#     Node 2, Type 0, BuildingBlock: NUHQIS_clean_sbu_0, # of connection points: 6
#     Node 3, Type 0, BuildingBlock: NUHQIS_clean_sbu_0, # of connection points: 6
#     Node 4, Type 0, BuildingBlock: NUHQIS_clean_sbu_0, # of connection points: 6
#     Node 5, Type 0, BuildingBlock: NUHQIS_clean_sbu_0, # of connection points: 6
#     Node 6, Type 0, BuildingBlock: NUHQIS_clean_sbu_0, # of connection points: 6
#     Node 7, Type 0, BuildingBlock: NUHQIS_clean_sbu_0, # of connection points: 6
#     Node 8, Type 0, BuildingBlock: NUHQIS_clean_sbu_0, # of connection points: 6
#     Node 9, Type 0, BuildingBlock: NUHQIS_clean_sbu_0, # of connection points: 6
#     Node 10, Type 0, BuildingBlock: NUHQIS_clean_sbu_0, # of connection points: 6
#     Node 11, Type 0, BuildingBlock: NUHQIS_clean_sbu_0, # of connection points: 6
#     Node 12, Type 0, BuildingBlock: NUHQIS_clean_sbu_0, # of connection points: 6
#     Node 13, Type 0, BuildingBlock: NUHQIS_clean_sbu_0, # of connection points: 6
#     Node 14, Type 0, BuildingBlock: NUHQIS_clean_sbu_0, # of connection points: 6
#     Node 15, Type 0, BuildingBlock: NUHQIS_clean_sbu_0, # of connection points: 6
#     Edge 16, Type (0, 0), BuildingBlock: EZIPEK_clean_linker_0, # of connection points: 2
#     Edge 17, Type (0, 0), BuildingBlock: EZIPEK_clean_linker_0, # of connection points: 2
#     Edge 18, Type (0, 0), BuildingBlock: EZIPEK_clean_linker_0, # of connection points: 2
#     Edge 19, Type (0, 0), BuildingBlock: EZIPEK_clean_linker_0, # of connection points: 2
#     Edge 20, Type (0, 0), BuildingBlock: EZIPEK_clean_linker_0, # of connection points: 2
#     Edge 21, Type (0, 0), BuildingBlock: EZIPEK_clean_linker_0, # of connection points: 2
#     Edge 22, Type (0, 0), BuildingBlock: EZIPEK_clean_linker_0, # of connection points: 2
#     Edge 23, Type (0, 0), BuildingBlock: EZIPEK_clean_linker_0, # of connection points: 2
#     Edge 24, Type (0, 0), BuildingBlock: EZIPEK_clean_linker_0, # of connection points: 2
#     Edge 25, Type (0, 0), BuildingBlock: EZIPEK_clean_linker_0, # of connection points: 2
#     Edge 26, Type (0, 0), BuildingBlock: EZIPEK_clean_linker_0, # of connection points: 2
#     Edge 27, Type (0, 0), BuildingBlock: EZIPEK_clean_linker_0, # of connection points: 2
#     Edge 28, Type (0, 0), BuildingBlock: EZIPEK_clean_linker_0, # of connection points: 2
#     Edge 29, Type (0, 0), BuildingBlock: EZIPEK_clean_linker_0, # of connection points: 2
#     Edge 30, Type (0, 0), BuildingBlock: EZIPEK_clean_linker_0, # of connection points: 2
#     Edge 31, Type (0, 0), BuildingBlock: EZIPEK_clean_linker_0, # of connection points: 2
#     Edge 32, Type (0, 0), BuildingBlock: EZIPEK_clean_linker_0, # of connection points: 2
#     Edge 33, Type (0, 0), BuildingBlock: EZIPEK_clean_linker_0, # of connection points: 2
#     Edge 34, Type (0, 0), BuildingBlock: EZIPEK_clean_linker_0, # of connection points: 2
#     Edge 35, Type (0, 0), BuildingBlock: EZIPEK_clean_linker_0, # of connection points: 2
#     Edge 36, Type (0, 0), BuildingBlock: EZIPEK_clean_linker_0, # of connection points: 2
#     Edge 37, Type (0, 0), BuildingBlock: EZIPEK_clean_linker_0, # of connection points: 2
#     Edge 38, Type (0, 0), BuildingBlock: EZIPEK_clean_linker_0, # of connection points: 2
#     Edge 39, Type (0, 0), BuildingBlock: EZIPEK_clean_linker_0, # of connection points: 2
#     Edge 40, Type (0, 0), BuildingBlock: EZIPEK_clean_linker_0, # of connection points: 2
#     Edge 41, Type (0, 0), BuildingBlock: EZIPEK_clean_linker_0, # of connection points: 2
#     Edge 42, Type (0, 0), BuildingBlock: EZIPEK_clean_linker_0, # of connection points: 2
#     Edge 43, Type (0, 0), BuildingBlock: EZIPEK_clean_linker_0, # of connection points: 2
#     Edge 44, Type (0, 0), BuildingBlock: EZIPEK_clean_linker_0, # of connection points: 2
#     Edge 45, Type (0, 0), BuildingBlock: EZIPEK_clean_linker_0, # of connection points: 2
#     Edge 46, Type (0, 0), BuildingBlock: EZIPEK_clean_linker_0, # of connection points: 2
#     Edge 47, Type (0, 0), BuildingBlock: EZIPEK_clean_linker_0, # of connection points: 2
#     Edge 48, Type (0, 0), BuildingBlock: EZIPEK_clean_linker_0, # of connection points: 2
#     Edge 49, Type (0, 0), BuildingBlock: EZIPEK_clean_linker_0, # of connection points: 2
#     Edge 50, Type (0, 0), BuildingBlock: EZIPEK_clean_linker_0, # of connection points: 2
#     Edge 51, Type (0, 0), BuildingBlock: EZIPEK_clean_linker_0, # of connection points: 2
#     Edge 52, Type (0, 0), BuildingBlock: EZIPEK_clean_linker_0, # of connection points: 2
#     Edge 53, Type (0, 0), BuildingBlock: EZIPEK_clean_linker_0, # of connection points: 2
#     Edge 54, Type (0, 0), BuildingBlock: EZIPEK_clean_linker_0, # of connection points: 2
#     Edge 55, Type (0, 0), BuildingBlock: EZIPEK_clean_linker_0, # of connection points: 2
#     Edge 56, Type (0, 0), BuildingBlock: EZIPEK_clean_linker_0, # of connection points: 2
#     Edge 57, Type (0, 0), BuildingBlock: EZIPEK_clean_linker_0, # of connection points: 2
#     Edge 58, Type (0, 0), BuildingBlock: EZIPEK_clean_linker_0, # of connection points: 2
#     Edge 59, Type (0, 0), BuildingBlock: EZIPEK_clean_linker_0, # of connection points: 2
#     Edge 60, Type (0, 0), BuildingBlock: EZIPEK_clean_linker_0, # of connection points: 2
#     Edge 61, Type (0, 0), BuildingBlock: EZIPEK_clean_linker_0, # of connection points: 2
#     Edge 62, Type (0, 0), BuildingBlock: EZIPEK_clean_linker_0, # of connection points: 2
#     Edge 63, Type (0, 0), BuildingBlock: EZIPEK_clean_linker_0, # of connection points: 2
# Relax obj value: 0.188
# Max RMSD: 0.264
# Mean RMSD: 0.242
data_MOF--net-snl--node1-NUHQIS_clean_sbu_0--edge1-EZIPEK_clean_linker_0
_symmetry_space_group_name_H-M    P1
_symmetry_Int_Tables_number       1
_symmetry_cell_setting            triclinic
loop_
_symmetry_equiv_pos_as_xyz
'x, y, z'
_cell_length_a     42.32786
_cell_length_b     40.94476
_cell_length_c     21.282058
_cell_angle_alpha  85.245483
_cell_angle_beta   94.716048
_cell_angle_gamma 90.056243
loop_
_atom_site_label
_atom_site_type_symbol
_atom_site_fract_x
_atom_site_fract_y
_atom_site_fract_z
_atom_type_partial_charge
Tb0 Tb 0.12311 0.60267 0.22606 0.0
Eu1 Eu 0.14198 0.64196 0.08783 0.0
C2 C 0.068 0.62319 0.12002 0.0
C3 C 0.13123 0.56394 0.09891 0.0
C4 C 0.12024 0.58354 0.40041 0.0
C5 C 0.11176 0.57302 0.51224 0.0
C6 C 0.10733 0.56437 0.44969 0.0
C7 C 0.13808 0.61134 0.41482 0.0
C8 C 0.14258 0.61997 0.47744 0.0
C9 C 0.12923 0.60103 0.52667 0.0
C10 C 0.11351 0.57525 0.33416 0.0
O11 O 0.17014 0.62276 0.24553 0.0
O12 O 0.18835 0.62787 0.14682 0.0
O13 O 0.14155 0.6813 0.15514 0.0
O14 O 0.11547 0.655 0.23649 0.0
C15 C 0.19357 0.62594 0.20899 0.0
O16 O 0.17523 0.64926 1.01453 0.0
O17 O 0.1312 0.67645 1.00451 0.0
O18 O 0.08775 0.63937 0.08376 0.0
O19 O 0.07742 0.60559 0.17253 0.0
O20 O 0.12845 0.56328 0.16089 0.0
O21 O 0.13551 0.59092 0.06385 0.0
C22 C 0.12681 0.68165 0.20712 0.0
O23 O 0.09306 0.5942 0.29951 0.0
O24 O 0.13782 0.5689 0.30311 0.0
C25 C 0.1508 0.659 0.9108 0.0
C26 C 0.14316 0.63967 0.78568 0.0
C27 C 0.16795 0.66061 0.80392 0.0
C28 C 0.17171 0.6702 0.86588 0.0
C29 C 0.12602 0.63792 0.89264 0.0
C30 C 0.12216 0.62847 0.83052 0.0
C31 C 0.15606 0.66821 0.97682 0.0
H32 H 0.10125 0.55808 0.54935 0.0
H33 H 0.09338 0.54293 0.43966 0.0
H34 H 0.14813 0.62659 0.37752 0.0
H35 H 0.15612 0.64167 0.48745 0.0
H36 H 0.18443 0.66948 0.77015 0.0
H37 H 0.19113 0.6862 0.87889 0.0
H38 H 0.10981 0.62861 0.9266 0.0
H39 H 0.10294 0.61222 0.81751 0.0
Tb40 Tb 0.62619 0.91139 0.33392 0.0
Eu41 Eu 0.65124 0.87941 0.47625 0.0
C42 C 0.57672 0.89326 0.43299 0.0
C43 C 0.63801 0.95529 0.45271 0.0
C44 C 0.61756 0.92884 0.15746 0.0
C45 C 0.60185 0.91529 0.04996 0.0
C46 C 0.594 0.92105 0.11073 0.0
C47 C 0.64923 0.93113 0.14193 0.0
C48 C 0.65706 0.92562 0.08083 0.0
C49 C 0.63344 0.91739 0.03449 0.0
C50 C 0.60841 0.93367 0.2219 0.0
O51 O 0.67744 0.91471 0.33437 0.0
O52 O 0.69212 0.87417 0.41208 0.0
O53 O 0.63095 0.83784 0.42489 0.0
O54 O 0.63893 0.85964 0.32487 0.0
C55 C 0.69832 0.89323 0.36127 0.0
O56 O 0.68702 0.8755 0.55676 0.0
O57 O 0.64394 0.84736 0.56129 0.0
O58 O 0.59931 0.89434 0.47949 0.0
O59 O 0.5835 0.89294 0.37408 0.0
O60 O 0.62036 0.95028 0.39997 0.0
O61 O 0.65797 0.93308 0.47919 0.0
C62 C 0.63427 0.83417 0.36542 0.0
O63 O 0.59567 0.90853 0.25146 0.0
O64 O 0.62841 0.94852 0.25971 0.0
C65 C 0.66543 0.8675 0.65738 0.0
C66 C 0.65732 0.88582 0.7806 0.0
C67 C 0.67586 0.90499 0.74009 0.0
C68 C 0.67982 0.896 0.67902 0.0
C69 C 0.64715 0.84824 0.69838 0.0
C70 C 0.64303 0.85736 0.7592 0.0
C71 C 0.66933 0.85734 0.59288 0.0
H72 H 0.58328 0.909 1.01499 0.0
H73 H 0.56945 0.91912 0.12146 0.0
H74 H 0.66796 0.93693 0.17698 0.0
H75 H 0.68157 0.92739 0.06986 0.0
H76 H 0.68718 0.92698 0.75574 0.0
H77 H 0.69412 0.91142 0.64887 0.0
H78 H 0.63594 0.82607 0.6833 0.0
H79 H 0.62871 0.84216 0.78973 0.0
Tb80 Tb 0.35288 0.37457 0.60218 0.0
Eu81 Eu 0.38747 0.3982 0.73937 0.0
C82 C 0.372 0.32052 0.71335 0.0
C83 C 0.31201 0.38601 0.72384 0.0
C84 C 0.33637 0.36924 0.42821 0.0
C85 C 0.33409 0.35363 0.31991 0.0
C86 C 0.32585 0.34806 0.38234 0.0
C87 C 0.35524 0.39623 0.41056 0.0
C88 C 0.36342 0.40186 0.34799 0.0
C89 C 0.35299 0.38051 0.30224 0.0
C90 C 0.32818 0.36223 0.49428 0.0
O91 O 0.37251 0.42243 0.57921 0.0
O92 O 0.37447 0.44448 0.67485 0.0
O93 O 0.42699 0.39788 0.67501 0.0
O94 O 0.40423 0.36741 0.59633 0.0
C95 C 0.37416 0.44781 0.61264 0.0
O96 O 0.39132 0.43316 0.81164 0.0
O97 O 0.42165 0.39035 0.82238 0.0
O98 O 0.38637 0.34214 0.74855 0.0
O99 O 0.35559 0.32868 0.65944 0.0
O100 O 0.31306 0.38199 0.66258 0.0
O101 O 0.33742 0.3909 0.76079 0.0
C102 C 0.42907 0.38112 0.62541 0.0
O103 O 0.34722 0.34226 0.53018 0.0
O104 O 0.32023 0.38721 0.52404 0.0
C105 C 0.40349 0.40924 0.91557 0.0
C106 C 0.38736 0.39966 0.04209 0.0
C107 C 0.41574 0.41537 1.02784 0.0
C108 C 0.42372 0.42014 0.96506 0.0
C109 C 0.37521 0.39328 0.92984 0.0
C110 C 0.3672 0.38856 0.9926 0.0
C111 C 0.41158 0.41541 0.84933 0.0
H112 H 0.32585 0.33687 0.28538 0.0
H113 H 0.31141 0.32705 0.39494 0.0
H114 H 0.36382 0.41282 0.44516 0.0
H115 H 0.37806 0.4227 0.33533 0.0
H116 H 0.43161 0.42408 0.06532 0.0
H117 H 0.44559 0.43255 0.9551 0.0
H118 H 0.35923 0.38469 0.89239 0.0
H119 H 0.34523 0.37636 1.00259 0.0
Tb120 Tb 0.8978 0.11935 0.83968 0.0
Eu121 Eu 0.8739 0.14765 0.97017 0.0
C122 C 0.94845 0.13771 0.94574 0.0
C123 C 0.88665 0.07187 0.96795 0.0
C124 C 0.9062 0.09869 0.67447 0.0
C125 C 0.92403 0.10187 0.56856 0.0
C126 C 0.93036 0.09573 0.63392 0.0
C127 C 0.87543 0.1075 0.64873 0.0
C128 C 0.86905 0.11342 0.58324 0.0
C129 C 0.8934 0.11088 0.54295 0.0
C130 C 0.91391 0.09355 0.74325 0.0
O131 O 0.8479 0.12922 0.81363 0.0
O132 O 0.82862 0.13849 0.90868 0.0
O133 O 0.87791 0.19187 0.90308 0.0
O134 O 0.89199 0.17198 0.8104 0.0
C135 C 0.8242 0.1335 0.84813 0.0
O136 O 0.84003 0.15164 0.04126 0.0
O137 O 0.88314 0.18003 0.04588 0.0
O138 O 0.92702 0.13592 0.98757 0.0
O139 O 0.94076 0.13773 0.88509 0.0
O140 O 0.90098 0.07801 0.91514 0.0
O141 O 0.8713 0.09432 0.99303 0.0
C142 C 0.88509 0.19621 0.84433 0.0
O143 O 0.92951 0.11708 0.76916 0.0
O144 O 0.89131 0.08242 0.77714 0.0
C145 C 0.86306 0.16105 0.14234 0.0
C146 C 0.87195 0.14287 0.2728 0.0
C147 C 0.84664 0.16352 0.24845 0.0
C148 C 0.84224 0.17257 0.18355 0.0
C149 C 0.88814 0.14002 0.16655 0.0
C150 C 0.89261 0.13103 0.2315 0.0
C151 C 0.85808 0.17079 0.07428 0.0
H152 H 0.94305 0.09995 0.53795 0.0
H153 H 0.95423 0.08909 0.65295 0.0
H154 H 0.85645 0.11015 0.67917 0.0
H155 H 0.84533 0.12053 0.56403 0.0
H156 H 0.83051 0.17283 0.2798 0.0
H157 H 0.82266 0.18865 0.16553 0.0
H158 H 0.90433 0.13076 0.13529 0.0
H159 H 0.91225 0.11508 0.24964 0.0
Tb160 Tb 0.1225 0.40809 0.83004 0.0
Eu161 Eu 0.15062 0.37464 0.97272 0.0
C162 C 0.07461 0.38612 0.93311 0.0
C163 C 0.13315 0.44978 0.95106 0.0
C164 C 0.113 0.42467 0.65421 0.0
C165 C 0.09615 0.42344 0.54188 0.0
C166 C 0.08996 0.43061 0.60312 0.0
C167 C 0.14246 0.41135 0.64278 0.0
C168 C 0.14869 0.40429 0.58148 0.0
C169 C 0.12558 0.41023 0.53046 0.0
C170 C 0.10597 0.43245 0.71872 0.0
O171 O 0.16938 0.39036 0.81603 0.0
O172 O 0.19306 0.3909 0.91666 0.0
O173 O 0.15137 0.33316 0.91034 0.0
O174 O 0.11892 0.35476 0.82384 0.0
C175 C 0.19493 0.39061 0.85491 0.0
O176 O 0.18413 0.37967 0.05486 0.0
O177 O 0.15116 0.33927 0.05615 0.0
O178 O 0.09694 0.36877 0.96793 0.0
O179 O 0.08087 0.40657 0.88456 0.0
O180 O 0.13638 0.44878 0.88983 0.0
O181 O 0.13051 0.42308 0.98773 0.0
C182 C 0.13427 0.33 0.85672 0.0
O183 O 0.08917 0.41112 0.7503 0.0
O184 O 0.1295 0.44321 0.75471 0.0
C185 C 0.16406 0.36336 0.15318 0.0
C186 C 0.15099 0.37899 0.27592 0.0
C187 C 0.17043 0.35205 0.26795 0.0
C188 C 0.17689 0.34433 0.20719 0.0
C189 C 0.14449 0.39024 0.16105 0.0
C190 C 0.13801 0.39796 0.22183 0.0
C191 C 0.17205 0.3557 0.08931 0.0
H192 H 0.07798 0.42819 0.50333 0.0
H193 H 0.06709 0.44081 0.61061 0.0
H194 H 0.16066 0.40638 0.6812 0.0
H195 H 0.17152 0.39406 0.57385 0.0
H196 H 0.1807 0.33708 0.30888 0.0
H197 H 0.19213 0.32359 0.20239 0.0
H198 H 0.1344 0.40539 0.1202 0.0
H199 H 0.12296 0.41883 0.22672 0.0
Tb200 Tb 0.85365 0.87719 0.10607 0.0
Eu201 Eu 0.88946 0.89586 0.24372 0.0
C202 C 0.87368 0.82076 0.21515 0.0
C203 C 0.8132 0.88758 0.22391 0.0
C204 C 0.83753 0.87311 0.93161 0.0
C205 C 0.82108 0.8825 0.81921 0.0
C206 C 0.81348 0.87667 0.882 0.0
C207 C 0.86936 0.876 0.91754 0.0
C208 C 0.87696 0.88182 0.85479 0.0
C209 C 0.85288 0.88485 0.80515 0.0
C210 C 0.82915 0.86556 0.99733 0.0
O211 O 0.85163 0.93016 0.10632 0.0
O212 O 0.89637 0.93829 0.16986 0.0
O213 O 0.92953 0.88171 0.18792 0.0
O214 O 0.90393 0.88508 0.08736 0.0
C215 C 0.87591 0.94835 0.12221 0.0
O216 O 0.89557 0.93198 0.31366 0.0
O217 O 0.92082 0.88573 0.32993 0.0
O218 O 0.87848 0.84157 0.25888 0.0
O219 O 0.86788 0.83028 0.15486 0.0
O220 O 0.81577 0.87236 0.17198 0.0
O221 O 0.83729 0.9028 0.25088 0.0
C222 C 0.93002 0.88221 0.12614 0.0
O223 O 0.84811 0.8456 0.03318 0.0
O224 O 0.82103 0.89019 1.02748 0.0
C225 C 0.90371 0.90912 0.41925 0.0
C226 C 0.88606 0.90225 0.54463 0.0
C227 C 0.914 0.91878 0.53033 0.0
C228 C 0.92275 0.92219 0.46806 0.0
C229 C 0.87564 0.89277 0.43338 0.0
C230 C 0.86688 0.88934 0.49567 0.0
C231 C 0.91327 0.9127 0.35393 0.0
H232 H 0.80221 0.88474 0.78149 0.0
H233 H 0.7888 0.87454 0.89178 0.0
H234 H 0.88836 0.87346 0.95497 0.0
H235 H 0.90162 0.88359 0.84483 0.0
H236 H 0.92909 0.92885 0.56748 0.0
H237 H 0.94444 0.93494 0.45803 0.0
H238 H 0.8606 0.88258 0.39628 0.0
H239 H 0.84527 0.87649 0.50582 0.0
Tb240 Tb 0.39291 0.61984 0.33683 0.0
Eu241 Eu 0.36929 0.64863 0.46496 0.0
C242 C 0.44355 0.63845 0.44337 0.0
C243 C 0.38192 0.57288 0.46195 0.0
C244 C 0.4022 0.603 0.17001 0.0
C245 C 0.40703 0.58768 0.06342 0.0
C246 C 0.41381 0.58177 0.12878 0.0
C247 C 0.38317 0.62989 0.14536 0.0
C248 C 0.37648 0.63588 0.07998 0.0
C249 C 0.38861 0.61495 0.03871 0.0
C250 C 0.41113 0.59763 0.23821 0.0
O251 O 0.34177 0.61583 0.32235 0.0
O252 O 0.32632 0.65202 0.3913 0.0
O253 O 0.3838 0.69244 0.4058 0.0
O254 O 0.37947 0.6716 0.30841 0.0
C255 C 0.32007 0.63408 0.34287 0.0
O256 O 0.3348 0.65036 0.53561 0.0
O257 O 0.37636 0.68103 0.54109 0.0
O258 O 0.42216 0.63576 0.48533 0.0
O259 O 0.43532 0.6396 0.38272 0.0
O260 O 0.39941 0.57958 0.41373 0.0
O261 O 0.36344 0.59478 0.48102 0.0
C262 C 0.38192 0.69657 0.34419 0.0
O263 O 0.42385 0.62257 0.26458 0.0
O264 O 0.39016 0.58335 0.27244 0.0
C265 C 0.35666 0.6611 0.63708 0.0
C266 C 0.36662 0.64445 0.76793 0.0
C267 C 0.34236 0.66647 0.7439 0.0
C268 C 0.33743 0.67475 0.67877 0.0
C269 C 0.38073 0.63878 0.66105 0.0
C270 C 0.38572 0.63054 0.72621 0.0
C271 C 0.35157 0.67048 0.56891 0.0
H272 H 0.41656 0.57136 1.03205 0.0
H273 H 0.42854 0.56094 0.1471 0.0
H274 H 0.374 0.64651 0.17659 0.0
H275 H 0.36224 0.65702 0.06149 0.0
H276 H 0.32748 0.6774 0.77562 0.0
H277 H 0.31873 0.69197 0.66096 0.0
H278 H 0.39575 0.62798 0.62943 0.0
H279 H 0.40454 0.61351 0.74416 0.0
Tb280 Tb 0.6267 0.10582 0.73139 0.0
Eu281 Eu 0.6451 0.14296 0.59261 0.0
C282 C 0.57207 0.12923 0.62517 0.0
C283 C 0.63612 0.06533 0.61031 0.0
C284 C 0.61979 0.0861 0.90514 0.0
C285 C 0.60014 0.10041 1.00384 0.0
C286 C 0.59451 0.09303 0.94091 0.0
C287 C 0.65093 0.0861 0.9341 0.0
C288 C 0.65654 0.09329 0.99736 0.0
C289 C 0.63117 0.10072 1.03244 0.0
C290 C 0.61289 0.07968 0.83781 0.0
O291 O 0.67813 0.10746 0.74227 0.0
O292 O 0.68925 0.14584 0.66151 0.0
O293 O 0.63424 0.18413 0.64974 0.0
O294 O 0.63485 0.15757 0.75022 0.0
C295 C 0.69756 0.12798 0.7149 0.0
O296 O 0.67887 0.1494 0.52014 0.0
O297 O 0.63408 0.17544 0.50689 0.0
O298 O 0.59195 0.13289 0.58055 0.0
O299 O 0.58182 0.12316 0.68506 0.0
O300 O 0.62188 0.06765 0.66295 0.0
O301 O 0.6514 0.08983 0.58416 0.0
C302 C 0.6341 0.18454 0.71127 0.0
O303 O 0.59549 0.10163 0.80338 0.0
O304 O 0.636 0.06966 0.80719 0.0
C305 C 0.65519 0.15727 0.41555 0.0
C306 C 0.64839 0.13762 0.29103 0.0
C307 C 0.67608 0.15344 0.31315 0.0
C308 C 0.6794 0.16324 0.37484 0.0
C309 C 0.62761 0.14108 0.39367 0.0
C310 C 0.62419 0.13148 0.33178 0.0
C311 C 0.65949 0.16734 0.48086 0.0
H312 H 0.5803 0.10615 1.03015 0.0
H313 H 0.57031 0.09314 0.91983 0.0
H314 H 0.67094 0.08092 0.90784 0.0
H315 H 0.68066 0.09349 1.01873 0.0
H316 H 0.69502 0.15834 0.28247 0.0
H317 H 0.70094 0.17545 0.39087 0.0
H318 H 0.60873 0.13584 0.42437 0.0
H319 H 0.60268 0.11928 0.31561 0.0
Tb320 Tb 0.86669 0.37655 0.96252 0.0
Eu321 Eu 0.8865 0.41241 0.82694 0.0
C322 C 0.81459 0.39329 0.84625 0.0
C323 C 0.87834 0.33287 0.8509 0.0
C324 C 0.85809 0.36489 0.13675 0.0
C325 C 0.84624 0.40141 0.21687 0.0
C326 C 0.84191 0.39224 0.15476 0.0
C327 C 0.87876 0.34711 0.18226 0.0
C328 C 0.8832 0.35641 0.24423 0.0
C329 C 0.86685 0.38351 0.26212 0.0
C330 C 0.85324 0.35416 0.07161 0.0
O331 O 0.91776 0.38871 0.97587 0.0
O332 O 0.93116 0.38966 0.87362 0.0
O333 O 0.8952 0.44916 0.90251 0.0
O334 O 0.8584 0.42839 0.9672 0.0
C335 C 0.93915 0.38729 0.93431 0.0
O336 O 0.91863 0.41807 0.75158 0.0
O337 O 0.87737 0.44939 0.74709 0.0
O338 O 0.83343 0.41552 0.82242 0.0
O339 O 0.82463 0.37217 0.8942 0.0
O340 O 0.87879 0.33507 0.91212 0.0
O341 O 0.87642 0.35886 0.80941 0.0
C342 C 0.87802 0.45164 0.95107 0.0
O343 O 0.83368 0.37125 1.03124 0.0
O344 O 0.87854 0.34591 0.04557 0.0
C345 C 0.89445 0.43366 0.64943 0.0
C346 C 0.88388 0.41944 0.52169 0.0
C347 C 0.91485 0.42127 0.55025 0.0
C348 C 0.92007 0.42845 0.61338 0.0
C349 C 0.86339 0.43222 0.62058 0.0
C350 C 0.85818 0.4253 0.55714 0.0
C351 C 0.90085 0.4397 0.71702 0.0
H352 H 0.8334 0.42239 0.22977 0.0
H353 H 0.82582 0.40655 0.12105 0.0
H354 H 0.89141 0.32587 0.16993 0.0
H355 H 0.89919 0.34228 0.27846 0.0
H356 H 0.93498 0.41685 0.52373 0.0
H357 H 0.94421 0.42952 0.63439 0.0
H358 H 0.84313 0.43606 0.64708 0.0
H359 H 0.83411 0.42404 0.5359 0.0
Tb360 Tb 0.36165 0.1341 0.59738 0.0
Eu361 Eu 0.38944 0.10242 0.73976 0.0
C362 C 0.31667 0.12061 0.712 0.0
C363 C 0.37623 0.18126 0.70472 0.0
C364 C 0.34894 0.14459 0.42121 0.0
C365 C 0.33462 0.14495 0.30787 0.0
C366 C 0.32763 0.15274 0.36817 0.0
C367 C 0.37743 0.12843 0.41301 0.0
C368 C 0.3845 0.12071 0.35263 0.0
C369 C 0.36309 0.12884 0.29953 0.0
C370 C 0.3405 0.15176 0.48482 0.0
O371 O 0.41357 0.14238 0.60376 0.0
O372 O 0.43155 0.10299 0.68252 0.0
O373 O 0.37533 0.06015 0.67827 0.0
O374 O 0.3818 0.08736 0.58214 0.0
C375 C 0.43669 0.12448 0.6353 0.0
O376 O 0.42331 0.10045 0.82373 0.0
O377 O 0.38391 0.06664 0.81989 0.0
O378 O 0.34127 0.12095 0.75295 0.0
O379 O 0.32001 0.11904 0.65084 0.0
O380 O 0.35797 0.17531 0.65407 0.0
O381 O 0.39355 0.15822 0.73861 0.0
C382 C 0.3788 0.06009 0.6171 0.0
O383 O 0.32956 0.12707 0.51903 0.0
O384 O 0.36082 0.16867 0.51822 0.0
C385 C 0.40034 0.08555 0.92058 0.0
C386 C 0.38871 0.09859 0.04537 0.0
C387 C 0.41987 0.09681 1.02773 0.0
C388 C 0.42562 0.09026 0.966 0.0
C389 C 0.36909 0.08739 0.93841 0.0
C390 C 0.36337 0.09376 1.00026 0.0
C391 C 0.40703 0.07858 0.85542 0.0
H392 H 0.31779 0.15144 0.26764 0.0
H393 H 0.30542 0.16495 0.37346 0.0
H394 H 0.39408 0.12164 0.45335 0.0
H395 H 0.40658 0.1083 0.34729 0.0
H396 H 0.43973 0.10053 0.06179 0.0
H397 H 0.44988 0.08893 0.95364 0.0
H398 H 0.34904 0.08399 0.90461 0.0
H399 H 0.33916 0.09514 1.01287 0.0
Tb400 Tb 0.61999 0.62209 0.3251 0.0
Eu401 Eu 0.65511 0.64049 0.46314 0.0
C402 C 0.62827 0.56812 0.44442 0.0
C403 C 0.5781 0.63678 0.43865 0.0
C404 C 0.60643 0.61525 0.15106 0.0
C405 C 0.59517 0.61068 0.03818 0.0
C406 C 0.58592 0.6066 0.10001 0.0
C407 C 0.63641 0.6281 0.13949 0.0
C408 C 0.64569 0.63217 0.07757 0.0
C409 C 0.62511 0.62347 1.02647 0.0
C410 C 0.59636 0.61046 0.21592 0.0
O411 O 0.6363 0.67338 0.31338 0.0
O412 O 0.63436 0.68674 0.41513 0.0
O413 O 0.6929 0.64406 0.39113 0.0
O414 O 0.6699 0.61105 0.31856 0.0
C415 C 0.6347 0.69542 0.35487 0.0
O416 O 0.66292 0.6741 0.53748 0.0
O417 O 0.68938 0.62872 0.54448 0.0
O418 O 0.64959 0.58628 0.47263 0.0
O419 O 0.61228 0.57839 0.39036 0.0
O420 O 0.58062 0.63639 0.37735 0.0
O421 O 0.60298 0.63456 0.48054 0.0
C422 C 0.69436 0.62748 0.34074 0.0
O423 O 0.61276 0.58928 0.25446 0.0
O424 O 0.59063 0.63695 0.24311 0.0
C425 C 0.67495 0.64837 0.63989 0.0
C426 C 0.65987 0.63943 0.76688 0.0
C427 C 0.68192 0.66327 0.74851 0.0
C428 C 0.68941 0.66768 0.68548 0.0
C429 C 0.65296 0.62441 0.65827 0.0
C430 C 0.64555 0.61991 0.7214 0.0
C431 C 0.68214 0.65429 0.5732 0.0
H432 H 0.57898 0.60387 0.99938 0.0
H433 H 0.56273 0.59663 0.108 0.0
H434 H 0.65259 0.63491 0.17832 0.0
H435 H 0.66886 0.64212 0.06944 0.0
H436 H 0.69313 0.67859 0.78292 0.0
H437 H 0.70629 0.6864 0.67217 0.0
H438 H 0.64135 0.60941 0.6237 0.0
H439 H 0.62841 0.60148 0.73469 0.0
Tb440 Tb 0.13841 0.86558 0.10807 0.0
Eu441 Eu 0.11503 0.89559 0.23676 0.0
C442 C 0.18718 0.88018 0.22545 0.0
C443 C 0.12351 0.81788 0.22364 0.0
C444 C 0.14926 0.84828 0.94263 0.0
C445 C 0.15713 0.83552 0.83559 0.0
C446 C 0.16244 0.82833 0.901 0.0
C447 C 0.13038 0.87533 0.91823 0.0
C448 C 0.12512 0.88256 0.85282 0.0
C449 C 0.13861 0.86279 0.81118 0.0
C450 C 0.15631 0.84145 1.0112 0.0
O451 O 0.08559 0.86686 0.09466 0.0
O452 O 0.0706 0.89693 0.17461 0.0
O453 O 0.12357 0.93927 0.16484 0.0
O454 O 0.1293 0.91527 0.07202 0.0
C455 C 0.06371 0.88162 0.12385 0.0
O456 O 0.08297 0.8979 0.31159 0.0
O457 O 0.12396 0.92962 0.3097 0.0
O458 O 0.16426 0.87685 0.26282 0.0
O459 O 0.18114 0.8826 0.16327 0.0
O460 O 0.14324 0.82558 0.18074 0.0
O461 O 0.10688 0.84041 0.24733 0.0
C462 C 0.12628 0.94114 0.10294 0.0
O463 O 0.17125 0.86456 0.0397 0.0
O464 O 0.13313 0.82969 0.04275 0.0
C465 C 0.10718 0.91115 0.40971 0.0
C466 C 0.11861 0.89526 0.54068 0.0
C467 C 0.09158 0.91343 0.51656 0.0
C468 C 0.08592 0.92133 0.45145 0.0
C469 C 0.13429 0.89299 0.43381 0.0
C470 C 0.14 0.88516 0.49902 0.0
C471 C 0.10031 0.91902 0.34131 0.0
H472 H 0.16768 0.82005 0.80398 0.0
H473 H 0.17712 0.80743 0.91911 0.0
H474 H 0.12004 0.891 0.94975 0.0
H475 H 0.11075 0.90368 0.83464 0.0
H476 H 0.07486 0.92136 0.54817 0.0
H477 H 0.06484 0.93525 0.4336 0.0
H478 H 0.15089 0.88477 0.40223 0.0
H479 H 0.16094 0.87107 0.51701 0.0
Tb480 Tb 0.85573 0.63386 0.09249 0.0
Eu481 Eu 0.88489 0.60243 0.23559 0.0
C482 C 0.81009 0.62246 0.20606 0.0
C483 C 0.87188 0.68185 0.2008 0.0
C484 C 0.84379 0.64163 0.91476 0.0
C485 C 0.83193 0.60776 0.82658 0.0
C486 C 0.82632 0.61642 0.88708 0.0
C487 C 0.86683 0.65806 0.88006 0.0
C488 C 0.87237 0.64941 0.81956 0.0
C489 C 0.85493 0.62426 0.79229 0.0
C490 C 0.83736 0.65158 0.97832 0.0
O491 O 0.90801 0.62921 0.08779 0.0
O492 O 0.92909 0.61587 0.19057 0.0
O493 O 0.89232 0.56483 0.16374 0.0
O494 O 0.85041 0.5812 0.09482 0.0
C495 C 0.9324 0.62425 0.13091 0.0
O496 O 0.91612 0.60253 0.32247 0.0
O497 O 0.88215 0.56338 0.31166 0.0
O498 O 0.83203 0.60436 0.23937 0.0
O499 O 0.81516 0.63806 0.15075 0.0
O500 O 0.85944 0.6774 0.14355 0.0
O501 O 0.88262 0.65767 0.24199 0.0
C502 C 0.87328 0.56034 0.11298 0.0
O503 O 0.82216 0.63088 1.01457 0.0
O504 O 0.86044 0.66541 1.01059 0.0
C505 C 0.89392 0.58111 0.41528 0.0
C506 C 0.87889 0.59249 0.53867 0.0
C507 C 0.91061 0.5913 0.52417 0.0
C508 C 0.91803 0.58556 0.46314 0.0
C509 C 0.86211 0.58191 0.42989 0.0
C510 C 0.85468 0.58736 0.49123 0.0
C511 C 0.90263 0.57727 0.35027 0.0
H512 H 0.81815 0.58835 0.80627 0.0
H513 H 0.80822 0.6034 0.91205 0.0
H514 H 0.88046 0.67781 0.89947 0.0
H515 H 0.89014 0.66251 0.79375 0.0
H516 H 0.92962 0.5952 0.56 0.0
H517 H 0.94269 0.58514 0.45299 0.0
H518 H 0.843 0.5788 0.39382 0.0
H519 H 0.83006 0.58819 0.50146 0.0
Tb520 Tb 0.12521 0.11576 0.8286 0.0
Eu521 Eu 0.15959 0.13952 0.96646 0.0
C522 C 0.13659 0.06606 0.95283 0.0
C523 C 0.08256 0.13377 0.93784 0.0
C524 C 0.10956 0.10556 0.65668 0.0
C525 C 0.09739 0.09987 0.54426 0.0
C526 C 0.08946 0.09466 0.607 0.0
C527 C 0.1376 0.12205 0.64263 0.0
C528 C 0.14558 0.12716 0.57993 0.0
C529 C 0.1256 0.11598 0.53029 0.0
C530 C 0.10165 0.09869 0.72288 0.0
O531 O 0.12773 0.16978 0.8153 0.0
O532 O 0.15469 0.18633 0.90649 0.0
O533 O 0.20003 0.13128 0.90309 0.0
O534 O 0.17375 0.12231 0.80655 0.0
C535 C 0.13998 0.19268 0.85028 0.0
O536 O 0.16636 0.17269 0.04185 0.0
O537 O 0.19263 0.12699 0.04929 0.0
O538 O 0.13904 0.09035 0.98875 0.0
O539 O 0.13663 0.0706 0.89065 0.0
O540 O 0.08606 0.11678 0.88894 0.0
O541 O 0.10654 0.14728 0.96961 0.0
C542 C 0.19987 0.12681 0.84198 0.0
O543 O 0.12258 0.08158 0.76004 0.0
O544 O 0.09123 0.1233 0.75053 0.0
C545 C 0.17659 0.14594 0.14433 0.0
C546 C 0.15999 0.13538 0.27036 0.0
C547 C 0.17997 0.16138 0.25279 0.0
C548 C 0.1882 0.1666 0.19029 0.0
C549 C 0.15659 0.11988 0.16188 0.0
C550 C 0.14842 0.11461 0.22448 0.0
C551 C 0.18487 0.15236 0.07825 0.0
H552 H 0.08167 0.09108 0.50662 0.0
H553 H 0.06777 0.08185 0.6168 0.0
H554 H 0.15345 0.13069 0.68018 0.0
H555 H 0.16742 0.13968 0.57012 0.0
H556 H 0.1891 0.17767 0.28747 0.0
H557 H 0.20353 0.1869 0.17773 0.0
H558 H 0.14717 0.10374 0.12715 0.0
H559 H 0.13294 0.09446 0.23709 0.0
Tb560 Tb 0.63543 0.37159 0.60334 0.0
Eu561 Eu 0.61101 0.39759 0.73336 0.0
C562 C 0.68525 0.38902 0.72314 0.0
C563 C 0.62515 0.32216 0.71656 0.0
C564 C 0.64943 0.35713 0.43782 0.0
C565 C 0.65018 0.3407 0.33099 0.0
C566 C 0.65583 0.33358 0.39631 0.0
C567 C 0.63729 0.38794 0.4134 0.0
C568 C 0.63179 0.39512 0.34806 0.0
C569 C 0.63815 0.37149 0.30661 0.0
C570 C 0.65512 0.34914 0.50632 0.0
O571 O 0.58483 0.38341 0.57807 0.0
O572 O 0.5682 0.3793 0.67843 0.0
O573 O 0.60923 0.44267 0.66111 0.0
O574 O 0.63162 0.42309 0.57604 0.0
C575 C 0.56206 0.38037 0.61707 0.0
O576 O 0.57979 0.38927 0.8094 0.0
O577 O 0.60831 0.43317 0.80381 0.0
O578 O 0.66317 0.40223 0.75241 0.0
O579 O 0.67858 0.37391 0.67081 0.0
O580 O 0.61695 0.32995 0.65699 0.0
O581 O 0.63029 0.34525 0.75568 0.0
C582 C 0.6196 0.44691 0.60396 0.0
O583 O 0.66989 0.37126 0.53793 0.0
O584 O 0.63107 0.3373 0.53484 0.0
C585 C 0.59805 0.41018 0.90515 0.0
C586 C 0.61275 0.39896 0.03618 0.0
C587 C 0.58959 0.42223 1.01221 0.0
C588 C 0.58226 0.42778 0.94697 0.0
C589 C 0.62161 0.38728 0.929 0.0
C590 C 0.62889 0.38166 0.99427 0.0
C591 C 0.58918 0.41525 0.83699 0.0
H592 H 0.65508 0.32222 0.29943 0.0
H593 H 0.66507 0.30967 0.41446 0.0
H594 H 0.63204 0.40636 0.44483 0.0
H595 H 0.62238 0.41894 0.3298 0.0
H596 H 0.57695 0.43573 0.04406 0.0
H597 H 0.56403 0.44553 0.92919 0.0
H598 H 0.63403 0.37353 0.89718 0.0
H599 H 0.64681 0.36361 1.01218 0.0
Tb600 Tb 0.36931 0.87641 0.46653 0.0
Eu601 Eu 0.38628 0.91302 0.32861 0.0
C602 C 0.31515 0.88919 0.34999 0.0
C603 C 0.37851 0.83344 0.35078 0.0
C604 C 0.365 0.86336 0.64139 0.0
C605 C 0.3634 0.85192 0.75514 0.0
C606 C 0.35933 0.8417 0.6938 0.0
C607 C 0.37496 0.89546 0.65116 0.0
C608 C 0.37901 0.90571 0.7126 0.0
C609 C 0.37317 0.88401 0.76504 0.0
C610 C 0.35982 0.85234 0.57701 0.0
O611 O 0.41925 0.89325 0.47422 0.0
O612 O 0.43003 0.8873 0.37305 0.0
O613 O 0.3917 0.95088 0.40314 0.0
O614 O 0.35863 0.92747 0.47358 0.0
C615 C 0.43993 0.88961 0.43212 0.0
O616 O 0.41917 0.92163 0.25502 0.0
O617 O 0.37522 0.9488 0.24757 0.0
O618 O 0.33341 0.90943 0.31896 0.0
O619 O 0.32513 0.87242 0.40398 0.0
O620 O 0.37874 0.83516 0.41231 0.0
O621 O 0.37793 0.85962 0.31 0.0
C622 C 0.37571 0.95222 0.45373 0.0
O623 O 0.33865 0.86865 0.53903 0.0
O624 O 0.38511 0.84663 0.54856 0.0
C625 C 0.39489 0.93478 0.15228 0.0
C626 C 0.38716 0.9204 1.02448 0.0
C627 C 0.40644 0.94652 0.04251 0.0
C628 C 0.41023 0.95368 0.10596 0.0
C629 C 0.37535 0.90882 0.1342 0.0
C630 C 0.37146 0.90174 0.0707 0.0
C631 C 0.4002 0.9417 0.21931 0.0
H632 H 0.35884 0.83483 0.79496 0.0
H633 H 0.35161 0.81689 0.68726 0.0
H634 H 0.37946 0.91257 0.61131 0.0
H635 H 0.38662 0.93054 0.71928 0.0
H636 H 0.41873 0.96116 1.00753 0.0
H637 H 0.4254 0.97379 0.11898 0.0
H638 H 0.36338 0.89389 0.16928 0.0
H639 H 0.35654 0.88146 0.05767 0.0
C640 C 0.15491 0.6009 0.70395 0.0
C641 C 0.13928 0.6295 0.71946 0.0
C642 C 0.11518 0.63795 0.60997 0.0
C643 C 0.13284 0.61092 0.59319 0.0
N644 N 0.17286 0.56931 0.62175 0.0
N645 N 0.10772 0.67773 0.68613 0.0
C646 C 0.15358 0.59305 0.63963 0.0
C647 C 0.12033 0.64874 0.67206 0.0
N648 N 0.17057 0.5809 0.75101 0.0
N649 N 0.09256 0.65254 0.56719 0.0
H650 H 0.11006 0.68589 0.73142 0.0
H651 H 0.09689 0.69482 0.65221 0.0
H652 H 0.08809 0.64539 0.5214 0.0
H653 H 0.07644 0.66989 0.57842 0.0
H654 H 0.17935 0.55781 0.7443 0.0
H655 H 0.1728 0.58631 0.79821 0.0
H656 H 0.19093 0.55775 0.65161 0.0
H657 H 0.17253 0.56287 0.57529 0.0
C658 C 0.65844 0.88148 0.96084 0.0
C659 C 0.64157 0.9105 0.96974 0.0
C660 C 0.63416 0.92302 0.85443 0.0
C661 C 0.65293 0.89524 0.84578 0.0
N662 N 0.68871 0.85222 0.89123 0.0
N663 N 0.61926 0.96245 0.92595 0.0
C664 C 0.66682 0.87573 0.89921 0.0
C665 C 0.6312 0.93236 0.91673 0.0
N666 N 0.6653 0.85867 1.01072 0.0
N667 N 0.61806 0.93972 0.80337 0.0
H668 H 0.61704 0.97024 0.97084 0.0
H669 H 0.61439 0.98078 0.88952 0.0
H670 H 0.61938 0.93357 0.75708 0.0
H671 H 0.6013 0.95789 0.80731 0.0
H672 H 0.67438 0.83548 1.00573 0.0
H673 H 0.65939 0.86173 0.05648 0.0
H674 H 0.70213 0.83959 0.92874 0.0
H675 H 0.69568 0.84752 0.84695 0.0
C676 C 0.3869 0.36683 0.21581 0.0
C677 C 0.36218 0.38594 0.23584 0.0
C678 C 0.35589 0.41595 0.13046 0.0
C679 C 0.3787 0.39496 0.10897 0.0
N680 N 0.41279 0.34747 0.12811 0.0
N681 N 0.32007 0.4256 0.21058 0.0
C682 C 0.39338 0.36959 0.15088 0.0
C683 C 0.34584 0.4097 0.19267 0.0
N684 N 0.40478 0.34669 0.25932 0.0
N685 N 0.34452 0.44245 0.09197 0.0
H686 H 0.31231 0.42203 0.2559 0.0
H687 H 0.30493 0.44041 0.17939 0.0
H688 H 0.35107 0.44763 0.04601 0.0
H689 H 0.33059 0.46075 0.10704 0.0
H690 H 0.42532 0.33487 0.24935 0.0
H691 H 0.40057 0.34382 0.30708 0.0
H692 H 0.42142 0.32628 0.15432 0.0
H693 H 0.41832 0.34886 0.0811 0.0
C694 C 0.87681 0.0943 0.43416 0.0
C695 C 0.88724 0.11903 0.47384 0.0
C696 C 0.89012 0.15842 0.38135 0.0
C697 C 0.87736 0.13446 0.34205 0.0
N698 N 0.85433 0.08117 0.33071 0.0
N699 N 0.89954 0.17565 0.48752 0.0
C700 C 0.86956 0.10277 0.36835 0.0
C701 C 0.89262 0.15143 0.44807 0.0
N702 N 0.87448 0.06263 0.45927 0.0
N703 N 0.90096 0.18741 0.35469 0.0
H704 H 0.90236 0.17133 0.53667 0.0
H705 H 0.90008 0.20042 0.47204 0.0
H706 H 0.8996 0.19345 0.30595 0.0
H707 H 0.91369 0.20438 0.38031 0.0
H708 H 0.87053 0.04282 0.43204 0.0
H709 H 0.87871 0.05574 0.50754 0.0
H710 H 0.84497 0.05901 0.34802 0.0
H711 H 0.84882 0.08646 0.28226 0.0
C712 C 0.15881 0.4149 0.36741 0.0
C713 C 0.14424 0.38727 0.341 0.0
C714 C 0.11953 0.37331 0.44061 0.0
C715 C 0.13205 0.40233 0.46508 0.0
N716 N 0.15958 0.45345 0.4484 0.0
N717 N 0.1066 0.3432 0.34835 0.0
C718 C 0.15058 0.42389 0.42746 0.0
C719 C 0.12346 0.36729 0.37656 0.0
N720 N 0.18138 0.43191 0.33605 0.0
N721 N 0.10462 0.35099 0.47924 0.0
H722 H 0.10879 0.33807 0.3017 0.0
H723 H 0.0885 0.33015 0.36916 0.0
H724 H 0.10099 0.35468 0.52604 0.0
H725 H 0.09813 0.32772 0.46674 0.0
H726 H 0.1954 0.44997 0.35568 0.0
H727 H 0.18798 0.42616 0.2921 0.0
H728 H 0.16996 0.47187 0.42045 0.0
H729 H 0.15435 0.46069 0.49227 0.0
C730 C 0.85855 0.92089 0.70475 0.0
C731 C 0.86108 0.88939 0.73815 0.0
C732 C 0.88218 0.86698 0.64639 0.0
C733 C 0.87725 0.89783 0.61127 0.0
N734 N 0.85648 0.95295 0.60322 0.0
N735 N 0.87043 0.83131 0.73823 0.0
C736 C 0.86424 0.92449 0.63944 0.0
C737 C 0.87154 0.86209 0.70821 0.0
N738 N 0.85162 0.94752 0.736 0.0
N739 N 0.898 0.84265 0.62144 0.0
H740 H 0.86306 0.82675 0.78369 0.0
H741 H 0.8743 0.81003 0.7163 0.0
H742 H 0.906 0.8452 0.57623 0.0
H743 H 0.90552 0.82095 0.64726 0.0
H744 H 0.85284 0.97159 0.7164 0.0
H745 H 0.84701 0.94575 0.78358 0.0
H746 H 0.8438 0.97202 0.61898 0.0
H747 H 0.86049 0.95653 0.55543 0.0
C748 C 0.35392 0.61228 0.86824 0.0
C749 C 0.37246 0.63654 0.83723 0.0
C750 C 0.40316 0.64468 0.93748 0.0
C751 C 0.38302 0.6223 0.96924 0.0
N752 N 0.33695 0.58766 0.96757 0.0
N753 N 0.4118 0.67908 0.84212 0.0
C754 C 0.35774 0.60685 0.93534 0.0
C755 C 0.39632 0.65364 0.8718 0.0
N756 N 0.33325 0.59389 0.83327 0.0
N757 N 0.42929 0.6567 0.96989 0.0
H758 H 0.40788 0.68597 0.79381 0.0
H759 H 0.42682 0.69496 0.86591 0.0
H760 H 0.43472 0.65124 1.01832 0.0
H761 H 0.44691 0.6701 0.94821 0.0
H762 H 0.32155 0.57345 0.85215 0.0
H763 H 0.32949 0.59757 0.78413 0.0
H764 H 0.31603 0.57861 0.94656 0.0
H765 H 0.33942 0.58263 1.01659 0.0
C766 C 0.63956 0.08526 0.14981 0.0
C767 C 0.63693 0.10994 0.09868 0.0
C768 C 0.63956 0.15255 0.17362 0.0
C769 C 0.64456 0.12799 0.22469 0.0
N770 N 0.65444 0.07133 0.26143 0.0
N771 N 0.63955 0.16691 0.06069 0.0
C772 C 0.64596 0.09439 0.21279 0.0
C773 C 0.63849 0.14356 0.11029 0.0
N774 N 0.63518 0.05315 0.13824 0.0
N775 N 0.63452 0.18434 0.18567 0.0
H776 H 0.63825 0.16132 1.0136 0.0
H777 H 0.64432 0.1915 0.06627 0.0
H778 H 0.63486 0.19191 0.23133 0.0
H779 H 0.62731 0.20275 0.15076 0.0
H780 H 0.63313 0.03433 0.17368 0.0
H781 H 0.63131 0.0455 0.09269 0.0
H782 H 0.65913 0.04692 0.25504 0.0
H783 H 0.65937 0.07708 0.30805 0.0
C784 C 0.85839 0.37258 0.37792 0.0
C785 C 0.87093 0.39285 0.32866 0.0
C786 C 0.88786 0.43262 0.40474 0.0
C787 C 0.87854 0.41065 0.45495 0.0
N788 N 0.8602 0.35692 0.49047 0.0
N789 N 0.90327 0.43891 0.29729 0.0
C790 C 0.8652 0.37983 0.44188 0.0
C791 C 0.88722 0.42204 0.34263 0.0
N792 N 0.83919 0.34691 0.36357 0.0
N793 N 0.89653 0.4639 0.41603 0.0
H794 H 0.90435 0.43114 0.25209 0.0
H795 H 0.91804 0.45863 0.30633 0.0
H796 H 0.89692 0.47265 0.46075 0.0
H797 H 0.90038 0.482 0.38015 0.0
H798 H 0.82666 0.33345 0.3969 0.0
H799 H 0.83347 0.3409 0.31734 0.0
H800 H 0.85382 0.33282 0.48364 0.0
H801 H 0.86523 0.36104 0.53795 0.0
C802 C 0.36847 0.08792 0.21808 0.0
C803 C 0.37048 0.1208 0.23489 0.0
C804 C 0.38238 0.13924 0.12635 0.0
C805 C 0.3826 0.10616 0.11088 0.0
N806 N 0.38057 0.04853 0.14395 0.0
N807 N 0.38463 0.17703 0.20864 0.0
C808 C 0.37702 0.08034 0.1574 0.0
C809 C 0.3789 0.14628 0.18994 0.0
N810 N 0.35725 0.06412 0.25928 0.0
N811 N 0.38469 0.16402 0.07979 0.0
H812 H 0.38243 0.18311 0.25473 0.0
H813 H 0.39416 0.19582 0.18019 0.0
H814 H 0.38789 0.15987 0.03302 0.0
H815 H 0.381 0.18861 0.08626 0.0
H816 H 0.35193 0.04045 0.24748 0.0
H817 H 0.35084 0.06868 0.30404 0.0
H818 H 0.38038 0.02863 0.17771 0.0
H819 H 0.38617 0.04207 0.09976 0.0
C820 C 0.62213 0.65462 0.919 0.0
C821 C 0.6347 0.62794 0.96037 0.0
C822 C 0.66592 0.61046 0.87646 0.0
C823 C 0.65125 0.63544 0.83365 0.0
N824 N 0.61231 0.67862 0.81098 0.0
N825 N 0.66517 0.57781 0.97691 0.0
C826 C 0.62849 0.65681 0.85408 0.0
C827 C 0.65575 0.60514 0.93869 0.0
N828 N 0.60488 0.67842 0.94229 0.0
N829 N 0.69012 0.59234 0.85803 0.0
H830 H 0.6585 0.57325 1.02292 0.0
H831 H 0.67758 0.55841 0.96164 0.0
H832 H 0.69779 0.59515 0.81254 0.0
H833 H 0.70422 0.5763 0.88891 0.0
H834 H 0.59796 0.70031 0.91645 0.0
H835 H 0.59961 0.67758 0.98943 0.0
H836 H 0.59292 0.69227 0.82123 0.0
H837 H 0.61666 0.68132 0.76329 0.0
C838 C 0.10789 0.85971 0.63836 0.0
C839 C 0.12426 0.88656 0.60983 0.0
C840 C 0.15204 0.89596 0.71244 0.0
C841 C 0.1337 0.87092 0.74174 0.0
N842 N 0.09121 0.8318 0.73507 0.0
N843 N 0.15865 0.93314 0.61963 0.0
C844 C 0.11081 0.85352 0.70535 0.0
C845 C 0.14548 0.9055 0.64686 0.0
N846 N 0.09022 0.83963 0.60119 0.0
N847 N 0.17631 0.90998 0.74701 0.0
H848 H 0.15482 0.94058 0.57152 0.0
H849 H 0.17143 0.95006 0.64528 0.0
H850 H 0.18157 0.90392 0.79532 0.0
H851 H 0.19279 0.92572 0.72713 0.0
H852 H 0.08055 0.81761 0.61839 0.0
H853 H 0.08723 0.84363 0.552 0.0
H854 H 0.07173 0.82105 0.71202 0.0
H855 H 0.09292 0.82635 0.78399 0.0
C856 C 0.84888 0.63685 0.67389 0.0
C857 C 0.86032 0.61569 0.72711 0.0
C858 C 0.87941 0.5771 0.65604 0.0
C859 C 0.87126 0.59998 0.60332 0.0
N860 N 0.85302 0.65418 0.56322 0.0
N861 N 0.89152 0.56852 0.76952 0.0
C862 C 0.8572 0.63055 0.61251 0.0
C863 C 0.87694 0.58653 0.71838 0.0
N864 N 0.82943 0.66257 0.68179 0.0
N865 N 0.88874 0.54607 0.64648 0.0
H866 H 0.89104 0.57528 0.81558 0.0
H867 H 0.90656 0.54878 0.76582 0.0
H868 H 0.89047 0.53819 0.60151 0.0
H869 H 0.89184 0.52731 0.68265 0.0
H870 H 0.81756 0.67669 0.64419 0.0
H871 H 0.82291 0.66806 0.72596 0.0
H872 H 0.84616 0.67814 0.56863 0.0
H873 H 0.85911 0.65078 0.51771 0.0
C874 C 0.12034 0.1469 0.42233 0.0
C875 C 0.13435 0.12089 0.46356 0.0
C876 C 0.1667 0.10571 0.37944 0.0
C877 C 0.15097 0.13015 0.33687 0.0
N878 N 0.10964 0.17089 0.31444 0.0
N879 N 0.16739 0.07252 0.47957 0.0
C880 C 0.12689 0.1499 0.35743 0.0
C881 C 0.1566 0.09944 0.44158 0.0
N882 N 0.10148 0.16931 0.44571 0.0
N883 N 0.19195 0.08916 0.36101 0.0
H884 H 0.16088 0.06738 0.52557 0.0
H885 H 0.18081 0.05393 0.4641 0.0
H886 H 0.19973 0.09275 0.3157 0.0
H887 H 0.20672 0.07373 0.39178 0.0
H888 H 0.0934 0.19088 0.42014 0.0
H889 H 0.09582 0.16765 0.49266 0.0
H890 H 0.08949 0.18331 0.3247 0.0
H891 H 0.11397 0.17402 0.26677 0.0
C892 C 0.60267 0.36847 0.20712 0.0
C893 C 0.63165 0.37878 0.23738 0.0
C894 C 0.64718 0.40457 0.13652 0.0
C895 C 0.61939 0.39196 0.1055 0.0
N896 N 0.57302 0.35776 0.10869 0.0
N897 N 0.68349 0.40266 0.23113 0.0
C898 C 0.59773 0.37277 0.14011 0.0
C899 C 0.65451 0.39574 0.20213 0.0
N900 N 0.57959 0.35529 0.24264 0.0
N901 N 0.666 0.4258 0.1036 0.0
H902 H 0.68944 0.39715 0.2794 0.0
H903 H 0.70245 0.41164 0.2068 0.0
H904 H 0.66149 0.43263 0.05538 0.0
H905 H 0.68466 0.43864 0.1248 0.0
H906 H 0.55662 0.35075 0.22409 0.0
H907 H 0.58257 0.35119 0.29182 0.0
H908 H 0.55846 0.34057 0.13055 0.0
H909 H 0.56853 0.36041 0.05959 0.0
C910 C 0.40673 0.89095 0.93568 0.0
C911 C 0.38404 0.912 0.95732 0.0
C912 C 0.35373 0.91417 0.85338 0.0
C913 C 0.37738 0.89466 0.83067 0.0
N914 N 0.42896 0.86902 0.84619 0.0
N915 N 0.33872 0.94786 0.93501 0.0
C916 C 0.40464 0.88434 0.87076 0.0
C917 C 0.35835 0.92488 0.91555 0.0
N918 N 0.42984 0.8766 0.97765 0.0
N919 N 0.32632 0.92147 0.81628 0.0
H920 H 0.34098 0.95571 0.98056 0.0
H921 H 0.32176 0.96099 0.90488 0.0
H922 H 0.32223 0.91442 0.77035 0.0
H923 H 0.30665 0.93239 0.83239 0.0
H924 H 0.44483 0.85811 0.96677 0.0
H925 H 0.43264 0.88147 1.02513 0.0
H926 H 0.4509 0.86402 0.87089 0.0
H927 H 0.4282 0.86367 0.79901 0.0
C928 C 0.0943 0.7298 0.23312 0.0
C929 C 0.1242 0.71398 0.23419 0.0
C930 C 0.15047 0.76506 0.26133 0.0
C931 C 0.12155 0.78232 0.24484 0.0
N932 N 0.06503 0.78118 0.21865 0.0
N933 N 0.18077 0.71501 0.25775 0.0
C934 C 0.09301 0.76464 0.23352 0.0
C935 C 0.15229 0.73112 0.2518 0.0
N936 N 0.06721 0.71166 0.23112 0.0
N937 N 0.17611 0.78149 0.28594 0.0
H938 H 0.18249 0.68969 0.25626 0.0
H939 H 0.20262 0.72663 0.26249 0.0
H940 H 0.17483 0.8062 0.29438 0.0
H941 H 0.19749 0.77029 0.30323 0.0
H942 H 0.04489 0.72128 0.23622 0.0
H943 H 0.06732 0.68627 0.23033 0.0
H944 H 0.04424 0.77018 0.20158 0.0
H945 H 0.06282 0.80638 0.22068 0.0
C946 C 0.5274 0.8706 0.4823 0.0
C947 C 0.54223 0.89551 0.44442 0.0
C948 C 0.48986 0.92021 0.41013 0.0
C949 C 0.47488 0.89468 0.44604 0.0
N950 N 0.47919 0.84961 0.52624 0.0
N951 N 0.53796 0.94765 0.38209 0.0
C952 C 0.49367 0.87136 0.48586 0.0
C953 C 0.52351 0.92139 0.41147 0.0
N954 N 0.54523 0.84498 0.51131 0.0
N955 N 0.47169 0.94296 0.3727 0.0
H956 H 0.56227 0.94909 0.3788 0.0
H957 H 0.52635 0.96937 0.36505 0.0
H958 H 0.4474 0.94538 0.37537 0.0
H959 H 0.48025 0.95868 0.33712 0.0
H960 H 0.53575 0.82409 0.53365 0.0
H961 H 0.56973 0.84353 0.50974 0.0
H962 H 0.49137 0.83396 0.56097 0.0
H963 H 0.45468 0.84895 0.52834 0.0
C964 C 0.40437 0.26849 0.73052 0.0
C965 C 0.37475 0.28454 0.73204 0.0
C966 C 0.34896 0.23057 0.73859 0.0
C967 C 0.37717 0.21574 0.72286 0.0
N968 N 0.43073 0.22229 0.69337 0.0
N969 N 0.31791 0.2804 0.73476 0.0
C970 C 0.40485 0.23498 0.71715 0.0
C971 C 0.34678 0.26538 0.73601 0.0
N972 N 0.43202 0.28522 0.73987 0.0
N973 N 0.32432 0.21135 0.75638 0.0
H974 H 0.3153 0.30571 0.73432 0.0
H975 H 0.29649 0.26795 0.72997 0.0
H976 H 0.3257 0.18583 0.76016 0.0
H977 H 0.30408 0.22052 0.77361 0.0
H978 H 0.45416 0.27373 0.74475 0.0
H979 H 0.43282 0.30982 0.74885 0.0
H980 H 0.45046 0.2362 0.68233 0.0
H981 H 0.43089 0.19886 0.67784 0.0
C982 C 0.99977 0.1681 0.95439 0.0
C983 C 0.98309 0.13835 0.96521 0.0
C984 C 0.03375 0.10821 0.98021 0.0
C985 C 0.0497 0.13686 0.95798 0.0
N986 N 0.04872 0.1948 0.92687 0.0
N987 N 0.98368 0.07986 0.98905 0.0
C988 C 0.03305 0.16721 0.94718 0.0
C989 C 1.00002 0.1084 0.97954 0.0
N990 N 0.98347 0.19709 0.9505 0.0
N991 N 0.05106 0.08099 1.00283 0.0
H992 H 0.95917 0.07934 0.99123 0.0
H993 H 0.99407 0.0567 0.99176 0.0
H994 H 0.07576 0.08064 1.00531 0.0
H995 H 0.04139 0.06004 1.02465 0.0
H996 H 0.9941 0.22003 0.94735 0.0
H997 H 0.95918 0.19809 0.95575 0.0
H998 H 0.03758 0.21695 0.91104 0.0
H999 H 0.07313 0.19524 0.92336 0.0
C1000 C 0.10567 0.27851 0.82422 0.0
C1001 C 0.13401 0.29691 0.83174 0.0
C1002 C 0.16577 0.2472 0.82858 0.0
C1003 C 0.13766 0.22813 0.82725 0.0
N1004 N 0.08097 0.22654 0.80271 0.0
N1005 N 0.18907 0.30111 0.8134 0.0
C1006 C 0.10761 0.24412 0.81749 0.0
C1007 C 0.16347 0.28191 0.82485 0.0
N1008 N 0.07704 0.29344 0.82683 0.0
N1009 N 0.19477 0.23209 0.83607 0.0
H1010 H 0.18729 0.3266 0.80758 0.0
H1011 H 0.21074 0.29198 0.80248 0.0
H1012 H 0.19756 0.2068 0.83617 0.0
H1013 H 0.21595 0.24442 0.84549 0.0
H1014 H 0.05584 0.28081 0.83066 0.0
H1015 H 0.07453 0.31869 0.8274 0.0
H1016 H 0.05886 0.23716 0.78922 0.0
H1017 H 0.08125 0.20142 0.7985 0.0
C1018 C 0.01267 0.91292 0.09743 0.0
C1019 C 0.02916 0.88238 0.10048 0.0
C1020 C 0.97755 0.8544 0.08898 0.0
C1021 C 0.96204 0.88361 0.10052 0.0
N1022 N 0.96297 0.94201 0.10177 0.0
N1023 N 0.02681 0.82358 0.09585 0.0
C1024 C 0.97909 0.91336 0.09947 0.0
C1025 C 0.01148 0.85303 0.09356 0.0
N1026 N 0.02932 0.94154 0.09285 0.0
N1027 N 0.95967 0.82822 0.07263 0.0
H1028 H 0.05135 0.82132 0.09772 0.0
H1029 H 0.01525 0.80112 0.09911 0.0
H1030 H 0.93493 0.82935 0.06791 0.0
H1031 H 0.96908 0.80695 0.0578 0.0
H1032 H 0.01901 0.9647 0.08444 0.0
H1033 H 0.05391 0.9422 0.09366 0.0
H1034 H 0.97346 0.96435 0.1104 0.0
H1035 H 0.93842 0.94314 0.09413 0.0
C1036 C 0.34952 0.74723 0.32247 0.0
C1037 C 0.37874 0.73132 0.31755 0.0
C1038 C 0.4051 0.78501 0.30995 0.0
C1039 C 0.37718 0.79989 0.32768 0.0
N1040 N 0.32236 0.79517 0.3503 0.0
N1041 N 0.43403 0.73426 0.30113 0.0
C1042 C 0.34909 0.7811 0.3325 0.0
C1043 C 0.40635 0.75013 0.30821 0.0
N1044 N 0.32221 0.72952 0.31891 0.0
N1045 N 0.43052 0.80416 0.29649 0.0
H1046 H 0.43487 0.70904 0.29708 0.0
H1047 H 0.45604 0.74558 0.30096 0.0
H1048 H 0.43034 0.82951 0.29864 0.0
H1049 H 0.45087 0.79547 0.27898 0.0
H1050 H 0.2996 0.73982 0.3158 0.0
H1051 H 0.32231 0.70458 0.31293 0.0
H1052 H 0.30242 0.78209 0.36287 0.0
H1053 H 0.32069 0.82003 0.35573 0.0
C1054 C 0.51781 0.11647 0.56942 0.0
C1055 C 0.53701 0.13487 0.61165 0.0
C1056 C 0.49011 0.14846 0.66483 0.0
C1057 C 0.4705 0.13069 0.62251 0.0
N1058 N 0.46457 0.1031 0.52666 0.0
N1059 N 0.53883 0.17861 0.68065 0.0
C1060 C 0.48399 0.11668 0.57177 0.0
C1061 C 0.52215 0.15431 0.65289 0.0
N1062 N 0.53177 0.0976 0.52945 0.0
N1063 N 0.47887 0.15827 0.71864 0.0
H1064 H 0.56206 0.18424 0.67071 0.0
H1065 H 0.52844 0.19538 0.70709 0.0
H1066 H 0.45587 0.15363 0.73083 0.0
H1067 H 0.49333 0.16835 0.75402 0.0
H1068 H 0.51955 0.0805 0.50331 0.0
H1069 H 0.55602 0.09801 0.52441 0.0
H1070 H 0.4724 0.09511 0.4854 0.0
H1071 H 0.44004 0.10203 0.52843 0.0
C1072 C 0.85347 0.24625 0.8153 0.0
C1073 C 0.88328 0.23085 0.81694 0.0
C1074 C 0.9084 0.28511 0.81623 0.0
C1075 C 0.87913 0.29907 0.82949 0.0
N1076 N 0.82493 0.28986 0.85478 0.0
N1077 N 0.9399 0.23519 0.81794 0.0
C1078 C 0.85177 0.27898 0.83168 0.0
C1079 C 0.91103 0.25026 0.81564 0.0
N1080 N 0.82672 0.22893 0.80077 0.0
N1081 N 0.93381 0.30493 0.8066 0.0
H1082 H 0.94214 0.20996 0.8154 0.0
H1083 H 0.96137 0.24734 0.82495 0.0
H1084 H 0.9327 0.33029 0.80837 0.0
H1085 H 0.95508 0.2966 0.79223 0.0
H1086 H 0.8042 0.2396 0.79449 0.0
H1087 H 0.82787 0.20482 0.78836 0.0
H1088 H 0.80551 0.27485 0.86276 0.0
H1089 H 0.82322 0.31282 0.87181 0.0
C1090 C 0.66285 0.77986 0.38044 0.0
C1091 C 0.63802 0.79978 0.34826 0.0
C1092 C 0.6139 0.75055 0.30537 0.0
C1093 C 0.6388 0.73112 0.33798 0.0
N1094 N 0.69182 0.72881 0.38836 0.0
N1095 N 0.59341 0.80516 0.26998 0.0
C1096 C 0.66491 0.74645 0.36898 0.0
C1097 C 0.6149 0.7855 0.30663 0.0
N1098 N 0.68374 0.79215 0.42484 0.0
N1099 N 0.58847 0.73549 0.27672 0.0
H1100 H 0.59282 0.83053 0.27168 0.0
H1101 H 0.57774 0.79668 0.23475 0.0
H1102 H 0.58763 0.71018 0.27382 0.0
H1103 H 0.56772 0.74771 0.25864 0.0
H1104 H 0.69914 0.77751 0.45592 0.0
H1105 H 0.68443 0.81659 0.4342 0.0
H1106 H 0.71303 0.73941 0.40455 0.0
H1107 H 0.69386 0.70405 0.38201 0.0
C1108 C 0.89689 0.73705 0.1812 0.0
C1109 C 0.87631 0.71656 0.21632 0.0
C1110 C 0.85868 0.76488 0.26656 0.0
C1111 C 0.87915 0.78482 0.23037 0.0
N1112 N 0.92702 0.78717 0.17742 0.0
N1113 N 0.84258 0.70972 0.30248 0.0
C1114 C 0.90131 0.76988 0.19576 0.0
C1115 C 0.85902 0.73003 0.26288 0.0
N1116 N 0.91116 0.726 0.13162 0.0
N1117 N 0.83829 0.77929 0.30244 0.0
H1118 H 0.84153 0.68445 0.29952 0.0
H1119 H 0.83167 0.71753 0.34073 0.0
H1120 H 0.83924 0.80423 0.30907 0.0
H1121 H 0.82004 0.7669 0.32399 0.0
H1122 H 0.92356 0.74137 0.10087 0.0
H1123 H 0.90862 0.7023 0.1177 0.0
H1124 H 0.94581 0.77634 0.15793 0.0
H1125 H 0.93114 0.81115 0.18922 0.0
C1126 C 0.6618 0.23777 0.7139 0.0
C1127 C 0.63712 0.21771 0.73563 0.0
C1128 C 0.61181 0.26679 0.76958 0.0
C1129 C 0.6327 0.28689 0.73444 0.0
N1130 N 0.6752 0.29006 0.66426 0.0
N1131 N 0.58883 0.21252 0.78779 0.0
C1132 C 0.65733 0.27203 0.70494 0.0
C1133 C 0.61245 0.23194 0.76593 0.0
N1134 N 0.68954 0.22394 0.70073 0.0
N1135 N 0.59076 0.28109 0.80428 0.0
H1136 H 0.58933 0.18708 0.78744 0.0
H1137 H 0.56823 0.22158 0.80372 0.0
H1138 H 0.58945 0.30642 0.80626 0.0
H1139 H 0.57647 0.2679 0.83475 0.0
H1140 H 0.70952 0.2376 0.69025 0.0
H1141 H 0.6936 0.19885 0.70793 0.0
H1142 H 0.69052 0.27952 0.63563 0.0
H1143 H 0.67306 0.3153 0.65502 0.0
C1144 C 0.98977 0.35471 0.94984 0.0
C1145 C 0.97384 0.38484 0.954 0.0
C1146 C 0.02532 0.41269 0.96538 0.0
C1147 C 0.04083 0.38396 0.95015 0.0
N1148 N 0.03861 0.32641 0.9338 0.0
N1149 N 0.97585 0.44245 0.9684 0.0
C1150 C 0.02334 0.35441 0.94531 0.0
C1151 C 0.99152 0.41372 0.96361 0.0
N1152 N 0.97249 0.32646 0.95021 0.0
N1153 N 0.04314 0.43866 0.98348 0.0
H1154 H 0.95143 0.44353 0.97149 0.0
H1155 H 0.98671 0.46529 0.96705 0.0
H1156 H 0.06784 0.43799 0.98749 0.0
H1157 H 0.03383 0.45943 1.00039 0.0
H1158 H 0.98224 0.30308 0.95172 0.0
H1159 H 0.94805 0.32628 0.9539 0.0
H1160 H 0.02719 0.30491 0.92256 0.0
H1161 H 0.06315 0.32481 0.93373 0.0
C1162 C 0.49395 0.67039 0.43949 0.0
C1163 C 0.47828 0.64161 0.46195 0.0
C1164 C 0.53039 0.61624 0.49502 0.0
C1165 C 0.54539 0.64161 0.45906 0.0
N1166 N 0.54189 0.69488 0.40159 0.0
N1167 N 0.48196 0.58561 0.50695 0.0
C1168 C 0.52727 0.6695 0.43322 0.0
C1169 C 0.49659 0.61432 0.48993 0.0
N1170 N 0.47681 0.69863 0.42455 0.0
N1171 N 0.54821 0.59388 0.53371 0.0
H1172 H 0.45746 0.58294 0.50152 0.0
H1173 H 0.49424 0.56384 0.52108 0.0
H1174 H 0.57289 0.59449 0.53854 0.0
H1175 H 0.5384 0.57669 0.56527 0.0
H1176 H 0.48693 0.72128 0.41288 0.0
H1177 H 0.45255 0.69989 0.42984 0.0
H1178 H 0.52971 0.71395 0.37454 0.0
H1179 H 0.56647 0.69626 0.40082 0.0
C1180 C 0.47709 0.40636 0.5775 0.0
C1181 C 0.46132 0.37799 0.60211 0.0
C1182 C 0.51182 0.34764 0.61372 0.0
C1183 C 0.52793 0.37676 0.59434 0.0
N1184 N 0.52504 0.42968 0.5368 0.0
N1185 N 0.46173 0.31929 0.6231 0.0
C1186 C 0.51019 0.40477 0.56902 0.0
C1187 C 0.47806 0.34777 0.61306 0.0
N1188 N 0.46056 0.43505 0.56394 0.0
N1189 N 0.5291 0.32022 0.6353 0.0
H1190 H 0.43712 0.31864 0.62285 0.0
H1191 H 0.47215 0.29614 0.62592 0.0
H1192 H 0.55352 0.31882 0.63208 0.0
H1193 H 0.51957 0.29945 0.6581 0.0
H1194 H 0.47116 0.45759 0.55351 0.0
H1195 H 0.43604 0.43637 0.56534 0.0
H1196 H 0.51321 0.44984 0.51268 0.0
H1197 H 0.54901 0.42844 0.52906 0.0
C1198 C 0.01702 0.65537 0.114 0.0
C1199 C 0.03281 0.62582 0.10466 0.0
C1200 C 0.98062 0.5991 0.09128 0.0
C1201 C 0.96583 0.62673 0.1127 0.0
N1202 N 0.97238 0.67841 0.15899 0.0
N1203 N 0.02927 0.56787 0.09142 0.0
C1204 C 0.9846 0.65432 0.12737 0.0
C1205 C 0.01445 0.59724 0.09456 0.0
N1206 N 0.03305 0.68433 0.1124 0.0
N1207 N 0.96243 0.5742 0.06958 0.0
H1208 H 0.05383 0.56535 0.09432 0.0
H1209 H 0.01732 0.54563 0.09105 0.0
H1210 H 0.93778 0.57456 0.06816 0.0
H1211 H 0.97158 0.55479 0.04791 0.0
H1212 H 0.02176 0.70688 0.11331 0.0
H1213 H 0.05694 0.68616 0.10425 0.0
H1214 H 0.98592 0.69756 0.17602 0.0
H1215 H 0.94977 0.67706 0.17487 0.0
C1216 C 0.10911 0.53223 1.00743 0.0
C1217 C 0.13004 0.53338 0.06376 0.0
C1218 C 0.15699 0.48382 0.03574 0.0
C1219 C 0.13421 0.48101 0.9834 0.0
N1220 N 0.08589 0.5001 0.92454 0.0
N1221 N 0.17234 0.50796 0.13405 0.0
C1222 C 0.10967 0.50467 0.97042 0.0
C1223 C 0.15331 0.5083 0.07891 0.0
N1224 N 0.08883 0.55778 0.98822 0.0
N1225 N 0.18318 0.4639 0.04231 0.0
H1226 H 0.17229 0.52644 0.16479 0.0
H1227 H 0.18678 0.48817 0.15171 0.0
H1228 H 0.1873 0.4468 1.01015 0.0
H1229 H 0.20236 0.46647 0.07537 0.0
H1230 H 0.07667 0.5606 0.94353 0.0
H1231 H 0.08537 0.57738 1.01506 0.0
H1232 H 0.065 0.51382 0.91853 0.0
H1233 H 0.08588 0.48089 0.89529 0.0
C1234 C 0.74751 0.91871 0.31811 0.0
C1235 C 0.72892 0.89029 0.32992 0.0
C1236 C 0.76555 0.85918 0.27162 0.0
C1237 C 0.78232 0.88838 0.25496 0.0
N1238 N 0.78343 0.94746 0.24997 0.0
N1239 N 0.71675 0.83507 0.3047 0.0
C1240 C 0.77162 0.91856 0.27485 0.0
C1241 C 0.73706 0.86092 0.30321 0.0
N1242 N 0.74271 0.94579 0.34963 0.0
N1243 N 0.77717 0.82947 0.25936 0.0
H1244 H 0.69555 0.83563 0.32578 0.0
H1245 H 0.71939 0.81449 0.27989 0.0
H1246 H 0.79732 0.8268 0.23535 0.0
H1247 H 0.7682 0.80725 0.27749 0.0
H1248 H 0.75755 0.96611 0.34798 0.0
H1249 H 0.72588 0.94654 0.38266 0.0
H1250 H 0.77443 0.9703 0.25783 0.0
H1251 H 0.7997 0.94858 0.2156 0.0
C1252 C 0.35578 0.48772 0.52009 0.0
C1253 C 0.37597 0.48081 0.57662 0.0
C1254 C 0.39947 0.53537 0.5592 0.0
C1255 C 0.38275 0.54001 0.49825 0.0
N1256 N 0.34791 0.5181 0.41712 0.0
N1257 N 0.42229 0.49609 0.64166 0.0
C1258 C 0.36206 0.5152 0.47738 0.0
C1259 C 0.39931 0.50408 0.594 0.0
N1260 N 0.32928 0.46927 0.50908 0.0
N1261 N 0.41464 0.56106 0.58524 0.0
H1262 H 0.42397 0.47314 0.66683 0.0
H1263 H 0.44163 0.51115 0.65158 0.0
H1264 H 0.41485 0.58447 0.56214 0.0
H1265 H 0.42436 0.55977 0.63201 0.0
H1266 H 0.3123 0.47477 0.47144 0.0
H1267 H 0.32224 0.45093 0.54191 0.0
H1268 H 0.33506 0.49923 0.3973 0.0
H1269 H 0.35141 0.53825 0.38514 0.0
C1270 C 0.76709 0.15454 0.82691 0.0
C1271 C 0.79117 0.13195 0.81597 0.0
C1272 C 0.75513 0.11078 0.73148 0.0
C1273 C 0.7302 0.13085 0.74722 0.0
N1274 N 0.71085 0.16553 0.82235 0.0
N1275 N 0.80365 0.08191 0.76978 0.0
C1276 C 0.73568 0.1508 0.79869 0.0
C1277 C 0.78401 0.10826 0.7713 0.0
N1278 N 0.7741 0.18053 0.86181 0.0
N1279 N 0.75121 0.09378 0.67884 0.0
H1280 H 0.82331 0.07716 0.8021 0.0
H1281 H 0.79823 0.06256 0.74198 0.0
H1282 H 0.73023 0.09461 0.64935 0.0
H1283 H 0.76969 0.08134 0.66154 0.0
H1284 H 0.75808 0.19951 0.86504 0.0
H1285 H 0.79672 0.18524 0.88188 0.0
H1286 H 0.71309 0.17732 0.86405 0.0
H1287 H 0.68758 0.16332 0.80369 0.0
C1288 C 0.88004 0.49959 0.09862 0.0
C1289 C 0.87796 0.53255 0.07232 0.0
C1290 C 0.87602 0.5128 0.9652 0.0
C1291 C 0.88094 0.48011 0.99168 0.0
N1292 N 0.89529 0.44383 0.08513 0.0
N1293 N 0.88212 0.57043 0.97988 0.0
C1294 C 0.88528 0.47399 0.05887 0.0
C1295 C 0.87837 0.5391 1.00541 0.0
N1296 N 0.87512 0.49225 0.1608 0.0
N1297 N 0.86719 0.51889 0.90216 0.0
H1298 H 0.88481 0.59039 1.00705 0.0
H1299 H 0.88602 0.57604 0.9325 0.0
H1300 H 0.86502 0.50058 0.87088 0.0
H1301 H 0.85888 0.54171 0.8824 0.0
H1302 H 0.87206 0.46836 0.18005 0.0
H1303 H 0.87069 0.50997 0.19146 0.0
H1304 H 0.90184 0.43893 0.13325 0.0
H1305 H 0.90025 0.42466 0.05821 0.0
C1306 C 0.23424 0.14763 0.75418 0.0
C1307 C 0.23027 0.12601 0.80935 0.0
C1308 C 0.27897 0.09664 0.78924 0.0
C1309 C 0.28477 0.12043 0.73884 0.0
N1310 N 0.26964 0.17108 0.67833 0.0
N1311 N 0.25051 0.08087 0.88152 0.0
C1312 C 0.26271 0.14643 0.7223 0.0
C1313 C 0.25328 0.10096 0.82769 0.0
N1314 N 0.21068 0.16934 0.73147 0.0
N1315 N 0.29727 0.06886 0.79835 0.0
H1316 H 0.23103 0.08122 0.90833 0.0
H1317 H 0.26848 0.06512 0.90201 0.0
H1318 H 0.31529 0.06423 0.76956 0.0
H1319 H 0.2927 0.04892 0.82983 0.0
H1320 H 0.21015 0.1823 0.68718 0.0
H1321 H 0.19047 0.17304 0.75476 0.0
H1322 H 0.25686 0.19296 0.67028 0.0
H1323 H 0.28971 0.1709 0.65311 0.0
C1324 C 0.59397 0.52402 0.49713 0.0
C1325 C 0.62383 0.53461 0.4769 0.0
C1326 C 0.6504 0.49053 0.54749 0.0
C1327 C 0.62078 0.47999 0.56844 0.0
N1328 N 0.56502 0.49009 0.57215 0.0
N1329 N 0.6786 0.52172 0.46837 0.0
C1330 C 0.59268 0.49762 0.54559 0.0
C1331 C 0.6515 0.51604 0.49823 0.0
N1332 N 0.56675 0.53802 0.46809 0.0
N1333 N 0.67781 0.47705 0.57716 0.0
H1334 H 0.67949 0.5389 0.42956 0.0
H1335 H 0.69883 0.50705 0.47681 0.0
H1336 H 0.67802 0.45908 0.61494 0.0
H1337 H 0.70029 0.48596 0.56909 0.0
H1338 H 0.54419 0.529 0.47494 0.0
H1339 H 0.56654 0.55735 0.43314 0.0
H1340 H 0.54439 0.50409 0.56317 0.0
H1341 H 0.56331 0.47119 0.60757 0.0
C1342 C 0.2765 0.86641 0.26689 0.0
C1343 C 0.28208 0.88497 0.32053 0.0
C1344 C 0.22689 0.90463 0.30379 0.0
C1345 C 0.22034 0.88275 0.25565 0.0
N1346 N 0.2381 0.83752 0.20157 0.0
N1347 N 0.26102 0.91856 0.39505 0.0
C1348 C 0.24493 0.86218 0.23995 0.0
C1349 C 0.25667 0.90286 0.34082 0.0
N1350 N 0.30135 0.8535 0.24009 0.0
N1351 N 0.20542 0.92858 0.31156 0.0
H1352 H 0.2827 0.9186 0.42221 0.0
H1353 H 0.24253 0.92916 0.41579 0.0
H1354 H 0.18453 0.9323 0.28231 0.0
H1355 H 0.20994 0.94707 0.34179 0.0
H1356 H 0.2989 0.84296 0.19705 0.0
H1357 H 0.32473 0.85582 0.25799 0.0
H1358 H 0.25454 0.81957 0.19428 0.0
H1359 H 0.21526 0.83297 0.18211 0.0
C1360 C 0.60711 0.99304 0.51602 0.0
C1361 C 0.63531 0.98558 0.48756 0.0
C1362 C 0.6643 0.02395 0.55409 0.0
C1363 C 0.63552 0.03464 0.57604 0.0
N1364 N 0.57831 0.03226 0.56919 0.0
N1365 N 0.68955 0.9992 0.47142 0.0
C1366 C 0.60655 0.01999 0.55465 0.0
C1367 C 0.66351 1.00272 0.50424 0.0
N1368 N 0.58126 0.9734 0.50935 0.0
N1369 N 0.69263 0.03318 0.58266 0.0
H1370 H 0.6895 0.98461 0.43347 0.0
H1371 H 0.70987 0.01338 0.47738 0.0
H1372 H 0.6941 0.04723 0.62151 0.0
H1373 H 0.71438 0.02384 0.57268 0.0
H1374 H 0.56141 0.97527 0.53474 0.0
H1375 H 0.58091 0.95329 0.48281 0.0
H1376 H 0.55651 0.02515 0.54841 0.0
H1377 H 0.5766 0.05129 0.59828 0.0
C1378 C 0.24908 0.36527 0.84305 0.0
C1379 C 0.22628 0.39052 0.82558 0.0
C1380 C 0.25708 0.40956 0.73524 0.0
C1381 C 0.28108 0.38571 0.75514 0.0
N1382 N 0.30186 0.34402 0.83549 0.0
N1383 N 0.21245 0.44106 0.76341 0.0
C1384 C 0.27765 0.36464 0.81137 0.0
C1385 C 0.23133 0.41372 0.77369 0.0
N1386 N 0.24284 0.3407 0.88777 0.0
N1387 N 0.25901 0.42883 0.68011 0.0
H1388 H 0.19462 0.44588 0.79245 0.0
H1389 H 0.2165 0.46065 0.73073 0.0
H1390 H 0.27842 0.42874 0.6531 0.0
H1391 H 0.24037 0.44346 0.65879 0.0
H1392 H 0.25635 0.31932 0.89662 0.0
H1393 H 0.22253 0.34011 0.91234 0.0
H1394 H 0.30276 0.3319 0.88062 0.0
H1395 H 0.32218 0.34038 0.81251 0.0
C1396 C 0.87827 0.97987 1.01447 0.0
C1397 C 0.88129 0.97952 0.08195 0.0
C1398 C 0.8972 0.0373 0.07098 0.0
C1399 C 0.8888 0.03897 1.00458 0.0
N1400 N 0.86639 0.01208 0.91463 0.0
N1401 N 0.88842 0.01053 0.17374 0.0
C1402 C 0.87816 0.01028 0.97659 0.0
C1403 C 0.88958 0.00891 0.11009 0.0
N1404 N 0.8768 0.95117 0.98598 0.0
N1405 N 0.91303 0.06271 0.09678 0.0
H1406 H 0.88144 0.99095 0.20384 0.0
H1407 H 0.89102 0.03235 0.19556 0.0
H1408 H 0.9199 0.08344 0.06956 0.0
H1409 H 0.92231 0.06163 0.14381 0.0
H1410 H 0.87789 0.95008 0.93745 0.0
H1411 H 0.8781 0.92828 1.01104 0.0
H1412 H 0.85488 0.99261 0.89407 0.0
H1413 H 0.86554 0.03374 0.88516 0.0
C1414 C 0.23575 0.60606 0.29559 0.0
C1415 C 0.22671 0.62763 0.24092 0.0
C1416 C 0.28034 0.65119 0.24962 0.0
C1417 C 0.28736 0.63345 0.30958 0.0
N1418 N 0.26963 0.59639 0.39317 0.0
N1419 N 0.2393 0.67615 0.17512 0.0
C1420 C 0.26424 0.61186 0.33387 0.0
C1421 C 0.24872 0.65169 0.22033 0.0
N1422 N 0.21827 0.57863 0.30875 0.0
N1423 N 0.30395 0.66686 0.2193 0.0
H1424 H 0.21614 0.67866 0.1546 0.0
H1425 H 0.25369 0.69601 0.16323 0.0
H1426 H 0.32743 0.66664 0.2382 0.0
H1427 H 0.30066 0.67731 0.17286 0.0
H1428 H 0.22513 0.56059 0.34468 0.0
H1429 H 0.1991 0.5718 0.27882 0.0
H1430 H 0.25228 0.58303 0.4159 0.0
H1431 H 0.29056 0.59918 0.42167 0.0
C1432 C 0.40674 0.99096 0.52347 0.0
C1433 C 0.37738 0.98124 0.49301 0.0
C1434 C 0.34919 0.0175 0.55748 0.0
C1435 C 0.37854 0.02936 0.58338 0.0
N1436 N 0.43546 0.03042 0.58531 0.0
N1437 N 0.32098 0.9896 0.47353 0.0
C1438 C 0.40735 0.01694 0.5646 0.0
C1439 C 0.34868 0.99566 0.50828 0.0
N1440 N 0.43396 0.97435 0.51584 0.0
N1441 N 0.32169 0.02717 0.58009 0.0
H1442 H 0.3199 0.97481 0.43579 0.0
H1443 H 0.29971 1.00165 0.47772 0.0
H1444 H 0.32128 0.04333 0.61545 0.0
H1445 H 0.29965 0.01706 0.5681 0.0
H1446 H 0.45531 0.97756 0.54254 0.0
H1447 H 0.43482 0.95547 0.48622 0.0
H1448 H 0.45692 0.02581 0.56689 0.0
H1449 H 0.43703 0.04775 0.61868 0.0
C1450 C 0.76467 0.59516 0.26012 0.0
C1451 C 0.77849 0.62447 0.23411 0.0
C1452 C 0.73496 0.65573 0.27237 0.0
C1453 C 0.72422 0.62698 0.3064 0.0
N1454 N 0.73242 0.56976 0.33949 0.0
N1455 N 0.77863 0.68374 0.2246 0.0
C1456 C 0.74011 0.59682 0.30204 0.0
C1457 C 0.76408 0.65508 0.24254 0.0
N1458 N 0.77414 0.56555 0.2427 0.0
N1459 N 0.71659 0.68337 0.26559 0.0
H1460 H 0.79974 0.68471 0.20271 0.0
H1461 H 0.77115 0.7065 0.2365 0.0
H1462 H 0.6946 0.68432 0.28395 0.0
H1463 H 0.72153 0.70403 0.23614 0.0
H1464 H 0.76294 0.54358 0.25525 0.0
H1465 H 0.79077 0.56335 0.2097 0.0
H1466 H 0.74532 0.54792 0.34341 0.0
H1467 H 0.7151 0.57024 0.37148 0.0
C1468 C 0.15847 0.02318 0.0362 0.0
C1469 C 0.13506 0.03258 0.98619 0.0
C1470 C 0.10719 0.98085 1.0093 0.0
C1471 C 0.12812 0.97356 0.06499 0.0
N1472 N 0.1734 0.98914 0.1327 0.0
N1473 N 0.08426 0.02263 0.93155 0.0
C1474 C 0.15347 0.99533 0.07912 0.0
C1475 C 0.10873 0.01196 0.97423 0.0
N1476 N 0.18643 0.03996 0.04052 0.0
N1477 N 0.08613 0.95797 0.98853 0.0
H1478 H 0.08436 0.04506 0.90461 0.0
H1479 H 0.06262 0.01053 0.92694 0.0
H1480 H 0.08292 0.93521 1.01256 0.0
H1481 H 0.07344 0.96057 0.94431 0.0
H1482 H 0.20585 0.03258 0.07166 0.0
H1483 H 0.19156 0.05942 1.00819 0.0
H1484 H 0.18941 1.00627 0.14983 0.0
H1485 H 0.17294 0.96764 0.16236 0.0
C1486 C 0.73102 0.41984 0.77663 0.0
C1487 C 0.71882 0.39029 0.75308 0.0
C1488 C 0.77102 0.36473 0.78239 0.0
C1489 C 0.78133 0.39195 0.81562 0.0
N1490 N 0.76871 0.44451 0.85078 0.0
N1491 N 0.72585 0.33179 0.75308 0.0
C1492 C 0.76055 0.41926 0.81467 0.0
C1493 C 0.73845 0.3619 0.76129 0.0
N1494 N 0.7153 0.44882 0.76038 0.0
N1495 N 0.79244 0.34253 0.76711 0.0
H1496 H 0.7015 0.32836 0.74612 0.0
H1497 H 0.73905 0.31018 0.7625 0.0
H1498 H 0.81675 0.34565 0.77627 0.0
H1499 H 0.78616 0.32358 0.73872 0.0
H1500 H 0.72462 0.47142 0.77126 0.0
H1501 H 0.69466 0.45075 0.73001 0.0
H1502 H 0.75315 0.46348 0.85688 0.0
H1503 H 0.78997 0.4449 0.87925 0.0
loop_
_geom_bond_atom_site_label_1
_geom_bond_atom_site_label_2
_geom_bond_distance
_geom_bond_site_symmetry_2
_ccdc_geom_bond_type
Tb0 C10 2.825 . S
Tb0 O11 2.347 . S
Tb0 O14 2.366 . S
Tb0 O19 2.418 . S
Tb0 O20 2.384 . S
Tb0 O23 2.479 . S
Tb0 O24 2.471 . S
Eu1 O12 2.418 . S
Eu1 O13 2.384 . S
Eu1 O16 2.479 . S
Eu1 O17 2.471 . S
Eu1 O18 2.347 . S
Eu1 O21 2.366 . S
Eu1 C31 2.825 1_554 S
C2 O18 1.259 . S
C2 O19 1.265 . S
C3 O20 1.255 . S
C3 O21 1.265 . S
C4 C6 1.380 . S
C4 C7 1.374 . S
C4 C10 1.507 . S
C5 C6 1.384 . S
C5 C9 1.387 . S
C5 H32 0.930 . S
C6 C4 1.380 . S
C6 C5 1.384 . S
C6 H33 0.931 . S
C7 C4 1.374 . S
C7 C8 1.390 . S
C7 H34 0.930 . S
C8 C7 1.390 . S
C8 C9 1.391 . S
C8 H35 0.930 . S
C9 C5 1.387 . S
C9 C8 1.391 . S
C10 Tb0 2.825 . S
C10 C4 1.507 . S
C10 O23 1.238 . S
C10 O24 1.247 . S
O11 Tb0 2.347 . S
O11 C15 1.259 . S
O12 Eu1 2.418 . S
O12 C15 1.265 . S
O13 Eu1 2.384 . S
O13 C22 1.255 . S
O14 Tb0 2.366 . S
O14 C22 1.265 . S
C15 O11 1.259 . S
C15 O12 1.265 . S
O16 Eu1 2.479 . S
O16 C31 1.238 1_554 S
O17 Eu1 2.471 . S
O17 C31 1.247 1_554 S
O18 Eu1 2.347 . S
O18 C2 1.259 . S
O19 Tb0 2.418 . S
O19 C2 1.265 . S
O20 Tb0 2.384 . S
O20 C3 1.255 . S
O21 Eu1 2.366 . S
O21 C3 1.265 . S
C22 O13 1.255 . S
C22 O14 1.265 . S
O23 Tb0 2.479 . S
O23 C10 1.238 . S
O24 Tb0 2.471 . S
O24 C10 1.247 . S
C25 C28 1.380 . S
C25 C29 1.374 . S
C25 C31 1.507 . S
C26 C27 1.387 . S
C26 C30 1.391 . S
C27 C26 1.387 . S
C27 C28 1.384 . S
C27 H36 0.930 . S
C28 C25 1.380 . S
C28 C27 1.384 . S
C28 H37 0.931 . S
C29 C25 1.374 . S
C29 C30 1.390 . S
C29 H38 0.930 . S
C30 C26 1.391 . S
C30 C29 1.390 . S
C30 H39 0.930 . S
C31 Eu1 2.825 1_556 S
C31 O16 1.238 1_556 S
C31 O17 1.247 1_556 S
C31 C25 1.507 . S
H32 C5 0.930 . S
H33 C6 0.931 . S
H34 C7 0.930 . S
H35 C8 0.930 . S
H36 C27 0.930 . S
H37 C28 0.931 . S
H38 C29 0.930 . S
H39 C30 0.930 . S
Tb40 C50 2.825 . S
Tb40 O51 2.347 . S
Tb40 O54 2.366 . S
Tb40 O59 2.418 . S
Tb40 O60 2.384 . S
Tb40 O63 2.479 . S
Tb40 O64 2.471 . S
Eu41 O52 2.418 . S
Eu41 O53 2.384 . S
Eu41 O56 2.479 . S
Eu41 O57 2.471 . S
Eu41 O58 2.347 . S
Eu41 O61 2.366 . S
Eu41 C71 2.825 . S
C42 O58 1.259 . S
C42 O59 1.265 . S
C43 O60 1.255 . S
C43 O61 1.265 . S
C44 C46 1.380 . S
C44 C47 1.374 . S
C44 C50 1.507 . S
C45 C46 1.384 . S
C45 C49 1.387 1_554 S
C45 H72 0.930 1_554 S
C46 C44 1.380 . S
C46 C45 1.384 . S
C46 H73 0.931 . S
C47 C44 1.374 . S
C47 C48 1.390 . S
C47 H74 0.930 . S
C48 C47 1.390 . S
C48 C49 1.391 1_554 S
C48 H75 0.930 . S
C49 C45 1.387 1_556 S
C49 C48 1.391 1_556 S
C50 Tb40 2.825 . S
C50 C44 1.507 . S
C50 O63 1.238 . S
C50 O64 1.247 . S
O51 Tb40 2.347 . S
O51 C55 1.259 . S
O52 Eu41 2.418 . S
O52 C55 1.265 . S
O53 Eu41 2.384 . S
O53 C62 1.255 . S
O54 Tb40 2.366 . S
O54 C62 1.265 . S
C55 O51 1.259 . S
C55 O52 1.265 . S
O56 Eu41 2.479 . S
O56 C71 1.238 . S
O57 Eu41 2.471 . S
O57 C71 1.247 . S
O58 Eu41 2.347 . S
O58 C42 1.259 . S
O59 Tb40 2.418 . S
O59 C42 1.265 . S
O60 Tb40 2.384 . S
O60 C43 1.255 . S
O61 Eu41 2.366 . S
O61 C43 1.265 . S
C62 O53 1.255 . S
C62 O54 1.265 . S
O63 Tb40 2.479 . S
O63 C50 1.238 . S
O64 Tb40 2.471 . S
O64 C50 1.247 . S
C65 C68 1.380 . S
C65 C69 1.374 . S
C65 C71 1.507 . S
C66 C67 1.387 . S
C66 C70 1.391 . S
C67 C66 1.387 . S
C67 C68 1.384 . S
C67 H76 0.930 . S
C68 C65 1.380 . S
C68 C67 1.384 . S
C68 H77 0.931 . S
C69 C65 1.374 . S
C69 C70 1.390 . S
C69 H78 0.930 . S
C70 C66 1.391 . S
C70 C69 1.390 . S
C70 H79 0.930 . S
C71 Eu41 2.825 . S
C71 O56 1.238 . S
C71 O57 1.247 . S
C71 C65 1.507 . S
H72 C45 0.930 1_556 S
H73 C46 0.931 . S
H74 C47 0.930 . S
H75 C48 0.930 . S
H76 C67 0.930 . S
H77 C68 0.931 . S
H78 C69 0.930 . S
H79 C70 0.930 . S
Tb80 C90 2.825 . S
Tb80 O91 2.347 . S
Tb80 O94 2.366 . S
Tb80 O99 2.418 . S
Tb80 O100 2.384 . S
Tb80 O103 2.479 . S
Tb80 O104 2.471 . S
Eu81 O92 2.418 . S
Eu81 O93 2.384 . S
Eu81 O96 2.479 . S
Eu81 O97 2.471 . S
Eu81 O98 2.347 . S
Eu81 O101 2.366 . S
Eu81 C111 2.825 . S
C82 O98 1.259 . S
C82 O99 1.265 . S
C83 O100 1.255 . S
C83 O101 1.265 . S
C84 C86 1.380 . S
C84 C87 1.374 . S
C84 C90 1.507 . S
C85 C86 1.384 . S
C85 C89 1.387 . S
C85 H112 0.930 . S
C86 C84 1.380 . S
C86 C85 1.384 . S
C86 H113 0.931 . S
C87 C84 1.374 . S
C87 C88 1.390 . S
C87 H114 0.930 . S
C88 C87 1.390 . S
C88 C89 1.391 . S
C88 H115 0.930 . S
C89 C85 1.387 . S
C89 C88 1.391 . S
C90 Tb80 2.825 . S
C90 C84 1.507 . S
C90 O103 1.238 . S
C90 O104 1.247 . S
O91 Tb80 2.347 . S
O91 C95 1.259 . S
O92 Eu81 2.418 . S
O92 C95 1.265 . S
O93 Eu81 2.384 . S
O93 C102 1.255 . S
O94 Tb80 2.366 . S
O94 C102 1.265 . S
C95 O91 1.259 . S
C95 O92 1.265 . S
O96 Eu81 2.479 . S
O96 C111 1.238 . S
O97 Eu81 2.471 . S
O97 C111 1.247 . S
O98 Eu81 2.347 . S
O98 C82 1.259 . S
O99 Tb80 2.418 . S
O99 C82 1.265 . S
O100 Tb80 2.384 . S
O100 C83 1.255 . S
O101 Eu81 2.366 . S
O101 C83 1.265 . S
C102 O93 1.255 . S
C102 O94 1.265 . S
O103 Tb80 2.479 . S
O103 C90 1.238 . S
O104 Tb80 2.471 . S
O104 C90 1.247 . S
C105 C108 1.380 . S
C105 C109 1.374 . S
C105 C111 1.507 . S
C106 C107 1.387 . S
C106 C110 1.391 . S
C107 C106 1.387 . S
C107 C108 1.384 1_554 S
C107 H116 0.930 . S
C108 C105 1.380 . S
C108 C107 1.384 1_556 S
C108 H117 0.931 . S
C109 C105 1.374 . S
C109 C110 1.390 1_556 S
C109 H118 0.930 . S
C110 C106 1.391 . S
C110 C109 1.390 1_554 S
C110 H119 0.930 . S
C111 Eu81 2.825 . S
C111 O96 1.238 . S
C111 O97 1.247 . S
C111 C105 1.507 . S
H112 C85 0.930 . S
H113 C86 0.931 . S
H114 C87 0.930 . S
H115 C88 0.930 . S
H116 C107 0.930 . S
H117 C108 0.931 . S
H118 C109 0.930 . S
H119 C110 0.930 . S
Tb120 C130 2.825 . S
Tb120 O131 2.347 . S
Tb120 O134 2.366 . S
Tb120 O139 2.418 . S
Tb120 O140 2.384 . S
Tb120 O143 2.479 . S
Tb120 O144 2.471 . S
Eu121 O132 2.418 . S
Eu121 O133 2.384 . S
Eu121 O136 2.479 1_556 S
Eu121 O137 2.471 1_556 S
Eu121 O138 2.347 . S
Eu121 O141 2.366 . S
Eu121 C151 2.825 1_556 S
C122 O138 1.259 . S
C122 O139 1.265 . S
C123 O140 1.255 . S
C123 O141 1.265 . S
C124 C126 1.380 . S
C124 C127 1.374 . S
C124 C130 1.507 . S
C125 C126 1.384 . S
C125 C129 1.387 . S
C125 H152 0.930 . S
C126 C124 1.380 . S
C126 C125 1.384 . S
C126 H153 0.931 . S
C127 C124 1.374 . S
C127 C128 1.390 . S
C127 H154 0.930 . S
C128 C127 1.390 . S
C128 C129 1.391 . S
C128 H155 0.930 . S
C129 C125 1.387 . S
C129 C128 1.391 . S
C130 Tb120 2.825 . S
C130 C124 1.507 . S
C130 O143 1.238 . S
C130 O144 1.247 . S
O131 Tb120 2.347 . S
O131 C135 1.259 . S
O132 Eu121 2.418 . S
O132 C135 1.265 . S
O133 Eu121 2.384 . S
O133 C142 1.255 . S
O134 Tb120 2.366 . S
O134 C142 1.265 . S
C135 O131 1.259 . S
C135 O132 1.265 . S
O136 Eu121 2.479 1_554 S
O136 C151 1.238 . S
O137 Eu121 2.471 1_554 S
O137 C151 1.247 . S
O138 Eu121 2.347 . S
O138 C122 1.259 . S
O139 Tb120 2.418 . S
O139 C122 1.265 . S
O140 Tb120 2.384 . S
O140 C123 1.255 . S
O141 Eu121 2.366 . S
O141 C123 1.265 . S
C142 O133 1.255 . S
C142 O134 1.265 . S
O143 Tb120 2.479 . S
O143 C130 1.238 . S
O144 Tb120 2.471 . S
O144 C130 1.247 . S
C145 C148 1.380 . S
C145 C149 1.374 . S
C145 C151 1.507 . S
C146 C147 1.387 . S
C146 C150 1.391 . S
C147 C146 1.387 . S
C147 C148 1.384 . S
C147 H156 0.930 . S
C148 C145 1.380 . S
C148 C147 1.384 . S
C148 H157 0.931 . S
C149 C145 1.374 . S
C149 C150 1.390 . S
C149 H158 0.930 . S
C150 C146 1.391 . S
C150 C149 1.390 . S
C150 H159 0.930 . S
C151 Eu121 2.825 1_554 S
C151 O136 1.238 . S
C151 O137 1.247 . S
C151 C145 1.507 . S
H152 C125 0.930 . S
H153 C126 0.931 . S
H154 C127 0.930 . S
H155 C128 0.930 . S
H156 C147 0.930 . S
H157 C148 0.931 . S
H158 C149 0.930 . S
H159 C150 0.930 . S
Tb160 C170 2.825 . S
Tb160 O171 2.347 . S
Tb160 O174 2.366 . S
Tb160 O179 2.418 . S
Tb160 O180 2.384 . S
Tb160 O183 2.479 . S
Tb160 O184 2.471 . S
Eu161 O172 2.418 . S
Eu161 O173 2.384 . S
Eu161 O176 2.479 1_556 S
Eu161 O177 2.471 1_556 S
Eu161 O178 2.347 . S
Eu161 O181 2.366 . S
Eu161 C191 2.825 1_556 S
C162 O178 1.259 . S
C162 O179 1.265 . S
C163 O180 1.255 . S
C163 O181 1.265 . S
C164 C166 1.380 . S
C164 C167 1.374 . S
C164 C170 1.507 . S
C165 C166 1.384 . S
C165 C169 1.387 . S
C165 H192 0.930 . S
C166 C164 1.380 . S
C166 C165 1.384 . S
C166 H193 0.931 . S
C167 C164 1.374 . S
C167 C168 1.390 . S
C167 H194 0.930 . S
C168 C167 1.390 . S
C168 C169 1.391 . S
C168 H195 0.930 . S
C169 C165 1.387 . S
C169 C168 1.391 . S
C170 Tb160 2.825 . S
C170 C164 1.507 . S
C170 O183 1.238 . S
C170 O184 1.247 . S
O171 Tb160 2.347 . S
O171 C175 1.259 . S
O172 Eu161 2.418 . S
O172 C175 1.265 . S
O173 Eu161 2.384 . S
O173 C182 1.255 . S
O174 Tb160 2.366 . S
O174 C182 1.265 . S
C175 O171 1.259 . S
C175 O172 1.265 . S
O176 Eu161 2.479 1_554 S
O176 C191 1.238 . S
O177 Eu161 2.471 1_554 S
O177 C191 1.247 . S
O178 Eu161 2.347 . S
O178 C162 1.259 . S
O179 Tb160 2.418 . S
O179 C162 1.265 . S
O180 Tb160 2.384 . S
O180 C163 1.255 . S
O181 Eu161 2.366 . S
O181 C163 1.265 . S
C182 O173 1.255 . S
C182 O174 1.265 . S
O183 Tb160 2.479 . S
O183 C170 1.238 . S
O184 Tb160 2.471 . S
O184 C170 1.247 . S
C185 C188 1.380 . S
C185 C189 1.374 . S
C185 C191 1.507 . S
C186 C187 1.387 . S
C186 C190 1.391 . S
C187 C186 1.387 . S
C187 C188 1.384 . S
C187 H196 0.930 . S
C188 C185 1.380 . S
C188 C187 1.384 . S
C188 H197 0.931 . S
C189 C185 1.374 . S
C189 C190 1.390 . S
C189 H198 0.930 . S
C190 C186 1.391 . S
C190 C189 1.390 . S
C190 H199 0.930 . S
C191 Eu161 2.825 1_554 S
C191 O176 1.238 . S
C191 O177 1.247 . S
C191 C185 1.507 . S
H192 C165 0.930 . S
H193 C166 0.931 . S
H194 C167 0.930 . S
H195 C168 0.930 . S
H196 C187 0.930 . S
H197 C188 0.931 . S
H198 C189 0.930 . S
H199 C190 0.930 . S
Tb200 C210 2.825 1_554 S
Tb200 O211 2.347 . S
Tb200 O214 2.366 . S
Tb200 O219 2.418 . S
Tb200 O220 2.384 . S
Tb200 O223 2.479 . S
Tb200 O224 2.471 . S
Eu201 O212 2.418 . S
Eu201 O213 2.384 . S
Eu201 O216 2.479 . S
Eu201 O217 2.471 . S
Eu201 O218 2.347 . S
Eu201 O221 2.366 . S
Eu201 C231 2.825 . S
C202 O218 1.259 . S
C202 O219 1.265 . S
C203 O220 1.255 . S
C203 O221 1.265 . S
C204 C206 1.380 . S
C204 C207 1.374 . S
C204 C210 1.507 . S
C205 C206 1.384 . S
C205 C209 1.387 . S
C205 H232 0.930 . S
C206 C204 1.380 . S
C206 C205 1.384 . S
C206 H233 0.931 . S
C207 C204 1.374 . S
C207 C208 1.390 . S
C207 H234 0.930 . S
C208 C207 1.390 . S
C208 C209 1.391 . S
C208 H235 0.930 . S
C209 C205 1.387 . S
C209 C208 1.391 . S
C210 Tb200 2.825 1_556 S
C210 C204 1.507 . S
C210 O223 1.238 1_556 S
C210 O224 1.247 1_556 S
O211 Tb200 2.347 . S
O211 C215 1.259 . S
O212 Eu201 2.418 . S
O212 C215 1.265 . S
O213 Eu201 2.384 . S
O213 C222 1.255 . S
O214 Tb200 2.366 . S
O214 C222 1.265 . S
C215 O211 1.259 . S
C215 O212 1.265 . S
O216 Eu201 2.479 . S
O216 C231 1.238 . S
O217 Eu201 2.471 . S
O217 C231 1.247 . S
O218 Eu201 2.347 . S
O218 C202 1.259 . S
O219 Tb200 2.418 . S
O219 C202 1.265 . S
O220 Tb200 2.384 . S
O220 C203 1.255 . S
O221 Eu201 2.366 . S
O221 C203 1.265 . S
C222 O213 1.255 . S
C222 O214 1.265 . S
O223 Tb200 2.479 . S
O223 C210 1.238 1_554 S
O224 Tb200 2.471 . S
O224 C210 1.247 1_554 S
C225 C228 1.380 . S
C225 C229 1.374 . S
C225 C231 1.507 . S
C226 C227 1.387 . S
C226 C230 1.391 . S
C227 C226 1.387 . S
C227 C228 1.384 . S
C227 H236 0.930 . S
C228 C225 1.380 . S
C228 C227 1.384 . S
C228 H237 0.931 . S
C229 C225 1.374 . S
C229 C230 1.390 . S
C229 H238 0.930 . S
C230 C226 1.391 . S
C230 C229 1.390 . S
C230 H239 0.930 . S
C231 Eu201 2.825 . S
C231 O216 1.238 . S
C231 O217 1.247 . S
C231 C225 1.507 . S
H232 C205 0.930 . S
H233 C206 0.931 . S
H234 C207 0.930 . S
H235 C208 0.930 . S
H236 C227 0.930 . S
H237 C228 0.931 . S
H238 C229 0.930 . S
H239 C230 0.930 . S
Tb240 C250 2.825 . S
Tb240 O251 2.347 . S
Tb240 O254 2.366 . S
Tb240 O259 2.418 . S
Tb240 O260 2.384 . S
Tb240 O263 2.479 . S
Tb240 O264 2.471 . S
Eu241 O252 2.418 . S
Eu241 O253 2.384 . S
Eu241 O256 2.479 . S
Eu241 O257 2.471 . S
Eu241 O258 2.347 . S
Eu241 O261 2.366 . S
Eu241 C271 2.825 . S
C242 O258 1.259 . S
C242 O259 1.265 . S
C243 O260 1.255 . S
C243 O261 1.265 . S
C244 C246 1.380 . S
C244 C247 1.374 . S
C244 C250 1.507 . S
C245 C246 1.384 . S
C245 C249 1.387 1_554 S
C245 H272 0.930 1_554 S
C246 C244 1.380 . S
C246 C245 1.384 . S
C246 H273 0.931 . S
C247 C244 1.374 . S
C247 C248 1.390 . S
C247 H274 0.930 . S
C248 C247 1.390 . S
C248 C249 1.391 1_554 S
C248 H275 0.930 . S
C249 C245 1.387 1_556 S
C249 C248 1.391 1_556 S
C250 Tb240 2.825 . S
C250 C244 1.507 . S
C250 O263 1.238 . S
C250 O264 1.247 . S
O251 Tb240 2.347 . S
O251 C255 1.259 . S
O252 Eu241 2.418 . S
O252 C255 1.265 . S
O253 Eu241 2.384 . S
O253 C262 1.255 . S
O254 Tb240 2.366 . S
O254 C262 1.265 . S
C255 O251 1.259 . S
C255 O252 1.265 . S
O256 Eu241 2.479 . S
O256 C271 1.238 . S
O257 Eu241 2.471 . S
O257 C271 1.247 . S
O258 Eu241 2.347 . S
O258 C242 1.259 . S
O259 Tb240 2.418 . S
O259 C242 1.265 . S
O260 Tb240 2.384 . S
O260 C243 1.255 . S
O261 Eu241 2.366 . S
O261 C243 1.265 . S
C262 O253 1.255 . S
C262 O254 1.265 . S
O263 Tb240 2.479 . S
O263 C250 1.238 . S
O264 Tb240 2.471 . S
O264 C250 1.247 . S
C265 C268 1.380 . S
C265 C269 1.374 . S
C265 C271 1.507 . S
C266 C267 1.387 . S
C266 C270 1.391 . S
C267 C266 1.387 . S
C267 C268 1.384 . S
C267 H276 0.930 . S
C268 C265 1.380 . S
C268 C267 1.384 . S
C268 H277 0.931 . S
C269 C265 1.374 . S
C269 C270 1.390 . S
C269 H278 0.930 . S
C270 C266 1.391 . S
C270 C269 1.390 . S
C270 H279 0.930 . S
C271 Eu241 2.825 . S
C271 O256 1.238 . S
C271 O257 1.247 . S
C271 C265 1.507 . S
H272 C245 0.930 1_556 S
H273 C246 0.931 . S
H274 C247 0.930 . S
H275 C248 0.930 . S
H276 C267 0.930 . S
H277 C268 0.931 . S
H278 C269 0.930 . S
H279 C270 0.930 . S
Tb280 C290 2.825 . S
Tb280 O291 2.347 . S
Tb280 O294 2.366 . S
Tb280 O299 2.418 . S
Tb280 O300 2.384 . S
Tb280 O303 2.479 . S
Tb280 O304 2.471 . S
Eu281 O292 2.418 . S
Eu281 O293 2.384 . S
Eu281 O296 2.479 . S
Eu281 O297 2.471 . S
Eu281 O298 2.347 . S
Eu281 O301 2.366 . S
Eu281 C311 2.825 . S
C282 O298 1.259 . S
C282 O299 1.265 . S
C283 O300 1.255 . S
C283 O301 1.265 . S
C284 C286 1.380 . S
C284 C287 1.374 . S
C284 C290 1.507 . S
C285 C286 1.384 1_554 S
C285 C289 1.387 . S
C285 H312 0.930 . S
C286 C284 1.380 . S
C286 C285 1.384 1_556 S
C286 H313 0.931 . S
C287 C284 1.374 . S
C287 C288 1.390 1_556 S
C287 H314 0.930 . S
C288 C287 1.390 1_554 S
C288 C289 1.391 . S
C288 H315 0.930 . S
C289 C285 1.387 . S
C289 C288 1.391 . S
C290 Tb280 2.825 . S
C290 C284 1.507 . S
C290 O303 1.238 . S
C290 O304 1.247 . S
O291 Tb280 2.347 . S
O291 C295 1.259 . S
O292 Eu281 2.418 . S
O292 C295 1.265 . S
O293 Eu281 2.384 . S
O293 C302 1.255 . S
O294 Tb280 2.366 . S
O294 C302 1.265 . S
C295 O291 1.259 . S
C295 O292 1.265 . S
O296 Eu281 2.479 . S
O296 C311 1.238 . S
O297 Eu281 2.471 . S
O297 C311 1.247 . S
O298 Eu281 2.347 . S
O298 C282 1.259 . S
O299 Tb280 2.418 . S
O299 C282 1.265 . S
O300 Tb280 2.384 . S
O300 C283 1.255 . S
O301 Eu281 2.366 . S
O301 C283 1.265 . S
C302 O293 1.255 . S
C302 O294 1.265 . S
O303 Tb280 2.479 . S
O303 C290 1.238 . S
O304 Tb280 2.471 . S
O304 C290 1.247 . S
C305 C308 1.380 . S
C305 C309 1.374 . S
C305 C311 1.507 . S
C306 C307 1.387 . S
C306 C310 1.391 . S
C307 C306 1.387 . S
C307 C308 1.384 . S
C307 H316 0.930 . S
C308 C305 1.380 . S
C308 C307 1.384 . S
C308 H317 0.931 . S
C309 C305 1.374 . S
C309 C310 1.390 . S
C309 H318 0.930 . S
C310 C306 1.391 . S
C310 C309 1.390 . S
C310 H319 0.930 . S
C311 Eu281 2.825 . S
C311 O296 1.238 . S
C311 O297 1.247 . S
C311 C305 1.507 . S
H312 C285 0.930 . S
H313 C286 0.931 . S
H314 C287 0.930 . S
H315 C288 0.930 . S
H316 C307 0.930 . S
H317 C308 0.931 . S
H318 C309 0.930 . S
H319 C310 0.930 . S
Tb320 C330 2.825 1_556 S
Tb320 O331 2.347 . S
Tb320 O334 2.366 . S
Tb320 O339 2.418 . S
Tb320 O340 2.384 . S
Tb320 O343 2.479 . S
Tb320 O344 2.471 . S
Eu321 O332 2.418 . S
Eu321 O333 2.384 . S
Eu321 O336 2.479 . S
Eu321 O337 2.471 . S
Eu321 O338 2.347 . S
Eu321 O341 2.366 . S
Eu321 C351 2.825 . S
C322 O338 1.259 . S
C322 O339 1.265 . S
C323 O340 1.255 . S
C323 O341 1.265 . S
C324 C326 1.380 . S
C324 C327 1.374 . S
C324 C330 1.507 . S
C325 C326 1.384 . S
C325 C329 1.387 . S
C325 H352 0.930 . S
C326 C324 1.380 . S
C326 C325 1.384 . S
C326 H353 0.931 . S
C327 C324 1.374 . S
C327 C328 1.390 . S
C327 H354 0.930 . S
C328 C327 1.390 . S
C328 C329 1.391 . S
C328 H355 0.930 . S
C329 C325 1.387 . S
C329 C328 1.391 . S
C330 Tb320 2.825 1_554 S
C330 C324 1.507 . S
C330 O343 1.238 1_554 S
C330 O344 1.247 1_554 S
O331 Tb320 2.347 . S
O331 C335 1.259 . S
O332 Eu321 2.418 . S
O332 C335 1.265 . S
O333 Eu321 2.384 . S
O333 C342 1.255 . S
O334 Tb320 2.366 . S
O334 C342 1.265 . S
C335 O331 1.259 . S
C335 O332 1.265 . S
O336 Eu321 2.479 . S
O336 C351 1.238 . S
O337 Eu321 2.471 . S
O337 C351 1.247 . S
O338 Eu321 2.347 . S
O338 C322 1.259 . S
O339 Tb320 2.418 . S
O339 C322 1.265 . S
O340 Tb320 2.384 . S
O340 C323 1.255 . S
O341 Eu321 2.366 . S
O341 C323 1.265 . S
C342 O333 1.255 . S
C342 O334 1.265 . S
O343 Tb320 2.479 . S
O343 C330 1.238 1_556 S
O344 Tb320 2.471 . S
O344 C330 1.247 1_556 S
C345 C348 1.380 . S
C345 C349 1.374 . S
C345 C351 1.507 . S
C346 C347 1.387 . S
C346 C350 1.391 . S
C347 C346 1.387 . S
C347 C348 1.384 . S
C347 H356 0.930 . S
C348 C345 1.380 . S
C348 C347 1.384 . S
C348 H357 0.931 . S
C349 C345 1.374 . S
C349 C350 1.390 . S
C349 H358 0.930 . S
C350 C346 1.391 . S
C350 C349 1.390 . S
C350 H359 0.930 . S
C351 Eu321 2.825 . S
C351 O336 1.238 . S
C351 O337 1.247 . S
C351 C345 1.507 . S
H352 C325 0.930 . S
H353 C326 0.931 . S
H354 C327 0.930 . S
H355 C328 0.930 . S
H356 C347 0.930 . S
H357 C348 0.931 . S
H358 C349 0.930 . S
H359 C350 0.930 . S
Tb360 C370 2.825 . S
Tb360 O371 2.347 . S
Tb360 O374 2.366 . S
Tb360 O379 2.418 . S
Tb360 O380 2.384 . S
Tb360 O383 2.479 . S
Tb360 O384 2.471 . S
Eu361 O372 2.418 . S
Eu361 O373 2.384 . S
Eu361 O376 2.479 . S
Eu361 O377 2.471 . S
Eu361 O378 2.347 . S
Eu361 O381 2.366 . S
Eu361 C391 2.825 . S
C362 O378 1.259 . S
C362 O379 1.265 . S
C363 O380 1.255 . S
C363 O381 1.265 . S
C364 C366 1.380 . S
C364 C367 1.374 . S
C364 C370 1.507 . S
C365 C366 1.384 . S
C365 C369 1.387 . S
C365 H392 0.930 . S
C366 C364 1.380 . S
C366 C365 1.384 . S
C366 H393 0.931 . S
C367 C364 1.374 . S
C367 C368 1.390 . S
C367 H394 0.930 . S
C368 C367 1.390 . S
C368 C369 1.391 . S
C368 H395 0.930 . S
C369 C365 1.387 . S
C369 C368 1.391 . S
C370 Tb360 2.825 . S
C370 C364 1.507 . S
C370 O383 1.238 . S
C370 O384 1.247 . S
O371 Tb360 2.347 . S
O371 C375 1.259 . S
O372 Eu361 2.418 . S
O372 C375 1.265 . S
O373 Eu361 2.384 . S
O373 C382 1.255 . S
O374 Tb360 2.366 . S
O374 C382 1.265 . S
C375 O371 1.259 . S
C375 O372 1.265 . S
O376 Eu361 2.479 . S
O376 C391 1.238 . S
O377 Eu361 2.471 . S
O377 C391 1.247 . S
O378 Eu361 2.347 . S
O378 C362 1.259 . S
O379 Tb360 2.418 . S
O379 C362 1.265 . S
O380 Tb360 2.384 . S
O380 C363 1.255 . S
O381 Eu361 2.366 . S
O381 C363 1.265 . S
C382 O373 1.255 . S
C382 O374 1.265 . S
O383 Tb360 2.479 . S
O383 C370 1.238 . S
O384 Tb360 2.471 . S
O384 C370 1.247 . S
C385 C388 1.380 . S
C385 C389 1.374 . S
C385 C391 1.507 . S
C386 C387 1.387 1_554 S
C386 C390 1.391 1_554 S
C387 C386 1.387 1_556 S
C387 C388 1.384 . S
C387 H396 0.930 1_556 S
C388 C385 1.380 . S
C388 C387 1.384 . S
C388 H397 0.931 . S
C389 C385 1.374 . S
C389 C390 1.390 . S
C389 H398 0.930 . S
C390 C386 1.391 1_556 S
C390 C389 1.390 . S
C390 H399 0.930 . S
C391 Eu361 2.825 . S
C391 O376 1.238 . S
C391 O377 1.247 . S
C391 C385 1.507 . S
H392 C365 0.930 . S
H393 C366 0.931 . S
H394 C367 0.930 . S
H395 C368 0.930 . S
H396 C387 0.930 1_554 S
H397 C388 0.931 . S
H398 C389 0.930 . S
H399 C390 0.930 . S
Tb400 C410 2.825 . S
Tb400 O411 2.347 . S
Tb400 O414 2.366 . S
Tb400 O419 2.418 . S
Tb400 O420 2.384 . S
Tb400 O423 2.479 . S
Tb400 O424 2.471 . S
Eu401 O412 2.418 . S
Eu401 O413 2.384 . S
Eu401 O416 2.479 . S
Eu401 O417 2.471 . S
Eu401 O418 2.347 . S
Eu401 O421 2.366 . S
Eu401 C431 2.825 . S
C402 O418 1.259 . S
C402 O419 1.265 . S
C403 O420 1.255 . S
C403 O421 1.265 . S
C404 C406 1.380 . S
C404 C407 1.374 . S
C404 C410 1.507 . S
C405 C406 1.384 1_556 S
C405 C409 1.387 . S
C405 H432 0.930 . S
C406 C404 1.380 . S
C406 C405 1.384 1_554 S
C406 H433 0.931 . S
C407 C404 1.374 . S
C407 C408 1.390 1_554 S
C407 H434 0.930 . S
C408 C407 1.390 1_556 S
C408 C409 1.391 . S
C408 H435 0.930 . S
C409 C405 1.387 . S
C409 C408 1.391 . S
C410 Tb400 2.825 . S
C410 C404 1.507 . S
C410 O423 1.238 . S
C410 O424 1.247 . S
O411 Tb400 2.347 . S
O411 C415 1.259 . S
O412 Eu401 2.418 . S
O412 C415 1.265 . S
O413 Eu401 2.384 . S
O413 C422 1.255 . S
O414 Tb400 2.366 . S
O414 C422 1.265 . S
C415 O411 1.259 . S
C415 O412 1.265 . S
O416 Eu401 2.479 . S
O416 C431 1.238 . S
O417 Eu401 2.471 . S
O417 C431 1.247 . S
O418 Eu401 2.347 . S
O418 C402 1.259 . S
O419 Tb400 2.418 . S
O419 C402 1.265 . S
O420 Tb400 2.384 . S
O420 C403 1.255 . S
O421 Eu401 2.366 . S
O421 C403 1.265 . S
C422 O413 1.255 . S
C422 O414 1.265 . S
O423 Tb400 2.479 . S
O423 C410 1.238 . S
O424 Tb400 2.471 . S
O424 C410 1.247 . S
C425 C428 1.380 . S
C425 C429 1.374 . S
C425 C431 1.507 . S
C426 C427 1.387 . S
C426 C430 1.391 . S
C427 C426 1.387 . S
C427 C428 1.384 . S
C427 H436 0.930 . S
C428 C425 1.380 . S
C428 C427 1.384 . S
C428 H437 0.931 . S
C429 C425 1.374 . S
C429 C430 1.390 . S
C429 H438 0.930 . S
C430 C426 1.391 . S
C430 C429 1.390 . S
C430 H439 0.930 . S
C431 Eu401 2.825 . S
C431 O416 1.238 . S
C431 O417 1.247 . S
C431 C425 1.507 . S
H432 C405 0.930 . S
H433 C406 0.931 . S
H434 C407 0.930 . S
H435 C408 0.930 . S
H436 C427 0.930 . S
H437 C428 0.931 . S
H438 C429 0.930 . S
H439 C430 0.930 . S
Tb440 C450 2.825 1_554 S
Tb440 O451 2.347 . S
Tb440 O454 2.366 . S
Tb440 O459 2.418 . S
Tb440 O460 2.384 . S
Tb440 O463 2.479 1_554 S
Tb440 O464 2.471 1_554 S
Eu441 O452 2.418 . S
Eu441 O453 2.384 . S
Eu441 O456 2.479 . S
Eu441 O457 2.471 . S
Eu441 O458 2.347 . S
Eu441 O461 2.366 . S
Eu441 C471 2.825 . S
C442 O458 1.259 . S
C442 O459 1.265 . S
C443 O460 1.255 . S
C443 O461 1.265 . S
C444 C446 1.380 . S
C444 C447 1.374 . S
C444 C450 1.507 . S
C445 C446 1.384 . S
C445 C449 1.387 . S
C445 H472 0.930 . S
C446 C444 1.380 . S
C446 C445 1.384 . S
C446 H473 0.931 . S
C447 C444 1.374 . S
C447 C448 1.390 . S
C447 H474 0.930 . S
C448 C447 1.390 . S
C448 C449 1.391 . S
C448 H475 0.930 . S
C449 C445 1.387 . S
C449 C448 1.391 . S
C450 Tb440 2.825 1_556 S
C450 C444 1.507 . S
C450 O463 1.238 . S
C450 O464 1.247 . S
O451 Tb440 2.347 . S
O451 C455 1.259 . S
O452 Eu441 2.418 . S
O452 C455 1.265 . S
O453 Eu441 2.384 . S
O453 C462 1.255 . S
O454 Tb440 2.366 . S
O454 C462 1.265 . S
C455 O451 1.259 . S
C455 O452 1.265 . S
O456 Eu441 2.479 . S
O456 C471 1.238 . S
O457 Eu441 2.471 . S
O457 C471 1.247 . S
O458 Eu441 2.347 . S
O458 C442 1.259 . S
O459 Tb440 2.418 . S
O459 C442 1.265 . S
O460 Tb440 2.384 . S
O460 C443 1.255 . S
O461 Eu441 2.366 . S
O461 C443 1.265 . S
C462 O453 1.255 . S
C462 O454 1.265 . S
O463 Tb440 2.479 1_556 S
O463 C450 1.238 . S
O464 Tb440 2.471 1_556 S
O464 C450 1.247 . S
C465 C468 1.380 . S
C465 C469 1.374 . S
C465 C471 1.507 . S
C466 C467 1.387 . S
C466 C470 1.391 . S
C467 C466 1.387 . S
C467 C468 1.384 . S
C467 H476 0.930 . S
C468 C465 1.380 . S
C468 C467 1.384 . S
C468 H477 0.931 . S
C469 C465 1.374 . S
C469 C470 1.390 . S
C469 H478 0.930 . S
C470 C466 1.391 . S
C470 C469 1.390 . S
C470 H479 0.930 . S
C471 Eu441 2.825 . S
C471 O456 1.238 . S
C471 O457 1.247 . S
C471 C465 1.507 . S
H472 C445 0.930 . S
H473 C446 0.931 . S
H474 C447 0.930 . S
H475 C448 0.930 . S
H476 C467 0.930 . S
H477 C468 0.931 . S
H478 C469 0.930 . S
H479 C470 0.930 . S
Tb480 C490 2.825 1_554 S
Tb480 O491 2.347 . S
Tb480 O494 2.366 . S
Tb480 O499 2.418 . S
Tb480 O500 2.384 . S
Tb480 O503 2.479 1_554 S
Tb480 O504 2.471 1_554 S
Eu481 O492 2.418 . S
Eu481 O493 2.384 . S
Eu481 O496 2.479 . S
Eu481 O497 2.471 . S
Eu481 O498 2.347 . S
Eu481 O501 2.366 . S
Eu481 C511 2.825 . S
C482 O498 1.259 . S
C482 O499 1.265 . S
C483 O500 1.255 . S
C483 O501 1.265 . S
C484 C486 1.380 . S
C484 C487 1.374 . S
C484 C490 1.507 . S
C485 C486 1.384 . S
C485 C489 1.387 . S
C485 H512 0.930 . S
C486 C484 1.380 . S
C486 C485 1.384 . S
C486 H513 0.931 . S
C487 C484 1.374 . S
C487 C488 1.390 . S
C487 H514 0.930 . S
C488 C487 1.390 . S
C488 C489 1.391 . S
C488 H515 0.930 . S
C489 C485 1.387 . S
C489 C488 1.391 . S
C490 Tb480 2.825 1_556 S
C490 C484 1.507 . S
C490 O503 1.238 . S
C490 O504 1.247 . S
O491 Tb480 2.347 . S
O491 C495 1.259 . S
O492 Eu481 2.418 . S
O492 C495 1.265 . S
O493 Eu481 2.384 . S
O493 C502 1.255 . S
O494 Tb480 2.366 . S
O494 C502 1.265 . S
C495 O491 1.259 . S
C495 O492 1.265 . S
O496 Eu481 2.479 . S
O496 C511 1.238 . S
O497 Eu481 2.471 . S
O497 C511 1.247 . S
O498 Eu481 2.347 . S
O498 C482 1.259 . S
O499 Tb480 2.418 . S
O499 C482 1.265 . S
O500 Tb480 2.384 . S
O500 C483 1.255 . S
O501 Eu481 2.366 . S
O501 C483 1.265 . S
C502 O493 1.255 . S
C502 O494 1.265 . S
O503 Tb480 2.479 1_556 S
O503 C490 1.238 . S
O504 Tb480 2.471 1_556 S
O504 C490 1.247 . S
C505 C508 1.380 . S
C505 C509 1.374 . S
C505 C511 1.507 . S
C506 C507 1.387 . S
C506 C510 1.391 . S
C507 C506 1.387 . S
C507 C508 1.384 . S
C507 H516 0.930 . S
C508 C505 1.380 . S
C508 C507 1.384 . S
C508 H517 0.931 . S
C509 C505 1.374 . S
C509 C510 1.390 . S
C509 H518 0.930 . S
C510 C506 1.391 . S
C510 C509 1.390 . S
C510 H519 0.930 . S
C511 Eu481 2.825 . S
C511 O496 1.238 . S
C511 O497 1.247 . S
C511 C505 1.507 . S
H512 C485 0.930 . S
H513 C486 0.931 . S
H514 C487 0.930 . S
H515 C488 0.930 . S
H516 C507 0.930 . S
H517 C508 0.931 . S
H518 C509 0.930 . S
H519 C510 0.930 . S
Tb520 C530 2.825 . S
Tb520 O531 2.347 . S
Tb520 O534 2.366 . S
Tb520 O539 2.418 . S
Tb520 O540 2.384 . S
Tb520 O543 2.479 . S
Tb520 O544 2.471 . S
Eu521 O532 2.418 . S
Eu521 O533 2.384 . S
Eu521 O536 2.479 . S
Eu521 O537 2.471 . S
Eu521 O538 2.347 . S
Eu521 O541 2.366 . S
Eu521 C551 2.825 1_556 S
C522 O538 1.259 . S
C522 O539 1.265 . S
C523 O540 1.255 . S
C523 O541 1.265 . S
C524 C526 1.380 . S
C524 C527 1.374 . S
C524 C530 1.507 . S
C525 C526 1.384 . S
C525 C529 1.387 . S
C525 H552 0.930 . S
C526 C524 1.380 . S
C526 C525 1.384 . S
C526 H553 0.931 . S
C527 C524 1.374 . S
C527 C528 1.390 . S
C527 H554 0.930 . S
C528 C527 1.390 . S
C528 C529 1.391 . S
C528 H555 0.930 . S
C529 C525 1.387 . S
C529 C528 1.391 . S
C530 Tb520 2.825 . S
C530 C524 1.507 . S
C530 O543 1.238 . S
C530 O544 1.247 . S
O531 Tb520 2.347 . S
O531 C535 1.259 . S
O532 Eu521 2.418 . S
O532 C535 1.265 . S
O533 Eu521 2.384 . S
O533 C542 1.255 . S
O534 Tb520 2.366 . S
O534 C542 1.265 . S
C535 O531 1.259 . S
C535 O532 1.265 . S
O536 Eu521 2.479 . S
O536 C551 1.238 1_556 S
O537 Eu521 2.471 . S
O537 C551 1.247 1_556 S
O538 Eu521 2.347 . S
O538 C522 1.259 . S
O539 Tb520 2.418 . S
O539 C522 1.265 . S
O540 Tb520 2.384 . S
O540 C523 1.255 . S
O541 Eu521 2.366 . S
O541 C523 1.265 . S
C542 O533 1.255 . S
C542 O534 1.265 . S
O543 Tb520 2.479 . S
O543 C530 1.238 . S
O544 Tb520 2.471 . S
O544 C530 1.247 . S
C545 C548 1.380 . S
C545 C549 1.374 . S
C545 C551 1.507 . S
C546 C547 1.387 . S
C546 C550 1.391 . S
C547 C546 1.387 . S
C547 C548 1.384 . S
C547 H556 0.930 . S
C548 C545 1.380 . S
C548 C547 1.384 . S
C548 H557 0.931 . S
C549 C545 1.374 . S
C549 C550 1.390 . S
C549 H558 0.930 . S
C550 C546 1.391 . S
C550 C549 1.390 . S
C550 H559 0.930 . S
C551 Eu521 2.825 1_554 S
C551 O536 1.238 1_554 S
C551 O537 1.247 1_554 S
C551 C545 1.507 . S
H552 C525 0.930 . S
H553 C526 0.931 . S
H554 C527 0.930 . S
H555 C528 0.930 . S
H556 C547 0.930 . S
H557 C548 0.931 . S
H558 C549 0.930 . S
H559 C550 0.930 . S
Tb560 C570 2.825 . S
Tb560 O571 2.347 . S
Tb560 O574 2.366 . S
Tb560 O579 2.418 . S
Tb560 O580 2.384 . S
Tb560 O583 2.479 . S
Tb560 O584 2.471 . S
Eu561 O572 2.418 . S
Eu561 O573 2.384 . S
Eu561 O576 2.479 . S
Eu561 O577 2.471 . S
Eu561 O578 2.347 . S
Eu561 O581 2.366 . S
Eu561 C591 2.825 . S
C562 O578 1.259 . S
C562 O579 1.265 . S
C563 O580 1.255 . S
C563 O581 1.265 . S
C564 C566 1.380 . S
C564 C567 1.374 . S
C564 C570 1.507 . S
C565 C566 1.384 . S
C565 C569 1.387 . S
C565 H592 0.930 . S
C566 C564 1.380 . S
C566 C565 1.384 . S
C566 H593 0.931 . S
C567 C564 1.374 . S
C567 C568 1.390 . S
C567 H594 0.930 . S
C568 C567 1.390 . S
C568 C569 1.391 . S
C568 H595 0.930 . S
C569 C565 1.387 . S
C569 C568 1.391 . S
C570 Tb560 2.825 . S
C570 C564 1.507 . S
C570 O583 1.238 . S
C570 O584 1.247 . S
O571 Tb560 2.347 . S
O571 C575 1.259 . S
O572 Eu561 2.418 . S
O572 C575 1.265 . S
O573 Eu561 2.384 . S
O573 C582 1.255 . S
O574 Tb560 2.366 . S
O574 C582 1.265 . S
C575 O571 1.259 . S
C575 O572 1.265 . S
O576 Eu561 2.479 . S
O576 C591 1.238 . S
O577 Eu561 2.471 . S
O577 C591 1.247 . S
O578 Eu561 2.347 . S
O578 C562 1.259 . S
O579 Tb560 2.418 . S
O579 C562 1.265 . S
O580 Tb560 2.384 . S
O580 C563 1.255 . S
O581 Eu561 2.366 . S
O581 C563 1.265 . S
C582 O573 1.255 . S
C582 O574 1.265 . S
O583 Tb560 2.479 . S
O583 C570 1.238 . S
O584 Tb560 2.471 . S
O584 C570 1.247 . S
C585 C588 1.380 . S
C585 C589 1.374 . S
C585 C591 1.507 . S
C586 C587 1.387 1_554 S
C586 C590 1.391 1_554 S
C587 C586 1.387 1_556 S
C587 C588 1.384 . S
C587 H596 0.930 1_556 S
C588 C585 1.380 . S
C588 C587 1.384 . S
C588 H597 0.931 . S
C589 C585 1.374 . S
C589 C590 1.390 . S
C589 H598 0.930 . S
C590 C586 1.391 1_556 S
C590 C589 1.390 . S
C590 H599 0.930 . S
C591 Eu561 2.825 . S
C591 O576 1.238 . S
C591 O577 1.247 . S
C591 C585 1.507 . S
H592 C565 0.930 . S
H593 C566 0.931 . S
H594 C567 0.930 . S
H595 C568 0.930 . S
H596 C587 0.930 1_554 S
H597 C588 0.931 . S
H598 C589 0.930 . S
H599 C590 0.930 . S
Tb600 C610 2.825 . S
Tb600 O611 2.347 . S
Tb600 O614 2.366 . S
Tb600 O619 2.418 . S
Tb600 O620 2.384 . S
Tb600 O623 2.479 . S
Tb600 O624 2.471 . S
Eu601 O612 2.418 . S
Eu601 O613 2.384 . S
Eu601 O616 2.479 . S
Eu601 O617 2.471 . S
Eu601 O618 2.347 . S
Eu601 O621 2.366 . S
Eu601 C631 2.825 . S
C602 O618 1.259 . S
C602 O619 1.265 . S
C603 O620 1.255 . S
C603 O621 1.265 . S
C604 C606 1.380 . S
C604 C607 1.374 . S
C604 C610 1.507 . S
C605 C606 1.384 . S
C605 C609 1.387 . S
C605 H632 0.930 . S
C606 C604 1.380 . S
C606 C605 1.384 . S
C606 H633 0.931 . S
C607 C604 1.374 . S
C607 C608 1.390 . S
C607 H634 0.930 . S
C608 C607 1.390 . S
C608 C609 1.391 . S
C608 H635 0.930 . S
C609 C605 1.387 . S
C609 C608 1.391 . S
C610 Tb600 2.825 . S
C610 C604 1.507 . S
C610 O623 1.238 . S
C610 O624 1.247 . S
O611 Tb600 2.347 . S
O611 C615 1.259 . S
O612 Eu601 2.418 . S
O612 C615 1.265 . S
O613 Eu601 2.384 . S
O613 C622 1.255 . S
O614 Tb600 2.366 . S
O614 C622 1.265 . S
C615 O611 1.259 . S
C615 O612 1.265 . S
O616 Eu601 2.479 . S
O616 C631 1.238 . S
O617 Eu601 2.471 . S
O617 C631 1.247 . S
O618 Eu601 2.347 . S
O618 C602 1.259 . S
O619 Tb600 2.418 . S
O619 C602 1.265 . S
O620 Tb600 2.384 . S
O620 C603 1.255 . S
O621 Eu601 2.366 . S
O621 C603 1.265 . S
C622 O613 1.255 . S
C622 O614 1.265 . S
O623 Tb600 2.479 . S
O623 C610 1.238 . S
O624 Tb600 2.471 . S
O624 C610 1.247 . S
C625 C628 1.380 . S
C625 C629 1.374 . S
C625 C631 1.507 . S
C626 C627 1.387 . S
C626 C630 1.391 . S
C627 C626 1.387 . S
C627 C628 1.384 1_556 S
C627 H636 0.930 . S
C628 C625 1.380 . S
C628 C627 1.384 1_554 S
C628 H637 0.931 . S
C629 C625 1.374 . S
C629 C630 1.390 1_554 S
C629 H638 0.930 . S
C630 C626 1.391 . S
C630 C629 1.390 1_556 S
C630 H639 0.930 . S
C631 Eu601 2.825 . S
C631 O616 1.238 . S
C631 O617 1.247 . S
C631 C625 1.507 . S
H632 C605 0.930 . S
H633 C606 0.931 . S
H634 C607 0.930 . S
H635 C608 0.930 . S
H636 C627 0.930 . S
H637 C628 0.931 . S
H638 C629 0.930 . S
H639 C630 0.930 . S
C640 C641 1.363 . S
C640 C646 1.379 . S
C640 N648 1.356 . S
C641 C640 1.363 . S
C641 C647 1.363 . S
C642 C643 1.363 . S
C642 C647 1.379 . S
C642 N649 1.356 . S
C643 C642 1.363 . S
C643 C646 1.363 . S
N644 C646 1.356 . S
N644 H656 0.984 . S
N644 H657 0.985 . S
N645 C647 1.356 . S
N645 H650 0.984 . S
N645 H651 0.985 . S
C646 C640 1.379 . S
C646 C643 1.363 . S
C646 N644 1.356 . S
C647 C641 1.363 . S
C647 C642 1.379 . S
C647 N645 1.356 . S
N648 C640 1.356 . S
N648 H654 0.984 . S
N648 H655 0.984 . S
N649 C642 1.356 . S
N649 H652 0.984 . S
N649 H653 0.985 . S
H650 N645 0.984 . S
H651 N645 0.985 . S
H652 N649 0.984 . S
H653 N649 0.985 . S
H654 N648 0.984 . S
H655 N648 0.984 . S
H656 N644 0.984 . S
H657 N644 0.985 . S
C658 C659 1.363 . S
C658 C664 1.379 . S
C658 N666 1.356 . S
C659 C658 1.363 . S
C659 C665 1.363 . S
C660 C661 1.363 . S
C660 C665 1.379 . S
C660 N667 1.356 . S
C661 C660 1.363 . S
C661 C664 1.363 . S
N662 C664 1.356 . S
N662 H674 0.984 . S
N662 H675 0.985 . S
N663 C665 1.356 . S
N663 H668 0.984 . S
N663 H669 0.985 . S
C664 C658 1.379 . S
C664 C661 1.363 . S
C664 N662 1.356 . S
C665 C659 1.363 . S
C665 C660 1.379 . S
C665 N663 1.356 . S
N666 C658 1.356 . S
N666 H672 0.984 . S
N666 H673 0.984 . S
N667 C660 1.356 . S
N667 H670 0.984 . S
N667 H671 0.985 . S
H668 N663 0.984 . S
H669 N663 0.985 . S
H670 N667 0.984 . S
H671 N667 0.985 . S
H672 N666 0.984 . S
H673 N666 0.984 . S
H674 N662 0.984 . S
H675 N662 0.985 . S
C676 C677 1.363 . S
C676 C682 1.379 . S
C676 N684 1.356 . S
C677 C676 1.363 . S
C677 C683 1.363 . S
C678 C679 1.363 . S
C678 C683 1.379 . S
C678 N685 1.356 . S
C679 C678 1.363 . S
C679 C682 1.363 . S
N680 C682 1.356 . S
N680 H692 0.984 . S
N680 H693 0.985 . S
N681 C683 1.356 . S
N681 H686 0.984 . S
N681 H687 0.985 . S
C682 C676 1.379 . S
C682 C679 1.363 . S
C682 N680 1.356 . S
C683 C677 1.363 . S
C683 C678 1.379 . S
C683 N681 1.356 . S
N684 C676 1.356 . S
N684 H690 0.984 . S
N684 H691 0.984 . S
N685 C678 1.356 . S
N685 H688 0.984 . S
N685 H689 0.985 . S
H686 N681 0.984 . S
H687 N681 0.985 . S
H688 N685 0.984 . S
H689 N685 0.985 . S
H690 N684 0.984 . S
H691 N684 0.984 . S
H692 N680 0.984 . S
H693 N680 0.985 . S
C694 C695 1.363 . S
C694 C700 1.379 . S
C694 N702 1.356 . S
C695 C694 1.363 . S
C695 C701 1.363 . S
C696 C697 1.363 . S
C696 C701 1.379 . S
C696 N703 1.356 . S
C697 C696 1.363 . S
C697 C700 1.363 . S
N698 C700 1.356 . S
N698 H710 0.984 . S
N698 H711 0.985 . S
N699 C701 1.356 . S
N699 H704 0.984 . S
N699 H705 0.985 . S
C700 C694 1.379 . S
C700 C697 1.363 . S
C700 N698 1.356 . S
C701 C695 1.363 . S
C701 C696 1.379 . S
C701 N699 1.356 . S
N702 C694 1.356 . S
N702 H708 0.984 . S
N702 H709 0.984 . S
N703 C696 1.356 . S
N703 H706 0.984 . S
N703 H707 0.985 . S
H704 N699 0.984 . S
H705 N699 0.985 . S
H706 N703 0.984 . S
H707 N703 0.985 . S
H708 N702 0.984 . S
H709 N702 0.984 . S
H710 N698 0.984 . S
H711 N698 0.985 . S
C712 C713 1.363 . S
C712 C718 1.379 . S
C712 N720 1.356 . S
C713 C712 1.363 . S
C713 C719 1.363 . S
C714 C715 1.363 . S
C714 C719 1.379 . S
C714 N721 1.356 . S
C715 C714 1.363 . S
C715 C718 1.363 . S
N716 C718 1.356 . S
N716 H728 0.984 . S
N716 H729 0.985 . S
N717 C719 1.356 . S
N717 H722 0.984 . S
N717 H723 0.985 . S
C718 C712 1.379 . S
C718 C715 1.363 . S
C718 N716 1.356 . S
C719 C713 1.363 . S
C719 C714 1.379 . S
C719 N717 1.356 . S
N720 C712 1.356 . S
N720 H726 0.984 . S
N720 H727 0.984 . S
N721 C714 1.356 . S
N721 H724 0.984 . S
N721 H725 0.985 . S
H722 N717 0.984 . S
H723 N717 0.985 . S
H724 N721 0.984 . S
H725 N721 0.985 . S
H726 N720 0.984 . S
H727 N720 0.984 . S
H728 N716 0.984 . S
H729 N716 0.985 . S
C730 C731 1.363 . S
C730 C736 1.379 . S
C730 N738 1.356 . S
C731 C730 1.363 . S
C731 C737 1.363 . S
C732 C733 1.363 . S
C732 C737 1.379 . S
C732 N739 1.356 . S
C733 C732 1.363 . S
C733 C736 1.363 . S
N734 C736 1.356 . S
N734 H746 0.984 . S
N734 H747 0.985 . S
N735 C737 1.356 . S
N735 H740 0.984 . S
N735 H741 0.985 . S
C736 C730 1.379 . S
C736 C733 1.363 . S
C736 N734 1.356 . S
C737 C731 1.363 . S
C737 C732 1.379 . S
C737 N735 1.356 . S
N738 C730 1.356 . S
N738 H744 0.984 . S
N738 H745 0.984 . S
N739 C732 1.356 . S
N739 H742 0.984 . S
N739 H743 0.985 . S
H740 N735 0.984 . S
H741 N735 0.985 . S
H742 N739 0.984 . S
H743 N739 0.985 . S
H744 N738 0.984 . S
H745 N738 0.984 . S
H746 N734 0.984 . S
H747 N734 0.985 . S
C748 C749 1.363 . S
C748 C754 1.379 . S
C748 N756 1.356 . S
C749 C748 1.363 . S
C749 C755 1.363 . S
C750 C751 1.363 . S
C750 C755 1.379 . S
C750 N757 1.356 . S
C751 C750 1.363 . S
C751 C754 1.363 . S
N752 C754 1.356 . S
N752 H764 0.984 . S
N752 H765 0.985 . S
N753 C755 1.356 . S
N753 H758 0.984 . S
N753 H759 0.985 . S
C754 C748 1.379 . S
C754 C751 1.363 . S
C754 N752 1.356 . S
C755 C749 1.363 . S
C755 C750 1.379 . S
C755 N753 1.356 . S
N756 C748 1.356 . S
N756 H762 0.984 . S
N756 H763 0.984 . S
N757 C750 1.356 . S
N757 H760 0.984 . S
N757 H761 0.985 . S
H758 N753 0.984 . S
H759 N753 0.985 . S
H760 N757 0.984 . S
H761 N757 0.985 . S
H762 N756 0.984 . S
H763 N756 0.984 . S
H764 N752 0.984 . S
H765 N752 0.985 . S
C766 C767 1.363 . S
C766 C772 1.379 . S
C766 N774 1.356 . S
C767 C766 1.363 . S
C767 C773 1.363 . S
C768 C769 1.363 . S
C768 C773 1.379 . S
C768 N775 1.356 . S
C769 C768 1.363 . S
C769 C772 1.363 . S
N770 C772 1.356 . S
N770 H782 0.984 . S
N770 H783 0.985 . S
N771 C773 1.356 . S
N771 H776 0.984 . S
N771 H777 0.985 . S
C772 C766 1.379 . S
C772 C769 1.363 . S
C772 N770 1.356 . S
C773 C767 1.363 . S
C773 C768 1.379 . S
C773 N771 1.356 . S
N774 C766 1.356 . S
N774 H780 0.984 . S
N774 H781 0.984 . S
N775 C768 1.356 . S
N775 H778 0.984 . S
N775 H779 0.985 . S
H776 N771 0.984 . S
H777 N771 0.985 . S
H778 N775 0.984 . S
H779 N775 0.985 . S
H780 N774 0.984 . S
H781 N774 0.984 . S
H782 N770 0.984 . S
H783 N770 0.985 . S
C784 C785 1.363 . S
C784 C790 1.379 . S
C784 N792 1.356 . S
C785 C784 1.363 . S
C785 C791 1.363 . S
C786 C787 1.363 . S
C786 C791 1.379 . S
C786 N793 1.356 . S
C787 C786 1.363 . S
C787 C790 1.363 . S
N788 C790 1.356 . S
N788 H800 0.984 . S
N788 H801 0.985 . S
N789 C791 1.356 . S
N789 H794 0.984 . S
N789 H795 0.985 . S
C790 C784 1.379 . S
C790 C787 1.363 . S
C790 N788 1.356 . S
C791 C785 1.363 . S
C791 C786 1.379 . S
C791 N789 1.356 . S
N792 C784 1.356 . S
N792 H798 0.984 . S
N792 H799 0.984 . S
N793 C786 1.356 . S
N793 H796 0.984 . S
N793 H797 0.985 . S
H794 N789 0.984 . S
H795 N789 0.985 . S
H796 N793 0.984 . S
H797 N793 0.985 . S
H798 N792 0.984 . S
H799 N792 0.984 . S
H800 N788 0.984 . S
H801 N788 0.985 . S
C802 C803 1.363 . S
C802 C808 1.379 . S
C802 N810 1.356 . S
C803 C802 1.363 . S
C803 C809 1.363 . S
C804 C805 1.363 . S
C804 C809 1.379 . S
C804 N811 1.356 . S
C805 C804 1.363 . S
C805 C808 1.363 . S
N806 C808 1.356 . S
N806 H818 0.984 . S
N806 H819 0.985 . S
N807 C809 1.356 . S
N807 H812 0.984 . S
N807 H813 0.985 . S
C808 C802 1.379 . S
C808 C805 1.363 . S
C808 N806 1.356 . S
C809 C803 1.363 . S
C809 C804 1.379 . S
C809 N807 1.356 . S
N810 C802 1.356 . S
N810 H816 0.984 . S
N810 H817 0.984 . S
N811 C804 1.356 . S
N811 H814 0.984 . S
N811 H815 0.985 . S
H812 N807 0.984 . S
H813 N807 0.985 . S
H814 N811 0.984 . S
H815 N811 0.985 . S
H816 N810 0.984 . S
H817 N810 0.984 . S
H818 N806 0.984 . S
H819 N806 0.985 . S
C820 C821 1.363 . S
C820 C826 1.379 . S
C820 N828 1.356 . S
C821 C820 1.363 . S
C821 C827 1.363 . S
C822 C823 1.363 . S
C822 C827 1.379 . S
C822 N829 1.356 . S
C823 C822 1.363 . S
C823 C826 1.363 . S
N824 C826 1.356 . S
N824 H836 0.984 . S
N824 H837 0.985 . S
N825 C827 1.356 . S
N825 H830 0.984 . S
N825 H831 0.985 . S
C826 C820 1.379 . S
C826 C823 1.363 . S
C826 N824 1.356 . S
C827 C821 1.363 . S
C827 C822 1.379 . S
C827 N825 1.356 . S
N828 C820 1.356 . S
N828 H834 0.984 . S
N828 H835 0.984 . S
N829 C822 1.356 . S
N829 H832 0.984 . S
N829 H833 0.985 . S
H830 N825 0.984 . S
H831 N825 0.985 . S
H832 N829 0.984 . S
H833 N829 0.985 . S
H834 N828 0.984 . S
H835 N828 0.984 . S
H836 N824 0.984 . S
H837 N824 0.985 . S
C838 C839 1.363 . S
C838 C844 1.379 . S
C838 N846 1.356 . S
C839 C838 1.363 . S
C839 C845 1.363 . S
C840 C841 1.363 . S
C840 C845 1.379 . S
C840 N847 1.356 . S
C841 C840 1.363 . S
C841 C844 1.363 . S
N842 C844 1.356 . S
N842 H854 0.984 . S
N842 H855 0.985 . S
N843 C845 1.356 . S
N843 H848 0.984 . S
N843 H849 0.985 . S
C844 C838 1.379 . S
C844 C841 1.363 . S
C844 N842 1.356 . S
C845 C839 1.363 . S
C845 C840 1.379 . S
C845 N843 1.356 . S
N846 C838 1.356 . S
N846 H852 0.984 . S
N846 H853 0.984 . S
N847 C840 1.356 . S
N847 H850 0.984 . S
N847 H851 0.985 . S
H848 N843 0.984 . S
H849 N843 0.985 . S
H850 N847 0.984 . S
H851 N847 0.985 . S
H852 N846 0.984 . S
H853 N846 0.984 . S
H854 N842 0.984 . S
H855 N842 0.985 . S
C856 C857 1.363 . S
C856 C862 1.379 . S
C856 N864 1.356 . S
C857 C856 1.363 . S
C857 C863 1.363 . S
C858 C859 1.363 . S
C858 C863 1.379 . S
C858 N865 1.356 . S
C859 C858 1.363 . S
C859 C862 1.363 . S
N860 C862 1.356 . S
N860 H872 0.984 . S
N860 H873 0.985 . S
N861 C863 1.356 . S
N861 H866 0.984 . S
N861 H867 0.985 . S
C862 C856 1.379 . S
C862 C859 1.363 . S
C862 N860 1.356 . S
C863 C857 1.363 . S
C863 C858 1.379 . S
C863 N861 1.356 . S
N864 C856 1.356 . S
N864 H870 0.984 . S
N864 H871 0.984 . S
N865 C858 1.356 . S
N865 H868 0.984 . S
N865 H869 0.985 . S
H866 N861 0.984 . S
H867 N861 0.985 . S
H868 N865 0.984 . S
H869 N865 0.985 . S
H870 N864 0.984 . S
H871 N864 0.984 . S
H872 N860 0.984 . S
H873 N860 0.985 . S
C874 C875 1.363 . S
C874 C880 1.379 . S
C874 N882 1.356 . S
C875 C874 1.363 . S
C875 C881 1.363 . S
C876 C877 1.363 . S
C876 C881 1.379 . S
C876 N883 1.356 . S
C877 C876 1.363 . S
C877 C880 1.363 . S
N878 C880 1.356 . S
N878 H890 0.984 . S
N878 H891 0.985 . S
N879 C881 1.356 . S
N879 H884 0.984 . S
N879 H885 0.985 . S
C880 C874 1.379 . S
C880 C877 1.363 . S
C880 N878 1.356 . S
C881 C875 1.363 . S
C881 C876 1.379 . S
C881 N879 1.356 . S
N882 C874 1.356 . S
N882 H888 0.984 . S
N882 H889 0.984 . S
N883 C876 1.356 . S
N883 H886 0.984 . S
N883 H887 0.985 . S
H884 N879 0.984 . S
H885 N879 0.985 . S
H886 N883 0.984 . S
H887 N883 0.985 . S
H888 N882 0.984 . S
H889 N882 0.984 . S
H890 N878 0.984 . S
H891 N878 0.985 . S
C892 C893 1.363 . S
C892 C898 1.379 . S
C892 N900 1.356 . S
C893 C892 1.363 . S
C893 C899 1.363 . S
C894 C895 1.363 . S
C894 C899 1.379 . S
C894 N901 1.356 . S
C895 C894 1.363 . S
C895 C898 1.363 . S
N896 C898 1.356 . S
N896 H908 0.984 . S
N896 H909 0.985 . S
N897 C899 1.356 . S
N897 H902 0.984 . S
N897 H903 0.985 . S
C898 C892 1.379 . S
C898 C895 1.363 . S
C898 N896 1.356 . S
C899 C893 1.363 . S
C899 C894 1.379 . S
C899 N897 1.356 . S
N900 C892 1.356 . S
N900 H906 0.984 . S
N900 H907 0.984 . S
N901 C894 1.356 . S
N901 H904 0.984 . S
N901 H905 0.985 . S
H902 N897 0.984 . S
H903 N897 0.985 . S
H904 N901 0.984 . S
H905 N901 0.985 . S
H906 N900 0.984 . S
H907 N900 0.984 . S
H908 N896 0.984 . S
H909 N896 0.985 . S
C910 C911 1.363 . S
C910 C916 1.379 . S
C910 N918 1.356 . S
C911 C910 1.363 . S
C911 C917 1.363 . S
C912 C913 1.363 . S
C912 C917 1.379 . S
C912 N919 1.356 . S
C913 C912 1.363 . S
C913 C916 1.363 . S
N914 C916 1.356 . S
N914 H926 0.984 . S
N914 H927 0.985 . S
N915 C917 1.356 . S
N915 H920 0.984 . S
N915 H921 0.985 . S
C916 C910 1.379 . S
C916 C913 1.363 . S
C916 N914 1.356 . S
C917 C911 1.363 . S
C917 C912 1.379 . S
C917 N915 1.356 . S
N918 C910 1.356 . S
N918 H924 0.984 . S
N918 H925 0.984 . S
N919 C912 1.356 . S
N919 H922 0.984 . S
N919 H923 0.985 . S
H920 N915 0.984 . S
H921 N915 0.985 . S
H922 N919 0.984 . S
H923 N919 0.985 . S
H924 N918 0.984 . S
H925 N918 0.984 . S
H926 N914 0.984 . S
H927 N914 0.985 . S
C928 C929 1.363 . S
C928 C934 1.379 . S
C928 N936 1.356 . S
C929 C928 1.363 . S
C929 C935 1.363 . S
C930 C931 1.363 . S
C930 C935 1.379 . S
C930 N937 1.356 . S
C931 C930 1.363 . S
C931 C934 1.363 . S
N932 C934 1.356 . S
N932 H944 0.984 . S
N932 H945 0.985 . S
N933 C935 1.356 . S
N933 H938 0.984 . S
N933 H939 0.985 . S
C934 C928 1.379 . S
C934 C931 1.363 . S
C934 N932 1.356 . S
C935 C929 1.363 . S
C935 C930 1.379 . S
C935 N933 1.356 . S
N936 C928 1.356 . S
N936 H942 0.984 . S
N936 H943 0.984 . S
N937 C930 1.356 . S
N937 H940 0.984 . S
N937 H941 0.985 . S
H938 N933 0.984 . S
H939 N933 0.985 . S
H940 N937 0.984 . S
H941 N937 0.985 . S
H942 N936 0.984 . S
H943 N936 0.984 . S
H944 N932 0.984 . S
H945 N932 0.985 . S
C946 C947 1.363 . S
C946 C952 1.379 . S
C946 N954 1.356 . S
C947 C946 1.363 . S
C947 C953 1.363 . S
C948 C949 1.363 . S
C948 C953 1.379 . S
C948 N955 1.356 . S
C949 C948 1.363 . S
C949 C952 1.363 . S
N950 C952 1.356 . S
N950 H962 0.984 . S
N950 H963 0.985 . S
N951 C953 1.356 . S
N951 H956 0.984 . S
N951 H957 0.985 . S
C952 C946 1.379 . S
C952 C949 1.363 . S
C952 N950 1.356 . S
C953 C947 1.363 . S
C953 C948 1.379 . S
C953 N951 1.356 . S
N954 C946 1.356 . S
N954 H960 0.984 . S
N954 H961 0.984 . S
N955 C948 1.356 . S
N955 H958 0.984 . S
N955 H959 0.985 . S
H956 N951 0.984 . S
H957 N951 0.985 . S
H958 N955 0.984 . S
H959 N955 0.985 . S
H960 N954 0.984 . S
H961 N954 0.984 . S
H962 N950 0.984 . S
H963 N950 0.985 . S
C964 C965 1.363 . S
C964 C970 1.379 . S
C964 N972 1.356 . S
C965 C964 1.363 . S
C965 C971 1.363 . S
C966 C967 1.363 . S
C966 C971 1.379 . S
C966 N973 1.356 . S
C967 C966 1.363 . S
C967 C970 1.363 . S
N968 C970 1.356 . S
N968 H980 0.984 . S
N968 H981 0.985 . S
N969 C971 1.356 . S
N969 H974 0.984 . S
N969 H975 0.985 . S
C970 C964 1.379 . S
C970 C967 1.363 . S
C970 N968 1.356 . S
C971 C965 1.363 . S
C971 C966 1.379 . S
C971 N969 1.356 . S
N972 C964 1.356 . S
N972 H978 0.984 . S
N972 H979 0.984 . S
N973 C966 1.356 . S
N973 H976 0.984 . S
N973 H977 0.985 . S
H974 N969 0.984 . S
H975 N969 0.985 . S
H976 N973 0.984 . S
H977 N973 0.985 . S
H978 N972 0.984 . S
H979 N972 0.984 . S
H980 N968 0.984 . S
H981 N968 0.985 . S
C982 C983 1.363 . S
C982 C988 1.379 1_655 S
C982 N990 1.356 . S
C983 C982 1.363 . S
C983 C989 1.363 . S
C984 C985 1.363 . S
C984 C989 1.379 1_455 S
C984 N991 1.356 . S
C985 C984 1.363 . S
C985 C988 1.363 . S
N986 C988 1.356 . S
N986 H998 0.984 . S
N986 H999 0.985 . S
N987 C989 1.356 . S
N987 H992 0.984 . S
N987 H993 0.985 . S
C988 C982 1.379 1_455 S
C988 C985 1.363 . S
C988 N986 1.356 . S
C989 C983 1.363 . S
C989 C984 1.379 1_655 S
C989 N987 1.356 . S
N990 C982 1.356 . S
N990 H996 0.984 . S
N990 H997 0.984 . S
N991 C984 1.356 . S
N991 H994 0.984 . S
N991 H995 0.985 . S
H992 N987 0.984 . S
H993 N987 0.985 . S
H994 N991 0.984 . S
H995 N991 0.985 . S
H996 N990 0.984 . S
H997 N990 0.984 . S
H998 N986 0.984 . S
H999 N986 0.985 . S
C1000 C1001 1.363 . S
C1000 C1006 1.379 . S
C1000 N1008 1.356 . S
C1001 C1000 1.363 . S
C1001 C1007 1.363 . S
C1002 C1003 1.363 . S
C1002 C1007 1.379 . S
C1002 N1009 1.356 . S
C1003 C1002 1.363 . S
C1003 C1006 1.363 . S
N1004 C1006 1.356 . S
N1004 H1016 0.984 . S
N1004 H1017 0.985 . S
N1005 C1007 1.356 . S
N1005 H1010 0.984 . S
N1005 H1011 0.985 . S
C1006 C1000 1.379 . S
C1006 C1003 1.363 . S
C1006 N1004 1.356 . S
C1007 C1001 1.363 . S
C1007 C1002 1.379 . S
C1007 N1005 1.356 . S
N1008 C1000 1.356 . S
N1008 H1014 0.984 . S
N1008 H1015 0.984 . S
N1009 C1002 1.356 . S
N1009 H1012 0.984 . S
N1009 H1013 0.985 . S
H1010 N1005 0.984 . S
H1011 N1005 0.985 . S
H1012 N1009 0.984 . S
H1013 N1009 0.985 . S
H1014 N1008 0.984 . S
H1015 N1008 0.984 . S
H1016 N1004 0.984 . S
H1017 N1004 0.985 . S
C1018 C1019 1.363 . S
C1018 C1024 1.379 1_455 S
C1018 N1026 1.356 . S
C1019 C1018 1.363 . S
C1019 C1025 1.363 . S
C1020 C1021 1.363 . S
C1020 C1025 1.379 1_655 S
C1020 N1027 1.356 . S
C1021 C1020 1.363 . S
C1021 C1024 1.363 . S
N1022 C1024 1.356 . S
N1022 H1034 0.984 . S
N1022 H1035 0.985 . S
N1023 C1025 1.356 . S
N1023 H1028 0.984 . S
N1023 H1029 0.985 . S
C1024 C1018 1.379 1_655 S
C1024 C1021 1.363 . S
C1024 N1022 1.356 . S
C1025 C1019 1.363 . S
C1025 C1020 1.379 1_455 S
C1025 N1023 1.356 . S
N1026 C1018 1.356 . S
N1026 H1032 0.984 . S
N1026 H1033 0.984 . S
N1027 C1020 1.356 . S
N1027 H1030 0.984 . S
N1027 H1031 0.985 . S
H1028 N1023 0.984 . S
H1029 N1023 0.985 . S
H1030 N1027 0.984 . S
H1031 N1027 0.985 . S
H1032 N1026 0.984 . S
H1033 N1026 0.984 . S
H1034 N1022 0.984 . S
H1035 N1022 0.985 . S
C1036 C1037 1.363 . S
C1036 C1042 1.379 . S
C1036 N1044 1.356 . S
C1037 C1036 1.363 . S
C1037 C1043 1.363 . S
C1038 C1039 1.363 . S
C1038 C1043 1.379 . S
C1038 N1045 1.356 . S
C1039 C1038 1.363 . S
C1039 C1042 1.363 . S
N1040 C1042 1.356 . S
N1040 H1052 0.984 . S
N1040 H1053 0.985 . S
N1041 C1043 1.356 . S
N1041 H1046 0.984 . S
N1041 H1047 0.985 . S
C1042 C1036 1.379 . S
C1042 C1039 1.363 . S
C1042 N1040 1.356 . S
C1043 C1037 1.363 . S
C1043 C1038 1.379 . S
C1043 N1041 1.356 . S
N1044 C1036 1.356 . S
N1044 H1050 0.984 . S
N1044 H1051 0.984 . S
N1045 C1038 1.356 . S
N1045 H1048 0.984 . S
N1045 H1049 0.985 . S
H1046 N1041 0.984 . S
H1047 N1041 0.985 . S
H1048 N1045 0.984 . S
H1049 N1045 0.985 . S
H1050 N1044 0.984 . S
H1051 N1044 0.984 . S
H1052 N1040 0.984 . S
H1053 N1040 0.985 . S
C1054 C1055 1.363 . S
C1054 C1060 1.379 . S
C1054 N1062 1.356 . S
C1055 C1054 1.363 . S
C1055 C1061 1.363 . S
C1056 C1057 1.363 . S
C1056 C1061 1.379 . S
C1056 N1063 1.356 . S
C1057 C1056 1.363 . S
C1057 C1060 1.363 . S
N1058 C1060 1.356 . S
N1058 H1070 0.984 . S
N1058 H1071 0.985 . S
N1059 C1061 1.356 . S
N1059 H1064 0.984 . S
N1059 H1065 0.985 . S
C1060 C1054 1.379 . S
C1060 C1057 1.363 . S
C1060 N1058 1.356 . S
C1061 C1055 1.363 . S
C1061 C1056 1.379 . S
C1061 N1059 1.356 . S
N1062 C1054 1.356 . S
N1062 H1068 0.984 . S
N1062 H1069 0.984 . S
N1063 C1056 1.356 . S
N1063 H1066 0.984 . S
N1063 H1067 0.985 . S
H1064 N1059 0.984 . S
H1065 N1059 0.985 . S
H1066 N1063 0.984 . S
H1067 N1063 0.985 . S
H1068 N1062 0.984 . S
H1069 N1062 0.984 . S
H1070 N1058 0.984 . S
H1071 N1058 0.985 . S
C1072 C1073 1.363 . S
C1072 C1078 1.379 . S
C1072 N1080 1.356 . S
C1073 C1072 1.363 . S
C1073 C1079 1.363 . S
C1074 C1075 1.363 . S
C1074 C1079 1.379 . S
C1074 N1081 1.356 . S
C1075 C1074 1.363 . S
C1075 C1078 1.363 . S
N1076 C1078 1.356 . S
N1076 H1088 0.984 . S
N1076 H1089 0.985 . S
N1077 C1079 1.356 . S
N1077 H1082 0.984 . S
N1077 H1083 0.985 . S
C1078 C1072 1.379 . S
C1078 C1075 1.363 . S
C1078 N1076 1.356 . S
C1079 C1073 1.363 . S
C1079 C1074 1.379 . S
C1079 N1077 1.356 . S
N1080 C1072 1.356 . S
N1080 H1086 0.984 . S
N1080 H1087 0.984 . S
N1081 C1074 1.356 . S
N1081 H1084 0.984 . S
N1081 H1085 0.985 . S
H1082 N1077 0.984 . S
H1083 N1077 0.985 . S
H1084 N1081 0.984 . S
H1085 N1081 0.985 . S
H1086 N1080 0.984 . S
H1087 N1080 0.984 . S
H1088 N1076 0.984 . S
H1089 N1076 0.985 . S
C1090 C1091 1.363 . S
C1090 C1096 1.379 . S
C1090 N1098 1.356 . S
C1091 C1090 1.363 . S
C1091 C1097 1.363 . S
C1092 C1093 1.363 . S
C1092 C1097 1.379 . S
C1092 N1099 1.356 . S
C1093 C1092 1.363 . S
C1093 C1096 1.363 . S
N1094 C1096 1.356 . S
N1094 H1106 0.984 . S
N1094 H1107 0.985 . S
N1095 C1097 1.356 . S
N1095 H1100 0.984 . S
N1095 H1101 0.985 . S
C1096 C1090 1.379 . S
C1096 C1093 1.363 . S
C1096 N1094 1.356 . S
C1097 C1091 1.363 . S
C1097 C1092 1.379 . S
C1097 N1095 1.356 . S
N1098 C1090 1.356 . S
N1098 H1104 0.984 . S
N1098 H1105 0.984 . S
N1099 C1092 1.356 . S
N1099 H1102 0.984 . S
N1099 H1103 0.985 . S
H1100 N1095 0.984 . S
H1101 N1095 0.985 . S
H1102 N1099 0.984 . S
H1103 N1099 0.985 . S
H1104 N1098 0.984 . S
H1105 N1098 0.984 . S
H1106 N1094 0.984 . S
H1107 N1094 0.985 . S
C1108 C1109 1.363 . S
C1108 C1114 1.379 . S
C1108 N1116 1.356 . S
C1109 C1108 1.363 . S
C1109 C1115 1.363 . S
C1110 C1111 1.363 . S
C1110 C1115 1.379 . S
C1110 N1117 1.356 . S
C1111 C1110 1.363 . S
C1111 C1114 1.363 . S
N1112 C1114 1.356 . S
N1112 H1124 0.984 . S
N1112 H1125 0.985 . S
N1113 C1115 1.356 . S
N1113 H1118 0.984 . S
N1113 H1119 0.985 . S
C1114 C1108 1.379 . S
C1114 C1111 1.363 . S
C1114 N1112 1.356 . S
C1115 C1109 1.363 . S
C1115 C1110 1.379 . S
C1115 N1113 1.356 . S
N1116 C1108 1.356 . S
N1116 H1122 0.984 . S
N1116 H1123 0.984 . S
N1117 C1110 1.356 . S
N1117 H1120 0.984 . S
N1117 H1121 0.985 . S
H1118 N1113 0.984 . S
H1119 N1113 0.985 . S
H1120 N1117 0.984 . S
H1121 N1117 0.985 . S
H1122 N1116 0.984 . S
H1123 N1116 0.984 . S
H1124 N1112 0.984 . S
H1125 N1112 0.985 . S
C1126 C1127 1.363 . S
C1126 C1132 1.379 . S
C1126 N1134 1.356 . S
C1127 C1126 1.363 . S
C1127 C1133 1.363 . S
C1128 C1129 1.363 . S
C1128 C1133 1.379 . S
C1128 N1135 1.356 . S
C1129 C1128 1.363 . S
C1129 C1132 1.363 . S
N1130 C1132 1.356 . S
N1130 H1142 0.984 . S
N1130 H1143 0.985 . S
N1131 C1133 1.356 . S
N1131 H1136 0.984 . S
N1131 H1137 0.985 . S
C1132 C1126 1.379 . S
C1132 C1129 1.363 . S
C1132 N1130 1.356 . S
C1133 C1127 1.363 . S
C1133 C1128 1.379 . S
C1133 N1131 1.356 . S
N1134 C1126 1.356 . S
N1134 H1140 0.984 . S
N1134 H1141 0.984 . S
N1135 C1128 1.356 . S
N1135 H1138 0.984 . S
N1135 H1139 0.985 . S
H1136 N1131 0.984 . S
H1137 N1131 0.985 . S
H1138 N1135 0.984 . S
H1139 N1135 0.985 . S
H1140 N1134 0.984 . S
H1141 N1134 0.984 . S
H1142 N1130 0.984 . S
H1143 N1130 0.985 . S
C1144 C1145 1.363 . S
C1144 C1150 1.379 1_655 S
C1144 N1152 1.356 . S
C1145 C1144 1.363 . S
C1145 C1151 1.363 . S
C1146 C1147 1.363 . S
C1146 C1151 1.379 1_455 S
C1146 N1153 1.356 . S
C1147 C1146 1.363 . S
C1147 C1150 1.363 . S
N1148 C1150 1.356 . S
N1148 H1160 0.984 . S
N1148 H1161 0.985 . S
N1149 C1151 1.356 . S
N1149 H1154 0.984 . S
N1149 H1155 0.985 . S
C1150 C1144 1.379 1_455 S
C1150 C1147 1.363 . S
C1150 N1148 1.356 . S
C1151 C1145 1.363 . S
C1151 C1146 1.379 1_655 S
C1151 N1149 1.356 . S
N1152 C1144 1.356 . S
N1152 H1158 0.984 . S
N1152 H1159 0.984 . S
N1153 C1146 1.356 . S
N1153 H1156 0.984 . S
N1153 H1157 0.985 . S
H1154 N1149 0.984 . S
H1155 N1149 0.985 . S
H1156 N1153 0.984 . S
H1157 N1153 0.985 . S
H1158 N1152 0.984 . S
H1159 N1152 0.984 . S
H1160 N1148 0.984 . S
H1161 N1148 0.985 . S
C1162 C1163 1.363 . S
C1162 C1168 1.379 . S
C1162 N1170 1.356 . S
C1163 C1162 1.363 . S
C1163 C1169 1.363 . S
C1164 C1165 1.363 . S
C1164 C1169 1.379 . S
C1164 N1171 1.356 . S
C1165 C1164 1.363 . S
C1165 C1168 1.363 . S
N1166 C1168 1.356 . S
N1166 H1178 0.984 . S
N1166 H1179 0.985 . S
N1167 C1169 1.356 . S
N1167 H1172 0.984 . S
N1167 H1173 0.985 . S
C1168 C1162 1.379 . S
C1168 C1165 1.363 . S
C1168 N1166 1.356 . S
C1169 C1163 1.363 . S
C1169 C1164 1.379 . S
C1169 N1167 1.356 . S
N1170 C1162 1.356 . S
N1170 H1176 0.984 . S
N1170 H1177 0.984 . S
N1171 C1164 1.356 . S
N1171 H1174 0.984 . S
N1171 H1175 0.985 . S
H1172 N1167 0.984 . S
H1173 N1167 0.985 . S
H1174 N1171 0.984 . S
H1175 N1171 0.985 . S
H1176 N1170 0.984 . S
H1177 N1170 0.984 . S
H1178 N1166 0.984 . S
H1179 N1166 0.985 . S
C1180 C1181 1.363 . S
C1180 C1186 1.379 . S
C1180 N1188 1.356 . S
C1181 C1180 1.363 . S
C1181 C1187 1.363 . S
C1182 C1183 1.363 . S
C1182 C1187 1.379 . S
C1182 N1189 1.356 . S
C1183 C1182 1.363 . S
C1183 C1186 1.363 . S
N1184 C1186 1.356 . S
N1184 H1196 0.984 . S
N1184 H1197 0.985 . S
N1185 C1187 1.356 . S
N1185 H1190 0.984 . S
N1185 H1191 0.985 . S
C1186 C1180 1.379 . S
C1186 C1183 1.363 . S
C1186 N1184 1.356 . S
C1187 C1181 1.363 . S
C1187 C1182 1.379 . S
C1187 N1185 1.356 . S
N1188 C1180 1.356 . S
N1188 H1194 0.984 . S
N1188 H1195 0.984 . S
N1189 C1182 1.356 . S
N1189 H1192 0.984 . S
N1189 H1193 0.985 . S
H1190 N1185 0.984 . S
H1191 N1185 0.985 . S
H1192 N1189 0.984 . S
H1193 N1189 0.985 . S
H1194 N1188 0.984 . S
H1195 N1188 0.984 . S
H1196 N1184 0.984 . S
H1197 N1184 0.985 . S
C1198 C1199 1.363 . S
C1198 C1204 1.379 1_455 S
C1198 N1206 1.356 . S
C1199 C1198 1.363 . S
C1199 C1205 1.363 . S
C1200 C1201 1.363 . S
C1200 C1205 1.379 1_655 S
C1200 N1207 1.356 . S
C1201 C1200 1.363 . S
C1201 C1204 1.363 . S
N1202 C1204 1.356 . S
N1202 H1214 0.984 . S
N1202 H1215 0.985 . S
N1203 C1205 1.356 . S
N1203 H1208 0.984 . S
N1203 H1209 0.985 . S
C1204 C1198 1.379 1_655 S
C1204 C1201 1.363 . S
C1204 N1202 1.356 . S
C1205 C1199 1.363 . S
C1205 C1200 1.379 1_455 S
C1205 N1203 1.356 . S
N1206 C1198 1.356 . S
N1206 H1212 0.984 . S
N1206 H1213 0.984 . S
N1207 C1200 1.356 . S
N1207 H1210 0.984 . S
N1207 H1211 0.985 . S
H1208 N1203 0.984 . S
H1209 N1203 0.985 . S
H1210 N1207 0.984 . S
H1211 N1207 0.985 . S
H1212 N1206 0.984 . S
H1213 N1206 0.984 . S
H1214 N1202 0.984 . S
H1215 N1202 0.985 . S
C1216 C1217 1.363 . S
C1216 C1222 1.379 1_554 S
C1216 N1224 1.356 . S
C1217 C1216 1.363 . S
C1217 C1223 1.363 . S
C1218 C1219 1.363 1_554 S
C1218 C1223 1.379 . S
C1218 N1225 1.356 . S
C1219 C1218 1.363 1_556 S
C1219 C1222 1.363 . S
N1220 C1222 1.356 . S
N1220 H1232 0.984 . S
N1220 H1233 0.985 . S
N1221 C1223 1.356 . S
N1221 H1226 0.984 . S
N1221 H1227 0.985 . S
C1222 C1216 1.379 1_556 S
C1222 C1219 1.363 . S
C1222 N1220 1.356 . S
C1223 C1217 1.363 . S
C1223 C1218 1.379 . S
C1223 N1221 1.356 . S
N1224 C1216 1.356 . S
N1224 H1230 0.984 . S
N1224 H1231 0.984 . S
N1225 C1218 1.356 . S
N1225 H1228 0.984 1_554 S
N1225 H1229 0.985 . S
H1226 N1221 0.984 . S
H1227 N1221 0.985 . S
H1228 N1225 0.984 1_556 S
H1229 N1225 0.985 . S
H1230 N1224 0.984 . S
H1231 N1224 0.984 . S
H1232 N1220 0.984 . S
H1233 N1220 0.985 . S
C1234 C1235 1.363 . S
C1234 C1240 1.379 . S
C1234 N1242 1.356 . S
C1235 C1234 1.363 . S
C1235 C1241 1.363 . S
C1236 C1237 1.363 . S
C1236 C1241 1.379 . S
C1236 N1243 1.356 . S
C1237 C1236 1.363 . S
C1237 C1240 1.363 . S
N1238 C1240 1.356 . S
N1238 H1250 0.984 . S
N1238 H1251 0.985 . S
N1239 C1241 1.356 . S
N1239 H1244 0.984 . S
N1239 H1245 0.985 . S
C1240 C1234 1.379 . S
C1240 C1237 1.363 . S
C1240 N1238 1.356 . S
C1241 C1235 1.363 . S
C1241 C1236 1.379 . S
C1241 N1239 1.356 . S
N1242 C1234 1.356 . S
N1242 H1248 0.984 . S
N1242 H1249 0.984 . S
N1243 C1236 1.356 . S
N1243 H1246 0.984 . S
N1243 H1247 0.985 . S
H1244 N1239 0.984 . S
H1245 N1239 0.985 . S
H1246 N1243 0.984 . S
H1247 N1243 0.985 . S
H1248 N1242 0.984 . S
H1249 N1242 0.984 . S
H1250 N1238 0.984 . S
H1251 N1238 0.985 . S
C1252 C1253 1.363 . S
C1252 C1258 1.379 . S
C1252 N1260 1.356 . S
C1253 C1252 1.363 . S
C1253 C1259 1.363 . S
C1254 C1255 1.363 . S
C1254 C1259 1.379 . S
C1254 N1261 1.356 . S
C1255 C1254 1.363 . S
C1255 C1258 1.363 . S
N1256 C1258 1.356 . S
N1256 H1268 0.984 . S
N1256 H1269 0.985 . S
N1257 C1259 1.356 . S
N1257 H1262 0.984 . S
N1257 H1263 0.985 . S
C1258 C1252 1.379 . S
C1258 C1255 1.363 . S
C1258 N1256 1.356 . S
C1259 C1253 1.363 . S
C1259 C1254 1.379 . S
C1259 N1257 1.356 . S
N1260 C1252 1.356 . S
N1260 H1266 0.984 . S
N1260 H1267 0.984 . S
N1261 C1254 1.356 . S
N1261 H1264 0.984 . S
N1261 H1265 0.985 . S
H1262 N1257 0.984 . S
H1263 N1257 0.985 . S
H1264 N1261 0.984 . S
H1265 N1261 0.985 . S
H1266 N1260 0.984 . S
H1267 N1260 0.984 . S
H1268 N1256 0.984 . S
H1269 N1256 0.985 . S
C1270 C1271 1.363 . S
C1270 C1276 1.379 . S
C1270 N1278 1.356 . S
C1271 C1270 1.363 . S
C1271 C1277 1.363 . S
C1272 C1273 1.363 . S
C1272 C1277 1.379 . S
C1272 N1279 1.356 . S
C1273 C1272 1.363 . S
C1273 C1276 1.363 . S
N1274 C1276 1.356 . S
N1274 H1286 0.984 . S
N1274 H1287 0.985 . S
N1275 C1277 1.356 . S
N1275 H1280 0.984 . S
N1275 H1281 0.985 . S
C1276 C1270 1.379 . S
C1276 C1273 1.363 . S
C1276 N1274 1.356 . S
C1277 C1271 1.363 . S
C1277 C1272 1.379 . S
C1277 N1275 1.356 . S
N1278 C1270 1.356 . S
N1278 H1284 0.984 . S
N1278 H1285 0.984 . S
N1279 C1272 1.356 . S
N1279 H1282 0.984 . S
N1279 H1283 0.985 . S
H1280 N1275 0.984 . S
H1281 N1275 0.985 . S
H1282 N1279 0.984 . S
H1283 N1279 0.985 . S
H1284 N1278 0.984 . S
H1285 N1278 0.984 . S
H1286 N1274 0.984 . S
H1287 N1274 0.985 . S
C1288 C1289 1.363 . S
C1288 C1294 1.379 1_554 S
C1288 N1296 1.356 . S
C1289 C1288 1.363 . S
C1289 C1295 1.363 1_554 S
C1290 C1291 1.363 . S
C1290 C1295 1.379 . S
C1290 N1297 1.356 . S
C1291 C1290 1.363 . S
C1291 C1294 1.363 . S
N1292 C1294 1.356 . S
N1292 H1304 0.984 . S
N1292 H1305 0.985 . S
N1293 C1295 1.356 . S
N1293 H1298 0.984 1_556 S
N1293 H1299 0.985 . S
C1294 C1288 1.379 1_556 S
C1294 C1291 1.363 . S
C1294 N1292 1.356 . S
C1295 C1289 1.363 1_556 S
C1295 C1290 1.379 . S
C1295 N1293 1.356 . S
N1296 C1288 1.356 . S
N1296 H1302 0.984 . S
N1296 H1303 0.984 . S
N1297 C1290 1.356 . S
N1297 H1300 0.984 . S
N1297 H1301 0.985 . S
H1298 N1293 0.984 1_554 S
H1299 N1293 0.985 . S
H1300 N1297 0.984 . S
H1301 N1297 0.985 . S
H1302 N1296 0.984 . S
H1303 N1296 0.984 . S
H1304 N1292 0.984 . S
H1305 N1292 0.985 . S
C1306 C1307 1.363 . S
C1306 C1312 1.379 . S
C1306 N1314 1.356 . S
C1307 C1306 1.363 . S
C1307 C1313 1.363 . S
C1308 C1309 1.363 . S
C1308 C1313 1.379 . S
C1308 N1315 1.356 . S
C1309 C1308 1.363 . S
C1309 C1312 1.363 . S
N1310 C1312 1.356 . S
N1310 H1322 0.984 . S
N1310 H1323 0.985 . S
N1311 C1313 1.356 . S
N1311 H1316 0.984 . S
N1311 H1317 0.985 . S
C1312 C1306 1.379 . S
C1312 C1309 1.363 . S
C1312 N1310 1.356 . S
C1313 C1307 1.363 . S
C1313 C1308 1.379 . S
C1313 N1311 1.356 . S
N1314 C1306 1.356 . S
N1314 H1320 0.984 . S
N1314 H1321 0.984 . S
N1315 C1308 1.356 . S
N1315 H1318 0.984 . S
N1315 H1319 0.985 . S
H1316 N1311 0.984 . S
H1317 N1311 0.985 . S
H1318 N1315 0.984 . S
H1319 N1315 0.985 . S
H1320 N1314 0.984 . S
H1321 N1314 0.984 . S
H1322 N1310 0.984 . S
H1323 N1310 0.985 . S
C1324 C1325 1.363 . S
C1324 C1330 1.379 . S
C1324 N1332 1.356 . S
C1325 C1324 1.363 . S
C1325 C1331 1.363 . S
C1326 C1327 1.363 . S
C1326 C1331 1.379 . S
C1326 N1333 1.356 . S
C1327 C1326 1.363 . S
C1327 C1330 1.363 . S
N1328 C1330 1.356 . S
N1328 H1340 0.984 . S
N1328 H1341 0.985 . S
N1329 C1331 1.356 . S
N1329 H1334 0.984 . S
N1329 H1335 0.985 . S
C1330 C1324 1.379 . S
C1330 C1327 1.363 . S
C1330 N1328 1.356 . S
C1331 C1325 1.363 . S
C1331 C1326 1.379 . S
C1331 N1329 1.356 . S
N1332 C1324 1.356 . S
N1332 H1338 0.984 . S
N1332 H1339 0.984 . S
N1333 C1326 1.356 . S
N1333 H1336 0.984 . S
N1333 H1337 0.985 . S
H1334 N1329 0.984 . S
H1335 N1329 0.985 . S
H1336 N1333 0.984 . S
H1337 N1333 0.985 . S
H1338 N1332 0.984 . S
H1339 N1332 0.984 . S
H1340 N1328 0.984 . S
H1341 N1328 0.985 . S
C1342 C1343 1.363 . S
C1342 C1348 1.379 . S
C1342 N1350 1.356 . S
C1343 C1342 1.363 . S
C1343 C1349 1.363 . S
C1344 C1345 1.363 . S
C1344 C1349 1.379 . S
C1344 N1351 1.356 . S
C1345 C1344 1.363 . S
C1345 C1348 1.363 . S
N1346 C1348 1.356 . S
N1346 H1358 0.984 . S
N1346 H1359 0.985 . S
N1347 C1349 1.356 . S
N1347 H1352 0.984 . S
N1347 H1353 0.985 . S
C1348 C1342 1.379 . S
C1348 C1345 1.363 . S
C1348 N1346 1.356 . S
C1349 C1343 1.363 . S
C1349 C1344 1.379 . S
C1349 N1347 1.356 . S
N1350 C1342 1.356 . S
N1350 H1356 0.984 . S
N1350 H1357 0.984 . S
N1351 C1344 1.356 . S
N1351 H1354 0.984 . S
N1351 H1355 0.985 . S
H1352 N1347 0.984 . S
H1353 N1347 0.985 . S
H1354 N1351 0.984 . S
H1355 N1351 0.985 . S
H1356 N1350 0.984 . S
H1357 N1350 0.984 . S
H1358 N1346 0.984 . S
H1359 N1346 0.985 . S
C1360 C1361 1.363 . S
C1360 C1366 1.379 1_565 S
C1360 N1368 1.356 . S
C1361 C1360 1.363 . S
C1361 C1367 1.363 . S
C1362 C1363 1.363 1_565 S
C1362 C1367 1.379 . S
C1362 N1369 1.356 . S
C1363 C1362 1.363 1_545 S
C1363 C1366 1.363 . S
N1364 C1366 1.356 . S
N1364 H1376 0.984 . S
N1364 H1377 0.985 . S
N1365 C1367 1.356 . S
N1365 H1370 0.984 . S
N1365 H1371 0.985 . S
C1366 C1360 1.379 1_545 S
C1366 C1363 1.363 . S
C1366 N1364 1.356 . S
C1367 C1361 1.363 . S
C1367 C1362 1.379 . S
C1367 N1365 1.356 . S
N1368 C1360 1.356 . S
N1368 H1374 0.984 1_565 S
N1368 H1375 0.984 . S
N1369 C1362 1.356 . S
N1369 H1372 0.984 1_565 S
N1369 H1373 0.985 . S
H1370 N1365 0.984 . S
H1371 N1365 0.985 . S
H1372 N1369 0.984 1_545 S
H1373 N1369 0.985 . S
H1374 N1368 0.984 1_545 S
H1375 N1368 0.984 . S
H1376 N1364 0.984 . S
H1377 N1364 0.985 . S
C1378 C1379 1.363 . S
C1378 C1384 1.379 . S
C1378 N1386 1.356 . S
C1379 C1378 1.363 . S
C1379 C1385 1.363 . S
C1380 C1381 1.363 . S
C1380 C1385 1.379 . S
C1380 N1387 1.356 . S
C1381 C1380 1.363 . S
C1381 C1384 1.363 . S
N1382 C1384 1.356 . S
N1382 H1394 0.984 . S
N1382 H1395 0.985 . S
N1383 C1385 1.356 . S
N1383 H1388 0.984 . S
N1383 H1389 0.985 . S
C1384 C1378 1.379 . S
C1384 C1381 1.363 . S
C1384 N1382 1.356 . S
C1385 C1379 1.363 . S
C1385 C1380 1.379 . S
C1385 N1383 1.356 . S
N1386 C1378 1.356 . S
N1386 H1392 0.984 . S
N1386 H1393 0.984 . S
N1387 C1380 1.356 . S
N1387 H1390 0.984 . S
N1387 H1391 0.985 . S
H1388 N1383 0.984 . S
H1389 N1383 0.985 . S
H1390 N1387 0.984 . S
H1391 N1387 0.985 . S
H1392 N1386 0.984 . S
H1393 N1386 0.984 . S
H1394 N1382 0.984 . S
H1395 N1382 0.985 . S
C1396 C1397 1.363 . S
C1396 C1402 1.379 1_554 S
C1396 N1404 1.356 . S
C1397 C1396 1.363 . S
C1397 C1403 1.363 1_565 S
C1398 C1399 1.363 1_554 S
C1398 C1403 1.379 . S
C1398 N1405 1.356 . S
C1399 C1398 1.363 1_556 S
C1399 C1402 1.363 1_545 S
N1400 C1402 1.356 . S
N1400 H1412 0.984 . S
N1400 H1413 0.985 1_565 S
N1401 C1403 1.356 . S
N1401 H1406 0.984 1_545 S
N1401 H1407 0.985 . S
C1402 C1396 1.379 1_556 S
C1402 C1399 1.363 1_565 S
C1402 N1400 1.356 . S
C1403 C1397 1.363 1_545 S
C1403 C1398 1.379 . S
C1403 N1401 1.356 . S
N1404 C1396 1.356 . S
N1404 H1410 0.984 . S
N1404 H1411 0.984 . S
N1405 C1398 1.356 . S
N1405 H1408 0.984 1_554 S
N1405 H1409 0.985 . S
H1406 N1401 0.984 1_565 S
H1407 N1401 0.985 . S
H1408 N1405 0.984 1_556 S
H1409 N1405 0.985 . S
H1410 N1404 0.984 . S
H1411 N1404 0.984 . S
H1412 N1400 0.984 . S
H1413 N1400 0.985 1_545 S
C1414 C1415 1.363 . S
C1414 C1420 1.379 . S
C1414 N1422 1.356 . S
C1415 C1414 1.363 . S
C1415 C1421 1.363 . S
C1416 C1417 1.363 . S
C1416 C1421 1.379 . S
C1416 N1423 1.356 . S
C1417 C1416 1.363 . S
C1417 C1420 1.363 . S
N1418 C1420 1.356 . S
N1418 H1430 0.984 . S
N1418 H1431 0.985 . S
N1419 C1421 1.356 . S
N1419 H1424 0.984 . S
N1419 H1425 0.985 . S
C1420 C1414 1.379 . S
C1420 C1417 1.363 . S
C1420 N1418 1.356 . S
C1421 C1415 1.363 . S
C1421 C1416 1.379 . S
C1421 N1419 1.356 . S
N1422 C1414 1.356 . S
N1422 H1428 0.984 . S
N1422 H1429 0.984 . S
N1423 C1416 1.356 . S
N1423 H1426 0.984 . S
N1423 H1427 0.985 . S
H1424 N1419 0.984 . S
H1425 N1419 0.985 . S
H1426 N1423 0.984 . S
H1427 N1423 0.985 . S
H1428 N1422 0.984 . S
H1429 N1422 0.984 . S
H1430 N1418 0.984 . S
H1431 N1418 0.985 . S
C1432 C1433 1.363 1_545 S
C1432 C1438 1.379 . S
C1432 N1440 1.356 . S
C1433 C1432 1.363 1_565 S
C1433 C1439 1.363 . S
C1434 C1435 1.363 1_565 S
C1434 C1439 1.379 . S
C1434 N1441 1.356 . S
C1435 C1434 1.363 1_545 S
C1435 C1438 1.363 . S
N1436 C1438 1.356 . S
N1436 H1448 0.984 . S
N1436 H1449 0.985 . S
N1437 C1439 1.356 . S
N1437 H1442 0.984 . S
N1437 H1443 0.985 . S
C1438 C1432 1.379 . S
C1438 C1435 1.363 . S
C1438 N1436 1.356 . S
C1439 C1433 1.363 . S
C1439 C1434 1.379 . S
C1439 N1437 1.356 . S
N1440 C1432 1.356 . S
N1440 H1446 0.984 . S
N1440 H1447 1.007 . S
N1441 C1434 1.356 . S
N1441 H1444 0.984 1_565 S
N1441 H1445 0.985 . S
H1442 N1437 0.984 . S
H1443 N1437 0.985 . S
H1444 N1441 0.984 1_545 S
H1445 N1441 0.985 . S
H1446 N1440 0.984 . S
H1447 N1440 1.007 . S
H1448 N1436 0.984 . S
H1449 N1436 0.985 . S
C1450 C1451 1.363 . S
C1450 C1456 1.379 . S
C1450 N1458 1.356 . S
C1451 C1450 1.363 . S
C1451 C1457 1.363 . S
C1452 C1453 1.363 . S
C1452 C1457 1.379 . S
C1452 N1459 1.356 . S
C1453 C1452 1.363 . S
C1453 C1456 1.363 . S
N1454 C1456 1.356 . S
N1454 H1466 0.984 . S
N1454 H1467 0.985 . S
N1455 C1457 1.356 . S
N1455 H1460 0.984 . S
N1455 H1461 0.985 . S
C1456 C1450 1.379 . S
C1456 C1453 1.363 . S
C1456 N1454 1.356 . S
C1457 C1451 1.363 . S
C1457 C1452 1.379 . S
C1457 N1455 1.356 . S
N1458 C1450 1.356 . S
N1458 H1464 0.984 . S
N1458 H1465 0.984 . S
N1459 C1452 1.356 . S
N1459 H1462 0.984 . S
N1459 H1463 0.985 . S
H1460 N1455 0.984 . S
H1461 N1455 0.985 . S
H1462 N1459 0.984 . S
H1463 N1459 0.985 . S
H1464 N1458 0.984 . S
H1465 N1458 0.984 . S
H1466 N1454 0.984 . S
H1467 N1454 0.985 . S
C1468 C1469 1.363 . S
C1468 C1474 1.379 1_556 S
C1468 N1476 1.356 . S
C1469 C1468 1.363 . S
C1469 C1475 1.363 1_545 S
C1470 C1471 1.363 1_556 S
C1470 C1475 1.379 . S
C1470 N1477 1.356 . S
C1471 C1470 1.363 1_554 S
C1471 C1474 1.363 1_565 S
N1472 C1474 1.356 . S
N1472 H1484 0.984 . S
N1472 H1485 0.985 1_545 S
N1473 C1475 1.356 . S
N1473 H1478 0.984 1_565 S
N1473 H1479 0.985 . S
C1474 C1468 1.379 1_554 S
C1474 C1471 1.363 1_545 S
C1474 N1472 1.356 . S
C1475 C1469 1.363 1_565 S
C1475 C1470 1.379 . S
C1475 N1473 1.356 . S
N1476 C1468 1.356 . S
N1476 H1482 0.984 . S
N1476 H1483 0.984 . S
N1477 C1470 1.356 . S
N1477 H1480 0.984 1_556 S
N1477 H1481 0.985 . S
H1478 N1473 0.984 1_545 S
H1479 N1473 0.985 . S
H1480 N1477 0.984 1_554 S
H1481 N1477 0.985 . S
H1482 N1476 0.984 . S
H1483 N1476 0.984 . S
H1484 N1472 0.984 . S
H1485 N1472 0.985 1_565 S
C1486 C1487 1.363 . S
C1486 C1492 1.379 . S
C1486 N1494 1.356 . S
C1487 C1486 1.363 . S
C1487 C1493 1.363 . S
C1488 C1489 1.363 . S
C1488 C1493 1.379 . S
C1488 N1495 1.356 . S
C1489 C1488 1.363 . S
C1489 C1492 1.363 . S
N1490 C1492 1.356 . S
N1490 H1502 0.984 . S
N1490 H1503 0.985 . S
N1491 C1493 1.356 . S
N1491 H1496 0.984 . S
N1491 H1497 0.985 . S
C1492 C1486 1.379 . S
C1492 C1489 1.363 . S
C1492 N1490 1.356 . S
C1493 C1487 1.363 . S
C1493 C1488 1.379 . S
C1493 N1491 1.356 . S
N1494 C1486 1.356 . S
N1494 H1500 0.984 . S
N1494 H1501 0.984 . S
N1495 C1488 1.356 . S
N1495 H1498 0.984 . S
N1495 H1499 0.985 . S
H1496 N1491 0.984 . S
H1497 N1491 0.985 . S
H1498 N1495 0.984 . S
H1499 N1495 0.985 . S
H1500 N1494 0.984 . S
H1501 N1494 0.984 . S
H1502 N1490 0.984 . S
H1503 N1490 0.985 . S
C641 C26 1.609 . S
C643 C9 1.609 . S
C659 C49 1.477 . S
C661 C66 1.477 . S
C677 C89 1.636 . S
C679 C106 1.636 . S
C695 C129 1.843 . S
C697 C146 1.843 . S
C713 C186 1.477 . S
C715 C169 1.477 . S
C731 C209 1.636 . S
C733 C226 1.636 . S
C749 C266 1.843 . S
C751 C249 1.843 . S
C767 C289 1.609 . S
C769 C306 1.609 . S
C785 C329 1.609 . S
C787 C346 1.609 . S
C803 C369 1.477 . S
C805 C386 1.477 . S
C821 C409 1.636 . S
C823 C426 1.636 . S
C839 C466 1.843 . S
C841 C449 1.843 . S
C857 C489 1.477 . S
C859 C506 1.477 . S
C875 C529 1.636 . S
C877 C546 1.636 . S
C893 C569 1.843 . S
C895 C586 1.843 . S
C911 C626 1.609 . S
C913 C609 1.609 . S
C929 C22 1.905 . S
C931 C443 1.930 . S
C947 C42 1.612 . S
C949 C615 1.647 . S
C965 C82 1.792 . S
C967 C363 1.893 . S
C983 C122 1.545 . S
C985 C523 1.636 . S
C1001 C182 1.893 . S
C1003 C535 1.792 . S
C1019 C455 1.545 . S
C1021 C222 1.636 . S
C1037 C262 1.930 . S
C1039 C603 1.905 . S
C1055 C282 1.647 . S
C1057 C375 1.612 . S
C1073 C142 1.930 . S
C1075 C323 1.905 . S
C1091 C62 1.893 . S
C1093 C415 1.792 . S
C1109 C483 1.893 . S
C1111 C202 1.792 . S
C1127 C302 1.905 . S
C1129 C563 1.930 . S
C1145 C335 1.647 . S
C1147 C162 1.612 . S
C1163 C242 1.545 . S
C1165 C403 1.636 . S
C1181 C102 1.636 . S
C1183 C575 1.545 . S
C1199 C2 1.647 . S
C1201 C495 1.612 . S
C1217 C3 2.045 . S
C1219 C163 2.050 . S
C1235 C55 1.872 . S
C1237 C203 1.878 . S
C1253 C95 1.820 . S
C1255 C243 1.819 . S
C1271 C135 1.610 . S
C1273 C295 1.590 . S
C1289 C502 2.050 . S
C1291 C342 2.045 . S
C1307 C542 1.878 . S
C1309 C362 1.872 . S
C1325 C402 1.820 . S
C1327 C582 1.819 . S
C1343 C602 1.590 . S
C1345 C442 1.610 . S
C1361 C43 2.050 . S
C1363 C283 2.045 . S
C1379 C175 1.872 . S
C1381 C83 1.878 . S
C1397 C215 1.820 . S
C1399 C123 1.819 . S
C1415 C15 1.590 . S
C1417 C255 1.610 . S
C1433 C622 2.045 . S
C1435 C382 2.050 . S
C1451 C482 1.872 . S
C1453 C422 1.878 . S
C1469 C522 1.820 . S
C1471 C462 1.819 . S
C1487 C562 1.610 . S
C1489 C322 1.590 . S
