# Generated by pormake.
# Topology wjy, (5)-cn, num edge types: 1
# Building blocks:
#     Node 0, Type 0, BuildingBlock: XOMCOT_clean_sbu_0, # of connection points: 5
#     Node 1, Type 0, BuildingBlock: XOMCOT_clean_sbu_0, # of connection points: 5
#     Node 2, Type 0, BuildingBlock: XOMCOT_clean_sbu_0, # of connection points: 5
#     Node 3, Type 0, BuildingBlock: XOMCOT_clean_sbu_0, # of connection points: 5
#     Node 4, Type 0, BuildingBlock: XOMCOT_clean_sbu_0, # of connection points: 5
#     Node 5, Type 0, BuildingBlock: XOMCOT_clean_sbu_0, # of connection points: 5
#     Node 6, Type 0, BuildingBlock: XOMCOT_clean_sbu_0, # of connection points: 5
#     Node 7, Type 0, BuildingBlock: XOMCOT_clean_sbu_0, # of connection points: 5
#     Node 8, Type 0, BuildingBlock: XOMCOT_clean_sbu_0, # of connection points: 5
#     Node 9, Type 0, BuildingBlock: XOMCOT_clean_sbu_0, # of connection points: 5
#     Node 10, Type 0, BuildingBlock: XOMCOT_clean_sbu_0, # of connection points: 5
#     Node 11, Type 0, BuildingBlock: XOMCOT_clean_sbu_0, # of connection points: 5
#     Edge 12, Type (0, 0), BuildingBlock: EZIPEK_clean_linker_0, # of connection points: 2
#     Edge 13, Type (0, 0), BuildingBlock: EZIPEK_clean_linker_0, # of connection points: 2
#     Edge 14, Type (0, 0), BuildingBlock: EZIPEK_clean_linker_0, # of connection points: 2
#     Edge 15, Type (0, 0), BuildingBlock: EZIPEK_clean_linker_0, # of connection points: 2
#     Edge 16, Type (0, 0), BuildingBlock: EZIPEK_clean_linker_0, # of connection points: 2
#     Edge 17, Type (0, 0), BuildingBlock: EZIPEK_clean_linker_0, # of connection points: 2
#     Edge 18, Type (0, 0), BuildingBlock: EZIPEK_clean_linker_0, # of connection points: 2
#     Edge 19, Type (0, 0), BuildingBlock: EZIPEK_clean_linker_0, # of connection points: 2
#     Edge 20, Type (0, 0), BuildingBlock: EZIPEK_clean_linker_0, # of connection points: 2
#     Edge 21, Type (0, 0), BuildingBlock: EZIPEK_clean_linker_0, # of connection points: 2
#     Edge 22, Type (0, 0), BuildingBlock: EZIPEK_clean_linker_0, # of connection points: 2
#     Edge 23, Type (0, 0), BuildingBlock: EZIPEK_clean_linker_0, # of connection points: 2
#     Edge 24, Type (0, 0), BuildingBlock: EZIPEK_clean_linker_0, # of connection points: 2
#     Edge 25, Type (0, 0), BuildingBlock: EZIPEK_clean_linker_0, # of connection points: 2
#     Edge 26, Type (0, 0), BuildingBlock: EZIPEK_clean_linker_0, # of connection points: 2
#     Edge 27, Type (0, 0), BuildingBlock: EZIPEK_clean_linker_0, # of connection points: 2
#     Edge 28, Type (0, 0), BuildingBlock: EZIPEK_clean_linker_0, # of connection points: 2
#     Edge 29, Type (0, 0), BuildingBlock: EZIPEK_clean_linker_0, # of connection points: 2
#     Edge 30, Type (0, 0), BuildingBlock: EZIPEK_clean_linker_0, # of connection points: 2
#     Edge 31, Type (0, 0), BuildingBlock: EZIPEK_clean_linker_0, # of connection points: 2
#     Edge 32, Type (0, 0), BuildingBlock: EZIPEK_clean_linker_0, # of connection points: 2
#     Edge 33, Type (0, 0), BuildingBlock: EZIPEK_clean_linker_0, # of connection points: 2
#     Edge 34, Type (0, 0), BuildingBlock: EZIPEK_clean_linker_0, # of connection points: 2
#     Edge 35, Type (0, 0), BuildingBlock: EZIPEK_clean_linker_0, # of connection points: 2
#     Edge 36, Type (0, 0), BuildingBlock: EZIPEK_clean_linker_0, # of connection points: 2
#     Edge 37, Type (0, 0), BuildingBlock: EZIPEK_clean_linker_0, # of connection points: 2
#     Edge 38, Type (0, 0), BuildingBlock: EZIPEK_clean_linker_0, # of connection points: 2
#     Edge 39, Type (0, 0), BuildingBlock: EZIPEK_clean_linker_0, # of connection points: 2
#     Edge 40, Type (0, 0), BuildingBlock: EZIPEK_clean_linker_0, # of connection points: 2
#     Edge 41, Type (0, 0), BuildingBlock: EZIPEK_clean_linker_0, # of connection points: 2
# Relax obj value: 0.076
# Max RMSD: 0.166
# Mean RMSD: 0.166
data_MOF--net-wjy--node1-XOMCOT_clean_sbu_0--edge1-EZIPEK_clean_linker_0
_symmetry_space_group_name_H-M    P1
_symmetry_Int_Tables_number       1
_symmetry_cell_setting            triclinic
loop_
_symmetry_equiv_pos_as_xyz
'x, y, z'
_cell_length_a     57.524056
_cell_length_b     57.484298
_cell_length_c     13.61784
_cell_angle_alpha  90.087881
_cell_angle_beta   90.073298
_cell_angle_gamma 120.03062
loop_
_atom_site_label
_atom_site_type_symbol
_atom_site_fract_x
_atom_site_fract_y
_atom_site_fract_z
_atom_type_partial_charge
Co0 Co 0.4626 0.1002 0.07614 0.0
C1 C 0.46245 0.10281 0.85904 0.0
C2 C 0.49638 0.1006 0.9133 0.0
C3 C 0.4966 0.0998 0.8121 0.0
N4 N 0.47504 0.10258 0.94257 0.0
N5 N 0.47521 0.10105 0.77863 0.0
H6 H 0.44394 0.10339 0.85705 0.0
H7 H 0.51024 0.09877 0.96201 0.0
C8 C 0.51366 0.13213 0.19634 0.0
O9 O 0.50313 0.144 0.24715 0.0
N10 N 0.44936 0.09714 0.2109 0.0
C11 C 0.42743 0.09835 0.23865 0.0
C12 C 0.42518 0.09668 0.33938 0.0
C13 C 0.45925 0.09326 0.29591 0.0
N14 N 0.44535 0.09374 0.37496 0.0
C15 C 0.44028 0.13442 0.04568 0.0
C16 C 0.48671 0.18248 0.0757 0.0
C17 C 0.46204 0.18198 0.08713 0.0
C18 C 0.43909 0.15795 0.0566 0.0
C19 C 0.48711 0.15853 0.06227 0.0
N20 N 0.46374 0.13449 0.06007 0.0
H21 H 0.42203 0.11593 0.02914 0.0
H22 H 0.50624 0.15947 0.05593 0.0
H23 H 0.4138 0.10037 0.18977 0.0
H24 H 0.47668 0.09096 0.30119 0.0
O25 O 0.42592 0.07531 0.03317 0.0
O26 O 0.45552 0.0639 0.08229 0.0
O27 O 0.50122 0.11739 0.12256 0.0
C28 C 0.43162 0.05638 0.04904 0.0
H29 H 0.5108 0.0976 0.76656 0.0
H30 H 0.41038 0.09827 0.38344 0.0
H31 H 0.50574 0.20103 0.07848 0.0
H32 H 0.42009 0.15661 0.04128 0.0
Co33 Co 0.36256 0.46602 0.25744 0.0
C34 C 0.36867 0.46221 0.04254 0.0
C35 C 0.37985 0.50226 0.08702 0.0
C36 C 0.38058 0.50146 0.98624 0.0
N37 N 0.37243 0.47763 0.12269 0.0
N38 N 0.3737 0.4763 0.95855 0.0
H39 H 0.36185 0.44095 0.04463 0.0
H40 H 0.38339 0.51949 0.13036 0.0
C41 C 0.38363 0.51656 0.38067 0.0
O42 O 0.36289 0.50528 0.43976 0.0
N43 N 0.35182 0.45416 0.39261 0.0
C44 C 0.32775 0.44695 0.43352 0.0
C45 C 0.3296 0.44549 0.53306 0.0
C46 C 0.36764 0.45567 0.46912 0.0
N47 N 0.35469 0.45125 0.55617 0.0
C48 C 0.30678 0.44347 0.20942 0.0
C49 C 0.30426 0.48991 0.23418 0.0
C50 C 0.28048 0.46556 0.21925 0.0
C51 C 0.2819 0.44224 0.20373 0.0
C52 C 0.32863 0.49022 0.24034 0.0
N53 N 0.32951 0.46693 0.23385 0.0
H54 H 0.30742 0.42516 0.20053 0.0
H55 H 0.34652 0.50932 0.25125 0.0
H56 H 0.31023 0.4447 0.39654 0.0
H57 H 0.38855 0.46138 0.46196 0.0
O58 O 0.35135 0.42901 0.22013 0.0
O59 O 0.39213 0.45928 0.26919 0.0
O60 O 0.38401 0.5049 0.30126 0.0
C61 C 0.37607 0.43516 0.23782 0.0
H62 H 0.38531 0.51796 0.93672 0.0
H63 H 0.31397 0.44177 0.58544 0.0
H64 H 0.30387 0.50843 0.24375 0.0
H65 H 0.26387 0.42314 0.19047 0.0
Co66 Co 0.89903 0.3615 0.43359 0.0
C67 C 0.8945 0.3574 0.21732 0.0
C68 C 0.89967 0.39503 0.26932 0.0
C69 C 0.89977 0.39534 0.16812 0.0
N70 N 0.8963 0.37124 0.29994 0.0
N71 N 0.89659 0.37174 0.13612 0.0
H72 H 0.89288 0.33782 0.21655 0.0
H73 H 0.90305 0.4115 0.317 0.0
C74 C 0.86539 0.38262 0.53521 0.0
O75 O 0.84866 0.35948 0.57608 0.0
N76 N 0.90257 0.3516 0.56918 0.0
C77 C 0.91215 0.33516 0.59474 0.0
C78 C 0.91299 0.33362 0.69539 0.0
C79 C 0.89824 0.36013 0.65664 0.0
N80 N 0.90421 0.34933 0.73356 0.0
C81 C 0.86138 0.30494 0.4391 0.0
C82 C 0.81672 0.30817 0.38483 0.0
C83 C 0.81361 0.28317 0.41016 0.0
C84 C 0.83632 0.28157 0.43561 0.0
C85 C 0.84222 0.33111 0.38949 0.0
N86 N 0.86393 0.32943 0.42073 0.0
H87 H 0.87875 0.30327 0.45638 0.0
H88 H 0.84447 0.35028 0.36904 0.0
H89 H 0.91864 0.32507 0.54415 0.0
H90 H 0.89141 0.37421 0.66663 0.0
O91 O 0.92234 0.34808 0.38774 0.0
O92 O 0.93565 0.38966 0.43646 0.0
O93 O 0.88397 0.38477 0.47858 0.0
C94 C 0.94206 0.37255 0.40209 0.0
H95 H 0.90305 0.41195 0.12152 0.0
H96 H 0.91989 0.32225 0.73739 0.0
H97 H 0.79958 0.30993 0.36261 0.0
H98 H 0.83463 0.2624 0.45306 0.0
Co99 Co 0.53952 0.90207 0.59921 0.0
C100 C 0.53744 0.89612 0.38116 0.0
C101 C 0.50983 0.90806 0.43284 0.0
C102 C 0.50955 0.90826 0.33192 0.0
N103 N 0.52684 0.89987 0.4645 0.0
N104 N 0.52701 0.90091 0.29978 0.0
H105 H 0.5536 0.89171 0.37935 0.0
H106 H 0.49923 0.9148 0.47913 0.0
C107 C 0.47848 0.87168 0.61979 0.0
O108 O 0.47467 0.85928 0.53515 0.0
N109 N 0.55267 0.90475 0.73221 0.0
C110 C 0.57556 0.90532 0.75874 0.0
C111 C 0.57713 0.90559 0.85983 0.0
C112 C 0.5406 0.9047 0.81742 0.0
N113 N 0.55514 0.90512 0.896 0.0
C114 C 0.5586 0.86651 0.54331 0.0
C115 C 0.51818 0.82068 0.63035 0.0
C116 C 0.53942 0.81955 0.58511 0.0
C117 C 0.55991 0.84288 0.5417 0.0
C118 C 0.51807 0.84491 0.63304 0.0
N119 N 0.53772 0.86736 0.58746 0.0
H120 H 0.57494 0.88437 0.51142 0.0
H121 H 0.50264 0.84548 0.6755 0.0
H122 H 0.58988 0.90504 0.7081 0.0
H123 H 0.52151 0.90403 0.82244 0.0
O124 O 0.57617 0.92623 0.55447 0.0
O125 O 0.54748 0.93863 0.60498 0.0
O126 O 0.50208 0.88631 0.65433 0.0
C127 C 0.57113 0.9456 0.57091 0.0
H128 H 0.49859 0.91478 0.28561 0.0
H129 H 0.59288 0.90564 0.90355 0.0
H130 H 0.50228 0.80315 0.66649 0.0
H131 H 0.57691 0.84286 0.50758 0.0
Co132 Co 0.63498 0.53321 0.78557 0.0
C133 C 0.63668 0.53366 0.56834 0.0
C134 C 0.60299 0.49726 0.62183 0.0
C135 C 0.602 0.49699 0.52047 0.0
N136 N 0.62474 0.52026 0.65177 0.0
N137 N 0.62311 0.51991 0.48751 0.0
H138 H 0.6546 0.55327 0.56664 0.0
H139 H 0.58831 0.48209 0.66996 0.0
C140 C 0.61544 0.48237 0.90767 0.0
O141 O 0.63773 0.49274 0.95929 0.0
N142 N 0.64542 0.54696 0.92016 0.0
C143 C 0.6686 0.56884 0.9487 0.0
C144 C 0.6691 0.57098 0.0496 0.0
C145 C 0.63154 0.53711 1.00495 0.0
N146 N 0.6459 0.55083 0.08461 0.0
C147 C 0.69157 0.55506 0.75499 0.0
C148 C 0.69116 0.50678 0.76114 0.0
C149 C 0.71575 0.53078 0.75843 0.0
C150 C 0.71588 0.55511 0.75195 0.0
C151 C 0.66733 0.50766 0.76334 0.0
N152 N 0.66783 0.53168 0.7677 0.0
H153 H 0.69189 0.57391 0.74843 0.0
H154 H 0.64863 0.48891 0.76159 0.0
H155 H 0.68435 0.58252 0.90056 0.0
H156 H 0.61173 0.51974 1.00971 0.0
O157 O 0.64616 0.56946 0.73823 0.0
O158 O 0.60591 0.54025 0.7935 0.0
O159 O 0.6136 0.49479 0.83325 0.0
C160 C 0.62138 0.56344 0.75367 0.0
H161 H 0.58671 0.48151 0.47447 0.0
H162 H 0.68553 0.58566 0.09414 0.0
H163 H 0.69042 0.48758 0.76222 0.0
H164 H 0.73461 0.57397 0.74628 0.0
Co165 Co 0.09985 0.63718 0.92169 0.0
C166 C 0.10287 0.64003 0.70458 0.0
C167 C 0.09834 0.60289 0.75874 0.0
C168 C 0.09724 0.60174 0.65761 0.0
N169 N 0.10194 0.62691 0.78805 0.0
N170 N 0.1 0.62501 0.6242 0.0
H171 H 0.10451 0.65962 0.70272 0.0
H172 H 0.09546 0.58683 0.80748 0.0
C173 C 0.13054 0.6167 0.04148 0.0
O174 O 0.14293 0.63916 0.09215 0.0
N175 N 0.09684 0.64738 0.05684 0.0
C176 C 0.09719 0.67011 0.08526 0.0
C177 C 0.09516 0.67041 0.18591 0.0
C178 C 0.09295 0.63348 0.14148 0.0
N179 N 0.0928 0.6475 0.22084 0.0
C180 C 0.13602 0.69386 0.89792 0.0
C181 C 0.183 0.69179 0.90095 0.0
C182 C 0.18443 0.71678 0.90409 0.0
C183 C 0.16069 0.71779 0.89887 0.0
C184 C 0.15788 0.66836 0.89934 0.0
N185 N 0.13479 0.66959 0.90583 0.0
H186 H 0.1179 0.69492 0.89202 0.0
H187 H 0.15723 0.64935 0.89366 0.0
H188 H 0.0986 0.68559 0.03706 0.0
H189 H 0.09083 0.61381 0.1464 0.0
O190 O 0.07587 0.65006 0.87846 0.0
O191 O 0.06331 0.60873 0.92669 0.0
O192 O 0.116 0.61481 0.96771 0.0
C193 C 0.05643 0.62556 0.8933 0.0
H194 H 0.0938 0.58484 0.61208 0.0
H195 H 0.09605 0.68647 0.23037 0.0
H196 H 0.20111 0.69042 0.90078 0.0
H197 H 0.16122 0.73689 0.89732 0.0
Co198 Co 0.90044 0.53494 0.76155 0.0
C199 C 0.89601 0.53531 0.97655 0.0
C200 C 0.89861 0.50108 0.92794 0.0
C201 C 0.89884 0.50155 0.0293 0.0
N202 N 0.89725 0.52251 0.89526 0.0
N203 N 0.89738 0.52315 0.05918 0.0
H204 H 0.89537 0.55381 0.9754 0.0
H205 H 0.9007 0.48693 0.88174 0.0
C206 C 0.86784 0.48173 0.64928 0.0
O207 O 0.85415 0.4903 0.59863 0.0
N208 N 0.90372 0.54837 0.62702 0.0
C209 C 0.9064 0.57236 0.60168 0.0
C210 C 0.90682 0.57456 0.5011 0.0
C211 C 0.90373 0.53689 0.54005 0.0
N212 N 0.90493 0.55215 0.46303 0.0
C213 C 0.8649 0.55626 0.78021 0.0
C214 C 0.81763 0.50748 0.78808 0.0
C215 C 0.81648 0.53116 0.78221 0.0
C216 C 0.84041 0.55582 0.78151 0.0
C217 C 0.84262 0.50889 0.78745 0.0
N218 N 0.86577 0.53298 0.77612 0.0
H219 H 0.88317 0.57541 0.78282 0.0
H220 H 0.84318 0.49054 0.7961 0.0
H221 H 0.90839 0.5877 0.65215 0.0
H222 H 0.90259 0.51779 0.53118 0.0
O223 O 0.92492 0.57156 0.80723 0.0
O224 O 0.93715 0.54262 0.75723 0.0
O225 O 0.88424 0.49638 0.71606 0.0
C226 C 0.94415 0.56617 0.79265 0.0
H227 H 0.90069 0.48759 0.07746 0.0
H228 H 0.90827 0.5912 0.45901 0.0
H229 H 0.79941 0.48813 0.79284 0.0
H230 H 0.84014 0.57453 0.78096 0.0
Co231 Co 0.36666 0.8997 0.93385 0.0
C232 C 0.36537 0.89859 0.15237 0.0
C233 C 0.39528 0.89018 0.09644 0.0
C234 C 0.39596 0.88973 0.19764 0.0
N235 N 0.37609 0.89574 0.06782 0.0
N236 N 0.37746 0.89542 0.23239 0.0
H237 H 0.34943 0.90337 0.15563 0.0
H238 H 0.4083 0.88706 0.04784 0.0
C239 C 0.38637 0.86907 0.8084 0.0
O240 O 0.36399 0.8574 0.75703 0.0
N241 N 0.35688 0.90396 0.79938 0.0
C242 C 0.33383 0.90287 0.77084 0.0
C243 C 0.33328 0.90435 0.67004 0.0
C244 C 0.37066 0.90771 0.71457 0.0
N245 N 0.35623 0.90681 0.63489 0.0
C246 C 0.3099 0.86451 0.9584 0.0
C247 C 0.31029 0.81672 0.94617 0.0
C248 C 0.2857 0.81611 0.94713 0.0
C249 C 0.28556 0.84024 0.95689 0.0
C250 C 0.33416 0.84146 0.94858 0.0
N251 N 0.33374 0.86503 0.94673 0.0
H252 H 0.30948 0.88293 0.9675 0.0
H253 H 0.35285 0.84141 0.95153 0.0
H254 H 0.31816 0.90101 0.81898 0.0
H255 H 0.39038 0.90996 0.70969 0.0
O256 O 0.35447 0.92393 0.98056 0.0
O257 O 0.3958 0.93644 0.93182 0.0
O258 O 0.38834 0.88313 0.88393 0.0
C259 C 0.37901 0.94325 0.9659 0.0
H260 H 0.40944 0.8862 0.24248 0.0
H261 H 0.31685 0.90258 0.62561 0.0
H262 H 0.31101 0.79826 0.94284 0.0
H263 H 0.2668 0.84033 0.96155 0.0
Co264 Co 0.46183 0.3648 0.12056 0.0
C265 C 0.46192 0.36217 0.3398 0.0
C266 C 0.49728 0.39687 0.28791 0.0
C267 C 0.49751 0.39767 0.38888 0.0
N268 N 0.47526 0.37422 0.256 0.0
N269 N 0.47526 0.37587 0.42093 0.0
H270 H 0.44218 0.34464 0.34258 0.0
H271 H 0.51198 0.41256 0.24251 0.0
C272 C 0.52235 0.39159 0.08717 0.0
O273 O 0.5258 0.37872 0.16029 0.0
N274 N 0.44799 0.35551 0.98774 0.0
C275 C 0.42573 0.33265 0.96023 0.0
C276 C 0.42411 0.3318 0.85914 0.0
C277 C 0.45956 0.36838 0.90316 0.0
N278 N 0.44537 0.35422 0.82391 0.0
C279 C 0.44817 0.31204 0.18749 0.0
C280 C 0.47911 0.30356 0.05257 0.0
C281 C 0.46396 0.28343 0.12079 0.0
C282 C 0.44838 0.28788 0.18891 0.0
C283 C 0.47887 0.32777 0.05544 0.0
N284 N 0.46406 0.33208 0.12409 0.0
H285 H 0.43439 0.31411 0.23489 0.0
H286 H 0.48991 0.34262 0.99996 0.0
H287 H 0.41223 0.31715 1.01014 0.0
H288 H 0.47842 0.3871 0.89899 0.0
O289 O 0.42526 0.35166 0.16795 0.0
O290 O 0.45393 0.39335 0.12226 0.0
O291 O 0.4989 0.38667 0.06343 0.0
C292 C 0.43024 0.37624 0.15495 0.0
H293 H 0.51234 0.41347 0.43522 0.0
H294 H 0.40912 0.31557 0.8147 0.0
H295 H 0.49081 0.30048 0.99721 0.0
H296 H 0.43579 0.2724 0.24082 0.0
Co297 Co 0.09657 0.46382 0.25879 0.0
C298 C 0.1049 0.46559 0.47504 0.0
C299 C 0.09851 0.49751 0.42868 0.0
C300 C 0.09865 0.49709 0.52975 0.0
N301 N 0.10245 0.47774 0.39347 0.0
N302 N 0.10238 0.47685 0.55859 0.0
H303 H 0.10616 0.4475 0.47442 0.0
H304 H 0.09388 0.51026 0.38526 0.0
C305 C 0.12848 0.52455 0.22766 0.0
O306 O 0.14415 0.52853 0.30365 0.0
N307 N 0.09084 0.44941 0.12669 0.0
C308 C 0.09107 0.42687 0.10069 0.0
C309 C 0.09159 0.42551 0.99984 0.0
C310 C 0.09125 0.46153 0.04113 0.0
N311 N 0.09183 0.44734 0.96294 0.0
C312 C 0.13424 0.44663 0.30756 0.0
C313 C 0.17584 0.48337 0.19149 0.0
C314 C 0.17933 0.46462 0.24512 0.0
C315 C 0.15814 0.44591 0.30304 0.0
C316 C 0.15151 0.48318 0.1972 0.0
N317 N 0.13137 0.46565 0.25769 0.0
H318 H 0.11769 0.43119 0.34842 0.0
H319 H 0.14877 0.49653 0.14949 0.0
H320 H 0.09219 0.41307 0.15171 0.0
H321 H 0.0924 0.48085 0.03561 0.0
O322 O 0.0734 0.42763 0.31028 0.0
O323 O 0.05977 0.45586 0.26528 0.0
O324 O 0.11116 0.50081 0.20081 0.0
C325 C 0.05372 0.43256 0.30044 0.0
H326 H 0.09482 0.5097 0.57843 0.0
H327 H 0.09279 0.4103 0.95682 0.0
H328 H 0.19157 0.4976 0.14372 0.0
H329 H 0.15997 0.43066 0.34331 0.0
Co330 Co 0.63101 0.09979 0.43684 0.0
C331 C 0.63316 0.10235 0.65669 0.0
C332 C 0.60314 0.11065 0.60314 0.0
C333 C 0.60307 0.11155 0.70408 0.0
N334 N 0.62244 0.10546 0.57202 0.0
N335 N 0.62166 0.10593 0.73752 0.0
H336 H 0.64828 0.09646 0.66003 0.0
H337 H 0.589 0.11268 0.5579 0.0
C338 C 0.60483 0.13367 0.38823 0.0
O339 O 0.61991 0.15288 0.45055 0.0
N340 N 0.63987 0.09414 0.30454 0.0
C341 C 0.6626 0.09445 0.27794 0.0
C342 C 0.66393 0.09427 0.17688 0.0
C343 C 0.62773 0.09397 0.21914 0.0
N344 N 0.64213 0.09424 0.14045 0.0
C345 C 0.68286 0.1413 0.50364 0.0
C346 C 0.69104 0.17748 0.35534 0.0
C347 C 0.71114 0.18418 0.42575 0.0
C348 C 0.70695 0.16583 0.50055 0.0
C349 C 0.66732 0.15272 0.36092 0.0
N350 N 0.66313 0.13521 0.4358 0.0
H351 H 0.6805 0.12689 0.5588 0.0
H352 H 0.65263 0.14741 0.30323 0.0
H353 H 0.67786 0.09608 0.32853 0.0
H354 H 0.60946 0.09492 0.21391 0.0
O355 O 0.64549 0.07791 0.48826 0.0
O356 O 0.60318 0.0626 0.44384 0.0
O357 O 0.60789 0.11334 0.37735 0.0
C358 C 0.62122 0.05752 0.47819 0.0
H359 H 0.58956 0.11481 0.7497 0.0
H360 H 0.68023 0.09546 0.1334 0.0
H361 H 0.69392 0.19104 0.29544 0.0
H362 H 0.72239 0.17023 0.55491 0.0
Co363 Co 0.53764 0.63501 0.58421 0.0
C364 C 0.53644 0.63948 0.80198 0.0
C365 C 0.50262 0.60291 0.75168 0.0
C366 C 0.50262 0.60279 0.8528 0.0
N367 N 0.52357 0.62617 0.71877 0.0
N368 N 0.52395 0.62573 0.88406 0.0
H369 H 0.5555 0.65796 0.80327 0.0
H370 H 0.48895 0.58625 0.70662 0.0
C371 C 0.4771 0.60837 0.55228 0.0
O372 O 0.47353 0.6198 0.62997 0.0
N373 N 0.55222 0.64406 0.45227 0.0
C374 C 0.57556 0.66591 0.42649 0.0
C375 C 0.57727 0.66724 0.32531 0.0
C376 C 0.54009 0.63228 0.36643 0.0
N377 N 0.55496 0.64613 0.28812 0.0
C378 C 0.55756 0.69002 0.64066 0.0
C379 C 0.52057 0.69731 0.53543 0.0
C380 C 0.54024 0.71882 0.58999 0.0
C381 C 0.55919 0.71513 0.64193 0.0
C382 C 0.52017 0.67286 0.53373 0.0
N383 N 0.53775 0.66897 0.58933 0.0
H384 H 0.57275 0.68777 0.6788 0.0
H385 H 0.50616 0.65755 0.48473 0.0
H386 H 0.58985 0.68047 0.47764 0.0
H387 H 0.52041 0.61456 0.36066 0.0
O388 O 0.57312 0.64534 0.63831 0.0
O389 O 0.54342 0.60504 0.58434 0.0
O390 O 0.50065 0.61469 0.52411 0.0
C391 C 0.56647 0.62024 0.62585 0.0
H392 H 0.48893 0.58649 0.89978 0.0
H393 H 0.59318 0.68292 0.28223 0.0
H394 H 0.50607 0.69967 0.49207 0.0
H395 H 0.57514 0.73157 0.68276 0.0
C396 C 0.43889 0.23335 0.09826 0.0
C397 C 0.46333 0.25722 0.11964 0.0
C398 C 0.48381 0.22979 0.1601 0.0
C399 C 0.46092 0.2068 0.12049 0.0
N400 N 0.41317 0.18702 0.14375 0.0
N401 N 0.5093 0.27829 0.17636 0.0
C402 C 0.43704 0.20821 0.11447 0.0
C403 C 0.48591 0.25551 0.1523 0.0
N404 N 0.41734 0.23445 0.06174 0.0
N405 N 0.50111 0.22641 0.21905 0.0
H406 H 0.51116 0.29728 0.17858 0.0
H407 H 0.52727 0.27846 0.18867 0.0
H408 H 0.49717 0.20736 0.24066 0.0
H409 H 0.51686 0.24199 0.2576 0.0
H410 H 0.39987 0.21725 0.03876 0.0
H411 H 0.41789 0.25247 0.04606 0.0
H412 H 0.39555 0.18796 0.14796 0.0
H413 H 0.41224 0.17053 0.17955 0.0
C414 C 0.21212 0.45657 0.1495 0.0
C415 C 0.20493 0.46418 0.23868 0.0
C416 C 0.24537 0.46886 0.31765 0.0
C417 C 0.2541 0.4644 0.22566 0.0
N418 N 0.24783 0.45804 0.0505 0.0
N419 N 0.21693 0.48214 0.40302 0.0
C420 C 0.23802 0.45932 0.14047 0.0
C421 C 0.22216 0.47157 0.32163 0.0
N422 N 0.19388 0.44588 0.07457 0.0
N423 N 0.25874 0.46963 0.40179 0.0
H424 H 0.2003 0.48476 0.40856 0.0
H425 H 0.23035 0.49058 0.46137 0.0
H426 H 0.27558 0.46728 0.40234 0.0
H427 H 0.25165 0.47 0.47179 0.0
H428 H 0.19698 0.4374 1.01184 0.0
H429 H 0.17459 0.44319 0.0789 0.0
H430 H 0.23822 0.45728 0.9847 0.0
H431 H 0.26674 0.46006 0.04094 0.0
C432 C 0.74263 0.23086 0.48776 0.0
C433 C 0.73695 0.21002 0.41933 0.0
C434 C 0.77973 0.23893 0.3361 0.0
C435 C 0.78665 0.25855 0.41082 0.0
N436 N 0.77652 0.27189 0.56573 0.0
N437 N 0.75152 0.19244 0.28684 0.0
C438 C 0.76856 0.25422 0.48877 0.0
C439 C 0.75586 0.21359 0.3455 0.0
N440 N 0.72299 0.22862 0.55003 0.0
N441 N 0.79568 0.24478 0.255 0.0
H442 H 0.73434 0.17352 0.29161 0.0
H443 H 0.76589 0.19294 0.23912 0.0
H444 H 0.81329 0.26317 0.24566 0.0
H445 H 0.7903 0.23244 0.19325 0.0
H446 H 0.72496 0.24431 0.59424 0.0
H447 H 0.70376 0.21179 0.55146 0.0
H448 H 0.76541 0.26825 0.62992 0.0
H449 H 0.79528 0.28932 0.56908 0.0
C450 C 0.54471 0.75908 0.49957 0.0
C451 C 0.54136 0.74532 0.58962 0.0
C452 C 0.54142 0.78259 0.67747 0.0
C453 C 0.54065 0.79424 0.58645 0.0
N454 N 0.53612 0.79028 0.40985 0.0
N455 N 0.5311 0.74169 0.76292 0.0
C456 C 0.54081 0.78159 0.49703 0.0
C457 C 0.53824 0.75644 0.67841 0.0
N458 N 0.55247 0.75123 0.41702 0.0
N459 N 0.54612 0.7968 0.76285 0.0
H460 H 0.52768 0.72211 0.76639 0.0
H461 H 0.52595 0.74792 0.82711 0.0
H462 H 0.54959 0.81643 0.76507 0.0
H463 H 0.5494 0.79018 0.82987 0.0
H464 H 0.55763 0.76217 0.35187 0.0
H465 H 0.55653 0.73546 0.41661 0.0
H466 H 0.53339 0.78001 0.34384 0.0
H467 H 0.53222 0.8061 0.40483 0.0
C468 C 0.75368 0.52842 0.67702 0.0
C469 C 0.74135 0.53043 0.76428 0.0
C470 C 0.77695 0.53034 0.86378 0.0
C471 C 0.79026 0.53027 0.77627 0.0
N472 N 0.79326 0.53179 0.59956 0.0
N473 N 0.7419 0.53593 0.94001 0.0
C474 C 0.77914 0.52997 0.68276 0.0
C475 C 0.75316 0.53207 0.85759 0.0
N476 N 0.74074 0.5245 0.58898 0.0
N477 N 0.78684 0.52823 0.95267 0.0
H478 H 0.724 0.53639 0.93886 0.0
H479 H 0.75102 0.54037 1.00882 0.0
H480 H 0.80465 0.52774 0.96005 0.0
H481 H 0.77665 0.52515 0.01874 0.0
H482 H 0.74704 0.51987 0.52397 0.0
H483 H 0.72249 0.52412 0.58173 0.0
H484 H 0.78791 0.53481 0.52972 0.0
H485 H 0.81147 0.53194 0.60063 0.0
C486 C 0.2492 0.78118 0.84088 0.0
C487 C 0.26008 0.79029 0.93619 0.0
C488 C 0.22093 0.75173 1.01034 0.0
C489 C 0.21073 0.7419 0.91484 0.0
N490 N 0.21618 0.74483 0.73917 0.0
N491 N 0.25864 0.78315 0.11084 0.0
C492 C 0.22518 0.75595 0.83 0.0
C493 C 0.2466 0.77522 0.02079 0.0
N494 N 0.26154 0.79702 0.76105 0.0
N495 N 0.2057 0.73893 0.09092 0.0
H496 H 0.27706 0.80067 0.12148 0.0
H497 H 0.25142 0.7716 0.17411 0.0
H498 H 0.1872 0.72121 0.08641 0.0
H499 H 0.21044 0.74663 0.16192 0.0
H500 H 0.25314 0.79315 0.69103 0.0
H501 H 0.27962 0.81518 0.76564 0.0
H502 H 0.22717 0.75243 0.6749 0.0
H503 H 0.19831 0.72674 0.72844 0.0
C504 C 0.45251 0.07347 0.6319 0.0
C505 C 0.46695 0.09907 0.67748 0.0
C506 C 0.46796 0.12107 0.522 0.0
C507 C 0.45296 0.09547 0.47686 0.0
N508 N 0.42917 0.04741 0.48626 0.0
N509 N 0.48697 0.14698 0.67192 0.0
C510 C 0.44479 0.07165 0.53127 0.0
C511 C 0.47425 0.12283 0.62399 0.0
N512 N 0.44647 0.05108 0.68555 0.0
N513 N 0.47654 0.14362 0.46604 0.0
H514 H 0.49242 0.14868 0.74581 0.0
H515 H 0.49112 0.16517 0.6409 0.0
H516 H 0.47154 0.14282 0.39205 0.0
H517 H 0.4895 0.16305 0.49065 0.0
H518 H 0.43766 0.03173 0.65683 0.0
H519 H 0.45108 0.05199 0.76008 0.0
H520 H 0.42075 0.02895 0.52163 0.0
H521 H 0.42365 0.04585 0.41248 0.0
C522 C 0.34766 0.43524 0.72618 0.0
C523 C 0.3645 0.45448 0.65611 0.0
C524 C 0.39262 0.48235 0.79186 0.0
C525 C 0.37177 0.46684 0.85891 0.0
N526 N 0.32645 0.42998 0.88328 0.0
N527 N 0.40229 0.4992 0.62691 0.0
C528 C 0.34857 0.4433 0.8251 0.0
C529 C 0.38718 0.4787 0.68968 0.0
N530 N 0.33012 0.4096 0.6969 0.0
N531 N 0.41755 0.50058 0.82581 0.0
H532 H 0.39831 0.49844 0.55257 0.0
H533 H 0.41723 0.51808 0.6509 0.0
H534 H 0.42231 0.50268 0.90047 0.0
H535 H 0.43399 0.51108 0.77947 0.0
H536 H 0.3185 0.3943 0.7463 0.0
H537 H 0.32962 0.40331 0.62454 0.0
H538 H 0.30844 0.41394 0.85774 0.0
H539 H 0.32487 0.43686 0.9523 0.0
C540 C 0.92589 0.37211 0.88887 0.0
C541 C 0.90235 0.35435 0.83606 0.0
C542 C 0.87489 0.34814 0.98202 0.0
C543 C 0.89856 0.36492 0.03591 0.0
N544 N 0.94666 0.3899 0.04758 0.0
N545 N 0.85503 0.32282 0.83197 0.0
C546 C 0.92413 0.37604 0.99117 0.0
C547 C 0.87695 0.3416 0.88269 0.0
N548 N 0.94969 0.38588 0.83986 0.0
N549 N 0.85051 0.33919 0.02568 0.0
H550 H 0.85616 0.31787 0.75904 0.0
H551 H 0.83622 0.31091 0.86328 0.0
H552 H 0.84866 0.34348 0.0988 0.0
H553 H 0.83226 0.32895 0.98867 0.0
H554 H 0.96727 0.40109 0.87133 0.0
H555 H 0.9514 0.38336 0.76484 0.0
H556 H 0.96602 0.39641 0.02235 0.0
H557 H 0.9458 0.39314 0.12255 0.0
C558 C 0.55683 0.92818 0.05106 0.0
C559 C 0.54816 0.904 0.99816 0.0
C560 C 0.52573 0.87767 0.14529 0.0
C561 C 0.5353 0.90186 0.19925 0.0
N562 N 0.56226 0.94991 0.20953 0.0
N563 N 0.52691 0.85591 0.99338 0.0
C564 C 0.55152 0.9271 0.1536 0.0
C565 C 0.53333 0.87874 0.04507 0.0
N566 N 0.56972 0.95207 1.00206 0.0
N567 N 0.50858 0.85383 0.18959 0.0
H568 H 0.53158 0.85624 0.91918 0.0
H569 H 0.51833 0.83687 0.02449 0.0
H570 H 0.50297 0.85266 0.26306 0.0
H571 H 0.49871 0.83548 0.15298 0.0
H572 H 0.57454 0.97051 0.03299 0.0
H573 H 0.57431 0.95323 0.9275 0.0
H574 H 0.57614 0.96892 0.18384 0.0
H575 H 0.55861 0.94956 0.28464 0.0
C576 C 0.62328 0.54991 0.24034 0.0
C577 C 0.63992 0.54292 0.18628 0.0
C578 C 0.64684 0.52236 0.33351 0.0
C579 C 0.62924 0.52825 0.38638 0.0
N580 N 0.59945 0.5461 0.3928 0.0
N581 N 0.66578 0.52068 0.17586 0.0
C582 C 0.61708 0.54163 0.34034 0.0
C583 C 0.65129 0.52868 0.2316 0.0
N584 N 0.61404 0.56502 0.19588 0.0
N585 N 0.65955 0.51107 0.38201 0.0
H586 H 0.66977 0.52552 0.10175 0.0
H587 H 0.67261 0.50805 0.20071 0.0
H588 H 0.656 0.50566 0.4559 0.0
H589 H 0.67462 0.50838 0.35155 0.0
H590 H 0.60346 0.5728 0.23169 0.0
H591 H 0.61819 0.57093 0.12257 0.0
H592 H 0.58802 0.55377 0.36308 0.0
H593 H 0.59545 0.54104 0.46682 0.0
C594 C 0.07075 0.626 0.37707 0.0
C595 C 0.09454 0.64155 0.32253 0.0
C596 C 0.12191 0.64597 0.46762 0.0
C597 C 0.09815 0.63138 0.52318 0.0
N598 N 0.05018 0.60919 0.53684 0.0
N599 N 0.14263 0.66836 0.31432 0.0
C600 C 0.07257 0.62182 0.47939 0.0
C601 C 0.12013 0.65211 0.36755 0.0
N602 N 0.04656 0.61506 0.32988 0.0
N603 N 0.14608 0.65322 0.51068 0.0
H604 H 0.14191 0.67242 0.24013 0.0
H605 H 0.16186 0.67893 0.34396 0.0
H606 H 0.14778 0.64935 0.58441 0.0
H607 H 0.16423 0.6617 0.47314 0.0
H608 H 0.02827 0.60171 0.36205 0.0
H609 H 0.04495 0.61846 0.25556 0.0
H610 H 0.03087 0.60345 0.51285 0.0
H611 H 0.05116 0.6057 0.6115 0.0
C612 C 0.92302 0.5533 0.19731 0.0
C613 C 0.89865 0.53195 0.15929 0.0
C614 C 0.8776 0.52605 0.32073 0.0
C615 C 0.9028 0.5452 0.36059 0.0
N616 N 0.95022 0.57472 0.34186 0.0
N617 N 0.85297 0.49704 0.18341 0.0
C618 C 0.92573 0.55824 0.30009 0.0
C619 C 0.87598 0.51798 0.22092 0.0
N620 N 0.94329 0.56923 0.13484 0.0
N621 N 0.85514 0.51651 0.37764 0.0
H622 H 0.85078 0.49189 0.1091 0.0
H623 H 0.83659 0.48404 0.22622 0.0
H624 H 0.85581 0.52274 0.45007 0.0
H625 H 0.83573 0.50426 0.3513 0.0
H626 H 0.9607 0.58655 0.15676 0.0
H627 H 0.94148 0.56665 0.05918 0.0
H628 H 0.96826 0.58276 0.30358 0.0
H629 H 0.95265 0.57854 0.41721 0.0
C630 C 0.3836 0.9255 0.48483 0.0
C631 C 0.36187 0.90387 0.53367 0.0
C632 C 0.34963 0.87717 0.38153 0.0
C633 C 0.37231 0.89822 0.33437 0.0
N634 N 0.41399 0.94012 0.34613 0.0
N635 N 0.3278 0.85711 0.53588 0.0
C636 C 0.39026 0.92173 0.38765 0.0
C637 C 0.34577 0.87912 0.48389 0.0
N638 N 0.39726 0.9499 0.5305 0.0
N639 N 0.33191 0.85522 0.32828 0.0
H640 H 0.32541 0.85757 0.6116 0.0
H641 H 0.31718 0.83785 0.50615 0.0
H642 H 0.33507 0.85259 0.25467 0.0
H643 H 0.31341 0.84049 0.35516 0.0
H644 H 0.41158 0.96733 0.49559 0.0
H645 H 0.39259 0.95316 0.60138 0.0
H646 H 0.42911 0.95641 0.3842 0.0
H647 H 0.41954 0.93778 0.27571 0.0
C648 C 0.47586 0.35501 0.57814 0.0
C649 C 0.46685 0.36963 0.52172 0.0
C650 C 0.44293 0.37339 0.66464 0.0
C651 C 0.45301 0.35988 0.7222 0.0
N652 N 0.48008 0.33911 0.73913 0.0
N653 N 0.44351 0.39431 0.50845 0.0
C654 C 0.46979 0.35102 0.68026 0.0
C655 C 0.45074 0.37921 0.56426 0.0
N656 N 0.48982 0.34459 0.53266 0.0
N657 N 0.42564 0.38027 0.70659 0.0
H658 H 0.44861 0.39828 0.43442 0.0
H659 H 0.43351 0.40384 0.53537 0.0
H660 H 0.42037 0.37682 0.78064 0.0
H661 H 0.4156 0.38824 0.66823 0.0
H662 H 0.49535 0.33185 0.56626 0.0
H663 H 0.49469 0.34761 0.45821 0.0
H664 H 0.49431 0.33414 0.71659 0.0
H665 H 0.47521 0.33526 0.81333 0.0
C666 C 0.07714 0.44487 0.69276 0.0
C667 C 0.10084 0.46779 0.65862 0.0
C668 C 0.11964 0.47584 0.82555 0.0
C669 C 0.09477 0.45485 0.86082 0.0
N670 N 0.04866 0.42173 0.83228 0.0
N671 N 0.1443 0.50596 0.69133 0.0
C672 C 0.0732 0.43997 0.79539 0.0
C673 C 0.12199 0.48356 0.72502 0.0
N674 N 0.05867 0.42745 0.62712 0.0
N675 N 0.14121 0.48757 0.88753 0.0
H676 H 0.14725 0.51097 0.61699 0.0
H677 H 0.15921 0.52013 0.73698 0.0
H678 H 0.14009 0.48195 0.96091 0.0
H679 H 0.16062 0.50128 0.86492 0.0
H680 H 0.04209 0.40918 0.64685 0.0
H681 H 0.06136 0.4299 0.55168 0.0
H682 H 0.03125 0.41214 0.78994 0.0
H683 H 0.04528 0.41797 0.90737 0.0
C684 C 0.60838 0.07979 0.89264 0.0
C685 C 0.62691 0.10287 0.83913 0.0
C686 C 0.65402 0.12151 0.9885 0.0
C687 C 0.63698 0.09723 0.03879 0.0
N688 N 0.60047 0.05171 0.03593 0.0
N689 N 0.66841 0.1449 0.83246 0.0
C690 C 0.6148 0.07594 0.99001 0.0
C691 C 0.65017 0.12343 0.88603 0.0
N692 N 0.58435 0.06187 0.85125 0.0
N693 N 0.67294 0.14314 0.04014 0.0
H694 H 0.66533 0.14756 0.7588 0.0
H695 H 0.68719 0.15918 0.85911 0.0
H696 H 0.67549 0.14259 0.11577 0.0
H697 H 0.68444 0.16223 1.01022 0.0
H698 H 0.56886 0.04612 0.8898 0.0
H699 H 0.579 0.064 0.78023 0.0
H700 H 0.58577 0.03443 1.00101 0.0
H701 H 0.60494 0.04834 0.10695 0.0
C702 C 0.53208 0.65182 0.14379 0.0
C703 C 0.54741 0.64122 0.18568 0.0
C704 C 0.54829 0.62137 0.02656 0.0
C705 C 0.53315 0.63218 0.9845 0.0
N706 N 0.51235 0.65921 0.99687 0.0
N707 N 0.57176 0.61766 0.16977 0.0
C708 C 0.52558 0.64791 0.04162 0.0
C709 C 0.556 0.62647 0.12756 0.0
N710 N 0.52354 0.66528 0.20291 0.0
N711 N 0.5549 0.606 0.9693 0.0
H712 H 0.57697 0.62067 0.24403 0.0
H713 H 0.58044 0.6082 0.132 0.0
H714 H 0.55038 0.60299 0.89453 0.0
H715 H 0.56422 0.59568 0.995 0.0
H716 H 0.51068 0.67207 0.18055 0.0
H717 H 0.52864 0.66889 0.27713 0.0
H718 H 0.50755 0.67247 0.03084 0.0
H719 H 0.5071 0.65615 0.92265 0.0
C720 C 0.56233 0.15743 0.2495 0.0
C721 C 0.53823 0.13261 0.23404 0.0
C722 C 0.55691 0.10943 0.32765 0.0
C723 C 0.58198 0.13374 0.33603 0.0
N724 N 0.6102 0.17949 0.28144 0.0
N725 N 0.51665 0.08378 0.23321 0.0
C726 C 0.58519 0.15745 0.29067 0.0
C727 C 0.53686 0.10827 0.26423 0.0
N728 N 0.56361 0.18098 0.2234 0.0
N729 N 0.5512 0.08757 0.38434 0.0
H730 H 0.50089 0.08091 0.1881 0.0
H731 H 0.51705 0.06605 0.24457 0.0
H732 H 0.56431 0.08698 0.43538 0.0
H733 H 0.53202 0.0708 0.38894 0.0
H734 H 0.57941 0.19977 0.24377 0.0
H735 H 0.54821 0.1817 0.18555 0.0
H736 H 0.61402 0.19638 0.24082 0.0
H737 H 0.62762 0.17987 0.30507 0.0
C738 C 0.40754 0.56499 0.43707 0.0
C739 C 0.40837 0.54134 0.41332 0.0
C740 C 0.45388 0.56147 0.48173 0.0
C741 C 0.45372 0.58574 0.50135 0.0
N742 N 0.4328 0.61262 0.47608 0.0
N743 N 0.43493 0.51951 0.3945 0.0
C744 C 0.43116 0.58807 0.4732 0.0
C745 C 0.43244 0.54056 0.4284 0.0
N746 N 0.38423 0.56551 0.42448 0.0
N747 N 0.47341 0.55716 0.52018 0.0
H748 H 0.41918 0.5018 0.36691 0.0
H749 H 0.45338 0.52028 0.38893 0.0
H750 H 0.48995 0.57125 0.55943 0.0
H751 H 0.47199 0.53836 0.5212 0.0
H752 H 0.38126 0.58074 0.4519 0.0
H753 H 0.36729 0.54998 0.39045 0.0
H754 H 0.41809 0.61622 0.44761 0.0
H755 H 0.4501 0.63011 0.49803 0.0
C756 C 0.89042 0.43094 0.59286 0.0
C757 C 0.86571 0.40776 0.56579 0.0
C758 C 0.84196 0.43217 0.60665 0.0
C759 C 0.86693 0.45613 0.62177 0.0
N760 N 0.91561 0.47898 0.608 0.0
N761 N 0.81855 0.38842 0.52831 0.0
C762 C 0.8913 0.4557 0.60914 0.0
C763 C 0.8416 0.40892 0.5677 0.0
N764 N 0.91324 0.42953 0.60735 0.0
N765 N 0.81857 0.43114 0.63326 0.0
H766 H 0.81759 0.37151 0.49589 0.0
H767 H 0.80113 0.38947 0.51868 0.0
H768 H 0.81799 0.44732 0.66541 0.0
H769 H 0.80006 0.41343 0.63307 0.0
H770 H 0.93027 0.44475 0.64197 0.0
H771 H 0.915 0.41276 0.59348 0.0
H772 H 0.93317 0.47979 0.58359 0.0
H773 H 0.91846 0.49793 0.62269 0.0
C774 C 0.40958 0.84495 0.74055 0.0
C775 C 0.41086 0.86938 0.76974 0.0
C776 C 0.45641 0.895 0.70104 0.0
C777 C 0.45544 0.87062 0.67395 0.0
N778 N 0.43361 0.82244 0.68648 0.0
N779 N 0.43863 0.91774 0.79576 0.0
C780 C 0.43264 0.84557 0.69844 0.0
C781 C 0.4352 0.8943 0.75631 0.0
N782 N 0.38641 0.82104 0.75444 0.0
N783 N 0.47681 0.91919 0.66874 0.0
H784 H 0.42358 0.92045 0.82532 0.0
H785 H 0.45746 0.93485 0.8041 0.0
H786 H 0.49377 0.92173 0.6327 0.0
H787 H 0.47603 0.93691 0.67103 0.0
H788 H 0.38272 0.80302 0.72265 0.0
H789 H 0.37032 0.81926 0.79554 0.0
H790 H 0.41891 0.80375 0.71201 0.0
H791 H 0.45037 0.82221 0.65865 0.0
C792 C 0.54623 0.43887 0.02021 0.0
C793 C 0.54585 0.41422 0.03687 0.0
C794 C 0.59126 0.4341 0.9662 0.0
C795 C 0.59081 0.45809 0.94457 0.0
N796 N 0.56381 0.47979 0.9286 0.0
N797 N 0.56537 0.38644 1.00295 0.0
C798 C 0.56707 0.45931 0.96374 0.0
C799 C 0.56771 0.41131 1.00392 0.0
N800 N 0.52765 0.44392 0.06287 0.0
N801 N 0.61401 0.43285 0.94901 0.0
H802 H 0.54803 0.36909 0.02511 0.0
H803 H 0.57944 0.38248 0.97076 0.0
H804 H 0.63063 0.44787 0.9122 0.0
H805 H 0.61682 0.41741 0.97509 0.0
H806 H 0.52986 0.46305 0.06588 0.0
H807 H 0.51123 0.43016 0.10311 0.0
H808 H 0.54521 0.4788 0.92712 0.0
H809 H 0.57848 0.49691 0.89424 0.0
C810 C 0.10493 0.54777 0.15717 0.0
C811 C 0.12926 0.54769 0.175 0.0
C812 C 0.15464 0.59267 0.10092 0.0
C813 C 0.13015 0.5921 0.07912 0.0
N814 N 0.08138 0.56526 0.06572 0.0
N815 N 0.1766 0.56726 0.14275 0.0
C816 C 0.1052 0.56848 0.09994 0.0
C817 C 0.15399 0.56943 0.14136 0.0
N818 N 0.0814 0.529 0.19972 0.0
N819 N 0.17861 0.6153 0.08159 0.0
H820 H 0.17671 0.5502 0.16797 0.0
H821 H 0.19463 0.58114 0.11016 0.0
H822 H 0.18011 0.63158 0.04249 0.0
H823 H 0.19696 0.61838 0.10778 0.0
H824 H 0.06428 0.53084 0.20226 0.0
H825 H 0.07913 0.51274 0.24022 0.0
H826 H 0.06367 0.54673 0.06529 0.0
H827 H 0.07892 0.57994 0.03124 0.0
C828 C 0.41179 0.00937 0.10621 0.0
C829 C 0.41228 0.02725 0.03399 0.0
C830 C 0.38389 0.98844 0.92823 0.0
C831 C 0.38828 0.97163 0.99273 0.0
N832 N 0.41126 0.96793 0.13521 0.0
N833 N 0.39987 0.03384 0.87081 0.0
C834 C 0.40342 0.98253 0.07982 0.0
C835 C 0.39822 0.01684 0.94387 0.0
N836 N 0.4191 0.01798 0.20075 0.0
N837 N 0.36649 0.97737 0.85121 0.0
H838 H 0.40985 0.05461 0.8787 0.0
H839 H 0.39287 0.02744 0.79972 0.0
H840 H 0.35633 0.95681 0.83658 0.0
H841 H 0.36047 0.98821 0.80719 0.0
H842 H 0.41699 0.00506 0.25809 0.0
H843 H 0.42419 0.0373 0.22348 0.0
H844 H 0.42518 0.97648 0.19207 0.0
H845 H 0.40637 0.94841 0.1175 0.0
C846 C 0.41072 0.4037 0.09981 0.0
C847 C 0.41025 0.38522 0.16928 0.0
C848 C 0.38098 0.39467 0.27351 0.0
C849 C 0.38661 0.41699 0.21298 0.0
N850 N 0.41356 0.44652 0.0813 0.0
N851 N 0.39555 0.36378 0.32762 0.0
C852 C 0.40326 0.42256 0.12941 0.0
C853 C 0.39516 0.38045 0.25725 0.0
N854 N 0.41848 0.40335 1.00531 0.0
N855 N 0.36273 0.38753 0.34774 0.0
H856 H 0.40507 0.35262 0.31822 0.0
H857 H 0.38774 0.36223 0.39782 0.0
H858 H 0.35293 0.39821 0.36385 0.0
H859 H 0.3559 0.36996 0.38835 0.0
H860 H 0.41724 0.41527 0.95017 0.0
H861 H 0.42294 0.38887 0.98016 0.0
H862 H 0.4274 0.4519 0.02429 0.0
H863 H 0.41127 0.46234 0.10627 0.0
C864 C 0.01559 0.41935 0.41839 0.0
C865 C 0.02582 0.4135 0.33299 0.0
C866 C 0.98041 0.37636 0.29517 0.0
C867 C 0.97092 0.38163 0.38432 0.0
N868 N 0.9824 0.40096 0.54665 0.0
N869 N 0.01901 0.38288 0.20034 0.0
C870 C 0.98957 0.40068 0.45123 0.0
C871 C 0.00861 0.3906 0.27533 0.0
N872 N 0.02995 0.4433 0.46605 0.0
N873 N 0.96274 0.3593 0.22658 0.0
H874 H 0.03932 0.39337 0.1822 0.0
H875 H 0.00795 0.36494 0.16179 0.0
H876 H 0.94211 0.34833 0.23742 0.0
H877 H 0.96842 0.3574 0.15578 0.0
H878 H 0.02198 0.4494 0.52263 0.0
H879 H 0.04897 0.45788 0.44403 0.0
H880 H 0.99607 0.41327 0.60008 0.0
H881 H 0.96372 0.38668 0.57425 0.0
C882 C 0.5906 0.99276 0.62552 0.0
C883 C 0.5908 0.97464 0.55574 0.0
C884 C 0.61932 0.01314 0.44974 0.0
C885 C 0.61354 0.02983 0.50985 0.0
N886 N 0.58905 0.03335 0.64774 0.0
N887 N 0.6053 0.96765 0.39706 0.0
C888 C 0.59809 0.01913 0.59617 0.0
C889 C 0.6056 0.98481 0.46716 0.0
N890 N 0.58325 0.98474 0.72035 0.0
N891 N 0.63738 0.0242 0.37501 0.0
H892 H 0.59566 0.94692 0.40589 0.0
H893 H 0.61313 0.97381 0.32689 0.0
H894 H 0.64722 0.04468 0.35959 0.0
H895 H 0.64434 0.01357 0.33441 0.0
H896 H 0.58477 0.99793 0.77599 0.0
H897 H 0.57876 0.96577 0.7451 0.0
H898 H 0.57494 0.02471 0.70376 0.0
H899 H 0.59314 0.05245 0.62757 0.0
C900 C 0.568 0.58014 0.68785 0.0
C901 C 0.58225 0.60791 0.66449 0.0
C902 C 0.62378 0.60836 0.713 0.0
C903 C 0.60946 0.57974 0.71702 0.0
N904 N 0.56894 0.53947 0.66388 0.0
N905 N 0.62582 0.64741 0.63667 0.0
C906 C 0.58191 0.56592 0.69068 0.0
C907 C 0.61084 0.62191 0.6719 0.0
N908 N 0.5414 0.56723 0.71166 0.0
N909 N 0.64908 0.62275 0.75094 0.0
H910 H 0.61754 0.65758 0.60113 0.0
H911 H 0.64672 0.65728 0.6333 0.0
H912 H 0.65877 0.61386 0.78593 0.0
H913 H 0.65919 0.64363 0.75688 0.0
H914 H 0.53111 0.54715 0.73372 0.0
H915 H 0.53093 0.57736 0.72376 0.0
H916 H 0.54905 0.52954 0.63949 0.0
H917 H 0.57893 0.52883 0.65188 0.0
C918 C 0.00893 0.59637 0.94041 0.0
C919 C 0.02744 0.6161 0.87548 0.0
C920 C 0.98948 0.60797 0.76869 0.0
C921 C 0.97241 0.58458 0.82379 0.0
N922 N 0.96882 0.55342 0.95049 0.0
N923 N 0.03522 0.63946 0.72028 0.0
C924 C 0.98292 0.57789 0.90643 0.0
C925 C 0.01774 0.622 0.78803 0.0
N926 N 0.01616 0.59535 0.03524 0.0
N927 N 0.97893 0.61636 0.69644 0.0
H928 H 0.0559 0.65017 0.73012 0.0
H929 H 0.02929 0.64185 0.65049 0.0
H930 H 0.95861 0.60599 0.67821 0.0
H931 H 0.98991 0.63468 0.66038 0.0
H932 H 0.00259 0.58239 0.08733 0.0
H933 H 0.0347 0.60965 0.0642 0.0
H934 H 0.97706 0.5469 1.0047 0.0
H935 H 0.9498 0.53888 0.92776 0.0
loop_
_geom_bond_atom_site_label_1
_geom_bond_atom_site_label_2
_geom_bond_distance
_geom_bond_site_symmetry_2
_ccdc_geom_bond_type
Co0 N4 2.148 1_554 S
Co0 N10 2.128 . S
Co0 N20 2.194 . S
Co0 O25 2.351 . S
Co0 O26 2.155 . S
Co0 O27 2.096 . S
C1 N4 1.301 . S
C1 N5 1.328 . S
C1 H6 0.930 . S
C2 C3 1.333 . S
C2 N4 1.317 . S
C2 H7 0.930 . S
C3 C2 1.333 . S
C3 N5 1.350 . S
C3 H29 0.931 . S
N4 Co0 2.148 1_556 S
N4 C1 1.301 . S
N4 C2 1.317 . S
N5 C1 1.328 . S
N5 C3 1.350 . S
H6 C1 0.930 . S
H7 C2 0.930 . S
C8 O9 1.224 . S
C8 O27 1.247 . S
O9 C8 1.224 . S
N10 Co0 2.128 . S
N10 C11 1.355 . S
N10 C13 1.311 . S
C11 N10 1.355 . S
C11 C12 1.363 . S
C11 H23 0.929 . S
C12 C11 1.363 . S
C12 N14 1.375 . S
C12 H30 0.931 . S
C13 N10 1.311 . S
C13 N14 1.347 . S
C13 H24 0.929 . S
N14 C12 1.375 . S
N14 C13 1.347 . S
C15 C18 1.365 . S
C15 N20 1.328 . S
C15 H21 0.929 . S
C16 C17 1.362 . S
C16 C19 1.378 . S
C16 H31 0.929 . S
C17 C16 1.362 . S
C17 C18 1.366 . S
C18 C15 1.365 . S
C18 C17 1.366 . S
C18 H32 0.930 . S
C19 C16 1.378 . S
C19 N20 1.315 . S
C19 H22 0.930 . S
N20 Co0 2.194 . S
N20 C15 1.328 . S
N20 C19 1.315 . S
H21 C15 0.929 . S
H22 C19 0.930 . S
H23 C11 0.929 . S
H24 C13 0.929 . S
O25 Co0 2.351 . S
O25 C28 1.244 . S
O26 Co0 2.155 . S
O26 C28 1.240 . S
O27 Co0 2.096 . S
O27 C8 1.247 . S
C28 O25 1.244 . S
C28 O26 1.240 . S
H29 C3 0.931 . S
H30 C12 0.931 . S
H31 C16 0.929 . S
H32 C18 0.930 . S
Co33 N37 2.148 . S
Co33 N43 2.128 . S
Co33 N53 2.194 . S
Co33 O58 2.351 . S
Co33 O59 2.155 . S
Co33 O60 2.096 . S
C34 N37 1.301 . S
C34 N38 1.328 1_554 S
C34 H39 0.930 . S
C35 C36 1.333 . S
C35 N37 1.317 . S
C35 H40 0.930 . S
C36 C35 1.333 . S
C36 N38 1.350 1_554 S
C36 H62 0.931 1_554 S
N37 Co33 2.148 . S
N37 C34 1.301 . S
N37 C35 1.317 . S
N38 C34 1.328 1_556 S
N38 C36 1.350 1_556 S
H39 C34 0.930 . S
H40 C35 0.930 . S
C41 O42 1.224 . S
C41 O60 1.247 . S
O42 C41 1.224 . S
N43 Co33 2.128 . S
N43 C44 1.355 . S
N43 C46 1.311 . S
C44 N43 1.355 . S
C44 C45 1.363 . S
C44 H56 0.929 . S
C45 C44 1.363 . S
C45 N47 1.375 . S
C45 H63 0.931 . S
C46 N43 1.311 . S
C46 N47 1.347 . S
C46 H57 0.929 . S
N47 C45 1.375 . S
N47 C46 1.347 . S
C48 C51 1.365 . S
C48 N53 1.328 . S
C48 H54 0.929 . S
C49 C50 1.362 . S
C49 C52 1.378 . S
C49 H64 0.929 . S
C50 C49 1.362 . S
C50 C51 1.366 . S
C51 C48 1.365 . S
C51 C50 1.366 . S
C51 H65 0.930 . S
C52 C49 1.378 . S
C52 N53 1.315 . S
C52 H55 0.930 . S
N53 Co33 2.194 . S
N53 C48 1.328 . S
N53 C52 1.315 . S
H54 C48 0.929 . S
H55 C52 0.930 . S
H56 C44 0.929 . S
H57 C46 0.929 . S
O58 Co33 2.351 . S
O58 C61 1.244 . S
O59 Co33 2.155 . S
O59 C61 1.240 . S
O60 Co33 2.096 . S
O60 C41 1.247 . S
C61 O58 1.244 . S
C61 O59 1.240 . S
H62 C36 0.931 1_556 S
H63 C45 0.931 . S
H64 C49 0.929 . S
H65 C51 0.930 . S
Co66 N70 2.148 . S
Co66 N76 2.128 . S
Co66 N86 2.194 . S
Co66 O91 2.351 . S
Co66 O92 2.155 . S
Co66 O93 2.096 . S
C67 N70 1.301 . S
C67 N71 1.328 . S
C67 H72 0.930 . S
C68 C69 1.333 . S
C68 N70 1.317 . S
C68 H73 0.930 . S
C69 C68 1.333 . S
C69 N71 1.350 . S
C69 H95 0.931 . S
N70 Co66 2.148 . S
N70 C67 1.301 . S
N70 C68 1.317 . S
N71 C67 1.328 . S
N71 C69 1.350 . S
H72 C67 0.930 . S
H73 C68 0.930 . S
C74 O75 1.224 . S
C74 O93 1.247 . S
O75 C74 1.224 . S
N76 Co66 2.128 . S
N76 C77 1.355 . S
N76 C79 1.311 . S
C77 N76 1.355 . S
C77 C78 1.363 . S
C77 H89 0.929 . S
C78 C77 1.363 . S
C78 N80 1.375 . S
C78 H96 0.931 . S
C79 N76 1.311 . S
C79 N80 1.347 . S
C79 H90 0.929 . S
N80 C78 1.375 . S
N80 C79 1.347 . S
C81 C84 1.365 . S
C81 N86 1.328 . S
C81 H87 0.929 . S
C82 C83 1.362 . S
C82 C85 1.378 . S
C82 H97 0.929 . S
C83 C82 1.362 . S
C83 C84 1.366 . S
C84 C81 1.365 . S
C84 C83 1.366 . S
C84 H98 0.930 . S
C85 C82 1.378 . S
C85 N86 1.315 . S
C85 H88 0.930 . S
N86 Co66 2.194 . S
N86 C81 1.328 . S
N86 C85 1.315 . S
H87 C81 0.929 . S
H88 C85 0.930 . S
H89 C77 0.929 . S
H90 C79 0.929 . S
O91 Co66 2.351 . S
O91 C94 1.244 . S
O92 Co66 2.155 . S
O92 C94 1.240 . S
O93 Co66 2.096 . S
O93 C74 1.247 . S
C94 O91 1.244 . S
C94 O92 1.240 . S
H95 C69 0.931 . S
H96 C78 0.931 . S
H97 C82 0.929 . S
H98 C84 0.930 . S
Co99 N103 2.148 . S
Co99 N109 2.128 . S
Co99 N119 2.194 . S
Co99 O124 2.351 . S
Co99 O125 2.155 . S
Co99 O126 2.096 . S
C100 N103 1.301 . S
C100 N104 1.328 . S
C100 H105 0.930 . S
C101 C102 1.333 . S
C101 N103 1.317 . S
C101 H106 0.930 . S
C102 C101 1.333 . S
C102 N104 1.350 . S
C102 H128 0.931 . S
N103 Co99 2.148 . S
N103 C100 1.301 . S
N103 C101 1.317 . S
N104 C100 1.328 . S
N104 C102 1.350 . S
H105 C100 0.930 . S
H106 C101 0.930 . S
C107 O108 1.224 . S
C107 O126 1.247 . S
O108 C107 1.224 . S
N109 Co99 2.128 . S
N109 C110 1.355 . S
N109 C112 1.311 . S
C110 N109 1.355 . S
C110 C111 1.363 . S
C110 H122 0.929 . S
C111 C110 1.363 . S
C111 N113 1.375 . S
C111 H129 0.931 . S
C112 N109 1.311 . S
C112 N113 1.347 . S
C112 H123 0.929 . S
N113 C111 1.375 . S
N113 C112 1.347 . S
C114 C117 1.365 . S
C114 N119 1.328 . S
C114 H120 0.929 . S
C115 C116 1.362 . S
C115 C118 1.378 . S
C115 H130 0.929 . S
C116 C115 1.362 . S
C116 C117 1.366 . S
C117 C114 1.365 . S
C117 C116 1.366 . S
C117 H131 0.930 . S
C118 C115 1.378 . S
C118 N119 1.315 . S
C118 H121 0.930 . S
N119 Co99 2.194 . S
N119 C114 1.328 . S
N119 C118 1.315 . S
H120 C114 0.929 . S
H121 C118 0.930 . S
H122 C110 0.929 . S
H123 C112 0.929 . S
O124 Co99 2.351 . S
O124 C127 1.244 . S
O125 Co99 2.155 . S
O125 C127 1.240 . S
O126 Co99 2.096 . S
O126 C107 1.247 . S
C127 O124 1.244 . S
C127 O125 1.240 . S
H128 C102 0.931 . S
H129 C111 0.931 . S
H130 C115 0.929 . S
H131 C117 0.930 . S
Co132 N136 2.148 . S
Co132 N142 2.128 . S
Co132 N152 2.194 . S
Co132 O157 2.351 . S
Co132 O158 2.155 . S
Co132 O159 2.096 . S
C133 N136 1.301 . S
C133 N137 1.328 . S
C133 H138 0.930 . S
C134 C135 1.333 . S
C134 N136 1.317 . S
C134 H139 0.930 . S
C135 C134 1.333 . S
C135 N137 1.350 . S
C135 H161 0.931 . S
N136 Co132 2.148 . S
N136 C133 1.301 . S
N136 C134 1.317 . S
N137 C133 1.328 . S
N137 C135 1.350 . S
H138 C133 0.930 . S
H139 C134 0.930 . S
C140 O141 1.224 . S
C140 O159 1.247 . S
O141 C140 1.224 . S
N142 Co132 2.128 . S
N142 C143 1.355 . S
N142 C145 1.311 1_556 S
C143 N142 1.355 . S
C143 C144 1.363 1_556 S
C143 H155 0.929 . S
C144 C143 1.363 1_554 S
C144 N146 1.375 . S
C144 H162 0.931 . S
C145 N142 1.311 1_554 S
C145 N146 1.347 . S
C145 H156 0.929 . S
N146 C144 1.375 . S
N146 C145 1.347 . S
C147 C150 1.365 . S
C147 N152 1.328 . S
C147 H153 0.929 . S
C148 C149 1.362 . S
C148 C151 1.378 . S
C148 H163 0.929 . S
C149 C148 1.362 . S
C149 C150 1.366 . S
C150 C147 1.365 . S
C150 C149 1.366 . S
C150 H164 0.930 . S
C151 C148 1.378 . S
C151 N152 1.315 . S
C151 H154 0.930 . S
N152 Co132 2.194 . S
N152 C147 1.328 . S
N152 C151 1.315 . S
H153 C147 0.929 . S
H154 C151 0.930 . S
H155 C143 0.929 . S
H156 C145 0.929 . S
O157 Co132 2.351 . S
O157 C160 1.244 . S
O158 Co132 2.155 . S
O158 C160 1.240 . S
O159 Co132 2.096 . S
O159 C140 1.247 . S
C160 O157 1.244 . S
C160 O158 1.240 . S
H161 C135 0.931 . S
H162 C144 0.931 . S
H163 C148 0.929 . S
H164 C150 0.930 . S
Co165 N169 2.148 . S
Co165 N175 2.128 1_556 S
Co165 N185 2.194 . S
Co165 O190 2.351 . S
Co165 O191 2.155 . S
Co165 O192 2.096 . S
C166 N169 1.301 . S
C166 N170 1.328 . S
C166 H171 0.930 . S
C167 C168 1.333 . S
C167 N169 1.317 . S
C167 H172 0.930 . S
C168 C167 1.333 . S
C168 N170 1.350 . S
C168 H194 0.931 . S
N169 Co165 2.148 . S
N169 C166 1.301 . S
N169 C167 1.317 . S
N170 C166 1.328 . S
N170 C168 1.350 . S
H171 C166 0.930 . S
H172 C167 0.930 . S
C173 O174 1.224 . S
C173 O192 1.247 1_554 S
O174 C173 1.224 . S
N175 Co165 2.128 1_554 S
N175 C176 1.355 . S
N175 C178 1.311 . S
C176 N175 1.355 . S
C176 C177 1.363 . S
C176 H188 0.929 . S
C177 C176 1.363 . S
C177 N179 1.375 . S
C177 H195 0.931 . S
C178 N175 1.311 . S
C178 N179 1.347 . S
C178 H189 0.929 . S
N179 C177 1.375 . S
N179 C178 1.347 . S
C180 C183 1.365 . S
C180 N185 1.328 . S
C180 H186 0.929 . S
C181 C182 1.362 . S
C181 C184 1.378 . S
C181 H196 0.929 . S
C182 C181 1.362 . S
C182 C183 1.366 . S
C183 C180 1.365 . S
C183 C182 1.366 . S
C183 H197 0.930 . S
C184 C181 1.378 . S
C184 N185 1.315 . S
C184 H187 0.930 . S
N185 Co165 2.194 . S
N185 C180 1.328 . S
N185 C184 1.315 . S
H186 C180 0.929 . S
H187 C184 0.930 . S
H188 C176 0.929 . S
H189 C178 0.929 . S
O190 Co165 2.351 . S
O190 C193 1.244 . S
O191 Co165 2.155 . S
O191 C193 1.240 . S
O192 Co165 2.096 . S
O192 C173 1.247 1_556 S
C193 O190 1.244 . S
C193 O191 1.240 . S
H194 C168 0.931 . S
H195 C177 0.931 . S
H196 C181 0.929 . S
H197 C183 0.930 . S
Co198 N202 2.148 . S
Co198 N208 2.128 . S
Co198 N218 2.194 . S
Co198 O223 2.351 . S
Co198 O224 2.155 . S
Co198 O225 2.096 . S
C199 N202 1.301 . S
C199 N203 1.328 1_556 S
C199 H204 0.930 . S
C200 C201 1.333 . S
C200 N202 1.317 . S
C200 H205 0.930 . S
C201 C200 1.333 . S
C201 N203 1.350 1_556 S
C201 H227 0.931 1_556 S
N202 Co198 2.148 . S
N202 C199 1.301 . S
N202 C200 1.317 . S
N203 C199 1.328 1_554 S
N203 C201 1.350 1_554 S
H204 C199 0.930 . S
H205 C200 0.930 . S
C206 O207 1.224 . S
C206 O225 1.247 . S
O207 C206 1.224 . S
N208 Co198 2.128 . S
N208 C209 1.355 . S
N208 C211 1.311 . S
C209 N208 1.355 . S
C209 C210 1.363 . S
C209 H221 0.929 . S
C210 C209 1.363 . S
C210 N212 1.375 . S
C210 H228 0.931 . S
C211 N208 1.311 . S
C211 N212 1.347 . S
C211 H222 0.929 . S
N212 C210 1.375 . S
N212 C211 1.347 . S
C213 C216 1.365 . S
C213 N218 1.328 . S
C213 H219 0.929 . S
C214 C215 1.362 . S
C214 C217 1.378 . S
C214 H229 0.929 . S
C215 C214 1.362 . S
C215 C216 1.366 . S
C216 C213 1.365 . S
C216 C215 1.366 . S
C216 H230 0.930 . S
C217 C214 1.378 . S
C217 N218 1.315 . S
C217 H220 0.930 . S
N218 Co198 2.194 . S
N218 C213 1.328 . S
N218 C217 1.315 . S
H219 C213 0.929 . S
H220 C217 0.930 . S
H221 C209 0.929 . S
H222 C211 0.929 . S
O223 Co198 2.351 . S
O223 C226 1.244 . S
O224 Co198 2.155 . S
O224 C226 1.240 . S
O225 Co198 2.096 . S
O225 C206 1.247 . S
C226 O223 1.244 . S
C226 O224 1.240 . S
H227 C201 0.931 1_554 S
H228 C210 0.931 . S
H229 C214 0.929 . S
H230 C216 0.930 . S
Co231 N235 2.148 1_556 S
Co231 N241 2.128 . S
Co231 N251 2.194 . S
Co231 O256 2.351 . S
Co231 O257 2.155 . S
Co231 O258 2.096 . S
C232 N235 1.301 . S
C232 N236 1.328 . S
C232 H237 0.930 . S
C233 C234 1.333 . S
C233 N235 1.317 . S
C233 H238 0.930 . S
C234 C233 1.333 . S
C234 N236 1.350 . S
C234 H260 0.931 . S
N235 Co231 2.148 1_554 S
N235 C232 1.301 . S
N235 C233 1.317 . S
N236 C232 1.328 . S
N236 C234 1.350 . S
H237 C232 0.930 . S
H238 C233 0.930 . S
C239 O240 1.224 . S
C239 O258 1.247 . S
O240 C239 1.224 . S
N241 Co231 2.128 . S
N241 C242 1.355 . S
N241 C244 1.311 . S
C242 N241 1.355 . S
C242 C243 1.363 . S
C242 H254 0.929 . S
C243 C242 1.363 . S
C243 N245 1.375 . S
C243 H261 0.931 . S
C244 N241 1.311 . S
C244 N245 1.347 . S
C244 H255 0.929 . S
N245 C243 1.375 . S
N245 C244 1.347 . S
C246 C249 1.365 . S
C246 N251 1.328 . S
C246 H252 0.929 . S
C247 C248 1.362 . S
C247 C250 1.378 . S
C247 H262 0.929 . S
C248 C247 1.362 . S
C248 C249 1.366 . S
C249 C246 1.365 . S
C249 C248 1.366 . S
C249 H263 0.930 . S
C250 C247 1.378 . S
C250 N251 1.315 . S
C250 H253 0.930 . S
N251 Co231 2.194 . S
N251 C246 1.328 . S
N251 C250 1.315 . S
H252 C246 0.929 . S
H253 C250 0.930 . S
H254 C242 0.929 . S
H255 C244 0.929 . S
O256 Co231 2.351 . S
O256 C259 1.244 . S
O257 Co231 2.155 . S
O257 C259 1.240 . S
O258 Co231 2.096 . S
O258 C239 1.247 . S
C259 O256 1.244 . S
C259 O257 1.240 . S
H260 C234 0.931 . S
H261 C243 0.931 . S
H262 C247 0.929 . S
H263 C249 0.930 . S
Co264 N268 2.148 . S
Co264 N274 2.128 1_554 S
Co264 N284 2.194 . S
Co264 O289 2.351 . S
Co264 O290 2.155 . S
Co264 O291 2.096 . S
C265 N268 1.301 . S
C265 N269 1.328 . S
C265 H270 0.930 . S
C266 C267 1.333 . S
C266 N268 1.317 . S
C266 H271 0.930 . S
C267 C266 1.333 . S
C267 N269 1.350 . S
C267 H293 0.931 . S
N268 Co264 2.148 . S
N268 C265 1.301 . S
N268 C266 1.317 . S
N269 C265 1.328 . S
N269 C267 1.350 . S
H270 C265 0.930 . S
H271 C266 0.930 . S
C272 O273 1.224 . S
C272 O291 1.247 1_556 S
O273 C272 1.224 . S
N274 Co264 2.128 1_556 S
N274 C275 1.355 . S
N274 C277 1.311 . S
C275 N274 1.355 . S
C275 C276 1.363 . S
C275 H287 0.929 . S
C276 C275 1.363 . S
C276 N278 1.375 . S
C276 H294 0.931 . S
C277 N274 1.311 . S
C277 N278 1.347 . S
C277 H288 0.929 . S
N278 C276 1.375 . S
N278 C277 1.347 . S
C279 C282 1.365 . S
C279 N284 1.328 . S
C279 H285 0.929 . S
C280 C281 1.362 . S
C280 C283 1.378 . S
C280 H295 0.929 . S
C281 C280 1.362 . S
C281 C282 1.366 . S
C282 C279 1.365 . S
C282 C281 1.366 . S
C282 H296 0.930 . S
C283 C280 1.378 . S
C283 N284 1.315 . S
C283 H286 0.930 . S
N284 Co264 2.194 . S
N284 C279 1.328 . S
N284 C283 1.315 . S
H285 C279 0.929 . S
H286 C283 0.930 . S
H287 C275 0.929 . S
H288 C277 0.929 . S
O289 Co264 2.351 . S
O289 C292 1.244 . S
O290 Co264 2.155 . S
O290 C292 1.240 . S
O291 Co264 2.096 . S
O291 C272 1.247 1_554 S
C292 O289 1.244 . S
C292 O290 1.240 . S
H293 C267 0.931 . S
H294 C276 0.931 . S
H295 C280 0.929 . S
H296 C282 0.930 . S
Co297 N301 2.148 . S
Co297 N307 2.128 . S
Co297 N317 2.194 . S
Co297 O322 2.351 . S
Co297 O323 2.155 . S
Co297 O324 2.096 . S
C298 N301 1.301 . S
C298 N302 1.328 . S
C298 H303 0.930 . S
C299 C300 1.333 . S
C299 N301 1.317 . S
C299 H304 0.930 . S
C300 C299 1.333 . S
C300 N302 1.350 . S
C300 H326 0.931 . S
N301 Co297 2.148 . S
N301 C298 1.301 . S
N301 C299 1.317 . S
N302 C298 1.328 . S
N302 C300 1.350 . S
H303 C298 0.930 . S
H304 C299 0.930 . S
C305 O306 1.224 . S
C305 O324 1.247 . S
O306 C305 1.224 . S
N307 Co297 2.128 . S
N307 C308 1.355 . S
N307 C310 1.311 1_554 S
C308 N307 1.355 . S
C308 C309 1.363 1_554 S
C308 H320 0.929 . S
C309 C308 1.363 1_556 S
C309 N311 1.375 . S
C309 H327 0.931 . S
C310 N307 1.311 1_556 S
C310 N311 1.347 . S
C310 H321 0.929 . S
N311 C309 1.375 . S
N311 C310 1.347 . S
C312 C315 1.365 . S
C312 N317 1.328 . S
C312 H318 0.929 . S
C313 C314 1.362 . S
C313 C316 1.378 . S
C313 H328 0.929 . S
C314 C313 1.362 . S
C314 C315 1.366 . S
C315 C312 1.365 . S
C315 C314 1.366 . S
C315 H329 0.930 . S
C316 C313 1.378 . S
C316 N317 1.315 . S
C316 H319 0.930 . S
N317 Co297 2.194 . S
N317 C312 1.328 . S
N317 C316 1.315 . S
H318 C312 0.929 . S
H319 C316 0.930 . S
H320 C308 0.929 . S
H321 C310 0.929 . S
O322 Co297 2.351 . S
O322 C325 1.244 . S
O323 Co297 2.155 . S
O323 C325 1.240 . S
O324 Co297 2.096 . S
O324 C305 1.247 . S
C325 O322 1.244 . S
C325 O323 1.240 . S
H326 C300 0.931 . S
H327 C309 0.931 . S
H328 C313 0.929 . S
H329 C315 0.930 . S
Co330 N334 2.148 . S
Co330 N340 2.128 . S
Co330 N350 2.194 . S
Co330 O355 2.351 . S
Co330 O356 2.155 . S
Co330 O357 2.096 . S
C331 N334 1.301 . S
C331 N335 1.328 . S
C331 H336 0.930 . S
C332 C333 1.333 . S
C332 N334 1.317 . S
C332 H337 0.930 . S
C333 C332 1.333 . S
C333 N335 1.350 . S
C333 H359 0.931 . S
N334 Co330 2.148 . S
N334 C331 1.301 . S
N334 C332 1.317 . S
N335 C331 1.328 . S
N335 C333 1.350 . S
H336 C331 0.930 . S
H337 C332 0.930 . S
C338 O339 1.224 . S
C338 O357 1.247 . S
O339 C338 1.224 . S
N340 Co330 2.128 . S
N340 C341 1.355 . S
N340 C343 1.311 . S
C341 N340 1.355 . S
C341 C342 1.363 . S
C341 H353 0.929 . S
C342 C341 1.363 . S
C342 N344 1.375 . S
C342 H360 0.931 . S
C343 N340 1.311 . S
C343 N344 1.347 . S
C343 H354 0.929 . S
N344 C342 1.375 . S
N344 C343 1.347 . S
C345 C348 1.365 . S
C345 N350 1.328 . S
C345 H351 0.929 . S
C346 C347 1.362 . S
C346 C349 1.378 . S
C346 H361 0.929 . S
C347 C346 1.362 . S
C347 C348 1.366 . S
C348 C345 1.365 . S
C348 C347 1.366 . S
C348 H362 0.930 . S
C349 C346 1.378 . S
C349 N350 1.315 . S
C349 H352 0.930 . S
N350 Co330 2.194 . S
N350 C345 1.328 . S
N350 C349 1.315 . S
H351 C345 0.929 . S
H352 C349 0.930 . S
H353 C341 0.929 . S
H354 C343 0.929 . S
O355 Co330 2.351 . S
O355 C358 1.244 . S
O356 Co330 2.155 . S
O356 C358 1.240 . S
O357 Co330 2.096 . S
O357 C338 1.247 . S
C358 O355 1.244 . S
C358 O356 1.240 . S
H359 C333 0.931 . S
H360 C342 0.931 . S
H361 C346 0.929 . S
H362 C348 0.930 . S
Co363 N367 2.148 . S
Co363 N373 2.128 . S
Co363 N383 2.194 . S
Co363 O388 2.351 . S
Co363 O389 2.155 . S
Co363 O390 2.096 . S
C364 N367 1.301 . S
C364 N368 1.328 . S
C364 H369 0.930 . S
C365 C366 1.333 . S
C365 N367 1.317 . S
C365 H370 0.930 . S
C366 C365 1.333 . S
C366 N368 1.350 . S
C366 H392 0.931 . S
N367 Co363 2.148 . S
N367 C364 1.301 . S
N367 C365 1.317 . S
N368 C364 1.328 . S
N368 C366 1.350 . S
H369 C364 0.930 . S
H370 C365 0.930 . S
C371 O372 1.224 . S
C371 O390 1.247 . S
O372 C371 1.224 . S
N373 Co363 2.128 . S
N373 C374 1.355 . S
N373 C376 1.311 . S
C374 N373 1.355 . S
C374 C375 1.363 . S
C374 H386 0.929 . S
C375 C374 1.363 . S
C375 N377 1.375 . S
C375 H393 0.931 . S
C376 N373 1.311 . S
C376 N377 1.347 . S
C376 H387 0.929 . S
N377 C375 1.375 . S
N377 C376 1.347 . S
C378 C381 1.365 . S
C378 N383 1.328 . S
C378 H384 0.929 . S
C379 C380 1.362 . S
C379 C382 1.378 . S
C379 H394 0.929 . S
C380 C379 1.362 . S
C380 C381 1.366 . S
C381 C378 1.365 . S
C381 C380 1.366 . S
C381 H395 0.930 . S
C382 C379 1.378 . S
C382 N383 1.315 . S
C382 H385 0.930 . S
N383 Co363 2.194 . S
N383 C378 1.328 . S
N383 C382 1.315 . S
H384 C378 0.929 . S
H385 C382 0.930 . S
H386 C374 0.929 . S
H387 C376 0.929 . S
O388 Co363 2.351 . S
O388 C391 1.244 . S
O389 Co363 2.155 . S
O389 C391 1.240 . S
O390 Co363 2.096 . S
O390 C371 1.247 . S
C391 O388 1.244 . S
C391 O389 1.240 . S
H392 C366 0.931 . S
H393 C375 0.931 . S
H394 C379 0.929 . S
H395 C381 0.930 . S
C396 C397 1.363 . S
C396 C402 1.379 . S
C396 N404 1.352 1_554 S
C397 C396 1.363 . S
C397 C403 1.363 . S
C398 C399 1.363 . S
C398 C403 1.379 . S
C398 N405 1.356 . S
C399 C398 1.363 . S
C399 C402 1.363 . S
N400 C402 1.356 . S
N400 H412 0.989 . S
N400 H413 0.985 . S
N401 C403 1.356 . S
N401 H406 0.984 . S
N401 H407 0.985 . S
C402 C396 1.379 . S
C402 C399 1.363 . S
C402 N400 1.356 . S
C403 C397 1.363 . S
C403 C398 1.379 . S
C403 N401 1.356 . S
N404 C396 1.352 1_556 S
N404 H410 0.989 . S
N404 H411 0.984 . S
N405 C398 1.356 . S
N405 H408 0.984 . S
N405 H409 0.985 . S
H406 N401 0.984 . S
H407 N401 0.985 . S
H408 N405 0.984 . S
H409 N405 0.985 . S
H410 N404 0.989 . S
H411 N404 0.984 . S
H412 N400 0.989 . S
H413 N400 0.985 . S
C414 C415 1.363 . S
C414 C420 1.379 . S
C414 N422 1.356 . S
C415 C414 1.363 . S
C415 C421 1.363 . S
C416 C417 1.363 . S
C416 C421 1.379 . S
C416 N423 1.356 . S
C417 C416 1.363 . S
C417 C420 1.363 . S
N418 C420 1.356 . S
N418 H430 0.984 . S
N418 H431 0.985 . S
N419 C421 1.356 . S
N419 H424 0.984 . S
N419 H425 0.985 . S
C420 C414 1.379 . S
C420 C417 1.363 . S
C420 N418 1.356 . S
C421 C415 1.363 . S
C421 C416 1.379 . S
C421 N419 1.356 . S
N422 C414 1.356 . S
N422 H428 0.984 . S
N422 H429 0.984 . S
N423 C416 1.356 . S
N423 H426 0.984 . S
N423 H427 0.985 . S
H424 N419 0.984 . S
H425 N419 0.985 . S
H426 N423 0.984 . S
H427 N423 0.985 . S
H428 N422 0.984 . S
H429 N422 0.984 . S
H430 N418 0.984 . S
H431 N418 0.985 . S
C432 C433 1.363 . S
C432 C438 1.379 . S
C432 N440 1.356 . S
C433 C432 1.363 . S
C433 C439 1.363 . S
C434 C435 1.363 . S
C434 C439 1.379 . S
C434 N441 1.356 . S
C435 C434 1.363 . S
C435 C438 1.363 . S
N436 C438 1.356 . S
N436 H448 0.984 . S
N436 H449 0.985 . S
N437 C439 1.356 . S
N437 H442 0.984 . S
N437 H443 0.985 . S
C438 C432 1.379 . S
C438 C435 1.363 . S
C438 N436 1.356 . S
C439 C433 1.363 . S
C439 C434 1.379 . S
C439 N437 1.356 . S
N440 C432 1.356 . S
N440 H446 0.984 . S
N440 H447 0.984 . S
N441 C434 1.356 . S
N441 H444 0.984 . S
N441 H445 0.985 . S
H442 N437 0.984 . S
H443 N437 0.985 . S
H444 N441 0.984 . S
H445 N441 0.985 . S
H446 N440 0.984 . S
H447 N440 0.984 . S
H448 N436 0.984 . S
H449 N436 0.985 . S
C450 C451 1.363 . S
C450 C456 1.379 . S
C450 N458 1.356 . S
C451 C450 1.363 . S
C451 C457 1.363 . S
C452 C453 1.363 . S
C452 C457 1.379 . S
C452 N459 1.356 . S
C453 C452 1.363 . S
C453 C456 1.363 . S
N454 C456 1.356 . S
N454 H466 0.984 . S
N454 H467 0.985 . S
N455 C457 1.356 . S
N455 H460 0.984 . S
N455 H461 0.985 . S
C456 C450 1.379 . S
C456 C453 1.363 . S
C456 N454 1.356 . S
C457 C451 1.363 . S
C457 C452 1.379 . S
C457 N455 1.356 . S
N458 C450 1.356 . S
N458 H464 0.984 . S
N458 H465 0.984 . S
N459 C452 1.356 . S
N459 H462 0.984 . S
N459 H463 0.985 . S
H460 N455 0.984 . S
H461 N455 0.985 . S
H462 N459 0.984 . S
H463 N459 0.985 . S
H464 N458 0.984 . S
H465 N458 0.984 . S
H466 N454 0.984 . S
H467 N454 0.985 . S
C468 C469 1.363 . S
C468 C474 1.379 . S
C468 N476 1.356 . S
C469 C468 1.363 . S
C469 C475 1.363 . S
C470 C471 1.363 . S
C470 C475 1.379 . S
C470 N477 1.356 . S
C471 C470 1.363 . S
C471 C474 1.363 . S
N472 C474 1.356 . S
N472 H484 0.984 . S
N472 H485 0.985 . S
N473 C475 1.356 . S
N473 H478 0.984 . S
N473 H479 0.985 . S
C474 C468 1.379 . S
C474 C471 1.363 . S
C474 N472 1.356 . S
C475 C469 1.363 . S
C475 C470 1.379 . S
C475 N473 1.356 . S
N476 C468 1.356 . S
N476 H482 0.984 . S
N476 H483 0.984 . S
N477 C470 1.356 . S
N477 H480 0.984 . S
N477 H481 0.985 . S
H478 N473 0.984 . S
H479 N473 0.985 . S
H480 N477 0.984 . S
H481 N477 0.985 . S
H482 N476 0.984 . S
H483 N476 0.984 . S
H484 N472 0.984 . S
H485 N472 0.985 . S
C486 C487 1.363 . S
C486 C492 1.379 . S
C486 N494 1.356 . S
C487 C486 1.363 . S
C487 C493 1.363 . S
C488 C489 1.363 . S
C488 C493 1.379 . S
C488 N495 1.356 1_556 S
C489 C488 1.363 . S
C489 C492 1.363 . S
N490 C492 1.356 . S
N490 H502 0.984 . S
N490 H503 0.985 . S
N491 C493 1.356 1_554 S
N491 H496 0.984 1_554 S
N491 H497 0.985 . S
C492 C486 1.379 . S
C492 C489 1.363 . S
C492 N490 1.356 . S
C493 C487 1.363 . S
C493 C488 1.379 . S
C493 N491 1.356 1_556 S
N494 C486 1.356 . S
N494 H500 0.984 . S
N494 H501 0.984 . S
N495 C488 1.356 1_554 S
N495 H498 0.984 . S
N495 H499 0.985 . S
H496 N491 0.984 1_556 S
H497 N491 0.985 . S
H498 N495 0.984 . S
H499 N495 0.985 . S
H500 N494 0.984 . S
H501 N494 0.984 . S
H502 N490 0.984 . S
H503 N490 0.985 . S
C504 C505 1.363 . S
C504 C510 1.379 . S
C504 N512 1.356 . S
C505 C504 1.363 . S
C505 C511 1.363 . S
C506 C507 1.363 . S
C506 C511 1.379 . S
C506 N513 1.356 . S
C507 C506 1.363 . S
C507 C510 1.363 . S
N508 C510 1.356 . S
N508 H520 0.984 . S
N508 H521 0.985 . S
N509 C511 1.356 . S
N509 H514 0.984 . S
N509 H515 0.985 . S
C510 C504 1.379 . S
C510 C507 1.363 . S
C510 N508 1.356 . S
C511 C505 1.363 . S
C511 C506 1.379 . S
C511 N509 1.356 . S
N512 C504 1.356 . S
N512 H518 0.984 . S
N512 H519 0.984 . S
N513 C506 1.356 . S
N513 H516 0.984 . S
N513 H517 0.985 . S
H514 N509 0.984 . S
H515 N509 0.985 . S
H516 N513 0.984 . S
H517 N513 0.985 . S
H518 N512 0.984 . S
H519 N512 0.984 . S
H520 N508 0.984 . S
H521 N508 0.985 . S
C522 C523 1.363 . S
C522 C528 1.379 . S
C522 N530 1.356 . S
C523 C522 1.363 . S
C523 C529 1.363 . S
C524 C525 1.363 . S
C524 C529 1.379 . S
C524 N531 1.356 . S
C525 C524 1.363 . S
C525 C528 1.363 . S
N526 C528 1.356 . S
N526 H538 0.984 . S
N526 H539 0.985 . S
N527 C529 1.356 . S
N527 H532 0.984 . S
N527 H533 0.985 . S
C528 C522 1.379 . S
C528 C525 1.363 . S
C528 N526 1.356 . S
C529 C523 1.363 . S
C529 C524 1.379 . S
C529 N527 1.356 . S
N530 C522 1.356 . S
N530 H536 0.984 . S
N530 H537 0.984 . S
N531 C524 1.356 . S
N531 H534 0.984 . S
N531 H535 0.985 . S
H532 N527 0.984 . S
H533 N527 0.985 . S
H534 N531 0.984 . S
H535 N531 0.985 . S
H536 N530 0.984 . S
H537 N530 0.984 . S
H538 N526 0.984 . S
H539 N526 0.985 . S
C540 C541 1.363 . S
C540 C546 1.386 . S
C540 N548 1.356 . S
C541 C540 1.363 . S
C541 C547 1.363 . S
C542 C543 1.363 1_556 S
C542 C547 1.379 . S
C542 N549 1.356 1_556 S
C543 C542 1.363 1_554 S
C543 C546 1.359 1_554 S
N544 C546 1.351 1_554 S
N544 H556 0.984 . S
N544 H557 0.985 . S
N545 C547 1.356 . S
N545 H550 0.984 . S
N545 H551 0.985 . S
C546 C540 1.386 . S
C546 C543 1.359 1_556 S
C546 N544 1.351 1_556 S
C547 C541 1.363 . S
C547 C542 1.379 . S
C547 N545 1.356 . S
N548 C540 1.356 . S
N548 H554 0.984 . S
N548 H555 0.984 . S
N549 C542 1.356 1_554 S
N549 H552 0.984 . S
N549 H553 0.985 . S
H550 N545 0.984 . S
H551 N545 0.985 . S
H552 N549 0.984 . S
H553 N549 0.985 . S
H554 N548 0.984 . S
H555 N548 0.984 . S
H556 N544 0.984 . S
H557 N544 0.985 . S
C558 C559 1.363 . S
C558 C564 1.379 . S
C558 N566 1.356 . S
C559 C558 1.363 . S
C559 C565 1.363 . S
C560 C561 1.363 . S
C560 C565 1.379 . S
C560 N567 1.356 . S
C561 C560 1.363 . S
C561 C564 1.363 . S
N562 C564 1.356 . S
N562 H574 0.984 . S
N562 H575 0.985 . S
N563 C565 1.356 1_556 S
N563 H568 0.984 . S
N563 H569 0.985 . S
C564 C558 1.379 . S
C564 C561 1.363 . S
C564 N562 1.356 . S
C565 C559 1.363 . S
C565 C560 1.379 . S
C565 N563 1.356 1_554 S
N566 C558 1.356 . S
N566 H572 0.984 . S
N566 H573 0.984 1_554 S
N567 C560 1.356 . S
N567 H570 0.984 . S
N567 H571 0.985 . S
H568 N563 0.984 . S
H569 N563 0.985 . S
H570 N567 0.984 . S
H571 N567 0.985 . S
H572 N566 0.984 . S
H573 N566 0.984 1_556 S
H574 N562 0.984 . S
H575 N562 0.985 . S
C576 C577 1.363 . S
C576 C582 1.379 . S
C576 N584 1.356 . S
C577 C576 1.363 . S
C577 C583 1.363 . S
C578 C579 1.363 . S
C578 C583 1.379 . S
C578 N585 1.356 . S
C579 C578 1.363 . S
C579 C582 1.363 . S
N580 C582 1.356 . S
N580 H592 0.984 . S
N580 H593 0.985 . S
N581 C583 1.356 . S
N581 H586 0.984 . S
N581 H587 0.985 . S
C582 C576 1.379 . S
C582 C579 1.363 . S
C582 N580 1.356 . S
C583 C577 1.363 . S
C583 C578 1.379 . S
C583 N581 1.356 . S
N584 C576 1.356 . S
N584 H590 0.984 . S
N584 H591 0.984 . S
N585 C578 1.356 . S
N585 H588 0.984 . S
N585 H589 0.985 . S
H586 N581 0.984 . S
H587 N581 0.985 . S
H588 N585 0.984 . S
H589 N585 0.985 . S
H590 N584 0.984 . S
H591 N584 0.984 . S
H592 N580 0.984 . S
H593 N580 0.985 . S
C594 C595 1.363 . S
C594 C600 1.379 . S
C594 N602 1.356 . S
C595 C594 1.363 . S
C595 C601 1.363 . S
C596 C597 1.363 . S
C596 C601 1.379 . S
C596 N603 1.356 . S
C597 C596 1.363 . S
C597 C600 1.363 . S
N598 C600 1.356 . S
N598 H610 0.984 . S
N598 H611 0.985 . S
N599 C601 1.356 . S
N599 H604 0.984 . S
N599 H605 0.985 . S
C600 C594 1.379 . S
C600 C597 1.363 . S
C600 N598 1.356 . S
C601 C595 1.363 . S
C601 C596 1.379 . S
C601 N599 1.356 . S
N602 C594 1.356 . S
N602 H608 0.984 . S
N602 H609 0.984 . S
N603 C596 1.356 . S
N603 H606 0.984 . S
N603 H607 0.985 . S
H604 N599 0.984 . S
H605 N599 0.985 . S
H606 N603 0.984 . S
H607 N603 0.985 . S
H608 N602 0.984 . S
H609 N602 0.984 . S
H610 N598 0.984 . S
H611 N598 0.985 . S
C612 C613 1.363 . S
C612 C618 1.379 . S
C612 N620 1.356 . S
C613 C612 1.363 . S
C613 C619 1.363 . S
C614 C615 1.363 . S
C614 C619 1.379 . S
C614 N621 1.356 . S
C615 C614 1.363 . S
C615 C618 1.363 . S
N616 C618 1.356 . S
N616 H628 0.984 . S
N616 H629 0.985 . S
N617 C619 1.356 . S
N617 H622 0.984 . S
N617 H623 0.985 . S
C618 C612 1.379 . S
C618 C615 1.363 . S
C618 N616 1.356 . S
C619 C613 1.363 . S
C619 C614 1.379 . S
C619 N617 1.356 . S
N620 C612 1.356 . S
N620 H626 0.984 . S
N620 H627 0.984 . S
N621 C614 1.356 . S
N621 H624 0.984 . S
N621 H625 0.985 . S
H622 N617 0.984 . S
H623 N617 0.985 . S
H624 N621 0.984 . S
H625 N621 0.985 . S
H626 N620 0.984 . S
H627 N620 0.984 . S
H628 N616 0.984 . S
H629 N616 0.985 . S
C630 C631 1.363 . S
C630 C636 1.379 . S
C630 N638 1.356 . S
C631 C630 1.363 . S
C631 C637 1.363 . S
C632 C633 1.363 . S
C632 C637 1.379 . S
C632 N639 1.356 . S
C633 C632 1.363 . S
C633 C636 1.363 . S
N634 C636 1.356 . S
N634 H646 0.984 . S
N634 H647 0.985 . S
N635 C637 1.356 . S
N635 H640 0.984 . S
N635 H641 0.985 . S
C636 C630 1.379 . S
C636 C633 1.363 . S
C636 N634 1.356 . S
C637 C631 1.363 . S
C637 C632 1.379 . S
C637 N635 1.356 . S
N638 C630 1.356 . S
N638 H644 0.984 . S
N638 H645 0.984 . S
N639 C632 1.356 . S
N639 H642 0.984 . S
N639 H643 0.985 . S
H640 N635 0.984 . S
H641 N635 0.985 . S
H642 N639 0.984 . S
H643 N639 0.985 . S
H644 N638 0.984 . S
H645 N638 0.984 . S
H646 N634 0.984 . S
H647 N634 0.985 . S
C648 C649 1.363 . S
C648 C654 1.379 . S
C648 N656 1.356 . S
C649 C648 1.363 . S
C649 C655 1.363 . S
C650 C651 1.363 . S
C650 C655 1.379 . S
C650 N657 1.356 . S
C651 C650 1.363 . S
C651 C654 1.363 . S
N652 C654 1.356 . S
N652 H664 0.984 . S
N652 H665 0.985 . S
N653 C655 1.356 . S
N653 H658 0.984 . S
N653 H659 0.985 . S
C654 C648 1.379 . S
C654 C651 1.363 . S
C654 N652 1.356 . S
C655 C649 1.363 . S
C655 C650 1.379 . S
C655 N653 1.356 . S
N656 C648 1.356 . S
N656 H662 0.984 . S
N656 H663 0.984 . S
N657 C650 1.356 . S
N657 H660 0.984 . S
N657 H661 0.985 . S
H658 N653 0.984 . S
H659 N653 0.985 . S
H660 N657 0.984 . S
H661 N657 0.985 . S
H662 N656 0.984 . S
H663 N656 0.984 . S
H664 N652 0.984 . S
H665 N652 0.985 . S
C666 C667 1.363 . S
C666 C672 1.379 . S
C666 N674 1.356 . S
C667 C666 1.363 . S
C667 C673 1.363 . S
C668 C669 1.363 . S
C668 C673 1.379 . S
C668 N675 1.356 . S
C669 C668 1.363 . S
C669 C672 1.363 . S
N670 C672 1.356 . S
N670 H682 0.984 . S
N670 H683 0.985 . S
N671 C673 1.356 . S
N671 H676 0.984 . S
N671 H677 0.985 . S
C672 C666 1.379 . S
C672 C669 1.363 . S
C672 N670 1.356 . S
C673 C667 1.363 . S
C673 C668 1.379 . S
C673 N671 1.356 . S
N674 C666 1.356 . S
N674 H680 0.984 . S
N674 H681 0.984 . S
N675 C668 1.356 . S
N675 H678 0.984 . S
N675 H679 0.985 . S
H676 N671 0.984 . S
H677 N671 0.985 . S
H678 N675 0.984 . S
H679 N675 0.985 . S
H680 N674 0.984 . S
H681 N674 0.984 . S
H682 N670 0.984 . S
H683 N670 0.985 . S
C684 C685 1.363 . S
C684 C690 1.379 . S
C684 N692 1.356 . S
C685 C684 1.363 . S
C685 C691 1.363 . S
C686 C687 1.363 . S
C686 C691 1.379 . S
C686 N693 1.356 . S
C687 C686 1.363 . S
C687 C690 1.363 . S
N688 C690 1.356 1_554 S
N688 H700 0.984 1_554 S
N688 H701 0.985 . S
N689 C691 1.356 . S
N689 H694 0.984 . S
N689 H695 0.985 . S
C690 C684 1.379 . S
C690 C687 1.363 . S
C690 N688 1.356 1_556 S
C691 C685 1.363 . S
C691 C686 1.379 . S
C691 N689 1.356 . S
N692 C684 1.356 . S
N692 H698 0.984 . S
N692 H699 0.984 . S
N693 C686 1.356 . S
N693 H696 0.984 1_556 S
N693 H697 0.985 . S
H694 N689 0.984 . S
H695 N689 0.985 . S
H696 N693 0.984 1_554 S
H697 N693 0.985 . S
H698 N692 0.984 . S
H699 N692 0.984 . S
H700 N688 0.984 1_556 S
H701 N688 0.985 . S
C702 C703 1.363 . S
C702 C708 1.379 . S
C702 N710 1.356 . S
C703 C702 1.363 . S
C703 C709 1.363 . S
C704 C705 1.363 1_554 S
C704 C709 1.380 . S
C704 N711 1.356 1_554 S
C705 C704 1.363 1_556 S
C705 C708 1.363 1_556 S
N706 C708 1.356 1_556 S
N706 H718 0.984 . S
N706 H719 0.985 . S
N707 C709 1.356 . S
N707 H712 0.984 . S
N707 H713 0.985 . S
C708 C702 1.379 . S
C708 C705 1.363 1_554 S
C708 N706 1.356 1_554 S
C709 C703 1.363 . S
C709 C704 1.380 . S
C709 N707 1.356 . S
N710 C702 1.356 . S
N710 H716 0.984 . S
N710 H717 0.984 . S
N711 C704 1.356 1_556 S
N711 H714 0.984 . S
N711 H715 0.985 . S
H712 N707 0.984 . S
H713 N707 0.985 . S
H714 N711 0.984 . S
H715 N711 0.985 . S
H716 N710 0.984 . S
H717 N710 0.984 . S
H718 N706 0.984 . S
H719 N706 0.985 . S
C720 C721 1.363 . S
C720 C726 1.379 . S
C720 N728 1.356 . S
C721 C720 1.363 . S
C721 C727 1.363 . S
C722 C723 1.363 . S
C722 C727 1.379 . S
C722 N729 1.356 . S
C723 C722 1.363 . S
C723 C726 1.363 . S
N724 C726 1.356 . S
N724 H736 0.984 . S
N724 H737 0.985 . S
N725 C727 1.356 . S
N725 H730 0.984 . S
N725 H731 0.985 . S
C726 C720 1.379 . S
C726 C723 1.363 . S
C726 N724 1.356 . S
C727 C721 1.363 . S
C727 C722 1.379 . S
C727 N725 1.356 . S
N728 C720 1.356 . S
N728 H734 0.984 . S
N728 H735 0.984 . S
N729 C722 1.356 . S
N729 H732 0.984 . S
N729 H733 0.985 . S
H730 N725 0.984 . S
H731 N725 0.985 . S
H732 N729 0.984 . S
H733 N729 0.985 . S
H734 N728 0.984 . S
H735 N728 0.984 . S
H736 N724 0.984 . S
H737 N724 0.985 . S
C738 C739 1.363 . S
C738 C744 1.379 . S
C738 N746 1.356 . S
C739 C738 1.363 . S
C739 C745 1.363 . S
C740 C741 1.363 . S
C740 C745 1.379 . S
C740 N747 1.356 . S
C741 C740 1.363 . S
C741 C744 1.363 . S
N742 C744 1.356 . S
N742 H754 0.984 . S
N742 H755 0.985 . S
N743 C745 1.356 . S
N743 H748 0.984 . S
N743 H749 0.985 . S
C744 C738 1.379 . S
C744 C741 1.363 . S
C744 N742 1.356 . S
C745 C739 1.363 . S
C745 C740 1.379 . S
C745 N743 1.356 . S
N746 C738 1.356 . S
N746 H752 0.984 . S
N746 H753 0.984 . S
N747 C740 1.356 . S
N747 H750 0.984 . S
N747 H751 0.985 . S
H748 N743 0.984 . S
H749 N743 0.985 . S
H750 N747 0.984 . S
H751 N747 0.985 . S
H752 N746 0.984 . S
H753 N746 0.984 . S
H754 N742 0.984 . S
H755 N742 0.985 . S
C756 C757 1.363 . S
C756 C762 1.379 . S
C756 N764 1.356 . S
C757 C756 1.363 . S
C757 C763 1.363 . S
C758 C759 1.363 . S
C758 C763 1.379 . S
C758 N765 1.356 . S
C759 C758 1.363 . S
C759 C762 1.363 . S
N760 C762 1.356 . S
N760 H772 0.984 . S
N760 H773 0.985 . S
N761 C763 1.356 . S
N761 H766 0.984 . S
N761 H767 0.985 . S
C762 C756 1.379 . S
C762 C759 1.363 . S
C762 N760 1.356 . S
C763 C757 1.363 . S
C763 C758 1.379 . S
C763 N761 1.356 . S
N764 C756 1.356 . S
N764 H770 0.984 . S
N764 H771 0.984 . S
N765 C758 1.356 . S
N765 H768 0.984 . S
N765 H769 0.985 . S
H766 N761 0.984 . S
H767 N761 0.985 . S
H768 N765 0.984 . S
H769 N765 0.985 . S
H770 N764 0.984 . S
H771 N764 0.984 . S
H772 N760 0.984 . S
H773 N760 0.985 . S
C774 C775 1.363 . S
C774 C780 1.379 . S
C774 N782 1.356 . S
C775 C774 1.363 . S
C775 C781 1.363 . S
C776 C777 1.363 . S
C776 C781 1.379 . S
C776 N783 1.356 . S
C777 C776 1.363 . S
C777 C780 1.363 . S
N778 C780 1.356 . S
N778 H790 0.984 . S
N778 H791 0.985 . S
N779 C781 1.356 . S
N779 H784 0.984 . S
N779 H785 0.985 . S
C780 C774 1.379 . S
C780 C777 1.363 . S
C780 N778 1.356 . S
C781 C775 1.363 . S
C781 C776 1.379 . S
C781 N779 1.356 . S
N782 C774 1.356 . S
N782 H788 0.984 . S
N782 H789 0.984 . S
N783 C776 1.356 . S
N783 H786 0.984 . S
N783 H787 0.985 . S
H784 N779 0.984 . S
H785 N779 0.985 . S
H786 N783 0.984 . S
H787 N783 0.985 . S
H788 N782 0.984 . S
H789 N782 0.984 . S
H790 N778 0.984 . S
H791 N778 0.985 . S
C792 C793 1.363 . S
C792 C798 1.379 . S
C792 N800 1.356 1_556 S
C793 C792 1.363 . S
C793 C799 1.363 . S
C794 C795 1.363 . S
C794 C799 1.379 . S
C794 N801 1.356 . S
C795 C794 1.363 . S
C795 C798 1.363 . S
N796 C798 1.356 . S
N796 H808 0.984 1_556 S
N796 H809 0.985 . S
N797 C799 1.356 . S
N797 H802 0.984 . S
N797 H803 0.985 . S
C798 C792 1.379 . S
C798 C795 1.363 . S
C798 N796 1.356 . S
C799 C793 1.363 . S
C799 C794 1.379 . S
C799 N797 1.356 . S
N800 C792 1.356 1_554 S
N800 H806 0.984 . S
N800 H807 0.984 . S
N801 C794 1.356 . S
N801 H804 0.984 . S
N801 H805 0.985 . S
H802 N797 0.984 . S
H803 N797 0.985 . S
H804 N801 0.984 . S
H805 N801 0.985 . S
H806 N800 0.984 . S
H807 N800 0.984 . S
H808 N796 0.984 1_554 S
H809 N796 0.985 . S
C810 C811 1.363 . S
C810 C816 1.379 . S
C810 N818 1.356 . S
C811 C810 1.363 . S
C811 C817 1.363 . S
C812 C813 1.363 . S
C812 C817 1.379 . S
C812 N819 1.356 1_554 S
C813 C812 1.363 . S
C813 C816 1.363 . S
N814 C816 1.356 . S
N814 H826 0.984 . S
N814 H827 0.985 . S
N815 C817 1.356 . S
N815 H820 0.984 . S
N815 H821 0.985 1_554 S
C816 C810 1.379 . S
C816 C813 1.363 . S
C816 N814 1.356 . S
C817 C811 1.363 . S
C817 C812 1.379 . S
C817 N815 1.356 . S
N818 C810 1.356 . S
N818 H824 0.984 . S
N818 H825 0.984 . S
N819 C812 1.356 1_556 S
N819 H822 0.984 . S
N819 H823 0.985 . S
H820 N815 0.984 . S
H821 N815 0.985 1_556 S
H822 N819 0.984 . S
H823 N819 0.985 . S
H824 N818 0.984 . S
H825 N818 0.984 . S
H826 N814 0.984 . S
H827 N814 0.985 . S
C828 C829 1.363 . S
C828 C834 1.379 1_545 S
C828 N836 1.356 . S
C829 C828 1.363 . S
C829 C835 1.363 1_554 S
C830 C831 1.363 . S
C830 C835 1.379 1_565 S
C830 N837 1.356 . S
C831 C830 1.363 . S
C831 C834 1.363 1_556 S
N832 C834 1.356 . S
N832 H844 0.984 . S
N832 H845 0.985 . S
N833 C835 1.356 . S
N833 H838 0.984 . S
N833 H839 0.985 . S
C834 C828 1.379 1_565 S
C834 C831 1.363 1_554 S
C834 N832 1.356 . S
C835 C829 1.363 1_556 S
C835 C830 1.379 1_545 S
C835 N833 1.356 . S
N836 C828 1.356 . S
N836 H842 0.984 . S
N836 H843 0.984 . S
N837 C830 1.356 . S
N837 H840 0.984 . S
N837 H841 0.985 . S
H838 N833 0.984 . S
H839 N833 0.985 . S
H840 N837 0.984 . S
H841 N837 0.985 . S
H842 N836 0.984 . S
H843 N836 0.984 . S
H844 N832 0.984 . S
H845 N832 0.985 . S
C846 C847 1.363 . S
C846 C852 1.379 . S
C846 N854 1.356 1_554 S
C847 C846 1.363 . S
C847 C853 1.363 . S
C848 C849 1.363 . S
C848 C853 1.379 . S
C848 N855 1.356 . S
C849 C848 1.363 . S
C849 C852 1.363 . S
N850 C852 1.356 . S
N850 H862 0.984 . S
N850 H863 0.985 . S
N851 C853 1.356 . S
N851 H856 0.984 . S
N851 H857 0.985 . S
C852 C846 1.379 . S
C852 C849 1.363 . S
C852 N850 1.356 . S
C853 C847 1.363 . S
C853 C848 1.379 . S
C853 N851 1.356 . S
N854 C846 1.356 1_556 S
N854 H860 0.984 . S
N854 H861 0.984 . S
N855 C848 1.356 . S
N855 H858 0.984 . S
N855 H859 0.985 . S
H856 N851 0.984 . S
H857 N851 0.985 . S
H858 N855 0.984 . S
H859 N855 0.985 . S
H860 N854 0.984 . S
H861 N854 0.984 . S
H862 N850 0.984 . S
H863 N850 0.985 . S
C864 C865 1.363 . S
C864 C870 1.379 1_455 S
C864 N872 1.356 . S
C865 C864 1.363 . S
C865 C871 1.363 . S
C866 C867 1.363 . S
C866 C871 1.379 1_655 S
C866 N873 1.356 . S
C867 C866 1.363 . S
C867 C870 1.363 . S
N868 C870 1.356 . S
N868 H880 0.984 . S
N868 H881 0.985 . S
N869 C871 1.356 . S
N869 H874 0.984 . S
N869 H875 0.985 . S
C870 C864 1.379 1_655 S
C870 C867 1.363 . S
C870 N868 1.356 . S
C871 C865 1.363 . S
C871 C866 1.379 1_455 S
C871 N869 1.356 . S
N872 C864 1.356 . S
N872 H878 0.984 . S
N872 H879 0.984 . S
N873 C866 1.356 . S
N873 H876 0.984 . S
N873 H877 0.985 . S
H874 N869 0.984 . S
H875 N869 0.985 . S
H876 N873 0.984 . S
H877 N873 0.985 . S
H878 N872 0.984 . S
H879 N872 0.984 . S
H880 N868 0.984 . S
H881 N868 0.985 . S
C882 C883 1.363 . S
C882 C888 1.379 1_565 S
C882 N890 1.356 . S
C883 C882 1.363 . S
C883 C889 1.363 . S
C884 C885 1.363 . S
C884 C889 1.379 1_545 S
C884 N891 1.356 . S
C885 C884 1.363 . S
C885 C888 1.363 . S
N886 C888 1.356 . S
N886 H898 0.984 . S
N886 H899 0.985 . S
N887 C889 1.356 . S
N887 H892 0.984 . S
N887 H893 0.985 . S
C888 C882 1.379 1_545 S
C888 C885 1.363 . S
C888 N886 1.356 . S
C889 C883 1.363 . S
C889 C884 1.379 1_565 S
C889 N887 1.356 . S
N890 C882 1.356 . S
N890 H896 0.984 . S
N890 H897 0.984 . S
N891 C884 1.356 . S
N891 H894 0.984 . S
N891 H895 0.985 . S
H892 N887 0.984 . S
H893 N887 0.985 . S
H894 N891 0.984 . S
H895 N891 0.985 . S
H896 N890 0.984 . S
H897 N890 0.984 . S
H898 N886 0.984 . S
H899 N886 0.985 . S
C900 C901 1.363 . S
C900 C906 1.379 . S
C900 N908 1.356 . S
C901 C900 1.363 . S
C901 C907 1.363 . S
C902 C903 1.363 . S
C902 C907 1.379 . S
C902 N909 1.356 . S
C903 C902 1.363 . S
C903 C906 1.363 . S
N904 C906 1.356 . S
N904 H916 0.984 . S
N904 H917 0.985 . S
N905 C907 1.356 . S
N905 H910 0.984 . S
N905 H911 0.985 . S
C906 C900 1.379 . S
C906 C903 1.363 . S
C906 N904 1.356 . S
C907 C901 1.363 . S
C907 C902 1.379 . S
C907 N905 1.356 . S
N908 C900 1.356 . S
N908 H914 0.984 . S
N908 H915 0.984 . S
N909 C902 1.356 . S
N909 H912 0.984 . S
N909 H913 0.985 . S
H910 N905 0.984 . S
H911 N905 0.985 . S
H912 N909 0.984 . S
H913 N909 0.985 . S
H914 N908 0.984 . S
H915 N908 0.984 . S
H916 N904 0.984 . S
H917 N904 0.985 . S
C918 C919 1.363 . S
C918 C924 1.379 1_455 S
C918 N926 1.356 1_556 S
C919 C918 1.363 . S
C919 C925 1.363 . S
C920 C921 1.363 . S
C920 C925 1.379 1_655 S
C920 N927 1.356 . S
C921 C920 1.363 . S
C921 C924 1.363 . S
N922 C924 1.356 . S
N922 H934 0.984 . S
N922 H935 0.985 . S
N923 C925 1.356 . S
N923 H928 0.984 . S
N923 H929 0.985 . S
C924 C918 1.379 1_655 S
C924 C921 1.363 . S
C924 N922 1.356 . S
C925 C919 1.363 . S
C925 C920 1.379 1_455 S
C925 N923 1.356 . S
N926 C918 1.356 1_554 S
N926 H932 0.984 . S
N926 H933 0.984 . S
N927 C920 1.356 . S
N927 H930 0.984 . S
N927 H931 0.985 . S
H928 N923 0.984 . S
H929 N923 0.985 . S
H930 N927 0.984 . S
H931 N927 0.985 . S
H932 N926 0.984 . S
H933 N926 0.984 . S
H934 N922 0.984 . S
H935 N922 0.985 . S
C397 C281 1.377 . S
C399 C17 1.377 . S
C415 C314 1.377 . S
C417 C50 1.377 . S
C433 C347 1.377 . S
C435 C83 1.377 . S
C451 C380 1.377 . S
C453 C116 1.377 . S
C469 C149 1.377 . S
C471 C215 1.377 . S
C487 C248 1.377 . S
C489 C182 1.377 . S
C505 N5 1.471 . S
C507 N14 1.468 . S
C523 N47 1.468 . S
C525 N38 1.471 . S
C541 N80 1.468 . S
C543 N71 1.471 . S
C559 N113 1.468 1_554 S
C561 N104 1.471 . S
C577 N146 1.468 . S
C579 N137 1.471 . S
C595 N179 1.468 . S
C597 N170 1.471 . S
C613 N203 1.471 . S
C615 N212 1.468 . S
C631 N245 1.468 . S
C633 N236 1.471 . S
C649 N269 1.471 . S
C651 N278 1.468 . S
C667 N302 1.471 . S
C669 N311 1.468 . S
C685 N335 1.471 . S
C687 N344 1.468 1_556 S
C703 N377 1.468 . S
C705 N368 1.471 . S
C721 C8 1.551 . S
C723 C338 1.551 . S
C739 C41 1.551 . S
C741 C371 1.551 . S
C757 C74 1.551 . S
C759 C206 1.551 . S
C775 C239 1.551 . S
C777 C107 1.551 . S
C793 C272 1.551 . S
C795 C140 1.551 . S
C811 C305 1.551 . S
C813 C173 1.551 . S
C829 C28 1.260 . S
C831 C259 1.260 . S
C847 C292 1.260 . S
C849 C61 1.260 . S
C865 C325 1.260 . S
C867 C94 1.260 . S
C883 C127 1.260 . S
C885 C358 1.260 . S
C901 C391 1.260 . S
C903 C160 1.260 . S
C919 C193 1.260 . S
C921 C226 1.260 . S
