# Generated by pormake.
# Topology wna, (6)-cn, num edge types: 1
# Building blocks:
#     Node 0, Type 0, BuildingBlock: CIFDUS_clean_sbu_1, # of connection points: 6
#     Node 1, Type 0, BuildingBlock: CIFDUS_clean_sbu_1, # of connection points: 6
#     Node 2, Type 0, BuildingBlock: CIFDUS_clean_sbu_1, # of connection points: 6
#     Node 3, Type 0, BuildingBlock: CIFDUS_clean_sbu_1, # of connection points: 6
#     Node 4, Type 0, BuildingBlock: CIFDUS_clean_sbu_1, # of connection points: 6
#     Node 5, Type 0, BuildingBlock: CIFDUS_clean_sbu_1, # of connection points: 6
#     Node 6, Type 0, BuildingBlock: CIFDUS_clean_sbu_1, # of connection points: 6
#     Node 7, Type 0, BuildingBlock: CIFDUS_clean_sbu_1, # of connection points: 6
#     Node 8, Type 0, BuildingBlock: CIFDUS_clean_sbu_1, # of connection points: 6
#     Node 9, Type 0, BuildingBlock: CIFDUS_clean_sbu_1, # of connection points: 6
#     Node 10, Type 0, BuildingBlock: CIFDUS_clean_sbu_1, # of connection points: 6
#     Node 11, Type 0, BuildingBlock: CIFDUS_clean_sbu_1, # of connection points: 6
#     Node 12, Type 0, BuildingBlock: CIFDUS_clean_sbu_1, # of connection points: 6
#     Node 13, Type 0, BuildingBlock: CIFDUS_clean_sbu_1, # of connection points: 6
#     Node 14, Type 0, BuildingBlock: CIFDUS_clean_sbu_1, # of connection points: 6
#     Node 15, Type 0, BuildingBlock: CIFDUS_clean_sbu_1, # of connection points: 6
#     Node 16, Type 0, BuildingBlock: CIFDUS_clean_sbu_1, # of connection points: 6
#     Node 17, Type 0, BuildingBlock: CIFDUS_clean_sbu_1, # of connection points: 6
#     Node 18, Type 0, BuildingBlock: CIFDUS_clean_sbu_1, # of connection points: 6
#     Node 19, Type 0, BuildingBlock: CIFDUS_clean_sbu_1, # of connection points: 6
#     Node 20, Type 0, BuildingBlock: CIFDUS_clean_sbu_1, # of connection points: 6
#     Node 21, Type 0, BuildingBlock: CIFDUS_clean_sbu_1, # of connection points: 6
#     Node 22, Type 0, BuildingBlock: CIFDUS_clean_sbu_1, # of connection points: 6
#     Node 23, Type 0, BuildingBlock: CIFDUS_clean_sbu_1, # of connection points: 6
#     Node 24, Type 0, BuildingBlock: CIFDUS_clean_sbu_1, # of connection points: 6
#     Node 25, Type 0, BuildingBlock: CIFDUS_clean_sbu_1, # of connection points: 6
#     Node 26, Type 0, BuildingBlock: CIFDUS_clean_sbu_1, # of connection points: 6
#     Node 27, Type 0, BuildingBlock: CIFDUS_clean_sbu_1, # of connection points: 6
#     Node 28, Type 0, BuildingBlock: CIFDUS_clean_sbu_1, # of connection points: 6
#     Node 29, Type 0, BuildingBlock: CIFDUS_clean_sbu_1, # of connection points: 6
#     Node 30, Type 0, BuildingBlock: CIFDUS_clean_sbu_1, # of connection points: 6
#     Node 31, Type 0, BuildingBlock: CIFDUS_clean_sbu_1, # of connection points: 6
#     Node 32, Type 0, BuildingBlock: CIFDUS_clean_sbu_1, # of connection points: 6
#     Node 33, Type 0, BuildingBlock: CIFDUS_clean_sbu_1, # of connection points: 6
#     Node 34, Type 0, BuildingBlock: CIFDUS_clean_sbu_1, # of connection points: 6
#     Node 35, Type 0, BuildingBlock: CIFDUS_clean_sbu_1, # of connection points: 6
#     Edge 36, Type (0, 0), None
#     Edge 37, Type (0, 0), None
#     Edge 38, Type (0, 0), None
#     Edge 39, Type (0, 0), None
#     Edge 40, Type (0, 0), None
#     Edge 41, Type (0, 0), None
#     Edge 42, Type (0, 0), None
#     Edge 43, Type (0, 0), None
#     Edge 44, Type (0, 0), None
#     Edge 45, Type (0, 0), None
#     Edge 46, Type (0, 0), None
#     Edge 47, Type (0, 0), None
#     Edge 48, Type (0, 0), None
#     Edge 49, Type (0, 0), None
#     Edge 50, Type (0, 0), None
#     Edge 51, Type (0, 0), None
#     Edge 52, Type (0, 0), None
#     Edge 53, Type (0, 0), None
#     Edge 54, Type (0, 0), None
#     Edge 55, Type (0, 0), None
#     Edge 56, Type (0, 0), None
#     Edge 57, Type (0, 0), None
#     Edge 58, Type (0, 0), None
#     Edge 59, Type (0, 0), None
#     Edge 60, Type (0, 0), None
#     Edge 61, Type (0, 0), None
#     Edge 62, Type (0, 0), None
#     Edge 63, Type (0, 0), None
#     Edge 64, Type (0, 0), None
#     Edge 65, Type (0, 0), None
#     Edge 66, Type (0, 0), None
#     Edge 67, Type (0, 0), None
#     Edge 68, Type (0, 0), None
#     Edge 69, Type (0, 0), None
#     Edge 70, Type (0, 0), None
#     Edge 71, Type (0, 0), None
#     Edge 72, Type (0, 0), None
#     Edge 73, Type (0, 0), None
#     Edge 74, Type (0, 0), None
#     Edge 75, Type (0, 0), None
#     Edge 76, Type (0, 0), None
#     Edge 77, Type (0, 0), None
#     Edge 78, Type (0, 0), None
#     Edge 79, Type (0, 0), None
#     Edge 80, Type (0, 0), None
#     Edge 81, Type (0, 0), None
#     Edge 82, Type (0, 0), None
#     Edge 83, Type (0, 0), None
#     Edge 84, Type (0, 0), None
#     Edge 85, Type (0, 0), None
#     Edge 86, Type (0, 0), None
#     Edge 87, Type (0, 0), None
#     Edge 88, Type (0, 0), None
#     Edge 89, Type (0, 0), None
#     Edge 90, Type (0, 0), None
#     Edge 91, Type (0, 0), None
#     Edge 92, Type (0, 0), None
#     Edge 93, Type (0, 0), None
#     Edge 94, Type (0, 0), None
#     Edge 95, Type (0, 0), None
#     Edge 96, Type (0, 0), None
#     Edge 97, Type (0, 0), None
#     Edge 98, Type (0, 0), None
#     Edge 99, Type (0, 0), None
#     Edge 100, Type (0, 0), None
#     Edge 101, Type (0, 0), None
#     Edge 102, Type (0, 0), None
#     Edge 103, Type (0, 0), None
#     Edge 104, Type (0, 0), None
#     Edge 105, Type (0, 0), None
#     Edge 106, Type (0, 0), None
#     Edge 107, Type (0, 0), None
#     Edge 108, Type (0, 0), None
#     Edge 109, Type (0, 0), None
#     Edge 110, Type (0, 0), None
#     Edge 111, Type (0, 0), None
#     Edge 112, Type (0, 0), None
#     Edge 113, Type (0, 0), None
#     Edge 114, Type (0, 0), None
#     Edge 115, Type (0, 0), None
#     Edge 116, Type (0, 0), None
#     Edge 117, Type (0, 0), None
#     Edge 118, Type (0, 0), None
#     Edge 119, Type (0, 0), None
#     Edge 120, Type (0, 0), None
#     Edge 121, Type (0, 0), None
#     Edge 122, Type (0, 0), None
#     Edge 123, Type (0, 0), None
#     Edge 124, Type (0, 0), None
#     Edge 125, Type (0, 0), None
#     Edge 126, Type (0, 0), None
#     Edge 127, Type (0, 0), None
#     Edge 128, Type (0, 0), None
#     Edge 129, Type (0, 0), None
#     Edge 130, Type (0, 0), None
#     Edge 131, Type (0, 0), None
#     Edge 132, Type (0, 0), None
#     Edge 133, Type (0, 0), None
#     Edge 134, Type (0, 0), None
#     Edge 135, Type (0, 0), None
#     Edge 136, Type (0, 0), None
#     Edge 137, Type (0, 0), None
#     Edge 138, Type (0, 0), None
#     Edge 139, Type (0, 0), None
#     Edge 140, Type (0, 0), None
#     Edge 141, Type (0, 0), None
#     Edge 142, Type (0, 0), None
#     Edge 143, Type (0, 0), None
# Relax obj value: 0.248
# Max RMSD: 0.220
# Mean RMSD: 0.220
data_MOF--net-wna--node1-CIFDUS_clean_sbu_1--edge1-none
_symmetry_space_group_name_H-M    P1
_symmetry_Int_Tables_number       1
_symmetry_cell_setting            triclinic
loop_
_symmetry_equiv_pos_as_xyz
'x, y, z'
_cell_length_a     19.028895
_cell_length_b     19.028644
_cell_length_c     40.108061
_cell_angle_alpha  90.000016
_cell_angle_beta   89.999886
_cell_angle_gamma 119.99905
loop_
_atom_site_label
_atom_site_type_symbol
_atom_site_fract_x
_atom_site_fract_y
_atom_site_fract_z
_atom_type_partial_charge
O0 O 0.14797 0.16966 0.17387 0.0
Mn1 Mn 0.10606 0.24004 0.19442 0.0
O2 O 0.12907 0.09361 0.2152 0.0
Mn3 Mn 0.16524 0.19252 0.23894 0.0
O4 O 0.05552 0.31703 0.19835 0.0
O5 O 0.01272 0.17296 0.16765 0.0
Mn6 Mn 0.01957 0.21413 0.12826 0.0
O7 O 0.17559 0.31511 0.15586 0.0
O8 O 0.02987 0.31235 0.1429 0.0
O9 O 0.02833 0.1712 0.23653 0.0
O10 O 0.10944 0.1861 0.27759 0.0
O11 O 0.92494 0.10927 0.13138 0.0
O12 O 0.12028 0.23522 0.11267 0.0
C13 C 0.27684 0.29312 0.22108 0.0
C14 C 0.14163 0.10555 0.18447 0.0
C15 C 0.0297 0.3387 0.17218 0.0
C16 C 0.94802 0.10743 0.16143 0.0
C17 C 0.17761 0.30056 0.12494 0.0
C18 C 0.03921 0.16722 0.26826 0.0
O19 O 0.21074 0.2991 0.222 0.0
O20 O 0.2708 0.22985 0.23564 0.0
O21 O 0.83771 0.9798 0.17387 0.0
Mn22 Mn 0.76733 0.8675 0.19442 0.0
O23 O 0.91374 0.03696 0.2152 0.0
Mn24 Mn 0.81484 0.9742 0.23895 0.0
O25 O 0.69035 0.73997 0.19835 0.0
O26 O 0.83442 0.84125 0.16765 0.0
Mn27 Mn 0.79325 0.80693 0.12826 0.0
O28 O 0.69225 0.86195 0.15586 0.0
O29 O 0.69505 0.719 0.1429 0.0
O30 O 0.83617 0.85862 0.23653 0.0
O31 O 0.82127 0.92483 0.2776 0.0
O32 O 0.89812 0.81718 0.13138 0.0
O33 O 0.77215 0.88654 0.11267 0.0
C34 C 0.71424 0.9852 0.22108 0.0
C35 C 0.90177 0.0376 0.18448 0.0
C36 C 0.66869 0.69249 0.17218 0.0
C37 C 0.89995 0.84209 0.16143 0.0
C38 C 0.7068 0.87853 0.12494 0.0
C39 C 0.84015 0.87347 0.26826 0.0
O40 O 0.70827 0.91312 0.22201 0.0
O41 O 0.77749 0.04242 0.23565 0.0
O42 O 0.02758 0.85939 0.17387 0.0
Mn43 Mn 0.13987 0.90131 0.19442 0.0
O44 O 0.97043 0.87829 0.2152 0.0
Mn45 Mn 0.03318 0.84213 0.23894 0.0
O46 O 0.2674 0.95185 0.19835 0.0
O47 O 0.16613 0.99465 0.16765 0.0
Mn48 Mn 0.20045 0.98781 0.12826 0.0
O49 O 0.14542 0.83178 0.15586 0.0
O50 O 0.28838 0.97753 0.1429 0.0
O51 O 0.14876 0.97904 0.23653 0.0
O52 O 0.08254 0.89793 0.27759 0.0
O53 O 0.19019 0.08243 0.13138 0.0
O54 O 0.12084 0.88709 0.11267 0.0
C55 C 0.02216 0.73053 0.22108 0.0
C56 C 0.96979 0.86568 0.18448 0.0
C57 C 0.31489 0.97768 0.17218 0.0
C58 C 0.16529 0.05935 0.16143 0.0
C59 C 0.12885 0.82976 0.12494 0.0
C60 C 0.1339 0.96817 0.26826 0.0
O61 O 0.09425 0.79663 0.22201 0.0
O62 O 0.96495 0.73657 0.23564 0.0
O63 O 0.17113 0.14652 0.38748 0.0
Mn64 Mn 0.24152 0.10461 0.36694 0.0
O65 O 0.09511 0.12767 0.34615 0.0
Mn66 Mn 0.19402 0.16382 0.32241 0.0
O67 O 0.3185 0.05406 0.36301 0.0
O68 O 0.17443 0.01126 0.39371 0.0
Mn69 Mn 0.2156 0.01812 0.4331 0.0
O70 O 0.31659 0.17414 0.4055 0.0
O71 O 0.31382 0.02842 0.41846 0.0
O72 O 0.17268 0.02689 0.32483 0.0
O73 O 0.18758 0.108 0.28376 0.0
O74 O 0.11075 0.92348 0.42998 0.0
O75 O 0.23669 0.11883 0.44869 0.0
C76 C 0.29462 0.2754 0.34027 0.0
C77 C 0.10704 0.14021 0.37688 0.0
C78 C 0.34017 0.02824 0.38918 0.0
C79 C 0.10891 0.94655 0.39993 0.0
C80 C 0.30203 0.17616 0.43642 0.0
C81 C 0.16869 0.03776 0.2931 0.0
O82 O 0.30058 0.20929 0.33935 0.0
O83 O 0.23138 0.26939 0.32571 0.0
O84 O 0.86086 0.0261 0.38748 0.0
Mn85 Mn 0.90276 0.1384 0.36694 0.0
O86 O 0.87972 0.96894 0.34615 0.0
Mn87 Mn 0.84356 0.03169 0.32241 0.0
O88 O 0.95331 0.26593 0.36301 0.0
O89 O 0.99611 0.16466 0.3937 0.0
Mn90 Mn 0.98926 0.19898 0.4331 0.0
O91 O 0.83324 0.14394 0.4055 0.0
O92 O 0.97895 0.28689 0.41846 0.0
O93 O 0.98049 0.14728 0.32483 0.0
O94 O 0.89937 0.08107 0.28376 0.0
O95 O 0.0839 0.18876 0.42997 0.0
O96 O 0.88856 0.11935 0.44869 0.0
C97 C 0.73197 0.0207 0.34027 0.0
C98 C 0.86718 0.96833 0.37688 0.0
C99 C 0.97912 0.31341 0.38918 0.0
C100 C 0.06082 0.16385 0.39992 0.0
C101 C 0.83122 0.12736 0.43642 0.0
C102 C 0.96962 0.13241 0.2931 0.0
O103 O 0.79808 0.09277 0.33935 0.0
O104 O 0.738 0.96348 0.32571 0.0
O105 O 0.98128 0.83624 0.38749 0.0
Mn106 Mn 0.86898 0.76585 0.36694 0.0
O107 O 0.03845 0.91225 0.34615 0.0
Mn108 Mn 0.97569 0.81335 0.32241 0.0
O109 O 0.74145 0.68887 0.36301 0.0
O110 O 0.84272 0.83294 0.39371 0.0
Mn111 Mn 0.8084 0.79178 0.4331 0.0
O112 O 0.86343 0.69078 0.4055 0.0
O113 O 0.72048 0.69357 0.41846 0.0
O114 O 0.8601 0.8347 0.32483 0.0
O115 O 0.92631 0.81979 0.28376 0.0
O116 O 0.81864 0.89664 0.42998 0.0
O117 O 0.88801 0.77067 0.44869 0.0
C118 C 0.98667 0.71275 0.34027 0.0
C119 C 0.03908 0.9003 0.37688 0.0
C120 C 0.69396 0.66721 0.38918 0.0
C121 C 0.84355 0.89847 0.39993 0.0
C122 C 0.88001 0.70533 0.43641 0.0
C123 C 0.87496 0.83869 0.2931 0.0
O124 O 0.9146 0.70679 0.33935 0.0
O125 O 0.04389 0.77598 0.3257 0.0
O126 O 0.86085 0.83625 0.88748 0.0
Mn127 Mn 0.90276 0.76585 0.86694 0.0
O128 O 0.87971 0.91226 0.84615 0.0
Mn129 Mn 0.84355 0.81335 0.82241 0.0
O130 O 0.95331 0.68887 0.863 0.0
O131 O 0.99611 0.83293 0.89371 0.0
Mn132 Mn 0.98925 0.79176 0.9331 0.0
O133 O 0.83323 0.69079 0.9055 0.0
O134 O 0.97892 0.69353 0.91846 0.0
O135 O 0.98048 0.83469 0.82483 0.0
O136 O 0.89937 0.81978 0.78376 0.0
O137 O 0.0839 0.89661 0.92998 0.0
O138 O 0.88855 0.77069 0.94869 0.0
C139 C 0.73197 0.71275 0.84027 0.0
C140 C 0.86717 0.90034 0.87688 0.0
C141 C 0.97911 0.66719 0.88918 0.0
C142 C 0.06083 0.89845 0.89993 0.0
C143 C 0.83121 0.70534 0.93642 0.0
C144 C 0.9696 0.83867 0.79309 0.0
O145 O 0.79808 0.70679 0.83935 0.0
O146 O 0.73798 0.77599 0.82571 0.0
O147 O 0.17114 0.02608 0.88749 0.0
Mn148 Mn 0.24152 0.13838 0.86694 0.0
O149 O 0.09513 0.96891 0.84615 0.0
Mn150 Mn 0.19403 0.03168 0.8224 0.0
O151 O 0.3185 0.26592 0.86301 0.0
O152 O 0.17443 0.16464 0.89371 0.0
Mn153 Mn 0.21561 0.19896 0.9331 0.0
O154 O 0.31659 0.14393 0.9055 0.0
O155 O 0.31382 0.28688 0.91846 0.0
O156 O 0.17268 0.14726 0.82483 0.0
O157 O 0.1876 0.08107 0.78376 0.0
O158 O 0.11075 0.18876 0.92998 0.0
O159 O 0.2367 0.11935 0.94869 0.0
C160 C 0.29464 0.02071 0.84027 0.0
C161 C 0.10708 0.96828 0.87687 0.0
C162 C 0.34017 0.3134 0.88918 0.0
C163 C 0.10891 0.16384 0.89993 0.0
C164 C 0.30204 0.12736 0.93642 0.0
C165 C 0.16871 0.13242 0.79309 0.0
O166 O 0.30059 0.09277 0.83935 0.0
O167 O 0.23141 0.96348 0.8257 0.0
O168 O 0.98128 0.14653 0.88749 0.0
Mn169 Mn 0.86899 0.10462 0.86694 0.0
O170 O 0.03845 0.12768 0.84615 0.0
Mn171 Mn 0.97569 0.16383 0.82241 0.0
O172 O 0.74146 0.05407 0.86301 0.0
O173 O 0.84272 0.01127 0.8937 0.0
Mn174 Mn 0.8084 0.01812 0.9331 0.0
O175 O 0.86344 0.17414 0.9055 0.0
O176 O 0.72049 0.02842 0.91846 0.0
O177 O 0.86011 0.0269 0.82483 0.0
O178 O 0.92631 0.10801 0.78376 0.0
O179 O 0.81862 0.92348 0.92998 0.0
O180 O 0.88802 0.11883 0.94869 0.0
C181 C 0.98668 0.27541 0.84027 0.0
C182 C 0.03908 0.14027 0.87688 0.0
C183 C 0.69397 0.02825 0.88917 0.0
C184 C 0.84354 0.94656 0.89992 0.0
C185 C 0.88001 0.17616 0.93642 0.0
C186 C 0.87496 0.03777 0.7931 0.0
O187 O 0.91461 0.2093 0.83935 0.0
O188 O 0.0439 0.26939 0.8257 0.0
O189 O 0.83772 0.8594 0.67387 0.0
Mn190 Mn 0.76734 0.90132 0.69442 0.0
O191 O 0.91376 0.8783 0.7152 0.0
Mn192 Mn 0.81485 0.84214 0.73894 0.0
O193 O 0.69035 0.95187 0.69835 0.0
O194 O 0.83442 0.99466 0.66765 0.0
Mn195 Mn 0.79326 0.98781 0.62826 0.0
O196 O 0.69226 0.83179 0.65586 0.0
O197 O 0.69505 0.97754 0.6429 0.0
O198 O 0.83617 0.97905 0.73653 0.0
O199 O 0.82129 0.89794 0.77759 0.0
O200 O 0.89812 0.08243 0.63138 0.0
O201 O 0.77215 0.88709 0.61267 0.0
C202 C 0.71426 0.73054 0.72108 0.0
C203 C 0.90182 0.86574 0.68447 0.0
C204 C 0.66868 0.97769 0.67218 0.0
C205 C 0.89996 0.05935 0.66143 0.0
C206 C 0.70681 0.82976 0.62495 0.0
C207 C 0.84017 0.96818 0.76826 0.0
O208 O 0.70828 0.79664 0.72201 0.0
O209 O 0.77752 0.73658 0.73564 0.0
O210 O 0.14796 0.97979 0.67387 0.0
Mn211 Mn 0.10606 0.86749 0.69442 0.0
O212 O 0.12905 0.03693 0.7152 0.0
Mn213 Mn 0.16522 0.97419 0.73894 0.0
O214 O 0.05552 0.73997 0.69835 0.0
O215 O 0.01271 0.84123 0.66765 0.0
Mn216 Mn 0.01956 0.80692 0.62826 0.0
O217 O 0.17558 0.86195 0.65586 0.0
O218 O 0.02985 0.71899 0.6429 0.0
O219 O 0.02832 0.8586 0.73653 0.0
O220 O 0.10943 0.92483 0.77759 0.0
O221 O 0.92494 0.81717 0.63138 0.0
O222 O 0.12027 0.88653 0.61267 0.0
C223 C 0.27683 0.98521 0.72108 0.0
C224 C 0.14162 0.03755 0.68447 0.0
C225 C 0.02969 0.69248 0.67218 0.0
C226 C 0.94802 0.84208 0.66143 0.0
C227 C 0.17761 0.87852 0.62494 0.0
C228 C 0.0392 0.87348 0.76826 0.0
O229 O 0.21074 0.91312 0.72201 0.0
O230 O 0.27078 0.04242 0.73564 0.0
O231 O 0.02758 0.16967 0.67387 0.0
Mn232 Mn 0.13988 0.24004 0.69442 0.0
O233 O 0.97043 0.09362 0.7152 0.0
Mn234 Mn 0.03318 0.19253 0.73894 0.0
O235 O 0.26741 0.31703 0.69835 0.0
O236 O 0.16613 0.17296 0.66765 0.0
Mn237 Mn 0.20045 0.21411 0.62826 0.0
O238 O 0.14543 0.31512 0.65586 0.0
O239 O 0.28839 0.31231 0.6429 0.0
O240 O 0.14877 0.1712 0.73653 0.0
O241 O 0.08255 0.18609 0.7776 0.0
O242 O 0.19018 0.10924 0.63138 0.0
O243 O 0.12084 0.23523 0.61267 0.0
C244 C 0.02218 0.29312 0.72109 0.0
C245 C 0.96979 0.10559 0.68448 0.0
C246 C 0.3149 0.33868 0.67218 0.0
C247 C 0.16528 0.10741 0.66143 0.0
C248 C 0.12886 0.30057 0.62495 0.0
C249 C 0.1339 0.1672 0.76826 0.0
O250 O 0.09426 0.2991 0.72201 0.0
O251 O 0.96496 0.22986 0.73565 0.0
O252 O 0.81467 0.50298 0.50721 0.0
Mn253 Mn 0.77278 0.57339 0.52775 0.0
O254 O 0.79585 0.42698 0.54855 0.0
Mn255 Mn 0.832 0.52588 0.57229 0.0
O256 O 0.72225 0.65039 0.53169 0.0
O257 O 0.67943 0.50633 0.50099 0.0
Mn258 Mn 0.68628 0.54751 0.46159 0.0
O259 O 0.84233 0.64844 0.48919 0.0
O260 O 0.69671 0.64578 0.47624 0.0
O261 O 0.69505 0.50457 0.56986 0.0
O262 O 0.77616 0.51945 0.61093 0.0
O263 O 0.5916 0.44268 0.46473 0.0
O264 O 0.78696 0.5685 0.446 0.0
C265 C 0.94357 0.6265 0.55442 0.0
C266 C 0.80837 0.4389 0.51782 0.0
C267 C 0.69646 0.67208 0.50552 0.0
C268 C 0.61469 0.44083 0.49477 0.0
C269 C 0.84432 0.63381 0.45828 0.0
C270 C 0.70593 0.50058 0.6016 0.0
O271 O 0.87745 0.63244 0.55534 0.0
O272 O 0.93757 0.56327 0.56899 0.0
O273 O 0.50438 0.31318 0.50721 0.0
Mn274 Mn 0.43399 0.20088 0.52775 0.0
O275 O 0.58038 0.37037 0.54855 0.0
Mn276 Mn 0.48148 0.3076 0.5723 0.0
O277 O 0.357 0.07335 0.53169 0.0
O278 O 0.50106 0.17461 0.50098 0.0
Mn279 Mn 0.45989 0.14029 0.46159 0.0
O280 O 0.35893 0.19536 0.48919 0.0
O281 O 0.36165 0.0524 0.47623 0.0
O282 O 0.50282 0.19199 0.56986 0.0
O283 O 0.48792 0.25819 0.61093 0.0
O284 O 0.56473 0.15045 0.46472 0.0
O285 O 0.43886 0.21994 0.44599 0.0
C286 C 0.38086 0.31855 0.55443 0.0
C287 C 0.56843 0.371 0.51783 0.0
C288 C 0.33532 0.02587 0.50552 0.0
C289 C 0.56658 0.17539 0.49477 0.0
C290 C 0.37355 0.21199 0.45828 0.0
C291 C 0.5068 0.20684 0.6016 0.0
O292 O 0.37493 0.24649 0.55535 0.0
O293 O 0.44408 0.37578 0.569 0.0
O294 O 0.69421 0.1927 0.50721 0.0
Mn295 Mn 0.8065 0.23459 0.52775 0.0
O296 O 0.63702 0.21152 0.54855 0.0
Mn297 Mn 0.69979 0.17539 0.57229 0.0
O298 O 0.93403 0.28513 0.53169 0.0
O299 O 0.83279 0.32795 0.50099 0.0
Mn300 Mn 0.86711 0.3211 0.46159 0.0
O301 O 0.81202 0.16505 0.48919 0.0
O302 O 0.95498 0.31071 0.47624 0.0
O303 O 0.8154 0.31232 0.56986 0.0
O304 O 0.74918 0.23122 0.61093 0.0
O305 O 0.85694 0.41576 0.46473 0.0
O306 O 0.78745 0.22042 0.446 0.0
C307 C 0.68881 0.0638 0.55443 0.0
C308 C 0.6364 0.19895 0.51782 0.0
C309 C 0.98152 0.31093 0.50552 0.0
C310 C 0.83201 0.39268 0.49477 0.0
C311 C 0.79539 0.16306 0.45829 0.0
C312 C 0.80055 0.30146 0.6016 0.0
O313 O 0.76088 0.12992 0.55535 0.0
O314 O 0.63159 0.06981 0.569 0.0
O315 O 0.83778 0.4798 0.72082 0.0
Mn316 Mn 0.90818 0.43791 0.70028 0.0
O317 O 0.76178 0.46097 0.67949 0.0
Mn318 Mn 0.86068 0.4971 0.65575 0.0
O319 O 0.98519 0.38741 0.69634 0.0
O320 O 0.84112 0.34456 0.72704 0.0
Mn321 Mn 0.88228 0.3514 0.76644 0.0
O322 O 0.98325 0.50744 0.73883 0.0
O323 O 0.98048 0.36166 0.7518 0.0
O324 O 0.83935 0.36018 0.65817 0.0
O325 O 0.85423 0.44129 0.6171 0.0
O326 O 0.7774 0.25679 0.76331 0.0
O327 O 0.90337 0.45211 0.78203 0.0
C328 C 0.96117 0.60866 0.67357 0.0
C329 C 0.7737 0.47351 0.71022 0.0
C330 C 0.00691 0.36166 0.72251 0.0
C331 C 0.77557 0.27987 0.73326 0.0
C332 C 0.9687 0.50945 0.76975 0.0
C333 C 0.83534 0.37105 0.62643 0.0
O334 O 0.96725 0.54261 0.6727 0.0
O335 O 0.89795 0.60265 0.65899 0.0
O336 O 0.52759 0.35947 0.72083 0.0
Mn337 Mn 0.56947 0.47176 0.70027 0.0
O338 O 0.54643 0.3023 0.67949 0.0
Mn339 Mn 0.51029 0.36507 0.65575 0.0
O340 O 0.61997 0.59927 0.69633 0.0
O341 O 0.66283 0.49806 0.72704 0.0
Mn342 Mn 0.65599 0.53238 0.76643 0.0
O343 O 0.49995 0.4773 0.73883 0.0
O344 O 0.64572 0.62032 0.75179 0.0
O345 O 0.6472 0.48066 0.65817 0.0
O346 O 0.5661 0.41443 0.6171 0.0
O347 O 0.7506 0.52211 0.76331 0.0
O348 O 0.55528 0.45276 0.78203 0.0
C349 C 0.39872 0.35399 0.67357 0.0
C350 C 0.53389 0.30169 0.71022 0.0
C351 C 0.64571 0.64674 0.72251 0.0
C352 C 0.72751 0.4972 0.73326 0.0
C353 C 0.49794 0.46075 0.76975 0.0
C354 C 0.63633 0.46578 0.62643 0.0
O355 O 0.46476 0.42612 0.6727 0.0
O356 O 0.40474 0.29678 0.659 0.0
O357 O 0.64791 0.1696 0.72083 0.0
Mn358 Mn 0.53563 0.0992 0.70028 0.0
O359 O 0.70509 0.2456 0.67949 0.0
Mn360 Mn 0.64231 0.1467 0.65575 0.0
O361 O 0.40811 0.02219 0.69634 0.0
O362 O 0.50934 0.16627 0.72704 0.0
Mn363 Mn 0.47502 0.12511 0.76644 0.0
O364 O 0.53008 0.02413 0.73883 0.0
O365 O 0.38706 0.02693 0.7518 0.0
O366 O 0.52673 0.16804 0.65817 0.0
O367 O 0.59295 0.15315 0.6171 0.0
O368 O 0.48531 0.23 0.76331 0.0
O369 O 0.55462 0.104 0.78203 0.0
C370 C 0.65339 0.0462 0.67356 0.0
C371 C 0.70573 0.23364 0.71021 0.0
C372 C 0.36064 1.00048 0.72251 0.0
C373 C 0.51021 0.23182 0.73326 0.0
C374 C 0.54663 0.03867 0.76975 0.0
C375 C 0.5416 0.17204 0.62643 0.0
O376 O 0.58126 0.04013 0.67269 0.0
O377 O 0.7106 0.10943 0.65899 0.0
O378 O 0.52757 0.1696 0.22082 0.0
Mn379 Mn 0.56946 0.09919 0.20028 0.0
O380 O 0.5464 0.2456 0.17949 0.0
Mn381 Mn 0.51027 0.14669 0.15575 0.0
O382 O 0.61996 0.02218 0.19633 0.0
O383 O 0.66281 0.16625 0.22704 0.0
Mn384 Mn 0.65597 0.12509 0.26643 0.0
O385 O 0.49993 0.02413 0.23884 0.0
O386 O 0.64568 0.02687 0.25179 0.0
O387 O 0.64719 0.16803 0.15817 0.0
O388 O 0.56608 0.15313 0.1171 0.0
O389 O 0.75059 0.22995 0.26331 0.0
O390 O 0.55527 0.10401 0.28203 0.0
C391 C 0.3987 0.0462 0.17357 0.0
C392 C 0.53387 0.23367 0.21022 0.0
C393 C 0.64569 1.00045 0.22251 0.0
C394 C 0.72751 0.23179 0.23326 0.0
C395 C 0.49792 0.03868 0.26975 0.0
C396 C 0.63632 0.17201 0.12643 0.0
O397 O 0.46475 0.04012 0.1727 0.0
O398 O 0.40472 0.10943 0.159 0.0
O399 O 0.83778 0.35945 0.22083 0.0
Mn400 Mn 0.90817 0.47174 0.20028 0.0
O401 O 0.76179 0.30227 0.17949 0.0
Mn402 Mn 0.86068 0.36505 0.15574 0.0
O403 O 0.98518 0.59926 0.19633 0.0
O404 O 0.84111 0.49803 0.22704 0.0
Mn405 Mn 0.88227 0.53235 0.26644 0.0
O406 O 0.98325 0.47729 0.23883 0.0
O407 O 0.98046 0.6203 0.25179 0.0
O408 O 0.83933 0.48063 0.15817 0.0
O409 O 0.85424 0.41442 0.1171 0.0
O410 O 0.77739 0.52209 0.26331 0.0
O411 O 0.90337 0.45274 0.28203 0.0
C412 C 0.96118 0.35399 0.17356 0.0
C413 C 0.77374 0.30164 0.21021 0.0
C414 C 0.0069 0.64672 0.22251 0.0
C415 C 0.77556 0.49717 0.23326 0.0
C416 C 0.9687 0.46073 0.26975 0.0
C417 C 0.83535 0.46578 0.12643 0.0
O418 O 0.96724 0.42611 0.1727 0.0
O419 O 0.89796 0.29677 0.15898 0.0
O420 O 0.64791 0.4798 0.22083 0.0
Mn421 Mn 0.53563 0.43791 0.20028 0.0
O422 O 0.70509 0.46098 0.17949 0.0
Mn423 Mn 0.64231 0.4971 0.15575 0.0
O424 O 0.40811 0.38741 0.19633 0.0
O425 O 0.50933 0.34455 0.22704 0.0
Mn426 Mn 0.47501 0.35139 0.26643 0.0
O427 O 0.53007 0.50743 0.23883 0.0
O428 O 0.38706 0.36165 0.25179 0.0
O429 O 0.52673 0.36018 0.15817 0.0
O430 O 0.59294 0.44129 0.1171 0.0
O431 O 0.48527 0.25678 0.26331 0.0
O432 O 0.55462 0.4521 0.28203 0.0
C433 C 0.65339 0.60867 0.17357 0.0
C434 C 0.70572 0.47356 0.21022 0.0
C435 C 0.36064 0.36166 0.22251 0.0
C436 C 0.51019 0.27987 0.23326 0.0
C437 C 0.54663 0.50944 0.26975 0.0
C438 C 0.54159 0.37105 0.12643 0.0
O439 O 0.58126 0.54262 0.1727 0.0
O440 O 0.7106 0.60265 0.15899 0.0
O441 O 0.5044 0.19271 1.00721 0.0
Mn442 Mn 0.43399 0.2346 1.02775 0.0
O443 O 0.58039 0.21152 0.04855 0.0
Mn444 Mn 0.48149 0.17538 0.07229 0.0
O445 O 0.35699 0.28513 0.03169 0.0
O446 O 0.50105 0.32795 1.00099 0.0
Mn447 Mn 0.45988 0.3211 0.96159 0.0
O448 O 0.35893 0.16505 0.98919 0.0
O449 O 0.36162 0.3107 0.97623 0.0
O450 O 0.50281 0.31233 0.06986 0.0
O451 O 0.48793 0.23122 0.11093 0.0
O452 O 0.56471 0.41577 0.96472 0.0
O453 O 0.43887 0.22042 0.946 0.0
C454 C 0.38088 0.06381 0.05442 0.0
C455 C 0.56847 0.199 1.01782 0.0
C456 C 0.3353 0.31093 1.00552 0.0
C457 C 0.56656 0.39268 0.99477 0.0
C458 C 0.37356 0.16306 0.95829 0.0
C459 C 0.50681 0.30146 0.1016 0.0
O460 O 0.37494 0.12993 0.05535 0.0
O461 O 0.4441 0.0698 0.06899 0.0
O462 O 0.81466 0.31316 1.00721 0.0
Mn463 Mn 0.77277 0.20086 1.02775 0.0
O464 O 0.79582 0.37033 0.04855 0.0
Mn465 Mn 0.83197 0.30758 0.07229 0.0
O466 O 0.72224 0.07333 0.03169 0.0
O467 O 0.67942 0.17457 1.00099 0.0
Mn468 Mn 0.68627 0.14026 0.96159 0.0
O469 O 0.84232 0.19536 0.98919 0.0
O470 O 0.69667 0.05239 0.97624 0.0
O471 O 0.69504 0.19195 0.06986 0.0
O472 O 0.77614 0.25819 0.11093 0.0
O473 O 0.59161 0.15043 0.96473 0.0
O474 O 0.78695 0.21992 0.946 0.0
C475 C 0.94356 0.31856 0.05442 0.0
C476 C 0.80835 0.37094 1.01782 0.0
C477 C 0.69644 0.02585 1.00552 0.0
C478 C 0.61469 0.17536 0.99477 0.0
C479 C 0.84431 0.21198 0.95829 0.0
C480 C 0.70591 0.20683 0.1016 0.0
O481 O 0.87745 0.24649 0.05535 0.0
O482 O 0.93754 0.37578 0.06899 0.0
O483 O 0.6942 0.50299 1.00721 0.0
Mn484 Mn 0.8065 0.57339 1.02775 0.0
O485 O 0.63701 0.42699 0.04855 0.0
Mn486 Mn 0.69979 0.52589 0.07229 0.0
O487 O 0.93403 0.65037 0.03169 0.0
O488 O 0.83278 0.50631 1.00099 0.0
Mn489 Mn 0.8671 0.54747 0.96159 0.0
O490 O 0.81202 0.64845 0.98919 0.0
O491 O 0.95499 0.64571 0.97623 0.0
O492 O 0.8154 0.50456 0.06986 0.0
O493 O 0.74918 0.51944 0.11093 0.0
O494 O 0.8569 0.44263 0.96472 0.0
O495 O 0.78745 0.56852 0.94599 0.0
C496 C 0.68883 0.6265 0.05443 0.0
C497 C 0.63639 0.43894 1.01782 0.0
C498 C 0.98152 0.67205 1.00551 0.0
C499 C 0.83198 0.44079 0.99477 0.0
C500 C 0.7954 0.63382 0.95829 0.0
C501 C 0.80053 0.50055 0.1016 0.0
O502 O 0.76089 0.63244 0.05535 0.0
O503 O 0.6316 0.56328 0.069 0.0
O504 O 0.48128 0.8363 0.84054 0.0
Mn505 Mn 0.43942 0.90672 0.86109 0.0
O506 O 0.46248 0.76031 0.88188 0.0
Mn507 Mn 0.49861 0.85921 0.90562 0.0
O508 O 0.38893 0.98375 0.86503 0.0
O509 O 0.34605 0.83968 0.83432 0.0
Mn510 Mn 0.3529 0.88084 0.79492 0.0
O511 O 0.50896 0.98177 0.82253 0.0
O512 O 0.36326 0.9791 0.80957 0.0
O513 O 0.36168 0.8379 0.90319 0.0
O514 O 0.44278 0.85276 0.94426 0.0
O515 O 0.25825 0.776 0.79806 0.0
O516 O 0.45357 0.90185 0.77933 0.0
C517 C 0.61016 0.95971 0.88779 0.0
C518 C 0.47501 0.77223 0.85115 0.0
C519 C 0.36321 0.00549 0.83885 0.0
C520 C 0.28134 0.77415 0.8281 0.0
C521 C 0.51094 0.96714 0.79162 0.0
C522 C 0.37255 0.8339 0.93493 0.0
O523 O 0.54411 0.96577 0.88867 0.0
O524 O 0.60417 0.89649 0.90237 0.0
O525 O 0.17108 0.64648 0.84054 0.0
Mn526 Mn 0.10067 0.53419 0.86109 0.0
O527 O 0.24706 0.70368 0.88188 0.0
Mn528 Mn 0.14816 0.64089 0.90562 0.0
O529 O 0.02365 0.40667 0.86503 0.0
O530 O 0.16772 0.50788 0.83432 0.0
Mn531 Mn 0.12655 0.47356 0.79492 0.0
O532 O 0.02561 0.52867 0.82253 0.0
O533 O 0.02832 0.38565 0.80956 0.0
O534 O 0.16949 0.52528 0.90319 0.0
O535 O 0.15462 0.5915 0.94426 0.0
O536 O 0.23141 0.48377 0.79805 0.0
O537 O 0.10552 0.55321 0.77932 0.0
C538 C 0.04766 0.65193 0.8878 0.0
C539 C 0.23511 0.7043 0.85115 0.0
C540 C 1.00191 0.35921 0.83885 0.0
C541 C 0.23325 0.50871 0.8281 0.0
C542 C 0.04023 0.54528 0.79162 0.0
C543 C 0.17348 0.54014 0.93493 0.0
O544 O 0.04161 0.57982 0.88867 0.0
O545 O 0.11086 0.70915 0.90238 0.0
O546 O 0.36091 0.5261 0.84053 0.0
Mn547 Mn 0.4732 0.56796 0.86109 0.0
O548 O 0.30371 0.54488 0.88188 0.0
Mn549 Mn 0.36649 0.50877 0.90562 0.0
O550 O 0.60071 0.61845 0.86503 0.0
O551 O 0.49951 0.66133 0.83432 0.0
Mn552 Mn 0.53384 0.65449 0.79492 0.0
O553 O 0.47871 0.49842 0.82253 0.0
O554 O 0.62174 0.64415 0.80957 0.0
O555 O 0.4821 0.6457 0.90319 0.0
O556 O 0.41588 0.5646 0.94426 0.0
O557 O 0.52362 0.74913 0.79806 0.0
O558 O 0.45418 0.55381 0.77932 0.0
C559 C 0.35544 0.39721 0.8878 0.0
C560 C 0.30309 0.53232 0.85115 0.0
C561 C 0.64818 0.64419 0.83885 0.0
C562 C 0.49869 0.72603 0.8281 0.0
C563 C 0.46211 0.49644 0.79162 0.0
C564 C 0.46725 0.63484 0.93493 0.0
O565 O 0.42756 0.46327 0.88867 0.0
O566 O 0.29822 0.40321 0.90238 0.0
O567 O 0.50443 0.81316 0.05415 0.0
Mn568 Mn 0.57486 0.77129 0.03361 0.0
O569 O 0.42847 0.79442 1.01281 0.0
Mn570 Mn 0.52737 0.83053 0.98906 0.0
O571 O 0.65188 0.7208 1.02966 0.0
O572 O 0.50781 0.67793 0.06037 0.0
Mn573 Mn 0.54898 0.68477 0.09977 0.0
O574 O 0.6499 0.84084 0.07217 0.0
O575 O 0.64724 0.69515 0.08513 0.0
O576 O 0.50604 0.69357 0.9915 0.0
O577 O 0.52091 0.77467 0.95043 0.0
O578 O 0.44414 0.59011 0.09663 0.0
O579 O 0.56998 0.78545 0.11537 0.0
C580 C 0.62788 0.94206 1.00689 0.0
C581 C 0.44038 0.80692 0.04354 0.0
C582 C 0.67362 0.69508 0.05584 0.0
C583 C 0.44229 0.6132 0.06659 0.0
C584 C 0.63528 0.84282 0.10308 0.0
C585 C 0.50203 0.70443 0.95976 0.0
O586 O 0.63392 0.87599 1.00602 0.0
O587 O 0.56469 0.93609 0.99231 0.0
O588 O 0.19423 0.69276 0.05415 0.0
Mn589 Mn 0.23608 0.80505 0.03361 0.0
O590 O 0.21299 0.63556 1.01281 0.0
Mn591 Mn 0.17687 0.69834 0.98907 0.0
O592 O 0.28657 0.93257 1.02966 0.0
O593 O 0.32945 0.83138 0.06037 0.0
Mn594 Mn 0.32261 0.8657 0.09977 0.0
O595 O 0.16654 0.81056 0.07217 0.0
O596 O 0.31223 0.95358 0.08513 0.0
O597 O 0.31382 0.81396 0.9915 0.0
O598 O 0.23272 0.74774 0.95043 0.0
O599 O 0.41726 0.85551 0.09663 0.0
O600 O 0.22194 0.78603 0.11537 0.0
C601 C 0.06532 0.6873 1.00689 0.0
C602 C 0.20049 0.63496 0.04354 0.0
C603 C 0.31229 0.98003 0.05584 0.0
C604 C 0.39417 0.83058 0.06658 0.0
C605 C 0.16456 0.79395 0.10308 0.0
C606 C 0.30295 0.79909 0.95976 0.0
O607 O 0.13138 0.75941 1.00602 0.0
O608 O 0.07131 0.63008 0.99231 0.0
O609 O 0.31462 0.50294 0.05416 0.0
Mn610 Mn 0.20233 0.43252 0.03361 0.0
O611 O 0.37184 0.57889 1.01281 0.0
Mn612 Mn 0.30904 0.48 0.98906 0.0
O613 O 0.07481 0.3555 1.02967 0.0
O614 O 0.17602 0.49957 0.06037 0.0
Mn615 Mn 0.1417 0.45842 0.09977 0.0
O616 O 0.19681 0.35746 0.07217 0.0
O617 O 0.05379 0.36018 0.08513 0.0
O618 O 0.19343 0.50135 0.9915 0.0
O619 O 0.25964 0.48646 0.95043 0.0
O620 O 0.15191 0.56327 0.09663 0.0
O621 O 0.22135 0.43738 0.11537 0.0
C622 C 0.32006 0.37949 1.00689 0.0
C623 C 0.37245 0.56696 0.04353 0.0
C624 C 0.02735 0.33378 0.05584 0.0
C625 C 0.17683 0.5651 0.06659 0.0
C626 C 0.21342 0.37209 0.10308 0.0
C627 C 0.20829 0.50535 0.95976 0.0
O628 O 0.24796 0.37345 1.00602 0.0
O629 O 0.37729 0.44268 0.9923 0.0
O630 O 0.19421 0.50295 0.55415 0.0
Mn631 Mn 0.23607 0.43251 0.53361 0.0
O632 O 0.21296 0.5789 0.51281 0.0
Mn633 Mn 0.17684 0.48 0.48906 0.0
O634 O 0.28656 0.35549 0.52966 0.0
O635 O 0.32944 0.49956 0.56037 0.0
Mn636 Mn 0.3226 0.45838 0.59977 0.0
O637 O 0.16653 0.35747 0.57217 0.0
O638 O 0.31219 0.36011 0.58513 0.0
O639 O 0.3138 0.50134 0.4915 0.0
O640 O 0.2327 0.48645 0.45043 0.0
O641 O 0.41727 0.56321 0.59663 0.0
O642 O 0.22193 0.43739 0.61537 0.0
C643 C 0.06531 0.37949 0.50689 0.0
C644 C 0.20046 0.567 0.54354 0.0
C645 C 0.31227 0.33374 0.55584 0.0
C646 C 0.39417 0.56507 0.56658 0.0
C647 C 0.16456 0.3721 0.60308 0.0
C648 C 0.30293 0.50532 0.45976 0.0
O649 O 0.13138 0.37345 0.50602 0.0
O650 O 0.07128 0.44269 0.49231 0.0
O651 O 0.50444 0.69274 0.55415 0.0
Mn652 Mn 0.57485 0.80503 0.53361 0.0
O653 O 0.42849 0.63552 0.5128 0.0
Mn654 Mn 0.52738 0.69832 0.48906 0.0
O655 O 0.65187 0.93255 0.52967 0.0
O656 O 0.5078 0.83134 0.56037 0.0
Mn657 Mn 0.54897 0.86567 0.59977 0.0
O658 O 0.64991 0.81055 0.57217 0.0
O659 O 0.64721 0.95357 0.58513 0.0
O660 O 0.50603 0.81393 0.4915 0.0
O661 O 0.52093 0.74773 0.45043 0.0
O662 O 0.44412 0.85549 0.59663 0.0
O663 O 0.56999 0.78601 0.61537 0.0
C664 C 0.6279 0.68731 0.50689 0.0
C665 C 0.44042 0.63491 0.54353 0.0
C666 C 0.6736 0.98002 0.55584 0.0
C667 C 0.44228 0.83055 0.56659 0.0
C668 C 0.63529 0.79394 0.60308 0.0
C669 C 0.50204 0.79909 0.45976 0.0
O670 O 0.63392 0.75941 0.50602 0.0
O671 O 0.56471 0.63008 0.4923 0.0
O672 O 0.31462 0.81316 0.55416 0.0
Mn673 Mn 0.20233 0.7713 0.53361 0.0
O674 O 0.37183 0.79442 0.51281 0.0
Mn675 Mn 0.30904 0.83052 0.48906 0.0
O676 O 0.07482 0.72081 0.52966 0.0
O677 O 0.17601 0.67793 0.56037 0.0
Mn678 Mn 0.14168 0.68477 0.59977 0.0
O679 O 0.19682 0.84084 0.57217 0.0
O680 O 0.0538 0.69514 0.58513 0.0
O681 O 0.19343 0.69357 0.4915 0.0
O682 O 0.25964 0.77467 0.45043 0.0
O683 O 0.15187 0.59011 0.59663 0.0
O684 O 0.22134 0.78544 0.61537 0.0
C685 C 0.32008 0.94207 0.50689 0.0
C686 C 0.37244 0.80696 0.54354 0.0
C687 C 0.02735 0.69508 0.55584 0.0
C688 C 0.17681 0.61321 0.56658 0.0
C689 C 0.21342 0.84282 0.60308 0.0
C690 C 0.20828 0.70443 0.45976 0.0
O691 O 0.24797 0.876 0.50602 0.0
O692 O 0.37729 0.93608 0.4923 0.0
O693 O 0.17108 0.52609 0.34054 0.0
Mn694 Mn 0.10066 0.56797 0.36109 0.0
O695 O 0.24706 0.54489 0.38188 0.0
Mn696 Mn 0.14817 0.50877 0.40562 0.0
O697 O 0.02363 0.61846 0.36503 0.0
O698 O 0.16771 0.66132 0.33432 0.0
Mn699 Mn 0.12655 0.65448 0.29492 0.0
O700 O 0.02561 0.49842 0.32253 0.0
O701 O 0.0283 0.64414 0.30956 0.0
O702 O 0.16948 0.6457 0.40319 0.0
O703 O 0.15462 0.5646 0.44426 0.0
O704 O 0.2314 0.74912 0.29805 0.0
O705 O 0.10552 0.5538 0.27932 0.0
C706 C 0.04766 0.39722 0.3878 0.0
C707 C 0.23514 0.53236 0.35115 0.0
C708 C 1.0019 0.64418 0.33885 0.0
C709 C 0.23324 0.72603 0.3281 0.0
C710 C 0.04023 0.49644 0.29162 0.0
C711 C 0.17349 0.63484 0.43493 0.0
O712 O 0.0416 0.46327 0.38867 0.0
O713 O 0.11088 0.40321 0.40237 0.0
O714 O 0.48126 0.64646 0.34054 0.0
Mn715 Mn 0.4394 0.53417 0.36109 0.0
O716 O 0.46246 0.70364 0.38188 0.0
Mn717 Mn 0.49859 0.64087 0.40562 0.0
O718 O 0.38892 0.40665 0.36503 0.0
O719 O 0.34604 0.50785 0.33432 0.0
Mn720 Mn 0.35288 0.47353 0.29492 0.0
O721 O 0.50894 0.52866 0.32253 0.0
O722 O 0.36323 0.38563 0.30957 0.0
O723 O 0.36166 0.52525 0.40319 0.0
O724 O 0.44276 0.59149 0.44426 0.0
O725 O 0.25824 0.48375 0.29806 0.0
O726 O 0.45356 0.55319 0.27933 0.0
C727 C 0.61015 0.65193 0.38779 0.0
C728 C 0.47498 0.70425 0.35114 0.0
C729 C 0.36319 0.35919 0.33885 0.0
C730 C 0.28133 0.50868 0.32811 0.0
C731 C 0.51092 0.54526 0.29162 0.0
C732 C 0.37253 0.54013 0.43493 0.0
O733 O 0.5441 0.57981 0.38867 0.0
O734 O 0.60414 0.70915 0.40237 0.0
O735 O 0.36091 0.8363 0.34054 0.0
Mn736 Mn 0.47319 0.90671 0.36109 0.0
O737 O 0.30371 0.76031 0.38188 0.0
Mn738 Mn 0.36649 0.8592 0.40562 0.0
O739 O 0.60071 0.98373 0.36503 0.0
O740 O 0.4995 0.83966 0.33432 0.0
Mn741 Mn 0.53382 0.88081 0.29492 0.0
O742 O 0.47871 0.98177 0.32253 0.0
O743 O 0.62174 0.97904 0.30956 0.0
O744 O 0.48211 0.83788 0.40319 0.0
O745 O 0.41587 0.85274 0.44426 0.0
O746 O 0.52358 0.77595 0.29805 0.0
O747 O 0.45418 0.90185 0.27932 0.0
C748 C 0.35544 0.95971 0.3878 0.0
C749 C 0.30308 0.77226 0.35115 0.0
C750 C 0.64818 0.00546 0.33885 0.0
C751 C 0.49866 0.77412 0.3281 0.0
C752 C 0.46211 0.96715 0.29162 0.0
C753 C 0.46723 0.83387 0.43493 0.0
O754 O 0.42756 0.96577 0.38867 0.0
O755 O 0.29823 0.89649 0.40238 0.0
loop_
_geom_bond_atom_site_label_1
_geom_bond_atom_site_label_2
_geom_bond_distance
_geom_bond_site_symmetry_2
_ccdc_geom_bond_type
O0 Mn1 2.163 . S
O0 C14 1.244 . S
Mn1 O0 2.163 . S
Mn1 O4 2.160 . S
Mn1 O5 2.221 1_455 S
Mn1 O7 2.163 . S
Mn1 O9 2.160 . S
Mn1 O19 2.221 . S
O2 Mn3 2.087 . S
O2 C14 1.256 . S
Mn3 O2 2.087 . S
Mn3 O10 2.089 . S
Mn3 O19 2.290 . S
Mn3 O20 2.251 . S
O4 Mn1 2.160 . S
O4 C15 1.239 . S
O5 Mn1 2.221 1_655 S
O5 Mn6 2.290 . S
O5 C16 1.278 . S
Mn6 O5 2.290 . S
Mn6 O8 2.089 1_655 S
Mn6 O11 2.251 . S
Mn6 O12 2.087 1_655 S
O7 Mn1 2.163 . S
O7 C17 1.244 . S
O8 Mn6 2.089 1_455 S
O8 C15 1.256 . S
O9 Mn1 2.160 . S
O9 C18 1.239 . S
O10 Mn3 2.089 . S
O10 C18 1.256 . S
O11 Mn6 2.251 . S
O11 C16 1.241 . S
O12 Mn6 2.087 1_455 S
O12 C17 1.256 . S
C13 O19 1.278 . S
C13 O20 1.241 . S
C14 O0 1.244 . S
C14 O2 1.256 . S
C15 O4 1.239 . S
C15 O8 1.256 . S
C16 O5 1.278 . S
C16 O11 1.241 . S
C17 O7 1.244 . S
C17 O12 1.256 . S
C18 O9 1.239 . S
C18 O10 1.256 . S
O19 Mn1 2.221 . S
O19 Mn3 2.290 . S
O19 C13 1.278 . S
O20 Mn3 2.251 . S
O20 C13 1.241 . S
O21 Mn22 2.163 . S
O21 C35 1.244 1_565 S
Mn22 O21 2.163 . S
Mn22 O25 2.160 . S
Mn22 O26 2.221 . S
Mn22 O28 2.163 . S
Mn22 O30 2.160 . S
Mn22 O40 2.221 . S
O23 Mn24 2.087 1_545 S
O23 C35 1.256 . S
Mn24 O23 2.087 1_565 S
Mn24 O31 2.089 . S
Mn24 O40 2.290 . S
Mn24 O41 2.251 . S
O25 Mn22 2.160 . S
O25 C36 1.239 . S
O26 Mn22 2.221 . S
O26 Mn27 2.290 . S
O26 C37 1.278 . S
Mn27 O26 2.290 . S
Mn27 O29 2.089 . S
Mn27 O32 2.251 . S
Mn27 O33 2.087 . S
O28 Mn22 2.163 . S
O28 C38 1.244 . S
O29 Mn27 2.089 . S
O29 C36 1.256 . S
O30 Mn22 2.160 . S
O30 C39 1.239 . S
O31 Mn24 2.089 . S
O31 C39 1.256 . S
O32 Mn27 2.251 . S
O32 C37 1.241 . S
O33 Mn27 2.087 . S
O33 C38 1.256 . S
C34 O40 1.278 . S
C34 O41 1.241 . S
C35 O21 1.244 1_545 S
C35 O23 1.256 . S
C36 O25 1.239 . S
C36 O29 1.256 . S
C37 O26 1.278 . S
C37 O32 1.241 . S
C38 O28 1.244 . S
C38 O33 1.256 . S
C39 O30 1.239 . S
C39 O31 1.256 . S
O40 Mn22 2.221 . S
O40 Mn24 2.290 . S
O40 C34 1.278 . S
O41 Mn24 2.251 . S
O41 C34 1.241 . S
O42 Mn43 2.163 . S
O42 C56 1.244 1_455 S
Mn43 O42 2.163 . S
Mn43 O46 2.160 . S
Mn43 O47 2.221 1_565 S
Mn43 O49 2.163 . S
Mn43 O51 2.160 . S
Mn43 O61 2.221 . S
O44 Mn45 2.087 1_655 S
O44 C56 1.256 . S
Mn45 O44 2.087 1_455 S
Mn45 O52 2.089 . S
Mn45 O61 2.290 . S
Mn45 O62 2.251 . S
O46 Mn43 2.160 . S
O46 C57 1.239 . S
O47 Mn43 2.221 1_545 S
O47 Mn48 2.290 . S
O47 C58 1.278 . S
Mn48 O47 2.290 . S
Mn48 O50 2.089 1_545 S
Mn48 O53 2.251 . S
Mn48 O54 2.087 1_545 S
O49 Mn43 2.163 . S
O49 C59 1.244 . S
O50 Mn48 2.089 1_565 S
O50 C57 1.256 . S
O51 Mn43 2.160 . S
O51 C60 1.239 . S
O52 Mn45 2.089 . S
O52 C60 1.256 . S
O53 Mn48 2.251 . S
O53 C58 1.241 . S
O54 Mn48 2.087 1_565 S
O54 C59 1.256 . S
C55 O61 1.278 . S
C55 O62 1.241 . S
C56 O42 1.244 1_655 S
C56 O44 1.256 . S
C57 O46 1.239 . S
C57 O50 1.256 . S
C58 O47 1.278 . S
C58 O53 1.241 . S
C59 O49 1.244 . S
C59 O54 1.256 . S
C60 O51 1.239 . S
C60 O52 1.256 . S
O61 Mn43 2.221 . S
O61 Mn45 2.290 . S
O61 C55 1.278 . S
O62 Mn45 2.251 . S
O62 C55 1.241 . S
O63 Mn64 2.163 . S
O63 C77 1.244 . S
Mn64 O63 2.163 . S
Mn64 O67 2.160 . S
Mn64 O68 2.221 1_545 S
Mn64 O70 2.163 . S
Mn64 O72 2.160 . S
Mn64 O82 2.221 . S
O65 Mn66 2.087 . S
O65 C77 1.256 . S
Mn66 O65 2.087 . S
Mn66 O73 2.089 . S
Mn66 O82 2.290 . S
Mn66 O83 2.251 . S
O67 Mn64 2.160 . S
O67 C78 1.239 . S
O68 Mn64 2.221 1_565 S
O68 Mn69 2.290 . S
O68 C79 1.278 . S
Mn69 O68 2.290 . S
Mn69 O71 2.089 1_565 S
Mn69 O74 2.251 . S
Mn69 O75 2.087 1_565 S
O70 Mn64 2.163 . S
O70 C80 1.244 . S
O71 Mn69 2.089 1_545 S
O71 C78 1.256 . S
O72 Mn64 2.160 . S
O72 C81 1.239 . S
O73 Mn66 2.089 . S
O73 C81 1.256 . S
O74 Mn69 2.251 . S
O74 C79 1.241 . S
O75 Mn69 2.087 1_545 S
O75 C80 1.256 . S
C76 O82 1.278 . S
C76 O83 1.241 . S
C77 O63 1.244 . S
C77 O65 1.256 . S
C78 O67 1.239 . S
C78 O71 1.256 . S
C79 O68 1.278 . S
C79 O74 1.241 . S
C80 O70 1.244 . S
C80 O75 1.256 . S
C81 O72 1.239 . S
C81 O73 1.256 . S
O82 Mn64 2.221 . S
O82 Mn66 2.290 . S
O82 C76 1.278 . S
O83 Mn66 2.251 . S
O83 C76 1.241 . S
O84 Mn85 2.163 . S
O84 C98 1.244 1_545 S
Mn85 O84 2.163 . S
Mn85 O88 2.160 . S
Mn85 O89 2.221 1_655 S
Mn85 O91 2.163 . S
Mn85 O93 2.160 . S
Mn85 O103 2.221 . S
O86 Mn87 2.087 1_565 S
O86 C98 1.256 . S
Mn87 O86 2.087 1_545 S
Mn87 O94 2.089 . S
Mn87 O103 2.290 . S
Mn87 O104 2.251 . S
O88 Mn85 2.160 . S
O88 C99 1.239 . S
O89 Mn85 2.221 1_455 S
O89 Mn90 2.290 . S
O89 C100 1.278 . S
Mn90 O89 2.290 . S
Mn90 O92 2.089 1_455 S
Mn90 O95 2.251 . S
Mn90 O96 2.087 1_455 S
O91 Mn85 2.163 . S
O91 C101 1.244 . S
O92 Mn90 2.089 1_655 S
O92 C99 1.256 . S
O93 Mn85 2.160 . S
O93 C102 1.239 . S
O94 Mn87 2.089 . S
O94 C102 1.256 . S
O95 Mn90 2.251 . S
O95 C100 1.241 . S
O96 Mn90 2.087 1_655 S
O96 C101 1.256 . S
C97 O103 1.278 . S
C97 O104 1.241 . S
C98 O84 1.244 1_565 S
C98 O86 1.256 . S
C99 O88 1.239 . S
C99 O92 1.256 . S
C100 O89 1.278 . S
C100 O95 1.241 . S
C101 O91 1.244 . S
C101 O96 1.256 . S
C102 O93 1.239 . S
C102 O94 1.256 . S
O103 Mn85 2.221 . S
O103 Mn87 2.290 . S
O103 C97 1.278 . S
O104 Mn87 2.251 . S
O104 C97 1.241 . S
O105 Mn106 2.163 . S
O105 C119 1.244 1_655 S
Mn106 O105 2.163 . S
Mn106 O109 2.160 . S
Mn106 O110 2.221 . S
Mn106 O112 2.163 . S
Mn106 O114 2.160 . S
Mn106 O124 2.221 . S
O107 Mn108 2.087 1_455 S
O107 C119 1.256 . S
Mn108 O107 2.087 1_655 S
Mn108 O115 2.089 . S
Mn108 O124 2.290 . S
Mn108 O125 2.251 . S
O109 Mn106 2.160 . S
O109 C120 1.239 . S
O110 Mn106 2.221 . S
O110 Mn111 2.290 . S
O110 C121 1.278 . S
Mn111 O110 2.290 . S
Mn111 O113 2.089 . S
Mn111 O116 2.251 . S
Mn111 O117 2.087 . S
O112 Mn106 2.163 . S
O112 C122 1.244 . S
O113 Mn111 2.089 . S
O113 C120 1.256 . S
O114 Mn106 2.160 . S
O114 C123 1.239 . S
O115 Mn108 2.089 . S
O115 C123 1.256 . S
O116 Mn111 2.251 . S
O116 C121 1.241 . S
O117 Mn111 2.087 . S
O117 C122 1.256 . S
C118 O124 1.278 . S
C118 O125 1.241 . S
C119 O105 1.244 1_455 S
C119 O107 1.256 . S
C120 O109 1.239 . S
C120 O113 1.256 . S
C121 O110 1.278 . S
C121 O116 1.241 . S
C122 O112 1.244 . S
C122 O117 1.256 . S
C123 O114 1.239 . S
C123 O115 1.256 . S
O124 Mn106 2.221 . S
O124 Mn108 2.290 . S
O124 C118 1.278 . S
O125 Mn108 2.251 . S
O125 C118 1.241 . S
O126 Mn127 2.163 . S
O126 C140 1.244 . S
Mn127 O126 2.163 . S
Mn127 O130 2.160 . S
Mn127 O131 2.221 1_655 S
Mn127 O133 2.163 . S
Mn127 O135 2.160 . S
Mn127 O145 2.221 . S
O128 Mn129 2.087 . S
O128 C140 1.256 . S
Mn129 O128 2.087 . S
Mn129 O136 2.089 . S
Mn129 O145 2.290 . S
Mn129 O146 2.251 . S
O130 Mn127 2.160 . S
O130 C141 1.239 . S
O131 Mn127 2.221 1_455 S
O131 Mn132 2.290 . S
O131 C142 1.278 . S
Mn132 O131 2.290 . S
Mn132 O134 2.089 1_455 S
Mn132 O137 2.251 . S
Mn132 O138 2.087 1_455 S
O133 Mn127 2.163 . S
O133 C143 1.244 . S
O134 Mn132 2.089 1_655 S
O134 C141 1.256 . S
O135 Mn127 2.160 . S
O135 C144 1.239 . S
O136 Mn129 2.089 . S
O136 C144 1.256 . S
O137 Mn132 2.251 . S
O137 C142 1.241 . S
O138 Mn132 2.087 1_655 S
O138 C143 1.256 . S
C139 O145 1.278 . S
C139 O146 1.241 . S
C140 O126 1.244 . S
C140 O128 1.256 . S
C141 O130 1.239 . S
C141 O134 1.256 . S
C142 O131 1.278 . S
C142 O137 1.241 . S
C143 O133 1.244 . S
C143 O138 1.256 . S
C144 O135 1.239 . S
C144 O136 1.256 . S
O145 Mn127 2.221 . S
O145 Mn129 2.290 . S
O145 C139 1.278 . S
O146 Mn129 2.251 . S
O146 C139 1.241 . S
O147 Mn148 2.163 . S
O147 C161 1.244 1_545 S
Mn148 O147 2.163 . S
Mn148 O151 2.160 . S
Mn148 O152 2.221 . S
Mn148 O154 2.163 . S
Mn148 O156 2.160 . S
Mn148 O166 2.221 . S
O149 Mn150 2.087 1_565 S
O149 C161 1.256 . S
Mn150 O149 2.087 1_545 S
Mn150 O157 2.089 . S
Mn150 O166 2.290 . S
Mn150 O167 2.251 . S
O151 Mn148 2.160 . S
O151 C162 1.239 . S
O152 Mn148 2.221 . S
O152 Mn153 2.290 . S
O152 C163 1.278 . S
Mn153 O152 2.290 . S
Mn153 O155 2.089 . S
Mn153 O158 2.251 . S
Mn153 O159 2.087 . S
O154 Mn148 2.163 . S
O154 C164 1.244 . S
O155 Mn153 2.089 . S
O155 C162 1.256 . S
O156 Mn148 2.160 . S
O156 C165 1.239 . S
O157 Mn150 2.089 . S
O157 C165 1.256 . S
O158 Mn153 2.251 . S
O158 C163 1.241 . S
O159 Mn153 2.087 . S
O159 C164 1.256 . S
C160 O166 1.278 . S
C160 O167 1.241 . S
C161 O147 1.244 1_565 S
C161 O149 1.256 . S
C162 O151 1.239 . S
C162 O155 1.256 . S
C163 O152 1.278 . S
C163 O158 1.241 . S
C164 O154 1.244 . S
C164 O159 1.256 . S
C165 O156 1.239 . S
C165 O157 1.256 . S
O166 Mn148 2.221 . S
O166 Mn150 2.290 . S
O166 C160 1.278 . S
O167 Mn150 2.251 . S
O167 C160 1.241 . S
O168 Mn169 2.163 . S
O168 C182 1.244 1_655 S
Mn169 O168 2.163 . S
Mn169 O172 2.160 . S
Mn169 O173 2.221 1_545 S
Mn169 O175 2.163 . S
Mn169 O177 2.160 . S
Mn169 O187 2.221 . S
O170 Mn171 2.087 1_455 S
O170 C182 1.256 . S
Mn171 O170 2.087 1_655 S
Mn171 O178 2.089 . S
Mn171 O187 2.290 . S
Mn171 O188 2.251 . S
O172 Mn169 2.160 . S
O172 C183 1.239 . S
O173 Mn169 2.221 1_565 S
O173 Mn174 2.290 . S
O173 C184 1.278 . S
Mn174 O173 2.290 . S
Mn174 O176 2.089 1_565 S
Mn174 O179 2.251 . S
Mn174 O180 2.087 1_565 S
O175 Mn169 2.163 . S
O175 C185 1.244 . S
O176 Mn174 2.089 1_545 S
O176 C183 1.256 . S
O177 Mn169 2.160 . S
O177 C186 1.239 . S
O178 Mn171 2.089 . S
O178 C186 1.256 . S
O179 Mn174 2.251 . S
O179 C184 1.241 . S
O180 Mn174 2.087 1_545 S
O180 C185 1.256 . S
C181 O187 1.278 . S
C181 O188 1.241 . S
C182 O168 1.244 1_455 S
C182 O170 1.256 . S
C183 O172 1.239 . S
C183 O176 1.256 . S
C184 O173 1.278 . S
C184 O179 1.241 . S
C185 O175 1.244 . S
C185 O180 1.256 . S
C186 O177 1.239 . S
C186 O178 1.256 . S
O187 Mn169 2.221 . S
O187 Mn171 2.290 . S
O187 C181 1.278 . S
O188 Mn171 2.251 . S
O188 C181 1.241 . S
O189 Mn190 2.163 . S
O189 C203 1.244 . S
Mn190 O189 2.163 . S
Mn190 O193 2.160 . S
Mn190 O194 2.221 1_565 S
Mn190 O196 2.163 . S
Mn190 O198 2.160 . S
Mn190 O208 2.221 . S
O191 Mn192 2.087 . S
O191 C203 1.256 . S
Mn192 O191 2.087 . S
Mn192 O199 2.089 . S
Mn192 O208 2.290 . S
Mn192 O209 2.251 . S
O193 Mn190 2.160 . S
O193 C204 1.239 . S
O194 Mn190 2.221 1_545 S
O194 Mn195 2.290 . S
O194 C205 1.278 . S
Mn195 O194 2.290 . S
Mn195 O197 2.089 1_545 S
Mn195 O200 2.251 . S
Mn195 O201 2.087 1_545 S
O196 Mn190 2.163 . S
O196 C206 1.244 . S
O197 Mn195 2.089 1_565 S
O197 C204 1.256 . S
O198 Mn190 2.160 . S
O198 C207 1.239 . S
O199 Mn192 2.089 . S
O199 C207 1.256 . S
O200 Mn195 2.251 . S
O200 C205 1.241 . S
O201 Mn195 2.087 1_565 S
O201 C206 1.256 . S
C202 O208 1.278 . S
C202 O209 1.241 . S
C203 O189 1.244 . S
C203 O191 1.256 . S
C204 O193 1.239 . S
C204 O197 1.256 . S
C205 O194 1.278 . S
C205 O200 1.241 . S
C206 O196 1.244 . S
C206 O201 1.256 . S
C207 O198 1.239 . S
C207 O199 1.256 . S
O208 Mn190 2.221 . S
O208 Mn192 2.290 . S
O208 C202 1.278 . S
O209 Mn192 2.251 . S
O209 C202 1.241 . S
O210 Mn211 2.163 . S
O210 C224 1.244 1_565 S
Mn211 O210 2.163 . S
Mn211 O214 2.160 . S
Mn211 O215 2.221 1_455 S
Mn211 O217 2.163 . S
Mn211 O219 2.160 . S
Mn211 O229 2.221 . S
O212 Mn213 2.087 1_545 S
O212 C224 1.256 . S
Mn213 O212 2.087 1_565 S
Mn213 O220 2.089 . S
Mn213 O229 2.290 . S
Mn213 O230 2.251 . S
O214 Mn211 2.160 . S
O214 C225 1.239 . S
O215 Mn211 2.221 1_655 S
O215 Mn216 2.290 . S
O215 C226 1.278 . S
Mn216 O215 2.290 . S
Mn216 O218 2.089 1_655 S
Mn216 O221 2.251 . S
Mn216 O222 2.087 1_655 S
O217 Mn211 2.163 . S
O217 C227 1.244 . S
O218 Mn216 2.089 1_455 S
O218 C225 1.256 . S
O219 Mn211 2.160 . S
O219 C228 1.239 . S
O220 Mn213 2.089 . S
O220 C228 1.256 . S
O221 Mn216 2.251 . S
O221 C226 1.241 . S
O222 Mn216 2.087 1_455 S
O222 C227 1.256 . S
C223 O229 1.278 . S
C223 O230 1.241 . S
C224 O210 1.244 1_545 S
C224 O212 1.256 . S
C225 O214 1.239 . S
C225 O218 1.256 . S
C226 O215 1.278 . S
C226 O221 1.241 . S
C227 O217 1.244 . S
C227 O222 1.256 . S
C228 O219 1.239 . S
C228 O220 1.256 . S
O229 Mn211 2.221 . S
O229 Mn213 2.290 . S
O229 C223 1.278 . S
O230 Mn213 2.251 . S
O230 C223 1.241 . S
O231 Mn232 2.163 . S
O231 C245 1.244 1_455 S
Mn232 O231 2.163 . S
Mn232 O235 2.160 . S
Mn232 O236 2.221 . S
Mn232 O238 2.163 . S
Mn232 O240 2.160 . S
Mn232 O250 2.221 . S
O233 Mn234 2.087 1_655 S
O233 C245 1.256 . S
Mn234 O233 2.087 1_455 S
Mn234 O241 2.089 . S
Mn234 O250 2.290 . S
Mn234 O251 2.251 . S
O235 Mn232 2.160 . S
O235 C246 1.239 . S
O236 Mn232 2.221 . S
O236 Mn237 2.290 . S
O236 C247 1.278 . S
Mn237 O236 2.290 . S
Mn237 O239 2.089 . S
Mn237 O242 2.251 . S
Mn237 O243 2.087 . S
O238 Mn232 2.163 . S
O238 C248 1.244 . S
O239 Mn237 2.089 . S
O239 C246 1.256 . S
O240 Mn232 2.160 . S
O240 C249 1.239 . S
O241 Mn234 2.089 . S
O241 C249 1.256 . S
O242 Mn237 2.251 . S
O242 C247 1.241 . S
O243 Mn237 2.087 . S
O243 C248 1.256 . S
C244 O250 1.278 . S
C244 O251 1.241 . S
C245 O231 1.244 1_655 S
C245 O233 1.256 . S
C246 O235 1.239 . S
C246 O239 1.256 . S
C247 O236 1.278 . S
C247 O242 1.241 . S
C248 O238 1.244 . S
C248 O243 1.256 . S
C249 O240 1.239 . S
C249 O241 1.256 . S
O250 Mn232 2.221 . S
O250 Mn234 2.290 . S
O250 C244 1.278 . S
O251 Mn234 2.251 . S
O251 C244 1.241 . S
O252 Mn253 2.163 . S
O252 C266 1.244 . S
Mn253 O252 2.163 . S
Mn253 O256 2.160 . S
Mn253 O257 2.221 . S
Mn253 O259 2.163 . S
Mn253 O261 2.160 . S
Mn253 O271 2.221 . S
O254 Mn255 2.087 . S
O254 C266 1.256 . S
Mn255 O254 2.087 . S
Mn255 O262 2.089 . S
Mn255 O271 2.290 . S
Mn255 O272 2.251 1_655 S
O256 Mn253 2.160 . S
O256 C267 1.239 . S
O257 Mn253 2.221 . S
O257 Mn258 2.290 . S
O257 C268 1.278 . S
Mn258 O257 2.290 . S
Mn258 O260 2.089 . S
Mn258 O263 2.251 . S
Mn258 O264 2.087 . S
O259 Mn253 2.163 . S
O259 C269 1.244 . S
O260 Mn258 2.089 . S
O260 C267 1.256 . S
O261 Mn253 2.160 . S
O261 C270 1.239 . S
O262 Mn255 2.089 . S
O262 C270 1.256 . S
O263 Mn258 2.251 . S
O263 C268 1.241 . S
O264 Mn258 2.087 . S
O264 C269 1.256 . S
C265 O271 1.278 . S
C265 O272 1.241 1_655 S
C266 O252 1.244 . S
C266 O254 1.256 . S
C267 O256 1.239 . S
C267 O260 1.256 . S
C268 O257 1.278 . S
C268 O263 1.241 . S
C269 O259 1.244 . S
C269 O264 1.256 . S
C270 O261 1.239 . S
C270 O262 1.256 . S
O271 Mn253 2.221 . S
O271 Mn255 2.290 . S
O271 C265 1.278 . S
O272 Mn255 2.251 1_455 S
O272 C265 1.241 1_455 S
O273 Mn274 2.163 . S
O273 C287 1.244 . S
Mn274 O273 2.163 . S
Mn274 O277 2.160 . S
Mn274 O278 2.221 . S
Mn274 O280 2.163 . S
Mn274 O282 2.160 . S
Mn274 O292 2.221 . S
O275 Mn276 2.087 . S
O275 C287 1.256 . S
Mn276 O275 2.087 . S
Mn276 O283 2.089 . S
Mn276 O292 2.290 . S
Mn276 O293 2.251 . S
O277 Mn274 2.160 . S
O277 C288 1.239 1_545 S
O278 Mn274 2.221 . S
O278 Mn279 2.290 . S
O278 C289 1.278 . S
Mn279 O278 2.290 . S
Mn279 O281 2.089 1_545 S
Mn279 O284 2.251 . S
Mn279 O285 2.087 . S
O280 Mn274 2.163 . S
O280 C290 1.244 . S
O281 Mn279 2.089 1_565 S
O281 C288 1.256 . S
O282 Mn274 2.160 . S
O282 C291 1.239 . S
O283 Mn276 2.089 . S
O283 C291 1.256 . S
O284 Mn279 2.251 . S
O284 C289 1.241 . S
O285 Mn279 2.087 . S
O285 C290 1.256 . S
C286 O292 1.278 . S
C286 O293 1.241 . S
C287 O273 1.244 . S
C287 O275 1.256 . S
C288 O277 1.239 1_565 S
C288 O281 1.256 . S
C289 O278 1.278 . S
C289 O284 1.241 . S
C290 O280 1.244 . S
C290 O285 1.256 . S
C291 O282 1.239 . S
C291 O283 1.256 . S
O292 Mn274 2.221 . S
O292 Mn276 2.290 . S
O292 C286 1.278 . S
O293 Mn276 2.251 . S
O293 C286 1.241 . S
O294 Mn295 2.163 . S
O294 C308 1.244 . S
Mn295 O294 2.163 . S
Mn295 O298 2.160 . S
Mn295 O299 2.221 . S
Mn295 O301 2.163 . S
Mn295 O303 2.160 . S
Mn295 O313 2.221 . S
O296 Mn297 2.087 . S
O296 C308 1.256 . S
Mn297 O296 2.087 . S
Mn297 O304 2.089 . S
Mn297 O313 2.290 . S
Mn297 O314 2.251 1_545 S
O298 Mn295 2.160 . S
O298 C309 1.239 1_655 S
O299 Mn295 2.221 . S
O299 Mn300 2.290 . S
O299 C310 1.278 . S
Mn300 O299 2.290 . S
Mn300 O302 2.089 1_655 S
Mn300 O305 2.251 . S
Mn300 O306 2.087 . S
O301 Mn295 2.163 . S
O301 C311 1.244 . S
O302 Mn300 2.089 1_455 S
O302 C309 1.256 . S
O303 Mn295 2.160 . S
O303 C312 1.239 . S
O304 Mn297 2.089 . S
O304 C312 1.256 . S
O305 Mn300 2.251 . S
O305 C310 1.241 . S
O306 Mn300 2.087 . S
O306 C311 1.256 . S
C307 O313 1.278 . S
C307 O314 1.241 1_545 S
C308 O294 1.244 . S
C308 O296 1.256 . S
C309 O298 1.239 1_455 S
C309 O302 1.256 . S
C310 O299 1.278 . S
C310 O305 1.241 . S
C311 O301 1.244 . S
C311 O306 1.256 . S
C312 O303 1.239 . S
C312 O304 1.256 . S
O313 Mn295 2.221 . S
O313 Mn297 2.290 . S
O313 C307 1.278 . S
O314 Mn297 2.251 1_565 S
O314 C307 1.241 1_565 S
O315 Mn316 2.163 . S
O315 C329 1.244 . S
Mn316 O315 2.163 . S
Mn316 O319 2.160 1_655 S
Mn316 O320 2.221 . S
Mn316 O322 2.163 . S
Mn316 O324 2.160 . S
Mn316 O334 2.221 . S
O317 Mn318 2.087 . S
O317 C329 1.256 . S
Mn318 O317 2.087 . S
Mn318 O325 2.089 . S
Mn318 O334 2.290 . S
Mn318 O335 2.251 1_655 S
O319 Mn316 2.160 1_455 S
O319 C330 1.239 . S
O320 Mn316 2.221 . S
O320 Mn321 2.290 . S
O320 C331 1.278 . S
Mn321 O320 2.290 . S
Mn321 O323 2.089 1_655 S
Mn321 O326 2.251 . S
Mn321 O327 2.087 . S
O322 Mn316 2.163 . S
O322 C332 1.244 . S
O323 Mn321 2.089 1_455 S
O323 C330 1.256 . S
O324 Mn316 2.160 . S
O324 C333 1.239 . S
O325 Mn318 2.089 . S
O325 C333 1.256 . S
O326 Mn321 2.251 . S
O326 C331 1.241 . S
O327 Mn321 2.087 . S
O327 C332 1.256 . S
C328 O334 1.278 1_455 S
C328 O335 1.241 . S
C329 O315 1.244 . S
C329 O317 1.256 . S
C330 O319 1.239 . S
C330 O323 1.256 . S
C331 O320 1.278 . S
C331 O326 1.241 . S
C332 O322 1.244 . S
C332 O327 1.256 . S
C333 O324 1.239 . S
C333 O325 1.256 . S
O334 Mn316 2.221 . S
O334 Mn318 2.290 . S
O334 C328 1.278 1_655 S
O335 Mn318 2.251 1_455 S
O335 C328 1.241 . S
O336 Mn337 2.163 . S
O336 C350 1.244 . S
Mn337 O336 2.163 . S
Mn337 O340 2.160 . S
Mn337 O341 2.221 . S
Mn337 O343 2.163 . S
Mn337 O345 2.160 . S
Mn337 O355 2.221 . S
O338 Mn339 2.087 . S
O338 C350 1.256 . S
Mn339 O338 2.087 . S
Mn339 O346 2.089 . S
Mn339 O355 2.290 . S
Mn339 O356 2.251 . S
O340 Mn337 2.160 . S
O340 C351 1.239 . S
O341 Mn337 2.221 . S
O341 Mn342 2.290 . S
O341 C352 1.278 . S
Mn342 O341 2.290 . S
Mn342 O344 2.089 . S
Mn342 O347 2.251 . S
Mn342 O348 2.087 . S
O343 Mn337 2.163 . S
O343 C353 1.244 . S
O344 Mn342 2.089 . S
O344 C351 1.256 . S
O345 Mn337 2.160 . S
O345 C354 1.239 . S
O346 Mn339 2.089 . S
O346 C354 1.256 . S
O347 Mn342 2.251 . S
O347 C352 1.241 . S
O348 Mn342 2.087 . S
O348 C353 1.256 . S
C349 O355 1.278 . S
C349 O356 1.241 . S
C350 O336 1.244 . S
C350 O338 1.256 . S
C351 O340 1.239 . S
C351 O344 1.256 . S
C352 O341 1.278 . S
C352 O347 1.241 . S
C353 O343 1.244 . S
C353 O348 1.256 . S
C354 O345 1.239 . S
C354 O346 1.256 . S
O355 Mn337 2.221 . S
O355 Mn339 2.290 . S
O355 C349 1.278 . S
O356 Mn339 2.251 . S
O356 C349 1.241 . S
O357 Mn358 2.163 . S
O357 C371 1.244 . S
Mn358 O357 2.163 . S
Mn358 O361 2.160 1_545 S
Mn358 O362 2.221 . S
Mn358 O364 2.163 . S
Mn358 O366 2.160 . S
Mn358 O376 2.221 . S
O359 Mn360 2.087 . S
O359 C371 1.256 . S
Mn360 O359 2.087 . S
Mn360 O367 2.089 . S
Mn360 O376 2.290 . S
Mn360 O377 2.251 1_545 S
O361 Mn358 2.160 1_565 S
O361 C372 1.239 . S
O362 Mn358 2.221 . S
O362 Mn363 2.290 . S
O362 C373 1.278 . S
Mn363 O362 2.290 . S
Mn363 O365 2.089 1_545 S
Mn363 O368 2.251 . S
Mn363 O369 2.087 . S
O364 Mn358 2.163 . S
O364 C374 1.244 . S
O365 Mn363 2.089 1_565 S
O365 C372 1.256 . S
O366 Mn358 2.160 . S
O366 C375 1.239 . S
O367 Mn360 2.089 . S
O367 C375 1.256 . S
O368 Mn363 2.251 . S
O368 C373 1.241 . S
O369 Mn363 2.087 . S
O369 C374 1.256 . S
C370 O376 1.278 1_565 S
C370 O377 1.241 . S
C371 O357 1.244 . S
C371 O359 1.256 . S
C372 O361 1.239 . S
C372 O365 1.256 . S
C373 O362 1.278 . S
C373 O368 1.241 . S
C374 O364 1.244 . S
C374 O369 1.256 . S
C375 O366 1.239 . S
C375 O367 1.256 . S
O376 Mn358 2.221 . S
O376 Mn360 2.290 . S
O376 C370 1.278 1_545 S
O377 Mn360 2.251 1_565 S
O377 C370 1.241 . S
O378 Mn379 2.163 . S
O378 C392 1.244 . S
Mn379 O378 2.163 . S
Mn379 O382 2.160 1_545 S
Mn379 O383 2.221 . S
Mn379 O385 2.163 . S
Mn379 O387 2.160 . S
Mn379 O397 2.221 . S
O380 Mn381 2.087 . S
O380 C392 1.256 . S
Mn381 O380 2.087 . S
Mn381 O388 2.089 . S
Mn381 O397 2.290 . S
Mn381 O398 2.251 1_545 S
O382 Mn379 2.160 1_565 S
O382 C393 1.239 . S
O383 Mn379 2.221 . S
O383 Mn384 2.290 . S
O383 C394 1.278 . S
Mn384 O383 2.290 . S
Mn384 O386 2.089 1_545 S
Mn384 O389 2.251 . S
Mn384 O390 2.087 . S
O385 Mn379 2.163 . S
O385 C395 1.244 . S
O386 Mn384 2.089 1_565 S
O386 C393 1.256 . S
O387 Mn379 2.160 . S
O387 C396 1.239 . S
O388 Mn381 2.089 . S
O388 C396 1.256 . S
O389 Mn384 2.251 . S
O389 C394 1.241 . S
O390 Mn384 2.087 . S
O390 C395 1.256 . S
C391 O397 1.278 1_565 S
C391 O398 1.241 . S
C392 O378 1.244 . S
C392 O380 1.256 . S
C393 O382 1.239 . S
C393 O386 1.256 . S
C394 O383 1.278 . S
C394 O389 1.241 . S
C395 O385 1.244 . S
C395 O390 1.256 . S
C396 O387 1.239 . S
C396 O388 1.256 . S
O397 Mn379 2.221 . S
O397 Mn381 2.290 . S
O397 C391 1.278 1_545 S
O398 Mn381 2.251 1_565 S
O398 C391 1.241 . S
O399 Mn400 2.163 . S
O399 C413 1.244 . S
Mn400 O399 2.163 . S
Mn400 O403 2.160 1_655 S
Mn400 O404 2.221 . S
Mn400 O406 2.163 . S
Mn400 O408 2.160 . S
Mn400 O418 2.221 . S
O401 Mn402 2.087 . S
O401 C413 1.256 . S
Mn402 O401 2.087 . S
Mn402 O409 2.089 . S
Mn402 O418 2.290 . S
Mn402 O419 2.251 1_655 S
O403 Mn400 2.160 1_455 S
O403 C414 1.239 . S
O404 Mn400 2.221 . S
O404 Mn405 2.290 . S
O404 C415 1.278 . S
Mn405 O404 2.290 . S
Mn405 O407 2.089 1_655 S
Mn405 O410 2.251 . S
Mn405 O411 2.087 . S
O406 Mn400 2.163 . S
O406 C416 1.244 . S
O407 Mn405 2.089 1_455 S
O407 C414 1.256 . S
O408 Mn400 2.160 . S
O408 C417 1.239 . S
O409 Mn402 2.089 . S
O409 C417 1.256 . S
O410 Mn405 2.251 . S
O410 C415 1.241 . S
O411 Mn405 2.087 . S
O411 C416 1.256 . S
C412 O418 1.278 1_455 S
C412 O419 1.241 . S
C413 O399 1.244 . S
C413 O401 1.256 . S
C414 O403 1.239 . S
C414 O407 1.256 . S
C415 O404 1.278 . S
C415 O410 1.241 . S
C416 O406 1.244 . S
C416 O411 1.256 . S
C417 O408 1.239 . S
C417 O409 1.256 . S
O418 Mn400 2.221 . S
O418 Mn402 2.290 . S
O418 C412 1.278 1_655 S
O419 Mn402 2.251 1_455 S
O419 C412 1.241 . S
O420 Mn421 2.163 . S
O420 C434 1.244 . S
Mn421 O420 2.163 . S
Mn421 O424 2.160 . S
Mn421 O425 2.221 . S
Mn421 O427 2.163 . S
Mn421 O429 2.160 . S
Mn421 O439 2.221 . S
O422 Mn423 2.087 . S
O422 C434 1.256 . S
Mn423 O422 2.087 . S
Mn423 O430 2.089 . S
Mn423 O439 2.290 . S
Mn423 O440 2.251 . S
O424 Mn421 2.160 . S
O424 C435 1.239 . S
O425 Mn421 2.221 . S
O425 Mn426 2.290 . S
O425 C436 1.278 . S
Mn426 O425 2.290 . S
Mn426 O428 2.089 . S
Mn426 O431 2.251 . S
Mn426 O432 2.087 . S
O427 Mn421 2.163 . S
O427 C437 1.244 . S
O428 Mn426 2.089 . S
O428 C435 1.256 . S
O429 Mn421 2.160 . S
O429 C438 1.239 . S
O430 Mn423 2.089 . S
O430 C438 1.256 . S
O431 Mn426 2.251 . S
O431 C436 1.241 . S
O432 Mn426 2.087 . S
O432 C437 1.256 . S
C433 O439 1.278 . S
C433 O440 1.241 . S
C434 O420 1.244 . S
C434 O422 1.256 . S
C435 O424 1.239 . S
C435 O428 1.256 . S
C436 O425 1.278 . S
C436 O431 1.241 . S
C437 O427 1.244 . S
C437 O432 1.256 . S
C438 O429 1.239 . S
C438 O430 1.256 . S
O439 Mn421 2.221 . S
O439 Mn423 2.290 . S
O439 C433 1.278 . S
O440 Mn423 2.251 . S
O440 C433 1.241 . S
O441 Mn442 2.164 . S
O441 C455 1.250 . S
Mn442 O441 2.164 . S
Mn442 O445 2.160 . S
Mn442 O446 2.221 1_554 S
Mn442 O448 2.163 1_554 S
Mn442 O450 2.160 . S
Mn442 O460 2.221 . S
O443 Mn444 2.087 . S
O443 C455 1.256 . S
Mn444 O443 2.087 . S
Mn444 O451 2.089 . S
Mn444 O460 2.290 . S
Mn444 O461 2.251 1_545 S
O445 Mn442 2.160 . S
O445 C456 1.239 1_554 S
O446 Mn442 2.221 1_556 S
O446 Mn447 2.290 . S
O446 C457 1.278 . S
Mn447 O446 2.290 . S
Mn447 O449 2.089 . S
Mn447 O452 2.251 . S
Mn447 O453 2.087 . S
O448 Mn442 2.163 1_556 S
O448 C458 1.244 . S
O449 Mn447 2.089 . S
O449 C456 1.256 . S
O450 Mn442 2.160 . S
O450 C459 1.239 . S
O451 Mn444 2.089 . S
O451 C459 1.256 . S
O452 Mn447 2.251 . S
O452 C457 1.241 . S
O453 Mn447 2.087 . S
O453 C458 1.256 . S
C454 O460 1.278 . S
C454 O461 1.241 1_545 S
C455 O441 1.250 . S
C455 O443 1.256 . S
C456 O445 1.239 1_556 S
C456 O449 1.256 . S
C457 O446 1.278 . S
C457 O452 1.241 . S
C458 O448 1.244 . S
C458 O453 1.256 . S
C459 O450 1.239 . S
C459 O451 1.256 . S
O460 Mn442 2.221 . S
O460 Mn444 2.290 . S
O460 C454 1.278 . S
O461 Mn444 2.251 1_565 S
O461 C454 1.241 1_565 S
O462 Mn463 2.164 . S
O462 C476 1.250 . S
Mn463 O462 2.164 . S
Mn463 O466 2.160 . S
Mn463 O467 2.221 1_554 S
Mn463 O469 2.163 1_554 S
Mn463 O471 2.160 . S
Mn463 O481 2.221 . S
O464 Mn465 2.087 . S
O464 C476 1.256 . S
Mn465 O464 2.087 . S
Mn465 O472 2.089 . S
Mn465 O481 2.290 . S
Mn465 O482 2.251 1_655 S
O466 Mn463 2.160 . S
O466 C477 1.239 1_544 S
O467 Mn463 2.221 1_556 S
O467 Mn468 2.290 . S
O467 C478 1.278 . S
Mn468 O467 2.290 . S
Mn468 O470 2.089 1_545 S
Mn468 O473 2.251 . S
Mn468 O474 2.087 . S
O469 Mn463 2.163 1_556 S
O469 C479 1.244 . S
O470 Mn468 2.089 1_565 S
O470 C477 1.256 . S
O471 Mn463 2.160 . S
O471 C480 1.239 . S
O472 Mn465 2.089 . S
O472 C480 1.256 . S
O473 Mn468 2.251 . S
O473 C478 1.241 . S
O474 Mn468 2.087 . S
O474 C479 1.256 . S
C475 O481 1.278 . S
C475 O482 1.241 1_655 S
C476 O462 1.250 . S
C476 O464 1.256 . S
C477 O466 1.239 1_566 S
C477 O470 1.256 . S
C478 O467 1.278 . S
C478 O473 1.241 . S
C479 O469 1.244 . S
C479 O474 1.256 . S
C480 O471 1.239 . S
C480 O472 1.256 . S
O481 Mn463 2.221 . S
O481 Mn465 2.290 . S
O481 C475 1.278 . S
O482 Mn465 2.251 1_455 S
O482 C475 1.241 1_455 S
O483 Mn484 2.164 . S
O483 C497 1.250 . S
Mn484 O483 2.164 . S
Mn484 O487 2.160 . S
Mn484 O488 2.221 1_554 S
Mn484 O490 2.163 1_554 S
Mn484 O492 2.160 . S
Mn484 O502 2.221 . S
O485 Mn486 2.087 . S
O485 C497 1.256 . S
Mn486 O485 2.087 . S
Mn486 O493 2.089 . S
Mn486 O502 2.290 . S
Mn486 O503 2.251 . S
O487 Mn484 2.160 . S
O487 C498 1.239 1_654 S
O488 Mn484 2.221 1_556 S
O488 Mn489 2.290 . S
O488 C499 1.278 . S
Mn489 O488 2.290 . S
Mn489 O491 2.089 1_655 S
Mn489 O494 2.251 . S
Mn489 O495 2.087 . S
O490 Mn484 2.163 1_556 S
O490 C500 1.244 . S
O491 Mn489 2.089 1_455 S
O491 C498 1.256 . S
O492 Mn484 2.160 . S
O492 C501 1.239 . S
O493 Mn486 2.089 . S
O493 C501 1.256 . S
O494 Mn489 2.251 . S
O494 C499 1.241 . S
O495 Mn489 2.087 . S
O495 C500 1.256 . S
C496 O502 1.278 . S
C496 O503 1.241 . S
C497 O483 1.250 . S
C497 O485 1.256 . S
C498 O487 1.239 1_456 S
C498 O491 1.256 . S
C499 O488 1.278 . S
C499 O494 1.241 . S
C500 O490 1.244 . S
C500 O495 1.256 . S
C501 O492 1.239 . S
C501 O493 1.256 . S
O502 Mn484 2.221 . S
O502 Mn486 2.290 . S
O502 C496 1.278 . S
O503 Mn486 2.251 . S
O503 C496 1.241 . S
O504 Mn505 2.163 . S
O504 C518 1.244 . S
Mn505 O504 2.163 . S
Mn505 O508 2.160 1_565 S
Mn505 O509 2.221 . S
Mn505 O511 2.163 . S
Mn505 O513 2.160 . S
Mn505 O523 2.221 . S
O506 Mn507 2.087 . S
O506 C518 1.256 . S
Mn507 O506 2.087 . S
Mn507 O514 2.089 . S
Mn507 O523 2.290 . S
Mn507 O524 2.251 1_565 S
O508 Mn505 2.160 1_545 S
O508 C519 1.239 . S
O509 Mn505 2.221 . S
O509 Mn510 2.290 . S
O509 C520 1.278 . S
Mn510 O509 2.290 . S
Mn510 O512 2.089 1_565 S
Mn510 O515 2.251 . S
Mn510 O516 2.087 . S
O511 Mn505 2.163 . S
O511 C521 1.244 . S
O512 Mn510 2.089 1_545 S
O512 C519 1.256 . S
O513 Mn505 2.160 . S
O513 C522 1.239 . S
O514 Mn507 2.089 . S
O514 C522 1.256 . S
O515 Mn510 2.251 . S
O515 C520 1.241 . S
O516 Mn510 2.087 . S
O516 C521 1.256 . S
C517 O523 1.278 1_545 S
C517 O524 1.241 . S
C518 O504 1.244 . S
C518 O506 1.256 . S
C519 O508 1.239 . S
C519 O512 1.256 . S
C520 O509 1.278 . S
C520 O515 1.241 . S
C521 O511 1.244 . S
C521 O516 1.256 . S
C522 O513 1.239 . S
C522 O514 1.256 . S
O523 Mn505 2.221 . S
O523 Mn507 2.290 . S
O523 C517 1.278 1_565 S
O524 Mn507 2.251 1_545 S
O524 C517 1.241 . S
O525 Mn526 2.163 . S
O525 C539 1.244 . S
Mn526 O525 2.163 . S
Mn526 O529 2.160 1_455 S
Mn526 O530 2.221 . S
Mn526 O532 2.163 . S
Mn526 O534 2.160 . S
Mn526 O544 2.221 . S
O527 Mn528 2.087 . S
O527 C539 1.256 . S
Mn528 O527 2.087 . S
Mn528 O535 2.089 . S
Mn528 O544 2.290 . S
Mn528 O545 2.251 1_455 S
O529 Mn526 2.160 1_655 S
O529 C540 1.239 . S
O530 Mn526 2.221 . S
O530 Mn531 2.290 . S
O530 C541 1.278 . S
Mn531 O530 2.290 . S
Mn531 O533 2.089 1_455 S
Mn531 O536 2.251 . S
Mn531 O537 2.087 . S
O532 Mn526 2.163 . S
O532 C542 1.244 . S
O533 Mn531 2.089 1_655 S
O533 C540 1.256 . S
O534 Mn526 2.160 . S
O534 C543 1.239 . S
O535 Mn528 2.089 . S
O535 C543 1.256 . S
O536 Mn531 2.251 . S
O536 C541 1.241 . S
O537 Mn531 2.087 . S
O537 C542 1.256 . S
C538 O544 1.278 1_655 S
C538 O545 1.241 . S
C539 O525 1.244 . S
C539 O527 1.256 . S
C540 O529 1.239 . S
C540 O533 1.256 . S
C541 O530 1.278 . S
C541 O536 1.241 . S
C542 O532 1.244 . S
C542 O537 1.256 . S
C543 O534 1.239 . S
C543 O535 1.256 . S
O544 Mn526 2.221 . S
O544 Mn528 2.290 . S
O544 C538 1.278 1_455 S
O545 Mn528 2.251 1_655 S
O545 C538 1.241 . S
O546 Mn547 2.163 . S
O546 C560 1.244 . S
Mn547 O546 2.163 . S
Mn547 O550 2.160 . S
Mn547 O551 2.221 . S
Mn547 O553 2.163 . S
Mn547 O555 2.160 . S
Mn547 O565 2.221 . S
O548 Mn549 2.087 . S
O548 C560 1.256 . S
Mn549 O548 2.087 . S
Mn549 O556 2.089 . S
Mn549 O565 2.290 . S
Mn549 O566 2.251 . S
O550 Mn547 2.160 . S
O550 C561 1.239 . S
O551 Mn547 2.221 . S
O551 Mn552 2.290 . S
O551 C562 1.278 . S
Mn552 O551 2.290 . S
Mn552 O554 2.089 . S
Mn552 O557 2.251 . S
Mn552 O558 2.087 . S
O553 Mn547 2.163 . S
O553 C563 1.244 . S
O554 Mn552 2.089 . S
O554 C561 1.256 . S
O555 Mn547 2.160 . S
O555 C564 1.239 . S
O556 Mn549 2.089 . S
O556 C564 1.256 . S
O557 Mn552 2.251 . S
O557 C562 1.241 . S
O558 Mn552 2.087 . S
O558 C563 1.256 . S
C559 O565 1.278 . S
C559 O566 1.241 . S
C560 O546 1.244 . S
C560 O548 1.256 . S
C561 O550 1.239 . S
C561 O554 1.256 . S
C562 O551 1.278 . S
C562 O557 1.241 . S
C563 O553 1.244 . S
C563 O558 1.256 . S
C564 O555 1.239 . S
C564 O556 1.256 . S
O565 Mn547 2.221 . S
O565 Mn549 2.290 . S
O565 C559 1.278 . S
O566 Mn549 2.251 . S
O566 C559 1.241 . S
O567 Mn568 2.164 . S
O567 C581 1.250 . S
Mn568 O567 2.164 . S
Mn568 O571 2.160 . S
Mn568 O572 2.221 1_556 S
Mn568 O574 2.163 1_556 S
Mn568 O576 2.160 . S
Mn568 O586 2.221 . S
O569 Mn570 2.087 . S
O569 C581 1.256 . S
Mn570 O569 2.087 . S
Mn570 O577 2.089 . S
Mn570 O586 2.290 . S
Mn570 O587 2.251 1_565 S
O571 Mn568 2.160 . S
O571 C582 1.239 1_556 S
O572 Mn568 2.221 1_554 S
O572 Mn573 2.290 . S
O572 C583 1.278 . S
Mn573 O572 2.290 . S
Mn573 O575 2.089 . S
Mn573 O578 2.251 . S
Mn573 O579 2.087 . S
O574 Mn568 2.163 1_554 S
O574 C584 1.244 . S
O575 Mn573 2.089 . S
O575 C582 1.256 . S
O576 Mn568 2.160 . S
O576 C585 1.239 . S
O577 Mn570 2.089 . S
O577 C585 1.256 . S
O578 Mn573 2.251 . S
O578 C583 1.241 . S
O579 Mn573 2.087 . S
O579 C584 1.256 . S
C580 O586 1.278 . S
C580 O587 1.241 1_565 S
C581 O567 1.250 . S
C581 O569 1.256 . S
C582 O571 1.239 1_554 S
C582 O575 1.256 . S
C583 O572 1.278 . S
C583 O578 1.241 . S
C584 O574 1.244 . S
C584 O579 1.256 . S
C585 O576 1.239 . S
C585 O577 1.256 . S
O586 Mn568 2.221 . S
O586 Mn570 2.290 . S
O586 C580 1.278 . S
O587 Mn570 2.251 1_545 S
O587 C580 1.241 1_545 S
O588 Mn589 2.164 . S
O588 C602 1.250 . S
Mn589 O588 2.164 . S
Mn589 O592 2.160 . S
Mn589 O593 2.221 1_556 S
Mn589 O595 2.163 1_556 S
Mn589 O597 2.160 . S
Mn589 O607 2.221 . S
O590 Mn591 2.087 . S
O590 C602 1.256 . S
Mn591 O590 2.087 . S
Mn591 O598 2.089 . S
Mn591 O607 2.290 . S
Mn591 O608 2.251 1_455 S
O592 Mn589 2.160 . S
O592 C603 1.239 1_566 S
O593 Mn589 2.221 1_554 S
O593 Mn594 2.290 . S
O593 C604 1.278 . S
Mn594 O593 2.290 . S
Mn594 O596 2.089 1_565 S
Mn594 O599 2.251 . S
Mn594 O600 2.087 . S
O595 Mn589 2.163 1_554 S
O595 C605 1.244 . S
O596 Mn594 2.089 1_545 S
O596 C603 1.256 . S
O597 Mn589 2.160 . S
O597 C606 1.239 . S
O598 Mn591 2.089 . S
O598 C606 1.256 . S
O599 Mn594 2.251 . S
O599 C604 1.241 . S
O600 Mn594 2.087 . S
O600 C605 1.256 . S
C601 O607 1.278 . S
C601 O608 1.241 1_455 S
C602 O588 1.250 . S
C602 O590 1.256 . S
C603 O592 1.239 1_544 S
C603 O596 1.256 . S
C604 O593 1.278 . S
C604 O599 1.241 . S
C605 O595 1.244 . S
C605 O600 1.256 . S
C606 O597 1.239 . S
C606 O598 1.256 . S
O607 Mn589 2.221 . S
O607 Mn591 2.290 . S
O607 C601 1.278 . S
O608 Mn591 2.251 1_655 S
O608 C601 1.241 1_655 S
O609 Mn610 2.164 . S
O609 C623 1.250 . S
Mn610 O609 2.164 . S
Mn610 O613 2.160 . S
Mn610 O614 2.221 1_556 S
Mn610 O616 2.163 1_556 S
Mn610 O618 2.160 . S
Mn610 O628 2.221 . S
O611 Mn612 2.087 . S
O611 C623 1.256 . S
Mn612 O611 2.087 . S
Mn612 O619 2.089 . S
Mn612 O628 2.290 . S
Mn612 O629 2.251 . S
O613 Mn610 2.160 . S
O613 C624 1.239 1_456 S
O614 Mn610 2.221 1_554 S
O614 Mn615 2.290 . S
O614 C625 1.278 . S
Mn615 O614 2.290 . S
Mn615 O617 2.089 1_455 S
Mn615 O620 2.251 . S
Mn615 O621 2.087 . S
O616 Mn610 2.163 1_554 S
O616 C626 1.244 . S
O617 Mn615 2.089 1_655 S
O617 C624 1.256 . S
O618 Mn610 2.160 . S
O618 C627 1.239 . S
O619 Mn612 2.089 . S
O619 C627 1.256 . S
O620 Mn615 2.251 . S
O620 C625 1.241 . S
O621 Mn615 2.087 . S
O621 C626 1.256 . S
C622 O628 1.278 . S
C622 O629 1.241 . S
C623 O609 1.250 . S
C623 O611 1.256 . S
C624 O613 1.239 1_654 S
C624 O617 1.256 . S
C625 O614 1.278 . S
C625 O620 1.241 . S
C626 O616 1.244 . S
C626 O621 1.256 . S
C627 O618 1.239 . S
C627 O619 1.256 . S
O628 Mn610 2.221 . S
O628 Mn612 2.290 . S
O628 C622 1.278 . S
O629 Mn612 2.251 . S
O629 C622 1.241 . S
O630 Mn631 2.163 . S
O630 C644 1.244 . S
Mn631 O630 2.163 . S
Mn631 O634 2.160 . S
Mn631 O635 2.221 . S
Mn631 O637 2.163 . S
Mn631 O639 2.160 . S
Mn631 O649 2.221 . S
O632 Mn633 2.087 . S
O632 C644 1.256 . S
Mn633 O632 2.087 . S
Mn633 O640 2.089 . S
Mn633 O649 2.290 . S
Mn633 O650 2.251 1_455 S
O634 Mn631 2.160 . S
O634 C645 1.239 . S
O635 Mn631 2.221 . S
O635 Mn636 2.290 . S
O635 C646 1.278 . S
Mn636 O635 2.290 . S
Mn636 O638 2.089 . S
Mn636 O641 2.251 . S
Mn636 O642 2.087 . S
O637 Mn631 2.163 . S
O637 C647 1.244 . S
O638 Mn636 2.089 . S
O638 C645 1.256 . S
O639 Mn631 2.160 . S
O639 C648 1.239 . S
O640 Mn633 2.089 . S
O640 C648 1.256 . S
O641 Mn636 2.251 . S
O641 C646 1.241 . S
O642 Mn636 2.087 . S
O642 C647 1.256 . S
C643 O649 1.278 . S
C643 O650 1.241 1_455 S
C644 O630 1.244 . S
C644 O632 1.256 . S
C645 O634 1.239 . S
C645 O638 1.256 . S
C646 O635 1.278 . S
C646 O641 1.241 . S
C647 O637 1.244 . S
C647 O642 1.256 . S
C648 O639 1.239 . S
C648 O640 1.256 . S
O649 Mn631 2.221 . S
O649 Mn633 2.290 . S
O649 C643 1.278 . S
O650 Mn633 2.251 1_655 S
O650 C643 1.241 1_655 S
O651 Mn652 2.163 . S
O651 C665 1.244 . S
Mn652 O651 2.163 . S
Mn652 O655 2.160 . S
Mn652 O656 2.221 . S
Mn652 O658 2.163 . S
Mn652 O660 2.160 . S
Mn652 O670 2.221 . S
O653 Mn654 2.087 . S
O653 C665 1.256 . S
Mn654 O653 2.087 . S
Mn654 O661 2.089 . S
Mn654 O670 2.290 . S
Mn654 O671 2.251 . S
O655 Mn652 2.160 . S
O655 C666 1.239 1_565 S
O656 Mn652 2.221 . S
O656 Mn657 2.290 . S
O656 C667 1.278 . S
Mn657 O656 2.290 . S
Mn657 O659 2.089 1_565 S
Mn657 O662 2.251 . S
Mn657 O663 2.087 . S
O658 Mn652 2.163 . S
O658 C668 1.244 . S
O659 Mn657 2.089 1_545 S
O659 C666 1.256 . S
O660 Mn652 2.160 . S
O660 C669 1.239 . S
O661 Mn654 2.089 . S
O661 C669 1.256 . S
O662 Mn657 2.251 . S
O662 C667 1.241 . S
O663 Mn657 2.087 . S
O663 C668 1.256 . S
C664 O670 1.278 . S
C664 O671 1.241 . S
C665 O651 1.244 . S
C665 O653 1.256 . S
C666 O655 1.239 1_545 S
C666 O659 1.256 . S
C667 O656 1.278 . S
C667 O662 1.241 . S
C668 O658 1.244 . S
C668 O663 1.256 . S
C669 O660 1.239 . S
C669 O661 1.256 . S
O670 Mn652 2.221 . S
O670 Mn654 2.290 . S
O670 C664 1.278 . S
O671 Mn654 2.251 . S
O671 C664 1.241 . S
O672 Mn673 2.163 . S
O672 C686 1.244 . S
Mn673 O672 2.163 . S
Mn673 O676 2.160 . S
Mn673 O677 2.221 . S
Mn673 O679 2.163 . S
Mn673 O681 2.160 . S
Mn673 O691 2.221 . S
O674 Mn675 2.087 . S
O674 C686 1.256 . S
Mn675 O674 2.087 . S
Mn675 O682 2.089 . S
Mn675 O691 2.290 . S
Mn675 O692 2.251 1_565 S
O676 Mn673 2.160 . S
O676 C687 1.239 1_455 S
O677 Mn673 2.221 . S
O677 Mn678 2.290 . S
O677 C688 1.278 . S
Mn678 O677 2.290 . S
Mn678 O680 2.089 1_455 S
Mn678 O683 2.251 . S
Mn678 O684 2.087 . S
O679 Mn673 2.163 . S
O679 C689 1.244 . S
O680 Mn678 2.089 1_655 S
O680 C687 1.256 . S
O681 Mn673 2.160 . S
O681 C690 1.239 . S
O682 Mn675 2.089 . S
O682 C690 1.256 . S
O683 Mn678 2.251 . S
O683 C688 1.241 . S
O684 Mn678 2.087 . S
O684 C689 1.256 . S
C685 O691 1.278 . S
C685 O692 1.241 1_565 S
C686 O672 1.244 . S
C686 O674 1.256 . S
C687 O676 1.239 1_655 S
C687 O680 1.256 . S
C688 O677 1.278 . S
C688 O683 1.241 . S
C689 O679 1.244 . S
C689 O684 1.256 . S
C690 O681 1.239 . S
C690 O682 1.256 . S
O691 Mn673 2.221 . S
O691 Mn675 2.290 . S
O691 C685 1.278 . S
O692 Mn675 2.251 1_545 S
O692 C685 1.241 1_545 S
O693 Mn694 2.163 . S
O693 C707 1.244 . S
Mn694 O693 2.163 . S
Mn694 O697 2.160 1_455 S
Mn694 O698 2.221 . S
Mn694 O700 2.163 . S
Mn694 O702 2.160 . S
Mn694 O712 2.221 . S
O695 Mn696 2.087 . S
O695 C707 1.256 . S
Mn696 O695 2.087 . S
Mn696 O703 2.089 . S
Mn696 O712 2.290 . S
Mn696 O713 2.251 1_455 S
O697 Mn694 2.160 1_655 S
O697 C708 1.239 . S
O698 Mn694 2.221 . S
O698 Mn699 2.290 . S
O698 C709 1.278 . S
Mn699 O698 2.290 . S
Mn699 O701 2.089 1_455 S
Mn699 O704 2.251 . S
Mn699 O705 2.087 . S
O700 Mn694 2.163 . S
O700 C710 1.244 . S
O701 Mn699 2.089 1_655 S
O701 C708 1.256 . S
O702 Mn694 2.160 . S
O702 C711 1.239 . S
O703 Mn696 2.089 . S
O703 C711 1.256 . S
O704 Mn699 2.251 . S
O704 C709 1.241 . S
O705 Mn699 2.087 . S
O705 C710 1.256 . S
C706 O712 1.278 1_655 S
C706 O713 1.241 . S
C707 O693 1.244 . S
C707 O695 1.256 . S
C708 O697 1.239 . S
C708 O701 1.256 . S
C709 O698 1.278 . S
C709 O704 1.241 . S
C710 O700 1.244 . S
C710 O705 1.256 . S
C711 O702 1.239 . S
C711 O703 1.256 . S
O712 Mn694 2.221 . S
O712 Mn696 2.290 . S
O712 C706 1.278 1_455 S
O713 Mn696 2.251 1_655 S
O713 C706 1.241 . S
O714 Mn715 2.163 . S
O714 C728 1.244 . S
Mn715 O714 2.163 . S
Mn715 O718 2.160 . S
Mn715 O719 2.221 . S
Mn715 O721 2.163 . S
Mn715 O723 2.160 . S
Mn715 O733 2.221 . S
O716 Mn717 2.087 . S
O716 C728 1.256 . S
Mn717 O716 2.087 . S
Mn717 O724 2.089 . S
Mn717 O733 2.290 . S
Mn717 O734 2.251 . S
O718 Mn715 2.160 . S
O718 C729 1.239 . S
O719 Mn715 2.221 . S
O719 Mn720 2.290 . S
O719 C730 1.278 . S
Mn720 O719 2.290 . S
Mn720 O722 2.089 . S
Mn720 O725 2.251 . S
Mn720 O726 2.087 . S
O721 Mn715 2.163 . S
O721 C731 1.244 . S
O722 Mn720 2.089 . S
O722 C729 1.256 . S
O723 Mn715 2.160 . S
O723 C732 1.239 . S
O724 Mn717 2.089 . S
O724 C732 1.256 . S
O725 Mn720 2.251 . S
O725 C730 1.241 . S
O726 Mn720 2.087 . S
O726 C731 1.256 . S
C727 O733 1.278 . S
C727 O734 1.241 . S
C728 O714 1.244 . S
C728 O716 1.256 . S
C729 O718 1.239 . S
C729 O722 1.256 . S
C730 O719 1.278 . S
C730 O725 1.241 . S
C731 O721 1.244 . S
C731 O726 1.256 . S
C732 O723 1.239 . S
C732 O724 1.256 . S
O733 Mn715 2.221 . S
O733 Mn717 2.290 . S
O733 C727 1.278 . S
O734 Mn717 2.251 . S
O734 C727 1.241 . S
O735 Mn736 2.163 . S
O735 C749 1.244 . S
Mn736 O735 2.163 . S
Mn736 O739 2.160 1_565 S
Mn736 O740 2.221 . S
Mn736 O742 2.163 . S
Mn736 O744 2.160 . S
Mn736 O754 2.221 . S
O737 Mn738 2.087 . S
O737 C749 1.256 . S
Mn738 O737 2.087 . S
Mn738 O745 2.089 . S
Mn738 O754 2.290 . S
Mn738 O755 2.251 1_565 S
O739 Mn736 2.160 1_545 S
O739 C750 1.239 . S
O740 Mn736 2.221 . S
O740 Mn741 2.290 . S
O740 C751 1.278 . S
Mn741 O740 2.290 . S
Mn741 O743 2.089 1_565 S
Mn741 O746 2.251 . S
Mn741 O747 2.087 . S
O742 Mn736 2.163 . S
O742 C752 1.244 . S
O743 Mn741 2.089 1_545 S
O743 C750 1.256 . S
O744 Mn736 2.160 . S
O744 C753 1.239 . S
O745 Mn738 2.089 . S
O745 C753 1.256 . S
O746 Mn741 2.251 . S
O746 C751 1.241 . S
O747 Mn741 2.087 . S
O747 C752 1.256 . S
C748 O754 1.278 1_545 S
C748 O755 1.241 . S
C749 O735 1.244 . S
C749 O737 1.256 . S
C750 O739 1.239 . S
C750 O743 1.256 . S
C751 O740 1.278 . S
C751 O746 1.241 . S
C752 O742 1.244 . S
C752 O747 1.256 . S
C753 O744 1.239 . S
C753 O745 1.256 . S
O754 Mn736 2.221 . S
O754 Mn738 2.290 . S
O754 C748 1.278 1_565 S
O755 Mn738 2.251 1_545 S
O755 C748 1.241 . S
C14 C58 1.910 . S
C16 C35 1.910 . S
C56 C37 1.911 . S
C77 C100 1.910 . S
C121 C98 1.910 . S
C119 C79 1.910 . S
C140 C184 1.910 . S
C161 C142 1.910 . S
C182 C163 1.911 . S
C203 C226 1.910 . S
C247 C224 1.910 . S
C205 C245 1.910 . S
C310 C266 1.910 . S
C287 C268 1.910 . S
C289 C308 1.910 . S
C329 C352 1.910 . S
C373 C350 1.910 . S
C331 C371 1.910 . S
C392 C436 1.910 . S
C413 C394 1.910 . S
C415 C434 1.910 . S
C478 C455 1.910 1_556 S
C476 C499 1.910 1_554 S
C457 C497 1.910 1_556 S
C518 C562 1.910 . S
C539 C520 1.910 . S
C560 C541 1.910 . S
C581 C604 1.910 1_556 S
C602 C625 1.910 1_556 S
C623 C583 1.910 1_556 S
C644 C688 1.910 . S
C665 C646 1.910 . S
C667 C686 1.910 . S
C707 C730 1.910 . S
C728 C751 1.910 . S
C709 C749 1.910 . S
C13 C435 0.621 . S
C393 C34 0.621 . S
C55 C414 0.621 . S
C76 C729 0.621 . S
C750 C97 0.621 . S
C118 C708 0.621 . S
C561 C139 0.621 . S
C160 C519 0.621 . S
C181 C540 0.621 . S
C351 C202 0.621 . S
C372 C223 0.621 . S
C330 C244 0.621 . S
C265 C687 0.621 . S
C286 C645 0.621 . S
C666 C307 0.621 . S
C225 C328 0.621 . S
C246 C349 0.621 . S
C204 C370 0.621 . S
C57 C391 0.621 . S
C412 C15 0.621 . S
C433 C36 0.621 . S
C603 C454 0.620 . S
C624 C475 0.620 . S
C496 C582 0.620 . S
C183 C517 0.621 . S
C141 C538 0.621 . S
C162 C559 0.621 . S
C580 C477 0.620 . S
C498 C601 0.620 . S
C622 C456 0.620 . S
C643 C309 0.621 . S
C664 C267 0.621 . S
C685 C288 0.621 . S
C706 C99 0.621 . S
C120 C727 0.621 . S
C78 C748 0.621 . S
C626 C17 1.904 . S
C584 C38 1.904 . S
C59 C605 1.904 . S
C290 C80 1.905 . S
C101 C311 1.905 . S
C122 C269 1.904 . S
C143 C500 1.904 . S
C164 C458 1.904 . S
C185 C479 1.904 . S
C668 C206 1.905 . S
C689 C227 1.905 . S
C647 C248 1.904 . S
C332 C542 1.904 1_655 S
C353 C563 1.904 . S
C374 C521 1.905 1_545 S
C395 C752 1.905 1_545 S
C710 C416 1.904 1_455 S
C437 C731 1.904 . S
C102 C18 2.669 1_655 S
C123 C39 2.669 . S
C81 C60 2.669 1_545 S
C144 C228 2.669 1_655 S
C249 C165 2.669 . S
C186 C207 2.669 1_545 S
C354 C270 2.669 . S
C375 C291 2.669 . S
C333 C312 2.670 . S
C480 C396 2.670 . S
C417 C501 2.670 . S
C438 C459 2.670 . S
C522 C606 2.670 . S
C627 C543 2.670 . S
C564 C585 2.670 . S
C648 C732 2.669 . S
C753 C669 2.669 . S
C690 C711 2.670 . S
