# Generated by pormake.
# Topology rac, (4)-cn, num edge types: 1
# Building blocks:
#     Node 0, Type 0, BuildingBlock: QUQFOY_clean_sbu_1, # of connection points: 4
#     Node 1, Type 0, BuildingBlock: QUQFOY_clean_sbu_1, # of connection points: 4
#     Node 2, Type 0, BuildingBlock: QUQFOY_clean_sbu_1, # of connection points: 4
#     Node 3, Type 0, BuildingBlock: QUQFOY_clean_sbu_1, # of connection points: 4
#     Node 4, Type 0, BuildingBlock: QUQFOY_clean_sbu_1, # of connection points: 4
#     Node 5, Type 0, BuildingBlock: QUQFOY_clean_sbu_1, # of connection points: 4
#     Node 6, Type 0, BuildingBlock: QUQFOY_clean_sbu_1, # of connection points: 4
#     Node 7, Type 0, BuildingBlock: QUQFOY_clean_sbu_1, # of connection points: 4
#     Edge 8, Type (0, 0), BuildingBlock: AJUNOK_clean_linker_0, # of connection points: 2
#     Edge 9, Type (0, 0), BuildingBlock: AJUNOK_clean_linker_0, # of connection points: 2
#     Edge 10, Type (0, 0), BuildingBlock: AJUNOK_clean_linker_0, # of connection points: 2
#     Edge 11, Type (0, 0), BuildingBlock: AJUNOK_clean_linker_0, # of connection points: 2
#     Edge 12, Type (0, 0), BuildingBlock: AJUNOK_clean_linker_0, # of connection points: 2
#     Edge 13, Type (0, 0), BuildingBlock: AJUNOK_clean_linker_0, # of connection points: 2
#     Edge 14, Type (0, 0), BuildingBlock: AJUNOK_clean_linker_0, # of connection points: 2
#     Edge 15, Type (0, 0), BuildingBlock: AJUNOK_clean_linker_0, # of connection points: 2
#     Edge 16, Type (0, 0), BuildingBlock: AJUNOK_clean_linker_0, # of connection points: 2
#     Edge 17, Type (0, 0), BuildingBlock: AJUNOK_clean_linker_0, # of connection points: 2
#     Edge 18, Type (0, 0), BuildingBlock: AJUNOK_clean_linker_0, # of connection points: 2
#     Edge 19, Type (0, 0), BuildingBlock: AJUNOK_clean_linker_0, # of connection points: 2
#     Edge 20, Type (0, 0), BuildingBlock: AJUNOK_clean_linker_0, # of connection points: 2
#     Edge 21, Type (0, 0), BuildingBlock: AJUNOK_clean_linker_0, # of connection points: 2
#     Edge 22, Type (0, 0), BuildingBlock: AJUNOK_clean_linker_0, # of connection points: 2
#     Edge 23, Type (0, 0), BuildingBlock: AJUNOK_clean_linker_0, # of connection points: 2
# Relax obj value: 0.256
# Max RMSD: 0.153
# Mean RMSD: 0.153
data_MOF--net-rac--node1-QUQFOY_clean_sbu_1--edge1-AJUNOK_clean_linker_0
_symmetry_space_group_name_H-M    P1
_symmetry_Int_Tables_number       1
_symmetry_cell_setting            triclinic
loop_
_symmetry_equiv_pos_as_xyz
'x, y, z'
_cell_length_a     28.437025
_cell_length_b     15.889294
_cell_length_c     35.503482
_cell_angle_alpha  90.176971
_cell_angle_beta   90.154768
_cell_angle_gamma 90.008549
loop_
_atom_site_label
_atom_site_type_symbol
_atom_site_fract_x
_atom_site_fract_y
_atom_site_fract_z
_atom_type_partial_charge
O0 O 0.39892 0.30393 0.03422 0.0
Cd1 Cd 0.45409 0.22571 0.03335 0.0
Cd2 Cd 0.44317 0.24086 0.10972 0.0
O3 O 0.42452 0.35545 0.08796 0.0
O4 O 0.498 0.27522 0.99547 0.0
O5 O 0.50951 0.28226 0.05732 0.0
C6 C 0.52006 0.3088 0.02386 0.0
C7 C 0.45272 0.25112 0.17588 0.0
C8 C 0.39839 0.36091 0.05906 0.0
C9 C 0.39964 0.09122 0.06455 0.0
O10 O 0.40184 0.14025 0.09292 0.0
O11 O 0.42668 0.1038 0.0364 0.0
O12 O 0.41288 0.25981 0.15945 0.0
O13 O 0.48832 0.23379 0.15484 0.0
O14 O 0.24191 0.64783 0.03444 0.0
Cd15 Cd 0.18566 0.72346 0.03282 0.0
Cd16 Cd 0.19708 0.71304 0.10971 0.0
O17 O 0.21993 0.59928 0.08962 0.0
O18 O 0.14269 0.67102 0.99471 0.0
O19 O 0.13068 0.66549 0.05645 0.0
C20 C 0.12057 0.63785 0.02296 0.0
C21 C 0.18987 0.71256 0.17615 0.0
C22 C 0.2449 0.59337 0.06016 0.0
C23 C 0.23708 0.8632 0.06309 0.0
O24 O 0.23527 0.81586 0.09185 0.0
O25 O 0.21114 0.84692 0.03453 0.0
O26 O 0.22935 0.70488 0.15927 0.0
O27 O 0.15287 0.7194 0.15537 0.0
O28 O 0.39943 0.12562 0.4704 0.0
Cd29 Cd 0.45183 0.20511 0.48246 0.0
Cd30 Cd 0.44362 0.22046 0.40417 0.0
O31 O 0.42508 0.09762 0.41336 0.0
O32 O 0.48387 0.14695 0.52545 0.0
O33 O 0.51363 0.15359 0.46786 0.0
C34 C 0.51437 0.1201 0.50116 0.0
C35 C 0.45392 0.2461 0.33909 0.0
C36 C 0.39978 0.07919 0.44147 0.0
C37 C 0.39456 0.34423 0.46142 0.0
O38 O 0.4001 0.30856 0.42956 0.0
O39 O 0.42102 0.32359 0.48906 0.0
O40 O 0.41372 0.23054 0.35362 0.0
O41 O 0.48971 0.24754 0.3614 0.0
O42 O 0.24958 0.78918 0.47514 0.0
Cd43 Cd 0.1902 0.726 0.4854 0.0
Cd44 Cd 0.19666 0.70419 0.40653 0.0
O45 O 0.22662 0.81885 0.41766 0.0
O46 O 0.15833 0.79137 0.52643 0.0
O47 O 0.13311 0.78875 0.4673 0.0
C48 C 0.13095 0.82208 0.50066 0.0
C49 C 0.18989 0.69627 0.34009 0.0
C50 C 0.25428 0.83074 0.44515 0.0
C51 C 0.23174 0.56814 0.46408 0.0
O52 O 0.22919 0.60143 0.43152 0.0
O53 O 0.20991 0.60099 0.49188 0.0
O54 O 0.22937 0.6933 0.35739 0.0
O55 O 0.15254 0.69761 0.36054 0.0
O56 O 0.74375 0.64106 0.9733 0.0
Cd57 Cd 0.68757 0.71272 0.98399 0.0
Cd58 Cd 0.69683 0.72924 0.90695 0.0
O59 O 0.71993 0.609 0.91629 0.0
O60 O 0.65556 0.65096 0.0258 0.0
O61 O 0.62814 0.65528 0.9673 0.0
C62 C 0.62671 0.62192 1.0006 0.0
C63 C 0.68639 0.74844 0.84119 0.0
C64 C 0.74709 0.59629 0.94403 0.0
C65 C 0.74246 0.85461 0.965 0.0
O66 O 0.73877 0.81966 0.93278 0.0
O67 O 0.7146 0.83355 0.99155 0.0
O68 O 0.72683 0.73967 0.85659 0.0
O69 O 0.65052 0.7495 0.86325 0.0
O70 O 0.89802 0.30983 0.97083 0.0
Cd71 Cd 0.95236 0.23459 0.98176 0.0
Cd72 Cd 0.93717 0.19486 0.90338 0.0
O73 O 0.90449 0.30899 0.9089 0.0
O74 O 0.98377 0.29758 0.02395 0.0
O75 O 1.01322 0.28931 0.96643 0.0
C76 C 1.01376 0.32451 0.99942 0.0
C77 C 0.95203 0.17121 0.83871 0.0
C78 C 0.88785 0.33977 0.93896 0.0
C79 C 0.90436 0.07382 0.96723 0.0
O80 O 0.90646 0.0968 0.93293 0.0
O81 O 0.92591 0.11487 0.99303 0.0
O82 O 0.91071 0.16704 0.85292 0.0
O83 O 0.98649 0.18456 0.86163 0.0
O84 O 0.74304 0.79171 0.53501 0.0
Cd85 Cd 0.68555 0.7194 0.53525 0.0
Cd86 Cd 0.69915 0.72563 0.61134 0.0
O87 O 0.7254 0.83732 0.59176 0.0
O88 O 0.64235 0.77237 0.49758 0.0
O89 O 0.6321 0.78132 0.55946 0.0
C90 C 0.6214 0.80775 0.52596 0.0
C91 C 0.68791 0.73371 0.6774 0.0
C92 C 0.74881 0.84373 0.56153 0.0
C93 C 0.73618 0.57551 0.56386 0.0
O94 O 0.73572 0.62004 0.59372 0.0
O95 O 0.70966 0.5952 0.5361 0.0
O96 O 0.72861 0.73538 0.66204 0.0
O97 O 0.65223 0.72499 0.65528 0.0
O98 O 0.90133 0.13403 0.53354 0.0
Cd99 Cd 0.95555 0.21432 0.53302 0.0
Cd100 Cd 0.94365 0.20207 0.60927 0.0
O101 O 0.92734 0.0859 0.58756 0.0
O102 O 1.00015 0.16613 0.49518 0.0
O103 O 1.0116 0.16026 0.55704 0.0
C104 C 1.02255 0.13377 0.52358 0.0
C105 C 0.95398 0.19193 0.67532 0.0
C106 C 0.90155 0.07787 0.55859 0.0
C107 C 0.89864 0.34787 0.5632 0.0
O108 O 0.90089 0.30083 0.59215 0.0
O109 O 0.92663 0.33503 0.53563 0.0
O110 O 0.91402 0.18181 0.65914 0.0
O111 O 0.98911 0.21088 0.6541 0.0
C112 C 0.33999 0.00026 0.02949 0.0
C113 C 0.36014 0.02854 0.06367 0.0
C114 C 0.29848 0.95087 0.02894 0.0
C115 C 0.27536 0.9281 0.06255 0.0
H116 H 0.35591 0.01751 1.00293 0.0
H117 H 0.28516 0.9286 1.0021 0.0
S118 S 0.31324 -0.01362 0.15956 0.0
N119 N 0.35338 0.02858 0.13202 0.0
N120 N 0.27567 0.93967 0.13089 0.0
C121 C 0.295 0.95697 0.09675 0.0
C122 C 0.3372 0.0058 0.09734 0.0
C123 C 0.27766 0.44885 0.43785 0.0
C124 C 0.26772 0.50058 0.46895 0.0
C125 C 0.31847 0.39987 0.43625 0.0
C126 C 0.35197 0.39939 0.46574 0.0
H127 H 0.25448 0.44877 0.41355 0.0
H128 H 0.32378 0.3626 0.41102 0.0
S129 S 0.34171 0.52047 0.55491 0.0
N130 N 0.29398 0.54651 0.53095 0.0
N131 N 0.37064 0.45249 0.52831 0.0
C132 C 0.34161 0.44799 0.49796 0.0
C133 C 0.2996 0.49873 0.49951 0.0
C134 C 0.78707 -0.02206 0.99436 0.0
C135 C 0.78628 0.90444 0.97212 0.0
C136 C 0.82781 0.02913 0.99619 0.0
C137 C 0.86911 0.00792 0.97622 0.0
H138 H 0.75541 -0.00147 1.00855 0.0
H139 H 0.82582 0.08869 0.01104 0.0
S140 S 0.88802 0.81458 0.91989 0.0
N141 N 0.83308 0.80729 0.93439 0.0
N142 N 0.90808 0.90413 0.93729 0.0
C143 C 0.86967 0.93163 0.95644 0.0
C144 C 0.82873 0.87973 0.9546 0.0
C145 C 0.79293 0.47718 0.59451 0.0
C146 C 0.77398 0.5102 0.56098 0.0
C147 C 0.83386 0.42809 0.59465 0.0
C148 C 0.8585 0.40911 0.56126 0.0
H149 H 0.7764 0.49074 0.62132 0.0
H150 H 0.84624 0.40468 0.62153 0.0
S151 S 0.82388 0.47914 0.46538 0.0
N152 N 0.78322 0.52018 0.49308 0.0
N153 N 0.86 0.42651 0.49322 0.0
C154 C 0.83989 0.44095 0.52727 0.0
C155 C 0.7977 0.49127 0.52714 0.0
C156 C 0.49498 0.22711 0.23753 0.0
C157 C 0.45621 0.2596 0.21748 0.0
C158 C 0.49568 0.22706 0.27723 0.0
C159 C 0.45757 0.25921 0.29798 0.0
H160 H 0.52407 0.19862 0.22256 0.0
H161 H 0.52506 0.19798 0.29167 0.0
S162 S 0.35148 0.36394 0.25922 0.0
N163 N 0.38155 0.33423 0.2218 0.0
N164 N 0.38285 0.333 0.29579 0.0
C165 C 0.42013 0.29639 0.27827 0.0
C166 C 0.41945 0.29689 0.23818 0.0
C167 C 0.14797 0.68434 0.27743 0.0
C168 C 0.18881 0.70313 0.29838 0.0
C169 C 0.14778 0.68936 0.23778 0.0
C170 C 0.18839 0.71347 0.21791 0.0
H171 H 0.11628 0.6642 0.29166 0.0
H172 H 0.11605 0.67236 0.22261 0.0
S173 S 0.3023 0.78046 0.25981 0.0
N174 N 0.26949 0.75445 0.29618 0.0
N175 N 0.26898 0.76391 0.22244 0.0
C176 C 0.22872 0.7356 0.23871 0.0
C177 C 0.22898 0.73041 0.27873 0.0
C178 C 0.7243 0.76654 0.77891 0.0
C179 C 0.68288 0.75275 0.79952 0.0
C180 C 0.72482 0.76157 0.73969 0.0
C181 C 0.68392 0.74254 0.71896 0.0
H182 H 0.75721 0.77984 0.79319 0.0
H183 H 0.75809 0.77174 0.72563 0.0
S184 S 0.56528 0.70581 0.75903 0.0
N185 N 0.59907 0.72287 0.79623 0.0
N186 N 0.59997 0.71379 0.72194 0.0
C187 C 0.64165 0.7315 0.73895 0.0
C188 C 0.64114 0.73663 0.77931 0.0
C189 C 0.91933 0.14656 0.73615 0.0
C190 C 0.95789 0.18083 0.71675 0.0
C191 C 0.91922 0.13988 0.77533 0.0
C192 C 0.95764 0.16723 0.79717 0.0
H193 H 0.88822 0.12587 0.72106 0.0
H194 H 0.88794 0.115 0.78863 0.0
S195 S 1.06914 0.25572 0.76027 0.0
N196 N 1.03707 0.23762 0.72221 0.0
N197 N 1.03676 0.2255 0.79637 0.0
C198 C 0.99751 0.19812 0.77823 0.0
C199 C 0.99764 0.20489 0.73794 0.0
C200 C 0.55361 0.42335 0.98281 0.0
C201 C 0.55043 0.38521 0.01855 0.0
C202 C 0.57666 0.50095 0.97764 0.0
C203 C 0.59787 0.54449 1.00792 0.0
H204 H 0.53743 0.39379 0.9585 0.0
H205 H 0.57835 0.52636 0.9494 0.0
S206 S 0.59979 0.47282 0.10748 0.0
N207 N 0.57071 0.39808 0.08494 0.0
N208 N 0.61407 0.54282 0.07521 0.0
C209 C 0.59514 0.50706 0.04384 0.0
C210 C 0.57155 0.42798 0.04913 0.0
C211 C 0.08872 0.52064 0.9821 0.0
C212 C 0.09037 0.56116 0.01751 0.0
C213 C 1.0656 0.443 0.97697 0.0
C214 C 1.04274 0.40184 1.00692 0.0
H215 H 0.10616 0.54834 0.95807 0.0
H216 H 1.06513 0.4157 0.94897 0.0
S217 S 1.0362 0.48059 0.10549 0.0
N218 N 1.06679 0.55327 0.08321 0.0
N219 N 1.02321 0.4085 0.07353 0.0
C220 C 1.04392 0.44171 0.0425 0.0
C221 C 1.06762 0.5208 0.04776 0.0
C222 C 0.58931 0.92347 0.48471 0.0
C223 C 0.59162 0.88489 0.52041 0.0
C224 C 0.56617 0.0009 0.47923 0.0
C225 C 0.54392 0.04378 0.50911 0.0
H226 H 0.60612 0.89428 0.46066 0.0
H227 H 0.56506 0.02647 0.451 0.0
S228 S 0.5397 -0.02903 0.60845 0.0
N229 N 0.56969 0.89686 0.58639 0.0
N230 N 0.52601 0.04119 0.57605 0.0
C231 C 0.54595 0.00607 0.54502 0.0
C232 C 0.56972 0.92721 0.55065 0.0
C233 C 1.0574 0.01988 0.48255 0.0
C234 C 1.05378 0.0584 0.51829 0.0
C235 C 0.08102 0.94273 0.47744 0.0
C236 C 0.10235 0.90002 0.50777 0.0
H237 H 1.04103 0.04864 0.45821 0.0
H238 H 0.08284 0.91681 0.44922 0.0
S239 S 0.10374 -0.02644 0.60729 0.0
N240 N 0.07416 0.04721 0.58468 0.0
N241 N 0.11853 0.90331 0.57508 0.0
C242 C 0.09937 0.93807 0.54366 0.0
C243 C 0.07524 0.01671 0.54888 0.0
C244 C 0.30364 0.50577 0.09254 0.0
C245 C 0.28259 0.53156 0.05871 0.0
C246 C 0.34278 0.45348 0.0922 0.0
C247 C 0.36153 0.42435 0.05804 0.0
H248 H 0.29045 0.52744 0.11948 0.0
H249 H 0.35758 0.43398 0.11896 0.0
S250 S 0.31909 0.47396 0.96185 0.0
N251 N 0.28312 0.52533 0.9902 0.0
N252 N 0.35683 0.42497 0.9896 0.0
C253 C 0.34086 0.44957 0.02398 0.0
C254 C 0.30126 0.50376 0.0243 0.0
C255 C 0.35252 -0.02626 0.47447 0.0
C256 C 0.3673 0.00839 0.44021 0.0
C257 C 0.31595 0.91613 0.47556 0.0
C258 C 0.29282 0.89118 0.44239 0.0
H259 H 0.36852 -0.00705 0.50089 0.0
H260 H 0.30522 0.89241 0.5028 0.0
S261 S 0.32117 0.95835 0.345 0.0
N262 N 0.35844 0.01077 0.37202 0.0
N263 N 0.28929 0.90059 0.3739 0.0
C264 C 0.30847 0.92269 0.40763 0.0
C265 C 0.34607 -0.01845 0.40655 0.0
C266 C 0.78435 0.47326 0.91267 0.0
C267 C 0.78477 0.53393 0.94159 0.0
C268 C 0.81953 0.41218 0.91063 0.0
C269 C 0.85562 0.41036 0.93756 0.0
H270 H 0.75623 0.47169 0.89205 0.0
H271 H 0.81738 0.36421 0.88892 0.0
S272 S 0.87672 0.56174 0.01529 0.0
N273 N 0.82747 0.59354 0.99522 0.0
N274 N 0.89307 0.47767 0.99133 0.0
C275 C 0.85783 0.47278 0.96539 0.0
C276 C 0.8224 0.53495 0.96746 0.0
C277 C 0.80937 0.92944 0.59304 0.0
C278 C 0.78715 0.90424 0.55953 0.0
C279 C 0.84823 -0.01769 0.59221 0.0
C280 C 0.86559 0.01267 0.55786 0.0
H281 H 0.79709 0.90737 0.62014 0.0
H282 H 0.86372 0.00163 0.61879 0.0
S283 S 0.82043 0.96353 0.46226 0.0
N284 N 0.78557 0.91128 0.49105 0.0
N285 N 0.85883 0.01262 0.48952 0.0
C286 C 0.84409 -0.01272 0.52408 0.0
C287 C 0.80472 0.93253 0.5249 0.0
loop_
_geom_bond_atom_site_label_1
_geom_bond_atom_site_label_2
_geom_bond_distance
_geom_bond_site_symmetry_2
_ccdc_geom_bond_type
O0 Cd1 2.223 . S
O0 C8 1.315 . S
Cd1 O0 2.223 . S
Cd1 O4 2.297 1_554 S
Cd1 O5 2.439 . S
Cd1 O11 2.240 . S
Cd2 O3 2.240 . S
Cd2 O10 2.223 . S
Cd2 O12 2.297 . S
Cd2 O13 2.439 . S
O3 Cd2 2.240 . S
O3 C8 1.279 . S
O4 Cd1 2.297 1_556 S
O4 C6 1.247 1_556 S
O5 Cd1 2.439 . S
O5 C6 1.208 . S
C6 O4 1.247 1_554 S
C6 O5 1.208 . S
C7 O12 1.247 . S
C7 O13 1.208 . S
C8 O0 1.315 . S
C8 O3 1.279 . S
C9 O10 1.315 . S
C9 O11 1.279 . S
O10 Cd2 2.223 . S
O10 C9 1.315 . S
O11 Cd1 2.240 . S
O11 C9 1.279 . S
O12 Cd2 2.297 . S
O12 C7 1.247 . S
O13 Cd2 2.439 . S
O13 C7 1.208 . S
O14 Cd15 2.223 . S
O14 C22 1.315 . S
Cd15 O14 2.223 . S
Cd15 O18 2.297 1_554 S
Cd15 O19 2.439 . S
Cd15 O25 2.240 . S
Cd16 O17 2.240 . S
Cd16 O24 2.223 . S
Cd16 O26 2.297 . S
Cd16 O27 2.439 . S
O17 Cd16 2.240 . S
O17 C22 1.279 . S
O18 Cd15 2.297 1_556 S
O18 C20 1.247 1_556 S
O19 Cd15 2.439 . S
O19 C20 1.208 . S
C20 O18 1.247 1_554 S
C20 O19 1.208 . S
C21 O26 1.247 . S
C21 O27 1.208 . S
C22 O14 1.315 . S
C22 O17 1.279 . S
C23 O24 1.315 . S
C23 O25 1.279 . S
O24 Cd16 2.223 . S
O24 C23 1.315 . S
O25 Cd15 2.240 . S
O25 C23 1.279 . S
O26 Cd16 2.297 . S
O26 C21 1.247 . S
O27 Cd16 2.439 . S
O27 C21 1.208 . S
O28 Cd29 2.223 . S
O28 C36 1.315 . S
Cd29 O28 2.223 . S
Cd29 O32 2.297 . S
Cd29 O33 2.439 . S
Cd29 O39 2.240 . S
Cd30 O31 2.240 . S
Cd30 O38 2.223 . S
Cd30 O40 2.297 . S
Cd30 O41 2.439 . S
O31 Cd30 2.240 . S
O31 C36 1.279 . S
O32 Cd29 2.297 . S
O32 C34 1.247 . S
O33 Cd29 2.439 . S
O33 C34 1.208 . S
C34 O32 1.247 . S
C34 O33 1.208 . S
C35 O40 1.247 . S
C35 O41 1.208 . S
C36 O28 1.315 . S
C36 O31 1.279 . S
C37 O38 1.315 . S
C37 O39 1.279 . S
O38 Cd30 2.223 . S
O38 C37 1.315 . S
O39 Cd29 2.240 . S
O39 C37 1.279 . S
O40 Cd30 2.297 . S
O40 C35 1.247 . S
O41 Cd30 2.439 . S
O41 C35 1.208 . S
O42 Cd43 2.223 . S
O42 C50 1.315 . S
Cd43 O42 2.223 . S
Cd43 O46 2.297 . S
Cd43 O47 2.439 . S
Cd43 O53 2.240 . S
Cd44 O45 2.240 . S
Cd44 O52 2.223 . S
Cd44 O54 2.297 . S
Cd44 O55 2.439 . S
O45 Cd44 2.240 . S
O45 C50 1.279 . S
O46 Cd43 2.297 . S
O46 C48 1.247 . S
O47 Cd43 2.439 . S
O47 C48 1.208 . S
C48 O46 1.247 . S
C48 O47 1.208 . S
C49 O54 1.247 . S
C49 O55 1.208 . S
C50 O42 1.315 . S
C50 O45 1.279 . S
C51 O52 1.315 . S
C51 O53 1.279 . S
O52 Cd44 2.223 . S
O52 C51 1.315 . S
O53 Cd43 2.240 . S
O53 C51 1.279 . S
O54 Cd44 2.297 . S
O54 C49 1.247 . S
O55 Cd44 2.439 . S
O55 C49 1.208 . S
O56 Cd57 2.223 . S
O56 C64 1.315 . S
Cd57 O56 2.223 . S
Cd57 O60 2.297 1_556 S
Cd57 O61 2.439 . S
Cd57 O67 2.240 . S
Cd58 O59 2.240 . S
Cd58 O66 2.223 . S
Cd58 O68 2.297 . S
Cd58 O69 2.439 . S
O59 Cd58 2.240 . S
O59 C64 1.279 . S
O60 Cd57 2.297 1_554 S
O60 C62 1.247 1_554 S
O61 Cd57 2.439 . S
O61 C62 1.208 . S
C62 O60 1.247 1_556 S
C62 O61 1.208 . S
C63 O68 1.247 . S
C63 O69 1.208 . S
C64 O56 1.315 . S
C64 O59 1.279 . S
C65 O66 1.315 . S
C65 O67 1.279 . S
O66 Cd58 2.223 . S
O66 C65 1.315 . S
O67 Cd57 2.240 . S
O67 C65 1.279 . S
O68 Cd58 2.297 . S
O68 C63 1.247 . S
O69 Cd58 2.439 . S
O69 C63 1.208 . S
O70 Cd71 2.223 . S
O70 C78 1.315 . S
Cd71 O70 2.223 . S
Cd71 O74 2.297 1_556 S
Cd71 O75 2.439 . S
Cd71 O81 2.240 . S
Cd72 O73 2.240 . S
Cd72 O80 2.223 . S
Cd72 O82 2.297 . S
Cd72 O83 2.439 . S
O73 Cd72 2.240 . S
O73 C78 1.279 . S
O74 Cd71 2.297 1_554 S
O74 C76 1.247 1_554 S
O75 Cd71 2.439 . S
O75 C76 1.208 . S
C76 O74 1.247 1_556 S
C76 O75 1.208 . S
C77 O82 1.247 . S
C77 O83 1.208 . S
C78 O70 1.315 . S
C78 O73 1.279 . S
C79 O80 1.315 . S
C79 O81 1.279 . S
O80 Cd72 2.223 . S
O80 C79 1.315 . S
O81 Cd71 2.240 . S
O81 C79 1.279 . S
O82 Cd72 2.297 . S
O82 C77 1.247 . S
O83 Cd72 2.439 . S
O83 C77 1.208 . S
O84 Cd85 2.223 . S
O84 C92 1.315 . S
Cd85 O84 2.223 . S
Cd85 O88 2.297 . S
Cd85 O89 2.439 . S
Cd85 O95 2.240 . S
Cd86 O87 2.240 . S
Cd86 O94 2.223 . S
Cd86 O96 2.297 . S
Cd86 O97 2.439 . S
O87 Cd86 2.240 . S
O87 C92 1.279 . S
O88 Cd85 2.297 . S
O88 C90 1.247 . S
O89 Cd85 2.439 . S
O89 C90 1.208 . S
C90 O88 1.247 . S
C90 O89 1.208 . S
C91 O96 1.247 . S
C91 O97 1.208 . S
C92 O84 1.315 . S
C92 O87 1.279 . S
C93 O94 1.315 . S
C93 O95 1.279 . S
O94 Cd86 2.223 . S
O94 C93 1.315 . S
O95 Cd85 2.240 . S
O95 C93 1.279 . S
O96 Cd86 2.297 . S
O96 C91 1.247 . S
O97 Cd86 2.439 . S
O97 C91 1.208 . S
O98 Cd99 2.223 . S
O98 C106 1.315 . S
Cd99 O98 2.223 . S
Cd99 O102 2.297 . S
Cd99 O103 2.439 . S
Cd99 O109 2.240 . S
Cd100 O101 2.240 . S
Cd100 O108 2.223 . S
Cd100 O110 2.297 . S
Cd100 O111 2.439 . S
O101 Cd100 2.240 . S
O101 C106 1.279 . S
O102 Cd99 2.297 . S
O102 C104 1.247 . S
O103 Cd99 2.439 . S
O103 C104 1.208 . S
C104 O102 1.247 . S
C104 O103 1.208 . S
C105 O110 1.247 . S
C105 O111 1.208 . S
C106 O98 1.315 . S
C106 O101 1.279 . S
C107 O108 1.315 . S
C107 O109 1.279 . S
O108 Cd100 2.223 . S
O108 C107 1.315 . S
O109 Cd99 2.240 . S
O109 C107 1.279 . S
O110 Cd100 2.297 . S
O110 C105 1.247 . S
O111 Cd100 2.439 . S
O111 C105 1.208 . S
C112 C113 1.369 . S
C112 C114 1.419 1_545 S
C112 H116 0.930 . S
C113 C112 1.369 . S
C113 C122 1.429 . S
C114 C112 1.419 1_565 S
C114 C115 1.363 . S
C114 H117 0.929 . S
C115 C114 1.363 . S
C115 C121 1.428 . S
H116 C112 0.930 . S
H117 C114 0.929 . S
S118 N119 1.613 1_565 S
S118 N120 1.610 . S
N119 S118 1.613 1_545 S
N119 C122 1.350 . S
N120 S118 1.610 . S
N120 C121 1.351 . S
C121 C115 1.428 . S
C121 N120 1.351 . S
C121 C122 1.434 1_565 S
C122 C113 1.429 . S
C122 N119 1.350 . S
C122 C121 1.434 1_545 S
C123 C124 1.369 . S
C123 C125 1.419 . S
C123 H127 0.930 . S
C124 C123 1.369 . S
C124 C133 1.429 . S
C125 C123 1.419 . S
C125 C126 1.363 . S
C125 H128 0.929 . S
C126 C125 1.363 . S
C126 C132 1.428 . S
H127 C123 0.930 . S
H128 C125 0.929 . S
S129 N130 1.613 . S
S129 N131 1.610 . S
N130 S129 1.613 . S
N130 C133 1.350 . S
N131 S129 1.610 . S
N131 C132 1.351 . S
C132 C126 1.428 . S
C132 N131 1.351 . S
C132 C133 1.434 . S
C133 C124 1.429 . S
C133 N130 1.350 . S
C133 C132 1.434 . S
C134 C135 1.369 1_545 S
C134 C136 1.419 . S
C134 H138 0.930 . S
C135 C134 1.369 1_565 S
C135 C144 1.429 . S
C136 C134 1.419 . S
C136 C137 1.363 . S
C136 H139 0.929 . S
C137 C136 1.363 . S
C137 C143 1.428 1_545 S
H138 C134 0.930 . S
H139 C136 0.929 . S
S140 N141 1.613 . S
S140 N142 1.610 . S
N141 S140 1.613 . S
N141 C144 1.350 . S
N142 S140 1.610 . S
N142 C143 1.351 . S
C143 C137 1.428 1_565 S
C143 N142 1.351 . S
C143 C144 1.434 . S
C144 C135 1.429 . S
C144 N141 1.350 . S
C144 C143 1.434 . S
C145 C146 1.369 . S
C145 C147 1.419 . S
C145 H149 0.930 . S
C146 C145 1.369 . S
C146 C155 1.429 . S
C147 C145 1.419 . S
C147 C148 1.363 . S
C147 H150 0.929 . S
C148 C147 1.363 . S
C148 C154 1.428 . S
H149 C145 0.930 . S
H150 C147 0.929 . S
S151 N152 1.613 . S
S151 N153 1.610 . S
N152 S151 1.613 . S
N152 C155 1.350 . S
N153 S151 1.610 . S
N153 C154 1.351 . S
C154 C148 1.428 . S
C154 N153 1.351 . S
C154 C155 1.434 . S
C155 C146 1.429 . S
C155 N152 1.350 . S
C155 C154 1.434 . S
C156 C157 1.369 . S
C156 C158 1.419 . S
C156 H160 0.930 . S
C157 C156 1.369 . S
C157 C166 1.429 . S
C158 C156 1.419 . S
C158 C159 1.363 . S
C158 H161 0.929 . S
C159 C158 1.363 . S
C159 C165 1.428 . S
H160 C156 0.930 . S
H161 C158 0.929 . S
S162 N163 1.613 . S
S162 N164 1.610 . S
N163 S162 1.613 . S
N163 C166 1.350 . S
N164 S162 1.610 . S
N164 C165 1.351 . S
C165 C159 1.428 . S
C165 N164 1.351 . S
C165 C166 1.434 . S
C166 C157 1.429 . S
C166 N163 1.350 . S
C166 C165 1.434 . S
C167 C168 1.369 . S
C167 C169 1.419 . S
C167 H171 0.930 . S
C168 C167 1.369 . S
C168 C177 1.429 . S
C169 C167 1.419 . S
C169 C170 1.363 . S
C169 H172 0.929 . S
C170 C169 1.363 . S
C170 C176 1.428 . S
H171 C167 0.930 . S
H172 C169 0.929 . S
S173 N174 1.613 . S
S173 N175 1.610 . S
N174 S173 1.613 . S
N174 C177 1.350 . S
N175 S173 1.610 . S
N175 C176 1.351 . S
C176 C170 1.428 . S
C176 N175 1.351 . S
C176 C177 1.434 . S
C177 C168 1.429 . S
C177 N174 1.350 . S
C177 C176 1.434 . S
C178 C179 1.369 . S
C178 C180 1.419 . S
C178 H182 0.930 . S
C179 C178 1.369 . S
C179 C188 1.429 . S
C180 C178 1.419 . S
C180 C181 1.363 . S
C180 H183 0.929 . S
C181 C180 1.363 . S
C181 C187 1.428 . S
H182 C178 0.930 . S
H183 C180 0.929 . S
S184 N185 1.613 . S
S184 N186 1.610 . S
N185 S184 1.613 . S
N185 C188 1.350 . S
N186 S184 1.610 . S
N186 C187 1.351 . S
C187 C181 1.428 . S
C187 N186 1.351 . S
C187 C188 1.434 . S
C188 C179 1.429 . S
C188 N185 1.350 . S
C188 C187 1.434 . S
C189 C190 1.369 . S
C189 C191 1.419 . S
C189 H193 0.930 . S
C190 C189 1.369 . S
C190 C199 1.429 . S
C191 C189 1.419 . S
C191 C192 1.363 . S
C191 H194 0.929 . S
C192 C191 1.363 . S
C192 C198 1.428 . S
H193 C189 0.930 . S
H194 C191 0.929 . S
S195 N196 1.613 1_455 S
S195 N197 1.610 1_455 S
N196 S195 1.613 1_655 S
N196 C199 1.350 . S
N197 S195 1.610 1_655 S
N197 C198 1.351 . S
C198 C192 1.428 . S
C198 N197 1.351 . S
C198 C199 1.434 . S
C199 C190 1.429 . S
C199 N196 1.350 . S
C199 C198 1.434 . S
C200 C201 1.369 1_556 S
C200 C202 1.419 . S
C200 H204 0.930 . S
C201 C200 1.369 1_554 S
C201 C210 1.429 . S
C202 C200 1.419 . S
C202 C203 1.363 . S
C202 H205 0.929 . S
C203 C202 1.363 . S
C203 C209 1.428 1_556 S
H204 C200 0.930 . S
H205 C202 0.929 . S
S206 N207 1.613 . S
S206 N208 1.610 . S
N207 S206 1.613 . S
N207 C210 1.350 . S
N208 S206 1.610 . S
N208 C209 1.351 . S
C209 C203 1.428 1_554 S
C209 N208 1.351 . S
C209 C210 1.434 . S
C210 C201 1.429 . S
C210 N207 1.350 . S
C210 C209 1.434 . S
C211 C212 1.369 1_556 S
C211 C213 1.419 1_455 S
C211 H215 0.931 . S
C212 C211 1.369 1_554 S
C212 C221 1.429 . S
C213 C211 1.419 1_655 S
C213 C214 1.363 . S
C213 H216 0.929 . S
C214 C213 1.363 . S
C214 C220 1.428 1_656 S
H215 C211 0.931 . S
H216 C213 0.929 . S
S217 N218 1.613 . S
S217 N219 1.610 . S
N218 S217 1.613 . S
N218 C221 1.350 . S
N219 S217 1.610 . S
N219 C220 1.351 . S
C220 C214 1.428 1_454 S
C220 N219 1.351 . S
C220 C221 1.434 . S
C221 C212 1.429 . S
C221 N218 1.350 . S
C221 C220 1.434 . S
C222 C223 1.369 . S
C222 C224 1.419 1_565 S
C222 H226 0.930 . S
C223 C222 1.369 . S
C223 C232 1.429 . S
C224 C222 1.419 1_545 S
C224 C225 1.363 . S
C224 H227 0.929 . S
C225 C224 1.363 . S
C225 C231 1.428 . S
H226 C222 0.930 . S
H227 C224 0.929 . S
S228 N229 1.613 . S
S228 N230 1.610 1_565 S
N229 S228 1.613 . S
N229 C232 1.350 . S
N230 S228 1.610 1_545 S
N230 C231 1.351 . S
C231 C225 1.428 . S
C231 N230 1.351 . S
C231 C232 1.434 1_545 S
C232 C223 1.429 . S
C232 N229 1.350 . S
C232 C231 1.434 1_565 S
C233 C234 1.369 1_455 S
C233 C235 1.419 . S
C233 H237 0.930 . S
C234 C233 1.369 1_655 S
C234 C243 1.429 1_545 S
C235 C233 1.419 . S
C235 C236 1.363 1_545 S
C235 H238 0.929 . S
C236 C235 1.363 1_565 S
C236 C242 1.428 1_455 S
H237 C233 0.930 . S
H238 C235 0.929 . S
S239 N240 1.613 . S
S239 N241 1.610 . S
N240 S239 1.613 . S
N240 C243 1.350 . S
N241 S239 1.610 . S
N241 C242 1.351 . S
C242 C236 1.428 1_655 S
C242 N241 1.351 . S
C242 C243 1.434 . S
C243 C234 1.429 1_565 S
C243 N240 1.350 . S
C243 C242 1.434 . S
C244 C245 1.369 . S
C244 C246 1.419 . S
C244 H248 0.930 . S
C245 C244 1.369 . S
C245 C254 1.429 . S
C246 C244 1.419 . S
C246 C247 1.363 . S
C246 H249 0.929 . S
C247 C246 1.363 . S
C247 C253 1.428 . S
H248 C244 0.930 . S
H249 C246 0.929 . S
S250 N251 1.613 . S
S250 N252 1.610 . S
N251 S250 1.613 . S
N251 C254 1.350 1_556 S
N252 S250 1.610 . S
N252 C253 1.351 1_556 S
C253 C247 1.428 . S
C253 N252 1.351 1_554 S
C253 C254 1.434 . S
C254 C245 1.429 . S
C254 N251 1.350 1_554 S
C254 C253 1.434 . S
C255 C256 1.369 . S
C255 C257 1.419 . S
C255 H259 0.930 . S
C256 C255 1.369 . S
C256 C265 1.429 1_545 S
C257 C255 1.419 . S
C257 C258 1.363 1_545 S
C257 H260 0.929 . S
C258 C257 1.363 1_565 S
C258 C264 1.428 . S
H259 C255 0.930 . S
H260 C257 0.929 . S
S261 N262 1.613 . S
S261 N263 1.610 . S
N262 S261 1.613 . S
N262 C265 1.350 . S
N263 S261 1.610 . S
N263 C264 1.351 . S
C264 C258 1.428 . S
C264 N263 1.351 . S
C264 C265 1.434 . S
C265 C256 1.429 1_565 S
C265 N262 1.350 . S
C265 C264 1.434 . S
C266 C267 1.369 . S
C266 C268 1.419 . S
C266 H270 0.930 . S
C267 C266 1.369 . S
C267 C276 1.429 . S
C268 C266 1.419 . S
C268 C269 1.363 . S
C268 H271 0.929 . S
C269 C268 1.363 . S
C269 C275 1.428 . S
H270 C266 0.930 . S
H271 C268 0.929 . S
S272 N273 1.613 . S
S272 N274 1.610 . S
N273 S272 1.613 . S
N273 C276 1.350 1_554 S
N274 S272 1.610 . S
N274 C275 1.351 1_554 S
C275 C269 1.428 . S
C275 N274 1.351 1_556 S
C275 C276 1.434 . S
C276 C267 1.429 . S
C276 N273 1.350 1_556 S
C276 C275 1.434 . S
C277 C278 1.369 1_545 S
C277 C279 1.419 . S
C277 H281 0.930 . S
C278 C277 1.369 1_565 S
C278 C287 1.429 . S
C279 C277 1.419 . S
C279 C280 1.363 . S
C279 H282 0.929 . S
C280 C279 1.363 . S
C280 C286 1.428 1_545 S
H281 C277 0.930 . S
H282 C279 0.929 . S
S283 N284 1.613 . S
S283 N285 1.610 . S
N284 S283 1.613 . S
N284 C287 1.350 . S
N285 S283 1.610 . S
N285 C286 1.351 . S
C286 C280 1.428 1_565 S
C286 N285 1.351 . S
C286 C287 1.434 . S
C287 C278 1.429 . S
C287 N284 1.350 . S
C287 C286 1.434 . S
C113 C9 1.569 . S
C115 C23 1.568 . S
C124 C51 1.568 . S
C126 C37 1.573 . S
C135 C65 1.569 . S
C137 C79 1.573 . S
C146 C93 1.575 . S
C148 C107 1.575 . S
C157 C7 1.737 . S
C159 C35 1.745 . S
C168 C49 1.738 . S
C170 C21 1.745 . S
C179 C63 1.738 . S
C181 C91 1.746 . S
C190 C105 1.742 . S
C192 C77 1.747 . S
C201 C6 1.387 . S
C203 C62 1.385 . S
C212 C20 1.384 . S
C214 C76 1.387 . S
C223 C90 1.389 . S
C225 C34 1.383 . S
C234 C104 1.384 . S
C236 C48 1.387 . S
C245 C22 1.500 . S
C247 C8 1.499 . S
C256 C36 1.497 . S
C258 C50 1.500 . S
C267 C64 1.501 . S
C269 C78 1.498 . S
C278 C92 1.501 . S
C280 C106 1.497 . S
