# Generated by pormake.
# Topology utn, (3)-cn, num edge types: 1
# Building blocks:
#     Node 0, Type 0, BuildingBlock: OLANEW_clean_sbu_2, # of connection points: 3
#     Node 1, Type 0, BuildingBlock: OLANEW_clean_sbu_2, # of connection points: 3
#     Node 2, Type 0, BuildingBlock: OLANEW_clean_sbu_2, # of connection points: 3
#     Node 3, Type 0, BuildingBlock: OLANEW_clean_sbu_2, # of connection points: 3
#     Node 4, Type 0, BuildingBlock: OLANEW_clean_sbu_2, # of connection points: 3
#     Node 5, Type 0, BuildingBlock: OLANEW_clean_sbu_2, # of connection points: 3
#     Node 6, Type 0, BuildingBlock: OLANEW_clean_sbu_2, # of connection points: 3
#     Node 7, Type 0, BuildingBlock: OLANEW_clean_sbu_2, # of connection points: 3
#     Node 8, Type 0, BuildingBlock: OLANEW_clean_sbu_2, # of connection points: 3
#     Node 9, Type 0, BuildingBlock: OLANEW_clean_sbu_2, # of connection points: 3
#     Node 10, Type 0, BuildingBlock: OLANEW_clean_sbu_2, # of connection points: 3
#     Node 11, Type 0, BuildingBlock: OLANEW_clean_sbu_2, # of connection points: 3
#     Node 12, Type 0, BuildingBlock: OLANEW_clean_sbu_2, # of connection points: 3
#     Node 13, Type 0, BuildingBlock: OLANEW_clean_sbu_2, # of connection points: 3
#     Node 14, Type 0, BuildingBlock: OLANEW_clean_sbu_2, # of connection points: 3
#     Node 15, Type 0, BuildingBlock: OLANEW_clean_sbu_2, # of connection points: 3
#     Node 16, Type 0, BuildingBlock: OLANEW_clean_sbu_2, # of connection points: 3
#     Node 17, Type 0, BuildingBlock: OLANEW_clean_sbu_2, # of connection points: 3
#     Node 18, Type 0, BuildingBlock: OLANEW_clean_sbu_2, # of connection points: 3
#     Node 19, Type 0, BuildingBlock: OLANEW_clean_sbu_2, # of connection points: 3
#     Node 20, Type 0, BuildingBlock: OLANEW_clean_sbu_2, # of connection points: 3
#     Node 21, Type 0, BuildingBlock: OLANEW_clean_sbu_2, # of connection points: 3
#     Node 22, Type 0, BuildingBlock: OLANEW_clean_sbu_2, # of connection points: 3
#     Node 23, Type 0, BuildingBlock: OLANEW_clean_sbu_2, # of connection points: 3
#     Node 24, Type 0, BuildingBlock: OLANEW_clean_sbu_2, # of connection points: 3
#     Node 25, Type 0, BuildingBlock: OLANEW_clean_sbu_2, # of connection points: 3
#     Node 26, Type 0, BuildingBlock: OLANEW_clean_sbu_2, # of connection points: 3
#     Node 27, Type 0, BuildingBlock: OLANEW_clean_sbu_2, # of connection points: 3
#     Node 28, Type 0, BuildingBlock: OLANEW_clean_sbu_2, # of connection points: 3
#     Node 29, Type 0, BuildingBlock: OLANEW_clean_sbu_2, # of connection points: 3
#     Node 30, Type 0, BuildingBlock: OLANEW_clean_sbu_2, # of connection points: 3
#     Node 31, Type 0, BuildingBlock: OLANEW_clean_sbu_2, # of connection points: 3
#     Edge 32, Type (0, 0), BuildingBlock: CIFDUS_clean_linker_0, # of connection points: 2
#     Edge 33, Type (0, 0), BuildingBlock: CIFDUS_clean_linker_0, # of connection points: 2
#     Edge 34, Type (0, 0), BuildingBlock: CIFDUS_clean_linker_0, # of connection points: 2
#     Edge 35, Type (0, 0), BuildingBlock: CIFDUS_clean_linker_0, # of connection points: 2
#     Edge 36, Type (0, 0), BuildingBlock: CIFDUS_clean_linker_0, # of connection points: 2
#     Edge 37, Type (0, 0), BuildingBlock: CIFDUS_clean_linker_0, # of connection points: 2
#     Edge 38, Type (0, 0), BuildingBlock: CIFDUS_clean_linker_0, # of connection points: 2
#     Edge 39, Type (0, 0), BuildingBlock: CIFDUS_clean_linker_0, # of connection points: 2
#     Edge 40, Type (0, 0), BuildingBlock: CIFDUS_clean_linker_0, # of connection points: 2
#     Edge 41, Type (0, 0), BuildingBlock: CIFDUS_clean_linker_0, # of connection points: 2
#     Edge 42, Type (0, 0), BuildingBlock: CIFDUS_clean_linker_0, # of connection points: 2
#     Edge 43, Type (0, 0), BuildingBlock: CIFDUS_clean_linker_0, # of connection points: 2
#     Edge 44, Type (0, 0), BuildingBlock: CIFDUS_clean_linker_0, # of connection points: 2
#     Edge 45, Type (0, 0), BuildingBlock: CIFDUS_clean_linker_0, # of connection points: 2
#     Edge 46, Type (0, 0), BuildingBlock: CIFDUS_clean_linker_0, # of connection points: 2
#     Edge 47, Type (0, 0), BuildingBlock: CIFDUS_clean_linker_0, # of connection points: 2
#     Edge 48, Type (0, 0), BuildingBlock: CIFDUS_clean_linker_0, # of connection points: 2
#     Edge 49, Type (0, 0), BuildingBlock: CIFDUS_clean_linker_0, # of connection points: 2
#     Edge 50, Type (0, 0), BuildingBlock: CIFDUS_clean_linker_0, # of connection points: 2
#     Edge 51, Type (0, 0), BuildingBlock: CIFDUS_clean_linker_0, # of connection points: 2
#     Edge 52, Type (0, 0), BuildingBlock: CIFDUS_clean_linker_0, # of connection points: 2
#     Edge 53, Type (0, 0), BuildingBlock: CIFDUS_clean_linker_0, # of connection points: 2
#     Edge 54, Type (0, 0), BuildingBlock: CIFDUS_clean_linker_0, # of connection points: 2
#     Edge 55, Type (0, 0), BuildingBlock: CIFDUS_clean_linker_0, # of connection points: 2
#     Edge 56, Type (0, 0), BuildingBlock: CIFDUS_clean_linker_0, # of connection points: 2
#     Edge 57, Type (0, 0), BuildingBlock: CIFDUS_clean_linker_0, # of connection points: 2
#     Edge 58, Type (0, 0), BuildingBlock: CIFDUS_clean_linker_0, # of connection points: 2
#     Edge 59, Type (0, 0), BuildingBlock: CIFDUS_clean_linker_0, # of connection points: 2
#     Edge 60, Type (0, 0), BuildingBlock: CIFDUS_clean_linker_0, # of connection points: 2
#     Edge 61, Type (0, 0), BuildingBlock: CIFDUS_clean_linker_0, # of connection points: 2
#     Edge 62, Type (0, 0), BuildingBlock: CIFDUS_clean_linker_0, # of connection points: 2
#     Edge 63, Type (0, 0), BuildingBlock: CIFDUS_clean_linker_0, # of connection points: 2
#     Edge 64, Type (0, 0), BuildingBlock: CIFDUS_clean_linker_0, # of connection points: 2
#     Edge 65, Type (0, 0), BuildingBlock: CIFDUS_clean_linker_0, # of connection points: 2
#     Edge 66, Type (0, 0), BuildingBlock: CIFDUS_clean_linker_0, # of connection points: 2
#     Edge 67, Type (0, 0), BuildingBlock: CIFDUS_clean_linker_0, # of connection points: 2
#     Edge 68, Type (0, 0), BuildingBlock: CIFDUS_clean_linker_0, # of connection points: 2
#     Edge 69, Type (0, 0), BuildingBlock: CIFDUS_clean_linker_0, # of connection points: 2
#     Edge 70, Type (0, 0), BuildingBlock: CIFDUS_clean_linker_0, # of connection points: 2
#     Edge 71, Type (0, 0), BuildingBlock: CIFDUS_clean_linker_0, # of connection points: 2
#     Edge 72, Type (0, 0), BuildingBlock: CIFDUS_clean_linker_0, # of connection points: 2
#     Edge 73, Type (0, 0), BuildingBlock: CIFDUS_clean_linker_0, # of connection points: 2
#     Edge 74, Type (0, 0), BuildingBlock: CIFDUS_clean_linker_0, # of connection points: 2
#     Edge 75, Type (0, 0), BuildingBlock: CIFDUS_clean_linker_0, # of connection points: 2
#     Edge 76, Type (0, 0), BuildingBlock: CIFDUS_clean_linker_0, # of connection points: 2
#     Edge 77, Type (0, 0), BuildingBlock: CIFDUS_clean_linker_0, # of connection points: 2
#     Edge 78, Type (0, 0), BuildingBlock: CIFDUS_clean_linker_0, # of connection points: 2
#     Edge 79, Type (0, 0), BuildingBlock: CIFDUS_clean_linker_0, # of connection points: 2
# Relax obj value: 0.008
# Max RMSD: 0.030
# Mean RMSD: 0.030
data_MOF--net-utn--node1-OLANEW_clean_sbu_2--edge1-CIFDUS_clean_linker_0
_symmetry_space_group_name_H-M    P1
_symmetry_Int_Tables_number       1
_symmetry_cell_setting            triclinic
loop_
_symmetry_equiv_pos_as_xyz
'x, y, z'
_cell_length_a     73.665409
_cell_length_b     73.640838
_cell_length_c     25.041538
_cell_angle_alpha  89.968967
_cell_angle_beta   89.952988
_cell_angle_gamma 90.005616
loop_
_atom_site_label
_atom_site_type_symbol
_atom_site_fract_x
_atom_site_fract_y
_atom_site_fract_z
_atom_type_partial_charge
O0 O 0.25982 0.10353 0.3275 0.0
Cd1 Cd 0.25886 0.1044 0.22997 0.0
O2 O 0.25649 0.13305 0.3278 0.0
Cd3 Cd 0.25532 0.16062 0.36061 0.0
O4 O 0.2525 0.18978 0.37438 0.0
C5 C 0.26615 0.19954 0.3862 0.0
O6 O 0.28206 0.19175 0.39221 0.0
C7 C 0.25839 0.11827 0.35354 0.0
C8 C 0.23143 0.08257 0.18787 0.0
O9 O 0.24739 0.07622 0.19613 0.0
O10 O 0.22844 0.09923 0.19978 0.0
O11 O 0.12914 0.014 0.54962 0.0
Cd12 Cd 0.13218 0.01717 0.4528 0.0
O13 O 0.10278 0.00094 0.53786 0.0
Cd14 Cd 0.0775 0.98678 0.55769 0.0
O15 O 0.04949 0.97728 0.56266 0.0
C16 C 0.03781 0.98599 0.5899 0.0
O17 O 0.04302 0.00034 0.61699 0.0
C18 C 0.11505 0.00665 0.56946 0.0
C19 C 0.1562 0.99165 0.41042 0.0
O20 O 0.16183 0.00718 0.42653 0.0
O21 O 0.13919 0.98821 0.41428 0.0
O22 O 0.2715 0.89089 0.81321 0.0
Cd23 Cd 0.28024 0.88959 0.71906 0.0
O24 O 0.27068 0.86119 0.81256 0.0
Cd25 Cd 0.26491 0.83387 0.84289 0.0
O26 O 0.25952 0.80495 0.85455 0.0
C27 C 0.2433 0.79913 0.85275 0.0
O28 O 0.23003 0.81083 0.84602 0.0
C29 C 0.26873 0.87605 0.83782 0.0
C30 C 0.29545 0.92187 0.68148 0.0
O31 O 0.27826 0.91922 0.67993 0.0
O32 O 0.30544 0.9093 0.70127 0.0
O33 O 0.36729 0.98171 0.08403 0.0
Cd34 Cd 0.3642 0.97882 0.98721 0.0
O35 O 0.39284 0.99646 0.07187 0.0
Cd36 Cd 0.41812 0.00821 0.10176 0.0
O37 O 0.44722 0.0119 0.11447 0.0
C38 C 0.4565 0.99804 0.1275 0.0
O39 O 0.44808 0.98253 0.13522 0.0
C40 C 0.38094 0.98997 0.10325 0.0
C41 C 0.33959 0.00395 0.94574 0.0
O42 O 0.33437 0.98813 0.9606 0.0
O43 O 0.35647 0.00787 0.95048 0.0
O44 O 0.24445 0.88013 0.17061 0.0
Cd45 Cd 0.23682 0.88033 0.26568 0.0
O46 O 0.24335 0.85048 0.17513 0.0
Cd47 Cd 0.24399 0.82248 0.14581 0.0
O48 O 0.24514 0.793 0.13679 0.0
C49 C 0.26044 0.78504 0.13691 0.0
O50 O 0.27528 0.79489 0.14014 0.0
C51 C 0.2462 0.8648 0.14791 0.0
C52 C 0.21239 0.90751 0.29502 0.0
O53 O 0.22955 0.9104 0.29535 0.0
O54 O 0.20679 0.89183 0.28008 0.0
O55 O 0.37288 0.03187 0.42502 0.0
Cd56 Cd 0.36891 0.03584 0.52121 0.0
O57 O 0.39179 0.00951 0.44098 0.0
Cd58 Cd 0.41235 0.98995 0.41548 0.0
O59 O 0.43903 0.97711 0.41096 0.0
C60 C 0.45203 0.98551 0.38842 0.0
O61 O 0.44874 0.00124 0.36558 0.0
C62 C 0.38336 0.01948 0.40786 0.0
C63 C 0.35365 0.00501 0.568 0.0
O64 O 0.34363 0.01782 0.54985 0.0
O65 O 0.37091 0.00682 0.56417 0.0
O66 O 0.25516 0.11324 0.69384 0.0
Cd67 Cd 0.25671 0.11222 0.79132 0.0
O68 O 0.25462 0.14293 0.69875 0.0
Cd69 Cd 0.25546 0.17068 0.66732 0.0
O70 O 0.25723 0.19994 0.65406 0.0
C71 C 0.24324 0.20919 0.64221 0.0
O72 O 0.22765 0.2008 0.63588 0.0
C73 C 0.25438 0.12857 0.67058 0.0
C74 C 0.28159 0.08659 0.8285 0.0
O75 O 0.26491 0.08236 0.8209 0.0
O76 O 0.28651 0.10293 0.81826 0.0
O77 O 0.13917 0.9909 0.91104 0.0
Cd78 Cd 0.13843 0.98796 0.00825 0.0
O79 O 0.11076 0.99938 0.9127 0.0
Cd80 Cd 0.0841 0.0092 0.8866 0.0
O81 O 0.05506 0.0148 0.88032 0.0
C82 C 0.04439 0.0029 0.8612 0.0
O83 O 0.05123 0.98763 0.84299 0.0
C84 C 0.12506 0.99596 0.88592 0.0
C85 C 0.16518 0.00917 0.05649 0.0
O86 O 0.16837 0.9927 0.04286 0.0
O87 O 0.1493 0.01558 0.04742 0.0
O88 O 0.76418 0.86743 0.67499 0.0
Cd89 Cd 0.77048 0.85968 0.76803 0.0
O90 O 0.73464 0.86447 0.68422 0.0
Cd91 Cd 0.73729 0.85056 0.76089 0.0
O92 O 0.73836 0.82521 0.80627 0.0
C93 C 0.75212 0.81501 0.80017 0.0
O94 O 0.76557 0.82071 0.77003 0.0
C95 C 0.74827 0.86888 0.6558 0.0
C96 C 0.7937 0.88531 0.81323 0.0
O97 O 0.79995 0.87072 0.79223 0.0
O98 O 0.77646 0.88766 0.81332 0.0
O99 O 0.89032 0.02738 0.4283 0.0
Cd100 Cd 0.89427 0.03 0.52492 0.0
O101 O 0.88545 0.99793 0.43013 0.0
Cd102 Cd 0.89493 0.99627 0.51251 0.0
O103 O 0.9194 0.99597 0.56166 0.0
C104 C 0.9309 0.98366 0.55069 0.0
O105 O 0.92665 0.97143 0.51457 0.0
C106 C 0.88623 0.01275 0.40412 0.0
C107 C 0.86786 0.05275 0.5684 0.0
O108 O 0.88338 0.059 0.5542 0.0
O109 O 0.86492 0.03572 0.56245 0.0
O110 O 0.71563 0.14228 0.17465 0.0
Cd111 Cd 0.71178 0.14613 0.27098 0.0
O112 O 0.7454 0.14085 0.1797 0.0
Cd113 Cd 0.74559 0.15075 0.26184 0.0
O114 O 0.74716 0.17498 0.31188 0.0
C115 C 0.76113 0.1849 0.30559 0.0
O116 O 0.77402 0.17926 0.2733 0.0
C117 C 0.73093 0.13983 0.15217 0.0
C118 C 0.68671 0.12131 0.31169 0.0
O119 O 0.70354 0.11717 0.30727 0.0
O120 O 0.68175 0.13724 0.29707 0.0
O121 O 0.61045 0.99814 0.93099 0.0
Cd122 Cd 0.60595 0.99647 0.02755 0.0
O123 O 0.60565 0.0276 0.92812 0.0
Cd124 Cd 0.594 0.02841 0.00833 0.0
O125 O 0.56894 0.02965 0.055 0.0
C126 C 0.5612 0.0151 0.07018 0.0
O127 O 0.56929 0.99949 0.0613 0.0
C128 C 0.61016 0.01294 0.90479 0.0
C129 C 0.62812 0.96992 0.07282 0.0
O130 O 0.63384 0.98621 0.06627 0.0
O131 O 0.61186 0.96621 0.05828 0.0
O132 O 0.77049 0.14546 0.82129 0.0
Cd133 Cd 0.7758 0.15241 0.72711 0.0
O134 O 0.74098 0.14961 0.81634 0.0
Cd135 Cd 0.74309 0.16209 0.73743 0.0
O136 O 0.74695 0.18613 0.68749 0.0
C137 C 0.73478 0.19834 0.68936 0.0
O138 O 0.7201 0.19531 0.71786 0.0
C139 C 0.75489 0.14493 0.84307 0.0
C140 C 0.80263 0.12985 0.685 0.0
O141 O 0.78594 0.12493 0.68573 0.0
O142 O 0.80661 0.14554 0.70385 0.0
O143 O 0.60815 0.01157 0.56606 0.0
Cd144 Cd 0.60281 0.01446 0.47009 0.0
O145 O 0.60559 0.98182 0.567 0.0
Cd146 Cd 0.59416 0.9816 0.48657 0.0
O147 O 0.57014 0.98428 0.43605 0.0
C148 C 0.55744 0.97284 0.44315 0.0
O149 O 0.56002 0.95946 0.47707 0.0
C150 C 0.60909 0.99659 0.59124 0.0
C151 C 0.62725 0.03912 0.42538 0.0
O152 O 0.6116 0.0443 0.44174 0.0
O153 O 0.63126 0.02224 0.42968 0.0
O154 O 0.73401 0.87966 0.32039 0.0
Cd155 Cd 0.72785 0.87665 0.225 0.0
O156 O 0.76297 0.87327 0.31029 0.0
Cd157 Cd 0.75925 0.8629 0.22928 0.0
O158 O 0.75616 0.83806 0.18237 0.0
C159 C 0.74077 0.83279 0.16546 0.0
O160 O 0.72657 0.84333 0.17233 0.0
C161 C 0.74985 0.87814 0.34007 0.0
C162 C 0.70494 0.9039 0.18716 0.0
O163 O 0.69854 0.88868 0.20335 0.0
O164 O 0.72217 0.90624 0.18902 0.0
O165 O 0.88891 0.979 0.06696 0.0
Cd166 Cd 0.89479 0.97573 0.9715 0.0
O167 O 0.89556 0.00811 0.06742 0.0
Cd168 Cd 0.9079 0.00753 0.98803 0.0
O169 O 0.93258 0.00828 0.93951 0.0
C170 C 0.93832 0.99451 0.91402 0.0
O171 O 0.92846 0.97964 0.91355 0.0
C172 C 0.88979 0.99406 0.09163 0.0
C173 C 0.87201 0.94946 0.92757 0.0
O174 O 0.86686 0.96601 0.93211 0.0
O175 O 0.88805 0.94535 0.94335 0.0
O176 O 0.73496 0.6148 0.82689 0.0
Cd177 Cd 0.7327 0.61425 0.72955 0.0
O178 O 0.7374 0.64438 0.8229 0.0
Cd179 Cd 0.74205 0.67217 0.85103 0.0
O180 O 0.74568 0.70154 0.85799 0.0
C181 C 0.76095 0.70846 0.84599 0.0
O182 O 0.77431 0.69764 0.83197 0.0
C183 C 0.73676 0.62993 0.85072 0.0
C184 C 0.71707 0.58224 0.69171 0.0
O185 O 0.73428 0.58352 0.69842 0.0
O186 O 0.70727 0.59608 0.7031 0.0
O187 O 0.63354 0.49987 0.07423 0.0
Cd188 Cd 0.63606 0.50356 0.97748 0.0
O189 O 0.6044 0.49532 0.06505 0.0
Cd190 Cd 0.57615 0.48884 0.08489 0.0
O191 O 0.54663 0.48636 0.08828 0.0
C192 C 0.53898 0.47269 0.0671 0.0
O193 O 0.54914 0.46 0.04546 0.0
C194 C 0.6182 0.49659 0.09541 0.0
C195 C 0.66533 0.48405 0.93605 0.0
O196 O 0.66721 0.50057 0.95122 0.0
O197 O 0.64959 0.47678 0.94041 0.0
O198 O 0.76228 0.38679 0.31581 0.0
Cd199 Cd 0.76183 0.38902 0.21837 0.0
O200 O 0.77005 0.35826 0.30837 0.0
Cd201 Cd 0.77825 0.33071 0.33105 0.0
O202 O 0.78314 0.3015 0.33477 0.0
C203 C 0.77167 0.2909 0.35644 0.0
O204 O 0.7571 0.29785 0.37881 0.0
C205 C 0.76606 0.37173 0.338 0.0
C206 C 0.78935 0.4108 0.17616 0.0
O207 O 0.77408 0.41763 0.19028 0.0
O208 O 0.79169 0.39369 0.18267 0.0
O209 O 0.84891 0.47787 0.5074 0.0
Cd210 Cd 0.83896 0.48174 0.415 0.0
O211 O 0.87659 0.48361 0.47974 0.0
Cd212 Cd 0.90559 0.48822 0.494 0.0
O213 O 0.93426 0.48973 0.51594 0.0
C214 C 0.94391 0.47547 0.51258 0.0
O215 O 0.93632 0.46035 0.49595 0.0
C216 C 0.86575 0.4794 0.51736 0.0
C217 C 0.81551 0.51099 0.39957 0.0
O218 O 0.80937 0.49514 0.4107 0.0
O219 O 0.83276 0.51304 0.39648 0.0
O220 O 0.7705 0.39614 0.6825 0.0
Cd221 Cd 0.76867 0.39543 0.77993 0.0
O222 O 0.75753 0.36948 0.68105 0.0
Cd223 Cd 0.74478 0.34443 0.65215 0.0
O224 O 0.73464 0.3166 0.64726 0.0
C225 C 0.74467 0.3039 0.62957 0.0
O226 O 0.76096 0.30791 0.61162 0.0
C227 C 0.76445 0.38279 0.65573 0.0
C228 C 0.73912 0.41523 0.81829 0.0
O229 O 0.75467 0.42273 0.81183 0.0
O230 O 0.73755 0.39836 0.80653 0.0
O231 O 0.88388 0.48039 0.86653 0.0
Cd232 Cd 0.89541 0.47831 0.95786 0.0
O233 O 0.90885 0.46954 0.83029 0.0
Cd234 Cd 0.92551 0.46985 0.90215 0.0
O235 O 0.95208 0.47435 0.93829 0.0
C236 C 0.96509 0.47676 0.90562 0.0
O237 O 0.96165 0.47618 0.85416 0.0
C238 C 0.89262 0.47517 0.82553 0.0
C239 C 0.87161 0.45766 0.02004 0.0
O240 O 0.86961 0.47488 0.0155 0.0
O241 O 0.88503 0.45025 0.99581 0.0
O242 O 0.73595 0.62998 0.19111 0.0
Cd243 Cd 0.73867 0.62921 0.28837 0.0
O244 O 0.74088 0.65929 0.19297 0.0
Cd245 Cd 0.74636 0.68615 0.15915 0.0
O246 O 0.75245 0.71474 0.14455 0.0
C247 C 0.74015 0.7257 0.12945 0.0
O248 O 0.72372 0.71946 0.12052 0.0
C249 C 0.73773 0.64493 0.16633 0.0
C250 C 0.7619 0.60145 0.32116 0.0
O251 O 0.74478 0.59872 0.3166 0.0
O252 O 0.768 0.61734 0.3105 0.0
O253 O 0.64295 0.4716 0.43211 0.0
Cd254 Cd 0.64323 0.469 0.52936 0.0
O255 O 0.61731 0.48634 0.43813 0.0
Cd256 Cd 0.59315 0.50207 0.41638 0.0
O257 O 0.56592 0.51373 0.41239 0.0
C258 C 0.55305 0.50497 0.39049 0.0
O259 O 0.55658 0.4892 0.36822 0.0
C260 C 0.62996 0.47984 0.40917 0.0
C261 C 0.65848 0.49989 0.57564 0.0
O262 O 0.66834 0.4862 0.56306 0.0
O263 O 0.64138 0.4989 0.56665 0.0
O264 O 0.28316 0.34952 0.19085 0.0
Cd265 Cd 0.28962 0.34325 0.28476 0.0
O266 O 0.25358 0.35003 0.2026 0.0
Cd267 Cd 0.25589 0.33776 0.28168 0.0
O268 O 0.25746 0.3127 0.32814 0.0
C269 C 0.24305 0.30338 0.33357 0.0
O270 O 0.22773 0.30996 0.31498 0.0
C271 C 0.26731 0.35224 0.17242 0.0
C272 C 0.31385 0.36901 0.32432 0.0
O273 O 0.31953 0.35371 0.30652 0.0
O274 O 0.29671 0.37199 0.32403 0.0
O275 O 0.39705 0.53866 0.9106 0.0
Cd276 Cd 0.40269 0.54103 0.00655 0.0
O277 O 0.38831 0.51014 0.91488 0.0
Cd278 Cd 0.39877 0.50751 0.99595 0.0
O279 O 0.4237 0.50354 0.04152 0.0
C280 C 0.43311 0.48972 0.02898 0.0
O281 O 0.42662 0.47836 0.99333 0.0
C282 C 0.39067 0.52459 0.88788 0.0
C283 C 0.3732 0.5572 0.05765 0.0
O284 O 0.3866 0.56675 0.04096 0.0
O285 O 0.37385 0.53997 0.0506 0.0
O286 O 0.21995 0.64056 0.69535 0.0
Cd287 Cd 0.21903 0.64805 0.79039 0.0
O288 O 0.24972 0.64213 0.6909 0.0
Cd289 Cd 0.25191 0.65552 0.76842 0.0
O290 O 0.25512 0.68094 0.81243 0.0
C291 C 0.24186 0.69198 0.81345 0.0
O292 O 0.2264 0.68707 0.79165 0.0
C293 C 0.23457 0.63856 0.66895 0.0
C294 C 0.19186 0.62848 0.84248 0.0
O295 O 0.18877 0.6444 0.82392 0.0
O296 O 0.20784 0.62187 0.83665 0.0
O297 O 0.10699 0.48949 0.49378 0.0
Cd298 Cd 0.09886 0.48381 0.58684 0.0
O299 O 0.10015 0.51853 0.4959 0.0
Cd300 Cd 0.08415 0.51519 0.56852 0.0
O301 O 0.0556 0.51098 0.58847 0.0
C302 C 0.04823 0.49674 0.56969 0.0
O303 O 0.05845 0.48496 0.5442 0.0
C304 C 0.10685 0.50498 0.47137 0.0
C305 C 0.1239 0.4595 0.63 0.0
O306 O 0.10895 0.45385 0.60978 0.0
O307 O 0.1268 0.47665 0.63081 0.0
O308 O 0.26311 0.63061 0.32863 0.0
Cd309 Cd 0.26447 0.63465 0.23181 0.0
O310 O 0.23376 0.63592 0.33214 0.0
Cd311 Cd 0.23294 0.64659 0.25083 0.0
O312 O 0.23291 0.67087 0.20065 0.0
C313 C 0.24757 0.67982 0.19587 0.0
O314 O 0.26245 0.67334 0.21761 0.0
C315 C 0.24843 0.63137 0.35532 0.0
C316 C 0.29507 0.61815 0.1877 0.0
O317 O 0.29538 0.63486 0.20196 0.0
O318 O 0.28027 0.60926 0.19433 0.0
O319 O 0.10389 0.53867 0.13717 0.0
Cd320 Cd 0.09758 0.53963 0.04137 0.0
O321 O 0.11037 0.50953 0.13651 0.0
Cd322 Cd 0.09819 0.50591 0.05805 0.0
O323 O 0.07228 0.49993 0.01974 0.0
C324 C 0.05922 0.49746 0.05218 0.0
O325 O 0.06244 0.49871 0.10366 0.0
C326 C 0.10949 0.52455 0.16139 0.0
C327 C 0.12437 0.55924 0.98768 0.0
O328 O 0.10986 0.56702 0.00432 0.0
O329 O 0.12613 0.54216 0.99611 0.0
O330 O 0.22124 0.35681 0.84908 0.0
Cd331 Cd 0.21488 0.35342 0.75385 0.0
O332 O 0.25084 0.35631 0.83768 0.0
Cd333 Cd 0.24844 0.34643 0.75583 0.0
O334 O 0.24768 0.32207 0.70619 0.0
C335 C 0.26244 0.31343 0.69947 0.0
O336 O 0.27754 0.3204 0.71845 0.0
C337 C 0.23717 0.35825 0.86821 0.0
C338 C 0.18812 0.37781 0.72144 0.0
O339 O 0.18402 0.36153 0.73496 0.0
O340 O 0.20487 0.3825 0.72292 0.0
O341 O 0.38843 0.48741 0.55518 0.0
Cd342 Cd 0.39447 0.48153 0.46083 0.0
O343 O 0.39692 0.516 0.55148 0.0
Cd344 Cd 0.40933 0.5127 0.4729 0.0
O345 O 0.43415 0.50816 0.42697 0.0
C346 C 0.44706 0.5193 0.43478 0.0
O347 O 0.44423 0.53325 0.46642 0.0
C348 C 0.39018 0.5028 0.57758 0.0
C349 C 0.37072 0.45507 0.42271 0.0
O350 O 0.38649 0.45077 0.44024 0.0
O351 O 0.3663 0.47191 0.42265 0.0
H352 H 0.24215 0.14135 0.42418 0.0
H353 H 0.27622 0.09382 0.41543 0.0
H354 H 0.27793 0.09275 0.51279 0.0
H355 H 0.26997 0.10548 0.60039 0.0
H356 H 0.23623 0.15323 0.60902 0.0
H357 H 0.23474 0.15452 0.51163 0.0
C358 C 0.25041 0.13111 0.44341 0.0
C359 C 0.25944 0.11799 0.41251 0.0
C360 C 0.25147 0.13068 0.4994 0.0
C361 C 0.26922 0.10415 0.43834 0.0
C362 C 0.27025 0.10355 0.49398 0.0
C363 C 0.26234 0.11619 0.58085 0.0
C364 C 0.25357 0.12948 0.61174 0.0
C365 C 0.26144 0.11675 0.52489 0.0
C366 C 0.24362 0.14321 0.58608 0.0
C367 C 0.24258 0.14382 0.53039 0.0
H368 H 0.14254 0.00538 0.6407 0.0
H369 H 0.08411 0.00438 0.63088 0.0
H370 H 0.08204 0.99974 0.72703 0.0
H371 H 0.09696 0.99571 0.81386 0.0
H372 H 0.15524 0.00011 0.82483 0.0
H373 H 0.15727 0.00341 0.72817 0.0
C374 C 0.12934 0.00417 0.65956 0.0
C375 C 0.11352 0.00448 0.62813 0.0
C376 C 0.12823 0.00217 0.71519 0.0
C377 C 0.09653 0.00315 0.65339 0.0
C378 C 0.09533 0.00083 0.70869 0.0
C379 C 0.11004 0.998 0.79562 0.0
C380 C 0.12585 0.99813 0.82708 0.0
C381 C 0.1111 0.00028 0.73999 0.0
C382 C 0.14281 1.00004 0.80177 0.0
C383 C 0.144 0.00198 0.74644 0.0
H384 H 0.27628 0.85123 0.91532 0.0
H385 H 0.24878 0.90205 0.88758 0.0
H386 H 0.23921 0.90299 0.98103 0.0
H387 H 0.23859 0.88929 0.07055 0.0
H388 H 0.26655 0.83872 0.09831 0.0
H389 H 0.27542 0.83737 0.00451 0.0
C390 C 0.26778 0.86224 0.92932 0.0
C391 C 0.26287 0.87631 0.89427 0.0
C392 C 0.2623 0.86266 0.98303 0.0
C393 C 0.25265 0.891 0.91378 0.0
C394 C 0.24714 0.89152 0.96713 0.0
C395 C 0.24656 0.87794 0.05594 0.0
C396 C 0.25144 0.86385 0.09099 0.0
C397 C 0.25188 0.87743 0.00211 0.0
C398 C 0.26194 0.84933 0.07173 0.0
C399 C 0.26726 0.8487 0.01821 0.0
H400 H 0.38879 0.02071 0.15684 0.0
H401 H 0.37664 0.96398 0.17919 0.0
H402 H 0.37819 0.9678 0.27633 0.0
H403 H 0.38131 0.98773 0.35478 0.0
H404 H 0.3896 0.04513 0.33211 0.0
H405 H 0.39138 0.04073 0.23522 0.0
C406 C 0.38671 0.00919 0.18317 0.0
C407 C 0.38282 0.99207 0.16139 0.0
C408 C 0.38687 0.01167 0.23874 0.0
C409 C 0.37971 0.97726 0.19546 0.0
C410 C 0.38059 0.97945 0.25083 0.0
C411 C 0.38373 0.99919 0.32846 0.0
C412 C 0.38554 0.01668 0.35007 0.0
C413 C 0.38394 0.99664 0.27291 0.0
C414 C 0.38825 0.03155 0.31597 0.0
C415 C 0.38924 0.02903 0.26075 0.0
H416 H 0.72411 0.88134 0.4175 0.0
H417 H 0.78212 0.87903 0.39376 0.0
H418 H 0.78679 0.87782 0.49014 0.0
H419 H 0.77433 0.87431 0.58037 0.0
H420 H 0.71626 0.87522 0.6038 0.0
H421 H 0.71174 0.88024 0.50842 0.0
C422 C 0.73779 0.88086 0.43337 0.0
C423 C 0.75272 0.88011 0.39834 0.0
C424 C 0.74038 0.87975 0.48883 0.0
C425 C 0.77036 0.87949 0.41972 0.0
C426 C 0.77306 0.87875 0.47488 0.0
C427 C 0.76068 0.87584 0.5648 0.0
C428 C 0.74566 0.8742 0.59923 0.0
C429 C 0.75815 0.87838 0.50972 0.0
C430 C 0.72808 0.87628 0.57823 0.0
C431 C 0.72547 0.87913 0.52362 0.0
H432 H 0.88942 0.02403 0.15516 0.0
H433 H 0.88057 0.96607 0.15824 0.0
H434 H 0.87705 0.96701 0.2551 0.0
H435 H 0.8792 0.98383 0.33949 0.0
H436 H 0.88857 0.04171 0.33622 0.0
H437 H 0.88898 0.04122 0.23889 0.0
C438 C 0.88654 0.01161 0.17688 0.0
C439 C 0.88548 0.99498 0.14941 0.0
C440 C 0.88471 0.0122 0.23266 0.0
C441 C 0.88156 0.97906 0.17828 0.0
C442 C 0.87959 0.97957 0.23376 0.0
C443 C 0.88111 0.99638 0.31754 0.0
C444 C 0.88405 0.01274 0.34528 0.0
C445 C 0.88155 0.99599 0.26147 0.0
C446 C 0.88639 0.02889 0.31604 0.0
C447 C 0.88667 0.02863 0.26029 0.0
H448 H 0.72383 0.14245 0.90179 0.0
H449 H 0.78208 0.13723 0.91377 0.0
H450 H 0.77961 0.13348 0.01026 0.0
H451 H 0.76124 0.13453 0.09188 0.0
H452 H 0.70304 0.14024 0.08015 0.0
H453 H 0.7052 0.14073 0.98294 0.0
C454 C 0.73598 0.14029 0.92537 0.0
C455 C 0.75313 0.14035 0.9005 0.0
C456 C 0.7345 0.13832 0.981 0.0
C457 C 0.7687 0.13736 0.93176 0.0
C458 C 0.76732 0.13526 0.98705 0.0
C459 C 0.74899 0.13566 0.06812 0.0
C460 C 0.73203 0.13756 0.09343 0.0
C461 C 0.75033 0.13616 0.01221 0.0
C462 C 0.71629 0.13886 0.06186 0.0
C463 C 0.71752 0.1392 0.00619 0.0
H464 H 0.61333 0.02579 0.65654 0.0
H465 H 0.6127 0.96715 0.65715 0.0
H466 H 0.61484 0.96707 0.75442 0.0
H467 H 0.61401 0.98362 0.83946 0.0
H468 H 0.6134 0.04226 0.83859 0.0
H469 H 0.6148 0.04231 0.74128 0.0
C470 C 0.61389 0.01297 0.67781 0.0
C471 C 0.61267 0.99651 0.64948 0.0
C472 C 0.61478 0.013 0.7338 0.0
C473 C 0.61348 0.98004 0.67786 0.0
C474 C 0.61467 0.97997 0.73355 0.0
C475 C 0.61444 0.99643 0.81808 0.0
C476 C 0.61343 0.01291 0.84638 0.0
C477 C 0.61489 0.99637 0.76199 0.0
C478 C 0.61402 0.02936 0.81789 0.0
C479 C 0.61479 0.02941 0.76218 0.0
H480 H 0.74803 0.61848 0.09817 0.0
H481 H 0.72417 0.67192 0.10272 0.0
H482 H 0.72222 0.67227 0.00531 0.0
H483 H 0.72624 0.65681 0.91911 0.0
H484 H 0.75027 0.60343 0.91467 0.0
H485 H 0.75267 0.60336 0.01192 0.0
C486 C 0.74245 0.63021 0.07775 0.0
C487 C 0.73662 0.64531 0.10746 0.0
C488 C 0.74124 0.63024 0.02183 0.0
C489 C 0.72932 0.66039 0.08065 0.0
C490 C 0.728 0.6605 0.02497 0.0
C491 C 0.7325 0.64541 0.9392 0.0
C492 C 0.73848 0.63035 0.90954 0.0
C493 C 0.73394 0.64551 0.99515 0.0
C494 C 0.74565 0.61524 0.93659 0.0
C495 C 0.74706 0.61519 0.99217 0.0
H496 H 0.64548 0.48751 0.16236 0.0
H497 H 0.58844 0.50074 0.16121 0.0
H498 H 0.5867 0.49538 0.25704 0.0
H499 H 0.60149 0.48686 0.34124 0.0
H500 H 0.65922 0.47702 0.34376 0.0
H501 H 0.66052 0.48082 0.24719 0.0
C502 C 0.63264 0.48924 0.18299 0.0
C503 C 0.61696 0.49387 0.15399 0.0
C504 C 0.63189 0.48678 0.23851 0.0
C505 C 0.60052 0.49626 0.18165 0.0
C506 C 0.59958 0.4935 0.23683 0.0
C507 C 0.61444 0.48613 0.32123 0.0
C508 C 0.63028 0.48215 0.35031 0.0
C509 C 0.6152 0.48875 0.26568 0.0
C510 C 0.64679 0.48017 0.32261 0.0
C511 C 0.64758 0.48239 0.26732 0.0
H512 H 0.76331 0.35433 0.58491 0.0
H513 H 0.76839 0.41264 0.59307 0.0
H514 H 0.76996 0.41424 0.49598 0.0
H515 H 0.76934 0.39923 0.40878 0.0
H516 H 0.76094 0.34134 0.40045 0.0
H517 H 0.76097 0.33944 0.49751 0.0
C518 C 0.76417 0.36743 0.56571 0.0
C519 C 0.76524 0.38335 0.59656 0.0
C520 C 0.76471 0.36832 0.50966 0.0
C521 C 0.76743 0.40014 0.57046 0.0
C522 C 0.76829 0.4011 0.51486 0.0
C523 C 0.76754 0.38617 0.42813 0.0
C524 C 0.76586 0.37035 0.39707 0.0
C525 C 0.76687 0.38528 0.48407 0.0
C526 C 0.76328 0.3536 0.42295 0.0
C527 C 0.76295 0.35255 0.47869 0.0
H528 H 0.84946 0.4886 0.61079 0.0
H529 H 0.89701 0.46244 0.54619 0.0
H530 H 0.90943 0.45878 0.63578 0.0
H531 H 0.90712 0.46356 0.73201 0.0
H532 H 0.85937 0.4891 0.79811 0.0
H533 H 0.84653 0.49216 0.70854 0.0
C534 C 0.8625 0.48205 0.61654 0.0
C535 C 0.87262 0.47638 0.57196 0.0
C536 C 0.86946 0.47979 0.66838 0.0
C537 C 0.88937 0.46767 0.57976 0.0
C538 C 0.89636 0.46536 0.63103 0.0
C539 C 0.89387 0.46976 0.72701 0.0
C540 C 0.88428 0.47618 0.77178 0.0
C541 C 0.88662 0.47154 0.67554 0.0
C542 C 0.86707 0.48406 0.76438 0.0
C543 C 0.85973 0.48584 0.71315 0.0
H544 H 0.26916 0.36038 0.9222 0.0
H545 H 0.21107 0.36107 0.9455 0.0
H546 H 0.21535 0.36085 0.0421 0.0
H547 H 0.23546 0.35768 0.11958 0.0
H548 H 0.29353 0.35634 0.09606 0.0
H549 H 0.28932 0.35976 -0.0 0.0
C550 C 0.25741 0.36071 0.94834 0.0
C551 C 0.23982 0.36054 0.92649 0.0
C552 C 0.25995 0.36033 0.00389 0.0
C553 C 0.22478 0.36108 0.96111 0.0
C554 C 0.2272 0.3609 0.01643 0.0
C555 C 0.24722 0.35834 0.09357 0.0
C556 C 0.26477 0.35654 0.11508 0.0
C557 C 0.24471 0.36009 0.03822 0.0
C558 C 0.27985 0.35756 0.08067 0.0
C559 C 0.27746 0.35948 0.02564 0.0
H560 H 0.37931 0.49637 0.8261 0.0
H561 H 0.39575 0.55259 0.81772 0.0
H562 H 0.39531 0.55125 0.72043 0.0
H563 H 0.39331 0.53333 0.63816 0.0
H564 H 0.3776 0.4769 0.64661 0.0
H565 H 0.37455 0.47922 0.74336 0.0
C566 C 0.38256 0.50841 0.80307 0.0
C567 C 0.38778 0.52448 0.82931 0.0
C568 C 0.38256 0.50749 0.74706 0.0
C569 C 0.39182 0.53999 0.79869 0.0
C570 C 0.39162 0.53923 0.74297 0.0
C571 C 0.389 0.52158 0.66102 0.0
C572 C 0.38592 0.50491 0.6351 0.0
C573 C 0.3875 0.52293 0.71678 0.0
C574 C 0.38019 0.48988 0.66545 0.0
C575 C 0.37848 0.49117 0.72087 0.0
H576 H 0.26304 0.63139 0.60279 0.0
H577 H 0.20454 0.6351 0.60572 0.0
H578 H 0.2036 0.63144 0.50896 0.0
H579 H 0.2195 0.63027 0.42294 0.0
H580 H 0.27801 0.62685 0.41988 0.0
H581 H 0.27876 0.6271 0.51727 0.0
C582 C 0.25006 0.63118 0.58239 0.0
C583 C 0.23391 0.63377 0.61151 0.0
C584 C 0.2496 0.62923 0.52663 0.0
C585 C 0.2172 0.63326 0.58439 0.0
C586 C 0.21664 0.63122 0.52896 0.0
C587 C 0.23242 0.62935 0.44351 0.0
C588 C 0.24868 0.62879 0.41402 0.0
C589 C 0.23278 0.62968 0.49956 0.0
C590 C 0.26527 0.6274 0.44146 0.0
C591 C 0.26573 0.62761 0.49723 0.0
H592 H 0.10628 0.53546 0.40969 0.0
H593 H 0.12001 0.47846 0.4056 0.0
H594 H 0.12433 0.48013 0.3092 0.0
H595 H 0.12044 0.49674 0.22524 0.0
H596 H 0.10577 0.5535 0.22892 0.0
H597 H 0.10587 0.55296 0.32632 0.0
C598 C 0.1105 0.52345 0.3879 0.0
C599 C 0.11251 0.50679 0.41483 0.0
C600 C 0.11265 0.52441 0.33226 0.0
C601 C 0.11817 0.49143 0.38592 0.0
C602 C 0.1206 0.49234 0.33069 0.0
C603 C 0.11754 0.50909 0.24726 0.0
C604 C 0.11281 0.52506 0.21971 0.0
C605 C 0.11729 0.50861 0.30328 0.0
C606 C 0.1093 0.54097 0.24901 0.0
C607 C 0.10929 0.54066 0.30479 0.0
H608 H 0.23385 0.04715 0.15785 0.0
H609 H 0.19641 0.09217 0.16583 0.0
H610 H 0.17261 0.07341 0.12643 0.0
H611 H 0.1625 0.04434 0.08884 0.0
H612 H 0.19998 0.99935 0.08062 0.0
H613 H 0.22366 0.018 0.12102 0.0
C614 C 0.22048 0.05286 0.15107 0.0
C615 C 0.21695 0.07105 0.16475 0.0
C616 C 0.20685 0.04201 0.12829 0.0
C617 C 0.19953 0.07822 0.15567 0.0
C618 C 0.1859 0.0675 0.1331 0.0
C619 C 0.17584 0.03859 0.09593 0.0
C620 C 0.17944 0.02047 0.08163 0.0
C621 C 0.18942 0.0494 0.11912 0.0
C622 C 0.19681 0.01326 0.09117 0.0
C623 C 0.21038 0.02392 0.11428 0.0
H624 H 0.22021 0.94167 0.32947 0.0
H625 H 0.17543 0.90516 0.30052 0.0
H626 H 0.15412 0.92803 0.33286 0.0
H627 H 0.14822 0.95813 0.37121 0.0
H628 H 0.19301 0.99462 0.40032 0.0
H629 H 0.21425 0.97201 0.36601 0.0
C630 C 0.20578 0.93872 0.33003 0.0
C631 C 0.19945 0.92169 0.31269 0.0
C632 C 0.19359 0.95192 0.34885 0.0
C633 C 0.1807 0.91813 0.31367 0.0
C634 C 0.16848 0.93121 0.33222 0.0
C635 C 0.16262 0.96117 0.36998 0.0
C636 C 0.169 0.97804 0.38849 0.0
C637 C 0.17479 0.9481 0.35022 0.0
C638 C 0.18771 0.98174 0.38642 0.0
C639 C 0.19989 0.96882 0.36681 0.0
H640 H 0.31779 0.99701 0.57908 0.0
H641 H 0.37135 0.97595 0.61148 0.0
H642 H 0.35808 0.9486 0.65038 0.0
H643 H 0.3313 0.93044 0.67403 0.0
H644 H 0.27775 0.95137 0.64075 0.0
H645 H 0.29101 0.97899 0.60352 0.0
C646 C 0.32657 0.98646 0.59473 0.0
C647 C 0.34554 0.98855 0.59228 0.0
C648 C 0.31886 0.97073 0.6169 0.0
C649 C 0.35671 0.97472 0.61277 0.0
C650 C 0.34913 0.95905 0.63505 0.0
C651 C 0.32252 0.94106 0.65879 0.0
C652 C 0.30355 0.9388 0.66017 0.0
C653 C 0.33023 0.95688 0.63716 0.0
C654 C 0.29239 0.95271 0.64016 0.0
C655 C 0.29996 0.96853 0.61882 0.0
H656 H 0.27488 0.05166 0.85811 0.0
H657 H 0.31795 0.09119 0.84497 0.0
H658 H 0.33966 0.0691 0.87962 0.0
H659 H 0.34642 0.03866 0.91428 0.0
H660 H 0.30331 0.99921 0.92812 0.0
H661 H 0.28166 0.02119 0.89257 0.0
C662 C 0.28902 0.05545 0.86272 0.0
C663 C 0.29476 0.07307 0.84894 0.0
C664 C 0.30145 0.0427 0.88286 0.0
C665 C 0.31314 0.07773 0.85528 0.0
C666 C 0.32559 0.06511 0.87511 0.0
C667 C 0.33229 0.03485 0.90948 0.0
C668 C 0.32652 0.0173 0.92388 0.0
C669 C 0.31988 0.04757 0.88913 0.0
C670 C 0.30814 0.01262 0.91742 0.0
C671 C 0.29573 0.02519 0.89706 0.0
H672 H 0.83582 0.95246 0.90896 0.0
H673 H 0.88067 0.91499 0.89651 0.0
H674 H 0.86043 0.89186 0.85989 0.0
H675 H 0.82999 0.88229 0.83129 0.0
H676 H 0.78501 0.91951 0.84635 0.0
H677 H 0.80531 0.94269 0.88218 0.0
C678 C 0.84118 0.93925 0.8981 0.0
C679 C 0.85974 0.93549 0.90525 0.0
C680 C 0.82944 0.92595 0.87764 0.0
C681 C 0.86644 0.91824 0.89143 0.0
C682 C 0.85487 0.905 0.87045 0.0
C683 C 0.82463 0.89547 0.84241 0.0
C684 C 0.80602 0.89916 0.836 0.0
C685 C 0.83635 0.90871 0.86339 0.0
C686 C 0.79927 0.91629 0.85092 0.0
C687 C 0.81088 0.92957 0.87134 0.0
H688 H 0.87127 0.08832 0.59594 0.0
H689 H 0.83255 0.04435 0.5904 0.0
H690 H 0.80895 0.06437 0.62529 0.0
H691 H 0.79925 0.09435 0.65711 0.0
H692 H 0.83811 0.13815 0.66473 0.0
H693 H 0.86168 0.11819 0.62924 0.0
C694 C 0.85767 0.08311 0.60235 0.0
C695 C 0.85369 0.06487 0.59045 0.0
C696 C 0.84417 0.09467 0.62274 0.0
C697 C 0.83601 0.05833 0.59927 0.0
C698 C 0.82248 0.06977 0.61916 0.0
C699 C 0.81286 0.09955 0.6509 0.0
C700 C 0.81688 0.11774 0.66339 0.0
C701 C 0.8264 0.08797 0.63094 0.0
C702 C 0.83464 0.12421 0.65547 0.0
C703 C 0.84813 0.11281 0.63515 0.0
H704 H 0.69222 0.08555 0.33333 0.0
H705 H 0.6512 0.12739 0.33753 0.0
H706 H 0.62921 0.10567 0.37289 0.0
H707 H 0.62165 0.07485 0.40306 0.0
H708 H 0.66252 0.03288 0.39722 0.0
H709 H 0.6845 0.05461 0.36195 0.0
C710 C 0.67848 0.08993 0.34204 0.0
C711 C 0.6734 0.10809 0.33294 0.0
C712 C 0.66585 0.07734 0.36201 0.0
C713 C 0.65549 0.1135 0.34413 0.0
C714 C 0.64289 0.10109 0.3644 0.0
C715 C 0.63536 0.07044 0.39405 0.0
C716 C 0.64042 0.05226 0.4029 0.0
C717 C 0.64793 0.08298 0.37354 0.0
C718 C 0.65823 0.04678 0.39076 0.0
C719 C 0.67084 0.0592 0.37065 0.0
H720 H 0.66868 0.9016 0.16771 0.0
H721 H 0.71402 0.93866 0.16009 0.0
H722 H 0.6942 0.96242 0.12519 0.0
H723 H 0.6641 0.97259 0.0958 0.0
H724 H 0.61889 0.93533 0.10141 0.0
H725 H 0.63857 0.91176 0.13819 0.0
C726 C 0.67423 0.91489 0.15856 0.0
C727 C 0.69281 0.91833 0.16656 0.0
C728 C 0.66278 0.92846 0.13808 0.0
C729 C 0.69978 0.93561 0.15425 0.0
C730 C 0.68845 0.94923 0.13431 0.0
C731 C 0.65852 0.95933 0.10522 0.0
C732 C 0.64004 0.95575 0.0959 0.0
C733 C 0.66994 0.94579 0.12593 0.0
C734 C 0.63307 0.93846 0.1081 0.0
C735 C 0.64431 0.92497 0.12917 0.0
H736 H 0.69409 0.50602 0.59813 0.0
H737 H 0.64114 0.53099 0.60605 0.0
H738 H 0.65455 0.55852 0.64327 0.0
H739 H 0.68133 0.57568 0.67241 0.0
H740 H 0.7343 0.55076 0.6641 0.0
H741 H 0.72083 0.52304 0.62827 0.0
C742 C 0.68546 0.51746 0.60808 0.0
C743 C 0.66663 0.51643 0.59922 0.0
C744 C 0.69327 0.53328 0.62936 0.0
C745 C 0.65567 0.5314 0.6124 0.0
C746 C 0.66333 0.54717 0.63368 0.0
C747 C 0.68994 0.56418 0.66286 0.0
C748 C 0.70881 0.56533 0.67088 0.0
C749 C 0.68211 0.54829 0.64215 0.0
C750 C 0.71974 0.55028 0.6583 0.0
C751 C 0.71205 0.53441 0.63778 0.0
H752 H 0.73861 0.45062 0.84941 0.0
H753 H 0.70438 0.40333 0.83373 0.0
H754 H 0.67857 0.42046 0.86836 0.0
H755 H 0.66572 0.44879 0.90356 0.0
H756 H 0.69999 0.49603 0.91974 0.0
H757 H 0.72575 0.47897 0.88443 0.0
C758 C 0.7255 0.44405 0.8535 0.0
C759 C 0.72346 0.42571 0.83898 0.0
C760 C 0.71071 0.45397 0.87357 0.0
C761 C 0.70636 0.41743 0.84461 0.0
C762 C 0.69157 0.42721 0.86442 0.0
C763 C 0.67881 0.45538 0.89933 0.0
C764 C 0.6809 0.47367 0.91431 0.0
C765 C 0.69359 0.44548 0.8791 0.0
C766 C 0.69799 0.48196 0.90858 0.0
C767 C 0.71274 0.47222 0.88837 0.0
H768 H 0.82175 0.39982 0.13499 0.0
H769 H 0.789 0.44757 0.16183 0.0
H770 H 0.81186 0.46635 0.11778 0.0
H771 H 0.84064 0.46909 0.06892 0.0
H772 H 0.8731 0.42125 0.0405 0.0
H773 H 0.85088 0.40268 0.08803 0.0
C774 C 0.81964 0.41435 0.13148 0.0
C775 C 0.80365 0.42225 0.1516 0.0
C776 C 0.83278 0.42506 0.10567 0.0
C777 C 0.80116 0.44111 0.14661 0.0
C778 C 0.81422 0.45187 0.12138 0.0
C779 C 0.84292 0.45462 0.07335 0.0
C780 C 0.85851 0.44659 0.05104 0.0
C781 C 0.83001 0.44397 0.10035 0.0
C782 C 0.86121 0.4278 0.05714 0.0
C783 C 0.8485 0.41715 0.08431 0.0
H784 H 0.75285 0.567 0.35012 0.0
H785 H 0.79887 0.60257 0.32853 0.0
H786 H 0.81945 0.57788 0.3523 0.0
H787 H 0.82445 0.546 0.37686 0.0
H788 H 0.77843 0.51044 0.3985 0.0
H789 H 0.75781 0.53535 0.37728 0.0
C790 C 0.76738 0.56938 0.35074 0.0
C791 C 0.77429 0.5866 0.33734 0.0
C792 C 0.77915 0.55512 0.36441 0.0
C793 C 0.79316 0.58945 0.33858 0.0
C794 C 0.80496 0.57533 0.35213 0.0
C795 C 0.80991 0.5437 0.37714 0.0
C796 C 0.80302 0.52635 0.38907 0.0
C797 C 0.79811 0.55808 0.36477 0.0
C798 C 0.78413 0.52364 0.3894 0.0
C799 C 0.77231 0.53788 0.37719 0.0
H800 H 0.37766 0.41931 0.40458 0.0
H801 H 0.33488 0.45932 0.39835 0.0
H802 H 0.31346 0.43615 0.36862 0.0
H803 H 0.30686 0.40457 0.34426 0.0
H804 H 0.34981 0.36473 0.34754 0.0
H805 H 0.37116 0.38779 0.37867 0.0
C806 C 0.36365 0.42296 0.39674 0.0
C807 C 0.35789 0.44102 0.40378 0.0
C808 C 0.35142 0.4096 0.3792 0.0
C809 C 0.3397 0.44553 0.39315 0.0
C810 C 0.32742 0.43228 0.37624 0.0
C811 C 0.32087 0.40091 0.35198 0.0
C812 C 0.32671 0.38294 0.3438 0.0
C813 C 0.33313 0.41428 0.36918 0.0
C814 C 0.34496 0.37847 0.35349 0.0
C815 C 0.35718 0.39164 0.37131 0.0
H816 H 0.29952 0.58247 0.16303 0.0
H817 H 0.3271 0.63419 0.15938 0.0
H818 H 0.35371 0.61988 0.11927 0.0
H819 H 0.36905 0.59277 0.08435 0.0
H820 H 0.34161 0.54099 0.08911 0.0
H821 H 0.31509 0.55526 0.12979 0.0
C822 C 0.31135 0.59062 0.15347 0.0
C823 C 0.31128 0.60938 0.16406 0.0
C824 C 0.32665 0.5823 0.13063 0.0
C825 C 0.32677 0.61972 0.15167 0.0
C826 C 0.34201 0.61155 0.12868 0.0
C827 C 0.35728 0.58459 0.09433 0.0
C828 C 0.35732 0.56584 0.08355 0.0
C829 C 0.34208 0.59287 0.11786 0.0
C830 C 0.34197 0.55544 0.09697 0.0
C831 C 0.32677 0.56359 0.12019 0.0
H832 H 0.1232 0.59459 0.95615 0.0
H833 H 0.15791 0.54736 0.95713 0.0
H834 H 0.18187 0.56464 0.91283 0.0
H835 H 0.19303 0.59317 0.8741 0.0
H836 H 0.15811 0.64023 0.87151 0.0
H837 H 0.13419 0.62299 0.91619 0.0
C838 C 0.136 0.58806 0.94668 0.0
C839 C 0.13875 0.56971 0.96005 0.0
C840 C 0.1497 0.59805 0.92096 0.0
C841 C 0.15541 0.56146 0.94726 0.0
C842 C 0.16914 0.57134 0.92198 0.0
C843 C 0.1802 0.59967 0.88338 0.0
C844 C 0.1774 0.61798 0.8696 0.0
C845 C 0.16645 0.58965 0.90872 0.0
C846 C 0.16064 0.62616 0.88164 0.0
C847 C 0.14695 0.61631 0.90722 0.0
H848 H 0.12018 0.42305 0.64444 0.0
H849 H 0.15863 0.46694 0.66079 0.0
H850 H 0.18187 0.44555 0.69023 0.0
H851 H 0.19146 0.41433 0.70979 0.0
H852 H 0.15284 0.37052 0.6958 0.0
H853 H 0.1295 0.39194 0.66696 0.0
C854 C 0.13362 0.42795 0.65458 0.0
C855 C 0.13766 0.44657 0.65023 0.0
C856 C 0.14692 0.41558 0.67175 0.0
C857 C 0.15513 0.45269 0.66383 0.0
C858 C 0.16846 0.44046 0.68055 0.0
C859 C 0.17794 0.40946 0.70038 0.0
C860 C 0.17393 0.39085 0.70465 0.0
C861 C 0.16454 0.42187 0.68435 0.0
C862 C 0.1563 0.38478 0.69282 0.0
C863 C 0.14293 0.39702 0.67628 0.0
H864 H 0.2353 0.21964 0.37745 0.0
H865 H 0.29332 0.22457 0.39694 0.0
H866 H 0.29106 0.2575 0.38765 0.0
H867 H 0.27301 0.28452 0.36545 0.0
H868 H 0.21506 0.27939 0.34443 0.0
H869 H 0.21692 0.24697 0.36349 0.0
C870 C 0.24745 0.22791 0.3802 0.0
C871 C 0.26448 0.2196 0.38713 0.0
C872 C 0.24609 0.24682 0.37429 0.0
C873 C 0.28004 0.23057 0.39123 0.0
C874 C 0.27877 0.24942 0.38581 0.0
C875 C 0.26074 0.27637 0.36573 0.0
C876 C 0.24395 0.28437 0.35283 0.0
C877 C 0.26193 0.25765 0.37602 0.0
C878 C 0.22819 0.2736 0.35378 0.0
C879 C 0.22924 0.25502 0.36454 0.0
H880 H 0.00904 0.00416 0.63273 0.0
H881 H 0.02271 0.95712 0.53795 0.0
H882 H 0.99059 0.95123 0.52223 0.0
H883 H 0.95893 0.96101 0.52819 0.0
H884 H 0.94512 0.00859 0.62027 0.0
H885 H 0.97697 0.01251 0.64481 0.0
C886 C 0.005 0.99249 0.60915 0.0
C887 C 0.01831 0.98124 0.58602 0.0
C888 C 0.98648 0.98932 0.59953 0.0
C889 C 0.01279 0.96612 0.55585 0.0
C890 C 0.99441 0.96273 0.54676 0.0
C891 C 0.96281 0.97213 0.55417 0.0
C892 C 0.94966 0.9846 0.57181 0.0
C893 C 0.98117 0.9745 0.56729 0.0
C894 C 0.95496 0.99884 0.60579 0.0
C895 C 0.9732 0.00114 0.61972 0.0
H896 H 0.21651 0.71872 0.81941 0.0
H897 H 0.27325 0.7079 0.84838 0.0
H898 H 0.27843 0.74001 0.86711 0.0
H899 H 0.26741 0.7715 0.86747 0.0
H900 H 0.21071 0.78227 0.83742 0.0
H901 H 0.20498 0.74983 0.82729 0.0
C902 C 0.22998 0.72333 0.83039 0.0
C903 C 0.2445 0.71092 0.83183 0.0
C904 C 0.23292 0.74185 0.84054 0.0
C905 C 0.26183 0.71714 0.84665 0.0
C906 C 0.26483 0.73553 0.8572 0.0
C907 C 0.25376 0.76676 0.85919 0.0
C908 C 0.23956 0.77935 0.85256 0.0
C909 C 0.25056 0.74807 0.85301 0.0
C910 C 0.22193 0.77292 0.84239 0.0
C911 C 0.21863 0.75435 0.83647 0.0
H912 H 0.47807 0.02782 0.11493 0.0
H913 H 0.48016 0.96986 0.1404 0.0
H914 H 0.51307 0.97032 0.12986 0.0
H915 H 0.54085 0.98666 0.10514 0.0
H916 H 0.53879 0.04457 0.0789 0.0
H917 H 0.50635 0.04463 0.09871 0.0
C918 C 0.48574 0.01531 0.11874 0.0
C919 C 0.4766 0.9988 0.1277 0.0
C920 C 0.50468 0.01563 0.11225 0.0
C921 C 0.48679 0.98276 0.13312 0.0
C922 C 0.50564 0.98298 0.12698 0.0
C923 C 0.53337 0.99934 0.10437 0.0
C924 C 0.54222 0.01553 0.08984 0.0
C925 C 0.51466 0.99927 0.11526 0.0
C926 C 0.53233 0.03187 0.08962 0.0
C927 C 0.51374 0.03192 0.10076 0.0
H928 H 0.27634 0.70243 0.18147 0.0
H929 H 0.21826 0.69921 0.16053 0.0
H930 H 0.21733 0.73128 0.13605 0.0
H931 H 0.23259 0.76085 0.129 0.0
H932 H 0.29063 0.76408 0.15111 0.0
H933 H 0.29196 0.73138 0.1663 0.0
C934 C 0.26349 0.70867 0.17095 0.0
C935 C 0.24737 0.69846 0.17354 0.0
C936 C 0.26301 0.72718 0.15751 0.0
C937 C 0.23087 0.70675 0.15921 0.0
C938 C 0.23031 0.72513 0.14538 0.0
C939 C 0.24557 0.75438 0.13661 0.0
C940 C 0.26145 0.76497 0.13963 0.0
C941 C 0.24623 0.73557 0.14575 0.0
C942 C 0.27816 0.75631 0.14893 0.0
C943 C 0.27895 0.7376 0.15775 0.0
H944 H 0.48302 0.00194 0.35389 0.0
H945 H 0.46355 0.95416 0.43601 0.0
H946 H 0.4947 0.94513 0.45553 0.0
H947 H 0.52717 0.95227 0.45681 0.0
H948 H 0.54669 0.00048 0.37716 0.0
H949 H 0.51582 0.00772 0.34866 0.0
C950 C 0.48558 0.98943 0.3755 0.0
C951 C 0.47092 0.97888 0.39401 0.0
C952 C 0.50354 0.98444 0.38735 0.0
C953 C 0.47453 0.96264 0.42164 0.0
C954 C 0.49236 0.95747 0.43294 0.0
C955 C 0.52474 0.96425 0.43267 0.0
C956 C 0.53922 0.97592 0.41972 0.0
C957 C 0.50693 0.9685 0.41717 0.0
C958 C 0.5358 0.99132 0.38805 0.0
C959 C 0.51813 0.9955 0.37184 0.0
H960 H 0.23316 0.29368 0.66687 0.0
H961 H 0.29134 0.29071 0.6859 0.0
H962 H 0.29068 0.25838 0.66505 0.0
H963 H 0.27332 0.23043 0.65053 0.0
H964 H 0.21509 0.23319 0.63303 0.0
H965 H 0.2161 0.26612 0.64365 0.0
C966 C 0.24574 0.28603 0.66573 0.0
C967 C 0.26224 0.29459 0.67868 0.0
C968 C 0.24525 0.26735 0.65444 0.0
C969 C 0.27841 0.28447 0.67657 0.0
C970 C 0.27806 0.26594 0.66479 0.0
C971 C 0.26085 0.23823 0.64848 0.0
C972 C 0.24413 0.22929 0.64179 0.0
C973 C 0.2615 0.25715 0.65516 0.0
C974 C 0.22815 0.23967 0.63856 0.0
C975 C 0.2287 0.25853 0.64475 0.0
H976 H 0.01799 0.97853 0.83549 0.0
H977 H 0.02597 0.03277 0.89652 0.0
H978 H 0.99347 0.03558 0.9133 0.0
H979 H 0.96331 0.02167 0.91832 0.0
H980 H 0.95538 0.96707 0.86013 0.0
H981 H 0.98729 0.96548 0.83403 0.0
C982 C 0.01261 0.99105 0.85189 0.0
C983 C 0.02446 0.00533 0.86528 0.0
C984 C 0.99391 0.99248 0.86224 0.0
C985 C 0.01721 0.02149 0.88623 0.0
C986 C 0.9986 0.02311 0.89593 0.0
C987 C 0.96848 0.00949 0.89933 0.0
C988 C 0.95698 0.99444 0.89177 0.0
C989 C 0.98691 0.00854 0.88528 0.0
C990 C 0.96393 0.97882 0.86682 0.0
C991 C 0.9822 0.97787 0.85197 0.0
H992 H 0.77918 0.79006 0.79313 0.0
H993 H 0.72466 0.79738 0.85267 0.0
H994 H 0.72308 0.76521 0.87586 0.0
H995 H 0.7362 0.73454 0.87211 0.0
H996 H 0.79062 0.72731 0.81146 0.0
H997 H 0.7932 0.75991 0.7962 0.0
C998 C 0.76701 0.78469 0.81169 0.0
C999 C 0.75199 0.79611 0.82054 0.0
C1000 C 0.76611 0.76614 0.8244 0.0
C1001 C 0.73639 0.78891 0.8451 0.0
C1002 C 0.73545 0.77048 0.85824 0.0
C1003 C 0.7487 0.74011 0.85601 0.0
C1004 C 0.76311 0.72843 0.84236 0.0
C1005 C 0.75007 0.75889 0.84692 0.0
C1006 C 0.77925 0.73593 0.82202 0.0
C1007 C 0.78075 0.75459 0.81317 0.0
H1008 H 0.74803 0.26459 0.38864 0.0
H1009 H 0.80004 0.27236 0.31223 0.0
H1010 H 0.80207 0.23988 0.29443 0.0
H1011 H 0.78797 0.20981 0.29345 0.0
H1012 H 0.73559 0.20197 0.36738 0.0
H1013 H 0.73497 0.23389 0.39382 0.0
C1014 C 0.75991 0.25916 0.36861 0.0
C1015 C 0.77375 0.27096 0.35127 0.0
C1016 C 0.7609 0.24046 0.35781 0.0
C1017 C 0.78909 0.26365 0.32565 0.0
C1018 C 0.79028 0.24506 0.31537 0.0
C1019 C 0.77649 0.215 0.31588 0.0
C1020 C 0.76177 0.20353 0.32787 0.0
C1021 C 0.77608 0.23342 0.33017 0.0
C1022 C 0.74707 0.2105 0.35731 0.0
C1023 C 0.74667 0.22878 0.37232 0.0
H1024 H 0.76415 0.27351 0.6056 0.0
H1025 H 0.71218 0.29112 0.66642 0.0
H1026 H 0.70392 0.25972 0.6856 0.0
H1027 H 0.71245 0.22767 0.69257 0.0
H1028 H 0.7647 0.21002 0.63417 0.0
H1029 H 0.77172 0.241 0.60606 0.0
C1030 C 0.75093 0.27049 0.6225 0.0
C1031 C 0.7389 0.28471 0.63511 0.0
C1032 C 0.74634 0.25239 0.63416 0.0
C1033 C 0.72178 0.28048 0.65668 0.0
C1034 C 0.71704 0.26251 0.66777 0.0
C1035 C 0.7253 0.23053 0.67315 0.0
C1036 C 0.7381 0.21655 0.66607 0.0
C1037 C 0.72937 0.24841 0.65784 0.0
C1038 C 0.75463 0.22052 0.64046 0.0
C1039 C 0.75869 0.23826 0.62448 0.0
H1040 H 0.71602 0.75307 0.11173 0.0
H1041 H 0.77267 0.7428 0.14412 0.0
H1042 H 0.77821 0.77533 0.15234 0.0
H1043 H 0.76647 0.80635 0.15893 0.0
H1044 H 0.70964 0.81664 0.12971 0.0
H1045 H 0.70477 0.78448 0.11096 0.0
C1046 C 0.72963 0.75794 0.11995 0.0
C1047 C 0.74385 0.74547 0.12794 0.0
C1048 C 0.73269 0.77668 0.12547 0.0
C1049 C 0.76142 0.75206 0.13827 0.0
C1050 C 0.76461 0.77068 0.14303 0.0
C1051 C 0.75305 0.80163 0.14775 0.0
C1052 C 0.73841 0.81389 0.14636 0.0
C1053 C 0.75027 0.78307 0.13803 0.0
C1054 C 0.72114 0.80751 0.13149 0.0
C1055 C 0.71833 0.78909 0.1209 0.0
H1056 H 0.51421 0.49678 0.10619 0.0
H1057 H 0.51869 0.44683 0.01684 0.0
H1058 H 0.48603 0.44697 0.00105 0.0
H1059 H 0.45666 0.4624 0.00668 0.0
H1060 H 0.4521 0.51261 0.09458 0.0
H1061 H 0.4843 0.51108 0.11738 0.0
C1062 C 0.50804 0.48583 0.08366 0.0
C1063 C 0.51895 0.47192 0.06227 0.0
C1064 C 0.48923 0.48606 0.07431 0.0
C1065 C 0.51067 0.45778 0.03353 0.0
C1066 C 0.49197 0.45785 0.02438 0.0
C1067 C 0.46263 0.47293 0.0313 0.0
C1068 C 0.45199 0.48769 0.04842 0.0
C1069 C 0.48119 0.47209 0.04369 0.0
C1070 C 0.45997 0.50114 0.08063 0.0
C1071 C 0.47841 0.50031 0.09355 0.0
H1072 H 0.96287 0.50282 0.56023 0.0
H1073 H 0.96915 0.44925 0.49267 0.0
H1074 H 0.00182 0.45064 0.50786 0.0
H1075 H 0.02878 0.46767 0.53552 0.0
H1076 H 0.02268 0.52118 0.60351 0.0
H1077 H 0.98976 0.51907 0.59359 0.0
C1078 C 0.97138 0.49142 0.54901 0.0
C1079 C 0.96357 0.47603 0.52484 0.0
C1080 C 0.99019 0.49227 0.55798 0.0
C1081 C 0.97478 0.4613 0.51114 0.0
C1082 C 0.99349 0.46207 0.51977 0.0
C1083 C 0.02026 0.47882 0.54865 0.0
C1084 C 0.02823 0.49462 0.5698 0.0
C1085 C 0.00136 0.47758 0.54249 0.0
C1086 C 0.01694 0.50887 0.58699 0.0
C1087 C 0.9981 0.50771 0.58111 0.0
H1088 H 0.04777 0.494 0.94915 0.0
H1089 H 0.02893 0.49148 0.11232 0.0
H1090 H 0.99829 0.4847 0.08159 0.0
H1091 H 0.97671 0.47966 0.00853 0.0
H1092 H 0.99547 0.48225 0.84532 0.0
H1093 H 0.02619 0.48878 0.87602 0.0
C1094 C 0.03697 0.49196 0.97799 0.0
C1095 C 0.04068 0.49327 0.03293 0.0
C1096 C 0.01932 0.48806 0.9601 0.0
C1097 C 0.0265 0.49057 0.06975 0.0
C1098 C 0.00893 0.48668 0.05226 0.0
C1099 C 0.98751 0.48163 0.97966 0.0
C1100 C 0.98375 0.48047 0.92473 0.0
C1101 C 0.00518 0.48542 0.99754 0.0
C1102 C 0.99794 0.48306 0.88788 0.0
C1103 C 0.01555 0.48681 0.90537 0.0
H1104 H 0.52222 0.48795 0.35724 0.0
H1105 H 0.54126 0.53677 0.43456 0.0
H1106 H 0.51001 0.54621 0.45085 0.0
H1107 H 0.47748 0.53948 0.44968 0.0
H1108 H 0.45829 0.49035 0.37458 0.0
H1109 H 0.4894 0.48229 0.35042 0.0
C1110 C 0.51955 0.50075 0.37717 0.0
C1111 C 0.5341 0.51153 0.39512 0.0
C1112 C 0.50152 0.50601 0.38706 0.0
C1113 C 0.53035 0.52812 0.42064 0.0
C1114 C 0.51247 0.53354 0.43006 0.0
C1115 C 0.48004 0.52709 0.42753 0.0
C1116 C 0.46556 0.51546 0.41445 0.0
C1117 C 0.49797 0.52241 0.41446 0.0
C1118 C 0.46917 0.49952 0.38543 0.0
C1119 C 0.48698 0.49487 0.37172 0.0
loop_
_geom_bond_atom_site_label_1
_geom_bond_atom_site_label_2
_geom_bond_distance
_geom_bond_site_symmetry_2
_ccdc_geom_bond_type
O0 Cd1 2.300 . S
O0 C7 1.275 . S
Cd1 O0 2.300 . S
Cd1 O9 2.381 . S
Cd1 O10 2.378 . S
O2 Cd3 2.385 . S
O2 C7 1.255 . S
Cd3 O2 2.385 . S
Cd3 O4 2.317 . S
O4 Cd3 2.317 . S
O4 C5 1.232 . S
C5 O4 1.232 . S
C5 O6 1.218 . S
O6 C5 1.218 . S
C7 O0 1.275 . S
C7 O2 1.255 . S
C8 O9 1.258 . S
C8 O10 1.256 . S
O9 Cd1 2.381 . S
O9 C8 1.258 . S
O10 Cd1 2.378 . S
O10 C8 1.256 . S
O11 Cd12 2.300 . S
O11 C18 1.275 . S
Cd12 O11 2.300 . S
Cd12 O20 2.381 . S
Cd12 O21 2.378 . S
O13 Cd14 2.385 . S
O13 C18 1.255 . S
Cd14 O13 2.385 . S
Cd14 O15 2.317 . S
O15 Cd14 2.317 . S
O15 C16 1.232 . S
C16 O15 1.232 . S
C16 O17 1.218 . S
O17 C16 1.218 . S
C18 O11 1.275 . S
C18 O13 1.255 . S
C19 O20 1.258 . S
C19 O21 1.256 . S
O20 Cd12 2.381 . S
O20 C19 1.258 . S
O21 Cd12 2.378 . S
O21 C19 1.256 . S
O22 Cd23 2.300 . S
O22 C29 1.275 . S
Cd23 O22 2.300 . S
Cd23 O31 2.381 . S
Cd23 O32 2.378 . S
O24 Cd25 2.385 . S
O24 C29 1.255 . S
Cd25 O24 2.385 . S
Cd25 O26 2.317 . S
O26 Cd25 2.317 . S
O26 C27 1.232 . S
C27 O26 1.232 . S
C27 O28 1.218 . S
O28 C27 1.218 . S
C29 O22 1.275 . S
C29 O24 1.255 . S
C30 O31 1.258 . S
C30 O32 1.256 . S
O31 Cd23 2.381 . S
O31 C30 1.258 . S
O32 Cd23 2.378 . S
O32 C30 1.256 . S
O33 Cd34 2.300 . S
O33 C40 1.275 . S
Cd34 O33 2.300 . S
Cd34 O42 2.381 1_554 S
Cd34 O43 2.378 1_554 S
O35 Cd36 2.385 . S
O35 C40 1.255 . S
Cd36 O35 2.385 . S
Cd36 O37 2.317 1_554 S
O37 Cd36 2.317 1_556 S
O37 C38 1.232 1_556 S
C38 O37 1.232 1_554 S
C38 O39 1.218 . S
O39 C38 1.218 . S
C40 O33 1.275 . S
C40 O35 1.255 . S
C41 O42 1.258 . S
C41 O43 1.256 . S
O42 Cd34 2.381 1_556 S
O42 C41 1.258 . S
O43 Cd34 2.378 1_556 S
O43 C41 1.256 . S
O44 Cd45 2.300 . S
O44 C51 1.275 . S
Cd45 O44 2.300 . S
Cd45 O53 2.381 . S
Cd45 O54 2.378 . S
O46 Cd47 2.385 . S
O46 C51 1.255 . S
Cd47 O46 2.385 . S
Cd47 O48 2.317 . S
O48 Cd47 2.317 . S
O48 C49 1.232 . S
C49 O48 1.232 . S
C49 O50 1.218 . S
O50 C49 1.218 . S
C51 O44 1.275 . S
C51 O46 1.255 . S
C52 O53 1.258 . S
C52 O54 1.256 . S
O53 Cd45 2.381 . S
O53 C52 1.258 . S
O54 Cd45 2.378 . S
O54 C52 1.256 . S
O55 Cd56 2.300 . S
O55 C62 1.275 . S
Cd56 O55 2.300 . S
Cd56 O64 2.381 . S
Cd56 O65 2.378 . S
O57 Cd58 2.385 . S
O57 C62 1.255 . S
Cd58 O57 2.385 . S
Cd58 O59 2.317 . S
O59 Cd58 2.317 . S
O59 C60 1.232 . S
C60 O59 1.232 . S
C60 O61 1.218 . S
O61 C60 1.218 . S
C62 O55 1.275 . S
C62 O57 1.255 . S
C63 O64 1.258 . S
C63 O65 1.256 . S
O64 Cd56 2.381 . S
O64 C63 1.258 . S
O65 Cd56 2.378 . S
O65 C63 1.256 . S
O66 Cd67 2.300 . S
O66 C73 1.275 . S
Cd67 O66 2.300 . S
Cd67 O75 2.381 . S
Cd67 O76 2.378 . S
O68 Cd69 2.385 . S
O68 C73 1.255 . S
Cd69 O68 2.385 . S
Cd69 O70 2.317 . S
O70 Cd69 2.317 . S
O70 C71 1.232 . S
C71 O70 1.232 . S
C71 O72 1.218 . S
O72 C71 1.218 . S
C73 O66 1.275 . S
C73 O68 1.255 . S
C74 O75 1.258 . S
C74 O76 1.256 . S
O75 Cd67 2.381 . S
O75 C74 1.258 . S
O76 Cd67 2.378 . S
O76 C74 1.256 . S
O77 Cd78 2.300 . S
O77 C84 1.275 . S
Cd78 O77 2.300 . S
Cd78 O86 2.381 1_556 S
Cd78 O87 2.378 1_556 S
O79 Cd80 2.385 . S
O79 C84 1.255 . S
Cd80 O79 2.385 . S
Cd80 O81 2.317 1_556 S
O81 Cd80 2.317 1_554 S
O81 C82 1.232 1_554 S
C82 O81 1.232 1_556 S
C82 O83 1.218 . S
O83 C82 1.218 . S
C84 O77 1.275 . S
C84 O79 1.255 . S
C85 O86 1.258 . S
C85 O87 1.256 . S
O86 Cd78 2.381 1_554 S
O86 C85 1.258 . S
O87 Cd78 2.378 1_554 S
O87 C85 1.256 . S
O88 Cd89 2.300 . S
O88 C95 1.275 . S
Cd89 O88 2.300 . S
Cd89 O97 2.381 . S
Cd89 O98 2.378 . S
O90 Cd91 2.385 . S
O90 C95 1.255 . S
Cd91 O90 2.385 . S
Cd91 O92 2.317 . S
O92 Cd91 2.317 . S
O92 C93 1.232 . S
C93 O92 1.232 . S
C93 O94 1.218 . S
O94 C93 1.218 . S
C95 O88 1.275 . S
C95 O90 1.255 . S
C96 O97 1.258 . S
C96 O98 1.256 . S
O97 Cd89 2.381 . S
O97 C96 1.258 . S
O98 Cd89 2.378 . S
O98 C96 1.256 . S
O99 Cd100 2.300 . S
O99 C106 1.275 . S
Cd100 O99 2.300 . S
Cd100 O108 2.381 . S
Cd100 O109 2.378 . S
O101 Cd102 2.385 . S
O101 C106 1.255 1_565 S
Cd102 O101 2.385 . S
Cd102 O103 2.317 . S
O103 Cd102 2.317 . S
O103 C104 1.232 . S
C104 O103 1.232 . S
C104 O105 1.218 . S
O105 C104 1.218 . S
C106 O99 1.275 . S
C106 O101 1.255 1_545 S
C107 O108 1.258 . S
C107 O109 1.256 . S
O108 Cd100 2.381 . S
O108 C107 1.258 . S
O109 Cd100 2.378 . S
O109 C107 1.256 . S
O110 Cd111 2.300 . S
O110 C117 1.275 . S
Cd111 O110 2.300 . S
Cd111 O119 2.381 . S
Cd111 O120 2.378 . S
O112 Cd113 2.385 . S
O112 C117 1.255 . S
Cd113 O112 2.385 . S
Cd113 O114 2.317 . S
O114 Cd113 2.317 . S
O114 C115 1.232 . S
C115 O114 1.232 . S
C115 O116 1.218 . S
O116 C115 1.218 . S
C117 O110 1.275 . S
C117 O112 1.255 . S
C118 O119 1.258 . S
C118 O120 1.256 . S
O119 Cd111 2.381 . S
O119 C118 1.258 . S
O120 Cd111 2.378 . S
O120 C118 1.256 . S
O121 Cd122 2.300 1_556 S
O121 C128 1.275 . S
Cd122 O121 2.300 1_554 S
Cd122 O130 2.381 . S
Cd122 O131 2.378 . S
O123 Cd124 2.385 1_556 S
O123 C128 1.255 1_545 S
Cd124 O123 2.385 1_554 S
Cd124 O125 2.317 . S
O125 Cd124 2.317 . S
O125 C126 1.232 . S
C126 O125 1.232 . S
C126 O127 1.218 1_554 S
O127 C126 1.218 1_556 S
C128 O121 1.275 . S
C128 O123 1.255 1_565 S
C129 O130 1.258 . S
C129 O131 1.256 . S
O130 Cd122 2.381 . S
O130 C129 1.258 . S
O131 Cd122 2.378 . S
O131 C129 1.256 . S
O132 Cd133 2.300 . S
O132 C139 1.275 . S
Cd133 O132 2.300 . S
Cd133 O141 2.381 . S
Cd133 O142 2.378 . S
O134 Cd135 2.385 . S
O134 C139 1.255 . S
Cd135 O134 2.385 . S
Cd135 O136 2.317 . S
O136 Cd135 2.317 . S
O136 C137 1.232 . S
C137 O136 1.232 . S
C137 O138 1.218 . S
O138 C137 1.218 . S
C139 O132 1.275 . S
C139 O134 1.255 . S
C140 O141 1.258 . S
C140 O142 1.256 . S
O141 Cd133 2.381 . S
O141 C140 1.258 . S
O142 Cd133 2.378 . S
O142 C140 1.256 . S
O143 Cd144 2.300 . S
O143 C150 1.275 . S
Cd144 O143 2.300 . S
Cd144 O152 2.381 . S
Cd144 O153 2.378 . S
O145 Cd146 2.385 . S
O145 C150 1.255 1_565 S
Cd146 O145 2.385 . S
Cd146 O147 2.317 . S
O147 Cd146 2.317 . S
O147 C148 1.232 . S
C148 O147 1.232 . S
C148 O149 1.218 . S
O149 C148 1.218 . S
C150 O143 1.275 . S
C150 O145 1.255 1_545 S
C151 O152 1.258 . S
C151 O153 1.256 . S
O152 Cd144 2.381 . S
O152 C151 1.258 . S
O153 Cd144 2.378 . S
O153 C151 1.256 . S
O154 Cd155 2.300 . S
O154 C161 1.275 . S
Cd155 O154 2.300 . S
Cd155 O163 2.381 . S
Cd155 O164 2.378 . S
O156 Cd157 2.385 . S
O156 C161 1.255 . S
Cd157 O156 2.385 . S
Cd157 O158 2.317 . S
O158 Cd157 2.317 . S
O158 C159 1.232 . S
C159 O158 1.232 . S
C159 O160 1.218 . S
O160 C159 1.218 . S
C161 O154 1.275 . S
C161 O156 1.255 . S
C162 O163 1.258 . S
C162 O164 1.256 . S
O163 Cd155 2.381 . S
O163 C162 1.258 . S
O164 Cd155 2.378 . S
O164 C162 1.256 . S
O165 Cd166 2.300 1_554 S
O165 C172 1.275 . S
Cd166 O165 2.300 1_556 S
Cd166 O174 2.381 . S
Cd166 O175 2.378 . S
O167 Cd168 2.385 1_554 S
O167 C172 1.255 1_545 S
Cd168 O167 2.385 1_556 S
Cd168 O169 2.317 . S
O169 Cd168 2.317 . S
O169 C170 1.232 . S
C170 O169 1.232 . S
C170 O171 1.218 1_556 S
O171 C170 1.218 1_554 S
C172 O165 1.275 . S
C172 O167 1.255 1_565 S
C173 O174 1.258 . S
C173 O175 1.256 . S
O174 Cd166 2.381 . S
O174 C173 1.258 . S
O175 Cd166 2.378 . S
O175 C173 1.256 . S
O176 Cd177 2.300 . S
O176 C183 1.275 . S
Cd177 O176 2.300 . S
Cd177 O185 2.381 . S
Cd177 O186 2.378 . S
O178 Cd179 2.385 . S
O178 C183 1.255 . S
Cd179 O178 2.385 . S
Cd179 O180 2.317 . S
O180 Cd179 2.317 . S
O180 C181 1.232 . S
C181 O180 1.232 . S
C181 O182 1.218 . S
O182 C181 1.218 . S
C183 O176 1.275 . S
C183 O178 1.255 . S
C184 O185 1.258 . S
C184 O186 1.256 . S
O185 Cd177 2.381 . S
O185 C184 1.258 . S
O186 Cd177 2.378 . S
O186 C184 1.256 . S
O187 Cd188 2.300 . S
O187 C194 1.275 . S
Cd188 O187 2.300 . S
Cd188 O196 2.381 1_554 S
Cd188 O197 2.378 1_554 S
O189 Cd190 2.385 . S
O189 C194 1.255 . S
Cd190 O189 2.385 . S
Cd190 O191 2.317 1_554 S
O191 Cd190 2.317 1_556 S
O191 C192 1.232 1_556 S
C192 O191 1.232 1_554 S
C192 O193 1.218 . S
O193 C192 1.218 . S
C194 O187 1.275 . S
C194 O189 1.255 . S
C195 O196 1.258 . S
C195 O197 1.256 . S
O196 Cd188 2.381 1_556 S
O196 C195 1.258 . S
O197 Cd188 2.378 1_556 S
O197 C195 1.256 . S
O198 Cd199 2.300 . S
O198 C205 1.275 . S
Cd199 O198 2.300 . S
Cd199 O207 2.381 . S
Cd199 O208 2.378 . S
O200 Cd201 2.385 . S
O200 C205 1.255 . S
Cd201 O200 2.385 . S
Cd201 O202 2.317 . S
O202 Cd201 2.317 . S
O202 C203 1.232 . S
C203 O202 1.232 . S
C203 O204 1.218 . S
O204 C203 1.218 . S
C205 O198 1.275 . S
C205 O200 1.255 . S
C206 O207 1.258 . S
C206 O208 1.256 . S
O207 Cd199 2.381 . S
O207 C206 1.258 . S
O208 Cd199 2.378 . S
O208 C206 1.256 . S
O209 Cd210 2.300 . S
O209 C216 1.275 . S
Cd210 O209 2.300 . S
Cd210 O218 2.381 . S
Cd210 O219 2.378 . S
O211 Cd212 2.385 . S
O211 C216 1.255 . S
Cd212 O211 2.385 . S
Cd212 O213 2.317 . S
O213 Cd212 2.317 . S
O213 C214 1.232 . S
C214 O213 1.232 . S
C214 O215 1.218 . S
O215 C214 1.218 . S
C216 O209 1.275 . S
C216 O211 1.255 . S
C217 O218 1.258 . S
C217 O219 1.256 . S
O218 Cd210 2.381 . S
O218 C217 1.258 . S
O219 Cd210 2.378 . S
O219 C217 1.256 . S
O220 Cd221 2.300 . S
O220 C227 1.275 . S
Cd221 O220 2.300 . S
Cd221 O229 2.381 . S
Cd221 O230 2.378 . S
O222 Cd223 2.385 . S
O222 C227 1.255 . S
Cd223 O222 2.385 . S
Cd223 O224 2.317 . S
O224 Cd223 2.317 . S
O224 C225 1.232 . S
C225 O224 1.232 . S
C225 O226 1.218 . S
O226 C225 1.218 . S
C227 O220 1.275 . S
C227 O222 1.255 . S
C228 O229 1.258 . S
C228 O230 1.256 . S
O229 Cd221 2.381 . S
O229 C228 1.258 . S
O230 Cd221 2.378 . S
O230 C228 1.256 . S
O231 Cd232 2.300 . S
O231 C238 1.275 . S
Cd232 O231 2.300 . S
Cd232 O240 2.381 1_556 S
Cd232 O241 2.378 1_556 S
O233 Cd234 2.385 . S
O233 C238 1.255 . S
Cd234 O233 2.385 . S
Cd234 O235 2.317 1_556 S
O235 Cd234 2.317 1_554 S
O235 C236 1.232 1_554 S
C236 O235 1.232 1_556 S
C236 O237 1.218 . S
O237 C236 1.218 . S
C238 O231 1.275 . S
C238 O233 1.255 . S
C239 O240 1.258 . S
C239 O241 1.256 . S
O240 Cd232 2.381 1_554 S
O240 C239 1.258 . S
O241 Cd232 2.378 1_554 S
O241 C239 1.256 . S
O242 Cd243 2.300 . S
O242 C249 1.275 . S
Cd243 O242 2.300 . S
Cd243 O251 2.381 . S
Cd243 O252 2.378 . S
O244 Cd245 2.385 . S
O244 C249 1.255 . S
Cd245 O244 2.385 . S
Cd245 O246 2.317 . S
O246 Cd245 2.317 . S
O246 C247 1.232 . S
C247 O246 1.232 . S
C247 O248 1.218 . S
O248 C247 1.218 . S
C249 O242 1.275 . S
C249 O244 1.255 . S
C250 O251 1.258 . S
C250 O252 1.256 . S
O251 Cd243 2.381 . S
O251 C250 1.258 . S
O252 Cd243 2.378 . S
O252 C250 1.256 . S
O253 Cd254 2.300 . S
O253 C260 1.275 . S
Cd254 O253 2.300 . S
Cd254 O262 2.381 . S
Cd254 O263 2.378 . S
O255 Cd256 2.385 . S
O255 C260 1.255 . S
Cd256 O255 2.385 . S
Cd256 O257 2.317 . S
O257 Cd256 2.317 . S
O257 C258 1.232 . S
C258 O257 1.232 . S
C258 O259 1.218 . S
O259 C258 1.218 . S
C260 O253 1.275 . S
C260 O255 1.255 . S
C261 O262 1.258 . S
C261 O263 1.256 . S
O262 Cd254 2.381 . S
O262 C261 1.258 . S
O263 Cd254 2.378 . S
O263 C261 1.256 . S
O264 Cd265 2.300 . S
O264 C271 1.275 . S
Cd265 O264 2.300 . S
Cd265 O273 2.381 . S
Cd265 O274 2.378 . S
O266 Cd267 2.385 . S
O266 C271 1.255 . S
Cd267 O266 2.385 . S
Cd267 O268 2.317 . S
O268 Cd267 2.317 . S
O268 C269 1.232 . S
C269 O268 1.232 . S
C269 O270 1.218 . S
O270 C269 1.218 . S
C271 O264 1.275 . S
C271 O266 1.255 . S
C272 O273 1.258 . S
C272 O274 1.256 . S
O273 Cd265 2.381 . S
O273 C272 1.258 . S
O274 Cd265 2.378 . S
O274 C272 1.256 . S
O275 Cd276 2.300 1_556 S
O275 C282 1.275 . S
Cd276 O275 2.300 1_554 S
Cd276 O284 2.381 . S
Cd276 O285 2.378 . S
O277 Cd278 2.385 1_556 S
O277 C282 1.255 . S
Cd278 O277 2.385 1_554 S
Cd278 O279 2.317 . S
O279 Cd278 2.317 . S
O279 C280 1.232 . S
C280 O279 1.232 . S
C280 O281 1.218 1_554 S
O281 C280 1.218 1_556 S
C282 O275 1.275 . S
C282 O277 1.255 . S
C283 O284 1.258 . S
C283 O285 1.256 . S
O284 Cd276 2.381 . S
O284 C283 1.258 . S
O285 Cd276 2.378 . S
O285 C283 1.256 . S
O286 Cd287 2.300 . S
O286 C293 1.275 . S
Cd287 O286 2.300 . S
Cd287 O295 2.381 . S
Cd287 O296 2.378 . S
O288 Cd289 2.385 . S
O288 C293 1.255 . S
Cd289 O288 2.385 . S
Cd289 O290 2.317 . S
O290 Cd289 2.317 . S
O290 C291 1.232 . S
C291 O290 1.232 . S
C291 O292 1.218 . S
O292 C291 1.218 . S
C293 O286 1.275 . S
C293 O288 1.255 . S
C294 O295 1.258 . S
C294 O296 1.256 . S
O295 Cd287 2.381 . S
O295 C294 1.258 . S
O296 Cd287 2.378 . S
O296 C294 1.256 . S
O297 Cd298 2.300 . S
O297 C304 1.275 . S
Cd298 O297 2.300 . S
Cd298 O306 2.381 . S
Cd298 O307 2.378 . S
O299 Cd300 2.385 . S
O299 C304 1.255 . S
Cd300 O299 2.385 . S
Cd300 O301 2.317 . S
O301 Cd300 2.317 . S
O301 C302 1.232 . S
C302 O301 1.232 . S
C302 O303 1.218 . S
O303 C302 1.218 . S
C304 O297 1.275 . S
C304 O299 1.255 . S
C305 O306 1.258 . S
C305 O307 1.256 . S
O306 Cd298 2.381 . S
O306 C305 1.258 . S
O307 Cd298 2.378 . S
O307 C305 1.256 . S
O308 Cd309 2.300 . S
O308 C315 1.275 . S
Cd309 O308 2.300 . S
Cd309 O317 2.381 . S
Cd309 O318 2.378 . S
O310 Cd311 2.385 . S
O310 C315 1.255 . S
Cd311 O310 2.385 . S
Cd311 O312 2.317 . S
O312 Cd311 2.317 . S
O312 C313 1.232 . S
C313 O312 1.232 . S
C313 O314 1.218 . S
O314 C313 1.218 . S
C315 O308 1.275 . S
C315 O310 1.255 . S
C316 O317 1.258 . S
C316 O318 1.256 . S
O317 Cd309 2.381 . S
O317 C316 1.258 . S
O318 Cd309 2.378 . S
O318 C316 1.256 . S
O319 Cd320 2.300 1_554 S
O319 C326 1.275 . S
Cd320 O319 2.300 1_556 S
Cd320 O328 2.381 . S
Cd320 O329 2.378 . S
O321 Cd322 2.385 1_554 S
O321 C326 1.255 . S
Cd322 O321 2.385 1_556 S
Cd322 O323 2.317 . S
O323 Cd322 2.317 . S
O323 C324 1.232 . S
C324 O323 1.232 . S
C324 O325 1.218 1_556 S
O325 C324 1.218 1_554 S
C326 O319 1.275 . S
C326 O321 1.255 . S
C327 O328 1.258 . S
C327 O329 1.256 . S
O328 Cd320 2.381 . S
O328 C327 1.258 . S
O329 Cd320 2.378 . S
O329 C327 1.256 . S
O330 Cd331 2.300 . S
O330 C337 1.275 . S
Cd331 O330 2.300 . S
Cd331 O339 2.381 . S
Cd331 O340 2.378 . S
O332 Cd333 2.385 . S
O332 C337 1.255 . S
Cd333 O332 2.385 . S
Cd333 O334 2.317 . S
O334 Cd333 2.317 . S
O334 C335 1.232 . S
C335 O334 1.232 . S
C335 O336 1.218 . S
O336 C335 1.218 . S
C337 O330 1.275 . S
C337 O332 1.255 . S
C338 O339 1.258 . S
C338 O340 1.256 . S
O339 Cd331 2.381 . S
O339 C338 1.258 . S
O340 Cd331 2.378 . S
O340 C338 1.256 . S
O341 Cd342 2.300 . S
O341 C348 1.275 . S
Cd342 O341 2.300 . S
Cd342 O350 2.381 . S
Cd342 O351 2.378 . S
O343 Cd344 2.385 . S
O343 C348 1.255 . S
Cd344 O343 2.385 . S
Cd344 O345 2.317 . S
O345 Cd344 2.317 . S
O345 C346 1.232 . S
C346 O345 1.232 . S
C346 O347 1.218 . S
O347 C346 1.218 . S
C348 O341 1.275 . S
C348 O343 1.255 . S
C349 O350 1.258 . S
C349 O351 1.256 . S
O350 Cd342 2.381 . S
O350 C349 1.258 . S
O351 Cd342 2.378 . S
O351 C349 1.256 . S
H352 C358 0.930 . S
H353 C361 0.930 . S
H354 C362 0.930 . S
H355 C363 0.930 . S
H356 C366 0.930 . S
H357 C367 0.930 . S
C358 H352 0.930 . S
C358 C359 1.355 . S
C358 C360 1.415 . S
C359 C358 1.355 . S
C359 C361 1.419 . S
C360 C358 1.415 . S
C360 C365 1.425 . S
C360 C367 1.409 . S
C361 H353 0.930 . S
C361 C359 1.419 . S
C361 C362 1.362 . S
C362 H354 0.930 . S
C362 C361 1.362 . S
C362 C365 1.409 . S
C363 H355 0.930 . S
C363 C364 1.355 . S
C363 C365 1.415 . S
C364 C363 1.355 . S
C364 C366 1.419 . S
C365 C360 1.425 . S
C365 C362 1.409 . S
C365 C363 1.415 . S
C366 H356 0.930 . S
C366 C364 1.419 . S
C366 C367 1.362 . S
C367 H357 0.930 . S
C367 C360 1.409 . S
C367 C366 1.362 . S
H368 C374 0.930 . S
H369 C377 0.930 . S
H370 C378 0.930 . S
H371 C379 0.930 . S
H372 C382 0.930 . S
H373 C383 0.930 . S
C374 H368 0.930 . S
C374 C375 1.357 . S
C374 C376 1.415 . S
C375 C374 1.357 . S
C375 C377 1.416 1_565 S
C376 C374 1.415 . S
C376 C381 1.425 1_565 S
C376 C383 1.409 . S
C377 H369 0.930 . S
C377 C375 1.416 1_545 S
C377 C378 1.362 . S
C378 H370 0.930 . S
C378 C377 1.362 . S
C378 C381 1.409 . S
C379 H371 0.930 . S
C379 C380 1.357 . S
C379 C381 1.415 . S
C380 C379 1.357 . S
C380 C382 1.416 1_545 S
C381 C376 1.425 1_545 S
C381 C378 1.409 . S
C381 C379 1.415 . S
C382 H372 0.930 . S
C382 C380 1.416 1_565 S
C382 C383 1.362 . S
C383 H373 0.930 . S
C383 C376 1.409 . S
C383 C382 1.362 . S
H384 C390 0.930 . S
H385 C393 0.930 . S
H386 C394 0.930 . S
H387 C395 0.930 . S
H388 C398 0.930 . S
H389 C399 0.930 . S
C390 H384 0.930 . S
C390 C391 1.355 . S
C390 C392 1.415 . S
C391 C390 1.355 . S
C391 C393 1.419 . S
C392 C390 1.415 . S
C392 C397 1.425 1_556 S
C392 C399 1.409 1_556 S
C393 H385 0.930 . S
C393 C391 1.419 . S
C393 C394 1.362 . S
C394 H386 0.930 . S
C394 C393 1.362 . S
C394 C397 1.409 1_556 S
C395 H387 0.930 . S
C395 C396 1.355 . S
C395 C397 1.415 . S
C396 C395 1.355 . S
C396 C398 1.419 . S
C397 C392 1.425 1_554 S
C397 C394 1.409 1_554 S
C397 C395 1.415 . S
C398 H388 0.930 . S
C398 C396 1.419 . S
C398 C399 1.362 . S
C399 H389 0.930 . S
C399 C392 1.409 1_554 S
C399 C398 1.362 . S
H400 C406 0.930 . S
H401 C409 0.930 . S
H402 C410 0.930 . S
H403 C411 0.930 . S
H404 C414 0.930 . S
H405 C415 0.930 . S
C406 H400 0.930 . S
C406 C407 1.355 1_545 S
C406 C408 1.415 . S
C407 C406 1.355 1_565 S
C407 C409 1.419 . S
C408 C406 1.415 . S
C408 C413 1.425 1_545 S
C408 C415 1.409 . S
C409 H401 0.930 . S
C409 C407 1.419 . S
C409 C410 1.362 . S
C410 H402 0.930 . S
C410 C409 1.362 . S
C410 C413 1.409 . S
C411 H403 0.930 . S
C411 C412 1.355 1_565 S
C411 C413 1.415 . S
C412 C411 1.355 1_545 S
C412 C414 1.419 . S
C413 C408 1.425 1_565 S
C413 C410 1.409 . S
C413 C411 1.415 . S
C414 H404 0.930 . S
C414 C412 1.419 . S
C414 C415 1.362 . S
C415 H405 0.930 . S
C415 C408 1.409 . S
C415 C414 1.362 . S
H416 C422 0.930 . S
H417 C425 0.930 . S
H418 C426 0.930 . S
H419 C427 0.930 . S
H420 C430 0.930 . S
H421 C431 0.930 . S
C422 H416 0.930 . S
C422 C423 1.355 . S
C422 C424 1.415 . S
C423 C422 1.355 . S
C423 C425 1.419 . S
C424 C422 1.415 . S
C424 C429 1.425 . S
C424 C431 1.409 . S
C425 H417 0.930 . S
C425 C423 1.419 . S
C425 C426 1.362 . S
C426 H418 0.930 . S
C426 C425 1.362 . S
C426 C429 1.409 . S
C427 H419 0.930 . S
C427 C428 1.355 . S
C427 C429 1.415 . S
C428 C427 1.355 . S
C428 C430 1.419 . S
C429 C424 1.425 . S
C429 C426 1.409 . S
C429 C427 1.415 . S
C430 H420 0.930 . S
C430 C428 1.419 . S
C430 C431 1.362 . S
C431 H421 0.930 . S
C431 C424 1.409 . S
C431 C430 1.362 . S
H432 C438 0.930 . S
H433 C441 0.930 . S
H434 C442 0.930 . S
H435 C443 0.930 . S
H436 C446 0.930 . S
H437 C447 0.930 . S
C438 H432 0.930 . S
C438 C439 1.355 1_545 S
C438 C440 1.415 . S
C439 C438 1.355 1_565 S
C439 C441 1.419 . S
C440 C438 1.415 . S
C440 C445 1.425 1_545 S
C440 C447 1.409 . S
C441 H433 0.930 . S
C441 C439 1.419 . S
C441 C442 1.362 . S
C442 H434 0.930 . S
C442 C441 1.362 . S
C442 C445 1.409 . S
C443 H435 0.930 . S
C443 C444 1.355 1_565 S
C443 C445 1.415 . S
C444 C443 1.355 1_545 S
C444 C446 1.419 . S
C445 C440 1.425 1_565 S
C445 C442 1.409 . S
C445 C443 1.415 . S
C446 H436 0.930 . S
C446 C444 1.419 . S
C446 C447 1.362 . S
C447 H437 0.930 . S
C447 C440 1.409 . S
C447 C446 1.362 . S
H448 C454 0.930 . S
H449 C457 0.930 . S
H450 C458 0.930 . S
H451 C459 0.930 . S
H452 C462 0.930 . S
H453 C463 0.930 . S
C454 H448 0.930 . S
C454 C455 1.355 . S
C454 C456 1.415 . S
C455 C454 1.355 . S
C455 C457 1.419 . S
C456 C454 1.415 . S
C456 C461 1.425 1_556 S
C456 C463 1.409 1_556 S
C457 H449 0.930 . S
C457 C455 1.419 . S
C457 C458 1.362 . S
C458 H450 0.930 . S
C458 C457 1.362 . S
C458 C461 1.409 1_556 S
C459 H451 0.930 . S
C459 C460 1.355 . S
C459 C461 1.415 . S
C460 C459 1.355 . S
C460 C462 1.419 . S
C461 C456 1.425 1_554 S
C461 C458 1.409 1_554 S
C461 C459 1.415 . S
C462 H452 0.930 . S
C462 C460 1.419 . S
C462 C463 1.362 . S
C463 H453 0.930 . S
C463 C456 1.409 1_554 S
C463 C462 1.362 . S
H464 C470 0.930 . S
H465 C473 0.930 . S
H466 C474 0.930 . S
H467 C475 0.930 . S
H468 C478 0.930 . S
H469 C479 0.930 . S
C470 H464 0.930 . S
C470 C471 1.355 1_545 S
C470 C472 1.415 . S
C471 C470 1.355 1_565 S
C471 C473 1.419 . S
C472 C470 1.415 . S
C472 C477 1.425 1_545 S
C472 C479 1.409 . S
C473 H465 0.930 . S
C473 C471 1.419 . S
C473 C474 1.362 . S
C474 H466 0.930 . S
C474 C473 1.362 . S
C474 C477 1.409 . S
C475 H467 0.930 . S
C475 C476 1.355 1_565 S
C475 C477 1.415 . S
C476 C475 1.355 1_545 S
C476 C478 1.419 . S
C477 C472 1.425 1_565 S
C477 C474 1.409 . S
C477 C475 1.415 . S
C478 H468 0.930 . S
C478 C476 1.419 . S
C478 C479 1.362 . S
C479 H469 0.930 . S
C479 C472 1.409 . S
C479 C478 1.362 . S
H480 C486 0.930 . S
H481 C489 0.930 . S
H482 C490 0.930 . S
H483 C491 0.930 . S
H484 C494 0.930 . S
H485 C495 0.930 . S
C486 H480 0.930 . S
C486 C487 1.355 . S
C486 C488 1.415 . S
C487 C486 1.355 . S
C487 C489 1.419 . S
C488 C486 1.415 . S
C488 C493 1.425 1_554 S
C488 C495 1.409 1_554 S
C489 H481 0.930 . S
C489 C487 1.419 . S
C489 C490 1.362 . S
C490 H482 0.930 . S
C490 C489 1.362 . S
C490 C493 1.409 1_554 S
C491 H483 0.930 . S
C491 C492 1.355 . S
C491 C493 1.415 . S
C492 C491 1.355 . S
C492 C494 1.419 . S
C493 C488 1.425 1_556 S
C493 C490 1.409 1_556 S
C493 C491 1.415 . S
C494 H484 0.930 . S
C494 C492 1.419 . S
C494 C495 1.362 . S
C495 H485 0.930 . S
C495 C488 1.409 1_556 S
C495 C494 1.362 . S
H496 C502 0.930 . S
H497 C505 0.930 . S
H498 C506 0.930 . S
H499 C507 0.930 . S
H500 C510 0.930 . S
H501 C511 0.930 . S
C502 H496 0.930 . S
C502 C503 1.355 . S
C502 C504 1.415 . S
C503 C502 1.355 . S
C503 C505 1.419 . S
C504 C502 1.415 . S
C504 C509 1.425 . S
C504 C511 1.409 . S
C505 H497 0.930 . S
C505 C503 1.419 . S
C505 C506 1.362 . S
C506 H498 0.930 . S
C506 C505 1.362 . S
C506 C509 1.409 . S
C507 H499 0.930 . S
C507 C508 1.355 . S
C507 C509 1.415 . S
C508 C507 1.355 . S
C508 C510 1.419 . S
C509 C504 1.425 . S
C509 C506 1.409 . S
C509 C507 1.415 . S
C510 H500 0.930 . S
C510 C508 1.419 . S
C510 C511 1.362 . S
C511 H501 0.930 . S
C511 C504 1.409 . S
C511 C510 1.362 . S
H512 C518 0.930 . S
H513 C521 0.930 . S
H514 C522 0.930 . S
H515 C523 0.930 . S
H516 C526 0.930 . S
H517 C527 0.930 . S
C518 H512 0.930 . S
C518 C519 1.355 . S
C518 C520 1.415 . S
C519 C518 1.355 . S
C519 C521 1.419 . S
C520 C518 1.415 . S
C520 C525 1.425 . S
C520 C527 1.409 . S
C521 H513 0.930 . S
C521 C519 1.419 . S
C521 C522 1.362 . S
C522 H514 0.930 . S
C522 C521 1.362 . S
C522 C525 1.409 . S
C523 H515 0.930 . S
C523 C524 1.355 . S
C523 C525 1.415 . S
C524 C523 1.355 . S
C524 C526 1.419 . S
C525 C520 1.425 . S
C525 C522 1.409 . S
C525 C523 1.415 . S
C526 H516 0.930 . S
C526 C524 1.419 . S
C526 C527 1.362 . S
C527 H517 0.930 . S
C527 C520 1.409 . S
C527 C526 1.362 . S
H528 C534 0.930 . S
H529 C537 0.930 . S
H530 C538 0.930 . S
H531 C539 0.930 . S
H532 C542 0.930 . S
H533 C543 0.930 . S
C534 H528 0.930 . S
C534 C535 1.355 . S
C534 C536 1.415 . S
C535 C534 1.355 . S
C535 C537 1.419 . S
C536 C534 1.415 . S
C536 C541 1.425 . S
C536 C543 1.409 . S
C537 H529 0.930 . S
C537 C535 1.419 . S
C537 C538 1.362 . S
C538 H530 0.930 . S
C538 C537 1.362 . S
C538 C541 1.409 . S
C539 H531 0.930 . S
C539 C540 1.355 . S
C539 C541 1.415 . S
C540 C539 1.355 . S
C540 C542 1.419 . S
C541 C536 1.425 . S
C541 C538 1.409 . S
C541 C539 1.415 . S
C542 H532 0.930 . S
C542 C540 1.419 . S
C542 C543 1.362 . S
C543 H533 0.930 . S
C543 C536 1.409 . S
C543 C542 1.362 . S
H544 C550 0.930 . S
H545 C553 0.930 . S
H546 C554 0.930 . S
H547 C555 0.930 . S
H548 C558 0.930 . S
H549 C559 0.930 . S
C550 H544 0.930 . S
C550 C551 1.355 . S
C550 C552 1.415 . S
C551 C550 1.355 . S
C551 C553 1.419 . S
C552 C550 1.415 . S
C552 C557 1.425 1_556 S
C552 C559 1.409 1_556 S
C553 H545 0.930 . S
C553 C551 1.419 . S
C553 C554 1.362 . S
C554 H546 0.930 . S
C554 C553 1.362 . S
C554 C557 1.409 1_556 S
C555 H547 0.930 . S
C555 C556 1.355 . S
C555 C557 1.415 . S
C556 C555 1.355 . S
C556 C558 1.419 . S
C557 C552 1.425 1_554 S
C557 C554 1.409 1_554 S
C557 C555 1.415 . S
C558 H548 0.930 . S
C558 C556 1.419 . S
C558 C559 1.362 . S
C559 H549 0.930 . S
C559 C552 1.409 1_554 S
C559 C558 1.362 . S
H560 C566 0.930 . S
H561 C569 0.930 . S
H562 C570 0.930 . S
H563 C571 0.930 . S
H564 C574 0.930 . S
H565 C575 0.930 . S
C566 H560 0.930 . S
C566 C567 1.355 . S
C566 C568 1.415 . S
C567 C566 1.355 . S
C567 C569 1.419 . S
C568 C566 1.415 . S
C568 C573 1.425 . S
C568 C575 1.409 . S
C569 H561 0.930 . S
C569 C567 1.419 . S
C569 C570 1.362 . S
C570 H562 0.930 . S
C570 C569 1.362 . S
C570 C573 1.409 . S
C571 H563 0.930 . S
C571 C572 1.355 . S
C571 C573 1.415 . S
C572 C571 1.355 . S
C572 C574 1.419 . S
C573 C568 1.425 . S
C573 C570 1.409 . S
C573 C571 1.415 . S
C574 H564 0.930 . S
C574 C572 1.419 . S
C574 C575 1.362 . S
C575 H565 0.930 . S
C575 C568 1.409 . S
C575 C574 1.362 . S
H576 C582 0.930 . S
H577 C585 0.930 . S
H578 C586 0.930 . S
H579 C587 0.930 . S
H580 C590 0.930 . S
H581 C591 0.930 . S
C582 H576 0.930 . S
C582 C583 1.355 . S
C582 C584 1.415 . S
C583 C582 1.355 . S
C583 C585 1.419 . S
C584 C582 1.415 . S
C584 C589 1.425 . S
C584 C591 1.409 . S
C585 H577 0.930 . S
C585 C583 1.419 . S
C585 C586 1.362 . S
C586 H578 0.930 . S
C586 C585 1.362 . S
C586 C589 1.409 . S
C587 H579 0.930 . S
C587 C588 1.355 . S
C587 C589 1.415 . S
C588 C587 1.355 . S
C588 C590 1.419 . S
C589 C584 1.425 . S
C589 C586 1.409 . S
C589 C587 1.415 . S
C590 H580 0.930 . S
C590 C588 1.419 . S
C590 C591 1.362 . S
C591 H581 0.930 . S
C591 C584 1.409 . S
C591 C590 1.362 . S
H592 C598 0.930 . S
H593 C601 0.930 . S
H594 C602 0.930 . S
H595 C603 0.930 . S
H596 C606 0.930 . S
H597 C607 0.930 . S
C598 H592 0.930 . S
C598 C599 1.355 . S
C598 C600 1.415 . S
C599 C598 1.355 . S
C599 C601 1.419 . S
C600 C598 1.415 . S
C600 C605 1.425 . S
C600 C607 1.409 . S
C601 H593 0.930 . S
C601 C599 1.419 . S
C601 C602 1.362 . S
C602 H594 0.930 . S
C602 C601 1.362 . S
C602 C605 1.409 . S
C603 H595 0.930 . S
C603 C604 1.355 . S
C603 C605 1.415 . S
C604 C603 1.355 . S
C604 C606 1.419 . S
C605 C600 1.425 . S
C605 C602 1.409 . S
C605 C603 1.415 . S
C606 H596 0.930 . S
C606 C604 1.419 . S
C606 C607 1.362 . S
C607 H597 0.930 . S
C607 C600 1.409 . S
C607 C606 1.362 . S
H608 C614 0.930 . S
H609 C617 0.930 . S
H610 C618 0.930 . S
H611 C619 0.930 . S
H612 C622 0.930 . S
H613 C623 0.930 . S
C614 H608 0.930 . S
C614 C615 1.355 . S
C614 C616 1.415 . S
C615 C614 1.355 . S
C615 C617 1.419 . S
C616 C614 1.415 . S
C616 C621 1.425 . S
C616 C623 1.409 . S
C617 H609 0.930 . S
C617 C615 1.419 . S
C617 C618 1.362 . S
C618 H610 0.930 . S
C618 C617 1.362 . S
C618 C621 1.409 . S
C619 H611 0.930 . S
C619 C620 1.355 . S
C619 C621 1.415 . S
C620 C619 1.355 . S
C620 C622 1.419 . S
C621 C616 1.425 . S
C621 C618 1.409 . S
C621 C619 1.415 . S
C622 H612 0.930 . S
C622 C620 1.419 . S
C622 C623 1.362 . S
C623 H613 0.930 . S
C623 C616 1.409 . S
C623 C622 1.362 . S
H624 C630 0.930 . S
H625 C633 0.930 . S
H626 C634 0.930 . S
H627 C635 0.930 . S
H628 C638 0.930 . S
H629 C639 0.930 . S
C630 H624 0.930 . S
C630 C631 1.355 . S
C630 C632 1.415 . S
C631 C630 1.355 . S
C631 C633 1.419 . S
C632 C630 1.415 . S
C632 C637 1.425 . S
C632 C639 1.409 . S
C633 H625 0.930 . S
C633 C631 1.419 . S
C633 C634 1.362 . S
C634 H626 0.930 . S
C634 C633 1.362 . S
C634 C637 1.409 . S
C635 H627 0.930 . S
C635 C636 1.355 . S
C635 C637 1.415 . S
C636 C635 1.355 . S
C636 C638 1.419 . S
C637 C632 1.425 . S
C637 C634 1.409 . S
C637 C635 1.415 . S
C638 H628 0.930 . S
C638 C636 1.419 . S
C638 C639 1.362 . S
C639 H629 0.930 . S
C639 C632 1.409 . S
C639 C638 1.362 . S
H640 C646 0.930 . S
H641 C649 0.930 . S
H642 C650 0.930 . S
H643 C651 0.930 . S
H644 C654 0.930 . S
H645 C655 0.930 . S
C646 H640 0.930 . S
C646 C647 1.355 . S
C646 C648 1.415 . S
C647 C646 1.355 . S
C647 C649 1.419 . S
C648 C646 1.415 . S
C648 C653 1.425 . S
C648 C655 1.409 . S
C649 H641 0.930 . S
C649 C647 1.419 . S
C649 C650 1.362 . S
C650 H642 0.930 . S
C650 C649 1.362 . S
C650 C653 1.409 . S
C651 H643 0.930 . S
C651 C652 1.355 . S
C651 C653 1.415 . S
C652 C651 1.355 . S
C652 C654 1.419 . S
C653 C648 1.425 . S
C653 C650 1.409 . S
C653 C651 1.415 . S
C654 H644 0.930 . S
C654 C652 1.419 . S
C654 C655 1.362 . S
C655 H645 0.930 . S
C655 C648 1.409 . S
C655 C654 1.362 . S
H656 C662 0.930 . S
H657 C665 0.930 . S
H658 C666 0.930 . S
H659 C667 0.930 . S
H660 C670 0.930 . S
H661 C671 0.930 . S
C662 H656 0.930 . S
C662 C663 1.355 . S
C662 C664 1.415 . S
C663 C662 1.355 . S
C663 C665 1.419 . S
C664 C662 1.415 . S
C664 C669 1.425 . S
C664 C671 1.409 . S
C665 H657 0.930 . S
C665 C663 1.419 . S
C665 C666 1.362 . S
C666 H658 0.930 . S
C666 C665 1.362 . S
C666 C669 1.409 . S
C667 H659 0.930 . S
C667 C668 1.355 . S
C667 C669 1.415 . S
C668 C667 1.355 . S
C668 C670 1.419 . S
C669 C664 1.425 . S
C669 C666 1.409 . S
C669 C667 1.415 . S
C670 H660 0.930 . S
C670 C668 1.419 . S
C670 C671 1.362 . S
C671 H661 0.930 . S
C671 C664 1.409 . S
C671 C670 1.362 . S
H672 C678 0.930 . S
H673 C681 0.930 . S
H674 C682 0.930 . S
H675 C683 0.930 . S
H676 C686 0.930 . S
H677 C687 0.930 . S
C678 H672 0.930 . S
C678 C679 1.355 . S
C678 C680 1.415 . S
C679 C678 1.355 . S
C679 C681 1.419 . S
C680 C678 1.415 . S
C680 C685 1.425 . S
C680 C687 1.409 . S
C681 H673 0.930 . S
C681 C679 1.419 . S
C681 C682 1.362 . S
C682 H674 0.930 . S
C682 C681 1.362 . S
C682 C685 1.409 . S
C683 H675 0.930 . S
C683 C684 1.355 . S
C683 C685 1.415 . S
C684 C683 1.355 . S
C684 C686 1.419 . S
C685 C680 1.425 . S
C685 C682 1.409 . S
C685 C683 1.415 . S
C686 H676 0.930 . S
C686 C684 1.419 . S
C686 C687 1.362 . S
C687 H677 0.930 . S
C687 C680 1.409 . S
C687 C686 1.362 . S
H688 C694 0.930 . S
H689 C697 0.930 . S
H690 C698 0.930 . S
H691 C699 0.930 . S
H692 C702 0.930 . S
H693 C703 0.930 . S
C694 H688 0.930 . S
C694 C695 1.355 . S
C694 C696 1.415 . S
C695 C694 1.355 . S
C695 C697 1.419 . S
C696 C694 1.415 . S
C696 C701 1.425 . S
C696 C703 1.409 . S
C697 H689 0.930 . S
C697 C695 1.419 . S
C697 C698 1.362 . S
C698 H690 0.930 . S
C698 C697 1.362 . S
C698 C701 1.409 . S
C699 H691 0.930 . S
C699 C700 1.355 . S
C699 C701 1.415 . S
C700 C699 1.355 . S
C700 C702 1.419 . S
C701 C696 1.425 . S
C701 C698 1.409 . S
C701 C699 1.415 . S
C702 H692 0.930 . S
C702 C700 1.419 . S
C702 C703 1.362 . S
C703 H693 0.930 . S
C703 C696 1.409 . S
C703 C702 1.362 . S
H704 C710 0.930 . S
H705 C713 0.930 . S
H706 C714 0.930 . S
H707 C715 0.930 . S
H708 C718 0.930 . S
H709 C719 0.930 . S
C710 H704 0.930 . S
C710 C711 1.355 . S
C710 C712 1.415 . S
C711 C710 1.355 . S
C711 C713 1.419 . S
C712 C710 1.415 . S
C712 C717 1.425 . S
C712 C719 1.409 . S
C713 H705 0.930 . S
C713 C711 1.419 . S
C713 C714 1.362 . S
C714 H706 0.930 . S
C714 C713 1.362 . S
C714 C717 1.409 . S
C715 H707 0.930 . S
C715 C716 1.355 . S
C715 C717 1.415 . S
C716 C715 1.355 . S
C716 C718 1.419 . S
C717 C712 1.425 . S
C717 C714 1.409 . S
C717 C715 1.415 . S
C718 H708 0.930 . S
C718 C716 1.419 . S
C718 C719 1.362 . S
C719 H709 0.930 . S
C719 C712 1.409 . S
C719 C718 1.362 . S
H720 C726 0.930 . S
H721 C729 0.930 . S
H722 C730 0.930 . S
H723 C731 0.930 . S
H724 C734 0.930 . S
H725 C735 0.930 . S
C726 H720 0.930 . S
C726 C727 1.355 . S
C726 C728 1.415 . S
C727 C726 1.355 . S
C727 C729 1.419 . S
C728 C726 1.415 . S
C728 C733 1.425 . S
C728 C735 1.409 . S
C729 H721 0.930 . S
C729 C727 1.419 . S
C729 C730 1.362 . S
C730 H722 0.930 . S
C730 C729 1.362 . S
C730 C733 1.409 . S
C731 H723 0.930 . S
C731 C732 1.355 . S
C731 C733 1.415 . S
C732 C731 1.355 . S
C732 C734 1.419 . S
C733 C728 1.425 . S
C733 C730 1.409 . S
C733 C731 1.415 . S
C734 H724 0.930 . S
C734 C732 1.419 . S
C734 C735 1.362 . S
C735 H725 0.930 . S
C735 C728 1.409 . S
C735 C734 1.362 . S
H736 C742 0.930 . S
H737 C745 0.930 . S
H738 C746 0.930 . S
H739 C747 0.930 . S
H740 C750 0.930 . S
H741 C751 0.930 . S
C742 H736 0.930 . S
C742 C743 1.355 . S
C742 C744 1.415 . S
C743 C742 1.355 . S
C743 C745 1.419 . S
C744 C742 1.415 . S
C744 C749 1.425 . S
C744 C751 1.409 . S
C745 H737 0.930 . S
C745 C743 1.419 . S
C745 C746 1.362 . S
C746 H738 0.930 . S
C746 C745 1.362 . S
C746 C749 1.409 . S
C747 H739 0.930 . S
C747 C748 1.355 . S
C747 C749 1.415 . S
C748 C747 1.355 . S
C748 C750 1.419 . S
C749 C744 1.425 . S
C749 C746 1.409 . S
C749 C747 1.415 . S
C750 H740 0.930 . S
C750 C748 1.419 . S
C750 C751 1.362 . S
C751 H741 0.930 . S
C751 C744 1.409 . S
C751 C750 1.362 . S
H752 C758 0.930 . S
H753 C761 0.930 . S
H754 C762 0.930 . S
H755 C763 0.930 . S
H756 C766 0.930 . S
H757 C767 0.930 . S
C758 H752 0.930 . S
C758 C759 1.355 . S
C758 C760 1.415 . S
C759 C758 1.355 . S
C759 C761 1.419 . S
C760 C758 1.415 . S
C760 C765 1.425 . S
C760 C767 1.409 . S
C761 H753 0.930 . S
C761 C759 1.419 . S
C761 C762 1.362 . S
C762 H754 0.930 . S
C762 C761 1.362 . S
C762 C765 1.409 . S
C763 H755 0.930 . S
C763 C764 1.355 . S
C763 C765 1.415 . S
C764 C763 1.355 . S
C764 C766 1.419 . S
C765 C760 1.425 . S
C765 C762 1.409 . S
C765 C763 1.415 . S
C766 H756 0.930 . S
C766 C764 1.419 . S
C766 C767 1.362 . S
C767 H757 0.930 . S
C767 C760 1.409 . S
C767 C766 1.362 . S
H768 C774 0.930 . S
H769 C777 0.930 . S
H770 C778 0.930 . S
H771 C779 0.930 . S
H772 C782 0.930 . S
H773 C783 0.930 . S
C774 H768 0.930 . S
C774 C775 1.355 . S
C774 C776 1.415 . S
C775 C774 1.355 . S
C775 C777 1.419 . S
C776 C774 1.415 . S
C776 C781 1.425 . S
C776 C783 1.409 . S
C777 H769 0.930 . S
C777 C775 1.419 . S
C777 C778 1.362 . S
C778 H770 0.930 . S
C778 C777 1.362 . S
C778 C781 1.409 . S
C779 H771 0.930 . S
C779 C780 1.355 . S
C779 C781 1.415 . S
C780 C779 1.355 . S
C780 C782 1.419 . S
C781 C776 1.425 . S
C781 C778 1.409 . S
C781 C779 1.415 . S
C782 H772 0.930 . S
C782 C780 1.419 . S
C782 C783 1.362 . S
C783 H773 0.930 . S
C783 C776 1.409 . S
C783 C782 1.362 . S
H784 C790 0.930 . S
H785 C793 0.930 . S
H786 C794 0.930 . S
H787 C795 0.930 . S
H788 C798 0.930 . S
H789 C799 0.930 . S
C790 H784 0.930 . S
C790 C791 1.355 . S
C790 C792 1.415 . S
C791 C790 1.355 . S
C791 C793 1.419 . S
C792 C790 1.415 . S
C792 C797 1.425 . S
C792 C799 1.409 . S
C793 H785 0.930 . S
C793 C791 1.419 . S
C793 C794 1.362 . S
C794 H786 0.930 . S
C794 C793 1.362 . S
C794 C797 1.409 . S
C795 H787 0.930 . S
C795 C796 1.355 . S
C795 C797 1.415 . S
C796 C795 1.355 . S
C796 C798 1.419 . S
C797 C792 1.425 . S
C797 C794 1.409 . S
C797 C795 1.415 . S
C798 H788 0.930 . S
C798 C796 1.419 . S
C798 C799 1.362 . S
C799 H789 0.930 . S
C799 C792 1.409 . S
C799 C798 1.362 . S
H800 C806 0.930 . S
H801 C809 0.930 . S
H802 C810 0.930 . S
H803 C811 0.930 . S
H804 C814 0.930 . S
H805 C815 0.930 . S
C806 H800 0.930 . S
C806 C807 1.355 . S
C806 C808 1.415 . S
C807 C806 1.355 . S
C807 C809 1.419 . S
C808 C806 1.415 . S
C808 C813 1.425 . S
C808 C815 1.409 . S
C809 H801 0.930 . S
C809 C807 1.419 . S
C809 C810 1.362 . S
C810 H802 0.930 . S
C810 C809 1.362 . S
C810 C813 1.409 . S
C811 H803 0.930 . S
C811 C812 1.355 . S
C811 C813 1.415 . S
C812 C811 1.355 . S
C812 C814 1.419 . S
C813 C808 1.425 . S
C813 C810 1.409 . S
C813 C811 1.415 . S
C814 H804 0.930 . S
C814 C812 1.419 . S
C814 C815 1.362 . S
C815 H805 0.930 . S
C815 C808 1.409 . S
C815 C814 1.362 . S
H816 C822 0.930 . S
H817 C825 0.930 . S
H818 C826 0.930 . S
H819 C827 0.930 . S
H820 C830 0.930 . S
H821 C831 0.930 . S
C822 H816 0.930 . S
C822 C823 1.355 . S
C822 C824 1.415 . S
C823 C822 1.355 . S
C823 C825 1.419 . S
C824 C822 1.415 . S
C824 C829 1.425 . S
C824 C831 1.409 . S
C825 H817 0.930 . S
C825 C823 1.419 . S
C825 C826 1.362 . S
C826 H818 0.930 . S
C826 C825 1.362 . S
C826 C829 1.409 . S
C827 H819 0.930 . S
C827 C828 1.355 . S
C827 C829 1.415 . S
C828 C827 1.355 . S
C828 C830 1.419 . S
C829 C824 1.425 . S
C829 C826 1.409 . S
C829 C827 1.415 . S
C830 H820 0.930 . S
C830 C828 1.419 . S
C830 C831 1.362 . S
C831 H821 0.930 . S
C831 C824 1.409 . S
C831 C830 1.362 . S
H832 C838 0.930 . S
H833 C841 0.930 . S
H834 C842 0.930 . S
H835 C843 0.930 . S
H836 C846 0.930 . S
H837 C847 0.930 . S
C838 H832 0.930 . S
C838 C839 1.355 . S
C838 C840 1.415 . S
C839 C838 1.355 . S
C839 C841 1.419 . S
C840 C838 1.415 . S
C840 C845 1.425 . S
C840 C847 1.409 . S
C841 H833 0.930 . S
C841 C839 1.419 . S
C841 C842 1.362 . S
C842 H834 0.930 . S
C842 C841 1.362 . S
C842 C845 1.409 . S
C843 H835 0.930 . S
C843 C844 1.355 . S
C843 C845 1.415 . S
C844 C843 1.355 . S
C844 C846 1.419 . S
C845 C840 1.425 . S
C845 C842 1.409 . S
C845 C843 1.415 . S
C846 H836 0.930 . S
C846 C844 1.419 . S
C846 C847 1.362 . S
C847 H837 0.930 . S
C847 C840 1.409 . S
C847 C846 1.362 . S
H848 C854 0.930 . S
H849 C857 0.930 . S
H850 C858 0.930 . S
H851 C859 0.930 . S
H852 C862 0.930 . S
H853 C863 0.930 . S
C854 H848 0.930 . S
C854 C855 1.355 . S
C854 C856 1.415 . S
C855 C854 1.355 . S
C855 C857 1.419 . S
C856 C854 1.415 . S
C856 C861 1.425 . S
C856 C863 1.409 . S
C857 H849 0.930 . S
C857 C855 1.419 . S
C857 C858 1.362 . S
C858 H850 0.930 . S
C858 C857 1.362 . S
C858 C861 1.409 . S
C859 H851 0.930 . S
C859 C860 1.355 . S
C859 C861 1.415 . S
C860 C859 1.355 . S
C860 C862 1.419 . S
C861 C856 1.425 . S
C861 C858 1.409 . S
C861 C859 1.415 . S
C862 H852 0.930 . S
C862 C860 1.419 . S
C862 C863 1.362 . S
C863 H853 0.930 . S
C863 C856 1.409 . S
C863 C862 1.362 . S
H864 C870 0.930 . S
H865 C873 0.930 . S
H866 C874 0.930 . S
H867 C875 0.930 . S
H868 C878 0.930 . S
H869 C879 0.930 . S
C870 H864 0.930 . S
C870 C871 1.355 . S
C870 C872 1.415 . S
C871 C870 1.355 . S
C871 C873 1.419 . S
C872 C870 1.415 . S
C872 C877 1.425 . S
C872 C879 1.409 . S
C873 H865 0.930 . S
C873 C871 1.419 . S
C873 C874 1.362 . S
C874 H866 0.930 . S
C874 C873 1.362 . S
C874 C877 1.409 . S
C875 H867 0.930 . S
C875 C876 1.355 . S
C875 C877 1.415 . S
C876 C875 1.355 . S
C876 C878 1.419 . S
C877 C872 1.425 . S
C877 C874 1.409 . S
C877 C875 1.415 . S
C878 H868 0.930 . S
C878 C876 1.419 . S
C878 C879 1.362 . S
C879 H869 0.930 . S
C879 C872 1.409 . S
C879 C878 1.362 . S
H880 C886 0.930 . S
H881 C889 0.930 . S
H882 C890 0.930 . S
H883 C891 0.930 . S
H884 C894 0.930 . S
H885 C895 0.930 . S
C886 H880 0.930 . S
C886 C887 1.354 1_545 S
C886 C888 1.415 . S
C887 C886 1.354 1_565 S
C887 C889 1.419 . S
C888 C886 1.415 . S
C888 C893 1.425 1_445 S
C888 C895 1.409 1_455 S
C889 H881 0.930 . S
C889 C887 1.419 . S
C889 C890 1.362 . S
C890 H882 0.930 . S
C890 C889 1.362 . S
C890 C893 1.409 1_455 S
C891 H883 0.930 . S
C891 C892 1.354 1_565 S
C891 C893 1.415 . S
C892 C891 1.354 1_545 S
C892 C894 1.419 . S
C893 C888 1.425 1_665 S
C893 C890 1.409 1_655 S
C893 C891 1.415 . S
C894 H884 0.930 . S
C894 C892 1.419 . S
C894 C895 1.362 . S
C895 H885 0.930 . S
C895 C888 1.409 1_655 S
C895 C894 1.362 . S
H896 C902 0.930 . S
H897 C905 0.930 . S
H898 C906 0.930 . S
H899 C907 0.930 . S
H900 C910 0.930 . S
H901 C911 0.930 . S
C902 H896 0.930 . S
C902 C903 1.355 . S
C902 C904 1.415 . S
C903 C902 1.355 . S
C903 C905 1.419 . S
C904 C902 1.415 . S
C904 C909 1.425 . S
C904 C911 1.409 . S
C905 H897 0.930 . S
C905 C903 1.419 . S
C905 C906 1.362 . S
C906 H898 0.930 . S
C906 C905 1.362 . S
C906 C909 1.409 . S
C907 H899 0.930 . S
C907 C908 1.355 . S
C907 C909 1.415 . S
C908 C907 1.355 . S
C908 C910 1.419 . S
C909 C904 1.425 . S
C909 C906 1.409 . S
C909 C907 1.415 . S
C910 H900 0.930 . S
C910 C908 1.419 . S
C910 C911 1.362 . S
C911 H901 0.930 . S
C911 C904 1.409 . S
C911 C910 1.362 . S
H912 C918 0.930 . S
H913 C921 0.930 . S
H914 C922 0.930 . S
H915 C923 0.930 . S
H916 C926 0.930 . S
H917 C927 0.930 . S
C918 H912 0.930 . S
C918 C919 1.355 1_544 S
C918 C920 1.415 . S
C919 C918 1.355 1_566 S
C919 C921 1.419 . S
C920 C918 1.415 . S
C920 C925 1.425 1_544 S
C920 C927 1.409 . S
C921 H913 0.930 . S
C921 C919 1.419 . S
C921 C922 1.362 . S
C922 H914 0.930 . S
C922 C921 1.362 . S
C922 C925 1.409 . S
C923 H915 0.930 . S
C923 C924 1.355 1_566 S
C923 C925 1.415 . S
C924 C923 1.355 1_544 S
C924 C926 1.419 . S
C925 C920 1.425 1_566 S
C925 C922 1.409 . S
C925 C923 1.415 . S
C926 H916 0.930 . S
C926 C924 1.419 . S
C926 C927 1.362 . S
C927 H917 0.930 . S
C927 C920 1.409 . S
C927 C926 1.362 . S
H928 C934 0.930 . S
H929 C937 0.930 . S
H930 C938 0.930 . S
H931 C939 0.930 . S
H932 C942 0.930 . S
H933 C943 0.930 . S
C934 H928 0.930 . S
C934 C935 1.355 . S
C934 C936 1.415 . S
C935 C934 1.355 . S
C935 C937 1.419 . S
C936 C934 1.415 . S
C936 C941 1.425 . S
C936 C943 1.409 . S
C937 H929 0.930 . S
C937 C935 1.419 . S
C937 C938 1.362 . S
C938 H930 0.930 . S
C938 C937 1.362 . S
C938 C941 1.409 . S
C939 H931 0.930 . S
C939 C940 1.355 . S
C939 C941 1.415 . S
C940 C939 1.355 . S
C940 C942 1.419 . S
C941 C936 1.425 . S
C941 C938 1.409 . S
C941 C939 1.415 . S
C942 H932 0.930 . S
C942 C940 1.419 . S
C942 C943 1.362 . S
C943 H933 0.930 . S
C943 C936 1.409 . S
C943 C942 1.362 . S
H944 C950 0.930 . S
H945 C953 0.930 . S
H946 C954 0.930 . S
H947 C955 0.930 . S
H948 C958 0.930 . S
H949 C959 0.930 . S
C950 H944 0.930 . S
C950 C951 1.352 . S
C950 C952 1.415 . S
C951 C950 1.352 . S
C951 C953 1.423 1_545 S
C952 C950 1.415 . S
C952 C957 1.425 1_545 S
C952 C959 1.409 . S
C953 H945 0.930 . S
C953 C951 1.423 1_565 S
C953 C954 1.362 . S
C954 H946 0.930 . S
C954 C953 1.362 . S
C954 C957 1.409 . S
C955 H947 0.930 . S
C955 C956 1.352 . S
C955 C957 1.415 . S
C956 C955 1.352 . S
C956 C958 1.423 1_565 S
C957 C952 1.425 1_565 S
C957 C954 1.409 . S
C957 C955 1.415 . S
C958 H948 0.930 . S
C958 C956 1.423 1_545 S
C958 C959 1.362 . S
C959 H949 0.930 . S
C959 C952 1.409 . S
C959 C958 1.362 . S
H960 C966 0.930 . S
H961 C969 0.930 . S
H962 C970 0.930 . S
H963 C971 0.930 . S
H964 C974 0.930 . S
H965 C975 0.930 . S
C966 H960 0.930 . S
C966 C967 1.355 . S
C966 C968 1.415 . S
C967 C966 1.355 . S
C967 C969 1.419 . S
C968 C966 1.415 . S
C968 C973 1.425 . S
C968 C975 1.409 . S
C969 H961 0.930 . S
C969 C967 1.419 . S
C969 C970 1.362 . S
C970 H962 0.930 . S
C970 C969 1.362 . S
C970 C973 1.409 . S
C971 H963 0.930 . S
C971 C972 1.355 . S
C971 C973 1.415 . S
C972 C971 1.355 . S
C972 C974 1.419 . S
C973 C968 1.425 . S
C973 C970 1.409 . S
C973 C971 1.415 . S
C974 H964 0.930 . S
C974 C972 1.419 . S
C974 C975 1.362 . S
C975 H965 0.930 . S
C975 C968 1.409 . S
C975 C974 1.362 . S
H976 C982 0.930 . S
H977 C985 0.930 . S
H978 C986 0.930 . S
H979 C987 0.930 . S
H980 C990 0.930 . S
H981 C991 0.930 . S
C982 H976 0.930 . S
C982 C983 1.355 . S
C982 C984 1.415 . S
C983 C982 1.355 . S
C983 C985 1.419 1_564 S
C984 C982 1.415 . S
C984 C989 1.425 1_464 S
C984 C991 1.409 1_455 S
C985 H977 0.930 . S
C985 C983 1.419 1_546 S
C985 C986 1.362 . S
C986 H978 0.930 . S
C986 C985 1.362 . S
C986 C989 1.409 1_455 S
C987 H979 0.930 . S
C987 C988 1.355 . S
C987 C989 1.415 . S
C988 C987 1.355 . S
C988 C990 1.419 1_546 S
C989 C984 1.425 1_646 S
C989 C986 1.409 1_655 S
C989 C987 1.415 . S
C990 H980 0.930 . S
C990 C988 1.419 1_564 S
C990 C991 1.362 . S
C991 H981 0.930 . S
C991 C984 1.409 1_655 S
C991 C990 1.362 . S
H992 C998 0.930 . S
H993 C1001 0.930 . S
H994 C1002 0.930 . S
H995 C1003 0.930 . S
H996 C1006 0.930 . S
H997 C1007 0.930 . S
C998 H992 0.930 . S
C998 C999 1.355 . S
C998 C1000 1.415 . S
C999 C998 1.355 . S
C999 C1001 1.419 . S
C1000 C998 1.415 . S
C1000 C1005 1.425 . S
C1000 C1007 1.409 . S
C1001 H993 0.930 . S
C1001 C999 1.419 . S
C1001 C1002 1.362 . S
C1002 H994 0.930 . S
C1002 C1001 1.362 . S
C1002 C1005 1.409 . S
C1003 H995 0.930 . S
C1003 C1004 1.355 . S
C1003 C1005 1.415 . S
C1004 C1003 1.355 . S
C1004 C1006 1.419 . S
C1005 C1000 1.425 . S
C1005 C1002 1.409 . S
C1005 C1003 1.415 . S
C1006 H996 0.930 . S
C1006 C1004 1.419 . S
C1006 C1007 1.362 . S
C1007 H997 0.930 . S
C1007 C1000 1.409 . S
C1007 C1006 1.362 . S
H1008 C1014 0.930 . S
H1009 C1017 0.930 . S
H1010 C1018 0.930 . S
H1011 C1019 0.930 . S
H1012 C1022 0.930 . S
H1013 C1023 0.930 . S
C1014 H1008 0.930 . S
C1014 C1015 1.355 . S
C1014 C1016 1.415 . S
C1015 C1014 1.355 . S
C1015 C1017 1.419 . S
C1016 C1014 1.415 . S
C1016 C1021 1.425 . S
C1016 C1023 1.409 . S
C1017 H1009 0.930 . S
C1017 C1015 1.419 . S
C1017 C1018 1.362 . S
C1018 H1010 0.930 . S
C1018 C1017 1.362 . S
C1018 C1021 1.409 . S
C1019 H1011 0.930 . S
C1019 C1020 1.355 . S
C1019 C1021 1.415 . S
C1020 C1019 1.355 . S
C1020 C1022 1.419 . S
C1021 C1016 1.425 . S
C1021 C1018 1.409 . S
C1021 C1019 1.415 . S
C1022 H1012 0.930 . S
C1022 C1020 1.419 . S
C1022 C1023 1.362 . S
C1023 H1013 0.930 . S
C1023 C1016 1.409 . S
C1023 C1022 1.362 . S
H1024 C1030 0.930 . S
H1025 C1033 0.930 . S
H1026 C1034 0.930 . S
H1027 C1035 0.930 . S
H1028 C1038 0.930 . S
H1029 C1039 0.930 . S
C1030 H1024 0.930 . S
C1030 C1031 1.355 . S
C1030 C1032 1.415 . S
C1031 C1030 1.355 . S
C1031 C1033 1.419 . S
C1032 C1030 1.415 . S
C1032 C1037 1.425 . S
C1032 C1039 1.409 . S
C1033 H1025 0.930 . S
C1033 C1031 1.419 . S
C1033 C1034 1.362 . S
C1034 H1026 0.930 . S
C1034 C1033 1.362 . S
C1034 C1037 1.409 . S
C1035 H1027 0.930 . S
C1035 C1036 1.355 . S
C1035 C1037 1.415 . S
C1036 C1035 1.355 . S
C1036 C1038 1.419 . S
C1037 C1032 1.425 . S
C1037 C1034 1.409 . S
C1037 C1035 1.415 . S
C1038 H1028 0.930 . S
C1038 C1036 1.419 . S
C1038 C1039 1.362 . S
C1039 H1029 0.930 . S
C1039 C1032 1.409 . S
C1039 C1038 1.362 . S
H1040 C1046 0.930 . S
H1041 C1049 0.930 . S
H1042 C1050 0.930 . S
H1043 C1051 0.930 . S
H1044 C1054 0.930 . S
H1045 C1055 0.930 . S
C1046 H1040 0.930 . S
C1046 C1047 1.355 . S
C1046 C1048 1.415 . S
C1047 C1046 1.355 . S
C1047 C1049 1.419 . S
C1048 C1046 1.415 . S
C1048 C1053 1.425 . S
C1048 C1055 1.409 . S
C1049 H1041 0.930 . S
C1049 C1047 1.419 . S
C1049 C1050 1.362 . S
C1050 H1042 0.930 . S
C1050 C1049 1.362 . S
C1050 C1053 1.409 . S
C1051 H1043 0.930 . S
C1051 C1052 1.355 . S
C1051 C1053 1.415 . S
C1052 C1051 1.355 . S
C1052 C1054 1.419 . S
C1053 C1048 1.425 . S
C1053 C1050 1.409 . S
C1053 C1051 1.415 . S
C1054 H1044 0.930 . S
C1054 C1052 1.419 . S
C1054 C1055 1.362 . S
C1055 H1045 0.930 . S
C1055 C1048 1.409 . S
C1055 C1054 1.362 . S
H1056 C1062 0.930 . S
H1057 C1065 0.930 . S
H1058 C1066 0.930 . S
H1059 C1067 0.930 . S
H1060 C1070 0.930 . S
H1061 C1071 0.930 . S
C1062 H1056 0.930 . S
C1062 C1063 1.355 1_554 S
C1062 C1064 1.415 . S
C1063 C1062 1.355 1_556 S
C1063 C1065 1.419 . S
C1064 C1062 1.415 . S
C1064 C1069 1.425 1_554 S
C1064 C1071 1.409 . S
C1065 H1057 0.930 . S
C1065 C1063 1.419 . S
C1065 C1066 1.362 . S
C1066 H1058 0.930 . S
C1066 C1065 1.362 . S
C1066 C1069 1.409 . S
C1067 H1059 0.930 . S
C1067 C1068 1.355 1_556 S
C1067 C1069 1.415 . S
C1068 C1067 1.355 1_554 S
C1068 C1070 1.419 . S
C1069 C1064 1.425 1_556 S
C1069 C1066 1.409 . S
C1069 C1067 1.415 . S
C1070 H1060 0.930 . S
C1070 C1068 1.419 . S
C1070 C1071 1.362 . S
C1071 H1061 0.930 . S
C1071 C1064 1.409 . S
C1071 C1070 1.362 . S
H1072 C1078 0.930 . S
H1073 C1081 0.930 . S
H1074 C1082 0.930 . S
H1075 C1083 0.930 . S
H1076 C1086 0.930 . S
H1077 C1087 0.930 . S
C1078 H1072 0.930 . S
C1078 C1079 1.355 . S
C1078 C1080 1.415 . S
C1079 C1078 1.355 . S
C1079 C1081 1.419 . S
C1080 C1078 1.415 . S
C1080 C1085 1.425 1_655 S
C1080 C1087 1.409 1_655 S
C1081 H1073 0.930 . S
C1081 C1079 1.419 . S
C1081 C1082 1.362 . S
C1082 H1074 0.930 . S
C1082 C1081 1.362 . S
C1082 C1085 1.409 1_655 S
C1083 H1075 0.930 . S
C1083 C1084 1.355 . S
C1083 C1085 1.415 . S
C1084 C1083 1.355 . S
C1084 C1086 1.419 . S
C1085 C1080 1.425 1_455 S
C1085 C1082 1.409 1_455 S
C1085 C1083 1.415 . S
C1086 H1076 0.930 . S
C1086 C1084 1.419 . S
C1086 C1087 1.362 . S
C1087 H1077 0.930 . S
C1087 C1080 1.409 1_455 S
C1087 C1086 1.362 . S
H1088 C1094 0.930 . S
H1089 C1097 0.930 . S
H1090 C1098 0.930 . S
H1091 C1099 0.930 . S
H1092 C1102 0.930 . S
H1093 C1103 0.930 . S
C1094 H1088 0.930 . S
C1094 C1095 1.355 . S
C1094 C1096 1.415 . S
C1095 C1094 1.355 . S
C1095 C1097 1.419 1_556 S
C1096 C1094 1.415 . S
C1096 C1101 1.425 1_456 S
C1096 C1103 1.409 1_455 S
C1097 H1089 0.930 . S
C1097 C1095 1.419 1_554 S
C1097 C1098 1.362 . S
C1098 H1090 0.930 . S
C1098 C1097 1.362 . S
C1098 C1101 1.409 1_455 S
C1099 H1091 0.930 . S
C1099 C1100 1.355 . S
C1099 C1101 1.415 . S
C1100 C1099 1.355 . S
C1100 C1102 1.419 1_554 S
C1101 C1096 1.425 1_654 S
C1101 C1098 1.409 1_655 S
C1101 C1099 1.415 . S
C1102 H1092 0.930 . S
C1102 C1100 1.419 1_556 S
C1102 C1103 1.362 . S
C1103 H1093 0.930 . S
C1103 C1096 1.409 1_655 S
C1103 C1102 1.362 . S
H1104 C1110 0.930 . S
H1105 C1113 0.930 . S
H1106 C1114 0.930 . S
H1107 C1115 0.930 . S
H1108 C1118 0.930 . S
H1109 C1119 0.930 . S
C1110 H1104 0.930 . S
C1110 C1111 1.355 . S
C1110 C1112 1.415 . S
C1111 C1110 1.355 . S
C1111 C1113 1.419 . S
C1112 C1110 1.415 . S
C1112 C1117 1.425 . S
C1112 C1119 1.409 . S
C1113 H1105 0.930 . S
C1113 C1111 1.419 . S
C1113 C1114 1.362 . S
C1114 H1106 0.930 . S
C1114 C1113 1.362 . S
C1114 C1117 1.409 . S
C1115 H1107 0.930 . S
C1115 C1116 1.355 . S
C1115 C1117 1.415 . S
C1116 C1115 1.355 . S
C1116 C1118 1.419 . S
C1117 C1112 1.425 . S
C1117 C1114 1.409 . S
C1117 C1115 1.415 . S
C1118 H1108 0.930 . S
C1118 C1116 1.419 . S
C1118 C1119 1.362 . S
C1119 H1109 0.930 . S
C1119 C1112 1.409 . S
C1119 C1118 1.362 . S
C359 C7 1.492 . S
C364 C73 1.495 . S
C375 C18 1.458 . S
C380 C84 1.449 . S
C391 C29 1.485 . S
C396 C51 1.490 . S
C407 C40 1.496 1_565 S
C412 C62 1.496 1_545 S
C423 C161 1.551 . S
C428 C95 1.561 . S
C439 C172 1.558 . S
C444 C106 1.525 . S
C455 C139 1.559 . S
C460 C117 1.526 . S
C471 C150 1.553 1_565 S
C476 C128 1.558 1_545 S
C487 C249 1.411 . S
C492 C183 1.405 . S
C503 C194 1.458 . S
C508 C260 1.449 . S
C519 C227 1.469 . S
C524 C205 1.477 . S
C535 C216 1.470 . S
C540 C238 1.462 . S
C551 C337 1.526 . S
C556 C271 1.554 . S
C567 C282 1.560 . S
C572 C348 1.526 . S
C583 C293 1.555 . S
C588 C315 1.526 . S
C599 C304 1.554 . S
C604 C326 1.526 . S
C615 C8 1.620 . S
C620 C85 1.643 . S
C631 C52 1.606 . S
C636 C19 1.640 . S
C647 C63 1.622 . S
C652 C30 1.642 . S
C663 C74 1.592 . S
C668 C41 1.628 . S
C679 C173 1.659 . S
C684 C96 1.652 . S
C695 C107 1.658 . S
C700 C140 1.660 . S
C711 C118 1.660 . S
C716 C151 1.655 . S
C727 C162 1.656 . S
C732 C129 1.660 . S
C743 C261 1.604 . S
C748 C184 1.639 . S
C759 C228 1.609 . S
C764 C195 1.641 . S
C775 C206 1.614 . S
C780 C239 1.588 . S
C791 C250 1.623 . S
C796 C217 1.642 . S
C807 C349 1.651 . S
C812 C272 1.658 . S
C823 C316 1.656 . S
C828 C283 1.649 . S
C839 C327 1.650 . S
C844 C294 1.657 . S
C855 C305 1.649 . S
C860 C338 1.656 . S
C871 C5 1.361 . S
C876 C269 1.582 . S
C887 C16 1.227 . S
C892 C104 1.655 1_545 S
C903 C291 1.582 . S
C908 C27 1.360 . S
C919 C38 1.351 1_566 S
C924 C126 1.630 . S
C935 C313 1.585 . S
C940 C49 1.328 . S
C951 C60 1.226 1_545 S
C956 C148 1.650 . S
C967 C335 1.604 . S
C972 C71 1.275 . S
C983 C82 1.247 1_564 S
C988 C170 1.620 . S
C999 C93 1.601 . S
C1004 C181 1.379 . S
C1015 C203 1.228 . S
C1020 C115 1.656 . S
C1031 C225 1.225 . S
C1036 C137 1.650 . S
C1047 C247 1.243 . S
C1052 C159 1.623 . S
C1063 C192 1.349 1_556 S
C1068 C280 1.631 . S
C1079 C214 1.351 . S
C1084 C302 1.630 . S
C1095 C324 1.626 . S
C1100 C236 1.240 1_554 S
C1111 C258 1.250 . S
C1116 C346 1.662 . S
