# Generated by pormake.
# Topology whz, (6)-cn, num edge types: 1
# Building blocks:
#     Node 0, Type 0, BuildingBlock: CUWYAW_clean_sbu_0, # of connection points: 6
#     Node 1, Type 0, BuildingBlock: CUWYAW_clean_sbu_0, # of connection points: 6
#     Node 2, Type 0, BuildingBlock: CUWYAW_clean_sbu_0, # of connection points: 6
#     Node 3, Type 0, BuildingBlock: CUWYAW_clean_sbu_0, # of connection points: 6
#     Node 4, Type 0, BuildingBlock: CUWYAW_clean_sbu_0, # of connection points: 6
#     Node 5, Type 0, BuildingBlock: CUWYAW_clean_sbu_0, # of connection points: 6
#     Node 6, Type 0, BuildingBlock: CUWYAW_clean_sbu_0, # of connection points: 6
#     Node 7, Type 0, BuildingBlock: CUWYAW_clean_sbu_0, # of connection points: 6
#     Node 8, Type 0, BuildingBlock: CUWYAW_clean_sbu_0, # of connection points: 6
#     Node 9, Type 0, BuildingBlock: CUWYAW_clean_sbu_0, # of connection points: 6
#     Node 10, Type 0, BuildingBlock: CUWYAW_clean_sbu_0, # of connection points: 6
#     Node 11, Type 0, BuildingBlock: CUWYAW_clean_sbu_0, # of connection points: 6
#     Node 12, Type 0, BuildingBlock: CUWYAW_clean_sbu_0, # of connection points: 6
#     Node 13, Type 0, BuildingBlock: CUWYAW_clean_sbu_0, # of connection points: 6
#     Node 14, Type 0, BuildingBlock: CUWYAW_clean_sbu_0, # of connection points: 6
#     Node 15, Type 0, BuildingBlock: CUWYAW_clean_sbu_0, # of connection points: 6
#     Edge 16, Type (0, 0), BuildingBlock: KIFKEQ_clean_linker_1, # of connection points: 2
#     Edge 17, Type (0, 0), BuildingBlock: KIFKEQ_clean_linker_1, # of connection points: 2
#     Edge 18, Type (0, 0), BuildingBlock: KIFKEQ_clean_linker_1, # of connection points: 2
#     Edge 19, Type (0, 0), BuildingBlock: KIFKEQ_clean_linker_1, # of connection points: 2
#     Edge 20, Type (0, 0), BuildingBlock: KIFKEQ_clean_linker_1, # of connection points: 2
#     Edge 21, Type (0, 0), BuildingBlock: KIFKEQ_clean_linker_1, # of connection points: 2
#     Edge 22, Type (0, 0), BuildingBlock: KIFKEQ_clean_linker_1, # of connection points: 2
#     Edge 23, Type (0, 0), BuildingBlock: KIFKEQ_clean_linker_1, # of connection points: 2
#     Edge 24, Type (0, 0), BuildingBlock: KIFKEQ_clean_linker_1, # of connection points: 2
#     Edge 25, Type (0, 0), BuildingBlock: KIFKEQ_clean_linker_1, # of connection points: 2
#     Edge 26, Type (0, 0), BuildingBlock: KIFKEQ_clean_linker_1, # of connection points: 2
#     Edge 27, Type (0, 0), BuildingBlock: KIFKEQ_clean_linker_1, # of connection points: 2
#     Edge 28, Type (0, 0), BuildingBlock: KIFKEQ_clean_linker_1, # of connection points: 2
#     Edge 29, Type (0, 0), BuildingBlock: KIFKEQ_clean_linker_1, # of connection points: 2
#     Edge 30, Type (0, 0), BuildingBlock: KIFKEQ_clean_linker_1, # of connection points: 2
#     Edge 31, Type (0, 0), BuildingBlock: KIFKEQ_clean_linker_1, # of connection points: 2
#     Edge 32, Type (0, 0), BuildingBlock: KIFKEQ_clean_linker_1, # of connection points: 2
#     Edge 33, Type (0, 0), BuildingBlock: KIFKEQ_clean_linker_1, # of connection points: 2
#     Edge 34, Type (0, 0), BuildingBlock: KIFKEQ_clean_linker_1, # of connection points: 2
#     Edge 35, Type (0, 0), BuildingBlock: KIFKEQ_clean_linker_1, # of connection points: 2
#     Edge 36, Type (0, 0), BuildingBlock: KIFKEQ_clean_linker_1, # of connection points: 2
#     Edge 37, Type (0, 0), BuildingBlock: KIFKEQ_clean_linker_1, # of connection points: 2
#     Edge 38, Type (0, 0), BuildingBlock: KIFKEQ_clean_linker_1, # of connection points: 2
#     Edge 39, Type (0, 0), BuildingBlock: KIFKEQ_clean_linker_1, # of connection points: 2
#     Edge 40, Type (0, 0), BuildingBlock: KIFKEQ_clean_linker_1, # of connection points: 2
#     Edge 41, Type (0, 0), BuildingBlock: KIFKEQ_clean_linker_1, # of connection points: 2
#     Edge 42, Type (0, 0), BuildingBlock: KIFKEQ_clean_linker_1, # of connection points: 2
#     Edge 43, Type (0, 0), BuildingBlock: KIFKEQ_clean_linker_1, # of connection points: 2
#     Edge 44, Type (0, 0), BuildingBlock: KIFKEQ_clean_linker_1, # of connection points: 2
#     Edge 45, Type (0, 0), BuildingBlock: KIFKEQ_clean_linker_1, # of connection points: 2
#     Edge 46, Type (0, 0), BuildingBlock: KIFKEQ_clean_linker_1, # of connection points: 2
#     Edge 47, Type (0, 0), BuildingBlock: KIFKEQ_clean_linker_1, # of connection points: 2
#     Edge 48, Type (0, 0), BuildingBlock: KIFKEQ_clean_linker_1, # of connection points: 2
#     Edge 49, Type (0, 0), BuildingBlock: KIFKEQ_clean_linker_1, # of connection points: 2
#     Edge 50, Type (0, 0), BuildingBlock: KIFKEQ_clean_linker_1, # of connection points: 2
#     Edge 51, Type (0, 0), BuildingBlock: KIFKEQ_clean_linker_1, # of connection points: 2
#     Edge 52, Type (0, 0), BuildingBlock: KIFKEQ_clean_linker_1, # of connection points: 2
#     Edge 53, Type (0, 0), BuildingBlock: KIFKEQ_clean_linker_1, # of connection points: 2
#     Edge 54, Type (0, 0), BuildingBlock: KIFKEQ_clean_linker_1, # of connection points: 2
#     Edge 55, Type (0, 0), BuildingBlock: KIFKEQ_clean_linker_1, # of connection points: 2
#     Edge 56, Type (0, 0), BuildingBlock: KIFKEQ_clean_linker_1, # of connection points: 2
#     Edge 57, Type (0, 0), BuildingBlock: KIFKEQ_clean_linker_1, # of connection points: 2
#     Edge 58, Type (0, 0), BuildingBlock: KIFKEQ_clean_linker_1, # of connection points: 2
#     Edge 59, Type (0, 0), BuildingBlock: KIFKEQ_clean_linker_1, # of connection points: 2
#     Edge 60, Type (0, 0), BuildingBlock: KIFKEQ_clean_linker_1, # of connection points: 2
#     Edge 61, Type (0, 0), BuildingBlock: KIFKEQ_clean_linker_1, # of connection points: 2
#     Edge 62, Type (0, 0), BuildingBlock: KIFKEQ_clean_linker_1, # of connection points: 2
#     Edge 63, Type (0, 0), BuildingBlock: KIFKEQ_clean_linker_1, # of connection points: 2
# Relax obj value: 0.724
# Max RMSD: 0.311
# Mean RMSD: 0.311
data_MOF--net-whz--node1-CUWYAW_clean_sbu_0--edge1-KIFKEQ_clean_linker_1
_symmetry_space_group_name_H-M    P1
_symmetry_Int_Tables_number       1
_symmetry_cell_setting            triclinic
loop_
_symmetry_equiv_pos_as_xyz
'x, y, z'
_cell_length_a     35.242138
_cell_length_b     35.041763
_cell_length_c     73.433464
_cell_angle_alpha  89.966481
_cell_angle_beta   89.902447
_cell_angle_gamma 90.192233
loop_
_atom_site_label
_atom_site_type_symbol
_atom_site_fract_x
_atom_site_fract_y
_atom_site_fract_z
_atom_type_partial_charge
C0 C 0.32662 0.1492 0.11145 0.0
Eu1 Eu 0.32786 0.16862 0.14603 0.0
C2 C 0.308 0.13841 0.09394 0.0
C3 C 0.33016 0.12112 0.08036 0.0
C4 C 0.31631 0.11636 0.06258 0.0
C5 C 0.2796 0.12855 0.05776 0.0
C6 C 0.25677 0.14462 0.07161 0.0
C7 C 0.27089 0.1498 0.08943 0.0
C8 C 0.34581 0.12682 0.17698 0.0
C9 C 0.24531 0.15462 0.16606 0.0
C10 C 0.32238 0.23073 0.21361 0.0
Eu11 Eu 0.31283 0.20524 0.18112 0.0
C12 C 0.34958 0.25782 0.22163 0.0
C13 C 0.34105 0.29682 0.22267 0.0
C14 C 0.36049 0.31973 0.23509 0.0
C15 C 0.38421 0.30202 0.24806 0.0
C16 C 0.40229 0.26837 0.24214 0.0
C17 C 0.38305 0.24472 0.22991 0.0
C18 C 0.28398 0.24633 0.15375 0.0
C19 C 0.39682 0.21836 0.16114 0.0
O20 O 0.32153 0.18384 0.11751 0.0
O21 O 0.33178 0.12435 0.12455 0.0
O22 O 0.36795 0.12826 0.16272 0.0
O23 O 0.31714 0.14608 0.17361 0.0
O24 O 0.26432 0.15606 0.15042 0.0
O25 O 0.26068 0.16794 0.18119 0.0
O26 O 0.33641 0.19821 0.20811 0.0
O27 O 0.29674 0.24469 0.20257 0.0
O28 O 0.26663 0.23899 0.16892 0.0
O29 O 0.31661 0.23047 0.15343 0.0
O30 O 0.37465 0.22305 0.17553 0.0
O31 O 0.38474 0.19865 0.147 0.0
H32 H 0.35898 0.11251 0.08335 0.0
H33 H 0.33465 0.10337 0.05251 0.0
H34 H 0.22846 0.15459 0.06851 0.0
H35 H 0.25326 0.16375 0.09951 0.0
H36 H 0.31734 0.30881 0.21526 0.0
H37 H 0.35011 0.34844 0.2371 0.0
H38 H 0.42522 0.25613 0.24998 0.0
H39 H 0.39235 0.21547 0.22831 0.0
C40 C 0.66446 0.58069 0.3613 0.0
Eu41 Eu 0.64242 0.58169 0.39546 0.0
C42 C 0.67132 0.56042 0.34376 0.0
C43 C 0.69902 0.57501 0.33192 0.0
C44 C 0.70271 0.56118 0.31409 0.0
C45 C 0.67915 0.53159 0.30744 0.0
C46 C 0.6521 0.51605 0.31969 0.0
C47 C 0.64801 0.5305 0.33752 0.0
C48 C 0.68452 0.60157 0.42568 0.0
C49 C 0.65374 0.49835 0.41567 0.0
C50 C 0.60045 0.58749 0.46533 0.0
Eu51 Eu 0.60734 0.56885 0.43183 0.0
C52 C 0.57123 0.60894 0.475 0.0
C53 C 0.533 0.598 0.47428 0.0
C54 C 0.50747 0.61347 0.48672 0.0
C55 C 0.52117 0.63732 0.50081 0.0
C56 C 0.55543 0.65694 0.49732 0.0
C57 C 0.58149 0.64109 0.4852 0.0
C58 C 0.55334 0.54498 0.40929 0.0
C59 C 0.58992 0.64984 0.41013 0.0
O60 O 0.62934 0.58543 0.36657 0.0
O61 O 0.68798 0.57661 0.37495 0.0
O62 O 0.68069 0.62431 0.41177 0.0
O63 O 0.6656 0.57226 0.42268 0.0
O64 O 0.65532 0.51829 0.40025 0.0
O65 O 0.63828 0.51271 0.4306 0.0
O66 O 0.62012 0.6079 0.45371 0.0
O67 O 0.59117 0.55324 0.45935 0.0
O68 O 0.55101 0.54385 0.42688 0.0
O69 O 0.58527 0.55798 0.40356 0.0
O70 O 0.58417 0.62783 0.42447 0.0
O71 O 0.61172 0.63842 0.39661 0.0
H72 H 0.71699 0.59846 0.33624 0.0
H73 H 0.72334 0.57505 0.3054 0.0
H74 H 0.63375 0.49284 0.31557 0.0
H75 H 0.62613 0.51879 0.34629 0.0
H76 H 0.52348 0.5755 0.46524 0.0
H77 H 0.47939 0.60094 0.48723 0.0
H78 H 0.56528 0.67914 0.50642 0.0
H79 H 0.61028 0.65207 0.48481 0.0
C80 C 0.22621 0.91908 0.61101 0.0
Eu81 Eu 0.22885 0.89357 0.64467 0.0
C82 C 0.2454 0.92744 0.59338 0.0
C83 C 0.22412 0.94513 0.57965 0.0
C84 C 0.23858 0.94925 0.56197 0.0
C85 C 0.27501 0.93589 0.55741 0.0
C86 C 0.29699 0.91922 0.57138 0.0
C87 C 0.28222 0.91473 0.58915 0.0
C88 C 0.20884 0.93141 0.67651 0.0
C89 C 0.31193 0.90693 0.66337 0.0
C90 C 0.24198 0.82329 0.70988 0.0
Eu91 Eu 0.24603 0.85454 0.67835 0.0
C92 C 0.2095 0.80799 0.71999 0.0
C93 C 0.21134 0.77101 0.72702 0.0
C94 C 0.18695 0.76056 0.74112 0.0
C95 C 0.16491 0.78917 0.7496 0.0
C96 C 0.15383 0.81989 0.73846 0.0
C97 C 0.17781 0.83074 0.72418 0.0
C98 C 0.27729 0.81808 0.64994 0.0
C99 C 0.16047 0.8445 0.66043 0.0
O100 O 0.22237 0.8833 0.61561 0.0
O101 O 0.23153 0.94135 0.62509 0.0
O102 O 0.18653 0.92946 0.66241 0.0
O103 O 0.23866 0.91444 0.67268 0.0
O104 O 0.2928 0.90509 0.64783 0.0
O105 O 0.29722 0.89279 0.67849 0.0
O106 O 0.24289 0.86036 0.70766 0.0
O107 O 0.25206 0.80418 0.6954 0.0
O108 O 0.2947 0.82634 0.66492 0.0
O109 O 0.24374 0.83176 0.65011 0.0
O110 O 0.18217 0.84242 0.67508 0.0
O111 O 0.17324 0.8615 0.64566 0.0
H112 H 0.19557 0.95489 0.58249 0.0
H113 H 0.22096 0.96276 0.55178 0.0
H114 H 0.32509 0.90841 0.56842 0.0
H115 H 0.29913 0.90054 0.59942 0.0
H116 H 0.23381 0.75175 0.72295 0.0
H117 H 0.19251 0.73362 0.7478 0.0
H118 H 0.13333 0.84043 0.74337 0.0
H119 H 0.17384 0.85837 0.71784 0.0
C120 C 0.89529 0.47977 0.86027 0.0
Eu121 Eu 0.91704 0.48691 0.89432 0.0
C122 C 0.88816 0.49969 0.84264 0.0
C123 C 0.86307 0.48286 0.83021 0.0
C124 C 0.85884 0.4975 0.81255 0.0
C125 C 0.87921 0.53007 0.80668 0.0
C126 C 0.90366 0.54767 0.81948 0.0
C127 C 0.90826 0.53254 0.83717 0.0
C128 C 0.87623 0.46741 0.92537 0.0
C129 C 0.90684 0.56489 0.91444 0.0
C130 C 0.98775 0.49712 0.95918 0.0
Eu131 Eu 0.95796 0.49272 0.92734 0.0
C132 C 1.00334 0.46729 0.97091 0.0
C133 C 0.04015 0.47132 0.97766 0.0
C134 C 0.0516 0.44901 0.99233 0.0
C135 C 1.02434 0.42629 1.00147 0.0
C136 C 0.99321 0.41356 0.99111 0.0
C137 C 0.98155 0.43551 0.97628 0.0
C138 C 1.00124 0.51386 0.89842 0.0
C139 C 0.96536 0.41214 0.90875 0.0
O140 O 0.93045 0.47701 0.86573 0.0
O141 O 0.87159 0.48462 0.8738 0.0
O142 O 0.86293 0.48848 0.91232 0.0
O143 O 0.90903 0.45715 0.92103 0.0
O144 O 0.90948 0.54993 0.89808 0.0
O145 O 0.91995 0.54584 0.92866 0.0
O146 O 0.951 0.49666 0.95665 0.0
O147 O 1.00702 0.50421 0.94439 0.0
O148 O 1.01006 0.48755 0.90995 0.0
O149 O 0.96724 0.52389 0.90122 0.0
O150 O 0.96516 0.42946 0.92461 0.0
O151 O 0.95131 0.43011 0.89431 0.0
H152 H 0.84752 0.45731 0.83397 0.0
H153 H 0.84035 0.48213 0.80337 0.0
H154 H 0.91947 0.57311 0.8159 0.0
H155 H 0.92798 0.54616 0.84644 0.0
H156 H 0.05867 0.49385 0.97274 0.0
H157 H 0.07837 0.45636 0.99864 0.0
H158 H 0.97333 0.39311 0.99679 0.0
H159 H 0.95415 0.42984 0.97027 0.0
C160 C 0.75368 0.78875 0.872 0.0
Eu161 Eu 0.74649 0.84616 0.89371 0.0
C162 C 0.73029 0.78041 0.85616 0.0
C163 C 0.73879 0.74974 0.84487 0.0
C164 C 0.72045 0.7463 0.82816 0.0
C165 C 0.69405 0.77431 0.82243 0.0
C166 C 0.68056 0.80024 0.83549 0.0
C167 C 0.6997 0.80434 0.85191 0.0
C168 C 0.75549 0.80781 0.93181 0.0
C169 C 0.66172 0.84652 0.90709 0.0
C170 C 0.72922 0.93082 0.95375 0.0
Eu171 Eu 0.73078 0.89688 0.92186 0.0
C172 C 0.75001 0.93333 0.97142 0.0
C173 C 0.74811 0.96722 0.9815 0.0
C174 C 0.76303 0.96937 0.99919 0.0
C175 C 0.78008 0.93744 1.00757 0.0
C176 C 0.78309 0.9037 0.9971 0.0
C177 C 0.7683 0.90168 0.97928 0.0
C178 C 0.70865 0.92522 0.88783 0.0
C179 C 0.81313 0.90288 0.90134 0.0
O180 O 0.77501 0.81937 0.87069 0.0
O181 O 0.73515 0.78686 0.88735 0.0
O182 O 0.75977 0.83922 0.92292 0.0
O183 O 0.75966 0.83896 0.92249 0.0
O184 O 0.68216 0.84708 0.89209 0.0
O185 O 0.67719 0.85971 0.92219 0.0
O186 O 0.71232 0.8985 0.95014 0.0
O187 O 0.74424 0.9464 0.93922 0.0
O188 O 0.68962 0.93046 0.90284 0.0
O189 O 0.73832 0.9077 0.89161 0.0
O190 O 0.79395 0.90885 0.91664 0.0
O191 O 0.79887 0.8813 0.88826 0.0
H192 H 0.76148 0.73024 0.84832 0.0
H193 H 0.73094 0.72459 0.819 0.0
H194 H 0.65902 0.82099 0.83204 0.0
H195 H 0.69233 0.828 0.8606 0.0
H196 H 0.73413 0.99201 0.97583 0.0
H197 H 0.76083 0.9963 1.0063 0.0
H198 H 0.79564 0.87826 1.00285 0.0
H199 H 0.77018 0.87502 0.97188 0.0
C200 C 0.44614 0.47204 0.59825 0.0
Eu201 Eu 0.4452 0.49169 0.63193 0.0
C202 C 0.47248 0.44964 0.58753 0.0
C203 C 0.50917 0.44221 0.59389 0.0
C204 C 0.53612 0.4272 0.58198 0.0
C205 C 0.52707 0.42338 0.56333 0.0
C206 C 0.48807 0.42041 0.55891 0.0
C207 C 0.461 0.43518 0.57076 0.0
C208 C 0.50133 0.51583 0.65341 0.0
C209 C 0.46508 0.41307 0.65498 0.0
C210 C 0.39276 0.48423 0.70416 0.0
Eu211 Eu 0.41339 0.48164 0.66981 0.0
C212 C 0.38556 0.50445 0.7217 0.0
C213 C 0.35583 0.49158 0.73286 0.0
C214 C 0.35173 0.50495 0.75076 0.0
C215 C 0.37699 0.53224 0.75815 0.0
C216 C 0.40605 0.5462 0.74657 0.0
C217 C 0.41046 0.53228 0.72867 0.0
C218 C 0.36878 0.46125 0.64038 0.0
C219 C 0.4026 0.56399 0.64873 0.0
O220 O 0.42878 0.45224 0.61086 0.0
O221 O 0.45843 0.50562 0.60382 0.0
O222 O 0.50275 0.51545 0.63576 0.0
O223 O 0.46954 0.50355 0.65957 0.0
O224 O 0.466 0.43217 0.63948 0.0
O225 O 0.44758 0.42701 0.66938 0.0
O226 O 0.42784 0.48076 0.6986 0.0
O227 O 0.36851 0.48643 0.69072 0.0
O228 O 0.37358 0.43868 0.6543 0.0
O229 O 0.38843 0.49015 0.64299 0.0
O230 O 0.40276 0.54529 0.66453 0.0
O231 O 0.41529 0.54816 0.63354 0.0
H232 H 0.51763 0.45056 0.60751 0.0
H233 H 0.56513 0.42521 0.58668 0.0
H234 H 0.47864 0.41318 0.54534 0.0
H235 H 0.43182 0.43794 0.5663 0.0
H236 H 0.33656 0.46972 0.72797 0.0
H237 H 0.32938 0.49248 0.75896 0.0
H238 H 0.42577 0.56772 0.75128 0.0
H239 H 0.43389 0.54265 0.72046 0.0
C240 C 0.82533 0.22524 0.35127 0.0
Eu241 Eu 0.81265 0.20393 0.38423 0.0
C242 C 0.85271 0.25141 0.3428 0.0
C243 C 0.84926 0.29112 0.34454 0.0
C244 C 0.86798 0.3148 0.33213 0.0
C245 C 0.8856 0.2981 0.3168 0.0
C246 C 0.90039 0.26117 0.31958 0.0
C247 C 0.88151 0.23681 0.33162 0.0
C248 C 0.78129 0.24529 0.41084 0.0
C249 C 0.89537 0.21915 0.40484 0.0
C250 C 0.82469 0.14573 0.45353 0.0
Eu251 Eu 0.82668 0.16773 0.41925 0.0
C252 C 0.80339 0.13518 0.47045 0.0
C253 C 0.8179 0.10641 0.48175 0.0
C254 C 0.80271 0.09976 0.49919 0.0
C255 C 0.77256 0.12198 0.50609 0.0
C256 C 0.75723 0.15008 0.49439 0.0
C257 C 0.77237 0.15656 0.47686 0.0
C258 C 0.84543 0.12581 0.3884 0.0
C259 C 0.7445 0.15409 0.39912 0.0
O260 O 0.83991 0.1943 0.35825 0.0
O261 O 0.79827 0.24016 0.36125 0.0
O262 O 0.76589 0.23879 0.39512 0.0
O263 O 0.81401 0.22959 0.41199 0.0
O264 O 0.87289 0.22499 0.39071 0.0
O265 O 0.88389 0.19751 0.41848 0.0
O266 O 0.82356 0.18123 0.44813 0.0
O267 O 0.82739 0.12175 0.43993 0.0
O268 O 0.86769 0.1281 0.40253 0.0
O269 O 0.81658 0.14473 0.39181 0.0
O270 O 0.76302 0.15593 0.41485 0.0
O271 O 0.76036 0.16702 0.38401 0.0
H272 H 0.82983 0.30365 0.35427 0.0
H273 H 0.86137 0.34491 0.33246 0.0
H274 H 0.91969 0.24853 0.30985 0.0
H275 H 0.88712 0.20644 0.33104 0.0
H276 H 0.84203 0.08972 0.47731 0.0
H277 H 0.81509 0.07721 0.50727 0.0
H278 H 0.7344 0.16831 0.49895 0.0
H279 H 0.76064 0.17923 0.4686 0.0
C280 C 0.08891 0.57666 0.10258 0.0
Eu281 Eu 0.10773 0.56647 0.13596 0.0
C282 C 0.06934 0.60787 0.09324 0.0
C283 C 0.03005 0.61293 0.09499 0.0
C284 C 1.01098 0.63495 0.08214 0.0
C285 C 0.03077 0.6466 0.06631 0.0
C286 C 0.06983 0.65381 0.06865 0.0
C287 C 0.0896 0.63188 0.08135 0.0
C288 C 0.06687 0.53399 0.16256 0.0
C289 C 0.09187 0.65056 0.15534 0.0
C290 C 0.16367 0.58338 0.20512 0.0
Eu291 Eu 0.14214 0.58265 0.17084 0.0
C292 C 0.17038 0.56208 0.22247 0.0
C293 C 0.20306 0.57018 0.23276 0.0
C294 C 0.20736 0.55563 0.2505 0.0
C295 C 0.17885 0.53294 0.25847 0.0
C296 C 0.14661 0.52389 0.24804 0.0
C297 C 0.14247 0.53811 0.23021 0.0
C298 C 0.18351 0.60325 0.14029 0.0
C299 C 0.15756 0.49949 0.15141 0.0
O300 O 0.12257 0.58516 0.1088 0.0
O301 O 0.06883 0.55522 0.11367 0.0
O302 O 0.07496 0.51793 0.14712 0.0
O303 O 0.08137 0.56748 0.16357 0.0
O304 O 0.08543 0.62692 0.14166 0.0
O305 O 0.11394 0.64037 0.16893 0.0
O306 O 0.12862 0.5872 0.19965 0.0
O307 O 0.18756 0.58029 0.19153 0.0
O308 O 0.17882 0.62617 0.15406 0.0
O309 O 0.16647 0.57304 0.14372 0.0
O310 O 0.15543 0.51868 0.167 0.0
O311 O 0.14415 0.51434 0.13625 0.0
H312 H 1.01375 0.59751 0.10514 0.0
H313 H 0.98031 0.63462 0.08263 0.0
H314 H 0.08597 0.66832 0.05816 0.0
H315 H 0.12032 0.63108 0.08072 0.0
H316 H 0.22475 0.589 0.22732 0.0
H317 H 0.23245 0.56315 0.25822 0.0
H318 H 0.12435 0.50621 0.25379 0.0
H319 H 0.11685 0.53134 0.22274 0.0
C320 C 0.82602 0.64786 0.61102 0.0
Eu321 Eu 0.82671 0.67021 0.64525 0.0
C322 C 0.80464 0.64102 0.59374 0.0
C323 C 0.81122 0.6074 0.58385 0.0
C324 C 0.7967 0.60262 0.56617 0.0
C325 C 0.77543 0.63162 0.55757 0.0
C326 C 0.76786 0.66487 0.56786 0.0
C327 C 0.78211 0.66943 0.58565 0.0
C328 C 0.84641 0.62643 0.67529 0.0
C329 C 0.74454 0.65638 0.66489 0.0
C330 C 0.82415 0.72123 0.7143 0.0
Eu331 Eu 0.81264 0.70327 0.68084 0.0
C332 C 0.85234 0.7458 0.72304 0.0
C333 C 0.85633 0.78437 0.71825 0.0
C334 C 0.87603 0.80888 0.72986 0.0
C335 C 0.88709 0.79534 0.74717 0.0
C336 C 0.89518 0.75593 0.74817 0.0
C337 C 0.87532 0.73096 0.73684 0.0
C338 C 0.78198 0.74717 0.65471 0.0
C339 C 0.89567 0.71942 0.66072 0.0
O340 O 0.83091 0.68311 0.61632 0.0
O341 O 0.82245 0.62424 0.62474 0.0
O342 O 0.86905 0.63139 0.66145 0.0
O343 O 0.81694 0.64461 0.67223 0.0
O344 O 0.76218 0.66217 0.64912 0.0
O345 O 0.7615 0.6651 0.68033 0.0
O346 O 0.83783 0.69024 0.70698 0.0
O347 O 0.79815 0.73792 0.70433 0.0
O348 O 0.76635 0.73976 0.67032 0.0
O349 O 0.81454 0.73129 0.6535 0.0
O350 O 0.87384 0.72289 0.67529 0.0
O351 O 0.88336 0.70067 0.64634 0.0
H352 H 0.82874 0.5851 0.58961 0.0
H353 H 0.80266 0.57607 0.55925 0.0
H354 H 0.75214 0.68831 0.56202 0.0
H355 H 0.77662 0.69589 0.59279 0.0
H356 H 0.84194 0.79608 0.70649 0.0
H357 H 0.87522 0.83907 0.72684 0.0
H358 H 0.90974 0.74395 0.75978 0.0
H359 H 0.87556 0.70062 0.73974 0.0
C360 C 0.16424 0.0757 0.86224 0.0
Eu361 Eu 0.14016 0.07739 0.89617 0.0
C362 C 0.17141 0.05562 0.84466 0.0
C363 C 0.19655 0.07245 0.83219 0.0
C364 C 0.20037 0.05822 0.81442 0.0
C365 C 0.17953 1.02605 0.80848 0.0
C366 C 0.15501 1.00848 0.82132 0.0
C367 C 0.15076 1.02325 0.8391 0.0
C368 C 0.18195 0.09721 0.92702 0.0
C369 C 0.15117 0.99582 0.91663 0.0
C370 C 0.08198 0.08 0.96385 0.0
Eu371 Eu 0.10349 0.06531 0.93115 0.0
C372 C 0.05616 0.10804 0.97202 0.0
C373 C 1.01705 0.10084 0.97314 0.0
C374 C 0.99565 0.11985 0.98629 0.0
C375 C 1.01508 0.14092 0.99977 0.0
C376 C 0.04869 0.15905 0.99395 0.0
C377 C 0.07091 0.14035 0.98095 0.0
C378 C 0.06328 1.03088 0.90518 0.0
C379 C 0.08953 0.14717 0.90948 0.0
O380 O 0.12905 0.08144 0.86707 0.0
O381 O 0.18667 0.07056 0.8762 0.0
O382 O 0.18019 0.11891 0.91263 0.0
O383 O 0.16256 0.06839 0.92386 0.0
O384 O 0.14709 1.01289 0.90061 0.0
O385 O 0.14122 1.01355 0.93177 0.0
O386 O 0.11306 0.09403 0.95676 0.0
O387 O 0.06697 0.05226 0.95423 0.0
O388 O 0.06913 1.0172 0.92134 0.0
O389 O 0.07847 0.064 0.9032 0.0
O390 O 0.08281 0.12515 0.92373 0.0
O391 O 0.11167 0.13519 0.89623 0.0
H392 H 0.21236 0.09781 0.83598 0.0
H393 H 0.21889 0.07361 0.80523 0.0
H394 H 0.13881 0.98334 0.81769 0.0
H395 H 0.13085 1.0098 0.84836 0.0
H396 H 1.00388 0.07817 0.96534 0.0
H397 H 0.96689 0.10993 0.98851 0.0
H398 H 0.06239 0.17994 1.00262 0.0
H399 H 0.10043 0.14849 0.97944 0.0
C400 C 0.73377 0.4144 0.11077 0.0
Eu401 Eu 0.73093 0.39441 0.14534 0.0
C402 C 0.75451 0.42597 0.09379 0.0
C403 C 0.73991 0.45553 0.08294 0.0
C404 C 0.75426 0.46263 0.06535 0.0
C405 C 0.78369 0.44023 0.05789 0.0
C406 C 0.79915 0.41139 0.0691 0.0
C407 C 0.78481 0.40438 0.08673 0.0
C408 C 0.70981 0.43814 0.17527 0.0
C409 C 0.81213 0.41053 0.1662 0.0
C410 C 0.73328 0.34128 0.21467 0.0
Eu411 Eu 0.74338 0.36174 0.18138 0.0
C412 C 0.70201 0.32259 0.22439 0.0
C413 C 0.69085 0.28495 0.22046 0.0
C414 C 0.67003 0.26439 0.23341 0.0
C415 C 0.66562 0.28016 0.25096 0.0
C416 C 0.66439 0.32043 0.25181 0.0
C417 C 0.68498 0.34145 0.23904 0.0
C418 C 0.77767 0.31974 0.15582 0.0
C419 C 0.66165 0.34568 0.16056 0.0
O420 O 0.7384 0.37967 0.11682 0.0
O421 O 0.72718 0.43881 0.12389 0.0
O422 O 0.68758 0.43306 0.16128 0.0
O423 O 0.73935 0.41999 0.1724 0.0
O424 O 0.79404 0.40825 0.15035 0.0
O425 O 0.79604 0.39799 0.18132 0.0
O426 O 0.72653 0.37588 0.20896 0.0
O427 O 0.7524 0.32057 0.20301 0.0
O428 O 0.79219 0.32868 0.17144 0.0
O429 O 0.74433 0.33369 0.15404 0.0
O430 O 0.68077 0.3468 0.17602 0.0
O431 O 0.67647 0.35999 0.14556 0.0
H432 H 0.7163 0.4724 0.08783 0.0
H433 H 0.74183 0.48559 0.05754 0.0
H434 H 0.82141 0.39302 0.06404 0.0
H435 H 0.79657 0.38105 0.09456 0.0
H436 H 0.70097 0.27042 0.20838 0.0
H437 H 0.6659 0.23413 0.23117 0.0
H438 H 0.65569 0.33508 0.26407 0.0
H439 H 0.69062 0.37141 0.24159 0.0
C440 C 0.39083 0.98181 0.36167 0.0
Eu441 Eu 0.41378 0.98272 0.39571 0.0
C442 C 0.3836 1.00046 0.34379 0.0
C443 C 0.36649 0.97858 0.33006 0.0
C444 C 0.36259 0.99281 0.31232 0.0
C445 C 0.37559 1.02961 0.30771 0.0
C446 C 0.39181 0.05212 0.32168 0.0
C447 C 0.39606 0.03759 0.33951 0.0
C448 C 0.37148 0.96531 0.42656 0.0
C449 C 0.40326 0.06606 0.41495 0.0
C450 C 0.46841 0.98186 0.46352 0.0
Eu451 Eu 0.45009 0.99688 0.43049 0.0
C452 C 0.49628 0.95633 0.47173 0.0
C453 C 0.53513 0.96042 0.46814 0.0
C454 C 0.56123 0.94325 0.47973 0.0
C455 C 0.54812 0.92538 0.49582 0.0
C456 C 0.51078 0.91079 0.4954 0.0
C457 C 0.48424 0.9283 0.48408 0.0
C458 C 0.49231 1.02725 0.40394 0.0
C459 C 0.46466 0.91386 0.4101 0.0
O460 O 0.42604 0.97716 0.36671 0.0
O461 O 0.36796 0.98766 0.37544 0.0
O462 O 0.37319 0.94268 0.41253 0.0
O463 O 0.3911 0.99385 0.42307 0.0
O464 O 0.40652 0.04762 0.39922 0.0
O465 O 0.41365 0.04943 0.43028 0.0
O466 O 0.44056 0.96454 0.45516 0.0
O467 O 0.48137 1.01206 0.45486 0.0
O468 O 0.48674 0.04272 0.41979 0.0
O469 O 0.47555 0.9948 0.40274 0.0
O470 O 0.47434 0.93812 0.42307 0.0
O471 O 0.43968 0.9237 0.39764 0.0
H472 H 0.35683 0.94982 0.33297 0.0
H473 H 0.34939 0.97477 0.30216 0.0
H474 H 0.40233 0.08052 0.31869 0.0
H475 H 0.4097 0.055 0.3498 0.0
H476 H 0.54534 0.97938 0.45754 0.0
H477 H 0.59073 0.95096 0.47791 0.0
H478 H 0.50038 0.89254 0.50622 0.0
H479 H 0.4543 0.92241 0.48607 0.0
C480 C 0.23958 0.33975 0.35073 0.0
Eu481 Eu 0.23906 0.35845 0.38446 0.0
C482 C 0.215 0.31416 0.34028 0.0
C483 C 0.21281 0.27501 0.34406 0.0
C484 C 0.19425 0.2508 0.33189 0.0
C485 C 0.18091 0.26541 0.31512 0.0
C486 C 0.17374 0.30504 0.31441 0.0
C487 C 0.19234 0.32936 0.32645 0.0
C488 C 0.2507 0.30784 0.41212 0.0
C489 C 0.15858 0.34902 0.40428 0.0
C490 C 0.23157 0.41948 0.45389 0.0
Eu491 Eu 0.23029 0.39514 0.42003 0.0
C492 C 0.25271 0.42373 0.47145 0.0
C493 C 0.25289 0.4592 0.48035 0.0
C494 C 0.267 0.46296 0.49817 0.0
C495 C 0.28108 0.43118 0.50788 0.0
C496 C 0.28202 0.39584 0.49861 0.0
C497 C 0.26816 0.39219 0.4807 0.0
C498 C 0.20978 0.43727 0.38945 0.0
C499 C 0.31246 0.40236 0.40004 0.0
O500 O 0.22244 0.37024 0.35679 0.0
O501 O 0.26295 0.32431 0.36255 0.0
O502 O 0.22944 0.30176 0.39807 0.0
O503 O 0.26206 0.34215 0.41173 0.0
O504 O 0.17509 0.3553 0.38843 0.0
O505 O 0.17721 0.35725 0.41939 0.0
O506 O 0.221 0.38518 0.44896 0.0
O507 O 0.24015 0.44125 0.43996 0.0
O508 O 0.18828 0.43498 0.40384 0.0
O509 O 0.23819 0.41764 0.3924 0.0
O510 O 0.29382 0.405 0.41569 0.0
O511 O 0.29665 0.38705 0.38545 0.0
H512 H 0.22737 0.26278 0.35565 0.0
H513 H 0.19619 0.22043 0.3343 0.0
H514 H 0.15945 0.31794 0.30295 0.0
H515 H 0.19107 0.3599 0.32418 0.0
H516 H 0.24094 0.484 0.4737 0.0
H517 H 0.2664 0.49098 0.50432 0.0
H518 H 0.2921 0.37038 0.50536 0.0
H519 H 0.26832 0.3643 0.47436 0.0
C520 C 0.96917 0.98735 0.10188 0.0
Eu521 Eu 0.94877 0.99744 0.13508 0.0
C522 C 0.99289 0.95838 0.09304 0.0
C523 C 0.03251 0.96168 0.09297 0.0
C524 C 0.05353 0.94097 0.08033 0.0
C525 C 0.0343 0.92059 0.0665 0.0
C526 C 0.9974 0.90775 0.07074 0.0
C527 C 0.97593 0.92835 0.08331 0.0
C528 C 0.99091 1.02907 0.1615 0.0
C529 C 0.96496 0.91353 0.15461 0.0
C530 C 0.892 0.98009 0.20393 0.0
Eu531 Eu 0.91486 0.98178 0.16983 0.0
C532 C 0.88387 0.99895 0.22168 0.0
C533 C 0.86641 0.97717 0.23539 0.0
C534 C 0.86235 0.99142 0.25312 0.0
C535 C 0.87548 1.02815 0.25774 0.0
C536 C 0.89191 0.05061 0.24378 0.0
C537 C 0.89637 0.03605 0.22597 0.0
C538 C 0.87293 0.96132 0.13939 0.0
C539 C 0.89949 0.06429 0.15054 0.0
O540 O 0.93677 0.97498 0.10829 0.0
O541 O 0.98611 1.01209 0.11255 0.0
O542 O 0.98237 0.04549 0.14622 0.0
O543 O 0.97588 0.99584 0.1625 0.0
O544 O 0.97064 0.93674 0.14066 0.0
O545 O 0.94363 0.92431 0.16838 0.0
O546 O 0.9274 0.97753 0.19881 0.0
O547 O 0.86876 0.98407 0.19018 0.0
O548 O 0.87836 0.93819 0.153 0.0
O549 O 0.88987 0.99153 0.1428 0.0
O550 O 0.90457 0.04638 0.16629 0.0
O551 O 0.90992 0.04797 0.13518 0.0
H552 H 0.04694 0.98254 0.10139 0.0
H553 H 0.08342 0.94776 0.07925 0.0
H554 H 0.98271 0.8881 0.06181 0.0
H555 H 0.94564 0.92316 0.08409 0.0
H556 H 0.85676 0.94841 0.23249 0.0
H557 H 0.84903 0.97342 0.2633 0.0
H558 H 0.90252 0.07895 0.24677 0.0
H559 H 0.91032 0.05337 0.21571 0.0
C560 C 0.34025 0.7019 0.84924 0.0
Eu561 Eu 0.3194 0.7009 0.88271 0.0
C562 C 0.36195 0.72935 0.83867 0.0
C563 C 0.36156 0.76803 0.84334 0.0
C564 C 0.37437 0.79487 0.83078 0.0
C565 C 0.38437 0.78281 0.81305 0.0
C566 C 0.3962 0.74454 0.81119 0.0
C567 C 0.38283 0.71736 0.82355 0.0
C568 C 0.29652 0.75669 0.90482 0.0
C569 C 0.39812 0.71884 0.9057 0.0
C570 C 0.32449 0.64485 0.95459 0.0
Eu571 Eu 0.3285 0.6673 0.9205 0.0
C572 C 0.30272 0.63992 0.97192 0.0
C573 C 0.30493 0.60504 0.98127 0.0
C574 C 0.29022 0.60108 0.99898 0.0
C575 C 0.27309 0.63209 1.00808 0.0
C576 C 0.26979 0.66675 0.99835 0.0
C577 C 0.28432 0.67059 0.98056 0.0
C578 C 0.34642 0.62259 0.89064 0.0
C579 C 0.24584 0.66125 0.89959 0.0
O580 O 0.35999 0.68514 0.86201 0.0
O581 O 0.30617 0.7129 0.8545 0.0
O582 O 0.297 0.75902 0.88716 0.0
O583 O 0.30811 0.72426 0.91054 0.0
O584 O 0.37844 0.72168 0.8905 0.0
O585 O 0.38452 0.69988 0.91985 0.0
O586 O 0.33355 0.67946 0.94946 0.0
O587 O 0.31826 0.62198 0.94081 0.0
O588 O 0.36868 0.6251 0.90474 0.0
O589 O 0.31894 0.64372 0.89353 0.0
O590 O 0.26422 0.66169 0.91545 0.0
O591 O 0.26254 0.67203 0.88425 0.0
H592 H 0.34836 0.77761 0.85587 0.0
H593 H 0.36929 0.82454 0.83396 0.0
H594 H 0.40888 0.73454 0.79864 0.0
H595 H 0.38615 0.68725 0.8206 0.0
H596 H 0.31922 0.58097 0.97509 0.0
H597 H 0.29276 0.57356 1.00554 0.0
H598 H 0.2573 0.6916 1.00467 0.0
H599 H 0.28233 0.69803 0.97383 0.0
C600 C 0.53727 0.05497 0.6218 0.0
Eu601 Eu 0.59426 0.06323 0.64346 0.0
C602 C 0.52651 0.08 0.60682 0.0
C603 C 0.49825 0.06902 0.59466 0.0
C604 C 0.49537 0.08766 0.57796 0.0
C605 C 0.52183 0.11651 0.57315 0.0
C606 C 0.54418 0.13248 0.58697 0.0
C607 C 0.54763 0.11334 0.60347 0.0
C608 C 0.55939 0.04636 0.68172 0.0
C609 C 0.59192 0.14975 0.65813 0.0
C610 C 0.67166 0.08817 0.70526 0.0
Eu611 Eu 0.6445 0.07953 0.6722 0.0
C612 C 0.6763 0.06754 0.7229 0.0
C613 C 0.70378 0.08047 0.73523 0.0
C614 C 0.70662 0.06475 0.75275 0.0
C615 C 0.68225 0.03505 0.75858 0.0
C616 C 0.65511 1.02147 0.74594 0.0
C617 C 0.65206 0.03761 0.72837 0.0
C618 C 0.67605 0.09453 0.63823 0.0
C619 C 0.65592 1.00069 0.65043 0.0
O620 O 0.56944 0.03675 0.61945 0.0
O621 O 0.53433 0.07065 0.63786 0.0
O622 O 0.58995 0.04487 0.67216 0.0
O623 O 0.58985 0.045 0.6718 0.0
O624 O 0.58494 0.12711 0.64424 0.0
O625 O 0.61364 0.1374 0.67158 0.0
O626 O 0.63711 0.09692 0.70047 0.0
O627 O 0.69246 0.07787 0.69135 0.0
O628 O 0.69498 0.08237 0.65225 0.0
O629 O 0.6427 0.10226 0.64308 0.0
O630 O 0.65696 1.01707 0.66666 0.0
O631 O 0.6366 1.01658 0.63695 0.0
H632 H 0.481 0.04396 0.5973 0.0
H633 H 0.47648 0.07519 0.56798 0.0
H634 H 0.5639 0.15545 0.58397 0.0
H635 H 0.56956 0.12249 0.61268 0.0
H636 H 0.72256 0.10372 0.73146 0.0
H637 H 0.72741 0.07695 0.76188 0.0
H638 H 0.63611 0.99833 0.74953 0.0
H639 H 0.63043 1.02704 0.71918 0.0
H640 H 0.39308 0.24816 0.27633 0.0
H641 H 0.34371 0.35867 0.26742 0.0
H642 H 0.33371 0.22408 0.28708 0.0
H643 H 0.28393 0.3357 0.27978 0.0
H644 H 0.17178 0.28531 0.2774 0.0
H645 H 0.23517 0.30083 0.26648 0.0
H646 H 0.27966 0.20903 0.29954 0.0
H647 H 0.21595 0.19308 0.30867 0.0
C648 C 0.36966 0.26798 0.27702 0.0
C649 C 0.37057 0.30299 0.2675 0.0
C650 C 0.33498 0.25378 0.28319 0.0
C651 C 0.30232 0.2766 0.28217 0.0
C652 C 0.30735 0.3159 0.27872 0.0
C653 C 0.34213 0.32943 0.27215 0.0
C654 C 0.19531 0.2682 0.28213 0.0
C655 C 0.19169 0.24516 0.29777 0.0
C656 C 0.23186 0.27791 0.27625 0.0
C657 C 0.26356 0.25999 0.28423 0.0
C658 C 0.25687 0.2264 0.29433 0.0
C659 C 0.21986 0.217 0.29953 0.0
H660 H 0.52372 0.42582 0.52463 0.0
H661 H 0.59659 0.46342 0.5678 0.0
H662 H 0.51483 0.49168 0.51503 0.0
H663 H 0.5869 0.52885 0.55921 0.0
H664 H 0.56571 0.64532 0.53242 0.0
H665 H 0.58388 0.58404 0.54384 0.0
H666 H 0.47394 0.53887 0.52898 0.0
H667 H 0.45704 0.60073 0.51631 0.0
C668 C 0.53831 0.44812 0.53207 0.0
C669 C 0.55333 0.441 0.5495 0.0
C670 C 0.53237 0.48596 0.52682 0.0
C671 C 0.54621 0.51586 0.53779 0.0
C672 C 0.57302 0.50693 0.55127 0.0
C673 C 0.57874 0.46892 0.55613 0.0
C674 C 0.54487 0.62265 0.53169 0.0
C675 C 0.51313 0.62514 0.52004 0.0
C676 C 0.55568 0.58701 0.53825 0.0
C677 C 0.53198 0.55531 0.53541 0.0
C678 C 0.49448 0.5619 0.52961 0.0
C679 C 0.4844 0.59773 0.52284 0.0
H680 H 0.17872 0.74011 0.77878 0.0
H681 H 0.17719 0.86028 0.76589 0.0
H682 H 0.24121 0.748 0.79232 0.0
H683 H 0.23935 0.86791 0.77891 0.0
H684 H 0.35725 0.85768 0.80889 0.0
H685 H 0.2908 0.86397 0.80053 0.0
H686 H 0.29707 0.75793 0.77092 0.0
H687 H 0.36219 0.75063 0.77978 0.0
C688 C 0.19072 0.76857 0.77952 0.0
C689 C 0.17575 0.79825 0.76883 0.0
C690 C 0.22696 0.77288 0.78689 0.0
C691 C 0.2463 0.80788 0.78505 0.0
C692 C 0.22596 0.84007 0.77955 0.0
C693 C 0.18981 0.83547 0.7722 0.0
C694 C 0.34468 0.8358 0.80042 0.0
C695 C 0.36335 0.80074 0.79752 0.0
C696 C 0.30645 0.83941 0.79574 0.0
C697 C 0.28799 0.80937 0.78674 0.0
C698 C 0.30989 0.77982 0.77936 0.0
C699 C 0.34781 0.77621 0.78421 0.0
H700 H 0.07531 0.43839 1.03005 0.0
H701 H 0.95538 0.43985 1.01883 0.0
H702 H 0.07064 0.50196 0.04309 0.0
H703 H 0.95094 0.50357 1.03018 0.0
H704 H 0.95846 0.62411 0.05443 0.0
H705 H 0.95262 0.55777 0.04608 0.0
H706 H 0.06815 0.55918 1.02625 0.0
H707 H 0.07484 0.62425 0.03611 0.0
C708 C 0.04758 0.45152 1.03099 0.0
C709 C 1.01702 0.43687 1.02086 0.0
C710 C 0.04516 0.48863 0.03782 0.0
C711 C 1.01127 0.50953 0.03578 0.0
C712 C 0.9782 0.4896 1.03096 0.0
C713 C 0.98085 0.45232 1.02455 0.0
C714 C 0.98266 0.61043 0.04816 0.0
C715 C 1.01892 0.6274 0.04892 0.0
C716 C 0.97934 0.57198 0.04343 0.0
C717 C 1.01137 0.55178 0.03737 0.0
C718 C 0.04409 0.57273 1.03275 0.0
C719 C 0.04746 0.61075 0.03801 0.0
H720 H 0.69983 0.72927 0.79115 0.0
H721 H 0.68712 0.84689 0.80712 0.0
H722 H 0.75553 0.74661 0.77327 0.0
H723 H 0.7419 0.86424 0.78926 0.0
H724 H 0.8519 0.86743 0.75112 0.0
H725 H 0.78721 0.86559 0.76259 0.0
H726 H 0.81426 0.7661 0.79445 0.0
H727 H 0.87861 0.7677 0.78312 0.0
C728 C 0.70754 0.75915 0.79014 0.0
C729 C 0.69354 0.78559 0.80284 0.0
C730 C 0.73985 0.76892 0.78015 0.0
C731 C 0.75462 0.80617 0.78138 0.0
C732 C 0.73224 0.83487 0.78902 0.0
C733 C 0.70036 0.82462 0.79916 0.0
C734 C 0.84445 0.84517 0.76069 0.0
C735 C 0.86834 0.81333 0.76348 0.0
C736 C 0.80714 0.84414 0.76712 0.0
C737 C 0.79504 0.81315 0.77766 0.0
C738 C 0.82226 0.78823 0.78484 0.0
C739 C 0.85943 0.78965 0.77846 0.0
H740 H 0.71106 0.21423 0.25091 0.0
H741 H 0.66724 0.29718 0.28856 0.0
H742 H 0.77383 0.22585 0.2613 0.0
H743 H 0.73057 0.30703 0.30054 0.0
H744 H 0.84115 0.36044 0.30471 0.0
H745 H 0.78044 0.34341 0.29177 0.0
H746 H 0.82846 0.23715 0.2727 0.0
H747 H 0.88888 0.25628 0.28393 0.0
C748 C 0.71451 0.23461 0.26184 0.0
C749 C 0.68546 0.26049 0.26644 0.0
C750 C 0.75135 0.24163 0.26782 0.0
C751 C 0.75848 0.27138 0.28023 0.0
C752 C 0.72699 0.28731 0.28933 0.0
C753 C 0.69029 0.28065 0.28286 0.0
C754 C 0.8389 0.33363 0.29748 0.0
C755 C 0.86785 0.30605 0.29853 0.0
C756 C 0.80351 0.3233 0.29048 0.0
C757 C 0.79769 0.28636 0.28339 0.0
C758 C 0.8301 0.26445 0.27944 0.0
C759 C 0.86549 0.27572 0.28596 0.0
H760 H 0.98574 0.92373 0.0359 0.0
H761 H 0.10226 0.94469 0.04966 0.0
H762 H 0.98054 0.98675 1.02349 0.0
H763 H 0.09716 1.00891 0.03882 0.0
H764 H 0.07668 0.13004 1.02316 0.0
H765 H 0.08772 0.06711 0.03341 0.0
H766 H 0.96683 0.04444 1.03208 0.0
H767 H 0.95649 0.10771 1.02007 0.0
C768 C 1.01065 0.94183 0.03637 0.0
C769 C 0.04226 0.93242 0.04721 0.0
C770 C 1.00709 0.97899 1.02981 0.0
C771 C 0.0362 1.00589 0.03294 0.0
C772 C 0.07208 0.99134 0.03797 0.0
C773 C 0.07546 0.95363 0.04389 0.0
C774 C 0.05205 0.11194 1.02507 0.0
C775 C 1.01618 0.12199 1.01807 0.0
C776 C 0.05864 0.07469 1.03077 0.0
C777 C 0.0288 0.04788 1.03113 0.0
C778 C 0.99144 0.06221 1.02968 0.0
C779 C 0.98517 0.09937 1.0235 0.0
H780 H 0.50975 0.93443 0.52899 0.0
H781 H 0.62006 0.95447 0.50499 0.0
H782 H 0.51073 0.99738 0.54192 0.0
H783 H 0.62034 1.01872 0.51778 0.0
H784 H 0.59672 0.11806 0.56221 0.0
H785 H 0.61478 0.06324 0.5444 0.0
H786 H 0.50185 0.05811 0.52184 0.0
H787 H 0.48351 0.1128 0.54021 0.0
C788 C 0.53481 0.95164 0.52662 0.0
C789 C 0.56227 0.94167 0.51344 0.0
C790 C 0.53479 0.98829 0.5338 0.0
C791 C 0.5637 1.01402 0.52904 0.0
C792 C 0.59635 1.00014 0.52043 0.0
C793 C 0.59624 0.96314 0.51331 0.0
C794 C 0.57605 0.10676 0.55276 0.0
C795 C 0.5372 0.11608 0.5543 0.0
C796 C 0.58657 0.07486 0.54266 0.0
C797 C 0.55872 0.05482 0.53305 0.0
C798 C 0.52319 0.072 0.53015 0.0
C799 C 0.51293 0.10392 0.54032 0.0
H800 H 0.22565 0.15873 0.94018 0.0
H801 H 0.17833 0.0501 0.95629 0.0
H802 H 0.25025 0.1672 0.97146 0.0
H803 H 0.2008 0.05933 0.98704 0.0
H804 H 0.20859 0.10788 0.04519 0.0
H805 H 0.18676 0.10241 1.01368 0.0
H806 H 0.29751 0.13635 0.99445 0.0
H807 H 0.31941 0.14195 1.02596 0.0
C808 C 0.22029 0.13681 0.95026 0.0
C809 C 0.19932 0.10402 0.94553 0.0
C810 C 0.23437 0.1416 0.96822 0.0
C811 C 0.22701 0.11421 0.98197 0.0
C812 C 0.20658 0.08139 0.97706 0.0
C813 C 0.1937 0.07613 0.9592 0.0
C814 C 0.2283 0.11449 0.0343 0.0
C815 C 0.26588 0.12537 0.03833 0.0
C816 C 0.21581 0.11113 1.01615 0.0
C817 C 0.24027 0.11916 1.00137 0.0
C818 C 0.2777 0.1304 1.00538 0.0
C819 C 0.29037 0.13319 1.02353 0.0
H820 H 0.74173 0.534 0.28439 0.0
H821 H 0.62437 0.49775 0.28515 0.0
H822 H 0.74622 0.51701 0.25286 0.0
H823 H 0.63039 0.47605 0.25392 0.0
H824 H 0.64161 0.46173 0.19178 0.0
H825 H 0.63336 0.48509 0.22311 0.0
H826 H 0.75398 0.47255 0.23207 0.0
H827 H 0.76203 0.45331 0.20101 0.0
C828 C 0.71664 0.5223 0.278 0.0
C829 C 0.68248 0.51795 0.28784 0.0
C830 C 0.71954 0.51144 0.25965 0.0
C831 C 0.68884 0.49436 0.25031 0.0
C832 C 0.65477 0.48944 0.26019 0.0
C833 C 0.65154 0.50132 0.27849 0.0
C834 C 0.6663 0.465 0.20039 0.0
C835 C 0.70247 0.45575 0.19364 0.0
C836 C 0.66164 0.47784 0.21858 0.0
C837 C 0.69296 0.4813 0.23062 0.0
C838 C 0.72894 0.4719 0.22358 0.0
C839 C 0.73359 0.46019 0.20551 0.0
H840 H 0.23548 0.92245 0.52575 0.0
H841 H 0.34647 0.95557 0.54495 0.0
H842 H 0.25751 0.92795 0.49426 0.0
H843 H 0.36849 0.96096 0.51338 0.0
H844 H 0.37654 1.01289 0.45559 0.0
H845 H 0.35466 1.00412 0.48656 0.0
H846 H 0.30437 0.89628 0.47163 0.0
H847 H 0.32818 0.90433 0.44018 0.0
C848 C 0.26462 0.93094 0.5233 0.0
C849 C 0.28912 0.93856 0.53805 0.0
C850 C 0.27734 0.9337 0.50518 0.0
C851 C 0.31486 0.94465 0.50117 0.0
C852 C 0.33938 0.95245 0.51589 0.0
C853 C 0.32681 0.94913 0.53405 0.0
C854 C 0.361 0.98703 0.45872 0.0
C855 C 0.35475 0.95901 0.4452 0.0
C856 C 0.34855 0.98201 0.47667 0.0
C857 C 0.32805 0.94933 0.48178 0.0
C858 C 0.32027 0.92179 0.4682 0.0
C859 C 0.33386 0.92634 0.45016 0.0
H860 H 0.79413 0.61068 0.70113 0.0
H861 H 0.91468 0.60418 0.69168 0.0
H862 H 0.80258 0.59041 0.73217 0.0
H863 H 0.9234 0.58083 0.72299 0.0
H864 H 0.93163 0.56976 0.78527 0.0
H865 H 0.92491 0.59236 0.75413 0.0
H866 H 0.81259 0.54279 0.75193 0.0
H867 H 0.81765 0.52404 0.78334 0.0
C868 C 0.82266 0.60413 0.70559 0.0
C869 C 0.85371 0.60902 0.69367 0.0
C870 C 0.82754 0.59198 0.72359 0.0
C871 C 0.86373 0.58318 0.7305 0.0
C872 C 0.89499 0.58752 0.71848 0.0
C873 C 0.89006 0.60038 0.70033 0.0
C874 C 0.90508 0.56433 0.77836 0.0
C875 C 0.8753 0.54468 0.78729 0.0
C876 C 0.90149 0.5768 0.76016 0.0
C877 C 0.86819 0.56967 0.75005 0.0
C878 C 0.83858 0.54985 0.75899 0.0
C879 C 0.84185 0.53814 0.77721 0.0
H880 H 0.84334 1.01425 0.11693 0.0
H881 H 0.86605 0.89361 0.11959 0.0
H882 H 0.82233 1.00782 0.08562 0.0
H883 H 0.84428 0.88677 0.08785 0.0
H884 H 0.83928 0.89846 1.02442 0.0
H885 H 0.85985 0.90184 0.05612 0.0
H886 H 0.77218 0.98428 0.06723 0.0
H887 H 0.75102 0.98034 0.03594 0.0
C888 C 0.84314 0.98603 0.11091 0.0
C889 C 0.85565 0.95429 0.12103 0.0
C890 C 0.83098 0.98233 0.09283 0.0
C891 C 0.83107 0.94668 0.084 0.0
C892 C 0.84374 0.91475 0.09409 0.0
C893 C 0.85568 0.91846 0.11241 0.0
C894 C 0.82396 0.91703 0.03359 0.0
C895 C 0.7934 0.93929 1.02718 0.0
C896 C 0.8359 0.91896 0.05191 0.0
C897 C 0.81792 0.94341 0.06446 0.0
C898 C 0.78738 0.96554 0.05807 0.0
C899 C 0.77526 0.96338 0.03988 0.0
H900 H 0.29506 0.61678 0.86361 0.0
H901 H 0.41199 0.59058 0.87518 0.0
H902 H 0.30328 0.59759 0.83247 0.0
H903 H 0.41992 0.56789 0.84373 0.0
H904 H 0.433 0.55895 0.78175 0.0
H905 H 0.42673 0.57982 0.8131 0.0
H906 H 0.30728 0.55162 0.81166 0.0
H907 H 0.31265 0.53508 0.78 0.0
C908 C 0.32259 0.60599 0.8596 0.0
C909 C 0.35284 0.60521 0.87216 0.0
C910 C 0.32727 0.59445 0.8415 0.0
C911 C 0.36223 0.58036 0.83512 0.0
C912 C 0.39254 0.57883 0.84779 0.0
C913 C 0.38796 0.59128 0.86603 0.0
C914 C 0.4051 0.558 0.78788 0.0
C915 C 0.3734 0.54514 0.77782 0.0
C916 C 0.40163 0.56938 0.80623 0.0
C917 C 0.36646 0.56774 0.81542 0.0
C918 C 0.33492 0.55442 0.80537 0.0
C919 C 0.33819 0.54393 0.78698 0.0
H920 H 0.70046 0.13511 0.52019 0.0
H921 H 0.81148 0.09652 0.53664 0.0
H922 H 0.67856 0.12981 0.55119 0.0
H923 H 0.78861 0.08692 0.56723 0.0
H924 H 0.75009 0.09773 0.62606 0.0
H925 H 0.77304 0.10454 0.59496 0.0
H926 H 0.65712 0.10084 0.57559 0.0
H927 H 0.63486 0.09754 0.60677 0.0
C928 C 0.7204 0.12528 0.53033 0.0
C929 C 0.7581 0.11655 0.52544 0.0
C930 C 0.70745 0.12138 0.5484 0.0
C931 C 0.73133 0.10771 0.56244 0.0
C932 C 0.76889 0.0983 0.55739 0.0
C933 C 0.78205 0.10306 0.53941 0.0
C934 C 0.7296 0.09886 0.6151 0.0
C935 C 0.69057 0.09781 0.61904 0.0
C936 C 0.74274 0.10233 0.597 0.0
C937 C 0.71734 0.10371 0.58206 0.0
C938 C 0.67818 0.10143 0.58623 0.0
C939 C 0.66512 0.09912 0.60433 0.0
H940 H 0.26129 0.44525 0.36251 0.0
H941 H 0.14376 0.46874 0.37426 0.0
H942 H 0.25363 0.46833 0.33183 0.0
H943 H 0.13543 0.4916 0.34283 0.0
H944 H 0.13956 0.55771 0.28836 0.0
H945 H 0.14601 0.53705 0.32007 0.0
H946 H 0.23128 0.45564 0.30343 0.0
H947 H 0.22606 0.47827 0.2721 0.0
C948 C 0.23353 0.4555 0.35855 0.0
C949 C 0.20307 0.45489 0.37105 0.0
C950 C 0.22899 0.46844 0.34065 0.0
C951 C 0.19369 0.48156 0.33433 0.0
C952 C 0.16323 0.48199 0.34699 0.0
C953 C 0.16785 0.46881 0.3651 0.0
C954 C 0.15969 0.53544 0.2916 0.0
C955 C 0.18231 0.5196 0.27776 0.0
C956 C 0.16326 0.52328 0.30981 0.0
C957 C 0.18923 0.49446 0.31472 0.0
C958 C 0.21151 0.47844 0.30061 0.0
C959 C 0.20838 0.49112 0.2825 0.0
H960 H 0.71319 0.66469 0.54032 0.0
H961 H 0.80775 0.58966 0.52941 0.0
H962 H 0.69392 0.65977 0.50856 0.0
H963 H 0.7871 0.58349 0.49806 0.0
H964 H 0.71357 0.54883 0.44854 0.0
H965 H 0.73505 0.55628 0.47987 0.0
H966 H 0.71373 0.67726 0.47669 0.0
H967 H 0.69255 0.66968 0.44491 0.0
C968 C 0.73022 0.64732 0.53131 0.0
C969 C 0.76237 0.62769 0.53793 0.0
C970 C 0.71891 0.64443 0.51296 0.0
C971 C 0.73889 0.62134 0.50055 0.0
C972 C 0.77066 0.60133 0.50714 0.0
C973 C 0.78237 0.6047 0.52538 0.0
C974 C 0.7142 0.57726 0.45435 0.0
C975 C 0.70215 0.60881 0.44395 0.0
C976 C 0.72649 0.5815 0.47241 0.0
C977 C 0.72644 0.61742 0.48096 0.0
C978 C 0.71423 0.64913 0.47062 0.0
C979 C 0.70261 0.64495 0.45228 0.0
H980 H 0.12648 0.98708 0.78723 0.0
H981 H 0.24066 0.03225 0.78469 0.0
H982 H 0.1325 0.96478 0.75602 0.0
H983 H 0.24508 1.0135 0.7532 0.0
H984 H 0.26169 0.9439 0.70247 0.0
H985 H 0.25411 0.96458 0.73356 0.0
H986 H 0.13364 0.97795 0.72479 0.0
H987 H 0.14143 0.95494 0.69335 0.0
C988 C 0.15294 0.99245 0.78018 0.0
C989 C 0.18299 1.01182 0.78898 0.0
C990 C 0.15611 0.98014 0.76195 0.0
C991 C 0.18926 0.98711 0.75165 0.0
C992 C 0.21916 1.00667 0.76043 0.0
C993 C 0.21628 1.01831 0.77869 0.0
C994 C 0.23342 0.95129 0.70704 0.0
C995 C 0.20217 0.94775 0.69518 0.0
C996 C 0.22907 0.96366 0.72506 0.0
C997 C 0.19323 0.97362 0.73208 0.0
C998 C 0.16177 0.97036 0.72016 0.0
C999 C 0.16618 0.9576 0.70197 0.0
H1000 H 0.74286 0.46406 1.02767 0.0
H1001 H 0.85573 0.42986 0.04342 0.0
H1002 H 0.76406 0.47152 0.99639 0.0
H1003 H 0.87704 0.43753 1.01219 0.0
H1004 H 0.89901 0.41835 0.95187 0.0
H1005 H 0.87759 0.41315 0.98327 0.0
H1006 H 0.7972 0.50393 0.97386 0.0
H1007 H 0.81858 0.50825 0.94215 0.0
C1008 C 0.7724 0.45855 1.02463 0.0
C1009 C 0.7973 0.4461 0.03845 0.0
C1010 C 0.7847 0.46288 1.00646 0.0
C1011 C 0.82246 0.45494 1.00129 0.0
C1012 C 0.8475 0.4431 1.01519 0.0
C1013 C 0.83517 0.43869 0.03334 0.0
C1014 C 0.87672 0.43721 0.9565 0.0
C1015 C 0.86058 0.46363 0.94436 0.0
C1016 C 0.86447 0.43447 0.9747 0.0
C1017 C 0.83549 0.45819 0.98158 0.0
C1018 C 0.81911 0.4846 0.9693 0.0
C1019 C 0.83141 0.48721 0.951 0.0
H1020 H 0.40682 0.08392 0.19045 0.0
H1021 H 0.29825 0.13037 0.20599 0.0
H1022 H 0.41486 0.05967 0.22183 0.0
H1023 H 0.30709 0.10827 0.23691 0.0
H1024 H 0.35578 0.10121 0.29522 0.0
H1025 H 0.35029 0.12317 0.26366 0.0
H1026 H 0.38327 1.01178 0.24452 0.0
H1027 H 0.38887 0.98978 0.27602 0.0
C1028 C 0.38484 0.08917 0.20045 0.0
C1029 C 0.35221 0.10978 0.19556 0.0
C1030 C 0.38939 0.07531 0.21845 0.0
C1031 C 0.36188 0.08255 0.23206 0.0
C1032 C 0.3292 0.10264 0.227 0.0
C1033 C 0.32419 0.11532 0.20909 0.0
C1034 C 0.36221 0.08144 0.28433 0.0
C1035 C 0.37283 0.04365 0.28834 0.0
C1036 C 0.35883 0.09397 0.26618 0.0
C1037 C 0.36661 0.06934 0.25144 0.0
C1038 C 0.37756 0.03171 0.25545 0.0
C1039 C 0.38038 1.019 0.27357 0.0
H1040 H 0.35398 0.39233 0.62239 0.0
H1041 H 0.34584 0.51437 0.61627 0.0
H1042 H 0.33321 0.38437 0.59056 0.0
H1043 H 0.32586 0.50673 0.58488 0.0
H1044 H 0.25537 0.48133 0.5344 0.0
H1045 H 0.27463 0.48696 0.56594 0.0
H1046 H 0.35322 0.39404 0.55886 0.0
H1047 H 0.3349 0.38896 0.52696 0.0
C1048 C 0.3469 0.41735 0.61446 0.0
C1049 C 0.35083 0.45392 0.62214 0.0
C1050 C 0.33559 0.41292 0.59607 0.0
C1051 C 0.32746 0.44489 0.58495 0.0
C1052 C 0.33098 0.48128 0.59287 0.0
C1053 C 0.3425 0.48566 0.61102 0.0
C1054 C 0.27727 0.46234 0.53926 0.0
C1055 C 0.29343 0.43471 0.52763 0.0
C1056 C 0.28824 0.46548 0.55761 0.0
C1057 C 0.31553 0.44087 0.56524 0.0
C1058 C 0.33165 0.41313 0.55372 0.0
C1059 C 0.32096 0.41022 0.53527 0.0
H1060 H 0.88919 0.98842 0.28942 0.0
H1061 H 0.85533 0.09962 0.27023 0.0
H1062 H 0.88375 1.01047 0.32094 0.0
H1063 H 0.84983 0.12157 0.3018 0.0
H1064 H 0.79727 0.12749 0.35964 0.0
H1065 H 0.80629 0.10529 0.32873 0.0
H1066 H 0.91549 0.05974 0.34343 0.0
H1067 H 0.90728 0.08419 0.37477 0.0
C1068 C 0.88055 1.0176 0.29187 0.0
C1069 C 0.87274 0.04217 0.27711 0.0
C1070 C 0.87782 1.03033 0.31001 0.0
C1071 C 0.86661 0.06788 0.31401 0.0
C1072 C 0.85857 0.09244 0.29928 0.0
C1073 C 0.86193 0.07991 0.28113 0.0
C1074 C 0.82352 0.11302 0.35647 0.0
C1075 C 0.8519 0.10846 0.36987 0.0
C1076 C 0.82864 0.10032 0.33856 0.0
C1077 C 0.86178 0.08108 0.3334 0.0
C1078 C 0.88965 0.07471 0.3469 0.0
C1079 C 0.885 0.08867 0.36488 0.0
H1080 H 0.2121 0.55054 0.11737 0.0
H1081 H 0.19065 0.67133 0.12087 0.0
H1082 H 0.23237 0.55764 0.08592 0.0
H1083 H 0.21166 0.67883 0.08904 0.0
H1084 H 0.2142 0.66969 1.0258 0.0
H1085 H 0.19459 0.6648 0.05756 0.0
H1086 H 0.28201 0.58122 0.06701 0.0
H1087 H 0.30231 0.58668 0.03557 0.0
C1088 C 0.21249 0.57893 0.1115 0.0
C1089 C 0.20051 0.61053 0.12188 0.0
C1090 C 0.22419 0.58301 0.09335 0.0
C1091 C 0.22415 0.61889 0.08473 0.0
C1092 C 0.2121 0.65068 0.0951 0.0
C1093 C 0.20061 0.64658 0.11348 0.0
C1094 C 0.22972 0.65056 0.03461 0.0
C1095 C 0.26005 0.6286 1.0277 0.0
C1096 C 0.21832 0.64775 0.05297 0.0
C1097 C 0.23659 0.62265 0.0651 0.0
C1098 C 0.2667 0.60054 0.05819 0.0
C1099 C 0.27831 0.60358 0.03992 0.0
H1100 H 0.7456 1.02952 0.78073 0.0
H1101 H 0.62559 1.00382 0.78057 0.0
H1102 H 0.75004 1.00717 0.81176 0.0
H1103 H 0.63084 0.97834 0.81134 0.0
H1104 H 0.64544 0.96294 0.87367 0.0
H1105 H 0.63829 0.99002 0.84293 0.0
H1106 H 0.75197 0.95346 0.82961 0.0
H1107 H 0.75913 0.92787 0.85996 0.0
C1108 C 0.71994 1.01917 0.78719 0.0
C1109 C 0.68511 1.01903 0.77774 0.0
C1110 C 0.72269 1.00553 0.80513 0.0
C1111 C 0.69088 0.99041 0.81439 0.0
C1112 C 0.65603 0.99004 0.80497 0.0
C1113 C 0.65316 1.00418 0.78703 0.0
C1114 C 0.6689 0.96109 0.86418 0.0
C1115 C 0.70286 0.94329 0.86946 0.0
C1116 C 0.66478 0.97634 0.84642 0.0
C1117 C 0.69459 0.97438 0.83349 0.0
C1118 C 0.72845 0.95655 0.83899 0.0
C1119 C 0.73247 0.94141 0.85655 0.0
H1120 H 0.43331 0.2571 0.18867 0.0
H1121 H 0.44927 0.22114 0.1331 0.0
H1122 H 0.49551 0.28595 0.18871 0.0
H1123 H 0.51067 0.25216 0.13241 0.0
H1124 H 0.63186 0.29578 0.1355 0.0
H1125 H 0.57059 0.26404 0.13581 0.0
H1126 H 0.54081 0.32655 0.1847 0.0
H1127 H 0.60358 0.35482 0.18498 0.0
C1128 C 0.45006 0.25559 0.17631 0.0
C1129 C 0.43578 0.23648 0.16091 0.0
C1130 C 0.48627 0.27282 0.17619 0.0
C1131 C 0.50979 0.2725 0.1605 0.0
C1132 C 0.49502 0.25328 0.14504 0.0
C1133 C 0.45904 0.23543 0.14531 0.0
C1134 C 0.61204 0.30252 0.14631 0.0
C1135 C 0.62283 0.32784 0.16022 0.0
C1136 C 0.5762 0.28439 0.14651 0.0
C1137 C 0.54897 0.29187 0.1603 0.0
C1138 C 0.56004 0.31826 0.17397 0.0
C1139 C 0.59639 0.33521 0.1741 0.0
H1140 H 0.61499 0.7156 0.39313 0.0
H1141 H 0.52279 0.6722 0.42588 0.0
H1142 H 0.58543 0.77906 0.39311 0.0
H1143 H 0.49259 0.73517 0.42523 0.0
H1144 H 0.43344 0.845 0.39973 0.0
H1145 H 0.46321 0.78163 0.39977 0.0
H1146 H 0.56795 0.8317 0.4185 0.0
H1147 H 0.53774 0.89475 0.41924 0.0
C1148 C 0.58824 0.71942 0.40017 0.0
C1149 C 0.57134 0.68849 0.40946 0.0
C1150 C 0.57135 0.75592 0.40023 0.0
C1151 C 0.53645 0.76241 0.40911 0.0
C1152 C 0.51929 0.73133 0.41815 0.0
C1153 C 0.53672 0.69516 0.41856 0.0
C1154 C 0.46283 0.84253 0.40385 0.0
C1155 C 0.4831 0.87518 0.40947 0.0
C1156 C 0.47988 0.80611 0.40394 0.0
C1157 C 0.51813 0.80135 0.40908 0.0
C1158 C 0.53858 0.83415 0.41437 0.0
C1159 C 0.52117 0.87035 0.41485 0.0
H1160 H 0.94733 0.72469 0.63242 0.0
H1161 H 0.93286 0.75558 0.68885 0.0
H1162 H 1.01017 0.75426 0.6324 0.0
H1163 H 0.99519 0.78585 0.68879 0.0
H1164 H 0.12352 0.80769 0.68862 0.0
H1165 H 0.06113 0.77739 0.6886 0.0
H1166 H 0.04524 0.8115 0.63261 0.0
H1167 H 0.10807 0.84093 0.63256 0.0
C1168 C 0.95743 0.73783 0.64485 0.0
C1169 C 0.93459 0.73752 0.66063 0.0
C1170 C 0.99362 0.7552 0.64482 0.0
C1171 C 1.00846 0.77285 0.66059 0.0
C1172 C 0.98553 0.77232 0.67638 0.0
C1173 C 0.94934 0.75506 0.67639 0.0
C1174 C 0.10677 0.80884 0.67628 0.0
C1175 C 0.12128 0.82698 0.6606 0.0
C1176 C 0.07058 0.79152 0.67629 0.0
C1177 C 0.04741 0.79164 0.6606 0.0
C1178 C 0.06198 0.81 0.64493 0.0
C1179 C 0.09817 0.82732 0.64494 0.0
H1180 H 0.98121 0.36694 0.87842 0.0
H1181 H 0.98783 0.36727 0.93709 0.0
H1182 H 1.01042 0.30339 0.87791 0.0
H1183 H 1.01767 0.30532 0.93662 0.0
H1184 H 0.04009 0.17922 0.93393 0.0
H1185 H 1.00904 0.2408 0.93276 0.0
H1186 H 0.06607 0.26605 0.88202 0.0
H1187 H 0.0963 0.20325 0.88293 0.0
C1188 C 0.98871 0.35354 0.89121 0.0
C1189 C 0.9818 0.37255 0.90778 0.0
C1190 C 1.00589 0.31708 0.89094 0.0
C1191 C 1.01656 0.29843 0.90724 0.0
C1192 C 1.00942 0.31772 0.92373 0.0
C1193 C 0.99238 0.35384 0.92399 0.0
C1194 C 0.04611 0.19772 0.92245 0.0
C1195 C 0.07096 0.18581 0.90854 0.0
C1196 C 1.02836 0.23356 0.92183 0.0
C1197 C 0.03491 0.25928 0.90734 0.0
C1198 C 0.05969 0.24729 0.89334 0.0
C1199 C 0.07738 0.21117 0.89392 0.0
H1200 H 0.61396 0.83275 0.93623 0.0
H1201 H 0.62019 0.82024 0.87789 0.0
H1202 H 0.55133 0.80272 0.93625 0.0
H1203 H 0.55823 0.78931 0.87786 0.0
H1204 H 0.43178 0.76445 0.87986 0.0
H1205 H 0.4933 0.79563 0.88047 0.0
H1206 H 0.51507 0.74698 0.93348 0.0
H1207 H 0.45242 0.7167 0.93308 0.0
C1208 C 0.60199 0.8237 0.92336 0.0
C1209 C 0.62243 0.82931 0.90706 0.0
C1210 C 0.56596 0.80596 0.92337 0.0
C1211 C 0.54892 0.79318 0.90706 0.0
C1212 C 0.5695 0.79905 0.89075 0.0
C1213 C 0.60548 0.81674 0.89075 0.0
C1214 C 0.44951 0.76032 0.89173 0.0
C1215 C 0.43661 0.73783 0.90645 0.0
C1216 C 0.48534 0.77814 0.89202 0.0
C1217 C 0.51007 0.7741 0.90698 0.0
C1218 C 0.49711 0.75156 0.92175 0.0
C1219 C 0.46102 0.73383 0.9215 0.0
H1220 H 0.47472 0.36534 0.68471 0.0
H1221 H 0.49958 0.37355 0.62727 0.0
H1222 H 0.50588 0.30309 0.68575 0.0
H1223 H 0.53132 0.31217 0.62835 0.0
H1224 H 0.55193 0.18433 0.63079 0.0
H1225 H 0.52188 0.24644 0.6305 0.0
H1226 H 0.56401 0.26844 0.68469 0.0
H1227 H 0.59356 0.2052 0.68511 0.0
C1228 C 0.48689 0.35403 0.67229 0.0
C1229 C 0.48436 0.37482 0.6559 0.0
C1230 C 0.50514 0.31825 0.67291 0.0
C1231 C 0.52137 0.30195 0.65714 0.0
C1232 C 0.51884 0.32298 0.64079 0.0
C1233 C 0.50072 0.35864 0.64019 0.0
C1234 C 0.55504 0.20228 0.64269 0.0
C1235 C 0.57543 0.18933 0.65799 0.0
C1236 C 0.53783 0.23838 0.64247 0.0
C1237 C 0.54028 0.26317 0.65754 0.0
C1238 C 0.5609 0.25032 0.67285 0.0
C1239 C 0.57824 0.21402 0.67306 0.0
H1240 H 0.11375 0.32685 0.37554 0.0
H1241 H 0.1146 0.3292 0.43424 0.0
H1242 H 0.05229 0.29537 0.37595 0.0
H1243 H 0.05206 0.29876 0.43476 0.0
H1244 H 0.95213 0.21386 0.43089 0.0
H1245 H 1.01455 0.24451 0.43103 0.0
H1246 H 0.9881 0.29972 0.38001 0.0
H1247 H 0.92675 0.26805 0.37962 0.0
C1248 C 0.10068 0.32105 0.38861 0.0
C1249 C 0.11957 0.33099 0.40485 0.0
C1250 C 0.06489 0.30303 0.38887 0.0
C1251 C 0.04617 0.29426 0.4054 0.0
C1252 C 0.06515 0.30429 0.42168 0.0
C1253 C 0.10116 0.32224 0.42141 0.0
C1254 C 0.95968 0.23245 0.41966 0.0
C1255 C 0.93396 0.23813 0.40523 0.0
C1256 C 0.99566 0.25045 0.41979 0.0
C1257 C 1.00731 0.27497 0.4055 0.0
C1258 C 0.98126 0.28069 0.39115 0.0
C1259 C 0.9455 0.26259 0.39099 0.0
H1260 H 0.12166 0.71941 0.16649 0.0
H1261 H 1.01988 0.66929 0.14435 0.0
H1262 H 0.09148 0.78261 0.16599 0.0
H1263 H 0.98911 0.73214 0.14468 0.0
H1264 H 0.94016 0.84736 0.17119 0.0
H1265 H 0.97025 0.78418 0.17117 0.0
H1266 H 0.06275 0.82893 0.13911 0.0
H1267 H 0.03196 0.89169 0.13845 0.0
C1268 C 0.09273 0.72179 0.16167 0.0
C1269 C 0.07328 0.68913 0.15544 0.0
C1270 C 0.07546 0.75808 0.16132 0.0
C1271 C 0.03774 0.76262 0.15533 0.0
C1272 C 1.01809 0.7298 0.14943 0.0
C1273 C 0.0358 0.69375 0.14918 0.0
C1274 C 0.96687 0.84377 0.16409 0.0
C1275 C 0.9835 0.87486 0.15481 0.0
C1276 C 0.98408 0.80745 0.16404 0.0
C1277 C 1.01906 0.80132 0.15519 0.0
C1278 C 0.03595 0.83253 0.14613 0.0
C1279 C 1.01818 0.86855 0.14571 0.0
H1280 H 0.22578 0.2651 0.13183 0.0
H1281 H 0.31991 0.31254 0.16163 0.0
H1282 H 0.19632 0.32793 0.13041 0.0
H1283 H 0.29067 0.37573 0.16028 0.0
H1284 H 0.19974 0.46378 0.17789 0.0
H1285 H 0.2354 0.40428 0.17517 0.0
H1286 H 0.19843 0.39289 0.11938 0.0
H1287 H 0.16245 0.45166 0.12217 0.0
C1288 C 0.24117 0.28948 0.13716 0.0
C1289 C 0.27578 0.28425 0.1462 0.0
C1290 C 0.22407 0.32546 0.13661 0.0
C1291 C 0.24091 0.35694 0.14539 0.0
C1292 C 0.27673 0.35208 0.15352 0.0
C1293 C 0.29402 0.31612 0.15387 0.0
C1294 C 0.19903 0.44843 0.1651 0.0
C1295 C 0.17796 0.46246 0.15032 0.0
C1296 C 0.21986 0.41454 0.16344 0.0
C1297 C 0.22002 0.39382 0.14699 0.0
C1298 C 0.19878 0.40786 0.13228 0.0
C1299 C 0.17814 0.4417 0.1339 0.0
H1300 H 0.37375 0.39613 0.42256 0.0
H1301 H 0.33527 0.45123 0.37347 0.0
H1302 H 0.43492 0.42942 0.41989 0.0
H1303 H 0.39586 0.48561 0.3711 0.0
H1304 H 0.48825 0.57396 0.39553 0.0
H1305 H 0.42985 0.53705 0.39091 0.0
H1306 H 0.49263 0.43264 0.39806 0.0
H1307 H 0.55095 0.46968 0.40233 0.0
C1308 C 0.37852 0.41526 0.41118 0.0
C1309 C 0.35005 0.4209 0.39816 0.0
C1310 C 0.41351 0.43417 0.40957 0.0
C1311 C 0.42029 0.45998 0.3952 0.0
C1312 C 0.39156 0.4658 0.38225 0.0
C1313 C 0.35702 0.44602 0.38357 0.0
C1314 C 0.4899 0.54311 0.39495 0.0
C1315 C 0.52436 0.52466 0.39859 0.0
C1316 C 0.45637 0.52194 0.39262 0.0
C1317 C 0.45659 0.48192 0.3943 0.0
C1318 C 0.49153 0.46342 0.39678 0.0
C1319 C 0.52506 0.48457 0.39882 0.0
H1320 H 0.24028 0.75123 0.65555 0.0
H1321 H 0.33964 0.80052 0.63054 0.0
H1322 H 0.2697 0.68808 0.65439 0.0
H1323 H 0.36922 0.73772 0.62929 0.0
H1324 H 0.40311 0.61372 0.62 0.0
H1325 H 0.36811 0.67319 0.61683 0.0
H1326 H 0.32291 0.65896 0.67112 0.0
H1327 H 0.35763 0.59912 0.67425 0.0
C1328 C 0.26752 0.74816 0.64885 0.0
C1329 C 0.28713 0.78049 0.64246 0.0
C1330 C 0.28482 0.71218 0.64861 0.0
C1331 C 0.32198 0.70782 0.64186 0.0
C1332 C 0.34044 0.73987 0.63437 0.0
C1333 C 0.32332 0.77582 0.63482 0.0
C1334 C 0.38589 0.62331 0.63133 0.0
C1335 C 0.38352 0.6017 0.64746 0.0
C1336 C 0.36578 0.65745 0.62949 0.0
C1337 C 0.34248 0.67081 0.64365 0.0
C1338 C 0.34012 0.64925 0.65981 0.0
C1339 C 0.36048 0.61517 0.66171 0.0
H1340 H 1.00956 0.58506 0.91252 0.0
H1341 H 0.06313 0.50317 0.87714 0.0
H1342 H 0.06767 0.6237 0.91253 0.0
H1343 H 0.12102 0.54203 0.87679 0.0
H1344 H 0.20827 0.63777 0.86906 0.0
H1345 H 0.14686 0.60601 0.867 0.0
H1346 H 0.13411 0.61348 0.92534 0.0
H1347 H 0.196 0.64524 0.9275 0.0
C1348 C 0.03326 0.5762 0.90412 0.0
C1349 C 0.03155 0.54173 0.89434 0.0
C1350 C 0.06673 0.59793 0.9044 0.0
C1351 C 0.09898 0.58592 0.89468 0.0
C1352 C 0.09656 0.55231 0.88425 0.0
C1353 C 0.06337 0.5302 0.88429 0.0
C1354 C 0.1923 0.63313 0.88148 0.0
C1355 C 0.2071 0.64435 0.89847 0.0
C1356 C 0.15714 0.61465 0.88027 0.0
C1357 C 0.13554 0.60729 0.89598 0.0
C1358 C 0.14988 0.61915 0.91296 0.0
C1359 C 0.18541 0.63721 0.91421 0.0
H1360 H 0.74473 0.73876 0.94661 0.0
H1361 H 0.81202 0.7963 0.90579 0.0
H1362 H 0.78208 0.68091 0.94231 0.0
H1363 H 0.84977 0.73857 0.90156 0.0
H1364 H 0.88677 0.61536 0.88779 0.0
H1365 H 0.84957 0.67347 0.89071 0.0
H1366 H 0.84468 0.65735 0.94899 0.0
H1367 H 0.88146 0.59865 0.946 0.0
C1368 C 0.76716 0.7388 0.9365 0.0
C1369 C 0.77501 0.77194 0.92647 0.0
C1370 C 0.78897 0.7058 0.93419 0.0
C1371 C 0.81941 0.70502 0.92177 0.0
C1372 C 0.82648 0.73791 0.9112 0.0
C1373 C 0.80469 0.77105 0.91357 0.0
C1374 C 0.87799 0.62428 0.90127 0.0
C1375 C 0.88714 0.60218 0.91666 0.0
C1376 C 0.85673 0.65782 0.90294 0.0
C1377 C 0.84372 0.67016 0.92006 0.0
C1378 C 0.8536 0.64847 0.93553 0.0
C1379 C 0.87508 0.61497 0.93386 0.0
H1380 H 0.68981 0.65383 0.63845 0.0
H1381 H 0.71479 0.61476 0.69289 0.0
H1382 H 0.62818 0.62131 0.63987 0.0
H1383 H 0.6536 0.58167 0.69413 0.0
H1384 H 0.56262 0.4888 0.6719 0.0
H1385 H 0.62186 0.52463 0.67655 0.0
H1386 H 0.56632 0.62768 0.65882 0.0
H1387 H 0.50729 0.592 0.65456 0.0
C1388 C 0.68214 0.63834 0.65069 0.0
C1389 C 0.70703 0.6371 0.66557 0.0
C1390 C 0.64682 0.61989 0.65156 0.0
C1391 C 0.63598 0.59916 0.66718 0.0
C1392 C 0.66113 0.59746 0.68195 0.0
C1393 C 0.69607 0.61658 0.68124 0.0
C1394 C 0.56262 0.51947 0.67004 0.0
C1395 C 0.53013 0.53787 0.66343 0.0
C1396 C 0.59663 0.5399 0.67241 0.0
C1397 C 0.59881 0.57886 0.66779 0.0
C1398 C 0.56559 0.59765 0.66233 0.0
C1399 C 0.53162 0.57739 0.66024 0.0
H1400 H 0.71653 0.2602 0.42883 0.0
H1401 H 0.81909 0.3129 0.40895 0.0
H1402 H 0.68668 0.32266 0.43137 0.0
H1403 H 0.78946 0.37584 0.41149 0.0
H1404 H 0.7046 0.46763 0.39148 0.0
H1405 H 0.73956 0.40792 0.39418 0.0
H1406 H 0.68425 0.38518 0.44559 0.0
H1407 H 0.64902 0.44475 0.44282 0.0
C1408 C 0.73338 0.28544 0.42598 0.0
C1409 C 0.77057 0.28179 0.41934 0.0
C1410 C 0.71613 0.3213 0.42719 0.0
C1411 C 0.73548 0.35443 0.42149 0.0
C1412 C 0.77357 0.35095 0.41586 0.0
C1413 C 0.79095 0.31501 0.41483 0.0
C1414 C 0.69963 0.44979 0.4033 0.0
C1415 C 0.6736 0.46093 0.41683 0.0
C1416 C 0.72013 0.41573 0.40498 0.0
C1417 C 0.715 0.3917 0.42018 0.0
C1418 C 0.68883 0.4028 0.43366 0.0
C1419 C 0.66859 0.43702 0.43206 0.0
H1420 H 0.84458 0.45996 0.14171 0.0
H1421 H 0.86378 0.40611 0.19379 0.0
H1422 H 0.90501 0.49397 0.14456 0.0
H1423 H 0.92406 0.44006 0.19662 0.0
H1424 H 0.04989 0.46775 0.1793 0.0
H1425 H 0.98681 0.43913 0.18159 0.0
H1426 H 0.93711 0.54456 0.16289 0.0
H1427 H 1.00056 0.57313 0.16074 0.0
C1428 C 0.86176 0.45523 0.15372 0.0
C1429 C 0.84947 0.43011 0.16745 0.0
C1430 C 0.89617 0.47509 0.15547 0.0
C1431 C 0.9193 0.46994 0.17089 0.0
C1432 C 0.90703 0.44462 0.18456 0.0
C1433 C 0.87244 0.42517 0.18292 0.0
C1434 C 1.0253 0.48537 0.17662 0.0
C1435 C 0.02998 0.52301 0.17045 0.0
C1436 C 0.98916 0.46887 0.1777 0.0
C1437 C 0.95688 0.48944 0.17228 0.0
C1438 C 0.96141 0.52786 0.16704 0.0
C1439 C 0.99763 0.54454 0.16621 0.0
H1440 H 0.72068 0.76361 0.63403 0.0
H1441 H 0.81827 0.81455 0.65966 0.0
H1442 H 0.69204 0.82673 0.63049 0.0
H1443 H 0.7899 0.87773 0.65625 0.0
H1444 H 0.70226 0.96596 0.67492 0.0
H1445 H 0.73652 0.90656 0.67197 0.0
H1446 H 0.69286 0.89229 0.61749 0.0
H1447 H 0.65774 0.95245 0.62051 0.0
C1448 C 0.73682 0.78859 0.63806 0.0
C1449 C 0.77223 0.78434 0.64656 0.0
C1450 C 0.72028 0.82476 0.6362 0.0
C1451 C 0.73844 0.8574 0.64322 0.0
C1452 C 0.77494 0.85324 0.65079 0.0
C1453 C 0.79164 0.81714 0.65241 0.0
C1454 C 0.69987 0.95045 0.66222 0.0
C1455 C 0.67705 0.96422 0.64795 0.0
C1456 C 0.71998 0.91636 0.66048 0.0
C1457 C 0.71796 0.8947 0.6444 0.0
C1458 C 0.69507 0.90825 0.63007 0.0
C1459 C 0.675 0.94276 0.63178 0.0
H1460 H 0.8391 0.94071 0.8711 0.0
H1461 H 0.86999 0.90986 0.92598 0.0
H1462 H 0.89959 0.97565 0.8677 0.0
H1463 H 0.93077 0.9433 0.92231 0.0
H1464 H 0.05035 0.95812 0.89662 0.0
H1465 H 0.98813 0.92803 0.89377 0.0
H1466 H 0.93555 0.03882 0.89195 0.0
H1467 H 0.99836 0.06928 0.89531 0.0
C1468 C 0.85903 0.94104 0.88232 0.0
C1469 C 0.85015 0.92232 0.89876 0.0
C1470 C 0.89333 0.96125 0.88042 0.0
C1471 C 0.91966 0.96213 0.89475 0.0
C1472 C 0.91084 0.94312 0.91109 0.0
C1473 C 0.87621 0.92392 0.91317 0.0
C1474 C 1.02574 0.97616 0.89467 0.0
C1475 C 0.02933 1.01607 0.89575 0.0
C1476 C 0.99011 0.95888 0.8933 0.0
C1477 C 0.95717 0.9811 0.89269 0.0
C1478 C 0.96069 1.02113 0.89222 0.0
C1479 C 0.99661 0.03857 0.89384 0.0
H1480 H 0.85434 0.09033 0.1232 0.0
H1481 H 0.89869 0.12147 0.17592 0.0
H1482 H 0.82149 0.15176 0.12124 0.0
H1483 H 0.86678 0.18348 0.17363 0.0
H1484 H 0.85038 0.30359 0.14958 0.0
H1485 H 0.87811 0.24011 0.14766 0.0
H1486 H 0.76628 0.19076 0.14317 0.0
H1487 H 0.7381 0.25491 0.1457 0.0
C1488 C 0.85713 0.11036 0.13435 0.0
C1489 C 0.87925 0.10124 0.14971 0.0
C1490 C 0.83811 0.14533 0.13324 0.0
C1491 C 0.84167 0.17225 0.14724 0.0
C1492 C 0.86364 0.16311 0.16263 0.0
C1493 C 0.88184 0.12772 0.16397 0.0
C1494 C 0.83169 0.27937 0.14744 0.0
C1495 C 0.79211 0.28427 0.14751 0.0
C1496 C 0.84759 0.24303 0.14663 0.0
C1497 C 0.82432 0.21063 0.14555 0.0
C1498 C 0.78478 0.21545 0.14402 0.0
C1499 C 0.76868 0.25211 0.14514 0.0
H1500 H 0.5585 0.99037 0.40938 0.0
H1501 H 0.5093 0.08782 0.3827 0.0
H1502 H 0.62145 1.01967 0.40696 0.0
H1503 H 0.57204 0.11724 0.38012 0.0
H1504 H 0.69598 0.15091 0.37009 0.0
H1505 H 0.63672 0.11515 0.36752 0.0
H1506 H 0.65009 0.07485 0.42271 0.0
H1507 H 0.70954 0.1104 0.42526 0.0
C1508 C 0.56152 1.01708 0.40205 0.0
C1509 C 0.52925 0.03625 0.39562 0.0
C1510 C 0.59741 0.03433 0.40107 0.0
C1511 C 0.60179 0.07101 0.39351 0.0
C1512 C 0.56983 0.08884 0.38586 0.0
C1513 C 0.5339 0.07179 0.38709 0.0
C1514 C 0.68627 0.13451 0.38172 0.0
C1515 C 0.70747 0.13377 0.39794 0.0
C1516 C 0.65225 0.114 0.38022 0.0
C1517 C 0.63871 0.09187 0.39484 0.0
C1518 C 0.65996 0.09108 0.41106 0.0
C1519 C 0.69385 0.11186 0.41262 0.0
H1520 H 0.23435 0.24236 0.43058 0.0
H1521 H 0.32485 0.30152 0.4027 0.0
H1522 H 0.27389 0.1849 0.43237 0.0
H1523 H 0.36394 0.24392 0.40397 0.0
H1524 H 0.39052 0.11669 0.38708 0.0
H1525 H 0.35635 0.17743 0.38857 0.0
H1526 H 0.33736 0.16067 0.44609 0.0
H1527 H 0.37192 0.10044 0.44473 0.0
C1528 C 0.26308 0.24333 0.42533 0.0
C1529 C 0.27688 0.27657 0.41694 0.0
C1530 C 0.28562 0.21046 0.42622 0.0
C1531 C 0.32194 0.20986 0.41821 0.0
C1532 C 0.33605 0.24348 0.4102 0.0
C1533 C 0.31389 0.27658 0.40971 0.0
C1534 C 0.37936 0.12614 0.40006 0.0
C1535 C 0.38416 0.10378 0.41578 0.0
C1536 C 0.35992 0.16097 0.40094 0.0
C1537 C 0.34423 0.17383 0.41747 0.0
C1538 C 0.34903 0.15147 0.43316 0.0
C1539 C 0.36905 0.11705 0.43237 0.0
H1540 H 0.05719 0.99386 0.15391 0.0
H1541 H 1.00933 0.08929 0.18277 0.0
H1542 H 0.12029 1.02287 0.15608 0.0
H1543 H 0.07229 0.11842 0.18512 0.0
H1544 H 0.19689 0.14973 0.1952 0.0
H1545 H 0.13705 0.11478 0.19729 0.0
H1546 H 0.14959 0.07874 0.14139 0.0
H1547 H 0.20961 0.11341 0.13931 0.0
C1548 C 0.06056 1.0201 0.16156 0.0
C1549 C 0.02865 0.03872 0.16876 0.0
C1550 C 0.09653 0.03718 0.16244 0.0
C1551 C 0.10138 0.07317 0.17065 0.0
C1552 C 0.06973 0.09055 0.17887 0.0
C1553 C 0.03369 0.07369 0.17774 0.0
C1554 C 0.18689 0.13443 0.18332 0.0
C1555 C 0.20807 0.13458 0.16704 0.0
C1556 C 0.15251 0.1144 0.18453 0.0
C1557 C 0.13854 0.0937 0.16956 0.0
C1558 C 0.15976 0.09383 0.15329 0.0
C1559 C 0.19402 0.11409 0.15203 0.0
H1560 H 0.15443 0.94008 0.8907 0.0
H1561 H 0.19201 0.96741 0.9451 0.0
H1562 H 0.18799 0.87911 0.89239 0.0
H1563 H 0.22631 0.90676 0.94659 0.0
H1564 H 0.32203 0.81954 0.92286 0.0
H1565 H 0.28439 0.87737 0.92816 0.0
H1566 H 0.18316 0.81677 0.91199 0.0
H1567 H 0.22065 0.75906 0.90713 0.0
C1568 C 0.16973 0.93298 0.90302 0.0
C1569 C 0.17033 0.95834 0.9178 0.0
C1570 C 0.18878 0.89805 0.90404 0.0
C1571 C 0.20952 0.8881 0.9197 0.0
C1572 C 0.21045 0.91364 0.93441 0.0
C1573 C 0.19065 0.94821 0.93356 0.0
C1574 C 0.29146 0.8181 0.9215 0.0
C1575 C 0.27405 0.7846 0.91515 0.0
C1576 C 0.26998 0.85128 0.92426 0.0
C1577 C 0.23093 0.85162 0.92026 0.0
C1578 C 0.21322 0.81737 0.91507 0.0
C1579 C 0.23455 0.78418 0.91262 0.0
H1580 H 0.35174 0.92586 0.69383 0.0
H1581 H 0.3563 0.93381 0.63514 0.0
H1582 H 0.41089 0.96119 0.69599 0.0
H1583 H 0.41607 0.9697 0.63739 0.0
H1584 H 0.54501 0.99515 0.65354 0.0
H1585 H 0.48474 0.96233 0.6475 0.0
H1586 H 0.43158 1.02721 0.69046 0.0
H1587 H 0.49147 0.06 0.69633 0.0
C1588 C 0.36543 0.93498 0.68134 0.0
C1589 C 0.34912 0.92698 0.66429 0.0
C1590 C 0.39929 0.95559 0.6826 0.0
C1591 C 0.41801 0.96874 0.66688 0.0
C1592 C 0.40233 0.95997 0.64976 0.0
C1593 C 0.36806 0.93952 0.64848 0.0
C1594 C 0.52014 1.00312 0.66133 0.0
C1595 C 0.52272 1.03061 0.6753 0.0
C1596 C 0.48567 0.98421 0.65791 0.0
C1597 C 0.45346 0.9918 0.66866 0.0
C1598 C 0.45596 1.02026 0.68211 0.0
C1599 C 0.49015 0.03931 0.68538 0.0
loop_
_geom_bond_atom_site_label_1
_geom_bond_atom_site_label_2
_geom_bond_distance
_geom_bond_site_symmetry_2
_ccdc_geom_bond_type
C0 Eu1 2.835 . S
C0 C2 1.500 . S
C0 O20 1.257 . S
C0 O21 1.260 . S
Eu1 C0 2.835 . S
Eu1 O20 2.473 . S
Eu1 O21 2.480 . S
Eu1 O22 2.430 . S
Eu1 O23 2.670 . S
Eu1 O24 2.394 . S
Eu1 O29 2.355 . S
Eu1 O31 2.374 . S
C2 C0 1.500 . S
C2 C3 1.377 . S
C2 C7 1.377 . S
C3 C2 1.377 . S
C3 C4 1.395 . S
C3 H32 0.931 . S
C4 C3 1.395 . S
C4 C5 1.383 . S
C4 H33 0.931 1_545 S
C5 C4 1.383 . S
C5 C6 1.394 . S
C6 C5 1.394 . S
C6 C7 1.378 . S
C6 H34 0.931 . S
C7 C2 1.377 . S
C7 C6 1.378 . S
C7 H35 0.931 . S
C8 O22 1.259 . S
C8 O23 1.270 . S
C9 O24 1.251 . S
C9 O25 1.251 . S
C10 Eu11 2.835 . S
C10 C12 1.500 . S
C10 O26 1.257 . S
C10 O27 1.260 . S
Eu11 C10 2.835 . S
Eu11 O23 2.355 . S
Eu11 O25 2.374 . S
Eu11 O26 2.473 . S
Eu11 O27 2.480 . S
Eu11 O28 2.430 . S
Eu11 O29 2.670 . S
Eu11 O30 2.394 . S
C12 C10 1.500 . S
C12 C13 1.377 . S
C12 C17 1.377 . S
C13 C12 1.377 . S
C13 C14 1.395 . S
C13 H36 0.931 . S
C14 C13 1.395 . S
C14 C15 1.383 . S
C14 H37 0.931 . S
C15 C14 1.383 . S
C15 C16 1.394 . S
C16 C15 1.394 . S
C16 C17 1.378 . S
C16 H38 0.931 . S
C17 C12 1.377 . S
C17 C16 1.378 . S
C17 H39 0.931 . S
C18 O28 1.259 . S
C18 O29 1.270 . S
C19 O30 1.251 . S
C19 O31 1.251 . S
O20 C0 1.257 . S
O20 Eu1 2.473 . S
O21 C0 1.260 . S
O21 Eu1 2.480 . S
O22 Eu1 2.430 . S
O22 C8 1.259 . S
O23 Eu1 2.670 . S
O23 C8 1.270 . S
O23 Eu11 2.355 . S
O24 Eu1 2.394 . S
O24 C9 1.251 . S
O25 C9 1.251 . S
O25 Eu11 2.374 . S
O26 C10 1.257 . S
O26 Eu11 2.473 . S
O27 C10 1.260 . S
O27 Eu11 2.480 . S
O28 Eu11 2.430 . S
O28 C18 1.259 . S
O29 Eu1 2.355 . S
O29 Eu11 2.670 . S
O29 C18 1.270 . S
O30 Eu11 2.394 . S
O30 C19 1.251 . S
O31 Eu1 2.374 . S
O31 C19 1.251 . S
H32 C3 0.931 . S
H33 C4 0.931 1_565 S
H34 C6 0.931 . S
H35 C7 0.931 . S
H36 C13 0.931 . S
H37 C14 0.931 . S
H38 C16 0.931 . S
H39 C17 0.931 . S
C40 Eu41 2.835 . S
C40 C42 1.500 . S
C40 O60 1.257 . S
C40 O61 1.260 . S
Eu41 C40 2.835 . S
Eu41 O60 2.473 . S
Eu41 O61 2.480 . S
Eu41 O62 2.430 . S
Eu41 O63 2.670 . S
Eu41 O64 2.394 . S
Eu41 O69 2.355 . S
Eu41 O71 2.374 . S
C42 C40 1.500 . S
C42 C43 1.377 . S
C42 C47 1.377 . S
C43 C42 1.377 . S
C43 C44 1.395 . S
C43 H72 0.931 . S
C44 C43 1.395 . S
C44 C45 1.383 . S
C44 H73 0.931 . S
C45 C44 1.383 . S
C45 C46 1.394 . S
C46 C45 1.394 . S
C46 C47 1.378 . S
C46 H74 0.931 . S
C47 C42 1.377 . S
C47 C46 1.378 . S
C47 H75 0.931 . S
C48 O62 1.259 . S
C48 O63 1.270 . S
C49 O64 1.251 . S
C49 O65 1.251 . S
C50 Eu51 2.835 . S
C50 C52 1.500 . S
C50 O66 1.257 . S
C50 O67 1.260 . S
Eu51 C50 2.835 . S
Eu51 O63 2.355 . S
Eu51 O65 2.374 . S
Eu51 O66 2.473 . S
Eu51 O67 2.480 . S
Eu51 O68 2.430 . S
Eu51 O69 2.670 . S
Eu51 O70 2.394 . S
C52 C50 1.500 . S
C52 C53 1.377 . S
C52 C57 1.377 . S
C53 C52 1.377 . S
C53 C54 1.395 . S
C53 H76 0.931 . S
C54 C53 1.395 . S
C54 C55 1.383 . S
C54 H77 0.931 . S
C55 C54 1.383 . S
C55 C56 1.394 . S
C56 C55 1.394 . S
C56 C57 1.378 . S
C56 H78 0.931 . S
C57 C52 1.377 . S
C57 C56 1.378 . S
C57 H79 0.931 . S
C58 O68 1.259 . S
C58 O69 1.270 . S
C59 O70 1.251 . S
C59 O71 1.251 . S
O60 C40 1.257 . S
O60 Eu41 2.473 . S
O61 C40 1.260 . S
O61 Eu41 2.480 . S
O62 Eu41 2.430 . S
O62 C48 1.259 . S
O63 Eu41 2.670 . S
O63 C48 1.270 . S
O63 Eu51 2.355 . S
O64 Eu41 2.394 . S
O64 C49 1.251 . S
O65 C49 1.251 . S
O65 Eu51 2.374 . S
O66 C50 1.257 . S
O66 Eu51 2.473 . S
O67 C50 1.260 . S
O67 Eu51 2.480 . S
O68 Eu51 2.430 . S
O68 C58 1.259 . S
O69 Eu41 2.355 . S
O69 Eu51 2.670 . S
O69 C58 1.270 . S
O70 Eu51 2.394 . S
O70 C59 1.251 . S
O71 Eu41 2.374 . S
O71 C59 1.251 . S
H72 C43 0.931 . S
H73 C44 0.931 . S
H74 C46 0.931 . S
H75 C47 0.931 . S
H76 C53 0.931 . S
H77 C54 0.931 . S
H78 C56 0.931 . S
H79 C57 0.931 . S
C80 Eu81 2.835 . S
C80 C82 1.500 . S
C80 O100 1.257 . S
C80 O101 1.260 . S
Eu81 C80 2.835 . S
Eu81 O100 2.473 . S
Eu81 O101 2.480 . S
Eu81 O102 2.430 . S
Eu81 O103 2.670 . S
Eu81 O104 2.394 . S
Eu81 O109 2.355 . S
Eu81 O111 2.374 . S
C82 C80 1.500 . S
C82 C83 1.377 . S
C82 C87 1.377 . S
C83 C82 1.377 . S
C83 C84 1.395 . S
C83 H112 0.931 . S
C84 C83 1.395 . S
C84 C85 1.383 . S
C84 H113 0.931 1_565 S
C85 C84 1.383 . S
C85 C86 1.394 . S
C86 C85 1.394 . S
C86 C87 1.378 . S
C86 H114 0.931 . S
C87 C82 1.377 . S
C87 C86 1.378 . S
C87 H115 0.931 . S
C88 O102 1.259 . S
C88 O103 1.270 . S
C89 O104 1.251 . S
C89 O105 1.251 . S
C90 Eu91 2.835 . S
C90 C92 1.500 . S
C90 O106 1.257 . S
C90 O107 1.260 . S
Eu91 C90 2.835 . S
Eu91 O103 2.355 . S
Eu91 O105 2.374 . S
Eu91 O106 2.473 . S
Eu91 O107 2.480 . S
Eu91 O108 2.430 . S
Eu91 O109 2.670 . S
Eu91 O110 2.394 . S
C92 C90 1.500 . S
C92 C93 1.377 . S
C92 C97 1.377 . S
C93 C92 1.377 . S
C93 C94 1.395 . S
C93 H116 0.931 . S
C94 C93 1.395 . S
C94 C95 1.383 . S
C94 H117 0.931 . S
C95 C94 1.383 . S
C95 C96 1.394 . S
C96 C95 1.394 . S
C96 C97 1.378 . S
C96 H118 0.931 . S
C97 C92 1.377 . S
C97 C96 1.378 . S
C97 H119 0.931 . S
C98 O108 1.259 . S
C98 O109 1.270 . S
C99 O110 1.251 . S
C99 O111 1.251 . S
O100 C80 1.257 . S
O100 Eu81 2.473 . S
O101 C80 1.260 . S
O101 Eu81 2.480 . S
O102 Eu81 2.430 . S
O102 C88 1.259 . S
O103 Eu81 2.670 . S
O103 C88 1.270 . S
O103 Eu91 2.355 . S
O104 Eu81 2.394 . S
O104 C89 1.251 . S
O105 C89 1.251 . S
O105 Eu91 2.374 . S
O106 C90 1.257 . S
O106 Eu91 2.473 . S
O107 C90 1.260 . S
O107 Eu91 2.480 . S
O108 Eu91 2.430 . S
O108 C98 1.259 . S
O109 Eu81 2.355 . S
O109 Eu91 2.670 . S
O109 C98 1.270 . S
O110 Eu91 2.394 . S
O110 C99 1.251 . S
O111 Eu81 2.374 . S
O111 C99 1.251 . S
H112 C83 0.931 . S
H113 C84 0.931 1_545 S
H114 C86 0.931 . S
H115 C87 0.931 . S
H116 C93 0.931 . S
H117 C94 0.931 . S
H118 C96 0.931 . S
H119 C97 0.931 . S
C120 Eu121 2.835 . S
C120 C122 1.500 . S
C120 O140 1.257 . S
C120 O141 1.260 . S
Eu121 C120 2.835 . S
Eu121 O140 2.473 . S
Eu121 O141 2.480 . S
Eu121 O142 2.430 . S
Eu121 O143 2.670 . S
Eu121 O144 2.394 . S
Eu121 O149 2.355 . S
Eu121 O151 2.374 . S
C122 C120 1.500 . S
C122 C123 1.377 . S
C122 C127 1.377 . S
C123 C122 1.377 . S
C123 C124 1.395 . S
C123 H152 0.931 . S
C124 C123 1.395 . S
C124 C125 1.383 . S
C124 H153 0.931 . S
C125 C124 1.383 . S
C125 C126 1.394 . S
C126 C125 1.394 . S
C126 C127 1.378 . S
C126 H154 0.931 . S
C127 C122 1.377 . S
C127 C126 1.378 . S
C127 H155 0.931 . S
C128 O142 1.259 . S
C128 O143 1.270 . S
C129 O144 1.251 . S
C129 O145 1.251 . S
C130 Eu131 2.835 . S
C130 C132 1.500 . S
C130 O146 1.257 . S
C130 O147 1.260 . S
Eu131 C130 2.835 . S
Eu131 O143 2.355 . S
Eu131 O145 2.374 . S
Eu131 O146 2.473 . S
Eu131 O147 2.480 . S
Eu131 O148 2.430 . S
Eu131 O149 2.670 . S
Eu131 O150 2.394 . S
C132 C130 1.500 . S
C132 C133 1.377 . S
C132 C137 1.377 . S
C133 C132 1.377 . S
C133 C134 1.395 1_655 S
C133 H156 0.931 1_655 S
C134 C133 1.395 1_455 S
C134 C135 1.383 1_455 S
C134 H157 0.931 . S
C135 C134 1.383 1_655 S
C135 C136 1.394 . S
C136 C135 1.394 . S
C136 C137 1.378 . S
C136 H158 0.931 . S
C137 C132 1.377 . S
C137 C136 1.378 . S
C137 H159 0.931 . S
C138 O148 1.259 . S
C138 O149 1.270 . S
C139 O150 1.251 . S
C139 O151 1.251 . S
O140 C120 1.257 . S
O140 Eu121 2.473 . S
O141 C120 1.260 . S
O141 Eu121 2.480 . S
O142 Eu121 2.430 . S
O142 C128 1.259 . S
O143 Eu121 2.670 . S
O143 C128 1.270 . S
O143 Eu131 2.355 . S
O144 Eu121 2.394 . S
O144 C129 1.251 . S
O145 C129 1.251 . S
O145 Eu131 2.374 . S
O146 C130 1.257 . S
O146 Eu131 2.473 . S
O147 C130 1.260 . S
O147 Eu131 2.480 . S
O148 Eu131 2.430 . S
O148 C138 1.259 . S
O149 Eu121 2.355 . S
O149 Eu131 2.670 . S
O149 C138 1.270 . S
O150 Eu131 2.394 . S
O150 C139 1.251 . S
O151 Eu121 2.374 . S
O151 C139 1.251 . S
H152 C123 0.931 . S
H153 C124 0.931 . S
H154 C126 0.931 . S
H155 C127 0.931 . S
H156 C133 0.931 1_455 S
H157 C134 0.931 . S
H158 C136 0.931 . S
H159 C137 0.931 . S
C160 Eu161 2.835 . S
C160 C162 1.500 . S
C160 O180 1.257 . S
C160 O181 1.260 . S
Eu161 C160 2.835 . S
Eu161 O180 2.473 . S
Eu161 O181 2.480 . S
Eu161 O182 2.430 . S
Eu161 O183 2.670 . S
Eu161 O184 2.394 . S
Eu161 O189 2.355 . S
Eu161 O191 2.374 . S
C162 C160 1.500 . S
C162 C163 1.377 . S
C162 C167 1.377 . S
C163 C162 1.377 . S
C163 C164 1.395 . S
C163 H192 0.931 . S
C164 C163 1.395 . S
C164 C165 1.383 . S
C164 H193 0.931 . S
C165 C164 1.383 . S
C165 C166 1.394 . S
C166 C165 1.394 . S
C166 C167 1.378 . S
C166 H194 0.931 . S
C167 C162 1.377 . S
C167 C166 1.378 . S
C167 H195 0.931 . S
C168 O182 1.259 . S
C168 O183 1.270 . S
C169 O184 1.251 . S
C169 O185 1.251 . S
C170 Eu171 2.835 . S
C170 C172 1.500 . S
C170 O186 1.257 . S
C170 O187 1.260 . S
Eu171 C170 2.835 . S
Eu171 O183 2.355 . S
Eu171 O185 2.374 . S
Eu171 O186 2.473 . S
Eu171 O187 2.480 . S
Eu171 O188 2.430 . S
Eu171 O189 2.670 . S
Eu171 O190 2.394 . S
C172 C170 1.500 . S
C172 C173 1.377 . S
C172 C177 1.377 . S
C173 C172 1.377 . S
C173 C174 1.395 . S
C173 H196 0.931 . S
C174 C173 1.395 . S
C174 C175 1.383 . S
C174 H197 0.931 1_565 S
C175 C174 1.383 . S
C175 C176 1.394 . S
C176 C175 1.394 . S
C176 C177 1.378 . S
C176 H198 0.931 . S
C177 C172 1.377 . S
C177 C176 1.378 . S
C177 H199 0.931 . S
C178 O188 1.259 . S
C178 O189 1.270 . S
C179 O190 1.251 . S
C179 O191 1.251 . S
O180 C160 1.257 . S
O180 Eu161 2.473 . S
O181 C160 1.260 . S
O181 Eu161 2.480 . S
O182 Eu161 2.430 . S
O182 C168 1.259 . S
O183 Eu161 2.670 . S
O183 C168 1.270 . S
O183 Eu171 2.355 . S
O184 Eu161 2.394 . S
O184 C169 1.251 . S
O185 C169 1.251 . S
O185 Eu171 2.374 . S
O186 C170 1.257 . S
O186 Eu171 2.473 . S
O187 C170 1.260 . S
O187 Eu171 2.480 . S
O188 Eu171 2.430 . S
O188 C178 1.259 . S
O189 Eu161 2.355 . S
O189 Eu171 2.670 . S
O189 C178 1.270 . S
O190 Eu171 2.394 . S
O190 C179 1.251 . S
O191 Eu161 2.374 . S
O191 C179 1.251 . S
H192 C163 0.931 . S
H193 C164 0.931 . S
H194 C166 0.931 . S
H195 C167 0.931 . S
H196 C173 0.931 . S
H197 C174 0.931 1_545 S
H198 C176 0.931 . S
H199 C177 0.931 . S
C200 Eu201 2.835 . S
C200 C202 1.500 . S
C200 O220 1.257 . S
C200 O221 1.260 . S
Eu201 C200 2.835 . S
Eu201 O220 2.473 . S
Eu201 O221 2.480 . S
Eu201 O222 2.430 . S
Eu201 O223 2.670 . S
Eu201 O224 2.394 . S
Eu201 O229 2.355 . S
Eu201 O231 2.374 . S
C202 C200 1.500 . S
C202 C203 1.377 . S
C202 C207 1.377 . S
C203 C202 1.377 . S
C203 C204 1.395 . S
C203 H232 0.931 . S
C204 C203 1.395 . S
C204 C205 1.383 . S
C204 H233 0.931 . S
C205 C204 1.383 . S
C205 C206 1.394 . S
C206 C205 1.394 . S
C206 C207 1.378 . S
C206 H234 0.931 . S
C207 C202 1.377 . S
C207 C206 1.378 . S
C207 H235 0.931 . S
C208 O222 1.259 . S
C208 O223 1.270 . S
C209 O224 1.251 . S
C209 O225 1.251 . S
C210 Eu211 2.835 . S
C210 C212 1.500 . S
C210 O226 1.257 . S
C210 O227 1.260 . S
Eu211 C210 2.835 . S
Eu211 O223 2.355 . S
Eu211 O225 2.374 . S
Eu211 O226 2.473 . S
Eu211 O227 2.480 . S
Eu211 O228 2.430 . S
Eu211 O229 2.670 . S
Eu211 O230 2.394 . S
C212 C210 1.500 . S
C212 C213 1.377 . S
C212 C217 1.377 . S
C213 C212 1.377 . S
C213 C214 1.395 . S
C213 H236 0.931 . S
C214 C213 1.395 . S
C214 C215 1.383 . S
C214 H237 0.931 . S
C215 C214 1.383 . S
C215 C216 1.394 . S
C216 C215 1.394 . S
C216 C217 1.378 . S
C216 H238 0.931 . S
C217 C212 1.377 . S
C217 C216 1.378 . S
C217 H239 0.931 . S
C218 O228 1.259 . S
C218 O229 1.270 . S
C219 O230 1.251 . S
C219 O231 1.251 . S
O220 C200 1.257 . S
O220 Eu201 2.473 . S
O221 C200 1.260 . S
O221 Eu201 2.480 . S
O222 Eu201 2.430 . S
O222 C208 1.259 . S
O223 Eu201 2.670 . S
O223 C208 1.270 . S
O223 Eu211 2.355 . S
O224 Eu201 2.394 . S
O224 C209 1.251 . S
O225 C209 1.251 . S
O225 Eu211 2.374 . S
O226 C210 1.257 . S
O226 Eu211 2.473 . S
O227 C210 1.260 . S
O227 Eu211 2.480 . S
O228 Eu211 2.430 . S
O228 C218 1.259 . S
O229 Eu201 2.355 . S
O229 Eu211 2.670 . S
O229 C218 1.270 . S
O230 Eu211 2.394 . S
O230 C219 1.251 . S
O231 Eu201 2.374 . S
O231 C219 1.251 . S
H232 C203 0.931 . S
H233 C204 0.931 . S
H234 C206 0.931 . S
H235 C207 0.931 . S
H236 C213 0.931 . S
H237 C214 0.931 . S
H238 C216 0.931 . S
H239 C217 0.931 . S
C240 Eu241 2.835 . S
C240 C242 1.500 . S
C240 O260 1.257 . S
C240 O261 1.260 . S
Eu241 C240 2.835 . S
Eu241 O260 2.473 . S
Eu241 O261 2.480 . S
Eu241 O262 2.430 . S
Eu241 O263 2.670 . S
Eu241 O264 2.394 . S
Eu241 O269 2.355 . S
Eu241 O271 2.374 . S
C242 C240 1.500 . S
C242 C243 1.377 . S
C242 C247 1.377 . S
C243 C242 1.377 . S
C243 C244 1.395 . S
C243 H272 0.931 . S
C244 C243 1.395 . S
C244 C245 1.383 . S
C244 H273 0.931 . S
C245 C244 1.383 . S
C245 C246 1.394 . S
C246 C245 1.394 . S
C246 C247 1.378 . S
C246 H274 0.931 . S
C247 C242 1.377 . S
C247 C246 1.378 . S
C247 H275 0.931 . S
C248 O262 1.259 . S
C248 O263 1.270 . S
C249 O264 1.251 . S
C249 O265 1.251 . S
C250 Eu251 2.835 . S
C250 C252 1.500 . S
C250 O266 1.257 . S
C250 O267 1.260 . S
Eu251 C250 2.835 . S
Eu251 O263 2.355 . S
Eu251 O265 2.374 . S
Eu251 O266 2.473 . S
Eu251 O267 2.480 . S
Eu251 O268 2.430 . S
Eu251 O269 2.670 . S
Eu251 O270 2.394 . S
C252 C250 1.500 . S
C252 C253 1.377 . S
C252 C257 1.377 . S
C253 C252 1.377 . S
C253 C254 1.395 . S
C253 H276 0.931 . S
C254 C253 1.395 . S
C254 C255 1.383 . S
C254 H277 0.931 1_545 S
C255 C254 1.383 . S
C255 C256 1.394 . S
C256 C255 1.394 . S
C256 C257 1.378 . S
C256 H278 0.931 . S
C257 C252 1.377 . S
C257 C256 1.378 . S
C257 H279 0.931 . S
C258 O268 1.259 . S
C258 O269 1.270 . S
C259 O270 1.251 . S
C259 O271 1.251 . S
O260 C240 1.257 . S
O260 Eu241 2.473 . S
O261 C240 1.260 . S
O261 Eu241 2.480 . S
O262 Eu241 2.430 . S
O262 C248 1.259 . S
O263 Eu241 2.670 . S
O263 C248 1.270 . S
O263 Eu251 2.355 . S
O264 Eu241 2.394 . S
O264 C249 1.251 . S
O265 C249 1.251 . S
O265 Eu251 2.374 . S
O266 C250 1.257 . S
O266 Eu251 2.473 . S
O267 C250 1.260 . S
O267 Eu251 2.480 . S
O268 Eu251 2.430 . S
O268 C258 1.259 . S
O269 Eu241 2.355 . S
O269 Eu251 2.670 . S
O269 C258 1.270 . S
O270 Eu251 2.394 . S
O270 C259 1.251 . S
O271 Eu241 2.374 . S
O271 C259 1.251 . S
H272 C243 0.931 . S
H273 C244 0.931 . S
H274 C246 0.931 . S
H275 C247 0.931 . S
H276 C253 0.931 . S
H277 C254 0.931 1_565 S
H278 C256 0.931 . S
H279 C257 0.931 . S
C280 Eu281 2.835 . S
C280 C282 1.500 . S
C280 O300 1.257 . S
C280 O301 1.260 . S
Eu281 C280 2.835 . S
Eu281 O300 2.473 . S
Eu281 O301 2.480 . S
Eu281 O302 2.430 . S
Eu281 O303 2.670 . S
Eu281 O304 2.394 . S
Eu281 O309 2.355 . S
Eu281 O311 2.374 . S
C282 C280 1.500 . S
C282 C283 1.377 . S
C282 C287 1.377 . S
C283 C282 1.377 . S
C283 C284 1.395 1_455 S
C283 H312 0.931 1_455 S
C284 C283 1.395 1_655 S
C284 C285 1.383 1_655 S
C284 H313 0.931 . S
C285 C284 1.383 1_455 S
C285 C286 1.394 . S
C286 C285 1.394 . S
C286 C287 1.378 . S
C286 H314 0.931 . S
C287 C282 1.377 . S
C287 C286 1.378 . S
C287 H315 0.931 . S
C288 O302 1.259 . S
C288 O303 1.270 . S
C289 O304 1.251 . S
C289 O305 1.251 . S
C290 Eu291 2.835 . S
C290 C292 1.500 . S
C290 O306 1.257 . S
C290 O307 1.260 . S
Eu291 C290 2.835 . S
Eu291 O303 2.355 . S
Eu291 O305 2.374 . S
Eu291 O306 2.473 . S
Eu291 O307 2.480 . S
Eu291 O308 2.430 . S
Eu291 O309 2.670 . S
Eu291 O310 2.394 . S
C292 C290 1.500 . S
C292 C293 1.377 . S
C292 C297 1.377 . S
C293 C292 1.377 . S
C293 C294 1.395 . S
C293 H316 0.931 . S
C294 C293 1.395 . S
C294 C295 1.383 . S
C294 H317 0.931 . S
C295 C294 1.383 . S
C295 C296 1.394 . S
C296 C295 1.394 . S
C296 C297 1.378 . S
C296 H318 0.931 . S
C297 C292 1.377 . S
C297 C296 1.378 . S
C297 H319 0.931 . S
C298 O308 1.259 . S
C298 O309 1.270 . S
C299 O310 1.251 . S
C299 O311 1.251 . S
O300 C280 1.257 . S
O300 Eu281 2.473 . S
O301 C280 1.260 . S
O301 Eu281 2.480 . S
O302 Eu281 2.430 . S
O302 C288 1.259 . S
O303 Eu281 2.670 . S
O303 C288 1.270 . S
O303 Eu291 2.355 . S
O304 Eu281 2.394 . S
O304 C289 1.251 . S
O305 C289 1.251 . S
O305 Eu291 2.374 . S
O306 C290 1.257 . S
O306 Eu291 2.473 . S
O307 C290 1.260 . S
O307 Eu291 2.480 . S
O308 Eu291 2.430 . S
O308 C298 1.259 . S
O309 Eu281 2.355 . S
O309 Eu291 2.670 . S
O309 C298 1.270 . S
O310 Eu291 2.394 . S
O310 C299 1.251 . S
O311 Eu281 2.374 . S
O311 C299 1.251 . S
H312 C283 0.931 1_655 S
H313 C284 0.931 . S
H314 C286 0.931 . S
H315 C287 0.931 . S
H316 C293 0.931 . S
H317 C294 0.931 . S
H318 C296 0.931 . S
H319 C297 0.931 . S
C320 Eu321 2.835 . S
C320 C322 1.500 . S
C320 O340 1.257 . S
C320 O341 1.260 . S
Eu321 C320 2.835 . S
Eu321 O340 2.473 . S
Eu321 O341 2.480 . S
Eu321 O342 2.430 . S
Eu321 O343 2.670 . S
Eu321 O344 2.394 . S
Eu321 O349 2.355 . S
Eu321 O351 2.374 . S
C322 C320 1.500 . S
C322 C323 1.377 . S
C322 C327 1.377 . S
C323 C322 1.377 . S
C323 C324 1.395 . S
C323 H352 0.931 . S
C324 C323 1.395 . S
C324 C325 1.383 . S
C324 H353 0.931 . S
C325 C324 1.383 . S
C325 C326 1.394 . S
C326 C325 1.394 . S
C326 C327 1.378 . S
C326 H354 0.931 . S
C327 C322 1.377 . S
C327 C326 1.378 . S
C327 H355 0.931 . S
C328 O342 1.259 . S
C328 O343 1.270 . S
C329 O344 1.251 . S
C329 O345 1.251 . S
C330 Eu331 2.835 . S
C330 C332 1.500 . S
C330 O346 1.257 . S
C330 O347 1.260 . S
Eu331 C330 2.835 . S
Eu331 O343 2.355 . S
Eu331 O345 2.374 . S
Eu331 O346 2.473 . S
Eu331 O347 2.480 . S
Eu331 O348 2.430 . S
Eu331 O349 2.670 . S
Eu331 O350 2.394 . S
C332 C330 1.500 . S
C332 C333 1.377 . S
C332 C337 1.377 . S
C333 C332 1.377 . S
C333 C334 1.395 . S
C333 H356 0.931 . S
C334 C333 1.395 . S
C334 C335 1.383 . S
C334 H357 0.931 . S
C335 C334 1.383 . S
C335 C336 1.394 . S
C336 C335 1.394 . S
C336 C337 1.378 . S
C336 H358 0.931 . S
C337 C332 1.377 . S
C337 C336 1.378 . S
C337 H359 0.931 . S
C338 O348 1.259 . S
C338 O349 1.270 . S
C339 O350 1.251 . S
C339 O351 1.251 . S
O340 C320 1.257 . S
O340 Eu321 2.473 . S
O341 C320 1.260 . S
O341 Eu321 2.480 . S
O342 Eu321 2.430 . S
O342 C328 1.259 . S
O343 Eu321 2.670 . S
O343 C328 1.270 . S
O343 Eu331 2.355 . S
O344 Eu321 2.394 . S
O344 C329 1.251 . S
O345 C329 1.251 . S
O345 Eu331 2.374 . S
O346 C330 1.257 . S
O346 Eu331 2.473 . S
O347 C330 1.260 . S
O347 Eu331 2.480 . S
O348 Eu331 2.430 . S
O348 C338 1.259 . S
O349 Eu321 2.355 . S
O349 Eu331 2.670 . S
O349 C338 1.270 . S
O350 Eu331 2.394 . S
O350 C339 1.251 . S
O351 Eu321 2.374 . S
O351 C339 1.251 . S
H352 C323 0.931 . S
H353 C324 0.931 . S
H354 C326 0.931 . S
H355 C327 0.931 . S
H356 C333 0.931 . S
H357 C334 0.931 . S
H358 C336 0.931 . S
H359 C337 0.931 . S
C360 Eu361 2.835 . S
C360 C362 1.500 . S
C360 O380 1.257 . S
C360 O381 1.260 . S
Eu361 C360 2.835 . S
Eu361 O380 2.473 . S
Eu361 O381 2.480 . S
Eu361 O382 2.430 . S
Eu361 O383 2.670 . S
Eu361 O384 2.394 1_545 S
Eu361 O389 2.355 . S
Eu361 O391 2.374 . S
C362 C360 1.500 . S
C362 C363 1.377 . S
C362 C367 1.377 1_545 S
C363 C362 1.377 . S
C363 C364 1.395 . S
C363 H392 0.931 . S
C364 C363 1.395 . S
C364 C365 1.383 1_545 S
C364 H393 0.931 . S
C365 C364 1.383 1_565 S
C365 C366 1.394 . S
C366 C365 1.394 . S
C366 C367 1.378 . S
C366 H394 0.931 . S
C367 C362 1.377 1_565 S
C367 C366 1.378 . S
C367 H395 0.931 . S
C368 O382 1.259 . S
C368 O383 1.270 . S
C369 O384 1.251 . S
C369 O385 1.251 . S
C370 Eu371 2.835 . S
C370 C372 1.500 . S
C370 O386 1.257 . S
C370 O387 1.260 . S
Eu371 C370 2.835 . S
Eu371 O383 2.355 . S
Eu371 O385 2.374 1_545 S
Eu371 O386 2.473 . S
Eu371 O387 2.480 . S
Eu371 O388 2.430 1_545 S
Eu371 O389 2.670 . S
Eu371 O390 2.394 . S
C372 C370 1.500 . S
C372 C373 1.377 . S
C372 C377 1.377 . S
C373 C372 1.377 . S
C373 C374 1.395 1_455 S
C373 H396 0.931 1_455 S
C374 C373 1.395 1_655 S
C374 C375 1.383 1_655 S
C374 H397 0.931 . S
C375 C374 1.383 1_455 S
C375 C376 1.394 . S
C376 C375 1.394 . S
C376 C377 1.378 . S
C376 H398 0.931 . S
C377 C372 1.377 . S
C377 C376 1.378 . S
C377 H399 0.931 . S
C378 O388 1.259 1_545 S
C378 O389 1.270 . S
C379 O390 1.251 . S
C379 O391 1.251 . S
O380 C360 1.257 . S
O380 Eu361 2.473 . S
O381 C360 1.260 . S
O381 Eu361 2.480 . S
O382 Eu361 2.430 . S
O382 C368 1.259 . S
O383 Eu361 2.670 . S
O383 C368 1.270 . S
O383 Eu371 2.355 . S
O384 Eu361 2.394 1_565 S
O384 C369 1.251 . S
O385 C369 1.251 . S
O385 Eu371 2.374 1_565 S
O386 C370 1.257 . S
O386 Eu371 2.473 . S
O387 C370 1.260 . S
O387 Eu371 2.480 . S
O388 Eu371 2.430 1_565 S
O388 C378 1.259 1_565 S
O389 Eu361 2.355 . S
O389 Eu371 2.670 . S
O389 C378 1.270 . S
O390 Eu371 2.394 . S
O390 C379 1.251 . S
O391 Eu361 2.374 . S
O391 C379 1.251 . S
H392 C363 0.931 . S
H393 C364 0.931 . S
H394 C366 0.931 . S
H395 C367 0.931 . S
H396 C373 0.931 1_655 S
H397 C374 0.931 . S
H398 C376 0.931 . S
H399 C377 0.931 . S
C400 Eu401 2.835 . S
C400 C402 1.500 . S
C400 O420 1.257 . S
C400 O421 1.260 . S
Eu401 C400 2.835 . S
Eu401 O420 2.473 . S
Eu401 O421 2.480 . S
Eu401 O422 2.430 . S
Eu401 O423 2.670 . S
Eu401 O424 2.394 . S
Eu401 O429 2.355 . S
Eu401 O431 2.374 . S
C402 C400 1.500 . S
C402 C403 1.377 . S
C402 C407 1.377 . S
C403 C402 1.377 . S
C403 C404 1.395 . S
C403 H432 0.931 . S
C404 C403 1.395 . S
C404 C405 1.383 . S
C404 H433 0.931 . S
C405 C404 1.383 . S
C405 C406 1.394 . S
C406 C405 1.394 . S
C406 C407 1.378 . S
C406 H434 0.931 . S
C407 C402 1.377 . S
C407 C406 1.378 . S
C407 H435 0.931 . S
C408 O422 1.259 . S
C408 O423 1.270 . S
C409 O424 1.251 . S
C409 O425 1.251 . S
C410 Eu411 2.835 . S
C410 C412 1.500 . S
C410 O426 1.257 . S
C410 O427 1.260 . S
Eu411 C410 2.835 . S
Eu411 O423 2.355 . S
Eu411 O425 2.374 . S
Eu411 O426 2.473 . S
Eu411 O427 2.480 . S
Eu411 O428 2.430 . S
Eu411 O429 2.670 . S
Eu411 O430 2.394 . S
C412 C410 1.500 . S
C412 C413 1.377 . S
C412 C417 1.377 . S
C413 C412 1.377 . S
C413 C414 1.395 . S
C413 H436 0.931 . S
C414 C413 1.395 . S
C414 C415 1.383 . S
C414 H437 0.931 . S
C415 C414 1.383 . S
C415 C416 1.394 . S
C416 C415 1.394 . S
C416 C417 1.378 . S
C416 H438 0.931 . S
C417 C412 1.377 . S
C417 C416 1.378 . S
C417 H439 0.931 . S
C418 O428 1.259 . S
C418 O429 1.270 . S
C419 O430 1.251 . S
C419 O431 1.251 . S
O420 C400 1.257 . S
O420 Eu401 2.473 . S
O421 C400 1.260 . S
O421 Eu401 2.480 . S
O422 Eu401 2.430 . S
O422 C408 1.259 . S
O423 Eu401 2.670 . S
O423 C408 1.270 . S
O423 Eu411 2.355 . S
O424 Eu401 2.394 . S
O424 C409 1.251 . S
O425 C409 1.251 . S
O425 Eu411 2.374 . S
O426 C410 1.257 . S
O426 Eu411 2.473 . S
O427 C410 1.260 . S
O427 Eu411 2.480 . S
O428 Eu411 2.430 . S
O428 C418 1.259 . S
O429 Eu401 2.355 . S
O429 Eu411 2.670 . S
O429 C418 1.270 . S
O430 Eu411 2.394 . S
O430 C419 1.251 . S
O431 Eu401 2.374 . S
O431 C419 1.251 . S
H432 C403 0.931 . S
H433 C404 0.931 . S
H434 C406 0.931 . S
H435 C407 0.931 . S
H436 C413 0.931 . S
H437 C414 0.931 . S
H438 C416 0.931 . S
H439 C417 0.931 . S
C440 Eu441 2.835 . S
C440 C442 1.500 . S
C440 O460 1.257 . S
C440 O461 1.260 . S
Eu441 C440 2.835 . S
Eu441 O460 2.473 . S
Eu441 O461 2.480 . S
Eu441 O462 2.430 . S
Eu441 O463 2.670 . S
Eu441 O464 2.394 1_565 S
Eu441 O469 2.355 . S
Eu441 O471 2.374 . S
C442 C440 1.500 . S
C442 C443 1.377 . S
C442 C447 1.377 1_565 S
C443 C442 1.377 . S
C443 C444 1.395 . S
C443 H472 0.931 . S
C444 C443 1.395 . S
C444 C445 1.383 1_565 S
C444 H473 0.931 . S
C445 C444 1.383 1_545 S
C445 C446 1.394 . S
C446 C445 1.394 . S
C446 C447 1.378 . S
C446 H474 0.931 . S
C447 C442 1.377 1_545 S
C447 C446 1.378 . S
C447 H475 0.931 . S
C448 O462 1.259 . S
C448 O463 1.270 . S
C449 O464 1.251 . S
C449 O465 1.251 . S
C450 Eu451 2.835 . S
C450 C452 1.500 . S
C450 O466 1.257 . S
C450 O467 1.260 . S
Eu451 C450 2.835 . S
Eu451 O463 2.355 . S
Eu451 O465 2.374 1_565 S
Eu451 O466 2.473 . S
Eu451 O467 2.480 . S
Eu451 O468 2.430 1_565 S
Eu451 O469 2.670 . S
Eu451 O470 2.394 . S
C452 C450 1.500 . S
C452 C453 1.377 . S
C452 C457 1.377 . S
C453 C452 1.377 . S
C453 C454 1.395 . S
C453 H476 0.931 . S
C454 C453 1.395 . S
C454 C455 1.383 . S
C454 H477 0.931 . S
C455 C454 1.383 . S
C455 C456 1.394 . S
C456 C455 1.394 . S
C456 C457 1.378 . S
C456 H478 0.931 . S
C457 C452 1.377 . S
C457 C456 1.378 . S
C457 H479 0.931 . S
C458 O468 1.259 1_565 S
C458 O469 1.270 . S
C459 O470 1.251 . S
C459 O471 1.251 . S
O460 C440 1.257 . S
O460 Eu441 2.473 . S
O461 C440 1.260 . S
O461 Eu441 2.480 . S
O462 Eu441 2.430 . S
O462 C448 1.259 . S
O463 Eu441 2.670 . S
O463 C448 1.270 . S
O463 Eu451 2.355 . S
O464 Eu441 2.394 1_545 S
O464 C449 1.251 . S
O465 C449 1.251 . S
O465 Eu451 2.374 1_545 S
O466 C450 1.257 . S
O466 Eu451 2.473 . S
O467 C450 1.260 . S
O467 Eu451 2.480 . S
O468 Eu451 2.430 1_545 S
O468 C458 1.259 1_545 S
O469 Eu441 2.355 . S
O469 Eu451 2.670 . S
O469 C458 1.270 . S
O470 Eu451 2.394 . S
O470 C459 1.251 . S
O471 Eu441 2.374 . S
O471 C459 1.251 . S
H472 C443 0.931 . S
H473 C444 0.931 . S
H474 C446 0.931 . S
H475 C447 0.931 . S
H476 C453 0.931 . S
H477 C454 0.931 . S
H478 C456 0.931 . S
H479 C457 0.931 . S
C480 Eu481 2.835 . S
C480 C482 1.500 . S
C480 O500 1.257 . S
C480 O501 1.260 . S
Eu481 C480 2.835 . S
Eu481 O500 2.473 . S
Eu481 O501 2.480 . S
Eu481 O502 2.430 . S
Eu481 O503 2.670 . S
Eu481 O504 2.394 . S
Eu481 O509 2.355 . S
Eu481 O511 2.374 . S
C482 C480 1.500 . S
C482 C483 1.377 . S
C482 C487 1.377 . S
C483 C482 1.377 . S
C483 C484 1.395 . S
C483 H512 0.931 . S
C484 C483 1.395 . S
C484 C485 1.383 . S
C484 H513 0.931 . S
C485 C484 1.383 . S
C485 C486 1.394 . S
C486 C485 1.394 . S
C486 C487 1.378 . S
C486 H514 0.931 . S
C487 C482 1.377 . S
C487 C486 1.378 . S
C487 H515 0.931 . S
C488 O502 1.259 . S
C488 O503 1.270 . S
C489 O504 1.251 . S
C489 O505 1.251 . S
C490 Eu491 2.835 . S
C490 C492 1.500 . S
C490 O506 1.257 . S
C490 O507 1.260 . S
Eu491 C490 2.835 . S
Eu491 O503 2.355 . S
Eu491 O505 2.374 . S
Eu491 O506 2.473 . S
Eu491 O507 2.480 . S
Eu491 O508 2.430 . S
Eu491 O509 2.670 . S
Eu491 O510 2.394 . S
C492 C490 1.500 . S
C492 C493 1.377 . S
C492 C497 1.377 . S
C493 C492 1.377 . S
C493 C494 1.395 . S
C493 H516 0.931 . S
C494 C493 1.395 . S
C494 C495 1.383 . S
C494 H517 0.931 . S
C495 C494 1.383 . S
C495 C496 1.394 . S
C496 C495 1.394 . S
C496 C497 1.378 . S
C496 H518 0.931 . S
C497 C492 1.377 . S
C497 C496 1.378 . S
C497 H519 0.931 . S
C498 O508 1.259 . S
C498 O509 1.270 . S
C499 O510 1.251 . S
C499 O511 1.251 . S
O500 C480 1.257 . S
O500 Eu481 2.473 . S
O501 C480 1.260 . S
O501 Eu481 2.480 . S
O502 Eu481 2.430 . S
O502 C488 1.259 . S
O503 Eu481 2.670 . S
O503 C488 1.270 . S
O503 Eu491 2.355 . S
O504 Eu481 2.394 . S
O504 C489 1.251 . S
O505 C489 1.251 . S
O505 Eu491 2.374 . S
O506 C490 1.257 . S
O506 Eu491 2.473 . S
O507 C490 1.260 . S
O507 Eu491 2.480 . S
O508 Eu491 2.430 . S
O508 C498 1.259 . S
O509 Eu481 2.355 . S
O509 Eu491 2.670 . S
O509 C498 1.270 . S
O510 Eu491 2.394 . S
O510 C499 1.251 . S
O511 Eu481 2.374 . S
O511 C499 1.251 . S
H512 C483 0.931 . S
H513 C484 0.931 . S
H514 C486 0.931 . S
H515 C487 0.931 . S
H516 C493 0.931 . S
H517 C494 0.931 . S
H518 C496 0.931 . S
H519 C497 0.931 . S
C520 Eu521 2.835 . S
C520 C522 1.500 . S
C520 O540 1.257 . S
C520 O541 1.260 . S
Eu521 C520 2.835 . S
Eu521 O540 2.473 . S
Eu521 O541 2.480 . S
Eu521 O542 2.430 1_565 S
Eu521 O543 2.670 . S
Eu521 O544 2.394 . S
Eu521 O549 2.355 . S
Eu521 O551 2.374 1_565 S
C522 C520 1.500 . S
C522 C523 1.377 . S
C522 C527 1.377 . S
C523 C522 1.377 . S
C523 C524 1.395 1_655 S
C523 H552 0.931 1_655 S
C524 C523 1.395 1_455 S
C524 C525 1.383 1_455 S
C524 H553 0.931 . S
C525 C524 1.383 1_655 S
C525 C526 1.394 . S
C526 C525 1.394 . S
C526 C527 1.378 . S
C526 H554 0.931 . S
C527 C522 1.377 . S
C527 C526 1.378 . S
C527 H555 0.931 . S
C528 O542 1.259 1_565 S
C528 O543 1.270 . S
C529 O544 1.251 . S
C529 O545 1.251 . S
C530 Eu531 2.835 . S
C530 C532 1.500 . S
C530 O546 1.257 . S
C530 O547 1.260 . S
Eu531 C530 2.835 . S
Eu531 O543 2.355 . S
Eu531 O545 2.374 . S
Eu531 O546 2.473 . S
Eu531 O547 2.480 . S
Eu531 O548 2.430 . S
Eu531 O549 2.670 . S
Eu531 O550 2.394 1_565 S
C532 C530 1.500 . S
C532 C533 1.377 . S
C532 C537 1.377 1_565 S
C533 C532 1.377 . S
C533 C534 1.395 . S
C533 H556 0.931 . S
C534 C533 1.395 . S
C534 C535 1.383 1_565 S
C534 H557 0.931 . S
C535 C534 1.383 1_545 S
C535 C536 1.394 . S
C536 C535 1.394 . S
C536 C537 1.378 . S
C536 H558 0.931 . S
C537 C532 1.377 1_545 S
C537 C536 1.378 . S
C537 H559 0.931 . S
C538 O548 1.259 . S
C538 O549 1.270 . S
C539 O550 1.251 . S
C539 O551 1.251 . S
O540 C520 1.257 . S
O540 Eu521 2.473 . S
O541 C520 1.260 . S
O541 Eu521 2.480 . S
O542 Eu521 2.430 1_545 S
O542 C528 1.259 1_545 S
O543 Eu521 2.670 . S
O543 C528 1.270 . S
O543 Eu531 2.355 . S
O544 Eu521 2.394 . S
O544 C529 1.251 . S
O545 C529 1.251 . S
O545 Eu531 2.374 . S
O546 C530 1.257 . S
O546 Eu531 2.473 . S
O547 C530 1.260 . S
O547 Eu531 2.480 . S
O548 Eu531 2.430 . S
O548 C538 1.259 . S
O549 Eu521 2.355 . S
O549 Eu531 2.670 . S
O549 C538 1.270 . S
O550 Eu531 2.394 1_545 S
O550 C539 1.251 . S
O551 Eu521 2.374 1_545 S
O551 C539 1.251 . S
H552 C523 0.931 1_455 S
H553 C524 0.931 . S
H554 C526 0.931 . S
H555 C527 0.931 . S
H556 C533 0.931 . S
H557 C534 0.931 . S
H558 C536 0.931 . S
H559 C537 0.931 . S
C560 Eu561 2.835 . S
C560 C562 1.500 . S
C560 O580 1.257 . S
C560 O581 1.260 . S
Eu561 C560 2.835 . S
Eu561 O580 2.473 . S
Eu561 O581 2.480 . S
Eu561 O582 2.430 . S
Eu561 O583 2.670 . S
Eu561 O584 2.394 . S
Eu561 O589 2.355 . S
Eu561 O591 2.374 . S
C562 C560 1.500 . S
C562 C563 1.377 . S
C562 C567 1.377 . S
C563 C562 1.377 . S
C563 C564 1.395 . S
C563 H592 0.931 . S
C564 C563 1.395 . S
C564 C565 1.383 . S
C564 H593 0.931 . S
C565 C564 1.383 . S
C565 C566 1.394 . S
C566 C565 1.394 . S
C566 C567 1.378 . S
C566 H594 0.931 . S
C567 C562 1.377 . S
C567 C566 1.378 . S
C567 H595 0.931 . S
C568 O582 1.259 . S
C568 O583 1.270 . S
C569 O584 1.251 . S
C569 O585 1.251 . S
C570 Eu571 2.835 . S
C570 C572 1.500 . S
C570 O586 1.257 . S
C570 O587 1.260 . S
Eu571 C570 2.835 . S
Eu571 O583 2.355 . S
Eu571 O585 2.374 . S
Eu571 O586 2.473 . S
Eu571 O587 2.480 . S
Eu571 O588 2.430 . S
Eu571 O589 2.670 . S
Eu571 O590 2.394 . S
C572 C570 1.500 . S
C572 C573 1.377 . S
C572 C577 1.377 . S
C573 C572 1.377 . S
C573 C574 1.395 . S
C573 H596 0.931 . S
C574 C573 1.395 . S
C574 C575 1.383 . S
C574 H597 0.931 . S
C575 C574 1.383 . S
C575 C576 1.394 . S
C576 C575 1.394 . S
C576 C577 1.378 . S
C576 H598 0.931 . S
C577 C572 1.377 . S
C577 C576 1.378 . S
C577 H599 0.931 . S
C578 O588 1.259 . S
C578 O589 1.270 . S
C579 O590 1.251 . S
C579 O591 1.251 . S
O580 C560 1.257 . S
O580 Eu561 2.473 . S
O581 C560 1.260 . S
O581 Eu561 2.480 . S
O582 Eu561 2.430 . S
O582 C568 1.259 . S
O583 Eu561 2.670 . S
O583 C568 1.270 . S
O583 Eu571 2.355 . S
O584 Eu561 2.394 . S
O584 C569 1.251 . S
O585 C569 1.251 . S
O585 Eu571 2.374 . S
O586 C570 1.257 . S
O586 Eu571 2.473 . S
O587 C570 1.260 . S
O587 Eu571 2.480 . S
O588 Eu571 2.430 . S
O588 C578 1.259 . S
O589 Eu561 2.355 . S
O589 Eu571 2.670 . S
O589 C578 1.270 . S
O590 Eu571 2.394 . S
O590 C579 1.251 . S
O591 Eu561 2.374 . S
O591 C579 1.251 . S
H592 C563 0.931 . S
H593 C564 0.931 . S
H594 C566 0.931 . S
H595 C567 0.931 . S
H596 C573 0.931 . S
H597 C574 0.931 . S
H598 C576 0.931 . S
H599 C577 0.931 . S
C600 Eu601 2.835 . S
C600 C602 1.500 . S
C600 O620 1.257 . S
C600 O621 1.260 . S
Eu601 C600 2.835 . S
Eu601 O620 2.473 . S
Eu601 O621 2.480 . S
Eu601 O622 2.430 1_545 S
Eu601 O623 2.670 . S
Eu601 O624 2.394 . S
Eu601 O629 2.355 . S
Eu601 O631 2.374 1_545 S
C602 C600 1.500 . S
C602 C603 1.377 . S
C602 C607 1.377 . S
C603 C602 1.377 . S
C603 C604 1.395 . S
C603 H632 0.931 . S
C604 C603 1.395 . S
C604 C605 1.383 . S
C604 H633 0.931 . S
C605 C604 1.383 . S
C605 C606 1.394 . S
C606 C605 1.394 . S
C606 C607 1.378 . S
C606 H634 0.931 . S
C607 C602 1.377 . S
C607 C606 1.378 . S
C607 H635 0.931 . S
C608 O622 1.259 1_545 S
C608 O623 1.270 . S
C609 O624 1.251 . S
C609 O625 1.251 . S
C610 Eu611 2.835 . S
C610 C612 1.500 . S
C610 O626 1.257 . S
C610 O627 1.260 . S
Eu611 C610 2.835 . S
Eu611 O623 2.355 . S
Eu611 O625 2.374 . S
Eu611 O626 2.473 . S
Eu611 O627 2.480 . S
Eu611 O628 2.430 . S
Eu611 O629 2.670 . S
Eu611 O630 2.394 1_545 S
C612 C610 1.500 . S
C612 C613 1.377 . S
C612 C617 1.377 1_545 S
C613 C612 1.377 . S
C613 C614 1.395 . S
C613 H636 0.931 . S
C614 C613 1.395 . S
C614 C615 1.383 1_545 S
C614 H637 0.931 . S
C615 C614 1.383 1_565 S
C615 C616 1.394 . S
C616 C615 1.394 . S
C616 C617 1.378 . S
C616 H638 0.931 . S
C617 C612 1.377 1_565 S
C617 C616 1.378 . S
C617 H639 0.931 . S
C618 O628 1.259 . S
C618 O629 1.270 . S
C619 O630 1.251 . S
C619 O631 1.251 . S
O620 C600 1.257 . S
O620 Eu601 2.473 . S
O621 C600 1.260 . S
O621 Eu601 2.480 . S
O622 Eu601 2.430 1_565 S
O622 C608 1.259 1_565 S
O623 Eu601 2.670 . S
O623 C608 1.270 . S
O623 Eu611 2.355 . S
O624 Eu601 2.394 . S
O624 C609 1.251 . S
O625 C609 1.251 . S
O625 Eu611 2.374 . S
O626 C610 1.257 . S
O626 Eu611 2.473 . S
O627 C610 1.260 . S
O627 Eu611 2.480 . S
O628 Eu611 2.430 . S
O628 C618 1.259 . S
O629 Eu601 2.355 . S
O629 Eu611 2.670 . S
O629 C618 1.270 . S
O630 Eu611 2.394 1_565 S
O630 C619 1.251 . S
O631 Eu601 2.374 1_565 S
O631 C619 1.251 . S
H632 C603 0.931 . S
H633 C604 0.931 . S
H634 C606 0.931 . S
H635 C607 0.931 . S
H636 C613 0.931 . S
H637 C614 0.931 . S
H638 C616 0.931 . S
H639 C617 0.931 . S
H640 C648 0.950 . S
H641 C653 0.950 . S
H642 C650 0.950 . S
H643 C652 0.950 . S
H644 C654 0.950 . S
H645 C656 0.950 . S
H646 C658 0.950 . S
H647 C659 0.950 . S
C648 H640 0.950 . S
C648 C649 1.386 . S
C648 C650 1.391 . S
C649 C648 1.386 . S
C649 C653 1.393 . S
C650 H642 0.950 . S
C650 C648 1.391 . S
C650 C651 1.400 . S
C651 C650 1.400 . S
C651 C652 1.398 . S
C651 C657 1.491 . S
C652 H643 0.950 . S
C652 C651 1.398 . S
C652 C653 1.391 . S
C653 H641 0.950 . S
C653 C649 1.393 . S
C653 C652 1.391 . S
C654 H644 0.950 . S
C654 C655 1.386 . S
C654 C656 1.391 . S
C655 C654 1.386 . S
C655 C659 1.393 . S
C656 H645 0.950 . S
C656 C654 1.391 . S
C656 C657 1.400 . S
C657 C651 1.491 . S
C657 C656 1.400 . S
C657 C658 1.398 . S
C658 H646 0.950 . S
C658 C657 1.398 . S
C658 C659 1.391 . S
C659 H647 0.950 . S
C659 C655 1.393 . S
C659 C658 1.391 . S
H660 C668 0.950 . S
H661 C673 0.950 . S
H662 C670 0.950 . S
H663 C672 0.950 . S
H664 C674 0.950 . S
H665 C676 0.950 . S
H666 C678 0.950 . S
H667 C679 0.950 . S
C668 H660 0.950 . S
C668 C669 1.386 . S
C668 C670 1.391 . S
C669 C668 1.386 . S
C669 C673 1.393 . S
C670 H662 0.950 . S
C670 C668 1.391 . S
C670 C671 1.400 . S
C671 C670 1.400 . S
C671 C672 1.398 . S
C671 C677 1.491 . S
C672 H663 0.950 . S
C672 C671 1.398 . S
C672 C673 1.391 . S
C673 H661 0.950 . S
C673 C669 1.393 . S
C673 C672 1.391 . S
C674 H664 0.950 . S
C674 C675 1.386 . S
C674 C676 1.391 . S
C675 C674 1.386 . S
C675 C679 1.393 . S
C676 H665 0.950 . S
C676 C674 1.391 . S
C676 C677 1.400 . S
C677 C671 1.491 . S
C677 C676 1.400 . S
C677 C678 1.398 . S
C678 H666 0.950 . S
C678 C677 1.398 . S
C678 C679 1.391 . S
C679 H667 0.950 . S
C679 C675 1.393 . S
C679 C678 1.391 . S
H680 C688 0.950 . S
H681 C693 0.950 . S
H682 C690 0.950 . S
H683 C692 0.950 . S
H684 C694 0.950 . S
H685 C696 0.950 . S
H686 C698 0.950 . S
H687 C699 0.950 . S
C688 H680 0.950 . S
C688 C689 1.386 . S
C688 C690 1.391 . S
C689 C688 1.386 . S
C689 C693 1.393 . S
C690 H682 0.950 . S
C690 C688 1.391 . S
C690 C691 1.400 . S
C691 C690 1.400 . S
C691 C692 1.398 . S
C691 C697 1.491 . S
C692 H683 0.950 . S
C692 C691 1.398 . S
C692 C693 1.391 . S
C693 H681 0.950 . S
C693 C689 1.393 . S
C693 C692 1.391 . S
C694 H684 0.950 . S
C694 C695 1.386 . S
C694 C696 1.391 . S
C695 C694 1.386 . S
C695 C699 1.393 . S
C696 H685 0.950 . S
C696 C694 1.391 . S
C696 C697 1.400 . S
C697 C691 1.491 . S
C697 C696 1.400 . S
C697 C698 1.398 . S
C698 H686 0.950 . S
C698 C697 1.398 . S
C698 C699 1.391 . S
C699 H687 0.950 . S
C699 C695 1.393 . S
C699 C698 1.391 . S
H700 C708 0.950 1_554 S
H701 C713 0.950 . S
H702 C710 0.950 . S
H703 C712 0.950 . S
H704 C714 0.950 1_556 S
H705 C716 0.950 . S
H706 C718 0.950 . S
H707 C719 0.950 . S
C708 H700 0.950 1_556 S
C708 C709 1.386 . S
C708 C710 1.391 1_556 S
C709 C708 1.386 . S
C709 C713 1.393 1_455 S
C710 H702 0.950 . S
C710 C708 1.391 1_554 S
C710 C711 1.416 1_554 S
C711 C710 1.416 1_556 S
C711 C712 1.385 1_455 S
C711 C717 1.489 1_456 S
C712 H703 0.950 . S
C712 C711 1.385 1_655 S
C712 C713 1.391 . S
C713 H701 0.950 . S
C713 C709 1.393 1_655 S
C713 C712 1.391 . S
C714 H704 0.950 1_554 S
C714 C715 1.386 . S
C714 C716 1.391 1_554 S
C715 C714 1.386 . S
C715 C719 1.393 1_655 S
C716 H705 0.950 . S
C716 C714 1.391 1_556 S
C716 C717 1.416 1_556 S
C717 C711 1.489 1_654 S
C717 C716 1.416 1_554 S
C717 C718 1.385 1_655 S
C718 H706 0.950 . S
C718 C717 1.385 1_455 S
C718 C719 1.391 . S
C719 H707 0.950 . S
C719 C715 1.393 1_455 S
C719 C718 1.391 . S
H720 C728 0.950 . S
H721 C733 0.950 . S
H722 C730 0.950 . S
H723 C732 0.950 . S
H724 C734 0.950 . S
H725 C736 0.950 . S
H726 C738 0.950 . S
H727 C739 0.950 . S
C728 H720 0.950 . S
C728 C729 1.386 . S
C728 C730 1.391 . S
C729 C728 1.386 . S
C729 C733 1.393 . S
C730 H722 0.950 . S
C730 C728 1.391 . S
C730 C731 1.400 . S
C731 C730 1.400 . S
C731 C732 1.398 . S
C731 C737 1.491 . S
C732 H723 0.950 . S
C732 C731 1.398 . S
C732 C733 1.391 . S
C733 H721 0.950 . S
C733 C729 1.393 . S
C733 C732 1.391 . S
C734 H724 0.950 . S
C734 C735 1.386 . S
C734 C736 1.391 . S
C735 C734 1.386 . S
C735 C739 1.393 . S
C736 H725 0.950 . S
C736 C734 1.391 . S
C736 C737 1.400 . S
C737 C731 1.491 . S
C737 C736 1.400 . S
C737 C738 1.398 . S
C738 H726 0.950 . S
C738 C737 1.398 . S
C738 C739 1.391 . S
C739 H727 0.950 . S
C739 C735 1.393 . S
C739 C738 1.391 . S
H740 C748 0.950 . S
H741 C753 0.950 . S
H742 C750 0.950 . S
H743 C752 0.950 . S
H744 C754 0.950 . S
H745 C756 0.950 . S
H746 C758 0.950 . S
H747 C759 0.950 . S
C748 H740 0.950 . S
C748 C749 1.386 . S
C748 C750 1.391 . S
C749 C748 1.386 . S
C749 C753 1.393 . S
C750 H742 0.950 . S
C750 C748 1.391 . S
C750 C751 1.400 . S
C751 C750 1.400 . S
C751 C752 1.398 . S
C751 C757 1.491 . S
C752 H743 0.950 . S
C752 C751 1.398 . S
C752 C753 1.391 . S
C753 H741 0.950 . S
C753 C749 1.393 . S
C753 C752 1.391 . S
C754 H744 0.950 . S
C754 C755 1.386 . S
C754 C756 1.391 . S
C755 C754 1.386 . S
C755 C759 1.393 . S
C756 H745 0.950 . S
C756 C754 1.391 . S
C756 C757 1.400 . S
C757 C751 1.491 . S
C757 C756 1.400 . S
C757 C758 1.398 . S
C758 H746 0.950 . S
C758 C757 1.398 . S
C758 C759 1.391 . S
C759 H747 0.950 . S
C759 C755 1.393 . S
C759 C758 1.391 . S
H760 C768 0.950 . S
H761 C773 0.950 . S
H762 C770 0.950 . S
H763 C772 0.956 . S
H764 C774 0.950 . S
H765 C776 0.950 . S
H766 C778 0.956 . S
H767 C779 0.950 . S
C768 H760 0.950 . S
C768 C769 1.386 1_655 S
C768 C770 1.391 . S
C769 C768 1.386 1_455 S
C769 C773 1.393 . S
C770 H762 0.950 . S
C770 C768 1.391 . S
C770 C771 1.384 1_655 S
C771 C770 1.384 1_455 S
C771 C772 1.416 . S
C771 C777 1.490 1_464 S
C772 H763 0.956 . S
C772 C771 1.416 . S
C772 C773 1.391 . S
C773 H761 0.950 . S
C773 C769 1.393 . S
C773 C772 1.391 . S
C774 H764 0.950 . S
C774 C775 1.386 1_455 S
C774 C776 1.391 . S
C775 C774 1.386 1_655 S
C775 C779 1.393 . S
C776 H765 0.950 . S
C776 C774 1.391 . S
C776 C777 1.384 1_455 S
C777 C771 1.490 1_646 S
C777 C776 1.384 1_655 S
C777 C778 1.416 . S
C778 H766 0.956 . S
C778 C777 1.416 . S
C778 C779 1.391 . S
C779 H767 0.950 . S
C779 C775 1.393 . S
C779 C778 1.391 . S
H780 C788 0.950 . S
H781 C793 0.950 . S
H782 C790 0.950 . S
H783 C792 0.950 . S
H784 C794 0.950 . S
H785 C796 0.950 . S
H786 C798 0.950 . S
H787 C799 0.950 . S
C788 H780 0.950 . S
C788 C789 1.386 . S
C788 C790 1.391 . S
C789 C788 1.386 . S
C789 C793 1.393 . S
C790 H782 0.950 . S
C790 C788 1.391 . S
C790 C791 1.400 . S
C791 C790 1.400 . S
C791 C792 1.398 . S
C791 C797 1.491 1_565 S
C792 H783 0.950 . S
C792 C791 1.398 . S
C792 C793 1.391 . S
C793 H781 0.950 . S
C793 C789 1.393 . S
C793 C792 1.391 . S
C794 H784 0.950 . S
C794 C795 1.386 . S
C794 C796 1.391 . S
C795 C794 1.386 . S
C795 C799 1.393 . S
C796 H785 0.950 . S
C796 C794 1.391 . S
C796 C797 1.400 . S
C797 C791 1.491 1_545 S
C797 C796 1.400 . S
C797 C798 1.398 . S
C798 H786 0.950 . S
C798 C797 1.398 . S
C798 C799 1.391 . S
C799 H787 0.950 . S
C799 C795 1.393 . S
C799 C798 1.391 . S
H800 C808 0.950 . S
H801 C813 0.950 . S
H802 C810 0.950 . S
H803 C812 0.950 . S
H804 C814 0.950 . S
H805 C816 0.950 . S
H806 C818 0.950 . S
H807 C819 0.950 1_554 S
C808 H800 0.950 . S
C808 C809 1.386 . S
C808 C810 1.391 . S
C809 C808 1.386 . S
C809 C813 1.393 . S
C810 H802 0.950 . S
C810 C808 1.391 . S
C810 C811 1.400 . S
C811 C810 1.400 . S
C811 C812 1.398 . S
C811 C817 1.491 . S
C812 H803 0.950 . S
C812 C811 1.398 . S
C812 C813 1.391 . S
C813 H801 0.950 . S
C813 C809 1.393 . S
C813 C812 1.391 . S
C814 H804 0.950 . S
C814 C815 1.386 . S
C814 C816 1.391 1_554 S
C815 C814 1.386 . S
C815 C819 1.393 1_554 S
C816 H805 0.950 . S
C816 C814 1.391 1_556 S
C816 C817 1.400 . S
C817 C811 1.491 . S
C817 C816 1.400 . S
C817 C818 1.398 . S
C818 H806 0.950 . S
C818 C817 1.398 . S
C818 C819 1.391 . S
C819 H807 0.950 1_556 S
C819 C815 1.393 1_556 S
C819 C818 1.391 . S
H820 C828 0.950 . S
H821 C833 0.950 . S
H822 C830 0.950 . S
H823 C832 0.950 . S
H824 C834 0.950 . S
H825 C836 0.950 . S
H826 C838 0.950 . S
H827 C839 0.950 . S
C828 H820 0.950 . S
C828 C829 1.386 . S
C828 C830 1.391 . S
C829 C828 1.386 . S
C829 C833 1.393 . S
C830 H822 0.950 . S
C830 C828 1.391 . S
C830 C831 1.400 . S
C831 C830 1.400 . S
C831 C832 1.398 . S
C831 C837 1.491 . S
C832 H823 0.950 . S
C832 C831 1.398 . S
C832 C833 1.391 . S
C833 H821 0.950 . S
C833 C829 1.393 . S
C833 C832 1.391 . S
C834 H824 0.950 . S
C834 C835 1.386 . S
C834 C836 1.391 . S
C835 C834 1.386 . S
C835 C839 1.393 . S
C836 H825 0.950 . S
C836 C834 1.391 . S
C836 C837 1.400 . S
C837 C831 1.491 . S
C837 C836 1.400 . S
C837 C838 1.398 . S
C838 H826 0.950 . S
C838 C837 1.398 . S
C838 C839 1.391 . S
C839 H827 0.950 . S
C839 C835 1.393 . S
C839 C838 1.391 . S
H840 C848 0.950 . S
H841 C853 0.950 . S
H842 C850 0.950 . S
H843 C852 0.950 . S
H844 C854 0.950 . S
H845 C856 0.950 . S
H846 C858 0.950 . S
H847 C859 0.950 . S
C848 H840 0.950 . S
C848 C849 1.386 . S
C848 C850 1.391 . S
C849 C848 1.386 . S
C849 C853 1.393 . S
C850 H842 0.950 . S
C850 C848 1.391 . S
C850 C851 1.400 . S
C851 C850 1.400 . S
C851 C852 1.398 . S
C851 C857 1.491 . S
C852 H843 0.950 . S
C852 C851 1.398 . S
C852 C853 1.391 . S
C853 H841 0.950 . S
C853 C849 1.393 . S
C853 C852 1.391 . S
C854 H844 0.950 . S
C854 C855 1.386 . S
C854 C856 1.391 . S
C855 C854 1.386 . S
C855 C859 1.393 . S
C856 H845 0.950 . S
C856 C854 1.391 . S
C856 C857 1.400 . S
C857 C851 1.491 . S
C857 C856 1.400 . S
C857 C858 1.398 . S
C858 H846 0.950 . S
C858 C857 1.398 . S
C858 C859 1.391 . S
C859 H847 0.950 . S
C859 C855 1.393 . S
C859 C858 1.391 . S
H860 C868 0.950 . S
H861 C873 0.950 . S
H862 C870 0.950 . S
H863 C872 0.950 . S
H864 C874 0.950 . S
H865 C876 0.950 . S
H866 C878 0.950 . S
H867 C879 0.950 . S
C868 H860 0.950 . S
C868 C869 1.386 . S
C868 C870 1.391 . S
C869 C868 1.386 . S
C869 C873 1.393 . S
C870 H862 0.950 . S
C870 C868 1.391 . S
C870 C871 1.400 . S
C871 C870 1.400 . S
C871 C872 1.398 . S
C871 C877 1.491 . S
C872 H863 0.950 . S
C872 C871 1.398 . S
C872 C873 1.391 . S
C873 H861 0.950 . S
C873 C869 1.393 . S
C873 C872 1.391 . S
C874 H864 0.950 . S
C874 C875 1.386 . S
C874 C876 1.391 . S
C875 C874 1.386 . S
C875 C879 1.393 . S
C876 H865 0.950 . S
C876 C874 1.391 . S
C876 C877 1.400 . S
C877 C871 1.491 . S
C877 C876 1.400 . S
C877 C878 1.398 . S
C878 H866 0.950 . S
C878 C877 1.398 . S
C878 C879 1.391 . S
C879 H867 0.950 . S
C879 C875 1.393 . S
C879 C878 1.391 . S
H880 C888 0.950 . S
H881 C893 0.950 . S
H882 C890 0.950 . S
H883 C892 0.950 . S
H884 C894 0.950 . S
H885 C896 0.950 . S
H886 C898 0.950 . S
H887 C899 0.948 1_545 S
C888 H880 0.950 . S
C888 C889 1.386 . S
C888 C890 1.391 . S
C889 C888 1.386 . S
C889 C893 1.393 . S
C890 H882 0.950 . S
C890 C888 1.391 . S
C890 C891 1.400 . S
C891 C890 1.400 . S
C891 C892 1.398 . S
C891 C897 1.491 . S
C892 H883 0.950 . S
C892 C891 1.398 . S
C892 C893 1.391 . S
C893 H881 0.950 . S
C893 C889 1.393 . S
C893 C892 1.391 . S
C894 H884 0.950 . S
C894 C895 1.386 . S
C894 C896 1.391 1_556 S
C895 C894 1.386 . S
C895 C899 1.393 1_556 S
C896 H885 0.950 . S
C896 C894 1.391 1_554 S
C896 C897 1.400 . S
C897 C891 1.491 . S
C897 C896 1.400 . S
C897 C898 1.398 . S
C898 H886 0.950 . S
C898 C897 1.398 . S
C898 C899 1.391 . S
C899 H887 0.948 1_565 S
C899 C895 1.393 1_554 S
C899 C898 1.391 . S
H900 C908 0.950 . S
H901 C913 0.950 . S
H902 C910 0.950 . S
H903 C912 0.950 . S
H904 C914 0.950 . S
H905 C916 0.950 . S
H906 C918 0.950 . S
H907 C919 0.950 . S
C908 H900 0.950 . S
C908 C909 1.386 . S
C908 C910 1.391 . S
C909 C908 1.386 . S
C909 C913 1.393 . S
C910 H902 0.950 . S
C910 C908 1.391 . S
C910 C911 1.400 . S
C911 C910 1.400 . S
C911 C912 1.398 . S
C911 C917 1.491 . S
C912 H903 0.950 . S
C912 C911 1.398 . S
C912 C913 1.391 . S
C913 H901 0.950 . S
C913 C909 1.393 . S
C913 C912 1.391 . S
C914 H904 0.950 . S
C914 C915 1.386 . S
C914 C916 1.391 . S
C915 C914 1.386 . S
C915 C919 1.393 . S
C916 H905 0.950 . S
C916 C914 1.391 . S
C916 C917 1.400 . S
C917 C911 1.491 . S
C917 C916 1.400 . S
C917 C918 1.398 . S
C918 H906 0.950 . S
C918 C917 1.398 . S
C918 C919 1.391 . S
C919 H907 0.950 . S
C919 C915 1.393 . S
C919 C918 1.391 . S
H920 C928 0.950 . S
H921 C933 0.950 . S
H922 C930 0.950 . S
H923 C932 0.950 . S
H924 C934 0.950 . S
H925 C936 0.950 . S
H926 C938 0.950 . S
H927 C939 0.950 . S
C928 H920 0.950 . S
C928 C929 1.386 . S
C928 C930 1.391 . S
C929 C928 1.386 . S
C929 C933 1.393 . S
C930 H922 0.950 . S
C930 C928 1.391 . S
C930 C931 1.400 . S
C931 C930 1.400 . S
C931 C932 1.398 . S
C931 C937 1.491 . S
C932 H923 0.950 . S
C932 C931 1.398 . S
C932 C933 1.391 . S
C933 H921 0.950 . S
C933 C929 1.393 . S
C933 C932 1.391 . S
C934 H924 0.950 . S
C934 C935 1.386 . S
C934 C936 1.391 . S
C935 C934 1.386 . S
C935 C939 1.393 . S
C936 H925 0.950 . S
C936 C934 1.391 . S
C936 C937 1.400 . S
C937 C931 1.491 . S
C937 C936 1.400 . S
C937 C938 1.398 . S
C938 H926 0.950 . S
C938 C937 1.398 . S
C938 C939 1.391 . S
C939 H927 0.950 . S
C939 C935 1.393 . S
C939 C938 1.391 . S
H940 C948 0.950 . S
H941 C953 0.950 . S
H942 C950 0.950 . S
H943 C952 0.950 . S
H944 C954 0.950 . S
H945 C956 0.950 . S
H946 C958 0.950 . S
H947 C959 0.950 . S
C948 H940 0.950 . S
C948 C949 1.386 . S
C948 C950 1.391 . S
C949 C948 1.386 . S
C949 C953 1.393 . S
C950 H942 0.950 . S
C950 C948 1.391 . S
C950 C951 1.400 . S
C951 C950 1.400 . S
C951 C952 1.398 . S
C951 C957 1.491 . S
C952 H943 0.950 . S
C952 C951 1.398 . S
C952 C953 1.391 . S
C953 H941 0.950 . S
C953 C949 1.393 . S
C953 C952 1.391 . S
C954 H944 0.950 . S
C954 C955 1.386 . S
C954 C956 1.391 . S
C955 C954 1.386 . S
C955 C959 1.393 . S
C956 H945 0.950 . S
C956 C954 1.391 . S
C956 C957 1.400 . S
C957 C951 1.491 . S
C957 C956 1.400 . S
C957 C958 1.398 . S
C958 H946 0.950 . S
C958 C957 1.398 . S
C958 C959 1.391 . S
C959 H947 0.950 . S
C959 C955 1.393 . S
C959 C958 1.391 . S
H960 C968 0.950 . S
H961 C973 0.950 . S
H962 C970 0.950 . S
H963 C972 0.950 . S
H964 C974 0.950 . S
H965 C976 0.950 . S
H966 C978 0.950 . S
H967 C979 0.950 . S
C968 H960 0.950 . S
C968 C969 1.386 . S
C968 C970 1.391 . S
C969 C968 1.386 . S
C969 C973 1.393 . S
C970 H962 0.950 . S
C970 C968 1.391 . S
C970 C971 1.400 . S
C971 C970 1.400 . S
C971 C972 1.398 . S
C971 C977 1.491 . S
C972 H963 0.950 . S
C972 C971 1.398 . S
C972 C973 1.391 . S
C973 H961 0.950 . S
C973 C969 1.393 . S
C973 C972 1.391 . S
C974 H964 0.950 . S
C974 C975 1.386 . S
C974 C976 1.391 . S
C975 C974 1.386 . S
C975 C979 1.393 . S
C976 H965 0.950 . S
C976 C974 1.391 . S
C976 C977 1.400 . S
C977 C971 1.491 . S
C977 C976 1.400 . S
C977 C978 1.398 . S
C978 H966 0.950 . S
C978 C977 1.398 . S
C978 C979 1.391 . S
C979 H967 0.950 . S
C979 C975 1.393 . S
C979 C978 1.391 . S
H980 C988 0.950 . S
H981 C993 0.950 . S
H982 C990 0.950 . S
H983 C992 0.950 . S
H984 C994 0.950 . S
H985 C996 0.950 . S
H986 C998 0.950 . S
H987 C999 0.950 . S
C988 H980 0.950 . S
C988 C989 1.386 . S
C988 C990 1.391 . S
C989 C988 1.386 . S
C989 C993 1.393 . S
C990 H982 0.950 . S
C990 C988 1.391 . S
C990 C991 1.400 . S
C991 C990 1.400 . S
C991 C992 1.398 . S
C991 C997 1.491 . S
C992 H983 0.950 . S
C992 C991 1.398 . S
C992 C993 1.391 . S
C993 H981 0.950 . S
C993 C989 1.393 . S
C993 C992 1.391 . S
C994 H984 0.950 . S
C994 C995 1.386 . S
C994 C996 1.391 . S
C995 C994 1.386 . S
C995 C999 1.393 . S
C996 H985 0.950 . S
C996 C994 1.391 . S
C996 C997 1.400 . S
C997 C991 1.491 . S
C997 C996 1.400 . S
C997 C998 1.398 . S
C998 H986 0.950 . S
C998 C997 1.398 . S
C998 C999 1.391 . S
C999 H987 0.950 . S
C999 C995 1.393 . S
C999 C998 1.391 . S
H1000 C1008 0.946 1_554 S
H1001 C1013 0.950 . S
H1002 C1010 0.950 . S
H1003 C1012 0.950 . S
H1004 C1014 0.950 . S
H1005 C1016 0.950 . S
H1006 C1018 0.950 . S
H1007 C1019 0.950 . S
C1008 H1000 0.946 1_556 S
C1008 C1009 1.386 1_556 S
C1008 C1010 1.391 . S
C1009 C1008 1.386 1_554 S
C1009 C1013 1.393 . S
C1010 H1002 0.950 . S
C1010 C1008 1.391 . S
C1010 C1011 1.400 . S
C1011 C1010 1.400 . S
C1011 C1012 1.398 . S
C1011 C1017 1.491 . S
C1012 H1003 0.950 . S
C1012 C1011 1.398 . S
C1012 C1013 1.391 1_556 S
C1013 H1001 0.950 . S
C1013 C1009 1.393 . S
C1013 C1012 1.391 1_554 S
C1014 H1004 0.950 . S
C1014 C1015 1.386 . S
C1014 C1016 1.391 . S
C1015 C1014 1.386 . S
C1015 C1019 1.393 . S
C1016 H1005 0.950 . S
C1016 C1014 1.391 . S
C1016 C1017 1.400 . S
C1017 C1011 1.491 . S
C1017 C1016 1.400 . S
C1017 C1018 1.398 . S
C1018 H1006 0.950 . S
C1018 C1017 1.398 . S
C1018 C1019 1.391 . S
C1019 H1007 0.950 . S
C1019 C1015 1.393 . S
C1019 C1018 1.391 . S
H1020 C1028 0.950 . S
H1021 C1033 0.950 . S
H1022 C1030 0.950 1_565 S
H1023 C1032 0.950 . S
H1024 C1034 0.950 . S
H1025 C1036 0.950 . S
H1026 C1038 0.950 1_565 S
H1027 C1039 0.950 . S
C1028 H1020 0.950 . S
C1028 C1029 1.386 . S
C1028 C1030 1.391 . S
C1029 C1028 1.386 . S
C1029 C1033 1.393 . S
C1030 H1022 0.950 1_545 S
C1030 C1028 1.391 . S
C1030 C1031 1.400 . S
C1031 C1030 1.400 . S
C1031 C1032 1.398 . S
C1031 C1037 1.491 . S
C1032 H1023 0.950 . S
C1032 C1031 1.398 . S
C1032 C1033 1.391 . S
C1033 H1021 0.950 . S
C1033 C1029 1.393 . S
C1033 C1032 1.391 . S
C1034 H1024 0.950 . S
C1034 C1035 1.386 . S
C1034 C1036 1.391 . S
C1035 C1034 1.386 . S
C1035 C1039 1.393 1_545 S
C1036 H1025 0.950 . S
C1036 C1034 1.391 . S
C1036 C1037 1.400 . S
C1037 C1031 1.491 . S
C1037 C1036 1.400 . S
C1037 C1038 1.398 . S
C1038 H1026 0.950 1_545 S
C1038 C1037 1.398 . S
C1038 C1039 1.391 1_545 S
C1039 H1027 0.950 . S
C1039 C1035 1.393 1_565 S
C1039 C1038 1.391 1_565 S
H1040 C1048 0.950 . S
H1041 C1053 0.950 . S
H1042 C1050 0.950 . S
H1043 C1052 0.950 . S
H1044 C1054 0.950 . S
H1045 C1056 0.950 . S
H1046 C1058 0.950 . S
H1047 C1059 0.950 . S
C1048 H1040 0.950 . S
C1048 C1049 1.386 . S
C1048 C1050 1.391 . S
C1049 C1048 1.386 . S
C1049 C1053 1.393 . S
C1050 H1042 0.950 . S
C1050 C1048 1.391 . S
C1050 C1051 1.400 . S
C1051 C1050 1.400 . S
C1051 C1052 1.398 . S
C1051 C1057 1.491 . S
C1052 H1043 0.950 . S
C1052 C1051 1.398 . S
C1052 C1053 1.391 . S
C1053 H1041 0.950 . S
C1053 C1049 1.393 . S
C1053 C1052 1.391 . S
C1054 H1044 0.950 . S
C1054 C1055 1.386 . S
C1054 C1056 1.391 . S
C1055 C1054 1.386 . S
C1055 C1059 1.393 . S
C1056 H1045 0.950 . S
C1056 C1054 1.391 . S
C1056 C1057 1.400 . S
C1057 C1051 1.491 . S
C1057 C1056 1.400 . S
C1057 C1058 1.398 . S
C1058 H1046 0.950 . S
C1058 C1057 1.398 . S
C1058 C1059 1.391 . S
C1059 H1047 0.950 . S
C1059 C1055 1.393 . S
C1059 C1058 1.391 . S
H1060 C1068 0.937 1_565 S
H1061 C1073 0.950 . S
H1062 C1070 0.950 1_565 S
H1063 C1072 0.950 . S
H1064 C1074 0.950 . S
H1065 C1076 0.950 . S
H1066 C1078 0.950 1_565 S
H1067 C1079 0.950 . S
C1068 H1060 0.937 1_545 S
C1068 C1069 1.396 . S
C1068 C1070 1.394 . S
C1069 C1068 1.396 . S
C1069 C1073 1.393 . S
C1070 H1062 0.950 1_545 S
C1070 C1068 1.394 . S
C1070 C1071 1.400 . S
C1071 C1070 1.400 . S
C1071 C1072 1.398 . S
C1071 C1077 1.491 . S
C1072 H1063 0.950 . S
C1072 C1071 1.398 . S
C1072 C1073 1.391 . S
C1073 H1061 0.950 . S
C1073 C1069 1.393 . S
C1073 C1072 1.391 . S
C1074 H1064 0.950 . S
C1074 C1075 1.386 . S
C1074 C1076 1.391 . S
C1075 C1074 1.386 . S
C1075 C1079 1.393 . S
C1076 H1065 0.950 . S
C1076 C1074 1.391 . S
C1076 C1077 1.400 . S
C1077 C1071 1.491 . S
C1077 C1076 1.400 . S
C1077 C1078 1.398 . S
C1078 H1066 0.950 1_545 S
C1078 C1077 1.398 . S
C1078 C1079 1.391 . S
C1079 H1067 0.950 . S
C1079 C1075 1.393 . S
C1079 C1078 1.391 . S
H1080 C1088 0.950 . S
H1081 C1093 0.950 . S
H1082 C1090 0.950 . S
H1083 C1092 0.950 . S
H1084 C1094 0.950 . S
H1085 C1096 0.950 . S
H1086 C1098 0.950 . S
H1087 C1099 0.948 . S
C1088 H1080 0.950 . S
C1088 C1089 1.386 . S
C1088 C1090 1.391 . S
C1089 C1088 1.386 . S
C1089 C1093 1.393 . S
C1090 H1082 0.950 . S
C1090 C1088 1.391 . S
C1090 C1091 1.400 . S
C1091 C1090 1.400 . S
C1091 C1092 1.398 . S
C1091 C1097 1.491 . S
C1092 H1083 0.950 . S
C1092 C1091 1.398 . S
C1092 C1093 1.391 . S
C1093 H1081 0.950 . S
C1093 C1089 1.393 . S
C1093 C1092 1.391 . S
C1094 H1084 0.950 . S
C1094 C1095 1.386 . S
C1094 C1096 1.391 1_556 S
C1095 C1094 1.386 . S
C1095 C1099 1.393 1_556 S
C1096 H1085 0.950 . S
C1096 C1094 1.391 1_554 S
C1096 C1097 1.400 . S
C1097 C1091 1.491 . S
C1097 C1096 1.400 . S
C1097 C1098 1.398 . S
C1098 H1086 0.950 . S
C1098 C1097 1.398 . S
C1098 C1099 1.391 . S
C1099 H1087 0.948 . S
C1099 C1095 1.393 1_554 S
C1099 C1098 1.391 . S
H1100 C1108 0.950 . S
H1101 C1113 0.950 . S
H1102 C1110 0.950 . S
H1103 C1112 0.950 . S
H1104 C1114 0.950 . S
H1105 C1116 0.950 . S
H1106 C1118 0.950 . S
H1107 C1119 0.950 . S
C1108 H1100 0.950 . S
C1108 C1109 1.386 . S
C1108 C1110 1.391 . S
C1109 C1108 1.386 . S
C1109 C1113 1.393 . S
C1110 H1102 0.950 . S
C1110 C1108 1.391 . S
C1110 C1111 1.400 . S
C1111 C1110 1.400 . S
C1111 C1112 1.398 . S
C1111 C1117 1.491 . S
C1112 H1103 0.950 . S
C1112 C1111 1.398 . S
C1112 C1113 1.391 . S
C1113 H1101 0.950 . S
C1113 C1109 1.393 . S
C1113 C1112 1.391 . S
C1114 H1104 0.950 . S
C1114 C1115 1.386 . S
C1114 C1116 1.391 . S
C1115 C1114 1.386 . S
C1115 C1119 1.393 . S
C1116 H1105 0.950 . S
C1116 C1114 1.391 . S
C1116 C1117 1.400 . S
C1117 C1111 1.491 . S
C1117 C1116 1.400 . S
C1117 C1118 1.398 . S
C1118 H1106 0.950 . S
C1118 C1117 1.398 . S
C1118 C1119 1.391 . S
C1119 H1107 0.950 . S
C1119 C1115 1.393 . S
C1119 C1118 1.391 . S
H1120 C1128 0.950 . S
H1121 C1133 0.950 . S
H1122 C1130 0.950 . S
H1123 C1132 0.950 . S
H1124 C1134 0.950 . S
H1125 C1136 0.950 . S
H1126 C1138 0.950 . S
H1127 C1139 0.950 . S
C1128 H1120 0.950 . S
C1128 C1129 1.386 . S
C1128 C1130 1.391 . S
C1129 C1128 1.386 . S
C1129 C1133 1.393 . S
C1130 H1122 0.950 . S
C1130 C1128 1.391 . S
C1130 C1131 1.400 . S
C1131 C1130 1.400 . S
C1131 C1132 1.398 . S
C1131 C1137 1.491 . S
C1132 H1123 0.950 . S
C1132 C1131 1.398 . S
C1132 C1133 1.391 . S
C1133 H1121 0.950 . S
C1133 C1129 1.393 . S
C1133 C1132 1.391 . S
C1134 H1124 0.950 . S
C1134 C1135 1.386 . S
C1134 C1136 1.391 . S
C1135 C1134 1.386 . S
C1135 C1139 1.393 . S
C1136 H1125 0.950 . S
C1136 C1134 1.391 . S
C1136 C1137 1.400 . S
C1137 C1131 1.491 . S
C1137 C1136 1.400 . S
C1137 C1138 1.398 . S
C1138 H1126 0.950 . S
C1138 C1137 1.398 . S
C1138 C1139 1.391 . S
C1139 H1127 0.950 . S
C1139 C1135 1.393 . S
C1139 C1138 1.391 . S
H1140 C1148 0.950 . S
H1141 C1153 0.950 . S
H1142 C1150 0.950 . S
H1143 C1152 0.950 . S
H1144 C1154 0.950 . S
H1145 C1156 0.950 . S
H1146 C1158 0.950 . S
H1147 C1159 0.950 . S
C1148 H1140 0.950 . S
C1148 C1149 1.386 . S
C1148 C1150 1.391 . S
C1149 C1148 1.386 . S
C1149 C1153 1.393 . S
C1150 H1142 0.950 . S
C1150 C1148 1.391 . S
C1150 C1151 1.400 . S
C1151 C1150 1.400 . S
C1151 C1152 1.398 . S
C1151 C1157 1.491 . S
C1152 H1143 0.950 . S
C1152 C1151 1.398 . S
C1152 C1153 1.391 . S
C1153 H1141 0.950 . S
C1153 C1149 1.393 . S
C1153 C1152 1.391 . S
C1154 H1144 0.950 . S
C1154 C1155 1.386 . S
C1154 C1156 1.391 . S
C1155 C1154 1.386 . S
C1155 C1159 1.393 . S
C1156 H1145 0.950 . S
C1156 C1154 1.391 . S
C1156 C1157 1.400 . S
C1157 C1151 1.491 . S
C1157 C1156 1.400 . S
C1157 C1158 1.398 . S
C1158 H1146 0.950 . S
C1158 C1157 1.398 . S
C1158 C1159 1.391 . S
C1159 H1147 0.950 . S
C1159 C1155 1.393 . S
C1159 C1158 1.391 . S
H1160 C1168 0.950 . S
H1161 C1173 0.950 . S
H1162 C1170 0.950 . S
H1163 C1172 0.950 . S
H1164 C1174 0.950 . S
H1165 C1176 0.950 . S
H1166 C1178 0.950 . S
H1167 C1179 0.950 . S
C1168 H1160 0.950 . S
C1168 C1169 1.386 . S
C1168 C1170 1.391 . S
C1169 C1168 1.386 . S
C1169 C1173 1.393 . S
C1170 H1162 0.950 . S
C1170 C1168 1.391 . S
C1170 C1171 1.400 . S
C1171 C1170 1.400 . S
C1171 C1172 1.398 . S
C1171 C1177 1.491 1_655 S
C1172 H1163 0.950 . S
C1172 C1171 1.398 . S
C1172 C1173 1.391 . S
C1173 H1161 0.950 . S
C1173 C1169 1.393 . S
C1173 C1172 1.391 . S
C1174 H1164 0.950 . S
C1174 C1175 1.386 . S
C1174 C1176 1.391 . S
C1175 C1174 1.386 . S
C1175 C1179 1.393 . S
C1176 H1165 0.950 . S
C1176 C1174 1.391 . S
C1176 C1177 1.400 . S
C1177 C1171 1.491 1_455 S
C1177 C1176 1.400 . S
C1177 C1178 1.398 . S
C1178 H1166 0.950 . S
C1178 C1177 1.398 . S
C1178 C1179 1.391 . S
C1179 H1167 0.950 . S
C1179 C1175 1.393 . S
C1179 C1178 1.391 . S
H1180 C1188 0.950 . S
H1181 C1193 0.950 . S
H1182 C1190 0.950 . S
H1183 C1192 0.950 . S
H1184 C1194 0.950 . S
H1185 C1196 0.950 . S
H1186 C1198 0.950 . S
H1187 C1199 0.950 . S
C1188 H1180 0.950 . S
C1188 C1189 1.386 . S
C1188 C1190 1.391 1_655 S
C1189 C1188 1.386 . S
C1189 C1193 1.393 . S
C1190 H1182 0.950 . S
C1190 C1188 1.391 1_455 S
C1190 C1191 1.400 1_455 S
C1191 C1190 1.400 1_655 S
C1191 C1192 1.398 . S
C1191 C1197 1.491 1_655 S
C1192 H1183 0.950 . S
C1192 C1191 1.398 . S
C1192 C1193 1.391 . S
C1193 H1181 0.950 . S
C1193 C1189 1.393 . S
C1193 C1192 1.391 . S
C1194 H1184 0.950 . S
C1194 C1195 1.386 . S
C1194 C1196 1.391 1_455 S
C1195 C1194 1.386 . S
C1195 C1199 1.393 . S
C1196 H1185 0.950 . S
C1196 C1194 1.391 1_655 S
C1196 C1197 1.400 1_655 S
C1197 C1191 1.491 1_455 S
C1197 C1196 1.400 1_455 S
C1197 C1198 1.398 . S
C1198 H1186 0.950 . S
C1198 C1197 1.398 . S
C1198 C1199 1.391 . S
C1199 H1187 0.950 . S
C1199 C1195 1.393 . S
C1199 C1198 1.391 . S
H1200 C1208 0.950 . S
H1201 C1213 0.950 . S
H1202 C1210 0.950 . S
H1203 C1212 0.950 . S
H1204 C1214 0.950 . S
H1205 C1216 0.950 . S
H1206 C1218 0.950 . S
H1207 C1219 0.950 . S
C1208 H1200 0.950 . S
C1208 C1209 1.386 . S
C1208 C1210 1.391 . S
C1209 C1208 1.386 . S
C1209 C1213 1.393 . S
C1210 H1202 0.950 . S
C1210 C1208 1.391 . S
C1210 C1211 1.400 . S
C1211 C1210 1.400 . S
C1211 C1212 1.398 . S
C1211 C1217 1.491 . S
C1212 H1203 0.950 . S
C1212 C1211 1.398 . S
C1212 C1213 1.391 . S
C1213 H1201 0.950 . S
C1213 C1209 1.393 . S
C1213 C1212 1.391 . S
C1214 H1204 0.950 . S
C1214 C1215 1.386 . S
C1214 C1216 1.391 . S
C1215 C1214 1.386 . S
C1215 C1219 1.393 . S
C1216 H1205 0.950 . S
C1216 C1214 1.391 . S
C1216 C1217 1.400 . S
C1217 C1211 1.491 . S
C1217 C1216 1.400 . S
C1217 C1218 1.398 . S
C1218 H1206 0.950 . S
C1218 C1217 1.398 . S
C1218 C1219 1.391 . S
C1219 H1207 0.950 . S
C1219 C1215 1.393 . S
C1219 C1218 1.391 . S
H1220 C1228 0.950 . S
H1221 C1233 0.950 . S
H1222 C1230 0.950 . S
H1223 C1232 0.950 . S
H1224 C1234 0.950 . S
H1225 C1236 0.950 . S
H1226 C1238 0.950 . S
H1227 C1239 0.950 . S
C1228 H1220 0.950 . S
C1228 C1229 1.386 . S
C1228 C1230 1.391 . S
C1229 C1228 1.386 . S
C1229 C1233 1.393 . S
C1230 H1222 0.950 . S
C1230 C1228 1.391 . S
C1230 C1231 1.400 . S
C1231 C1230 1.400 . S
C1231 C1232 1.398 . S
C1231 C1237 1.491 . S
C1232 H1223 0.950 . S
C1232 C1231 1.398 . S
C1232 C1233 1.391 . S
C1233 H1221 0.950 . S
C1233 C1229 1.393 . S
C1233 C1232 1.391 . S
C1234 H1224 0.950 . S
C1234 C1235 1.386 . S
C1234 C1236 1.391 . S
C1235 C1234 1.386 . S
C1235 C1239 1.393 . S
C1236 H1225 0.950 . S
C1236 C1234 1.391 . S
C1236 C1237 1.400 . S
C1237 C1231 1.491 . S
C1237 C1236 1.400 . S
C1237 C1238 1.398 . S
C1238 H1226 0.950 . S
C1238 C1237 1.398 . S
C1238 C1239 1.391 . S
C1239 H1227 0.950 . S
C1239 C1235 1.393 . S
C1239 C1238 1.391 . S
H1240 C1248 0.950 . S
H1241 C1253 0.950 . S
H1242 C1250 0.950 . S
H1243 C1252 0.950 . S
H1244 C1254 0.950 . S
H1245 C1256 0.950 . S
H1246 C1258 0.950 . S
H1247 C1259 0.950 . S
C1248 H1240 0.950 . S
C1248 C1249 1.386 . S
C1248 C1250 1.391 . S
C1249 C1248 1.386 . S
C1249 C1253 1.393 . S
C1250 H1242 0.950 . S
C1250 C1248 1.391 . S
C1250 C1251 1.400 . S
C1251 C1250 1.400 . S
C1251 C1252 1.398 . S
C1251 C1257 1.491 1_455 S
C1252 H1243 0.950 . S
C1252 C1251 1.398 . S
C1252 C1253 1.391 . S
C1253 H1241 0.950 . S
C1253 C1249 1.393 . S
C1253 C1252 1.391 . S
C1254 H1244 0.950 . S
C1254 C1255 1.386 . S
C1254 C1256 1.391 . S
C1255 C1254 1.386 . S
C1255 C1259 1.393 . S
C1256 H1245 0.950 . S
C1256 C1254 1.391 . S
C1256 C1257 1.400 . S
C1257 C1251 1.491 1_655 S
C1257 C1256 1.400 . S
C1257 C1258 1.398 . S
C1258 H1246 0.950 . S
C1258 C1257 1.398 . S
C1258 C1259 1.391 . S
C1259 H1247 0.950 . S
C1259 C1255 1.393 . S
C1259 C1258 1.391 . S
H1260 C1268 0.950 . S
H1261 C1273 0.950 1_655 S
H1262 C1270 0.950 . S
H1263 C1272 0.950 . S
H1264 C1274 0.950 . S
H1265 C1276 0.950 . S
H1266 C1278 0.950 . S
H1267 C1279 0.950 1_455 S
C1268 H1260 0.950 . S
C1268 C1269 1.386 . S
C1268 C1270 1.391 . S
C1269 C1268 1.386 . S
C1269 C1273 1.393 . S
C1270 H1262 0.950 . S
C1270 C1268 1.391 . S
C1270 C1271 1.400 . S
C1271 C1270 1.400 . S
C1271 C1272 1.398 1_455 S
C1271 C1277 1.491 1_455 S
C1272 H1263 0.950 . S
C1272 C1271 1.398 1_655 S
C1272 C1273 1.391 1_655 S
C1273 H1261 0.950 1_455 S
C1273 C1269 1.393 . S
C1273 C1272 1.391 1_455 S
C1274 H1264 0.950 . S
C1274 C1275 1.386 . S
C1274 C1276 1.391 . S
C1275 C1274 1.386 . S
C1275 C1279 1.393 . S
C1276 H1265 0.950 . S
C1276 C1274 1.391 . S
C1276 C1277 1.400 . S
C1277 C1271 1.491 1_655 S
C1277 C1276 1.400 . S
C1277 C1278 1.398 1_655 S
C1278 H1266 0.950 . S
C1278 C1277 1.398 1_455 S
C1278 C1279 1.391 1_455 S
C1279 H1267 0.950 1_655 S
C1279 C1275 1.393 . S
C1279 C1278 1.391 1_655 S
H1280 C1288 0.950 . S
H1281 C1293 0.950 . S
H1282 C1290 0.950 . S
H1283 C1292 0.950 . S
H1284 C1294 0.950 . S
H1285 C1296 0.950 . S
H1286 C1298 0.950 . S
H1287 C1299 0.950 . S
C1288 H1280 0.950 . S
C1288 C1289 1.386 . S
C1288 C1290 1.391 . S
C1289 C1288 1.386 . S
C1289 C1293 1.393 . S
C1290 H1282 0.950 . S
C1290 C1288 1.391 . S
C1290 C1291 1.400 . S
C1291 C1290 1.400 . S
C1291 C1292 1.398 . S
C1291 C1297 1.491 . S
C1292 H1283 0.950 . S
C1292 C1291 1.398 . S
C1292 C1293 1.391 . S
C1293 H1281 0.950 . S
C1293 C1289 1.393 . S
C1293 C1292 1.391 . S
C1294 H1284 0.950 . S
C1294 C1295 1.386 . S
C1294 C1296 1.391 . S
C1295 C1294 1.386 . S
C1295 C1299 1.393 . S
C1296 H1285 0.950 . S
C1296 C1294 1.391 . S
C1296 C1297 1.400 . S
C1297 C1291 1.491 . S
C1297 C1296 1.400 . S
C1297 C1298 1.398 . S
C1298 H1286 0.950 . S
C1298 C1297 1.398 . S
C1298 C1299 1.391 . S
C1299 H1287 0.950 . S
C1299 C1295 1.393 . S
C1299 C1298 1.391 . S
H1300 C1308 0.950 . S
H1301 C1313 0.950 . S
H1302 C1310 0.950 . S
H1303 C1312 0.950 . S
H1304 C1314 0.950 . S
H1305 C1316 0.950 . S
H1306 C1318 0.950 . S
H1307 C1319 0.950 . S
C1308 H1300 0.950 . S
C1308 C1309 1.386 . S
C1308 C1310 1.391 . S
C1309 C1308 1.386 . S
C1309 C1313 1.393 . S
C1310 H1302 0.950 . S
C1310 C1308 1.391 . S
C1310 C1311 1.400 . S
C1311 C1310 1.400 . S
C1311 C1312 1.398 . S
C1311 C1317 1.491 . S
C1312 H1303 0.950 . S
C1312 C1311 1.398 . S
C1312 C1313 1.391 . S
C1313 H1301 0.950 . S
C1313 C1309 1.393 . S
C1313 C1312 1.391 . S
C1314 H1304 0.950 . S
C1314 C1315 1.386 . S
C1314 C1316 1.391 . S
C1315 C1314 1.386 . S
C1315 C1319 1.393 . S
C1316 H1305 0.950 . S
C1316 C1314 1.391 . S
C1316 C1317 1.400 . S
C1317 C1311 1.491 . S
C1317 C1316 1.400 . S
C1317 C1318 1.398 . S
C1318 H1306 0.950 . S
C1318 C1317 1.398 . S
C1318 C1319 1.391 . S
C1319 H1307 0.950 . S
C1319 C1315 1.393 . S
C1319 C1318 1.391 . S
H1320 C1328 0.950 . S
H1321 C1333 0.950 . S
H1322 C1330 0.950 . S
H1323 C1332 0.950 . S
H1324 C1334 0.950 . S
H1325 C1336 0.950 . S
H1326 C1338 0.950 . S
H1327 C1339 0.950 . S
C1328 H1320 0.950 . S
C1328 C1329 1.386 . S
C1328 C1330 1.391 . S
C1329 C1328 1.386 . S
C1329 C1333 1.393 . S
C1330 H1322 0.950 . S
C1330 C1328 1.391 . S
C1330 C1331 1.400 . S
C1331 C1330 1.400 . S
C1331 C1332 1.398 . S
C1331 C1337 1.491 . S
C1332 H1323 0.950 . S
C1332 C1331 1.398 . S
C1332 C1333 1.391 . S
C1333 H1321 0.950 . S
C1333 C1329 1.393 . S
C1333 C1332 1.391 . S
C1334 H1324 0.950 . S
C1334 C1335 1.386 . S
C1334 C1336 1.391 . S
C1335 C1334 1.386 . S
C1335 C1339 1.393 . S
C1336 H1325 0.950 . S
C1336 C1334 1.391 . S
C1336 C1337 1.400 . S
C1337 C1331 1.491 . S
C1337 C1336 1.400 . S
C1337 C1338 1.398 . S
C1338 H1326 0.950 . S
C1338 C1337 1.398 . S
C1338 C1339 1.391 . S
C1339 H1327 0.950 . S
C1339 C1335 1.393 . S
C1339 C1338 1.391 . S
H1340 C1348 0.950 . S
H1341 C1353 0.950 . S
H1342 C1350 0.950 . S
H1343 C1352 0.950 . S
H1344 C1354 0.950 . S
H1345 C1356 0.950 . S
H1346 C1358 0.950 . S
H1347 C1359 0.950 . S
C1348 H1340 0.950 . S
C1348 C1349 1.386 . S
C1348 C1350 1.391 1_655 S
C1349 C1348 1.386 . S
C1349 C1353 1.393 1_655 S
C1350 H1342 0.950 . S
C1350 C1348 1.391 1_455 S
C1350 C1351 1.400 . S
C1351 C1350 1.400 . S
C1351 C1352 1.398 . S
C1351 C1357 1.491 . S
C1352 H1343 0.950 . S
C1352 C1351 1.398 . S
C1352 C1353 1.391 . S
C1353 H1341 0.950 . S
C1353 C1349 1.393 1_455 S
C1353 C1352 1.391 . S
C1354 H1344 0.950 . S
C1354 C1355 1.386 . S
C1354 C1356 1.391 . S
C1355 C1354 1.386 . S
C1355 C1359 1.393 . S
C1356 H1345 0.950 . S
C1356 C1354 1.391 . S
C1356 C1357 1.400 . S
C1357 C1351 1.491 . S
C1357 C1356 1.400 . S
C1357 C1358 1.398 . S
C1358 H1346 0.950 . S
C1358 C1357 1.398 . S
C1358 C1359 1.391 . S
C1359 H1347 0.950 . S
C1359 C1355 1.393 . S
C1359 C1358 1.391 . S
H1360 C1368 0.950 . S
H1361 C1373 0.950 . S
H1362 C1370 0.950 . S
H1363 C1372 0.950 . S
H1364 C1374 0.950 . S
H1365 C1376 0.950 . S
H1366 C1378 0.950 . S
H1367 C1379 0.950 . S
C1368 H1360 0.950 . S
C1368 C1369 1.386 . S
C1368 C1370 1.391 . S
C1369 C1368 1.386 . S
C1369 C1373 1.393 . S
C1370 H1362 0.950 . S
C1370 C1368 1.391 . S
C1370 C1371 1.400 . S
C1371 C1370 1.400 . S
C1371 C1372 1.398 . S
C1371 C1377 1.491 . S
C1372 H1363 0.950 . S
C1372 C1371 1.398 . S
C1372 C1373 1.391 . S
C1373 H1361 0.950 . S
C1373 C1369 1.393 . S
C1373 C1372 1.391 . S
C1374 H1364 0.950 . S
C1374 C1375 1.386 . S
C1374 C1376 1.391 . S
C1375 C1374 1.386 . S
C1375 C1379 1.393 . S
C1376 H1365 0.950 . S
C1376 C1374 1.391 . S
C1376 C1377 1.400 . S
C1377 C1371 1.491 . S
C1377 C1376 1.400 . S
C1377 C1378 1.398 . S
C1378 H1366 0.950 . S
C1378 C1377 1.398 . S
C1378 C1379 1.391 . S
C1379 H1367 0.950 . S
C1379 C1375 1.393 . S
C1379 C1378 1.391 . S
H1380 C1388 0.950 . S
H1381 C1393 0.950 . S
H1382 C1390 0.950 . S
H1383 C1392 0.950 . S
H1384 C1394 0.950 . S
H1385 C1396 0.950 . S
H1386 C1398 0.950 . S
H1387 C1399 0.950 . S
C1388 H1380 0.950 . S
C1388 C1389 1.386 . S
C1388 C1390 1.391 . S
C1389 C1388 1.386 . S
C1389 C1393 1.393 . S
C1390 H1382 0.950 . S
C1390 C1388 1.391 . S
C1390 C1391 1.400 . S
C1391 C1390 1.400 . S
C1391 C1392 1.398 . S
C1391 C1397 1.491 . S
C1392 H1383 0.950 . S
C1392 C1391 1.398 . S
C1392 C1393 1.391 . S
C1393 H1381 0.950 . S
C1393 C1389 1.393 . S
C1393 C1392 1.391 . S
C1394 H1384 0.950 . S
C1394 C1395 1.386 . S
C1394 C1396 1.391 . S
C1395 C1394 1.386 . S
C1395 C1399 1.393 . S
C1396 H1385 0.950 . S
C1396 C1394 1.391 . S
C1396 C1397 1.400 . S
C1397 C1391 1.491 . S
C1397 C1396 1.400 . S
C1397 C1398 1.398 . S
C1398 H1386 0.950 . S
C1398 C1397 1.398 . S
C1398 C1399 1.391 . S
C1399 H1387 0.950 . S
C1399 C1395 1.393 . S
C1399 C1398 1.391 . S
H1400 C1408 0.950 . S
H1401 C1413 0.950 . S
H1402 C1410 0.950 . S
H1403 C1412 0.950 . S
H1404 C1414 0.950 . S
H1405 C1416 0.950 . S
H1406 C1418 0.950 . S
H1407 C1419 0.950 . S
C1408 H1400 0.950 . S
C1408 C1409 1.386 . S
C1408 C1410 1.391 . S
C1409 C1408 1.386 . S
C1409 C1413 1.393 . S
C1410 H1402 0.950 . S
C1410 C1408 1.391 . S
C1410 C1411 1.400 . S
C1411 C1410 1.400 . S
C1411 C1412 1.398 . S
C1411 C1417 1.491 . S
C1412 H1403 0.950 . S
C1412 C1411 1.398 . S
C1412 C1413 1.391 . S
C1413 H1401 0.950 . S
C1413 C1409 1.393 . S
C1413 C1412 1.391 . S
C1414 H1404 0.950 . S
C1414 C1415 1.386 . S
C1414 C1416 1.391 . S
C1415 C1414 1.386 . S
C1415 C1419 1.393 . S
C1416 H1405 0.950 . S
C1416 C1414 1.391 . S
C1416 C1417 1.400 . S
C1417 C1411 1.491 . S
C1417 C1416 1.400 . S
C1417 C1418 1.398 . S
C1418 H1406 0.950 . S
C1418 C1417 1.398 . S
C1418 C1419 1.391 . S
C1419 H1407 0.950 . S
C1419 C1415 1.393 . S
C1419 C1418 1.391 . S
H1420 C1428 0.950 . S
H1421 C1433 0.950 . S
H1422 C1430 0.950 . S
H1423 C1432 0.950 . S
H1424 C1434 0.950 . S
H1425 C1436 0.950 . S
H1426 C1438 0.950 . S
H1427 C1439 0.950 . S
C1428 H1420 0.950 . S
C1428 C1429 1.386 . S
C1428 C1430 1.391 . S
C1429 C1428 1.386 . S
C1429 C1433 1.393 . S
C1430 H1422 0.950 . S
C1430 C1428 1.391 . S
C1430 C1431 1.400 . S
C1431 C1430 1.400 . S
C1431 C1432 1.398 . S
C1431 C1437 1.491 . S
C1432 H1423 0.950 . S
C1432 C1431 1.398 . S
C1432 C1433 1.391 . S
C1433 H1421 0.950 . S
C1433 C1429 1.393 . S
C1433 C1432 1.391 . S
C1434 H1424 0.950 . S
C1434 C1435 1.386 . S
C1434 C1436 1.391 1_455 S
C1435 C1434 1.386 . S
C1435 C1439 1.393 1_455 S
C1436 H1425 0.950 . S
C1436 C1434 1.391 1_655 S
C1436 C1437 1.400 . S
C1437 C1431 1.491 . S
C1437 C1436 1.400 . S
C1437 C1438 1.398 . S
C1438 H1426 0.950 . S
C1438 C1437 1.398 . S
C1438 C1439 1.391 . S
C1439 H1427 0.950 . S
C1439 C1435 1.393 1_655 S
C1439 C1438 1.391 . S
H1440 C1448 0.950 . S
H1441 C1453 0.950 . S
H1442 C1450 0.950 . S
H1443 C1452 0.950 . S
H1444 C1454 0.950 . S
H1445 C1456 0.950 . S
H1446 C1458 0.950 . S
H1447 C1459 0.950 . S
C1448 H1440 0.950 . S
C1448 C1449 1.386 . S
C1448 C1450 1.391 . S
C1449 C1448 1.386 . S
C1449 C1453 1.393 . S
C1450 H1442 0.950 . S
C1450 C1448 1.391 . S
C1450 C1451 1.400 . S
C1451 C1450 1.400 . S
C1451 C1452 1.398 . S
C1451 C1457 1.491 . S
C1452 H1443 0.950 . S
C1452 C1451 1.398 . S
C1452 C1453 1.391 . S
C1453 H1441 0.950 . S
C1453 C1449 1.393 . S
C1453 C1452 1.391 . S
C1454 H1444 0.950 . S
C1454 C1455 1.386 . S
C1454 C1456 1.391 . S
C1455 C1454 1.386 . S
C1455 C1459 1.393 . S
C1456 H1445 0.950 . S
C1456 C1454 1.391 . S
C1456 C1457 1.400 . S
C1457 C1451 1.491 . S
C1457 C1456 1.400 . S
C1457 C1458 1.398 . S
C1458 H1446 0.950 . S
C1458 C1457 1.398 . S
C1458 C1459 1.391 . S
C1459 H1447 0.950 . S
C1459 C1455 1.393 . S
C1459 C1458 1.391 . S
H1460 C1468 0.950 . S
H1461 C1473 0.950 . S
H1462 C1470 0.950 . S
H1463 C1472 0.950 . S
H1464 C1474 0.950 . S
H1465 C1476 0.950 . S
H1466 C1478 0.950 1_545 S
H1467 C1479 0.950 . S
C1468 H1460 0.950 . S
C1468 C1469 1.386 . S
C1468 C1470 1.391 . S
C1469 C1468 1.386 . S
C1469 C1473 1.393 . S
C1470 H1462 0.950 . S
C1470 C1468 1.391 . S
C1470 C1471 1.400 . S
C1471 C1470 1.400 . S
C1471 C1472 1.398 . S
C1471 C1477 1.491 . S
C1472 H1463 0.950 . S
C1472 C1471 1.398 . S
C1472 C1473 1.391 . S
C1473 H1461 0.950 . S
C1473 C1469 1.393 . S
C1473 C1472 1.391 . S
C1474 H1464 0.950 . S
C1474 C1475 1.386 . S
C1474 C1476 1.391 1_455 S
C1475 C1474 1.386 . S
C1475 C1479 1.393 1_465 S
C1476 H1465 0.950 . S
C1476 C1474 1.391 1_655 S
C1476 C1477 1.400 . S
C1477 C1471 1.491 . S
C1477 C1476 1.400 . S
C1477 C1478 1.398 . S
C1478 H1466 0.950 1_565 S
C1478 C1477 1.398 . S
C1478 C1479 1.391 1_565 S
C1479 H1467 0.950 . S
C1479 C1475 1.393 1_645 S
C1479 C1478 1.391 1_545 S
H1480 C1488 0.950 . S
H1481 C1493 0.950 . S
H1482 C1490 0.950 . S
H1483 C1492 0.950 . S
H1484 C1494 0.950 . S
H1485 C1496 0.950 . S
H1486 C1498 0.950 . S
H1487 C1499 0.950 . S
C1488 H1480 0.950 . S
C1488 C1489 1.386 . S
C1488 C1490 1.391 . S
C1489 C1488 1.386 . S
C1489 C1493 1.393 . S
C1490 H1482 0.950 . S
C1490 C1488 1.391 . S
C1490 C1491 1.400 . S
C1491 C1490 1.400 . S
C1491 C1492 1.398 . S
C1491 C1497 1.491 . S
C1492 H1483 0.950 . S
C1492 C1491 1.398 . S
C1492 C1493 1.391 . S
C1493 H1481 0.950 . S
C1493 C1489 1.393 . S
C1493 C1492 1.391 . S
C1494 H1484 0.950 . S
C1494 C1495 1.386 . S
C1494 C1496 1.391 . S
C1495 C1494 1.386 . S
C1495 C1499 1.393 . S
C1496 H1485 0.950 . S
C1496 C1494 1.391 . S
C1496 C1497 1.400 . S
C1497 C1491 1.491 . S
C1497 C1496 1.400 . S
C1497 C1498 1.398 . S
C1498 H1486 0.950 . S
C1498 C1497 1.398 . S
C1498 C1499 1.391 . S
C1499 H1487 0.950 . S
C1499 C1495 1.393 . S
C1499 C1498 1.391 . S
H1500 C1508 0.950 1_565 S
H1501 C1513 0.950 . S
H1502 C1510 0.950 . S
H1503 C1512 0.950 . S
H1504 C1514 0.950 . S
H1505 C1516 0.950 . S
H1506 C1518 0.950 . S
H1507 C1519 0.950 . S
C1508 H1500 0.950 1_545 S
C1508 C1509 1.386 . S
C1508 C1510 1.391 . S
C1509 C1508 1.386 . S
C1509 C1513 1.393 . S
C1510 H1502 0.950 . S
C1510 C1508 1.391 . S
C1510 C1511 1.400 . S
C1511 C1510 1.400 . S
C1511 C1512 1.398 . S
C1511 C1517 1.491 . S
C1512 H1503 0.950 . S
C1512 C1511 1.398 . S
C1512 C1513 1.391 . S
C1513 H1501 0.950 . S
C1513 C1509 1.393 . S
C1513 C1512 1.391 . S
C1514 H1504 0.950 . S
C1514 C1515 1.386 . S
C1514 C1516 1.391 . S
C1515 C1514 1.386 . S
C1515 C1519 1.393 . S
C1516 H1505 0.950 . S
C1516 C1514 1.391 . S
C1516 C1517 1.400 . S
C1517 C1511 1.491 . S
C1517 C1516 1.400 . S
C1517 C1518 1.398 . S
C1518 H1506 0.950 . S
C1518 C1517 1.398 . S
C1518 C1519 1.391 . S
C1519 H1507 0.950 . S
C1519 C1515 1.393 . S
C1519 C1518 1.391 . S
H1520 C1528 0.950 . S
H1521 C1533 0.950 . S
H1522 C1530 0.950 . S
H1523 C1532 0.950 . S
H1524 C1534 0.950 . S
H1525 C1536 0.950 . S
H1526 C1538 0.950 . S
H1527 C1539 0.950 . S
C1528 H1520 0.950 . S
C1528 C1529 1.386 . S
C1528 C1530 1.391 . S
C1529 C1528 1.386 . S
C1529 C1533 1.393 . S
C1530 H1522 0.950 . S
C1530 C1528 1.391 . S
C1530 C1531 1.400 . S
C1531 C1530 1.400 . S
C1531 C1532 1.398 . S
C1531 C1537 1.491 . S
C1532 H1523 0.950 . S
C1532 C1531 1.398 . S
C1532 C1533 1.391 . S
C1533 H1521 0.950 . S
C1533 C1529 1.393 . S
C1533 C1532 1.391 . S
C1534 H1524 0.950 . S
C1534 C1535 1.386 . S
C1534 C1536 1.391 . S
C1535 C1534 1.386 . S
C1535 C1539 1.393 . S
C1536 H1525 0.950 . S
C1536 C1534 1.391 . S
C1536 C1537 1.400 . S
C1537 C1531 1.491 . S
C1537 C1536 1.400 . S
C1537 C1538 1.398 . S
C1538 H1526 0.950 . S
C1538 C1537 1.398 . S
C1538 C1539 1.391 . S
C1539 H1527 0.950 . S
C1539 C1535 1.393 . S
C1539 C1538 1.391 . S
H1540 C1548 0.942 1_655 S
H1541 C1553 0.950 1_655 S
H1542 C1550 0.950 . S
H1543 C1552 0.950 . S
H1544 C1554 0.950 . S
H1545 C1556 0.950 . S
H1546 C1558 0.950 . S
H1547 C1559 0.950 . S
C1548 H1540 0.942 1_455 S
C1548 C1549 1.381 1_455 S
C1548 C1550 1.403 . S
C1549 C1548 1.381 1_655 S
C1549 C1553 1.393 1_655 S
C1550 H1542 0.950 . S
C1550 C1548 1.403 . S
C1550 C1551 1.400 . S
C1551 C1550 1.400 . S
C1551 C1552 1.398 . S
C1551 C1557 1.491 . S
C1552 H1543 0.950 . S
C1552 C1551 1.398 . S
C1552 C1553 1.391 . S
C1553 H1541 0.950 1_455 S
C1553 C1549 1.393 1_455 S
C1553 C1552 1.391 . S
C1554 H1544 0.950 . S
C1554 C1555 1.386 . S
C1554 C1556 1.391 . S
C1555 C1554 1.386 . S
C1555 C1559 1.393 . S
C1556 H1545 0.950 . S
C1556 C1554 1.391 . S
C1556 C1557 1.400 . S
C1557 C1551 1.491 . S
C1557 C1556 1.400 . S
C1557 C1558 1.398 . S
C1558 H1546 0.950 . S
C1558 C1557 1.398 . S
C1558 C1559 1.391 . S
C1559 H1547 0.950 . S
C1559 C1555 1.393 . S
C1559 C1558 1.391 . S
H1560 C1568 0.950 . S
H1561 C1573 0.950 . S
H1562 C1570 0.950 . S
H1563 C1572 0.950 . S
H1564 C1574 0.950 . S
H1565 C1576 0.950 . S
H1566 C1578 0.950 . S
H1567 C1579 0.950 . S
C1568 H1560 0.950 . S
C1568 C1569 1.386 . S
C1568 C1570 1.391 . S
C1569 C1568 1.386 . S
C1569 C1573 1.393 . S
C1570 H1562 0.950 . S
C1570 C1568 1.391 . S
C1570 C1571 1.400 . S
C1571 C1570 1.400 . S
C1571 C1572 1.398 . S
C1571 C1577 1.491 . S
C1572 H1563 0.950 . S
C1572 C1571 1.398 . S
C1572 C1573 1.391 . S
C1573 H1561 0.950 . S
C1573 C1569 1.393 . S
C1573 C1572 1.391 . S
C1574 H1564 0.950 . S
C1574 C1575 1.386 . S
C1574 C1576 1.391 . S
C1575 C1574 1.386 . S
C1575 C1579 1.393 . S
C1576 H1565 0.950 . S
C1576 C1574 1.391 . S
C1576 C1577 1.400 . S
C1577 C1571 1.491 . S
C1577 C1576 1.400 . S
C1577 C1578 1.398 . S
C1578 H1566 0.950 . S
C1578 C1577 1.398 . S
C1578 C1579 1.391 . S
C1579 H1567 0.950 . S
C1579 C1575 1.393 . S
C1579 C1578 1.391 . S
H1580 C1588 0.950 . S
H1581 C1593 0.950 . S
H1582 C1590 0.950 . S
H1583 C1592 0.950 . S
H1584 C1594 0.950 . S
H1585 C1596 0.950 . S
H1586 C1598 0.950 . S
H1587 C1599 0.950 . S
C1588 H1580 0.950 . S
C1588 C1589 1.386 . S
C1588 C1590 1.391 . S
C1589 C1588 1.386 . S
C1589 C1593 1.393 . S
C1590 H1582 0.950 . S
C1590 C1588 1.391 . S
C1590 C1591 1.400 . S
C1591 C1590 1.400 . S
C1591 C1592 1.398 . S
C1591 C1597 1.491 . S
C1592 H1583 0.950 . S
C1592 C1591 1.398 . S
C1592 C1593 1.391 . S
C1593 H1581 0.950 . S
C1593 C1589 1.393 . S
C1593 C1592 1.391 . S
C1594 H1584 0.950 . S
C1594 C1595 1.386 . S
C1594 C1596 1.391 . S
C1595 C1594 1.386 . S
C1595 C1599 1.393 . S
C1596 H1585 0.950 . S
C1596 C1594 1.391 . S
C1596 C1597 1.400 . S
C1597 C1591 1.491 . S
C1597 C1596 1.400 . S
C1597 C1598 1.398 . S
C1598 H1586 0.950 . S
C1598 C1597 1.398 . S
C1598 C1599 1.391 . S
C1599 H1587 0.950 . S
C1599 C1595 1.393 . S
C1599 C1598 1.391 . S
C649 C15 0.840 . S
C655 C485 0.840 . S
C669 C205 0.776 . S
C675 C55 0.776 . S
C689 C95 0.783 . S
C695 C565 0.783 . S
C709 C135 0.798 1_455 S
C715 C285 0.798 1_655 S
C729 C165 0.853 . S
C735 C335 0.853 . S
C749 C415 0.796 . S
C755 C245 0.796 . S
C769 C525 0.780 1_455 S
C775 C375 0.780 1_655 S
C789 C455 0.848 . S
C795 C605 0.848 . S
C809 C368 2.161 . S
C815 C5 2.136 . S
C829 C45 2.129 . S
C835 C408 2.169 . S
C849 C85 2.137 . S
C855 C448 2.164 . S
C869 C328 2.169 . S
C875 C125 2.134 . S
C889 C538 2.155 . S
C895 C175 2.120 . S
C909 C578 2.156 . S
C915 C215 2.128 . S
C929 C255 2.136 . S
C935 C618 2.161 . S
C949 C498 2.161 . S
C955 C295 2.135 . S
C969 C325 2.118 . S
C975 C48 2.158 . S
C989 C365 2.123 . S
C995 C88 2.155 . S
C1009 C405 2.136 . S
C1015 C128 2.168 . S
C1029 C8 2.161 . S
C1035 C445 2.135 . S
C1049 C218 2.169 . S
C1055 C495 2.132 . S
C1069 C535 2.120 . S
C1075 C258 2.163 . S
C1089 C298 2.155 . S
C1095 C575 2.121 . S
C1109 C615 2.124 . S
C1115 C178 2.154 . S
C1129 C19 3.062 . S
C1135 C419 3.055 . S
C1149 C59 3.053 . S
C1155 C459 3.061 . S
C1169 C339 3.058 . S
C1175 C99 3.055 . S
C1189 C139 3.060 . S
C1195 C379 3.054 . S
C1209 C169 3.056 . S
C1215 C569 3.061 . S
C1229 C209 3.058 . S
C1235 C609 3.060 . S
C1249 C489 3.059 . S
C1255 C249 3.054 . S
C1269 C289 3.062 . S
C1275 C529 3.053 . S
C1289 C18 1.808 . S
C1295 C299 2.063 . S
C1309 C499 2.056 . S
C1315 C58 1.799 . S
C1329 C98 1.831 . S
C1335 C219 2.071 . S
C1349 C138 1.813 . S
C1355 C579 2.062 . S
C1369 C168 1.811 . S
C1375 C129 2.061 . S
C1389 C329 2.072 . S
C1395 C208 1.827 . S
C1409 C248 1.833 . S
C1415 C49 2.073 . S
C1429 C409 2.056 . S
C1435 C288 1.797 . S
C1449 C338 1.808 . S
C1455 C619 2.063 . S
C1469 C179 2.072 . S
C1475 C378 1.830 1_565 S
C1489 C539 2.074 . S
C1495 C418 1.831 . S
C1509 C458 1.826 1_545 S
C1515 C259 2.069 . S
C1529 C488 1.808 . S
C1535 C449 2.060 . S
C1549 C528 1.812 1_545 S
C1555 C9 2.065 . S
C1569 C369 2.072 . S
C1575 C568 1.827 . S
C1589 C89 2.064 . S
C1595 C608 1.817 1_565 S
