# Generated by pormake.
# Topology wjd, (6)-cn, num edge types: 1
# Building blocks:
#     Node 0, Type 0, BuildingBlock: UKALOJ_clean_sbu_0, # of connection points: 6
#     Node 1, Type 0, BuildingBlock: UKALOJ_clean_sbu_0, # of connection points: 6
#     Node 2, Type 0, BuildingBlock: UKALOJ_clean_sbu_0, # of connection points: 6
#     Node 3, Type 0, BuildingBlock: UKALOJ_clean_sbu_0, # of connection points: 6
#     Node 4, Type 0, BuildingBlock: UKALOJ_clean_sbu_0, # of connection points: 6
#     Node 5, Type 0, BuildingBlock: UKALOJ_clean_sbu_0, # of connection points: 6
#     Node 6, Type 0, BuildingBlock: UKALOJ_clean_sbu_0, # of connection points: 6
#     Node 7, Type 0, BuildingBlock: UKALOJ_clean_sbu_0, # of connection points: 6
#     Node 8, Type 0, BuildingBlock: UKALOJ_clean_sbu_0, # of connection points: 6
#     Node 9, Type 0, BuildingBlock: UKALOJ_clean_sbu_0, # of connection points: 6
#     Node 10, Type 0, BuildingBlock: UKALOJ_clean_sbu_0, # of connection points: 6
#     Node 11, Type 0, BuildingBlock: UKALOJ_clean_sbu_0, # of connection points: 6
#     Edge 12, Type (0, 0), BuildingBlock: AJUNOK_clean_linker_0, # of connection points: 2
#     Edge 13, Type (0, 0), BuildingBlock: AJUNOK_clean_linker_0, # of connection points: 2
#     Edge 14, Type (0, 0), BuildingBlock: AJUNOK_clean_linker_0, # of connection points: 2
#     Edge 15, Type (0, 0), BuildingBlock: AJUNOK_clean_linker_0, # of connection points: 2
#     Edge 16, Type (0, 0), BuildingBlock: AJUNOK_clean_linker_0, # of connection points: 2
#     Edge 17, Type (0, 0), BuildingBlock: AJUNOK_clean_linker_0, # of connection points: 2
#     Edge 18, Type (0, 0), BuildingBlock: AJUNOK_clean_linker_0, # of connection points: 2
#     Edge 19, Type (0, 0), BuildingBlock: AJUNOK_clean_linker_0, # of connection points: 2
#     Edge 20, Type (0, 0), BuildingBlock: AJUNOK_clean_linker_0, # of connection points: 2
#     Edge 21, Type (0, 0), BuildingBlock: AJUNOK_clean_linker_0, # of connection points: 2
#     Edge 22, Type (0, 0), BuildingBlock: AJUNOK_clean_linker_0, # of connection points: 2
#     Edge 23, Type (0, 0), BuildingBlock: AJUNOK_clean_linker_0, # of connection points: 2
#     Edge 24, Type (0, 0), BuildingBlock: AJUNOK_clean_linker_0, # of connection points: 2
#     Edge 25, Type (0, 0), BuildingBlock: AJUNOK_clean_linker_0, # of connection points: 2
#     Edge 26, Type (0, 0), BuildingBlock: AJUNOK_clean_linker_0, # of connection points: 2
#     Edge 27, Type (0, 0), BuildingBlock: AJUNOK_clean_linker_0, # of connection points: 2
#     Edge 28, Type (0, 0), BuildingBlock: AJUNOK_clean_linker_0, # of connection points: 2
#     Edge 29, Type (0, 0), BuildingBlock: AJUNOK_clean_linker_0, # of connection points: 2
#     Edge 30, Type (0, 0), BuildingBlock: AJUNOK_clean_linker_0, # of connection points: 2
#     Edge 31, Type (0, 0), BuildingBlock: AJUNOK_clean_linker_0, # of connection points: 2
#     Edge 32, Type (0, 0), BuildingBlock: AJUNOK_clean_linker_0, # of connection points: 2
#     Edge 33, Type (0, 0), BuildingBlock: AJUNOK_clean_linker_0, # of connection points: 2
#     Edge 34, Type (0, 0), BuildingBlock: AJUNOK_clean_linker_0, # of connection points: 2
#     Edge 35, Type (0, 0), BuildingBlock: AJUNOK_clean_linker_0, # of connection points: 2
#     Edge 36, Type (0, 0), BuildingBlock: AJUNOK_clean_linker_0, # of connection points: 2
#     Edge 37, Type (0, 0), BuildingBlock: AJUNOK_clean_linker_0, # of connection points: 2
#     Edge 38, Type (0, 0), BuildingBlock: AJUNOK_clean_linker_0, # of connection points: 2
#     Edge 39, Type (0, 0), BuildingBlock: AJUNOK_clean_linker_0, # of connection points: 2
#     Edge 40, Type (0, 0), BuildingBlock: AJUNOK_clean_linker_0, # of connection points: 2
#     Edge 41, Type (0, 0), BuildingBlock: AJUNOK_clean_linker_0, # of connection points: 2
#     Edge 42, Type (0, 0), BuildingBlock: AJUNOK_clean_linker_0, # of connection points: 2
#     Edge 43, Type (0, 0), BuildingBlock: AJUNOK_clean_linker_0, # of connection points: 2
#     Edge 44, Type (0, 0), BuildingBlock: AJUNOK_clean_linker_0, # of connection points: 2
#     Edge 45, Type (0, 0), BuildingBlock: AJUNOK_clean_linker_0, # of connection points: 2
#     Edge 46, Type (0, 0), BuildingBlock: AJUNOK_clean_linker_0, # of connection points: 2
#     Edge 47, Type (0, 0), BuildingBlock: AJUNOK_clean_linker_0, # of connection points: 2
# Relax obj value: 0.098
# Max RMSD: 0.178
# Mean RMSD: 0.178
data_MOF--net-wjd--node1-UKALOJ_clean_sbu_0--edge1-AJUNOK_clean_linker_0
_symmetry_space_group_name_H-M    P1
_symmetry_Int_Tables_number       1
_symmetry_cell_setting            triclinic
loop_
_symmetry_equiv_pos_as_xyz
'x, y, z'
_cell_length_a     21.394152
_cell_length_b     21.38767
_cell_length_c     63.654452
_cell_angle_alpha  90.02783
_cell_angle_beta   90.093656
_cell_angle_gamma 120.10973
loop_
_atom_site_label
_atom_site_type_symbol
_atom_site_fract_x
_atom_site_fract_y
_atom_site_fract_z
_atom_type_partial_charge
Zn0 Zn 0.30357 0.09056 0.16461 0.0
O1 O 0.3803 0.19974 0.16731 0.0
C2 C 0.41267 0.06094 0.14991 0.0
Zn3 Zn 0.30904 0.09836 0.12927 0.0
C4 C 0.40498 0.23775 0.15081 0.0
O5 O 0.38692 0.2081 0.13277 0.0
C6 C 0.2006 0.95325 0.14339 0.0
O7 O 0.23159 0.1298 0.12712 0.0
O8 O 0.22568 0.12026 0.1616 0.0
N9 N 0.32405 0.10256 0.09684 0.0
C10 C 0.27806 0.06531 0.08099 0.0
C11 C 0.38411 0.11648 0.06821 0.0
N12 N 0.38992 0.13483 0.08872 0.0
N13 N 0.31434 0.07262 0.06296 0.0
C14 C 0.32663 0.10899 0.21398 0.0
C15 C 0.21778 0.04331 0.2242 0.0
N16 N 0.2854 0.08052 0.1966 0.0
N17 N 0.21795 0.03958 0.2031 0.0
N18 N 0.2853 0.08626 0.23146 0.0
H19 H 0.41411 0.2176 0.21415 0.0
H20 H 0.43252 0.15516 0.22781 0.0
H21 H 0.4312 0.15605 0.19928 0.0
C22 C 0.40595 0.16213 0.21374 0.0
C23 C 0.19757 0.02289 0.08283 0.0
H24 H 0.17881 0.03616 0.09747 0.0
H25 H 0.17282 0.0342 0.06908 0.0
H26 H 0.17939 0.96452 0.08246 0.0
O27 O 0.22883 -0.01047 0.12685 0.0
O28 O 0.22451 0.98219 0.16119 0.0
C29 C 0.20655 0.13653 0.14453 0.0
O30 O 0.38357 0.06357 0.167 0.0
O31 O 0.38923 0.07045 0.13255 0.0
Zn32 Zn 0.76032 0.6575 0.42361 0.0
O33 O 0.87056 0.73457 0.42549 0.0
C34 C 0.72596 0.76574 0.40812 0.0
Zn35 Zn 0.75906 0.65989 0.38837 0.0
C36 C 0.90294 0.75684 0.40799 0.0
O37 O 0.86716 0.73672 0.39101 0.0
C38 C 0.61898 0.55261 0.40317 0.0
O39 O 0.79033 0.58216 0.38677 0.0
O40 O 0.79073 0.57874 0.42135 0.0
N41 N 0.76686 0.67513 0.35639 0.0
C42 C 0.75424 0.63243 0.3394 0.0
C43 C 0.79465 0.73988 0.32823 0.0
N44 N 0.79167 0.7417 0.34931 0.0
N45 N 0.77108 0.67191 0.3216 0.0
C46 C 0.75954 0.69279 0.47153 0.0
C47 C 0.70327 0.58754 0.48489 0.0
N48 N 0.74926 0.64541 0.45598 0.0
N49 N 0.71466 0.58007 0.46444 0.0
N50 N 0.73053 0.65784 0.48977 0.0
H51 H 0.83259 0.78988 0.45448 0.0
H52 H 0.83778 0.79778 0.48285 0.0
H53 H 0.763 0.79403 0.46928 0.0
C54 C 0.80096 0.77325 0.46922 0.0
C55 C 0.72886 0.55338 0.34028 0.0
H56 H 0.77663 0.54602 0.34019 0.0
H57 H 0.69537 0.52543 0.32628 0.0
H58 H 0.69754 0.52901 0.35481 0.0
O59 O 0.65163 0.58059 0.3861 0.0
O60 O 0.65132 0.57728 0.42057 0.0
C61 C 0.80284 0.55888 0.40371 0.0
O62 O 0.73297 0.73856 0.42504 0.0
O63 O 0.73123 0.74011 0.39069 0.0
Zn64 Zn 0.85607 0.19259 0.16628 0.0
O65 O 0.74733 0.16184 0.16645 0.0
C66 C 0.89051 0.33211 0.15123 0.0
Zn67 Zn 0.8562 0.19113 0.13107 0.0
C68 C 0.7131 0.14858 0.14917 0.0
O69 O 0.74668 0.15968 0.13186 0.0
C70 C -0.00311 0.22672 0.14853 0.0
O71 O 0.82444 0.08156 0.12911 0.0
O72 O 0.82457 0.08461 0.16353 0.0
N73 N 0.85898 0.2016 0.09872 0.0
C74 C 0.89874 0.1918 0.08399 0.0
C75 C 0.84655 0.24195 0.0688 0.0
N76 N 0.82619 0.2323 0.08914 0.0
N77 N 0.89233 0.2172 0.06517 0.0
C78 C 0.83913 0.20582 0.21535 0.0
C79 C 0.87416 0.13405 0.22619 0.0
N80 N 0.85737 0.18096 0.19826 0.0
N81 N 0.8793 0.1367 0.20515 0.0
N82 N 0.84927 0.177 0.23305 0.0
H83 H 0.77307 0.24627 0.22815 0.0
H84 H 0.8547 0.31232 0.21538 0.0
H85 H 0.7797 0.24885 0.19964 0.0
C86 C 0.80927 0.25577 0.21458 0.0
C87 C 0.94202 0.1554 0.08774 0.0
H88 H 0.92131 0.11863 0.10142 0.0
H89 H 0.94088 0.12461 0.07356 0.0
H90 H -0.00109 0.19669 0.09079 0.0
O91 O 0.96495 0.22014 0.13119 0.0
O92 O 0.96384 0.22024 0.16562 0.0
C93 C 0.81199 0.04907 0.14663 0.0
O94 O 0.8847 0.29988 0.16849 0.0
O95 O 0.88377 0.29941 0.13396 0.0
Zn96 Zn 0.31066 0.10752 0.42215 0.0
O97 O 0.23321 0.13842 0.42581 0.0
C98 C 0.20437 0.96567 0.40549 0.0
Zn99 Zn 0.30767 0.10747 0.38691 0.0
C100 C 0.20867 0.14839 0.40875 0.0
O101 O 0.22856 0.13545 0.39131 0.0
C102 C 0.41691 0.07617 0.40039 0.0
O103 O 0.38343 0.2174 0.38633 0.0
O104 O 0.38827 0.21726 0.42091 0.0
N105 N 0.2894 0.1045 0.35494 0.0
C106 C 0.32973 0.12257 0.33725 0.0
C107 C 0.22024 0.08088 0.32782 0.0
N108 N 0.22153 0.07861 0.34891 0.0
N109 N 0.28734 0.10801 0.32002 0.0
C110 C 0.27725 0.0643 0.46944 0.0
C111 C 0.38306 0.11074 0.48248 0.0
N112 N 0.32417 0.10408 0.45415 0.0
N113 N 0.38985 0.13321 0.46238 0.0
N114 N 0.31292 0.06696 0.48723 0.0
H115 H 0.17914 0.03896 0.45255 0.0
H116 H 0.17435 0.04266 0.48083 0.0
H117 H 0.17381 0.96729 0.4688 0.0
C118 C 0.1966 0.02634 0.46753 0.0
C119 C 0.41024 0.15734 0.33697 0.0
H120 H 0.43309 0.19593 0.32369 0.0
H121 H 0.42493 0.11496 0.33473 0.0
H122 H 0.43385 0.18546 0.35204 0.0
O123 O 0.38955 0.08262 0.38337 0.0
O124 O 0.39074 0.08062 0.41784 0.0
C125 C 0.40709 0.25135 0.40358 0.0
O126 O 0.23131 -0.00118 0.42258 0.0
O127 O 0.2294 -0.00183 0.38821 0.0
Zn128 Zn 0.75459 0.64052 0.13194 0.0
O129 O 0.86329 0.71711 0.12728 0.0
C130 C 0.72394 0.74901 0.14937 0.0
Zn131 Zn 0.76184 0.64493 0.16712 0.0
C132 C 0.90052 0.74012 0.14399 0.0
O133 O 0.86972 0.72107 0.16171 0.0
C134 C 0.61831 0.5374 0.15515 0.0
O135 O 0.79196 0.56705 0.16711 0.0
O136 O 0.78538 0.56194 0.13255 0.0
N137 N 0.78287 0.66362 0.19877 0.0
C138 C 0.75875 0.62434 0.21659 0.0
C139 C 0.8402 0.73067 0.22539 0.0
N140 N 0.8333 0.72957 0.20439 0.0
N141 N 0.79435 0.66526 0.23351 0.0
C142 C 0.74279 0.67525 0.08483 0.0
C143 C 0.6796 0.56999 0.07168 0.0
N144 N 0.73409 0.62736 0.10002 0.0
N145 N 0.69506 0.56202 0.09172 0.0
N146 N 0.70855 0.64056 0.06703 0.0
H147 H 0.81661 0.77247 0.10205 0.0
H148 H 0.82824 0.77683 0.0739 0.0
H149 H 0.75387 0.78068 0.08492 0.0
C150 C 0.78804 0.75579 0.08681 0.0
C151 C 0.70285 0.54583 0.21721 0.0
H152 H 0.70908 0.51984 0.23153 0.0
H153 H 0.64846 0.54035 0.2174 0.0
H154 H 0.70687 0.518 0.20301 0.0
O155 O 0.65433 0.56561 0.17183 0.0
O156 O 0.64735 0.56117 0.13735 0.0
C157 C 0.80079 0.54282 0.14982 0.0
O158 O 0.72652 0.72046 0.13219 0.0
O159 O 0.73443 0.72541 0.1665 0.0
Zn160 Zn 0.86043 0.21071 0.42305 0.0
O161 O 0.82724 0.10125 0.42636 0.0
C162 C 0.00205 0.24384 0.40663 0.0
Zn163 Zn 0.86254 0.20942 0.38782 0.0
C164 C 0.81665 0.06716 0.40916 0.0
O165 O 0.83159 0.10125 0.39191 0.0
C166 C 0.89558 0.35014 0.40126 0.0
O167 O 0.75479 0.17784 0.38662 0.0
O168 O 0.75012 0.18001 0.42112 0.0
N169 N 0.8648 0.19432 0.35606 0.0
C170 C 0.84474 0.21586 0.33861 0.0
C171 C 0.88208 0.14493 0.32879 0.0
N172 N 0.88814 0.15053 0.34981 0.0
N173 N 0.8552 0.1855 0.32132 0.0
C174 C 0.90119 0.21808 0.4709 0.0
C175 C 0.85185 0.27421 0.48402 0.0
N176 N 0.86278 0.2264 0.45534 0.0
N177 N 0.8319 0.26099 0.46365 0.0
N178 N 0.89577 0.24818 0.48901 0.0
H179 H 0.92238 0.14156 0.45481 0.0
H180 H 0.93381 0.14526 0.48308 0.0
H181 H -0.00064 0.21636 0.46705 0.0
C182 C 0.94105 0.17754 0.46871 0.0
C183 C 0.81279 0.26408 0.3386 0.0
H184 H 0.7849 0.25977 0.35364 0.0
H185 H 0.77455 0.25053 0.32528 0.0
H186 H 0.8569 0.32088 0.33673 0.0
O187 O 0.88985 0.31642 0.38428 0.0
O188 O 0.88936 0.31913 0.41879 0.0
C189 C 0.71855 0.16681 0.40332 0.0
O190 O 0.9694 0.23784 0.42379 0.0
O191 O 0.97008 0.23821 0.38936 0.0
Zn192 Zn 0.10209 0.33221 0.66623 0.0
O193 O 0.21015 0.40947 0.66692 0.0
C194 C 0.06878 0.44113 0.65408 0.0
Zn195 Zn 0.10158 0.33745 0.63096 0.0
C196 C 0.24494 0.434 0.64991 0.0
O197 O 0.21205 0.4154 0.63232 0.0
C198 C 0.96074 0.22891 0.64766 0.0
O199 O 0.13214 0.2598 0.62661 0.0
O200 O 0.13338 0.25554 0.66106 0.0
N201 N 0.0962 0.35058 0.59878 0.0
C202 C 0.06066 0.30223 0.58324 0.0
C203 C 0.09817 0.40693 0.57035 0.0
N204 N 0.11971 0.41558 0.59061 0.0
N205 N 0.06098 0.33624 0.56532 0.0
C206 C 0.11885 0.35312 0.7157 0.0
C207 C 0.08771 0.24536 0.72467 0.0
N208 N 0.10186 0.31317 0.69792 0.0
N209 N 0.08242 0.24635 0.70365 0.0
N210 N 0.11031 0.31156 0.73269 0.0
H211 H 0.17863 0.45749 0.73065 0.0
H212 H 0.09993 0.44192 0.71598 0.0
H213 H 0.17994 0.459 0.70211 0.0
C214 C 0.14654 0.43271 0.71619 0.0
C215 C 0.02961 0.22213 0.585 0.0
H216 H 0.0254 0.20429 0.60148 0.0
H217 H 0.06546 0.20721 0.57648 0.0
H218 H 0.97599 0.19293 0.57728 0.0
O219 O -0.00728 0.2581 0.63065 0.0
O220 O -0.00605 0.25229 0.66497 0.0
C221 C 0.14538 0.2364 0.64338 0.0
O222 O 0.07466 0.41177 0.67074 0.0
O223 O 0.07498 0.418 0.63624 0.0
Zn224 Zn 0.19646 0.85676 0.9213 0.0
O225 O 0.08817 0.82627 0.92496 0.0
C226 C 0.22685 -0.0054 0.90147 0.0
Zn227 Zn 0.1886 0.85146 0.88603 0.0
C228 C 0.05074 0.81183 0.90827 0.0
O229 O 0.08083 0.82189 0.89046 0.0
C230 C 0.33158 0.8861 0.89912 0.0
O231 O 0.15784 0.74412 0.88797 0.0
O232 O 0.16448 0.74605 0.92243 0.0
N233 N 0.16971 0.83883 0.85408 0.0
C234 C 0.21018 0.87062 0.83687 0.0
C235 C 0.10529 0.7914 0.82621 0.0
N236 N 0.10475 0.78957 0.84734 0.0
N237 N 0.17073 0.84185 0.81917 0.0
C238 C 0.20784 0.90907 0.96831 0.0
C239 C 0.26393 0.86144 0.98259 0.0
N240 N 0.21557 0.86809 0.95347 0.0
N241 N 0.25025 0.83845 0.9625 0.0
N242 N 0.23824 0.90624 0.98671 0.0
H243 H 0.13049 0.92719 0.95149 0.0
H244 H 0.13693 0.94572 0.97946 0.0
H245 H 0.20677 0.00654 0.96212 0.0
C246 C 0.16771 0.94895 0.96508 0.0
C247 C 0.28946 0.92455 0.83758 0.0
H248 H 0.31138 0.94767 0.82194 0.0
H249 H 0.29993 0.96825 0.8489 0.0
H250 H 0.31874 0.89719 0.84317 0.0
O251 O 0.29516 0.87713 0.8825 0.0
O252 O 0.30355 0.8834 0.91689 0.0
C253 C 0.14865 0.71107 0.90519 0.0
O254 O 0.22474 0.9654 0.91903 0.0
O255 O 0.21674 0.95915 0.88456 0.0
Zn256 Zn 0.65091 0.7833 0.63154 0.0
O257 O 0.72833 0.89203 0.62821 0.0
C258 C 0.75736 0.74916 0.64877 0.0
Zn259 Zn 0.65348 0.78674 0.66683 0.0
C260 C 0.75195 0.92706 0.64526 0.0
O261 O 0.73173 0.89431 0.6627 0.0
C262 C 0.54553 0.64528 0.65315 0.0
O263 O 0.57737 0.81925 0.66724 0.0
O264 O 0.5723 0.81496 0.63268 0.0
N265 N 0.67027 0.80175 0.69881 0.0
C266 C 0.62846 0.77595 0.71611 0.0
C267 C 0.73646 0.84567 0.72655 0.0
N268 N 0.73718 0.84515 0.70543 0.0
N269 N 0.66899 0.80253 0.73377 0.0
C270 C 0.6862 0.77369 0.58424 0.0
C271 C 0.58133 0.71905 0.57044 0.0
N272 N 0.63888 0.76718 0.59933 0.0
N273 N 0.5738 0.73356 0.59061 0.0
N274 N 0.65137 0.74326 0.56607 0.0
H275 H 0.78415 0.85002 0.6004 0.0
H276 H 0.79321 0.84255 0.57235 0.0
H277 H 0.78422 0.77249 0.58949 0.0
C278 C 0.76658 0.81234 0.58689 0.0
C279 C 0.54805 0.72831 0.71546 0.0
H280 H 0.52522 0.74241 0.70183 0.0
H281 H 0.52307 0.73308 0.7302 0.0
H282 H 0.53464 0.67141 0.71347 0.0
O283 O 0.57261 0.67955 0.67016 0.0
O284 O 0.571 0.67591 0.63565 0.0
C285 C 0.55315 0.82938 0.65013 0.0
O286 O 0.73109 0.75462 0.63147 0.0
O287 O 0.73184 0.75698 0.66589 0.0
Zn288 Zn 0.09089 0.30267 0.88786 0.0
O289 O 0.20057 0.37735 0.88786 0.0
C290 C 0.06052 0.41016 0.90384 0.0
Zn291 Zn 0.09116 0.30029 0.92306 0.0
C292 C 0.23509 0.39884 0.90506 0.0
O293 O 0.2014 0.37796 0.92241 0.0
C294 C 0.94896 0.19737 0.90533 0.0
O295 O 0.12157 0.22166 0.92453 0.0
O296 O 0.11758 0.22217 0.88999 0.0
N297 N 0.08895 0.3084 0.95533 0.0
C298 C 0.04938 0.26047 0.97045 0.0
C299 C 0.103 0.36463 0.98466 0.0
N300 N 0.12253 0.37298 0.96429 0.0
N301 N 0.0567 0.29451 0.989 0.0
C302 C 0.11249 0.33749 0.83904 0.0
C303 C 0.06666 0.23011 0.82714 0.0
N304 N 0.08909 0.29228 0.85572 0.0
N305 N 0.06051 0.22576 0.84817 0.0
N306 N 0.09881 0.29953 0.82097 0.0
H307 H 0.16946 0.43693 0.85671 0.0
H308 H 0.19745 0.44211 0.82953 0.0
H309 H 0.11327 0.43707 0.83559 0.0
C310 C 0.15082 0.41816 0.84046 0.0
C311 C 0.00647 0.18037 0.96723 0.0
H312 H 0.028 0.16362 0.9539 0.0
H313 H 0.00704 0.15182 0.98173 0.0
H314 H 0.94982 0.16433 0.9637 0.0
O315 O -0.0184 0.22044 0.92275 0.0
O316 O -0.0181 0.22554 0.88834 0.0
C317 C 0.13082 0.19962 0.9069 0.0
O318 O 0.06698 0.38505 0.88641 0.0
O319 O 0.06487 0.38182 0.92089 0.0
Zn320 Zn 0.2015 0.8883 0.66443 0.0
O321 O 0.16966 0.77912 0.66767 0.0
C322 C 0.34101 0.9186 0.64957 0.0
Zn323 Zn 0.19916 0.87978 0.62927 0.0
C324 C 0.1567 0.74124 0.65111 0.0
O325 O 0.16856 0.77101 0.63313 0.0
C326 C 0.23404 0.02457 0.6428 0.0
O327 O 0.08953 0.84665 0.62729 0.0
O328 O 0.09348 0.8574 0.66172 0.0
N329 N 0.2086 0.87304 0.5971 0.0
C330 C 0.19977 0.90951 0.58115 0.0
C331 C 0.25308 0.85656 0.56856 0.0
N332 N 0.2412 0.83961 0.58914 0.0
N333 N 0.22798 0.90088 0.56315 0.0
C334 C 0.21074 0.8763 0.71379 0.0
C335 C 0.17117 0.94536 0.72352 0.0
N336 N 0.195 0.90123 0.69624 0.0
N337 N 0.17041 0.944 0.70241 0.0
N338 N 0.19657 0.90366 0.73121 0.0
H339 H 0.2714 0.83305 0.69887 0.0
H340 H 0.19725 0.77045 0.71474 0.0
H341 H 0.27863 0.83896 0.72729 0.0
C342 C 0.24189 0.82731 0.71368 0.0
C343 C 0.16197 0.95209 0.5829 0.0
H344 H 0.12677 0.93611 0.59693 0.0
H345 H 0.1292 0.94432 0.56857 0.0
H346 H 0.20292 0.01011 0.58395 0.0
O347 O 0.22636 -0.01193 0.62632 0.0
O348 O 0.22988 -0.00372 0.66062 0.0
C349 C 0.05777 0.84009 0.64469 0.0
O350 O 0.3091 0.91641 0.66657 0.0
O351 O 0.30809 0.90912 0.63219 0.0
Zn352 Zn 0.64284 0.75163 0.88901 0.0
O353 O 0.56239 0.77852 0.88635 0.0
C354 C 0.53622 0.61132 0.90605 0.0
Zn355 Zn 0.63866 0.75455 0.9243 0.0
C356 C 0.53899 0.79276 0.90294 0.0
O357 O 0.55933 0.78345 0.92086 0.0
C358 C 0.75021 0.72344 0.9102 0.0
O359 O 0.71484 0.86461 0.92439 0.0
O360 O 0.71844 0.86147 0.88975 0.0
N361 N 0.62644 0.74996 0.95669 0.0
C362 C 0.67186 0.75704 0.97247 0.0
C363 C 0.56679 0.71126 0.9857 0.0
N364 N 0.56122 0.72208 0.96507 0.0
N365 N 0.63575 0.73227 0.99077 0.0
C366 C 0.6366 0.77363 0.83974 0.0
C367 C 0.67162 0.70222 0.82862 0.0
N368 N 0.65159 0.74568 0.85679 0.0
N369 N 0.67341 0.70155 0.84973 0.0
N370 N 0.64823 0.74658 0.82184 0.0
H371 H 0.63247 0.86332 0.85332 0.0
H372 H 0.60786 0.84851 0.82573 0.0
H373 H 0.54694 0.78877 0.84519 0.0
C374 C 0.60476 0.82191 0.8409 0.0
C375 C 0.7517 0.79001 0.97014 0.0
H376 H 0.77164 0.82791 0.95667 0.0
H377 H 0.77966 0.81908 0.98474 0.0
H378 H 0.76417 0.74627 0.96752 0.0
O379 O 0.72088 0.72919 0.92682 0.0
O380 O 0.72572 0.72787 0.89246 0.0
C381 C 0.73758 0.89698 0.90689 0.0
O382 O 0.56495 0.64292 0.88895 0.0
O383 O 0.55968 0.64523 0.92326 0.0
C384 C 0.06959 0.18122 0.16542 0.0
C385 C 0.06181 0.22022 0.14887 0.0
C386 C 0.1168 0.15464 0.16377 0.0
C387 C 0.15829 0.16646 0.14557 0.0
H388 H 0.03553 0.16669 0.17922 0.0
H389 H 0.11886 0.12249 0.17662 0.0
S390 S 0.16973 0.27932 0.09996 0.0
N391 N 0.10762 0.27962 0.11528 0.0
N392 N 0.19708 0.229 0.11207 0.0
C393 C 0.15533 0.21013 0.12958 0.0
C394 C 0.10711 0.2375 0.13131 0.0
C395 C 0.0971 0.87386 0.42505 0.0
C396 C 0.1337 0.89854 0.40581 0.0
C397 C 0.02253 0.82701 0.42567 0.0
C398 C -0.01785 0.80224 0.40704 0.0
H399 H 0.12526 0.89427 0.43977 0.0
H400 H -0.00377 0.81225 0.44085 0.0
S401 S 0.05533 0.83605 0.35265 0.0
N402 N 0.12629 0.88438 0.36778 0.0
N403 N -0.01387 0.79541 0.36881 0.0
C404 C 0.01927 0.82027 0.38771 0.0
C405 C 0.09519 0.86824 0.38713 0.0
C406 C 0.76431 0.92972 0.12907 0.0
C407 C 0.77954 0.97011 0.14767 0.0
C408 C 0.73791 0.85544 0.12976 0.0
C409 C 0.72706 0.81927 0.14903 0.0
H410 H 0.77502 0.95582 0.11387 0.0
H411 H 0.73037 0.8273 0.11505 0.0
S412 S 0.74325 0.89755 0.20216 0.0
N413 N 0.77007 0.96641 0.18593 0.0
N414 N 0.72133 0.82674 0.18707 0.0
C415 C 0.73514 0.85765 0.1677 0.0
C416 C 0.7617 0.93325 0.16705 0.0
C417 C 0.12259 0.17362 0.39006 0.0
C418 C 0.16073 0.17894 0.40858 0.0
C419 C 0.0765 0.20165 0.389 0.0
C420 C 0.06618 0.23563 0.40648 0.0
H421 H 0.12658 0.14567 0.37638 0.0
H422 H 0.04538 0.19228 0.37471 0.0
S423 S 0.16486 0.27698 0.45713 0.0
N424 N 0.1935 0.22992 0.4438 0.0
N425 N 0.10636 0.28351 0.44165 0.0
C426 C 0.10813 0.24641 0.42456 0.0
C427 C 0.15525 0.21749 0.42569 0.0
C428 C 0.08698 0.87231 0.12419 0.0
C429 C 0.13013 0.88616 0.14223 0.0
C430 C 0.01288 0.82315 0.12462 0.0
C431 C -0.0205 0.78608 0.14315 0.0
H432 H 0.10911 0.90322 0.11004 0.0
H433 H -0.01882 0.81696 0.11067 0.0
S434 S 0.07111 0.79068 0.19327 0.0
N435 N 0.13624 0.85013 0.17806 0.0
N436 N -0.00327 0.75712 0.17898 0.0
C437 C 0.02304 0.7942 0.16073 0.0
C438 C 0.09853 0.8442 0.16023 0.0
C439 C 0.74755 0.87577 0.42753 0.0
C440 C 0.73008 0.83664 0.40858 0.0
C441 C 0.77427 0.9502 0.42767 0.0
C442 C 0.7835 -0.01204 0.40886 0.0
H443 H 0.74483 0.84983 0.44228 0.0
H444 H 0.79022 0.97853 0.44257 0.0
S445 S 0.7285 0.90754 0.35549 0.0
N446 N 0.71165 0.83887 0.3709 0.0
N447 N 0.76101 0.97877 0.37106 0.0
C448 C 0.75919 0.94831 0.38998 0.0
C449 C 0.7322 0.87252 0.38987 0.0
C450 C 0.19795 0.10294 0.62376 0.0
C451 C 0.22917 0.09077 0.64163 0.0
C452 C 0.17285 0.15184 0.6242 0.0
C453 C 0.17788 0.1901 0.6426 0.0
H454 H 0.18782 0.07099 0.60977 0.0
H455 H 0.14619 0.15694 0.61036 0.0
S456 S 0.26818 0.18876 0.69238 0.0
N457 N 0.27338 0.12886 0.67725 0.0
N458 N 0.2261 0.22107 0.67821 0.0
C459 C 0.21441 0.1831 0.66007 0.0
C460 C 0.24031 0.13352 0.65954 0.0
C461 C 0.94113 0.79034 0.92755 0.0
C462 C 0.97216 0.78036 0.90943 0.0
C463 C 0.86727 0.76569 0.92838 0.0
C464 C 0.82177 0.72972 0.91121 0.0
H465 H 0.97454 0.82047 0.94082 0.0
H466 H 0.84726 0.77991 0.94199 0.0
S467 S 0.87484 0.6784 0.86155 0.0
N468 N 0.95091 0.72368 0.87492 0.0
N469 N 0.81146 0.67716 0.8766 0.0
C470 C 0.85129 0.71443 0.89361 0.0
C471 C 0.9267 0.73992 0.89268 0.0
C472 C 0.82819 0.04111 0.66459 0.0
C473 C 0.79898 0.00601 0.64537 0.0
C474 C 0.87476 0.11542 0.66547 0.0
C475 C 0.89468 0.15756 0.64713 0.0
H476 H 0.81703 0.01087 0.67909 0.0
H477 H 0.8989 0.13889 0.68052 0.0
S478 S 0.82071 0.09407 0.59361 0.0
N479 N 0.78403 0.02015 0.60808 0.0
N480 N 0.87218 0.16091 0.60974 0.0
C481 C 0.86076 0.1243 0.62809 0.0
C482 C 0.81314 0.04815 0.62717 0.0
C483 C 0.14944 0.11089 0.88716 0.0
C484 C 0.16157 0.15211 0.90547 0.0
C485 C 0.17782 0.06522 0.88503 0.0
C486 C 0.21916 0.05897 0.9012 0.0
H487 H 0.11574 0.11203 0.8746 0.0
H488 H 0.16292 0.03107 0.87121 0.0
S489 S 0.28021 0.16778 0.9501 0.0
N490 N 0.22685 0.19264 0.9386 0.0
N491 N 0.28128 0.10672 0.93443 0.0
C492 C 0.23691 0.10448 0.91879 0.0
C493 C 0.20746 0.15079 0.92104 0.0
C494 C 0.94953 0.82042 0.66405 0.0
C495 C -0.02066 0.8095 0.64574 0.0
C496 C 0.87565 0.79369 0.6657 0.0
C497 C 0.82881 0.75549 0.64901 0.0
H498 H -0.0163 0.85204 0.67702 0.0
H499 H 0.85614 0.80759 0.67963 0.0
S500 S 0.87783 0.69839 0.59972 0.0
N501 N 0.95558 0.7483 0.61195 0.0
N502 N 0.81531 0.69736 0.61516 0.0
C503 C 0.85693 0.73889 0.63133 0.0
C504 C 0.93265 0.7664 0.62961 0.0
C505 C 0.87138 0.0823 0.88693 0.0
C506 C 0.88252 0.12667 0.90449 0.0
C507 C 0.8232 0.00821 0.88778 0.0
C508 C 0.78423 0.97588 0.90619 0.0
H509 H 0.9038 0.10374 0.87288 0.0
H510 H 0.81896 0.97579 0.87419 0.0
S511 S 0.78055 0.0713 0.95449 0.0
N512 N 0.8412 0.13566 0.93929 0.0
N513 N 0.75043 -0.00465 0.94109 0.0
C514 C 0.78982 0.0205 0.92319 0.0
C515 C 0.83885 0.09628 0.92224 0.0
C516 C 0.27615 0.15086 0.28521 0.0
C517 C 0.30414 0.11682 0.29791 0.0
C518 C 0.27564 0.14561 0.26324 0.0
C519 C 0.30328 0.10628 0.25313 0.0
H520 H 0.25074 0.17833 0.29243 0.0
H521 H 0.24969 0.16887 0.25407 0.0
S522 S 0.38346 0.00789 0.27897 0.0
N523 N 0.36133 0.04336 0.29866 0.0
N524 N 0.36096 0.03426 0.25725 0.0
C525 C 0.33461 0.07492 0.26551 0.0
C526 C 0.33499 0.08007 0.28795 0.0
C527 C 0.71217 0.62412 0.28737 0.0
C528 C 0.77396 0.65218 0.30022 0.0
C529 C 0.71792 0.62247 0.26535 0.0
C530 C 0.78575 0.64934 0.25566 0.0
H531 H 0.66009 0.60806 0.2943 0.0
H532 H 0.67006 0.60534 0.25582 0.0
S533 S 0.96216 0.72164 0.28276 0.0
N534 N 0.90337 0.70187 0.30199 0.0
N535 N 0.91457 0.69884 0.26077 0.0
C536 C 0.84693 0.67308 0.26855 0.0
C537 C 0.84095 0.67453 0.29081 0.0
C538 C 0.79392 0.12202 0.26669 0.0
C539 C 0.83603 0.18466 0.25477 0.0
C540 C 0.79552 0.12408 0.28867 0.0
C541 C 0.83924 0.18886 0.29956 0.0
H542 H 0.76329 0.07024 0.25887 0.0
H543 H 0.76605 0.07387 0.29727 0.0
S544 S 0.95666 0.3685 0.27576 0.0
N545 N 0.91985 0.31393 0.25541 0.0
N546 N 0.9227 0.31781 0.29692 0.0
C547 C 0.87794 0.25278 0.28791 0.0
C548 C 0.87636 0.25067 0.26542 0.0
C549 C 0.16317 0.30593 0.76631 0.0
C550 C 0.12198 0.3285 0.75475 0.0
C551 C 0.1605 0.30309 0.78829 0.0
C552 C 0.11667 0.32286 0.79955 0.0
H553 H 0.19401 0.28587 0.75816 0.0
H554 H 0.18912 0.28071 0.79655 0.0
S555 S 0.00114 0.38907 0.7769 0.0
N556 N 0.03861 0.37416 0.75624 0.0
N557 N 0.03397 0.36909 0.79773 0.0
C558 C 0.07883 0.34994 0.78833 0.0
C559 C 0.08141 0.35274 0.76585 0.0
C560 C 0.17111 0.80562 0.78244 0.0
C561 C 0.18843 0.86046 0.79739 0.0
C562 C 0.1773 0.82035 0.76079 0.0
C563 C 0.20118 0.89066 0.75329 0.0
H564 H 0.15012 0.7504 0.78759 0.0
H565 H 0.15938 0.77563 0.74996 0.0
S566 S 0.25145 0.05293 0.78601 0.0
N567 N 0.22794 -0.01294 0.8032 0.0
N568 N 0.24305 0.01577 0.76267 0.0
C569 C 0.22013 0.9462 0.76816 0.0
C570 C 0.213 0.93095 0.79015 0.0
C571 C 0.68135 0.84448 0.77042 0.0
C572 C 0.65098 0.78742 0.75574 0.0
C573 C 0.67678 0.83123 0.79215 0.0
C574 C 0.64112 0.76032 0.80002 0.0
H575 H 0.71177 0.8998 0.76497 0.0
H576 H 0.705 0.87657 0.80276 0.0
S577 S 0.55351 0.59188 0.76843 0.0
N578 N 0.58553 0.65725 0.75079 0.0
N579 N 0.57416 0.63247 0.79155 0.0
C580 C 0.60874 0.70291 0.78556 0.0
C581 C 0.61406 0.71634 0.76345 0.0
C582 C 0.27677 0.02173 1.00571 0.0
C583 C 0.24984 0.9465 1.00601 0.0
C584 C 0.29618 0.0626 1.02441 0.0
C585 C 0.28897 0.02968 0.04406 0.0
H586 H 0.28606 0.04981 0.99091 0.0
H587 H 0.31823 0.12048 1.02354 0.0
S588 S 0.22504 0.83583 0.05344 0.0
N589 N 0.21871 0.84164 0.02772 0.0
N590 N 0.2565 0.91853 0.06264 0.0
C591 C 0.26244 0.95487 0.04458 0.0
C592 C 0.2427 0.91336 1.02563 0.0
C593 C 0.68706 0.72981 0.50889 0.0
C594 C 0.718 0.68511 0.50914 0.0
C595 C 0.66749 0.75052 0.52761 0.0
C596 C 0.67824 0.72746 0.54725 0.0
H597 H 0.67451 0.74602 0.49413 0.0
H598 H 0.64226 0.78347 0.52676 0.0
S599 S 0.75083 0.60469 0.55641 0.0
N600 N 0.75502 0.6158 0.53067 0.0
N601 N 0.71713 0.65366 0.56577 0.0
C602 C 0.70834 0.68225 0.54773 0.0
C603 C 0.72822 0.66117 0.5287 0.0
C604 C 0.94157 0.22095 1.0083 0.0
C605 C 0.01708 0.2678 1.00842 0.0
C606 C 0.90125 0.20269 0.02701 0.0
C607 C 0.93495 0.2303 0.04647 0.0
H608 H 0.9128 0.20121 0.99361 0.0
H609 H 0.84312 0.16817 1.02625 0.0
S610 S 0.12973 0.35854 0.05524 0.0
N611 N 0.12309 0.34269 0.02971 0.0
N612 N 0.04712 0.30953 0.06467 0.0
C613 C 0.01007 0.277 0.04684 0.0
C614 C 0.05108 0.29552 0.02787 0.0
C615 C 0.29865 0.05803 0.52566 0.0
C616 C 0.28599 0.02416 0.50599 0.0
C617 C 0.27789 0.01737 0.54427 0.0
C618 C 0.24363 0.94133 0.54385 0.0
H619 H 0.32597 0.11643 0.52661 0.0
H620 H 0.29156 0.04594 0.55909 0.0
S621 S 0.20481 0.82755 0.49635 0.0
N622 N 0.24235 0.91091 0.48718 0.0
N623 N 0.20153 0.83437 0.52214 0.0
C624 C 0.2318 0.90706 0.52425 0.0
C625 C 0.25316 0.94845 0.50532 0.0
C626 C 0.71682 0.65675 0.02862 0.0
C627 C 0.69513 0.6693 0.04821 0.0
C628 C 0.69933 0.67951 1.00993 0.0
C629 C 0.65944 0.71568 1.01018 0.0
H630 H 0.74636 0.62794 0.02779 0.0
H631 H 0.71445 0.66581 0.99519 0.0
S632 S 0.58498 0.75608 0.05743 0.0
N633 N 0.62778 0.71569 0.06675 0.0
N634 N 0.59645 0.76013 0.03169 0.0
C635 C 0.63689 0.72777 0.02971 0.0
C636 C 0.65451 0.7044 0.04871 0.0
C637 C 0.05236 0.31568 0.52695 0.0
C638 C 0.01855 0.3065 0.54652 0.0
C639 C 0.01176 0.29358 0.50822 0.0
C640 C 0.93592 0.26208 0.50841 0.0
H641 H 0.11067 0.34167 0.52615 0.0
H642 H 0.04029 0.30455 0.49346 0.0
S643 S 0.82255 0.22989 0.5556 0.0
N644 N 0.90565 0.26614 0.56497 0.0
N645 N 0.82935 0.2244 0.52989 0.0
C646 C 0.90181 0.25275 0.52794 0.0
C647 C 0.94305 0.27487 0.54695 0.0
C648 C 0.59929 0.11476 0.16827 0.0
C649 C 0.6342 0.11722 0.14934 0.0
C650 C 0.52515 0.08907 0.16876 0.0
C651 C 0.48341 0.06531 0.15031 0.0
H652 H 0.62972 0.13535 0.18273 0.0
H653 H 0.50161 0.09256 0.18346 0.0
S654 S 0.54627 0.04729 0.09755 0.0
N655 N 0.61973 0.08382 0.11229 0.0
N656 N 0.47998 0.03567 0.11325 0.0
C657 C 0.51645 0.06163 0.13165 0.0
C658 C 0.59206 0.0879 0.13112 0.0
C659 C 0.53405 0.44026 0.38418 0.0
C660 C 0.55249 0.48156 0.40275 0.0
C661 C 0.48572 0.36597 0.38455 0.0
C662 C 0.45386 0.33043 0.40345 0.0
H663 H 0.56065 0.46428 0.36947 0.0
H664 H 0.47567 0.33588 0.37003 0.0
S665 S 0.47231 0.4168 0.45549 0.0
N666 N 0.52676 0.48371 0.43989 0.0
N667 N 0.43531 0.34372 0.44058 0.0
C668 C 0.46686 0.37207 0.42178 0.0
C669 C 0.51608 0.44784 0.42139 0.0
C670 C 0.86553 0.4191 0.16968 0.0
C671 C 0.88612 0.39852 0.15114 0.0
C672 C 0.839 0.46672 0.16908 0.0
C673 C 0.83257 0.49583 0.14995 0.0
H674 H 0.8652 0.39476 0.18462 0.0
H675 H 0.82091 0.47852 0.18366 0.0
S676 S 0.89409 0.47136 0.09767 0.0
N677 N 0.90925 0.41957 0.11362 0.0
N678 N 0.85939 0.50964 0.11249 0.0
C679 C 0.85899 0.48081 0.13156 0.0
C680 C 0.88621 0.43232 0.13218 0.0
C681 C 0.52498 0.09361 0.41981 0.0
C682 C 0.48839 0.08171 0.4005 0.0
C683 C 0.59922 0.12021 0.42053 0.0
C684 C 0.63964 0.13515 0.402 0.0
H685 H 0.49717 0.08667 0.43459 0.0
H686 H 0.62522 0.13108 0.43578 0.0
S687 S 0.56701 0.09884 0.34747 0.0
N688 N 0.49604 0.07627 0.3625 0.0
N689 N 0.63603 0.12619 0.36374 0.0
C690 C 0.60278 0.11747 0.38258 0.0
C691 C 0.52695 0.09037 0.38188 0.0
C692 C 0.49052 0.34654 0.17137 0.0
C693 C 0.45192 0.31648 0.15267 0.0
C694 C 0.53946 0.42064 0.17296 0.0
C695 C 0.55129 0.46695 0.15588 0.0
H696 H 0.48558 0.31226 0.18453 0.0
H697 H 0.57188 0.44057 0.18709 0.0
S698 S 0.45176 0.41714 0.10522 0.0
N699 N 0.41991 0.34002 0.11802 0.0
N700 N 0.5121 0.47954 0.12102 0.0
C701 C 0.50798 0.43851 0.13785 0.0
C702 C 0.45845 0.36308 0.13619 0.0
C703 C 0.83439 0.47822 0.3839 0.0
C704 C 0.83527 0.51238 0.40285 0.0
C705 C 0.8614 0.43089 0.3829 0.0
C706 C 0.89004 0.41596 0.40086 0.0
H707 H 0.81003 0.48568 0.3699 0.0
H708 H 0.85512 0.40224 0.36831 0.0
S709 S 0.91817 0.50284 0.45318 0.0
N710 N 0.87697 0.53649 0.43917 0.0
N711 N 0.92769 0.44722 0.43728 0.0
C712 C 0.89702 0.45461 0.41942 0.0
C713 C 0.86929 0.50263 0.42046 0.0
C714 C 0.13242 0.63147 0.67124 0.0
C715 C 0.12454 0.66243 0.65268 0.0
C716 C 0.1071 0.55729 0.67242 0.0
C717 C 0.07305 0.51184 0.65508 0.0
H718 H 0.16135 0.66514 0.68459 0.0
H719 H 0.11904 0.53662 0.68646 0.0
S720 S 0.02511 0.56411 0.60463 0.0
N721 N 0.07001 0.64053 0.61786 0.0
N722 N 0.02254 0.50097 0.62011 0.0
C723 C 0.05892 0.54115 0.63718 0.0
C724 C 0.08492 0.61661 0.63593 0.0
C725 C 0.40616 0.84345 0.88133 0.0
C726 C 0.39688 0.88002 0.89834 0.0
C727 C 0.4532 0.81625 0.88284 0.0
C728 C 0.49263 0.82499 0.90134 0.0
H729 H 0.37315 0.83102 0.86732 0.0
H730 H 0.45611 0.78541 0.86976 0.0
S731 S 0.49903 0.93017 0.94852 0.0
N732 N 0.43886 0.93318 0.93294 0.0
N733 N 0.52804 0.88248 0.93573 0.0
C734 C 0.48853 0.86683 0.91775 0.0
C735 C 0.4407 0.89459 0.9162 0.0
C736 C 0.43067 0.56268 0.67116 0.0
C737 C 0.47462 0.57881 0.6533 0.0
C738 C 0.35648 0.51473 0.66994 0.0
C739 C 0.32372 0.48115 0.65084 0.0
H740 H 0.45252 0.59083 0.68585 0.0
H741 H 0.3243 0.50634 0.68391 0.0
S742 S 0.41739 0.49338 0.6007 0.0
N743 N 0.48213 0.54893 0.61681 0.0
N744 N 0.34209 0.45857 0.61451 0.0
C745 C 0.36783 0.49195 0.63332 0.0
C746 C 0.44356 0.54056 0.63459 0.0
C747 C 0.11335 0.59545 0.92358 0.0
C748 C 0.1168 0.63206 0.90496 0.0
C749 C 0.08804 0.52132 0.92343 0.0
C750 C 0.06579 0.48134 0.90459 0.0
H751 H 0.13282 0.62454 0.93828 0.0
H752 H 0.09046 0.49641 0.93799 0.0
S753 S 0.05067 0.549 0.8523 0.0
N754 N 0.08558 0.62085 0.86768 0.0
N755 N 0.03866 0.48136 0.86749 0.0
C756 C 0.06313 0.51602 0.8862 0.0
C757 C 0.08876 0.59153 0.88633 0.0
C758 C 0.43178 0.89875 0.63122 0.0
C759 C 0.40729 0.91364 0.65004 0.0
C760 C 0.47985 0.87266 0.63143 0.0
C761 C 0.50573 0.86096 0.65045 0.0
H762 H 0.41044 0.90297 0.61617 0.0
H763 H 0.49488 0.85946 0.61653 0.0
S764 S 0.46895 0.9046 0.70393 0.0
N765 N 0.42043 0.92465 0.68808 0.0
N766 N 0.51098 0.87545 0.68854 0.0
C767 C 0.48645 0.88132 0.66933 0.0
C768 C 0.43748 0.90809 0.6691 0.0
C769 C 0.42561 0.52031 0.92443 0.0
C770 C 0.46547 0.54425 0.90568 0.0
C771 C 0.35136 0.47201 0.92406 0.0
C772 C 0.31427 0.4455 0.90496 0.0
H773 H 0.4508 0.54251 0.93947 0.0
H774 H 0.3226 0.45765 0.93887 0.0
S775 S 0.3963 0.47973 0.85178 0.0
N776 N 0.46448 0.52931 0.86771 0.0
N777 N 0.32457 0.4382 0.86701 0.0
C778 C 0.35448 0.46382 0.88622 0.0
C779 C 0.43028 0.51298 0.8866 0.0
loop_
_geom_bond_atom_site_label_1
_geom_bond_atom_site_label_2
_geom_bond_distance
_geom_bond_site_symmetry_2
_ccdc_geom_bond_type
Zn0 O1 2.055 . S
Zn0 O8 2.046 . S
Zn0 N16 2.036 . S
Zn0 O28 2.053 . S
Zn0 O30 2.066 . S
O1 Zn0 2.055 . S
O1 C4 1.259 . S
C2 O30 1.256 . S
C2 O31 1.244 . S
Zn3 O5 2.046 . S
Zn3 O7 2.055 . S
Zn3 N9 2.036 . S
Zn3 O27 2.066 . S
Zn3 O31 2.053 . S
C4 O1 1.259 . S
C4 O5 1.254 . S
O5 Zn3 2.046 . S
O5 C4 1.254 . S
C6 O27 1.256 . S
C6 O28 1.244 . S
O7 Zn3 2.055 . S
O7 C29 1.259 . S
O8 Zn0 2.046 . S
O8 C29 1.254 . S
N9 Zn3 2.036 . S
N9 C10 1.298 . S
N9 N12 1.398 . S
C10 N9 1.298 . S
C10 N13 1.367 . S
C10 C23 1.481 . S
C11 N12 1.299 . S
C11 N13 1.379 . S
N12 N9 1.398 . S
N12 C11 1.299 . S
N13 C10 1.367 . S
N13 C11 1.379 . S
C14 N16 1.298 . S
C14 N18 1.367 . S
C14 C22 1.481 . S
C15 N17 1.299 . S
C15 N18 1.379 . S
N16 Zn0 2.036 . S
N16 C14 1.298 . S
N16 N17 1.398 . S
N17 C15 1.299 . S
N17 N16 1.398 . S
N18 C14 1.367 . S
N18 C15 1.379 . S
H19 C22 0.980 . S
H20 C22 0.981 . S
H21 C22 0.981 . S
C22 C14 1.481 . S
C22 H19 0.980 . S
C22 H20 0.981 . S
C22 H21 0.981 . S
C23 C10 1.481 . S
C23 H24 0.980 . S
C23 H25 0.981 . S
C23 H26 0.981 . S
H24 C23 0.980 . S
H25 C23 0.981 . S
H26 C23 0.981 . S
O27 Zn3 2.066 . S
O27 C6 1.256 . S
O28 Zn0 2.053 . S
O28 C6 1.244 . S
C29 O7 1.259 . S
C29 O8 1.254 . S
O30 Zn0 2.066 . S
O30 C2 1.256 . S
O31 C2 1.244 . S
O31 Zn3 2.053 . S
Zn32 O33 2.055 . S
Zn32 O40 2.046 . S
Zn32 N48 2.036 . S
Zn32 O60 2.053 . S
Zn32 O62 2.066 . S
O33 Zn32 2.055 . S
O33 C36 1.259 . S
C34 O62 1.256 . S
C34 O63 1.244 . S
Zn35 O37 2.046 . S
Zn35 O39 2.055 . S
Zn35 N41 2.036 . S
Zn35 O59 2.066 . S
Zn35 O63 2.053 . S
C36 O33 1.259 . S
C36 O37 1.254 . S
O37 Zn35 2.046 . S
O37 C36 1.254 . S
C38 O59 1.256 . S
C38 O60 1.244 . S
O39 Zn35 2.055 . S
O39 C61 1.259 . S
O40 Zn32 2.046 . S
O40 C61 1.254 . S
N41 Zn35 2.036 . S
N41 C42 1.298 . S
N41 N44 1.398 . S
C42 N41 1.298 . S
C42 N45 1.367 . S
C42 C55 1.481 . S
C43 N44 1.299 . S
C43 N45 1.379 . S
N44 N41 1.398 . S
N44 C43 1.299 . S
N45 C42 1.367 . S
N45 C43 1.379 . S
C46 N48 1.298 . S
C46 N50 1.367 . S
C46 C54 1.481 . S
C47 N49 1.299 . S
C47 N50 1.379 . S
N48 Zn32 2.036 . S
N48 C46 1.298 . S
N48 N49 1.398 . S
N49 C47 1.299 . S
N49 N48 1.398 . S
N50 C46 1.367 . S
N50 C47 1.379 . S
H51 C54 0.980 . S
H52 C54 0.981 . S
H53 C54 0.981 . S
C54 C46 1.481 . S
C54 H51 0.980 . S
C54 H52 0.981 . S
C54 H53 0.981 . S
C55 C42 1.481 . S
C55 H56 0.980 . S
C55 H57 0.981 . S
C55 H58 0.981 . S
H56 C55 0.980 . S
H57 C55 0.981 . S
H58 C55 0.981 . S
O59 Zn35 2.066 . S
O59 C38 1.256 . S
O60 Zn32 2.053 . S
O60 C38 1.244 . S
C61 O39 1.259 . S
C61 O40 1.254 . S
O62 Zn32 2.066 . S
O62 C34 1.256 . S
O63 C34 1.244 . S
O63 Zn35 2.053 . S
Zn64 O65 2.055 . S
Zn64 O72 2.046 . S
Zn64 N80 2.036 . S
Zn64 O92 2.053 . S
Zn64 O94 2.066 . S
O65 Zn64 2.055 . S
O65 C68 1.259 . S
C66 O94 1.256 . S
C66 O95 1.244 . S
Zn67 O69 2.046 . S
Zn67 O71 2.055 . S
Zn67 N73 2.036 . S
Zn67 O91 2.066 . S
Zn67 O95 2.053 . S
C68 O65 1.259 . S
C68 O69 1.254 . S
O69 Zn67 2.046 . S
O69 C68 1.254 . S
C70 O91 1.256 . S
C70 O92 1.244 . S
O71 Zn67 2.055 . S
O71 C93 1.259 . S
O72 Zn64 2.046 . S
O72 C93 1.254 . S
N73 Zn67 2.036 . S
N73 C74 1.298 . S
N73 N76 1.398 . S
C74 N73 1.298 . S
C74 N77 1.367 . S
C74 C87 1.481 . S
C75 N76 1.299 . S
C75 N77 1.379 . S
N76 N73 1.398 . S
N76 C75 1.299 . S
N77 C74 1.367 . S
N77 C75 1.379 . S
C78 N80 1.298 . S
C78 N82 1.367 . S
C78 C86 1.481 . S
C79 N81 1.299 . S
C79 N82 1.379 . S
N80 Zn64 2.036 . S
N80 C78 1.298 . S
N80 N81 1.398 . S
N81 C79 1.299 . S
N81 N80 1.398 . S
N82 C78 1.367 . S
N82 C79 1.379 . S
H83 C86 0.980 . S
H84 C86 0.981 . S
H85 C86 0.981 . S
C86 C78 1.481 . S
C86 H83 0.980 . S
C86 H84 0.981 . S
C86 H85 0.981 . S
C87 C74 1.481 . S
C87 H88 0.980 . S
C87 H89 0.981 . S
C87 H90 0.981 . S
H88 C87 0.980 . S
H89 C87 0.981 . S
H90 C87 0.981 . S
O91 Zn67 2.066 . S
O91 C70 1.256 . S
O92 Zn64 2.053 . S
O92 C70 1.244 . S
C93 O71 1.259 . S
C93 O72 1.254 . S
O94 Zn64 2.066 . S
O94 C66 1.256 . S
O95 C66 1.244 . S
O95 Zn67 2.053 . S
Zn96 O97 2.055 . S
Zn96 O104 2.046 . S
Zn96 N112 2.036 . S
Zn96 O124 2.053 . S
Zn96 O126 2.066 . S
O97 Zn96 2.055 . S
O97 C100 1.259 . S
C98 O126 1.256 . S
C98 O127 1.244 . S
Zn99 O101 2.046 . S
Zn99 O103 2.055 . S
Zn99 N105 2.036 . S
Zn99 O123 2.066 . S
Zn99 O127 2.053 . S
C100 O97 1.259 . S
C100 O101 1.254 . S
O101 Zn99 2.046 . S
O101 C100 1.254 . S
C102 O123 1.256 . S
C102 O124 1.244 . S
O103 Zn99 2.055 . S
O103 C125 1.259 . S
O104 Zn96 2.046 . S
O104 C125 1.254 . S
N105 Zn99 2.036 . S
N105 C106 1.298 . S
N105 N108 1.398 . S
C106 N105 1.298 . S
C106 N109 1.367 . S
C106 C119 1.481 . S
C107 N108 1.299 . S
C107 N109 1.379 . S
N108 N105 1.398 . S
N108 C107 1.299 . S
N109 C106 1.367 . S
N109 C107 1.379 . S
C110 N112 1.298 . S
C110 N114 1.367 . S
C110 C118 1.481 . S
C111 N113 1.299 . S
C111 N114 1.379 . S
N112 Zn96 2.036 . S
N112 C110 1.298 . S
N112 N113 1.398 . S
N113 C111 1.299 . S
N113 N112 1.398 . S
N114 C110 1.367 . S
N114 C111 1.379 . S
H115 C118 0.980 . S
H116 C118 0.981 . S
H117 C118 0.981 . S
C118 C110 1.481 . S
C118 H115 0.980 . S
C118 H116 0.981 . S
C118 H117 0.981 . S
C119 C106 1.481 . S
C119 H120 0.980 . S
C119 H121 0.981 . S
C119 H122 0.981 . S
H120 C119 0.980 . S
H121 C119 0.981 . S
H122 C119 0.981 . S
O123 Zn99 2.066 . S
O123 C102 1.256 . S
O124 Zn96 2.053 . S
O124 C102 1.244 . S
C125 O103 1.259 . S
C125 O104 1.254 . S
O126 Zn96 2.066 . S
O126 C98 1.256 . S
O127 C98 1.244 . S
O127 Zn99 2.053 . S
Zn128 O129 2.055 . S
Zn128 O136 2.046 . S
Zn128 N144 2.036 . S
Zn128 O156 2.053 . S
Zn128 O158 2.066 . S
O129 Zn128 2.055 . S
O129 C132 1.259 . S
C130 O158 1.256 . S
C130 O159 1.244 . S
Zn131 O133 2.046 . S
Zn131 O135 2.055 . S
Zn131 N137 2.036 . S
Zn131 O155 2.066 . S
Zn131 O159 2.053 . S
C132 O129 1.259 . S
C132 O133 1.254 . S
O133 Zn131 2.046 . S
O133 C132 1.254 . S
C134 O155 1.256 . S
C134 O156 1.244 . S
O135 Zn131 2.055 . S
O135 C157 1.259 . S
O136 Zn128 2.046 . S
O136 C157 1.254 . S
N137 Zn131 2.036 . S
N137 C138 1.298 . S
N137 N140 1.398 . S
C138 N137 1.298 . S
C138 N141 1.367 . S
C138 C151 1.481 . S
C139 N140 1.299 . S
C139 N141 1.379 . S
N140 N137 1.398 . S
N140 C139 1.299 . S
N141 C138 1.367 . S
N141 C139 1.379 . S
C142 N144 1.298 . S
C142 N146 1.367 . S
C142 C150 1.481 . S
C143 N145 1.299 . S
C143 N146 1.379 . S
N144 Zn128 2.036 . S
N144 C142 1.298 . S
N144 N145 1.398 . S
N145 C143 1.299 . S
N145 N144 1.398 . S
N146 C142 1.367 . S
N146 C143 1.379 . S
H147 C150 0.980 . S
H148 C150 0.981 . S
H149 C150 0.981 . S
C150 C142 1.481 . S
C150 H147 0.980 . S
C150 H148 0.981 . S
C150 H149 0.981 . S
C151 C138 1.481 . S
C151 H152 0.980 . S
C151 H153 0.981 . S
C151 H154 0.981 . S
H152 C151 0.980 . S
H153 C151 0.981 . S
H154 C151 0.981 . S
O155 Zn131 2.066 . S
O155 C134 1.256 . S
O156 Zn128 2.053 . S
O156 C134 1.244 . S
C157 O135 1.259 . S
C157 O136 1.254 . S
O158 Zn128 2.066 . S
O158 C130 1.256 . S
O159 C130 1.244 . S
O159 Zn131 2.053 . S
Zn160 O161 2.055 . S
Zn160 O168 2.046 . S
Zn160 N176 2.036 . S
Zn160 O188 2.053 . S
Zn160 O190 2.066 . S
O161 Zn160 2.055 . S
O161 C164 1.259 . S
C162 O190 1.256 . S
C162 O191 1.244 . S
Zn163 O165 2.046 . S
Zn163 O167 2.055 . S
Zn163 N169 2.036 . S
Zn163 O187 2.066 . S
Zn163 O191 2.053 . S
C164 O161 1.259 . S
C164 O165 1.254 . S
O165 Zn163 2.046 . S
O165 C164 1.254 . S
C166 O187 1.256 . S
C166 O188 1.244 . S
O167 Zn163 2.055 . S
O167 C189 1.259 . S
O168 Zn160 2.046 . S
O168 C189 1.254 . S
N169 Zn163 2.036 . S
N169 C170 1.298 . S
N169 N172 1.398 . S
C170 N169 1.298 . S
C170 N173 1.367 . S
C170 C183 1.481 . S
C171 N172 1.299 . S
C171 N173 1.379 . S
N172 N169 1.398 . S
N172 C171 1.299 . S
N173 C170 1.367 . S
N173 C171 1.379 . S
C174 N176 1.298 . S
C174 N178 1.367 . S
C174 C182 1.481 . S
C175 N177 1.299 . S
C175 N178 1.379 . S
N176 Zn160 2.036 . S
N176 C174 1.298 . S
N176 N177 1.398 . S
N177 C175 1.299 . S
N177 N176 1.398 . S
N178 C174 1.367 . S
N178 C175 1.379 . S
H179 C182 0.980 . S
H180 C182 0.981 . S
H181 C182 0.981 . S
C182 C174 1.481 . S
C182 H179 0.980 . S
C182 H180 0.981 . S
C182 H181 0.981 . S
C183 C170 1.481 . S
C183 H184 0.980 . S
C183 H185 0.981 . S
C183 H186 0.981 . S
H184 C183 0.980 . S
H185 C183 0.981 . S
H186 C183 0.981 . S
O187 Zn163 2.066 . S
O187 C166 1.256 . S
O188 Zn160 2.053 . S
O188 C166 1.244 . S
C189 O167 1.259 . S
C189 O168 1.254 . S
O190 Zn160 2.066 . S
O190 C162 1.256 . S
O191 C162 1.244 . S
O191 Zn163 2.053 . S
Zn192 O193 2.055 . S
Zn192 O200 2.046 . S
Zn192 N208 2.036 . S
Zn192 O220 2.053 . S
Zn192 O222 2.066 . S
O193 Zn192 2.055 . S
O193 C196 1.259 . S
C194 O222 1.256 . S
C194 O223 1.244 . S
Zn195 O197 2.046 . S
Zn195 O199 2.055 . S
Zn195 N201 2.036 . S
Zn195 O219 2.066 . S
Zn195 O223 2.053 . S
C196 O193 1.259 . S
C196 O197 1.254 . S
O197 Zn195 2.046 . S
O197 C196 1.254 . S
C198 O219 1.256 . S
C198 O220 1.244 . S
O199 Zn195 2.055 . S
O199 C221 1.259 . S
O200 Zn192 2.046 . S
O200 C221 1.254 . S
N201 Zn195 2.036 . S
N201 C202 1.298 . S
N201 N204 1.398 . S
C202 N201 1.298 . S
C202 N205 1.367 . S
C202 C215 1.481 . S
C203 N204 1.299 . S
C203 N205 1.379 . S
N204 N201 1.398 . S
N204 C203 1.299 . S
N205 C202 1.367 . S
N205 C203 1.379 . S
C206 N208 1.298 . S
C206 N210 1.367 . S
C206 C214 1.481 . S
C207 N209 1.299 . S
C207 N210 1.379 . S
N208 Zn192 2.036 . S
N208 C206 1.298 . S
N208 N209 1.398 . S
N209 C207 1.299 . S
N209 N208 1.398 . S
N210 C206 1.367 . S
N210 C207 1.379 . S
H211 C214 0.980 . S
H212 C214 0.981 . S
H213 C214 0.981 . S
C214 C206 1.481 . S
C214 H211 0.980 . S
C214 H212 0.981 . S
C214 H213 0.981 . S
C215 C202 1.481 . S
C215 H216 0.980 . S
C215 H217 0.981 . S
C215 H218 0.981 . S
H216 C215 0.980 . S
H217 C215 0.981 . S
H218 C215 0.981 . S
O219 Zn195 2.066 . S
O219 C198 1.256 . S
O220 Zn192 2.053 . S
O220 C198 1.244 . S
C221 O199 1.259 . S
C221 O200 1.254 . S
O222 Zn192 2.066 . S
O222 C194 1.256 . S
O223 C194 1.244 . S
O223 Zn195 2.053 . S
Zn224 O225 2.055 . S
Zn224 O232 2.046 . S
Zn224 N240 2.036 . S
Zn224 O252 2.053 . S
Zn224 O254 2.066 . S
O225 Zn224 2.055 . S
O225 C228 1.259 . S
C226 O254 1.256 . S
C226 O255 1.244 . S
Zn227 O229 2.046 . S
Zn227 O231 2.055 . S
Zn227 N233 2.036 . S
Zn227 O251 2.066 . S
Zn227 O255 2.053 . S
C228 O225 1.259 . S
C228 O229 1.254 . S
O229 Zn227 2.046 . S
O229 C228 1.254 . S
C230 O251 1.256 . S
C230 O252 1.244 . S
O231 Zn227 2.055 . S
O231 C253 1.259 . S
O232 Zn224 2.046 . S
O232 C253 1.254 . S
N233 Zn227 2.036 . S
N233 C234 1.298 . S
N233 N236 1.398 . S
C234 N233 1.298 . S
C234 N237 1.367 . S
C234 C247 1.481 . S
C235 N236 1.299 . S
C235 N237 1.379 . S
N236 N233 1.398 . S
N236 C235 1.299 . S
N237 C234 1.367 . S
N237 C235 1.379 . S
C238 N240 1.298 . S
C238 N242 1.367 . S
C238 C246 1.481 . S
C239 N241 1.299 . S
C239 N242 1.379 . S
N240 Zn224 2.036 . S
N240 C238 1.298 . S
N240 N241 1.398 . S
N241 C239 1.299 . S
N241 N240 1.398 . S
N242 C238 1.367 . S
N242 C239 1.379 . S
H243 C246 0.980 . S
H244 C246 0.981 . S
H245 C246 0.981 . S
C246 C238 1.481 . S
C246 H243 0.980 . S
C246 H244 0.981 . S
C246 H245 0.981 . S
C247 C234 1.481 . S
C247 H248 0.980 . S
C247 H249 0.981 . S
C247 H250 0.981 . S
H248 C247 0.980 . S
H249 C247 0.981 . S
H250 C247 0.981 . S
O251 Zn227 2.066 . S
O251 C230 1.256 . S
O252 Zn224 2.053 . S
O252 C230 1.244 . S
C253 O231 1.259 . S
C253 O232 1.254 . S
O254 Zn224 2.066 . S
O254 C226 1.256 . S
O255 C226 1.244 . S
O255 Zn227 2.053 . S
Zn256 O257 2.055 . S
Zn256 O264 2.046 . S
Zn256 N272 2.036 . S
Zn256 O284 2.053 . S
Zn256 O286 2.066 . S
O257 Zn256 2.055 . S
O257 C260 1.259 . S
C258 O286 1.256 . S
C258 O287 1.244 . S
Zn259 O261 2.046 . S
Zn259 O263 2.055 . S
Zn259 N265 2.036 . S
Zn259 O283 2.066 . S
Zn259 O287 2.053 . S
C260 O257 1.259 . S
C260 O261 1.254 . S
O261 Zn259 2.046 . S
O261 C260 1.254 . S
C262 O283 1.256 . S
C262 O284 1.244 . S
O263 Zn259 2.055 . S
O263 C285 1.259 . S
O264 Zn256 2.046 . S
O264 C285 1.254 . S
N265 Zn259 2.036 . S
N265 C266 1.298 . S
N265 N268 1.398 . S
C266 N265 1.298 . S
C266 N269 1.367 . S
C266 C279 1.481 . S
C267 N268 1.299 . S
C267 N269 1.379 . S
N268 N265 1.398 . S
N268 C267 1.299 . S
N269 C266 1.367 . S
N269 C267 1.379 . S
C270 N272 1.298 . S
C270 N274 1.367 . S
C270 C278 1.481 . S
C271 N273 1.299 . S
C271 N274 1.379 . S
N272 Zn256 2.036 . S
N272 C270 1.298 . S
N272 N273 1.398 . S
N273 C271 1.299 . S
N273 N272 1.398 . S
N274 C270 1.367 . S
N274 C271 1.379 . S
H275 C278 0.980 . S
H276 C278 0.981 . S
H277 C278 0.981 . S
C278 C270 1.481 . S
C278 H275 0.980 . S
C278 H276 0.981 . S
C278 H277 0.981 . S
C279 C266 1.481 . S
C279 H280 0.980 . S
C279 H281 0.981 . S
C279 H282 0.981 . S
H280 C279 0.980 . S
H281 C279 0.981 . S
H282 C279 0.981 . S
O283 Zn259 2.066 . S
O283 C262 1.256 . S
O284 Zn256 2.053 . S
O284 C262 1.244 . S
C285 O263 1.259 . S
C285 O264 1.254 . S
O286 Zn256 2.066 . S
O286 C258 1.256 . S
O287 C258 1.244 . S
O287 Zn259 2.053 . S
Zn288 O289 2.055 . S
Zn288 O296 2.046 . S
Zn288 N304 2.036 . S
Zn288 O316 2.053 . S
Zn288 O318 2.066 . S
O289 Zn288 2.055 . S
O289 C292 1.259 . S
C290 O318 1.256 . S
C290 O319 1.244 . S
Zn291 O293 2.046 . S
Zn291 O295 2.055 . S
Zn291 N297 2.036 . S
Zn291 O315 2.066 . S
Zn291 O319 2.053 . S
C292 O289 1.259 . S
C292 O293 1.254 . S
O293 Zn291 2.046 . S
O293 C292 1.254 . S
C294 O315 1.256 . S
C294 O316 1.244 . S
O295 Zn291 2.055 . S
O295 C317 1.259 . S
O296 Zn288 2.046 . S
O296 C317 1.254 . S
N297 Zn291 2.036 . S
N297 C298 1.298 . S
N297 N300 1.398 . S
C298 N297 1.298 . S
C298 N301 1.367 . S
C298 C311 1.481 . S
C299 N300 1.299 . S
C299 N301 1.379 . S
N300 N297 1.398 . S
N300 C299 1.299 . S
N301 C298 1.367 . S
N301 C299 1.379 . S
C302 N304 1.298 . S
C302 N306 1.367 . S
C302 C310 1.481 . S
C303 N305 1.299 . S
C303 N306 1.379 . S
N304 Zn288 2.036 . S
N304 C302 1.298 . S
N304 N305 1.398 . S
N305 C303 1.299 . S
N305 N304 1.398 . S
N306 C302 1.367 . S
N306 C303 1.379 . S
H307 C310 0.980 . S
H308 C310 0.981 . S
H309 C310 0.981 . S
C310 C302 1.481 . S
C310 H307 0.980 . S
C310 H308 0.981 . S
C310 H309 0.981 . S
C311 C298 1.481 . S
C311 H312 0.980 . S
C311 H313 0.981 . S
C311 H314 0.981 . S
H312 C311 0.980 . S
H313 C311 0.981 . S
H314 C311 0.981 . S
O315 Zn291 2.066 . S
O315 C294 1.256 . S
O316 Zn288 2.053 . S
O316 C294 1.244 . S
C317 O295 1.259 . S
C317 O296 1.254 . S
O318 Zn288 2.066 . S
O318 C290 1.256 . S
O319 C290 1.244 . S
O319 Zn291 2.053 . S
Zn320 O321 2.055 . S
Zn320 O328 2.046 . S
Zn320 N336 2.036 . S
Zn320 O348 2.053 . S
Zn320 O350 2.066 . S
O321 Zn320 2.055 . S
O321 C324 1.259 . S
C322 O350 1.256 . S
C322 O351 1.244 . S
Zn323 O325 2.046 . S
Zn323 O327 2.055 . S
Zn323 N329 2.036 . S
Zn323 O347 2.066 . S
Zn323 O351 2.053 . S
C324 O321 1.259 . S
C324 O325 1.254 . S
O325 Zn323 2.046 . S
O325 C324 1.254 . S
C326 O347 1.256 . S
C326 O348 1.244 . S
O327 Zn323 2.055 . S
O327 C349 1.259 . S
O328 Zn320 2.046 . S
O328 C349 1.254 . S
N329 Zn323 2.036 . S
N329 C330 1.298 . S
N329 N332 1.398 . S
C330 N329 1.298 . S
C330 N333 1.367 . S
C330 C343 1.481 . S
C331 N332 1.299 . S
C331 N333 1.379 . S
N332 N329 1.398 . S
N332 C331 1.299 . S
N333 C330 1.367 . S
N333 C331 1.379 . S
C334 N336 1.298 . S
C334 N338 1.367 . S
C334 C342 1.481 . S
C335 N337 1.299 . S
C335 N338 1.379 . S
N336 Zn320 2.036 . S
N336 C334 1.298 . S
N336 N337 1.398 . S
N337 C335 1.299 . S
N337 N336 1.398 . S
N338 C334 1.367 . S
N338 C335 1.379 . S
H339 C342 0.980 . S
H340 C342 0.981 . S
H341 C342 0.981 . S
C342 C334 1.481 . S
C342 H339 0.980 . S
C342 H340 0.981 . S
C342 H341 0.981 . S
C343 C330 1.481 . S
C343 H344 0.980 . S
C343 H345 0.981 . S
C343 H346 0.981 . S
H344 C343 0.980 . S
H345 C343 0.981 . S
H346 C343 0.981 . S
O347 Zn323 2.066 . S
O347 C326 1.256 . S
O348 Zn320 2.053 . S
O348 C326 1.244 . S
C349 O327 1.259 . S
C349 O328 1.254 . S
O350 Zn320 2.066 . S
O350 C322 1.256 . S
O351 C322 1.244 . S
O351 Zn323 2.053 . S
Zn352 O353 2.055 . S
Zn352 O360 2.046 . S
Zn352 N368 2.036 . S
Zn352 O380 2.053 . S
Zn352 O382 2.066 . S
O353 Zn352 2.055 . S
O353 C356 1.259 . S
C354 O382 1.256 . S
C354 O383 1.244 . S
Zn355 O357 2.046 . S
Zn355 O359 2.055 . S
Zn355 N361 2.036 . S
Zn355 O379 2.066 . S
Zn355 O383 2.053 . S
C356 O353 1.259 . S
C356 O357 1.254 . S
O357 Zn355 2.046 . S
O357 C356 1.254 . S
C358 O379 1.256 . S
C358 O380 1.244 . S
O359 Zn355 2.055 . S
O359 C381 1.259 . S
O360 Zn352 2.046 . S
O360 C381 1.254 . S
N361 Zn355 2.036 . S
N361 C362 1.298 . S
N361 N364 1.398 . S
C362 N361 1.298 . S
C362 N365 1.367 . S
C362 C375 1.481 . S
C363 N364 1.299 . S
C363 N365 1.379 . S
N364 N361 1.398 . S
N364 C363 1.299 . S
N365 C362 1.367 . S
N365 C363 1.379 . S
C366 N368 1.298 . S
C366 N370 1.367 . S
C366 C374 1.481 . S
C367 N369 1.299 . S
C367 N370 1.379 . S
N368 Zn352 2.036 . S
N368 C366 1.298 . S
N368 N369 1.398 . S
N369 C367 1.299 . S
N369 N368 1.398 . S
N370 C366 1.367 . S
N370 C367 1.379 . S
H371 C374 0.980 . S
H372 C374 0.981 . S
H373 C374 0.981 . S
C374 C366 1.481 . S
C374 H371 0.980 . S
C374 H372 0.981 . S
C374 H373 0.981 . S
C375 C362 1.481 . S
C375 H376 0.980 . S
C375 H377 0.981 . S
C375 H378 0.981 . S
H376 C375 0.980 . S
H377 C375 0.981 . S
H378 C375 0.981 . S
O379 Zn355 2.066 . S
O379 C358 1.256 . S
O380 Zn352 2.053 . S
O380 C358 1.244 . S
C381 O359 1.259 . S
C381 O360 1.254 . S
O382 Zn352 2.066 . S
O382 C354 1.256 . S
O383 C354 1.244 . S
O383 Zn355 2.053 . S
C384 C385 1.369 . S
C384 C386 1.419 . S
C384 H388 0.930 1_455 S
C385 C384 1.369 . S
C385 C394 1.429 . S
C386 C384 1.419 . S
C386 C387 1.363 . S
C386 H389 0.929 . S
C387 C386 1.363 . S
C387 C393 1.428 . S
H388 C384 0.930 1_655 S
H389 C386 0.929 . S
S390 N391 1.613 . S
S390 N392 1.610 . S
N391 S390 1.613 . S
N391 C394 1.350 . S
N392 S390 1.610 . S
N392 C393 1.351 . S
C393 C387 1.428 . S
C393 N392 1.351 . S
C393 C394 1.434 . S
C394 C385 1.429 . S
C394 N391 1.350 . S
C394 C393 1.434 . S
C395 C396 1.369 . S
C395 C397 1.419 . S
C395 H399 0.930 . S
C396 C395 1.369 . S
C396 C405 1.429 . S
C397 C395 1.419 . S
C397 C398 1.363 . S
C397 H400 0.929 . S
C398 C397 1.363 . S
C398 C404 1.428 . S
H399 C395 0.930 . S
H400 C397 0.929 . S
S401 N402 1.613 . S
S401 N403 1.610 . S
N402 S401 1.613 . S
N402 C405 1.350 . S
N403 S401 1.610 . S
N403 C404 1.351 . S
C404 C398 1.428 . S
C404 N403 1.351 . S
C404 C405 1.434 . S
C405 C396 1.429 . S
C405 N402 1.350 . S
C405 C404 1.434 . S
C406 C407 1.369 . S
C406 C408 1.419 . S
C406 H410 0.929 1_565 S
C407 C406 1.369 . S
C407 C416 1.429 . S
C408 C406 1.419 . S
C408 C409 1.363 . S
C408 H411 0.929 . S
C409 C408 1.363 . S
C409 C415 1.428 . S
H410 C406 0.929 1_545 S
H411 C408 0.929 . S
S412 N413 1.613 . S
S412 N414 1.610 . S
N413 S412 1.613 . S
N413 C416 1.350 . S
N414 S412 1.610 . S
N414 C415 1.351 . S
C415 C409 1.428 . S
C415 N414 1.351 . S
C415 C416 1.434 . S
C416 C407 1.429 . S
C416 N413 1.350 . S
C416 C415 1.434 . S
C417 C418 1.369 . S
C417 C419 1.419 . S
C417 H421 0.930 . S
C418 C417 1.369 . S
C418 C427 1.429 . S
C419 C417 1.419 . S
C419 C420 1.363 . S
C419 H422 0.929 . S
C420 C419 1.363 . S
C420 C426 1.428 . S
H421 C417 0.930 . S
H422 C419 0.929 . S
S423 N424 1.613 . S
S423 N425 1.610 . S
N424 S423 1.613 . S
N424 C427 1.350 . S
N425 S423 1.610 . S
N425 C426 1.351 . S
C426 C420 1.428 . S
C426 N425 1.351 . S
C426 C427 1.434 . S
C427 C418 1.429 . S
C427 N424 1.350 . S
C427 C426 1.434 . S
C428 C429 1.369 . S
C428 C430 1.419 . S
C428 H432 0.930 . S
C429 C428 1.369 . S
C429 C438 1.429 . S
C430 C428 1.419 . S
C430 C431 1.363 . S
C430 H433 0.929 . S
C431 C430 1.363 . S
C431 C437 1.428 . S
H432 C428 0.930 . S
H433 C430 0.929 . S
S434 N435 1.613 . S
S434 N436 1.610 . S
N435 S434 1.613 . S
N435 C438 1.350 . S
N436 S434 1.610 . S
N436 C437 1.351 . S
C437 C431 1.428 . S
C437 N436 1.351 . S
C437 C438 1.434 . S
C438 C429 1.429 . S
C438 N435 1.350 . S
C438 C437 1.434 . S
C439 C440 1.369 . S
C439 C441 1.419 . S
C439 H443 0.930 . S
C440 C439 1.369 . S
C440 C449 1.429 . S
C441 C439 1.419 . S
C441 C442 1.363 . S
C441 H444 0.929 . S
C442 C441 1.363 . S
C442 C448 1.428 . S
H443 C439 0.930 . S
H444 C441 0.929 . S
S445 N446 1.613 . S
S445 N447 1.610 1_565 S
N446 S445 1.613 . S
N446 C449 1.350 . S
N447 S445 1.610 1_545 S
N447 C448 1.351 1_545 S
C448 C442 1.428 . S
C448 N447 1.351 1_565 S
C448 C449 1.434 . S
C449 C440 1.429 . S
C449 N446 1.350 . S
C449 C448 1.434 . S
C450 C451 1.369 . S
C450 C452 1.419 . S
C450 H454 0.930 1_545 S
C451 C450 1.369 . S
C451 C460 1.429 . S
C452 C450 1.419 . S
C452 C453 1.363 . S
C452 H455 0.929 . S
C453 C452 1.363 . S
C453 C459 1.428 . S
H454 C450 0.930 1_565 S
H455 C452 0.929 . S
S456 N457 1.613 . S
S456 N458 1.610 . S
N457 S456 1.613 . S
N457 C460 1.350 . S
N458 S456 1.610 . S
N458 C459 1.351 . S
C459 C453 1.428 . S
C459 N458 1.351 . S
C459 C460 1.434 . S
C460 C451 1.429 . S
C460 N457 1.350 . S
C460 C459 1.434 . S
C461 C462 1.369 . S
C461 C463 1.419 . S
C461 H465 0.930 1_655 S
C462 C461 1.369 . S
C462 C471 1.429 . S
C463 C461 1.419 . S
C463 C464 1.363 . S
C463 H466 0.929 . S
C464 C463 1.363 . S
C464 C470 1.428 . S
H465 C461 0.930 1_455 S
H466 C463 0.929 . S
S467 N468 1.613 . S
S467 N469 1.610 . S
N468 S467 1.613 . S
N468 C471 1.350 . S
N469 S467 1.610 . S
N469 C470 1.351 . S
C470 C464 1.428 . S
C470 N469 1.351 . S
C470 C471 1.434 . S
C471 C462 1.429 . S
C471 N468 1.350 . S
C471 C470 1.434 . S
C472 C473 1.369 . S
C472 C474 1.419 . S
C472 H476 0.930 . S
C473 C472 1.369 . S
C473 C482 1.429 . S
C474 C472 1.419 . S
C474 C475 1.363 . S
C474 H477 0.929 . S
C475 C474 1.363 . S
C475 C481 1.428 . S
H476 C472 0.930 . S
H477 C474 0.929 . S
S478 N479 1.613 . S
S478 N480 1.610 . S
N479 S478 1.613 . S
N479 C482 1.350 . S
N480 S478 1.610 . S
N480 C481 1.351 . S
C481 C475 1.428 . S
C481 N480 1.351 . S
C481 C482 1.434 . S
C482 C473 1.429 . S
C482 N479 1.350 . S
C482 C481 1.434 . S
C483 C484 1.369 . S
C483 C485 1.419 . S
C483 H487 0.930 . S
C484 C483 1.369 . S
C484 C493 1.429 . S
C485 C483 1.419 . S
C485 C486 1.363 . S
C485 H488 0.929 . S
C486 C485 1.363 . S
C486 C492 1.428 . S
H487 C483 0.930 . S
H488 C485 0.929 . S
S489 N490 1.613 . S
S489 N491 1.610 . S
N490 S489 1.613 . S
N490 C493 1.350 . S
N491 S489 1.610 . S
N491 C492 1.351 . S
C492 C486 1.428 . S
C492 N491 1.351 . S
C492 C493 1.434 . S
C493 C484 1.429 . S
C493 N490 1.350 . S
C493 C492 1.434 . S
C494 C495 1.369 . S
C494 C496 1.419 . S
C494 H498 0.930 . S
C495 C494 1.369 . S
C495 C504 1.429 . S
C496 C494 1.419 . S
C496 C497 1.363 . S
C496 H499 0.929 . S
C497 C496 1.363 . S
C497 C503 1.428 . S
H498 C494 0.930 . S
H499 C496 0.929 . S
S500 N501 1.613 . S
S500 N502 1.610 . S
N501 S500 1.613 . S
N501 C504 1.350 . S
N502 S500 1.610 . S
N502 C503 1.351 . S
C503 C497 1.428 . S
C503 N502 1.351 . S
C503 C504 1.434 . S
C504 C495 1.429 . S
C504 N501 1.350 . S
C504 C503 1.434 . S
C505 C506 1.369 . S
C505 C507 1.419 . S
C505 H509 0.930 . S
C506 C505 1.369 . S
C506 C515 1.429 . S
C507 C505 1.419 . S
C507 C508 1.363 . S
C507 H510 0.929 . S
C508 C507 1.363 . S
C508 C514 1.428 . S
H509 C505 0.930 . S
H510 C507 0.929 . S
S511 N512 1.613 . S
S511 N513 1.610 . S
N512 S511 1.613 . S
N512 C515 1.350 . S
N513 S511 1.610 . S
N513 C514 1.351 . S
C514 C508 1.428 . S
C514 N513 1.351 . S
C514 C515 1.434 . S
C515 C506 1.429 . S
C515 N512 1.350 . S
C515 C514 1.434 . S
C516 C517 1.369 . S
C516 C518 1.419 . S
C516 H520 0.930 . S
C517 C516 1.369 . S
C517 C526 1.429 . S
C518 C516 1.419 . S
C518 C519 1.363 . S
C518 H521 0.929 . S
C519 C518 1.363 . S
C519 C525 1.428 . S
H520 C516 0.930 . S
H521 C518 0.929 . S
S522 N523 1.613 . S
S522 N524 1.610 . S
N523 S522 1.613 . S
N523 C526 1.350 . S
N524 S522 1.610 . S
N524 C525 1.351 . S
C525 C519 1.428 . S
C525 N524 1.351 . S
C525 C526 1.434 . S
C526 C517 1.429 . S
C526 N523 1.350 . S
C526 C525 1.434 . S
C527 C528 1.369 . S
C527 C529 1.419 . S
C527 H531 0.930 . S
C528 C527 1.369 . S
C528 C537 1.429 . S
C529 C527 1.419 . S
C529 C530 1.363 . S
C529 H532 0.929 . S
C530 C529 1.363 . S
C530 C536 1.428 . S
H531 C527 0.930 . S
H532 C529 0.929 . S
S533 N534 1.613 . S
S533 N535 1.610 . S
N534 S533 1.613 . S
N534 C537 1.350 . S
N535 S533 1.610 . S
N535 C536 1.351 . S
C536 C530 1.428 . S
C536 N535 1.351 . S
C536 C537 1.434 . S
C537 C528 1.429 . S
C537 N534 1.350 . S
C537 C536 1.434 . S
C538 C539 1.369 . S
C538 C540 1.419 . S
C538 H542 0.930 . S
C539 C538 1.369 . S
C539 C548 1.429 . S
C540 C538 1.419 . S
C540 C541 1.363 . S
C540 H543 0.929 . S
C541 C540 1.363 . S
C541 C547 1.428 . S
H542 C538 0.930 . S
H543 C540 0.929 . S
S544 N545 1.613 . S
S544 N546 1.610 . S
N545 S544 1.613 . S
N545 C548 1.350 . S
N546 S544 1.610 . S
N546 C547 1.351 . S
C547 C541 1.428 . S
C547 N546 1.351 . S
C547 C548 1.434 . S
C548 C539 1.429 . S
C548 N545 1.350 . S
C548 C547 1.434 . S
C549 C550 1.369 . S
C549 C551 1.419 . S
C549 H553 0.930 . S
C550 C549 1.369 . S
C550 C559 1.429 . S
C551 C549 1.419 . S
C551 C552 1.363 . S
C551 H554 0.929 . S
C552 C551 1.363 . S
C552 C558 1.428 . S
H553 C549 0.930 . S
H554 C551 0.929 . S
S555 N556 1.613 . S
S555 N557 1.610 . S
N556 S555 1.613 . S
N556 C559 1.350 . S
N557 S555 1.610 . S
N557 C558 1.351 . S
C558 C552 1.428 . S
C558 N557 1.351 . S
C558 C559 1.434 . S
C559 C550 1.429 . S
C559 N556 1.350 . S
C559 C558 1.434 . S
C560 C561 1.369 . S
C560 C562 1.419 . S
C560 H564 0.930 . S
C561 C560 1.369 . S
C561 C570 1.429 . S
C562 C560 1.419 . S
C562 C563 1.363 . S
C562 H565 0.929 . S
C563 C562 1.363 . S
C563 C569 1.428 . S
H564 C560 0.930 . S
H565 C562 0.929 . S
S566 N567 1.613 1_545 S
S566 N568 1.610 1_545 S
N567 S566 1.613 1_565 S
N567 C570 1.350 . S
N568 S566 1.610 1_565 S
N568 C569 1.351 . S
C569 C563 1.428 . S
C569 N568 1.351 . S
C569 C570 1.434 . S
C570 C561 1.429 . S
C570 N567 1.350 . S
C570 C569 1.434 . S
C571 C572 1.369 . S
C571 C573 1.419 . S
C571 H575 0.930 . S
C572 C571 1.369 . S
C572 C581 1.429 . S
C573 C571 1.419 . S
C573 C574 1.363 . S
C573 H576 0.929 . S
C574 C573 1.363 . S
C574 C580 1.428 . S
H575 C571 0.930 . S
H576 C573 0.929 . S
S577 N578 1.613 . S
S577 N579 1.610 . S
N578 S577 1.613 . S
N578 C581 1.350 . S
N579 S577 1.610 . S
N579 C580 1.351 . S
C580 C574 1.428 . S
C580 N579 1.351 . S
C580 C581 1.434 . S
C581 C572 1.429 . S
C581 N578 1.350 . S
C581 C580 1.434 . S
C582 C583 1.369 1_545 S
C582 C584 1.419 1_556 S
C582 H586 0.930 . S
C583 C582 1.369 1_565 S
C583 C592 1.454 . S
C584 C582 1.419 1_554 S
C584 C585 1.363 . S
C584 H587 0.929 . S
C585 C584 1.363 . S
C585 C591 1.428 1_545 S
H586 C582 0.930 . S
H587 C584 0.929 . S
S588 N589 1.613 . S
S588 N590 1.610 . S
N589 S588 1.613 . S
N589 C592 1.347 1_554 S
N590 S588 1.610 . S
N590 C591 1.351 . S
C591 C585 1.428 1_565 S
C591 N590 1.351 . S
C591 C592 1.408 1_554 S
C592 C583 1.454 . S
C592 N589 1.347 1_556 S
C592 C591 1.408 1_556 S
C593 C594 1.369 . S
C593 C595 1.419 . S
C593 H597 0.930 . S
C594 C593 1.369 . S
C594 C603 1.429 . S
C595 C593 1.419 . S
C595 C596 1.363 . S
C595 H598 0.929 . S
C596 C595 1.363 . S
C596 C602 1.428 . S
H597 C593 0.930 . S
H598 C595 0.929 . S
S599 N600 1.613 . S
S599 N601 1.610 . S
N600 S599 1.613 . S
N600 C603 1.350 . S
N601 S599 1.610 . S
N601 C602 1.351 . S
C602 C596 1.428 . S
C602 N601 1.351 . S
C602 C603 1.434 . S
C603 C594 1.429 . S
C603 N600 1.350 . S
C603 C602 1.434 . S
C604 C605 1.369 1_655 S
C604 C606 1.432 . S
C604 H608 0.930 . S
C605 C604 1.369 1_455 S
C605 C614 1.429 1_556 S
C606 C604 1.432 . S
C606 C607 1.348 1_556 S
C606 H609 0.931 . S
C607 C606 1.348 1_554 S
C607 C613 1.428 1_655 S
H608 C604 0.930 . S
H609 C606 0.931 . S
S610 N611 1.613 . S
S610 N612 1.610 . S
N611 S610 1.613 . S
N611 C614 1.350 . S
N612 S610 1.610 . S
N612 C613 1.351 . S
C613 C607 1.428 1_455 S
C613 N612 1.351 . S
C613 C614 1.434 . S
C614 C605 1.429 1_554 S
C614 N611 1.350 . S
C614 C613 1.434 . S
C615 C616 1.369 . S
C615 C617 1.419 . S
C615 H619 0.930 . S
C616 C615 1.369 . S
C616 C625 1.429 1_545 S
C617 C615 1.419 . S
C617 C618 1.363 1_545 S
C617 H620 0.929 . S
C618 C617 1.363 1_565 S
C618 C624 1.428 . S
H619 C615 0.930 . S
H620 C617 0.929 . S
S621 N622 1.613 . S
S621 N623 1.610 . S
N622 S621 1.613 . S
N622 C625 1.350 . S
N623 S621 1.610 . S
N623 C624 1.351 . S
C624 C618 1.428 . S
C624 N623 1.351 . S
C624 C625 1.434 . S
C625 C616 1.429 1_565 S
C625 N622 1.350 . S
C625 C624 1.434 . S
C626 C627 1.381 . S
C626 C628 1.407 1_554 S
C626 H630 0.929 1_554 S
C627 C626 1.381 . S
C627 C636 1.429 . S
C628 C626 1.407 1_556 S
C628 C629 1.363 . S
C628 H631 0.929 . S
C629 C628 1.363 . S
C629 C635 1.409 1_556 S
H630 C626 0.929 1_556 S
H631 C628 0.929 . S
S632 N633 1.613 . S
S632 N634 1.610 . S
N633 S632 1.613 . S
N633 C636 1.350 . S
N634 S632 1.610 . S
N634 C635 1.355 . S
C635 C629 1.409 1_554 S
C635 N634 1.355 . S
C635 C636 1.453 . S
C636 C627 1.429 . S
C636 N633 1.350 . S
C636 C635 1.453 . S
C637 C638 1.369 . S
C637 C639 1.419 . S
C637 H641 0.930 . S
C638 C637 1.369 . S
C638 C647 1.429 1_455 S
C639 C637 1.419 . S
C639 C640 1.363 1_455 S
C639 H642 0.929 . S
C640 C639 1.363 1_655 S
C640 C646 1.428 . S
H641 C637 0.930 . S
H642 C639 0.929 . S
S643 N644 1.613 . S
S643 N645 1.610 . S
N644 S643 1.613 . S
N644 C647 1.350 . S
N645 S643 1.610 . S
N645 C646 1.351 . S
C646 C640 1.428 . S
C646 N645 1.351 . S
C646 C647 1.434 . S
C647 C638 1.429 1_655 S
C647 N644 1.350 . S
C647 C646 1.434 . S
C648 C649 1.369 . S
C648 C650 1.419 . S
C648 H652 0.930 . S
C649 C648 1.369 . S
C649 C658 1.429 . S
C650 C648 1.419 . S
C650 C651 1.363 . S
C650 H653 0.929 . S
C651 C650 1.363 . S
C651 C657 1.428 . S
H652 C648 0.930 . S
H653 C650 0.929 . S
S654 N655 1.613 1_565 S
S654 N656 1.615 . S
N655 S654 1.613 1_545 S
N655 C658 1.350 . S
N656 S654 1.615 . S
N656 C657 1.347 1_565 S
C657 C651 1.428 . S
C657 N656 1.347 1_545 S
C657 C658 1.434 . S
C658 C649 1.429 . S
C658 N655 1.350 . S
C658 C657 1.434 . S
C659 C660 1.369 . S
C659 C661 1.419 . S
C659 H663 0.930 . S
C660 C659 1.369 . S
C660 C669 1.429 . S
C661 C659 1.419 . S
C661 C662 1.363 . S
C661 H664 0.929 . S
C662 C661 1.363 . S
C662 C668 1.428 . S
H663 C659 0.930 . S
H664 C661 0.929 . S
S665 N666 1.613 . S
S665 N667 1.610 . S
N666 S665 1.613 . S
N666 C669 1.350 . S
N667 S665 1.610 . S
N667 C668 1.351 . S
C668 C662 1.428 . S
C668 N667 1.351 . S
C668 C669 1.434 . S
C669 C660 1.429 . S
C669 N666 1.350 . S
C669 C668 1.434 . S
C670 C671 1.369 . S
C670 C672 1.419 . S
C670 H674 0.930 . S
C671 C670 1.369 . S
C671 C680 1.429 . S
C672 C670 1.419 . S
C672 C673 1.363 . S
C672 H675 0.929 . S
C673 C672 1.363 . S
C673 C679 1.428 . S
H674 C670 0.930 . S
H675 C672 0.929 . S
S676 N677 1.613 . S
S676 N678 1.610 . S
N677 S676 1.613 . S
N677 C680 1.350 . S
N678 S676 1.610 . S
N678 C679 1.351 . S
C679 C673 1.428 . S
C679 N678 1.351 . S
C679 C680 1.434 . S
C680 C671 1.429 . S
C680 N677 1.350 . S
C680 C679 1.434 . S
C681 C682 1.369 . S
C681 C683 1.419 . S
C681 H685 0.930 . S
C682 C681 1.369 . S
C682 C691 1.429 . S
C683 C681 1.419 . S
C683 C684 1.363 . S
C683 H686 0.929 . S
C684 C683 1.363 . S
C684 C690 1.428 . S
H685 C681 0.930 . S
H686 C683 0.929 . S
S687 N688 1.613 1_565 S
S687 N689 1.610 1_565 S
N688 S687 1.613 1_545 S
N688 C691 1.350 . S
N689 S687 1.610 1_545 S
N689 C690 1.351 . S
C690 C684 1.428 . S
C690 N689 1.351 . S
C690 C691 1.434 . S
C691 C682 1.429 . S
C691 N688 1.350 . S
C691 C690 1.434 . S
C692 C693 1.369 . S
C692 C694 1.419 . S
C692 H696 0.930 . S
C693 C692 1.369 . S
C693 C702 1.429 . S
C694 C692 1.419 . S
C694 C695 1.363 . S
C694 H697 0.929 . S
C695 C694 1.363 . S
C695 C701 1.428 . S
H696 C692 0.930 . S
H697 C694 0.929 . S
S698 N699 1.613 . S
S698 N700 1.610 . S
N699 S698 1.613 . S
N699 C702 1.350 . S
N700 S698 1.610 . S
N700 C701 1.351 . S
C701 C695 1.428 . S
C701 N700 1.351 . S
C701 C702 1.434 . S
C702 C693 1.429 . S
C702 N699 1.350 . S
C702 C701 1.434 . S
C703 C704 1.369 . S
C703 C705 1.419 . S
C703 H707 0.930 . S
C704 C703 1.369 . S
C704 C713 1.429 . S
C705 C703 1.419 . S
C705 C706 1.363 . S
C705 H708 0.929 . S
C706 C705 1.363 . S
C706 C712 1.428 . S
H707 C703 0.930 . S
H708 C705 0.929 . S
S709 N710 1.613 1_455 S
S709 N711 1.610 . S
N710 S709 1.613 1_655 S
N710 C713 1.350 . S
N711 S709 1.610 . S
N711 C712 1.351 1_455 S
C712 C706 1.428 . S
C712 N711 1.351 1_655 S
C712 C713 1.434 . S
C713 C704 1.429 . S
C713 N710 1.350 . S
C713 C712 1.434 . S
C714 C715 1.369 . S
C714 C716 1.419 . S
C714 H718 0.930 . S
C715 C714 1.369 . S
C715 C724 1.429 . S
C716 C714 1.419 . S
C716 C717 1.363 . S
C716 H719 0.929 . S
C717 C716 1.363 . S
C717 C723 1.428 . S
H718 C714 0.930 . S
H719 C716 0.929 . S
S720 N721 1.613 . S
S720 N722 1.610 . S
N721 S720 1.613 . S
N721 C724 1.350 . S
N722 S720 1.610 . S
N722 C723 1.351 . S
C723 C717 1.428 . S
C723 N722 1.351 . S
C723 C724 1.434 . S
C724 C715 1.429 . S
C724 N721 1.350 . S
C724 C723 1.434 . S
C725 C726 1.369 . S
C725 C727 1.419 . S
C725 H729 0.930 . S
C726 C725 1.369 . S
C726 C735 1.429 . S
C727 C725 1.419 . S
C727 C728 1.363 . S
C727 H730 0.929 . S
C728 C727 1.363 . S
C728 C734 1.428 . S
H729 C725 0.930 . S
H730 C727 0.929 . S
S731 N732 1.613 . S
S731 N733 1.610 . S
N732 S731 1.613 . S
N732 C735 1.350 . S
N733 S731 1.610 . S
N733 C734 1.351 . S
C734 C728 1.428 . S
C734 N733 1.351 . S
C734 C735 1.434 . S
C735 C726 1.429 . S
C735 N732 1.350 . S
C735 C734 1.434 . S
C736 C737 1.369 . S
C736 C738 1.419 . S
C736 H740 0.930 . S
C737 C736 1.369 . S
C737 C746 1.429 . S
C738 C736 1.419 . S
C738 C739 1.363 . S
C738 H741 0.929 . S
C739 C738 1.363 . S
C739 C745 1.428 . S
H740 C736 0.930 . S
H741 C738 0.929 . S
S742 N743 1.613 . S
S742 N744 1.610 . S
N743 S742 1.613 . S
N743 C746 1.350 . S
N744 S742 1.610 . S
N744 C745 1.351 . S
C745 C739 1.428 . S
C745 N744 1.351 . S
C745 C746 1.434 . S
C746 C737 1.429 . S
C746 N743 1.350 . S
C746 C745 1.434 . S
C747 C748 1.369 . S
C747 C749 1.419 . S
C747 H751 0.930 . S
C748 C747 1.369 . S
C748 C757 1.429 . S
C749 C747 1.419 . S
C749 C750 1.363 . S
C749 H752 0.929 . S
C750 C749 1.363 . S
C750 C756 1.428 . S
H751 C747 0.930 . S
H752 C749 0.929 . S
S753 N754 1.613 . S
S753 N755 1.610 . S
N754 S753 1.613 . S
N754 C757 1.350 . S
N755 S753 1.610 . S
N755 C756 1.351 . S
C756 C750 1.428 . S
C756 N755 1.351 . S
C756 C757 1.434 . S
C757 C748 1.429 . S
C757 N754 1.350 . S
C757 C756 1.434 . S
C758 C759 1.369 . S
C758 C760 1.419 . S
C758 H762 0.930 . S
C759 C758 1.369 . S
C759 C768 1.429 . S
C760 C758 1.419 . S
C760 C761 1.363 . S
C760 H763 0.929 . S
C761 C760 1.363 . S
C761 C767 1.428 . S
H762 C758 0.930 . S
H763 C760 0.929 . S
S764 N765 1.614 1_545 S
S764 N766 1.610 1_545 S
N765 S764 1.614 1_565 S
N765 C768 1.357 . S
N766 S764 1.610 1_565 S
N766 C767 1.351 . S
C767 C761 1.428 . S
C767 N766 1.351 . S
C767 C768 1.434 . S
C768 C759 1.429 . S
C768 N765 1.357 . S
C768 C767 1.434 . S
C769 C770 1.369 . S
C769 C771 1.419 . S
C769 H773 0.930 . S
C770 C769 1.369 . S
C770 C779 1.429 . S
C771 C769 1.419 . S
C771 C772 1.363 . S
C771 H774 0.929 . S
C772 C771 1.363 . S
C772 C778 1.428 . S
H773 C769 0.930 . S
H774 C771 0.929 . S
S775 N776 1.613 . S
S775 N777 1.610 . S
N776 S775 1.613 . S
N776 C779 1.350 . S
N777 S775 1.610 . S
N777 C778 1.351 . S
C778 C772 1.428 . S
C778 N777 1.351 . S
C778 C779 1.434 . S
C779 C770 1.429 . S
C779 N776 1.350 . S
C779 C778 1.434 . S
C385 C70 1.218 1_455 S
C387 C29 1.225 . S
C396 C98 1.217 1_565 S
C398 C36 1.225 1_455 S
C407 C93 1.224 1_565 S
C409 C130 1.218 . S
C418 C100 1.226 . S
C420 C162 1.217 1_455 S
C429 C6 1.218 1_565 S
C431 C132 1.225 1_455 S
C440 C34 1.213 . S
C442 C164 1.226 1_565 S
C451 C326 1.219 1_545 S
C453 C221 1.225 . S
C462 C228 1.224 1_655 S
C464 C358 1.218 . S
C473 C260 1.228 1_545 S
C475 C198 1.214 1_655 S
C484 C317 1.226 . S
C486 C226 1.217 1_545 S
C495 C349 1.226 1_655 S
C497 C258 1.217 . S
C506 C294 1.213 1_655 S
C508 C381 1.227 1_545 S
C517 N109 1.537 . S
C519 N18 1.536 . S
C528 N45 1.529 . S
C530 N141 1.530 . S
C539 N82 1.536 . S
C541 N173 1.536 . S
C550 N210 1.538 . S
C552 N306 1.537 . S
C561 N237 1.530 . S
C563 N338 1.531 . S
C572 N269 1.535 . S
C574 N370 1.535 . S
C583 N242 1.659 . S
C585 N13 1.658 . S
C594 N50 1.656 . S
C596 N274 1.657 . S
C605 N301 1.661 . S
C607 N77 1.659 . S
C616 N114 1.662 . S
C618 N333 1.661 . S
C627 N146 1.658 . S
C629 N365 1.660 . S
C638 N205 1.658 . S
C640 N178 1.660 . S
C649 C68 1.295 . S
C651 C2 1.283 . S
C660 C38 1.282 . S
C662 C125 1.295 . S
C671 C66 1.281 . S
C673 C157 1.296 . S
C682 C102 1.285 . S
C684 C189 1.293 . S
C693 C4 1.295 . S
C695 C134 1.282 . S
C704 C61 1.294 . S
C706 C166 1.284 . S
C715 C324 1.297 . S
C717 C194 1.279 . S
C726 C230 1.279 . S
C728 C356 1.297 . S
C737 C262 1.283 . S
C739 C196 1.294 . S
C748 C253 1.295 . S
C750 C290 1.281 . S
C759 C322 1.285 . S
C761 C285 1.294 . S
C770 C354 1.285 . S
C772 C292 1.293 . S
