# Generated by pormake.
# Topology sxg, (6)-cn, num edge types: 1
# Building blocks:
#     Node 0, Type 0, BuildingBlock: PAMTUU_clean_sbu_0, # of connection points: 6
#     Node 1, Type 0, BuildingBlock: PAMTUU_clean_sbu_0, # of connection points: 6
#     Node 2, Type 0, BuildingBlock: PAMTUU_clean_sbu_0, # of connection points: 6
#     Node 3, Type 0, BuildingBlock: PAMTUU_clean_sbu_0, # of connection points: 6
#     Node 4, Type 0, BuildingBlock: PAMTUU_clean_sbu_0, # of connection points: 6
#     Node 5, Type 0, BuildingBlock: PAMTUU_clean_sbu_0, # of connection points: 6
#     Node 6, Type 0, BuildingBlock: PAMTUU_clean_sbu_0, # of connection points: 6
#     Node 7, Type 0, BuildingBlock: PAMTUU_clean_sbu_0, # of connection points: 6
#     Node 8, Type 0, BuildingBlock: PAMTUU_clean_sbu_0, # of connection points: 6
#     Node 9, Type 0, BuildingBlock: PAMTUU_clean_sbu_0, # of connection points: 6
#     Node 10, Type 0, BuildingBlock: PAMTUU_clean_sbu_0, # of connection points: 6
#     Node 11, Type 0, BuildingBlock: PAMTUU_clean_sbu_0, # of connection points: 6
#     Node 12, Type 0, BuildingBlock: PAMTUU_clean_sbu_0, # of connection points: 6
#     Node 13, Type 0, BuildingBlock: PAMTUU_clean_sbu_0, # of connection points: 6
#     Node 14, Type 0, BuildingBlock: PAMTUU_clean_sbu_0, # of connection points: 6
#     Node 15, Type 0, BuildingBlock: PAMTUU_clean_sbu_0, # of connection points: 6
#     Node 16, Type 0, BuildingBlock: PAMTUU_clean_sbu_0, # of connection points: 6
#     Node 17, Type 0, BuildingBlock: PAMTUU_clean_sbu_0, # of connection points: 6
#     Node 18, Type 0, BuildingBlock: PAMTUU_clean_sbu_0, # of connection points: 6
#     Node 19, Type 0, BuildingBlock: PAMTUU_clean_sbu_0, # of connection points: 6
#     Node 20, Type 0, BuildingBlock: PAMTUU_clean_sbu_0, # of connection points: 6
#     Node 21, Type 0, BuildingBlock: PAMTUU_clean_sbu_0, # of connection points: 6
#     Node 22, Type 0, BuildingBlock: PAMTUU_clean_sbu_0, # of connection points: 6
#     Node 23, Type 0, BuildingBlock: PAMTUU_clean_sbu_0, # of connection points: 6
#     Edge 24, Type (0, 0), BuildingBlock: CIFDUS_clean_linker_0, # of connection points: 2
#     Edge 25, Type (0, 0), BuildingBlock: CIFDUS_clean_linker_0, # of connection points: 2
#     Edge 26, Type (0, 0), BuildingBlock: CIFDUS_clean_linker_0, # of connection points: 2
#     Edge 27, Type (0, 0), BuildingBlock: CIFDUS_clean_linker_0, # of connection points: 2
#     Edge 28, Type (0, 0), BuildingBlock: CIFDUS_clean_linker_0, # of connection points: 2
#     Edge 29, Type (0, 0), BuildingBlock: CIFDUS_clean_linker_0, # of connection points: 2
#     Edge 30, Type (0, 0), BuildingBlock: CIFDUS_clean_linker_0, # of connection points: 2
#     Edge 31, Type (0, 0), BuildingBlock: CIFDUS_clean_linker_0, # of connection points: 2
#     Edge 32, Type (0, 0), BuildingBlock: CIFDUS_clean_linker_0, # of connection points: 2
#     Edge 33, Type (0, 0), BuildingBlock: CIFDUS_clean_linker_0, # of connection points: 2
#     Edge 34, Type (0, 0), BuildingBlock: CIFDUS_clean_linker_0, # of connection points: 2
#     Edge 35, Type (0, 0), BuildingBlock: CIFDUS_clean_linker_0, # of connection points: 2
#     Edge 36, Type (0, 0), BuildingBlock: CIFDUS_clean_linker_0, # of connection points: 2
#     Edge 37, Type (0, 0), BuildingBlock: CIFDUS_clean_linker_0, # of connection points: 2
#     Edge 38, Type (0, 0), BuildingBlock: CIFDUS_clean_linker_0, # of connection points: 2
#     Edge 39, Type (0, 0), BuildingBlock: CIFDUS_clean_linker_0, # of connection points: 2
#     Edge 40, Type (0, 0), BuildingBlock: CIFDUS_clean_linker_0, # of connection points: 2
#     Edge 41, Type (0, 0), BuildingBlock: CIFDUS_clean_linker_0, # of connection points: 2
#     Edge 42, Type (0, 0), BuildingBlock: CIFDUS_clean_linker_0, # of connection points: 2
#     Edge 43, Type (0, 0), BuildingBlock: CIFDUS_clean_linker_0, # of connection points: 2
#     Edge 44, Type (0, 0), BuildingBlock: CIFDUS_clean_linker_0, # of connection points: 2
#     Edge 45, Type (0, 0), BuildingBlock: CIFDUS_clean_linker_0, # of connection points: 2
#     Edge 46, Type (0, 0), BuildingBlock: CIFDUS_clean_linker_0, # of connection points: 2
#     Edge 47, Type (0, 0), BuildingBlock: CIFDUS_clean_linker_0, # of connection points: 2
#     Edge 48, Type (0, 0), BuildingBlock: CIFDUS_clean_linker_0, # of connection points: 2
#     Edge 49, Type (0, 0), BuildingBlock: CIFDUS_clean_linker_0, # of connection points: 2
#     Edge 50, Type (0, 0), BuildingBlock: CIFDUS_clean_linker_0, # of connection points: 2
#     Edge 51, Type (0, 0), BuildingBlock: CIFDUS_clean_linker_0, # of connection points: 2
#     Edge 52, Type (0, 0), BuildingBlock: CIFDUS_clean_linker_0, # of connection points: 2
#     Edge 53, Type (0, 0), BuildingBlock: CIFDUS_clean_linker_0, # of connection points: 2
#     Edge 54, Type (0, 0), BuildingBlock: CIFDUS_clean_linker_0, # of connection points: 2
#     Edge 55, Type (0, 0), BuildingBlock: CIFDUS_clean_linker_0, # of connection points: 2
#     Edge 56, Type (0, 0), BuildingBlock: CIFDUS_clean_linker_0, # of connection points: 2
#     Edge 57, Type (0, 0), BuildingBlock: CIFDUS_clean_linker_0, # of connection points: 2
#     Edge 58, Type (0, 0), BuildingBlock: CIFDUS_clean_linker_0, # of connection points: 2
#     Edge 59, Type (0, 0), BuildingBlock: CIFDUS_clean_linker_0, # of connection points: 2
#     Edge 60, Type (0, 0), BuildingBlock: CIFDUS_clean_linker_0, # of connection points: 2
#     Edge 61, Type (0, 0), BuildingBlock: CIFDUS_clean_linker_0, # of connection points: 2
#     Edge 62, Type (0, 0), BuildingBlock: CIFDUS_clean_linker_0, # of connection points: 2
#     Edge 63, Type (0, 0), BuildingBlock: CIFDUS_clean_linker_0, # of connection points: 2
#     Edge 64, Type (0, 0), BuildingBlock: CIFDUS_clean_linker_0, # of connection points: 2
#     Edge 65, Type (0, 0), BuildingBlock: CIFDUS_clean_linker_0, # of connection points: 2
#     Edge 66, Type (0, 0), BuildingBlock: CIFDUS_clean_linker_0, # of connection points: 2
#     Edge 67, Type (0, 0), BuildingBlock: CIFDUS_clean_linker_0, # of connection points: 2
#     Edge 68, Type (0, 0), BuildingBlock: CIFDUS_clean_linker_0, # of connection points: 2
#     Edge 69, Type (0, 0), BuildingBlock: CIFDUS_clean_linker_0, # of connection points: 2
#     Edge 70, Type (0, 0), BuildingBlock: CIFDUS_clean_linker_0, # of connection points: 2
#     Edge 71, Type (0, 0), BuildingBlock: CIFDUS_clean_linker_0, # of connection points: 2
#     Edge 72, Type (0, 0), BuildingBlock: CIFDUS_clean_linker_0, # of connection points: 2
#     Edge 73, Type (0, 0), BuildingBlock: CIFDUS_clean_linker_0, # of connection points: 2
#     Edge 74, Type (0, 0), BuildingBlock: CIFDUS_clean_linker_0, # of connection points: 2
#     Edge 75, Type (0, 0), BuildingBlock: CIFDUS_clean_linker_0, # of connection points: 2
#     Edge 76, Type (0, 0), BuildingBlock: CIFDUS_clean_linker_0, # of connection points: 2
#     Edge 77, Type (0, 0), BuildingBlock: CIFDUS_clean_linker_0, # of connection points: 2
#     Edge 78, Type (0, 0), BuildingBlock: CIFDUS_clean_linker_0, # of connection points: 2
#     Edge 79, Type (0, 0), BuildingBlock: CIFDUS_clean_linker_0, # of connection points: 2
#     Edge 80, Type (0, 0), BuildingBlock: CIFDUS_clean_linker_0, # of connection points: 2
#     Edge 81, Type (0, 0), BuildingBlock: CIFDUS_clean_linker_0, # of connection points: 2
#     Edge 82, Type (0, 0), BuildingBlock: CIFDUS_clean_linker_0, # of connection points: 2
#     Edge 83, Type (0, 0), BuildingBlock: CIFDUS_clean_linker_0, # of connection points: 2
#     Edge 84, Type (0, 0), BuildingBlock: CIFDUS_clean_linker_0, # of connection points: 2
#     Edge 85, Type (0, 0), BuildingBlock: CIFDUS_clean_linker_0, # of connection points: 2
#     Edge 86, Type (0, 0), BuildingBlock: CIFDUS_clean_linker_0, # of connection points: 2
#     Edge 87, Type (0, 0), BuildingBlock: CIFDUS_clean_linker_0, # of connection points: 2
#     Edge 88, Type (0, 0), BuildingBlock: CIFDUS_clean_linker_0, # of connection points: 2
#     Edge 89, Type (0, 0), BuildingBlock: CIFDUS_clean_linker_0, # of connection points: 2
#     Edge 90, Type (0, 0), BuildingBlock: CIFDUS_clean_linker_0, # of connection points: 2
#     Edge 91, Type (0, 0), BuildingBlock: CIFDUS_clean_linker_0, # of connection points: 2
#     Edge 92, Type (0, 0), BuildingBlock: CIFDUS_clean_linker_0, # of connection points: 2
#     Edge 93, Type (0, 0), BuildingBlock: CIFDUS_clean_linker_0, # of connection points: 2
#     Edge 94, Type (0, 0), BuildingBlock: CIFDUS_clean_linker_0, # of connection points: 2
#     Edge 95, Type (0, 0), BuildingBlock: CIFDUS_clean_linker_0, # of connection points: 2
# Relax obj value: 0.228
# Max RMSD: 0.275
# Mean RMSD: 0.245
data_MOF--net-sxg--node1-PAMTUU_clean_sbu_0--edge1-CIFDUS_clean_linker_0
_symmetry_space_group_name_H-M    P1
_symmetry_Int_Tables_number       1
_symmetry_cell_setting            triclinic
loop_
_symmetry_equiv_pos_as_xyz
'x, y, z'
_cell_length_a     44.462616
_cell_length_b     50.294009
_cell_length_c     44.41394
_cell_angle_alpha  86.144753
_cell_angle_beta   99.081793
_cell_angle_gamma 85.350479
loop_
_atom_site_label
_atom_site_type_symbol
_atom_site_fract_x
_atom_site_fract_y
_atom_site_fract_z
_atom_type_partial_charge
Tb0 Tb 1.0272 0.26163 0.24886 0.0
Tb1 Tb 1.0048 0.3262 0.24444 0.0
C2 C 0.98265 0.28932 0.19161 0.0
C3 C 0.06901 0.19631 0.27841 0.0
C4 C 0.11777 0.16762 0.31934 0.0
C5 C 0.10292 0.15566 0.29403 0.0
C6 C 0.07881 0.16995 0.27368 0.0
C7 C 0.08293 0.20795 0.30427 0.0
C8 C 0.10708 0.19376 0.32452 0.0
C9 C 0.04602 0.21228 0.25527 0.0
O10 O 0.05601 0.28048 0.21934 0.0
O11 O 0.05026 0.32401 0.23193 0.0
O12 O 1.02948 0.31656 0.29055 0.0
O13 O 0.05904 0.27867 0.28271 0.0
O14 O 0.96992 0.35703 0.22961 0.0
O15 O 1.01507 0.36574 0.25026 0.0
O16 O 0.9741 0.30832 0.27246 0.0
O17 O 1.00071 0.26691 0.28614 0.0
O18 O 0.98858 0.26819 0.21144 0.0
O19 O 0.99192 0.31256 0.19877 0.0
C20 C 0.06499 0.30481 0.21981 0.0
O21 O 1.02149 0.22218 0.26462 0.0
O22 O 0.05682 0.2301 0.2384 0.0
C23 C 0.05273 0.2984 0.29925 0.0
C24 C 0.9733 0.39506 0.25755 0.0
C25 C 0.94037 0.43258 0.28715 0.0
C26 C 0.95235 0.44054 0.26079 0.0
C27 C 0.96863 0.42192 0.24616 0.0
C28 C 0.96306 0.38715 0.28479 0.0
C29 C 0.94671 0.40581 0.29953 0.0
C30 C 0.9871 0.37549 0.23956 0.0
C31 C 0.97968 0.28581 0.2902 0.0
H32 H 0.1108 0.1357 0.28918 0.0
H33 H 0.06844 0.16069 0.25376 0.0
H34 H 0.07566 0.22826 0.30839 0.0
H35 H 0.11779 0.20345 0.34396 0.0
H36 H 0.9475 0.4608 0.25024 0.0
H37 H 0.97647 0.42831 0.22516 0.0
H38 H 0.96677 0.36644 0.29397 0.0
H39 H 0.93801 0.39907 0.3199 0.0
Tb40 Tb 0.42027 0.74276 0.80756 0.0
Tb41 Tb 0.45276 0.69829 0.76885 0.0
C42 C 0.45636 0.75658 0.75533 0.0
C43 C 0.39109 0.80544 0.84666 0.0
C44 C 0.38103 0.85836 0.86508 0.0
C45 C 0.40833 0.84972 0.85448 0.0
C46 C 0.41317 0.82369 0.84514 0.0
C47 C 0.36461 0.81349 0.85852 0.0
C48 C 0.35958 0.8395 0.86753 0.0
C49 C 0.39248 0.77953 0.83235 0.0
O50 O 0.38756 0.73964 0.76632 0.0
O51 O 0.4042 0.6998 0.74871 0.0
O52 O 0.44037 0.67518 0.80686 0.0
O53 O 0.40092 0.70395 0.81674 0.0
O54 O 0.48035 0.6951 0.73503 0.0
O55 O 0.46536 0.65974 0.75631 0.0
O56 O 0.48927 0.70897 0.80429 0.0
O57 O 0.46077 0.72591 0.83882 0.0
O58 O 0.45585 0.76024 0.78433 0.0
O59 O 0.4421 0.73702 0.74425 0.0
C60 C 0.38316 0.72002 0.74846 0.0
O61 O 0.40703 0.75794 0.8476 0.0
O62 O 0.39511 0.78031 0.80353 0.0
C63 C 0.4148 0.67937 0.81768 0.0
C64 C 0.51587 0.65728 0.74549 0.0
C65 C 0.57751 0.63591 0.75496 0.0
C66 C 0.5544 0.62202 0.7393 0.0
C67 C 0.52384 0.63266 0.73456 0.0
C68 C 0.53879 0.67089 0.76183 0.0
C69 C 0.56936 0.66036 0.76638 0.0
C70 C 0.4839 0.66907 0.73903 0.0
C71 C 0.48687 0.71579 0.83205 0.0
H72 H 0.42585 0.86322 0.85277 0.0
H73 H 0.43371 0.81812 0.8359 0.0
H74 H 0.34698 0.79994 0.85954 0.0
H75 H 0.33811 0.84511 0.87503 0.0
H76 H 0.56006 0.60328 0.72991 0.0
H77 H 0.50651 0.6219 0.72192 0.0
H78 H 0.53316 0.6899 0.77064 0.0
H79 H 0.58664 0.67137 0.77872 0.0
Tb80 Tb 0.61274 0.21176 0.77956 0.0
Tb81 Tb 0.59811 0.1693 0.83242 0.0
C82 C 0.57029 0.22683 0.82573 0.0
C83 C 0.62929 0.27236 0.7322 0.0
C84 C 0.64196 0.3239 0.71252 0.0
C85 C 0.61294 0.31949 0.71942 0.0
C86 C 0.60667 0.29399 0.72917 0.0
C87 C 0.65867 0.2769 0.72647 0.0
C88 C 0.66501 0.30252 0.71686 0.0
C89 C 0.6212 0.24487 0.73739 0.0
O90 O 0.65278 0.21162 0.81449 0.0
O91 O 0.6347 0.19172 0.85549 0.0
O92 O 0.63676 0.15087 0.81506 0.0
O93 O 0.62543 0.17159 0.76683 0.0
O94 O 0.58615 0.16408 0.87615 0.0
O95 O 0.59205 0.13038 0.84917 0.0
O96 O 0.5663 0.161 0.79169 0.0
O97 O 0.56876 0.1992 0.76099 0.0
O98 O 0.59434 0.23409 0.81462 0.0
O99 O 0.56315 0.20237 0.82355 0.0
C100 C 0.65517 0.20529 0.84399 0.0
O101 O 0.64248 0.22692 0.7516 0.0
O102 O 0.59483 0.24228 0.74603 0.0
C103 C 0.63854 0.15132 0.78586 0.0
C104 C 0.54947 0.13225 0.87485 0.0
C105 C 0.4879 0.1207 0.87015 0.0
C106 C 0.51069 0.101 0.8657 0.0
C107 C 0.54118 0.10667 0.86821 0.0
C108 C 0.52678 0.15169 0.88042 0.0
C109 C 0.49632 0.1459 0.87823 0.0
C110 C 0.58076 0.13926 0.87242 0.0
C111 C 0.55634 0.17715 0.76692 0.0
H112 H 0.59458 0.33547 0.71588 0.0
H113 H 0.58365 0.29112 0.73303 0.0
H114 H 0.67643 0.26052 0.72837 0.0
H115 H 0.68771 0.30546 0.71208 0.0
H116 H 0.50485 0.08126 0.85993 0.0
H117 H 0.55815 0.09131 0.86388 0.0
H118 H 0.53227 0.17168 0.88547 0.0
H119 H 0.47919 0.16146 0.88174 0.0
Tb120 Tb 1.01348 0.77222 0.29865 0.0
Tb121 Tb 0.03653 0.83371 0.30496 0.0
C122 C 0.0611 0.78586 0.35579 0.0
C123 C 0.97148 0.70846 0.28443 0.0
C124 C 0.92829 0.6704 0.26981 0.0
C125 C 0.95109 0.66593 0.29599 0.0
C126 C 0.97236 0.68464 0.30312 0.0
C127 C 0.94811 0.71348 0.2588 0.0
C128 C 0.92676 0.69474 0.25166 0.0
C129 C 0.99747 0.7255 0.28975 0.0
O130 O 0.98839 0.78908 0.33185 0.0
O131 O 0.99415 0.83441 0.32479 0.0
O132 O 1.00149 0.83524 0.26437 0.0
O133 O 0.97464 0.79987 0.27581 0.0
O134 O 0.04835 0.86638 0.33031 0.0
O135 O 0.04868 0.86809 0.28188 0.0
O136 O 0.07287 0.81053 0.2873 0.0
O137 O 0.043 0.78005 0.26492 0.0
O138 O 0.05296 0.76789 0.33629 0.0
O139 O 0.05467 0.81168 0.34852 0.0
C140 C 0.98127 0.8142 0.33664 0.0
O141 O 1.00032 0.7435 0.26815 0.0
O142 O 1.00506 0.73396 0.31678 0.0
C143 C 0.97592 0.82353 0.2616 0.0
C144 C 0.08358 0.89332 0.31111 0.0
C145 C 0.1381 0.91947 0.31948 0.0
C146 C 0.10958 0.93355 0.32023 0.0
C147 C 0.08267 0.92059 0.3161 0.0
C148 C 0.11185 0.87914 0.31004 0.0
C149 C 0.13884 0.89209 0.31417 0.0
C150 C 0.05472 0.88032 0.30674 0.0
C151 C 0.06802 0.79247 0.26748 0.0
H152 H 0.95277 0.64775 0.31091 0.0
H153 H 0.99021 0.68004 0.32284 0.0
H154 H 0.94688 0.73147 0.24366 0.0
H155 H 0.90975 0.69893 0.23121 0.0
H156 H 0.10807 0.95447 0.32472 0.0
H157 H 0.06106 0.9319 0.31699 0.0
H158 H 0.11306 0.8581 0.30604 0.0
H159 H 0.16029 0.88063 0.3131 0.0
Tb160 Tb 0.31481 0.06343 0.36079 0.0
Tb161 Tb 0.31082 0.02116 0.42067 0.0
C162 C 0.27336 1.0142 0.35616 0.0
C163 C 0.32386 0.11435 0.29059 0.0
C164 C 0.33251 0.15147 0.24238 0.0
C165 C 0.30981 0.15704 0.26058 0.0
C166 C 0.30537 0.13862 0.28416 0.0
C167 C 0.34663 0.10865 0.27271 0.0
C168 C 0.35076 0.12689 0.24874 0.0
C169 C 0.32028 0.09563 0.31668 0.0
O170 O 0.28632 0.083 0.38937 0.0
O171 O 0.26693 0.04556 0.40679 0.0
O172 O 0.32969 0.05631 0.44016 0.0
O173 O 0.34881 0.07371 0.39866 0.0
O174 O 0.28517 1.00685 0.45317 0.0
O175 O 0.33083 0.98938 0.45301 0.0
O176 O 0.35126 1.00683 0.40148 0.0
O177 O 0.33703 0.02568 0.35227 0.0
O178 O 0.27663 0.03909 0.34626 0.0
O179 O 0.29015 1.00231 0.38118 0.0
C180 C 0.26359 0.07134 0.39818 0.0
O181 O 0.34284 0.07913 0.33124 0.0
O182 O 0.2944 0.09386 0.32678 0.0
C183 C 0.34632 0.07327 0.4279 0.0
C184 C 0.29494 0.96027 0.46704 0.0
C185 C 0.27069 0.91029 0.47549 0.0
C186 C 0.29368 0.91838 0.49766 0.0
C187 C 0.30559 0.94312 0.49348 0.0
C188 C 0.27297 0.9518 0.44423 0.0
C189 C 0.26096 0.92712 0.44842 0.0
C190 C 0.30576 0.98733 0.46432 0.0
C191 C 0.35371 1.00792 0.37223 0.0
H192 H 0.29573 0.17593 0.25711 0.0
H193 H 0.28792 0.14367 0.29785 0.0
H194 H 0.36119 0.09001 0.27719 0.0
H195 H 0.36813 0.12156 0.23509 0.0
H196 H 0.3015 0.90615 0.5189 0.0
H197 H 0.32254 0.94921 0.51137 0.0
H198 H 0.26449 0.96457 0.42351 0.0
H199 H 0.24356 0.92145 0.43069 0.0
Tb200 Tb 0.2798 0.04269 0.84647 0.0
Tb201 Tb 0.27476 0.05455 0.91724 0.0
C202 C 0.31991 0.08252 0.87963 0.0
C203 C 0.29003 0.99922 0.78837 0.0
C204 C 0.28354 0.94569 0.77732 0.0
C205 C 0.2821 0.96517 0.75274 0.0
C206 C 0.28513 0.99195 0.75826 0.0
C207 C 0.29413 0.97933 0.81281 0.0
C208 C 0.29079 0.95274 0.80736 0.0
C209 C 0.28602 0.02726 0.79507 0.0
O210 O 0.31824 0.02079 0.87689 0.0
O211 O 0.2965 1.01315 0.91921 0.0
O212 O 0.23717 0.0308 0.90256 0.0
O213 O 0.25707 1.00997 0.8649 0.0
O214 O 0.29725 0.05726 0.96218 0.0
O215 O 0.24837 0.06598 0.95025 0.0
O216 O 0.2512 0.09008 0.88916 0.0
O217 O 0.24039 0.07188 0.84305 0.0
O218 O 0.30293 0.07853 0.85368 0.0
O219 O 0.31556 0.07107 0.90583 0.0
C220 C 0.31546 1.00514 0.90086 0.0
O221 O 0.2595 0.03429 0.80262 0.0
O222 O 0.30837 0.0352 0.81397 0.0
C223 C 0.23872 1.01066 0.88534 0.0
C224 C 0.27483 0.09386 0.98364 0.0
C225 C 0.28296 0.14399 1.00741 0.0
C226 C 0.29076 0.12004 1.0264 0.0
C227 C 0.28672 0.0952 1.01459 0.0
C228 C 0.26665 0.11769 0.96471 0.0
C229 C 0.27052 0.14247 0.97649 0.0
C230 C 0.27247 0.06773 0.97071 0.0
C231 C 0.23587 0.09097 0.86114 0.0
H232 H 0.27602 0.96008 0.72937 0.0
H233 H 0.28167 1.00709 0.7392 0.0
H234 H 0.29762 0.98466 0.83618 0.0
H235 H 0.29167 0.93805 0.82657 0.0
H236 H 0.30079 0.12042 0.05021 0.0
H237 H 0.29342 0.07703 1.02949 0.0
H238 H 0.25757 0.11718 0.94068 0.0
H239 H 0.26386 0.16045 0.96129 0.0
Tb240 Tb 0.7999 0.58411 0.69224 0.0
Tb241 Tb 0.73592 0.56614 0.6589 0.0
C242 C 0.79512 0.5503 0.63689 0.0
C243 C 0.86886 0.62065 0.71024 0.0
C244 C 0.90378 0.6636 0.70132 0.0
C245 C 0.91809 0.63797 0.71186 0.0
C246 C 0.90075 0.61671 0.71628 0.0
C247 C 0.85426 0.64592 0.69877 0.0
C248 C 0.87168 0.66739 0.69455 0.0
C249 C 0.85165 0.59756 0.71403 0.0
O250 O 0.78437 0.6135 0.65326 0.0
O251 O 0.7331 0.60932 0.65012 0.0
O252 O 0.73183 0.57241 0.70567 0.0
O253 O 0.76332 0.60572 0.71121 0.0
O254 O 0.71218 0.54966 0.62113 0.0
O255 O 0.68837 0.56484 0.65601 0.0
O256 O 0.75841 0.5297 0.68601 0.0
O257 O 0.79239 0.54916 0.7207 0.0
O258 O 0.80851 0.55083 0.66514 0.0
O259 O 0.76883 0.5642 0.62791 0.0
C260 C 0.75572 0.62321 0.64473 0.0
O261 O 0.82774 0.60069 0.72756 0.0
O262 O 0.84631 0.58458 0.68969 0.0
C263 C 0.73962 0.59411 0.71823 0.0
C264 C 0.67567 0.52399 0.63801 0.0
C265 C 0.65615 0.47456 0.6557 0.0
C266 C 0.6351 0.49741 0.64928 0.0
C267 C 0.64484 0.52206 0.6404 0.0
C268 C 0.69651 0.50104 0.64405 0.0
C269 C 0.68683 0.4766 0.65274 0.0
C270 C 0.68712 0.5501 0.63292 0.0
C271 C 0.77789 0.52843 0.71197 0.0
H272 H 0.94274 0.63453 0.71801 0.0
H273 H 0.91226 0.59719 0.72471 0.0
H274 H 0.82954 0.64903 0.69337 0.0
H275 H 0.86014 0.68698 0.68656 0.0
H276 H 0.61131 0.49624 0.65148 0.0
H277 H 0.62861 0.53969 0.63627 0.0
H278 H 0.72058 0.50206 0.64306 0.0
H279 H 0.70369 0.45945 0.65826 0.0
Tb280 Tb 0.73395 0.55802 0.252 0.0
Tb281 Tb 0.76703 0.52268 0.20099 0.0
C282 C 0.78512 0.5107 0.27026 0.0
C283 C 0.70925 0.60682 0.31053 0.0
C284 C 0.70495 0.64968 0.34958 0.0
C285 C 0.68063 0.6336 0.34271 0.0
C286 C 0.68278 0.61254 0.32351 0.0
C287 C 0.73344 0.62303 0.31692 0.0
C288 C 0.7313 0.64411 0.33606 0.0
C289 C 0.7126 0.58178 0.29436 0.0
O290 O 0.76545 0.58385 0.23543 0.0
O291 O 0.79842 0.55257 0.2179 0.0
O292 O 0.7438 0.55857 0.17484 0.0
O293 O 0.71215 0.57671 0.20655 0.0
O294 O 0.80613 0.50009 0.19127 0.0
O295 O 0.76481 0.5074 0.15789 0.0
O296 O 0.72621 0.50251 0.20643 0.0
O297 O 0.71376 0.51948 0.25053 0.0
O298 O 0.77731 0.53588 0.27381 0.0
O299 O 0.77523 0.50013 0.24496 0.0
C300 C 0.7918 0.57666 0.22698 0.0
O301 O 0.69702 0.58023 0.26714 0.0
O302 O 0.73986 0.56944 0.29699 0.0
C303 C 0.72178 0.57605 0.17979 0.0
C304 C 0.79674 0.46716 0.15483 0.0
C305 C 0.80608 0.41698 0.12943 0.0
C306 C 0.77675 0.42692 0.13426 0.0
C307 C 0.77214 0.45165 0.14679 0.0
C308 C 0.82606 0.45697 0.15075 0.0
C309 C 0.8307 0.4323 0.13832 0.0
C310 C 0.79224 0.49494 0.16441 0.0
C311 C 0.71183 0.50133 0.23022 0.0
H312 H 0.6598 0.63725 0.35213 0.0
H313 H 0.66391 0.6002 0.31944 0.0
H314 H 0.75439 0.61898 0.30779 0.0
H315 H 0.75081 0.65559 0.34093 0.0
H316 H 0.75724 0.41567 0.12819 0.0
H317 H 0.7492 0.45885 0.14957 0.0
H318 H 0.84542 0.46854 0.15636 0.0
H319 H 0.85355 0.42574 0.13467 0.0
Tb320 Tb 0.35392 0.32181 0.10657 0.0
Tb321 Tb 0.40867 0.29219 0.07172 0.0
C322 C 0.34146 0.28353 0.0538 0.0
C323 C 0.28053 0.33293 0.13927 0.0
C324 C 0.22565 0.31828 0.15897 0.0
C325 C 0.22609 0.34237 0.14095 0.0
C326 C 0.2531 0.34957 0.13136 0.0
C327 C 0.2803 0.30865 0.15688 0.0
C328 C 0.25322 0.30144 0.16664 0.0
C329 C 0.30868 0.34164 0.1288 0.0
O330 O 0.36746 0.284 0.13311 0.0
O331 O 0.39729 0.26046 0.10341 0.0
O332 O 0.43068 0.30252 0.11576 0.0
O333 O 0.39724 0.33623 0.12776 0.0
O334 O 0.42352 0.26076 0.04721 0.0
O335 O 0.45275 0.29189 0.06006 0.0
O336 O 0.40086 0.33272 0.04951 0.0
O337 O 0.35765 0.34949 0.0676 0.0
O338 O 0.33606 0.28934 0.08092 0.0
O339 O 0.36461 0.29269 0.04294 0.0
C340 C 0.38221 0.26192 0.12672 0.0
O341 O 0.33517 0.33305 0.14512 0.0
O342 O 0.30942 0.34143 0.09959 0.0
C343 C 0.42479 0.32315 0.1312 0.0
C344 C 0.45909 0.27167 1.01454 0.0
C345 C 0.47913 0.26874 0.95735 0.0
C346 C 0.50032 0.26622 0.98471 0.0
C347 C 0.49037 0.26762 1.01297 0.0
C348 C 0.43786 0.27534 0.98727 0.0
C349 C 0.4478 0.27383 0.95895 0.0
C350 C 0.44937 0.27072 0.04488 0.0
C351 C 0.37811 0.35123 0.04925 0.0
H352 H 0.20542 0.35567 0.13389 0.0
H353 H 0.25254 0.3683 0.11762 0.0
H354 H 0.30105 0.29529 0.16323 0.0
H355 H 0.25406 0.28284 0.18064 0.0
H356 H 0.52454 0.26195 0.98442 0.0
H357 H 0.50713 0.26478 1.03373 0.0
H358 H 0.4136 0.27876 0.98789 0.0
H359 H 0.43089 0.27616 0.93831 0.0
Tb360 Tb 0.85222 0.25094 0.99127 0.0
Tb361 Tb 0.84728 0.31081 0.95575 0.0
C362 C 0.88675 0.26288 0.93445 0.0
C363 C 0.85993 0.18663 0.04503 0.0
C364 C 0.86374 0.15021 0.09718 0.0
C365 C 0.86841 0.14119 0.06879 0.0
C366 C 0.86662 0.15919 0.04314 0.0
C367 C 0.85631 0.19609 0.0734 0.0
C368 C 0.85828 0.178 0.09932 0.0
C369 C 0.85373 0.204 1.01628 0.0
O370 O 0.89303 0.26814 1.01142 0.0
O371 O 0.87695 0.31282 1.00061 0.0
O372 O 0.81383 0.31072 0.98665 0.0
O373 O 0.8378 0.279 1.02363 0.0
O374 O 0.86668 0.34454 0.93893 0.0
O375 O 0.81781 0.34412 0.93529 0.0
O376 O 0.81932 0.28627 0.92498 0.0
O377 O 0.80772 0.2573 0.96225 0.0
O378 O 0.87145 0.24589 0.94872 0.0
O379 O 0.88393 0.28858 0.93832 0.0
C380 C 0.89486 0.29319 1.01757 0.0
O381 O 0.82989 0.22148 1.01226 0.0
O382 O 0.8768 0.21339 1.00572 0.0
C383 C 0.81962 0.3012 1.01538 0.0
C384 C 0.83539 0.37252 0.89769 0.0
C385 C 0.82674 0.40956 0.84514 0.0
C386 C 0.80155 0.40142 0.85777 0.0
C387 C 0.80584 0.38325 0.88378 0.0
C388 C 0.86046 0.37962 0.88417 0.0
C389 C 0.85617 0.39781 0.85818 0.0
C390 C 0.84004 0.35742 0.92834 0.0
C391 C 0.80191 0.26833 0.93416 0.0
H392 H 0.87195 0.12004 0.06583 0.0
H393 H 0.86919 0.15148 1.02138 0.0
H394 H 0.85108 0.21726 0.07531 0.0
H395 H 0.85488 0.18574 0.12082 0.0
H396 H 0.77861 0.41022 0.84862 0.0
H397 H 0.78604 0.37857 0.89382 0.0
H398 H 0.88356 0.37196 0.89433 0.0
H399 H 0.87608 0.40331 0.84883 0.0
Tb400 Tb 0.71809 0.80974 0.49578 0.0
Tb401 Tb 0.66039 0.7894 0.52913 0.0
C402 C 0.72658 0.76631 0.55064 0.0
C403 C 0.78847 0.82195 0.45832 0.0
C404 C 0.83928 0.81399 0.42781 0.0
C405 C 0.81467 0.79793 0.42282 0.0
C406 C 0.78945 0.80188 0.43793 0.0
C407 C 0.81309 0.83772 0.46362 0.0
C408 C 0.83822 0.83381 0.44857 0.0
C409 C 0.76155 0.8283 0.47299 0.0
O410 O 0.70493 0.77618 0.47013 0.0
O411 O 0.67097 0.75758 0.49854 0.0
O412 O 0.64228 0.80145 0.48172 0.0
O413 O 0.67547 0.83261 0.47332 0.0
O414 O 0.64404 0.76002 0.55717 0.0
O415 O 0.61581 0.79638 0.5389 0.0
O416 O 0.66602 0.83039 0.5426 0.0
O417 O 0.7154 0.83358 0.53428 0.0
O418 O 0.73432 0.77236 0.52381 0.0
O419 O 0.70369 0.78019 0.55929 0.0
C420 C 0.68736 0.75717 0.47582 0.0
O421 O 0.73459 0.82592 0.45743 0.0
O422 O 0.76343 0.82027 0.5018 0.0
C423 C 0.64984 0.82166 0.46524 0.0
C424 C 0.60409 0.77447 0.5849 0.0
C425 C 0.56743 0.77444 0.63197 0.0
C426 C 0.57617 0.75055 0.61959 0.0
C427 C 0.59433 0.75056 0.59651 0.0
C428 C 0.5967 0.79829 0.5983 0.0
C429 C 0.57863 0.79823 0.62173 0.0
C430 C 0.61791 0.77415 0.5564 0.0
C431 C 0.69144 0.84252 0.54571 0.0
H432 H 0.81461 0.78262 0.40679 0.0
H433 H 0.77061 0.78957 0.43336 0.0
H434 H 0.81271 0.85336 0.47923 0.0
H435 H 0.85693 0.84622 0.45336 0.0
H436 H 0.5677 0.73196 0.62683 0.0
H437 H 0.59942 0.73196 0.58656 0.0
H438 H 0.6037 0.81711 0.58977 0.0
H439 H 0.57193 0.817 0.63054 0.0
Tb440 Tb 0.18552 0.73116 0.58175 0.0
Tb441 Tb 0.16133 0.78993 0.60005 0.0
C442 C 0.14555 0.74093 0.63333 0.0
C443 C 0.20433 0.66458 0.548 0.0
C444 C 0.21799 0.62199 0.51244 0.0
C445 C 0.19073 0.62376 0.52479 0.0
C446 C 0.18407 0.64476 0.54252 0.0
C447 C 0.23088 0.6635 0.5344 0.0
C448 C 0.2376 0.64246 0.51681 0.0
C449 C 0.20024 0.68333 0.57168 0.0
O450 O 0.1473 0.74498 0.54484 0.0
O451 O 0.13958 0.78982 0.55245 0.0
O452 O 0.19241 0.79966 0.56929 0.0
O453 O 0.20564 0.75868 0.55124 0.0
O454 O 0.12447 0.81234 0.61364 0.0
O455 O 0.16734 0.82899 0.61187 0.0
O456 O 0.2 0.77425 0.63625 0.0
O457 O 0.22462 0.74317 0.61082 0.0
O458 O 0.17028 0.72779 0.62715 0.0
O459 O 0.13272 0.76033 0.61362 0.0
C460 C 0.13545 0.76959 0.53526 0.0
O461 O 0.21941 0.70152 0.57592 0.0
O462 O 0.1725 0.69238 0.57445 0.0
C463 C 0.20648 0.78496 0.55148 0.0
C464 C 0.14389 0.83735 0.65373 0.0
C465 C 0.16583 0.85231 0.71205 0.0
C466 C 0.1705 0.82558 0.70548 0.0
C467 C 0.15937 0.8181 0.67648 0.0
C468 C 0.13635 0.86333 0.66124 0.0
C469 C 0.14707 0.87075 0.69047 0.0
C470 C 0.14124 0.83153 0.62167 0.0
C471 C 0.22424 0.75795 0.63389 0.0
H472 H 0.17527 0.6082 0.52203 0.0
H473 H 0.16373 0.64478 0.55312 0.0
H474 H 0.24717 0.67829 0.53834 0.0
H475 H 0.25856 0.64185 0.50721 0.0
H476 H 0.18511 0.81116 0.72174 0.0
H477 H 0.16529 0.79789 0.67102 0.0
H478 H 0.12449 0.87839 0.64389 0.0
H479 H 0.14358 0.89157 0.69502 0.0
Tb480 Tb 0.06382 0.72112 0.84249 0.0
Tb481 Tb 0.04338 0.78541 0.83944 0.0
C482 C 1.01084 0.7493 0.79201 0.0
C483 C 0.09916 0.65298 0.8303 0.0
C484 C 0.13762 0.6118 0.81282 0.0
C485 C 0.10834 0.60694 0.81878 0.0
C486 C 0.08935 0.62737 0.82767 0.0
C487 C 0.127 0.65862 0.82127 0.0
C488 C 0.14616 0.63813 0.81267 0.0
C489 C 0.08211 0.67214 0.84629 0.0
O490 O 0.09457 0.73957 0.81512 0.0
O491 O 0.064 0.77815 0.79846 0.0
O492 O 0.0828 0.77703 0.87609 0.0
O493 O 0.07635 0.73344 0.88861 0.0
O494 O 1.01615 0.81834 0.85042 0.0
O495 O 0.05245 0.82416 0.82463 0.0
O496 O 1.01333 0.76747 0.8685 0.0
O497 O 1.02052 0.72296 0.85922 0.0
O498 O 1.03395 0.73068 0.79875 0.0
O499 O 1.00795 0.77012 0.80794 0.0
C500 C 0.08592 0.75999 0.79465 0.0
O501 O 0.09757 0.69022 0.85979 0.0
O502 O 0.05499 0.68187 0.83257 0.0
C503 C 0.08745 0.75589 0.89593 0.0
C504 C 1.00727 0.85347 0.8117 0.0
C505 C 0.96246 0.88701 0.77096 0.0
C506 C 0.97685 0.8962 0.79839 0.0
C507 C 0.99901 0.87957 0.81854 0.0
C508 C 0.99357 0.84433 0.78409 0.0
C509 C 0.97141 0.86096 0.76388 0.0
C510 C 1.02871 0.83545 0.83424 0.0
C511 C 1.00553 0.74268 0.87025 0.0
H512 H 0.10091 0.58696 0.81845 0.0
H513 H 0.06778 0.62275 0.83425 0.0
H514 H 0.13486 0.6784 0.82276 0.0
H515 H 0.16859 0.64253 0.80827 0.0
H516 H 0.97024 0.91594 0.80486 0.0
H517 H 1.00918 0.88689 0.83985 0.0
H518 H 0.99962 0.82419 0.77842 0.0
H519 H 0.9611 0.85331 0.74285 0.0
Tb520 Tb 0.613 0.33453 0.31159 0.0
Tb521 Tb 0.64881 0.29169 0.27261 0.0
C522 C 0.6574 0.35523 0.26921 0.0
C523 C 0.54787 0.36627 0.34121 0.0
C524 C 0.48375 0.37712 0.33269 0.0
C525 C 0.50297 0.39795 0.33657 0.0
C526 C 0.53471 0.39256 0.34084 0.0
C527 C 0.52876 0.34531 0.33779 0.0
C528 C 0.49694 0.35068 0.33382 0.0
C529 C 0.58125 0.36139 0.34283 0.0
O530 O 0.58483 0.34059 0.2663 0.0
O531 O 0.60429 0.30395 0.24447 0.0
O532 O 0.63148 0.2706 0.311 0.0
O533 O 0.58954 0.29927 0.30397 0.0
O534 O 0.68614 0.27563 0.25292 0.0
O535 O 0.64297 0.25829 0.24722 0.0
O536 O 0.68325 0.29379 0.3125 0.0
O537 O 0.65487 0.3178 0.34285 0.0
O538 O 0.64679 0.35727 0.29496 0.0
O539 O 0.65714 0.33268 0.25511 0.0
C540 C 0.5837 0.32441 0.24415 0.0
O541 O 0.59339 0.33698 0.35139 0.0
O542 O 0.59205 0.37178 0.31946 0.0
C543 C 0.60336 0.27644 0.31586 0.0
C544 C 0.68658 0.2293 0.24167 0.0
C545 C 0.7106 0.17598 0.23544 0.0
C546 C 0.6928 0.18164 0.25833 0.0
C547 C 0.68093 0.20791 0.26139 0.0
C548 C 0.70482 0.22387 0.21928 0.0
C549 C 0.71667 0.19761 0.21618 0.0
C550 C 0.67082 0.25663 0.24126 0.0
C551 C 0.68023 0.3039 0.3385 0.0
H552 H 0.49344 0.41849 0.33637 0.0
H553 H 0.54898 0.409 0.34332 0.0
H554 H 0.53833 0.32486 0.33767 0.0
H555 H 0.48266 0.33427 0.33091 0.0
H556 H 0.68721 0.16562 0.27343 0.0
H557 H 0.66664 0.21138 0.27862 0.0
H558 H 0.70929 0.23994 0.20357 0.0
H559 H 0.73058 0.19429 0.19861 0.0
Tb560 Tb 0.47476 0.86862 0.25994 0.0
Tb561 Tb 0.46227 0.82068 0.30747 0.0
C562 C 0.43796 0.88075 0.31095 0.0
C563 C 0.52285 0.90851 0.21941 0.0
C564 C 0.58269 0.91805 0.21033 0.0
C565 C 0.57794 0.8972 0.2313 0.0
C566 C 0.54832 0.89249 0.2358 0.0
C567 C 0.52738 0.92945 0.1987 0.0
C568 C 0.55702 0.93421 0.19421 0.0
C569 C 0.49172 0.90297 0.22375 0.0
O570 O 0.50673 0.87166 0.30256 0.0
O571 O 0.50923 0.82812 0.32204 0.0
O572 O 0.47662 0.80219 0.26795 0.0
O573 O 0.50768 0.83457 0.25995 0.0
O574 O 0.43447 0.80731 0.3383 0.0
O575 O 0.47703 0.78472 0.33407 0.0
O576 O 0.42137 0.82342 0.27371 0.0
O577 O 0.43602 0.8496 0.2349 0.0
O578 O 0.43784 0.8851 0.28149 0.0
O579 O 0.45265 0.85901 0.32622 0.0
C580 C 0.52027 0.85143 0.3215 0.0
O581 O 0.48378 0.87965 0.21604 0.0
O582 O 0.48434 0.90825 0.25013 0.0
C583 C 0.49946 0.81062 0.25554 0.0
C584 C 0.43694 0.76062 0.34709 0.0
C585 C 0.41418 0.71076 0.35501 0.0
C586 C 0.42958 0.71644 0.33035 0.0
C587 C 0.44082 0.74129 0.32634 0.0
C588 C 0.4197 0.75572 0.37031 0.0
C589 C 0.40823 0.731 0.37417 0.0
C590 C 0.45221 0.78525 0.34635 0.0
C591 C 0.4171 0.83342 0.2452 0.0
H592 H 0.59706 0.88418 0.24384 0.0
H593 H 0.54526 0.87618 0.25191 0.0
H594 H 0.50802 0.94206 0.18594 0.0
H595 H 0.55983 0.95071 0.17824 0.0
H596 H 0.43463 0.70118 0.31532 0.0
H597 H 0.45371 0.74489 0.30794 0.0
H598 H 0.41616 0.77064 0.38623 0.0
H599 H 0.39592 0.72728 0.393 0.0
Tb600 Tb 1.03339 0.20094 0.77201 0.0
Tb601 Tb 0.05944 0.25993 0.78384 0.0
C602 C 0.09649 0.20441 0.81468 0.0
C603 C 0.98063 0.14554 0.76032 0.0
C604 C 0.926 0.11947 0.75537 0.0
C605 C 0.94858 0.11442 0.78159 0.0
C606 C 0.97559 0.12724 0.78397 0.0
C607 C 0.95799 0.15074 0.73419 0.0
C608 C 0.93105 0.1379 0.73177 0.0
C609 C 1.01041 0.15726 0.76212 0.0
O610 O 1.01461 0.21496 0.81186 0.0
O611 O 1.0151 0.25951 0.79895 0.0
O612 O 1.03409 0.26233 0.73635 0.0
O613 O 1.00117 0.23172 0.74585 0.0
O614 O 0.06957 0.28821 0.81605 0.0
O615 O 0.07174 0.29739 0.76836 0.0
O616 O 0.09378 0.24097 0.76148 0.0
O617 O 0.06788 0.20633 0.74131 0.0
O618 O 0.07876 0.19053 0.79669 0.0
O619 O 0.0903 0.23044 0.81675 0.0
C620 C 1.00534 0.24002 0.81492 0.0
O621 O 1.01337 0.17543 0.74065 0.0
O622 O 1.02333 0.1632 0.78899 0.0
C623 C 1.00966 0.24986 0.7272 0.0
C624 C 0.10286 0.32087 0.80434 0.0
C625 C 0.15301 0.35202 0.81887 0.0
C626 C 0.1576 0.3255 0.81061 0.0
C627 C 0.13279 0.31011 0.80338 0.0
C628 C 0.09823 0.347 0.81306 0.0
C629 C 0.12291 0.36238 0.8202 0.0
C630 C 0.07585 0.30589 0.79566 0.0
C631 C 0.09104 0.22165 0.74306 0.0
H632 H 0.9454 0.10057 0.80032 0.0
H633 H 0.99276 0.12254 0.80423 0.0
H634 H 0.96125 0.16436 0.71528 0.0
H635 H 0.91449 0.14195 0.71097 0.0
H636 H 0.1804 0.31658 0.8097 0.0
H637 H 0.13693 0.28995 0.79681 0.0
H638 H 0.07531 0.35574 0.81387 0.0
H639 H 0.1182 0.38273 0.82592 0.0
Tb640 Tb 0.7605 1.01235 0.66181 0.0
Tb641 Tb 0.75009 0.97501 0.72398 0.0
C642 C 0.72371 0.96064 0.65653 0.0
C643 C 0.77533 0.07233 0.61333 0.0
C644 C 0.79046 0.12588 0.60425 0.0
C645 C 0.78033 0.1113 0.57918 0.0
C646 C 0.77295 0.08482 0.5837 0.0
C647 C 0.78416 0.08715 0.63844 0.0
C648 C 0.79166 0.11356 0.63397 0.0
C649 C 0.77065 0.04347 0.61774 0.0
O650 O 0.71866 0.03001 0.67575 0.0
O651 O 0.72898 1.01483 0.72637 0.0
O652 O 0.79039 0.99725 0.73665 0.0
O653 O 0.77727 0.0332 0.70104 0.0
O654 O 0.71915 0.96459 0.75309 0.0
O655 O 0.7669 0.94941 0.76361 0.0
O656 O 0.7795 0.95014 0.70096 0.0
O657 O 0.80134 0.98409 0.67772 0.0
O658 O 0.74148 0.97663 0.64433 0.0
O659 O 0.71946 0.96148 0.68529 0.0
C660 C 0.71438 0.03179 0.70422 0.0
O661 O 0.7918 0.02885 0.63681 0.0
O662 O 0.74344 0.03746 0.62157 0.0
C663 C 0.79398 0.02182 0.72624 0.0
C664 C 0.73103 0.92469 0.78686 0.0
C665 C 0.7166 0.88026 0.82317 0.0
C666 C 0.74317 0.87878 0.80945 0.0
C667 C 0.75035 0.90074 0.7916 0.0
C668 C 0.70421 0.926 0.8 0.0
C669 C 0.69706 0.9041 0.81787 0.0
C670 C 0.74007 0.94956 0.77212 0.0
C671 C 0.80243 0.95911 0.68939 0.0
H672 H 0.77941 0.11991 0.556 0.0
H673 H 0.76627 0.0738 0.56395 0.0
H674 H 0.78606 0.07807 0.66155 0.0
H675 H 0.79898 0.12417 0.65388 0.0
H676 H 0.75899 0.86089 0.81328 0.0
H677 H 0.77144 0.89915 0.78226 0.0
H678 H 0.6891 0.94433 0.79714 0.0
H679 H 0.67624 0.90592 0.82765 0.0
Tb680 Tb 0.79399 0.9787 0.16285 0.0
Tb681 Tb 0.80825 0.98381 0.23555 0.0
C682 C 0.84085 1.01716 0.19033 0.0
C683 C 0.77856 0.94502 0.09191 0.0
C684 C 0.77191 0.89455 0.06875 0.0
C685 C 0.74937 0.90658 0.08371 0.0
C686 C 0.75268 0.9315 0.09526 0.0
C687 C 0.80052 0.93349 0.07597 0.0
C688 C 0.79729 0.90847 0.06456 0.0
C689 C 0.78436 0.96976 0.10714 0.0
O690 O 0.81773 0.94035 0.18422 0.0
O691 O 0.84576 0.95917 0.22287 0.0
O692 O 0.77802 0.95191 0.23069 0.0
O693 O 0.75506 0.96538 0.18162 0.0
O694 O 0.83968 0.97645 0.27651 0.0
O695 O 0.79462 0.99594 0.27611 0.0
O696 O 0.76907 1.01225 0.21778 0.0
O697 O 0.77703 0.02032 0.16853 0.0
O698 O 0.83564 0.99889 0.17094 0.0
O699 O 0.82795 0.01752 0.21491 0.0
C700 C 0.84215 0.9395 0.20532 0.0
O701 O 0.76324 0.9798 0.12154 0.0
O702 O 0.81154 0.96971 0.12318 0.0
C703 C 0.75487 0.95233 0.20819 0.0
C704 C 0.83561 0.01741 0.29847 0.0
C705 C 0.84798 0.07123 0.30051 0.0
C706 C 0.82809 0.06037 0.31887 0.0
C707 C 0.82174 0.03373 0.3176 0.0
C708 C 0.85656 0.02791 0.28125 0.0
C709 C 0.86232 0.05461 0.28191 0.0
C710 C 0.82278 0.99248 0.29023 0.0
C711 C 0.76596 0.02826 0.19271 0.0
H712 H 0.7292 0.89663 0.08671 0.0
H713 H 0.73528 0.93982 0.10739 0.0
H714 H 0.82073 0.94347 0.07319 0.0
H715 H 0.81512 0.89968 0.05329 0.0
H716 H 0.81742 0.07238 0.3343 0.0
H717 H 0.80509 0.0262 0.33058 0.0
H718 H 0.86741 1.01589 0.26593 0.0
H719 H 0.87766 0.06228 0.26747 0.0
Tb720 Tb 0.34373 0.46618 0.41393 0.0
Tb721 Tb 0.27553 0.44741 0.40157 0.0
C722 C 0.32604 0.42525 0.36722 0.0
C723 C 0.40789 0.50673 0.42825 0.0
C724 C 0.41712 0.56108 0.4235 0.0
C725 C 0.43239 0.54312 0.4069 0.0
C726 C 0.42795 0.51603 0.40943 0.0
C727 C 0.39429 0.52444 0.44647 0.0
C728 C 0.39909 0.55148 0.44426 0.0
C729 C 0.39715 0.48024 0.42434 0.0
O730 O 0.31742 0.50035 0.38606 0.0
O731 O 0.27811 0.47731 0.36413 0.0
O732 O 0.27145 0.48525 0.42209 0.0
O733 O 0.32017 0.48402 0.44796 0.0
O734 O 0.23888 0.43485 0.37203 0.0
O735 O 0.23544 0.44128 0.4192 0.0
O736 O 0.29885 0.42333 0.44273 0.0
O737 O 0.34728 0.42455 0.43222 0.0
O738 O 0.33654 0.44856 0.37055 0.0
O739 O 0.30459 0.41803 0.38237 0.0
C740 C 0.29377 0.49853 0.36453 0.0
O741 O 0.38308 0.47042 0.44559 0.0
O742 O 0.38265 0.47744 0.39705 0.0
C743 C 0.29146 0.49386 0.44323 0.0
C744 C 0.20847 0.40766 0.39687 0.0
C745 C 0.1801 0.35984 0.39597 0.0
C746 C 0.16256 0.38484 0.3917 0.0
C747 C 0.17666 0.40849 0.3922 0.0
C748 C 0.22633 0.383 0.40292 0.0
C749 C 0.21218 0.35915 0.40247 0.0
C750 C 0.22238 0.43273 0.39376 0.0
C751 C 0.32736 0.41294 0.44626 0.0
H752 H 0.44651 0.55029 0.39087 0.0
H753 H 0.43847 0.50268 0.39511 0.0
H754 H 0.37843 0.51782 0.46094 0.0
H755 H 0.38702 0.56514 0.45708 0.0
H756 H 0.13786 0.38634 0.38588 0.0
H757 H 0.16268 0.42746 0.3876 0.0
H758 H 0.25108 0.38222 0.40687 0.0
H759 H 0.22628 0.34025 0.40594 0.0
Tb760 Tb 0.30272 0.512 0.88768 0.0
Tb761 Tb 0.33557 0.47583 0.82865 0.0
C762 C 0.34953 0.46095 0.90517 0.0
C763 C 0.27405 0.57068 0.92945 0.0
C764 C 0.26994 0.61907 0.95941 0.0
C765 C 0.28033 0.59435 0.97612 0.0
C766 C 0.28226 0.57057 0.96141 0.0
C767 C 0.26423 0.59542 0.91258 0.0
C768 C 0.2623 0.61925 0.92732 0.0
C769 C 0.27242 0.54484 0.91466 0.0
O770 O 0.33879 0.53547 0.87533 0.0
O771 O 0.35755 0.5141 0.83503 0.0
O772 O 0.30195 0.50342 0.7962 0.0
O773 O 0.301 0.50776 0.84184 0.0
O774 O 0.37493 0.45541 0.81415 0.0
O775 O 0.32804 0.45348 0.79118 0.0
O776 O 0.29658 0.45598 0.84194 0.0
O777 O 0.27384 0.47919 0.87828 0.0
O778 O 0.33653 0.48306 0.91413 0.0
O779 O 0.34998 0.45587 0.87595 0.0
C780 C 0.35566 0.53434 0.85315 0.0
O781 O 0.27027 0.5454 0.88481 0.0
O782 O 0.29002 0.52397 0.9286 0.0
C783 C 0.28787 0.51602 0.81475 0.0
C784 C 0.36573 0.42738 0.76908 0.0
C785 C 0.37838 0.38733 0.72908 0.0
C786 C 0.34908 0.40084 0.72635 0.0
C787 C 0.34288 0.42055 0.74586 0.0
C788 C 0.39555 0.41478 0.77103 0.0
C789 C 0.40184 0.39495 0.75114 0.0
C790 C 0.35679 0.44555 0.79228 0.0
C791 C 0.27548 0.4595 0.85982 0.0
H792 H 0.28591 0.59311 1.00083 0.0
H793 H 0.28933 0.55191 0.9753 0.0
H794 H 0.25731 0.59634 0.888 0.0
H795 H 0.25451 0.63783 0.91352 0.0
H796 H 0.33052 0.39543 0.70965 0.0
H797 H 0.31965 0.42975 0.74335 0.0
H798 H 0.41367 0.41941 0.78867 0.0
H799 H 0.4246 0.38469 0.754 0.0
Tb800 Tb 0.65956 0.74146 1.00825 0.0
Tb801 Tb 0.71475 0.71245 0.97422 0.0
C802 C 0.64469 0.7096 0.94847 0.0
C803 C 0.60864 0.76359 0.0645 0.0
C804 C 0.58837 0.76839 0.12139 0.0
C805 C 0.56727 0.77021 0.09401 0.0
C806 C 0.57734 0.76788 0.0659 0.0
C807 C 0.62978 0.76065 0.09183 0.0
C808 C 0.61973 0.76308 0.11999 0.0
C809 C 0.61849 0.76352 1.03422 0.0
O810 O 0.66881 0.70176 1.03268 0.0
O811 O 0.70997 0.68381 1.01212 0.0
O812 O 0.73055 0.74608 0.99898 0.0
O813 O 0.70327 0.74073 1.03742 0.0
O814 O 0.73549 0.70157 0.9367 0.0
O815 O 0.76013 0.69473 0.98277 0.0
O816 O 0.69691 0.74776 0.94443 0.0
O817 O 0.67136 0.77281 0.97598 0.0
O818 O 0.63756 0.72903 0.96519 0.0
O819 O 0.67264 0.69736 0.95149 0.0
C820 C 0.69079 0.68273 1.03195 0.0
O821 O 0.64415 0.77364 1.03139 0.0
O822 O 0.61553 0.74174 1.02009 0.0
C823 C 0.72581 0.75089 1.02656 0.0
C824 C 0.78976 0.70518 0.94423 0.0
C825 C 0.84399 0.72311 0.92612 0.0
C826 C 0.84548 0.70235 0.94941 0.0
C827 C 0.8188 0.6935 0.95821 0.0
C828 C 0.78803 0.72623 0.92128 0.0
C829 C 0.81479 0.73506 0.91234 0.0
C830 C 0.76201 0.69462 0.95379 0.0
C831 C 0.68344 0.77043 0.95076 0.0
H832 H 0.54304 0.7746 0.09412 0.0
H833 H 0.56064 0.77018 0.04508 0.0
H834 H 0.65406 0.75708 0.09137 0.0
H835 H 0.63658 0.76124 0.14066 0.0
H836 H 0.86734 0.69294 0.9611 0.0
H837 H 0.8209 0.67733 0.97603 0.0
H838 H 0.76603 0.73576 0.91005 0.0
H839 H 0.81252 0.7509 0.89416 0.0
Tb840 Tb 0.22486 0.72609 0.13159 0.0
Tb841 Tb 0.22465 0.78538 0.09613 0.0
C842 C 0.25729 0.73292 0.07619 0.0
C843 C 0.24123 0.66175 0.18607 0.0
C844 C 0.26482 0.62261 0.23523 0.0
C845 C 0.2529 0.61503 0.20607 0.0
C846 C 0.24124 0.63433 0.1819 0.0
C847 C 0.25427 0.66948 0.21478 0.0
C848 C 0.26601 0.65014 0.23903 0.0
C849 C 0.22395 0.68137 0.1616 0.0
O850 O 0.25813 0.74768 0.1612 0.0
O851 O 0.26855 0.77913 0.12538 0.0
O852 O 0.20712 0.78995 0.13955 0.0
O853 O 0.18488 0.75104 0.13846 0.0
O854 O 0.24732 0.81293 0.07242 0.0
O855 O 0.20256 0.82398 0.08341 0.0
O856 O 0.1828 0.77063 0.07503 0.0
O857 O 0.19455 0.72534 0.08664 0.0
O858 O 0.26202 0.72451 0.10529 0.0
O859 O 0.23923 0.75496 0.06643 0.0
C860 C 0.27499 0.76648 0.15262 0.0
O861 O 0.21385 0.70441 0.1697 0.0
O862 O 0.23339 0.68382 0.13528 0.0
C863 C 0.18699 0.77471 0.1487 0.0
C864 C 0.21628 0.8477 1.03971 0.0
C865 C 0.20495 0.88759 0.99016 0.0
C866 C 0.18157 0.88147 1.00672 0.0
C867 C 0.18719 0.8618 1.03129 0.0
C868 C 0.23904 0.85266 1.02194 0.0
C869 C 0.23342 0.87229 0.9974 0.0
C870 C 0.22455 0.83147 0.06945 0.0
C871 C 0.17882 0.74585 0.06904 0.0
H872 H 0.25212 0.59409 0.20199 0.0
H873 H 0.23121 0.62778 0.16012 0.0
H874 H 0.25447 0.69047 0.21883 0.0
H875 H 0.27484 0.65681 0.2611 0.0
H876 H 0.15928 0.89267 1.00152 0.0
H877 H 0.16918 0.85863 0.04459 0.0
H878 H 0.26182 0.84245 1.02805 0.0
H879 H 0.25211 0.87666 0.98546 0.0
Tb880 Tb 0.42142 0.24017 0.55826 0.0
Tb881 Tb 0.36314 0.22275 0.5932 0.0
C882 C 0.4324 0.20419 0.61999 0.0
C883 C 0.47863 0.25125 0.50309 0.0
C884 C 0.50557 0.25034 0.4491 0.0
C885 C 0.52252 0.25615 0.47702 0.0
C886 C 0.50921 0.25659 0.5036 0.0
C887 C 0.46167 0.24484 0.47555 0.0
C888 C 0.47499 0.24439 0.44886 0.0
C889 C 0.46535 0.25302 0.53158 0.0
O890 O 0.41111 0.20085 0.54199 0.0
O891 O 0.36281 0.19905 0.55414 0.0
O892 O 0.34902 0.26134 0.56643 0.0
O893 O 0.37828 0.25387 0.5295 0.0
O894 O 0.34589 0.2075 0.63182 0.0
O895 O 0.31678 0.21531 0.58779 0.0
O896 O 0.38024 0.25484 0.6192 0.0
O897 O 0.41452 0.2717 0.58995 0.0
O898 O 0.44087 0.22433 0.60412 0.0
O899 O 0.4043 0.19697 0.61488 0.0
C900 C 0.38508 0.18972 0.54047 0.0
O901 O 0.43981 0.26811 0.53039 0.0
O902 O 0.46582 0.23088 0.54873 0.0
C903 C 0.3567 0.26825 0.53971 0.0
C904 C 0.29188 0.21169 0.63152 0.0
C905 C 0.23947 0.21966 0.66004 0.0
C906 C 0.25242 0.1937 0.65714 0.0
C907 C 0.27828 0.18982 0.64307 0.0
C908 C 0.2791 0.2377 0.63407 0.0
C909 C 0.25314 0.24164 0.64823 0.0
C910 C 0.31867 0.20622 0.61627 0.0
C911 C 0.39892 0.27281 0.61316 0.0
H912 H 0.54585 0.26126 0.47822 0.0
H913 H 0.52276 0.26158 0.5246 0.0
H914 H 0.4381 0.24046 0.47462 0.0
H915 H 0.46124 0.23948 0.42796 0.0
H916 H 0.24298 0.17631 0.66631 0.0
H917 H 0.28775 0.16956 0.64123 0.0
H918 H 0.28911 0.25486 0.6251 0.0
H919 H 0.24365 0.26193 0.64973 0.0
Tb920 Tb 0.89861 0.24381 0.49961 0.0
Tb921 Tb 0.875 0.30587 0.50158 0.0
C922 C 0.85384 0.2581 0.54118 0.0
C923 C 0.90586 0.18493 0.46303 0.0
C924 C 0.87956 0.17806 0.40261 0.0
C925 C 0.86753 0.16661 0.42736 0.0
C926 C 0.88063 0.16992 0.45729 0.0
C927 C 0.91905 0.19493 0.43827 0.0
C928 C 0.90589 0.19166 0.40832 0.0
C929 C 0.91262 0.19605 0.49287 0.0
O930 O 0.85219 0.25023 0.47157 0.0
O931 O 0.84859 0.29561 0.45987 0.0
O932 O 0.90527 0.30609 0.46625 0.0
O933 O 0.90899 0.2617 0.45735 0.0
O934 O 0.83885 0.33499 0.50384 0.0
O935 O 0.88466 0.34589 0.50211 0.0
O936 O 0.90743 0.29662 0.54408 0.0
O937 O 0.9343 0.25879 0.53236 0.0
O938 O 0.88131 0.24697 0.54174 0.0
O939 O 0.84433 0.27979 0.52258 0.0
C940 C 0.83848 0.27225 0.45556 0.0
O941 O 0.9327 0.21375 0.49484 0.0
O942 O 0.88832 0.20398 0.5042 0.0
C943 C 0.91279 0.28656 0.4495 0.0
C944 C 0.85292 0.37421 0.52711 0.0
C945 C 0.8454 0.41732 0.56346 0.0
C946 C 0.87404 0.40254 0.56588 0.0
C947 C 0.87779 0.38116 0.54785 0.0
C948 C 0.82415 0.38833 0.5255 0.0
C949 C 0.82037 0.40958 0.54358 0.0
C950 C 0.85679 0.35428 0.5049 0.0
C951 C 0.93081 0.2783 0.55027 0.0
H952 H 0.84798 0.15501 0.42359 0.0
H953 H 0.86996 0.16209 0.47591 0.0
H954 H 0.93859 0.20654 0.44185 0.0
H955 H 0.916 0.2001 0.38963 0.0
H956 H 0.89378 0.40808 0.58091 0.0
H957 H 0.9003 0.37062 0.54953 0.0
H958 H 0.80468 0.38334 0.50964 0.0
H959 H 0.79786 0.42018 0.54168 0.0
H960 H 0.11366 0.28502 0.31084 0.0
H961 H 0.03841 0.31929 0.35051 0.0
H962 H 0.0742 0.33409 0.39223 0.0
H963 H 0.12569 0.3462 0.40975 0.0
H964 H 0.19963 0.31917 0.36366 0.0
H965 H 0.16628 0.29114 0.33377 0.0
C966 C 0.10519 0.29507 0.32913 0.0
C967 C 0.07368 0.30171 0.32744 0.0
C968 C 0.12586 0.3048 0.352 0.0
C969 C 0.06274 0.31459 0.35117 0.0
C970 C 0.08315 0.32297 0.37499 0.0
C971 C 0.13464 0.3337 0.39362 0.0
C972 C 0.16468 0.3356 0.38808 0.0
C973 C 0.11467 0.31962 0.37452 0.0
C974 C 0.17647 0.31842 0.36817 0.0
C975 C 0.15723 0.30268 0.35063 0.0
H976 H 0.34141 0.58595 0.86674 0.0
H977 H 0.40539 0.5384 0.82396 0.0
H978 H 0.4295 0.57865 0.81071 0.0
H979 H 0.43164 0.62725 0.80972 0.0
H980 H 0.36624 0.67581 0.84966 0.0
H981 H 0.34355 0.63525 0.86555 0.0
C982 C 0.36089 0.58425 0.85484 0.0
C983 C 0.37169 0.5588 0.8467 0.0
C984 C 0.37429 0.60775 0.84661 0.0
C985 C 0.39656 0.55742 0.83068 0.0
C986 C 0.41036 0.58053 0.82305 0.0
C987 C 0.41255 0.62918 0.82214 0.0
C988 C 0.40093 0.6549 0.82863 0.0
C989 C 0.3993 0.60581 0.83068 0.0
C990 C 0.37585 0.65653 0.84437 0.0
C991 C 0.36285 0.63325 0.85345 0.0
H992 H 0.64406 0.14199 0.72644 0.0
H993 H 0.66717 0.10674 0.81959 0.0
H994 H 0.69041 0.0666 0.80201 0.0
H995 H 0.70469 0.0415 0.76113 0.0
H996 H 0.68424 0.07571 0.66761 0.0
H997 H 0.659 0.11603 0.68444 0.0
C998 C 0.65431 0.12557 0.74288 0.0
C999 C 0.65385 0.12757 0.77438 0.0
C1000 C 0.66787 0.10223 0.73259 0.0
C1001 C 0.66715 0.10597 0.79528 0.0
C1002 C 0.68043 0.08287 0.78525 0.0
C1003 C 0.69464 0.05762 0.74419 0.0
C1004 C 0.69641 0.05543 0.71306 0.0
C1005 C 0.68089 0.08078 0.75406 0.0
C1006 C 0.68313 0.07671 0.69169 0.0
C1007 C 0.66885 0.09985 0.70135 0.0
H1008 H 0.97045 0.87304 0.23119 0.0
H1009 H 0.91639 0.81046 0.25705 0.0
H1010 H 0.86947 0.83973 0.23836 0.0
H1011 H 0.84385 0.88521 0.21963 0.0
H1012 H 0.89928 0.94777 0.19731 0.0
H1013 H 0.94528 0.91652 0.20929 0.0
C1014 C 0.94845 0.86551 0.23236 0.0
C1015 C 0.94721 0.83945 0.2457 0.0
C1016 C 0.92159 0.88267 0.22224 0.0
C1017 C 0.91827 0.83031 0.24689 0.0
C1018 C 0.89132 0.84715 0.23632 0.0
C1019 C 0.86594 0.89169 0.21667 0.0
C1020 C 0.86817 0.9187 0.20724 0.0
C1021 C 0.89267 0.87365 0.22461 0.0
C1022 C 0.897 0.92704 0.20424 0.0
C1023 C 0.92335 0.9092 0.21126 0.0
H1024 H 0.40408 0.17415 0.48675 0.0
H1025 H 0.35327 0.14942 0.55724 0.0
H1026 H 0.33893 0.11069 0.53029 0.0
H1027 H 0.33762 0.08495 0.48538 0.0
H1028 H 0.38587 0.10972 0.4129 0.0
H1029 H 0.40428 0.14668 0.44172 0.0
C1030 C 0.39023 0.16008 0.49634 0.0
C1031 C 0.37974 0.16496 0.52409 0.0
C1032 C 0.38131 0.13772 0.48019 0.0
C1033 C 0.36152 0.14649 0.5359 0.0
C1034 C 0.35326 0.12419 0.52047 0.0
C1035 C 0.35249 0.09816 0.47593 0.0
C1036 C 0.36026 0.09424 0.44685 0.0
C1037 C 0.36253 0.11978 0.49238 0.0
C1038 C 0.3794 0.11199 0.43516 0.0
C1039 C 0.38993 0.13329 0.45166 0.0
H1040 H 0.20047 1.0036 0.92686 0.0
H1041 H 0.25008 0.96073 0.86624 0.0
H1042 H 0.24083 0.91825 0.89128 0.0
H1043 H 0.2249 0.89348 0.93501 0.0
H1044 H 0.17732 0.9368 0.99676 0.0
H1045 H 0.17897 0.97859 0.96632 0.0
C1046 C 0.20867 0.98499 0.91862 0.0
C1047 C 0.2263 0.98549 0.89496 0.0
C1048 C 0.20386 0.96055 0.93357 0.0
C1049 C 0.23649 0.96108 0.88444 0.0
C1050 C 0.23143 0.93669 0.89894 0.0
C1051 C 0.21458 0.91203 0.94158 0.0
C1052 C 0.20127 0.91193 0.96835 0.0
C1053 C 0.21618 0.93621 0.92429 0.0
C1054 C 0.18751 0.93613 0.9762 0.0
C1055 C 0.18868 0.96015 0.95893 0.0
H1056 H 0.81342 0.465 0.54276 0.0
H1057 H 0.86927 0.42339 0.62308 0.0
H1058 H 0.86132 0.46229 0.652 0.0
H1059 H 0.83555 0.50676 0.65536 0.0
H1060 H 0.77727 0.54719 0.57575 0.0
H1061 H 0.78913 0.51001 0.5456 0.0
C1062 C 0.8237 0.46436 0.56666 0.0
C1063 C 0.84163 0.44122 0.58083 0.0
C1064 C 0.81862 0.48657 0.58323 0.0
C1065 C 0.85546 0.44098 0.61159 0.0
C1066 C 0.85081 0.46317 0.62817 0.0
C1067 C 0.82582 0.50764 0.63128 0.0
C1068 C 0.80554 0.52968 0.61778 0.0
C1069 C 0.83211 0.48592 0.61432 0.0
C1070 C 0.79291 0.53041 0.58665 0.0
C1071 C 0.79959 0.50914 0.56945 0.0
H1072 H 0.73432 0.57872 0.12153 0.0
H1073 H 0.68158 0.62114 0.17991 0.0
H1074 H 0.66568 0.65704 0.1389 0.0
H1075 H 0.66933 0.67778 0.08711 0.0
H1076 H 0.72378 0.63485 1.03048 0.0
H1077 H 0.73621 0.598 0.07007 0.0
C1078 C 0.71915 0.59566 0.12546 0.0
C1079 C 0.70934 0.59701 0.15414 0.0
C1080 C 0.71045 0.61639 0.10194 0.0
C1081 C 0.68956 0.61931 0.15826 0.0
C1082 C 0.68052 0.63997 0.13476 0.0
C1083 C 0.68361 0.66022 0.08326 0.0
C1084 C 0.6956 0.65934 0.05558 0.0
C1085 C 0.69116 0.63894 0.10657 0.0
C1086 C 0.71427 0.63638 0.05136 0.0
C1087 C 0.72145 0.61518 0.0741 0.0
H1088 H 0.48478 0.31328 0.12875 0.0
H1089 H 0.42402 0.34922 0.18436 0.0
H1090 H 0.46823 0.35516 0.22355 0.0
H1091 H 0.52436 0.3462 0.24381 0.0
H1092 H 0.58311 0.30882 0.18698 0.0
H1093 H 0.53955 0.30749 0.14661 0.0
C1094 C 0.48103 0.32259 0.14935 0.0
C1095 C 0.45094 0.33049 0.15367 0.0
C1096 C 0.50636 0.32556 0.17173 0.0
C1097 C 0.44683 0.34294 0.18034 0.0
C1098 C 0.47216 0.34618 0.20284 0.0
C1099 C 0.52765 0.33822 0.22237 0.0
C1100 C 0.55714 0.32748 0.21861 0.0
C1101 C 0.50208 0.33705 0.19908 0.0
C1102 C 0.56082 0.31701 0.19072 0.0
C1103 C 0.53585 0.31621 0.16754 0.0
H1104 H 0.9173 0.29328 0.89822 0.0
H1105 H 0.90374 0.21102 0.92176 0.0
H1106 H 0.93879 0.19631 0.88733 0.0
H1107 H 0.97424 0.207 0.85032 0.0
H1108 H 0.98606 0.29003 0.82784 0.0
H1109 H 0.95112 0.30384 0.86176 0.0
C1110 C 0.92186 0.27206 0.89597 0.0
C1111 C 0.90766 0.25339 0.91291 0.0
C1112 C 0.94201 0.26374 0.87608 0.0
C1113 C 0.91411 0.226 0.9092 0.0
C1114 C 0.93429 0.21754 0.88944 0.0
C1115 C 0.96917 0.2281 0.85282 0.0
C1116 C 0.98315 0.24731 0.83617 0.0
C1117 C 0.94855 0.23623 0.87272 0.0
C1118 C 0.97595 0.27458 0.83997 0.0
C1119 C 0.95583 0.28264 0.85954 0.0
H1120 H 0.56706 0.81398 0.33962 0.0
H1121 H 0.53522 0.89454 0.35411 0.0
H1122 H 0.57572 0.89409 0.39889 0.0
H1123 H 0.6159 0.86785 0.43807 0.0
H1124 H 0.64496 0.78671 0.42264 0.0
H1125 H 0.6102 0.79031 0.37409 0.0
C1126 C 0.56933 0.83165 0.35226 0.0
C1127 C 0.54807 0.85414 0.34386 0.0
C1128 C 0.5921 0.83098 0.37805 0.0
C1129 C 0.55143 0.87701 0.36013 0.0
C1130 C 0.57441 0.87663 0.38589 0.0
C1131 C 0.61502 0.85131 0.4236 0.0
C1132 C 0.63281 0.82699 0.43383 0.0
C1133 C 0.59428 0.85335 0.39571 0.0
C1134 C 0.63137 0.80554 0.41518 0.0
C1135 C 0.61145 0.80756 0.38746 0.0
H1136 H 0.10889 0.77717 0.65744 0.0
H1137 H 0.16378 0.70183 0.68121 0.0
H1138 H 0.15146 0.70121 0.7333 0.0
H1139 H 0.12443 0.72227 0.77237 0.0
H1140 H 0.07246 0.79912 0.74769 0.0
H1141 H 0.08502 0.79914 0.69635 0.0
C1142 C 0.11818 0.76046 0.67383 0.0
C1143 C 0.13706 0.73938 0.66492 0.0
C1144 C 0.1118 0.76069 0.70401 0.0
C1145 C 0.14902 0.71823 0.68704 0.0
C1146 C 0.14206 0.71796 0.71699 0.0
C1147 C 0.11612 0.73919 0.75591 0.0
C1148 C 0.09733 0.76069 0.76438 0.0
C1149 C 0.12349 0.73915 0.72586 0.0
C1150 C 0.08685 0.78226 0.74232 0.0
C1151 C 0.09391 0.78226 0.71267 0.0
H1152 H 1.01533 0.72387 0.74112 0.0
H1153 H 0.95043 0.76511 0.78855 0.0
H1154 H 0.90833 0.74675 0.7569 0.0
H1155 H 0.8925 0.71029 0.72591 0.0
H1156 H 0.95768 0.66773 0.67993 0.0
H1157 H 0.9971 0.69589 0.70013 0.0
C1158 C 0.99186 0.72937 0.74386 0.0
C1159 C 0.98586 0.74499 0.76759 0.0
C1160 C 0.96793 0.71832 0.72607 0.0
C1161 C 0.95549 0.75274 0.77059 0.0
C1162 C 0.93144 0.74214 0.75264 0.0
C1163 C 0.91492 0.70799 0.71915 0.0
C1164 C 0.9226 0.68649 0.70237 0.0
C1165 C 0.93765 0.72361 0.73169 0.0
C1166 C 0.95162 0.68381 0.69354 0.0
C1167 C 0.97417 0.69976 0.70523 0.0
H1168 H 0.64763 0.40594 0.28558 0.0
H1169 H 0.6923 0.36146 0.22274 0.0
H1170 H 0.71136 0.40288 0.20354 0.0
H1171 H 0.71717 0.45181 0.20647 0.0
H1172 H 0.67181 0.49477 0.27018 0.0
H1173 H 0.65115 0.45393 0.28683 0.0
C1174 C 0.66159 0.40503 0.26768 0.0
C1175 C 0.66872 0.3802 0.25599 0.0
C1176 C 0.67232 0.42888 0.25676 0.0
C1177 C 0.68645 0.38002 0.23239 0.0
C1178 C 0.69738 0.40381 0.2214 0.0
C1179 C 0.70235 0.45238 0.22365 0.0
C1180 C 0.69613 0.47672 0.23694 0.0
C1181 C 0.69066 0.4284 0.23358 0.0
C1182 C 0.67713 0.47665 0.25944 0.0
C1183 C 0.66533 0.45316 0.26911 0.0
H1184 H 0.42293 0.93327 0.29209 0.0
H1185 H 0.42116 0.87528 0.3677 0.0
H1186 H 0.39711 0.90979 0.39489 0.0
H1187 H 0.3743 0.95646 0.39606 0.0
H1188 H 0.37748 1.01379 0.32003 0.0
H1189 H 0.40353 0.97974 0.29457 0.0
C1190 C 0.41723 0.92811 0.31449 0.0
C1191 C 0.42352 0.90163 0.32762 0.0
C1192 C 0.40378 0.94808 0.33012 0.0
C1193 C 0.41645 0.89549 0.35694 0.0
C1194 C 0.40271 0.91524 0.37255 0.0
C1195 C 0.38122 0.96156 0.3742 0.0
C1196 C 0.37374 0.98767 0.35997 0.0
C1197 C 0.39607 0.94164 0.35929 0.0
C1198 C 0.38267 0.99385 0.33147 0.0
C1199 C 0.39753 0.97435 0.31677 0.0
H1200 H 0.20862 0.13036 0.89199 0.0
H1201 H 0.21117 0.10395 0.8017 0.0
H1202 H 0.17124 0.13867 0.77986 0.0
H1203 H 0.13272 0.17396 0.78598 0.0
H1204 H 0.1269 0.20121 0.87489 0.0
H1205 H 0.17119 0.16936 0.8975 0.0
C1206 C 0.2006 0.13238 0.86753 0.0
C1207 C 0.21287 0.11408 0.84869 0.0
C1208 C 0.17699 0.15261 0.85479 0.0
C1209 C 0.20212 0.11724 0.81699 0.0
C1210 C 0.17922 0.13724 0.80433 0.0
C1211 C 0.14137 0.17323 0.81032 0.0
C1212 C 0.12645 0.18984 0.82875 0.0
C1213 C 0.16611 0.15463 0.823 0.0
C1214 C 0.1381 0.1888 0.86015 0.0
C1215 C 0.16323 0.17036 0.87307 0.0
H1216 H 0.73083 0.95023 0.59832 0.0
H1217 H 0.68736 0.92187 0.67299 0.0
H1218 H 0.6708 0.88408 0.6446 0.0
H1219 H 0.67202 0.85679 0.59953 0.0
H1220 H 0.71799 0.88534 0.52682 0.0
H1221 H 0.72974 0.92503 0.55316 0.0
C1222 C 0.71742 0.93604 0.6084 0.0
C1223 C 0.71052 0.93915 0.63797 0.0
C1224 C 0.7084 0.91405 0.59216 0.0
C1225 C 0.69312 0.92024 0.65035 0.0
C1226 C 0.68367 0.89846 0.6341 0.0
C1227 C 0.68411 0.87196 0.58929 0.0
C1228 C 0.6941 0.86795 0.56113 0.0
C1229 C 0.6916 0.89482 0.60511 0.0
C1230 C 0.71012 0.88774 0.54845 0.0
C1231 C 0.71694 0.91052 0.56355 0.0
H1232 H 0.89794 0.10225 0.11345 0.0
H1233 H 0.82492 0.153 0.13956 0.0
H1234 H 0.8156 0.11721 0.17584 0.0
H1235 H 0.82261 0.06934 0.19397 0.0
H1236 H 0.89072 0.01731 0.16216 0.0
H1237 H 0.90755 0.05556 0.13442 0.0
C1238 C 0.88003 0.1056 0.12712 0.0
C1239 C 0.86189 0.13029 0.12324 0.0
C1240 C 0.87379 0.0845 0.14689 0.0
C1241 C 0.83944 0.13438 0.14199 0.0
C1242 C 0.83385 0.11377 0.16261 0.0
C1243 C 0.84174 0.06658 0.18169 0.0
C1244 C 0.85557 0.04064 0.18015 0.0
C1245 C 0.85014 0.08846 0.16444 0.0
C1246 C 0.87988 0.03715 0.1637 0.0
C1247 C 0.88934 0.05898 0.1477 0.0
H1248 H 0.27367 0.59355 0.5201 0.0
H1249 H 0.18199 0.5965 0.4698 0.0
H1250 H 0.19632 0.55653 0.44491 0.0
H1251 H 0.23504 0.52118 0.43695 0.0
H1252 H 0.3269 0.51853 0.4871 0.0
H1253 H 0.3123 0.55799 0.51246 0.0
C1254 C 0.2569 0.58562 0.50343 0.0
C1255 C 0.22685 0.59811 0.49666 0.0
C1256 C 0.26528 0.56262 0.48929 0.0
C1257 C 0.20523 0.58721 0.47552 0.0
C1258 C 0.21343 0.5644 0.46123 0.0
C1259 C 0.25188 0.5291 0.45355 0.0
C1260 C 0.28205 0.5168 0.46007 0.0
C1261 C 0.24339 0.55193 0.46795 0.0
C1262 C 0.3035 0.52747 0.48163 0.0
C1263 C 0.2952 0.55013 0.49611 0.0
H1264 H 0.39675 0.35543 0.99295 0.0
H1265 H 0.35029 0.40056 0.05408 0.0
H1266 H 0.33997 0.43883 1.01609 0.0
H1267 H 0.34112 0.45871 0.96477 0.0
H1268 H 0.38442 0.41352 0.90146 0.0
H1269 H 0.39912 0.37633 0.94102 0.0
C1270 C 0.38471 0.37377 0.99808 0.0
C1271 C 0.37433 0.37501 1.0265 0.0
C1272 C 0.37813 0.39573 0.97564 0.0
C1273 C 0.35843 0.39888 1.03249 0.0
C1274 C 0.35252 0.42085 1.01072 0.0
C1275 C 0.35416 0.44095 0.95951 0.0
C1276 C 0.36169 0.43921 0.92991 0.0
C1277 C 0.36184 0.41939 0.98209 0.0
C1278 C 0.37829 0.41566 0.92388 0.0
C1279 C 0.38665 0.39428 0.94655 0.0
H1280 H 0.54789 0.70071 0.82886 0.0
H1281 H 0.48732 0.72288 0.8921 0.0
H1282 H 0.53026 0.7196 0.93349 0.0
H1283 H 0.58481 0.71356 0.9518 0.0
H1284 H 0.64754 0.69274 0.89062 0.0
H1285 H 0.60412 0.69164 0.84883 0.0
C1286 C 0.5441 0.7047 0.85172 0.0
C1287 C 0.51412 0.71242 0.85697 0.0
C1288 C 0.56932 0.70288 0.87597 0.0
C1289 C 0.50987 0.71728 0.88694 0.0
C1290 C 0.53451 0.71531 0.91085 0.0
C1291 C 0.58912 0.70846 0.9294 0.0
C1292 C 0.61946 0.70338 0.92438 0.0
C1293 C 0.56428 0.70856 0.90558 0.0
C1294 C 0.62445 0.69652 0.89526 0.0
C1295 C 0.59958 0.69621 0.87127 0.0
H1296 H 0.11258 0.82247 0.24827 0.0
H1297 H 0.07351 0.74699 0.23879 0.0
H1298 H 0.10618 0.73542 0.20183 0.0
H1299 H 0.14482 0.74638 0.17116 0.0
H1300 H 0.18482 0.82144 0.17848 0.0
H1301 H 0.15291 0.83343 0.21687 0.0
C1302 C 0.11144 0.80342 0.23829 0.0
C1303 C 0.09034 0.7857 0.24649 0.0
C1304 C 0.13033 0.79682 0.21633 0.0
C1305 C 0.08918 0.76119 0.233 0.0
C1306 C 0.10794 0.75447 0.21173 0.0
C1307 C 0.14669 0.76545 0.18099 0.0
C1308 C 0.16731 0.78297 0.17163 0.0
C1309 C 0.12836 0.77215 0.203 0.0
C1310 C 0.16917 0.80753 0.18499 0.0
C1311 C 0.15092 0.81437 0.20707 0.0
H1312 H 0.55586 0.17178 0.70742 0.0
H1313 H 0.49722 0.17254 0.77573 0.0
H1314 H 0.45184 0.17716 0.73542 0.0
H1315 H 0.4294 0.18853 0.6802 0.0
H1316 H 0.48992 0.18877 0.61328 0.0
H1317 H 0.53376 0.17571 0.65322 0.0
C1318 C 0.53311 0.17203 0.71344 0.0
C1319 C 0.52979 0.17167 0.74437 0.0
C1320 C 0.50739 0.17522 0.69022 0.0
C1321 C 0.50028 0.17235 0.75202 0.0
C1322 C 0.47436 0.17533 0.72892 0.0
C1323 C 0.45208 0.18483 0.6744 0.0
C1324 C 0.45643 0.18974 0.6438 0.0
C1325 C 0.47762 0.17784 0.69784 0.0
C1326 C 0.48601 0.18524 0.63663 0.0
C1327 C 0.51115 0.17787 0.65949 0.0
H1328 H 0.93125 0.24998 0.41195 0.0
H1329 H 0.92077 0.33517 0.41936 0.0
H1330 H 0.93839 0.34271 0.36998 0.0
H1331 H 0.95776 0.32472 0.32465 0.0
H1332 H 0.96912 0.23919 0.31968 0.0
H1333 H 0.94998 0.23231 0.36784 0.0
C1334 C 0.93281 0.27031 0.40305 0.0
C1335 C 0.92467 0.29195 0.41988 0.0
C1336 C 0.94296 0.27444 0.37469 0.0
C1337 C 0.92695 0.31804 0.40735 0.0
C1338 C 0.93695 0.32236 0.37893 0.0
C1339 C 0.95557 0.3046 0.33385 0.0
C1340 C 0.96466 0.28249 0.31807 0.0
C1341 C 0.94502 0.30068 0.36229 0.0
C1342 C 0.96223 0.25659 0.33095 0.0
C1343 C 0.95133 0.25262 0.35867 0.0
H1344 H 0.24973 0.12496 0.38788 0.0
H1345 H 0.20806 0.05046 0.3903 0.0
H1346 H 0.15848 0.07397 0.36766 0.0
H1347 H 0.12809 0.11517 0.34249 0.0
H1348 H 0.17085 0.18912 0.3393 0.0
H1349 H 0.21868 0.16639 0.367 0.0
C1350 C 0.2297 0.11389 0.38396 0.0
C1351 C 0.23268 0.08597 0.39067 0.0
C1352 C 0.20144 0.12744 0.37045 0.0
C1353 C 0.20644 0.07199 0.38558 0.0
C1354 C 0.1781 0.08539 0.37233 0.0
C1355 C 0.14785 0.1263 0.34803 0.0
C1356 C 0.14584 0.15382 0.33869 0.0
C1357 C 0.17552 0.11301 0.36387 0.0
C1358 C 0.17158 0.16802 0.34642 0.0
C1359 C 0.19905 0.155 0.36213 0.0
H1360 H 0.3571 0.98446 0.86782 0.0
H1361 H 0.30356 0.96127 0.93653 0.0
H1362 H 0.32009 0.91405 0.93272 0.0
H1363 H 0.34769 0.87908 0.90764 0.0
H1364 H 0.39744 0.90352 0.83592 0.0
H1365 H 0.3846 0.95017 0.84345 0.0
C1366 C 0.34931 0.96919 0.8824 0.0
C1367 C 0.32918 0.9767 0.90265 0.0
C1368 C 0.35815 0.94205 0.87939 0.0
C1369 C 0.31934 0.95634 0.92106 0.0
C1370 C 0.32859 0.92923 0.91863 0.0
C1371 C 0.35574 0.89452 0.89353 0.0
C1372 C 0.37395 0.88722 0.87132 0.0
C1373 C 0.34761 0.92177 0.89747 0.0
C1374 C 0.38417 0.90796 0.8537 0.0
C1375 C 0.37656 0.93489 0.85778 0.0
H1376 H 0.67099 0.42611 0.63697 0.0
H1377 H 0.62185 0.4653 0.70047 0.0
H1378 H 0.61336 0.42178 0.72414 0.0
H1379 H 0.62284 0.37282 0.72858 0.0
H1380 H 0.67232 0.33397 0.66494 0.0
H1381 H 0.67902 0.37738 0.64031 0.0
C1382 C 0.65832 0.42507 0.65593 0.0
C1383 C 0.64715 0.4487 0.66711 0.0
C1384 C 0.65428 0.40018 0.6698 0.0
C1385 C 0.63036 0.44727 0.69132 0.0
C1386 C 0.62585 0.42245 0.70506 0.0
C1387 C 0.6349 0.37387 0.70919 0.0
C1388 C 0.64725 0.35027 0.69874 0.0
C1389 C 0.63817 0.39882 0.69479 0.0
C1390 C 0.66315 0.35189 0.67382 0.0
C1391 C 0.66667 0.37665 0.65949 0.0
H1392 H 0.85444 0.56842 0.24369 0.0
H1393 H 0.78041 0.63048 0.21684 0.0
H1394 H 0.8157 0.66473 0.22672 0.0
H1395 H 0.86702 0.67742 0.24592 0.0
H1396 H 0.94135 0.61576 0.2739 0.0
H1397 H 0.90674 0.58139 0.26118 0.0
C1398 C 0.8462 0.58944 0.23948 0.0
C1399 C 0.81476 0.59679 0.22938 0.0
C1400 C 0.86666 0.60927 0.24597 0.0
C1401 C 0.80443 0.62419 0.22462 0.0
C1402 C 0.82462 0.64386 0.23036 0.0
C1403 C 0.87582 0.65651 0.24892 0.0
C1404 C 0.90691 0.64943 0.26115 0.0
C1405 C 0.85571 0.6367 0.24152 0.0
C1406 C 0.91753 0.62202 0.26513 0.0
C1407 C 0.89773 0.60224 0.25761 0.0
H1408 H 0.38622 0.16238 0.22213 0.0
H1409 H 0.28882 0.18542 0.20491 0.0
H1410 H 0.29592 0.22071 0.16731 0.0
H1411 H 0.32965 0.24669 0.14111 0.0
H1412 H 0.42631 0.22257 0.1545 0.0
H1413 H 0.41951 0.18545 0.19111 0.0
C1414 C 0.3664 0.17471 0.20983 0.0
C1415 C 0.33704 0.1714 0.21719 0.0
C1416 C 0.3705 0.19476 0.18742 0.0
C1417 C 0.31183 0.18789 0.2008 0.0
C1418 C 0.31578 0.208 0.17895 0.0
C1419 C 0.3492 0.2331 0.15185 0.0
C1420 C 0.37848 0.23739 0.14548 0.0
C1421 C 0.34501 0.2119 0.17249 0.0
C1422 C 0.40357 0.21955 0.15909 0.0
C1423 C 0.39965 0.19848 0.18013 0.0
H1424 H 0.23314 0.92981 0.79577 0.0
H1425 H 0.30424 0.90584 0.74489 0.0
H1426 H 0.27557 0.869 0.72602 0.0
H1427 H 0.22635 0.85007 0.71626 0.0
H1428 H 0.15191 0.87942 0.76013 0.0
H1429 H 0.18586 0.90741 0.79034 0.0
C1430 C 0.24268 0.91591 0.78132 0.0
C1431 C 0.2706 0.9202 0.77164 0.0
C1432 C 0.22525 0.89603 0.76923 0.0
C1433 C 0.28275 0.90265 0.75251 0.0
C1434 C 0.26631 0.88178 0.74169 0.0
C1435 C 0.21797 0.86186 0.73333 0.0
C1436 C 0.18695 0.86272 0.73637 0.0
C1437 C 0.23696 0.87913 0.74878 0.0
C1438 C 0.17586 0.87846 0.75781 0.0
C1439 C 0.19516 0.89456 0.77476 0.0
H1440 H 0.82443 0.51549 0.75938 0.0
H1441 H 0.74434 0.4847 0.71104 0.0
H1442 H 0.75271 0.44476 0.74723 0.0
H1443 H 0.78206 0.41928 0.79402 0.0
H1444 H 0.86202 0.45108 0.84145 0.0
H1445 H 0.85455 0.48962 0.80403 0.0
C1446 C 0.80874 0.50007 0.75662 0.0
C1447 C 0.78361 0.50331 0.7326 0.0
C1448 C 0.81375 0.4772 0.7774 0.0
C1449 C 0.76385 0.48283 0.7293 0.0
C1450 C 0.7686 0.45999 0.75006 0.0
C1451 C 0.79786 0.43463 0.79612 0.0
C1452 C 0.82269 0.43207 0.82061 0.0
C1453 C 0.79334 0.45706 0.77444 0.0
C1454 C 0.84305 0.45212 0.8227 0.0
C1455 C 0.83865 0.47438 0.8014 0.0
H1456 H 0.67764 0.65236 0.40177 0.0
H1457 H 0.72746 0.69868 0.34434 0.0
H1458 H 0.72638 0.73494 0.37784 0.0
H1459 H 0.71191 0.75392 0.42333 0.0
H1460 H 0.66118 0.70914 0.48109 0.0
H1461 H 0.66166 0.67237 0.44742 0.0
C1462 C 0.68805 0.67045 0.39634 0.0
C1463 C 0.70297 0.67227 0.37034 0.0
C1464 C 0.68717 0.69171 0.41584 0.0
C1465 C 0.71643 0.69606 0.36425 0.0
C1466 C 0.71563 0.71706 0.38339 0.0
C1467 C 0.7009 0.73617 0.42881 0.0
C1468 C 0.68662 0.73454 0.45513 0.0
C1469 C 0.70125 0.7151 0.40931 0.0
C1470 C 0.67236 0.71122 0.4612 0.0
C1471 C 0.67268 0.69008 0.44188 0.0
H1472 H 0.18089 0.35162 0.17679 0.0
H1473 H 0.20453 0.26838 0.16544 0.0
H1474 H 0.1573 0.25675 0.18259 0.0
H1475 H 0.1087 0.27023 0.20095 0.0
H1476 H 0.0856 0.35389 0.21101 0.0
H1477 H 0.13252 0.36511 0.19365 0.0
C1478 C 0.17568 0.33092 0.17761 0.0
C1479 C 0.19661 0.31101 0.16964 0.0
C1480 C 0.14823 0.32435 0.18721 0.0
C1481 C 0.18935 0.28424 0.17172 0.0
C1482 C 0.16209 0.27755 0.18135 0.0
C1483 C 0.11379 0.29094 0.19913 0.0
C1484 C 0.09328 0.31111 0.20737 0.0
C1485 C 0.14126 0.29743 0.18916 0.0
C1486 C 0.10067 0.33781 0.20498 0.0
C1487 C 0.12767 0.34433 0.19504 0.0
H1488 H 0.75979 0.23472 0.94816 0.0
H1489 H 0.78374 0.28217 0.87235 0.0
H1490 H 0.74103 0.26674 0.83808 0.0
H1491 H 0.69698 0.23948 0.82947 0.0
H1492 H 0.67291 0.1927 0.90577 0.0
H1493 H 0.71555 0.20816 0.9398 0.0
C1494 C 0.75579 0.24181 0.92414 0.0
C1495 C 0.77529 0.25969 0.91301 0.0
C1496 C 0.73109 0.23287 0.90454 0.0
C1497 C 0.76932 0.26852 0.88174 0.0
C1498 C 0.74485 0.25963 0.86207 0.0
C1499 C 0.70101 0.23254 0.85353 0.0
C1500 C 0.68152 0.2147 0.86483 0.0
C1501 C 0.72561 0.24172 0.87317 0.0
C1502 C 0.68729 0.20629 0.89622 0.0
C1503 C 0.71176 0.21517 0.91578 0.0
H1504 H 0.8706 0.8522 0.40264 0.0
H1505 H 0.86852 0.76663 0.41696 0.0
H1506 H 0.91233 0.75952 0.39073 0.0
H1507 H 0.95089 0.77721 0.36384 0.0
H1508 H 0.95393 0.86264 0.34889 0.0
H1509 H 0.91038 0.87013 0.37591 0.0
C1510 C 0.8799 0.83199 0.40025 0.0
C1511 C 0.86611 0.80996 0.41172 0.0
C1512 C 0.90532 0.828 0.3852 0.0
C1513 C 0.87827 0.78394 0.408 0.0
C1514 C 0.9035 0.77984 0.39318 0.0
C1515 C 0.94223 0.79757 0.36644 0.0
C1516 C 0.95583 0.81935 0.35422 0.0
C1517 C 0.91713 0.8017 0.38167 0.0
C1518 C 0.94407 0.84548 0.35805 0.0
C1519 C 0.91908 0.84977 0.37344 0.0
H1520 H 0.33615 0.75969 0.74138 0.0
H1521 H 0.36408 0.68569 0.70516 0.0
H1522 H 0.31727 0.69093 0.66722 0.0
H1523 H 0.26939 0.71701 0.64345 0.0
H1524 H 0.24091 0.79072 0.67977 0.0
H1525 H 0.2872 0.78505 0.71864 0.0
C1526 C 0.3321 0.74457 0.7253 0.0
C1527 C 0.35397 0.7223 0.72617 0.0
C1528 C 0.30512 0.74775 0.70347 0.0
C1529 C 0.34793 0.70302 0.70509 0.0
C1530 C 0.32113 0.70605 0.68333 0.0
C1531 C 0.27321 0.73195 0.65979 0.0
C1532 C 0.25168 0.75448 0.6584 0.0
C1533 C 0.29974 0.72844 0.68213 0.0
C1534 C 0.25699 0.77328 0.68018 0.0
C1535 C 0.28351 0.77002 0.7024 0.0
H1536 H 0.85967 0.97495 0.70362 0.0
H1537 H 0.8105 0.90494 0.69157 0.0
H1538 H 0.85677 0.87615 0.71336 0.0
H1539 H 0.90911 0.87124 0.74158 0.0
H1540 H 0.9582 0.94115 0.7555 0.0
H1541 H 0.91403 0.96958 0.72761 0.0
C1542 C 0.85938 0.95336 0.70492 0.0
C1543 C 0.83177 0.94206 0.69586 0.0
C1544 C 0.88587 0.93693 0.71849 0.0
C1545 C 0.83152 0.91408 0.69832 0.0
C1546 C 0.85792 0.89762 0.71097 0.0
C1547 C 0.9105 0.89261 0.73792 0.0
C1548 C 0.93696 0.90398 0.7509 0.0
C1549 C 0.88495 0.90886 0.72203 0.0
C1550 C 0.93799 0.93184 0.74626 0.0
C1551 C 0.91277 0.94813 0.73015 0.0
H1552 H 0.76006 0.05336 0.24398 0.0
H1553 H 0.74652 0.06793 0.14573 0.0
H1554 H 0.72875 0.11486 0.15012 0.0
H1555 H 0.71614 0.15163 0.18221 0.0
H1556 H 0.73283 0.13627 0.28057 0.0
H1557 H 0.75016 0.08985 0.27563 0.0
C1558 C 0.75291 0.06659 0.22334 0.0
C1559 C 0.75403 0.05675 0.19442 0.0
C1560 C 0.74327 0.09356 0.2261 0.0
C1561 C 0.7455 0.07469 0.16821 0.0
C1562 C 0.73542 0.1016 0.17077 0.0
C1563 C 0.7238 0.13824 0.20261 0.0
C1564 C 0.72259 0.14769 0.2318 0.0
C1565 C 0.73412 0.11128 0.19964 0.0
C1566 C 0.73262 0.12971 0.25782 0.0
C1567 C 0.74275 0.10307 0.25502 0.0
H1568 H 0.42525 0.68504 0.41142 0.0
H1569 H 0.39117 0.67399 0.31698 0.0
H1570 H 0.38894 0.62626 0.33028 0.0
H1571 H 0.39961 0.58755 0.36832 0.0
H1572 H 0.43271 0.59886 0.46273 0.0
H1573 H 0.43213 0.64712 0.44995 0.0
C1574 C 0.4166 0.67236 0.39384 0.0
C1575 C 0.40839 0.68294 0.36326 0.0
C1576 C 0.41565 0.6451 0.40159 0.0
C1577 C 0.39785 0.66616 0.34063 0.0
C1578 C 0.39662 0.63895 0.3482 0.0
C1579 C 0.40684 0.60068 0.38597 0.0
C1580 C 0.41681 0.58998 0.41622 0.0
C1581 C 0.40612 0.62817 0.37848 0.0
C1582 C 0.42532 0.60693 0.43925 0.0
C1583 C 0.42492 0.63437 0.43195 0.0
H1584 H 0.16241 0.3897 0.861 0.0
H1585 H 0.20265 0.35362 0.78939 0.0
H1586 H 0.24418 0.38245 0.79682 0.0
H1587 H 0.26827 0.41896 0.82194 0.0
H1588 H 0.22763 0.45667 0.89231 0.0
H1589 H 0.18708 0.42639 0.8867 0.0
C1590 C 0.18014 0.38818 0.84686 0.0
C1591 C 0.17914 0.36921 0.82466 0.0
C1592 C 0.20395 0.40526 0.85091 0.0
C1593 C 0.20281 0.36749 0.80702 0.0
C1594 C 0.22655 0.38421 0.81106 0.0
C1595 C 0.25072 0.42062 0.83628 0.0
C1596 C 0.25128 0.4403 0.85759 0.0
C1597 C 0.22727 0.40328 0.83277 0.0
C1598 C 0.22802 0.44187 0.87572 0.0
C1599 C 0.20472 0.42452 0.8725 0.0
H1600 H 0.69996 0.77073 0.89445 0.0
H1601 H 0.66983 0.8239 0.95833 0.0
H1602 H 0.67646 0.86258 0.92412 0.0
H1603 H 0.69357 0.88118 0.87714 0.0
H1604 H 0.72371 0.82707 0.81413 0.0
H1605 H 0.71475 0.78892 0.84729 0.0
C1606 C 0.69463 0.79074 0.90101 0.0
C1607 C 0.68445 0.79426 0.92915 0.0
C1608 C 0.69885 0.81279 0.88147 0.0
C1609 C 0.67756 0.82047 0.93686 0.0
C1610 C 0.68151 0.84263 0.91734 0.0
C1611 C 0.69782 0.86106 0.87045 0.0
C1612 C 0.7096 0.85714 0.84313 0.0
C1613 C 0.69251 0.83902 0.88971 0.0
C1614 C 0.71523 0.83081 0.83516 0.0
C1615 C 0.70991 0.80893 0.85405 0.0
H1616 H 0.81044 0.11521 0.30718 0.0
H1617 H 0.90407 0.08982 0.30009 0.0
H1618 H 0.92092 0.12963 0.32273 0.0
H1619 H 0.91153 0.161 0.36005 0.0
H1620 H 0.81948 0.18184 0.37534 0.0
H1621 H 0.79952 0.15487 0.33424 0.0
C1622 C 0.83445 0.11871 0.31011 0.0
C1623 C 0.85611 0.09895 0.30349 0.0
C1624 C 0.84438 0.14058 0.32543 0.0
C1625 C 0.88688 0.10437 0.30561 0.0
C1626 C 0.89667 0.12707 0.3189 0.0
C1627 C 0.88701 0.16066 0.35344 0.0
C1628 C 0.86702 0.17228 0.3713 0.0
C1629 C 0.87603 0.14383 0.33135 0.0
C1630 C 0.83528 0.17214 0.36235 0.0
C1631 C 0.82392 0.15666 0.339 0.0
H1632 H 0.23716 0.57786 0.24895 0.0
H1633 H 0.3144 0.62077 0.28162 0.0
H1634 H 0.3299 0.58693 0.32478 0.0
H1635 H 0.32191 0.54435 0.353 0.0
H1636 H 0.24447 0.50196 0.31894 0.0
H1637 H 0.22911 0.5361 0.27674 0.0
C1638 C 0.25763 0.57974 0.26525 0.0
C1639 C 0.27463 0.60189 0.26169 0.0
C1640 C 0.26647 0.56016 0.28997 0.0
C1641 C 0.30066 0.60412 0.2837 0.0
C1642 C 0.30964 0.58466 0.30839 0.0
C1643 C 0.30163 0.54261 0.33641 0.0
C1644 C 0.28451 0.52036 0.33938 0.0
C1645 C 0.29275 0.5625 0.31178 0.0
C1646 C 0.25828 0.51863 0.31747 0.0
C1647 C 0.24938 0.53823 0.29317 0.0
H1648 H 0.41519 0.37839 0.68501 0.0
H1649 H 0.34997 0.34234 0.73328 0.0
H1650 H 0.35146 0.30387 0.70277 0.0
H1651 H 0.36917 0.28118 0.66132 0.0
H1652 H 0.43316 0.31649 0.61063 0.0
H1653 H 0.4343 0.35427 0.64296 0.0
C1654 C 0.40166 0.36192 0.689 0.0
C1655 C 0.38251 0.36324 0.71155 0.0
C1656 C 0.40219 0.33977 0.67075 0.0
C1657 C 0.36484 0.34185 0.71617 0.0
C1658 C 0.36564 0.31984 0.69865 0.0
C1659 C 0.38357 0.29699 0.65718 0.0
C1660 C 0.40104 0.29573 0.63326 0.0
C1661 C 0.38389 0.3187 0.67565 0.0
C1662 C 0.41942 0.3167 0.62871 0.0
C1663 C 0.42006 0.3384 0.64726 0.0
H1664 H 0.95559 0.77624 0.8788 0.0
H1665 H 0.9936 0.69373 0.89255 0.0
H1666 H 0.94781 0.68072 0.9109 0.0
H1667 H 0.89605 0.69188 0.92103 0.0
H1668 H 0.85703 0.77402 0.90818 0.0
H1669 H 0.90356 0.78775 0.89112 0.0
C1670 C 0.954 0.75548 0.88619 0.0
C1671 C 0.97825 0.73606 0.88418 0.0
C1672 C 0.9271 0.74789 0.89654 0.0
C1673 C 0.97544 0.7092 0.8936 0.0
C1674 C 0.94914 0.70165 0.90413 0.0
C1675 C 0.89773 0.71288 0.91499 0.0
C1676 C 0.87273 0.73178 0.91604 0.0
C1677 C 0.92468 0.72072 0.90539 0.0
C1678 C 0.8755 0.75883 0.90731 0.0
C1679 C 0.90231 0.76678 0.89772 0.0
H1680 H 0.31337 0.80413 0.14035 0.0
H1681 H 0.29632 0.74892 0.21316 0.0
H1682 H 0.33809 0.76519 0.24793 0.0
H1683 H 0.37907 0.79531 0.25774 0.0
H1684 H 0.3961 0.85023 0.18462 0.0
H1685 H 0.35443 0.83386 0.14998 0.0
C1686 C 0.31869 0.79546 0.1638 0.0
C1687 C 0.30142 0.77514 0.17396 0.0
C1688 C 0.34266 0.80503 0.1837 0.0
C1689 C 0.30903 0.76441 0.20452 0.0
C1690 C 0.33292 0.77382 0.22447 0.0
C1691 C 0.37369 0.80393 0.23427 0.0
C1692 C 0.39087 0.82429 0.22402 0.0
C1693 C 0.34979 0.79421 0.21435 0.0
C1694 C 0.38342 0.83476 0.19335 0.0
C1695 C 0.35957 0.82532 0.17347 0.0
H1696 H 0.18908 0.19079 0.6581 0.0
H1697 H 0.22975 0.2574 0.69969 0.0
H1698 H 0.1875 0.26375 0.72804 0.0
H1699 H 0.14004 0.25029 0.74195 0.0
H1700 H 0.09852 0.18337 0.7021 0.0
H1701 H 0.14038 0.17709 0.67244 0.0
C1702 C 0.18879 0.20663 0.67347 0.0
C1703 C 0.21272 0.22369 0.67649 0.0
C1704 C 0.16437 0.21006 0.69013 0.0
C1705 C 0.21158 0.24427 0.69632 0.0
C1706 C 0.18749 0.24779 0.7128 0.0
C1707 C 0.13987 0.23424 0.72681 0.0
C1708 C 0.11591 0.2173 0.7244 0.0
C1709 C 0.16387 0.2308 0.70996 0.0
C1710 C 0.1165 0.19673 0.70451 0.0
C1711 C 0.14049 0.19315 0.68754 0.0
H1712 H 0.72672 0.26311 0.34927 0.0
H1713 H 0.69428 0.3359 0.38489 0.0
H1714 H 0.73978 0.33194 0.42427 0.0
H1715 H 0.78982 0.30915 0.44731 0.0
H1716 H 0.82172 0.23488 0.41476 0.0
H1717 H 0.77541 0.23787 0.37569 0.0
C1718 C 0.72955 0.27804 0.36575 0.0
C1719 C 0.70705 0.29997 0.36384 0.0
C1720 C 0.75572 0.27536 0.38887 0.0
C1721 C 0.71101 0.31886 0.38572 0.0
C1722 C 0.73715 0.31665 0.40823 0.0
C1723 C 0.78659 0.29351 0.43174 0.0
C1724 C 0.8094 0.27196 0.43371 0.0
C1725 C 0.75978 0.2952 0.40981 0.0
C1726 C 0.80458 0.25165 0.41375 0.0
C1727 C 0.77814 0.25346 0.39133 0.0
H1728 H 0.9589 0.32884 0.14566 0.0
H1729 H 0.9706 0.243 0.16541 0.0
H1730 H 0.94671 0.2371 0.1134 0.0
H1731 H 0.92228 0.25565 0.06261 0.0
H1732 H 0.90717 0.34123 1.042 0.0
H1733 H 0.93283 0.34777 0.0938 0.0
C1734 C 0.95621 0.30883 0.13861 0.0
C1735 C 0.96672 0.28639 0.15978 0.0
C1736 C 0.94204 0.30548 0.10835 0.0
C1737 C 0.96277 0.26068 0.15 0.0
C1738 C 0.94917 0.25725 0.12008 0.0
C1739 C 0.92482 0.27586 0.06906 0.0
C1740 C 0.91306 0.29793 0.04788 0.0
C1741 C 0.93881 0.27943 0.09906 0.0
C1742 C 0.91629 0.32383 0.0574 0.0
C1743 C 0.93082 0.32756 0.08718 0.0
H1744 H 0.57 0.78567 0.69275 0.0
H1745 H 0.50953 0.76346 0.61457 0.0
H1746 H 0.46878 0.75988 0.64504 0.0
H1747 H 0.45137 0.75936 0.69418 0.0
H1748 H 0.51116 0.77824 0.77447 0.0
H1749 H 0.55069 0.78749 0.74306 0.0
C1750 C 0.54776 0.78036 0.68246 0.0
C1751 C 0.54282 0.77471 0.65136 0.0
C1752 C 0.52428 0.7778 0.70051 0.0
C1753 C 0.51395 0.76773 0.63838 0.0
C1754 C 0.49061 0.76571 0.6558 0.0
C1755 C 0.47287 0.76593 0.70488 0.0
C1756 C 0.47816 0.76812 0.73673 0.0
C1757 C 0.49566 0.77021 0.68693 0.0
C1758 C 0.5062 0.7767 0.75002 0.0
C1759 C 0.52897 0.78166 0.73204 0.0
H1760 H 0.52933 0.28572 0.93523 0.0
H1761 H 0.45256 0.23915 0.91317 0.0
H1762 H 0.4721 0.22536 0.86788 0.0
H1763 H 0.51338 0.22247 0.83774 0.0
H1764 H 0.59153 0.26723 0.85975 0.0
H1765 H 0.56881 0.28623 0.90142 0.0
C1766 C 0.51676 0.27276 0.92033 0.0
C1767 C 0.48951 0.26343 0.92778 0.0
C1768 C 0.52836 0.2646 0.89429 0.0
C1769 C 0.47333 0.24691 0.90796 0.0
C1770 C 0.48461 0.23884 0.88209 0.0
C1771 C 0.52523 0.23681 0.85127 0.0
C1772 C 0.5542 0.24332 0.84578 0.0
C1773 C 0.5124 0.24706 0.87546 0.0
C1774 C 0.56913 0.26203 0.86336 0.0
C1775 C 0.55627 0.27265 0.8874 0.0
H1776 H 0.12673 0.73555 0.48844 0.0
H1777 H 0.10697 0.81739 0.5086 0.0
H1778 H 0.08361 0.82915 0.45569 0.0
H1779 H 0.0693 0.81713 0.40352 0.0
H1780 H 0.08706 0.73569 0.38157 0.0
H1781 H 0.11064 0.72306 0.43505 0.0
C1782 C 0.11705 0.7559 0.48137 0.0
C1783 C 0.11874 0.77547 0.503 0.0
C1784 C 0.10346 0.76276 0.45036 0.0
C1785 C 0.10613 0.80176 0.49295 0.0
C1786 C 0.09277 0.80861 0.46247 0.0
C1787 C 0.07845 0.79656 0.41013 0.0
C1788 C 0.07657 0.7775 0.38806 0.0
C1789 C 0.09152 0.7894 0.44094 0.0
C1790 C 0.08826 0.75091 0.39773 0.0
C1791 C 0.1017 0.74367 0.42844 0.0
H1792 H 0.26634 0.96134 0.36545 0.0
H1793 H 0.22243 0.03405 0.31459 0.0
H1794 H 0.17717 1.01081 0.29742 0.0
H1795 H 0.14871 0.97051 0.3 0.0
H1796 H 0.19272 0.89898 0.35348 0.0
H1797 H 0.23918 0.92116 0.36642 0.0
C1798 C 0.24702 0.97218 0.35037 0.0
C1799 C 0.24787 0.99954 0.34146 0.0
C1800 C 0.2209 0.9589 0.34124 0.0
C1801 C 0.22261 1.01299 0.32167 0.0
C1802 C 0.19659 0.99974 0.31207 0.0
C1803 C 0.16845 0.95976 0.3145 0.0
C1804 C 0.167 0.93298 0.32569 0.0
C1805 C 0.19521 0.97282 0.32226 0.0
C1806 C 0.1931 0.91937 0.3441 0.0
C1807 C 0.21971 0.93212 0.35171 0.0
H1808 H 0.44651 0.13044 0.90795 0.0
H1809 H 0.4565 0.09841 0.82205 0.0
H1810 H 0.40359 0.08697 0.81538 0.0
H1811 H 0.35587 0.08293 0.83588 0.0
H1812 H 0.34708 0.11195 0.92353 0.0
H1813 H 0.39779 0.12832 0.92734 0.0
C1814 C 0.43692 0.12125 0.88763 0.0
C1815 C 0.45537 0.11507 0.86565 0.0
C1816 C 0.40666 0.11431 0.88422 0.0
C1817 C 0.44282 0.10297 0.8395 0.0
C1818 C 0.41255 0.09657 0.8356 0.0
C1819 C 0.3648 0.09341 0.85544 0.0
C1820 C 0.3478 0.09643 0.8793 0.0
C1821 C 0.39442 0.10174 0.85804 0.0
C1822 C 0.35983 0.1095 0.90487 0.0
C1823 C 0.38884 0.11871 0.90712 0.0
H1824 H 0.70241 0.57029 0.75133 0.0
H1825 H 0.72533 0.64793 0.72007 0.0
H1826 H 0.67765 0.6687 0.73288 0.0
H1827 H 0.62565 0.6633 0.74413 0.0
H1828 H 0.60224 0.58483 0.77216 0.0
H1829 H 0.65384 0.56575 0.76923 0.0
C1830 C 0.69734 0.59187 0.74813 0.0
C1831 C 0.71711 0.60757 0.73457 0.0
C1832 C 0.66945 0.60337 0.75427 0.0
C1833 C 0.71053 0.63548 0.7307 0.0
C1834 C 0.68305 0.64727 0.7376 0.0
C1835 C 0.63212 0.64215 0.75032 0.0
C1836 C 0.61006 0.62538 0.75787 0.0
C1837 C 0.66173 0.63123 0.74805 0.0
C1838 C 0.61867 0.598 0.76569 0.0
C1839 C 0.64817 0.58711 0.76414 0.0
H1840 H 0.88708 0.42056 0.30472 0.0
H1841 H 0.94168 0.48651 0.29343 0.0
H1842 H 0.89753 0.51826 0.29524 0.0
H1843 H 0.84131 0.52657 0.28761 0.0
H1844 H 0.78694 0.46005 0.29486 0.0
H1845 H 0.83318 0.42926 0.30853 0.0
C1846 C 0.88978 0.44182 0.30396 0.0
C1847 C 0.91744 0.45114 0.29814 0.0
C1848 C 0.86412 0.45991 0.30415 0.0
C1849 C 0.92037 0.47883 0.2971 0.0
C1850 C 0.89513 0.49701 0.29813 0.0
C1851 C 0.83976 0.50552 0.29374 0.0
C1852 C 0.81101 0.49542 0.2903 0.0
C1853 C 0.86647 0.48776 0.29982 0.0
C1854 C 0.80901 0.46811 0.29758 0.0
C1855 C 0.83542 0.4505 0.30499 0.0
H1856 H 0.30975 0.24625 0.07912 0.0
H1857 H 0.34084 0.27064 0.99507 0.0
H1858 H 0.32407 0.23016 0.97286 0.0
H1859 H 0.30494 0.18614 0.97889 0.0
H1860 H 0.2746 0.16115 0.06313 0.0
H1861 H 0.2873 0.20339 0.08387 0.0
C1862 C 0.31228 0.24302 0.05571 0.0
C1863 C 0.3265 0.26151 1.03876 0.0
C1864 C 0.30329 0.21933 0.04333 0.0
C1865 C 0.32995 0.25677 1.00861 0.0
C1866 C 0.32052 0.23354 0.99594 0.0
C1867 C 0.3005 0.19008 1.00157 0.0
C1868 C 0.2889 0.17037 1.01942 0.0
C1869 C 0.30781 0.21441 1.01333 0.0
C1870 C 0.28393 0.17574 0.04902 0.0
C1871 C 0.29099 0.19999 0.06083 0.0
H1872 H 0.85152 0.31157 0.07089 0.0
H1873 H 0.7661 0.33241 1.00998 0.0
H1874 H 0.75338 0.3688 1.04087 0.0
H1875 H 0.76868 0.39776 0.08198 0.0
H1876 H 0.85495 0.37828 0.14216 0.0
H1877 H 0.86528 0.33896 0.11465 0.0
C1878 C 0.82977 0.32362 0.0649 0.0
C1879 C 0.80963 0.31898 1.03825 0.0
C1880 C 0.82303 0.34532 0.08228 0.0
C1881 C 0.78188 0.33531 1.03046 0.0
C1882 C 0.77469 0.35632 0.04802 0.0
C1883 C 0.78949 0.3847 0.08958 0.0
C1884 C 0.81102 0.39141 0.11418 0.0
C1885 C 0.79541 0.362 0.07352 0.0
C1886 C 0.83807 0.37415 0.12308 0.0
C1887 C 0.84396 0.35144 0.10743 0.0
H1888 H 0.70173 0.73996 0.59422 0.0
H1889 H 0.77939 0.73494 0.54697 0.0
H1890 H 0.79668 0.69062 0.57346 0.0
H1891 H 0.78773 0.65205 0.60806 0.0
H1892 H 0.70703 0.6569 0.6509 0.0
H1893 H 0.69291 0.70247 0.62806 0.0
C1894 C 0.7227 0.72942 0.58991 0.0
C1895 C 0.73935 0.74089 0.56876 0.0
C1896 C 0.73176 0.7037 0.60424 0.0
C1897 C 0.7662 0.72663 0.56324 0.0
C1898 C 0.77601 0.70124 0.57829 0.0
C1899 C 0.76718 0.66321 0.61244 0.0
C1900 C 0.74835 0.65106 0.63098 0.0
C1901 C 0.75868 0.68936 0.59851 0.0
C1902 C 0.72169 0.66566 0.63639 0.0
C1903 C 0.71366 0.69178 0.62346 0.0
H1904 H 0.18238 0.82527 0.51007 0.0
H1905 H 0.26776 0.7802 0.5487 0.0
H1906 H 0.29592 0.81457 0.52642 0.0
H1907 H 0.29586 0.86049 0.50167 0.0
H1908 H 0.2095 0.9052 0.46429 0.0
H1909 H 0.18222 0.86796 0.47994 0.0
C1910 C 0.20715 0.82257 0.51269 0.0
C1911 C 0.22302 0.80016 0.53069 0.0
C1912 C 0.22302 0.84267 0.50047 0.0
C1913 C 0.25507 0.79701 0.53439 0.0
C1914 C 0.27113 0.8169 0.52205 0.0
C1915 C 0.27109 0.86196 0.4967 0.0
C1916 C 0.25485 0.88586 0.48194 0.0
C1917 C 0.25534 0.84032 0.50599 0.0
C1918 C 0.22273 0.88715 0.47533 0.0
C1919 C 0.20702 0.86586 0.48446 0.0
H1920 H 0.10953 0.71506 0.9407 0.0
H1921 H 0.10304 0.80102 0.92307 0.0
H1922 H 0.12849 0.80506 0.97508 0.0
H1923 H 0.15279 0.78482 1.02512 0.0
H1924 H 0.16292 0.69892 0.04358 0.0
H1925 H 0.13554 0.69433 0.99185 0.0
C1926 C 0.11369 0.73469 0.94821 0.0
C1927 C 0.10419 0.75775 0.92767 0.0
C1928 C 0.12878 0.73692 0.97842 0.0
C1929 C 0.11005 0.78293 0.93801 0.0
C1930 C 0.12455 0.78528 0.96791 0.0
C1931 C 0.14887 0.76495 1.01824 0.0
C1932 C 0.15973 0.74221 1.03879 0.0
C1933 C 0.13395 0.76248 0.98829 0.0
C1934 C 0.15458 0.7168 1.02869 0.0
C1935 C 0.13906 0.71419 0.99895 0.0
H1936 H 0.54351 0.27765 0.31985 0.0
H1937 H 0.63226 0.24554 0.36781 0.0
H1938 H 0.60937 0.23281 0.41297 0.0
H1939 H 0.56469 0.23529 0.44047 0.0
H1940 H 0.47706 0.27059 0.39214 0.0
H1941 H 0.49898 0.27764 0.34574 0.0
C1942 C 0.55785 0.26744 0.34002 0.0
C1943 C 0.58962 0.26264 0.34042 0.0
C1944 C 0.54471 0.26112 0.36609 0.0
C1945 C 0.60775 0.24924 0.36668 0.0
C1946 C 0.59467 0.2423 0.39267 0.0
C1947 C 0.55033 0.24445 0.41978 0.0
C1948 C 0.51906 0.25235 0.42012 0.0
C1949 C 0.56329 0.2489 0.39295 0.0
C1950 C 0.50092 0.26386 0.39277 0.0
C1951 C 0.51352 0.26809 0.36613 0.0
H1952 H 0.53795 0.75232 0.144 0.0
H1953 H 0.61499 0.79886 0.16463 0.0
H1954 H 0.59588 0.81329 0.20988 0.0
H1955 H 0.55529 0.81621 0.24088 0.0
H1956 H 0.47721 0.771 0.22077 0.0
H1957 H 0.49889 0.75227 0.17834 0.0
C1958 C 0.55064 0.76548 0.15853 0.0
C1959 C 0.5779 0.77452 0.15074 0.0
C1960 C 0.53932 0.77398 0.1846 0.0
C1961 C 0.59421 0.79129 0.17011 0.0
C1962 C 0.58317 0.79974 0.19595 0.0
C1963 C 0.54315 0.80194 0.22752 0.0
C1964 C 0.51455 0.79515 0.23386 0.0
C1965 C 0.5555 0.79166 0.20304 0.0
C1966 C 0.49932 0.77645 0.21649 0.0
C1967 C 0.5116 0.76595 0.19205 0.0
H1968 H 0.93936 0.23696 0.59367 0.0
H1969 H 0.96345 0.31713 0.57694 0.0
H1970 H 0.99104 0.3157 0.6297 0.0
H1971 H 1.00719 0.2916 0.6818 0.0
H1972 H 0.97683 0.2133 0.69825 0.0
H1973 H 0.95299 0.21416 0.64519 0.0
C1974 C 0.95112 0.25394 0.60145 0.0
C1975 C 0.95009 0.27683 0.58115 0.0
C1976 C 0.96559 0.25344 0.6322 0.0
C1977 C 0.96442 0.29907 0.59194 0.0
C1978 C 0.98003 0.2983 0.62221 0.0
C1979 C 0.99528 0.27481 0.67376 0.0
C1980 C 0.99401 0.25242 0.69444 0.0
C1981 C 0.98059 0.27563 0.64278 0.0
C1982 C 0.97823 0.23093 0.68333 0.0
C1983 C 0.96459 0.23128 0.65273 0.0
H1984 H 0.79723 0.07524 0.72138 0.0
H1985 H 0.84826 1.00146 0.76188 0.0
H1986 H 0.89349 0.02557 0.77632 0.0
H1987 H 0.91976 0.06695 0.77247 0.0
H1988 H 0.86788 0.14024 0.73107 0.0
H1989 H 0.82195 0.11679 0.72132 0.0
C1990 C 0.81813 0.06443 0.73373 0.0
C1991 C 0.81941 0.03656 0.74042 0.0
C1992 C 0.84407 0.07827 0.74126 0.0
C1993 C 0.84657 0.02294 0.7567 0.0
C1994 C 0.87252 0.0367 0.76465 0.0
C1995 C 0.8983 0.07793 0.76184 0.0
C1996 C 0.89752 0.10535 0.75216 0.0
C1997 C 0.87175 0.06428 0.75635 0.0
C1998 C 0.86945 0.11908 0.73815 0.0
C1999 C 0.84305 0.10572 0.73276 0.0
H2000 H 0.70504 0.94694 0.1659 0.0
H2001 H 0.73977 0.93253 0.26253 0.0
H2002 H 0.68985 0.91966 0.27163 0.0
H2003 H 0.63521 0.91583 0.25251 0.0
H2004 H 0.60118 0.93058 0.15575 0.0
H2005 H 0.65187 0.94043 0.14653 0.0
C2006 C 0.70189 0.94076 0.18898 0.0
C2007 C 0.72618 0.9409 0.21351 0.0
C2008 C 0.67305 0.93384 0.19411 0.0
C2009 C 0.72157 0.9326 0.24318 0.0
C2010 C 0.69293 0.92539 0.24843 0.0
C2011 C 0.63895 0.92086 0.22935 0.0
C2012 C 0.61418 0.92277 0.20491 0.0
C2013 C 0.66833 0.92644 0.22413 0.0
C2014 C 0.61954 0.92953 0.1751 0.0
C2015 C 0.64861 0.93498 0.16974 0.0
H2016 H 0.44219 0.35267 0.36139 0.0
H2017 H 0.44994 0.41572 0.293 0.0
H2018 H 0.39667 0.43231 0.29183 0.0
H2019 H 0.35213 0.43427 0.31766 0.0
H2020 H 0.34479 0.37336 0.38835 0.0
H2021 H 0.39294 0.34978 0.38036 0.0
C2022 C 0.4319 0.36957 0.34566 0.0
C2023 C 0.4501 0.38341 0.32788 0.0
C2024 C 0.40131 0.37935 0.34556 0.0
C2025 C 0.43654 0.40521 0.30748 0.0
C2026 C 0.40607 0.41462 0.3067 0.0
C2027 C 0.36048 0.4152 0.33036 0.0
C2028 C 0.34533 0.40569 0.35377 0.0
C2029 C 0.38877 0.40263 0.32668 0.0
C2030 C 0.35609 0.38099 0.37012 0.0
C2031 C 0.38391 0.36778 0.36591 0.0
H2032 H 0.23881 0.51553 0.84207 0.0
H2033 H 0.27462 0.55659 0.76927 0.0
H2034 H 0.22906 0.58912 0.75978 0.0
H2035 H 0.18104 0.60751 0.77554 0.0
H2036 H 0.14709 0.56563 0.84956 0.0
H2037 H 0.18971 0.53138 0.85489 0.0
C2038 C 0.23662 0.53164 0.82419 0.0
C2039 C 0.26005 0.53433 0.80692 0.0
C2040 C 0.21065 0.54991 0.819 0.0
C2041 C 0.25674 0.55457 0.78303 0.0
C2042 C 0.23083 0.57308 0.77769 0.0
C2043 C 0.18287 0.59072 0.79258 0.0
C2044 C 0.16088 0.58916 0.81207 0.0
C2045 C 0.2079 0.57123 0.79601 0.0
C2046 C 0.16334 0.56714 0.83387 0.0
C2047 C 0.18792 0.54766 0.83724 0.0
H2048 H 0.75692 0.7887 1.00154 0.0
H2049 H 0.72366 0.76469 0.08455 0.0
H2050 H 0.73682 0.80659 0.10564 0.0
H2051 H 0.75355 0.85149 0.09875 0.0
H2052 H 0.7842 0.87655 1.01473 0.0
H2053 H 0.7767 0.8326 0.99599 0.0
C2054 C 0.75314 0.79236 1.0245 0.0
C2055 C 0.73922 0.77362 1.04139 0.0
C2056 C 0.75998 0.81681 1.03618 0.0
C2057 C 0.7343 0.77879 0.07104 0.0
C2058 C 0.74165 0.80281 0.08306 0.0
C2059 C 0.75848 0.84738 0.07628 0.0
C2060 C 0.76902 0.8674 0.05801 0.0
C2061 C 0.75368 0.82225 0.06548 0.0
C2062 C 0.77611 0.86149 1.02929 0.0
C2063 C 0.77171 0.8364 1.0185 0.0
H2064 H 0.30596 0.63477 1.01012 0.0
H2065 H 0.22381 0.66005 0.94557 0.0
H2066 H 0.21464 0.69918 0.97368 0.0
H2067 H 0.22764 0.72463 1.01911 0.0
H2068 H 0.30799 0.69751 0.08514 0.0
H2069 H 0.32007 0.66104 0.05407 0.0
C2070 C 0.286 0.64877 1.00212 0.0
C2071 C 0.26564 0.64413 0.9756 0.0
C2072 C 0.28051 0.67113 1.01876 0.0
C2073 C 0.24021 0.66301 0.96555 0.0
C2074 C 0.23478 0.68542 0.98179 0.0
C2075 C 0.2482 0.71113 1.02629 0.0
C2076 C 0.26708 0.71404 0.05435 0.0
C2077 C 0.25455 0.68956 1.00868 0.0
C2078 C 0.29319 0.69589 0.06362 0.0
C2079 C 0.30002 0.6749 0.04592 0.0
H2080 H 0.38392 0.29689 0.49968 0.0
H2081 H 0.30394 0.29983 0.54349 0.0
H2082 H 0.28734 0.34482 0.51839 0.0
H2083 H 0.29635 0.38385 0.48437 0.0
H2084 H 0.37895 0.38066 0.44439 0.0
H2085 H 0.39367 0.33549 0.46777 0.0
C2086 C 0.36265 0.30716 0.50358 0.0
C2087 C 0.345 0.29475 0.52317 0.0
C2088 C 0.35386 0.33324 0.48995 0.0
C2089 C 0.31786 0.30877 0.52835 0.0
C2090 C 0.30844 0.33456 0.51407 0.0
C2091 C 0.31763 0.37331 0.48092 0.0
C2092 C 0.33647 0.38589 0.46259 0.0
C2093 C 0.32639 0.34713 0.49495 0.0
C2094 C 0.36401 0.37179 0.45847 0.0
C2095 C 0.37245 0.34578 0.47174 0.0
H2096 H 0.86708 0.22565 0.59318 0.0
H2097 H 0.79443 0.25028 0.51783 0.0
H2098 H 0.767 0.21201 0.53173 0.0
H2099 H 0.76713 0.1682 0.56165 0.0
H2100 H 0.84135 0.14396 0.636 0.0
H2101 H 0.86445 0.18523 0.62624 0.0
C2102 C 0.84476 0.22312 0.58035 0.0
C2103 C 0.83277 0.24095 0.5546 0.0
C2104 C 0.82964 0.20069 0.58797 0.0
C2105 C 0.80395 0.23723 0.53807 0.0
C2106 C 0.78852 0.21503 0.54574 0.0
C2107 C 0.78823 0.17205 0.57585 0.0
C2108 C 0.80243 0.15269 0.59952 0.0
C2109 C 0.80169 0.19606 0.57 0.0
C2110 C 0.82961 0.15836 0.61787 0.0
C2111 C 0.84301 0.182 0.6122 0.0
loop_
_geom_bond_atom_site_label_1
_geom_bond_atom_site_label_2
_geom_bond_distance
_geom_bond_site_symmetry_2
_ccdc_geom_bond_type
Tb0 C9 2.764 . S
Tb0 O10 2.325 . S
Tb0 O13 2.303 . S
Tb0 O17 2.322 1_455 S
Tb0 O18 2.349 1_455 S
Tb0 O21 2.415 . S
Tb0 O22 2.399 . S
Tb1 O11 2.322 1_655 S
Tb1 O12 2.349 1_655 S
Tb1 O14 2.415 . S
Tb1 O15 2.399 . S
Tb1 O16 2.325 . S
Tb1 O19 2.303 . S
Tb1 C30 2.764 . S
C2 O18 1.261 . S
C2 O19 1.257 . S
C3 C6 1.358 . S
C3 C7 1.332 . S
C3 C9 1.504 . S
C4 C5 1.373 . S
C4 C8 1.308 . S
C5 C4 1.373 . S
C5 C6 1.429 . S
C5 H32 0.932 . S
C6 C3 1.358 . S
C6 C5 1.429 . S
C6 H33 0.930 . S
C7 C3 1.332 . S
C7 C8 1.394 . S
C7 H34 0.932 . S
C8 C4 1.308 . S
C8 C7 1.394 . S
C8 H35 0.929 . S
C9 Tb0 2.764 . S
C9 C3 1.504 . S
C9 O21 1.239 . S
C9 O22 1.263 . S
O10 Tb0 2.325 . S
O10 C20 1.236 . S
O11 Tb1 2.322 1_455 S
O11 C20 1.257 . S
O12 Tb1 2.349 1_455 S
O12 C23 1.261 . S
O13 Tb0 2.303 . S
O13 C23 1.257 . S
O14 Tb1 2.415 . S
O14 C30 1.239 . S
O15 Tb1 2.399 . S
O15 C30 1.263 . S
O16 Tb1 2.325 . S
O16 C31 1.236 . S
O17 Tb0 2.322 1_655 S
O17 C31 1.257 . S
O18 Tb0 2.349 1_655 S
O18 C2 1.261 . S
O19 Tb1 2.303 . S
O19 C2 1.257 . S
C20 O10 1.236 . S
C20 O11 1.257 . S
O21 Tb0 2.415 . S
O21 C9 1.239 . S
O22 Tb0 2.399 . S
O22 C9 1.263 . S
C23 O12 1.261 . S
C23 O13 1.257 . S
C24 C27 1.358 . S
C24 C28 1.332 . S
C24 C30 1.504 . S
C25 C26 1.373 . S
C25 C29 1.308 . S
C26 C25 1.373 . S
C26 C27 1.429 . S
C26 H36 0.932 . S
C27 C24 1.358 . S
C27 C26 1.429 . S
C27 H37 0.930 . S
C28 C24 1.332 . S
C28 C29 1.394 . S
C28 H38 0.932 . S
C29 C25 1.308 . S
C29 C28 1.394 . S
C29 H39 0.929 . S
C30 Tb1 2.764 . S
C30 O14 1.239 . S
C30 O15 1.263 . S
C30 C24 1.504 . S
C31 O16 1.236 . S
C31 O17 1.257 . S
H32 C5 0.932 . S
H33 C6 0.930 . S
H34 C7 0.932 . S
H35 C8 0.929 . S
H36 C26 0.932 . S
H37 C27 0.930 . S
H38 C28 0.932 . S
H39 C29 0.929 . S
Tb40 C49 2.764 . S
Tb40 O50 2.325 . S
Tb40 O53 2.303 . S
Tb40 O57 2.322 . S
Tb40 O58 2.349 . S
Tb40 O61 2.415 . S
Tb40 O62 2.399 . S
Tb41 O51 2.322 . S
Tb41 O52 2.349 . S
Tb41 O54 2.415 . S
Tb41 O55 2.399 . S
Tb41 O56 2.325 . S
Tb41 O59 2.303 . S
Tb41 C70 2.764 . S
C42 O58 1.261 . S
C42 O59 1.257 . S
C43 C46 1.358 . S
C43 C47 1.332 . S
C43 C49 1.504 . S
C44 C45 1.373 . S
C44 C48 1.308 . S
C45 C44 1.373 . S
C45 C46 1.429 . S
C45 H72 0.932 . S
C46 C43 1.358 . S
C46 C45 1.429 . S
C46 H73 0.930 . S
C47 C43 1.332 . S
C47 C48 1.394 . S
C47 H74 0.932 . S
C48 C44 1.308 . S
C48 C47 1.394 . S
C48 H75 0.929 . S
C49 Tb40 2.764 . S
C49 C43 1.504 . S
C49 O61 1.239 . S
C49 O62 1.263 . S
O50 Tb40 2.325 . S
O50 C60 1.236 . S
O51 Tb41 2.322 . S
O51 C60 1.257 . S
O52 Tb41 2.349 . S
O52 C63 1.261 . S
O53 Tb40 2.303 . S
O53 C63 1.257 . S
O54 Tb41 2.415 . S
O54 C70 1.239 . S
O55 Tb41 2.399 . S
O55 C70 1.263 . S
O56 Tb41 2.325 . S
O56 C71 1.236 . S
O57 Tb40 2.322 . S
O57 C71 1.257 . S
O58 Tb40 2.349 . S
O58 C42 1.261 . S
O59 Tb41 2.303 . S
O59 C42 1.257 . S
C60 O50 1.236 . S
C60 O51 1.257 . S
O61 Tb40 2.415 . S
O61 C49 1.239 . S
O62 Tb40 2.399 . S
O62 C49 1.263 . S
C63 O52 1.261 . S
C63 O53 1.257 . S
C64 C67 1.358 . S
C64 C68 1.332 . S
C64 C70 1.504 . S
C65 C66 1.373 . S
C65 C69 1.308 . S
C66 C65 1.373 . S
C66 C67 1.429 . S
C66 H76 0.932 . S
C67 C64 1.358 . S
C67 C66 1.429 . S
C67 H77 0.930 . S
C68 C64 1.332 . S
C68 C69 1.394 . S
C68 H78 0.932 . S
C69 C65 1.308 . S
C69 C68 1.394 . S
C69 H79 0.929 . S
C70 Tb41 2.764 . S
C70 O54 1.239 . S
C70 O55 1.263 . S
C70 C64 1.504 . S
C71 O56 1.236 . S
C71 O57 1.257 . S
H72 C45 0.932 . S
H73 C46 0.930 . S
H74 C47 0.932 . S
H75 C48 0.929 . S
H76 C66 0.932 . S
H77 C67 0.930 . S
H78 C68 0.932 . S
H79 C69 0.929 . S
Tb80 C89 2.764 . S
Tb80 O90 2.325 . S
Tb80 O93 2.303 . S
Tb80 O97 2.322 . S
Tb80 O98 2.349 . S
Tb80 O101 2.415 . S
Tb80 O102 2.399 . S
Tb81 O91 2.322 . S
Tb81 O92 2.349 . S
Tb81 O94 2.415 . S
Tb81 O95 2.399 . S
Tb81 O96 2.325 . S
Tb81 O99 2.303 . S
Tb81 C110 2.764 . S
C82 O98 1.261 . S
C82 O99 1.257 . S
C83 C86 1.358 . S
C83 C87 1.332 . S
C83 C89 1.504 . S
C84 C85 1.373 . S
C84 C88 1.308 . S
C85 C84 1.373 . S
C85 C86 1.429 . S
C85 H112 0.932 . S
C86 C83 1.358 . S
C86 C85 1.429 . S
C86 H113 0.930 . S
C87 C83 1.332 . S
C87 C88 1.394 . S
C87 H114 0.932 . S
C88 C84 1.308 . S
C88 C87 1.394 . S
C88 H115 0.929 . S
C89 Tb80 2.764 . S
C89 C83 1.504 . S
C89 O101 1.239 . S
C89 O102 1.263 . S
O90 Tb80 2.325 . S
O90 C100 1.236 . S
O91 Tb81 2.322 . S
O91 C100 1.257 . S
O92 Tb81 2.349 . S
O92 C103 1.261 . S
O93 Tb80 2.303 . S
O93 C103 1.257 . S
O94 Tb81 2.415 . S
O94 C110 1.239 . S
O95 Tb81 2.399 . S
O95 C110 1.263 . S
O96 Tb81 2.325 . S
O96 C111 1.236 . S
O97 Tb80 2.322 . S
O97 C111 1.257 . S
O98 Tb80 2.349 . S
O98 C82 1.261 . S
O99 Tb81 2.303 . S
O99 C82 1.257 . S
C100 O90 1.236 . S
C100 O91 1.257 . S
O101 Tb80 2.415 . S
O101 C89 1.239 . S
O102 Tb80 2.399 . S
O102 C89 1.263 . S
C103 O92 1.261 . S
C103 O93 1.257 . S
C104 C107 1.358 . S
C104 C108 1.332 . S
C104 C110 1.504 . S
C105 C106 1.373 . S
C105 C109 1.308 . S
C106 C105 1.373 . S
C106 C107 1.429 . S
C106 H116 0.932 . S
C107 C104 1.358 . S
C107 C106 1.429 . S
C107 H117 0.930 . S
C108 C104 1.332 . S
C108 C109 1.394 . S
C108 H118 0.932 . S
C109 C105 1.308 . S
C109 C108 1.394 . S
C109 H119 0.929 . S
C110 Tb81 2.764 . S
C110 O94 1.239 . S
C110 O95 1.263 . S
C110 C104 1.504 . S
C111 O96 1.236 . S
C111 O97 1.257 . S
H112 C85 0.932 . S
H113 C86 0.930 . S
H114 C87 0.932 . S
H115 C88 0.929 . S
H116 C106 0.932 . S
H117 C107 0.930 . S
H118 C108 0.932 . S
H119 C109 0.929 . S
Tb120 C129 2.764 . S
Tb120 O130 2.325 . S
Tb120 O133 2.303 . S
Tb120 O137 2.322 1_655 S
Tb120 O138 2.349 1_655 S
Tb120 O141 2.415 . S
Tb120 O142 2.399 . S
Tb121 O131 2.322 1_455 S
Tb121 O132 2.349 1_455 S
Tb121 O134 2.415 . S
Tb121 O135 2.399 . S
Tb121 O136 2.325 . S
Tb121 O139 2.303 . S
Tb121 C150 2.764 . S
C122 O138 1.261 . S
C122 O139 1.257 . S
C123 C126 1.358 . S
C123 C127 1.332 . S
C123 C129 1.504 . S
C124 C125 1.373 . S
C124 C128 1.308 . S
C125 C124 1.373 . S
C125 C126 1.429 . S
C125 H152 0.932 . S
C126 C123 1.358 . S
C126 C125 1.429 . S
C126 H153 0.930 . S
C127 C123 1.332 . S
C127 C128 1.394 . S
C127 H154 0.932 . S
C128 C124 1.308 . S
C128 C127 1.394 . S
C128 H155 0.929 . S
C129 Tb120 2.764 . S
C129 C123 1.504 . S
C129 O141 1.239 . S
C129 O142 1.263 . S
O130 Tb120 2.325 . S
O130 C140 1.236 . S
O131 Tb121 2.322 1_655 S
O131 C140 1.257 . S
O132 Tb121 2.349 1_655 S
O132 C143 1.261 . S
O133 Tb120 2.303 . S
O133 C143 1.257 . S
O134 Tb121 2.415 . S
O134 C150 1.239 . S
O135 Tb121 2.399 . S
O135 C150 1.263 . S
O136 Tb121 2.325 . S
O136 C151 1.236 . S
O137 Tb120 2.322 1_455 S
O137 C151 1.257 . S
O138 Tb120 2.349 1_455 S
O138 C122 1.261 . S
O139 Tb121 2.303 . S
O139 C122 1.257 . S
C140 O130 1.236 . S
C140 O131 1.257 . S
O141 Tb120 2.415 . S
O141 C129 1.239 . S
O142 Tb120 2.399 . S
O142 C129 1.263 . S
C143 O132 1.261 . S
C143 O133 1.257 . S
C144 C147 1.358 . S
C144 C148 1.332 . S
C144 C150 1.504 . S
C145 C146 1.373 . S
C145 C149 1.308 . S
C146 C145 1.373 . S
C146 C147 1.429 . S
C146 H156 0.932 . S
C147 C144 1.358 . S
C147 C146 1.429 . S
C147 H157 0.930 . S
C148 C144 1.332 . S
C148 C149 1.394 . S
C148 H158 0.932 . S
C149 C145 1.308 . S
C149 C148 1.394 . S
C149 H159 0.929 . S
C150 Tb121 2.764 . S
C150 O134 1.239 . S
C150 O135 1.263 . S
C150 C144 1.504 . S
C151 O136 1.236 . S
C151 O137 1.257 . S
H152 C125 0.932 . S
H153 C126 0.930 . S
H154 C127 0.932 . S
H155 C128 0.929 . S
H156 C146 0.932 . S
H157 C147 0.930 . S
H158 C148 0.932 . S
H159 C149 0.929 . S
Tb160 C169 2.764 . S
Tb160 O170 2.325 . S
Tb160 O173 2.303 . S
Tb160 O177 2.322 1_545 S
Tb160 O178 2.349 1_545 S
Tb160 O181 2.415 . S
Tb160 O182 2.399 . S
Tb161 O171 2.322 1_565 S
Tb161 O172 2.349 1_565 S
Tb161 O174 2.415 . S
Tb161 O175 2.399 . S
Tb161 O176 2.325 . S
Tb161 O179 2.303 . S
Tb161 C190 2.764 . S
C162 O178 1.261 . S
C162 O179 1.257 . S
C163 C166 1.358 . S
C163 C167 1.332 . S
C163 C169 1.504 . S
C164 C165 1.373 . S
C164 C168 1.308 . S
C165 C164 1.373 . S
C165 C166 1.429 . S
C165 H192 0.932 . S
C166 C163 1.358 . S
C166 C165 1.429 . S
C166 H193 0.930 . S
C167 C163 1.332 . S
C167 C168 1.394 . S
C167 H194 0.932 . S
C168 C164 1.308 . S
C168 C167 1.394 . S
C168 H195 0.929 . S
C169 Tb160 2.764 . S
C169 C163 1.504 . S
C169 O181 1.239 . S
C169 O182 1.263 . S
O170 Tb160 2.325 . S
O170 C180 1.236 . S
O171 Tb161 2.322 1_545 S
O171 C180 1.257 . S
O172 Tb161 2.349 1_545 S
O172 C183 1.261 . S
O173 Tb160 2.303 . S
O173 C183 1.257 . S
O174 Tb161 2.415 . S
O174 C190 1.239 . S
O175 Tb161 2.399 . S
O175 C190 1.263 . S
O176 Tb161 2.325 . S
O176 C191 1.236 . S
O177 Tb160 2.322 1_565 S
O177 C191 1.257 . S
O178 Tb160 2.349 1_565 S
O178 C162 1.261 . S
O179 Tb161 2.303 . S
O179 C162 1.257 . S
C180 O170 1.236 . S
C180 O171 1.257 . S
O181 Tb160 2.415 . S
O181 C169 1.239 . S
O182 Tb160 2.399 . S
O182 C169 1.263 . S
C183 O172 1.261 . S
C183 O173 1.257 . S
C184 C187 1.358 . S
C184 C188 1.332 . S
C184 C190 1.504 . S
C185 C186 1.373 . S
C185 C189 1.308 . S
C186 C185 1.373 . S
C186 C187 1.429 . S
C186 H196 0.932 . S
C187 C184 1.358 . S
C187 C186 1.429 . S
C187 H197 0.930 . S
C188 C184 1.332 . S
C188 C189 1.394 . S
C188 H198 0.932 . S
C189 C185 1.308 . S
C189 C188 1.394 . S
C189 H199 0.929 . S
C190 Tb161 2.764 . S
C190 O174 1.239 . S
C190 O175 1.263 . S
C190 C184 1.504 . S
C191 O176 1.236 . S
C191 O177 1.257 . S
H192 C165 0.932 . S
H193 C166 0.930 . S
H194 C167 0.932 . S
H195 C168 0.929 . S
H196 C186 0.932 . S
H197 C187 0.930 . S
H198 C188 0.932 . S
H199 C189 0.929 . S
Tb200 C209 2.764 . S
Tb200 O210 2.325 . S
Tb200 O213 2.303 . S
Tb200 O217 2.322 1_565 S
Tb200 O218 2.349 1_565 S
Tb200 O221 2.415 . S
Tb200 O222 2.399 . S
Tb201 O211 2.322 1_545 S
Tb201 O212 2.349 1_545 S
Tb201 O214 2.415 . S
Tb201 O215 2.399 . S
Tb201 O216 2.325 . S
Tb201 O219 2.303 . S
Tb201 C230 2.764 . S
C202 O218 1.261 . S
C202 O219 1.257 . S
C203 C206 1.358 . S
C203 C207 1.332 . S
C203 C209 1.504 . S
C204 C205 1.373 . S
C204 C208 1.308 . S
C205 C204 1.373 . S
C205 C206 1.429 . S
C205 H232 0.932 . S
C206 C203 1.358 . S
C206 C205 1.429 . S
C206 H233 0.930 . S
C207 C203 1.332 . S
C207 C208 1.394 . S
C207 H234 0.932 . S
C208 C204 1.308 . S
C208 C207 1.394 . S
C208 H235 0.929 . S
C209 Tb200 2.764 . S
C209 C203 1.504 . S
C209 O221 1.239 . S
C209 O222 1.263 . S
O210 Tb200 2.325 . S
O210 C220 1.236 . S
O211 Tb201 2.322 1_565 S
O211 C220 1.257 . S
O212 Tb201 2.349 1_565 S
O212 C223 1.261 . S
O213 Tb200 2.303 . S
O213 C223 1.257 . S
O214 Tb201 2.415 . S
O214 C230 1.239 . S
O215 Tb201 2.399 . S
O215 C230 1.263 . S
O216 Tb201 2.325 . S
O216 C231 1.236 . S
O217 Tb200 2.322 1_545 S
O217 C231 1.257 . S
O218 Tb200 2.349 1_545 S
O218 C202 1.261 . S
O219 Tb201 2.303 . S
O219 C202 1.257 . S
C220 O210 1.236 . S
C220 O211 1.257 . S
O221 Tb200 2.415 . S
O221 C209 1.239 . S
O222 Tb200 2.399 . S
O222 C209 1.263 . S
C223 O212 1.261 . S
C223 O213 1.257 . S
C224 C227 1.358 . S
C224 C228 1.332 . S
C224 C230 1.504 . S
C225 C226 1.373 . S
C225 C229 1.308 . S
C226 C225 1.373 . S
C226 C227 1.429 . S
C226 H236 0.932 . S
C227 C224 1.358 . S
C227 C226 1.429 . S
C227 H237 0.930 . S
C228 C224 1.332 . S
C228 C229 1.394 . S
C228 H238 0.932 . S
C229 C225 1.308 . S
C229 C228 1.394 . S
C229 H239 0.929 . S
C230 Tb201 2.764 . S
C230 O214 1.239 . S
C230 O215 1.263 . S
C230 C224 1.504 . S
C231 O216 1.236 . S
C231 O217 1.257 . S
H232 C205 0.932 . S
H233 C206 0.930 . S
H234 C207 0.932 . S
H235 C208 0.929 . S
H236 C226 0.932 . S
H237 C227 0.930 . S
H238 C228 0.932 . S
H239 C229 0.929 . S
Tb240 C249 2.764 . S
Tb240 O250 2.325 . S
Tb240 O253 2.303 . S
Tb240 O257 2.322 . S
Tb240 O258 2.349 . S
Tb240 O261 2.415 . S
Tb240 O262 2.399 . S
Tb241 O251 2.322 . S
Tb241 O252 2.349 . S
Tb241 O254 2.415 . S
Tb241 O255 2.399 . S
Tb241 O256 2.325 . S
Tb241 O259 2.303 . S
Tb241 C270 2.764 . S
C242 O258 1.261 . S
C242 O259 1.257 . S
C243 C246 1.358 . S
C243 C247 1.332 . S
C243 C249 1.504 . S
C244 C245 1.373 . S
C244 C248 1.308 . S
C245 C244 1.373 . S
C245 C246 1.429 . S
C245 H272 0.932 . S
C246 C243 1.358 . S
C246 C245 1.429 . S
C246 H273 0.930 . S
C247 C243 1.332 . S
C247 C248 1.394 . S
C247 H274 0.932 . S
C248 C244 1.308 . S
C248 C247 1.394 . S
C248 H275 0.929 . S
C249 Tb240 2.764 . S
C249 C243 1.504 . S
C249 O261 1.239 . S
C249 O262 1.263 . S
O250 Tb240 2.325 . S
O250 C260 1.236 . S
O251 Tb241 2.322 . S
O251 C260 1.257 . S
O252 Tb241 2.349 . S
O252 C263 1.261 . S
O253 Tb240 2.303 . S
O253 C263 1.257 . S
O254 Tb241 2.415 . S
O254 C270 1.239 . S
O255 Tb241 2.399 . S
O255 C270 1.263 . S
O256 Tb241 2.325 . S
O256 C271 1.236 . S
O257 Tb240 2.322 . S
O257 C271 1.257 . S
O258 Tb240 2.349 . S
O258 C242 1.261 . S
O259 Tb241 2.303 . S
O259 C242 1.257 . S
C260 O250 1.236 . S
C260 O251 1.257 . S
O261 Tb240 2.415 . S
O261 C249 1.239 . S
O262 Tb240 2.399 . S
O262 C249 1.263 . S
C263 O252 1.261 . S
C263 O253 1.257 . S
C264 C267 1.358 . S
C264 C268 1.332 . S
C264 C270 1.504 . S
C265 C266 1.373 . S
C265 C269 1.308 . S
C266 C265 1.373 . S
C266 C267 1.429 . S
C266 H276 0.932 . S
C267 C264 1.358 . S
C267 C266 1.429 . S
C267 H277 0.930 . S
C268 C264 1.332 . S
C268 C269 1.394 . S
C268 H278 0.932 . S
C269 C265 1.308 . S
C269 C268 1.394 . S
C269 H279 0.929 . S
C270 Tb241 2.764 . S
C270 O254 1.239 . S
C270 O255 1.263 . S
C270 C264 1.504 . S
C271 O256 1.236 . S
C271 O257 1.257 . S
H272 C245 0.932 . S
H273 C246 0.930 . S
H274 C247 0.932 . S
H275 C248 0.929 . S
H276 C266 0.932 . S
H277 C267 0.930 . S
H278 C268 0.932 . S
H279 C269 0.929 . S
Tb280 C289 2.764 . S
Tb280 O290 2.325 . S
Tb280 O293 2.303 . S
Tb280 O297 2.322 . S
Tb280 O298 2.349 . S
Tb280 O301 2.415 . S
Tb280 O302 2.399 . S
Tb281 O291 2.322 . S
Tb281 O292 2.349 . S
Tb281 O294 2.415 . S
Tb281 O295 2.399 . S
Tb281 O296 2.325 . S
Tb281 O299 2.303 . S
Tb281 C310 2.764 . S
C282 O298 1.261 . S
C282 O299 1.257 . S
C283 C286 1.358 . S
C283 C287 1.332 . S
C283 C289 1.504 . S
C284 C285 1.373 . S
C284 C288 1.308 . S
C285 C284 1.373 . S
C285 C286 1.429 . S
C285 H312 0.932 . S
C286 C283 1.358 . S
C286 C285 1.429 . S
C286 H313 0.930 . S
C287 C283 1.332 . S
C287 C288 1.394 . S
C287 H314 0.932 . S
C288 C284 1.308 . S
C288 C287 1.394 . S
C288 H315 0.929 . S
C289 Tb280 2.764 . S
C289 C283 1.504 . S
C289 O301 1.239 . S
C289 O302 1.263 . S
O290 Tb280 2.325 . S
O290 C300 1.236 . S
O291 Tb281 2.322 . S
O291 C300 1.257 . S
O292 Tb281 2.349 . S
O292 C303 1.261 . S
O293 Tb280 2.303 . S
O293 C303 1.257 . S
O294 Tb281 2.415 . S
O294 C310 1.239 . S
O295 Tb281 2.399 . S
O295 C310 1.263 . S
O296 Tb281 2.325 . S
O296 C311 1.236 . S
O297 Tb280 2.322 . S
O297 C311 1.257 . S
O298 Tb280 2.349 . S
O298 C282 1.261 . S
O299 Tb281 2.303 . S
O299 C282 1.257 . S
C300 O290 1.236 . S
C300 O291 1.257 . S
O301 Tb280 2.415 . S
O301 C289 1.239 . S
O302 Tb280 2.399 . S
O302 C289 1.263 . S
C303 O292 1.261 . S
C303 O293 1.257 . S
C304 C307 1.358 . S
C304 C308 1.332 . S
C304 C310 1.504 . S
C305 C306 1.373 . S
C305 C309 1.308 . S
C306 C305 1.373 . S
C306 C307 1.429 . S
C306 H316 0.932 . S
C307 C304 1.358 . S
C307 C306 1.429 . S
C307 H317 0.930 . S
C308 C304 1.332 . S
C308 C309 1.394 . S
C308 H318 0.932 . S
C309 C305 1.308 . S
C309 C308 1.394 . S
C309 H319 0.929 . S
C310 Tb281 2.764 . S
C310 O294 1.239 . S
C310 O295 1.263 . S
C310 C304 1.504 . S
C311 O296 1.236 . S
C311 O297 1.257 . S
H312 C285 0.932 . S
H313 C286 0.930 . S
H314 C287 0.932 . S
H315 C288 0.929 . S
H316 C306 0.932 . S
H317 C307 0.930 . S
H318 C308 0.932 . S
H319 C309 0.929 . S
Tb320 C329 2.764 . S
Tb320 O330 2.325 . S
Tb320 O333 2.303 . S
Tb320 O337 2.322 . S
Tb320 O338 2.349 . S
Tb320 O341 2.415 . S
Tb320 O342 2.399 . S
Tb321 O331 2.322 . S
Tb321 O332 2.349 . S
Tb321 O334 2.415 1_554 S
Tb321 O335 2.399 . S
Tb321 O336 2.325 . S
Tb321 O339 2.303 . S
Tb321 C350 2.764 1_554 S
C322 O338 1.261 . S
C322 O339 1.257 . S
C323 C326 1.358 . S
C323 C327 1.332 . S
C323 C329 1.504 . S
C324 C325 1.373 . S
C324 C328 1.308 . S
C325 C324 1.373 . S
C325 C326 1.429 . S
C325 H352 0.932 . S
C326 C323 1.358 . S
C326 C325 1.429 . S
C326 H353 0.930 . S
C327 C323 1.332 . S
C327 C328 1.394 . S
C327 H354 0.932 . S
C328 C324 1.308 . S
C328 C327 1.394 . S
C328 H355 0.929 . S
C329 Tb320 2.764 . S
C329 C323 1.504 . S
C329 O341 1.239 . S
C329 O342 1.263 . S
O330 Tb320 2.325 . S
O330 C340 1.236 . S
O331 Tb321 2.322 . S
O331 C340 1.257 . S
O332 Tb321 2.349 . S
O332 C343 1.261 . S
O333 Tb320 2.303 . S
O333 C343 1.257 . S
O334 Tb321 2.415 1_556 S
O334 C350 1.239 . S
O335 Tb321 2.399 . S
O335 C350 1.263 1_554 S
O336 Tb321 2.325 . S
O336 C351 1.236 1_554 S
O337 Tb320 2.322 . S
O337 C351 1.257 1_554 S
O338 Tb320 2.349 . S
O338 C322 1.261 . S
O339 Tb321 2.303 . S
O339 C322 1.257 . S
C340 O330 1.236 . S
C340 O331 1.257 . S
O341 Tb320 2.415 . S
O341 C329 1.239 . S
O342 Tb320 2.399 . S
O342 C329 1.263 . S
C343 O332 1.261 . S
C343 O333 1.257 . S
C344 C347 1.358 . S
C344 C348 1.332 . S
C344 C350 1.504 . S
C345 C346 1.373 . S
C345 C349 1.308 . S
C346 C345 1.373 . S
C346 C347 1.429 . S
C346 H356 0.932 . S
C347 C344 1.358 . S
C347 C346 1.429 . S
C347 H357 0.930 . S
C348 C344 1.332 . S
C348 C349 1.394 . S
C348 H358 0.932 . S
C349 C345 1.308 . S
C349 C348 1.394 . S
C349 H359 0.929 . S
C350 Tb321 2.764 1_556 S
C350 O334 1.239 . S
C350 O335 1.263 1_556 S
C350 C344 1.504 . S
C351 O336 1.236 1_556 S
C351 O337 1.257 1_556 S
H352 C325 0.932 . S
H353 C326 0.930 . S
H354 C327 0.932 . S
H355 C328 0.929 . S
H356 C346 0.932 . S
H357 C347 0.930 . S
H358 C348 0.932 . S
H359 C349 0.929 . S
Tb360 C369 2.781 . S
Tb360 O370 2.325 . S
Tb360 O373 2.303 . S
Tb360 O377 2.322 . S
Tb360 O378 2.349 . S
Tb360 O381 2.415 . S
Tb360 O382 2.399 . S
Tb361 O371 2.322 . S
Tb361 O372 2.349 . S
Tb361 O374 2.415 . S
Tb361 O375 2.399 . S
Tb361 O376 2.325 . S
Tb361 O379 2.303 . S
Tb361 C390 2.764 . S
C362 O378 1.261 . S
C362 O379 1.257 . S
C363 C366 1.358 . S
C363 C367 1.332 . S
C363 C369 1.487 1_554 S
C364 C365 1.373 . S
C364 C368 1.308 . S
C365 C364 1.373 . S
C365 C366 1.429 . S
C365 H392 0.932 . S
C366 C363 1.358 . S
C366 C365 1.429 . S
C366 H393 0.930 . S
C367 C363 1.332 . S
C367 C368 1.394 . S
C367 H394 0.932 . S
C368 C364 1.308 . S
C368 C367 1.394 . S
C368 H395 0.929 . S
C369 Tb360 2.781 . S
C369 C363 1.487 1_556 S
C369 O381 1.235 . S
C369 O382 1.283 . S
O370 Tb360 2.325 . S
O370 C380 1.236 . S
O371 Tb361 2.322 . S
O371 C380 1.257 . S
O372 Tb361 2.349 . S
O372 C383 1.261 . S
O373 Tb360 2.303 . S
O373 C383 1.257 . S
O374 Tb361 2.415 . S
O374 C390 1.239 . S
O375 Tb361 2.399 . S
O375 C390 1.263 . S
O376 Tb361 2.325 . S
O376 C391 1.236 . S
O377 Tb360 2.322 . S
O377 C391 1.257 . S
O378 Tb360 2.349 . S
O378 C362 1.261 . S
O379 Tb361 2.303 . S
O379 C362 1.257 . S
C380 O370 1.236 . S
C380 O371 1.257 . S
O381 Tb360 2.415 . S
O381 C369 1.235 . S
O382 Tb360 2.399 . S
O382 C369 1.283 . S
C383 O372 1.261 . S
C383 O373 1.257 . S
C384 C387 1.358 . S
C384 C388 1.332 . S
C384 C390 1.504 . S
C385 C386 1.373 . S
C385 C389 1.308 . S
C386 C385 1.373 . S
C386 C387 1.429 . S
C386 H396 0.932 . S
C387 C384 1.358 . S
C387 C386 1.429 . S
C387 H397 0.930 . S
C388 C384 1.332 . S
C388 C389 1.394 . S
C388 H398 0.932 . S
C389 C385 1.308 . S
C389 C388 1.394 . S
C389 H399 0.929 . S
C390 Tb361 2.764 . S
C390 O374 1.239 . S
C390 O375 1.263 . S
C390 C384 1.504 . S
C391 O376 1.236 . S
C391 O377 1.257 . S
H392 C365 0.932 . S
H393 C366 0.930 . S
H394 C367 0.932 . S
H395 C368 0.929 . S
H396 C386 0.932 . S
H397 C387 0.930 . S
H398 C388 0.932 . S
H399 C389 0.929 . S
Tb400 C409 2.764 . S
Tb400 O410 2.325 . S
Tb400 O413 2.303 . S
Tb400 O417 2.322 . S
Tb400 O418 2.349 . S
Tb400 O421 2.415 . S
Tb400 O422 2.399 . S
Tb401 O411 2.322 . S
Tb401 O412 2.349 . S
Tb401 O414 2.415 . S
Tb401 O415 2.399 . S
Tb401 O416 2.325 . S
Tb401 O419 2.303 . S
Tb401 C430 2.764 . S
C402 O418 1.261 . S
C402 O419 1.257 . S
C403 C406 1.358 . S
C403 C407 1.332 . S
C403 C409 1.504 . S
C404 C405 1.373 . S
C404 C408 1.308 . S
C405 C404 1.373 . S
C405 C406 1.429 . S
C405 H432 0.932 . S
C406 C403 1.358 . S
C406 C405 1.429 . S
C406 H433 0.930 . S
C407 C403 1.332 . S
C407 C408 1.394 . S
C407 H434 0.932 . S
C408 C404 1.308 . S
C408 C407 1.394 . S
C408 H435 0.929 . S
C409 Tb400 2.764 . S
C409 C403 1.504 . S
C409 O421 1.239 . S
C409 O422 1.263 . S
O410 Tb400 2.325 . S
O410 C420 1.236 . S
O411 Tb401 2.322 . S
O411 C420 1.257 . S
O412 Tb401 2.349 . S
O412 C423 1.261 . S
O413 Tb400 2.303 . S
O413 C423 1.257 . S
O414 Tb401 2.415 . S
O414 C430 1.239 . S
O415 Tb401 2.399 . S
O415 C430 1.263 . S
O416 Tb401 2.325 . S
O416 C431 1.236 . S
O417 Tb400 2.322 . S
O417 C431 1.257 . S
O418 Tb400 2.349 . S
O418 C402 1.261 . S
O419 Tb401 2.303 . S
O419 C402 1.257 . S
C420 O410 1.236 . S
C420 O411 1.257 . S
O421 Tb400 2.415 . S
O421 C409 1.239 . S
O422 Tb400 2.399 . S
O422 C409 1.263 . S
C423 O412 1.261 . S
C423 O413 1.257 . S
C424 C427 1.358 . S
C424 C428 1.332 . S
C424 C430 1.504 . S
C425 C426 1.373 . S
C425 C429 1.308 . S
C426 C425 1.373 . S
C426 C427 1.429 . S
C426 H436 0.932 . S
C427 C424 1.358 . S
C427 C426 1.429 . S
C427 H437 0.930 . S
C428 C424 1.332 . S
C428 C429 1.394 . S
C428 H438 0.932 . S
C429 C425 1.308 . S
C429 C428 1.394 . S
C429 H439 0.929 . S
C430 Tb401 2.764 . S
C430 O414 1.239 . S
C430 O415 1.263 . S
C430 C424 1.504 . S
C431 O416 1.236 . S
C431 O417 1.257 . S
H432 C405 0.932 . S
H433 C406 0.930 . S
H434 C407 0.932 . S
H435 C408 0.929 . S
H436 C426 0.932 . S
H437 C427 0.930 . S
H438 C428 0.932 . S
H439 C429 0.929 . S
Tb440 C449 2.764 . S
Tb440 O450 2.325 . S
Tb440 O453 2.303 . S
Tb440 O457 2.322 . S
Tb440 O458 2.349 . S
Tb440 O461 2.415 . S
Tb440 O462 2.399 . S
Tb441 O451 2.322 . S
Tb441 O452 2.349 . S
Tb441 O454 2.415 . S
Tb441 O455 2.399 . S
Tb441 O456 2.325 . S
Tb441 O459 2.303 . S
Tb441 C470 2.764 . S
C442 O458 1.261 . S
C442 O459 1.257 . S
C443 C446 1.358 . S
C443 C447 1.332 . S
C443 C449 1.504 . S
C444 C445 1.373 . S
C444 C448 1.308 . S
C445 C444 1.373 . S
C445 C446 1.429 . S
C445 H472 0.932 . S
C446 C443 1.358 . S
C446 C445 1.429 . S
C446 H473 0.930 . S
C447 C443 1.332 . S
C447 C448 1.394 . S
C447 H474 0.932 . S
C448 C444 1.308 . S
C448 C447 1.394 . S
C448 H475 0.929 . S
C449 Tb440 2.764 . S
C449 C443 1.504 . S
C449 O461 1.239 . S
C449 O462 1.263 . S
O450 Tb440 2.325 . S
O450 C460 1.236 . S
O451 Tb441 2.322 . S
O451 C460 1.257 . S
O452 Tb441 2.349 . S
O452 C463 1.261 . S
O453 Tb440 2.303 . S
O453 C463 1.257 . S
O454 Tb441 2.415 . S
O454 C470 1.239 . S
O455 Tb441 2.399 . S
O455 C470 1.263 . S
O456 Tb441 2.325 . S
O456 C471 1.236 . S
O457 Tb440 2.322 . S
O457 C471 1.257 . S
O458 Tb440 2.349 . S
O458 C442 1.261 . S
O459 Tb441 2.303 . S
O459 C442 1.257 . S
C460 O450 1.236 . S
C460 O451 1.257 . S
O461 Tb440 2.415 . S
O461 C449 1.239 . S
O462 Tb440 2.399 . S
O462 C449 1.263 . S
C463 O452 1.261 . S
C463 O453 1.257 . S
C464 C467 1.358 . S
C464 C468 1.332 . S
C464 C470 1.504 . S
C465 C466 1.373 . S
C465 C469 1.308 . S
C466 C465 1.373 . S
C466 C467 1.429 . S
C466 H476 0.932 . S
C467 C464 1.358 . S
C467 C466 1.429 . S
C467 H477 0.930 . S
C468 C464 1.332 . S
C468 C469 1.394 . S
C468 H478 0.932 . S
C469 C465 1.308 . S
C469 C468 1.394 . S
C469 H479 0.929 . S
C470 Tb441 2.764 . S
C470 O454 1.239 . S
C470 O455 1.263 . S
C470 C464 1.504 . S
C471 O456 1.236 . S
C471 O457 1.257 . S
H472 C445 0.932 . S
H473 C446 0.930 . S
H474 C447 0.932 . S
H475 C448 0.929 . S
H476 C466 0.932 . S
H477 C467 0.930 . S
H478 C468 0.932 . S
H479 C469 0.929 . S
Tb480 C489 2.764 . S
Tb480 O490 2.325 . S
Tb480 O493 2.303 . S
Tb480 O497 2.322 1_455 S
Tb480 O498 2.349 1_455 S
Tb480 O501 2.415 . S
Tb480 O502 2.399 . S
Tb481 O491 2.322 1_655 S
Tb481 O492 2.349 1_655 S
Tb481 O494 2.415 . S
Tb481 O495 2.399 . S
Tb481 O496 2.325 . S
Tb481 O499 2.303 . S
Tb481 C510 2.764 . S
C482 O498 1.261 . S
C482 O499 1.257 . S
C483 C486 1.358 . S
C483 C487 1.332 . S
C483 C489 1.504 . S
C484 C485 1.373 . S
C484 C488 1.308 . S
C485 C484 1.373 . S
C485 C486 1.429 . S
C485 H512 0.932 . S
C486 C483 1.358 . S
C486 C485 1.429 . S
C486 H513 0.930 . S
C487 C483 1.332 . S
C487 C488 1.394 . S
C487 H514 0.932 . S
C488 C484 1.308 . S
C488 C487 1.394 . S
C488 H515 0.929 . S
C489 Tb480 2.764 . S
C489 C483 1.504 . S
C489 O501 1.239 . S
C489 O502 1.263 . S
O490 Tb480 2.325 . S
O490 C500 1.236 . S
O491 Tb481 2.322 1_455 S
O491 C500 1.257 . S
O492 Tb481 2.349 1_455 S
O492 C503 1.261 . S
O493 Tb480 2.303 . S
O493 C503 1.257 . S
O494 Tb481 2.415 . S
O494 C510 1.239 . S
O495 Tb481 2.399 . S
O495 C510 1.263 . S
O496 Tb481 2.325 . S
O496 C511 1.236 . S
O497 Tb480 2.322 1_655 S
O497 C511 1.257 . S
O498 Tb480 2.349 1_655 S
O498 C482 1.261 . S
O499 Tb481 2.303 . S
O499 C482 1.257 . S
C500 O490 1.236 . S
C500 O491 1.257 . S
O501 Tb480 2.415 . S
O501 C489 1.239 . S
O502 Tb480 2.399 . S
O502 C489 1.263 . S
C503 O492 1.261 . S
C503 O493 1.257 . S
C504 C507 1.358 . S
C504 C508 1.332 . S
C504 C510 1.504 . S
C505 C506 1.373 . S
C505 C509 1.308 . S
C506 C505 1.373 . S
C506 C507 1.429 . S
C506 H516 0.932 . S
C507 C504 1.358 . S
C507 C506 1.429 . S
C507 H517 0.930 . S
C508 C504 1.332 . S
C508 C509 1.394 . S
C508 H518 0.932 . S
C509 C505 1.308 . S
C509 C508 1.394 . S
C509 H519 0.929 . S
C510 Tb481 2.764 . S
C510 O494 1.239 . S
C510 O495 1.263 . S
C510 C504 1.504 . S
C511 O496 1.236 . S
C511 O497 1.257 . S
H512 C485 0.932 . S
H513 C486 0.930 . S
H514 C487 0.932 . S
H515 C488 0.929 . S
H516 C506 0.932 . S
H517 C507 0.930 . S
H518 C508 0.932 . S
H519 C509 0.929 . S
Tb520 C529 2.764 . S
Tb520 O530 2.325 . S
Tb520 O533 2.303 . S
Tb520 O537 2.322 . S
Tb520 O538 2.349 . S
Tb520 O541 2.415 . S
Tb520 O542 2.399 . S
Tb521 O531 2.322 . S
Tb521 O532 2.349 . S
Tb521 O534 2.415 . S
Tb521 O535 2.399 . S
Tb521 O536 2.325 . S
Tb521 O539 2.303 . S
Tb521 C550 2.764 . S
C522 O538 1.261 . S
C522 O539 1.257 . S
C523 C526 1.358 . S
C523 C527 1.332 . S
C523 C529 1.504 . S
C524 C525 1.373 . S
C524 C528 1.308 . S
C525 C524 1.373 . S
C525 C526 1.429 . S
C525 H552 0.932 . S
C526 C523 1.358 . S
C526 C525 1.429 . S
C526 H553 0.930 . S
C527 C523 1.332 . S
C527 C528 1.394 . S
C527 H554 0.932 . S
C528 C524 1.308 . S
C528 C527 1.394 . S
C528 H555 0.929 . S
C529 Tb520 2.764 . S
C529 C523 1.504 . S
C529 O541 1.239 . S
C529 O542 1.263 . S
O530 Tb520 2.325 . S
O530 C540 1.236 . S
O531 Tb521 2.322 . S
O531 C540 1.257 . S
O532 Tb521 2.349 . S
O532 C543 1.261 . S
O533 Tb520 2.303 . S
O533 C543 1.257 . S
O534 Tb521 2.415 . S
O534 C550 1.239 . S
O535 Tb521 2.399 . S
O535 C550 1.263 . S
O536 Tb521 2.325 . S
O536 C551 1.236 . S
O537 Tb520 2.322 . S
O537 C551 1.257 . S
O538 Tb520 2.349 . S
O538 C522 1.261 . S
O539 Tb521 2.303 . S
O539 C522 1.257 . S
C540 O530 1.236 . S
C540 O531 1.257 . S
O541 Tb520 2.415 . S
O541 C529 1.239 . S
O542 Tb520 2.399 . S
O542 C529 1.263 . S
C543 O532 1.261 . S
C543 O533 1.257 . S
C544 C547 1.358 . S
C544 C548 1.332 . S
C544 C550 1.504 . S
C545 C546 1.373 . S
C545 C549 1.308 . S
C546 C545 1.373 . S
C546 C547 1.429 . S
C546 H556 0.932 . S
C547 C544 1.358 . S
C547 C546 1.429 . S
C547 H557 0.930 . S
C548 C544 1.332 . S
C548 C549 1.394 . S
C548 H558 0.932 . S
C549 C545 1.308 . S
C549 C548 1.394 . S
C549 H559 0.929 . S
C550 Tb521 2.764 . S
C550 O534 1.239 . S
C550 O535 1.263 . S
C550 C544 1.504 . S
C551 O536 1.236 . S
C551 O537 1.257 . S
H552 C525 0.932 . S
H553 C526 0.930 . S
H554 C527 0.932 . S
H555 C528 0.929 . S
H556 C546 0.932 . S
H557 C547 0.930 . S
H558 C548 0.932 . S
H559 C549 0.929 . S
Tb560 C569 2.764 . S
Tb560 O570 2.325 . S
Tb560 O573 2.303 . S
Tb560 O577 2.322 . S
Tb560 O578 2.349 . S
Tb560 O581 2.415 . S
Tb560 O582 2.399 . S
Tb561 O571 2.322 . S
Tb561 O572 2.349 . S
Tb561 O574 2.415 . S
Tb561 O575 2.399 . S
Tb561 O576 2.325 . S
Tb561 O579 2.303 . S
Tb561 C590 2.764 . S
C562 O578 1.261 . S
C562 O579 1.257 . S
C563 C566 1.358 . S
C563 C567 1.332 . S
C563 C569 1.504 . S
C564 C565 1.373 . S
C564 C568 1.308 . S
C565 C564 1.373 . S
C565 C566 1.429 . S
C565 H592 0.932 . S
C566 C563 1.358 . S
C566 C565 1.429 . S
C566 H593 0.930 . S
C567 C563 1.332 . S
C567 C568 1.394 . S
C567 H594 0.932 . S
C568 C564 1.308 . S
C568 C567 1.394 . S
C568 H595 0.929 . S
C569 Tb560 2.764 . S
C569 C563 1.504 . S
C569 O581 1.239 . S
C569 O582 1.263 . S
O570 Tb560 2.325 . S
O570 C580 1.236 . S
O571 Tb561 2.322 . S
O571 C580 1.257 . S
O572 Tb561 2.349 . S
O572 C583 1.261 . S
O573 Tb560 2.303 . S
O573 C583 1.257 . S
O574 Tb561 2.415 . S
O574 C590 1.239 . S
O575 Tb561 2.399 . S
O575 C590 1.263 . S
O576 Tb561 2.325 . S
O576 C591 1.236 . S
O577 Tb560 2.322 . S
O577 C591 1.257 . S
O578 Tb560 2.349 . S
O578 C562 1.261 . S
O579 Tb561 2.303 . S
O579 C562 1.257 . S
C580 O570 1.236 . S
C580 O571 1.257 . S
O581 Tb560 2.415 . S
O581 C569 1.239 . S
O582 Tb560 2.399 . S
O582 C569 1.263 . S
C583 O572 1.261 . S
C583 O573 1.257 . S
C584 C587 1.358 . S
C584 C588 1.332 . S
C584 C590 1.504 . S
C585 C586 1.373 . S
C585 C589 1.308 . S
C586 C585 1.373 . S
C586 C587 1.429 . S
C586 H596 0.932 . S
C587 C584 1.358 . S
C587 C586 1.429 . S
C587 H597 0.930 . S
C588 C584 1.332 . S
C588 C589 1.394 . S
C588 H598 0.932 . S
C589 C585 1.308 . S
C589 C588 1.394 . S
C589 H599 0.929 . S
C590 Tb561 2.764 . S
C590 O574 1.239 . S
C590 O575 1.263 . S
C590 C584 1.504 . S
C591 O576 1.236 . S
C591 O577 1.257 . S
H592 C565 0.932 . S
H593 C566 0.930 . S
H594 C567 0.932 . S
H595 C568 0.929 . S
H596 C586 0.932 . S
H597 C587 0.930 . S
H598 C588 0.932 . S
H599 C589 0.929 . S
Tb600 C609 2.764 . S
Tb600 O610 2.325 . S
Tb600 O613 2.303 . S
Tb600 O617 2.322 1_655 S
Tb600 O618 2.349 1_655 S
Tb600 O621 2.415 . S
Tb600 O622 2.399 . S
Tb601 O611 2.322 1_455 S
Tb601 O612 2.349 1_455 S
Tb601 O614 2.415 . S
Tb601 O615 2.399 . S
Tb601 O616 2.325 . S
Tb601 O619 2.303 . S
Tb601 C630 2.764 . S
C602 O618 1.261 . S
C602 O619 1.257 . S
C603 C606 1.358 . S
C603 C607 1.332 . S
C603 C609 1.504 . S
C604 C605 1.373 . S
C604 C608 1.308 . S
C605 C604 1.373 . S
C605 C606 1.429 . S
C605 H632 0.932 . S
C606 C603 1.358 . S
C606 C605 1.429 . S
C606 H633 0.930 . S
C607 C603 1.332 . S
C607 C608 1.394 . S
C607 H634 0.932 . S
C608 C604 1.308 . S
C608 C607 1.394 . S
C608 H635 0.929 . S
C609 Tb600 2.764 . S
C609 C603 1.504 . S
C609 O621 1.239 . S
C609 O622 1.263 . S
O610 Tb600 2.325 . S
O610 C620 1.236 . S
O611 Tb601 2.322 1_655 S
O611 C620 1.257 . S
O612 Tb601 2.349 1_655 S
O612 C623 1.261 . S
O613 Tb600 2.303 . S
O613 C623 1.257 . S
O614 Tb601 2.415 . S
O614 C630 1.239 . S
O615 Tb601 2.399 . S
O615 C630 1.263 . S
O616 Tb601 2.325 . S
O616 C631 1.236 . S
O617 Tb600 2.322 1_455 S
O617 C631 1.257 . S
O618 Tb600 2.349 1_455 S
O618 C602 1.261 . S
O619 Tb601 2.303 . S
O619 C602 1.257 . S
C620 O610 1.236 . S
C620 O611 1.257 . S
O621 Tb600 2.415 . S
O621 C609 1.239 . S
O622 Tb600 2.399 . S
O622 C609 1.263 . S
C623 O612 1.261 . S
C623 O613 1.257 . S
C624 C627 1.358 . S
C624 C628 1.332 . S
C624 C630 1.504 . S
C625 C626 1.373 . S
C625 C629 1.308 . S
C626 C625 1.373 . S
C626 C627 1.429 . S
C626 H636 0.932 . S
C627 C624 1.358 . S
C627 C626 1.429 . S
C627 H637 0.930 . S
C628 C624 1.332 . S
C628 C629 1.394 . S
C628 H638 0.932 . S
C629 C625 1.308 . S
C629 C628 1.394 . S
C629 H639 0.929 . S
C630 Tb601 2.764 . S
C630 O614 1.239 . S
C630 O615 1.263 . S
C630 C624 1.504 . S
C631 O616 1.236 . S
C631 O617 1.257 . S
H632 C605 0.932 . S
H633 C606 0.930 . S
H634 C607 0.932 . S
H635 C608 0.929 . S
H636 C626 0.932 . S
H637 C627 0.930 . S
H638 C628 0.932 . S
H639 C629 0.929 . S
Tb640 C649 2.764 . S
Tb640 O650 2.325 . S
Tb640 O653 2.303 . S
Tb640 O657 2.322 1_545 S
Tb640 O658 2.349 1_545 S
Tb640 O661 2.415 . S
Tb640 O662 2.399 . S
Tb641 O651 2.322 1_565 S
Tb641 O652 2.349 1_565 S
Tb641 O654 2.415 . S
Tb641 O655 2.399 . S
Tb641 O656 2.325 . S
Tb641 O659 2.303 . S
Tb641 C670 2.764 . S
C642 O658 1.261 . S
C642 O659 1.257 . S
C643 C646 1.358 . S
C643 C647 1.332 . S
C643 C649 1.504 . S
C644 C645 1.373 . S
C644 C648 1.308 . S
C645 C644 1.373 . S
C645 C646 1.429 . S
C645 H672 0.932 . S
C646 C643 1.358 . S
C646 C645 1.429 . S
C646 H673 0.930 . S
C647 C643 1.332 . S
C647 C648 1.394 . S
C647 H674 0.932 . S
C648 C644 1.308 . S
C648 C647 1.394 . S
C648 H675 0.929 . S
C649 Tb640 2.764 . S
C649 C643 1.504 . S
C649 O661 1.239 . S
C649 O662 1.263 . S
O650 Tb640 2.325 . S
O650 C660 1.236 . S
O651 Tb641 2.322 1_545 S
O651 C660 1.257 . S
O652 Tb641 2.349 1_545 S
O652 C663 1.261 . S
O653 Tb640 2.303 . S
O653 C663 1.257 . S
O654 Tb641 2.415 . S
O654 C670 1.239 . S
O655 Tb641 2.399 . S
O655 C670 1.263 . S
O656 Tb641 2.325 . S
O656 C671 1.236 . S
O657 Tb640 2.322 1_565 S
O657 C671 1.257 . S
O658 Tb640 2.349 1_565 S
O658 C642 1.261 . S
O659 Tb641 2.303 . S
O659 C642 1.257 . S
C660 O650 1.236 . S
C660 O651 1.257 . S
O661 Tb640 2.415 . S
O661 C649 1.239 . S
O662 Tb640 2.399 . S
O662 C649 1.263 . S
C663 O652 1.261 . S
C663 O653 1.257 . S
C664 C667 1.358 . S
C664 C668 1.332 . S
C664 C670 1.504 . S
C665 C666 1.373 . S
C665 C669 1.308 . S
C666 C665 1.373 . S
C666 C667 1.429 . S
C666 H676 0.932 . S
C667 C664 1.358 . S
C667 C666 1.429 . S
C667 H677 0.930 . S
C668 C664 1.332 . S
C668 C669 1.394 . S
C668 H678 0.932 . S
C669 C665 1.308 . S
C669 C668 1.394 . S
C669 H679 0.929 . S
C670 Tb641 2.764 . S
C670 O654 1.239 . S
C670 O655 1.263 . S
C670 C664 1.504 . S
C671 O656 1.236 . S
C671 O657 1.257 . S
H672 C645 0.932 . S
H673 C646 0.930 . S
H674 C647 0.932 . S
H675 C648 0.929 . S
H676 C666 0.932 . S
H677 C667 0.930 . S
H678 C668 0.932 . S
H679 C669 0.929 . S
Tb680 C689 2.764 . S
Tb680 O690 2.325 . S
Tb680 O693 2.303 . S
Tb680 O697 2.322 1_565 S
Tb680 O698 2.349 1_565 S
Tb680 O701 2.415 . S
Tb680 O702 2.399 . S
Tb681 O691 2.322 1_545 S
Tb681 O692 2.349 1_545 S
Tb681 O694 2.415 . S
Tb681 O695 2.399 . S
Tb681 O696 2.325 . S
Tb681 O699 2.303 . S
Tb681 C710 2.764 . S
C682 O698 1.261 . S
C682 O699 1.257 . S
C683 C686 1.358 . S
C683 C687 1.332 . S
C683 C689 1.504 . S
C684 C685 1.373 . S
C684 C688 1.308 . S
C685 C684 1.373 . S
C685 C686 1.429 . S
C685 H712 0.932 . S
C686 C683 1.358 . S
C686 C685 1.429 . S
C686 H713 0.930 . S
C687 C683 1.332 . S
C687 C688 1.394 . S
C687 H714 0.932 . S
C688 C684 1.308 . S
C688 C687 1.394 . S
C688 H715 0.929 . S
C689 Tb680 2.764 . S
C689 C683 1.504 . S
C689 O701 1.239 . S
C689 O702 1.263 . S
O690 Tb680 2.325 . S
O690 C700 1.236 . S
O691 Tb681 2.322 1_565 S
O691 C700 1.257 . S
O692 Tb681 2.349 1_565 S
O692 C703 1.261 . S
O693 Tb680 2.303 . S
O693 C703 1.257 . S
O694 Tb681 2.415 . S
O694 C710 1.239 . S
O695 Tb681 2.399 . S
O695 C710 1.263 . S
O696 Tb681 2.325 . S
O696 C711 1.236 . S
O697 Tb680 2.322 1_545 S
O697 C711 1.257 . S
O698 Tb680 2.349 1_545 S
O698 C682 1.261 . S
O699 Tb681 2.303 . S
O699 C682 1.257 . S
C700 O690 1.236 . S
C700 O691 1.257 . S
O701 Tb680 2.415 . S
O701 C689 1.239 . S
O702 Tb680 2.399 . S
O702 C689 1.263 . S
C703 O692 1.261 . S
C703 O693 1.257 . S
C704 C707 1.358 . S
C704 C708 1.332 . S
C704 C710 1.504 . S
C705 C706 1.373 . S
C705 C709 1.308 . S
C706 C705 1.373 . S
C706 C707 1.429 . S
C706 H716 0.932 . S
C707 C704 1.358 . S
C707 C706 1.429 . S
C707 H717 0.930 . S
C708 C704 1.332 . S
C708 C709 1.394 . S
C708 H718 0.932 . S
C709 C705 1.308 . S
C709 C708 1.394 . S
C709 H719 0.929 . S
C710 Tb681 2.764 . S
C710 O694 1.239 . S
C710 O695 1.263 . S
C710 C704 1.504 . S
C711 O696 1.236 . S
C711 O697 1.257 . S
H712 C685 0.932 . S
H713 C686 0.930 . S
H714 C687 0.932 . S
H715 C688 0.929 . S
H716 C706 0.932 . S
H717 C707 0.930 . S
H718 C708 0.932 . S
H719 C709 0.929 . S
Tb720 C729 2.764 . S
Tb720 O730 2.325 . S
Tb720 O733 2.303 . S
Tb720 O737 2.322 . S
Tb720 O738 2.349 . S
Tb720 O741 2.415 . S
Tb720 O742 2.399 . S
Tb721 O731 2.322 . S
Tb721 O732 2.349 . S
Tb721 O734 2.415 . S
Tb721 O735 2.399 . S
Tb721 O736 2.325 . S
Tb721 O739 2.303 . S
Tb721 C750 2.764 . S
C722 O738 1.261 . S
C722 O739 1.257 . S
C723 C726 1.358 . S
C723 C727 1.332 . S
C723 C729 1.504 . S
C724 C725 1.373 . S
C724 C728 1.308 . S
C725 C724 1.373 . S
C725 C726 1.429 . S
C725 H752 0.932 . S
C726 C723 1.358 . S
C726 C725 1.429 . S
C726 H753 0.930 . S
C727 C723 1.332 . S
C727 C728 1.394 . S
C727 H754 0.932 . S
C728 C724 1.308 . S
C728 C727 1.394 . S
C728 H755 0.929 . S
C729 Tb720 2.764 . S
C729 C723 1.504 . S
C729 O741 1.239 . S
C729 O742 1.263 . S
O730 Tb720 2.325 . S
O730 C740 1.236 . S
O731 Tb721 2.322 . S
O731 C740 1.257 . S
O732 Tb721 2.349 . S
O732 C743 1.261 . S
O733 Tb720 2.303 . S
O733 C743 1.257 . S
O734 Tb721 2.415 . S
O734 C750 1.239 . S
O735 Tb721 2.399 . S
O735 C750 1.263 . S
O736 Tb721 2.325 . S
O736 C751 1.236 . S
O737 Tb720 2.322 . S
O737 C751 1.257 . S
O738 Tb720 2.349 . S
O738 C722 1.261 . S
O739 Tb721 2.303 . S
O739 C722 1.257 . S
C740 O730 1.236 . S
C740 O731 1.257 . S
O741 Tb720 2.415 . S
O741 C729 1.239 . S
O742 Tb720 2.399 . S
O742 C729 1.263 . S
C743 O732 1.261 . S
C743 O733 1.257 . S
C744 C747 1.358 . S
C744 C748 1.332 . S
C744 C750 1.504 . S
C745 C746 1.373 . S
C745 C749 1.308 . S
C746 C745 1.373 . S
C746 C747 1.429 . S
C746 H756 0.932 . S
C747 C744 1.358 . S
C747 C746 1.429 . S
C747 H757 0.930 . S
C748 C744 1.332 . S
C748 C749 1.394 . S
C748 H758 0.932 . S
C749 C745 1.308 . S
C749 C748 1.394 . S
C749 H759 0.929 . S
C750 Tb721 2.764 . S
C750 O734 1.239 . S
C750 O735 1.263 . S
C750 C744 1.504 . S
C751 O736 1.236 . S
C751 O737 1.257 . S
H752 C725 0.932 . S
H753 C726 0.930 . S
H754 C727 0.932 . S
H755 C728 0.929 . S
H756 C746 0.932 . S
H757 C747 0.930 . S
H758 C748 0.932 . S
H759 C749 0.929 . S
Tb760 C769 2.764 . S
Tb760 O770 2.325 . S
Tb760 O773 2.303 . S
Tb760 O777 2.322 . S
Tb760 O778 2.349 . S
Tb760 O781 2.415 . S
Tb760 O782 2.399 . S
Tb761 O771 2.322 . S
Tb761 O772 2.349 . S
Tb761 O774 2.415 . S
Tb761 O775 2.399 . S
Tb761 O776 2.325 . S
Tb761 O779 2.303 . S
Tb761 C790 2.764 . S
C762 O778 1.261 . S
C762 O779 1.257 . S
C763 C766 1.358 . S
C763 C767 1.332 . S
C763 C769 1.504 . S
C764 C765 1.373 . S
C764 C768 1.308 . S
C765 C764 1.373 . S
C765 C766 1.429 . S
C765 H792 0.932 . S
C766 C763 1.358 . S
C766 C765 1.429 . S
C766 H793 0.930 . S
C767 C763 1.332 . S
C767 C768 1.394 . S
C767 H794 0.932 . S
C768 C764 1.308 . S
C768 C767 1.394 . S
C768 H795 0.929 . S
C769 Tb760 2.764 . S
C769 C763 1.504 . S
C769 O781 1.239 . S
C769 O782 1.263 . S
O770 Tb760 2.325 . S
O770 C780 1.236 . S
O771 Tb761 2.322 . S
O771 C780 1.257 . S
O772 Tb761 2.349 . S
O772 C783 1.261 . S
O773 Tb760 2.303 . S
O773 C783 1.257 . S
O774 Tb761 2.415 . S
O774 C790 1.239 . S
O775 Tb761 2.399 . S
O775 C790 1.263 . S
O776 Tb761 2.325 . S
O776 C791 1.236 . S
O777 Tb760 2.322 . S
O777 C791 1.257 . S
O778 Tb760 2.349 . S
O778 C762 1.261 . S
O779 Tb761 2.303 . S
O779 C762 1.257 . S
C780 O770 1.236 . S
C780 O771 1.257 . S
O781 Tb760 2.415 . S
O781 C769 1.239 . S
O782 Tb760 2.399 . S
O782 C769 1.263 . S
C783 O772 1.261 . S
C783 O773 1.257 . S
C784 C787 1.358 . S
C784 C788 1.332 . S
C784 C790 1.504 . S
C785 C786 1.373 . S
C785 C789 1.308 . S
C786 C785 1.373 . S
C786 C787 1.429 . S
C786 H796 0.932 . S
C787 C784 1.358 . S
C787 C786 1.429 . S
C787 H797 0.930 . S
C788 C784 1.332 . S
C788 C789 1.394 . S
C788 H798 0.932 . S
C789 C785 1.308 . S
C789 C788 1.394 . S
C789 H799 0.929 . S
C790 Tb761 2.764 . S
C790 O774 1.239 . S
C790 O775 1.263 . S
C790 C784 1.504 . S
C791 O776 1.236 . S
C791 O777 1.257 . S
H792 C765 0.932 . S
H793 C766 0.930 . S
H794 C767 0.932 . S
H795 C768 0.929 . S
H796 C786 0.932 . S
H797 C787 0.930 . S
H798 C788 0.932 . S
H799 C789 0.929 . S
Tb800 C809 2.764 1_556 S
Tb800 O810 2.325 . S
Tb800 O813 2.303 . S
Tb800 O817 2.322 . S
Tb800 O818 2.349 . S
Tb800 O821 2.415 1_556 S
Tb800 O822 2.399 . S
Tb801 O811 2.322 . S
Tb801 O812 2.349 . S
Tb801 O814 2.415 . S
Tb801 O815 2.399 . S
Tb801 O816 2.325 . S
Tb801 O819 2.303 . S
Tb801 C830 2.764 . S
C802 O818 1.261 . S
C802 O819 1.257 . S
C803 C806 1.358 . S
C803 C807 1.332 . S
C803 C809 1.504 . S
C804 C805 1.373 . S
C804 C808 1.308 . S
C805 C804 1.373 . S
C805 C806 1.429 . S
C805 H832 0.932 . S
C806 C803 1.358 . S
C806 C805 1.429 . S
C806 H833 0.930 . S
C807 C803 1.332 . S
C807 C808 1.394 . S
C807 H834 0.932 . S
C808 C804 1.308 . S
C808 C807 1.394 . S
C808 H835 0.929 . S
C809 Tb800 2.764 1_554 S
C809 C803 1.504 . S
C809 O821 1.239 . S
C809 O822 1.263 1_554 S
O810 Tb800 2.325 . S
O810 C820 1.236 1_556 S
O811 Tb801 2.322 . S
O811 C820 1.257 1_556 S
O812 Tb801 2.349 . S
O812 C823 1.261 . S
O813 Tb800 2.303 . S
O813 C823 1.257 . S
O814 Tb801 2.415 . S
O814 C830 1.239 . S
O815 Tb801 2.399 . S
O815 C830 1.263 . S
O816 Tb801 2.325 . S
O816 C831 1.236 . S
O817 Tb800 2.322 . S
O817 C831 1.257 . S
O818 Tb800 2.349 . S
O818 C802 1.261 . S
O819 Tb801 2.303 . S
O819 C802 1.257 . S
C820 O810 1.236 1_554 S
C820 O811 1.257 1_554 S
O821 Tb800 2.415 1_554 S
O821 C809 1.239 . S
O822 Tb800 2.399 . S
O822 C809 1.263 1_556 S
C823 O812 1.261 . S
C823 O813 1.257 . S
C824 C827 1.358 . S
C824 C828 1.332 . S
C824 C830 1.504 . S
C825 C826 1.373 . S
C825 C829 1.308 . S
C826 C825 1.373 . S
C826 C827 1.429 . S
C826 H836 0.932 . S
C827 C824 1.358 . S
C827 C826 1.429 . S
C827 H837 0.930 . S
C828 C824 1.332 . S
C828 C829 1.394 . S
C828 H838 0.932 . S
C829 C825 1.308 . S
C829 C828 1.394 . S
C829 H839 0.929 . S
C830 Tb801 2.764 . S
C830 O814 1.239 . S
C830 O815 1.263 . S
C830 C824 1.504 . S
C831 O816 1.236 . S
C831 O817 1.257 . S
H832 C805 0.932 . S
H833 C806 0.930 . S
H834 C807 0.932 . S
H835 C808 0.929 . S
H836 C826 0.932 . S
H837 C827 0.930 . S
H838 C828 0.932 . S
H839 C829 0.929 . S
Tb840 C849 2.764 . S
Tb840 O850 2.325 . S
Tb840 O853 2.303 . S
Tb840 O857 2.322 . S
Tb840 O858 2.349 . S
Tb840 O861 2.415 . S
Tb840 O862 2.399 . S
Tb841 O851 2.322 . S
Tb841 O852 2.349 . S
Tb841 O854 2.415 . S
Tb841 O855 2.399 . S
Tb841 O856 2.325 . S
Tb841 O859 2.303 . S
Tb841 C870 2.781 . S
C842 O858 1.261 . S
C842 O859 1.257 . S
C843 C846 1.358 . S
C843 C847 1.332 . S
C843 C849 1.504 . S
C844 C845 1.373 . S
C844 C848 1.308 . S
C845 C844 1.373 . S
C845 C846 1.429 . S
C845 H872 0.932 . S
C846 C843 1.358 . S
C846 C845 1.429 . S
C846 H873 0.930 . S
C847 C843 1.332 . S
C847 C848 1.394 . S
C847 H874 0.932 . S
C848 C844 1.308 . S
C848 C847 1.394 . S
C848 H875 0.929 . S
C849 Tb840 2.764 . S
C849 C843 1.504 . S
C849 O861 1.239 . S
C849 O862 1.263 . S
O850 Tb840 2.325 . S
O850 C860 1.236 . S
O851 Tb841 2.322 . S
O851 C860 1.257 . S
O852 Tb841 2.349 . S
O852 C863 1.261 . S
O853 Tb840 2.303 . S
O853 C863 1.257 . S
O854 Tb841 2.415 . S
O854 C870 1.235 . S
O855 Tb841 2.399 . S
O855 C870 1.283 . S
O856 Tb841 2.325 . S
O856 C871 1.236 . S
O857 Tb840 2.322 . S
O857 C871 1.257 . S
O858 Tb840 2.349 . S
O858 C842 1.261 . S
O859 Tb841 2.303 . S
O859 C842 1.257 . S
C860 O850 1.236 . S
C860 O851 1.257 . S
O861 Tb840 2.415 . S
O861 C849 1.239 . S
O862 Tb840 2.399 . S
O862 C849 1.263 . S
C863 O852 1.261 . S
C863 O853 1.257 . S
C864 C867 1.358 . S
C864 C868 1.332 . S
C864 C870 1.487 1_556 S
C865 C866 1.373 . S
C865 C869 1.308 . S
C866 C865 1.373 . S
C866 C867 1.429 . S
C866 H876 0.932 . S
C867 C864 1.358 . S
C867 C866 1.429 . S
C867 H877 0.930 . S
C868 C864 1.332 . S
C868 C869 1.394 . S
C868 H878 0.932 . S
C869 C865 1.308 . S
C869 C868 1.394 . S
C869 H879 0.929 . S
C870 Tb841 2.781 . S
C870 O854 1.235 . S
C870 O855 1.283 . S
C870 C864 1.487 1_554 S
C871 O856 1.236 . S
C871 O857 1.257 . S
H872 C845 0.932 . S
H873 C846 0.930 . S
H874 C847 0.932 . S
H875 C848 0.929 . S
H876 C866 0.932 . S
H877 C867 0.930 . S
H878 C868 0.932 . S
H879 C869 0.929 . S
Tb880 C889 2.764 . S
Tb880 O890 2.325 . S
Tb880 O893 2.303 . S
Tb880 O897 2.322 . S
Tb880 O898 2.349 . S
Tb880 O901 2.415 . S
Tb880 O902 2.399 . S
Tb881 O891 2.322 . S
Tb881 O892 2.349 . S
Tb881 O894 2.415 . S
Tb881 O895 2.399 . S
Tb881 O896 2.325 . S
Tb881 O899 2.303 . S
Tb881 C910 2.764 . S
C882 O898 1.261 . S
C882 O899 1.257 . S
C883 C886 1.358 . S
C883 C887 1.332 . S
C883 C889 1.504 . S
C884 C885 1.373 . S
C884 C888 1.308 . S
C885 C884 1.373 . S
C885 C886 1.429 . S
C885 H912 0.932 . S
C886 C883 1.358 . S
C886 C885 1.429 . S
C886 H913 0.930 . S
C887 C883 1.332 . S
C887 C888 1.394 . S
C887 H914 0.932 . S
C888 C884 1.308 . S
C888 C887 1.394 . S
C888 H915 0.929 . S
C889 Tb880 2.764 . S
C889 C883 1.504 . S
C889 O901 1.239 . S
C889 O902 1.263 . S
O890 Tb880 2.325 . S
O890 C900 1.236 . S
O891 Tb881 2.322 . S
O891 C900 1.257 . S
O892 Tb881 2.349 . S
O892 C903 1.261 . S
O893 Tb880 2.303 . S
O893 C903 1.257 . S
O894 Tb881 2.415 . S
O894 C910 1.239 . S
O895 Tb881 2.399 . S
O895 C910 1.263 . S
O896 Tb881 2.325 . S
O896 C911 1.236 . S
O897 Tb880 2.322 . S
O897 C911 1.257 . S
O898 Tb880 2.349 . S
O898 C882 1.261 . S
O899 Tb881 2.303 . S
O899 C882 1.257 . S
C900 O890 1.236 . S
C900 O891 1.257 . S
O901 Tb880 2.415 . S
O901 C889 1.239 . S
O902 Tb880 2.399 . S
O902 C889 1.263 . S
C903 O892 1.261 . S
C903 O893 1.257 . S
C904 C907 1.358 . S
C904 C908 1.332 . S
C904 C910 1.504 . S
C905 C906 1.373 . S
C905 C909 1.308 . S
C906 C905 1.373 . S
C906 C907 1.429 . S
C906 H916 0.932 . S
C907 C904 1.358 . S
C907 C906 1.429 . S
C907 H917 0.930 . S
C908 C904 1.332 . S
C908 C909 1.394 . S
C908 H918 0.932 . S
C909 C905 1.308 . S
C909 C908 1.394 . S
C909 H919 0.929 . S
C910 Tb881 2.764 . S
C910 O894 1.239 . S
C910 O895 1.263 . S
C910 C904 1.504 . S
C911 O896 1.236 . S
C911 O897 1.257 . S
H912 C885 0.932 . S
H913 C886 0.930 . S
H914 C887 0.932 . S
H915 C888 0.929 . S
H916 C906 0.932 . S
H917 C907 0.930 . S
H918 C908 0.932 . S
H919 C909 0.929 . S
Tb920 C929 2.764 . S
Tb920 O930 2.325 . S
Tb920 O933 2.303 . S
Tb920 O937 2.322 . S
Tb920 O938 2.349 . S
Tb920 O941 2.415 . S
Tb920 O942 2.399 . S
Tb921 O931 2.322 . S
Tb921 O932 2.349 . S
Tb921 O934 2.415 . S
Tb921 O935 2.399 . S
Tb921 O936 2.325 . S
Tb921 O939 2.303 . S
Tb921 C950 2.764 . S
C922 O938 1.261 . S
C922 O939 1.257 . S
C923 C926 1.358 . S
C923 C927 1.332 . S
C923 C929 1.504 . S
C924 C925 1.373 . S
C924 C928 1.308 . S
C925 C924 1.373 . S
C925 C926 1.429 . S
C925 H952 0.932 . S
C926 C923 1.358 . S
C926 C925 1.429 . S
C926 H953 0.930 . S
C927 C923 1.332 . S
C927 C928 1.394 . S
C927 H954 0.932 . S
C928 C924 1.308 . S
C928 C927 1.394 . S
C928 H955 0.929 . S
C929 Tb920 2.764 . S
C929 C923 1.504 . S
C929 O941 1.239 . S
C929 O942 1.263 . S
O930 Tb920 2.325 . S
O930 C940 1.236 . S
O931 Tb921 2.322 . S
O931 C940 1.257 . S
O932 Tb921 2.349 . S
O932 C943 1.261 . S
O933 Tb920 2.303 . S
O933 C943 1.257 . S
O934 Tb921 2.415 . S
O934 C950 1.239 . S
O935 Tb921 2.399 . S
O935 C950 1.263 . S
O936 Tb921 2.325 . S
O936 C951 1.236 . S
O937 Tb920 2.322 . S
O937 C951 1.257 . S
O938 Tb920 2.349 . S
O938 C922 1.261 . S
O939 Tb921 2.303 . S
O939 C922 1.257 . S
C940 O930 1.236 . S
C940 O931 1.257 . S
O941 Tb920 2.415 . S
O941 C929 1.239 . S
O942 Tb920 2.399 . S
O942 C929 1.263 . S
C943 O932 1.261 . S
C943 O933 1.257 . S
C944 C947 1.358 . S
C944 C948 1.332 . S
C944 C950 1.504 . S
C945 C946 1.373 . S
C945 C949 1.308 . S
C946 C945 1.373 . S
C946 C947 1.429 . S
C946 H956 0.932 . S
C947 C944 1.358 . S
C947 C946 1.429 . S
C947 H957 0.930 . S
C948 C944 1.332 . S
C948 C949 1.394 . S
C948 H958 0.932 . S
C949 C945 1.308 . S
C949 C948 1.394 . S
C949 H959 0.929 . S
C950 Tb921 2.764 . S
C950 O934 1.239 . S
C950 O935 1.263 . S
C950 C944 1.504 . S
C951 O936 1.236 . S
C951 O937 1.257 . S
H952 C925 0.932 . S
H953 C926 0.930 . S
H954 C927 0.932 . S
H955 C928 0.929 . S
H956 C946 0.932 . S
H957 C947 0.930 . S
H958 C948 0.932 . S
H959 C949 0.929 . S
H960 C966 0.930 . S
H961 C969 0.930 . S
H962 C970 0.930 . S
H963 C971 0.930 . S
H964 C974 0.930 . S
H965 C975 0.930 . S
C966 H960 0.930 . S
C966 C967 1.355 . S
C966 C968 1.415 . S
C967 C966 1.355 . S
C967 C969 1.419 . S
C968 C966 1.415 . S
C968 C973 1.425 . S
C968 C975 1.409 . S
C969 H961 0.930 . S
C969 C967 1.419 . S
C969 C970 1.362 . S
C970 H962 0.930 . S
C970 C969 1.362 . S
C970 C973 1.409 . S
C971 H963 0.930 . S
C971 C972 1.355 . S
C971 C973 1.415 . S
C972 C971 1.355 . S
C972 C974 1.419 . S
C973 C968 1.425 . S
C973 C970 1.409 . S
C973 C971 1.415 . S
C974 H964 0.930 . S
C974 C972 1.419 . S
C974 C975 1.362 . S
C975 H965 0.930 . S
C975 C968 1.409 . S
C975 C974 1.362 . S
H976 C982 0.930 . S
H977 C985 0.930 . S
H978 C986 0.930 . S
H979 C987 0.930 . S
H980 C990 0.930 . S
H981 C991 0.930 . S
C982 H976 0.930 . S
C982 C983 1.355 . S
C982 C984 1.415 . S
C983 C982 1.355 . S
C983 C985 1.419 . S
C984 C982 1.415 . S
C984 C989 1.425 . S
C984 C991 1.409 . S
C985 H977 0.930 . S
C985 C983 1.419 . S
C985 C986 1.362 . S
C986 H978 0.930 . S
C986 C985 1.362 . S
C986 C989 1.409 . S
C987 H979 0.930 . S
C987 C988 1.355 . S
C987 C989 1.415 . S
C988 C987 1.355 . S
C988 C990 1.419 . S
C989 C984 1.425 . S
C989 C986 1.409 . S
C989 C987 1.415 . S
C990 H980 0.930 . S
C990 C988 1.419 . S
C990 C991 1.362 . S
C991 H981 0.930 . S
C991 C984 1.409 . S
C991 C990 1.362 . S
H992 C998 0.930 . S
H993 C1001 0.930 . S
H994 C1002 0.930 . S
H995 C1003 0.930 . S
H996 C1006 0.930 . S
H997 C1007 0.930 . S
C998 H992 0.930 . S
C998 C999 1.355 . S
C998 C1000 1.415 . S
C999 C998 1.355 . S
C999 C1001 1.419 . S
C1000 C998 1.415 . S
C1000 C1005 1.425 . S
C1000 C1007 1.409 . S
C1001 H993 0.930 . S
C1001 C999 1.419 . S
C1001 C1002 1.362 . S
C1002 H994 0.930 . S
C1002 C1001 1.362 . S
C1002 C1005 1.409 . S
C1003 H995 0.930 . S
C1003 C1004 1.355 . S
C1003 C1005 1.415 . S
C1004 C1003 1.355 . S
C1004 C1006 1.419 . S
C1005 C1000 1.425 . S
C1005 C1002 1.409 . S
C1005 C1003 1.415 . S
C1006 H996 0.930 . S
C1006 C1004 1.419 . S
C1006 C1007 1.362 . S
C1007 H997 0.930 . S
C1007 C1000 1.409 . S
C1007 C1006 1.362 . S
H1008 C1014 0.930 . S
H1009 C1017 0.930 . S
H1010 C1018 0.930 . S
H1011 C1019 0.930 . S
H1012 C1022 0.930 . S
H1013 C1023 0.930 . S
C1014 H1008 0.930 . S
C1014 C1015 1.355 . S
C1014 C1016 1.415 . S
C1015 C1014 1.355 . S
C1015 C1017 1.419 . S
C1016 C1014 1.415 . S
C1016 C1021 1.425 . S
C1016 C1023 1.409 . S
C1017 H1009 0.930 . S
C1017 C1015 1.419 . S
C1017 C1018 1.362 . S
C1018 H1010 0.930 . S
C1018 C1017 1.362 . S
C1018 C1021 1.409 . S
C1019 H1011 0.930 . S
C1019 C1020 1.355 . S
C1019 C1021 1.415 . S
C1020 C1019 1.355 . S
C1020 C1022 1.419 . S
C1021 C1016 1.425 . S
C1021 C1018 1.409 . S
C1021 C1019 1.415 . S
C1022 H1012 0.930 . S
C1022 C1020 1.419 . S
C1022 C1023 1.362 . S
C1023 H1013 0.930 . S
C1023 C1016 1.409 . S
C1023 C1022 1.362 . S
H1024 C1030 0.930 . S
H1025 C1033 0.930 . S
H1026 C1034 0.930 . S
H1027 C1035 0.930 . S
H1028 C1038 0.930 . S
H1029 C1039 0.930 . S
C1030 H1024 0.930 . S
C1030 C1031 1.355 . S
C1030 C1032 1.415 . S
C1031 C1030 1.355 . S
C1031 C1033 1.419 . S
C1032 C1030 1.415 . S
C1032 C1037 1.425 . S
C1032 C1039 1.409 . S
C1033 H1025 0.930 . S
C1033 C1031 1.419 . S
C1033 C1034 1.362 . S
C1034 H1026 0.930 . S
C1034 C1033 1.362 . S
C1034 C1037 1.409 . S
C1035 H1027 0.930 . S
C1035 C1036 1.355 . S
C1035 C1037 1.415 . S
C1036 C1035 1.355 . S
C1036 C1038 1.419 . S
C1037 C1032 1.425 . S
C1037 C1034 1.409 . S
C1037 C1035 1.415 . S
C1038 H1028 0.930 . S
C1038 C1036 1.419 . S
C1038 C1039 1.362 . S
C1039 H1029 0.930 . S
C1039 C1032 1.409 . S
C1039 C1038 1.362 . S
H1040 C1046 0.930 . S
H1041 C1049 0.930 . S
H1042 C1050 0.930 . S
H1043 C1051 0.930 . S
H1044 C1054 0.930 . S
H1045 C1055 0.930 . S
C1046 H1040 0.930 . S
C1046 C1047 1.355 . S
C1046 C1048 1.415 . S
C1047 C1046 1.355 . S
C1047 C1049 1.419 . S
C1048 C1046 1.415 . S
C1048 C1053 1.425 . S
C1048 C1055 1.409 . S
C1049 H1041 0.930 . S
C1049 C1047 1.419 . S
C1049 C1050 1.362 . S
C1050 H1042 0.930 . S
C1050 C1049 1.362 . S
C1050 C1053 1.409 . S
C1051 H1043 0.930 . S
C1051 C1052 1.355 . S
C1051 C1053 1.415 . S
C1052 C1051 1.355 . S
C1052 C1054 1.419 . S
C1053 C1048 1.425 . S
C1053 C1050 1.409 . S
C1053 C1051 1.415 . S
C1054 H1044 0.930 . S
C1054 C1052 1.419 . S
C1054 C1055 1.362 . S
C1055 H1045 0.930 . S
C1055 C1048 1.409 . S
C1055 C1054 1.362 . S
H1056 C1062 0.930 . S
H1057 C1065 0.930 . S
H1058 C1066 0.930 . S
H1059 C1067 0.930 . S
H1060 C1070 0.930 . S
H1061 C1071 0.930 . S
C1062 H1056 0.930 . S
C1062 C1063 1.355 . S
C1062 C1064 1.415 . S
C1063 C1062 1.355 . S
C1063 C1065 1.419 . S
C1064 C1062 1.415 . S
C1064 C1069 1.425 . S
C1064 C1071 1.409 . S
C1065 H1057 0.930 . S
C1065 C1063 1.419 . S
C1065 C1066 1.362 . S
C1066 H1058 0.930 . S
C1066 C1065 1.362 . S
C1066 C1069 1.409 . S
C1067 H1059 0.930 . S
C1067 C1068 1.355 . S
C1067 C1069 1.415 . S
C1068 C1067 1.355 . S
C1068 C1070 1.419 . S
C1069 C1064 1.425 . S
C1069 C1066 1.409 . S
C1069 C1067 1.415 . S
C1070 H1060 0.930 . S
C1070 C1068 1.419 . S
C1070 C1071 1.362 . S
C1071 H1061 0.930 . S
C1071 C1064 1.409 . S
C1071 C1070 1.362 . S
H1072 C1078 0.930 . S
H1073 C1081 0.930 . S
H1074 C1082 0.930 . S
H1075 C1083 0.930 . S
H1076 C1086 0.930 . S
H1077 C1087 0.930 . S
C1078 H1072 0.930 . S
C1078 C1079 1.355 . S
C1078 C1080 1.415 . S
C1079 C1078 1.355 . S
C1079 C1081 1.419 . S
C1080 C1078 1.415 . S
C1080 C1085 1.425 . S
C1080 C1087 1.409 . S
C1081 H1073 0.930 . S
C1081 C1079 1.419 . S
C1081 C1082 1.362 . S
C1082 H1074 0.930 . S
C1082 C1081 1.362 . S
C1082 C1085 1.409 . S
C1083 H1075 0.930 . S
C1083 C1084 1.355 . S
C1083 C1085 1.415 . S
C1084 C1083 1.355 . S
C1084 C1086 1.419 . S
C1085 C1080 1.425 . S
C1085 C1082 1.409 . S
C1085 C1083 1.415 . S
C1086 H1076 0.930 . S
C1086 C1084 1.419 . S
C1086 C1087 1.362 . S
C1087 H1077 0.930 . S
C1087 C1080 1.409 . S
C1087 C1086 1.362 . S
H1088 C1094 0.930 . S
H1089 C1097 0.930 . S
H1090 C1098 0.930 . S
H1091 C1099 0.930 . S
H1092 C1102 0.930 . S
H1093 C1103 0.930 . S
C1094 H1088 0.930 . S
C1094 C1095 1.355 . S
C1094 C1096 1.415 . S
C1095 C1094 1.355 . S
C1095 C1097 1.419 . S
C1096 C1094 1.415 . S
C1096 C1101 1.425 . S
C1096 C1103 1.409 . S
C1097 H1089 0.930 . S
C1097 C1095 1.419 . S
C1097 C1098 1.362 . S
C1098 H1090 0.930 . S
C1098 C1097 1.362 . S
C1098 C1101 1.409 . S
C1099 H1091 0.930 . S
C1099 C1100 1.355 . S
C1099 C1101 1.415 . S
C1100 C1099 1.355 . S
C1100 C1102 1.419 . S
C1101 C1096 1.425 . S
C1101 C1098 1.409 . S
C1101 C1099 1.415 . S
C1102 H1092 0.930 . S
C1102 C1100 1.419 . S
C1102 C1103 1.362 . S
C1103 H1093 0.930 . S
C1103 C1096 1.409 . S
C1103 C1102 1.362 . S
H1104 C1110 0.930 . S
H1105 C1113 0.930 . S
H1106 C1114 0.930 . S
H1107 C1115 0.930 . S
H1108 C1118 0.930 . S
H1109 C1119 0.930 . S
C1110 H1104 0.930 . S
C1110 C1111 1.355 . S
C1110 C1112 1.415 . S
C1111 C1110 1.355 . S
C1111 C1113 1.419 . S
C1112 C1110 1.415 . S
C1112 C1117 1.425 . S
C1112 C1119 1.409 . S
C1113 H1105 0.930 . S
C1113 C1111 1.419 . S
C1113 C1114 1.362 . S
C1114 H1106 0.930 . S
C1114 C1113 1.362 . S
C1114 C1117 1.409 . S
C1115 H1107 0.930 . S
C1115 C1116 1.355 . S
C1115 C1117 1.415 . S
C1116 C1115 1.355 . S
C1116 C1118 1.419 . S
C1117 C1112 1.425 . S
C1117 C1114 1.409 . S
C1117 C1115 1.415 . S
C1118 H1108 0.930 . S
C1118 C1116 1.419 . S
C1118 C1119 1.362 . S
C1119 H1109 0.930 . S
C1119 C1112 1.409 . S
C1119 C1118 1.362 . S
H1120 C1126 0.930 . S
H1121 C1129 0.930 . S
H1122 C1130 0.930 . S
H1123 C1131 0.930 . S
H1124 C1134 0.930 . S
H1125 C1135 0.930 . S
C1126 H1120 0.930 . S
C1126 C1127 1.355 . S
C1126 C1128 1.415 . S
C1127 C1126 1.355 . S
C1127 C1129 1.419 . S
C1128 C1126 1.415 . S
C1128 C1133 1.425 . S
C1128 C1135 1.409 . S
C1129 H1121 0.930 . S
C1129 C1127 1.419 . S
C1129 C1130 1.362 . S
C1130 H1122 0.930 . S
C1130 C1129 1.362 . S
C1130 C1133 1.409 . S
C1131 H1123 0.930 . S
C1131 C1132 1.355 . S
C1131 C1133 1.415 . S
C1132 C1131 1.355 . S
C1132 C1134 1.419 . S
C1133 C1128 1.425 . S
C1133 C1130 1.409 . S
C1133 C1131 1.415 . S
C1134 H1124 0.930 . S
C1134 C1132 1.419 . S
C1134 C1135 1.362 . S
C1135 H1125 0.930 . S
C1135 C1128 1.409 . S
C1135 C1134 1.362 . S
H1136 C1142 0.930 . S
H1137 C1145 0.930 . S
H1138 C1146 0.930 . S
H1139 C1147 0.930 . S
H1140 C1150 0.930 . S
H1141 C1151 0.930 . S
C1142 H1136 0.930 . S
C1142 C1143 1.355 . S
C1142 C1144 1.415 . S
C1143 C1142 1.355 . S
C1143 C1145 1.419 . S
C1144 C1142 1.415 . S
C1144 C1149 1.425 . S
C1144 C1151 1.409 . S
C1145 H1137 0.930 . S
C1145 C1143 1.419 . S
C1145 C1146 1.362 . S
C1146 H1138 0.930 . S
C1146 C1145 1.362 . S
C1146 C1149 1.409 . S
C1147 H1139 0.930 . S
C1147 C1148 1.355 . S
C1147 C1149 1.415 . S
C1148 C1147 1.355 . S
C1148 C1150 1.419 . S
C1149 C1144 1.425 . S
C1149 C1146 1.409 . S
C1149 C1147 1.415 . S
C1150 H1140 0.930 . S
C1150 C1148 1.419 . S
C1150 C1151 1.362 . S
C1151 H1141 0.930 . S
C1151 C1144 1.409 . S
C1151 C1150 1.362 . S
H1152 C1158 0.930 . S
H1153 C1161 0.930 . S
H1154 C1162 0.930 . S
H1155 C1163 0.930 . S
H1156 C1166 0.930 . S
H1157 C1167 0.930 . S
C1158 H1152 0.930 . S
C1158 C1159 1.355 . S
C1158 C1160 1.415 . S
C1159 C1158 1.355 . S
C1159 C1161 1.419 . S
C1160 C1158 1.415 . S
C1160 C1165 1.425 . S
C1160 C1167 1.409 . S
C1161 H1153 0.930 . S
C1161 C1159 1.419 . S
C1161 C1162 1.362 . S
C1162 H1154 0.930 . S
C1162 C1161 1.362 . S
C1162 C1165 1.409 . S
C1163 H1155 0.930 . S
C1163 C1164 1.355 . S
C1163 C1165 1.415 . S
C1164 C1163 1.355 . S
C1164 C1166 1.419 . S
C1165 C1160 1.425 . S
C1165 C1162 1.409 . S
C1165 C1163 1.415 . S
C1166 H1156 0.930 . S
C1166 C1164 1.419 . S
C1166 C1167 1.362 . S
C1167 H1157 0.930 . S
C1167 C1160 1.409 . S
C1167 C1166 1.362 . S
H1168 C1174 0.930 . S
H1169 C1177 0.930 . S
H1170 C1178 0.930 . S
H1171 C1179 0.930 . S
H1172 C1182 0.930 . S
H1173 C1183 0.930 . S
C1174 H1168 0.930 . S
C1174 C1175 1.355 . S
C1174 C1176 1.415 . S
C1175 C1174 1.355 . S
C1175 C1177 1.419 . S
C1176 C1174 1.415 . S
C1176 C1181 1.425 . S
C1176 C1183 1.409 . S
C1177 H1169 0.930 . S
C1177 C1175 1.419 . S
C1177 C1178 1.362 . S
C1178 H1170 0.930 . S
C1178 C1177 1.362 . S
C1178 C1181 1.409 . S
C1179 H1171 0.930 . S
C1179 C1180 1.355 . S
C1179 C1181 1.415 . S
C1180 C1179 1.355 . S
C1180 C1182 1.419 . S
C1181 C1176 1.425 . S
C1181 C1178 1.409 . S
C1181 C1179 1.415 . S
C1182 H1172 0.930 . S
C1182 C1180 1.419 . S
C1182 C1183 1.362 . S
C1183 H1173 0.930 . S
C1183 C1176 1.409 . S
C1183 C1182 1.362 . S
H1184 C1190 0.930 . S
H1185 C1193 0.930 . S
H1186 C1194 0.930 . S
H1187 C1195 0.930 . S
H1188 C1198 0.930 . S
H1189 C1199 0.930 . S
C1190 H1184 0.930 . S
C1190 C1191 1.355 . S
C1190 C1192 1.415 . S
C1191 C1190 1.355 . S
C1191 C1193 1.419 . S
C1192 C1190 1.415 . S
C1192 C1197 1.425 . S
C1192 C1199 1.409 . S
C1193 H1185 0.930 . S
C1193 C1191 1.419 . S
C1193 C1194 1.362 . S
C1194 H1186 0.930 . S
C1194 C1193 1.362 . S
C1194 C1197 1.409 . S
C1195 H1187 0.930 . S
C1195 C1196 1.355 . S
C1195 C1197 1.415 . S
C1196 C1195 1.355 . S
C1196 C1198 1.419 . S
C1197 C1192 1.425 . S
C1197 C1194 1.409 . S
C1197 C1195 1.415 . S
C1198 H1188 0.930 . S
C1198 C1196 1.419 . S
C1198 C1199 1.362 . S
C1199 H1189 0.930 . S
C1199 C1192 1.409 . S
C1199 C1198 1.362 . S
H1200 C1206 0.930 . S
H1201 C1209 0.930 . S
H1202 C1210 0.930 . S
H1203 C1211 0.930 . S
H1204 C1214 0.930 . S
H1205 C1215 0.930 . S
C1206 H1200 0.930 . S
C1206 C1207 1.355 . S
C1206 C1208 1.415 . S
C1207 C1206 1.355 . S
C1207 C1209 1.419 . S
C1208 C1206 1.415 . S
C1208 C1213 1.425 . S
C1208 C1215 1.409 . S
C1209 H1201 0.930 . S
C1209 C1207 1.419 . S
C1209 C1210 1.362 . S
C1210 H1202 0.930 . S
C1210 C1209 1.362 . S
C1210 C1213 1.409 . S
C1211 H1203 0.930 . S
C1211 C1212 1.355 . S
C1211 C1213 1.415 . S
C1212 C1211 1.355 . S
C1212 C1214 1.419 . S
C1213 C1208 1.425 . S
C1213 C1210 1.409 . S
C1213 C1211 1.415 . S
C1214 H1204 0.930 . S
C1214 C1212 1.419 . S
C1214 C1215 1.362 . S
C1215 H1205 0.930 . S
C1215 C1208 1.409 . S
C1215 C1214 1.362 . S
H1216 C1222 0.930 . S
H1217 C1225 0.930 . S
H1218 C1226 0.930 . S
H1219 C1227 0.930 . S
H1220 C1230 0.930 . S
H1221 C1231 0.930 . S
C1222 H1216 0.930 . S
C1222 C1223 1.355 . S
C1222 C1224 1.415 . S
C1223 C1222 1.355 . S
C1223 C1225 1.419 . S
C1224 C1222 1.415 . S
C1224 C1229 1.425 . S
C1224 C1231 1.409 . S
C1225 H1217 0.930 . S
C1225 C1223 1.419 . S
C1225 C1226 1.362 . S
C1226 H1218 0.930 . S
C1226 C1225 1.362 . S
C1226 C1229 1.409 . S
C1227 H1219 0.930 . S
C1227 C1228 1.355 . S
C1227 C1229 1.415 . S
C1228 C1227 1.355 . S
C1228 C1230 1.419 . S
C1229 C1224 1.425 . S
C1229 C1226 1.409 . S
C1229 C1227 1.415 . S
C1230 H1220 0.930 . S
C1230 C1228 1.419 . S
C1230 C1231 1.362 . S
C1231 H1221 0.930 . S
C1231 C1224 1.409 . S
C1231 C1230 1.362 . S
H1232 C1238 0.930 . S
H1233 C1241 0.930 . S
H1234 C1242 0.930 . S
H1235 C1243 0.930 . S
H1236 C1246 0.930 . S
H1237 C1247 0.930 . S
C1238 H1232 0.930 . S
C1238 C1239 1.355 . S
C1238 C1240 1.415 . S
C1239 C1238 1.355 . S
C1239 C1241 1.419 . S
C1240 C1238 1.415 . S
C1240 C1245 1.425 . S
C1240 C1247 1.409 . S
C1241 H1233 0.930 . S
C1241 C1239 1.419 . S
C1241 C1242 1.362 . S
C1242 H1234 0.930 . S
C1242 C1241 1.362 . S
C1242 C1245 1.409 . S
C1243 H1235 0.930 . S
C1243 C1244 1.355 . S
C1243 C1245 1.415 . S
C1244 C1243 1.355 . S
C1244 C1246 1.419 . S
C1245 C1240 1.425 . S
C1245 C1242 1.409 . S
C1245 C1243 1.415 . S
C1246 H1236 0.930 . S
C1246 C1244 1.419 . S
C1246 C1247 1.362 . S
C1247 H1237 0.930 . S
C1247 C1240 1.409 . S
C1247 C1246 1.362 . S
H1248 C1254 0.930 . S
H1249 C1257 0.930 . S
H1250 C1258 0.930 . S
H1251 C1259 0.930 . S
H1252 C1262 0.930 . S
H1253 C1263 0.930 . S
C1254 H1248 0.930 . S
C1254 C1255 1.355 . S
C1254 C1256 1.415 . S
C1255 C1254 1.355 . S
C1255 C1257 1.419 . S
C1256 C1254 1.415 . S
C1256 C1261 1.425 . S
C1256 C1263 1.409 . S
C1257 H1249 0.930 . S
C1257 C1255 1.419 . S
C1257 C1258 1.362 . S
C1258 H1250 0.930 . S
C1258 C1257 1.362 . S
C1258 C1261 1.409 . S
C1259 H1251 0.930 . S
C1259 C1260 1.355 . S
C1259 C1261 1.415 . S
C1260 C1259 1.355 . S
C1260 C1262 1.419 . S
C1261 C1256 1.425 . S
C1261 C1258 1.409 . S
C1261 C1259 1.415 . S
C1262 H1252 0.930 . S
C1262 C1260 1.419 . S
C1262 C1263 1.362 . S
C1263 H1253 0.930 . S
C1263 C1256 1.409 . S
C1263 C1262 1.362 . S
H1264 C1270 0.930 . S
H1265 C1273 0.930 . S
H1266 C1274 0.930 . S
H1267 C1275 0.930 . S
H1268 C1278 0.930 . S
H1269 C1279 0.930 . S
C1270 H1264 0.930 . S
C1270 C1271 1.355 . S
C1270 C1272 1.415 . S
C1271 C1270 1.355 . S
C1271 C1273 1.419 . S
C1272 C1270 1.415 . S
C1272 C1277 1.425 . S
C1272 C1279 1.409 . S
C1273 H1265 0.930 . S
C1273 C1271 1.419 . S
C1273 C1274 1.362 . S
C1274 H1266 0.930 . S
C1274 C1273 1.362 . S
C1274 C1277 1.409 . S
C1275 H1267 0.930 . S
C1275 C1276 1.355 . S
C1275 C1277 1.415 . S
C1276 C1275 1.355 . S
C1276 C1278 1.419 . S
C1277 C1272 1.425 . S
C1277 C1274 1.409 . S
C1277 C1275 1.415 . S
C1278 H1268 0.930 . S
C1278 C1276 1.419 . S
C1278 C1279 1.362 . S
C1279 H1269 0.930 . S
C1279 C1272 1.409 . S
C1279 C1278 1.362 . S
H1280 C1286 0.930 . S
H1281 C1289 0.930 . S
H1282 C1290 0.930 . S
H1283 C1291 0.930 . S
H1284 C1294 0.930 . S
H1285 C1295 0.930 . S
C1286 H1280 0.930 . S
C1286 C1287 1.355 . S
C1286 C1288 1.415 . S
C1287 C1286 1.355 . S
C1287 C1289 1.419 . S
C1288 C1286 1.415 . S
C1288 C1293 1.425 . S
C1288 C1295 1.409 . S
C1289 H1281 0.930 . S
C1289 C1287 1.419 . S
C1289 C1290 1.362 . S
C1290 H1282 0.930 . S
C1290 C1289 1.362 . S
C1290 C1293 1.409 . S
C1291 H1283 0.930 . S
C1291 C1292 1.355 . S
C1291 C1293 1.415 . S
C1292 C1291 1.355 . S
C1292 C1294 1.419 . S
C1293 C1288 1.425 . S
C1293 C1290 1.409 . S
C1293 C1291 1.415 . S
C1294 H1284 0.930 . S
C1294 C1292 1.419 . S
C1294 C1295 1.362 . S
C1295 H1285 0.930 . S
C1295 C1288 1.409 . S
C1295 C1294 1.362 . S
H1296 C1302 0.930 . S
H1297 C1305 0.930 . S
H1298 C1306 0.930 . S
H1299 C1307 0.930 . S
H1300 C1310 0.930 . S
H1301 C1311 0.930 . S
C1302 H1296 0.930 . S
C1302 C1303 1.355 . S
C1302 C1304 1.415 . S
C1303 C1302 1.355 . S
C1303 C1305 1.419 . S
C1304 C1302 1.415 . S
C1304 C1309 1.425 . S
C1304 C1311 1.409 . S
C1305 H1297 0.930 . S
C1305 C1303 1.419 . S
C1305 C1306 1.362 . S
C1306 H1298 0.930 . S
C1306 C1305 1.362 . S
C1306 C1309 1.409 . S
C1307 H1299 0.930 . S
C1307 C1308 1.355 . S
C1307 C1309 1.415 . S
C1308 C1307 1.355 . S
C1308 C1310 1.419 . S
C1309 C1304 1.425 . S
C1309 C1306 1.409 . S
C1309 C1307 1.415 . S
C1310 H1300 0.930 . S
C1310 C1308 1.419 . S
C1310 C1311 1.362 . S
C1311 H1301 0.930 . S
C1311 C1304 1.409 . S
C1311 C1310 1.362 . S
H1312 C1318 0.930 . S
H1313 C1321 0.930 . S
H1314 C1322 0.930 . S
H1315 C1323 0.930 . S
H1316 C1326 0.930 . S
H1317 C1327 0.930 . S
C1318 H1312 0.930 . S
C1318 C1319 1.355 . S
C1318 C1320 1.415 . S
C1319 C1318 1.355 . S
C1319 C1321 1.419 . S
C1320 C1318 1.415 . S
C1320 C1325 1.425 . S
C1320 C1327 1.409 . S
C1321 H1313 0.930 . S
C1321 C1319 1.419 . S
C1321 C1322 1.362 . S
C1322 H1314 0.930 . S
C1322 C1321 1.362 . S
C1322 C1325 1.409 . S
C1323 H1315 0.930 . S
C1323 C1324 1.355 . S
C1323 C1325 1.415 . S
C1324 C1323 1.355 . S
C1324 C1326 1.419 . S
C1325 C1320 1.425 . S
C1325 C1322 1.409 . S
C1325 C1323 1.415 . S
C1326 H1316 0.930 . S
C1326 C1324 1.419 . S
C1326 C1327 1.362 . S
C1327 H1317 0.930 . S
C1327 C1320 1.409 . S
C1327 C1326 1.362 . S
H1328 C1334 0.930 . S
H1329 C1337 0.930 . S
H1330 C1338 0.930 . S
H1331 C1339 0.930 . S
H1332 C1342 0.930 . S
H1333 C1343 0.930 . S
C1334 H1328 0.930 . S
C1334 C1335 1.355 . S
C1334 C1336 1.415 . S
C1335 C1334 1.355 . S
C1335 C1337 1.419 . S
C1336 C1334 1.415 . S
C1336 C1341 1.425 . S
C1336 C1343 1.409 . S
C1337 H1329 0.930 . S
C1337 C1335 1.419 . S
C1337 C1338 1.362 . S
C1338 H1330 0.930 . S
C1338 C1337 1.362 . S
C1338 C1341 1.409 . S
C1339 H1331 0.930 . S
C1339 C1340 1.355 . S
C1339 C1341 1.415 . S
C1340 C1339 1.355 . S
C1340 C1342 1.419 . S
C1341 C1336 1.425 . S
C1341 C1338 1.409 . S
C1341 C1339 1.415 . S
C1342 H1332 0.930 . S
C1342 C1340 1.419 . S
C1342 C1343 1.362 . S
C1343 H1333 0.930 . S
C1343 C1336 1.409 . S
C1343 C1342 1.362 . S
H1344 C1350 0.930 . S
H1345 C1353 0.930 . S
H1346 C1354 0.930 . S
H1347 C1355 0.930 . S
H1348 C1358 0.930 . S
H1349 C1359 0.930 . S
C1350 H1344 0.930 . S
C1350 C1351 1.355 . S
C1350 C1352 1.415 . S
C1351 C1350 1.355 . S
C1351 C1353 1.419 . S
C1352 C1350 1.415 . S
C1352 C1357 1.425 . S
C1352 C1359 1.409 . S
C1353 H1345 0.930 . S
C1353 C1351 1.419 . S
C1353 C1354 1.362 . S
C1354 H1346 0.930 . S
C1354 C1353 1.362 . S
C1354 C1357 1.409 . S
C1355 H1347 0.930 . S
C1355 C1356 1.355 . S
C1355 C1357 1.415 . S
C1356 C1355 1.355 . S
C1356 C1358 1.419 . S
C1357 C1352 1.425 . S
C1357 C1354 1.409 . S
C1357 C1355 1.415 . S
C1358 H1348 0.930 . S
C1358 C1356 1.419 . S
C1358 C1359 1.362 . S
C1359 H1349 0.930 . S
C1359 C1352 1.409 . S
C1359 C1358 1.362 . S
H1360 C1366 0.930 . S
H1361 C1369 0.930 . S
H1362 C1370 0.930 . S
H1363 C1371 0.930 . S
H1364 C1374 0.930 . S
H1365 C1375 0.930 . S
C1366 H1360 0.930 . S
C1366 C1367 1.355 . S
C1366 C1368 1.415 . S
C1367 C1366 1.355 . S
C1367 C1369 1.419 . S
C1368 C1366 1.415 . S
C1368 C1373 1.425 . S
C1368 C1375 1.409 . S
C1369 H1361 0.930 . S
C1369 C1367 1.419 . S
C1369 C1370 1.362 . S
C1370 H1362 0.930 . S
C1370 C1369 1.362 . S
C1370 C1373 1.409 . S
C1371 H1363 0.930 . S
C1371 C1372 1.355 . S
C1371 C1373 1.415 . S
C1372 C1371 1.355 . S
C1372 C1374 1.419 . S
C1373 C1368 1.425 . S
C1373 C1370 1.409 . S
C1373 C1371 1.415 . S
C1374 H1364 0.930 . S
C1374 C1372 1.419 . S
C1374 C1375 1.362 . S
C1375 H1365 0.930 . S
C1375 C1368 1.409 . S
C1375 C1374 1.362 . S
H1376 C1382 0.930 . S
H1377 C1385 0.930 . S
H1378 C1386 0.930 . S
H1379 C1387 0.930 . S
H1380 C1390 0.930 . S
H1381 C1391 0.930 . S
C1382 H1376 0.930 . S
C1382 C1383 1.355 . S
C1382 C1384 1.415 . S
C1383 C1382 1.355 . S
C1383 C1385 1.419 . S
C1384 C1382 1.415 . S
C1384 C1389 1.425 . S
C1384 C1391 1.409 . S
C1385 H1377 0.930 . S
C1385 C1383 1.419 . S
C1385 C1386 1.362 . S
C1386 H1378 0.930 . S
C1386 C1385 1.362 . S
C1386 C1389 1.409 . S
C1387 H1379 0.930 . S
C1387 C1388 1.355 . S
C1387 C1389 1.415 . S
C1388 C1387 1.355 . S
C1388 C1390 1.419 . S
C1389 C1384 1.425 . S
C1389 C1386 1.409 . S
C1389 C1387 1.415 . S
C1390 H1380 0.930 . S
C1390 C1388 1.419 . S
C1390 C1391 1.362 . S
C1391 H1381 0.930 . S
C1391 C1384 1.409 . S
C1391 C1390 1.362 . S
H1392 C1398 0.930 . S
H1393 C1401 0.930 . S
H1394 C1402 0.930 . S
H1395 C1403 0.930 . S
H1396 C1406 0.930 . S
H1397 C1407 0.930 . S
C1398 H1392 0.930 . S
C1398 C1399 1.355 . S
C1398 C1400 1.415 . S
C1399 C1398 1.355 . S
C1399 C1401 1.419 . S
C1400 C1398 1.415 . S
C1400 C1405 1.425 . S
C1400 C1407 1.409 . S
C1401 H1393 0.930 . S
C1401 C1399 1.419 . S
C1401 C1402 1.362 . S
C1402 H1394 0.930 . S
C1402 C1401 1.362 . S
C1402 C1405 1.409 . S
C1403 H1395 0.930 . S
C1403 C1404 1.355 . S
C1403 C1405 1.415 . S
C1404 C1403 1.355 . S
C1404 C1406 1.419 . S
C1405 C1400 1.425 . S
C1405 C1402 1.409 . S
C1405 C1403 1.415 . S
C1406 H1396 0.930 . S
C1406 C1404 1.419 . S
C1406 C1407 1.362 . S
C1407 H1397 0.930 . S
C1407 C1400 1.409 . S
C1407 C1406 1.362 . S
H1408 C1414 0.930 . S
H1409 C1417 0.930 . S
H1410 C1418 0.930 . S
H1411 C1419 0.930 . S
H1412 C1422 0.930 . S
H1413 C1423 0.930 . S
C1414 H1408 0.930 . S
C1414 C1415 1.355 . S
C1414 C1416 1.415 . S
C1415 C1414 1.355 . S
C1415 C1417 1.419 . S
C1416 C1414 1.415 . S
C1416 C1421 1.425 . S
C1416 C1423 1.409 . S
C1417 H1409 0.930 . S
C1417 C1415 1.419 . S
C1417 C1418 1.362 . S
C1418 H1410 0.930 . S
C1418 C1417 1.362 . S
C1418 C1421 1.409 . S
C1419 H1411 0.930 . S
C1419 C1420 1.355 . S
C1419 C1421 1.415 . S
C1420 C1419 1.355 . S
C1420 C1422 1.419 . S
C1421 C1416 1.425 . S
C1421 C1418 1.409 . S
C1421 C1419 1.415 . S
C1422 H1412 0.930 . S
C1422 C1420 1.419 . S
C1422 C1423 1.362 . S
C1423 H1413 0.930 . S
C1423 C1416 1.409 . S
C1423 C1422 1.362 . S
H1424 C1430 0.930 . S
H1425 C1433 0.930 . S
H1426 C1434 0.930 . S
H1427 C1435 0.930 . S
H1428 C1438 0.930 . S
H1429 C1439 0.930 . S
C1430 H1424 0.930 . S
C1430 C1431 1.355 . S
C1430 C1432 1.415 . S
C1431 C1430 1.355 . S
C1431 C1433 1.419 . S
C1432 C1430 1.415 . S
C1432 C1437 1.425 . S
C1432 C1439 1.409 . S
C1433 H1425 0.930 . S
C1433 C1431 1.419 . S
C1433 C1434 1.362 . S
C1434 H1426 0.930 . S
C1434 C1433 1.362 . S
C1434 C1437 1.409 . S
C1435 H1427 0.930 . S
C1435 C1436 1.355 . S
C1435 C1437 1.415 . S
C1436 C1435 1.355 . S
C1436 C1438 1.419 . S
C1437 C1432 1.425 . S
C1437 C1434 1.409 . S
C1437 C1435 1.415 . S
C1438 H1428 0.930 . S
C1438 C1436 1.419 . S
C1438 C1439 1.362 . S
C1439 H1429 0.930 . S
C1439 C1432 1.409 . S
C1439 C1438 1.362 . S
H1440 C1446 0.930 . S
H1441 C1449 0.930 . S
H1442 C1450 0.930 . S
H1443 C1451 0.930 . S
H1444 C1454 0.930 . S
H1445 C1455 0.930 . S
C1446 H1440 0.930 . S
C1446 C1447 1.355 . S
C1446 C1448 1.415 . S
C1447 C1446 1.355 . S
C1447 C1449 1.419 . S
C1448 C1446 1.415 . S
C1448 C1453 1.425 . S
C1448 C1455 1.409 . S
C1449 H1441 0.930 . S
C1449 C1447 1.419 . S
C1449 C1450 1.362 . S
C1450 H1442 0.930 . S
C1450 C1449 1.362 . S
C1450 C1453 1.409 . S
C1451 H1443 0.930 . S
C1451 C1452 1.355 . S
C1451 C1453 1.415 . S
C1452 C1451 1.355 . S
C1452 C1454 1.419 . S
C1453 C1448 1.425 . S
C1453 C1450 1.409 . S
C1453 C1451 1.415 . S
C1454 H1444 0.930 . S
C1454 C1452 1.419 . S
C1454 C1455 1.362 . S
C1455 H1445 0.930 . S
C1455 C1448 1.409 . S
C1455 C1454 1.362 . S
H1456 C1462 0.930 . S
H1457 C1465 0.930 . S
H1458 C1466 0.930 . S
H1459 C1467 0.930 . S
H1460 C1470 0.930 . S
H1461 C1471 0.930 . S
C1462 H1456 0.930 . S
C1462 C1463 1.355 . S
C1462 C1464 1.415 . S
C1463 C1462 1.355 . S
C1463 C1465 1.419 . S
C1464 C1462 1.415 . S
C1464 C1469 1.425 . S
C1464 C1471 1.409 . S
C1465 H1457 0.930 . S
C1465 C1463 1.419 . S
C1465 C1466 1.362 . S
C1466 H1458 0.930 . S
C1466 C1465 1.362 . S
C1466 C1469 1.409 . S
C1467 H1459 0.930 . S
C1467 C1468 1.355 . S
C1467 C1469 1.415 . S
C1468 C1467 1.355 . S
C1468 C1470 1.419 . S
C1469 C1464 1.425 . S
C1469 C1466 1.409 . S
C1469 C1467 1.415 . S
C1470 H1460 0.930 . S
C1470 C1468 1.419 . S
C1470 C1471 1.362 . S
C1471 H1461 0.930 . S
C1471 C1464 1.409 . S
C1471 C1470 1.362 . S
H1472 C1478 0.930 . S
H1473 C1481 0.930 . S
H1474 C1482 0.930 . S
H1475 C1483 0.930 . S
H1476 C1486 0.930 . S
H1477 C1487 0.930 . S
C1478 H1472 0.930 . S
C1478 C1479 1.355 . S
C1478 C1480 1.415 . S
C1479 C1478 1.355 . S
C1479 C1481 1.419 . S
C1480 C1478 1.415 . S
C1480 C1485 1.425 . S
C1480 C1487 1.409 . S
C1481 H1473 0.930 . S
C1481 C1479 1.419 . S
C1481 C1482 1.362 . S
C1482 H1474 0.930 . S
C1482 C1481 1.362 . S
C1482 C1485 1.409 . S
C1483 H1475 0.930 . S
C1483 C1484 1.355 . S
C1483 C1485 1.415 . S
C1484 C1483 1.355 . S
C1484 C1486 1.419 . S
C1485 C1480 1.425 . S
C1485 C1482 1.409 . S
C1485 C1483 1.415 . S
C1486 H1476 0.930 . S
C1486 C1484 1.419 . S
C1486 C1487 1.362 . S
C1487 H1477 0.930 . S
C1487 C1480 1.409 . S
C1487 C1486 1.362 . S
H1488 C1494 0.930 . S
H1489 C1497 0.930 . S
H1490 C1498 0.930 . S
H1491 C1499 0.930 . S
H1492 C1502 0.930 . S
H1493 C1503 0.930 . S
C1494 H1488 0.930 . S
C1494 C1495 1.355 . S
C1494 C1496 1.415 . S
C1495 C1494 1.355 . S
C1495 C1497 1.419 . S
C1496 C1494 1.415 . S
C1496 C1501 1.425 . S
C1496 C1503 1.409 . S
C1497 H1489 0.930 . S
C1497 C1495 1.419 . S
C1497 C1498 1.362 . S
C1498 H1490 0.930 . S
C1498 C1497 1.362 . S
C1498 C1501 1.409 . S
C1499 H1491 0.930 . S
C1499 C1500 1.355 . S
C1499 C1501 1.415 . S
C1500 C1499 1.355 . S
C1500 C1502 1.419 . S
C1501 C1496 1.425 . S
C1501 C1498 1.409 . S
C1501 C1499 1.415 . S
C1502 H1492 0.930 . S
C1502 C1500 1.419 . S
C1502 C1503 1.362 . S
C1503 H1493 0.930 . S
C1503 C1496 1.409 . S
C1503 C1502 1.362 . S
H1504 C1510 0.930 . S
H1505 C1513 0.930 . S
H1506 C1514 0.930 . S
H1507 C1515 0.930 . S
H1508 C1518 0.930 . S
H1509 C1519 0.930 . S
C1510 H1504 0.930 . S
C1510 C1511 1.355 . S
C1510 C1512 1.415 . S
C1511 C1510 1.355 . S
C1511 C1513 1.419 . S
C1512 C1510 1.415 . S
C1512 C1517 1.425 . S
C1512 C1519 1.409 . S
C1513 H1505 0.930 . S
C1513 C1511 1.419 . S
C1513 C1514 1.362 . S
C1514 H1506 0.930 . S
C1514 C1513 1.362 . S
C1514 C1517 1.409 . S
C1515 H1507 0.930 . S
C1515 C1516 1.355 . S
C1515 C1517 1.415 . S
C1516 C1515 1.355 . S
C1516 C1518 1.419 . S
C1517 C1512 1.425 . S
C1517 C1514 1.409 . S
C1517 C1515 1.415 . S
C1518 H1508 0.930 . S
C1518 C1516 1.419 . S
C1518 C1519 1.362 . S
C1519 H1509 0.930 . S
C1519 C1512 1.409 . S
C1519 C1518 1.362 . S
H1520 C1526 0.930 . S
H1521 C1529 0.930 . S
H1522 C1530 0.930 . S
H1523 C1531 0.930 . S
H1524 C1534 0.930 . S
H1525 C1535 0.930 . S
C1526 H1520 0.930 . S
C1526 C1527 1.355 . S
C1526 C1528 1.415 . S
C1527 C1526 1.355 . S
C1527 C1529 1.419 . S
C1528 C1526 1.415 . S
C1528 C1533 1.425 . S
C1528 C1535 1.409 . S
C1529 H1521 0.930 . S
C1529 C1527 1.419 . S
C1529 C1530 1.362 . S
C1530 H1522 0.930 . S
C1530 C1529 1.362 . S
C1530 C1533 1.409 . S
C1531 H1523 0.930 . S
C1531 C1532 1.355 . S
C1531 C1533 1.415 . S
C1532 C1531 1.355 . S
C1532 C1534 1.419 . S
C1533 C1528 1.425 . S
C1533 C1530 1.409 . S
C1533 C1531 1.415 . S
C1534 H1524 0.930 . S
C1534 C1532 1.419 . S
C1534 C1535 1.362 . S
C1535 H1525 0.930 . S
C1535 C1528 1.409 . S
C1535 C1534 1.362 . S
H1536 C1542 0.930 . S
H1537 C1545 0.930 . S
H1538 C1546 0.930 . S
H1539 C1547 0.930 . S
H1540 C1550 0.930 . S
H1541 C1551 0.930 . S
C1542 H1536 0.930 . S
C1542 C1543 1.355 . S
C1542 C1544 1.415 . S
C1543 C1542 1.355 . S
C1543 C1545 1.419 . S
C1544 C1542 1.415 . S
C1544 C1549 1.425 . S
C1544 C1551 1.409 . S
C1545 H1537 0.930 . S
C1545 C1543 1.419 . S
C1545 C1546 1.362 . S
C1546 H1538 0.930 . S
C1546 C1545 1.362 . S
C1546 C1549 1.409 . S
C1547 H1539 0.930 . S
C1547 C1548 1.355 . S
C1547 C1549 1.415 . S
C1548 C1547 1.355 . S
C1548 C1550 1.419 . S
C1549 C1544 1.425 . S
C1549 C1546 1.409 . S
C1549 C1547 1.415 . S
C1550 H1540 0.930 . S
C1550 C1548 1.419 . S
C1550 C1551 1.362 . S
C1551 H1541 0.930 . S
C1551 C1544 1.409 . S
C1551 C1550 1.362 . S
H1552 C1558 0.930 . S
H1553 C1561 0.930 . S
H1554 C1562 0.930 . S
H1555 C1563 0.930 . S
H1556 C1566 0.930 . S
H1557 C1567 0.930 . S
C1558 H1552 0.930 . S
C1558 C1559 1.355 . S
C1558 C1560 1.415 . S
C1559 C1558 1.355 . S
C1559 C1561 1.419 . S
C1560 C1558 1.415 . S
C1560 C1565 1.425 . S
C1560 C1567 1.409 . S
C1561 H1553 0.930 . S
C1561 C1559 1.419 . S
C1561 C1562 1.362 . S
C1562 H1554 0.930 . S
C1562 C1561 1.362 . S
C1562 C1565 1.409 . S
C1563 H1555 0.930 . S
C1563 C1564 1.355 . S
C1563 C1565 1.415 . S
C1564 C1563 1.355 . S
C1564 C1566 1.419 . S
C1565 C1560 1.425 . S
C1565 C1562 1.409 . S
C1565 C1563 1.415 . S
C1566 H1556 0.930 . S
C1566 C1564 1.419 . S
C1566 C1567 1.362 . S
C1567 H1557 0.930 . S
C1567 C1560 1.409 . S
C1567 C1566 1.362 . S
H1568 C1574 0.930 . S
H1569 C1577 0.930 . S
H1570 C1578 0.930 . S
H1571 C1579 0.930 . S
H1572 C1582 0.930 . S
H1573 C1583 0.930 . S
C1574 H1568 0.930 . S
C1574 C1575 1.355 . S
C1574 C1576 1.415 . S
C1575 C1574 1.355 . S
C1575 C1577 1.419 . S
C1576 C1574 1.415 . S
C1576 C1581 1.425 . S
C1576 C1583 1.409 . S
C1577 H1569 0.930 . S
C1577 C1575 1.419 . S
C1577 C1578 1.362 . S
C1578 H1570 0.930 . S
C1578 C1577 1.362 . S
C1578 C1581 1.409 . S
C1579 H1571 0.930 . S
C1579 C1580 1.355 . S
C1579 C1581 1.415 . S
C1580 C1579 1.355 . S
C1580 C1582 1.419 . S
C1581 C1576 1.425 . S
C1581 C1578 1.409 . S
C1581 C1579 1.415 . S
C1582 H1572 0.930 . S
C1582 C1580 1.419 . S
C1582 C1583 1.362 . S
C1583 H1573 0.930 . S
C1583 C1576 1.409 . S
C1583 C1582 1.362 . S
H1584 C1590 0.930 . S
H1585 C1593 0.930 . S
H1586 C1594 0.930 . S
H1587 C1595 0.930 . S
H1588 C1598 0.930 . S
H1589 C1599 0.930 . S
C1590 H1584 0.930 . S
C1590 C1591 1.355 . S
C1590 C1592 1.415 . S
C1591 C1590 1.355 . S
C1591 C1593 1.419 . S
C1592 C1590 1.415 . S
C1592 C1597 1.425 . S
C1592 C1599 1.409 . S
C1593 H1585 0.930 . S
C1593 C1591 1.419 . S
C1593 C1594 1.362 . S
C1594 H1586 0.930 . S
C1594 C1593 1.362 . S
C1594 C1597 1.409 . S
C1595 H1587 0.930 . S
C1595 C1596 1.355 . S
C1595 C1597 1.415 . S
C1596 C1595 1.355 . S
C1596 C1598 1.419 . S
C1597 C1592 1.425 . S
C1597 C1594 1.409 . S
C1597 C1595 1.415 . S
C1598 H1588 0.930 . S
C1598 C1596 1.419 . S
C1598 C1599 1.362 . S
C1599 H1589 0.930 . S
C1599 C1592 1.409 . S
C1599 C1598 1.362 . S
H1600 C1606 0.930 . S
H1601 C1609 0.930 . S
H1602 C1610 0.930 . S
H1603 C1611 0.930 . S
H1604 C1614 0.930 . S
H1605 C1615 0.930 . S
C1606 H1600 0.930 . S
C1606 C1607 1.355 . S
C1606 C1608 1.415 . S
C1607 C1606 1.355 . S
C1607 C1609 1.419 . S
C1608 C1606 1.415 . S
C1608 C1613 1.425 . S
C1608 C1615 1.409 . S
C1609 H1601 0.930 . S
C1609 C1607 1.419 . S
C1609 C1610 1.362 . S
C1610 H1602 0.930 . S
C1610 C1609 1.362 . S
C1610 C1613 1.409 . S
C1611 H1603 0.930 . S
C1611 C1612 1.355 . S
C1611 C1613 1.415 . S
C1612 C1611 1.355 . S
C1612 C1614 1.419 . S
C1613 C1608 1.425 . S
C1613 C1610 1.409 . S
C1613 C1611 1.415 . S
C1614 H1604 0.930 . S
C1614 C1612 1.419 . S
C1614 C1615 1.362 . S
C1615 H1605 0.930 . S
C1615 C1608 1.409 . S
C1615 C1614 1.362 . S
H1616 C1622 0.930 . S
H1617 C1625 0.930 . S
H1618 C1626 0.930 . S
H1619 C1627 0.930 . S
H1620 C1630 0.930 . S
H1621 C1631 0.930 . S
C1622 H1616 0.930 . S
C1622 C1623 1.355 . S
C1622 C1624 1.415 . S
C1623 C1622 1.355 . S
C1623 C1625 1.419 . S
C1624 C1622 1.415 . S
C1624 C1629 1.425 . S
C1624 C1631 1.409 . S
C1625 H1617 0.930 . S
C1625 C1623 1.419 . S
C1625 C1626 1.362 . S
C1626 H1618 0.930 . S
C1626 C1625 1.362 . S
C1626 C1629 1.409 . S
C1627 H1619 0.930 . S
C1627 C1628 1.355 . S
C1627 C1629 1.415 . S
C1628 C1627 1.355 . S
C1628 C1630 1.419 . S
C1629 C1624 1.425 . S
C1629 C1626 1.409 . S
C1629 C1627 1.415 . S
C1630 H1620 0.930 . S
C1630 C1628 1.419 . S
C1630 C1631 1.362 . S
C1631 H1621 0.930 . S
C1631 C1624 1.409 . S
C1631 C1630 1.362 . S
H1632 C1638 0.930 . S
H1633 C1641 0.930 . S
H1634 C1642 0.930 . S
H1635 C1643 0.930 . S
H1636 C1646 0.930 . S
H1637 C1647 0.930 . S
C1638 H1632 0.930 . S
C1638 C1639 1.355 . S
C1638 C1640 1.415 . S
C1639 C1638 1.355 . S
C1639 C1641 1.419 . S
C1640 C1638 1.415 . S
C1640 C1645 1.425 . S
C1640 C1647 1.409 . S
C1641 H1633 0.930 . S
C1641 C1639 1.419 . S
C1641 C1642 1.362 . S
C1642 H1634 0.930 . S
C1642 C1641 1.362 . S
C1642 C1645 1.409 . S
C1643 H1635 0.930 . S
C1643 C1644 1.355 . S
C1643 C1645 1.415 . S
C1644 C1643 1.355 . S
C1644 C1646 1.419 . S
C1645 C1640 1.425 . S
C1645 C1642 1.409 . S
C1645 C1643 1.415 . S
C1646 H1636 0.930 . S
C1646 C1644 1.419 . S
C1646 C1647 1.362 . S
C1647 H1637 0.930 . S
C1647 C1640 1.409 . S
C1647 C1646 1.362 . S
H1648 C1654 0.930 . S
H1649 C1657 0.930 . S
H1650 C1658 0.930 . S
H1651 C1659 0.930 . S
H1652 C1662 0.930 . S
H1653 C1663 0.930 . S
C1654 H1648 0.930 . S
C1654 C1655 1.355 . S
C1654 C1656 1.415 . S
C1655 C1654 1.355 . S
C1655 C1657 1.419 . S
C1656 C1654 1.415 . S
C1656 C1661 1.425 . S
C1656 C1663 1.409 . S
C1657 H1649 0.930 . S
C1657 C1655 1.419 . S
C1657 C1658 1.362 . S
C1658 H1650 0.930 . S
C1658 C1657 1.362 . S
C1658 C1661 1.409 . S
C1659 H1651 0.930 . S
C1659 C1660 1.355 . S
C1659 C1661 1.415 . S
C1660 C1659 1.355 . S
C1660 C1662 1.419 . S
C1661 C1656 1.425 . S
C1661 C1658 1.409 . S
C1661 C1659 1.415 . S
C1662 H1652 0.930 . S
C1662 C1660 1.419 . S
C1662 C1663 1.362 . S
C1663 H1653 0.930 . S
C1663 C1656 1.409 . S
C1663 C1662 1.362 . S
H1664 C1670 0.930 . S
H1665 C1673 0.930 . S
H1666 C1674 0.930 . S
H1667 C1675 0.930 . S
H1668 C1678 0.930 . S
H1669 C1679 0.930 . S
C1670 H1664 0.930 . S
C1670 C1671 1.355 . S
C1670 C1672 1.415 . S
C1671 C1670 1.355 . S
C1671 C1673 1.419 . S
C1672 C1670 1.415 . S
C1672 C1677 1.425 . S
C1672 C1679 1.409 . S
C1673 H1665 0.930 . S
C1673 C1671 1.419 . S
C1673 C1674 1.362 . S
C1674 H1666 0.930 . S
C1674 C1673 1.362 . S
C1674 C1677 1.409 . S
C1675 H1667 0.930 . S
C1675 C1676 1.355 . S
C1675 C1677 1.415 . S
C1676 C1675 1.355 . S
C1676 C1678 1.419 . S
C1677 C1672 1.425 . S
C1677 C1674 1.409 . S
C1677 C1675 1.415 . S
C1678 H1668 0.930 . S
C1678 C1676 1.419 . S
C1678 C1679 1.362 . S
C1679 H1669 0.930 . S
C1679 C1672 1.409 . S
C1679 C1678 1.362 . S
H1680 C1686 0.930 . S
H1681 C1689 0.930 . S
H1682 C1690 0.930 . S
H1683 C1691 0.930 . S
H1684 C1694 0.930 . S
H1685 C1695 0.930 . S
C1686 H1680 0.930 . S
C1686 C1687 1.355 . S
C1686 C1688 1.415 . S
C1687 C1686 1.355 . S
C1687 C1689 1.419 . S
C1688 C1686 1.415 . S
C1688 C1693 1.425 . S
C1688 C1695 1.409 . S
C1689 H1681 0.930 . S
C1689 C1687 1.419 . S
C1689 C1690 1.362 . S
C1690 H1682 0.930 . S
C1690 C1689 1.362 . S
C1690 C1693 1.409 . S
C1691 H1683 0.930 . S
C1691 C1692 1.355 . S
C1691 C1693 1.415 . S
C1692 C1691 1.355 . S
C1692 C1694 1.419 . S
C1693 C1688 1.425 . S
C1693 C1690 1.409 . S
C1693 C1691 1.415 . S
C1694 H1684 0.930 . S
C1694 C1692 1.419 . S
C1694 C1695 1.362 . S
C1695 H1685 0.930 . S
C1695 C1688 1.409 . S
C1695 C1694 1.362 . S
H1696 C1702 0.930 . S
H1697 C1705 0.930 . S
H1698 C1706 0.930 . S
H1699 C1707 0.930 . S
H1700 C1710 0.930 . S
H1701 C1711 0.930 . S
C1702 H1696 0.930 . S
C1702 C1703 1.355 . S
C1702 C1704 1.415 . S
C1703 C1702 1.355 . S
C1703 C1705 1.419 . S
C1704 C1702 1.415 . S
C1704 C1709 1.425 . S
C1704 C1711 1.409 . S
C1705 H1697 0.930 . S
C1705 C1703 1.419 . S
C1705 C1706 1.362 . S
C1706 H1698 0.930 . S
C1706 C1705 1.362 . S
C1706 C1709 1.409 . S
C1707 H1699 0.930 . S
C1707 C1708 1.355 . S
C1707 C1709 1.415 . S
C1708 C1707 1.355 . S
C1708 C1710 1.419 . S
C1709 C1704 1.425 . S
C1709 C1706 1.409 . S
C1709 C1707 1.415 . S
C1710 H1700 0.930 . S
C1710 C1708 1.419 . S
C1710 C1711 1.362 . S
C1711 H1701 0.930 . S
C1711 C1704 1.409 . S
C1711 C1710 1.362 . S
H1712 C1718 0.930 . S
H1713 C1721 0.930 . S
H1714 C1722 0.930 . S
H1715 C1723 0.930 . S
H1716 C1726 0.930 . S
H1717 C1727 0.930 . S
C1718 H1712 0.930 . S
C1718 C1719 1.355 . S
C1718 C1720 1.415 . S
C1719 C1718 1.355 . S
C1719 C1721 1.419 . S
C1720 C1718 1.415 . S
C1720 C1725 1.425 . S
C1720 C1727 1.409 . S
C1721 H1713 0.930 . S
C1721 C1719 1.419 . S
C1721 C1722 1.362 . S
C1722 H1714 0.930 . S
C1722 C1721 1.362 . S
C1722 C1725 1.409 . S
C1723 H1715 0.930 . S
C1723 C1724 1.355 . S
C1723 C1725 1.415 . S
C1724 C1723 1.355 . S
C1724 C1726 1.419 . S
C1725 C1720 1.425 . S
C1725 C1722 1.409 . S
C1725 C1723 1.415 . S
C1726 H1716 0.930 . S
C1726 C1724 1.419 . S
C1726 C1727 1.362 . S
C1727 H1717 0.930 . S
C1727 C1720 1.409 . S
C1727 C1726 1.362 . S
H1728 C1734 0.930 . S
H1729 C1737 0.930 . S
H1730 C1738 0.930 . S
H1731 C1739 0.930 . S
H1732 C1742 0.930 . S
H1733 C1743 0.930 . S
C1734 H1728 0.930 . S
C1734 C1735 1.355 . S
C1734 C1736 1.415 . S
C1735 C1734 1.355 . S
C1735 C1737 1.419 . S
C1736 C1734 1.415 . S
C1736 C1741 1.425 . S
C1736 C1743 1.409 . S
C1737 H1729 0.930 . S
C1737 C1735 1.419 . S
C1737 C1738 1.362 . S
C1738 H1730 0.930 . S
C1738 C1737 1.362 . S
C1738 C1741 1.409 . S
C1739 H1731 0.930 . S
C1739 C1740 1.355 . S
C1739 C1741 1.415 . S
C1740 C1739 1.355 . S
C1740 C1742 1.419 . S
C1741 C1736 1.425 . S
C1741 C1738 1.409 . S
C1741 C1739 1.415 . S
C1742 H1732 0.930 . S
C1742 C1740 1.419 . S
C1742 C1743 1.362 . S
C1743 H1733 0.930 . S
C1743 C1736 1.409 . S
C1743 C1742 1.362 . S
H1744 C1750 0.930 . S
H1745 C1753 0.930 . S
H1746 C1754 0.930 . S
H1747 C1755 0.930 . S
H1748 C1758 0.930 . S
H1749 C1759 0.930 . S
C1750 H1744 0.930 . S
C1750 C1751 1.355 . S
C1750 C1752 1.415 . S
C1751 C1750 1.355 . S
C1751 C1753 1.419 . S
C1752 C1750 1.415 . S
C1752 C1757 1.425 . S
C1752 C1759 1.409 . S
C1753 H1745 0.930 . S
C1753 C1751 1.419 . S
C1753 C1754 1.362 . S
C1754 H1746 0.930 . S
C1754 C1753 1.362 . S
C1754 C1757 1.409 . S
C1755 H1747 0.930 . S
C1755 C1756 1.355 . S
C1755 C1757 1.415 . S
C1756 C1755 1.355 . S
C1756 C1758 1.419 . S
C1757 C1752 1.425 . S
C1757 C1754 1.409 . S
C1757 C1755 1.415 . S
C1758 H1748 0.930 . S
C1758 C1756 1.419 . S
C1758 C1759 1.362 . S
C1759 H1749 0.930 . S
C1759 C1752 1.409 . S
C1759 C1758 1.362 . S
H1760 C1766 0.930 . S
H1761 C1769 0.930 . S
H1762 C1770 0.930 . S
H1763 C1771 0.930 . S
H1764 C1774 0.930 . S
H1765 C1775 0.930 . S
C1766 H1760 0.930 . S
C1766 C1767 1.355 . S
C1766 C1768 1.415 . S
C1767 C1766 1.355 . S
C1767 C1769 1.419 . S
C1768 C1766 1.415 . S
C1768 C1773 1.425 . S
C1768 C1775 1.409 . S
C1769 H1761 0.930 . S
C1769 C1767 1.419 . S
C1769 C1770 1.362 . S
C1770 H1762 0.930 . S
C1770 C1769 1.362 . S
C1770 C1773 1.409 . S
C1771 H1763 0.930 . S
C1771 C1772 1.355 . S
C1771 C1773 1.415 . S
C1772 C1771 1.355 . S
C1772 C1774 1.419 . S
C1773 C1768 1.425 . S
C1773 C1770 1.409 . S
C1773 C1771 1.415 . S
C1774 H1764 0.930 . S
C1774 C1772 1.419 . S
C1774 C1775 1.362 . S
C1775 H1765 0.930 . S
C1775 C1768 1.409 . S
C1775 C1774 1.362 . S
H1776 C1782 0.930 . S
H1777 C1785 0.930 . S
H1778 C1786 0.930 . S
H1779 C1787 0.930 . S
H1780 C1790 0.930 . S
H1781 C1791 0.930 . S
C1782 H1776 0.930 . S
C1782 C1783 1.355 . S
C1782 C1784 1.415 . S
C1783 C1782 1.355 . S
C1783 C1785 1.419 . S
C1784 C1782 1.415 . S
C1784 C1789 1.425 . S
C1784 C1791 1.409 . S
C1785 H1777 0.930 . S
C1785 C1783 1.419 . S
C1785 C1786 1.362 . S
C1786 H1778 0.930 . S
C1786 C1785 1.362 . S
C1786 C1789 1.409 . S
C1787 H1779 0.930 . S
C1787 C1788 1.355 . S
C1787 C1789 1.415 . S
C1788 C1787 1.355 . S
C1788 C1790 1.419 . S
C1789 C1784 1.425 . S
C1789 C1786 1.409 . S
C1789 C1787 1.415 . S
C1790 H1780 0.930 . S
C1790 C1788 1.419 . S
C1790 C1791 1.362 . S
C1791 H1781 0.930 . S
C1791 C1784 1.409 . S
C1791 C1790 1.362 . S
H1792 C1798 0.930 . S
H1793 C1801 0.930 . S
H1794 C1802 0.930 . S
H1795 C1803 0.930 . S
H1796 C1806 0.930 . S
H1797 C1807 0.930 . S
C1798 H1792 0.930 . S
C1798 C1799 1.355 . S
C1798 C1800 1.415 . S
C1799 C1798 1.355 . S
C1799 C1801 1.419 . S
C1800 C1798 1.415 . S
C1800 C1805 1.425 . S
C1800 C1807 1.409 . S
C1801 H1793 0.930 . S
C1801 C1799 1.419 . S
C1801 C1802 1.362 . S
C1802 H1794 0.930 . S
C1802 C1801 1.362 . S
C1802 C1805 1.409 . S
C1803 H1795 0.930 . S
C1803 C1804 1.355 . S
C1803 C1805 1.415 . S
C1804 C1803 1.355 . S
C1804 C1806 1.419 . S
C1805 C1800 1.425 . S
C1805 C1802 1.409 . S
C1805 C1803 1.415 . S
C1806 H1796 0.930 . S
C1806 C1804 1.419 . S
C1806 C1807 1.362 . S
C1807 H1797 0.930 . S
C1807 C1800 1.409 . S
C1807 C1806 1.362 . S
H1808 C1814 0.930 . S
H1809 C1817 0.930 . S
H1810 C1818 0.930 . S
H1811 C1819 0.930 . S
H1812 C1822 0.930 . S
H1813 C1823 0.930 . S
C1814 H1808 0.930 . S
C1814 C1815 1.355 . S
C1814 C1816 1.415 . S
C1815 C1814 1.355 . S
C1815 C1817 1.419 . S
C1816 C1814 1.415 . S
C1816 C1821 1.425 . S
C1816 C1823 1.409 . S
C1817 H1809 0.930 . S
C1817 C1815 1.419 . S
C1817 C1818 1.362 . S
C1818 H1810 0.930 . S
C1818 C1817 1.362 . S
C1818 C1821 1.409 . S
C1819 H1811 0.930 . S
C1819 C1820 1.355 . S
C1819 C1821 1.415 . S
C1820 C1819 1.355 . S
C1820 C1822 1.419 . S
C1821 C1816 1.425 . S
C1821 C1818 1.409 . S
C1821 C1819 1.415 . S
C1822 H1812 0.930 . S
C1822 C1820 1.419 . S
C1822 C1823 1.362 . S
C1823 H1813 0.930 . S
C1823 C1816 1.409 . S
C1823 C1822 1.362 . S
H1824 C1830 0.930 . S
H1825 C1833 0.930 . S
H1826 C1834 0.930 . S
H1827 C1835 0.930 . S
H1828 C1838 0.930 . S
H1829 C1839 0.930 . S
C1830 H1824 0.930 . S
C1830 C1831 1.355 . S
C1830 C1832 1.415 . S
C1831 C1830 1.355 . S
C1831 C1833 1.419 . S
C1832 C1830 1.415 . S
C1832 C1837 1.425 . S
C1832 C1839 1.409 . S
C1833 H1825 0.930 . S
C1833 C1831 1.419 . S
C1833 C1834 1.362 . S
C1834 H1826 0.930 . S
C1834 C1833 1.362 . S
C1834 C1837 1.409 . S
C1835 H1827 0.930 . S
C1835 C1836 1.355 . S
C1835 C1837 1.415 . S
C1836 C1835 1.355 . S
C1836 C1838 1.419 . S
C1837 C1832 1.425 . S
C1837 C1834 1.409 . S
C1837 C1835 1.415 . S
C1838 H1828 0.930 . S
C1838 C1836 1.419 . S
C1838 C1839 1.362 . S
C1839 H1829 0.930 . S
C1839 C1832 1.409 . S
C1839 C1838 1.362 . S
H1840 C1846 0.930 . S
H1841 C1849 0.930 . S
H1842 C1850 0.930 . S
H1843 C1851 0.930 . S
H1844 C1854 0.930 . S
H1845 C1855 0.930 . S
C1846 H1840 0.930 . S
C1846 C1847 1.355 . S
C1846 C1848 1.415 . S
C1847 C1846 1.355 . S
C1847 C1849 1.419 . S
C1848 C1846 1.415 . S
C1848 C1853 1.425 . S
C1848 C1855 1.409 . S
C1849 H1841 0.930 . S
C1849 C1847 1.419 . S
C1849 C1850 1.362 . S
C1850 H1842 0.930 . S
C1850 C1849 1.362 . S
C1850 C1853 1.409 . S
C1851 H1843 0.930 . S
C1851 C1852 1.355 . S
C1851 C1853 1.415 . S
C1852 C1851 1.355 . S
C1852 C1854 1.419 . S
C1853 C1848 1.425 . S
C1853 C1850 1.409 . S
C1853 C1851 1.415 . S
C1854 H1844 0.930 . S
C1854 C1852 1.419 . S
C1854 C1855 1.362 . S
C1855 H1845 0.930 . S
C1855 C1848 1.409 . S
C1855 C1854 1.362 . S
H1856 C1862 0.917 1_554 S
H1857 C1865 0.930 . S
H1858 C1866 0.930 . S
H1859 C1867 0.930 . S
H1860 C1870 0.930 1_554 S
H1861 C1871 0.930 . S
C1862 H1856 0.917 1_556 S
C1862 C1863 1.362 . S
C1862 C1864 1.420 . S
C1863 C1862 1.362 . S
C1863 C1865 1.419 . S
C1864 C1862 1.420 . S
C1864 C1869 1.425 . S
C1864 C1871 1.409 1_556 S
C1865 H1857 0.930 . S
C1865 C1863 1.419 . S
C1865 C1866 1.362 . S
C1866 H1858 0.930 . S
C1866 C1865 1.362 . S
C1866 C1869 1.409 . S
C1867 H1859 0.930 . S
C1867 C1868 1.355 . S
C1867 C1869 1.415 . S
C1868 C1867 1.355 . S
C1868 C1870 1.419 . S
C1869 C1864 1.425 . S
C1869 C1866 1.409 . S
C1869 C1867 1.415 . S
C1870 H1860 0.930 1_556 S
C1870 C1868 1.419 . S
C1870 C1871 1.362 1_556 S
C1871 H1861 0.930 . S
C1871 C1864 1.409 1_554 S
C1871 C1870 1.362 1_554 S
H1872 C1878 0.930 . S
H1873 C1881 0.930 . S
H1874 C1882 0.930 . S
H1875 C1883 0.930 . S
H1876 C1886 0.930 . S
H1877 C1887 0.930 . S
C1878 H1872 0.930 . S
C1878 C1879 1.355 1_554 S
C1878 C1880 1.415 . S
C1879 C1878 1.355 1_556 S
C1879 C1881 1.419 . S
C1880 C1878 1.415 . S
C1880 C1885 1.425 . S
C1880 C1887 1.409 . S
C1881 H1873 0.930 . S
C1881 C1879 1.419 . S
C1881 C1882 1.362 . S
C1882 H1874 0.930 . S
C1882 C1881 1.362 . S
C1882 C1885 1.409 1_556 S
C1883 H1875 0.930 . S
C1883 C1884 1.355 . S
C1883 C1885 1.415 . S
C1884 C1883 1.355 . S
C1884 C1886 1.419 . S
C1885 C1880 1.425 . S
C1885 C1882 1.409 1_554 S
C1885 C1883 1.415 . S
C1886 H1876 0.930 . S
C1886 C1884 1.419 . S
C1886 C1887 1.362 . S
C1887 H1877 0.930 . S
C1887 C1880 1.409 . S
C1887 C1886 1.362 . S
H1888 C1894 0.930 . S
H1889 C1897 0.930 . S
H1890 C1898 0.930 . S
H1891 C1899 0.930 . S
H1892 C1902 0.930 . S
H1893 C1903 0.930 . S
C1894 H1888 0.930 . S
C1894 C1895 1.355 . S
C1894 C1896 1.415 . S
C1895 C1894 1.355 . S
C1895 C1897 1.419 . S
C1896 C1894 1.415 . S
C1896 C1901 1.425 . S
C1896 C1903 1.409 . S
C1897 H1889 0.930 . S
C1897 C1895 1.419 . S
C1897 C1898 1.362 . S
C1898 H1890 0.930 . S
C1898 C1897 1.362 . S
C1898 C1901 1.409 . S
C1899 H1891 0.930 . S
C1899 C1900 1.355 . S
C1899 C1901 1.415 . S
C1900 C1899 1.355 . S
C1900 C1902 1.419 . S
C1901 C1896 1.425 . S
C1901 C1898 1.409 . S
C1901 C1899 1.415 . S
C1902 H1892 0.930 . S
C1902 C1900 1.419 . S
C1902 C1903 1.362 . S
C1903 H1893 0.930 . S
C1903 C1896 1.409 . S
C1903 C1902 1.362 . S
H1904 C1910 0.930 . S
H1905 C1913 0.930 . S
H1906 C1914 0.930 . S
H1907 C1915 0.930 . S
H1908 C1918 0.930 . S
H1909 C1919 0.930 . S
C1910 H1904 0.930 . S
C1910 C1911 1.355 . S
C1910 C1912 1.415 . S
C1911 C1910 1.355 . S
C1911 C1913 1.419 . S
C1912 C1910 1.415 . S
C1912 C1917 1.425 . S
C1912 C1919 1.409 . S
C1913 H1905 0.930 . S
C1913 C1911 1.419 . S
C1913 C1914 1.362 . S
C1914 H1906 0.930 . S
C1914 C1913 1.362 . S
C1914 C1917 1.409 . S
C1915 H1907 0.930 . S
C1915 C1916 1.355 . S
C1915 C1917 1.415 . S
C1916 C1915 1.355 . S
C1916 C1918 1.419 . S
C1917 C1912 1.425 . S
C1917 C1914 1.409 . S
C1917 C1915 1.415 . S
C1918 H1908 0.930 . S
C1918 C1916 1.419 . S
C1918 C1919 1.362 . S
C1919 H1909 0.930 . S
C1919 C1912 1.409 . S
C1919 C1918 1.362 . S
H1920 C1926 0.930 . S
H1921 C1929 0.930 . S
H1922 C1930 0.930 . S
H1923 C1931 0.930 . S
H1924 C1934 0.930 . S
H1925 C1935 0.930 . S
C1926 H1920 0.930 . S
C1926 C1927 1.355 . S
C1926 C1928 1.415 . S
C1927 C1926 1.355 . S
C1927 C1929 1.419 . S
C1928 C1926 1.415 . S
C1928 C1933 1.425 . S
C1928 C1935 1.409 . S
C1929 H1921 0.930 . S
C1929 C1927 1.419 . S
C1929 C1930 1.362 . S
C1930 H1922 0.930 . S
C1930 C1929 1.362 . S
C1930 C1933 1.409 . S
C1931 H1923 0.930 . S
C1931 C1932 1.355 . S
C1931 C1933 1.415 . S
C1932 C1931 1.355 . S
C1932 C1934 1.419 . S
C1933 C1928 1.425 . S
C1933 C1930 1.409 . S
C1933 C1931 1.415 . S
C1934 H1924 0.930 . S
C1934 C1932 1.419 . S
C1934 C1935 1.362 . S
C1935 H1925 0.930 . S
C1935 C1928 1.409 . S
C1935 C1934 1.362 . S
H1936 C1942 0.930 . S
H1937 C1945 0.930 . S
H1938 C1946 0.930 . S
H1939 C1947 0.930 . S
H1940 C1950 0.930 . S
H1941 C1951 0.930 . S
C1942 H1936 0.930 . S
C1942 C1943 1.355 . S
C1942 C1944 1.415 . S
C1943 C1942 1.355 . S
C1943 C1945 1.419 . S
C1944 C1942 1.415 . S
C1944 C1949 1.425 . S
C1944 C1951 1.409 . S
C1945 H1937 0.930 . S
C1945 C1943 1.419 . S
C1945 C1946 1.362 . S
C1946 H1938 0.930 . S
C1946 C1945 1.362 . S
C1946 C1949 1.409 . S
C1947 H1939 0.930 . S
C1947 C1948 1.355 . S
C1947 C1949 1.415 . S
C1948 C1947 1.355 . S
C1948 C1950 1.419 . S
C1949 C1944 1.425 . S
C1949 C1946 1.409 . S
C1949 C1947 1.415 . S
C1950 H1940 0.930 . S
C1950 C1948 1.419 . S
C1950 C1951 1.362 . S
C1951 H1941 0.930 . S
C1951 C1944 1.409 . S
C1951 C1950 1.362 . S
H1952 C1958 0.930 . S
H1953 C1961 0.930 . S
H1954 C1962 0.930 . S
H1955 C1963 0.930 . S
H1956 C1966 0.930 . S
H1957 C1967 0.930 . S
C1958 H1952 0.930 . S
C1958 C1959 1.355 . S
C1958 C1960 1.415 . S
C1959 C1958 1.355 . S
C1959 C1961 1.419 . S
C1960 C1958 1.415 . S
C1960 C1965 1.425 . S
C1960 C1967 1.409 . S
C1961 H1953 0.930 . S
C1961 C1959 1.419 . S
C1961 C1962 1.362 . S
C1962 H1954 0.930 . S
C1962 C1961 1.362 . S
C1962 C1965 1.409 . S
C1963 H1955 0.930 . S
C1963 C1964 1.355 . S
C1963 C1965 1.415 . S
C1964 C1963 1.355 . S
C1964 C1966 1.419 . S
C1965 C1960 1.425 . S
C1965 C1962 1.409 . S
C1965 C1963 1.415 . S
C1966 H1956 0.930 . S
C1966 C1964 1.419 . S
C1966 C1967 1.362 . S
C1967 H1957 0.930 . S
C1967 C1960 1.409 . S
C1967 C1966 1.362 . S
H1968 C1974 0.930 . S
H1969 C1977 0.930 . S
H1970 C1978 0.930 . S
H1971 C1979 0.930 . S
H1972 C1982 0.930 . S
H1973 C1983 0.930 . S
C1974 H1968 0.930 . S
C1974 C1975 1.355 . S
C1974 C1976 1.415 . S
C1975 C1974 1.355 . S
C1975 C1977 1.419 . S
C1976 C1974 1.415 . S
C1976 C1981 1.425 . S
C1976 C1983 1.409 . S
C1977 H1969 0.930 . S
C1977 C1975 1.419 . S
C1977 C1978 1.362 . S
C1978 H1970 0.930 . S
C1978 C1977 1.362 . S
C1978 C1981 1.409 . S
C1979 H1971 0.930 . S
C1979 C1980 1.355 . S
C1979 C1981 1.415 . S
C1980 C1979 1.355 . S
C1980 C1982 1.419 . S
C1981 C1976 1.425 . S
C1981 C1978 1.409 . S
C1981 C1979 1.415 . S
C1982 H1972 0.930 . S
C1982 C1980 1.419 . S
C1982 C1983 1.362 . S
C1983 H1973 0.930 . S
C1983 C1976 1.409 . S
C1983 C1982 1.362 . S
H1984 C1990 0.930 . S
H1985 C1993 0.930 . S
H1986 C1994 0.930 . S
H1987 C1995 0.930 . S
H1988 C1998 0.930 . S
H1989 C1999 0.930 . S
C1990 H1984 0.930 . S
C1990 C1991 1.355 . S
C1990 C1992 1.415 . S
C1991 C1990 1.355 . S
C1991 C1993 1.419 . S
C1992 C1990 1.415 . S
C1992 C1997 1.425 . S
C1992 C1999 1.409 . S
C1993 H1985 0.930 . S
C1993 C1991 1.419 . S
C1993 C1994 1.362 . S
C1994 H1986 0.930 . S
C1994 C1993 1.362 . S
C1994 C1997 1.409 . S
C1995 H1987 0.930 . S
C1995 C1996 1.355 . S
C1995 C1997 1.415 . S
C1996 C1995 1.355 . S
C1996 C1998 1.419 . S
C1997 C1992 1.425 . S
C1997 C1994 1.409 . S
C1997 C1995 1.415 . S
C1998 H1988 0.930 . S
C1998 C1996 1.419 . S
C1998 C1999 1.362 . S
C1999 H1989 0.930 . S
C1999 C1992 1.409 . S
C1999 C1998 1.362 . S
H2000 C2006 0.930 . S
H2001 C2009 0.930 . S
H2002 C2010 0.930 . S
H2003 C2011 0.930 . S
H2004 C2014 0.930 . S
H2005 C2015 0.930 . S
C2006 H2000 0.930 . S
C2006 C2007 1.355 . S
C2006 C2008 1.415 . S
C2007 C2006 1.355 . S
C2007 C2009 1.419 . S
C2008 C2006 1.415 . S
C2008 C2013 1.425 . S
C2008 C2015 1.409 . S
C2009 H2001 0.930 . S
C2009 C2007 1.419 . S
C2009 C2010 1.362 . S
C2010 H2002 0.930 . S
C2010 C2009 1.362 . S
C2010 C2013 1.409 . S
C2011 H2003 0.930 . S
C2011 C2012 1.355 . S
C2011 C2013 1.415 . S
C2012 C2011 1.355 . S
C2012 C2014 1.419 . S
C2013 C2008 1.425 . S
C2013 C2010 1.409 . S
C2013 C2011 1.415 . S
C2014 H2004 0.930 . S
C2014 C2012 1.419 . S
C2014 C2015 1.362 . S
C2015 H2005 0.930 . S
C2015 C2008 1.409 . S
C2015 C2014 1.362 . S
H2016 C2022 0.930 . S
H2017 C2025 0.930 . S
H2018 C2026 0.930 . S
H2019 C2027 0.930 . S
H2020 C2030 0.930 . S
H2021 C2031 0.930 . S
C2022 H2016 0.930 . S
C2022 C2023 1.355 . S
C2022 C2024 1.415 . S
C2023 C2022 1.355 . S
C2023 C2025 1.419 . S
C2024 C2022 1.415 . S
C2024 C2029 1.425 . S
C2024 C2031 1.409 . S
C2025 H2017 0.930 . S
C2025 C2023 1.419 . S
C2025 C2026 1.362 . S
C2026 H2018 0.930 . S
C2026 C2025 1.362 . S
C2026 C2029 1.409 . S
C2027 H2019 0.930 . S
C2027 C2028 1.355 . S
C2027 C2029 1.415 . S
C2028 C2027 1.355 . S
C2028 C2030 1.419 . S
C2029 C2024 1.425 . S
C2029 C2026 1.409 . S
C2029 C2027 1.415 . S
C2030 H2020 0.930 . S
C2030 C2028 1.419 . S
C2030 C2031 1.362 . S
C2031 H2021 0.930 . S
C2031 C2024 1.409 . S
C2031 C2030 1.362 . S
H2032 C2038 0.930 . S
H2033 C2041 0.930 . S
H2034 C2042 0.930 . S
H2035 C2043 0.930 . S
H2036 C2046 0.930 . S
H2037 C2047 0.930 . S
C2038 H2032 0.930 . S
C2038 C2039 1.355 . S
C2038 C2040 1.415 . S
C2039 C2038 1.355 . S
C2039 C2041 1.419 . S
C2040 C2038 1.415 . S
C2040 C2045 1.425 . S
C2040 C2047 1.409 . S
C2041 H2033 0.930 . S
C2041 C2039 1.419 . S
C2041 C2042 1.362 . S
C2042 H2034 0.930 . S
C2042 C2041 1.362 . S
C2042 C2045 1.409 . S
C2043 H2035 0.930 . S
C2043 C2044 1.355 . S
C2043 C2045 1.415 . S
C2044 C2043 1.355 . S
C2044 C2046 1.419 . S
C2045 C2040 1.425 . S
C2045 C2042 1.409 . S
C2045 C2043 1.415 . S
C2046 H2036 0.930 . S
C2046 C2044 1.419 . S
C2046 C2047 1.362 . S
C2047 H2037 0.930 . S
C2047 C2040 1.409 . S
C2047 C2046 1.362 . S
H2048 C2054 0.930 . S
H2049 C2057 0.930 1_556 S
H2050 C2058 0.930 1_556 S
H2051 C2059 0.930 . S
H2052 C2062 0.930 . S
H2053 C2063 0.930 . S
C2054 H2048 0.930 . S
C2054 C2055 1.355 . S
C2054 C2056 1.415 . S
C2055 C2054 1.355 . S
C2055 C2057 1.419 . S
C2056 C2054 1.415 . S
C2056 C2061 1.425 . S
C2056 C2063 1.409 . S
C2057 H2049 0.930 1_554 S
C2057 C2055 1.419 . S
C2057 C2058 1.362 . S
C2058 H2050 0.930 1_554 S
C2058 C2057 1.362 . S
C2058 C2061 1.409 . S
C2059 H2051 0.930 . S
C2059 C2060 1.355 . S
C2059 C2061 1.415 . S
C2060 C2059 1.355 . S
C2060 C2062 1.419 . S
C2061 C2056 1.425 . S
C2061 C2058 1.409 . S
C2061 C2059 1.415 . S
C2062 H2052 0.930 . S
C2062 C2060 1.419 . S
C2062 C2063 1.362 . S
C2063 H2053 0.930 . S
C2063 C2056 1.409 . S
C2063 C2062 1.362 . S
H2064 C2070 0.930 . S
H2065 C2073 0.930 . S
H2066 C2074 0.930 . S
H2067 C2075 0.930 . S
H2068 C2078 0.930 . S
H2069 C2079 0.930 . S
C2070 H2064 0.930 . S
C2070 C2071 1.355 . S
C2070 C2072 1.415 . S
C2071 C2070 1.355 . S
C2071 C2073 1.419 . S
C2072 C2070 1.415 . S
C2072 C2077 1.425 . S
C2072 C2079 1.409 1_556 S
C2073 H2065 0.930 . S
C2073 C2071 1.419 . S
C2073 C2074 1.362 . S
C2074 H2066 0.930 . S
C2074 C2073 1.362 . S
C2074 C2077 1.409 . S
C2075 H2067 0.930 . S
C2075 C2076 1.341 1_556 S
C2075 C2077 1.429 . S
C2076 C2075 1.341 1_554 S
C2076 C2078 1.419 . S
C2077 C2072 1.425 . S
C2077 C2074 1.409 . S
C2077 C2075 1.429 . S
C2078 H2068 0.930 . S
C2078 C2076 1.419 . S
C2078 C2079 1.362 . S
C2079 H2069 0.930 . S
C2079 C2072 1.409 1_554 S
C2079 C2078 1.362 . S
H2080 C2086 0.930 . S
H2081 C2089 0.930 . S
H2082 C2090 0.930 . S
H2083 C2091 0.930 . S
H2084 C2094 0.930 . S
H2085 C2095 0.930 . S
C2086 H2080 0.930 . S
C2086 C2087 1.355 . S
C2086 C2088 1.415 . S
C2087 C2086 1.355 . S
C2087 C2089 1.419 . S
C2088 C2086 1.415 . S
C2088 C2093 1.425 . S
C2088 C2095 1.409 . S
C2089 H2081 0.930 . S
C2089 C2087 1.419 . S
C2089 C2090 1.362 . S
C2090 H2082 0.930 . S
C2090 C2089 1.362 . S
C2090 C2093 1.409 . S
C2091 H2083 0.930 . S
C2091 C2092 1.355 . S
C2091 C2093 1.415 . S
C2092 C2091 1.355 . S
C2092 C2094 1.419 . S
C2093 C2088 1.425 . S
C2093 C2090 1.409 . S
C2093 C2091 1.415 . S
C2094 H2084 0.930 . S
C2094 C2092 1.419 . S
C2094 C2095 1.362 . S
C2095 H2085 0.930 . S
C2095 C2088 1.409 . S
C2095 C2094 1.362 . S
H2096 C2102 0.930 . S
H2097 C2105 0.930 . S
H2098 C2106 0.930 . S
H2099 C2107 0.930 . S
H2100 C2110 0.930 . S
H2101 C2111 0.930 . S
C2102 H2096 0.930 . S
C2102 C2103 1.355 . S
C2102 C2104 1.415 . S
C2103 C2102 1.355 . S
C2103 C2105 1.419 . S
C2104 C2102 1.415 . S
C2104 C2109 1.425 . S
C2104 C2111 1.409 . S
C2105 H2097 0.930 . S
C2105 C2103 1.419 . S
C2105 C2106 1.362 . S
C2106 H2098 0.930 . S
C2106 C2105 1.362 . S
C2106 C2109 1.409 . S
C2107 H2099 0.930 . S
C2107 C2108 1.355 . S
C2107 C2109 1.415 . S
C2108 C2107 1.355 . S
C2108 C2110 1.419 . S
C2109 C2104 1.425 . S
C2109 C2106 1.409 . S
C2109 C2107 1.415 . S
C2110 H2100 0.930 . S
C2110 C2108 1.419 . S
C2110 C2111 1.362 . S
C2111 H2101 0.930 . S
C2111 C2104 1.409 . S
C2111 C2110 1.362 . S
C967 C23 0.478 . S
C972 C745 0.208 . S
C983 C780 2.806 . S
C988 C63 2.613 . S
C999 C103 1.948 . S
C1004 C660 2.088 . S
C1015 C143 2.112 . S
C1020 C700 2.260 . S
C1031 C900 3.067 . S
C1036 C183 2.933 . S
C1047 C223 0.720 . S
C1052 C865 0.677 . S
C1063 C945 0.926 . S
C1068 C242 0.926 . S
C1079 C303 2.090 . S
C1084 C820 2.335 . S
C1095 C343 1.776 . S
C1100 C540 1.892 . S
C1111 C362 2.251 . S
C1116 C620 2.271 . S
C1127 C580 1.415 . S
C1132 C423 1.231 . S
C1143 C442 2.485 . S
C1148 C500 2.442 . S
C1159 C482 0.276 . S
C1164 C244 0.457 . S
C1175 C522 2.641 . S
C1180 C311 2.820 . S
C1191 C562 1.962 . S
C1196 C191 2.081 . S
C1207 C231 2.262 . S
C1212 C602 2.071 . S
C1223 C642 2.942 . S
C1228 C431 3.057 . S
C1239 C364 0.724 . S
C1244 C682 0.765 . S
C1255 C444 0.935 . S
C1260 C743 0.931 . S
C1271 C351 2.315 . S
C1276 C762 2.067 . S
C1287 C71 1.904 . S
C1292 C802 1.742 . S
C1303 C151 2.258 . S
C1308 C863 2.269 . S
C1319 C111 1.416 . S
C1324 C882 1.301 . S
C1335 C943 2.488 . S
C1340 C31 2.445 . S
C1351 C180 1.064 . S
C1356 C4 1.067 . S
C1367 C220 1.710 . S
C1372 C44 1.687 . S
C1383 C265 0.735 . S
C1388 C84 0.727 . S
C1399 C300 1.812 . S
C1404 C124 1.813 . S
C1415 C164 1.474 . S
C1420 C340 1.462 . S
C1431 C204 0.562 . S
C1436 C465 0.549 . S
C1447 C271 1.126 . S
C1452 C385 1.127 . S
C1463 C284 1.938 . S
C1468 C420 1.931 . S
C1479 C324 1.634 . S
C1484 C20 1.648 . S
C1495 C391 2.993 . S
C1500 C100 3.024 . S
C1511 C404 1.534 . S
C1516 C140 1.549 . S
C1527 C60 2.519 . S
C1532 C471 2.472 . S
C1543 C671 1.078 . S
C1548 C505 1.070 . S
C1559 C711 1.724 . S
C1564 C545 1.699 . S
C1575 C585 0.584 . S
C1580 C724 0.592 . S
C1591 C625 1.812 . S
C1596 C791 1.807 . S
C1607 C831 1.481 . S
C1612 C665 1.484 . S
C1623 C705 0.509 . S
C1628 C924 0.506 . S
C1639 C844 1.156 . S
C1644 C740 1.146 . S
C1655 C785 1.939 . S
C1660 C911 1.938 . S
C1671 C511 1.636 . S
C1676 C825 1.603 . S
C1687 C860 2.976 . S
C1692 C591 3.025 . S
C1703 C905 1.556 . S
C1708 C631 1.547 . S
C1719 C551 2.518 . S
C1724 C940 2.469 . S
C1735 C2 3.294 . S
C1740 C380 3.353 1_554 S
C1751 C425 1.721 . S
C1756 C42 1.716 . S
C1767 C345 1.835 . S
C1772 C82 1.828 . S
C1783 C460 2.898 . S
C1788 C122 2.852 . S
C1799 C162 1.395 . S
C1804 C145 1.425 . S
C1815 C105 1.722 . S
C1820 C202 1.715 . S
C1831 C263 1.080 . S
C1836 C65 1.271 . S
C1847 C25 1.164 . S
C1852 C282 1.166 . S
C1863 C322 1.412 1_556 S
C1868 C225 1.447 . S
C1879 C383 1.601 . S
C1884 C305 1.791 . S
C1895 C402 2.437 . S
C1900 C260 2.511 . S
C1911 C463 1.726 . S
C1916 C185 1.866 . S
C1927 C503 3.269 . S
C1932 C871 3.340 1_556 S
C1943 C543 1.702 . S
C1948 C884 1.695 . S
C1959 C804 1.861 . S
C1964 C583 1.854 . S
C1975 C951 2.891 . S
C1980 C623 2.832 . S
C1991 C663 1.384 . S
C1996 C604 1.417 . S
C2007 C703 1.673 . S
C2012 C564 1.688 . S
C2023 C524 1.255 . S
C2028 C722 1.065 . S
C2039 C783 1.164 . S
C2044 C484 1.174 . S
C2055 C823 1.384 1_554 S
C2060 C684 1.424 . S
C2071 C764 1.800 . S
C2076 C842 1.685 . S
C2087 C903 2.443 . S
C2092 C751 2.514 . S
C2103 C922 1.738 . S
C2108 C644 1.872 . S
