# Generated by pormake.
# Topology cab, (5)-cn, num edge types: 1
# Building blocks:
#     Node 0, Type 0, BuildingBlock: XOMCOT_clean_sbu_1, # of connection points: 5
#     Node 1, Type 0, BuildingBlock: XOMCOT_clean_sbu_1, # of connection points: 5
#     Node 2, Type 0, BuildingBlock: XOMCOT_clean_sbu_1, # of connection points: 5
#     Node 3, Type 0, BuildingBlock: XOMCOT_clean_sbu_1, # of connection points: 5
#     Node 4, Type 0, BuildingBlock: XOMCOT_clean_sbu_1, # of connection points: 5
#     Node 5, Type 0, BuildingBlock: XOMCOT_clean_sbu_1, # of connection points: 5
#     Edge 6, Type (0, 0), BuildingBlock: OJICUG_clean_linker_0, # of connection points: 2
#     Edge 7, Type (0, 0), BuildingBlock: OJICUG_clean_linker_0, # of connection points: 2
#     Edge 8, Type (0, 0), BuildingBlock: OJICUG_clean_linker_0, # of connection points: 2
#     Edge 9, Type (0, 0), BuildingBlock: OJICUG_clean_linker_0, # of connection points: 2
#     Edge 10, Type (0, 0), BuildingBlock: OJICUG_clean_linker_0, # of connection points: 2
#     Edge 11, Type (0, 0), BuildingBlock: OJICUG_clean_linker_0, # of connection points: 2
#     Edge 12, Type (0, 0), BuildingBlock: OJICUG_clean_linker_0, # of connection points: 2
#     Edge 13, Type (0, 0), BuildingBlock: OJICUG_clean_linker_0, # of connection points: 2
#     Edge 14, Type (0, 0), BuildingBlock: OJICUG_clean_linker_0, # of connection points: 2
#     Edge 15, Type (0, 0), BuildingBlock: OJICUG_clean_linker_0, # of connection points: 2
#     Edge 16, Type (0, 0), BuildingBlock: OJICUG_clean_linker_0, # of connection points: 2
#     Edge 17, Type (0, 0), BuildingBlock: OJICUG_clean_linker_0, # of connection points: 2
#     Edge 18, Type (0, 0), BuildingBlock: OJICUG_clean_linker_0, # of connection points: 2
#     Edge 19, Type (0, 0), BuildingBlock: OJICUG_clean_linker_0, # of connection points: 2
#     Edge 20, Type (0, 0), BuildingBlock: OJICUG_clean_linker_0, # of connection points: 2
# Relax obj value: 0.879
# Max RMSD: 0.216
# Mean RMSD: 0.213
data_MOF--net-cab--node1-XOMCOT_clean_sbu_1--edge1-OJICUG_clean_linker_0
_symmetry_space_group_name_H-M    P1
_symmetry_Int_Tables_number       1
_symmetry_cell_setting            triclinic
loop_
_symmetry_equiv_pos_as_xyz
'x, y, z'
_cell_length_a     28.301643
_cell_length_b     27.424196
_cell_length_c     28.297119
_cell_angle_alpha  78.431624
_cell_angle_beta   66.19967
_cell_angle_gamma 78.402473
loop_
_atom_site_label
_atom_site_type_symbol
_atom_site_fract_x
_atom_site_fract_y
_atom_site_fract_z
_atom_type_partial_charge
C0 C 0.0126 0.94209 0.49242 0.0
C1 C 0.03874 0.89386 0.48836 0.0
N2 N 0.07095 0.89161 0.43822 0.0
N3 N 0.02818 0.96958 0.44494 0.0
C4 C 0.06359 0.93789 0.41295 0.0
H5 H 0.9823 0.95552 0.52703 0.0
Co6 Co 5e-05 0.03321 0.42427 0.0
C7 C 0.0962 0.07832 0.35367 0.0
O8 O 0.07903 0.11948 0.37605 0.0
N9 N 0.96905 0.09649 0.40241 0.0
C10 C 0.90555 0.15636 0.39408 0.0
C11 C 0.91915 0.11684 0.42661 0.0
C12 C -0.01642 0.12267 0.35398 0.0
N13 N 0.9462 0.15972 0.34828 0.0
O14 O 0.98146 0.00698 0.37888 0.0
H15 H 0.89234 0.10116 0.46361 0.0
H16 H 0.01952 0.11296 0.32217 0.0
O17 O 0.06778 0.04309 0.36841 0.0
C18 C 0.93374 1.00109 0.39768 0.0
O19 O 0.90995 0.99441 0.44867 0.0
N20 N 0.0171 0.05981 0.47081 0.0
C21 C 0.0423 0.10811 0.53333 0.0
C22 C 0.07999 0.07468 0.50107 0.0
C23 C 0.06636 0.05024 0.47078 0.0
C24 C 0.97892 0.0878 0.50612 0.0
C25 C -0.00915 0.11345 0.53674 0.0
H26 H 0.09584 0.02452 0.44624 0.0
H27 H 0.93888 0.09037 0.51118 0.0
H28 H 0.08051 0.9474 0.37105 0.0
H29 H 0.0328 0.86245 0.51924 0.0
H30 H 0.86764 0.17868 0.40228 0.0
H31 H 0.11957 0.0669 0.49965 0.0
H32 H 0.96001 0.1372 0.56274 0.0
C33 C 0.06265 0.04275 0.82474 0.0
C34 C 0.0147 0.03585 0.86352 0.0
N35 N 0.01256 0.05128 0.90677 0.0
N36 N 0.09032 0.06246 0.84365 0.0
C37 C 0.05876 0.0674 0.89351 0.0
H38 H 0.07738 0.03183 0.78614 0.0
Co39 Co 0.16057 0.06946 0.81309 0.0
C40 C 0.16161 0.16977 0.83644 0.0
O41 O 0.19078 0.18288 0.7876 0.0
N42 N 0.23333 0.0754 0.78244 0.0
C43 C 0.31211 0.09924 0.73521 0.0
C44 C 0.26161 0.1038 0.73861 0.0
C45 C 0.26855 0.05314 0.80386 0.0
N46 N 0.3162 0.06682 0.77603 0.0
O47 O 0.16923 0.02371 0.86999 0.0
H48 H 0.24642 0.12924 0.71208 0.0
H49 H 0.25934 0.02978 0.84117 0.0
O50 O 0.14747 0.12599 0.85116 0.0
C51 C 0.17162 0.97849 0.86358 0.0
O52 O 0.17518 0.96971 0.81818 0.0
N53 N 0.14897 0.11014 0.75696 0.0
C54 C 0.11802 0.14803 0.67403 0.0
C55 C 0.09545 0.17071 0.71967 0.0
C56 C 0.11133 0.15087 0.76114 0.0
C57 C 0.17108 0.08788 0.71276 0.0
C58 C 0.15745 0.10721 0.67017 0.0
H59 H 0.0902 0.16543 0.79788 0.0
H60 H 0.19775 0.0534 0.71159 0.0
H61 H 0.07097 0.07901 0.92074 0.0
H62 H -0.01549 0.01926 0.86064 0.0
H63 H 0.34267 0.1199 0.70662 0.0
H64 H 0.06334 0.20093 0.72455 0.0
H65 H 0.17401 0.08731 0.63641 0.0
C66 C 0.38642 0.05872 0.15053 0.0
C67 C 0.34751 0.0661 0.19831 0.0
N68 N 0.30426 0.05066 0.20049 0.0
N69 N 0.36758 0.03869 0.12301 0.0
C70 C 0.31764 0.03405 0.1545 0.0
H71 H 0.42505 0.06952 0.13578 0.0
Co72 Co 0.39828 0.03098 0.05292 0.0
C73 C 0.37485 0.93027 0.05323 0.0
O74 O 0.42378 0.91666 0.02468 0.0
N75 N 0.42907 0.02426 0.98032 0.0
C76 C 0.47629 0.99939 0.90197 0.0
C77 C 0.4726 0.99516 0.95254 0.0
C78 C 0.40813 0.04659 0.94472 0.0
N79 N 0.43597 0.03227 0.89733 0.0
O80 O 0.34147 0.07656 0.0438 0.0
H81 H 0.49876 0.96959 0.96812 0.0
H82 H 0.37116 0.07052 0.9535 0.0
O83 O 0.36016 0.97439 0.06656 0.0
C84 C 0.34803 0.1218 0.04111 0.0
O85 O 0.39348 0.13049 0.03745 0.0
N86 N 0.45434 0.99054 0.06491 0.0
C87 C 0.53729 0.95337 0.09597 0.0
C88 C 0.49159 0.93084 0.11904 0.0
C89 C 0.4501 0.95031 0.10308 0.0
C90 C 0.49861 0.01265 0.04231 0.0
C91 C 0.54121 0.99365 0.05599 0.0
H92 H 0.41332 0.93591 0.12449 0.0
H93 H 0.49983 0.0468 0.01518 0.0
H94 H 0.29045 0.02229 0.14235 0.0
H95 H 0.35033 0.08304 0.22832 0.0
H96 H 0.50476 0.97824 0.87174 0.0
H97 H 0.48668 0.90107 0.15155 0.0
H98 H 0.57503 0.01345 0.03901 0.0
C99 C 0.1255 0.35117 0.11164 0.0
C100 C 0.17117 0.32135 0.111 0.0
N101 N 0.17542 0.2795 0.09059 0.0
N102 N 0.10173 0.3284 0.09099 0.0
C103 C 0.13256 0.28454 0.07949 0.0
H104 H 0.11139 0.38772 0.12471 0.0
Co105 Co 0.04207 0.35241 0.07687 0.0
C106 C 0.0693 0.32185 0.97383 0.0
O107 O 0.0518 0.36708 0.95656 0.0
N108 N 0.98031 0.37481 0.06354 0.0
C109 C 0.90051 0.40917 0.06756 0.0
C110 C 0.94625 0.41769 0.06916 0.0
C111 C 0.95441 0.34153 0.05772 0.0
N112 N 0.90595 0.36104 0.06039 0.0
O113 O 0.01054 0.29775 0.12413 0.0
H114 H 0.95153 0.45198 0.07832 0.0
H115 H 0.9689 0.3019 0.05711 0.0
O116 O 0.06793 0.31209 0.02029 0.0
C117 C 0.98037 0.30823 0.16935 0.0
O118 O 0.96964 0.35539 0.17771 0.0
N119 N 0.07456 0.4075 0.03407 0.0
C120 C 0.13651 0.48372 0.00584 0.0
C121 C 0.1551 0.44057 0.98098 0.0
C122 C 0.12324 0.40278 -0.00455 0.0
C123 C 0.05596 0.44997 0.05745 0.0
C124 C 0.08549 0.48923 0.04267 0.0
H125 H 0.14052 0.36748 0.9804 0.0
H126 H 0.02136 0.45077 0.09259 0.0
H127 H 0.12479 0.2575 0.06141 0.0
H128 H 0.19929 0.33011 0.12391 0.0
H129 H 0.86486 0.43522 0.07496 0.0
H130 H 0.19515 0.43431 0.954 0.0
H131 H 0.07098 0.52091 0.06459 0.0
C132 C 0.72016 0.16273 0.19621 0.0
C133 C 0.72451 0.21068 0.16943 0.0
N134 N 0.77474 0.21251 0.13733 0.0
N135 N 0.76754 0.13499 0.18115 0.0
C136 C 0.79976 0.16626 0.1454 0.0
H137 H 0.68541 0.14969 0.2266 0.0
Co138 Co 0.78794 0.07167 0.21012 0.0
C139 C 0.85848 0.02541 0.1145 0.0
O140 O 0.83593 0.98437 0.13193 0.0
N141 N 0.80953 0.00873 0.24192 0.0
C142 C 0.81747 0.94938 0.30596 0.0
C143 C 0.78528 0.98907 0.29206 0.0
C144 C 0.8577 0.98199 0.22752 0.0
N145 N 0.86314 0.94523 0.26523 0.0
O146 O 0.83343 0.09828 0.22822 0.0
H147 H 0.74846 0.00528 0.31873 0.0
H148 H 0.88953 0.99102 0.19137 0.0
O149 O 0.8438 0.06091 0.14262 0.0
C150 C 0.81441 0.10511 0.2757 0.0
O151 O 0.76339 0.11254 0.29905 0.0
N152 N 0.74126 0.04471 0.19367 0.0
C153 C 0.67836 0.99568 0.1698 0.0
C154 C 0.71078 0.02856 0.13147 0.0
C155 C 0.74126 0.05339 0.14444 0.0
C156 C 0.70577 0.01735 0.23239 0.0
C157 C 0.67496 0.99132 0.22116 0.0
H158 H 0.76593 0.0787 0.11449 0.0
H159 H 0.70073 0.01556 0.27234 0.0
H160 H 0.84165 0.15653 0.12874 0.0
H161 H 0.69377 0.24222 0.17488 0.0
H162 H 0.80915 0.92742 0.34405 0.0
H163 H 0.71219 0.03559 0.0919 0.0
H164 H 0.64885 0.96805 0.25245 0.0
C165 C 0.09968 0.75017 0.08699 0.0
C166 C 0.1009 0.77968 0.04101 0.0
N167 N 0.12143 0.82146 0.03668 0.0
N168 N 0.12007 0.77306 0.1109 0.0
C169 C 0.13205 0.81667 0.07981 0.0
H170 H 0.08631 0.71377 0.10128 0.0
Co171 Co 0.13316 0.74944 0.17116 0.0
C172 C 0.23607 0.77952 0.14528 0.0
O173 O 0.25277 0.73435 0.16345 0.0
N174 N 0.14537 0.72743 0.23354 0.0
C175 C 0.13973 0.69376 0.31397 0.0
C176 C 0.13879 0.68489 0.26805 0.0
C177 C 0.15102 0.76086 0.25939 0.0
N178 N 0.14741 0.74177 0.30821 0.0
O179 O 0.08584 0.8045 0.20188 0.0
H180 H 0.12935 0.65069 0.2629 0.0
H181 H 0.15217 0.80037 0.24453 0.0
O182 O 0.18991 0.78947 0.14581 0.0
C183 C 0.04039 0.7946 0.23187 0.0
O184 O 0.03147 0.74761 0.24298 0.0
N185 N 0.17618 0.69399 0.13936 0.0
C186 C 0.20569 0.61726 0.07773 0.0
C187 C 0.23051 0.6604 0.05935 0.0
C188 C 0.21538 0.69845 0.09102 0.0
C189 C 0.15282 0.65153 0.1578 0.0
C190 C 0.16819 0.61203 0.12843 0.0
H191 H 0.23049 0.7337 0.07376 0.0
H192 H 0.11735 0.65086 0.19204 0.0
H193 H 0.15004 0.84374 0.08765 0.0
H194 H 0.08821 0.77079 0.01278 0.0
H195 H 0.13155 0.66807 0.3499 0.0
H196 H 0.25803 0.66644 0.0195 0.0
H197 H 0.1463 0.58036 0.14274 0.0
C198 C 0.93087 0.28026 0.26329 0.0
C199 C 0.965 0.26804 0.21377 0.0
H200 H 0.89828 0.25509 0.34507 0.0
C201 C -0.01152 0.21811 0.20852 0.0
H202 H 0.9119 0.31834 0.26855 0.0
C203 C 0.98069 0.18193 0.25249 0.0
C204 C 0.94908 0.19496 0.3024 0.0
H205 H 0.01475 0.20745 0.17083 0.0
H206 H 0.00032 0.14405 0.24752 0.0
C207 C 0.92287 0.24402 0.30713 0.0
C208 C 0.82109 0.06838 0.36106 0.0
C209 C 0.8459 0.08237 0.30722 0.0
H210 H 0.82883 0.02962 0.43138 0.0
C211 C 0.89962 0.06709 0.28286 0.0
H212 H 0.77962 0.07883 0.38095 0.0
C213 C 0.9278 0.03815 0.31175 0.0
C214 C 0.90284 0.02398 0.3656 0.0
H215 H 0.91976 0.07672 0.24128 0.0
H216 H 0.9693 0.0276 0.29205 0.0
C217 C 0.84914 0.03916 0.38983 0.0
C218 C 0.14346 0.85233 0.36757 0.0
C219 C 0.09863 0.84785 0.41325 0.0
H220 H 0.19522 0.82061 0.29854 0.0
C221 C 0.07696 0.80265 0.429 0.0
H222 H 0.16139 0.88648 0.35508 0.0
C223 C 0.09637 0.76489 0.3966 0.0
C224 C 0.13773 0.77191 0.34814 0.0
H225 H 0.04229 0.79828 0.46395 0.0
H226 H 0.07606 0.73244 0.40728 0.0
C227 C 0.16286 0.81468 0.33538 0.0
C228 C 0.21754 0.02309 0.24905 0.0
C229 C 0.25262 0.05679 0.24001 0.0
H230 H 0.14065 1.00337 0.29198 0.0
C231 C 0.23578 0.09771 0.26847 0.0
H232 H 0.22959 0.99107 0.22787 0.0
C233 C 0.18476 0.10505 0.30488 0.0
C234 C 0.14966 0.07134 0.31395 0.0
H235 H 0.26169 0.12469 0.2618 0.0
H236 H 0.17298 0.13704 0.32609 0.0
C237 C 0.16666 0.03014 0.2858 0.0
C238 C 0.14652 0.85112 0.9426 0.0
C239 C 0.13416 0.86096 0.99334 0.0
H240 H 0.16917 0.88013 0.86185 0.0
C241 C 0.13624 0.90957 0.00089 0.0
H242 H 0.14618 0.81393 0.93537 0.0
C243 C 0.14986 0.9476 0.95864 0.0
C244 C 0.16181 0.93773 0.90796 0.0
H245 H 0.1265 0.91846 0.03959 0.0
H246 H 0.15011 0.98487 0.96583 0.0
C247 C 0.1603 0.88901 0.9004 0.0
C248 C 0.40177 0.09016 0.83717 0.0
C249 C 0.41761 0.04091 0.8558 0.0
H250 H 0.35755 0.13697 0.79483 0.0
C251 C 0.40655 1.00032 0.84055 0.0
H252 H 0.40959 0.12173 0.84927 0.0
C253 C 0.37596 0.00895 0.81072 0.0
C254 C 0.35745 0.05819 0.79476 0.0
H255 H 0.41778 0.96213 0.85544 0.0
H256 H 0.36407 0.97737 0.80266 0.0
C257 C 0.37238 0.09878 0.80615 0.0
C258 C 0.11831 0.19465 0.92632 0.0
C259 C 0.13895 0.20829 0.87207 0.0
H260 H 0.08056 0.22019 0.00125 0.0
C261 C 0.13636 0.25947 0.85166 0.0
H262 H 0.11969 0.15548 0.94306 0.0
C263 C 0.11308 0.29632 0.88475 0.0
C264 C 0.09287 0.28278 0.93895 0.0
H265 H 0.15154 0.27115 0.80998 0.0
H266 H 0.11147 0.33544 0.86787 0.0
C267 C 0.09599 0.23163 0.95952 0.0
C268 C 0.90733 0.99808 0.02618 0.0
C269 C 0.89842 0.03192 0.06113 0.0
H270 H 0.95051 0.97792 0.94944 0.0
C271 C 0.92696 0.07282 0.04404 0.0
H272 H 0.88581 0.96632 0.03803 0.0
C273 C 0.96396 0.07943 0.99325 0.0
C274 C 0.97284 0.0456 0.95832 0.0
H275 H 0.92092 0.09968 0.06993 0.0
H276 H -0.01455 0.11121 0.98113 0.0
C277 C 0.94398 0.00499 0.97523 0.0
C278 C 0.25302 0.15302 0.06272 0.0
C279 C 0.30375 0.1627 0.05079 0.0
H280 H 0.17215 0.1825 0.08587 0.0
C281 C 0.31147 0.21138 0.05221 0.0
H282 H 0.24571 0.11579 0.06254 0.0
C283 C 0.26939 0.24943 0.06587 0.0
C284 C 0.21861 0.23979 0.07816 0.0
H285 H 0.35006 0.22012 0.04337 0.0
H286 H 0.27675 0.28659 0.06612 0.0
C287 C 0.21089 0.19122 0.07619 0.0
C288 C 0.3589 0.84083 0.07943 0.0
C289 C 0.33888 0.8921 0.07595 0.0
H290 H 0.34204 0.76512 0.10491 0.0
C291 C 0.28467 0.90616 0.09567 0.0
H292 H 0.40054 0.82883 0.06497 0.0
C293 C 0.25113 0.86949 0.11791 0.0
C294 C 0.2713 0.81826 0.12188 0.0
H295 H 0.26822 0.9454 0.09358 0.0
H296 H 0.20944 0.88125 0.13258 0.0
C297 C 0.32545 0.80431 0.10263 0.0
C298 C 0.84591 0.2509 0.06473 0.0
C299 C 0.80002 0.25598 0.10926 0.0
H300 H 0.91545 0.28181 0.01316 0.0
C301 C 0.7844 0.30149 0.13039 0.0
H302 H 0.85831 0.2165 0.04721 0.0
C303 C 0.81713 0.33894 0.11083 0.0
C304 C 0.8658 0.33129 0.06989 0.0
H305 H 0.74929 0.30634 0.16482 0.0
H306 H 0.80653 0.37164 0.13081 0.0
C307 C 0.87845 0.28822 0.0452 0.0
C308 C 0.94667 0.82378 0.28113 0.0
C309 C -0.00361 0.83528 0.24686 0.0
H310 H 0.86512 0.85006 0.31372 0.0
C311 C 0.00229 0.88501 0.22303 0.0
H312 H 0.94092 0.78587 0.30036 0.0
C313 C 0.95875 0.92172 0.23066 0.0
C314 C 0.90862 0.90943 0.26246 0.0
H315 H 0.04016 0.89513 0.19665 0.0
H316 H 0.9642 0.95944 0.21076 0.0
C317 C 0.90325 0.86055 0.28898 0.0
C318 C 0.0414 0.14756 0.65354 0.0
C319 C 0.093 0.15721 0.63605 0.0
H320 H -0.01491 0.12301 0.6347 0.0
C321 C 0.12375 0.16121 0.58263 0.0
H322 H 0.0172 0.14375 0.69474 0.0
C323 C 0.10529 0.1496 0.548 0.0
C324 C 0.05616 0.13327 0.5666 0.0
H325 H 0.16365 0.16877 0.56848 0.0
H326 H 0.13091 0.14985 0.50737 0.0
C327 C 0.02315 0.13535 0.61907 0.0
C328 C 0.59247 0.96835 0.18983 0.0
C329 C 0.64495 0.97004 0.15666 0.0
H330 H 0.51673 0.95958 0.19636 0.0
C331 C 0.66344 0.95272 0.10799 0.0
H332 H 0.57693 0.98143 0.22754 0.0
C333 C 0.62872 0.94045 0.09006 0.0
C334 C 0.57531 0.9448 0.12088 0.0
H335 H 0.70406 0.95215 0.08229 0.0
H336 H 0.6428 0.93212 0.05043 0.0
C337 C 0.55792 0.95547 0.17212 0.0
C338 C 0.22166 0.53199 0.05206 0.0
C339 C 0.20762 0.58389 0.04195 0.0
H340 H 0.21131 0.45869 0.04564 0.0
C341 C 0.18102 0.60204 0.00807 0.0
H342 H 0.24137 0.51731 0.0788 0.0
C343 C 0.16278 0.56863 0.9901 0.0
C344 C 0.17212 0.51677 0.00482 0.0
H345 H 0.16895 0.64197 0.00062 0.0
H346 H 0.13713 0.58336 0.96918 0.0
C347 C 0.20453 0.49858 0.03302 0.0
loop_
_geom_bond_atom_site_label_1
_geom_bond_atom_site_label_2
_geom_bond_distance
_geom_bond_site_symmetry_2
_ccdc_geom_bond_type
C0 C1 1.351 . S
C0 N3 1.368 1_655 S
C0 H5 0.931 . S
C1 C0 1.351 . S
C1 N2 1.373 1_655 S
C1 H29 0.930 . S
N2 C1 1.373 1_455 S
N2 C4 1.340 . S
N3 C0 1.368 1_455 S
N3 C4 1.321 . S
N3 Co6 2.135 1_565 S
C4 N2 1.340 . S
C4 N3 1.321 . S
C4 H28 0.930 . S
H5 C0 0.931 . S
Co6 N3 2.135 1_545 S
Co6 N9 2.121 . S
Co6 O14 2.055 1_455 S
Co6 O17 2.037 1_545 S
Co6 N20 2.140 . S
C7 O8 1.227 . S
C7 O17 1.265 . S
O8 C7 1.227 . S
N9 Co6 2.121 . S
N9 C11 1.375 . S
N9 C12 1.313 1_455 S
C10 C11 1.338 . S
C10 N13 1.377 . S
C10 H30 0.930 . S
C11 N9 1.375 . S
C11 C10 1.338 . S
C11 H15 0.931 . S
C12 N9 1.313 1_655 S
C12 N13 1.344 1_655 S
C12 H16 0.930 . S
N13 C10 1.377 . S
N13 C12 1.344 1_455 S
O14 Co6 2.055 1_655 S
O14 C18 1.253 . S
H15 C11 0.931 . S
H16 C12 0.930 . S
O17 Co6 2.037 1_565 S
O17 C7 1.265 . S
C18 O14 1.253 . S
C18 O19 1.227 . S
O19 C18 1.227 . S
N20 Co6 2.140 . S
N20 C23 1.346 1_545 S
N20 C24 1.345 . S
C21 C22 1.387 1_545 S
C21 C25 1.391 . S
C22 C21 1.387 1_565 S
C22 C23 1.369 . S
C22 H31 0.929 . S
C23 N20 1.346 1_565 S
C23 C22 1.369 . S
C23 H26 0.928 . S
C24 N20 1.345 . S
C24 C25 1.371 . S
C24 H27 0.931 1_455 S
C25 C21 1.391 . S
C25 C24 1.371 . S
C25 H32 0.930 1_455 S
H26 C23 0.928 . S
H27 C24 0.931 1_655 S
H28 C4 0.930 . S
H29 C1 0.930 . S
H30 C10 0.930 . S
H31 C22 0.929 . S
H32 C25 0.930 1_655 S
C33 C34 1.351 . S
C33 N36 1.368 . S
C33 H38 0.931 1_545 S
C34 C33 1.351 . S
C34 N35 1.373 . S
C34 H62 0.930 . S
N35 C34 1.373 . S
N35 C37 1.340 . S
N36 C33 1.368 . S
N36 C37 1.321 . S
N36 Co39 2.135 . S
C37 N35 1.340 . S
C37 N36 1.321 . S
C37 H61 0.930 . S
H38 C33 0.931 1_565 S
Co39 N36 2.135 . S
Co39 N42 2.121 . S
Co39 O47 2.055 . S
Co39 O50 2.039 . S
Co39 N53 2.140 . S
C40 O41 1.227 . S
C40 O50 1.265 . S
O41 C40 1.227 . S
N42 Co39 2.121 . S
N42 C44 1.375 . S
N42 C45 1.313 . S
C43 C44 1.338 . S
C43 N46 1.377 . S
C43 H63 0.930 . S
C44 N42 1.375 . S
C44 C43 1.338 . S
C44 H48 0.931 . S
C45 N42 1.313 . S
C45 N46 1.344 . S
C45 H49 0.930 . S
N46 C43 1.377 . S
N46 C45 1.344 . S
O47 Co39 2.055 . S
O47 C51 1.253 1_545 S
H48 C44 0.931 . S
H49 C45 0.930 . S
O50 Co39 2.039 . S
O50 C40 1.265 . S
C51 O47 1.253 1_565 S
C51 O52 1.227 . S
O52 C51 1.227 . S
N53 Co39 2.140 . S
N53 C56 1.346 . S
N53 C57 1.345 . S
C54 C55 1.387 . S
C54 C58 1.391 . S
C55 C54 1.387 . S
C55 C56 1.369 . S
C55 H64 0.929 . S
C56 N53 1.346 . S
C56 C55 1.369 . S
C56 H59 0.928 . S
C57 N53 1.345 . S
C57 C58 1.371 . S
C57 H60 0.931 . S
C58 C54 1.391 . S
C58 C57 1.371 . S
C58 H65 0.930 . S
H59 C56 0.928 . S
H60 C57 0.931 . S
H61 C37 0.930 . S
H62 C34 0.930 . S
H63 C43 0.930 . S
H64 C55 0.929 . S
H65 C58 0.930 . S
C66 C67 1.351 . S
C66 N69 1.368 . S
C66 H71 0.931 . S
C67 C66 1.351 . S
C67 N68 1.373 . S
C67 H95 0.930 . S
N68 C67 1.373 . S
N68 C70 1.340 1_545 S
N69 C66 1.368 . S
N69 C70 1.321 1_545 S
N69 Co72 2.135 . S
C70 N68 1.340 1_565 S
C70 N69 1.321 1_565 S
C70 H94 0.930 . S
H71 C66 0.931 . S
Co72 N69 2.135 . S
Co72 N75 2.121 1_554 S
Co72 O80 2.055 . S
Co72 O83 2.039 1_545 S
Co72 N86 2.140 . S
C73 O74 1.227 . S
C73 O83 1.265 . S
O74 C73 1.227 . S
N75 Co72 2.121 1_556 S
N75 C77 1.375 1_545 S
N75 C78 1.313 . S
C76 C77 1.338 . S
C76 N79 1.377 1_565 S
C76 H96 0.930 . S
C77 N75 1.375 1_565 S
C77 C76 1.338 . S
C77 H81 0.931 . S
C78 N75 1.313 . S
C78 N79 1.344 . S
C78 H82 0.930 . S
N79 C76 1.377 1_545 S
N79 C78 1.344 . S
O80 Co72 2.055 . S
O80 C84 1.253 . S
H81 C77 0.931 . S
H82 C78 0.930 . S
O83 Co72 2.039 1_565 S
O83 C73 1.265 . S
C84 O80 1.253 . S
C84 O85 1.227 . S
O85 C84 1.227 . S
N86 Co72 2.140 . S
N86 C89 1.346 1_545 S
N86 C90 1.345 . S
C87 C88 1.387 1_545 S
C87 C91 1.391 . S
C88 C87 1.387 1_565 S
C88 C89 1.369 . S
C88 H97 0.929 . S
C89 N86 1.346 1_565 S
C89 C88 1.369 . S
C89 H92 0.928 . S
C90 N86 1.345 . S
C90 C91 1.371 . S
C90 H93 0.931 1_554 S
C91 C87 1.391 . S
C91 C90 1.371 . S
C91 H98 0.930 1_554 S
H92 C89 0.928 . S
H93 C90 0.931 1_556 S
H94 C70 0.930 . S
H95 C67 0.930 . S
H96 C76 0.930 . S
H97 C88 0.929 . S
H98 C91 0.930 1_556 S
C99 C100 1.351 . S
C99 N102 1.368 . S
C99 H104 0.931 . S
C100 C99 1.351 . S
C100 N101 1.373 . S
C100 H128 0.930 . S
N101 C100 1.373 . S
N101 C103 1.340 . S
N102 C99 1.368 . S
N102 C103 1.321 . S
N102 Co105 2.135 . S
C103 N101 1.340 . S
C103 N102 1.321 . S
C103 H127 0.930 1_554 S
H104 C99 0.931 . S
Co105 N102 2.135 . S
Co105 N108 2.121 1_455 S
Co105 O113 2.055 . S
Co105 O116 2.039 . S
Co105 N119 2.140 . S
C106 O107 1.227 . S
C106 O116 1.265 1_556 S
O107 C106 1.227 . S
N108 Co105 2.121 1_655 S
N108 C110 1.375 . S
N108 C111 1.313 . S
C109 C110 1.338 . S
C109 N112 1.377 . S
C109 H129 0.930 . S
C110 N108 1.375 . S
C110 C109 1.338 . S
C110 H114 0.931 1_554 S
C111 N108 1.313 . S
C111 N112 1.344 . S
C111 H115 0.930 . S
N112 C109 1.377 . S
N112 C111 1.344 . S
O113 Co105 2.055 . S
O113 C117 1.253 . S
H114 C110 0.931 1_556 S
H115 C111 0.930 . S
O116 Co105 2.039 . S
O116 C106 1.265 1_554 S
C117 O113 1.253 . S
C117 O118 1.227 . S
O118 C117 1.227 . S
N119 Co105 2.140 . S
N119 C122 1.346 . S
N119 C123 1.345 . S
C120 C121 1.387 . S
C120 C124 1.391 . S
C121 C120 1.387 . S
C121 C122 1.369 . S
C121 H130 0.929 . S
C122 N119 1.346 . S
C122 C121 1.369 . S
C122 H125 0.928 . S
C123 N119 1.345 . S
C123 C124 1.371 . S
C123 H126 0.931 1_455 S
C124 C120 1.391 . S
C124 C123 1.371 . S
C124 H131 0.930 . S
H125 C122 0.928 . S
H126 C123 0.931 1_655 S
H127 C103 0.930 1_556 S
H128 C100 0.930 . S
H129 C109 0.930 . S
H130 C121 0.929 . S
H131 C124 0.930 . S
C132 C133 1.351 . S
C132 N135 1.368 . S
C132 H137 0.931 . S
C133 C132 1.351 . S
C133 N134 1.373 . S
C133 H161 0.930 . S
N134 C133 1.373 . S
N134 C136 1.340 . S
N135 C132 1.368 . S
N135 C136 1.321 . S
N135 Co138 2.135 . S
C136 N134 1.340 . S
C136 N135 1.321 . S
C136 H160 0.930 . S
H137 C132 0.931 . S
Co138 N135 2.135 . S
Co138 N141 2.121 . S
Co138 O146 2.055 . S
Co138 O149 2.039 . S
Co138 N152 2.140 . S
C139 O140 1.227 . S
C139 O149 1.265 . S
O140 C139 1.227 . S
N141 Co138 2.121 . S
N141 C143 1.375 1_545 S
N141 C144 1.313 1_545 S
C142 C143 1.338 . S
C142 N145 1.377 . S
C142 H162 0.930 . S
C143 N141 1.375 1_565 S
C143 C142 1.338 . S
C143 H147 0.934 . S
C144 N141 1.313 1_565 S
C144 N145 1.344 . S
C144 H148 0.930 . S
N145 C142 1.377 . S
N145 C144 1.344 . S
O146 Co138 2.055 . S
O146 C150 1.253 . S
H147 C143 0.934 . S
H148 C144 0.930 . S
O149 Co138 2.039 . S
O149 C139 1.265 . S
C150 O146 1.253 . S
C150 O151 1.227 . S
O151 C150 1.227 . S
N152 Co138 2.140 . S
N152 C155 1.346 . S
N152 C156 1.345 . S
C153 C154 1.387 . S
C153 C157 1.391 . S
C154 C153 1.387 . S
C154 C155 1.369 . S
C154 H163 0.929 . S
C155 N152 1.346 . S
C155 C154 1.369 . S
C155 H158 0.928 . S
C156 N152 1.345 . S
C156 C157 1.371 . S
C156 H159 0.931 . S
C157 C153 1.391 . S
C157 C156 1.371 . S
C157 H164 0.930 . S
H158 C155 0.928 . S
H159 C156 0.931 . S
H160 C136 0.930 . S
H161 C133 0.930 . S
H162 C142 0.930 . S
H163 C154 0.929 . S
H164 C157 0.930 . S
C165 C166 1.351 . S
C165 N168 1.368 . S
C165 H170 0.931 . S
C166 C165 1.351 . S
C166 N167 1.373 . S
C166 H194 0.930 . S
N167 C166 1.373 . S
N167 C169 1.340 . S
N168 C165 1.368 . S
N168 C169 1.321 . S
N168 Co171 2.135 . S
C169 N167 1.340 . S
C169 N168 1.321 . S
C169 H193 0.930 . S
H170 C165 0.931 . S
Co171 N168 2.135 . S
Co171 N174 2.121 . S
Co171 O179 2.055 . S
Co171 O182 2.039 . S
Co171 N185 2.140 . S
C172 O173 1.227 . S
C172 O182 1.265 . S
O173 C172 1.227 . S
N174 Co171 2.121 . S
N174 C176 1.375 . S
N174 C177 1.313 . S
C175 C176 1.338 . S
C175 N178 1.377 . S
C175 H195 0.930 . S
C176 N174 1.375 . S
C176 C175 1.338 . S
C176 H180 0.931 . S
C177 N174 1.313 . S
C177 N178 1.344 . S
C177 H181 0.930 . S
N178 C175 1.377 . S
N178 C177 1.344 . S
O179 Co171 2.055 . S
O179 C183 1.253 . S
H180 C176 0.931 . S
H181 C177 0.930 . S
O182 Co171 2.039 . S
O182 C172 1.265 . S
C183 O179 1.253 . S
C183 O184 1.227 . S
O184 C183 1.227 . S
N185 Co171 2.140 . S
N185 C188 1.346 . S
N185 C189 1.345 . S
C186 C187 1.387 . S
C186 C190 1.391 . S
C187 C186 1.387 . S
C187 C188 1.369 . S
C187 H196 0.929 . S
C188 N185 1.346 . S
C188 C187 1.369 . S
C188 H191 0.928 . S
C189 N185 1.345 . S
C189 C190 1.371 . S
C189 H192 0.931 . S
C190 C186 1.391 . S
C190 C189 1.371 . S
C190 H197 0.930 . S
H191 C188 0.928 . S
H192 C189 0.931 . S
H193 C169 0.930 . S
H194 C166 0.930 . S
H195 C175 0.930 . S
H196 C187 0.929 . S
H197 C190 0.930 . S
C198 C199 1.387 1_655 S
C198 H202 0.950 . S
C198 C207 1.390 . S
C199 C198 1.387 1_455 S
C199 C201 1.387 . S
H200 C207 0.950 . S
C201 C199 1.387 . S
C201 C203 1.390 . S
C201 H205 0.950 . S
H202 C198 0.950 . S
C203 C201 1.390 . S
C203 C204 1.387 . S
C203 H206 0.950 . S
C204 C203 1.387 . S
C204 C207 1.387 1_455 S
H205 C201 0.950 . S
H206 C203 0.950 . S
C207 C198 1.390 . S
C207 H200 0.950 . S
C207 C204 1.387 1_655 S
C208 C209 1.387 . S
C208 H212 0.950 . S
C208 C217 1.390 . S
C209 C208 1.387 . S
C209 C211 1.387 . S
H210 C217 0.950 . S
C211 C209 1.387 . S
C211 C213 1.390 1_545 S
C211 H215 0.950 1_545 S
H212 C208 0.950 . S
C213 C211 1.390 1_565 S
C213 C214 1.387 1_565 S
C213 H216 0.950 . S
C214 C213 1.387 1_545 S
C214 C217 1.387 . S
H215 C211 0.950 1_565 S
H216 C213 0.950 . S
C217 C208 1.390 . S
C217 H210 0.950 . S
C217 C214 1.387 . S
C218 C219 1.387 . S
C218 H222 0.950 . S
C218 C227 1.390 . S
C219 C218 1.387 . S
C219 C221 1.387 . S
H220 C227 0.950 . S
C221 C219 1.387 . S
C221 C223 1.390 . S
C221 H225 0.950 1_455 S
H222 C218 0.950 . S
C223 C221 1.390 . S
C223 C224 1.387 . S
C223 H226 0.950 . S
C224 C223 1.387 . S
C224 C227 1.387 . S
H225 C221 0.950 1_655 S
H226 C223 0.950 . S
C227 C218 1.390 . S
C227 H220 0.950 . S
C227 C224 1.387 . S
C228 C229 1.387 . S
C228 H232 0.950 . S
C228 C237 1.390 . S
C229 C228 1.387 . S
C229 C231 1.387 1_565 S
H230 C237 0.950 . S
C231 C229 1.387 1_545 S
C231 C233 1.390 . S
C231 H235 0.950 . S
H232 C228 0.950 . S
C233 C231 1.390 . S
C233 C234 1.387 1_545 S
C233 H236 0.950 . S
C234 C233 1.387 1_565 S
C234 C237 1.387 . S
H235 C231 0.950 . S
H236 C233 0.950 . S
C237 C228 1.390 . S
C237 H230 0.950 . S
C237 C234 1.387 . S
C238 C239 1.387 . S
C238 H242 0.950 . S
C238 C247 1.390 . S
C239 C238 1.387 . S
C239 C241 1.387 . S
H240 C247 0.950 . S
C241 C239 1.387 . S
C241 C243 1.390 . S
C241 H245 0.950 . S
H242 C238 0.950 . S
C243 C241 1.390 . S
C243 C244 1.387 . S
C243 H246 0.950 . S
C244 C243 1.387 . S
C244 C247 1.387 . S
H245 C241 0.950 . S
H246 C243 0.950 . S
C247 C238 1.390 . S
C247 H240 0.950 . S
C247 C244 1.387 . S
C248 C249 1.387 . S
C248 H252 0.950 . S
C248 C257 1.390 . S
C249 C248 1.387 . S
C249 C251 1.387 1_545 S
H250 C257 0.950 . S
C251 C249 1.387 1_565 S
C251 C253 1.390 1_565 S
C251 H255 0.950 . S
H252 C248 0.950 . S
C253 C251 1.390 1_545 S
C253 C254 1.387 . S
C253 H256 0.950 1_545 S
C254 C253 1.387 . S
C254 C257 1.387 . S
H255 C251 0.950 . S
H256 C253 0.950 1_565 S
C257 C248 1.390 . S
C257 H250 0.950 . S
C257 C254 1.387 . S
C258 C259 1.387 . S
C258 H262 0.950 . S
C258 C267 1.390 . S
C259 C258 1.387 . S
C259 C261 1.387 . S
H260 C267 0.950 . S
C261 C259 1.387 . S
C261 C263 1.390 . S
C261 H265 0.950 . S
H262 C258 0.950 . S
C263 C261 1.390 . S
C263 C264 1.387 . S
C263 H266 0.950 . S
C264 C263 1.387 . S
C264 C267 1.387 . S
H265 C261 0.950 . S
H266 C263 0.950 . S
C267 C258 1.390 . S
C267 H260 0.950 . S
C267 C264 1.387 . S
C268 C269 1.387 . S
C268 H272 0.950 . S
C268 C277 1.390 1_554 S
C269 C268 1.387 . S
C269 C271 1.387 . S
H270 C277 0.950 . S
C271 C269 1.387 . S
C271 C273 1.390 1_554 S
C271 H275 0.950 . S
H272 C268 0.950 . S
C273 C271 1.390 1_556 S
C273 C274 1.387 . S
C273 H276 0.950 . S
C274 C273 1.387 . S
C274 C277 1.387 . S
H275 C271 0.950 . S
H276 C273 0.950 . S
C277 C268 1.390 1_556 S
C277 H270 0.950 . S
C277 C274 1.387 . S
C278 C279 1.387 1_556 S
C278 H282 0.950 . S
C278 C287 1.390 . S
C279 C278 1.387 1_554 S
C279 C281 1.387 . S
H280 C287 0.950 . S
C281 C279 1.387 . S
C281 C283 1.390 . S
C281 H285 0.950 . S
H282 C278 0.950 . S
C283 C281 1.390 . S
C283 C284 1.387 . S
C283 H286 0.950 . S
C284 C283 1.387 . S
C284 C287 1.387 1_554 S
H285 C281 0.950 . S
H286 C283 0.950 . S
C287 C278 1.390 . S
C287 H280 0.950 . S
C287 C284 1.387 1_556 S
C288 C289 1.387 . S
C288 H292 0.950 . S
C288 C297 1.390 . S
C289 C288 1.387 . S
C289 C291 1.387 . S
H290 C297 0.950 . S
C291 C289 1.387 . S
C291 C293 1.390 . S
C291 H295 0.950 . S
H292 C288 0.950 . S
C293 C291 1.390 . S
C293 C294 1.387 . S
C293 H296 0.950 . S
C294 C293 1.387 . S
C294 C297 1.387 . S
H295 C291 0.950 . S
H296 C293 0.950 . S
C297 C288 1.390 . S
C297 H290 0.950 . S
C297 C294 1.387 . S
C298 C299 1.387 . S
C298 H302 0.950 . S
C298 C307 1.390 . S
C299 C298 1.387 . S
C299 C301 1.387 . S
H300 C307 0.950 . S
C301 C299 1.387 . S
C301 C303 1.390 . S
C301 H305 0.950 . S
H302 C298 0.950 . S
C303 C301 1.390 . S
C303 C304 1.387 . S
C303 H306 0.950 . S
C304 C303 1.387 . S
C304 C307 1.387 . S
H305 C301 0.950 . S
H306 C303 0.950 . S
C307 C298 1.390 . S
C307 H300 0.950 . S
C307 C304 1.387 . S
C308 C309 1.384 1_655 S
C308 H312 0.950 1_655 S
C308 C317 1.390 . S
C309 C308 1.384 1_455 S
C309 C311 1.386 1_455 S
H310 C317 0.950 . S
C311 C309 1.386 1_655 S
C311 C313 1.390 . S
C311 H315 0.950 . S
H312 C308 0.950 1_455 S
C313 C311 1.390 . S
C313 C314 1.387 . S
C313 H316 0.950 . S
C314 C313 1.387 . S
C314 C317 1.387 . S
H315 C311 0.950 . S
H316 C313 0.950 . S
C317 C308 1.390 . S
C317 H310 0.950 . S
C317 C314 1.387 . S
C318 C319 1.387 . S
C318 H322 0.950 1_545 S
C318 C327 1.390 1_545 S
C319 C318 1.387 . S
C319 C321 1.387 . S
H320 C327 0.950 . S
C321 C319 1.387 . S
C321 C323 1.390 . S
C321 H325 0.950 . S
H322 C318 0.950 1_565 S
C323 C321 1.390 . S
C323 C324 1.387 . S
C323 H326 0.950 . S
C324 C323 1.387 . S
C324 C327 1.387 1_545 S
H325 C321 0.950 . S
H326 C323 0.950 . S
C327 C318 1.390 1_565 S
C327 H320 0.950 . S
C327 C324 1.387 1_565 S
C328 C329 1.387 . S
C328 H332 0.950 . S
C328 C337 1.390 . S
C329 C328 1.387 . S
C329 C331 1.387 . S
H330 C337 0.950 . S
C331 C329 1.387 . S
C331 C333 1.390 1_545 S
C331 H335 0.950 1_545 S
H332 C328 0.950 . S
C333 C331 1.390 1_565 S
C333 C334 1.387 1_565 S
C333 H336 0.950 . S
C334 C333 1.387 1_545 S
C334 C337 1.387 . S
H335 C331 0.950 1_565 S
H336 C333 0.950 . S
C337 C328 1.390 . S
C337 H330 0.950 . S
C337 C334 1.387 . S
C338 C339 1.387 . S
C338 H342 0.950 . S
C338 C347 1.390 . S
C339 C338 1.387 . S
C339 C341 1.387 . S
H340 C347 0.950 . S
C341 C339 1.387 . S
C341 C343 1.390 . S
C341 H345 0.950 . S
H342 C338 0.950 . S
C343 C341 1.390 . S
C343 C344 1.387 . S
C343 H346 0.950 . S
C344 C343 1.387 . S
C344 C347 1.387 . S
H345 C341 0.950 . S
H346 C343 0.950 . S
C347 C338 1.390 . S
C347 H340 0.950 . S
C347 C344 1.387 . S
C199 C117 1.776 . S
C204 N13 1.485 . S
C209 C150 1.030 . S
C214 C18 1.033 . S
C219 N2 0.950 . S
C224 N178 0.954 . S
C229 N68 1.337 1_565 S
C234 C7 1.595 . S
C239 N167 1.368 1_556 S
C244 C51 1.662 . S
C249 N79 0.995 . S
C254 N46 1.001 . S
C259 C40 1.216 . S
C264 C106 1.194 . S
C269 C139 1.598 . S
C274 N35 1.343 1_655 S
C279 C84 1.660 . S
C284 N101 1.362 . S
C289 C73 1.218 . S
C294 C172 1.198 . S
C299 N134 0.949 . S
C304 N112 0.954 . S
C309 C183 1.782 . S
C314 N145 1.489 . S
C319 C54 1.477 . S
C324 C21 1.478 . S
C329 C153 1.478 . S
C334 C87 1.477 . S
C339 C186 1.489 . S
C344 C120 1.489 . S
