# Generated by pormake.
# Topology snp, (6)-cn, num edge types: 1
# Building blocks:
#     Node 0, Type 0, BuildingBlock: KUMBOL_clean_sbu_0, # of connection points: 6
#     Node 1, Type 0, BuildingBlock: KUMBOL_clean_sbu_0, # of connection points: 6
#     Node 2, Type 0, BuildingBlock: KUMBOL_clean_sbu_0, # of connection points: 6
#     Node 3, Type 0, BuildingBlock: KUMBOL_clean_sbu_0, # of connection points: 6
#     Edge 4, Type (0, 0), BuildingBlock: EZIPEK_clean_linker_0, # of connection points: 2
#     Edge 5, Type (0, 0), BuildingBlock: EZIPEK_clean_linker_0, # of connection points: 2
#     Edge 6, Type (0, 0), BuildingBlock: EZIPEK_clean_linker_0, # of connection points: 2
#     Edge 7, Type (0, 0), BuildingBlock: EZIPEK_clean_linker_0, # of connection points: 2
#     Edge 8, Type (0, 0), BuildingBlock: EZIPEK_clean_linker_0, # of connection points: 2
#     Edge 9, Type (0, 0), BuildingBlock: EZIPEK_clean_linker_0, # of connection points: 2
#     Edge 10, Type (0, 0), BuildingBlock: EZIPEK_clean_linker_0, # of connection points: 2
#     Edge 11, Type (0, 0), BuildingBlock: EZIPEK_clean_linker_0, # of connection points: 2
#     Edge 12, Type (0, 0), BuildingBlock: EZIPEK_clean_linker_0, # of connection points: 2
#     Edge 13, Type (0, 0), BuildingBlock: EZIPEK_clean_linker_0, # of connection points: 2
#     Edge 14, Type (0, 0), BuildingBlock: EZIPEK_clean_linker_0, # of connection points: 2
#     Edge 15, Type (0, 0), BuildingBlock: EZIPEK_clean_linker_0, # of connection points: 2
# Relax obj value: 0.256
# Max RMSD: 0.289
# Mean RMSD: 0.256
data_MOF--net-snp--node1-KUMBOL_clean_sbu_0--edge1-EZIPEK_clean_linker_0
_symmetry_space_group_name_H-M    P1
_symmetry_Int_Tables_number       1
_symmetry_cell_setting            triclinic
loop_
_symmetry_equiv_pos_as_xyz
'x, y, z'
_cell_length_a     18.337752
_cell_length_b     19.743759
_cell_length_c     26.680731
_cell_angle_alpha  119.89076
_cell_angle_beta   93.117308
_cell_angle_gamma 97.920169
loop_
_atom_site_label
_atom_site_type_symbol
_atom_site_fract_x
_atom_site_fract_y
_atom_site_fract_z
_atom_type_partial_charge
Gd0 Gd 0.35592 0.02012 0.28439 0.0
Gd1 Gd 0.37916 0.19275 0.26848 0.0
C2 C 0.49585 0.41424 0.44315 0.0
C3 C 0.41784 0.50972 0.45575 0.0
C4 C 0.38975 0.37575 0.3703 0.0
C5 C 0.45091 0.35667 0.38963 0.0
C6 C 0.37325 0.45293 0.40281 0.0
C7 C 0.47883 0.49032 0.476 0.0
C8 C 0.55649 0.3939 0.46271 0.0
C9 C 0.57111 0.31784 0.43001 0.0
N10 N 0.46581 0.28207 0.35701 0.0
C11 C 0.52538 0.26271 0.37771 0.0
H12 H 0.53715 0.20354 0.3565 0.0
C13 C 0.29133 0.33914 0.29616 0.0
N14 N 0.34595 0.31906 0.31986 0.0
C15 C 0.27259 0.41437 0.32645 0.0
C16 C 0.31294 0.47124 0.38069 0.0
H17 H 0.26379 0.29764 0.25281 0.0
H18 H 0.51279 0.53477 0.51707 0.0
H19 H 0.17453 0.93937 0.26652 0.0
H20 H 0.5917 0.43597 0.50345 0.0
H21 H 0.61707 0.30095 0.44561 0.0
H22 H 0.40603 0.56904 0.48114 0.0
H23 H 0.5218 0.96769 0.29045 0.0
H24 H 0.13718 0.69628 0.13031 0.0
H25 H 0.08895 0.81301 0.20193 0.0
H26 H 0.38369 0.64657 0.10377 0.0
H27 H 0.22797 0.42876 0.3074 0.0
H28 H 0.29862 0.52972 0.4042 0.0
H29 H 0.2468 0.635 0.09539 0.0
H30 H 0.58304 0.85394 0.23411 0.0
N31 N 0.26975 0.89977 0.22612 0.0
C32 C 0.17484 0.75293 0.15702 0.0
C33 C 0.14742 0.81836 0.19747 0.0
C34 C 0.25134 0.7599 0.15475 0.0
C35 C 0.29818 0.83509 0.19009 0.0
C36 C 0.19627 0.89065 0.23328 0.0
N37 N 0.41787 0.91228 0.23493 0.0
C38 C 0.37476 0.84166 0.1944 0.0
C39 C 0.52483 0.84997 0.22154 0.0
C40 C 0.48278 0.77906 0.17595 0.0
C41 C 0.49045 0.91491 0.25245 0.0
C42 C 0.40621 0.77311 0.16391 0.0
H43 H 0.50887 0.72778 0.15325 0.0
O44 O 0.40458 1.00119 0.35117 0.0
O45 O 0.34742 0.14981 0.33154 0.0
O46 O 0.49136 0.16469 0.26273 0.0
O47 O 0.46532 0.03602 0.24569 0.0
O48 O 0.42755 0.11595 0.36541 0.0
O49 O 0.28581 0.99463 0.3396 0.0
O50 O 0.33956 0.20593 0.19577 0.0
O51 O 0.37198 0.05914 0.22212 0.0
O52 O 0.2431 0.04211 0.25299 0.0
O53 O 0.26484 0.17748 0.28891 0.0
O54 O 0.31687 0.09631 0.17626 0.0
O55 O 0.45336 0.25734 0.23923 0.0
C56 C 0.3884 0.17027 0.3789 0.0
C57 C 0.35987 0.69938 0.12644 0.0
C58 C 0.28249 0.6928 0.12186 0.0
C59 C 0.3408 0.98111 0.36435 0.0
C60 C 0.33028 0.90614 0.3665 0.0
C61 C 0.37106 0.84694 0.33406 0.0
C62 C 0.28504 0.89564 0.40445 0.0
C63 C 0.28377 0.82863 0.41153 0.0
C64 C 0.36934 0.78086 0.34035 0.0
C65 C 0.32737 0.77247 0.3795 0.0
C66 C 0.50974 0.09568 0.24491 0.0
C67 C 0.33318 0.03308 0.17344 0.0
C68 C 0.40253 0.24866 0.19908 0.0
C69 C 0.39927 0.31758 0.19172 0.0
C70 C 0.41861 0.39574 0.23954 0.0
C71 C 0.37947 0.30508 0.13547 0.0
C72 C 0.37817 0.37036 0.12757 0.0
C73 C 0.41524 0.46027 0.23196 0.0
C74 C 0.39523 0.44778 0.17639 0.0
C75 C 0.21921 0.10827 0.26171 0.0
H76 H 0.40642 0.85245 0.30491 0.0
H77 H 0.2532 0.94058 0.4299 0.0
H78 H 0.40215 0.73669 0.31561 0.0
H79 H 0.3289 0.72172 0.38483 0.0
H80 H 0.43658 0.40713 0.28276 0.0
H81 H 0.36704 0.24516 0.09788 0.0
H82 H 0.42953 0.52028 0.26917 0.0
H83 H 0.39493 0.49877 0.17115 0.0
Gd84 Gd 0.29251 0.37675 0.71926 0.0
Gd85 Gd 0.11153 0.30882 0.62953 0.0
C86 C 0.88158 0.25801 0.67799 0.0
C87 C 0.8335 0.12232 0.59986 0.0
C88 C 0.95715 0.18944 0.60304 0.0
C89 C 0.94815 0.25745 0.65338 0.0
C90 C 0.89877 0.12213 0.57481 0.0
C91 C 0.82511 0.18992 0.6515 0.0
C92 C 0.87313 0.32711 0.72839 0.0
C93 C 0.92941 0.39403 0.75267 0.0
N94 N 0.004 0.32274 0.6783 0.0
C95 C -0.00591 0.39124 0.72692 0.0
H96 H 0.03563 0.44467 0.74849 0.0
C97 C 0.02783 0.12761 0.52659 0.0
N98 N 0.02138 0.19005 0.58012 0.0
C99 C 0.97133 0.06022 0.49693 0.0
C100 C 0.90676 0.05707 0.52136 0.0
H101 H 0.07595 0.12882 0.50559 0.0
H102 H 0.77408 0.18944 0.67009 0.0
H103 H 0.3648 0.22282 0.71801 0.0
H104 H 0.82314 0.32961 0.74863 0.0
H105 H 0.92328 0.44809 0.79162 0.0
H106 H 0.78869 0.07082 0.57915 0.0
H107 H 0.37294 0.55335 0.73433 0.0
H108 H 0.5262 0.16138 0.60209 0.0
H109 H 0.4497 0.13514 0.66563 0.0
H110 H 0.56955 0.37782 0.56825 0.0
H111 H 0.97756 1.01084 0.45502 0.0
H112 H 0.86309 1.00462 0.4983 0.0
H113 H 0.56955 0.25149 0.56499 0.0
H114 H 0.4584 0.6007 0.68596 0.0
N115 N 0.38179 0.29292 0.67767 0.0
C116 C 0.4866 0.19898 0.62339 0.0
C117 C 0.44339 0.18394 0.6592 0.0
C118 C 0.4814 0.2652 0.61836 0.0
C119 C 0.42851 0.31214 0.64686 0.0
C120 C 0.39329 0.23317 0.6877 0.0
N121 N 0.38475 0.4318 0.68333 0.0
C122 C 0.4291 0.38342 0.64903 0.0
C123 C 0.44963 0.53885 0.67404 0.0
C124 C 0.48887 0.4869 0.63302 0.0
C125 C 0.39998 0.51097 0.70061 0.0
C126 C 0.4817 0.40927 0.62226 0.0
H127 H 0.52834 0.50887 0.6132 0.0
O128 O 0.316 0.49326 0.79772 0.0
O129 O 0.16716 0.36795 0.72267 0.0
O130 O 0.13225 0.43625 0.69957 0.0
O131 O 0.25595 0.46782 0.70027 0.0
O132 O 0.22834 0.3483 0.77887 0.0
O133 O 0.38001 0.40421 0.78829 0.0
O134 O 0.0247 0.31437 0.57266 0.0
O135 O 0.23544 0.33231 0.6306 0.0
O136 O 0.25137 0.24849 0.69351 0.0
O137 O 0.13307 0.20764 0.63839 0.0
O138 O 0.17868 0.22088 0.56969 0.0
O139 O 0.13769 0.36059 0.57545 0.0
C140 C 0.16135 0.34861 0.76181 0.0
C141 C 0.52941 0.35932 0.58944 0.0
C142 C 0.5297 0.28763 0.5879 0.0
C143 C 0.36306 0.47281 0.82371 0.0
C144 C 0.34985 0.48906 0.88234 0.0
C145 C 0.33246 0.56295 0.92148 0.0
C146 C 0.35201 0.43201 0.89945 0.0
C147 C 0.33669 0.44974 0.95536 0.0
C148 C 0.31396 0.57868 0.97556 0.0
C149 C 0.31519 0.522 0.99204 0.0
C150 C 0.1903 0.48749 0.70566 0.0
C151 C 0.24288 0.26685 0.58744 0.0
C152 C 0.07093 0.33877 0.54744 0.0
C153 C 0.06295 0.2886 0.48274 0.0
C154 C 0.10617 0.22941 0.45728 0.0
C155 C 0.01138 0.29696 0.44576 0.0
C156 C 0.00314 0.24515 0.38454 0.0
C157 C 0.09628 0.17704 0.39728 0.0
C158 C 0.04448 0.18418 0.36116 0.0
C159 C 0.18786 0.19746 0.66694 0.0
H160 H 0.33087 0.60774 0.90944 0.0
H161 H 0.367 0.37525 0.87045 0.0
H162 H 0.29811 0.63482 1.00438 0.0
H163 H 0.3008 0.53436 0.03408 0.0
H164 H 0.14784 0.22291 0.48343 0.0
H165 H 0.97943 0.34402 0.46409 0.0
H166 H 0.1298 0.13152 0.37865 0.0
H167 H 0.03904 0.14419 0.31432 0.0
Gd168 Gd 0.88376 0.97386 0.06161 0.0
Gd169 Gd 0.87924 0.15887 0.05742 0.0
C170 C 0.77594 0.36669 0.186 0.0
C171 C 0.64718 0.32508 0.14101 0.0
C172 C 0.73915 0.24698 0.09101 0.0
C173 C 0.79333 0.29825 0.13823 0.0
C174 C 0.66622 0.26216 0.09081 0.0
C175 C 0.70204 0.3777 0.18836 0.0
C176 C 0.83376 0.424 0.22849 0.0
C177 C 0.90689 0.41542 0.22005 0.0
N178 N 0.86426 0.28538 0.13489 0.0
C179 C 0.92103 0.3469 0.17173 0.0
H180 H 0.97773 0.34596 0.16369 0.0
C181 C 0.70929 0.13848 0.99408 0.0
N182 N 0.75834 0.18321 0.04472 0.0
C183 C 0.63751 0.15406 0.99076 0.0
C184 C 0.61516 0.21468 0.03985 0.0
H185 H 0.7234 0.08904 0.95622 0.0
H186 H 0.68725 0.42838 0.22557 0.0
H187 H 0.72452 0.9926 0.99671 0.0
H188 H 0.82281 0.47752 0.26562 0.0
H189 H 0.95251 0.46234 0.24999 0.0
H190 H 0.59072 0.33481 0.14343 0.0
H191 H 0.01426 0.8607 0.03437 0.0
H192 H 0.6294 0.76868 0.84806 0.0
H193 H 0.61976 0.90644 0.92052 0.0
H194 H 0.82791 0.62491 0.81236 0.0
H195 H 0.59866 0.1175 0.95087 0.0
H196 H 0.55883 0.2249 0.03767 0.0
H197 H 0.7094 0.66672 0.80612 0.0
H198 H 0.04034 0.73391 0.95796 0.0
N199 N 0.78593 0.90138 0.97961 0.0
C200 C 0.67357 0.80531 0.88443 0.0
C201 C 0.66759 0.88255 0.92544 0.0
C202 C 0.73923 0.77874 0.88824 0.0
C203 C 0.79522 0.82876 0.93683 0.0
C204 C 0.72597 0.93076 0.9709 0.0
N205 N 0.91526 0.85529 0.98671 0.0
C206 C 0.8624 0.80598 0.93976 0.0
C207 C 0.99181 0.75536 0.95117 0.0
C208 C 0.94093 0.70744 0.90075 0.0
C209 C 0.97772 0.82876 0.99395 0.0
C210 C 0.87453 0.7315 0.89502 0.0
H211 H 0.95182 0.65036 0.86787 0.0
O212 O 0.94608 0.93473 0.11136 0.0
O213 O 0.89346 0.10744 0.11275 0.0
O214 O -0.00366 0.15037 0.09204 0.0
O215 O -0.00549 0.01464 0.04541 0.0
O216 O 0.92565 0.06182 0.16059 0.0
O217 O 0.82501 0.90264 0.09257 0.0
O218 O 0.89317 0.18034 0.98579 0.0
O219 O 0.89887 0.03443 1.01032 0.0
O220 O 0.77354 0.99902 0.08426 0.0
O221 O 0.78063 0.12885 0.10151 0.0
O222 O 0.84367 0.06705 0.96067 0.0
O223 O 0.97223 0.24756 0.06501 0.0
C224 C 0.9162 0.12795 0.16512 0.0
C225 C 0.81917 0.6819 0.84697 0.0
C226 C 0.75153 0.70534 0.8437 0.0
C227 C 0.88555 0.89946 0.11891 0.0
C228 C 0.88595 0.82687 0.12163 0.0
C229 C 0.87292 0.75158 0.07079 0.0
C230 C 0.8883 0.83277 0.17655 0.0
C231 C 0.87339 0.76394 0.18077 0.0
C232 C 0.86124 0.68302 0.07474 0.0
C233 C 0.86002 0.68898 0.12916 0.0
C234 C 0.03091 0.08872 0.07915 0.0
C235 C 0.87385 1.01059 0.95803 0.0
C236 C 0.95232 0.23581 1.01308 0.0
C237 C 0.95726 0.30519 1.00469 0.0
C238 C 0.91985 0.36725 0.03738 0.0
C239 C -0.005 0.3062 0.95998 0.0
C240 C -0.00544 0.36823 0.94764 0.0
C241 C 0.91961 0.4289 0.02573 0.0
C242 C 0.95583 0.42905 0.98094 0.0
C243 C 0.75001 0.06643 0.1066 0.0
H244 H 0.86918 0.74571 0.02815 0.0
H245 H 0.89691 0.89093 0.21592 0.0
H246 H 0.85057 0.62497 0.03534 0.0
H247 H 0.84788 0.63508 0.13104 0.0
H248 H 0.88959 0.36728 0.07109 0.0
H249 H 0.02309 0.25781 0.93381 0.0
H250 H 0.89011 0.47627 0.05097 0.0
H251 H 0.95338 0.47662 0.97203 0.0
Gd252 Gd 0.16648 0.84733 0.70624 0.0
Gd253 Gd 0.97866 0.78769 0.6231 0.0
C254 C 0.73743 0.74347 0.65252 0.0
C255 C 0.70372 0.5995 0.59446 0.0
C256 C 0.82783 0.66652 0.59926 0.0
C257 C 0.80969 0.73947 0.63669 0.0
C258 C 0.77441 0.59583 0.57664 0.0
C259 C 0.68503 0.67312 0.63188 0.0
C260 C 0.71988 0.81804 0.68874 0.0
C261 C 0.77396 0.88634 0.70906 0.0
N262 N 0.86241 0.80649 0.65748 0.0
C263 C 0.84518 0.8796 0.6933 0.0
H264 H 0.88532 0.93375 0.71005 0.0
C265 C 0.91309 0.59561 0.53979 0.0
N266 N 0.89673 0.6648 0.58313 0.0
C267 C 0.86232 0.52387 0.51644 0.0
C268 C 0.79301 0.52377 0.53566 0.0
H269 H 0.96591 0.59588 0.5239 0.0
H270 H 0.62973 0.675 0.64433 0.0
H271 H 0.21664 0.67134 0.60304 0.0
H272 H 0.66496 0.82353 0.7016 0.0
H273 H 0.76101 0.94438 0.73736 0.0
H274 H 0.66272 0.54598 0.57909 0.0
H275 H 0.22868 0.04731 0.79509 0.0
H276 H 0.40019 0.72974 0.53326 0.0
H277 H 0.30378 0.63012 0.53401 0.0
H278 H 0.47495 1.01019 0.65659 0.0
H279 H 0.87643 0.46891 0.48331 0.0
H280 H 0.75346 0.46823 0.51724 0.0
H281 H 0.46404 0.87076 0.57986 0.0
H282 H 0.33587 0.14772 0.81094 0.0
N283 N 0.25257 0.79683 0.63844 0.0
C284 C 0.35953 0.74923 0.56306 0.0
C285 C 0.30527 0.69293 0.56326 0.0
C286 C 0.36316 0.82974 0.6034 0.0
C287 C 0.30816 0.85245 0.64095 0.0
C288 C 0.25382 0.71757 0.60242 0.0
N289 N 0.25997 0.95319 0.71921 0.0
C290 C 0.31274 0.93217 0.68296 0.0
C291 C 0.32923 0.08779 0.77403 0.0
C292 C 0.38167 0.0679 0.73589 0.0
C293 C 0.26863 0.02993 0.76496 0.0
C294 C 0.37413 0.98959 0.68978 0.0
H295 H 0.42896 0.11298 0.7436 0.0
O296 O 0.27187 0.8555 0.75229 0.0
O297 O 0.04341 0.82408 0.71225 0.0
O298 O 0.00208 0.91972 0.6831 0.0
O299 O 0.13028 0.9567 0.71605 0.0
O300 O 0.11289 0.92129 0.78345 0.0
O301 O 0.1721 0.80386 0.76763 0.0
O302 O 0.96483 0.75357 0.53166 0.0
O303 O 0.10157 0.82527 0.62563 0.0
O304 O 0.11871 0.71785 0.64527 0.0
O305 O 0.99337 0.69561 0.64702 0.0
O306 O 0.04734 0.72869 0.54985 0.0
O307 O 0.91869 0.8525 0.594 0.0
C308 C 0.04556 0.87983 0.76576 0.0
C309 C 0.42782 0.96687 0.652 0.0
C310 C 0.42174 0.88742 0.6084 0.0
C311 C 0.24275 0.83248 0.78572 0.0
C312 C 0.26654 0.8893 0.84936 0.0
C313 C 0.26697 0.97035 0.87108 0.0
C314 C 0.28793 0.86529 0.88892 0.0
C315 C 0.30787 0.92277 0.94925 0.0
C316 C 0.289 0.02697 0.9298 0.0
C317 C 0.3093 1.00341 0.96872 0.0
C318 C 0.06422 0.97276 0.70797 0.0
C319 C 0.11002 0.77793 0.57346 0.0
C320 C 0.92875 0.80956 0.53964 0.0
C321 C 0.86744 0.78694 0.49312 0.0
C322 C 0.7962 0.75026 0.49281 0.0
C323 C 0.88296 0.79542 0.44518 0.0
C324 C 0.82838 0.7649 0.39613 0.0
C325 C 0.74125 0.72161 0.44485 0.0
C326 C 0.75727 0.72821 0.3966 0.0
C327 C 0.05889 0.67637 0.64869 0.0
H328 H 0.24816 0.98969 0.84269 0.0
H329 H 0.28701 0.80292 0.87344 0.0
H330 H 0.2885 0.08909 0.94538 0.0
H331 H 0.32403 0.04813 1.01471 0.0
H332 H 0.78348 0.74256 0.529 0.0
H333 H 0.93819 0.8233 0.44511 0.0
H334 H 0.68637 0.69298 0.44463 0.0
H335 H 0.71427 0.70437 0.35944 0.0
C336 C 0.12575 0.1721 0.16944 0.0
C337 C 0.09756 0.09867 0.11908 0.0
C338 C 0.12501 0.03152 0.17145 0.0
C339 C 0.15419 0.10406 0.22245 0.0
N340 N 0.14852 0.2438 0.27375 0.0
N341 N 0.1177 0.96482 0.0679 0.0
C342 C 0.14471 0.17463 0.22273 0.0
C343 C 0.11182 0.03022 0.11857 0.0
N344 N 0.14021 0.23832 0.16517 0.0
N345 N 0.10128 0.96578 0.17453 0.0
H346 H 0.11502 0.9632 0.02808 0.0
H347 H 0.11502 0.9632 0.02808 0.0
H348 H 0.09904 0.97013 0.21494 0.0
H349 H 0.07593 0.91168 0.1377 0.0
H350 H 0.16478 0.29392 0.20063 0.0
H351 H 0.13032 0.23536 0.12511 0.0
H352 H 0.15707 0.24864 0.31452 0.0
H353 H 0.15707 0.24864 0.31452 0.0
C354 C 0.11837 0.11247 0.75728 0.0
C355 C 0.06456 0.05002 0.71384 0.0
C356 C 0.10728 0.07301 0.63955 0.0
C357 C 0.16509 0.13481 0.68092 0.0
N358 N 0.22904 0.21034 0.78126 0.0
N359 N 0.98038 1.01086 0.62887 0.0
C360 C 0.17175 0.15438 0.74086 0.0
C361 C 0.04962 0.04396 0.6599 0.0
N362 N 0.11926 0.12704 0.81301 0.0
N363 N 0.10732 0.04359 0.58119 0.0
H364 H 0.93609 0.99864 0.64796 0.0
H365 H 0.96649 1.00458 0.58824 0.0
H366 H 0.15132 0.06297 0.56528 0.0
H367 H 0.06822 0.99473 0.54959 0.0
H368 H 0.15719 0.17062 0.84882 0.0
H369 H 0.07889 0.09433 0.8229 0.0
H370 H 0.23247 0.23301 0.82598 0.0
H371 H 0.27701 0.2303 0.77006 0.0
C372 C 0.69195 0.049 0.18515 0.0
C373 C 0.68727 0.07005 0.14075 0.0
C374 C 0.56294 0.09577 0.15996 0.0
C375 C 0.56917 0.08033 0.20695 0.0
N376 N 0.64304 0.05327 0.2694 0.0
N377 N 0.60619 0.07916 0.07185 0.0
C378 C 0.63385 0.05783 0.22 0.0
C379 C 0.61985 0.08516 0.12481 0.0
N380 N 0.75315 0.02337 0.19577 0.0
N381 N 0.50105 0.11846 0.14722 0.0
H382 H 0.64389 0.06333 0.04234 0.0
H383 H 0.55464 0.07955 0.05374 0.0
H384 H 0.45158 0.11101 0.16218 0.0
H385 H 0.49933 0.14561 0.12234 0.0
H386 H 0.75471 0.99386 0.21891 0.0
H387 H 0.80276 0.0305 0.18077 0.0
H388 H 0.69032 0.04094 0.28404 0.0
H389 H 0.60515 0.0686 0.29921 0.0
C390 C 0.17848 0.55103 0.6489 0.0
C391 C 0.17397 0.55585 0.7028 0.0
C392 C 0.07206 0.6283 0.71734 0.0
C393 C 0.07159 0.61312 0.65941 0.0
N394 N 0.10903 0.53875 0.56476 0.0
N395 N 0.1229 0.60574 0.79258 0.0
C396 C 0.11851 0.56515 0.62305 0.0
C397 C 0.12278 0.5974 0.73865 0.0
N398 N 0.24211 0.53888 0.62462 0.0
N399 N 0.02584 0.67402 0.75204 0.0
H400 H 0.16538 0.59049 0.81027 0.0
H401 H 0.0822 0.62708 0.81912 0.0
H402 H 0.98217 0.68774 0.73474 0.0
H403 H 0.02999 0.69697 0.79689 0.0
H404 H 0.24962 0.5401 0.58659 0.0
H405 H 0.29002 0.53918 0.6475 0.0
H406 H 0.14041 0.50007 0.53597 0.0
H407 H 0.06531 0.55042 0.5454 0.0
C408 C 0.3293 0.18677 0.52003 0.0
C409 C 0.29625 0.25509 0.54434 0.0
C410 C 0.32138 0.26937 0.46069 0.0
C411 C 0.36277 0.20676 0.43932 0.0
N412 N 0.43459 0.13839 0.47348 0.0
N413 N 0.29082 0.37811 0.54684 0.0
C414 C 0.37559 0.17476 0.47625 0.0
C415 C 0.30251 0.30215 0.51799 0.0
N416 N 0.31908 0.1346 0.53956 0.0
N417 N 0.29668 0.29652 0.42659 0.0
H418 H 0.28289 0.4059 0.59024 0.0
H419 H 0.30033 0.41594 0.5302 0.0
H420 H 0.30697 0.27265 0.38441 0.0
H421 H 0.26005 0.33634 0.43868 0.0
H422 H 0.33768 0.0807 0.5193 0.0
H423 H 0.28856 0.14325 0.57345 0.0
H424 H 0.44425 0.1139 0.49938 0.0
H425 H 0.48047 0.14552 0.45404 0.0
C426 C 0.04539 0.29825 0.79372 0.0
C427 C 0.10361 0.36117 0.80319 0.0
C428 C 0.08835 0.43103 0.90793 0.0
C429 C 0.03063 0.3677 0.89783 0.0
N430 N 0.93782 0.25568 0.82753 0.0
N431 N 0.1627 0.49764 0.86682 0.0
C432 C 0.00415 0.3058 0.83958 0.0
C433 C 0.11893 0.43093 0.8596 0.0
N434 N 0.02959 0.2301 0.74103 0.0
N435 N 0.11684 0.48942 0.96395 0.0
H436 H 0.18653 0.49834 0.83252 0.0
H437 H 0.16882 0.55336 0.90447 0.0
H438 H 0.09941 0.48924 1.00043 0.0
H439 H 0.16179 0.53478 0.97456 0.0
H440 H 0.99276 0.17934 0.7325 0.0
H441 H 0.05485 0.22458 0.70605 0.0
H442 H 0.91074 0.2154 0.78533 0.0
H443 H 0.90543 0.26023 0.85963 0.0
C444 C 0.80612 0.81509 0.32725 0.0
C445 C 0.84502 0.77016 0.34368 0.0
C446 C 0.91213 0.73361 0.25928 0.0
C447 C 0.86643 0.76986 0.23858 0.0
N448 N 0.75837 0.83115 0.2483 0.0
N449 N 0.93317 0.68185 0.3224 0.0
C450 C 0.81053 0.80735 0.27154 0.0
C451 C 0.89737 0.72822 0.30891 0.0
N452 N 0.76644 0.86701 0.36559 0.0
N453 N 0.97055 0.70302 0.23246 0.0
H454 H 0.92214 0.67228 0.35653 0.0
H455 H 0.97174 0.65014 0.29758 0.0
H456 H 0.98779 0.70635 0.19698 0.0
H457 H 0.98779 0.70635 0.19698 0.0
H458 H 0.74347 0.90748 0.35852 0.0
H459 H 0.76312 0.8755 0.4072 0.0
H460 H 0.71221 0.85129 0.26804 0.0
H461 H 0.75649 0.82314 0.20655 0.0
C462 C 0.3928 0.9292 0.02896 0.0
C463 C 0.32171 0.90275 0.99531 0.0
C464 C 0.26696 0.90988 0.07882 0.0
C465 C 0.33435 0.95741 0.11548 0.0
N466 N 0.46123 0.93988 0.11214 0.0
N467 N 0.19569 0.83757 0.98102 0.0
C468 C 0.39854 0.94708 0.08744 0.0
C469 C 0.26043 0.88109 1.01758 0.0
N470 N 0.45569 0.93626 1.00592 0.0
N471 N 0.21175 0.88859 0.10261 0.0
H472 H 0.19076 0.81487 0.93614 0.0
H473 H 0.14749 0.82288 0.99483 0.0
H474 H 0.21723 0.91352 0.14731 0.0
H475 H 0.16477 0.84469 0.07891 0.0
H476 H 0.45515 0.92217 0.9626 0.0
H477 H 0.45515 0.92217 0.9626 0.0
H478 H 0.50817 0.92762 0.091 0.0
H479 H 0.461 0.93428 0.14878 0.0
C480 C 0.87653 0.90494 0.85113 0.0
C481 C 0.91439 0.96594 0.90728 0.0
C482 C 0.03132 0.93688 0.87102 0.0
C483 C -0.00367 0.88928 0.81246 0.0
N484 N 0.88624 0.7932 0.75639 0.0
N485 N 0.03058 0.05812 0.95837 0.0
C486 C 0.91843 0.8631 0.80451 0.0
C487 C 0.99259 0.98671 0.91414 0.0
N488 N 0.8009 0.8914 0.84084 0.0
N489 N 0.0998 0.92905 0.88699 0.0
H490 H 0.00345 0.10268 0.98574 0.0
H491 H 0.08792 0.07591 0.962 0.0
H492 H 0.12272 0.88113 0.85847 0.0
H493 H 0.12571 0.96061 0.9303 0.0
H494 H 0.76979 0.84999 0.80048 0.0
H495 H 0.76982 0.92686 0.87182 0.0
H496 H 0.83282 0.76337 0.75242 0.0
H497 H 0.91662 0.76214 0.72332 0.0
C498 C 0.2516 0.87734 0.514 0.0
C499 C 0.24055 0.81744 0.45418 0.0
C500 C 0.16432 0.72831 0.47875 0.0
C501 C 0.16196 0.79281 0.53574 0.0
N502 N 0.19398 0.93588 0.60065 0.0
N503 N 0.17059 0.68983 0.37802 0.0
C504 C 0.20312 0.86947 0.55157 0.0
C505 C 0.19227 0.74397 0.43605 0.0
N506 N 0.30873 0.94124 0.53535 0.0
N507 N 0.14231 0.65154 0.46543 0.0
H508 H 0.18609 0.70075 0.34528 0.0
H509 H 0.13055 0.63841 0.36302 0.0
H510 H 0.12729 0.63682 0.49646 0.0
H511 H 0.14856 0.60285 0.42573 0.0
H512 H 0.32218 0.98455 0.57943 0.0
H513 H 0.34817 0.94647 0.51019 0.0
H514 H 0.2231 0.99261 0.61413 0.0
H515 H 0.15028 0.93569 0.62312 0.0
C516 C 0.28526 0.36392 0.99407 0.0
C517 C 0.34795 0.39801 0.97979 0.0
C518 C 0.42966 0.37847 0.04546 0.0
C519 C 0.36671 0.36077 0.06842 0.0
N520 N 0.23259 0.32379 0.05733 0.0
N521 N 0.48126 0.43582 0.99026 0.0
C522 C 0.2943 0.34826 0.04013 0.0
C523 C 0.42078 0.40246 1.00367 0.0
N524 N 0.21603 0.35027 0.96551 0.0
N525 N 0.49796 0.37288 0.06432 0.0
H526 H 0.47755 0.45221 0.95881 0.0
H527 H 0.53495 0.45089 1.01219 0.0
H528 H 0.50482 0.35547 0.09492 0.0
H529 H 0.54562 0.37752 0.04588 0.0
H530 H 0.16814 0.32721 0.97565 0.0
H531 H 0.20784 0.35917 0.93033 0.0
H532 H 0.2343 0.31081 0.09078 0.0
H533 H 0.2343 0.31081 0.09078 0.0
C534 C 0.98071 0.26274 0.25455 0.0
C535 C 0.91576 0.2033 0.22351 0.0
C536 C 0.88814 0.21293 0.31485 0.0
C537 C 0.96009 0.25754 0.34202 0.0
N538 N 0.05742 0.35711 0.34916 0.0
N539 N 0.79188 0.20334 0.24598 0.0
C540 C -0.0003 0.29506 0.31591 0.0
C541 C 0.86297 0.19926 0.25889 0.0
N542 N 0.02249 0.2893 0.22573 0.0
N543 N 0.8434 0.18554 0.34243 0.0
H544 H 0.77682 0.21114 0.21119 0.0
H545 H 0.7528 0.21037 0.27443 0.0
H546 H 0.8602 0.19759 0.38456 0.0
H547 H 0.7909 0.15035 0.32216 0.0
H548 H 0.06561 0.33848 0.24546 0.0
H549 H 0.01056 0.2617 0.18103 0.0
H550 H 0.08991 0.38861 0.33399 0.0
H551 H 0.07031 0.37959 0.3939 0.0
loop_
_geom_bond_atom_site_label_1
_geom_bond_atom_site_label_2
_geom_bond_distance
_geom_bond_site_symmetry_2
_ccdc_geom_bond_type
Gd0 N31 2.661 . S
Gd0 N37 2.601 . S
Gd0 O44 2.545 . S
Gd0 O45 2.606 1_565 S
Gd0 O47 2.429 . S
Gd0 O48 2.545 1_565 S
Gd0 O49 2.412 . S
Gd0 O51 2.362 . S
Gd0 O52 2.324 . S
Gd0 C59 2.828 . S
Gd1 N10 2.661 . S
Gd1 N14 2.601 . S
Gd1 O45 2.362 . S
Gd1 O46 2.324 . S
Gd1 O50 2.545 . S
Gd1 O51 2.606 1_545 S
Gd1 O53 2.429 . S
Gd1 O54 2.545 . S
Gd1 O55 2.412 . S
Gd1 C68 2.828 . S
C2 C5 1.417 . S
C2 C7 1.431 . S
C2 C8 1.412 . S
C3 C6 1.437 . S
C3 C7 1.317 . S
C3 H22 0.929 . S
C4 C5 1.426 . S
C4 C6 1.413 . S
C4 N14 1.359 . S
C5 C2 1.417 . S
C5 C4 1.426 . S
C5 N10 1.350 . S
C6 C3 1.437 . S
C6 C4 1.413 . S
C6 C16 1.391 . S
C7 C2 1.431 . S
C7 C3 1.317 . S
C7 H18 0.930 . S
C8 C2 1.412 . S
C8 C9 1.355 . S
C8 H20 0.930 . S
C9 C8 1.355 . S
C9 C11 1.402 . S
C9 H21 0.930 . S
N10 Gd1 2.661 . S
N10 C5 1.350 . S
N10 C11 1.307 . S
C11 C9 1.402 . S
C11 N10 1.307 . S
C11 H12 0.930 . S
H12 C11 0.930 . S
C13 N14 1.334 . S
C13 C15 1.394 . S
C13 H17 0.930 . S
N14 Gd1 2.601 . S
N14 C4 1.359 . S
N14 C13 1.334 . S
C15 C13 1.394 . S
C15 C16 1.359 . S
C15 H27 0.930 . S
C16 C6 1.391 . S
C16 C15 1.359 . S
C16 H28 0.929 . S
H17 C13 0.930 . S
H18 C7 0.930 . S
H19 C36 0.930 . S
H20 C8 0.930 . S
H21 C9 0.930 . S
H22 C3 0.929 . S
H23 C41 0.930 . S
H24 C32 0.930 1_556 S
H25 C33 0.930 . S
H26 C57 0.929 1_556 S
H27 C15 0.930 . S
H28 C16 0.929 . S
H29 C58 0.930 . S
H30 C39 0.930 . S
N31 Gd0 2.661 . S
N31 C35 1.350 . S
N31 C36 1.307 . S
C32 H24 0.930 1_554 S
C32 C33 1.355 . S
C32 C34 1.412 . S
C33 H25 0.930 . S
C33 C32 1.355 . S
C33 C36 1.402 . S
C34 C32 1.412 . S
C34 C35 1.417 . S
C34 C58 1.431 1_554 S
C35 N31 1.350 . S
C35 C34 1.417 . S
C35 C38 1.426 . S
C36 H19 0.930 . S
C36 N31 1.307 . S
C36 C33 1.402 . S
N37 Gd0 2.601 . S
N37 C38 1.359 . S
N37 C41 1.334 . S
C38 C35 1.426 . S
C38 N37 1.359 . S
C38 C42 1.413 . S
C39 H30 0.930 . S
C39 C40 1.359 . S
C39 C41 1.394 . S
C40 C39 1.359 . S
C40 C42 1.391 . S
C40 H43 0.929 . S
C41 H23 0.930 . S
C41 N37 1.334 . S
C41 C39 1.394 . S
C42 C38 1.413 . S
C42 C40 1.391 . S
C42 C57 1.437 . S
H43 C40 0.929 . S
O44 Gd0 2.545 . S
O44 C59 1.258 . S
O45 Gd0 2.606 1_545 S
O45 Gd1 2.362 . S
O45 C56 1.284 . S
O46 Gd1 2.324 . S
O46 C66 1.254 . S
O47 Gd0 2.429 . S
O47 C66 1.268 1_565 S
O48 Gd0 2.545 1_545 S
O48 C56 1.250 . S
O49 Gd0 2.412 . S
O49 C59 1.252 . S
O50 Gd1 2.545 . S
O50 C68 1.258 . S
O51 Gd0 2.362 . S
O51 Gd1 2.606 1_565 S
O51 C67 1.284 . S
O52 Gd0 2.324 . S
O52 C75 1.254 1_565 S
O53 Gd1 2.429 . S
O53 C75 1.268 . S
O54 Gd1 2.545 . S
O54 C67 1.250 1_545 S
O55 Gd1 2.412 . S
O55 C68 1.252 . S
C56 O45 1.284 . S
C56 O48 1.250 . S
C57 H26 0.929 1_554 S
C57 C42 1.437 . S
C57 C58 1.317 1_554 S
C58 H29 0.930 . S
C58 C34 1.431 1_556 S
C58 C57 1.317 1_556 S
C59 Gd0 2.828 . S
C59 O44 1.258 . S
C59 O49 1.252 . S
C59 C60 1.497 . S
C60 C59 1.497 . S
C60 C61 1.395 . S
C60 C62 1.380 . S
C61 C60 1.395 . S
C61 C64 1.398 . S
C61 H76 0.930 . S
C62 C60 1.380 . S
C62 C63 1.391 . S
C62 H77 0.930 . S
C63 C62 1.391 . S
C63 C65 1.387 . S
C64 C61 1.398 . S
C64 C65 1.380 . S
C64 H78 0.930 . S
C65 C63 1.387 . S
C65 C64 1.380 . S
C65 H79 0.930 . S
C66 O46 1.254 . S
C66 O47 1.268 1_545 S
C67 O51 1.284 . S
C67 O54 1.250 1_565 S
C68 Gd1 2.828 . S
C68 O50 1.258 . S
C68 O55 1.252 . S
C68 C69 1.497 . S
C69 C68 1.497 . S
C69 C70 1.395 . S
C69 C71 1.380 . S
C70 C69 1.395 . S
C70 C73 1.398 . S
C70 H80 0.930 . S
C71 C69 1.380 . S
C71 C72 1.391 . S
C71 H81 0.930 . S
C72 C71 1.391 . S
C72 C74 1.387 . S
C73 C70 1.398 . S
C73 C74 1.380 . S
C73 H82 0.930 . S
C74 C72 1.387 . S
C74 C73 1.380 . S
C74 H83 0.930 . S
C75 O52 1.254 1_545 S
C75 O53 1.268 . S
H76 C61 0.930 . S
H77 C62 0.930 . S
H78 C64 0.930 . S
H79 C65 0.930 . S
H80 C70 0.930 . S
H81 C71 0.930 . S
H82 C73 0.930 . S
H83 C74 0.930 . S
Gd84 N115 2.661 . S
Gd84 N121 2.601 . S
Gd84 O128 2.545 . S
Gd84 O129 2.606 . S
Gd84 O131 2.429 . S
Gd84 O132 2.545 . S
Gd84 O133 2.412 . S
Gd84 O135 2.362 . S
Gd84 O136 2.324 . S
Gd84 C143 2.828 . S
Gd85 N94 2.661 . S
Gd85 N98 2.601 . S
Gd85 O129 2.362 . S
Gd85 O130 2.324 . S
Gd85 O134 2.545 . S
Gd85 O135 2.606 . S
Gd85 O137 2.429 . S
Gd85 O138 2.545 . S
Gd85 O139 2.412 . S
Gd85 C152 2.828 . S
C86 C89 1.417 . S
C86 C91 1.431 . S
C86 C92 1.412 . S
C87 C90 1.437 . S
C87 C91 1.317 . S
C87 H106 0.929 . S
C88 C89 1.426 . S
C88 C90 1.413 . S
C88 N98 1.359 1_655 S
C89 C86 1.417 . S
C89 C88 1.426 . S
C89 N94 1.350 1_655 S
C90 C87 1.437 . S
C90 C88 1.413 . S
C90 C100 1.391 . S
C91 C86 1.431 . S
C91 C87 1.317 . S
C91 H102 0.930 . S
C92 C86 1.412 . S
C92 C93 1.355 . S
C92 H104 0.930 . S
C93 C92 1.355 . S
C93 C95 1.402 1_655 S
C93 H105 0.930 . S
N94 Gd85 2.661 . S
N94 C89 1.350 1_455 S
N94 C95 1.307 . S
C95 C93 1.402 1_455 S
C95 N94 1.307 . S
C95 H96 0.930 . S
H96 C95 0.930 . S
C97 N98 1.334 1_655 S
C97 C99 1.394 . S
C97 H101 0.930 1_655 S
N98 Gd85 2.601 . S
N98 C88 1.359 1_455 S
N98 C97 1.334 1_455 S
C99 C97 1.394 . S
C99 C100 1.359 . S
C99 H111 0.931 . S
C100 C90 1.391 . S
C100 C99 1.359 . S
C100 H112 0.929 . S
H101 C97 0.930 1_455 S
H102 C91 0.930 . S
H103 C120 0.930 . S
H104 C92 0.930 . S
H105 C93 0.930 . S
H106 C87 0.929 . S
H107 C125 0.930 . S
H108 C116 0.930 . S
H109 C117 0.930 . S
H110 C141 0.929 . S
H111 C99 0.931 . S
H112 C100 0.929 . S
H113 C142 0.930 . S
H114 C123 0.930 . S
N115 Gd84 2.661 . S
N115 C119 1.350 . S
N115 C120 1.307 . S
C116 H108 0.930 . S
C116 C117 1.355 . S
C116 C118 1.412 . S
C117 H109 0.930 . S
C117 C116 1.355 . S
C117 C120 1.402 . S
C118 C116 1.412 . S
C118 C119 1.417 . S
C118 C142 1.431 . S
C119 N115 1.350 . S
C119 C118 1.417 . S
C119 C122 1.426 . S
C120 H103 0.930 . S
C120 N115 1.307 . S
C120 C117 1.402 . S
N121 Gd84 2.601 . S
N121 C122 1.359 . S
N121 C125 1.334 . S
C122 C119 1.426 . S
C122 N121 1.359 . S
C122 C126 1.413 . S
C123 H114 0.930 . S
C123 C124 1.359 . S
C123 C125 1.394 . S
C124 C123 1.359 . S
C124 C126 1.391 . S
C124 H127 0.929 . S
C125 H107 0.930 . S
C125 N121 1.334 . S
C125 C123 1.394 . S
C126 C122 1.413 . S
C126 C124 1.391 . S
C126 C141 1.437 . S
H127 C124 0.929 . S
O128 Gd84 2.545 . S
O128 C143 1.258 . S
O129 Gd84 2.606 . S
O129 Gd85 2.362 . S
O129 C140 1.284 . S
O130 Gd85 2.324 . S
O130 C150 1.254 . S
O131 Gd84 2.429 . S
O131 C150 1.268 . S
O132 Gd84 2.545 . S
O132 C140 1.250 . S
O133 Gd84 2.412 . S
O133 C143 1.252 . S
O134 Gd85 2.545 . S
O134 C152 1.258 . S
O135 Gd84 2.362 . S
O135 Gd85 2.606 . S
O135 C151 1.284 . S
O136 Gd84 2.324 . S
O136 C159 1.254 . S
O137 Gd85 2.429 . S
O137 C159 1.268 . S
O138 Gd85 2.545 . S
O138 C151 1.250 . S
O139 Gd85 2.412 . S
O139 C152 1.252 . S
C140 O129 1.284 . S
C140 O132 1.250 . S
C141 H110 0.929 . S
C141 C126 1.437 . S
C141 C142 1.317 . S
C142 H113 0.930 . S
C142 C118 1.431 . S
C142 C141 1.317 . S
C143 Gd84 2.828 . S
C143 O128 1.258 . S
C143 O133 1.252 . S
C143 C144 1.497 . S
C144 C143 1.497 . S
C144 C145 1.395 . S
C144 C146 1.380 . S
C145 C144 1.395 . S
C145 C148 1.398 . S
C145 H160 0.930 . S
C146 C144 1.380 . S
C146 C147 1.391 . S
C146 H161 0.930 . S
C147 C146 1.391 . S
C147 C149 1.387 . S
C148 C145 1.398 . S
C148 C149 1.380 . S
C148 H162 0.930 . S
C149 C147 1.387 . S
C149 C148 1.380 . S
C149 H163 0.930 . S
C150 O130 1.254 . S
C150 O131 1.268 . S
C151 O135 1.284 . S
C151 O138 1.250 . S
C152 Gd85 2.828 . S
C152 O134 1.258 . S
C152 O139 1.252 . S
C152 C153 1.497 . S
C153 C152 1.497 . S
C153 C154 1.395 1_455 S
C153 C155 1.380 . S
C154 C153 1.395 1_655 S
C154 C157 1.398 . S
C154 H164 0.930 . S
C155 C153 1.380 . S
C155 C156 1.391 1_455 S
C155 H165 0.930 . S
C156 C155 1.391 1_655 S
C156 C158 1.387 . S
C157 C154 1.398 . S
C157 C158 1.380 . S
C157 H166 0.930 . S
C158 C156 1.387 . S
C158 C157 1.380 . S
C158 H167 0.930 . S
C159 O136 1.254 . S
C159 O137 1.268 . S
H160 C145 0.930 . S
H161 C146 0.930 . S
H162 C148 0.930 . S
H163 C149 0.930 . S
H164 C154 0.930 . S
H165 C155 0.930 . S
H166 C157 0.930 . S
H167 C158 0.930 . S
Gd168 N199 2.661 1_545 S
Gd168 N205 2.601 1_545 S
Gd168 O212 2.545 1_545 S
Gd168 O213 2.606 . S
Gd168 O215 2.429 1_655 S
Gd168 O216 2.545 . S
Gd168 O217 2.412 1_545 S
Gd168 O219 2.362 . S
Gd168 O220 2.324 . S
Gd168 C227 2.828 1_545 S
Gd169 N178 2.661 . S
Gd169 N182 2.601 . S
Gd169 O213 2.362 . S
Gd169 O214 2.324 1_655 S
Gd169 O218 2.545 . S
Gd169 O219 2.606 . S
Gd169 O221 2.429 . S
Gd169 O222 2.545 1_554 S
Gd169 O223 2.412 . S
Gd169 C236 2.828 . S
C170 C173 1.417 . S
C170 C175 1.431 . S
C170 C176 1.412 1_655 S
C171 C174 1.437 . S
C171 C175 1.317 . S
C171 H190 0.929 . S
C172 C173 1.426 . S
C172 C174 1.413 . S
C172 N182 1.359 . S
C173 C170 1.417 . S
C173 C172 1.426 . S
C173 N178 1.350 . S
C174 C171 1.437 . S
C174 C172 1.413 . S
C174 C184 1.391 . S
C175 C170 1.431 . S
C175 C171 1.317 . S
C175 H186 0.930 . S
C176 C170 1.412 1_455 S
C176 C177 1.355 . S
C176 H188 0.930 . S
C177 C176 1.355 . S
C177 C179 1.402 . S
C177 H189 0.930 . S
N178 Gd169 2.661 . S
N178 C173 1.350 . S
N178 C179 1.307 1_655 S
C179 C177 1.402 . S
C179 N178 1.307 1_455 S
C179 H180 0.930 . S
H180 C179 0.930 . S
C181 N182 1.334 . S
C181 C183 1.394 . S
C181 H185 0.930 . S
N182 Gd169 2.601 . S
N182 C172 1.359 . S
N182 C181 1.334 . S
C183 C181 1.394 . S
C183 C184 1.359 . S
C183 H195 0.930 . S
C184 C174 1.391 . S
C184 C183 1.359 . S
C184 H196 0.929 . S
H185 C181 0.930 . S
H186 C175 0.930 . S
H187 C204 0.930 1_554 S
H188 C176 0.930 . S
H189 C177 0.930 . S
H190 C171 0.929 . S
H191 C209 0.930 . S
H192 C200 0.930 . S
H193 C201 0.930 . S
H194 C225 0.929 . S
H195 C183 0.930 . S
H196 C184 0.929 . S
H197 C226 0.930 . S
H198 C207 0.930 . S
N199 Gd168 2.661 1_565 S
N199 C203 1.350 1_554 S
N199 C204 1.307 1_554 S
C200 H192 0.930 . S
C200 C201 1.355 . S
C200 C202 1.412 . S
C201 H193 0.930 . S
C201 C200 1.355 . S
C201 C204 1.402 . S
C202 C200 1.412 . S
C202 C203 1.417 . S
C202 C226 1.431 . S
C203 N199 1.350 1_556 S
C203 C202 1.417 . S
C203 C206 1.426 . S
C204 H187 0.930 1_556 S
C204 N199 1.307 1_556 S
C204 C201 1.402 . S
N205 Gd168 2.601 1_565 S
N205 C206 1.359 1_554 S
N205 C209 1.334 1_655 S
C206 C203 1.426 . S
C206 N205 1.359 1_556 S
C206 C210 1.413 . S
C207 H198 0.930 . S
C207 C208 1.359 1_554 S
C207 C209 1.394 . S
C208 C207 1.359 1_556 S
C208 C210 1.391 1_455 S
C208 H211 0.929 . S
C209 H191 0.930 . S
C209 N205 1.334 1_455 S
C209 C207 1.394 . S
C210 C206 1.413 . S
C210 C208 1.391 1_655 S
C210 C225 1.437 . S
H211 C208 0.929 . S
O212 Gd168 2.545 1_565 S
O212 C227 1.258 . S
O213 Gd168 2.606 . S
O213 Gd169 2.362 . S
O213 C224 1.284 . S
O214 Gd169 2.324 1_455 S
O214 C234 1.254 . S
O215 Gd168 2.429 1_455 S
O215 C234 1.268 . S
O216 Gd168 2.545 . S
O216 C224 1.250 . S
O217 Gd168 2.412 1_565 S
O217 C227 1.252 . S
O218 Gd169 2.545 . S
O218 C236 1.258 . S
O219 Gd168 2.362 . S
O219 Gd169 2.606 . S
O219 C235 1.284 1_554 S
O220 Gd168 2.324 . S
O220 C243 1.254 . S
O221 Gd169 2.429 . S
O221 C243 1.268 . S
O222 Gd169 2.545 1_556 S
O222 C235 1.250 . S
O223 Gd169 2.412 . S
O223 C236 1.252 . S
C224 O213 1.284 . S
C224 O216 1.250 . S
C225 H194 0.929 . S
C225 C210 1.437 . S
C225 C226 1.317 . S
C226 H197 0.930 . S
C226 C202 1.431 . S
C226 C225 1.317 . S
C227 Gd168 2.828 1_565 S
C227 O212 1.258 . S
C227 O217 1.252 . S
C227 C228 1.497 . S
C228 C227 1.497 . S
C228 C229 1.395 . S
C228 C230 1.380 . S
C229 C228 1.395 . S
C229 C232 1.398 . S
C229 H244 0.930 . S
C230 C228 1.380 . S
C230 C231 1.391 . S
C230 H245 0.930 . S
C231 C230 1.391 . S
C231 C233 1.387 . S
C232 C229 1.398 . S
C232 C233 1.380 . S
C232 H246 0.930 . S
C233 C231 1.387 . S
C233 C232 1.380 . S
C233 H247 0.930 . S
C234 O214 1.254 . S
C234 O215 1.268 . S
C235 O219 1.284 1_556 S
C235 O222 1.250 . S
C236 Gd169 2.828 . S
C236 O218 1.258 . S
C236 O223 1.252 . S
C236 C237 1.497 1_554 S
C237 C236 1.497 1_556 S
C237 C238 1.395 . S
C237 C239 1.380 . S
C238 C237 1.395 . S
C238 C241 1.398 . S
C238 H248 0.930 1_556 S
C239 C237 1.380 . S
C239 C240 1.393 . S
C239 H249 0.930 1_655 S
C240 C239 1.393 . S
C240 C242 1.396 . S
C241 C238 1.398 . S
C241 C242 1.380 . S
C241 H250 0.930 . S
C242 C240 1.396 . S
C242 C241 1.380 . S
C242 H251 0.930 . S
C243 O220 1.254 . S
C243 O221 1.268 . S
H244 C229 0.930 . S
H245 C230 0.930 . S
H246 C232 0.930 . S
H247 C233 0.930 . S
H248 C238 0.930 1_554 S
H249 C239 0.930 1_455 S
H250 C241 0.930 . S
H251 C242 0.930 . S
Gd252 N283 2.661 . S
Gd252 N289 2.601 . S
Gd252 O296 2.545 . S
Gd252 O297 2.606 1_455 S
Gd252 O299 2.429 . S
Gd252 O300 2.545 . S
Gd252 O301 2.412 . S
Gd252 O303 2.362 . S
Gd252 O304 2.324 . S
Gd252 C311 2.828 . S
Gd253 N262 2.661 . S
Gd253 N266 2.601 . S
Gd253 O297 2.362 . S
Gd253 O298 2.324 . S
Gd253 O302 2.545 . S
Gd253 O303 2.606 1_655 S
Gd253 O305 2.429 . S
Gd253 O306 2.545 1_655 S
Gd253 O307 2.412 . S
Gd253 C320 2.828 . S
C254 C257 1.417 . S
C254 C259 1.431 . S
C254 C260 1.412 . S
C255 C258 1.437 . S
C255 C259 1.317 . S
C255 H274 0.929 . S
C256 C257 1.426 . S
C256 C258 1.413 . S
C256 N266 1.359 . S
C257 C254 1.417 . S
C257 C256 1.426 . S
C257 N262 1.350 . S
C258 C255 1.437 . S
C258 C256 1.413 . S
C258 C268 1.391 . S
C259 C254 1.431 . S
C259 C255 1.317 . S
C259 H270 0.930 . S
C260 C254 1.412 . S
C260 C261 1.355 . S
C260 H272 0.930 . S
C261 C260 1.355 . S
C261 C263 1.402 . S
C261 H273 0.930 1_565 S
N262 Gd253 2.661 . S
N262 C257 1.350 . S
N262 C263 1.307 . S
C263 C261 1.402 . S
C263 N262 1.307 . S
C263 H264 0.930 . S
H264 C263 0.930 . S
C265 N266 1.334 . S
C265 C267 1.394 . S
C265 H269 0.930 . S
N266 Gd253 2.601 . S
N266 C256 1.359 . S
N266 C265 1.334 . S
C267 C265 1.394 . S
C267 C268 1.359 . S
C267 H279 0.930 . S
C268 C258 1.391 . S
C268 C267 1.359 . S
C268 H280 0.929 . S
H269 C265 0.930 . S
H270 C259 0.930 . S
H271 C288 0.930 . S
H272 C260 0.930 . S
H273 C261 0.930 1_545 S
H274 C255 0.929 . S
H275 C293 0.930 . S
H276 C284 0.930 . S
H277 C285 0.930 . S
H278 C309 0.929 . S
H279 C267 0.930 . S
H280 C268 0.929 . S
H281 C310 0.930 . S
H282 C291 0.930 . S
N283 Gd252 2.661 . S
N283 C287 1.350 . S
N283 C288 1.307 . S
C284 H276 0.930 . S
C284 C285 1.355 . S
C284 C286 1.412 . S
C285 H277 0.930 . S
C285 C284 1.355 . S
C285 C288 1.402 . S
C286 C284 1.412 . S
C286 C287 1.417 . S
C286 C310 1.431 . S
C287 N283 1.350 . S
C287 C286 1.417 . S
C287 C290 1.426 . S
C288 H271 0.930 . S
C288 N283 1.307 . S
C288 C285 1.402 . S
N289 Gd252 2.601 . S
N289 C290 1.359 . S
N289 C293 1.334 1_565 S
C290 C287 1.426 . S
C290 N289 1.359 . S
C290 C294 1.413 . S
C291 H282 0.930 . S
C291 C292 1.359 . S
C291 C293 1.394 . S
C292 C291 1.359 . S
C292 C294 1.391 1_545 S
C292 H295 0.929 . S
C293 H275 0.930 . S
C293 N289 1.334 1_545 S
C293 C291 1.394 . S
C294 C290 1.413 . S
C294 C292 1.391 1_565 S
C294 C309 1.437 . S
H295 C292 0.929 . S
O296 Gd252 2.545 . S
O296 C311 1.258 . S
O297 Gd252 2.606 1_655 S
O297 Gd253 2.362 . S
O297 C308 1.284 . S
O298 Gd253 2.324 . S
O298 C318 1.254 1_655 S
O299 Gd252 2.429 . S
O299 C318 1.268 . S
O300 Gd252 2.545 . S
O300 C308 1.250 1_455 S
O301 Gd252 2.412 . S
O301 C311 1.252 . S
O302 Gd253 2.545 . S
O302 C320 1.258 . S
O303 Gd252 2.362 . S
O303 Gd253 2.606 1_455 S
O303 C319 1.284 . S
O304 Gd252 2.324 . S
O304 C327 1.254 . S
O305 Gd253 2.429 . S
O305 C327 1.268 1_655 S
O306 Gd253 2.545 1_455 S
O306 C319 1.250 . S
O307 Gd253 2.412 . S
O307 C320 1.252 . S
C308 O297 1.284 . S
C308 O300 1.250 1_655 S
C309 H278 0.929 . S
C309 C294 1.437 . S
C309 C310 1.317 . S
C310 H281 0.930 . S
C310 C286 1.431 . S
C310 C309 1.317 . S
C311 Gd252 2.828 . S
C311 O296 1.258 . S
C311 O301 1.252 . S
C311 C312 1.497 . S
C312 C311 1.497 . S
C312 C313 1.395 . S
C312 C314 1.380 . S
C313 C312 1.395 . S
C313 C316 1.398 . S
C313 H328 0.930 1_565 S
C314 C312 1.380 . S
C314 C315 1.391 . S
C314 H329 0.930 . S
C315 C314 1.391 . S
C315 C317 1.387 . S
C316 C313 1.398 . S
C316 C317 1.380 . S
C316 H330 0.930 1_565 S
C317 C315 1.387 . S
C317 C316 1.380 . S
C317 H331 0.930 . S
C318 O298 1.254 1_455 S
C318 O299 1.268 . S
C319 O303 1.284 . S
C319 O306 1.250 . S
C320 Gd253 2.828 . S
C320 O302 1.258 . S
C320 O307 1.252 . S
C320 C321 1.497 . S
C321 C320 1.497 . S
C321 C322 1.395 . S
C321 C323 1.380 . S
C322 C321 1.395 . S
C322 C325 1.398 . S
C322 H332 0.930 . S
C323 C321 1.380 . S
C323 C324 1.391 . S
C323 H333 0.930 . S
C324 C323 1.391 . S
C324 C326 1.387 . S
C325 C322 1.398 . S
C325 C326 1.380 . S
C325 H334 0.930 . S
C326 C324 1.387 . S
C326 C325 1.380 . S
C326 H335 0.930 . S
C327 O304 1.254 . S
C327 O305 1.268 1_455 S
H328 C313 0.930 1_545 S
H329 C314 0.930 . S
H330 C316 0.930 1_545 S
H331 C317 0.930 . S
H332 C322 0.930 . S
H333 C323 0.930 . S
H334 C325 0.930 . S
H335 C326 0.930 . S
C336 C337 1.363 . S
C336 C342 1.379 . S
C336 N344 1.356 . S
C337 C336 1.363 . S
C337 C343 1.363 . S
C338 C339 1.363 1_565 S
C338 C343 1.379 1_565 S
C338 N345 1.356 . S
C339 C338 1.363 1_545 S
C339 C342 1.363 . S
N340 C342 1.356 . S
N340 H352 0.984 . S
N340 H353 0.985 . S
N341 C343 1.356 1_565 S
N341 H346 0.984 1_565 S
N341 H347 0.985 1_455 S
C342 C336 1.379 . S
C342 C339 1.363 . S
C342 N340 1.356 . S
C343 C337 1.363 . S
C343 C338 1.379 1_545 S
C343 N341 1.356 1_545 S
N344 C336 1.356 . S
N344 H350 0.984 . S
N344 H351 0.984 . S
N345 C338 1.356 . S
N345 H348 0.984 . S
N345 H349 0.985 . S
H346 N341 0.984 1_545 S
H347 N341 0.985 1_655 S
H348 N345 0.984 . S
H349 N345 0.985 . S
H350 N344 0.984 . S
H351 N344 0.984 . S
H352 N340 0.984 . S
H353 N340 0.985 . S
C354 C355 1.363 . S
C354 C360 1.379 . S
C354 N362 1.356 . S
C355 C354 1.363 . S
C355 C361 1.363 1_545 S
C356 C357 1.363 . S
C356 C361 1.379 1_545 S
C356 N363 1.356 . S
C357 C356 1.363 . S
C357 C360 1.363 . S
N358 C360 1.356 . S
N358 H370 0.984 . S
N358 H371 0.985 . S
N359 C361 1.356 . S
N359 H364 0.984 . S
N359 H365 0.985 . S
C360 C354 1.379 . S
C360 C357 1.363 . S
C360 N358 1.356 . S
C361 C355 1.363 1_565 S
C361 C356 1.379 1_565 S
C361 N359 1.356 . S
N362 C354 1.356 . S
N362 H368 0.984 . S
N362 H369 0.984 . S
N363 C356 1.356 . S
N363 H366 0.984 . S
N363 H367 0.985 1_545 S
H364 N359 0.984 . S
H365 N359 0.985 . S
H366 N363 0.984 . S
H367 N363 0.985 1_565 S
H368 N362 0.984 . S
H369 N362 0.984 . S
H370 N358 0.984 . S
H371 N358 0.985 . S
C372 C373 1.363 . S
C372 C378 1.379 . S
C372 N380 1.356 . S
C373 C372 1.363 . S
C373 C379 1.363 . S
C374 C375 1.363 . S
C374 C379 1.379 . S
C374 N381 1.356 . S
C375 C374 1.363 . S
C375 C378 1.363 . S
N376 C378 1.356 1_565 S
N376 H388 0.984 . S
N376 H389 0.985 . S
N377 C379 1.356 . S
N377 H382 0.984 . S
N377 H383 0.985 . S
C378 C372 1.379 . S
C378 C375 1.363 . S
C378 N376 1.356 1_545 S
C379 C373 1.363 . S
C379 C374 1.379 . S
C379 N377 1.356 . S
N380 C372 1.356 . S
N380 H386 0.984 . S
N380 H387 0.984 . S
N381 C374 1.356 . S
N381 H384 0.984 . S
N381 H385 0.985 . S
H382 N377 0.984 . S
H383 N377 0.985 . S
H384 N381 0.984 . S
H385 N381 0.985 . S
H386 N380 0.984 . S
H387 N380 0.984 . S
H388 N376 0.984 . S
H389 N376 0.985 . S
C390 C391 1.363 . S
C390 C396 1.379 . S
C390 N398 1.356 . S
C391 C390 1.363 . S
C391 C397 1.363 . S
C392 C393 1.363 . S
C392 C397 1.379 . S
C392 N399 1.356 . S
C393 C392 1.363 . S
C393 C396 1.363 . S
N394 C396 1.356 . S
N394 H406 0.984 . S
N394 H407 0.985 . S
N395 C397 1.356 . S
N395 H400 0.984 . S
N395 H401 0.985 . S
C396 C390 1.379 . S
C396 C393 1.363 . S
C396 N394 1.356 . S
C397 C391 1.363 . S
C397 C392 1.379 . S
C397 N395 1.356 . S
N398 C390 1.356 . S
N398 H404 0.984 . S
N398 H405 0.984 . S
N399 C392 1.356 . S
N399 H402 0.984 1_455 S
N399 H403 0.985 1_455 S
H400 N395 0.984 . S
H401 N395 0.985 . S
H402 N399 0.984 1_655 S
H403 N399 0.985 1_655 S
H404 N398 0.984 . S
H405 N398 0.984 . S
H406 N394 0.984 . S
H407 N394 0.985 . S
C408 C409 1.363 . S
C408 C414 1.379 . S
C408 N416 1.356 . S
C409 C408 1.363 . S
C409 C415 1.363 . S
C410 C411 1.363 . S
C410 C415 1.379 . S
C410 N417 1.356 . S
C411 C410 1.363 . S
C411 C414 1.363 . S
N412 C414 1.356 . S
N412 H424 0.984 . S
N412 H425 0.985 . S
N413 C415 1.356 . S
N413 H418 0.984 . S
N413 H419 0.985 . S
C414 C408 1.379 . S
C414 C411 1.363 . S
C414 N412 1.356 . S
C415 C409 1.363 . S
C415 C410 1.379 . S
C415 N413 1.356 . S
N416 C408 1.356 . S
N416 H422 0.984 . S
N416 H423 0.984 . S
N417 C410 1.356 . S
N417 H420 0.984 . S
N417 H421 0.985 . S
H418 N413 0.984 . S
H419 N413 0.985 . S
H420 N417 0.984 . S
H421 N417 0.985 . S
H422 N416 0.984 . S
H423 N416 0.984 . S
H424 N412 0.984 . S
H425 N412 0.985 . S
C426 C427 1.363 . S
C426 C432 1.379 . S
C426 N434 1.356 . S
C427 C426 1.363 . S
C427 C433 1.363 . S
C428 C429 1.363 . S
C428 C433 1.379 . S
C428 N435 1.356 . S
C429 C428 1.363 . S
C429 C432 1.363 . S
N430 C432 1.356 1_655 S
N430 H442 0.984 . S
N430 H443 0.985 . S
N431 C433 1.356 . S
N431 H436 0.984 . S
N431 H437 0.985 . S
C432 C426 1.379 . S
C432 C429 1.363 . S
C432 N430 1.356 1_455 S
C433 C427 1.363 . S
C433 C428 1.379 . S
C433 N431 1.356 . S
N434 C426 1.356 . S
N434 H440 0.984 1_455 S
N434 H441 0.984 . S
N435 C428 1.356 . S
N435 H438 0.984 . S
N435 H439 0.985 . S
H436 N431 0.984 . S
H437 N431 0.985 . S
H438 N435 0.984 . S
H439 N435 0.985 . S
H440 N434 0.984 1_655 S
H441 N434 0.984 . S
H442 N430 0.984 . S
H443 N430 0.985 . S
C444 C445 1.363 . S
C444 C450 1.379 . S
C444 N452 1.356 . S
C445 C444 1.363 . S
C445 C451 1.363 . S
C446 C447 1.363 . S
C446 C451 1.379 . S
C446 N453 1.356 . S
C447 C446 1.363 . S
C447 C450 1.363 . S
N448 C450 1.356 . S
N448 H460 0.984 . S
N448 H461 0.985 . S
N449 C451 1.356 . S
N449 H454 0.984 . S
N449 H455 0.985 . S
C450 C444 1.379 . S
C450 C447 1.363 . S
C450 N448 1.356 . S
C451 C445 1.363 . S
C451 C446 1.379 . S
C451 N449 1.356 . S
N452 C444 1.356 . S
N452 H458 0.984 . S
N452 H459 0.984 . S
N453 C446 1.356 . S
N453 H456 0.984 . S
N453 H457 0.985 . S
H454 N449 0.984 . S
H455 N449 0.985 . S
H456 N453 0.984 . S
H457 N453 0.985 . S
H458 N452 0.984 . S
H459 N452 0.984 . S
H460 N448 0.984 . S
H461 N448 0.985 . S
C462 C463 1.363 . S
C462 C468 1.379 1_556 S
C462 N470 1.356 . S
C463 C462 1.363 . S
C463 C469 1.363 . S
C464 C465 1.363 . S
C464 C469 1.379 1_554 S
C464 N471 1.356 . S
C465 C464 1.363 . S
C465 C468 1.363 . S
N466 C468 1.356 1_545 S
N466 H478 0.984 . S
N466 H479 0.985 . S
N467 C469 1.356 . S
N467 H472 0.984 . S
N467 H473 0.985 . S
C468 C462 1.379 1_554 S
C468 C465 1.363 . S
C468 N466 1.356 1_565 S
C469 C463 1.363 . S
C469 C464 1.379 1_556 S
C469 N467 1.356 . S
N470 C462 1.356 . S
N470 H476 0.984 . S
N470 H477 0.984 . S
N471 C464 1.356 . S
N471 H474 0.984 . S
N471 H475 0.985 . S
H472 N467 0.984 . S
H473 N467 0.985 . S
H474 N471 0.984 . S
H475 N471 0.985 . S
H476 N470 0.984 . S
H477 N470 0.984 . S
H478 N466 0.984 . S
H479 N466 0.985 . S
C480 C481 1.363 . S
C480 C486 1.379 . S
C480 N488 1.356 . S
C481 C480 1.363 . S
C481 C487 1.363 . S
C482 C483 1.363 . S
C482 C487 1.379 . S
C482 N489 1.356 1_655 S
C483 C482 1.363 . S
C483 C486 1.363 . S
N484 C486 1.356 . S
N484 H496 0.984 . S
N484 H497 0.985 . S
N485 C487 1.356 . S
N485 H490 0.984 . S
N485 H491 0.985 1_655 S
C486 C480 1.379 . S
C486 C483 1.363 . S
C486 N484 1.356 . S
C487 C481 1.363 . S
C487 C482 1.379 . S
C487 N485 1.356 . S
N488 C480 1.356 . S
N488 H494 0.984 . S
N488 H495 0.984 1_565 S
N489 C482 1.356 1_455 S
N489 H492 0.984 . S
N489 H493 0.985 . S
H490 N485 0.984 . S
H491 N485 0.985 1_455 S
H492 N489 0.984 . S
H493 N489 0.985 . S
H494 N488 0.984 . S
H495 N488 0.984 1_545 S
H496 N484 0.984 . S
H497 N484 0.985 . S
C498 C499 1.363 . S
C498 C504 1.379 . S
C498 N506 1.356 . S
C499 C498 1.363 . S
C499 C505 1.363 . S
C500 C501 1.363 . S
C500 C505 1.379 . S
C500 N507 1.356 . S
C501 C500 1.363 . S
C501 C504 1.363 . S
N502 C504 1.356 . S
N502 H514 0.984 . S
N502 H515 0.985 . S
N503 C505 1.356 . S
N503 H508 0.984 . S
N503 H509 0.985 . S
C504 C498 1.379 . S
C504 C501 1.363 . S
C504 N502 1.356 . S
C505 C499 1.363 . S
C505 C500 1.379 . S
C505 N503 1.356 . S
N506 C498 1.356 . S
N506 H512 0.984 . S
N506 H513 0.984 . S
N507 C500 1.356 . S
N507 H510 0.984 . S
N507 H511 0.985 1_455 S
H508 N503 0.984 . S
H509 N503 0.985 . S
H510 N507 0.984 . S
H511 N507 0.985 1_655 S
H512 N506 0.984 . S
H513 N506 0.984 . S
H514 N502 0.984 . S
H515 N502 0.985 . S
C516 C517 1.363 . S
C516 C522 1.379 1_556 S
C516 N524 1.356 . S
C517 C516 1.363 . S
C517 C523 1.363 . S
C518 C519 1.363 1_556 S
C518 C523 1.379 . S
C518 N525 1.356 . S
C519 C518 1.363 1_554 S
C519 C522 1.363 . S
N520 C522 1.356 . S
N520 H532 0.984 . S
N520 H533 0.985 . S
N521 C523 1.356 . S
N521 H526 0.984 . S
N521 H527 0.985 . S
C522 C516 1.379 1_554 S
C522 C519 1.363 . S
C522 N520 1.356 . S
C523 C517 1.363 . S
C523 C518 1.379 . S
C523 N521 1.356 . S
N524 C516 1.356 . S
N524 H530 0.984 . S
N524 H531 0.984 . S
N525 C518 1.356 . S
N525 H528 0.984 1_556 S
N525 H529 0.985 . S
H526 N521 0.984 . S
H527 N521 0.985 . S
H528 N525 0.984 1_554 S
H529 N525 0.985 . S
H530 N524 0.984 . S
H531 N524 0.984 . S
H532 N520 0.984 . S
H533 N520 0.985 . S
C534 C535 1.363 . S
C534 C540 1.379 1_655 S
C534 N542 1.356 . S
C535 C534 1.363 . S
C535 C541 1.363 . S
C536 C537 1.363 . S
C536 C541 1.379 . S
C536 N543 1.356 . S
C537 C536 1.363 . S
C537 C540 1.363 1_655 S
N538 C540 1.356 . S
N538 H550 0.984 . S
N538 H551 0.985 . S
N539 C541 1.356 . S
N539 H544 0.984 . S
N539 H545 0.985 . S
C540 C534 1.379 1_455 S
C540 C537 1.363 1_455 S
C540 N538 1.356 . S
C541 C535 1.363 . S
C541 C536 1.379 . S
C541 N539 1.356 . S
N542 C534 1.356 . S
N542 H548 0.984 1_655 S
N542 H549 0.984 . S
N543 C536 1.356 . S
N543 H546 0.984 . S
N543 H547 0.985 . S
H544 N539 0.984 . S
H545 N539 0.985 . S
H546 N543 0.984 . S
H547 N543 0.985 . S
H548 N542 0.984 1_455 S
H549 N542 0.984 . S
H550 N538 0.984 . S
H551 N538 0.985 . S
C337 C234 1.433 . S
C339 C75 1.433 . S
C355 C318 1.313 1_545 S
C357 C159 1.313 . S
C373 C243 1.455 . S
C375 C66 1.455 . S
C391 C150 1.558 . S
C393 C327 1.558 . S
C409 C151 1.936 . S
C411 C56 2.116 . S
C427 C140 1.925 . S
C429 C240 1.959 1_455 S
C445 C324 1.184 . S
C447 C231 0.972 . S
C463 C315 0.887 . S
C465 C67 1.016 . S
C481 C235 2.116 1_565 S
C483 C308 1.936 . S
C499 C63 1.966 . S
C501 C319 1.925 . S
C517 C147 1.184 . S
C519 C72 0.972 . S
C535 C224 1.016 . S
C537 C156 0.887 . S
