# Generated by pormake.
# Topology afi, (4)-cn, num edge types: 1
# Building blocks:
#     Node 0, Type 0, BuildingBlock: GALJAG_clean_sbu_0, # of connection points: 4
#     Node 1, Type 0, BuildingBlock: GALJAG_clean_sbu_0, # of connection points: 4
#     Node 2, Type 0, BuildingBlock: GALJAG_clean_sbu_0, # of connection points: 4
#     Node 3, Type 0, BuildingBlock: GALJAG_clean_sbu_0, # of connection points: 4
#     Node 4, Type 0, BuildingBlock: GALJAG_clean_sbu_0, # of connection points: 4
#     Node 5, Type 0, BuildingBlock: GALJAG_clean_sbu_0, # of connection points: 4
#     Node 6, Type 0, BuildingBlock: GALJAG_clean_sbu_0, # of connection points: 4
#     Node 7, Type 0, BuildingBlock: GALJAG_clean_sbu_0, # of connection points: 4
#     Node 8, Type 0, BuildingBlock: GALJAG_clean_sbu_0, # of connection points: 4
#     Node 9, Type 0, BuildingBlock: GALJAG_clean_sbu_0, # of connection points: 4
#     Node 10, Type 0, BuildingBlock: GALJAG_clean_sbu_0, # of connection points: 4
#     Node 11, Type 0, BuildingBlock: GALJAG_clean_sbu_0, # of connection points: 4
#     Node 12, Type 0, BuildingBlock: GALJAG_clean_sbu_0, # of connection points: 4
#     Node 13, Type 0, BuildingBlock: GALJAG_clean_sbu_0, # of connection points: 4
#     Node 14, Type 0, BuildingBlock: GALJAG_clean_sbu_0, # of connection points: 4
#     Node 15, Type 0, BuildingBlock: GALJAG_clean_sbu_0, # of connection points: 4
#     Node 16, Type 0, BuildingBlock: GALJAG_clean_sbu_0, # of connection points: 4
#     Node 17, Type 0, BuildingBlock: GALJAG_clean_sbu_0, # of connection points: 4
#     Node 18, Type 0, BuildingBlock: GALJAG_clean_sbu_0, # of connection points: 4
#     Node 19, Type 0, BuildingBlock: GALJAG_clean_sbu_0, # of connection points: 4
#     Node 20, Type 0, BuildingBlock: GALJAG_clean_sbu_0, # of connection points: 4
#     Node 21, Type 0, BuildingBlock: GALJAG_clean_sbu_0, # of connection points: 4
#     Node 22, Type 0, BuildingBlock: GALJAG_clean_sbu_0, # of connection points: 4
#     Node 23, Type 0, BuildingBlock: GALJAG_clean_sbu_0, # of connection points: 4
#     Edge 24, Type (0, 0), BuildingBlock: UVAHIK_clean_linker_0, # of connection points: 2
#     Edge 25, Type (0, 0), BuildingBlock: UVAHIK_clean_linker_0, # of connection points: 2
#     Edge 26, Type (0, 0), BuildingBlock: UVAHIK_clean_linker_0, # of connection points: 2
#     Edge 27, Type (0, 0), BuildingBlock: UVAHIK_clean_linker_0, # of connection points: 2
#     Edge 28, Type (0, 0), BuildingBlock: UVAHIK_clean_linker_0, # of connection points: 2
#     Edge 29, Type (0, 0), BuildingBlock: UVAHIK_clean_linker_0, # of connection points: 2
#     Edge 30, Type (0, 0), BuildingBlock: UVAHIK_clean_linker_0, # of connection points: 2
#     Edge 31, Type (0, 0), BuildingBlock: UVAHIK_clean_linker_0, # of connection points: 2
#     Edge 32, Type (0, 0), BuildingBlock: UVAHIK_clean_linker_0, # of connection points: 2
#     Edge 33, Type (0, 0), BuildingBlock: UVAHIK_clean_linker_0, # of connection points: 2
#     Edge 34, Type (0, 0), BuildingBlock: UVAHIK_clean_linker_0, # of connection points: 2
#     Edge 35, Type (0, 0), BuildingBlock: UVAHIK_clean_linker_0, # of connection points: 2
#     Edge 36, Type (0, 0), BuildingBlock: UVAHIK_clean_linker_0, # of connection points: 2
#     Edge 37, Type (0, 0), BuildingBlock: UVAHIK_clean_linker_0, # of connection points: 2
#     Edge 38, Type (0, 0), BuildingBlock: UVAHIK_clean_linker_0, # of connection points: 2
#     Edge 39, Type (0, 0), BuildingBlock: UVAHIK_clean_linker_0, # of connection points: 2
#     Edge 40, Type (0, 0), BuildingBlock: UVAHIK_clean_linker_0, # of connection points: 2
#     Edge 41, Type (0, 0), BuildingBlock: UVAHIK_clean_linker_0, # of connection points: 2
#     Edge 42, Type (0, 0), BuildingBlock: UVAHIK_clean_linker_0, # of connection points: 2
#     Edge 43, Type (0, 0), BuildingBlock: UVAHIK_clean_linker_0, # of connection points: 2
#     Edge 44, Type (0, 0), BuildingBlock: UVAHIK_clean_linker_0, # of connection points: 2
#     Edge 45, Type (0, 0), BuildingBlock: UVAHIK_clean_linker_0, # of connection points: 2
#     Edge 46, Type (0, 0), BuildingBlock: UVAHIK_clean_linker_0, # of connection points: 2
#     Edge 47, Type (0, 0), BuildingBlock: UVAHIK_clean_linker_0, # of connection points: 2
#     Edge 48, Type (0, 0), BuildingBlock: UVAHIK_clean_linker_0, # of connection points: 2
#     Edge 49, Type (0, 0), BuildingBlock: UVAHIK_clean_linker_0, # of connection points: 2
#     Edge 50, Type (0, 0), BuildingBlock: UVAHIK_clean_linker_0, # of connection points: 2
#     Edge 51, Type (0, 0), BuildingBlock: UVAHIK_clean_linker_0, # of connection points: 2
#     Edge 52, Type (0, 0), BuildingBlock: UVAHIK_clean_linker_0, # of connection points: 2
#     Edge 53, Type (0, 0), BuildingBlock: UVAHIK_clean_linker_0, # of connection points: 2
#     Edge 54, Type (0, 0), BuildingBlock: UVAHIK_clean_linker_0, # of connection points: 2
#     Edge 55, Type (0, 0), BuildingBlock: UVAHIK_clean_linker_0, # of connection points: 2
#     Edge 56, Type (0, 0), BuildingBlock: UVAHIK_clean_linker_0, # of connection points: 2
#     Edge 57, Type (0, 0), BuildingBlock: UVAHIK_clean_linker_0, # of connection points: 2
#     Edge 58, Type (0, 0), BuildingBlock: UVAHIK_clean_linker_0, # of connection points: 2
#     Edge 59, Type (0, 0), BuildingBlock: UVAHIK_clean_linker_0, # of connection points: 2
#     Edge 60, Type (0, 0), BuildingBlock: UVAHIK_clean_linker_0, # of connection points: 2
#     Edge 61, Type (0, 0), BuildingBlock: UVAHIK_clean_linker_0, # of connection points: 2
#     Edge 62, Type (0, 0), BuildingBlock: UVAHIK_clean_linker_0, # of connection points: 2
#     Edge 63, Type (0, 0), BuildingBlock: UVAHIK_clean_linker_0, # of connection points: 2
#     Edge 64, Type (0, 0), BuildingBlock: UVAHIK_clean_linker_0, # of connection points: 2
#     Edge 65, Type (0, 0), BuildingBlock: UVAHIK_clean_linker_0, # of connection points: 2
#     Edge 66, Type (0, 0), BuildingBlock: UVAHIK_clean_linker_0, # of connection points: 2
#     Edge 67, Type (0, 0), BuildingBlock: UVAHIK_clean_linker_0, # of connection points: 2
#     Edge 68, Type (0, 0), BuildingBlock: UVAHIK_clean_linker_0, # of connection points: 2
#     Edge 69, Type (0, 0), BuildingBlock: UVAHIK_clean_linker_0, # of connection points: 2
#     Edge 70, Type (0, 0), BuildingBlock: UVAHIK_clean_linker_0, # of connection points: 2
#     Edge 71, Type (0, 0), BuildingBlock: UVAHIK_clean_linker_0, # of connection points: 2
# Relax obj value: 0.135
# Max RMSD: 0.138
# Mean RMSD: 0.138
data_MOF--net-afi--node1-GALJAG_clean_sbu_0--edge1-UVAHIK_clean_linker_0
_symmetry_space_group_name_H-M    P1
_symmetry_Int_Tables_number       1
_symmetry_cell_setting            triclinic
loop_
_symmetry_equiv_pos_as_xyz
'x, y, z'
_cell_length_a     88.254021
_cell_length_b     88.240054
_cell_length_c     51.922965
_cell_angle_alpha  90.024411
_cell_angle_beta   89.98725
_cell_angle_gamma 120.04716
loop_
_atom_site_label
_atom_site_type_symbol
_atom_site_fract_x
_atom_site_fract_y
_atom_site_fract_z
_atom_type_partial_charge
In0 In 0.44922 0.11876 0.19097 0.0
O1 O 0.46137 0.12937 0.15172 0.0
O2 O 0.43364 0.11403 0.15379 0.0
C3 C 0.47813 0.11824 0.20682 0.0
C4 C 0.44774 0.14695 0.20794 0.0
C5 C 0.42498 0.08668 0.20778 0.0
O6 O 0.4728 0.11524 0.18384 0.0
O7 O 0.46886 0.12146 0.22185 0.0
O8 O 0.43031 0.10025 0.22139 0.0
O9 O 0.43178 0.08932 0.18569 0.0
C10 C 0.44698 0.12263 0.13983 0.0
O11 O 0.4342 0.13228 0.20431 0.0
O12 O 0.46192 0.14735 0.20308 0.0
In13 In 0.33064 0.45251 0.18518 0.0
O14 O 0.30173 0.43632 0.19658 0.0
O15 O 0.31507 0.46354 0.20459 0.0
C16 C 0.34195 0.43042 0.19936 0.0
C17 C 0.32329 0.44987 0.13433 0.0
C18 C 0.35877 0.48248 0.20119 0.0
O19 O 0.3295 0.4308 0.2107 0.0
O20 O 0.34845 0.44096 0.18081 0.0
O21 O 0.35524 0.47878 0.17767 0.0
O22 O 0.34804 0.47112 0.21663 0.0
C23 C 0.30094 0.44914 0.2057 0.0
O24 O 0.32935 0.4641 0.14651 0.0
O25 O 0.32083 0.43695 0.14781 0.0
In26 In 0.87766 0.33337 0.19027 0.0
O27 O 0.86592 0.33288 0.15103 0.0
O28 O 0.88497 0.325 0.15262 0.0
C29 C 0.87534 0.3609 0.20777 0.0
C30 C 0.8505 0.3034 0.20889 0.0
C31 C 0.911 0.34509 0.2052 0.0
O32 O 0.87556 0.35772 0.18411 0.0
O33 O 0.87613 0.35005 0.22279 0.0
O34 O 0.89837 0.33114 0.21407 0.0
O35 O 0.90677 0.35283 0.18878 0.0
C36 C 0.87475 0.32761 0.13885 0.0
O37 O 0.86507 0.30476 0.20352 0.0
O38 O 0.84981 0.31714 0.20524 0.0
In39 In 0.54263 0.87714 0.18776 0.0
O40 O 0.53027 0.86825 0.14807 0.0
O41 O 0.55791 0.87993 0.15097 0.0
C42 C 0.51314 0.87656 0.20342 0.0
C43 C 0.54535 0.84956 0.20433 0.0
C44 C 0.56654 0.90952 0.20421 0.0
O45 O 0.52061 0.88334 0.18238 0.0
O46 O 0.52055 0.87012 0.21657 0.0
O47 O 0.55858 0.89679 0.21944 0.0
O48 O 0.56258 0.90586 0.18083 0.0
C49 C 0.54459 0.87311 0.13661 0.0
O50 O 0.55808 0.86503 0.20495 0.0
O51 O 0.53136 0.8481 0.19562 0.0
In52 In 0.66609 0.54397 0.18393 0.0
O53 O 0.69478 0.56052 0.19643 0.0
O54 O 0.68256 0.53291 0.19978 0.0
C55 C 0.6549 0.5661 0.19832 0.0
C56 C 0.67249 0.54604 0.13279 0.0
C57 C 0.63829 0.5143 0.20151 0.0
O58 O 0.66754 0.56588 0.20935 0.0
O59 O 0.64821 0.55542 0.17995 0.0
O60 O 0.64108 0.51788 0.17785 0.0
O61 O 0.6496 0.52566 0.21637 0.0
C62 C 0.69627 0.54751 0.20268 0.0
O63 O 0.66724 0.53213 0.1455 0.0
O64 O 0.67465 0.55901 0.14588 0.0
In65 In 0.12136 0.66469 0.18497 0.0
O66 O 0.1274 0.65867 0.14498 0.0
O67 O 0.11658 0.67542 0.1477 0.0
C68 C 0.12539 0.63726 0.19787 0.0
C69 C 0.14766 0.69589 0.20196 0.0
C70 C 0.08928 0.65564 0.20363 0.0
O71 O 0.11487 0.63634 0.18067 0.0
O72 O 0.13391 0.65203 0.2086 0.0
O73 O 0.09419 0.6618 0.18133 0.0
O74 O 0.10056 0.65419 0.21655 0.0
C75 C 0.12222 0.66778 0.13329 0.0
O76 O 0.13269 0.6884 0.21209 0.0
O77 O 0.14935 0.68771 0.18336 0.0
In78 In 0.87926 0.54739 0.30805 0.0
O79 O 0.8667 0.56308 0.29353 0.0
O80 O 0.85131 0.53537 0.29331 0.0
C81 C 0.91241 0.5704 0.29359 0.0
C82 C 0.87407 0.54983 0.35875 0.0
C83 C 0.87842 0.51781 0.29231 0.0
O84 O 0.8993 0.56757 0.28024 0.0
O85 O 0.90876 0.56179 0.31427 0.0
O86 O 0.88033 0.52251 0.31559 0.0
O87 O 0.87696 0.52806 0.2769 0.0
C88 C 0.85211 0.54975 0.2886 0.0
O89 O 0.86739 0.53544 0.34689 0.0
O90 O 0.88333 0.5631 0.345 0.0
In91 In 0.33054 0.87811 0.30974 0.0
O92 O 0.34296 0.88326 0.34949 0.0
O93 O 0.3155 0.87339 0.34747 0.0
C94 C 0.35763 0.87529 0.29081 0.0
C95 C 0.30032 0.85022 0.29331 0.0
C96 C 0.33713 0.9103 0.29544 0.0
O97 O 0.35049 0.8688 0.31211 0.0
O98 O 0.35101 0.88302 0.27894 0.0
O99 O 0.33217 0.8978 0.27973 0.0
O100 O 0.33856 0.90653 0.31838 0.0
C101 C 0.32883 0.87833 0.36156 0.0
O102 O 0.30289 0.86561 0.29298 0.0
O103 O 0.31297 0.8489 0.30184 0.0
In104 In 0.45369 0.33359 0.31125 0.0
O105 O 0.46599 0.3344 0.35008 0.0
O106 O 0.43845 0.32363 0.34901 0.0
C107 C 0.48318 0.36142 0.29333 0.0
C108 C 0.45079 0.30354 0.29308 0.0
C109 C 0.43114 0.34427 0.29681 0.0
O110 O 0.47953 0.35886 0.31698 0.0
O111 O 0.47194 0.3499 0.27857 0.0
O112 O 0.43199 0.3321 0.28534 0.0
O113 O 0.44144 0.35079 0.31563 0.0
C114 C 0.45183 0.3276 0.36247 0.0
O115 O 0.43761 0.30487 0.29876 0.0
O116 O 0.46528 0.31732 0.29636 0.0
In117 In 0.12117 0.45492 0.31234 0.0
O118 O 0.13268 0.44089 0.28913 0.0
O119 O 0.1501 0.46333 0.31066 0.0
C120 C 0.08752 0.43392 0.29824 0.0
C121 C 0.12086 0.45141 0.36418 0.0
C122 C 0.12703 0.48499 0.29011 0.0
O123 O 0.09846 0.42868 0.29852 0.0
O124 O 0.09348 0.44954 0.30543 0.0
O125 O 0.12611 0.48276 0.31419 0.0
O126 O 0.12509 0.47203 0.27709 0.0
C127 C 0.14826 0.45124 0.29583 0.0
O128 O 0.12859 0.46601 0.35298 0.0
O129 O 0.11313 0.43847 0.34929 0.0
In130 In 0.66387 0.11989 0.3055 0.0
O131 O 0.69274 0.13289 0.29363 0.0
O132 O 0.68012 0.14789 0.29087 0.0
C133 C 0.65472 0.08722 0.28994 0.0
C134 C 0.66975 0.12337 0.35672 0.0
C135 C 0.6348 0.12008 0.28958 0.0
O136 O 0.66433 0.10058 0.27653 0.0
O137 O 0.64988 0.09038 0.31113 0.0
O138 O 0.6382 0.11949 0.31302 0.0
O139 O 0.64609 0.12063 0.27412 0.0
C140 C 0.69401 0.14736 0.28789 0.0
O141 O 0.66393 0.13174 0.34453 0.0
O142 O 0.67287 0.11343 0.34301 0.0
In143 In 0.54393 0.66504 0.30569 0.0
O144 O 0.53225 0.66515 0.34481 0.0
O145 O 0.55975 0.67584 0.34272 0.0
C146 C 0.51427 0.637 0.28858 0.0
C147 C 0.54672 0.69471 0.28602 0.0
C148 C 0.5662 0.65381 0.29214 0.0
O149 O 0.51781 0.64016 0.31221 0.0
O150 O 0.52568 0.64804 0.2735 0.0
O151 O 0.56555 0.66593 0.2802 0.0
O152 O 0.55582 0.64759 0.31092 0.0
C153 C 0.54666 0.67225 0.35662 0.0
O154 O 0.55991 0.69357 0.29231 0.0
O155 O 0.53226 0.68092 0.28944 0.0
In156 In 0.54368 0.87669 0.80942 0.0
O157 O 0.53188 0.86556 0.84869 0.0
O158 O 0.55937 0.88236 0.84688 0.0
C159 C 0.51376 0.87361 0.79083 0.0
C160 C 0.54676 0.84983 0.79034 0.0
C161 C 0.56503 0.91023 0.79489 0.0
O162 O 0.51712 0.87455 0.8146 0.0
O163 O 0.52554 0.8742 0.77631 0.0
O164 O 0.56623 0.8977 0.78541 0.0
O165 O 0.55337 0.90584 0.81187 0.0
C166 C 0.54618 0.87304 0.86073 0.0
O167 O 0.55991 0.86449 0.79559 0.0
O168 O 0.53224 0.84883 0.79463 0.0
In169 In 0.66531 0.54448 0.80572 0.0
O170 O 0.69462 0.56086 0.79653 0.0
O171 O 0.68073 0.53479 0.78264 0.0
C172 C 0.65394 0.56657 0.79193 0.0
C173 C 0.6719 0.5464 0.85677 0.0
C174 C 0.63739 0.51411 0.79031 0.0
O175 O 0.6672 0.56713 0.78173 0.0
O176 O 0.64669 0.55511 0.80921 0.0
O177 O 0.64245 0.51703 0.81344 0.0
O178 O 0.64648 0.52646 0.77494 0.0
C179 C 0.69518 0.54882 0.78428 0.0
O180 O 0.66841 0.53309 0.84345 0.0
O181 O 0.67219 0.55881 0.84432 0.0
In182 In 0.11791 0.66598 0.80496 0.0
O183 O 0.13033 0.69425 0.7903 0.0
O184 O 0.14687 0.68356 0.79629 0.0
C185 C 0.08577 0.65732 0.78722 0.0
C186 C 0.1214 0.6705 0.85642 0.0
C187 C 0.11849 0.63713 0.78895 0.0
O188 O 0.09902 0.66323 0.77278 0.0
O189 O 0.0888 0.65611 0.81061 0.0
O190 O 0.11268 0.63816 0.81068 0.0
O191 O 0.12397 0.65065 0.77518 0.0
C192 C 0.14564 0.69659 0.78942 0.0
O193 O 0.12709 0.66211 0.84397 0.0
O194 O 0.11407 0.67687 0.84285 0.0
In195 In 0.45466 0.12136 0.81259 0.0
O196 O 0.44447 0.1328 0.78195 0.0
O197 O 0.45668 0.14807 0.81512 0.0
C198 C 0.43363 0.08709 0.80138 0.0
C199 C 0.45096 0.12205 0.86408 0.0
C200 C 0.48633 0.12924 0.79376 0.0
O201 O 0.42825 0.09791 0.80087 0.0
O202 O 0.44948 0.09355 0.80763 0.0
O203 O 0.48286 0.12766 0.81749 0.0
O204 O 0.47384 0.12696 0.77936 0.0
C205 C 0.44921 0.14689 0.79397 0.0
O206 O 0.46564 0.12954 0.853 0.0
O207 O 0.43801 0.11407 0.84918 0.0
In208 In 0.33096 0.45337 0.80805 0.0
O209 O 0.30304 0.43753 0.79235 0.0
O210 O 0.31352 0.46476 0.79839 0.0
C211 C 0.34056 0.43017 0.79254 0.0
C212 C 0.32417 0.45057 0.859 0.0
C213 C 0.35942 0.48296 0.79138 0.0
O214 O 0.33185 0.43467 0.77842 0.0
O215 O 0.34428 0.43725 0.81447 0.0
O216 O 0.35771 0.47767 0.81433 0.0
O217 O 0.34676 0.47333 0.7768 0.0
C218 C 0.30061 0.45044 0.79131 0.0
O219 O 0.33236 0.46511 0.84761 0.0
O220 O 0.31936 0.43738 0.84468 0.0
In221 In 0.87294 0.32965 0.81037 0.0
O222 O 0.86113 0.30804 0.77964 0.0
O223 O 0.84694 0.30417 0.81424 0.0
C224 C 0.90694 0.34264 0.79782 0.0
C225 C 0.87294 0.32701 0.86209 0.0
C226 C 0.86543 0.35382 0.79204 0.0
O227 O 0.89653 0.32642 0.80037 0.0
O228 O 0.90022 0.3521 0.80173 0.0
O229 O 0.86778 0.35228 0.81562 0.0
O230 O 0.86651 0.3429 0.77757 0.0
C231 C 0.84764 0.29816 0.79257 0.0
O232 O 0.8636 0.33182 0.85021 0.0
O233 O 0.88234 0.32345 0.84786 0.0
In234 In 0.11711 0.45146 0.69187 0.0
O235 O 0.13031 0.4354 0.7015 0.0
O236 O 0.1435 0.46223 0.71184 0.0
C237 C 0.08417 0.42993 0.70856 0.0
C238 C 0.11956 0.44847 0.6404 0.0
C239 C 0.1201 0.48193 0.70772 0.0
O240 O 0.0969 0.42824 0.71579 0.0
O241 O 0.08806 0.44217 0.69275 0.0
O242 O 0.121 0.47861 0.68429 0.0
O243 O 0.11787 0.46994 0.72319 0.0
C244 C 0.14366 0.44806 0.71153 0.0
O245 O 0.12975 0.46213 0.65276 0.0
O246 O 0.10819 0.43622 0.65399 0.0
In247 In 0.66247 0.12036 0.68491 0.0
O248 O 0.66259 0.13168 0.64554 0.0
O249 O 0.6653 0.10905 0.64685 0.0
C250 C 0.63915 0.13002 0.69965 0.0
C251 C 0.6946 0.14443 0.70239 0.0
C252 C 0.64994 0.08717 0.70193 0.0
O253 O 0.63808 0.12255 0.67847 0.0
O254 O 0.65217 0.13291 0.71328 0.0
O255 O 0.66571 0.09678 0.69538 0.0
O256 O 0.64069 0.09427 0.69982 0.0
C257 C 0.66452 0.12045 0.63313 0.0
O258 O 0.68256 0.13401 0.71722 0.0
O259 O 0.69047 0.14261 0.67894 0.0
In260 In 0.54322 0.66531 0.68313 0.0
O261 O 0.5317 0.66461 0.64361 0.0
O262 O 0.5593 0.6763 0.64631 0.0
C263 C 0.51364 0.63753 0.7011 0.0
C264 C 0.54604 0.69525 0.7017 0.0
C265 C 0.56548 0.65413 0.69681 0.0
O266 O 0.51691 0.64051 0.67739 0.0
O267 O 0.52528 0.64864 0.71586 0.0
O268 O 0.56465 0.66613 0.70885 0.0
O269 O 0.55527 0.64799 0.67781 0.0
C270 C 0.54621 0.67212 0.63208 0.0
O271 O 0.5592 0.69352 0.69782 0.0
O272 O 0.53157 0.68188 0.69649 0.0
In273 In 0.87502 0.54124 0.68446 0.0
O274 O 0.8638 0.5573 0.70224 0.0
O275 O 0.84606 0.53102 0.69153 0.0
C276 C 0.90825 0.56366 0.69934 0.0
C277 C 0.87164 0.54492 0.63362 0.0
C278 C 0.87186 0.51077 0.70122 0.0
O279 O 0.89534 0.55893 0.7142 0.0
O280 O 0.90439 0.55711 0.67708 0.0
O281 O 0.8762 0.51621 0.67846 0.0
O282 O 0.86919 0.52073 0.71558 0.0
C283 C 0.84809 0.5451 0.70086 0.0
O284 O 0.86604 0.53019 0.6442 0.0
O285 O 0.87896 0.55784 0.6487 0.0
In286 In 0.33249 0.87825 0.69013 0.0
O287 O 0.32762 0.86464 0.65115 0.0
O288 O 0.33053 0.88997 0.65178 0.0
C289 C 0.35895 0.87314 0.70432 0.0
C290 C 0.30201 0.85216 0.70924 0.0
C291 C 0.34406 0.91054 0.70997 0.0
O292 O 0.35562 0.87443 0.68103 0.0
O293 O 0.34882 0.87427 0.72041 0.0
O294 O 0.3284 0.89841 0.71258 0.0
O295 O 0.35358 0.90642 0.69717 0.0
C296 C 0.32801 0.87698 0.63844 0.0
O297 O 0.30303 0.86542 0.6984 0.0
O298 O 0.3163 0.85226 0.71071 0.0
In299 In 0.45143 0.33074 0.69042 0.0
O300 O 0.43537 0.3033 0.70789 0.0
O301 O 0.46137 0.31165 0.69602 0.0
C302 C 0.42779 0.33957 0.70677 0.0
C303 C 0.45065 0.32639 0.63899 0.0
C304 C 0.48108 0.35907 0.70714 0.0
O305 O 0.43124 0.33917 0.68331 0.0
O306 O 0.43608 0.33526 0.72208 0.0
O307 O 0.47386 0.35881 0.68607 0.0
O308 O 0.47333 0.34504 0.71988 0.0
C309 C 0.4474 0.29963 0.70565 0.0
O310 O 0.46469 0.33511 0.65144 0.0
O311 O 0.43691 0.31975 0.65251 0.0
C312 C 0.40715 0.06632 0.2432 0.0
C313 C 0.4124 0.06899 0.21728 0.0
C314 C 0.39625 0.0494 0.25257 0.0
C315 C 0.36557 0.00382 0.23284 0.0
H316 H 0.38157 0.99174 0.29491 0.0
C317 C 0.34337 0.93255 0.26117 0.0
C318 C 0.34198 0.92821 0.2874 0.0
C319 C 0.34954 0.94985 0.25355 0.0
C320 C 0.37666 0.99491 0.27785 0.0
H321 H 0.4099 0.05616 0.18061 0.0
H322 H 0.39086 0.02663 0.19696 0.0
H323 H 0.39654 0.02189 0.27993 0.0
H324 H 0.34509 0.93834 0.32626 0.0
H325 H 0.35545 0.96847 0.31301 0.0
H326 H 0.34578 0.9768 0.23061 0.0
C327 C 0.39509 0.0376 0.21002 0.0
C328 C 0.38529 0.01222 0.26925 0.0
C329 C 0.40609 0.0545 0.20071 0.0
C330 C 0.34618 0.94135 0.30588 0.0
C331 C 0.35221 0.95862 0.29828 0.0
C332 C 0.35684 0.98651 0.24155 0.0
C333 C 0.39029 0.03485 0.23614 0.0
C334 C 0.38002 0.01681 0.24643 0.0
C335 C 0.35431 0.96316 0.27202 0.0
C336 C 0.36247 0.98179 0.26394 0.0
H337 H 0.41178 0.07727 0.2564 0.0
H338 H 0.39262 0.04768 0.27274 0.0
H339 H 0.3611 0.00704 0.21535 0.0
H340 H 0.34026 0.92268 0.24649 0.0
H341 H 0.35119 0.95287 0.23318 0.0
C342 C 0.42135 0.36628 0.29941 0.0
C343 C 0.41976 0.35108 0.28813 0.0
C344 C 0.41161 0.37359 0.29009 0.0
C345 C 0.37265 0.3647 0.25297 0.0
H346 H 0.39883 0.41458 0.239 0.0
C347 C 0.34116 0.40717 0.228 0.0
C348 C 0.34911 0.4193 0.20791 0.0
C349 C 0.34873 0.39755 0.2371 0.0
C350 C 0.39137 0.40063 0.24269 0.0
H351 H 0.40629 0.33125 0.25886 0.0
H352 H 0.38907 0.34402 0.24266 0.0
H353 H 0.41383 0.40012 0.25699 0.0
H354 H 0.37088 0.43053 0.18109 0.0
H355 H 0.38412 0.41386 0.19711 0.0
H356 H 0.35015 0.36533 0.23866 0.0
C357 C 0.3979 0.35024 0.2587 0.0
C358 C 0.39991 0.39239 0.2532 0.0
C359 C 0.40779 0.343 0.26788 0.0
C360 C 0.36449 0.42132 0.19667 0.0
C361 C 0.37211 0.41184 0.20589 0.0
C362 C 0.36404 0.37302 0.2427 0.0
C363 C 0.39996 0.36578 0.26943 0.0
C364 C 0.39066 0.37436 0.25843 0.0
C365 C 0.36445 0.40004 0.22641 0.0
C366 C 0.37335 0.39105 0.23736 0.0
H367 H 0.43042 0.37278 0.3151 0.0
H368 H 0.41329 0.38547 0.29891 0.0
H369 H 0.36522 0.35079 0.25692 0.0
H370 H 0.32928 0.40534 0.23699 0.0
H371 H 0.34261 0.3886 0.25303 0.0
C372 C 0.93447 0.34207 0.22784 0.0
C373 C 0.92927 0.35229 0.2138 0.0
C374 C 0.95185 0.34921 0.23602 0.0
C375 C 0.99654 0.38766 0.225 0.0
H376 H 0.00644 0.37549 0.29222 0.0
C377 C 0.0597 0.43096 0.2816 0.0
C378 C 0.06936 0.423 0.28908 0.0
C379 C 0.0428 0.4209 0.27179 0.0
C380 C 0.00382 0.37884 0.27331 0.0
H381 H 0.938 0.37801 0.19764 0.0
H382 H 0.96791 0.39064 0.21268 0.0
H383 H 0.97638 0.36055 0.27603 0.0
H384 H 0.06885 0.39828 0.29279 0.0
H385 H 0.03886 0.38053 0.2763 0.0
H386 H 0.02388 0.40662 0.22305 0.0
C387 C 0.95891 0.37695 0.21668 0.0
C388 C 0.98664 0.37025 0.26394 0.0
C389 C 0.94168 0.36975 0.2082 0.0
C390 C 0.06167 0.40473 0.2871 0.0
C391 C 0.04457 0.39459 0.27777 0.0
C392 C 0.01359 0.39644 0.23459 0.0
C393 C 0.9643 0.36679 0.2306 0.0
C394 C 0.98273 0.37477 0.23981 0.0
C395 C 0.03512 0.40266 0.26976 0.0
C396 C 0.01732 0.39227 0.25894 0.0
H397 H 0.92516 0.32854 0.23233 0.0
H398 H 0.95553 0.34091 0.24641 0.0
H399 H 0.99418 0.39117 0.20605 0.0
H400 H 0.06532 0.44502 0.28284 0.0
H401 H 0.03568 0.42736 0.26587 0.0
C402 C 0.58866 0.9407 0.19498 0.0
C403 C 0.57885 0.9275 0.21299 0.0
C404 C 0.59937 0.95799 0.20298 0.0
C405 C 0.61978 0.98585 0.26082 0.0
H406 H 0.61842 0.02148 0.2188 0.0
C407 C 0.63952 0.055 0.29792 0.0
C408 C 0.64898 0.06921 0.28123 0.0
C409 C 0.63317 0.03786 0.28935 0.0
C410 C 0.61916 0.01173 0.23055 0.0
H411 H 0.57283 0.92192 0.25353 0.0
H412 H 0.59116 0.95218 0.26751 0.0
H413 H 0.60322 0.99119 0.20436 0.0
H414 H 0.65958 0.0767 0.24268 0.0
H415 H 0.64834 0.04668 0.22761 0.0
H416 H 0.63528 0.00647 0.28742 0.0
C417 C 0.59089 0.94917 0.24724 0.0
C418 C 0.61047 0.99434 0.22227 0.0
C419 C 0.58029 0.93183 0.23924 0.0
C420 C 0.6523 0.06599 0.25595 0.0
C421 C 0.64581 0.04882 0.2473 0.0
C422 C 0.62838 0.00325 0.2692 0.0
C423 C 0.60037 0.96251 0.22916 0.0
C424 C 0.61053 0.98115 0.23739 0.0
C425 C 0.63603 0.03458 0.26384 0.0
C426 C 0.62801 0.01634 0.25425 0.0
H427 H 0.58792 0.93771 0.17463 0.0
H428 H 0.60675 0.96785 0.18859 0.0
H429 H 0.62036 0.97609 0.27275 0.0
H430 H 0.63678 0.05709 0.31753 0.0
H431 H 0.62552 0.02715 0.30245 0.0
C432 C 0.58949 0.65443 0.26374 0.0
C433 C 0.57753 0.64677 0.28411 0.0
C434 C 0.59937 0.64699 0.25526 0.0
C435 C 0.59734 0.60471 0.25223 0.0
H436 H 0.64693 0.63151 0.23649 0.0
C437 C 0.63218 0.57497 0.19615 0.0
C438 C 0.64777 0.57723 0.20697 0.0
C439 C 0.62461 0.5845 0.20541 0.0
C440 C 0.6331 0.62389 0.2409 0.0
H441 H 0.56687 0.62565 0.31202 0.0
H442 H 0.58399 0.61262 0.29707 0.0
H443 H 0.632 0.6464 0.254 0.0
H444 H 0.66797 0.59163 0.23537 0.0
H445 H 0.65475 0.60848 0.25145 0.0
H446 H 0.59832 0.58224 0.2391 0.0
C447 C 0.58568 0.62431 0.2876 0.0
C448 C 0.62455 0.6324 0.25073 0.0
C449 C 0.57594 0.63181 0.29621 0.0
C450 C 0.65594 0.58962 0.22671 0.0
C451 C 0.64842 0.59929 0.23583 0.0
C452 C 0.60581 0.59626 0.24216 0.0
C453 C 0.59732 0.63168 0.26683 0.0
C454 C 0.60659 0.62286 0.25655 0.0
C455 C 0.63253 0.59659 0.22554 0.0
C456 C 0.62375 0.60575 0.23636 0.0
H457 H 0.59101 0.66599 0.25409 0.0
H458 H 0.60818 0.65288 0.2391 0.0
H459 H 0.58345 0.59705 0.2563 0.0
H460 H 0.6256 0.56556 0.18087 0.0
H461 H 0.61247 0.58232 0.19691 0.0
C462 C 0.06661 0.64264 0.23821 0.0
C463 C 0.07153 0.64996 0.2135 0.0
C464 C 0.04956 0.63642 0.24711 0.0
C465 C 0.00472 0.6197 0.22351 0.0
H466 H 0.99519 0.62515 0.2948 0.0
C467 C 0.93415 0.59108 0.26157 0.0
C468 C 0.93062 0.58221 0.28521 0.0
C469 C 0.9514 0.6014 0.25301 0.0
C470 C 0.99764 0.62344 0.27487 0.0
H471 H 0.06262 0.65693 0.17894 0.0
H472 H 0.03284 0.64617 0.19457 0.0
H473 H 0.02537 0.63958 0.27945 0.0
H474 H 0.94234 0.57747 0.3187 0.0
H475 H 0.97237 0.59529 0.30368 0.0
H476 H 0.97704 0.60329 0.21903 0.0
C477 C 0.04211 0.64504 0.20694 0.0
C478 C 0.01492 0.6317 0.26608 0.0
C479 C 0.05918 0.65128 0.19805 0.0
C480 C 0.94466 0.58418 0.3004 0.0
C481 C 0.96188 0.59448 0.29186 0.0
C482 C 0.98744 0.61143 0.2323 0.0
C483 C 0.03706 0.63739 0.23148 0.0
C484 C 0.01867 0.62973 0.24039 0.0
C485 C 0.96545 0.60306 0.26794 0.0
C486 C 0.98371 0.613 0.25817 0.0
H487 H 0.07584 0.64143 0.25054 0.0
H488 H 0.04605 0.6304 0.26597 0.0
H489 H 0.00716 0.61772 0.2037 0.0
H490 H 0.92358 0.58985 0.2495 0.0
H491 H 0.95372 0.60802 0.23464 0.0
C492 C 0.59025 0.93359 0.76985 0.0
C493 C 0.57561 0.92847 0.78582 0.0
C494 C 0.59958 0.95072 0.76031 0.0
C495 C 0.59331 0.98693 0.74251 0.0
H496 H 0.64339 0.01714 0.75097 0.0
C497 C 0.6259 0.06035 0.72231 0.0
C498 C 0.64264 0.06902 0.7112 0.0
C499 C 0.6186 0.04308 0.73069 0.0
C500 C 0.62945 0.00879 0.74804 0.0
H501 H 0.55938 0.93723 0.80458 0.0
H502 H 0.57543 0.96693 0.78749 0.0
H503 H 0.62919 0.98696 0.76677 0.0
H504 H 0.66495 0.06649 0.70023 0.0
H505 H 0.65198 0.03601 0.71423 0.0
H506 H 0.59338 0.00836 0.72341 0.0
C507 C 0.57973 0.95776 0.78248 0.0
C508 C 0.62135 0.99155 0.75718 0.0
C509 C 0.57061 0.9408 0.79234 0.0
C510 C 0.65202 0.06011 0.70879 0.0
C511 C 0.64461 0.04268 0.71693 0.0
C512 C 0.60139 0.00401 0.73307 0.0
C513 C 0.59419 0.96284 0.76621 0.0
C514 C 0.60315 0.98062 0.75493 0.0
C515 C 0.62774 0.03392 0.72783 0.0
C516 C 0.61951 0.01531 0.73619 0.0
H517 H 0.59439 0.92434 0.76457 0.0
H518 H 0.61068 0.95435 0.74775 0.0
H519 H 0.57929 0.97863 0.74015 0.0
H520 H 0.61842 0.06694 0.72467 0.0
H521 H 0.60579 0.03697 0.73959 0.0
C522 C 0.65538 0.59068 0.7646 0.0
C523 C 0.64677 0.57769 0.78342 0.0
C524 C 0.64785 0.60033 0.75545 0.0
C525 C 0.60502 0.5966 0.747 0.0
H526 H 0.63089 0.64695 0.73737 0.0
C527 C 0.57557 0.6324 0.69264 0.0
C528 C 0.57681 0.64714 0.70501 0.0
C529 C 0.58528 0.62492 0.70145 0.0
C530 C 0.62353 0.63289 0.74001 0.0
H531 H 0.62382 0.56493 0.80793 0.0
H532 H 0.61069 0.58168 0.79187 0.0
H533 H 0.64571 0.6321 0.75529 0.0
H534 H 0.58961 0.66598 0.73573 0.0
H535 H 0.6067 0.65289 0.75109 0.0
H536 H 0.58285 0.59729 0.73187 0.0
C537 C 0.62317 0.58433 0.78408 0.0
C538 C 0.63202 0.6244 0.75009 0.0
C539 C 0.63074 0.57481 0.79335 0.0
C540 C 0.58838 0.6546 0.72585 0.0
C541 C 0.59822 0.64717 0.73456 0.0
C542 C 0.59661 0.60503 0.73672 0.0
C543 C 0.63152 0.59702 0.7648 0.0
C544 C 0.62279 0.60618 0.75383 0.0
C545 C 0.59652 0.63207 0.7227 0.0
C546 C 0.60574 0.62326 0.73318 0.0
H547 H 0.66776 0.59319 0.75663 0.0
H548 H 0.65452 0.60998 0.7405 0.0
H549 H 0.59763 0.58251 0.74942 0.0
H550 H 0.56681 0.6264 0.67646 0.0
H551 H 0.58389 0.61341 0.69174 0.0
C552 C 0.9401 0.58195 0.68924 0.0
C553 C 0.92649 0.57564 0.70739 0.0
C554 C 0.95745 0.59279 0.69689 0.0
C555 C 0.98504 0.62076 0.7508 0.0
H556 H 0.02001 0.61204 0.72011 0.0
C557 C 0.05372 0.64511 0.79439 0.0
C558 C 0.06794 0.65117 0.77732 0.0
C559 C 0.03665 0.63787 0.785 0.0
C560 C 0.01045 0.61482 0.7286 0.0
H561 H 0.92029 0.57587 0.74773 0.0
H562 H 0.95062 0.59443 0.76126 0.0
H563 H 0.98982 0.59547 0.70546 0.0
H564 H 0.07553 0.65493 0.73709 0.0
H565 H 0.04567 0.64222 0.72066 0.0
H566 H 0.00573 0.6398 0.77447 0.0
C567 C 0.94791 0.59132 0.74101 0.0
C568 C 0.99312 0.60533 0.72019 0.0
C569 C 0.93053 0.58058 0.7333 0.0
C570 C 0.06482 0.65033 0.7507 0.0
C571 C 0.04773 0.64298 0.7413 0.0
C572 C 0.00238 0.63018 0.75934 0.0
C573 C 0.9616 0.59744 0.72292 0.0
C574 C 0.98017 0.6081 0.73127 0.0
C575 C 0.03345 0.63643 0.75834 0.0
C576 C 0.01524 0.62723 0.74842 0.0
H577 H 0.93736 0.57848 0.66908 0.0
H578 H 0.96761 0.59751 0.68237 0.0
H579 H 0.97546 0.62344 0.75948 0.0
H580 H 0.05574 0.6456 0.81502 0.0
H581 H 0.02591 0.6328 0.7986 0.0
C582 C 0.42991 0.05766 0.79241 0.0
C583 C 0.42245 0.06839 0.79486 0.0
C584 C 0.41958 0.04005 0.78576 0.0
C585 C 0.37735 0.00865 0.75543 0.0
H586 H 0.38906 0.97488 0.78275 0.0
C587 C 0.33993 0.93395 0.73069 0.0
C588 C 0.35108 0.92805 0.7216 0.0
C589 C 0.34692 0.95065 0.74165 0.0
C590 C 0.38562 0.98418 0.77504 0.0
H591 H 0.39829 0.06909 0.79262 0.0
H592 H 0.38007 0.03813 0.78155 0.0
H593 H 0.40421 0.00482 0.79897 0.0
H594 H 0.37819 0.93482 0.71706 0.0
H595 H 0.3903 0.96368 0.73663 0.0
H596 H 0.35866 0.98776 0.73155 0.0
C597 C 0.39399 0.04341 0.7843 0.0
C598 C 0.39436 0.00135 0.78418 0.0
C599 C 0.40439 0.06112 0.79076 0.0
C600 C 0.36927 0.93903 0.72384 0.0
C601 C 0.37621 0.9555 0.73517 0.0
C602 C 0.36843 0.99135 0.74653 0.0
C603 C 0.40147 0.03266 0.78165 0.0
C604 C 0.3907 0.01395 0.77399 0.0
C605 C 0.36513 0.96148 0.74416 0.0
C606 C 0.37282 0.97911 0.7558 0.0
H607 H 0.44382 0.06292 0.79527 0.0
H608 H 0.4259 0.03233 0.78334 0.0
H609 H 0.37427 0.018 0.74698 0.0
H610 H 0.32585 0.92574 0.72914 0.0
H611 H 0.33813 0.95501 0.74848 0.0
C612 C 0.35554 0.41296 0.80077 0.0
C613 C 0.34653 0.4181 0.78381 0.0
C614 C 0.36203 0.4023 0.79221 0.0
C615 C 0.37684 0.39074 0.73346 0.0
H616 H 0.37467 0.35327 0.77521 0.0
C617 C 0.40606 0.34913 0.69759 0.0
C618 C 0.41575 0.34556 0.71556 0.0
C619 C 0.39565 0.35603 0.70563 0.0
C620 C 0.37551 0.36378 0.76341 0.0
H621 H 0.33689 0.41578 0.74477 0.0
H622 H 0.34829 0.39716 0.72978 0.0
H623 H 0.36 0.36895 0.78986 0.0
H624 H 0.42183 0.34598 0.75608 0.0
H625 H 0.40395 0.35838 0.77012 0.0
H626 H 0.39271 0.38598 0.70735 0.0
C627 C 0.35042 0.40149 0.74965 0.0
C628 C 0.36707 0.37273 0.77179 0.0
C629 C 0.34383 0.41207 0.75826 0.0
C630 C 0.41446 0.34857 0.74181 0.0
C631 C 0.40413 0.35559 0.74985 0.0
C632 C 0.38534 0.38187 0.72515 0.0
C633 C 0.35974 0.39663 0.76648 0.0
C634 C 0.36777 0.38639 0.75699 0.0
C635 C 0.39479 0.35964 0.73181 0.0
C636 C 0.3849 0.36837 0.74011 0.0
H637 H 0.35781 0.4174 0.82059 0.0
H638 H 0.36932 0.39894 0.80556 0.0
H639 H 0.37785 0.40139 0.72182 0.0
H640 H 0.4067 0.34681 0.67723 0.0
H641 H 0.38837 0.35869 0.69128 0.0
C642 C 0.05411 0.42489 0.71563 0.0
C643 C 0.06626 0.41918 0.71875 0.0
C644 C 0.03741 0.4154 0.72624 0.0
C645 C 0.00329 0.3726 0.74548 0.0
H646 H 0.98783 0.39805 0.78885 0.0
C647 C 0.93357 0.33989 0.79023 0.0
C648 C 0.92552 0.35017 0.79062 0.0
C649 C 0.95127 0.34735 0.78355 0.0
C650 C 0.99183 0.39076 0.77657 0.0
H651 H 0.07039 0.39886 0.73483 0.0
H652 H 0.04074 0.38188 0.75289 0.0
H653 H 0.01772 0.41272 0.7726 0.0
H654 H 0.9295 0.37617 0.7839 0.0
H655 H 0.95997 0.38899 0.77153 0.0
H656 H 0.97717 0.35087 0.74836 0.0
C657 C 0.04435 0.39384 0.74245 0.0
C658 C 0.00899 0.39916 0.76744 0.0
C659 C 0.06125 0.40355 0.7322 0.0
C660 C 0.93539 0.36794 0.78401 0.0
C661 C 0.95294 0.37533 0.77711 0.0
C662 C 0.98598 0.36424 0.75431 0.0
C663 C 0.0324 0.39985 0.73983 0.0
C664 C 0.01477 0.39026 0.75146 0.0
C665 C 0.96118 0.3652 0.77697 0.0
C666 C 0.97994 0.37335 0.76954 0.0
H667 H 0.05761 0.4369 0.7054 0.0
H668 H 0.02834 0.4202 0.7238 0.0
H669 H 0.00749 0.36552 0.73308 0.0
H670 H 0.92625 0.32615 0.7953 0.0
H671 H 0.95721 0.33919 0.78385 0.0
C672 C 0.43107 0.16158 0.22217 0.0
C673 C 0.44713 0.16247 0.21711 0.0
C674 C 0.43063 0.17636 0.23086 0.0
C675 C 0.45815 0.21908 0.26248 0.0
H676 H 0.42482 0.23093 0.23385 0.0
C677 C 0.46478 0.2865 0.27843 0.0
C678 C 0.4495 0.28709 0.28395 0.0
C679 C 0.46376 0.27089 0.27058 0.0
C680 C 0.43406 0.22767 0.24225 0.0
H681 H 0.47532 0.17951 0.21702 0.0
H682 H 0.47456 0.20529 0.23195 0.0
H683 H 0.42432 0.20425 0.21978 0.0
H684 H 0.42117 0.27188 0.28532 0.0
H685 H 0.41937 0.24449 0.27167 0.0
H686 H 0.46799 0.2425 0.2848 0.0
C687 C 0.4623 0.19315 0.22956 0.0
C688 C 0.43377 0.2124 0.23421 0.0
C689 C 0.46274 0.1784 0.22086 0.0
C690 C 0.43316 0.2718 0.28116 0.0
C691 C 0.43213 0.25615 0.27325 0.0
C692 C 0.45845 0.23432 0.27049 0.0
C693 C 0.44626 0.19229 0.23472 0.0
C694 C 0.44595 0.20804 0.24404 0.0
C695 C 0.44744 0.25551 0.26808 0.0
C696 C 0.44654 0.23889 0.26027 0.0
H697 H 0.41883 0.14945 0.21947 0.0
H698 H 0.41807 0.17525 0.23489 0.0
H699 H 0.46748 0.21591 0.27081 0.0
H700 H 0.47757 0.29809 0.2803 0.0
H701 H 0.47578 0.27091 0.26632 0.0
C702 C 0.18039 0.46275 0.29272 0.0
C703 C 0.16324 0.44947 0.28719 0.0
C704 C 0.19466 0.46122 0.28477 0.0
C705 C 0.20764 0.43782 0.2386 0.0
H706 H 0.24854 0.45593 0.28268 0.0
C707 C 0.26865 0.43197 0.21395 0.0
C708 C 0.28474 0.4476 0.21647 0.0
C709 C 0.25328 0.43082 0.22349 0.0
C710 C 0.23723 0.45087 0.27015 0.0
H711 H 0.14752 0.42414 0.26912 0.0
H712 H 0.1725 0.42126 0.25564 0.0
H713 H 0.22254 0.45621 0.29772 0.0
H714 H 0.29745 0.47416 0.23119 0.0
H715 H 0.27068 0.4721 0.24799 0.0
H716 H 0.22245 0.43245 0.21108 0.0
C717 C 0.17493 0.433 0.26574 0.0
C718 C 0.22234 0.45108 0.27869 0.0
C719 C 0.16062 0.4346 0.27355 0.0
C720 C 0.28523 0.46194 0.22899 0.0
C721 C 0.26993 0.46074 0.23873 0.0
C722 C 0.22251 0.43748 0.23014 0.0
C723 C 0.19214 0.4463 0.27129 0.0
C724 C 0.20747 0.44485 0.26285 0.0
C725 C 0.25379 0.4452 0.23597 0.0
C726 C 0.23754 0.44427 0.24567 0.0
H727 H 0.18282 0.47442 0.30306 0.0
H728 H 0.20771 0.47189 0.28891 0.0
H729 H 0.1965 0.43309 0.22578 0.0
H730 H 0.26789 0.42071 0.20437 0.0
H731 H 0.24101 0.41866 0.22125 0.0
C732 C 0.72577 0.16161 0.27607 0.0
C733 C 0.71044 0.16259 0.27879 0.0
C734 C 0.74134 0.17621 0.2678 0.0
C735 C 0.758 0.21852 0.23394 0.0
H736 H 0.80187 0.23083 0.26778 0.0
C737 C 0.81908 0.28619 0.22164 0.0
C738 C 0.83518 0.28693 0.21769 0.0
C739 C 0.80428 0.27051 0.22873 0.0
C740 C 0.78975 0.22744 0.25795 0.0
H741 H 0.69937 0.17957 0.27506 0.0
H742 H 0.72648 0.205 0.26093 0.0
H743 H 0.77512 0.20419 0.28046 0.0
H744 H 0.84852 0.27193 0.21851 0.0
H745 H 0.82254 0.24442 0.231 0.0
H746 H 0.77253 0.24183 0.21168 0.0
C747 C 0.72648 0.19294 0.26478 0.0
C748 C 0.77444 0.21217 0.26518 0.0
C749 C 0.71095 0.17839 0.27303 0.0
C750 C 0.83627 0.27173 0.22144 0.0
C751 C 0.82143 0.25602 0.22867 0.0
C752 C 0.77326 0.23376 0.22678 0.0
C753 C 0.74186 0.19204 0.26205 0.0
C754 C 0.75835 0.20767 0.25346 0.0
C755 C 0.80523 0.25521 0.2321 0.0
C756 C 0.78927 0.23851 0.23892 0.0
H757 H 0.72575 0.14959 0.28035 0.0
H758 H 0.75292 0.17504 0.26566 0.0
H759 H 0.7459 0.21523 0.22415 0.0
H760 H 0.81784 0.29769 0.21898 0.0
H761 H 0.79207 0.27039 0.23166 0.0
C762 C 0.53177 0.81748 0.21218 0.0
C763 C 0.54667 0.83425 0.21257 0.0
C764 C 0.53293 0.80285 0.21929 0.0
C765 C 0.56021 0.78926 0.25529 0.0
H766 H 0.53345 0.74629 0.21647 0.0
C767 C 0.56412 0.7266 0.27488 0.0
C768 C 0.54795 0.71094 0.27598 0.0
C769 C 0.56505 0.74203 0.26609 0.0
C770 C 0.54092 0.75817 0.22758 0.0
H771 H 0.57446 0.84891 0.22085 0.0
H772 H 0.57656 0.82325 0.23304 0.0
H773 H 0.53314 0.77262 0.20329 0.0
H774 H 0.52012 0.6991 0.26856 0.0
H775 H 0.52174 0.72596 0.25325 0.0
H776 H 0.56792 0.77469 0.27963 0.0
C777 C 0.56393 0.82145 0.2275 0.0
C778 C 0.54072 0.77325 0.22008 0.0
C779 C 0.56275 0.83613 0.22043 0.0
C780 C 0.53278 0.71096 0.26787 0.0
C781 C 0.53372 0.72632 0.25897 0.0
C782 C 0.56046 0.77416 0.26275 0.0
C783 C 0.54903 0.80462 0.22686 0.0
C784 C 0.55015 0.78891 0.23405 0.0
C785 C 0.54984 0.74204 0.25807 0.0
C786 C 0.55061 0.75839 0.24919 0.0
H787 H 0.51916 0.81562 0.20635 0.0
H788 H 0.52113 0.79013 0.21905 0.0
H789 H 0.56749 0.80107 0.26661 0.0
H790 H 0.57603 0.72696 0.28101 0.0
H791 H 0.57768 0.75392 0.26542 0.0
C792 C 0.72803 0.5655 0.21446 0.0
C793 C 0.71284 0.54905 0.21174 0.0
C794 C 0.74382 0.56672 0.22207 0.0
C795 C 0.76618 0.54093 0.22347 0.0
H796 H 0.79587 0.57424 0.27531 0.0
C797 C 0.82114 0.53536 0.2735 0.0
C798 C 0.83702 0.55077 0.27845 0.0
C799 C 0.80671 0.53615 0.26428 0.0
C800 C 0.78785 0.56504 0.26054 0.0
H801 H 0.70218 0.52102 0.21524 0.0
H802 H 0.72962 0.52316 0.2286 0.0
H803 H 0.76923 0.57388 0.26144 0.0
H804 H 0.8503 0.57913 0.27754 0.0
H805 H 0.82503 0.58052 0.26117 0.0
H806 H 0.78465 0.53199 0.2226 0.0
C807 C 0.72943 0.5351 0.22455 0.0
C808 C 0.77259 0.56483 0.25262 0.0
C809 C 0.71368 0.53389 0.21707 0.0
C810 C 0.8382 0.56703 0.27391 0.0
C811 C 0.82372 0.56782 0.26468 0.0
C812 C 0.78141 0.54116 0.23132 0.0
C813 C 0.74471 0.55151 0.22693 0.0
C814 C 0.76146 0.55258 0.23429 0.0
C815 C 0.80781 0.55238 0.25976 0.0
C816 C 0.79229 0.55303 0.25022 0.0
H817 H 0.72776 0.57741 0.21045 0.0
H818 H 0.7554 0.57954 0.22361 0.0
H819 H 0.75806 0.53158 0.2089 0.0
H820 H 0.81981 0.52263 0.27691 0.0
H821 H 0.79458 0.524 0.2611 0.0
C822 C 0.16096 0.71967 0.23506 0.0
C823 C 0.1622 0.7127 0.21135 0.0
C824 C 0.17507 0.73522 0.24435 0.0
C825 C 0.21509 0.77503 0.22416 0.0
H826 H 0.23084 0.77568 0.29411 0.0
C827 C 0.27099 0.83725 0.27206 0.0
C828 C 0.2838 0.83495 0.28459 0.0
C829 C 0.25543 0.82275 0.26361 0.0
C830 C 0.22657 0.77568 0.27455 0.0
H831 H 0.17897 0.71666 0.1785 0.0
H832 H 0.20352 0.74393 0.19459 0.0
H833 H 0.20472 0.74966 0.27806 0.0
H834 H 0.29036 0.81574 0.29836 0.0
H835 H 0.26313 0.79043 0.28377 0.0
H836 H 0.23706 0.80097 0.22055 0.0
C837 C 0.19166 0.73737 0.20599 0.0
C838 C 0.21156 0.76087 0.26545 0.0
C839 C 0.17765 0.72173 0.19686 0.0
C840 C 0.28071 0.81791 0.28874 0.0
C841 C 0.2651 0.80342 0.28053 0.0
C842 C 0.22998 0.78992 0.23335 0.0
C843 C 0.19057 0.74419 0.22992 0.0
C844 C 0.20581 0.76032 0.24007 0.0
C845 C 0.25233 0.8057 0.2678 0.0
C846 C 0.23599 0.7903 0.25853 0.0
H847 H 0.14919 0.71296 0.24662 0.0
H848 H 0.17385 0.74027 0.26279 0.0
H849 H 0.21086 0.77499 0.20456 0.0
H850 H 0.27302 0.85025 0.26864 0.0
H851 H 0.24576 0.82487 0.25398 0.0
C852 C 0.56374 0.72654 0.71586 0.0
C853 C 0.54736 0.71171 0.71087 0.0
C854 C 0.56487 0.74224 0.72374 0.0
C855 C 0.53983 0.76547 0.72267 0.0
H856 H 0.57071 0.79306 0.77826 0.0
C857 C 0.53279 0.81923 0.77384 0.0
C858 C 0.54807 0.83491 0.78014 0.0
C859 C 0.5338 0.80497 0.76437 0.0
C860 C 0.56221 0.78562 0.76247 0.0
H861 H 0.51934 0.70157 0.71057 0.0
H862 H 0.52128 0.72883 0.7245 0.0
H863 H 0.57047 0.76656 0.76384 0.0
H864 H 0.5764 0.84801 0.78148 0.0
H865 H 0.57819 0.82299 0.76479 0.0
H866 H 0.53142 0.78436 0.72143 0.0
C867 C 0.53327 0.72846 0.72197 0.0
C868 C 0.56206 0.77045 0.75423 0.0
C869 C 0.53215 0.71281 0.71416 0.0
C870 C 0.56441 0.83607 0.77678 0.0
C871 C 0.56543 0.82174 0.76736 0.0
C872 C 0.53997 0.78059 0.7309 0.0
C873 C 0.54964 0.7434 0.72667 0.0
C874 C 0.55066 0.76007 0.73449 0.0
C875 C 0.55011 0.80605 0.761 0.0
C876 C 0.55096 0.7907 0.75114 0.0
H877 H 0.57569 0.72607 0.71344 0.0
H878 H 0.57767 0.75356 0.72705 0.0
H879 H 0.53118 0.75797 0.70704 0.0
H880 H 0.52 0.81792 0.7763 0.0
H881 H 0.52176 0.79298 0.76004 0.0
C882 C 0.71106 0.53666 0.75994 0.0
C883 C 0.71148 0.55064 0.77347 0.0
C884 C 0.72648 0.53792 0.75064 0.0
C885 C 0.77399 0.56111 0.76154 0.0
H886 H 0.77446 0.5408 0.6955 0.0
C887 C 0.8359 0.56293 0.7197 0.0
C888 C 0.83317 0.54716 0.70887 0.0
C889 C 0.82164 0.56485 0.72676 0.0
C890 C 0.7745 0.54644 0.71405 0.0
H891 H 0.72832 0.57703 0.78757 0.0
H892 H 0.75536 0.57929 0.77112 0.0
H893 H 0.74849 0.5418 0.70876 0.0
H894 H 0.81346 0.52102 0.69708 0.0
H895 H 0.78866 0.52432 0.70949 0.0
H896 H 0.79997 0.56554 0.76691 0.0
C897 C 0.74309 0.56729 0.76794 0.0
C898 C 0.75963 0.54701 0.72165 0.0
C899 C 0.72762 0.56604 0.77722 0.0
C900 C 0.81598 0.53335 0.70532 0.0
C901 C 0.80176 0.53528 0.71226 0.0
C902 C 0.7889 0.56056 0.75391 0.0
C903 C 0.74269 0.5532 0.75466 0.0
C904 C 0.75908 0.55406 0.74567 0.0
C905 C 0.80442 0.55106 0.72296 0.0
C906 C 0.78919 0.55293 0.73028 0.0
H907 H 0.69882 0.52461 0.75681 0.0
H908 H 0.72573 0.52673 0.74084 0.0
H909 H 0.77391 0.56647 0.78028 0.0
H910 H 0.84903 0.57381 0.72262 0.0
H911 H 0.82409 0.57719 0.73482 0.0
C912 C 0.26952 0.8372 0.71608 0.0
C913 C 0.28539 0.83721 0.71841 0.0
C914 C 0.25374 0.82252 0.72354 0.0
C915 C 0.2341 0.77504 0.73277 0.0
H916 H 0.19913 0.77854 0.77346 0.0
C917 C 0.17768 0.71488 0.78113 0.0
C918 C 0.16098 0.71315 0.78095 0.0
C919 C 0.19226 0.73037 0.77291 0.0
C920 C 0.20866 0.77737 0.76179 0.0
H921 H 0.29726 0.82208 0.73093 0.0
H922 H 0.26985 0.79659 0.74395 0.0
H923 H 0.22576 0.8052 0.76031 0.0
H924 H 0.14642 0.7263 0.77218 0.0
H925 H 0.17197 0.75342 0.75748 0.0
H926 H 0.21715 0.74731 0.73415 0.0
C927 C 0.26952 0.80779 0.73609 0.0
C928 C 0.22391 0.79262 0.7543 0.0
C929 C 0.28524 0.82244 0.72878 0.0
C930 C 0.15915 0.72729 0.77253 0.0
C931 C 0.17379 0.74283 0.76424 0.0
C932 C 0.21889 0.75984 0.74015 0.0
C933 C 0.25358 0.80757 0.73327 0.0
C934 C 0.2369 0.79158 0.74006 0.0
C935 C 0.19049 0.74449 0.7642 0.0
C936 C 0.20611 0.7608 0.75509 0.0
H937 H 0.26926 0.84842 0.70815 0.0
H938 H 0.24164 0.82269 0.72107 0.0
H939 H 0.2437 0.77383 0.72131 0.0
H940 H 0.17952 0.70426 0.78766 0.0
H941 H 0.20497 0.73132 0.77359 0.0
C942 C 0.4301 0.26996 0.72581 0.0
C943 C 0.44539 0.28263 0.71345 0.0
C944 C 0.42843 0.25397 0.73335 0.0
C945 C 0.4462 0.2246 0.7211 0.0
H946 H 0.42988 0.20766 0.79022 0.0
C947 C 0.43936 0.15992 0.75952 0.0
C948 C 0.44643 0.161 0.78414 0.0
C949 C 0.43723 0.1736 0.75013 0.0
C950 C 0.43445 0.21223 0.77086 0.0
H951 H 0.47083 0.2885 0.69904 0.0
H952 H 0.46794 0.26069 0.71226 0.0
H953 H 0.43009 0.2339 0.77481 0.0
H954 H 0.45656 0.17707 0.8184 0.0
H955 H 0.45292 0.20092 0.80203 0.0
H956 H 0.45107 0.20325 0.71742 0.0
C957 C 0.45718 0.26299 0.71593 0.0
C958 C 0.43441 0.22714 0.76195 0.0
C959 C 0.45889 0.27898 0.70854 0.0
C960 C 0.45107 0.17587 0.79934 0.0
C961 C 0.44887 0.18947 0.79004 0.0
C962 C 0.44617 0.20964 0.72996 0.0
C963 C 0.44196 0.25034 0.72849 0.0
C964 C 0.44057 0.23366 0.73714 0.0
C965 C 0.44203 0.18855 0.76528 0.0
C966 C 0.44058 0.20347 0.7551 0.0
H967 H 0.41947 0.27242 0.72978 0.0
H968 H 0.4165 0.24441 0.74285 0.0
H969 H 0.45084 0.22921 0.70178 0.0
H970 H 0.43563 0.14859 0.74741 0.0
H971 H 0.43181 0.17247 0.73105 0.0
C972 C 0.15871 0.43082 0.7199 0.0
C973 C 0.15858 0.44665 0.7215 0.0
C974 C 0.17319 0.42983 0.72861 0.0
C975 C 0.21238 0.45265 0.77028 0.0
H976 H 0.23052 0.42901 0.72814 0.0
C977 C 0.28169 0.46362 0.78418 0.0
C978 C 0.28387 0.44892 0.78321 0.0
C979 C 0.26574 0.4622 0.77735 0.0
C980 C 0.22548 0.43547 0.74028 0.0
H981 H 0.1734 0.47379 0.7336 0.0
H982 H 0.19865 0.47212 0.74851 0.0
H983 H 0.20358 0.42839 0.71541 0.0
H984 H 0.27116 0.42125 0.77409 0.0
H985 H 0.2432 0.41878 0.76208 0.0
H986 H 0.2344 0.45997 0.79491 0.0
C987 C 0.18752 0.4604 0.74089 0.0
C988 C 0.21004 0.43509 0.73301 0.0
C989 C 0.17309 0.46139 0.7322 0.0
C990 C 0.26984 0.4328 0.77499 0.0
C991 C 0.25387 0.4314 0.76803 0.0
C992 C 0.22781 0.45306 0.77749 0.0
C993 C 0.18779 0.44464 0.73913 0.0
C994 C 0.20345 0.4439 0.74775 0.0
C995 C 0.25162 0.44607 0.76934 0.0
C996 C 0.23467 0.44469 0.76238 0.0
H997 H 0.14769 0.41925 0.71176 0.0
H998 H 0.17293 0.41745 0.72721 0.0
H999 H 0.20746 0.45926 0.78233 0.0
H1000 H 0.29228 0.47623 0.79038 0.0
H1001 H 0.2645 0.4738 0.77816 0.0
C1002 C 0.83368 0.27575 0.75764 0.0
C1003 C 0.83356 0.2811 0.78308 0.0
C1004 C 0.81991 0.25989 0.74852 0.0
C1005 C 0.78327 0.21724 0.76962 0.0
H1006 H 0.76244 0.21813 0.70433 0.0
C1007 C 0.71481 0.16231 0.73797 0.0
C1008 C 0.71186 0.15825 0.71165 0.0
C1009 C 0.73074 0.17632 0.74638 0.0
C1010 C 0.76826 0.21752 0.72237 0.0
H1011 H 0.8192 0.2739 0.81911 0.0
H1012 H 0.79521 0.24625 0.80322 0.0
H1013 H 0.78853 0.24431 0.71936 0.0
H1014 H 0.72346 0.16512 0.67359 0.0
H1015 H 0.75139 0.18923 0.68827 0.0
H1016 H 0.76297 0.19046 0.77271 0.0
C1017 C 0.80596 0.25424 0.79035 0.0
C1018 C 0.78321 0.23256 0.731 0.0
C1019 C 0.81963 0.27013 0.79939 0.0
C1020 C 0.72532 0.16806 0.69399 0.0
C1021 C 0.74129 0.18195 0.7024 0.0
C1022 C 0.76837 0.20214 0.76092 0.0
C1023 C 0.80586 0.24902 0.76476 0.0
C1024 C 0.79075 0.23265 0.75485 0.0
C1025 C 0.7441 0.18647 0.72865 0.0
C1026 C 0.76056 0.20215 0.73731 0.0
H1027 H 0.84428 0.28393 0.74466 0.0
H1028 H 0.82024 0.25612 0.72876 0.0
H1029 H 0.78894 0.21688 0.78795 0.0
H1030 H 0.70463 0.155 0.75199 0.0
H1031 H 0.73235 0.17954 0.76669 0.0
C1032 C 0.46128 0.13378 0.09715 0.0
C1033 C 0.44595 0.1241 0.11165 0.0
C1034 C 0.46048 0.13448 0.07036 0.0
C1035 C 0.43297 0.10992 0.01534 0.0
H1036 H 0.46337 0.1526 0.97794 0.0
C1037 C 0.43262 0.11401 0.90403 0.0
C1038 C 0.44916 0.12277 0.89224 0.0
C1039 C 0.43106 0.11475 0.93075 0.0
C1040 C 0.45487 0.14056 0.98812 0.0
H1041 H 0.4177 0.10786 0.10961 0.0
H1042 H 0.41628 0.10915 0.06271 0.0
H1043 H 0.46263 0.15312 0.02487 0.0
H1044 H 0.47702 0.13919 0.89908 0.0
H1045 H 0.47433 0.14035 0.94561 0.0
H1046 H 0.42542 0.0973 0.97858 0.0
C1047 C 0.42894 0.11605 0.07206 0.0
C1048 C 0.45445 0.14086 0.01498 0.0
C1049 C 0.42974 0.11539 0.0989 0.0
C1050 C 0.46409 0.13233 0.90761 0.0
C1051 C 0.46254 0.1331 0.93426 0.0
C1052 C 0.43339 0.10962 0.98844 0.0
C1053 C 0.44432 0.12549 0.05748 0.0
C1054 C 0.4437 0.12549 0.02891 0.0
C1055 C 0.44602 0.12432 0.94614 0.0
C1056 C 0.44456 0.12488 0.97456 0.0
H1057 H 0.47396 0.14061 0.10645 0.0
H1058 H 0.47259 0.14167 0.05968 0.0
H1059 H 0.4247 0.09781 0.02552 0.0
H1060 H 0.42088 0.10657 0.89263 0.0
H1061 H 0.41815 0.10796 0.93933 0.0
C1062 C 0.31308 0.43279 0.89929 0.0
C1063 C 0.32092 0.44916 0.88702 0.0
C1064 C 0.31076 0.4316 0.926 0.0
C1065 C 0.30931 0.45591 0.98308 0.0
H1066 H 0.32387 0.42717 0.02005 0.0
C1067 C 0.32437 0.46364 0.09182 0.0
C1068 C 0.32 0.44857 0.10633 0.0
C1069 C 0.32221 0.46259 0.06511 0.0
C1070 C 0.31945 0.43502 0.01005 0.0
H1071 H 0.33213 0.47709 0.89289 0.0
H1072 H 0.32817 0.47503 0.93948 0.0
H1073 H 0.32402 0.42725 0.97316 0.0
H1074 H 0.30942 0.4205 0.10444 0.0
H1075 H 0.30542 0.41861 0.05781 0.0
H1076 H 0.30494 0.46384 0.01999 0.0
C1077 C 0.32367 0.4631 0.9285 0.0
C1078 C 0.31955 0.43507 0.98316 0.0
C1079 C 0.32605 0.46429 0.90184 0.0
C1080 C 0.31301 0.43236 0.09372 0.0
C1081 C 0.3108 0.43129 0.067 0.0
C1082 C 0.30915 0.45581 0.00999 0.0
C1083 C 0.31617 0.44676 0.9409 0.0
C1084 C 0.31472 0.4457 0.96939 0.0
C1085 C 0.31559 0.44643 0.05235 0.0
C1086 C 0.31446 0.44556 0.02379 0.0
H1087 H 0.30894 0.4209 0.88833 0.0
H1088 H 0.30478 0.41882 0.935 0.0
H1089 H 0.30526 0.46403 0.97298 0.0
H1090 H 0.32981 0.47633 0.10103 0.0
H1091 H 0.32625 0.47454 0.05439 0.0
C1092 C 0.88386 0.32098 0.90319 0.0
C1093 C 0.87293 0.32588 0.89045 0.0
C1094 C 0.88404 0.32036 0.93011 0.0
C1095 C 0.87343 0.33803 0.98734 0.0
H1096 H 0.87456 0.3002 0.02364 0.0
C1097 C 0.86242 0.32922 0.09639 0.0
C1098 C 0.87376 0.32558 0.11058 0.0
C1099 C 0.8622 0.32845 0.06955 0.0
C1100 C 0.87442 0.31093 0.01375 0.0
H1101 H 0.8534 0.33366 0.89578 0.0
H1102 H 0.85358 0.33241 0.9426 0.0
H1103 H 0.87457 0.30049 0.97654 0.0
H1104 H 0.89347 0.31784 0.10789 0.0
H1105 H 0.89316 0.31656 0.06083 0.0
H1106 H 0.87325 0.34849 0.02439 0.0
C1107 C 0.86222 0.32932 0.9319 0.0
C1108 C 0.87444 0.31111 0.98681 0.0
C1109 C 0.86204 0.32993 0.90507 0.0
C1110 C 0.88458 0.32071 0.09743 0.0
C1111 C 0.88436 0.31991 0.07051 0.0
C1112 C 0.87339 0.33785 0.01419 0.0
C1113 C 0.87331 0.32466 0.94475 0.0
C1114 C 0.8738 0.3246 0.97332 0.0
C1115 C 0.87333 0.32402 0.05629 0.0
C1116 C 0.87374 0.32424 0.02771 0.0
H1117 H 0.89239 0.31779 0.89239 0.0
H1118 H 0.89283 0.31686 0.93945 0.0
H1119 H 0.87331 0.34881 0.97754 0.0
H1120 H 0.85386 0.33292 0.106 0.0
H1121 H 0.85334 0.33138 0.05916 0.0
C1122 C 0.56209 0.87874 0.09625 0.0
C1123 C 0.54572 0.87143 0.10849 0.0
C1124 C 0.56315 0.87779 0.06949 0.0
C1125 C 0.53779 0.85376 0.01218 0.0
H1126 H 0.56952 0.89634 0.97558 0.0
C1127 C 0.53184 0.8618 0.90335 0.0
C1128 C 0.54721 0.87143 0.88888 0.0
C1129 C 0.53261 0.86084 0.9301 0.0
C1130 C 0.56081 0.88425 0.98548 0.0
H1131 H 0.51764 0.85711 0.10247 0.0
H1132 H 0.51948 0.85544 0.05576 0.0
H1133 H 0.56916 0.89629 0.02251 0.0
H1134 H 0.57547 0.88729 0.89096 0.0
H1135 H 0.57687 0.8854 0.93777 0.0
H1136 H 0.52934 0.84174 0.9752 0.0
C1137 C 0.53149 0.86182 0.06683 0.0
C1138 C 0.56059 0.88424 0.01239 0.0
C1139 C 0.53044 0.86286 0.09355 0.0
C1140 C 0.56341 0.87983 0.90165 0.0
C1141 C 0.56419 0.87882 0.92846 0.0
C1142 C 0.53807 0.85375 0.98529 0.0
C1143 C 0.54786 0.86941 0.05449 0.0
C1144 C 0.54891 0.86906 0.02601 0.0
C1145 C 0.54877 0.86943 0.94301 0.0
C1146 C 0.5494 0.86906 0.9716 0.0
H1147 H 0.5741 0.8854 0.10729 0.0
H1148 H 0.57594 0.88361 0.06053 0.0
H1149 H 0.52884 0.84179 0.02218 0.0
H1150 H 0.51915 0.85524 0.89404 0.0
H1151 H 0.52046 0.85372 0.94071 0.0
C1152 C 0.67315 0.53208 0.09129 0.0
C1153 C 0.67519 0.54682 0.10466 0.0
C1154 C 0.67471 0.53242 0.06451 0.0
C1155 C 0.69112 0.56219 0.00817 0.0
H1156 H 0.65642 0.52122 0.97123 0.0
C1157 C 0.67814 0.56208 0.89898 0.0
C1158 C 0.6747 0.5471 0.88487 0.0
C1159 C 0.67982 0.56236 0.92576 0.0
C1160 C 0.66636 0.53267 0.98125 0.0
H1161 H 0.68083 0.5736 0.10064 0.0
H1162 H 0.68328 0.57413 0.05379 0.0
H1163 H 0.65645 0.52117 0.01808 0.0
H1164 H 0.67078 0.52085 0.88757 0.0
H1165 H 0.67381 0.52137 0.93432 0.0
H1166 H 0.70081 0.57377 0.97118 0.0
C1167 C 0.68072 0.56238 0.064 0.0
C1168 C 0.6664 0.53264 0.00812 0.0
C1169 C 0.67921 0.56205 0.09082 0.0
C1170 C 0.67336 0.53256 0.89796 0.0
C1171 C 0.675 0.53282 0.92473 0.0
C1172 C 0.69106 0.56223 0.98125 0.0
C1173 C 0.67827 0.54749 0.05051 0.0
C1174 C 0.67873 0.54742 0.02191 0.0
C1175 C 0.67804 0.54764 0.93895 0.0
C1176 C 0.67863 0.54749 0.9675 0.0
H1177 H 0.67015 0.52019 0.10147 0.0
H1178 H 0.67305 0.52083 0.05475 0.0
H1179 H 0.70094 0.5737 0.01823 0.0
H1180 H 0.67924 0.57348 0.88938 0.0
H1181 H 0.682 0.57391 0.93619 0.0
C1182 C 0.1305 0.66418 0.89867 0.0
C1183 C 0.12256 0.67198 0.88476 0.0
C1184 C 0.13076 0.66459 0.92553 0.0
C1185 C 0.12625 0.68738 0.98199 0.0
H1186 H 0.11514 0.64427 0.01718 0.0
C1187 C 0.11559 0.67842 0.09242 0.0
C1188 C 0.12258 0.66917 0.10494 0.0
C1189 C 0.11563 0.67932 0.06552 0.0
C1190 C 0.11847 0.65647 0.00768 0.0
H1191 H 0.109 0.6867 0.88798 0.0
H1192 H 0.10939 0.68737 0.93508 0.0
H1193 H 0.1154 0.64508 0.97034 0.0
H1194 H 0.13536 0.65389 0.09923 0.0
H1195 H 0.13568 0.65567 0.05244 0.0
H1196 H 0.12939 0.69878 0.01944 0.0
C1197 C 0.11551 0.68102 0.92516 0.0
C1198 C 0.11861 0.65693 0.98082 0.0
C1199 C 0.11523 0.68058 0.89822 0.0
C1200 C 0.12978 0.66102 0.09012 0.0
C1201 C 0.12986 0.66196 0.06329 0.0
C1202 C 0.12615 0.68693 0.00893 0.0
C1203 C 0.12308 0.67283 0.93909 0.0
C1204 C 0.12262 0.67241 0.96767 0.0
C1205 C 0.12268 0.671 0.05065 0.0
C1206 C 0.12238 0.67149 0.02206 0.0
H1207 H 0.13634 0.65753 0.88883 0.0
H1208 H 0.13695 0.65842 0.93571 0.0
H1209 H 0.12953 0.69954 0.97238 0.0
H1210 H 0.10992 0.6848 0.10338 0.0
H1211 H 0.10984 0.68624 0.05637 0.0
C1212 C 0.87785 0.56352 0.5943 0.0
C1213 C 0.87007 0.54685 0.60567 0.0
C1214 C 0.87692 0.56526 0.56768 0.0
C1215 C 0.85253 0.54137 0.50947 0.0
H1216 H 0.89557 0.57282 0.47363 0.0
C1217 C 0.86182 0.53554 0.40108 0.0
C1218 C 0.87176 0.55089 0.38672 0.0
C1219 C 0.86037 0.53634 0.42774 0.0
C1220 C 0.88336 0.56421 0.48334 0.0
H1221 H 0.85493 0.51894 0.59825 0.0
H1222 H 0.85336 0.52196 0.55182 0.0
H1223 H 0.89525 0.57192 0.52054 0.0
H1224 H 0.8876 0.57917 0.38885 0.0
H1225 H 0.88493 0.5806 0.43552 0.0
H1226 H 0.8407 0.53346 0.47227 0.0
C1227 C 0.86005 0.5337 0.56345 0.0
C1228 C 0.88319 0.56369 0.51023 0.0
C1229 C 0.86106 0.53196 0.59002 0.0
C1230 C 0.8799 0.56712 0.39946 0.0
C1231 C 0.87845 0.56792 0.42618 0.0
C1232 C 0.85269 0.54194 0.48259 0.0
C1233 C 0.8681 0.55035 0.55196 0.0
C1234 C 0.86785 0.55204 0.52356 0.0
C1235 C 0.86881 0.55252 0.44065 0.0
C1236 C 0.86819 0.55313 0.4692 0.0
H1237 H 0.88484 0.57523 0.60592 0.0
H1238 H 0.88311 0.57826 0.55938 0.0
H1239 H 0.84044 0.53248 0.51924 0.0
H1240 H 0.85541 0.52284 0.39179 0.0
H1241 H 0.85306 0.52421 0.43832 0.0
C1242 C 0.32417 0.86187 0.59625 0.0
C1243 C 0.32631 0.87647 0.61013 0.0
C1244 C 0.32342 0.86168 0.56938 0.0
C1245 C 0.33454 0.87013 0.51359 0.0
H1246 H 0.30889 0.88821 0.47629 0.0
C1247 C 0.34322 0.88349 0.4046 0.0
C1248 C 0.32802 0.87829 0.38996 0.0
C1249 C 0.34249 0.88317 0.43146 0.0
C1250 C 0.31601 0.88301 0.48645 0.0
H1251 H 0.32899 0.9022 0.60686 0.0
H1252 H 0.32779 0.90193 0.55985 0.0
H1253 H 0.30793 0.88731 0.52333 0.0
H1254 H 0.30015 0.86883 0.39191 0.0
H1255 H 0.29885 0.86819 0.43895 0.0
H1256 H 0.34249 0.86566 0.47679 0.0
C1257 C 0.32655 0.89056 0.56975 0.0
C1258 C 0.3156 0.88265 0.51337 0.0
C1259 C 0.32732 0.89075 0.59665 0.0
C1260 C 0.31208 0.87292 0.40271 0.0
C1261 C 0.31136 0.87264 0.42962 0.0
C1262 C 0.335 0.87054 0.48672 0.0
C1263 C 0.32478 0.87609 0.55582 0.0
C1264 C 0.32489 0.87623 0.52723 0.0
C1265 C 0.32654 0.87767 0.44428 0.0
C1266 C 0.32579 0.87704 0.47284 0.0
H1267 H 0.32327 0.85063 0.60612 0.0
H1268 H 0.3218 0.85024 0.55921 0.0
H1269 H 0.34199 0.86528 0.52369 0.0
H1270 H 0.35571 0.88776 0.3953 0.0
H1271 H 0.35447 0.88737 0.4422 0.0
C1272 C 0.43442 0.31648 0.59721 0.0
C1273 C 0.45035 0.32459 0.61072 0.0
C1274 C 0.43428 0.31557 0.57032 0.0
C1275 C 0.46252 0.33731 0.51411 0.0
H1276 H 0.42794 0.2964 0.4769 0.0
C1277 C 0.4667 0.33097 0.40467 0.0
C1278 C 0.45116 0.32527 0.39067 0.0
C1279 C 0.46631 0.3298 0.43149 0.0
C1280 C 0.43759 0.30795 0.48706 0.0
H1281 H 0.47858 0.33763 0.60682 0.0
H1282 H 0.47834 0.33578 0.56001 0.0
H1283 H 0.42787 0.29628 0.52398 0.0
H1284 H 0.42297 0.31345 0.39363 0.0
H1285 H 0.4223 0.31143 0.44064 0.0
H1286 H 0.47227 0.34898 0.47729 0.0
C1287 C 0.46596 0.33045 0.57008 0.0
C1288 C 0.43754 0.3079 0.514 0.0
C1289 C 0.4661 0.33142 0.59691 0.0
C1290 C 0.43515 0.31795 0.40395 0.0
C1291 C 0.43476 0.31672 0.43082 0.0
C1292 C 0.46261 0.33733 0.48726 0.0
C1293 C 0.45006 0.32271 0.55644 0.0
C1294 C 0.45004 0.32258 0.52783 0.0
C1295 C 0.45037 0.32286 0.44487 0.0
C1296 C 0.45018 0.32265 0.47343 0.0
H1297 H 0.42208 0.31113 0.60738 0.0
H1298 H 0.42181 0.30969 0.5604 0.0
H1299 H 0.4721 0.34898 0.52413 0.0
H1300 H 0.47922 0.33659 0.39496 0.0
H1301 H 0.47852 0.33439 0.44177 0.0
C1302 C 0.13253 0.46178 0.59781 0.0
C1303 C 0.12053 0.44718 0.61216 0.0
C1304 C 0.13298 0.46087 0.571 0.0
C1305 C 0.10572 0.43592 0.51553 0.0
H1306 H 0.14974 0.46066 0.47861 0.0
C1307 C 0.11066 0.43343 0.40446 0.0
C1308 C 0.12102 0.44971 0.39244 0.0
C1309 C 0.11081 0.43197 0.43127 0.0
C1310 C 0.13734 0.45375 0.48867 0.0
H1311 H 0.09985 0.42006 0.60983 0.0
H1312 H 0.10083 0.41835 0.56297 0.0
H1313 H 0.1498 0.45994 0.52555 0.0
H1314 H 0.13975 0.47716 0.39892 0.0
H1315 H 0.14005 0.47459 0.44564 0.0
H1316 H 0.0933 0.42979 0.47854 0.0
C1317 C 0.10969 0.43061 0.57239 0.0
C1318 C 0.13737 0.45337 0.51556 0.0
C1319 C 0.10919 0.43155 0.59923 0.0
C1320 C 0.13163 0.46444 0.40766 0.0
C1321 C 0.13189 0.46295 0.43439 0.0
C1322 C 0.10571 0.43622 0.48862 0.0
C1323 C 0.1215 0.44531 0.55794 0.0
C1324 C 0.12154 0.44467 0.52933 0.0
C1325 C 0.12146 0.44672 0.44649 0.0
C1326 C 0.12151 0.44536 0.47494 0.0
H1327 H 0.14139 0.47403 0.60725 0.0
H1328 H 0.14205 0.47253 0.56048 0.0
H1329 H 0.09328 0.4293 0.52551 0.0
H1330 H 0.10238 0.42186 0.39318 0.0
H1331 H 0.10273 0.41927 0.44008 0.0
C1332 C 0.67619 0.11315 0.39803 0.0
C1333 C 0.6718 0.12437 0.38498 0.0
C1334 C 0.67691 0.11324 0.42492 0.0
C1335 C 0.68065 0.13957 0.48229 0.0
H1336 H 0.65688 0.09464 0.51699 0.0
C1337 C 0.66433 0.13344 0.5905 0.0
C1338 C 0.66607 0.1209 0.6048 0.0
C1339 C 0.66599 0.13407 0.56373 0.0
C1340 C 0.6638 0.10729 0.50764 0.0
H1341 H 0.66518 0.14478 0.38973 0.0
H1342 H 0.66646 0.14495 0.43668 0.0
H1343 H 0.65866 0.09569 0.47013 0.0
H1344 H 0.67101 0.09922 0.60238 0.0
H1345 H 0.67415 0.10044 0.5556 0.0
H1346 H 0.68577 0.15119 0.51976 0.0
C1347 C 0.66942 0.13615 0.42615 0.0
C1348 C 0.66481 0.10789 0.48078 0.0
C1349 C 0.66861 0.136 0.39928 0.0
C1350 C 0.66952 0.10899 0.59183 0.0
C1351 C 0.67124 0.10964 0.56503 0.0
C1352 C 0.67971 0.13898 0.50915 0.0
C1353 C 0.67336 0.12462 0.43926 0.0
C1354 C 0.67311 0.12403 0.46781 0.0
C1355 C 0.6695 0.1222 0.55066 0.0
C1356 C 0.67113 0.12283 0.52214 0.0
H1357 H 0.67874 0.10406 0.3875 0.0
H1358 H 0.68017 0.10434 0.4345 0.0
H1359 H 0.68733 0.1522 0.47283 0.0
H1360 H 0.66161 0.14277 0.59998 0.0
H1361 H 0.66428 0.14371 0.55324 0.0
C1362 C 0.53285 0.67056 0.39932 0.0
C1363 C 0.54799 0.67547 0.38464 0.0
C1364 C 0.53395 0.67274 0.42602 0.0
C1365 C 0.56188 0.67645 0.48092 0.0
H1366 H 0.53246 0.6902 0.51786 0.0
C1367 C 0.564 0.6829 0.59171 0.0
C1368 C 0.54764 0.67525 0.60403 0.0
C1369 C 0.56518 0.68509 0.56498 0.0
C1370 C 0.54069 0.68626 0.50781 0.0
H1371 H 0.57618 0.68694 0.38626 0.0
H1372 H 0.57812 0.6909 0.43294 0.0
H1373 H 0.53253 0.69028 0.47086 0.0
H1374 H 0.51974 0.66421 0.59817 0.0
H1375 H 0.52178 0.66789 0.55157 0.0
H1376 H 0.56982 0.67215 0.51783 0.0
C1377 C 0.56538 0.68515 0.42384 0.0
C1378 C 0.54073 0.6863 0.48091 0.0
C1379 C 0.56428 0.68296 0.39711 0.0
C1380 C 0.53254 0.67016 0.58921 0.0
C1381 C 0.53372 0.67238 0.56252 0.0
C1382 C 0.56185 0.67642 0.50782 0.0
C1383 C 0.5502 0.6799 0.43862 0.0
C1384 C 0.55114 0.68116 0.46715 0.0
C1385 C 0.55003 0.67973 0.55008 0.0
C1386 C 0.55107 0.68108 0.52156 0.0
H1387 H 0.5201 0.66472 0.39023 0.0
H1388 H 0.52197 0.66835 0.43686 0.0
H1389 H 0.56987 0.67219 0.47092 0.0
H1390 H 0.57587 0.687 0.60268 0.0
H1391 H 0.57796 0.69097 0.55598 0.0
C1392 C 0.50474 0.11601 0.19741 0.0
C1393 C 0.49406 0.11818 0.21535 0.0
C1394 C 0.51995 0.11619 0.20541 0.0
C1395 C 0.55173 0.1305 0.25924 0.0
H1396 H 0.56463 0.09856 0.22824 0.0
C1397 C 0.60736 0.12074 0.29908 0.0
C1398 C 0.61882 0.12002 0.28099 0.0
C1399 C 0.5922 0.12061 0.29101 0.0
C1400 C 0.56129 0.10767 0.2369 0.0
H1401 H 0.4908 0.12206 0.25575 0.0
H1402 H 0.51716 0.12204 0.26982 0.0
H1403 H 0.53791 0.09792 0.21448 0.0
H1404 H 0.6234 0.11857 0.24027 0.0
H1405 H 0.59687 0.11831 0.22615 0.0
H1406 H 0.57504 0.1401 0.28185 0.0
C1407 C 0.51399 0.12053 0.2495 0.0
C1408 C 0.54598 0.10733 0.22899 0.0
C1409 C 0.49883 0.12043 0.24147 0.0
C1410 C 0.6148 0.11913 0.25466 0.0
C1411 C 0.59957 0.11889 0.24658 0.0
C1412 C 0.56698 0.13077 0.26723 0.0
C1413 C 0.52477 0.11846 0.23155 0.0
C1414 C 0.54102 0.11876 0.24005 0.0
C1415 C 0.58811 0.11964 0.26467 0.0
C1416 C 0.57193 0.11937 0.25613 0.0
H1417 H 0.50143 0.11432 0.17712 0.0
H1418 H 0.52806 0.11481 0.19102 0.0
H1419 H 0.54847 0.13969 0.26785 0.0
H1420 H 0.6101 0.12141 0.31951 0.0
H1421 H 0.58353 0.12102 0.30541 0.0
C1422 C 0.49478 0.61832 0.25288 0.0
C1423 C 0.4981 0.62148 0.27937 0.0
C1424 C 0.47957 0.60349 0.24425 0.0
C1425 C 0.44549 0.55943 0.26513 0.0
H1426 H 0.41933 0.56265 0.20745 0.0
C1427 C 0.37773 0.50221 0.2364 0.0
C1428 C 0.37439 0.49871 0.20998 0.0
C1429 C 0.39269 0.51738 0.24474 0.0
C1430 C 0.42659 0.5615 0.22341 0.0
H1431 H 0.48806 0.61173 0.31759 0.0
H1432 H 0.46146 0.58596 0.30255 0.0
H1433 H 0.44575 0.58879 0.22218 0.0
H1434 H 0.38402 0.50836 0.17157 0.0
H1435 H 0.41024 0.53477 0.18613 0.0
H1436 H 0.42639 0.53216 0.26635 0.0
C1437 C 0.4707 0.59479 0.28843 0.0
C1438 C 0.44173 0.57648 0.23185 0.0
C1439 C 0.48589 0.6096 0.29705 0.0
C1440 C 0.38623 0.51074 0.19206 0.0
C1441 C 0.4012 0.52591 0.20041 0.0
C1442 C 0.43037 0.54447 0.25669 0.0
C1443 C 0.46738 0.59152 0.26193 0.0
C1444 C 0.45133 0.57562 0.25283 0.0
C1445 C 0.40464 0.52937 0.22685 0.0
C1446 C 0.42073 0.54532 0.23576 0.0
H1447 H 0.50398 0.62724 0.23881 0.0
H1448 H 0.4775 0.60126 0.22371 0.0
H1449 H 0.45275 0.55826 0.28107 0.0
H1450 H 0.3688 0.49322 0.25066 0.0
H1451 H 0.39483 0.51978 0.26524 0.0
C1452 C 0.87898 0.49034 0.30196 0.0
C1453 C 0.87784 0.50155 0.28385 0.0
C1454 C 0.8784 0.47493 0.294 0.0
C1455 C 0.88558 0.45418 0.23729 0.0
H1456 H 0.8582 0.41115 0.27567 0.0
C1457 C 0.87359 0.38782 0.19922 0.0
C1458 C 0.87471 0.37641 0.21697 0.0
C1459 C 0.87361 0.40285 0.20767 0.0
C1460 C 0.86606 0.4231 0.26491 0.0
H1461 H 0.87515 0.50544 0.24326 0.0
H1462 H 0.87406 0.47848 0.22934 0.0
H1463 H 0.85902 0.43793 0.28984 0.0
H1464 H 0.87656 0.37167 0.25749 0.0
H1465 H 0.87678 0.39808 0.27229 0.0
H1466 H 0.8927 0.43943 0.21243 0.0
C1467 C 0.87557 0.48168 0.24967 0.0
C1468 C 0.86652 0.43843 0.27302 0.0
C1469 C 0.87611 0.49707 0.25764 0.0
C1470 C 0.87564 0.38022 0.24338 0.0
C1471 C 0.87568 0.39529 0.25185 0.0
C1472 C 0.88514 0.43887 0.22922 0.0
C1473 C 0.87672 0.47044 0.26776 0.0
C1474 C 0.87626 0.45414 0.25926 0.0
C1475 C 0.8748 0.40684 0.23406 0.0
C1476 C 0.87533 0.42313 0.24287 0.0
H1477 H 0.88035 0.49347 0.3223 0.0
H1478 H 0.87952 0.46665 0.30837 0.0
H1479 H 0.89344 0.46613 0.22653 0.0
H1480 H 0.87278 0.38519 0.17873 0.0
H1481 H 0.87262 0.41131 0.19349 0.0
C1482 C 0.48901 0.8682 0.23539 0.0
C1483 C 0.49695 0.87613 0.21193 0.0
C1484 C 0.47367 0.86773 0.24342 0.0
C1485 C 0.44776 0.88958 0.23379 0.0
H1486 H 0.41042 0.84744 0.265 0.0
C1487 C 0.38044 0.88209 0.25715 0.0
C1488 C 0.37288 0.87442 0.28091 0.0
C1489 C 0.39525 0.88185 0.24819 0.0
C1490 C 0.4208 0.85936 0.25656 0.0
H1491 H 0.49505 0.88976 0.17845 0.0
H1492 H 0.46819 0.88885 0.19239 0.0
H1493 H 0.43699 0.84799 0.25049 0.0
H1494 H 0.37476 0.86035 0.31382 0.0
H1495 H 0.40073 0.86007 0.29831 0.0
H1496 H 0.43163 0.90099 0.23997 0.0
C1497 C 0.47392 0.88315 0.20471 0.0
C1498 C 0.43602 0.85968 0.24825 0.0
C1499 C 0.48925 0.88359 0.19667 0.0
C1500 C 0.38028 0.86632 0.29539 0.0
C1501 C 0.3951 0.86609 0.28644 0.0
C1502 C 0.43255 0.88926 0.24212 0.0
C1503 C 0.46595 0.87521 0.22818 0.0
C1504 C 0.44969 0.8748 0.23681 0.0
C1505 C 0.40283 0.87395 0.26281 0.0
C1506 C 0.41889 0.87416 0.25364 0.0
H1507 H 0.49467 0.86237 0.2476 0.0
H1508 H 0.46799 0.86172 0.26175 0.0
H1509 H 0.45815 0.90152 0.22542 0.0
H1510 H 0.37498 0.88839 0.24552 0.0
H1511 H 0.40072 0.8878 0.22974 0.0
C1512 C 0.61071 0.48598 0.19358 0.0
C1513 C 0.62283 0.49822 0.21101 0.0
C1514 C 0.59587 0.47094 0.20251 0.0
C1515 C 0.56731 0.45329 0.25936 0.0
H1516 H 0.55164 0.40843 0.2263 0.0
C1517 C 0.51152 0.38895 0.30121 0.0
C1518 C 0.49933 0.37679 0.28378 0.0
C1519 C 0.52674 0.4036 0.29231 0.0
C1520 C 0.55574 0.42089 0.23555 0.0
H1521 H 0.62903 0.50428 0.25145 0.0
H1522 H 0.60316 0.47794 0.26708 0.0
H1523 H 0.57805 0.43428 0.2109 0.0
H1524 H 0.4935 0.37035 0.24335 0.0
H1525 H 0.52002 0.39605 0.22774 0.0
H1526 H 0.54497 0.43996 0.28392 0.0
C1527 C 0.60502 0.48006 0.2465 0.0
C1528 C 0.57088 0.4357 0.22675 0.0
C1529 C 0.61989 0.49508 0.23756 0.0
C1530 C 0.50269 0.3795 0.25724 0.0
C1531 C 0.51793 0.39416 0.24832 0.0
C1532 C 0.55217 0.4385 0.26813 0.0
C1533 C 0.59281 0.46785 0.22908 0.0
C1534 C 0.57683 0.45206 0.23856 0.0
C1535 C 0.5301 0.40641 0.26576 0.0
C1536 C 0.5462 0.42212 0.25635 0.0
H1537 H 0.61261 0.48807 0.17299 0.0
H1538 H 0.58661 0.46189 0.1886 0.0
H1539 H 0.57139 0.46576 0.26859 0.0
H1540 H 0.50931 0.38717 0.32179 0.0
H1541 H 0.53596 0.41263 0.30626 0.0
C1542 C 0.13608 0.62249 0.22785 0.0
C1543 C 0.12733 0.62215 0.20511 0.0
C1544 C 0.13737 0.60793 0.23517 0.0
C1545 C 0.11683 0.56011 0.22332 0.0
H1546 H 0.15744 0.56579 0.26059 0.0
C1547 C 0.12565 0.50164 0.25203 0.0
C1548 C 0.12934 0.5012 0.27825 0.0
C1549 C 0.12666 0.51666 0.24134 0.0
C1550 C 0.14602 0.56404 0.2502 0.0
H1551 H 0.11351 0.60657 0.17176 0.0
H1552 H 0.11625 0.5814 0.18399 0.0
H1553 H 0.15697 0.59158 0.24473 0.0
H1554 H 0.1375 0.51625 0.31365 0.0
H1555 H 0.13956 0.54259 0.29484 0.0
H1556 H 0.10604 0.53251 0.22862 0.0
C1557 C 0.12169 0.59266 0.19665 0.0
C1558 C 0.14568 0.5788 0.24124 0.0
C1559 C 0.1202 0.60713 0.18953 0.0
C1560 C 0.13456 0.51622 0.29339 0.0
C1561 C 0.13583 0.53131 0.28261 0.0
C1562 C 0.11729 0.54536 0.23198 0.0
C1563 C 0.13013 0.59279 0.21971 0.0
C1564 C 0.13097 0.57705 0.22798 0.0
C1565 C 0.13165 0.53159 0.25659 0.0
C1566 C 0.13179 0.54719 0.24579 0.0
H1567 H 0.14163 0.63387 0.2403 0.0
H1568 H 0.1437 0.60845 0.25327 0.0
H1569 H 0.10514 0.5582 0.21361 0.0
H1570 H 0.12156 0.49023 0.23994 0.0
H1571 H 0.12347 0.5166 0.22118 0.0
C1572 C 0.48471 0.87133 0.79805 0.0
C1573 C 0.49737 0.87205 0.7809 0.0
C1574 C 0.46928 0.87009 0.7888 0.0
C1575 C 0.45054 0.87905 0.73145 0.0
H1576 H 0.40637 0.84924 0.76589 0.0
C1577 C 0.38519 0.87051 0.69363 0.0
C1578 C 0.37392 0.87111 0.71219 0.0
C1579 C 0.39978 0.86936 0.70115 0.0
C1580 C 0.41863 0.85773 0.75618 0.0
H1581 H 0.50375 0.87191 0.74062 0.0
H1582 H 0.4767 0.86965 0.7244 0.0
H1583 H 0.4328 0.84958 0.78053 0.0
H1584 H 0.36893 0.87075 0.75313 0.0
H1585 H 0.39447 0.8689 0.76628 0.0
H1586 H 0.43642 0.88735 0.7073 0.0
C1587 C 0.4788 0.87021 0.74501 0.0
C1588 C 0.43376 0.85792 0.76457 0.0
C1589 C 0.49425 0.87142 0.75429 0.0
C1590 C 0.37736 0.87026 0.73839 0.0
C1591 C 0.39194 0.8691 0.74591 0.0
C1592 C 0.4354 0.87885 0.72307 0.0
C1593 C 0.46616 0.86957 0.76218 0.0
C1594 C 0.44993 0.86871 0.75245 0.0
C1595 C 0.4034 0.86877 0.72738 0.0
C1596 C 0.4193 0.86831 0.73549 0.0
H1597 H 0.48677 0.87183 0.81868 0.0
H1598 H 0.45993 0.86988 0.80253 0.0
H1599 H 0.46283 0.88767 0.72192 0.0
H1600 H 0.38283 0.87109 0.67327 0.0
H1601 H 0.40823 0.86891 0.6864 0.0
C1602 C 0.61296 0.48375 0.79931 0.0
C1603 C 0.62189 0.49765 0.78193 0.0
C1604 C 0.5981 0.4683 0.79147 0.0
C1605 C 0.57466 0.44323 0.73308 0.0
H1606 H 0.53507 0.42049 0.77959 0.0
C1607 C 0.5063 0.38923 0.69996 0.0
C1608 C 0.49737 0.37456 0.71604 0.0
C1609 C 0.52178 0.40386 0.70823 0.0
C1610 C 0.54609 0.42659 0.7665 0.0
H1611 H 0.62232 0.50631 0.74274 0.0
H1612 H 0.59622 0.47953 0.72916 0.0
H1613 H 0.56161 0.44677 0.79355 0.0
H1614 H 0.49757 0.36369 0.7534 0.0
H1615 H 0.52461 0.38934 0.76792 0.0
H1616 H 0.55897 0.42318 0.70589 0.0
C1617 C 0.60084 0.48038 0.74872 0.0
C1618 C 0.56132 0.44163 0.7745 0.0
C1619 C 0.61574 0.49578 0.75653 0.0
C1620 C 0.50417 0.37483 0.7406 0.0
C1621 C 0.51959 0.38953 0.74896 0.0
C1622 C 0.55939 0.42826 0.72504 0.0
C1623 C 0.59181 0.46645 0.7661 0.0
C1624 C 0.57577 0.45018 0.75785 0.0
C1625 C 0.52858 0.40418 0.73283 0.0
C1626 C 0.54493 0.41982 0.74162 0.0
H1627 H 0.61745 0.4848 0.81899 0.0
H1628 H 0.59163 0.45775 0.80525 0.0
H1629 H 0.58564 0.44928 0.71993 0.0
H1630 H 0.50136 0.3894 0.68093 0.0
H1631 H 0.5283 0.41504 0.6955 0.0
C1632 C 0.11434 0.60744 0.79763 0.0
C1633 C 0.11895 0.62139 0.78049 0.0
C1634 C 0.11486 0.59257 0.78977 0.0
C1635 C 0.13373 0.5767 0.73999 0.0
H1636 H 0.09742 0.531 0.76316 0.0
C1637 C 0.12453 0.51171 0.69853 0.0
C1638 C 0.12102 0.49833 0.71628 0.0
C1639 C 0.12481 0.52699 0.70647 0.0
C1640 C 0.10775 0.54368 0.75675 0.0
H1641 H 0.12762 0.63071 0.74166 0.0
H1642 H 0.12818 0.60458 0.72772 0.0
H1643 H 0.09661 0.55706 0.77648 0.0
H1644 H 0.11522 0.49049 0.75628 0.0
H1645 H 0.11568 0.51717 0.77015 0.0
H1646 H 0.14469 0.5632 0.71995 0.0
C1647 C 0.12448 0.60524 0.74739 0.0
C1648 C 0.10731 0.55864 0.7644 0.0
C1649 C 0.12406 0.62017 0.75532 0.0
C1650 C 0.11795 0.50058 0.74216 0.0
C1651 C 0.11811 0.5158 0.75007 0.0
C1652 C 0.1341 0.56172 0.7322 0.0
C1653 C 0.1199 0.59126 0.76454 0.0
C1654 C 0.12032 0.57534 0.75618 0.0
C1655 C 0.12146 0.52912 0.73229 0.0
C1656 C 0.12114 0.54506 0.74056 0.0
H1657 H 0.11045 0.60805 0.81721 0.0
H1658 H 0.11153 0.58219 0.80362 0.0
H1659 H 0.14411 0.58936 0.73362 0.0
H1660 H 0.12694 0.51034 0.67844 0.0
H1661 H 0.12728 0.53697 0.69229 0.0
C1662 C 0.62569 0.13947 0.7339 0.0
C1663 C 0.62552 0.13385 0.70854 0.0
C1664 C 0.6119 0.14148 0.74303 0.0
C1665 C 0.57433 0.14623 0.72278 0.0
H1666 H 0.55462 0.12418 0.78839 0.0
C1667 C 0.50591 0.13141 0.75728 0.0
C1668 C 0.50343 0.13266 0.78375 0.0
C1669 C 0.52175 0.1335 0.74813 0.0
C1670 C 0.56011 0.13069 0.77026 0.0
H1671 H 0.61115 0.1266 0.67252 0.0
H1672 H 0.5871 0.13019 0.68842 0.0
H1673 H 0.58087 0.12487 0.77243 0.0
H1674 H 0.51579 0.13772 0.82129 0.0
H1675 H 0.54353 0.14178 0.80532 0.0
H1676 H 0.55352 0.15201 0.72056 0.0
C1677 C 0.5979 0.13307 0.70124 0.0
C1678 C 0.57516 0.13106 0.7611 0.0
C1679 C 0.61163 0.13093 0.69218 0.0
C1680 C 0.51726 0.13655 0.80079 0.0
C1681 C 0.53313 0.13876 0.79164 0.0
C1682 C 0.55931 0.14597 0.73203 0.0
C1683 C 0.59773 0.13805 0.7269 0.0
C1684 C 0.58236 0.13869 0.73717 0.0
C1685 C 0.53549 0.13699 0.76524 0.0
C1686 C 0.55193 0.13806 0.7558 0.0
H1687 H 0.63624 0.14185 0.74694 0.0
H1688 H 0.61221 0.14554 0.76281 0.0
H1689 H 0.57969 0.15236 0.70438 0.0
H1690 H 0.49545 0.12838 0.74371 0.0
H1691 H 0.52301 0.13184 0.72772 0.0
C1692 C 0.3883 0.50985 0.79968 0.0
C1693 C 0.37503 0.49908 0.78231 0.0
C1694 C 0.40314 0.52505 0.79109 0.0
C1695 C 0.42929 0.54534 0.7329 0.0
H1696 H 0.44765 0.58848 0.77192 0.0
C1697 C 0.48457 0.61083 0.69337 0.0
C1698 C 0.49757 0.6221 0.7107 0.0
C1699 C 0.46949 0.59603 0.70228 0.0
C1700 C 0.44282 0.5765 0.76096 0.0
H1701 H 0.36683 0.49577 0.74236 0.0
H1702 H 0.39274 0.52232 0.72734 0.0
H1703 H 0.4216 0.56221 0.78718 0.0
H1704 H 0.50498 0.62678 0.75096 0.0
H1705 H 0.47877 0.60075 0.76655 0.0
H1706 H 0.45056 0.5595 0.70682 0.0
C1707 C 0.39174 0.51895 0.74757 0.0
C1708 C 0.42788 0.56145 0.76969 0.0
C1709 C 0.37686 0.5038 0.75619 0.0
C1710 C 0.49515 0.61835 0.73716 0.0
C1711 C 0.48008 0.60349 0.74609 0.0
C1712 C 0.44427 0.56035 0.72423 0.0
C1713 C 0.40505 0.52973 0.76493 0.0
C1714 C 0.42093 0.54572 0.75572 0.0
C1715 C 0.4671 0.59211 0.72874 0.0
C1716 C 0.4512 0.57613 0.73811 0.0
H1717 H 0.38725 0.50653 0.81994 0.0
H1718 H 0.41325 0.53298 0.80488 0.0
H1719 H 0.42441 0.53335 0.72193 0.0
H1720 H 0.48603 0.61343 0.67286 0.0
H1721 H 0.45964 0.58772 0.68842 0.0
C1722 C 0.86087 0.37921 0.79941 0.0
C1723 C 0.86307 0.3682 0.78217 0.0
C1724 C 0.86028 0.39382 0.79043 0.0
C1725 C 0.8548 0.41449 0.73152 0.0
H1726 H 0.88047 0.45709 0.77152 0.0
C1727 C 0.87198 0.48287 0.6931 0.0
C1728 C 0.86997 0.49404 0.71029 0.0
C1729 C 0.87022 0.46705 0.7017 0.0
C1730 C 0.87308 0.44527 0.76028 0.0
H1731 H 0.86589 0.36354 0.74194 0.0
H1732 H 0.86517 0.38924 0.72622 0.0
H1733 H 0.87867 0.43015 0.78669 0.0
H1734 H 0.86445 0.4974 0.74991 0.0
H1735 H 0.86141 0.4698 0.76495 0.0
H1736 H 0.84951 0.42982 0.70487 0.0
C1737 C 0.86365 0.38647 0.74667 0.0
C1738 C 0.872 0.42979 0.769 0.0
C1739 C 0.86413 0.37177 0.75567 0.0
C1740 C 0.86612 0.48908 0.73623 0.0
C1741 C 0.86446 0.47331 0.74486 0.0
C1742 C 0.85596 0.43003 0.72272 0.0
C1743 C 0.86201 0.39784 0.764 0.0
C1744 C 0.86283 0.41419 0.75476 0.0
C1745 C 0.86652 0.46214 0.72771 0.0
C1746 C 0.86511 0.44558 0.73703 0.0
H1747 H 0.8599 0.37672 0.81994 0.0
H1748 H 0.85862 0.40206 0.80427 0.0
H1749 H 0.84745 0.40269 0.72023 0.0
H1750 H 0.87495 0.48635 0.67298 0.0
H1751 H 0.87207 0.45881 0.68809 0.0
loop_
_geom_bond_atom_site_label_1
_geom_bond_atom_site_label_2
_geom_bond_distance
_geom_bond_site_symmetry_2
_ccdc_geom_bond_type
In0 O1 2.294 . S
In0 O2 2.326 . S
In0 O6 2.266 . S
In0 O7 2.326 . S
In0 O8 2.266 . S
In0 O9 2.326 . S
In0 O11 2.294 . S
In0 O12 2.326 . S
O1 In0 2.294 . S
O1 C10 1.240 . S
O2 In0 2.326 . S
O2 C10 1.252 . S
C3 O6 1.252 . S
C3 O7 1.260 . S
C4 O11 1.240 . S
C4 O12 1.252 . S
C5 O8 1.252 . S
C5 O9 1.260 . S
O6 In0 2.266 . S
O6 C3 1.252 . S
O7 In0 2.326 . S
O7 C3 1.260 . S
O8 In0 2.266 . S
O8 C5 1.252 . S
O9 In0 2.326 . S
O9 C5 1.260 . S
C10 O1 1.240 . S
C10 O2 1.252 . S
O11 In0 2.294 . S
O11 C4 1.240 . S
O12 In0 2.326 . S
O12 C4 1.252 . S
In13 O14 2.294 . S
In13 O15 2.326 . S
In13 O19 2.266 . S
In13 O20 2.326 . S
In13 O21 2.266 . S
In13 O22 2.326 . S
In13 O24 2.294 . S
In13 O25 2.326 . S
O14 In13 2.294 . S
O14 C23 1.240 . S
O15 In13 2.326 . S
O15 C23 1.252 . S
C16 O19 1.252 . S
C16 O20 1.260 . S
C17 O24 1.240 . S
C17 O25 1.252 . S
C18 O21 1.252 . S
C18 O22 1.260 . S
O19 In13 2.266 . S
O19 C16 1.252 . S
O20 In13 2.326 . S
O20 C16 1.260 . S
O21 In13 2.266 . S
O21 C18 1.252 . S
O22 In13 2.326 . S
O22 C18 1.260 . S
C23 O14 1.240 . S
C23 O15 1.252 . S
O24 In13 2.294 . S
O24 C17 1.240 . S
O25 In13 2.326 . S
O25 C17 1.252 . S
In26 O27 2.294 . S
In26 O28 2.326 . S
In26 O32 2.266 . S
In26 O33 2.326 . S
In26 O34 2.266 . S
In26 O35 2.326 . S
In26 O37 2.294 . S
In26 O38 2.326 . S
O27 In26 2.294 . S
O27 C36 1.240 . S
O28 In26 2.326 . S
O28 C36 1.252 . S
C29 O32 1.252 . S
C29 O33 1.260 . S
C30 O37 1.240 . S
C30 O38 1.252 . S
C31 O34 1.252 . S
C31 O35 1.260 . S
O32 In26 2.266 . S
O32 C29 1.252 . S
O33 In26 2.326 . S
O33 C29 1.260 . S
O34 In26 2.266 . S
O34 C31 1.252 . S
O35 In26 2.326 . S
O35 C31 1.260 . S
C36 O27 1.240 . S
C36 O28 1.252 . S
O37 In26 2.294 . S
O37 C30 1.240 . S
O38 In26 2.326 . S
O38 C30 1.252 . S
In39 O40 2.294 . S
In39 O41 2.326 . S
In39 O45 2.266 . S
In39 O46 2.326 . S
In39 O47 2.266 . S
In39 O48 2.326 . S
In39 O50 2.294 . S
In39 O51 2.326 . S
O40 In39 2.294 . S
O40 C49 1.240 . S
O41 In39 2.326 . S
O41 C49 1.252 . S
C42 O45 1.252 . S
C42 O46 1.260 . S
C43 O50 1.240 . S
C43 O51 1.252 . S
C44 O47 1.252 . S
C44 O48 1.260 . S
O45 In39 2.266 . S
O45 C42 1.252 . S
O46 In39 2.326 . S
O46 C42 1.260 . S
O47 In39 2.266 . S
O47 C44 1.252 . S
O48 In39 2.326 . S
O48 C44 1.260 . S
C49 O40 1.240 . S
C49 O41 1.252 . S
O50 In39 2.294 . S
O50 C43 1.240 . S
O51 In39 2.326 . S
O51 C43 1.252 . S
In52 O53 2.294 . S
In52 O54 2.326 . S
In52 O58 2.266 . S
In52 O59 2.326 . S
In52 O60 2.266 . S
In52 O61 2.326 . S
In52 O63 2.294 . S
In52 O64 2.326 . S
O53 In52 2.294 . S
O53 C62 1.240 . S
O54 In52 2.326 . S
O54 C62 1.252 . S
C55 O58 1.252 . S
C55 O59 1.260 . S
C56 O63 1.240 . S
C56 O64 1.252 . S
C57 O60 1.252 . S
C57 O61 1.260 . S
O58 In52 2.266 . S
O58 C55 1.252 . S
O59 In52 2.326 . S
O59 C55 1.260 . S
O60 In52 2.266 . S
O60 C57 1.252 . S
O61 In52 2.326 . S
O61 C57 1.260 . S
C62 O53 1.240 . S
C62 O54 1.252 . S
O63 In52 2.294 . S
O63 C56 1.240 . S
O64 In52 2.326 . S
O64 C56 1.252 . S
In65 O66 2.294 . S
In65 O67 2.326 . S
In65 O71 2.266 . S
In65 O72 2.326 . S
In65 O73 2.266 . S
In65 O74 2.326 . S
In65 O76 2.294 . S
In65 O77 2.326 . S
O66 In65 2.294 . S
O66 C75 1.240 . S
O67 In65 2.326 . S
O67 C75 1.252 . S
C68 O71 1.252 . S
C68 O72 1.260 . S
C69 O76 1.240 . S
C69 O77 1.252 . S
C70 O73 1.252 . S
C70 O74 1.260 . S
O71 In65 2.266 . S
O71 C68 1.252 . S
O72 In65 2.326 . S
O72 C68 1.260 . S
O73 In65 2.266 . S
O73 C70 1.252 . S
O74 In65 2.326 . S
O74 C70 1.260 . S
C75 O66 1.240 . S
C75 O67 1.252 . S
O76 In65 2.294 . S
O76 C69 1.240 . S
O77 In65 2.326 . S
O77 C69 1.252 . S
In78 O79 2.294 . S
In78 O80 2.326 . S
In78 O84 2.266 . S
In78 O85 2.326 . S
In78 O86 2.266 . S
In78 O87 2.326 . S
In78 O89 2.294 . S
In78 O90 2.326 . S
O79 In78 2.294 . S
O79 C88 1.240 . S
O80 In78 2.326 . S
O80 C88 1.252 . S
C81 O84 1.252 . S
C81 O85 1.260 . S
C82 O89 1.240 . S
C82 O90 1.252 . S
C83 O86 1.252 . S
C83 O87 1.260 . S
O84 In78 2.266 . S
O84 C81 1.252 . S
O85 In78 2.326 . S
O85 C81 1.260 . S
O86 In78 2.266 . S
O86 C83 1.252 . S
O87 In78 2.326 . S
O87 C83 1.260 . S
C88 O79 1.240 . S
C88 O80 1.252 . S
O89 In78 2.294 . S
O89 C82 1.240 . S
O90 In78 2.326 . S
O90 C82 1.252 . S
In91 O92 2.294 . S
In91 O93 2.326 . S
In91 O97 2.266 . S
In91 O98 2.326 . S
In91 O99 2.266 . S
In91 O100 2.326 . S
In91 O102 2.294 . S
In91 O103 2.326 . S
O92 In91 2.294 . S
O92 C101 1.240 . S
O93 In91 2.326 . S
O93 C101 1.252 . S
C94 O97 1.252 . S
C94 O98 1.260 . S
C95 O102 1.240 . S
C95 O103 1.252 . S
C96 O99 1.252 . S
C96 O100 1.260 . S
O97 In91 2.266 . S
O97 C94 1.252 . S
O98 In91 2.326 . S
O98 C94 1.260 . S
O99 In91 2.266 . S
O99 C96 1.252 . S
O100 In91 2.326 . S
O100 C96 1.260 . S
C101 O92 1.240 . S
C101 O93 1.252 . S
O102 In91 2.294 . S
O102 C95 1.240 . S
O103 In91 2.326 . S
O103 C95 1.252 . S
In104 O105 2.294 . S
In104 O106 2.326 . S
In104 O110 2.266 . S
In104 O111 2.326 . S
In104 O112 2.266 . S
In104 O113 2.326 . S
In104 O115 2.294 . S
In104 O116 2.326 . S
O105 In104 2.294 . S
O105 C114 1.240 . S
O106 In104 2.326 . S
O106 C114 1.252 . S
C107 O110 1.252 . S
C107 O111 1.260 . S
C108 O115 1.240 . S
C108 O116 1.252 . S
C109 O112 1.252 . S
C109 O113 1.260 . S
O110 In104 2.266 . S
O110 C107 1.252 . S
O111 In104 2.326 . S
O111 C107 1.260 . S
O112 In104 2.266 . S
O112 C109 1.252 . S
O113 In104 2.326 . S
O113 C109 1.260 . S
C114 O105 1.240 . S
C114 O106 1.252 . S
O115 In104 2.294 . S
O115 C108 1.240 . S
O116 In104 2.326 . S
O116 C108 1.252 . S
In117 O118 2.294 . S
In117 O119 2.326 . S
In117 O123 2.266 . S
In117 O124 2.326 . S
In117 O125 2.266 . S
In117 O126 2.326 . S
In117 O128 2.294 . S
In117 O129 2.326 . S
O118 In117 2.294 . S
O118 C127 1.240 . S
O119 In117 2.326 . S
O119 C127 1.252 . S
C120 O123 1.252 . S
C120 O124 1.260 . S
C121 O128 1.240 . S
C121 O129 1.252 . S
C122 O125 1.252 . S
C122 O126 1.260 . S
O123 In117 2.266 . S
O123 C120 1.252 . S
O124 In117 2.326 . S
O124 C120 1.260 . S
O125 In117 2.266 . S
O125 C122 1.252 . S
O126 In117 2.326 . S
O126 C122 1.260 . S
C127 O118 1.240 . S
C127 O119 1.252 . S
O128 In117 2.294 . S
O128 C121 1.240 . S
O129 In117 2.326 . S
O129 C121 1.252 . S
In130 O131 2.294 . S
In130 O132 2.326 . S
In130 O136 2.266 . S
In130 O137 2.326 . S
In130 O138 2.266 . S
In130 O139 2.326 . S
In130 O141 2.294 . S
In130 O142 2.326 . S
O131 In130 2.294 . S
O131 C140 1.240 . S
O132 In130 2.326 . S
O132 C140 1.252 . S
C133 O136 1.252 . S
C133 O137 1.260 . S
C134 O141 1.240 . S
C134 O142 1.252 . S
C135 O138 1.252 . S
C135 O139 1.260 . S
O136 In130 2.266 . S
O136 C133 1.252 . S
O137 In130 2.326 . S
O137 C133 1.260 . S
O138 In130 2.266 . S
O138 C135 1.252 . S
O139 In130 2.326 . S
O139 C135 1.260 . S
C140 O131 1.240 . S
C140 O132 1.252 . S
O141 In130 2.294 . S
O141 C134 1.240 . S
O142 In130 2.326 . S
O142 C134 1.252 . S
In143 O144 2.294 . S
In143 O145 2.326 . S
In143 O149 2.266 . S
In143 O150 2.326 . S
In143 O151 2.266 . S
In143 O152 2.326 . S
In143 O154 2.294 . S
In143 O155 2.326 . S
O144 In143 2.294 . S
O144 C153 1.240 . S
O145 In143 2.326 . S
O145 C153 1.252 . S
C146 O149 1.252 . S
C146 O150 1.260 . S
C147 O154 1.240 . S
C147 O155 1.252 . S
C148 O151 1.252 . S
C148 O152 1.260 . S
O149 In143 2.266 . S
O149 C146 1.252 . S
O150 In143 2.326 . S
O150 C146 1.260 . S
O151 In143 2.266 . S
O151 C148 1.252 . S
O152 In143 2.326 . S
O152 C148 1.260 . S
C153 O144 1.240 . S
C153 O145 1.252 . S
O154 In143 2.294 . S
O154 C147 1.240 . S
O155 In143 2.326 . S
O155 C147 1.252 . S
In156 O157 2.294 . S
In156 O158 2.326 . S
In156 O162 2.266 . S
In156 O163 2.326 . S
In156 O164 2.266 . S
In156 O165 2.326 . S
In156 O167 2.294 . S
In156 O168 2.326 . S
O157 In156 2.294 . S
O157 C166 1.240 . S
O158 In156 2.326 . S
O158 C166 1.252 . S
C159 O162 1.252 . S
C159 O163 1.260 . S
C160 O167 1.240 . S
C160 O168 1.252 . S
C161 O164 1.252 . S
C161 O165 1.260 . S
O162 In156 2.266 . S
O162 C159 1.252 . S
O163 In156 2.326 . S
O163 C159 1.260 . S
O164 In156 2.266 . S
O164 C161 1.252 . S
O165 In156 2.326 . S
O165 C161 1.260 . S
C166 O157 1.240 . S
C166 O158 1.252 . S
O167 In156 2.294 . S
O167 C160 1.240 . S
O168 In156 2.326 . S
O168 C160 1.252 . S
In169 O170 2.294 . S
In169 O171 2.326 . S
In169 O175 2.266 . S
In169 O176 2.326 . S
In169 O177 2.266 . S
In169 O178 2.326 . S
In169 O180 2.294 . S
In169 O181 2.326 . S
O170 In169 2.294 . S
O170 C179 1.240 . S
O171 In169 2.326 . S
O171 C179 1.252 . S
C172 O175 1.252 . S
C172 O176 1.260 . S
C173 O180 1.240 . S
C173 O181 1.252 . S
C174 O177 1.252 . S
C174 O178 1.260 . S
O175 In169 2.266 . S
O175 C172 1.252 . S
O176 In169 2.326 . S
O176 C172 1.260 . S
O177 In169 2.266 . S
O177 C174 1.252 . S
O178 In169 2.326 . S
O178 C174 1.260 . S
C179 O170 1.240 . S
C179 O171 1.252 . S
O180 In169 2.294 . S
O180 C173 1.240 . S
O181 In169 2.326 . S
O181 C173 1.252 . S
In182 O183 2.294 . S
In182 O184 2.326 . S
In182 O188 2.266 . S
In182 O189 2.326 . S
In182 O190 2.266 . S
In182 O191 2.326 . S
In182 O193 2.294 . S
In182 O194 2.326 . S
O183 In182 2.294 . S
O183 C192 1.240 . S
O184 In182 2.326 . S
O184 C192 1.252 . S
C185 O188 1.252 . S
C185 O189 1.260 . S
C186 O193 1.240 . S
C186 O194 1.252 . S
C187 O190 1.252 . S
C187 O191 1.260 . S
O188 In182 2.266 . S
O188 C185 1.252 . S
O189 In182 2.326 . S
O189 C185 1.260 . S
O190 In182 2.266 . S
O190 C187 1.252 . S
O191 In182 2.326 . S
O191 C187 1.260 . S
C192 O183 1.240 . S
C192 O184 1.252 . S
O193 In182 2.294 . S
O193 C186 1.240 . S
O194 In182 2.326 . S
O194 C186 1.252 . S
In195 O196 2.294 . S
In195 O197 2.326 . S
In195 O201 2.266 . S
In195 O202 2.326 . S
In195 O203 2.266 . S
In195 O204 2.326 . S
In195 O206 2.294 . S
In195 O207 2.326 . S
O196 In195 2.294 . S
O196 C205 1.240 . S
O197 In195 2.326 . S
O197 C205 1.252 . S
C198 O201 1.252 . S
C198 O202 1.260 . S
C199 O206 1.240 . S
C199 O207 1.252 . S
C200 O203 1.252 . S
C200 O204 1.260 . S
O201 In195 2.266 . S
O201 C198 1.252 . S
O202 In195 2.326 . S
O202 C198 1.260 . S
O203 In195 2.266 . S
O203 C200 1.252 . S
O204 In195 2.326 . S
O204 C200 1.260 . S
C205 O196 1.240 . S
C205 O197 1.252 . S
O206 In195 2.294 . S
O206 C199 1.240 . S
O207 In195 2.326 . S
O207 C199 1.252 . S
In208 O209 2.294 . S
In208 O210 2.326 . S
In208 O214 2.266 . S
In208 O215 2.326 . S
In208 O216 2.266 . S
In208 O217 2.326 . S
In208 O219 2.294 . S
In208 O220 2.326 . S
O209 In208 2.294 . S
O209 C218 1.240 . S
O210 In208 2.326 . S
O210 C218 1.252 . S
C211 O214 1.252 . S
C211 O215 1.260 . S
C212 O219 1.240 . S
C212 O220 1.252 . S
C213 O216 1.252 . S
C213 O217 1.260 . S
O214 In208 2.266 . S
O214 C211 1.252 . S
O215 In208 2.326 . S
O215 C211 1.260 . S
O216 In208 2.266 . S
O216 C213 1.252 . S
O217 In208 2.326 . S
O217 C213 1.260 . S
C218 O209 1.240 . S
C218 O210 1.252 . S
O219 In208 2.294 . S
O219 C212 1.240 . S
O220 In208 2.326 . S
O220 C212 1.252 . S
In221 O222 2.294 . S
In221 O223 2.326 . S
In221 O227 2.266 . S
In221 O228 2.326 . S
In221 O229 2.266 . S
In221 O230 2.326 . S
In221 O232 2.294 . S
In221 O233 2.326 . S
O222 In221 2.294 . S
O222 C231 1.240 . S
O223 In221 2.326 . S
O223 C231 1.252 . S
C224 O227 1.252 . S
C224 O228 1.260 . S
C225 O232 1.240 . S
C225 O233 1.252 . S
C226 O229 1.252 . S
C226 O230 1.260 . S
O227 In221 2.266 . S
O227 C224 1.252 . S
O228 In221 2.326 . S
O228 C224 1.260 . S
O229 In221 2.266 . S
O229 C226 1.252 . S
O230 In221 2.326 . S
O230 C226 1.260 . S
C231 O222 1.240 . S
C231 O223 1.252 . S
O232 In221 2.294 . S
O232 C225 1.240 . S
O233 In221 2.326 . S
O233 C225 1.252 . S
In234 O235 2.294 . S
In234 O236 2.326 . S
In234 O240 2.266 . S
In234 O241 2.326 . S
In234 O242 2.266 . S
In234 O243 2.326 . S
In234 O245 2.294 . S
In234 O246 2.326 . S
O235 In234 2.294 . S
O235 C244 1.240 . S
O236 In234 2.326 . S
O236 C244 1.252 . S
C237 O240 1.252 . S
C237 O241 1.260 . S
C238 O245 1.240 . S
C238 O246 1.252 . S
C239 O242 1.252 . S
C239 O243 1.260 . S
O240 In234 2.266 . S
O240 C237 1.252 . S
O241 In234 2.326 . S
O241 C237 1.260 . S
O242 In234 2.266 . S
O242 C239 1.252 . S
O243 In234 2.326 . S
O243 C239 1.260 . S
C244 O235 1.240 . S
C244 O236 1.252 . S
O245 In234 2.294 . S
O245 C238 1.240 . S
O246 In234 2.326 . S
O246 C238 1.252 . S
In247 O248 2.294 . S
In247 O249 2.326 . S
In247 O253 2.266 . S
In247 O254 2.326 . S
In247 O255 2.266 . S
In247 O256 2.326 . S
In247 O258 2.294 . S
In247 O259 2.326 . S
O248 In247 2.294 . S
O248 C257 1.240 . S
O249 In247 2.326 . S
O249 C257 1.252 . S
C250 O253 1.252 . S
C250 O254 1.260 . S
C251 O258 1.240 . S
C251 O259 1.252 . S
C252 O255 1.252 . S
C252 O256 1.260 . S
O253 In247 2.266 . S
O253 C250 1.252 . S
O254 In247 2.326 . S
O254 C250 1.260 . S
O255 In247 2.266 . S
O255 C252 1.252 . S
O256 In247 2.326 . S
O256 C252 1.260 . S
C257 O248 1.240 . S
C257 O249 1.252 . S
O258 In247 2.294 . S
O258 C251 1.240 . S
O259 In247 2.326 . S
O259 C251 1.252 . S
In260 O261 2.294 . S
In260 O262 2.326 . S
In260 O266 2.266 . S
In260 O267 2.326 . S
In260 O268 2.266 . S
In260 O269 2.326 . S
In260 O271 2.294 . S
In260 O272 2.326 . S
O261 In260 2.294 . S
O261 C270 1.240 . S
O262 In260 2.326 . S
O262 C270 1.252 . S
C263 O266 1.252 . S
C263 O267 1.260 . S
C264 O271 1.240 . S
C264 O272 1.252 . S
C265 O268 1.252 . S
C265 O269 1.260 . S
O266 In260 2.266 . S
O266 C263 1.252 . S
O267 In260 2.326 . S
O267 C263 1.260 . S
O268 In260 2.266 . S
O268 C265 1.252 . S
O269 In260 2.326 . S
O269 C265 1.260 . S
C270 O261 1.240 . S
C270 O262 1.252 . S
O271 In260 2.294 . S
O271 C264 1.240 . S
O272 In260 2.326 . S
O272 C264 1.252 . S
In273 O274 2.294 . S
In273 O275 2.326 . S
In273 O279 2.266 . S
In273 O280 2.326 . S
In273 O281 2.266 . S
In273 O282 2.326 . S
In273 O284 2.294 . S
In273 O285 2.326 . S
O274 In273 2.294 . S
O274 C283 1.240 . S
O275 In273 2.326 . S
O275 C283 1.252 . S
C276 O279 1.252 . S
C276 O280 1.260 . S
C277 O284 1.240 . S
C277 O285 1.252 . S
C278 O281 1.252 . S
C278 O282 1.260 . S
O279 In273 2.266 . S
O279 C276 1.252 . S
O280 In273 2.326 . S
O280 C276 1.260 . S
O281 In273 2.266 . S
O281 C278 1.252 . S
O282 In273 2.326 . S
O282 C278 1.260 . S
C283 O274 1.240 . S
C283 O275 1.252 . S
O284 In273 2.294 . S
O284 C277 1.240 . S
O285 In273 2.326 . S
O285 C277 1.252 . S
In286 O287 2.294 . S
In286 O288 2.326 . S
In286 O292 2.266 . S
In286 O293 2.326 . S
In286 O294 2.266 . S
In286 O295 2.326 . S
In286 O297 2.294 . S
In286 O298 2.326 . S
O287 In286 2.294 . S
O287 C296 1.240 . S
O288 In286 2.326 . S
O288 C296 1.252 . S
C289 O292 1.252 . S
C289 O293 1.260 . S
C290 O297 1.240 . S
C290 O298 1.252 . S
C291 O294 1.252 . S
C291 O295 1.260 . S
O292 In286 2.266 . S
O292 C289 1.252 . S
O293 In286 2.326 . S
O293 C289 1.260 . S
O294 In286 2.266 . S
O294 C291 1.252 . S
O295 In286 2.326 . S
O295 C291 1.260 . S
C296 O287 1.240 . S
C296 O288 1.252 . S
O297 In286 2.294 . S
O297 C290 1.240 . S
O298 In286 2.326 . S
O298 C290 1.252 . S
In299 O300 2.294 . S
In299 O301 2.326 . S
In299 O305 2.266 . S
In299 O306 2.326 . S
In299 O307 2.266 . S
In299 O308 2.326 . S
In299 O310 2.294 . S
In299 O311 2.326 . S
O300 In299 2.294 . S
O300 C309 1.240 . S
O301 In299 2.326 . S
O301 C309 1.252 . S
C302 O305 1.252 . S
C302 O306 1.260 . S
C303 O310 1.240 . S
C303 O311 1.252 . S
C304 O307 1.252 . S
C304 O308 1.260 . S
O305 In299 2.266 . S
O305 C302 1.252 . S
O306 In299 2.326 . S
O306 C302 1.260 . S
O307 In299 2.266 . S
O307 C304 1.252 . S
O308 In299 2.326 . S
O308 C304 1.260 . S
C309 O300 1.240 . S
C309 O301 1.252 . S
O310 In299 2.294 . S
O310 C303 1.240 . S
O311 In299 2.326 . S
O311 C303 1.252 . S
C312 C313 1.349 . S
C312 C314 1.327 . S
C312 H337 0.950 . S
C313 C312 1.349 . S
C313 C329 1.349 . S
C314 C312 1.327 . S
C314 C333 1.429 . S
C314 H338 0.950 . S
C315 C332 1.574 1_545 S
C315 C334 1.368 . S
C315 H339 0.949 . S
H316 C320 0.949 . S
C317 C318 1.349 . S
C317 C319 1.327 . S
C317 H340 0.950 . S
C318 C317 1.349 . S
C318 C330 1.349 . S
C319 C317 1.327 . S
C319 C335 1.429 . S
C319 H341 0.950 . S
C320 H316 0.949 . S
C320 C328 1.574 1_565 S
C320 C336 1.368 . S
H321 C329 0.950 . S
H322 C327 0.950 . S
H323 C328 0.949 . S
H324 C330 0.950 . S
H325 C331 0.950 . S
H326 C332 0.949 . S
C327 H322 0.950 . S
C327 C329 1.327 . S
C327 C333 1.429 . S
C328 C320 1.574 1_545 S
C328 H323 0.949 . S
C328 C334 1.368 . S
C329 C313 1.349 . S
C329 H321 0.950 . S
C329 C327 1.327 . S
C330 C318 1.349 . S
C330 H324 0.950 . S
C330 C331 1.327 . S
C331 H325 0.950 . S
C331 C330 1.327 . S
C331 C335 1.429 . S
C332 C315 1.574 1_565 S
C332 H326 0.949 . S
C332 C336 1.368 . S
C333 C314 1.429 . S
C333 C327 1.429 . S
C333 C334 1.523 . S
C334 C315 1.368 . S
C334 C328 1.368 . S
C334 C333 1.523 . S
C335 C319 1.429 . S
C335 C331 1.429 . S
C335 C336 1.523 . S
C336 C320 1.368 . S
C336 C332 1.368 . S
C336 C335 1.523 . S
H337 C312 0.950 . S
H338 C314 0.950 . S
H339 C315 0.949 . S
H340 C317 0.950 . S
H341 C319 0.950 . S
C342 C343 1.349 . S
C342 C344 1.327 . S
C342 H367 0.950 . S
C343 C342 1.349 . S
C343 C359 1.349 . S
C344 C342 1.327 . S
C344 C363 1.429 . S
C344 H368 0.950 . S
C345 C362 1.574 . S
C345 C364 1.368 . S
C345 H369 0.949 . S
H346 C350 0.949 . S
C347 C348 1.349 . S
C347 C349 1.327 . S
C347 H370 0.950 . S
C348 C347 1.349 . S
C348 C360 1.349 . S
C349 C347 1.327 . S
C349 C365 1.429 . S
C349 H371 0.950 . S
C350 H346 0.949 . S
C350 C358 1.574 . S
C350 C366 1.368 . S
H351 C359 0.950 . S
H352 C357 0.950 . S
H353 C358 0.949 . S
H354 C360 0.950 . S
H355 C361 0.950 . S
H356 C362 0.949 . S
C357 H352 0.950 . S
C357 C359 1.327 . S
C357 C363 1.429 . S
C358 C350 1.574 . S
C358 H353 0.949 . S
C358 C364 1.368 . S
C359 C343 1.349 . S
C359 H351 0.950 . S
C359 C357 1.327 . S
C360 C348 1.349 . S
C360 H354 0.950 . S
C360 C361 1.327 . S
C361 H355 0.950 . S
C361 C360 1.327 . S
C361 C365 1.429 . S
C362 C345 1.574 . S
C362 H356 0.949 . S
C362 C366 1.368 . S
C363 C344 1.429 . S
C363 C357 1.429 . S
C363 C364 1.523 . S
C364 C345 1.368 . S
C364 C358 1.368 . S
C364 C363 1.523 . S
C365 C349 1.429 . S
C365 C361 1.429 . S
C365 C366 1.523 . S
C366 C350 1.368 . S
C366 C362 1.368 . S
C366 C365 1.523 . S
H367 C342 0.950 . S
H368 C344 0.950 . S
H369 C345 0.949 . S
H370 C347 0.950 . S
H371 C349 0.950 . S
C372 C373 1.349 . S
C372 C374 1.327 . S
C372 H397 0.950 . S
C373 C372 1.349 . S
C373 C389 1.349 . S
C374 C372 1.327 . S
C374 C393 1.429 . S
C374 H398 0.950 . S
C375 C392 1.574 1_655 S
C375 C394 1.368 . S
C375 H399 0.949 . S
H376 C380 0.949 . S
C377 C378 1.349 . S
C377 C379 1.327 . S
C377 H400 0.950 . S
C378 C377 1.349 . S
C378 C390 1.349 . S
C379 C377 1.327 . S
C379 C395 1.429 . S
C379 H401 0.950 . S
C380 H376 0.949 . S
C380 C388 1.574 1_455 S
C380 C396 1.368 . S
H381 C389 0.950 . S
H382 C387 0.950 . S
H383 C388 0.949 . S
H384 C390 0.950 . S
H385 C391 0.950 . S
H386 C392 0.949 . S
C387 H382 0.950 . S
C387 C389 1.327 . S
C387 C393 1.429 . S
C388 C380 1.574 1_655 S
C388 H383 0.949 . S
C388 C394 1.368 . S
C389 C373 1.349 . S
C389 H381 0.950 . S
C389 C387 1.327 . S
C390 C378 1.349 . S
C390 H384 0.950 . S
C390 C391 1.327 . S
C391 H385 0.950 . S
C391 C390 1.327 . S
C391 C395 1.429 . S
C392 C375 1.574 1_455 S
C392 H386 0.949 . S
C392 C396 1.368 . S
C393 C374 1.429 . S
C393 C387 1.429 . S
C393 C394 1.523 . S
C394 C375 1.368 . S
C394 C388 1.368 . S
C394 C393 1.523 . S
C395 C379 1.429 . S
C395 C391 1.429 . S
C395 C396 1.523 . S
C396 C380 1.368 . S
C396 C392 1.368 . S
C396 C395 1.523 . S
H397 C372 0.950 . S
H398 C374 0.950 . S
H399 C375 0.949 . S
H400 C377 0.950 . S
H401 C379 0.950 . S
C402 C403 1.349 . S
C402 C404 1.327 . S
C402 H427 0.950 . S
C403 C402 1.349 . S
C403 C419 1.349 . S
C404 C402 1.327 . S
C404 C423 1.429 . S
C404 H428 0.950 . S
C405 C422 1.574 1_565 S
C405 C424 1.368 . S
C405 H429 0.949 . S
H406 C410 0.949 . S
C407 C408 1.349 . S
C407 C409 1.327 . S
C407 H430 0.950 . S
C408 C407 1.349 . S
C408 C420 1.349 . S
C409 C407 1.327 . S
C409 C425 1.429 . S
C409 H431 0.950 . S
C410 H406 0.949 . S
C410 C418 1.574 1_545 S
C410 C426 1.368 . S
H411 C419 0.950 . S
H412 C417 0.950 . S
H413 C418 0.949 . S
H414 C420 0.950 . S
H415 C421 0.950 . S
H416 C422 0.949 . S
C417 H412 0.950 . S
C417 C419 1.327 . S
C417 C423 1.429 . S
C418 C410 1.574 1_565 S
C418 H413 0.949 . S
C418 C424 1.368 . S
C419 C403 1.349 . S
C419 H411 0.950 . S
C419 C417 1.327 . S
C420 C408 1.349 . S
C420 H414 0.950 . S
C420 C421 1.327 . S
C421 H415 0.950 . S
C421 C420 1.327 . S
C421 C425 1.429 . S
C422 C405 1.574 1_545 S
C422 H416 0.949 . S
C422 C426 1.368 . S
C423 C404 1.429 . S
C423 C417 1.429 . S
C423 C424 1.523 . S
C424 C405 1.368 . S
C424 C418 1.368 . S
C424 C423 1.523 . S
C425 C409 1.429 . S
C425 C421 1.429 . S
C425 C426 1.523 . S
C426 C410 1.368 . S
C426 C422 1.368 . S
C426 C425 1.523 . S
H427 C402 0.950 . S
H428 C404 0.950 . S
H429 C405 0.949 . S
H430 C407 0.950 . S
H431 C409 0.950 . S
C432 C433 1.349 . S
C432 C434 1.327 . S
C432 H457 0.950 . S
C433 C432 1.349 . S
C433 C449 1.349 . S
C434 C432 1.327 . S
C434 C453 1.429 . S
C434 H458 0.950 . S
C435 C452 1.574 . S
C435 C454 1.368 . S
C435 H459 0.949 . S
H436 C440 0.949 . S
C437 C438 1.349 . S
C437 C439 1.327 . S
C437 H460 0.950 . S
C438 C437 1.349 . S
C438 C450 1.349 . S
C439 C437 1.327 . S
C439 C455 1.429 . S
C439 H461 0.950 . S
C440 H436 0.949 . S
C440 C448 1.574 . S
C440 C456 1.368 . S
H441 C449 0.950 . S
H442 C447 0.950 . S
H443 C448 0.949 . S
H444 C450 0.950 . S
H445 C451 0.950 . S
H446 C452 0.949 . S
C447 H442 0.950 . S
C447 C449 1.327 . S
C447 C453 1.429 . S
C448 C440 1.574 . S
C448 H443 0.949 . S
C448 C454 1.368 . S
C449 C433 1.349 . S
C449 H441 0.950 . S
C449 C447 1.327 . S
C450 C438 1.349 . S
C450 H444 0.950 . S
C450 C451 1.327 . S
C451 H445 0.950 . S
C451 C450 1.327 . S
C451 C455 1.429 . S
C452 C435 1.574 . S
C452 H446 0.949 . S
C452 C456 1.368 . S
C453 C434 1.429 . S
C453 C447 1.429 . S
C453 C454 1.523 . S
C454 C435 1.368 . S
C454 C448 1.368 . S
C454 C453 1.523 . S
C455 C439 1.429 . S
C455 C451 1.429 . S
C455 C456 1.523 . S
C456 C440 1.368 . S
C456 C452 1.368 . S
C456 C455 1.523 . S
H457 C432 0.950 . S
H458 C434 0.950 . S
H459 C435 0.949 . S
H460 C437 0.950 . S
H461 C439 0.950 . S
C462 C463 1.349 . S
C462 C464 1.327 . S
C462 H487 0.950 . S
C463 C462 1.349 . S
C463 C479 1.349 . S
C464 C462 1.327 . S
C464 C483 1.429 . S
C464 H488 0.950 . S
C465 C482 1.574 1_455 S
C465 C484 1.368 . S
C465 H489 0.949 . S
H466 C470 0.949 . S
C467 C468 1.349 . S
C467 C469 1.327 . S
C467 H490 0.950 . S
C468 C467 1.349 . S
C468 C480 1.349 . S
C469 C467 1.327 . S
C469 C485 1.429 . S
C469 H491 0.950 . S
C470 H466 0.949 . S
C470 C478 1.574 1_655 S
C470 C486 1.368 . S
H471 C479 0.950 . S
H472 C477 0.950 . S
H473 C478 0.949 . S
H474 C480 0.950 . S
H475 C481 0.950 . S
H476 C482 0.949 . S
C477 H472 0.950 . S
C477 C479 1.327 . S
C477 C483 1.429 . S
C478 C470 1.574 1_455 S
C478 H473 0.949 . S
C478 C484 1.368 . S
C479 C463 1.349 . S
C479 H471 0.950 . S
C479 C477 1.327 . S
C480 C468 1.349 . S
C480 H474 0.950 . S
C480 C481 1.327 . S
C481 H475 0.950 . S
C481 C480 1.327 . S
C481 C485 1.429 . S
C482 C465 1.574 1_655 S
C482 H476 0.949 . S
C482 C486 1.368 . S
C483 C464 1.429 . S
C483 C477 1.429 . S
C483 C484 1.523 . S
C484 C465 1.368 . S
C484 C478 1.368 . S
C484 C483 1.523 . S
C485 C469 1.429 . S
C485 C481 1.429 . S
C485 C486 1.523 . S
C486 C470 1.368 . S
C486 C482 1.368 . S
C486 C485 1.523 . S
H487 C462 0.950 . S
H488 C464 0.950 . S
H489 C465 0.949 . S
H490 C467 0.950 . S
H491 C469 0.950 . S
C492 C493 1.349 . S
C492 C494 1.327 . S
C492 H517 0.950 . S
C493 C492 1.349 . S
C493 C509 1.349 . S
C494 C492 1.327 . S
C494 C513 1.429 . S
C494 H518 0.950 . S
C495 C512 1.574 1_565 S
C495 C514 1.368 . S
C495 H519 0.949 . S
H496 C500 0.949 . S
C497 C498 1.349 . S
C497 C499 1.327 . S
C497 H520 0.950 . S
C498 C497 1.349 . S
C498 C510 1.349 . S
C499 C497 1.327 . S
C499 C515 1.429 . S
C499 H521 0.950 . S
C500 H496 0.949 . S
C500 C508 1.574 1_545 S
C500 C516 1.368 . S
H501 C509 0.950 . S
H502 C507 0.950 . S
H503 C508 0.949 . S
H504 C510 0.950 . S
H505 C511 0.950 . S
H506 C512 0.949 . S
C507 H502 0.950 . S
C507 C509 1.327 . S
C507 C513 1.429 . S
C508 C500 1.574 1_565 S
C508 H503 0.949 . S
C508 C514 1.368 . S
C509 C493 1.349 . S
C509 H501 0.950 . S
C509 C507 1.327 . S
C510 C498 1.349 . S
C510 H504 0.950 . S
C510 C511 1.327 . S
C511 H505 0.950 . S
C511 C510 1.327 . S
C511 C515 1.429 . S
C512 C495 1.574 1_545 S
C512 H506 0.949 . S
C512 C516 1.368 . S
C513 C494 1.429 . S
C513 C507 1.429 . S
C513 C514 1.523 . S
C514 C495 1.368 . S
C514 C508 1.368 . S
C514 C513 1.523 . S
C515 C499 1.429 . S
C515 C511 1.429 . S
C515 C516 1.523 . S
C516 C500 1.368 . S
C516 C512 1.368 . S
C516 C515 1.523 . S
H517 C492 0.950 . S
H518 C494 0.950 . S
H519 C495 0.949 . S
H520 C497 0.950 . S
H521 C499 0.950 . S
C522 C523 1.349 . S
C522 C524 1.327 . S
C522 H547 0.950 . S
C523 C522 1.349 . S
C523 C539 1.349 . S
C524 C522 1.327 . S
C524 C543 1.429 . S
C524 H548 0.950 . S
C525 C542 1.574 . S
C525 C544 1.368 . S
C525 H549 0.949 . S
H526 C530 0.949 . S
C527 C528 1.349 . S
C527 C529 1.327 . S
C527 H550 0.950 . S
C528 C527 1.349 . S
C528 C540 1.349 . S
C529 C527 1.327 . S
C529 C545 1.429 . S
C529 H551 0.950 . S
C530 H526 0.949 . S
C530 C538 1.574 . S
C530 C546 1.368 . S
H531 C539 0.950 . S
H532 C537 0.950 . S
H533 C538 0.949 . S
H534 C540 0.950 . S
H535 C541 0.950 . S
H536 C542 0.949 . S
C537 H532 0.950 . S
C537 C539 1.327 . S
C537 C543 1.429 . S
C538 C530 1.574 . S
C538 H533 0.949 . S
C538 C544 1.368 . S
C539 C523 1.349 . S
C539 H531 0.950 . S
C539 C537 1.327 . S
C540 C528 1.349 . S
C540 H534 0.950 . S
C540 C541 1.327 . S
C541 H535 0.950 . S
C541 C540 1.327 . S
C541 C545 1.429 . S
C542 C525 1.574 . S
C542 H536 0.949 . S
C542 C546 1.368 . S
C543 C524 1.429 . S
C543 C537 1.429 . S
C543 C544 1.523 . S
C544 C525 1.368 . S
C544 C538 1.368 . S
C544 C543 1.523 . S
C545 C529 1.429 . S
C545 C541 1.429 . S
C545 C546 1.523 . S
C546 C530 1.368 . S
C546 C542 1.368 . S
C546 C545 1.523 . S
H547 C522 0.950 . S
H548 C524 0.950 . S
H549 C525 0.949 . S
H550 C527 0.950 . S
H551 C529 0.950 . S
C552 C553 1.349 . S
C552 C554 1.327 . S
C552 H577 0.950 . S
C553 C552 1.349 . S
C553 C569 1.349 . S
C554 C552 1.327 . S
C554 C573 1.429 . S
C554 H578 0.950 . S
C555 C572 1.574 1_655 S
C555 C574 1.368 . S
C555 H579 0.949 . S
H556 C560 0.949 . S
C557 C558 1.349 . S
C557 C559 1.327 . S
C557 H580 0.950 . S
C558 C557 1.349 . S
C558 C570 1.349 . S
C559 C557 1.327 . S
C559 C575 1.429 . S
C559 H581 0.950 . S
C560 H556 0.949 . S
C560 C568 1.574 1_455 S
C560 C576 1.368 . S
H561 C569 0.950 . S
H562 C567 0.950 . S
H563 C568 0.949 . S
H564 C570 0.950 . S
H565 C571 0.950 . S
H566 C572 0.949 . S
C567 H562 0.950 . S
C567 C569 1.327 . S
C567 C573 1.429 . S
C568 C560 1.574 1_655 S
C568 H563 0.949 . S
C568 C574 1.368 . S
C569 C553 1.349 . S
C569 H561 0.950 . S
C569 C567 1.327 . S
C570 C558 1.349 . S
C570 H564 0.950 . S
C570 C571 1.327 . S
C571 H565 0.950 . S
C571 C570 1.327 . S
C571 C575 1.429 . S
C572 C555 1.574 1_455 S
C572 H566 0.949 . S
C572 C576 1.368 . S
C573 C554 1.429 . S
C573 C567 1.429 . S
C573 C574 1.523 . S
C574 C555 1.368 . S
C574 C568 1.368 . S
C574 C573 1.523 . S
C575 C559 1.429 . S
C575 C571 1.429 . S
C575 C576 1.523 . S
C576 C560 1.368 . S
C576 C572 1.368 . S
C576 C575 1.523 . S
H577 C552 0.950 . S
H578 C554 0.950 . S
H579 C555 0.949 . S
H580 C557 0.950 . S
H581 C559 0.950 . S
C582 C583 1.349 . S
C582 C584 1.327 . S
C582 H607 0.950 . S
C583 C582 1.349 . S
C583 C599 1.349 . S
C584 C582 1.327 . S
C584 C603 1.429 . S
C584 H608 0.950 . S
C585 C602 1.574 1_545 S
C585 C604 1.368 . S
C585 H609 0.949 . S
H586 C590 0.949 . S
C587 C588 1.349 . S
C587 C589 1.327 . S
C587 H610 0.950 . S
C588 C587 1.349 . S
C588 C600 1.349 . S
C589 C587 1.327 . S
C589 C605 1.429 . S
C589 H611 0.950 . S
C590 H586 0.949 . S
C590 C598 1.574 1_565 S
C590 C606 1.368 . S
H591 C599 0.950 . S
H592 C597 0.950 . S
H593 C598 0.949 . S
H594 C600 0.950 . S
H595 C601 0.950 . S
H596 C602 0.949 . S
C597 H592 0.950 . S
C597 C599 1.327 . S
C597 C603 1.429 . S
C598 C590 1.574 1_545 S
C598 H593 0.949 . S
C598 C604 1.368 . S
C599 C583 1.349 . S
C599 H591 0.950 . S
C599 C597 1.327 . S
C600 C588 1.349 . S
C600 H594 0.950 . S
C600 C601 1.327 . S
C601 H595 0.950 . S
C601 C600 1.327 . S
C601 C605 1.429 . S
C602 C585 1.574 1_565 S
C602 H596 0.949 . S
C602 C606 1.368 . S
C603 C584 1.429 . S
C603 C597 1.429 . S
C603 C604 1.523 . S
C604 C585 1.368 . S
C604 C598 1.368 . S
C604 C603 1.523 . S
C605 C589 1.429 . S
C605 C601 1.429 . S
C605 C606 1.523 . S
C606 C590 1.368 . S
C606 C602 1.368 . S
C606 C605 1.523 . S
H607 C582 0.950 . S
H608 C584 0.950 . S
H609 C585 0.949 . S
H610 C587 0.950 . S
H611 C589 0.950 . S
C612 C613 1.349 . S
C612 C614 1.327 . S
C612 H637 0.950 . S
C613 C612 1.349 . S
C613 C629 1.349 . S
C614 C612 1.327 . S
C614 C633 1.429 . S
C614 H638 0.950 . S
C615 C632 1.574 . S
C615 C634 1.368 . S
C615 H639 0.949 . S
H616 C620 0.949 . S
C617 C618 1.349 . S
C617 C619 1.327 . S
C617 H640 0.950 . S
C618 C617 1.349 . S
C618 C630 1.349 . S
C619 C617 1.327 . S
C619 C635 1.429 . S
C619 H641 0.950 . S
C620 H616 0.949 . S
C620 C628 1.574 . S
C620 C636 1.368 . S
H621 C629 0.950 . S
H622 C627 0.950 . S
H623 C628 0.949 . S
H624 C630 0.950 . S
H625 C631 0.950 . S
H626 C632 0.949 . S
C627 H622 0.950 . S
C627 C629 1.327 . S
C627 C633 1.429 . S
C628 C620 1.574 . S
C628 H623 0.949 . S
C628 C634 1.368 . S
C629 C613 1.349 . S
C629 H621 0.950 . S
C629 C627 1.327 . S
C630 C618 1.349 . S
C630 H624 0.950 . S
C630 C631 1.327 . S
C631 H625 0.950 . S
C631 C630 1.327 . S
C631 C635 1.429 . S
C632 C615 1.574 . S
C632 H626 0.949 . S
C632 C636 1.368 . S
C633 C614 1.429 . S
C633 C627 1.429 . S
C633 C634 1.523 . S
C634 C615 1.368 . S
C634 C628 1.368 . S
C634 C633 1.523 . S
C635 C619 1.429 . S
C635 C631 1.429 . S
C635 C636 1.523 . S
C636 C620 1.368 . S
C636 C632 1.368 . S
C636 C635 1.523 . S
H637 C612 0.950 . S
H638 C614 0.950 . S
H639 C615 0.949 . S
H640 C617 0.950 . S
H641 C619 0.950 . S
C642 C643 1.349 . S
C642 C644 1.327 . S
C642 H667 0.950 . S
C643 C642 1.349 . S
C643 C659 1.349 . S
C644 C642 1.327 . S
C644 C663 1.429 . S
C644 H668 0.950 . S
C645 C662 1.574 1_455 S
C645 C664 1.368 . S
C645 H669 0.949 . S
H646 C650 0.949 . S
C647 C648 1.349 . S
C647 C649 1.327 . S
C647 H670 0.950 . S
C648 C647 1.349 . S
C648 C660 1.349 . S
C649 C647 1.327 . S
C649 C665 1.429 . S
C649 H671 0.950 . S
C650 H646 0.949 . S
C650 C658 1.574 1_655 S
C650 C666 1.368 . S
H651 C659 0.950 . S
H652 C657 0.950 . S
H653 C658 0.949 . S
H654 C660 0.950 . S
H655 C661 0.950 . S
H656 C662 0.949 . S
C657 H652 0.950 . S
C657 C659 1.327 . S
C657 C663 1.429 . S
C658 C650 1.574 1_455 S
C658 H653 0.949 . S
C658 C664 1.368 . S
C659 C643 1.349 . S
C659 H651 0.950 . S
C659 C657 1.327 . S
C660 C648 1.349 . S
C660 H654 0.950 . S
C660 C661 1.327 . S
C661 H655 0.950 . S
C661 C660 1.327 . S
C661 C665 1.429 . S
C662 C645 1.574 1_655 S
C662 H656 0.949 . S
C662 C666 1.368 . S
C663 C644 1.429 . S
C663 C657 1.429 . S
C663 C664 1.523 . S
C664 C645 1.368 . S
C664 C658 1.368 . S
C664 C663 1.523 . S
C665 C649 1.429 . S
C665 C661 1.429 . S
C665 C666 1.523 . S
C666 C650 1.368 . S
C666 C662 1.368 . S
C666 C665 1.523 . S
H667 C642 0.950 . S
H668 C644 0.950 . S
H669 C645 0.949 . S
H670 C647 0.950 . S
H671 C649 0.950 . S
C672 C673 1.349 . S
C672 C674 1.327 . S
C672 H697 0.950 . S
C673 C672 1.349 . S
C673 C689 1.349 . S
C674 C672 1.327 . S
C674 C693 1.429 . S
C674 H698 0.950 . S
C675 C692 1.574 . S
C675 C694 1.368 . S
C675 H699 0.949 . S
H676 C680 0.949 . S
C677 C678 1.349 . S
C677 C679 1.327 . S
C677 H700 0.950 . S
C678 C677 1.349 . S
C678 C690 1.349 . S
C679 C677 1.327 . S
C679 C695 1.429 . S
C679 H701 0.950 . S
C680 H676 0.949 . S
C680 C688 1.574 . S
C680 C696 1.368 . S
H681 C689 0.950 . S
H682 C687 0.950 . S
H683 C688 0.949 . S
H684 C690 0.950 . S
H685 C691 0.950 . S
H686 C692 0.949 . S
C687 H682 0.950 . S
C687 C689 1.327 . S
C687 C693 1.429 . S
C688 C680 1.574 . S
C688 H683 0.949 . S
C688 C694 1.368 . S
C689 C673 1.349 . S
C689 H681 0.950 . S
C689 C687 1.327 . S
C690 C678 1.349 . S
C690 H684 0.950 . S
C690 C691 1.327 . S
C691 H685 0.950 . S
C691 C690 1.327 . S
C691 C695 1.429 . S
C692 C675 1.574 . S
C692 H686 0.949 . S
C692 C696 1.368 . S
C693 C674 1.429 . S
C693 C687 1.429 . S
C693 C694 1.523 . S
C694 C675 1.368 . S
C694 C688 1.368 . S
C694 C693 1.523 . S
C695 C679 1.429 . S
C695 C691 1.429 . S
C695 C696 1.523 . S
C696 C680 1.368 . S
C696 C692 1.368 . S
C696 C695 1.523 . S
H697 C672 0.950 . S
H698 C674 0.950 . S
H699 C675 0.949 . S
H700 C677 0.950 . S
H701 C679 0.950 . S
C702 C703 1.349 . S
C702 C704 1.327 . S
C702 H727 0.950 . S
C703 C702 1.349 . S
C703 C719 1.349 . S
C704 C702 1.327 . S
C704 C723 1.429 . S
C704 H728 0.950 . S
C705 C722 1.574 . S
C705 C724 1.368 . S
C705 H729 0.949 . S
H706 C710 0.949 . S
C707 C708 1.349 . S
C707 C709 1.327 . S
C707 H730 0.950 . S
C708 C707 1.349 . S
C708 C720 1.349 . S
C709 C707 1.327 . S
C709 C725 1.429 . S
C709 H731 0.950 . S
C710 H706 0.949 . S
C710 C718 1.574 . S
C710 C726 1.368 . S
H711 C719 0.950 . S
H712 C717 0.950 . S
H713 C718 0.949 . S
H714 C720 0.950 . S
H715 C721 0.950 . S
H716 C722 0.949 . S
C717 H712 0.950 . S
C717 C719 1.327 . S
C717 C723 1.429 . S
C718 C710 1.574 . S
C718 H713 0.949 . S
C718 C724 1.368 . S
C719 C703 1.349 . S
C719 H711 0.950 . S
C719 C717 1.327 . S
C720 C708 1.349 . S
C720 H714 0.950 . S
C720 C721 1.327 . S
C721 H715 0.950 . S
C721 C720 1.327 . S
C721 C725 1.429 . S
C722 C705 1.574 . S
C722 H716 0.949 . S
C722 C726 1.368 . S
C723 C704 1.429 . S
C723 C717 1.429 . S
C723 C724 1.523 . S
C724 C705 1.368 . S
C724 C718 1.368 . S
C724 C723 1.523 . S
C725 C709 1.429 . S
C725 C721 1.429 . S
C725 C726 1.523 . S
C726 C710 1.368 . S
C726 C722 1.368 . S
C726 C725 1.523 . S
H727 C702 0.950 . S
H728 C704 0.950 . S
H729 C705 0.949 . S
H730 C707 0.950 . S
H731 C709 0.950 . S
C732 C733 1.349 . S
C732 C734 1.327 . S
C732 H757 0.950 . S
C733 C732 1.349 . S
C733 C749 1.349 . S
C734 C732 1.327 . S
C734 C753 1.429 . S
C734 H758 0.950 . S
C735 C752 1.574 . S
C735 C754 1.368 . S
C735 H759 0.949 . S
H736 C740 0.949 . S
C737 C738 1.349 . S
C737 C739 1.327 . S
C737 H760 0.950 . S
C738 C737 1.349 . S
C738 C750 1.349 . S
C739 C737 1.327 . S
C739 C755 1.429 . S
C739 H761 0.950 . S
C740 H736 0.949 . S
C740 C748 1.574 . S
C740 C756 1.368 . S
H741 C749 0.950 . S
H742 C747 0.950 . S
H743 C748 0.949 . S
H744 C750 0.950 . S
H745 C751 0.950 . S
H746 C752 0.949 . S
C747 H742 0.950 . S
C747 C749 1.327 . S
C747 C753 1.429 . S
C748 C740 1.574 . S
C748 H743 0.949 . S
C748 C754 1.368 . S
C749 C733 1.349 . S
C749 H741 0.950 . S
C749 C747 1.327 . S
C750 C738 1.349 . S
C750 H744 0.950 . S
C750 C751 1.327 . S
C751 H745 0.950 . S
C751 C750 1.327 . S
C751 C755 1.429 . S
C752 C735 1.574 . S
C752 H746 0.949 . S
C752 C756 1.368 . S
C753 C734 1.429 . S
C753 C747 1.429 . S
C753 C754 1.523 . S
C754 C735 1.368 . S
C754 C748 1.368 . S
C754 C753 1.523 . S
C755 C739 1.429 . S
C755 C751 1.429 . S
C755 C756 1.523 . S
C756 C740 1.368 . S
C756 C752 1.368 . S
C756 C755 1.523 . S
H757 C732 0.950 . S
H758 C734 0.950 . S
H759 C735 0.949 . S
H760 C737 0.950 . S
H761 C739 0.950 . S
C762 C763 1.349 . S
C762 C764 1.327 . S
C762 H787 0.950 . S
C763 C762 1.349 . S
C763 C779 1.349 . S
C764 C762 1.327 . S
C764 C783 1.429 . S
C764 H788 0.950 . S
C765 C782 1.574 . S
C765 C784 1.368 . S
C765 H789 0.949 . S
H766 C770 0.949 . S
C767 C768 1.349 . S
C767 C769 1.327 . S
C767 H790 0.950 . S
C768 C767 1.349 . S
C768 C780 1.349 . S
C769 C767 1.327 . S
C769 C785 1.429 . S
C769 H791 0.950 . S
C770 H766 0.949 . S
C770 C778 1.574 . S
C770 C786 1.368 . S
H771 C779 0.950 . S
H772 C777 0.950 . S
H773 C778 0.949 . S
H774 C780 0.950 . S
H775 C781 0.950 . S
H776 C782 0.949 . S
C777 H772 0.950 . S
C777 C779 1.327 . S
C777 C783 1.429 . S
C778 C770 1.574 . S
C778 H773 0.949 . S
C778 C784 1.368 . S
C779 C763 1.349 . S
C779 H771 0.950 . S
C779 C777 1.327 . S
C780 C768 1.349 . S
C780 H774 0.950 . S
C780 C781 1.327 . S
C781 H775 0.950 . S
C781 C780 1.327 . S
C781 C785 1.429 . S
C782 C765 1.574 . S
C782 H776 0.949 . S
C782 C786 1.368 . S
C783 C764 1.429 . S
C783 C777 1.429 . S
C783 C784 1.523 . S
C784 C765 1.368 . S
C784 C778 1.368 . S
C784 C783 1.523 . S
C785 C769 1.429 . S
C785 C781 1.429 . S
C785 C786 1.523 . S
C786 C770 1.368 . S
C786 C782 1.368 . S
C786 C785 1.523 . S
H787 C762 0.950 . S
H788 C764 0.950 . S
H789 C765 0.949 . S
H790 C767 0.950 . S
H791 C769 0.950 . S
C792 C793 1.349 . S
C792 C794 1.327 . S
C792 H817 0.950 . S
C793 C792 1.349 . S
C793 C809 1.349 . S
C794 C792 1.327 . S
C794 C813 1.429 . S
C794 H818 0.950 . S
C795 C812 1.574 . S
C795 C814 1.368 . S
C795 H819 0.949 . S
H796 C800 0.949 . S
C797 C798 1.349 . S
C797 C799 1.327 . S
C797 H820 0.950 . S
C798 C797 1.349 . S
C798 C810 1.349 . S
C799 C797 1.327 . S
C799 C815 1.429 . S
C799 H821 0.950 . S
C800 H796 0.949 . S
C800 C808 1.574 . S
C800 C816 1.368 . S
H801 C809 0.950 . S
H802 C807 0.950 . S
H803 C808 0.949 . S
H804 C810 0.950 . S
H805 C811 0.950 . S
H806 C812 0.949 . S
C807 H802 0.950 . S
C807 C809 1.327 . S
C807 C813 1.429 . S
C808 C800 1.574 . S
C808 H803 0.949 . S
C808 C814 1.368 . S
C809 C793 1.349 . S
C809 H801 0.950 . S
C809 C807 1.327 . S
C810 C798 1.349 . S
C810 H804 0.950 . S
C810 C811 1.327 . S
C811 H805 0.950 . S
C811 C810 1.327 . S
C811 C815 1.429 . S
C812 C795 1.574 . S
C812 H806 0.949 . S
C812 C816 1.368 . S
C813 C794 1.429 . S
C813 C807 1.429 . S
C813 C814 1.523 . S
C814 C795 1.368 . S
C814 C808 1.368 . S
C814 C813 1.523 . S
C815 C799 1.429 . S
C815 C811 1.429 . S
C815 C816 1.523 . S
C816 C800 1.368 . S
C816 C812 1.368 . S
C816 C815 1.523 . S
H817 C792 0.950 . S
H818 C794 0.950 . S
H819 C795 0.949 . S
H820 C797 0.950 . S
H821 C799 0.950 . S
C822 C823 1.349 . S
C822 C824 1.327 . S
C822 H847 0.950 . S
C823 C822 1.349 . S
C823 C839 1.349 . S
C824 C822 1.327 . S
C824 C843 1.429 . S
C824 H848 0.950 . S
C825 C842 1.574 . S
C825 C844 1.368 . S
C825 H849 0.949 . S
H826 C830 0.949 . S
C827 C828 1.349 . S
C827 C829 1.327 . S
C827 H850 0.950 . S
C828 C827 1.349 . S
C828 C840 1.349 . S
C829 C827 1.327 . S
C829 C845 1.429 . S
C829 H851 0.950 . S
C830 H826 0.949 . S
C830 C838 1.574 . S
C830 C846 1.368 . S
H831 C839 0.950 . S
H832 C837 0.950 . S
H833 C838 0.949 . S
H834 C840 0.950 . S
H835 C841 0.950 . S
H836 C842 0.949 . S
C837 H832 0.950 . S
C837 C839 1.327 . S
C837 C843 1.429 . S
C838 C830 1.574 . S
C838 H833 0.949 . S
C838 C844 1.368 . S
C839 C823 1.349 . S
C839 H831 0.950 . S
C839 C837 1.327 . S
C840 C828 1.349 . S
C840 H834 0.950 . S
C840 C841 1.327 . S
C841 H835 0.950 . S
C841 C840 1.327 . S
C841 C845 1.429 . S
C842 C825 1.574 . S
C842 H836 0.949 . S
C842 C846 1.368 . S
C843 C824 1.429 . S
C843 C837 1.429 . S
C843 C844 1.523 . S
C844 C825 1.368 . S
C844 C838 1.368 . S
C844 C843 1.523 . S
C845 C829 1.429 . S
C845 C841 1.429 . S
C845 C846 1.523 . S
C846 C830 1.368 . S
C846 C842 1.368 . S
C846 C845 1.523 . S
H847 C822 0.950 . S
H848 C824 0.950 . S
H849 C825 0.949 . S
H850 C827 0.950 . S
H851 C829 0.950 . S
C852 C853 1.349 . S
C852 C854 1.327 . S
C852 H877 0.950 . S
C853 C852 1.349 . S
C853 C869 1.349 . S
C854 C852 1.327 . S
C854 C873 1.429 . S
C854 H878 0.950 . S
C855 C872 1.574 . S
C855 C874 1.368 . S
C855 H879 0.949 . S
H856 C860 0.949 . S
C857 C858 1.349 . S
C857 C859 1.327 . S
C857 H880 0.950 . S
C858 C857 1.349 . S
C858 C870 1.349 . S
C859 C857 1.327 . S
C859 C875 1.429 . S
C859 H881 0.950 . S
C860 H856 0.949 . S
C860 C868 1.574 . S
C860 C876 1.368 . S
H861 C869 0.950 . S
H862 C867 0.950 . S
H863 C868 0.949 . S
H864 C870 0.950 . S
H865 C871 0.950 . S
H866 C872 0.949 . S
C867 H862 0.950 . S
C867 C869 1.327 . S
C867 C873 1.429 . S
C868 C860 1.574 . S
C868 H863 0.949 . S
C868 C874 1.368 . S
C869 C853 1.349 . S
C869 H861 0.950 . S
C869 C867 1.327 . S
C870 C858 1.349 . S
C870 H864 0.950 . S
C870 C871 1.327 . S
C871 H865 0.950 . S
C871 C870 1.327 . S
C871 C875 1.429 . S
C872 C855 1.574 . S
C872 H866 0.949 . S
C872 C876 1.368 . S
C873 C854 1.429 . S
C873 C867 1.429 . S
C873 C874 1.523 . S
C874 C855 1.368 . S
C874 C868 1.368 . S
C874 C873 1.523 . S
C875 C859 1.429 . S
C875 C871 1.429 . S
C875 C876 1.523 . S
C876 C860 1.368 . S
C876 C872 1.368 . S
C876 C875 1.523 . S
H877 C852 0.950 . S
H878 C854 0.950 . S
H879 C855 0.949 . S
H880 C857 0.950 . S
H881 C859 0.950 . S
C882 C883 1.349 . S
C882 C884 1.327 . S
C882 H907 0.950 . S
C883 C882 1.349 . S
C883 C899 1.349 . S
C884 C882 1.327 . S
C884 C903 1.429 . S
C884 H908 0.950 . S
C885 C902 1.574 . S
C885 C904 1.368 . S
C885 H909 0.949 . S
H886 C890 0.949 . S
C887 C888 1.349 . S
C887 C889 1.327 . S
C887 H910 0.950 . S
C888 C887 1.349 . S
C888 C900 1.349 . S
C889 C887 1.327 . S
C889 C905 1.429 . S
C889 H911 0.950 . S
C890 H886 0.949 . S
C890 C898 1.574 . S
C890 C906 1.368 . S
H891 C899 0.950 . S
H892 C897 0.950 . S
H893 C898 0.949 . S
H894 C900 0.950 . S
H895 C901 0.950 . S
H896 C902 0.949 . S
C897 H892 0.950 . S
C897 C899 1.327 . S
C897 C903 1.429 . S
C898 C890 1.574 . S
C898 H893 0.949 . S
C898 C904 1.368 . S
C899 C883 1.349 . S
C899 H891 0.950 . S
C899 C897 1.327 . S
C900 C888 1.349 . S
C900 H894 0.950 . S
C900 C901 1.327 . S
C901 H895 0.950 . S
C901 C900 1.327 . S
C901 C905 1.429 . S
C902 C885 1.574 . S
C902 H896 0.949 . S
C902 C906 1.368 . S
C903 C884 1.429 . S
C903 C897 1.429 . S
C903 C904 1.523 . S
C904 C885 1.368 . S
C904 C898 1.368 . S
C904 C903 1.523 . S
C905 C889 1.429 . S
C905 C901 1.429 . S
C905 C906 1.523 . S
C906 C890 1.368 . S
C906 C902 1.368 . S
C906 C905 1.523 . S
H907 C882 0.950 . S
H908 C884 0.950 . S
H909 C885 0.949 . S
H910 C887 0.950 . S
H911 C889 0.950 . S
C912 C913 1.349 . S
C912 C914 1.327 . S
C912 H937 0.950 . S
C913 C912 1.349 . S
C913 C929 1.349 . S
C914 C912 1.327 . S
C914 C933 1.429 . S
C914 H938 0.950 . S
C915 C932 1.574 . S
C915 C934 1.368 . S
C915 H939 0.949 . S
H916 C920 0.949 . S
C917 C918 1.349 . S
C917 C919 1.327 . S
C917 H940 0.950 . S
C918 C917 1.349 . S
C918 C930 1.349 . S
C919 C917 1.327 . S
C919 C935 1.429 . S
C919 H941 0.950 . S
C920 H916 0.949 . S
C920 C928 1.574 . S
C920 C936 1.368 . S
H921 C929 0.950 . S
H922 C927 0.950 . S
H923 C928 0.949 . S
H924 C930 0.950 . S
H925 C931 0.950 . S
H926 C932 0.949 . S
C927 H922 0.950 . S
C927 C929 1.327 . S
C927 C933 1.429 . S
C928 C920 1.574 . S
C928 H923 0.949 . S
C928 C934 1.368 . S
C929 C913 1.349 . S
C929 H921 0.950 . S
C929 C927 1.327 . S
C930 C918 1.349 . S
C930 H924 0.950 . S
C930 C931 1.327 . S
C931 H925 0.950 . S
C931 C930 1.327 . S
C931 C935 1.429 . S
C932 C915 1.574 . S
C932 H926 0.949 . S
C932 C936 1.368 . S
C933 C914 1.429 . S
C933 C927 1.429 . S
C933 C934 1.523 . S
C934 C915 1.368 . S
C934 C928 1.368 . S
C934 C933 1.523 . S
C935 C919 1.429 . S
C935 C931 1.429 . S
C935 C936 1.523 . S
C936 C920 1.368 . S
C936 C932 1.368 . S
C936 C935 1.523 . S
H937 C912 0.950 . S
H938 C914 0.950 . S
H939 C915 0.949 . S
H940 C917 0.950 . S
H941 C919 0.950 . S
C942 C943 1.349 . S
C942 C944 1.327 . S
C942 H967 0.950 . S
C943 C942 1.349 . S
C943 C959 1.349 . S
C944 C942 1.327 . S
C944 C963 1.429 . S
C944 H968 0.950 . S
C945 C962 1.574 . S
C945 C964 1.368 . S
C945 H969 0.949 . S
H946 C950 0.949 . S
C947 C948 1.349 . S
C947 C949 1.327 . S
C947 H970 0.950 . S
C948 C947 1.349 . S
C948 C960 1.349 . S
C949 C947 1.327 . S
C949 C965 1.429 . S
C949 H971 0.950 . S
C950 H946 0.949 . S
C950 C958 1.574 . S
C950 C966 1.368 . S
H951 C959 0.950 . S
H952 C957 0.950 . S
H953 C958 0.949 . S
H954 C960 0.950 . S
H955 C961 0.950 . S
H956 C962 0.949 . S
C957 H952 0.950 . S
C957 C959 1.327 . S
C957 C963 1.429 . S
C958 C950 1.574 . S
C958 H953 0.949 . S
C958 C964 1.368 . S
C959 C943 1.349 . S
C959 H951 0.950 . S
C959 C957 1.327 . S
C960 C948 1.349 . S
C960 H954 0.950 . S
C960 C961 1.327 . S
C961 H955 0.950 . S
C961 C960 1.327 . S
C961 C965 1.429 . S
C962 C945 1.574 . S
C962 H956 0.949 . S
C962 C966 1.368 . S
C963 C944 1.429 . S
C963 C957 1.429 . S
C963 C964 1.523 . S
C964 C945 1.368 . S
C964 C958 1.368 . S
C964 C963 1.523 . S
C965 C949 1.429 . S
C965 C961 1.429 . S
C965 C966 1.523 . S
C966 C950 1.368 . S
C966 C962 1.368 . S
C966 C965 1.523 . S
H967 C942 0.950 . S
H968 C944 0.950 . S
H969 C945 0.949 . S
H970 C947 0.950 . S
H971 C949 0.950 . S
C972 C973 1.349 . S
C972 C974 1.327 . S
C972 H997 0.950 . S
C973 C972 1.349 . S
C973 C989 1.349 . S
C974 C972 1.327 . S
C974 C993 1.429 . S
C974 H998 0.950 . S
C975 C992 1.574 . S
C975 C994 1.368 . S
C975 H999 0.949 . S
H976 C980 0.949 . S
C977 C978 1.349 . S
C977 C979 1.327 . S
C977 H1000 0.950 . S
C978 C977 1.349 . S
C978 C990 1.349 . S
C979 C977 1.327 . S
C979 C995 1.429 . S
C979 H1001 0.950 . S
C980 H976 0.949 . S
C980 C988 1.574 . S
C980 C996 1.368 . S
H981 C989 0.950 . S
H982 C987 0.950 . S
H983 C988 0.949 . S
H984 C990 0.950 . S
H985 C991 0.950 . S
H986 C992 0.949 . S
C987 H982 0.950 . S
C987 C989 1.327 . S
C987 C993 1.429 . S
C988 C980 1.574 . S
C988 H983 0.949 . S
C988 C994 1.368 . S
C989 C973 1.349 . S
C989 H981 0.950 . S
C989 C987 1.327 . S
C990 C978 1.349 . S
C990 H984 0.950 . S
C990 C991 1.327 . S
C991 H985 0.950 . S
C991 C990 1.327 . S
C991 C995 1.429 . S
C992 C975 1.574 . S
C992 H986 0.949 . S
C992 C996 1.368 . S
C993 C974 1.429 . S
C993 C987 1.429 . S
C993 C994 1.523 . S
C994 C975 1.368 . S
C994 C988 1.368 . S
C994 C993 1.523 . S
C995 C979 1.429 . S
C995 C991 1.429 . S
C995 C996 1.523 . S
C996 C980 1.368 . S
C996 C992 1.368 . S
C996 C995 1.523 . S
H997 C972 0.950 . S
H998 C974 0.950 . S
H999 C975 0.949 . S
H1000 C977 0.950 . S
H1001 C979 0.950 . S
C1002 C1003 1.349 . S
C1002 C1004 1.327 . S
C1002 H1027 0.950 . S
C1003 C1002 1.349 . S
C1003 C1019 1.349 . S
C1004 C1002 1.327 . S
C1004 C1023 1.429 . S
C1004 H1028 0.950 . S
C1005 C1022 1.574 . S
C1005 C1024 1.368 . S
C1005 H1029 0.949 . S
H1006 C1010 0.949 . S
C1007 C1008 1.349 . S
C1007 C1009 1.327 . S
C1007 H1030 0.950 . S
C1008 C1007 1.349 . S
C1008 C1020 1.349 . S
C1009 C1007 1.327 . S
C1009 C1025 1.429 . S
C1009 H1031 0.950 . S
C1010 H1006 0.949 . S
C1010 C1018 1.574 . S
C1010 C1026 1.368 . S
H1011 C1019 0.950 . S
H1012 C1017 0.950 . S
H1013 C1018 0.949 . S
H1014 C1020 0.950 . S
H1015 C1021 0.950 . S
H1016 C1022 0.949 . S
C1017 H1012 0.950 . S
C1017 C1019 1.327 . S
C1017 C1023 1.429 . S
C1018 C1010 1.574 . S
C1018 H1013 0.949 . S
C1018 C1024 1.368 . S
C1019 C1003 1.349 . S
C1019 H1011 0.950 . S
C1019 C1017 1.327 . S
C1020 C1008 1.349 . S
C1020 H1014 0.950 . S
C1020 C1021 1.327 . S
C1021 H1015 0.950 . S
C1021 C1020 1.327 . S
C1021 C1025 1.429 . S
C1022 C1005 1.574 . S
C1022 H1016 0.949 . S
C1022 C1026 1.368 . S
C1023 C1004 1.429 . S
C1023 C1017 1.429 . S
C1023 C1024 1.523 . S
C1024 C1005 1.368 . S
C1024 C1018 1.368 . S
C1024 C1023 1.523 . S
C1025 C1009 1.429 . S
C1025 C1021 1.429 . S
C1025 C1026 1.523 . S
C1026 C1010 1.368 . S
C1026 C1022 1.368 . S
C1026 C1025 1.523 . S
H1027 C1002 0.950 . S
H1028 C1004 0.950 . S
H1029 C1005 0.949 . S
H1030 C1007 0.950 . S
H1031 C1009 0.950 . S
C1032 C1033 1.349 . S
C1032 C1034 1.327 . S
C1032 H1057 0.950 . S
C1033 C1032 1.349 . S
C1033 C1049 1.349 . S
C1034 C1032 1.327 . S
C1034 C1053 1.429 . S
C1034 H1058 0.950 . S
C1035 C1052 1.574 1_554 S
C1035 C1054 1.368 . S
C1035 H1059 0.949 . S
H1036 C1040 0.949 . S
C1037 C1038 1.349 . S
C1037 C1039 1.327 . S
C1037 H1060 0.950 . S
C1038 C1037 1.349 . S
C1038 C1050 1.349 . S
C1039 C1037 1.327 . S
C1039 C1055 1.429 . S
C1039 H1061 0.950 . S
C1040 H1036 0.949 . S
C1040 C1048 1.574 1_556 S
C1040 C1056 1.368 . S
H1041 C1049 0.950 . S
H1042 C1047 0.950 . S
H1043 C1048 0.949 . S
H1044 C1050 0.950 . S
H1045 C1051 0.950 . S
H1046 C1052 0.949 . S
C1047 H1042 0.950 . S
C1047 C1049 1.327 . S
C1047 C1053 1.429 . S
C1048 C1040 1.574 1_554 S
C1048 H1043 0.949 . S
C1048 C1054 1.368 . S
C1049 C1033 1.349 . S
C1049 H1041 0.950 . S
C1049 C1047 1.327 . S
C1050 C1038 1.349 . S
C1050 H1044 0.950 . S
C1050 C1051 1.327 . S
C1051 H1045 0.950 . S
C1051 C1050 1.327 . S
C1051 C1055 1.429 . S
C1052 C1035 1.574 1_556 S
C1052 H1046 0.949 . S
C1052 C1056 1.368 . S
C1053 C1034 1.429 . S
C1053 C1047 1.429 . S
C1053 C1054 1.523 . S
C1054 C1035 1.368 . S
C1054 C1048 1.368 . S
C1054 C1053 1.523 . S
C1055 C1039 1.429 . S
C1055 C1051 1.429 . S
C1055 C1056 1.523 . S
C1056 C1040 1.368 . S
C1056 C1052 1.368 . S
C1056 C1055 1.523 . S
H1057 C1032 0.950 . S
H1058 C1034 0.950 . S
H1059 C1035 0.949 . S
H1060 C1037 0.950 . S
H1061 C1039 0.950 . S
C1062 C1063 1.349 . S
C1062 C1064 1.327 . S
C1062 H1087 0.950 . S
C1063 C1062 1.349 . S
C1063 C1079 1.349 . S
C1064 C1062 1.327 . S
C1064 C1083 1.429 . S
C1064 H1088 0.950 . S
C1065 C1082 1.574 1_556 S
C1065 C1084 1.368 . S
C1065 H1089 0.949 . S
H1066 C1070 0.949 . S
C1067 C1068 1.349 . S
C1067 C1069 1.327 . S
C1067 H1090 0.950 . S
C1068 C1067 1.349 . S
C1068 C1080 1.349 . S
C1069 C1067 1.327 . S
C1069 C1085 1.429 . S
C1069 H1091 0.950 . S
C1070 H1066 0.949 . S
C1070 C1078 1.574 1_554 S
C1070 C1086 1.368 . S
H1071 C1079 0.950 . S
H1072 C1077 0.950 . S
H1073 C1078 0.949 . S
H1074 C1080 0.950 . S
H1075 C1081 0.950 . S
H1076 C1082 0.949 . S
C1077 H1072 0.950 . S
C1077 C1079 1.327 . S
C1077 C1083 1.429 . S
C1078 C1070 1.574 1_556 S
C1078 H1073 0.949 . S
C1078 C1084 1.368 . S
C1079 C1063 1.349 . S
C1079 H1071 0.950 . S
C1079 C1077 1.327 . S
C1080 C1068 1.349 . S
C1080 H1074 0.950 . S
C1080 C1081 1.327 . S
C1081 H1075 0.950 . S
C1081 C1080 1.327 . S
C1081 C1085 1.429 . S
C1082 C1065 1.574 1_554 S
C1082 H1076 0.949 . S
C1082 C1086 1.368 . S
C1083 C1064 1.429 . S
C1083 C1077 1.429 . S
C1083 C1084 1.523 . S
C1084 C1065 1.368 . S
C1084 C1078 1.368 . S
C1084 C1083 1.523 . S
C1085 C1069 1.429 . S
C1085 C1081 1.429 . S
C1085 C1086 1.523 . S
C1086 C1070 1.368 . S
C1086 C1082 1.368 . S
C1086 C1085 1.523 . S
H1087 C1062 0.950 . S
H1088 C1064 0.950 . S
H1089 C1065 0.949 . S
H1090 C1067 0.950 . S
H1091 C1069 0.950 . S
C1092 C1093 1.349 . S
C1092 C1094 1.327 . S
C1092 H1117 0.950 . S
C1093 C1092 1.349 . S
C1093 C1109 1.349 . S
C1094 C1092 1.327 . S
C1094 C1113 1.429 . S
C1094 H1118 0.950 . S
C1095 C1112 1.574 1_556 S
C1095 C1114 1.368 . S
C1095 H1119 0.949 . S
H1096 C1100 0.949 . S
C1097 C1098 1.349 . S
C1097 C1099 1.327 . S
C1097 H1120 0.950 . S
C1098 C1097 1.349 . S
C1098 C1110 1.349 . S
C1099 C1097 1.327 . S
C1099 C1115 1.429 . S
C1099 H1121 0.950 . S
C1100 H1096 0.949 . S
C1100 C1108 1.574 1_554 S
C1100 C1116 1.368 . S
H1101 C1109 0.950 . S
H1102 C1107 0.950 . S
H1103 C1108 0.949 . S
H1104 C1110 0.950 . S
H1105 C1111 0.950 . S
H1106 C1112 0.949 . S
C1107 H1102 0.950 . S
C1107 C1109 1.327 . S
C1107 C1113 1.429 . S
C1108 C1100 1.574 1_556 S
C1108 H1103 0.949 . S
C1108 C1114 1.368 . S
C1109 C1093 1.349 . S
C1109 H1101 0.950 . S
C1109 C1107 1.327 . S
C1110 C1098 1.349 . S
C1110 H1104 0.950 . S
C1110 C1111 1.327 . S
C1111 H1105 0.950 . S
C1111 C1110 1.327 . S
C1111 C1115 1.429 . S
C1112 C1095 1.574 1_554 S
C1112 H1106 0.949 . S
C1112 C1116 1.368 . S
C1113 C1094 1.429 . S
C1113 C1107 1.429 . S
C1113 C1114 1.523 . S
C1114 C1095 1.368 . S
C1114 C1108 1.368 . S
C1114 C1113 1.523 . S
C1115 C1099 1.429 . S
C1115 C1111 1.429 . S
C1115 C1116 1.523 . S
C1116 C1100 1.368 . S
C1116 C1112 1.368 . S
C1116 C1115 1.523 . S
H1117 C1092 0.950 . S
H1118 C1094 0.950 . S
H1119 C1095 0.949 . S
H1120 C1097 0.950 . S
H1121 C1099 0.950 . S
C1122 C1123 1.349 . S
C1122 C1124 1.327 . S
C1122 H1147 0.950 . S
C1123 C1122 1.349 . S
C1123 C1139 1.349 . S
C1124 C1122 1.327 . S
C1124 C1143 1.429 . S
C1124 H1148 0.950 . S
C1125 C1142 1.574 1_554 S
C1125 C1144 1.368 . S
C1125 H1149 0.949 . S
H1126 C1130 0.949 . S
C1127 C1128 1.349 . S
C1127 C1129 1.327 . S
C1127 H1150 0.950 . S
C1128 C1127 1.349 . S
C1128 C1140 1.349 . S
C1129 C1127 1.327 . S
C1129 C1145 1.429 . S
C1129 H1151 0.950 . S
C1130 H1126 0.949 . S
C1130 C1138 1.574 1_556 S
C1130 C1146 1.368 . S
H1131 C1139 0.950 . S
H1132 C1137 0.950 . S
H1133 C1138 0.949 . S
H1134 C1140 0.950 . S
H1135 C1141 0.950 . S
H1136 C1142 0.949 . S
C1137 H1132 0.950 . S
C1137 C1139 1.327 . S
C1137 C1143 1.429 . S
C1138 C1130 1.574 1_554 S
C1138 H1133 0.949 . S
C1138 C1144 1.368 . S
C1139 C1123 1.349 . S
C1139 H1131 0.950 . S
C1139 C1137 1.327 . S
C1140 C1128 1.349 . S
C1140 H1134 0.950 . S
C1140 C1141 1.327 . S
C1141 H1135 0.950 . S
C1141 C1140 1.327 . S
C1141 C1145 1.429 . S
C1142 C1125 1.574 1_556 S
C1142 H1136 0.949 . S
C1142 C1146 1.368 . S
C1143 C1124 1.429 . S
C1143 C1137 1.429 . S
C1143 C1144 1.523 . S
C1144 C1125 1.368 . S
C1144 C1138 1.368 . S
C1144 C1143 1.523 . S
C1145 C1129 1.429 . S
C1145 C1141 1.429 . S
C1145 C1146 1.523 . S
C1146 C1130 1.368 . S
C1146 C1142 1.368 . S
C1146 C1145 1.523 . S
H1147 C1122 0.950 . S
H1148 C1124 0.950 . S
H1149 C1125 0.949 . S
H1150 C1127 0.950 . S
H1151 C1129 0.950 . S
C1152 C1153 1.349 . S
C1152 C1154 1.327 . S
C1152 H1177 0.950 . S
C1153 C1152 1.349 . S
C1153 C1169 1.349 . S
C1154 C1152 1.327 . S
C1154 C1173 1.429 . S
C1154 H1178 0.950 . S
C1155 C1172 1.574 1_554 S
C1155 C1174 1.368 . S
C1155 H1179 0.949 . S
H1156 C1160 0.949 . S
C1157 C1158 1.349 . S
C1157 C1159 1.327 . S
C1157 H1180 0.950 . S
C1158 C1157 1.349 . S
C1158 C1170 1.349 . S
C1159 C1157 1.327 . S
C1159 C1175 1.429 . S
C1159 H1181 0.950 . S
C1160 H1156 0.949 . S
C1160 C1168 1.574 1_556 S
C1160 C1176 1.368 . S
H1161 C1169 0.950 . S
H1162 C1167 0.950 . S
H1163 C1168 0.949 . S
H1164 C1170 0.950 . S
H1165 C1171 0.950 . S
H1166 C1172 0.949 . S
C1167 H1162 0.950 . S
C1167 C1169 1.327 . S
C1167 C1173 1.429 . S
C1168 C1160 1.574 1_554 S
C1168 H1163 0.949 . S
C1168 C1174 1.368 . S
C1169 C1153 1.349 . S
C1169 H1161 0.950 . S
C1169 C1167 1.327 . S
C1170 C1158 1.349 . S
C1170 H1164 0.950 . S
C1170 C1171 1.327 . S
C1171 H1165 0.950 . S
C1171 C1170 1.327 . S
C1171 C1175 1.429 . S
C1172 C1155 1.574 1_556 S
C1172 H1166 0.949 . S
C1172 C1176 1.368 . S
C1173 C1154 1.429 . S
C1173 C1167 1.429 . S
C1173 C1174 1.523 . S
C1174 C1155 1.368 . S
C1174 C1168 1.368 . S
C1174 C1173 1.523 . S
C1175 C1159 1.429 . S
C1175 C1171 1.429 . S
C1175 C1176 1.523 . S
C1176 C1160 1.368 . S
C1176 C1172 1.368 . S
C1176 C1175 1.523 . S
H1177 C1152 0.950 . S
H1178 C1154 0.950 . S
H1179 C1155 0.949 . S
H1180 C1157 0.950 . S
H1181 C1159 0.950 . S
C1182 C1183 1.349 . S
C1182 C1184 1.327 . S
C1182 H1207 0.950 . S
C1183 C1182 1.349 . S
C1183 C1199 1.349 . S
C1184 C1182 1.327 . S
C1184 C1203 1.429 . S
C1184 H1208 0.950 . S
C1185 C1202 1.574 1_556 S
C1185 C1204 1.368 . S
C1185 H1209 0.949 . S
H1186 C1190 0.949 . S
C1187 C1188 1.349 . S
C1187 C1189 1.327 . S
C1187 H1210 0.950 . S
C1188 C1187 1.349 . S
C1188 C1200 1.349 . S
C1189 C1187 1.327 . S
C1189 C1205 1.429 . S
C1189 H1211 0.950 . S
C1190 H1186 0.949 . S
C1190 C1198 1.574 1_554 S
C1190 C1206 1.368 . S
H1191 C1199 0.950 . S
H1192 C1197 0.950 . S
H1193 C1198 0.949 . S
H1194 C1200 0.950 . S
H1195 C1201 0.950 . S
H1196 C1202 0.949 . S
C1197 H1192 0.950 . S
C1197 C1199 1.327 . S
C1197 C1203 1.429 . S
C1198 C1190 1.574 1_556 S
C1198 H1193 0.949 . S
C1198 C1204 1.368 . S
C1199 C1183 1.349 . S
C1199 H1191 0.950 . S
C1199 C1197 1.327 . S
C1200 C1188 1.349 . S
C1200 H1194 0.950 . S
C1200 C1201 1.327 . S
C1201 H1195 0.950 . S
C1201 C1200 1.327 . S
C1201 C1205 1.429 . S
C1202 C1185 1.574 1_554 S
C1202 H1196 0.949 . S
C1202 C1206 1.368 . S
C1203 C1184 1.429 . S
C1203 C1197 1.429 . S
C1203 C1204 1.523 . S
C1204 C1185 1.368 . S
C1204 C1198 1.368 . S
C1204 C1203 1.523 . S
C1205 C1189 1.429 . S
C1205 C1201 1.429 . S
C1205 C1206 1.523 . S
C1206 C1190 1.368 . S
C1206 C1202 1.368 . S
C1206 C1205 1.523 . S
H1207 C1182 0.950 . S
H1208 C1184 0.950 . S
H1209 C1185 0.949 . S
H1210 C1187 0.950 . S
H1211 C1189 0.950 . S
C1212 C1213 1.349 . S
C1212 C1214 1.327 . S
C1212 H1237 0.950 . S
C1213 C1212 1.349 . S
C1213 C1229 1.349 . S
C1214 C1212 1.327 . S
C1214 C1233 1.429 . S
C1214 H1238 0.950 . S
C1215 C1232 1.574 . S
C1215 C1234 1.368 . S
C1215 H1239 0.949 . S
H1216 C1220 0.949 . S
C1217 C1218 1.349 . S
C1217 C1219 1.327 . S
C1217 H1240 0.950 . S
C1218 C1217 1.349 . S
C1218 C1230 1.349 . S
C1219 C1217 1.327 . S
C1219 C1235 1.429 . S
C1219 H1241 0.950 . S
C1220 H1216 0.949 . S
C1220 C1228 1.574 . S
C1220 C1236 1.368 . S
H1221 C1229 0.950 . S
H1222 C1227 0.950 . S
H1223 C1228 0.949 . S
H1224 C1230 0.950 . S
H1225 C1231 0.950 . S
H1226 C1232 0.949 . S
C1227 H1222 0.950 . S
C1227 C1229 1.327 . S
C1227 C1233 1.429 . S
C1228 C1220 1.574 . S
C1228 H1223 0.949 . S
C1228 C1234 1.368 . S
C1229 C1213 1.349 . S
C1229 H1221 0.950 . S
C1229 C1227 1.327 . S
C1230 C1218 1.349 . S
C1230 H1224 0.950 . S
C1230 C1231 1.327 . S
C1231 H1225 0.950 . S
C1231 C1230 1.327 . S
C1231 C1235 1.429 . S
C1232 C1215 1.574 . S
C1232 H1226 0.949 . S
C1232 C1236 1.368 . S
C1233 C1214 1.429 . S
C1233 C1227 1.429 . S
C1233 C1234 1.523 . S
C1234 C1215 1.368 . S
C1234 C1228 1.368 . S
C1234 C1233 1.523 . S
C1235 C1219 1.429 . S
C1235 C1231 1.429 . S
C1235 C1236 1.523 . S
C1236 C1220 1.368 . S
C1236 C1232 1.368 . S
C1236 C1235 1.523 . S
H1237 C1212 0.950 . S
H1238 C1214 0.950 . S
H1239 C1215 0.949 . S
H1240 C1217 0.950 . S
H1241 C1219 0.950 . S
C1242 C1243 1.349 . S
C1242 C1244 1.327 . S
C1242 H1267 0.950 . S
C1243 C1242 1.349 . S
C1243 C1259 1.349 . S
C1244 C1242 1.327 . S
C1244 C1263 1.429 . S
C1244 H1268 0.950 . S
C1245 C1262 1.574 . S
C1245 C1264 1.368 . S
C1245 H1269 0.949 . S
H1246 C1250 0.949 . S
C1247 C1248 1.349 . S
C1247 C1249 1.327 . S
C1247 H1270 0.950 . S
C1248 C1247 1.349 . S
C1248 C1260 1.349 . S
C1249 C1247 1.327 . S
C1249 C1265 1.429 . S
C1249 H1271 0.950 . S
C1250 H1246 0.949 . S
C1250 C1258 1.574 . S
C1250 C1266 1.368 . S
H1251 C1259 0.950 . S
H1252 C1257 0.950 . S
H1253 C1258 0.949 . S
H1254 C1260 0.950 . S
H1255 C1261 0.950 . S
H1256 C1262 0.949 . S
C1257 H1252 0.950 . S
C1257 C1259 1.327 . S
C1257 C1263 1.429 . S
C1258 C1250 1.574 . S
C1258 H1253 0.949 . S
C1258 C1264 1.368 . S
C1259 C1243 1.349 . S
C1259 H1251 0.950 . S
C1259 C1257 1.327 . S
C1260 C1248 1.349 . S
C1260 H1254 0.950 . S
C1260 C1261 1.327 . S
C1261 H1255 0.950 . S
C1261 C1260 1.327 . S
C1261 C1265 1.429 . S
C1262 C1245 1.574 . S
C1262 H1256 0.949 . S
C1262 C1266 1.368 . S
C1263 C1244 1.429 . S
C1263 C1257 1.429 . S
C1263 C1264 1.523 . S
C1264 C1245 1.368 . S
C1264 C1258 1.368 . S
C1264 C1263 1.523 . S
C1265 C1249 1.429 . S
C1265 C1261 1.429 . S
C1265 C1266 1.523 . S
C1266 C1250 1.368 . S
C1266 C1262 1.368 . S
C1266 C1265 1.523 . S
H1267 C1242 0.950 . S
H1268 C1244 0.950 . S
H1269 C1245 0.949 . S
H1270 C1247 0.950 . S
H1271 C1249 0.950 . S
C1272 C1273 1.349 . S
C1272 C1274 1.327 . S
C1272 H1297 0.950 . S
C1273 C1272 1.349 . S
C1273 C1289 1.349 . S
C1274 C1272 1.327 . S
C1274 C1293 1.429 . S
C1274 H1298 0.950 . S
C1275 C1292 1.574 . S
C1275 C1294 1.368 . S
C1275 H1299 0.949 . S
H1276 C1280 0.949 . S
C1277 C1278 1.349 . S
C1277 C1279 1.327 . S
C1277 H1300 0.950 . S
C1278 C1277 1.349 . S
C1278 C1290 1.349 . S
C1279 C1277 1.327 . S
C1279 C1295 1.429 . S
C1279 H1301 0.950 . S
C1280 H1276 0.949 . S
C1280 C1288 1.574 . S
C1280 C1296 1.368 . S
H1281 C1289 0.950 . S
H1282 C1287 0.950 . S
H1283 C1288 0.949 . S
H1284 C1290 0.950 . S
H1285 C1291 0.950 . S
H1286 C1292 0.949 . S
C1287 H1282 0.950 . S
C1287 C1289 1.327 . S
C1287 C1293 1.429 . S
C1288 C1280 1.574 . S
C1288 H1283 0.949 . S
C1288 C1294 1.368 . S
C1289 C1273 1.349 . S
C1289 H1281 0.950 . S
C1289 C1287 1.327 . S
C1290 C1278 1.349 . S
C1290 H1284 0.950 . S
C1290 C1291 1.327 . S
C1291 H1285 0.950 . S
C1291 C1290 1.327 . S
C1291 C1295 1.429 . S
C1292 C1275 1.574 . S
C1292 H1286 0.949 . S
C1292 C1296 1.368 . S
C1293 C1274 1.429 . S
C1293 C1287 1.429 . S
C1293 C1294 1.523 . S
C1294 C1275 1.368 . S
C1294 C1288 1.368 . S
C1294 C1293 1.523 . S
C1295 C1279 1.429 . S
C1295 C1291 1.429 . S
C1295 C1296 1.523 . S
C1296 C1280 1.368 . S
C1296 C1292 1.368 . S
C1296 C1295 1.523 . S
H1297 C1272 0.950 . S
H1298 C1274 0.950 . S
H1299 C1275 0.949 . S
H1300 C1277 0.950 . S
H1301 C1279 0.950 . S
C1302 C1303 1.349 . S
C1302 C1304 1.327 . S
C1302 H1327 0.950 . S
C1303 C1302 1.349 . S
C1303 C1319 1.349 . S
C1304 C1302 1.327 . S
C1304 C1323 1.429 . S
C1304 H1328 0.950 . S
C1305 C1322 1.574 . S
C1305 C1324 1.368 . S
C1305 H1329 0.949 . S
H1306 C1310 0.949 . S
C1307 C1308 1.349 . S
C1307 C1309 1.327 . S
C1307 H1330 0.950 . S
C1308 C1307 1.349 . S
C1308 C1320 1.349 . S
C1309 C1307 1.327 . S
C1309 C1325 1.429 . S
C1309 H1331 0.950 . S
C1310 H1306 0.949 . S
C1310 C1318 1.574 . S
C1310 C1326 1.368 . S
H1311 C1319 0.950 . S
H1312 C1317 0.950 . S
H1313 C1318 0.949 . S
H1314 C1320 0.950 . S
H1315 C1321 0.950 . S
H1316 C1322 0.949 . S
C1317 H1312 0.950 . S
C1317 C1319 1.327 . S
C1317 C1323 1.429 . S
C1318 C1310 1.574 . S
C1318 H1313 0.949 . S
C1318 C1324 1.368 . S
C1319 C1303 1.349 . S
C1319 H1311 0.950 . S
C1319 C1317 1.327 . S
C1320 C1308 1.349 . S
C1320 H1314 0.950 . S
C1320 C1321 1.327 . S
C1321 H1315 0.950 . S
C1321 C1320 1.327 . S
C1321 C1325 1.429 . S
C1322 C1305 1.574 . S
C1322 H1316 0.949 . S
C1322 C1326 1.368 . S
C1323 C1304 1.429 . S
C1323 C1317 1.429 . S
C1323 C1324 1.523 . S
C1324 C1305 1.368 . S
C1324 C1318 1.368 . S
C1324 C1323 1.523 . S
C1325 C1309 1.429 . S
C1325 C1321 1.429 . S
C1325 C1326 1.523 . S
C1326 C1310 1.368 . S
C1326 C1322 1.368 . S
C1326 C1325 1.523 . S
H1327 C1302 0.950 . S
H1328 C1304 0.950 . S
H1329 C1305 0.949 . S
H1330 C1307 0.950 . S
H1331 C1309 0.950 . S
C1332 C1333 1.349 . S
C1332 C1334 1.327 . S
C1332 H1357 0.950 . S
C1333 C1332 1.349 . S
C1333 C1349 1.349 . S
C1334 C1332 1.327 . S
C1334 C1353 1.429 . S
C1334 H1358 0.950 . S
C1335 C1352 1.574 . S
C1335 C1354 1.368 . S
C1335 H1359 0.949 . S
H1336 C1340 0.949 . S
C1337 C1338 1.349 . S
C1337 C1339 1.327 . S
C1337 H1360 0.950 . S
C1338 C1337 1.349 . S
C1338 C1350 1.349 . S
C1339 C1337 1.327 . S
C1339 C1355 1.429 . S
C1339 H1361 0.950 . S
C1340 H1336 0.949 . S
C1340 C1348 1.574 . S
C1340 C1356 1.368 . S
H1341 C1349 0.950 . S
H1342 C1347 0.950 . S
H1343 C1348 0.949 . S
H1344 C1350 0.950 . S
H1345 C1351 0.950 . S
H1346 C1352 0.949 . S
C1347 H1342 0.950 . S
C1347 C1349 1.327 . S
C1347 C1353 1.429 . S
C1348 C1340 1.574 . S
C1348 H1343 0.949 . S
C1348 C1354 1.368 . S
C1349 C1333 1.349 . S
C1349 H1341 0.950 . S
C1349 C1347 1.327 . S
C1350 C1338 1.349 . S
C1350 H1344 0.950 . S
C1350 C1351 1.327 . S
C1351 H1345 0.950 . S
C1351 C1350 1.327 . S
C1351 C1355 1.429 . S
C1352 C1335 1.574 . S
C1352 H1346 0.949 . S
C1352 C1356 1.368 . S
C1353 C1334 1.429 . S
C1353 C1347 1.429 . S
C1353 C1354 1.523 . S
C1354 C1335 1.368 . S
C1354 C1348 1.368 . S
C1354 C1353 1.523 . S
C1355 C1339 1.429 . S
C1355 C1351 1.429 . S
C1355 C1356 1.523 . S
C1356 C1340 1.368 . S
C1356 C1352 1.368 . S
C1356 C1355 1.523 . S
H1357 C1332 0.950 . S
H1358 C1334 0.950 . S
H1359 C1335 0.949 . S
H1360 C1337 0.950 . S
H1361 C1339 0.950 . S
C1362 C1363 1.349 . S
C1362 C1364 1.327 . S
C1362 H1387 0.950 . S
C1363 C1362 1.349 . S
C1363 C1379 1.349 . S
C1364 C1362 1.327 . S
C1364 C1383 1.429 . S
C1364 H1388 0.950 . S
C1365 C1382 1.574 . S
C1365 C1384 1.368 . S
C1365 H1389 0.949 . S
H1366 C1370 0.949 . S
C1367 C1368 1.349 . S
C1367 C1369 1.327 . S
C1367 H1390 0.950 . S
C1368 C1367 1.349 . S
C1368 C1380 1.349 . S
C1369 C1367 1.327 . S
C1369 C1385 1.429 . S
C1369 H1391 0.950 . S
C1370 H1366 0.949 . S
C1370 C1378 1.574 . S
C1370 C1386 1.368 . S
H1371 C1379 0.950 . S
H1372 C1377 0.950 . S
H1373 C1378 0.949 . S
H1374 C1380 0.950 . S
H1375 C1381 0.950 . S
H1376 C1382 0.949 . S
C1377 H1372 0.950 . S
C1377 C1379 1.327 . S
C1377 C1383 1.429 . S
C1378 C1370 1.574 . S
C1378 H1373 0.949 . S
C1378 C1384 1.368 . S
C1379 C1363 1.349 . S
C1379 H1371 0.950 . S
C1379 C1377 1.327 . S
C1380 C1368 1.349 . S
C1380 H1374 0.950 . S
C1380 C1381 1.327 . S
C1381 H1375 0.950 . S
C1381 C1380 1.327 . S
C1381 C1385 1.429 . S
C1382 C1365 1.574 . S
C1382 H1376 0.949 . S
C1382 C1386 1.368 . S
C1383 C1364 1.429 . S
C1383 C1377 1.429 . S
C1383 C1384 1.523 . S
C1384 C1365 1.368 . S
C1384 C1378 1.368 . S
C1384 C1383 1.523 . S
C1385 C1369 1.429 . S
C1385 C1381 1.429 . S
C1385 C1386 1.523 . S
C1386 C1370 1.368 . S
C1386 C1382 1.368 . S
C1386 C1385 1.523 . S
H1387 C1362 0.950 . S
H1388 C1364 0.950 . S
H1389 C1365 0.949 . S
H1390 C1367 0.950 . S
H1391 C1369 0.950 . S
C1392 C1393 1.349 . S
C1392 C1394 1.327 . S
C1392 H1417 0.950 . S
C1393 C1392 1.349 . S
C1393 C1409 1.349 . S
C1394 C1392 1.327 . S
C1394 C1413 1.429 . S
C1394 H1418 0.950 . S
C1395 C1412 1.574 . S
C1395 C1414 1.368 . S
C1395 H1419 0.949 . S
H1396 C1400 0.949 . S
C1397 C1398 1.349 . S
C1397 C1399 1.327 . S
C1397 H1420 0.950 . S
C1398 C1397 1.349 . S
C1398 C1410 1.349 . S
C1399 C1397 1.327 . S
C1399 C1415 1.429 . S
C1399 H1421 0.950 . S
C1400 H1396 0.949 . S
C1400 C1408 1.574 . S
C1400 C1416 1.368 . S
H1401 C1409 0.950 . S
H1402 C1407 0.950 . S
H1403 C1408 0.949 . S
H1404 C1410 0.950 . S
H1405 C1411 0.950 . S
H1406 C1412 0.949 . S
C1407 H1402 0.950 . S
C1407 C1409 1.327 . S
C1407 C1413 1.429 . S
C1408 C1400 1.574 . S
C1408 H1403 0.949 . S
C1408 C1414 1.368 . S
C1409 C1393 1.349 . S
C1409 H1401 0.950 . S
C1409 C1407 1.327 . S
C1410 C1398 1.349 . S
C1410 H1404 0.950 . S
C1410 C1411 1.327 . S
C1411 H1405 0.950 . S
C1411 C1410 1.327 . S
C1411 C1415 1.429 . S
C1412 C1395 1.574 . S
C1412 H1406 0.949 . S
C1412 C1416 1.368 . S
C1413 C1394 1.429 . S
C1413 C1407 1.429 . S
C1413 C1414 1.523 . S
C1414 C1395 1.368 . S
C1414 C1408 1.368 . S
C1414 C1413 1.523 . S
C1415 C1399 1.429 . S
C1415 C1411 1.429 . S
C1415 C1416 1.523 . S
C1416 C1400 1.368 . S
C1416 C1412 1.368 . S
C1416 C1415 1.523 . S
H1417 C1392 0.950 . S
H1418 C1394 0.950 . S
H1419 C1395 0.949 . S
H1420 C1397 0.950 . S
H1421 C1399 0.950 . S
C1422 C1423 1.349 . S
C1422 C1424 1.327 . S
C1422 H1447 0.950 . S
C1423 C1422 1.349 . S
C1423 C1439 1.349 . S
C1424 C1422 1.327 . S
C1424 C1443 1.429 . S
C1424 H1448 0.950 . S
C1425 C1442 1.574 . S
C1425 C1444 1.368 . S
C1425 H1449 0.949 . S
H1426 C1430 0.949 . S
C1427 C1428 1.349 . S
C1427 C1429 1.327 . S
C1427 H1450 0.950 . S
C1428 C1427 1.349 . S
C1428 C1440 1.349 . S
C1429 C1427 1.327 . S
C1429 C1445 1.429 . S
C1429 H1451 0.950 . S
C1430 H1426 0.949 . S
C1430 C1438 1.574 . S
C1430 C1446 1.368 . S
H1431 C1439 0.950 . S
H1432 C1437 0.950 . S
H1433 C1438 0.949 . S
H1434 C1440 0.950 . S
H1435 C1441 0.950 . S
H1436 C1442 0.949 . S
C1437 H1432 0.950 . S
C1437 C1439 1.327 . S
C1437 C1443 1.429 . S
C1438 C1430 1.574 . S
C1438 H1433 0.949 . S
C1438 C1444 1.368 . S
C1439 C1423 1.349 . S
C1439 H1431 0.950 . S
C1439 C1437 1.327 . S
C1440 C1428 1.349 . S
C1440 H1434 0.950 . S
C1440 C1441 1.327 . S
C1441 H1435 0.950 . S
C1441 C1440 1.327 . S
C1441 C1445 1.429 . S
C1442 C1425 1.574 . S
C1442 H1436 0.949 . S
C1442 C1446 1.368 . S
C1443 C1424 1.429 . S
C1443 C1437 1.429 . S
C1443 C1444 1.523 . S
C1444 C1425 1.368 . S
C1444 C1438 1.368 . S
C1444 C1443 1.523 . S
C1445 C1429 1.429 . S
C1445 C1441 1.429 . S
C1445 C1446 1.523 . S
C1446 C1430 1.368 . S
C1446 C1442 1.368 . S
C1446 C1445 1.523 . S
H1447 C1422 0.950 . S
H1448 C1424 0.950 . S
H1449 C1425 0.949 . S
H1450 C1427 0.950 . S
H1451 C1429 0.950 . S
C1452 C1453 1.349 . S
C1452 C1454 1.327 . S
C1452 H1477 0.950 . S
C1453 C1452 1.349 . S
C1453 C1469 1.349 . S
C1454 C1452 1.327 . S
C1454 C1473 1.429 . S
C1454 H1478 0.950 . S
C1455 C1472 1.574 . S
C1455 C1474 1.368 . S
C1455 H1479 0.949 . S
H1456 C1460 0.949 . S
C1457 C1458 1.349 . S
C1457 C1459 1.327 . S
C1457 H1480 0.950 . S
C1458 C1457 1.349 . S
C1458 C1470 1.349 . S
C1459 C1457 1.327 . S
C1459 C1475 1.429 . S
C1459 H1481 0.950 . S
C1460 H1456 0.949 . S
C1460 C1468 1.574 . S
C1460 C1476 1.368 . S
H1461 C1469 0.950 . S
H1462 C1467 0.950 . S
H1463 C1468 0.949 . S
H1464 C1470 0.950 . S
H1465 C1471 0.950 . S
H1466 C1472 0.949 . S
C1467 H1462 0.950 . S
C1467 C1469 1.327 . S
C1467 C1473 1.429 . S
C1468 C1460 1.574 . S
C1468 H1463 0.949 . S
C1468 C1474 1.368 . S
C1469 C1453 1.349 . S
C1469 H1461 0.950 . S
C1469 C1467 1.327 . S
C1470 C1458 1.349 . S
C1470 H1464 0.950 . S
C1470 C1471 1.327 . S
C1471 H1465 0.950 . S
C1471 C1470 1.327 . S
C1471 C1475 1.429 . S
C1472 C1455 1.574 . S
C1472 H1466 0.949 . S
C1472 C1476 1.368 . S
C1473 C1454 1.429 . S
C1473 C1467 1.429 . S
C1473 C1474 1.523 . S
C1474 C1455 1.368 . S
C1474 C1468 1.368 . S
C1474 C1473 1.523 . S
C1475 C1459 1.429 . S
C1475 C1471 1.429 . S
C1475 C1476 1.523 . S
C1476 C1460 1.368 . S
C1476 C1472 1.368 . S
C1476 C1475 1.523 . S
H1477 C1452 0.950 . S
H1478 C1454 0.950 . S
H1479 C1455 0.949 . S
H1480 C1457 0.950 . S
H1481 C1459 0.950 . S
C1482 C1483 1.349 . S
C1482 C1484 1.327 . S
C1482 H1507 0.950 . S
C1483 C1482 1.349 . S
C1483 C1499 1.349 . S
C1484 C1482 1.327 . S
C1484 C1503 1.429 . S
C1484 H1508 0.950 . S
C1485 C1502 1.574 . S
C1485 C1504 1.368 . S
C1485 H1509 0.949 . S
H1486 C1490 0.949 . S
C1487 C1488 1.349 . S
C1487 C1489 1.327 . S
C1487 H1510 0.950 . S
C1488 C1487 1.349 . S
C1488 C1500 1.349 . S
C1489 C1487 1.327 . S
C1489 C1505 1.429 . S
C1489 H1511 0.950 . S
C1490 H1486 0.949 . S
C1490 C1498 1.574 . S
C1490 C1506 1.368 . S
H1491 C1499 0.950 . S
H1492 C1497 0.950 . S
H1493 C1498 0.949 . S
H1494 C1500 0.950 . S
H1495 C1501 0.950 . S
H1496 C1502 0.949 . S
C1497 H1492 0.950 . S
C1497 C1499 1.327 . S
C1497 C1503 1.429 . S
C1498 C1490 1.574 . S
C1498 H1493 0.949 . S
C1498 C1504 1.368 . S
C1499 C1483 1.349 . S
C1499 H1491 0.950 . S
C1499 C1497 1.327 . S
C1500 C1488 1.349 . S
C1500 H1494 0.950 . S
C1500 C1501 1.327 . S
C1501 H1495 0.950 . S
C1501 C1500 1.327 . S
C1501 C1505 1.429 . S
C1502 C1485 1.574 . S
C1502 H1496 0.949 . S
C1502 C1506 1.368 . S
C1503 C1484 1.429 . S
C1503 C1497 1.429 . S
C1503 C1504 1.523 . S
C1504 C1485 1.368 . S
C1504 C1498 1.368 . S
C1504 C1503 1.523 . S
C1505 C1489 1.429 . S
C1505 C1501 1.429 . S
C1505 C1506 1.523 . S
C1506 C1490 1.368 . S
C1506 C1502 1.368 . S
C1506 C1505 1.523 . S
H1507 C1482 0.950 . S
H1508 C1484 0.950 . S
H1509 C1485 0.949 . S
H1510 C1487 0.950 . S
H1511 C1489 0.950 . S
C1512 C1513 1.349 . S
C1512 C1514 1.327 . S
C1512 H1537 0.950 . S
C1513 C1512 1.349 . S
C1513 C1529 1.349 . S
C1514 C1512 1.327 . S
C1514 C1533 1.429 . S
C1514 H1538 0.950 . S
C1515 C1532 1.574 . S
C1515 C1534 1.368 . S
C1515 H1539 0.949 . S
H1516 C1520 0.949 . S
C1517 C1518 1.349 . S
C1517 C1519 1.327 . S
C1517 H1540 0.950 . S
C1518 C1517 1.349 . S
C1518 C1530 1.349 . S
C1519 C1517 1.327 . S
C1519 C1535 1.429 . S
C1519 H1541 0.950 . S
C1520 H1516 0.949 . S
C1520 C1528 1.574 . S
C1520 C1536 1.368 . S
H1521 C1529 0.950 . S
H1522 C1527 0.950 . S
H1523 C1528 0.949 . S
H1524 C1530 0.950 . S
H1525 C1531 0.950 . S
H1526 C1532 0.949 . S
C1527 H1522 0.950 . S
C1527 C1529 1.327 . S
C1527 C1533 1.429 . S
C1528 C1520 1.574 . S
C1528 H1523 0.949 . S
C1528 C1534 1.368 . S
C1529 C1513 1.349 . S
C1529 H1521 0.950 . S
C1529 C1527 1.327 . S
C1530 C1518 1.349 . S
C1530 H1524 0.950 . S
C1530 C1531 1.327 . S
C1531 H1525 0.950 . S
C1531 C1530 1.327 . S
C1531 C1535 1.429 . S
C1532 C1515 1.574 . S
C1532 H1526 0.949 . S
C1532 C1536 1.368 . S
C1533 C1514 1.429 . S
C1533 C1527 1.429 . S
C1533 C1534 1.523 . S
C1534 C1515 1.368 . S
C1534 C1528 1.368 . S
C1534 C1533 1.523 . S
C1535 C1519 1.429 . S
C1535 C1531 1.429 . S
C1535 C1536 1.523 . S
C1536 C1520 1.368 . S
C1536 C1532 1.368 . S
C1536 C1535 1.523 . S
H1537 C1512 0.950 . S
H1538 C1514 0.950 . S
H1539 C1515 0.949 . S
H1540 C1517 0.950 . S
H1541 C1519 0.950 . S
C1542 C1543 1.349 . S
C1542 C1544 1.327 . S
C1542 H1567 0.950 . S
C1543 C1542 1.349 . S
C1543 C1559 1.349 . S
C1544 C1542 1.327 . S
C1544 C1563 1.429 . S
C1544 H1568 0.950 . S
C1545 C1562 1.574 . S
C1545 C1564 1.368 . S
C1545 H1569 0.949 . S
H1546 C1550 0.949 . S
C1547 C1548 1.349 . S
C1547 C1549 1.327 . S
C1547 H1570 0.950 . S
C1548 C1547 1.349 . S
C1548 C1560 1.349 . S
C1549 C1547 1.327 . S
C1549 C1565 1.429 . S
C1549 H1571 0.950 . S
C1550 H1546 0.949 . S
C1550 C1558 1.574 . S
C1550 C1566 1.368 . S
H1551 C1559 0.950 . S
H1552 C1557 0.950 . S
H1553 C1558 0.949 . S
H1554 C1560 0.950 . S
H1555 C1561 0.950 . S
H1556 C1562 0.949 . S
C1557 H1552 0.950 . S
C1557 C1559 1.327 . S
C1557 C1563 1.429 . S
C1558 C1550 1.574 . S
C1558 H1553 0.949 . S
C1558 C1564 1.368 . S
C1559 C1543 1.349 . S
C1559 H1551 0.950 . S
C1559 C1557 1.327 . S
C1560 C1548 1.349 . S
C1560 H1554 0.950 . S
C1560 C1561 1.327 . S
C1561 H1555 0.950 . S
C1561 C1560 1.327 . S
C1561 C1565 1.429 . S
C1562 C1545 1.574 . S
C1562 H1556 0.949 . S
C1562 C1566 1.368 . S
C1563 C1544 1.429 . S
C1563 C1557 1.429 . S
C1563 C1564 1.523 . S
C1564 C1545 1.368 . S
C1564 C1558 1.368 . S
C1564 C1563 1.523 . S
C1565 C1549 1.429 . S
C1565 C1561 1.429 . S
C1565 C1566 1.523 . S
C1566 C1550 1.368 . S
C1566 C1562 1.368 . S
C1566 C1565 1.523 . S
H1567 C1542 0.950 . S
H1568 C1544 0.950 . S
H1569 C1545 0.949 . S
H1570 C1547 0.950 . S
H1571 C1549 0.950 . S
C1572 C1573 1.349 . S
C1572 C1574 1.327 . S
C1572 H1597 0.950 . S
C1573 C1572 1.349 . S
C1573 C1589 1.349 . S
C1574 C1572 1.327 . S
C1574 C1593 1.429 . S
C1574 H1598 0.950 . S
C1575 C1592 1.574 . S
C1575 C1594 1.368 . S
C1575 H1599 0.949 . S
H1576 C1580 0.949 . S
C1577 C1578 1.349 . S
C1577 C1579 1.327 . S
C1577 H1600 0.950 . S
C1578 C1577 1.349 . S
C1578 C1590 1.349 . S
C1579 C1577 1.327 . S
C1579 C1595 1.429 . S
C1579 H1601 0.950 . S
C1580 H1576 0.949 . S
C1580 C1588 1.574 . S
C1580 C1596 1.368 . S
H1581 C1589 0.950 . S
H1582 C1587 0.950 . S
H1583 C1588 0.949 . S
H1584 C1590 0.950 . S
H1585 C1591 0.950 . S
H1586 C1592 0.949 . S
C1587 H1582 0.950 . S
C1587 C1589 1.327 . S
C1587 C1593 1.429 . S
C1588 C1580 1.574 . S
C1588 H1583 0.949 . S
C1588 C1594 1.368 . S
C1589 C1573 1.349 . S
C1589 H1581 0.950 . S
C1589 C1587 1.327 . S
C1590 C1578 1.349 . S
C1590 H1584 0.950 . S
C1590 C1591 1.327 . S
C1591 H1585 0.950 . S
C1591 C1590 1.327 . S
C1591 C1595 1.429 . S
C1592 C1575 1.574 . S
C1592 H1586 0.949 . S
C1592 C1596 1.368 . S
C1593 C1574 1.429 . S
C1593 C1587 1.429 . S
C1593 C1594 1.523 . S
C1594 C1575 1.368 . S
C1594 C1588 1.368 . S
C1594 C1593 1.523 . S
C1595 C1579 1.429 . S
C1595 C1591 1.429 . S
C1595 C1596 1.523 . S
C1596 C1580 1.368 . S
C1596 C1592 1.368 . S
C1596 C1595 1.523 . S
H1597 C1572 0.950 . S
H1598 C1574 0.950 . S
H1599 C1575 0.949 . S
H1600 C1577 0.950 . S
H1601 C1579 0.950 . S
C1602 C1603 1.349 . S
C1602 C1604 1.327 . S
C1602 H1627 0.950 . S
C1603 C1602 1.349 . S
C1603 C1619 1.349 . S
C1604 C1602 1.327 . S
C1604 C1623 1.429 . S
C1604 H1628 0.950 . S
C1605 C1622 1.574 . S
C1605 C1624 1.368 . S
C1605 H1629 0.949 . S
H1606 C1610 0.949 . S
C1607 C1608 1.349 . S
C1607 C1609 1.327 . S
C1607 H1630 0.950 . S
C1608 C1607 1.349 . S
C1608 C1620 1.349 . S
C1609 C1607 1.327 . S
C1609 C1625 1.429 . S
C1609 H1631 0.950 . S
C1610 H1606 0.949 . S
C1610 C1618 1.574 . S
C1610 C1626 1.368 . S
H1611 C1619 0.950 . S
H1612 C1617 0.950 . S
H1613 C1618 0.949 . S
H1614 C1620 0.950 . S
H1615 C1621 0.950 . S
H1616 C1622 0.949 . S
C1617 H1612 0.950 . S
C1617 C1619 1.327 . S
C1617 C1623 1.429 . S
C1618 C1610 1.574 . S
C1618 H1613 0.949 . S
C1618 C1624 1.368 . S
C1619 C1603 1.349 . S
C1619 H1611 0.950 . S
C1619 C1617 1.327 . S
C1620 C1608 1.349 . S
C1620 H1614 0.950 . S
C1620 C1621 1.327 . S
C1621 H1615 0.950 . S
C1621 C1620 1.327 . S
C1621 C1625 1.429 . S
C1622 C1605 1.574 . S
C1622 H1616 0.949 . S
C1622 C1626 1.368 . S
C1623 C1604 1.429 . S
C1623 C1617 1.429 . S
C1623 C1624 1.523 . S
C1624 C1605 1.368 . S
C1624 C1618 1.368 . S
C1624 C1623 1.523 . S
C1625 C1609 1.429 . S
C1625 C1621 1.429 . S
C1625 C1626 1.523 . S
C1626 C1610 1.368 . S
C1626 C1622 1.368 . S
C1626 C1625 1.523 . S
H1627 C1602 0.950 . S
H1628 C1604 0.950 . S
H1629 C1605 0.949 . S
H1630 C1607 0.950 . S
H1631 C1609 0.950 . S
C1632 C1633 1.349 . S
C1632 C1634 1.327 . S
C1632 H1657 0.950 . S
C1633 C1632 1.349 . S
C1633 C1649 1.349 . S
C1634 C1632 1.327 . S
C1634 C1653 1.429 . S
C1634 H1658 0.950 . S
C1635 C1652 1.574 . S
C1635 C1654 1.368 . S
C1635 H1659 0.949 . S
H1636 C1640 0.949 . S
C1637 C1638 1.349 . S
C1637 C1639 1.327 . S
C1637 H1660 0.950 . S
C1638 C1637 1.349 . S
C1638 C1650 1.349 . S
C1639 C1637 1.327 . S
C1639 C1655 1.429 . S
C1639 H1661 0.950 . S
C1640 H1636 0.949 . S
C1640 C1648 1.574 . S
C1640 C1656 1.368 . S
H1641 C1649 0.950 . S
H1642 C1647 0.950 . S
H1643 C1648 0.949 . S
H1644 C1650 0.950 . S
H1645 C1651 0.950 . S
H1646 C1652 0.949 . S
C1647 H1642 0.950 . S
C1647 C1649 1.327 . S
C1647 C1653 1.429 . S
C1648 C1640 1.574 . S
C1648 H1643 0.949 . S
C1648 C1654 1.368 . S
C1649 C1633 1.349 . S
C1649 H1641 0.950 . S
C1649 C1647 1.327 . S
C1650 C1638 1.349 . S
C1650 H1644 0.950 . S
C1650 C1651 1.327 . S
C1651 H1645 0.950 . S
C1651 C1650 1.327 . S
C1651 C1655 1.429 . S
C1652 C1635 1.574 . S
C1652 H1646 0.949 . S
C1652 C1656 1.368 . S
C1653 C1634 1.429 . S
C1653 C1647 1.429 . S
C1653 C1654 1.523 . S
C1654 C1635 1.368 . S
C1654 C1648 1.368 . S
C1654 C1653 1.523 . S
C1655 C1639 1.429 . S
C1655 C1651 1.429 . S
C1655 C1656 1.523 . S
C1656 C1640 1.368 . S
C1656 C1652 1.368 . S
C1656 C1655 1.523 . S
H1657 C1632 0.950 . S
H1658 C1634 0.950 . S
H1659 C1635 0.949 . S
H1660 C1637 0.950 . S
H1661 C1639 0.950 . S
C1662 C1663 1.349 . S
C1662 C1664 1.327 . S
C1662 H1687 0.950 . S
C1663 C1662 1.349 . S
C1663 C1679 1.349 . S
C1664 C1662 1.327 . S
C1664 C1683 1.429 . S
C1664 H1688 0.950 . S
C1665 C1682 1.574 . S
C1665 C1684 1.368 . S
C1665 H1689 0.949 . S
H1666 C1670 0.949 . S
C1667 C1668 1.349 . S
C1667 C1669 1.327 . S
C1667 H1690 0.950 . S
C1668 C1667 1.349 . S
C1668 C1680 1.349 . S
C1669 C1667 1.327 . S
C1669 C1685 1.429 . S
C1669 H1691 0.950 . S
C1670 H1666 0.949 . S
C1670 C1678 1.574 . S
C1670 C1686 1.368 . S
H1671 C1679 0.950 . S
H1672 C1677 0.950 . S
H1673 C1678 0.949 . S
H1674 C1680 0.950 . S
H1675 C1681 0.950 . S
H1676 C1682 0.949 . S
C1677 H1672 0.950 . S
C1677 C1679 1.327 . S
C1677 C1683 1.429 . S
C1678 C1670 1.574 . S
C1678 H1673 0.949 . S
C1678 C1684 1.368 . S
C1679 C1663 1.349 . S
C1679 H1671 0.950 . S
C1679 C1677 1.327 . S
C1680 C1668 1.349 . S
C1680 H1674 0.950 . S
C1680 C1681 1.327 . S
C1681 H1675 0.950 . S
C1681 C1680 1.327 . S
C1681 C1685 1.429 . S
C1682 C1665 1.574 . S
C1682 H1676 0.949 . S
C1682 C1686 1.368 . S
C1683 C1664 1.429 . S
C1683 C1677 1.429 . S
C1683 C1684 1.523 . S
C1684 C1665 1.368 . S
C1684 C1678 1.368 . S
C1684 C1683 1.523 . S
C1685 C1669 1.429 . S
C1685 C1681 1.429 . S
C1685 C1686 1.523 . S
C1686 C1670 1.368 . S
C1686 C1682 1.368 . S
C1686 C1685 1.523 . S
H1687 C1662 0.950 . S
H1688 C1664 0.950 . S
H1689 C1665 0.949 . S
H1690 C1667 0.950 . S
H1691 C1669 0.950 . S
C1692 C1693 1.349 . S
C1692 C1694 1.327 . S
C1692 H1717 0.950 . S
C1693 C1692 1.349 . S
C1693 C1709 1.349 . S
C1694 C1692 1.327 . S
C1694 C1713 1.429 . S
C1694 H1718 0.950 . S
C1695 C1712 1.574 . S
C1695 C1714 1.368 . S
C1695 H1719 0.949 . S
H1696 C1700 0.949 . S
C1697 C1698 1.349 . S
C1697 C1699 1.327 . S
C1697 H1720 0.950 . S
C1698 C1697 1.349 . S
C1698 C1710 1.349 . S
C1699 C1697 1.327 . S
C1699 C1715 1.429 . S
C1699 H1721 0.950 . S
C1700 H1696 0.949 . S
C1700 C1708 1.574 . S
C1700 C1716 1.368 . S
H1701 C1709 0.950 . S
H1702 C1707 0.950 . S
H1703 C1708 0.949 . S
H1704 C1710 0.950 . S
H1705 C1711 0.950 . S
H1706 C1712 0.949 . S
C1707 H1702 0.950 . S
C1707 C1709 1.327 . S
C1707 C1713 1.429 . S
C1708 C1700 1.574 . S
C1708 H1703 0.949 . S
C1708 C1714 1.368 . S
C1709 C1693 1.349 . S
C1709 H1701 0.950 . S
C1709 C1707 1.327 . S
C1710 C1698 1.349 . S
C1710 H1704 0.950 . S
C1710 C1711 1.327 . S
C1711 H1705 0.950 . S
C1711 C1710 1.327 . S
C1711 C1715 1.429 . S
C1712 C1695 1.574 . S
C1712 H1706 0.949 . S
C1712 C1716 1.368 . S
C1713 C1694 1.429 . S
C1713 C1707 1.429 . S
C1713 C1714 1.523 . S
C1714 C1695 1.368 . S
C1714 C1708 1.368 . S
C1714 C1713 1.523 . S
C1715 C1699 1.429 . S
C1715 C1711 1.429 . S
C1715 C1716 1.523 . S
C1716 C1700 1.368 . S
C1716 C1712 1.368 . S
C1716 C1715 1.523 . S
H1717 C1692 0.950 . S
H1718 C1694 0.950 . S
H1719 C1695 0.949 . S
H1720 C1697 0.950 . S
H1721 C1699 0.950 . S
C1722 C1723 1.349 . S
C1722 C1724 1.327 . S
C1722 H1747 0.950 . S
C1723 C1722 1.349 . S
C1723 C1739 1.349 . S
C1724 C1722 1.327 . S
C1724 C1743 1.429 . S
C1724 H1748 0.950 . S
C1725 C1742 1.574 . S
C1725 C1744 1.368 . S
C1725 H1749 0.949 . S
H1726 C1730 0.949 . S
C1727 C1728 1.349 . S
C1727 C1729 1.327 . S
C1727 H1750 0.950 . S
C1728 C1727 1.349 . S
C1728 C1740 1.349 . S
C1729 C1727 1.327 . S
C1729 C1745 1.429 . S
C1729 H1751 0.950 . S
C1730 H1726 0.949 . S
C1730 C1738 1.574 . S
C1730 C1746 1.368 . S
H1731 C1739 0.950 . S
H1732 C1737 0.950 . S
H1733 C1738 0.949 . S
H1734 C1740 0.950 . S
H1735 C1741 0.950 . S
H1736 C1742 0.949 . S
C1737 H1732 0.950 . S
C1737 C1739 1.327 . S
C1737 C1743 1.429 . S
C1738 C1730 1.574 . S
C1738 H1733 0.949 . S
C1738 C1744 1.368 . S
C1739 C1723 1.349 . S
C1739 H1731 0.950 . S
C1739 C1737 1.327 . S
C1740 C1728 1.349 . S
C1740 H1734 0.950 . S
C1740 C1741 1.327 . S
C1741 H1735 0.950 . S
C1741 C1740 1.327 . S
C1741 C1745 1.429 . S
C1742 C1725 1.574 . S
C1742 H1736 0.949 . S
C1742 C1746 1.368 . S
C1743 C1724 1.429 . S
C1743 C1737 1.429 . S
C1743 C1744 1.523 . S
C1744 C1725 1.368 . S
C1744 C1738 1.368 . S
C1744 C1743 1.523 . S
C1745 C1729 1.429 . S
C1745 C1741 1.429 . S
C1745 C1746 1.523 . S
C1746 C1730 1.368 . S
C1746 C1742 1.368 . S
C1746 C1745 1.523 . S
H1747 C1722 0.950 . S
H1748 C1724 0.950 . S
H1749 C1725 0.949 . S
H1750 C1727 0.950 . S
H1751 C1729 0.950 . S
C313 C5 1.580 . S
C318 C96 1.580 . S
C343 C109 1.581 . S
C348 C16 1.581 . S
C373 C31 1.581 . S
C378 C120 1.581 . S
C403 C44 1.581 . S
C408 C133 1.581 . S
C433 C148 1.581 . S
C438 C55 1.581 . S
C463 C70 1.580 . S
C468 C81 1.580 . S
C493 C161 1.580 . S
C498 C252 1.580 . S
C523 C172 1.581 . S
C528 C265 1.581 . S
C553 C276 1.581 . S
C558 C185 1.581 . S
C583 C198 1.581 . S
C588 C291 1.581 . S
C613 C211 1.581 . S
C618 C302 1.581 . S
C643 C237 1.580 . S
C648 C224 1.580 . S
C673 C4 1.577 . S
C678 C108 1.577 . S
C703 C127 1.576 . S
C708 C23 1.576 . S
C733 C140 1.576 . S
C738 C30 1.576 . S
C763 C43 1.576 . S
C768 C147 1.576 . S
C793 C62 1.576 . S
C798 C88 1.576 . S
C823 C69 1.576 . S
C828 C95 1.576 . S
C853 C264 1.577 . S
C858 C160 1.577 . S
C883 C179 1.576 . S
C888 C283 1.576 . S
C913 C290 1.576 . S
C918 C192 1.576 . S
C943 C309 1.576 . S
C948 C205 1.576 . S
C973 C244 1.576 . S
C978 C218 1.576 . S
C1003 C231 1.576 . S
C1008 C251 1.576 . S
C1033 C10 1.678 . S
C1038 C199 1.678 . S
C1063 C212 1.678 . S
C1068 C17 1.678 . S
C1093 C225 1.678 . S
C1098 C36 1.678 . S
C1123 C49 1.678 . S
C1128 C166 1.678 . S
C1153 C56 1.678 . S
C1158 C173 1.678 . S
C1183 C186 1.678 . S
C1188 C75 1.678 . S
C1213 C277 1.678 . S
C1218 C82 1.678 . S
C1243 C296 1.678 . S
C1248 C101 1.678 . S
C1273 C303 1.678 . S
C1278 C114 1.678 . S
C1303 C238 1.678 . S
C1308 C121 1.678 . S
C1333 C134 1.678 . S
C1338 C257 1.678 . S
C1363 C153 1.678 . S
C1368 C270 1.678 . S
C1393 C3 1.544 . S
C1398 C135 1.544 . S
C1423 C146 1.544 . S
C1428 C18 1.544 . S
C1453 C83 1.544 . S
C1458 C29 1.544 . S
C1483 C42 1.544 . S
C1488 C94 1.544 . S
C1513 C57 1.544 . S
C1518 C107 1.544 . S
C1543 C68 1.544 . S
C1548 C122 1.544 . S
C1573 C159 1.544 . S
C1578 C289 1.544 . S
C1603 C174 1.544 . S
C1608 C304 1.544 . S
C1633 C187 1.544 . S
C1638 C239 1.544 . S
C1663 C250 1.544 . S
C1668 C200 1.544 . S
C1693 C213 1.544 . S
C1698 C263 1.544 . S
C1723 C226 1.544 . S
C1728 C278 1.544 . S
