# Generated by pormake.
# Topology dia, (4)-cn, num edge types: 1
# Building blocks:
#     Node 0, Type 0, BuildingBlock: UXUYUI_clean_sbu_0, # of connection points: 4
#     Node 1, Type 0, BuildingBlock: UXUYUI_clean_sbu_0, # of connection points: 4
#     Node 2, Type 0, BuildingBlock: UXUYUI_clean_sbu_0, # of connection points: 4
#     Node 3, Type 0, BuildingBlock: UXUYUI_clean_sbu_0, # of connection points: 4
#     Node 4, Type 0, BuildingBlock: UXUYUI_clean_sbu_0, # of connection points: 4
#     Node 5, Type 0, BuildingBlock: UXUYUI_clean_sbu_0, # of connection points: 4
#     Node 6, Type 0, BuildingBlock: UXUYUI_clean_sbu_0, # of connection points: 4
#     Node 7, Type 0, BuildingBlock: UXUYUI_clean_sbu_0, # of connection points: 4
#     Edge 8, Type (0, 0), BuildingBlock: OJICUG_clean_linker_0, # of connection points: 2
#     Edge 9, Type (0, 0), BuildingBlock: OJICUG_clean_linker_0, # of connection points: 2
#     Edge 10, Type (0, 0), BuildingBlock: OJICUG_clean_linker_0, # of connection points: 2
#     Edge 11, Type (0, 0), BuildingBlock: OJICUG_clean_linker_0, # of connection points: 2
#     Edge 12, Type (0, 0), BuildingBlock: OJICUG_clean_linker_0, # of connection points: 2
#     Edge 13, Type (0, 0), BuildingBlock: OJICUG_clean_linker_0, # of connection points: 2
#     Edge 14, Type (0, 0), BuildingBlock: OJICUG_clean_linker_0, # of connection points: 2
#     Edge 15, Type (0, 0), BuildingBlock: OJICUG_clean_linker_0, # of connection points: 2
#     Edge 16, Type (0, 0), BuildingBlock: OJICUG_clean_linker_0, # of connection points: 2
#     Edge 17, Type (0, 0), BuildingBlock: OJICUG_clean_linker_0, # of connection points: 2
#     Edge 18, Type (0, 0), BuildingBlock: OJICUG_clean_linker_0, # of connection points: 2
#     Edge 19, Type (0, 0), BuildingBlock: OJICUG_clean_linker_0, # of connection points: 2
#     Edge 20, Type (0, 0), BuildingBlock: OJICUG_clean_linker_0, # of connection points: 2
#     Edge 21, Type (0, 0), BuildingBlock: OJICUG_clean_linker_0, # of connection points: 2
#     Edge 22, Type (0, 0), BuildingBlock: OJICUG_clean_linker_0, # of connection points: 2
#     Edge 23, Type (0, 0), BuildingBlock: OJICUG_clean_linker_0, # of connection points: 2
# Relax obj value: 0.000
# Max RMSD: 0.003
# Mean RMSD: 0.003
data_MOF--net-dia--node1-UXUYUI_clean_sbu_0--edge1-OJICUG_clean_linker_0
_symmetry_space_group_name_H-M    P1
_symmetry_Int_Tables_number       1
_symmetry_cell_setting            triclinic
loop_
_symmetry_equiv_pos_as_xyz
'x, y, z'
_cell_length_a     41.990511
_cell_length_b     42.067919
_cell_length_c     42.128252
_cell_angle_alpha  89.98017
_cell_angle_beta   90.108688
_cell_angle_gamma 89.944546
loop_
_atom_site_label
_atom_site_type_symbol
_atom_site_fract_x
_atom_site_fract_y
_atom_site_fract_z
_atom_type_partial_charge
Li0 Li 0.12013 0.1533 0.65606 0.0
Li1 Li 0.15868 0.11122 0.65704 0.0
Li2 Li 0.15998 0.15405 0.61393 0.0
Li3 Li 0.11798 0.11128 0.61637 0.0
C4 C 0.17379 0.17969 0.68293 0.0
N5 N 0.18703 0.22485 0.72866 0.0
C6 C 0.16427 0.17485 0.71433 0.0
C7 C 0.19011 0.20745 0.67477 0.0
C8 C 0.17114 0.19799 0.7371 0.0
C9 C 0.19658 0.23001 0.69825 0.0
C10 C 0.10971 0.08454 0.6854 0.0
C11 C 0.11424 0.02959 0.70123 0.0
N12 N 0.10705 0.03792 0.73158 0.0
C13 C 0.10229 0.09254 0.71674 0.0
C14 C 0.11564 0.0528 0.67756 0.0
C15 C 0.10107 0.06862 0.73973 0.0
C16 C 0.06666 0.16952 0.69352 0.0
N17 N 0.09407 0.18135 0.68116 0.0
C18 C 0.0833 0.23235 0.7039 0.0
C19 C 0.10223 0.21236 0.68538 0.0
C20 C 0.05524 0.22058 0.71774 0.0
C21 C 0.04686 0.18873 0.71199 0.0
H22 H 0.06003 0.14514 0.68882 0.0
H23 H 0.1234 0.22169 0.67428 0.0
C24 C 0.20759 0.06588 0.66851 0.0
N25 N 0.18588 0.08504 0.68289 0.0
C26 C 0.22779 0.04659 0.68664 0.0
C27 C 0.20281 0.06694 0.73405 0.0
C28 C 0.18348 0.08611 0.71504 0.0
C29 C 0.22554 0.04685 0.71997 0.0
H30 H 0.20945 0.06578 0.64292 0.0
H31 H 0.1664 0.10168 0.72609 0.0
C32 C 0.08665 0.17627 0.6088 0.0
N33 N 0.03256 0.21363 0.61122 0.0
C34 C 0.05658 0.16214 0.61034 0.0
C35 C 0.08922 0.20939 0.60844 0.0
C36 C 0.02952 0.18145 0.61154 0.0
C37 C 0.06159 0.22787 0.6097 0.0
C38 C 0.16809 0.08679 0.58504 0.0
C39 C 0.1748 0.09913 0.55498 0.0
C40 C 0.1641 0.05403 0.58886 0.0
C41 C 0.17698 0.07847 0.52911 0.0
C42 C 0.1664 0.03417 0.5624 0.0
N43 N 0.17272 0.0467 0.53332 0.0
C44 C 0.21819 0.17608 0.58856 0.0
C45 C 0.17209 0.20031 0.56685 0.0
C46 C 0.23778 0.19453 0.56909 0.0
N47 N 0.18603 0.17938 0.58715 0.0
C48 C 0.19074 0.21947 0.54721 0.0
C49 C 0.22414 0.21678 0.5481 0.0
H50 H 0.22859 0.15901 0.60477 0.0
H51 H 0.14645 0.20214 0.5659 0.0
C52 C 0.07061 0.06464 0.60375 0.0
N53 N 0.09114 0.08555 0.59014 0.0
C54 C 0.051 0.04559 0.58486 0.0
C55 C 0.07361 0.07029 0.53829 0.0
C56 C 0.09253 0.08909 0.55809 0.0
C57 C 0.05252 0.04812 0.55165 0.0
H58 H 0.06928 0.06285 0.62928 0.0
H59 H 0.10831 0.1066 0.54789 0.0
O60 O 0.16723 0.15747 0.66019 0.0
O61 O 0.11129 0.10763 0.66256 0.0
O62 O 0.11343 0.15774 0.60865 0.0
O63 O 0.16551 0.10668 0.61059 0.0
H64 H 0.15099 0.15387 0.72087 0.0
H65 H 0.1976 0.21156 0.65055 0.0
H66 H 0.16369 0.19468 0.76144 0.0
H67 H 0.20914 0.25163 0.69229 0.0
H68 H 0.11891 1.00497 0.69549 0.0
H69 H 0.09805 0.11699 0.72342 0.0
H70 H 0.12143 0.04618 0.65347 0.0
H71 H 0.09554 0.07451 0.7641 0.0
H72 H 0.09086 0.25666 0.70763 0.0
H73 H 0.02504 0.17878 0.72136 0.0
H74 H 0.24528 0.03203 0.67462 0.0
H75 H 0.19968 0.06771 0.75953 0.0
H76 H 0.05416 0.13655 0.611 0.0
H77 H 0.11233 0.22074 0.60786 0.0
H78 H 1.0061 0.17084 0.61287 0.0
H79 H 0.06323 0.25353 0.60968 0.0
H80 H 0.17798 0.12441 0.55158 0.0
H81 H 0.1592 0.04405 0.61199 0.0
H82 H 0.18196 0.08771 0.50568 0.0
H83 H 0.16319 1.00879 0.56498 0.0
H84 H 0.26331 0.19108 0.57027 0.0
H85 H 0.17903 0.23648 0.53183 0.0
H86 H 0.03509 0.0288 0.59614 0.0
H87 H 0.07509 0.07343 0.51281 0.0
Li88 Li 0.87109 0.40502 0.86361 0.0
Li89 Li 0.91082 0.40977 0.90407 0.0
Li90 Li 0.91239 0.36581 0.86131 0.0
Li91 Li 0.87054 0.36674 0.90506 0.0
C92 C 0.91852 0.43769 0.83725 0.0
N93 N 0.91898 0.48873 0.79602 0.0
C94 C 0.9095 0.46784 0.84788 0.0
C95 C 0.92808 0.43351 0.80577 0.0
C96 C 0.90978 0.49333 0.82662 0.0
C97 C 0.92809 0.45962 0.78527 0.0
C98 C 0.85737 0.42125 0.94038 0.0
C99 C 0.86395 0.41113 0.9964 0.0
N100 N 0.8456 0.43693 1.00302 0.0
C101 C 0.83854 0.44766 0.94777 0.0
C102 C 0.87017 0.40287 0.96491 0.0
C103 C 0.83289 0.4552 0.97957 0.0
C104 C 0.82215 0.44921 0.84942 0.0
N105 N 0.84417 0.42978 0.83596 0.0
C106 C 0.82811 0.4464 0.784 0.0
C107 C 0.84738 0.42798 0.80387 0.0
C108 C 0.80539 0.46699 0.79726 0.0
C109 C 0.80249 0.46818 0.83046 0.0
H110 H 0.81983 0.44999 0.87491 0.0
H111 H 0.86504 0.41235 0.79367 0.0
C112 C 0.96756 0.42735 0.93574 0.0
N113 N 0.9373 0.43681 0.92915 0.0
C114 C 0.98731 0.44615 0.95475 0.0
C115 C 0.94471 0.48455 0.95906 0.0
C116 C 0.92578 0.46498 0.94003 0.0
C117 C 0.97589 0.47515 0.96684 0.0
H118 H 0.97631 0.40508 0.92632 0.0
H119 H 0.90184 0.47227 0.93401 0.0
C120 C 0.84201 0.35592 0.83763 0.0
N121 N 0.79312 0.35319 0.79377 0.0
C122 C 0.81071 0.36219 0.84697 0.0
C123 C 0.84844 0.34798 0.80608 0.0
C124 C 0.78633 0.36079 0.8244 0.0
C125 C 0.82338 0.34677 0.78424 0.0
C126 C 0.93333 0.34165 0.92758 0.0
C127 C 0.93977 0.31112 0.91616 0.0
C128 C 0.94328 0.35003 0.95817 0.0
C129 C 0.95557 0.28933 0.93567 0.0
C130 C 0.95902 0.32757 0.97694 0.0
N131 N 0.96477 0.29793 0.96541 0.0
C132 C 0.96755 0.35069 0.82573 0.0
C133 C 0.92815 0.31039 0.82719 0.0
C134 C 0.98691 0.33184 0.80638 0.0
N135 N 0.93882 0.33969 0.83564 0.0
C136 C 0.94684 0.29064 0.80817 0.0
C137 C 0.97662 0.30133 0.79745 0.0
H138 H 0.97538 0.37414 0.83281 0.0
H139 H 0.9051 0.30236 0.83534 0.0
C140 C 0.81517 0.35037 0.93966 0.0
N141 N 0.8447 0.33993 0.93148 0.0
C142 C 0.7954 0.33166 0.95868 0.0
C143 C 0.83669 0.2917 0.96047 0.0
C144 C 0.85554 0.31108 0.94124 0.0
C145 C 0.80609 0.30185 0.96946 0.0
H146 H 0.8069 0.37325 0.93131 0.0
H147 H 0.87874 0.30294 0.93406 0.0
O148 O 0.9179 0.41237 0.85756 0.0
O149 O 0.86346 0.41391 0.90928 0.0
O150 O 0.86625 0.35771 0.85925 0.0
O151 O 0.91825 0.36344 0.90857 0.0
H152 H 0.90192 0.47139 0.87216 0.0
H153 H 0.93508 0.41028 0.79721 0.0
H154 H 0.90262 0.51676 0.83443 0.0
H155 H 0.93525 0.45673 0.76079 0.0
H156 H 0.87368 0.39699 0.01556 0.0
H157 H 0.82861 0.4624 0.92919 0.0
H158 H 0.88448 0.38227 0.95972 0.0
H159 H 0.81844 0.47563 0.98559 0.0
H160 H 0.83136 0.44493 0.75855 0.0
H161 H 0.78499 0.48338 0.84168 0.0
H162 H 1.01136 0.4382 0.95965 0.0
H163 H 0.9348 0.50657 0.96799 0.0
H164 H 0.80539 0.3685 0.87127 0.0
H165 H 0.87257 0.34321 0.79844 0.0
H166 H 0.76202 0.36583 0.83123 0.0
H167 H 0.82802 0.34086 0.75969 0.0
H168 H 0.93224 0.30413 0.89267 0.0
H169 H 0.93905 0.37364 0.96738 0.0
H170 H 0.96046 0.26557 0.92717 0.0
H171 H 0.96674 0.33374 1.00066 0.0
H172 H 1.00982 0.34086 0.79883 0.0
H173 H 0.93787 0.26743 0.80155 0.0
H174 H 0.77183 0.34032 0.96444 0.0
H175 H 0.84619 0.26912 0.96842 0.0
Li176 Li 0.62264 0.15892 0.1555 0.0
Li177 Li 0.66303 0.11683 0.15431 0.0
Li178 Li 0.66145 0.15863 0.11361 0.0
Li179 Li 0.62097 0.11672 0.11527 0.0
C180 C 0.69577 0.18171 0.15968 0.0
N181 N 0.75014 0.21845 0.15565 0.0
C182 C 0.72573 0.16789 0.16412 0.0
C183 C 0.69347 0.21425 0.15324 0.0
C184 C 0.75293 0.18687 0.16202 0.0
C185 C 0.72124 0.2324 0.15124 0.0
C186 C 0.616 0.0929 0.1872 0.0
C187 C 0.62282 0.04083 0.21028 0.0
N188 N 0.6183 0.05347 0.23964 0.0
C189 C 0.6114 0.10536 0.21761 0.0
C190 C 0.62169 0.06036 0.18347 0.0
C191 C 0.61263 0.08503 0.24381 0.0
C192 C 0.56638 0.1755 0.18826 0.0
N193 N 0.59678 0.18485 0.1824 0.0
C194 C 0.58934 0.23187 0.21336 0.0
C195 C 0.60858 0.21227 0.19471 0.0
C196 C 0.5577 0.22298 0.21977 0.0
C197 C 0.54638 0.19421 0.20702 0.0
H198 H 0.55768 0.15346 0.17827 0.0
H199 H 0.63283 0.21912 0.18981 0.0
C200 C 0.70526 0.06545 0.16796 0.0
N201 N 0.68988 0.09096 0.18046 0.0
C202 C 0.72394 0.0459 0.18733 0.0
C203 C 0.71108 0.0796 0.23195 0.0
C204 C 0.69273 0.09852 0.21171 0.0
C205 C 0.72692 0.05275 0.21987 0.0
H206 H 0.70306 0.06026 0.14296 0.0
H207 H 0.68042 0.11912 0.22096 0.0
C208 C 0.5883 0.18155 0.10931 0.0
N209 N 0.53388 0.21833 0.11331 0.0
C210 C 0.55831 0.16761 0.10564 0.0
C211 C 0.59059 0.21423 0.11496 0.0
C212 C 0.53109 0.18661 0.10771 0.0
C213 C 0.5628 0.23239 0.11695 0.0
C214 C 0.66803 0.09238 0.08253 0.0
C215 C 0.67322 0.10459 0.05211 0.0
C216 C 0.66186 0.05995 0.08639 0.0
C217 C 0.67206 0.08412 0.02602 0.0
C218 C 0.66081 0.04029 0.0597 0.0
N219 N 0.6659 0.05268 0.03032 0.0
C220 C 0.71796 0.17553 0.08127 0.0
C221 C 0.67482 0.21093 0.07289 0.0
C222 C 0.73773 0.19416 0.06221 0.0
N223 N 0.6872 0.18427 0.08634 0.0
C224 C 0.69381 0.23042 0.0539 0.0
C225 C 0.72573 0.22213 0.04838 0.0
H226 H 0.72716 0.15415 0.09225 0.0
H227 H 0.65022 0.21715 0.07696 0.0
C228 C 0.57773 0.0661 0.10248 0.0
N229 N 0.59391 0.09083 0.08948 0.0
C230 C 0.55868 0.04663 0.08346 0.0
C231 C 0.5728 0.07882 0.03811 0.0
C232 C 0.59149 0.09771 0.05804 0.0
C233 C 0.55614 0.05275 0.05073 0.0
H234 H 0.57955 0.0615 0.12764 0.0
H235 H 0.60436 0.11776 0.04839 0.0
O236 O 0.66889 0.16338 0.1609 0.0
O237 O 0.61556 0.11252 0.1613 0.0
O238 O 0.6152 0.1632 0.1082 0.0
O239 O 0.66845 0.11214 0.10832 0.0
H240 H 0.72804 0.14273 0.16882 0.0
H241 H 0.67055 0.22525 0.14905 0.0
H242 H 0.77627 0.17647 0.16532 0.0
H243 H 0.71981 0.25753 0.14598 0.0
H244 H 0.62745 0.01566 0.20775 0.0
H245 H 0.60733 0.13051 0.22101 0.0
H246 H 0.62575 0.05036 0.16017 0.0
H247 H 0.60924 0.09437 0.26749 0.0
H248 H 0.59907 0.25398 0.22222 0.0
H249 H 0.52242 0.186 0.2117 0.0
H250 H 0.73618 0.02583 0.17684 0.0
H251 H 0.71242 0.08568 0.25689 0.0
H252 H 0.556 0.14234 0.10158 0.0
H253 H 0.61354 0.22533 0.11855 0.0
H254 H 0.50773 0.17612 0.10502 0.0
H255 H 0.56423 0.25764 0.1216 0.0
H256 H 0.67771 0.12964 0.0486 0.0
H257 H 0.65734 0.05016 0.10969 0.0
H258 H 0.6759 0.09327 1.00234 0.0
H259 H 0.65581 0.01521 0.06232 0.0
H260 H 0.76227 0.18705 0.05875 0.0
H261 H 0.68352 0.25154 0.04333 0.0
H262 H 0.54578 0.02722 0.09437 0.0
H263 H 0.57184 0.08432 0.01302 0.0
Li264 Li 0.90865 0.90436 0.40596 0.0
Li265 Li 0.86922 0.90752 0.36524 0.0
Li266 Li 0.86864 0.86415 0.40854 0.0
Li267 Li 0.91077 0.8654 0.36526 0.0
C268 C 0.85933 0.93552 0.43193 0.0
N269 N 0.85513 0.98612 0.47343 0.0
C270 C 0.86768 0.96606 0.42191 0.0
C271 C 0.84851 0.93072 0.4629 0.0
C272 C 0.86551 0.99133 0.4433 0.0
C273 C 0.84662 0.95662 0.48356 0.0
C274 C 0.92219 0.91895 0.32879 0.0
C275 C 0.91357 0.90813 0.27318 0.0
N276 N 0.93354 0.93237 0.26555 0.0
C277 C 0.94263 0.94377 0.32036 0.0
C278 C 0.90752 0.90102 0.30498 0.0
C279 C 0.94805 0.95018 0.28828 0.0
C280 C 0.95705 0.9493 0.4196 0.0
N281 N 0.93458 0.93053 0.43322 0.0
C282 C 0.94943 0.94896 0.48489 0.0
C283 C 0.93049 0.93006 0.46524 0.0
C284 C 0.97281 0.96874 0.47151 0.0
C285 C 0.97643 0.96873 0.43833 0.0
H286 H 0.95993 0.94919 0.39415 0.0
H287 H 0.91264 0.91478 0.4756 0.0
C288 C 0.81269 0.92417 0.33211 0.0
N289 N 0.84262 0.93393 0.33962 0.0
C290 C 0.79311 0.94309 0.31297 0.0
C291 C 0.83531 0.982 0.31018 0.0
C292 C 0.85402 0.96236 0.32937 0.0
C293 C 0.80439 0.97244 0.30163 0.0
H294 H 0.80403 0.90167 0.34103 0.0
H295 H 0.87774 0.96981 0.33603 0.0
C296 C 0.94107 0.85773 0.43129 0.0
N297 N 0.9932 0.85992 0.47138 0.0
C298 C 0.97144 0.86349 0.41908 0.0
C299 C 0.93723 0.85298 0.46391 0.0
C300 C 0.99749 0.86456 0.43973 0.0
C301 C 0.96389 0.85418 0.48378 0.0
C302 C 0.84862 0.83676 0.34521 0.0
C303 C 0.84551 0.80682 0.35929 0.0
C304 C 0.83582 0.84205 0.31499 0.0
C305 C 0.82995 0.78258 0.34277 0.0
C306 C 0.82043 0.81719 0.29924 0.0
N307 N 0.81784 0.78822 0.31334 0.0
C308 C 0.80983 0.8423 0.43292 0.0
C309 C 0.85513 0.81429 0.4515 0.0
C310 C 0.78974 0.82289 0.4509 0.0
N311 N 0.84185 0.83772 0.43364 0.0
C312 C 0.83603 0.7947 0.47023 0.0
C313 C 0.80275 0.79872 0.47013 0.0
H314 H 0.79991 0.86088 0.41814 0.0
H315 H 0.8806 0.81067 0.45106 0.0
C316 C 0.9657 0.85082 0.32868 0.0
N317 N 0.93713 0.83918 0.33851 0.0
C318 C 0.98552 0.83262 0.30922 0.0
C319 C 0.94625 0.79074 0.31014 0.0
C320 C 0.92736 0.8096 0.32987 0.0
C321 C 0.97577 0.80219 0.2996 0.0
H322 H 0.97315 0.87431 0.33594 0.0
H323 H 0.90506 0.80042 0.33842 0.0
O324 O 0.86165 0.91043 0.4115 0.0
O325 O 0.91643 0.91271 0.3602 0.0
O326 O 0.91524 0.85721 0.41142 0.0
O327 O 0.86325 0.861 0.36129 0.0
H328 H 0.87615 0.97009 0.398 0.0
H329 H 0.84189 0.90718 0.47093 0.0
H330 H 0.87214 0.01506 0.43598 0.0
H331 H 0.83846 0.95327 0.50767 0.0
H332 H 0.9024 0.89434 0.25457 0.0
H333 H 0.95407 0.95809 0.33838 0.0
H334 H 0.89185 0.88168 0.31092 0.0
H335 H 0.96377 0.96935 0.28146 0.0
H336 H 0.94606 0.9477 0.51033 0.0
H337 H 0.9938 0.98384 0.42685 0.0
H338 H 0.76927 0.93497 0.30745 0.0
H339 H 0.84516 1.00424 0.30179 0.0
H340 H 0.97481 0.86754 0.39399 0.0
H341 H 0.91387 0.84913 0.47394 0.0
H342 H 0.02109 0.86918 0.4306 0.0
H343 H 0.96122 0.85078 0.50909 0.0
H344 H 0.8555 0.80215 0.38249 0.0
H345 H 0.83767 0.8651 0.30376 0.0
H346 H 0.82756 0.75926 0.35333 0.0
H347 H 0.81049 0.82094 0.27583 0.0
H348 H 0.76427 0.82659 0.44937 0.0
H349 H 0.84739 0.7768 0.48485 0.0
H350 H 1.00806 0.84239 0.30148 0.0
H351 H 0.93808 0.7672 0.30366 0.0
Li352 Li 0.12048 0.65907 0.15499 0.0
Li353 Li 0.1605 0.61662 0.15406 0.0
Li354 Li 0.15976 0.65856 0.1135 0.0
Li355 Li 0.11883 0.61704 0.1146 0.0
C356 C 0.19365 0.68134 0.16018 0.0
N357 N 0.24818 0.71797 0.15735 0.0
C358 C 0.22346 0.6675 0.16552 0.0
C359 C 0.19158 0.71383 0.15346 0.0
C360 C 0.25074 0.68643 0.16402 0.0
C361 C 0.21942 0.73192 0.15208 0.0
C362 C 0.1129 0.59291 0.18636 0.0
C363 C 0.11936 0.54072 0.20924 0.0
N364 N 0.11411 0.55314 0.23858 0.0
C365 C 0.10757 0.60516 0.21673 0.0
C366 C 0.11878 0.56042 0.18255 0.0
C367 C 0.10825 0.58466 0.24282 0.0
C368 C 0.06413 0.67626 0.18744 0.0
N369 N 0.0947 0.68521 0.1818 0.0
C370 C 0.08789 0.73192 0.21336 0.0
C371 C 0.10686 0.71231 0.19445 0.0
C372 C 0.05615 0.72339 0.21969 0.0
C373 C 0.04439 0.695 0.20646 0.0
H374 H 0.05513 0.65447 0.17718 0.0
H375 H 0.13124 0.71884 0.18973 0.0
C376 C 0.20303 0.5655 0.16747 0.0
N377 N 0.18704 0.59049 0.18024 0.0
C378 C 0.2218 0.54591 0.1867 0.0
C379 C 0.2077 0.57844 0.2318 0.0
C380 C 0.18929 0.59745 0.21168 0.0
C381 C 0.22423 0.55217 0.2194 0.0
H382 H 0.2013 0.56081 0.14232 0.0
H383 H 0.17655 0.61768 0.22115 0.0
C384 C 0.0871 0.68248 0.10856 0.0
N385 N 0.03342 0.72035 0.11217 0.0
C386 C 0.05686 0.66912 0.10479 0.0
C387 C 0.09004 0.71512 0.11411 0.0
C388 C 0.03002 0.68868 0.10666 0.0
C389 C 0.06261 0.73384 0.11591 0.0
C390 C 0.16588 0.59254 0.08212 0.0
C391 C 0.17094 0.60509 0.05182 0.0
C392 C 0.15976 0.56007 0.08567 0.0
C393 C 0.1697 0.5849 0.02552 0.0
C394 C 0.15863 0.5407 0.05877 0.0
N395 N 0.16359 0.55341 0.0295 0.0
C396 C 0.21709 0.67529 0.08267 0.0
C397 C 0.17395 0.71004 0.07197 0.0
C398 C 0.23735 0.69365 0.06386 0.0
N399 N 0.18612 0.68387 0.08653 0.0
C400 C 0.19338 0.72916 0.05304 0.0
C401 C 0.22561 0.72112 0.0488 0.0
H402 H 0.22605 0.65417 0.09432 0.0
H403 H 0.14921 0.71621 0.0752 0.0
C404 C 0.07613 0.56619 0.10072 0.0
N405 N 0.09182 0.59154 0.08833 0.0
C406 C 0.05721 0.547 0.08129 0.0
C407 C 0.0704 0.58077 0.03681 0.0
C408 C 0.08905 0.59929 0.05711 0.0
C409 C 0.05425 0.55409 0.04879 0.0
H410 H 0.07825 0.56085 0.12571 0.0
H411 H 0.10161 0.61975 0.04794 0.0
O412 O 0.16671 0.66307 0.16087 0.0
O413 O 0.11291 0.6127 0.16057 0.0
O414 O 0.11363 0.6636 0.10763 0.0
O415 O 0.16631 0.61203 0.10811 0.0
H416 H 0.2256 0.64238 0.17048 0.0
H417 H 0.1688 0.72484 0.1486 0.0
H418 H 0.27397 0.67601 0.16801 0.0
H419 H 0.21818 0.75702 0.14662 0.0
H420 H 0.12412 0.51558 0.20666 0.0
H421 H 0.10333 0.63027 0.22021 0.0
H422 H 0.12345 0.5506 0.1593 0.0
H423 H 0.10428 0.59383 0.26647 0.0
H424 H 0.09796 0.75374 0.22255 0.0
H425 H 0.02032 0.68706 0.21104 0.0
H426 H 0.23459 0.52632 0.17596 0.0
H427 H 0.20858 0.58405 0.25687 0.0
H428 H 0.05409 0.64389 0.1008 0.0
H429 H 0.1132 0.72577 0.11771 0.0
H430 H 1.00647 0.67864 0.1039 0.0
H431 H 0.06452 0.75908 0.12046 0.0
H432 H 0.17542 0.63019 0.04857 0.0
H433 H 0.15537 0.55002 0.10889 0.0
H434 H 0.17345 0.59431 1.00192 0.0
H435 H 0.15367 0.51558 0.06114 0.0
H436 H 0.26184 0.68618 0.0609 0.0
H437 H 0.18331 0.75026 0.04223 0.0
H438 H 0.04473 0.52704 0.09169 0.0
H439 H 0.06906 0.587 0.0119 0.0
Li440 Li 0.36795 0.40677 0.36318 0.0
Li441 Li 0.40746 0.40299 0.40392 0.0
Li442 Li 0.4096 0.36492 0.36246 0.0
Li443 Li 0.36746 0.36258 0.40569 0.0
C444 C 0.42104 0.4198 0.32727 0.0
N445 N 0.43233 0.43591 0.26465 0.0
C446 C 0.4397 0.44631 0.31991 0.0
C447 C 0.40809 0.40159 0.30272 0.0
C448 C 0.44513 0.45406 0.28813 0.0
C449 C 0.41409 0.41005 0.27124 0.0
C450 C 0.3582 0.43322 0.43084 0.0
C451 C 0.34592 0.45253 0.48327 0.0
N452 N 0.35427 0.48237 0.47405 0.0
C453 C 0.36638 0.4641 0.42177 0.0
C454 C 0.34768 0.42734 0.46173 0.0
C455 C 0.36435 0.48862 0.44403 0.0
C456 C 0.31162 0.42308 0.32977 0.0
N457 N 0.34117 0.43338 0.33799 0.0
C458 C 0.33308 0.48203 0.30973 0.0
C459 C 0.352 0.46235 0.32869 0.0
C460 C 0.30255 0.47191 0.30043 0.0
C461 C 0.29185 0.442 0.31084 0.0
H462 H 0.30341 0.40013 0.33793 0.0
H463 H 0.37542 0.47019 0.33591 0.0
C464 C 0.45603 0.44733 0.4182 0.0
N465 N 0.43353 0.42847 0.43164 0.0
C466 C 0.47567 0.46628 0.43712 0.0
C467 C 0.44892 0.44581 0.48353 0.0
C468 C 0.42972 0.42736 0.46367 0.0
C469 C 0.47229 0.4657 0.47032 0.0
H470 H 0.45876 0.44763 0.39273 0.0
H471 H 0.41193 0.41193 0.47389 0.0
C472 C 0.34824 0.33678 0.34061 0.0
N473 N 0.31931 0.28958 0.30519 0.0
C474 C 0.34387 0.30647 0.3535 0.0
C475 C 0.3375 0.34316 0.30981 0.0
C476 C 0.32931 0.28291 0.33519 0.0
C477 C 0.32305 0.31895 0.29226 0.0
C478 C 0.43937 0.35557 0.42874 0.0
C479 C 0.46997 0.36189 0.41741 0.0
C480 C 0.43484 0.3494 0.46103 0.0
C481 C 0.49557 0.36217 0.43864 0.0
C482 C 0.46106 0.34984 0.48149 0.0
N483 N 0.49062 0.35619 0.46998 0.0
C484 C 0.46487 0.3509 0.32623 0.0
C485 C 0.42697 0.30927 0.32746 0.0
C486 C 0.48508 0.33272 0.30714 0.0
N487 N 0.43632 0.33904 0.33585 0.0
C488 C 0.44625 0.29042 0.30811 0.0
C489 C 0.47576 0.30209 0.29773 0.0
H490 H 0.47203 0.3745 0.33345 0.0
H491 H 0.40474 0.2999 0.33601 0.0
C492 C 0.30948 0.34214 0.43304 0.0
N493 N 0.34111 0.33571 0.43066 0.0
C494 C 0.28984 0.32279 0.45158 0.0
C495 C 0.33577 0.29071 0.4649 0.0
C496 C 0.35441 0.31043 0.44582 0.0
C497 C 0.30304 0.29682 0.468 0.0
H498 H 0.29957 0.36238 0.42062 0.0
H499 H 0.37951 0.30549 0.44296 0.0
O500 O 0.41508 0.41233 0.35836 0.0
O501 O 0.36039 0.40883 0.40955 0.0
O502 O 0.36205 0.3603 0.3584 0.0
O503 O 0.41397 0.35582 0.40836 0.0
H504 H 0.44969 0.46095 0.33852 0.0
H505 H 0.39381 0.38098 0.30788 0.0
H506 H 0.45946 0.47454 0.28213 0.0
H507 H 0.40427 0.39605 0.25206 0.0
H508 H 0.33799 0.44834 0.50732 0.0
H509 H 0.37461 0.46896 0.39793 0.0
H510 H 0.3412 0.40353 0.46903 0.0
H511 H 0.37085 0.51261 0.43744 0.0
H512 H 0.34248 0.50472 0.30208 0.0
H513 H 0.26831 0.43344 0.30473 0.0
H514 H 0.49305 0.48149 0.42579 0.0
H515 H 0.44575 0.44412 0.50897 0.0
H516 H 0.35209 0.30101 0.37721 0.0
H517 H 0.34015 0.36656 0.29952 0.0
H518 H 0.32601 0.25929 0.34481 0.0
H519 H 0.31474 0.32356 0.26837 0.0
H520 H 0.47385 0.36699 0.39257 0.0
H521 H 0.41127 0.34494 0.47033 0.0
H522 H 0.51935 0.36723 0.43023 0.0
H523 H 0.45787 0.34533 0.50657 0.0
H524 H 0.5076 0.34265 0.29955 0.0
H525 H 0.43843 0.2667 0.30185 0.0
H526 H 0.26474 0.32838 0.4535 0.0
H527 H 0.34676 0.27066 0.47679 0.0
Li528 Li 0.3736 0.90478 0.86368 0.0
Li529 Li 0.41384 0.90657 0.90632 0.0
Li530 Li 0.414 0.86384 0.86448 0.0
Li531 Li 0.37404 0.86284 0.90693 0.0
C532 C 0.42422 0.93447 0.83835 0.0
N533 N 0.4303 0.98369 0.79534 0.0
C534 C 0.43513 0.9642 0.8484 0.0
C535 C 0.41674 0.92968 0.80636 0.0
C536 C 0.43797 0.9888 0.8263 0.0
C537 C 0.41986 0.95489 0.78501 0.0
C538 C 0.35442 0.92718 0.93437 0.0
C539 C 0.34066 0.93326 0.98962 0.0
N540 N 0.32911 0.96282 0.98336 0.0
C541 C 0.34197 0.95744 0.92842 0.0
C542 C 0.3534 0.91483 0.96516 0.0
C543 C 0.32947 0.97516 0.95352 0.0
C544 C 0.324 0.91645 0.81934 0.0
N545 N 0.3467 0.9306 0.83751 0.0
C546 C 0.33151 0.98185 0.81809 0.0
C547 C 0.35051 0.96268 0.83746 0.0
C548 C 0.30778 0.96801 0.79898 0.0
C549 C 0.30414 0.93477 0.7999 0.0
H550 H 0.32115 0.89092 0.82011 0.0
H551 H 0.36846 0.97344 0.85238 0.0
C552 C 0.46916 0.92347 0.94077 0.0
N553 N 0.43969 0.93376 0.93209 0.0
C554 C 0.48868 0.94242 0.95986 0.0
C555 C 0.44752 0.98259 0.96011 0.0
C556 C 0.42884 0.96287 0.941 0.0
C557 C 0.47788 0.97242 0.96994 0.0
H558 H 0.47751 0.90048 0.93285 0.0
H559 H 0.40578 0.97097 0.93309 0.0
C560 C 0.36499 0.83312 0.83981 0.0
N561 N 0.36272 0.78228 0.7984 0.0
C562 C 0.3591 0.80251 0.85125 0.0
C563 C 0.36935 0.83796 0.80729 0.0
C564 C 0.35812 0.77709 0.82993 0.0
C565 C 0.36825 0.81192 0.78674 0.0
C566 C 0.43207 0.84589 0.93829 0.0
C567 C 0.44833 0.8169 0.93702 0.0
C568 C 0.42744 0.86077 0.96756 0.0
C569 C 0.45913 0.80299 0.96518 0.0
C570 C 0.43864 0.84613 0.99518 0.0
N571 N 0.45408 0.81776 0.99344 0.0
C572 C 0.45809 0.84994 0.81528 0.0
C573 C 0.4406 0.80523 0.84463 0.0
C574 C 0.47683 0.83054 0.79592 0.0
N575 N 0.44032 0.83704 0.83892 0.0
C576 C 0.45902 0.78494 0.8259 0.0
C577 C 0.47742 0.79753 0.80107 0.0
H578 H 0.45782 0.87532 0.81147 0.0
H579 H 0.42625 0.79556 0.86359 0.0
C580 C 0.31742 0.84623 0.93851 0.0
N581 N 0.34785 0.8366 0.93314 0.0
C582 C 0.2971 0.82794 0.95734 0.0
C583 C 0.33969 0.78992 0.96451 0.0
C584 C 0.35911 0.80887 0.94541 0.0
C585 C 0.30821 0.79939 0.97072 0.0
H586 H 0.30895 0.86822 0.92818 0.0
H587 H 0.38302 0.80116 0.94004 0.0
O588 O 0.42102 0.9102 0.85972 0.0
O589 O 0.36663 0.90947 0.90997 0.0
O590 O 0.36665 0.8582 0.86038 0.0
O591 O 0.42126 0.85975 0.9109 0.0
H592 H 0.44122 0.96828 0.87302 0.0
H593 H 0.40831 0.90683 0.79817 0.0
H594 H 0.44624 0.01197 0.83378 0.0
H595 H 0.41392 0.95158 0.76023 0.0
H596 H 0.33982 0.924 0.01356 0.0
H597 H 0.34217 0.96726 0.90472 0.0
H598 H 0.36194 0.89112 0.97014 0.0
H599 H 0.32001 0.99871 0.94927 0.0
H600 H 0.33568 1.00724 0.81795 0.0
H601 H 0.28584 0.92297 0.78615 0.0
H602 H 0.51213 0.93382 0.9663 0.0
H603 H 0.43809 1.00541 0.96738 0.0
H604 H 0.35562 0.79837 0.87634 0.0
H605 H 0.37375 0.86152 0.79804 0.0
H606 H 0.35378 0.75323 0.83847 0.0
H607 H 0.3718 0.81527 0.76154 0.0
H608 H 0.45247 0.80519 0.91457 0.0
H609 H 0.41577 0.88359 0.96894 0.0
H610 H 0.47157 0.78047 0.96455 0.0
H611 H 0.43518 0.85741 0.01799 0.0
H612 H 0.49101 0.84134 0.77739 0.0
H613 H 0.45847 0.75962 0.83052 0.0
H614 H 0.27308 0.83623 0.96166 0.0
H615 H 0.34903 0.76779 0.97383 0.0
Li616 Li 0.61857 0.65189 0.65574 0.0
Li617 Li 0.65916 0.60997 0.65337 0.0
Li618 Li 0.65755 0.65287 0.61126 0.0
Li619 Li 0.61796 0.60949 0.61328 0.0
C620 C 0.67686 0.6829 0.67317 0.0
N621 N 0.69972 0.73613 0.70415 0.0
C622 C 0.69099 0.68005 0.70311 0.0
C623 C 0.67493 0.71276 0.65874 0.0
C624 C 0.70222 0.70726 0.71847 0.0
C625 C 0.68648 0.7394 0.67484 0.0
C626 C 0.61058 0.58345 0.68387 0.0
C627 C 0.61626 0.5297 0.70299 0.0
N628 N 0.60851 0.53966 0.7327 0.0
C629 C 0.60244 0.59313 0.71453 0.0
C630 C 0.61731 0.55145 0.67796 0.0
C631 C 0.6016 0.57063 0.73892 0.0
C632 C 0.56316 0.6859 0.673 0.0
N633 N 0.59281 0.67754 0.68301 0.0
C634 C 0.58535 0.70588 0.73165 0.0
C635 C 0.60394 0.68672 0.71192 0.0
C636 C 0.55492 0.71558 0.72161 0.0
C637 C 0.54382 0.70517 0.69189 0.0
H638 H 0.55454 0.67764 0.65025 0.0
H639 H 0.62716 0.67901 0.7198 0.0
C640 C 0.70666 0.56321 0.66525 0.0
N641 N 0.68653 0.58432 0.67915 0.0
C642 C 0.72636 0.5439 0.68386 0.0
C643 C 0.70435 0.56853 0.73076 0.0
C644 C 0.68524 0.58745 0.71124 0.0
C645 C 0.72533 0.54633 0.71715 0.0
H646 H 0.70751 0.56141 0.63967 0.0
H647 H 0.6691 0.60449 0.72172 0.0
C648 C 0.59655 0.68114 0.59408 0.0
N649 N 0.56886 0.73216 0.56317 0.0
C650 C 0.58004 0.67653 0.56561 0.0
C651 C 0.59864 0.71167 0.607 0.0
C652 C 0.56631 0.70263 0.55028 0.0
C653 C 0.58456 0.73716 0.59099 0.0
C654 C 0.66781 0.58624 0.58137 0.0
C655 C 0.67535 0.59835 0.55142 0.0
C656 C 0.6629 0.55361 0.58519 0.0
C657 C 0.67746 0.57758 0.52563 0.0
C658 C 0.66516 0.53364 0.5588 0.0
N659 N 0.67231 0.54594 0.52981 0.0
C660 C 0.71478 0.6805 0.59065 0.0
C661 C 0.67005 0.69641 0.56015 0.0
C662 C 0.73486 0.69948 0.57221 0.0
N663 N 0.683 0.67942 0.58445 0.0
C664 C 0.68915 0.71609 0.54147 0.0
C665 C 0.72198 0.71777 0.54742 0.0
H666 H 0.72448 0.66663 0.61002 0.0
H667 H 0.64498 0.69468 0.55499 0.0
C668 C 0.57089 0.56257 0.6016 0.0
N669 N 0.59114 0.5834 0.58747 0.0
C670 C 0.5513 0.54303 0.58319 0.0
C671 C 0.57366 0.56681 0.53602 0.0
C672 C 0.5926 0.58606 0.55533 0.0
C673 C 0.55265 0.5449 0.54992 0.0
H674 H 0.56992 0.56113 0.62719 0.0
H675 H 0.60849 0.60318 0.54467 0.0
O676 O 0.66581 0.65643 0.65781 0.0
O677 O 0.61196 0.6052 0.65979 0.0
O678 O 0.61028 0.65581 0.60924 0.0
O679 O 0.66533 0.60625 0.60682 0.0
H680 H 0.69308 0.6571 0.71449 0.0
H681 H 0.66495 0.71537 0.63525 0.0
H682 H 0.71296 0.70541 0.74176 0.0
H683 H 0.68503 0.76266 0.66397 0.0
H684 H 0.62164 0.5049 0.6988 0.0
H685 H 0.59703 0.61777 0.71949 0.0
H686 H 0.62352 0.54356 0.65434 0.0
H687 H 0.5955 0.57781 0.76281 0.0
H688 H 0.59491 0.71337 0.75433 0.0
H689 H 0.52028 0.71154 0.68346 0.0
H690 H 0.7425 0.52755 0.67226 0.0
H691 H 0.70235 0.571 0.75626 0.0
H692 H 0.57794 0.65307 0.55536 0.0
H693 H 0.61063 0.71564 0.62934 0.0
H694 H 0.55361 0.69941 0.52815 0.0
H695 H 0.58602 0.7609 0.60074 0.0
H696 H 0.6793 0.62353 0.54806 0.0
H697 H 0.65718 0.54385 0.60822 0.0
H698 H 0.68311 0.58663 0.50227 0.0
H699 H 0.66121 0.50836 0.56136 0.0
H700 H 0.76009 0.70024 0.57757 0.0
H701 H 0.67843 0.72949 0.52226 0.0
H702 H 0.53556 0.52635 0.59487 0.0
H703 H 0.57511 0.56938 0.51048 0.0
C704 C 0.2533 0.26518 0.47746 0.0
C705 C 0.28288 0.27629 0.48839 0.0
H706 H 0.21212 0.23699 0.48711 0.0
C707 C 0.29315 0.26761 0.51894 0.0
H708 H 0.24498 0.27116 0.45385 0.0
C709 C 0.27413 0.24843 0.53828 0.0
C710 C 0.24451 0.23713 0.52739 0.0
H711 H 0.31568 0.27614 0.52814 0.0
H712 H 0.28248 0.24294 0.56198 0.0
C713 C 0.23444 0.24568 0.49664 0.0
C714 C 0.75988 0.53827 0.7654 0.0
C715 C 0.74602 0.52598 0.73756 0.0
H716 H 0.78964 0.52947 0.80579 0.0
C717 C 0.752 0.49407 0.72949 0.0
H718 H 0.75631 0.56286 0.77209 0.0
C719 C 0.77131 0.47497 0.74876 0.0
C720 C 0.78498 0.48727 0.77665 0.0
H721 H 0.74133 0.48362 0.70853 0.0
H722 H 0.77509 0.4504 0.74209 0.0
C723 C 0.77905 0.51914 0.78473 0.0
C724 C 0.51779 0.04542 1.00534 0.0
C725 C 0.5362 0.03215 0.02993 0.0
H726 H 0.48544 0.0371 0.96695 0.0
C727 C 0.53539 0.99904 0.0345 0.0
H728 H 0.51754 0.07084 1.00133 0.0
C729 C 0.51658 0.97971 0.01505 0.0
C730 C 0.49813 0.99298 0.99049 0.0
H731 H 0.54955 0.98795 0.05295 0.0
H732 H 0.51623 0.95436 0.01954 0.0
C733 C 0.49903 0.02608 0.98585 0.0
C734 C 0.02907 0.7793 0.28538 0.0
C735 C 0.99638 0.78234 0.27895 0.0
H736 H 0.0733 0.75774 0.27249 0.0
C737 C 0.98345 0.76606 0.25283 0.0
H738 H 0.03962 0.79125 0.3056 0.0
C739 C 1.00281 0.74718 0.23351 0.0
C740 C 0.03554 0.74384 0.24005 0.0
H741 H 0.95839 0.76827 0.24707 0.0
H742 H 0.99213 0.73554 0.2132 0.0
C743 C 0.04838 0.76015 0.26629 0.0
C744 C 0.27723 0.01856 0.78872 0.0
C745 C 0.2868 0.98817 0.77857 0.0
H746 H 0.25148 0.06105 0.77814 0.0
C747 C 0.27614 0.9773 0.74879 0.0
H748 H 0.28447 0.02768 0.81165 0.0
C749 C 0.25631 0.9962 0.72984 0.0
C750 C 0.24683 0.02664 0.73999 0.0
H751 H 0.2833 0.95424 0.7399 0.0
H752 H 0.24813 0.98672 0.70738 0.0
C753 C 0.25775 0.03759 0.76964 0.0
C754 C 0.99616 0.52864 0.98431 0.0
C755 C 0.99627 0.49537 0.98757 0.0
H756 H 1.01402 0.57321 1.00114 0.0
C757 C 0.01578 0.48157 0.011 0.0
H758 H 0.98168 0.54005 0.96631 0.0
C759 C 0.03458 0.50058 0.03078 0.0
C760 C 0.03438 0.53386 0.0276 0.0
H761 H 0.01622 0.45605 0.01438 0.0
H762 H 0.0495 0.48914 0.04841 0.0
C763 C 1.01499 0.54765 1.00406 0.0
C764 C 0.48427 0.26534 0.25161 0.0
C765 C 0.4968 0.28222 0.27755 0.0
H766 H 0.49363 0.23424 0.21259 0.0
C767 C 0.52948 0.2797 0.28428 0.0
H768 H 0.45924 0.26714 0.24562 0.0
C769 C 0.54917 0.26046 0.26566 0.0
C770 C 0.53672 0.24352 0.23963 0.0
H771 H 0.53972 0.29211 0.30437 0.0
H772 H 0.57407 0.25847 0.27207 0.0
C773 C 0.50401 0.24636 0.23278 0.0
C774 C 0.75367 0.78977 0.50349 0.0
C775 C 0.78188 0.77785 0.48988 0.0
H776 H 0.7127 0.78011 0.53222 0.0
C777 C 0.79006 0.74584 0.49551 0.0
H778 H 0.74679 0.81437 0.50033 0.0
C779 C 0.77082 0.72647 0.51444 0.0
C780 C 0.74264 0.73844 0.52775 0.0
H781 H 0.81113 0.73547 0.48496 0.0
H782 H 0.77768 0.70193 0.51821 0.0
C783 C 0.73418 0.77021 0.52197 0.0
C784 C 0.26252 0.54486 0.26486 0.0
C785 C 0.24403 0.53155 0.24038 0.0
H786 H 0.29501 0.5366 0.30317 0.0
C787 C 0.2447 0.4984 0.23604 0.0
H788 H 0.26286 0.5703 0.2687 0.0
C789 C 0.26351 0.47908 0.25557 0.0
C790 C 0.28212 0.49241 0.27995 0.0
H791 H 0.23047 0.48729 0.21768 0.0
H792 H 0.2638 0.45371 0.25123 0.0
C793 C 0.2813 0.52554 0.2844 0.0
C794 C 0.76547 0.29493 0.01288 0.0
C795 C 0.78546 0.28139 0.98974 0.0
H796 H 0.73117 0.28686 0.0496 0.0
C797 C 0.78559 0.24812 0.98617 0.0
H798 H 0.76511 0.32037 0.01674 0.0
C799 C 0.76638 0.22892 1.0053 0.0
C800 C 0.74635 0.24251 0.02826 0.0
H801 H 0.80018 0.23684 0.96825 0.0
H802 H 0.7668 0.20342 1.00172 0.0
C803 C 0.74606 0.27572 0.03181 0.0
C804 C 0.76486 0.97954 0.25717 0.0
C805 C 0.78416 0.99296 0.28097 0.0
H806 H 0.73151 0.98772 0.21955 0.0
C807 C 0.78425 0.02619 0.28465 0.0
H808 H 0.76444 0.95408 0.25345 0.0
C809 C 0.76569 0.04552 0.26492 0.0
C810 C 0.74652 0.03213 0.24102 0.0
H811 H 0.79851 0.03733 0.30296 0.0
H812 H 0.76672 0.07104 0.26816 0.0
C813 C 0.74628 0.99888 0.23745 0.0
C814 C 0.02558 0.99399 0.48469 0.0
C815 C 0.99325 0.98919 0.49201 0.0
H816 H 0.06961 0.01612 0.49783 0.0
C817 C 0.98063 1.00407 0.51914 0.0
H818 H 0.0363 0.9825 0.46434 0.0
C819 C 0.99985 0.02309 0.53849 0.0
C820 C 0.0321 0.02791 0.53108 0.0
H821 H 0.95573 1.00143 0.52523 0.0
H822 H 0.98931 0.03446 0.55901 0.0
C823 C 0.04473 0.01321 0.50392 0.0
C824 C 1.00071 0.24834 0.78423 0.0
C825 C 0.99679 0.28073 0.77705 0.0
H826 H 0.02269 0.20423 0.77174 0.0
C827 C 1.01211 0.29324 0.7502 0.0
H828 H 0.98954 0.2381 0.805 0.0
C829 C 0.03084 0.27375 0.73085 0.0
C830 C 0.03493 0.24132 0.73806 0.0
H831 H 1.00918 0.31802 0.74382 0.0
H832 H 0.04174 0.28406 0.70999 0.0
C833 C 0.01965 0.2289 0.76506 0.0
C834 C 0.5333 0.73145 0.77493 0.0
C835 C 0.53489 0.73642 0.74197 0.0
H836 H 0.51413 0.74687 0.81941 0.0
C837 C 0.51733 0.76157 0.72859 0.0
H838 H 0.54628 0.71211 0.78596 0.0
C839 C 0.49872 0.78136 0.74773 0.0
C840 C 0.49714 0.7764 0.7807 0.0
H841 H 0.51827 0.76624 0.70333 0.0
H842 H 0.48532 0.80037 0.73663 0.0
C843 C 0.51459 0.75117 0.79406 0.0
C844 C 0.23533 0.75527 1.00068 0.0
C845 C 0.2468 0.74123 0.02879 0.0
H846 H 0.2457 0.78432 0.96026 0.0
C847 C 0.27868 0.74659 0.03764 0.0
H848 H 0.2111 0.75124 0.99282 0.0
C849 C 0.29857 0.76539 0.01881 0.0
C850 C 0.28704 0.77945 0.99077 0.0
H851 H 0.28819 0.73664 0.05939 0.0
H852 H 0.32289 0.76933 0.02648 0.0
C853 C 0.25518 0.77421 0.98196 0.0
C854 C 0.48058 0.50053 0.51822 0.0
C855 C 0.49299 0.48571 0.49097 0.0
H856 H 0.48956 0.53096 0.558 0.0
C857 C 0.52531 0.49033 0.48351 0.0
H858 H 0.45571 0.49795 0.52444 0.0
C859 C 0.54462 0.50948 0.50263 0.0
C860 C 0.53217 0.52431 0.5298 0.0
H861 H 0.53585 0.47884 0.46307 0.0
H862 H 0.56946 0.51233 0.49637 0.0
C863 C 0.49997 0.51951 0.53745 0.0
loop_
_geom_bond_atom_site_label_1
_geom_bond_atom_site_label_2
_geom_bond_distance
_geom_bond_site_symmetry_2
_ccdc_geom_bond_type
Li0 N17 1.990 . S
Li0 O60 1.956 . S
Li0 O61 1.970 . S
Li0 O62 1.961 . S
Li1 N25 1.990 . S
Li1 O60 1.970 . S
Li1 O61 1.956 . S
Li1 O63 1.961 . S
Li2 N47 1.990 . S
Li2 O60 1.961 . S
Li2 O62 1.956 . S
Li2 O63 1.970 . S
Li3 N53 1.990 . S
Li3 O61 1.961 . S
Li3 O62 1.970 . S
Li3 O63 1.956 . S
C4 C6 1.348 . S
C4 C7 1.356 . S
C4 O60 1.325 . S
N5 C8 1.314 . S
N5 C9 1.279 . S
C6 C4 1.348 . S
C6 C8 1.353 . S
C6 H64 0.929 . S
C7 C4 1.356 . S
C7 C9 1.358 . S
C7 H65 0.930 . S
C8 N5 1.314 . S
C8 C6 1.353 . S
C8 H66 0.930 . S
C9 N5 1.279 . S
C9 C7 1.358 . S
C9 H67 0.930 . S
C10 C13 1.348 . S
C10 C14 1.356 . S
C10 O61 1.325 . S
C11 N12 1.279 . S
C11 C14 1.358 . S
C11 H68 0.930 . S
N12 C11 1.279 . S
N12 C15 1.314 . S
C13 C10 1.348 . S
C13 C15 1.353 . S
C13 H69 0.929 . S
C14 C10 1.356 . S
C14 C11 1.358 . S
C14 H70 0.930 . S
C15 N12 1.314 . S
C15 C13 1.353 . S
C15 H71 0.930 . S
C16 N17 1.314 . S
C16 C21 1.353 . S
C16 H22 0.930 . S
N17 Li0 1.990 . S
N17 C16 1.314 . S
N17 C19 1.279 . S
C18 C19 1.358 . S
C18 C20 1.356 . S
C18 H72 0.930 . S
C19 N17 1.279 . S
C19 C18 1.358 . S
C19 H23 0.930 . S
C20 C18 1.356 . S
C20 C21 1.348 . S
C21 C16 1.353 . S
C21 C20 1.348 . S
C21 H73 0.929 . S
H22 C16 0.930 . S
H23 C19 0.930 . S
C24 N25 1.314 . S
C24 C26 1.353 . S
C24 H30 0.930 . S
N25 Li1 1.990 . S
N25 C24 1.314 . S
N25 C28 1.279 . S
C26 C24 1.353 . S
C26 C29 1.348 . S
C26 H74 0.929 . S
C27 C28 1.358 . S
C27 C29 1.356 . S
C27 H75 0.930 . S
C28 N25 1.279 . S
C28 C27 1.358 . S
C28 H31 0.930 . S
C29 C26 1.348 . S
C29 C27 1.356 . S
H30 C24 0.930 . S
H31 C28 0.930 . S
C32 C34 1.348 . S
C32 C35 1.356 . S
C32 O62 1.325 . S
N33 C36 1.314 . S
N33 C37 1.279 . S
C34 C32 1.348 . S
C34 C36 1.353 . S
C34 H76 0.929 . S
C35 C32 1.356 . S
C35 C37 1.358 . S
C35 H77 0.930 . S
C36 N33 1.314 . S
C36 C34 1.353 . S
C36 H78 0.930 . S
C37 N33 1.279 . S
C37 C35 1.358 . S
C37 H79 0.930 . S
C38 C39 1.348 . S
C38 C40 1.356 . S
C38 O63 1.325 . S
C39 C38 1.348 . S
C39 C41 1.353 . S
C39 H80 0.929 . S
C40 C38 1.356 . S
C40 C42 1.358 . S
C40 H81 0.930 . S
C41 C39 1.353 . S
C41 N43 1.314 . S
C41 H82 0.930 . S
C42 C40 1.358 . S
C42 N43 1.279 . S
C42 H83 0.930 . S
N43 C41 1.314 . S
N43 C42 1.279 . S
C44 C46 1.353 . S
C44 N47 1.314 . S
C44 H50 0.930 . S
C45 N47 1.279 . S
C45 C48 1.358 . S
C45 H51 0.930 . S
C46 C44 1.353 . S
C46 C49 1.348 . S
C46 H84 0.929 . S
N47 Li2 1.990 . S
N47 C44 1.314 . S
N47 C45 1.279 . S
C48 C45 1.358 . S
C48 C49 1.356 . S
C48 H85 0.930 . S
C49 C46 1.348 . S
C49 C48 1.356 . S
H50 C44 0.930 . S
H51 C45 0.930 . S
C52 N53 1.314 . S
C52 C54 1.353 . S
C52 H58 0.930 . S
N53 Li3 1.990 . S
N53 C52 1.314 . S
N53 C56 1.279 . S
C54 C52 1.353 . S
C54 C57 1.348 . S
C54 H86 0.929 . S
C55 C56 1.358 . S
C55 C57 1.356 . S
C55 H87 0.930 . S
C56 N53 1.279 . S
C56 C55 1.358 . S
C56 H59 0.930 . S
C57 C54 1.348 . S
C57 C55 1.356 . S
H58 C52 0.930 . S
H59 C56 0.930 . S
O60 Li0 1.956 . S
O60 Li1 1.970 . S
O60 Li2 1.961 . S
O60 C4 1.325 . S
O61 Li0 1.970 . S
O61 Li1 1.956 . S
O61 Li3 1.961 . S
O61 C10 1.325 . S
O62 Li0 1.961 . S
O62 Li2 1.956 . S
O62 Li3 1.970 . S
O62 C32 1.325 . S
O63 Li1 1.961 . S
O63 Li2 1.970 . S
O63 Li3 1.956 . S
O63 C38 1.325 . S
H64 C6 0.929 . S
H65 C7 0.930 . S
H66 C8 0.930 . S
H67 C9 0.930 . S
H68 C11 0.930 . S
H69 C13 0.929 . S
H70 C14 0.930 . S
H71 C15 0.930 . S
H72 C18 0.930 . S
H73 C21 0.929 . S
H74 C26 0.929 . S
H75 C27 0.930 . S
H76 C34 0.929 . S
H77 C35 0.930 . S
H78 C36 0.930 . S
H79 C37 0.930 . S
H80 C39 0.929 . S
H81 C40 0.930 . S
H82 C41 0.930 . S
H83 C42 0.930 . S
H84 C46 0.929 . S
H85 C48 0.930 . S
H86 C54 0.929 . S
H87 C55 0.930 . S
Li88 N105 1.990 . S
Li88 O148 1.956 . S
Li88 O149 1.970 . S
Li88 O150 1.961 . S
Li89 N113 1.990 . S
Li89 O148 1.970 . S
Li89 O149 1.956 . S
Li89 O151 1.961 . S
Li90 N135 1.990 . S
Li90 O148 1.961 . S
Li90 O150 1.956 . S
Li90 O151 1.970 . S
Li91 N141 1.990 . S
Li91 O149 1.961 . S
Li91 O150 1.970 . S
Li91 O151 1.956 . S
C92 C94 1.348 . S
C92 C95 1.356 . S
C92 O148 1.325 . S
N93 C96 1.314 . S
N93 C97 1.279 . S
C94 C92 1.348 . S
C94 C96 1.353 . S
C94 H152 0.929 . S
C95 C92 1.356 . S
C95 C97 1.358 . S
C95 H153 0.930 . S
C96 N93 1.314 . S
C96 C94 1.353 . S
C96 H154 0.930 . S
C97 N93 1.279 . S
C97 C95 1.358 . S
C97 H155 0.930 . S
C98 C101 1.348 . S
C98 C102 1.356 . S
C98 O149 1.325 . S
C99 N100 1.279 . S
C99 C102 1.358 . S
C99 H156 0.930 . S
N100 C99 1.279 . S
N100 C103 1.314 . S
C101 C98 1.348 . S
C101 C103 1.353 . S
C101 H157 0.929 . S
C102 C98 1.356 . S
C102 C99 1.358 . S
C102 H158 0.930 . S
C103 N100 1.314 . S
C103 C101 1.353 . S
C103 H159 0.930 . S
C104 N105 1.314 . S
C104 C109 1.353 . S
C104 H110 0.930 . S
N105 Li88 1.990 . S
N105 C104 1.314 . S
N105 C107 1.279 . S
C106 C107 1.358 . S
C106 C108 1.356 . S
C106 H160 0.930 . S
C107 N105 1.279 . S
C107 C106 1.358 . S
C107 H111 0.930 . S
C108 C106 1.356 . S
C108 C109 1.348 . S
C109 C104 1.353 . S
C109 C108 1.348 . S
C109 H161 0.929 . S
H110 C104 0.930 . S
H111 C107 0.930 . S
C112 N113 1.314 . S
C112 C114 1.353 . S
C112 H118 0.930 . S
N113 Li89 1.990 . S
N113 C112 1.314 . S
N113 C116 1.279 . S
C114 C112 1.353 . S
C114 C117 1.348 . S
C114 H162 0.929 . S
C115 C116 1.358 . S
C115 C117 1.356 . S
C115 H163 0.930 . S
C116 N113 1.279 . S
C116 C115 1.358 . S
C116 H119 0.930 . S
C117 C114 1.348 . S
C117 C115 1.356 . S
H118 C112 0.930 . S
H119 C116 0.930 . S
C120 C122 1.348 . S
C120 C123 1.356 . S
C120 O150 1.325 . S
N121 C124 1.314 . S
N121 C125 1.279 . S
C122 C120 1.348 . S
C122 C124 1.353 . S
C122 H164 0.929 . S
C123 C120 1.356 . S
C123 C125 1.358 . S
C123 H165 0.930 . S
C124 N121 1.314 . S
C124 C122 1.353 . S
C124 H166 0.930 . S
C125 N121 1.279 . S
C125 C123 1.358 . S
C125 H167 0.930 . S
C126 C127 1.348 . S
C126 C128 1.356 . S
C126 O151 1.325 . S
C127 C126 1.348 . S
C127 C129 1.353 . S
C127 H168 0.929 . S
C128 C126 1.356 . S
C128 C130 1.358 . S
C128 H169 0.930 . S
C129 C127 1.353 . S
C129 N131 1.314 . S
C129 H170 0.930 . S
C130 C128 1.358 . S
C130 N131 1.279 . S
C130 H171 0.930 . S
N131 C129 1.314 . S
N131 C130 1.279 . S
C132 C134 1.353 . S
C132 N135 1.314 . S
C132 H138 0.930 . S
C133 N135 1.279 . S
C133 C136 1.358 . S
C133 H139 0.930 . S
C134 C132 1.353 . S
C134 C137 1.348 . S
C134 H172 0.929 . S
N135 Li90 1.990 . S
N135 C132 1.314 . S
N135 C133 1.279 . S
C136 C133 1.358 . S
C136 C137 1.356 . S
C136 H173 0.930 . S
C137 C134 1.348 . S
C137 C136 1.356 . S
H138 C132 0.930 . S
H139 C133 0.930 . S
C140 N141 1.314 . S
C140 C142 1.353 . S
C140 H146 0.930 . S
N141 Li91 1.990 . S
N141 C140 1.314 . S
N141 C144 1.279 . S
C142 C140 1.353 . S
C142 C145 1.348 . S
C142 H174 0.929 . S
C143 C144 1.358 . S
C143 C145 1.356 . S
C143 H175 0.930 . S
C144 N141 1.279 . S
C144 C143 1.358 . S
C144 H147 0.930 . S
C145 C142 1.348 . S
C145 C143 1.356 . S
H146 C140 0.930 . S
H147 C144 0.930 . S
O148 Li88 1.956 . S
O148 Li89 1.970 . S
O148 Li90 1.961 . S
O148 C92 1.325 . S
O149 Li88 1.970 . S
O149 Li89 1.956 . S
O149 Li91 1.961 . S
O149 C98 1.325 . S
O150 Li88 1.961 . S
O150 Li90 1.956 . S
O150 Li91 1.970 . S
O150 C120 1.325 . S
O151 Li89 1.961 . S
O151 Li90 1.970 . S
O151 Li91 1.956 . S
O151 C126 1.325 . S
H152 C94 0.929 . S
H153 C95 0.930 . S
H154 C96 0.930 . S
H155 C97 0.930 . S
H156 C99 0.930 . S
H157 C101 0.929 . S
H158 C102 0.930 . S
H159 C103 0.930 . S
H160 C106 0.930 . S
H161 C109 0.929 . S
H162 C114 0.929 . S
H163 C115 0.930 . S
H164 C122 0.929 . S
H165 C123 0.930 . S
H166 C124 0.930 . S
H167 C125 0.930 . S
H168 C127 0.929 . S
H169 C128 0.930 . S
H170 C129 0.930 . S
H171 C130 0.930 . S
H172 C134 0.929 . S
H173 C136 0.930 . S
H174 C142 0.929 . S
H175 C143 0.930 . S
Li176 N193 1.990 . S
Li176 O236 1.956 . S
Li176 O237 1.970 . S
Li176 O238 1.961 . S
Li177 N201 1.990 . S
Li177 O236 1.970 . S
Li177 O237 1.956 . S
Li177 O239 1.961 . S
Li178 N223 1.990 . S
Li178 O236 1.961 . S
Li178 O238 1.956 . S
Li178 O239 1.970 . S
Li179 N229 1.990 . S
Li179 O237 1.961 . S
Li179 O238 1.970 . S
Li179 O239 1.956 . S
C180 C182 1.348 . S
C180 C183 1.356 . S
C180 O236 1.325 . S
N181 C184 1.314 . S
N181 C185 1.279 . S
C182 C180 1.348 . S
C182 C184 1.353 . S
C182 H240 0.929 . S
C183 C180 1.356 . S
C183 C185 1.358 . S
C183 H241 0.930 . S
C184 N181 1.314 . S
C184 C182 1.353 . S
C184 H242 0.930 . S
C185 N181 1.279 . S
C185 C183 1.358 . S
C185 H243 0.930 . S
C186 C189 1.348 . S
C186 C190 1.356 . S
C186 O237 1.325 . S
C187 N188 1.279 . S
C187 C190 1.358 . S
C187 H244 0.930 . S
N188 C187 1.279 . S
N188 C191 1.314 . S
C189 C186 1.348 . S
C189 C191 1.353 . S
C189 H245 0.929 . S
C190 C186 1.356 . S
C190 C187 1.358 . S
C190 H246 0.930 . S
C191 N188 1.314 . S
C191 C189 1.353 . S
C191 H247 0.930 . S
C192 N193 1.314 . S
C192 C197 1.353 . S
C192 H198 0.930 . S
N193 Li176 1.990 . S
N193 C192 1.314 . S
N193 C195 1.279 . S
C194 C195 1.358 . S
C194 C196 1.356 . S
C194 H248 0.930 . S
C195 N193 1.279 . S
C195 C194 1.358 . S
C195 H199 0.930 . S
C196 C194 1.356 . S
C196 C197 1.348 . S
C197 C192 1.353 . S
C197 C196 1.348 . S
C197 H249 0.929 . S
H198 C192 0.930 . S
H199 C195 0.930 . S
C200 N201 1.314 . S
C200 C202 1.353 . S
C200 H206 0.930 . S
N201 Li177 1.990 . S
N201 C200 1.314 . S
N201 C204 1.279 . S
C202 C200 1.353 . S
C202 C205 1.348 . S
C202 H250 0.929 . S
C203 C204 1.358 . S
C203 C205 1.356 . S
C203 H251 0.930 . S
C204 N201 1.279 . S
C204 C203 1.358 . S
C204 H207 0.930 . S
C205 C202 1.348 . S
C205 C203 1.356 . S
H206 C200 0.930 . S
H207 C204 0.930 . S
C208 C210 1.348 . S
C208 C211 1.356 . S
C208 O238 1.325 . S
N209 C212 1.314 . S
N209 C213 1.279 . S
C210 C208 1.348 . S
C210 C212 1.353 . S
C210 H252 0.929 . S
C211 C208 1.356 . S
C211 C213 1.358 . S
C211 H253 0.930 . S
C212 N209 1.314 . S
C212 C210 1.353 . S
C212 H254 0.930 . S
C213 N209 1.279 . S
C213 C211 1.358 . S
C213 H255 0.930 . S
C214 C215 1.348 . S
C214 C216 1.356 . S
C214 O239 1.325 . S
C215 C214 1.348 . S
C215 C217 1.353 . S
C215 H256 0.929 . S
C216 C214 1.356 . S
C216 C218 1.358 . S
C216 H257 0.930 . S
C217 C215 1.353 . S
C217 N219 1.314 . S
C217 H258 0.930 . S
C218 C216 1.358 . S
C218 N219 1.279 . S
C218 H259 0.930 . S
N219 C217 1.314 . S
N219 C218 1.279 . S
C220 C222 1.353 . S
C220 N223 1.314 . S
C220 H226 0.930 . S
C221 N223 1.279 . S
C221 C224 1.358 . S
C221 H227 0.930 . S
C222 C220 1.353 . S
C222 C225 1.348 . S
C222 H260 0.929 . S
N223 Li178 1.990 . S
N223 C220 1.314 . S
N223 C221 1.279 . S
C224 C221 1.358 . S
C224 C225 1.356 . S
C224 H261 0.930 . S
C225 C222 1.348 . S
C225 C224 1.356 . S
H226 C220 0.930 . S
H227 C221 0.930 . S
C228 N229 1.314 . S
C228 C230 1.353 . S
C228 H234 0.930 . S
N229 Li179 1.990 . S
N229 C228 1.314 . S
N229 C232 1.279 . S
C230 C228 1.353 . S
C230 C233 1.348 . S
C230 H262 0.929 . S
C231 C232 1.358 . S
C231 C233 1.356 . S
C231 H263 0.930 . S
C232 N229 1.279 . S
C232 C231 1.358 . S
C232 H235 0.930 . S
C233 C230 1.348 . S
C233 C231 1.356 . S
H234 C228 0.930 . S
H235 C232 0.930 . S
O236 Li176 1.956 . S
O236 Li177 1.970 . S
O236 Li178 1.961 . S
O236 C180 1.325 . S
O237 Li176 1.970 . S
O237 Li177 1.956 . S
O237 Li179 1.961 . S
O237 C186 1.325 . S
O238 Li176 1.961 . S
O238 Li178 1.956 . S
O238 Li179 1.970 . S
O238 C208 1.325 . S
O239 Li177 1.961 . S
O239 Li178 1.970 . S
O239 Li179 1.956 . S
O239 C214 1.325 . S
H240 C182 0.929 . S
H241 C183 0.930 . S
H242 C184 0.930 . S
H243 C185 0.930 . S
H244 C187 0.930 . S
H245 C189 0.929 . S
H246 C190 0.930 . S
H247 C191 0.930 . S
H248 C194 0.930 . S
H249 C197 0.929 . S
H250 C202 0.929 . S
H251 C203 0.930 . S
H252 C210 0.929 . S
H253 C211 0.930 . S
H254 C212 0.930 . S
H255 C213 0.930 . S
H256 C215 0.929 . S
H257 C216 0.930 . S
H258 C217 0.930 . S
H259 C218 0.930 . S
H260 C222 0.929 . S
H261 C224 0.930 . S
H262 C230 0.929 . S
H263 C231 0.930 . S
Li264 N281 1.990 . S
Li264 O324 1.956 . S
Li264 O325 1.970 . S
Li264 O326 1.961 . S
Li265 N289 1.990 . S
Li265 O324 1.970 . S
Li265 O325 1.956 . S
Li265 O327 1.961 . S
Li266 N311 1.990 . S
Li266 O324 1.961 . S
Li266 O326 1.956 . S
Li266 O327 1.970 . S
Li267 N317 1.990 . S
Li267 O325 1.961 . S
Li267 O326 1.970 . S
Li267 O327 1.956 . S
C268 C270 1.348 . S
C268 C271 1.356 . S
C268 O324 1.325 . S
N269 C272 1.314 . S
N269 C273 1.279 . S
C270 C268 1.348 . S
C270 C272 1.353 . S
C270 H328 0.929 . S
C271 C268 1.356 . S
C271 C273 1.358 . S
C271 H329 0.930 . S
C272 N269 1.314 . S
C272 C270 1.353 . S
C272 H330 0.930 . S
C273 N269 1.279 . S
C273 C271 1.358 . S
C273 H331 0.930 . S
C274 C277 1.348 . S
C274 C278 1.356 . S
C274 O325 1.325 . S
C275 N276 1.279 . S
C275 C278 1.358 . S
C275 H332 0.930 . S
N276 C275 1.279 . S
N276 C279 1.314 . S
C277 C274 1.348 . S
C277 C279 1.353 . S
C277 H333 0.929 . S
C278 C274 1.356 . S
C278 C275 1.358 . S
C278 H334 0.930 . S
C279 N276 1.314 . S
C279 C277 1.353 . S
C279 H335 0.930 . S
C280 N281 1.314 . S
C280 C285 1.353 . S
C280 H286 0.930 . S
N281 Li264 1.990 . S
N281 C280 1.314 . S
N281 C283 1.279 . S
C282 C283 1.358 . S
C282 C284 1.356 . S
C282 H336 0.930 . S
C283 N281 1.279 . S
C283 C282 1.358 . S
C283 H287 0.930 . S
C284 C282 1.356 . S
C284 C285 1.348 . S
C285 C280 1.353 . S
C285 C284 1.348 . S
C285 H337 0.929 . S
H286 C280 0.930 . S
H287 C283 0.930 . S
C288 N289 1.314 . S
C288 C290 1.353 . S
C288 H294 0.930 . S
N289 Li265 1.990 . S
N289 C288 1.314 . S
N289 C292 1.279 . S
C290 C288 1.353 . S
C290 C293 1.348 . S
C290 H338 0.929 . S
C291 C292 1.358 . S
C291 C293 1.356 . S
C291 H339 0.930 . S
C292 N289 1.279 . S
C292 C291 1.358 . S
C292 H295 0.930 . S
C293 C290 1.348 . S
C293 C291 1.356 . S
H294 C288 0.930 . S
H295 C292 0.930 . S
C296 C298 1.348 . S
C296 C299 1.356 . S
C296 O326 1.325 . S
N297 C300 1.314 . S
N297 C301 1.279 . S
C298 C296 1.348 . S
C298 C300 1.353 . S
C298 H340 0.929 . S
C299 C296 1.356 . S
C299 C301 1.358 . S
C299 H341 0.930 . S
C300 N297 1.314 . S
C300 C298 1.353 . S
C300 H342 0.930 . S
C301 N297 1.279 . S
C301 C299 1.358 . S
C301 H343 0.930 . S
C302 C303 1.348 . S
C302 C304 1.356 . S
C302 O327 1.325 . S
C303 C302 1.348 . S
C303 C305 1.353 . S
C303 H344 0.929 . S
C304 C302 1.356 . S
C304 C306 1.358 . S
C304 H345 0.930 . S
C305 C303 1.353 . S
C305 N307 1.314 . S
C305 H346 0.930 . S
C306 C304 1.358 . S
C306 N307 1.279 . S
C306 H347 0.930 . S
N307 C305 1.314 . S
N307 C306 1.279 . S
C308 C310 1.353 . S
C308 N311 1.314 . S
C308 H314 0.930 . S
C309 N311 1.279 . S
C309 C312 1.358 . S
C309 H315 0.930 . S
C310 C308 1.353 . S
C310 C313 1.348 . S
C310 H348 0.929 . S
N311 Li266 1.990 . S
N311 C308 1.314 . S
N311 C309 1.279 . S
C312 C309 1.358 . S
C312 C313 1.356 . S
C312 H349 0.930 . S
C313 C310 1.348 . S
C313 C312 1.356 . S
H314 C308 0.930 . S
H315 C309 0.930 . S
C316 N317 1.314 . S
C316 C318 1.353 . S
C316 H322 0.930 . S
N317 Li267 1.990 . S
N317 C316 1.314 . S
N317 C320 1.279 . S
C318 C316 1.353 . S
C318 C321 1.348 . S
C318 H350 0.929 . S
C319 C320 1.358 . S
C319 C321 1.356 . S
C319 H351 0.930 . S
C320 N317 1.279 . S
C320 C319 1.358 . S
C320 H323 0.930 . S
C321 C318 1.348 . S
C321 C319 1.356 . S
H322 C316 0.930 . S
H323 C320 0.930 . S
O324 Li264 1.956 . S
O324 Li265 1.970 . S
O324 Li266 1.961 . S
O324 C268 1.325 . S
O325 Li264 1.970 . S
O325 Li265 1.956 . S
O325 Li267 1.961 . S
O325 C274 1.325 . S
O326 Li264 1.961 . S
O326 Li266 1.956 . S
O326 Li267 1.970 . S
O326 C296 1.325 . S
O327 Li265 1.961 . S
O327 Li266 1.970 . S
O327 Li267 1.956 . S
O327 C302 1.325 . S
H328 C270 0.929 . S
H329 C271 0.930 . S
H330 C272 0.930 . S
H331 C273 0.930 . S
H332 C275 0.930 . S
H333 C277 0.929 . S
H334 C278 0.930 . S
H335 C279 0.930 . S
H336 C282 0.930 . S
H337 C285 0.929 . S
H338 C290 0.929 . S
H339 C291 0.930 . S
H340 C298 0.929 . S
H341 C299 0.930 . S
H342 C300 0.930 . S
H343 C301 0.930 . S
H344 C303 0.929 . S
H345 C304 0.930 . S
H346 C305 0.930 . S
H347 C306 0.930 . S
H348 C310 0.929 . S
H349 C312 0.930 . S
H350 C318 0.929 . S
H351 C319 0.930 . S
Li352 N369 1.990 . S
Li352 O412 1.956 . S
Li352 O413 1.970 . S
Li352 O414 1.961 . S
Li353 N377 1.990 . S
Li353 O412 1.970 . S
Li353 O413 1.956 . S
Li353 O415 1.961 . S
Li354 N399 1.990 . S
Li354 O412 1.961 . S
Li354 O414 1.956 . S
Li354 O415 1.970 . S
Li355 N405 1.990 . S
Li355 O413 1.961 . S
Li355 O414 1.970 . S
Li355 O415 1.956 . S
C356 C358 1.348 . S
C356 C359 1.356 . S
C356 O412 1.325 . S
N357 C360 1.314 . S
N357 C361 1.279 . S
C358 C356 1.348 . S
C358 C360 1.353 . S
C358 H416 0.929 . S
C359 C356 1.356 . S
C359 C361 1.358 . S
C359 H417 0.930 . S
C360 N357 1.314 . S
C360 C358 1.353 . S
C360 H418 0.930 . S
C361 N357 1.279 . S
C361 C359 1.358 . S
C361 H419 0.930 . S
C362 C365 1.348 . S
C362 C366 1.356 . S
C362 O413 1.325 . S
C363 N364 1.279 . S
C363 C366 1.358 . S
C363 H420 0.930 . S
N364 C363 1.279 . S
N364 C367 1.314 . S
C365 C362 1.348 . S
C365 C367 1.353 . S
C365 H421 0.929 . S
C366 C362 1.356 . S
C366 C363 1.358 . S
C366 H422 0.930 . S
C367 N364 1.314 . S
C367 C365 1.353 . S
C367 H423 0.930 . S
C368 N369 1.314 . S
C368 C373 1.353 . S
C368 H374 0.930 . S
N369 Li352 1.990 . S
N369 C368 1.314 . S
N369 C371 1.279 . S
C370 C371 1.358 . S
C370 C372 1.356 . S
C370 H424 0.930 . S
C371 N369 1.279 . S
C371 C370 1.358 . S
C371 H375 0.930 . S
C372 C370 1.356 . S
C372 C373 1.348 . S
C373 C368 1.353 . S
C373 C372 1.348 . S
C373 H425 0.929 . S
H374 C368 0.930 . S
H375 C371 0.930 . S
C376 N377 1.314 . S
C376 C378 1.353 . S
C376 H382 0.930 . S
N377 Li353 1.990 . S
N377 C376 1.314 . S
N377 C380 1.279 . S
C378 C376 1.353 . S
C378 C381 1.348 . S
C378 H426 0.929 . S
C379 C380 1.358 . S
C379 C381 1.356 . S
C379 H427 0.930 . S
C380 N377 1.279 . S
C380 C379 1.358 . S
C380 H383 0.930 . S
C381 C378 1.348 . S
C381 C379 1.356 . S
H382 C376 0.930 . S
H383 C380 0.930 . S
C384 C386 1.348 . S
C384 C387 1.356 . S
C384 O414 1.325 . S
N385 C388 1.314 . S
N385 C389 1.279 . S
C386 C384 1.348 . S
C386 C388 1.353 . S
C386 H428 0.929 . S
C387 C384 1.356 . S
C387 C389 1.358 . S
C387 H429 0.930 . S
C388 N385 1.314 . S
C388 C386 1.353 . S
C388 H430 0.930 . S
C389 N385 1.279 . S
C389 C387 1.358 . S
C389 H431 0.930 . S
C390 C391 1.348 . S
C390 C392 1.356 . S
C390 O415 1.325 . S
C391 C390 1.348 . S
C391 C393 1.353 . S
C391 H432 0.929 . S
C392 C390 1.356 . S
C392 C394 1.358 . S
C392 H433 0.930 . S
C393 C391 1.353 . S
C393 N395 1.314 . S
C393 H434 0.930 . S
C394 C392 1.358 . S
C394 N395 1.279 . S
C394 H435 0.930 . S
N395 C393 1.314 . S
N395 C394 1.279 . S
C396 C398 1.353 . S
C396 N399 1.314 . S
C396 H402 0.930 . S
C397 N399 1.279 . S
C397 C400 1.358 . S
C397 H403 0.930 . S
C398 C396 1.353 . S
C398 C401 1.348 . S
C398 H436 0.929 . S
N399 Li354 1.990 . S
N399 C396 1.314 . S
N399 C397 1.279 . S
C400 C397 1.358 . S
C400 C401 1.356 . S
C400 H437 0.930 . S
C401 C398 1.348 . S
C401 C400 1.356 . S
H402 C396 0.930 . S
H403 C397 0.930 . S
C404 N405 1.314 . S
C404 C406 1.353 . S
C404 H410 0.930 . S
N405 Li355 1.990 . S
N405 C404 1.314 . S
N405 C408 1.279 . S
C406 C404 1.353 . S
C406 C409 1.348 . S
C406 H438 0.929 . S
C407 C408 1.358 . S
C407 C409 1.356 . S
C407 H439 0.930 . S
C408 N405 1.279 . S
C408 C407 1.358 . S
C408 H411 0.930 . S
C409 C406 1.348 . S
C409 C407 1.356 . S
H410 C404 0.930 . S
H411 C408 0.930 . S
O412 Li352 1.956 . S
O412 Li353 1.970 . S
O412 Li354 1.961 . S
O412 C356 1.325 . S
O413 Li352 1.970 . S
O413 Li353 1.956 . S
O413 Li355 1.961 . S
O413 C362 1.325 . S
O414 Li352 1.961 . S
O414 Li354 1.956 . S
O414 Li355 1.970 . S
O414 C384 1.325 . S
O415 Li353 1.961 . S
O415 Li354 1.970 . S
O415 Li355 1.956 . S
O415 C390 1.325 . S
H416 C358 0.929 . S
H417 C359 0.930 . S
H418 C360 0.930 . S
H419 C361 0.930 . S
H420 C363 0.930 . S
H421 C365 0.929 . S
H422 C366 0.930 . S
H423 C367 0.930 . S
H424 C370 0.930 . S
H425 C373 0.929 . S
H426 C378 0.929 . S
H427 C379 0.930 . S
H428 C386 0.929 . S
H429 C387 0.930 . S
H430 C388 0.930 . S
H431 C389 0.930 . S
H432 C391 0.929 . S
H433 C392 0.930 . S
H434 C393 0.930 . S
H435 C394 0.930 . S
H436 C398 0.929 . S
H437 C400 0.930 . S
H438 C406 0.929 . S
H439 C407 0.930 . S
Li440 N457 1.990 . S
Li440 O500 1.956 . S
Li440 O501 1.970 . S
Li440 O502 1.961 . S
Li441 N465 1.990 . S
Li441 O500 1.970 . S
Li441 O501 1.956 . S
Li441 O503 1.961 . S
Li442 N487 1.990 . S
Li442 O500 1.961 . S
Li442 O502 1.956 . S
Li442 O503 1.970 . S
Li443 N493 1.990 . S
Li443 O501 1.961 . S
Li443 O502 1.970 . S
Li443 O503 1.956 . S
C444 C446 1.348 . S
C444 C447 1.356 . S
C444 O500 1.325 . S
N445 C448 1.314 . S
N445 C449 1.279 . S
C446 C444 1.348 . S
C446 C448 1.353 . S
C446 H504 0.929 . S
C447 C444 1.356 . S
C447 C449 1.358 . S
C447 H505 0.930 . S
C448 N445 1.314 . S
C448 C446 1.353 . S
C448 H506 0.930 . S
C449 N445 1.279 . S
C449 C447 1.358 . S
C449 H507 0.930 . S
C450 C453 1.348 . S
C450 C454 1.356 . S
C450 O501 1.325 . S
C451 N452 1.279 . S
C451 C454 1.358 . S
C451 H508 0.930 . S
N452 C451 1.279 . S
N452 C455 1.314 . S
C453 C450 1.348 . S
C453 C455 1.353 . S
C453 H509 0.929 . S
C454 C450 1.356 . S
C454 C451 1.358 . S
C454 H510 0.930 . S
C455 N452 1.314 . S
C455 C453 1.353 . S
C455 H511 0.930 . S
C456 N457 1.314 . S
C456 C461 1.353 . S
C456 H462 0.930 . S
N457 Li440 1.990 . S
N457 C456 1.314 . S
N457 C459 1.279 . S
C458 C459 1.358 . S
C458 C460 1.356 . S
C458 H512 0.930 . S
C459 N457 1.279 . S
C459 C458 1.358 . S
C459 H463 0.930 . S
C460 C458 1.356 . S
C460 C461 1.348 . S
C461 C456 1.353 . S
C461 C460 1.348 . S
C461 H513 0.929 . S
H462 C456 0.930 . S
H463 C459 0.930 . S
C464 N465 1.314 . S
C464 C466 1.353 . S
C464 H470 0.930 . S
N465 Li441 1.990 . S
N465 C464 1.314 . S
N465 C468 1.279 . S
C466 C464 1.353 . S
C466 C469 1.348 . S
C466 H514 0.929 . S
C467 C468 1.358 . S
C467 C469 1.356 . S
C467 H515 0.930 . S
C468 N465 1.279 . S
C468 C467 1.358 . S
C468 H471 0.930 . S
C469 C466 1.348 . S
C469 C467 1.356 . S
H470 C464 0.930 . S
H471 C468 0.930 . S
C472 C474 1.348 . S
C472 C475 1.356 . S
C472 O502 1.325 . S
N473 C476 1.314 . S
N473 C477 1.279 . S
C474 C472 1.348 . S
C474 C476 1.353 . S
C474 H516 0.929 . S
C475 C472 1.356 . S
C475 C477 1.358 . S
C475 H517 0.930 . S
C476 N473 1.314 . S
C476 C474 1.353 . S
C476 H518 0.930 . S
C477 N473 1.279 . S
C477 C475 1.358 . S
C477 H519 0.930 . S
C478 C479 1.348 . S
C478 C480 1.356 . S
C478 O503 1.325 . S
C479 C478 1.348 . S
C479 C481 1.353 . S
C479 H520 0.929 . S
C480 C478 1.356 . S
C480 C482 1.358 . S
C480 H521 0.930 . S
C481 C479 1.353 . S
C481 N483 1.314 . S
C481 H522 0.930 . S
C482 C480 1.358 . S
C482 N483 1.279 . S
C482 H523 0.930 . S
N483 C481 1.314 . S
N483 C482 1.279 . S
C484 C486 1.353 . S
C484 N487 1.314 . S
C484 H490 0.930 . S
C485 N487 1.279 . S
C485 C488 1.358 . S
C485 H491 0.930 . S
C486 C484 1.353 . S
C486 C489 1.348 . S
C486 H524 0.929 . S
N487 Li442 1.990 . S
N487 C484 1.314 . S
N487 C485 1.279 . S
C488 C485 1.358 . S
C488 C489 1.356 . S
C488 H525 0.930 . S
C489 C486 1.348 . S
C489 C488 1.356 . S
H490 C484 0.930 . S
H491 C485 0.930 . S
C492 N493 1.314 . S
C492 C494 1.353 . S
C492 H498 0.930 . S
N493 Li443 1.990 . S
N493 C492 1.314 . S
N493 C496 1.279 . S
C494 C492 1.353 . S
C494 C497 1.348 . S
C494 H526 0.929 . S
C495 C496 1.358 . S
C495 C497 1.356 . S
C495 H527 0.930 . S
C496 N493 1.279 . S
C496 C495 1.358 . S
C496 H499 0.930 . S
C497 C494 1.348 . S
C497 C495 1.356 . S
H498 C492 0.930 . S
H499 C496 0.930 . S
O500 Li440 1.956 . S
O500 Li441 1.970 . S
O500 Li442 1.961 . S
O500 C444 1.325 . S
O501 Li440 1.970 . S
O501 Li441 1.956 . S
O501 Li443 1.961 . S
O501 C450 1.325 . S
O502 Li440 1.961 . S
O502 Li442 1.956 . S
O502 Li443 1.970 . S
O502 C472 1.325 . S
O503 Li441 1.961 . S
O503 Li442 1.970 . S
O503 Li443 1.956 . S
O503 C478 1.325 . S
H504 C446 0.929 . S
H505 C447 0.930 . S
H506 C448 0.930 . S
H507 C449 0.930 . S
H508 C451 0.930 . S
H509 C453 0.929 . S
H510 C454 0.930 . S
H511 C455 0.930 . S
H512 C458 0.930 . S
H513 C461 0.929 . S
H514 C466 0.929 . S
H515 C467 0.930 . S
H516 C474 0.929 . S
H517 C475 0.930 . S
H518 C476 0.930 . S
H519 C477 0.930 . S
H520 C479 0.929 . S
H521 C480 0.930 . S
H522 C481 0.930 . S
H523 C482 0.930 . S
H524 C486 0.929 . S
H525 C488 0.930 . S
H526 C494 0.929 . S
H527 C495 0.930 . S
Li528 N545 1.990 . S
Li528 O588 1.956 . S
Li528 O589 1.970 . S
Li528 O590 1.961 . S
Li529 N553 1.990 . S
Li529 O588 1.970 . S
Li529 O589 1.956 . S
Li529 O591 1.961 . S
Li530 N575 1.990 . S
Li530 O588 1.961 . S
Li530 O590 1.956 . S
Li530 O591 1.970 . S
Li531 N581 1.990 . S
Li531 O589 1.961 . S
Li531 O590 1.970 . S
Li531 O591 1.956 . S
C532 C534 1.348 . S
C532 C535 1.356 . S
C532 O588 1.325 . S
N533 C536 1.314 . S
N533 C537 1.279 . S
C534 C532 1.348 . S
C534 C536 1.353 . S
C534 H592 0.929 . S
C535 C532 1.356 . S
C535 C537 1.358 . S
C535 H593 0.930 . S
C536 N533 1.314 . S
C536 C534 1.353 . S
C536 H594 0.930 . S
C537 N533 1.279 . S
C537 C535 1.358 . S
C537 H595 0.930 . S
C538 C541 1.348 . S
C538 C542 1.356 . S
C538 O589 1.325 . S
C539 N540 1.279 . S
C539 C542 1.358 . S
C539 H596 0.930 . S
N540 C539 1.279 . S
N540 C543 1.314 . S
C541 C538 1.348 . S
C541 C543 1.353 . S
C541 H597 0.929 . S
C542 C538 1.356 . S
C542 C539 1.358 . S
C542 H598 0.930 . S
C543 N540 1.314 . S
C543 C541 1.353 . S
C543 H599 0.930 . S
C544 N545 1.314 . S
C544 C549 1.353 . S
C544 H550 0.930 . S
N545 Li528 1.990 . S
N545 C544 1.314 . S
N545 C547 1.279 . S
C546 C547 1.358 . S
C546 C548 1.356 . S
C546 H600 0.930 . S
C547 N545 1.279 . S
C547 C546 1.358 . S
C547 H551 0.930 . S
C548 C546 1.356 . S
C548 C549 1.348 . S
C549 C544 1.353 . S
C549 C548 1.348 . S
C549 H601 0.929 . S
H550 C544 0.930 . S
H551 C547 0.930 . S
C552 N553 1.314 . S
C552 C554 1.353 . S
C552 H558 0.930 . S
N553 Li529 1.990 . S
N553 C552 1.314 . S
N553 C556 1.279 . S
C554 C552 1.353 . S
C554 C557 1.348 . S
C554 H602 0.929 . S
C555 C556 1.358 . S
C555 C557 1.356 . S
C555 H603 0.930 . S
C556 N553 1.279 . S
C556 C555 1.358 . S
C556 H559 0.930 . S
C557 C554 1.348 . S
C557 C555 1.356 . S
H558 C552 0.930 . S
H559 C556 0.930 . S
C560 C562 1.348 . S
C560 C563 1.356 . S
C560 O590 1.325 . S
N561 C564 1.314 . S
N561 C565 1.279 . S
C562 C560 1.348 . S
C562 C564 1.353 . S
C562 H604 0.929 . S
C563 C560 1.356 . S
C563 C565 1.358 . S
C563 H605 0.930 . S
C564 N561 1.314 . S
C564 C562 1.353 . S
C564 H606 0.930 . S
C565 N561 1.279 . S
C565 C563 1.358 . S
C565 H607 0.930 . S
C566 C567 1.348 . S
C566 C568 1.356 . S
C566 O591 1.325 . S
C567 C566 1.348 . S
C567 C569 1.353 . S
C567 H608 0.929 . S
C568 C566 1.356 . S
C568 C570 1.358 . S
C568 H609 0.930 . S
C569 C567 1.353 . S
C569 N571 1.314 . S
C569 H610 0.930 . S
C570 C568 1.358 . S
C570 N571 1.279 . S
C570 H611 0.930 . S
N571 C569 1.314 . S
N571 C570 1.279 . S
C572 C574 1.353 . S
C572 N575 1.314 . S
C572 H578 0.930 . S
C573 N575 1.279 . S
C573 C576 1.358 . S
C573 H579 0.930 . S
C574 C572 1.353 . S
C574 C577 1.348 . S
C574 H612 0.929 . S
N575 Li530 1.990 . S
N575 C572 1.314 . S
N575 C573 1.279 . S
C576 C573 1.358 . S
C576 C577 1.356 . S
C576 H613 0.930 . S
C577 C574 1.348 . S
C577 C576 1.356 . S
H578 C572 0.930 . S
H579 C573 0.930 . S
C580 N581 1.314 . S
C580 C582 1.353 . S
C580 H586 0.930 . S
N581 Li531 1.990 . S
N581 C580 1.314 . S
N581 C584 1.279 . S
C582 C580 1.353 . S
C582 C585 1.348 . S
C582 H614 0.929 . S
C583 C584 1.358 . S
C583 C585 1.356 . S
C583 H615 0.930 . S
C584 N581 1.279 . S
C584 C583 1.358 . S
C584 H587 0.930 . S
C585 C582 1.348 . S
C585 C583 1.356 . S
H586 C580 0.930 . S
H587 C584 0.930 . S
O588 Li528 1.956 . S
O588 Li529 1.970 . S
O588 Li530 1.961 . S
O588 C532 1.325 . S
O589 Li528 1.970 . S
O589 Li529 1.956 . S
O589 Li531 1.961 . S
O589 C538 1.325 . S
O590 Li528 1.961 . S
O590 Li530 1.956 . S
O590 Li531 1.970 . S
O590 C560 1.325 . S
O591 Li529 1.961 . S
O591 Li530 1.970 . S
O591 Li531 1.956 . S
O591 C566 1.325 . S
H592 C534 0.929 . S
H593 C535 0.930 . S
H594 C536 0.930 . S
H595 C537 0.930 . S
H596 C539 0.930 . S
H597 C541 0.929 . S
H598 C542 0.930 . S
H599 C543 0.930 . S
H600 C546 0.930 . S
H601 C549 0.929 . S
H602 C554 0.929 . S
H603 C555 0.930 . S
H604 C562 0.929 . S
H605 C563 0.930 . S
H606 C564 0.930 . S
H607 C565 0.930 . S
H608 C567 0.929 . S
H609 C568 0.930 . S
H610 C569 0.930 . S
H611 C570 0.930 . S
H612 C574 0.929 . S
H613 C576 0.930 . S
H614 C582 0.929 . S
H615 C583 0.930 . S
Li616 N633 1.990 . S
Li616 O676 1.956 . S
Li616 O677 1.970 . S
Li616 O678 1.961 . S
Li617 N641 1.990 . S
Li617 O676 1.970 . S
Li617 O677 1.956 . S
Li617 O679 1.961 . S
Li618 N663 1.990 . S
Li618 O676 1.961 . S
Li618 O678 1.956 . S
Li618 O679 1.970 . S
Li619 N669 1.990 . S
Li619 O677 1.961 . S
Li619 O678 1.970 . S
Li619 O679 1.956 . S
C620 C622 1.348 . S
C620 C623 1.356 . S
C620 O676 1.325 . S
N621 C624 1.314 . S
N621 C625 1.279 . S
C622 C620 1.348 . S
C622 C624 1.353 . S
C622 H680 0.929 . S
C623 C620 1.356 . S
C623 C625 1.358 . S
C623 H681 0.930 . S
C624 N621 1.314 . S
C624 C622 1.353 . S
C624 H682 0.930 . S
C625 N621 1.279 . S
C625 C623 1.358 . S
C625 H683 0.930 . S
C626 C629 1.348 . S
C626 C630 1.356 . S
C626 O677 1.325 . S
C627 N628 1.279 . S
C627 C630 1.358 . S
C627 H684 0.930 . S
N628 C627 1.279 . S
N628 C631 1.314 . S
C629 C626 1.348 . S
C629 C631 1.353 . S
C629 H685 0.929 . S
C630 C626 1.356 . S
C630 C627 1.358 . S
C630 H686 0.930 . S
C631 N628 1.314 . S
C631 C629 1.353 . S
C631 H687 0.930 . S
C632 N633 1.314 . S
C632 C637 1.353 . S
C632 H638 0.930 . S
N633 Li616 1.990 . S
N633 C632 1.314 . S
N633 C635 1.279 . S
C634 C635 1.358 . S
C634 C636 1.356 . S
C634 H688 0.930 . S
C635 N633 1.279 . S
C635 C634 1.358 . S
C635 H639 0.930 . S
C636 C634 1.356 . S
C636 C637 1.348 . S
C637 C632 1.353 . S
C637 C636 1.348 . S
C637 H689 0.929 . S
H638 C632 0.930 . S
H639 C635 0.930 . S
C640 N641 1.314 . S
C640 C642 1.353 . S
C640 H646 0.930 . S
N641 Li617 1.990 . S
N641 C640 1.314 . S
N641 C644 1.279 . S
C642 C640 1.353 . S
C642 C645 1.348 . S
C642 H690 0.929 . S
C643 C644 1.358 . S
C643 C645 1.356 . S
C643 H691 0.930 . S
C644 N641 1.279 . S
C644 C643 1.358 . S
C644 H647 0.930 . S
C645 C642 1.348 . S
C645 C643 1.356 . S
H646 C640 0.930 . S
H647 C644 0.930 . S
C648 C650 1.348 . S
C648 C651 1.356 . S
C648 O678 1.325 . S
N649 C652 1.314 . S
N649 C653 1.279 . S
C650 C648 1.348 . S
C650 C652 1.353 . S
C650 H692 0.929 . S
C651 C648 1.356 . S
C651 C653 1.358 . S
C651 H693 0.930 . S
C652 N649 1.314 . S
C652 C650 1.353 . S
C652 H694 0.930 . S
C653 N649 1.279 . S
C653 C651 1.358 . S
C653 H695 0.930 . S
C654 C655 1.348 . S
C654 C656 1.356 . S
C654 O679 1.325 . S
C655 C654 1.348 . S
C655 C657 1.353 . S
C655 H696 0.929 . S
C656 C654 1.356 . S
C656 C658 1.358 . S
C656 H697 0.930 . S
C657 C655 1.353 . S
C657 N659 1.314 . S
C657 H698 0.930 . S
C658 C656 1.358 . S
C658 N659 1.279 . S
C658 H699 0.930 . S
N659 C657 1.314 . S
N659 C658 1.279 . S
C660 C662 1.353 . S
C660 N663 1.314 . S
C660 H666 0.930 . S
C661 N663 1.279 . S
C661 C664 1.358 . S
C661 H667 0.930 . S
C662 C660 1.353 . S
C662 C665 1.348 . S
C662 H700 0.929 . S
N663 Li618 1.990 . S
N663 C660 1.314 . S
N663 C661 1.279 . S
C664 C661 1.358 . S
C664 C665 1.356 . S
C664 H701 0.930 . S
C665 C662 1.348 . S
C665 C664 1.356 . S
H666 C660 0.930 . S
H667 C661 0.930 . S
C668 N669 1.314 . S
C668 C670 1.353 . S
C668 H674 0.930 . S
N669 Li619 1.990 . S
N669 C668 1.314 . S
N669 C672 1.279 . S
C670 C668 1.353 . S
C670 C673 1.348 . S
C670 H702 0.929 . S
C671 C672 1.358 . S
C671 C673 1.356 . S
C671 H703 0.930 . S
C672 N669 1.279 . S
C672 C671 1.358 . S
C672 H675 0.930 . S
C673 C670 1.348 . S
C673 C671 1.356 . S
H674 C668 0.930 . S
H675 C672 0.930 . S
O676 Li616 1.956 . S
O676 Li617 1.970 . S
O676 Li618 1.961 . S
O676 C620 1.325 . S
O677 Li616 1.970 . S
O677 Li617 1.956 . S
O677 Li619 1.961 . S
O677 C626 1.325 . S
O678 Li616 1.961 . S
O678 Li618 1.956 . S
O678 Li619 1.970 . S
O678 C648 1.325 . S
O679 Li617 1.961 . S
O679 Li618 1.970 . S
O679 Li619 1.956 . S
O679 C654 1.325 . S
H680 C622 0.929 . S
H681 C623 0.930 . S
H682 C624 0.930 . S
H683 C625 0.930 . S
H684 C627 0.930 . S
H685 C629 0.929 . S
H686 C630 0.930 . S
H687 C631 0.930 . S
H688 C634 0.930 . S
H689 C637 0.929 . S
H690 C642 0.929 . S
H691 C643 0.930 . S
H692 C650 0.929 . S
H693 C651 0.930 . S
H694 C652 0.930 . S
H695 C653 0.930 . S
H696 C655 0.929 . S
H697 C656 0.930 . S
H698 C657 0.930 . S
H699 C658 0.930 . S
H700 C662 0.929 . S
H701 C664 0.930 . S
H702 C670 0.929 . S
H703 C671 0.930 . S
C704 C705 1.387 . S
C704 H708 0.950 . S
C704 C713 1.390 . S
C705 C704 1.387 . S
C705 C707 1.387 . S
H706 C713 0.950 . S
C707 C705 1.387 . S
C707 C709 1.390 . S
C707 H711 0.950 . S
H708 C704 0.950 . S
C709 C707 1.390 . S
C709 C710 1.387 . S
C709 H712 0.950 . S
C710 C709 1.387 . S
C710 C713 1.387 . S
H711 C707 0.950 . S
H712 C709 0.950 . S
C713 C704 1.390 . S
C713 H706 0.950 . S
C713 C710 1.387 . S
C714 C715 1.387 . S
C714 H718 0.950 . S
C714 C723 1.390 . S
C715 C714 1.387 . S
C715 C717 1.387 . S
H716 C723 0.950 . S
C717 C715 1.387 . S
C717 C719 1.390 . S
C717 H721 0.950 . S
H718 C714 0.950 . S
C719 C717 1.390 . S
C719 C720 1.387 . S
C719 H722 0.950 . S
C720 C719 1.387 . S
C720 C723 1.387 . S
H721 C717 0.950 . S
H722 C719 0.950 . S
C723 C714 1.390 . S
C723 H716 0.950 . S
C723 C720 1.387 . S
C724 C725 1.387 1_556 S
C724 H728 0.950 . S
C724 C733 1.390 . S
C725 C724 1.387 1_554 S
C725 C727 1.387 1_545 S
H726 C733 0.950 . S
C727 C725 1.387 1_565 S
C727 C729 1.390 . S
C727 H731 0.950 . S
H728 C724 0.950 . S
C729 C727 1.390 . S
C729 C730 1.387 1_554 S
C729 H732 0.950 . S
C730 C729 1.387 1_556 S
C730 C733 1.387 1_565 S
H731 C727 0.950 . S
H732 C729 0.950 . S
C733 C724 1.390 . S
C733 H726 0.950 . S
C733 C730 1.387 1_545 S
C734 C735 1.387 . S
C734 H738 0.950 . S
C734 C743 1.390 1_655 S
C735 C734 1.387 . S
C735 C737 1.387 . S
H736 C743 0.950 . S
C737 C735 1.387 . S
C737 C739 1.390 1_655 S
C737 H741 0.950 . S
H738 C734 0.950 . S
C739 C737 1.390 1_455 S
C739 C740 1.387 . S
C739 H742 0.950 . S
C740 C739 1.387 . S
C740 C743 1.387 . S
H741 C737 0.950 . S
H742 C739 0.950 . S
C743 C734 1.390 1_455 S
C743 H736 0.950 . S
C743 C740 1.387 . S
C744 C745 1.387 1_545 S
C744 H748 0.950 . S
C744 C753 1.390 . S
C745 C744 1.387 1_565 S
C745 C747 1.387 . S
H746 C753 0.950 . S
C747 C745 1.387 . S
C747 C749 1.390 . S
C747 H751 0.950 . S
H748 C744 0.950 . S
C749 C747 1.390 . S
C749 C750 1.387 1_565 S
C749 H752 0.950 . S
C750 C749 1.387 1_545 S
C750 C753 1.387 . S
H751 C747 0.950 . S
H752 C749 0.950 . S
C753 C744 1.390 . S
C753 H746 0.950 . S
C753 C750 1.387 . S
C754 C755 1.387 . S
C754 H758 0.950 . S
C754 C763 1.390 1_655 S
C755 C754 1.387 . S
C755 C757 1.387 1_556 S
H756 C763 0.950 . S
C757 C755 1.387 1_554 S
C757 C759 1.390 1_655 S
C757 H761 0.950 . S
H758 C754 0.950 . S
C759 C757 1.390 1_455 S
C759 C760 1.387 . S
C759 H762 0.950 . S
C760 C759 1.387 . S
C760 C763 1.387 1_554 S
H761 C757 0.950 . S
H762 C759 0.950 . S
C763 C754 1.390 1_455 S
C763 H756 0.950 . S
C763 C760 1.387 1_556 S
C764 C765 1.387 . S
C764 H768 0.950 . S
C764 C773 1.390 . S
C765 C764 1.387 . S
C765 C767 1.387 . S
H766 C773 0.950 . S
C767 C765 1.387 . S
C767 C769 1.390 . S
C767 H771 0.950 . S
H768 C764 0.950 . S
C769 C767 1.390 . S
C769 C770 1.387 . S
C769 H772 0.950 . S
C770 C769 1.387 . S
C770 C773 1.387 . S
H771 C767 0.950 . S
H772 C769 0.950 . S
C773 C764 1.390 . S
C773 H766 0.950 . S
C773 C770 1.387 . S
C774 C775 1.387 . S
C774 H778 0.950 . S
C774 C783 1.390 . S
C775 C774 1.387 . S
C775 C777 1.387 . S
H776 C783 0.950 . S
C777 C775 1.387 . S
C777 C779 1.390 . S
C777 H781 0.950 . S
H778 C774 0.950 . S
C779 C777 1.390 . S
C779 C780 1.387 . S
C779 H782 0.950 . S
C780 C779 1.387 . S
C780 C783 1.387 . S
H781 C777 0.950 . S
H782 C779 0.950 . S
C783 C774 1.390 . S
C783 H776 0.950 . S
C783 C780 1.387 . S
C784 C785 1.387 . S
C784 H788 0.950 . S
C784 C793 1.390 . S
C785 C784 1.387 . S
C785 C787 1.387 . S
H786 C793 0.950 . S
C787 C785 1.387 . S
C787 C789 1.390 . S
C787 H791 0.950 . S
H788 C784 0.950 . S
C789 C787 1.390 . S
C789 C790 1.387 . S
C789 H792 0.950 . S
C790 C789 1.387 . S
C790 C793 1.387 . S
H791 C787 0.950 . S
H792 C789 0.950 . S
C793 C784 1.390 . S
C793 H786 0.950 . S
C793 C790 1.387 . S
C794 C795 1.387 . S
C794 H798 0.950 . S
C794 C803 1.390 1_556 S
C795 C794 1.387 . S
C795 C797 1.387 . S
H796 C803 0.950 . S
C797 C795 1.387 . S
C797 C799 1.390 1_556 S
C797 H801 0.950 . S
H798 C794 0.950 . S
C799 C797 1.390 1_554 S
C799 C800 1.387 . S
C799 H802 0.950 . S
C800 C799 1.387 . S
C800 C803 1.387 . S
H801 C797 0.950 . S
H802 C799 0.950 . S
C803 C794 1.390 1_554 S
C803 H796 0.950 . S
C803 C800 1.387 . S
C804 C805 1.387 . S
C804 H808 0.950 . S
C804 C813 1.390 . S
C805 C804 1.387 . S
C805 C807 1.387 1_565 S
H806 C813 0.950 . S
C807 C805 1.387 1_545 S
C807 C809 1.390 . S
C807 H811 0.950 . S
H808 C804 0.950 . S
C809 C807 1.390 . S
C809 C810 1.387 . S
C809 H812 0.950 . S
C810 C809 1.387 . S
C810 C813 1.387 1_545 S
H811 C807 0.950 . S
H812 C809 0.950 . S
C813 C804 1.390 . S
C813 H806 0.950 . S
C813 C810 1.387 1_565 S
C814 C815 1.387 1_455 S
C814 H818 0.950 . S
C814 C823 1.390 . S
C815 C814 1.387 1_655 S
C815 C817 1.387 1_565 S
H816 C823 0.950 . S
C817 C815 1.387 1_545 S
C817 C819 1.390 . S
C817 H821 0.950 . S
H818 C814 0.950 . S
C819 C817 1.390 . S
C819 C820 1.387 1_655 S
C819 H822 0.950 . S
C820 C819 1.387 1_455 S
C820 C823 1.387 1_545 S
H821 C817 0.950 . S
H822 C819 0.950 . S
C823 C814 1.390 . S
C823 H816 0.950 . S
C823 C820 1.387 1_565 S
C824 C825 1.387 . S
C824 H828 0.950 . S
C824 C833 1.392 . S
C825 C824 1.387 . S
C825 C827 1.385 1_655 S
H826 C833 0.950 . S
C827 C825 1.385 1_455 S
C827 C829 1.392 . S
C827 H831 0.950 . S
H828 C824 0.950 . S
C829 C827 1.392 . S
C829 C830 1.387 . S
C829 H832 0.950 . S
C830 C829 1.387 . S
C830 C833 1.385 1_455 S
H831 C827 0.950 . S
H832 C829 0.950 . S
C833 C824 1.392 . S
C833 H826 0.950 . S
C833 C830 1.385 1_655 S
C834 C835 1.387 . S
C834 H838 0.950 . S
C834 C843 1.390 . S
C835 C834 1.387 . S
C835 C837 1.387 . S
H836 C843 0.950 . S
C837 C835 1.387 . S
C837 C839 1.390 . S
C837 H841 0.950 . S
H838 C834 0.950 . S
C839 C837 1.390 . S
C839 C840 1.387 . S
C839 H842 0.950 . S
C840 C839 1.387 . S
C840 C843 1.387 . S
H841 C837 0.950 . S
H842 C839 0.950 . S
C843 C834 1.390 . S
C843 H836 0.950 . S
C843 C840 1.387 . S
C844 C845 1.387 1_556 S
C844 H848 0.950 . S
C844 C853 1.390 . S
C845 C844 1.387 1_554 S
C845 C847 1.387 . S
H846 C853 0.950 . S
C847 C845 1.387 . S
C847 C849 1.390 . S
C847 H851 0.950 . S
H848 C844 0.950 . S
C849 C847 1.390 . S
C849 C850 1.387 1_554 S
C849 H852 0.950 . S
C850 C849 1.387 1_556 S
C850 C853 1.387 . S
H851 C847 0.950 . S
H852 C849 0.950 . S
C853 C844 1.390 . S
C853 H846 0.950 . S
C853 C850 1.387 . S
C854 C855 1.387 . S
C854 H858 0.950 . S
C854 C863 1.390 . S
C855 C854 1.387 . S
C855 C857 1.387 . S
H856 C863 0.950 . S
C857 C855 1.387 . S
C857 C859 1.390 . S
C857 H861 0.950 . S
H858 C854 0.950 . S
C859 C857 1.390 . S
C859 C860 1.387 . S
C859 H862 0.950 . S
C860 C859 1.387 . S
C860 C863 1.387 . S
H861 C857 0.950 . S
H862 C859 0.950 . S
C863 C854 1.390 . S
C863 H856 0.950 . S
C863 C860 1.387 . S
C705 C497 1.500 . S
C710 C49 1.500 . S
C715 C645 1.500 . S
C720 C108 1.500 . S
C725 C233 1.500 . S
C730 C557 1.500 . S
C735 C321 1.500 . S
C740 C372 1.500 . S
C745 C548 1.500 . S
C750 C29 1.500 . S
C755 C117 1.500 . S
C760 C409 1.500 . S
C765 C489 1.500 . S
C770 C196 1.500 . S
C775 C313 1.500 . S
C780 C665 1.500 . S
C785 C381 1.500 . S
C790 C460 1.500 . S
C795 C145 1.500 . S
C800 C225 1.500 . S
C805 C293 1.500 . S
C810 C205 1.500 . S
C815 C284 1.500 . S
C820 C57 1.500 . S
C825 C137 1.500 . S
C830 C20 1.500 . S
C835 C636 1.500 . S
C840 C577 1.500 . S
C845 C401 1.500 . S
C850 C585 1.500 . S
C855 C469 1.500 . S
C860 C673 1.500 . S
