# Generated by pormake.
# Topology umd, (4)-cn, num edge types: 1
# Building blocks:
#     Node 0, Type 0, BuildingBlock: KOZSID_clean_sbu_0, # of connection points: 4
#     Node 1, Type 0, BuildingBlock: KOZSID_clean_sbu_0, # of connection points: 4
#     Node 2, Type 0, BuildingBlock: KOZSID_clean_sbu_0, # of connection points: 4
#     Node 3, Type 0, BuildingBlock: KOZSID_clean_sbu_0, # of connection points: 4
#     Node 4, Type 0, BuildingBlock: KOZSID_clean_sbu_0, # of connection points: 4
#     Node 5, Type 0, BuildingBlock: KOZSID_clean_sbu_0, # of connection points: 4
#     Node 6, Type 0, BuildingBlock: KOZSID_clean_sbu_0, # of connection points: 4
#     Node 7, Type 0, BuildingBlock: KOZSID_clean_sbu_0, # of connection points: 4
#     Node 8, Type 0, BuildingBlock: KOZSID_clean_sbu_0, # of connection points: 4
#     Node 9, Type 0, BuildingBlock: KOZSID_clean_sbu_0, # of connection points: 4
#     Node 10, Type 0, BuildingBlock: KOZSID_clean_sbu_0, # of connection points: 4
#     Node 11, Type 0, BuildingBlock: KOZSID_clean_sbu_0, # of connection points: 4
#     Node 12, Type 0, BuildingBlock: KOZSID_clean_sbu_0, # of connection points: 4
#     Node 13, Type 0, BuildingBlock: KOZSID_clean_sbu_0, # of connection points: 4
#     Node 14, Type 0, BuildingBlock: KOZSID_clean_sbu_0, # of connection points: 4
#     Node 15, Type 0, BuildingBlock: KOZSID_clean_sbu_0, # of connection points: 4
#     Edge 16, Type (0, 0), BuildingBlock: XUDNAN_clean_linker_2, # of connection points: 2
#     Edge 17, Type (0, 0), BuildingBlock: XUDNAN_clean_linker_2, # of connection points: 2
#     Edge 18, Type (0, 0), BuildingBlock: XUDNAN_clean_linker_2, # of connection points: 2
#     Edge 19, Type (0, 0), BuildingBlock: XUDNAN_clean_linker_2, # of connection points: 2
#     Edge 20, Type (0, 0), BuildingBlock: XUDNAN_clean_linker_2, # of connection points: 2
#     Edge 21, Type (0, 0), BuildingBlock: XUDNAN_clean_linker_2, # of connection points: 2
#     Edge 22, Type (0, 0), BuildingBlock: XUDNAN_clean_linker_2, # of connection points: 2
#     Edge 23, Type (0, 0), BuildingBlock: XUDNAN_clean_linker_2, # of connection points: 2
#     Edge 24, Type (0, 0), BuildingBlock: XUDNAN_clean_linker_2, # of connection points: 2
#     Edge 25, Type (0, 0), BuildingBlock: XUDNAN_clean_linker_2, # of connection points: 2
#     Edge 26, Type (0, 0), BuildingBlock: XUDNAN_clean_linker_2, # of connection points: 2
#     Edge 27, Type (0, 0), BuildingBlock: XUDNAN_clean_linker_2, # of connection points: 2
#     Edge 28, Type (0, 0), BuildingBlock: XUDNAN_clean_linker_2, # of connection points: 2
#     Edge 29, Type (0, 0), BuildingBlock: XUDNAN_clean_linker_2, # of connection points: 2
#     Edge 30, Type (0, 0), BuildingBlock: XUDNAN_clean_linker_2, # of connection points: 2
#     Edge 31, Type (0, 0), BuildingBlock: XUDNAN_clean_linker_2, # of connection points: 2
#     Edge 32, Type (0, 0), BuildingBlock: XUDNAN_clean_linker_2, # of connection points: 2
#     Edge 33, Type (0, 0), BuildingBlock: XUDNAN_clean_linker_2, # of connection points: 2
#     Edge 34, Type (0, 0), BuildingBlock: XUDNAN_clean_linker_2, # of connection points: 2
#     Edge 35, Type (0, 0), BuildingBlock: XUDNAN_clean_linker_2, # of connection points: 2
#     Edge 36, Type (0, 0), BuildingBlock: XUDNAN_clean_linker_2, # of connection points: 2
#     Edge 37, Type (0, 0), BuildingBlock: XUDNAN_clean_linker_2, # of connection points: 2
#     Edge 38, Type (0, 0), BuildingBlock: XUDNAN_clean_linker_2, # of connection points: 2
#     Edge 39, Type (0, 0), BuildingBlock: XUDNAN_clean_linker_2, # of connection points: 2
#     Edge 40, Type (0, 0), BuildingBlock: XUDNAN_clean_linker_2, # of connection points: 2
#     Edge 41, Type (0, 0), BuildingBlock: XUDNAN_clean_linker_2, # of connection points: 2
#     Edge 42, Type (0, 0), BuildingBlock: XUDNAN_clean_linker_2, # of connection points: 2
#     Edge 43, Type (0, 0), BuildingBlock: XUDNAN_clean_linker_2, # of connection points: 2
#     Edge 44, Type (0, 0), BuildingBlock: XUDNAN_clean_linker_2, # of connection points: 2
#     Edge 45, Type (0, 0), BuildingBlock: XUDNAN_clean_linker_2, # of connection points: 2
#     Edge 46, Type (0, 0), BuildingBlock: XUDNAN_clean_linker_2, # of connection points: 2
#     Edge 47, Type (0, 0), BuildingBlock: XUDNAN_clean_linker_2, # of connection points: 2
# Relax obj value: 0.058
# Max RMSD: 0.214
# Mean RMSD: 0.214
data_MOF--net-umd--node1-KOZSID_clean_sbu_0--edge1-XUDNAN_clean_linker_2
_symmetry_space_group_name_H-M    P1
_symmetry_Int_Tables_number       1
_symmetry_cell_setting            triclinic
loop_
_symmetry_equiv_pos_as_xyz
'x, y, z'
_cell_length_a     53.678105
_cell_length_b     53.887071
_cell_length_c     62.547267
_cell_angle_alpha  90.058395
_cell_angle_beta   89.93046
_cell_angle_gamma 89.979163
loop_
_atom_site_label
_atom_site_type_symbol
_atom_site_fract_x
_atom_site_fract_y
_atom_site_fract_z
_atom_type_partial_charge
C0 C 0.16667 0.43991 0.18829 0.0
C1 C 0.15616 0.42565 0.20441 0.0
C2 C 0.15154 0.40258 0.19581 0.0
C3 C 0.15911 0.40388 0.17484 0.0
N4 N 0.16817 0.42638 0.16979 0.0
Co5 Co 0.17747 0.4373 0.14039 0.0
N6 N 0.15881 0.4101 0.12622 0.0
C7 C 0.15073 0.38944 0.13611 0.0
C8 C 0.13873 0.37347 0.12245 0.0
C9 C 0.13967 0.38463 0.10271 0.0
C10 C 0.15238 0.40686 0.10531 0.0
N11 N 0.18713 0.44901 0.11136 0.0
C12 C 0.1781 0.44304 0.09172 0.0
C13 C 0.19162 0.45505 0.07579 0.0
C14 C 0.20978 0.46856 0.08576 0.0
C15 C 0.20649 0.46417 0.10715 0.0
N16 N 0.19635 0.46431 0.15444 0.0
C17 C 0.2156 0.47665 0.14574 0.0
C18 C 0.2267 0.49288 0.15971 0.0
C19 C 0.21352 0.49063 0.1784 0.0
C20 C 0.19484 0.47334 0.17465 0.0
N21 N 0.20765 0.41527 0.14103 0.0
C22 C 0.24568 0.37799 0.14177 0.0
C23 C 0.23235 0.38369 0.12309 0.0
C24 C 0.21376 0.40201 0.12305 0.0
C25 C 0.24034 0.39262 0.15993 0.0
C26 C 0.22133 0.41107 0.15924 0.0
N27 N 0.14668 0.45794 0.13945 0.0
C28 C 0.12281 0.49319 0.12662 0.0
C29 C 0.10047 0.48305 0.13464 0.0
C30 C 0.10205 0.46048 0.14551 0.0
C31 C 0.12494 0.44817 0.14738 0.0
C32 C 0.14574 0.4806 0.12955 0.0
H33 H 0.12462 0.43019 0.15472 0.0
H34 H 0.16256 0.48885 0.12327 0.0
H35 H 0.20369 0.40464 0.10838 0.0
H36 H 0.21717 0.42133 0.17366 0.0
C37 C 0.15203 0.38736 0.15851 0.0
C38 C 0.17634 0.46566 0.19077 0.0
C39 C 0.15977 0.4233 0.08735 0.0
C40 C 0.21971 0.47561 0.1237 0.0
H41 H 0.15148 0.43116 0.22049 0.0
H42 H 0.14198 0.38734 0.20353 0.0
H43 H 0.12984 0.35604 0.12641 0.0
H44 H 0.13215 0.37709 0.08804 0.0
H45 H 0.18944 0.45347 0.05866 0.0
H46 H 0.22369 0.48023 0.07829 0.0
H47 H 0.24187 0.50556 0.15649 0.0
H48 H 0.21711 0.50071 0.19305 0.0
H49 H 0.23581 0.3735 0.10845 0.0
H50 H 0.24997 0.38915 0.17483 0.0
H51 H 0.12254 0.51063 0.11804 0.0
H52 H 0.08538 0.45168 0.15168 0.0
C53 C 0.59633 0.15901 0.68899 0.0
C54 C 0.61118 0.1461 0.70339 0.0
C55 C 0.63396 0.14278 0.69385 0.0
C56 C 0.63179 0.15301 0.67388 0.0
N57 N 0.60891 0.16231 0.67019 0.0
Co58 Co 0.59666 0.17408 0.64191 0.0
N59 N 0.62473 0.1586 0.62588 0.0
C60 C 0.64617 0.1507 0.63468 0.0
C61 C 0.66227 0.14065 0.61997 0.0
C62 C 0.65036 0.14265 0.60065 0.0
C63 C 0.6276 0.15403 0.60458 0.0
N64 N 0.58388 0.18584 0.61381 0.0
C65 C 0.58991 0.179 0.59351 0.0
C66 C 0.57683 0.19314 0.5787 0.0
C67 C 0.5624 0.20941 0.59008 0.0
C68 C 0.56741 0.20442 0.61113 0.0
N69 N 0.56869 0.18993 0.65782 0.0
C70 C 0.55477 0.20879 0.65034 0.0
C71 C 0.53853 0.2182 0.6652 0.0
C72 C 0.54244 0.20444 0.68325 0.0
C73 C 0.56065 0.18696 0.67832 0.0
N74 N 0.61699 0.20499 0.64485 0.0
C75 C 0.65132 0.2451 0.6504 0.0
C76 C 0.64811 0.23338 0.63048 0.0
C77 C 0.63099 0.21366 0.62804 0.0
C78 C 0.63579 0.23675 0.66717 0.0
C79 C 0.61903 0.21687 0.66413 0.0
N80 N 0.57742 0.14279 0.63899 0.0
C81 C 0.54009 0.11949 0.63023 0.0
C82 C 0.55257 0.09686 0.63358 0.0
C83 C 0.57744 0.09786 0.64001 0.0
C84 C 0.58935 0.12072 0.64272 0.0
C85 C 0.55287 0.14228 0.63299 0.0
H86 H 0.60852 0.12031 0.64755 0.0
H87 H 0.54307 0.15944 0.62997 0.0
H88 H 0.62975 0.20493 0.61257 0.0
H89 H 0.60814 0.21073 0.67763 0.0
C90 C 0.64847 0.14904 0.65694 0.0
C91 C 0.57113 0.1693 0.694 0.0
C92 C 0.61007 0.16175 0.58759 0.0
C93 C 0.55527 0.21496 0.62868 0.0
H94 H 0.60619 0.13908 0.71897 0.0
H95 H 0.64961 0.1325 0.7002 0.0
H96 H 0.68011 0.13199 0.623 0.0
H97 H 0.65768 0.13647 0.58542 0.0
H98 H 0.5781 0.19239 0.56145 0.0
H99 H 0.54961 0.22308 0.58375 0.0
H100 H 0.52515 0.23301 0.66308 0.0
H101 H 0.53319 0.20746 0.6984 0.0
H102 H 0.65939 0.23869 0.61689 0.0
H103 H 0.63661 0.24533 0.6828 0.0
H104 H 0.52087 0.11958 0.625 0.0
H105 H 0.58787 0.08091 0.64265 0.0
C106 C 0.86037 0.58604 0.18969 0.0
C107 C 0.87097 0.60039 0.2057 0.0
C108 C 0.87463 0.62369 0.19726 0.0
C109 C 0.86642 0.62242 0.17648 0.0
N110 N 0.85791 0.59971 0.17139 0.0
Co111 Co 0.84765 0.58902 0.14216 0.0
N112 N 0.86466 0.61714 0.12785 0.0
C113 C 0.87251 0.63787 0.13775 0.0
C114 C 0.88369 0.65429 0.12397 0.0
C115 C 0.88249 0.64329 0.10415 0.0
C116 C 0.87043 0.62072 0.10684 0.0
N117 N 0.83694 0.5777 0.11334 0.0
C118 C 0.8449 0.58435 0.09354 0.0
C119 C 0.83079 0.5726 0.07785 0.0
C120 C 0.81343 0.55842 0.08819 0.0
C121 C 0.81773 0.56223 0.10952 0.0
N122 N 0.83045 0.56096 0.15633 0.0
C123 C 0.81127 0.54811 0.14806 0.0
C124 C 0.80137 0.5312 0.16207 0.0
C125 C 0.81522 0.53356 0.18035 0.0
C126 C 0.83308 0.55163 0.17633 0.0
N127 N 0.81674 0.60975 0.14441 0.0
C128 C 0.77449 0.64206 0.14797 0.0
C129 C 0.7884 0.64022 0.12896 0.0
C130 C 0.80912 0.62413 0.1275 0.0
C131 C 0.78248 0.62699 0.16513 0.0
C132 C 0.80338 0.61115 0.16305 0.0
N133 N 0.87903 0.56947 0.1398 0.0
C134 C 0.90318 0.5344 0.12691 0.0
C135 C 0.92551 0.54498 0.1345 0.0
C136 C 0.92382 0.5678 0.14501 0.0
C137 C 0.90078 0.57979 0.14713 0.0
C138 C 0.88013 0.54671 0.13005 0.0
H139 H 0.90091 0.59787 0.15434 0.0
H140 H 0.86329 0.53809 0.12421 0.0
H141 H 0.81909 0.62357 0.11255 0.0
H142 H 0.8089 0.60022 0.17671 0.0
C143 C 0.87218 0.6395 0.16021 0.0
C144 C 0.85157 0.56001 0.19216 0.0
C145 C 0.86311 0.6041 0.08897 0.0
C146 C 0.80585 0.54977 0.12627 0.0
H147 H 0.87626 0.59478 0.22161 0.0
H148 H 0.88389 0.63914 0.20494 0.0
H149 H 0.89237 0.67183 0.12791 0.0
H150 H 0.88951 0.65112 0.08941 0.0
H151 H 0.83216 0.57467 0.0607 0.0
H152 H 0.79946 0.54661 0.08098 0.0
H153 H 0.78644 0.51815 0.15915 0.0
H154 H 0.8125 0.52317 0.19497 0.0
H155 H 0.78317 0.65091 0.11502 0.0
H156 H 0.77292 0.62764 0.18036 0.0
H157 H 0.90354 0.51677 0.11859 0.0
H158 H 0.94046 0.57695 0.15083 0.0
C159 C 0.44016 0.86002 0.68834 0.0
C160 C 0.42524 0.86813 0.70506 0.0
C161 C 0.4019 0.87212 0.69669 0.0
C162 C 0.40374 0.86615 0.67538 0.0
N163 N 0.42677 0.8587 0.66986 0.0
Co164 Co 0.43729 0.84869 0.64062 0.0
N165 N 0.40833 0.86513 0.62681 0.0
C166 C 0.38746 0.87234 0.63703 0.0
C167 C 0.37047 0.88324 0.62359 0.0
C168 C 0.38119 0.88253 0.60365 0.0
C169 C 0.40417 0.871 0.60592 0.0
N170 N 0.44825 0.83848 0.61151 0.0
C171 C 0.44081 0.84632 0.59188 0.0
C172 C 0.45275 0.83289 0.57586 0.0
C173 C 0.46803 0.81618 0.58578 0.0
C174 C 0.46457 0.82015 0.60722 0.0
N175 N 0.46634 0.8322 0.65444 0.0
C176 C 0.48094 0.81488 0.64528 0.0
C177 C 0.50052 0.80784 0.65795 0.0
C178 C 0.49809 0.82147 0.67632 0.0
C179 C 0.47678 0.83588 0.67402 0.0
N180 N 0.41711 0.81762 0.64307 0.0
C181 C 0.38263 0.77759 0.6482 0.0
C182 C 0.38493 0.79042 0.62873 0.0
C183 C 0.40211 0.81009 0.62651 0.0
C184 C 0.39916 0.78473 0.66467 0.0
C185 C 0.41608 0.80454 0.66181 0.0
N186 N 0.45635 0.88008 0.63813 0.0
C187 C 0.49288 0.9034 0.62748 0.0
C188 C 0.48164 0.92608 0.6334 0.0
C189 C 0.45756 0.92485 0.64206 0.0
C190 C 0.44538 0.90195 0.64422 0.0
C191 C 0.48003 0.88073 0.63001 0.0
H192 H 0.42676 0.90212 0.6506 0.0
H193 H 0.48914 0.86375 0.62522 0.0
H194 H 0.40251 0.81976 0.61145 0.0
H195 H 0.42788 0.80973 0.67505 0.0
C196 C 0.38611 0.87164 0.65948 0.0
C197 C 0.46636 0.85202 0.6909 0.0
C198 C 0.42058 0.86416 0.58778 0.0
C199 C 0.47868 0.80951 0.62354 0.0
H200 H 0.43065 0.87081 0.72156 0.0
H201 H 0.38583 0.87952 0.705 0.0
H202 H 0.35271 0.89139 0.62785 0.0
H203 H 0.37289 0.88949 0.58909 0.0
H204 H 0.45032 0.83447 0.55875 0.0
H205 H 0.48053 0.80306 0.57823 0.0
H206 H 0.51563 0.7954 0.65385 0.0
H207 H 0.51095 0.82096 0.68957 0.0
H208 H 0.37284 0.78604 0.61542 0.0
H209 H 0.39895 0.77525 0.67991 0.0
H210 H 0.51157 0.90306 0.62097 0.0
H211 H 0.44772 0.94158 0.64662 0.0
C212 C 0.16582 0.59681 0.32839 0.0
C213 C 0.15455 0.61372 0.31469 0.0
C214 C 0.1524 0.63573 0.32564 0.0
C215 C 0.16165 0.63115 0.34568 0.0
N216 N 0.16925 0.60751 0.34803 0.0
Co217 Co 0.17852 0.59189 0.37571 0.0
N218 N 0.16381 0.61913 0.39314 0.0
C219 C 0.1585 0.64195 0.38576 0.0
C220 C 0.14939 0.65743 0.4014 0.0
C221 C 0.14928 0.64353 0.41981 0.0
C222 C 0.15825 0.62022 0.41438 0.0
N223 N 0.18751 0.57548 0.40315 0.0
C224 C 0.17939 0.57968 0.42344 0.0
C225 C 0.19082 0.56356 0.43773 0.0
C226 C 0.20712 0.5494 0.42609 0.0
C227 C 0.2046 0.5574 0.40539 0.0
N228 N 0.19394 0.56495 0.35847 0.0
C229 C 0.21176 0.54945 0.36559 0.0
C230 C 0.22141 0.53454 0.34986 0.0
C231 C 0.20885 0.54098 0.33167 0.0
C232 C 0.19173 0.55922 0.33739 0.0
N233 N 0.21083 0.61053 0.37583 0.0
C234 C 0.25359 0.64223 0.37664 0.0
C235 C 0.24054 0.63587 0.39536 0.0
C236 C 0.21954 0.62031 0.39463 0.0
C237 C 0.24462 0.632 0.35738 0.0
C238 C 0.2235 0.61611 0.35734 0.0
N239 N 0.14577 0.57461 0.37561 0.0
C240 C 0.11904 0.53815 0.37683 0.0
C241 C 0.09756 0.55275 0.37335 0.0
C242 C 0.10108 0.57845 0.37189 0.0
C243 C 0.12487 0.58877 0.37277 0.0
C244 C 0.14296 0.54945 0.37792 0.0
H245 H 0.12612 0.6085 0.37083 0.0
H246 H 0.15915 0.53786 0.38034 0.0
H247 H 0.21001 0.61678 0.40946 0.0
H248 H 0.21724 0.60864 0.34225 0.0
C249 C 0.15817 0.64648 0.36365 0.0
C250 C 0.17459 0.5714 0.32219 0.0
C251 C 0.16321 0.60038 0.43006 0.0
C252 C 0.21607 0.54686 0.38749 0.0
H253 H 0.14766 0.61065 0.29871 0.0
H254 H 0.1434 0.6525 0.32009 0.0
H255 H 0.14282 0.67629 0.39954 0.0
H256 H 0.1435 0.64987 0.43547 0.0
H257 H 0.18816 0.56249 0.45485 0.0
H258 H 0.2191 0.53477 0.43199 0.0
H259 H 0.23541 0.52022 0.35152 0.0
H260 H 0.21219 0.53318 0.31599 0.0
H261 H 0.24621 0.6433 0.41069 0.0
H262 H 0.25403 0.63595 0.34245 0.0
H263 H 0.1175 0.51818 0.37816 0.0
H264 H 0.08541 0.59089 0.36987 0.0
C265 C 0.43824 0.16582 0.82755 0.0
C266 C 0.42361 0.15468 0.81199 0.0
C267 C 0.40073 0.15017 0.8212 0.0
C268 C 0.40253 0.15848 0.84193 0.0
N269 N 0.42515 0.16791 0.84623 0.0
Co270 Co 0.43688 0.17854 0.87497 0.0
N271 N 0.41016 0.16024 0.89021 0.0
C272 C 0.38885 0.15234 0.88117 0.0
C273 C 0.37328 0.14099 0.89563 0.0
C274 C 0.38549 0.14212 0.91494 0.0
C275 C 0.40798 0.15405 0.91123 0.0
N276 N 0.4495 0.18912 0.90342 0.0
C277 C 0.44473 0.18002 0.92324 0.0
C278 C 0.45826 0.19291 0.9386 0.0
C279 C 0.47109 0.21117 0.9281 0.0
C280 C 0.46505 0.2083 0.90694 0.0
N281 N 0.46323 0.19726 0.85986 0.0
C282 C 0.4758 0.21675 0.86783 0.0
C283 C 0.49161 0.22736 0.85319 0.0
C284 C 0.48883 0.21358 0.8349 0.0
C285 C 0.47166 0.19508 0.83954 0.0
N286 N 0.41458 0.20821 0.87406 0.0
C287 C 0.37711 0.24569 0.87292 0.0
C288 C 0.38325 0.23321 0.89189 0.0
C289 C 0.40176 0.21485 0.89214 0.0
C290 C 0.39135 0.23985 0.85465 0.0
C291 C 0.40991 0.22109 0.85554 0.0
N292 N 0.45798 0.14841 0.87605 0.0
C293 C 0.49659 0.12694 0.88367 0.0
C294 C 0.48556 0.10359 0.87956 0.0
C295 C 0.4605 0.10365 0.87327 0.0
C296 C 0.44732 0.12594 0.87149 0.0
C297 C 0.48253 0.14902 0.88189 0.0
H298 H 0.42813 0.12474 0.86674 0.0
H299 H 0.49137 0.16656 0.88542 0.0
H300 H 0.4049 0.20536 0.90702 0.0
H301 H 0.41989 0.21644 0.84107 0.0
C302 C 0.38614 0.1525 0.85877 0.0
C303 C 0.46383 0.17575 0.82431 0.0
C304 C 0.42564 0.16123 0.92827 0.0
C305 C 0.4758 0.22123 0.88986 0.0
H306 H 0.42875 0.14976 0.79586 0.0
H307 H 0.38523 0.14042 0.814 0.0
H308 H 0.3555 0.13229 0.89244 0.0
H309 H 0.37852 0.13526 0.93006 0.0
H310 H 0.45857 0.18984 0.95569 0.0
H311 H 0.48375 0.22457 0.93502 0.0
H312 H 0.50452 0.24249 0.85577 0.0
H313 H 0.49862 0.21651 0.81998 0.0
H314 H 0.37326 0.23715 0.90657 0.0
H315 H 0.38744 0.24887 0.83956 0.0
H316 H 0.51598 0.12828 0.88825 0.0
H317 H 0.45063 0.0865 0.87026 0.0
C318 C 0.86745 0.42976 0.32887 0.0
C319 C 0.88134 0.4151 0.31496 0.0
C320 C 0.88523 0.39279 0.32493 0.0
C321 C 0.87435 0.39505 0.34468 0.0
N322 N 0.86403 0.41753 0.34781 0.0
Co323 Co 0.85143 0.43016 0.37574 0.0
N324 N 0.86737 0.40302 0.39247 0.0
C325 C 0.87604 0.38167 0.38412 0.0
C326 C 0.88638 0.36632 0.39919 0.0
C327 C 0.88374 0.37861 0.41827 0.0
C328 C 0.87169 0.40083 0.41386 0.0
N329 N 0.839 0.44345 0.4035 0.0
C330 C 0.84565 0.43813 0.42399 0.0
C331 C 0.83092 0.45124 0.43841 0.0
C332 C 0.81445 0.46491 0.4266 0.0
C333 C 0.81992 0.45948 0.4057 0.0
N334 N 0.83492 0.45705 0.35913 0.0
C335 C 0.81544 0.47052 0.36616 0.0
C336 C 0.80573 0.48594 0.35089 0.0
C337 C 0.81996 0.48199 0.33305 0.0
C338 C 0.83801 0.46459 0.33852 0.0
N339 N 0.82086 0.40913 0.37299 0.0
C340 C 0.78021 0.37519 0.36794 0.0
C341 C 0.79206 0.37867 0.3878 0.0
C342 C 0.81204 0.39559 0.38998 0.0
C343 C 0.7889 0.39012 0.35094 0.0
C344 C 0.80906 0.40662 0.35371 0.0
N345 N 0.88233 0.45025 0.37831 0.0
C346 C 0.90387 0.48969 0.38061 0.0
C347 C 0.92725 0.47806 0.37821 0.0
C348 C 0.92747 0.45219 0.37645 0.0
C349 C 0.90506 0.43882 0.37628 0.0
C350 C 0.88174 0.47548 0.38091 0.0
H351 H 0.90635 0.41914 0.37386 0.0
H352 H 0.86414 0.48494 0.38279 0.0
H353 H 0.82072 0.39718 0.40545 0.0
H354 H 0.81537 0.41707 0.34003 0.0
C355 C 0.87841 0.37899 0.36193 0.0
C356 C 0.8565 0.45444 0.32331 0.0
C357 C 0.86322 0.41851 0.43048 0.0
C358 C 0.80912 0.47062 0.38782 0.0
H359 H 0.8887 0.41997 0.29945 0.0
H360 H 0.89631 0.37745 0.31904 0.0
H361 H 0.89573 0.34878 0.39654 0.0
H362 H 0.89002 0.37193 0.43365 0.0
H363 H 0.83136 0.4504 0.45568 0.0
H364 H 0.80027 0.47743 0.43256 0.0
H365 H 0.79044 0.4989 0.35262 0.0
H366 H 0.81694 0.49069 0.31771 0.0
H367 H 0.78656 0.36784 0.40158 0.0
H368 H 0.7803 0.38912 0.33532 0.0
H369 H 0.90266 0.50968 0.3821 0.0
H370 H 0.94485 0.44231 0.37423 0.0
C371 C 0.59304 0.86004 0.82898 0.0
C372 C 0.6096 0.86643 0.81287 0.0
C373 C 0.63252 0.86939 0.82237 0.0
C374 C 0.62879 0.86459 0.84373 0.0
N375 N 0.60497 0.85887 0.8482 0.0
Co376 Co 0.59175 0.85102 0.87712 0.0
N377 N 0.62077 0.8662 0.89196 0.0
C378 C 0.64292 0.87098 0.88272 0.0
C379 C 0.66005 0.88038 0.89688 0.0
C380 C 0.64802 0.88125 0.91628 0.0
C381 C 0.62409 0.87236 0.9129 0.0
N382 N 0.5779 0.84331 0.90595 0.0
C383 C 0.58422 0.85204 0.92561 0.0
C384 C 0.56891 0.842 0.94131 0.0
C385 C 0.55309 0.82591 0.93125 0.0
C386 C 0.55934 0.82719 0.91003 0.0
N387 N 0.56282 0.83549 0.86228 0.0
C388 C 0.54627 0.8199 0.87129 0.0
C389 C 0.52734 0.81327 0.85777 0.0
C390 C 0.53218 0.82539 0.83903 0.0
C391 C 0.5542 0.83852 0.84199 0.0
N392 N 0.61025 0.81881 0.8769 0.0
C393 C 0.64709 0.78077 0.87592 0.0
C394 C 0.64027 0.79265 0.89503 0.0
C395 C 0.62208 0.81131 0.8952 0.0
C396 C 0.63328 0.78692 0.85754 0.0
C397 C 0.6149 0.80586 0.85839 0.0
N398 N 0.57474 0.88366 0.87746 0.0
C399 C 0.53968 0.91053 0.88552 0.0
C400 C 0.55402 0.93176 0.88108 0.0
C401 C 0.57851 0.92822 0.87412 0.0
C402 C 0.58833 0.9043 0.87223 0.0
C403 C 0.55043 0.88662 0.88372 0.0
H404 H 0.60734 0.90267 0.86701 0.0
H405 H 0.53932 0.87063 0.88784 0.0
H406 H 0.6189 0.82071 0.91012 0.0
H407 H 0.60545 0.81089 0.84379 0.0
C408 C 0.64573 0.86928 0.86039 0.0
C409 C 0.56672 0.85317 0.8252 0.0
C410 C 0.60602 0.86771 0.93027 0.0
C411 C 0.54598 0.81636 0.89336 0.0
H412 H 0.60556 0.86853 0.79602 0.0
H413 H 0.64962 0.87524 0.81471 0.0
H414 H 0.6789 0.88631 0.89348 0.0
H415 H 0.65607 0.88725 0.93127 0.0
H416 H 0.56926 0.8456 0.95832 0.0
H417 H 0.5383 0.81515 0.93849 0.0
H418 H 0.51101 0.80231 0.86153 0.0
H419 H 0.52029 0.82491 0.82513 0.0
H420 H 0.64979 0.78833 0.90982 0.0
H421 H 0.63757 0.77822 0.84236 0.0
H422 H 0.52065 0.91241 0.89106 0.0
H423 H 0.59026 0.94401 0.87044 0.0
C424 C 0.83582 0.56127 0.83825 0.0
C425 C 0.81763 0.54412 0.83258 0.0
C426 C 0.80369 0.53969 0.85052 0.0
C427 C 0.81374 0.55459 0.86604 0.0
N428 N 0.83311 0.56818 0.85905 0.0
Co429 Co 0.85053 0.59403 0.87611 0.0
N430 N 0.839 0.57956 0.90372 0.0
C431 C 0.81988 0.56358 0.90584 0.0
C432 C 0.81517 0.55717 0.92666 0.0
C433 C 0.83214 0.57019 0.93851 0.0
C434 C 0.8464 0.58393 0.92421 0.0
N435 N 0.86761 0.62011 0.89325 0.0
C436 C 0.87255 0.62142 0.91459 0.0
C437 C 0.88506 0.64328 0.9194 0.0
C438 C 0.88729 0.65628 0.90067 0.0
C439 C 0.87628 0.64168 0.88538 0.0
N440 N 0.86216 0.6078 0.84829 0.0
C441 C 0.87223 0.63046 0.84557 0.0
C442 C 0.88244 0.63347 0.82564 0.0
C443 C 0.8784 0.61149 0.81515 0.0
C444 C 0.86509 0.59625 0.82898 0.0
N445 N 0.82031 0.61565 0.87515 0.0
C446 C 0.7821 0.65235 0.87424 0.0
C447 C 0.789 0.63927 0.85564 0.0
C448 C 0.80812 0.62107 0.85643 0.0
C449 C 0.79386 0.64543 0.89335 0.0
C450 C 0.8126 0.62731 0.89348 0.0
N451 N 0.88106 0.57349 0.87727 0.0
C452 C 0.92607 0.57132 0.87547 0.0
C453 C 0.926 0.54604 0.88069 0.0
C454 C 0.90254 0.53474 0.88383 0.0
C455 C 0.8804 0.54874 0.88207 0.0
C456 C 0.9037 0.5845 0.87379 0.0
H457 H 0.86276 0.53962 0.88478 0.0
H458 H 0.90495 0.60388 0.86996 0.0
H459 H 0.8136 0.61201 0.84174 0.0
H460 H 0.82149 0.62356 0.90853 0.0
C461 C 0.80824 0.55346 0.88786 0.0
C462 C 0.85432 0.57158 0.82316 0.0
C463 C 0.8639 0.60354 0.93095 0.0
C464 C 0.87738 0.64557 0.86327 0.0
H465 H 0.8145 0.53577 0.81708 0.0
H466 H 0.78851 0.52661 0.85217 0.0
H467 H 0.8011 0.5445 0.93254 0.0
H468 H 0.83314 0.57025 0.95578 0.0
H469 H 0.89172 0.64934 0.93487 0.0
H470 H 0.89661 0.67389 0.89837 0.0
H471 H 0.89339 0.64901 0.81998 0.0
H472 H 0.88545 0.60721 0.79941 0.0
H473 H 0.78056 0.64383 0.84043 0.0
H474 H 0.7891 0.65455 0.90825 0.0
H475 H 0.94338 0.58129 0.87323 0.0
H476 H 0.90119 0.51519 0.88759 0.0
C477 C 0.47913 0.83127 0.34605 0.0
C478 C 0.50092 0.81737 0.34466 0.0
C479 C 0.5036 0.80532 0.36371 0.0
C480 C 0.48374 0.81281 0.37588 0.0
N481 N 0.4687 0.829 0.36578 0.0
Co482 Co 0.43953 0.84623 0.37877 0.0
N483 N 0.45062 0.83816 0.40839 0.0
C484 C 0.46723 0.82041 0.41354 0.0
C485 C 0.47068 0.8178 0.4351 0.0
C486 C 0.45509 0.83479 0.44426 0.0
C487 C 0.44298 0.84705 0.42766 0.0
N488 N 0.41043 0.86339 0.39185 0.0
C489 C 0.40601 0.87031 0.4125 0.0
C490 C 0.38302 0.88195 0.41421 0.0
C491 C 0.37253 0.88165 0.3942 0.0
C492 C 0.38967 0.87008 0.38127 0.0
N493 N 0.42903 0.85417 0.34899 0.0
C494 C 0.40604 0.86148 0.34324 0.0
C495 C 0.40398 0.86558 0.32162 0.0
C496 C 0.4271 0.86041 0.31326 0.0
C497 C 0.44213 0.85352 0.33026 0.0
N498 N 0.41942 0.81488 0.37796 0.0
C499 C 0.3867 0.77303 0.37729 0.0
C500 C 0.40043 0.78006 0.35905 0.0
C501 C 0.41683 0.80077 0.35978 0.0
C502 C 0.38997 0.78752 0.39572 0.0
C503 C 0.40599 0.80813 0.39569 0.0
N504 N 0.45842 0.87788 0.37979 0.0
C505 C 0.45901 0.92255 0.37497 0.0
C506 C 0.48288 0.92446 0.38396 0.0
C507 C 0.49443 0.9021 0.39027 0.0
C508 C 0.48198 0.87917 0.38806 0.0
C509 C 0.44726 0.89937 0.37304 0.0
H510 H 0.49128 0.86251 0.39334 0.0
H511 H 0.42877 0.89905 0.36645 0.0
H512 H 0.42723 0.80545 0.34556 0.0
H513 H 0.40705 0.8188 0.41019 0.0
C514 C 0.48153 0.80893 0.3978 0.0
C515 C 0.46809 0.8447 0.32778 0.0
C516 C 0.42218 0.86447 0.43103 0.0
C517 C 0.38847 0.86807 0.3589 0.0
H518 H 0.51372 0.81607 0.33134 0.0
H519 H 0.51898 0.79358 0.36851 0.0
H520 H 0.48331 0.80531 0.44321 0.0
H521 H 0.4525 0.83717 0.46128 0.0
H522 H 0.37456 0.88963 0.42846 0.0
H523 H 0.3548 0.88953 0.38955 0.0
H524 H 0.38786 0.87237 0.31304 0.0
H525 H 0.4323 0.86153 0.29656 0.0
H526 H 0.39893 0.76936 0.34445 0.0
H527 H 0.37988 0.78313 0.41024 0.0
H528 H 0.44893 0.93897 0.37004 0.0
H529 H 0.51301 0.9022 0.39695 0.0
C530 C 0.18892 0.47149 0.84065 0.0
C531 C 0.2041 0.49174 0.83647 0.0
C532 C 0.21762 0.49597 0.8547 0.0
C533 C 0.20999 0.47809 0.86892 0.0
N534 N 0.1926 0.46286 0.86076 0.0
Co535 Co 0.17659 0.43473 0.87596 0.0
N536 N 0.1857 0.44842 0.90448 0.0
C537 C 0.20346 0.46563 0.90794 0.0
C538 C 0.20681 0.47102 0.92915 0.0
C539 C 0.19037 0.45607 0.93981 0.0
C540 C 0.1777 0.44231 0.92444 0.0
N541 N 0.16083 0.40646 0.8912 0.0
C542 C 0.1549 0.40358 0.91226 0.0
C543 C 0.14405 0.38051 0.91562 0.0
C544 C 0.144 0.36842 0.89627 0.0
C545 C 0.15454 0.38472 0.88203 0.0
N546 N 0.16749 0.42176 0.84722 0.0
C547 C 0.16075 0.3983 0.84284 0.0
C548 C 0.15453 0.39507 0.82168 0.0
C549 C 0.15759 0.41796 0.81224 0.0
C550 C 0.16553 0.43395 0.8282 0.0
N551 N 0.20833 0.41531 0.87516 0.0
C552 C 0.24652 0.37859 0.87366 0.0
C553 C 0.24015 0.39251 0.85541 0.0
C554 C 0.2211 0.41078 0.8565 0.0
C555 C 0.2346 0.38504 0.89285 0.0
C556 C 0.21589 0.40318 0.89328 0.0
N557 N 0.14447 0.45275 0.87692 0.0
C558 C 0.09961 0.45058 0.87415 0.0
C559 C 0.09708 0.47504 0.88122 0.0
C560 C 0.11894 0.48858 0.8854 0.0
C561 C 0.14251 0.47703 0.88325 0.0
C562 C 0.1232 0.43997 0.87195 0.0
H563 H 0.15905 0.4875 0.88713 0.0
H564 H 0.12403 0.42101 0.86668 0.0
H565 H 0.2159 0.42036 0.84201 0.0
H566 H 0.2066 0.40621 0.90829 0.0
C567 C 0.2147 0.47814 0.89088 0.0
C568 C 0.17213 0.46028 0.82487 0.0
C569 C 0.16112 0.4213 0.92965 0.0
C570 C 0.1556 0.38177 0.85967 0.0
H571 H 0.20517 0.50237 0.82182 0.0
H572 H 0.23048 0.51106 0.85759 0.0
H573 H 0.21954 0.48435 0.93607 0.0
H574 H 0.18872 0.45489 0.95701 0.0
H575 H 0.13713 0.37303 0.93053 0.0
H576 H 0.13651 0.35019 0.89291 0.0
H577 H 0.14734 0.37843 0.81421 0.0
H578 H 0.15419 0.42241 0.79564 0.0
H579 H 0.24881 0.38842 0.84016 0.0
H580 H 0.23901 0.37532 0.90752 0.0
H581 H 0.0833 0.43946 0.87066 0.0
H582 H 0.11782 0.50757 0.891 0.0
C583 C 0.54696 0.19003 0.34574 0.0
C584 C 0.52428 0.20246 0.34472 0.0
C585 C 0.52133 0.21463 0.36371 0.0
C586 C 0.54193 0.20857 0.37549 0.0
N587 N 0.55768 0.19311 0.36527 0.0
Co588 Co 0.58791 0.17747 0.37796 0.0
N589 N 0.57745 0.1863 0.40763 0.0
C590 C 0.56029 0.20355 0.41276 0.0
C591 C 0.55752 0.20699 0.43432 0.0
C592 C 0.57411 0.19106 0.4435 0.0
C593 C 0.58605 0.17853 0.42692 0.0
N594 N 0.61793 0.16174 0.39082 0.0
C595 C 0.62308 0.15562 0.41152 0.0
C596 C 0.6465 0.14485 0.41302 0.0
C597 C 0.65649 0.14487 0.39279 0.0
C598 C 0.63865 0.15542 0.37997 0.0
N599 N 0.59799 0.169 0.3481 0.0
C600 C 0.62114 0.16238 0.34209 0.0
C601 C 0.62311 0.15827 0.32047 0.0
C602 C 0.59979 0.16279 0.31232 0.0
C603 C 0.58473 0.16934 0.32945 0.0
N604 N 0.6069 0.20934 0.37582 0.0
C605 C 0.64186 0.24884 0.37008 0.0
C606 C 0.62457 0.24224 0.35404 0.0
C607 C 0.60735 0.22273 0.35722 0.0
C608 C 0.63985 0.23604 0.38958 0.0
C609 C 0.62241 0.21663 0.39211 0.0
N610 N 0.57025 0.14517 0.38005 0.0
C611 C 0.57145 0.10055 0.37515 0.0
C612 C 0.54806 0.09777 0.38467 0.0
C613 C 0.5357 0.11937 0.39157 0.0
C614 C 0.54706 0.14289 0.38905 0.0
C615 C 0.58209 0.12416 0.37297 0.0
H616 H 0.53733 0.15913 0.39475 0.0
H617 H 0.60031 0.12518 0.36589 0.0
H618 H 0.59504 0.21789 0.34424 0.0
H619 H 0.62242 0.20681 0.4071 0.0
C620 C 0.54474 0.21347 0.39719 0.0
C621 C 0.55861 0.17773 0.32711 0.0
C622 C 0.60715 0.16152 0.43022 0.0
C623 C 0.63926 0.15684 0.35755 0.0
H624 H 0.51118 0.20289 0.33161 0.0
H625 H 0.50547 0.22563 0.36868 0.0
H626 H 0.5446 0.21924 0.44243 0.0
H627 H 0.57731 0.18941 0.4605 0.0
H628 H 0.65557 0.13795 0.42726 0.0
H629 H 0.67439 0.13748 0.38796 0.0
H630 H 0.63938 0.15208 0.31172 0.0
H631 H 0.59452 0.16162 0.29565 0.0
H632 H 0.62452 0.2518 0.33883 0.0
H633 H 0.65246 0.24009 0.40261 0.0
H634 H 0.5818 0.08442 0.36983 0.0
H635 H 0.51767 0.11804 0.39927 0.0
C636 C 0.8356 0.47401 0.67585 0.0
C637 C 0.81734 0.49172 0.67983 0.0
C638 C 0.80336 0.49359 0.6616 0.0
C639 C 0.8136 0.47678 0.64764 0.0
N640 N 0.83313 0.46445 0.6559 0.0
Co641 Co 0.85084 0.43657 0.64182 0.0
N642 N 0.83947 0.44718 0.61297 0.0
C643 C 0.81989 0.46221 0.6092 0.0
C644 C 0.81516 0.46557 0.58788 0.0
C645 C 0.83262 0.45154 0.5775 0.0
C646 C 0.84721 0.44033 0.59314 0.0
N647 N 0.86834 0.40862 0.62756 0.0
C648 C 0.87377 0.40475 0.60651 0.0
C649 C 0.88627 0.3824 0.60391 0.0
C650 C 0.88811 0.3718 0.62383 0.0
C651 C 0.87682 0.38823 0.63758 0.0
N652 N 0.86176 0.42653 0.67103 0.0
C653 C 0.87087 0.40409 0.67623 0.0
C654 C 0.87915 0.40321 0.697 0.0
C655 C 0.87485 0.42646 0.70535 0.0
C656 C 0.86383 0.44038 0.68929 0.0
N657 N 0.82058 0.41514 0.64466 0.0
C658 C 0.78148 0.37966 0.65022 0.0
C659 C 0.78856 0.39615 0.6667 0.0
C660 C 0.80792 0.41355 0.66364 0.0
C661 C 0.79393 0.3824 0.63057 0.0
C662 C 0.81317 0.40006 0.62814 0.0
N663 N 0.88168 0.45679 0.639 0.0
C664 C 0.9264 0.45958 0.64411 0.0
C665 C 0.92744 0.48245 0.63368 0.0
C666 C 0.90485 0.49244 0.62608 0.0
C667 C 0.88213 0.47954 0.62923 0.0
C668 C 0.90371 0.44701 0.64624 0.0
H669 H 0.86505 0.48771 0.62344 0.0
H670 H 0.90435 0.42896 0.65343 0.0
H671 H 0.81305 0.42531 0.6769 0.0
H672 H 0.82256 0.40084 0.61292 0.0
C673 C 0.80798 0.47468 0.62594 0.0
C674 C 0.85424 0.46613 0.69172 0.0
C675 C 0.86572 0.42084 0.58853 0.0
C676 C 0.87684 0.38693 0.66005 0.0
H677 H 0.81438 0.50214 0.69442 0.0
H678 H 0.78807 0.50623 0.65868 0.0
H679 H 0.80082 0.47697 0.58072 0.0
H680 H 0.83373 0.44919 0.56035 0.0
H681 H 0.89316 0.37444 0.58916 0.0
H682 H 0.89721 0.3545 0.62784 0.0
H683 H 0.88878 0.38804 0.70475 0.0
H684 H 0.87994 0.43235 0.72124 0.0
H685 H 0.77937 0.39558 0.6821 0.0
H686 H 0.78957 0.37034 0.61724 0.0
H687 H 0.94329 0.45088 0.6499 0.0
H688 H 0.90474 0.51006 0.61778 0.0
C689 C 0.55118 0.83698 0.17336 0.0
C690 C 0.52797 0.82573 0.1754 0.0
C691 C 0.52286 0.81467 0.15626 0.0
C692 C 0.54287 0.82004 0.14347 0.0
N693 N 0.56031 0.83399 0.15324 0.0
Co694 Co 0.59094 0.84761 0.13949 0.0
N695 N 0.5781 0.84063 0.11019 0.0
C696 C 0.55874 0.82576 0.1054 0.0
C697 C 0.55349 0.82479 0.08399 0.0
C698 C 0.57074 0.83983 0.07454 0.0
C699 C 0.58584 0.84896 0.09079 0.0
N700 N 0.6215 0.86101 0.12555 0.0
C701 C 0.62592 0.86736 0.1048 0.0
C702 C 0.65037 0.87508 0.10215 0.0
C703 C 0.66159 0.87331 0.12184 0.0
C704 C 0.64346 0.86457 0.13543 0.0
N705 N 0.60335 0.85451 0.16893 0.0
C706 C 0.62728 0.85905 0.17398 0.0
C707 C 0.63076 0.86246 0.19555 0.0
C708 C 0.6076 0.85969 0.20466 0.0
C709 C 0.59114 0.85476 0.18812 0.0
N710 N 0.6074 0.81425 0.14037 0.0
C711 C 0.6391 0.7717 0.14441 0.0
C712 C 0.6233 0.7796 0.16117 0.0
C713 C 0.6077 0.80056 0.15882 0.0
C714 C 0.6376 0.7853 0.12525 0.0
C715 C 0.62168 0.80612 0.12351 0.0
N716 N 0.57587 0.88137 0.13893 0.0
C717 C 0.58174 0.92537 0.14483 0.0
C718 C 0.55651 0.93063 0.14101 0.0
C719 C 0.5413 0.91032 0.13519 0.0
C720 C 0.55135 0.88593 0.13413 0.0
C721 C 0.59075 0.90107 0.14413 0.0
H722 H 0.53921 0.87079 0.12977 0.0
H723 H 0.61001 0.89837 0.14813 0.0
H724 H 0.59654 0.8062 0.17234 0.0
H725 H 0.62166 0.81613 0.10861 0.0
C726 C 0.54357 0.8163 0.12148 0.0
C727 C 0.56464 0.84821 0.19149 0.0
C728 C 0.60823 0.86403 0.08697 0.0
C729 C 0.64512 0.86283 0.15782 0.0
H730 H 0.51593 0.82544 0.18927 0.0
H731 H 0.50599 0.80491 0.15189 0.0
H732 H 0.53831 0.81511 0.07624 0.0
H733 H 0.57194 0.84356 0.05758 0.0
H734 H 0.65923 0.88096 0.08746 0.0
H735 H 0.68053 0.87836 0.12584 0.0
H736 H 0.64797 0.86694 0.20368 0.0
H737 H 0.60335 0.86081 0.22155 0.0
H738 H 0.62346 0.77017 0.17643 0.0
H739 H 0.6487 0.77997 0.11153 0.0
H740 H 0.59486 0.93999 0.14853 0.0
H741 H 0.52169 0.91305 0.13195 0.0
C742 C 0.1956 0.55493 0.67807 0.0
C743 C 0.21648 0.54103 0.68355 0.0
C744 C 0.22973 0.53702 0.66513 0.0
C745 C 0.2171 0.54979 0.64964 0.0
N746 N 0.19686 0.56167 0.65713 0.0
Co747 Co 0.17984 0.58896 0.64158 0.0
N748 N 0.19069 0.57592 0.61338 0.0
C749 C 0.20976 0.56008 0.6103 0.0
C750 C 0.21309 0.5538 0.58925 0.0
C751 C 0.19526 0.56682 0.57834 0.0
C752 C 0.18223 0.58077 0.59338 0.0
N753 N 0.163 0.61615 0.62593 0.0
C754 C 0.15696 0.61818 0.60485 0.0
C755 C 0.14619 0.64111 0.60082 0.0
C756 C 0.14583 0.65379 0.61995 0.0
C757 C 0.15635 0.63799 0.63463 0.0
N758 N 0.16969 0.60183 0.67001 0.0
C759 C 0.16415 0.62573 0.6739 0.0
C760 C 0.16186 0.63066 0.69534 0.0
C761 C 0.16614 0.60838 0.70544 0.0
C762 C 0.16981 0.59063 0.68958 0.0
N763 N 0.2108 0.6097 0.64315 0.0
C764 C 0.25031 0.64501 0.64767 0.0
C765 C 0.24343 0.62884 0.66439 0.0
C766 C 0.22387 0.61164 0.66188 0.0
C767 C 0.23762 0.64183 0.62815 0.0
C768 C 0.2182 0.62418 0.62622 0.0
N769 N 0.14843 0.56957 0.64006 0.0
C770 C 0.10361 0.56873 0.64511 0.0
C771 C 0.10172 0.54568 0.63498 0.0
C772 C 0.12395 0.53453 0.62779 0.0
C773 C 0.14713 0.54654 0.63083 0.0
C774 C 0.12682 0.58043 0.64716 0.0
H775 H 0.16389 0.5375 0.62527 0.0
H776 H 0.12701 0.59876 0.654 0.0
H777 H 0.21887 0.60044 0.67548 0.0
H778 H 0.20859 0.62294 0.61112 0.0
C779 C 0.22232 0.54965 0.62772 0.0
C780 C 0.17665 0.56413 0.6934 0.0
C781 C 0.16389 0.60015 0.58797 0.0
C782 C 0.15837 0.64182 0.65686 0.0
H783 H 0.22237 0.53531 0.69932 0.0
H784 H 0.24675 0.52644 0.66337 0.0
H785 H 0.22653 0.54092 0.58264 0.0
H786 H 0.19261 0.56633 0.56121 0.0
H787 H 0.13995 0.64819 0.58555 0.0
H788 H 0.13857 0.67224 0.62279 0.0
H789 H 0.15757 0.64829 0.70279 0.0
H790 H 0.16742 0.60595 0.72255 0.0
H791 H 0.25286 0.62958 0.67966 0.0
H792 H 0.24193 0.65353 0.61459 0.0
H793 H 0.08703 0.57827 0.65063 0.0
H794 H 0.12342 0.51669 0.61981 0.0
C795 C 0.47511 0.19394 0.1728 0.0
C796 C 0.49645 0.20826 0.17541 0.0
C797 C 0.50024 0.22061 0.15663 0.0
C798 C 0.48143 0.21291 0.14342 0.0
N799 N 0.46599 0.19635 0.15264 0.0
Co800 Co 0.43807 0.17879 0.13813 0.0
N801 N 0.45103 0.18736 0.10919 0.0
C802 C 0.46823 0.20484 0.10489 0.0
C803 C 0.47414 0.20648 0.08362 0.0
C804 C 0.45956 0.18913 0.07376 0.0
C805 C 0.44526 0.17801 0.08963 0.0
N806 N 0.41009 0.16153 0.12351 0.0
C807 C 0.40721 0.15481 0.10265 0.0
C808 C 0.38407 0.14401 0.09943 0.0
C809 C 0.37209 0.14415 0.11888 0.0
C810 C 0.38848 0.15507 0.13289 0.0
N811 N 0.42575 0.17016 0.16721 0.0
C812 C 0.40251 0.16252 0.17179 0.0
C813 C 0.39913 0.15796 0.19322 0.0
C814 C 0.42165 0.16316 0.2027 0.0
C815 C 0.43765 0.17057 0.18651 0.0
N816 N 0.41738 0.20981 0.13842 0.0
C817 C 0.37993 0.24759 0.13948 0.0
C818 C 0.39454 0.24212 0.1576 0.0
C819 C 0.41309 0.22327 0.15674 0.0
C820 C 0.38599 0.23478 0.12058 0.0
C821 C 0.40449 0.21632 0.12036 0.0
N822 N 0.45747 0.14736 0.1378 0.0
C823 C 0.45828 0.1026 0.14224 0.0
C824 C 0.48389 0.10171 0.13817 0.0
C825 C 0.49599 0.12432 0.13372 0.0
C826 C 0.48244 0.1468 0.13329 0.0
C827 C 0.44561 0.12542 0.14229 0.0
H828 H 0.49222 0.16373 0.12952 0.0
H829 H 0.42612 0.12517 0.14628 0.0
H830 H 0.42321 0.21893 0.17117 0.0
H831 H 0.40738 0.20649 0.10558 0.0
C832 C 0.48108 0.21656 0.12138 0.0
C833 C 0.4633 0.17974 0.19026 0.0
C834 C 0.42494 0.16044 0.08524 0.0
C835 C 0.38585 0.15648 0.15524 0.0
H836 H 0.50831 0.20956 0.18933 0.0
H837 H 0.51577 0.23257 0.15268 0.0
H838 H 0.48802 0.21826 0.07623 0.0
H839 H 0.4594 0.18536 0.05677 0.0
H840 H 0.37653 0.1371 0.08453 0.0
H841 H 0.35385 0.13666 0.12243 0.0
H842 H 0.38254 0.15094 0.20098 0.0
H843 H 0.4258 0.1618 0.21959 0.0
H844 H 0.39085 0.25141 0.17263 0.0
H845 H 0.37583 0.23843 0.10596 0.0
H846 H 0.44816 0.08581 0.14616 0.0
H847 H 0.51582 0.12464 0.13055 0.0
H848 H 0.06418 0.49709 0.16389 0.0
H849 H 0.07935 0.4938 0.09592 0.0
H850 H 0.03612 0.50751 0.08843 0.0
H851 H 1.00106 0.47625 0.16264 0.0
H852 H 0.99003 0.49743 0.18287 0.0
H853 H 0.02206 0.48741 0.18296 0.0
H854 H 0.03682 0.53311 0.18196 0.0
H855 H 1.00484 0.54328 0.18214 0.0
H856 H 0.02555 0.55337 0.16118 0.0
H857 H 0.98952 0.51869 0.08846 0.0
H858 H 0.94633 0.53261 0.09591 0.0
H859 H 0.96221 0.53251 0.1638 0.0
C860 C 0.05846 0.49956 0.14743 0.0
C861 C 0.07531 0.49441 0.13045 0.0
C862 C 0.06699 0.49787 0.10917 0.0
C863 C 0.04235 0.50546 0.10478 0.0
C864 C 0.02611 0.51004 0.12184 0.0
C865 C 0.03404 0.50777 0.14278 0.0
C866 C 1.01317 0.51476 0.1582 0.0
C867 C 1.00617 0.49264 0.17251 0.0
C868 C 0.02054 0.53748 0.17167 0.0
C869 C 0.99217 0.52101 0.14275 0.0
C870 C 0.99989 0.51777 0.12184 0.0
C871 C 0.98346 0.5215 0.10479 0.0
C872 C 0.95884 0.52923 0.10917 0.0
C873 C 0.95073 0.53365 0.1304 0.0
C874 C 0.96777 0.52933 0.14737 0.0
H875 H 0.47982 0.96899 0.65854 0.0
H876 H 0.51209 0.93992 0.59995 0.0
H877 H 0.53185 0.98046 0.5932 0.0
H878 H 0.46648 0.0307 0.63836 0.0
H879 H 0.47435 0.04616 0.66302 0.0
H880 H 0.46269 0.0148 0.6635 0.0
H881 H 0.50171 1.00061 0.68445 0.0
H882 H 0.51339 0.03193 0.68416 0.0
H883 H 0.53224 1.00699 0.67375 0.0
H884 H 0.54854 0.02444 0.59265 0.0
H885 H 0.56215 0.06765 0.59927 0.0
H886 H 0.51882 0.06937 0.6577 0.0
C887 C 0.49089 0.9711 0.64419 0.0
C888 C 0.4943 0.95083 0.62983 0.0
C889 C 0.50935 0.95469 0.61146 0.0
C890 C 0.52053 0.97786 0.60735 0.0
C891 C 0.51664 0.99734 0.62171 0.0
C892 C 0.50227 0.9942 0.63983 0.0
C893 C 0.50144 0.01814 0.65286 0.0
C894 C 0.47464 0.02803 0.65453 0.0
C895 C 0.51288 0.01417 0.67513 0.0
C896 C 0.5176 0.03522 0.63926 0.0
C897 C 0.52609 0.02279 0.62131 0.0
C898 C 0.54182 0.03433 0.60658 0.0
C899 C 0.54938 0.05895 0.61039 0.0
C900 C 0.5412 0.07209 0.62873 0.0
C901 C 0.52492 0.06003 0.64328 0.0
H902 H 0.07352 0.51286 0.39422 0.0
H903 H 0.06219 0.56856 0.34503 0.0
H904 H 0.0183 0.55651 0.3422 0.0
H905 H 0.03221 0.46628 0.36889 0.0
H906 H 0.02054 0.45471 0.39401 0.0
H907 H 0.0515 0.46751 0.39244 0.0
H908 H 0.04056 0.49839 0.42273 0.0
H909 H 1.00949 0.48585 0.42423 0.0
H910 H 1.01401 0.51859 0.41978 0.0
H911 H 0.97457 0.54098 0.34609 0.0
H912 H 0.9352 0.51866 0.35295 0.0
H913 H 0.97359 0.47017 0.39738 0.0
C914 C 0.06191 0.52229 0.38266 0.0
C915 C 0.0716 0.54229 0.37029 0.0
C916 C 0.05544 0.55386 0.35529 0.0
C917 C 0.03031 0.54703 0.35343 0.0
C918 C 0.02118 0.52807 0.36631 0.0
C919 C 0.03651 0.51541 0.38032 0.0
C920 C 0.02167 0.49524 0.39182 0.0
C921 C 0.0321 0.4694 0.38647 0.0
C922 C 0.02143 0.49979 0.41608 0.0
C923 C 0.99574 0.49884 0.38223 0.0
C924 C 0.99594 0.51812 0.36773 0.0
C925 C 0.97425 0.52568 0.35729 0.0
C926 C 0.95184 0.513 0.36143 0.0
C927 C 0.95105 0.49263 0.37571 0.0
C928 C 0.97348 0.48557 0.38627 0.0
H929 H 0.51602 0.95778 0.86074 0.0
H930 H 0.57245 0.96463 0.90985 0.0
H931 H 0.56125 1.00877 0.91493 0.0
H932 H 0.52667 0.01758 0.83731 0.0
H933 H 0.49438 0.02367 0.83143 0.0
H934 H 0.50554 0.99217 0.83254 0.0
H935 H 0.47206 0.98157 0.86093 0.0
H936 H 0.4607 0.01301 0.8598 0.0
H937 H 0.47011 0.99987 0.88502 0.0
H938 H 0.54444 0.05274 0.91427 0.0
H939 H 0.52322 0.09266 0.90826 0.0
H940 H 0.47924 0.05858 0.85785 0.0
C941 C 0.52564 0.96851 0.87282 0.0
C942 C 0.54491 0.95763 0.88514 0.0
C943 C 0.5575 0.97249 0.9004 0.0
C944 C 0.55129 0.99762 0.90336 0.0
C945 C 0.53252 1.00795 0.89079 0.0
C946 C 0.51984 0.99389 0.87581 0.0
C947 C 0.5011 1.00992 0.86386 0.0
C948 C 0.5073 1.01089 0.83986 0.0
C949 C 0.47441 1.00053 0.86763 0.0
C950 C 0.50522 0.03507 0.87445 0.0
C951 C 0.52336 0.03348 0.88999 0.0
C952 C 0.53026 0.05418 0.90205 0.0
C953 C 0.5182 0.077 0.89832 0.0
C954 C 0.49937 0.07932 0.88251 0.0
C955 C 0.49314 0.05781 0.87034 0.0
H956 H 0.97123 0.55246 0.85926 0.0
H957 H 0.93642 0.50819 0.90904 0.0
H958 H 0.97628 0.48661 0.91501 0.0
H959 H 1.01135 0.50472 0.83826 0.0
H960 H 0.03715 0.52537 0.83342 0.0
H961 H 1.00573 0.53706 0.83268 0.0
H962 H 0.01713 0.57008 0.8611 0.0
H963 H 0.04857 0.5584 0.86203 0.0
H964 H 0.03036 0.56036 0.88621 0.0
H965 H 0.0201 0.46948 0.9157 0.0
H966 H 0.06411 0.45746 0.91032 0.0
H967 H 0.0718 0.51383 0.86141 0.0
C968 C 0.97188 0.53838 0.87157 0.0
C969 C 0.95022 0.53216 0.88361 0.0
C970 C 0.95227 0.51319 0.89924 0.0
C971 C 0.97503 0.50092 0.90294 0.0
C972 C 0.99591 0.50775 0.89099 0.0
C973 C 0.99456 0.52602 0.87558 0.0
C974 C 0.01984 0.52977 0.86493 0.0
C975 C 0.01842 0.52387 0.8409 0.0
C976 C 0.02954 0.55623 0.8688 0.0
C977 C 0.03562 0.51071 0.87671 0.0
C978 C 0.02135 0.49823 0.89168 0.0
C979 C 0.03142 0.47927 0.90412 0.0
C980 C 0.05648 0.47261 0.90101 0.0
C981 C 0.07152 0.4849 0.88569 0.0
C982 C 0.06093 0.50443 0.87354 0.0
H983 H 0.51577 0.069 0.3603 0.0
H984 H 0.55963 0.06829 0.41835 0.0
H985 H 0.54782 0.02444 0.42456 0.0
H986 H 0.46521 0.02884 0.38014 0.0
H987 H 0.4612 0.01319 0.3549 0.0
H988 H 0.47218 0.04478 0.35552 0.0
H989 H 0.51101 0.03191 0.33359 0.0
H990 H 0.50023 1.00027 0.33301 0.0
H991 H 0.53077 1.00733 0.3433 0.0
H992 H 0.53234 0.97992 0.42385 0.0
H993 H 0.5134 0.93902 0.41718 0.0
H994 H 0.47974 0.96756 0.35906 0.0
C995 C 0.52247 0.05967 0.37449 0.0
C996 C 0.53833 0.07221 0.38908 0.0
C997 C 0.54718 0.05919 0.40719 0.0
C998 C 0.54064 0.03423 0.41078 0.0
C999 C 0.52518 0.02227 0.39607 0.0
C1000 C 0.51605 0.03459 0.37834 0.0
C1001 C 0.50009 0.01718 0.36486 0.0
C1002 C 0.47306 0.02656 0.36379 0.0
C1003 C 0.5112 0.01399 0.34236 0.0
C1004 C 0.50184 0.99316 0.37765 0.0
C1005 C 0.51641 0.99656 0.3956 0.0
C1006 C 0.52092 0.97711 0.40981 0.0
C1007 C 0.51019 0.95372 0.40573 0.0
C1008 C 0.495 0.94954 0.3875 0.0
C1009 C 0.49095 0.96982 0.3733 0.0
H1010 H 0.96287 0.49733 0.66319 0.0
H1011 H 0.94884 0.49348 0.5951 0.0
H1012 H 0.99197 0.50781 0.58797 0.0
H1013 H 1.00089 0.55418 0.66065 0.0
H1014 H 0.02136 0.54438 0.68185 0.0
H1015 H 0.98948 0.53393 0.68139 0.0
H1016 H 1.00466 0.48837 0.68273 0.0
H1017 H 0.03659 0.49867 0.68292 0.0
H1018 H 0.0261 0.47729 0.66267 0.0
H1019 H 0.0384 0.51942 0.58843 0.0
H1020 H 0.08143 0.53345 0.59626 0.0
H1021 H 0.06449 0.53364 0.66399 0.0
C1022 C 0.96881 0.49987 0.64679 0.0
C1023 C 0.95234 0.49436 0.62966 0.0
C1024 C 0.96092 0.49784 0.60844 0.0
C1025 C 0.9855 0.50579 0.60427 0.0
C1026 C 1.00138 0.51069 0.62148 0.0
C1027 C 0.99316 0.50841 0.64234 0.0
C1028 C 1.01369 0.51566 0.65795 0.0
C1029 C 1.00589 0.53839 0.67125 0.0
C1030 C 0.02067 0.49368 0.67242 0.0
C1031 C 0.03488 0.52202 0.64268 0.0
C1032 C 0.02751 0.51865 0.6217 0.0
C1033 C 0.04417 0.52236 0.60481 0.0
C1034 C 0.0687 0.53015 0.6094 0.0
C1035 C 0.07646 0.53465 0.6307 0.0
C1036 C 0.05917 0.53042 0.64752 0.0
H1037 H 0.4749 0.05585 0.11877 0.0
H1038 H 0.52471 0.09301 0.16293 0.0
H1039 H 0.54685 0.05346 0.16913 0.0
H1040 H 0.47113 0.99696 0.14623 0.0
H1041 H 0.47187 0.97826 0.12233 0.0
H1042 H 0.4593 1.00926 0.12145 0.0
H1043 H 0.49012 0.02071 0.0912 0.0
H1044 H 0.50264 0.98969 0.09187 0.0
H1045 H 0.52304 0.01597 0.09517 0.0
H1046 H 0.56176 1.00959 0.17263 0.0
H1047 H 0.57303 0.96579 0.16961 0.0
H1048 H 0.51727 0.95594 0.11997 0.0
C1049 C 0.49055 0.05562 0.12967 0.0
C1050 C 0.49804 0.07771 0.14041 0.0
C1051 C 0.51871 0.07656 0.15442 0.0
C1052 C 0.5313 0.05407 0.15814 0.0
C1053 C 0.52341 0.03268 0.14749 0.0
C1054 C 0.50383 0.03327 0.1332 0.0
C1055 C 0.50003 1.00762 0.12322 0.0
C1056 C 0.47403 0.99743 0.12863 0.0
C1057 C 0.50421 1.00856 0.09892 0.0
C1058 C 0.52039 0.99253 0.13427 0.0
C1059 C 0.5333 1.00746 0.14841 0.0
C1060 C 0.5522 0.99793 0.16118 0.0
C1061 C 0.55867 0.9728 0.15911 0.0
C1062 C 0.54692 0.957 0.1439 0.0
C1063 C 0.52701 0.96718 0.13161 0.0
H1064 H 0.16593 0.52182 0.31159 0.0
H1065 H 0.17933 0.59319 0.28182 0.0
H1066 H 0.17329 0.57438 0.24645 0.0
H1067 H 0.20801 0.49306 0.27372 0.0
H1068 H 0.19231 0.46349 0.27399 0.0
H1069 H 0.19113 0.4833 0.29718 0.0
H1070 H 0.14295 0.48181 0.29615 0.0
H1071 H 0.14402 0.46229 0.27273 0.0
H1072 H 0.12684 0.49104 0.27216 0.0
H1073 H 0.16383 0.54736 0.21371 0.0
H1074 H 0.16548 0.51455 0.18632 0.0
H1075 H 0.17442 0.45934 0.23624 0.0
C1076 C 0.16713 0.53368 0.29767 0.0
C1077 C 0.17082 0.5598 0.30006 0.0
C1078 C 0.17374 0.57395 0.28108 0.0
C1079 C 0.17099 0.56317 0.26066 0.0
C1080 C 0.16708 0.53762 0.25904 0.0
C1081 C 0.1665 0.52287 0.27703 0.0
C1082 C 0.16739 0.49547 0.27069 0.0
C1083 C 0.19112 0.4831 0.27941 0.0
C1084 C 0.1439 0.48185 0.2784 0.0
C1085 C 0.168 0.49715 0.24631 0.0
C1086 C 0.16675 0.5217 0.24005 0.0
C1087 C 0.16544 0.52813 0.21851 0.0
C1088 C 0.16637 0.50923 0.203 0.0
C1089 C 0.16998 0.48392 0.20865 0.0
C1090 C 0.17063 0.47798 0.23087 0.0
H1091 H 0.52082 0.16229 0.70405 0.0
H1092 H 0.59236 0.1748 0.73428 0.0
H1093 H 0.57292 0.17004 0.76959 0.0
H1094 H 0.49164 0.20491 0.74136 0.0
H1095 H 0.46191 0.18937 0.74107 0.0
H1096 H 0.48199 0.18781 0.71801 0.0
H1097 H 0.4803 0.13984 0.71953 0.0
H1098 H 0.46053 0.14129 0.74283 0.0
H1099 H 0.48931 0.1241 0.74373 0.0
H1100 H 0.54563 0.16177 0.80206 0.0
H1101 H 0.51259 0.16444 0.82929 0.0
H1102 H 0.45737 0.17208 0.77906 0.0
C1103 C 0.53253 0.1636 0.71808 0.0
C1104 C 0.55882 0.16674 0.71594 0.0
C1105 C 0.57286 0.16988 0.73498 0.0
C1106 C 0.56178 0.16772 0.75531 0.0
C1107 C 0.5361 0.16415 0.75674 0.0
C1108 C 0.52145 0.16342 0.73865 0.0
C1109 C 0.49389 0.16449 0.74481 0.0
C1110 C 0.48163 0.18805 0.73578 0.0
C1111 C 0.4802 0.14103 0.73727 0.0
C1112 C 0.49541 0.16543 0.76919 0.0
C1113 C 0.52 0.16418 0.77561 0.0
C1114 C 0.52637 0.16333 0.79717 0.0
C1115 C 0.50734 0.16481 0.81257 0.0
C1116 C 0.48203 0.16841 0.80673 0.0
C1117 C 0.47609 0.16844 0.78451 0.0
H1118 H 0.85252 0.56671 0.23749 0.0
H1119 H 0.86491 0.51177 0.1878 0.0
H1120 H 0.86759 0.47916 0.21526 0.0
H1121 H 0.90049 0.5373 0.2743 0.0
H1122 H 0.88332 0.54597 0.29794 0.0
H1123 H 0.88199 0.56523 0.27441 0.0
H1124 H 0.83392 0.56195 0.27475 0.0
H1125 H 0.83509 0.54228 0.29799 0.0
H1126 H 0.81947 0.53175 0.27416 0.0
H1127 H 0.85894 0.45187 0.24771 0.0
H1128 H 0.85345 0.43267 0.28299 0.0
H1129 H 0.86197 0.50468 0.31308 0.0
C1130 C 0.85725 0.54821 0.23225 0.0
C1131 C 0.85862 0.54219 0.21006 0.0
C1132 C 0.86352 0.51709 0.20447 0.0
C1133 C 0.86503 0.49831 0.22001 0.0
C1134 C 0.86295 0.50477 0.24151 0.0
C1135 C 0.86045 0.52924 0.24775 0.0
C1136 C 0.86024 0.53097 0.27215 0.0
C1137 C 0.88286 0.54575 0.28017 0.0
C1138 C 0.83572 0.54242 0.28023 0.0
C1139 C 0.86217 0.50365 0.27848 0.0
C1140 C 0.86282 0.48889 0.26047 0.0
C1141 C 0.86022 0.46318 0.26197 0.0
C1142 C 0.85768 0.45226 0.28231 0.0
C1143 C 0.85948 0.46654 0.30135 0.0
C1144 C 0.86167 0.49282 0.2991 0.0
H1145 H 0.54845 0.81932 0.7954 0.0
H1146 H 0.55623 0.89818 0.80685 0.0
H1147 H 0.53184 0.90686 0.77397 0.0
H1148 H 0.55007 0.82057 0.73733 0.0
H1149 H 0.52658 0.79692 0.73445 0.0
H1150 H 0.54637 0.7972 0.7577 0.0
H1151 H 0.50745 0.79822 0.78218 0.0
H1152 H 0.48754 0.79801 0.75901 0.0
H1153 H 0.48458 0.82236 0.77864 0.0
H1154 H 0.50499 0.90656 0.73953 0.0
H1155 H 0.47946 0.89732 0.7074 0.0
H1156 H 0.48529 0.81874 0.72093 0.0
C1157 C 0.54498 0.83844 0.79102 0.0
C1158 C 0.55402 0.85812 0.804 0.0
C1159 C 0.5495 0.88282 0.7973 0.0
C1160 C 0.53552 0.88789 0.77866 0.0
C1161 C 0.52597 0.86806 0.76675 0.0
C1162 C 0.53054 0.84379 0.77275 0.0
C1163 C 0.51731 0.82576 0.75784 0.0
C1164 C 0.53622 0.80913 0.74614 0.0
C1165 C 0.49808 0.81017 0.77015 0.0
C1166 C 0.50463 0.84356 0.74243 0.0
C1167 C 0.51001 0.8679 0.74768 0.0
C1168 C 0.50076 0.88752 0.73538 0.0
C1169 C 0.48615 0.88213 0.71717 0.0
C1170 C 0.48067 0.85732 0.71128 0.0
C1171 C 0.48959 0.83791 0.72458 0.0
H1172 H 0.8603 0.52144 0.81291 0.0
H1173 H 0.85123 0.5933 0.78284 0.0
H1174 H 0.85785 0.57426 0.74761 0.0
H1175 H 0.90045 0.4897 0.77488 0.0
H1176 H 0.88257 0.46139 0.77467 0.0
H1177 H 0.8828 0.48078 0.79818 0.0
H1178 H 0.83467 0.48352 0.79734 0.0
H1179 H 0.8343 0.4638 0.77407 0.0
H1180 H 0.81937 0.49376 0.77328 0.0
H1181 H 0.86795 0.54723 0.71528 0.0
H1182 H 0.86669 0.51461 0.68768 0.0
H1183 H 0.8543 0.4593 0.73697 0.0
C1184 C 0.86014 0.5333 0.79894 0.0
C1185 C 0.85759 0.55954 0.8012 0.0
C1186 C 0.85586 0.5738 0.78218 0.0
C1187 C 0.85903 0.56295 0.76186 0.0
C1188 C 0.86216 0.53731 0.76035 0.0
C1189 C 0.86136 0.5225 0.77831 0.0
C1190 C 0.86015 0.49515 0.77186 0.0
C1191 C 0.88285 0.48092 0.78041 0.0
C1192 C 0.83567 0.48336 0.77959 0.0
C1193 C 0.86094 0.49696 0.74749 0.0
C1194 C 0.86311 0.52148 0.74136 0.0
C1195 C 0.86567 0.52802 0.71992 0.0
C1196 C 0.86501 0.50925 0.70431 0.0
C1197 C 0.86054 0.48405 0.70976 0.0
C1198 C 0.85869 0.47794 0.73189 0.0
H1199 H 0.48766 0.88095 0.30022 0.0
H1200 H 0.47529 0.80173 0.30564 0.0
H1201 H 0.50131 0.79462 0.27365 0.0
H1202 H 0.48385 0.88065 0.24063 0.0
H1203 H 0.50673 0.90486 0.2376 0.0
H1204 H 0.48741 0.90387 0.26117 0.0
H1205 H 0.527 0.9037 0.28472 0.0
H1206 H 0.54643 0.90416 0.26121 0.0
H1207 H 0.55017 0.8799 0.28076 0.0
H1208 H 0.53296 0.79541 0.24401 0.0
H1209 H 0.55835 0.80425 0.21197 0.0
H1210 H 0.54611 0.88308 0.22092 0.0
C1211 C 0.49016 0.86218 0.29443 0.0
C1212 C 0.47998 0.84177 0.30592 0.0
C1213 C 0.4833 0.81757 0.29748 0.0
C1214 C 0.4982 0.81334 0.27935 0.0
C1215 C 0.50905 0.83358 0.26906 0.0
C1216 C 0.50442 0.85763 0.27569 0.0
C1217 C 0.51709 0.87598 0.26054 0.0
C1218 C 0.49761 0.89231 0.24932 0.0
C1219 C 0.53631 0.89188 0.27253 0.0
C1220 C 0.52987 0.85846 0.2447 0.0
C1221 C 0.52539 0.83409 0.25038 0.0
C1222 C 0.5361 0.81442 0.23914 0.0
C1223 C 0.55072 0.81962 0.22105 0.0
C1224 C 0.55401 0.84428 0.21367 0.0
C1225 C 0.5439 0.86403 0.22605 0.0
H1226 H 0.18903 0.45583 0.78287 0.0
H1227 H 0.14066 0.49972 0.8234 0.0
H1228 H 0.13328 0.52894 0.7935 0.0
H1229 H 0.21809 0.50574 0.75705 0.0
H1230 H 0.22002 0.49156 0.73099 0.0
H1231 H 0.21932 0.47242 0.75456 0.0
H1232 H 0.18093 0.4488 0.74 0.0
H1233 H 0.1818 0.46757 0.71618 0.0
H1234 H 0.1537 0.46598 0.73193 0.0
H1235 H 0.13227 0.55448 0.75876 0.0
H1236 H 0.1399 0.57498 0.72449 0.0
H1237 H 0.18832 0.51425 0.70605 0.0
C1238 C 0.17623 0.47113 0.78517 0.0
C1239 C 0.16483 0.47509 0.80538 0.0
C1240 C 0.14908 0.49598 0.80798 0.0
C1241 C 0.14486 0.51274 0.79106 0.0
C1242 C 0.15658 0.50857 0.77142 0.0
C1243 C 0.17182 0.48814 0.76835 0.0
C1244 C 0.18326 0.48876 0.74604 0.0
C1245 C 0.21187 0.48967 0.74724 0.0
C1246 C 0.17439 0.46645 0.73275 0.0
C1247 C 0.17271 0.51301 0.73734 0.0
C1248 C 0.15723 0.52403 0.75213 0.0
C1249 C 0.14527 0.54638 0.7475 0.0
C1250 C 0.1504 0.55841 0.72792 0.0
C1251 C 0.16827 0.54896 0.71313 0.0
C1252 C 0.17761 0.5246 0.71754 0.0
H1253 H 0.54142 0.14258 0.29724 0.0
H1254 H 0.54961 0.22177 0.30725 0.0
H1255 H 0.52347 0.22992 0.27562 0.0
H1256 H 0.54588 0.14789 0.23772 0.0
H1257 H 0.52443 0.12275 0.23302 0.0
H1258 H 0.54345 0.1229 0.25675 0.0
H1259 H 0.50371 0.11895 0.27992 0.0
H1260 H 0.48454 0.11933 0.25628 0.0
H1261 H 0.47926 0.14169 0.27726 0.0
H1262 H 0.49162 0.22971 0.24623 0.0
H1263 H 0.46676 0.22212 0.2137 0.0
H1264 H 0.48398 0.14366 0.21738 0.0
C1265 C 0.538 0.1616 0.29252 0.0
C1266 C 0.54695 0.18159 0.30527 0.0
C1267 C 0.5425 0.20618 0.29817 0.0
C1268 C 0.52751 0.211 0.28025 0.0
C1269 C 0.51782 0.19105 0.26875 0.0
C1270 C 0.52372 0.16683 0.27395 0.0
C1271 C 0.51224 0.14907 0.25759 0.0
C1272 C 0.53272 0.13481 0.24555 0.0
C1273 C 0.49385 0.1312 0.26842 0.0
C1274 C 0.49864 0.1671 0.24276 0.0
C1275 C 0.50165 0.19115 0.25 0.0
C1276 C 0.48973 0.21103 0.24008 0.0
C1277 C 0.47545 0.20652 0.22167 0.0
C1278 C 0.47385 0.18245 0.2126 0.0
C1279 C 0.48506 0.16232 0.22373 0.0
H1280 H 0.13754 0.44759 0.96198 0.0
H1281 H 0.17983 0.38047 0.95024 0.0
H1282 H 0.17963 0.37126 0.98894 0.0
H1283 H 0.1709 0.46462 1.00832 0.0
H1284 H 0.14462 0.47764 0.02235 0.0
H1285 H 0.14499 0.47722 0.99357 0.0
H1286 H 0.10297 0.45362 0.99335 0.0
H1287 H 0.10248 0.45397 0.02218 0.0
H1288 H 0.10011 0.42494 1.00797 0.0
H1289 H 0.17842 0.3713 0.02941 0.0
H1290 H 0.1774 0.38125 0.06802 0.0
H1291 H 0.13662 0.44876 0.05444 0.0
C1292 C 0.14608 0.43058 0.96756 0.0
C1293 C 0.15795 0.41428 0.95288 0.0
C1294 C 0.16984 0.39275 0.96096 0.0
C1295 C 0.16998 0.38748 0.983 0.0
C1296 C 0.15839 0.40402 0.99704 0.0
C1297 C 0.14669 0.4252 0.98965 0.0
C1298 C 0.13761 0.44103 1.00829 0.0
C1299 C 0.15029 0.46664 1.00811 0.0
C1300 C 0.10909 0.44353 1.00792 0.0
C1301 C 0.14617 0.4256 0.02729 0.0
C1302 C 0.15797 0.40422 0.02042 0.0
C1303 C 0.1688 0.38775 0.03493 0.0
C1304 C 0.16795 0.39343 0.0569 0.0
C1305 C 0.15627 0.41537 0.06439 0.0
C1306 C 0.14499 0.43147 0.04928 0.0
H1307 H 0.58281 0.13711 0.46291 0.0
H1308 H 0.64954 0.17934 0.44921 0.0
H1309 H 0.65976 0.18012 0.48775 0.0
H1310 H 0.56628 0.17131 0.50815 0.0
H1311 H 0.55375 0.14568 0.52321 0.0
H1312 H 0.55374 0.14467 0.49444 0.0
H1313 H 0.57805 0.10317 0.49518 0.0
H1314 H 0.57796 0.10392 0.524 0.0
H1315 H 0.607 0.10129 0.50968 0.0
H1316 H 0.66006 0.18084 0.52823 0.0
H1317 H 0.65082 0.18081 0.56699 0.0
H1318 H 0.58344 0.13882 0.55523 0.0
C1319 C 0.60008 0.14564 0.46801 0.0
C1320 C 0.61585 0.15742 0.45288 0.0
C1321 C 0.63767 0.16941 0.4603 0.0
C1322 C 0.64348 0.17016 0.48225 0.0
C1323 C 0.6272 0.15899 0.49679 0.0
C1324 C 0.60597 0.14684 0.48996 0.0
C1325 C 0.59038 0.13844 0.50898 0.0
C1326 C 0.56451 0.15076 0.50867 0.0
C1327 C 0.58823 0.11001 0.50949 0.0
C1328 C 0.60597 0.14796 0.52756 0.0
C1329 C 0.62722 0.15965 0.52015 0.0
C1330 C 0.64376 0.17126 0.53418 0.0
C1331 C 0.63845 0.17103 0.55623 0.0
C1332 C 0.61685 0.15914 0.56428 0.0
C1333 C 0.60046 0.14742 0.54964 0.0
H1334 H 0.88567 0.57737 0.05654 0.0
H1335 H 0.84634 0.64607 0.06897 0.0
H1336 H 0.84539 0.65493 0.0302 0.0
H1337 H 0.92241 0.59895 0.00946 0.0
H1338 H 0.9189 0.56983 0.99557 0.0
H1339 H 0.91942 0.57051 0.02439 0.0
H1340 H 0.87695 0.54778 0.02531 0.0
H1341 H 0.87616 0.54723 0.99654 0.0
H1342 H 0.85075 0.5609 0.01129 0.0
H1343 H 0.84443 0.65409 0.98981 0.0
H1344 H 0.84489 0.64441 0.95116 0.0
H1345 H 0.88489 0.57622 0.96399 0.0
C1346 C 0.87768 0.59469 0.05108 0.0
C1347 C 0.86682 0.61146 0.06593 0.0
C1348 C 0.85555 0.6334 0.05807 0.0
C1349 C 0.85471 0.63845 0.036 0.0
C1350 C 0.86509 0.62132 0.02178 0.0
C1351 C 0.87651 0.59992 0.029 0.0
C1352 C 0.88456 0.58372 0.01024 0.0
C1353 C 0.91302 0.58057 0.0099 0.0
C1354 C 0.87132 0.55841 0.01089 0.0
C1355 C 0.87568 0.59918 0.99137 0.0
C1356 C 0.86453 0.62084 0.99843 0.0
C1357 C 0.85359 0.63745 0.98413 0.0
C1358 C 0.85404 0.63187 0.96215 0.0
C1359 C 0.86557 0.60995 0.95441 0.0
C1360 C 0.87652 0.59343 0.96934 0.0
H1361 H 0.44649 0.88798 0.55565 0.0
H1362 H 0.37845 0.84725 0.56786 0.0
H1363 H 0.3687 0.84779 0.52922 0.0
H1364 H 0.42345 0.92606 0.50983 0.0
H1365 H 0.45249 0.92332 0.49552 0.0
H1366 H 0.45228 0.92297 0.52435 0.0
H1367 H 0.4756 0.88088 0.52406 0.0
H1368 H 0.47584 0.88108 0.49529 0.0
H1369 H 0.46259 0.85512 0.50944 0.0
H1370 H 0.36909 0.84789 0.48878 0.0
H1371 H 0.37955 0.8476 0.45027 0.0
H1372 H 0.44701 0.88886 0.46348 0.0
C1373 C 0.42911 0.87999 0.5502 0.0
C1374 C 0.41278 0.86832 0.56493 0.0
C1375 C 0.39077 0.85707 0.55706 0.0
C1376 C 0.38519 0.85712 0.53507 0.0
C1377 C 0.40185 0.86841 0.52094 0.0
C1378 C 0.42335 0.87974 0.5282 0.0
C1379 C 0.43924 0.88854 0.50951 0.0
C1380 C 0.44202 0.91691 0.50983 0.0
C1381 C 0.46483 0.87563 0.50959 0.0
C1382 C 0.42355 0.88009 0.49061 0.0
C1383 C 0.40199 0.8686 0.49757 0.0
C1384 C 0.3856 0.8574 0.48317 0.0
C1385 C 0.39156 0.85752 0.46124 0.0
C1386 C 0.41365 0.86895 0.45369 0.0
C1387 C 0.42957 0.88075 0.46867 0.0
H1388 H 0.19469 0.61374 0.46296 0.0
H1389 H 0.11808 0.59408 0.44979 0.0
H1390 H 0.10862 0.59552 0.48867 0.0
H1391 H 0.20124 0.57694 0.5093 0.0
H1392 H 0.22077 0.59863 0.52345 0.0
H1393 H 0.22071 0.59827 0.49467 0.0
H1394 H 0.20939 0.645 0.49419 0.0
H1395 H 0.20943 0.6455 0.52301 0.0
H1396 H 0.18226 0.65565 0.50853 0.0
H1397 H 0.10875 0.5955 0.52985 0.0
H1398 H 0.11845 0.59417 0.56867 0.0
H1399 H 0.19467 0.61504 0.55498 0.0
C1400 C 0.17583 0.61019 0.4683 0.0
C1401 C 0.15704 0.60387 0.45337 0.0
C1402 C 0.13266 0.59908 0.46094 0.0
C1403 C 0.12718 0.59983 0.48301 0.0
C1404 C 0.14625 0.60559 0.49742 0.0
C1405 C 0.17008 0.61086 0.49029 0.0
C1406 C 0.18756 0.61531 0.50902 0.0
C1407 C 0.20882 0.59615 0.5091 0.0
C1408 C 0.19776 0.64195 0.50866 0.0
C1409 C 0.17003 0.61141 0.52783 0.0
C1410 C 0.14624 0.60587 0.52086 0.0
C1411 C 0.12726 0.60011 0.5354 0.0
C1412 C 0.13287 0.59948 0.55744 0.0
C1413 C 0.15724 0.60452 0.56487 0.0
C1414 C 0.17581 0.61124 0.54979 0.0
H1415 H 0.40834 0.19081 0.96105 0.0
H1416 H 0.43348 0.11616 0.94736 0.0
H1417 H 0.43133 0.106 0.98605 0.0
H1418 H 0.44434 0.19877 1.00728 0.0
H1419 H 0.42156 0.21698 0.02155 0.0
H1420 H 0.42193 0.21711 0.99278 0.0
H1421 H 0.37567 0.20338 0.99224 0.0
H1422 H 0.37518 0.2032 0.02106 0.0
H1423 H 0.36645 0.17573 1.00639 0.0
H1424 H 0.4308 0.10568 0.02715 0.0
H1425 H 0.43224 0.11534 0.06598 0.0
H1426 H 0.40735 0.19015 0.05286 0.0
C1427 C 0.41285 0.17216 0.96621 0.0
C1428 C 0.42102 0.15419 0.95121 0.0
C1429 C 0.42704 0.1301 0.95855 0.0
C1430 C 0.42591 0.12423 0.98052 0.0
C1431 C 0.41856 0.14262 0.99503 0.0
C1432 C 0.412 0.1661 0.98809 0.0
C1433 C 0.4066 0.18313 1.00692 0.0
C1434 C 0.42468 0.2053 1.00714 0.0
C1435 C 0.37935 0.19187 1.00663 0.0
C1436 C 0.41145 0.16578 0.02559 0.0
C1437 C 0.41819 0.14242 0.01845 0.0
C1438 C 0.42517 0.12381 0.03283 0.0
C1439 C 0.42584 0.12937 0.05488 0.0
C1440 C 0.41963 0.15334 0.06243 0.0
C1441 C 0.41174 0.17152 0.04755 0.0
H1442 H 0.88438 0.44667 0.46287 0.0
H1443 H 0.84555 0.37749 0.45143 0.0
H1444 H 0.84608 0.36851 0.49019 0.0
H1445 H 0.92327 0.42561 0.50802 0.0
H1446 H 0.91997 0.45436 0.52251 0.0
H1447 H 0.91879 0.45428 0.4937 0.0
H1448 H 0.87574 0.47598 0.49489 0.0
H1449 H 0.87686 0.4762 0.52366 0.0
H1450 H 0.85081 0.46216 0.51011 0.0
H1451 H 0.84785 0.36849 0.53066 0.0
H1452 H 0.8494 0.37815 0.5693 0.0
H1453 H 0.88705 0.44734 0.55537 0.0
C1454 C 0.87652 0.42938 0.46854 0.0
C1455 C 0.86565 0.41236 0.45395 0.0
C1456 C 0.85472 0.39038 0.46212 0.0
C1457 C 0.85481 0.38521 0.48418 0.0
C1458 C 0.86568 0.4023 0.49813 0.0
C1459 C 0.87627 0.42401 0.49065 0.0
C1460 C 0.88512 0.44005 0.50922 0.0
C1461 C 0.91348 0.44379 0.5083 0.0
C1462 C 0.87131 0.46508 0.50948 0.0
C1463 C 0.87772 0.42409 0.52828 0.0
C1464 C 0.86663 0.40231 0.5215 0.0
C1465 C 0.85692 0.38527 0.53611 0.0
C1466 C 0.85811 0.39078 0.5581 0.0
C1467 C 0.86909 0.41309 0.56551 0.0
C1468 C 0.87928 0.42977 0.55027 0.0
H1469 H 0.62239 0.83339 0.05387 0.0
H1470 H 0.60689 0.91026 0.06884 0.0
H1471 H 0.60949 0.92079 0.03025 0.0
H1472 H 0.66448 0.84396 1.00718 0.0
H1473 H 0.65171 0.81797 0.99271 0.0
H1474 H 0.65256 0.81748 0.02152 0.0
H1475 H 0.60499 0.80947 0.02246 0.0
H1476 H 0.60396 0.8101 0.99372 0.0
H1477 H 0.58434 0.8307 0.00899 0.0
H1478 H 0.60862 0.92173 0.98917 0.0
H1479 H 0.60455 0.91296 0.95032 0.0
H1480 H 0.6202 0.8354 0.96212 0.0
C1481 C 0.6204 0.85257 0.04903 0.0
C1482 C 0.61476 0.87112 0.06437 0.0
C1483 C 0.61159 0.89588 0.0574 0.0
C1484 C 0.61291 0.90196 0.03548 0.0
C1485 C 0.61751 0.88307 0.02063 0.0
C1486 C 0.62139 0.85886 0.02719 0.0
C1487 C 0.62372 0.84157 1.00807 0.0
C1488 C 0.64967 0.82954 1.00733 0.0
C1489 C 0.60302 0.8218 1.00834 0.0
C1490 C 0.6202 0.85965 0.98969 0.0
C1491 C 0.61681 0.88356 0.99721 0.0
C1492 C 0.61162 0.90311 0.98319 0.0
C1493 C 0.60941 0.89803 0.96112 0.0
C1494 C 0.61223 0.87359 0.95319 0.0
C1495 C 0.61827 0.85433 0.96771 0.0
H1496 H 0.29435 0.37197 0.15907 0.0
H1497 H 0.23627 0.33237 0.12493 0.0
H1498 H 0.2635 0.29591 0.122 0.0
H1499 H 0.34598 0.34732 0.12855 0.0
H1500 H 0.36697 0.34423 0.15087 0.0
H1501 H 0.34283 0.36748 0.15141 0.0
H1502 H 0.32631 0.34963 0.18705 0.0
H1503 H 0.35044 0.32634 0.18663 0.0
H1504 H 0.31823 0.31721 0.18865 0.0
H1505 H 0.29684 0.26383 0.12107 0.0
H1506 H 0.33427 0.23768 0.12269 0.0
H1507 H 0.37304 0.29555 0.15766 0.0
C1508 C 0.28728 0.35552 0.15121 0.0
C1509 C 0.26289 0.3555 0.14203 0.0
C1510 C 0.25476 0.33339 0.13179 0.0
C1511 C 0.27014 0.31236 0.13012 0.0
C1512 C 0.29403 0.31312 0.13882 0.0
C1513 C 0.30268 0.33401 0.14928 0.0
C1514 C 0.32956 0.32954 0.15672 0.0
C1515 C 0.34739 0.34826 0.14626 0.0
C1516 C 0.33123 0.33076 0.18122 0.0
C1517 C 0.33458 0.30311 0.1486 0.0
C1518 C 0.31361 0.29418 0.13838 0.0
C1519 C 0.31334 0.27067 0.12907 0.0
C1520 C 0.33492 0.2559 0.12998 0.0
C1521 C 0.35703 0.26429 0.14012 0.0
C1522 C 0.35659 0.28831 0.14985 0.0
H1523 H 0.74675 0.35834 0.62168 0.0
H1524 H 0.77281 0.3533 0.68726 0.0
H1525 H 0.74271 0.31986 0.69408 0.0
H1526 H 0.68138 0.34616 0.63304 0.0
H1527 H 0.67641 0.32771 0.60937 0.0
H1528 H 0.69978 0.35172 0.60939 0.0
H1529 H 0.73314 0.31965 0.59805 0.0
H1530 H 0.70988 0.29554 0.59801 0.0
H1531 H 0.73762 0.29212 0.61394 0.0
H1532 H 0.71024 0.28581 0.69404 0.0
H1533 H 0.67799 0.2545 0.68729 0.0
H1534 H 0.6713 0.28062 0.62183 0.0
C1535 C 0.74627 0.35022 0.63749 0.0
C1536 C 0.76239 0.35914 0.65397 0.0
C1537 C 0.76061 0.34768 0.67437 0.0
C1538 C 0.74357 0.32833 0.67841 0.0
C1539 C 0.72806 0.32016 0.66196 0.0
C1540 C 0.72918 0.33073 0.64188 0.0
C1541 C 0.71028 0.31824 0.62706 0.0
C1542 C 0.69081 0.33709 0.61925 0.0
C1543 C 0.72352 0.30564 0.60814 0.0
C1544 C 0.69848 0.29901 0.64193 0.0
C1545 C 0.70911 0.30053 0.66198 0.0
C1546 C 0.70166 0.28469 0.67842 0.0
C1547 C 0.68295 0.26694 0.67441 0.0
C1548 C 0.6713 0.26483 0.65407 0.0
C1549 C 0.67952 0.2813 0.6376 0.0
H1550 H 0.76492 0.68841 0.12862 0.0
H1551 H 0.73133 0.63426 0.17118 0.0
H1552 H 0.69428 0.66089 0.17466 0.0
H1553 H 0.7413 0.74314 0.15564 0.0
H1554 H 0.73565 0.7603 0.13141 0.0
H1555 H 0.75984 0.73712 0.13215 0.0
H1556 H 0.73985 0.71482 0.09981 0.0
H1557 H 0.71559 0.73793 0.09898 0.0
H1558 H 0.70762 0.70554 0.10114 0.0
H1559 H 0.65988 0.69349 0.17349 0.0
H1560 H 0.63177 0.729 0.16812 0.0
H1561 H 0.68659 0.76319 0.12639 0.0
C1562 C 0.74976 0.68196 0.13859 0.0
C1563 C 0.75165 0.65889 0.14976 0.0
C1564 C 0.73109 0.65177 0.16273 0.0
C1565 C 0.70966 0.66681 0.1647 0.0
C1566 C 0.70853 0.68927 0.15362 0.0
C1567 C 0.72805 0.69688 0.14079 0.0
C1568 C 0.72198 0.72203 0.1307 0.0
C1569 C 0.74082 0.74182 0.13791 0.0
C1570 C 0.72122 0.71995 0.1062 0.0
C1571 C 0.69606 0.72733 0.13982 0.0
C1572 C 0.68871 0.70812 0.15299 0.0
C1573 C 0.66561 0.70865 0.16328 0.0
C1574 C 0.64971 0.72921 0.16022 0.0
C1575 C 0.65659 0.74951 0.14695 0.0
C1576 C 0.68029 0.74819 0.13653 0.0
H1577 H 0.2847 0.66657 0.61873 0.0
H1578 H 0.25943 0.67137 0.68463 0.0
H1579 H 0.2902 0.70405 0.69152 0.0
H1580 H 0.3503 0.67755 0.62932 0.0
H1581 H 0.35529 0.69643 0.60593 0.0
H1582 H 0.33146 0.67288 0.60581 0.0
H1583 H 0.29856 0.70582 0.59551 0.0
H1584 H 0.3223 0.72946 0.59558 0.0
H1585 H 0.29487 0.73309 0.61194 0.0
H1586 H 0.32377 0.73686 0.69185 0.0
H1587 H 0.35676 0.76754 0.68531 0.0
H1588 H 0.3615 0.74325 0.61918 0.0
C1589 C 0.28549 0.6745 0.63462 0.0
C1590 C 0.26947 0.66556 0.65118 0.0
C1591 C 0.27159 0.67686 0.67167 0.0
C1592 C 0.28902 0.69581 0.67577 0.0
C1593 C 0.30454 0.70388 0.65928 0.0
C1594 C 0.30294 0.69369 0.63906 0.0
C1595 C 0.32188 0.70615 0.62422 0.0
C1596 C 0.34086 0.68712 0.61582 0.0
C1597 C 0.30861 0.71942 0.60571 0.0
C1598 C 0.33429 0.72483 0.63928 0.0
C1599 C 0.32392 0.72308 0.65943 0.0
C1600 C 0.33207 0.73824 0.67612 0.0
C1601 C 0.35118 0.75561 0.67224 0.0
C1602 C 0.36244 0.75807 0.65177 0.0
C1603 C 0.35355 0.74226 0.63506 0.0
H1604 H 0.34744 0.75797 0.35009 0.0
H1605 H 0.38797 0.73624 0.40702 0.0
H1606 H 0.36 0.70039 0.41159 0.0
H1607 H 0.2866 0.74214 0.37029 0.0
H1608 H 0.27465 0.73044 0.34533 0.0
H1609 H 0.29872 0.75373 0.34533 0.0
H1610 H 0.32657 0.72538 0.32202 0.0
H1611 H 0.30255 0.702 0.32192 0.0
H1612 H 0.33348 0.69433 0.33096 0.0
H1613 H 0.32695 0.66755 0.41129 0.0
H1614 H 0.29079 0.64014 0.40644 0.0
H1615 H 0.26927 0.68172 0.35 0.0
C1616 C 0.35065 0.74541 0.3633 0.0
C1617 C 0.37024 0.75013 0.37818 0.0
C1618 C 0.37328 0.73331 0.39543 0.0
C1619 C 0.35743 0.71276 0.39815 0.0
C1620 C 0.33818 0.70886 0.38355 0.0
C1621 C 0.33463 0.72464 0.36642 0.0
C1622 C 0.31166 0.71642 0.35369 0.0
C1623 C 0.29173 0.7369 0.35366 0.0
C1624 C 0.31901 0.7091 0.33078 0.0
C1625 C 0.30289 0.69375 0.36642 0.0
C1626 C 0.31867 0.68982 0.38352 0.0
C1627 C 0.3145 0.67052 0.39794 0.0
C1628 C 0.29367 0.65502 0.39508 0.0
C1629 C 0.2767 0.65854 0.37794 0.0
C1630 C 0.28177 0.67818 0.36321 0.0
H1631 H 0.37109 0.29362 0.85509 0.0
H1632 H 0.33146 0.23617 0.88983 0.0
H1633 H 0.29461 0.26309 0.89212 0.0
H1634 H 0.34604 0.34522 0.88492 0.0
H1635 H 0.34308 0.36583 0.86239 0.0
H1636 H 0.36648 0.34184 0.86221 0.0
H1637 H 0.34888 0.32489 0.82661 0.0
H1638 H 0.32543 0.34886 0.82667 0.0
H1639 H 0.31638 0.31672 0.8249 0.0
H1640 H 0.26232 0.29602 0.89235 0.0
H1641 H 0.23612 0.33335 0.89042 0.0
H1642 H 0.29444 0.37166 0.85547 0.0
C1643 C 0.35454 0.28664 0.86293 0.0
C1644 C 0.35451 0.26256 0.87244 0.0
C1645 C 0.33236 0.25445 0.88268 0.0
C1646 C 0.31115 0.26964 0.88399 0.0
C1647 C 0.31189 0.29324 0.87494 0.0
C1648 C 0.3329 0.30183 0.86452 0.0
C1649 C 0.32847 0.32846 0.85679 0.0
C1650 C 0.34713 0.3464 0.8672 0.0
C1651 C 0.32988 0.32981 0.83228 0.0
C1652 C 0.3019 0.33342 0.86472 0.0
C1653 C 0.29286 0.31263 0.87505 0.0
C1654 C 0.26921 0.31238 0.88425 0.0
C1655 C 0.25444 0.33385 0.88315 0.0
C1656 C 0.26301 0.35576 0.87295 0.0
C1657 C 0.28712 0.3553 0.86329 0.0
H1658 H 0.6647 0.28285 0.39836 0.0
H1659 H 0.66726 0.2574 0.33249 0.0
H1660 H 0.70151 0.28649 0.3252 0.0
H1661 H 0.6784 0.34784 0.38707 0.0
H1662 H 0.69756 0.35214 0.41043 0.0
H1663 H 0.67281 0.32956 0.41072 0.0
H1664 H 0.7043 0.29539 0.42131 0.0
H1665 H 0.72916 0.31787 0.42101 0.0
H1666 H 0.73144 0.29022 0.40488 0.0
H1667 H 0.73691 0.31755 0.32489 0.0
H1668 H 0.76943 0.34864 0.33122 0.0
H1669 H 0.74462 0.35607 0.39709 0.0
C1670 C 0.67242 0.28329 0.38238 0.0
C1671 C 0.66262 0.26759 0.36598 0.0
C1672 C 0.67359 0.26928 0.34534 0.0
C1673 C 0.69339 0.28574 0.34103 0.0
C1674 C 0.70247 0.3008 0.35743 0.0
C1675 C 0.69231 0.29985 0.37771 0.0
C1676 C 0.70571 0.31825 0.39239 0.0
C1677 C 0.68753 0.33813 0.40064 0.0
C1678 C 0.7184 0.30462 0.411 0.0
C1679 C 0.72502 0.32954 0.37723 0.0
C1680 C 0.72275 0.31908 0.35716 0.0
C1681 C 0.73858 0.32604 0.34051 0.0
C1682 C 0.75704 0.34412 0.34429 0.0
C1683 C 0.75988 0.35569 0.36461 0.0
C1684 C 0.74342 0.34792 0.38131 0.0
H1685 H 0.73445 0.65847 0.85557 0.0
H1686 H 0.79057 0.69715 0.89274 0.0
H1687 H 0.76299 0.73341 0.89561 0.0
H1688 H 0.71134 0.71392 0.82664 0.0
H1689 H 0.67916 0.7044 0.82746 0.0
H1690 H 0.70355 0.68138 0.82717 0.0
H1691 H 0.6858 0.66212 0.86183 0.0
H1692 H 0.6614 0.68509 0.86225 0.0
H1693 H 0.68151 0.68144 0.88509 0.0
H1694 H 0.72957 0.76514 0.89605 0.0
H1695 H 0.69189 0.79089 0.89405 0.0
H1696 H 0.65511 0.73376 0.85667 0.0
C1697 C 0.74101 0.67471 0.86406 0.0
C1698 C 0.76489 0.67465 0.87406 0.0
C1699 C 0.77245 0.69635 0.88517 0.0
C1700 C 0.75688 0.71721 0.88682 0.0
C1701 C 0.73346 0.71655 0.87725 0.0
C1702 C 0.72542 0.69597 0.86601 0.0
C1703 C 0.69885 0.70036 0.85788 0.0
C1704 C 0.69819 0.69999 0.83333 0.0
C1705 C 0.68082 0.6811 0.86733 0.0
C1706 C 0.69329 0.7264 0.86653 0.0
C1707 C 0.71374 0.73522 0.87756 0.0
C1708 C 0.71345 0.7584 0.88745 0.0
C1709 C 0.69177 0.7729 0.88631 0.0
C1710 C 0.67015 0.76452 0.87541 0.0
C1711 C 0.67119 0.74091 0.86508 0.0
loop_
_geom_bond_atom_site_label_1
_geom_bond_atom_site_label_2
_geom_bond_distance
_geom_bond_site_symmetry_2
_ccdc_geom_bond_type
C0 C1 1.443 . S
C0 N4 1.376 . S
C0 C38 1.389 . S
C1 C0 1.443 . S
C1 C2 1.340 . S
C1 H41 0.951 . S
C2 C1 1.340 . S
C2 C3 1.439 . S
C2 H42 0.950 . S
C3 C2 1.439 . S
C3 N4 1.374 . S
C3 C37 1.395 . S
N4 C0 1.376 . S
N4 C3 1.374 . S
N4 Co5 2.008 . S
Co5 N4 2.008 . S
Co5 N6 1.995 . S
Co5 N11 2.008 . S
Co5 N16 1.995 . S
Co5 N21 2.282 . S
Co5 N27 2.282 . S
N6 Co5 1.995 . S
N6 C7 1.376 . S
N6 C10 1.383 . S
C7 N6 1.376 . S
C7 C8 1.446 . S
C7 C37 1.391 . S
C8 C7 1.446 . S
C8 C9 1.339 . S
C8 H43 0.949 . S
C9 C8 1.339 . S
C9 C10 1.439 . S
C9 H44 0.950 . S
C10 N6 1.383 . S
C10 C9 1.439 . S
C10 C39 1.392 . S
N11 Co5 2.008 . S
N11 C12 1.376 . S
N11 C15 1.374 . S
C12 N11 1.376 . S
C12 C13 1.443 . S
C12 C39 1.389 . S
C13 C12 1.443 . S
C13 C14 1.340 . S
C13 H45 0.951 . S
C14 C13 1.340 . S
C14 C15 1.439 . S
C14 H46 0.950 . S
C15 N11 1.374 . S
C15 C14 1.439 . S
C15 C40 1.395 . S
N16 Co5 1.995 . S
N16 C17 1.376 . S
N16 C20 1.383 . S
C17 N16 1.376 . S
C17 C18 1.446 . S
C17 C40 1.391 . S
C18 C17 1.446 . S
C18 C19 1.339 . S
C18 H47 0.949 . S
C19 C18 1.339 . S
C19 C20 1.439 . S
C19 H48 0.950 . S
C20 N16 1.383 . S
C20 C19 1.439 . S
C20 C38 1.392 . S
N21 Co5 2.282 . S
N21 C24 1.332 . S
N21 C26 1.332 . S
C22 C23 1.386 . S
C22 C25 1.388 . S
C23 C22 1.386 . S
C23 C24 1.382 . S
C23 H49 0.950 . S
C24 N21 1.332 . S
C24 C23 1.382 . S
C24 H35 0.952 . S
C25 C22 1.388 . S
C25 C26 1.382 . S
C25 H50 0.950 . S
C26 N21 1.332 . S
C26 C25 1.382 . S
C26 H36 0.948 . S
N27 Co5 2.282 . S
N27 C31 1.332 . S
N27 C32 1.332 . S
C28 C29 1.388 . S
C28 C32 1.382 . S
C28 H51 0.950 . S
C29 C28 1.388 . S
C29 C30 1.386 . S
C30 C29 1.386 . S
C30 C31 1.382 . S
C30 H52 0.950 . S
C31 N27 1.332 . S
C31 C30 1.382 . S
C31 H33 0.952 . S
C32 N27 1.332 . S
C32 C28 1.382 . S
C32 H34 0.948 . S
H33 C31 0.952 . S
H34 C32 0.948 . S
H35 C24 0.952 . S
H36 C26 0.948 . S
C37 C3 1.395 . S
C37 C7 1.391 . S
C38 C0 1.389 . S
C38 C20 1.392 . S
C39 C10 1.392 . S
C39 C12 1.389 . S
C40 C15 1.395 . S
C40 C17 1.391 . S
H41 C1 0.951 . S
H42 C2 0.950 . S
H43 C8 0.949 . S
H44 C9 0.950 . S
H45 C13 0.951 . S
H46 C14 0.950 . S
H47 C18 0.949 . S
H48 C19 0.950 . S
H49 C23 0.950 . S
H50 C25 0.950 . S
H51 C28 0.950 . S
H52 C30 0.950 . S
C53 C54 1.443 . S
C53 N57 1.376 . S
C53 C91 1.389 . S
C54 C53 1.443 . S
C54 C55 1.340 . S
C54 H94 0.951 . S
C55 C54 1.340 . S
C55 C56 1.439 . S
C55 H95 0.950 . S
C56 C55 1.439 . S
C56 N57 1.374 . S
C56 C90 1.395 . S
N57 C53 1.376 . S
N57 C56 1.374 . S
N57 Co58 2.008 . S
Co58 N57 2.008 . S
Co58 N59 1.995 . S
Co58 N64 2.008 . S
Co58 N69 1.995 . S
Co58 N74 2.282 . S
Co58 N80 2.282 . S
N59 Co58 1.995 . S
N59 C60 1.376 . S
N59 C63 1.383 . S
C60 N59 1.376 . S
C60 C61 1.446 . S
C60 C90 1.391 . S
C61 C60 1.446 . S
C61 C62 1.339 . S
C61 H96 0.949 . S
C62 C61 1.339 . S
C62 C63 1.439 . S
C62 H97 0.950 . S
C63 N59 1.383 . S
C63 C62 1.439 . S
C63 C92 1.392 . S
N64 Co58 2.008 . S
N64 C65 1.376 . S
N64 C68 1.374 . S
C65 N64 1.376 . S
C65 C66 1.443 . S
C65 C92 1.389 . S
C66 C65 1.443 . S
C66 C67 1.340 . S
C66 H98 0.951 . S
C67 C66 1.340 . S
C67 C68 1.439 . S
C67 H99 0.950 . S
C68 N64 1.374 . S
C68 C67 1.439 . S
C68 C93 1.395 . S
N69 Co58 1.995 . S
N69 C70 1.376 . S
N69 C73 1.383 . S
C70 N69 1.376 . S
C70 C71 1.446 . S
C70 C93 1.391 . S
C71 C70 1.446 . S
C71 C72 1.339 . S
C71 H100 0.949 . S
C72 C71 1.339 . S
C72 C73 1.439 . S
C72 H101 0.950 . S
C73 N69 1.383 . S
C73 C72 1.439 . S
C73 C91 1.392 . S
N74 Co58 2.282 . S
N74 C77 1.332 . S
N74 C79 1.332 . S
C75 C76 1.386 . S
C75 C78 1.388 . S
C76 C75 1.386 . S
C76 C77 1.382 . S
C76 H102 0.950 . S
C77 N74 1.332 . S
C77 C76 1.382 . S
C77 H88 0.952 . S
C78 C75 1.388 . S
C78 C79 1.382 . S
C78 H103 0.950 . S
C79 N74 1.332 . S
C79 C78 1.382 . S
C79 H89 0.948 . S
N80 Co58 2.282 . S
N80 C84 1.332 . S
N80 C85 1.332 . S
C81 C82 1.388 . S
C81 C85 1.382 . S
C81 H104 0.950 . S
C82 C81 1.388 . S
C82 C83 1.386 . S
C83 C82 1.386 . S
C83 C84 1.382 . S
C83 H105 0.950 . S
C84 N80 1.332 . S
C84 C83 1.382 . S
C84 H86 0.952 . S
C85 N80 1.332 . S
C85 C81 1.382 . S
C85 H87 0.948 . S
H86 C84 0.952 . S
H87 C85 0.948 . S
H88 C77 0.952 . S
H89 C79 0.948 . S
C90 C56 1.395 . S
C90 C60 1.391 . S
C91 C53 1.389 . S
C91 C73 1.392 . S
C92 C63 1.392 . S
C92 C65 1.389 . S
C93 C68 1.395 . S
C93 C70 1.391 . S
H94 C54 0.951 . S
H95 C55 0.950 . S
H96 C61 0.949 . S
H97 C62 0.950 . S
H98 C66 0.951 . S
H99 C67 0.950 . S
H100 C71 0.949 . S
H101 C72 0.950 . S
H102 C76 0.950 . S
H103 C78 0.950 . S
H104 C81 0.950 . S
H105 C83 0.950 . S
C106 C107 1.443 . S
C106 N110 1.376 . S
C106 C144 1.389 . S
C107 C106 1.443 . S
C107 C108 1.340 . S
C107 H147 0.951 . S
C108 C107 1.340 . S
C108 C109 1.439 . S
C108 H148 0.950 . S
C109 C108 1.439 . S
C109 N110 1.374 . S
C109 C143 1.395 . S
N110 C106 1.376 . S
N110 C109 1.374 . S
N110 Co111 2.008 . S
Co111 N110 2.008 . S
Co111 N112 1.995 . S
Co111 N117 2.008 . S
Co111 N122 1.995 . S
Co111 N127 2.282 . S
Co111 N133 2.282 . S
N112 Co111 1.995 . S
N112 C113 1.376 . S
N112 C116 1.383 . S
C113 N112 1.376 . S
C113 C114 1.446 . S
C113 C143 1.391 . S
C114 C113 1.446 . S
C114 C115 1.339 . S
C114 H149 0.949 . S
C115 C114 1.339 . S
C115 C116 1.439 . S
C115 H150 0.950 . S
C116 N112 1.383 . S
C116 C115 1.439 . S
C116 C145 1.392 . S
N117 Co111 2.008 . S
N117 C118 1.376 . S
N117 C121 1.374 . S
C118 N117 1.376 . S
C118 C119 1.443 . S
C118 C145 1.389 . S
C119 C118 1.443 . S
C119 C120 1.340 . S
C119 H151 0.951 . S
C120 C119 1.340 . S
C120 C121 1.439 . S
C120 H152 0.950 . S
C121 N117 1.374 . S
C121 C120 1.439 . S
C121 C146 1.395 . S
N122 Co111 1.995 . S
N122 C123 1.376 . S
N122 C126 1.383 . S
C123 N122 1.376 . S
C123 C124 1.446 . S
C123 C146 1.391 . S
C124 C123 1.446 . S
C124 C125 1.339 . S
C124 H153 0.949 . S
C125 C124 1.339 . S
C125 C126 1.439 . S
C125 H154 0.950 . S
C126 N122 1.383 . S
C126 C125 1.439 . S
C126 C144 1.392 . S
N127 Co111 2.282 . S
N127 C130 1.332 . S
N127 C132 1.332 . S
C128 C129 1.386 . S
C128 C131 1.388 . S
C129 C128 1.386 . S
C129 C130 1.382 . S
C129 H155 0.950 . S
C130 N127 1.332 . S
C130 C129 1.382 . S
C130 H141 0.952 . S
C131 C128 1.388 . S
C131 C132 1.382 . S
C131 H156 0.950 . S
C132 N127 1.332 . S
C132 C131 1.382 . S
C132 H142 0.948 . S
N133 Co111 2.282 . S
N133 C137 1.332 . S
N133 C138 1.332 . S
C134 C135 1.388 . S
C134 C138 1.382 . S
C134 H157 0.950 . S
C135 C134 1.388 . S
C135 C136 1.386 . S
C136 C135 1.386 . S
C136 C137 1.382 . S
C136 H158 0.950 . S
C137 N133 1.332 . S
C137 C136 1.382 . S
C137 H139 0.952 . S
C138 N133 1.332 . S
C138 C134 1.382 . S
C138 H140 0.948 . S
H139 C137 0.952 . S
H140 C138 0.948 . S
H141 C130 0.952 . S
H142 C132 0.948 . S
C143 C109 1.395 . S
C143 C113 1.391 . S
C144 C106 1.389 . S
C144 C126 1.392 . S
C145 C116 1.392 . S
C145 C118 1.389 . S
C146 C121 1.395 . S
C146 C123 1.391 . S
H147 C107 0.951 . S
H148 C108 0.950 . S
H149 C114 0.949 . S
H150 C115 0.950 . S
H151 C119 0.951 . S
H152 C120 0.950 . S
H153 C124 0.949 . S
H154 C125 0.950 . S
H155 C129 0.950 . S
H156 C131 0.950 . S
H157 C134 0.950 . S
H158 C136 0.950 . S
C159 C160 1.443 . S
C159 N163 1.376 . S
C159 C197 1.389 . S
C160 C159 1.443 . S
C160 C161 1.340 . S
C160 H200 0.951 . S
C161 C160 1.340 . S
C161 C162 1.439 . S
C161 H201 0.950 . S
C162 C161 1.439 . S
C162 N163 1.374 . S
C162 C196 1.395 . S
N163 C159 1.376 . S
N163 C162 1.374 . S
N163 Co164 2.008 . S
Co164 N163 2.008 . S
Co164 N165 1.995 . S
Co164 N170 2.008 . S
Co164 N175 1.995 . S
Co164 N180 2.282 . S
Co164 N186 2.282 . S
N165 Co164 1.995 . S
N165 C166 1.376 . S
N165 C169 1.383 . S
C166 N165 1.376 . S
C166 C167 1.446 . S
C166 C196 1.391 . S
C167 C166 1.446 . S
C167 C168 1.339 . S
C167 H202 0.949 . S
C168 C167 1.339 . S
C168 C169 1.439 . S
C168 H203 0.950 . S
C169 N165 1.383 . S
C169 C168 1.439 . S
C169 C198 1.392 . S
N170 Co164 2.008 . S
N170 C171 1.376 . S
N170 C174 1.374 . S
C171 N170 1.376 . S
C171 C172 1.443 . S
C171 C198 1.389 . S
C172 C171 1.443 . S
C172 C173 1.340 . S
C172 H204 0.951 . S
C173 C172 1.340 . S
C173 C174 1.439 . S
C173 H205 0.950 . S
C174 N170 1.374 . S
C174 C173 1.439 . S
C174 C199 1.395 . S
N175 Co164 1.995 . S
N175 C176 1.376 . S
N175 C179 1.383 . S
C176 N175 1.376 . S
C176 C177 1.446 . S
C176 C199 1.391 . S
C177 C176 1.446 . S
C177 C178 1.339 . S
C177 H206 0.949 . S
C178 C177 1.339 . S
C178 C179 1.439 . S
C178 H207 0.950 . S
C179 N175 1.383 . S
C179 C178 1.439 . S
C179 C197 1.392 . S
N180 Co164 2.282 . S
N180 C183 1.332 . S
N180 C185 1.332 . S
C181 C182 1.386 . S
C181 C184 1.388 . S
C182 C181 1.386 . S
C182 C183 1.382 . S
C182 H208 0.950 . S
C183 N180 1.332 . S
C183 C182 1.382 . S
C183 H194 0.952 . S
C184 C181 1.388 . S
C184 C185 1.382 . S
C184 H209 0.950 . S
C185 N180 1.332 . S
C185 C184 1.382 . S
C185 H195 0.948 . S
N186 Co164 2.282 . S
N186 C190 1.332 . S
N186 C191 1.332 . S
C187 C188 1.388 . S
C187 C191 1.382 . S
C187 H210 0.950 . S
C188 C187 1.388 . S
C188 C189 1.386 . S
C189 C188 1.386 . S
C189 C190 1.382 . S
C189 H211 0.950 . S
C190 N186 1.332 . S
C190 C189 1.382 . S
C190 H192 0.952 . S
C191 N186 1.332 . S
C191 C187 1.382 . S
C191 H193 0.948 . S
H192 C190 0.952 . S
H193 C191 0.948 . S
H194 C183 0.952 . S
H195 C185 0.948 . S
C196 C162 1.395 . S
C196 C166 1.391 . S
C197 C159 1.389 . S
C197 C179 1.392 . S
C198 C169 1.392 . S
C198 C171 1.389 . S
C199 C174 1.395 . S
C199 C176 1.391 . S
H200 C160 0.951 . S
H201 C161 0.950 . S
H202 C167 0.949 . S
H203 C168 0.950 . S
H204 C172 0.951 . S
H205 C173 0.950 . S
H206 C177 0.949 . S
H207 C178 0.950 . S
H208 C182 0.950 . S
H209 C184 0.950 . S
H210 C187 0.950 . S
H211 C189 0.950 . S
C212 C213 1.443 . S
C212 N216 1.376 . S
C212 C250 1.389 . S
C213 C212 1.443 . S
C213 C214 1.340 . S
C213 H253 0.951 . S
C214 C213 1.340 . S
C214 C215 1.439 . S
C214 H254 0.950 . S
C215 C214 1.439 . S
C215 N216 1.374 . S
C215 C249 1.395 . S
N216 C212 1.376 . S
N216 C215 1.374 . S
N216 Co217 2.008 . S
Co217 N216 2.008 . S
Co217 N218 1.995 . S
Co217 N223 2.008 . S
Co217 N228 1.995 . S
Co217 N233 2.282 . S
Co217 N239 2.282 . S
N218 Co217 1.995 . S
N218 C219 1.376 . S
N218 C222 1.383 . S
C219 N218 1.376 . S
C219 C220 1.446 . S
C219 C249 1.391 . S
C220 C219 1.446 . S
C220 C221 1.339 . S
C220 H255 0.949 . S
C221 C220 1.339 . S
C221 C222 1.439 . S
C221 H256 0.950 . S
C222 N218 1.383 . S
C222 C221 1.439 . S
C222 C251 1.392 . S
N223 Co217 2.008 . S
N223 C224 1.376 . S
N223 C227 1.374 . S
C224 N223 1.376 . S
C224 C225 1.443 . S
C224 C251 1.389 . S
C225 C224 1.443 . S
C225 C226 1.340 . S
C225 H257 0.951 . S
C226 C225 1.340 . S
C226 C227 1.439 . S
C226 H258 0.950 . S
C227 N223 1.374 . S
C227 C226 1.439 . S
C227 C252 1.395 . S
N228 Co217 1.995 . S
N228 C229 1.376 . S
N228 C232 1.383 . S
C229 N228 1.376 . S
C229 C230 1.446 . S
C229 C252 1.391 . S
C230 C229 1.446 . S
C230 C231 1.339 . S
C230 H259 0.949 . S
C231 C230 1.339 . S
C231 C232 1.439 . S
C231 H260 0.950 . S
C232 N228 1.383 . S
C232 C231 1.439 . S
C232 C250 1.392 . S
N233 Co217 2.282 . S
N233 C236 1.332 . S
N233 C238 1.332 . S
C234 C235 1.386 . S
C234 C237 1.388 . S
C235 C234 1.386 . S
C235 C236 1.382 . S
C235 H261 0.950 . S
C236 N233 1.332 . S
C236 C235 1.382 . S
C236 H247 0.952 . S
C237 C234 1.388 . S
C237 C238 1.382 . S
C237 H262 0.950 . S
C238 N233 1.332 . S
C238 C237 1.382 . S
C238 H248 0.948 . S
N239 Co217 2.282 . S
N239 C243 1.332 . S
N239 C244 1.332 . S
C240 C241 1.388 . S
C240 C244 1.382 . S
C240 H263 0.950 . S
C241 C240 1.388 . S
C241 C242 1.386 . S
C242 C241 1.386 . S
C242 C243 1.382 . S
C242 H264 0.950 . S
C243 N239 1.332 . S
C243 C242 1.382 . S
C243 H245 0.952 . S
C244 N239 1.332 . S
C244 C240 1.382 . S
C244 H246 0.948 . S
H245 C243 0.952 . S
H246 C244 0.948 . S
H247 C236 0.952 . S
H248 C238 0.948 . S
C249 C215 1.395 . S
C249 C219 1.391 . S
C250 C212 1.389 . S
C250 C232 1.392 . S
C251 C222 1.392 . S
C251 C224 1.389 . S
C252 C227 1.395 . S
C252 C229 1.391 . S
H253 C213 0.951 . S
H254 C214 0.950 . S
H255 C220 0.949 . S
H256 C221 0.950 . S
H257 C225 0.951 . S
H258 C226 0.950 . S
H259 C230 0.949 . S
H260 C231 0.950 . S
H261 C235 0.950 . S
H262 C237 0.950 . S
H263 C240 0.950 . S
H264 C242 0.950 . S
C265 C266 1.443 . S
C265 N269 1.376 . S
C265 C303 1.389 . S
C266 C265 1.443 . S
C266 C267 1.340 . S
C266 H306 0.951 . S
C267 C266 1.340 . S
C267 C268 1.439 . S
C267 H307 0.950 . S
C268 C267 1.439 . S
C268 N269 1.374 . S
C268 C302 1.395 . S
N269 C265 1.376 . S
N269 C268 1.374 . S
N269 Co270 2.008 . S
Co270 N269 2.008 . S
Co270 N271 1.995 . S
Co270 N276 2.008 . S
Co270 N281 1.995 . S
Co270 N286 2.282 . S
Co270 N292 2.282 . S
N271 Co270 1.995 . S
N271 C272 1.376 . S
N271 C275 1.383 . S
C272 N271 1.376 . S
C272 C273 1.446 . S
C272 C302 1.391 . S
C273 C272 1.446 . S
C273 C274 1.339 . S
C273 H308 0.949 . S
C274 C273 1.339 . S
C274 C275 1.439 . S
C274 H309 0.950 . S
C275 N271 1.383 . S
C275 C274 1.439 . S
C275 C304 1.392 . S
N276 Co270 2.008 . S
N276 C277 1.376 . S
N276 C280 1.374 . S
C277 N276 1.376 . S
C277 C278 1.443 . S
C277 C304 1.389 . S
C278 C277 1.443 . S
C278 C279 1.340 . S
C278 H310 0.951 . S
C279 C278 1.340 . S
C279 C280 1.439 . S
C279 H311 0.950 . S
C280 N276 1.374 . S
C280 C279 1.439 . S
C280 C305 1.395 . S
N281 Co270 1.995 . S
N281 C282 1.376 . S
N281 C285 1.383 . S
C282 N281 1.376 . S
C282 C283 1.446 . S
C282 C305 1.391 . S
C283 C282 1.446 . S
C283 C284 1.339 . S
C283 H312 0.949 . S
C284 C283 1.339 . S
C284 C285 1.439 . S
C284 H313 0.950 . S
C285 N281 1.383 . S
C285 C284 1.439 . S
C285 C303 1.392 . S
N286 Co270 2.282 . S
N286 C289 1.332 . S
N286 C291 1.332 . S
C287 C288 1.386 . S
C287 C290 1.388 . S
C288 C287 1.386 . S
C288 C289 1.382 . S
C288 H314 0.950 . S
C289 N286 1.332 . S
C289 C288 1.382 . S
C289 H300 0.952 . S
C290 C287 1.388 . S
C290 C291 1.382 . S
C290 H315 0.950 . S
C291 N286 1.332 . S
C291 C290 1.382 . S
C291 H301 0.948 . S
N292 Co270 2.282 . S
N292 C296 1.332 . S
N292 C297 1.332 . S
C293 C294 1.388 . S
C293 C297 1.382 . S
C293 H316 0.950 . S
C294 C293 1.388 . S
C294 C295 1.386 . S
C295 C294 1.386 . S
C295 C296 1.382 . S
C295 H317 0.950 . S
C296 N292 1.332 . S
C296 C295 1.382 . S
C296 H298 0.952 . S
C297 N292 1.332 . S
C297 C293 1.382 . S
C297 H299 0.948 . S
H298 C296 0.952 . S
H299 C297 0.948 . S
H300 C289 0.952 . S
H301 C291 0.948 . S
C302 C268 1.395 . S
C302 C272 1.391 . S
C303 C265 1.389 . S
C303 C285 1.392 . S
C304 C275 1.392 . S
C304 C277 1.389 . S
C305 C280 1.395 . S
C305 C282 1.391 . S
H306 C266 0.951 . S
H307 C267 0.950 . S
H308 C273 0.949 . S
H309 C274 0.950 . S
H310 C278 0.951 . S
H311 C279 0.950 . S
H312 C283 0.949 . S
H313 C284 0.950 . S
H314 C288 0.950 . S
H315 C290 0.950 . S
H316 C293 0.950 . S
H317 C295 0.950 . S
C318 C319 1.443 . S
C318 N322 1.376 . S
C318 C356 1.389 . S
C319 C318 1.443 . S
C319 C320 1.340 . S
C319 H359 0.951 . S
C320 C319 1.340 . S
C320 C321 1.439 . S
C320 H360 0.950 . S
C321 C320 1.439 . S
C321 N322 1.374 . S
C321 C355 1.395 . S
N322 C318 1.376 . S
N322 C321 1.374 . S
N322 Co323 2.008 . S
Co323 N322 2.008 . S
Co323 N324 1.995 . S
Co323 N329 2.008 . S
Co323 N334 1.995 . S
Co323 N339 2.282 . S
Co323 N345 2.282 . S
N324 Co323 1.995 . S
N324 C325 1.376 . S
N324 C328 1.383 . S
C325 N324 1.376 . S
C325 C326 1.446 . S
C325 C355 1.391 . S
C326 C325 1.446 . S
C326 C327 1.339 . S
C326 H361 0.949 . S
C327 C326 1.339 . S
C327 C328 1.439 . S
C327 H362 0.950 . S
C328 N324 1.383 . S
C328 C327 1.439 . S
C328 C357 1.392 . S
N329 Co323 2.008 . S
N329 C330 1.376 . S
N329 C333 1.374 . S
C330 N329 1.376 . S
C330 C331 1.443 . S
C330 C357 1.389 . S
C331 C330 1.443 . S
C331 C332 1.340 . S
C331 H363 0.951 . S
C332 C331 1.340 . S
C332 C333 1.439 . S
C332 H364 0.950 . S
C333 N329 1.374 . S
C333 C332 1.439 . S
C333 C358 1.395 . S
N334 Co323 1.995 . S
N334 C335 1.376 . S
N334 C338 1.383 . S
C335 N334 1.376 . S
C335 C336 1.446 . S
C335 C358 1.391 . S
C336 C335 1.446 . S
C336 C337 1.339 . S
C336 H365 0.949 . S
C337 C336 1.339 . S
C337 C338 1.439 . S
C337 H366 0.950 . S
C338 N334 1.383 . S
C338 C337 1.439 . S
C338 C356 1.392 . S
N339 Co323 2.282 . S
N339 C342 1.332 . S
N339 C344 1.332 . S
C340 C341 1.386 . S
C340 C343 1.388 . S
C341 C340 1.386 . S
C341 C342 1.382 . S
C341 H367 0.950 . S
C342 N339 1.332 . S
C342 C341 1.382 . S
C342 H353 0.952 . S
C343 C340 1.388 . S
C343 C344 1.382 . S
C343 H368 0.950 . S
C344 N339 1.332 . S
C344 C343 1.382 . S
C344 H354 0.948 . S
N345 Co323 2.282 . S
N345 C349 1.332 . S
N345 C350 1.332 . S
C346 C347 1.388 . S
C346 C350 1.382 . S
C346 H369 0.950 . S
C347 C346 1.388 . S
C347 C348 1.386 . S
C348 C347 1.386 . S
C348 C349 1.382 . S
C348 H370 0.950 . S
C349 N345 1.332 . S
C349 C348 1.382 . S
C349 H351 0.952 . S
C350 N345 1.332 . S
C350 C346 1.382 . S
C350 H352 0.948 . S
H351 C349 0.952 . S
H352 C350 0.948 . S
H353 C342 0.952 . S
H354 C344 0.948 . S
C355 C321 1.395 . S
C355 C325 1.391 . S
C356 C318 1.389 . S
C356 C338 1.392 . S
C357 C328 1.392 . S
C357 C330 1.389 . S
C358 C333 1.395 . S
C358 C335 1.391 . S
H359 C319 0.951 . S
H360 C320 0.950 . S
H361 C326 0.949 . S
H362 C327 0.950 . S
H363 C331 0.951 . S
H364 C332 0.950 . S
H365 C336 0.949 . S
H366 C337 0.950 . S
H367 C341 0.950 . S
H368 C343 0.950 . S
H369 C346 0.950 . S
H370 C348 0.950 . S
C371 C372 1.443 . S
C371 N375 1.376 . S
C371 C409 1.389 . S
C372 C371 1.443 . S
C372 C373 1.340 . S
C372 H412 0.951 . S
C373 C372 1.340 . S
C373 C374 1.439 . S
C373 H413 0.950 . S
C374 C373 1.439 . S
C374 N375 1.374 . S
C374 C408 1.395 . S
N375 C371 1.376 . S
N375 C374 1.374 . S
N375 Co376 2.008 . S
Co376 N375 2.008 . S
Co376 N377 1.995 . S
Co376 N382 2.008 . S
Co376 N387 1.995 . S
Co376 N392 2.282 . S
Co376 N398 2.282 . S
N377 Co376 1.995 . S
N377 C378 1.376 . S
N377 C381 1.383 . S
C378 N377 1.376 . S
C378 C379 1.446 . S
C378 C408 1.391 . S
C379 C378 1.446 . S
C379 C380 1.339 . S
C379 H414 0.949 . S
C380 C379 1.339 . S
C380 C381 1.439 . S
C380 H415 0.950 . S
C381 N377 1.383 . S
C381 C380 1.439 . S
C381 C410 1.392 . S
N382 Co376 2.008 . S
N382 C383 1.376 . S
N382 C386 1.374 . S
C383 N382 1.376 . S
C383 C384 1.443 . S
C383 C410 1.389 . S
C384 C383 1.443 . S
C384 C385 1.340 . S
C384 H416 0.951 . S
C385 C384 1.340 . S
C385 C386 1.439 . S
C385 H417 0.950 . S
C386 N382 1.374 . S
C386 C385 1.439 . S
C386 C411 1.395 . S
N387 Co376 1.995 . S
N387 C388 1.376 . S
N387 C391 1.383 . S
C388 N387 1.376 . S
C388 C389 1.446 . S
C388 C411 1.391 . S
C389 C388 1.446 . S
C389 C390 1.339 . S
C389 H418 0.949 . S
C390 C389 1.339 . S
C390 C391 1.439 . S
C390 H419 0.950 . S
C391 N387 1.383 . S
C391 C390 1.439 . S
C391 C409 1.392 . S
N392 Co376 2.282 . S
N392 C395 1.332 . S
N392 C397 1.332 . S
C393 C394 1.386 . S
C393 C396 1.388 . S
C394 C393 1.386 . S
C394 C395 1.382 . S
C394 H420 0.950 . S
C395 N392 1.332 . S
C395 C394 1.382 . S
C395 H406 0.952 . S
C396 C393 1.388 . S
C396 C397 1.382 . S
C396 H421 0.950 . S
C397 N392 1.332 . S
C397 C396 1.382 . S
C397 H407 0.948 . S
N398 Co376 2.282 . S
N398 C402 1.332 . S
N398 C403 1.332 . S
C399 C400 1.388 . S
C399 C403 1.382 . S
C399 H422 0.950 . S
C400 C399 1.388 . S
C400 C401 1.386 . S
C401 C400 1.386 . S
C401 C402 1.382 . S
C401 H423 0.950 . S
C402 N398 1.332 . S
C402 C401 1.382 . S
C402 H404 0.952 . S
C403 N398 1.332 . S
C403 C399 1.382 . S
C403 H405 0.948 . S
H404 C402 0.952 . S
H405 C403 0.948 . S
H406 C395 0.952 . S
H407 C397 0.948 . S
C408 C374 1.395 . S
C408 C378 1.391 . S
C409 C371 1.389 . S
C409 C391 1.392 . S
C410 C381 1.392 . S
C410 C383 1.389 . S
C411 C386 1.395 . S
C411 C388 1.391 . S
H412 C372 0.951 . S
H413 C373 0.950 . S
H414 C379 0.949 . S
H415 C380 0.950 . S
H416 C384 0.951 . S
H417 C385 0.950 . S
H418 C389 0.949 . S
H419 C390 0.950 . S
H420 C394 0.950 . S
H421 C396 0.950 . S
H422 C399 0.950 . S
H423 C401 0.950 . S
C424 C425 1.443 . S
C424 N428 1.376 . S
C424 C462 1.389 . S
C425 C424 1.443 . S
C425 C426 1.340 . S
C425 H465 0.951 . S
C426 C425 1.340 . S
C426 C427 1.439 . S
C426 H466 0.950 . S
C427 C426 1.439 . S
C427 N428 1.374 . S
C427 C461 1.395 . S
N428 C424 1.376 . S
N428 C427 1.374 . S
N428 Co429 2.008 . S
Co429 N428 2.008 . S
Co429 N430 1.995 . S
Co429 N435 2.008 . S
Co429 N440 1.995 . S
Co429 N445 2.282 . S
Co429 N451 2.282 . S
N430 Co429 1.995 . S
N430 C431 1.376 . S
N430 C434 1.383 . S
C431 N430 1.376 . S
C431 C432 1.446 . S
C431 C461 1.391 . S
C432 C431 1.446 . S
C432 C433 1.339 . S
C432 H467 0.949 . S
C433 C432 1.339 . S
C433 C434 1.439 . S
C433 H468 0.950 . S
C434 N430 1.383 . S
C434 C433 1.439 . S
C434 C463 1.392 . S
N435 Co429 2.008 . S
N435 C436 1.376 . S
N435 C439 1.374 . S
C436 N435 1.376 . S
C436 C437 1.443 . S
C436 C463 1.389 . S
C437 C436 1.443 . S
C437 C438 1.340 . S
C437 H469 0.951 . S
C438 C437 1.340 . S
C438 C439 1.439 . S
C438 H470 0.950 . S
C439 N435 1.374 . S
C439 C438 1.439 . S
C439 C464 1.395 . S
N440 Co429 1.995 . S
N440 C441 1.376 . S
N440 C444 1.383 . S
C441 N440 1.376 . S
C441 C442 1.446 . S
C441 C464 1.391 . S
C442 C441 1.446 . S
C442 C443 1.339 . S
C442 H471 0.949 . S
C443 C442 1.339 . S
C443 C444 1.439 . S
C443 H472 0.950 . S
C444 N440 1.383 . S
C444 C443 1.439 . S
C444 C462 1.392 . S
N445 Co429 2.282 . S
N445 C448 1.332 . S
N445 C450 1.332 . S
C446 C447 1.386 . S
C446 C449 1.388 . S
C447 C446 1.386 . S
C447 C448 1.382 . S
C447 H473 0.950 . S
C448 N445 1.332 . S
C448 C447 1.382 . S
C448 H459 0.952 . S
C449 C446 1.388 . S
C449 C450 1.382 . S
C449 H474 0.950 . S
C450 N445 1.332 . S
C450 C449 1.382 . S
C450 H460 0.948 . S
N451 Co429 2.282 . S
N451 C455 1.332 . S
N451 C456 1.332 . S
C452 C453 1.388 . S
C452 C456 1.382 . S
C452 H475 0.950 . S
C453 C452 1.388 . S
C453 C454 1.386 . S
C454 C453 1.386 . S
C454 C455 1.382 . S
C454 H476 0.950 . S
C455 N451 1.332 . S
C455 C454 1.382 . S
C455 H457 0.952 . S
C456 N451 1.332 . S
C456 C452 1.382 . S
C456 H458 0.948 . S
H457 C455 0.952 . S
H458 C456 0.948 . S
H459 C448 0.952 . S
H460 C450 0.948 . S
C461 C427 1.395 . S
C461 C431 1.391 . S
C462 C424 1.389 . S
C462 C444 1.392 . S
C463 C434 1.392 . S
C463 C436 1.389 . S
C464 C439 1.395 . S
C464 C441 1.391 . S
H465 C425 0.951 . S
H466 C426 0.950 . S
H467 C432 0.949 . S
H468 C433 0.950 . S
H469 C437 0.951 . S
H470 C438 0.950 . S
H471 C442 0.949 . S
H472 C443 0.950 . S
H473 C447 0.950 . S
H474 C449 0.950 . S
H475 C452 0.950 . S
H476 C454 0.950 . S
C477 C478 1.443 . S
C477 N481 1.376 . S
C477 C515 1.389 . S
C478 C477 1.443 . S
C478 C479 1.340 . S
C478 H518 0.951 . S
C479 C478 1.340 . S
C479 C480 1.439 . S
C479 H519 0.950 . S
C480 C479 1.439 . S
C480 N481 1.374 . S
C480 C514 1.395 . S
N481 C477 1.376 . S
N481 C480 1.374 . S
N481 Co482 2.008 . S
Co482 N481 2.008 . S
Co482 N483 1.995 . S
Co482 N488 2.008 . S
Co482 N493 1.995 . S
Co482 N498 2.282 . S
Co482 N504 2.282 . S
N483 Co482 1.995 . S
N483 C484 1.376 . S
N483 C487 1.383 . S
C484 N483 1.376 . S
C484 C485 1.446 . S
C484 C514 1.391 . S
C485 C484 1.446 . S
C485 C486 1.339 . S
C485 H520 0.949 . S
C486 C485 1.339 . S
C486 C487 1.439 . S
C486 H521 0.950 . S
C487 N483 1.383 . S
C487 C486 1.439 . S
C487 C516 1.392 . S
N488 Co482 2.008 . S
N488 C489 1.376 . S
N488 C492 1.374 . S
C489 N488 1.376 . S
C489 C490 1.443 . S
C489 C516 1.389 . S
C490 C489 1.443 . S
C490 C491 1.340 . S
C490 H522 0.951 . S
C491 C490 1.340 . S
C491 C492 1.439 . S
C491 H523 0.950 . S
C492 N488 1.374 . S
C492 C491 1.439 . S
C492 C517 1.395 . S
N493 Co482 1.995 . S
N493 C494 1.376 . S
N493 C497 1.383 . S
C494 N493 1.376 . S
C494 C495 1.446 . S
C494 C517 1.391 . S
C495 C494 1.446 . S
C495 C496 1.339 . S
C495 H524 0.949 . S
C496 C495 1.339 . S
C496 C497 1.439 . S
C496 H525 0.950 . S
C497 N493 1.383 . S
C497 C496 1.439 . S
C497 C515 1.392 . S
N498 Co482 2.282 . S
N498 C501 1.332 . S
N498 C503 1.332 . S
C499 C500 1.386 . S
C499 C502 1.388 . S
C500 C499 1.386 . S
C500 C501 1.382 . S
C500 H526 0.950 . S
C501 N498 1.332 . S
C501 C500 1.382 . S
C501 H512 0.952 . S
C502 C499 1.388 . S
C502 C503 1.382 . S
C502 H527 0.950 . S
C503 N498 1.332 . S
C503 C502 1.382 . S
C503 H513 0.948 . S
N504 Co482 2.282 . S
N504 C508 1.332 . S
N504 C509 1.332 . S
C505 C506 1.388 . S
C505 C509 1.382 . S
C505 H528 0.950 . S
C506 C505 1.388 . S
C506 C507 1.386 . S
C507 C506 1.386 . S
C507 C508 1.382 . S
C507 H529 0.950 . S
C508 N504 1.332 . S
C508 C507 1.382 . S
C508 H510 0.952 . S
C509 N504 1.332 . S
C509 C505 1.382 . S
C509 H511 0.948 . S
H510 C508 0.952 . S
H511 C509 0.948 . S
H512 C501 0.952 . S
H513 C503 0.948 . S
C514 C480 1.395 . S
C514 C484 1.391 . S
C515 C477 1.389 . S
C515 C497 1.392 . S
C516 C487 1.392 . S
C516 C489 1.389 . S
C517 C492 1.395 . S
C517 C494 1.391 . S
H518 C478 0.951 . S
H519 C479 0.950 . S
H520 C485 0.949 . S
H521 C486 0.950 . S
H522 C490 0.951 . S
H523 C491 0.950 . S
H524 C495 0.949 . S
H525 C496 0.950 . S
H526 C500 0.950 . S
H527 C502 0.950 . S
H528 C505 0.950 . S
H529 C507 0.950 . S
C530 C531 1.443 . S
C530 N534 1.376 . S
C530 C568 1.389 . S
C531 C530 1.443 . S
C531 C532 1.340 . S
C531 H571 0.951 . S
C532 C531 1.340 . S
C532 C533 1.439 . S
C532 H572 0.950 . S
C533 C532 1.439 . S
C533 N534 1.374 . S
C533 C567 1.395 . S
N534 C530 1.376 . S
N534 C533 1.374 . S
N534 Co535 2.008 . S
Co535 N534 2.008 . S
Co535 N536 1.995 . S
Co535 N541 2.008 . S
Co535 N546 1.995 . S
Co535 N551 2.282 . S
Co535 N557 2.282 . S
N536 Co535 1.995 . S
N536 C537 1.376 . S
N536 C540 1.383 . S
C537 N536 1.376 . S
C537 C538 1.446 . S
C537 C567 1.391 . S
C538 C537 1.446 . S
C538 C539 1.339 . S
C538 H573 0.949 . S
C539 C538 1.339 . S
C539 C540 1.439 . S
C539 H574 0.950 . S
C540 N536 1.383 . S
C540 C539 1.439 . S
C540 C569 1.392 . S
N541 Co535 2.008 . S
N541 C542 1.376 . S
N541 C545 1.374 . S
C542 N541 1.376 . S
C542 C543 1.443 . S
C542 C569 1.389 . S
C543 C542 1.443 . S
C543 C544 1.340 . S
C543 H575 0.951 . S
C544 C543 1.340 . S
C544 C545 1.439 . S
C544 H576 0.950 . S
C545 N541 1.374 . S
C545 C544 1.439 . S
C545 C570 1.395 . S
N546 Co535 1.995 . S
N546 C547 1.376 . S
N546 C550 1.383 . S
C547 N546 1.376 . S
C547 C548 1.446 . S
C547 C570 1.391 . S
C548 C547 1.446 . S
C548 C549 1.339 . S
C548 H577 0.949 . S
C549 C548 1.339 . S
C549 C550 1.439 . S
C549 H578 0.950 . S
C550 N546 1.383 . S
C550 C549 1.439 . S
C550 C568 1.392 . S
N551 Co535 2.282 . S
N551 C554 1.332 . S
N551 C556 1.332 . S
C552 C553 1.386 . S
C552 C555 1.388 . S
C553 C552 1.386 . S
C553 C554 1.382 . S
C553 H579 0.950 . S
C554 N551 1.332 . S
C554 C553 1.382 . S
C554 H565 0.952 . S
C555 C552 1.388 . S
C555 C556 1.382 . S
C555 H580 0.950 . S
C556 N551 1.332 . S
C556 C555 1.382 . S
C556 H566 0.948 . S
N557 Co535 2.282 . S
N557 C561 1.332 . S
N557 C562 1.332 . S
C558 C559 1.388 . S
C558 C562 1.382 . S
C558 H581 0.950 . S
C559 C558 1.388 . S
C559 C560 1.386 . S
C560 C559 1.386 . S
C560 C561 1.382 . S
C560 H582 0.950 . S
C561 N557 1.332 . S
C561 C560 1.382 . S
C561 H563 0.952 . S
C562 N557 1.332 . S
C562 C558 1.382 . S
C562 H564 0.948 . S
H563 C561 0.952 . S
H564 C562 0.948 . S
H565 C554 0.952 . S
H566 C556 0.948 . S
C567 C533 1.395 . S
C567 C537 1.391 . S
C568 C530 1.389 . S
C568 C550 1.392 . S
C569 C540 1.392 . S
C569 C542 1.389 . S
C570 C545 1.395 . S
C570 C547 1.391 . S
H571 C531 0.951 . S
H572 C532 0.950 . S
H573 C538 0.949 . S
H574 C539 0.950 . S
H575 C543 0.951 . S
H576 C544 0.950 . S
H577 C548 0.949 . S
H578 C549 0.950 . S
H579 C553 0.950 . S
H580 C555 0.950 . S
H581 C558 0.950 . S
H582 C560 0.950 . S
C583 C584 1.443 . S
C583 N587 1.376 . S
C583 C621 1.389 . S
C584 C583 1.443 . S
C584 C585 1.340 . S
C584 H624 0.951 . S
C585 C584 1.340 . S
C585 C586 1.439 . S
C585 H625 0.950 . S
C586 C585 1.439 . S
C586 N587 1.374 . S
C586 C620 1.395 . S
N587 C583 1.376 . S
N587 C586 1.374 . S
N587 Co588 2.008 . S
Co588 N587 2.008 . S
Co588 N589 1.995 . S
Co588 N594 2.008 . S
Co588 N599 1.995 . S
Co588 N604 2.282 . S
Co588 N610 2.282 . S
N589 Co588 1.995 . S
N589 C590 1.376 . S
N589 C593 1.383 . S
C590 N589 1.376 . S
C590 C591 1.446 . S
C590 C620 1.391 . S
C591 C590 1.446 . S
C591 C592 1.339 . S
C591 H626 0.949 . S
C592 C591 1.339 . S
C592 C593 1.439 . S
C592 H627 0.950 . S
C593 N589 1.383 . S
C593 C592 1.439 . S
C593 C622 1.392 . S
N594 Co588 2.008 . S
N594 C595 1.376 . S
N594 C598 1.374 . S
C595 N594 1.376 . S
C595 C596 1.443 . S
C595 C622 1.389 . S
C596 C595 1.443 . S
C596 C597 1.340 . S
C596 H628 0.951 . S
C597 C596 1.340 . S
C597 C598 1.439 . S
C597 H629 0.950 . S
C598 N594 1.374 . S
C598 C597 1.439 . S
C598 C623 1.395 . S
N599 Co588 1.995 . S
N599 C600 1.376 . S
N599 C603 1.383 . S
C600 N599 1.376 . S
C600 C601 1.446 . S
C600 C623 1.391 . S
C601 C600 1.446 . S
C601 C602 1.339 . S
C601 H630 0.949 . S
C602 C601 1.339 . S
C602 C603 1.439 . S
C602 H631 0.950 . S
C603 N599 1.383 . S
C603 C602 1.439 . S
C603 C621 1.392 . S
N604 Co588 2.282 . S
N604 C607 1.332 . S
N604 C609 1.332 . S
C605 C606 1.386 . S
C605 C608 1.388 . S
C606 C605 1.386 . S
C606 C607 1.382 . S
C606 H632 0.950 . S
C607 N604 1.332 . S
C607 C606 1.382 . S
C607 H618 0.952 . S
C608 C605 1.388 . S
C608 C609 1.382 . S
C608 H633 0.950 . S
C609 N604 1.332 . S
C609 C608 1.382 . S
C609 H619 0.948 . S
N610 Co588 2.282 . S
N610 C614 1.332 . S
N610 C615 1.332 . S
C611 C612 1.388 . S
C611 C615 1.382 . S
C611 H634 0.950 . S
C612 C611 1.388 . S
C612 C613 1.386 . S
C613 C612 1.386 . S
C613 C614 1.382 . S
C613 H635 0.950 . S
C614 N610 1.332 . S
C614 C613 1.382 . S
C614 H616 0.952 . S
C615 N610 1.332 . S
C615 C611 1.382 . S
C615 H617 0.948 . S
H616 C614 0.952 . S
H617 C615 0.948 . S
H618 C607 0.952 . S
H619 C609 0.948 . S
C620 C586 1.395 . S
C620 C590 1.391 . S
C621 C583 1.389 . S
C621 C603 1.392 . S
C622 C593 1.392 . S
C622 C595 1.389 . S
C623 C598 1.395 . S
C623 C600 1.391 . S
H624 C584 0.951 . S
H625 C585 0.950 . S
H626 C591 0.949 . S
H627 C592 0.950 . S
H628 C596 0.951 . S
H629 C597 0.950 . S
H630 C601 0.949 . S
H631 C602 0.950 . S
H632 C606 0.950 . S
H633 C608 0.950 . S
H634 C611 0.950 . S
H635 C613 0.950 . S
C636 C637 1.443 . S
C636 N640 1.376 . S
C636 C674 1.389 . S
C637 C636 1.443 . S
C637 C638 1.340 . S
C637 H677 0.951 . S
C638 C637 1.340 . S
C638 C639 1.439 . S
C638 H678 0.950 . S
C639 C638 1.439 . S
C639 N640 1.374 . S
C639 C673 1.395 . S
N640 C636 1.376 . S
N640 C639 1.374 . S
N640 Co641 2.008 . S
Co641 N640 2.008 . S
Co641 N642 1.995 . S
Co641 N647 2.008 . S
Co641 N652 1.995 . S
Co641 N657 2.282 . S
Co641 N663 2.282 . S
N642 Co641 1.995 . S
N642 C643 1.376 . S
N642 C646 1.383 . S
C643 N642 1.376 . S
C643 C644 1.446 . S
C643 C673 1.391 . S
C644 C643 1.446 . S
C644 C645 1.339 . S
C644 H679 0.949 . S
C645 C644 1.339 . S
C645 C646 1.439 . S
C645 H680 0.950 . S
C646 N642 1.383 . S
C646 C645 1.439 . S
C646 C675 1.392 . S
N647 Co641 2.008 . S
N647 C648 1.376 . S
N647 C651 1.374 . S
C648 N647 1.376 . S
C648 C649 1.443 . S
C648 C675 1.389 . S
C649 C648 1.443 . S
C649 C650 1.340 . S
C649 H681 0.951 . S
C650 C649 1.340 . S
C650 C651 1.439 . S
C650 H682 0.950 . S
C651 N647 1.374 . S
C651 C650 1.439 . S
C651 C676 1.395 . S
N652 Co641 1.995 . S
N652 C653 1.376 . S
N652 C656 1.383 . S
C653 N652 1.376 . S
C653 C654 1.446 . S
C653 C676 1.391 . S
C654 C653 1.446 . S
C654 C655 1.339 . S
C654 H683 0.949 . S
C655 C654 1.339 . S
C655 C656 1.439 . S
C655 H684 0.950 . S
C656 N652 1.383 . S
C656 C655 1.439 . S
C656 C674 1.392 . S
N657 Co641 2.282 . S
N657 C660 1.332 . S
N657 C662 1.332 . S
C658 C659 1.386 . S
C658 C661 1.388 . S
C659 C658 1.386 . S
C659 C660 1.382 . S
C659 H685 0.950 . S
C660 N657 1.332 . S
C660 C659 1.382 . S
C660 H671 0.952 . S
C661 C658 1.388 . S
C661 C662 1.382 . S
C661 H686 0.950 . S
C662 N657 1.332 . S
C662 C661 1.382 . S
C662 H672 0.948 . S
N663 Co641 2.282 . S
N663 C667 1.332 . S
N663 C668 1.332 . S
C664 C665 1.388 . S
C664 C668 1.382 . S
C664 H687 0.950 . S
C665 C664 1.388 . S
C665 C666 1.386 . S
C666 C665 1.386 . S
C666 C667 1.382 . S
C666 H688 0.950 . S
C667 N663 1.332 . S
C667 C666 1.382 . S
C667 H669 0.952 . S
C668 N663 1.332 . S
C668 C664 1.382 . S
C668 H670 0.948 . S
H669 C667 0.952 . S
H670 C668 0.948 . S
H671 C660 0.952 . S
H672 C662 0.948 . S
C673 C639 1.395 . S
C673 C643 1.391 . S
C674 C636 1.389 . S
C674 C656 1.392 . S
C675 C646 1.392 . S
C675 C648 1.389 . S
C676 C651 1.395 . S
C676 C653 1.391 . S
H677 C637 0.951 . S
H678 C638 0.950 . S
H679 C644 0.949 . S
H680 C645 0.950 . S
H681 C649 0.951 . S
H682 C650 0.950 . S
H683 C654 0.949 . S
H684 C655 0.950 . S
H685 C659 0.950 . S
H686 C661 0.950 . S
H687 C664 0.950 . S
H688 C666 0.950 . S
C689 C690 1.443 . S
C689 N693 1.376 . S
C689 C727 1.389 . S
C690 C689 1.443 . S
C690 C691 1.340 . S
C690 H730 0.951 . S
C691 C690 1.340 . S
C691 C692 1.439 . S
C691 H731 0.950 . S
C692 C691 1.439 . S
C692 N693 1.374 . S
C692 C726 1.395 . S
N693 C689 1.376 . S
N693 C692 1.374 . S
N693 Co694 2.008 . S
Co694 N693 2.008 . S
Co694 N695 1.995 . S
Co694 N700 2.008 . S
Co694 N705 1.995 . S
Co694 N710 2.282 . S
Co694 N716 2.282 . S
N695 Co694 1.995 . S
N695 C696 1.376 . S
N695 C699 1.383 . S
C696 N695 1.376 . S
C696 C697 1.446 . S
C696 C726 1.391 . S
C697 C696 1.446 . S
C697 C698 1.339 . S
C697 H732 0.949 . S
C698 C697 1.339 . S
C698 C699 1.439 . S
C698 H733 0.950 . S
C699 N695 1.383 . S
C699 C698 1.439 . S
C699 C728 1.392 . S
N700 Co694 2.008 . S
N700 C701 1.376 . S
N700 C704 1.374 . S
C701 N700 1.376 . S
C701 C702 1.443 . S
C701 C728 1.389 . S
C702 C701 1.443 . S
C702 C703 1.340 . S
C702 H734 0.951 . S
C703 C702 1.340 . S
C703 C704 1.439 . S
C703 H735 0.950 . S
C704 N700 1.374 . S
C704 C703 1.439 . S
C704 C729 1.395 . S
N705 Co694 1.995 . S
N705 C706 1.376 . S
N705 C709 1.383 . S
C706 N705 1.376 . S
C706 C707 1.446 . S
C706 C729 1.391 . S
C707 C706 1.446 . S
C707 C708 1.339 . S
C707 H736 0.949 . S
C708 C707 1.339 . S
C708 C709 1.439 . S
C708 H737 0.950 . S
C709 N705 1.383 . S
C709 C708 1.439 . S
C709 C727 1.392 . S
N710 Co694 2.282 . S
N710 C713 1.332 . S
N710 C715 1.332 . S
C711 C712 1.386 . S
C711 C714 1.388 . S
C712 C711 1.386 . S
C712 C713 1.382 . S
C712 H738 0.950 . S
C713 N710 1.332 . S
C713 C712 1.382 . S
C713 H724 0.952 . S
C714 C711 1.388 . S
C714 C715 1.382 . S
C714 H739 0.950 . S
C715 N710 1.332 . S
C715 C714 1.382 . S
C715 H725 0.948 . S
N716 Co694 2.282 . S
N716 C720 1.332 . S
N716 C721 1.332 . S
C717 C718 1.388 . S
C717 C721 1.382 . S
C717 H740 0.950 . S
C718 C717 1.388 . S
C718 C719 1.386 . S
C719 C718 1.386 . S
C719 C720 1.382 . S
C719 H741 0.950 . S
C720 N716 1.332 . S
C720 C719 1.382 . S
C720 H722 0.952 . S
C721 N716 1.332 . S
C721 C717 1.382 . S
C721 H723 0.948 . S
H722 C720 0.952 . S
H723 C721 0.948 . S
H724 C713 0.952 . S
H725 C715 0.948 . S
C726 C692 1.395 . S
C726 C696 1.391 . S
C727 C689 1.389 . S
C727 C709 1.392 . S
C728 C699 1.392 . S
C728 C701 1.389 . S
C729 C704 1.395 . S
C729 C706 1.391 . S
H730 C690 0.951 . S
H731 C691 0.950 . S
H732 C697 0.949 . S
H733 C698 0.950 . S
H734 C702 0.951 . S
H735 C703 0.950 . S
H736 C707 0.949 . S
H737 C708 0.950 . S
H738 C712 0.950 . S
H739 C714 0.950 . S
H740 C717 0.950 . S
H741 C719 0.950 . S
C742 C743 1.443 . S
C742 N746 1.376 . S
C742 C780 1.389 . S
C743 C742 1.443 . S
C743 C744 1.340 . S
C743 H783 0.951 . S
C744 C743 1.340 . S
C744 C745 1.439 . S
C744 H784 0.950 . S
C745 C744 1.439 . S
C745 N746 1.374 . S
C745 C779 1.395 . S
N746 C742 1.376 . S
N746 C745 1.374 . S
N746 Co747 2.008 . S
Co747 N746 2.008 . S
Co747 N748 1.995 . S
Co747 N753 2.008 . S
Co747 N758 1.995 . S
Co747 N763 2.282 . S
Co747 N769 2.282 . S
N748 Co747 1.995 . S
N748 C749 1.376 . S
N748 C752 1.383 . S
C749 N748 1.376 . S
C749 C750 1.446 . S
C749 C779 1.391 . S
C750 C749 1.446 . S
C750 C751 1.339 . S
C750 H785 0.949 . S
C751 C750 1.339 . S
C751 C752 1.439 . S
C751 H786 0.950 . S
C752 N748 1.383 . S
C752 C751 1.439 . S
C752 C781 1.392 . S
N753 Co747 2.008 . S
N753 C754 1.376 . S
N753 C757 1.374 . S
C754 N753 1.376 . S
C754 C755 1.443 . S
C754 C781 1.389 . S
C755 C754 1.443 . S
C755 C756 1.340 . S
C755 H787 0.951 . S
C756 C755 1.340 . S
C756 C757 1.439 . S
C756 H788 0.950 . S
C757 N753 1.374 . S
C757 C756 1.439 . S
C757 C782 1.395 . S
N758 Co747 1.995 . S
N758 C759 1.376 . S
N758 C762 1.383 . S
C759 N758 1.376 . S
C759 C760 1.446 . S
C759 C782 1.391 . S
C760 C759 1.446 . S
C760 C761 1.339 . S
C760 H789 0.949 . S
C761 C760 1.339 . S
C761 C762 1.439 . S
C761 H790 0.950 . S
C762 N758 1.383 . S
C762 C761 1.439 . S
C762 C780 1.392 . S
N763 Co747 2.282 . S
N763 C766 1.332 . S
N763 C768 1.332 . S
C764 C765 1.386 . S
C764 C767 1.388 . S
C765 C764 1.386 . S
C765 C766 1.382 . S
C765 H791 0.950 . S
C766 N763 1.332 . S
C766 C765 1.382 . S
C766 H777 0.952 . S
C767 C764 1.388 . S
C767 C768 1.382 . S
C767 H792 0.950 . S
C768 N763 1.332 . S
C768 C767 1.382 . S
C768 H778 0.948 . S
N769 Co747 2.282 . S
N769 C773 1.332 . S
N769 C774 1.332 . S
C770 C771 1.388 . S
C770 C774 1.382 . S
C770 H793 0.950 . S
C771 C770 1.388 . S
C771 C772 1.386 . S
C772 C771 1.386 . S
C772 C773 1.382 . S
C772 H794 0.950 . S
C773 N769 1.332 . S
C773 C772 1.382 . S
C773 H775 0.952 . S
C774 N769 1.332 . S
C774 C770 1.382 . S
C774 H776 0.948 . S
H775 C773 0.952 . S
H776 C774 0.948 . S
H777 C766 0.952 . S
H778 C768 0.948 . S
C779 C745 1.395 . S
C779 C749 1.391 . S
C780 C742 1.389 . S
C780 C762 1.392 . S
C781 C752 1.392 . S
C781 C754 1.389 . S
C782 C757 1.395 . S
C782 C759 1.391 . S
H783 C743 0.951 . S
H784 C744 0.950 . S
H785 C750 0.949 . S
H786 C751 0.950 . S
H787 C755 0.951 . S
H788 C756 0.950 . S
H789 C760 0.949 . S
H790 C761 0.950 . S
H791 C765 0.950 . S
H792 C767 0.950 . S
H793 C770 0.950 . S
H794 C772 0.950 . S
C795 C796 1.443 . S
C795 N799 1.376 . S
C795 C833 1.389 . S
C796 C795 1.443 . S
C796 C797 1.340 . S
C796 H836 0.951 . S
C797 C796 1.340 . S
C797 C798 1.439 . S
C797 H837 0.950 . S
C798 C797 1.439 . S
C798 N799 1.374 . S
C798 C832 1.395 . S
N799 C795 1.376 . S
N799 C798 1.374 . S
N799 Co800 2.008 . S
Co800 N799 2.008 . S
Co800 N801 1.995 . S
Co800 N806 2.008 . S
Co800 N811 1.995 . S
Co800 N816 2.282 . S
Co800 N822 2.282 . S
N801 Co800 1.995 . S
N801 C802 1.376 . S
N801 C805 1.383 . S
C802 N801 1.376 . S
C802 C803 1.446 . S
C802 C832 1.391 . S
C803 C802 1.446 . S
C803 C804 1.339 . S
C803 H838 0.949 . S
C804 C803 1.339 . S
C804 C805 1.439 . S
C804 H839 0.950 . S
C805 N801 1.383 . S
C805 C804 1.439 . S
C805 C834 1.392 . S
N806 Co800 2.008 . S
N806 C807 1.376 . S
N806 C810 1.374 . S
C807 N806 1.376 . S
C807 C808 1.443 . S
C807 C834 1.389 . S
C808 C807 1.443 . S
C808 C809 1.340 . S
C808 H840 0.951 . S
C809 C808 1.340 . S
C809 C810 1.439 . S
C809 H841 0.950 . S
C810 N806 1.374 . S
C810 C809 1.439 . S
C810 C835 1.395 . S
N811 Co800 1.995 . S
N811 C812 1.376 . S
N811 C815 1.383 . S
C812 N811 1.376 . S
C812 C813 1.446 . S
C812 C835 1.391 . S
C813 C812 1.446 . S
C813 C814 1.339 . S
C813 H842 0.949 . S
C814 C813 1.339 . S
C814 C815 1.439 . S
C814 H843 0.950 . S
C815 N811 1.383 . S
C815 C814 1.439 . S
C815 C833 1.392 . S
N816 Co800 2.282 . S
N816 C819 1.332 . S
N816 C821 1.332 . S
C817 C818 1.386 . S
C817 C820 1.388 . S
C818 C817 1.386 . S
C818 C819 1.382 . S
C818 H844 0.950 . S
C819 N816 1.332 . S
C819 C818 1.382 . S
C819 H830 0.952 . S
C820 C817 1.388 . S
C820 C821 1.382 . S
C820 H845 0.950 . S
C821 N816 1.332 . S
C821 C820 1.382 . S
C821 H831 0.948 . S
N822 Co800 2.282 . S
N822 C826 1.332 . S
N822 C827 1.332 . S
C823 C824 1.388 . S
C823 C827 1.382 . S
C823 H846 0.950 . S
C824 C823 1.388 . S
C824 C825 1.386 . S
C825 C824 1.386 . S
C825 C826 1.382 . S
C825 H847 0.950 . S
C826 N822 1.332 . S
C826 C825 1.382 . S
C826 H828 0.952 . S
C827 N822 1.332 . S
C827 C823 1.382 . S
C827 H829 0.948 . S
H828 C826 0.952 . S
H829 C827 0.948 . S
H830 C819 0.952 . S
H831 C821 0.948 . S
C832 C798 1.395 . S
C832 C802 1.391 . S
C833 C795 1.389 . S
C833 C815 1.392 . S
C834 C805 1.392 . S
C834 C807 1.389 . S
C835 C810 1.395 . S
C835 C812 1.391 . S
H836 C796 0.951 . S
H837 C797 0.950 . S
H838 C803 0.949 . S
H839 C804 0.950 . S
H840 C808 0.951 . S
H841 C809 0.950 . S
H842 C813 0.949 . S
H843 C814 0.950 . S
H844 C818 0.950 . S
H845 C820 0.950 . S
H846 C823 0.950 . S
H847 C825 0.950 . S
H848 C860 0.930 . S
H849 C862 0.930 . S
H850 C863 0.930 . S
H851 C867 0.959 . S
H852 C867 0.959 . S
H853 C867 0.961 1_455 S
H854 C868 0.960 . S
H855 C868 0.961 1_655 S
H856 C868 0.959 . S
H857 C871 0.929 . S
H858 C872 0.931 . S
H859 C874 0.930 . S
C860 H848 0.930 . S
C860 C861 1.399 . S
C860 C865 1.399 . S
C861 C860 1.399 . S
C861 C862 1.376 . S
C862 H849 0.930 . S
C862 C861 1.376 . S
C862 C863 1.388 . S
C863 H850 0.930 . S
C863 C862 1.388 . S
C863 C864 1.390 . S
C864 C863 1.390 . S
C864 C865 1.394 . S
C864 C870 1.465 1_455 S
C865 C860 1.399 . S
C865 C864 1.394 . S
C865 C866 1.541 . S
C866 C865 1.541 . S
C866 C867 1.497 1_455 S
C866 C868 1.567 . S
C866 C869 1.501 1_455 S
C867 H851 0.959 . S
C867 H852 0.959 . S
C867 H853 0.961 1_655 S
C867 C866 1.497 1_655 S
C868 H854 0.960 . S
C868 H855 0.961 1_455 S
C868 H856 0.959 . S
C868 C866 1.567 . S
C869 C866 1.501 1_655 S
C869 C870 1.396 . S
C869 C874 1.390 . S
C870 C864 1.465 1_655 S
C870 C869 1.396 . S
C870 C871 1.399 . S
C871 H857 0.929 . S
C871 C870 1.399 . S
C871 C872 1.385 . S
C872 H858 0.931 . S
C872 C871 1.385 . S
C872 C873 1.389 . S
C873 C872 1.389 . S
C873 C874 1.387 . S
C874 H859 0.930 . S
C874 C869 1.390 . S
C874 C873 1.387 . S
H875 C887 0.930 . S
H876 C889 0.930 . S
H877 C890 0.930 . S
H878 C894 0.959 . S
H879 C894 0.959 . S
H880 C894 0.961 1_565 S
H881 C895 0.960 . S
H882 C895 0.961 1_545 S
H883 C895 0.959 . S
H884 C898 0.929 . S
H885 C899 0.931 . S
H886 C901 0.930 . S
C887 H875 0.930 . S
C887 C888 1.399 . S
C887 C892 1.399 . S
C888 C887 1.399 . S
C888 C889 1.376 . S
C889 H876 0.930 . S
C889 C888 1.376 . S
C889 C890 1.388 . S
C890 H877 0.930 . S
C890 C889 1.388 . S
C890 C891 1.390 . S
C891 C890 1.390 . S
C891 C892 1.394 . S
C891 C897 1.465 1_565 S
C892 C887 1.399 . S
C892 C891 1.394 . S
C892 C893 1.512 . S
C893 C892 1.512 . S
C893 C894 1.503 1_565 S
C893 C895 1.560 . S
C893 C896 1.530 1_565 S
C894 H878 0.959 . S
C894 H879 0.959 . S
C894 H880 0.961 1_545 S
C894 C893 1.503 1_545 S
C895 H881 0.960 . S
C895 H882 0.961 1_565 S
C895 H883 0.959 . S
C895 C893 1.560 . S
C896 C893 1.530 1_545 S
C896 C897 1.396 . S
C896 C901 1.390 . S
C897 C891 1.465 1_545 S
C897 C896 1.396 . S
C897 C898 1.399 . S
C898 H884 0.929 . S
C898 C897 1.399 . S
C898 C899 1.385 . S
C899 H885 0.931 . S
C899 C898 1.385 . S
C899 C900 1.389 . S
C900 C899 1.389 . S
C900 C901 1.387 . S
C901 H886 0.930 . S
C901 C896 1.390 . S
C901 C900 1.387 . S
H902 C914 0.930 . S
H903 C916 0.930 . S
H904 C917 0.930 . S
H905 C921 0.959 . S
H906 C921 0.959 1_655 S
H907 C921 0.961 . S
H908 C922 0.924 1_455 S
H909 C922 0.991 . S
H910 C922 0.971 . S
H911 C925 0.929 . S
H912 C926 0.931 . S
H913 C928 0.930 . S
C914 H902 0.930 . S
C914 C915 1.399 . S
C914 C919 1.399 . S
C915 C914 1.399 . S
C915 C916 1.376 . S
C916 H903 0.930 . S
C916 C915 1.376 . S
C916 C917 1.388 . S
C917 H904 0.930 . S
C917 C916 1.388 . S
C917 C918 1.390 . S
C918 C917 1.390 . S
C918 C919 1.394 . S
C918 C924 1.465 1_455 S
C919 C914 1.399 . S
C919 C918 1.394 . S
C919 C920 1.516 . S
C920 C919 1.516 . S
C920 C921 1.502 . S
C920 C922 1.557 1_455 S
C920 C923 1.526 1_455 S
C921 H905 0.959 . S
C921 H906 0.959 1_455 S
C921 H907 0.961 . S
C921 C920 1.502 . S
C922 H908 0.924 1_655 S
C922 H909 0.991 . S
C922 H910 0.971 . S
C922 C920 1.557 1_655 S
C923 C920 1.526 1_655 S
C923 C924 1.396 . S
C923 C928 1.390 . S
C924 C918 1.465 1_655 S
C924 C923 1.396 . S
C924 C925 1.399 . S
C925 H911 0.929 . S
C925 C924 1.399 . S
C925 C926 1.385 . S
C926 H912 0.931 . S
C926 C925 1.385 . S
C926 C927 1.389 . S
C927 C926 1.389 . S
C927 C928 1.387 . S
C928 H913 0.930 . S
C928 C923 1.390 . S
C928 C927 1.387 . S
H929 C941 0.930 . S
H930 C943 0.930 . S
H931 C944 0.930 . S
H932 C948 0.959 1_545 S
H933 C948 0.959 1_545 S
H934 C948 0.961 . S
H935 C949 0.960 . S
H936 C949 0.961 1_545 S
H937 C949 0.959 . S
H938 C952 0.929 . S
H939 C953 0.931 . S
H940 C955 0.930 . S
C941 H929 0.930 . S
C941 C942 1.399 . S
C941 C946 1.399 . S
C942 C941 1.399 . S
C942 C943 1.376 . S
C943 H930 0.930 . S
C943 C942 1.376 . S
C943 C944 1.388 . S
C944 H931 0.930 . S
C944 C943 1.388 . S
C944 C945 1.390 . S
C945 C944 1.390 . S
C945 C946 1.394 . S
C945 C951 1.465 1_565 S
C946 C941 1.399 . S
C946 C945 1.394 . S
C946 C947 1.516 . S
C947 C946 1.516 . S
C947 C948 1.502 . S
C947 C949 1.561 . S
C947 C950 1.526 1_565 S
C948 H932 0.959 1_565 S
C948 H933 0.959 1_565 S
C948 H934 0.961 . S
C948 C947 1.502 . S
C949 H935 0.960 . S
C949 H936 0.961 1_565 S
C949 H937 0.959 . S
C949 C947 1.561 . S
C950 C947 1.526 1_545 S
C950 C951 1.396 . S
C950 C955 1.390 . S
C951 C945 1.465 1_545 S
C951 C950 1.396 . S
C951 C952 1.399 . S
C952 H938 0.929 . S
C952 C951 1.399 . S
C952 C953 1.385 . S
C953 H939 0.931 . S
C953 C952 1.385 . S
C953 C954 1.389 . S
C954 C953 1.389 . S
C954 C955 1.387 . S
C955 H940 0.930 . S
C955 C950 1.390 . S
C955 C954 1.387 . S
H956 C968 0.930 . S
H957 C970 0.930 . S
H958 C971 0.930 . S
H959 C975 0.963 . S
H960 C975 0.935 1_455 S
H961 C975 0.985 . S
H962 C976 0.960 1_655 S
H963 C976 0.961 . S
H964 C976 0.959 . S
H965 C979 0.929 . S
H966 C980 0.931 . S
H967 C982 0.930 . S
C968 H956 0.930 . S
C968 C969 1.399 . S
C968 C973 1.399 . S
C969 C968 1.399 . S
C969 C970 1.376 . S
C970 H957 0.930 . S
C970 C969 1.376 . S
C970 C971 1.388 . S
C971 H958 0.930 . S
C971 C970 1.388 . S
C971 C972 1.390 . S
C972 C971 1.390 . S
C972 C973 1.394 . S
C972 C978 1.465 1_655 S
C973 C968 1.399 . S
C973 C972 1.394 . S
C973 C974 1.516 1_655 S
C974 C973 1.516 1_455 S
C974 C975 1.499 1_455 S
C974 C976 1.561 . S
C974 C977 1.526 . S
C975 H959 0.963 . S
C975 H960 0.935 1_655 S
C975 H961 0.985 . S
C975 C974 1.499 1_655 S
C976 H962 0.960 1_455 S
C976 H963 0.961 . S
C976 H964 0.959 . S
C976 C974 1.561 . S
C977 C974 1.526 . S
C977 C978 1.396 . S
C977 C982 1.390 . S
C978 C972 1.465 1_455 S
C978 C977 1.396 . S
C978 C979 1.399 . S
C979 H965 0.929 . S
C979 C978 1.399 . S
C979 C980 1.385 . S
C980 H966 0.931 . S
C980 C979 1.385 . S
C980 C981 1.389 . S
C981 C980 1.389 . S
C981 C982 1.387 . S
C982 H967 0.930 . S
C982 C977 1.390 . S
C982 C981 1.387 . S
H983 C995 0.930 . S
H984 C997 0.930 . S
H985 C998 0.930 . S
H986 C1002 0.959 . S
H987 C1002 0.959 1_565 S
H988 C1002 0.961 . S
H989 C1003 0.960 1_545 S
H990 C1003 0.961 . S
H991 C1003 0.959 . S
H992 C1006 0.929 . S
H993 C1007 0.931 . S
H994 C1009 0.930 . S
C995 H983 0.930 . S
C995 C996 1.399 . S
C995 C1000 1.399 . S
C996 C995 1.399 . S
C996 C997 1.376 . S
C997 H984 0.930 . S
C997 C996 1.376 . S
C997 C998 1.388 . S
C998 H985 0.930 . S
C998 C997 1.388 . S
C998 C999 1.390 . S
C999 C998 1.390 . S
C999 C1000 1.394 . S
C999 C1005 1.465 1_545 S
C1000 C995 1.399 . S
C1000 C999 1.394 . S
C1000 C1001 1.516 . S
C1001 C1000 1.516 . S
C1001 C1002 1.502 . S
C1001 C1003 1.561 1_545 S
C1001 C1004 1.526 1_545 S
C1002 H986 0.959 . S
C1002 H987 0.959 1_545 S
C1002 H988 0.961 . S
C1002 C1001 1.502 . S
C1003 H989 0.960 1_565 S
C1003 H990 0.961 . S
C1003 H991 0.959 . S
C1003 C1001 1.561 1_565 S
C1004 C1001 1.526 1_565 S
C1004 C1005 1.396 . S
C1004 C1009 1.390 . S
C1005 C999 1.465 1_565 S
C1005 C1004 1.396 . S
C1005 C1006 1.399 . S
C1006 H992 0.929 . S
C1006 C1005 1.399 . S
C1006 C1007 1.385 . S
C1007 H993 0.931 . S
C1007 C1006 1.385 . S
C1007 C1008 1.389 . S
C1008 C1007 1.389 . S
C1008 C1009 1.387 . S
C1009 H994 0.930 . S
C1009 C1004 1.390 . S
C1009 C1008 1.387 . S
H1010 C1022 0.930 . S
H1011 C1024 0.930 . S
H1012 C1025 0.930 . S
H1013 C1029 0.959 . S
H1014 C1029 0.959 1_455 S
H1015 C1029 0.961 . S
H1016 C1030 0.960 1_655 S
H1017 C1030 0.961 . S
H1018 C1030 0.959 . S
H1019 C1033 0.929 . S
H1020 C1034 0.931 . S
H1021 C1036 0.930 . S
C1022 H1010 0.930 . S
C1022 C1023 1.399 . S
C1022 C1027 1.399 . S
C1023 C1022 1.399 . S
C1023 C1024 1.376 . S
C1024 H1011 0.930 . S
C1024 C1023 1.376 . S
C1024 C1025 1.388 . S
C1025 H1012 0.930 . S
C1025 C1024 1.388 . S
C1025 C1026 1.390 . S
C1026 C1025 1.390 . S
C1026 C1027 1.394 . S
C1026 C1032 1.465 1_655 S
C1027 C1022 1.399 . S
C1027 C1026 1.394 . S
C1027 C1028 1.531 . S
C1028 C1027 1.531 . S
C1028 C1029 1.505 . S
C1028 C1030 1.558 1_655 S
C1028 C1031 1.511 1_655 S
C1029 H1013 0.959 . S
C1029 H1014 0.959 1_655 S
C1029 H1015 0.961 . S
C1029 C1028 1.505 . S
C1030 H1016 0.960 1_455 S
C1030 H1017 0.961 . S
C1030 H1018 0.959 . S
C1030 C1028 1.558 1_455 S
C1031 C1028 1.511 1_455 S
C1031 C1032 1.396 . S
C1031 C1036 1.390 . S
C1032 C1026 1.465 1_455 S
C1032 C1031 1.396 . S
C1032 C1033 1.399 . S
C1033 H1019 0.929 . S
C1033 C1032 1.399 . S
C1033 C1034 1.385 . S
C1034 H1020 0.931 . S
C1034 C1033 1.385 . S
C1034 C1035 1.389 . S
C1035 C1034 1.389 . S
C1035 C1036 1.387 . S
C1036 H1021 0.930 . S
C1036 C1031 1.390 . S
C1036 C1035 1.387 . S
H1037 C1049 0.930 . S
H1038 C1051 0.930 . S
H1039 C1052 0.930 . S
H1040 C1056 0.959 . S
H1041 C1056 0.959 . S
H1042 C1056 0.961 1_545 S
H1043 C1057 0.960 . S
H1044 C1057 0.961 1_565 S
H1045 C1057 0.959 . S
H1046 C1060 0.929 . S
H1047 C1061 0.931 . S
H1048 C1063 0.930 . S
C1049 H1037 0.930 . S
C1049 C1050 1.399 . S
C1049 C1054 1.399 . S
C1050 C1049 1.399 . S
C1050 C1051 1.376 . S
C1051 H1038 0.930 . S
C1051 C1050 1.376 . S
C1051 C1052 1.388 . S
C1052 H1039 0.930 . S
C1052 C1051 1.388 . S
C1052 C1053 1.390 . S
C1053 C1052 1.390 . S
C1053 C1054 1.394 . S
C1053 C1059 1.465 1_545 S
C1054 C1049 1.399 . S
C1054 C1053 1.394 . S
C1054 C1055 1.516 1_545 S
C1055 C1054 1.516 1_565 S
C1055 C1056 1.502 . S
C1055 C1057 1.561 1_565 S
C1055 C1058 1.526 . S
C1056 H1040 0.959 . S
C1056 H1041 0.959 . S
C1056 H1042 0.961 1_565 S
C1056 C1055 1.502 . S
C1057 H1043 0.960 . S
C1057 H1044 0.961 1_545 S
C1057 H1045 0.959 . S
C1057 C1055 1.561 1_545 S
C1058 C1055 1.526 . S
C1058 C1059 1.396 . S
C1058 C1063 1.390 . S
C1059 C1053 1.465 1_565 S
C1059 C1058 1.396 . S
C1059 C1060 1.399 . S
C1060 H1046 0.929 . S
C1060 C1059 1.399 . S
C1060 C1061 1.385 . S
C1061 H1047 0.931 . S
C1061 C1060 1.385 . S
C1061 C1062 1.389 . S
C1062 C1061 1.389 . S
C1062 C1063 1.387 . S
C1063 H1048 0.930 . S
C1063 C1058 1.390 . S
C1063 C1062 1.387 . S
H1064 C1076 0.930 . S
H1065 C1078 0.930 . S
H1066 C1079 0.930 . S
H1067 C1083 0.959 . S
H1068 C1083 0.959 . S
H1069 C1083 0.961 . S
H1070 C1084 0.960 . S
H1071 C1084 0.961 . S
H1072 C1084 0.959 . S
H1073 C1087 0.929 . S
H1074 C1088 0.931 . S
H1075 C1090 0.930 . S
C1076 H1064 0.930 . S
C1076 C1077 1.399 . S
C1076 C1081 1.399 . S
C1077 C1076 1.399 . S
C1077 C1078 1.376 . S
C1078 H1065 0.930 . S
C1078 C1077 1.376 . S
C1078 C1079 1.388 . S
C1079 H1066 0.930 . S
C1079 C1078 1.388 . S
C1079 C1080 1.390 . S
C1080 C1079 1.390 . S
C1080 C1081 1.394 . S
C1080 C1086 1.465 . S
C1081 C1076 1.399 . S
C1081 C1080 1.394 . S
C1081 C1082 1.516 . S
C1082 C1081 1.516 . S
C1082 C1083 1.502 . S
C1082 C1084 1.561 . S
C1082 C1085 1.526 . S
C1083 H1067 0.959 . S
C1083 H1068 0.959 . S
C1083 H1069 0.961 . S
C1083 C1082 1.502 . S
C1084 H1070 0.960 . S
C1084 H1071 0.961 . S
C1084 H1072 0.959 . S
C1084 C1082 1.561 . S
C1085 C1082 1.526 . S
C1085 C1086 1.396 . S
C1085 C1090 1.390 . S
C1086 C1080 1.465 . S
C1086 C1085 1.396 . S
C1086 C1087 1.399 . S
C1087 H1073 0.929 . S
C1087 C1086 1.399 . S
C1087 C1088 1.385 . S
C1088 H1074 0.931 . S
C1088 C1087 1.385 . S
C1088 C1089 1.389 . S
C1089 C1088 1.389 . S
C1089 C1090 1.387 . S
C1090 H1075 0.930 . S
C1090 C1085 1.390 . S
C1090 C1089 1.387 . S
H1091 C1103 0.930 . S
H1092 C1105 0.930 . S
H1093 C1106 0.930 . S
H1094 C1110 0.959 . S
H1095 C1110 0.959 . S
H1096 C1110 0.961 . S
H1097 C1111 0.960 . S
H1098 C1111 0.961 . S
H1099 C1111 0.959 . S
H1100 C1114 0.929 . S
H1101 C1115 0.931 . S
H1102 C1117 0.930 . S
C1103 H1091 0.930 . S
C1103 C1104 1.399 . S
C1103 C1108 1.399 . S
C1104 C1103 1.399 . S
C1104 C1105 1.376 . S
C1105 H1092 0.930 . S
C1105 C1104 1.376 . S
C1105 C1106 1.388 . S
C1106 H1093 0.930 . S
C1106 C1105 1.388 . S
C1106 C1107 1.390 . S
C1107 C1106 1.390 . S
C1107 C1108 1.394 . S
C1107 C1113 1.465 . S
C1108 C1103 1.399 . S
C1108 C1107 1.394 . S
C1108 C1109 1.516 . S
C1109 C1108 1.516 . S
C1109 C1110 1.502 . S
C1109 C1111 1.561 . S
C1109 C1112 1.526 . S
C1110 H1094 0.959 . S
C1110 H1095 0.959 . S
C1110 H1096 0.961 . S
C1110 C1109 1.502 . S
C1111 H1097 0.960 . S
C1111 H1098 0.961 . S
C1111 H1099 0.959 . S
C1111 C1109 1.561 . S
C1112 C1109 1.526 . S
C1112 C1113 1.396 . S
C1112 C1117 1.390 . S
C1113 C1107 1.465 . S
C1113 C1112 1.396 . S
C1113 C1114 1.399 . S
C1114 H1100 0.929 . S
C1114 C1113 1.399 . S
C1114 C1115 1.385 . S
C1115 H1101 0.931 . S
C1115 C1114 1.385 . S
C1115 C1116 1.389 . S
C1116 C1115 1.389 . S
C1116 C1117 1.387 . S
C1117 H1102 0.930 . S
C1117 C1112 1.390 . S
C1117 C1116 1.387 . S
H1118 C1130 0.930 . S
H1119 C1132 0.930 . S
H1120 C1133 0.930 . S
H1121 C1137 0.959 . S
H1122 C1137 0.959 . S
H1123 C1137 0.961 . S
H1124 C1138 0.960 . S
H1125 C1138 0.961 . S
H1126 C1138 0.959 . S
H1127 C1141 0.929 . S
H1128 C1142 0.931 . S
H1129 C1144 0.930 . S
C1130 H1118 0.930 . S
C1130 C1131 1.399 . S
C1130 C1135 1.399 . S
C1131 C1130 1.399 . S
C1131 C1132 1.376 . S
C1132 H1119 0.930 . S
C1132 C1131 1.376 . S
C1132 C1133 1.388 . S
C1133 H1120 0.930 . S
C1133 C1132 1.388 . S
C1133 C1134 1.390 . S
C1134 C1133 1.390 . S
C1134 C1135 1.394 . S
C1134 C1140 1.465 . S
C1135 C1130 1.399 . S
C1135 C1134 1.394 . S
C1135 C1136 1.516 . S
C1136 C1135 1.516 . S
C1136 C1137 1.502 . S
C1136 C1138 1.561 . S
C1136 C1139 1.526 . S
C1137 H1121 0.959 . S
C1137 H1122 0.959 . S
C1137 H1123 0.961 . S
C1137 C1136 1.502 . S
C1138 H1124 0.960 . S
C1138 H1125 0.961 . S
C1138 H1126 0.959 . S
C1138 C1136 1.561 . S
C1139 C1136 1.526 . S
C1139 C1140 1.396 . S
C1139 C1144 1.390 . S
C1140 C1134 1.465 . S
C1140 C1139 1.396 . S
C1140 C1141 1.399 . S
C1141 H1127 0.929 . S
C1141 C1140 1.399 . S
C1141 C1142 1.385 . S
C1142 H1128 0.931 . S
C1142 C1141 1.385 . S
C1142 C1143 1.389 . S
C1143 C1142 1.389 . S
C1143 C1144 1.387 . S
C1144 H1129 0.930 . S
C1144 C1139 1.390 . S
C1144 C1143 1.387 . S
H1145 C1157 0.930 . S
H1146 C1159 0.930 . S
H1147 C1160 0.930 . S
H1148 C1164 0.959 . S
H1149 C1164 0.959 . S
H1150 C1164 0.961 . S
H1151 C1165 0.960 . S
H1152 C1165 0.961 . S
H1153 C1165 0.959 . S
H1154 C1168 0.929 . S
H1155 C1169 0.931 . S
H1156 C1171 0.930 . S
C1157 H1145 0.930 . S
C1157 C1158 1.399 . S
C1157 C1162 1.399 . S
C1158 C1157 1.399 . S
C1158 C1159 1.376 . S
C1159 H1146 0.930 . S
C1159 C1158 1.376 . S
C1159 C1160 1.388 . S
C1160 H1147 0.930 . S
C1160 C1159 1.388 . S
C1160 C1161 1.390 . S
C1161 C1160 1.390 . S
C1161 C1162 1.394 . S
C1161 C1167 1.465 . S
C1162 C1157 1.399 . S
C1162 C1161 1.394 . S
C1162 C1163 1.516 . S
C1163 C1162 1.516 . S
C1163 C1164 1.502 . S
C1163 C1165 1.561 . S
C1163 C1166 1.526 . S
C1164 H1148 0.959 . S
C1164 H1149 0.959 . S
C1164 H1150 0.961 . S
C1164 C1163 1.502 . S
C1165 H1151 0.960 . S
C1165 H1152 0.961 . S
C1165 H1153 0.959 . S
C1165 C1163 1.561 . S
C1166 C1163 1.526 . S
C1166 C1167 1.396 . S
C1166 C1171 1.390 . S
C1167 C1161 1.465 . S
C1167 C1166 1.396 . S
C1167 C1168 1.399 . S
C1168 H1154 0.929 . S
C1168 C1167 1.399 . S
C1168 C1169 1.385 . S
C1169 H1155 0.931 . S
C1169 C1168 1.385 . S
C1169 C1170 1.389 . S
C1170 C1169 1.389 . S
C1170 C1171 1.387 . S
C1171 H1156 0.930 . S
C1171 C1166 1.390 . S
C1171 C1170 1.387 . S
H1172 C1184 0.930 . S
H1173 C1186 0.930 . S
H1174 C1187 0.930 . S
H1175 C1191 0.959 . S
H1176 C1191 0.959 . S
H1177 C1191 0.961 . S
H1178 C1192 0.960 . S
H1179 C1192 0.961 . S
H1180 C1192 0.959 . S
H1181 C1195 0.929 . S
H1182 C1196 0.931 . S
H1183 C1198 0.930 . S
C1184 H1172 0.930 . S
C1184 C1185 1.399 . S
C1184 C1189 1.399 . S
C1185 C1184 1.399 . S
C1185 C1186 1.376 . S
C1186 H1173 0.930 . S
C1186 C1185 1.376 . S
C1186 C1187 1.388 . S
C1187 H1174 0.930 . S
C1187 C1186 1.388 . S
C1187 C1188 1.390 . S
C1188 C1187 1.390 . S
C1188 C1189 1.394 . S
C1188 C1194 1.465 . S
C1189 C1184 1.399 . S
C1189 C1188 1.394 . S
C1189 C1190 1.516 . S
C1190 C1189 1.516 . S
C1190 C1191 1.502 . S
C1190 C1192 1.561 . S
C1190 C1193 1.526 . S
C1191 H1175 0.959 . S
C1191 H1176 0.959 . S
C1191 H1177 0.961 . S
C1191 C1190 1.502 . S
C1192 H1178 0.960 . S
C1192 H1179 0.961 . S
C1192 H1180 0.959 . S
C1192 C1190 1.561 . S
C1193 C1190 1.526 . S
C1193 C1194 1.396 . S
C1193 C1198 1.390 . S
C1194 C1188 1.465 . S
C1194 C1193 1.396 . S
C1194 C1195 1.399 . S
C1195 H1181 0.929 . S
C1195 C1194 1.399 . S
C1195 C1196 1.385 . S
C1196 H1182 0.931 . S
C1196 C1195 1.385 . S
C1196 C1197 1.389 . S
C1197 C1196 1.389 . S
C1197 C1198 1.387 . S
C1198 H1183 0.930 . S
C1198 C1193 1.390 . S
C1198 C1197 1.387 . S
H1199 C1211 0.930 . S
H1200 C1213 0.930 . S
H1201 C1214 0.930 . S
H1202 C1218 0.959 . S
H1203 C1218 0.959 . S
H1204 C1218 0.961 . S
H1205 C1219 0.960 . S
H1206 C1219 0.961 . S
H1207 C1219 0.959 . S
H1208 C1222 0.929 . S
H1209 C1223 0.931 . S
H1210 C1225 0.930 . S
C1211 H1199 0.930 . S
C1211 C1212 1.399 . S
C1211 C1216 1.399 . S
C1212 C1211 1.399 . S
C1212 C1213 1.376 . S
C1213 H1200 0.930 . S
C1213 C1212 1.376 . S
C1213 C1214 1.388 . S
C1214 H1201 0.930 . S
C1214 C1213 1.388 . S
C1214 C1215 1.390 . S
C1215 C1214 1.390 . S
C1215 C1216 1.394 . S
C1215 C1221 1.465 . S
C1216 C1211 1.399 . S
C1216 C1215 1.394 . S
C1216 C1217 1.516 . S
C1217 C1216 1.516 . S
C1217 C1218 1.502 . S
C1217 C1219 1.561 . S
C1217 C1220 1.526 . S
C1218 H1202 0.959 . S
C1218 H1203 0.959 . S
C1218 H1204 0.961 . S
C1218 C1217 1.502 . S
C1219 H1205 0.960 . S
C1219 H1206 0.961 . S
C1219 H1207 0.959 . S
C1219 C1217 1.561 . S
C1220 C1217 1.526 . S
C1220 C1221 1.396 . S
C1220 C1225 1.390 . S
C1221 C1215 1.465 . S
C1221 C1220 1.396 . S
C1221 C1222 1.399 . S
C1222 H1208 0.929 . S
C1222 C1221 1.399 . S
C1222 C1223 1.385 . S
C1223 H1209 0.931 . S
C1223 C1222 1.385 . S
C1223 C1224 1.389 . S
C1224 C1223 1.389 . S
C1224 C1225 1.387 . S
C1225 H1210 0.930 . S
C1225 C1220 1.390 . S
C1225 C1224 1.387 . S
H1226 C1238 0.930 . S
H1227 C1240 0.930 . S
H1228 C1241 0.930 . S
H1229 C1245 0.959 . S
H1230 C1245 0.959 . S
H1231 C1245 0.961 . S
H1232 C1246 0.960 . S
H1233 C1246 0.961 . S
H1234 C1246 0.959 . S
H1235 C1249 0.929 . S
H1236 C1250 0.931 . S
H1237 C1252 0.930 . S
C1238 H1226 0.930 . S
C1238 C1239 1.399 . S
C1238 C1243 1.399 . S
C1239 C1238 1.399 . S
C1239 C1240 1.376 . S
C1240 H1227 0.930 . S
C1240 C1239 1.376 . S
C1240 C1241 1.388 . S
C1241 H1228 0.930 . S
C1241 C1240 1.388 . S
C1241 C1242 1.390 . S
C1242 C1241 1.390 . S
C1242 C1243 1.394 . S
C1242 C1248 1.465 . S
C1243 C1238 1.399 . S
C1243 C1242 1.394 . S
C1243 C1244 1.516 . S
C1244 C1243 1.516 . S
C1244 C1245 1.502 . S
C1244 C1246 1.561 . S
C1244 C1247 1.526 . S
C1245 H1229 0.959 . S
C1245 H1230 0.959 . S
C1245 H1231 0.961 . S
C1245 C1244 1.502 . S
C1246 H1232 0.960 . S
C1246 H1233 0.961 . S
C1246 H1234 0.959 . S
C1246 C1244 1.561 . S
C1247 C1244 1.526 . S
C1247 C1248 1.396 . S
C1247 C1252 1.390 . S
C1248 C1242 1.465 . S
C1248 C1247 1.396 . S
C1248 C1249 1.399 . S
C1249 H1235 0.929 . S
C1249 C1248 1.399 . S
C1249 C1250 1.385 . S
C1250 H1236 0.931 . S
C1250 C1249 1.385 . S
C1250 C1251 1.389 . S
C1251 C1250 1.389 . S
C1251 C1252 1.387 . S
C1252 H1237 0.930 . S
C1252 C1247 1.390 . S
C1252 C1251 1.387 . S
H1253 C1265 0.930 . S
H1254 C1267 0.930 . S
H1255 C1268 0.930 . S
H1256 C1272 0.959 . S
H1257 C1272 0.959 . S
H1258 C1272 0.961 . S
H1259 C1273 0.960 . S
H1260 C1273 0.961 . S
H1261 C1273 0.959 . S
H1262 C1276 0.929 . S
H1263 C1277 0.931 . S
H1264 C1279 0.930 . S
C1265 H1253 0.930 . S
C1265 C1266 1.399 . S
C1265 C1270 1.399 . S
C1266 C1265 1.399 . S
C1266 C1267 1.376 . S
C1267 H1254 0.930 . S
C1267 C1266 1.376 . S
C1267 C1268 1.388 . S
C1268 H1255 0.930 . S
C1268 C1267 1.388 . S
C1268 C1269 1.390 . S
C1269 C1268 1.390 . S
C1269 C1270 1.394 . S
C1269 C1275 1.465 . S
C1270 C1265 1.399 . S
C1270 C1269 1.394 . S
C1270 C1271 1.516 . S
C1271 C1270 1.516 . S
C1271 C1272 1.502 . S
C1271 C1273 1.561 . S
C1271 C1274 1.526 . S
C1272 H1256 0.959 . S
C1272 H1257 0.959 . S
C1272 H1258 0.961 . S
C1272 C1271 1.502 . S
C1273 H1259 0.960 . S
C1273 H1260 0.961 . S
C1273 H1261 0.959 . S
C1273 C1271 1.561 . S
C1274 C1271 1.526 . S
C1274 C1275 1.396 . S
C1274 C1279 1.390 . S
C1275 C1269 1.465 . S
C1275 C1274 1.396 . S
C1275 C1276 1.399 . S
C1276 H1262 0.929 . S
C1276 C1275 1.399 . S
C1276 C1277 1.385 . S
C1277 H1263 0.931 . S
C1277 C1276 1.385 . S
C1277 C1278 1.389 . S
C1278 C1277 1.389 . S
C1278 C1279 1.387 . S
C1279 H1264 0.930 . S
C1279 C1274 1.390 . S
C1279 C1278 1.387 . S
H1280 C1292 0.930 . S
H1281 C1294 0.930 . S
H1282 C1295 0.930 . S
H1283 C1299 0.962 . S
H1284 C1299 0.978 . S
H1285 C1299 0.940 1_556 S
H1286 C1300 0.958 1_556 S
H1287 C1300 0.963 . S
H1288 C1300 0.959 . S
H1289 C1303 0.929 . S
H1290 C1304 0.931 . S
H1291 C1306 0.930 . S
C1292 H1280 0.930 . S
C1292 C1293 1.399 . S
C1292 C1297 1.399 . S
C1293 C1292 1.399 . S
C1293 C1294 1.376 . S
C1294 H1281 0.930 . S
C1294 C1293 1.376 . S
C1294 C1295 1.388 . S
C1295 H1282 0.930 . S
C1295 C1294 1.388 . S
C1295 C1296 1.390 . S
C1296 C1295 1.390 . S
C1296 C1297 1.394 . S
C1296 C1302 1.465 1_556 S
C1297 C1292 1.399 . S
C1297 C1296 1.394 . S
C1297 C1298 1.518 1_556 S
C1298 C1297 1.518 1_554 S
C1298 C1299 1.502 . S
C1298 C1300 1.561 . S
C1298 C1301 1.524 . S
C1299 H1283 0.962 . S
C1299 H1284 0.978 . S
C1299 H1285 0.940 1_554 S
C1299 C1298 1.502 . S
C1300 H1286 0.958 1_554 S
C1300 H1287 0.963 . S
C1300 H1288 0.959 . S
C1300 C1298 1.561 . S
C1301 C1298 1.524 . S
C1301 C1302 1.396 . S
C1301 C1306 1.390 . S
C1302 C1296 1.465 1_554 S
C1302 C1301 1.396 . S
C1302 C1303 1.399 . S
C1303 H1289 0.929 . S
C1303 C1302 1.399 . S
C1303 C1304 1.385 . S
C1304 H1290 0.931 . S
C1304 C1303 1.385 . S
C1304 C1305 1.389 . S
C1305 C1304 1.389 . S
C1305 C1306 1.387 . S
C1306 H1291 0.930 . S
C1306 C1301 1.390 . S
C1306 C1305 1.387 . S
H1307 C1319 0.930 . S
H1308 C1321 0.930 . S
H1309 C1322 0.930 . S
H1310 C1326 0.959 . S
H1311 C1326 0.959 . S
H1312 C1326 0.961 . S
H1313 C1327 0.960 . S
H1314 C1327 0.961 . S
H1315 C1327 0.959 . S
H1316 C1330 0.929 . S
H1317 C1331 0.931 . S
H1318 C1333 0.930 . S
C1319 H1307 0.930 . S
C1319 C1320 1.399 . S
C1319 C1324 1.399 . S
C1320 C1319 1.399 . S
C1320 C1321 1.376 . S
C1321 H1308 0.930 . S
C1321 C1320 1.376 . S
C1321 C1322 1.388 . S
C1322 H1309 0.930 . S
C1322 C1321 1.388 . S
C1322 C1323 1.390 . S
C1323 C1322 1.390 . S
C1323 C1324 1.394 . S
C1323 C1329 1.465 . S
C1324 C1319 1.399 . S
C1324 C1323 1.394 . S
C1324 C1325 1.516 . S
C1325 C1324 1.516 . S
C1325 C1326 1.502 . S
C1325 C1327 1.561 . S
C1325 C1328 1.526 . S
C1326 H1310 0.959 . S
C1326 H1311 0.959 . S
C1326 H1312 0.961 . S
C1326 C1325 1.502 . S
C1327 H1313 0.960 . S
C1327 H1314 0.961 . S
C1327 H1315 0.959 . S
C1327 C1325 1.561 . S
C1328 C1325 1.526 . S
C1328 C1329 1.396 . S
C1328 C1333 1.390 . S
C1329 C1323 1.465 . S
C1329 C1328 1.396 . S
C1329 C1330 1.399 . S
C1330 H1316 0.929 . S
C1330 C1329 1.399 . S
C1330 C1331 1.385 . S
C1331 H1317 0.931 . S
C1331 C1330 1.385 . S
C1331 C1332 1.389 . S
C1332 C1331 1.389 . S
C1332 C1333 1.387 . S
C1333 H1318 0.930 . S
C1333 C1328 1.390 . S
C1333 C1332 1.387 . S
H1334 C1346 0.930 . S
H1335 C1348 0.930 . S
H1336 C1349 0.930 . S
H1337 C1353 0.962 . S
H1338 C1353 0.978 . S
H1339 C1353 0.940 1_554 S
H1340 C1354 0.958 1_554 S
H1341 C1354 0.963 . S
H1342 C1354 0.959 . S
H1343 C1357 0.929 . S
H1344 C1358 0.931 . S
H1345 C1360 0.930 . S
C1346 H1334 0.930 . S
C1346 C1347 1.399 . S
C1346 C1351 1.399 . S
C1347 C1346 1.399 . S
C1347 C1348 1.376 . S
C1348 H1335 0.930 . S
C1348 C1347 1.376 . S
C1348 C1349 1.388 . S
C1349 H1336 0.930 . S
C1349 C1348 1.388 . S
C1349 C1350 1.390 . S
C1350 C1349 1.390 . S
C1350 C1351 1.394 . S
C1350 C1356 1.465 1_554 S
C1351 C1346 1.399 . S
C1351 C1350 1.394 . S
C1351 C1352 1.518 1_554 S
C1352 C1351 1.518 1_556 S
C1352 C1353 1.502 . S
C1352 C1354 1.561 . S
C1352 C1355 1.524 . S
C1353 H1337 0.962 . S
C1353 H1338 0.978 . S
C1353 H1339 0.940 1_556 S
C1353 C1352 1.502 . S
C1354 H1340 0.958 1_556 S
C1354 H1341 0.963 . S
C1354 H1342 0.959 . S
C1354 C1352 1.561 . S
C1355 C1352 1.524 . S
C1355 C1356 1.396 . S
C1355 C1360 1.390 . S
C1356 C1350 1.465 1_556 S
C1356 C1355 1.396 . S
C1356 C1357 1.399 . S
C1357 H1343 0.929 . S
C1357 C1356 1.399 . S
C1357 C1358 1.385 . S
C1358 H1344 0.931 . S
C1358 C1357 1.385 . S
C1358 C1359 1.389 . S
C1359 C1358 1.389 . S
C1359 C1360 1.387 . S
C1360 H1345 0.930 . S
C1360 C1355 1.390 . S
C1360 C1359 1.387 . S
H1361 C1373 0.930 . S
H1362 C1375 0.930 . S
H1363 C1376 0.930 . S
H1364 C1380 0.959 . S
H1365 C1380 0.959 . S
H1366 C1380 0.961 . S
H1367 C1381 0.960 . S
H1368 C1381 0.961 . S
H1369 C1381 0.959 . S
H1370 C1384 0.929 . S
H1371 C1385 0.931 . S
H1372 C1387 0.930 . S
C1373 H1361 0.930 . S
C1373 C1374 1.399 . S
C1373 C1378 1.399 . S
C1374 C1373 1.399 . S
C1374 C1375 1.376 . S
C1375 H1362 0.930 . S
C1375 C1374 1.376 . S
C1375 C1376 1.388 . S
C1376 H1363 0.930 . S
C1376 C1375 1.388 . S
C1376 C1377 1.390 . S
C1377 C1376 1.390 . S
C1377 C1378 1.394 . S
C1377 C1383 1.465 . S
C1378 C1373 1.399 . S
C1378 C1377 1.394 . S
C1378 C1379 1.516 . S
C1379 C1378 1.516 . S
C1379 C1380 1.502 . S
C1379 C1381 1.561 . S
C1379 C1382 1.526 . S
C1380 H1364 0.959 . S
C1380 H1365 0.959 . S
C1380 H1366 0.961 . S
C1380 C1379 1.502 . S
C1381 H1367 0.960 . S
C1381 H1368 0.961 . S
C1381 H1369 0.959 . S
C1381 C1379 1.561 . S
C1382 C1379 1.526 . S
C1382 C1383 1.396 . S
C1382 C1387 1.390 . S
C1383 C1377 1.465 . S
C1383 C1382 1.396 . S
C1383 C1384 1.399 . S
C1384 H1370 0.929 . S
C1384 C1383 1.399 . S
C1384 C1385 1.385 . S
C1385 H1371 0.931 . S
C1385 C1384 1.385 . S
C1385 C1386 1.389 . S
C1386 C1385 1.389 . S
C1386 C1387 1.387 . S
C1387 H1372 0.930 . S
C1387 C1382 1.390 . S
C1387 C1386 1.387 . S
H1388 C1400 0.930 . S
H1389 C1402 0.930 . S
H1390 C1403 0.930 . S
H1391 C1407 0.959 . S
H1392 C1407 0.959 . S
H1393 C1407 0.961 . S
H1394 C1408 0.960 . S
H1395 C1408 0.961 . S
H1396 C1408 0.959 . S
H1397 C1411 0.929 . S
H1398 C1412 0.931 . S
H1399 C1414 0.930 . S
C1400 H1388 0.930 . S
C1400 C1401 1.399 . S
C1400 C1405 1.399 . S
C1401 C1400 1.399 . S
C1401 C1402 1.376 . S
C1402 H1389 0.930 . S
C1402 C1401 1.376 . S
C1402 C1403 1.388 . S
C1403 H1390 0.930 . S
C1403 C1402 1.388 . S
C1403 C1404 1.390 . S
C1404 C1403 1.390 . S
C1404 C1405 1.394 . S
C1404 C1410 1.465 . S
C1405 C1400 1.399 . S
C1405 C1404 1.394 . S
C1405 C1406 1.516 . S
C1406 C1405 1.516 . S
C1406 C1407 1.502 . S
C1406 C1408 1.561 . S
C1406 C1409 1.526 . S
C1407 H1391 0.959 . S
C1407 H1392 0.959 . S
C1407 H1393 0.961 . S
C1407 C1406 1.502 . S
C1408 H1394 0.960 . S
C1408 H1395 0.961 . S
C1408 H1396 0.959 . S
C1408 C1406 1.561 . S
C1409 C1406 1.526 . S
C1409 C1410 1.396 . S
C1409 C1414 1.390 . S
C1410 C1404 1.465 . S
C1410 C1409 1.396 . S
C1410 C1411 1.399 . S
C1411 H1397 0.929 . S
C1411 C1410 1.399 . S
C1411 C1412 1.385 . S
C1412 H1398 0.931 . S
C1412 C1411 1.385 . S
C1412 C1413 1.389 . S
C1413 C1412 1.389 . S
C1413 C1414 1.387 . S
C1414 H1399 0.930 . S
C1414 C1409 1.390 . S
C1414 C1413 1.387 . S
H1415 C1427 0.930 . S
H1416 C1429 0.930 . S
H1417 C1430 0.930 . S
H1418 C1434 0.962 . S
H1419 C1434 0.978 . S
H1420 C1434 0.940 1_556 S
H1421 C1435 0.958 1_556 S
H1422 C1435 0.963 . S
H1423 C1435 0.959 . S
H1424 C1438 0.929 . S
H1425 C1439 0.931 . S
H1426 C1441 0.930 . S
C1427 H1415 0.930 . S
C1427 C1428 1.399 . S
C1427 C1432 1.399 . S
C1428 C1427 1.399 . S
C1428 C1429 1.376 . S
C1429 H1416 0.930 . S
C1429 C1428 1.376 . S
C1429 C1430 1.388 . S
C1430 H1417 0.930 . S
C1430 C1429 1.388 . S
C1430 C1431 1.390 . S
C1431 C1430 1.390 . S
C1431 C1432 1.394 . S
C1431 C1437 1.465 1_556 S
C1432 C1427 1.399 . S
C1432 C1431 1.394 . S
C1432 C1433 1.518 1_556 S
C1433 C1432 1.518 1_554 S
C1433 C1434 1.502 . S
C1433 C1435 1.561 . S
C1433 C1436 1.524 . S
C1434 H1418 0.962 . S
C1434 H1419 0.978 . S
C1434 H1420 0.940 1_554 S
C1434 C1433 1.502 . S
C1435 H1421 0.958 1_554 S
C1435 H1422 0.963 . S
C1435 H1423 0.959 . S
C1435 C1433 1.561 . S
C1436 C1433 1.524 . S
C1436 C1437 1.396 . S
C1436 C1441 1.390 . S
C1437 C1431 1.465 1_554 S
C1437 C1436 1.396 . S
C1437 C1438 1.399 . S
C1438 H1424 0.929 . S
C1438 C1437 1.399 . S
C1438 C1439 1.385 . S
C1439 H1425 0.931 . S
C1439 C1438 1.385 . S
C1439 C1440 1.389 . S
C1440 C1439 1.389 . S
C1440 C1441 1.387 . S
C1441 H1426 0.930 . S
C1441 C1436 1.390 . S
C1441 C1440 1.387 . S
H1442 C1454 0.930 . S
H1443 C1456 0.930 . S
H1444 C1457 0.930 . S
H1445 C1461 0.959 . S
H1446 C1461 0.959 . S
H1447 C1461 0.961 . S
H1448 C1462 0.960 . S
H1449 C1462 0.961 . S
H1450 C1462 0.959 . S
H1451 C1465 0.929 . S
H1452 C1466 0.931 . S
H1453 C1468 0.930 . S
C1454 H1442 0.930 . S
C1454 C1455 1.399 . S
C1454 C1459 1.399 . S
C1455 C1454 1.399 . S
C1455 C1456 1.376 . S
C1456 H1443 0.930 . S
C1456 C1455 1.376 . S
C1456 C1457 1.388 . S
C1457 H1444 0.930 . S
C1457 C1456 1.388 . S
C1457 C1458 1.390 . S
C1458 C1457 1.390 . S
C1458 C1459 1.394 . S
C1458 C1464 1.465 . S
C1459 C1454 1.399 . S
C1459 C1458 1.394 . S
C1459 C1460 1.516 . S
C1460 C1459 1.516 . S
C1460 C1461 1.502 . S
C1460 C1462 1.561 . S
C1460 C1463 1.526 . S
C1461 H1445 0.959 . S
C1461 H1446 0.959 . S
C1461 H1447 0.961 . S
C1461 C1460 1.502 . S
C1462 H1448 0.960 . S
C1462 H1449 0.961 . S
C1462 H1450 0.959 . S
C1462 C1460 1.561 . S
C1463 C1460 1.526 . S
C1463 C1464 1.396 . S
C1463 C1468 1.390 . S
C1464 C1458 1.465 . S
C1464 C1463 1.396 . S
C1464 C1465 1.399 . S
C1465 H1451 0.929 . S
C1465 C1464 1.399 . S
C1465 C1466 1.385 . S
C1466 H1452 0.931 . S
C1466 C1465 1.385 . S
C1466 C1467 1.389 . S
C1467 C1466 1.389 . S
C1467 C1468 1.387 . S
C1468 H1453 0.930 . S
C1468 C1463 1.390 . S
C1468 C1467 1.387 . S
H1469 C1481 0.930 . S
H1470 C1483 0.930 . S
H1471 C1484 0.930 . S
H1472 C1488 0.962 . S
H1473 C1488 0.978 . S
H1474 C1488 0.940 1_554 S
H1475 C1489 0.958 1_554 S
H1476 C1489 0.963 . S
H1477 C1489 0.959 . S
H1478 C1492 0.929 . S
H1479 C1493 0.931 . S
H1480 C1495 0.930 . S
C1481 H1469 0.930 . S
C1481 C1482 1.399 . S
C1481 C1486 1.399 . S
C1482 C1481 1.399 . S
C1482 C1483 1.376 . S
C1483 H1470 0.930 . S
C1483 C1482 1.376 . S
C1483 C1484 1.388 . S
C1484 H1471 0.930 . S
C1484 C1483 1.388 . S
C1484 C1485 1.390 . S
C1485 C1484 1.390 . S
C1485 C1486 1.394 . S
C1485 C1491 1.465 1_554 S
C1486 C1481 1.399 . S
C1486 C1485 1.394 . S
C1486 C1487 1.518 1_554 S
C1487 C1486 1.518 1_556 S
C1487 C1488 1.502 . S
C1487 C1489 1.561 . S
C1487 C1490 1.524 . S
C1488 H1472 0.962 . S
C1488 H1473 0.978 . S
C1488 H1474 0.940 1_556 S
C1488 C1487 1.502 . S
C1489 H1475 0.958 1_556 S
C1489 H1476 0.963 . S
C1489 H1477 0.959 . S
C1489 C1487 1.561 . S
C1490 C1487 1.524 . S
C1490 C1491 1.396 . S
C1490 C1495 1.390 . S
C1491 C1485 1.465 1_556 S
C1491 C1490 1.396 . S
C1491 C1492 1.399 . S
C1492 H1478 0.929 . S
C1492 C1491 1.399 . S
C1492 C1493 1.385 . S
C1493 H1479 0.931 . S
C1493 C1492 1.385 . S
C1493 C1494 1.389 . S
C1494 C1493 1.389 . S
C1494 C1495 1.387 . S
C1495 H1480 0.930 . S
C1495 C1490 1.390 . S
C1495 C1494 1.387 . S
H1496 C1508 0.930 . S
H1497 C1510 0.930 . S
H1498 C1511 0.930 . S
H1499 C1515 0.959 . S
H1500 C1515 0.959 . S
H1501 C1515 0.961 . S
H1502 C1516 0.960 . S
H1503 C1516 0.961 . S
H1504 C1516 0.959 . S
H1505 C1519 0.929 . S
H1506 C1520 0.931 . S
H1507 C1522 0.930 . S
C1508 H1496 0.930 . S
C1508 C1509 1.399 . S
C1508 C1513 1.399 . S
C1509 C1508 1.399 . S
C1509 C1510 1.376 . S
C1510 H1497 0.930 . S
C1510 C1509 1.376 . S
C1510 C1511 1.388 . S
C1511 H1498 0.930 . S
C1511 C1510 1.388 . S
C1511 C1512 1.390 . S
C1512 C1511 1.390 . S
C1512 C1513 1.394 . S
C1512 C1518 1.465 . S
C1513 C1508 1.399 . S
C1513 C1512 1.394 . S
C1513 C1514 1.516 . S
C1514 C1513 1.516 . S
C1514 C1515 1.502 . S
C1514 C1516 1.561 . S
C1514 C1517 1.526 . S
C1515 H1499 0.959 . S
C1515 H1500 0.959 . S
C1515 H1501 0.961 . S
C1515 C1514 1.502 . S
C1516 H1502 0.960 . S
C1516 H1503 0.961 . S
C1516 H1504 0.959 . S
C1516 C1514 1.561 . S
C1517 C1514 1.526 . S
C1517 C1518 1.396 . S
C1517 C1522 1.390 . S
C1518 C1512 1.465 . S
C1518 C1517 1.396 . S
C1518 C1519 1.399 . S
C1519 H1505 0.929 . S
C1519 C1518 1.399 . S
C1519 C1520 1.385 . S
C1520 H1506 0.931 . S
C1520 C1519 1.385 . S
C1520 C1521 1.389 . S
C1521 C1520 1.389 . S
C1521 C1522 1.387 . S
C1522 H1507 0.930 . S
C1522 C1517 1.390 . S
C1522 C1521 1.387 . S
H1523 C1535 0.930 . S
H1524 C1537 0.930 . S
H1525 C1538 0.930 . S
H1526 C1542 0.959 . S
H1527 C1542 0.959 . S
H1528 C1542 0.961 . S
H1529 C1543 0.960 . S
H1530 C1543 0.961 . S
H1531 C1543 0.959 . S
H1532 C1546 0.929 . S
H1533 C1547 0.931 . S
H1534 C1549 0.930 . S
C1535 H1523 0.930 . S
C1535 C1536 1.399 . S
C1535 C1540 1.399 . S
C1536 C1535 1.399 . S
C1536 C1537 1.376 . S
C1537 H1524 0.930 . S
C1537 C1536 1.376 . S
C1537 C1538 1.388 . S
C1538 H1525 0.930 . S
C1538 C1537 1.388 . S
C1538 C1539 1.390 . S
C1539 C1538 1.390 . S
C1539 C1540 1.394 . S
C1539 C1545 1.465 . S
C1540 C1535 1.399 . S
C1540 C1539 1.394 . S
C1540 C1541 1.516 . S
C1541 C1540 1.516 . S
C1541 C1542 1.502 . S
C1541 C1543 1.561 . S
C1541 C1544 1.526 . S
C1542 H1526 0.959 . S
C1542 H1527 0.959 . S
C1542 H1528 0.961 . S
C1542 C1541 1.502 . S
C1543 H1529 0.960 . S
C1543 H1530 0.961 . S
C1543 H1531 0.959 . S
C1543 C1541 1.561 . S
C1544 C1541 1.526 . S
C1544 C1545 1.396 . S
C1544 C1549 1.390 . S
C1545 C1539 1.465 . S
C1545 C1544 1.396 . S
C1545 C1546 1.399 . S
C1546 H1532 0.929 . S
C1546 C1545 1.399 . S
C1546 C1547 1.385 . S
C1547 H1533 0.931 . S
C1547 C1546 1.385 . S
C1547 C1548 1.389 . S
C1548 C1547 1.389 . S
C1548 C1549 1.387 . S
C1549 H1534 0.930 . S
C1549 C1544 1.390 . S
C1549 C1548 1.387 . S
H1550 C1562 0.930 . S
H1551 C1564 0.930 . S
H1552 C1565 0.930 . S
H1553 C1569 0.959 . S
H1554 C1569 0.959 . S
H1555 C1569 0.961 . S
H1556 C1570 0.960 . S
H1557 C1570 0.961 . S
H1558 C1570 0.959 . S
H1559 C1573 0.929 . S
H1560 C1574 0.931 . S
H1561 C1576 0.930 . S
C1562 H1550 0.930 . S
C1562 C1563 1.399 . S
C1562 C1567 1.399 . S
C1563 C1562 1.399 . S
C1563 C1564 1.376 . S
C1564 H1551 0.930 . S
C1564 C1563 1.376 . S
C1564 C1565 1.388 . S
C1565 H1552 0.930 . S
C1565 C1564 1.388 . S
C1565 C1566 1.390 . S
C1566 C1565 1.390 . S
C1566 C1567 1.394 . S
C1566 C1572 1.465 . S
C1567 C1562 1.399 . S
C1567 C1566 1.394 . S
C1567 C1568 1.516 . S
C1568 C1567 1.516 . S
C1568 C1569 1.502 . S
C1568 C1570 1.561 . S
C1568 C1571 1.526 . S
C1569 H1553 0.959 . S
C1569 H1554 0.959 . S
C1569 H1555 0.961 . S
C1569 C1568 1.502 . S
C1570 H1556 0.960 . S
C1570 H1557 0.961 . S
C1570 H1558 0.959 . S
C1570 C1568 1.561 . S
C1571 C1568 1.526 . S
C1571 C1572 1.396 . S
C1571 C1576 1.390 . S
C1572 C1566 1.465 . S
C1572 C1571 1.396 . S
C1572 C1573 1.399 . S
C1573 H1559 0.929 . S
C1573 C1572 1.399 . S
C1573 C1574 1.385 . S
C1574 H1560 0.931 . S
C1574 C1573 1.385 . S
C1574 C1575 1.389 . S
C1575 C1574 1.389 . S
C1575 C1576 1.387 . S
C1576 H1561 0.930 . S
C1576 C1571 1.390 . S
C1576 C1575 1.387 . S
H1577 C1589 0.930 . S
H1578 C1591 0.930 . S
H1579 C1592 0.930 . S
H1580 C1596 0.959 . S
H1581 C1596 0.959 . S
H1582 C1596 0.961 . S
H1583 C1597 0.960 . S
H1584 C1597 0.961 . S
H1585 C1597 0.959 . S
H1586 C1600 0.929 . S
H1587 C1601 0.931 . S
H1588 C1603 0.930 . S
C1589 H1577 0.930 . S
C1589 C1590 1.399 . S
C1589 C1594 1.399 . S
C1590 C1589 1.399 . S
C1590 C1591 1.376 . S
C1591 H1578 0.930 . S
C1591 C1590 1.376 . S
C1591 C1592 1.388 . S
C1592 H1579 0.930 . S
C1592 C1591 1.388 . S
C1592 C1593 1.390 . S
C1593 C1592 1.390 . S
C1593 C1594 1.394 . S
C1593 C1599 1.465 . S
C1594 C1589 1.399 . S
C1594 C1593 1.394 . S
C1594 C1595 1.516 . S
C1595 C1594 1.516 . S
C1595 C1596 1.502 . S
C1595 C1597 1.561 . S
C1595 C1598 1.526 . S
C1596 H1580 0.959 . S
C1596 H1581 0.959 . S
C1596 H1582 0.961 . S
C1596 C1595 1.502 . S
C1597 H1583 0.960 . S
C1597 H1584 0.961 . S
C1597 H1585 0.959 . S
C1597 C1595 1.561 . S
C1598 C1595 1.526 . S
C1598 C1599 1.396 . S
C1598 C1603 1.390 . S
C1599 C1593 1.465 . S
C1599 C1598 1.396 . S
C1599 C1600 1.399 . S
C1600 H1586 0.929 . S
C1600 C1599 1.399 . S
C1600 C1601 1.385 . S
C1601 H1587 0.931 . S
C1601 C1600 1.385 . S
C1601 C1602 1.389 . S
C1602 C1601 1.389 . S
C1602 C1603 1.387 . S
C1603 H1588 0.930 . S
C1603 C1598 1.390 . S
C1603 C1602 1.387 . S
H1604 C1616 0.930 . S
H1605 C1618 0.930 . S
H1606 C1619 0.930 . S
H1607 C1623 0.959 . S
H1608 C1623 0.959 . S
H1609 C1623 0.961 . S
H1610 C1624 0.960 . S
H1611 C1624 0.961 . S
H1612 C1624 0.959 . S
H1613 C1627 0.929 . S
H1614 C1628 0.931 . S
H1615 C1630 0.930 . S
C1616 H1604 0.930 . S
C1616 C1617 1.399 . S
C1616 C1621 1.399 . S
C1617 C1616 1.399 . S
C1617 C1618 1.376 . S
C1618 H1605 0.930 . S
C1618 C1617 1.376 . S
C1618 C1619 1.388 . S
C1619 H1606 0.930 . S
C1619 C1618 1.388 . S
C1619 C1620 1.390 . S
C1620 C1619 1.390 . S
C1620 C1621 1.394 . S
C1620 C1626 1.465 . S
C1621 C1616 1.399 . S
C1621 C1620 1.394 . S
C1621 C1622 1.516 . S
C1622 C1621 1.516 . S
C1622 C1623 1.502 . S
C1622 C1624 1.561 . S
C1622 C1625 1.526 . S
C1623 H1607 0.959 . S
C1623 H1608 0.959 . S
C1623 H1609 0.961 . S
C1623 C1622 1.502 . S
C1624 H1610 0.960 . S
C1624 H1611 0.961 . S
C1624 H1612 0.959 . S
C1624 C1622 1.561 . S
C1625 C1622 1.526 . S
C1625 C1626 1.396 . S
C1625 C1630 1.390 . S
C1626 C1620 1.465 . S
C1626 C1625 1.396 . S
C1626 C1627 1.399 . S
C1627 H1613 0.929 . S
C1627 C1626 1.399 . S
C1627 C1628 1.385 . S
C1628 H1614 0.931 . S
C1628 C1627 1.385 . S
C1628 C1629 1.389 . S
C1629 C1628 1.389 . S
C1629 C1630 1.387 . S
C1630 H1615 0.930 . S
C1630 C1625 1.390 . S
C1630 C1629 1.387 . S
H1631 C1643 0.930 . S
H1632 C1645 0.930 . S
H1633 C1646 0.930 . S
H1634 C1650 0.959 . S
H1635 C1650 0.959 . S
H1636 C1650 0.961 . S
H1637 C1651 0.960 . S
H1638 C1651 0.961 . S
H1639 C1651 0.959 . S
H1640 C1654 0.929 . S
H1641 C1655 0.931 . S
H1642 C1657 0.930 . S
C1643 H1631 0.930 . S
C1643 C1644 1.399 . S
C1643 C1648 1.399 . S
C1644 C1643 1.399 . S
C1644 C1645 1.376 . S
C1645 H1632 0.930 . S
C1645 C1644 1.376 . S
C1645 C1646 1.388 . S
C1646 H1633 0.930 . S
C1646 C1645 1.388 . S
C1646 C1647 1.390 . S
C1647 C1646 1.390 . S
C1647 C1648 1.394 . S
C1647 C1653 1.465 . S
C1648 C1643 1.399 . S
C1648 C1647 1.394 . S
C1648 C1649 1.516 . S
C1649 C1648 1.516 . S
C1649 C1650 1.502 . S
C1649 C1651 1.561 . S
C1649 C1652 1.526 . S
C1650 H1634 0.959 . S
C1650 H1635 0.959 . S
C1650 H1636 0.961 . S
C1650 C1649 1.502 . S
C1651 H1637 0.960 . S
C1651 H1638 0.961 . S
C1651 H1639 0.959 . S
C1651 C1649 1.561 . S
C1652 C1649 1.526 . S
C1652 C1653 1.396 . S
C1652 C1657 1.390 . S
C1653 C1647 1.465 . S
C1653 C1652 1.396 . S
C1653 C1654 1.399 . S
C1654 H1640 0.929 . S
C1654 C1653 1.399 . S
C1654 C1655 1.385 . S
C1655 H1641 0.931 . S
C1655 C1654 1.385 . S
C1655 C1656 1.389 . S
C1656 C1655 1.389 . S
C1656 C1657 1.387 . S
C1657 H1642 0.930 . S
C1657 C1652 1.390 . S
C1657 C1656 1.387 . S
H1658 C1670 0.930 . S
H1659 C1672 0.930 . S
H1660 C1673 0.930 . S
H1661 C1677 0.959 . S
H1662 C1677 0.959 . S
H1663 C1677 0.961 . S
H1664 C1678 0.960 . S
H1665 C1678 0.961 . S
H1666 C1678 0.959 . S
H1667 C1681 0.929 . S
H1668 C1682 0.931 . S
H1669 C1684 0.930 . S
C1670 H1658 0.930 . S
C1670 C1671 1.399 . S
C1670 C1675 1.399 . S
C1671 C1670 1.399 . S
C1671 C1672 1.376 . S
C1672 H1659 0.930 . S
C1672 C1671 1.376 . S
C1672 C1673 1.388 . S
C1673 H1660 0.930 . S
C1673 C1672 1.388 . S
C1673 C1674 1.390 . S
C1674 C1673 1.390 . S
C1674 C1675 1.394 . S
C1674 C1680 1.465 . S
C1675 C1670 1.399 . S
C1675 C1674 1.394 . S
C1675 C1676 1.516 . S
C1676 C1675 1.516 . S
C1676 C1677 1.502 . S
C1676 C1678 1.561 . S
C1676 C1679 1.526 . S
C1677 H1661 0.959 . S
C1677 H1662 0.959 . S
C1677 H1663 0.961 . S
C1677 C1676 1.502 . S
C1678 H1664 0.960 . S
C1678 H1665 0.961 . S
C1678 H1666 0.959 . S
C1678 C1676 1.561 . S
C1679 C1676 1.526 . S
C1679 C1680 1.396 . S
C1679 C1684 1.390 . S
C1680 C1674 1.465 . S
C1680 C1679 1.396 . S
C1680 C1681 1.399 . S
C1681 H1667 0.929 . S
C1681 C1680 1.399 . S
C1681 C1682 1.385 . S
C1682 H1668 0.931 . S
C1682 C1681 1.385 . S
C1682 C1683 1.389 . S
C1683 C1682 1.389 . S
C1683 C1684 1.387 . S
C1684 H1669 0.930 . S
C1684 C1679 1.390 . S
C1684 C1683 1.387 . S
H1685 C1697 0.930 . S
H1686 C1699 0.930 . S
H1687 C1700 0.930 . S
H1688 C1704 0.959 . S
H1689 C1704 0.959 . S
H1690 C1704 0.961 . S
H1691 C1705 0.960 . S
H1692 C1705 0.961 . S
H1693 C1705 0.959 . S
H1694 C1708 0.929 . S
H1695 C1709 0.931 . S
H1696 C1711 0.930 . S
C1697 H1685 0.930 . S
C1697 C1698 1.399 . S
C1697 C1702 1.399 . S
C1698 C1697 1.399 . S
C1698 C1699 1.376 . S
C1699 H1686 0.930 . S
C1699 C1698 1.376 . S
C1699 C1700 1.388 . S
C1700 H1687 0.930 . S
C1700 C1699 1.388 . S
C1700 C1701 1.390 . S
C1701 C1700 1.390 . S
C1701 C1702 1.394 . S
C1701 C1707 1.465 . S
C1702 C1697 1.399 . S
C1702 C1701 1.394 . S
C1702 C1703 1.516 . S
C1703 C1702 1.516 . S
C1703 C1704 1.502 . S
C1703 C1705 1.561 . S
C1703 C1706 1.526 . S
C1704 H1688 0.959 . S
C1704 H1689 0.959 . S
C1704 H1690 0.961 . S
C1704 C1703 1.502 . S
C1705 H1691 0.960 . S
C1705 H1692 0.961 . S
C1705 H1693 0.959 . S
C1705 C1703 1.561 . S
C1706 C1703 1.526 . S
C1706 C1707 1.396 . S
C1706 C1711 1.390 . S
C1707 C1701 1.465 . S
C1707 C1706 1.396 . S
C1707 C1708 1.399 . S
C1708 H1694 0.929 . S
C1708 C1707 1.399 . S
C1708 C1709 1.385 . S
C1709 H1695 0.931 . S
C1709 C1708 1.385 . S
C1709 C1710 1.389 . S
C1710 C1709 1.389 . S
C1710 C1711 1.387 . S
C1711 H1696 0.930 . S
C1711 C1706 1.390 . S
C1711 C1710 1.387 . S
C861 C29 1.776 . S
C873 C135 1.763 . S
C888 C188 1.778 . S
C900 C82 1.760 . S
C915 C241 1.757 . S
C927 C347 1.793 . S
C942 C400 1.759 . S
C954 C294 1.780 . S
C969 C453 1.754 . S
C981 C559 1.758 . S
C996 C612 1.742 . S
C1008 C506 1.774 . S
C1023 C665 1.745 . S
C1035 C771 1.769 . S
C1050 C824 1.790 . S
C1062 C718 1.762 . S
C1077 C250 1.900 . S
C1089 C38 1.860 . S
C1104 C91 1.898 . S
C1116 C303 1.858 . S
C1131 C144 1.857 . S
C1143 C356 1.899 . S
C1158 C409 1.864 . S
C1170 C197 1.897 . S
C1185 C462 1.891 . S
C1197 C674 1.849 . S
C1212 C515 1.852 . S
C1224 C727 1.872 . S
C1239 C568 1.864 . S
C1251 C780 1.894 . S
C1266 C621 1.873 . S
C1278 C833 1.851 . S
C1293 C569 1.832 . S
C1305 C39 1.836 . S
C1320 C622 1.833 . S
C1332 C92 1.821 . S
C1347 C145 1.840 . S
C1359 C463 1.846 . S
C1374 C198 1.811 . S
C1386 C516 1.824 . S
C1401 C251 1.803 . S
C1413 C781 1.807 . S
C1428 C304 1.837 . S
C1440 C834 1.834 . S
C1455 C357 1.840 . S
C1467 C675 1.846 . S
C1482 C728 1.808 . S
C1494 C410 1.807 . S
C1509 C22 1.642 . S
C1521 C817 1.650 . S
C1536 C658 1.637 . S
C1548 C75 1.634 . S
C1563 C128 1.649 . S
C1575 C711 1.647 . S
C1590 C764 1.637 . S
C1602 C181 1.634 . S
C1617 C499 1.661 . S
C1629 C234 1.659 . S
C1644 C287 1.638 . S
C1656 C552 1.646 . S
C1671 C605 1.638 . S
C1683 C340 1.638 . S
C1698 C446 1.659 . S
C1710 C393 1.655 . S
