# Generated by pormake.
# Topology son, (6)-cn, num edge types: 1
# Building blocks:
#     Node 0, Type 0, BuildingBlock: MIFKUJ_clean_sbu_0, # of connection points: 6
#     Node 1, Type 0, BuildingBlock: MIFKUJ_clean_sbu_0, # of connection points: 6
#     Node 2, Type 0, BuildingBlock: MIFKUJ_clean_sbu_0, # of connection points: 6
#     Node 3, Type 0, BuildingBlock: MIFKUJ_clean_sbu_0, # of connection points: 6
#     Node 4, Type 0, BuildingBlock: MIFKUJ_clean_sbu_0, # of connection points: 6
#     Node 5, Type 0, BuildingBlock: MIFKUJ_clean_sbu_0, # of connection points: 6
#     Node 6, Type 0, BuildingBlock: MIFKUJ_clean_sbu_0, # of connection points: 6
#     Node 7, Type 0, BuildingBlock: MIFKUJ_clean_sbu_0, # of connection points: 6
#     Node 8, Type 0, BuildingBlock: MIFKUJ_clean_sbu_0, # of connection points: 6
#     Node 9, Type 0, BuildingBlock: MIFKUJ_clean_sbu_0, # of connection points: 6
#     Node 10, Type 0, BuildingBlock: MIFKUJ_clean_sbu_0, # of connection points: 6
#     Node 11, Type 0, BuildingBlock: MIFKUJ_clean_sbu_0, # of connection points: 6
#     Node 12, Type 0, BuildingBlock: MIFKUJ_clean_sbu_0, # of connection points: 6
#     Node 13, Type 0, BuildingBlock: MIFKUJ_clean_sbu_0, # of connection points: 6
#     Node 14, Type 0, BuildingBlock: MIFKUJ_clean_sbu_0, # of connection points: 6
#     Node 15, Type 0, BuildingBlock: MIFKUJ_clean_sbu_0, # of connection points: 6
#     Node 16, Type 0, BuildingBlock: MIFKUJ_clean_sbu_0, # of connection points: 6
#     Node 17, Type 0, BuildingBlock: MIFKUJ_clean_sbu_0, # of connection points: 6
#     Node 18, Type 0, BuildingBlock: MIFKUJ_clean_sbu_0, # of connection points: 6
#     Node 19, Type 0, BuildingBlock: MIFKUJ_clean_sbu_0, # of connection points: 6
#     Node 20, Type 0, BuildingBlock: MIFKUJ_clean_sbu_0, # of connection points: 6
#     Node 21, Type 0, BuildingBlock: MIFKUJ_clean_sbu_0, # of connection points: 6
#     Node 22, Type 0, BuildingBlock: MIFKUJ_clean_sbu_0, # of connection points: 6
#     Node 23, Type 0, BuildingBlock: MIFKUJ_clean_sbu_0, # of connection points: 6
#     Node 24, Type 0, BuildingBlock: MIFKUJ_clean_sbu_0, # of connection points: 6
#     Node 25, Type 0, BuildingBlock: MIFKUJ_clean_sbu_0, # of connection points: 6
#     Node 26, Type 0, BuildingBlock: MIFKUJ_clean_sbu_0, # of connection points: 6
#     Node 27, Type 0, BuildingBlock: MIFKUJ_clean_sbu_0, # of connection points: 6
#     Node 28, Type 0, BuildingBlock: MIFKUJ_clean_sbu_0, # of connection points: 6
#     Node 29, Type 0, BuildingBlock: MIFKUJ_clean_sbu_0, # of connection points: 6
#     Node 30, Type 0, BuildingBlock: MIFKUJ_clean_sbu_0, # of connection points: 6
#     Node 31, Type 0, BuildingBlock: MIFKUJ_clean_sbu_0, # of connection points: 6
#     Edge 32, Type (0, 0), BuildingBlock: EZIPEK_clean_linker_0, # of connection points: 2
#     Edge 33, Type (0, 0), BuildingBlock: EZIPEK_clean_linker_0, # of connection points: 2
#     Edge 34, Type (0, 0), BuildingBlock: EZIPEK_clean_linker_0, # of connection points: 2
#     Edge 35, Type (0, 0), BuildingBlock: EZIPEK_clean_linker_0, # of connection points: 2
#     Edge 36, Type (0, 0), BuildingBlock: EZIPEK_clean_linker_0, # of connection points: 2
#     Edge 37, Type (0, 0), BuildingBlock: EZIPEK_clean_linker_0, # of connection points: 2
#     Edge 38, Type (0, 0), BuildingBlock: EZIPEK_clean_linker_0, # of connection points: 2
#     Edge 39, Type (0, 0), BuildingBlock: EZIPEK_clean_linker_0, # of connection points: 2
#     Edge 40, Type (0, 0), BuildingBlock: EZIPEK_clean_linker_0, # of connection points: 2
#     Edge 41, Type (0, 0), BuildingBlock: EZIPEK_clean_linker_0, # of connection points: 2
#     Edge 42, Type (0, 0), BuildingBlock: EZIPEK_clean_linker_0, # of connection points: 2
#     Edge 43, Type (0, 0), BuildingBlock: EZIPEK_clean_linker_0, # of connection points: 2
#     Edge 44, Type (0, 0), BuildingBlock: EZIPEK_clean_linker_0, # of connection points: 2
#     Edge 45, Type (0, 0), BuildingBlock: EZIPEK_clean_linker_0, # of connection points: 2
#     Edge 46, Type (0, 0), BuildingBlock: EZIPEK_clean_linker_0, # of connection points: 2
#     Edge 47, Type (0, 0), BuildingBlock: EZIPEK_clean_linker_0, # of connection points: 2
#     Edge 48, Type (0, 0), BuildingBlock: EZIPEK_clean_linker_0, # of connection points: 2
#     Edge 49, Type (0, 0), BuildingBlock: EZIPEK_clean_linker_0, # of connection points: 2
#     Edge 50, Type (0, 0), BuildingBlock: EZIPEK_clean_linker_0, # of connection points: 2
#     Edge 51, Type (0, 0), BuildingBlock: EZIPEK_clean_linker_0, # of connection points: 2
#     Edge 52, Type (0, 0), BuildingBlock: EZIPEK_clean_linker_0, # of connection points: 2
#     Edge 53, Type (0, 0), BuildingBlock: EZIPEK_clean_linker_0, # of connection points: 2
#     Edge 54, Type (0, 0), BuildingBlock: EZIPEK_clean_linker_0, # of connection points: 2
#     Edge 55, Type (0, 0), BuildingBlock: EZIPEK_clean_linker_0, # of connection points: 2
#     Edge 56, Type (0, 0), BuildingBlock: EZIPEK_clean_linker_0, # of connection points: 2
#     Edge 57, Type (0, 0), BuildingBlock: EZIPEK_clean_linker_0, # of connection points: 2
#     Edge 58, Type (0, 0), BuildingBlock: EZIPEK_clean_linker_0, # of connection points: 2
#     Edge 59, Type (0, 0), BuildingBlock: EZIPEK_clean_linker_0, # of connection points: 2
#     Edge 60, Type (0, 0), BuildingBlock: EZIPEK_clean_linker_0, # of connection points: 2
#     Edge 61, Type (0, 0), BuildingBlock: EZIPEK_clean_linker_0, # of connection points: 2
#     Edge 62, Type (0, 0), BuildingBlock: EZIPEK_clean_linker_0, # of connection points: 2
#     Edge 63, Type (0, 0), BuildingBlock: EZIPEK_clean_linker_0, # of connection points: 2
#     Edge 64, Type (0, 0), BuildingBlock: EZIPEK_clean_linker_0, # of connection points: 2
#     Edge 65, Type (0, 0), BuildingBlock: EZIPEK_clean_linker_0, # of connection points: 2
#     Edge 66, Type (0, 0), BuildingBlock: EZIPEK_clean_linker_0, # of connection points: 2
#     Edge 67, Type (0, 0), BuildingBlock: EZIPEK_clean_linker_0, # of connection points: 2
#     Edge 68, Type (0, 0), BuildingBlock: EZIPEK_clean_linker_0, # of connection points: 2
#     Edge 69, Type (0, 0), BuildingBlock: EZIPEK_clean_linker_0, # of connection points: 2
#     Edge 70, Type (0, 0), BuildingBlock: EZIPEK_clean_linker_0, # of connection points: 2
#     Edge 71, Type (0, 0), BuildingBlock: EZIPEK_clean_linker_0, # of connection points: 2
#     Edge 72, Type (0, 0), BuildingBlock: EZIPEK_clean_linker_0, # of connection points: 2
#     Edge 73, Type (0, 0), BuildingBlock: EZIPEK_clean_linker_0, # of connection points: 2
#     Edge 74, Type (0, 0), BuildingBlock: EZIPEK_clean_linker_0, # of connection points: 2
#     Edge 75, Type (0, 0), BuildingBlock: EZIPEK_clean_linker_0, # of connection points: 2
#     Edge 76, Type (0, 0), BuildingBlock: EZIPEK_clean_linker_0, # of connection points: 2
#     Edge 77, Type (0, 0), BuildingBlock: EZIPEK_clean_linker_0, # of connection points: 2
#     Edge 78, Type (0, 0), BuildingBlock: EZIPEK_clean_linker_0, # of connection points: 2
#     Edge 79, Type (0, 0), BuildingBlock: EZIPEK_clean_linker_0, # of connection points: 2
#     Edge 80, Type (0, 0), BuildingBlock: EZIPEK_clean_linker_0, # of connection points: 2
#     Edge 81, Type (0, 0), BuildingBlock: EZIPEK_clean_linker_0, # of connection points: 2
#     Edge 82, Type (0, 0), BuildingBlock: EZIPEK_clean_linker_0, # of connection points: 2
#     Edge 83, Type (0, 0), BuildingBlock: EZIPEK_clean_linker_0, # of connection points: 2
#     Edge 84, Type (0, 0), BuildingBlock: EZIPEK_clean_linker_0, # of connection points: 2
#     Edge 85, Type (0, 0), BuildingBlock: EZIPEK_clean_linker_0, # of connection points: 2
#     Edge 86, Type (0, 0), BuildingBlock: EZIPEK_clean_linker_0, # of connection points: 2
#     Edge 87, Type (0, 0), BuildingBlock: EZIPEK_clean_linker_0, # of connection points: 2
#     Edge 88, Type (0, 0), BuildingBlock: EZIPEK_clean_linker_0, # of connection points: 2
#     Edge 89, Type (0, 0), BuildingBlock: EZIPEK_clean_linker_0, # of connection points: 2
#     Edge 90, Type (0, 0), BuildingBlock: EZIPEK_clean_linker_0, # of connection points: 2
#     Edge 91, Type (0, 0), BuildingBlock: EZIPEK_clean_linker_0, # of connection points: 2
#     Edge 92, Type (0, 0), BuildingBlock: EZIPEK_clean_linker_0, # of connection points: 2
#     Edge 93, Type (0, 0), BuildingBlock: EZIPEK_clean_linker_0, # of connection points: 2
#     Edge 94, Type (0, 0), BuildingBlock: EZIPEK_clean_linker_0, # of connection points: 2
#     Edge 95, Type (0, 0), BuildingBlock: EZIPEK_clean_linker_0, # of connection points: 2
#     Edge 96, Type (0, 0), BuildingBlock: EZIPEK_clean_linker_0, # of connection points: 2
#     Edge 97, Type (0, 0), BuildingBlock: EZIPEK_clean_linker_0, # of connection points: 2
#     Edge 98, Type (0, 0), BuildingBlock: EZIPEK_clean_linker_0, # of connection points: 2
#     Edge 99, Type (0, 0), BuildingBlock: EZIPEK_clean_linker_0, # of connection points: 2
#     Edge 100, Type (0, 0), BuildingBlock: EZIPEK_clean_linker_0, # of connection points: 2
#     Edge 101, Type (0, 0), BuildingBlock: EZIPEK_clean_linker_0, # of connection points: 2
#     Edge 102, Type (0, 0), BuildingBlock: EZIPEK_clean_linker_0, # of connection points: 2
#     Edge 103, Type (0, 0), BuildingBlock: EZIPEK_clean_linker_0, # of connection points: 2
#     Edge 104, Type (0, 0), BuildingBlock: EZIPEK_clean_linker_0, # of connection points: 2
#     Edge 105, Type (0, 0), BuildingBlock: EZIPEK_clean_linker_0, # of connection points: 2
#     Edge 106, Type (0, 0), BuildingBlock: EZIPEK_clean_linker_0, # of connection points: 2
#     Edge 107, Type (0, 0), BuildingBlock: EZIPEK_clean_linker_0, # of connection points: 2
#     Edge 108, Type (0, 0), BuildingBlock: EZIPEK_clean_linker_0, # of connection points: 2
#     Edge 109, Type (0, 0), BuildingBlock: EZIPEK_clean_linker_0, # of connection points: 2
#     Edge 110, Type (0, 0), BuildingBlock: EZIPEK_clean_linker_0, # of connection points: 2
#     Edge 111, Type (0, 0), BuildingBlock: EZIPEK_clean_linker_0, # of connection points: 2
#     Edge 112, Type (0, 0), BuildingBlock: EZIPEK_clean_linker_0, # of connection points: 2
#     Edge 113, Type (0, 0), BuildingBlock: EZIPEK_clean_linker_0, # of connection points: 2
#     Edge 114, Type (0, 0), BuildingBlock: EZIPEK_clean_linker_0, # of connection points: 2
#     Edge 115, Type (0, 0), BuildingBlock: EZIPEK_clean_linker_0, # of connection points: 2
#     Edge 116, Type (0, 0), BuildingBlock: EZIPEK_clean_linker_0, # of connection points: 2
#     Edge 117, Type (0, 0), BuildingBlock: EZIPEK_clean_linker_0, # of connection points: 2
#     Edge 118, Type (0, 0), BuildingBlock: EZIPEK_clean_linker_0, # of connection points: 2
#     Edge 119, Type (0, 0), BuildingBlock: EZIPEK_clean_linker_0, # of connection points: 2
#     Edge 120, Type (0, 0), BuildingBlock: EZIPEK_clean_linker_0, # of connection points: 2
#     Edge 121, Type (0, 0), BuildingBlock: EZIPEK_clean_linker_0, # of connection points: 2
#     Edge 122, Type (0, 0), BuildingBlock: EZIPEK_clean_linker_0, # of connection points: 2
#     Edge 123, Type (0, 0), BuildingBlock: EZIPEK_clean_linker_0, # of connection points: 2
#     Edge 124, Type (0, 0), BuildingBlock: EZIPEK_clean_linker_0, # of connection points: 2
#     Edge 125, Type (0, 0), BuildingBlock: EZIPEK_clean_linker_0, # of connection points: 2
#     Edge 126, Type (0, 0), BuildingBlock: EZIPEK_clean_linker_0, # of connection points: 2
#     Edge 127, Type (0, 0), BuildingBlock: EZIPEK_clean_linker_0, # of connection points: 2
# Relax obj value: 0.054
# Max RMSD: 0.109
# Mean RMSD: 0.108
data_MOF--net-son--node1-MIFKUJ_clean_sbu_0--edge1-EZIPEK_clean_linker_0
_symmetry_space_group_name_H-M    P1
_symmetry_Int_Tables_number       1
_symmetry_cell_setting            triclinic
loop_
_symmetry_equiv_pos_as_xyz
'x, y, z'
_cell_length_a     99.253347
_cell_length_b     36.821317
_cell_length_c     14.393302
_cell_angle_alpha  90.019221
_cell_angle_beta   89.869003
_cell_angle_gamma 89.99848
loop_
_atom_site_label
_atom_site_type_symbol
_atom_site_fract_x
_atom_site_fract_y
_atom_site_fract_z
_atom_type_partial_charge
Zn0 Zn 0.31322 0.23834 0.34744 0.0
Zn1 Zn 0.31186 0.2556 0.12858 0.0
C2 C 0.34115 0.22176 0.36871 0.0
O3 O 0.3362 0.19977 0.43186 0.0
C4 C 0.28431 0.27162 0.07202 0.0
O5 O 0.29051 0.28603 0.00028 0.0
O6 O 0.31203 0.23249 0.48661 0.0
O7 O 0.30417 0.28438 0.31255 0.0
O8 O 0.31879 0.29794 0.20245 0.0
C9 C 0.30927 0.25857 0.54124 0.0
O10 O 0.30588 0.29039 0.50734 0.0
O11 O 0.33325 0.24124 0.32026 0.0
C12 C 0.31666 0.23679 0.93633 0.0
O13 O 0.31646 0.20351 0.96906 0.0
O14 O 0.31607 0.26348 0.99231 0.0
O15 O 0.31803 0.20485 0.16248 0.0
O16 O 0.30546 0.19478 0.28691 0.0
O17 O 0.29139 0.25739 0.13594 0.0
C18 C 0.31129 0.30749 0.26974 0.0
C19 C 0.31135 0.18343 0.21439 0.0
Zn20 Zn 0.92526 0.99733 0.36941 0.0
Zn21 Zn 0.94338 0.98127 0.12289 0.0
C22 C 0.89753 0.01858 0.35963 0.0
O23 O 0.90302 0.05092 0.36577 0.0
C24 C 0.97281 0.96451 0.11308 0.0
O25 O 0.97042 0.93041 0.13393 0.0
O26 O 0.92931 0.99704 0.50416 0.0
O27 O 0.93743 0.95488 0.31676 0.0
O28 O 0.93774 0.93336 0.17339 0.0
C29 C 0.92341 0.01703 0.56326 0.0
O30 O 0.91383 0.03935 0.53736 0.0
O31 O 0.90507 0.99064 0.35484 0.0
C32 C 0.94232 0.0084 0.93959 0.0
O33 O 0.95425 0.021 0.9619 0.0
O34 O 0.93539 0.99093 -0.00103 0.0
O35 O 0.93673 0.01356 0.21636 0.0
O36 O 0.9296 0.0486 0.32348 0.0
O37 O 0.96331 0.98749 0.11187 0.0
C38 C 0.93587 0.92838 0.25996 0.0
C39 C 0.93447 0.04535 0.24318 0.0
Zn40 Zn 0.3193 0.00869 0.88048 0.0
Zn41 Zn 0.30382 0.97928 0.11989 0.0
C42 C 0.34625 0.01553 0.87263 0.0
O43 O 0.34142 0.044 0.82899 0.0
C44 C 0.27659 0.96758 0.17014 0.0
O45 O 0.28235 0.94032 0.21354 0.0
O46 O 0.31777 0.01613 0.74335 0.0
O47 O 0.30492 0.97157 0.92379 0.0
O48 O 0.30719 0.93497 0.04352 0.0
C49 C 0.30915 -0.00119 0.69598 0.0
O50 O 0.30059 0.97695 0.73739 0.0
O51 O 0.33817 0.99301 0.90915 0.0
C52 C 0.30622 0.00574 0.29698 0.0
O53 O 0.29984 0.03213 0.25428 0.0
O54 O 0.31026 0.97847 0.25056 0.0
O55 O 0.31155 0.01756 0.04482 0.0
O56 O 0.31772 0.05718 0.94461 0.0
O57 O 0.28415 0.98862 0.12401 0.0
C58 C 0.30743 0.94008 0.95583 0.0
C59 C 0.31425 0.0501 0.02695 0.0
Zn60 Zn 0.94005 0.23401 0.90717 0.0
Zn61 Zn 0.94215 0.25362 0.12233 0.0
C62 C 0.91151 0.22464 0.8857 0.0
O63 O 0.91567 0.19798 0.83262 0.0
C64 C 0.97001 0.27054 0.14899 0.0
O65 O 0.96433 0.29894 0.18801 0.0
O66 O 0.94259 0.22566 0.76909 0.0
O67 O 0.95035 0.27945 0.93408 0.0
O68 O 0.93675 0.29717 0.04606 0.0
C69 C 0.93849 0.25083 0.71565 0.0
O70 O 0.93337 0.28039 0.75252 0.0
O71 O 0.92008 0.24398 0.92862 0.0
C72 C 0.94481 0.24471 0.31617 0.0
O73 O 0.95285 0.21898 0.28594 0.0
O74 O 0.9385 0.26434 0.25797 0.0
O75 O 0.93356 0.2047 0.09928 0.0
O76 O 0.94559 0.18889 0.97654 0.0
O77 O 0.96227 0.24715 0.11229 0.0
C78 C 0.94386 0.30446 0.97496 0.0
C79 C 0.93941 0.1805 0.05085 0.0
Zn80 Zn 0.6962 0.73625 0.8717 0.0
Zn81 Zn 0.68189 0.76448 0.62224 0.0
C82 C 0.72228 0.71378 0.8879 0.0
O83 O 0.71481 0.68672 0.91765 0.0
C84 C 0.65434 0.79219 0.62158 0.0
O85 O 0.65938 0.82496 0.63068 0.0
O86 O 0.69103 0.74045 0.00503 0.0
O87 O 0.68563 0.77524 0.80739 0.0
O88 O 0.68831 0.8096 0.68732 0.0
C89 C 0.69932 0.75304 0.06388 0.0
O90 O 0.71176 0.76013 0.03882 0.0
O91 O 0.71613 0.74197 0.85992 0.0
C92 C 0.68505 0.78675 0.43915 0.0
O93 O 0.67771 0.81384 0.47016 0.0
O94 O 0.68879 0.76181 0.49408 0.0
O95 O 0.68578 0.72021 0.69953 0.0
O96 O 0.69171 0.68714 0.81515 0.0
O97 O 0.66201 0.76494 0.61474 0.0
C98 C 0.68972 0.8051 0.77399 0.0
C99 C 0.68721 0.68864 0.73283 0.0
Zn100 Zn 0.04838 0.01967 0.89051 0.0
Zn101 Zn 0.07238 0.00484 0.64646 0.0
C102 C 0.02205 0.02126 0.95668 0.0
O103 O 0.02778 0.04913 -0.00245 0.0
C104 C 0.0979 0.99367 0.59275 0.0
O105 O 0.09075 0.9683 0.55184 0.0
O106 O 0.05583 0.0262 0.0178 0.0
O107 O 0.05936 0.98365 0.81798 0.0
O108 O 0.07152 0.95661 0.71165 0.0
C109 C 0.05638 -0.00171 0.0694 0.0
O110 O 0.05311 0.96636 0.03547 0.0
O111 O 0.02952 0.00165 0.90565 0.0
C112 C 0.06569 0.02472 0.45943 0.0
O113 O 0.06984 0.05691 0.48644 0.0
O114 O 0.0654 -0.00129 0.51709 0.0
O115 O 0.06112 0.03779 0.72401 0.0
O116 O 0.04807 0.06745 0.81877 0.0
O117 O 0.09194 0.01737 0.64199 0.0
C118 C 0.06527 0.95552 0.78865 0.0
C119 C 0.05481 0.06644 0.7437 0.0
Zn120 Zn 0.70239 0.00412 0.87668 0.0
Zn121 Zn 0.67548 0.98769 0.11149 0.0
C122 C 0.72755 0.0042 0.7848 0.0
O123 O 0.72059 0.02676 0.73305 0.0
C124 C 0.64817 0.97309 0.13411 0.0
O125 O 0.65367 0.94556 0.17785 0.0
O126 O 0.69444 0.00709 0.74701 0.0
O127 O 0.69247 0.96784 0.9556 0.0
O128 O 0.6798 0.9388 0.05459 0.0
C129 C 0.69231 0.97867 0.699 0.0
O130 O 0.69369 0.94663 0.73791 0.0
O131 O 0.72217 0.9914 0.8583 0.0
C132 C 0.68779 0.99647 0.29953 0.0
O133 O 0.69805 0.01228 0.25835 0.0
O134 O 0.67813 0.98436 0.25107 0.0
O135 O 0.68631 0.02641 0.04084 0.0
O136 O 0.69987 0.05272 0.94288 0.0
O137 O 0.65566 0.99628 0.09411 0.0
C138 C 0.68748 0.93816 0.98386 0.0
C139 C 0.6916 0.05558 0.01067 0.0
Zn140 Zn 0.05845 0.74201 0.8698 0.0
Zn141 Zn 0.06314 0.76112 0.08997 0.0
C142 C 0.0301 0.72481 0.84895 0.0
O143 O 0.03526 0.69494 0.81361 0.0
C144 C 0.09177 0.77206 0.108 0.0
O145 O 0.08766 0.79682 0.16696 0.0
O146 O 0.06198 0.73214 0.73376 0.0
O147 O 0.06745 0.79023 0.89534 0.0
O148 O 0.05694 0.80566 0.02513 0.0
C149 C 0.05416 0.74495 0.67205 0.0
O150 O 0.0437 0.76452 0.69628 0.0
O151 O 0.03821 0.74787 0.8832 0.0
C152 C 0.06536 0.74278 0.27909 0.0
O153 O 0.07157 0.71498 0.24112 0.0
O154 O 0.06075 0.7678 0.22739 0.0
O155 O 0.05263 0.71672 0.06125 0.0
O156 O 0.06479 0.69894 0.94201 0.0
O157 O 0.08315 0.75329 0.06381 0.0
C158 C 0.0626 0.81428 0.94928 0.0
C159 C 0.05902 0.6921 0.01863 0.0
Zn160 Zn 0.31003 0.73267 0.85524 0.0
Zn161 Zn 0.30499 0.74964 0.62504 0.0
C162 C 0.33848 0.73631 0.89917 0.0
O163 O 0.3338 0.73711 0.98429 0.0
C164 C 0.27812 0.76705 0.58216 0.0
O165 O 0.28503 0.79329 0.54276 0.0
O166 O 0.30802 0.72362 0.99208 0.0
O167 O 0.30144 0.78025 0.82896 0.0
O168 O 0.30882 0.79575 0.68887 0.0
C169 C 0.30416 0.74799 0.04865 0.0
O170 O 0.29974 0.77929 0.01741 0.0
O171 O 0.33035 0.73507 0.83083 0.0
C172 C 0.31418 0.73035 0.44035 0.0
O173 O 0.31843 0.70017 0.47909 0.0
O174 O 0.30918 0.75545 0.49003 0.0
O175 O 0.31495 0.70627 0.6716 0.0
O176 O 0.30219 0.69038 0.78958 0.0
O177 O 0.28479 0.74282 0.62534 0.0
C178 C 0.30483 0.80409 0.76982 0.0
C179 C 0.30799 0.68268 0.71383 0.0
Zn180 Zn 0.93158 0.49902 0.85067 0.0
Zn181 Zn 0.95427 0.4783 0.60623 0.0
C182 C 0.90588 0.52151 0.85878 0.0
O183 O 0.91267 0.54508 0.90847 0.0
C184 C 0.98048 0.47733 0.52163 0.0
O185 O 0.97659 0.44498 0.49448 0.0
O186 O 0.93684 0.49966 0.98426 0.0
O187 O 0.94224 0.46436 0.77561 0.0
O188 O 0.95464 0.4317 0.68412 0.0
C189 C 0.93012 0.48076 0.04161 0.0
O190 O 0.92019 0.46022 0.01228 0.0
O191 O 0.9119 0.4925 0.83533 0.0
C192 C 0.94491 0.4935 0.42723 0.0
O193 O 0.95013 0.52502 0.4501 0.0
O194 O 0.94447 0.46843 0.4875 0.0
O195 O 0.94517 0.51857 0.67841 0.0
O196 O 0.93473 0.54742 0.79062 0.0
O197 O 0.97292 0.49593 0.57456 0.0
C198 C 0.9477 0.43427 0.75807 0.0
C199 C 0.94009 0.54755 0.71052 0.0
Zn200 Zn 0.32311 0.50211 0.38254 0.0
Zn201 Zn 0.29573 0.48551 0.61774 0.0
C202 C 0.35084 0.51315 0.35115 0.0
O203 O 0.34512 0.53413 0.28915 0.0
C204 C 0.26952 0.48395 0.6944 0.0
O205 O 0.27432 0.45215 0.71891 0.0
O206 O 0.31773 0.50628 0.24674 0.0
O207 O 0.311 0.46694 0.45182 0.0
O208 O 0.29682 0.43828 0.54316 0.0
C209 C 0.32238 0.48577 0.18324 0.0
O210 O 0.33083 0.45965 0.20463 0.0
O211 O 0.34311 0.49324 0.39961 0.0
C212 C 0.30376 0.50325 0.80413 0.0
O213 O 0.29921 0.53524 0.77904 0.0
O214 O 0.30399 0.47754 0.74507 0.0
O215 O 0.30685 0.52077 0.54304 0.0
O216 O 0.31988 0.55014 0.44576 0.0
O217 O 0.27649 0.50345 0.63935 0.0
C218 C 0.30477 0.43817 0.47328 0.0
C219 C 0.3125 0.54991 0.51803 0.0
Zn220 Zn 0.93113 0.73646 0.38788 0.0
Zn221 Zn 0.95196 0.75824 0.62557 0.0
C222 C 0.90269 0.71927 0.37272 0.0
O223 O 0.90726 0.69339 0.31832 0.0
C224 C 0.97963 0.7655 0.68137 0.0
O225 O 0.97435 0.79479 0.71899 0.0
O226 O 0.93626 0.74234 0.25402 0.0
O227 O 0.94039 0.76987 0.46732 0.0
O228 O 0.9503 0.80713 0.5578 0.0
C229 C 0.92826 0.75495 0.19335 0.0
O230 O 0.91607 0.76503 0.21715 0.0
O231 O 0.91097 0.74087 0.41106 0.0
C232 C 0.9502 0.75042 0.82409 0.0
O233 O 0.96039 0.72821 0.81223 0.0
O234 O 0.94527 0.76716 0.755 0.0
O235 O 0.93914 0.71497 0.5804 0.0
O236 O 0.9385 0.69026 0.44028 0.0
O237 O 0.97199 0.74563 0.63238 0.0
C238 C 0.94411 0.80178 0.48278 0.0
C239 C 0.94068 0.68726 0.52728 0.0
Zn240 Zn 0.69987 0.23753 0.3597 0.0
Zn241 Zn 0.6843 0.26771 0.12375 0.0
C242 C 0.7269 0.2275 0.39637 0.0
O243 O 0.72139 0.19686 0.42392 0.0
C244 C 0.65571 0.28285 0.09346 0.0
O245 O 0.65994 0.3056 0.02952 0.0
O246 O 0.69608 0.22854 0.49467 0.0
O247 O 0.68738 0.27959 0.31935 0.0
O248 O 0.69257 0.30953 0.19318 0.0
C249 C 0.68848 0.24956 0.54108 0.0
O250 O 0.682 0.27598 0.49955 0.0
O251 O 0.7194 0.25036 0.35589 0.0
C252 C 0.68407 0.24344 0.93955 0.0
O253 O 0.67804 0.21595 0.98016 0.0
O254 O 0.68813 0.27005 0.98802 0.0
O255 O 0.69031 0.22122 0.17523 0.0
O256 O 0.69821 0.19023 0.29134 0.0
O257 O 0.66416 0.26575 0.14289 0.0
C258 C 0.69125 0.30895 0.28091 0.0
C259 C 0.69417 0.19127 0.20822 0.0
Zn260 Zn 0.06159 0.50486 0.36019 0.0
Zn261 Zn 0.06689 0.48398 0.13369 0.0
C262 C 0.03393 0.522 0.40803 0.0
O263 O 0.03895 0.55417 0.42685 0.0
C264 C 0.09511 0.47035 0.12958 0.0
O265 O 0.09054 0.44221 0.0836 0.0
O266 O 0.06747 0.51521 0.49101 0.0
O267 O 0.06988 0.4569 0.32349 0.0
O268 O 0.05891 0.44157 0.19689 0.0
C269 C 0.06668 0.48866 0.54709 0.0
O270 O 0.06352 0.45632 0.51528 0.0
O271 O 0.04148 0.49782 0.37217 0.0
C272 C 0.07063 0.50048 0.94608 0.0
O273 O 0.07544 0.52996 0.98511 0.0
O274 O 0.06603 0.47516 -0.00316 0.0
O275 O 0.05609 0.52822 0.1529 0.0
O276 O 0.0655 0.54865 0.28172 0.0
O277 O 0.08673 0.49248 0.16547 0.0
C278 C 0.06276 0.43438 0.27841 0.0
C279 C 0.06058 0.55409 0.2016 0.0
Zn280 Zn 0.6961 0.50689 0.37663 0.0
Zn281 Zn 0.67196 0.49272 0.61698 0.0
C282 C 0.72512 0.51172 0.37115 0.0
O283 O 0.72373 0.54251 0.41623 0.0
C284 C 0.64424 0.47575 0.63515 0.0
O285 O 0.64951 0.44363 0.65052 0.0
O286 O 0.68728 0.50563 0.25131 0.0
O287 O 0.68689 0.47195 0.46123 0.0
O288 O 0.67561 0.44168 0.5644 0.0
C289 C 0.69465 0.50921 0.17956 0.0
O290 O 0.70753 0.51629 0.1882 0.0
O291 O 0.715 0.49161 0.3564 0.0
C292 C 0.67605 0.4754 0.81102 0.0
O293 O 0.66915 0.44585 0.79273 0.0
O294 O 0.67861 0.49792 0.74683 0.0
O295 O 0.68245 0.52872 0.53895 0.0
O296 O 0.69493 0.55683 0.4371 0.0
O297 O 0.65191 0.50239 0.61604 0.0
C298 C 0.68262 0.44176 0.49035 0.0
C299 C 0.68804 0.55775 0.51177 0.0
Zn300 Zn 0.04812 0.23764 0.35624 0.0
Zn301 Zn 0.06604 0.25282 0.60734 0.0
C302 C 0.02058 0.22344 0.30329 0.0
O303 O 0.02579 0.19191 0.28029 0.0
C304 C 0.09348 0.27036 0.59871 0.0
O305 O 0.08823 0.29694 0.64768 0.0
O306 O 0.05782 0.24166 0.23693 0.0
O307 O 0.05479 0.27183 0.44906 0.0
O308 O 0.06291 0.30393 0.56071 0.0
C309 C 0.05417 0.26559 0.17895 0.0
O310 O 0.04477 0.28911 0.20139 0.0
O311 O 0.02853 0.24721 0.33573 0.0
C312 C 0.07168 0.24554 0.80296 0.0
O313 O 0.08359 0.2335 0.778 0.0
O314 O 0.06293 0.25388 0.74273 0.0
O315 O 0.05245 0.21745 0.54616 0.0
O316 O 0.05161 0.18872 0.41281 0.0
O317 O 0.08569 0.24429 0.57758 0.0
C318 C 0.05812 0.30244 0.47969 0.0
C319 C 0.05414 0.18845 0.49945 0.0
Zn320 Zn 0.8257 0.24046 0.85748 0.0
Zn321 Zn 0.80215 0.25777 0.61482 0.0
C322 C 0.85422 0.22648 0.84827 0.0
O323 O 0.85012 0.19602 0.81024 0.0
C324 C 0.77356 0.26435 0.60804 0.0
O325 O 0.77686 0.29886 0.61218 0.0
O326 O 0.81785 0.24141 0.98472 0.0
O327 O 0.81577 0.27889 0.7824 0.0
O328 O 0.80372 0.30721 0.67785 0.0
C329 C 0.82221 0.22042 0.04763 0.0
O330 O 0.83145 0.19612 0.02765 0.0
O331 O 0.84563 0.25045 0.87152 0.0
C332 C 0.80245 0.24749 0.41754 0.0
O333 O 0.78953 0.2419 0.43068 0.0
O334 O 0.80995 0.25602 0.48564 0.0
O335 O 0.81211 0.22403 0.69559 0.0
O336 O 0.82265 0.19086 0.79561 0.0
O337 O 0.78304 0.24135 0.61121 0.0
C338 C 0.81023 0.30786 0.75408 0.0
C339 C 0.81621 0.19317 0.71977 0.0
Zn340 Zn 0.43009 0.99606 0.84276 0.0
Zn341 Zn 0.45282 0.97964 0.59827 0.0
C342 C 0.40396 0.01515 0.86022 0.0
O343 O 0.41084 0.0404 0.90347 0.0
C344 C 0.47938 0.973 0.52965 0.0
O345 O 0.47539 0.9394 0.51643 0.0
O346 O 0.43638 0.9959 0.97464 0.0
O347 O 0.44064 0.96476 0.76065 0.0
O348 O 0.45252 0.93136 0.66927 0.0
C349 C 0.42926 0.9806 0.03664 0.0
O350 O 0.41815 0.96351 0.01376 0.0
O351 O 0.41039 0.98717 0.83395 0.0
C352 C 0.44386 -0.00137 0.42095 0.0
O353 O 0.44804 0.03052 0.45001 0.0
O354 O 0.44412 0.97171 0.47578 0.0
O355 O 0.44354 0.02163 0.66621 0.0
O356 O 0.43252 0.04504 0.78549 0.0
O357 O 0.47161 0.99542 0.56966 0.0
C358 C 0.44543 0.93404 0.74209 0.0
C359 C 0.43788 0.04853 0.70573 0.0
Zn360 Zn 0.81105 0.00206 0.41251 0.0
Zn361 Zn 0.80932 0.98246 0.62744 0.0
C362 C 0.83964 0.00532 0.36919 0.0
O363 O 0.835 0.00325 0.28418 0.0
C364 C 0.78127 0.9679 0.66627 0.0
O365 O 0.78678 0.94706 0.72973 0.0
O366 O 0.80856 0.00889 0.273 0.0
O367 O 0.80346 0.95282 0.44238 0.0
O368 O 0.8171 0.93972 0.55765 0.0
C369 C 0.80613 0.98214 0.21938 0.0
O370 O 0.80373 0.94993 0.2548 0.0
O371 O 0.83139 0.00465 0.43703 0.0
C372 C 0.81315 -0.00012 0.82264 0.0
O373 O 0.81434 0.03323 0.79166 0.0
O374 O 0.81176 0.97381 0.76551 0.0
O375 O 0.81662 0.03232 0.59843 0.0
O376 O 0.80295 0.0441 0.48129 0.0
O377 O 0.78898 0.98451 0.60983 0.0
C378 C 0.81056 0.93 0.48631 0.0
C379 C 0.80966 0.05467 0.55132 0.0
Zn380 Zn 0.42735 0.23446 0.38638 0.0
Zn381 Zn 0.44613 0.26066 0.62518 0.0
C382 C 0.39918 0.2254 0.33164 0.0
O383 O 0.40443 0.21534 0.25209 0.0
C384 C 0.47417 0.26812 0.64868 0.0
O385 O 0.46987 0.30066 0.67186 0.0
O386 O 0.43392 0.23726 0.25638 0.0
O387 O 0.43536 0.2738 0.45772 0.0
O388 O 0.44514 0.30857 0.55659 0.0
C389 C 0.4289 0.26055 0.2017 0.0
O390 O 0.41951 0.28281 0.23185 0.0
O391 O 0.4069 0.23483 0.39781 0.0
C392 C 0.44815 0.26113 0.8256 0.0
O393 O 0.4595 0.24361 0.81281 0.0
O394 O 0.44106 0.27096 0.75687 0.0
O395 O 0.43282 0.21989 0.58134 0.0
O396 O 0.43447 0.19023 0.44942 0.0
O397 O 0.46559 0.24517 0.62028 0.0
C398 C 0.43982 0.30479 0.47784 0.0
C399 C 0.43568 0.19068 0.53751 0.0
Zn400 Zn 0.19914 0.74304 0.37168 0.0
Zn401 Zn 0.17758 0.767 0.12673 0.0
C402 C 0.22569 0.73251 0.42967 0.0
O403 O 0.21916 0.7041 0.46155 0.0
C404 C 0.14976 0.76991 0.07043 0.0
O405 O 0.15533 0.77861 0.9907 0.0
O406 O 0.19218 0.73215 0.49841 0.0
O407 O 0.18682 0.78142 0.31105 0.0
O408 O 0.18417 0.81344 0.18496 0.0
C409 C 0.19148 0.75798 0.55641 0.0
O410 O 0.19482 0.79101 0.53068 0.0
O411 O 0.21875 0.75648 0.38757 0.0
C412 C 0.1812 0.73591 0.94578 0.0
O413 O 0.17639 0.70658 0.98578 0.0
O414 O 0.18287 0.76466 0.99309 0.0
O415 O 0.18716 0.72934 0.1995 0.0
O416 O 0.1982 0.69599 0.2973 0.0
O417 O 0.15725 0.76346 0.1402 0.0
C418 C 0.18875 0.81105 0.26742 0.0
C419 C 0.19193 0.69878 0.22101 0.0
Zn420 Zn 0.55988 0.01087 0.37276 0.0
Zn421 Zn 0.56173 0.99547 0.15596 0.0
C422 C 0.53179 0.02149 0.4097 0.0
O423 O 0.53624 0.04968 0.45632 0.0
C424 C 0.59026 0.98525 0.12211 0.0
O425 O 0.58569 0.97724 0.0392 0.0
O426 O 0.563 0.02082 0.51001 0.0
O427 O 0.56768 0.96226 0.33785 0.0
O428 O 0.55421 0.95198 0.21818 0.0
C429 C 0.5628 0.99598 0.57129 0.0
O430 O 0.56138 0.96193 0.54619 0.0
O431 O 0.53991 0.00319 0.3603 0.0
C432 C 0.56256 0.01905 0.96793 0.0
O433 O 0.56582 0.04969 0.00874 0.0
O434 O 0.5597 0.99132 0.01702 0.0
O435 O 0.55246 0.04173 0.18844 0.0
O436 O 0.56579 0.05575 0.30439 0.0
O437 O 0.58189 0.99517 0.18429 0.0
C438 C 0.56043 0.9408 0.28965 0.0
C439 C 0.55902 0.06514 0.23388 0.0
Zn440 Zn 0.20005 0.00935 0.37637 0.0
Zn441 Zn 0.18213 0.98756 0.62177 0.0
C442 C 0.2272 0.02507 0.31754 0.0
O443 O 0.22136 0.05282 0.27684 0.0
C444 C 0.15496 0.96936 0.60176 0.0
O445 O 0.15982 0.94184 0.649 0.0
O446 O 0.19119 0.00591 0.25328 0.0
O447 O 0.194 0.97234 0.46248 0.0
O448 O 0.18622 0.93766 0.56922 0.0
C449 C 0.19347 0.97875 0.20159 0.0
O450 O 0.20138 0.95251 0.23051 0.0
O451 O 0.21978 0.00324 0.36231 0.0
C452 C 0.17614 0.99 0.8211 0.0
O453 O 0.16403 0.00131 0.7984 0.0
O454 O 0.18472 0.98288 0.7583 0.0
O455 O 0.19456 0.02929 0.57412 0.0
O456 O 0.19502 0.05579 0.43846 0.0
O457 O 0.1628 0.99589 0.58689 0.0
C458 C 0.19114 0.94074 0.48897 0.0
C459 C 0.19189 0.05715 0.52414 0.0
Zn460 Zn 0.54727 0.73489 0.36258 0.0
Zn461 Zn 0.57096 0.75557 0.60195 0.0
C462 C 0.52178 0.73064 0.29324 0.0
O463 O 0.52683 0.69852 0.27404 0.0
C464 C 0.59716 0.77094 0.62994 0.0
O465 O 0.59066 0.79887 0.66474 0.0
O466 O 0.55543 0.72657 0.23608 0.0
O467 O 0.55738 0.77219 0.43461 0.0
O468 O 0.56891 0.8035 0.53502 0.0
C469 C 0.5556 0.75341 0.18064 0.0
O470 O 0.55172 0.78544 0.21059 0.0
O471 O 0.52856 0.75235 0.34277 0.0
C472 C 0.57001 0.73817 0.79338 0.0
O473 O 0.57809 0.71206 0.76582 0.0
O474 O 0.56519 0.76024 0.73452 0.0
O475 O 0.55975 0.71915 0.53359 0.0
O476 O 0.54704 0.68838 0.43874 0.0
O477 O 0.59055 0.74467 0.59569 0.0
C478 C 0.56255 0.80201 0.45881 0.0
C479 C 0.55368 0.69004 0.514 0.0
Zn480 Zn 0.81742 0.73302 0.35905 0.0
Zn481 Zn 0.79803 0.76178 0.11862 0.0
C482 C 0.84465 0.71944 0.40658 0.0
O483 O 0.83876 0.70421 0.47846 0.0
C484 C 0.77409 0.72946 0.05504 0.0
O485 O 0.78299 0.70814 0.01528 0.0
O486 O 0.8127 0.73756 0.49355 0.0
O487 O 0.80947 0.77028 0.28281 0.0
O488 O 0.80057 0.80897 0.19063 0.0
C489 C 0.81727 0.76406 0.54042 0.0
O490 O 0.8243 0.78958 0.49891 0.0
O491 O 0.83747 0.73349 0.34321 0.0
C492 C 0.80878 0.74875 0.93455 0.0
O493 O 0.81158 0.71645 0.96793 0.0
O494 O 0.80354 0.77271 0.98681 0.0
O495 O 0.80939 0.71661 0.16392 0.0
O496 O 0.80983 0.6887 0.29987 0.0
O497 O 0.77802 0.75316 0.11273 0.0
C498 C 0.80618 0.80257 0.26727 0.0
C499 C 0.80688 0.68852 0.21359 0.0
Zn500 Zn 0.43801 0.50738 0.34011 0.0
Zn501 Zn 0.44383 0.48894 0.11752 0.0
C502 C 0.40927 0.51892 0.35359 0.0
O503 O 0.41337 0.54392 0.41167 0.0
C504 C 0.47112 0.47004 0.07095 0.0
O505 O 0.4643 0.4426 0.03706 0.0
O506 O 0.43928 0.51705 0.47734 0.0
O507 O 0.44798 0.46058 0.32212 0.0
O508 O 0.43807 0.44491 0.19129 0.0
C509 C 0.43469 0.49247 0.53051 0.0
O510 O 0.42966 0.46279 0.49384 0.0
O511 O 0.41794 0.49994 0.30998 0.0
C512 C 0.44348 0.49974 0.92558 0.0
O513 O 0.45126 0.52666 0.95194 0.0
O514 O 0.4384 0.47879 0.98626 0.0
O515 O 0.4356 0.53791 0.14417 0.0
O516 O 0.44561 0.55133 0.27648 0.0
O517 O 0.46433 0.49431 0.11304 0.0
C518 C 0.44285 0.43654 0.27007 0.0
C519 C 0.44075 0.561 0.19908 0.0
Zn520 Zn 0.82108 0.50688 0.87707 0.0
Zn521 Zn 0.79866 0.48484 0.11792 0.0
C522 C 0.84811 0.52798 0.85037 0.0
O523 O 0.84209 0.55701 0.81742 0.0
C524 C 0.77054 0.47052 0.14778 0.0
O525 O 0.77313 0.43768 0.11694 0.0
O526 O 0.81388 0.50698 0.74642 0.0
O527 O 0.81266 0.46635 0.95387 0.0
O528 O 0.8015 0.43579 0.05643 0.0
C529 C 0.82138 0.5028 0.67567 0.0
O530 O 0.83436 0.49782 0.68578 0.0
O531 O 0.84109 0.50217 0.88225 0.0
C532 C 0.80386 0.51105 0.29595 0.0
O533 O 0.79567 0.53647 0.26594 0.0
O534 O 0.80744 0.48554 0.24187 0.0
O535 O 0.80664 0.52321 0.03772 0.0
O536 O 0.81706 0.55583 0.93529 0.0
O537 O 0.77949 0.49497 0.14402 0.0
C538 C 0.80893 0.43558 0.9844 0.0
C539 C 0.81054 0.55411 0.01081 0.0
Zn540 Zn 0.42417 0.73686 0.87514 0.0
Zn541 Zn 0.4417 0.75985 0.1144 0.0
C542 C 0.39638 0.72501 0.87296 0.0
O543 O 0.40107 0.69352 0.84455 0.0
C544 C 0.46949 0.76793 0.1544 0.0
O545 O 0.46501 0.79702 0.19739 0.0
O546 O 0.42866 0.73101 0.74223 0.0
O547 O 0.43766 0.77717 0.9192 0.0
O548 O 0.43756 0.80695 0.05247 0.0
C549 C 0.4205 0.73303 0.67509 0.0
O550 O 0.40767 0.7392 0.68949 0.0
O551 O 0.40464 0.75023 0.89274 0.0
C552 C 0.44165 0.74008 0.3053 0.0
O553 O 0.4536 0.72736 0.2846 0.0
O554 O 0.43456 0.75545 0.24338 0.0
O555 O 0.43309 0.72643 0.03295 0.0
O556 O 0.42676 0.68681 0.93488 0.0
O557 O 0.46135 0.74894 0.10756 0.0
C558 C 0.43598 0.80669 0.96447 0.0
C559 C 0.4313 0.69358 0.01454 0.0
Zn560 Zn 0.20399 0.23476 0.88435 0.0
Zn561 Zn 0.17804 0.24898 0.64422 0.0
C562 C 0.22884 0.24152 0.98285 0.0
O563 O 0.22177 0.22247 0.04265 0.0
C564 C 0.15147 0.25846 0.60496 0.0
O565 O 0.1577 0.2858 0.56499 0.0
O566 O 0.1956 0.22632 0.01008 0.0
O567 O 0.19272 0.27299 0.8167 0.0
O568 O 0.17952 0.29691 0.70972 0.0
C569 C 0.19294 0.25374 0.06052 0.0
O570 O 0.19451 0.28651 0.02627 0.0
O571 O 0.22347 0.25056 0.90588 0.0
C572 C 0.1816 0.23031 0.45146 0.0
O573 O 0.17645 0.19928 0.4792 0.0
O574 O 0.18362 0.25532 0.51064 0.0
O575 O 0.19048 0.21773 0.71769 0.0
O576 O 0.20377 0.18757 0.80911 0.0
O577 O 0.15838 0.235 0.6488 0.0
C578 C 0.18628 0.30001 0.78439 0.0
C579 C 0.19662 0.18862 0.73602 0.0
Zn580 Zn 0.55203 0.50811 0.87126 0.0
Zn581 Zn 0.55754 0.48722 0.65122 0.0
C582 C 0.52501 0.49368 0.93814 0.0
O583 O 0.53203 0.47457 -0.00248 0.0
C584 C 0.58684 0.4959 0.63647 0.0
O585 O 0.58372 0.51204 0.55842 0.0
O586 O 0.55771 0.51739 0.00311 0.0
O587 O 0.55845 0.45725 0.84087 0.0
O588 O 0.54794 0.44562 0.70912 0.0
C589 C 0.55901 0.49138 0.06028 0.0
O590 O 0.55856 0.45773 0.03014 0.0
O591 O 0.53111 0.51032 0.87266 0.0
C592 C 0.5584 0.50629 0.45918 0.0
O593 O 0.5595 0.53905 0.49442 0.0
O594 O 0.55701 0.47914 0.51289 0.0
O595 O 0.54894 0.53569 0.67136 0.0
O596 O 0.55964 0.55031 0.79968 0.0
O597 O 0.5775 0.48466 0.69011 0.0
C598 C 0.5531 0.43496 0.78464 0.0
C599 C 0.55448 0.5592 0.72264 0.0
Zn600 Zn 0.18949 0.51425 0.8657 0.0
Zn601 Zn 0.1819 0.49118 0.08718 0.0
C602 C 0.21854 0.5262 0.85458 0.0
O603 O 0.21455 0.55635 0.81444 0.0
C604 C 0.15335 0.47709 0.12663 0.0
O605 O 0.15846 0.46475 0.2043 0.0
O606 O 0.1866 0.52154 0.7277 0.0
O607 O 0.17912 0.46797 0.89225 0.0
O608 O 0.19094 0.45191 0.01431 0.0
C609 C 0.19505 0.5126 0.6651 0.0
O610 O 0.20692 0.4998 0.68743 0.0
O611 O 0.20956 0.50499 0.88666 0.0
C612 C 0.18106 0.50511 0.2784 0.0
O613 O 0.17338 0.5313 0.24671 0.0
O614 O 0.18587 0.48188 0.2221 0.0
O615 O 0.18871 0.5422 0.07347 0.0
O616 O 0.18372 0.5602 0.931 0.0
O617 O 0.16136 0.48897 0.06429 0.0
C618 C 0.1851 0.44365 0.93912 0.0
C619 C 0.18676 0.56728 0.01469 0.0
Zn620 Zn 0.552 0.23495 0.8591 0.0
Zn621 Zn 0.57112 0.25932 0.09972 0.0
C622 C 0.52583 0.23689 0.80729 0.0
O623 O 0.53007 0.2042 0.7853 0.0
C624 C 0.59866 0.26287 0.14995 0.0
O625 O 0.5935 0.27727 0.22532 0.0
O626 O 0.55785 0.22372 0.73079 0.0
O627 O 0.56606 0.26787 0.91755 0.0
O628 O 0.56749 0.30583 0.0334 0.0
C629 C 0.55558 0.24935 0.67429 0.0
O630 O 0.55042 0.27993 0.70487 0.0
O631 O 0.53371 0.2576 0.85172 0.0
C632 C 0.56876 0.23862 0.28633 0.0
O633 O 0.57702 0.21293 0.25851 0.0
O634 O 0.56446 0.26178 0.22867 0.0
O635 O 0.56085 0.22221 0.03158 0.0
O636 O 0.55019 0.1882 0.93427 0.0
O637 O 0.59091 0.25088 0.08724 0.0
C638 C 0.56474 0.29984 0.94876 0.0
C639 C 0.55546 0.1922 0.01365 0.0
C640 C 0.24779 0.28739 -0.00074 0.0
C641 C 0.24298 0.25109 0.00652 0.0
C642 C 0.26311 0.23484 0.09479 0.0
C643 C 0.26928 0.26813 0.06974 0.0
N644 N 0.26688 0.32852 0.00662 0.0
N645 N 0.24788 0.18831 0.04283 0.0
C646 C 0.26142 0.29513 0.02403 0.0
C647 C 0.25117 0.22426 0.04894 0.0
N648 N 0.23923 0.31471 0.9738 0.0
N649 N 0.26807 0.21396 0.16512 0.0
H650 H 0.23969 0.17891 0.00436 0.0
H651 H 0.25424 0.16775 0.06642 0.0
H652 H 0.2756 0.22282 0.20993 0.0
H653 H 0.26326 0.19042 0.18806 0.0
H654 H 0.24181 0.3421 0.97562 0.0
H655 H 0.2291 0.31051 0.95856 0.0
H656 H 0.26255 0.34746 0.96205 0.0
H657 H 0.27594 0.33702 0.03616 0.0
C658 C 0.00148 0.02702 0.05873 0.0
C659 C 0.00806 0.00942 0.98346 0.0
C660 C 0.99034 0.96245 0.98687 0.0
C661 C 0.9859 0.9762 0.07408 0.0
N662 N 0.98866 0.01887 0.19968 0.0
N663 N 0.00679 0.96372 0.86262 0.0
C664 C 0.992 0.00749 0.11228 0.0
C665 C 0.00197 0.97788 0.94386 0.0
N666 N 0.00323 0.06333 0.07397 0.0
N667 N 0.98288 0.93669 0.9416 0.0
H668 H 0.01251 0.97884 0.8158 0.0
H669 H 0.00468 0.93743 0.84019 0.0
H670 H 0.97419 0.92503 0.9692 0.0
H671 H 0.98465 0.92861 0.87336 0.0
H672 H 0.99793 0.07761 0.12487 0.0
H673 H 0.00805 0.08016 0.0261 0.0
H674 H 0.99372 0.03993 0.23326 0.0
H675 H 0.98181 0.0049 0.24166 0.0
C676 C 0.24605 0.97926 0.32123 0.0
C677 C 0.24121 0.01367 0.29186 0.0
C678 C 0.25793 0.0142 0.16686 0.0
C679 C 0.26264 0.97954 0.19562 0.0
N680 N 0.25668 0.92356 0.27253 0.0
N681 N 0.2471 0.06974 0.21535 0.0
C682 C 0.25542 0.96036 0.26498 0.0
C683 C 0.24844 0.03296 0.22273 0.0
N684 N 0.24254 0.96579 0.4063 0.0
N685 N 0.26165 0.02801 0.08256 0.0
H686 H 0.24168 0.08496 0.26384 0.0
H687 H 0.25299 0.08546 0.1708 0.0
H688 H 0.26693 0.0127 0.03358 0.0
H689 H 0.25773 0.05209 0.05584 0.0
H690 H 0.2466 0.94193 0.43334 0.0
H691 H 0.23727 0.98123 0.45513 0.0
H692 H 0.2508 0.90804 0.31767 0.0
H693 H 0.26199 0.90817 0.22383 0.0
C694 C 0.99907 0.21075 0.21423 0.0
C695 C 0.00668 0.23423 0.27231 0.0
C696 C 0.99209 0.285 0.22647 0.0
C697 C 0.98438 0.26124 0.17047 0.0
N698 N 0.98533 0.2071 0.07659 0.0
N699 N 0.00633 0.29011 0.36112 0.0
C700 C 0.98926 0.22568 0.15391 0.0
C701 C 0.00211 0.27051 0.28603 0.0
N702 N 0.0002 0.17394 0.22244 0.0
N703 N 0.99051 0.32168 0.21797 0.0
H704 H 0.01189 0.27858 0.41495 0.0
H705 H 0.00256 0.31575 0.37741 0.0
H706 H 0.9844 0.33309 0.16678 0.0
H707 H 0.99668 0.34042 0.25157 0.0
H708 H 0.99418 0.15587 0.18531 0.0
H709 H 0.00542 0.1617 0.27683 0.0
H710 H 0.98942 0.18205 0.05792 0.0
H711 H 0.97948 0.21909 0.02485 0.0
C712 C 0.74449 0.74757 0.89728 0.0
C713 C 0.73684 0.71556 0.91404 0.0
C714 C 0.75245 0.69751 0.03578 0.0
C715 C 0.7601 0.72906 0.02044 0.0
N716 N 0.76226 0.78807 0.94955 0.0
N717 N 0.73814 0.65301 0.96453 0.0
C718 C 0.7558 0.75536 0.95475 0.0
C719 C 0.74215 0.68831 0.97303 0.0
N720 N 0.74169 0.76846 0.82125 0.0
N721 N 0.75448 0.67752 0.11407 0.0
H722 H 0.73219 0.64417 0.90934 0.0
H723 H 0.74244 0.63198 0.00292 0.0
H724 H 0.76094 0.68657 0.16623 0.0
H725 H 0.74843 0.65548 0.13237 0.0
H726 H 0.74735 0.79091 0.8011 0.0
H727 H 0.73477 0.7604 0.77091 0.0
H728 H 0.75884 0.80986 0.91011 0.0
H729 H 0.77052 0.79456 0.99089 0.0
C730 C 0.75764 0.94741 0.70208 0.0
C731 C 0.76648 0.97556 0.6725 0.0
C732 C 0.75029 0.02115 0.72464 0.0
C733 C 0.74128 0.99347 0.75361 0.0
N734 N 0.73528 0.92976 0.75418 0.0
N735 N 0.76769 0.03731 0.61554 0.0
C736 C 0.74463 0.95633 0.7381 0.0
C737 C 0.76177 0.01189 0.67121 0.0
N738 N 0.76169 0.91207 0.69404 0.0
N739 N 0.74816 0.05637 0.75086 0.0
H740 H 0.77493 0.03084 0.56587 0.0
H741 H 0.76396 0.06365 0.60864 0.0
H742 H 0.74018 0.06419 0.79368 0.0
H743 H 0.75519 0.07692 0.73885 0.0
H744 H 0.75674 0.89029 0.72503 0.0
H745 H 0.77027 0.90465 0.65657 0.0
H746 H 0.73654 0.90276 0.73473 0.0
H747 H 0.72576 0.93482 0.78164 0.0
C748 C 0.99648 0.71648 0.72993 0.0
C749 C 0.99342 0.75361 0.71159 0.0
C750 C 0.01252 0.7722 0.80816 0.0
C751 C 0.01595 0.73529 0.82361 0.0
N752 N 0.00792 0.67386 0.83127 0.0
N753 N 0.00186 0.81479 0.70424 0.0
C754 C 0.00694 0.70784 0.79383 0.0
C755 C 0.00245 0.78084 0.7422 0.0
N756 N 0.9904 0.6894 0.68069 0.0
N757 N 0.01784 0.79895 0.86242 0.0
H758 H 0.99523 0.8212 0.65046 0.0
H759 H 0.00905 0.83476 0.7175 0.0
H760 H 0.02339 0.7934 0.92208 0.0
H761 H 0.01493 0.82608 0.85724 0.0
H762 H 0.99288 0.66206 0.68782 0.0
H763 H 0.9846 0.69429 0.62205 0.0
H764 H 0.00083 0.65347 0.82007 0.0
H765 H 0.01486 0.66775 0.88336 0.0
C766 C 0.24641 0.77302 0.4377 0.0
C767 C 0.24003 0.73953 0.45909 0.0
C768 C 0.25701 0.72835 0.57949 0.0
C769 C 0.26355 0.76137 0.55693 0.0
N770 N 0.2603 0.82176 0.49565 0.0
N771 N 0.24376 0.679 0.51959 0.0
C772 C 0.25707 0.78572 0.4948 0.0
C773 C 0.24655 0.7153 0.52151 0.0
N774 N 0.24325 0.79114 0.35794 0.0
N775 N 0.25996 0.7108 0.66037 0.0
H776 H 0.23796 0.66719 0.46742 0.0
H777 H 0.24901 0.66011 0.55951 0.0
H778 H 0.26615 0.72229 0.71096 0.0
H779 H 0.25471 0.68792 0.683 0.0
H780 H 0.24839 0.81426 0.33575 0.0
H781 H 0.23708 0.77994 0.3069 0.0
H782 H 0.25511 0.84111 0.4568 0.0
H783 H 0.26662 0.83298 0.54583 0.0
C784 C 0.00545 0.47295 0.53559 0.0
C785 C 0.99409 0.49055 0.49694 0.0
C786 C 0.00879 0.53115 0.40662 0.0
C787 C 0.0202 0.51225 0.44135 0.0
N788 N 0.02966 0.46576 0.53996 0.0
N789 N 0.98455 0.53982 0.40872 0.0
C790 C 0.01858 0.48333 0.50626 0.0
C791 C 0.99565 0.52076 0.43646 0.0
N792 N 0.00364 0.4479 0.60489 0.0
N793 N 0.01049 0.55764 0.34102 0.0
H794 H 0.97478 0.53173 0.42454 0.0
H795 H 0.9849 0.56469 0.37458 0.0
H796 H 0.01991 0.56676 0.3195 0.0
H797 H 0.00269 0.5695 0.30375 0.0
H798 H 0.0114 0.4365 0.64357 0.0
H799 H 0.99418 0.44016 0.62947 0.0
H800 H 0.02938 0.44121 0.5756 0.0
H801 H 0.03938 0.47537 0.53014 0.0
C802 C 0.24584 0.47111 0.74383 0.0
C803 C 0.2565 0.4966 0.73594 0.0
C804 C 0.24313 0.53991 0.82934 0.0
C805 C 0.23273 0.51363 0.83782 0.0
N806 N 0.22797 0.44922 0.84223 0.0
N807 N 0.26613 0.554 0.78501 0.0
C808 C 0.23519 0.47764 0.80727 0.0
C809 C 0.25539 0.5308 0.7824 0.0
N810 N 0.24559 0.44101 0.68832 0.0
N811 N 0.24129 0.57352 0.86775 0.0
H812 H 0.27503 0.54961 0.74891 0.0
H813 H 0.26656 0.57701 0.82683 0.0
H814 H 0.23333 0.57912 0.91307 0.0
H815 H 0.24742 0.59582 0.85409 0.0
H816 H 0.23738 0.42337 0.68606 0.0
H817 H 0.25281 0.43616 0.63694 0.0
H818 H 0.23006 0.42226 0.82522 0.0
H819 H 0.2215 0.45188 0.89885 0.0
C820 C 0.75092 0.28047 0.54321 0.0
C821 C 0.76016 0.25323 0.5701 0.0
C822 C 0.74894 0.2101 0.46629 0.0
C823 C 0.74021 0.23812 0.43579 0.0
N824 N 0.73735 0.30309 0.41796 0.0
N825 N 0.76379 0.18879 0.58754 0.0
C826 C 0.74242 0.27429 0.46621 0.0
C827 C 0.75804 0.21692 0.54016 0.0
N828 N 0.74963 0.31135 0.59488 0.0
N829 N 0.749 0.17754 0.4208 0.0
H830 H 0.76892 0.19267 0.64995 0.0
H831 H 0.76183 0.16158 0.57307 0.0
H832 H 0.74309 0.17292 0.36204 0.0
H833 H 0.75599 0.15707 0.43394 0.0
H834 H 0.74221 0.33078 0.58206 0.0
H835 H 0.75458 0.31464 0.6582 0.0
H836 H 0.73947 0.32997 0.43547 0.0
H837 H 0.73303 0.30039 0.35248 0.0
C838 C 0.74466 0.47085 0.34264 0.0
C839 C 0.73758 0.50309 0.32024 0.0
C840 C 0.75044 0.50906 0.1757 0.0
C841 C 0.75824 0.4785 0.20154 0.0
N842 N 0.76421 0.43309 0.31599 0.0
N843 N 0.73479 0.55601 0.22242 0.0
C844 C 0.7557 0.45991 0.28641 0.0
C845 C 0.74085 0.5233 0.23917 0.0
N846 N 0.74074 0.45055 0.4176 0.0
N847 N 0.75184 0.52349 0.08858 0.0
H848 H 0.7272 0.56682 0.26412 0.0
H849 H 0.73794 0.57387 0.17067 0.0
H850 H 0.75855 0.51304 0.03948 0.0
H851 H 0.74551 0.5434 0.06156 0.0
H852 H 0.74422 0.42436 0.43048 0.0
H853 H 0.73342 0.4592 0.46483 0.0
H854 H 0.76388 0.42196 0.38243 0.0
H855 H 0.77233 0.42352 0.27724 0.0
C856 C 0.4937 0.01238 0.42679 0.0
C857 C 0.49271 0.98487 0.49574 0.0
C858 C 0.51707 0.97616 0.49067 0.0
C859 C 0.51827 0.00679 0.43105 0.0
N860 N 0.50792 0.05522 0.34437 0.0
N861 N 0.50354 0.9453 0.60608 0.0
C862 C 0.50662 0.02533 0.39989 0.0
C863 C 0.50441 0.96788 0.53084 0.0
N864 N 0.48233 0.02497 0.38416 0.0
N865 N 0.52798 0.9547 0.50883 0.0
H866 H 0.49445 0.93904 0.63885 0.0
H867 H 0.51193 0.93566 0.64171 0.0
H868 H 0.53754 0.9599 0.48246 0.0
H869 H 0.52731 0.92993 0.54349 0.0
H870 H 0.48243 0.04219 0.32683 0.0
H871 H 0.47272 0.01572 0.40098 0.0
H872 H 0.5 0.07268 0.32869 0.0
H873 H 0.51715 0.06348 0.31709 0.0
C874 C 0.49072 0.22441 0.7212 0.0
C875 C 0.48819 0.25752 0.67399 0.0
C876 C 0.51028 0.28072 0.72356 0.0
C877 C 0.51224 0.24833 0.77596 0.0
N878 N 0.50243 0.19561 0.8482 0.0
N879 N 0.49711 0.31187 0.60561 0.0
C880 C 0.50185 0.22215 0.7819 0.0
C881 C 0.49842 0.28434 0.66876 0.0
N882 N 0.48331 0.19406 0.70269 0.0
N883 N 0.51937 0.30854 0.72848 0.0
H884 H 0.48894 0.31348 0.56024 0.0
H885 H 0.50464 0.33061 0.59039 0.0
H886 H 0.52801 0.30793 0.76887 0.0
H887 H 0.51776 0.33412 0.69996 0.0
H888 H 0.48541 0.16877 0.73176 0.0
H889 H 0.47674 0.19234 0.64674 0.0
H890 H 0.49447 0.17791 0.86173 0.0
H891 H 0.51019 0.19426 0.89698 0.0
C892 C 0.4941 0.78064 0.16094 0.0
C893 C 0.48343 0.75545 0.17183 0.0
C894 C 0.49772 0.71598 0.26553 0.0
C895 C 0.50848 0.74089 0.25544 0.0
N896 N 0.51715 0.79771 0.19511 0.0
N897 N 0.47702 0.6929 0.20234 0.0
C898 C 0.50677 0.77349 0.20326 0.0
C899 C 0.48579 0.72115 0.21387 0.0
N900 N 0.49223 0.81011 0.10451 0.0
N901 N 0.49851 0.68858 0.3295 0.0
H902 H 0.46851 0.69405 0.16073 0.0
H903 H 0.47912 0.66657 0.2246 0.0
H904 H 0.50677 0.68497 0.37315 0.0
H905 H 0.49033 0.67217 0.3471 0.0
H906 H 0.49964 0.82877 0.08669 0.0
H907 H 0.48327 0.8144 0.06854 0.0
H908 H 0.51623 0.82375 0.16811 0.0
H909 H 0.52685 0.79245 0.21806 0.0
C910 C 0.50476 0.51839 0.01905 0.0
C911 C 0.51017 0.49471 0.95128 0.0
C912 C 0.49181 0.45195 0.97756 0.0
C913 C 0.48565 0.47616 0.04236 0.0
N914 N 0.48923 0.52652 0.14771 0.0
N915 N 0.50635 0.44658 0.84314 0.0
C916 C 0.49284 0.50822 0.06886 0.0
C917 C 0.50283 0.46403 0.92312 0.0
N918 N 0.51102 0.55089 0.03413 0.0
N919 N 0.4883 0.41611 0.97531 0.0
H920 H 0.51395 0.45662 0.79989 0.0
H921 H 0.50073 0.42534 0.81509 0.0
H922 H 0.48236 0.40413 0.02665 0.0
H923 H 0.49316 0.39716 0.9331 0.0
H924 H 0.50719 0.57133 0.07651 0.0
H925 H 0.5195 0.55871 -0.00401 0.0
H926 H 0.49436 0.549 0.1734 0.0
H927 H 0.48232 0.51623 0.19543 0.0
C928 C 0.37738 0.25519 0.38112 0.0
C929 C 0.38431 0.22468 0.3438 0.0
C930 C 0.36269 0.19544 0.30963 0.0
C931 C 0.3559 0.22393 0.35609 0.0
N932 N 0.35684 0.27737 0.45268 0.0
N933 N 0.3835 0.1619 0.29442 0.0
C934 C 0.36326 0.2528 0.39685 0.0
C935 C 0.37696 0.19369 0.31393 0.0
N936 N 0.38406 0.28702 0.39732 0.0
N937 N 0.35555 0.17041 0.25988 0.0
H938 H 0.39387 0.15861 0.3026 0.0
H939 H 0.37848 0.13765 0.28056 0.0
H940 H 0.34509 0.17143 0.25385 0.0
H941 H 0.36008 0.15104 0.21722 0.0
H942 H 0.37919 0.311 0.41601 0.0
H943 H 0.39427 0.29063 0.38306 0.0
H944 H 0.36194 0.29664 0.49231 0.0
H945 H 0.3465 0.27646 0.4655 0.0
C946 C 0.86042 0.03908 0.32649 0.0
C947 C 0.85429 0.01196 0.38219 0.0
C948 C 0.87668 0.99248 0.43471 0.0
C949 C 0.88267 0.0152 0.36612 0.0
N950 N 0.87997 0.05638 0.23674 0.0
N951 N 0.85658 0.96226 0.49068 0.0
C952 C 0.87447 0.03765 0.30958 0.0
C953 C 0.8624 0.9886 0.43725 0.0
N954 N 0.85282 0.06691 0.29191 0.0
N955 N 0.88451 0.97619 0.50073 0.0
H956 H 0.84629 0.961 0.50358 0.0
H957 H 0.86198 0.94092 0.52006 0.0
H958 H 0.89493 0.97926 0.50407 0.0
H959 H 0.88059 0.96245 0.55795 0.0
H960 H 0.85696 0.08936 0.25832 0.0
H961 H 0.84255 0.06958 0.30644 0.0
H962 H 0.87419 0.07041 0.18819 0.0
H963 H 0.89014 0.05478 0.21879 0.0
C964 C 0.38159 0.98961 0.80657 0.0
C965 C 0.38895 0.01728 0.85334 0.0
C966 C 0.3681 0.03998 0.92327 0.0
C967 C 0.36093 0.01156 0.88026 0.0
N968 N 0.36079 0.95554 0.79401 0.0
N969 N 0.38746 0.07882 0.91261 0.0
C970 C 0.36767 0.98506 0.82627 0.0
C971 C 0.3818 0.04534 0.90037 0.0
N972 N 0.38744 0.97085 0.73508 0.0
N973 N 0.36179 0.06173 0.98692 0.0
H974 H 0.39624 0.08681 0.8785 0.0
H975 H 0.38232 0.10072 0.94173 0.0
H976 H 0.35173 0.05802 0.00599 0.0
H977 H 0.36691 0.08061 0.02769 0.0
H978 H 0.38234 0.95212 0.69393 0.0
H979 H 0.39674 0.97808 0.70686 0.0
H980 H 0.36543 0.9332 0.76315 0.0
H981 H 0.35056 0.95177 0.80627 0.0
C982 C 0.87484 0.20634 0.93439 0.0
C983 C 0.86867 0.231 0.87139 0.0
C984 C 0.89069 0.25749 0.83415 0.0
C985 C 0.89687 0.23165 0.89348 0.0
N986 N 0.89508 0.18842 0.01763 0.0
N987 N 0.87009 0.28467 0.77567 0.0
C988 C 0.88898 0.20823 0.94927 0.0
C989 C 0.87639 0.25833 0.82658 0.0
N990 N 0.86718 0.1808 0.97889 0.0
N991 N 0.89857 0.27994 0.78156 0.0
H992 H 0.85975 0.28497 0.76363 0.0
H993 H 0.87493 0.30761 0.74978 0.0
H994 H 0.90896 0.2813 0.78962 0.0
H995 H 0.89498 0.29624 0.72803 0.0
H996 H 0.87115 0.15921 0.01651 0.0
H997 H 0.8567 0.18033 0.97554 0.0
H998 H 0.88994 0.17261 0.06595 0.0
H999 H 0.90537 0.19047 0.03144 0.0
C1000 C 0.62018 0.75203 0.67828 0.0
C1001 C 0.61185 0.77306 0.61966 0.0
C1002 C 0.6316 0.80331 0.55349 0.0
C1003 C 0.6397 0.78614 0.62144 0.0
N1004 N 0.64159 0.74772 0.75722 0.0
N1005 N 0.60916 0.82 0.50405 0.0
C1006 C 0.634 0.76117 0.68581 0.0
C1007 C 0.61743 0.79912 0.55797 0.0
N1008 N 0.61489 0.72346 0.72683 0.0
N1009 N 0.63748 0.82207 0.4821 0.0
H1010 H 0.59877 0.81606 0.50051 0.0
H1011 H 0.61249 0.84249 0.46662 0.0
H1012 H 0.64788 0.82508 0.47513 0.0
H1013 H 0.63217 0.83183 0.42502 0.0
H1014 H 0.62077 0.70471 0.76272 0.0
H1015 H 0.60472 0.71653 0.72441 0.0
H1016 H 0.63761 0.73238 0.81149 0.0
H1017 H 0.65166 0.75466 0.76763 0.0
C1018 C 0.12116 0.01265 0.54557 0.0
C1019 C 0.11261 0.98916 0.59647 0.0
C1020 C 0.13114 0.94679 0.62087 0.0
C1021 C 0.1402 0.97234 0.58176 0.0
N1022 N 0.14274 0.02021 0.46858 0.0
N1023 N 0.10985 0.93778 0.69868 0.0
C1024 C 0.13495 0.00296 0.53339 0.0
C1025 C 0.11772 0.95738 0.63883 0.0
N1026 N 0.11614 0.04433 0.51027 0.0
N1027 N 0.13486 0.91135 0.63182 0.0
H1028 H 0.10001 0.94526 0.7157 0.0
H1029 H 0.1136 0.91651 0.73884 0.0
H1030 H 0.14369 0.9009 0.60295 0.0
H1031 H 0.12826 0.8912 0.65457 0.0
H1032 H 0.1221 0.06454 0.48072 0.0
H1033 H 0.10605 0.0518 0.51731 0.0
H1034 H 0.13932 0.04119 0.42638 0.0
H1035 H 0.15207 0.01009 0.44745 0.0
C1036 C 0.62568 0.95167 0.08212 0.0
C1037 C 0.63339 0.97689 0.13329 0.0
C1038 C 0.61271 0.00548 0.19238 0.0
C1039 C 0.60493 0.97977 0.14118 0.0
N1040 N 0.60437 0.92092 0.0665 0.0
N1041 N 0.63474 0.02435 0.24802 0.0
C1042 C 0.61154 0.95065 0.09464 0.0
C1043 C 0.62705 0.00297 0.19123 0.0
N1044 N 0.63184 0.92931 0.0191 0.0
N1045 N 0.60655 0.03253 0.24135 0.0
H1046 H 0.64525 0.02402 0.24705 0.0
H1047 H 0.63082 0.04084 0.30022 0.0
H1048 H 0.59652 0.03158 0.26125 0.0
H1049 H 0.61149 0.05584 0.26407 0.0
H1050 H 0.62654 0.91332 0.97195 0.0
H1051 H 0.64223 0.9293 0.00788 0.0
H1052 H 0.60885 0.89745 0.04038 0.0
H1053 H 0.5941 0.91784 0.07964 0.0
C1054 C 0.11299 0.79604 0.03893 0.0
C1055 C 0.10638 0.76836 0.0896 0.0
C1056 C 0.12813 0.73877 0.11809 0.0
C1057 C 0.13483 0.76928 0.0788 0.0
N1058 N 0.13344 0.83076 0.02015 0.0
N1059 N 0.10762 0.71547 0.18783 0.0
C1060 C 0.12721 0.79893 0.04375 0.0
C1061 C 0.11393 0.7402 0.13205 0.0
N1062 N 0.10566 0.81925 0.98493 0.0
N1063 N 0.13518 0.70789 0.13846 0.0
H1064 H 0.09722 0.71521 0.19766 0.0
H1065 H 0.11277 0.69689 0.22917 0.0
H1066 H 0.14549 0.70519 0.12638 0.0
H1067 H 0.13059 0.68371 0.15877 0.0
H1068 H 0.11005 0.83795 0.93972 0.0
H1069 H 0.09524 0.81698 0.97773 0.0
H1070 H 0.12817 0.85424 0.0026 0.0
H1071 H 0.14375 0.83509 0.02831 0.0
C1072 C 0.36063 0.76211 0.84544 0.0
C1073 C 0.3532 0.7332 0.88565 0.0
C1074 C 0.37416 0.70339 0.9318 0.0
C1075 C 0.38163 0.73003 0.88256 0.0
N1076 N 0.38189 0.78278 0.78206 0.0
N1077 N 0.35276 0.67289 0.95089 0.0
C1078 C 0.37486 0.75896 0.83654 0.0
C1079 C 0.35994 0.7028 0.92397 0.0
N1080 N 0.35415 0.79323 0.81957 0.0
N1081 N 0.38061 0.67969 0.98985 0.0
H1082 H 0.3423 0.6712 0.94495 0.0
H1083 H 0.35727 0.6485 0.97032 0.0
H1084 H 0.39098 0.68042 0.00135 0.0
H1085 H 0.37553 0.66207 0.03441 0.0
H1086 H 0.35915 0.81685 0.79947 0.0
H1087 H 0.34376 0.79641 0.82574 0.0
H1088 H 0.37727 0.80133 0.73774 0.0
H1089 H 0.39233 0.78264 0.77595 0.0
C1090 C 0.88391 0.50072 0.78867 0.0
C1091 C 0.89124 0.527 0.8397 0.0
C1092 C 0.87023 0.55442 0.89392 0.0
C1093 C 0.86294 0.52598 0.851 0.0
N1094 N 0.86296 0.46873 0.7678 0.0
N1095 N 0.8907 0.5894 0.89224 0.0
C1096 C 0.86979 0.49811 0.80141 0.0
C1097 C 0.88427 0.55701 0.8789 0.0
N1098 N 0.89016 0.48117 0.72024 0.0
N1099 N 0.86386 0.578 0.95288 0.0
H1100 H 0.90025 0.59469 0.86529 0.0
H1101 H 0.88579 0.6128 0.91489 0.0
H1102 H 0.85361 0.57633 0.9683 0.0
H1103 H 0.86903 0.59662 0.9941 0.0
H1104 H 0.8851 0.46372 0.67532 0.0
H1105 H 0.89995 0.48679 0.69815 0.0
H1106 H 0.86773 0.4456 0.7421 0.0
H1107 H 0.8526 0.46576 0.77289 0.0
C1108 C 0.3731 0.54399 0.32366 0.0
C1109 C 0.36598 0.51371 0.36147 0.0
C1110 C 0.38801 0.48537 0.39532 0.0
C1111 C 0.39457 0.51299 0.34348 0.0
N1112 N 0.39292 0.56409 0.24047 0.0
N1113 N 0.36746 0.45444 0.43733 0.0
C1114 C 0.38693 0.54061 0.30124 0.0
C1115 C 0.37362 0.48403 0.3987 0.0
N1116 N 0.36706 0.57724 0.31717 0.0
N1117 N 0.39555 0.46132 0.4453 0.0
H1118 H 0.35745 0.45319 0.45746 0.0
H1119 H 0.37247 0.43002 0.44925 0.0
H1120 H 0.40599 0.46015 0.44009 0.0
H1121 H 0.39158 0.44403 0.49565 0.0
H1122 H 0.37217 0.60049 0.29551 0.0
H1123 H 0.3577 0.58278 0.34719 0.0
H1124 H 0.38748 0.583 0.20178 0.0
H1125 H 0.40306 0.56182 0.22168 0.0
C1126 C 0.86634 0.7537 0.38129 0.0
C1127 C 0.85955 0.72052 0.40053 0.0
C1128 C 0.88122 0.69081 0.42611 0.0
C1129 C 0.888 0.72183 0.3916 0.0
N1130 N 0.88691 0.78275 0.32953 0.0
N1131 N 0.86078 0.65547 0.4227 0.0
C1132 C 0.88055 0.75339 0.36752 0.0
C1133 C 0.86705 0.68848 0.41802 0.0
N1134 N 0.85939 0.78577 0.38058 0.0
N1135 N 0.88826 0.66424 0.47071 0.0
H1136 H 0.85048 0.65203 0.41163 0.0
H1137 H 0.86606 0.63105 0.42708 0.0
H1138 H 0.89849 0.66687 0.48474 0.0
H1139 H 0.88366 0.64244 0.50436 0.0
H1140 H 0.86404 0.81106 0.37581 0.0
H1141 H 0.8491 0.78758 0.39442 0.0
H1142 H 0.88177 0.80434 0.29909 0.0
H1143 H 0.89732 0.78467 0.32347 0.0
C1144 C 0.63304 0.30593 0.141 0.0
C1145 C 0.6411 0.27698 0.10781 0.0
C1146 C 0.62125 0.23722 0.10529 0.0
C1147 C 0.61314 0.26736 0.1308 0.0
N1148 N 0.61087 0.3325 0.14524 0.0
N1149 N 0.64269 0.21632 0.04481 0.0
C1150 C 0.6189 0.30234 0.14073 0.0
C1151 C 0.63516 0.24291 0.08591 0.0
N1152 N 0.63889 0.33643 0.17648 0.0
N1153 N 0.61582 0.20308 0.10315 0.0
H1154 H 0.65299 0.21899 0.03266 0.0
H1155 H 0.63859 0.19273 0.01676 0.0
H1156 H 0.60572 0.1978 0.11797 0.0
H1157 H 0.62152 0.17961 0.09406 0.0
H1158 H 0.63349 0.35651 0.21152 0.0
H1159 H 0.64926 0.33967 0.17944 0.0
H1160 H 0.61468 0.35887 0.14398 0.0
H1161 H 0.60041 0.33148 0.13901 0.0
C1162 C 0.11636 0.50494 0.08937 0.0
C1163 C 0.10993 0.47568 0.13604 0.0
C1164 C 0.13157 0.44469 0.15092 0.0
C1165 C 0.13838 0.47547 0.11447 0.0
N1166 N 0.13704 0.53632 0.05111 0.0
N1167 N 0.11197 0.42313 0.23375 0.0
C1168 C 0.13073 0.50598 0.08374 0.0
C1169 C 0.11772 0.44716 0.17336 0.0
N1170 N 0.10876 0.53113 0.04739 0.0
N1171 N 0.13823 0.41245 0.16072 0.0
H1172 H 0.1021 0.42628 0.25728 0.0
H1173 H 0.11745 0.40337 0.26919 0.0
H1174 H 0.14818 0.40885 0.13903 0.0
H1175 H 0.13341 0.38838 0.17948 0.0
H1176 H 0.11266 0.55027 0.00135 0.0
H1177 H 0.09837 0.53271 0.05517 0.0
H1178 H 0.13225 0.56127 0.04288 0.0
H1179 H 0.14717 0.53696 0.03362 0.0
C1180 C 0.62355 0.5032 0.7086 0.0
C1181 C 0.62942 0.48028 0.63998 0.0
C1182 C 0.607 0.45975 0.59297 0.0
C1183 C 0.60113 0.48613 0.65205 0.0
N1184 N 0.60334 0.5318 0.77018 0.0
N1185 N 0.62682 0.44025 0.50839 0.0
C1186 C 0.60928 0.50742 0.71152 0.0
C1187 C 0.62117 0.45926 0.58028 0.0
N1188 N 0.63159 0.5197 0.77307 0.0
N1189 N 0.59898 0.43451 0.55092 0.0
H1190 H 0.63715 0.43995 0.49502 0.0
H1191 H 0.62119 0.42756 0.45675 0.0
H1192 H 0.5886 0.43353 0.56213 0.0
H1193 H 0.6027 0.41239 0.51376 0.0
H1194 H 0.62795 0.53408 0.83008 0.0
H1195 H 0.64203 0.51696 0.77337 0.0
H1196 H 0.60855 0.55192 0.80592 0.0
H1197 H 0.59297 0.53201 0.78204 0.0
C1198 C 0.12913 0.2327 0.55432 0.0
C1199 C 0.13657 0.25846 0.60676 0.0
C1200 C 0.11665 0.29678 0.62009 0.0
C1201 C 0.1085 0.26861 0.5832 0.0
N1202 N 0.1076 0.21377 0.49078 0.0
N1203 N 0.13679 0.31126 0.7057 0.0
C1204 C 0.11491 0.2375 0.54337 0.0
C1205 C 0.1301 0.28921 0.64491 0.0
N1206 N 0.13581 0.20478 0.51163 0.0
N1207 N 0.11203 0.33171 0.62328 0.0
H1208 H 0.14664 0.3061 0.72736 0.0
H1209 H 0.13204 0.33225 0.74179 0.0
H1210 H 0.10318 0.3397 0.59021 0.0
H1211 H 0.118 0.35349 0.64446 0.0
H1212 H 0.13143 0.18677 0.465 0.0
H1213 H 0.14607 0.20004 0.52105 0.0
H1214 H 0.11083 0.18781 0.47292 0.0
H1215 H 0.09851 0.22102 0.45985 0.0
C1216 C 0.32158 0.27236 0.68932 0.0
C1217 C 0.311 0.25379 0.64266 0.0
C1218 C 0.30342 0.22756 0.79017 0.0
C1219 C 0.31477 0.24309 0.83537 0.0
N1220 N 0.33547 0.27715 0.8276 0.0
N1221 N 0.29284 0.21021 0.64538 0.0
C1222 C 0.32403 0.26491 0.78499 0.0
C1223 C 0.30228 0.23014 0.69205 0.0
N1224 N 0.32936 0.29688 0.64204 0.0
N1225 N 0.29326 0.21242 0.84158 0.0
H1226 H 0.291 0.2131 0.57447 0.0
H1227 H 0.28743 0.18908 0.67582 0.0
H1228 H 0.29326 0.21187 0.91396 0.0
H1229 H 0.28413 0.20394 0.81345 0.0
H1230 H 0.33613 0.31446 0.67398 0.0
H1231 H 0.32856 0.30132 0.57077 0.0
H1232 H 0.34333 0.29005 0.79287 0.0
H1233 H 0.33764 0.27195 0.89718 0.0
C1234 C 0.92761 0.98176 0.70761 0.0
C1235 C 0.92773 0.01558 0.66071 0.0
C1236 C 0.93669 0.0455 0.79908 0.0
C1237 C 0.93761 0.01109 0.84303 0.0
N1238 N 0.93745 0.94562 0.8299 0.0
N1239 N 0.93484 0.0783 0.65395 0.0
C1240 C 0.93404 0.97891 0.79485 0.0
C1241 C 0.9329 0.0472 0.70423 0.0
N1242 N 0.92106 0.95258 0.67004 0.0
N1243 N 0.9391 0.07657 0.84828 0.0
H1244 H 0.93245 0.08056 0.5837 0.0
H1245 H 0.93995 0.10089 0.67946 0.0
H1246 H 0.94211 0.07654 0.91753 0.0
H1247 H 0.93709 0.10248 0.82277 0.0
H1248 H 0.91957 0.9283 0.70577 0.0
H1249 H 0.91594 0.95376 0.60688 0.0
H1250 H 0.93629 0.92152 0.79281 0.0
H1251 H 0.9428 0.94228 0.89159 0.0
C1252 C 0.29538 0.01078 0.45375 0.0
C1253 C 0.3072 0.00581 0.39922 0.0
C1254 C 0.32035 0.9949 0.53998 0.0
C1255 C 0.30877 0.00296 0.5943 0.0
N1256 N 0.28626 0.02744 0.60365 0.0
N1257 N 0.33142 0.00088 0.3908 0.0
C1258 C 0.29657 0.01361 0.55142 0.0
C1259 C 0.31985 0.00013 0.44241 0.0
N1260 N 0.28292 0.01075 0.41328 0.0
N1261 N 0.33162 0.98074 0.58066 0.0
H1262 H 0.33149 0.00517 0.31921 0.0
H1263 H 0.34101 0.00072 0.42011 0.0
H1264 H 0.33247 0.97632 0.65187 0.0
H1265 H 0.33973 0.97046 0.54284 0.0
H1266 H 0.27398 0.01039 0.45132 0.0
H1267 H 0.28141 0.00721 0.34234 0.0
H1268 H 0.27768 0.03912 0.57463 0.0
H1269 H 0.28686 0.03075 0.67551 0.0
C1270 C 0.93545 0.21893 0.46319 0.0
C1271 C 0.94222 0.24773 0.41716 0.0
C1272 C 0.94709 0.27705 0.56625 0.0
C1273 C 0.94018 0.24855 0.61306 0.0
N1274 N 0.92847 0.19103 0.60832 0.0
N1275 N 0.95217 0.30739 0.42085 0.0
C1276 C 0.93455 0.21905 0.5621 0.0
C1277 C 0.9473 0.27781 0.46751 0.0
N1278 N 0.92929 0.19252 0.41132 0.0
N1279 N 0.95429 0.30196 0.61636 0.0
H1280 H 0.95277 0.30862 0.3487 0.0
H1281 H 0.95455 0.33194 0.45275 0.0
H1282 H 0.95503 0.30137 0.6886 0.0
H1283 H 0.9607 0.3211 0.58666 0.0
H1284 H 0.92326 0.17199 0.43816 0.0
H1285 H 0.92946 0.19224 0.33884 0.0
H1286 H 0.9254 0.16685 0.5777 0.0
H1287 H 0.92688 0.19099 0.6796 0.0
C1288 C 0.68672 0.73894 0.21047 0.0
C1289 C 0.69463 0.76341 0.1573 0.0
C1290 C 0.69536 0.80584 0.28809 0.0
C1291 C 0.68707 0.78179 0.33908 0.0
N1292 N 0.6707 0.73352 0.33615 0.0
N1293 N 0.70255 0.82506 0.13526 0.0
C1294 C 0.68142 0.75083 0.29625 0.0
C1295 C 0.69781 0.79842 0.19292 0.0
N1296 N 0.68486 0.70386 0.18222 0.0
N1297 N 0.70115 0.83508 0.33069 0.0
H1298 H 0.70364 0.8215 0.06379 0.0
H1299 H 0.70388 0.85188 0.15642 0.0
H1300 H 0.69933 0.84175 0.40003 0.0
H1301 H 0.70846 0.8512 0.29893 0.0
H1302 H 0.68018 0.68439 0.22385 0.0
H1303 H 0.68918 0.69319 0.12207 0.0
H1304 H 0.66547 0.71259 0.30337 0.0
H1305 H 0.66623 0.7427 0.39757 0.0
C1306 C 0.04835 0.99703 0.23424 0.0
C1307 C 0.05901 0.00267 0.16969 0.0
C1308 C 0.07411 0.02138 0.29554 0.0
C1309 C 0.06331 0.01721 0.35976 0.0
N1310 N 0.04086 0.99618 0.39494 0.0
N1311 N 0.08161 0.02243 0.1349 0.0
C1312 C 0.05065 0.00345 0.33045 0.0
C1313 C 0.07178 0.01547 0.1993 0.0
N1314 N 0.03577 0.98806 0.20264 0.0
N1315 N 0.08683 0.02842 0.3275 0.0
H1316 H 0.08068 0.01568 0.0648 0.0
H1317 H 0.09045 0.0365 0.14943 0.0
H1318 H 0.08911 0.03163 0.39765 0.0
H1319 H 0.09543 0.02801 0.28609 0.0
H1320 H 0.02716 0.98752 0.2439 0.0
H1321 H 0.03359 0.98337 0.13289 0.0
H1322 H 0.03214 0.98151 0.38091 0.0
H1323 H 0.04168 0.00327 0.46481 0.0
C1324 C 0.67961 0.00211 0.55959 0.0
C1325 C 0.69049 0.98163 0.59658 0.0
C1326 C 0.69827 0.96711 0.43853 0.0
C1327 C 0.68807 0.98974 0.40149 0.0
N1328 N 0.66726 0.02256 0.42359 0.0
N1329 N 0.71166 0.95052 0.57174 0.0
C1330 C 0.67822 0.00556 0.46117 0.0
C1331 C 0.70014 0.96537 0.53621 0.0
N1332 N 0.67078 0.01886 0.6189 0.0
N1333 N 0.70575 0.9457 0.38028 0.0
H1334 H 0.71381 0.94992 0.64239 0.0
H1335 H 0.71976 0.94213 0.53093 0.0
H1336 H 0.70451 0.94565 0.30832 0.0
H1337 H 0.71215 0.92524 0.40358 0.0
H1338 H 0.66372 0.03812 0.59862 0.0
H1339 H 0.67081 0.01457 0.69049 0.0
H1340 H 0.65905 0.03191 0.46161 0.0
H1341 H 0.66578 0.02512 0.35246 0.0
C1342 C 0.06772 0.77235 0.43584 0.0
C1343 C 0.0628 0.7432 0.38047 0.0
C1344 C 0.05347 0.71335 0.51883 0.0
C1345 C 0.05788 0.74309 0.57316 0.0
N1346 N 0.06975 0.79972 0.58951 0.0
N1347 N 0.04906 0.68935 0.36505 0.0
C1348 C 0.06513 0.7724 0.53323 0.0
C1349 C 0.05525 0.71439 0.42091 0.0
N1350 N 0.07482 0.79989 0.39486 0.0
N1351 N 0.04776 0.6839 0.56139 0.0
H1352 H 0.04968 0.68975 0.29274 0.0
H1353 H 0.04228 0.66993 0.3891 0.0
H1354 H 0.04603 0.68269 0.63285 0.0
H1355 H 0.04566 0.65955 0.52764 0.0
H1356 H 0.07817 0.82314 0.42842 0.0
H1357 H 0.07743 0.79987 0.32492 0.0
H1358 H 0.07548 0.82169 0.56755 0.0
H1359 H 0.06812 0.80027 0.66113 0.0
C1360 C 0.31668 0.76542 0.19283 0.0
C1361 C 0.30685 0.74317 0.1488 0.0
C1362 C 0.30286 0.71026 0.29435 0.0
C1363 C 0.31258 0.73268 0.33863 0.0
N1364 N 0.3282 0.78268 0.33508 0.0
N1365 N 0.29202 0.69131 0.15152 0.0
C1366 C 0.31938 0.7605 0.28907 0.0
C1367 C 0.30042 0.71456 0.19774 0.0
N1368 N 0.32397 0.78979 0.14127 0.0
N1369 N 0.29519 0.68681 0.34612 0.0
H1370 H 0.28904 0.69525 0.08284 0.0
H1371 H 0.28854 0.66694 0.17918 0.0
H1372 H 0.29643 0.68294 0.4173 0.0
H1373 H 0.28684 0.67299 0.32068 0.0
H1374 H 0.33224 0.80414 0.16593 0.0
H1375 H 0.3224 0.79429 0.07067 0.0
H1376 H 0.33226 0.8064 0.30756 0.0
H1377 H 0.33115 0.77815 0.40362 0.0
C1378 C 0.94484 0.45769 0.27718 0.0
C1379 C 0.94001 0.4875 0.33116 0.0
C1380 C 0.92908 0.51322 0.19375 0.0
C1381 C 0.93327 0.48262 0.14137 0.0
N1382 N 0.9436 0.42349 0.13299 0.0
N1383 N 0.92492 0.53852 0.34626 0.0
C1384 C 0.94059 0.454 0.18334 0.0
C1385 C 0.93139 0.51385 0.29087 0.0
N1386 N 0.9541 0.43415 0.31332 0.0
N1387 N 0.92304 0.54197 0.15052 0.0
H1388 H 0.92586 0.53871 0.41836 0.0
H1389 H 0.91752 0.55621 0.32227 0.0
H1390 H 0.9206 0.54193 0.08019 0.0
H1391 H 0.92133 0.56687 0.18279 0.0
H1392 H 0.95917 0.41463 0.27433 0.0
H1393 H 0.95759 0.43552 0.38113 0.0
H1394 H 0.94757 0.39989 0.16184 0.0
H1395 H 0.94132 0.42074 0.06262 0.0
C1396 C 0.30249 0.47149 0.95962 0.0
C1397 C 0.3087 0.49771 0.90064 0.0
C1398 C 0.32333 0.51721 0.02852 0.0
C1399 C 0.31764 0.48991 0.08609 0.0
N1400 N 0.30142 0.44241 0.11176 0.0
N1401 N 0.32642 0.54122 0.87321 0.0
C1402 C 0.30718 0.46712 0.05268 0.0
C1403 C 0.31944 0.51957 0.93378 0.0
N1404 N 0.29199 0.45124 0.92665 0.0
N1405 N 0.33225 0.54156 0.06516 0.0
H1406 H 0.32412 0.54301 0.80281 0.0
H1407 H 0.33525 0.55492 0.89009 0.0
H1408 H 0.3357 0.53996 0.13311 0.0
H1409 H 0.33546 0.56491 0.03095 0.0
H1410 H 0.28733 0.4301 0.96204 0.0
H1411 H 0.28769 0.45571 0.862 0.0
H1412 H 0.29338 0.42557 0.09552 0.0
H1413 H 0.30463 0.43885 0.18005 0.0
C1414 C 0.94157 0.78612 0.96042 0.0
C1415 C 0.94338 0.75223 0.9151 0.0
C1416 C 0.93413 0.72026 0.04988 0.0
C1417 C 0.93222 0.75419 0.0947 0.0
N1418 N 0.93051 0.8194 0.0841 0.0
N1419 N 0.93784 0.6885 0.90464 0.0
C1420 C 0.93471 0.78716 0.047 0.0
C1421 C 0.93865 0.71963 0.95636 0.0
N1422 N 0.94707 0.817 0.92361 0.0
N1423 N 0.9316 0.68863 0.0966 0.0
H1424 H 0.94051 0.68732 0.83457 0.0
H1425 H 0.93325 0.66477 0.92799 0.0
H1426 H 0.9272 0.68789 0.16246 0.0
H1427 H 0.93444 0.66316 0.07199 0.0
H1428 H 0.94734 0.84172 0.95879 0.0
H1429 H 0.95242 0.81734 0.86118 0.0
H1430 H 0.93064 0.84376 0.04731 0.0
H1431 H 0.92587 0.82143 0.14894 0.0
C1432 C 0.69928 0.25054 0.69799 0.0
C1433 C 0.68757 0.24603 0.64272 0.0
C1434 C 0.67353 0.24347 0.78218 0.0
C1435 C 0.68533 0.24445 0.83755 0.0
N1436 N 0.70959 0.24379 0.84931 0.0
N1437 N 0.66393 0.23162 0.63076 0.0
C1438 C 0.69827 0.2465 0.79581 0.0
C1439 C 0.67479 0.24056 0.68441 0.0
N1440 N 0.71123 0.26051 0.65768 0.0
N1441 N 0.66112 0.24726 0.82249 0.0
H1442 H 0.66451 0.22878 0.55874 0.0
H1443 H 0.65468 0.22365 0.65828 0.0
H1444 H 0.65977 0.25071 0.89372 0.0
H1445 H 0.65228 0.25071 0.78467 0.0
H1446 H 0.71971 0.26813 0.69547 0.0
H1447 H 0.71242 0.26429 0.58637 0.0
H1448 H 0.71923 0.24069 0.82179 0.0
H1449 H 0.7093 0.24183 0.92149 0.0
C1450 C 0.06155 0.52292 0.79483 0.0
C1451 C 0.0698 0.49801 0.84388 0.0
C1452 C 0.07751 0.47144 0.69695 0.0
C1453 C 0.06834 0.49395 0.64837 0.0
N1454 N 0.04986 0.53673 0.65221 0.0
N1455 N 0.0843 0.4453 0.84349 0.0
C1456 C 0.05997 0.51883 0.69737 0.0
C1457 C 0.07734 0.47119 0.79551 0.0
N1458 N 0.05499 0.55013 0.84139 0.0
N1459 N 0.08682 0.45147 0.64873 0.0
H1460 H 0.08516 0.44536 0.91541 0.0
H1461 H 0.08846 0.42231 0.81248 0.0
H1462 H 0.08754 0.4518 0.57642 0.0
H1463 H 0.09468 0.43738 0.68015 0.0
H1464 H 0.05042 0.57202 0.80816 0.0
H1465 H 0.05468 0.55213 0.91361 0.0
H1466 H 0.04238 0.55162 0.68588 0.0
H1467 H 0.04814 0.53415 0.58143 0.0
C1468 C 0.69215 0.46546 0.04883 0.0
C1469 C 0.68929 0.50006 0.08741 0.0
C1470 C 0.67638 0.51655 0.94957 0.0
C1471 C 0.68041 0.48346 0.90684 0.0
N1472 N 0.6941 0.42924 0.90904 0.0
N1473 N 0.68047 0.56066 0.07128 0.0
C1474 C 0.68878 0.45852 0.95473 0.0
C1475 C 0.6819 0.52624 0.03693 0.0
N1476 N 0.69786 0.43904 0.10267 0.0
N1477 N 0.66686 0.53803 0.90856 0.0
H1478 H 0.68414 0.56847 0.13618 0.0
H1479 H 0.67659 0.58215 0.03265 0.0
H1480 H 0.66246 0.53189 0.84486 0.0
H1481 H 0.66247 0.56036 0.94119 0.0
H1482 H 0.69882 0.41211 0.08146 0.0
H1483 H 0.70059 0.44324 0.17183 0.0
H1484 H 0.70142 0.41238 0.93759 0.0
H1485 H 0.69215 0.42364 0.83933 0.0
C1486 C 0.05902 0.22402 0.9408 0.0
C1487 C 0.06812 0.24938 0.9013 0.0
C1488 C 0.06747 0.28678 0.04194 0.0
C1489 C 0.05836 0.2615 0.08149 0.0
N1490 N 0.04476 0.20734 0.07138 0.0
N1491 N 0.0801 0.3063 0.90611 0.0
C1492 C 0.05392 0.23043 0.03152 0.0
C1493 C 0.07218 0.28109 0.94984 0.0
N1494 N 0.05508 0.19441 0.8899 0.0
N1495 N 0.07186 0.31557 0.09377 0.0
H1496 H 0.08413 0.30235 0.8399 0.0
H1497 H 0.08228 0.33188 0.9328 0.0
H1498 H 0.06816 0.32109 0.16009 0.0
H1499 H 0.0795 0.33322 0.07365 0.0
H1500 H 0.04789 0.17558 0.91057 0.0
H1501 H 0.05903 0.18838 0.82448 0.0
H1502 H 0.04169 0.18271 0.04339 0.0
H1503 H 0.03996 0.21294 0.13418 0.0
C1504 C 0.82039 0.26063 0.18675 0.0
C1505 C 0.81796 0.22635 0.14472 0.0
C1506 C 0.80749 0.20446 0.28812 0.0
C1507 C 0.80837 0.24007 0.32549 0.0
N1508 N 0.814 0.30339 0.30688 0.0
N1509 N 0.8078 0.16685 0.14998 0.0
C1510 C 0.81442 0.26855 0.27409 0.0
C1511 C 0.8112 0.19845 0.19406 0.0
N1512 N 0.82878 0.28512 0.14468 0.0
N1513 N 0.80349 0.17621 0.3434 0.0
H1514 H 0.81033 0.16145 0.08099 0.0
H1515 H 0.80154 0.14724 0.17923 0.0
H1516 H 0.80091 0.17943 0.41323 0.0
H1517 H 0.80393 0.14913 0.3228 0.0
H1518 H 0.83197 0.30906 0.17629 0.0
H1519 H 0.83364 0.27997 0.0817 0.0
H1520 H 0.81686 0.32585 0.26749 0.0
H1521 H 0.80975 0.31028 0.37082 0.0
C1522 C 0.44718 0.96838 0.26644 0.0
C1523 C 0.43998 0.99352 0.32289 0.0
C1524 C 0.42649 0.01208 0.18904 0.0
C1525 C 0.43287 0.98476 0.13511 0.0
N1526 N 0.44795 0.93372 0.12313 0.0
N1527 N 0.4215 0.0354 0.34266 0.0
C1528 C 0.44282 0.96192 0.17407 0.0
C1529 C 0.4293 0.01444 0.28543 0.0
N1530 N 0.45858 0.95207 0.29941 0.0
N1531 N 0.418 0.03637 0.14759 0.0
H1532 H 0.42311 0.03737 0.414 0.0
H1533 H 0.41271 0.04834 0.32128 0.0
H1534 H 0.41537 0.03484 0.07771 0.0
H1535 H 0.41435 0.05958 0.18046 0.0
H1536 H 0.46506 0.9366 0.25847 0.0
H1537 H 0.46231 0.9566 0.36587 0.0
H1538 H 0.45416 0.91366 0.1507 0.0
H1539 H 0.44516 0.9287 0.0545 0.0
C1540 C 0.79979 0.00917 0.96804 0.0
C1541 C 0.81118 0.99358 0.92343 0.0
C1542 C 0.81872 0.96785 0.07189 0.0
C1543 C 0.80785 0.986 0.11741 0.0
N1544 N 0.78895 0.0271 0.11187 0.0
N1545 N 0.83116 0.95666 0.92818 0.0
C1546 C 0.79869 0.00771 0.06636 0.0
C1547 C 0.82053 0.97228 0.97405 0.0
N1548 N 0.78953 0.02309 0.91561 0.0
N1549 N 0.82755 0.94755 0.12318 0.0
H1550 H 0.83295 0.96041 0.85743 0.0
H1551 H 0.83835 0.93997 0.9584 0.0
H1552 H 0.82681 0.9447 0.19489 0.0
H1553 H 0.83576 0.93348 0.09665 0.0
H1554 H 0.78035 0.03166 0.94296 0.0
H1555 H 0.78957 0.02241 0.84321 0.0
H1556 H 0.78312 0.04704 0.08008 0.0
H1557 H 0.78723 0.02505 0.18318 0.0
C1558 C 0.43505 0.23237 0.95177 0.0
C1559 C 0.44235 0.26276 0.91904 0.0
C1560 C 0.43959 0.29363 0.06843 0.0
C1561 C 0.43332 0.26169 0.10386 0.0
N1562 N 0.42662 0.19884 0.08329 0.0
N1563 N 0.45154 0.3226 0.94008 0.0
C1564 C 0.43148 0.23054 0.04674 0.0
C1565 C 0.44456 0.29365 0.97555 0.0
N1566 N 0.43113 0.20577 0.89106 0.0
N1567 N 0.44106 0.32338 0.12452 0.0
H1568 H 0.45497 0.32349 0.87152 0.0
H1569 H 0.45426 0.34555 0.9776 0.0
H1570 H 0.43817 0.32367 0.19405 0.0
H1571 H 0.44486 0.3483 0.10306 0.0
H1572 H 0.42444 0.18504 0.90818 0.0
H1573 H 0.43351 0.20623 0.82049 0.0
H1574 H 0.42681 0.17414 0.04805 0.0
H1575 H 0.42328 0.19611 0.15136 0.0
C1576 C 0.19732 0.7463 0.81518 0.0
C1577 C 0.18415 0.73655 0.84509 0.0
C1578 C 0.17607 0.73768 0.68398 0.0
C1579 C 0.18898 0.74983 0.65524 0.0
N1580 N 0.2126 0.75856 0.68687 0.0
N1581 N 0.16069 0.72504 0.81106 0.0
C1582 C 0.19981 0.75232 0.71912 0.0
C1583 C 0.17349 0.73207 0.78018 0.0
N1584 N 0.20736 0.75044 0.87938 0.0
N1585 N 0.16632 0.73121 0.61892 0.0
H1586 H 0.15831 0.72006 0.88034 0.0
H1587 H 0.15216 0.72613 0.76932 0.0
H1588 H 0.16753 0.73722 0.5486 0.0
H1589 H 0.15729 0.71794 0.63292 0.0
H1590 H 0.2167 0.76198 0.86532 0.0
H1591 H 0.20623 0.74329 0.94902 0.0
H1592 H 0.22123 0.75721 0.72749 0.0
H1593 H 0.21485 0.76276 0.6169 0.0
C1594 C 0.55035 0.00788 0.71974 0.0
C1595 C 0.56279 0.00558 0.6713 0.0
C1596 C 0.57495 0.01912 0.8153 0.0
C1597 C 0.5626 0.01643 0.86539 0.0
N1598 N 0.53855 0.00687 0.86721 0.0
N1599 N 0.58702 0.00722 0.67135 0.0
C1600 C 0.5503 0.01033 0.81811 0.0
C1601 C 0.57513 0.01098 0.71854 0.0
N1602 N 0.53858 0.00938 0.6711 0.0
N1603 N 0.58647 0.02956 0.8599 0.0
H1604 H 0.58748 0.00246 0.59994 0.0
H1605 H 0.59641 0.00657 0.70331 0.0
H1606 H 0.58693 0.03466 0.93098 0.0
H1607 H 0.59542 0.03579 0.82569 0.0
H1608 H 0.52921 0.01464 0.70092 0.0
H1609 H 0.5384 0.00909 0.59903 0.0
H1610 H 0.52959 -0.00234 0.83811 0.0
H1611 H 0.53787 0.01135 0.93862 0.0
C1612 C 0.19269 0.00337 0.9474 0.0
C1613 C 0.18026 0.9876 0.91951 0.0
C1614 C 0.17602 0.9682 0.07959 0.0
C1615 C 0.18911 0.98007 0.10418 0.0
N1616 N 0.21088 0.00345 0.0591 0.0
N1617 N 0.16131 0.94871 0.9555 0.0
C1618 C 0.19778 0.99579 0.03716 0.0
C1619 C 0.1722 0.96838 0.98464 0.0
N1620 N 0.19928 0.02726 0.8904 0.0
N1621 N 0.1672 0.95723 0.14695 0.0
H1622 H 0.15845 0.94677 0.88605 0.0
H1623 H 0.15591 0.93135 -0.00106 0.0
H1624 H 0.16981 0.95606 0.21699 0.0
H1625 H 0.15705 0.95214 0.13424 0.0
H1626 H 0.20767 0.04214 0.91113 0.0
H1627 H 0.19554 0.03543 0.82612 0.0
H1628 H 0.21803 0.0112 0.00984 0.0
H1629 H 0.21491 -0.00092 0.12501 0.0
C1630 C 0.55737 0.71668 0.93298 0.0
C1631 C 0.56647 0.74172 0.89248 0.0
C1632 C 0.56955 0.77167 0.04298 0.0
C1633 C 0.55956 0.74866 0.08193 0.0
N1634 N 0.54179 0.70475 0.05839 0.0
N1635 N 0.57982 0.79633 0.90396 0.0
C1636 C 0.55293 0.7224 0.02566 0.0
C1637 C 0.57209 0.77033 0.94592 0.0
N1638 N 0.55281 0.68769 0.88252 0.0
N1639 N 0.57708 0.79358 0.09939 0.0
H1640 H 0.58252 0.79525 0.8341 0.0
H1641 H 0.58276 0.82026 0.9367 0.0
H1642 H 0.57588 0.79431 0.17127 0.0
H1643 H 0.58539 0.80838 0.07654 0.0
H1644 H 0.5474 0.66623 0.91144 0.0
H1645 H 0.55521 0.6837 0.8127 0.0
H1646 H 0.53573 0.68805 0.01772 0.0
H1647 H 0.53772 0.70987 0.12356 0.0
C1648 C 0.80191 0.76557 0.67812 0.0
C1649 C 0.81524 0.76478 0.64222 0.0
C1650 C 0.82436 0.75749 0.79967 0.0
C1651 C 0.81101 0.75631 0.83478 0.0
N1652 N 0.78711 0.76394 0.81221 0.0
N1653 N 0.83918 0.75716 0.66552 0.0
C1654 C 0.79979 0.76192 0.77534 0.0
C1655 C 0.82651 0.76053 0.70221 0.0
N1656 N 0.79125 0.76822 0.61835 0.0
N1657 N 0.83497 0.75711 0.86028 0.0
H1658 H 0.84133 0.76026 0.59514 0.0
H1659 H 0.84758 0.74915 0.70346 0.0
H1660 H 0.83375 0.75492 0.93208 0.0
H1661 H 0.84493 0.76176 0.84107 0.0
H1662 H 0.78122 0.76453 0.63713 0.0
H1663 H 0.79241 0.77271 0.54741 0.0
H1664 H 0.77865 0.77269 0.77606 0.0
H1665 H 0.78502 0.7583 0.88147 0.0
C1666 C 0.43238 0.52385 0.78312 0.0
C1667 C 0.43996 0.49599 0.82652 0.0
C1668 C 0.44432 0.46712 0.67644 0.0
C1669 C 0.43664 0.49463 0.63227 0.0
N1670 N 0.42386 0.55033 0.6403 0.0
N1671 N 0.45028 0.43672 0.81932 0.0
C1672 C 0.43077 0.52337 0.68478 0.0
C1673 C 0.44502 0.46623 0.7747 0.0
N1674 N 0.42622 0.54965 0.83714 0.0
N1675 N 0.45178 0.44336 0.6242 0.0
H1676 H 0.45098 0.43493 0.8912 0.0
H1677 H 0.45271 0.41249 0.78592 0.0
H1678 H 0.4521 0.44395 0.5518 0.0
H1679 H 0.4588 0.42546 0.65223 0.0
H1680 H 0.41983 0.56978 0.81245 0.0
H1681 H 0.42684 0.54982 0.9095 0.0
H1682 H 0.42019 0.5737 0.6719 0.0
H1683 H 0.42211 0.55015 0.56926 0.0
C1684 C 0.80271 0.48148 0.45216 0.0
C1685 C 0.80766 0.51002 0.39483 0.0
C1686 C 0.8198 0.53647 0.52613 0.0
C1687 C 0.8158 0.50644 0.58142 0.0
N1688 N 0.80253 0.45234 0.60418 0.0
N1689 N 0.82156 0.563 0.37233 0.0
C1690 C 0.80692 0.4795 0.54655 0.0
C1691 C 0.81627 0.5373 0.43068 0.0
N1692 N 0.79409 0.45629 0.41546 0.0
N1693 N 0.82652 0.56488 0.56624 0.0
H1694 H 0.8191 0.56471 0.30208 0.0
H1695 H 0.8291 0.58117 0.39126 0.0
H1696 H 0.8291 0.56543 0.63643 0.0
H1697 H 0.82854 0.58931 0.53267 0.0
H1698 H 0.79053 0.43346 0.45005 0.0
H1699 H 0.7903 0.45809 0.34819 0.0
H1700 H 0.79566 0.43231 0.586 0.0
H1701 H 0.80562 0.44985 0.67305 0.0
C1702 C 0.42758 0.7692 0.53841 0.0
C1703 C 0.42597 0.73472 0.58096 0.0
C1704 C 0.43566 0.70401 0.44617 0.0
C1705 C 0.43684 0.73834 0.40175 0.0
N1706 N 0.43561 0.8038 0.40558 0.0
N1707 N 0.43049 0.67046 0.58702 0.0
C1708 C 0.43327 0.77107 0.44796 0.0
C1709 C 0.43066 0.70243 0.53838 0.0
N1710 N 0.42426 0.80001 0.58688 0.0
N1711 N 0.43869 0.67285 0.39859 0.0
H1712 H 0.42624 0.66796 0.65308 0.0
H1713 H 0.43522 0.64673 0.56518 0.0
H1714 H 0.44226 0.6726 0.33053 0.0
H1715 H 0.43697 0.64681 0.42377 0.0
H1716 H 0.42561 0.82638 0.56309 0.0
H1717 H 0.42034 0.79961 0.65418 0.0
H1718 H 0.43242 0.8288 0.43071 0.0
H1719 H 0.44107 0.80637 0.34396 0.0
C1720 C 0.17782 0.23083 0.18758 0.0
C1721 C 0.18985 0.2487 0.16043 0.0
C1722 C 0.19701 0.25185 0.32342 0.0
C1723 C 0.18445 0.2368 0.3513 0.0
N1724 N 0.16164 0.22025 0.31056 0.0
N1725 N 0.21018 0.28094 0.2029 0.0
C1726 C 0.17452 0.22831 0.28356 0.0
C1727 C 0.19916 0.26095 0.22853 0.0
N1728 N 0.16943 0.21654 0.12178 0.0
N1729 N 0.20723 0.25545 0.38639 0.0
H1730 H 0.21293 0.28571 0.13413 0.0
H1731 H 0.21619 0.29484 0.25027 0.0
H1732 H 0.20635 0.24801 0.45591 0.0
H1733 H 0.21705 0.26245 0.36819 0.0
H1734 H 0.16148 0.19915 0.13774 0.0
H1735 H 0.17091 0.22011 0.0506 0.0
H1736 H 0.15368 0.21725 0.2642 0.0
H1737 H 0.1585 0.22062 0.37963 0.0
C1738 C 0.56883 0.48137 0.31316 0.0
C1739 C 0.55848 0.50177 0.35725 0.0
C1740 C 0.54911 0.5188 0.20597 0.0
C1741 C 0.55944 0.49815 0.16163 0.0
N1742 N 0.58073 0.46692 0.17049 0.0
N1743 N 0.53741 0.53403 0.34887 0.0
C1744 C 0.56969 0.48117 0.21464 0.0
C1745 C 0.54836 0.51933 0.30449 0.0
N1746 N 0.57766 0.46155 0.36531 0.0
N1747 N 0.54005 0.53822 0.1546 0.0
H1748 H 0.53625 0.53399 0.4209 0.0
H1749 H 0.52882 0.54327 0.31511 0.0
H1750 H 0.53913 0.53641 0.08299 0.0
H1751 H 0.53379 0.55817 0.18231 0.0
H1752 H 0.5843 0.44246 0.33787 0.0
H1753 H 0.57776 0.46212 0.43744 0.0
H1754 H 0.58927 0.45751 0.20465 0.0
H1755 H 0.58199 0.46768 0.09855 0.0
C1756 C 0.18118 0.47749 0.43766 0.0
C1757 C 0.18523 0.50576 0.37668 0.0
C1758 C 0.1954 0.53928 0.50613 0.0
C1759 C 0.19097 0.51155 0.56711 0.0
N1760 N 0.17827 0.45692 0.59665 0.0
N1761 N 0.19799 0.56033 0.34706 0.0
C1762 C 0.18349 0.48134 0.53448 0.0
C1763 C 0.19277 0.53596 0.40944 0.0
N1764 N 0.17551 0.44651 0.40269 0.0
N1765 N 0.20176 0.5692 0.54168 0.0
H1766 H 0.19668 0.55803 0.27542 0.0
H1767 H 0.20443 0.58152 0.36432 0.0
H1768 H 0.20387 0.5722 0.61225 0.0
H1769 H 0.20428 0.59215 0.50335 0.0
H1770 H 0.17363 0.42328 0.4417 0.0
H1771 H 0.17364 0.44262 0.33233 0.0
H1772 H 0.17147 0.43655 0.57923 0.0
H1773 H 0.17992 0.4585 0.66802 0.0
C1774 C 0.55801 0.21261 0.42841 0.0
C1775 C 0.565 0.24162 0.38487 0.0
C1776 C 0.56721 0.27274 0.53373 0.0
C1777 C 0.55912 0.24565 0.57559 0.0
N1778 N 0.54458 0.19338 0.55976 0.0
N1779 N 0.57365 0.30327 0.39278 0.0
C1780 C 0.55395 0.21636 0.5224 0.0
C1781 C 0.56874 0.27301 0.43621 0.0
N1782 N 0.55504 0.18175 0.37973 0.0
N1783 N 0.57407 0.29712 0.58755 0.0
H1784 H 0.57532 0.3051 0.3217 0.0
H1785 H 0.57493 0.32804 0.42666 0.0
H1786 H 0.57379 0.29657 0.65984 0.0
H1787 H 0.58122 0.31511 0.5612 0.0
H1788 H 0.55153 0.15801 0.4108 0.0
H1789 H 0.55676 0.17913 0.30867 0.0
H1790 H 0.53935 0.17407 0.5212 0.0
H1791 H 0.54105 0.19571 0.62758 0.0
C1792 C 0.29747 0.39767 0.34443 0.0
C1793 C 0.3067 0.40557 0.41677 0.0
C1794 C 0.32107 0.35483 0.3708 0.0
C1795 C 0.31124 0.34482 0.30466 0.0
N1796 N 0.29116 0.35726 0.21769 0.0
N1797 N 0.32649 0.39101 0.50628 0.0
C1798 C 0.29976 0.36662 0.2879 0.0
C1799 C 0.31837 0.38419 0.43152 0.0
N1800 N 0.2866 0.4199 0.33062 0.0
N1801 N 0.333 0.33635 0.37457 0.0
H1802 H 0.32483 0.41245 0.55231 0.0
H1803 H 0.33429 0.37402 0.52718 0.0
H1804 H 0.33525 0.31484 0.33007 0.0
H1805 H 0.34114 0.34428 0.41526 0.0
H1806 H 0.27954 0.41663 0.27813 0.0
H1807 H 0.28463 0.44259 0.37187 0.0
H1808 H 0.2822 0.37049 0.20246 0.0
H1809 H 0.29325 0.33596 0.17207 0.0
C1810 C 0.93021 0.85505 0.43791 0.0
C1811 C 0.941 0.83134 0.41772 0.0
C1812 C 0.94561 0.86413 0.27248 0.0
C1813 C 0.93588 0.89085 0.29945 0.0
N1814 N 0.91634 0.90466 0.39441 0.0
N1815 N 0.95925 0.81231 0.31878 0.0
C1816 C 0.92746 0.88413 0.37749 0.0
C1817 C 0.94866 0.83528 0.33509 0.0
N1818 N 0.92246 0.85007 0.51551 0.0
N1819 N 0.95155 0.86513 0.18667 0.0
H1820 H 0.96151 0.7903 0.36162 0.0
H1821 H 0.96642 0.81621 0.26687 0.0
H1822 H 0.94908 0.88343 0.13477 0.0
H1823 H 0.95775 0.84472 0.16079 0.0
H1824 H 0.91458 0.86755 0.53328 0.0
H1825 H 0.92392 0.82869 0.56198 0.0
H1826 H 0.91289 0.92477 0.34938 0.0
H1827 H 0.91289 0.92477 0.34938 0.0
C1828 C 0.31566 0.89963 0.82854 0.0
C1829 C 0.30556 0.90855 0.89412 0.0
C1830 C 0.29284 0.85484 0.84738 0.0
C1831 C 0.3044 0.8422 0.79913 0.0
N1832 N 0.32761 0.85159 0.75123 0.0
N1833 N 0.2838 0.89609 0.96273 0.0
C1834 C 0.31597 0.86444 0.79025 0.0
C1835 C 0.29387 0.88661 0.90252 0.0
N1836 N 0.32486 0.92484 0.8012 0.0
N1837 N 0.28083 0.83701 0.83793 0.0
H1838 H 0.28357 0.92093 -0.00247 0.0
H1839 H 0.27592 0.87876 0.98073 0.0
H1840 H 0.27969 0.81458 0.79427 0.0
H1841 H 0.27178 0.84652 0.86523 0.0
H1842 H 0.33144 0.92072 0.74568 0.0
H1843 H 0.3246 0.95127 0.82548 0.0
H1844 H 0.33674 0.86554 0.75492 0.0
H1845 H 0.32865 0.82587 0.72233 0.0
C1846 C 0.95712 0.39368 0.88002 0.0
C1847 C 0.94621 0.40355 0.82238 0.0
C1848 C 0.93247 0.35466 0.88812 0.0
C1849 C 0.94408 0.34131 0.93447 0.0
N1850 N 0.96761 0.34714 0.97383 0.0
N1851 N 0.92369 0.39315 0.7657 0.0
C1852 C 0.95644 0.36071 0.93073 0.0
C1853 C 0.93386 0.38427 0.82564 0.0
N1854 N 0.96799 0.41631 0.88788 0.0
N1855 N 0.92018 0.33896 0.90305 0.0
H1856 H 0.92425 0.41504 0.71987 0.0
H1857 H 0.9151 0.37736 0.75631 0.0
H1858 H 0.91875 0.31658 0.94605 0.0
H1859 H 0.91117 0.34987 0.87891 0.0
H1860 H 0.97562 0.41267 0.9365 0.0
H1861 H 0.96881 0.44063 0.85112 0.0
H1862 H 0.97727 0.35756 0.96452 0.0
H1863 H 0.96734 0.32404 0.0154 0.0
C1864 C 0.68141 0.65572 0.58086 0.0
C1865 C 0.68427 0.65458 0.67803 0.0
C1866 C 0.68996 0.59015 0.6638 0.0
C1867 C 0.68701 0.59124 0.56765 0.0
N1868 N 0.67701 0.6228 0.43823 0.0
N1869 N 0.6844 0.61545 0.81322 0.0
C1870 C 0.68201 0.62345 0.52684 0.0
C1871 C 0.68648 0.6202 0.7202 0.0
N1872 N 0.67769 0.68728 0.53954 0.0
N1873 N 0.69657 0.56108 0.70113 0.0
H1874 H 0.67976 0.63511 0.85447 0.0
H1875 H 0.68528 0.59029 0.84575 0.0
H1876 H 0.6999 0.53915 0.66134 0.0
H1877 H 0.69997 0.56068 0.76961 0.0
H1878 H 0.67904 0.69194 0.46889 0.0
H1879 H 0.67248 0.7073 0.57523 0.0
H1880 H 0.67192 0.64446 0.40782 0.0
H1881 H 0.67687 0.59955 0.39692 0.0
C1882 C 0.04512 0.09709 0.60538 0.0
C1883 C 0.05471 0.09661 0.67811 0.0
C1884 C 0.066 0.14894 0.61141 0.0
C1885 C 0.05507 0.15379 0.55 0.0
N1886 N 0.03321 0.13407 0.49413 0.0
N1887 N 0.07353 0.12399 0.75748 0.0
C1888 C 0.04438 0.12809 0.54732 0.0
C1889 C 0.06493 0.12319 0.68354 0.0
N1890 N 0.03682 0.06798 0.59144 0.0
N1891 N 0.0777 0.1675 0.59692 0.0
H1892 H 0.07312 0.10511 0.81148 0.0
H1893 H 0.08028 0.14521 0.76883 0.0
H1894 H 0.07911 0.18296 0.53703 0.0
H1895 H 0.08639 0.16349 0.63611 0.0
H1896 H 0.03078 0.06518 0.53275 0.0
H1897 H 0.03682 0.04518 0.63448 0.0
H1898 H 0.02463 0.11781 0.49738 0.0
H1899 H 0.0319 0.15691 0.4526 0.0
C1900 C 0.69416 0.12364 0.00986 0.0
C1901 C 0.68888 0.09219 0.05392 0.0
C1902 C 0.68362 0.12995 0.19081 0.0
C1903 C 0.6921 0.15754 0.15478 0.0
N1904 N 0.70649 0.17936 0.03135 0.0
N1905 N 0.67539 0.06866 0.18082 0.0
C1906 C 0.6976 0.15417 0.06444 0.0
C1907 C 0.68265 0.09624 0.14283 0.0
N1908 N 0.69498 0.12542 0.91526 0.0
N1909 N 0.67581 0.1368 0.26742 0.0
H1910 H 0.67073 0.04895 0.14077 0.0
H1911 H 0.67326 0.06712 0.25142 0.0
H1912 H 0.67579 0.16166 0.30214 0.0
H1913 H 0.66837 0.11932 0.29187 0.0
H1914 H 0.69779 0.14898 0.88 0.0
H1915 H 0.69089 0.10539 0.87248 0.0
H1916 H 0.71175 0.17581 0.96918 0.0
H1917 H 0.70953 0.20194 0.06972 0.0
C1918 C 0.04763 0.63664 0.07643 0.0
C1919 C 0.05978 0.65581 0.06058 0.0
C1920 C 0.0727 0.60866 0.14124 0.0
C1921 C 0.06037 0.59061 0.161 0.0
N1922 N 0.03608 0.58919 0.16108 0.0
N1923 N 0.08392 0.66141 0.07543 0.0
C1924 C 0.04783 0.60509 0.13221 0.0
C1925 C 0.07237 0.64219 0.09228 0.0
N1926 N 0.03598 0.64784 0.03455 0.0
N1927 N 0.08467 0.59317 0.16725 0.0
H1928 H 0.08414 0.68541 0.03746 0.0
H1929 H 0.09343 0.65441 0.09936 0.0
H1930 H 0.08536 0.56817 0.20062 0.0
H1931 H 0.09414 0.60398 0.15405 0.0
H1932 H 0.02711 0.63276 0.03414 0.0
H1933 H 0.03545 0.67088 0.99274 0.0
H1934 H 0.0266 0.60063 0.15153 0.0
H1935 H 0.03585 0.56584 0.20195 0.0
C1936 C 0.8184 0.40162 0.84551 0.0
C1937 C 0.81196 0.40083 0.93352 0.0
C1938 C 0.80531 0.33771 0.90613 0.0
C1939 C 0.81027 0.34038 0.81374 0.0
N1940 N 0.82066 0.37577 0.6918 0.0
N1941 N 0.80631 0.36163 0.06227 0.0
C1942 C 0.81646 0.3727 0.78201 0.0
C1943 C 0.80736 0.36698 0.96859 0.0
N1944 N 0.82796 0.42722 0.82826 0.0
N1945 N 0.798 0.308 0.93294 0.0
H1946 H 0.80976 0.3806 0.11045 0.0
H1947 H 0.80411 0.33654 0.09209 0.0
H1948 H 0.7958 0.2865 0.88827 0.0
H1949 H 0.79297 0.30633 -0.00363 0.0
H1950 H 0.83365 0.42821 0.76755 0.0
H1951 H 0.83191 0.44255 0.88228 0.0
H1952 H 0.82373 0.40026 0.66237 0.0
H1953 H 0.82029 0.35447 0.64419 0.0
C1954 C 0.43061 0.88282 0.79152 0.0
C1955 C 0.44275 0.90262 0.8023 0.0
C1956 C 0.45057 0.85963 0.91945 0.0
C1957 C 0.43803 0.84106 0.91344 0.0
N1958 N 0.41524 0.83838 0.85678 0.0
N1959 N 0.46304 0.91488 0.88832 0.0
C1960 C 0.42778 0.85367 0.85314 0.0
C1961 C 0.45234 0.89262 0.87015 0.0
N1962 N 0.42196 0.89132 0.72098 0.0
N1963 N 0.46106 0.84475 0.96756 0.0
H1964 H 0.4648 0.93896 0.85205 0.0
H1965 H 0.46948 0.91115 0.94456 0.0
H1966 H 0.46043 0.81994 0.00198 0.0
H1967 H 0.47079 0.85525 0.96578 0.0
H1968 H 0.41372 0.87535 0.70286 0.0
H1969 H 0.42356 0.91308 0.67585 0.0
H1970 H 0.40696 0.84842 0.82075 0.0
H1971 H 0.41281 0.81751 0.90277 0.0
C1972 C 0.79919 0.83844 0.40603 0.0
C1973 C 0.80875 0.83161 0.3348 0.0
C1974 C 0.82152 0.88562 0.37873 0.0
C1975 C 0.81171 0.893 0.4481 0.0
N1976 N 0.79368 0.87213 0.54597 0.0
N1977 N 0.8301 0.84385 0.26163 0.0
C1978 C 0.80135 0.86784 0.46782 0.0
C1979 C 0.82037 0.85356 0.3244 0.0
N1980 N 0.7877 0.81807 0.41124 0.0
N1981 N 0.83161 0.91006 0.36314 0.0
H1982 H 0.82939 0.82064 0.22032 0.0
H1983 H 0.83925 0.85724 0.25358 0.0
H1984 H 0.83263 0.93343 0.40281 0.0
H1985 H 0.83873 0.90811 0.31031 0.0
H1986 H 0.7796 0.82449 0.45436 0.0
H1987 H 0.78593 0.79563 0.36871 0.0
H1988 H 0.78677 0.85286 0.56928 0.0
H1989 H 0.79521 0.89349 0.59245 0.0
C1990 C 0.4283 0.35731 0.40287 0.0
C1991 C 0.43982 0.33491 0.41072 0.0
C1992 C 0.45289 0.3766 0.31329 0.0
C1993 C 0.44139 0.39927 0.30646 0.0
N1994 N 0.41737 0.40701 0.32293 0.0
N1995 N 0.46199 0.31789 0.35804 0.0
C1996 C 0.42882 0.38818 0.344 0.0
C1997 C 0.45181 0.3429 0.36095 0.0
N1998 N 0.4171 0.35002 0.4551 0.0
N1999 N 0.46485 0.38767 0.27542 0.0
H2000 H 0.46143 0.29296 0.39229 0.0
H2001 H 0.47048 0.32037 0.31598 0.0
H2002 H 0.46575 0.41119 0.23543 0.0
H2003 H 0.47399 0.3745 0.28642 0.0
H2004 H 0.40904 0.36794 0.46201 0.0
H2005 H 0.41619 0.32691 0.49658 0.0
H2006 H 0.40773 0.39815 0.34054 0.0
H2007 H 0.41735 0.42984 0.28029 0.0
C2008 C 0.17691 0.61276 0.12277 0.0
C2009 C 0.18627 0.60486 0.0511 0.0
C2010 C 0.19844 0.66125 0.0836 0.0
C2011 C 0.18979 0.66715 0.1608 0.0
N2012 N 0.1713 0.64854 0.25868 0.0
N2013 N 0.20344 0.62562 0.94564 0.0
C2014 C 0.17906 0.64313 0.18117 0.0
C2015 C 0.19629 0.63044 0.02582 0.0
N2016 N 0.16563 0.59183 0.13176 0.0
N2017 N 0.20905 0.68425 0.06849 0.0
H2018 H 0.20166 0.60393 0.90108 0.0
H2019 H 0.21017 0.64449 0.91844 0.0
H2020 H 0.21076 0.70735 0.10875 0.0
H2021 H 0.21659 0.67974 0.01954 0.0
H2022 H 0.1576 0.5979 0.17572 0.0
H2023 H 0.16385 0.56969 0.08863 0.0
H2024 H 0.16445 0.62957 0.28413 0.0
H2025 H 0.17227 0.67122 0.30162 0.0
C2026 C 0.54693 0.12179 0.1951 0.0
C2027 C 0.55925 0.10257 0.19828 0.0
C2028 C 0.56957 0.14519 0.0891 0.0
C2029 C 0.55679 0.162 0.07878 0.0
N2030 N 0.53329 0.16759 0.11897 0.0
N2031 N 0.583 0.09912 0.16587 0.0
C2032 C 0.54546 0.15087 0.13152 0.0
C2033 C 0.57085 0.11552 0.15128 0.0
N2034 N 0.53693 0.11293 0.25634 0.0
N2035 N 0.5802 0.15642 0.03541 0.0
H2036 H 0.58413 0.07747 0.21122 0.0
H2037 H 0.59214 0.10797 0.13881 0.0
H2038 H 0.57958 0.17783 0.98821 0.0
H2039 H 0.58957 0.14389 0.03339 0.0
H2040 H 0.52798 0.12734 0.26385 0.0
H2041 H 0.53826 0.0929 0.3067 0.0
H2042 H 0.5243 0.15844 0.1479 0.0
H2043 H 0.532 0.18993 0.07529 0.0
C2044 C 0.19511 0.12578 0.52857 0.0
C2045 C 0.18994 0.09356 0.5701 0.0
C2046 C 0.18624 0.1277 0.71522 0.0
C2047 C 0.19435 0.156 0.67938 0.0
N2048 N 0.20751 0.18134 0.55417 0.0
N2049 N 0.17717 0.06736 0.69541 0.0
C2050 C 0.19908 0.1549 0.58667 0.0
C2051 C 0.18449 0.09564 0.66153 0.0
N2052 N 0.19516 0.13014 0.43431 0.0
N2053 N 0.17983 0.13217 0.79887 0.0
H2054 H 0.17374 0.04687 0.65228 0.0
H2055 H 0.17426 0.06468 0.7644 0.0
H2056 H 0.18089 0.15537 0.8398 0.0
H2057 H 0.17275 0.11428 0.82607 0.0
H2058 H 0.19818 0.15412 0.40193 0.0
H2059 H 0.18997 0.11285 0.38973 0.0
H2060 H 0.21232 0.17964 0.48985 0.0
H2061 H 0.21059 0.20334 0.59464 0.0
C2062 C 0.56694 0.60683 0.63613 0.0
C2063 C 0.55543 0.59665 0.68807 0.0
C2064 C 0.54366 0.6517 0.63894 0.0
C2065 C 0.55446 0.65885 0.57678 0.0
N2066 N 0.57609 0.64336 0.51115 0.0
N2067 N 0.5333 0.60944 0.74775 0.0
C2068 C 0.56611 0.63673 0.57473 0.0
C2069 C 0.54394 0.61936 0.69279 0.0
N2070 N 0.57867 0.58796 0.64649 0.0
N2071 N 0.53331 0.67606 0.64667 0.0
H2072 H 0.53368 0.58703 0.79207 0.0
H2073 H 0.52405 0.62269 0.74889 0.0
H2074 H 0.53281 0.69977 0.60716 0.0
H2075 H 0.52559 0.67413 0.69533 0.0
H2076 H 0.58782 0.59563 0.61701 0.0
H2077 H 0.57946 0.5663 0.6924 0.0
H2078 H 0.58408 0.62572 0.49858 0.0
H2079 H 0.57594 0.66547 0.46584 0.0
C2080 C 0.30035 0.13774 0.11206 0.0
C2081 C 0.30959 0.1457 0.18423 0.0
C2082 C 0.32009 0.08633 0.1671 0.0
C2083 C 0.31122 0.07924 0.09235 0.0
N2084 N 0.29027 0.09138 0.01487 0.0
N2085 N 0.32495 0.12403 0.30096 0.0
C2086 C 0.3004 0.10272 0.07216 0.0
C2087 C 0.31835 0.11866 0.21901 0.0
N2088 N 0.292 0.16413 0.07881 0.0
N2089 N 0.33052 0.06318 0.18526 0.0
H2090 H 0.32364 0.14751 0.34046 0.0
H2091 H 0.33065 0.10405 0.33371 0.0
H2092 H 0.33183 0.03865 0.15006 0.0
H2093 H 0.33823 0.06913 0.23179 0.0
H2094 H 0.28598 0.16099 0.0202 0.0
H2095 H 0.29174 0.19011 0.10694 0.0
H2096 H 0.28146 0.10611 0.00396 0.0
H2097 H 0.29011 0.06542 0.98565 0.0
C2098 C 0.92965 0.11785 0.05956 0.0
C2099 C 0.93977 0.14283 0.08632 0.0
C2100 C 0.94758 0.10148 0.20808 0.0
C2101 C 0.93711 0.07713 0.1839 0.0
N2102 N 0.91953 0.05825 0.07876 0.0
N2103 N 0.96045 0.15507 0.16707 0.0
C2104 C 0.92863 0.08398 0.10651 0.0
C2105 C 0.9494 0.13355 0.1549 0.0
N2106 N 0.92084 0.12709 0.99071 0.0
N2107 N 0.9556 0.09419 0.28297 0.0
H2108 H 0.96207 0.17828 0.12742 0.0
H2109 H 0.96851 0.14858 0.21002 0.0
H2110 H 0.95513 0.06981 0.31976 0.0
H2111 H 0.96231 0.11279 0.31157 0.0
H2112 H 0.91224 0.1124 0.97385 0.0
H2113 H 0.92206 0.15044 0.95088 0.0
H2114 H 0.91406 0.05965 0.01737 0.0
H2115 H 0.91793 0.03403 0.1146 0.0
C2116 C 0.67664 0.89013 0.88925 0.0
C2117 C 0.68855 0.90466 0.92829 0.0
C2118 C 0.70164 0.85401 0.864 0.0
C2119 C 0.68946 0.83788 0.83314 0.0
N2120 N 0.66509 0.83661 0.8353 0.0
N2121 N 0.71219 0.89917 0.96331 0.0
C2122 C 0.67687 0.8547 0.85165 0.0
C2123 C 0.70105 0.88633 0.91842 0.0
N2124 N 0.66523 0.91087 0.88404 0.0
N2125 N 0.7137 0.83866 0.84044 0.0
H2126 H 0.7121 0.923 0.00255 0.0
H2127 H 0.72126 0.88506 0.96702 0.0
H2128 H 0.7144 0.81438 0.80332 0.0
H2129 H 0.72298 0.85094 0.85265 0.0
H2130 H 0.6567 0.90301 0.84701 0.0
H2131 H 0.66474 0.93757 0.90813 0.0
H2132 H 0.65572 0.84628 0.85679 0.0
H2133 H 0.66471 0.81038 0.80848 0.0
C2134 C 0.07267 0.91191 0.90988 0.0
C2135 C 0.06369 0.92118 0.83744 0.0
C2136 C 0.05336 0.86144 0.84305 0.0
C2137 C 0.06214 0.85209 0.91694 0.0
N2138 N 0.07769 0.87077 0.03628 0.0
N2139 N 0.04347 0.90928 0.75029 0.0
C2140 C 0.07102 0.87814 0.9556 0.0
C2141 C 0.05338 0.89734 0.8088 0.0
N2142 N 0.08296 0.9349 0.93295 0.0
N2143 N 0.04521 0.83579 0.80429 0.0
H2144 H 0.04326 0.93552 0.72298 0.0
H2145 H 0.03483 0.89435 0.73525 0.0
H2146 H 0.04439 0.80973 0.83113 0.0
H2147 H 0.03986 0.83967 0.74293 0.0
H2148 H 0.09074 0.92783 0.97778 0.0
H2149 H 0.08419 0.9604 0.90245 0.0
H2150 H 0.0834 0.88986 0.07221 0.0
H2151 H 0.07652 0.84636 0.07177 0.0
C2152 C 0.29723 0.63399 0.62222 0.0
C2153 C 0.30804 0.64552 0.67885 0.0
C2154 C 0.32141 0.59259 0.63566 0.0
C2155 C 0.31094 0.58251 0.57394 0.0
N2156 N 0.28965 0.59404 0.49923 0.0
N2157 N 0.32913 0.63423 0.75548 0.0
C2158 C 0.29897 0.60308 0.56528 0.0
C2159 C 0.31979 0.62428 0.6904 0.0
N2160 N 0.28527 0.65233 0.62481 0.0
N2161 N 0.33299 0.57238 0.63932 0.0
H2162 H 0.32792 0.65705 0.79771 0.0
H2163 H 0.3376 0.61908 0.77267 0.0
H2164 H 0.3343 0.54833 0.60207 0.0
H2165 H 0.34152 0.57959 0.67677 0.0
H2166 H 0.27658 0.64398 0.59067 0.0
H2167 H 0.28369 0.67435 0.66886 0.0
H2168 H 0.28146 0.61027 0.48171 0.0
H2169 H 0.29056 0.57124 0.4566 0.0
C2170 C 0.9307 0.62368 0.54632 0.0
C2171 C 0.9407 0.65012 0.57004 0.0
C2172 C 0.95133 0.60577 0.67476 0.0
C2173 C 0.94072 0.58141 0.65759 0.0
N2174 N 0.91915 0.56809 0.58969 0.0
N2175 N 0.95924 0.66714 0.66952 0.0
C2176 C 0.93012 0.59047 0.59645 0.0
C2177 C 0.95061 0.64131 0.63797 0.0
N2178 N 0.92161 0.62996 0.47711 0.0
N2179 N 0.96227 0.5947 0.72505 0.0
H2180 H 0.95984 0.69251 0.63956 0.0
H2181 H 0.96508 0.66403 0.72903 0.0
H2182 H 0.96304 0.56887 0.75441 0.0
H2183 H 0.97109 0.60987 0.73081 0.0
H2184 H 0.91568 0.6096 0.44792 0.0
H2185 H 0.92011 0.65496 0.44584 0.0
H2186 H 0.91025 0.5754 0.55642 0.0
H2187 H 0.91855 0.54297 0.62304 0.0
C2188 C 0.69299 0.38014 0.47431 0.0
C2189 C 0.685 0.40827 0.43632 0.0
C2190 C 0.68083 0.3717 0.2968 0.0
C2191 C 0.68945 0.344 0.33233 0.0
N2192 N 0.70569 0.32528 0.4471 0.0
N2193 N 0.67264 0.43359 0.30748 0.0
C2194 C 0.69602 0.34917 0.41919 0.0
C2195 C 0.67949 0.40505 0.34583 0.0
N2196 N 0.69774 0.38304 0.56319 0.0
N2197 N 0.67312 0.36539 0.2199 0.0
H2198 H 0.6699 0.45676 0.34458 0.0
H2199 H 0.67034 0.43542 0.23711 0.0
H2200 H 0.67263 0.34049 0.18613 0.0
H2201 H 0.66604 0.3836 0.19428 0.0
H2202 H 0.7021 0.36158 0.59935 0.0
H2203 H 0.69664 0.40639 0.6035 0.0
H2204 H 0.71204 0.32949 0.50351 0.0
H2205 H 0.7081 0.30239 0.40883 0.0
C2206 C 0.07021 0.34011 0.36496 0.0
C2207 C 0.05844 0.33399 0.41875 0.0
C2208 C 0.04826 0.38998 0.36203 0.0
C2209 C 0.06055 0.3979 0.31613 0.0
N2210 N 0.08162 0.37799 0.25167 0.0
N2211 N 0.03629 0.35127 0.47113 0.0
C2212 C 0.0711 0.37218 0.3112 0.0
C2213 C 0.04738 0.35822 0.41734 0.0
N2214 N 0.08061 0.31566 0.36775 0.0
N2215 N 0.0374 0.4123 0.3499 0.0
H2216 H 0.03519 0.32744 0.50963 0.0
H2217 H 0.02843 0.36954 0.48139 0.0
H2218 H 0.03765 0.43468 0.30565 0.0
H2219 H 0.02783 0.40719 0.37641 0.0
H2220 H 0.09001 0.31986 0.33764 0.0
H2221 H 0.08009 0.29108 0.40358 0.0
H2222 H 0.08943 0.3598 0.23967 0.0
H2223 H 0.0819 0.40028 0.20734 0.0
C2224 C 0.81745 0.11888 0.53742 0.0
C2225 C 0.80913 0.09282 0.58181 0.0
C2226 C 0.80259 0.13728 0.69997 0.0
C2227 C 0.81269 0.16075 0.66559 0.0
N2228 N 0.82894 0.1771 0.54818 0.0
N2229 N 0.79333 0.07654 0.7023 0.0
C2230 C 0.81974 0.15279 0.58215 0.0
C2231 C 0.8014 0.10202 0.6615 0.0
N2232 N 0.82326 0.11082 0.4536 0.0
N2233 N 0.79406 0.14909 0.76845 0.0
H2234 H 0.79231 0.05035 0.67609 0.0
H2235 H 0.7883 0.08038 0.76496 0.0
H2236 H 0.79473 0.17496 0.79769 0.0
H2237 H 0.7856 0.13481 0.79071 0.0
H2238 H 0.82867 0.12928 0.41358 0.0
H2239 H 0.8219 0.08592 0.42033 0.0
H2240 H 0.83531 0.17203 0.49224 0.0
H2241 H 0.83057 0.20249 0.57829 0.0
C2242 C 0.4449 0.14713 0.65709 0.0
C2243 C 0.43526 0.15507 0.58719 0.0
C2244 C 0.42653 0.09266 0.60029 0.0
C2245 C 0.43742 0.08414 0.65994 0.0
N2246 N 0.45797 0.10125 0.73659 0.0
N2247 N 0.41576 0.13632 0.49861 0.0
C2248 C 0.44689 0.11078 0.68575 0.0
C2249 C 0.42576 0.12797 0.56023 0.0
N2250 N 0.45169 0.17444 0.70008 0.0
N2251 N 0.41663 0.06744 0.58538 0.0
H2252 H 0.41329 0.16292 0.48064 0.0
H2253 H 0.40989 0.11697 0.46486 0.0
H2254 H 0.4171 0.04103 0.61145 0.0
H2255 H 0.40763 0.07288 0.55128 0.0
H2256 H 0.4575 0.17058 0.75946 0.0
H2257 H 0.45009 0.20145 0.68404 0.0
H2258 H 0.46602 0.11879 0.74863 0.0
H2259 H 0.4597 0.0748 0.75974 0.0
C2260 C 0.17882 0.89938 0.3837 0.0
C2261 C 0.19118 0.90964 0.42493 0.0
C2262 C 0.20245 0.85736 0.35383 0.0
C2263 C 0.18977 0.84501 0.32136 0.0
N2264 N 0.1655 0.85103 0.31707 0.0
N2265 N 0.2146 0.89815 0.45674 0.0
C2266 C 0.17784 0.86522 0.3391 0.0
C2267 C 0.203 0.88864 0.41186 0.0
N2268 N 0.16805 0.92259 0.38633 0.0
N2269 N 0.21393 0.83972 0.32718 0.0
H2270 H 0.2154 0.92167 0.49684 0.0
H2271 H 0.22316 0.88185 0.45865 0.0
H2272 H 0.21379 0.81677 0.28466 0.0
H2273 H 0.22359 0.8493 0.34102 0.0
H2274 H 0.15917 0.91829 0.34951 0.0
H2275 H 0.16842 0.94804 0.41808 0.0
H2276 H 0.15641 0.86274 0.33737 0.0
H2277 H 0.16421 0.82574 0.28577 0.0
C2278 C 0.57233 0.84619 0.34756 0.0
C2279 C 0.56114 0.83438 0.4009 0.0
C2280 C 0.54816 0.88762 0.35491 0.0
C2281 C 0.56001 0.90215 0.31436 0.0
N2282 N 0.58266 0.8948 0.25787 0.0
N2283 N 0.53856 0.84285 0.45904 0.0
C2284 C 0.5719 0.8811 0.30591 0.0
C2285 C 0.54899 0.85445 0.40426 0.0
N2286 N 0.58328 0.8239 0.33763 0.0
N2287 N 0.53615 0.90542 0.34585 0.0
H2288 H 0.53868 0.81814 0.4945 0.0
H2289 H 0.53012 0.85859 0.47423 0.0
H2290 H 0.5352 0.93027 0.31196 0.0
H2291 H 0.52692 0.89432 0.36546 0.0
H2292 H 0.5918 0.83006 0.2987 0.0
H2293 H 0.58362 0.79775 0.36546 0.0
H2294 H 0.59198 0.88215 0.25151 0.0
H2295 H 0.58225 0.9196 0.22316 0.0
C2296 C 0.82041 0.63598 0.15347 0.0
C2297 C 0.80766 0.65268 0.16753 0.0
C2298 C 0.79661 0.60358 0.08205 0.0
C2299 C 0.80926 0.58644 0.07042 0.0
N2300 N 0.83253 0.58076 0.11553 0.0
N2301 N 0.78355 0.64713 0.16979 0.0
C2302 C 0.82098 0.60097 0.11235 0.0
C2303 C 0.79572 0.63494 0.13906 0.0
N2304 N 0.83197 0.65383 0.17748 0.0
N2305 N 0.78555 0.59079 0.03611 0.0
H2306 H 0.78258 0.66998 0.21218 0.0
H2307 H 0.77471 0.63225 0.16142 0.0
H2308 H 0.78577 0.56744 -0.00497 0.0
H2309 H 0.77644 0.60482 0.03353 0.0
H2310 H 0.84157 0.64463 0.15992 0.0
H2311 H 0.83202 0.67929 0.20918 0.0
H2312 H 0.84096 0.58815 0.15409 0.0
H2313 H 0.83324 0.55477 0.08696 0.0
C2314 C 0.43012 0.62229 0.20285 0.0
C2315 C 0.44072 0.59958 0.17169 0.0
C2316 C 0.44763 0.64515 0.05754 0.0
C2317 C 0.43566 0.66455 0.07763 0.0
N2318 N 0.41628 0.67563 0.17466 0.0
N2319 N 0.46086 0.59037 0.08173 0.0
C2320 C 0.42724 0.65466 0.15314 0.0
C2321 C 0.45 0.6116 0.10342 0.0
N2322 N 0.42294 0.61264 0.27997 0.0
N2323 N 0.45667 0.65919 -0.00468 0.0
H2324 H 0.46323 0.56699 0.1192 0.0
H2325 H 0.46745 0.59533 0.02694 0.0
H2326 H 0.45517 0.68408 0.96225 0.0
H2327 H 0.46603 0.64781 0.98071 0.0
H2328 H 0.41532 0.62815 0.30984 0.0
H2329 H 0.42547 0.59001 0.31943 0.0
H2330 H 0.40901 0.66874 0.22365 0.0
H2331 H 0.41421 0.70016 0.1414 0.0
C2332 C 0.19542 0.3623 0.79364 0.0
C2333 C 0.18686 0.33537 0.8308 0.0
C2334 C 0.17841 0.37811 0.94738 0.0
C2335 C 0.18586 0.40615 0.90323 0.0
N2336 N 0.20005 0.42613 0.77691 0.0
N2337 N 0.16904 0.3174 0.93523 0.0
C2338 C 0.19397 0.39857 0.82423 0.0
C2339 C 0.17805 0.34309 0.90595 0.0
N2340 N 0.20515 0.35302 0.7304 0.0
N2341 N 0.17168 0.38495 0.02851 0.0
H2342 H 0.16877 0.29115 0.90792 0.0
H2343 H 0.16132 0.32264 0.98243 0.0
H2344 H 0.17122 0.41065 0.05876 0.0
H2345 H 0.16732 0.36472 0.0692 0.0
H2346 H 0.21269 0.37074 0.70849 0.0
H2347 H 0.20645 0.32655 0.70606 0.0
H2348 H 0.20467 0.42292 0.7124 0.0
H2349 H 0.19962 0.45287 0.79934 0.0
C2350 C 0.54755 0.34575 0.90708 0.0
C2351 C 0.56022 0.32964 0.88942 0.0
C2352 C 0.56564 0.37687 0.77633 0.0
C2353 C 0.55404 0.39601 0.80557 0.0
N2354 N 0.53367 0.39956 0.89561 0.0
N2355 N 0.58198 0.33041 0.81379 0.0
C2356 C 0.54478 0.38038 0.86897 0.0
C2357 C 0.56938 0.34491 0.82444 0.0
N2358 N 0.53829 0.32797 0.96083 0.0
N2359 N 0.57311 0.38959 0.70343 0.0
H2360 H 0.58507 0.30662 0.84675 0.0
H2361 H 0.58965 0.34302 0.77639 0.0
H2362 H 0.57045 0.41295 0.66684 0.0
H2363 H 0.58108 0.37531 0.6737 0.0
H2364 H 0.52837 0.33655 0.96937 0.0
H2365 H 0.54023 0.30281 0.99138 0.0
H2366 H 0.52728 0.39207 0.9497 0.0
H2367 H 0.53123 0.42423 0.86496 0.0
loop_
_geom_bond_atom_site_label_1
_geom_bond_atom_site_label_2
_geom_bond_distance
_geom_bond_site_symmetry_2
_ccdc_geom_bond_type
Zn0 O6 1.969 . S
Zn0 O7 1.965 . S
Zn0 O11 2.024 . S
Zn0 O16 1.969 . S
Zn1 O8 1.969 . S
Zn1 O14 1.969 1_554 S
Zn1 O15 1.965 . S
Zn1 O17 2.024 . S
C2 O3 1.229 . S
C2 O11 1.058 . S
O3 C2 1.229 . S
C4 O5 1.229 . S
C4 O17 1.058 . S
O5 C4 1.229 . S
O6 Zn0 1.969 . S
O6 C9 1.267 . S
O7 Zn0 1.965 . S
O7 C18 1.260 . S
O8 Zn1 1.969 . S
O8 C18 1.258 . S
C9 O6 1.267 . S
C9 O10 1.228 . S
O10 C9 1.228 . S
O11 Zn0 2.024 . S
O11 C2 1.058 . S
C12 O13 1.228 . S
C12 O14 1.267 . S
O13 C12 1.228 . S
O14 Zn1 1.969 1_556 S
O14 C12 1.267 . S
O15 Zn1 1.965 . S
O15 C19 1.260 . S
O16 Zn0 1.969 . S
O16 C19 1.258 . S
O17 Zn1 2.024 . S
O17 C4 1.058 . S
C18 O7 1.260 . S
C18 O8 1.258 . S
C19 O15 1.260 . S
C19 O16 1.258 . S
Zn20 O26 1.969 . S
Zn20 O27 1.965 1_545 S
Zn20 O31 2.024 1_545 S
Zn20 O36 1.969 . S
Zn21 O28 1.969 . S
Zn21 O34 1.969 1_554 S
Zn21 O35 1.965 1_565 S
Zn21 O37 2.024 1_565 S
C22 O23 1.229 . S
C22 O31 1.058 1_545 S
O23 C22 1.229 . S
C24 O25 1.229 . S
C24 O37 1.058 1_565 S
O25 C24 1.229 . S
O26 Zn20 1.969 . S
O26 C29 1.267 . S
O27 Zn20 1.965 1_565 S
O27 C38 1.260 . S
O28 Zn21 1.969 . S
O28 C38 1.258 . S
C29 O26 1.267 . S
C29 O30 1.228 1_545 S
O30 C29 1.228 1_565 S
O31 Zn20 2.024 1_565 S
O31 C22 1.058 1_565 S
C32 O33 1.228 1_565 S
C32 O34 1.267 . S
O33 C32 1.228 1_545 S
O34 Zn21 1.969 1_556 S
O34 C32 1.267 . S
O35 Zn21 1.965 1_545 S
O35 C39 1.260 . S
O36 Zn20 1.969 . S
O36 C39 1.258 . S
O37 Zn21 2.024 1_545 S
O37 C24 1.058 1_545 S
C38 O27 1.260 . S
C38 O28 1.258 . S
C39 O35 1.260 . S
C39 O36 1.258 . S
Zn40 O46 1.969 . S
Zn40 O47 1.965 1_545 S
Zn40 O51 2.024 1_545 S
Zn40 O56 1.969 . S
Zn41 O48 1.969 . S
Zn41 O54 1.969 . S
Zn41 O55 1.965 1_565 S
Zn41 O57 2.024 1_565 S
C42 O43 1.229 . S
C42 O51 1.058 1_545 S
O43 C42 1.229 . S
C44 O45 1.229 . S
C44 O57 1.058 1_565 S
O45 C44 1.229 . S
O46 Zn40 1.969 . S
O46 C49 1.267 . S
O47 Zn40 1.965 1_565 S
O47 C58 1.260 . S
O48 Zn41 1.969 . S
O48 C58 1.258 1_554 S
C49 O46 1.267 . S
C49 O50 1.228 1_545 S
O50 C49 1.228 1_565 S
O51 Zn40 2.024 1_565 S
O51 C42 1.058 1_565 S
C52 O53 1.228 1_565 S
C52 O54 1.267 . S
O53 C52 1.228 1_545 S
O54 Zn41 1.969 . S
O54 C52 1.267 . S
O55 Zn41 1.965 1_545 S
O55 C59 1.260 . S
O56 Zn40 1.969 . S
O56 C59 1.258 1_556 S
O57 Zn41 2.024 1_545 S
O57 C44 1.058 1_545 S
C58 O47 1.260 . S
C58 O48 1.258 1_556 S
C59 O55 1.260 . S
C59 O56 1.258 1_554 S
Zn60 O66 1.969 . S
Zn60 O67 1.965 . S
Zn60 O71 2.024 . S
Zn60 O76 1.969 . S
Zn61 O68 1.969 . S
Zn61 O74 1.969 . S
Zn61 O75 1.965 . S
Zn61 O77 2.024 . S
C62 O63 1.229 . S
C62 O71 1.058 . S
O63 C62 1.229 . S
C64 O65 1.229 . S
C64 O77 1.058 . S
O65 C64 1.229 . S
O66 Zn60 1.969 . S
O66 C69 1.267 . S
O67 Zn60 1.965 . S
O67 C78 1.260 . S
O68 Zn61 1.969 . S
O68 C78 1.258 1_554 S
C69 O66 1.267 . S
C69 O70 1.228 . S
O70 C69 1.228 . S
O71 Zn60 2.024 . S
O71 C62 1.058 . S
C72 O73 1.228 . S
C72 O74 1.267 . S
O73 C72 1.228 . S
O74 Zn61 1.969 . S
O74 C72 1.267 . S
O75 Zn61 1.965 . S
O75 C79 1.260 . S
O76 Zn60 1.969 . S
O76 C79 1.258 1_556 S
O77 Zn61 2.024 . S
O77 C64 1.058 . S
C78 O67 1.260 . S
C78 O68 1.258 1_556 S
C79 O75 1.260 . S
C79 O76 1.258 1_554 S
Zn80 O86 1.969 1_556 S
Zn80 O87 1.965 . S
Zn80 O91 2.024 . S
Zn80 O96 1.969 . S
Zn81 O88 1.969 . S
Zn81 O94 1.969 . S
Zn81 O95 1.965 . S
Zn81 O97 2.024 . S
C82 O83 1.229 . S
C82 O91 1.058 . S
O83 C82 1.229 . S
C84 O85 1.229 . S
C84 O97 1.058 . S
O85 C84 1.229 . S
O86 Zn80 1.969 1_554 S
O86 C89 1.267 . S
O87 Zn80 1.965 . S
O87 C98 1.260 . S
O88 Zn81 1.969 . S
O88 C98 1.258 . S
C89 O86 1.267 . S
C89 O90 1.228 . S
O90 C89 1.228 . S
O91 Zn80 2.024 . S
O91 C82 1.058 . S
C92 O93 1.228 . S
C92 O94 1.267 . S
O93 C92 1.228 . S
O94 Zn81 1.969 . S
O94 C92 1.267 . S
O95 Zn81 1.965 . S
O95 C99 1.260 . S
O96 Zn80 1.969 . S
O96 C99 1.258 . S
O97 Zn81 2.024 . S
O97 C84 1.058 . S
C98 O87 1.260 . S
C98 O88 1.258 . S
C99 O95 1.260 . S
C99 O96 1.258 . S
Zn100 O106 1.969 1_556 S
Zn100 O107 1.965 1_545 S
Zn100 O111 2.024 1_545 S
Zn100 O116 1.969 . S
Zn101 O108 1.969 . S
Zn101 O114 1.969 . S
Zn101 O115 1.965 1_565 S
Zn101 O117 2.024 1_565 S
C102 O103 1.229 . S
C102 O111 1.058 1_545 S
O103 C102 1.229 . S
C104 O105 1.229 . S
C104 O117 1.058 1_565 S
O105 C104 1.229 . S
O106 Zn100 1.969 1_554 S
O106 C109 1.267 . S
O107 Zn100 1.965 1_565 S
O107 C118 1.260 . S
O108 Zn101 1.969 . S
O108 C118 1.258 . S
C109 O106 1.267 . S
C109 O110 1.228 1_545 S
O110 C109 1.228 1_565 S
O111 Zn100 2.024 1_565 S
O111 C102 1.058 1_565 S
C112 O113 1.228 1_565 S
C112 O114 1.267 . S
O113 C112 1.228 1_545 S
O114 Zn101 1.969 . S
O114 C112 1.267 . S
O115 Zn101 1.965 1_545 S
O115 C119 1.260 . S
O116 Zn100 1.969 . S
O116 C119 1.258 . S
O117 Zn101 2.024 1_545 S
O117 C104 1.058 1_545 S
C118 O107 1.260 . S
C118 O108 1.258 . S
C119 O115 1.260 . S
C119 O116 1.258 . S
Zn120 O126 1.969 . S
Zn120 O127 1.965 1_545 S
Zn120 O131 2.024 1_545 S
Zn120 O136 1.969 . S
Zn121 O128 1.969 . S
Zn121 O134 1.969 . S
Zn121 O135 1.965 1_565 S
Zn121 O137 2.024 1_565 S
C122 O123 1.229 . S
C122 O131 1.058 1_545 S
O123 C122 1.229 . S
C124 O125 1.229 . S
C124 O137 1.058 1_565 S
O125 C124 1.229 . S
O126 Zn120 1.969 . S
O126 C129 1.267 . S
O127 Zn120 1.965 1_565 S
O127 C138 1.260 . S
O128 Zn121 1.969 . S
O128 C138 1.258 1_554 S
C129 O126 1.267 . S
C129 O130 1.228 1_545 S
O130 C129 1.228 1_565 S
O131 Zn120 2.024 1_565 S
O131 C122 1.058 1_565 S
C132 O133 1.228 1_565 S
C132 O134 1.267 . S
O133 C132 1.228 1_545 S
O134 Zn121 1.969 . S
O134 C132 1.267 . S
O135 Zn121 1.965 1_545 S
O135 C139 1.260 . S
O136 Zn120 1.969 . S
O136 C139 1.258 1_556 S
O137 Zn121 2.024 1_545 S
O137 C124 1.058 1_545 S
C138 O127 1.260 . S
C138 O128 1.258 1_556 S
C139 O135 1.260 . S
C139 O136 1.258 1_554 S
Zn140 O146 1.969 . S
Zn140 O147 1.965 . S
Zn140 O151 2.024 . S
Zn140 O156 1.969 . S
Zn141 O148 1.969 . S
Zn141 O154 1.969 . S
Zn141 O155 1.965 . S
Zn141 O157 2.024 . S
C142 O143 1.229 . S
C142 O151 1.058 . S
O143 C142 1.229 . S
C144 O145 1.229 . S
C144 O157 1.058 . S
O145 C144 1.229 . S
O146 Zn140 1.969 . S
O146 C149 1.267 . S
O147 Zn140 1.965 . S
O147 C158 1.260 . S
O148 Zn141 1.969 . S
O148 C158 1.258 1_554 S
C149 O146 1.267 . S
C149 O150 1.228 . S
O150 C149 1.228 . S
O151 Zn140 2.024 . S
O151 C142 1.058 . S
C152 O153 1.228 . S
C152 O154 1.267 . S
O153 C152 1.228 . S
O154 Zn141 1.969 . S
O154 C152 1.267 . S
O155 Zn141 1.965 . S
O155 C159 1.260 . S
O156 Zn140 1.969 . S
O156 C159 1.258 1_556 S
O157 Zn141 2.024 . S
O157 C144 1.058 . S
C158 O147 1.260 . S
C158 O148 1.258 1_556 S
C159 O155 1.260 . S
C159 O156 1.258 1_554 S
Zn160 O166 1.969 . S
Zn160 O167 1.965 . S
Zn160 O171 2.024 . S
Zn160 O176 1.969 . S
Zn161 O168 1.969 . S
Zn161 O174 1.969 . S
Zn161 O175 1.965 . S
Zn161 O177 2.024 . S
C162 O163 1.229 . S
C162 O171 1.058 . S
O163 C162 1.229 . S
C164 O165 1.229 . S
C164 O177 1.058 . S
O165 C164 1.229 . S
O166 Zn160 1.969 . S
O166 C169 1.267 1_556 S
O167 Zn160 1.965 . S
O167 C178 1.260 . S
O168 Zn161 1.969 . S
O168 C178 1.258 . S
C169 O166 1.267 1_554 S
C169 O170 1.228 . S
O170 C169 1.228 . S
O171 Zn160 2.024 . S
O171 C162 1.058 . S
C172 O173 1.228 . S
C172 O174 1.267 . S
O173 C172 1.228 . S
O174 Zn161 1.969 . S
O174 C172 1.267 . S
O175 Zn161 1.965 . S
O175 C179 1.260 . S
O176 Zn160 1.969 . S
O176 C179 1.258 . S
O177 Zn161 2.024 . S
O177 C164 1.058 . S
C178 O167 1.260 . S
C178 O168 1.258 . S
C179 O175 1.260 . S
C179 O176 1.258 . S
Zn180 O186 1.969 . S
Zn180 O187 1.965 . S
Zn180 O191 2.024 . S
Zn180 O196 1.969 . S
Zn181 O188 1.969 . S
Zn181 O194 1.969 . S
Zn181 O195 1.965 . S
Zn181 O197 2.024 . S
C182 O183 1.229 . S
C182 O191 1.058 . S
O183 C182 1.229 . S
C184 O185 1.229 . S
C184 O197 1.058 . S
O185 C184 1.229 . S
O186 Zn180 1.969 . S
O186 C189 1.267 1_556 S
O187 Zn180 1.965 . S
O187 C198 1.260 . S
O188 Zn181 1.969 . S
O188 C198 1.258 . S
C189 O186 1.267 1_554 S
C189 O190 1.228 . S
O190 C189 1.228 . S
O191 Zn180 2.024 . S
O191 C182 1.058 . S
C192 O193 1.228 . S
C192 O194 1.267 . S
O193 C192 1.228 . S
O194 Zn181 1.969 . S
O194 C192 1.267 . S
O195 Zn181 1.965 . S
O195 C199 1.260 . S
O196 Zn180 1.969 . S
O196 C199 1.258 . S
O197 Zn181 2.024 . S
O197 C184 1.058 . S
C198 O187 1.260 . S
C198 O188 1.258 . S
C199 O195 1.260 . S
C199 O196 1.258 . S
Zn200 O206 1.969 . S
Zn200 O207 1.965 . S
Zn200 O211 2.024 . S
Zn200 O216 1.969 . S
Zn201 O208 1.969 . S
Zn201 O214 1.969 . S
Zn201 O215 1.965 . S
Zn201 O217 2.024 . S
C202 O203 1.229 . S
C202 O211 1.058 . S
O203 C202 1.229 . S
C204 O205 1.229 . S
C204 O217 1.058 . S
O205 C204 1.229 . S
O206 Zn200 1.969 . S
O206 C209 1.267 . S
O207 Zn200 1.965 . S
O207 C218 1.260 . S
O208 Zn201 1.969 . S
O208 C218 1.258 . S
C209 O206 1.267 . S
C209 O210 1.228 . S
O210 C209 1.228 . S
O211 Zn200 2.024 . S
O211 C202 1.058 . S
C212 O213 1.228 . S
C212 O214 1.267 . S
O213 C212 1.228 . S
O214 Zn201 1.969 . S
O214 C212 1.267 . S
O215 Zn201 1.965 . S
O215 C219 1.260 . S
O216 Zn200 1.969 . S
O216 C219 1.258 . S
O217 Zn201 2.024 . S
O217 C204 1.058 . S
C218 O207 1.260 . S
C218 O208 1.258 . S
C219 O215 1.260 . S
C219 O216 1.258 . S
Zn220 O226 1.969 . S
Zn220 O227 1.965 . S
Zn220 O231 2.024 . S
Zn220 O236 1.969 . S
Zn221 O228 1.969 . S
Zn221 O234 1.969 . S
Zn221 O235 1.965 . S
Zn221 O237 2.024 . S
C222 O223 1.229 . S
C222 O231 1.058 . S
O223 C222 1.229 . S
C224 O225 1.229 . S
C224 O237 1.058 . S
O225 C224 1.229 . S
O226 Zn220 1.969 . S
O226 C229 1.267 . S
O227 Zn220 1.965 . S
O227 C238 1.260 . S
O228 Zn221 1.969 . S
O228 C238 1.258 . S
C229 O226 1.267 . S
C229 O230 1.228 . S
O230 C229 1.228 . S
O231 Zn220 2.024 . S
O231 C222 1.058 . S
C232 O233 1.228 . S
C232 O234 1.267 . S
O233 C232 1.228 . S
O234 Zn221 1.969 . S
O234 C232 1.267 . S
O235 Zn221 1.965 . S
O235 C239 1.260 . S
O236 Zn220 1.969 . S
O236 C239 1.258 . S
O237 Zn221 2.024 . S
O237 C224 1.058 . S
C238 O227 1.260 . S
C238 O228 1.258 . S
C239 O235 1.260 . S
C239 O236 1.258 . S
Zn240 O246 1.969 . S
Zn240 O247 1.965 . S
Zn240 O251 2.024 . S
Zn240 O256 1.969 . S
Zn241 O248 1.969 . S
Zn241 O254 1.969 . S
Zn241 O255 1.965 . S
Zn241 O257 2.024 . S
C242 O243 1.229 . S
C242 O251 1.058 . S
O243 C242 1.229 . S
C244 O245 1.229 . S
C244 O257 1.058 . S
O245 C244 1.229 . S
O246 Zn240 1.969 . S
O246 C249 1.267 . S
O247 Zn240 1.965 . S
O247 C258 1.260 . S
O248 Zn241 1.969 . S
O248 C258 1.258 . S
C249 O246 1.267 . S
C249 O250 1.228 . S
O250 C249 1.228 . S
O251 Zn240 2.024 . S
O251 C242 1.058 . S
C252 O253 1.228 . S
C252 O254 1.267 1_556 S
O253 C252 1.228 . S
O254 Zn241 1.969 . S
O254 C252 1.267 1_554 S
O255 Zn241 1.965 . S
O255 C259 1.260 . S
O256 Zn240 1.969 . S
O256 C259 1.258 . S
O257 Zn241 2.024 . S
O257 C244 1.058 . S
C258 O247 1.260 . S
C258 O248 1.258 . S
C259 O255 1.260 . S
C259 O256 1.258 . S
Zn260 O266 1.969 . S
Zn260 O267 1.965 . S
Zn260 O271 2.024 . S
Zn260 O276 1.969 . S
Zn261 O268 1.969 . S
Zn261 O274 1.969 . S
Zn261 O275 1.965 . S
Zn261 O277 2.024 . S
C262 O263 1.229 . S
C262 O271 1.058 . S
O263 C262 1.229 . S
C264 O265 1.229 . S
C264 O277 1.058 . S
O265 C264 1.229 . S
O266 Zn260 1.969 . S
O266 C269 1.267 . S
O267 Zn260 1.965 . S
O267 C278 1.260 . S
O268 Zn261 1.969 . S
O268 C278 1.258 . S
C269 O266 1.267 . S
C269 O270 1.228 . S
O270 C269 1.228 . S
O271 Zn260 2.024 . S
O271 C262 1.058 . S
C272 O273 1.228 . S
C272 O274 1.267 1_556 S
O273 C272 1.228 . S
O274 Zn261 1.969 . S
O274 C272 1.267 1_554 S
O275 Zn261 1.965 . S
O275 C279 1.260 . S
O276 Zn260 1.969 . S
O276 C279 1.258 . S
O277 Zn261 2.024 . S
O277 C264 1.058 . S
C278 O267 1.260 . S
C278 O268 1.258 . S
C279 O275 1.260 . S
C279 O276 1.258 . S
Zn280 O286 1.969 . S
Zn280 O287 1.965 . S
Zn280 O291 2.024 . S
Zn280 O296 1.969 . S
Zn281 O288 1.969 . S
Zn281 O294 1.969 . S
Zn281 O295 1.965 . S
Zn281 O297 2.024 . S
C282 O283 1.229 . S
C282 O291 1.058 . S
O283 C282 1.229 . S
C284 O285 1.229 . S
C284 O297 1.058 . S
O285 C284 1.229 . S
O286 Zn280 1.969 . S
O286 C289 1.267 . S
O287 Zn280 1.965 . S
O287 C298 1.260 . S
O288 Zn281 1.969 . S
O288 C298 1.258 . S
C289 O286 1.267 . S
C289 O290 1.228 . S
O290 C289 1.228 . S
O291 Zn280 2.024 . S
O291 C282 1.058 . S
C292 O293 1.228 . S
C292 O294 1.267 . S
O293 C292 1.228 . S
O294 Zn281 1.969 . S
O294 C292 1.267 . S
O295 Zn281 1.965 . S
O295 C299 1.260 . S
O296 Zn280 1.969 . S
O296 C299 1.258 . S
O297 Zn281 2.024 . S
O297 C284 1.058 . S
C298 O287 1.260 . S
C298 O288 1.258 . S
C299 O295 1.260 . S
C299 O296 1.258 . S
Zn300 O306 1.969 . S
Zn300 O307 1.965 . S
Zn300 O311 2.024 . S
Zn300 O316 1.969 . S
Zn301 O308 1.969 . S
Zn301 O314 1.969 . S
Zn301 O315 1.965 . S
Zn301 O317 2.024 . S
C302 O303 1.229 . S
C302 O311 1.058 . S
O303 C302 1.229 . S
C304 O305 1.229 . S
C304 O317 1.058 . S
O305 C304 1.229 . S
O306 Zn300 1.969 . S
O306 C309 1.267 . S
O307 Zn300 1.965 . S
O307 C318 1.260 . S
O308 Zn301 1.969 . S
O308 C318 1.258 . S
C309 O306 1.267 . S
C309 O310 1.228 . S
O310 C309 1.228 . S
O311 Zn300 2.024 . S
O311 C302 1.058 . S
C312 O313 1.228 . S
C312 O314 1.267 . S
O313 C312 1.228 . S
O314 Zn301 1.969 . S
O314 C312 1.267 . S
O315 Zn301 1.965 . S
O315 C319 1.260 . S
O316 Zn300 1.969 . S
O316 C319 1.258 . S
O317 Zn301 2.024 . S
O317 C304 1.058 . S
C318 O307 1.260 . S
C318 O308 1.258 . S
C319 O315 1.260 . S
C319 O316 1.258 . S
Zn320 O326 1.969 . S
Zn320 O327 1.965 . S
Zn320 O331 2.024 . S
Zn320 O336 1.969 . S
Zn321 O328 1.969 . S
Zn321 O334 1.969 . S
Zn321 O335 1.965 . S
Zn321 O337 2.024 . S
C322 O323 1.229 . S
C322 O331 1.058 . S
O323 C322 1.229 . S
C324 O325 1.229 . S
C324 O337 1.058 . S
O325 C324 1.229 . S
O326 Zn320 1.969 . S
O326 C329 1.267 1_556 S
O327 Zn320 1.965 . S
O327 C338 1.260 . S
O328 Zn321 1.969 . S
O328 C338 1.258 . S
C329 O326 1.267 1_554 S
C329 O330 1.228 . S
O330 C329 1.228 . S
O331 Zn320 2.024 . S
O331 C322 1.058 . S
C332 O333 1.228 . S
C332 O334 1.267 . S
O333 C332 1.228 . S
O334 Zn321 1.969 . S
O334 C332 1.267 . S
O335 Zn321 1.965 . S
O335 C339 1.260 . S
O336 Zn320 1.969 . S
O336 C339 1.258 . S
O337 Zn321 2.024 . S
O337 C324 1.058 . S
C338 O327 1.260 . S
C338 O328 1.258 . S
C339 O335 1.260 . S
C339 O336 1.258 . S
Zn340 O346 1.969 . S
Zn340 O347 1.965 1_545 S
Zn340 O351 2.024 1_545 S
Zn340 O356 1.969 . S
Zn341 O348 1.969 . S
Zn341 O354 1.969 . S
Zn341 O355 1.965 1_565 S
Zn341 O357 2.024 1_565 S
C342 O343 1.229 . S
C342 O351 1.058 1_545 S
O343 C342 1.229 . S
C344 O345 1.229 . S
C344 O357 1.058 1_565 S
O345 C344 1.229 . S
O346 Zn340 1.969 . S
O346 C349 1.267 1_556 S
O347 Zn340 1.965 1_565 S
O347 C358 1.260 . S
O348 Zn341 1.969 . S
O348 C358 1.258 . S
C349 O346 1.267 1_554 S
C349 O350 1.228 1_545 S
O350 C349 1.228 1_565 S
O351 Zn340 2.024 1_565 S
O351 C342 1.058 1_565 S
C352 O353 1.228 1_565 S
C352 O354 1.267 . S
O353 C352 1.228 1_545 S
O354 Zn341 1.969 . S
O354 C352 1.267 . S
O355 Zn341 1.965 1_545 S
O355 C359 1.260 . S
O356 Zn340 1.969 . S
O356 C359 1.258 . S
O357 Zn341 2.024 1_545 S
O357 C344 1.058 1_545 S
C358 O347 1.260 . S
C358 O348 1.258 . S
C359 O355 1.260 . S
C359 O356 1.258 . S
Zn360 O366 1.969 . S
Zn360 O367 1.965 1_545 S
Zn360 O371 2.024 1_545 S
Zn360 O376 1.969 . S
Zn361 O368 1.969 . S
Zn361 O374 1.969 . S
Zn361 O375 1.965 1_565 S
Zn361 O377 2.024 1_565 S
C362 O363 1.229 . S
C362 O371 1.058 1_545 S
O363 C362 1.229 . S
C364 O365 1.229 . S
C364 O377 1.058 1_565 S
O365 C364 1.229 . S
O366 Zn360 1.969 . S
O366 C369 1.267 . S
O367 Zn360 1.965 1_565 S
O367 C378 1.260 . S
O368 Zn361 1.969 . S
O368 C378 1.258 . S
C369 O366 1.267 . S
C369 O370 1.228 1_545 S
O370 C369 1.228 1_565 S
O371 Zn360 2.024 1_565 S
O371 C362 1.058 1_565 S
C372 O373 1.228 1_565 S
C372 O374 1.267 . S
O373 C372 1.228 1_545 S
O374 Zn361 1.969 . S
O374 C372 1.267 . S
O375 Zn361 1.965 1_545 S
O375 C379 1.260 . S
O376 Zn360 1.969 . S
O376 C379 1.258 . S
O377 Zn361 2.024 1_545 S
O377 C364 1.058 1_545 S
C378 O367 1.260 . S
C378 O368 1.258 . S
C379 O375 1.260 . S
C379 O376 1.258 . S
Zn380 O386 1.969 . S
Zn380 O387 1.965 . S
Zn380 O391 2.024 . S
Zn380 O396 1.969 . S
Zn381 O388 1.969 . S
Zn381 O394 1.969 . S
Zn381 O395 1.965 . S
Zn381 O397 2.024 . S
C382 O383 1.229 . S
C382 O391 1.058 . S
O383 C382 1.229 . S
C384 O385 1.229 . S
C384 O397 1.058 . S
O385 C384 1.229 . S
O386 Zn380 1.969 . S
O386 C389 1.267 . S
O387 Zn380 1.965 . S
O387 C398 1.260 . S
O388 Zn381 1.969 . S
O388 C398 1.258 . S
C389 O386 1.267 . S
C389 O390 1.228 . S
O390 C389 1.228 . S
O391 Zn380 2.024 . S
O391 C382 1.058 . S
C392 O393 1.228 . S
C392 O394 1.267 . S
O393 C392 1.228 . S
O394 Zn381 1.969 . S
O394 C392 1.267 . S
O395 Zn381 1.965 . S
O395 C399 1.260 . S
O396 Zn380 1.969 . S
O396 C399 1.258 . S
O397 Zn381 2.024 . S
O397 C384 1.058 . S
C398 O387 1.260 . S
C398 O388 1.258 . S
C399 O395 1.260 . S
C399 O396 1.258 . S
Zn400 O406 1.969 . S
Zn400 O407 1.965 . S
Zn400 O411 2.024 . S
Zn400 O416 1.969 . S
Zn401 O408 1.969 . S
Zn401 O414 1.969 . S
Zn401 O415 1.965 . S
Zn401 O417 2.024 . S
C402 O403 1.229 . S
C402 O411 1.058 . S
O403 C402 1.229 . S
C404 O405 1.229 . S
C404 O417 1.058 . S
O405 C404 1.229 . S
O406 Zn400 1.969 . S
O406 C409 1.267 . S
O407 Zn400 1.965 . S
O407 C418 1.260 . S
O408 Zn401 1.969 . S
O408 C418 1.258 . S
C409 O406 1.267 . S
C409 O410 1.228 . S
O410 C409 1.228 . S
O411 Zn400 2.024 . S
O411 C402 1.058 . S
C412 O413 1.228 . S
C412 O414 1.267 1_556 S
O413 C412 1.228 . S
O414 Zn401 1.969 . S
O414 C412 1.267 1_554 S
O415 Zn401 1.965 . S
O415 C419 1.260 . S
O416 Zn400 1.969 . S
O416 C419 1.258 . S
O417 Zn401 2.024 . S
O417 C404 1.058 . S
C418 O407 1.260 . S
C418 O408 1.258 . S
C419 O415 1.260 . S
C419 O416 1.258 . S
Zn420 O426 1.969 . S
Zn420 O427 1.965 1_545 S
Zn420 O431 2.024 1_545 S
Zn420 O436 1.969 . S
Zn421 O428 1.969 . S
Zn421 O434 1.969 . S
Zn421 O435 1.965 1_565 S
Zn421 O437 2.024 1_565 S
C422 O423 1.229 . S
C422 O431 1.058 1_545 S
O423 C422 1.229 . S
C424 O425 1.229 . S
C424 O437 1.058 1_565 S
O425 C424 1.229 . S
O426 Zn420 1.969 . S
O426 C429 1.267 . S
O427 Zn420 1.965 1_565 S
O427 C438 1.260 . S
O428 Zn421 1.969 . S
O428 C438 1.258 . S
C429 O426 1.267 . S
C429 O430 1.228 1_545 S
O430 C429 1.228 1_565 S
O431 Zn420 2.024 1_565 S
O431 C422 1.058 1_565 S
C432 O433 1.228 1_565 S
C432 O434 1.267 1_556 S
O433 C432 1.228 1_545 S
O434 Zn421 1.969 . S
O434 C432 1.267 1_554 S
O435 Zn421 1.965 1_545 S
O435 C439 1.260 . S
O436 Zn420 1.969 . S
O436 C439 1.258 . S
O437 Zn421 2.024 1_545 S
O437 C424 1.058 1_545 S
C438 O427 1.260 . S
C438 O428 1.258 . S
C439 O435 1.260 . S
C439 O436 1.258 . S
Zn440 O446 1.969 . S
Zn440 O447 1.965 1_545 S
Zn440 O451 2.024 1_545 S
Zn440 O456 1.969 . S
Zn441 O448 1.969 . S
Zn441 O454 1.969 . S
Zn441 O455 1.965 1_565 S
Zn441 O457 2.024 1_565 S
C442 O443 1.229 . S
C442 O451 1.058 1_545 S
O443 C442 1.229 . S
C444 O445 1.229 . S
C444 O457 1.058 1_565 S
O445 C444 1.229 . S
O446 Zn440 1.969 . S
O446 C449 1.267 . S
O447 Zn440 1.965 1_565 S
O447 C458 1.260 . S
O448 Zn441 1.969 . S
O448 C458 1.258 . S
C449 O446 1.267 . S
C449 O450 1.228 1_545 S
O450 C449 1.228 1_565 S
O451 Zn440 2.024 1_565 S
O451 C442 1.058 1_565 S
C452 O453 1.228 1_565 S
C452 O454 1.267 . S
O453 C452 1.228 1_545 S
O454 Zn441 1.969 . S
O454 C452 1.267 . S
O455 Zn441 1.965 1_545 S
O455 C459 1.260 . S
O456 Zn440 1.969 . S
O456 C459 1.258 . S
O457 Zn441 2.024 1_545 S
O457 C444 1.058 1_545 S
C458 O447 1.260 . S
C458 O448 1.258 . S
C459 O455 1.260 . S
C459 O456 1.258 . S
Zn460 O466 1.969 . S
Zn460 O467 1.965 . S
Zn460 O471 2.024 . S
Zn460 O476 1.969 . S
Zn461 O468 1.969 . S
Zn461 O474 1.969 . S
Zn461 O475 1.965 . S
Zn461 O477 2.024 . S
C462 O463 1.229 . S
C462 O471 1.058 . S
O463 C462 1.229 . S
C464 O465 1.229 . S
C464 O477 1.058 . S
O465 C464 1.229 . S
O466 Zn460 1.969 . S
O466 C469 1.267 . S
O467 Zn460 1.965 . S
O467 C478 1.260 . S
O468 Zn461 1.969 . S
O468 C478 1.258 . S
C469 O466 1.267 . S
C469 O470 1.228 . S
O470 C469 1.228 . S
O471 Zn460 2.024 . S
O471 C462 1.058 . S
C472 O473 1.228 . S
C472 O474 1.267 . S
O473 C472 1.228 . S
O474 Zn461 1.969 . S
O474 C472 1.267 . S
O475 Zn461 1.965 . S
O475 C479 1.260 . S
O476 Zn460 1.969 . S
O476 C479 1.258 . S
O477 Zn461 2.024 . S
O477 C464 1.058 . S
C478 O467 1.260 . S
C478 O468 1.258 . S
C479 O475 1.260 . S
C479 O476 1.258 . S
Zn480 O486 1.969 . S
Zn480 O487 1.965 . S
Zn480 O491 2.024 . S
Zn480 O496 1.969 . S
Zn481 O488 1.969 . S
Zn481 O494 1.969 1_554 S
Zn481 O495 1.965 . S
Zn481 O497 2.024 . S
C482 O483 1.229 . S
C482 O491 1.058 . S
O483 C482 1.229 . S
C484 O485 1.229 . S
C484 O497 1.058 . S
O485 C484 1.229 . S
O486 Zn480 1.969 . S
O486 C489 1.267 . S
O487 Zn480 1.965 . S
O487 C498 1.260 . S
O488 Zn481 1.969 . S
O488 C498 1.258 . S
C489 O486 1.267 . S
C489 O490 1.228 . S
O490 C489 1.228 . S
O491 Zn480 2.024 . S
O491 C482 1.058 . S
C492 O493 1.228 . S
C492 O494 1.267 . S
O493 C492 1.228 . S
O494 Zn481 1.969 1_556 S
O494 C492 1.267 . S
O495 Zn481 1.965 . S
O495 C499 1.260 . S
O496 Zn480 1.969 . S
O496 C499 1.258 . S
O497 Zn481 2.024 . S
O497 C484 1.058 . S
C498 O487 1.260 . S
C498 O488 1.258 . S
C499 O495 1.260 . S
C499 O496 1.258 . S
Zn500 O506 1.969 . S
Zn500 O507 1.965 . S
Zn500 O511 2.024 . S
Zn500 O516 1.969 . S
Zn501 O508 1.969 . S
Zn501 O514 1.969 1_554 S
Zn501 O515 1.965 . S
Zn501 O517 2.024 . S
C502 O503 1.229 . S
C502 O511 1.058 . S
O503 C502 1.229 . S
C504 O505 1.229 . S
C504 O517 1.058 . S
O505 C504 1.229 . S
O506 Zn500 1.969 . S
O506 C509 1.267 . S
O507 Zn500 1.965 . S
O507 C518 1.260 . S
O508 Zn501 1.969 . S
O508 C518 1.258 . S
C509 O506 1.267 . S
C509 O510 1.228 . S
O510 C509 1.228 . S
O511 Zn500 2.024 . S
O511 C502 1.058 . S
C512 O513 1.228 . S
C512 O514 1.267 . S
O513 C512 1.228 . S
O514 Zn501 1.969 1_556 S
O514 C512 1.267 . S
O515 Zn501 1.965 . S
O515 C519 1.260 . S
O516 Zn500 1.969 . S
O516 C519 1.258 . S
O517 Zn501 2.024 . S
O517 C504 1.058 . S
C518 O507 1.260 . S
C518 O508 1.258 . S
C519 O515 1.260 . S
C519 O516 1.258 . S
Zn520 O526 1.969 . S
Zn520 O527 1.965 . S
Zn520 O531 2.024 . S
Zn520 O536 1.969 . S
Zn521 O528 1.969 . S
Zn521 O534 1.969 . S
Zn521 O535 1.965 . S
Zn521 O537 2.024 . S
C522 O523 1.229 . S
C522 O531 1.058 . S
O523 C522 1.229 . S
C524 O525 1.229 . S
C524 O537 1.058 . S
O525 C524 1.229 . S
O526 Zn520 1.969 . S
O526 C529 1.267 . S
O527 Zn520 1.965 . S
O527 C538 1.260 . S
O528 Zn521 1.969 . S
O528 C538 1.258 1_554 S
C529 O526 1.267 . S
C529 O530 1.228 . S
O530 C529 1.228 . S
O531 Zn520 2.024 . S
O531 C522 1.058 . S
C532 O533 1.228 . S
C532 O534 1.267 . S
O533 C532 1.228 . S
O534 Zn521 1.969 . S
O534 C532 1.267 . S
O535 Zn521 1.965 . S
O535 C539 1.260 . S
O536 Zn520 1.969 . S
O536 C539 1.258 1_556 S
O537 Zn521 2.024 . S
O537 C524 1.058 . S
C538 O527 1.260 . S
C538 O528 1.258 1_556 S
C539 O535 1.260 . S
C539 O536 1.258 1_554 S
Zn540 O546 1.969 . S
Zn540 O547 1.965 . S
Zn540 O551 2.024 . S
Zn540 O556 1.969 . S
Zn541 O548 1.969 . S
Zn541 O554 1.969 . S
Zn541 O555 1.965 . S
Zn541 O557 2.024 . S
C542 O543 1.229 . S
C542 O551 1.058 . S
O543 C542 1.229 . S
C544 O545 1.229 . S
C544 O557 1.058 . S
O545 C544 1.229 . S
O546 Zn540 1.969 . S
O546 C549 1.267 . S
O547 Zn540 1.965 . S
O547 C558 1.260 . S
O548 Zn541 1.969 . S
O548 C558 1.258 1_554 S
C549 O546 1.267 . S
C549 O550 1.228 . S
O550 C549 1.228 . S
O551 Zn540 2.024 . S
O551 C542 1.058 . S
C552 O553 1.228 . S
C552 O554 1.267 . S
O553 C552 1.228 . S
O554 Zn541 1.969 . S
O554 C552 1.267 . S
O555 Zn541 1.965 . S
O555 C559 1.260 . S
O556 Zn540 1.969 . S
O556 C559 1.258 1_556 S
O557 Zn541 2.024 . S
O557 C544 1.058 . S
C558 O547 1.260 . S
C558 O548 1.258 1_556 S
C559 O555 1.260 . S
C559 O556 1.258 1_554 S
Zn560 O566 1.969 1_556 S
Zn560 O567 1.965 . S
Zn560 O571 2.024 . S
Zn560 O576 1.969 . S
Zn561 O568 1.969 . S
Zn561 O574 1.969 . S
Zn561 O575 1.965 . S
Zn561 O577 2.024 . S
C562 O563 1.229 . S
C562 O571 1.058 . S
O563 C562 1.229 . S
C564 O565 1.229 . S
C564 O577 1.058 . S
O565 C564 1.229 . S
O566 Zn560 1.969 1_554 S
O566 C569 1.267 . S
O567 Zn560 1.965 . S
O567 C578 1.260 . S
O568 Zn561 1.969 . S
O568 C578 1.258 . S
C569 O566 1.267 . S
C569 O570 1.228 . S
O570 C569 1.228 . S
O571 Zn560 2.024 . S
O571 C562 1.058 . S
C572 O573 1.228 . S
C572 O574 1.267 . S
O573 C572 1.228 . S
O574 Zn561 1.969 . S
O574 C572 1.267 . S
O575 Zn561 1.965 . S
O575 C579 1.260 . S
O576 Zn560 1.969 . S
O576 C579 1.258 . S
O577 Zn561 2.024 . S
O577 C564 1.058 . S
C578 O567 1.260 . S
C578 O568 1.258 . S
C579 O575 1.260 . S
C579 O576 1.258 . S
Zn580 O586 1.969 1_556 S
Zn580 O587 1.965 . S
Zn580 O591 2.024 . S
Zn580 O596 1.969 . S
Zn581 O588 1.969 . S
Zn581 O594 1.969 . S
Zn581 O595 1.965 . S
Zn581 O597 2.024 . S
C582 O583 1.229 . S
C582 O591 1.058 . S
O583 C582 1.229 . S
C584 O585 1.229 . S
C584 O597 1.058 . S
O585 C584 1.229 . S
O586 Zn580 1.969 1_554 S
O586 C589 1.267 . S
O587 Zn580 1.965 . S
O587 C598 1.260 . S
O588 Zn581 1.969 . S
O588 C598 1.258 . S
C589 O586 1.267 . S
C589 O590 1.228 . S
O590 C589 1.228 . S
O591 Zn580 2.024 . S
O591 C582 1.058 . S
C592 O593 1.228 . S
C592 O594 1.267 . S
O593 C592 1.228 . S
O594 Zn581 1.969 . S
O594 C592 1.267 . S
O595 Zn581 1.965 . S
O595 C599 1.260 . S
O596 Zn580 1.969 . S
O596 C599 1.258 . S
O597 Zn581 2.024 . S
O597 C584 1.058 . S
C598 O587 1.260 . S
C598 O588 1.258 . S
C599 O595 1.260 . S
C599 O596 1.258 . S
Zn600 O606 1.969 . S
Zn600 O607 1.965 . S
Zn600 O611 2.024 . S
Zn600 O616 1.969 . S
Zn601 O608 1.969 . S
Zn601 O614 1.969 . S
Zn601 O615 1.965 . S
Zn601 O617 2.024 . S
C602 O603 1.229 . S
C602 O611 1.058 . S
O603 C602 1.229 . S
C604 O605 1.229 . S
C604 O617 1.058 . S
O605 C604 1.229 . S
O606 Zn600 1.969 . S
O606 C609 1.267 . S
O607 Zn600 1.965 . S
O607 C618 1.260 . S
O608 Zn601 1.969 . S
O608 C618 1.258 1_554 S
C609 O606 1.267 . S
C609 O610 1.228 . S
O610 C609 1.228 . S
O611 Zn600 2.024 . S
O611 C602 1.058 . S
C612 O613 1.228 . S
C612 O614 1.267 . S
O613 C612 1.228 . S
O614 Zn601 1.969 . S
O614 C612 1.267 . S
O615 Zn601 1.965 . S
O615 C619 1.260 . S
O616 Zn600 1.969 . S
O616 C619 1.258 1_556 S
O617 Zn601 2.024 . S
O617 C604 1.058 . S
C618 O607 1.260 . S
C618 O608 1.258 1_556 S
C619 O615 1.260 . S
C619 O616 1.258 1_554 S
Zn620 O626 1.969 . S
Zn620 O627 1.965 . S
Zn620 O631 2.024 . S
Zn620 O636 1.969 . S
Zn621 O628 1.969 . S
Zn621 O634 1.969 . S
Zn621 O635 1.965 . S
Zn621 O637 2.024 . S
C622 O623 1.229 . S
C622 O631 1.058 . S
O623 C622 1.229 . S
C624 O625 1.229 . S
C624 O637 1.058 . S
O625 C624 1.229 . S
O626 Zn620 1.969 . S
O626 C629 1.267 . S
O627 Zn620 1.965 . S
O627 C638 1.260 . S
O628 Zn621 1.969 . S
O628 C638 1.258 1_554 S
C629 O626 1.267 . S
C629 O630 1.228 . S
O630 C629 1.228 . S
O631 Zn620 2.024 . S
O631 C622 1.058 . S
C632 O633 1.228 . S
C632 O634 1.267 . S
O633 C632 1.228 . S
O634 Zn621 1.969 . S
O634 C632 1.267 . S
O635 Zn621 1.965 . S
O635 C639 1.260 . S
O636 Zn620 1.969 . S
O636 C639 1.258 1_556 S
O637 Zn621 2.024 . S
O637 C624 1.058 . S
C638 O627 1.260 . S
C638 O628 1.258 1_556 S
C639 O635 1.260 . S
C639 O636 1.258 1_554 S
C640 C641 1.363 . S
C640 C646 1.379 . S
C640 N648 1.356 . S
C641 C640 1.363 . S
C641 C647 1.363 1_556 S
C642 C643 1.363 . S
C642 C647 1.379 . S
C642 N649 1.356 . S
C643 C642 1.363 . S
C643 C646 1.363 1_554 S
N644 C646 1.357 . S
N644 H656 0.990 . S
N644 H657 0.978 1_556 S
N645 C647 1.356 . S
N645 H650 0.984 1_554 S
N645 H651 0.985 . S
C646 C640 1.379 . S
C646 C643 1.363 1_556 S
C646 N644 1.357 . S
C647 C641 1.363 1_554 S
C647 C642 1.379 . S
C647 N645 1.356 . S
N648 C640 1.356 . S
N648 H654 0.984 . S
N648 H655 0.984 . S
N649 C642 1.356 . S
N649 H652 0.984 . S
N649 H653 0.985 . S
H650 N645 0.984 1_556 S
H651 N645 0.985 . S
H652 N649 0.984 . S
H653 N649 0.985 . S
H654 N648 0.984 . S
H655 N648 0.984 . S
H656 N644 0.990 . S
H657 N644 0.978 1_554 S
C658 C659 1.363 1_554 S
C658 C664 1.379 1_455 S
C658 N666 1.356 . S
C659 C658 1.363 1_556 S
C659 C665 1.363 1_545 S
C660 C661 1.363 1_556 S
C660 C665 1.379 1_655 S
C660 N667 1.356 . S
C661 C660 1.363 1_554 S
C661 C664 1.363 1_565 S
N662 C664 1.356 . S
N662 H674 1.022 . S
N662 H675 0.985 . S
N663 C665 1.356 . S
N663 H668 0.984 . S
N663 H669 1.022 . S
C664 C658 1.379 1_655 S
C664 C661 1.363 1_545 S
C664 N662 1.356 . S
C665 C659 1.363 1_565 S
C665 C660 1.379 1_455 S
C665 N663 1.356 . S
N666 C658 1.356 . S
N666 H672 0.984 . S
N666 H673 0.984 1_554 S
N667 C660 1.356 . S
N667 H670 0.984 1_556 S
N667 H671 0.985 . S
H668 N663 0.984 . S
H669 N663 1.022 . S
H670 N667 0.984 1_554 S
H671 N667 0.985 . S
H672 N666 0.984 . S
H673 N666 0.984 1_556 S
H674 N662 1.022 . S
H675 N662 0.985 . S
C676 C677 1.363 1_565 S
C676 C682 1.379 . S
C676 N684 1.356 . S
C677 C676 1.363 1_545 S
C677 C683 1.363 . S
C678 C679 1.363 1_545 S
C678 C683 1.379 . S
C678 N685 1.356 . S
C679 C678 1.363 1_565 S
C679 C682 1.363 . S
N680 C682 1.356 . S
N680 H692 0.984 . S
N680 H693 0.985 . S
N681 C683 1.356 . S
N681 H686 0.984 . S
N681 H687 0.985 . S
C682 C676 1.379 . S
C682 C679 1.363 . S
C682 N680 1.356 . S
C683 C677 1.363 . S
C683 C678 1.379 . S
C683 N681 1.356 . S
N684 C676 1.356 . S
N684 H690 0.984 . S
N684 H691 0.984 . S
N685 C678 1.356 . S
N685 H688 0.984 . S
N685 H689 0.985 . S
H686 N681 0.984 . S
H687 N681 0.985 . S
H688 N685 0.984 . S
H689 N685 0.985 . S
H690 N684 0.984 . S
H691 N684 0.984 . S
H692 N680 0.984 . S
H693 N680 0.985 . S
C694 C695 1.363 . S
C694 C700 1.379 1_455 S
C694 N702 1.356 . S
C695 C694 1.363 . S
C695 C701 1.363 . S
C696 C697 1.363 . S
C696 C701 1.379 1_655 S
C696 N703 1.356 . S
C697 C696 1.363 . S
C697 C700 1.363 . S
N698 C700 1.356 . S
N698 H710 0.984 . S
N698 H711 0.985 . S
N699 C701 1.356 . S
N699 H704 0.984 . S
N699 H705 0.985 . S
C700 C694 1.379 1_655 S
C700 C697 1.363 . S
C700 N698 1.356 . S
C701 C695 1.363 . S
C701 C696 1.379 1_455 S
C701 N699 1.356 . S
N702 C694 1.356 . S
N702 H708 0.984 . S
N702 H709 0.984 . S
N703 C696 1.356 . S
N703 H706 0.984 . S
N703 H707 0.985 . S
H704 N699 0.984 . S
H705 N699 0.985 . S
H706 N703 0.984 . S
H707 N703 0.985 . S
H708 N702 0.984 . S
H709 N702 0.984 . S
H710 N698 0.984 . S
H711 N698 0.985 . S
C712 C713 1.363 . S
C712 C718 1.379 . S
C712 N720 1.356 . S
C713 C712 1.363 . S
C713 C719 1.363 1_556 S
C714 C715 1.363 . S
C714 C719 1.379 . S
C714 N721 1.356 . S
C715 C714 1.363 . S
C715 C718 1.363 1_554 S
N716 C718 1.356 1_554 S
N716 H728 0.984 1_554 S
N716 H729 0.985 . S
N717 C719 1.356 1_556 S
N717 H722 0.984 . S
N717 H723 0.985 1_556 S
C718 C712 1.379 . S
C718 C715 1.363 1_556 S
C718 N716 1.356 1_556 S
C719 C713 1.363 1_554 S
C719 C714 1.379 . S
C719 N717 1.356 1_554 S
N720 C712 1.356 . S
N720 H726 0.984 . S
N720 H727 0.984 . S
N721 C714 1.356 . S
N721 H724 0.984 . S
N721 H725 0.985 . S
H722 N717 0.984 . S
H723 N717 0.985 1_554 S
H724 N721 0.984 . S
H725 N721 0.985 . S
H726 N720 0.984 . S
H727 N720 0.984 . S
H728 N716 0.984 1_556 S
H729 N716 0.985 . S
C730 C731 1.363 . S
C730 C736 1.379 . S
C730 N738 1.356 . S
C731 C730 1.363 . S
C731 C737 1.363 1_565 S
C732 C733 1.363 . S
C732 C737 1.379 . S
C732 N739 1.356 . S
C733 C732 1.363 . S
C733 C736 1.363 1_545 S
N734 C736 1.356 . S
N734 H746 0.984 . S
N734 H747 0.985 . S
N735 C737 1.356 . S
N735 H740 0.984 . S
N735 H741 0.985 . S
C736 C730 1.379 . S
C736 C733 1.363 1_565 S
C736 N734 1.356 . S
C737 C731 1.363 1_545 S
C737 C732 1.379 . S
C737 N735 1.356 . S
N738 C730 1.356 . S
N738 H744 0.984 . S
N738 H745 0.984 . S
N739 C732 1.356 . S
N739 H742 0.984 . S
N739 H743 0.985 . S
H740 N735 0.984 . S
H741 N735 0.985 . S
H742 N739 0.984 . S
H743 N739 0.985 . S
H744 N738 0.984 . S
H745 N738 0.984 . S
H746 N734 0.984 . S
H747 N734 0.985 . S
C748 C749 1.363 . S
C748 C754 1.379 1_655 S
C748 N756 1.356 . S
C749 C748 1.363 . S
C749 C755 1.363 . S
C750 C751 1.363 . S
C750 C755 1.379 1_455 S
C750 N757 1.356 . S
C751 C750 1.363 . S
C751 C754 1.363 . S
N752 C754 1.356 . S
N752 H764 0.984 . S
N752 H765 0.985 . S
N753 C755 1.356 . S
N753 H758 0.984 . S
N753 H759 0.985 . S
C754 C748 1.379 1_455 S
C754 C751 1.363 . S
C754 N752 1.356 . S
C755 C749 1.363 . S
C755 C750 1.379 1_655 S
C755 N753 1.356 . S
N756 C748 1.356 . S
N756 H762 0.984 . S
N756 H763 0.984 . S
N757 C750 1.356 . S
N757 H760 0.984 . S
N757 H761 0.985 . S
H758 N753 0.984 . S
H759 N753 0.985 . S
H760 N757 0.984 . S
H761 N757 0.985 . S
H762 N756 0.984 . S
H763 N756 0.984 . S
H764 N752 0.984 . S
H765 N752 0.985 . S
C766 C767 1.363 . S
C766 C772 1.379 . S
C766 N774 1.356 . S
C767 C766 1.363 . S
C767 C773 1.363 . S
C768 C769 1.363 . S
C768 C773 1.379 . S
C768 N775 1.356 . S
C769 C768 1.363 . S
C769 C772 1.363 . S
N770 C772 1.356 . S
N770 H782 0.984 . S
N770 H783 0.985 . S
N771 C773 1.356 . S
N771 H776 0.984 . S
N771 H777 0.985 . S
C772 C766 1.379 . S
C772 C769 1.363 . S
C772 N770 1.356 . S
C773 C767 1.363 . S
C773 C768 1.379 . S
C773 N771 1.356 . S
N774 C766 1.356 . S
N774 H780 0.984 . S
N774 H781 0.984 . S
N775 C768 1.356 . S
N775 H778 0.984 . S
N775 H779 0.985 . S
H776 N771 0.984 . S
H777 N771 0.985 . S
H778 N775 0.984 . S
H779 N775 0.985 . S
H780 N774 0.984 . S
H781 N774 0.984 . S
H782 N770 0.984 . S
H783 N770 0.985 . S
C784 C785 1.345 1_455 S
C784 C790 1.396 . S
C784 N792 1.351 1_455 S
C785 C784 1.345 1_655 S
C785 C791 1.363 . S
C786 C787 1.345 1_655 S
C786 C791 1.395 . S
C786 N793 1.351 1_655 S
C787 C786 1.345 1_455 S
C787 C790 1.363 . S
N788 C790 1.356 . S
N788 H800 0.984 . S
N788 H801 0.985 . S
N789 C791 1.356 . S
N789 H794 0.984 . S
N789 H795 0.985 . S
C790 C784 1.396 . S
C790 C787 1.363 . S
C790 N788 1.356 . S
C791 C785 1.363 . S
C791 C786 1.395 . S
C791 N789 1.356 . S
N792 C784 1.351 1_655 S
N792 H798 0.984 1_655 S
N792 H799 0.984 . S
N793 C786 1.351 1_455 S
N793 H796 0.984 . S
N793 H797 0.985 1_455 S
H794 N789 0.984 . S
H795 N789 0.985 . S
H796 N793 0.984 . S
H797 N793 0.985 1_655 S
H798 N792 0.984 1_455 S
H799 N792 0.984 . S
H800 N788 0.984 . S
H801 N788 0.985 . S
C802 C803 1.363 . S
C802 C808 1.379 . S
C802 N810 1.356 . S
C803 C802 1.363 . S
C803 C809 1.363 . S
C804 C805 1.363 . S
C804 C809 1.379 . S
C804 N811 1.356 . S
C805 C804 1.363 . S
C805 C808 1.363 . S
N806 C808 1.356 . S
N806 H818 0.984 . S
N806 H819 0.985 . S
N807 C809 1.356 . S
N807 H812 0.984 . S
N807 H813 0.985 . S
C808 C802 1.379 . S
C808 C805 1.363 . S
C808 N806 1.356 . S
C809 C803 1.363 . S
C809 C804 1.379 . S
C809 N807 1.356 . S
N810 C802 1.356 . S
N810 H816 0.984 . S
N810 H817 0.984 . S
N811 C804 1.356 . S
N811 H814 0.984 . S
N811 H815 0.985 . S
H812 N807 0.984 . S
H813 N807 0.985 . S
H814 N811 0.984 . S
H815 N811 0.985 . S
H816 N810 0.984 . S
H817 N810 0.984 . S
H818 N806 0.984 . S
H819 N806 0.985 . S
C820 C821 1.363 . S
C820 C826 1.379 . S
C820 N828 1.356 . S
C821 C820 1.363 . S
C821 C827 1.363 . S
C822 C823 1.363 . S
C822 C827 1.379 . S
C822 N829 1.356 . S
C823 C822 1.363 . S
C823 C826 1.363 . S
N824 C826 1.356 . S
N824 H836 0.984 . S
N824 H837 0.985 . S
N825 C827 1.356 . S
N825 H830 0.984 . S
N825 H831 0.985 . S
C826 C820 1.379 . S
C826 C823 1.363 . S
C826 N824 1.356 . S
C827 C821 1.363 . S
C827 C822 1.379 . S
C827 N825 1.356 . S
N828 C820 1.356 . S
N828 H834 0.984 . S
N828 H835 0.984 . S
N829 C822 1.356 . S
N829 H832 0.984 . S
N829 H833 0.985 . S
H830 N825 0.984 . S
H831 N825 0.985 . S
H832 N829 0.984 . S
H833 N829 0.985 . S
H834 N828 0.984 . S
H835 N828 0.984 . S
H836 N824 0.984 . S
H837 N824 0.985 . S
C838 C839 1.363 . S
C838 C844 1.379 . S
C838 N846 1.356 . S
C839 C838 1.363 . S
C839 C845 1.363 . S
C840 C841 1.363 . S
C840 C845 1.379 . S
C840 N847 1.356 . S
C841 C840 1.363 . S
C841 C844 1.363 . S
N842 C844 1.356 . S
N842 H854 0.984 . S
N842 H855 0.985 . S
N843 C845 1.356 . S
N843 H848 0.984 . S
N843 H849 0.985 . S
C844 C838 1.379 . S
C844 C841 1.363 . S
C844 N842 1.356 . S
C845 C839 1.363 . S
C845 C840 1.379 . S
C845 N843 1.356 . S
N846 C838 1.356 . S
N846 H852 0.984 . S
N846 H853 0.984 . S
N847 C840 1.356 . S
N847 H850 0.984 . S
N847 H851 0.985 . S
H848 N843 0.984 . S
H849 N843 0.985 . S
H850 N847 0.984 . S
H851 N847 0.985 . S
H852 N846 0.984 . S
H853 N846 0.984 . S
H854 N842 0.984 . S
H855 N842 0.985 . S
C856 C857 1.363 1_545 S
C856 C862 1.379 . S
C856 N864 1.356 . S
C857 C856 1.363 1_565 S
C857 C863 1.363 . S
C858 C859 1.363 1_565 S
C858 C863 1.379 . S
C858 N865 1.356 . S
C859 C858 1.363 1_545 S
C859 C862 1.363 . S
N860 C862 1.356 . S
N860 H872 0.984 . S
N860 H873 0.985 . S
N861 C863 1.356 . S
N861 H866 0.984 . S
N861 H867 0.985 . S
C862 C856 1.379 . S
C862 C859 1.363 . S
C862 N860 1.356 . S
C863 C857 1.363 . S
C863 C858 1.379 . S
C863 N861 1.356 . S
N864 C856 1.356 . S
N864 H870 0.984 . S
N864 H871 0.984 . S
N865 C858 1.356 . S
N865 H868 0.984 . S
N865 H869 0.985 . S
H866 N861 0.984 . S
H867 N861 0.985 . S
H868 N865 0.984 . S
H869 N865 0.985 . S
H870 N864 0.984 . S
H871 N864 0.984 . S
H872 N860 0.984 . S
H873 N860 0.985 . S
C874 C875 1.363 . S
C874 C880 1.379 . S
C874 N882 1.356 . S
C875 C874 1.363 . S
C875 C881 1.363 . S
C876 C877 1.363 . S
C876 C881 1.379 . S
C876 N883 1.356 . S
C877 C876 1.363 . S
C877 C880 1.363 . S
N878 C880 1.356 . S
N878 H890 0.984 . S
N878 H891 0.985 . S
N879 C881 1.356 . S
N879 H884 0.984 . S
N879 H885 0.985 . S
C880 C874 1.379 . S
C880 C877 1.363 . S
C880 N878 1.356 . S
C881 C875 1.363 . S
C881 C876 1.379 . S
C881 N879 1.356 . S
N882 C874 1.356 . S
N882 H888 0.984 . S
N882 H889 0.984 . S
N883 C876 1.356 . S
N883 H886 0.984 . S
N883 H887 0.985 . S
H884 N879 0.984 . S
H885 N879 0.985 . S
H886 N883 0.984 . S
H887 N883 0.985 . S
H888 N882 0.984 . S
H889 N882 0.984 . S
H890 N878 0.984 . S
H891 N878 0.985 . S
C892 C893 1.363 . S
C892 C898 1.379 . S
C892 N900 1.356 . S
C893 C892 1.363 . S
C893 C899 1.363 . S
C894 C895 1.363 . S
C894 C899 1.379 . S
C894 N901 1.356 . S
C895 C894 1.363 . S
C895 C898 1.363 . S
N896 C898 1.356 . S
N896 H908 0.984 . S
N896 H909 0.985 . S
N897 C899 1.356 . S
N897 H902 0.984 . S
N897 H903 0.985 . S
C898 C892 1.379 . S
C898 C895 1.363 . S
C898 N896 1.356 . S
C899 C893 1.363 . S
C899 C894 1.379 . S
C899 N897 1.356 . S
N900 C892 1.356 . S
N900 H906 0.984 . S
N900 H907 0.984 . S
N901 C894 1.356 . S
N901 H904 0.984 . S
N901 H905 0.985 . S
H902 N897 0.984 . S
H903 N897 0.985 . S
H904 N901 0.984 . S
H905 N901 0.985 . S
H906 N900 0.984 . S
H907 N900 0.984 . S
H908 N896 0.984 . S
H909 N896 0.985 . S
C910 C911 1.363 1_554 S
C910 C916 1.379 . S
C910 N918 1.356 . S
C911 C910 1.363 1_556 S
C911 C917 1.363 . S
C912 C913 1.363 1_556 S
C912 C917 1.379 . S
C912 N919 1.356 . S
C913 C912 1.363 1_554 S
C913 C916 1.363 . S
N914 C916 1.356 . S
N914 H926 0.984 . S
N914 H927 0.985 . S
N915 C917 1.356 . S
N915 H920 0.984 . S
N915 H921 0.985 . S
C916 C910 1.379 . S
C916 C913 1.363 . S
C916 N914 1.356 . S
C917 C911 1.363 . S
C917 C912 1.379 . S
C917 N915 1.356 . S
N918 C910 1.356 . S
N918 H924 0.984 . S
N918 H925 0.984 1_554 S
N919 C912 1.356 . S
N919 H922 0.984 1_556 S
N919 H923 0.985 . S
H920 N915 0.984 . S
H921 N915 0.985 . S
H922 N919 0.984 1_554 S
H923 N919 0.985 . S
H924 N918 0.984 . S
H925 N918 0.984 1_556 S
H926 N914 0.984 . S
H927 N914 0.985 . S
C928 C929 1.363 . S
C928 C934 1.379 . S
C928 N936 1.356 . S
C929 C928 1.363 . S
C929 C935 1.363 . S
C930 C931 1.363 . S
C930 C935 1.379 . S
C930 N937 1.356 . S
C931 C930 1.363 . S
C931 C934 1.363 . S
N932 C934 1.356 . S
N932 H944 0.984 . S
N932 H945 0.985 . S
N933 C935 1.356 . S
N933 H938 0.984 . S
N933 H939 0.985 . S
C934 C928 1.379 . S
C934 C931 1.363 . S
C934 N932 1.356 . S
C935 C929 1.363 . S
C935 C930 1.379 . S
C935 N933 1.356 . S
N936 C928 1.356 . S
N936 H942 0.984 . S
N936 H943 0.984 . S
N937 C930 1.356 . S
N937 H940 0.984 . S
N937 H941 0.985 . S
H938 N933 0.984 . S
H939 N933 0.985 . S
H940 N937 0.984 . S
H941 N937 0.985 . S
H942 N936 0.984 . S
H943 N936 0.984 . S
H944 N932 0.984 . S
H945 N932 0.985 . S
C946 C947 1.363 . S
C946 C952 1.379 . S
C946 N954 1.356 . S
C947 C946 1.363 . S
C947 C953 1.363 1_545 S
C948 C949 1.363 1_565 S
C948 C953 1.379 . S
C948 N955 1.356 . S
C949 C948 1.363 1_545 S
C949 C952 1.363 . S
N950 C952 1.356 . S
N950 H962 0.984 . S
N950 H963 0.985 . S
N951 C953 1.356 . S
N951 H956 0.984 . S
N951 H957 0.985 . S
C952 C946 1.379 . S
C952 C949 1.363 . S
C952 N950 1.356 . S
C953 C947 1.363 1_565 S
C953 C948 1.379 . S
C953 N951 1.356 . S
N954 C946 1.356 . S
N954 H960 0.984 . S
N954 H961 0.984 . S
N955 C948 1.356 . S
N955 H958 0.984 . S
N955 H959 0.985 . S
H956 N951 0.984 . S
H957 N951 0.985 . S
H958 N955 0.984 . S
H959 N955 0.985 . S
H960 N954 0.984 . S
H961 N954 0.984 . S
H962 N950 0.984 . S
H963 N950 0.985 . S
C964 C965 1.363 1_565 S
C964 C970 1.379 . S
C964 N972 1.356 . S
C965 C964 1.363 1_545 S
C965 C971 1.363 . S
C966 C967 1.363 . S
C966 C971 1.379 . S
C966 N973 1.356 . S
C967 C966 1.363 . S
C967 C970 1.363 1_545 S
N968 C970 1.356 . S
N968 H980 0.984 . S
N968 H981 0.985 . S
N969 C971 1.356 . S
N969 H974 0.984 . S
N969 H975 0.985 . S
C970 C964 1.379 . S
C970 C967 1.363 1_565 S
C970 N968 1.356 . S
C971 C965 1.363 . S
C971 C966 1.379 . S
C971 N969 1.356 . S
N972 C964 1.356 . S
N972 H978 0.984 . S
N972 H979 0.984 . S
N973 C966 1.356 . S
N973 H976 0.984 . S
N973 H977 0.985 1_556 S
H974 N969 0.984 . S
H975 N969 0.985 . S
H976 N973 0.984 . S
H977 N973 0.985 1_554 S
H978 N972 0.984 . S
H979 N972 0.984 . S
H980 N968 0.984 . S
H981 N968 0.985 . S
C982 C983 1.363 . S
C982 C988 1.379 . S
C982 N990 1.356 . S
C983 C982 1.363 . S
C983 C989 1.363 . S
C984 C985 1.363 . S
C984 C989 1.379 . S
C984 N991 1.356 . S
C985 C984 1.363 . S
C985 C988 1.363 . S
N986 C988 1.356 . S
N986 H998 0.984 1_556 S
N986 H999 0.985 . S
N987 C989 1.356 . S
N987 H992 0.984 . S
N987 H993 0.985 . S
C988 C982 1.379 . S
C988 C985 1.363 . S
C988 N986 1.356 . S
C989 C983 1.363 . S
C989 C984 1.379 . S
C989 N987 1.356 . S
N990 C982 1.356 . S
N990 H996 0.984 . S
N990 H997 0.984 . S
N991 C984 1.356 . S
N991 H994 0.984 . S
N991 H995 0.985 . S
H992 N987 0.984 . S
H993 N987 0.985 . S
H994 N991 0.984 . S
H995 N991 0.985 . S
H996 N990 0.984 . S
H997 N990 0.984 . S
H998 N986 0.984 1_554 S
H999 N986 0.985 . S
C1000 C1001 1.363 . S
C1000 C1006 1.379 . S
C1000 N1008 1.356 . S
C1001 C1000 1.363 . S
C1001 C1007 1.363 . S
C1002 C1003 1.363 . S
C1002 C1007 1.379 . S
C1002 N1009 1.356 . S
C1003 C1002 1.363 . S
C1003 C1006 1.363 . S
N1004 C1006 1.356 . S
N1004 H1016 0.984 . S
N1004 H1017 0.985 . S
N1005 C1007 1.356 . S
N1005 H1010 0.984 . S
N1005 H1011 0.985 . S
C1006 C1000 1.379 . S
C1006 C1003 1.363 . S
C1006 N1004 1.356 . S
C1007 C1001 1.363 . S
C1007 C1002 1.379 . S
C1007 N1005 1.356 . S
N1008 C1000 1.356 . S
N1008 H1014 0.984 . S
N1008 H1015 0.984 . S
N1009 C1002 1.356 . S
N1009 H1012 0.984 . S
N1009 H1013 0.985 . S
H1010 N1005 0.984 . S
H1011 N1005 0.985 . S
H1012 N1009 0.984 . S
H1013 N1009 0.985 . S
H1014 N1008 0.984 . S
H1015 N1008 0.984 . S
H1016 N1004 0.984 . S
H1017 N1004 0.985 . S
C1018 C1019 1.363 1_545 S
C1018 C1024 1.379 . S
C1018 N1026 1.356 . S
C1019 C1018 1.363 1_565 S
C1019 C1025 1.363 . S
C1020 C1021 1.363 . S
C1020 C1025 1.379 . S
C1020 N1027 1.356 . S
C1021 C1020 1.363 . S
C1021 C1024 1.363 1_565 S
N1022 C1024 1.356 . S
N1022 H1034 0.984 . S
N1022 H1035 0.985 . S
N1023 C1025 1.356 . S
N1023 H1028 0.984 . S
N1023 H1029 0.985 . S
C1024 C1018 1.379 . S
C1024 C1021 1.363 1_545 S
C1024 N1022 1.356 . S
C1025 C1019 1.363 . S
C1025 C1020 1.379 . S
C1025 N1023 1.356 . S
N1026 C1018 1.356 . S
N1026 H1032 0.984 . S
N1026 H1033 0.984 . S
N1027 C1020 1.356 . S
N1027 H1030 0.984 . S
N1027 H1031 0.985 . S
H1028 N1023 0.984 . S
H1029 N1023 0.985 . S
H1030 N1027 0.984 . S
H1031 N1027 0.985 . S
H1032 N1026 0.984 . S
H1033 N1026 0.984 . S
H1034 N1022 0.984 . S
H1035 N1022 0.985 . S
C1036 C1037 1.363 . S
C1036 C1042 1.379 . S
C1036 N1044 1.356 . S
C1037 C1036 1.363 . S
C1037 C1043 1.363 1_565 S
C1038 C1039 1.363 1_545 S
C1038 C1043 1.379 . S
C1038 N1045 1.356 . S
C1039 C1038 1.363 1_565 S
C1039 C1042 1.363 . S
N1040 C1042 1.356 . S
N1040 H1052 0.984 . S
N1040 H1053 0.985 . S
N1041 C1043 1.356 . S
N1041 H1046 0.984 . S
N1041 H1047 0.985 . S
C1042 C1036 1.379 . S
C1042 C1039 1.363 . S
C1042 N1040 1.356 . S
C1043 C1037 1.363 1_545 S
C1043 C1038 1.379 . S
C1043 N1041 1.356 . S
N1044 C1036 1.356 . S
N1044 H1050 0.984 1_554 S
N1044 H1051 0.984 . S
N1045 C1038 1.356 . S
N1045 H1048 0.984 . S
N1045 H1049 0.985 . S
H1046 N1041 0.984 . S
H1047 N1041 0.985 . S
H1048 N1045 0.984 . S
H1049 N1045 0.985 . S
H1050 N1044 0.984 1_556 S
H1051 N1044 0.984 . S
H1052 N1040 0.984 . S
H1053 N1040 0.985 . S
C1054 C1055 1.363 . S
C1054 C1060 1.379 . S
C1054 N1062 1.356 . S
C1055 C1054 1.363 . S
C1055 C1061 1.363 . S
C1056 C1057 1.363 . S
C1056 C1061 1.379 . S
C1056 N1063 1.356 . S
C1057 C1056 1.363 . S
C1057 C1060 1.363 . S
N1058 C1060 1.356 . S
N1058 H1070 0.984 . S
N1058 H1071 0.985 . S
N1059 C1061 1.356 . S
N1059 H1064 0.984 . S
N1059 H1065 0.985 . S
C1060 C1054 1.379 . S
C1060 C1057 1.363 . S
C1060 N1058 1.356 . S
C1061 C1055 1.363 . S
C1061 C1056 1.379 . S
C1061 N1059 1.356 . S
N1062 C1054 1.356 . S
N1062 H1068 0.984 1_554 S
N1062 H1069 0.984 . S
N1063 C1056 1.356 . S
N1063 H1066 0.984 . S
N1063 H1067 0.985 . S
H1064 N1059 0.984 . S
H1065 N1059 0.985 . S
H1066 N1063 0.984 . S
H1067 N1063 0.985 . S
H1068 N1062 0.984 1_556 S
H1069 N1062 0.984 . S
H1070 N1058 0.984 . S
H1071 N1058 0.985 . S
C1072 C1073 1.363 . S
C1072 C1078 1.379 . S
C1072 N1080 1.356 . S
C1073 C1072 1.363 . S
C1073 C1079 1.363 . S
C1074 C1075 1.363 . S
C1074 C1079 1.379 . S
C1074 N1081 1.356 . S
C1075 C1074 1.363 . S
C1075 C1078 1.363 . S
N1076 C1078 1.356 . S
N1076 H1088 0.984 . S
N1076 H1089 0.985 . S
N1077 C1079 1.356 . S
N1077 H1082 0.984 . S
N1077 H1083 0.985 . S
C1078 C1072 1.379 . S
C1078 C1075 1.363 . S
C1078 N1076 1.356 . S
C1079 C1073 1.363 . S
C1079 C1074 1.379 . S
C1079 N1077 1.356 . S
N1080 C1072 1.356 . S
N1080 H1086 0.984 . S
N1080 H1087 0.984 . S
N1081 C1074 1.356 . S
N1081 H1084 0.984 . S
N1081 H1085 0.985 1_556 S
H1082 N1077 0.984 . S
H1083 N1077 0.985 . S
H1084 N1081 0.984 . S
H1085 N1081 0.985 1_554 S
H1086 N1080 0.984 . S
H1087 N1080 0.984 . S
H1088 N1076 0.984 . S
H1089 N1076 0.985 . S
C1090 C1091 1.363 . S
C1090 C1096 1.379 . S
C1090 N1098 1.356 . S
C1091 C1090 1.363 . S
C1091 C1097 1.363 . S
C1092 C1093 1.363 . S
C1092 C1097 1.379 . S
C1092 N1099 1.356 . S
C1093 C1092 1.363 . S
C1093 C1096 1.363 . S
N1094 C1096 1.356 . S
N1094 H1106 0.984 . S
N1094 H1107 0.985 . S
N1095 C1097 1.356 . S
N1095 H1100 0.984 . S
N1095 H1101 0.985 . S
C1096 C1090 1.379 . S
C1096 C1093 1.363 . S
C1096 N1094 1.356 . S
C1097 C1091 1.363 . S
C1097 C1092 1.379 . S
C1097 N1095 1.356 . S
N1098 C1090 1.356 . S
N1098 H1104 0.984 . S
N1098 H1105 0.984 . S
N1099 C1092 1.356 . S
N1099 H1102 0.984 . S
N1099 H1103 0.985 1_556 S
H1100 N1095 0.984 . S
H1101 N1095 0.985 . S
H1102 N1099 0.984 . S
H1103 N1099 0.985 1_554 S
H1104 N1098 0.984 . S
H1105 N1098 0.984 . S
H1106 N1094 0.984 . S
H1107 N1094 0.985 . S
C1108 C1109 1.363 . S
C1108 C1114 1.379 . S
C1108 N1116 1.356 . S
C1109 C1108 1.363 . S
C1109 C1115 1.363 . S
C1110 C1111 1.363 . S
C1110 C1115 1.379 . S
C1110 N1117 1.356 . S
C1111 C1110 1.363 . S
C1111 C1114 1.363 . S
N1112 C1114 1.356 . S
N1112 H1124 0.984 . S
N1112 H1125 0.985 . S
N1113 C1115 1.356 . S
N1113 H1118 0.984 . S
N1113 H1119 0.985 . S
C1114 C1108 1.379 . S
C1114 C1111 1.363 . S
C1114 N1112 1.356 . S
C1115 C1109 1.363 . S
C1115 C1110 1.379 . S
C1115 N1113 1.356 . S
N1116 C1108 1.356 . S
N1116 H1122 0.984 . S
N1116 H1123 0.984 . S
N1117 C1110 1.356 . S
N1117 H1120 0.984 . S
N1117 H1121 0.985 . S
H1118 N1113 0.984 . S
H1119 N1113 0.985 . S
H1120 N1117 0.984 . S
H1121 N1117 0.985 . S
H1122 N1116 0.984 . S
H1123 N1116 0.984 . S
H1124 N1112 0.984 . S
H1125 N1112 0.985 . S
C1126 C1127 1.363 . S
C1126 C1132 1.379 . S
C1126 N1134 1.356 . S
C1127 C1126 1.363 . S
C1127 C1133 1.363 . S
C1128 C1129 1.363 . S
C1128 C1133 1.379 . S
C1128 N1135 1.356 . S
C1129 C1128 1.363 . S
C1129 C1132 1.363 . S
N1130 C1132 1.356 . S
N1130 H1142 0.984 . S
N1130 H1143 0.985 . S
N1131 C1133 1.356 . S
N1131 H1136 0.984 . S
N1131 H1137 0.985 . S
C1132 C1126 1.379 . S
C1132 C1129 1.363 . S
C1132 N1130 1.356 . S
C1133 C1127 1.363 . S
C1133 C1128 1.379 . S
C1133 N1131 1.356 . S
N1134 C1126 1.356 . S
N1134 H1140 0.984 . S
N1134 H1141 0.984 . S
N1135 C1128 1.356 . S
N1135 H1138 0.984 . S
N1135 H1139 0.985 . S
H1136 N1131 0.984 . S
H1137 N1131 0.985 . S
H1138 N1135 0.984 . S
H1139 N1135 0.985 . S
H1140 N1134 0.984 . S
H1141 N1134 0.984 . S
H1142 N1130 0.984 . S
H1143 N1130 0.985 . S
C1144 C1145 1.363 . S
C1144 C1150 1.379 . S
C1144 N1152 1.356 . S
C1145 C1144 1.363 . S
C1145 C1151 1.363 . S
C1146 C1147 1.363 . S
C1146 C1151 1.379 . S
C1146 N1153 1.356 . S
C1147 C1146 1.363 . S
C1147 C1150 1.363 . S
N1148 C1150 1.356 . S
N1148 H1160 0.984 . S
N1148 H1161 0.985 . S
N1149 C1151 1.356 . S
N1149 H1154 0.984 . S
N1149 H1155 0.985 . S
C1150 C1144 1.379 . S
C1150 C1147 1.363 . S
C1150 N1148 1.356 . S
C1151 C1145 1.363 . S
C1151 C1146 1.379 . S
C1151 N1149 1.356 . S
N1152 C1144 1.356 . S
N1152 H1158 0.984 . S
N1152 H1159 0.984 . S
N1153 C1146 1.356 . S
N1153 H1156 0.984 . S
N1153 H1157 0.985 1_554 S
H1154 N1149 0.984 . S
H1155 N1149 0.985 . S
H1156 N1153 0.984 . S
H1157 N1153 0.985 1_556 S
H1158 N1152 0.984 . S
H1159 N1152 0.984 . S
H1160 N1148 0.984 . S
H1161 N1148 0.985 . S
C1162 C1163 1.363 . S
C1162 C1168 1.379 . S
C1162 N1170 1.356 . S
C1163 C1162 1.363 . S
C1163 C1169 1.363 . S
C1164 C1165 1.363 . S
C1164 C1169 1.379 . S
C1164 N1171 1.356 . S
C1165 C1164 1.363 . S
C1165 C1168 1.363 . S
N1166 C1168 1.356 . S
N1166 H1178 0.984 1_554 S
N1166 H1179 0.985 . S
N1167 C1169 1.356 . S
N1167 H1172 0.984 . S
N1167 H1173 0.985 . S
C1168 C1162 1.379 . S
C1168 C1165 1.363 . S
C1168 N1166 1.356 . S
C1169 C1163 1.363 . S
C1169 C1164 1.379 . S
C1169 N1167 1.356 . S
N1170 C1162 1.356 . S
N1170 H1176 0.984 . S
N1170 H1177 0.984 . S
N1171 C1164 1.356 . S
N1171 H1174 0.984 . S
N1171 H1175 0.985 . S
H1172 N1167 0.984 . S
H1173 N1167 0.985 . S
H1174 N1171 0.984 . S
H1175 N1171 0.985 . S
H1176 N1170 0.984 . S
H1177 N1170 0.984 . S
H1178 N1166 0.984 1_556 S
H1179 N1166 0.985 . S
C1180 C1181 1.363 . S
C1180 C1186 1.379 . S
C1180 N1188 1.356 . S
C1181 C1180 1.363 . S
C1181 C1187 1.363 . S
C1182 C1183 1.363 . S
C1182 C1187 1.379 . S
C1182 N1189 1.356 . S
C1183 C1182 1.363 . S
C1183 C1186 1.363 . S
N1184 C1186 1.356 . S
N1184 H1196 0.984 . S
N1184 H1197 0.985 . S
N1185 C1187 1.356 . S
N1185 H1190 0.984 . S
N1185 H1191 0.985 . S
C1186 C1180 1.379 . S
C1186 C1183 1.363 . S
C1186 N1184 1.356 . S
C1187 C1181 1.363 . S
C1187 C1182 1.379 . S
C1187 N1185 1.356 . S
N1188 C1180 1.356 . S
N1188 H1194 0.984 . S
N1188 H1195 0.984 . S
N1189 C1182 1.356 . S
N1189 H1192 0.984 . S
N1189 H1193 0.985 . S
H1190 N1185 0.984 . S
H1191 N1185 0.985 . S
H1192 N1189 0.984 . S
H1193 N1189 0.985 . S
H1194 N1188 0.984 . S
H1195 N1188 0.984 . S
H1196 N1184 0.984 . S
H1197 N1184 0.985 . S
C1198 C1199 1.363 . S
C1198 C1204 1.379 . S
C1198 N1206 1.356 . S
C1199 C1198 1.363 . S
C1199 C1205 1.363 . S
C1200 C1201 1.363 . S
C1200 C1205 1.379 . S
C1200 N1207 1.356 . S
C1201 C1200 1.363 . S
C1201 C1204 1.363 . S
N1202 C1204 1.356 . S
N1202 H1214 0.984 . S
N1202 H1215 0.985 . S
N1203 C1205 1.356 . S
N1203 H1208 0.984 . S
N1203 H1209 0.985 . S
C1204 C1198 1.379 . S
C1204 C1201 1.363 . S
C1204 N1202 1.356 . S
C1205 C1199 1.363 . S
C1205 C1200 1.379 . S
C1205 N1203 1.356 . S
N1206 C1198 1.356 . S
N1206 H1212 0.984 . S
N1206 H1213 0.984 . S
N1207 C1200 1.356 . S
N1207 H1210 0.984 . S
N1207 H1211 0.985 . S
H1208 N1203 0.984 . S
H1209 N1203 0.985 . S
H1210 N1207 0.984 . S
H1211 N1207 0.985 . S
H1212 N1206 0.984 . S
H1213 N1206 0.984 . S
H1214 N1202 0.984 . S
H1215 N1202 0.985 . S
C1216 C1217 1.363 . S
C1216 C1222 1.379 . S
C1216 N1224 1.356 . S
C1217 C1216 1.363 . S
C1217 C1223 1.363 . S
C1218 C1219 1.363 . S
C1218 C1223 1.379 . S
C1218 N1225 1.356 . S
C1219 C1218 1.363 . S
C1219 C1222 1.363 . S
N1220 C1222 1.356 . S
N1220 H1232 0.984 . S
N1220 H1233 0.985 . S
N1221 C1223 1.356 . S
N1221 H1226 0.984 . S
N1221 H1227 0.985 . S
C1222 C1216 1.379 . S
C1222 C1219 1.363 . S
C1222 N1220 1.356 . S
C1223 C1217 1.363 . S
C1223 C1218 1.379 . S
C1223 N1221 1.356 . S
N1224 C1216 1.356 . S
N1224 H1230 0.984 . S
N1224 H1231 0.984 . S
N1225 C1218 1.356 . S
N1225 H1228 0.984 . S
N1225 H1229 0.985 . S
H1226 N1221 0.984 . S
H1227 N1221 0.985 . S
H1228 N1225 0.984 . S
H1229 N1225 0.985 . S
H1230 N1224 0.984 . S
H1231 N1224 0.984 . S
H1232 N1220 0.984 . S
H1233 N1220 0.985 . S
C1234 C1235 1.363 1_565 S
C1234 C1240 1.379 . S
C1234 N1242 1.356 . S
C1235 C1234 1.363 1_545 S
C1235 C1241 1.363 . S
C1236 C1237 1.363 1_545 S
C1236 C1241 1.379 . S
C1236 N1243 1.356 . S
C1237 C1236 1.363 1_565 S
C1237 C1240 1.363 . S
N1238 C1240 1.356 . S
N1238 H1250 0.984 . S
N1238 H1251 0.985 . S
N1239 C1241 1.356 . S
N1239 H1244 0.984 . S
N1239 H1245 0.985 . S
C1240 C1234 1.379 . S
C1240 C1237 1.363 . S
C1240 N1238 1.356 . S
C1241 C1235 1.363 . S
C1241 C1236 1.379 . S
C1241 N1239 1.356 . S
N1242 C1234 1.356 . S
N1242 H1248 0.984 . S
N1242 H1249 0.984 . S
N1243 C1236 1.356 . S
N1243 H1246 0.984 . S
N1243 H1247 0.985 . S
H1244 N1239 0.984 . S
H1245 N1239 0.985 . S
H1246 N1243 0.984 . S
H1247 N1243 0.985 . S
H1248 N1242 0.984 . S
H1249 N1242 0.984 . S
H1250 N1238 0.984 . S
H1251 N1238 0.985 . S
C1252 C1253 1.363 1_545 S
C1252 C1258 1.379 . S
C1252 N1260 1.356 . S
C1253 C1252 1.363 1_565 S
C1253 C1259 1.363 . S
C1254 C1255 1.363 1_565 S
C1254 C1259 1.379 . S
C1254 N1261 1.356 . S
C1255 C1254 1.363 1_545 S
C1255 C1258 1.363 . S
N1256 C1258 1.356 . S
N1256 H1268 0.984 . S
N1256 H1269 0.985 . S
N1257 C1259 1.356 . S
N1257 H1262 0.984 . S
N1257 H1263 0.985 . S
C1258 C1252 1.379 . S
C1258 C1255 1.363 . S
C1258 N1256 1.356 . S
C1259 C1253 1.363 . S
C1259 C1254 1.379 . S
C1259 N1257 1.356 . S
N1260 C1252 1.356 . S
N1260 H1266 0.984 . S
N1260 H1267 0.984 . S
N1261 C1254 1.356 . S
N1261 H1264 0.984 . S
N1261 H1265 0.985 . S
H1262 N1257 0.984 . S
H1263 N1257 0.985 . S
H1264 N1261 0.984 . S
H1265 N1261 0.985 . S
H1266 N1260 0.984 . S
H1267 N1260 0.984 . S
H1268 N1256 0.984 . S
H1269 N1256 0.985 . S
C1270 C1271 1.363 . S
C1270 C1276 1.379 . S
C1270 N1278 1.356 . S
C1271 C1270 1.363 . S
C1271 C1277 1.363 . S
C1272 C1273 1.363 . S
C1272 C1277 1.379 . S
C1272 N1279 1.356 . S
C1273 C1272 1.363 . S
C1273 C1276 1.363 . S
N1274 C1276 1.356 . S
N1274 H1286 0.984 . S
N1274 H1287 0.985 . S
N1275 C1277 1.356 . S
N1275 H1280 0.984 . S
N1275 H1281 0.985 . S
C1276 C1270 1.379 . S
C1276 C1273 1.363 . S
C1276 N1274 1.356 . S
C1277 C1271 1.363 . S
C1277 C1272 1.379 . S
C1277 N1275 1.356 . S
N1278 C1270 1.356 . S
N1278 H1284 0.984 . S
N1278 H1285 0.984 . S
N1279 C1272 1.356 . S
N1279 H1282 0.984 . S
N1279 H1283 0.985 . S
H1280 N1275 0.984 . S
H1281 N1275 0.985 . S
H1282 N1279 0.984 . S
H1283 N1279 0.985 . S
H1284 N1278 0.984 . S
H1285 N1278 0.984 . S
H1286 N1274 0.984 . S
H1287 N1274 0.985 . S
C1288 C1289 1.363 . S
C1288 C1294 1.379 . S
C1288 N1296 1.356 . S
C1289 C1288 1.363 . S
C1289 C1295 1.363 . S
C1290 C1291 1.363 . S
C1290 C1295 1.379 . S
C1290 N1297 1.356 . S
C1291 C1290 1.363 . S
C1291 C1294 1.363 . S
N1292 C1294 1.356 . S
N1292 H1304 0.984 . S
N1292 H1305 0.985 . S
N1293 C1295 1.356 . S
N1293 H1298 0.984 . S
N1293 H1299 0.985 . S
C1294 C1288 1.379 . S
C1294 C1291 1.363 . S
C1294 N1292 1.356 . S
C1295 C1289 1.363 . S
C1295 C1290 1.379 . S
C1295 N1293 1.356 . S
N1296 C1288 1.356 . S
N1296 H1302 0.984 . S
N1296 H1303 0.984 . S
N1297 C1290 1.356 . S
N1297 H1300 0.984 . S
N1297 H1301 0.985 . S
H1298 N1293 0.984 . S
H1299 N1293 0.985 . S
H1300 N1297 0.984 . S
H1301 N1297 0.985 . S
H1302 N1296 0.984 . S
H1303 N1296 0.984 . S
H1304 N1292 0.984 . S
H1305 N1292 0.985 . S
C1306 C1307 1.363 1_565 S
C1306 C1312 1.379 . S
C1306 N1314 1.356 . S
C1307 C1306 1.363 1_545 S
C1307 C1313 1.363 . S
C1308 C1309 1.363 1_545 S
C1308 C1313 1.379 . S
C1308 N1315 1.356 . S
C1309 C1308 1.363 1_565 S
C1309 C1312 1.363 . S
N1310 C1312 1.356 . S
N1310 H1322 0.984 . S
N1310 H1323 0.985 . S
N1311 C1313 1.356 . S
N1311 H1316 0.984 . S
N1311 H1317 0.985 . S
C1312 C1306 1.379 . S
C1312 C1309 1.363 . S
C1312 N1310 1.356 . S
C1313 C1307 1.363 . S
C1313 C1308 1.379 . S
C1313 N1311 1.356 . S
N1314 C1306 1.356 . S
N1314 H1320 0.984 . S
N1314 H1321 0.984 . S
N1315 C1308 1.356 . S
N1315 H1318 0.984 . S
N1315 H1319 0.985 . S
H1316 N1311 0.984 . S
H1317 N1311 0.985 . S
H1318 N1315 0.984 . S
H1319 N1315 0.985 . S
H1320 N1314 0.984 . S
H1321 N1314 0.984 . S
H1322 N1310 0.984 . S
H1323 N1310 0.985 . S
C1324 C1325 1.363 . S
C1324 C1330 1.379 . S
C1324 N1332 1.356 . S
C1325 C1324 1.363 . S
C1325 C1331 1.363 1_545 S
C1326 C1327 1.363 . S
C1326 C1331 1.379 . S
C1326 N1333 1.356 . S
C1327 C1326 1.363 . S
C1327 C1330 1.363 1_565 S
N1328 C1330 1.356 . S
N1328 H1340 0.984 . S
N1328 H1341 0.985 . S
N1329 C1331 1.356 . S
N1329 H1334 0.984 . S
N1329 H1335 0.985 . S
C1330 C1324 1.379 . S
C1330 C1327 1.363 1_545 S
C1330 N1328 1.356 . S
C1331 C1325 1.363 1_565 S
C1331 C1326 1.379 . S
C1331 N1329 1.356 . S
N1332 C1324 1.356 . S
N1332 H1338 0.984 . S
N1332 H1339 0.984 . S
N1333 C1326 1.356 . S
N1333 H1336 0.984 . S
N1333 H1337 0.985 . S
H1334 N1329 0.984 . S
H1335 N1329 0.985 . S
H1336 N1333 0.984 . S
H1337 N1333 0.985 . S
H1338 N1332 0.984 . S
H1339 N1332 0.984 . S
H1340 N1328 0.984 . S
H1341 N1328 0.985 . S
C1342 C1343 1.363 . S
C1342 C1348 1.379 . S
C1342 N1350 1.356 . S
C1343 C1342 1.363 . S
C1343 C1349 1.363 . S
C1344 C1345 1.363 . S
C1344 C1349 1.379 . S
C1344 N1351 1.356 . S
C1345 C1344 1.363 . S
C1345 C1348 1.363 . S
N1346 C1348 1.356 . S
N1346 H1358 0.984 . S
N1346 H1359 0.985 . S
N1347 C1349 1.356 . S
N1347 H1352 0.984 . S
N1347 H1353 0.985 . S
C1348 C1342 1.379 . S
C1348 C1345 1.363 . S
C1348 N1346 1.356 . S
C1349 C1343 1.363 . S
C1349 C1344 1.379 . S
C1349 N1347 1.356 . S
N1350 C1342 1.356 . S
N1350 H1356 0.984 . S
N1350 H1357 0.984 . S
N1351 C1344 1.356 . S
N1351 H1354 0.984 . S
N1351 H1355 0.985 . S
H1352 N1347 0.984 . S
H1353 N1347 0.985 . S
H1354 N1351 0.984 . S
H1355 N1351 0.985 . S
H1356 N1350 0.984 . S
H1357 N1350 0.984 . S
H1358 N1346 0.984 . S
H1359 N1346 0.985 . S
C1360 C1361 1.363 . S
C1360 C1366 1.379 . S
C1360 N1368 1.356 . S
C1361 C1360 1.363 . S
C1361 C1367 1.363 . S
C1362 C1363 1.363 . S
C1362 C1367 1.379 . S
C1362 N1369 1.356 . S
C1363 C1362 1.363 . S
C1363 C1366 1.363 . S
N1364 C1366 1.356 . S
N1364 H1376 0.984 . S
N1364 H1377 0.985 . S
N1365 C1367 1.356 . S
N1365 H1370 0.984 . S
N1365 H1371 0.985 . S
C1366 C1360 1.379 . S
C1366 C1363 1.363 . S
C1366 N1364 1.356 . S
C1367 C1361 1.363 . S
C1367 C1362 1.379 . S
C1367 N1365 1.356 . S
N1368 C1360 1.356 . S
N1368 H1374 0.984 . S
N1368 H1375 0.984 . S
N1369 C1362 1.356 . S
N1369 H1372 0.984 . S
N1369 H1373 0.985 . S
H1370 N1365 0.984 . S
H1371 N1365 0.985 . S
H1372 N1369 0.984 . S
H1373 N1369 0.985 . S
H1374 N1368 0.984 . S
H1375 N1368 0.984 . S
H1376 N1364 0.984 . S
H1377 N1364 0.985 . S
C1378 C1379 1.363 . S
C1378 C1384 1.379 . S
C1378 N1386 1.356 . S
C1379 C1378 1.363 . S
C1379 C1385 1.363 . S
C1380 C1381 1.363 . S
C1380 C1385 1.379 . S
C1380 N1387 1.356 . S
C1381 C1380 1.363 . S
C1381 C1384 1.363 . S
N1382 C1384 1.356 . S
N1382 H1394 0.984 . S
N1382 H1395 0.985 . S
N1383 C1385 1.356 . S
N1383 H1388 0.984 . S
N1383 H1389 0.985 . S
C1384 C1378 1.379 . S
C1384 C1381 1.363 . S
C1384 N1382 1.356 . S
C1385 C1379 1.363 . S
C1385 C1380 1.379 . S
C1385 N1383 1.356 . S
N1386 C1378 1.356 . S
N1386 H1392 0.984 . S
N1386 H1393 0.984 . S
N1387 C1380 1.356 . S
N1387 H1390 0.984 . S
N1387 H1391 0.985 . S
H1388 N1383 0.984 . S
H1389 N1383 0.985 . S
H1390 N1387 0.984 . S
H1391 N1387 0.985 . S
H1392 N1386 0.984 . S
H1393 N1386 0.984 . S
H1394 N1382 0.984 . S
H1395 N1382 0.985 . S
C1396 C1397 1.363 . S
C1396 C1402 1.379 1_556 S
C1396 N1404 1.356 . S
C1397 C1396 1.363 . S
C1397 C1403 1.363 . S
C1398 C1399 1.363 . S
C1398 C1403 1.379 1_554 S
C1398 N1405 1.356 . S
C1399 C1398 1.363 . S
C1399 C1402 1.363 . S
N1400 C1402 1.356 . S
N1400 H1412 0.984 . S
N1400 H1413 0.985 . S
N1401 C1403 1.356 . S
N1401 H1406 0.984 . S
N1401 H1407 0.985 . S
C1402 C1396 1.379 1_554 S
C1402 C1399 1.363 . S
C1402 N1400 1.356 . S
C1403 C1397 1.363 . S
C1403 C1398 1.379 1_556 S
C1403 N1401 1.356 . S
N1404 C1396 1.356 . S
N1404 H1410 0.984 . S
N1404 H1411 0.984 . S
N1405 C1398 1.356 . S
N1405 H1408 0.984 . S
N1405 H1409 0.985 . S
H1406 N1401 0.984 . S
H1407 N1401 0.985 . S
H1408 N1405 0.984 . S
H1409 N1405 0.985 . S
H1410 N1404 0.984 . S
H1411 N1404 0.984 . S
H1412 N1400 0.984 . S
H1413 N1400 0.985 . S
C1414 C1415 1.363 . S
C1414 C1420 1.379 1_556 S
C1414 N1422 1.356 . S
C1415 C1414 1.363 . S
C1415 C1421 1.363 . S
C1416 C1417 1.363 . S
C1416 C1421 1.379 1_554 S
C1416 N1423 1.356 . S
C1417 C1416 1.363 . S
C1417 C1420 1.363 . S
N1418 C1420 1.356 . S
N1418 H1430 0.984 . S
N1418 H1431 0.985 . S
N1419 C1421 1.356 . S
N1419 H1424 0.984 . S
N1419 H1425 0.985 . S
C1420 C1414 1.379 1_554 S
C1420 C1417 1.363 . S
C1420 N1418 1.356 . S
C1421 C1415 1.363 . S
C1421 C1416 1.379 1_556 S
C1421 N1419 1.356 . S
N1422 C1414 1.356 . S
N1422 H1428 0.984 . S
N1422 H1429 0.984 . S
N1423 C1416 1.356 . S
N1423 H1426 0.984 . S
N1423 H1427 0.985 . S
H1424 N1419 0.984 . S
H1425 N1419 0.985 . S
H1426 N1423 0.984 . S
H1427 N1423 0.985 . S
H1428 N1422 0.984 . S
H1429 N1422 0.984 . S
H1430 N1418 0.984 . S
H1431 N1418 0.985 . S
C1432 C1433 1.363 . S
C1432 C1438 1.379 . S
C1432 N1440 1.356 . S
C1433 C1432 1.363 . S
C1433 C1439 1.363 . S
C1434 C1435 1.363 . S
C1434 C1439 1.379 . S
C1434 N1441 1.356 . S
C1435 C1434 1.363 . S
C1435 C1438 1.363 . S
N1436 C1438 1.356 . S
N1436 H1448 0.984 . S
N1436 H1449 0.985 . S
N1437 C1439 1.356 . S
N1437 H1442 0.984 . S
N1437 H1443 0.985 . S
C1438 C1432 1.379 . S
C1438 C1435 1.363 . S
C1438 N1436 1.356 . S
C1439 C1433 1.363 . S
C1439 C1434 1.379 . S
C1439 N1437 1.356 . S
N1440 C1432 1.356 . S
N1440 H1446 0.984 . S
N1440 H1447 0.984 . S
N1441 C1434 1.356 . S
N1441 H1444 0.984 . S
N1441 H1445 0.985 . S
H1442 N1437 0.984 . S
H1443 N1437 0.985 . S
H1444 N1441 0.984 . S
H1445 N1441 0.985 . S
H1446 N1440 0.984 . S
H1447 N1440 0.984 . S
H1448 N1436 0.984 . S
H1449 N1436 0.985 . S
C1450 C1451 1.363 . S
C1450 C1456 1.379 . S
C1450 N1458 1.356 . S
C1451 C1450 1.363 . S
C1451 C1457 1.363 . S
C1452 C1453 1.363 . S
C1452 C1457 1.379 . S
C1452 N1459 1.356 . S
C1453 C1452 1.363 . S
C1453 C1456 1.363 . S
N1454 C1456 1.356 . S
N1454 H1466 0.984 . S
N1454 H1467 0.985 . S
N1455 C1457 1.356 . S
N1455 H1460 0.984 . S
N1455 H1461 0.985 . S
C1456 C1450 1.379 . S
C1456 C1453 1.363 . S
C1456 N1454 1.356 . S
C1457 C1451 1.363 . S
C1457 C1452 1.379 . S
C1457 N1455 1.356 . S
N1458 C1450 1.356 . S
N1458 H1464 0.984 . S
N1458 H1465 0.984 . S
N1459 C1452 1.356 . S
N1459 H1462 0.984 . S
N1459 H1463 0.985 . S
H1460 N1455 0.984 . S
H1461 N1455 0.985 . S
H1462 N1459 0.984 . S
H1463 N1459 0.985 . S
H1464 N1458 0.984 . S
H1465 N1458 0.984 . S
H1466 N1454 0.984 . S
H1467 N1454 0.985 . S
C1468 C1469 1.363 . S
C1468 C1474 1.379 1_554 S
C1468 N1476 1.356 . S
C1469 C1468 1.363 . S
C1469 C1475 1.363 . S
C1470 C1471 1.363 . S
C1470 C1475 1.379 1_556 S
C1470 N1477 1.356 . S
C1471 C1470 1.363 . S
C1471 C1474 1.363 . S
N1472 C1474 1.356 . S
N1472 H1484 0.984 . S
N1472 H1485 0.985 . S
N1473 C1475 1.356 . S
N1473 H1478 0.984 . S
N1473 H1479 0.985 . S
C1474 C1468 1.379 1_556 S
C1474 C1471 1.363 . S
C1474 N1472 1.356 . S
C1475 C1469 1.363 . S
C1475 C1470 1.379 1_554 S
C1475 N1473 1.356 . S
N1476 C1468 1.356 . S
N1476 H1482 0.984 . S
N1476 H1483 0.984 . S
N1477 C1470 1.356 . S
N1477 H1480 0.984 . S
N1477 H1481 0.985 . S
H1478 N1473 0.984 . S
H1479 N1473 0.985 . S
H1480 N1477 0.984 . S
H1481 N1477 0.985 . S
H1482 N1476 0.984 . S
H1483 N1476 0.984 . S
H1484 N1472 0.984 . S
H1485 N1472 0.985 . S
C1486 C1487 1.363 . S
C1486 C1492 1.379 1_556 S
C1486 N1494 1.356 . S
C1487 C1486 1.363 . S
C1487 C1493 1.363 . S
C1488 C1489 1.363 . S
C1488 C1493 1.379 1_554 S
C1488 N1495 1.356 . S
C1489 C1488 1.363 . S
C1489 C1492 1.363 . S
N1490 C1492 1.356 . S
N1490 H1502 0.984 . S
N1490 H1503 0.985 . S
N1491 C1493 1.356 . S
N1491 H1496 0.984 . S
N1491 H1497 0.985 . S
C1492 C1486 1.379 1_554 S
C1492 C1489 1.363 . S
C1492 N1490 1.356 . S
C1493 C1487 1.363 . S
C1493 C1488 1.379 1_556 S
C1493 N1491 1.356 . S
N1494 C1486 1.356 . S
N1494 H1500 0.984 . S
N1494 H1501 0.984 . S
N1495 C1488 1.356 . S
N1495 H1498 0.984 . S
N1495 H1499 0.985 . S
H1496 N1491 0.984 . S
H1497 N1491 0.985 . S
H1498 N1495 0.984 . S
H1499 N1495 0.985 . S
H1500 N1494 0.984 . S
H1501 N1494 0.984 . S
H1502 N1490 0.984 . S
H1503 N1490 0.985 . S
C1504 C1505 1.363 . S
C1504 C1510 1.379 . S
C1504 N1512 1.356 . S
C1505 C1504 1.363 . S
C1505 C1511 1.363 . S
C1506 C1507 1.363 . S
C1506 C1511 1.379 . S
C1506 N1513 1.356 . S
C1507 C1506 1.363 . S
C1507 C1510 1.363 . S
N1508 C1510 1.356 . S
N1508 H1520 0.984 . S
N1508 H1521 0.985 . S
N1509 C1511 1.356 . S
N1509 H1514 0.984 . S
N1509 H1515 0.985 . S
C1510 C1504 1.379 . S
C1510 C1507 1.363 . S
C1510 N1508 1.356 . S
C1511 C1505 1.363 . S
C1511 C1506 1.379 . S
C1511 N1509 1.356 . S
N1512 C1504 1.356 . S
N1512 H1518 0.984 . S
N1512 H1519 0.984 . S
N1513 C1506 1.356 . S
N1513 H1516 0.984 . S
N1513 H1517 0.985 . S
H1514 N1509 0.984 . S
H1515 N1509 0.985 . S
H1516 N1513 0.984 . S
H1517 N1513 0.985 . S
H1518 N1512 0.984 . S
H1519 N1512 0.984 . S
H1520 N1508 0.984 . S
H1521 N1508 0.985 . S
C1522 C1523 1.363 . S
C1522 C1528 1.379 . S
C1522 N1530 1.356 . S
C1523 C1522 1.363 . S
C1523 C1529 1.363 1_565 S
C1524 C1525 1.363 . S
C1524 C1529 1.379 . S
C1524 N1531 1.356 . S
C1525 C1524 1.363 . S
C1525 C1528 1.363 1_545 S
N1526 C1528 1.356 . S
N1526 H1538 0.984 . S
N1526 H1539 0.985 . S
N1527 C1529 1.356 . S
N1527 H1532 0.984 . S
N1527 H1533 0.985 . S
C1528 C1522 1.379 . S
C1528 C1525 1.363 1_565 S
C1528 N1526 1.356 . S
C1529 C1523 1.363 1_545 S
C1529 C1524 1.379 . S
C1529 N1527 1.356 . S
N1530 C1522 1.356 . S
N1530 H1536 0.984 . S
N1530 H1537 0.984 . S
N1531 C1524 1.356 . S
N1531 H1534 0.984 . S
N1531 H1535 0.985 . S
H1532 N1527 0.984 . S
H1533 N1527 0.985 . S
H1534 N1531 0.984 . S
H1535 N1531 0.985 . S
H1536 N1530 0.984 . S
H1537 N1530 0.984 . S
H1538 N1526 0.984 . S
H1539 N1526 0.985 . S
C1540 C1541 1.363 1_545 S
C1540 C1546 1.379 1_556 S
C1540 N1548 1.356 . S
C1541 C1540 1.363 1_565 S
C1541 C1547 1.363 . S
C1542 C1543 1.363 1_565 S
C1542 C1547 1.379 1_554 S
C1542 N1549 1.356 . S
C1543 C1542 1.363 1_545 S
C1543 C1546 1.363 . S
N1544 C1546 1.356 . S
N1544 H1556 0.984 . S
N1544 H1557 0.985 . S
N1545 C1547 1.356 . S
N1545 H1550 0.984 . S
N1545 H1551 0.985 . S
C1546 C1540 1.379 1_554 S
C1546 C1543 1.363 . S
C1546 N1544 1.356 . S
C1547 C1541 1.363 . S
C1547 C1542 1.379 1_556 S
C1547 N1545 1.356 . S
N1548 C1540 1.356 . S
N1548 H1554 0.984 . S
N1548 H1555 0.984 . S
N1549 C1542 1.356 . S
N1549 H1552 0.984 . S
N1549 H1553 0.985 . S
H1550 N1545 0.984 . S
H1551 N1545 0.985 . S
H1552 N1549 0.984 . S
H1553 N1549 0.985 . S
H1554 N1548 0.984 . S
H1555 N1548 0.984 . S
H1556 N1544 0.984 . S
H1557 N1544 0.985 . S
C1558 C1559 1.363 . S
C1558 C1564 1.379 1_556 S
C1558 N1566 1.356 . S
C1559 C1558 1.363 . S
C1559 C1565 1.363 . S
C1560 C1561 1.363 . S
C1560 C1565 1.379 1_554 S
C1560 N1567 1.356 . S
C1561 C1560 1.363 . S
C1561 C1564 1.363 . S
N1562 C1564 1.356 . S
N1562 H1574 0.984 . S
N1562 H1575 0.985 . S
N1563 C1565 1.356 . S
N1563 H1568 0.984 . S
N1563 H1569 0.985 . S
C1564 C1558 1.379 1_554 S
C1564 C1561 1.363 . S
C1564 N1562 1.356 . S
C1565 C1559 1.363 . S
C1565 C1560 1.379 1_556 S
C1565 N1563 1.356 . S
N1566 C1558 1.356 . S
N1566 H1572 0.984 . S
N1566 H1573 0.984 . S
N1567 C1560 1.356 . S
N1567 H1570 0.984 . S
N1567 H1571 0.985 . S
H1568 N1563 0.984 . S
H1569 N1563 0.985 . S
H1570 N1567 0.984 . S
H1571 N1567 0.985 . S
H1572 N1566 0.984 . S
H1573 N1566 0.984 . S
H1574 N1562 0.984 . S
H1575 N1562 0.985 . S
C1576 C1577 1.363 . S
C1576 C1582 1.379 . S
C1576 N1584 1.356 . S
C1577 C1576 1.363 . S
C1577 C1583 1.363 . S
C1578 C1579 1.363 . S
C1578 C1583 1.379 . S
C1578 N1585 1.356 . S
C1579 C1578 1.363 . S
C1579 C1582 1.363 . S
N1580 C1582 1.356 . S
N1580 H1592 0.984 . S
N1580 H1593 0.985 . S
N1581 C1583 1.356 . S
N1581 H1586 0.984 . S
N1581 H1587 0.985 . S
C1582 C1576 1.379 . S
C1582 C1579 1.363 . S
C1582 N1580 1.356 . S
C1583 C1577 1.363 . S
C1583 C1578 1.379 . S
C1583 N1581 1.356 . S
N1584 C1576 1.356 . S
N1584 H1590 0.984 . S
N1584 H1591 0.984 . S
N1585 C1578 1.356 . S
N1585 H1588 0.984 . S
N1585 H1589 0.985 . S
H1586 N1581 0.984 . S
H1587 N1581 0.985 . S
H1588 N1585 0.984 . S
H1589 N1585 0.985 . S
H1590 N1584 0.984 . S
H1591 N1584 0.984 . S
H1592 N1580 0.984 . S
H1593 N1580 0.985 . S
C1594 C1595 1.363 1_565 S
C1594 C1600 1.379 . S
C1594 N1602 1.356 . S
C1595 C1594 1.363 1_545 S
C1595 C1601 1.363 . S
C1596 C1597 1.363 1_545 S
C1596 C1601 1.379 . S
C1596 N1603 1.356 . S
C1597 C1596 1.363 1_565 S
C1597 C1600 1.363 . S
N1598 C1600 1.356 . S
N1598 H1610 0.984 . S
N1598 H1611 0.985 . S
N1599 C1601 1.356 . S
N1599 H1604 0.984 . S
N1599 H1605 0.985 . S
C1600 C1594 1.379 . S
C1600 C1597 1.363 . S
C1600 N1598 1.356 . S
C1601 C1595 1.363 . S
C1601 C1596 1.379 . S
C1601 N1599 1.356 . S
N1602 C1594 1.356 . S
N1602 H1608 0.984 . S
N1602 H1609 0.984 1_565 S
N1603 C1596 1.356 . S
N1603 H1606 0.984 1_545 S
N1603 H1607 0.985 . S
H1604 N1599 0.984 . S
H1605 N1599 0.985 . S
H1606 N1603 0.984 1_565 S
H1607 N1603 0.985 . S
H1608 N1602 0.984 . S
H1609 N1602 0.984 1_545 S
H1610 N1598 0.984 . S
H1611 N1598 0.985 . S
C1612 C1613 1.363 1_545 S
C1612 C1618 1.379 1_556 S
C1612 N1620 1.356 . S
C1613 C1612 1.363 1_565 S
C1613 C1619 1.363 . S
C1614 C1615 1.363 1_565 S
C1614 C1619 1.379 1_554 S
C1614 N1621 1.356 . S
C1615 C1614 1.363 1_545 S
C1615 C1618 1.363 . S
N1616 C1618 1.356 . S
N1616 H1628 0.984 . S
N1616 H1629 0.985 . S
N1617 C1619 1.356 . S
N1617 H1622 0.984 . S
N1617 H1623 0.985 . S
C1618 C1612 1.379 1_554 S
C1618 C1615 1.363 . S
C1618 N1616 1.356 . S
C1619 C1613 1.363 . S
C1619 C1614 1.379 1_556 S
C1619 N1617 1.356 . S
N1620 C1612 1.356 . S
N1620 H1626 0.984 . S
N1620 H1627 0.984 . S
N1621 C1614 1.356 . S
N1621 H1624 0.984 . S
N1621 H1625 0.985 . S
H1622 N1617 0.984 . S
H1623 N1617 0.985 . S
H1624 N1621 0.984 . S
H1625 N1621 0.985 . S
H1626 N1620 0.984 . S
H1627 N1620 0.984 . S
H1628 N1616 0.984 . S
H1629 N1616 0.985 . S
C1630 C1631 1.363 . S
C1630 C1636 1.379 1_556 S
C1630 N1638 1.356 . S
C1631 C1630 1.363 . S
C1631 C1637 1.363 . S
C1632 C1633 1.363 . S
C1632 C1637 1.379 1_554 S
C1632 N1639 1.356 . S
C1633 C1632 1.363 . S
C1633 C1636 1.363 . S
N1634 C1636 1.356 . S
N1634 H1646 0.984 . S
N1634 H1647 0.985 . S
N1635 C1637 1.356 . S
N1635 H1640 0.984 . S
N1635 H1641 0.985 . S
C1636 C1630 1.379 1_554 S
C1636 C1633 1.363 . S
C1636 N1634 1.356 . S
C1637 C1631 1.363 . S
C1637 C1632 1.379 1_556 S
C1637 N1635 1.356 . S
N1638 C1630 1.356 . S
N1638 H1644 0.984 . S
N1638 H1645 0.984 . S
N1639 C1632 1.356 . S
N1639 H1642 0.984 . S
N1639 H1643 0.985 . S
H1640 N1635 0.984 . S
H1641 N1635 0.985 . S
H1642 N1639 0.984 . S
H1643 N1639 0.985 . S
H1644 N1638 0.984 . S
H1645 N1638 0.984 . S
H1646 N1634 0.984 . S
H1647 N1634 0.985 . S
C1648 C1649 1.363 . S
C1648 C1654 1.379 . S
C1648 N1656 1.356 . S
C1649 C1648 1.363 . S
C1649 C1655 1.363 . S
C1650 C1651 1.363 . S
C1650 C1655 1.379 . S
C1650 N1657 1.356 . S
C1651 C1650 1.363 . S
C1651 C1654 1.363 . S
N1652 C1654 1.356 . S
N1652 H1664 0.984 . S
N1652 H1665 0.985 . S
N1653 C1655 1.356 . S
N1653 H1658 0.984 . S
N1653 H1659 0.985 . S
C1654 C1648 1.379 . S
C1654 C1651 1.363 . S
C1654 N1652 1.356 . S
C1655 C1649 1.363 . S
C1655 C1650 1.379 . S
C1655 N1653 1.356 . S
N1656 C1648 1.356 . S
N1656 H1662 0.984 . S
N1656 H1663 0.984 . S
N1657 C1650 1.356 . S
N1657 H1660 0.984 . S
N1657 H1661 0.985 . S
H1658 N1653 0.984 . S
H1659 N1653 0.985 . S
H1660 N1657 0.984 . S
H1661 N1657 0.985 . S
H1662 N1656 0.984 . S
H1663 N1656 0.984 . S
H1664 N1652 0.984 . S
H1665 N1652 0.985 . S
C1666 C1667 1.363 . S
C1666 C1672 1.379 . S
C1666 N1674 1.356 . S
C1667 C1666 1.363 . S
C1667 C1673 1.363 . S
C1668 C1669 1.363 . S
C1668 C1673 1.379 . S
C1668 N1675 1.356 . S
C1669 C1668 1.363 . S
C1669 C1672 1.363 . S
N1670 C1672 1.356 . S
N1670 H1682 0.984 . S
N1670 H1683 0.985 . S
N1671 C1673 1.356 . S
N1671 H1676 0.984 . S
N1671 H1677 0.985 . S
C1672 C1666 1.379 . S
C1672 C1669 1.363 . S
C1672 N1670 1.356 . S
C1673 C1667 1.363 . S
C1673 C1668 1.379 . S
C1673 N1671 1.356 . S
N1674 C1666 1.356 . S
N1674 H1680 0.984 . S
N1674 H1681 0.984 . S
N1675 C1668 1.356 . S
N1675 H1678 0.984 . S
N1675 H1679 0.985 . S
H1676 N1671 0.984 . S
H1677 N1671 0.985 . S
H1678 N1675 0.984 . S
H1679 N1675 0.985 . S
H1680 N1674 0.984 . S
H1681 N1674 0.984 . S
H1682 N1670 0.984 . S
H1683 N1670 0.985 . S
C1684 C1685 1.363 . S
C1684 C1690 1.379 . S
C1684 N1692 1.356 . S
C1685 C1684 1.363 . S
C1685 C1691 1.363 . S
C1686 C1687 1.363 . S
C1686 C1691 1.379 . S
C1686 N1693 1.356 . S
C1687 C1686 1.363 . S
C1687 C1690 1.363 . S
N1688 C1690 1.356 . S
N1688 H1700 0.984 . S
N1688 H1701 0.985 . S
N1689 C1691 1.356 . S
N1689 H1694 0.984 . S
N1689 H1695 0.985 . S
C1690 C1684 1.379 . S
C1690 C1687 1.363 . S
C1690 N1688 1.356 . S
C1691 C1685 1.363 . S
C1691 C1686 1.379 . S
C1691 N1689 1.356 . S
N1692 C1684 1.356 . S
N1692 H1698 0.984 . S
N1692 H1699 0.984 . S
N1693 C1686 1.356 . S
N1693 H1696 0.984 . S
N1693 H1697 0.985 . S
H1694 N1689 0.984 . S
H1695 N1689 0.985 . S
H1696 N1693 0.984 . S
H1697 N1693 0.985 . S
H1698 N1692 0.984 . S
H1699 N1692 0.984 . S
H1700 N1688 0.984 . S
H1701 N1688 0.985 . S
C1702 C1703 1.363 . S
C1702 C1708 1.379 . S
C1702 N1710 1.356 . S
C1703 C1702 1.363 . S
C1703 C1709 1.363 . S
C1704 C1705 1.363 . S
C1704 C1709 1.379 . S
C1704 N1711 1.356 . S
C1705 C1704 1.363 . S
C1705 C1708 1.363 . S
N1706 C1708 1.356 . S
N1706 H1718 0.984 . S
N1706 H1719 0.985 . S
N1707 C1709 1.356 . S
N1707 H1712 0.984 . S
N1707 H1713 0.985 . S
C1708 C1702 1.379 . S
C1708 C1705 1.363 . S
C1708 N1706 1.356 . S
C1709 C1703 1.363 . S
C1709 C1704 1.379 . S
C1709 N1707 1.356 . S
N1710 C1702 1.356 . S
N1710 H1716 0.984 . S
N1710 H1717 0.984 . S
N1711 C1704 1.356 . S
N1711 H1714 0.984 . S
N1711 H1715 0.985 . S
H1712 N1707 0.984 . S
H1713 N1707 0.985 . S
H1714 N1711 0.984 . S
H1715 N1711 0.985 . S
H1716 N1710 0.984 . S
H1717 N1710 0.984 . S
H1718 N1706 0.984 . S
H1719 N1706 0.985 . S
C1720 C1721 1.363 . S
C1720 C1726 1.379 . S
C1720 N1728 1.356 . S
C1721 C1720 1.363 . S
C1721 C1727 1.363 . S
C1722 C1723 1.363 . S
C1722 C1727 1.379 . S
C1722 N1729 1.356 . S
C1723 C1722 1.363 . S
C1723 C1726 1.363 . S
N1724 C1726 1.356 . S
N1724 H1736 0.984 . S
N1724 H1737 0.985 . S
N1725 C1727 1.356 . S
N1725 H1730 0.984 . S
N1725 H1731 0.985 . S
C1726 C1720 1.379 . S
C1726 C1723 1.363 . S
C1726 N1724 1.356 . S
C1727 C1721 1.363 . S
C1727 C1722 1.379 . S
C1727 N1725 1.356 . S
N1728 C1720 1.356 . S
N1728 H1734 0.984 . S
N1728 H1735 0.984 . S
N1729 C1722 1.356 . S
N1729 H1732 0.984 . S
N1729 H1733 0.985 . S
H1730 N1725 0.984 . S
H1731 N1725 0.985 . S
H1732 N1729 0.984 . S
H1733 N1729 0.985 . S
H1734 N1728 0.984 . S
H1735 N1728 0.984 . S
H1736 N1724 0.984 . S
H1737 N1724 0.985 . S
C1738 C1739 1.363 . S
C1738 C1744 1.379 . S
C1738 N1746 1.356 . S
C1739 C1738 1.363 . S
C1739 C1745 1.363 . S
C1740 C1741 1.363 . S
C1740 C1745 1.379 . S
C1740 N1747 1.356 . S
C1741 C1740 1.363 . S
C1741 C1744 1.363 . S
N1742 C1744 1.356 . S
N1742 H1754 0.984 . S
N1742 H1755 0.985 . S
N1743 C1745 1.356 . S
N1743 H1748 0.984 . S
N1743 H1749 0.985 . S
C1744 C1738 1.379 . S
C1744 C1741 1.363 . S
C1744 N1742 1.356 . S
C1745 C1739 1.363 . S
C1745 C1740 1.379 . S
C1745 N1743 1.356 . S
N1746 C1738 1.356 . S
N1746 H1752 0.984 . S
N1746 H1753 0.984 . S
N1747 C1740 1.356 . S
N1747 H1750 0.984 . S
N1747 H1751 0.985 . S
H1748 N1743 0.984 . S
H1749 N1743 0.985 . S
H1750 N1747 0.984 . S
H1751 N1747 0.985 . S
H1752 N1746 0.984 . S
H1753 N1746 0.984 . S
H1754 N1742 0.984 . S
H1755 N1742 0.985 . S
C1756 C1757 1.363 . S
C1756 C1762 1.379 . S
C1756 N1764 1.356 . S
C1757 C1756 1.363 . S
C1757 C1763 1.363 . S
C1758 C1759 1.363 . S
C1758 C1763 1.379 . S
C1758 N1765 1.356 . S
C1759 C1758 1.363 . S
C1759 C1762 1.363 . S
N1760 C1762 1.356 . S
N1760 H1772 0.984 . S
N1760 H1773 0.985 . S
N1761 C1763 1.356 . S
N1761 H1766 0.984 . S
N1761 H1767 0.985 . S
C1762 C1756 1.379 . S
C1762 C1759 1.363 . S
C1762 N1760 1.356 . S
C1763 C1757 1.363 . S
C1763 C1758 1.379 . S
C1763 N1761 1.356 . S
N1764 C1756 1.356 . S
N1764 H1770 0.984 . S
N1764 H1771 0.984 . S
N1765 C1758 1.356 . S
N1765 H1768 0.984 . S
N1765 H1769 0.985 . S
H1766 N1761 0.984 . S
H1767 N1761 0.985 . S
H1768 N1765 0.984 . S
H1769 N1765 0.985 . S
H1770 N1764 0.984 . S
H1771 N1764 0.984 . S
H1772 N1760 0.984 . S
H1773 N1760 0.985 . S
C1774 C1775 1.363 . S
C1774 C1780 1.379 . S
C1774 N1782 1.356 . S
C1775 C1774 1.363 . S
C1775 C1781 1.363 . S
C1776 C1777 1.363 . S
C1776 C1781 1.379 . S
C1776 N1783 1.356 . S
C1777 C1776 1.363 . S
C1777 C1780 1.363 . S
N1778 C1780 1.356 . S
N1778 H1790 0.984 . S
N1778 H1791 0.985 . S
N1779 C1781 1.356 . S
N1779 H1784 0.984 . S
N1779 H1785 0.985 . S
C1780 C1774 1.379 . S
C1780 C1777 1.363 . S
C1780 N1778 1.356 . S
C1781 C1775 1.363 . S
C1781 C1776 1.379 . S
C1781 N1779 1.356 . S
N1782 C1774 1.356 . S
N1782 H1788 0.984 . S
N1782 H1789 0.984 . S
N1783 C1776 1.356 . S
N1783 H1786 0.984 . S
N1783 H1787 0.985 . S
H1784 N1779 0.984 . S
H1785 N1779 0.985 . S
H1786 N1783 0.984 . S
H1787 N1783 0.985 . S
H1788 N1782 0.984 . S
H1789 N1782 0.984 . S
H1790 N1778 0.984 . S
H1791 N1778 0.985 . S
C1792 C1793 1.363 . S
C1792 C1798 1.379 . S
C1792 N1800 1.356 . S
C1793 C1792 1.363 . S
C1793 C1799 1.363 . S
C1794 C1795 1.363 . S
C1794 C1799 1.379 . S
C1794 N1801 1.356 . S
C1795 C1794 1.363 . S
C1795 C1798 1.363 . S
N1796 C1798 1.356 . S
N1796 H1808 0.984 . S
N1796 H1809 0.985 . S
N1797 C1799 1.356 . S
N1797 H1802 0.984 . S
N1797 H1803 0.985 . S
C1798 C1792 1.379 . S
C1798 C1795 1.363 . S
C1798 N1796 1.356 . S
C1799 C1793 1.363 . S
C1799 C1794 1.379 . S
C1799 N1797 1.356 . S
N1800 C1792 1.356 . S
N1800 H1806 0.984 . S
N1800 H1807 0.984 . S
N1801 C1794 1.356 . S
N1801 H1804 0.984 . S
N1801 H1805 0.985 . S
H1802 N1797 0.984 . S
H1803 N1797 0.985 . S
H1804 N1801 0.984 . S
H1805 N1801 0.985 . S
H1806 N1800 0.984 . S
H1807 N1800 0.984 . S
H1808 N1796 0.984 . S
H1809 N1796 0.985 . S
C1810 C1811 1.363 . S
C1810 C1816 1.379 . S
C1810 N1818 1.356 . S
C1811 C1810 1.363 . S
C1811 C1817 1.363 . S
C1812 C1813 1.363 . S
C1812 C1817 1.379 . S
C1812 N1819 1.356 . S
C1813 C1812 1.363 . S
C1813 C1816 1.363 . S
N1814 C1816 1.356 . S
N1814 H1826 0.984 . S
N1814 H1827 0.985 . S
N1815 C1817 1.356 . S
N1815 H1820 0.984 . S
N1815 H1821 0.985 . S
C1816 C1810 1.379 . S
C1816 C1813 1.363 . S
C1816 N1814 1.356 . S
C1817 C1811 1.363 . S
C1817 C1812 1.379 . S
C1817 N1815 1.356 . S
N1818 C1810 1.356 . S
N1818 H1824 0.984 . S
N1818 H1825 0.984 . S
N1819 C1812 1.356 . S
N1819 H1822 0.984 . S
N1819 H1823 0.985 . S
H1820 N1815 0.984 . S
H1821 N1815 0.985 . S
H1822 N1819 0.984 . S
H1823 N1819 0.985 . S
H1824 N1818 0.984 . S
H1825 N1818 0.984 . S
H1826 N1814 0.984 . S
H1827 N1814 0.985 . S
C1828 C1829 1.363 . S
C1828 C1834 1.379 . S
C1828 N1836 1.356 . S
C1829 C1828 1.363 . S
C1829 C1835 1.363 . S
C1830 C1831 1.363 . S
C1830 C1835 1.379 . S
C1830 N1837 1.356 . S
C1831 C1830 1.363 . S
C1831 C1834 1.363 . S
N1832 C1834 1.356 . S
N1832 H1844 0.984 . S
N1832 H1845 0.985 . S
N1833 C1835 1.356 1_554 S
N1833 H1838 0.984 . S
N1833 H1839 0.985 . S
C1834 C1828 1.379 . S
C1834 C1831 1.363 . S
C1834 N1832 1.356 . S
C1835 C1829 1.363 . S
C1835 C1830 1.379 . S
C1835 N1833 1.356 1_556 S
N1836 C1828 1.356 . S
N1836 H1842 0.984 . S
N1836 H1843 0.984 . S
N1837 C1830 1.356 . S
N1837 H1840 0.984 . S
N1837 H1841 0.985 . S
H1838 N1833 0.984 . S
H1839 N1833 0.985 . S
H1840 N1837 0.984 . S
H1841 N1837 0.985 . S
H1842 N1836 0.984 . S
H1843 N1836 0.984 . S
H1844 N1832 0.984 . S
H1845 N1832 0.985 . S
C1846 C1847 1.363 . S
C1846 C1852 1.379 . S
C1846 N1854 1.356 . S
C1847 C1846 1.363 . S
C1847 C1853 1.363 . S
C1848 C1849 1.363 . S
C1848 C1853 1.379 . S
C1848 N1855 1.356 . S
C1849 C1848 1.363 . S
C1849 C1852 1.363 . S
N1850 C1852 1.356 1_554 S
N1850 H1862 0.984 . S
N1850 H1863 0.985 . S
N1851 C1853 1.356 . S
N1851 H1856 0.984 . S
N1851 H1857 0.985 . S
C1852 C1846 1.379 . S
C1852 C1849 1.363 . S
C1852 N1850 1.356 1_556 S
C1853 C1847 1.363 . S
C1853 C1848 1.379 . S
C1853 N1851 1.356 . S
N1854 C1846 1.356 . S
N1854 H1860 0.984 . S
N1854 H1861 0.984 . S
N1855 C1848 1.356 . S
N1855 H1858 0.984 . S
N1855 H1859 0.985 . S
H1856 N1851 0.984 . S
H1857 N1851 0.985 . S
H1858 N1855 0.984 . S
H1859 N1855 0.985 . S
H1860 N1854 0.984 . S
H1861 N1854 0.984 . S
H1862 N1850 0.984 . S
H1863 N1850 0.985 . S
C1864 C1865 1.363 . S
C1864 C1870 1.379 . S
C1864 N1872 1.356 . S
C1865 C1864 1.363 . S
C1865 C1871 1.363 . S
C1866 C1867 1.363 . S
C1866 C1871 1.379 . S
C1866 N1873 1.356 . S
C1867 C1866 1.363 . S
C1867 C1870 1.363 . S
N1868 C1870 1.356 . S
N1868 H1880 0.984 . S
N1868 H1881 0.985 . S
N1869 C1871 1.356 . S
N1869 H1874 0.984 . S
N1869 H1875 0.985 . S
C1870 C1864 1.379 . S
C1870 C1867 1.363 . S
C1870 N1868 1.356 . S
C1871 C1865 1.363 . S
C1871 C1866 1.379 . S
C1871 N1869 1.356 . S
N1872 C1864 1.356 . S
N1872 H1878 0.984 . S
N1872 H1879 0.984 . S
N1873 C1866 1.356 . S
N1873 H1876 0.984 . S
N1873 H1877 0.985 . S
H1874 N1869 0.984 . S
H1875 N1869 0.985 . S
H1876 N1873 0.984 . S
H1877 N1873 0.985 . S
H1878 N1872 0.984 . S
H1879 N1872 0.984 . S
H1880 N1868 0.984 . S
H1881 N1868 0.985 . S
C1882 C1883 1.363 . S
C1882 C1888 1.379 . S
C1882 N1890 1.356 . S
C1883 C1882 1.363 . S
C1883 C1889 1.363 . S
C1884 C1885 1.363 . S
C1884 C1889 1.379 . S
C1884 N1891 1.356 . S
C1885 C1884 1.363 . S
C1885 C1888 1.363 . S
N1886 C1888 1.356 . S
N1886 H1898 0.984 . S
N1886 H1899 0.985 . S
N1887 C1889 1.356 . S
N1887 H1892 0.984 . S
N1887 H1893 0.985 . S
C1888 C1882 1.379 . S
C1888 C1885 1.363 . S
C1888 N1886 1.356 . S
C1889 C1883 1.363 . S
C1889 C1884 1.379 . S
C1889 N1887 1.356 . S
N1890 C1882 1.356 . S
N1890 H1896 0.984 . S
N1890 H1897 0.984 . S
N1891 C1884 1.356 . S
N1891 H1894 0.984 . S
N1891 H1895 0.985 . S
H1892 N1887 0.984 . S
H1893 N1887 0.985 . S
H1894 N1891 0.984 . S
H1895 N1891 0.985 . S
H1896 N1890 0.984 . S
H1897 N1890 0.984 . S
H1898 N1886 0.984 . S
H1899 N1886 0.985 . S
C1900 C1901 1.363 . S
C1900 C1906 1.379 . S
C1900 N1908 1.356 1_554 S
C1901 C1900 1.363 . S
C1901 C1907 1.363 . S
C1902 C1903 1.363 . S
C1902 C1907 1.379 . S
C1902 N1909 1.356 . S
C1903 C1902 1.363 . S
C1903 C1906 1.363 . S
N1904 C1906 1.356 . S
N1904 H1916 0.984 . S
N1904 H1917 0.985 . S
N1905 C1907 1.356 . S
N1905 H1910 0.984 . S
N1905 H1911 0.985 . S
C1906 C1900 1.379 . S
C1906 C1903 1.363 . S
C1906 N1904 1.356 . S
C1907 C1901 1.363 . S
C1907 C1902 1.379 . S
C1907 N1905 1.356 . S
N1908 C1900 1.356 1_556 S
N1908 H1914 0.984 . S
N1908 H1915 0.984 . S
N1909 C1902 1.356 . S
N1909 H1912 0.984 . S
N1909 H1913 0.985 . S
H1910 N1905 0.984 . S
H1911 N1905 0.985 . S
H1912 N1909 0.984 . S
H1913 N1909 0.985 . S
H1914 N1908 0.984 . S
H1915 N1908 0.984 . S
H1916 N1904 0.984 . S
H1917 N1904 0.985 . S
C1918 C1919 1.363 . S
C1918 C1924 1.379 . S
C1918 N1926 1.356 . S
C1919 C1918 1.363 . S
C1919 C1925 1.363 . S
C1920 C1921 1.363 . S
C1920 C1925 1.379 . S
C1920 N1927 1.356 . S
C1921 C1920 1.363 . S
C1921 C1924 1.363 . S
N1922 C1924 1.356 . S
N1922 H1934 0.984 . S
N1922 H1935 0.985 . S
N1923 C1925 1.356 . S
N1923 H1928 0.984 . S
N1923 H1929 0.985 . S
C1924 C1918 1.379 . S
C1924 C1921 1.363 . S
C1924 N1922 1.356 . S
C1925 C1919 1.363 . S
C1925 C1920 1.379 . S
C1925 N1923 1.356 . S
N1926 C1918 1.356 . S
N1926 H1932 0.984 1_554 S
N1926 H1933 0.984 1_554 S
N1927 C1920 1.356 . S
N1927 H1930 0.984 . S
N1927 H1931 0.985 . S
H1928 N1923 0.984 . S
H1929 N1923 0.985 . S
H1930 N1927 0.984 . S
H1931 N1927 0.985 . S
H1932 N1926 0.984 1_556 S
H1933 N1926 0.984 1_556 S
H1934 N1922 0.984 . S
H1935 N1922 0.985 . S
C1936 C1937 1.363 . S
C1936 C1942 1.379 . S
C1936 N1944 1.356 . S
C1937 C1936 1.363 . S
C1937 C1943 1.363 . S
C1938 C1939 1.363 . S
C1938 C1943 1.379 . S
C1938 N1945 1.356 . S
C1939 C1938 1.363 . S
C1939 C1942 1.363 . S
N1940 C1942 1.356 . S
N1940 H1952 0.984 . S
N1940 H1953 0.985 . S
N1941 C1943 1.356 1_554 S
N1941 H1946 0.984 . S
N1941 H1947 0.985 . S
C1942 C1936 1.379 . S
C1942 C1939 1.363 . S
C1942 N1940 1.356 . S
C1943 C1937 1.363 . S
C1943 C1938 1.379 . S
C1943 N1941 1.356 1_556 S
N1944 C1936 1.356 . S
N1944 H1950 0.984 . S
N1944 H1951 0.984 . S
N1945 C1938 1.356 . S
N1945 H1948 0.984 . S
N1945 H1949 0.985 . S
H1946 N1941 0.984 . S
H1947 N1941 0.985 . S
H1948 N1945 0.984 . S
H1949 N1945 0.985 . S
H1950 N1944 0.984 . S
H1951 N1944 0.984 . S
H1952 N1940 0.984 . S
H1953 N1940 0.985 . S
C1954 C1955 1.363 . S
C1954 C1960 1.379 . S
C1954 N1962 1.356 . S
C1955 C1954 1.363 . S
C1955 C1961 1.363 . S
C1956 C1957 1.363 . S
C1956 C1961 1.379 . S
C1956 N1963 1.356 1_556 S
C1957 C1956 1.363 . S
C1957 C1960 1.363 . S
N1958 C1960 1.356 . S
N1958 H1970 0.984 . S
N1958 H1971 0.985 . S
N1959 C1961 1.356 . S
N1959 H1964 0.984 . S
N1959 H1965 0.985 . S
C1960 C1954 1.379 . S
C1960 C1957 1.363 . S
C1960 N1958 1.356 . S
C1961 C1955 1.363 . S
C1961 C1956 1.379 . S
C1961 N1959 1.356 . S
N1962 C1954 1.356 . S
N1962 H1968 0.984 . S
N1962 H1969 0.984 . S
N1963 C1956 1.356 1_554 S
N1963 H1966 0.984 . S
N1963 H1967 0.985 . S
H1964 N1959 0.984 . S
H1965 N1959 0.985 . S
H1966 N1963 0.984 . S
H1967 N1963 0.985 . S
H1968 N1962 0.984 . S
H1969 N1962 0.984 . S
H1970 N1958 0.984 . S
H1971 N1958 0.985 . S
C1972 C1973 1.363 . S
C1972 C1978 1.379 . S
C1972 N1980 1.356 . S
C1973 C1972 1.363 . S
C1973 C1979 1.363 . S
C1974 C1975 1.363 . S
C1974 C1979 1.379 . S
C1974 N1981 1.356 . S
C1975 C1974 1.363 . S
C1975 C1978 1.363 . S
N1976 C1978 1.356 . S
N1976 H1988 0.984 . S
N1976 H1989 0.985 . S
N1977 C1979 1.356 . S
N1977 H1982 0.984 . S
N1977 H1983 0.985 . S
C1978 C1972 1.379 . S
C1978 C1975 1.363 . S
C1978 N1976 1.356 . S
C1979 C1973 1.363 . S
C1979 C1974 1.379 . S
C1979 N1977 1.356 . S
N1980 C1972 1.356 . S
N1980 H1986 0.984 . S
N1980 H1987 0.984 . S
N1981 C1974 1.356 . S
N1981 H1984 0.984 . S
N1981 H1985 0.985 . S
H1982 N1977 0.984 . S
H1983 N1977 0.985 . S
H1984 N1981 0.984 . S
H1985 N1981 0.985 . S
H1986 N1980 0.984 . S
H1987 N1980 0.984 . S
H1988 N1976 0.984 . S
H1989 N1976 0.985 . S
C1990 C1991 1.363 . S
C1990 C1996 1.379 . S
C1990 N1998 1.356 . S
C1991 C1990 1.363 . S
C1991 C1997 1.363 . S
C1992 C1993 1.363 . S
C1992 C1997 1.379 . S
C1992 N1999 1.356 . S
C1993 C1992 1.363 . S
C1993 C1996 1.363 . S
N1994 C1996 1.356 . S
N1994 H2006 0.984 . S
N1994 H2007 0.985 . S
N1995 C1997 1.356 . S
N1995 H2000 0.984 . S
N1995 H2001 0.985 . S
C1996 C1990 1.379 . S
C1996 C1993 1.363 . S
C1996 N1994 1.356 . S
C1997 C1991 1.363 . S
C1997 C1992 1.379 . S
C1997 N1995 1.356 . S
N1998 C1990 1.356 . S
N1998 H2004 0.984 . S
N1998 H2005 0.984 . S
N1999 C1992 1.356 . S
N1999 H2002 0.984 . S
N1999 H2003 0.985 . S
H2000 N1995 0.984 . S
H2001 N1995 0.985 . S
H2002 N1999 0.984 . S
H2003 N1999 0.985 . S
H2004 N1998 0.984 . S
H2005 N1998 0.984 . S
H2006 N1994 0.984 . S
H2007 N1994 0.985 . S
C2008 C2009 1.363 . S
C2008 C2014 1.379 . S
C2008 N2016 1.356 . S
C2009 C2008 1.363 . S
C2009 C2015 1.363 . S
C2010 C2011 1.363 . S
C2010 C2015 1.379 . S
C2010 N2017 1.356 . S
C2011 C2010 1.363 . S
C2011 C2014 1.363 . S
N2012 C2014 1.356 . S
N2012 H2024 0.984 . S
N2012 H2025 0.985 . S
N2013 C2015 1.356 1_556 S
N2013 H2018 0.984 . S
N2013 H2019 0.985 . S
C2014 C2008 1.379 . S
C2014 C2011 1.363 . S
C2014 N2012 1.356 . S
C2015 C2009 1.363 . S
C2015 C2010 1.379 . S
C2015 N2013 1.356 1_554 S
N2016 C2008 1.356 . S
N2016 H2022 0.984 . S
N2016 H2023 0.984 . S
N2017 C2010 1.356 . S
N2017 H2020 0.984 . S
N2017 H2021 0.985 . S
H2018 N2013 0.984 . S
H2019 N2013 0.985 . S
H2020 N2017 0.984 . S
H2021 N2017 0.985 . S
H2022 N2016 0.984 . S
H2023 N2016 0.984 . S
H2024 N2012 0.984 . S
H2025 N2012 0.985 . S
C2026 C2027 1.363 . S
C2026 C2032 1.379 . S
C2026 N2034 1.356 . S
C2027 C2026 1.363 . S
C2027 C2033 1.363 . S
C2028 C2029 1.363 . S
C2028 C2033 1.379 . S
C2028 N2035 1.356 . S
C2029 C2028 1.363 . S
C2029 C2032 1.363 . S
N2030 C2032 1.356 . S
N2030 H2042 0.984 . S
N2030 H2043 0.985 . S
N2031 C2033 1.356 . S
N2031 H2036 0.984 . S
N2031 H2037 0.985 . S
C2032 C2026 1.379 . S
C2032 C2029 1.363 . S
C2032 N2030 1.356 . S
C2033 C2027 1.363 . S
C2033 C2028 1.379 . S
C2033 N2031 1.356 . S
N2034 C2026 1.356 . S
N2034 H2040 0.984 . S
N2034 H2041 0.984 . S
N2035 C2028 1.356 . S
N2035 H2038 0.984 1_554 S
N2035 H2039 0.985 . S
H2036 N2031 0.984 . S
H2037 N2031 0.985 . S
H2038 N2035 0.984 1_556 S
H2039 N2035 0.985 . S
H2040 N2034 0.984 . S
H2041 N2034 0.984 . S
H2042 N2030 0.984 . S
H2043 N2030 0.985 . S
C2044 C2045 1.363 . S
C2044 C2050 1.379 . S
C2044 N2052 1.356 . S
C2045 C2044 1.363 . S
C2045 C2051 1.363 . S
C2046 C2047 1.363 . S
C2046 C2051 1.379 . S
C2046 N2053 1.356 . S
C2047 C2046 1.363 . S
C2047 C2050 1.363 . S
N2048 C2050 1.356 . S
N2048 H2060 0.984 . S
N2048 H2061 0.985 . S
N2049 C2051 1.356 . S
N2049 H2054 0.984 . S
N2049 H2055 0.985 . S
C2050 C2044 1.379 . S
C2050 C2047 1.363 . S
C2050 N2048 1.356 . S
C2051 C2045 1.363 . S
C2051 C2046 1.379 . S
C2051 N2049 1.356 . S
N2052 C2044 1.356 . S
N2052 H2058 0.984 . S
N2052 H2059 0.984 . S
N2053 C2046 1.356 . S
N2053 H2056 0.984 . S
N2053 H2057 0.985 . S
H2054 N2049 0.984 . S
H2055 N2049 0.985 . S
H2056 N2053 0.984 . S
H2057 N2053 0.985 . S
H2058 N2052 0.984 . S
H2059 N2052 0.984 . S
H2060 N2048 0.984 . S
H2061 N2048 0.985 . S
C2062 C2063 1.363 . S
C2062 C2068 1.379 . S
C2062 N2070 1.356 . S
C2063 C2062 1.363 . S
C2063 C2069 1.363 . S
C2064 C2065 1.363 . S
C2064 C2069 1.379 . S
C2064 N2071 1.356 . S
C2065 C2064 1.363 . S
C2065 C2068 1.363 . S
N2066 C2068 1.356 . S
N2066 H2078 0.984 . S
N2066 H2079 0.985 . S
N2067 C2069 1.356 . S
N2067 H2072 0.984 . S
N2067 H2073 0.985 . S
C2068 C2062 1.379 . S
C2068 C2065 1.363 . S
C2068 N2066 1.356 . S
C2069 C2063 1.363 . S
C2069 C2064 1.379 . S
C2069 N2067 1.356 . S
N2070 C2062 1.356 . S
N2070 H2076 0.984 . S
N2070 H2077 0.984 . S
N2071 C2064 1.356 . S
N2071 H2074 0.984 . S
N2071 H2075 0.985 . S
H2072 N2067 0.984 . S
H2073 N2067 0.985 . S
H2074 N2071 0.984 . S
H2075 N2071 0.985 . S
H2076 N2070 0.984 . S
H2077 N2070 0.984 . S
H2078 N2066 0.984 . S
H2079 N2066 0.985 . S
C2080 C2081 1.363 . S
C2080 C2086 1.379 . S
C2080 N2088 1.356 . S
C2081 C2080 1.363 . S
C2081 C2087 1.363 . S
C2082 C2083 1.363 . S
C2082 C2087 1.379 . S
C2082 N2089 1.356 . S
C2083 C2082 1.363 . S
C2083 C2086 1.363 . S
N2084 C2086 1.356 1_556 S
N2084 H2096 0.984 . S
N2084 H2097 0.985 . S
N2085 C2087 1.356 . S
N2085 H2090 0.984 . S
N2085 H2091 0.985 . S
C2086 C2080 1.379 . S
C2086 C2083 1.363 . S
C2086 N2084 1.356 1_554 S
C2087 C2081 1.363 . S
C2087 C2082 1.379 . S
C2087 N2085 1.356 . S
N2088 C2080 1.356 . S
N2088 H2094 0.984 1_554 S
N2088 H2095 0.984 . S
N2089 C2082 1.356 . S
N2089 H2092 0.984 . S
N2089 H2093 0.985 . S
H2090 N2085 0.984 . S
H2091 N2085 0.985 . S
H2092 N2089 0.984 . S
H2093 N2089 0.985 . S
H2094 N2088 0.984 1_556 S
H2095 N2088 0.984 . S
H2096 N2084 0.984 . S
H2097 N2084 0.985 . S
C2098 C2099 1.363 . S
C2098 C2104 1.379 . S
C2098 N2106 1.356 1_554 S
C2099 C2098 1.363 . S
C2099 C2105 1.363 . S
C2100 C2101 1.363 . S
C2100 C2105 1.379 . S
C2100 N2107 1.356 . S
C2101 C2100 1.363 . S
C2101 C2104 1.363 . S
N2102 C2104 1.356 . S
N2102 H2114 0.984 . S
N2102 H2115 0.985 . S
N2103 C2105 1.356 . S
N2103 H2108 0.984 . S
N2103 H2109 0.985 . S
C2104 C2098 1.379 . S
C2104 C2101 1.363 . S
C2104 N2102 1.356 . S
C2105 C2099 1.363 . S
C2105 C2100 1.379 . S
C2105 N2103 1.356 . S
N2106 C2098 1.356 1_556 S
N2106 H2112 0.984 . S
N2106 H2113 0.984 . S
N2107 C2100 1.356 . S
N2107 H2110 0.984 . S
N2107 H2111 0.985 . S
H2108 N2103 0.984 . S
H2109 N2103 0.985 . S
H2110 N2107 0.984 . S
H2111 N2107 0.985 . S
H2112 N2106 0.984 . S
H2113 N2106 0.984 . S
H2114 N2102 0.984 . S
H2115 N2102 0.985 . S
C2116 C2117 1.363 . S
C2116 C2122 1.379 . S
C2116 N2124 1.356 . S
C2117 C2116 1.363 . S
C2117 C2123 1.363 . S
C2118 C2119 1.363 . S
C2118 C2123 1.379 . S
C2118 N2125 1.356 . S
C2119 C2118 1.363 . S
C2119 C2122 1.363 . S
N2120 C2122 1.356 . S
N2120 H2132 0.984 . S
N2120 H2133 0.985 . S
N2121 C2123 1.356 . S
N2121 H2126 0.984 1_556 S
N2121 H2127 0.985 1_556 S
C2122 C2116 1.379 . S
C2122 C2119 1.363 . S
C2122 N2120 1.356 . S
C2123 C2117 1.363 . S
C2123 C2118 1.379 . S
C2123 N2121 1.356 . S
N2124 C2116 1.356 . S
N2124 H2130 0.984 . S
N2124 H2131 0.984 . S
N2125 C2118 1.356 . S
N2125 H2128 0.984 . S
N2125 H2129 0.985 . S
H2126 N2121 0.984 1_554 S
H2127 N2121 0.985 1_554 S
H2128 N2125 0.984 . S
H2129 N2125 0.985 . S
H2130 N2124 0.984 . S
H2131 N2124 0.984 . S
H2132 N2120 0.984 . S
H2133 N2120 0.985 . S
C2134 C2135 1.363 . S
C2134 C2140 1.379 . S
C2134 N2142 1.356 . S
C2135 C2134 1.363 . S
C2135 C2141 1.363 . S
C2136 C2137 1.363 . S
C2136 C2141 1.379 . S
C2136 N2143 1.356 . S
C2137 C2136 1.363 . S
C2137 C2140 1.363 . S
N2138 C2140 1.356 . S
N2138 H2150 0.984 1_556 S
N2138 H2151 0.982 1_556 S
N2139 C2141 1.356 . S
N2139 H2144 0.984 . S
N2139 H2145 0.985 . S
C2140 C2134 1.379 . S
C2140 C2137 1.363 . S
C2140 N2138 1.356 . S
C2141 C2135 1.363 . S
C2141 C2136 1.379 . S
C2141 N2139 1.356 . S
N2142 C2134 1.356 . S
N2142 H2148 0.984 . S
N2142 H2149 0.984 . S
N2143 C2136 1.356 . S
N2143 H2146 0.984 . S
N2143 H2147 0.985 . S
H2144 N2139 0.984 . S
H2145 N2139 0.985 . S
H2146 N2143 0.984 . S
H2147 N2143 0.985 . S
H2148 N2142 0.984 . S
H2149 N2142 0.984 . S
H2150 N2138 0.984 1_554 S
H2151 N2138 0.982 1_554 S
C2152 C2153 1.363 . S
C2152 C2158 1.379 . S
C2152 N2160 1.356 . S
C2153 C2152 1.363 . S
C2153 C2159 1.363 . S
C2154 C2155 1.363 . S
C2154 C2159 1.379 . S
C2154 N2161 1.356 . S
C2155 C2154 1.363 . S
C2155 C2158 1.363 . S
N2156 C2158 1.356 . S
N2156 H2168 0.984 . S
N2156 H2169 0.985 . S
N2157 C2159 1.356 . S
N2157 H2162 0.984 . S
N2157 H2163 0.985 . S
C2158 C2152 1.379 . S
C2158 C2155 1.363 . S
C2158 N2156 1.356 . S
C2159 C2153 1.363 . S
C2159 C2154 1.379 . S
C2159 N2157 1.356 . S
N2160 C2152 1.356 . S
N2160 H2166 0.984 . S
N2160 H2167 0.984 . S
N2161 C2154 1.356 . S
N2161 H2164 0.984 . S
N2161 H2165 0.985 . S
H2162 N2157 0.984 . S
H2163 N2157 0.985 . S
H2164 N2161 0.984 . S
H2165 N2161 0.985 . S
H2166 N2160 0.984 . S
H2167 N2160 0.984 . S
H2168 N2156 0.984 . S
H2169 N2156 0.985 . S
C2170 C2171 1.363 . S
C2170 C2176 1.379 . S
C2170 N2178 1.356 . S
C2171 C2170 1.363 . S
C2171 C2177 1.363 . S
C2172 C2173 1.363 . S
C2172 C2177 1.379 . S
C2172 N2179 1.356 . S
C2173 C2172 1.363 . S
C2173 C2176 1.363 . S
N2174 C2176 1.356 . S
N2174 H2186 0.984 . S
N2174 H2187 0.985 . S
N2175 C2177 1.356 . S
N2175 H2180 0.984 . S
N2175 H2181 0.985 . S
C2176 C2170 1.379 . S
C2176 C2173 1.363 . S
C2176 N2174 1.356 . S
C2177 C2171 1.363 . S
C2177 C2172 1.379 . S
C2177 N2175 1.356 . S
N2178 C2170 1.356 . S
N2178 H2184 0.984 . S
N2178 H2185 0.984 . S
N2179 C2172 1.356 . S
N2179 H2182 0.984 . S
N2179 H2183 0.985 . S
H2180 N2175 0.984 . S
H2181 N2175 0.985 . S
H2182 N2179 0.984 . S
H2183 N2179 0.985 . S
H2184 N2178 0.984 . S
H2185 N2178 0.984 . S
H2186 N2174 0.984 . S
H2187 N2174 0.985 . S
C2188 C2189 1.363 . S
C2188 C2194 1.379 . S
C2188 N2196 1.356 . S
C2189 C2188 1.363 . S
C2189 C2195 1.363 . S
C2190 C2191 1.363 . S
C2190 C2195 1.379 . S
C2190 N2197 1.356 . S
C2191 C2190 1.363 . S
C2191 C2194 1.363 . S
N2192 C2194 1.356 . S
N2192 H2204 0.984 . S
N2192 H2205 0.985 . S
N2193 C2195 1.356 . S
N2193 H2198 0.984 . S
N2193 H2199 0.985 . S
C2194 C2188 1.379 . S
C2194 C2191 1.363 . S
C2194 N2192 1.356 . S
C2195 C2189 1.363 . S
C2195 C2190 1.379 . S
C2195 N2193 1.356 . S
N2196 C2188 1.356 . S
N2196 H2202 0.984 . S
N2196 H2203 0.984 . S
N2197 C2190 1.356 . S
N2197 H2200 0.984 . S
N2197 H2201 0.985 . S
H2198 N2193 0.984 . S
H2199 N2193 0.985 . S
H2200 N2197 0.984 . S
H2201 N2197 0.985 . S
H2202 N2196 0.984 . S
H2203 N2196 0.984 . S
H2204 N2192 0.984 . S
H2205 N2192 0.985 . S
C2206 C2207 1.363 . S
C2206 C2212 1.379 . S
C2206 N2214 1.356 . S
C2207 C2206 1.363 . S
C2207 C2213 1.363 . S
C2208 C2209 1.363 . S
C2208 C2213 1.379 . S
C2208 N2215 1.356 . S
C2209 C2208 1.363 . S
C2209 C2212 1.363 . S
N2210 C2212 1.356 . S
N2210 H2222 0.984 . S
N2210 H2223 0.985 . S
N2211 C2213 1.356 . S
N2211 H2216 0.984 . S
N2211 H2217 0.985 . S
C2212 C2206 1.379 . S
C2212 C2209 1.363 . S
C2212 N2210 1.356 . S
C2213 C2207 1.363 . S
C2213 C2208 1.379 . S
C2213 N2211 1.356 . S
N2214 C2206 1.356 . S
N2214 H2220 0.984 . S
N2214 H2221 0.984 . S
N2215 C2208 1.356 . S
N2215 H2218 0.984 . S
N2215 H2219 0.985 . S
H2216 N2211 0.984 . S
H2217 N2211 0.985 . S
H2218 N2215 0.984 . S
H2219 N2215 0.985 . S
H2220 N2214 0.984 . S
H2221 N2214 0.984 . S
H2222 N2210 0.984 . S
H2223 N2210 0.985 . S
C2224 C2225 1.363 . S
C2224 C2230 1.379 . S
C2224 N2232 1.356 . S
C2225 C2224 1.363 . S
C2225 C2231 1.363 . S
C2226 C2227 1.363 . S
C2226 C2231 1.379 . S
C2226 N2233 1.356 . S
C2227 C2226 1.363 . S
C2227 C2230 1.363 . S
N2228 C2230 1.356 . S
N2228 H2240 0.984 . S
N2228 H2241 0.985 . S
N2229 C2231 1.356 . S
N2229 H2234 0.984 . S
N2229 H2235 0.985 . S
C2230 C2224 1.379 . S
C2230 C2227 1.363 . S
C2230 N2228 1.356 . S
C2231 C2225 1.363 . S
C2231 C2226 1.379 . S
C2231 N2229 1.356 . S
N2232 C2224 1.356 . S
N2232 H2238 0.984 . S
N2232 H2239 0.984 . S
N2233 C2226 1.356 . S
N2233 H2236 0.984 . S
N2233 H2237 0.985 . S
H2234 N2229 0.984 . S
H2235 N2229 0.985 . S
H2236 N2233 0.984 . S
H2237 N2233 0.985 . S
H2238 N2232 0.984 . S
H2239 N2232 0.984 . S
H2240 N2228 0.984 . S
H2241 N2228 0.985 . S
C2242 C2243 1.363 . S
C2242 C2248 1.379 . S
C2242 N2250 1.356 . S
C2243 C2242 1.363 . S
C2243 C2249 1.363 . S
C2244 C2245 1.363 . S
C2244 C2249 1.379 . S
C2244 N2251 1.356 . S
C2245 C2244 1.363 . S
C2245 C2248 1.363 . S
N2246 C2248 1.356 . S
N2246 H2258 0.984 . S
N2246 H2259 0.985 . S
N2247 C2249 1.356 . S
N2247 H2252 0.984 . S
N2247 H2253 0.985 . S
C2248 C2242 1.379 . S
C2248 C2245 1.363 . S
C2248 N2246 1.356 . S
C2249 C2243 1.363 . S
C2249 C2244 1.379 . S
C2249 N2247 1.356 . S
N2250 C2242 1.356 . S
N2250 H2256 0.984 . S
N2250 H2257 0.984 . S
N2251 C2244 1.356 . S
N2251 H2254 0.984 . S
N2251 H2255 0.985 . S
H2252 N2247 0.984 . S
H2253 N2247 0.985 . S
H2254 N2251 0.984 . S
H2255 N2251 0.985 . S
H2256 N2250 0.984 . S
H2257 N2250 0.984 . S
H2258 N2246 0.984 . S
H2259 N2246 0.985 . S
C2260 C2261 1.363 . S
C2260 C2266 1.379 . S
C2260 N2268 1.356 . S
C2261 C2260 1.363 . S
C2261 C2267 1.363 . S
C2262 C2263 1.363 . S
C2262 C2267 1.379 . S
C2262 N2269 1.356 . S
C2263 C2262 1.363 . S
C2263 C2266 1.363 . S
N2264 C2266 1.356 . S
N2264 H2276 0.984 . S
N2264 H2277 0.985 . S
N2265 C2267 1.356 . S
N2265 H2270 0.984 . S
N2265 H2271 0.985 . S
C2266 C2260 1.379 . S
C2266 C2263 1.363 . S
C2266 N2264 1.356 . S
C2267 C2261 1.363 . S
C2267 C2262 1.379 . S
C2267 N2265 1.356 . S
N2268 C2260 1.356 . S
N2268 H2274 0.984 . S
N2268 H2275 0.984 . S
N2269 C2262 1.356 . S
N2269 H2272 0.984 . S
N2269 H2273 0.985 . S
H2270 N2265 0.984 . S
H2271 N2265 0.985 . S
H2272 N2269 0.984 . S
H2273 N2269 0.985 . S
H2274 N2268 0.984 . S
H2275 N2268 0.984 . S
H2276 N2264 0.984 . S
H2277 N2264 0.985 . S
C2278 C2279 1.363 . S
C2278 C2284 1.379 . S
C2278 N2286 1.356 . S
C2279 C2278 1.363 . S
C2279 C2285 1.363 . S
C2280 C2281 1.363 . S
C2280 C2285 1.379 . S
C2280 N2287 1.356 . S
C2281 C2280 1.363 . S
C2281 C2284 1.363 . S
N2282 C2284 1.356 . S
N2282 H2294 0.984 . S
N2282 H2295 0.985 . S
N2283 C2285 1.356 . S
N2283 H2288 0.984 . S
N2283 H2289 0.985 . S
C2284 C2278 1.379 . S
C2284 C2281 1.363 . S
C2284 N2282 1.356 . S
C2285 C2279 1.363 . S
C2285 C2280 1.379 . S
C2285 N2283 1.356 . S
N2286 C2278 1.356 . S
N2286 H2292 0.984 . S
N2286 H2293 0.984 . S
N2287 C2280 1.356 . S
N2287 H2290 0.984 . S
N2287 H2291 0.985 . S
H2288 N2283 0.984 . S
H2289 N2283 0.985 . S
H2290 N2287 0.984 . S
H2291 N2287 0.985 . S
H2292 N2286 0.984 . S
H2293 N2286 0.984 . S
H2294 N2282 0.984 . S
H2295 N2282 0.985 . S
C2296 C2297 1.363 . S
C2296 C2302 1.379 . S
C2296 N2304 1.356 . S
C2297 C2296 1.363 . S
C2297 C2303 1.363 . S
C2298 C2299 1.363 . S
C2298 C2303 1.379 . S
C2298 N2305 1.356 . S
C2299 C2298 1.363 . S
C2299 C2302 1.363 . S
N2300 C2302 1.356 . S
N2300 H2312 0.984 . S
N2300 H2313 0.985 . S
N2301 C2303 1.356 . S
N2301 H2306 0.984 . S
N2301 H2307 0.985 . S
C2302 C2296 1.379 . S
C2302 C2299 1.363 . S
C2302 N2300 1.356 . S
C2303 C2297 1.363 . S
C2303 C2298 1.379 . S
C2303 N2301 1.356 . S
N2304 C2296 1.356 . S
N2304 H2310 0.984 . S
N2304 H2311 0.984 . S
N2305 C2298 1.356 . S
N2305 H2308 0.984 1_554 S
N2305 H2309 0.985 1_554 S
H2306 N2301 0.984 . S
H2307 N2301 0.985 . S
H2308 N2305 0.984 1_556 S
H2309 N2305 0.985 1_556 S
H2310 N2304 0.984 . S
H2311 N2304 0.984 . S
H2312 N2300 0.984 . S
H2313 N2300 0.985 . S
C2314 C2315 1.363 . S
C2314 C2320 1.379 . S
C2314 N2322 1.356 . S
C2315 C2314 1.363 . S
C2315 C2321 1.363 . S
C2316 C2317 1.363 . S
C2316 C2321 1.379 . S
C2316 N2323 1.356 . S
C2317 C2316 1.363 . S
C2317 C2320 1.363 . S
N2318 C2320 1.356 . S
N2318 H2330 0.984 . S
N2318 H2331 0.985 . S
N2319 C2321 1.356 . S
N2319 H2324 0.984 . S
N2319 H2325 0.985 . S
C2320 C2314 1.379 . S
C2320 C2317 1.363 . S
C2320 N2318 1.356 . S
C2321 C2315 1.363 . S
C2321 C2316 1.379 . S
C2321 N2319 1.356 . S
N2322 C2314 1.356 . S
N2322 H2328 0.984 . S
N2322 H2329 0.984 . S
N2323 C2316 1.356 . S
N2323 H2326 0.984 1_554 S
N2323 H2327 0.985 1_554 S
H2324 N2319 0.984 . S
H2325 N2319 0.985 . S
H2326 N2323 0.984 1_556 S
H2327 N2323 0.985 1_556 S
H2328 N2322 0.984 . S
H2329 N2322 0.984 . S
H2330 N2318 0.984 . S
H2331 N2318 0.985 . S
C2332 C2333 1.363 . S
C2332 C2338 1.379 . S
C2332 N2340 1.356 . S
C2333 C2332 1.363 . S
C2333 C2339 1.363 . S
C2334 C2335 1.363 . S
C2334 C2339 1.379 . S
C2334 N2341 1.356 1_556 S
C2335 C2334 1.363 . S
C2335 C2338 1.363 . S
N2336 C2338 1.356 . S
N2336 H2348 0.984 . S
N2336 H2349 0.985 . S
N2337 C2339 1.356 . S
N2337 H2342 0.984 . S
N2337 H2343 0.985 1_556 S
C2338 C2332 1.379 . S
C2338 C2335 1.363 . S
C2338 N2336 1.356 . S
C2339 C2333 1.363 . S
C2339 C2334 1.379 . S
C2339 N2337 1.356 . S
N2340 C2332 1.356 . S
N2340 H2346 0.984 . S
N2340 H2347 0.984 . S
N2341 C2334 1.356 1_554 S
N2341 H2344 0.984 . S
N2341 H2345 0.985 . S
H2342 N2337 0.984 . S
H2343 N2337 0.985 1_554 S
H2344 N2341 0.984 . S
H2345 N2341 0.985 . S
H2346 N2340 0.984 . S
H2347 N2340 0.984 . S
H2348 N2336 0.984 . S
H2349 N2336 0.985 . S
C2350 C2351 1.363 . S
C2350 C2356 1.379 . S
C2350 N2358 1.356 . S
C2351 C2350 1.363 . S
C2351 C2357 1.363 . S
C2352 C2353 1.363 . S
C2352 C2357 1.379 . S
C2352 N2359 1.356 . S
C2353 C2352 1.363 . S
C2353 C2356 1.363 . S
N2354 C2356 1.356 . S
N2354 H2366 0.984 . S
N2354 H2367 0.985 . S
N2355 C2357 1.356 . S
N2355 H2360 0.984 . S
N2355 H2361 0.985 . S
C2356 C2350 1.379 . S
C2356 C2353 1.363 . S
C2356 N2354 1.356 . S
C2357 C2351 1.363 . S
C2357 C2352 1.379 . S
C2357 N2355 1.356 . S
N2358 C2350 1.356 . S
N2358 H2364 0.987 . S
N2358 H2365 0.984 . S
N2359 C2352 1.356 . S
N2359 H2362 0.984 . S
N2359 H2363 0.985 . S
H2360 N2355 0.984 . S
H2361 N2355 0.985 . S
H2362 N2359 0.984 . S
H2363 N2359 0.985 . S
H2364 N2358 0.987 . S
H2365 N2358 0.984 . S
H2366 N2354 0.984 . S
H2367 N2354 0.985 . S
C641 C562 1.421 . S
C643 C4 1.421 . S
C659 C102 1.429 . S
C661 C24 1.431 . S
C677 C442 1.429 . S
C679 C44 1.431 . S
C695 C302 1.421 . S
C697 C64 1.421 . S
C713 C82 1.421 . S
C715 C484 1.421 . S
C731 C364 1.429 . S
C733 C122 1.431 . S
C749 C224 1.421 . S
C751 C142 1.421 . S
C767 C402 1.421 . S
C769 C164 1.421 . S
C785 C184 1.424 . S
C787 C262 1.424 . S
C803 C204 1.424 . S
C805 C602 1.424 . S
C821 C324 1.421 . S
C823 C242 1.421 . S
C839 C282 1.424 . S
C841 C524 1.424 . S
C857 C344 1.430 . S
C859 C422 1.431 . S
C875 C384 1.421 . S
C877 C622 1.421 . S
C893 C544 1.421 . S
C895 C462 1.421 . S
C911 C582 1.425 . S
C913 C504 1.425 . S
C929 C382 1.538 . S
C931 C2 1.538 . S
C947 C362 1.532 . S
C949 C22 1.532 . S
C965 C342 1.532 . S
C967 C42 1.532 . S
C983 C322 1.538 . S
C985 C62 1.538 . S
C1001 C464 1.538 . S
C1003 C84 1.538 . S
C1019 C104 1.532 . S
C1021 C444 1.532 . S
C1037 C124 1.532 . S
C1039 C424 1.532 . S
C1055 C144 1.538 . S
C1057 C404 1.538 . S
C1073 C162 1.547 . S
C1075 C542 1.547 . S
C1091 C182 1.538 . S
C1093 C522 1.538 . S
C1109 C202 1.538 . S
C1111 C502 1.538 . S
C1127 C482 1.547 . S
C1129 C222 1.547 . S
C1145 C244 1.547 . S
C1147 C624 1.547 . S
C1163 C264 1.538 . S
C1165 C604 1.538 . S
C1181 C284 1.538 . S
C1183 C584 1.538 . S
C1199 C564 1.547 . S
C1201 C304 1.547 . S
C1217 C9 1.339 . S
C1219 C12 1.339 . S
C1235 C29 1.340 . S
C1237 C32 1.340 . S
C1253 C52 1.340 . S
C1255 C49 1.340 . S
C1271 C72 1.339 . S
C1273 C69 1.339 . S
C1289 C89 1.339 . S
C1291 C92 1.339 . S
C1307 C109 1.340 . S
C1309 C112 1.340 . S
C1325 C129 1.340 . S
C1327 C132 1.340 . S
C1343 C152 1.339 . S
C1345 C149 1.339 . S
C1361 C169 1.341 . S
C1363 C172 1.341 . S
C1379 C192 1.340 . S
C1381 C189 1.340 . S
C1397 C212 1.340 . S
C1399 C209 1.340 . S
C1415 C232 1.341 . S
C1417 C229 1.341 . S
C1433 C249 1.341 . S
C1435 C252 1.341 . S
C1451 C272 1.340 . S
C1453 C269 1.340 . S
C1469 C289 1.340 . S
C1471 C292 1.340 . S
C1487 C312 1.341 . S
C1489 C309 1.341 . S
C1505 C329 1.339 . S
C1507 C332 1.339 . S
C1523 C352 1.340 . S
C1525 C349 1.340 . S
C1541 C372 1.340 . S
C1543 C369 1.340 . S
C1559 C392 1.339 . S
C1561 C389 1.339 . S
C1577 C412 1.339 . S
C1579 C409 1.339 . S
C1595 C429 1.340 . S
C1597 C432 1.340 . S
C1613 C452 1.340 . S
C1615 C449 1.340 . S
C1631 C472 1.339 . S
C1633 C469 1.339 . S
C1649 C489 1.341 . S
C1651 C492 1.341 . S
C1667 C512 1.340 . S
C1669 C509 1.340 . S
C1685 C532 1.340 . S
C1687 C529 1.340 . S
C1703 C549 1.341 . S
C1705 C552 1.341 . S
C1721 C569 1.341 . S
C1723 C572 1.341 . S
C1739 C592 1.340 . S
C1741 C589 1.340 . S
C1757 C612 1.340 . S
C1759 C609 1.340 . S
C1775 C632 1.341 . S
C1777 C629 1.341 . S
C1793 C218 1.830 . S
C1795 C18 1.829 . S
C1811 C238 1.796 . S
C1813 C38 1.794 . S
C1829 C58 1.797 . S
C1831 C178 1.793 . S
C1847 C198 1.830 . S
C1849 C78 1.829 . S
C1865 C99 1.829 . S
C1867 C299 1.830 . S
C1883 C119 1.797 . S
C1885 C319 1.793 . S
C1901 C139 1.797 . S
C1903 C259 1.793 . S
C1919 C159 1.829 . S
C1921 C279 1.830 . S
C1937 C538 1.830 . S
C1939 C338 1.829 . S
C1955 C358 1.797 . S
C1957 C558 1.793 . S
C1973 C498 1.796 . S
C1975 C378 1.794 . S
C1991 C398 1.829 . S
C1993 C518 1.830 . S
C2009 C619 1.830 . S
C2011 C419 1.829 . S
C2027 C439 1.797 . S
C2029 C639 1.793 . S
C2045 C459 1.797 . S
C2047 C579 1.793 . S
C2063 C599 1.830 . S
C2065 C479 1.829 . S
C2081 C19 1.275 . S
C2083 C59 1.279 . S
C2099 C79 1.274 . S
C2101 C39 1.279 . S
C2117 C138 1.276 . S
C2119 C98 1.278 . S
C2135 C118 1.276 . S
C2137 C158 1.278 . S
C2153 C179 1.235 . S
C2155 C219 1.235 . S
C2171 C239 1.234 . S
C2173 C199 1.235 . S
C2189 C298 1.235 . S
C2191 C258 1.235 . S
C2207 C318 1.234 . S
C2209 C278 1.235 . S
C2225 C379 1.275 . S
C2227 C339 1.277 . S
C2243 C399 1.274 . S
C2245 C359 1.279 . S
C2261 C458 1.275 . S
C2263 C418 1.277 . S
C2279 C478 1.274 . S
C2281 C438 1.279 . S
C2297 C499 1.235 . S
C2299 C539 1.236 . S
C2315 C519 1.236 . S
C2317 C559 1.235 . S
C2333 C578 1.235 . S
C2335 C618 1.236 . S
C2351 C638 1.235 . S
C2353 C598 1.236 . S
