# Generated by pormake.
# Topology rkf, (6)-cn, num edge types: 1
# Building blocks:
#     Node 0, Type 0, BuildingBlock: BETDIP_clean_sbu_0, # of connection points: 6
#     Node 1, Type 0, BuildingBlock: BETDIP_clean_sbu_0, # of connection points: 6
#     Node 2, Type 0, BuildingBlock: BETDIP_clean_sbu_0, # of connection points: 6
#     Node 3, Type 0, BuildingBlock: BETDIP_clean_sbu_0, # of connection points: 6
#     Node 4, Type 0, BuildingBlock: BETDIP_clean_sbu_0, # of connection points: 6
#     Node 5, Type 0, BuildingBlock: BETDIP_clean_sbu_0, # of connection points: 6
#     Edge 6, Type (0, 0), BuildingBlock: FUNLAD_clean_linker_0, # of connection points: 2
#     Edge 7, Type (0, 0), BuildingBlock: FUNLAD_clean_linker_0, # of connection points: 2
#     Edge 8, Type (0, 0), BuildingBlock: FUNLAD_clean_linker_0, # of connection points: 2
#     Edge 9, Type (0, 0), BuildingBlock: FUNLAD_clean_linker_0, # of connection points: 2
#     Edge 10, Type (0, 0), BuildingBlock: FUNLAD_clean_linker_0, # of connection points: 2
#     Edge 11, Type (0, 0), BuildingBlock: FUNLAD_clean_linker_0, # of connection points: 2
#     Edge 12, Type (0, 0), BuildingBlock: FUNLAD_clean_linker_0, # of connection points: 2
#     Edge 13, Type (0, 0), BuildingBlock: FUNLAD_clean_linker_0, # of connection points: 2
#     Edge 14, Type (0, 0), BuildingBlock: FUNLAD_clean_linker_0, # of connection points: 2
#     Edge 15, Type (0, 0), BuildingBlock: FUNLAD_clean_linker_0, # of connection points: 2
#     Edge 16, Type (0, 0), BuildingBlock: FUNLAD_clean_linker_0, # of connection points: 2
#     Edge 17, Type (0, 0), BuildingBlock: FUNLAD_clean_linker_0, # of connection points: 2
#     Edge 18, Type (0, 0), BuildingBlock: FUNLAD_clean_linker_0, # of connection points: 2
#     Edge 19, Type (0, 0), BuildingBlock: FUNLAD_clean_linker_0, # of connection points: 2
#     Edge 20, Type (0, 0), BuildingBlock: FUNLAD_clean_linker_0, # of connection points: 2
#     Edge 21, Type (0, 0), BuildingBlock: FUNLAD_clean_linker_0, # of connection points: 2
#     Edge 22, Type (0, 0), BuildingBlock: FUNLAD_clean_linker_0, # of connection points: 2
#     Edge 23, Type (0, 0), BuildingBlock: FUNLAD_clean_linker_0, # of connection points: 2
# Relax obj value: 0.607
# Max RMSD: 0.247
# Mean RMSD: 0.247
data_MOF--net-rkf--node1-BETDIP_clean_sbu_0--edge1-FUNLAD_clean_linker_0
_symmetry_space_group_name_H-M    P1
_symmetry_Int_Tables_number       1
_symmetry_cell_setting            triclinic
loop_
_symmetry_equiv_pos_as_xyz
'x, y, z'
_cell_length_a     28.828026
_cell_length_b     28.500982
_cell_length_c     51.154313
_cell_angle_alpha  89.759845
_cell_angle_beta   90.100928
_cell_angle_gamma 120.45404
loop_
_atom_site_label
_atom_site_type_symbol
_atom_site_fract_x
_atom_site_fract_y
_atom_site_fract_z
_atom_type_partial_charge
Tb0 Tb 0.25048 0.01887 0.15204 0.0
Tb1 Tb 0.29946 0.13531 0.13367 0.0
C2 C 0.23501 0.92469 0.15943 0.0
C3 C 0.23638 0.89407 0.18218 0.0
C4 C 0.21626 0.83798 0.18026 0.0
C5 C 0.21408 0.80793 0.20239 0.0
C6 C 0.23206 0.83371 0.22674 0.0
C7 C 0.25381 0.8904 0.22825 0.0
C8 C 0.25592 0.92027 0.20618 0.0
C9 C 0.18797 0.06021 0.15879 0.0
C10 C 0.29158 0.10869 0.19521 0.0
C11 C 0.33321 0.23503 1.12733 0.0
C12 C 0.36445 0.27778 1.10803 0.0
C13 C 0.36117 0.26616 1.08127 0.0
C14 C 0.39049 0.3079 1.06328 0.0
C15 C 0.42398 0.36188 1.07176 0.0
C16 C 0.42808 0.37289 1.0987 0.0
C17 C 0.39845 0.33118 1.11665 0.0
C18 C 0.36074 0.09182 0.12891 0.0
C19 C 0.24132 0.04614 1.09092 0.0
O20 O 0.28139 0.96637 0.15244 0.0
O21 O 0.19644 0.93621 0.15942 0.0
O22 O 0.21999 0.06949 0.13999 0.0
O23 O 0.18621 0.02152 0.17312 0.0
O24 O 0.28166 0.05866 0.19017 0.0
O25 O 0.29359 0.1412 0.17611 0.0
O26 O 0.28517 0.19641 1.12026 0.0
O27 O 0.35985 0.21622 0.13997 0.0
O28 O 0.33004 0.08564 0.14769 0.0
O29 O 0.36016 0.12607 1.11239 0.0
O30 O 0.26155 0.09821 1.09672 0.0
O31 O 0.23677 0.01011 1.10897 0.0
H32 H 0.20118 0.81727 0.16178 0.0
H33 H 0.19739 0.76444 0.20056 0.0
H34 H 0.26698 0.91146 0.24676 0.0
H35 H 0.2715 0.96357 0.208 0.0
H36 H 0.33543 0.22504 1.07425 0.0
H37 H 0.38563 0.29803 1.04267 0.0
H38 H 0.45398 0.41378 1.10593 0.0
H39 H 0.40183 0.34067 0.13731 0.0
Tb40 Tb 0.34213 0.2673 0.48693 0.0
Tb41 Tb 0.29309 0.33494 0.47048 0.0
C42 C 0.40478 0.23756 0.5043 0.0
C43 C 0.43728 0.24666 0.52783 0.0
C44 C 0.48011 0.23667 0.52717 0.0
C45 C 0.51113 0.24451 0.54953 0.0
C46 C 0.49973 0.2626 0.57287 0.0
C47 C 0.45745 0.27382 0.57315 0.0
C48 C 0.4266 0.26605 0.55081 0.0
C49 C 0.24093 0.21167 0.47151 0.0
C50 C 0.29494 0.31334 0.53058 0.0
C51 C 0.24076 0.37709 0.45348 0.0
C52 C 0.20104 0.37119 0.43384 0.0
C53 C 0.15921 0.3794 0.44178 0.0
C54 C 0.12337 0.37948 0.42351 0.0
C55 C 0.12889 0.37152 0.39689 0.0
C56 C 0.16972 0.36125 0.38906 0.0
C57 C 0.20554 0.36094 0.40744 0.0
C58 C 0.39386 0.39023 0.48648 0.0
C59 C 0.3261 0.2761 0.42678 0.0
O60 O 0.42028 0.28048 0.48944 0.0
O61 O 0.35237 0.20924 0.5073 0.0
O62 O 0.26337 0.25495 0.48445 0.0
O63 O 0.275 0.19493 0.46876 0.0
O64 O 0.32694 0.29353 0.52529 0.0
O65 O 0.27259 0.32711 0.51175 0.0
O66 O 0.22336 0.34022 0.47194 0.0
O67 O 0.28941 0.39145 0.44551 0.0
O68 O 0.37301 0.34805 0.47269 0.0
O69 O 0.3588 0.40501 0.48993 0.0
O70 O 0.29589 0.29761 0.4329 0.0
O71 O 0.35385 0.26731 0.44485 0.0
H72 H 0.48922 0.22228 0.50943 0.0
H73 H 0.54359 0.23585 0.54865 0.0
H74 H 0.4468 0.28673 0.5909 0.0
H75 H 0.39388 0.27427 0.55165 0.0
H76 H 0.15518 0.38736 0.4621 0.0
H77 H 0.09263 0.38788 0.4301 0.0
H78 H 0.17431 0.35412 0.3687 0.0
H79 H 0.23727 0.35392 0.40096 0.0
Tb80 Tb 0.16835 0.37343 0.81712 0.0
Tb81 Tb 0.05182 0.30191 0.8007 0.0
C82 C 0.26242 0.45234 0.82273 0.0
C83 C 0.29636 0.48079 0.84526 0.0
C84 C 0.35095 0.51924 0.84167 0.0
C85 C 0.38436 0.54342 0.8633 0.0
C86 C 0.36345 0.5294 0.8888 0.0
C87 C 0.30818 0.49197 0.89215 0.0
C88 C 0.27497 0.46786 0.87057 0.0
C89 C 0.12761 0.26952 0.82781 0.0
C90 C 0.08176 0.33046 0.86151 0.0
C91 C 0.95328 0.23262 0.7964 0.0
C92 C 0.91028 0.21274 0.77683 0.0
C93 C 0.92158 0.21553 0.75005 0.0
C94 C 0.87958 0.1932 0.73192 0.0
C95 C 0.82562 0.16803 0.74028 0.0
C96 C 0.81478 0.16699 0.76713 0.0
C97 C 0.85681 0.18909 0.78523 0.0
C98 C 0.09452 0.40742 0.79275 0.0
C99 C 0.13799 0.32941 0.75746 0.0
O100 O 0.22029 0.45775 0.81947 0.0
O101 O 0.25093 0.40193 0.81984 0.0
O102 O 0.11767 0.28986 0.80808 0.0
O103 O 0.16639 0.3088 0.84095 0.0
O104 O 0.1312 0.36959 0.85517 0.0
O105 O 0.04788 0.29722 0.84359 0.0
O106 O -0.00817 0.22208 0.79214 0.0
O107 O -0.02851 0.28223 0.80472 0.0
O108 O 0.1016 0.38454 0.8121 0.0
O109 O 0.05982 0.37037 0.7772 0.0
O110 O 0.08741 0.29556 0.7644 0.0
O111 O 0.1734 0.36594 0.77409 0.0
H112 H 0.36795 0.52963 0.82218 0.0
H113 H 0.42665 0.57228 0.86009 0.0
H114 H 0.29092 0.47936 0.91149 0.0
H115 H 0.23292 0.438 0.87367 0.0
H116 H 0.96273 0.23385 0.74321 0.0
H117 H 0.88937 0.19404 0.71143 0.0
H118 H 0.77381 0.14862 0.77419 0.0
H119 H 0.84751 0.18698 0.80588 0.0
Tb120 Tb 0.86277 0.17322 0.14212 0.0
Tb121 Tb 0.87091 0.07503 0.13375 0.0
C122 C 0.82639 0.23446 0.15319 0.0
C123 C 0.81985 0.257 0.17777 0.0
C124 C 0.83456 0.31196 0.17885 0.0
C125 C 0.83999 0.33709 0.20299 0.0
C126 C 0.83143 0.30766 0.2264 0.0
C127 C 0.81193 0.25136 0.225 0.0
C128 C 0.80607 0.2263 0.20091 0.0
C129 C 0.96154 0.19174 0.14708 0.0
C130 C 0.8529 0.09654 0.19125 0.0
C131 C 0.8928 0.00202 1.12385 0.0
C132 C 0.87563 0.95781 1.10493 0.0
C133 C 0.85677 0.96089 1.08007 0.0
C134 C 0.83732 0.9166 1.06307 0.0
C135 C 0.83596 0.86841 1.07079 0.0
C136 C 0.85485 0.86573 1.0958 0.0
C137 C 0.87457 0.9101 1.11267 0.0
C138 C 0.77398 0.06273 1.12647 0.0
C139 C 0.90035 0.15972 1.08656 0.0
O140 O 0.79608 0.18176 0.15014 0.0
O141 O 0.87634 0.2523 0.14643 0.0
O142 O 0.91918 0.14943 0.15441 0.0
O143 O 0.9492 0.22711 0.13889 0.0
O144 O 0.84018 0.13207 0.1815 0.0
O145 O 0.87616 0.07722 0.17604 0.0
O146 O 0.92103 0.05197 1.115 0.0
O147 O 0.8555 -0.00405 0.14024 0.0
O148 O 0.81848 0.10195 1.11993 0.0
O149 O 0.78186 0.02568 0.13635 0.0
O150 O 0.90531 0.11971 1.09694 0.0
O151 O 0.87708 0.18229 1.09976 0.0
H152 H 0.84494 0.33622 0.16114 0.0
H153 H 0.85404 0.38025 0.20334 0.0
H154 H 0.80534 0.22728 0.24251 0.0
H155 H 0.79396 0.18366 0.20057 0.0
H156 H 0.85674 -0.00272 1.07389 0.0
H157 H 0.82386 0.92033 1.04381 0.0
H158 H 0.85372 0.82907 1.10249 0.0
H159 H 0.88827 0.90686 0.13198 0.0
Tb160 Tb 0.80469 0.90438 0.47758 0.0
Tb161 Tb 0.90972 0.90808 0.46618 0.0
C162 C 0.70973 0.87291 0.49179 0.0
C163 C 0.68415 0.87318 0.51655 0.0
C164 C 0.64057 0.88205 0.51636 0.0
C165 C 0.62071 0.89007 0.53981 0.0
C166 C 0.64438 0.8895 0.56381 0.0
C167 C 0.68633 0.87783 0.56388 0.0
C168 C 0.70597 0.86976 0.54049 0.0
C169 C 0.88866 0.00351 0.47325 0.0
C170 C 0.87979 0.90603 0.5249 0.0
C171 C -4e-05 0.92327 0.4522 0.0
C172 C 0.01755 0.8901 0.43818 0.0
C173 C -0.01298 0.85618 0.41752 0.0
C174 C 0.00399 0.8245 0.40456 0.0
C175 C 0.05146 0.82558 0.4122 0.0
C176 C 0.08114 0.85865 0.43337 0.0
C177 C 0.06435 0.89071 0.44618 0.0
C178 C 0.82279 0.81005 0.46711 0.0
C179 C 0.84742 0.92925 0.41981 0.0
O180 O 0.73004 0.84096 0.49067 0.0
O181 O 0.74214 0.92102 0.48186 0.0
O182 O 0.88789 0.96226 0.48283 0.0
O183 O 0.83915 -0.0088 0.46999 0.0
O184 O 0.83029 0.89129 0.51683 0.0
O185 O 0.92009 0.92519 0.508 0.0
O186 O -0.0275 0.94009 0.43875 0.0
O187 O -0.02096 0.90486 0.47522 0.0
O188 O 0.82668 0.8528 0.45825 0.0
O189 O 0.86994 0.82004 0.47393 0.0
O190 O 0.89356 0.93632 0.42911 0.0
O191 O 0.80333 0.90792 0.43458 0.0
H192 H 0.6232 0.88478 0.49802 0.0
H193 H 0.58803 0.89841 0.53911 0.0
H194 H 0.70619 0.87796 0.58189 0.0
H195 H 0.73962 0.86303 0.54109 0.0
H196 H 0.9503 0.8545 0.41123 0.0
H197 H -0.01941 0.80034 0.38807 0.0
H198 H 0.11748 0.85995 0.43998 0.0
H199 H 0.08795 0.91604 0.46236 0.0
Tb200 Tb 0.0115 0.83288 0.80945 0.0
Tb201 Tb 0.11049 0.93977 0.80272 0.0
C202 C 0.9481 0.73368 0.81896 0.0
C203 C 0.92223 0.70261 0.84288 0.0
C204 C 0.86719 0.66356 0.84263 0.0
C205 C 0.83994 0.64047 0.86602 0.0
C206 C 0.86738 0.65632 0.89005 0.0
C207 C 0.9233 0.6928 0.88996 0.0
C208 C 0.95044 0.71567 0.86662 0.0
C209 C -0.00488 0.91514 0.8156 0.0
C210 C 0.08494 0.89563 0.85982 0.0
C211 C 0.18605 0.03539 0.79408 0.0
C212 C 0.23782 0.05907 0.78047 0.0
C213 C 0.24627 0.03006 0.76084 0.0
C214 C 0.29675 0.05179 0.74908 0.0
C215 C 0.33979 0.10265 0.75697 0.0
C216 C 0.33111 0.13117 0.77692 0.0
C217 C 0.28049 0.10951 0.78855 0.0
C218 C 0.12101 0.85349 0.79447 0.0
C219 C 0.02808 0.89025 0.75525 0.0
O220 O 0.00043 0.75561 0.81739 0.0
O221 O 0.93227 0.76728 0.81152 0.0
O222 O 0.03616 0.91353 0.82273 0.0
O223 O 0.95982 0.86774 0.80669 0.0
O224 O 0.04898 0.84792 0.84946 0.0
O225 O 0.10658 0.93978 0.84508 0.0
O226 O 0.14263 0.01071 0.77971 0.0
O227 O 0.18264 0.00747 0.81496 0.0
O228 O 0.08305 0.86009 0.78802 0.0
O229 O 0.15814 0.89837 0.80446 0.0
O230 O 0.0644 0.93503 0.76741 0.0
O231 O 0.00721 0.8421 0.76699 0.0
H232 H 0.84479 0.65283 0.82446 0.0
H233 H 0.79701 0.61203 0.86541 0.0
H234 H 0.94571 0.70667 0.90806 0.0
H235 H -0.00704 0.74553 0.86736 0.0
H236 H 0.21389 -0.0094 0.75464 0.0
H237 H 0.30169 0.02917 0.73346 0.0
H238 H 0.36348 0.17011 0.78363 0.0
H239 H 0.27477 0.13192 0.80404 0.0
C240 C 0.05789 0.26185 0.15362 0.0
C241 C 0.01532 0.20832 0.15751 0.0
C242 C 0.10667 0.28066 0.1667 0.0
C243 C 0.11411 0.24607 0.18348 0.0
C244 C 0.07214 0.19189 0.1867 0.0
C245 C 0.02326 0.17306 0.17365 0.0
C246 C 0.16353 0.26909 0.19961 0.0
C247 C 0.19042 0.24329 0.20535 0.0
C248 C 0.1805 0.19245 0.1928 0.0
C249 C 0.1815 0.18841 0.16546 0.0
C250 C 0.17982 0.14306 0.15404 0.0
C251 C 0.17707 0.10138 0.16982 0.0
H252 H 0.17388 0.15191 0.22957 0.0
C253 C 0.17187 0.10371 0.19704 0.0
C254 C 0.17466 0.14942 0.20845 0.0
H255 H 0.16965 0.07209 0.20972 0.0
H256 H 0.0528 0.28992 0.14129 0.0
H257 H 0.13825 0.3227 0.16417 0.0
H258 H 0.07598 0.16477 0.20024 0.0
H259 H -0.00903 0.13173 0.17714 0.0
H260 H 0.17805 0.30908 0.20806 0.0
H261 H 0.22288 0.26181 0.21953 0.0
H262 H 0.18628 0.22144 0.15303 0.0
H263 H 0.18293 0.14161 0.133 0.0
C264 C -0.01884 0.04477 0.45525 0.0
C265 C 0.93123 0.0419 0.45549 0.0
C266 C 0.01646 0.06977 0.43443 0.0
C267 C 0.00319 0.09402 0.41404 0.0
C268 C 0.95508 0.09477 0.41515 0.0
C269 C 0.91908 0.06855 0.43571 0.0
C270 C 0.04294 0.12301 0.39322 0.0
C271 C 0.07654 0.17609 0.39746 0.0
C272 C 0.12306 0.19016 0.41468 0.0
C273 C 0.15794 0.1702 0.40981 0.0
C274 C 0.19462 0.17448 0.42888 0.0
C275 C 0.1974 0.19941 0.4529 0.0
H276 H 0.09886 0.22971 0.44315 0.0
C277 C 0.16253 0.21913 0.45773 0.0
C278 C 0.12622 0.21526 0.43867 0.0
H279 H 0.16333 0.23748 0.47633 0.0
H280 H -0.00835 0.02516 0.47043 0.0
H281 H 0.05433 0.07033 0.43424 0.0
H282 H 0.94494 0.11451 0.39989 0.0
H283 H 0.88076 0.067 0.43545 0.0
H284 H 0.06077 0.09976 0.38615 0.0
H285 H 0.05756 0.20022 0.40086 0.0
H286 H 0.15608 0.15037 0.3915 0.0
H287 H 0.22158 0.15949 0.42458 0.0
C288 C 0.92599 0.94071 0.82494 0.0
C289 C -0.02098 0.95151 0.82769 0.0
C290 C 0.90804 0.96972 0.83955 0.0
C291 C 0.94303 0.01057 0.85675 0.0
C292 C -0.00351 0.02231 0.85903 0.0
C293 C 0.01446 -0.00667 0.84444 0.0
C294 C 0.9219 0.03754 0.87364 0.0
C295 C 0.94836 0.09105 0.879 0.0
C296 C -0.00201 0.13199 0.86552 0.0
C297 C 0.00171 0.13385 0.83808 0.0
C298 C 0.04643 0.17653 0.82565 0.0
C299 C 0.08741 0.21828 0.84043 0.0
H300 H 0.03836 0.1712 0.90144 0.0
C301 C 0.08533 0.2143 0.86785 0.0
C302 C 0.04052 0.17193 0.88028 0.0
H303 H 0.11654 0.2459 0.87977 0.0
H304 H 0.89777 0.90849 0.81224 0.0
H305 H 0.86657 0.95972 0.83771 0.0
H306 H 0.02389 0.05244 0.87279 0.0
H307 H 0.05539 0.00216 0.8471 0.0
H308 H 0.883 0.01204 0.88285 0.0
H309 H 0.93156 0.10559 0.89372 0.0
H310 H 0.96909 0.1037 0.82624 0.0
H311 H 0.04793 0.17818 0.8045 0.0
C312 C 0.45321 0.45643 1.05595 0.0
C313 C 0.4515 0.40668 1.05238 0.0
C314 C 0.47106 0.49514 1.03589 0.0
C315 C 0.48672 0.48441 1.01161 0.0
C316 C 0.48976 0.43699 1.00903 0.0
C317 C 0.47233 0.39853 1.02915 0.0
C318 C 0.4929 0.51668 0.98755 0.0
C319 C 0.47168 0.54916 0.98492 0.0
C320 C 0.45414 0.5592 0.95919 0.0
C321 C 0.40913 0.56589 0.95871 0.0
C322 C 0.38189 0.56064 0.93535 0.0
C323 C 0.39932 0.54883 0.91197 0.0
H324 H 0.51154 0.55154 0.93465 0.0
C325 C 0.44802 0.54868 0.91193 0.0
C326 C 0.47546 0.55422 0.93531 0.0
H327 H 0.46295 0.54032 0.89419 0.0
H328 H 0.43791 0.46435 1.07369 0.0
H329 H 0.47018 0.53207 1.03929 0.0
H330 H 0.50255 0.42792 0.99078 0.0
H331 H 0.47321 0.36141 1.02608 0.0
H332 H 0.50603 0.5048 0.97023 0.0
H333 H 0.45643 0.55944 1.00197 0.0
H334 H 0.39238 0.5709 0.97671 0.0
H335 H 0.34534 0.5626 0.93586 0.0
C336 C 0.03836 0.35341 0.382 0.0
C337 C 0.09378 0.37673 0.37736 0.0
C338 C 0.00556 0.35955 0.36383 0.0
C339 C 0.02775 0.38956 0.34067 0.0
C340 C 0.08321 0.413 0.3362 0.0
C341 C 0.1159 0.40676 0.35432 0.0
C342 C -0.00566 0.39319 0.31955 0.0
C343 C 0.94282 0.38081 0.32232 0.0
C344 C 0.90872 0.37269 0.29911 0.0
C345 C 0.85556 0.32895 0.29899 0.0
C346 C 0.82741 0.3108 0.27544 0.0
C347 C 0.85215 0.33626 0.2517 0.0
H348 H 0.9705 0.43826 0.27572 0.0
C349 C 0.90257 0.38451 0.25248 0.0
C350 C 0.93044 0.40278 0.27601 0.0
H351 H 0.92292 0.4056 0.23471 0.0
H352 H 0.02015 0.32954 0.39949 0.0
H353 H 0.96289 0.33931 0.36778 0.0
H354 H 0.10136 0.43596 0.31846 0.0
H355 H 0.15863 0.42595 0.35041 0.0
H356 H 0.01253 0.40319 0.30023 0.0
H357 H 0.92328 0.36951 0.34126 0.0
H358 H 0.83747 0.30588 0.3167 0.0
H359 H 0.78792 0.27448 0.27561 0.0
C360 C 0.78491 0.16214 0.69613 0.0
C361 C 0.78109 0.13998 0.72115 0.0
C362 C 0.74686 0.13218 0.67697 0.0
C363 C 0.70426 0.07935 0.6823 0.0
C364 C 0.6979 0.05897 0.70797 0.0
C365 C 0.73614 0.08886 0.72712 0.0
C366 C 0.67142 0.04557 0.65994 0.0
C367 C 0.64526 -0.00935 0.66002 0.0
C368 C 0.63103 0.95838 0.63553 0.0
C369 C 0.63133 0.90927 0.63581 0.0
C370 C 0.63119 0.88409 0.61244 0.0
C371 C 0.63061 0.90752 0.58831 0.0
H372 H 0.621 0.01454 0.61052 0.0
C373 C 0.62418 0.95325 0.58812 0.0
C374 C 0.62397 0.97824 0.61151 0.0
H375 H 0.62315 0.97217 0.56989 0.0
H376 H 0.81826 0.20202 0.6911 0.0
H377 H 0.75241 0.14938 0.6575 0.0
H378 H 0.66458 0.0194 0.71328 0.0
H379 H 0.73176 0.07063 0.74625 0.0
H380 H 0.67677 0.067 0.6416 0.0
H381 H 0.64282 0.96906 0.67794 0.0
H382 H 0.6356 0.89235 0.65405 0.0
H383 H 0.6346 0.84797 0.61326 0.0
C384 C 0.77203 0.80762 1.03614 0.0
C385 C 0.81626 0.82167 1.0526 0.0
C386 C 0.75659 0.76665 1.0175 0.0
C387 C 0.78455 0.73843 1.01509 0.0
C388 C 0.82751 0.75105 1.03226 0.0
C389 C 0.84309 0.79215 1.05079 0.0
C390 C 0.77379 0.70299 0.99201 0.0
C391 C 0.78894 0.66545 0.99035 0.0
C392 C 0.79782 0.64692 0.96474 0.0
C393 C 0.8405 0.63681 0.96256 0.0
C394 C 0.86029 0.63451 0.93799 0.0
C395 C 0.83754 0.64213 0.9152 0.0
H396 H 0.73588 0.65225 0.9429 0.0
C397 C 0.7905 0.64516 0.91739 0.0
C398 C 0.77056 0.64714 0.94195 0.0
H399 H 0.77156 0.65059 0.90027 0.0
H400 H 0.74992 0.82895 1.03732 0.0
H401 H 0.72371 0.75813 1.00437 0.0
H402 H 0.85144 0.73179 1.03053 0.0
H403 H 0.87786 0.80248 1.06286 0.0
H404 H 0.75852 0.71327 0.97485 0.0
H405 H 0.80385 0.6551 1.00764 0.0
H406 H 0.86155 0.63531 0.97983 0.0
H407 H 0.89565 0.63052 0.93692 0.0
C408 C 0.12691 0.82026 0.39092 0.0
C409 C 0.07181 0.79561 0.39678 0.0
C410 C 0.14522 0.79688 0.37278 0.0
C411 C 0.10873 0.74818 0.36003 0.0
C412 C 0.05428 0.7216 0.36727 0.0
C413 C 0.03601 0.74483 0.38558 0.0
C414 C 0.12396 0.73091 0.33574 0.0
C415 C 0.1753 0.74722 0.32936 0.0
C416 C 0.19407 0.75711 0.30176 0.0
C417 C 0.24625 0.80041 0.29667 0.0
C418 C 0.26056 0.82261 0.27158 0.0
C419 C 0.22295 0.80168 0.2511 0.0
H420 H 0.1194 0.69644 0.28344 0.0
C421 C 0.17327 0.75393 0.25548 0.0
C422 C 0.15905 0.73155 0.28057 0.0
H423 H 0.14357 0.73628 0.24006 0.0
H424 H 0.15559 0.85967 0.39889 0.0
H425 H 0.18726 0.81967 0.36736 0.0
H426 H 0.02526 0.68424 0.35768 0.0
H427 H -0.00655 0.72413 0.39008 0.0
H428 H 0.09249 0.71208 0.32114 0.0
H429 H 0.20602 0.7646 0.34443 0.0
H430 H 0.2745 0.82028 0.3125 0.0
H431 H 0.29982 0.85839 0.26861 0.0
C432 C 0.41968 0.18256 0.73638 0.0
C433 C 0.39232 0.12712 0.74319 0.0
C434 C 0.46395 0.20388 0.71962 0.0
C435 C 0.4819 0.1701 0.70926 0.0
C436 C 0.4571 0.11574 0.7177 0.0
C437 C 0.41292 0.09448 0.73458 0.0
C438 C 0.517 0.18638 0.68578 0.0
C439 C 0.54716 0.23841 0.67766 0.0
C440 C 0.55304 0.25254 0.64942 0.0
C441 C 0.5495 0.21608 0.62996 0.0
C442 C 0.53646 0.22186 0.6043 0.0
C443 C 0.52764 0.26461 0.59761 0.0
H444 H 0.55513 0.3285 0.65636 0.0
C445 C 0.53878 0.3051 0.61623 0.0
C446 C 0.55151 0.29915 0.6419 0.0
H447 H 0.53406 0.33951 0.61142 0.0
H448 H 0.40466 0.20879 0.74244 0.0
H449 H 0.48072 0.2456 0.71325 0.0
H450 H 0.46986 0.08872 0.70998 0.0
H451 H 0.39345 0.05185 0.73994 0.0
H452 H 0.50899 0.15346 0.67254 0.0
H453 H 0.5563 0.27101 0.69134 0.0
H454 H 0.55298 0.18099 0.63477 0.0
H455 H 0.529 0.19033 0.59034 0.0
C456 C 0.43294 0.08312 1.10662 0.0
C457 C 0.40141 0.07481 0.12893 0.0
C458 C 0.47427 0.07101 1.10701 0.0
C459 C 0.4856 0.05106 0.12996 0.0
C460 C 0.45246 0.0407 0.15192 0.0
C461 C 0.41086 0.05255 0.15146 0.0
C462 C 0.53187 0.04143 0.13185 0.0
C463 C 0.57586 0.06714 1.11643 0.0
C464 C 0.6251 0.06273 1.11907 0.0
C465 C 0.67217 0.10211 1.10642 0.0
C466 C 0.71997 0.10125 1.10857 0.0
C467 C 0.72207 0.06084 1.12339 0.0
H468 H 0.59128 -0.01079 0.14295 0.0
C469 C 0.67493 0.02036 0.13554 0.0
C470 C 0.62677 0.02121 0.13342 0.0
H471 H 0.67545 -0.01147 0.14695 0.0
H472 H 0.42597 0.0995 1.08887 0.0
H473 H 0.49708 0.07746 1.08926 0.0
H474 H 0.45966 0.02477 0.16976 0.0
H475 H 0.38706 0.04562 0.16895 0.0
H476 H 0.53104 0.01561 0.14769 0.0
H477 H 0.57789 0.09615 1.10201 0.0
H478 H 0.67227 0.13433 1.09505 0.0
H479 H 0.75559 0.13275 1.09879 0.0
C480 C 0.46917 0.47572 0.50413 0.0
C481 C 0.45193 0.42812 0.48956 0.0
C482 C 0.52289 0.51701 0.50359 0.0
C483 C 0.56039 0.5115 0.4884 0.0
C484 C 0.54417 0.46204 0.47564 0.0
C485 C 0.49004 0.42056 0.47607 0.0
C486 C 0.61522 0.55853 0.4843 0.0
C487 C 0.6226 0.60852 0.48005 0.0
C488 C 0.6755 0.65783 0.47519 0.0
C489 C 0.67686 0.70112 0.46134 0.0
C490 C 0.72515 0.75005 0.45799 0.0
C491 C 0.77282 0.75702 0.46896 0.0
H492 H 0.72382 0.63196 0.49667 0.0
C493 C 0.77195 0.71348 0.48235 0.0
C494 C 0.72363 0.66415 0.48546 0.0
H495 H 0.80835 0.71799 0.49097 0.0
H496 H 0.44068 0.48209 0.51506 0.0
H497 H 0.53473 0.55408 0.51434 0.0
H498 H 0.57265 0.45675 0.46409 0.0
H499 H 0.47766 0.38402 0.46478 0.0
H500 H 0.64864 0.55129 0.48269 0.0
H501 H 0.58757 0.61339 0.47902 0.0
H502 H 0.64031 0.69725 0.45326 0.0
H503 H 0.72495 0.78279 0.44725 0.0
C504 C 0.09945 0.4878 0.76996 0.0
C505 C 0.11029 0.46551 0.79202 0.0
C506 C 0.11101 0.54184 0.77008 0.0
C507 C 0.13311 0.57452 0.79248 0.0
C508 C 0.14561 0.5525 0.81414 0.0
C509 C 0.13416 0.49861 0.81397 0.0
C510 C 0.14289 0.63111 0.79436 0.0
C511 C 0.11695 0.64992 0.77956 0.0
C512 C 0.12129 0.70397 0.78313 0.0
C513 C 0.08107 0.71182 0.77211 0.0
C514 C 0.0817 0.76068 0.77554 0.0
C515 C 0.12272 0.80319 0.79005 0.0
H516 H 0.19616 0.74384 0.80527 0.0
C517 C 0.16402 0.79643 0.80051 0.0
C518 C 0.16345 0.7473 0.79707 0.0
H519 H 0.1964 0.82884 0.81157 0.0
H520 H 0.08155 0.46329 0.75268 0.0
H521 H 0.10248 0.55753 0.75258 0.0
H522 H 0.16301 0.57662 0.83158 0.0
H523 H 0.14275 0.48249 0.83134 0.0
H524 H 0.16907 0.65623 0.80999 0.0
H525 H 0.08772 0.62304 0.7653 0.0
H526 H 0.04835 0.67961 0.76109 0.0
H527 H 0.04958 0.76493 0.76702 0.0
C528 C 0.29306 0.09882 0.24508 0.0
C529 C 0.29617 0.12937 0.2227 0.0
C530 C 0.29509 0.11936 0.2705 0.0
C531 C 0.29976 0.17079 0.27412 0.0
C532 C 0.30279 0.20081 0.25172 0.0
C533 C 0.30159 0.1809 0.22662 0.0
C534 C 0.29977 0.19458 0.30043 0.0
C535 C 0.31411 0.18148 0.32334 0.0
C536 C 0.31752 0.20856 0.34919 0.0
C537 C 0.3495 0.20552 0.36915 0.0
C538 C 0.35333 0.22877 0.39378 0.0
C539 C 0.32481 0.25558 0.39957 0.0
H540 H 0.26295 0.23815 0.34036 0.0
C541 C 0.2927 0.25885 0.37963 0.0
C542 C 0.28911 0.23574 0.3548 0.0
H543 H 0.26945 0.27834 0.38334 0.0
H544 H 0.28849 0.0589 0.24298 0.0
H545 H 0.29166 0.0943 0.28716 0.0
H546 H 0.30613 0.24027 0.25357 0.0
H547 H 0.30388 0.20604 0.21017 0.0
H548 H 0.29067 0.22716 0.30045 0.0
H549 H 0.32711 0.15178 0.32306 0.0
H550 H 0.37176 0.18486 0.36573 0.0
H551 H 0.37822 0.22479 0.40848 0.0
C552 C 0.28165 0.28711 0.5788 0.0
C553 C 0.28299 0.32083 0.55824 0.0
C554 C 0.2668 0.29308 0.60434 0.0
C555 C 0.25422 0.33383 0.61 0.0
C556 C 0.25721 0.36832 0.58955 0.0
C557 C 0.27054 0.36145 0.56406 0.0
C558 C 0.23974 0.34318 0.63694 0.0
C559 C 0.21028 0.30299 0.65433 0.0
C560 C 0.19209 0.31214 0.68042 0.0
C561 C 0.14375 0.2706 0.69132 0.0
C562 C 0.12576 0.27685 0.71586 0.0
C563 C 0.15623 0.32444 0.73067 0.0
H564 H 0.26037 0.39274 0.68765 0.0
C565 C 0.20491 0.366 0.7199 0.0
C566 C 0.22242 0.36015 0.69505 0.0
H567 H 0.22964 0.40315 0.7307 0.0
H568 H 0.29096 0.2554 0.57505 0.0
H569 H 0.26597 0.26638 0.61968 0.0
H570 H 0.24831 0.40036 0.59321 0.0
H571 H 0.27144 0.38845 0.54884 0.0
H572 H 0.25007 0.38448 0.64169 0.0
H573 H 0.1956 0.26113 0.64853 0.0
H574 H 0.11952 0.23302 0.68072 0.0
H575 H 0.08833 0.2437 0.72346 0.0
C576 C 0.01408 0.27287 0.89599 0.0
C577 C 0.06388 0.31926 0.88953 0.0
C578 C -0.0027 0.25967 0.92205 0.0
C579 C 0.02948 0.2927 0.94268 0.0
C580 C 0.07865 0.33985 0.93629 0.0
C581 C 0.09595 0.35269 0.9101 0.0
C582 C 0.01177 0.27979 0.97076 0.0
C583 C -0.01999 0.22836 0.97986 0.0
C584 C 0.96152 0.21343 1.00769 0.0
C585 C 0.94925 0.16193 1.01707 0.0
C586 C 0.92977 0.14492 1.04253 0.0
C587 C 0.92061 0.17838 1.05933 0.0
H588 H 0.96063 0.2868 1.01788 0.0
C589 C 0.93219 0.22979 1.04993 0.0
C590 C 0.95278 0.24731 1.0245 0.0
H591 H 0.92581 0.25674 1.06231 0.0
H592 H -0.01211 0.24594 0.88087 0.0
H593 H 0.95854 0.22387 0.92589 0.0
H594 H 0.10422 0.3665 0.95165 0.0
H595 H 0.13443 0.38871 0.90601 0.0
H596 H 0.02735 0.31344 0.98445 0.0
H597 H 0.96884 0.19472 0.96653 0.0
H598 H 0.95498 0.13459 1.00464 0.0
H599 H 0.92125 0.10504 1.04894 0.0
C600 C 0.86133 0.04321 0.22834 0.0
C601 C 0.84578 0.08026 0.21961 0.0
C602 C 0.85535 0.0264 0.2545 0.0
C603 C 0.83386 0.04626 0.27319 0.0
C604 C 0.81745 0.08273 0.26452 0.0
C605 C 0.82356 0.09976 0.23812 0.0
C606 C 0.82668 0.02804 0.30142 0.0
C607 C 0.85723 0.01012 0.3131 0.0
C608 C 0.85235 -0.00966 0.34088 0.0
C609 C 0.89574 -0.01284 0.35146 0.0
C610 C 0.89344 0.96692 0.3767 0.0
C611 C 0.84731 0.94842 0.39242 0.0
H612 H 0.77124 0.97296 0.34908 0.0
C613 C 0.8035 0.95134 0.38197 0.0
C614 C 0.80596 0.9721 0.35652 0.0
H615 H 0.76742 0.93791 0.39349 0.0
H616 H 0.87803 0.02645 0.21485 0.0
H617 H 0.86674 -0.00318 0.25976 0.0
H618 H 0.80017 0.09846 0.27826 0.0
H619 H 0.81081 0.12801 0.23227 0.0
H620 H 0.79677 0.03121 0.31291 0.0
H621 H 0.8899 0.01165 0.30188 0.0
H622 H 0.93204 0.00054 0.34009 0.0
H623 H 0.92832 0.96593 0.38386 0.0
C624 C 0.94463 0.92429 0.56213 0.0
C625 C 0.89123 0.90224 0.55327 0.0
C626 C 0.95599 0.91871 0.58834 0.0
C627 C 0.91422 0.89078 0.60667 0.0
C628 C 0.86086 0.86872 0.59779 0.0
C629 C 0.84951 0.87457 0.57157 0.0
C630 C 0.9245 0.88178 0.6347 0.0
C631 C -0.02836 0.91315 0.64747 0.0
C632 C -0.0169 0.90542 0.67545 0.0
C633 C 0.02622 0.94946 0.68837 0.0
C634 C 0.04019 0.94443 0.7141 0.0
C635 C 0.012 0.89481 0.72782 0.0
H636 H 0.92176 0.8202 0.67989 0.0
C637 C 0.96892 0.85037 0.71494 0.0
C638 C 0.95451 0.85559 0.68914 0.0
H639 H 0.94626 0.81144 0.72478 0.0
H640 H -0.02197 0.9455 0.54871 0.0
H641 H -0.00238 0.9352 0.59386 0.0
H642 H 0.8276 0.84656 0.61119 0.0
H643 H 0.80791 0.85639 0.56559 0.0
H644 H 0.89109 0.84923 0.64536 0.0
H645 H 0.00345 0.94825 0.63734 0.0
H646 H 0.04944 -0.0117 0.6785 0.0
H647 H 0.07371 0.97964 0.72312 0.0
C648 C 0.14173 0.95313 0.89722 0.0
C649 C 0.09903 0.90277 0.88843 0.0
C650 C 0.15558 0.96265 0.92375 0.0
C651 C 0.12686 0.92231 0.94279 0.0
C652 C 0.08482 0.87136 0.93401 0.0
C653 C 0.07097 0.86169 0.90723 0.0
C654 C 0.14095 0.93178 0.97157 0.0
C655 C 0.16863 0.98207 0.98254 0.0
C656 C 0.18537 -0.00472 1.01083 0.0
C657 C 0.20919 0.04999 1.0187 0.0
C658 C 0.22706 0.06596 1.0444 0.0
C659 C 0.22201 0.02784 1.06343 0.0
H660 H 0.16268 0.91428 1.02479 0.0
C661 C 0.1982 0.97286 1.05574 0.0
C662 C 0.18014 0.95674 1.02981 0.0
H663 H 0.19356 0.94217 1.06974 0.0
H664 H 0.16514 -0.01424 0.8835 0.0
H665 H 0.18959 0.00172 0.92901 0.0
H666 H 0.06216 0.83898 0.94796 0.0
H667 H 0.038 0.82238 0.90135 0.0
H668 H 0.1268 0.8961 0.98394 0.0
H669 H 0.17928 0.017 0.9701 0.0
H670 H 0.21424 0.08102 1.00479 0.0
H671 H 0.24505 0.10863 1.04928 0.0
loop_
_geom_bond_atom_site_label_1
_geom_bond_atom_site_label_2
_geom_bond_distance
_geom_bond_site_symmetry_2
_ccdc_geom_bond_type
Tb0 C2 2.809 . S
Tb0 O20 2.484 . S
Tb0 O21 2.440 . S
Tb0 O22 2.658 . S
Tb0 O23 2.409 . S
Tb0 O24 2.378 . S
Tb0 O28 2.325 . S
Tb0 O31 2.341 1_554 S
Tb1 C11 2.809 1_554 S
Tb1 O22 2.325 . S
Tb1 O25 2.341 . S
Tb1 O26 2.484 1_554 S
Tb1 O27 2.440 1_554 S
Tb1 O28 2.658 . S
Tb1 O29 2.409 . S
Tb1 O30 2.378 1_554 S
C2 Tb0 2.809 . S
C2 C3 1.514 . S
C2 O20 1.248 . S
C2 O21 1.266 . S
C3 C2 1.514 . S
C3 C4 1.359 . S
C3 C8 1.348 . S
C4 C3 1.359 . S
C4 C5 1.380 . S
C4 H32 0.929 . S
C5 C4 1.380 . S
C5 C6 1.347 . S
C5 H33 0.931 . S
C6 C5 1.347 . S
C6 C7 1.369 . S
C7 C6 1.369 . S
C7 C8 1.408 . S
C7 H34 0.930 . S
C8 C3 1.348 . S
C8 C7 1.408 . S
C8 H35 0.930 . S
C9 O22 1.281 . S
C9 O23 1.254 . S
C10 O24 1.236 . S
C10 O25 1.266 . S
C11 Tb1 2.809 1_556 S
C11 C12 1.514 . S
C11 O26 1.248 . S
C11 O27 1.266 . S
C12 C11 1.514 . S
C12 C13 1.359 . S
C12 C17 1.348 . S
C13 C12 1.359 . S
C13 C14 1.380 . S
C13 H36 0.929 . S
C14 C13 1.380 . S
C14 C15 1.347 . S
C14 H37 0.931 . S
C15 C14 1.347 . S
C15 C16 1.369 . S
C16 C15 1.369 . S
C16 C17 1.408 . S
C16 H38 0.930 . S
C17 C12 1.348 . S
C17 C16 1.408 . S
C17 H39 0.930 . S
C18 O28 1.281 . S
C18 O29 1.254 . S
C19 O30 1.236 . S
C19 O31 1.266 . S
O20 Tb0 2.484 . S
O20 C2 1.248 . S
O21 Tb0 2.440 . S
O21 C2 1.266 . S
O22 Tb0 2.658 . S
O22 Tb1 2.325 . S
O22 C9 1.281 . S
O23 Tb0 2.409 . S
O23 C9 1.254 . S
O24 Tb0 2.378 . S
O24 C10 1.236 . S
O25 Tb1 2.341 . S
O25 C10 1.266 . S
O26 Tb1 2.484 1_556 S
O26 C11 1.248 . S
O27 Tb1 2.440 1_556 S
O27 C11 1.266 . S
O28 Tb0 2.325 . S
O28 Tb1 2.658 . S
O28 C18 1.281 . S
O29 Tb1 2.409 . S
O29 C18 1.254 . S
O30 Tb1 2.378 1_556 S
O30 C19 1.236 . S
O31 Tb0 2.341 1_556 S
O31 C19 1.266 . S
H32 C4 0.929 . S
H33 C5 0.931 . S
H34 C7 0.930 . S
H35 C8 0.930 . S
H36 C13 0.929 . S
H37 C14 0.931 . S
H38 C16 0.930 . S
H39 C17 0.930 . S
Tb40 C42 2.809 . S
Tb40 O60 2.484 . S
Tb40 O61 2.440 . S
Tb40 O62 2.658 . S
Tb40 O63 2.409 . S
Tb40 O64 2.378 . S
Tb40 O68 2.325 . S
Tb40 O71 2.341 . S
Tb41 C51 2.809 . S
Tb41 O62 2.325 . S
Tb41 O65 2.341 . S
Tb41 O66 2.484 . S
Tb41 O67 2.440 . S
Tb41 O68 2.658 . S
Tb41 O69 2.409 . S
Tb41 O70 2.378 . S
C42 Tb40 2.809 . S
C42 C43 1.514 . S
C42 O60 1.248 . S
C42 O61 1.266 . S
C43 C42 1.514 . S
C43 C44 1.359 . S
C43 C48 1.348 . S
C44 C43 1.359 . S
C44 C45 1.380 . S
C44 H72 0.929 . S
C45 C44 1.380 . S
C45 C46 1.347 . S
C45 H73 0.931 . S
C46 C45 1.347 . S
C46 C47 1.369 . S
C47 C46 1.369 . S
C47 C48 1.408 . S
C47 H74 0.930 . S
C48 C43 1.348 . S
C48 C47 1.408 . S
C48 H75 0.930 . S
C49 O62 1.281 . S
C49 O63 1.254 . S
C50 O64 1.236 . S
C50 O65 1.266 . S
C51 Tb41 2.809 . S
C51 C52 1.514 . S
C51 O66 1.248 . S
C51 O67 1.266 . S
C52 C51 1.514 . S
C52 C53 1.359 . S
C52 C57 1.348 . S
C53 C52 1.359 . S
C53 C54 1.380 . S
C53 H76 0.929 . S
C54 C53 1.380 . S
C54 C55 1.347 . S
C54 H77 0.931 . S
C55 C54 1.347 . S
C55 C56 1.369 . S
C56 C55 1.369 . S
C56 C57 1.408 . S
C56 H78 0.930 . S
C57 C52 1.348 . S
C57 C56 1.408 . S
C57 H79 0.930 . S
C58 O68 1.281 . S
C58 O69 1.254 . S
C59 O70 1.236 . S
C59 O71 1.266 . S
O60 Tb40 2.484 . S
O60 C42 1.248 . S
O61 Tb40 2.440 . S
O61 C42 1.266 . S
O62 Tb40 2.658 . S
O62 Tb41 2.325 . S
O62 C49 1.281 . S
O63 Tb40 2.409 . S
O63 C49 1.254 . S
O64 Tb40 2.378 . S
O64 C50 1.236 . S
O65 Tb41 2.341 . S
O65 C50 1.266 . S
O66 Tb41 2.484 . S
O66 C51 1.248 . S
O67 Tb41 2.440 . S
O67 C51 1.266 . S
O68 Tb40 2.325 . S
O68 Tb41 2.658 . S
O68 C58 1.281 . S
O69 Tb41 2.409 . S
O69 C58 1.254 . S
O70 Tb41 2.378 . S
O70 C59 1.236 . S
O71 Tb40 2.341 . S
O71 C59 1.266 . S
H72 C44 0.929 . S
H73 C45 0.931 . S
H74 C47 0.930 . S
H75 C48 0.930 . S
H76 C53 0.929 . S
H77 C54 0.931 . S
H78 C56 0.930 . S
H79 C57 0.930 . S
Tb80 C82 2.809 . S
Tb80 O100 2.484 . S
Tb80 O101 2.440 . S
Tb80 O102 2.658 . S
Tb80 O103 2.409 . S
Tb80 O104 2.389 . S
Tb80 O108 2.341 . S
Tb80 O111 2.341 . S
Tb81 C91 2.809 . S
Tb81 O102 2.325 1_655 S
Tb81 O105 2.341 . S
Tb81 O106 2.484 . S
Tb81 O107 2.440 . S
Tb81 O108 2.653 1_655 S
Tb81 O109 2.409 . S
Tb81 O110 2.378 1_655 S
C82 Tb80 2.809 . S
C82 C83 1.514 . S
C82 O100 1.248 . S
C82 O101 1.266 . S
C83 C82 1.514 . S
C83 C84 1.359 . S
C83 C88 1.348 . S
C84 C83 1.359 . S
C84 C85 1.380 . S
C84 H112 0.929 . S
C85 C84 1.380 . S
C85 C86 1.347 . S
C85 H113 0.931 . S
C86 C85 1.347 . S
C86 C87 1.369 . S
C87 C86 1.369 . S
C87 C88 1.408 . S
C87 H114 0.930 . S
C88 C83 1.348 . S
C88 C87 1.408 . S
C88 H115 0.930 . S
C89 O102 1.281 . S
C89 O103 1.254 . S
C90 O104 1.217 1_655 S
C90 O105 1.266 . S
C91 Tb81 2.809 . S
C91 C92 1.514 . S
C91 O106 1.248 . S
C91 O107 1.266 . S
C92 C91 1.514 . S
C92 C93 1.359 . S
C92 C97 1.348 . S
C93 C92 1.359 . S
C93 C94 1.380 . S
C93 H116 0.929 . S
C94 C93 1.380 . S
C94 C95 1.347 . S
C94 H117 0.931 . S
C95 C94 1.347 . S
C95 C96 1.369 . S
C96 C95 1.369 . S
C96 C97 1.408 . S
C96 H118 0.930 . S
C97 C92 1.348 . S
C97 C96 1.408 . S
C97 H119 0.930 . S
C98 O108 1.268 1_655 S
C98 O109 1.254 . S
C99 O110 1.236 . S
C99 O111 1.266 . S
O100 Tb80 2.484 . S
O100 C82 1.248 . S
O101 Tb80 2.440 . S
O101 C82 1.266 . S
O102 Tb80 2.658 . S
O102 Tb81 2.325 1_455 S
O102 C89 1.281 . S
O103 Tb80 2.409 . S
O103 C89 1.254 . S
O104 Tb80 2.389 . S
O104 C90 1.217 1_455 S
O105 Tb81 2.341 . S
O105 C90 1.266 . S
O106 Tb81 2.484 . S
O106 C91 1.248 . S
O107 Tb81 2.440 . S
O107 C91 1.266 . S
O108 Tb80 2.341 . S
O108 Tb81 2.653 1_455 S
O108 C98 1.268 1_455 S
O109 Tb81 2.409 . S
O109 C98 1.254 . S
O110 Tb81 2.378 1_455 S
O110 C99 1.236 . S
O111 Tb80 2.341 . S
O111 C99 1.266 . S
H112 C84 0.929 . S
H113 C85 0.931 . S
H114 C87 0.930 . S
H115 C88 0.930 . S
H116 C93 0.929 . S
H117 C94 0.931 . S
H118 C96 0.930 . S
H119 C97 0.930 . S
Tb120 C122 2.809 . S
Tb120 O140 2.484 . S
Tb120 O141 2.440 . S
Tb120 O142 2.658 . S
Tb120 O143 2.409 . S
Tb120 O144 2.378 . S
Tb120 O148 2.325 . S
Tb120 O151 2.341 1_554 S
Tb121 C131 2.809 1_554 S
Tb121 O142 2.325 1_565 S
Tb121 O145 2.341 . S
Tb121 O146 2.484 1_554 S
Tb121 O147 2.440 1_554 S
Tb121 O148 2.658 1_565 S
Tb121 O149 2.409 . S
Tb121 O150 2.378 1_564 S
C122 Tb120 2.809 . S
C122 C123 1.514 . S
C122 O140 1.248 . S
C122 O141 1.266 . S
C123 C122 1.514 . S
C123 C124 1.359 . S
C123 C128 1.348 . S
C124 C123 1.359 . S
C124 C125 1.380 . S
C124 H152 0.929 . S
C125 C124 1.380 . S
C125 C126 1.347 . S
C125 H153 0.931 . S
C126 C125 1.347 . S
C126 C127 1.369 . S
C127 C126 1.369 . S
C127 C128 1.408 . S
C127 H154 0.930 . S
C128 C123 1.348 . S
C128 C127 1.408 . S
C128 H155 0.930 . S
C129 O142 1.281 . S
C129 O143 1.254 . S
C130 O144 1.236 1_565 S
C130 O145 1.266 . S
C131 Tb121 2.809 1_556 S
C131 C132 1.514 . S
C131 O146 1.248 . S
C131 O147 1.266 . S
C132 C131 1.514 . S
C132 C133 1.359 . S
C132 C137 1.348 . S
C133 C132 1.359 . S
C133 C134 1.380 . S
C133 H156 0.929 . S
C134 C133 1.380 . S
C134 C135 1.347 . S
C134 H157 0.931 . S
C135 C134 1.347 . S
C135 C136 1.369 . S
C136 C135 1.369 . S
C136 C137 1.408 . S
C136 H158 0.930 . S
C137 C132 1.348 . S
C137 C136 1.408 . S
C137 H159 0.930 . S
C138 O148 1.281 1_565 S
C138 O149 1.254 . S
C139 O150 1.236 . S
C139 O151 1.266 . S
O140 Tb120 2.484 . S
O140 C122 1.248 . S
O141 Tb120 2.440 . S
O141 C122 1.266 . S
O142 Tb120 2.658 . S
O142 Tb121 2.325 1_545 S
O142 C129 1.281 . S
O143 Tb120 2.409 . S
O143 C129 1.254 . S
O144 Tb120 2.378 . S
O144 C130 1.236 1_545 S
O145 Tb121 2.341 . S
O145 C130 1.266 . S
O146 Tb121 2.484 1_556 S
O146 C131 1.248 . S
O147 Tb121 2.440 1_556 S
O147 C131 1.266 . S
O148 Tb120 2.325 . S
O148 Tb121 2.658 1_545 S
O148 C138 1.281 1_545 S
O149 Tb121 2.409 . S
O149 C138 1.254 . S
O150 Tb121 2.378 1_546 S
O150 C139 1.236 . S
O151 Tb120 2.341 1_556 S
O151 C139 1.266 . S
H152 C124 0.929 . S
H153 C125 0.931 . S
H154 C127 0.930 . S
H155 C128 0.930 . S
H156 C133 0.929 . S
H157 C134 0.931 . S
H158 C136 0.930 . S
H159 C137 0.930 . S
Tb160 C162 2.809 . S
Tb160 O180 2.484 . S
Tb160 O181 2.440 . S
Tb160 O182 2.658 . S
Tb160 O183 2.409 . S
Tb160 O184 2.378 . S
Tb160 O188 2.325 . S
Tb160 O191 2.341 . S
Tb161 C171 2.809 1_655 S
Tb161 O182 2.325 . S
Tb161 O185 2.341 . S
Tb161 O186 2.484 1_655 S
Tb161 O187 2.440 . S
Tb161 O188 2.658 . S
Tb161 O189 2.409 . S
Tb161 O190 2.378 . S
C162 Tb160 2.809 . S
C162 C163 1.514 . S
C162 O180 1.248 . S
C162 O181 1.266 . S
C163 C162 1.514 . S
C163 C164 1.359 . S
C163 C168 1.348 . S
C164 C163 1.359 . S
C164 C165 1.380 . S
C164 H192 0.929 . S
C165 C164 1.380 . S
C165 C166 1.347 . S
C165 H193 0.931 . S
C166 C165 1.347 . S
C166 C167 1.369 . S
C167 C166 1.369 . S
C167 C168 1.408 . S
C167 H194 0.930 . S
C168 C163 1.348 . S
C168 C167 1.408 . S
C168 H195 0.930 . S
C169 O182 1.281 1_455 S
C169 O183 1.254 1_455 S
C170 O184 1.236 . S
C170 O185 1.266 . S
C171 Tb161 2.809 1_455 S
C171 C172 1.514 . S
C171 O186 1.248 . S
C171 O187 1.266 1_455 S
C172 C171 1.514 . S
C172 C173 1.359 . S
C172 C177 1.348 . S
C173 C172 1.359 . S
C173 C174 1.380 . S
C173 H196 0.929 . S
C174 C173 1.380 . S
C174 C175 1.347 . S
C174 H197 0.931 . S
C175 C174 1.347 . S
C175 C176 1.369 . S
C176 C175 1.369 . S
C176 C177 1.408 . S
C176 H198 0.930 . S
C177 C172 1.348 . S
C177 C176 1.408 . S
C177 H199 0.930 1_455 S
C178 O188 1.281 . S
C178 O189 1.254 . S
C179 O190 1.236 . S
C179 O191 1.266 . S
O180 Tb160 2.484 . S
O180 C162 1.248 . S
O181 Tb160 2.440 . S
O181 C162 1.266 . S
O182 Tb160 2.658 . S
O182 Tb161 2.325 . S
O182 C169 1.281 1_655 S
O183 Tb160 2.409 . S
O183 C169 1.254 1_655 S
O184 Tb160 2.378 . S
O184 C170 1.236 . S
O185 Tb161 2.341 . S
O185 C170 1.266 . S
O186 Tb161 2.484 1_455 S
O186 C171 1.248 . S
O187 Tb161 2.440 . S
O187 C171 1.266 1_655 S
O188 Tb160 2.325 . S
O188 Tb161 2.658 . S
O188 C178 1.281 . S
O189 Tb161 2.409 . S
O189 C178 1.254 . S
O190 Tb161 2.378 . S
O190 C179 1.236 . S
O191 Tb160 2.341 . S
O191 C179 1.266 . S
H192 C164 0.929 . S
H193 C165 0.931 . S
H194 C167 0.930 . S
H195 C168 0.930 . S
H196 C173 0.929 . S
H197 C174 0.931 . S
H198 C176 0.930 . S
H199 C177 0.930 1_655 S
Tb200 C202 2.809 . S
Tb200 O220 2.484 . S
Tb200 O221 2.440 . S
Tb200 O222 2.653 1_565 S
Tb200 O223 2.386 1_565 S
Tb200 O224 2.378 . S
Tb200 O228 2.325 . S
Tb200 O231 2.341 . S
Tb201 C211 2.809 1_565 S
Tb201 O222 2.319 1_565 S
Tb201 O225 2.342 . S
Tb201 O226 2.484 1_565 S
Tb201 O227 2.440 . S
Tb201 O228 2.658 . S
Tb201 O229 2.409 . S
Tb201 O230 2.378 . S
C202 Tb200 2.809 . S
C202 C203 1.514 . S
C202 O220 1.248 . S
C202 O221 1.266 . S
C203 C202 1.514 . S
C203 C204 1.359 . S
C203 C208 1.348 . S
C204 C203 1.359 . S
C204 C205 1.380 . S
C204 H232 0.929 . S
C205 C204 1.380 . S
C205 C206 1.347 . S
C205 H233 0.931 . S
C206 C205 1.347 . S
C206 C207 1.369 . S
C207 C206 1.369 . S
C207 C208 1.408 . S
C207 H234 0.930 . S
C208 C203 1.348 . S
C208 C207 1.408 . S
C208 H235 0.930 . S
C209 O222 1.288 . S
C209 O223 1.256 . S
C210 O224 1.236 . S
C210 O225 1.265 . S
C211 Tb201 2.809 1_545 S
C211 C212 1.514 . S
C211 O226 1.248 . S
C211 O227 1.266 1_545 S
C212 C211 1.514 . S
C212 C213 1.359 . S
C212 C217 1.348 . S
C213 C212 1.359 . S
C213 C214 1.380 . S
C213 H236 0.929 . S
C214 C213 1.380 . S
C214 C215 1.347 . S
C214 H237 0.931 . S
C215 C214 1.347 . S
C215 C216 1.369 . S
C216 C215 1.369 . S
C216 C217 1.408 . S
C216 H238 0.930 . S
C217 C212 1.348 . S
C217 C216 1.408 . S
C217 H239 0.930 1_545 S
C218 O228 1.281 . S
C218 O229 1.254 . S
C219 O230 1.236 . S
C219 O231 1.266 . S
O220 Tb200 2.484 . S
O220 C202 1.248 . S
O221 Tb200 2.440 . S
O221 C202 1.266 . S
O222 Tb200 2.653 1_545 S
O222 Tb201 2.319 1_545 S
O222 C209 1.288 . S
O223 Tb200 2.386 1_545 S
O223 C209 1.256 . S
O224 Tb200 2.378 . S
O224 C210 1.236 . S
O225 Tb201 2.342 . S
O225 C210 1.265 . S
O226 Tb201 2.484 1_545 S
O226 C211 1.248 . S
O227 Tb201 2.440 . S
O227 C211 1.266 1_565 S
O228 Tb200 2.325 . S
O228 Tb201 2.658 . S
O228 C218 1.281 . S
O229 Tb201 2.409 . S
O229 C218 1.254 . S
O230 Tb201 2.378 . S
O230 C219 1.236 . S
O231 Tb200 2.341 . S
O231 C219 1.266 . S
H232 C204 0.929 . S
H233 C205 0.931 . S
H234 C207 0.930 . S
H235 C208 0.930 . S
H236 C213 0.929 . S
H237 C214 0.931 . S
H238 C216 0.930 . S
H239 C217 0.930 1_565 S
C240 C241 1.380 1_556 S
C240 C242 1.382 1_656 S
C240 H256 0.957 . S
C241 C240 1.380 1_554 S
C241 C245 1.383 . S
C242 C240 1.382 1_454 S
C242 C243 1.402 . S
C242 H257 0.951 1_554 S
C243 C242 1.402 . S
C243 C244 1.375 1_455 S
C243 C246 1.481 . S
C244 C243 1.375 1_655 S
C244 C245 1.367 . S
C244 H258 0.951 1_655 S
C245 C241 1.383 . S
C245 C244 1.367 . S
C245 H259 0.950 1_545 S
C246 C243 1.481 . S
C246 C247 1.297 . S
C246 H260 0.950 . S
C247 C246 1.297 . S
C247 C248 1.479 . S
C247 H261 0.950 1_554 S
C248 C247 1.479 . S
C248 C249 1.375 1_554 S
C248 C254 1.404 . S
C249 C248 1.375 1_556 S
C249 C250 1.369 . S
C249 H262 0.950 . S
C250 C249 1.369 . S
C250 C251 1.392 1_556 S
C250 H263 0.951 . S
C251 C250 1.392 1_554 S
C251 C253 1.384 . S
H252 C254 0.949 . S
C253 C251 1.384 . S
C253 C254 1.385 . S
C253 H255 0.950 . S
C254 C248 1.404 . S
C254 H252 0.949 . S
C254 C253 1.385 . S
H255 C253 0.950 . S
H256 C240 0.957 . S
H257 C242 0.951 1_556 S
H258 C244 0.951 1_455 S
H259 C245 0.950 1_565 S
H260 C246 0.950 . S
H261 C247 0.950 1_556 S
H262 C249 0.950 . S
H263 C250 0.951 . S
C264 C265 1.386 . S
C264 C266 1.383 1_565 S
C264 H280 0.951 . S
C265 C264 1.386 . S
C265 C269 1.383 1_455 S
C266 C264 1.383 1_545 S
C266 C267 1.402 . S
C266 H281 0.951 . S
C267 C266 1.402 . S
C267 C268 1.375 1_545 S
C267 C270 1.481 . S
C268 C267 1.375 1_565 S
C268 C269 1.367 1_455 S
C268 H282 0.951 1_465 S
C269 C265 1.383 1_655 S
C269 C268 1.367 1_655 S
C269 H283 0.950 . S
C270 C267 1.481 . S
C270 C271 1.297 . S
C270 H284 0.950 . S
C271 C270 1.297 . S
C271 C272 1.479 . S
C271 H285 0.950 . S
C272 C271 1.479 . S
C272 C273 1.375 . S
C272 C278 1.404 . S
C273 C272 1.375 . S
C273 C274 1.369 . S
C273 H286 0.950 . S
C274 C273 1.369 . S
C274 C275 1.392 . S
C274 H287 0.951 . S
C275 C274 1.392 . S
C275 C277 1.384 . S
H276 C278 0.949 . S
C277 C275 1.384 . S
C277 C278 1.385 . S
C277 H279 0.950 . S
C278 C272 1.404 . S
C278 H276 0.949 . S
C278 C277 1.385 . S
H279 C277 0.950 . S
H280 C264 0.951 . S
H281 C266 0.951 . S
H282 C268 0.951 1_645 S
H283 C269 0.950 . S
H284 C270 0.950 . S
H285 C271 0.950 . S
H286 C273 0.950 . S
H287 C274 0.951 . S
C288 C289 1.386 . S
C288 C290 1.383 . S
C288 H304 0.951 . S
C289 C288 1.386 . S
C289 C293 1.383 . S
C290 C288 1.383 . S
C290 C291 1.402 . S
C290 H305 0.951 . S
C291 C290 1.402 . S
C291 C292 1.375 . S
C291 C294 1.481 . S
C292 C291 1.375 . S
C292 C293 1.367 . S
C292 H306 0.951 . S
C293 C289 1.383 . S
C293 C292 1.367 . S
C293 H307 0.950 . S
C294 C291 1.481 . S
C294 C295 1.297 . S
C294 H308 0.950 . S
C295 C294 1.297 . S
C295 C296 1.479 . S
C295 H309 0.950 . S
C296 C295 1.479 . S
C296 C297 1.375 . S
C296 C302 1.404 . S
C297 C296 1.375 . S
C297 C298 1.369 1_455 S
C297 H310 0.950 . S
C298 C297 1.369 1_655 S
C298 C299 1.392 . S
C298 H311 0.951 . S
C299 C298 1.392 . S
C299 C301 1.384 1_655 S
H300 C302 0.949 . S
C301 C299 1.384 1_455 S
C301 C302 1.385 . S
C301 H303 0.950 1_455 S
C302 C296 1.404 . S
C302 H300 0.949 . S
C302 C301 1.385 . S
H303 C301 0.950 1_655 S
H304 C288 0.951 . S
H305 C290 0.951 . S
H306 C292 0.951 . S
H307 C293 0.950 . S
H308 C294 0.950 . S
H309 C295 0.950 . S
H310 C297 0.950 . S
H311 C298 0.951 . S
C312 C313 1.386 . S
C312 C314 1.383 . S
C312 H328 0.951 . S
C313 C312 1.386 . S
C313 C317 1.383 . S
C314 C312 1.383 . S
C314 C315 1.402 . S
C314 H329 0.951 . S
C315 C314 1.402 . S
C315 C316 1.375 . S
C315 C318 1.481 . S
C316 C315 1.375 . S
C316 C317 1.367 . S
C316 H330 0.951 . S
C317 C313 1.383 . S
C317 C316 1.367 . S
C317 H331 0.950 . S
C318 C315 1.481 . S
C318 C319 1.297 . S
C318 H332 0.950 . S
C319 C318 1.297 . S
C319 C320 1.479 . S
C319 H333 0.950 . S
C320 C319 1.479 . S
C320 C321 1.375 . S
C320 C326 1.404 . S
C321 C320 1.375 . S
C321 C322 1.369 . S
C321 H334 0.950 . S
C322 C321 1.369 . S
C322 C323 1.392 . S
C322 H335 0.951 . S
C323 C322 1.392 . S
C323 C325 1.384 . S
H324 C326 0.949 . S
C325 C323 1.384 . S
C325 C326 1.385 . S
C325 H327 0.950 . S
C326 C320 1.404 . S
C326 H324 0.949 . S
C326 C325 1.385 . S
H327 C325 0.950 . S
H328 C312 0.951 . S
H329 C314 0.951 . S
H330 C316 0.951 . S
H331 C317 0.950 . S
H332 C318 0.950 . S
H333 C319 0.950 . S
H334 C321 0.950 . S
H335 C322 0.951 . S
C336 C337 1.386 . S
C336 C338 1.383 . S
C336 H352 0.951 . S
C337 C336 1.386 . S
C337 C341 1.383 . S
C338 C336 1.383 . S
C338 C339 1.402 . S
C338 H353 0.951 . S
C339 C338 1.402 . S
C339 C340 1.375 . S
C339 C342 1.481 . S
C340 C339 1.375 . S
C340 C341 1.367 . S
C340 H354 0.951 . S
C341 C337 1.383 . S
C341 C340 1.367 . S
C341 H355 0.950 . S
C342 C339 1.481 . S
C342 C343 1.297 1_455 S
C342 H356 0.950 1_455 S
C343 C342 1.297 1_655 S
C343 C344 1.479 . S
C343 H357 0.950 1_655 S
C344 C343 1.479 . S
C344 C345 1.375 . S
C344 C350 1.404 . S
C345 C344 1.375 . S
C345 C346 1.369 . S
C345 H358 0.950 . S
C346 C345 1.369 . S
C346 C347 1.392 . S
C346 H359 0.951 . S
C347 C346 1.392 . S
C347 C349 1.384 . S
H348 C350 0.949 . S
C349 C347 1.384 . S
C349 C350 1.385 . S
C349 H351 0.950 . S
C350 C344 1.404 . S
C350 H348 0.949 . S
C350 C349 1.385 . S
H351 C349 0.950 . S
H352 C336 0.951 . S
H353 C338 0.951 . S
H354 C340 0.951 . S
H355 C341 0.950 . S
H356 C342 0.950 1_655 S
H357 C343 0.950 1_455 S
H358 C345 0.950 . S
H359 C346 0.951 . S
C360 C361 1.386 . S
C360 C362 1.383 . S
C360 H376 0.951 . S
C361 C360 1.386 . S
C361 C365 1.383 . S
C362 C360 1.383 . S
C362 C363 1.402 . S
C362 H377 0.951 . S
C363 C362 1.402 . S
C363 C364 1.375 . S
C363 C366 1.481 . S
C364 C363 1.375 . S
C364 C365 1.367 . S
C364 H378 0.951 . S
C365 C361 1.383 . S
C365 C364 1.367 . S
C365 H379 0.950 . S
C366 C363 1.481 . S
C366 C367 1.297 . S
C366 H380 0.950 1_545 S
C367 C366 1.297 . S
C367 C368 1.479 1_545 S
C367 H381 0.950 . S
C368 C367 1.479 1_565 S
C368 C369 1.375 . S
C368 C374 1.404 . S
C369 C368 1.375 . S
C369 C370 1.369 . S
C369 H382 0.950 . S
C370 C369 1.369 . S
C370 C371 1.392 . S
C370 H383 0.951 . S
C371 C370 1.392 . S
C371 C373 1.384 . S
H372 C374 0.949 . S
C373 C371 1.384 . S
C373 C374 1.385 . S
C373 H375 0.950 . S
C374 C368 1.404 . S
C374 H372 0.949 . S
C374 C373 1.385 . S
H375 C373 0.950 . S
H376 C360 0.951 . S
H377 C362 0.951 . S
H378 C364 0.951 . S
H379 C365 0.950 . S
H380 C366 0.950 1_565 S
H381 C367 0.950 . S
H382 C369 0.950 . S
H383 C370 0.951 . S
C384 C385 1.386 . S
C384 C386 1.383 . S
C384 H400 0.951 . S
C385 C384 1.386 . S
C385 C389 1.383 . S
C386 C384 1.383 . S
C386 C387 1.402 . S
C386 H401 0.951 . S
C387 C386 1.402 . S
C387 C388 1.375 . S
C387 C390 1.481 . S
C388 C387 1.375 . S
C388 C389 1.367 . S
C388 H402 0.951 . S
C389 C385 1.383 . S
C389 C388 1.367 . S
C389 H403 0.950 . S
C390 C387 1.481 . S
C390 C391 1.297 . S
C390 H404 0.950 . S
C391 C390 1.297 . S
C391 C392 1.479 . S
C391 H405 0.950 . S
C392 C391 1.479 . S
C392 C393 1.375 1_655 S
C392 C398 1.404 . S
C393 C392 1.375 1_455 S
C393 C394 1.369 . S
C393 H406 0.950 . S
C394 C393 1.369 . S
C394 C395 1.392 . S
C394 H407 0.951 . S
C395 C394 1.392 . S
C395 C397 1.384 . S
H396 C398 0.949 . S
C397 C395 1.384 . S
C397 C398 1.385 1_455 S
C397 H399 0.950 . S
C398 C392 1.404 . S
C398 H396 0.949 . S
C398 C397 1.385 1_655 S
H399 C397 0.950 . S
H400 C384 0.951 . S
H401 C386 0.951 . S
H402 C388 0.951 . S
H403 C389 0.950 . S
H404 C390 0.950 . S
H405 C391 0.950 . S
H406 C393 0.950 . S
H407 C394 0.951 . S
C408 C409 1.386 . S
C408 C410 1.383 . S
C408 H424 0.951 . S
C409 C408 1.386 . S
C409 C413 1.383 . S
C410 C408 1.383 . S
C410 C411 1.402 . S
C410 H425 0.951 . S
C411 C410 1.402 . S
C411 C412 1.375 . S
C411 C414 1.481 . S
C412 C411 1.375 . S
C412 C413 1.367 . S
C412 H426 0.951 . S
C413 C409 1.383 . S
C413 C412 1.367 . S
C413 H427 0.950 . S
C414 C411 1.481 . S
C414 C415 1.297 . S
C414 H428 0.950 . S
C415 C414 1.297 . S
C415 C416 1.479 . S
C415 H429 0.950 . S
C416 C415 1.479 . S
C416 C417 1.375 1_565 S
C416 C422 1.404 . S
C417 C416 1.375 1_545 S
C417 C418 1.369 . S
C417 H430 0.950 . S
C418 C417 1.369 . S
C418 C419 1.392 . S
C418 H431 0.951 . S
C419 C418 1.392 . S
C419 C421 1.384 . S
H420 C422 0.949 . S
C421 C419 1.384 . S
C421 C422 1.385 1_545 S
C421 H423 0.950 . S
C422 C416 1.404 . S
C422 H420 0.949 . S
C422 C421 1.385 1_565 S
H423 C421 0.950 . S
H424 C408 0.951 . S
H425 C410 0.951 . S
H426 C412 0.951 . S
H427 C413 0.950 . S
H428 C414 0.950 . S
H429 C415 0.950 . S
H430 C417 0.950 . S
H431 C418 0.951 . S
C432 C433 1.386 . S
C432 C434 1.383 . S
C432 H448 0.951 . S
C433 C432 1.386 . S
C433 C437 1.383 . S
C434 C432 1.383 . S
C434 C435 1.402 . S
C434 H449 0.951 . S
C435 C434 1.402 . S
C435 C436 1.375 . S
C435 C438 1.481 . S
C436 C435 1.375 . S
C436 C437 1.367 . S
C436 H450 0.951 . S
C437 C433 1.383 . S
C437 C436 1.367 . S
C437 H451 0.950 . S
C438 C435 1.481 . S
C438 C439 1.297 . S
C438 H452 0.950 . S
C439 C438 1.297 . S
C439 C440 1.479 . S
C439 H453 0.950 . S
C440 C439 1.479 . S
C440 C441 1.375 . S
C440 C446 1.404 . S
C441 C440 1.375 . S
C441 C442 1.369 . S
C441 H454 0.950 . S
C442 C441 1.369 . S
C442 C443 1.392 . S
C442 H455 0.951 . S
C443 C442 1.392 . S
C443 C445 1.384 . S
H444 C446 0.949 . S
C445 C443 1.384 . S
C445 C446 1.385 . S
C445 H447 0.950 . S
C446 C440 1.404 . S
C446 H444 0.949 . S
C446 C445 1.385 . S
H447 C445 0.950 . S
H448 C432 0.951 . S
H449 C434 0.951 . S
H450 C436 0.951 . S
H451 C437 0.950 . S
H452 C438 0.950 . S
H453 C439 0.950 . S
H454 C441 0.950 . S
H455 C442 0.951 . S
C456 C457 1.386 . S
C456 C458 1.383 . S
C456 H472 0.951 . S
C457 C456 1.386 . S
C457 C461 1.383 . S
C458 C456 1.383 . S
C458 C459 1.402 . S
C458 H473 0.951 . S
C459 C458 1.402 . S
C459 C460 1.375 . S
C459 C462 1.481 . S
C460 C459 1.375 . S
C460 C461 1.367 . S
C460 H474 0.951 . S
C461 C457 1.383 . S
C461 C460 1.367 . S
C461 H475 0.950 . S
C462 C459 1.481 . S
C462 C463 1.297 . S
C462 H476 0.950 . S
C463 C462 1.297 . S
C463 C464 1.479 . S
C463 H477 0.950 . S
C464 C463 1.479 . S
C464 C465 1.375 . S
C464 C470 1.404 . S
C465 C464 1.375 . S
C465 C466 1.369 . S
C465 H478 0.950 . S
C466 C465 1.369 . S
C466 C467 1.392 . S
C466 H479 0.951 . S
C467 C466 1.392 . S
C467 C469 1.384 1_545 S
H468 C470 0.949 . S
C469 C467 1.384 1_565 S
C469 C470 1.385 1_565 S
C469 H471 0.950 . S
C470 C464 1.404 . S
C470 H468 0.949 . S
C470 C469 1.385 1_545 S
H471 C469 0.950 . S
H472 C456 0.951 . S
H473 C458 0.951 . S
H474 C460 0.951 . S
H475 C461 0.950 . S
H476 C462 0.950 . S
H477 C463 0.950 . S
H478 C465 0.950 . S
H479 C466 0.951 . S
C480 C481 1.386 . S
C480 C482 1.383 . S
C480 H496 0.951 . S
C481 C480 1.386 . S
C481 C485 1.383 . S
C482 C480 1.383 . S
C482 C483 1.402 . S
C482 H497 0.951 . S
C483 C482 1.402 . S
C483 C484 1.375 . S
C483 C486 1.481 . S
C484 C483 1.375 . S
C484 C485 1.367 . S
C484 H498 0.951 . S
C485 C481 1.383 . S
C485 C484 1.367 . S
C485 H499 0.950 . S
C486 C483 1.481 . S
C486 C487 1.297 . S
C486 H500 0.950 . S
C487 C486 1.297 . S
C487 C488 1.479 . S
C487 H501 0.950 . S
C488 C487 1.479 . S
C488 C489 1.375 . S
C488 C494 1.404 . S
C489 C488 1.375 . S
C489 C490 1.369 . S
C489 H502 0.950 . S
C490 C489 1.369 . S
C490 C491 1.392 . S
C490 H503 0.951 . S
C491 C490 1.392 . S
C491 C493 1.384 . S
H492 C494 0.949 . S
C493 C491 1.384 . S
C493 C494 1.385 . S
C493 H495 0.950 . S
C494 C488 1.404 . S
C494 H492 0.949 . S
C494 C493 1.385 . S
H495 C493 0.950 . S
H496 C480 0.951 . S
H497 C482 0.951 . S
H498 C484 0.951 . S
H499 C485 0.950 . S
H500 C486 0.950 . S
H501 C487 0.950 . S
H502 C489 0.950 . S
H503 C490 0.951 . S
C504 C505 1.386 1_655 S
C504 C506 1.383 1_655 S
C504 H520 0.951 . S
C505 C504 1.386 1_455 S
C505 C509 1.383 . S
C506 C504 1.383 1_455 S
C506 C507 1.402 . S
C506 H521 0.951 . S
C507 C506 1.402 . S
C507 C508 1.375 . S
C507 C510 1.481 . S
C508 C507 1.375 . S
C508 C509 1.367 . S
C508 H522 0.951 . S
C509 C505 1.383 . S
C509 C508 1.367 . S
C509 H523 0.950 . S
C510 C507 1.481 . S
C510 C511 1.297 . S
C510 H524 0.950 . S
C511 C510 1.297 . S
C511 C512 1.479 . S
C511 H525 0.950 . S
C512 C511 1.479 . S
C512 C513 1.375 . S
C512 C518 1.404 . S
C513 C512 1.375 . S
C513 C514 1.369 . S
C513 H526 0.950 . S
C514 C513 1.369 . S
C514 C515 1.392 . S
C514 H527 0.951 . S
C515 C514 1.392 . S
C515 C517 1.384 . S
H516 C518 0.949 . S
C517 C515 1.384 . S
C517 C518 1.385 . S
C517 H519 0.950 . S
C518 C512 1.404 . S
C518 H516 0.949 . S
C518 C517 1.385 . S
H519 C517 0.950 . S
H520 C504 0.951 . S
H521 C506 0.951 . S
H522 C508 0.951 . S
H523 C509 0.950 . S
H524 C510 0.950 . S
H525 C511 0.950 . S
H526 C513 0.950 . S
H527 C514 0.951 . S
C528 C529 1.386 . S
C528 C530 1.383 . S
C528 H544 0.951 . S
C529 C528 1.386 . S
C529 C533 1.383 . S
C530 C528 1.383 . S
C530 C531 1.402 . S
C530 H545 0.951 . S
C531 C530 1.402 . S
C531 C532 1.375 . S
C531 C534 1.481 . S
C532 C531 1.375 . S
C532 C533 1.367 . S
C532 H546 0.951 . S
C533 C529 1.383 . S
C533 C532 1.367 . S
C533 H547 0.950 . S
C534 C531 1.481 . S
C534 C535 1.297 . S
C534 H548 0.950 . S
C535 C534 1.297 . S
C535 C536 1.479 . S
C535 H549 0.950 . S
C536 C535 1.479 . S
C536 C537 1.375 . S
C536 C542 1.404 . S
C537 C536 1.375 . S
C537 C538 1.369 . S
C537 H550 0.950 . S
C538 C537 1.369 . S
C538 C539 1.392 . S
C538 H551 0.951 . S
C539 C538 1.392 . S
C539 C541 1.384 . S
H540 C542 0.949 . S
C541 C539 1.384 . S
C541 C542 1.385 . S
C541 H543 0.950 . S
C542 C536 1.404 . S
C542 H540 0.949 . S
C542 C541 1.385 . S
H543 C541 0.950 . S
H544 C528 0.951 . S
H545 C530 0.951 . S
H546 C532 0.951 . S
H547 C533 0.950 . S
H548 C534 0.950 . S
H549 C535 0.950 . S
H550 C537 0.950 . S
H551 C538 0.951 . S
C552 C553 1.386 . S
C552 C554 1.383 . S
C552 H568 0.951 . S
C553 C552 1.386 . S
C553 C557 1.383 . S
C554 C552 1.383 . S
C554 C555 1.402 . S
C554 H569 0.951 . S
C555 C554 1.402 . S
C555 C556 1.375 . S
C555 C558 1.481 . S
C556 C555 1.375 . S
C556 C557 1.367 . S
C556 H570 0.951 . S
C557 C553 1.383 . S
C557 C556 1.367 . S
C557 H571 0.950 . S
C558 C555 1.481 . S
C558 C559 1.297 . S
C558 H572 0.950 . S
C559 C558 1.297 . S
C559 C560 1.479 . S
C559 H573 0.950 . S
C560 C559 1.479 . S
C560 C561 1.375 . S
C560 C566 1.404 . S
C561 C560 1.375 . S
C561 C562 1.369 . S
C561 H574 0.950 . S
C562 C561 1.369 . S
C562 C563 1.392 . S
C562 H575 0.951 . S
C563 C562 1.392 . S
C563 C565 1.384 . S
H564 C566 0.949 . S
C565 C563 1.384 . S
C565 C566 1.385 . S
C565 H567 0.950 . S
C566 C560 1.404 . S
C566 H564 0.949 . S
C566 C565 1.385 . S
H567 C565 0.950 . S
H568 C552 0.951 . S
H569 C554 0.951 . S
H570 C556 0.951 . S
H571 C557 0.950 . S
H572 C558 0.950 . S
H573 C559 0.950 . S
H574 C561 0.950 . S
H575 C562 0.951 . S
C576 C577 1.386 . S
C576 C578 1.383 . S
C576 H592 0.951 . S
C577 C576 1.386 . S
C577 C581 1.383 . S
C578 C576 1.383 . S
C578 C579 1.402 . S
C578 H593 0.951 . S
C579 C578 1.402 . S
C579 C580 1.375 . S
C579 C582 1.481 . S
C580 C579 1.375 . S
C580 C581 1.367 . S
C580 H594 0.951 1_655 S
C581 C577 1.383 . S
C581 C580 1.367 . S
C581 H595 0.950 1_655 S
C582 C579 1.481 . S
C582 C583 1.297 . S
C582 H596 0.950 . S
C583 C582 1.297 . S
C583 C584 1.479 . S
C583 H597 0.950 . S
C584 C583 1.479 . S
C584 C585 1.375 . S
C584 C590 1.404 . S
C585 C584 1.375 . S
C585 C586 1.369 . S
C585 H598 0.950 . S
C586 C585 1.369 . S
C586 C587 1.392 . S
C586 H599 0.951 . S
C587 C586 1.392 . S
C587 C589 1.384 . S
H588 C590 0.949 . S
C589 C587 1.384 . S
C589 C590 1.385 . S
C589 H591 0.950 . S
C590 C584 1.404 . S
C590 H588 0.949 . S
C590 C589 1.385 . S
H591 C589 0.950 . S
H592 C576 0.951 . S
H593 C578 0.951 . S
H594 C580 0.951 1_455 S
H595 C581 0.950 1_455 S
H596 C582 0.950 . S
H597 C583 0.950 . S
H598 C585 0.950 . S
H599 C586 0.951 . S
C600 C601 1.386 . S
C600 C602 1.383 . S
C600 H616 0.951 . S
C601 C600 1.386 . S
C601 C605 1.383 . S
C602 C600 1.383 . S
C602 C603 1.402 . S
C602 H617 0.951 . S
C603 C602 1.402 . S
C603 C604 1.375 . S
C603 C606 1.481 . S
C604 C603 1.375 . S
C604 C605 1.367 . S
C604 H618 0.951 . S
C605 C601 1.383 . S
C605 C604 1.367 . S
C605 H619 0.950 . S
C606 C603 1.481 . S
C606 C607 1.297 . S
C606 H620 0.950 . S
C607 C606 1.297 . S
C607 C608 1.479 . S
C607 H621 0.950 . S
C608 C607 1.479 . S
C608 C609 1.375 . S
C608 C614 1.404 . S
C609 C608 1.375 . S
C609 C610 1.369 . S
C609 H622 0.950 . S
C610 C609 1.369 . S
C610 C611 1.392 . S
C610 H623 0.951 . S
C611 C610 1.392 . S
C611 C613 1.384 . S
H612 C614 0.949 . S
C613 C611 1.384 . S
C613 C614 1.385 . S
C613 H615 0.950 . S
C614 C608 1.404 . S
C614 H612 0.949 . S
C614 C613 1.385 . S
H615 C613 0.950 . S
H616 C600 0.951 . S
H617 C602 0.951 . S
H618 C604 0.951 . S
H619 C605 0.950 . S
H620 C606 0.950 . S
H621 C607 0.950 . S
H622 C609 0.950 . S
H623 C610 0.951 . S
C624 C625 1.386 . S
C624 C626 1.383 . S
C624 H640 0.951 . S
C625 C624 1.386 . S
C625 C629 1.383 . S
C626 C624 1.383 . S
C626 C627 1.402 . S
C626 H641 0.951 . S
C627 C626 1.402 . S
C627 C628 1.375 . S
C627 C630 1.481 . S
C628 C627 1.375 . S
C628 C629 1.367 . S
C628 H642 0.951 . S
C629 C625 1.383 . S
C629 C628 1.367 . S
C629 H643 0.950 . S
C630 C627 1.481 . S
C630 C631 1.297 . S
C630 H644 0.950 . S
C631 C630 1.297 . S
C631 C632 1.479 . S
C631 H645 0.950 . S
C632 C631 1.479 . S
C632 C633 1.375 . S
C632 C638 1.404 . S
C633 C632 1.375 . S
C633 C634 1.369 . S
C633 H646 0.950 . S
C634 C633 1.369 . S
C634 C635 1.392 . S
C634 H647 0.951 . S
C635 C634 1.392 . S
C635 C637 1.384 . S
H636 C638 0.949 . S
C637 C635 1.384 . S
C637 C638 1.385 . S
C637 H639 0.950 . S
C638 C632 1.404 . S
C638 H636 0.949 . S
C638 C637 1.385 . S
H639 C637 0.950 . S
H640 C624 0.951 . S
H641 C626 0.951 . S
H642 C628 0.951 . S
H643 C629 0.950 . S
H644 C630 0.950 . S
H645 C631 0.950 . S
H646 C633 0.950 . S
H647 C634 0.951 . S
C648 C649 1.386 . S
C648 C650 1.383 . S
C648 H664 0.951 . S
C649 C648 1.386 . S
C649 C653 1.383 1_545 S
C650 C648 1.383 . S
C650 C651 1.402 . S
C650 H665 0.951 . S
C651 C650 1.402 . S
C651 C652 1.375 1_545 S
C651 C654 1.481 . S
C652 C651 1.375 1_565 S
C652 C653 1.367 . S
C652 H666 0.951 . S
C653 C649 1.383 1_565 S
C653 C652 1.367 . S
C653 H667 0.950 . S
C654 C651 1.481 . S
C654 C655 1.297 . S
C654 H668 0.950 . S
C655 C654 1.297 . S
C655 C656 1.479 . S
C655 H669 0.950 . S
C656 C655 1.479 . S
C656 C657 1.375 . S
C656 C662 1.404 . S
C657 C656 1.375 . S
C657 C658 1.369 . S
C657 H670 0.950 . S
C658 C657 1.369 . S
C658 C659 1.392 . S
C658 H671 0.951 . S
C659 C658 1.392 . S
C659 C661 1.384 . S
H660 C662 0.949 . S
C661 C659 1.384 . S
C661 C662 1.385 . S
C661 H663 0.950 . S
C662 C656 1.404 . S
C662 H660 0.949 . S
C662 C661 1.385 . S
H663 C661 0.950 . S
H664 C648 0.951 . S
H665 C650 0.951 . S
H666 C652 0.951 . S
H667 C653 0.950 . S
H668 C654 0.950 . S
H669 C655 0.950 . S
H670 C657 0.950 . S
H671 C658 0.951 . S
C241 C129 0.727 . S
C251 C9 0.951 . S
C265 C169 0.750 . S
C275 C49 0.815 . S
C289 C209 0.724 . S
C299 C89 0.951 1_655 S
C313 C15 0.754 . S
C323 C86 0.720 . S
C337 C55 0.645 . S
C347 C126 0.768 . S
C361 C95 0.629 . S
C371 C166 0.756 . S
C385 C135 0.647 . S
C395 C206 0.769 . S
C409 C175 0.755 . S
C419 C6 0.703 . S
C433 C215 0.718 . S
C443 C46 0.562 . S
C457 C18 1.357 . S
C467 C138 1.365 1_545 S
C481 C58 1.364 . S
C491 C178 1.360 . S
C505 C98 1.350 1_455 S
C515 C218 1.379 . S
C529 C10 3.959 . S
C539 C59 3.993 . S
C553 C50 3.961 . S
C563 C99 4.000 . S
C577 C90 3.944 . S
C587 C139 3.994 . S
C601 C130 3.949 . S
C611 C179 3.998 . S
C625 C170 3.943 1_455 S
C635 C219 3.989 . S
C649 C210 3.948 1_545 S
C659 C19 3.997 . S
