# Generated by pormake.
# Topology why, (6)-cn, num edge types: 1
# Building blocks:
#     Node 0, Type 0, BuildingBlock: PAMTOO_clean_sbu_0, # of connection points: 6
#     Node 1, Type 0, BuildingBlock: PAMTOO_clean_sbu_0, # of connection points: 6
#     Node 2, Type 0, BuildingBlock: PAMTOO_clean_sbu_0, # of connection points: 6
#     Node 3, Type 0, BuildingBlock: PAMTOO_clean_sbu_0, # of connection points: 6
#     Node 4, Type 0, BuildingBlock: PAMTOO_clean_sbu_0, # of connection points: 6
#     Node 5, Type 0, BuildingBlock: PAMTOO_clean_sbu_0, # of connection points: 6
#     Node 6, Type 0, BuildingBlock: PAMTOO_clean_sbu_0, # of connection points: 6
#     Node 7, Type 0, BuildingBlock: PAMTOO_clean_sbu_0, # of connection points: 6
#     Node 8, Type 0, BuildingBlock: PAMTOO_clean_sbu_0, # of connection points: 6
#     Node 9, Type 0, BuildingBlock: PAMTOO_clean_sbu_0, # of connection points: 6
#     Node 10, Type 0, BuildingBlock: PAMTOO_clean_sbu_0, # of connection points: 6
#     Node 11, Type 0, BuildingBlock: PAMTOO_clean_sbu_0, # of connection points: 6
#     Node 12, Type 0, BuildingBlock: PAMTOO_clean_sbu_0, # of connection points: 6
#     Node 13, Type 0, BuildingBlock: PAMTOO_clean_sbu_0, # of connection points: 6
#     Node 14, Type 0, BuildingBlock: PAMTOO_clean_sbu_0, # of connection points: 6
#     Node 15, Type 0, BuildingBlock: PAMTOO_clean_sbu_0, # of connection points: 6
#     Edge 16, Type (0, 0), BuildingBlock: AJUNOK_clean_linker_0, # of connection points: 2
#     Edge 17, Type (0, 0), BuildingBlock: AJUNOK_clean_linker_0, # of connection points: 2
#     Edge 18, Type (0, 0), BuildingBlock: AJUNOK_clean_linker_0, # of connection points: 2
#     Edge 19, Type (0, 0), BuildingBlock: AJUNOK_clean_linker_0, # of connection points: 2
#     Edge 20, Type (0, 0), BuildingBlock: AJUNOK_clean_linker_0, # of connection points: 2
#     Edge 21, Type (0, 0), BuildingBlock: AJUNOK_clean_linker_0, # of connection points: 2
#     Edge 22, Type (0, 0), BuildingBlock: AJUNOK_clean_linker_0, # of connection points: 2
#     Edge 23, Type (0, 0), BuildingBlock: AJUNOK_clean_linker_0, # of connection points: 2
#     Edge 24, Type (0, 0), BuildingBlock: AJUNOK_clean_linker_0, # of connection points: 2
#     Edge 25, Type (0, 0), BuildingBlock: AJUNOK_clean_linker_0, # of connection points: 2
#     Edge 26, Type (0, 0), BuildingBlock: AJUNOK_clean_linker_0, # of connection points: 2
#     Edge 27, Type (0, 0), BuildingBlock: AJUNOK_clean_linker_0, # of connection points: 2
#     Edge 28, Type (0, 0), BuildingBlock: AJUNOK_clean_linker_0, # of connection points: 2
#     Edge 29, Type (0, 0), BuildingBlock: AJUNOK_clean_linker_0, # of connection points: 2
#     Edge 30, Type (0, 0), BuildingBlock: AJUNOK_clean_linker_0, # of connection points: 2
#     Edge 31, Type (0, 0), BuildingBlock: AJUNOK_clean_linker_0, # of connection points: 2
#     Edge 32, Type (0, 0), BuildingBlock: AJUNOK_clean_linker_0, # of connection points: 2
#     Edge 33, Type (0, 0), BuildingBlock: AJUNOK_clean_linker_0, # of connection points: 2
#     Edge 34, Type (0, 0), BuildingBlock: AJUNOK_clean_linker_0, # of connection points: 2
#     Edge 35, Type (0, 0), BuildingBlock: AJUNOK_clean_linker_0, # of connection points: 2
#     Edge 36, Type (0, 0), BuildingBlock: AJUNOK_clean_linker_0, # of connection points: 2
#     Edge 37, Type (0, 0), BuildingBlock: AJUNOK_clean_linker_0, # of connection points: 2
#     Edge 38, Type (0, 0), BuildingBlock: AJUNOK_clean_linker_0, # of connection points: 2
#     Edge 39, Type (0, 0), BuildingBlock: AJUNOK_clean_linker_0, # of connection points: 2
#     Edge 40, Type (0, 0), BuildingBlock: AJUNOK_clean_linker_0, # of connection points: 2
#     Edge 41, Type (0, 0), BuildingBlock: AJUNOK_clean_linker_0, # of connection points: 2
#     Edge 42, Type (0, 0), BuildingBlock: AJUNOK_clean_linker_0, # of connection points: 2
#     Edge 43, Type (0, 0), BuildingBlock: AJUNOK_clean_linker_0, # of connection points: 2
#     Edge 44, Type (0, 0), BuildingBlock: AJUNOK_clean_linker_0, # of connection points: 2
#     Edge 45, Type (0, 0), BuildingBlock: AJUNOK_clean_linker_0, # of connection points: 2
#     Edge 46, Type (0, 0), BuildingBlock: AJUNOK_clean_linker_0, # of connection points: 2
#     Edge 47, Type (0, 0), BuildingBlock: AJUNOK_clean_linker_0, # of connection points: 2
#     Edge 48, Type (0, 0), BuildingBlock: AJUNOK_clean_linker_0, # of connection points: 2
#     Edge 49, Type (0, 0), BuildingBlock: AJUNOK_clean_linker_0, # of connection points: 2
#     Edge 50, Type (0, 0), BuildingBlock: AJUNOK_clean_linker_0, # of connection points: 2
#     Edge 51, Type (0, 0), BuildingBlock: AJUNOK_clean_linker_0, # of connection points: 2
#     Edge 52, Type (0, 0), BuildingBlock: AJUNOK_clean_linker_0, # of connection points: 2
#     Edge 53, Type (0, 0), BuildingBlock: AJUNOK_clean_linker_0, # of connection points: 2
#     Edge 54, Type (0, 0), BuildingBlock: AJUNOK_clean_linker_0, # of connection points: 2
#     Edge 55, Type (0, 0), BuildingBlock: AJUNOK_clean_linker_0, # of connection points: 2
#     Edge 56, Type (0, 0), BuildingBlock: AJUNOK_clean_linker_0, # of connection points: 2
#     Edge 57, Type (0, 0), BuildingBlock: AJUNOK_clean_linker_0, # of connection points: 2
#     Edge 58, Type (0, 0), BuildingBlock: AJUNOK_clean_linker_0, # of connection points: 2
#     Edge 59, Type (0, 0), BuildingBlock: AJUNOK_clean_linker_0, # of connection points: 2
#     Edge 60, Type (0, 0), BuildingBlock: AJUNOK_clean_linker_0, # of connection points: 2
#     Edge 61, Type (0, 0), BuildingBlock: AJUNOK_clean_linker_0, # of connection points: 2
#     Edge 62, Type (0, 0), BuildingBlock: AJUNOK_clean_linker_0, # of connection points: 2
#     Edge 63, Type (0, 0), BuildingBlock: AJUNOK_clean_linker_0, # of connection points: 2
# Relax obj value: 0.483
# Max RMSD: 0.237
# Mean RMSD: 0.237
data_MOF--net-why--node1-PAMTOO_clean_sbu_0--edge1-AJUNOK_clean_linker_0
_symmetry_space_group_name_H-M    P1
_symmetry_Int_Tables_number       1
_symmetry_cell_setting            triclinic
loop_
_symmetry_equiv_pos_as_xyz
'x, y, z'
_cell_length_a     34.823816
_cell_length_b     35.391785
_cell_length_c     32.390228
_cell_angle_alpha  90.010452
_cell_angle_beta   89.664746
_cell_angle_gamma 89.652319
loop_
_atom_site_label
_atom_site_type_symbol
_atom_site_fract_x
_atom_site_fract_y
_atom_site_fract_z
_atom_type_partial_charge
Dy0 Dy 0.49476 0.30212 0.13678 0.0
Dy1 Dy 0.54563 0.2545 0.07913 0.0
C2 C 0.52127 0.21597 0.16845 0.0
O3 O 0.54757 0.34172 0.13332 0.0
O4 O 0.58889 0.30107 0.10098 0.0
O5 O 0.48823 0.34147 0.18734 0.0
O6 O 0.43882 0.31125 0.16422 0.0
O7 O 0.53525 0.30534 0.04015 0.0
O8 O 0.49351 0.33936 0.08132 0.0
O9 O 0.48918 0.25521 0.04092 0.0
O10 O 0.44976 0.28478 0.08747 0.0
O11 O 0.55253 0.2086 0.03602 0.0
O12 O 0.6025 0.2377 0.059 0.0
C13 C 0.58241 0.33505 0.11789 0.0
O14 O 0.51019 0.2506 0.17805 0.0
O15 O 0.53306 0.21044 0.13016 0.0
C16 C 0.44616 0.31374 0.23568 0.0
C17 C 0.4303 0.2745 0.30976 0.0
C18 C 0.46686 0.27237 0.29148 0.0
C19 C 0.47486 0.29222 0.25522 0.0
C20 C 0.40945 0.31536 0.25308 0.0
C21 C 0.40167 0.29635 0.28986 0.0
C22 C 0.45318 0.3304 0.19479 0.0
C23 C 0.51277 0.33469 0.04668 0.0
C24 C 0.45455 0.26904 0.05035 0.0
C25 C 0.60262 0.21963 0.98964 0.0
C26 C 0.63024 0.23401 0.90988 0.0
C27 C 0.59852 0.25424 0.92529 0.0
C28 C 0.58485 0.24715 0.96497 0.0
C29 C 0.63368 0.19869 0.97406 0.0
C30 C 0.6474 0.20578 0.93424 0.0
C31 C 0.58933 0.21386 0.03197 0.0
H32 H 0.48954 0.25589 0.30542 0.0
H33 H 0.50358 0.29055 0.24243 0.0
H34 H 0.3868 0.33142 0.23827 0.0
H35 H 0.37334 0.30001 0.30324 0.0
H36 H 0.58457 0.27575 0.90679 0.0
H37 H 0.56066 0.26341 0.97656 0.0
H38 H 0.64763 0.17739 0.99286 0.0
H39 H 0.67204 0.18999 0.92288 0.0
Dy40 Dy 0.73864 0.74827 0.38484 0.0
Dy41 Dy 0.79083 0.79617 0.32719 0.0
C42 C 0.82497 0.77115 0.42017 0.0
O43 O 0.70569 0.80554 0.38777 0.0
O44 O 0.74064 0.83912 0.34073 0.0
O45 O 0.72646 0.69479 0.41411 0.0
O46 O 0.68991 0.74353 0.4258 0.0
O47 O 0.7404 0.79036 0.28708 0.0
O48 O 0.70597 0.74809 0.32564 0.0
O49 O 0.79036 0.7392 0.29082 0.0
O50 O 0.75687 0.70276 0.33652 0.0
O51 O 0.83724 0.79905 0.28307 0.0
O52 O 0.81341 0.85055 0.3091 0.0
C53 C 0.70964 0.83663 0.36511 0.0
O54 O 0.79071 0.75667 0.42807 0.0
O55 O 0.83061 0.78649 0.38335 0.0
C56 C 0.66011 0.68558 0.41199 0.0
C57 C 0.5973 0.64392 0.38252 0.0
C58 C 0.62184 0.62908 0.41329 0.0
C59 C 0.65286 0.6497 0.42775 0.0
C60 C 0.63709 0.69992 0.37992 0.0
C61 C 0.60592 0.67924 0.3653 0.0
C62 C 0.69312 0.70684 0.42722 0.0
C63 C 0.71114 0.76784 0.29186 0.0
C64 C 0.77479 0.70595 0.30026 0.0
C65 C 0.82996 0.85094 0.23883 0.0
C66 C 0.81495 0.88334 0.16142 0.0
C67 C 0.79649 0.8499 0.17326 0.0
C68 C 0.80386 0.83387 0.21176 0.0
C69 C 0.84912 0.88381 0.2267 0.0
C70 C 0.84159 0.89999 0.18824 0.0
C71 C 0.83535 0.83577 0.28051 0.0
H72 H 0.61597 0.60237 0.42825 0.0
H73 H 0.67068 0.63793 0.45193 0.0
H74 H 0.64267 0.72745 0.36671 0.0
H75 H 0.58768 0.69151 0.34182 0.0
H76 H 0.77534 0.83699 0.15342 0.0
H77 H 0.78851 0.80861 0.22077 0.0
H78 H 0.86919 0.89739 0.24731 0.0
H79 H 0.85605 0.92588 0.17967 0.0
Dy80 Dy 0.295 0.98879 0.63516 0.0
Dy81 Dy 0.24282 1.03964 0.58157 0.0
C82 C 0.27128 1.07397 0.6727 0.0
O83 O 0.2408 0.95123 0.63064 0.0
O84 O 0.19883 0.99296 0.6019 0.0
O85 O 0.34981 0.96574 0.65341 0.0
O86 O 0.29803 0.95083 0.68714 0.0
O87 O 0.24809 0.99002 0.54 0.0
O88 O 0.29315 0.95627 0.57613 0.0
O89 O 0.29958 1.03792 0.54233 0.0
O90 O 0.3405 1.01121 0.58892 0.0
O91 O 0.2373 1.08555 0.53817 0.0
O92 O 0.18659 1.06134 0.56617 0.0
C93 C 0.20561 0.95845 0.6171 0.0
O94 O 0.28624 1.03998 0.67945 0.0
O95 O 0.25525 1.08002 0.6363 0.0
C96 C 0.34084 0.90193 0.67134 0.0
C97 C 0.35242 0.82417 0.65743 0.0
C98 C 0.35012 0.84915 0.62392 0.0
C99 C 0.34424 0.88778 0.63082 0.0
C100 C 0.34154 0.87699 0.70461 0.0
C101 C 0.3473 0.83858 0.69782 0.0
C102 C 0.33372 0.94217 0.67908 0.0
C103 C 0.27152 0.96115 0.54355 0.0
C104 C 0.33493 1.02589 0.55159 0.0
C105 C 0.18292 1.07811 0.49553 0.0
C106 C 0.15361 1.06075 0.41701 0.0
C107 C 1.13141 1.05438 0.45263 0.0
C108 C 1.14589 1.06306 0.49153 0.0
C109 C 0.20432 1.08623 0.45964 0.0
C110 C 0.18975 1.07762 0.42072 0.0
C111 C 0.2 1.08294 0.53686 0.0
H112 H 0.35436 0.83904 0.59265 0.0
H113 H 0.34313 0.90662 0.60454 0.0
H114 H 0.33833 0.8873 0.73596 0.0
H115 H 0.34988 0.82053 0.72466 0.0
H116 H 1.10298 1.04232 0.4504 0.0
H117 H 1.12843 1.05707 0.51851 0.0
H118 H 0.23276 1.09828 0.46161 0.0
H119 H 0.20719 1.0831 0.39359 0.0
Dy120 Dy 1.05082 0.54561 0.88081 0.0
Dy121 Dy 0.99862 0.49534 0.82769 0.0
C122 C 0.96493 0.52324 0.91872 0.0
O123 O 1.08858 0.49155 0.87968 0.0
O124 O 1.04713 0.45215 0.84698 0.0
O125 O 1.0584 0.59979 0.91013 0.0
O126 O 1.09989 0.55466 0.91976 0.0
O127 O 1.0484 0.5021 0.7851 0.0
O128 O 1.08276 0.54612 0.82065 0.0
O129 O 0.9978 0.55078 0.78838 0.0
O130 O 1.0302 0.5895 0.83229 0.0
O131 O 0.95444 0.48682 0.78218 0.0
O132 O 0.9752 0.43959 0.81796 0.0
C133 C 1.0815 0.45755 0.86426 0.0
O134 O 1.00116 0.53177 0.9268 0.0
O135 O 0.95711 0.51292 0.88049 0.0
C136 C 1.12328 0.61565 0.90676 0.0
C137 C 0.18137 0.66387 0.87747 0.0
C138 C 0.15738 0.67454 0.91098 0.0
C139 C 1.12866 0.6507 0.92532 0.0
C140 C 1.1456 0.60547 0.87209 0.0
C141 C 0.1744 0.62944 0.85747 0.0
C142 C 1.09291 0.59085 0.92219 0.0
C143 C 1.07715 0.52562 0.78751 0.0
C144 C 1.01249 0.58477 0.7964 0.0
C145 C 0.96419 0.42995 0.74757 0.0
C146 C 0.98241 0.39807 0.67017 0.0
C147 C 1.01013 0.41766 0.69292 0.0
C148 C 1.0014 0.4323 0.73156 0.0
C149 C 0.93592 0.41084 0.72531 0.0
C150 C 0.94511 0.39454 0.68698 0.0
C151 C 0.95536 0.45019 0.78592 0.0
H152 H 0.1621 0.70039 0.92804 0.0
H153 H 1.11128 0.65926 0.95161 0.0
H154 H 1.14145 0.57857 0.85695 0.0
H155 H 0.19228 0.62032 0.83183 0.0
H156 H 1.03863 0.42253 0.68081 0.0
H157 H 1.02369 0.4463 0.74862 0.0
H158 H 0.90692 0.40876 0.73733 0.0
H159 H 0.92305 0.37936 0.67053 0.0
Dy160 Dy 0.74612 1.04381 0.97381 0.0
Dy161 Dy 0.79759 0.9918 0.92023 0.0
C162 C 0.77531 0.96576 1.01307 0.0
O163 O 0.80255 1.0426 1.01293 0.0
O164 O 0.8427 1.01304 0.96711 0.0
O165 O 0.73921 1.09179 1.01439 0.0
O166 O 0.68923 1.0633 0.99069 0.0
O167 O 0.78707 1.04182 0.87468 0.0
O168 O 0.75992 1.08367 0.91905 0.0
O169 O 0.74325 0.95461 0.92423 0.0
O170 O 0.70224 0.99689 0.95417 0.0
O171 O 0.8536 0.97316 0.89964 0.0
O172 O 0.80222 0.94992 0.87199 0.0
C173 C 0.8375 1.02906 1.0039 0.0
O174 O 0.7546 0.99648 1.01762 0.0
O175 O 0.79396 0.95828 0.9787 0.0
C176 C 0.68718 1.08308 0.05942 0.0
C177 C 0.65533 1.06877 0.13753 0.0
C178 C 0.68808 1.04893 0.12428 0.0
C179 C 0.70398 1.0562 0.08561 0.0
C180 C 0.65477 1.10344 0.07274 0.0
C181 C 0.63897 1.09643 0.11179 0.0
C182 C 0.70215 1.08758 1.01739 0.0
C183 C 0.77401 1.07656 0.88182 0.0
C184 C 0.70832 0.96238 0.93848 0.0
C185 C 0.85006 0.90698 0.89167 0.0
C186 C 0.87027 0.83293 0.91553 0.0
C187 C 0.85119 0.83994 0.87791 0.0
C188 C 0.8416 0.87653 0.866 0.0
C189 C 0.86596 0.90003 0.93088 0.0
C190 C 0.87613 0.86331 0.94262 0.0
C191 C 0.83881 0.94529 0.87883 0.0
H192 H 0.70118 1.02761 0.14376 0.0
H193 H 0.72908 1.04039 0.07585 0.0
H194 H 0.64132 1.12409 0.05271 0.0
H195 H 0.61342 1.11175 0.12142 0.0
H196 H 0.84587 0.81752 0.85607 0.0
H197 H 0.82817 0.88109 0.83629 0.0
H198 H 0.8713 0.923 0.95216 0.0
H199 H 0.89025 0.85892 0.97194 0.0
Dy200 Dy 0.50355 0.49901 0.72606 0.0
Dy201 Dy 0.55155 0.54757 0.66841 0.0
C202 C 0.5846 0.53163 0.75835 0.0
O203 O 0.50565 0.55399 0.76493 0.0
O204 O 0.53121 0.59307 0.7162 0.0
O205 O 0.45794 0.49297 0.77077 0.0
O206 O 0.48518 0.44327 0.74482 0.0
O207 O 0.50223 0.52659 0.62656 0.0
O208 O 0.45889 0.51596 0.6762 0.0
O209 O 0.59242 0.49575 0.67287 0.0
O210 O 0.55006 0.45525 0.70284 0.0
O211 O 0.59434 0.55564 0.62077 0.0
O212 O 0.5555 0.60138 0.63748 0.0
C213 C 0.51723 0.5884 0.75428 0.0
O214 O 0.55577 0.50843 0.76436 0.0
O215 O 0.58851 0.55114 0.72412 0.0
C216 C 0.46822 0.44188 0.81494 0.0
C217 C 0.48085 0.41364 0.89472 0.0
C218 C 0.50485 0.4417 0.87839 0.0
C219 C 0.49852 0.45578 0.83882 0.0
C220 C 0.44409 0.414 0.83109 0.0
C221 C 0.45038 0.39989 0.87079 0.0
C222 C 0.46209 0.45648 0.77323 0.0
C223 C 0.46586 0.52179 0.63666 0.0
C224 C 0.58511 0.46129 0.68707 0.0
C225 C 0.5647 0.59005 0.56731 0.0
C226 C 0.53007 0.59573 0.489 0.0
C227 C 0.53231 0.56078 0.50924 0.0
C228 C 0.54937 0.55794 0.54802 0.0
C229 C 0.56213 0.62507 0.54766 0.0
C230 C 0.54527 0.6279 0.50885 0.0
C231 C 0.57912 0.58787 0.60974 0.0
H232 H 0.52852 0.45267 0.89624 0.0
H233 H 0.51735 0.47744 0.82682 0.0
H234 H 0.42067 0.40294 0.81291 0.0
H235 H 0.432 0.37767 0.88242 0.0
H236 H 0.52206 0.53544 0.49447 0.0
H237 H 0.55069 0.53052 0.56279 0.0
H238 H 0.57334 0.65022 0.56226 0.0
H239 H 0.54588 0.65517 0.49377 0.0
Dy240 Dy 1.04923 0.2503 0.47567 0.0
Dy241 Dy 1.00001 0.3012 0.41983 0.0
C242 C 1.0177 0.32926 0.51166 0.0
O243 O 0.99126 0.25196 0.51253 0.0
O244 O 0.95294 0.28399 0.46707 0.0
O245 O 1.0525 0.20426 0.51898 0.0
O246 O 1.10468 0.22994 0.49614 0.0
O247 O 1.01198 0.24934 0.37695 0.0
O248 O 1.0381 0.20859 0.42231 0.0
O249 O 1.05512 0.33715 0.42221 0.0
O250 O 1.09435 0.29662 0.45685 0.0
O251 O 0.99477 0.35146 0.3828 0.0
O252 O 0.95075 0.30851 0.38025 0.0
C253 C 0.95694 0.26667 0.50336 0.0
O254 O 1.04243 0.30137 0.51437 0.0
O255 O 0.99519 0.33322 0.47943 0.0
C256 C 1.10282 0.21173 0.56572 0.0
C257 C 1.13041 0.22381 0.6458 0.0
C258 C 1.09725 0.24263 0.63234 0.0
C259 C 1.08361 0.23677 0.59251 0.0
C260 C 1.13545 0.19218 0.57937 0.0
C261 C 1.14923 0.1982 0.61926 0.0
C262 C 1.08953 0.20714 0.52322 0.0
C263 C 1.02424 0.21464 0.38507 0.0
C264 C 1.08905 0.33037 0.43902 0.0
C265 C 0.97412 0.33262 0.31788 0.0
C266 C 0.98765 0.31888 0.23386 0.0
C267 C 0.95469 0.33888 0.24704 0.0
C268 C 0.94782 0.3455 0.28879 0.0
C269 C 1.00766 0.31341 0.30478 0.0
C270 C 1.01434 0.30638 0.26287 0.0
C271 C 0.9663 0.33755 0.36197 0.0
H272 H 1.08218 0.26214 0.65256 0.0
H273 H 1.05833 0.25213 0.58247 0.0
H274 H 0.15061 0.17285 0.55897 0.0
H275 H 0.17515 0.18373 0.62898 0.0
H276 H 0.93415 0.34935 0.22487 0.0
H277 H 0.92197 0.3604 0.29831 0.0
H278 H 1.02864 0.30375 0.32699 0.0
H279 H 1.04002 0.29131 0.2532 0.0
Dy280 Dy 0.2915 0.7932 0.22547 0.0
Dy281 Dy 0.24291 0.74579 0.16775 0.0
C282 C 0.20921 0.76307 0.25712 0.0
O283 O 0.2888 0.73789 0.264 0.0
O284 O 0.26261 0.69974 0.2151 0.0
O285 O 0.33492 0.79841 0.27218 0.0
O286 O 0.31219 0.84852 0.24269 0.0
O287 O 0.29214 0.76726 0.12543 0.0
O288 O 0.33578 0.77631 0.17467 0.0
O289 O 0.20319 0.79868 0.17149 0.0
O290 O 0.24521 0.83766 0.20386 0.0
O291 O 0.19766 0.73673 0.12367 0.0
O292 O 0.24125 0.6936 0.13342 0.0
C293 C 0.27691 0.70371 0.253 0.0
O294 O 0.23791 0.78639 0.26238 0.0
O295 O 0.2063 0.74182 0.2241 0.0
C296 C 0.32363 0.85122 0.31388 0.0
C297 C 0.3053 0.88264 0.39118 0.0
C298 C 0.28435 0.85195 0.37601 0.0
C299 C 0.29337 0.83643 0.33761 0.0
C300 C 0.34493 0.88157 0.32904 0.0
C301 C 0.33588 0.89716 0.36758 0.0
C302 C 0.33235 0.83512 0.27321 0.0
C303 C 0.32863 0.77136 0.13509 0.0
C304 C 0.21058 0.83264 0.18699 0.0
C305 C 0.22581 0.70793 0.06532 0.0
C306 C 0.25332 0.70967 0.98327 0.0
C307 C 0.25061 0.74306 1.00648 0.0
C308 C 0.23731 0.74219 0.0472 0.0
C309 C 0.22881 0.6745 0.04266 0.0
C310 C 0.24222 0.67532 1.00204 0.0
C311 C 0.2146 0.70654 0.10901 0.0
H312 H 0.26113 0.83983 0.39395 0.0
H313 H 0.27674 0.81283 0.32647 0.0
H314 H 0.36831 0.89331 0.31103 0.0
H315 H 0.35234 0.92094 0.37867 0.0
H316 H 0.25757 0.77001 0.99275 0.0
H317 H 0.2358 0.76841 0.06441 0.0
H318 H 0.22053 0.64778 0.05628 0.0
H319 H 0.24202 0.64907 0.9849 0.0
Dy320 Dy 0.99439 0.79899 0.63527 0.0
Dy321 Dy 1.04508 0.75156 0.57855 0.0
C322 C 1.01968 0.71353 0.66728 0.0
O323 O 1.04681 0.83907 0.63115 0.0
O324 O 1.08873 0.79718 0.60194 0.0
O325 O 0.98683 0.83895 0.68509 0.0
O326 O 0.93852 0.80609 0.66352 0.0
O327 O 1.03573 0.80271 0.53987 0.0
O328 O 0.99237 0.8362 0.57949 0.0
O329 O 0.98979 0.75449 0.53904 0.0
O330 O 0.949 0.77915 0.58745 0.0
O331 O 1.05192 0.70569 0.53536 0.0
O332 O 1.10199 0.73426 0.55883 0.0
C333 C 1.08209 0.83174 0.61733 0.0
O334 O 1.01269 0.749 0.67745 0.0
O335 O 1.02852 0.70737 0.62822 0.0
C336 C 0.94775 0.80883 0.73472 0.0
C337 C 0.93705 0.77126 0.81072 0.0
C338 C 0.97371 0.77317 0.79266 0.0
C339 C 0.97906 0.79205 0.75522 0.0
C340 C 0.91089 0.80503 0.75133 0.0
C341 C 0.90556 0.78643 0.78882 0.0
C342 C 0.95272 0.82589 0.69367 0.0
C343 C 1.01294 0.83197 0.54561 0.0
C344 C 0.95453 0.76578 0.54942 0.0
C345 C 1.10212 0.71689 0.48911 0.0
C346 C 1.12943 0.7314 0.40914 0.0
C347 C 1.09786 0.75169 0.42482 0.0
C348 C 1.08435 0.74454 0.46458 0.0
C349 C 1.13305 0.69592 0.47326 0.0
C350 C 1.14661 0.70307 0.43336 0.0
C351 C 1.08875 0.7108 0.53143 0.0
H352 H 0.99845 0.76125 0.80812 0.0
H353 H 1.00782 0.79367 0.74249 0.0
H354 H 0.88623 0.81673 0.73544 0.0
H355 H 0.87678 0.78567 0.80147 0.0
H356 H 1.08386 0.77327 0.40645 0.0
H357 H 1.0602 0.76081 0.47628 0.0
H358 H 1.147 0.67449 0.49189 0.0
H359 H 0.17113 0.68722 0.42182 0.0
Dy360 Dy 0.24105 0.24601 0.88715 0.0
Dy361 Dy 0.28947 0.29248 0.82878 0.0
C362 C 0.32634 0.27206 0.91878 0.0
O363 O 0.20011 0.2978 0.88163 0.0
O364 O 0.24295 0.33696 0.85037 0.0
O365 O 0.19926 0.23867 0.93602 0.0
O366 O 0.23665 0.19222 0.91803 0.0
O367 O 0.2374 0.28313 0.79019 0.0
O368 O 0.20366 0.24234 0.83191 0.0
O369 O 0.28708 0.23743 0.79009 0.0
O370 O 0.26141 0.19966 0.83991 0.0
O371 O 0.33481 0.29794 0.78374 0.0
O372 O 0.30969 0.34796 0.81155 0.0
C373 C 0.20785 0.33184 0.8665 0.0
O374 O 0.28976 0.26895 0.92861 0.0
O375 O 0.33366 0.2752 0.87898 0.0
C376 C 0.22827 0.20244 0.98849 0.0
C377 C 0.26334 0.19355 0.06623 0.0
C378 C 0.26554 0.22809 0.04521 0.0
C379 C 0.24774 0.23266 1.00701 0.0
C380 C 0.22678 0.16765 1.00868 0.0
C381 C 0.24376 0.16331 0.04728 0.0
C382 C 0.21361 0.20584 0.94625 0.0
C383 C 0.20803 0.26077 0.79706 0.0
C384 C 0.27536 0.20334 0.80159 0.0
C385 C 0.32623 0.35075 0.7415 0.0
C386 C 0.31233 0.38384 0.6644 0.0
C387 C 0.29176 0.35177 0.67668 0.0
C388 C 0.29859 0.33537 0.71506 0.0
C389 C 0.34722 0.38241 0.72912 0.0
C390 C 0.34023 0.39897 0.69077 0.0
C391 C 0.33202 0.33462 0.78252 0.0
H392 H 0.28022 0.2518 0.05868 0.0
H393 H 0.24913 0.25993 0.99207 0.0
H394 H 0.21231 0.14388 0.9947 0.0
H395 H 0.24021 1.13646 0.06282 0.0
H396 H 0.26961 0.34012 0.65715 0.0
H397 H 0.2819 0.31105 0.72438 0.0
H398 H 0.36851 0.39462 0.74932 0.0
H399 H 0.35631 0.42381 0.68182 0.0
Dy400 Dy 0.79476 0.49212 0.13396 0.0
Dy401 Dy 0.74304 0.54283 0.0798 0.0
C402 C 0.76967 0.57633 0.17175 0.0
O403 O 0.7401 0.45528 0.13215 0.0
O404 O 0.69893 0.49637 0.10084 0.0
O405 O 0.84918 0.48221 0.16355 0.0
O406 O 0.80249 0.44249 0.17191 0.0
O407 O 0.74798 0.49216 0.03977 0.0
O408 O 0.79628 0.46137 0.07377 0.0
O409 O 0.79949 0.54148 0.04016 0.0
O410 O 0.83966 0.51334 0.08634 0.0
O411 O 0.7378 0.58958 0.03752 0.0
O412 O 0.68674 0.56301 0.06188 0.0
C413 C 0.7053 0.46227 0.1174 0.0
O414 O 0.78143 0.54133 0.1797 0.0
O415 O 0.7568 0.58328 0.1341 0.0
C416 C 0.86311 0.41729 0.15581 0.0
C417 C 0.91169 0.35956 0.12566 0.0
C418 C 0.90994 0.3946 0.10536 0.0
C419 C 0.88581 0.42324 0.12029 0.0
C420 C 0.86152 0.38123 0.17311 0.0
C421 C 0.88513 0.35249 0.15789 0.0
C422 C 0.83944 0.44783 0.17353 0.0
C423 C 0.77313 0.46467 0.0422 0.0
C424 C 0.83459 0.52888 0.04939 0.0
C425 C 0.68682 0.58048 0.99209 0.0
C426 C 0.659 0.56727 0.9122 0.0
C427 C 0.69019 0.54628 0.92724 0.0
C428 C 0.70404 0.55288 0.96682 0.0
C429 C 0.65587 0.60178 0.97715 0.0
C430 C 0.64201 0.59524 0.93735 0.0
C431 C 0.70075 0.58597 0.03426 0.0
H432 H 0.92952 0.40087 0.0802 0.0
H433 H 0.88623 0.45047 0.10507 0.0
H434 H 0.84316 0.37567 0.19952 0.0
H435 H 0.88517 0.326 0.17458 0.0
H436 H 0.70381 0.5247 0.90835 0.0
H437 H 0.72811 0.53626 0.97776 0.0
H438 H 0.64218 0.62307 0.99635 0.0
H439 H 0.61753 0.6114 0.92659 0.0
Dy440 Dy 0.55039 1.0471 0.38331 0.0
Dy441 Dy 0.49953 0.99839 0.32634 0.0
C442 C 0.46491 1.02264 0.41997 0.0
O443 O 0.58351 0.99 0.38815 0.0
O444 O 0.5504 0.95648 0.33989 0.0
O445 O 0.55502 1.09797 0.41949 0.0
O446 O 0.60289 1.05839 0.4161 0.0
O447 O 0.5503 1.00608 0.28537 0.0
O448 O 0.58322 1.04907 0.32415 0.0
O449 O 0.49933 1.05426 0.2889 0.0
O450 O 0.53084 1.0918 0.33458 0.0
O451 O 0.45429 0.9944 0.28138 0.0
O452 O 0.47709 0.94368 0.30978 0.0
C453 C 0.58063 0.95909 0.36495 0.0
O454 O 0.50004 1.0345 0.42816 0.0
O455 O 0.45834 1.01026 0.38199 0.0
C456 C 0.61687 1.12258 0.40692 0.0
C457 C 0.66544 0.17922 0.37537 0.0
C458 C 0.62705 0.17728 0.36258 0.0
C459 C 0.60297 0.14913 0.37813 0.0
C460 C 0.65572 1.12277 0.41727 0.0
C461 C 0.6798 0.15056 0.40153 0.0
C462 C 0.59194 1.09296 0.42402 0.0
C463 C 0.57886 1.02952 0.29019 0.0
C464 C 0.51397 1.08782 0.29804 0.0
C465 C 0.46322 0.94206 0.23883 0.0
C466 C 0.47756 0.91422 0.15916 0.0
C467 C 0.50815 0.9247 0.18454 0.0
C468 C 0.50104 0.93866 0.22405 0.0
C469 C 0.43249 0.93246 0.21316 0.0
C470 C 0.43965 0.91848 0.1734 0.0
C471 C 0.45615 0.95768 0.28007 0.0
H472 H 0.61508 0.19889 0.34267 0.0
H473 H 0.57326 0.14895 0.36851 0.0
H474 H 0.66726 1.10201 0.4385 0.0
H475 H 0.70901 0.15106 0.4127 0.0
H476 H 0.53758 0.92104 0.17416 0.0
H477 H 0.52511 0.9463 0.24327 0.0
H478 H 0.40313 0.93537 0.22402 0.0
H479 H 0.41579 0.90983 0.15435 0.0
Dy480 Dy 0.24625 0.54204 0.47425 0.0
Dy481 Dy 0.29854 0.4902 0.42123 0.0
C482 C 0.27571 0.46506 0.5146 0.0
O483 O 0.30265 0.54203 0.51355 0.0
O484 O 0.34256 0.51029 0.46937 0.0
O485 O 0.23949 0.59171 0.51226 0.0
O486 O 0.18948 0.56038 0.49311 0.0
O487 O 0.2881 0.54022 0.37557 0.0
O488 O 0.25912 0.5816 0.41911 0.0
O489 O 0.24506 0.45222 0.42467 0.0
O490 O 0.20333 0.49361 0.45524 0.0
O491 O 0.35558 0.47348 0.40196 0.0
O492 O 0.3056 0.44846 0.37324 0.0
C493 C 0.33731 0.52727 0.50554 0.0
O494 O 0.25601 0.49635 0.5193 0.0
O495 O 0.29338 0.4566 0.47982 0.0
C496 C 0.18927 0.58474 0.56029 0.0
C497 C 0.15812 0.57155 0.63896 0.0
C498 C 0.19509 0.55835 0.62922 0.0
C499 C 0.21053 0.56475 0.58999 0.0
C500 C 0.15328 0.59982 0.57082 0.0
C501 C 1.13776 0.59327 0.60999 0.0
C502 C 0.20276 0.58655 0.51739 0.0
C503 C 0.27415 0.5747 0.3823 0.0
C504 C 0.21019 0.45914 0.4395 0.0
C505 C 0.3559 0.40803 0.39363 0.0
C506 C 0.38284 0.33682 0.42007 0.0
C507 C 0.40745 0.36258 0.39965 0.0
C508 C 0.39405 0.39769 0.38659 0.0
C509 C 0.33174 0.38368 0.41605 0.0
C510 C 0.34501 0.3483 0.42889 0.0
C511 C 0.34233 0.44537 0.38044 0.0
H512 H 0.21104 0.54129 0.65106 0.0
H513 H 0.23835 0.55274 0.58231 0.0
H514 H 1.13652 0.61524 0.54824 0.0
H515 H 1.10914 0.60369 0.61709 0.0
H516 H 0.43655 0.35498 0.39104 0.0
H517 H 0.41331 0.41645 0.37019 0.0
H518 H 0.30233 0.39164 0.42286 0.0
H519 H 0.32516 0.32915 0.44376 0.0
Dy520 Dy 1.00156 0.99604 0.2257 0.0
Dy521 Dy 1.0532 1.04624 0.17094 0.0
C522 C 1.08151 1.02396 0.26236 0.0
O523 O 1.00362 1.0515 0.26496 0.0
O524 O 1.03187 1.09101 0.2184 0.0
O525 O 0.9561 0.99124 0.27091 0.0
O526 O 0.97891 0.94108 0.2414 0.0
O527 O 1.00289 1.03433 0.12597 0.0
O528 O 0.96009 1.01095 0.17197 0.0
O529 O 1.09104 0.99207 0.17391 0.0
O530 O 1.0486 0.95196 0.20452 0.0
O531 O 1.06562 1.10108 0.14515 0.0
O532 O 1.10002 1.05222 0.12763 0.0
C533 C 1.01651 1.08592 0.25564 0.0
O534 O 1.05306 1.00008 0.26546 0.0
O535 O 1.08539 1.04623 0.23031 0.0
C536 C 0.96304 0.93686 0.31277 0.0
C537 C 0.97868 0.90642 0.39146 0.0
C538 C 0.98835 0.88614 0.35554 0.0
C539 C 0.98061 0.90118 0.3166 0.0
C540 C 0.95183 0.95635 0.34881 0.0
C541 C 0.9596 0.94127 0.38778 0.0
C542 C 0.95796 0.95446 0.27165 0.0
C543 C 0.96727 1.02343 0.13415 0.0
C544 C 1.0835 0.9577 0.18826 0.0
C545 C 1.13217 1.10827 0.14469 0.0
C546 C 0.1972 0.14627 0.17446 0.0
C547 C 0.17165 0.16394 0.14653 0.0
C548 C 1.13958 0.14509 0.13187 0.0
C549 C 0.15608 1.09113 0.17431 0.0
C550 C 0.18846 1.10994 0.18893 0.0
C551 C 1.09795 1.089 0.1294 0.0
H552 H 1.00216 0.8587 0.35759 0.0
H553 H 0.98905 0.88512 0.28952 0.0
H554 H 0.93779 0.98369 0.34695 0.0
H555 H 0.95161 0.95731 0.41503 0.0
H556 H 0.17758 0.1915 0.13359 0.0
H557 H 1.12103 0.159 0.10974 0.0
H558 H 1.15029 1.06286 0.18542 0.0
H559 H 0.20769 1.09543 0.20988 0.0
Dy560 Dy 0.54911 0.75339 0.97253 0.0
Dy561 Dy 0.49789 0.80231 0.9183 0.0
C562 C 0.51506 0.83152 1.0098 0.0
O563 O 0.49284 0.75287 1.01214 0.0
O564 O 0.4529 0.78193 0.96633 0.0
O565 O 0.55778 0.70866 1.01674 0.0
O566 O 0.60662 0.73449 0.98674 0.0
O567 O 0.51322 0.75182 0.87491 0.0
O568 O 0.53436 0.71024 0.92183 0.0
O569 O 0.54963 0.84281 0.92303 0.0
O570 O 0.59182 0.80127 0.95186 0.0
O571 O 0.4919 0.83913 0.86545 0.0
O572 O 0.44144 0.81548 0.89512 0.0
C573 C 0.45793 0.76617 1.00324 0.0
O574 O 0.538 0.80226 1.0138 0.0
O575 O 0.49658 0.83837 0.97525 0.0
C576 C 0.61159 0.7197 0.05677 0.0
C577 C 0.63851 0.73394 0.13661 0.0
C578 C 0.61889 0.76215 0.11466 0.0
C579 C 0.60596 0.75519 0.07496 0.0
C580 C 0.63123 0.69132 0.07825 0.0
C581 C 0.64502 0.69852 0.11792 0.0
C582 C 0.59494 0.71237 1.01638 0.0
C583 C 0.52317 0.71666 0.88372 0.0
C584 C 0.58476 0.83589 0.93697 0.0
C585 C 0.44618 0.81101 0.82288 0.0
C586 C 0.43437 0.77247 0.74789 0.0
C587 C 0.44236 0.81157 0.74845 0.0
C588 C 0.44834 0.83055 0.78553 0.0
C589 C 0.4389 0.77185 0.82255 0.0
C590 C 0.43289 0.75279 0.78539 0.0
C591 C 0.45575 0.83036 0.8616 0.0
H592 H 0.61347 0.78968 0.1282 0.0
H593 H 0.59132 0.77751 0.05853 0.0
H594 H 0.63587 0.66378 0.06442 0.0
H595 H 0.66115 0.67664 0.13364 0.0
H596 H 0.44226 0.82811 0.72032 0.0
H597 H 0.45445 0.86053 0.78506 0.0
H598 H 0.43777 0.75589 0.85105 0.0
H599 H 0.42611 0.72296 0.78599 0.0
Dy600 Dy 0.79179 0.29521 0.72543 0.0
Dy601 Dy 0.74214 0.2485 0.66799 0.0
C602 C 0.7098 0.26552 0.7577 0.0
O603 O 0.78902 0.23942 0.7632 0.0
O604 O 0.7619 0.20164 0.71443 0.0
O605 O 0.83485 0.29925 0.77265 0.0
O606 O 0.8146 0.34985 0.7421 0.0
O607 O 0.79098 0.26974 0.62524 0.0
O608 O 0.8352 0.27846 0.67394 0.0
O609 O 0.70435 0.30262 0.67049 0.0
O610 O 0.74599 0.34052 0.70485 0.0
O611 O 0.69223 0.23734 0.63098 0.0
O612 O 0.74279 0.20136 0.62557 0.0
C613 C 0.77674 0.20536 0.75218 0.0
O614 O 0.73769 0.28994 0.76184 0.0
O615 O 0.70757 0.24314 0.72554 0.0
C616 C 0.82546 0.35294 0.81334 0.0
C617 C 0.80751 0.38586 0.88991 0.0
C618 C 0.78522 0.35617 0.87461 0.0
C619 C 0.79405 0.33993 0.83656 0.0
C620 C 0.84817 0.3822 0.8287 0.0
C621 C 0.8393 0.39855 0.86691 0.0
C622 C 0.8339 0.33603 0.77304 0.0
C623 C 0.82759 0.27347 0.63449 0.0
C624 C 0.71178 0.33617 0.68687 0.0
C625 C 0.71581 0.22401 0.56433 0.0
C626 C 0.72815 0.24467 0.48136 0.0
C627 C 0.7318 0.20669 0.4941 0.0
C628 C 0.72559 0.19649 0.53514 0.0
C629 C 0.71414 0.26225 0.55223 0.0
C630 C 0.71984 0.27243 0.51101 0.0
C631 C 0.7114 0.21344 0.60797 0.0
H632 H 0.76105 0.34545 0.89216 0.0
H633 H 0.77636 0.31714 0.82529 0.0
H634 H 0.8725 0.39251 0.8111 0.0
H635 H 0.85683 0.42149 0.87819 0.0
H636 H 0.73728 0.18438 0.47194 0.0
H637 H 0.72797 0.16705 0.54399 0.0
H638 H 0.70791 0.28431 0.57452 0.0
H639 H 0.71641 0.30172 0.50199 0.0
C640 C 0.60504 0.40658 0.12127 0.0
C641 C 0.61427 0.36717 0.1185 0.0
C642 C 0.63338 0.43651 0.12042 0.0
C643 C 0.6738 0.42982 0.11802 0.0
H644 H 0.57508 0.41474 0.12345 0.0
H645 H 0.62324 0.46544 0.12219 0.0
S646 S 0.71535 0.33254 0.10942 0.0
N647 N 0.66871 0.32452 0.11197 0.0
N648 N 0.72048 0.37884 0.11217 0.0
C649 C 0.6834 0.39055 0.11549 0.0
C650 C 0.65452 0.3602 0.11524 0.0
C651 C 0.66227 0.88551 0.32925 0.0
C652 C 0.67734 0.86863 0.36586 0.0
C653 C 0.63122 0.91305 0.32916 0.0
C654 C 0.61316 0.92735 0.36576 0.0
H655 H 0.6741 0.87671 0.29976 0.0
H656 H 0.6217 0.92387 0.29965 0.0
S657 S 0.6409 0.89422 0.47082 0.0
N658 N 0.66964 0.86931 0.44033 0.0
N659 N 0.61469 0.92135 0.44029 0.0
C660 C 0.62842 0.91122 0.40257 0.0
C661 C 0.65907 0.88217 0.40258 0.0
C662 C 1.13362 0.93291 0.61813 0.0
C663 C 0.17406 0.92602 0.61766 0.0
C664 C 1.1051 0.90316 0.61888 0.0
C665 C 1.11417 0.86365 0.618 0.0
H666 H 1.12358 0.96192 0.61839 0.0
H667 H 1.07515 0.91152 0.61947 0.0
S668 S 0.21531 0.82832 0.61481 0.0
N669 N 0.22061 0.87465 0.61588 0.0
N670 N 0.16857 0.82059 0.61558 0.0
C671 C 0.15447 0.85641 0.61674 0.0
C672 C 0.18351 0.88664 0.61705 0.0
C673 C 1.10603 0.38585 0.86465 0.0
C674 C 1.11383 0.42542 0.86545 0.0
C675 C 1.13563 0.35677 0.86588 0.0
C676 C 0.17596 0.36438 0.86665 0.0
H677 H 1.07638 0.37692 0.86352 0.0
H678 H 1.12653 0.32758 0.86545 0.0
S679 S 0.21398 0.4627 0.86758 0.0
N680 N 0.16701 0.46947 0.86697 0.0
N681 N 0.22084 0.41646 0.86736 0.0
C682 C 0.18414 0.4038 0.86671 0.0
C683 C 0.15403 0.43338 0.86664 0.0
C684 C 0.68508 0.89123 0.93478 0.0
C685 C 0.67607 0.93067 0.93769 0.0
C686 C 0.65657 0.86151 0.93502 0.0
C687 C 0.61618 0.8684 0.93694 0.0
H688 H 0.715 0.88286 0.9329 0.0
H689 H 0.66657 0.83253 0.93315 0.0
S690 S 0.57513 0.96587 0.94576 0.0
N691 N 0.62184 0.97364 0.94383 0.0
N692 N 0.56972 0.91962 0.94261 0.0
C693 C 0.60676 0.90771 0.93966 0.0
C694 C 0.63584 0.9379 0.94048 0.0
C695 C 0.61014 0.39004 0.6825 0.0
C696 C 0.61766 0.42948 0.68646 0.0
C697 C 0.63993 0.36118 0.68177 0.0
C698 C 0.68003 0.36878 0.68625 0.0
H699 H 0.58062 0.38112 0.67937 0.0
H700 H 0.63106 0.3321 0.67829 0.0
S701 S 0.71694 0.46668 0.70003 0.0
N702 N 0.67015 0.47344 0.69571 0.0
N703 N 0.72423 0.42063 0.6962 0.0
C704 C 0.68784 0.40802 0.69111 0.0
C705 C 0.65763 0.43749 0.6907 0.0
C706 C 1.11098 0.40192 0.43532 0.0
C707 C 1.1207 0.36266 0.43894 0.0
C708 C 1.13879 0.43228 0.4362 0.0
C709 C 0.17918 0.42624 0.43948 0.0
H710 H 1.081 0.40962 0.43232 0.0
H711 H 1.12827 0.46102 0.4336 0.0
S712 S 0.22196 0.32964 0.45041 0.0
N713 N 0.17552 0.32088 0.44723 0.0
N714 N 0.22644 0.37598 0.447 0.0
C715 C 0.1893 0.38711 0.44289 0.0
C716 C 0.16089 0.35631 0.44315 0.0
C717 C 1.13834 0.85735 0.18393 0.0
C718 C 0.17858 0.86511 0.18661 0.0
C719 C 1.10849 0.88621 0.18494 0.0
C720 C 1.11602 0.92576 0.18743 0.0
H721 H 1.12945 0.82818 0.18168 0.0
H722 H 1.07891 0.87715 0.18322 0.0
S723 S 0.21566 0.96342 0.19593 0.0
N724 N 0.22292 0.9173 0.19324 0.0
N725 N 0.16874 0.96998 0.19328 0.0
C726 C 0.15612 0.93391 0.18989 0.0
C727 C 0.1864 0.90449 0.19 0.0
C728 C 0.39642 0.25674 0.94527 0.0
C729 C 0.35894 0.27187 0.95257 0.0
C730 C 0.42608 0.25532 0.97632 0.0
C731 C 0.42115 0.26934 1.01737 0.0
H732 H 0.40299 0.24524 0.91506 0.0
H733 H 0.45357 0.24316 0.96768 0.0
S734 S 0.33062 0.31658 0.05256 0.0
N735 N 0.32058 0.30389 1.00476 0.0
N736 N 0.37489 0.3018 0.06136 0.0
C737 C 0.3841 0.28546 0.02467 0.0
C738 C 0.3538 0.28653 0.9932 0.0
C739 C 0.77382 0.64793 0.19456 0.0
C740 C 0.77126 0.60889 0.20531 0.0
C741 C 0.77593 0.67814 0.22454 0.0
C742 C 0.77464 0.67223 0.2681 0.0
H743 H 0.77463 0.65548 0.16219 0.0
H744 H 0.77784 0.70683 0.21314 0.0
S745 S 0.76625 0.57622 0.3147 0.0
N746 N 0.76719 0.56722 0.26464 0.0
N747 N 0.76932 0.62259 0.31944 0.0
C748 C 0.7713 0.63343 0.2793 0.0
C749 C 0.77019 0.60257 0.24877 0.0
C750 C 0.39207 1.02349 0.44426 0.0
C751 C 0.43201 1.02362 0.45404 0.0
C752 C 0.36175 1.02521 0.47498 0.0
C753 C 0.36852 1.02633 0.5184 0.0
H754 H 0.38386 1.0224 0.4121 0.0
H755 H 0.33234 1.0249 0.46433 0.0
S756 S 0.46719 1.02609 0.56262 0.0
N757 N 0.47544 1.02497 0.51236 0.0
N758 N 0.42003 1.02664 0.56848 0.0
C759 C 0.40827 1.02589 0.52862 0.0
C760 C 0.43913 1.02502 0.49733 0.0
C761 C 1.02236 0.68609 0.74321 0.0
C762 C 1.01741 0.6804 0.69998 0.0
C763 C 1.02057 0.65598 0.77334 0.0
C764 C 1.01248 0.61759 0.76317 0.0
H765 H 1.0285 0.71431 0.75411 0.0
H766 H 1.02555 0.66316 0.80535 0.0
S767 S 0.99554 0.58606 0.65491 0.0
N768 N 1.00366 0.63172 0.64958 0.0
N769 N 0.99884 0.57692 0.70478 0.0
C770 C 1.00684 0.61166 0.72011 0.0
C771 C 1.00964 0.64215 0.68934 0.0
C772 C 0.86435 1.02994 0.08022 0.0
C773 C 0.8711 1.02921 0.03671 0.0
C774 C 0.8946 1.02762 0.11062 0.0
C775 C 0.9345 1.02538 0.10037 0.0
H776 H 0.83499 1.03159 0.09126 0.0
H777 H 0.88637 1.02795 0.1429 0.0
S778 S 0.96966 1.02248 0.99137 0.0
N779 N 0.92257 1.02523 0.98605 0.0
N780 N 0.9779 1.02265 0.04155 0.0
C781 C 0.94165 1.02507 0.05698 0.0
C782 C 0.91081 1.02644 0.02606 0.0
C783 C 0.51662 0.69034 0.80746 0.0
C784 C 0.52171 0.68382 0.85061 0.0
C785 C 0.51536 0.6604 0.77704 0.0
C786 C 0.51797 0.62126 0.78724 0.0
H787 H 0.51395 0.71918 0.7967 0.0
H788 H 0.51186 0.66821 0.74497 0.0
S789 S 0.53317 0.58703 0.89484 0.0
N790 N 0.53098 0.63338 0.90047 0.0
N791 N 0.52727 0.57878 0.84513 0.0
C792 C 0.52306 0.61441 0.83019 0.0
C793 C 0.52525 0.64481 0.86096 0.0
C794 C 0.89984 0.26692 0.61025 0.0
C795 C 0.86024 0.27183 0.60046 0.0
C796 C 0.92998 0.26442 0.57952 0.0
C797 C 0.9233 0.26729 0.53621 0.0
H798 H 0.90791 0.26465 0.64244 0.0
H799 H 0.95916 0.26085 0.5901 0.0
S800 S 0.82552 0.28101 0.49214 0.0
N801 N 0.81712 0.27935 0.54235 0.0
N802 N 0.87241 0.27598 0.4862 0.0
C803 C 0.88393 0.27263 0.52601 0.0
C804 C 0.85316 0.27446 0.55725 0.0
C805 C 0.27314 0.64609 0.35869 0.0
C806 C 0.27541 0.60693 0.34833 0.0
C807 C 0.27445 0.67619 0.32858 0.0
C808 C 0.2771 0.67 0.28513 0.0
H809 H 0.27064 0.65389 0.39092 0.0
H810 H 0.2726 0.70498 0.33976 0.0
S811 S 0.28279 0.57341 0.23932 0.0
N812 N 0.28054 0.56476 0.28941 0.0
N813 N 0.28129 0.61986 0.23419 0.0
C814 C 0.27877 0.63101 0.2742 0.0
C815 C 0.27844 0.60031 0.30499 0.0
C816 C 0.8517 0.76254 0.49592 0.0
C817 C 0.85825 0.76988 0.45312 0.0
C818 C 0.88193 0.76154 0.52633 0.0
C819 C 0.9215 0.76653 0.51637 0.0
H820 H 0.82254 0.75789 0.50642 0.0
H821 H 0.87405 0.75626 0.55818 0.0
S822 S 0.95606 0.78776 0.40974 0.0
N823 N 0.90917 0.78365 0.40385 0.0
N824 N 0.96448 0.7802 0.45917 0.0
C825 C 0.92847 0.77375 0.47376 0.0
C826 C 0.89767 0.7758 0.44304 0.0
C827 C 0.27215 0.17568 0.7261 0.0
C828 C 0.27512 0.16956 0.76952 0.0
C829 C 0.27041 0.14555 0.69603 0.0
C830 C 0.27262 1.10642 0.70642 0.0
H831 H 0.27034 0.20447 0.71492 0.0
H832 H 0.26771 0.1533 0.66385 0.0
S833 S 0.28009 1.07303 0.81539 0.0
N834 N 0.27903 1.11949 0.82047 0.0
N835 N 0.27762 1.06433 0.76535 0.0
C836 C 0.27579 1.09987 0.74974 0.0
C837 C 0.2765 1.13059 0.78048 0.0
C838 C 0.862 0.53099 0.97318 0.0
C839 C 0.86842 0.52897 1.01657 0.0
C840 C 0.89244 0.52884 0.94268 0.0
C841 C 0.93217 0.5253 0.95276 0.0
H842 H 0.83277 0.53355 0.9623 0.0
H843 H 0.8845 0.53025 0.91045 0.0
S844 S 0.96633 0.51797 0.06141 0.0
N845 N 0.91931 0.52204 0.06697 0.0
N846 N 0.97502 0.51944 1.01123 0.0
C847 C 0.93899 0.52347 0.99604 0.0
C848 C 0.90794 0.52484 0.02707 0.0
C849 C 0.51688 0.15956 0.27515 0.0
C850 C 0.51509 1.12046 0.26481 0.0
C851 C 0.51878 0.18936 0.24468 0.0
C852 C 0.51999 0.18283 0.20123 0.0
H853 H 0.51659 0.16749 0.30743 0.0
H854 H 0.5202 0.21815 0.25552 0.0
S855 S 0.521 1.08581 0.15615 0.0
N856 N 0.51746 1.07772 0.20624 0.0
N857 N 0.52206 1.1322 0.15068 0.0
C858 C 0.51969 0.14377 0.19058 0.0
C859 C 0.51695 1.11345 0.2215 0.0
C860 C 0.36566 0.53992 0.58014 0.0
C861 C 0.37055 0.52685 0.53872 0.0
C862 C 0.39547 0.53776 0.61107 0.0
C863 C 0.433 0.52286 0.60319 0.0
H864 H 0.33812 0.55173 0.58918 0.0
H865 H 0.38898 0.54847 0.64165 0.0
S866 S 0.46114 0.48061 0.50196 0.0
N867 N 0.41681 0.49542 0.49378 0.0
N868 N 0.47132 0.49232 0.55002 0.0
C869 C 0.43806 0.50928 0.56217 0.0
C870 C 0.40764 0.51094 0.53092 0.0
C871 C 1.01614 0.18791 0.30902 0.0
C872 C 1.02215 0.18159 0.35207 0.0
C873 C 1.01443 0.15784 0.27873 0.0
C874 C 1.0172 1.11866 0.28892 0.0
H875 H 1.01318 0.21672 0.29821 0.0
H876 H 1.01045 0.1656 0.24671 0.0
S877 S 1.03415 1.08479 0.39631 0.0
N878 N 1.03217 1.13117 0.40184 0.0
N879 N 1.02738 1.07638 0.34675 0.0
C880 C 1.023 1.11196 0.33178 0.0
C881 C 1.02581 0.14252 0.36242 0.0
C882 C 0.39961 0.75735 0.10943 0.0
C883 C 0.36152 0.77029 0.10122 0.0
C884 C 0.42959 0.75521 0.07836 0.0
C885 C 0.42437 0.76643 0.03642 0.0
H886 H 0.40647 0.74819 0.14044 0.0
H887 H 0.4575 0.74485 0.0877 0.0
S888 S 0.33187 0.80632 0.99798 0.0
N889 N 0.32201 0.79647 0.04675 0.0
N890 N 0.37695 0.79343 0.99023 0.0
C891 C 0.38665 0.78021 0.02812 0.0
C892 C 0.35602 0.78183 0.05955 0.0
C893 C 0.77518 0.17796 0.82784 0.0
C894 C 0.77688 0.17166 0.78435 0.0
C895 C 0.77389 0.14795 0.85807 0.0
C896 C 0.77523 1.10874 0.84778 0.0
H897 H 0.77409 0.20679 0.83898 0.0
H898 H 0.77217 0.15585 0.89032 0.0
S899 S 0.77979 1.07491 0.73871 0.0
N900 N 0.7791 1.12136 0.73348 0.0
N901 N 0.77836 1.06639 0.78887 0.0
C902 C 0.77727 1.102 0.80439 0.0
C903 C 0.77759 1.13262 0.77351 0.0
C904 C 0.65318 0.21483 0.83989 0.0
C905 C 0.64662 0.24347 0.86917 0.0
C906 C 0.6715 0.22274 0.80237 0.0
C907 C 0.68428 0.25944 0.7933 0.0
H908 H 0.64477 0.18601 0.84642 0.0
H909 H 0.67744 0.19959 0.78135 0.0
S910 S 0.67228 0.3446 0.85898 0.0
N911 N 0.65287 0.31009 0.88615 0.0
N912 N 0.68732 0.32503 0.81548 0.0
C913 C 0.67667 0.28856 0.82172 0.0
C914 C 0.6578 0.28056 0.85975 0.0
C915 C 0.79153 0.94046 0.12479 0.0
C916 C 0.80401 0.90275 0.12286 0.0
C917 C 0.78089 0.95992 0.08915 0.0
C918 C 0.78277 0.94259 0.05007 0.0
H919 H 0.78994 0.95509 0.15416 0.0
H920 H 0.77233 0.98922 0.0923 0.0
S921 S 0.81251 0.84369 0.02867 0.0
N922 N 0.81673 0.84816 0.07922 0.0
N923 N 0.79713 0.88509 1.01168 0.0
C924 C 0.79476 0.90465 0.04771 0.0
C925 C 0.80519 0.88461 0.08426 0.0
C926 C 1.1215 1.06644 0.30566 0.0
C927 C 1.10538 1.03056 0.29907 0.0
C928 C 1.13805 1.07575 0.34359 0.0
C929 C 1.13905 1.04949 0.37609 0.0
H930 H 1.11958 1.08818 0.2822 0.0
H931 H 1.14872 1.10414 0.34806 0.0
S932 S 1.10638 0.95011 0.37229 0.0
N933 N 1.09541 0.96743 0.32654 0.0
N934 N 1.12654 0.98504 0.39787 0.0
C935 C 1.12508 1.01293 0.3691 0.0
C936 C 1.10831 1.00341 0.33053 0.0
C937 C 0.97515 0.36865 0.55723 0.0
C938 C 1.01115 0.35186 0.54944 0.0
C939 C 0.96613 0.3837 0.59621 0.0
C940 C 0.99257 0.38198 0.62898 0.0
H941 H 0.95325 0.36897 0.53361 0.0
H942 H 0.93812 0.39655 0.60068 0.0
S943 S 1.09179 0.34263 0.62334 0.0
N944 N 1.07464 0.33742 0.57639 0.0
N945 N 1.05655 0.36185 0.65042 0.0
C946 C 1.02895 0.36569 0.62116 0.0
C947 C 1.03852 0.3517 0.58121 0.0
C948 C 0.62595 1.02187 0.18522 0.0
C949 C 0.63754 1.0592 0.17753 0.0
C950 C 0.60811 1.01211 0.2225 0.0
C951 C 0.60213 1.03918 0.25364 0.0
H952 H 0.62987 1.00029 0.16182 0.0
H953 H 0.59849 0.9833 0.22675 0.0
S954 S 0.62817 1.14074 0.24863 0.0
N955 N 0.64224 1.12326 0.20371 0.0
N956 N 0.60969 1.10491 0.27446 0.0
C957 C 0.61456 1.07646 0.24667 0.0
C958 C 0.63193 1.08651 0.20834 0.0
C959 C 0.52613 0.38343 0.94416 0.0
C960 C 0.48907 0.39724 0.9357 0.0
C961 C 0.53403 0.3648 0.98124 0.0
C962 C 0.50532 0.35987 1.01141 0.0
H963 H 0.54881 0.38571 0.92127 0.0
H964 H 0.56259 0.35327 0.98583 0.0
S965 S 0.40415 0.39273 1.00502 0.0
N966 N 0.42383 0.40632 0.961 0.0
N967 N 0.4387 0.3714 0.03101 0.0
C968 C 0.46852 0.3749 1.00406 0.0
C969 C 0.46036 0.39348 0.96603 0.0
C970 C 0.17476 0.27966 0.73256 0.0
C971 C 0.18326 0.25165 0.76189 0.0
C972 C 0.15636 0.2705 0.69564 0.0
C973 C 1.14673 0.23292 0.68647 0.0
H974 H 0.1832 0.30869 0.73778 0.0
H975 H 0.15102 0.29274 0.67339 0.0
S976 S 0.16278 0.14921 0.75291 0.0
N977 N 0.17998 0.18493 0.77974 0.0
N978 N 1.14625 0.16769 0.70964 0.0
C979 C 0.1545 0.20475 0.71573 0.0
C980 C 0.17249 0.21415 0.75373 0.0
C981 C 0.31529 0.92348 0.49859 0.0
C982 C 0.27801 0.9369 0.50725 0.0
C983 C 0.32377 0.90547 0.46115 0.0
C984 C 0.29515 0.89979 0.43142 0.0
H985 H 0.3385 0.92841 0.52003 0.0
H986 H 0.35304 0.89633 0.45518 0.0
S987 S 0.19247 0.92706 0.44072 0.0
N988 N 0.21184 0.94151 0.48431 0.0
N989 N 0.22775 0.90746 0.41383 0.0
C990 C 0.25745 0.91173 0.44042 0.0
C991 C 0.24889 0.93039 0.47838 0.0
C992 C 0.15197 0.71235 0.33883 0.0
C993 C 1.14566 0.74089 0.36831 0.0
C994 C 0.17028 0.72031 0.30126 0.0
C995 C 0.18324 0.75697 0.29235 0.0
H996 H 1.14346 0.68354 0.34528 0.0
H997 H 0.17615 0.69722 0.28014 0.0
S998 S 0.17182 0.84193 0.35838 0.0
N999 N 0.15241 0.80739 0.3855 0.0
N1000 N 0.18658 0.82245 0.31474 0.0
C1001 C 0.17577 0.78601 0.32088 0.0
C1002 C 0.15701 0.77795 0.35896 0.0
C1003 C 0.29294 0.44168 0.62653 0.0
C1004 C 0.30276 0.40322 0.62551 0.0
C1005 C 0.28318 0.4609 0.59048 0.0
C1006 C 0.2833 0.44249 0.55193 0.0
H1007 H 0.29258 0.457 0.65551 0.0
H1008 H 0.27641 0.49074 0.59288 0.0
S1009 S 0.30662 0.34163 0.53309 0.0
N1010 N 0.31167 0.34701 0.5834 0.0
N1011 N 0.29372 0.38346 0.51503 0.0
C1012 C 0.293 0.40395 0.55047 0.0
C1013 C 0.30253 0.38419 0.58745 0.0
C1014 C 0.61589 0.51227 0.82385 0.0
C1015 C 0.60883 0.54038 0.79416 0.0
C1016 C 0.63315 0.52112 0.8615 0.0
C1017 C 0.6432 0.55852 0.87109 0.0
H1018 H 0.60712 0.48339 0.81837 0.0
H1019 H 0.63739 0.49875 0.88388 0.0
S1020 S 0.63111 0.6424 0.80385 0.0
N1021 N 0.61402 0.607 0.77645 0.0
N1022 N 0.64586 0.62366 0.84771 0.0
C1023 C 0.63698 0.58677 0.84143 0.0
C1024 C 0.62006 0.57767 0.80274 0.0
C1025 C 0.49107 0.89029 0.04565 0.0
C1026 C 0.50577 0.85319 0.04768 0.0
C1027 C 0.48131 0.91023 0.08185 0.0
C1028 C 0.48586 0.89343 0.12084 0.0
H1029 H 0.4874 0.90406 1.01606 0.0
H1030 H 0.4706 0.93893 0.07944 0.0
S1031 S 0.51907 0.79616 0.14325 0.0
N1032 N 0.52136 0.7998 0.09254 0.0
N1033 N 0.50351 0.83764 0.15973 0.0
C1034 C 0.49956 0.85633 0.12328 0.0
C1035 C 0.50941 0.83608 0.08688 0.0
C1036 C 0.15297 0.56724 0.71608 0.0
C1037 C 1.13871 0.55839 0.67682 0.0
C1038 C 1.13362 0.55542 0.75193 0.0
C1039 C 1.09977 0.53386 0.74961 0.0
H1040 H 0.17868 0.58409 0.71903 0.0
H1041 H 1.14498 0.56373 0.78158 0.0
S1042 S 1.05315 0.50109 0.65298 0.0
N1043 N 1.09072 0.52531 0.63713 0.0
N1044 N 1.05413 0.50305 0.70386 0.0
C1045 C 1.08623 0.52383 0.71013 0.0
C1046 C 1.10575 0.53616 0.67391 0.0
C1047 C 0.96096 0.88859 0.46402 0.0
C1048 C 0.98894 0.89132 0.43264 0.0
C1049 C 0.96957 0.8716 0.50204 0.0
C1050 C 1.00645 0.85692 0.50984 0.0
H1051 H 0.93184 0.89817 0.45851 0.0
H1052 H 0.94666 0.86805 0.52445 0.0
S1053 S 1.09113 0.86224 0.44023 0.0
N1054 N 1.05583 0.88149 0.41354 0.0
N1055 N 1.07208 0.8499 0.48496 0.0
C1056 C 1.03515 0.86152 0.47964 0.0
C1057 C 1.02637 0.87857 0.44101 0.0
C1058 C 0.67289 0.77713 0.18405 0.0
C1059 C 0.65386 0.7427 0.17791 0.0
C1060 C 0.68918 0.78593 0.22199 0.0
C1061 C 0.68745 0.76049 0.25526 0.0
H1062 H 0.67632 0.79706 0.15893 0.0
H1063 H 0.70442 0.81241 0.22473 0.0
S1064 S 0.63891 0.66736 0.25585 0.0
N1065 N 0.63188 0.684 0.20886 0.0
N1066 N 0.664 0.69985 0.28013 0.0
C1067 C 0.66744 0.7264 0.25006 0.0
C1068 C 0.65049 0.71757 0.21131 0.0
C1069 C 0.81656 0.42577 0.99783 0.0
C1070 C 0.77972 0.4409 1.00544 0.0
C1071 C 0.82527 0.40775 0.96044 0.0
C1072 C 0.79733 0.40384 0.92966 0.0
H1073 H 0.83932 0.42912 1.02018 0.0
H1074 H 0.85414 0.39705 0.95545 0.0
S1075 S 0.69614 0.43687 0.93503 0.0
N1076 N 0.71469 0.44942 0.97975 0.0
N1077 N 0.73124 0.41565 0.90936 0.0
C1078 C 0.76012 0.41783 0.93729 0.0
C1079 C 0.75128 0.43635 0.97523 0.0
C1080 C 0.38471 0.25368 0.36429 0.0
C1081 C 0.42313 0.26022 0.35246 0.0
C1082 C 0.36986 0.27182 0.39944 0.0
C1083 C 0.39383 0.2961 0.42201 0.0
H1084 H 0.36462 0.24214 0.34227 0.0
H1085 H 0.33893 0.27387 0.40238 0.0
S1086 S 0.49947 0.29092 0.42434 0.0
N1087 N 0.48732 0.2702 0.38064 0.0
N1088 N 0.4587 0.30193 0.44791 0.0
C1089 C 0.43313 0.28741 0.42075 0.0
C1090 C 0.44846 0.27054 0.38431 0.0
C1091 C 0.55748 0.58698 0.38196 0.0
C1092 C 0.55902 0.62642 0.37654 0.0
C1093 C 0.53928 0.57272 0.4174 0.0
C1094 C 0.52004 0.59781 0.44446 0.0
H1095 H 0.57857 0.56912 0.36665 0.0
H1096 H 0.54699 0.54444 0.42718 0.0
S1097 S 0.48731 0.69417 0.41783 0.0
N1098 N 0.5201 0.68354 0.38252 0.0
N1099 N 0.48297 0.65621 0.44716 0.0
C1100 C 0.50812 0.63254 0.42782 0.0
C1101 C 0.52797 0.64715 0.39292 0.0
C1102 C 0.35528 0.75828 0.68082 0.0
C1103 C 0.36856 0.78551 0.6525 0.0
C1104 C 0.38082 0.74396 0.71038 0.0
C1105 C 0.41951 0.75534 0.70941 0.0
H1106 H 0.32479 0.75623 0.68725 0.0
H1107 H 0.36872 0.73135 0.73798 0.0
S1108 S 0.46965 0.79767 0.62021 0.0
N1109 N 0.42347 0.80288 0.60999 0.0
N1110 N 0.47185 0.77414 0.66421 0.0
C1111 C 0.43387 0.76852 0.67155 0.0
C1112 C 0.40779 0.78394 0.64236 0.0
C1113 C 0.23659 0.7364 0.91495 0.0
C1114 C 0.25949 0.71101 0.93781 0.0
C1115 C 0.21707 0.72343 0.87998 0.0
C1116 C 0.21799 0.6845 0.87096 0.0
H1117 H 0.22767 0.76326 0.92792 0.0
H1118 H 0.19385 0.74078 0.8682 0.0
S1119 S 0.29663 0.61926 0.9 0.0
N1120 N 0.30043 0.65533 0.93211 0.0
N1121 N 0.26084 0.62994 0.86871 0.0
C1122 C 0.25127 0.66486 0.88293 0.0
C1123 C 0.27246 0.6784 0.9172 0.0
C1124 C 0.87664 0.76462 0.90135 0.0
C1125 C 0.89233 0.79704 0.91987 0.0
C1126 C 0.89628 0.74743 0.86828 0.0
C1127 C 0.93196 0.76193 0.85521 0.0
H1128 H 0.84628 0.75883 0.90496 0.0
H1129 H 0.88036 0.72876 0.84823 0.0
S1130 S 0.99499 0.823 0.918 0.0
N1131 N 0.95255 0.82546 0.94084 0.0
N1132 N 0.98985 0.79339 0.87906 0.0
C1133 C 0.95253 0.78334 0.88413 0.0
C1134 C 0.93241 0.80063 0.91754 0.0
C1135 C 0.98143 0.35593 0.13279 0.0
C1136 C 0.9474 0.33626 0.12356 0.0
C1137 C 1.0038 0.34439 0.16634 0.0
C1138 C 0.99292 0.31256 0.18934 0.0
H1139 H 0.9859 0.38428 0.12121 0.0
H1140 H 1.02407 0.36431 0.17907 0.0
S1141 S 0.9246 0.23916 0.1568 0.0
N1142 N 0.91782 0.2743 0.12395 0.0
N1143 N 0.95972 0.25258 0.18751 0.0
C1144 C 0.96822 0.28666 0.17065 0.0
C1145 C 0.94562 0.29842 0.13648 0.0
C1146 C 0.28441 0.15396 0.12517 0.0
C1147 C 0.27466 0.1902 0.11035 0.0
C1148 C 0.26539 1.13971 0.16004 0.0
C1149 C 0.23652 0.16179 0.17899 0.0
H1150 H 0.2997 1.13421 0.10537 0.0
H1151 H 0.26647 1.10946 0.16505 0.0
S1152 S 0.22766 0.26538 0.17272 0.0
N1153 N 0.25402 0.25324 0.13221 0.0
N1154 N 0.21989 0.22592 0.19863 0.0
C1155 C 0.24036 0.20104 0.17521 0.0
C1156 C 0.25856 0.21565 0.1392 0.0
C1157 C 0.68673 0.26467 0.42451 0.0
C1158 C 0.72353 0.25274 0.43682 0.0
C1159 C 0.66852 0.24633 0.3918 0.0
C1160 C 0.68682 0.21535 0.37254 0.0
H1161 H 0.6692 0.28211 0.44476 0.0
H1162 H 0.63783 0.25057 0.38874 0.0
S1163 S 0.79071 0.1943 0.37501 0.0
N1164 N 0.78342 0.22412 0.4136 0.0
N1165 N 0.74881 0.18966 0.35187 0.0
C1166 C 0.72707 0.21396 0.3747 0.0
C1167 C 0.7457 0.23244 0.40797 0.0
loop_
_geom_bond_atom_site_label_1
_geom_bond_atom_site_label_2
_geom_bond_distance
_geom_bond_site_symmetry_2
_ccdc_geom_bond_type
Dy0 O3 2.307 . S
Dy0 O5 2.395 . S
Dy0 O6 2.379 . S
Dy0 O8 2.339 . S
Dy0 O10 2.298 . S
Dy0 O14 2.275 . S
Dy0 C22 2.738 . S
Dy1 O4 2.298 1_556 S
Dy1 O7 2.275 . S
Dy1 O9 2.307 . S
Dy1 O11 2.395 . S
Dy1 O12 2.379 . S
Dy1 O15 2.339 1_556 S
Dy1 C31 2.738 . S
C2 O14 1.254 . S
C2 O15 1.257 . S
O3 Dy0 2.307 . S
O3 C13 1.266 . S
O4 Dy1 2.298 1_554 S
O4 C13 1.236 . S
O5 Dy0 2.395 . S
O5 C22 1.255 . S
O6 Dy0 2.379 . S
O6 C22 1.249 . S
O7 Dy1 2.275 . S
O7 C23 1.254 . S
O8 Dy0 2.339 . S
O8 C23 1.257 1_554 S
O9 Dy1 2.307 . S
O9 C24 1.266 1_556 S
O10 Dy0 2.298 . S
O10 C24 1.236 . S
O11 Dy1 2.395 . S
O11 C31 1.255 . S
O12 Dy1 2.379 . S
O12 C31 1.249 . S
C13 O3 1.266 . S
C13 O4 1.236 . S
O14 Dy0 2.275 . S
O14 C2 1.254 . S
O15 Dy1 2.339 1_554 S
O15 C2 1.257 . S
C16 C19 1.344 . S
C16 C20 1.328 . S
C16 C22 1.516 . S
C17 C18 1.304 . S
C17 C21 1.323 . S
C18 C17 1.304 . S
C18 C19 1.371 . S
C18 H32 0.930 . S
C19 C16 1.344 . S
C19 C18 1.371 . S
C19 H33 0.931 . S
C20 C16 1.328 . S
C20 C21 1.433 . S
C20 H34 0.931 . S
C21 C17 1.323 . S
C21 C20 1.433 . S
C21 H35 0.933 . S
C22 Dy0 2.738 . S
C22 O5 1.255 . S
C22 O6 1.249 . S
C22 C16 1.516 . S
C23 O7 1.254 . S
C23 O8 1.257 1_556 S
C24 O9 1.266 1_554 S
C24 O10 1.236 . S
C25 C28 1.344 . S
C25 C29 1.328 . S
C25 C31 1.516 . S
C26 C27 1.304 . S
C26 C30 1.323 . S
C27 C26 1.304 . S
C27 C28 1.371 . S
C27 H36 0.930 . S
C28 C25 1.344 . S
C28 C27 1.371 . S
C28 H37 0.931 . S
C29 C25 1.328 . S
C29 C30 1.433 . S
C29 H38 0.931 . S
C30 C26 1.323 . S
C30 C29 1.433 . S
C30 H39 0.933 . S
C31 Dy1 2.738 . S
C31 O11 1.255 . S
C31 O12 1.249 . S
C31 C25 1.516 . S
H32 C18 0.930 . S
H33 C19 0.931 . S
H34 C20 0.931 . S
H35 C21 0.933 . S
H36 C27 0.930 . S
H37 C28 0.931 . S
H38 C29 0.931 . S
H39 C30 0.933 . S
Dy40 O43 2.307 . S
Dy40 O45 2.395 . S
Dy40 O46 2.379 . S
Dy40 O48 2.339 . S
Dy40 O50 2.298 . S
Dy40 O54 2.275 . S
Dy40 C62 2.738 . S
Dy41 O44 2.298 . S
Dy41 O47 2.275 . S
Dy41 O49 2.307 . S
Dy41 O51 2.395 . S
Dy41 O52 2.379 . S
Dy41 O55 2.339 . S
Dy41 C71 2.738 . S
C42 O54 1.254 . S
C42 O55 1.257 . S
O43 Dy40 2.307 . S
O43 C53 1.266 . S
O44 Dy41 2.298 . S
O44 C53 1.236 . S
O45 Dy40 2.395 . S
O45 C62 1.255 . S
O46 Dy40 2.379 . S
O46 C62 1.249 . S
O47 Dy41 2.275 . S
O47 C63 1.254 . S
O48 Dy40 2.339 . S
O48 C63 1.257 . S
O49 Dy41 2.307 . S
O49 C64 1.266 . S
O50 Dy40 2.298 . S
O50 C64 1.236 . S
O51 Dy41 2.395 . S
O51 C71 1.255 . S
O52 Dy41 2.379 . S
O52 C71 1.249 . S
C53 O43 1.266 . S
C53 O44 1.236 . S
O54 Dy40 2.275 . S
O54 C42 1.254 . S
O55 Dy41 2.339 . S
O55 C42 1.257 . S
C56 C59 1.344 . S
C56 C60 1.328 . S
C56 C62 1.516 . S
C57 C58 1.304 . S
C57 C61 1.323 . S
C58 C57 1.304 . S
C58 C59 1.371 . S
C58 H72 0.930 . S
C59 C56 1.344 . S
C59 C58 1.371 . S
C59 H73 0.931 . S
C60 C56 1.328 . S
C60 C61 1.433 . S
C60 H74 0.931 . S
C61 C57 1.323 . S
C61 C60 1.433 . S
C61 H75 0.933 . S
C62 Dy40 2.738 . S
C62 O45 1.255 . S
C62 O46 1.249 . S
C62 C56 1.516 . S
C63 O47 1.254 . S
C63 O48 1.257 . S
C64 O49 1.266 . S
C64 O50 1.236 . S
C65 C68 1.344 . S
C65 C69 1.328 . S
C65 C71 1.516 . S
C66 C67 1.304 . S
C66 C70 1.323 . S
C67 C66 1.304 . S
C67 C68 1.371 . S
C67 H76 0.930 . S
C68 C65 1.344 . S
C68 C67 1.371 . S
C68 H77 0.931 . S
C69 C65 1.328 . S
C69 C70 1.433 . S
C69 H78 0.931 . S
C70 C66 1.323 . S
C70 C69 1.433 . S
C70 H79 0.933 . S
C71 Dy41 2.738 . S
C71 O51 1.255 . S
C71 O52 1.249 . S
C71 C65 1.516 . S
H72 C58 0.930 . S
H73 C59 0.931 . S
H74 C60 0.931 . S
H75 C61 0.933 . S
H76 C67 0.930 . S
H77 C68 0.931 . S
H78 C69 0.931 . S
H79 C70 0.933 . S
Dy80 O83 2.307 . S
Dy80 O85 2.395 . S
Dy80 O86 2.379 . S
Dy80 O88 2.339 . S
Dy80 O90 2.298 . S
Dy80 O94 2.275 . S
Dy80 C102 2.738 . S
Dy81 O84 2.298 . S
Dy81 O87 2.275 . S
Dy81 O89 2.307 . S
Dy81 O91 2.395 . S
Dy81 O92 2.379 . S
Dy81 O95 2.339 . S
Dy81 C111 2.738 . S
C82 O94 1.254 . S
C82 O95 1.257 . S
O83 Dy80 2.307 . S
O83 C93 1.266 . S
O84 Dy81 2.298 . S
O84 C93 1.236 . S
O85 Dy80 2.395 . S
O85 C102 1.255 . S
O86 Dy80 2.379 . S
O86 C102 1.249 . S
O87 Dy81 2.275 . S
O87 C103 1.254 . S
O88 Dy80 2.339 . S
O88 C103 1.257 . S
O89 Dy81 2.307 . S
O89 C104 1.266 . S
O90 Dy80 2.298 . S
O90 C104 1.236 . S
O91 Dy81 2.395 . S
O91 C111 1.255 . S
O92 Dy81 2.379 . S
O92 C111 1.249 . S
C93 O83 1.266 . S
C93 O84 1.236 . S
O94 Dy80 2.275 . S
O94 C82 1.254 . S
O95 Dy81 2.339 . S
O95 C82 1.257 . S
C96 C99 1.344 . S
C96 C100 1.328 . S
C96 C102 1.516 . S
C97 C98 1.304 . S
C97 C101 1.323 . S
C98 C97 1.304 . S
C98 C99 1.371 . S
C98 H112 0.930 . S
C99 C96 1.344 . S
C99 C98 1.371 . S
C99 H113 0.931 . S
C100 C96 1.328 . S
C100 C101 1.433 . S
C100 H114 0.931 . S
C101 C97 1.323 . S
C101 C100 1.433 . S
C101 H115 0.933 . S
C102 Dy80 2.738 . S
C102 O85 1.255 . S
C102 O86 1.249 . S
C102 C96 1.516 . S
C103 O87 1.254 . S
C103 O88 1.257 . S
C104 O89 1.266 . S
C104 O90 1.236 . S
C105 C108 1.344 . S
C105 C109 1.328 . S
C105 C111 1.516 . S
C106 C107 1.304 . S
C106 C110 1.323 . S
C107 C106 1.304 . S
C107 C108 1.371 1_655 S
C107 H116 0.930 . S
C108 C105 1.344 . S
C108 C107 1.371 1_455 S
C108 H117 0.931 . S
C109 C105 1.328 . S
C109 C110 1.433 1_455 S
C109 H118 0.931 . S
C110 C106 1.323 . S
C110 C109 1.433 1_655 S
C110 H119 0.933 . S
C111 Dy81 2.738 . S
C111 O91 1.255 . S
C111 O92 1.249 . S
C111 C105 1.516 . S
H112 C98 0.930 . S
H113 C99 0.931 . S
H114 C100 0.931 . S
H115 C101 0.933 . S
H116 C107 0.930 . S
H117 C108 0.931 . S
H118 C109 0.931 . S
H119 C110 0.933 . S
Dy120 O123 2.307 . S
Dy120 O125 2.395 . S
Dy120 O126 2.379 . S
Dy120 O128 2.339 . S
Dy120 O130 2.298 . S
Dy120 O134 2.275 . S
Dy120 C142 2.738 . S
Dy121 O124 2.298 . S
Dy121 O127 2.275 . S
Dy121 O129 2.307 . S
Dy121 O131 2.395 . S
Dy121 O132 2.379 . S
Dy121 O135 2.339 . S
Dy121 C151 2.738 . S
C122 O134 1.254 . S
C122 O135 1.257 . S
O123 Dy120 2.307 . S
O123 C133 1.266 . S
O124 Dy121 2.298 . S
O124 C133 1.236 . S
O125 Dy120 2.395 . S
O125 C142 1.255 . S
O126 Dy120 2.379 . S
O126 C142 1.249 . S
O127 Dy121 2.275 . S
O127 C143 1.254 . S
O128 Dy120 2.339 . S
O128 C143 1.257 . S
O129 Dy121 2.307 . S
O129 C144 1.266 . S
O130 Dy120 2.298 . S
O130 C144 1.236 . S
O131 Dy121 2.395 . S
O131 C151 1.255 . S
O132 Dy121 2.379 . S
O132 C151 1.249 . S
C133 O123 1.266 . S
C133 O124 1.236 . S
O134 Dy120 2.275 . S
O134 C122 1.254 . S
O135 Dy121 2.339 . S
O135 C122 1.257 . S
C136 C139 1.344 . S
C136 C140 1.328 . S
C136 C142 1.516 . S
C137 C138 1.304 . S
C137 C141 1.323 . S
C138 C137 1.304 . S
C138 C139 1.371 . S
C138 H152 0.930 . S
C139 C136 1.344 . S
C139 C138 1.371 . S
C139 H153 0.931 . S
C140 C136 1.328 . S
C140 C141 1.433 . S
C140 H154 0.931 . S
C141 C137 1.323 . S
C141 C140 1.433 . S
C141 H155 0.933 . S
C142 Dy120 2.738 . S
C142 O125 1.255 . S
C142 O126 1.249 . S
C142 C136 1.516 . S
C143 O127 1.254 . S
C143 O128 1.257 . S
C144 O129 1.266 . S
C144 O130 1.236 . S
C145 C148 1.344 . S
C145 C149 1.328 . S
C145 C151 1.516 . S
C146 C147 1.304 . S
C146 C150 1.323 . S
C147 C146 1.304 . S
C147 C148 1.371 . S
C147 H156 0.930 . S
C148 C145 1.344 . S
C148 C147 1.371 . S
C148 H157 0.931 . S
C149 C145 1.328 . S
C149 C150 1.433 . S
C149 H158 0.931 . S
C150 C146 1.323 . S
C150 C149 1.433 . S
C150 H159 0.933 . S
C151 Dy121 2.738 . S
C151 O131 1.255 . S
C151 O132 1.249 . S
C151 C145 1.516 . S
H152 C138 0.930 . S
H153 C139 0.931 . S
H154 C140 0.931 . S
H155 C141 0.933 . S
H156 C147 0.930 . S
H157 C148 0.931 . S
H158 C149 0.931 . S
H159 C150 0.933 . S
Dy160 O163 2.307 . S
Dy160 O165 2.395 . S
Dy160 O166 2.379 . S
Dy160 O168 2.339 1_554 S
Dy160 O170 2.298 1_554 S
Dy160 O174 2.275 . S
Dy160 C182 2.738 . S
Dy161 O164 2.298 . S
Dy161 O167 2.275 . S
Dy161 O169 2.307 . S
Dy161 O171 2.395 . S
Dy161 O172 2.379 . S
Dy161 O175 2.339 . S
Dy161 C191 2.738 . S
C162 O174 1.254 . S
C162 O175 1.257 1_554 S
O163 Dy160 2.307 . S
O163 C173 1.266 1_554 S
O164 Dy161 2.298 . S
O164 C173 1.236 . S
O165 Dy160 2.395 . S
O165 C182 1.255 . S
O166 Dy160 2.379 . S
O166 C182 1.249 . S
O167 Dy161 2.275 . S
O167 C183 1.254 . S
O168 Dy160 2.339 1_556 S
O168 C183 1.257 . S
O169 Dy161 2.307 . S
O169 C184 1.266 . S
O170 Dy160 2.298 1_556 S
O170 C184 1.236 . S
O171 Dy161 2.395 . S
O171 C191 1.255 . S
O172 Dy161 2.379 . S
O172 C191 1.249 . S
C173 O163 1.266 1_556 S
C173 O164 1.236 . S
O174 Dy160 2.275 . S
O174 C162 1.254 . S
O175 Dy161 2.339 . S
O175 C162 1.257 1_556 S
C176 C179 1.344 . S
C176 C180 1.328 . S
C176 C182 1.516 . S
C177 C178 1.304 . S
C177 C181 1.323 . S
C178 C177 1.304 . S
C178 C179 1.371 . S
C178 H192 0.930 . S
C179 C176 1.344 . S
C179 C178 1.371 . S
C179 H193 0.931 . S
C180 C176 1.328 . S
C180 C181 1.433 . S
C180 H194 0.931 . S
C181 C177 1.323 . S
C181 C180 1.433 . S
C181 H195 0.933 . S
C182 Dy160 2.738 . S
C182 O165 1.255 . S
C182 O166 1.249 . S
C182 C176 1.516 . S
C183 O167 1.254 . S
C183 O168 1.257 . S
C184 O169 1.266 . S
C184 O170 1.236 . S
C185 C188 1.344 . S
C185 C189 1.328 . S
C185 C191 1.516 . S
C186 C187 1.304 . S
C186 C190 1.323 . S
C187 C186 1.304 . S
C187 C188 1.371 . S
C187 H196 0.930 . S
C188 C185 1.344 . S
C188 C187 1.371 . S
C188 H197 0.931 . S
C189 C185 1.328 . S
C189 C190 1.433 . S
C189 H198 0.931 . S
C190 C186 1.323 . S
C190 C189 1.433 . S
C190 H199 0.933 . S
C191 Dy161 2.738 . S
C191 O171 1.255 . S
C191 O172 1.249 . S
C191 C185 1.516 . S
H192 C178 0.930 . S
H193 C179 0.931 . S
H194 C180 0.931 . S
H195 C181 0.933 . S
H196 C187 0.930 . S
H197 C188 0.931 . S
H198 C189 0.931 . S
H199 C190 0.933 . S
Dy200 O203 2.307 . S
Dy200 O205 2.395 . S
Dy200 O206 2.379 . S
Dy200 O208 2.339 . S
Dy200 O210 2.298 . S
Dy200 O214 2.275 . S
Dy200 C222 2.738 . S
Dy201 O204 2.298 . S
Dy201 O207 2.275 . S
Dy201 O209 2.307 . S
Dy201 O211 2.395 . S
Dy201 O212 2.379 . S
Dy201 O215 2.339 . S
Dy201 C231 2.738 . S
C202 O214 1.254 . S
C202 O215 1.257 . S
O203 Dy200 2.307 . S
O203 C213 1.266 . S
O204 Dy201 2.298 . S
O204 C213 1.236 . S
O205 Dy200 2.395 . S
O205 C222 1.255 . S
O206 Dy200 2.379 . S
O206 C222 1.249 . S
O207 Dy201 2.275 . S
O207 C223 1.254 . S
O208 Dy200 2.339 . S
O208 C223 1.257 . S
O209 Dy201 2.307 . S
O209 C224 1.266 . S
O210 Dy200 2.298 . S
O210 C224 1.236 . S
O211 Dy201 2.395 . S
O211 C231 1.255 . S
O212 Dy201 2.379 . S
O212 C231 1.249 . S
C213 O203 1.266 . S
C213 O204 1.236 . S
O214 Dy200 2.275 . S
O214 C202 1.254 . S
O215 Dy201 2.339 . S
O215 C202 1.257 . S
C216 C219 1.344 . S
C216 C220 1.328 . S
C216 C222 1.516 . S
C217 C218 1.304 . S
C217 C221 1.323 . S
C218 C217 1.304 . S
C218 C219 1.371 . S
C218 H232 0.930 . S
C219 C216 1.344 . S
C219 C218 1.371 . S
C219 H233 0.931 . S
C220 C216 1.328 . S
C220 C221 1.433 . S
C220 H234 0.931 . S
C221 C217 1.323 . S
C221 C220 1.433 . S
C221 H235 0.933 . S
C222 Dy200 2.738 . S
C222 O205 1.255 . S
C222 O206 1.249 . S
C222 C216 1.516 . S
C223 O207 1.254 . S
C223 O208 1.257 . S
C224 O209 1.266 . S
C224 O210 1.236 . S
C225 C228 1.344 . S
C225 C229 1.328 . S
C225 C231 1.516 . S
C226 C227 1.304 . S
C226 C230 1.323 . S
C227 C226 1.304 . S
C227 C228 1.371 . S
C227 H236 0.930 . S
C228 C225 1.344 . S
C228 C227 1.371 . S
C228 H237 0.931 . S
C229 C225 1.328 . S
C229 C230 1.433 . S
C229 H238 0.931 . S
C230 C226 1.323 . S
C230 C229 1.433 . S
C230 H239 0.933 . S
C231 Dy201 2.738 . S
C231 O211 1.255 . S
C231 O212 1.249 . S
C231 C225 1.516 . S
H232 C218 0.930 . S
H233 C219 0.931 . S
H234 C220 0.931 . S
H235 C221 0.933 . S
H236 C227 0.930 . S
H237 C228 0.931 . S
H238 C229 0.931 . S
H239 C230 0.933 . S
Dy240 O243 2.307 . S
Dy240 O245 2.395 . S
Dy240 O246 2.379 . S
Dy240 O248 2.339 . S
Dy240 O250 2.298 . S
Dy240 O254 2.275 . S
Dy240 C262 2.738 . S
Dy241 O244 2.298 . S
Dy241 O247 2.275 . S
Dy241 O249 2.307 . S
Dy241 O251 2.395 . S
Dy241 O252 2.379 . S
Dy241 O255 2.339 . S
Dy241 C271 2.738 . S
C242 O254 1.254 . S
C242 O255 1.257 . S
O243 Dy240 2.307 . S
O243 C253 1.266 . S
O244 Dy241 2.298 . S
O244 C253 1.236 . S
O245 Dy240 2.395 . S
O245 C262 1.255 . S
O246 Dy240 2.379 . S
O246 C262 1.249 . S
O247 Dy241 2.275 . S
O247 C263 1.254 . S
O248 Dy240 2.339 . S
O248 C263 1.257 . S
O249 Dy241 2.307 . S
O249 C264 1.266 . S
O250 Dy240 2.298 . S
O250 C264 1.236 . S
O251 Dy241 2.395 . S
O251 C271 1.255 . S
O252 Dy241 2.379 . S
O252 C271 1.249 . S
C253 O243 1.266 . S
C253 O244 1.236 . S
O254 Dy240 2.275 . S
O254 C242 1.254 . S
O255 Dy241 2.339 . S
O255 C242 1.257 . S
C256 C259 1.344 . S
C256 C260 1.328 . S
C256 C262 1.516 . S
C257 C258 1.304 . S
C257 C261 1.323 . S
C258 C257 1.304 . S
C258 C259 1.371 1_455 S
C258 H272 0.930 . S
C259 C256 1.344 . S
C259 C258 1.371 1_655 S
C259 H273 0.931 . S
C260 C256 1.328 . S
C260 C261 1.433 1_655 S
C260 H274 0.931 . S
C261 C257 1.323 . S
C261 C260 1.433 1_455 S
C261 H275 0.933 . S
C262 Dy240 2.738 . S
C262 O245 1.255 . S
C262 O246 1.249 . S
C262 C256 1.516 . S
C263 O247 1.254 . S
C263 O248 1.257 . S
C264 O249 1.266 . S
C264 O250 1.236 . S
C265 C268 1.344 . S
C265 C269 1.328 . S
C265 C271 1.516 . S
C266 C267 1.304 . S
C266 C270 1.323 . S
C267 C266 1.304 . S
C267 C268 1.371 . S
C267 H276 0.930 . S
C268 C265 1.344 . S
C268 C267 1.371 . S
C268 H277 0.931 . S
C269 C265 1.328 . S
C269 C270 1.433 . S
C269 H278 0.931 . S
C270 C266 1.323 . S
C270 C269 1.433 . S
C270 H279 0.933 . S
C271 Dy241 2.738 . S
C271 O251 1.255 . S
C271 O252 1.249 . S
C271 C265 1.516 . S
H272 C258 0.930 . S
H273 C259 0.931 . S
H274 C260 0.931 . S
H275 C261 0.933 . S
H276 C267 0.930 . S
H277 C268 0.931 . S
H278 C269 0.931 . S
H279 C270 0.933 . S
Dy280 O283 2.307 . S
Dy280 O285 2.395 . S
Dy280 O286 2.379 . S
Dy280 O288 2.339 . S
Dy280 O290 2.298 . S
Dy280 O294 2.275 . S
Dy280 C302 2.738 . S
Dy281 O284 2.298 . S
Dy281 O287 2.275 . S
Dy281 O289 2.307 . S
Dy281 O291 2.395 . S
Dy281 O292 2.379 . S
Dy281 O295 2.339 . S
Dy281 C311 2.738 . S
C282 O294 1.254 . S
C282 O295 1.257 . S
O283 Dy280 2.307 . S
O283 C293 1.266 . S
O284 Dy281 2.298 . S
O284 C293 1.236 . S
O285 Dy280 2.395 . S
O285 C302 1.255 . S
O286 Dy280 2.379 . S
O286 C302 1.249 . S
O287 Dy281 2.275 . S
O287 C303 1.254 . S
O288 Dy280 2.339 . S
O288 C303 1.257 . S
O289 Dy281 2.307 . S
O289 C304 1.266 . S
O290 Dy280 2.298 . S
O290 C304 1.236 . S
O291 Dy281 2.395 . S
O291 C311 1.255 . S
O292 Dy281 2.379 . S
O292 C311 1.249 . S
C293 O283 1.266 . S
C293 O284 1.236 . S
O294 Dy280 2.275 . S
O294 C282 1.254 . S
O295 Dy281 2.339 . S
O295 C282 1.257 . S
C296 C299 1.344 . S
C296 C300 1.328 . S
C296 C302 1.516 . S
C297 C298 1.304 . S
C297 C301 1.323 . S
C298 C297 1.304 . S
C298 C299 1.371 . S
C298 H312 0.930 . S
C299 C296 1.344 . S
C299 C298 1.371 . S
C299 H313 0.931 . S
C300 C296 1.328 . S
C300 C301 1.433 . S
C300 H314 0.931 . S
C301 C297 1.323 . S
C301 C300 1.433 . S
C301 H315 0.933 . S
C302 Dy280 2.738 . S
C302 O285 1.255 . S
C302 O286 1.249 . S
C302 C296 1.516 . S
C303 O287 1.254 . S
C303 O288 1.257 . S
C304 O289 1.266 . S
C304 O290 1.236 . S
C305 C308 1.344 . S
C305 C309 1.328 . S
C305 C311 1.516 . S
C306 C307 1.304 . S
C306 C310 1.323 . S
C307 C306 1.304 . S
C307 C308 1.371 . S
C307 H316 0.930 . S
C308 C305 1.344 . S
C308 C307 1.371 . S
C308 H317 0.931 . S
C309 C305 1.328 . S
C309 C310 1.433 . S
C309 H318 0.931 . S
C310 C306 1.323 . S
C310 C309 1.433 . S
C310 H319 0.933 . S
C311 Dy281 2.738 . S
C311 O291 1.255 . S
C311 O292 1.249 . S
C311 C305 1.516 . S
H312 C298 0.930 . S
H313 C299 0.931 . S
H314 C300 0.931 . S
H315 C301 0.933 . S
H316 C307 0.930 . S
H317 C308 0.931 . S
H318 C309 0.931 . S
H319 C310 0.933 . S
Dy320 O323 2.307 . S
Dy320 O325 2.395 . S
Dy320 O326 2.379 . S
Dy320 O328 2.339 . S
Dy320 O330 2.298 . S
Dy320 O334 2.275 . S
Dy320 C342 2.738 . S
Dy321 O324 2.298 . S
Dy321 O327 2.275 . S
Dy321 O329 2.307 . S
Dy321 O331 2.395 . S
Dy321 O332 2.379 . S
Dy321 O335 2.339 . S
Dy321 C351 2.738 . S
C322 O334 1.254 . S
C322 O335 1.257 . S
O323 Dy320 2.307 . S
O323 C333 1.266 . S
O324 Dy321 2.298 . S
O324 C333 1.236 . S
O325 Dy320 2.395 . S
O325 C342 1.255 . S
O326 Dy320 2.379 . S
O326 C342 1.249 . S
O327 Dy321 2.275 . S
O327 C343 1.254 . S
O328 Dy320 2.339 . S
O328 C343 1.257 . S
O329 Dy321 2.307 . S
O329 C344 1.266 . S
O330 Dy320 2.298 . S
O330 C344 1.236 . S
O331 Dy321 2.395 . S
O331 C351 1.255 . S
O332 Dy321 2.379 . S
O332 C351 1.249 . S
C333 O323 1.266 . S
C333 O324 1.236 . S
O334 Dy320 2.275 . S
O334 C322 1.254 . S
O335 Dy321 2.339 . S
O335 C322 1.257 . S
C336 C339 1.344 . S
C336 C340 1.328 . S
C336 C342 1.516 . S
C337 C338 1.304 . S
C337 C341 1.323 . S
C338 C337 1.304 . S
C338 C339 1.371 . S
C338 H352 0.930 . S
C339 C336 1.344 . S
C339 C338 1.371 . S
C339 H353 0.931 . S
C340 C336 1.328 . S
C340 C341 1.433 . S
C340 H354 0.931 . S
C341 C337 1.323 . S
C341 C340 1.433 . S
C341 H355 0.933 . S
C342 Dy320 2.738 . S
C342 O325 1.255 . S
C342 O326 1.249 . S
C342 C336 1.516 . S
C343 O327 1.254 . S
C343 O328 1.257 . S
C344 O329 1.266 . S
C344 O330 1.236 . S
C345 C348 1.344 . S
C345 C349 1.328 . S
C345 C351 1.516 . S
C346 C347 1.304 . S
C346 C350 1.323 . S
C347 C346 1.304 . S
C347 C348 1.371 1_455 S
C347 H356 0.930 . S
C348 C345 1.344 . S
C348 C347 1.371 1_655 S
C348 H357 0.931 . S
C349 C345 1.328 . S
C349 C350 1.433 1_655 S
C349 H358 0.931 . S
C350 C346 1.323 . S
C350 C349 1.433 1_455 S
C350 H359 0.933 . S
C351 Dy321 2.738 . S
C351 O331 1.255 . S
C351 O332 1.249 . S
C351 C345 1.516 . S
H352 C338 0.930 . S
H353 C339 0.931 . S
H354 C340 0.931 . S
H355 C341 0.933 . S
H356 C347 0.930 . S
H357 C348 0.931 . S
H358 C349 0.931 . S
H359 C350 0.933 . S
Dy360 O363 2.307 . S
Dy360 O365 2.395 . S
Dy360 O366 2.379 . S
Dy360 O368 2.339 . S
Dy360 O370 2.298 . S
Dy360 O374 2.275 . S
Dy360 C382 2.738 . S
Dy361 O364 2.298 . S
Dy361 O367 2.275 . S
Dy361 O369 2.307 . S
Dy361 O371 2.395 . S
Dy361 O372 2.379 . S
Dy361 O375 2.339 . S
Dy361 C391 2.738 . S
C362 O374 1.254 . S
C362 O375 1.257 . S
O363 Dy360 2.307 . S
O363 C373 1.266 . S
O364 Dy361 2.298 . S
O364 C373 1.236 . S
O365 Dy360 2.395 . S
O365 C382 1.255 . S
O366 Dy360 2.379 . S
O366 C382 1.249 . S
O367 Dy361 2.275 . S
O367 C383 1.254 . S
O368 Dy360 2.339 . S
O368 C383 1.257 . S
O369 Dy361 2.307 . S
O369 C384 1.266 . S
O370 Dy360 2.298 . S
O370 C384 1.236 . S
O371 Dy361 2.395 . S
O371 C391 1.255 . S
O372 Dy361 2.379 . S
O372 C391 1.249 . S
C373 O363 1.266 . S
C373 O364 1.236 . S
O374 Dy360 2.275 . S
O374 C362 1.254 . S
O375 Dy361 2.339 . S
O375 C362 1.257 . S
C376 C379 1.344 . S
C376 C380 1.328 . S
C376 C382 1.516 . S
C377 C378 1.300 1_565 S
C377 C381 1.325 1_565 S
C378 C377 1.300 1_545 S
C378 C379 1.379 . S
C378 H392 0.927 1_545 S
C379 C376 1.344 . S
C379 C378 1.379 . S
C379 H393 0.931 . S
C380 C376 1.328 . S
C380 C381 1.430 . S
C380 H394 0.931 . S
C381 C377 1.325 1_545 S
C381 C380 1.430 . S
C381 H395 0.934 1_545 S
C382 Dy360 2.738 . S
C382 O365 1.255 . S
C382 O366 1.249 . S
C382 C376 1.516 . S
C383 O367 1.254 . S
C383 O368 1.257 . S
C384 O369 1.266 . S
C384 O370 1.236 . S
C385 C388 1.344 . S
C385 C389 1.328 . S
C385 C391 1.516 . S
C386 C387 1.304 . S
C386 C390 1.323 . S
C387 C386 1.304 . S
C387 C388 1.371 . S
C387 H396 0.930 . S
C388 C385 1.344 . S
C388 C387 1.371 . S
C388 H397 0.931 . S
C389 C385 1.328 . S
C389 C390 1.433 . S
C389 H398 0.931 . S
C390 C386 1.323 . S
C390 C389 1.433 . S
C390 H399 0.933 . S
C391 Dy361 2.738 . S
C391 O371 1.255 . S
C391 O372 1.249 . S
C391 C385 1.516 . S
H392 C378 0.927 1_565 S
H393 C379 0.931 . S
H394 C380 0.931 . S
H395 C381 0.934 1_565 S
H396 C387 0.930 . S
H397 C388 0.931 . S
H398 C389 0.931 . S
H399 C390 0.933 . S
Dy400 O403 2.307 . S
Dy400 O405 2.395 . S
Dy400 O406 2.379 . S
Dy400 O408 2.339 . S
Dy400 O410 2.298 . S
Dy400 O414 2.275 . S
Dy400 C422 2.738 . S
Dy401 O404 2.298 1_556 S
Dy401 O407 2.275 . S
Dy401 O409 2.307 . S
Dy401 O411 2.395 . S
Dy401 O412 2.379 . S
Dy401 O415 2.339 1_556 S
Dy401 C431 2.738 . S
C402 O414 1.254 . S
C402 O415 1.257 . S
O403 Dy400 2.307 . S
O403 C413 1.266 . S
O404 Dy401 2.298 1_554 S
O404 C413 1.236 . S
O405 Dy400 2.395 . S
O405 C422 1.255 . S
O406 Dy400 2.379 . S
O406 C422 1.249 . S
O407 Dy401 2.275 . S
O407 C423 1.254 . S
O408 Dy400 2.339 . S
O408 C423 1.257 1_554 S
O409 Dy401 2.307 . S
O409 C424 1.266 1_556 S
O410 Dy400 2.298 . S
O410 C424 1.236 . S
O411 Dy401 2.395 . S
O411 C431 1.255 . S
O412 Dy401 2.379 . S
O412 C431 1.249 . S
C413 O403 1.266 . S
C413 O404 1.236 . S
O414 Dy400 2.275 . S
O414 C402 1.254 . S
O415 Dy401 2.339 1_554 S
O415 C402 1.257 . S
C416 C419 1.344 . S
C416 C420 1.328 . S
C416 C422 1.516 . S
C417 C418 1.304 . S
C417 C421 1.323 . S
C418 C417 1.304 . S
C418 C419 1.371 . S
C418 H432 0.930 . S
C419 C416 1.344 . S
C419 C418 1.371 . S
C419 H433 0.931 . S
C420 C416 1.328 . S
C420 C421 1.433 . S
C420 H434 0.931 . S
C421 C417 1.323 . S
C421 C420 1.433 . S
C421 H435 0.933 . S
C422 Dy400 2.738 . S
C422 O405 1.255 . S
C422 O406 1.249 . S
C422 C416 1.516 . S
C423 O407 1.254 . S
C423 O408 1.257 1_556 S
C424 O409 1.266 1_554 S
C424 O410 1.236 . S
C425 C428 1.344 . S
C425 C429 1.328 . S
C425 C431 1.516 . S
C426 C427 1.304 . S
C426 C430 1.323 . S
C427 C426 1.304 . S
C427 C428 1.371 . S
C427 H436 0.930 . S
C428 C425 1.344 . S
C428 C427 1.371 . S
C428 H437 0.931 . S
C429 C425 1.328 . S
C429 C430 1.433 . S
C429 H438 0.931 . S
C430 C426 1.323 . S
C430 C429 1.433 . S
C430 H439 0.933 . S
C431 Dy401 2.738 . S
C431 O411 1.255 . S
C431 O412 1.249 . S
C431 C425 1.516 . S
H432 C418 0.930 . S
H433 C419 0.931 . S
H434 C420 0.931 . S
H435 C421 0.933 . S
H436 C427 0.930 . S
H437 C428 0.931 . S
H438 C429 0.931 . S
H439 C430 0.933 . S
Dy440 O443 2.307 . S
Dy440 O445 2.395 . S
Dy440 O446 2.379 . S
Dy440 O448 2.339 . S
Dy440 O450 2.298 . S
Dy440 O454 2.275 . S
Dy440 C462 2.738 . S
Dy441 O444 2.298 . S
Dy441 O447 2.275 . S
Dy441 O449 2.307 . S
Dy441 O451 2.395 . S
Dy441 O452 2.379 . S
Dy441 O455 2.339 . S
Dy441 C471 2.738 . S
C442 O454 1.254 . S
C442 O455 1.257 . S
O443 Dy440 2.307 . S
O443 C453 1.266 . S
O444 Dy441 2.298 . S
O444 C453 1.236 . S
O445 Dy440 2.395 . S
O445 C462 1.255 . S
O446 Dy440 2.379 . S
O446 C462 1.249 . S
O447 Dy441 2.275 . S
O447 C463 1.254 . S
O448 Dy440 2.339 . S
O448 C463 1.257 . S
O449 Dy441 2.307 . S
O449 C464 1.266 . S
O450 Dy440 2.298 . S
O450 C464 1.236 . S
O451 Dy441 2.395 . S
O451 C471 1.255 . S
O452 Dy441 2.379 . S
O452 C471 1.249 . S
C453 O443 1.266 . S
C453 O444 1.236 . S
O454 Dy440 2.275 . S
O454 C442 1.254 . S
O455 Dy441 2.339 . S
O455 C442 1.257 . S
C456 C459 1.344 . S
C456 C460 1.328 . S
C456 C462 1.516 . S
C457 C458 1.300 1_545 S
C457 C461 1.325 1_545 S
C458 C457 1.300 1_565 S
C458 C459 1.379 . S
C458 H472 0.927 1_565 S
C459 C456 1.344 . S
C459 C458 1.379 . S
C459 H473 0.931 . S
C460 C456 1.328 . S
C460 C461 1.430 . S
C460 H474 0.931 . S
C461 C457 1.325 1_565 S
C461 C460 1.430 . S
C461 H475 0.934 1_565 S
C462 Dy440 2.738 . S
C462 O445 1.255 . S
C462 O446 1.249 . S
C462 C456 1.516 . S
C463 O447 1.254 . S
C463 O448 1.257 . S
C464 O449 1.266 . S
C464 O450 1.236 . S
C465 C468 1.344 . S
C465 C469 1.328 . S
C465 C471 1.516 . S
C466 C467 1.304 . S
C466 C470 1.323 . S
C467 C466 1.304 . S
C467 C468 1.371 . S
C467 H476 0.930 . S
C468 C465 1.344 . S
C468 C467 1.371 . S
C468 H477 0.931 . S
C469 C465 1.328 . S
C469 C470 1.433 . S
C469 H478 0.931 . S
C470 C466 1.323 . S
C470 C469 1.433 . S
C470 H479 0.933 . S
C471 Dy441 2.738 . S
C471 O451 1.255 . S
C471 O452 1.249 . S
C471 C465 1.516 . S
H472 C458 0.927 1_545 S
H473 C459 0.931 . S
H474 C460 0.931 . S
H475 C461 0.934 1_545 S
H476 C467 0.930 . S
H477 C468 0.931 . S
H478 C469 0.931 . S
H479 C470 0.933 . S
Dy480 O483 2.307 . S
Dy480 O485 2.395 . S
Dy480 O486 2.379 . S
Dy480 O488 2.339 . S
Dy480 O490 2.298 . S
Dy480 O494 2.275 . S
Dy480 C502 2.738 . S
Dy481 O484 2.298 . S
Dy481 O487 2.275 . S
Dy481 O489 2.307 . S
Dy481 O491 2.395 . S
Dy481 O492 2.379 . S
Dy481 O495 2.339 . S
Dy481 C511 2.738 . S
C482 O494 1.254 . S
C482 O495 1.257 . S
O483 Dy480 2.307 . S
O483 C493 1.266 . S
O484 Dy481 2.298 . S
O484 C493 1.236 . S
O485 Dy480 2.395 . S
O485 C502 1.255 . S
O486 Dy480 2.379 . S
O486 C502 1.249 . S
O487 Dy481 2.275 . S
O487 C503 1.254 . S
O488 Dy480 2.339 . S
O488 C503 1.257 . S
O489 Dy481 2.307 . S
O489 C504 1.266 . S
O490 Dy480 2.298 . S
O490 C504 1.236 . S
O491 Dy481 2.395 . S
O491 C511 1.255 . S
O492 Dy481 2.379 . S
O492 C511 1.249 . S
C493 O483 1.266 . S
C493 O484 1.236 . S
O494 Dy480 2.275 . S
O494 C482 1.254 . S
O495 Dy481 2.339 . S
O495 C482 1.257 . S
C496 C499 1.344 . S
C496 C500 1.328 . S
C496 C502 1.516 . S
C497 C498 1.304 . S
C497 C501 1.323 . S
C498 C497 1.304 . S
C498 C499 1.371 1_655 S
C498 H512 0.930 . S
C499 C496 1.344 . S
C499 C498 1.371 1_455 S
C499 H513 0.931 . S
C500 C496 1.328 . S
C500 C501 1.433 1_455 S
C500 H514 0.931 . S
C501 C497 1.323 . S
C501 C500 1.433 1_655 S
C501 H515 0.933 . S
C502 Dy480 2.738 . S
C502 O485 1.255 . S
C502 O486 1.249 . S
C502 C496 1.516 . S
C503 O487 1.254 . S
C503 O488 1.257 . S
C504 O489 1.266 . S
C504 O490 1.236 . S
C505 C508 1.344 . S
C505 C509 1.328 . S
C505 C511 1.516 . S
C506 C507 1.304 . S
C506 C510 1.323 . S
C507 C506 1.304 . S
C507 C508 1.371 . S
C507 H516 0.930 . S
C508 C505 1.344 . S
C508 C507 1.371 . S
C508 H517 0.931 . S
C509 C505 1.328 . S
C509 C510 1.433 . S
C509 H518 0.931 . S
C510 C506 1.323 . S
C510 C509 1.433 . S
C510 H519 0.933 . S
C511 Dy481 2.738 . S
C511 O491 1.255 . S
C511 O492 1.249 . S
C511 C505 1.516 . S
H512 C498 0.930 . S
H513 C499 0.931 . S
H514 C500 0.931 . S
H515 C501 0.933 . S
H516 C507 0.930 . S
H517 C508 0.931 . S
H518 C509 0.931 . S
H519 C510 0.933 . S
Dy520 O523 2.307 . S
Dy520 O525 2.395 . S
Dy520 O526 2.379 . S
Dy520 O528 2.339 . S
Dy520 O530 2.298 . S
Dy520 O534 2.275 . S
Dy520 C542 2.738 . S
Dy521 O524 2.298 . S
Dy521 O527 2.275 . S
Dy521 O529 2.307 . S
Dy521 O531 2.395 . S
Dy521 O532 2.379 . S
Dy521 O535 2.339 . S
Dy521 C551 2.738 . S
C522 O534 1.254 . S
C522 O535 1.257 . S
O523 Dy520 2.307 . S
O523 C533 1.266 . S
O524 Dy521 2.298 . S
O524 C533 1.236 . S
O525 Dy520 2.395 . S
O525 C542 1.255 . S
O526 Dy520 2.379 . S
O526 C542 1.249 . S
O527 Dy521 2.275 . S
O527 C543 1.254 . S
O528 Dy520 2.339 . S
O528 C543 1.257 . S
O529 Dy521 2.307 . S
O529 C544 1.266 . S
O530 Dy520 2.298 . S
O530 C544 1.236 . S
O531 Dy521 2.395 . S
O531 C551 1.255 . S
O532 Dy521 2.379 . S
O532 C551 1.249 . S
C533 O523 1.266 . S
C533 O524 1.236 . S
O534 Dy520 2.275 . S
O534 C522 1.254 . S
O535 Dy521 2.339 . S
O535 C522 1.257 . S
C536 C539 1.344 . S
C536 C540 1.328 . S
C536 C542 1.516 . S
C537 C538 1.304 . S
C537 C541 1.323 . S
C538 C537 1.304 . S
C538 C539 1.371 . S
C538 H552 0.930 . S
C539 C536 1.344 . S
C539 C538 1.371 . S
C539 H553 0.931 . S
C540 C536 1.328 . S
C540 C541 1.433 . S
C540 H554 0.931 . S
C541 C537 1.323 . S
C541 C540 1.433 . S
C541 H555 0.933 . S
C542 Dy520 2.738 . S
C542 O525 1.255 . S
C542 O526 1.249 . S
C542 C536 1.516 . S
C543 O527 1.254 . S
C543 O528 1.257 . S
C544 O529 1.266 . S
C544 O530 1.236 . S
C545 C548 1.344 . S
C545 C549 1.328 . S
C545 C551 1.516 . S
C546 C547 1.300 1_545 S
C546 C550 1.325 1_545 S
C547 C546 1.300 1_565 S
C547 C548 1.379 . S
C547 H556 0.927 1_565 S
C548 C545 1.344 . S
C548 C547 1.379 . S
C548 H557 0.931 . S
C549 C545 1.328 . S
C549 C550 1.430 . S
C549 H558 0.931 . S
C550 C546 1.325 1_565 S
C550 C549 1.430 . S
C550 H559 0.934 1_565 S
C551 Dy521 2.738 . S
C551 O531 1.255 . S
C551 O532 1.249 . S
C551 C545 1.516 . S
H552 C538 0.930 . S
H553 C539 0.931 . S
H554 C540 0.931 . S
H555 C541 0.933 . S
H556 C547 0.927 1_545 S
H557 C548 0.931 . S
H558 C549 0.931 . S
H559 C550 0.934 1_545 S
Dy560 O563 2.307 . S
Dy560 O565 2.395 . S
Dy560 O566 2.379 . S
Dy560 O568 2.339 1_554 S
Dy560 O570 2.298 1_554 S
Dy560 O574 2.275 . S
Dy560 C582 2.738 . S
Dy561 O564 2.298 . S
Dy561 O567 2.275 . S
Dy561 O569 2.307 . S
Dy561 O571 2.395 . S
Dy561 O572 2.379 . S
Dy561 O575 2.339 . S
Dy561 C591 2.738 . S
C562 O574 1.254 . S
C562 O575 1.257 1_554 S
O563 Dy560 2.307 . S
O563 C573 1.266 1_554 S
O564 Dy561 2.298 . S
O564 C573 1.236 . S
O565 Dy560 2.395 . S
O565 C582 1.255 . S
O566 Dy560 2.379 . S
O566 C582 1.249 . S
O567 Dy561 2.275 . S
O567 C583 1.254 . S
O568 Dy560 2.339 1_556 S
O568 C583 1.257 . S
O569 Dy561 2.307 . S
O569 C584 1.266 . S
O570 Dy560 2.298 1_556 S
O570 C584 1.236 . S
O571 Dy561 2.395 . S
O571 C591 1.255 . S
O572 Dy561 2.379 . S
O572 C591 1.249 . S
C573 O563 1.266 1_556 S
C573 O564 1.236 . S
O574 Dy560 2.275 . S
O574 C562 1.254 . S
O575 Dy561 2.339 . S
O575 C562 1.257 1_556 S
C576 C579 1.344 . S
C576 C580 1.328 . S
C576 C582 1.516 . S
C577 C578 1.304 . S
C577 C581 1.323 . S
C578 C577 1.304 . S
C578 C579 1.371 . S
C578 H592 0.930 . S
C579 C576 1.344 . S
C579 C578 1.371 . S
C579 H593 0.931 . S
C580 C576 1.328 . S
C580 C581 1.433 . S
C580 H594 0.931 . S
C581 C577 1.323 . S
C581 C580 1.433 . S
C581 H595 0.933 . S
C582 Dy560 2.738 . S
C582 O565 1.255 . S
C582 O566 1.249 . S
C582 C576 1.516 . S
C583 O567 1.254 . S
C583 O568 1.257 . S
C584 O569 1.266 . S
C584 O570 1.236 . S
C585 C588 1.344 . S
C585 C589 1.328 . S
C585 C591 1.516 . S
C586 C587 1.304 . S
C586 C590 1.323 . S
C587 C586 1.304 . S
C587 C588 1.371 . S
C587 H596 0.930 . S
C588 C585 1.344 . S
C588 C587 1.371 . S
C588 H597 0.931 . S
C589 C585 1.328 . S
C589 C590 1.433 . S
C589 H598 0.931 . S
C590 C586 1.323 . S
C590 C589 1.433 . S
C590 H599 0.933 . S
C591 Dy561 2.738 . S
C591 O571 1.255 . S
C591 O572 1.249 . S
C591 C585 1.516 . S
H592 C578 0.930 . S
H593 C579 0.931 . S
H594 C580 0.931 . S
H595 C581 0.933 . S
H596 C587 0.930 . S
H597 C588 0.931 . S
H598 C589 0.931 . S
H599 C590 0.933 . S
Dy600 O603 2.307 . S
Dy600 O605 2.395 . S
Dy600 O606 2.379 . S
Dy600 O608 2.339 . S
Dy600 O610 2.298 . S
Dy600 O614 2.275 . S
Dy600 C622 2.738 . S
Dy601 O604 2.298 . S
Dy601 O607 2.275 . S
Dy601 O609 2.307 . S
Dy601 O611 2.395 . S
Dy601 O612 2.379 . S
Dy601 O615 2.339 . S
Dy601 C631 2.738 . S
C602 O614 1.254 . S
C602 O615 1.257 . S
O603 Dy600 2.307 . S
O603 C613 1.266 . S
O604 Dy601 2.298 . S
O604 C613 1.236 . S
O605 Dy600 2.395 . S
O605 C622 1.255 . S
O606 Dy600 2.379 . S
O606 C622 1.249 . S
O607 Dy601 2.275 . S
O607 C623 1.254 . S
O608 Dy600 2.339 . S
O608 C623 1.257 . S
O609 Dy601 2.307 . S
O609 C624 1.266 . S
O610 Dy600 2.298 . S
O610 C624 1.236 . S
O611 Dy601 2.395 . S
O611 C631 1.255 . S
O612 Dy601 2.379 . S
O612 C631 1.249 . S
C613 O603 1.266 . S
C613 O604 1.236 . S
O614 Dy600 2.275 . S
O614 C602 1.254 . S
O615 Dy601 2.339 . S
O615 C602 1.257 . S
C616 C619 1.344 . S
C616 C620 1.328 . S
C616 C622 1.516 . S
C617 C618 1.304 . S
C617 C621 1.323 . S
C618 C617 1.304 . S
C618 C619 1.371 . S
C618 H632 0.930 . S
C619 C616 1.344 . S
C619 C618 1.371 . S
C619 H633 0.931 . S
C620 C616 1.328 . S
C620 C621 1.433 . S
C620 H634 0.931 . S
C621 C617 1.323 . S
C621 C620 1.433 . S
C621 H635 0.933 . S
C622 Dy600 2.738 . S
C622 O605 1.255 . S
C622 O606 1.249 . S
C622 C616 1.516 . S
C623 O607 1.254 . S
C623 O608 1.257 . S
C624 O609 1.266 . S
C624 O610 1.236 . S
C625 C628 1.344 . S
C625 C629 1.328 . S
C625 C631 1.516 . S
C626 C627 1.300 1_565 S
C626 C630 1.325 1_565 S
C627 C626 1.300 1_545 S
C627 C628 1.379 . S
C627 H636 0.927 1_545 S
C628 C625 1.344 . S
C628 C627 1.379 . S
C628 H637 0.931 . S
C629 C625 1.328 . S
C629 C630 1.430 . S
C629 H638 0.931 . S
C630 C626 1.325 1_545 S
C630 C629 1.430 . S
C630 H639 0.934 1_545 S
C631 Dy601 2.738 . S
C631 O611 1.255 . S
C631 O612 1.249 . S
C631 C625 1.516 . S
H632 C618 0.930 . S
H633 C619 0.931 . S
H634 C620 0.931 . S
H635 C621 0.933 . S
H636 C627 0.927 1_565 S
H637 C628 0.931 . S
H638 C629 0.931 . S
H639 C630 0.934 1_565 S
C640 C641 1.369 . S
C640 C642 1.419 . S
C640 H644 0.930 . S
C641 C640 1.369 . S
C641 C650 1.429 . S
C642 C640 1.419 . S
C642 C643 1.363 . S
C642 H645 0.929 . S
C643 C642 1.363 . S
C643 C649 1.428 . S
H644 C640 0.930 . S
H645 C642 0.929 . S
S646 N647 1.613 . S
S646 N648 1.610 . S
N647 S646 1.613 . S
N647 C650 1.350 . S
N648 S646 1.610 . S
N648 C649 1.351 . S
C649 C643 1.428 . S
C649 N648 1.351 . S
C649 C650 1.434 . S
C650 C641 1.429 . S
C650 N647 1.350 . S
C650 C649 1.434 . S
C651 C652 1.369 . S
C651 C653 1.419 . S
C651 H655 0.930 . S
C652 C651 1.369 . S
C652 C661 1.429 . S
C653 C651 1.419 . S
C653 C654 1.363 . S
C653 H656 0.929 . S
C654 C653 1.363 . S
C654 C660 1.428 . S
H655 C651 0.930 . S
H656 C653 0.929 . S
S657 N658 1.613 . S
S657 N659 1.610 . S
N658 S657 1.613 . S
N658 C661 1.350 . S
N659 S657 1.610 . S
N659 C660 1.351 . S
C660 C654 1.428 . S
C660 N659 1.351 . S
C660 C661 1.434 . S
C661 C652 1.429 . S
C661 N658 1.350 . S
C661 C660 1.434 . S
C662 C663 1.369 . S
C662 C664 1.419 1_455 S
C662 H666 0.930 . S
C663 C662 1.369 . S
C663 C672 1.429 . S
C664 C662 1.419 1_655 S
C664 C665 1.363 . S
C664 H667 0.929 . S
C665 C664 1.363 . S
C665 C671 1.428 . S
H666 C662 0.930 . S
H667 C664 0.929 . S
S668 N669 1.613 . S
S668 N670 1.610 1_455 S
N669 S668 1.613 . S
N669 C672 1.350 . S
N670 S668 1.610 1_655 S
N670 C671 1.351 . S
C671 C665 1.428 . S
C671 N670 1.351 . S
C671 C672 1.434 1_655 S
C672 C663 1.429 . S
C672 N669 1.350 . S
C672 C671 1.434 1_455 S
C673 C674 1.369 . S
C673 C675 1.419 1_655 S
C673 H677 0.930 . S
C674 C673 1.369 . S
C674 C683 1.429 . S
C675 C673 1.419 1_455 S
C675 C676 1.363 . S
C675 H678 0.929 . S
C676 C675 1.363 . S
C676 C682 1.428 . S
H677 C673 0.930 . S
H678 C675 0.929 . S
S679 N680 1.613 1_455 S
S679 N681 1.610 . S
N680 S679 1.613 1_655 S
N680 C683 1.350 . S
N681 S679 1.610 . S
N681 C682 1.351 . S
C682 C676 1.428 . S
C682 N681 1.351 . S
C682 C683 1.434 1_455 S
C683 C674 1.429 . S
C683 N680 1.350 . S
C683 C682 1.434 1_655 S
C684 C685 1.369 . S
C684 C686 1.419 . S
C684 H688 0.930 . S
C685 C684 1.369 . S
C685 C694 1.429 . S
C686 C684 1.419 . S
C686 C687 1.363 . S
C686 H689 0.929 . S
C687 C686 1.363 . S
C687 C693 1.428 . S
H688 C684 0.930 . S
H689 C686 0.929 . S
S690 N691 1.613 . S
S690 N692 1.610 . S
N691 S690 1.613 . S
N691 C694 1.350 . S
N692 S690 1.610 . S
N692 C693 1.351 . S
C693 C687 1.428 . S
C693 N692 1.351 . S
C693 C694 1.434 . S
C694 C685 1.429 . S
C694 N691 1.350 . S
C694 C693 1.434 . S
C695 C696 1.369 . S
C695 C697 1.419 . S
C695 H699 0.930 . S
C696 C695 1.369 . S
C696 C705 1.429 . S
C697 C695 1.419 . S
C697 C698 1.363 . S
C697 H700 0.929 . S
C698 C697 1.363 . S
C698 C704 1.428 . S
H699 C695 0.930 . S
H700 C697 0.929 . S
S701 N702 1.613 . S
S701 N703 1.610 . S
N702 S701 1.613 . S
N702 C705 1.350 . S
N703 S701 1.610 . S
N703 C704 1.351 . S
C704 C698 1.428 . S
C704 N703 1.351 . S
C704 C705 1.434 . S
C705 C696 1.429 . S
C705 N702 1.350 . S
C705 C704 1.434 . S
C706 C707 1.369 . S
C706 C708 1.419 . S
C706 H710 0.930 . S
C707 C706 1.369 . S
C707 C716 1.429 1_655 S
C708 C706 1.419 . S
C708 C709 1.363 1_655 S
C708 H711 0.929 . S
C709 C708 1.363 1_455 S
C709 C715 1.428 . S
H710 C706 0.930 . S
H711 C708 0.929 . S
S712 N713 1.613 . S
S712 N714 1.610 . S
N713 S712 1.613 . S
N713 C716 1.350 . S
N714 S712 1.610 . S
N714 C715 1.351 . S
C715 C709 1.428 . S
C715 N714 1.351 . S
C715 C716 1.434 . S
C716 C707 1.429 1_455 S
C716 N713 1.350 . S
C716 C715 1.434 . S
C717 C718 1.361 1_655 S
C717 C719 1.426 . S
C717 H721 0.931 . S
C718 C717 1.361 1_455 S
C718 C727 1.429 . S
C719 C717 1.426 . S
C719 C720 1.363 . S
C719 H722 0.929 . S
C720 C719 1.363 . S
C720 C726 1.428 1_655 S
H721 C717 0.931 . S
H722 C719 0.929 . S
S723 N724 1.613 . S
S723 N725 1.610 . S
N724 S723 1.613 . S
N724 C727 1.350 . S
N725 S723 1.610 . S
N725 C726 1.351 . S
C726 C720 1.428 1_455 S
C726 N725 1.351 . S
C726 C727 1.434 . S
C727 C718 1.429 . S
C727 N724 1.350 . S
C727 C726 1.434 . S
C728 C729 1.369 . S
C728 C730 1.419 . S
C728 H732 0.930 . S
C729 C728 1.369 . S
C729 C738 1.429 . S
C730 C728 1.419 . S
C730 C731 1.363 . S
C730 H733 0.929 . S
C731 C730 1.363 . S
C731 C737 1.428 . S
H732 C728 0.930 . S
H733 C730 0.929 . S
S734 N735 1.613 . S
S734 N736 1.610 . S
N735 S734 1.613 . S
N735 C738 1.350 . S
N736 S734 1.610 . S
N736 C737 1.351 . S
C737 C731 1.428 . S
C737 N736 1.351 . S
C737 C738 1.434 . S
C738 C729 1.429 . S
C738 N735 1.350 . S
C738 C737 1.434 . S
C739 C740 1.369 . S
C739 C741 1.419 . S
C739 H743 0.930 . S
C740 C739 1.369 . S
C740 C749 1.429 . S
C741 C739 1.419 . S
C741 C742 1.363 . S
C741 H744 0.929 . S
C742 C741 1.363 . S
C742 C748 1.428 . S
H743 C739 0.930 . S
H744 C741 0.929 . S
S745 N746 1.613 . S
S745 N747 1.610 . S
N746 S745 1.613 . S
N746 C749 1.350 . S
N747 S745 1.610 . S
N747 C748 1.351 . S
C748 C742 1.428 . S
C748 N747 1.351 . S
C748 C749 1.434 . S
C749 C740 1.429 . S
C749 N746 1.350 . S
C749 C748 1.434 . S
C750 C751 1.369 . S
C750 C752 1.419 . S
C750 H754 0.930 . S
C751 C750 1.369 . S
C751 C760 1.429 . S
C752 C750 1.419 . S
C752 C753 1.363 . S
C752 H755 0.929 . S
C753 C752 1.363 . S
C753 C759 1.428 . S
H754 C750 0.930 . S
H755 C752 0.929 . S
S756 N757 1.613 . S
S756 N758 1.610 . S
N757 S756 1.613 . S
N757 C760 1.350 . S
N758 S756 1.610 . S
N758 C759 1.351 . S
C759 C753 1.428 . S
C759 N758 1.351 . S
C759 C760 1.434 . S
C760 C751 1.429 . S
C760 N757 1.350 . S
C760 C759 1.434 . S
C761 C762 1.369 . S
C761 C763 1.419 . S
C761 H765 0.930 . S
C762 C761 1.369 . S
C762 C771 1.429 . S
C763 C761 1.419 . S
C763 C764 1.363 . S
C763 H766 0.929 . S
C764 C763 1.363 . S
C764 C770 1.428 . S
H765 C761 0.930 . S
H766 C763 0.929 . S
S767 N768 1.613 . S
S767 N769 1.610 . S
N768 S767 1.613 . S
N768 C771 1.350 . S
N769 S767 1.610 . S
N769 C770 1.351 . S
C770 C764 1.428 . S
C770 N769 1.351 . S
C770 C771 1.434 . S
C771 C762 1.429 . S
C771 N768 1.350 . S
C771 C770 1.434 . S
C772 C773 1.369 . S
C772 C774 1.419 . S
C772 H776 0.930 . S
C773 C772 1.369 . S
C773 C782 1.429 . S
C774 C772 1.419 . S
C774 C775 1.363 . S
C774 H777 0.929 . S
C775 C774 1.363 . S
C775 C781 1.428 . S
H776 C772 0.930 . S
H777 C774 0.929 . S
S778 N779 1.613 . S
S778 N780 1.610 . S
N779 S778 1.613 . S
N779 C782 1.350 . S
N780 S778 1.610 . S
N780 C781 1.351 . S
C781 C775 1.428 . S
C781 N780 1.351 . S
C781 C782 1.434 . S
C782 C773 1.429 . S
C782 N779 1.350 . S
C782 C781 1.434 . S
C783 C784 1.369 . S
C783 C785 1.419 . S
C783 H787 0.930 . S
C784 C783 1.369 . S
C784 C793 1.429 . S
C785 C783 1.419 . S
C785 C786 1.363 . S
C785 H788 0.929 . S
C786 C785 1.363 . S
C786 C792 1.428 . S
H787 C783 0.930 . S
H788 C785 0.929 . S
S789 N790 1.613 . S
S789 N791 1.610 . S
N790 S789 1.613 . S
N790 C793 1.350 . S
N791 S789 1.610 . S
N791 C792 1.351 . S
C792 C786 1.428 . S
C792 N791 1.351 . S
C792 C793 1.434 . S
C793 C784 1.429 . S
C793 N790 1.350 . S
C793 C792 1.434 . S
C794 C795 1.369 . S
C794 C796 1.419 . S
C794 H798 0.930 . S
C795 C794 1.369 . S
C795 C804 1.429 . S
C796 C794 1.419 . S
C796 C797 1.363 . S
C796 H799 0.929 . S
C797 C796 1.363 . S
C797 C803 1.428 . S
H798 C794 0.930 . S
H799 C796 0.929 . S
S800 N801 1.613 . S
S800 N802 1.610 . S
N801 S800 1.613 . S
N801 C804 1.350 . S
N802 S800 1.610 . S
N802 C803 1.351 . S
C803 C797 1.428 . S
C803 N802 1.351 . S
C803 C804 1.434 . S
C804 C795 1.429 . S
C804 N801 1.350 . S
C804 C803 1.434 . S
C805 C806 1.369 . S
C805 C807 1.419 . S
C805 H809 0.930 . S
C806 C805 1.369 . S
C806 C815 1.429 . S
C807 C805 1.419 . S
C807 C808 1.363 . S
C807 H810 0.929 . S
C808 C807 1.363 . S
C808 C814 1.428 . S
H809 C805 0.930 . S
H810 C807 0.929 . S
S811 N812 1.613 . S
S811 N813 1.610 . S
N812 S811 1.613 . S
N812 C815 1.350 . S
N813 S811 1.610 . S
N813 C814 1.351 . S
C814 C808 1.428 . S
C814 N813 1.351 . S
C814 C815 1.434 . S
C815 C806 1.429 . S
C815 N812 1.350 . S
C815 C814 1.434 . S
C816 C817 1.369 . S
C816 C818 1.419 . S
C816 H820 0.930 . S
C817 C816 1.369 . S
C817 C826 1.429 . S
C818 C816 1.419 . S
C818 C819 1.363 . S
C818 H821 0.929 . S
C819 C818 1.363 . S
C819 C825 1.428 . S
H820 C816 0.930 . S
H821 C818 0.929 . S
S822 N823 1.613 . S
S822 N824 1.610 . S
N823 S822 1.613 . S
N823 C826 1.350 . S
N824 S822 1.610 . S
N824 C825 1.351 . S
C825 C819 1.428 . S
C825 N824 1.351 . S
C825 C826 1.434 . S
C826 C817 1.429 . S
C826 N823 1.350 . S
C826 C825 1.434 . S
C827 C828 1.369 . S
C827 C829 1.419 1_545 S
C827 H831 0.930 . S
C828 C827 1.369 . S
C828 C837 1.429 1_545 S
C829 C827 1.419 1_565 S
C829 C830 1.363 . S
C829 H832 0.929 . S
C830 C829 1.363 . S
C830 C836 1.428 . S
H831 C827 0.930 . S
H832 C829 0.929 . S
S833 N834 1.613 . S
S833 N835 1.610 . S
N834 S833 1.613 . S
N834 C837 1.350 . S
N835 S833 1.610 . S
N835 C836 1.351 . S
C836 C830 1.428 . S
C836 N835 1.351 . S
C836 C837 1.434 . S
C837 C828 1.429 1_565 S
C837 N834 1.350 . S
C837 C836 1.434 . S
C838 C839 1.369 . S
C838 C840 1.419 . S
C838 H842 0.930 . S
C839 C838 1.369 . S
C839 C848 1.429 . S
C840 C838 1.419 . S
C840 C841 1.363 . S
C840 H843 0.929 . S
C841 C840 1.363 . S
C841 C847 1.428 . S
H842 C838 0.930 . S
H843 C840 0.929 . S
S844 N845 1.613 . S
S844 N846 1.610 . S
N845 S844 1.613 . S
N845 C848 1.350 . S
N846 S844 1.610 . S
N846 C847 1.351 . S
C847 C841 1.428 . S
C847 N846 1.351 . S
C847 C848 1.434 . S
C848 C839 1.429 . S
C848 N845 1.350 . S
C848 C847 1.434 . S
C849 C850 1.369 1_545 S
C849 C851 1.419 . S
C849 H853 0.930 . S
C850 C849 1.369 1_565 S
C850 C859 1.429 . S
C851 C849 1.419 . S
C851 C852 1.363 . S
C851 H854 0.929 . S
C852 C851 1.363 . S
C852 C858 1.428 . S
H853 C849 0.930 . S
H854 C851 0.929 . S
S855 N856 1.613 . S
S855 N857 1.610 1_565 S
N856 S855 1.613 . S
N856 C859 1.350 . S
N857 S855 1.610 1_545 S
N857 C858 1.351 . S
C858 C852 1.428 . S
C858 N857 1.351 . S
C858 C859 1.434 1_545 S
C859 C850 1.429 . S
C859 N856 1.350 . S
C859 C858 1.434 1_565 S
C860 C861 1.369 . S
C860 C862 1.419 . S
C860 H864 0.930 . S
C861 C860 1.369 . S
C861 C870 1.429 . S
C862 C860 1.419 . S
C862 C863 1.363 . S
C862 H865 0.929 . S
C863 C862 1.363 . S
C863 C869 1.428 . S
H864 C860 0.930 . S
H865 C862 0.929 . S
S866 N867 1.613 . S
S866 N868 1.610 . S
N867 S866 1.613 . S
N867 C870 1.350 . S
N868 S866 1.610 . S
N868 C869 1.351 . S
C869 C863 1.428 . S
C869 N868 1.351 . S
C869 C870 1.434 . S
C870 C861 1.429 . S
C870 N867 1.350 . S
C870 C869 1.434 . S
C871 C872 1.369 . S
C871 C873 1.419 . S
C871 H875 0.930 . S
C872 C871 1.369 . S
C872 C881 1.429 . S
C873 C871 1.419 . S
C873 C874 1.363 1_545 S
C873 H876 0.929 . S
C874 C873 1.363 1_565 S
C874 C880 1.428 . S
H875 C871 0.930 . S
H876 C873 0.929 . S
S877 N878 1.613 1_565 S
S877 N879 1.610 . S
N878 S877 1.613 1_545 S
N878 C881 1.350 . S
N879 S877 1.610 . S
N879 C880 1.351 . S
C880 C874 1.428 . S
C880 N879 1.351 . S
C880 C881 1.434 1_565 S
C881 C872 1.429 . S
C881 N878 1.350 . S
C881 C880 1.434 1_545 S
C882 C883 1.369 . S
C882 C884 1.419 . S
C882 H886 0.930 . S
C883 C882 1.369 . S
C883 C892 1.429 . S
C884 C882 1.419 . S
C884 C885 1.363 . S
C884 H887 0.929 . S
C885 C884 1.363 . S
C885 C891 1.428 . S
H886 C882 0.930 . S
H887 C884 0.929 . S
S888 N889 1.613 . S
S888 N890 1.610 . S
N889 S888 1.613 . S
N889 C892 1.350 . S
N890 S888 1.610 . S
N890 C891 1.351 . S
C891 C885 1.428 . S
C891 N890 1.351 . S
C891 C892 1.434 . S
C892 C883 1.429 . S
C892 N889 1.350 . S
C892 C891 1.434 . S
C893 C894 1.369 . S
C893 C895 1.419 1_545 S
C893 H897 0.930 . S
C894 C893 1.369 . S
C894 C903 1.429 1_545 S
C895 C893 1.419 1_565 S
C895 C896 1.363 . S
C895 H898 0.929 . S
C896 C895 1.363 . S
C896 C902 1.428 . S
H897 C893 0.930 . S
H898 C895 0.929 . S
S899 N900 1.613 . S
S899 N901 1.610 . S
N900 S899 1.613 . S
N900 C903 1.350 . S
N901 S899 1.610 . S
N901 C902 1.351 . S
C902 C896 1.428 . S
C902 N901 1.351 . S
C902 C903 1.434 . S
C903 C894 1.429 1_565 S
C903 N900 1.350 . S
C903 C902 1.434 . S
C904 C905 1.369 . S
C904 C906 1.419 . S
C904 H908 0.930 . S
C905 C904 1.369 . S
C905 C914 1.429 . S
C906 C904 1.419 . S
C906 C907 1.363 . S
C906 H909 0.929 . S
C907 C906 1.363 . S
C907 C913 1.428 . S
H908 C904 0.930 . S
H909 C906 0.929 . S
S910 N911 1.613 . S
S910 N912 1.610 . S
N911 S910 1.613 . S
N911 C914 1.350 . S
N912 S910 1.610 . S
N912 C913 1.351 . S
C913 C907 1.428 . S
C913 N912 1.351 . S
C913 C914 1.434 . S
C914 C905 1.429 . S
C914 N911 1.350 . S
C914 C913 1.434 . S
C915 C916 1.369 . S
C915 C917 1.419 . S
C915 H919 0.930 . S
C916 C915 1.369 . S
C916 C925 1.429 . S
C917 C915 1.419 . S
C917 C918 1.363 . S
C917 H920 0.929 . S
C918 C917 1.363 . S
C918 C924 1.428 . S
H919 C915 0.930 . S
H920 C917 0.929 . S
S921 N922 1.613 . S
S921 N923 1.610 . S
N922 S921 1.613 . S
N922 C925 1.350 . S
N923 S921 1.610 . S
N923 C924 1.351 . S
C924 C918 1.428 . S
C924 N923 1.351 . S
C924 C925 1.434 . S
C925 C916 1.429 . S
C925 N922 1.350 . S
C925 C924 1.434 . S
C926 C927 1.369 . S
C926 C928 1.419 . S
C926 H930 0.930 . S
C927 C926 1.369 . S
C927 C936 1.429 . S
C928 C926 1.419 . S
C928 C929 1.363 . S
C928 H931 0.929 . S
C929 C928 1.363 . S
C929 C935 1.428 . S
H930 C926 0.930 . S
H931 C928 0.929 . S
S932 N933 1.613 1_455 S
S932 N934 1.610 . S
N933 S932 1.613 1_655 S
N933 C936 1.350 . S
N934 S932 1.610 . S
N934 C935 1.351 1_455 S
C935 C929 1.428 . S
C935 N934 1.351 1_655 S
C935 C936 1.434 . S
C936 C927 1.429 . S
C936 N933 1.350 . S
C936 C935 1.434 . S
C937 C938 1.369 . S
C937 C939 1.419 . S
C937 H941 0.930 . S
C938 C937 1.369 . S
C938 C947 1.429 . S
C939 C937 1.419 . S
C939 C940 1.363 . S
C939 H942 0.929 . S
C940 C939 1.363 . S
C940 C946 1.428 . S
H941 C937 0.930 . S
H942 C939 0.929 . S
S943 N944 1.613 . S
S943 N945 1.610 . S
N944 S943 1.613 . S
N944 C947 1.350 . S
N945 S943 1.610 . S
N945 C946 1.351 . S
C946 C940 1.428 . S
C946 N945 1.351 . S
C946 C947 1.434 . S
C947 C938 1.429 . S
C947 N944 1.350 . S
C947 C946 1.434 . S
C948 C949 1.369 . S
C948 C950 1.419 . S
C948 H952 0.930 . S
C949 C948 1.369 . S
C949 C958 1.429 . S
C950 C948 1.419 . S
C950 C951 1.363 . S
C950 H953 0.929 . S
C951 C950 1.363 . S
C951 C957 1.428 . S
H952 C948 0.930 . S
H953 C950 0.929 . S
S954 N955 1.613 . S
S954 N956 1.610 . S
N955 S954 1.613 . S
N955 C958 1.350 . S
N956 S954 1.610 . S
N956 C957 1.351 . S
C957 C951 1.428 . S
C957 N956 1.351 . S
C957 C958 1.434 . S
C958 C949 1.429 . S
C958 N955 1.350 . S
C958 C957 1.434 . S
C959 C960 1.369 . S
C959 C961 1.419 . S
C959 H963 0.930 . S
C960 C959 1.369 . S
C960 C969 1.429 . S
C961 C959 1.419 . S
C961 C962 1.363 . S
C961 H964 0.929 . S
C962 C961 1.363 . S
C962 C968 1.428 . S
H963 C959 0.930 . S
H964 C961 0.929 . S
S965 N966 1.613 . S
S965 N967 1.610 1_556 S
N966 S965 1.613 . S
N966 C969 1.350 . S
N967 S965 1.610 1_554 S
N967 C968 1.351 1_554 S
C968 C962 1.428 . S
C968 N967 1.351 1_556 S
C968 C969 1.434 . S
C969 C960 1.429 . S
C969 N966 1.350 . S
C969 C968 1.434 . S
C970 C971 1.369 . S
C970 C972 1.419 . S
C970 H974 0.930 . S
C971 C970 1.369 . S
C971 C980 1.429 . S
C972 C970 1.419 . S
C972 C973 1.363 . S
C972 H975 0.929 . S
C973 C972 1.363 . S
C973 C979 1.428 . S
H974 C970 0.930 . S
H975 C972 0.929 . S
S976 N977 1.613 . S
S976 N978 1.610 . S
N977 S976 1.613 . S
N977 C980 1.350 . S
N978 S976 1.610 . S
N978 C979 1.351 . S
C979 C973 1.428 . S
C979 N978 1.351 . S
C979 C980 1.434 . S
C980 C971 1.429 . S
C980 N977 1.350 . S
C980 C979 1.434 . S
C981 C982 1.369 . S
C981 C983 1.419 . S
C981 H985 0.930 . S
C982 C981 1.369 . S
C982 C991 1.429 . S
C983 C981 1.419 . S
C983 C984 1.363 . S
C983 H986 0.929 . S
C984 C983 1.363 . S
C984 C990 1.428 . S
H985 C981 0.930 . S
H986 C983 0.929 . S
S987 N988 1.613 . S
S987 N989 1.610 . S
N988 S987 1.613 . S
N988 C991 1.350 . S
N989 S987 1.610 . S
N989 C990 1.351 . S
C990 C984 1.428 . S
C990 N989 1.351 . S
C990 C991 1.434 . S
C991 C982 1.429 . S
C991 N988 1.350 . S
C991 C990 1.434 . S
C992 C993 1.369 . S
C992 C994 1.419 . S
C992 H996 0.930 . S
C993 C992 1.369 . S
C993 C1002 1.429 . S
C994 C992 1.419 . S
C994 C995 1.363 . S
C994 H997 0.929 . S
C995 C994 1.363 . S
C995 C1001 1.428 . S
H996 C992 0.930 . S
H997 C994 0.929 . S
S998 N999 1.613 . S
S998 N1000 1.610 . S
N999 S998 1.613 . S
N999 C1002 1.350 . S
N1000 S998 1.610 . S
N1000 C1001 1.351 . S
C1001 C995 1.428 . S
C1001 N1000 1.351 . S
C1001 C1002 1.434 . S
C1002 C993 1.429 . S
C1002 N999 1.350 . S
C1002 C1001 1.434 . S
C1003 C1004 1.369 . S
C1003 C1005 1.419 . S
C1003 H1007 0.930 . S
C1004 C1003 1.369 . S
C1004 C1013 1.429 . S
C1005 C1003 1.419 . S
C1005 C1006 1.363 . S
C1005 H1008 0.929 . S
C1006 C1005 1.363 . S
C1006 C1012 1.428 . S
H1007 C1003 0.930 . S
H1008 C1005 0.929 . S
S1009 N1010 1.613 . S
S1009 N1011 1.610 . S
N1010 S1009 1.613 . S
N1010 C1013 1.350 . S
N1011 S1009 1.610 . S
N1011 C1012 1.351 . S
C1012 C1006 1.428 . S
C1012 N1011 1.351 . S
C1012 C1013 1.434 . S
C1013 C1004 1.429 . S
C1013 N1010 1.350 . S
C1013 C1012 1.434 . S
C1014 C1015 1.369 . S
C1014 C1016 1.419 . S
C1014 H1018 0.930 . S
C1015 C1014 1.369 . S
C1015 C1024 1.429 . S
C1016 C1014 1.419 . S
C1016 C1017 1.363 . S
C1016 H1019 0.929 . S
C1017 C1016 1.363 . S
C1017 C1023 1.428 . S
H1018 C1014 0.930 . S
H1019 C1016 0.929 . S
S1020 N1021 1.613 . S
S1020 N1022 1.610 . S
N1021 S1020 1.613 . S
N1021 C1024 1.350 . S
N1022 S1020 1.610 . S
N1022 C1023 1.351 . S
C1023 C1017 1.428 . S
C1023 N1022 1.351 . S
C1023 C1024 1.434 . S
C1024 C1015 1.429 . S
C1024 N1021 1.350 . S
C1024 C1023 1.434 . S
C1025 C1026 1.369 . S
C1025 C1027 1.419 . S
C1025 H1029 0.930 . S
C1026 C1025 1.369 . S
C1026 C1035 1.429 . S
C1027 C1025 1.419 . S
C1027 C1028 1.363 . S
C1027 H1030 0.929 . S
C1028 C1027 1.363 . S
C1028 C1034 1.428 . S
H1029 C1025 0.930 . S
H1030 C1027 0.929 . S
S1031 N1032 1.613 . S
S1031 N1033 1.610 . S
N1032 S1031 1.613 . S
N1032 C1035 1.350 . S
N1033 S1031 1.610 . S
N1033 C1034 1.351 . S
C1034 C1028 1.428 . S
C1034 N1033 1.351 . S
C1034 C1035 1.434 . S
C1035 C1026 1.429 . S
C1035 N1032 1.350 . S
C1035 C1034 1.434 . S
C1036 C1037 1.369 . S
C1036 C1038 1.419 . S
C1036 H1040 0.930 1_655 S
C1037 C1036 1.369 . S
C1037 C1046 1.429 . S
C1038 C1036 1.419 . S
C1038 C1039 1.363 . S
C1038 H1041 0.929 . S
C1039 C1038 1.363 . S
C1039 C1045 1.428 . S
H1040 C1036 0.930 1_455 S
H1041 C1038 0.929 . S
S1042 N1043 1.613 . S
S1042 N1044 1.610 . S
N1043 S1042 1.613 . S
N1043 C1046 1.350 . S
N1044 S1042 1.610 . S
N1044 C1045 1.351 . S
C1045 C1039 1.428 . S
C1045 N1044 1.351 . S
C1045 C1046 1.434 . S
C1046 C1037 1.429 . S
C1046 N1043 1.350 . S
C1046 C1045 1.434 . S
C1047 C1048 1.369 . S
C1047 C1049 1.419 . S
C1047 H1051 0.930 . S
C1048 C1047 1.369 . S
C1048 C1057 1.429 . S
C1049 C1047 1.419 . S
C1049 C1050 1.363 . S
C1049 H1052 0.929 . S
C1050 C1049 1.363 . S
C1050 C1056 1.428 . S
H1051 C1047 0.930 . S
H1052 C1049 0.929 . S
S1053 N1054 1.613 . S
S1053 N1055 1.610 . S
N1054 S1053 1.613 . S
N1054 C1057 1.350 . S
N1055 S1053 1.610 . S
N1055 C1056 1.351 . S
C1056 C1050 1.428 . S
C1056 N1055 1.351 . S
C1056 C1057 1.434 . S
C1057 C1048 1.429 . S
C1057 N1054 1.350 . S
C1057 C1056 1.434 . S
C1058 C1059 1.369 . S
C1058 C1060 1.419 . S
C1058 H1062 0.930 . S
C1059 C1058 1.369 . S
C1059 C1068 1.429 . S
C1060 C1058 1.419 . S
C1060 C1061 1.363 . S
C1060 H1063 0.929 . S
C1061 C1060 1.363 . S
C1061 C1067 1.428 . S
H1062 C1058 0.930 . S
H1063 C1060 0.929 . S
S1064 N1065 1.613 . S
S1064 N1066 1.610 . S
N1065 S1064 1.613 . S
N1065 C1068 1.350 . S
N1066 S1064 1.610 . S
N1066 C1067 1.351 . S
C1067 C1061 1.428 . S
C1067 N1066 1.351 . S
C1067 C1068 1.434 . S
C1068 C1059 1.429 . S
C1068 N1065 1.350 . S
C1068 C1067 1.434 . S
C1069 C1070 1.369 . S
C1069 C1071 1.419 . S
C1069 H1073 0.930 . S
C1070 C1069 1.369 . S
C1070 C1079 1.429 . S
C1071 C1069 1.419 . S
C1071 C1072 1.363 . S
C1071 H1074 0.929 . S
C1072 C1071 1.363 . S
C1072 C1078 1.428 . S
H1073 C1069 0.930 . S
H1074 C1071 0.929 . S
S1075 N1076 1.613 . S
S1075 N1077 1.610 . S
N1076 S1075 1.613 . S
N1076 C1079 1.350 . S
N1077 S1075 1.610 . S
N1077 C1078 1.351 . S
C1078 C1072 1.428 . S
C1078 N1077 1.351 . S
C1078 C1079 1.434 . S
C1079 C1070 1.429 . S
C1079 N1076 1.350 . S
C1079 C1078 1.434 . S
C1080 C1081 1.369 . S
C1080 C1082 1.419 . S
C1080 H1084 0.930 . S
C1081 C1080 1.369 . S
C1081 C1090 1.429 . S
C1082 C1080 1.419 . S
C1082 C1083 1.363 . S
C1082 H1085 0.929 . S
C1083 C1082 1.363 . S
C1083 C1089 1.428 . S
H1084 C1080 0.930 . S
H1085 C1082 0.929 . S
S1086 N1087 1.613 . S
S1086 N1088 1.610 . S
N1087 S1086 1.613 . S
N1087 C1090 1.350 . S
N1088 S1086 1.610 . S
N1088 C1089 1.351 . S
C1089 C1083 1.428 . S
C1089 N1088 1.351 . S
C1089 C1090 1.434 . S
C1090 C1081 1.429 . S
C1090 N1087 1.350 . S
C1090 C1089 1.434 . S
C1091 C1092 1.369 . S
C1091 C1093 1.419 . S
C1091 H1095 0.930 . S
C1092 C1091 1.369 . S
C1092 C1101 1.429 . S
C1093 C1091 1.419 . S
C1093 C1094 1.363 . S
C1093 H1096 0.929 . S
C1094 C1093 1.363 . S
C1094 C1100 1.428 . S
H1095 C1091 0.930 . S
H1096 C1093 0.929 . S
S1097 N1098 1.613 . S
S1097 N1099 1.610 . S
N1098 S1097 1.613 . S
N1098 C1101 1.350 . S
N1099 S1097 1.610 . S
N1099 C1100 1.351 . S
C1100 C1094 1.428 . S
C1100 N1099 1.351 . S
C1100 C1101 1.434 . S
C1101 C1092 1.429 . S
C1101 N1098 1.350 . S
C1101 C1100 1.434 . S
C1102 C1103 1.369 . S
C1102 C1104 1.419 . S
C1102 H1106 0.930 . S
C1103 C1102 1.369 . S
C1103 C1112 1.429 . S
C1104 C1102 1.419 . S
C1104 C1105 1.363 . S
C1104 H1107 0.929 . S
C1105 C1104 1.363 . S
C1105 C1111 1.428 . S
H1106 C1102 0.930 . S
H1107 C1104 0.929 . S
S1108 N1109 1.613 . S
S1108 N1110 1.610 . S
N1109 S1108 1.613 . S
N1109 C1112 1.350 . S
N1110 S1108 1.610 . S
N1110 C1111 1.351 . S
C1111 C1105 1.428 . S
C1111 N1110 1.351 . S
C1111 C1112 1.434 . S
C1112 C1103 1.429 . S
C1112 N1109 1.350 . S
C1112 C1111 1.434 . S
C1113 C1114 1.369 . S
C1113 C1115 1.419 1_455 S
C1113 H1117 0.930 . S
C1114 C1113 1.369 . S
C1114 C1123 1.429 1_554 S
C1115 C1113 1.419 1_655 S
C1115 C1116 1.363 1_554 S
C1115 H1118 0.929 . S
C1116 C1115 1.363 1_556 S
C1116 C1122 1.428 . S
H1117 C1113 0.930 . S
H1118 C1115 0.929 . S
S1119 N1120 1.613 . S
S1119 N1121 1.610 1_455 S
N1120 S1119 1.613 . S
N1120 C1123 1.350 . S
N1121 S1119 1.610 1_655 S
N1121 C1122 1.351 . S
C1122 C1116 1.428 . S
C1122 N1121 1.351 . S
C1122 C1123 1.434 1_655 S
C1123 C1114 1.429 1_556 S
C1123 N1120 1.350 . S
C1123 C1122 1.434 1_455 S
C1124 C1125 1.369 . S
C1124 C1126 1.419 . S
C1124 H1128 0.930 . S
C1125 C1124 1.369 . S
C1125 C1134 1.429 . S
C1126 C1124 1.419 . S
C1126 C1127 1.363 . S
C1126 H1129 0.929 . S
C1127 C1126 1.363 . S
C1127 C1133 1.428 . S
H1128 C1124 0.930 . S
H1129 C1126 0.929 . S
S1130 N1131 1.613 . S
S1130 N1132 1.610 . S
N1131 S1130 1.613 . S
N1131 C1134 1.350 . S
N1132 S1130 1.610 . S
N1132 C1133 1.351 . S
C1133 C1127 1.428 . S
C1133 N1132 1.351 . S
C1133 C1134 1.434 . S
C1134 C1125 1.429 . S
C1134 N1131 1.350 . S
C1134 C1133 1.434 . S
C1135 C1136 1.369 . S
C1135 C1137 1.419 . S
C1135 H1139 0.930 . S
C1136 C1135 1.369 . S
C1136 C1145 1.429 . S
C1137 C1135 1.419 . S
C1137 C1138 1.363 . S
C1137 H1140 0.929 . S
C1138 C1137 1.363 . S
C1138 C1144 1.428 . S
H1139 C1135 0.930 . S
H1140 C1137 0.929 . S
S1141 N1142 1.613 . S
S1141 N1143 1.610 . S
N1142 S1141 1.613 . S
N1142 C1145 1.350 . S
N1143 S1141 1.610 . S
N1143 C1144 1.351 . S
C1144 C1138 1.428 . S
C1144 N1143 1.351 . S
C1144 C1145 1.434 . S
C1145 C1136 1.429 . S
C1145 N1142 1.350 . S
C1145 C1144 1.434 . S
C1146 C1147 1.369 1_655 S
C1146 C1148 1.413 1_565 S
C1146 H1150 0.930 . S
C1147 C1146 1.369 1_455 S
C1147 C1156 1.440 1_556 S
C1148 C1146 1.413 1_545 S
C1148 C1149 1.369 1_556 S
C1148 H1151 0.929 . S
C1149 C1148 1.369 1_554 S
C1149 C1155 1.428 1_655 S
H1150 C1146 0.930 . S
H1151 C1148 0.929 . S
S1152 N1153 1.613 1_545 S
S1152 N1154 1.610 . S
N1153 S1152 1.613 1_565 S
N1153 C1156 1.351 . S
N1154 S1152 1.610 . S
N1154 C1155 1.351 . S
C1155 C1149 1.428 1_455 S
C1155 N1154 1.351 . S
C1155 C1156 1.423 1_545 S
C1156 C1147 1.440 1_554 S
C1156 N1153 1.351 . S
C1156 C1155 1.423 1_565 S
C1157 C1158 1.369 . S
C1157 C1159 1.419 . S
C1157 H1161 0.930 . S
C1158 C1157 1.369 . S
C1158 C1167 1.429 1_565 S
C1159 C1157 1.419 . S
C1159 C1160 1.363 1_565 S
C1159 H1162 0.929 . S
C1160 C1159 1.363 1_545 S
C1160 C1166 1.428 . S
H1161 C1157 0.930 . S
H1162 C1159 0.929 . S
S1163 N1164 1.613 . S
S1163 N1165 1.610 . S
N1164 S1163 1.613 . S
N1164 C1167 1.350 . S
N1165 S1163 1.610 . S
N1165 C1166 1.351 . S
C1166 C1160 1.428 . S
C1166 N1165 1.351 . S
C1166 C1167 1.434 . S
C1167 C1158 1.429 1_545 S
C1167 N1164 1.350 . S
C1167 C1166 1.434 . S
C641 C13 3.345 . S
C643 C413 3.341 . S
C652 C53 3.343 . S
C654 C453 3.342 . S
C663 C93 3.342 . S
C665 C333 3.344 . S
C674 C133 3.342 . S
C676 C373 3.344 . S
C685 C184 3.344 . S
C687 C584 3.341 . S
C696 C224 3.341 . S
C698 C624 3.344 . S
C707 C264 3.343 . S
C709 C504 3.341 . S
C718 C304 3.344 . S
C720 C544 3.341 . S
C729 C362 3.800 . S
C731 C24 3.679 1_556 S
C740 C402 3.802 . S
C742 C64 3.682 . S
C751 C442 3.802 . S
C753 C104 3.682 . S
C762 C322 3.800 . S
C764 C144 3.680 . S
C773 C173 3.680 1_554 S
C775 C543 3.801 . S
C784 C583 3.800 . S
C786 C213 3.679 . S
C795 C623 3.802 . S
C797 C253 3.682 . S
C806 C503 3.801 . S
C808 C293 3.682 . S
C817 C42 3.800 . S
C819 C344 3.679 . S
C828 C384 3.683 . S
C830 C82 3.802 . S
C839 C424 3.683 1_556 S
C841 C122 3.802 . S
C850 C464 3.679 . S
C852 C2 3.801 . S
C861 C493 3.683 . S
C863 C223 3.802 . S
C872 C263 3.801 . S
C874 C533 3.680 . S
C883 C303 3.802 . S
C885 C573 3.682 1_554 S
C894 C613 3.682 . S
C896 C183 3.802 . S
C905 C26 0.697 . S
C907 C602 0.695 . S
C916 C66 0.704 . S
C918 C162 0.688 . S
C927 C522 0.698 . S
C929 C106 0.701 . S
C938 C242 0.693 . S
C940 C146 0.707 . S
C949 C177 0.699 . S
C951 C463 0.691 . S
C960 C217 0.722 . S
C962 C23 0.674 . S
C971 C383 0.670 . S
C973 C257 0.721 . S
C982 C103 0.697 . S
C984 C297 0.704 . S
C993 C346 0.696 . S
C995 C282 0.695 . S
C1004 C386 0.698 . S
C1006 C482 0.693 . S
C1015 C202 0.676 . S
C1017 C426 0.717 . S
C1026 C562 0.680 . S
C1028 C466 0.718 . S
C1037 C497 0.727 . S
C1039 C143 0.677 . S
C1048 C537 0.697 . S
C1050 C343 0.695 . S
C1059 C577 0.703 . S
C1061 C63 0.687 . S
C1070 C423 0.697 . S
C1072 C617 0.700 . S
C1081 C17 2.030 . S
C1083 C506 2.028 . S
C1092 C57 2.026 . S
C1094 C226 2.031 . S
C1103 C97 2.024 . S
C1105 C586 2.033 . S
C1114 C306 2.034 . S
C1116 C137 2.025 . S
C1125 C186 2.034 . S
C1127 C337 2.025 . S
C1136 C417 2.029 . S
C1138 C266 2.028 . S
C1147 C377 2.031 . S
C1149 C546 2.027 . S
C1158 C626 2.024 . S
C1160 C457 2.032 . S
