# Generated by pormake.
# Topology wjd, (6)-cn, num edge types: 1
# Building blocks:
#     Node 0, Type 0, BuildingBlock: BETFEN_clean_sbu_0, # of connection points: 6
#     Node 1, Type 0, BuildingBlock: BETFEN_clean_sbu_0, # of connection points: 6
#     Node 2, Type 0, BuildingBlock: BETFEN_clean_sbu_0, # of connection points: 6
#     Node 3, Type 0, BuildingBlock: BETFEN_clean_sbu_0, # of connection points: 6
#     Node 4, Type 0, BuildingBlock: BETFEN_clean_sbu_0, # of connection points: 6
#     Node 5, Type 0, BuildingBlock: BETFEN_clean_sbu_0, # of connection points: 6
#     Node 6, Type 0, BuildingBlock: BETFEN_clean_sbu_0, # of connection points: 6
#     Node 7, Type 0, BuildingBlock: BETFEN_clean_sbu_0, # of connection points: 6
#     Node 8, Type 0, BuildingBlock: BETFEN_clean_sbu_0, # of connection points: 6
#     Node 9, Type 0, BuildingBlock: BETFEN_clean_sbu_0, # of connection points: 6
#     Node 10, Type 0, BuildingBlock: BETFEN_clean_sbu_0, # of connection points: 6
#     Node 11, Type 0, BuildingBlock: BETFEN_clean_sbu_0, # of connection points: 6
#     Edge 12, Type (0, 0), BuildingBlock: AJUNOK_clean_linker_0, # of connection points: 2
#     Edge 13, Type (0, 0), BuildingBlock: AJUNOK_clean_linker_0, # of connection points: 2
#     Edge 14, Type (0, 0), BuildingBlock: AJUNOK_clean_linker_0, # of connection points: 2
#     Edge 15, Type (0, 0), BuildingBlock: AJUNOK_clean_linker_0, # of connection points: 2
#     Edge 16, Type (0, 0), BuildingBlock: AJUNOK_clean_linker_0, # of connection points: 2
#     Edge 17, Type (0, 0), BuildingBlock: AJUNOK_clean_linker_0, # of connection points: 2
#     Edge 18, Type (0, 0), BuildingBlock: AJUNOK_clean_linker_0, # of connection points: 2
#     Edge 19, Type (0, 0), BuildingBlock: AJUNOK_clean_linker_0, # of connection points: 2
#     Edge 20, Type (0, 0), BuildingBlock: AJUNOK_clean_linker_0, # of connection points: 2
#     Edge 21, Type (0, 0), BuildingBlock: AJUNOK_clean_linker_0, # of connection points: 2
#     Edge 22, Type (0, 0), BuildingBlock: AJUNOK_clean_linker_0, # of connection points: 2
#     Edge 23, Type (0, 0), BuildingBlock: AJUNOK_clean_linker_0, # of connection points: 2
#     Edge 24, Type (0, 0), BuildingBlock: AJUNOK_clean_linker_0, # of connection points: 2
#     Edge 25, Type (0, 0), BuildingBlock: AJUNOK_clean_linker_0, # of connection points: 2
#     Edge 26, Type (0, 0), BuildingBlock: AJUNOK_clean_linker_0, # of connection points: 2
#     Edge 27, Type (0, 0), BuildingBlock: AJUNOK_clean_linker_0, # of connection points: 2
#     Edge 28, Type (0, 0), BuildingBlock: AJUNOK_clean_linker_0, # of connection points: 2
#     Edge 29, Type (0, 0), BuildingBlock: AJUNOK_clean_linker_0, # of connection points: 2
#     Edge 30, Type (0, 0), BuildingBlock: AJUNOK_clean_linker_0, # of connection points: 2
#     Edge 31, Type (0, 0), BuildingBlock: AJUNOK_clean_linker_0, # of connection points: 2
#     Edge 32, Type (0, 0), BuildingBlock: AJUNOK_clean_linker_0, # of connection points: 2
#     Edge 33, Type (0, 0), BuildingBlock: AJUNOK_clean_linker_0, # of connection points: 2
#     Edge 34, Type (0, 0), BuildingBlock: AJUNOK_clean_linker_0, # of connection points: 2
#     Edge 35, Type (0, 0), BuildingBlock: AJUNOK_clean_linker_0, # of connection points: 2
#     Edge 36, Type (0, 0), BuildingBlock: AJUNOK_clean_linker_0, # of connection points: 2
#     Edge 37, Type (0, 0), BuildingBlock: AJUNOK_clean_linker_0, # of connection points: 2
#     Edge 38, Type (0, 0), BuildingBlock: AJUNOK_clean_linker_0, # of connection points: 2
#     Edge 39, Type (0, 0), BuildingBlock: AJUNOK_clean_linker_0, # of connection points: 2
#     Edge 40, Type (0, 0), BuildingBlock: AJUNOK_clean_linker_0, # of connection points: 2
#     Edge 41, Type (0, 0), BuildingBlock: AJUNOK_clean_linker_0, # of connection points: 2
#     Edge 42, Type (0, 0), BuildingBlock: AJUNOK_clean_linker_0, # of connection points: 2
#     Edge 43, Type (0, 0), BuildingBlock: AJUNOK_clean_linker_0, # of connection points: 2
#     Edge 44, Type (0, 0), BuildingBlock: AJUNOK_clean_linker_0, # of connection points: 2
#     Edge 45, Type (0, 0), BuildingBlock: AJUNOK_clean_linker_0, # of connection points: 2
#     Edge 46, Type (0, 0), BuildingBlock: AJUNOK_clean_linker_0, # of connection points: 2
#     Edge 47, Type (0, 0), BuildingBlock: AJUNOK_clean_linker_0, # of connection points: 2
# Relax obj value: 0.115
# Max RMSD: 0.241
# Mean RMSD: 0.241
data_MOF--net-wjd--node1-BETFEN_clean_sbu_0--edge1-AJUNOK_clean_linker_0
_symmetry_space_group_name_H-M    P1
_symmetry_Int_Tables_number       1
_symmetry_cell_setting            triclinic
loop_
_symmetry_equiv_pos_as_xyz
'x, y, z'
_cell_length_a     32.346165
_cell_length_b     32.315193
_cell_length_c     37.613006
_cell_angle_alpha  90.098445
_cell_angle_beta   90.020692
_cell_angle_gamma 120.25196
loop_
_atom_site_label
_atom_site_type_symbol
_atom_site_fract_x
_atom_site_fract_y
_atom_site_fract_z
_atom_type_partial_charge
Pr0 Pr 0.3992 0.19248 0.12247 0.0
Pr1 Pr 0.34853 0.09827 0.1541 0.0
C2 C 0.45817 0.28192 0.09713 0.0
C3 C 0.48972 0.33201 0.10871 0.0
C4 C 0.50425 0.36909 0.08386 0.0
C5 C 0.53842 0.41626 0.09297 0.0
C6 C 0.55871 0.42735 0.12723 0.0
C7 C 0.54277 0.39025 0.15247 0.0
C8 C 0.50856 0.34303 0.14332 0.0
C9 C 0.34976 0.11514 0.07404 0.0
C10 C 0.46156 0.14035 0.1411 0.0
C11 C 0.28137 1.00707 0.1691 0.0
C12 C 0.22869 0.97777 0.16791 0.0
C13 C 0.20509 0.93804 0.19036 0.0
C14 C 0.15554 0.90776 0.18786 0.0
C15 C 0.12866 0.91655 0.16273 0.0
C16 C 0.152 0.95767 0.14137 0.0
C17 C 0.20171 0.98806 0.1439 0.0
C18 C 0.40319 0.16581 0.20553 0.0
C19 C 0.29781 0.16508 0.15136 0.0
O20 O 0.412 0.26364 0.10036 0.0
O21 O 0.47213 0.25152 0.10501 0.0
O22 O 0.37733 0.11884 0.09847 0.0
O23 O 0.34448 0.15232 0.0739 0.0
O24 O 0.42037 0.09946 0.14144 0.0
O25 O 0.46234 0.18149 0.14019 0.0
O26 O 0.30321 1.02042 0.13846 0.0
O27 O 0.29988 0.04075 0.19322 0.0
O28 O 0.37868 0.17242 0.18215 0.0
O29 O 0.39976 0.12417 0.20209 0.0
O30 O 0.34175 0.20114 0.15187 0.0
O31 O 0.29015 0.12164 0.14451 0.0
H32 H 0.49044 0.36129 0.05694 0.0
H33 H 0.55062 0.44359 0.07263 0.0
H34 H 0.55769 0.39758 0.17906 0.0
H35 H 0.4979 0.31492 0.16291 0.0
H36 H 0.22516 0.92975 0.20926 0.0
H37 H 0.1383 0.87662 0.20494 0.0
H38 H 0.13212 0.96518 0.12176 0.0
H39 H 0.21922 1.01885 0.12649 0.0
Pr40 Pr 0.81337 0.73551 0.40341 0.0
Pr41 Pr 0.84068 0.66633 0.43644 0.0
C42 C 0.79605 0.80844 0.40217 0.0
C43 C 0.82112 0.85963 0.39282 0.0
C44 C 0.79564 0.87991 0.37804 0.0
C45 C 0.81691 0.92973 0.37566 0.0
C46 C 0.86394 0.95958 0.3878 0.0
C47 C 0.89037 0.93933 0.40053 0.0
C48 C 0.86908 0.88971 0.40308 0.0
C49 C 0.8487 0.70723 0.34706 0.0
C50 C 0.92824 0.77209 0.418 0.0
C51 C 0.85866 0.59726 0.45829 0.0
C52 C 0.87755 0.56677 0.44563 0.0
C53 C 0.90123 0.55275 0.46975 0.0
C54 C 0.91721 0.5217 0.45915 0.0
C55 C 0.90997 0.50413 0.42411 0.0
C56 C 0.88705 0.51902 0.39974 0.0
C57 C 0.87113 0.55025 0.41036 0.0
C58 C 0.80553 0.70957 0.48414 0.0
C59 C 0.73327 0.62004 0.40193 0.0
O60 O 0.81389 0.79776 0.42955 0.0
O61 O 0.78182 0.77668 0.37641 0.0
O62 O 0.84615 0.69202 0.37856 0.0
O63 O 0.83245 0.73645 0.34431 0.0
O64 O 0.91586 0.72664 0.41863 0.0
O65 O 0.89512 0.78456 0.41904 0.0
O66 O 0.8893 0.64298 0.46184 0.0
O67 O 0.81726 0.5884 0.44579 0.0
O68 O 0.78923 0.69218 0.45421 0.0
O69 O 0.84188 0.70444 0.49128 0.0
O70 O 0.73829 0.6634 0.40322 0.0
O71 O 0.76985 0.61348 0.40717 0.0
H72 H 0.75853 0.85744 0.37029 0.0
H73 H 0.79584 0.94504 0.36628 0.0
H74 H 0.92628 0.96191 0.41076 0.0
H75 H 0.88904 0.87498 0.41533 0.0
H76 H 0.90639 0.56499 0.4971 0.0
H77 H 0.93363 0.51001 0.47879 0.0
H78 H 0.88086 0.50595 0.3726 0.0
H79 H 0.85313 0.56081 0.39124 0.0
Pr80 Pr 0.87869 0.22458 0.11088 0.0
Pr81 Pr 0.97488 0.26339 0.13999 0.0
C82 C 0.79006 0.19731 0.08564 0.0
C83 C 0.74114 0.18223 0.09771 0.0
C84 C 0.70426 0.16677 0.07257 0.0
C85 C 0.65809 0.155 0.083 0.0
C86 C 0.64795 0.15865 0.11884 0.0
C87 C 0.68471 0.17259 0.14421 0.0
C88 C 0.73098 0.18439 0.13372 0.0
C89 C 0.95366 0.25497 0.061 0.0
C90 C 0.93321 0.33674 0.13786 0.0
C91 C 0.06703 0.28591 0.13572 0.0
C92 C 0.09663 0.26363 0.14229 0.0
C93 C 0.10636 0.25395 0.17675 0.0
C94 C 0.13467 0.23285 0.18165 0.0
C95 C 0.15345 0.2209 0.1522 0.0
C96 C 0.143 0.22988 0.11786 0.0
C97 C 0.11521 0.25128 0.11298 0.0
C98 C 0.92033 0.23621 0.20074 0.0
C99 C 0.90112 0.14548 0.13873 0.0
O100 O 0.80556 0.16753 0.09094 0.0
O101 O 0.82276 0.24186 0.09154 0.0
O102 O 0.95113 0.27742 0.08708 0.0
O103 O 0.91767 0.21157 0.06125 0.0
O104 O 0.97348 0.33549 0.13719 0.0
O105 O 0.89143 0.2971 0.13434 0.0
O106 O 1.03632 0.26692 0.10968 0.0
O107 O 0.0504 0.29872 0.16284 0.0
O108 O 0.90046 0.22927 0.17027 0.0
O109 O 0.96668 0.25865 0.20013 0.0
O110 O 0.86708 0.15603 0.13812 0.0
O111 O 0.94594 0.17975 0.13378 0.0
H112 H 0.71143 0.16478 0.04466 0.0
H113 H 0.63069 0.14466 0.06282 0.0
H114 H 0.67782 0.17495 0.1721 0.0
H115 H 0.75896 0.19593 0.15356 0.0
H116 H 0.09237 0.26282 0.19986 0.0
H117 H 0.14215 0.22612 0.20842 0.0
H118 H 0.15753 0.22161 0.09475 0.0
H119 H 0.10844 0.25847 0.08611 0.0
Pr120 Pr 0.3524 0.09826 0.40617 0.0
Pr121 Pr 0.4061 0.19531 0.43518 0.0
C122 C 0.28564 1.00499 0.39652 0.0
C123 C 0.23319 0.97374 0.39914 0.0
C124 C 0.21057 0.92984 0.38099 0.0
C125 C 0.16117 0.89876 0.38428 0.0
C126 C 0.13331 0.91106 0.4057 0.0
C127 C 0.15606 0.95537 0.42368 0.0
C128 C 0.20556 0.98644 0.42041 0.0
C129 C 0.40336 0.16311 0.35244 0.0
C130 C 0.30256 0.1667 0.40831 0.0
C131 C 0.46774 0.2867 0.45599 0.0
C132 C 0.50151 0.33541 0.44177 0.0
C133 C 0.48758 0.37007 0.43836 0.0
C134 C 0.52062 0.41708 0.42778 0.0
C135 C 0.56861 0.4308 0.42075 0.0
C136 C 0.58217 0.3958 0.42354 0.0
C137 C 0.5492 0.34889 0.43393 0.0
C138 C 0.35868 0.1205 0.48557 0.0
C139 C 0.46704 0.14276 0.41374 0.0
O140 O 0.30861 1.02237 0.42641 0.0
O141 O 0.30198 0.03608 0.37059 0.0
O142 O 0.38101 0.1711 0.37677 0.0
O143 O 0.39889 0.12096 0.35551 0.0
O144 O 0.34666 0.20256 0.40789 0.0
O145 O 0.29438 0.12282 0.41424 0.0
O146 O 0.42177 0.26958 0.45213 0.0
O147 O 0.47963 0.25378 0.45266 0.0
O148 O 0.38504 0.12281 0.46066 0.0
O149 O 0.35415 0.15815 0.48549 0.0
O150 O 0.42611 0.10168 0.41572 0.0
O151 O 0.46748 0.18372 0.41419 0.0
H152 H 0.23122 0.91936 0.36448 0.0
H153 H 0.14468 0.86506 0.36995 0.0
H154 H 0.13578 0.96558 0.44083 0.0
H155 H 0.22235 1.02009 0.43483 0.0
H156 H 0.45125 0.36109 0.44439 0.0
H157 H 0.50857 0.44271 0.42528 0.0
H158 H 0.61884 0.40502 0.41871 0.0
H159 H 0.56152 0.32347 0.43657 0.0
Pr160 Pr 0.84548 0.66944 0.1195 0.0
Pr161 Pr 0.81024 0.72564 0.15473 0.0
C162 C 0.86928 0.60581 0.09365 0.0
C163 C 0.88769 0.57425 0.10499 0.0
C164 C 0.91088 0.56052 0.08014 0.0
C165 C 0.92445 0.52696 0.08913 0.0
C166 C 0.91522 0.50647 0.12327 0.0
C167 C 0.8932 0.52141 0.14848 0.0
C168 C 0.87968 0.55507 0.13947 0.0
C169 C 0.82058 0.72287 0.0733 0.0
C170 C 0.73241 0.61296 0.14328 0.0
C171 C 0.79063 0.7947 0.17356 0.0
C172 C 0.81334 0.84728 0.17185 0.0
C173 C 0.79608 0.87049 0.19355 0.0
C174 C 0.81383 0.91967 0.18997 0.0
C175 C 0.84901 0.94653 0.16443 0.0
C176 C 0.86805 0.92367 0.14391 0.0
C177 C 0.85027 0.87433 0.14756 0.0
C178 C 0.82688 0.67161 0.20451 0.0
C179 C 0.9272 0.77135 0.1441 0.0
O180 O 0.8989 0.65201 0.09408 0.0
O181 O 0.82629 0.59413 0.1042 0.0
O182 O 0.7965 0.697 0.09854 0.0
O183 O 0.85962 0.72136 0.0698 0.0
O184 O 0.7359 0.65548 0.14494 0.0
O185 O 0.77111 0.60955 0.14024 0.0
O186 O 0.77781 0.77187 0.14323 0.0
O187 O 0.80928 0.77722 0.19545 0.0
O188 O 0.85469 0.69404 0.17881 0.0
O189 O 0.78855 0.67502 0.20331 0.0
O190 O 0.91611 0.72644 0.14462 0.0
O191 O 0.89244 0.78151 0.14152 0.0
H192 H 0.91713 0.57462 0.05333 0.0
H193 H 0.94027 0.51552 0.06881 0.0
H194 H 0.88558 0.50632 0.17499 0.0
H195 H 0.86188 0.56517 0.15913 0.0
H196 H 0.76788 0.85033 0.21262 0.0
H197 H 0.7991 0.93655 0.20654 0.0
H198 H 0.89516 0.94351 0.12406 0.0
H199 H 0.86433 0.85707 0.13073 0.0
Pr200 Pr 0.98912 0.27647 0.40139 0.0
Pr201 Pr 0.88817 0.23044 0.43337 0.0
C202 C 0.08229 0.30235 0.40224 0.0
C203 C 0.10868 0.2758 0.39971 0.0
C204 C 0.13476 0.27891 0.36899 0.0
C205 C 0.1608 0.25504 0.36709 0.0
C206 C 0.1615 0.22761 0.3959 0.0
C207 C 0.13474 0.22384 0.42637 0.0
C208 C 0.10862 0.24752 0.42824 0.0
C209 C 0.9284 0.24422 0.34331 0.0
C210 C 0.92126 0.15801 0.40692 0.0
C211 C 0.79849 0.1986 0.45816 0.0
C212 C 0.74994 0.18732 0.44777 0.0
C213 C 0.71475 0.17352 0.47407 0.0
C214 C 0.66827 0.1624 0.46514 0.0
C215 C 0.65604 0.165 0.42967 0.0
C216 C 0.6913 0.17811 0.4032 0.0
C217 C 0.73792 0.18924 0.41219 0.0
C218 C 0.96549 0.26124 0.48097 0.0
C219 C 0.93997 0.3431 0.4052 0.0
O220 O 0.05683 0.29504 0.43096 0.0
O221 O 0.0611 0.30564 0.37355 0.0
O222 O 0.9128 0.23862 0.375 0.0
O223 O 0.97473 0.2686 0.34126 0.0
O224 O 0.88376 0.16322 0.4092 0.0
O225 O 0.96523 0.19484 0.40914 0.0
O226 O 0.81324 0.17044 0.44589 0.0
O227 O 0.8321 0.24368 0.45876 0.0
O228 O 0.9618 0.2835 0.45524 0.0
O229 O 0.92804 0.21883 0.48284 0.0
O230 O 0.98182 0.34493 0.40458 0.0
O231 O 0.89927 0.3023 0.40964 0.0
H232 H 0.13557 0.30035 0.34661 0.0
H233 H 0.18116 0.25875 0.34325 0.0
H234 H 0.13549 0.20414 0.44939 0.0
H235 H 0.08912 0.24429 0.45245 0.0
H236 H 0.7233 0.17161 0.50166 0.0
H237 H 0.64211 0.15281 0.48615 0.0
H238 H 0.68282 0.17974 0.37557 0.0
H239 H 0.76454 0.19941 0.39146 0.0
Pr240 Pr 0.11527 0.33367 0.64327 0.0
Pr241 Pr 0.21748 0.38883 0.61295 0.0
C242 C 1.02013 0.27257 0.6382 0.0
C243 C 0.98305 0.22172 0.64257 0.0
C244 C 0.98054 0.19512 0.67283 0.0
C245 C 0.94644 0.1461 0.67469 0.0
C246 C 0.91466 0.12285 0.64621 0.0
C247 C 0.91702 0.14992 0.61629 0.0
C248 C 0.95081 0.19873 0.61451 0.0
C249 C 0.17397 0.36301 0.70237 0.0
C250 C 0.18441 0.2845 0.64366 0.0
C251 C 0.30886 0.44619 0.5914 0.0
C252 C 0.35733 0.48024 0.60527 0.0
C253 C 0.39499 0.47118 0.59957 0.0
C254 C 0.4417 0.50431 0.61041 0.0
C255 C 0.45192 0.54761 0.62683 0.0
C256 C 0.4139 0.55607 0.63325 0.0
C257 C 0.36719 0.5228 0.62266 0.0
C258 C 0.14132 0.34422 0.56417 0.0
C259 C 0.16772 0.45156 0.63809 0.0
O260 O 0.05021 0.28135 0.6122 0.0
O261 O 1.0401 0.29917 0.66647 0.0
O262 O 0.19024 0.37266 0.67082 0.0
O263 O 0.12751 0.33859 0.70375 0.0
O264 O 0.22063 0.32844 0.64216 0.0
O265 O 0.14003 0.27558 0.63874 0.0
O266 O 0.29102 0.40082 0.59883 0.0
O267 O 0.27678 0.4595 0.59184 0.0
O268 O 0.14499 0.36967 0.59029 0.0
O269 O 0.17807 0.33833 0.56253 0.0
O270 O 0.12562 0.41145 0.64013 0.0
O271 O 0.208 0.45133 0.63343 0.0
H272 H 1.00516 0.21198 0.69477 0.0
H273 H 0.94494 0.12642 0.69839 0.0
H274 H 0.89336 0.13308 0.59382 0.0
H275 H 0.95235 0.21847 0.59079 0.0
H276 H 0.38838 0.43863 0.58627 0.0
H277 H 0.46983 0.49611 0.60575 0.0
H278 H 0.42047 0.58914 0.64561 0.0
H279 H 0.33902 0.53093 0.62752 0.0
Pr280 Pr 0.23662 0.86792 0.9359 0.0
Pr281 Pr 0.27591 0.96402 0.90646 0.0
C282 C 0.20251 0.77718 0.95904 0.0
C283 C 0.196 0.73025 0.94889 0.0
C284 C 0.17635 0.69283 0.97365 0.0
C285 C 0.16674 0.64697 0.96413 0.0
C286 C 0.17638 0.63758 0.92953 0.0
C287 C 0.19672 0.67542 0.90484 0.0
C288 C 0.20626 0.72139 0.9144 0.0
C289 C 0.263 0.94292 0.98596 0.0
C290 C 0.34886 0.91978 0.90977 0.0
C291 C 0.30967 0.05806 0.89675 0.0
C292 C 0.28548 0.0862 0.89224 0.0
C293 C 0.30759 0.12918 0.87314 0.0
C294 C 0.28695 0.15824 0.87199 0.0
C295 C 0.24389 0.14502 0.89013 0.0
C296 C 0.22085 0.10092 0.90805 0.0
C297 C 0.2413 0.07172 0.90893 0.0
C298 C 0.2309 0.89472 0.85338 0.0
C299 C 0.16023 0.89843 0.91666 0.0
O300 O 0.17702 0.79124 0.94142 0.0
O301 O 0.2459 0.81201 0.96592 0.0
O302 O 0.28684 0.94131 0.96066 0.0
O303 O 0.22097 0.90488 0.98597 0.0
O304 O 0.34677 0.95935 0.90492 0.0
O305 O 0.31032 0.87887 0.91799 0.0
O306 O 0.30444 0.0385 0.92806 0.0
O307 O 0.30631 1.02968 0.8706 0.0
O308 O 0.25794 0.893 0.87704 0.0
O309 O 0.22589 0.93174 0.85775 0.0
O310 O 0.16844 0.86298 0.91288 0.0
O311 O 0.19641 0.94187 0.92338 0.0
H312 H 0.1681 0.69901 1.00037 0.0
H313 H 0.15234 0.61899 0.98403 0.0
H314 H 0.20478 0.66931 0.87806 0.0
H315 H 0.22118 0.74984 0.89486 0.0
H316 H 0.3415 0.14094 0.85996 0.0
H317 H 0.30542 0.19184 0.8577 0.0
H318 H 0.18823 0.08998 0.92284 0.0
H319 H 0.22343 0.0386 0.92384 0.0
Pr320 Pr 0.74263 0.80366 0.65913 0.0
Pr321 Pr 0.67488 0.82385 0.62669 0.0
C322 C 0.82739 0.80944 0.66514 0.0
C323 C 0.875 0.81441 0.6639 0.0
C324 C 0.89854 0.81403 0.69508 0.0
C325 C 0.94717 0.82822 0.69397 0.0
C326 C 0.97243 0.84287 0.66168 0.0
C327 C 0.94831 0.84146 0.63044 0.0
C328 C 0.90004 0.82721 0.6315 0.0
C329 C 0.6938 0.82049 0.71212 0.0
C330 C 0.77491 0.91772 0.64255 0.0
C331 C 0.60041 0.83342 0.60555 0.0
C332 C 0.57552 0.85871 0.6172 0.0
C333 C 0.55599 0.87553 0.59168 0.0
C334 C 0.52918 0.89644 0.60217 0.0
C335 C 0.52143 0.90087 0.63842 0.0
C336 C 0.5424 0.88542 0.66398 0.0
C337 C 0.56951 0.86478 0.65347 0.0
C338 C 0.72077 0.79176 0.57827 0.0
C339 C 0.63545 0.71503 0.65444 0.0
O340 O 0.81577 0.82913 0.63973 0.0
O341 O 0.79349 0.78401 0.68827 0.0
O342 O 0.70807 0.84533 0.6838 0.0
O343 O 0.70702 0.78866 0.71389 0.0
O344 O 0.72924 0.90331 0.64042 0.0
O345 O 0.78846 0.88571 0.64428 0.0
O346 O 0.64364 0.85978 0.59302 0.0
O347 O 0.59586 0.79854 0.62579 0.0
O348 O 0.70302 0.77431 0.60767 0.0
O349 O 0.71481 0.82778 0.57172 0.0
O350 O 0.67989 0.72462 0.64952 0.0
O351 O 0.62608 0.75019 0.65471 0.0
H352 H 0.88006 0.80495 0.72037 0.0
H353 H 0.96533 0.82895 0.71837 0.0
H354 H 0.96692 0.85164 0.60519 0.0
H355 H 0.88267 0.82767 0.60698 0.0
H356 H 0.56028 0.87119 0.56359 0.0
H357 H 0.51257 0.90703 0.58188 0.0
H358 H 0.53678 0.88823 0.69207 0.0
H359 H 0.58467 0.85244 0.67366 0.0
Pr360 Pr 0.2082 0.38971 0.93076 0.0
Pr361 Pr 0.11711 0.3374 0.89557 0.0
C362 C 0.29539 0.45042 0.95898 0.0
C363 C 0.34482 0.48452 0.94782 0.0
C364 C 0.38148 0.50335 0.97329 0.0
C365 C 0.42784 0.539 0.964 0.0
C366 C 0.43835 0.55667 0.92903 0.0
C367 C 0.40187 0.5363 0.90321 0.0
C368 C 0.35545 0.50057 0.91254 0.0
C369 C 0.12858 0.33865 0.97664 0.0
C370 C 0.15703 0.4506 0.90731 0.0
C371 C 1.02744 0.26868 0.87825 0.0
C372 C 0.9978 0.21652 0.88471 0.0
C373 C 0.97546 0.18501 0.8561 0.0
C374 C 0.94659 0.13569 0.86196 0.0
C375 C 0.93942 0.117 0.8966 0.0
C376 C 0.96235 0.14848 0.92515 0.0
C377 C 0.99146 0.19767 0.91927 0.0
C378 C 0.18743 0.39162 0.84573 0.0
C379 C 0.185 0.28806 0.90503 0.0
O380 O 0.27961 0.40492 0.95375 0.0
O381 O 0.26336 0.46249 0.95192 0.0
O382 O 0.13263 0.36571 0.95175 0.0
O383 O 0.16674 0.3353 0.97894 0.0
O384 O 0.11667 0.409 0.90594 0.0
O385 O 0.19831 0.45202 0.90954 0.0
O386 O 1.03749 0.2968 0.90585 0.0
O387 O 0.06365 0.28265 0.85662 0.0
O388 O 0.19284 0.36817 0.87065 0.0
O389 O 0.14563 0.38807 0.84726 0.0
O390 O 0.22034 0.33236 0.90522 0.0
O391 O 0.14067 0.27959 0.90832 0.0
H392 H 0.37395 0.49142 1.00066 0.0
H393 H 0.45506 0.5541 0.98451 0.0
H394 H 0.40906 0.54856 0.87592 0.0
H395 H 0.32763 0.48626 0.89244 0.0
H396 H 0.97986 0.19865 0.82923 0.0
H397 H 0.92868 0.11235 0.83953 0.0
H398 H 0.95745 0.13503 0.9521 0.0
H399 H 1.00854 0.22092 0.94187 0.0
Pr400 Pr 0.28523 0.96772 0.65291 0.0
Pr401 Pr 0.25179 0.87357 0.62332 0.0
C402 C 0.31409 0.06085 0.66166 0.0
C403 C 0.28773 0.08687 0.66585 0.0
C404 C 0.30706 0.12869 0.68637 0.0
C405 C 0.28489 0.15632 0.68708 0.0
C406 C 0.24312 0.14283 0.66703 0.0
C407 C 0.22251 0.09959 0.6479 0.0
C408 C 0.24445 0.07174 0.64748 0.0
C409 C 0.23924 0.89894 0.70579 0.0
C410 C 0.17069 0.89633 0.64196 0.0
C411 C 0.22236 0.78451 0.59806 0.0
C412 C 0.21365 0.73629 0.60657 0.0
C413 C 0.19834 0.70217 0.57929 0.0
C414 C 0.18755 0.65539 0.58641 0.0
C415 C 0.19174 0.64161 0.62106 0.0
C416 C 0.20659 0.67575 0.6486 0.0
C417 C 0.21743 0.72284 0.6414 0.0
C418 C 0.27699 0.94867 0.57349 0.0
C419 C 0.36088 0.92799 0.65524 0.0
O420 O 0.31271 0.03389 0.68814 0.0
O421 O 0.30959 0.04089 0.63054 0.0
O422 O 0.26754 0.89724 0.68318 0.0
O423 O 0.23419 0.93581 0.7008 0.0
O424 O 0.18151 0.8628 0.64539 0.0
O425 O 0.20502 0.94067 0.63529 0.0
O426 O 0.19404 0.79713 0.61309 0.0
O427 O 0.26658 0.81972 0.59537 0.0
O428 O 0.3009 0.94764 0.599 0.0
O429 O 0.23538 0.91017 0.5735 0.0
O430 O 0.35747 0.96696 0.65812 0.0
O431 O 0.32392 0.88636 0.64617 0.0
H432 H 0.34017 0.14084 0.70089 0.0
H433 H 0.30144 0.18933 0.70228 0.0
H434 H 0.19095 0.08856 0.6317 0.0
H435 H 0.22859 0.03936 0.63154 0.0
H436 H 0.19453 0.71168 0.55236 0.0
H437 H 0.17605 0.62987 0.5647 0.0
H438 H 0.21085 0.66635 0.67543 0.0
H439 H 0.2288 0.74869 0.66287 0.0
Pr440 Pr 0.68618 0.84079 0.9403 0.0
Pr441 Pr 0.73953 0.79896 0.90626 0.0
C442 C 0.62407 0.86811 0.96359 0.0
C443 C 0.59012 0.88256 0.95026 0.0
C444 C 0.57802 0.91009 0.9721 0.0
C445 C 0.54333 0.92129 0.96132 0.0
C446 C 0.52004 0.90537 0.92829 0.0
C447 C 0.53307 0.87862 0.90608 0.0
C448 C 0.56783 0.86741 0.91691 0.0
C449 C 0.73161 0.80743 0.98754 0.0
C450 C 0.62518 0.72822 0.9138 0.0
C451 C 0.80542 0.77306 0.89351 0.0
C452 C 0.85797 0.79565 0.8959 0.0
C453 C 0.87771 0.76915 0.90965 0.0
C454 C 0.92724 0.78993 0.91312 0.0
C455 C 0.95821 0.83779 0.90301 0.0
C456 C 0.9384 0.86463 0.88966 0.0
C457 C 0.88863 0.84366 0.88614 0.0
C458 C 0.68947 0.81917 0.85587 0.0
C459 C 0.79295 0.91781 0.91769 0.0
O460 O 0.66968 0.89801 0.95906 0.0
O461 O 0.61253 0.82355 0.95868 0.0
O462 O 0.70679 0.78687 0.96089 0.0
O463 O 0.73433 0.84859 0.9916 0.0
O464 O 0.66594 0.72807 0.91432 0.0
O465 O 0.62495 0.76882 0.91632 0.0
O466 O 0.78302 0.76549 0.92381 0.0
O467 O 0.7879 0.78803 0.86856 0.0
O468 O 0.71238 0.84706 0.88158 0.0
O469 O 0.69289 0.78073 0.85598 0.0
O470 O 0.75008 0.91206 0.92135 0.0
O471 O 0.79917 0.88038 0.91657 0.0
H472 H 0.59453 0.92188 0.99802 0.0
H473 H 0.5334 0.9408 0.97953 0.0
H474 H 0.51582 0.86574 0.88052 0.0
H475 H 0.57659 0.84612 0.89957 0.0
H476 H 0.85474 0.73226 0.91773 0.0
H477 H 0.94144 0.76843 0.92368 0.0
H478 H 0.96133 0.90132 0.88119 0.0
H479 H 0.87408 0.86476 0.87561 0.0
C480 C 0.1795 0.1613 0.13842 0.0
C481 C 0.187 0.20259 0.15678 0.0
C482 C 0.21428 0.14736 0.1385 0.0
C483 C 0.25814 0.17495 0.15628 0.0
H484 H 0.14705 0.14039 0.1231 0.0
H485 H 0.20778 0.11631 0.12307 0.0
S486 S 0.29392 0.28446 0.21008 0.0
N487 N 0.24023 0.26916 0.1948 0.0
N488 N 0.30579 0.24377 0.19453 0.0
C489 C 0.26514 0.2152 0.17586 0.0
C490 C 0.22952 0.22883 0.17623 0.0
C491 C 0.06408 0.82847 0.41731 0.0
C492 C 0.08089 0.877 0.4097 0.0
C493 C 1.01495 0.79531 0.42035 0.0
C494 C 0.98024 0.80906 0.41578 0.0
H495 H 0.08918 0.81597 0.42112 0.0
H496 H 1.00422 0.75846 0.42627 0.0
S497 S 1.00568 0.93175 0.39366 0.0
N498 N 0.05907 0.9371 0.39669 0.0
N499 N 0.96687 0.87495 0.40208 0.0
C500 C 0.99669 0.8576 0.40806 0.0
C501 C 0.04686 0.89146 0.40513 0.0
C502 C 0.92325 0.08215 0.1511 0.0
C503 C 0.88799 0.09462 0.14452 0.0
C504 C 0.91074 0.0342 0.15727 0.0
C505 C 0.86254 0.99712 0.15732 0.0
H506 H 0.96072 0.10958 0.15181 0.0
H507 H 0.93888 1.02617 0.16256 0.0
S508 S 0.75678 1.00949 0.13836 0.0
N509 N 0.80265 0.06465 0.13637 0.0
N510 N 0.77984 0.97549 0.14789 0.0
C511 C 0.82717 1.00892 0.15002 0.0
C512 C 0.83969 0.05737 0.14367 0.0
C513 C 0.27597 0.22309 0.3885 0.0
C514 C 0.26366 0.1777 0.40218 0.0
C515 C 0.24226 0.23783 0.38542 0.0
C516 C 0.19449 0.20794 0.39583 0.0
H517 H 0.31244 0.24827 0.38071 0.0
H518 H 0.25433 0.27382 0.37604 0.0
S519 S 0.14204 0.08354 0.42968 0.0
N520 N 0.19924 0.10142 0.42377 0.0
N521 N 0.13539 0.12904 0.41768 0.0
C522 C 0.18092 0.16156 0.40811 0.0
C523 C 0.21552 0.1464 0.41121 0.0
C524 C 1.04132 0.89247 0.15825 0.0
C525 C 0.07743 0.88029 0.15672 0.0
C526 C 0.99268 0.85741 0.1537 0.0
C527 C 0.97864 0.8091 0.1472 0.0
H528 H 0.05067 0.92911 0.16369 0.0
H529 H 0.96597 0.86811 0.15581 0.0
S530 S 0.06071 0.76045 0.1367 0.0
N531 N 0.09638 0.81778 0.14557 0.0
N532 N 1.00608 0.75221 0.13685 0.0
C533 C 1.01496 0.79715 0.14443 0.0
C534 C 0.06402 0.83262 0.14921 0.0
C535 C 0.91415 0.04572 0.36993 0.0
C536 C 0.88188 1.01084 0.39368 0.0
C537 C 0.92942 0.09444 0.37529 0.0
C538 C 0.91249 0.10898 0.40438 0.0
H539 H 0.92664 0.03516 0.34683 0.0
H540 H 0.95283 0.12047 0.35589 0.0
S541 S 0.83232 1.03175 0.47601 0.0
N542 N 0.83714 0.99434 0.44869 0.0
N543 N 0.86522 0.08554 0.4585 0.0
C544 C 0.88193 0.07453 0.42893 0.0
C545 C 0.86675 1.02541 0.42364 0.0
C546 C 0.2589 0.22495 0.65432 0.0
C547 C 0.2255 0.17709 0.6623 0.0
C548 C 0.24468 0.25851 0.64832 0.0
C549 C 0.19618 0.24609 0.64991 0.0
H550 H 0.29661 0.23662 0.652 0.0
H551 H 0.27249 0.29469 0.64206 0.0
S552 S 0.09407 0.12524 0.67031 0.0
N553 N 0.14142 0.11851 0.67188 0.0
N554 N 0.11444 0.18208 0.66031 0.0
C555 C 0.16205 0.19821 0.65773 0.0
C556 C 0.17673 0.16365 0.66393 0.0
C557 C 0.07816 0.84527 0.89333 0.0
C558 C 0.11034 0.88789 0.91126 0.0
C559 C 1.02971 0.83058 0.89 0.0
C560 C 1.0109 0.85769 0.90445 0.0
H561 H 0.09025 0.82234 0.88202 0.0
H562 H 1.00656 0.79716 0.87632 0.0
S563 S 0.07994 0.97377 0.95195 0.0
N564 N 0.12032 0.95859 0.94201 0.0
N565 N 1.02849 0.93063 0.93595 0.0
C566 C 1.04276 0.9015 0.92117 0.0
C567 C 0.09262 0.91666 0.92454 0.0
C568 C 0.79803 1.00402 0.63576 0.0
C569 C 0.81109 0.96975 0.64434 0.0
C570 C 0.83151 0.05328 0.6369 0.0
C571 C 0.87938 0.07043 0.64702 0.0
H572 H 0.76171 0.9928 0.62769 0.0
H573 H 0.81974 0.0782 0.62984 0.0
S574 S 0.93209 0.99595 0.67269 0.0
N575 N 0.87548 0.95679 0.66399 0.0
N576 N 0.9382 0.04918 0.66579 0.0
C577 C 0.89286 0.03666 0.65611 0.0
C578 C 0.85885 0.98645 0.65479 0.0
C579 C 0.24512 0.26153 0.90601 0.0
C580 C 0.19698 0.24936 0.90182 0.0
C581 C 0.25942 0.22759 0.902 0.0
C582 C 0.2264 0.17968 0.89349 0.0
H583 H 0.27247 0.29783 0.9126 0.0
H584 H 0.29684 0.23905 0.90609 0.0
S585 S 0.09587 0.12861 0.87934 0.0
N586 N 0.11593 0.1856 0.88875 0.0
N587 N 0.14298 0.12147 0.8808 0.0
C588 C 0.17791 0.16656 0.88947 0.0
C589 C 0.16319 0.20142 0.8937 0.0
C590 C 0.10442 0.91513 0.63905 0.0
C591 C 0.12067 0.88376 0.64869 0.0
C592 C 0.05645 0.90224 0.64419 0.0
C593 C 1.02362 0.85808 0.65976 0.0
H594 H 0.12852 0.94926 0.62675 0.0
H595 H 1.04476 0.9267 0.6356 0.0
S596 S 0.04808 0.76403 0.69108 0.0
N597 N 0.09975 0.8067 0.67549 0.0
N598 N 1.01033 0.78364 0.68542 0.0
C599 C 1.03959 0.82712 0.67045 0.0
C600 C 0.08796 0.83965 0.66479 0.0
C601 C 0.86796 0.05249 0.92802 0.0
C602 C 0.90515 0.06544 0.90335 0.0
C603 C 0.83275 1.00446 0.9331 0.0
C604 C 0.83372 0.96735 0.91419 0.0
H605 H 0.86513 0.07984 0.94268 0.0
H606 H 0.80409 0.99638 0.9517 0.0
S607 S 0.92452 0.98196 0.84756 0.0
N608 N 0.94181 0.03718 0.86063 0.0
N609 N 0.87544 0.94674 0.87029 0.0
C610 C 0.87143 0.97959 0.89021 0.0
C611 C 0.90711 1.02868 0.8847 0.0
C612 C 0.45107 0.1865 0.29748 0.0
C613 C 0.41344 0.18527 0.31695 0.0
C614 C 0.45124 0.18768 0.2603 0.0
C615 C 0.41358 0.18729 0.24137 0.0
H616 H 0.47794 0.18155 0.31091 0.0
H617 H 0.4782 0.1835 0.24627 0.0
S618 S 0.31146 0.19336 0.28021 0.0
N619 N 0.34171 0.19154 0.315 0.0
N620 N 0.3416 0.19301 0.24486 0.0
C621 C 0.37906 0.19233 0.26057 0.0
C622 C 0.37907 0.19144 0.29859 0.0
C623 C 0.81796 0.6441 0.30141 0.0
C624 C 0.85674 0.68659 0.31477 0.0
C625 C 0.81178 0.63563 0.26462 0.0
C626 C 0.84457 0.66903 0.24023 0.0
H627 H 0.78905 0.62053 0.31897 0.0
H628 H 0.77851 0.60554 0.25514 0.0
S629 S 0.95743 0.78041 0.26275 0.0
N630 N 0.93206 0.75836 0.30159 0.0
N631 N 0.9216 0.74174 0.23257 0.0
C632 C 0.88698 0.70797 0.25367 0.0
C633 C 0.89273 0.71698 0.29105 0.0
C634 C 0.8937 0.26127 0.25359 0.0
C635 C 0.89539 0.22431 0.23511 0.0
C636 C 0.89573 0.26335 0.29091 0.0
C637 C 0.8994 0.22847 0.3107 0.0
H638 H 0.89722 0.2919 0.23917 0.0
H639 H 0.90079 0.29554 0.30393 0.0
S640 S 0.89565 0.11985 0.27501 0.0
N641 N 0.89335 0.14846 0.23936 0.0
N642 N 0.89692 0.15226 0.30947 0.0
C643 C 0.8945 0.18818 0.2927 0.0
C644 C 0.89257 0.18613 0.25477 0.0
C645 C 0.20587 0.34986 0.7581 0.0
C646 C 0.20207 0.38206 0.73511 0.0
C647 C 0.20949 0.3573 0.79506 0.0
C648 C 0.20814 0.39657 0.80997 0.0
H649 H 0.20051 0.31612 0.74787 0.0
H650 H 0.20688 0.329 0.81203 0.0
S651 S 0.20724 0.49519 0.76059 0.0
N652 N 0.20486 0.4581 0.7293 0.0
N653 N 0.21039 0.47161 0.79874 0.0
C654 C 0.2104 0.43184 0.78695 0.0
C655 C 0.20753 0.42461 0.7494 0.0
C656 C 0.26456 0.87735 0.79927 0.0
C657 C 0.22516 0.87498 0.81715 0.0
C658 C 0.26672 0.87851 0.76182 0.0
C659 C 0.22957 0.87742 0.74157 0.0
H660 H 0.29597 0.88373 0.8141 0.0
H661 H 0.29969 0.88568 0.74902 0.0
S662 S 0.11481 0.86082 0.77587 0.0
N663 N 0.14518 0.86315 0.81186 0.0
N664 N 0.14943 0.86591 0.74193 0.0
C665 C 0.18781 0.869 0.7592 0.0
C666 C 0.18553 0.8676 0.79699 0.0
C667 C 0.6423 0.80256 0.76425 0.0
C668 C 0.68308 0.8364 0.74572 0.0
C669 C 0.6414 0.80199 0.80148 0.0
C670 C 0.68132 0.83521 0.82129 0.0
H671 H 0.61343 0.77276 0.75007 0.0
H672 H 0.61176 0.77187 0.8147 0.0
S673 S 0.79295 0.93666 0.7852 0.0
N674 N 0.7611 0.90846 0.74961 0.0
N675 N 0.75946 0.90752 0.8198 0.0
C676 C 0.71947 0.87325 0.80312 0.0
C677 C 0.72036 0.87378 0.7651 0.0
C678 C 0.25701 1.00795 1.01941 0.0
C679 C 0.28247 0.98451 1.01061 0.0
C680 C 0.27911 0.05154 0.0388 0.0
C681 C 0.32701 0.0724 0.05035 0.0
H682 H 0.22043 0.99331 1.01043 0.0
H683 H 0.25844 0.06842 0.04533 0.0
S684 S 0.40856 1.02475 0.03415 0.0
N685 N 0.35793 0.98571 1.0147 0.0
N686 N 0.39865 0.06589 0.05152 0.0
C687 C 0.35228 0.0488 0.04186 0.0
C688 C 0.33025 1.00536 1.02188 0.0
C689 C 0.75556 0.7484 0.49499 0.0
C690 C 0.78326 0.72939 0.50852 0.0
C691 C 0.73731 0.77056 0.51731 0.0
C692 C 0.74221 0.77058 0.55441 0.0
H693 H 0.74757 0.74601 0.46695 0.0
H694 H 0.71762 0.78603 0.50553 0.0
S695 S 0.79863 0.71215 0.60386 0.0
N696 N 0.8089 0.70633 0.56169 0.0
N697 N 0.76826 0.74067 0.60381 0.0
C698 C 0.76535 0.747 0.56843 0.0
C699 C 0.78717 0.72796 0.54556 0.0
C700 C 0.06089 0.26781 1.00827 0.0
C701 C 0.08612 0.31713 1.00034 0.0
C702 C 1.01664 0.24683 0.02651 0.0
C703 C 0.99703 0.27483 0.03814 0.0
H704 H 0.07463 0.24514 0.99936 0.0
H705 H 0.99833 0.20884 0.03228 0.0
S706 S 0.04969 0.40556 1.02442 0.0
N707 N 0.08794 0.39293 1.00527 0.0
N708 N 1.00673 0.35437 0.04058 0.0
C709 C 1.02246 0.32416 0.03069 0.0
C710 C 0.06647 0.34507 1.01156 0.0
C711 C 0.36324 0.05748 0.52002 0.0
C712 C 0.33619 0.07859 0.50988 0.0
C713 C 0.34319 1.01527 0.5401 0.0
C714 C 0.29464 0.9911 0.54986 0.0
H715 H 0.40054 0.0739 0.51241 0.0
H716 H 0.36596 1.00114 0.54784 0.0
S717 S 0.20763 1.03057 0.52948 0.0
N718 N 0.25805 0.07214 0.51115 0.0
N719 N 0.21974 0.99151 0.54804 0.0
C720 C 0.26676 1.01132 0.53963 0.0
C721 C 0.28769 0.0554 0.51989 0.0
C722 C 0.8182 0.79484 0.05037 0.0
C723 C 0.80192 0.74539 0.04864 0.0
C724 C 0.79517 0.81508 0.03107 0.0
C725 C 0.75529 0.7865 1.00924 0.0
H726 H 0.84803 0.81775 0.06752 0.0
H727 H 0.80872 0.85322 0.03318 0.0
S728 S 0.69847 0.65475 0.99661 0.0
N729 N 0.74323 0.66846 1.02427 0.0
N730 N 0.7006 0.70578 0.98766 0.0
C731 C 0.73911 0.737 1.00735 0.0
C732 C 0.76218 0.71663 0.02717 0.0
C733 C 0.07409 0.2741 0.53145 0.0
C734 C 0.09865 0.32307 0.54064 0.0
C735 C 1.02964 0.25323 0.51344 0.0
C736 C 1.00931 0.28108 0.50324 0.0
H737 H 0.08844 0.25157 0.53923 0.0
H738 H 1.01173 0.2155 0.50675 0.0
S739 S 0.06018 0.41092 0.52031 0.0
N740 N 0.09915 0.39839 0.5383 0.0
N741 N 1.01762 0.36006 0.50322 0.0
C742 C 1.03413 0.33009 0.51179 0.0
C743 C 0.07829 0.35085 0.53078 0.0
C744 C 0.55778 0.11074 0.1164 0.0
C745 C 0.60001 0.15106 0.12893 0.0
C746 C 0.51253 0.10582 0.12226 0.0
C747 C 0.508 0.14145 0.14037 0.0
H748 H 0.55984 0.0833 0.10124 0.0
H749 H 0.48124 0.07513 0.11102 0.0
S750 S 0.60694 0.25246 0.18042 0.0
N751 N 0.63383 0.22605 0.16173 0.0
N752 N 0.54924 0.21679 0.17284 0.0
C753 C 0.54972 0.18091 0.15425 0.0
C754 C 0.59558 0.18572 0.14853 0.0
C755 C 0.67908 0.53695 0.38001 0.0
C756 C 0.68542 0.5761 0.40063 0.0
C757 C 0.63967 0.49079 0.38521 0.0
C758 C 0.60536 0.48151 0.41179 0.0
H759 H 0.70607 0.54165 0.36081 0.0
H760 H 0.63715 0.4617 0.3692 0.0
S761 S 0.60567 0.57223 0.47281 0.0
N762 N 0.65351 0.60317 0.44776 0.0
N763 N 0.58021 0.51635 0.45846 0.0
C764 C 0.61026 0.52091 0.43157 0.0
C765 C 0.65011 0.56815 0.4258 0.0
C766 C 0.8916 0.38288 0.14983 0.0
C767 C 0.93341 0.38294 0.13919 0.0
C768 C 0.88709 0.42362 0.14614 0.0
C769 C 0.92401 0.46623 0.1313 0.0
H770 H 0.86129 0.35051 0.16014 0.0
H771 H 0.85342 0.42092 0.15344 0.0
S772 S 1.04259 0.48694 0.10209 0.0
N773 N 1.01385 0.43058 0.11537 0.0
N774 N 1.00538 0.50721 0.10845 0.0
C775 C 0.96691 0.4676 0.12203 0.0
C776 C 0.97167 0.42607 0.12608 0.0
C777 C 0.52026 0.11004 0.43058 0.0
C778 C 0.51381 0.14449 0.4126 0.0
C779 C 0.56619 0.116 0.43495 0.0
C780 C 0.60723 0.15626 0.42105 0.0
H781 H 0.49004 0.07953 0.44291 0.0
H782 H 0.56975 0.08947 0.45007 0.0
S783 S 0.60891 0.25456 0.36902 0.0
N784 N 0.5519 0.2185 0.37856 0.0
N785 N 0.63775 0.22971 0.38692 0.0
C786 C 0.60081 0.18962 0.40146 0.0
C787 C 0.55425 0.18375 0.39723 0.0
C788 C 0.64175 0.4803 0.15049 0.0
C789 C 0.60005 0.47606 0.13528 0.0
C790 C 0.68346 0.52501 0.15441 0.0
C791 C 0.68535 0.56766 0.14361 0.0
H792 H 0.64296 0.44857 0.158 0.0
H793 H 0.715 0.52593 0.16515 0.0
S794 S 0.58471 0.57689 0.10512 0.0
N795 N 0.56219 0.51887 0.1116 0.0
N796 N 0.64081 0.60304 0.11896 0.0
C797 C 0.64329 0.56434 0.12996 0.0
C798 C 0.60071 0.51855 0.12568 0.0
C799 C 0.88693 0.42392 0.39834 0.0
C800 C 0.92205 0.46679 0.41421 0.0
C801 C 0.89433 0.3851 0.39361 0.0
C802 C 0.93733 0.38765 0.40422 0.0
H803 H 0.85241 0.41934 0.39121 0.0
H804 H 0.8653 0.35214 0.38273 0.0
S805 S 1.04273 0.49381 0.4435 0.0
N806 N 1.00306 0.5111 0.43771 0.0
N807 N 1.01698 0.43803 0.42889 0.0
C808 C 0.97391 0.43131 0.41812 0.0
C809 C 0.96621 0.47082 0.42321 0.0
C810 C 0.20786 0.57632 0.6049 0.0
C811 C 0.18427 0.59278 0.62715 0.0
C812 C 0.20164 0.53056 0.60892 0.0
C813 C 0.17109 0.49883 0.63508 0.0
H814 H 0.2318 0.59925 0.58428 0.0
H815 H 0.22083 0.5198 0.59104 0.0
S816 S 0.1012 0.5242 0.70056 0.0
N817 N 0.12935 0.57381 0.67677 0.0
N818 N 0.11723 0.48696 0.68395 0.0
C819 C 0.14696 0.51441 0.65753 0.0
C820 C 0.15385 0.56166 0.65377 0.0
C821 C 0.39469 0.87698 0.90222 0.0
C822 C 0.39515 0.9202 0.90864 0.0
C823 C 0.43575 0.8733 0.90697 0.0
C824 C 0.47917 0.91258 0.91871 0.0
H825 H 0.36176 0.84502 0.89456 0.0
H826 H 0.43272 0.83866 0.90307 0.0
S827 S 0.50096 0.03515 0.93623 0.0
N828 N 0.44382 1.00412 0.92507 0.0
N829 N 0.52115 0.99735 0.93384 0.0
C830 C 0.48086 0.95671 0.92359 0.0
C831 C 0.43894 0.96053 0.91848 0.0
C832 C 0.55658 0.65008 0.67583 0.0
C833 C 0.59418 0.66603 0.65122 0.0
C834 C 0.51156 0.60998 0.66864 0.0
C835 C 0.50203 0.58501 0.63613 0.0
H836 H 0.56138 0.6701 0.70013 0.0
H837 H 0.4834 0.59965 0.68813 0.0
S838 S 0.58892 0.61368 0.56255 0.0
N839 N 0.61976 0.65378 0.59355 0.0
N840 N 0.53481 0.57958 0.57917 0.0
C841 C 0.54007 0.59981 0.61179 0.0
C842 C 0.5862 0.6401 0.61953 0.0
C843 C 0.2046 0.58438 0.90429 0.0
C844 C 0.16776 0.58909 0.92 0.0
C845 C 0.19968 0.53921 0.89874 0.0
C846 C 0.15754 0.49679 0.90832 0.0
H847 H 0.23836 0.61592 0.89763 0.0
H848 H 0.22982 0.53767 0.88773 0.0
S849 S 0.04857 0.48934 0.9471 0.0
N850 N 0.08621 0.54737 0.94254 0.0
N851 N 0.07702 0.46238 0.93215 0.0
C852 C 0.11943 0.50082 0.92234 0.0
C853 C 0.12459 0.54696 0.92827 0.0
C854 C 0.40816 0.89118 0.67493 0.0
C855 C 0.4072 0.92993 0.65886 0.0
C856 C 0.44721 0.88425 0.67042 0.0
C857 C 0.48636 0.91537 0.64911 0.0
H858 H 0.37724 0.86441 0.68939 0.0
H859 H 0.44511 0.85236 0.68158 0.0
S860 S 0.50345 1.02511 0.60442 0.0
N861 N 0.45045 1.00226 0.62358 0.0
N862 N 0.52393 0.98899 0.6147 0.0
C863 C 0.48728 0.95607 0.63488 0.0
C864 C 0.4477 0.9635 0.63994 0.0
C865 C 0.57371 0.64059 0.92744 0.0
C866 C 0.5785 0.6827 0.91252 0.0
C867 C 0.52842 0.59936 0.93162 0.0
C868 C 0.48634 0.59846 0.92054 0.0
H869 H 0.60485 0.64013 0.93752 0.0
H870 H 0.52622 0.56827 0.94436 0.0
S871 S 0.47989 0.69822 0.87728 0.0
N872 N 0.53753 0.71989 0.88451 0.0
N873 N 0.45283 0.6428 0.89249 0.0
C874 C 0.49096 0.63963 0.90406 0.0
C875 C 0.5369 0.68161 0.90005 0.0
loop_
_geom_bond_atom_site_label_1
_geom_bond_atom_site_label_2
_geom_bond_distance
_geom_bond_site_symmetry_2
_ccdc_geom_bond_type
Pr0 C2 2.880 . S
Pr0 O20 2.562 . S
Pr0 O21 2.490 . S
Pr0 O22 2.695 . S
Pr0 O23 2.512 . S
Pr0 O25 2.437 . S
Pr0 O28 2.436 . S
Pr0 O30 2.438 . S
Pr1 C11 2.880 1_545 S
Pr1 O22 2.436 . S
Pr1 O24 2.438 . S
Pr1 O26 2.562 . S
Pr1 O27 2.490 . S
Pr1 O28 2.695 . S
Pr1 O29 2.512 . S
Pr1 O31 2.437 . S
C2 Pr0 2.880 . S
C2 C3 1.491 . S
C2 O20 1.254 . S
C2 O21 1.225 . S
C3 C2 1.491 . S
C3 C4 1.392 . S
C3 C8 1.356 . S
C4 C3 1.392 . S
C4 C5 1.368 . S
C4 H32 0.929 . S
C5 C4 1.368 . S
C5 C6 1.386 . S
C5 H33 0.929 . S
C6 C5 1.386 . S
C6 C7 1.373 . S
C7 C6 1.373 . S
C7 C8 1.409 . S
C7 H34 0.931 . S
C8 C3 1.356 . S
C8 C7 1.409 . S
C8 H35 0.930 . S
C9 O22 1.270 . S
C9 O23 1.248 . S
C10 O24 1.267 . S
C10 O25 1.278 . S
C11 Pr1 2.880 1_565 S
C11 C12 1.491 . S
C11 O26 1.254 1_565 S
C11 O27 1.225 1_565 S
C12 C11 1.491 . S
C12 C13 1.392 . S
C12 C17 1.356 . S
C13 C12 1.392 . S
C13 C14 1.368 . S
C13 H36 0.929 . S
C14 C13 1.368 . S
C14 C15 1.386 . S
C14 H37 0.929 . S
C15 C14 1.386 . S
C15 C16 1.373 . S
C16 C15 1.373 . S
C16 C17 1.409 . S
C16 H38 0.931 . S
C17 C12 1.356 . S
C17 C16 1.409 . S
C17 H39 0.930 . S
C18 O28 1.270 . S
C18 O29 1.248 . S
C19 O30 1.267 . S
C19 O31 1.278 . S
O20 Pr0 2.562 . S
O20 C2 1.254 . S
O21 Pr0 2.490 . S
O21 C2 1.225 . S
O22 Pr0 2.695 . S
O22 Pr1 2.436 . S
O22 C9 1.270 . S
O23 Pr0 2.512 . S
O23 C9 1.248 . S
O24 Pr1 2.438 . S
O24 C10 1.267 . S
O25 Pr0 2.437 . S
O25 C10 1.278 . S
O26 Pr1 2.562 . S
O26 C11 1.254 1_545 S
O27 Pr1 2.490 . S
O27 C11 1.225 1_545 S
O28 Pr0 2.436 . S
O28 Pr1 2.695 . S
O28 C18 1.270 . S
O29 Pr1 2.512 . S
O29 C18 1.248 . S
O30 Pr0 2.438 . S
O30 C19 1.267 . S
O31 Pr1 2.437 . S
O31 C19 1.278 . S
H32 C4 0.929 . S
H33 C5 0.929 . S
H34 C7 0.931 . S
H35 C8 0.930 . S
H36 C13 0.929 . S
H37 C14 0.929 . S
H38 C16 0.931 . S
H39 C17 0.930 . S
Pr40 C42 2.880 . S
Pr40 O60 2.562 . S
Pr40 O61 2.490 . S
Pr40 O62 2.695 . S
Pr40 O63 2.512 . S
Pr40 O65 2.437 . S
Pr40 O68 2.436 . S
Pr40 O70 2.438 . S
Pr41 C51 2.880 . S
Pr41 O62 2.436 . S
Pr41 O64 2.438 . S
Pr41 O66 2.562 . S
Pr41 O67 2.490 . S
Pr41 O68 2.695 . S
Pr41 O69 2.512 . S
Pr41 O71 2.437 . S
C42 Pr40 2.880 . S
C42 C43 1.491 . S
C42 O60 1.254 . S
C42 O61 1.225 . S
C43 C42 1.491 . S
C43 C44 1.392 . S
C43 C48 1.356 . S
C44 C43 1.392 . S
C44 C45 1.368 . S
C44 H72 0.929 . S
C45 C44 1.368 . S
C45 C46 1.386 . S
C45 H73 0.929 . S
C46 C45 1.386 . S
C46 C47 1.373 . S
C47 C46 1.373 . S
C47 C48 1.409 . S
C47 H74 0.931 . S
C48 C43 1.356 . S
C48 C47 1.409 . S
C48 H75 0.930 . S
C49 O62 1.270 . S
C49 O63 1.248 . S
C50 O64 1.267 . S
C50 O65 1.278 . S
C51 Pr41 2.880 . S
C51 C52 1.491 . S
C51 O66 1.254 . S
C51 O67 1.225 . S
C52 C51 1.491 . S
C52 C53 1.392 . S
C52 C57 1.356 . S
C53 C52 1.392 . S
C53 C54 1.368 . S
C53 H76 0.929 . S
C54 C53 1.368 . S
C54 C55 1.386 . S
C54 H77 0.929 . S
C55 C54 1.386 . S
C55 C56 1.373 . S
C56 C55 1.373 . S
C56 C57 1.409 . S
C56 H78 0.931 . S
C57 C52 1.356 . S
C57 C56 1.409 . S
C57 H79 0.930 . S
C58 O68 1.270 . S
C58 O69 1.248 . S
C59 O70 1.267 . S
C59 O71 1.278 . S
O60 Pr40 2.562 . S
O60 C42 1.254 . S
O61 Pr40 2.490 . S
O61 C42 1.225 . S
O62 Pr40 2.695 . S
O62 Pr41 2.436 . S
O62 C49 1.270 . S
O63 Pr40 2.512 . S
O63 C49 1.248 . S
O64 Pr41 2.438 . S
O64 C50 1.267 . S
O65 Pr40 2.437 . S
O65 C50 1.278 . S
O66 Pr41 2.562 . S
O66 C51 1.254 . S
O67 Pr41 2.490 . S
O67 C51 1.225 . S
O68 Pr40 2.436 . S
O68 Pr41 2.695 . S
O68 C58 1.270 . S
O69 Pr41 2.512 . S
O69 C58 1.248 . S
O70 Pr40 2.438 . S
O70 C59 1.267 . S
O71 Pr41 2.437 . S
O71 C59 1.278 . S
H72 C44 0.929 . S
H73 C45 0.929 . S
H74 C47 0.931 . S
H75 C48 0.930 . S
H76 C53 0.929 . S
H77 C54 0.929 . S
H78 C56 0.931 . S
H79 C57 0.930 . S
Pr80 C82 2.880 . S
Pr80 O100 2.562 . S
Pr80 O101 2.490 . S
Pr80 O102 2.695 . S
Pr80 O103 2.512 . S
Pr80 O105 2.437 . S
Pr80 O108 2.436 . S
Pr80 O110 2.438 . S
Pr81 C91 2.880 1_655 S
Pr81 O102 2.436 . S
Pr81 O104 2.438 . S
Pr81 O106 2.562 . S
Pr81 O107 2.490 . S
Pr81 O108 2.695 . S
Pr81 O109 2.512 . S
Pr81 O111 2.437 . S
C82 Pr80 2.880 . S
C82 C83 1.491 . S
C82 O100 1.254 . S
C82 O101 1.225 . S
C83 C82 1.491 . S
C83 C84 1.392 . S
C83 C88 1.356 . S
C84 C83 1.392 . S
C84 C85 1.368 . S
C84 H112 0.929 . S
C85 C84 1.368 . S
C85 C86 1.386 . S
C85 H113 0.929 . S
C86 C85 1.386 . S
C86 C87 1.373 . S
C87 C86 1.373 . S
C87 C88 1.409 . S
C87 H114 0.931 . S
C88 C83 1.356 . S
C88 C87 1.409 . S
C88 H115 0.930 . S
C89 O102 1.270 . S
C89 O103 1.248 . S
C90 O104 1.267 . S
C90 O105 1.278 . S
C91 Pr81 2.880 1_455 S
C91 C92 1.491 . S
C91 O106 1.254 1_455 S
C91 O107 1.225 1_455 S
C92 C91 1.491 . S
C92 C93 1.392 . S
C92 C97 1.356 . S
C93 C92 1.392 . S
C93 C94 1.368 . S
C93 H116 0.929 . S
C94 C93 1.368 . S
C94 C95 1.386 . S
C94 H117 0.929 . S
C95 C94 1.386 . S
C95 C96 1.373 . S
C96 C95 1.373 . S
C96 C97 1.409 . S
C96 H118 0.931 . S
C97 C92 1.356 . S
C97 C96 1.409 . S
C97 H119 0.930 . S
C98 O108 1.270 . S
C98 O109 1.248 . S
C99 O110 1.267 . S
C99 O111 1.278 . S
O100 Pr80 2.562 . S
O100 C82 1.254 . S
O101 Pr80 2.490 . S
O101 C82 1.225 . S
O102 Pr80 2.695 . S
O102 Pr81 2.436 . S
O102 C89 1.270 . S
O103 Pr80 2.512 . S
O103 C89 1.248 . S
O104 Pr81 2.438 . S
O104 C90 1.267 . S
O105 Pr80 2.437 . S
O105 C90 1.278 . S
O106 Pr81 2.562 . S
O106 C91 1.254 1_655 S
O107 Pr81 2.490 . S
O107 C91 1.225 1_655 S
O108 Pr80 2.436 . S
O108 Pr81 2.695 . S
O108 C98 1.270 . S
O109 Pr81 2.512 . S
O109 C98 1.248 . S
O110 Pr80 2.438 . S
O110 C99 1.267 . S
O111 Pr81 2.437 . S
O111 C99 1.278 . S
H112 C84 0.929 . S
H113 C85 0.929 . S
H114 C87 0.931 . S
H115 C88 0.930 . S
H116 C93 0.929 . S
H117 C94 0.929 . S
H118 C96 0.931 . S
H119 C97 0.930 . S
Pr120 C122 2.880 1_545 S
Pr120 O140 2.562 . S
Pr120 O141 2.490 . S
Pr120 O142 2.695 . S
Pr120 O143 2.512 . S
Pr120 O145 2.437 . S
Pr120 O148 2.436 . S
Pr120 O150 2.438 . S
Pr121 C131 2.880 . S
Pr121 O142 2.436 . S
Pr121 O144 2.438 . S
Pr121 O146 2.562 . S
Pr121 O147 2.490 . S
Pr121 O148 2.695 . S
Pr121 O149 2.512 . S
Pr121 O151 2.437 . S
C122 Pr120 2.880 1_565 S
C122 C123 1.491 . S
C122 O140 1.254 1_565 S
C122 O141 1.225 1_565 S
C123 C122 1.491 . S
C123 C124 1.392 . S
C123 C128 1.356 . S
C124 C123 1.392 . S
C124 C125 1.368 . S
C124 H152 0.929 . S
C125 C124 1.368 . S
C125 C126 1.386 . S
C125 H153 0.929 . S
C126 C125 1.386 . S
C126 C127 1.373 . S
C127 C126 1.373 . S
C127 C128 1.409 . S
C127 H154 0.931 . S
C128 C123 1.356 . S
C128 C127 1.409 . S
C128 H155 0.930 . S
C129 O142 1.270 . S
C129 O143 1.248 . S
C130 O144 1.267 . S
C130 O145 1.278 . S
C131 Pr121 2.880 . S
C131 C132 1.491 . S
C131 O146 1.254 . S
C131 O147 1.225 . S
C132 C131 1.491 . S
C132 C133 1.392 . S
C132 C137 1.356 . S
C133 C132 1.392 . S
C133 C134 1.368 . S
C133 H156 0.929 . S
C134 C133 1.368 . S
C134 C135 1.386 . S
C134 H157 0.929 . S
C135 C134 1.386 . S
C135 C136 1.373 . S
C136 C135 1.373 . S
C136 C137 1.409 . S
C136 H158 0.931 . S
C137 C132 1.356 . S
C137 C136 1.409 . S
C137 H159 0.930 . S
C138 O148 1.270 . S
C138 O149 1.248 . S
C139 O150 1.267 . S
C139 O151 1.278 . S
O140 Pr120 2.562 . S
O140 C122 1.254 1_545 S
O141 Pr120 2.490 . S
O141 C122 1.225 1_545 S
O142 Pr120 2.695 . S
O142 Pr121 2.436 . S
O142 C129 1.270 . S
O143 Pr120 2.512 . S
O143 C129 1.248 . S
O144 Pr121 2.438 . S
O144 C130 1.267 . S
O145 Pr120 2.437 . S
O145 C130 1.278 . S
O146 Pr121 2.562 . S
O146 C131 1.254 . S
O147 Pr121 2.490 . S
O147 C131 1.225 . S
O148 Pr120 2.436 . S
O148 Pr121 2.695 . S
O148 C138 1.270 . S
O149 Pr121 2.512 . S
O149 C138 1.248 . S
O150 Pr120 2.438 . S
O150 C139 1.267 . S
O151 Pr121 2.437 . S
O151 C139 1.278 . S
H152 C124 0.929 . S
H153 C125 0.929 . S
H154 C127 0.931 . S
H155 C128 0.930 . S
H156 C133 0.929 . S
H157 C134 0.929 . S
H158 C136 0.931 . S
H159 C137 0.930 . S
Pr160 C162 2.880 . S
Pr160 O180 2.562 . S
Pr160 O181 2.490 . S
Pr160 O182 2.695 . S
Pr160 O183 2.512 . S
Pr160 O185 2.437 . S
Pr160 O188 2.436 . S
Pr160 O190 2.438 . S
Pr161 C171 2.880 . S
Pr161 O182 2.436 . S
Pr161 O184 2.438 . S
Pr161 O186 2.562 . S
Pr161 O187 2.490 . S
Pr161 O188 2.695 . S
Pr161 O189 2.512 . S
Pr161 O191 2.437 . S
C162 Pr160 2.880 . S
C162 C163 1.491 . S
C162 O180 1.254 . S
C162 O181 1.225 . S
C163 C162 1.491 . S
C163 C164 1.392 . S
C163 C168 1.356 . S
C164 C163 1.392 . S
C164 C165 1.368 . S
C164 H192 0.929 . S
C165 C164 1.368 . S
C165 C166 1.386 . S
C165 H193 0.929 . S
C166 C165 1.386 . S
C166 C167 1.373 . S
C167 C166 1.373 . S
C167 C168 1.409 . S
C167 H194 0.931 . S
C168 C163 1.356 . S
C168 C167 1.409 . S
C168 H195 0.930 . S
C169 O182 1.270 . S
C169 O183 1.248 . S
C170 O184 1.267 . S
C170 O185 1.278 . S
C171 Pr161 2.880 . S
C171 C172 1.491 . S
C171 O186 1.254 . S
C171 O187 1.225 . S
C172 C171 1.491 . S
C172 C173 1.392 . S
C172 C177 1.356 . S
C173 C172 1.392 . S
C173 C174 1.368 . S
C173 H196 0.929 . S
C174 C173 1.368 . S
C174 C175 1.386 . S
C174 H197 0.929 . S
C175 C174 1.386 . S
C175 C176 1.373 . S
C176 C175 1.373 . S
C176 C177 1.409 . S
C176 H198 0.931 . S
C177 C172 1.356 . S
C177 C176 1.409 . S
C177 H199 0.930 . S
C178 O188 1.270 . S
C178 O189 1.248 . S
C179 O190 1.267 . S
C179 O191 1.278 . S
O180 Pr160 2.562 . S
O180 C162 1.254 . S
O181 Pr160 2.490 . S
O181 C162 1.225 . S
O182 Pr160 2.695 . S
O182 Pr161 2.436 . S
O182 C169 1.270 . S
O183 Pr160 2.512 . S
O183 C169 1.248 . S
O184 Pr161 2.438 . S
O184 C170 1.267 . S
O185 Pr160 2.437 . S
O185 C170 1.278 . S
O186 Pr161 2.562 . S
O186 C171 1.254 . S
O187 Pr161 2.490 . S
O187 C171 1.225 . S
O188 Pr160 2.436 . S
O188 Pr161 2.695 . S
O188 C178 1.270 . S
O189 Pr161 2.512 . S
O189 C178 1.248 . S
O190 Pr160 2.438 . S
O190 C179 1.267 . S
O191 Pr161 2.437 . S
O191 C179 1.278 . S
H192 C164 0.929 . S
H193 C165 0.929 . S
H194 C167 0.931 . S
H195 C168 0.930 . S
H196 C173 0.929 . S
H197 C174 0.929 . S
H198 C176 0.931 . S
H199 C177 0.930 . S
Pr200 C202 2.880 1_655 S
Pr200 O220 2.562 . S
Pr200 O221 2.490 . S
Pr200 O222 2.695 . S
Pr200 O223 2.512 . S
Pr200 O225 2.437 . S
Pr200 O228 2.436 . S
Pr200 O230 2.438 . S
Pr201 C211 2.880 . S
Pr201 O222 2.436 . S
Pr201 O224 2.438 . S
Pr201 O226 2.562 . S
Pr201 O227 2.490 . S
Pr201 O228 2.695 . S
Pr201 O229 2.512 . S
Pr201 O231 2.437 . S
C202 Pr200 2.880 1_455 S
C202 C203 1.491 . S
C202 O220 1.254 1_455 S
C202 O221 1.225 1_455 S
C203 C202 1.491 . S
C203 C204 1.392 . S
C203 C208 1.356 . S
C204 C203 1.392 . S
C204 C205 1.368 . S
C204 H232 0.929 . S
C205 C204 1.368 . S
C205 C206 1.386 . S
C205 H233 0.929 . S
C206 C205 1.386 . S
C206 C207 1.373 . S
C207 C206 1.373 . S
C207 C208 1.409 . S
C207 H234 0.931 . S
C208 C203 1.356 . S
C208 C207 1.409 . S
C208 H235 0.930 . S
C209 O222 1.270 . S
C209 O223 1.248 . S
C210 O224 1.267 . S
C210 O225 1.278 . S
C211 Pr201 2.880 . S
C211 C212 1.491 . S
C211 O226 1.254 . S
C211 O227 1.225 . S
C212 C211 1.491 . S
C212 C213 1.392 . S
C212 C217 1.356 . S
C213 C212 1.392 . S
C213 C214 1.368 . S
C213 H236 0.929 . S
C214 C213 1.368 . S
C214 C215 1.386 . S
C214 H237 0.929 . S
C215 C214 1.386 . S
C215 C216 1.373 . S
C216 C215 1.373 . S
C216 C217 1.409 . S
C216 H238 0.931 . S
C217 C212 1.356 . S
C217 C216 1.409 . S
C217 H239 0.930 . S
C218 O228 1.270 . S
C218 O229 1.248 . S
C219 O230 1.267 . S
C219 O231 1.278 . S
O220 Pr200 2.562 . S
O220 C202 1.254 1_655 S
O221 Pr200 2.490 . S
O221 C202 1.225 1_655 S
O222 Pr200 2.695 . S
O222 Pr201 2.436 . S
O222 C209 1.270 . S
O223 Pr200 2.512 . S
O223 C209 1.248 . S
O224 Pr201 2.438 . S
O224 C210 1.267 . S
O225 Pr200 2.437 . S
O225 C210 1.278 . S
O226 Pr201 2.562 . S
O226 C211 1.254 . S
O227 Pr201 2.490 . S
O227 C211 1.225 . S
O228 Pr200 2.436 . S
O228 Pr201 2.695 . S
O228 C218 1.270 . S
O229 Pr201 2.512 . S
O229 C218 1.248 . S
O230 Pr200 2.438 . S
O230 C219 1.267 . S
O231 Pr201 2.437 . S
O231 C219 1.278 . S
H232 C204 0.929 . S
H233 C205 0.929 . S
H234 C207 0.931 . S
H235 C208 0.930 . S
H236 C213 0.929 . S
H237 C214 0.929 . S
H238 C216 0.931 . S
H239 C217 0.930 . S
Pr240 C242 2.880 1_455 S
Pr240 O260 2.562 . S
Pr240 O261 2.490 . S
Pr240 O262 2.695 . S
Pr240 O263 2.512 . S
Pr240 O265 2.437 . S
Pr240 O268 2.436 . S
Pr240 O270 2.438 . S
Pr241 C251 2.880 . S
Pr241 O262 2.436 . S
Pr241 O264 2.438 . S
Pr241 O266 2.562 . S
Pr241 O267 2.490 . S
Pr241 O268 2.695 . S
Pr241 O269 2.512 . S
Pr241 O271 2.437 . S
C242 Pr240 2.880 1_655 S
C242 C243 1.491 . S
C242 O260 1.254 1_655 S
C242 O261 1.225 1_655 S
C243 C242 1.491 . S
C243 C244 1.392 . S
C243 C248 1.356 . S
C244 C243 1.392 . S
C244 C245 1.368 . S
C244 H272 0.929 . S
C245 C244 1.368 . S
C245 C246 1.386 . S
C245 H273 0.929 . S
C246 C245 1.386 . S
C246 C247 1.373 . S
C247 C246 1.373 . S
C247 C248 1.409 . S
C247 H274 0.931 . S
C248 C243 1.356 . S
C248 C247 1.409 . S
C248 H275 0.930 . S
C249 O262 1.270 . S
C249 O263 1.248 . S
C250 O264 1.267 . S
C250 O265 1.278 . S
C251 Pr241 2.880 . S
C251 C252 1.491 . S
C251 O266 1.254 . S
C251 O267 1.225 . S
C252 C251 1.491 . S
C252 C253 1.392 . S
C252 C257 1.356 . S
C253 C252 1.392 . S
C253 C254 1.368 . S
C253 H276 0.929 . S
C254 C253 1.368 . S
C254 C255 1.386 . S
C254 H277 0.929 . S
C255 C254 1.386 . S
C255 C256 1.373 . S
C256 C255 1.373 . S
C256 C257 1.409 . S
C256 H278 0.931 . S
C257 C252 1.356 . S
C257 C256 1.409 . S
C257 H279 0.930 . S
C258 O268 1.270 . S
C258 O269 1.248 . S
C259 O270 1.267 . S
C259 O271 1.278 . S
O260 Pr240 2.562 . S
O260 C242 1.254 1_455 S
O261 Pr240 2.490 . S
O261 C242 1.225 1_455 S
O262 Pr240 2.695 . S
O262 Pr241 2.436 . S
O262 C249 1.270 . S
O263 Pr240 2.512 . S
O263 C249 1.248 . S
O264 Pr241 2.438 . S
O264 C250 1.267 . S
O265 Pr240 2.437 . S
O265 C250 1.278 . S
O266 Pr241 2.562 . S
O266 C251 1.254 . S
O267 Pr241 2.490 . S
O267 C251 1.225 . S
O268 Pr240 2.436 . S
O268 Pr241 2.695 . S
O268 C258 1.270 . S
O269 Pr241 2.512 . S
O269 C258 1.248 . S
O270 Pr240 2.438 . S
O270 C259 1.267 . S
O271 Pr241 2.437 . S
O271 C259 1.278 . S
H272 C244 0.929 . S
H273 C245 0.929 . S
H274 C247 0.931 . S
H275 C248 0.930 . S
H276 C253 0.929 . S
H277 C254 0.929 . S
H278 C256 0.931 . S
H279 C257 0.930 . S
Pr280 C282 2.880 . S
Pr280 O300 2.562 . S
Pr280 O301 2.490 . S
Pr280 O302 2.695 . S
Pr280 O303 2.512 . S
Pr280 O305 2.437 . S
Pr280 O308 2.436 . S
Pr280 O310 2.438 . S
Pr281 C291 2.880 1_565 S
Pr281 O302 2.436 . S
Pr281 O304 2.438 . S
Pr281 O306 2.562 . S
Pr281 O307 2.490 . S
Pr281 O308 2.695 . S
Pr281 O309 2.512 . S
Pr281 O311 2.437 . S
C282 Pr280 2.880 . S
C282 C283 1.491 . S
C282 O300 1.254 . S
C282 O301 1.225 . S
C283 C282 1.491 . S
C283 C284 1.392 . S
C283 C288 1.356 . S
C284 C283 1.392 . S
C284 C285 1.368 . S
C284 H312 0.929 . S
C285 C284 1.368 . S
C285 C286 1.386 . S
C285 H313 0.929 . S
C286 C285 1.386 . S
C286 C287 1.373 . S
C287 C286 1.373 . S
C287 C288 1.409 . S
C287 H314 0.931 . S
C288 C283 1.356 . S
C288 C287 1.409 . S
C288 H315 0.930 . S
C289 O302 1.270 . S
C289 O303 1.248 . S
C290 O304 1.267 . S
C290 O305 1.278 . S
C291 Pr281 2.880 1_545 S
C291 C292 1.491 . S
C291 O306 1.254 1_545 S
C291 O307 1.225 1_545 S
C292 C291 1.491 . S
C292 C293 1.392 . S
C292 C297 1.356 . S
C293 C292 1.392 . S
C293 C294 1.368 . S
C293 H316 0.929 . S
C294 C293 1.368 . S
C294 C295 1.386 . S
C294 H317 0.929 . S
C295 C294 1.386 . S
C295 C296 1.373 . S
C296 C295 1.373 . S
C296 C297 1.409 . S
C296 H318 0.931 . S
C297 C292 1.356 . S
C297 C296 1.409 . S
C297 H319 0.930 . S
C298 O308 1.270 . S
C298 O309 1.248 . S
C299 O310 1.267 . S
C299 O311 1.278 . S
O300 Pr280 2.562 . S
O300 C282 1.254 . S
O301 Pr280 2.490 . S
O301 C282 1.225 . S
O302 Pr280 2.695 . S
O302 Pr281 2.436 . S
O302 C289 1.270 . S
O303 Pr280 2.512 . S
O303 C289 1.248 . S
O304 Pr281 2.438 . S
O304 C290 1.267 . S
O305 Pr280 2.437 . S
O305 C290 1.278 . S
O306 Pr281 2.562 . S
O306 C291 1.254 1_565 S
O307 Pr281 2.490 . S
O307 C291 1.225 1_565 S
O308 Pr280 2.436 . S
O308 Pr281 2.695 . S
O308 C298 1.270 . S
O309 Pr281 2.512 . S
O309 C298 1.248 . S
O310 Pr280 2.438 . S
O310 C299 1.267 . S
O311 Pr281 2.437 . S
O311 C299 1.278 . S
H312 C284 0.929 . S
H313 C285 0.929 . S
H314 C287 0.931 . S
H315 C288 0.930 . S
H316 C293 0.929 . S
H317 C294 0.929 . S
H318 C296 0.931 . S
H319 C297 0.930 . S
Pr320 C322 2.880 . S
Pr320 O340 2.562 . S
Pr320 O341 2.490 . S
Pr320 O342 2.695 . S
Pr320 O343 2.512 . S
Pr320 O345 2.437 . S
Pr320 O348 2.436 . S
Pr320 O350 2.438 . S
Pr321 C331 2.880 . S
Pr321 O342 2.436 . S
Pr321 O344 2.438 . S
Pr321 O346 2.562 . S
Pr321 O347 2.490 . S
Pr321 O348 2.695 . S
Pr321 O349 2.512 . S
Pr321 O351 2.437 . S
C322 Pr320 2.880 . S
C322 C323 1.491 . S
C322 O340 1.254 . S
C322 O341 1.225 . S
C323 C322 1.491 . S
C323 C324 1.392 . S
C323 C328 1.356 . S
C324 C323 1.392 . S
C324 C325 1.368 . S
C324 H352 0.929 . S
C325 C324 1.368 . S
C325 C326 1.386 . S
C325 H353 0.929 . S
C326 C325 1.386 . S
C326 C327 1.373 . S
C327 C326 1.373 . S
C327 C328 1.409 . S
C327 H354 0.931 . S
C328 C323 1.356 . S
C328 C327 1.409 . S
C328 H355 0.930 . S
C329 O342 1.270 . S
C329 O343 1.248 . S
C330 O344 1.267 . S
C330 O345 1.278 . S
C331 Pr321 2.880 . S
C331 C332 1.491 . S
C331 O346 1.254 . S
C331 O347 1.225 . S
C332 C331 1.491 . S
C332 C333 1.392 . S
C332 C337 1.356 . S
C333 C332 1.392 . S
C333 C334 1.368 . S
C333 H356 0.929 . S
C334 C333 1.368 . S
C334 C335 1.386 . S
C334 H357 0.929 . S
C335 C334 1.386 . S
C335 C336 1.373 . S
C336 C335 1.373 . S
C336 C337 1.409 . S
C336 H358 0.931 . S
C337 C332 1.356 . S
C337 C336 1.409 . S
C337 H359 0.930 . S
C338 O348 1.270 . S
C338 O349 1.248 . S
C339 O350 1.267 . S
C339 O351 1.278 . S
O340 Pr320 2.562 . S
O340 C322 1.254 . S
O341 Pr320 2.490 . S
O341 C322 1.225 . S
O342 Pr320 2.695 . S
O342 Pr321 2.436 . S
O342 C329 1.270 . S
O343 Pr320 2.512 . S
O343 C329 1.248 . S
O344 Pr321 2.438 . S
O344 C330 1.267 . S
O345 Pr320 2.437 . S
O345 C330 1.278 . S
O346 Pr321 2.562 . S
O346 C331 1.254 . S
O347 Pr321 2.490 . S
O347 C331 1.225 . S
O348 Pr320 2.436 . S
O348 Pr321 2.695 . S
O348 C338 1.270 . S
O349 Pr321 2.512 . S
O349 C338 1.248 . S
O350 Pr320 2.438 . S
O350 C339 1.267 . S
O351 Pr321 2.437 . S
O351 C339 1.278 . S
H352 C324 0.929 . S
H353 C325 0.929 . S
H354 C327 0.931 . S
H355 C328 0.930 . S
H356 C333 0.929 . S
H357 C334 0.929 . S
H358 C336 0.931 . S
H359 C337 0.930 . S
Pr360 C362 2.880 . S
Pr360 O380 2.562 . S
Pr360 O381 2.490 . S
Pr360 O382 2.695 . S
Pr360 O383 2.512 . S
Pr360 O385 2.437 . S
Pr360 O388 2.436 . S
Pr360 O390 2.438 . S
Pr361 C371 2.880 1_455 S
Pr361 O382 2.436 . S
Pr361 O384 2.438 . S
Pr361 O386 2.562 . S
Pr361 O387 2.490 . S
Pr361 O388 2.695 . S
Pr361 O389 2.512 . S
Pr361 O391 2.437 . S
C362 Pr360 2.880 . S
C362 C363 1.491 . S
C362 O380 1.254 . S
C362 O381 1.225 . S
C363 C362 1.491 . S
C363 C364 1.392 . S
C363 C368 1.356 . S
C364 C363 1.392 . S
C364 C365 1.368 . S
C364 H392 0.929 . S
C365 C364 1.368 . S
C365 C366 1.386 . S
C365 H393 0.929 . S
C366 C365 1.386 . S
C366 C367 1.373 . S
C367 C366 1.373 . S
C367 C368 1.409 . S
C367 H394 0.931 . S
C368 C363 1.356 . S
C368 C367 1.409 . S
C368 H395 0.930 . S
C369 O382 1.270 . S
C369 O383 1.248 . S
C370 O384 1.267 . S
C370 O385 1.278 . S
C371 Pr361 2.880 1_655 S
C371 C372 1.491 . S
C371 O386 1.254 1_655 S
C371 O387 1.225 1_655 S
C372 C371 1.491 . S
C372 C373 1.392 . S
C372 C377 1.356 . S
C373 C372 1.392 . S
C373 C374 1.368 . S
C373 H396 0.929 . S
C374 C373 1.368 . S
C374 C375 1.386 . S
C374 H397 0.929 . S
C375 C374 1.386 . S
C375 C376 1.373 . S
C376 C375 1.373 . S
C376 C377 1.409 . S
C376 H398 0.931 . S
C377 C372 1.356 . S
C377 C376 1.409 . S
C377 H399 0.930 . S
C378 O388 1.270 . S
C378 O389 1.248 . S
C379 O390 1.267 . S
C379 O391 1.278 . S
O380 Pr360 2.562 . S
O380 C362 1.254 . S
O381 Pr360 2.490 . S
O381 C362 1.225 . S
O382 Pr360 2.695 . S
O382 Pr361 2.436 . S
O382 C369 1.270 . S
O383 Pr360 2.512 . S
O383 C369 1.248 . S
O384 Pr361 2.438 . S
O384 C370 1.267 . S
O385 Pr360 2.437 . S
O385 C370 1.278 . S
O386 Pr361 2.562 . S
O386 C371 1.254 1_455 S
O387 Pr361 2.490 . S
O387 C371 1.225 1_455 S
O388 Pr360 2.436 . S
O388 Pr361 2.695 . S
O388 C378 1.270 . S
O389 Pr361 2.512 . S
O389 C378 1.248 . S
O390 Pr360 2.438 . S
O390 C379 1.267 . S
O391 Pr361 2.437 . S
O391 C379 1.278 . S
H392 C364 0.929 . S
H393 C365 0.929 . S
H394 C367 0.931 . S
H395 C368 0.930 . S
H396 C373 0.929 . S
H397 C374 0.929 . S
H398 C376 0.931 . S
H399 C377 0.930 . S
Pr400 C402 2.880 1_565 S
Pr400 O420 2.562 . S
Pr400 O421 2.490 . S
Pr400 O422 2.695 . S
Pr400 O423 2.512 . S
Pr400 O425 2.437 . S
Pr400 O428 2.436 . S
Pr400 O430 2.438 . S
Pr401 C411 2.880 . S
Pr401 O422 2.436 . S
Pr401 O424 2.438 . S
Pr401 O426 2.562 . S
Pr401 O427 2.490 . S
Pr401 O428 2.695 . S
Pr401 O429 2.512 . S
Pr401 O431 2.437 . S
C402 Pr400 2.880 1_545 S
C402 C403 1.491 . S
C402 O420 1.254 1_545 S
C402 O421 1.225 1_545 S
C403 C402 1.491 . S
C403 C404 1.392 . S
C403 C408 1.356 . S
C404 C403 1.392 . S
C404 C405 1.368 . S
C404 H432 0.929 . S
C405 C404 1.368 . S
C405 C406 1.386 . S
C405 H433 0.929 . S
C406 C405 1.386 . S
C406 C407 1.373 . S
C407 C406 1.373 . S
C407 C408 1.409 . S
C407 H434 0.931 . S
C408 C403 1.356 . S
C408 C407 1.409 . S
C408 H435 0.930 . S
C409 O422 1.270 . S
C409 O423 1.248 . S
C410 O424 1.267 . S
C410 O425 1.278 . S
C411 Pr401 2.880 . S
C411 C412 1.491 . S
C411 O426 1.254 . S
C411 O427 1.225 . S
C412 C411 1.491 . S
C412 C413 1.392 . S
C412 C417 1.356 . S
C413 C412 1.392 . S
C413 C414 1.368 . S
C413 H436 0.929 . S
C414 C413 1.368 . S
C414 C415 1.386 . S
C414 H437 0.929 . S
C415 C414 1.386 . S
C415 C416 1.373 . S
C416 C415 1.373 . S
C416 C417 1.409 . S
C416 H438 0.931 . S
C417 C412 1.356 . S
C417 C416 1.409 . S
C417 H439 0.930 . S
C418 O428 1.270 . S
C418 O429 1.248 . S
C419 O430 1.267 . S
C419 O431 1.278 . S
O420 Pr400 2.562 . S
O420 C402 1.254 1_565 S
O421 Pr400 2.490 . S
O421 C402 1.225 1_565 S
O422 Pr400 2.695 . S
O422 Pr401 2.436 . S
O422 C409 1.270 . S
O423 Pr400 2.512 . S
O423 C409 1.248 . S
O424 Pr401 2.438 . S
O424 C410 1.267 . S
O425 Pr400 2.437 . S
O425 C410 1.278 . S
O426 Pr401 2.562 . S
O426 C411 1.254 . S
O427 Pr401 2.490 . S
O427 C411 1.225 . S
O428 Pr400 2.436 . S
O428 Pr401 2.695 . S
O428 C418 1.270 . S
O429 Pr401 2.512 . S
O429 C418 1.248 . S
O430 Pr400 2.438 . S
O430 C419 1.267 . S
O431 Pr401 2.437 . S
O431 C419 1.278 . S
H432 C404 0.929 . S
H433 C405 0.929 . S
H434 C407 0.931 . S
H435 C408 0.930 . S
H436 C413 0.929 . S
H437 C414 0.929 . S
H438 C416 0.931 . S
H439 C417 0.930 . S
Pr440 C442 2.880 . S
Pr440 O460 2.562 . S
Pr440 O461 2.490 . S
Pr440 O462 2.695 . S
Pr440 O463 2.512 . S
Pr440 O465 2.437 . S
Pr440 O468 2.436 . S
Pr440 O470 2.438 . S
Pr441 C451 2.880 . S
Pr441 O462 2.436 . S
Pr441 O464 2.438 . S
Pr441 O466 2.562 . S
Pr441 O467 2.490 . S
Pr441 O468 2.695 . S
Pr441 O469 2.512 . S
Pr441 O471 2.437 . S
C442 Pr440 2.880 . S
C442 C443 1.491 . S
C442 O460 1.254 . S
C442 O461 1.225 . S
C443 C442 1.491 . S
C443 C444 1.392 . S
C443 C448 1.356 . S
C444 C443 1.392 . S
C444 C445 1.368 . S
C444 H472 0.929 . S
C445 C444 1.368 . S
C445 C446 1.386 . S
C445 H473 0.929 . S
C446 C445 1.386 . S
C446 C447 1.373 . S
C447 C446 1.373 . S
C447 C448 1.409 . S
C447 H474 0.931 . S
C448 C443 1.356 . S
C448 C447 1.409 . S
C448 H475 0.930 . S
C449 O462 1.270 . S
C449 O463 1.248 . S
C450 O464 1.267 . S
C450 O465 1.278 . S
C451 Pr441 2.880 . S
C451 C452 1.491 . S
C451 O466 1.254 . S
C451 O467 1.225 . S
C452 C451 1.491 . S
C452 C453 1.392 . S
C452 C457 1.356 . S
C453 C452 1.392 . S
C453 C454 1.368 . S
C453 H476 0.929 . S
C454 C453 1.368 . S
C454 C455 1.386 . S
C454 H477 0.929 . S
C455 C454 1.386 . S
C455 C456 1.373 . S
C456 C455 1.373 . S
C456 C457 1.409 . S
C456 H478 0.931 . S
C457 C452 1.356 . S
C457 C456 1.409 . S
C457 H479 0.930 . S
C458 O468 1.270 . S
C458 O469 1.248 . S
C459 O470 1.267 . S
C459 O471 1.278 . S
O460 Pr440 2.562 . S
O460 C442 1.254 . S
O461 Pr440 2.490 . S
O461 C442 1.225 . S
O462 Pr440 2.695 . S
O462 Pr441 2.436 . S
O462 C449 1.270 . S
O463 Pr440 2.512 . S
O463 C449 1.248 . S
O464 Pr441 2.438 . S
O464 C450 1.267 . S
O465 Pr440 2.437 . S
O465 C450 1.278 . S
O466 Pr441 2.562 . S
O466 C451 1.254 . S
O467 Pr441 2.490 . S
O467 C451 1.225 . S
O468 Pr440 2.436 . S
O468 Pr441 2.695 . S
O468 C458 1.270 . S
O469 Pr441 2.512 . S
O469 C458 1.248 . S
O470 Pr440 2.438 . S
O470 C459 1.267 . S
O471 Pr441 2.437 . S
O471 C459 1.278 . S
H472 C444 0.929 . S
H473 C445 0.929 . S
H474 C447 0.931 . S
H475 C448 0.930 . S
H476 C453 0.929 . S
H477 C454 0.929 . S
H478 C456 0.931 . S
H479 C457 0.930 . S
C480 C481 1.369 . S
C480 C482 1.419 . S
C480 H484 0.930 . S
C481 C480 1.369 . S
C481 C490 1.429 . S
C482 C480 1.419 . S
C482 C483 1.363 . S
C482 H485 0.929 . S
C483 C482 1.363 . S
C483 C489 1.428 . S
H484 C480 0.930 . S
H485 C482 0.929 . S
S486 N487 1.613 . S
S486 N488 1.610 . S
N487 S486 1.613 . S
N487 C490 1.350 . S
N488 S486 1.610 . S
N488 C489 1.351 . S
C489 C483 1.428 . S
C489 N488 1.351 . S
C489 C490 1.434 . S
C490 C481 1.429 . S
C490 N487 1.350 . S
C490 C489 1.434 . S
C491 C492 1.369 . S
C491 C493 1.419 1_455 S
C491 H495 0.930 . S
C492 C491 1.369 . S
C492 C501 1.429 1_455 S
C493 C491 1.419 1_655 S
C493 C494 1.363 . S
C493 H496 0.929 . S
C494 C493 1.363 . S
C494 C500 1.428 . S
H495 C491 0.930 . S
H496 C493 0.929 . S
S497 N498 1.626 . S
S497 N499 1.610 . S
N498 S497 1.626 . S
N498 C501 1.346 . S
N499 S497 1.610 . S
N499 C500 1.351 . S
C500 C494 1.428 . S
C500 N499 1.351 . S
C500 C501 1.434 . S
C501 C492 1.429 1_655 S
C501 N498 1.346 . S
C501 C500 1.434 . S
C502 C503 1.369 . S
C502 C504 1.419 . S
C502 H506 0.930 . S
C503 C502 1.369 . S
C503 C512 1.429 . S
C504 C502 1.419 . S
C504 C505 1.363 1_545 S
C504 H507 0.929 . S
C505 C504 1.363 1_565 S
C505 C511 1.428 . S
H506 C502 0.930 . S
H507 C504 0.929 . S
S508 N509 1.613 1_565 S
S508 N510 1.610 . S
N509 S508 1.613 1_545 S
N509 C512 1.350 . S
N510 S508 1.610 . S
N510 C511 1.351 . S
C511 C505 1.428 . S
C511 N510 1.351 . S
C511 C512 1.434 1_565 S
C512 C503 1.429 . S
C512 N509 1.350 . S
C512 C511 1.434 1_545 S
C513 C514 1.369 . S
C513 C515 1.419 . S
C513 H517 0.930 . S
C514 C513 1.369 . S
C514 C523 1.429 . S
C515 C513 1.419 . S
C515 C516 1.363 . S
C515 H518 0.929 . S
C516 C515 1.363 . S
C516 C522 1.428 . S
H517 C513 0.930 . S
H518 C515 0.929 . S
S519 N520 1.613 . S
S519 N521 1.610 . S
N520 S519 1.613 . S
N520 C523 1.350 . S
N521 S519 1.610 . S
N521 C522 1.351 . S
C522 C516 1.428 . S
C522 N521 1.351 . S
C522 C523 1.434 . S
C523 C514 1.429 . S
C523 N520 1.350 . S
C523 C522 1.434 . S
C524 C525 1.369 1_655 S
C524 C526 1.419 . S
C524 H528 0.930 . S
C525 C524 1.369 1_455 S
C525 C534 1.429 . S
C526 C524 1.419 . S
C526 C527 1.363 . S
C526 H529 0.929 . S
C527 C526 1.363 . S
C527 C533 1.428 . S
H528 C524 0.930 . S
H529 C526 0.929 . S
S530 N531 1.612 1_655 S
S530 N532 1.619 . S
N531 S530 1.612 1_455 S
N531 C534 1.350 . S
N532 S530 1.619 . S
N532 C533 1.351 . S
C533 C527 1.428 . S
C533 N532 1.351 . S
C533 C534 1.434 1_655 S
C534 C525 1.429 . S
C534 N531 1.350 . S
C534 C533 1.434 1_455 S
C535 C536 1.369 1_545 S
C535 C537 1.419 . S
C535 H539 0.930 . S
C536 C535 1.369 1_565 S
C536 C545 1.429 . S
C537 C535 1.419 . S
C537 C538 1.363 . S
C537 H540 0.929 . S
C538 C537 1.363 . S
C538 C544 1.428 . S
H539 C535 0.930 . S
H540 C537 0.929 . S
S541 N542 1.613 . S
S541 N543 1.610 1_565 S
N542 S541 1.613 . S
N542 C545 1.350 . S
N543 S541 1.610 1_545 S
N543 C544 1.351 . S
C544 C538 1.428 . S
C544 N543 1.351 . S
C544 C545 1.434 1_545 S
C545 C536 1.429 . S
C545 N542 1.350 . S
C545 C544 1.434 1_565 S
C546 C547 1.369 . S
C546 C548 1.419 . S
C546 H550 0.930 . S
C547 C546 1.369 . S
C547 C556 1.429 . S
C548 C546 1.419 . S
C548 C549 1.363 . S
C548 H551 0.929 . S
C549 C548 1.363 . S
C549 C555 1.428 . S
H550 C546 0.930 . S
H551 C548 0.929 . S
S552 N553 1.613 . S
S552 N554 1.610 . S
N553 S552 1.613 . S
N553 C556 1.350 . S
N554 S552 1.610 . S
N554 C555 1.351 . S
C555 C549 1.428 . S
C555 N554 1.351 . S
C555 C556 1.434 . S
C556 C547 1.429 . S
C556 N553 1.350 . S
C556 C555 1.434 . S
C557 C558 1.369 . S
C557 C559 1.419 . S
C557 H561 0.930 . S
C558 C557 1.369 . S
C558 C567 1.429 . S
C559 C557 1.419 . S
C559 C560 1.363 1_455 S
C559 H562 0.929 . S
C560 C559 1.363 1_655 S
C560 C566 1.428 . S
H561 C557 0.930 . S
H562 C559 0.929 . S
S563 N564 1.613 1_655 S
S563 N565 1.610 . S
N564 S563 1.613 1_455 S
N564 C567 1.350 . S
N565 S563 1.610 . S
N565 C566 1.351 . S
C566 C560 1.428 . S
C566 N565 1.351 . S
C566 C567 1.434 1_655 S
C567 C558 1.429 . S
C567 N564 1.350 . S
C567 C566 1.434 1_455 S
C568 C569 1.369 . S
C568 C570 1.419 1_565 S
C568 H572 0.930 . S
C569 C568 1.369 . S
C569 C578 1.429 . S
C570 C568 1.419 1_545 S
C570 C571 1.363 . S
C570 H573 0.929 . S
C571 C570 1.363 . S
C571 C577 1.428 1_545 S
H572 C568 0.930 . S
H573 C570 0.929 . S
S574 N575 1.613 . S
S574 N576 1.610 . S
N575 S574 1.613 . S
N575 C578 1.350 . S
N576 S574 1.610 . S
N576 C577 1.351 . S
C577 C571 1.428 1_565 S
C577 N576 1.351 . S
C577 C578 1.434 . S
C578 C569 1.429 . S
C578 N575 1.350 . S
C578 C577 1.434 . S
C579 C580 1.369 . S
C579 C581 1.419 . S
C579 H583 0.930 . S
C580 C579 1.369 . S
C580 C589 1.429 . S
C581 C579 1.419 . S
C581 C582 1.363 . S
C581 H584 0.929 . S
C582 C581 1.363 . S
C582 C588 1.428 . S
H583 C579 0.930 . S
H584 C581 0.929 . S
S585 N586 1.613 . S
S585 N587 1.610 . S
N586 S585 1.613 . S
N586 C589 1.350 . S
N587 S585 1.610 . S
N587 C588 1.351 . S
C588 C582 1.428 . S
C588 N587 1.351 . S
C588 C589 1.434 . S
C589 C580 1.429 . S
C589 N586 1.350 . S
C589 C588 1.434 . S
C590 C591 1.369 . S
C590 C592 1.419 . S
C590 H594 0.930 . S
C591 C590 1.369 . S
C591 C600 1.429 . S
C592 C590 1.419 . S
C592 C593 1.363 1_455 S
C592 H595 0.929 1_455 S
C593 C592 1.363 1_655 S
C593 C599 1.428 1_655 S
H594 C590 0.930 . S
H595 C592 0.929 1_655 S
S596 N597 1.613 . S
S596 N598 1.610 1_455 S
N597 S596 1.613 . S
N597 C600 1.350 . S
N598 S596 1.610 1_655 S
N598 C599 1.351 1_655 S
C599 C593 1.428 1_455 S
C599 N598 1.351 1_455 S
C599 C600 1.434 . S
C600 C591 1.429 . S
C600 N597 1.350 . S
C600 C599 1.434 . S
C601 C602 1.369 . S
C601 C603 1.419 1_545 S
C601 H605 0.930 . S
C602 C601 1.369 . S
C602 C611 1.429 1_545 S
C603 C601 1.419 1_565 S
C603 C604 1.363 . S
C603 H606 0.929 . S
C604 C603 1.363 . S
C604 C610 1.428 . S
H605 C601 0.930 . S
H606 C603 0.929 . S
S607 N608 1.613 . S
S607 N609 1.610 . S
N608 S607 1.613 . S
N608 C611 1.350 . S
N609 S607 1.610 . S
N609 C610 1.351 . S
C610 C604 1.428 . S
C610 N609 1.351 . S
C610 C611 1.434 . S
C611 C602 1.429 1_565 S
C611 N608 1.350 . S
C611 C610 1.434 . S
C612 C613 1.369 . S
C612 C614 1.419 . S
C612 H616 0.930 . S
C613 C612 1.369 . S
C613 C622 1.429 . S
C614 C612 1.419 . S
C614 C615 1.363 . S
C614 H617 0.929 . S
C615 C614 1.363 . S
C615 C621 1.428 . S
H616 C612 0.930 . S
H617 C614 0.929 . S
S618 N619 1.613 . S
S618 N620 1.610 . S
N619 S618 1.613 . S
N619 C622 1.350 . S
N620 S618 1.610 . S
N620 C621 1.351 . S
C621 C615 1.428 . S
C621 N620 1.351 . S
C621 C622 1.434 . S
C622 C613 1.429 . S
C622 N619 1.350 . S
C622 C621 1.434 . S
C623 C624 1.369 . S
C623 C625 1.419 . S
C623 H627 0.930 . S
C624 C623 1.369 . S
C624 C633 1.429 . S
C625 C623 1.419 . S
C625 C626 1.363 . S
C625 H628 0.929 . S
C626 C625 1.363 . S
C626 C632 1.428 . S
H627 C623 0.930 . S
H628 C625 0.929 . S
S629 N630 1.613 . S
S629 N631 1.610 . S
N630 S629 1.613 . S
N630 C633 1.350 . S
N631 S629 1.610 . S
N631 C632 1.351 . S
C632 C626 1.428 . S
C632 N631 1.351 . S
C632 C633 1.434 . S
C633 C624 1.429 . S
C633 N630 1.350 . S
C633 C632 1.434 . S
C634 C635 1.369 . S
C634 C636 1.419 . S
C634 H638 0.930 . S
C635 C634 1.369 . S
C635 C644 1.429 . S
C636 C634 1.419 . S
C636 C637 1.363 . S
C636 H639 0.929 . S
C637 C636 1.363 . S
C637 C643 1.428 . S
H638 C634 0.930 . S
H639 C636 0.929 . S
S640 N641 1.613 . S
S640 N642 1.610 . S
N641 S640 1.613 . S
N641 C644 1.350 . S
N642 S640 1.610 . S
N642 C643 1.351 . S
C643 C637 1.428 . S
C643 N642 1.351 . S
C643 C644 1.434 . S
C644 C635 1.429 . S
C644 N641 1.350 . S
C644 C643 1.434 . S
C645 C646 1.369 . S
C645 C647 1.419 . S
C645 H649 0.930 . S
C646 C645 1.369 . S
C646 C655 1.429 . S
C647 C645 1.419 . S
C647 C648 1.363 . S
C647 H650 0.929 . S
C648 C647 1.363 . S
C648 C654 1.428 . S
H649 C645 0.930 . S
H650 C647 0.929 . S
S651 N652 1.613 . S
S651 N653 1.610 . S
N652 S651 1.613 . S
N652 C655 1.350 . S
N653 S651 1.610 . S
N653 C654 1.351 . S
C654 C648 1.428 . S
C654 N653 1.351 . S
C654 C655 1.434 . S
C655 C646 1.429 . S
C655 N652 1.350 . S
C655 C654 1.434 . S
C656 C657 1.369 . S
C656 C658 1.419 . S
C656 H660 0.930 . S
C657 C656 1.369 . S
C657 C666 1.429 . S
C658 C656 1.419 . S
C658 C659 1.363 . S
C658 H661 0.929 . S
C659 C658 1.363 . S
C659 C665 1.428 . S
H660 C656 0.930 . S
H661 C658 0.929 . S
S662 N663 1.613 . S
S662 N664 1.610 . S
N663 S662 1.613 . S
N663 C666 1.350 . S
N664 S662 1.610 . S
N664 C665 1.351 . S
C665 C659 1.428 . S
C665 N664 1.351 . S
C665 C666 1.434 . S
C666 C657 1.429 . S
C666 N663 1.350 . S
C666 C665 1.434 . S
C667 C668 1.369 . S
C667 C669 1.419 . S
C667 H671 0.930 . S
C668 C667 1.369 . S
C668 C677 1.429 . S
C669 C667 1.419 . S
C669 C670 1.363 . S
C669 H672 0.929 . S
C670 C669 1.363 . S
C670 C676 1.428 . S
H671 C667 0.930 . S
H672 C669 0.929 . S
S673 N674 1.613 . S
S673 N675 1.610 . S
N674 S673 1.613 . S
N674 C677 1.350 . S
N675 S673 1.610 . S
N675 C676 1.351 . S
C676 C670 1.428 . S
C676 N675 1.351 . S
C676 C677 1.434 . S
C677 C668 1.429 . S
C677 N674 1.350 . S
C677 C676 1.434 . S
C678 C679 1.369 . S
C678 C680 1.419 1_565 S
C678 H682 0.930 . S
C679 C678 1.369 . S
C679 C688 1.429 1_556 S
C680 C678 1.419 1_545 S
C680 C681 1.363 1_556 S
C680 H683 0.929 . S
C681 C680 1.363 1_554 S
C681 C687 1.428 . S
H682 C678 0.930 . S
H683 C680 0.929 . S
S684 N685 1.613 . S
S684 N686 1.610 1_565 S
N685 S684 1.613 . S
N685 C688 1.350 . S
N686 S684 1.610 1_545 S
N686 C687 1.351 . S
C687 C681 1.428 . S
C687 N686 1.351 . S
C687 C688 1.434 1_545 S
C688 C679 1.429 1_554 S
C688 N685 1.350 . S
C688 C687 1.434 1_565 S
C689 C690 1.369 . S
C689 C691 1.419 . S
C689 H693 0.930 . S
C690 C689 1.369 . S
C690 C699 1.429 . S
C691 C689 1.419 . S
C691 C692 1.363 . S
C691 H694 0.929 . S
C692 C691 1.363 . S
C692 C698 1.428 . S
H693 C689 0.930 . S
H694 C691 0.929 . S
S695 N696 1.613 . S
S695 N697 1.610 . S
N696 S695 1.613 . S
N696 C699 1.350 . S
N697 S695 1.610 . S
N697 C698 1.351 . S
C698 C692 1.428 . S
C698 N697 1.351 . S
C698 C699 1.434 . S
C699 C690 1.429 . S
C699 N696 1.350 . S
C699 C698 1.434 . S
C700 C701 1.369 . S
C700 C702 1.419 1_456 S
C700 H704 0.930 . S
C701 C700 1.369 . S
C701 C710 1.429 . S
C702 C700 1.419 1_654 S
C702 C703 1.363 . S
C702 H705 0.929 . S
C703 C702 1.363 . S
C703 C709 1.428 . S
H704 C700 0.930 . S
H705 C702 0.929 . S
S706 N707 1.612 . S
S706 N708 1.610 1_455 S
N707 S706 1.612 . S
N707 C710 1.350 1_554 S
N708 S706 1.610 1_655 S
N708 C709 1.351 . S
C709 C703 1.428 . S
C709 N708 1.351 . S
C709 C710 1.434 1_654 S
C710 C701 1.429 . S
C710 N707 1.350 1_556 S
C710 C709 1.434 1_456 S
C711 C712 1.369 . S
C711 C713 1.419 1_545 S
C711 H715 0.930 . S
C712 C711 1.369 . S
C712 C721 1.429 . S
C713 C711 1.419 1_565 S
C713 C714 1.363 . S
C713 H716 0.929 . S
C714 C713 1.363 . S
C714 C720 1.428 . S
H715 C711 0.930 . S
H716 C713 0.929 . S
S717 N718 1.613 . S
S717 N719 1.610 1_545 S
N718 S717 1.613 . S
N718 C721 1.350 . S
N719 S717 1.610 1_565 S
N719 C720 1.351 . S
C720 C714 1.428 . S
C720 N719 1.351 . S
C720 C721 1.434 1_565 S
C721 C712 1.429 . S
C721 N718 1.350 . S
C721 C720 1.434 1_545 S
C722 C723 1.369 . S
C722 C724 1.419 . S
C722 H726 0.930 . S
C723 C722 1.369 . S
C723 C732 1.429 1_554 S
C724 C722 1.419 . S
C724 C725 1.363 1_554 S
C724 H727 0.929 . S
C725 C724 1.363 1_556 S
C725 C731 1.428 . S
H726 C722 0.930 . S
H727 C724 0.929 . S
S728 N729 1.613 . S
S728 N730 1.610 . S
N729 S728 1.613 . S
N729 C732 1.350 . S
N730 S728 1.610 . S
N730 C731 1.351 . S
C731 C725 1.428 . S
C731 N730 1.351 . S
C731 C732 1.434 . S
C732 C723 1.429 1_556 S
C732 N729 1.350 . S
C732 C731 1.434 . S
C733 C734 1.369 . S
C733 C735 1.419 1_455 S
C733 H737 0.930 . S
C734 C733 1.369 . S
C734 C743 1.429 . S
C735 C733 1.419 1_655 S
C735 C736 1.363 . S
C735 H738 0.929 . S
C736 C735 1.363 . S
C736 C742 1.428 . S
H737 C733 0.930 . S
H738 C735 0.929 . S
S739 N740 1.613 . S
S739 N741 1.610 1_455 S
N740 S739 1.613 . S
N740 C743 1.350 . S
N741 S739 1.610 1_655 S
N741 C742 1.351 . S
C742 C736 1.428 . S
C742 N741 1.351 . S
C742 C743 1.434 1_655 S
C743 C734 1.429 . S
C743 N740 1.350 . S
C743 C742 1.434 1_455 S
C744 C745 1.369 . S
C744 C746 1.419 . S
C744 H748 0.930 . S
C745 C744 1.369 . S
C745 C754 1.429 . S
C746 C744 1.419 . S
C746 C747 1.363 . S
C746 H749 0.929 . S
C747 C746 1.363 . S
C747 C753 1.428 . S
H748 C744 0.930 . S
H749 C746 0.929 . S
S750 N751 1.613 . S
S750 N752 1.610 . S
N751 S750 1.613 . S
N751 C754 1.350 . S
N752 S750 1.610 . S
N752 C753 1.351 . S
C753 C747 1.428 . S
C753 N752 1.351 . S
C753 C754 1.434 . S
C754 C745 1.429 . S
C754 N751 1.350 . S
C754 C753 1.434 . S
C755 C756 1.369 . S
C755 C757 1.419 . S
C755 H759 0.930 . S
C756 C755 1.369 . S
C756 C765 1.429 . S
C757 C755 1.419 . S
C757 C758 1.363 . S
C757 H760 0.929 . S
C758 C757 1.363 . S
C758 C764 1.428 . S
H759 C755 0.930 . S
H760 C757 0.929 . S
S761 N762 1.613 . S
S761 N763 1.610 . S
N762 S761 1.613 . S
N762 C765 1.350 . S
N763 S761 1.610 . S
N763 C764 1.351 . S
C764 C758 1.428 . S
C764 N763 1.351 . S
C764 C765 1.434 . S
C765 C756 1.429 . S
C765 N762 1.350 . S
C765 C764 1.434 . S
C766 C767 1.369 . S
C766 C768 1.419 . S
C766 H770 0.930 . S
C767 C766 1.369 . S
C767 C776 1.429 . S
C768 C766 1.419 . S
C768 C769 1.363 . S
C768 H771 0.929 . S
C769 C768 1.363 . S
C769 C775 1.428 . S
H770 C766 0.930 . S
H771 C768 0.929 . S
S772 N773 1.613 . S
S772 N774 1.610 . S
N773 S772 1.613 . S
N773 C776 1.350 . S
N774 S772 1.610 . S
N774 C775 1.351 . S
C775 C769 1.428 . S
C775 N774 1.351 . S
C775 C776 1.434 . S
C776 C767 1.429 . S
C776 N773 1.350 . S
C776 C775 1.434 . S
C777 C778 1.369 . S
C777 C779 1.419 . S
C777 H781 0.930 . S
C778 C777 1.369 . S
C778 C787 1.429 . S
C779 C777 1.419 . S
C779 C780 1.363 . S
C779 H782 0.929 . S
C780 C779 1.363 . S
C780 C786 1.428 . S
H781 C777 0.930 . S
H782 C779 0.929 . S
S783 N784 1.613 . S
S783 N785 1.610 . S
N784 S783 1.613 . S
N784 C787 1.350 . S
N785 S783 1.610 . S
N785 C786 1.351 . S
C786 C780 1.428 . S
C786 N785 1.351 . S
C786 C787 1.434 . S
C787 C778 1.429 . S
C787 N784 1.350 . S
C787 C786 1.434 . S
C788 C789 1.369 . S
C788 C790 1.419 . S
C788 H792 0.930 . S
C789 C788 1.369 . S
C789 C798 1.429 . S
C790 C788 1.419 . S
C790 C791 1.363 . S
C790 H793 0.929 . S
C791 C790 1.363 . S
C791 C797 1.428 . S
H792 C788 0.930 . S
H793 C790 0.929 . S
S794 N795 1.613 . S
S794 N796 1.610 . S
N795 S794 1.613 . S
N795 C798 1.350 . S
N796 S794 1.610 . S
N796 C797 1.351 . S
C797 C791 1.428 . S
C797 N796 1.351 . S
C797 C798 1.434 . S
C798 C789 1.429 . S
C798 N795 1.350 . S
C798 C797 1.434 . S
C799 C800 1.369 . S
C799 C801 1.419 . S
C799 H803 0.930 . S
C800 C799 1.369 . S
C800 C809 1.429 . S
C801 C799 1.419 . S
C801 C802 1.363 . S
C801 H804 0.929 . S
C802 C801 1.363 . S
C802 C808 1.428 . S
H803 C799 0.930 . S
H804 C801 0.929 . S
S805 N806 1.613 . S
S805 N807 1.610 . S
N806 S805 1.613 . S
N806 C809 1.350 . S
N807 S805 1.610 . S
N807 C808 1.351 . S
C808 C802 1.428 . S
C808 N807 1.351 . S
C808 C809 1.434 . S
C809 C800 1.429 . S
C809 N806 1.350 . S
C809 C808 1.434 . S
C810 C811 1.369 . S
C810 C812 1.419 . S
C810 H814 0.930 . S
C811 C810 1.369 . S
C811 C820 1.429 . S
C812 C810 1.419 . S
C812 C813 1.363 . S
C812 H815 0.929 . S
C813 C812 1.363 . S
C813 C819 1.428 . S
H814 C810 0.930 . S
H815 C812 0.929 . S
S816 N817 1.613 . S
S816 N818 1.610 . S
N817 S816 1.613 . S
N817 C820 1.350 . S
N818 S816 1.610 . S
N818 C819 1.351 . S
C819 C813 1.428 . S
C819 N818 1.351 . S
C819 C820 1.434 . S
C820 C811 1.429 . S
C820 N817 1.350 . S
C820 C819 1.434 . S
C821 C822 1.369 . S
C821 C823 1.419 . S
C821 H825 0.930 . S
C822 C821 1.369 . S
C822 C831 1.429 . S
C823 C821 1.419 . S
C823 C824 1.363 . S
C823 H826 0.929 . S
C824 C823 1.363 . S
C824 C830 1.428 . S
H825 C821 0.930 . S
H826 C823 0.929 . S
S827 N828 1.613 . S
S827 N829 1.610 . S
N828 S827 1.613 . S
N828 C831 1.350 . S
N829 S827 1.610 . S
N829 C830 1.351 . S
C830 C824 1.428 . S
C830 N829 1.351 . S
C830 C831 1.434 . S
C831 C822 1.429 . S
C831 N828 1.350 . S
C831 C830 1.434 . S
C832 C833 1.369 . S
C832 C834 1.419 . S
C832 H836 0.930 . S
C833 C832 1.369 . S
C833 C842 1.429 . S
C834 C832 1.419 . S
C834 C835 1.363 . S
C834 H837 0.929 . S
C835 C834 1.363 . S
C835 C841 1.428 . S
H836 C832 0.930 . S
H837 C834 0.929 . S
S838 N839 1.613 . S
S838 N840 1.610 . S
N839 S838 1.613 . S
N839 C842 1.350 . S
N840 S838 1.610 . S
N840 C841 1.351 . S
C841 C835 1.428 . S
C841 N840 1.351 . S
C841 C842 1.434 . S
C842 C833 1.429 . S
C842 N839 1.350 . S
C842 C841 1.434 . S
C843 C844 1.369 . S
C843 C845 1.419 . S
C843 H847 0.930 . S
C844 C843 1.369 . S
C844 C853 1.429 . S
C845 C843 1.419 . S
C845 C846 1.363 . S
C845 H848 0.929 . S
C846 C845 1.363 . S
C846 C852 1.428 . S
H847 C843 0.930 . S
H848 C845 0.929 . S
S849 N850 1.613 . S
S849 N851 1.610 . S
N850 S849 1.613 . S
N850 C853 1.350 . S
N851 S849 1.610 . S
N851 C852 1.351 . S
C852 C846 1.428 . S
C852 N851 1.351 . S
C852 C853 1.434 . S
C853 C844 1.429 . S
C853 N850 1.350 . S
C853 C852 1.434 . S
C854 C855 1.369 . S
C854 C856 1.419 . S
C854 H858 0.930 . S
C855 C854 1.369 . S
C855 C864 1.429 . S
C856 C854 1.419 . S
C856 C857 1.363 . S
C856 H859 0.929 . S
C857 C856 1.363 . S
C857 C863 1.428 . S
H858 C854 0.930 . S
H859 C856 0.929 . S
S860 N861 1.613 . S
S860 N862 1.610 . S
N861 S860 1.613 . S
N861 C864 1.350 . S
N862 S860 1.610 . S
N862 C863 1.351 . S
C863 C857 1.428 . S
C863 N862 1.351 . S
C863 C864 1.434 . S
C864 C855 1.429 . S
C864 N861 1.350 . S
C864 C863 1.434 . S
C865 C866 1.369 . S
C865 C867 1.419 . S
C865 H869 0.930 . S
C866 C865 1.369 . S
C866 C875 1.429 . S
C867 C865 1.419 . S
C867 C868 1.363 . S
C867 H870 0.929 . S
C868 C867 1.363 . S
C868 C874 1.428 . S
H869 C865 0.930 . S
H870 C867 0.929 . S
S871 N872 1.613 . S
S871 N873 1.610 . S
N872 S871 1.613 . S
N872 C875 1.350 . S
N873 S871 1.610 . S
N873 C874 1.351 . S
C874 C868 1.428 . S
C874 N873 1.351 . S
C874 C875 1.434 . S
C875 C866 1.429 . S
C875 N872 1.350 . S
C875 C874 1.434 . S
C481 C95 1.429 . S
C483 C19 1.357 . S
C492 C126 1.423 . S
C494 C50 1.367 . S
C503 C99 1.357 . S
C505 C175 1.427 . S
C514 C130 1.367 . S
C516 C206 1.424 . S
C525 C15 1.426 . S
C527 C179 1.360 . S
C536 C46 1.423 . S
C538 C210 1.365 . S
C547 C406 1.425 . S
C549 C250 1.365 . S
C558 C299 1.365 . S
C560 C455 1.423 . S
C569 C330 1.358 . S
C571 C246 1.429 . S
C580 C379 1.364 . S
C582 C295 1.426 . S
C591 C410 1.357 . S
C593 C326 1.428 . S
C602 C375 1.430 . S
C604 C459 1.358 . S
C613 C129 1.673 . S
C615 C18 1.674 . S
C624 C49 1.677 . S
C626 C178 1.678 . S
C635 C98 1.683 . S
C637 C209 1.682 . S
C646 C249 1.680 . S
C648 C378 1.680 . S
C657 C298 1.683 . S
C659 C409 1.682 . S
C668 C329 1.678 . S
C670 C458 1.679 . S
C679 C289 2.576 . S
C681 C9 2.573 . S
C690 C58 2.576 . S
C692 C338 2.572 . S
C701 C369 2.575 . S
C703 C89 2.573 . S
C712 C138 2.576 . S
C714 C418 2.572 . S
C723 C169 2.576 . S
C725 C449 2.573 . S
C734 C258 2.574 . S
C736 C218 2.574 . S
C745 C86 1.822 . S
C747 C10 1.849 . S
C756 C59 1.846 . S
C758 C135 1.822 . S
C767 C90 1.851 . S
C769 C166 1.817 . S
C778 C139 1.851 . S
C780 C215 1.820 . S
C789 C6 1.818 . S
C791 C170 1.849 . S
C800 C55 1.817 . S
C802 C219 1.849 . S
C811 C415 1.817 . S
C813 C259 1.852 . S
C822 C290 1.852 . S
C824 C446 1.816 . S
C833 C339 1.845 . S
C835 C255 1.822 . S
C844 C286 1.817 . S
C846 C370 1.850 . S
C855 C419 1.851 . S
C857 C335 1.816 . S
C866 C450 1.846 . S
C868 C366 1.823 . S
