# Generated by pormake.
# Topology wfa, (4)-cn, num edge types: 1
# Building blocks:
#     Node 0, Type 0, BuildingBlock: KOZSID_clean_sbu_0, # of connection points: 4
#     Node 1, Type 0, BuildingBlock: KOZSID_clean_sbu_0, # of connection points: 4
#     Node 2, Type 0, BuildingBlock: KOZSID_clean_sbu_0, # of connection points: 4
#     Node 3, Type 0, BuildingBlock: KOZSID_clean_sbu_0, # of connection points: 4
#     Node 4, Type 0, BuildingBlock: KOZSID_clean_sbu_0, # of connection points: 4
#     Node 5, Type 0, BuildingBlock: KOZSID_clean_sbu_0, # of connection points: 4
#     Node 6, Type 0, BuildingBlock: KOZSID_clean_sbu_0, # of connection points: 4
#     Node 7, Type 0, BuildingBlock: KOZSID_clean_sbu_0, # of connection points: 4
#     Node 8, Type 0, BuildingBlock: KOZSID_clean_sbu_0, # of connection points: 4
#     Node 9, Type 0, BuildingBlock: KOZSID_clean_sbu_0, # of connection points: 4
#     Node 10, Type 0, BuildingBlock: KOZSID_clean_sbu_0, # of connection points: 4
#     Node 11, Type 0, BuildingBlock: KOZSID_clean_sbu_0, # of connection points: 4
#     Node 12, Type 0, BuildingBlock: KOZSID_clean_sbu_0, # of connection points: 4
#     Node 13, Type 0, BuildingBlock: KOZSID_clean_sbu_0, # of connection points: 4
#     Node 14, Type 0, BuildingBlock: KOZSID_clean_sbu_0, # of connection points: 4
#     Node 15, Type 0, BuildingBlock: KOZSID_clean_sbu_0, # of connection points: 4
#     Edge 16, Type (0, 0), BuildingBlock: UVAHIK_clean_linker_0, # of connection points: 2
#     Edge 17, Type (0, 0), BuildingBlock: UVAHIK_clean_linker_0, # of connection points: 2
#     Edge 18, Type (0, 0), BuildingBlock: UVAHIK_clean_linker_0, # of connection points: 2
#     Edge 19, Type (0, 0), BuildingBlock: UVAHIK_clean_linker_0, # of connection points: 2
#     Edge 20, Type (0, 0), BuildingBlock: UVAHIK_clean_linker_0, # of connection points: 2
#     Edge 21, Type (0, 0), BuildingBlock: UVAHIK_clean_linker_0, # of connection points: 2
#     Edge 22, Type (0, 0), BuildingBlock: UVAHIK_clean_linker_0, # of connection points: 2
#     Edge 23, Type (0, 0), BuildingBlock: UVAHIK_clean_linker_0, # of connection points: 2
#     Edge 24, Type (0, 0), BuildingBlock: UVAHIK_clean_linker_0, # of connection points: 2
#     Edge 25, Type (0, 0), BuildingBlock: UVAHIK_clean_linker_0, # of connection points: 2
#     Edge 26, Type (0, 0), BuildingBlock: UVAHIK_clean_linker_0, # of connection points: 2
#     Edge 27, Type (0, 0), BuildingBlock: UVAHIK_clean_linker_0, # of connection points: 2
#     Edge 28, Type (0, 0), BuildingBlock: UVAHIK_clean_linker_0, # of connection points: 2
#     Edge 29, Type (0, 0), BuildingBlock: UVAHIK_clean_linker_0, # of connection points: 2
#     Edge 30, Type (0, 0), BuildingBlock: UVAHIK_clean_linker_0, # of connection points: 2
#     Edge 31, Type (0, 0), BuildingBlock: UVAHIK_clean_linker_0, # of connection points: 2
#     Edge 32, Type (0, 0), BuildingBlock: UVAHIK_clean_linker_0, # of connection points: 2
#     Edge 33, Type (0, 0), BuildingBlock: UVAHIK_clean_linker_0, # of connection points: 2
#     Edge 34, Type (0, 0), BuildingBlock: UVAHIK_clean_linker_0, # of connection points: 2
#     Edge 35, Type (0, 0), BuildingBlock: UVAHIK_clean_linker_0, # of connection points: 2
#     Edge 36, Type (0, 0), BuildingBlock: UVAHIK_clean_linker_0, # of connection points: 2
#     Edge 37, Type (0, 0), BuildingBlock: UVAHIK_clean_linker_0, # of connection points: 2
#     Edge 38, Type (0, 0), BuildingBlock: UVAHIK_clean_linker_0, # of connection points: 2
#     Edge 39, Type (0, 0), BuildingBlock: UVAHIK_clean_linker_0, # of connection points: 2
#     Edge 40, Type (0, 0), BuildingBlock: UVAHIK_clean_linker_0, # of connection points: 2
#     Edge 41, Type (0, 0), BuildingBlock: UVAHIK_clean_linker_0, # of connection points: 2
#     Edge 42, Type (0, 0), BuildingBlock: UVAHIK_clean_linker_0, # of connection points: 2
#     Edge 43, Type (0, 0), BuildingBlock: UVAHIK_clean_linker_0, # of connection points: 2
#     Edge 44, Type (0, 0), BuildingBlock: UVAHIK_clean_linker_0, # of connection points: 2
#     Edge 45, Type (0, 0), BuildingBlock: UVAHIK_clean_linker_0, # of connection points: 2
#     Edge 46, Type (0, 0), BuildingBlock: UVAHIK_clean_linker_0, # of connection points: 2
#     Edge 47, Type (0, 0), BuildingBlock: UVAHIK_clean_linker_0, # of connection points: 2
# Relax obj value: 0.117
# Max RMSD: 0.252
# Mean RMSD: 0.207
data_MOF--net-wfa--node1-KOZSID_clean_sbu_0--edge1-UVAHIK_clean_linker_0
_symmetry_space_group_name_H-M    P1
_symmetry_Int_Tables_number       1
_symmetry_cell_setting            triclinic
loop_
_symmetry_equiv_pos_as_xyz
'x, y, z'
_cell_length_a     74.894648
_cell_length_b     77.416113
_cell_length_c     31.07921
_cell_angle_alpha  88.396251
_cell_angle_beta   88.393971
_cell_angle_gamma 88.865784
loop_
_atom_site_label
_atom_site_type_symbol
_atom_site_fract_x
_atom_site_fract_y
_atom_site_fract_z
_atom_type_partial_charge
C0 C 0.56765 0.01662 0.01122 0.0
C1 C 0.56295 0.0318 0.98926 0.0
C2 C 0.57798 0.04178 0.98692 0.0
C3 C 0.59098 0.03223 0.00772 0.0
N4 N 0.58499 0.0169 0.02266 0.0
Co5 Co 0.59843 0.99975 0.05828 0.0
N6 N 0.61538 0.01731 0.07637 0.0
C7 C 0.61827 0.0326 0.05583 0.0
C8 C 0.63139 0.04184 0.07417 0.0
C9 C 0.63727 0.03161 0.10789 0.0
C10 C 0.62735 0.01662 0.10836 0.0
N11 N 0.61155 0.98238 0.09401 0.0
C12 C 0.62352 0.9846 0.12525 0.0
C13 C 0.62939 0.96872 0.142 0.0
C14 C 0.62118 0.95624 0.11955 0.0
C15 C 0.61066 0.96511 0.09062 0.0
N16 N 0.58147 0.98239 0.03977 0.0
C17 C 0.58401 0.96517 0.04076 0.0
C18 C 0.56925 0.95658 0.02784 0.0
C19 C 0.5567 0.96926 0.01859 0.0
C20 C 0.56453 0.98488 0.02656 0.0
N21 N 0.6146 0.99481 0.00896 0.0
C22 C 0.63931 0.99369 0.93919 0.0
C23 C 0.64492 0.99224 0.98171 0.0
C24 C 0.6325 0.99291 0.01577 0.0
C25 C 0.62082 0.99446 0.93228 0.0
C26 C 0.60868 0.99491 0.96767 0.0
N27 N 0.58265 1.005 0.10737 0.0
C28 C 0.5639 0.99613 0.16793 0.0
C29 C 0.55965 0.01343 0.17597 0.0
C30 C 0.56714 0.02636 0.14948 0.0
C31 C 0.57869 0.02191 0.11568 0.0
C32 C 0.57538 0.99216 0.13305 0.0
H33 H 0.58438 0.0322 0.09614 0.0
H34 H 0.57837 0.97877 0.1268 0.0
H35 H 0.63764 0.99264 0.0477 0.0
H36 H 0.59456 0.99605 0.96166 0.0
C37 C 0.6069 0.03868 0.02324 0.0
C38 C 0.55585 1.0019 0.02051 0.0
C39 C 0.63114 1.0013 0.13607 0.0
C40 C 0.59811 0.95779 0.06414 0.0
H41 H 0.55002 0.03552 0.97708 0.0
H42 H 0.57889 0.05492 0.97435 0.0
H43 H 0.63596 0.0546 0.06468 0.0
H44 H 0.64795 0.03466 0.12899 0.0
H45 H 0.6389 0.96635 0.16717 0.0
H46 H 0.62245 0.94238 0.12445 0.0
H47 H 0.56734 0.94276 0.02809 0.0
H48 H 0.54325 0.96728 0.00811 0.0
H49 H 0.65897 0.99102 0.98889 0.0
H50 H 0.6158 0.99544 0.89996 0.0
H51 H 0.55836 0.98584 0.18819 0.0
H52 H 0.56425 0.03989 0.15528 0.0
C53 C 0.53549 0.64956 0.07019 0.0
C54 C 0.55231 0.64403 0.08288 0.0
C55 C 0.56431 0.65193 0.05532 0.0
C56 C 0.55414 0.66175 0.02751 0.0
N57 N 0.5364 0.66098 0.03643 0.0
Co58 Co 0.5166 0.67168 0.00197 0.0
N59 N 0.5339 0.68067 0.95669 0.0
C60 C 0.55183 0.67818 0.95541 0.0
C61 C 0.56025 0.68648 0.92124 0.0
C62 C 0.54697 0.69513 0.89995 0.0
C63 C 0.53116 0.69169 0.92263 0.0
N64 N 0.49681 0.68252 0.96744 0.0
C65 C 0.4976 0.69355 0.93263 0.0
C66 C 0.48067 0.6992 0.92084 0.0
C67 C 0.46882 0.69166 0.94932 0.0
C68 C 0.47908 0.68195 0.97703 0.0
N69 N 0.49928 0.6627 0.04707 0.0
C70 C 0.48135 0.66508 0.04852 0.0
C71 C 0.47299 0.65618 0.08188 0.0
C72 C 0.48634 0.64719 0.10214 0.0
C73 C 0.50208 0.65116 0.07979 0.0
N74 N 0.5186 0.69358 0.03395 0.0
C75 C 0.52145 0.72209 0.08847 0.0
C76 C 0.50481 0.71567 0.07834 0.0
C77 C 0.5037 0.70167 0.05111 0.0
C78 C 0.53661 0.71458 0.06871 0.0
C79 C 0.53489 0.7005 0.04171 0.0
N80 N 0.51459 0.64934 0.97172 0.0
C81 C 0.49684 0.62394 0.96166 0.0
C82 C 0.5122 0.61348 0.9564 0.0
C83 C 0.52866 0.62183 0.9542 0.0
C84 C 0.52952 0.63963 0.96131 0.0
C85 C 0.49833 0.64169 0.96859 0.0
H86 H 0.5425 0.6451 0.96038 0.0
H87 H 0.48614 0.64877 0.97379 0.0
H88 H 0.4906 0.69747 0.045 0.0
H89 H 0.54696 0.69523 0.02812 0.0
C90 C 0.56054 0.6696 0.98924 0.0
C91 C 0.51901 0.64229 0.08774 0.0
C92 C 0.51408 0.69998 0.91195 0.0
C93 C 0.47265 0.67386 0.01501 0.0
H94 H 0.5555 0.6346 0.10799 0.0
H95 H 0.57865 0.64985 0.05394 0.0
H96 H 0.57445 0.68684 0.91382 0.0
H97 H 0.54878 0.70353 0.87178 0.0
H98 H 0.47719 0.70837 0.89544 0.0
H99 H 0.45449 0.69376 0.95101 0.0
H100 H 0.45878 0.65549 0.08901 0.0
H101 H 0.48465 0.63807 0.12891 0.0
H102 H 0.4926 0.72134 0.09163 0.0
H103 H 0.54983 0.71913 0.07515 0.0
H104 H 0.48368 0.61839 0.96299 0.0
H105 H 0.54097 0.61461 0.94816 0.0
C106 C 0.94454 0.49935 0.95916 0.0
C107 C 0.94954 0.48395 0.94026 0.0
C108 C 0.93445 0.47402 0.94065 0.0
C109 C 0.9211 0.48392 0.95967 0.0
N110 N 0.92695 0.49943 0.97067 0.0
Co111 Co 0.91335 0.51707 0.0034 0.0
N112 N 0.89632 0.49986 0.02735 0.0
C113 C 0.89344 0.48434 0.01048 0.0
C114 C 0.88022 0.47543 0.03246 0.0
C115 C 0.87431 0.48611 0.06464 0.0
C116 C 0.88431 0.50103 0.06063 0.0
N117 N 0.90018 0.53497 0.03649 0.0
C118 C 0.88818 0.53324 0.06974 0.0
C119 C 0.88228 0.54936 0.08345 0.0
C120 C 0.89052 0.56145 0.057 0.0
C121 C 0.90108 0.55215 0.02886 0.0
N122 N 0.93047 0.53403 0.97881 0.0
C123 C 0.92798 0.55125 0.97603 0.0
C124 C 0.94304 0.55957 0.9608 0.0
C125 C 0.95574 0.54675 0.95421 0.0
C126 C 0.94767 0.53127 0.96565 0.0
N127 N 0.89725 0.52127 0.95484 0.0
C128 C 0.8724 0.52193 0.88825 0.0
C129 C 0.86688 0.5238 0.93125 0.0
C130 C 0.87934 0.52338 0.96366 0.0
C131 C 0.89089 0.52082 0.87895 0.0
C132 C 0.90311 0.52055 0.91276 0.0
N133 N 0.92894 0.51253 0.05184 0.0
C134 C 0.94889 0.52217 0.10531 0.0
C135 C 0.95327 0.50498 0.11642 0.0
C136 C 0.94478 0.49174 0.09576 0.0
C137 C 0.93264 0.49577 0.06391 0.0
C138 C 0.9367 0.52568 0.07264 0.0
H139 H 0.92652 0.48524 0.04835 0.0
H140 H 0.93379 0.53898 0.06366 0.0
H141 H 0.8742 0.52408 0.99618 0.0
H142 H 0.91721 0.51915 0.90507 0.0
C143 C 0.905 0.47774 0.97808 0.0
C144 C 0.95635 0.51405 0.96462 0.0
C145 C 0.88062 0.51671 0.0855 0.0
C146 C 0.91376 0.55899 0.99921 0.0
H147 H 0.96273 0.48022 0.92833 0.0
H148 H 0.93369 0.46071 0.93119 0.0
H149 H 0.87564 0.46257 0.0264 0.0
H150 H 0.86358 0.48339 0.08774 0.0
H151 H 0.87276 0.55212 0.10928 0.0
H152 H 0.88927 0.57537 0.05882 0.0
H153 H 0.94508 0.57337 0.95837 0.0
H154 H 0.96944 0.54873 0.94367 0.0
H155 H 0.85286 0.52524 0.9402 0.0
H156 H 0.89584 0.5195 0.84612 0.0
H157 H 0.95512 0.53273 0.12097 0.0
H158 H 0.94753 0.47829 0.10413 0.0
C159 C 0.97982 0.87401 0.07601 0.0
C160 C 0.96311 0.88054 0.08825 0.0
C161 C 0.95124 0.87421 0.06042 0.0
C162 C 0.96135 0.8643 0.03275 0.0
N163 N 0.9789 0.86355 0.04185 0.0
Co164 Co 0.99863 0.85246 0.00661 0.0
N165 N 0.98145 0.84444 0.96326 0.0
C166 C 0.96358 0.84732 0.96345 0.0
C167 C 0.95514 0.83929 0.93117 0.0
C168 C 0.96833 0.8303 0.90979 0.0
C169 C 0.9841 0.83333 0.93048 0.0
N170 N 0.01837 0.84174 0.9706 0.0
C171 C 0.01757 0.83104 0.93673 0.0
C172 C 0.03451 0.82554 0.92311 0.0
C173 C 0.04635 0.83283 0.94942 0.0
C174 C 0.03608 0.84226 0.97776 0.0
N175 N 0.0158 0.85984 0.05051 0.0
C176 C 0.03358 0.85652 0.05083 0.0
C177 C 0.04189 0.86349 0.08486 0.0
C178 C 0.02866 0.87208 0.1071 0.0
C179 C 0.01304 0.86995 0.08497 0.0
N180 N 0.99554 0.83024 0.03958 0.0
C181 C 0.99124 0.80137 0.09648 0.0
C182 C 0.00819 0.80631 0.08124 0.0
C183 C 0.01001 0.82059 0.0529 0.0
C184 C 0.97645 0.81054 0.08053 0.0
C185 C 0.97887 0.82472 0.05218 0.0
N186 N 1.00162 0.87521 0.9753 0.0
C187 C 0.01819 0.90183 0.97039 0.0
C188 C 1.00278 0.91149 0.96019 0.0
C189 C 0.98736 0.9022 0.9525 0.0
C190 C 0.98712 0.88423 0.95979 0.0
C191 C 0.0174 0.88384 0.97675 0.0
H192 H 0.97479 0.87808 0.95461 0.0
H193 H 0.02953 0.87731 0.98527 0.0
H194 H 0.0233 0.82382 0.04302 0.0
H195 H 0.96706 0.83124 0.0415 0.0
C196 C 0.955 0.85661 0.99619 0.0
C197 C 0.99635 0.87908 0.09548 0.0
C198 C 1.00106 0.82469 0.91908 0.0
C199 C 0.04233 0.84887 0.01577 0.0
H200 H 0.95988 0.88946 0.11361 0.0
H201 H 0.93706 0.8771 0.05934 0.0
H202 H 0.94099 0.83941 0.92496 0.0
H203 H 0.96648 0.82203 0.88282 0.0
H204 H 0.03804 0.81651 0.89825 0.0
H205 H 0.06064 0.83049 0.94982 0.0
H206 H 0.05601 0.86314 0.09142 0.0
H207 H 0.03044 0.87971 0.13526 0.0
H208 H 0.02012 0.79964 0.09235 0.0
H209 H 0.96299 0.80694 0.09021 0.0
H210 H 0.03069 0.90809 0.97579 0.0
H211 H 0.97527 0.90876 0.94207 0.0
C212 C 0.06699 0.99286 0.55051 0.0
C213 C 0.06293 0.97759 0.57267 0.0
C214 C 0.07862 0.96802 0.57459 0.0
C215 C 0.09136 0.97788 0.55336 0.0
N216 N 0.08456 0.99303 0.53869 0.0
Co217 Co 0.09719 0.01034 0.50168 0.0
N218 N 0.11531 0.99313 0.48218 0.0
C219 C 0.11913 0.97805 0.50288 0.0
C220 C 0.13294 0.96907 0.48321 0.0
C221 C 0.13821 0.97927 0.44843 0.0
C222 C 0.12725 0.99396 0.44864 0.0
N223 N 0.10938 0.0279 0.4645 0.0
C224 C 0.12134 0.02581 0.43145 0.0
C225 C 0.12607 0.04176 0.41336 0.0
C226 C 0.11722 0.05413 0.43698 0.0
C227 C 0.10742 0.04515 0.4678 0.0
N228 N 0.0791 0.02737 0.52169 0.0
C229 C 0.08058 0.04463 0.52064 0.0
C230 C 0.06511 0.05287 0.53457 0.0
C231 C 0.05323 0.03992 0.54443 0.0
C232 C 0.06216 0.02451 0.53581 0.0
N233 N 0.11278 0.01571 0.54942 0.0
C234 C 0.13703 0.01711 0.6169 0.0
C235 C 0.14281 0.01871 0.57376 0.0
C236 C 0.13062 0.01793 0.54085 0.0
C237 C 0.11854 0.01605 0.62556 0.0
C238 C 0.10663 0.01545 0.59135 0.0
N239 N 0.08203 1.00457 0.45421 0.0
C240 C 0.06189 0.01263 0.39761 0.0
C241 C 0.05831 0.99519 0.39163 0.0
C242 C 0.06725 0.98262 0.41633 0.0
C243 C 0.07917 0.98754 0.44693 0.0
C244 C 0.07374 0.01708 0.42952 0.0
H245 H 0.08576 0.97748 0.46545 0.0
H246 H 0.07594 0.03058 0.43479 0.0
H247 H 0.13591 0.01834 0.50833 0.0
H248 H 0.09254 0.01405 0.59877 0.0
C249 C 0.10788 0.97177 0.53666 0.0
C250 C 0.05443 0.0073 0.54118 0.0
C251 C 0.12984 0.00917 0.41968 0.0
C252 C 0.09434 0.05228 0.49572 0.0
H253 H 0.05003 0.97354 0.58519 0.0
H254 H 0.08017 0.95489 0.587 0.0
H255 H 0.1383 0.95646 0.49244 0.0
H256 H 0.14912 0.97638 0.42606 0.0
H257 H 0.13515 0.04427 0.38634 0.0
H258 H 0.11749 0.06799 0.43143 0.0
H259 H 0.06229 0.06664 0.53431 0.0
H260 H 0.03948 0.04158 0.55544 0.0
H261 H 0.15683 0.02013 0.56519 0.0
H262 H 0.11336 0.01493 0.65837 0.0
H263 H 0.05524 0.02268 0.37872 0.0
H264 H 0.06504 0.96899 0.412 0.0
C265 C 0.47742 0.15239 0.44223 0.0
C266 C 0.46122 0.14651 0.4285 0.0
C267 C 0.44838 0.15289 0.45612 0.0
C268 C 0.45747 0.16227 0.48492 0.0
N269 N 0.47527 0.16267 0.47661 0.0
Co270 Co 0.49381 0.17304 0.51273 0.0
N271 N 0.47535 0.18051 0.55694 0.0
C272 C 0.45758 0.17775 0.55648 0.0
C273 C 0.44807 0.18575 0.58884 0.0
C274 C 0.46042 0.19455 0.61063 0.0
C275 C 0.47684 0.19134 0.59033 0.0
N276 N 0.51233 0.18324 0.54936 0.0
C277 C 0.51031 0.19354 0.58387 0.0
C278 C 0.52665 0.19854 0.5988 0.0
C279 C 0.53944 0.19164 0.5719 0.0
C280 C 0.53023 0.18278 0.54234 0.0
N281 N 0.51228 0.16605 0.46833 0.0
C282 C 0.52999 0.1691 0.46856 0.0
C283 C 0.53943 0.16191 0.43495 0.0
C284 C 0.52708 0.15338 0.41257 0.0
C285 C 0.51072 0.1559 0.43389 0.0
N286 N 0.49071 0.1957 0.48149 0.0
C287 C 0.48664 0.22498 0.42584 0.0
C288 C 0.50349 0.21959 0.4399 0.0
C289 C 0.50519 0.20512 0.46767 0.0
C290 C 0.47179 0.2161 0.44255 0.0
C291 C 0.47409 0.20172 0.47028 0.0
N292 N 0.4969 0.14985 0.54207 0.0
C293 C 0.51497 0.12352 0.54593 0.0
C294 C 0.49978 0.11335 0.5522 0.0
C295 C 0.48341 0.12213 0.55863 0.0
C296 C 0.48232 0.14021 0.55404 0.0
C297 C 0.51327 0.14158 0.54187 0.0
H298 H 0.46938 0.14603 0.55806 0.0
H299 H 0.5253 0.14851 0.53596 0.0
H300 H 0.51841 0.20154 0.47666 0.0
H301 H 0.46225 0.19546 0.48156 0.0
C302 C 0.45 0.16932 0.5224 0.0
C303 C 0.49457 0.14674 0.42391 0.0
C304 C 0.49324 0.19989 0.60165 0.0
C305 C 0.53766 0.17645 0.50403 0.0
H306 H 0.45908 0.1379 0.40235 0.0
H307 H 0.43423 0.15028 0.45647 0.0
H308 H 0.43374 0.18596 0.59446 0.0
H309 H 0.45753 0.20295 0.63727 0.0
H310 H 0.52899 0.20695 0.62524 0.0
H311 H 0.55368 0.19375 0.57224 0.0
H312 H 0.55374 0.1619 0.42904 0.0
H313 H 0.53008 0.14547 0.3851 0.0
H314 H 0.51545 0.22605 0.42827 0.0
H315 H 0.45838 0.22008 0.4339 0.0
H316 H 0.52811 0.11762 0.54171 0.0
H317 H 0.4713 0.11507 0.5659 0.0
C318 C 0.44271 0.51671 0.50911 0.0
C319 C 0.44642 0.53199 0.52899 0.0
C320 C 0.43069 0.54151 0.53049 0.0
C321 C 0.41828 0.53161 0.51127 0.0
N322 N 0.42529 0.51648 0.49821 0.0
Co323 Co 0.41304 0.49914 0.46441 0.0
N324 N 0.39499 0.51631 0.44403 0.0
C325 C 0.39105 0.53144 0.46285 0.0
C326 C 0.37733 0.54038 0.44341 0.0
C327 C 0.37217 0.53012 0.41083 0.0
C328 C 0.3831 0.5154 0.41208 0.0
N329 N 0.40122 0.48157 0.4304 0.0
C330 C 0.38912 0.48356 0.39886 0.0
C331 C 0.38436 0.46758 0.38396 0.0
C332 C 0.3934 0.45527 0.40789 0.0
C333 C 0.40329 0.46432 0.43582 0.0
N334 N 0.43112 0.4822 0.48528 0.0
C335 C 0.42976 0.46493 0.48627 0.0
C336 C 0.44516 0.45673 0.49985 0.0
C337 C 0.45689 0.46972 0.50728 0.0
C338 C 0.44796 0.48512 0.49766 0.0
N339 N 0.39702 0.49363 0.51408 0.0
C340 C 0.3721 0.49128 0.58354 0.0
C341 C 0.36681 0.48988 0.54097 0.0
C342 C 0.3793 0.49118 0.5071 0.0
C343 C 0.39048 0.4927 0.59074 0.0
C344 C 0.40273 0.49376 0.55554 0.0
N345 N 0.42867 0.50493 0.41509 0.0
C346 C 0.45013 0.49671 0.35986 0.0
C347 C 0.4539 0.51413 0.35122 0.0
C348 C 0.44424 0.52678 0.37369 0.0
C349 C 0.43162 0.52194 0.40507 0.0
C350 C 0.43749 0.49237 0.39224 0.0
H351 H 0.42462 0.53202 0.42216 0.0
H352 H 0.43517 0.47889 0.39956 0.0
H353 H 0.37431 0.49089 0.47508 0.0
H354 H 0.41672 0.49536 0.56176 0.0
C355 C 0.40196 0.53769 0.49485 0.0
C356 C 0.45554 0.50237 0.50104 0.0
C357 C 0.38032 0.50007 0.38614 0.0
C358 C 0.41624 0.45727 0.46344 0.0
H359 H 0.45913 0.53612 0.5402 0.0
H360 H 0.42893 0.55463 0.54124 0.0
H361 H 0.37189 0.55298 0.45146 0.0
H362 H 0.3613 0.53295 0.38938 0.0
H363 H 0.37501 0.46504 0.35909 0.0
H364 H 0.39307 0.4414 0.40465 0.0
H365 H 0.44806 0.44297 0.50096 0.0
H366 H 0.47053 0.46808 0.51747 0.0
H367 H 0.35292 0.48818 0.53354 0.0
H368 H 0.39529 0.49369 0.62308 0.0
H369 H 0.45727 0.48659 0.34275 0.0
H370 H 0.4465 0.5404 0.36717 0.0
C371 C 0.02961 0.37451 0.41606 0.0
C372 C 0.04645 0.3791 0.40053 0.0
C373 C 0.05846 0.37039 0.42577 0.0
C374 C 0.04829 0.36109 0.45518 0.0
N375 N 0.03052 0.36294 0.44947 0.0
Co376 Co 0.01078 0.35346 0.4876 0.0
N377 N 0.02826 0.34305 0.52917 0.0
C378 C 0.04627 0.34403 0.52661 0.0
C379 C 0.05476 0.33467 0.55836 0.0
C380 C 0.0414 0.3269 0.58207 0.0
C381 C 0.02549 0.33198 0.56327 0.0
N382 N 0.99105 0.34407 0.52605 0.0
C383 C 0.99186 0.3331 0.56086 0.0
C384 C 0.97496 0.32902 0.57698 0.0
C385 C 0.96303 0.33741 0.55093 0.0
C386 C 0.97327 0.3461 0.5205 0.0
N387 N 0.99328 0.36364 0.44602 0.0
C388 C 0.97529 0.36232 0.4479 0.0
C389 C 0.96687 0.3716 0.41589 0.0
C390 C 0.98025 0.3797 0.39296 0.0
C391 C 0.99607 0.37489 0.41255 0.0
N392 N 0.01156 0.33154 0.45509 0.0
C393 C 0.01258 0.30293 0.40006 0.0
C394 C 0.99636 0.31014 0.41482 0.0
C395 C 0.99615 0.32418 0.44224 0.0
C396 C 0.0283 0.30972 0.41539 0.0
C397 C 0.02749 0.32385 0.44271 0.0
N398 N 0.01 0.37581 0.51846 0.0
C399 C 0.99386 0.40276 0.531 0.0
C400 C 0.00979 0.41163 0.5359 0.0
C401 C 0.02565 0.40168 0.53635 0.0
C402 C 0.02544 0.38394 0.52807 0.0
C403 C 0.99426 0.385 0.52312 0.0
H404 H 0.03802 0.37723 0.52767 0.0
H405 H 0.9817 0.37919 0.51856 0.0
H406 H 0.98333 0.329 0.45208 0.0
H407 H 0.03994 0.32853 0.45275 0.0
C408 C 0.05486 0.35239 0.49161 0.0
C409 C 0.01315 0.38267 0.40121 0.0
C410 C 0.00821 0.32519 0.5775 0.0
C411 C 0.96667 0.35438 0.48348 0.0
H412 H 0.04972 0.38838 0.375 0.0
H413 H 0.07285 0.37154 0.42448 0.0
H414 H 0.069 0.33305 0.56259 0.0
H415 H 0.04317 0.31803 0.60925 0.0
H416 H 0.97159 0.32033 0.60372 0.0
H417 H 0.94862 0.33653 0.55263 0.0
H418 H 0.95264 0.37316 0.41139 0.0
H419 H 0.97853 0.38881 0.36626 0.0
H420 H 0.98377 0.30505 0.40504 0.0
H421 H 0.04124 0.30457 0.40522 0.0
H422 H 0.9811 0.40956 0.53093 0.0
H423 H 0.03832 0.40759 0.54206 0.0
C424 C 0.35165 0.02362 0.02643 0.0
C425 C 0.35913 0.03912 0.03694 0.0
C426 C 0.34714 0.05186 0.02544 0.0
C427 C 0.33306 0.04342 0.00876 0.0
N428 N 0.33511 0.02604 0.01026 0.0
Co429 Co 0.31892 0.00878 0.98564 0.0
N430 N 0.30454 0.02734 0.95549 0.0
C431 C 0.30717 0.04456 0.95664 0.0
C432 C 0.29571 0.05419 0.93164 0.0
C433 C 0.28509 0.04244 0.91343 0.0
C434 C 0.29057 0.02622 0.92877 0.0
N435 N 0.30261 0.99143 0.96172 0.0
C436 C 0.28837 0.99364 0.9358 0.0
C437 C 0.28012 0.97806 0.92919 0.0
C438 C 0.28952 0.9656 0.95134 0.0
C439 C 0.30286 0.9742 0.97048 0.0
N440 N 0.33402 0.99025 0.01422 0.0
C441 C 0.33114 0.97305 0.01503 0.0
C442 C 0.34505 0.96336 0.03128 0.0
C443 C 0.35786 0.97501 0.03991 0.0
C444 C 0.35095 0.99121 0.0287 0.0
N445 N 0.30254 0.01025 0.03765 0.0
C446 C 0.27564 0.01128 0.10354 0.0
C447 C 0.28427 0.9958 0.09284 0.0
C448 C 0.29767 0.99562 0.06065 0.0
C449 C 0.28142 0.02643 0.08248 0.0
C450 C 0.29476 0.02563 0.04993 0.0
N451 N 0.33511 0.00719 0.93462 0.0
C452 C 0.35558 0.9888 0.89522 0.0
C453 C 0.36627 1.00289 0.8844 0.0
C454 C 0.3599 0.01946 0.89387 0.0
C455 C 0.34418 0.02133 0.91888 0.0
C456 C 0.33989 0.99129 0.91942 0.0
H457 H 0.34026 0.03415 0.92778 0.0
H458 H 0.33254 0.98 0.92827 0.0
H459 H 0.30361 0.98336 0.0548 0.0
H460 H 0.29824 0.03761 0.03477 0.0
C461 C 0.3202 0.05128 0.98256 0.0
C462 C 0.36133 0.00706 0.02865 0.0
C463 C 0.28194 0.0102 0.91747 0.0
C464 C 0.31644 0.96636 0.99468 0.0
H465 H 0.3723 0.04103 0.04924 0.0
H466 H 0.34918 0.06566 0.02564 0.0
H467 H 0.29509 0.06811 0.92732 0.0
H468 H 0.27445 0.04552 0.89149 0.0
H469 H 0.26845 0.9759 0.91045 0.0
H470 H 0.28701 0.95187 0.95302 0.0
H471 H 0.34625 0.94942 0.03371 0.0
H472 H 0.37108 0.97178 0.05111 0.0
H473 H 0.28065 0.98378 0.10919 0.0
H474 H 0.27527 0.0388 0.09001 0.0
H475 H 0.35984 0.97581 0.88708 0.0
H476 H 0.36769 0.03072 0.88505 0.0
C477 C 0.47727 0.41877 0.9694 0.0
C478 C 0.4613 0.42779 0.97573 0.0
C479 C 0.44791 0.41633 0.9689 0.0
C480 C 0.45646 0.401 0.95885 0.0
N481 N 0.47432 0.40219 0.9593 0.0
Co482 Co 0.49194 0.38385 0.94398 0.0
N483 N 0.4742 0.37132 0.91126 0.0
C484 C 0.45633 0.3734 0.91515 0.0
C485 C 0.44731 0.36266 0.88925 0.0
C486 C 0.46032 0.35311 0.8682 0.0
C487 C 0.47663 0.35856 0.88249 0.0
N488 N 0.50971 0.36552 0.92913 0.0
C489 C 0.50919 0.35312 0.89922 0.0
C490 C 0.52433 0.3425 0.90097 0.0
C491 C 0.53445 0.34836 0.93353 0.0
C492 C 0.52502 0.36221 0.94986 0.0
N493 N 0.50952 0.39664 0.97656 0.0
C494 C 0.52481 0.39016 0.99253 0.0
C495 C 0.53462 0.40261 0.01139 0.0
C496 C 0.52484 0.41778 0.00666 0.0
C497 C 0.5096 0.41371 0.98514 0.0
N498 N 0.48524 0.37047 0.9964 0.0
C499 C 0.47994 0.35029 0.07214 0.0
C500 C 0.48161 0.3683 0.07374 0.0
C501 C 0.48408 0.37815 0.03553 0.0
C502 C 0.48033 0.34278 0.03163 0.0
C503 C 0.48298 0.35302 0.99441 0.0
N504 N 0.49888 0.39716 0.89226 0.0
C505 C 0.52218 0.41216 0.85328 0.0
C506 C 0.5095 0.42185 0.83042 0.0
C507 C 0.49141 0.41804 0.83646 0.0
C508 C 0.48634 0.40558 0.86776 0.0
C509 C 0.51662 0.39976 0.88364 0.0
H510 H 0.4723 0.4034 0.87372 0.0
H511 H 0.52669 0.393 0.90195 0.0
H512 H 0.48555 0.39194 0.03771 0.0
H513 H 0.4838 0.34663 0.96409 0.0
C514 C 0.44875 0.38704 0.93887 0.0
C515 C 0.49508 0.42594 0.97406 0.0
C516 C 0.49389 0.35007 0.87177 0.0
C517 C 0.53116 0.3738 0.98004 0.0
H518 H 0.45955 0.44125 0.98366 0.0
H519 H 0.43371 0.4192 0.96842 0.0
H520 H 0.43302 0.36208 0.88538 0.0
H521 H 0.45804 0.34304 0.84563 0.0
H522 H 0.52757 0.3315 0.88128 0.0
H523 H 0.54735 0.34336 0.94336 0.0
H524 H 0.54781 0.40112 0.02448 0.0
H525 H 0.52859 0.43037 0.01719 0.0
H526 H 0.48114 0.37472 0.10428 0.0
H527 H 0.47928 0.32893 0.02863 0.0
H528 H 0.53633 0.41455 0.84869 0.0
H529 H 0.48128 0.42521 0.81885 0.0
C530 C 0.15846 0.48261 0.0228 0.0
C531 C 0.15104 0.46759 0.04008 0.0
C532 C 0.16425 0.455 0.03839 0.0
C533 C 0.17896 0.46291 0.01993 0.0
N534 N 0.17578 0.47971 0.0105 0.0
Co535 Co 0.1922 0.49555 0.97861 0.0
N536 N 0.20612 0.47619 0.95307 0.0
C537 C 0.20586 0.45964 0.96754 0.0
C538 C 0.21681 0.44898 0.94349 0.0
C539 C 0.22462 0.45956 0.91247 0.0
C540 C 0.21813 0.4762 0.91953 0.0
N541 N 0.20849 0.51173 0.94745 0.0
C542 C 0.22055 0.50889 0.91494 0.0
C543 C 0.22996 0.52384 0.90482 0.0
C544 C 0.22362 0.53628 0.93222 0.0
C545 C 0.21077 0.52834 0.95766 0.0
N546 N 0.17795 0.51467 0.00382 0.0
C547 C 0.18325 0.53097 0.00824 0.0
C548 C 0.16968 0.54151 0.02392 0.0
C549 C 0.15502 0.53111 0.02919 0.0
C550 C 0.16048 0.51481 0.01631 0.0
N551 N 0.2084 0.4952 0.02755 0.0
C552 C 0.23276 0.49726 0.09463 0.0
C553 C 0.21421 0.49828 0.10307 0.0
C554 C 0.20225 0.49726 0.06904 0.0
C555 C 0.23864 0.49453 0.05221 0.0
C556 C 0.2264 0.49355 0.01952 0.0
N557 N 0.17634 0.49599 0.92981 0.0
C558 C 0.1592 0.51265 0.87881 0.0
C559 C 0.14968 0.49798 0.86905 0.0
C560 C 0.15432 0.4821 0.88849 0.0
C561 C 0.16803 0.48132 0.91816 0.0
C562 C 0.17235 0.51142 0.90954 0.0
H563 H 0.17134 0.46898 0.93309 0.0
H564 H 0.1787 0.52312 0.91832 0.0
H565 H 0.18807 0.49844 0.07605 0.0
H566 H 0.2317 0.49177 0.98745 0.0
C567 C 0.19346 0.45432 0.99976 0.0
C568 C 0.14915 0.4995 0.01751 0.0
C569 C 0.22498 0.49186 0.89694 0.0
C570 C 0.19903 0.53653 0.98715 0.0
H571 H 0.13743 0.4656 0.05126 0.0
H572 H 0.16275 0.44137 0.04608 0.0
H573 H 0.21858 0.43512 0.94731 0.0
H574 H 0.23423 0.45548 0.88799 0.0
H575 H 0.24063 0.52548 0.88097 0.0
H576 H 0.22771 0.5496 0.93295 0.0
H577 H 0.17 0.55533 0.02807 0.0
H578 H 0.14179 0.53507 0.04041 0.0
H579 H 0.209 0.50033 0.13542 0.0
H580 H 0.25275 0.4932 0.04405 0.0
H581 H 0.15579 0.52517 0.86455 0.0
H582 H 0.1472 0.47051 0.88145 0.0
C583 C 0.02162 0.10745 0.97327 0.0
C584 C 0.03797 0.09931 0.98018 0.0
C585 C 0.05079 0.11142 0.97053 0.0
C586 C 0.04153 0.12622 0.95837 0.0
N587 N 0.02377 0.12409 0.96015 0.0
Co588 Co 0.00534 0.14139 0.94309 0.0
N589 N 0.02273 0.15457 0.90673 0.0
C590 C 0.04064 0.15343 0.90964 0.0
C591 C 0.04935 0.16452 0.88136 0.0
C592 C 0.03611 0.17331 0.85975 0.0
C593 C 0.01994 0.16705 0.87602 0.0
N594 N 0.9868 0.15879 0.92676 0.0
C595 C 0.98693 0.17099 0.89459 0.0
C596 C 0.97104 0.18057 0.89521 0.0
C597 C 0.96094 0.17439 0.92963 0.0
C598 C 0.97107 0.16134 0.94799 0.0
N599 N 0.98814 0.12787 0.97916 0.0
C600 C 0.97232 0.13357 0.99506 0.0
C601 C 0.96295 0.12066 0.01638 0.0
C602 C 0.97359 0.106 0.01335 0.0
C603 C 0.98889 0.11082 0.99038 0.0
N604 N 0.01082 0.15544 0.99267 0.0
C605 C 0.01384 0.17662 0.06409 0.0
C606 C 0.01367 0.15854 0.0693 0.0
C607 C 0.01214 0.14818 0.03317 0.0
C608 C 0.01345 0.1837 0.02216 0.0
C609 C 0.012 0.17298 0.98717 0.0
N610 N 0.99956 0.12751 0.89394 0.0
C611 C 0.97711 0.11368 0.85408 0.0
C612 C 0.99023 0.10404 0.83212 0.0
C613 C 0.00822 0.10689 0.84019 0.0
C614 C 0.01262 0.11897 0.87077 0.0
C615 C 0.98202 0.12519 0.885 0.0
H616 H 0.02654 0.12089 0.8769 0.0
H617 H 0.97151 0.13165 0.90296 0.0
H618 H 0.01145 0.13434 0.03809 0.0
H619 H 0.01125 0.17905 0.95571 0.0
C620 C 0.0487 0.14042 0.93532 0.0
C621 C 1.00422 0.09936 0.98014 0.0
C622 C 1.00239 0.17476 0.86559 0.0
C623 C 0.96522 0.14953 0.98039 0.0
H624 H 0.04033 0.08599 0.99031 0.0
H625 H 0.06512 0.1093 0.96961 0.0
H626 H 0.06363 0.16589 0.87651 0.0
H627 H 0.03814 0.18348 0.83563 0.0
H628 H 0.96718 0.19104 0.87342 0.0
H629 H 0.94757 0.17857 0.9392 0.0
H630 H 0.9495 0.12149 0.02996 0.0
H631 H 0.97032 0.09325 0.02591 0.0
H632 H 0.01402 0.15247 0.10109 0.0
H633 H 0.01399 0.19754 0.01633 0.0
H634 H 0.96305 0.11168 0.849 0.0
H635 H 0.01871 0.09962 0.82368 0.0
C636 C 0.85278 0.98594 0.50301 0.0
C637 C 0.86067 0.97072 0.48884 0.0
C638 C 0.84818 0.95806 0.49578 0.0
C639 C 0.83341 0.96628 0.51366 0.0
N640 N 0.83588 0.98328 0.51783 0.0
Co641 Co 0.81899 0.99996 0.54478 0.0
N642 N 0.80613 0.98133 0.57694 0.0
C643 C 0.80714 0.9644 0.56805 0.0
C644 C 0.79683 0.95445 0.59583 0.0
C645 C 0.78864 0.96586 0.62337 0.0
C646 C 0.79426 0.98227 0.61059 0.0
N647 N 0.80207 0.01688 0.57105 0.0
C648 C 0.79019 0.01491 0.60446 0.0
C649 C 0.78017 0.03002 0.61013 0.0
C650 C 0.78591 0.04168 0.57892 0.0
C651 C 0.79904 0.03312 0.55582 0.0
N652 N 0.83226 0.01834 0.51275 0.0
C653 C 0.82622 0.03445 0.50379 0.0
C654 C 0.83922 0.04461 0.48463 0.0
C655 C 0.8543 0.0342 0.48174 0.0
C656 C 0.84963 0.01817 0.49913 0.0
N657 N 0.80262 0.998 0.49674 0.0
C658 C 0.77793 0.99891 0.42997 0.0
C659 C 0.7964 0.99975 0.42083 0.0
C660 C 0.80852 0.99926 0.45469 0.0
C661 C 0.77231 0.99678 0.47308 0.0
C662 C 0.78473 0.99639 0.50563 0.0
N663 N 0.83507 1.00215 0.59268 0.0
C664 C 0.8521 0.02067 0.63596 0.0
C665 C 0.86214 0.00649 0.65131 0.0
C666 C 0.8576 0.98992 0.63882 0.0
C667 C 0.84385 0.98802 0.60978 0.0
C668 C 0.83869 0.01824 0.60673 0.0
H669 H 0.8409 0.9752 0.59964 0.0
H670 H 0.83189 0.02954 0.59384 0.0
H671 H 0.82262 1.00034 0.447 0.0
H672 H 0.77963 0.99523 0.53821 0.0
C673 C 0.81952 0.95817 0.53713 0.0
C674 C 0.86146 1.00277 0.50203 0.0
C675 C 0.78652 0.99844 0.62767 0.0
C676 C 0.81032 0.04048 0.52366 0.0
H677 H 0.87414 0.96893 0.47601 0.0
H678 H 0.85018 0.94433 0.49144 0.0
H679 H 0.79569 0.94053 0.5966 0.0
H680 H 0.77929 0.96249 0.64927 0.0
H681 H 0.76949 0.03227 0.6336 0.0
H682 H 0.78124 0.0549 0.57415 0.0
H683 H 0.83828 0.05829 0.47667 0.0
H684 H 0.86722 0.03817 0.46921 0.0
H685 H 0.80142 1.00132 0.38797 0.0
H686 H 0.75829 0.99557 0.4819 0.0
H687 H 0.85526 0.03372 0.64449 0.0
H688 H 0.86498 0.97862 0.65026 0.0
C689 C 0.53277 0.91838 0.51448 0.0
C690 C 0.54875 0.92679 0.50699 0.0
C691 C 0.56212 0.91473 0.5147 0.0
C692 C 0.55354 0.89968 0.5264 0.0
N693 N 0.53569 0.90159 0.52601 0.0
Co694 Co 0.51796 0.88408 0.54422 0.0
N695 N 0.53569 0.87076 0.57847 0.0
C696 C 0.55356 0.87224 0.57455 0.0
C697 C 0.56253 0.86157 0.60294 0.0
C698 C 0.5495 0.85267 0.62561 0.0
C699 C 0.53321 0.85828 0.60944 0.0
N700 N 0.50002 0.86665 0.56201 0.0
C701 C 0.50049 0.85423 0.59364 0.0
C702 C 0.48533 0.84419 0.5931 0.0
C703 C 0.47521 0.85052 0.5598 0.0
C704 C 0.48468 0.86401 0.5417 0.0
N705 N 0.50044 0.89769 0.5101 0.0
C706 C 0.48508 0.89195 0.49508 0.0
C707 C 0.47525 0.90496 0.47525 0.0
C708 C 0.48511 0.91971 0.47843 0.0
C709 C 0.5004 0.91483 0.50005 0.0
N710 N 0.52431 0.87021 0.49372 0.0
C711 C 0.52758 0.84906 0.42167 0.0
C712 C 0.52686 0.86715 0.41661 0.0
C713 C 0.52525 0.87751 0.45308 0.0
C714 C 0.52781 0.84197 0.46359 0.0
C715 C 0.52622 0.85267 0.49886 0.0
N716 N 0.51131 0.8977 0.59423 0.0
C717 C 0.4882 0.91296 0.63334 0.0
C718 C 0.50098 0.92145 0.65634 0.0
C719 C 0.51905 0.91706 0.6498 0.0
C720 C 0.52396 0.90515 0.61826 0.0
C721 C 0.49361 0.90102 0.60287 0.0
H722 H 0.53798 0.90247 0.61214 0.0
H723 H 0.48344 0.89505 0.58489 0.0
H724 H 0.52407 0.89136 0.44842 0.0
H725 H 0.5258 0.84656 0.53036 0.0
C726 C 0.56119 0.88549 0.54865 0.0
C727 C 0.51497 0.92635 0.51012 0.0
C728 C 0.5159 0.85034 0.62108 0.0
C729 C 0.47861 0.87585 0.50985 0.0
H730 H 0.5505 0.94027 0.49798 0.0
H731 H 0.57632 0.91706 0.51498 0.0
H732 H 0.57679 0.86071 0.60759 0.0
H733 H 0.55182 0.84301 0.65075 0.0
H734 H 0.48211 0.83318 0.6139 0.0
H735 H 0.46233 0.846 0.55049 0.0
H736 H 0.46197 0.90414 0.46272 0.0
H737 H 0.48136 0.93256 0.46696 0.0
H738 H 0.52677 0.87323 0.38481 0.0
H739 H 0.52883 0.82812 0.46925 0.0
H740 H 0.47408 0.91582 0.63824 0.0
H741 H 0.52926 0.92333 0.66741 0.0
C742 C 0.65816 0.53255 0.47812 0.0
C743 C 0.65007 0.54794 0.4647 0.0
C744 C 0.66215 0.56072 0.47113 0.0
C745 C 0.67691 0.55241 0.48795 0.0
N746 N 0.67485 0.53524 0.49191 0.0
Co747 Co 0.69192 0.51836 0.51769 0.0
N748 N 0.70395 0.53655 0.54931 0.0
C749 C 0.70254 0.55367 0.54069 0.0
C750 C 0.71241 0.56325 0.56751 0.0
C751 C 0.72079 0.55142 0.59412 0.0
C752 C 0.7157 0.53516 0.58178 0.0
N753 N 0.70898 0.50125 0.5429 0.0
C754 C 0.72062 0.50277 0.57524 0.0
C755 C 0.7309 0.48773 0.58015 0.0
C756 C 0.72563 0.47662 0.54952 0.0
C757 C 0.7125 0.4854 0.52751 0.0
N758 N 0.67946 0.50043 0.48614 0.0
C759 C 0.686 0.48464 0.47693 0.0
C760 C 0.67349 0.47456 0.45872 0.0
C761 C 0.65818 0.48465 0.45672 0.0
C762 C 0.66222 0.50047 0.47356 0.0
N763 N 0.70877 0.52183 0.46861 0.0
C764 C 0.73423 0.522 0.40022 0.0
C765 C 0.71587 0.52111 0.39235 0.0
C766 C 0.70336 0.52109 0.42699 0.0
C767 C 0.73932 0.52382 0.44282 0.0
C768 C 0.72653 0.52366 0.47621 0.0
N769 N 0.67527 0.51461 0.56628 0.0
C770 C 0.65562 0.4945 0.60224 0.0
C771 C 0.64442 0.50812 0.61532 0.0
C772 C 0.65009 0.5251 0.60825 0.0
C773 C 0.66567 0.52809 0.58345 0.0
C774 C 0.67114 0.49803 0.57832 0.0
H775 H 0.66912 0.54126 0.57524 0.0
H776 H 0.67887 0.48725 0.56627 0.0
H777 H 0.68937 0.51992 0.42028 0.0
H778 H 0.73124 0.52446 0.5084 0.0
C779 C 0.6903 0.56028 0.5107 0.0
C780 C 0.64987 0.51552 0.47711 0.0
C781 C 0.72392 0.51883 0.5979 0.0
C782 C 0.70176 0.47854 0.49601 0.0
H783 H 0.63673 0.54975 0.45266 0.0
H784 H 0.65985 0.57451 0.46716 0.0
H785 H 0.7132 0.57719 0.56818 0.0
H786 H 0.72996 0.55443 0.619 0.0
H787 H 0.74147 0.48522 0.60265 0.0
H788 H 0.73065 0.46361 0.54432 0.0
H789 H 0.67486 0.46105 0.45098 0.0
H790 H 0.64551 0.48053 0.4453 0.0
H791 H 0.71124 0.51979 0.35993 0.0
H792 H 0.75323 0.5251 0.45063 0.0
H793 H 0.65181 0.48119 0.60807 0.0
H794 H 0.6418 0.53594 0.61841 0.0
C795 C 0.98344 0.60705 0.5499 0.0
C796 C 0.96768 0.59817 0.54649 0.0
C797 C 0.9541 0.60941 0.55838 0.0
C798 C 0.96232 0.62448 0.56828 0.0
N799 N 0.98016 0.62337 0.56294 0.0
Co800 Co 0.99743 0.64143 0.57589 0.0
N801 N 0.97997 0.65337 0.61453 0.0
C802 C 0.96221 0.65086 0.61621 0.0
C803 C 0.95348 0.66051 0.64689 0.0
C804 C 0.9665 0.66987 0.66515 0.0
C805 C 0.98253 0.66561 0.6441 0.0
N806 N 0.01479 0.6596 0.58792 0.0
C807 C 0.01433 0.6718 0.61851 0.0
C808 C 0.02879 0.68269 0.61294 0.0
C809 C 0.03845 0.67715 0.5776 0.0
C810 C 0.02941 0.66326 0.56333 0.0
N811 N 0.01479 0.62913 0.53773 0.0
C812 C 0.02953 0.63582 0.51877 0.0
C813 C 0.03941 0.62368 0.49637 0.0
C814 C 0.03026 0.60848 0.50186 0.0
C815 C 0.01528 0.61223 0.52732 0.0
N816 N 0.98925 0.65562 0.5266 0.0
C817 C 0.98458 0.67733 0.45363 0.0
C818 C 0.98605 0.65932 0.44984 0.0
C819 C 0.98824 0.6487 0.48672 0.0
C820 C 0.98411 0.684 0.49513 0.0
C821 C 0.98646 0.673 0.53095 0.0
N822 N 0.00599 0.62729 0.62432 0.0
C823 C 0.03106 0.61174 0.65343 0.0
C824 C 0.0196 0.60009 0.67468 0.0
C825 C 1.00117 0.6035 0.67458 0.0
C826 C 0.9946 0.61734 0.64918 0.0
C827 C 0.02401 0.62527 0.62866 0.0
H828 H 0.98033 0.61917 0.64711 0.0
H829 H 0.03324 0.63315 0.61011 0.0
H830 H 0.98999 0.63495 0.48275 0.0
H831 H 0.98684 0.67878 0.56199 0.0
C832 C 0.95464 0.63776 0.59273 0.0
C833 C 1.00132 0.59989 0.54022 0.0
C834 C 0.99946 0.67467 0.64979 0.0
C835 C 0.03541 0.65205 0.53087 0.0
H836 H 0.96623 0.58489 0.53735 0.0
H837 H 0.94006 0.60649 0.56238 0.0
H838 H 0.9394 0.66042 0.6558 0.0
H839 H 0.96431 0.67898 0.69062 0.0
H840 H 0.03183 0.69376 0.63172 0.0
H841 H 0.05076 0.68246 0.56439 0.0
H842 H 0.05226 0.62539 0.48019 0.0
H843 H 0.03424 0.59608 0.48911 0.0
H844 H 0.98636 0.6535 0.41855 0.0
H845 H 0.98241 0.69773 0.5 0.0
H846 H 0.04542 0.60973 0.65368 0.0
H847 H 0.99194 0.59485 0.69122 0.0
C848 C 0.49371 0.11448 0.42629 0.0
C849 C 0.49613 0.12994 0.40228 0.0
C850 C 0.49748 0.09855 0.40755 0.0
C851 C 0.52878 0.07978 0.33642 0.0
H852 H 0.49609 0.04398 0.30683 0.0
C853 C 0.55553 0.01988 0.25334 0.0
C854 C 0.54813 0.01859 0.21267 0.0
C855 C 0.54676 0.02965 0.28493 0.0
C856 C 0.50535 0.05379 0.31551 0.0
H857 H 0.50297 0.14108 0.33956 0.0
H858 H 0.51011 0.11318 0.30692 0.0
H859 H 0.4847 0.0697 0.34453 0.0
H860 H 0.52541 0.0252 0.17363 0.0
H861 H 0.50983 0.04204 0.22917 0.0
H862 H 0.54939 0.06432 0.30697 0.0
C863 C 0.50531 0.11341 0.34013 0.0
C864 C 0.49886 0.06842 0.33694 0.0
C865 C 0.50129 0.12928 0.35867 0.0
C866 C 0.53118 0.02589 0.20512 0.0
C867 C 0.5223 0.03549 0.23687 0.0
C868 C 0.5353 0.0651 0.31583 0.0
C869 C 0.5038 0.09799 0.36469 0.0
C870 C 0.51051 0.08167 0.34649 0.0
C871 C 0.53045 0.03818 0.27625 0.0
C872 C 0.52363 0.05212 0.30431 0.0
H873 H 0.4896 0.11479 0.45994 0.0
H874 H 0.49629 0.08676 0.42699 0.0
H875 H 0.53796 0.08989 0.34364 0.0
H876 H 0.56873 0.01454 0.25944 0.0
H877 H 0.55328 0.03148 0.31511 0.0
C878 C 0.48047 0.53153 0.33044 0.0
C879 C 0.46773 0.51955 0.31909 0.0
C880 C 0.49122 0.5396 0.29888 0.0
C881 C 0.48756 0.55374 0.18709 0.0
H882 H 0.5338 0.57328 0.20692 0.0
C883 C 0.51312 0.61088 0.08306 0.0
C884 C 0.51895 0.62463 0.10711 0.0
C885 C 0.51115 0.59448 0.10227 0.0
C886 C 0.52092 0.56787 0.20081 0.0
H887 H 0.45717 0.50544 0.26664 0.0
H888 H 0.47612 0.51953 0.21097 0.0
H889 H 0.52313 0.54932 0.25289 0.0
H890 H 0.52773 0.6323 0.16925 0.0
H891 H 0.52404 0.60369 0.20349 0.0
H892 H 0.48492 0.57276 0.13645 0.0
C893 C 0.47764 0.52283 0.24429 0.0
C894 C 0.51482 0.55414 0.22706 0.0
C895 C 0.4669 0.51468 0.27606 0.0
C896 C 0.52336 0.62175 0.15021 0.0
C897 C 0.52135 0.60536 0.16956 0.0
C898 C 0.49367 0.56743 0.16082 0.0
C899 C 0.48941 0.53588 0.25521 0.0
C900 C 0.49776 0.54739 0.22159 0.0
C901 C 0.51484 0.59163 0.14605 0.0
C902 C 0.5101 0.57509 0.16846 0.0
H903 H 0.48144 0.53535 0.36357 0.0
H904 H 0.5 0.54965 0.30853 0.0
H905 H 0.47427 0.54903 0.18223 0.0
H906 H 0.50963 0.61296 0.04975 0.0
H907 H 0.50628 0.58416 0.08318 0.0
C908 C 0.97986 0.48798 0.14061 0.0
C909 C 0.96643 0.50037 0.14958 0.0
C910 C 0.98987 0.48058 0.1737 0.0
C911 C 0.98318 0.46936 0.2873 0.0
H912 H 0.03019 0.44817 0.27184 0.0
C913 C 0.00712 0.41445 0.40094 0.0
C914 C 0.01339 0.39983 0.37906 0.0
C915 C 0.00537 0.43037 0.37904 0.0
C916 C 0.01708 0.45407 0.27675 0.0
H917 H 0.95394 0.51589 0.19927 0.0
H918 H 0.97163 0.50302 0.25755 0.0
H919 H 0.02049 0.47122 0.22201 0.0
H920 H 0.02313 0.39016 0.31805 0.0
H921 H 0.02002 0.41798 0.27936 0.0
H922 H 0.97944 0.45175 0.34081 0.0
C923 C 0.97423 0.49886 0.22495 0.0
C924 C 0.01153 0.46728 0.24827 0.0
C925 C 0.96422 0.50633 0.19165 0.0
C926 C 0.01845 0.40139 0.33545 0.0
C927 C 0.01675 0.41731 0.31353 0.0
C928 C 0.98876 0.45623 0.31586 0.0
C929 C 0.98665 0.48539 0.21656 0.0
C930 C 0.99423 0.47457 0.25216 0.0
C931 C 0.00982 0.43189 0.33486 0.0
C932 C 0.00549 0.44798 0.30987 0.0
H933 H 0.98191 0.48331 0.10827 0.0
H934 H 0.99918 0.47017 0.16594 0.0
H935 H 0.96969 0.4745 0.29104 0.0
H936 H 1.00313 0.41341 0.43468 0.0
H937 H 1.00011 0.44138 0.3964 0.0
C938 C 0.98935 0.89346 0.16533 0.0
C939 C 0.99675 0.89428 0.12346 0.0
C940 C 0.99168 0.90701 0.19331 0.0
C941 C 0.00756 0.95239 0.19926 0.0
H942 H 0.02022 0.93715 0.31446 0.0
C943 C 0.04893 0.99198 0.31573 0.0
C944 C 0.04543 0.98956 0.36004 0.0
C945 C 0.03919 0.98298 0.28603 0.0
C946 C 0.01638 0.94173 0.28273 0.0
H947 H 0.01195 0.90982 0.07719 0.0
H948 H 0.0165 0.93337 0.12625 0.0
H949 H 0.01026 0.91624 0.26428 0.0
H950 H 0.0282 0.97722 0.40823 0.0
H951 H 0.01089 0.96185 0.35653 0.0
H952 H 0.01446 0.97788 0.21772 0.0
C953 C 0.00853 0.92254 0.13745 0.0
C954 C 0.01063 0.9297 0.25385 0.0
C955 C 0.00605 0.90904 0.10942 0.0
C956 C 0.03116 0.97917 0.37412 0.0
C957 C 0.02138 0.9703 0.34456 0.0
C958 C 0.01343 0.96447 0.22824 0.0
C959 C 1.00171 0.92153 0.18009 0.0
C960 C 0.00631 0.9348 0.21158 0.0
C961 C 0.0258 0.97148 0.30032 0.0
C962 C 0.01805 0.95923 0.27022 0.0
H963 H 0.98222 0.88211 0.17678 0.0
H964 H 0.98598 0.90592 0.22565 0.0
H965 H 1.00415 0.95681 0.16711 0.0
H966 H 0.05999 0.99983 0.30429 0.0
H967 H 0.04299 0.98412 0.2522 0.0
C968 C 0.39649 0.98992 0.89365 0.0
C969 C 0.38472 0.99985 0.86827 0.0
C970 C 0.41352 0.98553 0.87787 0.0
C971 C 0.44615 0.99287 0.78614 0.0
H972 H 0.4579 0.94455 0.8093 0.0
C973 C 0.48452 0.94905 0.66926 0.0
C974 C 0.49506 0.93529 0.68542 0.0
C975 C 0.47582 0.96041 0.69723 0.0
C976 C 0.45514 0.95818 0.80326 0.0
H977 H 0.38154 0.01362 0.80745 0.0
H978 H 0.4111 0.00518 0.77845 0.0
H979 H 0.43302 0.95798 0.8478 0.0
H980 H 0.50593 0.92322 0.74283 0.0
H981 H 0.49049 0.94309 0.79231 0.0
H982 H 0.46777 0.99256 0.7394 0.0
C983 C 0.40743 1.00119 0.81112 0.0
C984 C 0.4408 0.96594 0.82539 0.0
C985 C 0.39046 0.00593 0.82743 0.0
C986 C 0.49785 0.93377 0.72979 0.0
C987 C 0.48896 0.94506 0.75796 0.0
C988 C 0.46046 0.98504 0.76369 0.0
C989 C 0.419 0.99056 0.8358 0.0
C990 C 0.4358 0.98326 0.81635 0.0
C991 C 0.47735 0.9581 0.74198 0.0
C992 C 0.46478 0.96748 0.77123 0.0
H993 H 0.39235 0.98528 0.92554 0.0
H994 H 0.4222 0.97775 0.89825 0.0
H995 H 0.4429 0.00632 0.77896 0.0
H996 H 0.48226 0.95046 0.63504 0.0
H997 H 0.46687 0.97019 0.68388 0.0
C998 C 0.61511 0.4948 0.60437 0.0
C999 C 0.626 0.50441 0.63039 0.0
C1000 C 0.59801 0.49024 0.61852 0.0
C1001 C 0.56365 0.49618 0.70708 0.0
H1002 H 0.55341 0.44866 0.68191 0.0
C1003 C 0.52588 0.44925 0.81978 0.0
C1004 C 0.51549 0.43641 0.80243 0.0
C1005 C 0.53441 0.4614 0.79289 0.0
C1006 C 0.55576 0.46209 0.68844 0.0
H1007 H 0.62752 0.51736 0.69086 0.0
H1008 H 0.59793 0.50838 0.71736 0.0
H1009 H 0.57854 0.46257 0.64604 0.0
H1010 H 0.50478 0.42674 0.74404 0.0
H1011 H 0.5201 0.4479 0.69638 0.0
H1012 H 0.54144 0.49499 0.75211 0.0
C1013 C 0.6023 0.50488 0.68523 0.0
C1014 C 0.57024 0.47014 0.66782 0.0
C1015 C 0.61931 0.50988 0.67039 0.0
C1016 C 0.51275 0.43657 0.75798 0.0
C1017 C 0.52152 0.44861 0.73087 0.0
C1018 C 0.54925 0.48801 0.72817 0.0
C1019 C 0.59159 0.49465 0.65979 0.0
C1020 C 0.57469 0.48715 0.67764 0.0
C1021 C 0.53292 0.46076 0.74804 0.0
C1022 C 0.54547 0.47073 0.71984 0.0
H1023 H 0.61993 0.49065 0.57304 0.0
H1024 H 0.59 0.48286 0.59742 0.0
H1025 H 0.56643 0.5094 0.71479 0.0
H1026 H 0.52815 0.44935 0.85405 0.0
H1027 H 0.54323 0.47045 0.80706 0.0
C1028 C 0.02502 0.57861 0.73546 0.0
C1029 C 0.02718 0.58364 0.69189 0.0
C1030 C 0.03518 0.5647 0.7523 0.0
C1031 C 0.07933 0.54869 0.73695 0.0
H1032 H 0.06749 0.50709 0.80307 0.0
C1033 C 0.13592 0.50643 0.79956 0.0
C1034 C 0.13394 0.50001 0.84192 0.0
C1035 C 0.12103 0.51247 0.77727 0.0
C1036 C 0.07103 0.51873 0.78495 0.0
H1037 H 0.03997 0.57719 0.63086 0.0
H1038 H 0.05767 0.55312 0.66023 0.0
H1039 H 0.04349 0.52572 0.77416 0.0
H1040 H 0.11501 0.49341 0.89321 0.0
H1041 H 0.08906 0.50511 0.85574 0.0
H1042 H 0.10653 0.54273 0.74916 0.0
C1043 C 0.04838 0.55993 0.68142 0.0
C1044 C 0.05728 0.52931 0.76839 0.0
C1045 C 0.03834 0.57371 0.66474 0.0
C1046 C 0.11676 0.4985 0.8606 0.0
C1047 C 0.1019 0.50509 0.8389 0.0
C1048 C 0.09295 0.5384 0.75399 0.0
C1049 C 0.04745 0.55576 0.72559 0.0
C1050 C 0.06141 0.5443 0.74401 0.0
C1051 C 0.10397 0.51289 0.79763 0.0
C1052 C 0.08909 0.52317 0.77797 0.0
H1053 H 0.01644 0.58608 0.75686 0.0
H1054 H 0.03436 0.56171 0.78655 0.0
H1055 H 0.0828 0.56037 0.71885 0.0
H1056 H 0.14908 0.50755 0.78449 0.0
H1057 H 0.1231 0.51766 0.74485 0.0
C1058 C 0.97274 0.09382 0.77097 0.0
C1059 C 0.98463 0.09009 0.80423 0.0
C1060 C 0.96405 0.08049 0.75119 0.0
C1061 C 0.94417 0.04068 0.78171 0.0
H1062 H 0.9355 0.03618 0.6601 0.0
C1063 C 0.87779 0.02133 0.70966 0.0
C1064 C 0.87833 0.00946 0.67625 0.0
C1065 C 0.89359 0.02677 0.72741 0.0
C1066 C 0.93801 0.03709 0.69412 0.0
H1067 H 0.9976 0.06959 0.84121 0.0
H1068 H 0.98184 0.04622 0.80769 0.0
H1069 H 0.95962 0.05459 0.68272 0.0
H1070 H 0.89569 0.99309 0.63743 0.0
H1071 H 0.92345 1.00325 0.66711 0.0
H1072 H 0.92167 0.02429 0.79322 0.0
C1073 C 0.9795 0.05943 0.79653 0.0
C1074 C 0.95173 0.04763 0.70699 0.0
C1075 C 0.98853 0.07277 0.81557 0.0
C1076 C 0.89491 1.00236 0.66279 0.0
C1077 C 0.91077 0.00816 0.67973 0.0
C1078 C 0.9302 0.03046 0.76888 0.0
C1079 C 0.96681 0.06324 0.76504 0.0
C1080 C 0.95466 0.0498 0.75091 0.0
C1081 C 0.91022 0.0207 0.71151 0.0
C1082 C 0.92675 0.0289 0.72502 0.0
H1083 H 0.96946 0.1071 0.76191 0.0
H1084 H 0.95421 0.08376 0.72723 0.0
H1085 H 0.94605 0.04231 0.81579 0.0
H1086 H 0.86518 0.02692 0.72082 0.0
H1087 H 0.89283 0.03651 0.75178 0.0
C1088 C 0.66842 1.0048 0.90862 0.0
C1089 C 0.65292 0.99517 0.90321 0.0
C1090 C 0.68188 0.00555 0.87666 0.0
C1091 C 0.69982 0.98253 0.78104 0.0
H1092 H 0.72767 0.02403 0.76462 0.0
C1093 C 0.75485 0.99044 0.64674 0.0
C1094 C 0.77096 0.9977 0.65873 0.0
C1095 C 0.74002 0.99019 0.67516 0.0
C1096 C 0.72012 0.01229 0.76906 0.0
H1097 H 0.63929 0.97924 0.85879 0.0
H1098 H 0.66267 0.98091 0.80218 0.0
H1099 H 0.70203 0.02397 0.81459 0.0
H1100 H 0.7841 0.01088 0.70905 0.0
H1101 H 0.7581 0.01061 0.75896 0.0
H1102 H 0.71792 0.97097 0.73496 0.0
C1103 C 0.66454 0.98758 0.83184 0.0
C1104 C 0.70539 0.01222 0.7978 0.0
C1105 C 0.65102 0.98677 0.86409 0.0
C1106 C 0.77187 1.00503 0.69936 0.0
C1107 C 0.75697 1.00496 0.72769 0.0
C1108 C 0.71449 0.98265 0.75197 0.0
C1109 C 0.68025 0.99687 0.83787 0.0
C1110 C 0.69515 0.99727 0.8047 0.0
C1111 C 0.74086 0.9975 0.71597 0.0
C1112 C 0.72495 0.99748 0.746 0.0
H1113 H 0.67025 0.01175 0.93788 0.0
H1114 H 0.69378 0.01266 0.88296 0.0
H1115 H 0.69247 0.9707 0.78581 0.0
H1116 H 0.75372 0.98505 0.61515 0.0
H1117 H 0.72777 0.98459 0.66484 0.0
C1118 C 0.52473 0.81971 0.64133 0.0
C1119 C 0.51528 0.83499 0.65138 0.0
C1120 C 0.52422 0.80527 0.66947 0.0
C1121 C 0.51229 0.79186 0.78317 0.0
H1122 H 0.51555 0.74599 0.73646 0.0
C1123 C 0.52184 0.7308 0.89332 0.0
C1124 C 0.51372 0.71545 0.88196 0.0
C1125 C 0.52174 0.74532 0.86532 0.0
C1126 C 0.5144 0.75866 0.75026 0.0
H1127 H 0.49723 0.84692 0.69766 0.0
H1128 H 0.49581 0.82156 0.74652 0.0
H1129 H 0.515 0.77109 0.68794 0.0
H1130 H 0.49947 0.70308 0.83211 0.0
H1131 H 0.49863 0.72852 0.78377 0.0
H1132 H 0.511 0.77938 0.84548 0.0
C1133 C 0.50418 0.82085 0.71764 0.0
C1134 C 0.51438 0.77317 0.72226 0.0
C1135 C 0.50486 0.83537 0.68958 0.0
C1136 C 0.50565 0.71484 0.84183 0.0
C1137 C 0.50537 0.72941 0.81396 0.0
C1138 C 0.51214 0.77733 0.8112 0.0
C1139 C 0.51393 0.80557 0.70813 0.0
C1140 C 0.51345 0.79003 0.73821 0.0
C1141 C 0.51343 0.74491 0.82521 0.0
C1142 C 0.5133 0.76047 0.79523 0.0
H1143 H 0.53264 0.81899 0.61167 0.0
H1144 H 0.53212 0.79395 0.66102 0.0
H1145 H 0.51175 0.80456 0.79696 0.0
H1146 H 0.52832 0.73153 0.92394 0.0
H1147 H 0.52843 0.7568 0.87499 0.0
C1148 C 0.84299 0.51111 0.86392 0.0
C1149 C 0.85859 0.52054 0.85457 0.0
C1150 C 0.82913 0.51086 0.83478 0.0
C1151 C 0.81747 0.51873 0.72069 0.0
H1152 H 0.76939 0.52354 0.76902 0.0
C1153 C 0.75547 0.52707 0.61282 0.0
C1154 C 0.73946 0.51935 0.62707 0.0
C1155 C 0.77021 0.52732 0.63963 0.0
C1156 C 0.78267 0.52193 0.75487 0.0
H1157 H 0.872 0.53652 0.80583 0.0
H1158 H 0.84771 0.53598 0.75443 0.0
H1159 H 0.79476 0.52367 0.81617 0.0
H1160 H 0.72648 0.50531 0.6798 0.0
H1161 H 0.75225 0.50542 0.72663 0.0
H1162 H 0.80535 0.51681 0.65938 0.0
C1163 C 0.84627 0.52881 0.7847 0.0
C1164 C 0.79729 0.52206 0.78202 0.0
C1165 C 0.86022 0.52911 0.81413 0.0
C1166 C 0.73859 0.51158 0.66837 0.0
C1167 C 0.75336 0.51175 0.69519 0.0
C1168 C 0.80281 0.51852 0.69348 0.0
C1169 C 0.83037 0.51995 0.79506 0.0
C1170 C 0.81491 0.52035 0.76542 0.0
C1171 C 0.76941 0.51968 0.68132 0.0
C1172 C 0.78515 0.52004 0.71018 0.0
H1173 H 0.84141 0.50393 0.89416 0.0
H1174 H 0.81735 0.50351 0.84348 0.0
H1175 H 0.83081 0.51722 0.70677 0.0
H1176 H 0.75656 0.53294 0.58082 0.0
H1177 H 0.78217 0.53372 0.62778 0.0
C1178 C 0.9922 0.79415 0.90552 0.0
C1179 C 1.00123 0.80911 0.89144 0.0
C1180 C 0.99209 0.77955 0.87979 0.0
C1181 C 0.01718 0.75723 0.79392 0.0
H1182 H 0.97244 0.73503 0.7725 0.0
C1183 C 0.0121 0.69045 0.71183 0.0
C1184 C 0.99987 0.68992 0.67843 0.0
C1185 C 0.01265 0.70492 0.73805 0.0
C1186 C 0.98504 0.74108 0.77822 0.0
H1187 H 0.01669 0.8207 0.83873 0.0
H1188 H 0.0171 0.79494 0.79437 0.0
H1189 H 0.97258 0.76039 0.8179 0.0
H1190 H 0.97923 0.70446 0.64503 0.0
H1191 H 0.97966 0.72937 0.69181 0.0
H1192 H 0.02965 0.73774 0.75467 0.0
C1193 C 0.01018 0.79449 0.82544 0.0
C1194 C 0.98513 0.75555 0.80439 0.0
C1195 C 0.00998 0.80921 0.85082 0.0
C1196 C 0.98844 0.70429 0.67131 0.0
C1197 C 0.98873 0.71857 0.69799 0.0
C1198 C 0.01713 0.74254 0.76843 0.0
C1199 C 1.0012 0.77948 0.83958 0.0
C1200 C 1.00118 0.76389 0.81232 0.0
C1201 C 1.00083 0.71908 0.73172 0.0
C1202 C 1.00104 0.73437 0.75999 0.0
H1203 H 0.98525 0.79376 0.93656 0.0
H1204 H 0.98508 0.76819 0.89165 0.0
H1205 H 0.02977 0.7633 0.79962 0.0
H1206 H 0.02122 0.67966 0.71761 0.0
H1207 H 0.02213 0.70493 0.76373 0.0
C1208 C 0.14778 0.02385 0.69137 0.0
C1209 C 0.15051 0.01574 0.65168 0.0
C1210 C 0.161 0.02294 0.72272 0.0
C1211 C 0.20228 0.99792 0.75356 0.0
H1212 H 0.21263 0.03851 0.81798 0.0
C1213 C 0.26739 1.00329 0.84808 0.0
C1214 C 0.26621 0.01078 0.8887 0.0
C1215 C 0.25265 1.00368 0.8212 0.0
C1216 C 0.2098 0.02699 0.80061 0.0
H1217 H 0.1691 0.99965 0.61501 0.0
H1218 H 0.19204 0.99847 0.66847 0.0
H1219 H 0.18786 0.0394 0.76841 0.0
H1220 H 0.24874 0.02446 0.93325 0.0
H1221 H 0.22295 0.0253 0.88623 0.0
H1222 H 0.22438 0.98561 0.78516 0.0
C1223 C 0.17972 0.00547 0.67585 0.0
C1224 C 0.19553 0.02748 0.7722 0.0
C1225 C 0.16659 0.00637 0.64473 0.0
C1226 C 0.25001 0.0187 0.90192 0.0
C1227 C 0.23528 0.01922 0.87492 0.0
C1228 C 0.21657 0.99747 0.78173 0.0
C1229 C 0.17722 0.01378 0.7153 0.0
C1230 C 0.19167 0.01301 0.74784 0.0
C1231 C 0.23637 0.01166 0.8342 0.0
C1232 C 0.22067 0.01204 0.80535 0.0
H1233 H 0.1356 0.0312 0.69789 0.0
H1234 H 0.15846 0.02935 0.75285 0.0
H1235 H 0.19954 0.98636 0.73625 0.0
H1236 H 0.27975 0.99715 0.83712 0.0
H1237 H 0.25408 0.99792 0.78991 0.0
C1238 C 0.49651 0.23179 0.6112 0.0
C1239 C 0.49269 0.21542 0.6293 0.0
C1240 C 0.49657 0.24638 0.63701 0.0
C1241 C 0.50049 0.25938 0.75076 0.0
H1242 H 0.48101 0.3032 0.70853 0.0
C1243 C 0.49109 0.31819 0.86135 0.0
C1244 C 0.49424 0.33475 0.84355 0.0
C1245 C 0.49101 0.30377 0.83507 0.0
C1246 C 0.48674 0.29115 0.72072 0.0
H1247 H 0.48625 0.20132 0.68852 0.0
H1248 H 0.48615 0.22676 0.7338 0.0
H1249 H 0.48053 0.27796 0.66341 0.0
H1250 H 0.49968 0.34934 0.78455 0.0
H1251 H 0.49985 0.32415 0.73835 0.0
H1252 H 0.50679 0.27254 0.80795 0.0
C1253 C 0.48918 0.22842 0.69968 0.0
C1254 C 0.48644 0.27661 0.69476 0.0
C1255 C 0.48907 0.21385 0.67379 0.0
C1256 C 0.49726 0.33667 0.79895 0.0
C1257 C 0.49722 0.32223 0.77256 0.0
C1258 C 0.50084 0.27392 0.77667 0.0
C1259 C 0.49296 0.24492 0.6817 0.0
C1260 C 0.49327 0.26048 0.70941 0.0
C1261 C 0.49408 0.30553 0.79021 0.0
C1262 C 0.49392 0.29004 0.76214 0.0
H1263 H 0.49952 0.23328 0.57701 0.0
H1264 H 0.49979 0.25876 0.622 0.0
H1265 H 0.50618 0.2473 0.76296 0.0
H1266 H 0.48856 0.31646 0.89569 0.0
H1267 H 0.48823 0.29126 0.84993 0.0
C1268 C 0.36071 0.48358 0.65934 0.0
C1269 C 0.35821 0.49197 0.61914 0.0
C1270 C 0.34703 0.48366 0.6913 0.0
C1271 C 0.30395 0.5064 0.72161 0.0
H1272 H 0.29523 0.46497 0.79133 0.0
C1273 C 0.23854 0.49732 0.82293 0.0
C1274 C 0.24021 0.49052 0.86499 0.0
C1275 C 0.25326 0.49733 0.79399 0.0
C1276 C 0.29757 0.47669 0.77234 0.0
H1277 H 0.3395 0.50773 0.5822 0.0
H1278 H 0.31576 0.50736 0.63657 0.0
H1279 H 0.32062 0.46567 0.74024 0.0
H1280 H 0.25861 0.47878 0.91017 0.0
H1281 H 0.28423 0.47842 0.85943 0.0
H1282 H 0.2807 0.51727 0.75311 0.0
C1283 C 0.32826 0.50082 0.64397 0.0
C1284 C 0.31221 0.47714 0.74312 0.0
C1285 C 0.34187 0.5008 0.61231 0.0
C1286 C 0.25686 0.48371 0.87756 0.0
C1287 C 0.27153 0.48354 0.84853 0.0
C1288 C 0.28926 0.50589 0.75048 0.0
C1289 C 0.33053 0.4922 0.68393 0.0
C1290 C 0.31554 0.49196 0.71701 0.0
C1291 C 0.26997 0.4905 0.80646 0.0
C1292 C 0.28579 0.491 0.77604 0.0
H1293 H 0.37308 0.47663 0.66579 0.0
H1294 H 0.34942 0.47706 0.72182 0.0
H1295 H 0.30624 0.51821 0.70297 0.0
H1296 H 0.2259 0.50284 0.81269 0.0
H1297 H 0.25154 0.50268 0.76177 0.0
C1298 C 1.00347 0.31126 0.65092 0.0
C1299 C 0.00734 0.30963 0.6068 0.0
C1300 C 1.00265 0.29656 0.67827 0.0
C1301 C 0.01649 0.24997 0.6853 0.0
H1302 H 0.98111 0.24827 0.77872 0.0
C1303 C 1.00427 0.18776 0.79044 0.0
C1304 C 1.00171 0.18994 0.83488 0.0
C1305 C 1.00462 0.20214 0.76193 0.0
C1306 C 0.99118 0.24858 0.75303 0.0
H1307 H 0.01345 0.2916 0.5564 0.0
H1308 H 0.01175 0.26584 0.60376 0.0
H1309 H 0.98242 0.27366 0.73064 0.0
H1310 H 0.99812 0.20879 0.88463 0.0
H1311 H 0.99852 0.2339 0.83508 0.0
H1312 H 0.02515 0.22481 0.70767 0.0
C1313 C 0.00959 0.2784 0.61767 0.0
C1314 C 0.99197 0.26319 0.72543 0.0
C1315 C 0.01046 0.29311 0.59041 0.0
C1316 C 0.99968 0.20676 0.85037 0.0
C1317 C 0.99991 0.22112 0.82194 0.0
C1318 C 0.01564 0.23532 0.71281 0.0
C1319 C 0.00566 0.27989 0.66205 0.0
C1320 C 1.00469 0.26416 0.69124 0.0
C1321 C 1.00243 0.21903 0.77731 0.0
C1322 C 1.00303 0.23445 0.74719 0.0
H1323 H 1.00113 0.32392 0.66419 0.0
H1324 H 0.99988 0.29831 0.71226 0.0
H1325 H 0.02665 0.25028 0.65985 0.0
H1326 H 0.0061 0.17492 0.77786 0.0
H1327 H 0.00648 0.20002 0.7278 0.0
C1328 C 0.16044 0.01818 0.39388 0.0
C1329 C 0.14485 0.00896 0.38707 0.0
C1330 C 0.17439 0.0184 0.363 0.0
C1331 C 0.19484 0.99421 0.27409 0.0
H1332 H 0.21493 0.03823 0.23791 0.0
C1333 C 0.24695 0.99915 0.13375 0.0
C1334 C 0.26049 0.0114 0.13564 0.0
C1335 C 0.23273 0.99897 0.16393 0.0
C1336 C 0.20973 0.02577 0.24803 0.0
H1337 H 0.13195 0.99198 0.34403 0.0
H1338 H 0.1566 0.99201 0.29007 0.0
H1339 H 0.19065 0.03733 0.29178 0.0
H1340 H 0.26974 0.03305 0.17092 0.0
H1341 H 0.24528 0.03247 0.22454 0.0
H1342 H 0.21416 0.98251 0.23157 0.0
C1343 C 0.15786 0.99934 0.31897 0.0
C1344 C 0.19571 0.02529 0.27882 0.0
C1345 C 0.14376 0.99935 0.34964 0.0
C1346 C 0.25944 0.02354 0.16841 0.0
C1347 C 0.24533 0.02323 0.19905 0.0
C1348 C 0.20903 0.99465 0.24376 0.0
C1349 C 0.17325 0.00905 0.32509 0.0
C1350 C 0.18808 0.00951 0.29213 0.0
C1351 C 0.23175 0.01091 0.19732 0.0
C1352 C 0.21668 0.01045 0.2301 0.0
H1353 H 0.16176 0.02535 0.42303 0.0
H1354 H 0.18618 0.02575 0.36901 0.0
H1355 H 0.18939 0.98183 0.28411 0.0
H1356 H 0.24722 0.98979 0.10845 0.0
H1357 H 0.2224 0.98955 0.16064 0.0
C1358 C 0.47226 0.23778 0.35961 0.0
C1359 C 0.48463 0.23917 0.39256 0.0
C1360 C 0.47095 0.25052 0.32696 0.0
C1361 C 0.48216 0.29599 0.29786 0.0
H1362 H 0.47709 0.28068 0.18122 0.0
C1363 C 0.48951 0.34201 0.14724 0.0
C1364 C 0.47859 0.33918 0.1121 0.0
C1365 C 0.48948 0.33053 0.18299 0.0
C1366 C 0.47823 0.28525 0.21362 0.0
H1367 H 0.505 0.25545 0.41729 0.0
H1368 H 0.50286 0.27758 0.35997 0.0
H1369 H 0.47852 0.25947 0.24027 0.0
H1370 H 0.45838 0.32253 0.08819 0.0
H1371 H 0.45815 0.30271 0.15046 0.0
H1372 H 0.48192 0.32182 0.27101 0.0
C1373 C 0.49409 0.26664 0.3596 0.0
C1374 C 0.47908 0.27304 0.24758 0.0
C1375 C 0.49544 0.25385 0.39227 0.0
C1376 C 0.46719 0.32494 0.11431 0.0
C1377 C 0.46711 0.31353 0.15004 0.0
C1378 C 0.48128 0.30824 0.26381 0.0
C1379 C 0.48195 0.26505 0.32623 0.0
C1380 C 0.48102 0.27822 0.2902 0.0
C1381 C 0.47848 0.31597 0.18456 0.0
C1382 C 0.47927 0.30304 0.22119 0.0
H1383 H 0.46385 0.2266 0.35837 0.0
H1384 H 0.46128 0.24895 0.30216 0.0
H1385 H 0.48346 0.30048 0.33029 0.0
H1386 H 0.4986 0.35272 0.14643 0.0
H1387 H 0.49854 0.33277 0.2087 0.0
C1388 C 0.34886 0.49176 0.37092 0.0
C1389 C 0.36467 0.5 0.35731 0.0
C1390 C 0.33399 0.49195 0.34452 0.0
C1391 C 0.31368 0.51576 0.25199 0.0
H1392 H 0.28602 0.47428 0.24268 0.0
C1393 C 0.26176 0.50872 0.11977 0.0
C1394 C 0.24619 0.49923 0.12884 0.0
C1395 C 0.27526 0.50949 0.14982 0.0
C1396 C 0.29339 0.48607 0.24537 0.0
H1397 H 0.37723 0.51527 0.30614 0.0
H1398 H 0.35129 0.51558 0.25958 0.0
H1399 H 0.31154 0.4741 0.28979 0.0
H1400 H 0.23247 0.48354 0.17764 0.0
H1401 H 0.25597 0.4851 0.23067 0.0
H1402 H 0.29559 0.52774 0.20757 0.0
C1403 C 0.35032 0.50896 0.29069 0.0
C1404 C 0.3081 0.48596 0.27238 0.0
C1405 C 0.36524 0.5087 0.3171 0.0
C1406 C 0.24424 0.49099 0.16958 0.0
C1407 C 0.25783 0.49174 0.19979 0.0
C1408 C 0.29895 0.51589 0.2251 0.0
C1409 C 0.33448 0.50055 0.30398 0.0
C1410 C 0.31855 0.50076 0.27582 0.0
C1411 C 0.27364 0.50085 0.19012 0.0
C1412 C 0.28867 0.501 0.22102 0.0
H1413 H 0.34801 0.48525 0.40219 0.0
H1414 H 0.32199 0.48559 0.35624 0.0
H1415 H 0.32115 0.5275 0.2544 0.0
H1416 H 0.26364 0.51545 0.08901 0.0
H1417 H 0.28722 0.5165 0.14083 0.0
C1418 C 1.00257 0.20314 0.10169 0.0
C1419 C 0.0137 0.18829 0.10161 0.0
C1420 C 1.00287 0.21473 0.13532 0.0
C1421 C 0.01702 0.21984 0.24818 0.0
H1422 H 0.01239 0.26856 0.21722 0.0
C1423 C 0.02537 0.27503 0.37028 0.0
C1424 C 0.01304 0.28897 0.3677 0.0
C1425 C 0.0259 0.26223 0.3391 0.0
C1426 C 0.01353 0.25501 0.22656 0.0
H1427 H 0.03357 0.1738 0.13774 0.0
H1428 H 0.03427 0.19421 0.19655 0.0
H1429 H 0.01261 0.24725 0.16122 0.0
H1430 H 0.99171 0.30033 0.32979 0.0
H1431 H 0.99254 0.27807 0.27596 0.0
H1432 H 0.0181 0.22778 0.31371 0.0
C1433 C 0.02517 0.1968 0.17059 0.0
C1434 C 0.01363 0.24273 0.19436 0.0
C1435 C 0.0248 0.18509 0.13685 0.0
C1436 C 1.00125 0.28972 0.3332 0.0
C1437 C 1.00187 0.27703 0.30197 0.0
C1438 C 0.01702 0.23217 0.28048 0.0
C1439 C 0.01436 0.21192 0.16998 0.0
C1440 C 0.01512 0.22494 0.20465 0.0
C1441 C 0.01424 0.26315 0.30431 0.0
C1442 C 0.01505 0.24992 0.27011 0.0
H1443 H 0.99353 0.20582 0.07562 0.0
H1444 H 0.99397 0.22592 0.13415 0.0
H1445 H 0.01806 0.20628 0.25748 0.0
H1446 H 0.03456 0.27395 0.39655 0.0
H1447 H 0.03567 0.25178 0.34181 0.0
C1448 C 0.66308 0.99372 0.15218 0.0
C1449 C 0.64676 1.00153 0.16488 0.0
C1450 C 0.67785 0.99397 0.1788 0.0
C1451 C 0.69662 0.01731 0.26929 0.0
H1452 H 0.72587 0.97579 0.28422 0.0
C1453 C 0.74837 0.01009 0.40326 0.0
C1454 C 0.76433 1.0006 0.39566 0.0
C1455 C 0.73491 0.01085 0.37297 0.0
C1456 C 0.71805 0.9876 0.27994 0.0
H1457 H 0.63314 0.01618 0.21449 0.0
H1458 H 0.65895 0.01665 0.26141 0.0
H1459 H 0.7006 0.97577 0.23639 0.0
H1460 H 0.77874 0.98488 0.34917 0.0
H1461 H 0.75533 0.98648 0.29566 0.0
H1462 H 0.71403 0.02917 0.31272 0.0
C1463 C 0.66038 0.01028 0.23088 0.0
C1464 C 0.70349 0.98757 0.25254 0.0
C1465 C 0.64556 0.00994 0.20427 0.0
C1466 C 0.76666 0.99233 0.35611 0.0
C1467 C 0.75313 0.99309 0.32564 0.0
C1468 C 0.71122 0.01737 0.29653 0.0
C1469 C 0.67671 1.00222 0.21859 0.0
C1470 C 0.69248 1.00238 0.2471 0.0
C1471 C 0.73697 1.00223 0.33385 0.0
C1472 C 0.72206 1.00246 0.30263 0.0
H1473 H 0.6644 0.98743 0.12151 0.0
H1474 H 0.69025 0.98789 0.1679 0.0
H1475 H 0.68866 0.02905 0.26532 0.0
H1476 H 0.74618 0.01689 0.43299 0.0
H1477 H 0.72266 0.01787 0.38084 0.0
C1478 C 0.53775 0.8403 0.34669 0.0
C1479 C 0.52719 0.83737 0.38424 0.0
C1480 C 0.53792 0.8285 0.31306 0.0
C1481 C 0.52702 0.78267 0.29257 0.0
H1482 H 0.52901 0.79712 0.17214 0.0
C1483 C 0.51198 0.7357 0.15829 0.0
C1484 C 0.52287 0.73599 0.12064 0.0
C1485 C 0.51335 0.74842 0.18908 0.0
C1486 C 0.52865 0.79286 0.20563 0.0
H1487 H 0.5077 0.82025 0.41453 0.0
H1488 H 0.50779 0.80001 0.35631 0.0
H1489 H 0.5297 0.81883 0.22784 0.0
H1490 H 0.54365 0.75017 0.08589 0.0
H1491 H 0.54607 0.77241 0.1399 0.0
H1492 H 0.52575 0.75678 0.2706 0.0
C1493 C 0.51645 0.81104 0.35314 0.0
C1494 C 0.52906 0.80532 0.23762 0.0
C1495 C 0.51635 0.82271 0.38662 0.0
C1496 C 0.53513 0.74946 0.1146 0.0
C1497 C 0.53641 0.7623 0.14538 0.0
C1498 C 0.52653 0.77028 0.26073 0.0
C1499 C 0.52744 0.81355 0.31613 0.0
C1500 C 0.528 0.8004 0.28159 0.0
C1501 C 0.52561 0.76187 0.1832 0.0
C1502 C 0.5271 0.77519 0.21681 0.0
H1503 H 0.54628 0.85143 0.34385 0.0
H1504 H 0.54661 0.83086 0.28518 0.0
H1505 H 0.52666 0.77828 0.32597 0.0
H1506 H 0.50254 0.72545 0.16439 0.0
H1507 H 0.50466 0.74775 0.21751 0.0
C1508 C 0.7462 0.5287 0.32456 0.0
C1509 C 0.74823 0.52051 0.36517 0.0
C1510 C 0.76002 0.52797 0.29306 0.0
C1511 C 0.80903 0.52062 0.28233 0.0
H1512 H 0.79998 0.51392 0.16186 0.0
C1513 C 0.86683 0.50906 0.15811 0.0
C1514 C 0.86525 0.51685 0.1171 0.0
C1515 C 0.85232 0.50922 0.18763 0.0
C1516 C 0.80277 0.51601 0.19529 0.0
H1517 H 0.76608 0.50423 0.40325 0.0
H1518 H 0.78998 0.50309 0.34889 0.0
H1519 H 0.77499 0.515 0.21395 0.0
H1520 H 0.84725 0.53038 0.07399 0.0
H1521 H 0.82203 0.53111 0.12562 0.0
H1522 H 0.83672 0.52183 0.2639 0.0
C1523 C 0.77793 0.51044 0.3416 0.0
C1524 C 0.78839 0.51662 0.22518 0.0
C1525 C 0.76418 0.51112 0.37286 0.0
C1526 C 0.84882 0.52448 0.10572 0.0
C1527 C 0.83434 0.52473 0.1352 0.0
C1528 C 0.82337 0.5201 0.25248 0.0
C1529 C 0.77618 0.51904 0.30148 0.0
C1530 C 0.79134 0.51883 0.26916 0.0
C1531 C 0.83588 0.51716 0.17671 0.0
C1532 C 0.82048 0.51771 0.20851 0.0
H1533 H 0.73416 0.5361 0.31753 0.0
H1534 H 0.75823 0.53481 0.26256 0.0
H1535 H 0.8118 0.52266 0.3158 0.0
H1536 H 0.87931 0.50288 0.1673 0.0
H1537 H 0.85395 0.50297 0.21891 0.0
C1538 C 1.00013 0.77243 0.13005 0.0
C1539 C 0.98907 0.78735 0.13019 0.0
C1540 C 0.99869 0.75984 0.16322 0.0
C1541 C 0.98319 0.75466 0.27681 0.0
H1542 H 0.98798 0.7056 0.25606 0.0
C1543 C 0.9939 0.70485 0.41519 0.0
C1544 C 0.98454 0.68926 0.41495 0.0
C1545 C 0.99392 0.71626 0.37954 0.0
C1546 C 0.98647 0.71925 0.26238 0.0
H1547 H 0.96771 0.80054 0.16554 0.0
H1548 H 0.96501 0.77853 0.22269 0.0
H1549 H 0.98851 0.72636 0.19521 0.0
H1550 H 0.96804 0.67344 0.37622 0.0
H1551 H 0.96815 0.6934 0.3137 0.0
H1552 H 0.98103 0.74764 0.3438 0.0
C1553 C 0.97493 0.77662 0.19715 0.0
C1554 C 0.98696 0.73116 0.22752 0.0
C1555 C 0.97633 0.78916 0.16399 0.0
C1556 C 0.97547 0.68526 0.37754 0.0
C1557 C 0.97554 0.69671 0.34167 0.0
C1558 C 0.98277 0.74279 0.31157 0.0
C1559 C 0.98621 0.76187 0.19751 0.0
C1560 C 0.98536 0.74904 0.2343 0.0
C1561 C 0.98466 0.71243 0.34239 0.0
C1562 C 0.98451 0.72493 0.3049 0.0
H1563 H 0.00997 0.77049 0.10436 0.0
H1564 H 0.00768 0.74872 0.16256 0.0
H1565 H 0.98212 0.76831 0.28339 0.0
H1566 H 1.00147 0.7082 0.44285 0.0
H1567 H 1.00143 0.72803 0.38094 0.0
C1568 C 0.39083 1.00064 0.06426 0.0
C1569 C 0.38136 0.00656 0.02818 0.0
C1570 C 0.4096 1.00037 0.06341 0.0
C1571 C 0.44928 1.00069 0.98828 0.0
H1572 H 0.47457 0.01434 0.0886 0.0
C1573 C 0.52654 0.00811 0.98384 0.0
C1574 C 0.53589 1.00353 0.02115 0.0
C1575 C 0.50776 0.00878 0.98461 0.0
C1576 C 0.46781 0.01024 0.06041 0.0
H1577 H 0.38411 0.01746 0.96365 0.0
H1578 H 0.4168 0.01683 0.96167 0.0
H1579 H 0.44202 0.01468 0.09029 0.0
H1580 H 0.53295 0.99552 0.08811 0.0
H1581 H 0.50029 0.99636 0.08957 0.0
H1582 H 0.47501 0.99602 0.95851 0.0
C1583 C 0.40982 0.01212 0.9905 0.0
C1584 C 0.44905 0.01046 0.06139 0.0
C1585 C 0.39106 0.01252 0.99158 0.0
C1586 C 0.52607 0.99936 0.05904 0.0
C1587 C 0.50731 0.99996 0.05985 0.0
C1588 C 0.46805 1.00035 0.98738 0.0
C1589 C 0.4194 0.00603 0.02641 0.0
C1590 C 0.43948 0.0057 0.02536 0.0
C1591 C 0.4978 1.00468 0.02263 0.0
C1592 C 0.47767 1.00513 0.02343 0.0
H1593 H 0.38368 0.99626 0.09319 0.0
H1594 H 0.41645 0.99551 0.09162 0.0
H1595 H 0.44244 0.9967 0.96007 0.0
H1596 H 0.53374 0.01091 0.95383 0.0
H1597 H 0.50108 0.01261 0.95532 0.0
C1598 C 0.49693 0.45467 0.00988 0.0
C1599 C 0.49772 0.44503 0.97231 0.0
C1600 C 0.49877 0.47271 0.0077 0.0
C1601 C 0.49706 0.51084 0.92994 0.0
H1602 H 0.5189 0.53419 0.02312 0.0
C1603 C 0.49653 0.58593 0.93761 0.0
C1604 C 0.5111 0.59407 0.95573 0.0
C1605 C 0.49512 0.56784 0.93919 0.0
C1606 C 0.51294 0.52795 0.99643 0.0
H1607 H 0.50094 0.44653 0.90312 0.0
H1608 H 0.5049 0.47782 0.89895 0.0
H1609 H 0.51673 0.50291 0.02614 0.0
H1610 H 0.53556 0.58909 0.99022 0.0
H1611 H 0.53351 0.5578 0.99131 0.0
H1612 H 0.49388 0.53582 0.89948 0.0
C1613 C 0.50248 0.47171 0.93026 0.0
C1614 C 0.51142 0.50988 0.99851 0.0
C1615 C 0.50043 0.45371 0.93253 0.0
C1616 C 0.52428 0.58345 0.97513 0.0
C1617 C 0.52293 0.56537 0.97646 0.0
C1618 C 0.49871 0.52889 0.92769 0.0
C1619 C 0.50159 0.48159 0.96781 0.0
C1620 C 0.5034 0.50097 0.96537 0.0
C1621 C 0.50827 0.55721 0.95875 0.0
C1622 C 0.50664 0.53781 0.96095 0.0
H1623 H 0.49463 0.44826 0.04092 0.0
H1624 H 0.49764 0.4797 0.03735 0.0
H1625 H 0.49056 0.50467 0.90393 0.0
H1626 H 0.48614 0.59352 0.92206 0.0
H1627 H 0.48347 0.56225 0.92564 0.0
C1628 C 0.98815 0.51768 0.93637 0.0
C1629 C 0.97615 0.5116 0.96862 0.0
C1630 C 0.00672 0.51616 0.94159 0.0
C1631 C 0.04103 0.50936 0.02623 0.0
H1632 H 0.0729 0.50049 0.92867 0.0
C1633 C 0.11731 0.49547 0.04607 0.0
C1634 C 0.12925 0.50131 0.01335 0.0
C1635 C 0.09872 0.49681 0.04095 0.0
C1636 C 0.06428 0.50322 0.95627 0.0
H1637 H 0.97421 0.49855 0.03087 0.0
H1638 H 0.0065 0.49567 0.0401 0.0
H1639 H 0.04076 0.50217 0.91868 0.0
H1640 H 0.13094 0.51426 0.9509 0.0
H1641 H 0.09864 0.517 0.94216 0.0
H1642 H 0.06455 0.51046 0.06379 0.0
C1643 C 1.00169 0.50199 0.01102 0.0
C1644 C 0.04572 0.50416 0.95052 0.0
C1645 C 0.98314 0.50349 0.00567 0.0
C1646 C 0.12211 0.50928 0.97629 0.0
C1647 C 0.10354 0.51073 0.9712 0.0
C1648 C 0.05959 0.50844 0.03197 0.0
C1649 C 0.01384 0.50843 0.97922 0.0
C1650 C 0.03374 0.50726 0.9854 0.0
C1651 C 0.09149 0.5043 0.00318 0.0
C1652 C 0.07157 0.50536 0.99709 0.0
H1653 H 0.98317 0.52376 0.90717 0.0
H1654 H 0.01548 0.5214 0.91641 0.0
H1655 H 0.03239 0.51207 0.05385 0.0
H1656 H 0.12231 0.48996 0.07586 0.0
H1657 H 0.09003 0.49173 0.06648 0.0
C1658 C 1.00473 0.07215 0.93852 0.0
C1659 C 1.00268 0.08021 0.97823 0.0
C1660 C 1.00425 0.05411 0.93603 0.0
C1661 C 0.99175 0.01393 0.99988 0.0
H1662 H 0.02058 0.99157 0.91136 0.0
C1663 C 0.98705 0.94028 0.97275 0.0
C1664 C 1.00253 0.93096 0.95959 0.0
C1665 C 0.98691 0.95838 0.97423 0.0
C1666 C 0.01258 0.99749 0.93668 0.0
H1667 H 0.99915 0.07577 0.04685 0.0
H1668 H 0.99878 0.04424 0.04314 0.0
H1669 H 0.02103 0.02276 0.91672 0.0
H1670 H 0.03002 0.93394 0.93703 0.0
H1671 H 0.03002 0.96522 0.94139 0.0
H1672 H 0.98394 0.98858 0.02108 0.0
C1673 C 1.00011 0.05177 0.0134 0.0
C1674 C 0.01259 0.01556 0.93932 0.0
C1675 C 1.00037 0.06987 0.01569 0.0
C1676 C 0.01786 0.94045 0.94783 0.0
C1677 C 0.01777 0.95857 0.94975 0.0
C1678 C 0.99188 0.99584 0.99752 0.0
C1679 C 1.00209 0.04355 0.97348 0.0
C1680 C 1.00213 0.02413 0.97087 0.0
C1681 C 1.00231 0.96786 0.96313 0.0
C1682 C 1.00225 0.98728 0.96577 0.0
H1683 H 0.00676 0.07989 0.90933 0.0
H1684 H 0.00552 0.04848 0.90459 0.0
H1685 H 0.98331 0.01988 0.02434 0.0
H1686 H 0.97502 0.93361 0.98287 0.0
H1687 H 0.97461 0.96491 0.98403 0.0
C1688 C 0.02675 0.01027 0.49786 0.0
C1689 C 0.03476 0.00516 0.53665 0.0
C1690 C 0.00817 0.00971 0.49368 0.0
C1691 C 0.96546 0.00789 0.55933 0.0
H1692 H 0.94514 0.99728 0.44999 0.0
C1693 C 0.88972 0.9963 0.54128 0.0
C1694 C 0.88135 1.0037 0.50515 0.0
C1695 C 0.90834 0.99658 0.54478 0.0
C1696 C 0.95057 1.00045 0.48066 0.0
H1697 H 0.02943 0.99606 0.60209 0.0
H1698 H 0.99712 0.99432 0.59455 0.0
H1699 H 0.97749 0.99688 0.45702 0.0
H1700 H 0.88615 0.01609 0.44272 0.0
H1701 H 0.91869 0.01696 0.44905 0.0
H1702 H 0.93846 0.01116 0.58306 0.0
C1703 C 1.00512 0.99888 0.56716 0.0
C1704 C 0.96921 1.00025 0.48475 0.0
C1705 C 0.02374 0.99953 0.57134 0.0
C1706 C 0.89211 0.01092 0.47179 0.0
C1707 C 0.9108 0.01115 0.47515 0.0
C1708 C 0.94683 0.00794 0.55532 0.0
C1709 C 0.99699 1.00408 0.52832 0.0
C1710 C 0.977 1.00399 0.52414 0.0
C1711 C 0.91918 1.00408 0.5119 0.0
C1712 C 0.9391 1.00425 0.51591 0.0
H1713 H 0.03489 0.01496 0.47082 0.0
H1714 H 1.00258 0.01414 0.4635 0.0
H1715 H 0.97078 0.0112 0.58999 0.0
H1716 H 0.88181 0.99017 0.5668 0.0
H1717 H 0.91432 0.99059 0.57292 0.0
C1718 C 0.51231 0.95647 0.47729 0.0
C1719 C 0.51221 0.94542 0.51386 0.0
C1720 C 0.51067 0.97448 0.48149 0.0
C1721 C 0.51482 0.00927 0.56252 0.0
H1722 H 0.49093 0.03753 0.47598 0.0
C1723 C 0.51596 0.08445 0.5639 0.0
C1724 C 0.50086 0.09393 0.54983 0.0
C1725 C 0.51723 0.06644 0.5596 0.0
C1726 C 0.49749 0.02989 0.50083 0.0
H1727 H 0.51034 0.9444 0.58327 0.0
H1728 H 0.50683 0.97561 0.59099 0.0
H1729 H 0.49263 0.00633 0.46894 0.0
H1730 H 0.4753 0.09144 0.51955 0.0
H1731 H 0.4772 0.06024 0.51363 0.0
H1732 H 0.51914 0.03276 0.59518 0.0
C1733 C 0.50854 0.97062 0.55891 0.0
C1734 C 0.49872 0.01188 0.49641 0.0
C1735 C 0.51035 0.95266 0.55462 0.0
C1736 C 0.48703 0.08472 0.53159 0.0
C1737 C 0.48826 0.06671 0.52745 0.0
C1738 C 0.51349 0.02726 0.56709 0.0
C1739 C 0.50882 0.9819 0.52243 0.0
C1740 C 0.50742 1.00123 0.52716 0.0
C1741 C 0.50342 0.05723 0.54121 0.0
C1742 C 0.50482 0.03792 0.53632 0.0
H1743 H 0.51395 0.95118 0.4455 0.0
H1744 H 0.51126 0.98258 0.45255 0.0
H1745 H 0.52188 1.00171 0.58668 0.0
H1746 H 0.52687 0.09091 0.57845 0.0
H1747 H 0.52925 0.05978 0.57015 0.0
C1748 C 0.62051 0.50702 0.44488 0.0
C1749 C 0.62985 0.51409 0.47862 0.0
C1750 C 0.60176 0.50597 0.447 0.0
C1751 C 0.56092 0.52354 0.50605 0.0
H1752 H 0.53791 0.48482 0.45576 0.0
C1753 C 0.48497 0.51002 0.53376 0.0
C1754 C 0.47542 0.50464 0.49837 0.0
C1755 C 0.50367 0.51144 0.53107 0.0
C1756 C 0.54406 0.49584 0.46965 0.0
H1757 H 0.62659 0.52664 0.5396 0.0
H1758 H 0.59421 0.52431 0.54439 0.0
H1759 H 0.57036 0.4867 0.45184 0.0
H1760 H 0.47809 0.49603 0.43288 0.0
H1761 H 0.51065 0.49845 0.42802 0.0
H1762 H 0.53455 0.53248 0.52446 0.0
C1763 C 0.60118 0.51955 0.51601 0.0
C1764 C 0.56279 0.49696 0.4673 0.0
C1765 C 0.61988 0.5207 0.51363 0.0
C1766 C 0.48506 0.50038 0.46054 0.0
C1767 C 0.50376 0.50167 0.45791 0.0
C1768 C 0.5422 0.52234 0.5087 0.0
C1769 C 0.59173 0.51209 0.4828 0.0
C1770 C 0.5716 0.51086 0.48537 0.0
C1771 C 0.51339 0.50724 0.49313 0.0
C1772 C 0.53345 0.50849 0.49045 0.0
H1773 H 0.62765 0.50264 0.41633 0.0
H1774 H 0.59513 0.50063 0.42001 0.0
H1775 H 0.56695 0.53466 0.51971 0.0
H1776 H 0.47803 0.51279 0.56388 0.0
H1777 H 0.51057 0.51545 0.55917 0.0
C1778 C 0.00556 0.57115 0.5781 0.0
C1779 C 1.00433 0.58076 0.53936 0.0
C1780 C 0.00714 0.55306 0.57818 0.0
C1781 C 0.01633 0.51549 0.50568 0.0
H1782 H 0.99477 0.48959 0.60142 0.0
C1783 C 0.0241 0.44065 0.52028 0.0
C1784 C 0.00989 0.43103 0.53866 0.0
C1785 C 0.02391 0.45879 0.52107 0.0
C1786 C 1.00072 0.49652 0.57407 0.0
H1787 H 1.00328 0.57906 0.47024 0.0
H1788 H 0.00544 0.54747 0.46995 0.0
H1789 H 0.9932 0.52092 0.60038 0.0
H1790 H 0.98435 0.43345 0.57294 0.0
H1791 H 0.98365 0.46481 0.57268 0.0
H1792 H 0.0231 0.49106 0.47838 0.0
C1793 C 0.00588 0.55379 0.50051 0.0
C1794 C 1.00009 0.51466 0.57383 0.0
C1795 C 1.00457 0.57194 0.50052 0.0
C1796 C 0.9955 0.44023 0.55797 0.0
C1797 C 0.99522 0.45837 0.55838 0.0
C1798 C 0.0168 0.49734 0.50569 0.0
C1799 C 0.0071 0.544 0.5394 0.0
C1800 C 0.00791 0.52451 0.53967 0.0
C1801 C 0.00941 0.46801 0.53987 0.0
C1802 C 0.00901 0.4875 0.53992 0.0
H1803 H 1.00515 0.57765 0.60847 0.0
H1804 H 0.00839 0.54623 0.60884 0.0
H1805 H 0.02275 0.52243 0.47896 0.0
H1806 H 0.03533 0.43422 0.5044 0.0
H1807 H 0.03526 0.46554 0.507 0.0
loop_
_geom_bond_atom_site_label_1
_geom_bond_atom_site_label_2
_geom_bond_distance
_geom_bond_site_symmetry_2
_ccdc_geom_bond_type
C0 C1 1.443 . S
C0 N4 1.376 . S
C0 C38 1.392 1_545 S
C1 C0 1.443 . S
C1 C2 1.340 . S
C1 H41 0.951 . S
C2 C1 1.340 . S
C2 C3 1.439 . S
C2 H42 0.950 . S
C3 C2 1.439 . S
C3 N4 1.374 . S
C3 C37 1.395 . S
N4 C0 1.376 . S
N4 C3 1.374 . S
N4 Co5 2.008 . S
Co5 N4 2.008 . S
Co5 N6 1.995 . S
Co5 N11 2.008 1_545 S
Co5 N16 1.995 1_545 S
Co5 N21 2.282 1_545 S
Co5 N27 2.282 . S
N6 Co5 1.995 . S
N6 C7 1.376 . S
N6 C10 1.383 . S
C7 N6 1.376 . S
C7 C8 1.446 . S
C7 C37 1.391 . S
C8 C7 1.446 . S
C8 C9 1.339 . S
C8 H43 0.949 . S
C9 C8 1.339 . S
C9 C10 1.439 . S
C9 H44 0.950 . S
C10 N6 1.383 . S
C10 C9 1.439 . S
C10 C39 1.402 . S
N11 Co5 2.008 1_565 S
N11 C12 1.376 . S
N11 C15 1.374 . S
C12 N11 1.376 . S
C12 C13 1.443 . S
C12 C39 1.378 1_565 S
C13 C12 1.443 . S
C13 C14 1.340 . S
C13 H45 0.951 . S
C14 C13 1.340 . S
C14 C15 1.439 . S
C14 H46 0.950 . S
C15 N11 1.374 . S
C15 C14 1.439 . S
C15 C40 1.395 . S
N16 Co5 1.995 1_565 S
N16 C17 1.376 . S
N16 C20 1.383 . S
C17 N16 1.376 . S
C17 C18 1.446 . S
C17 C40 1.391 . S
C18 C17 1.446 . S
C18 C19 1.339 . S
C18 H47 0.949 . S
C19 C18 1.339 . S
C19 C20 1.439 . S
C19 H48 0.950 . S
C20 N16 1.383 . S
C20 C19 1.439 . S
C20 C38 1.389 . S
N21 Co5 2.282 1_565 S
N21 C24 1.332 . S
N21 C26 1.332 1_565 S
C22 C23 1.386 1_556 S
C22 C25 1.388 . S
C23 C22 1.386 1_554 S
C23 C24 1.382 . S
C23 H49 0.950 . S
C24 N21 1.332 . S
C24 C23 1.382 . S
C24 H35 0.952 . S
C25 C22 1.388 . S
C25 C26 1.383 1_566 S
C25 H50 0.949 1_565 S
C26 N21 1.332 1_545 S
C26 C25 1.383 1_544 S
C26 H36 0.948 . S
N27 Co5 2.282 . S
N27 C31 1.332 . S
N27 C32 1.332 1_545 S
C28 C29 1.388 . S
C28 C32 1.382 1_545 S
C28 H51 0.950 1_545 S
C29 C28 1.388 . S
C29 C30 1.386 . S
C30 C29 1.386 . S
C30 C31 1.382 . S
C30 H52 0.950 . S
C31 N27 1.332 . S
C31 C30 1.382 . S
C31 H33 0.952 . S
C32 N27 1.332 1_565 S
C32 C28 1.382 1_565 S
C32 H34 0.948 . S
H33 C31 0.952 . S
H34 C32 0.948 . S
H35 C24 0.952 . S
H36 C26 0.948 . S
C37 C3 1.395 . S
C37 C7 1.391 . S
C38 C0 1.392 1_565 S
C38 C20 1.389 . S
C39 C10 1.402 . S
C39 C12 1.378 1_545 S
C40 C15 1.395 . S
C40 C17 1.391 . S
H41 C1 0.951 . S
H42 C2 0.950 . S
H43 C8 0.949 . S
H44 C9 0.950 . S
H45 C13 0.951 . S
H46 C14 0.950 . S
H47 C18 0.949 . S
H48 C19 0.950 . S
H49 C23 0.950 . S
H50 C25 0.949 1_545 S
H51 C28 0.950 1_565 S
H52 C30 0.950 . S
C53 C54 1.443 . S
C53 N57 1.376 . S
C53 C91 1.389 . S
C54 C53 1.443 . S
C54 C55 1.340 . S
C54 H94 0.951 . S
C55 C54 1.340 . S
C55 C56 1.439 . S
C55 H95 0.950 . S
C56 C55 1.439 . S
C56 N57 1.374 . S
C56 C90 1.395 . S
N57 C53 1.376 . S
N57 C56 1.374 . S
N57 Co58 2.008 . S
Co58 N57 2.008 . S
Co58 N59 1.995 . S
Co58 N64 2.008 . S
Co58 N69 1.995 . S
Co58 N74 2.282 . S
Co58 N80 2.282 . S
N59 Co58 1.995 . S
N59 C60 1.376 . S
N59 C63 1.383 . S
C60 N59 1.376 . S
C60 C61 1.446 . S
C60 C90 1.391 . S
C61 C60 1.446 . S
C61 C62 1.339 1_554 S
C61 H96 0.949 . S
C62 C61 1.339 1_556 S
C62 C63 1.439 1_556 S
C62 H97 0.950 . S
C63 N59 1.383 . S
C63 C62 1.439 1_554 S
C63 C92 1.392 1_554 S
N64 Co58 2.008 . S
N64 C65 1.376 . S
N64 C68 1.374 . S
C65 N64 1.376 . S
C65 C66 1.444 1_554 S
C65 C92 1.389 1_554 S
C66 C65 1.444 1_556 S
C66 C67 1.341 1_556 S
C66 H98 0.950 . S
C67 C66 1.341 1_554 S
C67 C68 1.439 . S
C67 H99 0.950 . S
C68 N64 1.374 . S
C68 C67 1.439 . S
C68 C93 1.395 . S
N69 Co58 1.995 . S
N69 C70 1.376 . S
N69 C73 1.383 . S
C70 N69 1.376 . S
C70 C71 1.446 . S
C70 C93 1.391 . S
C71 C70 1.446 . S
C71 C72 1.339 . S
C71 H100 0.949 . S
C72 C71 1.339 . S
C72 C73 1.439 . S
C72 H101 0.950 . S
C73 N69 1.383 . S
C73 C72 1.439 . S
C73 C91 1.392 . S
N74 Co58 2.282 . S
N74 C77 1.332 . S
N74 C79 1.332 . S
C75 C76 1.386 . S
C75 C78 1.388 . S
C76 C75 1.386 . S
C76 C77 1.382 . S
C76 H102 0.950 . S
C77 N74 1.332 . S
C77 C76 1.382 . S
C77 H88 0.952 . S
C78 C75 1.388 . S
C78 C79 1.382 . S
C78 H103 0.950 . S
C79 N74 1.332 . S
C79 C78 1.382 . S
C79 H89 0.948 . S
N80 Co58 2.282 . S
N80 C84 1.332 . S
N80 C85 1.332 . S
C81 C82 1.388 . S
C81 C85 1.382 1_556 S
C81 H104 0.950 . S
C82 C81 1.388 . S
C82 C83 1.386 . S
C83 C82 1.386 . S
C83 C84 1.382 1_556 S
C83 H105 0.950 . S
C84 N80 1.332 . S
C84 C83 1.382 1_554 S
C84 H86 0.952 . S
C85 N80 1.332 . S
C85 C81 1.382 1_554 S
C85 H87 0.948 . S
H86 C84 0.952 . S
H87 C85 0.948 . S
H88 C77 0.952 . S
H89 C79 0.948 . S
C90 C56 1.395 . S
C90 C60 1.391 . S
C91 C53 1.389 . S
C91 C73 1.392 . S
C92 C63 1.392 1_556 S
C92 C65 1.389 1_556 S
C93 C68 1.395 . S
C93 C70 1.391 . S
H94 C54 0.951 . S
H95 C55 0.950 . S
H96 C61 0.949 . S
H97 C62 0.950 . S
H98 C66 0.950 . S
H99 C67 0.950 . S
H100 C71 0.949 . S
H101 C72 0.950 . S
H102 C76 0.950 . S
H103 C78 0.950 . S
H104 C81 0.950 . S
H105 C83 0.950 . S
C106 C107 1.443 . S
C106 N110 1.376 . S
C106 C144 1.389 . S
C107 C106 1.443 . S
C107 C108 1.340 . S
C107 H147 0.951 . S
C108 C107 1.340 . S
C108 C109 1.439 . S
C108 H148 0.950 . S
C109 C108 1.439 . S
C109 N110 1.374 . S
C109 C143 1.395 . S
N110 C106 1.376 . S
N110 C109 1.374 . S
N110 Co111 2.008 . S
Co111 N110 2.008 . S
Co111 N112 1.995 . S
Co111 N117 2.008 . S
Co111 N122 1.995 . S
Co111 N127 2.282 . S
Co111 N133 2.282 . S
N112 Co111 1.995 . S
N112 C113 1.376 . S
N112 C116 1.383 . S
C113 N112 1.376 . S
C113 C114 1.446 . S
C113 C143 1.391 . S
C114 C113 1.446 . S
C114 C115 1.339 . S
C114 H149 0.949 . S
C115 C114 1.339 . S
C115 C116 1.439 . S
C115 H150 0.950 . S
C116 N112 1.383 . S
C116 C115 1.439 . S
C116 C145 1.392 . S
N117 Co111 2.008 . S
N117 C118 1.376 . S
N117 C121 1.374 . S
C118 N117 1.376 . S
C118 C119 1.443 . S
C118 C145 1.389 . S
C119 C118 1.443 . S
C119 C120 1.340 . S
C119 H151 0.951 . S
C120 C119 1.340 . S
C120 C121 1.439 . S
C120 H152 0.950 . S
C121 N117 1.374 . S
C121 C120 1.439 . S
C121 C146 1.395 . S
N122 Co111 1.995 . S
N122 C123 1.376 . S
N122 C126 1.383 . S
C123 N122 1.376 . S
C123 C124 1.446 . S
C123 C146 1.391 . S
C124 C123 1.446 . S
C124 C125 1.339 . S
C124 H153 0.949 . S
C125 C124 1.339 . S
C125 C126 1.439 . S
C125 H154 0.950 . S
C126 N122 1.383 . S
C126 C125 1.439 . S
C126 C144 1.392 . S
N127 Co111 2.282 . S
N127 C130 1.332 . S
N127 C132 1.332 . S
C128 C129 1.386 . S
C128 C131 1.388 . S
C129 C128 1.386 . S
C129 C130 1.382 1_556 S
C129 H155 0.950 . S
C130 N127 1.332 . S
C130 C129 1.382 1_554 S
C130 H141 0.952 . S
C131 C128 1.388 . S
C131 C132 1.382 1_556 S
C131 H156 0.950 . S
C132 N127 1.332 . S
C132 C131 1.382 1_554 S
C132 H142 0.948 . S
N133 Co111 2.282 . S
N133 C137 1.332 . S
N133 C138 1.332 . S
C134 C135 1.388 . S
C134 C138 1.382 . S
C134 H157 0.950 . S
C135 C134 1.388 . S
C135 C136 1.386 . S
C136 C135 1.386 . S
C136 C137 1.382 . S
C136 H158 0.950 . S
C137 N133 1.332 . S
C137 C136 1.382 . S
C137 H139 0.952 . S
C138 N133 1.332 . S
C138 C134 1.382 . S
C138 H140 0.948 . S
H139 C137 0.952 . S
H140 C138 0.948 . S
H141 C130 0.952 . S
H142 C132 0.948 . S
C143 C109 1.395 . S
C143 C113 1.391 . S
C144 C106 1.389 . S
C144 C126 1.392 . S
C145 C116 1.392 . S
C145 C118 1.389 . S
C146 C121 1.395 . S
C146 C123 1.391 . S
H147 C107 0.951 . S
H148 C108 0.950 . S
H149 C114 0.949 . S
H150 C115 0.950 . S
H151 C119 0.951 . S
H152 C120 0.950 . S
H153 C124 0.949 . S
H154 C125 0.950 . S
H155 C129 0.950 . S
H156 C131 0.950 . S
H157 C134 0.950 . S
H158 C136 0.950 . S
C159 C160 1.443 . S
C159 N163 1.376 . S
C159 C197 1.389 1_655 S
C160 C159 1.443 . S
C160 C161 1.340 . S
C160 H200 0.951 . S
C161 C160 1.340 . S
C161 C162 1.439 . S
C161 H201 0.950 . S
C162 C161 1.439 . S
C162 N163 1.374 . S
C162 C196 1.395 . S
N163 C159 1.376 . S
N163 C162 1.374 . S
N163 Co164 2.008 1_655 S
Co164 N163 2.008 1_455 S
Co164 N165 1.995 1_455 S
Co164 N170 2.008 . S
Co164 N175 1.995 . S
Co164 N180 2.282 1_455 S
Co164 N186 2.282 . S
N165 Co164 1.995 1_655 S
N165 C166 1.376 . S
N165 C169 1.383 1_554 S
C166 N165 1.376 . S
C166 C167 1.446 . S
C166 C196 1.391 . S
C167 C166 1.446 . S
C167 C168 1.339 1_554 S
C167 H202 0.949 . S
C168 C167 1.339 1_556 S
C168 C169 1.439 . S
C168 H203 0.950 . S
C169 N165 1.383 1_556 S
C169 C168 1.439 . S
C169 C198 1.392 . S
N170 Co164 2.008 . S
N170 C171 1.376 1_554 S
N170 C174 1.374 . S
C171 N170 1.376 1_556 S
C171 C172 1.443 . S
C171 C198 1.389 1_455 S
C172 C171 1.443 . S
C172 C173 1.340 . S
C172 H204 0.951 . S
C173 C172 1.340 . S
C173 C174 1.439 1_556 S
C173 H205 0.950 . S
C174 N170 1.374 . S
C174 C173 1.439 1_554 S
C174 C199 1.395 . S
N175 Co164 1.995 . S
N175 C176 1.376 . S
N175 C179 1.383 . S
C176 N175 1.376 . S
C176 C177 1.446 . S
C176 C199 1.391 . S
C177 C176 1.446 . S
C177 C178 1.339 . S
C177 H206 0.949 . S
C178 C177 1.339 . S
C178 C179 1.439 . S
C178 H207 0.950 . S
C179 N175 1.383 . S
C179 C178 1.439 . S
C179 C197 1.392 . S
N180 Co164 2.282 1_655 S
N180 C183 1.308 1_655 S
N180 C185 1.356 . S
C181 C182 1.389 . S
C181 C184 1.385 1_455 S
C182 C181 1.389 . S
C182 C183 1.382 . S
C182 H208 0.950 . S
C183 N180 1.308 1_455 S
C183 C182 1.382 . S
C183 H194 0.952 . S
C184 C181 1.385 1_655 S
C184 C185 1.382 . S
C184 H209 0.950 . S
C185 N180 1.356 . S
C185 C184 1.382 . S
C185 H195 0.948 . S
N186 Co164 2.282 . S
N186 C190 1.295 1_454 S
N186 C191 1.369 1_554 S
C187 C188 1.385 . S
C187 C191 1.382 . S
C187 H210 0.950 . S
C188 C187 1.385 . S
C188 C189 1.389 1_455 S
C189 C188 1.389 1_655 S
C189 C190 1.382 . S
C189 H211 0.950 . S
C190 N186 1.295 1_656 S
C190 C189 1.382 . S
C190 H192 0.952 1_556 S
C191 N186 1.369 1_556 S
C191 C187 1.382 . S
C191 H193 0.948 1_556 S
H192 C190 0.952 1_554 S
H193 C191 0.948 1_554 S
H194 C183 0.952 . S
H195 C185 0.948 . S
C196 C162 1.395 . S
C196 C166 1.391 . S
C197 C159 1.389 1_455 S
C197 C179 1.392 . S
C198 C169 1.392 . S
C198 C171 1.389 1_655 S
C199 C174 1.395 . S
C199 C176 1.391 . S
H200 C160 0.951 . S
H201 C161 0.950 . S
H202 C167 0.949 . S
H203 C168 0.950 . S
H204 C172 0.951 . S
H205 C173 0.950 . S
H206 C177 0.949 . S
H207 C178 0.950 . S
H208 C182 0.950 . S
H209 C184 0.950 . S
H210 C187 0.950 . S
H211 C189 0.950 . S
C212 C213 1.443 . S
C212 N216 1.376 . S
C212 C250 1.389 . S
C213 C212 1.443 . S
C213 C214 1.340 . S
C213 H253 0.951 . S
C214 C213 1.340 . S
C214 C215 1.439 . S
C214 H254 0.950 . S
C215 C214 1.439 . S
C215 N216 1.374 . S
C215 C249 1.395 . S
N216 C212 1.376 . S
N216 C215 1.374 . S
N216 Co217 2.008 . S
Co217 N216 2.008 . S
Co217 N218 1.995 . S
Co217 N223 2.008 1_565 S
Co217 N228 1.995 1_565 S
Co217 N233 2.282 1_565 S
Co217 N239 2.282 . S
N218 Co217 1.995 . S
N218 C219 1.376 . S
N218 C222 1.383 . S
C219 N218 1.376 . S
C219 C220 1.446 . S
C219 C249 1.391 . S
C220 C219 1.446 . S
C220 C221 1.339 . S
C220 H255 0.949 . S
C221 C220 1.339 . S
C221 C222 1.439 . S
C221 H256 0.950 . S
C222 N218 1.383 . S
C222 C221 1.439 . S
C222 C251 1.342 1_565 S
N223 Co217 2.008 1_545 S
N223 C224 1.376 . S
N223 C227 1.374 . S
C224 N223 1.376 . S
C224 C225 1.443 . S
C224 C251 1.437 . S
C225 C224 1.443 . S
C225 C226 1.340 . S
C225 H257 0.951 . S
C226 C225 1.340 . S
C226 C227 1.439 . S
C226 H258 0.950 . S
C227 N223 1.374 . S
C227 C226 1.439 . S
C227 C252 1.395 . S
N228 Co217 1.995 1_545 S
N228 C229 1.376 . S
N228 C232 1.383 . S
C229 N228 1.376 . S
C229 C230 1.446 . S
C229 C252 1.391 . S
C230 C229 1.446 . S
C230 C231 1.339 . S
C230 H259 0.949 . S
C231 C230 1.339 . S
C231 C232 1.439 . S
C231 H260 0.950 . S
C232 N228 1.383 . S
C232 C231 1.439 . S
C232 C250 1.392 1_545 S
N233 Co217 2.282 1_545 S
N233 C236 1.332 . S
N233 C238 1.332 1_545 S
C234 C235 1.386 . S
C234 C237 1.388 . S
C235 C234 1.386 . S
C235 C236 1.382 . S
C235 H261 0.950 . S
C236 N233 1.332 . S
C236 C235 1.382 . S
C236 H247 0.952 . S
C237 C234 1.388 . S
C237 C238 1.382 1_545 S
C237 H262 0.950 1_545 S
C238 N233 1.332 1_565 S
C238 C237 1.382 1_565 S
C238 H248 0.948 . S
N239 Co217 2.282 . S
N239 C243 1.332 . S
N239 C244 1.332 1_565 S
C240 C241 1.388 . S
C240 C244 1.382 1_565 S
C240 H263 0.950 1_565 S
C241 C240 1.388 . S
C241 C242 1.386 . S
C242 C241 1.386 . S
C242 C243 1.382 . S
C242 H264 0.950 . S
C243 N239 1.332 . S
C243 C242 1.382 . S
C243 H245 0.952 . S
C244 N239 1.332 1_545 S
C244 C240 1.382 1_545 S
C244 H246 0.948 . S
H245 C243 0.952 . S
H246 C244 0.948 . S
H247 C236 0.952 . S
H248 C238 0.948 . S
C249 C215 1.395 . S
C249 C219 1.391 . S
C250 C212 1.389 . S
C250 C232 1.392 1_565 S
C251 C222 1.342 1_545 S
C251 C224 1.437 . S
C252 C227 1.395 . S
C252 C229 1.391 . S
H253 C213 0.951 . S
H254 C214 0.950 . S
H255 C220 0.949 . S
H256 C221 0.950 . S
H257 C225 0.951 . S
H258 C226 0.950 . S
H259 C230 0.949 . S
H260 C231 0.950 . S
H261 C235 0.950 . S
H262 C237 0.950 1_565 S
H263 C240 0.950 1_545 S
H264 C242 0.950 . S
C265 C266 1.443 . S
C265 N269 1.376 . S
C265 C303 1.389 . S
C266 C265 1.443 . S
C266 C267 1.340 . S
C266 H306 0.951 . S
C267 C266 1.340 . S
C267 C268 1.439 . S
C267 H307 0.950 . S
C268 C267 1.439 . S
C268 N269 1.374 . S
C268 C302 1.395 . S
N269 C265 1.376 . S
N269 C268 1.374 . S
N269 Co270 2.008 . S
Co270 N269 2.008 . S
Co270 N271 1.995 . S
Co270 N276 2.008 . S
Co270 N281 1.995 . S
Co270 N286 2.282 . S
Co270 N292 2.282 . S
N271 Co270 1.995 . S
N271 C272 1.376 . S
N271 C275 1.383 . S
C272 N271 1.376 . S
C272 C273 1.446 . S
C272 C302 1.391 . S
C273 C272 1.446 . S
C273 C274 1.339 . S
C273 H308 0.949 . S
C274 C273 1.339 . S
C274 C275 1.439 . S
C274 H309 0.950 . S
C275 N271 1.383 . S
C275 C274 1.439 . S
C275 C304 1.392 . S
N276 Co270 2.008 . S
N276 C277 1.376 . S
N276 C280 1.374 . S
C277 N276 1.376 . S
C277 C278 1.443 . S
C277 C304 1.389 . S
C278 C277 1.443 . S
C278 C279 1.340 . S
C278 H310 0.951 . S
C279 C278 1.340 . S
C279 C280 1.439 . S
C279 H311 0.950 . S
C280 N276 1.374 . S
C280 C279 1.439 . S
C280 C305 1.395 . S
N281 Co270 1.995 . S
N281 C282 1.376 . S
N281 C285 1.383 . S
C282 N281 1.376 . S
C282 C283 1.446 . S
C282 C305 1.391 . S
C283 C282 1.446 . S
C283 C284 1.339 . S
C283 H312 0.949 . S
C284 C283 1.339 . S
C284 C285 1.439 . S
C284 H313 0.950 . S
C285 N281 1.383 . S
C285 C284 1.439 . S
C285 C303 1.392 . S
N286 Co270 2.282 . S
N286 C289 1.332 . S
N286 C291 1.332 . S
C287 C288 1.386 . S
C287 C290 1.388 . S
C288 C287 1.386 . S
C288 C289 1.382 . S
C288 H314 0.950 . S
C289 N286 1.332 . S
C289 C288 1.382 . S
C289 H300 0.952 . S
C290 C287 1.388 . S
C290 C291 1.382 . S
C290 H315 0.950 . S
C291 N286 1.332 . S
C291 C290 1.382 . S
C291 H301 0.948 . S
N292 Co270 2.282 . S
N292 C296 1.332 . S
N292 C297 1.332 . S
C293 C294 1.388 . S
C293 C297 1.382 . S
C293 H316 0.950 . S
C294 C293 1.388 . S
C294 C295 1.386 . S
C295 C294 1.386 . S
C295 C296 1.382 . S
C295 H317 0.950 . S
C296 N292 1.332 . S
C296 C295 1.382 . S
C296 H298 0.952 . S
C297 N292 1.332 . S
C297 C293 1.382 . S
C297 H299 0.948 . S
H298 C296 0.952 . S
H299 C297 0.948 . S
H300 C289 0.952 . S
H301 C291 0.948 . S
C302 C268 1.395 . S
C302 C272 1.391 . S
C303 C265 1.389 . S
C303 C285 1.392 . S
C304 C275 1.392 . S
C304 C277 1.389 . S
C305 C280 1.395 . S
C305 C282 1.391 . S
H306 C266 0.951 . S
H307 C267 0.950 . S
H308 C273 0.949 . S
H309 C274 0.950 . S
H310 C278 0.951 . S
H311 C279 0.950 . S
H312 C283 0.949 . S
H313 C284 0.950 . S
H314 C288 0.950 . S
H315 C290 0.950 . S
H316 C293 0.950 . S
H317 C295 0.950 . S
C318 C319 1.443 . S
C318 N322 1.376 . S
C318 C356 1.389 . S
C319 C318 1.443 . S
C319 C320 1.340 . S
C319 H359 0.951 . S
C320 C319 1.340 . S
C320 C321 1.439 . S
C320 H360 0.950 . S
C321 C320 1.439 . S
C321 N322 1.374 . S
C321 C355 1.395 . S
N322 C318 1.376 . S
N322 C321 1.374 . S
N322 Co323 2.008 . S
Co323 N322 2.008 . S
Co323 N324 1.995 . S
Co323 N329 2.008 . S
Co323 N334 1.995 . S
Co323 N339 2.282 . S
Co323 N345 2.282 . S
N324 Co323 1.995 . S
N324 C325 1.376 . S
N324 C328 1.383 . S
C325 N324 1.376 . S
C325 C326 1.446 . S
C325 C355 1.391 . S
C326 C325 1.446 . S
C326 C327 1.339 . S
C326 H361 0.949 . S
C327 C326 1.339 . S
C327 C328 1.439 . S
C327 H362 0.950 . S
C328 N324 1.383 . S
C328 C327 1.439 . S
C328 C357 1.392 . S
N329 Co323 2.008 . S
N329 C330 1.376 . S
N329 C333 1.374 . S
C330 N329 1.376 . S
C330 C331 1.443 . S
C330 C357 1.389 . S
C331 C330 1.443 . S
C331 C332 1.340 . S
C331 H363 0.951 . S
C332 C331 1.340 . S
C332 C333 1.439 . S
C332 H364 0.950 . S
C333 N329 1.374 . S
C333 C332 1.439 . S
C333 C358 1.395 . S
N334 Co323 1.995 . S
N334 C335 1.376 . S
N334 C338 1.383 . S
C335 N334 1.376 . S
C335 C336 1.446 . S
C335 C358 1.391 . S
C336 C335 1.446 . S
C336 C337 1.339 . S
C336 H365 0.949 . S
C337 C336 1.339 . S
C337 C338 1.439 . S
C337 H366 0.950 . S
C338 N334 1.383 . S
C338 C337 1.439 . S
C338 C356 1.392 . S
N339 Co323 2.282 . S
N339 C342 1.332 . S
N339 C344 1.332 . S
C340 C341 1.386 . S
C340 C343 1.388 . S
C341 C340 1.386 . S
C341 C342 1.382 . S
C341 H367 0.950 . S
C342 N339 1.332 . S
C342 C341 1.382 . S
C342 H353 0.952 . S
C343 C340 1.388 . S
C343 C344 1.382 . S
C343 H368 0.950 . S
C344 N339 1.332 . S
C344 C343 1.382 . S
C344 H354 0.948 . S
N345 Co323 2.282 . S
N345 C349 1.332 . S
N345 C350 1.332 . S
C346 C347 1.388 . S
C346 C350 1.382 . S
C346 H369 0.950 . S
C347 C346 1.388 . S
C347 C348 1.386 . S
C348 C347 1.386 . S
C348 C349 1.382 . S
C348 H370 0.950 . S
C349 N345 1.332 . S
C349 C348 1.382 . S
C349 H351 0.952 . S
C350 N345 1.332 . S
C350 C346 1.382 . S
C350 H352 0.948 . S
H351 C349 0.952 . S
H352 C350 0.948 . S
H353 C342 0.952 . S
H354 C344 0.948 . S
C355 C321 1.395 . S
C355 C325 1.391 . S
C356 C318 1.389 . S
C356 C338 1.392 . S
C357 C328 1.392 . S
C357 C330 1.389 . S
C358 C333 1.395 . S
C358 C335 1.391 . S
H359 C319 0.951 . S
H360 C320 0.950 . S
H361 C326 0.949 . S
H362 C327 0.950 . S
H363 C331 0.951 . S
H364 C332 0.950 . S
H365 C336 0.949 . S
H366 C337 0.950 . S
H367 C341 0.950 . S
H368 C343 0.950 . S
H369 C346 0.950 . S
H370 C348 0.950 . S
C371 C372 1.443 . S
C371 N375 1.376 . S
C371 C409 1.389 1_455 S
C372 C371 1.443 . S
C372 C373 1.340 . S
C372 H412 0.951 . S
C373 C372 1.340 . S
C373 C374 1.439 . S
C373 H413 0.950 . S
C374 C373 1.439 . S
C374 N375 1.374 . S
C374 C408 1.395 . S
N375 C371 1.376 . S
N375 C374 1.374 . S
N375 Co376 2.008 1_455 S
Co376 N375 2.008 1_655 S
Co376 N377 1.995 1_655 S
Co376 N382 2.008 . S
Co376 N387 1.995 . S
Co376 N392 2.283 1_655 S
Co376 N398 2.283 . S
N377 Co376 1.995 1_455 S
N377 C378 1.376 . S
N377 C381 1.383 . S
C378 N377 1.376 . S
C378 C379 1.446 . S
C378 C408 1.391 . S
C379 C378 1.446 . S
C379 C380 1.339 . S
C379 H414 0.949 . S
C380 C379 1.339 . S
C380 C381 1.439 . S
C380 H415 0.950 . S
C381 N377 1.383 . S
C381 C380 1.439 . S
C381 C410 1.392 . S
N382 Co376 2.008 . S
N382 C383 1.376 . S
N382 C386 1.374 . S
C383 N382 1.376 . S
C383 C384 1.443 . S
C383 C410 1.389 1_655 S
C384 C383 1.443 . S
C384 C385 1.340 . S
C384 H416 0.951 . S
C385 C384 1.340 . S
C385 C386 1.439 . S
C385 H417 0.950 . S
C386 N382 1.374 . S
C386 C385 1.439 . S
C386 C411 1.395 . S
N387 Co376 1.995 . S
N387 C388 1.376 . S
N387 C391 1.383 . S
C388 N387 1.376 . S
C388 C389 1.446 . S
C388 C411 1.391 . S
C389 C388 1.446 . S
C389 C390 1.339 . S
C389 H418 0.949 . S
C390 C389 1.339 . S
C390 C391 1.439 . S
C390 H419 0.950 . S
C391 N387 1.383 . S
C391 C390 1.439 . S
C391 C409 1.392 . S
N392 Co376 2.283 1_455 S
N392 C395 1.317 1_455 S
N392 C397 1.347 . S
C393 C394 1.416 . S
C393 C396 1.356 1_655 S
C394 C393 1.416 . S
C394 C395 1.382 . S
C394 H420 0.950 . S
C395 N392 1.317 1_655 S
C395 C394 1.382 . S
C395 H406 0.952 . S
C396 C393 1.356 1_455 S
C396 C397 1.382 . S
C396 H421 0.950 . S
C397 N392 1.347 . S
C397 C396 1.382 . S
C397 H407 0.948 . S
N398 Co376 2.283 . S
N398 C402 1.303 1_655 S
N398 C403 1.359 . S
C399 C400 1.370 1_655 S
C399 C403 1.382 . S
C399 H422 0.950 . S
C400 C399 1.370 1_455 S
C400 C401 1.403 . S
C401 C400 1.403 . S
C401 C402 1.382 . S
C401 H423 0.950 . S
C402 N398 1.303 1_455 S
C402 C401 1.382 . S
C402 H404 0.952 . S
C403 N398 1.359 . S
C403 C399 1.382 . S
C403 H405 0.948 . S
H404 C402 0.952 . S
H405 C403 0.948 . S
H406 C395 0.952 . S
H407 C397 0.948 . S
C408 C374 1.395 . S
C408 C378 1.391 . S
C409 C371 1.389 1_655 S
C409 C391 1.392 . S
C410 C381 1.392 . S
C410 C383 1.389 1_455 S
C411 C386 1.395 . S
C411 C388 1.391 . S
H412 C372 0.951 . S
H413 C373 0.950 . S
H414 C379 0.949 . S
H415 C380 0.950 . S
H416 C384 0.951 . S
H417 C385 0.950 . S
H418 C389 0.949 . S
H419 C390 0.950 . S
H420 C394 0.950 . S
H421 C396 0.950 . S
H422 C399 0.950 . S
H423 C401 0.950 . S
C424 C425 1.443 . S
C424 N428 1.376 . S
C424 C462 1.389 1_556 S
C425 C424 1.443 . S
C425 C426 1.340 . S
C425 H465 0.951 1_556 S
C426 C425 1.340 . S
C426 C427 1.439 . S
C426 H466 0.950 . S
C427 C426 1.439 . S
C427 N428 1.374 . S
C427 C461 1.395 . S
N428 C424 1.376 . S
N428 C427 1.374 . S
N428 Co429 2.008 1_545 S
Co429 N428 2.008 1_565 S
Co429 N430 1.995 1_565 S
Co429 N435 2.008 . S
Co429 N440 1.995 1_556 S
Co429 N445 2.282 1_566 S
Co429 N451 2.282 . S
N430 Co429 1.995 1_545 S
N430 C431 1.376 . S
N430 C434 1.383 . S
C431 N430 1.376 . S
C431 C432 1.446 . S
C431 C461 1.391 . S
C432 C431 1.446 . S
C432 C433 1.339 . S
C432 H467 0.949 . S
C433 C432 1.339 . S
C433 C434 1.439 . S
C433 H468 0.950 . S
C434 N430 1.383 . S
C434 C433 1.439 . S
C434 C463 1.392 1_545 S
N435 Co429 2.008 . S
N435 C436 1.376 . S
N435 C439 1.374 . S
C436 N435 1.376 . S
C436 C437 1.443 . S
C436 C463 1.389 . S
C437 C436 1.443 . S
C437 C438 1.340 . S
C437 H469 0.951 . S
C438 C437 1.340 . S
C438 C439 1.439 . S
C438 H470 0.950 . S
C439 N435 1.374 . S
C439 C438 1.439 . S
C439 C464 1.388 1_556 S
N440 Co429 1.995 1_554 S
N440 C441 1.376 . S
N440 C444 1.383 . S
C441 N440 1.376 . S
C441 C442 1.446 . S
C441 C464 1.395 . S
C442 C441 1.446 . S
C442 C443 1.339 . S
C442 H471 0.949 . S
C443 C442 1.339 . S
C443 C444 1.439 . S
C443 H472 0.950 . S
C444 N440 1.383 . S
C444 C443 1.439 . S
C444 C462 1.392 1_565 S
N445 Co429 2.282 1_544 S
N445 C448 1.332 1_545 S
N445 C450 1.332 . S
C446 C447 1.349 1_545 S
C446 C449 1.388 . S
C447 C446 1.349 1_565 S
C447 C448 1.389 . S
C447 H473 0.980 . S
C448 N445 1.332 1_565 S
C448 C447 1.389 . S
C448 H459 0.952 . S
C449 C446 1.388 . S
C449 C450 1.382 . S
C449 H474 0.950 . S
C450 N445 1.332 . S
C450 C449 1.382 . S
C450 H460 0.948 1_554 S
N451 Co429 2.282 . S
N451 C455 1.332 1_565 S
N451 C456 1.332 . S
C452 C453 1.388 . S
C452 C456 1.382 . S
C452 H475 0.950 . S
C453 C452 1.388 . S
C453 C454 1.363 1_565 S
C454 C453 1.363 1_545 S
C454 C455 1.386 . S
C454 H476 0.969 . S
C455 N451 1.332 1_545 S
C455 C454 1.386 . S
C455 H457 0.952 . S
C456 N451 1.332 . S
C456 C452 1.382 . S
C456 H458 0.948 . S
H457 C455 0.952 . S
H458 C456 0.948 . S
H459 C448 0.952 . S
H460 C450 0.948 1_556 S
C461 C427 1.395 . S
C461 C431 1.391 . S
C462 C424 1.389 1_554 S
C462 C444 1.392 1_545 S
C463 C434 1.392 1_565 S
C463 C436 1.389 . S
C464 C439 1.388 1_554 S
C464 C441 1.395 . S
H465 C425 0.951 1_554 S
H466 C426 0.950 . S
H467 C432 0.949 . S
H468 C433 0.950 . S
H469 C437 0.951 . S
H470 C438 0.950 . S
H471 C442 0.949 . S
H472 C443 0.950 . S
H473 C447 0.980 . S
H474 C449 0.950 . S
H475 C452 0.950 . S
H476 C454 0.969 . S
C477 C478 1.443 . S
C477 N481 1.376 . S
C477 C515 1.389 . S
C478 C477 1.443 . S
C478 C479 1.340 . S
C478 H518 0.951 . S
C479 C478 1.340 . S
C479 C480 1.439 . S
C479 H519 0.950 . S
C480 C479 1.439 . S
C480 N481 1.374 . S
C480 C514 1.395 . S
N481 C477 1.376 . S
N481 C480 1.374 . S
N481 Co482 2.008 . S
Co482 N481 2.008 . S
Co482 N483 1.995 . S
Co482 N488 2.008 . S
Co482 N493 1.995 . S
Co482 N498 2.282 . S
Co482 N504 2.282 . S
N483 Co482 1.995 . S
N483 C484 1.376 . S
N483 C487 1.383 . S
C484 N483 1.376 . S
C484 C485 1.446 . S
C484 C514 1.391 . S
C485 C484 1.446 . S
C485 C486 1.339 . S
C485 H520 0.949 . S
C486 C485 1.339 . S
C486 C487 1.439 . S
C486 H521 0.950 . S
C487 N483 1.383 . S
C487 C486 1.439 . S
C487 C516 1.392 . S
N488 Co482 2.008 . S
N488 C489 1.376 . S
N488 C492 1.374 . S
C489 N488 1.376 . S
C489 C490 1.443 . S
C489 C516 1.389 . S
C490 C489 1.443 . S
C490 C491 1.340 . S
C490 H522 0.951 . S
C491 C490 1.340 . S
C491 C492 1.439 . S
C491 H523 0.950 . S
C492 N488 1.374 . S
C492 C491 1.439 . S
C492 C517 1.395 . S
N493 Co482 1.995 . S
N493 C494 1.376 . S
N493 C497 1.383 . S
C494 N493 1.376 . S
C494 C495 1.446 . S
C494 C517 1.391 . S
C495 C494 1.446 . S
C495 C496 1.339 . S
C495 H524 0.949 . S
C496 C495 1.339 . S
C496 C497 1.439 . S
C496 H525 0.950 . S
C497 N493 1.383 . S
C497 C496 1.439 . S
C497 C515 1.392 . S
N498 Co482 2.282 . S
N498 C501 1.332 . S
N498 C503 1.332 . S
C499 C500 1.386 . S
C499 C502 1.388 . S
C500 C499 1.386 . S
C500 C501 1.382 . S
C500 H526 0.950 . S
C501 N498 1.332 . S
C501 C500 1.382 . S
C501 H512 0.952 . S
C502 C499 1.388 . S
C502 C503 1.382 . S
C502 H527 0.950 . S
C503 N498 1.332 . S
C503 C502 1.382 . S
C503 H513 0.948 . S
N504 Co482 2.282 . S
N504 C508 1.332 . S
N504 C509 1.332 . S
C505 C506 1.388 . S
C505 C509 1.382 . S
C505 H528 0.950 . S
C506 C505 1.388 . S
C506 C507 1.386 . S
C507 C506 1.386 . S
C507 C508 1.382 . S
C507 H529 0.950 . S
C508 N504 1.332 . S
C508 C507 1.382 . S
C508 H510 0.952 . S
C509 N504 1.332 . S
C509 C505 1.382 . S
C509 H511 0.948 . S
H510 C508 0.952 . S
H511 C509 0.948 . S
H512 C501 0.952 . S
H513 C503 0.948 . S
C514 C480 1.395 . S
C514 C484 1.391 . S
C515 C477 1.389 . S
C515 C497 1.392 . S
C516 C487 1.392 . S
C516 C489 1.389 . S
C517 C492 1.395 . S
C517 C494 1.391 . S
H518 C478 0.951 . S
H519 C479 0.950 . S
H520 C485 0.949 . S
H521 C486 0.950 . S
H522 C490 0.951 . S
H523 C491 0.950 . S
H524 C495 0.949 . S
H525 C496 0.950 . S
H526 C500 0.950 . S
H527 C502 0.950 . S
H528 C505 0.950 . S
H529 C507 0.950 . S
C530 C531 1.443 . S
C530 N534 1.376 . S
C530 C568 1.389 . S
C531 C530 1.443 . S
C531 C532 1.340 . S
C531 H571 0.951 . S
C532 C531 1.340 . S
C532 C533 1.439 . S
C532 H572 0.950 . S
C533 C532 1.439 . S
C533 N534 1.374 . S
C533 C567 1.395 . S
N534 C530 1.376 . S
N534 C533 1.374 . S
N534 Co535 2.008 . S
Co535 N534 2.008 . S
Co535 N536 1.995 . S
Co535 N541 2.008 . S
Co535 N546 1.995 . S
Co535 N551 2.282 . S
Co535 N557 2.282 . S
N536 Co535 1.995 . S
N536 C537 1.376 . S
N536 C540 1.383 . S
C537 N536 1.376 . S
C537 C538 1.446 . S
C537 C567 1.391 . S
C538 C537 1.446 . S
C538 C539 1.339 . S
C538 H573 0.949 . S
C539 C538 1.339 . S
C539 C540 1.439 . S
C539 H574 0.950 . S
C540 N536 1.383 . S
C540 C539 1.439 . S
C540 C569 1.392 . S
N541 Co535 2.008 . S
N541 C542 1.376 . S
N541 C545 1.374 . S
C542 N541 1.376 . S
C542 C543 1.443 . S
C542 C569 1.389 . S
C543 C542 1.443 . S
C543 C544 1.340 . S
C543 H575 0.951 . S
C544 C543 1.340 . S
C544 C545 1.439 . S
C544 H576 0.950 . S
C545 N541 1.374 . S
C545 C544 1.439 . S
C545 C570 1.395 . S
N546 Co535 1.995 . S
N546 C547 1.376 . S
N546 C550 1.383 . S
C547 N546 1.376 . S
C547 C548 1.446 . S
C547 C570 1.391 . S
C548 C547 1.446 . S
C548 C549 1.339 1_556 S
C548 H577 0.949 1_556 S
C549 C548 1.339 1_554 S
C549 C550 1.439 1_554 S
C549 H578 0.950 . S
C550 N546 1.383 . S
C550 C549 1.439 1_556 S
C550 C568 1.392 . S
N551 Co535 2.282 . S
N551 C554 1.332 1_556 S
N551 C556 1.332 . S
C552 C553 1.386 . S
C552 C555 1.388 . S
C553 C552 1.386 . S
C553 C554 1.382 . S
C553 H579 0.950 . S
C554 N551 1.332 1_554 S
C554 C553 1.382 . S
C554 H565 0.952 . S
C555 C552 1.388 . S
C555 C556 1.382 1_554 S
C555 H580 0.950 . S
C556 N551 1.332 . S
C556 C555 1.382 1_556 S
C556 H566 0.948 . S
N557 Co535 2.282 . S
N557 C561 1.332 . S
N557 C562 1.332 . S
C558 C559 1.388 . S
C558 C562 1.382 . S
C558 H581 0.950 . S
C559 C558 1.388 . S
C559 C560 1.386 . S
C560 C559 1.386 . S
C560 C561 1.382 . S
C560 H582 0.950 . S
C561 N557 1.332 . S
C561 C560 1.382 . S
C561 H563 0.952 . S
C562 N557 1.332 . S
C562 C558 1.382 . S
C562 H564 0.948 . S
H563 C561 0.952 . S
H564 C562 0.948 . S
H565 C554 0.952 . S
H566 C556 0.948 . S
C567 C533 1.395 . S
C567 C537 1.391 . S
C568 C530 1.389 . S
C568 C550 1.392 . S
C569 C540 1.392 . S
C569 C542 1.389 . S
C570 C545 1.395 . S
C570 C547 1.391 . S
H571 C531 0.951 . S
H572 C532 0.950 . S
H573 C538 0.949 . S
H574 C539 0.950 . S
H575 C543 0.951 . S
H576 C544 0.950 . S
H577 C548 0.949 1_554 S
H578 C549 0.950 . S
H579 C553 0.950 . S
H580 C555 0.950 . S
H581 C558 0.950 . S
H582 C560 0.950 . S
C583 C584 1.443 . S
C583 N587 1.376 . S
C583 C621 1.393 . S
C584 C583 1.443 . S
C584 C585 1.340 . S
C584 H624 0.951 . S
C585 C584 1.340 . S
C585 C586 1.439 . S
C585 H625 0.950 . S
C586 C585 1.439 . S
C586 N587 1.374 . S
C586 C620 1.395 . S
N587 C583 1.376 . S
N587 C586 1.374 . S
N587 Co588 2.008 1_455 S
Co588 N587 2.008 1_655 S
Co588 N589 1.995 1_655 S
Co588 N594 2.008 . S
Co588 N599 1.995 . S
Co588 N604 2.282 1_655 S
Co588 N610 2.282 . S
N589 Co588 1.995 1_455 S
N589 C590 1.376 . S
N589 C593 1.383 . S
C590 N589 1.376 . S
C590 C591 1.446 . S
C590 C620 1.391 . S
C591 C590 1.446 . S
C591 C592 1.339 . S
C591 H626 0.949 . S
C592 C591 1.339 . S
C592 C593 1.439 . S
C592 H627 0.950 . S
C593 N589 1.383 . S
C593 C592 1.439 . S
C593 C622 1.376 1_455 S
N594 Co588 2.008 . S
N594 C595 1.376 . S
N594 C598 1.374 . S
C595 N594 1.376 . S
C595 C596 1.443 . S
C595 C622 1.405 . S
C596 C595 1.443 . S
C596 C597 1.340 . S
C596 H628 0.951 . S
C597 C596 1.340 . S
C597 C598 1.439 . S
C597 H629 0.950 . S
C598 N594 1.374 . S
C598 C597 1.439 . S
C598 C623 1.395 . S
N599 Co588 1.995 . S
N599 C600 1.376 . S
N599 C603 1.383 . S
C600 N599 1.376 . S
C600 C601 1.446 . S
C600 C623 1.391 . S
C601 C600 1.446 . S
C601 C602 1.339 . S
C601 H630 0.949 . S
C602 C601 1.339 . S
C602 C603 1.439 . S
C602 H631 0.950 . S
C603 N599 1.383 . S
C603 C602 1.439 . S
C603 C621 1.388 1_655 S
N604 Co588 2.282 1_455 S
N604 C607 1.332 . S
N604 C609 1.332 . S
C605 C606 1.385 1_556 S
C605 C608 1.388 . S
C606 C605 1.385 1_554 S
C606 C607 1.380 1_554 S
C606 H632 0.960 . S
C607 N604 1.332 . S
C607 C606 1.380 1_556 S
C607 H618 0.952 1_455 S
C608 C605 1.388 . S
C608 C609 1.382 . S
C608 H633 0.950 . S
C609 N604 1.332 . S
C609 C608 1.382 . S
C609 H619 0.948 . S
N610 Co588 2.282 . S
N610 C614 1.332 . S
N610 C615 1.332 . S
C611 C612 1.388 . S
C611 C615 1.382 . S
C611 H634 0.950 . S
C612 C611 1.388 . S
C612 C613 1.386 . S
C613 C612 1.386 . S
C613 C614 1.382 . S
C613 H635 0.967 . S
C614 N610 1.332 . S
C614 C613 1.382 . S
C614 H616 0.952 1_655 S
C615 N610 1.332 . S
C615 C611 1.382 . S
C615 H617 0.948 . S
H616 C614 0.952 1_455 S
H617 C615 0.948 . S
H618 C607 0.952 1_655 S
H619 C609 0.948 . S
C620 C586 1.395 . S
C620 C590 1.391 . S
C621 C583 1.393 . S
C621 C603 1.388 1_455 S
C622 C593 1.376 1_655 S
C622 C595 1.405 . S
C623 C598 1.395 . S
C623 C600 1.391 . S
H624 C584 0.951 . S
H625 C585 0.950 . S
H626 C591 0.949 . S
H627 C592 0.950 . S
H628 C596 0.951 . S
H629 C597 0.950 . S
H630 C601 0.949 . S
H631 C602 0.950 . S
H632 C606 0.960 . S
H633 C608 0.950 . S
H634 C611 0.950 . S
H635 C613 0.967 . S
C636 C637 1.443 . S
C636 N640 1.376 . S
C636 C674 1.389 . S
C637 C636 1.443 . S
C637 C638 1.340 . S
C637 H677 0.951 . S
C638 C637 1.340 . S
C638 C639 1.439 . S
C638 H678 0.950 . S
C639 C638 1.439 . S
C639 N640 1.374 . S
C639 C673 1.395 . S
N640 C636 1.376 . S
N640 C639 1.374 . S
N640 Co641 2.008 1_565 S
Co641 N640 2.008 1_545 S
Co641 N642 1.995 1_545 S
Co641 N647 2.008 . S
Co641 N652 1.995 . S
Co641 N657 2.282 1_545 S
Co641 N663 2.282 . S
N642 Co641 1.995 1_565 S
N642 C643 1.376 . S
N642 C646 1.383 . S
C643 N642 1.376 . S
C643 C644 1.446 . S
C643 C673 1.391 . S
C644 C643 1.446 . S
C644 C645 1.339 . S
C644 H679 0.949 . S
C645 C644 1.339 . S
C645 C646 1.439 . S
C645 H680 0.950 . S
C646 N642 1.383 . S
C646 C645 1.439 . S
C646 C675 1.392 1_565 S
N647 Co641 2.008 . S
N647 C648 1.376 . S
N647 C651 1.374 . S
C648 N647 1.376 . S
C648 C649 1.443 . S
C648 C675 1.389 . S
C649 C648 1.443 . S
C649 C650 1.340 . S
C649 H681 0.951 . S
C650 C649 1.340 . S
C650 C651 1.439 . S
C650 H682 0.950 . S
C651 N647 1.374 . S
C651 C650 1.439 . S
C651 C676 1.395 . S
N652 Co641 1.995 . S
N652 C653 1.376 . S
N652 C656 1.383 . S
C653 N652 1.376 . S
C653 C654 1.446 . S
C653 C676 1.391 . S
C654 C653 1.446 . S
C654 C655 1.339 . S
C654 H683 0.949 . S
C655 C654 1.339 . S
C655 C656 1.439 . S
C655 H684 0.950 . S
C656 N652 1.383 . S
C656 C655 1.439 . S
C656 C674 1.392 1_545 S
N657 Co641 2.282 1_565 S
N657 C660 1.332 1_565 S
N657 C662 1.332 . S
C658 C659 1.386 . S
C658 C661 1.388 . S
C659 C658 1.386 . S
C659 C660 1.382 1_565 S
C659 H685 0.950 1_565 S
C660 N657 1.332 1_545 S
C660 C659 1.382 1_545 S
C660 H671 0.952 . S
C661 C658 1.388 . S
C661 C662 1.382 . S
C661 H686 0.950 . S
C662 N657 1.332 . S
C662 C661 1.382 . S
C662 H672 0.948 . S
N663 Co641 2.282 . S
N663 C667 1.332 1_545 S
N663 C668 1.332 . S
C664 C665 1.388 . S
C664 C668 1.382 . S
C664 H687 0.950 . S
C665 C664 1.388 . S
C665 C666 1.386 . S
C666 C665 1.386 . S
C666 C667 1.382 1_545 S
C666 H688 0.950 1_545 S
C667 N663 1.332 1_565 S
C667 C666 1.382 1_565 S
C667 H669 0.952 . S
C668 N663 1.332 . S
C668 C664 1.382 . S
C668 H670 0.948 . S
H669 C667 0.952 . S
H670 C668 0.948 . S
H671 C660 0.952 . S
H672 C662 0.948 . S
C673 C639 1.395 . S
C673 C643 1.391 . S
C674 C636 1.389 . S
C674 C656 1.392 1_565 S
C675 C646 1.392 1_545 S
C675 C648 1.389 . S
C676 C651 1.395 . S
C676 C653 1.391 . S
H677 C637 0.951 . S
H678 C638 0.950 . S
H679 C644 0.949 . S
H680 C645 0.950 . S
H681 C649 0.951 . S
H682 C650 0.950 . S
H683 C654 0.949 . S
H684 C655 0.950 . S
H685 C659 0.950 1_545 S
H686 C661 0.950 . S
H687 C664 0.950 . S
H688 C666 0.950 1_565 S
C689 C690 1.443 . S
C689 N693 1.376 . S
C689 C727 1.389 . S
C690 C689 1.443 . S
C690 C691 1.340 . S
C690 H730 0.951 . S
C691 C690 1.340 . S
C691 C692 1.439 . S
C691 H731 0.950 . S
C692 C691 1.439 . S
C692 N693 1.374 . S
C692 C726 1.395 . S
N693 C689 1.376 . S
N693 C692 1.374 . S
N693 Co694 2.008 . S
Co694 N693 2.008 . S
Co694 N695 1.995 . S
Co694 N700 2.008 . S
Co694 N705 1.995 . S
Co694 N710 2.282 . S
Co694 N716 2.282 . S
N695 Co694 1.995 . S
N695 C696 1.376 . S
N695 C699 1.383 . S
C696 N695 1.376 . S
C696 C697 1.446 . S
C696 C726 1.391 . S
C697 C696 1.446 . S
C697 C698 1.339 . S
C697 H732 0.949 . S
C698 C697 1.339 . S
C698 C699 1.439 . S
C698 H733 0.950 . S
C699 N695 1.383 . S
C699 C698 1.439 . S
C699 C728 1.392 . S
N700 Co694 2.008 . S
N700 C701 1.376 . S
N700 C704 1.374 . S
C701 N700 1.376 . S
C701 C702 1.443 . S
C701 C728 1.389 . S
C702 C701 1.443 . S
C702 C703 1.340 . S
C702 H734 0.951 . S
C703 C702 1.340 . S
C703 C704 1.439 . S
C703 H735 0.950 . S
C704 N700 1.374 . S
C704 C703 1.439 . S
C704 C729 1.395 . S
N705 Co694 1.995 . S
N705 C706 1.376 . S
N705 C709 1.383 . S
C706 N705 1.376 . S
C706 C707 1.446 . S
C706 C729 1.391 . S
C707 C706 1.446 . S
C707 C708 1.339 . S
C707 H736 0.949 . S
C708 C707 1.339 . S
C708 C709 1.439 . S
C708 H737 0.950 . S
C709 N705 1.383 . S
C709 C708 1.439 . S
C709 C727 1.392 . S
N710 Co694 2.282 . S
N710 C713 1.332 . S
N710 C715 1.332 . S
C711 C712 1.386 . S
C711 C714 1.388 . S
C712 C711 1.386 . S
C712 C713 1.382 . S
C712 H738 0.950 . S
C713 N710 1.332 . S
C713 C712 1.382 . S
C713 H724 0.952 . S
C714 C711 1.388 . S
C714 C715 1.382 . S
C714 H739 0.950 . S
C715 N710 1.332 . S
C715 C714 1.382 . S
C715 H725 0.948 . S
N716 Co694 2.282 . S
N716 C720 1.332 . S
N716 C721 1.332 . S
C717 C718 1.388 . S
C717 C721 1.382 . S
C717 H740 0.950 . S
C718 C717 1.388 . S
C718 C719 1.386 . S
C719 C718 1.386 . S
C719 C720 1.382 . S
C719 H741 0.950 . S
C720 N716 1.332 . S
C720 C719 1.382 . S
C720 H722 0.952 . S
C721 N716 1.332 . S
C721 C717 1.382 . S
C721 H723 0.948 . S
H722 C720 0.952 . S
H723 C721 0.948 . S
H724 C713 0.952 . S
H725 C715 0.948 . S
C726 C692 1.395 . S
C726 C696 1.391 . S
C727 C689 1.389 . S
C727 C709 1.392 . S
C728 C699 1.392 . S
C728 C701 1.389 . S
C729 C704 1.395 . S
C729 C706 1.391 . S
H730 C690 0.951 . S
H731 C691 0.950 . S
H732 C697 0.949 . S
H733 C698 0.950 . S
H734 C702 0.951 . S
H735 C703 0.950 . S
H736 C707 0.949 . S
H737 C708 0.950 . S
H738 C712 0.950 . S
H739 C714 0.950 . S
H740 C717 0.950 . S
H741 C719 0.950 . S
C742 C743 1.443 . S
C742 N746 1.376 . S
C742 C780 1.389 . S
C743 C742 1.443 . S
C743 C744 1.340 . S
C743 H783 0.951 . S
C744 C743 1.340 . S
C744 C745 1.439 . S
C744 H784 0.950 . S
C745 C744 1.439 . S
C745 N746 1.374 . S
C745 C779 1.395 . S
N746 C742 1.376 . S
N746 C745 1.374 . S
N746 Co747 2.008 . S
Co747 N746 2.008 . S
Co747 N748 1.995 . S
Co747 N753 2.008 . S
Co747 N758 1.995 . S
Co747 N763 2.282 . S
Co747 N769 2.282 . S
N748 Co747 1.995 . S
N748 C749 1.376 . S
N748 C752 1.383 . S
C749 N748 1.376 . S
C749 C750 1.446 . S
C749 C779 1.391 . S
C750 C749 1.446 . S
C750 C751 1.339 . S
C750 H785 0.949 . S
C751 C750 1.339 . S
C751 C752 1.439 . S
C751 H786 0.950 . S
C752 N748 1.383 . S
C752 C751 1.439 . S
C752 C781 1.392 . S
N753 Co747 2.008 . S
N753 C754 1.376 . S
N753 C757 1.374 . S
C754 N753 1.376 . S
C754 C755 1.443 . S
C754 C781 1.389 . S
C755 C754 1.443 . S
C755 C756 1.340 . S
C755 H787 0.951 . S
C756 C755 1.340 . S
C756 C757 1.439 . S
C756 H788 0.950 . S
C757 N753 1.374 . S
C757 C756 1.439 . S
C757 C782 1.395 . S
N758 Co747 1.995 . S
N758 C759 1.376 . S
N758 C762 1.383 . S
C759 N758 1.376 . S
C759 C760 1.446 . S
C759 C782 1.391 . S
C760 C759 1.446 . S
C760 C761 1.339 . S
C760 H789 0.949 . S
C761 C760 1.339 . S
C761 C762 1.439 . S
C761 H790 0.950 . S
C762 N758 1.383 . S
C762 C761 1.439 . S
C762 C780 1.392 . S
N763 Co747 2.282 . S
N763 C766 1.332 . S
N763 C768 1.332 . S
C764 C765 1.386 . S
C764 C767 1.388 . S
C765 C764 1.386 . S
C765 C766 1.382 . S
C765 H791 0.950 . S
C766 N763 1.332 . S
C766 C765 1.382 . S
C766 H777 0.952 . S
C767 C764 1.388 . S
C767 C768 1.382 . S
C767 H792 0.950 . S
C768 N763 1.332 . S
C768 C767 1.382 . S
C768 H778 0.948 . S
N769 Co747 2.282 . S
N769 C773 1.332 . S
N769 C774 1.332 . S
C770 C771 1.388 . S
C770 C774 1.382 . S
C770 H793 0.950 . S
C771 C770 1.388 . S
C771 C772 1.386 . S
C772 C771 1.386 . S
C772 C773 1.382 . S
C772 H794 0.950 . S
C773 N769 1.332 . S
C773 C772 1.382 . S
C773 H775 0.952 . S
C774 N769 1.332 . S
C774 C770 1.382 . S
C774 H776 0.948 . S
H775 C773 0.952 . S
H776 C774 0.948 . S
H777 C766 0.952 . S
H778 C768 0.948 . S
C779 C745 1.395 . S
C779 C749 1.391 . S
C780 C742 1.389 . S
C780 C762 1.392 . S
C781 C752 1.392 . S
C781 C754 1.389 . S
C782 C757 1.395 . S
C782 C759 1.391 . S
H783 C743 0.951 . S
H784 C744 0.950 . S
H785 C750 0.949 . S
H786 C751 0.950 . S
H787 C755 0.951 . S
H788 C756 0.950 . S
H789 C760 0.949 . S
H790 C761 0.950 . S
H791 C765 0.950 . S
H792 C767 0.950 . S
H793 C770 0.950 . S
H794 C772 0.950 . S
C795 C796 1.443 . S
C795 N799 1.376 . S
C795 C833 1.440 . S
C796 C795 1.443 . S
C796 C797 1.340 . S
C796 H836 0.951 . S
C797 C796 1.340 . S
C797 C798 1.439 . S
C797 H837 0.950 . S
C798 C797 1.439 . S
C798 N799 1.374 . S
C798 C832 1.395 . S
N799 C795 1.376 . S
N799 C798 1.374 . S
N799 Co800 2.008 1_655 S
Co800 N799 2.008 1_455 S
Co800 N801 1.995 1_455 S
Co800 N806 2.008 . S
Co800 N811 1.995 . S
Co800 N816 2.282 1_455 S
Co800 N822 2.282 . S
N801 Co800 1.995 1_655 S
N801 C802 1.376 . S
N801 C805 1.383 . S
C802 N801 1.376 . S
C802 C803 1.446 . S
C802 C832 1.391 . S
C803 C802 1.446 . S
C803 C804 1.339 . S
C803 H838 0.949 . S
C804 C803 1.339 . S
C804 C805 1.439 . S
C804 H839 0.950 . S
C805 N801 1.383 . S
C805 C804 1.439 . S
C805 C834 1.392 1_655 S
N806 Co800 2.008 . S
N806 C807 1.376 . S
N806 C810 1.374 . S
C807 N806 1.376 . S
C807 C808 1.443 . S
C807 C834 1.389 . S
C808 C807 1.443 . S
C808 C809 1.340 . S
C808 H840 0.951 . S
C809 C808 1.340 . S
C809 C810 1.439 . S
C809 H841 0.950 . S
C810 N806 1.374 . S
C810 C809 1.439 . S
C810 C835 1.395 . S
N811 Co800 1.995 . S
N811 C812 1.376 . S
N811 C815 1.383 . S
C812 N811 1.376 . S
C812 C813 1.446 . S
C812 C835 1.391 . S
C813 C812 1.446 . S
C813 C814 1.339 . S
C813 H842 0.949 . S
C814 C813 1.339 . S
C814 C815 1.439 . S
C814 H843 0.950 . S
C815 N811 1.383 . S
C815 C814 1.439 . S
C815 C833 1.340 1_455 S
N816 Co800 2.282 1_655 S
N816 C819 1.332 . S
N816 C821 1.332 . S
C817 C818 1.386 . S
C817 C820 1.388 . S
C818 C817 1.386 . S
C818 C819 1.382 . S
C818 H844 0.950 1_655 S
C819 N816 1.332 . S
C819 C818 1.382 . S
C819 H830 0.952 1_655 S
C820 C817 1.388 . S
C820 C821 1.382 . S
C820 H845 0.950 . S
C821 N816 1.332 . S
C821 C820 1.382 . S
C821 H831 0.948 . S
N822 Co800 2.282 . S
N822 C826 1.332 . S
N822 C827 1.332 . S
C823 C824 1.388 . S
C823 C827 1.382 . S
C823 H846 0.950 . S
C824 C823 1.388 . S
C824 C825 1.386 . S
C825 C824 1.386 . S
C825 C826 1.382 . S
C825 H847 0.950 1_455 S
C826 N822 1.332 . S
C826 C825 1.382 . S
C826 H828 0.952 1_455 S
C827 N822 1.332 . S
C827 C823 1.382 . S
C827 H829 0.948 . S
H828 C826 0.952 1_655 S
H829 C827 0.948 . S
H830 C819 0.952 1_455 S
H831 C821 0.948 . S
C832 C798 1.395 . S
C832 C802 1.391 . S
C833 C795 1.440 . S
C833 C815 1.340 1_655 S
C834 C805 1.392 1_455 S
C834 C807 1.389 . S
C835 C810 1.395 . S
C835 C812 1.391 . S
H836 C796 0.951 . S
H837 C797 0.950 . S
H838 C803 0.949 . S
H839 C804 0.950 . S
H840 C808 0.951 . S
H841 C809 0.950 . S
H842 C813 0.949 . S
H843 C814 0.950 . S
H844 C818 0.950 1_455 S
H845 C820 0.950 . S
H846 C823 0.950 . S
H847 C825 0.950 1_655 S
C848 C849 1.349 . S
C848 C850 1.327 . S
C848 H873 0.950 . S
C849 C848 1.349 . S
C849 C865 1.349 . S
C850 C848 1.327 . S
C850 C869 1.429 . S
C850 H874 0.950 . S
C851 C868 1.574 . S
C851 C870 1.368 . S
C851 H875 0.949 . S
H852 C856 0.949 . S
C853 C854 1.349 . S
C853 C855 1.327 . S
C853 H876 0.950 . S
C854 C853 1.349 . S
C854 C866 1.349 . S
C855 C853 1.327 . S
C855 C871 1.429 . S
C855 H877 0.950 . S
C856 H852 0.949 . S
C856 C864 1.574 . S
C856 C872 1.368 . S
H857 C865 0.950 . S
H858 C863 0.950 . S
H859 C864 0.949 . S
H860 C866 0.950 . S
H861 C867 0.950 . S
H862 C868 0.949 . S
C863 H858 0.950 . S
C863 C865 1.327 . S
C863 C869 1.429 . S
C864 C856 1.574 . S
C864 H859 0.949 . S
C864 C870 1.368 . S
C865 C849 1.349 . S
C865 H857 0.950 . S
C865 C863 1.327 . S
C866 C854 1.349 . S
C866 H860 0.950 . S
C866 C867 1.327 . S
C867 H861 0.950 . S
C867 C866 1.327 . S
C867 C871 1.429 . S
C868 C851 1.574 . S
C868 H862 0.949 . S
C868 C872 1.368 . S
C869 C850 1.429 . S
C869 C863 1.429 . S
C869 C870 1.523 . S
C870 C851 1.368 . S
C870 C864 1.368 . S
C870 C869 1.523 . S
C871 C855 1.429 . S
C871 C867 1.429 . S
C871 C872 1.523 . S
C872 C856 1.368 . S
C872 C868 1.368 . S
C872 C871 1.523 . S
H873 C848 0.950 . S
H874 C850 0.950 . S
H875 C851 0.949 . S
H876 C853 0.950 . S
H877 C855 0.950 . S
C878 C879 1.349 . S
C878 C880 1.327 . S
C878 H903 0.950 . S
C879 C878 1.349 . S
C879 C895 1.349 . S
C880 C878 1.327 . S
C880 C899 1.429 . S
C880 H904 0.950 . S
C881 C898 1.574 . S
C881 C900 1.368 . S
C881 H905 0.949 . S
H882 C886 0.949 . S
C883 C884 1.349 . S
C883 C885 1.327 . S
C883 H906 0.950 . S
C884 C883 1.349 . S
C884 C896 1.349 . S
C885 C883 1.327 . S
C885 C901 1.429 . S
C885 H907 0.950 . S
C886 H882 0.949 . S
C886 C894 1.574 . S
C886 C902 1.368 . S
H887 C895 0.950 . S
H888 C893 0.950 . S
H889 C894 0.949 . S
H890 C896 0.950 . S
H891 C897 0.950 . S
H892 C898 0.949 . S
C893 H888 0.950 . S
C893 C895 1.327 . S
C893 C899 1.429 . S
C894 C886 1.574 . S
C894 H889 0.949 . S
C894 C900 1.368 . S
C895 C879 1.349 . S
C895 H887 0.950 . S
C895 C893 1.327 . S
C896 C884 1.349 . S
C896 H890 0.950 . S
C896 C897 1.327 . S
C897 H891 0.950 . S
C897 C896 1.327 . S
C897 C901 1.429 . S
C898 C881 1.574 . S
C898 H892 0.949 . S
C898 C902 1.368 . S
C899 C880 1.429 . S
C899 C893 1.429 . S
C899 C900 1.523 . S
C900 C881 1.368 . S
C900 C894 1.368 . S
C900 C899 1.523 . S
C901 C885 1.429 . S
C901 C897 1.429 . S
C901 C902 1.523 . S
C902 C886 1.368 . S
C902 C898 1.368 . S
C902 C901 1.523 . S
H903 C878 0.950 . S
H904 C880 0.950 . S
H905 C881 0.949 . S
H906 C883 0.950 . S
H907 C885 0.950 . S
C908 C909 1.349 . S
C908 C910 1.327 . S
C908 H933 0.950 . S
C909 C908 1.349 . S
C909 C925 1.349 . S
C910 C908 1.327 . S
C910 C929 1.429 . S
C910 H934 0.950 . S
C911 C928 1.574 . S
C911 C930 1.368 . S
C911 H935 0.949 . S
H912 C916 0.949 . S
C913 C914 1.349 . S
C913 C915 1.327 . S
C913 H936 0.950 . S
C914 C913 1.349 . S
C914 C926 1.349 . S
C915 C913 1.327 . S
C915 C931 1.429 . S
C915 H937 0.950 . S
C916 H912 0.949 . S
C916 C924 1.574 . S
C916 C932 1.368 . S
H917 C925 0.950 . S
H918 C923 0.950 . S
H919 C924 0.949 . S
H920 C926 0.950 1_455 S
H921 C927 0.928 1_455 S
H922 C928 0.949 . S
C923 H918 0.950 . S
C923 C925 1.327 . S
C923 C929 1.429 . S
C924 C916 1.574 . S
C924 H919 0.949 . S
C924 C930 1.368 . S
C925 C909 1.349 . S
C925 H917 0.950 . S
C925 C923 1.327 . S
C926 C914 1.349 . S
C926 H920 0.950 1_655 S
C926 C927 1.327 . S
C927 H921 0.928 1_655 S
C927 C926 1.327 . S
C927 C931 1.429 . S
C928 C911 1.574 . S
C928 H922 0.949 . S
C928 C932 1.368 . S
C929 C910 1.429 . S
C929 C923 1.429 . S
C929 C930 1.523 . S
C930 C911 1.368 . S
C930 C924 1.368 . S
C930 C929 1.523 . S
C931 C915 1.429 . S
C931 C927 1.429 . S
C931 C932 1.523 . S
C932 C916 1.368 . S
C932 C928 1.368 . S
C932 C931 1.523 . S
H933 C908 0.950 . S
H934 C910 0.950 . S
H935 C911 0.949 . S
H936 C913 0.950 . S
H937 C915 0.950 . S
C938 C939 1.349 . S
C938 C940 1.327 . S
C938 H963 0.950 . S
C939 C938 1.349 . S
C939 C955 1.349 . S
C940 C938 1.327 . S
C940 C959 1.429 . S
C940 H964 0.950 . S
C941 C958 1.574 . S
C941 C960 1.368 . S
C941 H965 0.949 . S
H942 C946 0.949 . S
C943 C944 1.349 . S
C943 C945 1.327 . S
C943 H966 0.950 . S
C944 C943 1.349 . S
C944 C956 1.349 . S
C945 C943 1.327 . S
C945 C961 1.429 . S
C945 H967 0.950 . S
C946 H942 0.949 . S
C946 C954 1.574 . S
C946 C962 1.368 . S
H947 C955 0.950 . S
H948 C953 0.950 . S
H949 C954 0.949 . S
H950 C956 0.950 . S
H951 C957 0.950 . S
H952 C958 0.949 . S
C953 H948 0.950 . S
C953 C955 1.327 . S
C953 C959 1.429 . S
C954 C946 1.574 . S
C954 H949 0.949 . S
C954 C960 1.368 . S
C955 C939 1.349 . S
C955 H947 0.950 . S
C955 C953 1.327 . S
C956 C944 1.349 . S
C956 H950 0.950 . S
C956 C957 1.327 . S
C957 H951 0.950 . S
C957 C956 1.327 . S
C957 C961 1.429 . S
C958 C941 1.574 . S
C958 H952 0.949 . S
C958 C962 1.368 . S
C959 C940 1.429 . S
C959 C953 1.429 . S
C959 C960 1.523 . S
C960 C941 1.368 . S
C960 C954 1.368 . S
C960 C959 1.523 . S
C961 C945 1.429 . S
C961 C957 1.429 . S
C961 C962 1.523 . S
C962 C946 1.368 . S
C962 C958 1.368 . S
C962 C961 1.523 . S
H963 C938 0.950 . S
H964 C940 0.950 . S
H965 C941 0.949 . S
H966 C943 0.950 . S
H967 C945 0.950 . S
C968 C969 1.349 . S
C968 C970 1.327 . S
C968 H993 0.950 . S
C969 C968 1.349 . S
C969 C985 1.349 . S
C970 C968 1.327 . S
C970 C989 1.429 . S
C970 H994 0.950 . S
C971 C988 1.574 . S
C971 C990 1.368 . S
C971 H995 0.949 . S
H972 C976 0.949 . S
C973 C974 1.349 . S
C973 C975 1.327 . S
C973 H996 0.950 . S
C974 C973 1.349 . S
C974 C986 1.349 . S
C975 C973 1.327 . S
C975 C991 1.429 . S
C975 H997 0.950 . S
C976 H972 0.949 . S
C976 C984 1.574 . S
C976 C992 1.368 . S
H977 C985 0.950 1_545 S
H978 C983 0.950 . S
H979 C984 0.949 . S
H980 C986 0.950 . S
H981 C987 0.950 . S
H982 C988 0.949 . S
C983 H978 0.950 . S
C983 C985 1.327 . S
C983 C989 1.429 . S
C984 C976 1.574 . S
C984 H979 0.949 . S
C984 C990 1.368 . S
C985 C969 1.349 . S
C985 H977 0.950 1_565 S
C985 C983 1.327 . S
C986 C974 1.349 . S
C986 H980 0.950 . S
C986 C987 1.327 . S
C987 H981 0.950 . S
C987 C986 1.327 . S
C987 C991 1.429 . S
C988 C971 1.574 . S
C988 H982 0.949 . S
C988 C992 1.368 . S
C989 C970 1.429 . S
C989 C983 1.429 . S
C989 C990 1.523 . S
C990 C971 1.368 . S
C990 C984 1.368 . S
C990 C989 1.523 . S
C991 C975 1.429 . S
C991 C987 1.429 . S
C991 C992 1.523 . S
C992 C976 1.368 . S
C992 C988 1.368 . S
C992 C991 1.523 . S
H993 C968 0.950 . S
H994 C970 0.950 . S
H995 C971 0.949 . S
H996 C973 0.950 . S
H997 C975 0.950 . S
C998 C999 1.349 . S
C998 C1000 1.327 . S
C998 H1023 0.950 . S
C999 C998 1.349 . S
C999 C1015 1.349 . S
C1000 C998 1.327 . S
C1000 C1019 1.429 . S
C1000 H1024 0.950 . S
C1001 C1018 1.574 . S
C1001 C1020 1.368 . S
C1001 H1025 0.949 . S
H1002 C1006 0.949 . S
C1003 C1004 1.349 . S
C1003 C1005 1.327 . S
C1003 H1026 0.950 . S
C1004 C1003 1.349 . S
C1004 C1016 1.349 . S
C1005 C1003 1.327 . S
C1005 C1021 1.429 . S
C1005 H1027 0.950 . S
C1006 H1002 0.949 . S
C1006 C1014 1.574 . S
C1006 C1022 1.368 . S
H1007 C1015 0.950 . S
H1008 C1013 0.950 . S
H1009 C1014 0.949 . S
H1010 C1016 0.950 . S
H1011 C1017 0.950 . S
H1012 C1018 0.949 . S
C1013 H1008 0.950 . S
C1013 C1015 1.327 . S
C1013 C1019 1.429 . S
C1014 C1006 1.574 . S
C1014 H1009 0.949 . S
C1014 C1020 1.368 . S
C1015 C999 1.349 . S
C1015 H1007 0.950 . S
C1015 C1013 1.327 . S
C1016 C1004 1.349 . S
C1016 H1010 0.950 . S
C1016 C1017 1.327 . S
C1017 H1011 0.950 . S
C1017 C1016 1.327 . S
C1017 C1021 1.429 . S
C1018 C1001 1.574 . S
C1018 H1012 0.949 . S
C1018 C1022 1.368 . S
C1019 C1000 1.429 . S
C1019 C1013 1.429 . S
C1019 C1020 1.523 . S
C1020 C1001 1.368 . S
C1020 C1014 1.368 . S
C1020 C1019 1.523 . S
C1021 C1005 1.429 . S
C1021 C1017 1.429 . S
C1021 C1022 1.523 . S
C1022 C1006 1.368 . S
C1022 C1018 1.368 . S
C1022 C1021 1.523 . S
H1023 C998 0.950 . S
H1024 C1000 0.950 . S
H1025 C1001 0.949 . S
H1026 C1003 0.950 . S
H1027 C1005 0.950 . S
C1028 C1029 1.349 . S
C1028 C1030 1.327 . S
C1028 H1053 0.950 . S
C1029 C1028 1.349 . S
C1029 C1045 1.349 . S
C1030 C1028 1.327 . S
C1030 C1049 1.429 . S
C1030 H1054 0.950 . S
C1031 C1048 1.574 . S
C1031 C1050 1.368 . S
C1031 H1055 0.949 . S
H1032 C1036 0.949 . S
C1033 C1034 1.349 . S
C1033 C1035 1.327 . S
C1033 H1056 0.950 . S
C1034 C1033 1.349 . S
C1034 C1046 1.349 . S
C1035 C1033 1.327 . S
C1035 C1051 1.429 . S
C1035 H1057 0.950 . S
C1036 H1032 0.949 . S
C1036 C1044 1.574 . S
C1036 C1052 1.368 . S
H1037 C1045 0.950 . S
H1038 C1043 0.950 . S
H1039 C1044 0.949 . S
H1040 C1046 0.950 . S
H1041 C1047 0.950 . S
H1042 C1048 0.949 . S
C1043 H1038 0.950 . S
C1043 C1045 1.327 . S
C1043 C1049 1.429 . S
C1044 C1036 1.574 . S
C1044 H1039 0.949 . S
C1044 C1050 1.368 . S
C1045 C1029 1.349 . S
C1045 H1037 0.950 . S
C1045 C1043 1.327 . S
C1046 C1034 1.349 . S
C1046 H1040 0.950 . S
C1046 C1047 1.327 . S
C1047 H1041 0.950 . S
C1047 C1046 1.327 . S
C1047 C1051 1.429 . S
C1048 C1031 1.574 . S
C1048 H1042 0.949 . S
C1048 C1052 1.368 . S
C1049 C1030 1.429 . S
C1049 C1043 1.429 . S
C1049 C1050 1.523 . S
C1050 C1031 1.368 . S
C1050 C1044 1.368 . S
C1050 C1049 1.523 . S
C1051 C1035 1.429 . S
C1051 C1047 1.429 . S
C1051 C1052 1.523 . S
C1052 C1036 1.368 . S
C1052 C1048 1.368 . S
C1052 C1051 1.523 . S
H1053 C1028 0.950 . S
H1054 C1030 0.950 . S
H1055 C1031 0.949 . S
H1056 C1033 0.950 . S
H1057 C1035 0.950 . S
C1058 C1059 1.349 . S
C1058 C1060 1.327 . S
C1058 H1083 0.950 . S
C1059 C1058 1.349 . S
C1059 C1075 1.349 . S
C1060 C1058 1.327 . S
C1060 C1079 1.429 . S
C1060 H1084 0.950 . S
C1061 C1078 1.574 . S
C1061 C1080 1.368 . S
C1061 H1085 0.949 . S
H1062 C1066 0.949 . S
C1063 C1064 1.349 . S
C1063 C1065 1.327 . S
C1063 H1086 0.950 . S
C1064 C1063 1.349 . S
C1064 C1076 1.349 . S
C1065 C1063 1.327 . S
C1065 C1081 1.429 . S
C1065 H1087 0.950 . S
C1066 H1062 0.949 . S
C1066 C1074 1.574 . S
C1066 C1082 1.368 . S
H1067 C1075 0.950 . S
H1068 C1073 0.950 . S
H1069 C1074 0.949 . S
H1070 C1076 0.950 . S
H1071 C1077 0.950 . S
H1072 C1078 0.949 . S
C1073 H1068 0.950 . S
C1073 C1075 1.327 . S
C1073 C1079 1.429 . S
C1074 C1066 1.574 . S
C1074 H1069 0.949 . S
C1074 C1080 1.368 . S
C1075 C1059 1.349 . S
C1075 H1067 0.950 . S
C1075 C1073 1.327 . S
C1076 C1064 1.349 . S
C1076 H1070 0.950 . S
C1076 C1077 1.327 . S
C1077 H1071 0.950 . S
C1077 C1076 1.327 . S
C1077 C1081 1.429 . S
C1078 C1061 1.574 . S
C1078 H1072 0.949 . S
C1078 C1082 1.368 . S
C1079 C1060 1.429 . S
C1079 C1073 1.429 . S
C1079 C1080 1.523 . S
C1080 C1061 1.368 . S
C1080 C1074 1.368 . S
C1080 C1079 1.523 . S
C1081 C1065 1.429 . S
C1081 C1077 1.429 . S
C1081 C1082 1.523 . S
C1082 C1066 1.368 . S
C1082 C1078 1.368 . S
C1082 C1081 1.523 . S
H1083 C1058 0.950 . S
H1084 C1060 0.950 . S
H1085 C1061 0.949 . S
H1086 C1063 0.950 . S
H1087 C1065 0.950 . S
C1088 C1089 1.349 . S
C1088 C1090 1.327 . S
C1088 H1113 0.950 . S
C1089 C1088 1.349 . S
C1089 C1105 1.349 . S
C1090 C1088 1.327 . S
C1090 C1109 1.429 . S
C1090 H1114 0.926 1_565 S
C1091 C1108 1.574 . S
C1091 C1110 1.368 . S
C1091 H1115 0.949 . S
H1092 C1096 0.984 . S
C1093 C1094 1.349 . S
C1093 C1095 1.327 . S
C1093 H1116 0.950 . S
C1094 C1093 1.349 . S
C1094 C1106 1.349 1_565 S
C1095 C1093 1.327 . S
C1095 C1111 1.429 . S
C1095 H1117 0.950 . S
C1096 H1092 0.984 . S
C1096 C1104 1.568 1_545 S
C1096 C1112 1.338 1_545 S
H1097 C1105 0.950 . S
H1098 C1103 0.950 . S
H1099 C1104 0.949 1_545 S
H1100 C1106 0.950 . S
H1101 C1107 0.950 . S
H1102 C1108 0.949 . S
C1103 H1098 0.950 . S
C1103 C1105 1.327 . S
C1103 C1109 1.429 . S
C1104 C1096 1.568 1_565 S
C1104 H1099 0.949 1_565 S
C1104 C1110 1.368 . S
C1105 C1089 1.349 . S
C1105 H1097 0.950 . S
C1105 C1103 1.327 . S
C1106 C1094 1.349 1_545 S
C1106 H1100 0.950 . S
C1106 C1107 1.327 . S
C1107 H1101 0.950 . S
C1107 C1106 1.327 . S
C1107 C1111 1.429 1_545 S
C1108 C1091 1.574 . S
C1108 H1102 0.949 . S
C1108 C1112 1.368 . S
C1109 C1090 1.429 . S
C1109 C1103 1.429 . S
C1109 C1110 1.523 . S
C1110 C1091 1.368 . S
C1110 C1104 1.368 . S
C1110 C1109 1.523 . S
C1111 C1095 1.429 . S
C1111 C1107 1.429 1_565 S
C1111 C1112 1.523 . S
C1112 C1096 1.338 1_565 S
C1112 C1108 1.368 . S
C1112 C1111 1.523 . S
H1113 C1088 0.950 . S
H1114 C1090 0.926 1_545 S
H1115 C1091 0.949 . S
H1116 C1093 0.950 . S
H1117 C1095 0.950 . S
C1118 C1119 1.349 . S
C1118 C1120 1.327 . S
C1118 H1143 0.950 . S
C1119 C1118 1.349 . S
C1119 C1135 1.349 . S
C1120 C1118 1.327 . S
C1120 C1139 1.429 . S
C1120 H1144 0.950 . S
C1121 C1138 1.574 . S
C1121 C1140 1.368 . S
C1121 H1145 0.949 . S
H1122 C1126 0.949 . S
C1123 C1124 1.349 . S
C1123 C1125 1.327 . S
C1123 H1146 0.950 . S
C1124 C1123 1.349 . S
C1124 C1136 1.349 . S
C1125 C1123 1.327 . S
C1125 C1141 1.429 . S
C1125 H1147 0.950 . S
C1126 H1122 0.949 . S
C1126 C1134 1.574 . S
C1126 C1142 1.368 . S
H1127 C1135 0.950 . S
H1128 C1133 0.950 . S
H1129 C1134 0.949 . S
H1130 C1136 0.950 . S
H1131 C1137 0.950 . S
H1132 C1138 0.949 . S
C1133 H1128 0.950 . S
C1133 C1135 1.327 . S
C1133 C1139 1.429 . S
C1134 C1126 1.574 . S
C1134 H1129 0.949 . S
C1134 C1140 1.368 . S
C1135 C1119 1.349 . S
C1135 H1127 0.950 . S
C1135 C1133 1.327 . S
C1136 C1124 1.349 . S
C1136 H1130 0.950 . S
C1136 C1137 1.327 . S
C1137 H1131 0.950 . S
C1137 C1136 1.327 . S
C1137 C1141 1.429 . S
C1138 C1121 1.574 . S
C1138 H1132 0.949 . S
C1138 C1142 1.368 . S
C1139 C1120 1.429 . S
C1139 C1133 1.429 . S
C1139 C1140 1.523 . S
C1140 C1121 1.368 . S
C1140 C1134 1.368 . S
C1140 C1139 1.523 . S
C1141 C1125 1.429 . S
C1141 C1137 1.429 . S
C1141 C1142 1.523 . S
C1142 C1126 1.368 . S
C1142 C1138 1.368 . S
C1142 C1141 1.523 . S
H1143 C1118 0.950 . S
H1144 C1120 0.950 . S
H1145 C1121 0.949 . S
H1146 C1123 0.950 . S
H1147 C1125 0.950 . S
C1148 C1149 1.349 . S
C1148 C1150 1.327 . S
C1148 H1173 0.950 . S
C1149 C1148 1.349 . S
C1149 C1165 1.349 . S
C1150 C1148 1.327 . S
C1150 C1169 1.429 . S
C1150 H1174 0.950 . S
C1151 C1168 1.574 . S
C1151 C1170 1.368 . S
C1151 H1175 0.949 . S
H1152 C1156 0.949 . S
C1153 C1154 1.349 . S
C1153 C1155 1.327 . S
C1153 H1176 0.950 . S
C1154 C1153 1.349 . S
C1154 C1166 1.349 . S
C1155 C1153 1.327 . S
C1155 C1171 1.429 . S
C1155 H1177 0.950 . S
C1156 H1152 0.949 . S
C1156 C1164 1.574 . S
C1156 C1172 1.368 . S
H1157 C1165 0.950 . S
H1158 C1163 0.950 . S
H1159 C1164 0.949 . S
H1160 C1166 0.950 . S
H1161 C1167 0.950 . S
H1162 C1168 0.949 . S
C1163 H1158 0.950 . S
C1163 C1165 1.327 . S
C1163 C1169 1.429 . S
C1164 C1156 1.574 . S
C1164 H1159 0.949 . S
C1164 C1170 1.368 . S
C1165 C1149 1.349 . S
C1165 H1157 0.950 . S
C1165 C1163 1.327 . S
C1166 C1154 1.349 . S
C1166 H1160 0.950 . S
C1166 C1167 1.327 . S
C1167 H1161 0.950 . S
C1167 C1166 1.327 . S
C1167 C1171 1.429 . S
C1168 C1151 1.574 . S
C1168 H1162 0.949 . S
C1168 C1172 1.368 . S
C1169 C1150 1.429 . S
C1169 C1163 1.429 . S
C1169 C1170 1.523 . S
C1170 C1151 1.368 . S
C1170 C1164 1.368 . S
C1170 C1169 1.523 . S
C1171 C1155 1.429 . S
C1171 C1167 1.429 . S
C1171 C1172 1.523 . S
C1172 C1156 1.368 . S
C1172 C1168 1.368 . S
C1172 C1171 1.523 . S
H1173 C1148 0.950 . S
H1174 C1150 0.950 . S
H1175 C1151 0.949 . S
H1176 C1153 0.950 . S
H1177 C1155 0.950 . S
C1178 C1179 1.349 . S
C1178 C1180 1.327 . S
C1178 H1203 0.950 . S
C1179 C1178 1.349 . S
C1179 C1195 1.349 1_655 S
C1180 C1178 1.327 . S
C1180 C1199 1.429 . S
C1180 H1204 0.950 . S
C1181 C1198 1.574 . S
C1181 C1200 1.368 1_455 S
C1181 H1205 0.949 . S
H1182 C1186 0.949 . S
C1183 C1184 1.337 1_455 S
C1183 C1185 1.327 . S
C1183 H1206 0.950 . S
C1184 C1183 1.337 1_655 S
C1184 C1196 1.362 . S
C1185 C1183 1.327 . S
C1185 C1201 1.429 1_455 S
C1185 H1207 0.950 . S
C1186 H1182 0.949 . S
C1186 C1194 1.574 . S
C1186 C1202 1.368 . S
H1187 C1195 0.950 . S
H1188 C1193 0.950 . S
H1189 C1194 0.949 . S
H1190 C1196 0.950 . S
H1191 C1197 0.950 . S
H1192 C1198 0.949 . S
C1193 H1188 0.950 . S
C1193 C1195 1.327 . S
C1193 C1199 1.429 1_455 S
C1194 C1186 1.574 . S
C1194 H1189 0.949 . S
C1194 C1200 1.368 . S
C1195 C1179 1.349 1_455 S
C1195 H1187 0.950 . S
C1195 C1193 1.327 . S
C1196 C1184 1.362 . S
C1196 H1190 0.950 . S
C1196 C1197 1.327 . S
C1197 H1191 0.950 . S
C1197 C1196 1.327 . S
C1197 C1201 1.429 . S
C1198 C1181 1.574 . S
C1198 H1192 0.949 . S
C1198 C1202 1.368 1_455 S
C1199 C1180 1.429 . S
C1199 C1193 1.429 1_655 S
C1199 C1200 1.523 . S
C1200 C1181 1.368 1_655 S
C1200 C1194 1.368 . S
C1200 C1199 1.523 . S
C1201 C1185 1.429 1_655 S
C1201 C1197 1.429 . S
C1201 C1202 1.523 . S
C1202 C1186 1.368 . S
C1202 C1198 1.368 1_655 S
C1202 C1201 1.523 . S
H1203 C1178 0.950 . S
H1204 C1180 0.950 . S
H1205 C1181 0.949 . S
H1206 C1183 0.950 . S
H1207 C1185 0.950 . S
C1208 C1209 1.349 . S
C1208 C1210 1.327 . S
C1208 H1233 0.950 . S
C1209 C1208 1.349 . S
C1209 C1225 1.349 . S
C1210 C1208 1.327 . S
C1210 C1229 1.429 . S
C1210 H1234 0.950 . S
C1211 C1228 1.570 1_545 S
C1211 C1230 1.396 . S
C1211 H1235 0.928 1_545 S
H1212 C1216 0.949 . S
C1213 C1214 1.349 1_565 S
C1213 C1215 1.327 . S
C1213 H1236 0.950 . S
C1214 C1213 1.349 1_545 S
C1214 C1226 1.349 . S
C1215 C1213 1.327 . S
C1215 C1231 1.429 1_565 S
C1215 H1237 0.950 . S
C1216 H1212 0.949 . S
C1216 C1224 1.574 . S
C1216 C1232 1.368 . S
H1217 C1225 0.950 . S
H1218 C1223 0.950 1_565 S
H1219 C1224 0.949 . S
H1220 C1226 0.950 . S
H1221 C1227 0.950 . S
H1222 C1228 0.949 . S
C1223 H1218 0.950 1_545 S
C1223 C1225 1.327 . S
C1223 C1229 1.429 . S
C1224 C1216 1.574 . S
C1224 H1219 0.949 . S
C1224 C1230 1.368 . S
C1225 C1209 1.349 . S
C1225 H1217 0.950 . S
C1225 C1223 1.327 . S
C1226 C1214 1.349 . S
C1226 H1220 0.950 . S
C1226 C1227 1.327 . S
C1227 H1221 0.950 . S
C1227 C1226 1.327 . S
C1227 C1231 1.429 . S
C1228 C1211 1.570 1_565 S
C1228 H1222 0.949 . S
C1228 C1232 1.368 1_565 S
C1229 C1210 1.429 . S
C1229 C1223 1.429 . S
C1229 C1230 1.523 . S
C1230 C1211 1.396 . S
C1230 C1224 1.368 . S
C1230 C1229 1.523 . S
C1231 C1215 1.429 1_545 S
C1231 C1227 1.429 . S
C1231 C1232 1.523 . S
C1232 C1216 1.368 . S
C1232 C1228 1.368 1_545 S
C1232 C1231 1.523 . S
H1233 C1208 0.950 . S
H1234 C1210 0.950 . S
H1235 C1211 0.928 1_565 S
H1236 C1213 0.950 . S
H1237 C1215 0.950 . S
C1238 C1239 1.349 . S
C1238 C1240 1.327 . S
C1238 H1263 0.950 . S
C1239 C1238 1.349 . S
C1239 C1255 1.349 . S
C1240 C1238 1.327 . S
C1240 C1259 1.429 . S
C1240 H1264 0.950 . S
C1241 C1258 1.574 . S
C1241 C1260 1.368 . S
C1241 H1265 0.949 . S
H1242 C1246 0.949 . S
C1243 C1244 1.349 . S
C1243 C1245 1.327 . S
C1243 H1266 0.950 . S
C1244 C1243 1.349 . S
C1244 C1256 1.349 . S
C1245 C1243 1.327 . S
C1245 C1261 1.429 . S
C1245 H1267 0.950 . S
C1246 H1242 0.949 . S
C1246 C1254 1.574 . S
C1246 C1262 1.368 . S
H1247 C1255 0.950 . S
H1248 C1253 0.950 . S
H1249 C1254 0.949 . S
H1250 C1256 0.950 . S
H1251 C1257 0.950 . S
H1252 C1258 0.949 . S
C1253 H1248 0.950 . S
C1253 C1255 1.327 . S
C1253 C1259 1.429 . S
C1254 C1246 1.574 . S
C1254 H1249 0.949 . S
C1254 C1260 1.368 . S
C1255 C1239 1.349 . S
C1255 H1247 0.950 . S
C1255 C1253 1.327 . S
C1256 C1244 1.349 . S
C1256 H1250 0.950 . S
C1256 C1257 1.327 . S
C1257 H1251 0.950 . S
C1257 C1256 1.327 . S
C1257 C1261 1.429 . S
C1258 C1241 1.574 . S
C1258 H1252 0.949 . S
C1258 C1262 1.368 . S
C1259 C1240 1.429 . S
C1259 C1253 1.429 . S
C1259 C1260 1.523 . S
C1260 C1241 1.368 . S
C1260 C1254 1.368 . S
C1260 C1259 1.523 . S
C1261 C1245 1.429 . S
C1261 C1257 1.429 . S
C1261 C1262 1.523 . S
C1262 C1246 1.368 . S
C1262 C1258 1.368 . S
C1262 C1261 1.523 . S
H1263 C1238 0.950 . S
H1264 C1240 0.950 . S
H1265 C1241 0.949 . S
H1266 C1243 0.950 . S
H1267 C1245 0.950 . S
C1268 C1269 1.349 . S
C1268 C1270 1.327 . S
C1268 H1293 0.950 . S
C1269 C1268 1.349 . S
C1269 C1285 1.349 . S
C1270 C1268 1.327 . S
C1270 C1289 1.429 . S
C1270 H1294 0.950 . S
C1271 C1288 1.574 . S
C1271 C1290 1.368 . S
C1271 H1295 0.949 . S
H1272 C1276 0.949 . S
C1273 C1274 1.349 . S
C1273 C1275 1.327 . S
C1273 H1296 0.950 . S
C1274 C1273 1.349 . S
C1274 C1286 1.349 . S
C1275 C1273 1.327 . S
C1275 C1291 1.429 . S
C1275 H1297 0.950 . S
C1276 H1272 0.949 . S
C1276 C1284 1.574 . S
C1276 C1292 1.368 . S
H1277 C1285 0.950 . S
H1278 C1283 0.950 . S
H1279 C1284 0.949 . S
H1280 C1286 0.950 . S
H1281 C1287 0.950 . S
H1282 C1288 0.949 . S
C1283 H1278 0.950 . S
C1283 C1285 1.327 . S
C1283 C1289 1.429 . S
C1284 C1276 1.574 . S
C1284 H1279 0.949 . S
C1284 C1290 1.368 . S
C1285 C1269 1.349 . S
C1285 H1277 0.950 . S
C1285 C1283 1.327 . S
C1286 C1274 1.349 . S
C1286 H1280 0.950 . S
C1286 C1287 1.327 . S
C1287 H1281 0.950 . S
C1287 C1286 1.327 . S
C1287 C1291 1.429 . S
C1288 C1271 1.574 . S
C1288 H1282 0.949 . S
C1288 C1292 1.368 . S
C1289 C1270 1.429 . S
C1289 C1283 1.429 . S
C1289 C1290 1.523 . S
C1290 C1271 1.368 . S
C1290 C1284 1.368 . S
C1290 C1289 1.523 . S
C1291 C1275 1.429 . S
C1291 C1287 1.429 . S
C1291 C1292 1.523 . S
C1292 C1276 1.368 . S
C1292 C1288 1.368 . S
C1292 C1291 1.523 . S
H1293 C1268 0.950 . S
H1294 C1270 0.950 . S
H1295 C1271 0.949 . S
H1296 C1273 0.950 . S
H1297 C1275 0.950 . S
C1298 C1299 1.325 1_655 S
C1298 C1300 1.331 . S
C1298 H1323 0.973 . S
C1299 C1298 1.325 1_455 S
C1299 C1315 1.349 . S
C1300 C1298 1.331 . S
C1300 C1319 1.429 1_655 S
C1300 H1324 0.950 . S
C1301 C1318 1.574 . S
C1301 C1320 1.368 . S
C1301 H1325 0.949 . S
H1302 C1306 0.949 . S
C1303 C1304 1.383 . S
C1303 C1305 1.327 . S
C1303 H1326 0.950 . S
C1304 C1303 1.383 . S
C1304 C1316 1.320 1_455 S
C1305 C1303 1.327 . S
C1305 C1321 1.429 . S
C1305 H1327 0.950 . S
C1306 H1302 0.949 . S
C1306 C1314 1.574 . S
C1306 C1322 1.368 1_655 S
H1307 C1315 0.950 . S
H1308 C1313 0.950 . S
H1309 C1314 0.949 . S
H1310 C1316 0.950 . S
H1311 C1317 0.950 . S
H1312 C1318 0.949 . S
C1313 H1308 0.950 . S
C1313 C1315 1.327 . S
C1313 C1319 1.429 . S
C1314 C1306 1.574 . S
C1314 H1309 0.949 . S
C1314 C1320 1.368 1_655 S
C1315 C1299 1.349 . S
C1315 H1307 0.950 . S
C1315 C1313 1.327 . S
C1316 C1304 1.320 1_655 S
C1316 H1310 0.950 . S
C1316 C1317 1.327 . S
C1317 H1311 0.950 . S
C1317 C1316 1.327 . S
C1317 C1321 1.429 1_655 S
C1318 C1301 1.574 . S
C1318 H1312 0.949 . S
C1318 C1322 1.368 . S
C1319 C1300 1.429 1_455 S
C1319 C1313 1.429 . S
C1319 C1320 1.523 . S
C1320 C1301 1.368 . S
C1320 C1314 1.368 1_455 S
C1320 C1319 1.523 . S
C1321 C1305 1.429 . S
C1321 C1317 1.429 1_455 S
C1321 C1322 1.523 . S
C1322 C1306 1.368 1_455 S
C1322 C1318 1.368 . S
C1322 C1321 1.523 . S
H1323 C1298 0.973 . S
H1324 C1300 0.950 . S
H1325 C1301 0.949 . S
H1326 C1303 0.950 . S
H1327 C1305 0.950 . S
C1328 C1329 1.349 . S
C1328 C1330 1.327 . S
C1328 H1353 0.950 . S
C1329 C1328 1.349 . S
C1329 C1345 1.349 1_545 S
C1330 C1328 1.327 . S
C1330 C1349 1.429 . S
C1330 H1354 0.950 . S
C1331 C1348 1.574 . S
C1331 C1350 1.368 1_565 S
C1331 H1355 0.949 . S
H1332 C1336 0.949 . S
C1333 C1334 1.349 . S
C1333 C1335 1.327 . S
C1333 H1356 0.950 1_545 S
C1334 C1333 1.349 . S
C1334 C1346 1.349 . S
C1335 C1333 1.327 . S
C1335 C1351 1.429 . S
C1335 H1357 0.950 1_545 S
C1336 H1332 0.949 . S
C1336 C1344 1.574 . S
C1336 C1352 1.368 . S
H1337 C1345 0.950 . S
H1338 C1343 0.950 . S
H1339 C1344 0.949 . S
H1340 C1346 0.950 . S
H1341 C1347 0.950 . S
H1342 C1348 0.949 . S
C1343 H1338 0.950 . S
C1343 C1345 1.327 . S
C1343 C1349 1.429 1_565 S
C1344 C1336 1.574 . S
C1344 H1339 0.949 . S
C1344 C1350 1.368 . S
C1345 C1329 1.349 1_565 S
C1345 H1337 0.950 . S
C1345 C1343 1.327 . S
C1346 C1334 1.349 . S
C1346 H1340 0.950 . S
C1346 C1347 1.327 . S
C1347 H1341 0.950 . S
C1347 C1346 1.327 . S
C1347 C1351 1.429 . S
C1348 C1331 1.574 . S
C1348 H1342 0.949 . S
C1348 C1352 1.368 1_565 S
C1349 C1330 1.429 . S
C1349 C1343 1.429 1_545 S
C1349 C1350 1.523 . S
C1350 C1331 1.368 1_545 S
C1350 C1344 1.368 . S
C1350 C1349 1.523 . S
C1351 C1335 1.429 . S
C1351 C1347 1.429 . S
C1351 C1352 1.523 . S
C1352 C1336 1.368 . S
C1352 C1348 1.368 1_545 S
C1352 C1351 1.523 . S
H1353 C1328 0.950 . S
H1354 C1330 0.950 . S
H1355 C1331 0.949 . S
H1356 C1333 0.950 1_565 S
H1357 C1335 0.950 1_565 S
C1358 C1359 1.349 . S
C1358 C1360 1.327 . S
C1358 H1383 0.950 . S
C1359 C1358 1.349 . S
C1359 C1375 1.349 . S
C1360 C1358 1.327 . S
C1360 C1379 1.429 . S
C1360 H1384 0.950 . S
C1361 C1378 1.574 . S
C1361 C1380 1.368 . S
C1361 H1385 0.949 . S
H1362 C1366 0.949 . S
C1363 C1364 1.349 . S
C1363 C1365 1.327 . S
C1363 H1386 0.950 . S
C1364 C1363 1.349 . S
C1364 C1376 1.349 . S
C1365 C1363 1.327 . S
C1365 C1381 1.429 . S
C1365 H1387 0.950 . S
C1366 H1362 0.949 . S
C1366 C1374 1.574 . S
C1366 C1382 1.368 . S
H1367 C1375 0.950 . S
H1368 C1373 0.950 . S
H1369 C1374 0.949 . S
H1370 C1376 0.950 1_556 S
H1371 C1377 0.950 . S
H1372 C1378 0.949 . S
C1373 H1368 0.950 . S
C1373 C1375 1.327 . S
C1373 C1379 1.429 . S
C1374 C1366 1.574 . S
C1374 H1369 0.949 . S
C1374 C1380 1.368 . S
C1375 C1359 1.349 . S
C1375 H1367 0.950 . S
C1375 C1373 1.327 . S
C1376 C1364 1.349 . S
C1376 H1370 0.950 1_554 S
C1376 C1377 1.327 . S
C1377 H1371 0.950 . S
C1377 C1376 1.327 . S
C1377 C1381 1.429 . S
C1378 C1361 1.574 . S
C1378 H1372 0.949 . S
C1378 C1382 1.368 . S
C1379 C1360 1.429 . S
C1379 C1373 1.429 . S
C1379 C1380 1.523 . S
C1380 C1361 1.368 . S
C1380 C1374 1.368 . S
C1380 C1379 1.523 . S
C1381 C1365 1.429 . S
C1381 C1377 1.429 . S
C1381 C1382 1.523 . S
C1382 C1366 1.368 . S
C1382 C1378 1.368 . S
C1382 C1381 1.523 . S
H1383 C1358 0.950 . S
H1384 C1360 0.950 . S
H1385 C1361 0.949 . S
H1386 C1363 0.950 . S
H1387 C1365 0.950 . S
C1388 C1389 1.349 . S
C1388 C1390 1.327 . S
C1388 H1413 0.950 . S
C1389 C1388 1.349 . S
C1389 C1405 1.349 . S
C1390 C1388 1.327 . S
C1390 C1409 1.429 . S
C1390 H1414 0.950 . S
C1391 C1408 1.574 . S
C1391 C1410 1.368 . S
C1391 H1415 0.949 . S
H1392 C1396 0.949 . S
C1393 C1394 1.349 . S
C1393 C1395 1.327 . S
C1393 H1416 0.950 . S
C1394 C1393 1.349 . S
C1394 C1406 1.349 . S
C1395 C1393 1.327 . S
C1395 C1411 1.429 . S
C1395 H1417 0.950 . S
C1396 H1392 0.949 . S
C1396 C1404 1.574 . S
C1396 C1412 1.368 . S
H1397 C1405 0.950 . S
H1398 C1403 0.950 . S
H1399 C1404 0.949 . S
H1400 C1406 0.950 . S
H1401 C1407 0.950 . S
H1402 C1408 0.949 . S
C1403 H1398 0.950 . S
C1403 C1405 1.327 . S
C1403 C1409 1.429 . S
C1404 C1396 1.574 . S
C1404 H1399 0.949 . S
C1404 C1410 1.368 . S
C1405 C1389 1.349 . S
C1405 H1397 0.950 . S
C1405 C1403 1.327 . S
C1406 C1394 1.349 . S
C1406 H1400 0.950 . S
C1406 C1407 1.327 . S
C1407 H1401 0.950 . S
C1407 C1406 1.327 . S
C1407 C1411 1.429 . S
C1408 C1391 1.574 . S
C1408 H1402 0.949 . S
C1408 C1412 1.368 . S
C1409 C1390 1.429 . S
C1409 C1403 1.429 . S
C1409 C1410 1.523 . S
C1410 C1391 1.368 . S
C1410 C1404 1.368 . S
C1410 C1409 1.523 . S
C1411 C1395 1.429 . S
C1411 C1407 1.429 . S
C1411 C1412 1.523 . S
C1412 C1396 1.368 . S
C1412 C1408 1.368 . S
C1412 C1411 1.523 . S
H1413 C1388 0.950 . S
H1414 C1390 0.950 . S
H1415 C1391 0.949 . S
H1416 C1393 0.950 . S
H1417 C1395 0.950 . S
C1418 C1419 1.349 . S
C1418 C1420 1.327 . S
C1418 H1443 0.950 . S
C1419 C1418 1.349 . S
C1419 C1435 1.349 . S
C1420 C1418 1.327 . S
C1420 C1439 1.429 . S
C1420 H1444 0.950 . S
C1421 C1438 1.574 . S
C1421 C1440 1.368 . S
C1421 H1445 0.949 . S
H1422 C1426 0.949 . S
C1423 C1424 1.349 . S
C1423 C1425 1.327 . S
C1423 H1446 0.950 . S
C1424 C1423 1.349 . S
C1424 C1436 1.349 1_455 S
C1425 C1423 1.327 . S
C1425 C1441 1.429 . S
C1425 H1447 0.950 . S
C1426 H1422 0.949 . S
C1426 C1434 1.574 . S
C1426 C1442 1.368 . S
H1427 C1435 0.950 . S
H1428 C1433 0.950 . S
H1429 C1434 0.949 . S
H1430 C1436 0.950 . S
H1431 C1437 0.950 1_655 S
H1432 C1438 0.949 . S
C1433 H1428 0.950 . S
C1433 C1435 1.327 . S
C1433 C1439 1.429 . S
C1434 C1426 1.574 . S
C1434 H1429 0.949 . S
C1434 C1440 1.368 . S
C1435 C1419 1.349 . S
C1435 H1427 0.950 . S
C1435 C1433 1.327 . S
C1436 C1424 1.349 1_655 S
C1436 H1430 0.950 . S
C1436 C1437 1.327 1_655 S
C1437 H1431 0.950 1_455 S
C1437 C1436 1.327 1_455 S
C1437 C1441 1.429 . S
C1438 C1421 1.574 . S
C1438 H1432 0.949 . S
C1438 C1442 1.368 . S
C1439 C1420 1.429 . S
C1439 C1433 1.429 . S
C1439 C1440 1.523 . S
C1440 C1421 1.368 . S
C1440 C1434 1.368 . S
C1440 C1439 1.523 . S
C1441 C1425 1.429 . S
C1441 C1437 1.429 . S
C1441 C1442 1.523 . S
C1442 C1426 1.368 . S
C1442 C1438 1.368 . S
C1442 C1441 1.523 . S
H1443 C1418 0.950 . S
H1444 C1420 0.950 . S
H1445 C1421 0.949 . S
H1446 C1423 0.950 . S
H1447 C1425 0.950 . S
C1448 C1449 1.349 . S
C1448 C1450 1.327 . S
C1448 H1473 0.950 . S
C1449 C1448 1.349 . S
C1449 C1465 1.349 1_565 S
C1450 C1448 1.327 . S
C1450 C1469 1.429 . S
C1450 H1474 0.950 . S
C1451 C1468 1.574 . S
C1451 C1470 1.368 1_545 S
C1451 H1475 0.949 . S
H1452 C1456 0.949 . S
C1453 C1454 1.349 . S
C1453 C1455 1.327 . S
C1453 H1476 0.965 . S
C1454 C1453 1.349 . S
C1454 C1466 1.349 . S
C1455 C1453 1.327 . S
C1455 C1471 1.429 . S
C1455 H1477 0.950 1_565 S
C1456 H1452 0.949 . S
C1456 C1464 1.574 . S
C1456 C1472 1.368 . S
H1457 C1465 0.950 . S
H1458 C1463 0.950 . S
H1459 C1464 0.949 . S
H1460 C1466 0.950 . S
H1461 C1467 0.950 . S
H1462 C1468 0.951 . S
C1463 H1458 0.950 . S
C1463 C1465 1.327 . S
C1463 C1469 1.429 1_545 S
C1464 C1456 1.574 . S
C1464 H1459 0.949 . S
C1464 C1470 1.368 . S
C1465 C1449 1.349 1_545 S
C1465 H1457 0.950 . S
C1465 C1463 1.327 . S
C1466 C1454 1.349 . S
C1466 H1460 0.950 . S
C1466 C1467 1.327 . S
C1467 H1461 0.950 . S
C1467 C1466 1.327 . S
C1467 C1471 1.429 . S
C1468 C1451 1.574 . S
C1468 H1462 0.951 . S
C1468 C1472 1.366 1_545 S
C1469 C1450 1.429 . S
C1469 C1463 1.429 1_565 S
C1469 C1470 1.523 . S
C1470 C1451 1.368 1_565 S
C1470 C1464 1.368 . S
C1470 C1469 1.523 . S
C1471 C1455 1.429 . S
C1471 C1467 1.429 . S
C1471 C1472 1.523 . S
C1472 C1456 1.368 . S
C1472 C1468 1.366 1_565 S
C1472 C1471 1.523 . S
H1473 C1448 0.950 . S
H1474 C1450 0.950 . S
H1475 C1451 0.949 . S
H1476 C1453 0.965 . S
H1477 C1455 0.950 1_545 S
C1478 C1479 1.349 . S
C1478 C1480 1.327 . S
C1478 H1503 0.950 . S
C1479 C1478 1.349 . S
C1479 C1495 1.349 . S
C1480 C1478 1.327 . S
C1480 C1499 1.429 . S
C1480 H1504 0.950 . S
C1481 C1498 1.574 . S
C1481 C1500 1.368 . S
C1481 H1505 0.949 . S
H1482 C1486 0.949 . S
C1483 C1484 1.349 . S
C1483 C1485 1.327 . S
C1483 H1506 0.950 . S
C1484 C1483 1.349 . S
C1484 C1496 1.349 . S
C1485 C1483 1.327 . S
C1485 C1501 1.429 . S
C1485 H1507 0.950 . S
C1486 H1482 0.949 . S
C1486 C1494 1.574 . S
C1486 C1502 1.368 . S
H1487 C1495 0.950 . S
H1488 C1493 0.950 . S
H1489 C1494 0.949 . S
H1490 C1496 0.950 . S
H1491 C1497 0.950 . S
H1492 C1498 0.949 . S
C1493 H1488 0.950 . S
C1493 C1495 1.327 . S
C1493 C1499 1.429 . S
C1494 C1486 1.574 . S
C1494 H1489 0.949 . S
C1494 C1500 1.368 . S
C1495 C1479 1.349 . S
C1495 H1487 0.950 . S
C1495 C1493 1.327 . S
C1496 C1484 1.349 . S
C1496 H1490 0.950 . S
C1496 C1497 1.327 . S
C1497 H1491 0.950 . S
C1497 C1496 1.327 . S
C1497 C1501 1.429 . S
C1498 C1481 1.574 . S
C1498 H1492 0.949 . S
C1498 C1502 1.368 . S
C1499 C1480 1.429 . S
C1499 C1493 1.429 . S
C1499 C1500 1.523 . S
C1500 C1481 1.368 . S
C1500 C1494 1.368 . S
C1500 C1499 1.523 . S
C1501 C1485 1.429 . S
C1501 C1497 1.429 . S
C1501 C1502 1.523 . S
C1502 C1486 1.368 . S
C1502 C1498 1.368 . S
C1502 C1501 1.523 . S
H1503 C1478 0.950 . S
H1504 C1480 0.950 . S
H1505 C1481 0.949 . S
H1506 C1483 0.950 . S
H1507 C1485 0.950 . S
C1508 C1509 1.349 . S
C1508 C1510 1.327 . S
C1508 H1533 0.950 . S
C1509 C1508 1.349 . S
C1509 C1525 1.349 . S
C1510 C1508 1.327 . S
C1510 C1529 1.429 . S
C1510 H1534 0.950 . S
C1511 C1528 1.574 . S
C1511 C1530 1.368 . S
C1511 H1535 0.949 . S
H1512 C1516 0.949 . S
C1513 C1514 1.349 . S
C1513 C1515 1.327 . S
C1513 H1536 0.950 . S
C1514 C1513 1.349 . S
C1514 C1526 1.349 . S
C1515 C1513 1.327 . S
C1515 C1531 1.429 . S
C1515 H1537 0.950 . S
C1516 H1512 0.949 . S
C1516 C1524 1.574 . S
C1516 C1532 1.368 . S
H1517 C1525 0.950 . S
H1518 C1523 0.950 . S
H1519 C1524 0.949 . S
H1520 C1526 0.950 . S
H1521 C1527 0.950 . S
H1522 C1528 0.949 . S
C1523 H1518 0.950 . S
C1523 C1525 1.327 . S
C1523 C1529 1.429 . S
C1524 C1516 1.574 . S
C1524 H1519 0.949 . S
C1524 C1530 1.368 . S
C1525 C1509 1.349 . S
C1525 H1517 0.950 . S
C1525 C1523 1.327 . S
C1526 C1514 1.349 . S
C1526 H1520 0.950 . S
C1526 C1527 1.327 . S
C1527 H1521 0.950 . S
C1527 C1526 1.327 . S
C1527 C1531 1.429 . S
C1528 C1511 1.574 . S
C1528 H1522 0.949 . S
C1528 C1532 1.368 . S
C1529 C1510 1.429 . S
C1529 C1523 1.429 . S
C1529 C1530 1.523 . S
C1530 C1511 1.368 . S
C1530 C1524 1.368 . S
C1530 C1529 1.523 . S
C1531 C1515 1.429 . S
C1531 C1527 1.429 . S
C1531 C1532 1.523 . S
C1532 C1516 1.368 . S
C1532 C1528 1.368 . S
C1532 C1531 1.523 . S
H1533 C1508 0.950 . S
H1534 C1510 0.950 . S
H1535 C1511 0.949 . S
H1536 C1513 0.950 . S
H1537 C1515 0.950 . S
C1538 C1539 1.349 1_455 S
C1538 C1540 1.327 . S
C1538 H1563 0.950 . S
C1539 C1538 1.349 1_655 S
C1539 C1555 1.349 . S
C1540 C1538 1.327 . S
C1540 C1559 1.429 1_455 S
C1540 H1564 0.950 . S
C1541 C1558 1.574 . S
C1541 C1560 1.368 . S
C1541 H1565 0.949 . S
H1542 C1546 0.949 . S
C1543 C1544 1.349 . S
C1543 C1545 1.327 . S
C1543 H1566 0.950 . S
C1544 C1543 1.349 . S
C1544 C1556 1.349 . S
C1545 C1543 1.327 . S
C1545 C1561 1.429 . S
C1545 H1567 0.950 . S
C1546 H1542 0.949 . S
C1546 C1554 1.574 . S
C1546 C1562 1.368 . S
H1547 C1555 0.950 . S
H1548 C1553 0.950 . S
H1549 C1554 0.949 1_455 S
H1550 C1556 0.950 . S
H1551 C1557 0.950 . S
H1552 C1558 0.949 . S
C1553 H1548 0.950 . S
C1553 C1555 1.327 . S
C1553 C1559 1.429 . S
C1554 C1546 1.574 . S
C1554 H1549 0.949 1_655 S
C1554 C1560 1.368 . S
C1555 C1539 1.349 . S
C1555 H1547 0.950 . S
C1555 C1553 1.327 . S
C1556 C1544 1.349 . S
C1556 H1550 0.950 . S
C1556 C1557 1.327 . S
C1557 H1551 0.950 . S
C1557 C1556 1.327 . S
C1557 C1561 1.429 . S
C1558 C1541 1.574 . S
C1558 H1552 0.949 . S
C1558 C1562 1.368 . S
C1559 C1540 1.429 1_655 S
C1559 C1553 1.429 . S
C1559 C1560 1.523 . S
C1560 C1541 1.368 . S
C1560 C1554 1.368 . S
C1560 C1559 1.523 . S
C1561 C1545 1.429 . S
C1561 C1557 1.429 . S
C1561 C1562 1.523 . S
C1562 C1546 1.368 . S
C1562 C1558 1.368 . S
C1562 C1561 1.523 . S
H1563 C1538 0.950 . S
H1564 C1540 0.950 . S
H1565 C1541 0.949 . S
H1566 C1543 0.950 . S
H1567 C1545 0.950 . S
C1568 C1569 1.402 . S
C1568 C1570 1.327 . S
C1568 H1593 0.950 . S
C1569 C1568 1.402 . S
C1569 C1585 1.298 1_545 S
C1570 C1568 1.327 . S
C1570 C1589 1.462 . S
C1570 H1594 0.950 . S
C1571 C1588 1.574 . S
C1571 C1590 1.342 1_565 S
C1571 H1595 0.949 . S
H1572 C1576 0.949 . S
C1573 C1574 1.356 . S
C1573 C1575 1.327 . S
C1573 H1596 0.950 . S
C1574 C1573 1.356 . S
C1574 C1586 1.342 1_565 S
C1575 C1573 1.327 . S
C1575 C1591 1.429 1_565 S
C1575 H1597 0.950 . S
C1576 H1572 0.949 . S
C1576 C1584 1.574 . S
C1576 C1592 1.377 . S
H1577 C1585 0.950 . S
H1578 C1583 0.950 . S
H1579 C1584 0.949 . S
H1580 C1586 0.950 . S
H1581 C1587 0.950 . S
H1582 C1588 0.949 . S
C1583 H1578 0.950 . S
C1583 C1585 1.327 . S
C1583 C1589 1.395 1_565 S
C1584 C1576 1.574 . S
C1584 H1579 0.949 . S
C1584 C1590 1.395 . S
C1585 C1569 1.298 1_565 S
C1585 H1577 0.950 . S
C1585 C1583 1.327 . S
C1586 C1574 1.342 1_545 S
C1586 H1580 0.950 . S
C1586 C1587 1.327 . S
C1587 H1581 0.950 . S
C1587 C1586 1.327 . S
C1587 C1591 1.428 . S
C1588 C1571 1.574 . S
C1588 H1582 0.949 . S
C1588 C1592 1.359 1_565 S
C1589 C1570 1.462 . S
C1589 C1583 1.395 1_545 S
C1589 C1590 1.523 . S
C1590 C1571 1.342 1_545 S
C1590 C1584 1.395 . S
C1590 C1589 1.523 . S
C1591 C1575 1.429 1_545 S
C1591 C1587 1.428 . S
C1591 C1592 1.523 . S
C1592 C1576 1.377 . S
C1592 C1588 1.359 1_545 S
C1592 C1591 1.523 . S
H1593 C1568 0.950 . S
H1594 C1570 0.950 . S
H1595 C1571 0.949 . S
H1596 C1573 0.950 . S
H1597 C1575 0.950 . S
C1598 C1599 1.349 . S
C1598 C1600 1.327 . S
C1598 H1623 0.950 . S
C1599 C1598 1.349 . S
C1599 C1615 1.349 . S
C1600 C1598 1.327 . S
C1600 C1619 1.429 . S
C1600 H1624 0.950 . S
C1601 C1618 1.574 . S
C1601 C1620 1.368 . S
C1601 H1625 0.949 . S
H1602 C1606 0.949 . S
C1603 C1604 1.349 . S
C1603 C1605 1.327 . S
C1603 H1626 0.950 . S
C1604 C1603 1.349 . S
C1604 C1616 1.349 . S
C1605 C1603 1.327 . S
C1605 C1621 1.429 . S
C1605 H1627 0.950 . S
C1606 H1602 0.949 . S
C1606 C1614 1.574 . S
C1606 C1622 1.368 . S
H1607 C1615 0.950 . S
H1608 C1613 0.950 . S
H1609 C1614 0.949 . S
H1610 C1616 0.950 1_554 S
H1611 C1617 0.950 1_554 S
H1612 C1618 0.949 . S
C1613 H1608 0.950 . S
C1613 C1615 1.327 . S
C1613 C1619 1.429 . S
C1614 C1606 1.574 . S
C1614 H1609 0.949 . S
C1614 C1620 1.368 . S
C1615 C1599 1.349 . S
C1615 H1607 0.950 . S
C1615 C1613 1.327 . S
C1616 C1604 1.349 . S
C1616 H1610 0.950 1_556 S
C1616 C1617 1.327 . S
C1617 H1611 0.950 1_556 S
C1617 C1616 1.327 . S
C1617 C1621 1.429 . S
C1618 C1601 1.574 . S
C1618 H1612 0.949 . S
C1618 C1622 1.368 . S
C1619 C1600 1.429 . S
C1619 C1613 1.429 . S
C1619 C1620 1.523 . S
C1620 C1601 1.368 . S
C1620 C1614 1.368 . S
C1620 C1619 1.523 . S
C1621 C1605 1.429 . S
C1621 C1617 1.429 . S
C1621 C1622 1.523 . S
C1622 C1606 1.368 . S
C1622 C1618 1.368 . S
C1622 C1621 1.523 . S
H1623 C1598 0.950 . S
H1624 C1600 0.950 . S
H1625 C1601 0.949 . S
H1626 C1603 0.950 . S
H1627 C1605 0.950 . S
C1628 C1629 1.349 1_556 S
C1628 C1630 1.327 1_655 S
C1628 H1653 0.950 . S
C1629 C1628 1.349 1_554 S
C1629 C1645 1.349 . S
C1630 C1628 1.327 1_455 S
C1630 C1649 1.429 1_556 S
C1630 H1654 0.950 . S
C1631 C1648 1.574 . S
C1631 C1650 1.368 . S
C1631 H1655 0.949 . S
H1632 C1636 0.949 . S
C1633 C1634 1.349 . S
C1633 C1635 1.327 . S
C1633 H1656 0.950 . S
C1634 C1633 1.349 . S
C1634 C1646 1.349 1_554 S
C1635 C1633 1.327 . S
C1635 C1651 1.429 . S
C1635 H1657 0.950 . S
C1636 H1632 0.949 . S
C1636 C1644 1.574 . S
C1636 C1652 1.368 1_556 S
H1637 C1645 0.950 . S
H1638 C1643 0.942 1_455 S
H1639 C1644 0.949 . S
H1640 C1646 0.950 . S
H1641 C1647 0.950 . S
H1642 C1648 0.949 . S
C1643 H1638 0.942 1_655 S
C1643 C1645 1.327 . S
C1643 C1649 1.429 1_655 S
C1644 C1636 1.574 . S
C1644 H1639 0.949 . S
C1644 C1650 1.368 1_556 S
C1645 C1629 1.349 . S
C1645 H1637 0.950 . S
C1645 C1643 1.327 . S
C1646 C1634 1.349 1_556 S
C1646 H1640 0.950 . S
C1646 C1647 1.327 . S
C1647 H1641 0.950 . S
C1647 C1646 1.327 . S
C1647 C1651 1.429 1_556 S
C1648 C1631 1.574 . S
C1648 H1642 0.949 . S
C1648 C1652 1.368 . S
C1649 C1630 1.429 1_554 S
C1649 C1643 1.429 1_455 S
C1649 C1650 1.523 . S
C1650 C1631 1.368 . S
C1650 C1644 1.368 1_554 S
C1650 C1649 1.523 . S
C1651 C1635 1.429 . S
C1651 C1647 1.429 1_554 S
C1651 C1652 1.523 . S
C1652 C1636 1.368 1_554 S
C1652 C1648 1.368 . S
C1652 C1651 1.523 . S
H1653 C1628 0.950 . S
H1654 C1630 0.950 . S
H1655 C1631 0.949 . S
H1656 C1633 0.950 . S
H1657 C1635 0.950 . S
C1658 C1659 1.343 1_455 S
C1658 C1660 1.327 . S
C1658 H1683 0.950 . S
C1659 C1658 1.343 1_655 S
C1659 C1675 1.355 . S
C1660 C1658 1.327 . S
C1660 C1679 1.422 1_455 S
C1660 H1684 0.950 . S
C1661 C1678 1.574 1_545 S
C1661 C1680 1.375 . S
C1661 H1685 0.949 1_556 S
H1662 C1666 0.949 . S
C1663 C1664 1.355 . S
C1663 C1665 1.327 . S
C1663 H1686 0.950 1_556 S
C1664 C1663 1.355 . S
C1664 C1676 1.343 1_655 S
C1665 C1663 1.327 . S
C1665 C1681 1.435 . S
C1665 H1687 0.950 1_556 S
C1666 H1662 0.949 . S
C1666 C1674 1.574 1_565 S
C1666 C1682 1.362 1_455 S
H1667 C1675 0.950 1_554 S
H1668 C1673 0.950 1_554 S
H1669 C1674 0.949 . S
H1670 C1676 0.950 . S
H1671 C1677 0.950 . S
H1672 C1678 0.949 1_554 S
C1673 H1668 0.950 1_556 S
C1673 C1675 1.327 . S
C1673 C1679 1.434 . S
C1674 C1666 1.574 1_545 S
C1674 H1669 0.949 . S
C1674 C1680 1.362 1_455 S
C1675 C1659 1.355 . S
C1675 H1667 0.950 1_556 S
C1675 C1673 1.327 . S
C1676 C1664 1.343 1_455 S
C1676 H1670 0.950 . S
C1676 C1677 1.327 . S
C1677 H1671 0.950 . S
C1677 C1676 1.327 . S
C1677 C1681 1.423 1_455 S
C1678 C1661 1.574 1_565 S
C1678 H1672 0.949 1_556 S
C1678 C1682 1.375 . S
C1679 C1660 1.422 1_655 S
C1679 C1673 1.434 . S
C1679 C1680 1.523 . S
C1680 C1661 1.375 . S
C1680 C1674 1.362 1_655 S
C1680 C1679 1.523 . S
C1681 C1665 1.435 . S
C1681 C1677 1.423 1_655 S
C1681 C1682 1.523 . S
C1682 C1666 1.362 1_655 S
C1682 C1678 1.375 . S
C1682 C1681 1.523 . S
H1683 C1658 0.950 . S
H1684 C1660 0.950 . S
H1685 C1661 0.949 1_554 S
H1686 C1663 0.950 1_554 S
H1687 C1665 0.950 1_554 S
C1688 C1689 1.349 . S
C1688 C1690 1.393 . S
C1688 H1713 0.950 . S
C1689 C1688 1.349 . S
C1689 C1705 1.351 . S
C1690 C1688 1.393 . S
C1690 C1709 1.393 1_455 S
C1690 H1714 0.921 1_455 S
C1691 C1708 1.574 . S
C1691 C1710 1.371 . S
C1691 H1715 0.947 . S
H1692 C1696 0.949 . S
C1693 C1694 1.352 . S
C1693 C1695 1.327 . S
C1693 H1716 0.949 . S
C1694 C1693 1.352 . S
C1694 C1706 1.349 . S
C1695 C1693 1.327 . S
C1695 C1711 1.431 . S
C1695 H1717 0.948 . S
C1696 H1692 0.949 . S
C1696 C1704 1.574 . S
C1696 C1712 1.368 . S
H1697 C1705 0.948 . S
H1698 C1703 0.955 . S
H1699 C1704 0.949 . S
H1700 C1706 0.950 . S
H1701 C1707 0.950 . S
H1702 C1708 0.948 . S
C1703 H1698 0.955 . S
C1703 C1705 1.313 1_655 S
C1703 C1709 1.439 . S
C1704 C1696 1.574 . S
C1704 H1699 0.949 . S
C1704 C1710 1.368 . S
C1705 C1689 1.351 . S
C1705 H1697 0.948 . S
C1705 C1703 1.313 1_455 S
C1706 C1694 1.349 . S
C1706 H1700 0.950 . S
C1706 C1707 1.327 . S
C1707 H1701 0.950 . S
C1707 C1706 1.327 . S
C1707 C1711 1.429 . S
C1708 C1691 1.574 . S
C1708 H1702 0.948 . S
C1708 C1712 1.371 . S
C1709 C1690 1.393 1_655 S
C1709 C1703 1.439 . S
C1709 C1710 1.523 . S
C1710 C1691 1.371 . S
C1710 C1704 1.368 . S
C1710 C1709 1.523 . S
C1711 C1695 1.431 . S
C1711 C1707 1.429 . S
C1711 C1712 1.523 . S
C1712 C1696 1.368 . S
C1712 C1708 1.371 . S
C1712 C1711 1.523 . S
H1713 C1688 0.950 . S
H1714 C1690 0.921 1_655 S
H1715 C1691 0.947 . S
H1716 C1693 0.949 . S
H1717 C1695 0.948 . S
C1718 C1719 1.349 . S
C1718 C1720 1.327 . S
C1718 H1743 0.950 . S
C1719 C1718 1.349 . S
C1719 C1735 1.349 . S
C1720 C1718 1.327 . S
C1720 C1739 1.429 . S
C1720 H1744 0.950 . S
C1721 C1738 1.574 . S
C1721 C1740 1.368 . S
C1721 H1745 0.949 . S
H1722 C1726 0.949 . S
C1723 C1724 1.349 . S
C1723 C1725 1.327 . S
C1723 H1746 0.950 . S
C1724 C1723 1.349 . S
C1724 C1736 1.349 . S
C1725 C1723 1.327 . S
C1725 C1741 1.429 . S
C1725 H1747 0.950 . S
C1726 H1722 0.949 . S
C1726 C1734 1.574 . S
C1726 C1742 1.368 . S
H1727 C1735 0.950 . S
H1728 C1733 0.950 . S
H1729 C1734 0.949 1_565 S
H1730 C1736 0.950 . S
H1731 C1737 0.950 . S
H1732 C1738 0.949 . S
C1733 H1728 0.950 . S
C1733 C1735 1.327 . S
C1733 C1739 1.429 . S
C1734 C1726 1.574 . S
C1734 H1729 0.949 1_545 S
C1734 C1740 1.368 . S
C1735 C1719 1.349 . S
C1735 H1727 0.950 . S
C1735 C1733 1.327 . S
C1736 C1724 1.349 . S
C1736 H1730 0.950 . S
C1736 C1737 1.327 . S
C1737 H1731 0.950 . S
C1737 C1736 1.327 . S
C1737 C1741 1.429 . S
C1738 C1721 1.574 . S
C1738 H1732 0.949 . S
C1738 C1742 1.368 . S
C1739 C1720 1.429 . S
C1739 C1733 1.429 . S
C1739 C1740 1.523 1_565 S
C1740 C1721 1.368 . S
C1740 C1734 1.368 . S
C1740 C1739 1.523 1_545 S
C1741 C1725 1.429 . S
C1741 C1737 1.429 . S
C1741 C1742 1.523 . S
C1742 C1726 1.368 . S
C1742 C1738 1.368 . S
C1742 C1741 1.523 . S
H1743 C1718 0.950 . S
H1744 C1720 0.950 . S
H1745 C1721 0.949 . S
H1746 C1723 0.950 . S
H1747 C1725 0.950 . S
C1748 C1749 1.349 . S
C1748 C1750 1.327 . S
C1748 H1773 0.950 . S
C1749 C1748 1.349 . S
C1749 C1765 1.349 . S
C1750 C1748 1.327 . S
C1750 C1769 1.429 . S
C1750 H1774 0.950 . S
C1751 C1768 1.574 . S
C1751 C1770 1.368 . S
C1751 H1775 0.949 . S
H1752 C1756 0.949 . S
C1753 C1754 1.349 . S
C1753 C1755 1.327 . S
C1753 H1776 0.950 . S
C1754 C1753 1.349 . S
C1754 C1766 1.349 . S
C1755 C1753 1.327 . S
C1755 C1771 1.429 . S
C1755 H1777 0.950 . S
C1756 H1752 0.949 . S
C1756 C1764 1.574 . S
C1756 C1772 1.368 . S
H1757 C1765 0.950 . S
H1758 C1763 0.950 . S
H1759 C1764 0.949 . S
H1760 C1766 0.950 . S
H1761 C1767 0.950 . S
H1762 C1768 0.949 . S
C1763 H1758 0.950 . S
C1763 C1765 1.327 . S
C1763 C1769 1.429 . S
C1764 C1756 1.574 . S
C1764 H1759 0.949 . S
C1764 C1770 1.368 . S
C1765 C1749 1.349 . S
C1765 H1757 0.950 . S
C1765 C1763 1.327 . S
C1766 C1754 1.349 . S
C1766 H1760 0.950 . S
C1766 C1767 1.327 . S
C1767 H1761 0.950 . S
C1767 C1766 1.327 . S
C1767 C1771 1.429 . S
C1768 C1751 1.574 . S
C1768 H1762 0.949 . S
C1768 C1772 1.368 . S
C1769 C1750 1.429 . S
C1769 C1763 1.429 . S
C1769 C1770 1.523 . S
C1770 C1751 1.368 . S
C1770 C1764 1.368 . S
C1770 C1769 1.523 . S
C1771 C1755 1.429 . S
C1771 C1767 1.429 . S
C1771 C1772 1.523 . S
C1772 C1756 1.368 . S
C1772 C1768 1.368 . S
C1772 C1771 1.523 . S
H1773 C1748 0.950 . S
H1774 C1750 0.950 . S
H1775 C1751 0.949 . S
H1776 C1753 0.950 . S
H1777 C1755 0.950 . S
C1778 C1779 1.372 . S
C1778 C1780 1.327 . S
C1778 H1803 0.950 . S
C1779 C1778 1.372 . S
C1779 C1795 1.327 1_655 S
C1780 C1778 1.327 . S
C1780 C1799 1.437 . S
C1780 H1804 0.950 . S
C1781 C1798 1.574 . S
C1781 C1800 1.367 1_455 S
C1781 H1805 0.949 . S
H1782 C1786 0.949 . S
C1783 C1784 1.374 . S
C1783 C1785 1.327 . S
C1783 H1806 0.950 . S
C1784 C1783 1.374 . S
C1784 C1796 1.325 1_455 S
C1785 C1783 1.327 . S
C1785 C1801 1.439 . S
C1785 H1807 0.950 . S
C1786 H1782 0.949 . S
C1786 C1794 1.574 . S
C1786 C1802 1.365 1_655 S
H1787 C1795 0.950 . S
H1788 C1793 0.950 . S
H1789 C1794 0.949 . S
H1790 C1796 0.950 . S
H1791 C1797 0.950 . S
H1792 C1798 0.949 . S
C1793 H1788 0.950 . S
C1793 C1795 1.327 . S
C1793 C1799 1.420 1_455 S
C1794 C1786 1.574 . S
C1794 H1789 0.949 . S
C1794 C1800 1.370 . S
C1795 C1779 1.327 1_455 S
C1795 H1787 0.950 . S
C1795 C1793 1.327 . S
C1796 C1784 1.325 1_655 S
C1796 H1790 0.950 . S
C1796 C1797 1.327 . S
C1797 H1791 0.950 . S
C1797 C1796 1.327 . S
C1797 C1801 1.418 1_655 S
C1798 C1781 1.574 . S
C1798 H1792 0.949 . S
C1798 C1802 1.372 . S
C1799 C1780 1.437 . S
C1799 C1793 1.420 1_655 S
C1799 C1800 1.523 . S
C1800 C1781 1.367 1_655 S
C1800 C1794 1.370 . S
C1800 C1799 1.523 . S
C1801 C1785 1.439 . S
C1801 C1797 1.418 1_455 S
C1801 C1802 1.523 . S
C1802 C1786 1.365 1_455 S
C1802 C1798 1.372 . S
C1802 C1801 1.523 . S
H1803 C1778 0.950 . S
H1804 C1780 0.950 . S
H1805 C1781 0.949 . S
H1806 C1783 0.950 . S
H1807 C1785 0.950 . S
C849 C303 0.600 . S
C854 C29 0.603 . S
C879 C347 1.028 . S
C884 C91 1.041 . S
C909 C135 0.586 . S
C914 C409 0.534 . S
C939 C197 0.066 . S
C944 C241 0.415 . S
C969 C453 0.675 . S
C974 C718 0.682 . S
C999 C771 1.148 . S
C1004 C506 1.142 . S
C1029 C824 0.810 . S
C1034 C559 0.802 . S
C1059 C612 0.405 . S
C1064 C665 0.305 . S
C1089 C22 2.314 . S
C1094 C675 2.347 1_565 S
C1119 C728 2.430 . S
C1124 C92 2.410 . S
C1149 C128 2.832 . S
C1154 C781 2.897 . S
C1179 C198 2.181 . S
C1184 C834 2.186 1_655 S
C1209 C234 2.459 . S
C1214 C463 2.500 1_545 S
C1239 C304 2.748 . S
C1244 C516 2.787 . S
C1269 C340 2.577 . S
C1274 C569 2.614 . S
C1299 C410 1.896 . S
C1304 C622 1.887 1_455 S
C1329 C251 1.523 . S
C1334 C446 1.533 . S
C1359 C287 2.215 . S
C1364 C499 2.201 1_554 S
C1389 C357 2.465 . S
C1394 C552 2.414 . S
C1419 C605 2.061 1_554 S
C1424 C393 2.088 1_455 S
C1449 C39 1.856 1_565 S
C1454 C658 1.850 . S
C1479 C711 2.442 . S
C1484 C75 2.486 . S
C1509 C764 2.021 . S
C1514 C145 2.038 . S
C1539 C181 1.932 1_655 S
C1544 C817 1.920 . S
C1569 C462 1.459 . S
C1574 C38 1.474 . S
C1599 C515 1.992 . S
C1604 C82 1.959 . S
C1629 C144 2.528 . S
C1634 C568 2.499 1_554 S
C1659 C621 1.978 1_655 S
C1664 C188 1.961 1_655 S
C1689 C250 1.997 . S
C1694 C674 1.971 . S
C1719 C727 2.555 . S
C1724 C294 2.514 . S
C1749 C780 1.885 . S
C1754 C356 1.902 . S
C1779 C833 1.482 . S
C1784 C400 1.468 . S
