# Generated by pormake.
# Topology wio, (6)-cn, num edge types: 1
# Building blocks:
#     Node 0, Type 0, BuildingBlock: BETGAK_clean_sbu_0, # of connection points: 6
#     Node 1, Type 0, BuildingBlock: BETGAK_clean_sbu_0, # of connection points: 6
#     Node 2, Type 0, BuildingBlock: BETGAK_clean_sbu_0, # of connection points: 6
#     Node 3, Type 0, BuildingBlock: BETGAK_clean_sbu_0, # of connection points: 6
#     Node 4, Type 0, BuildingBlock: BETGAK_clean_sbu_0, # of connection points: 6
#     Node 5, Type 0, BuildingBlock: BETGAK_clean_sbu_0, # of connection points: 6
#     Node 6, Type 0, BuildingBlock: BETGAK_clean_sbu_0, # of connection points: 6
#     Node 7, Type 0, BuildingBlock: BETGAK_clean_sbu_0, # of connection points: 6
#     Node 8, Type 0, BuildingBlock: BETGAK_clean_sbu_0, # of connection points: 6
#     Node 9, Type 0, BuildingBlock: BETGAK_clean_sbu_0, # of connection points: 6
#     Node 10, Type 0, BuildingBlock: BETGAK_clean_sbu_0, # of connection points: 6
#     Node 11, Type 0, BuildingBlock: BETGAK_clean_sbu_0, # of connection points: 6
#     Node 12, Type 0, BuildingBlock: BETGAK_clean_sbu_0, # of connection points: 6
#     Node 13, Type 0, BuildingBlock: BETGAK_clean_sbu_0, # of connection points: 6
#     Node 14, Type 0, BuildingBlock: BETGAK_clean_sbu_0, # of connection points: 6
#     Node 15, Type 0, BuildingBlock: BETGAK_clean_sbu_0, # of connection points: 6
#     Node 16, Type 0, BuildingBlock: BETGAK_clean_sbu_0, # of connection points: 6
#     Node 17, Type 0, BuildingBlock: BETGAK_clean_sbu_0, # of connection points: 6
#     Node 18, Type 0, BuildingBlock: BETGAK_clean_sbu_0, # of connection points: 6
#     Node 19, Type 0, BuildingBlock: BETGAK_clean_sbu_0, # of connection points: 6
#     Node 20, Type 0, BuildingBlock: BETGAK_clean_sbu_0, # of connection points: 6
#     Node 21, Type 0, BuildingBlock: BETGAK_clean_sbu_0, # of connection points: 6
#     Node 22, Type 0, BuildingBlock: BETGAK_clean_sbu_0, # of connection points: 6
#     Node 23, Type 0, BuildingBlock: BETGAK_clean_sbu_0, # of connection points: 6
#     Node 24, Type 0, BuildingBlock: BETGAK_clean_sbu_0, # of connection points: 6
#     Node 25, Type 0, BuildingBlock: BETGAK_clean_sbu_0, # of connection points: 6
#     Node 26, Type 0, BuildingBlock: BETGAK_clean_sbu_0, # of connection points: 6
#     Node 27, Type 0, BuildingBlock: BETGAK_clean_sbu_0, # of connection points: 6
#     Node 28, Type 0, BuildingBlock: BETGAK_clean_sbu_0, # of connection points: 6
#     Node 29, Type 0, BuildingBlock: BETGAK_clean_sbu_0, # of connection points: 6
#     Node 30, Type 0, BuildingBlock: BETGAK_clean_sbu_0, # of connection points: 6
#     Node 31, Type 0, BuildingBlock: BETGAK_clean_sbu_0, # of connection points: 6
#     Edge 32, Type (0, 0), BuildingBlock: XIVTED_clean_linker_0, # of connection points: 2
#     Edge 33, Type (0, 0), BuildingBlock: XIVTED_clean_linker_0, # of connection points: 2
#     Edge 34, Type (0, 0), BuildingBlock: XIVTED_clean_linker_0, # of connection points: 2
#     Edge 35, Type (0, 0), BuildingBlock: XIVTED_clean_linker_0, # of connection points: 2
#     Edge 36, Type (0, 0), BuildingBlock: XIVTED_clean_linker_0, # of connection points: 2
#     Edge 37, Type (0, 0), BuildingBlock: XIVTED_clean_linker_0, # of connection points: 2
#     Edge 38, Type (0, 0), BuildingBlock: XIVTED_clean_linker_0, # of connection points: 2
#     Edge 39, Type (0, 0), BuildingBlock: XIVTED_clean_linker_0, # of connection points: 2
#     Edge 40, Type (0, 0), BuildingBlock: XIVTED_clean_linker_0, # of connection points: 2
#     Edge 41, Type (0, 0), BuildingBlock: XIVTED_clean_linker_0, # of connection points: 2
#     Edge 42, Type (0, 0), BuildingBlock: XIVTED_clean_linker_0, # of connection points: 2
#     Edge 43, Type (0, 0), BuildingBlock: XIVTED_clean_linker_0, # of connection points: 2
#     Edge 44, Type (0, 0), BuildingBlock: XIVTED_clean_linker_0, # of connection points: 2
#     Edge 45, Type (0, 0), BuildingBlock: XIVTED_clean_linker_0, # of connection points: 2
#     Edge 46, Type (0, 0), BuildingBlock: XIVTED_clean_linker_0, # of connection points: 2
#     Edge 47, Type (0, 0), BuildingBlock: XIVTED_clean_linker_0, # of connection points: 2
#     Edge 48, Type (0, 0), BuildingBlock: XIVTED_clean_linker_0, # of connection points: 2
#     Edge 49, Type (0, 0), BuildingBlock: XIVTED_clean_linker_0, # of connection points: 2
#     Edge 50, Type (0, 0), BuildingBlock: XIVTED_clean_linker_0, # of connection points: 2
#     Edge 51, Type (0, 0), BuildingBlock: XIVTED_clean_linker_0, # of connection points: 2
#     Edge 52, Type (0, 0), BuildingBlock: XIVTED_clean_linker_0, # of connection points: 2
#     Edge 53, Type (0, 0), BuildingBlock: XIVTED_clean_linker_0, # of connection points: 2
#     Edge 54, Type (0, 0), BuildingBlock: XIVTED_clean_linker_0, # of connection points: 2
#     Edge 55, Type (0, 0), BuildingBlock: XIVTED_clean_linker_0, # of connection points: 2
#     Edge 56, Type (0, 0), BuildingBlock: XIVTED_clean_linker_0, # of connection points: 2
#     Edge 57, Type (0, 0), BuildingBlock: XIVTED_clean_linker_0, # of connection points: 2
#     Edge 58, Type (0, 0), BuildingBlock: XIVTED_clean_linker_0, # of connection points: 2
#     Edge 59, Type (0, 0), BuildingBlock: XIVTED_clean_linker_0, # of connection points: 2
#     Edge 60, Type (0, 0), BuildingBlock: XIVTED_clean_linker_0, # of connection points: 2
#     Edge 61, Type (0, 0), BuildingBlock: XIVTED_clean_linker_0, # of connection points: 2
#     Edge 62, Type (0, 0), BuildingBlock: XIVTED_clean_linker_0, # of connection points: 2
#     Edge 63, Type (0, 0), BuildingBlock: XIVTED_clean_linker_0, # of connection points: 2
#     Edge 64, Type (0, 0), BuildingBlock: XIVTED_clean_linker_0, # of connection points: 2
#     Edge 65, Type (0, 0), BuildingBlock: XIVTED_clean_linker_0, # of connection points: 2
#     Edge 66, Type (0, 0), BuildingBlock: XIVTED_clean_linker_0, # of connection points: 2
#     Edge 67, Type (0, 0), BuildingBlock: XIVTED_clean_linker_0, # of connection points: 2
#     Edge 68, Type (0, 0), BuildingBlock: XIVTED_clean_linker_0, # of connection points: 2
#     Edge 69, Type (0, 0), BuildingBlock: XIVTED_clean_linker_0, # of connection points: 2
#     Edge 70, Type (0, 0), BuildingBlock: XIVTED_clean_linker_0, # of connection points: 2
#     Edge 71, Type (0, 0), BuildingBlock: XIVTED_clean_linker_0, # of connection points: 2
#     Edge 72, Type (0, 0), BuildingBlock: XIVTED_clean_linker_0, # of connection points: 2
#     Edge 73, Type (0, 0), BuildingBlock: XIVTED_clean_linker_0, # of connection points: 2
#     Edge 74, Type (0, 0), BuildingBlock: XIVTED_clean_linker_0, # of connection points: 2
#     Edge 75, Type (0, 0), BuildingBlock: XIVTED_clean_linker_0, # of connection points: 2
#     Edge 76, Type (0, 0), BuildingBlock: XIVTED_clean_linker_0, # of connection points: 2
#     Edge 77, Type (0, 0), BuildingBlock: XIVTED_clean_linker_0, # of connection points: 2
#     Edge 78, Type (0, 0), BuildingBlock: XIVTED_clean_linker_0, # of connection points: 2
#     Edge 79, Type (0, 0), BuildingBlock: XIVTED_clean_linker_0, # of connection points: 2
#     Edge 80, Type (0, 0), BuildingBlock: XIVTED_clean_linker_0, # of connection points: 2
#     Edge 81, Type (0, 0), BuildingBlock: XIVTED_clean_linker_0, # of connection points: 2
#     Edge 82, Type (0, 0), BuildingBlock: XIVTED_clean_linker_0, # of connection points: 2
#     Edge 83, Type (0, 0), BuildingBlock: XIVTED_clean_linker_0, # of connection points: 2
#     Edge 84, Type (0, 0), BuildingBlock: XIVTED_clean_linker_0, # of connection points: 2
#     Edge 85, Type (0, 0), BuildingBlock: XIVTED_clean_linker_0, # of connection points: 2
#     Edge 86, Type (0, 0), BuildingBlock: XIVTED_clean_linker_0, # of connection points: 2
#     Edge 87, Type (0, 0), BuildingBlock: XIVTED_clean_linker_0, # of connection points: 2
#     Edge 88, Type (0, 0), BuildingBlock: XIVTED_clean_linker_0, # of connection points: 2
#     Edge 89, Type (0, 0), BuildingBlock: XIVTED_clean_linker_0, # of connection points: 2
#     Edge 90, Type (0, 0), BuildingBlock: XIVTED_clean_linker_0, # of connection points: 2
#     Edge 91, Type (0, 0), BuildingBlock: XIVTED_clean_linker_0, # of connection points: 2
#     Edge 92, Type (0, 0), BuildingBlock: XIVTED_clean_linker_0, # of connection points: 2
#     Edge 93, Type (0, 0), BuildingBlock: XIVTED_clean_linker_0, # of connection points: 2
#     Edge 94, Type (0, 0), BuildingBlock: XIVTED_clean_linker_0, # of connection points: 2
#     Edge 95, Type (0, 0), BuildingBlock: XIVTED_clean_linker_0, # of connection points: 2
#     Edge 96, Type (0, 0), BuildingBlock: XIVTED_clean_linker_0, # of connection points: 2
#     Edge 97, Type (0, 0), BuildingBlock: XIVTED_clean_linker_0, # of connection points: 2
#     Edge 98, Type (0, 0), BuildingBlock: XIVTED_clean_linker_0, # of connection points: 2
#     Edge 99, Type (0, 0), BuildingBlock: XIVTED_clean_linker_0, # of connection points: 2
#     Edge 100, Type (0, 0), BuildingBlock: XIVTED_clean_linker_0, # of connection points: 2
#     Edge 101, Type (0, 0), BuildingBlock: XIVTED_clean_linker_0, # of connection points: 2
#     Edge 102, Type (0, 0), BuildingBlock: XIVTED_clean_linker_0, # of connection points: 2
#     Edge 103, Type (0, 0), BuildingBlock: XIVTED_clean_linker_0, # of connection points: 2
#     Edge 104, Type (0, 0), BuildingBlock: XIVTED_clean_linker_0, # of connection points: 2
#     Edge 105, Type (0, 0), BuildingBlock: XIVTED_clean_linker_0, # of connection points: 2
#     Edge 106, Type (0, 0), BuildingBlock: XIVTED_clean_linker_0, # of connection points: 2
#     Edge 107, Type (0, 0), BuildingBlock: XIVTED_clean_linker_0, # of connection points: 2
#     Edge 108, Type (0, 0), BuildingBlock: XIVTED_clean_linker_0, # of connection points: 2
#     Edge 109, Type (0, 0), BuildingBlock: XIVTED_clean_linker_0, # of connection points: 2
#     Edge 110, Type (0, 0), BuildingBlock: XIVTED_clean_linker_0, # of connection points: 2
#     Edge 111, Type (0, 0), BuildingBlock: XIVTED_clean_linker_0, # of connection points: 2
#     Edge 112, Type (0, 0), BuildingBlock: XIVTED_clean_linker_0, # of connection points: 2
#     Edge 113, Type (0, 0), BuildingBlock: XIVTED_clean_linker_0, # of connection points: 2
#     Edge 114, Type (0, 0), BuildingBlock: XIVTED_clean_linker_0, # of connection points: 2
#     Edge 115, Type (0, 0), BuildingBlock: XIVTED_clean_linker_0, # of connection points: 2
#     Edge 116, Type (0, 0), BuildingBlock: XIVTED_clean_linker_0, # of connection points: 2
#     Edge 117, Type (0, 0), BuildingBlock: XIVTED_clean_linker_0, # of connection points: 2
#     Edge 118, Type (0, 0), BuildingBlock: XIVTED_clean_linker_0, # of connection points: 2
#     Edge 119, Type (0, 0), BuildingBlock: XIVTED_clean_linker_0, # of connection points: 2
#     Edge 120, Type (0, 0), BuildingBlock: XIVTED_clean_linker_0, # of connection points: 2
#     Edge 121, Type (0, 0), BuildingBlock: XIVTED_clean_linker_0, # of connection points: 2
#     Edge 122, Type (0, 0), BuildingBlock: XIVTED_clean_linker_0, # of connection points: 2
#     Edge 123, Type (0, 0), BuildingBlock: XIVTED_clean_linker_0, # of connection points: 2
#     Edge 124, Type (0, 0), BuildingBlock: XIVTED_clean_linker_0, # of connection points: 2
#     Edge 125, Type (0, 0), BuildingBlock: XIVTED_clean_linker_0, # of connection points: 2
#     Edge 126, Type (0, 0), BuildingBlock: XIVTED_clean_linker_0, # of connection points: 2
#     Edge 127, Type (0, 0), BuildingBlock: XIVTED_clean_linker_0, # of connection points: 2
# Relax obj value: 0.201
# Max RMSD: 0.236
# Mean RMSD: 0.236
data_MOF--net-wio--node1-BETGAK_clean_sbu_0--edge1-XIVTED_clean_linker_0
_symmetry_space_group_name_H-M    P1
_symmetry_Int_Tables_number       1
_symmetry_cell_setting            triclinic
loop_
_symmetry_equiv_pos_as_xyz
'x, y, z'
_cell_length_a     62.245954
_cell_length_b     62.248741
_cell_length_c     54.105874
_cell_angle_alpha  89.990647
_cell_angle_beta   89.98644
_cell_angle_gamma 90.101641
loop_
_atom_site_label
_atom_site_type_symbol
_atom_site_fract_x
_atom_site_fract_y
_atom_site_fract_z
_atom_type_partial_charge
La0 La 0.15683 0.11773 0.29839 0.0
La1 La 0.11069 0.12866 0.30973 0.0
C2 C 0.19188 0.10421 0.28068 0.0
C3 C 0.20808 0.11037 0.26182 0.0
C4 C 0.22599 0.12297 0.26839 0.0
C5 C 0.24234 0.12713 0.25129 0.0
C6 C 0.2413 0.11861 0.22727 0.0
C7 C 0.22316 0.10641 0.22053 0.0
C8 C 0.20678 0.10229 0.23761 0.0
C9 C 0.15124 0.15553 0.31949 0.0
C10 C 0.12679 0.136 0.25546 0.0
C11 C 0.07748 0.14493 0.32927 0.0
C12 C 0.06161 0.14121 0.34944 0.0
C13 C 0.04089 0.13379 0.3436 0.0
C14 C 0.02511 0.13186 0.3619 0.0
C15 C 0.0295 0.13741 0.38663 0.0
C16 C 0.05026 0.14485 0.39251 0.0
C17 C 0.06611 0.14674 0.37415 0.0
C18 C 0.11652 0.08946 0.29134 0.0
C19 C 0.1396 0.104 0.35033 0.0
O20 O 0.19044 0.11643 0.30025 0.0
O21 O 0.17295 0.09789 0.27294 0.0
O22 O 0.168 0.14359 0.32197 0.0
O23 O 0.139 0.14724 0.30342 0.0
O24 O 0.14439 0.1256 0.26192 0.0
O25 O 0.11229 0.14208 0.27203 0.0
O26 O 0.07704 0.13179 0.31038 0.0
O27 O 0.09717 0.15008 0.33544 0.0
O28 O 0.09903 0.10058 0.28894 0.0
O29 O 0.12864 0.09961 0.30574 0.0
O30 O 0.12209 0.1156 0.34573 0.0
O31 O 0.15387 0.10007 0.33277 0.0
H32 H 0.22767 0.1292 0.28698 0.0
H33 H 0.25618 0.13637 0.25718 0.0
H34 H 0.22172 0.09982 0.20208 0.0
H35 H 0.19331 0.0924 0.23196 0.0
H36 H 0.0367 0.12984 0.3247 0.0
H37 H 1.00924 0.12647 0.3565 0.0
H38 H 0.05431 0.14913 0.41134 0.0
H39 H 0.08181 0.1528 0.3793 0.0
La40 La 0.15318 0.90616 0.54766 0.0
La41 La 0.13999 0.86009 0.55697 0.0
C42 C 0.16993 0.94059 0.53211 0.0
C43 C 0.16585 0.95791 0.51429 0.0
C44 C 0.14877 0.95695 0.49738 0.0
C45 C 0.14515 0.97405 0.48102 0.0
C46 C 0.15859 0.9923 0.48134 0.0
C47 C 0.17553 0.9931 0.49853 0.0
C48 C 0.1791 0.97608 0.51479 0.0
C49 C 0.11518 0.90165 0.56851 0.0
C50 C 0.13312 0.87858 0.50327 0.0
C51 C 0.12184 0.82733 0.57538 0.0
C52 C 0.12465 0.81235 0.59632 0.0
C53 C 0.14444 0.81022 0.60849 0.0
C54 C 0.14691 0.79512 0.62753 0.0
C55 C 0.12962 0.78189 0.63486 0.0
C56 C 0.10967 0.78457 0.62301 0.0
C57 C 0.10725 0.79962 0.60395 0.0
C58 C 0.17945 0.86491 0.53911 0.0
C59 C 0.16557 0.8867 0.59902 0.0
O60 O 0.15675 0.93953 0.55087 0.0
O61 O 0.17439 0.92158 0.52312 0.0
O62 O 0.1278 0.91791 0.57151 0.0
O63 O 0.12293 0.8895 0.552 0.0
O64 O 0.14354 0.89589 0.51086 0.0
O65 O 0.12738 0.86311 0.51893 0.0
O66 O 0.13624 0.82654 0.55778 0.0
O67 O 0.11674 0.84711 0.58096 0.0
O68 O 0.16761 0.84797 0.53577 0.0
O69 O 0.16973 0.87694 0.55396 0.0
O70 O 0.15342 0.86971 0.59355 0.0
O71 O 0.17015 0.90137 0.58214 0.0
H72 H 0.13831 0.94303 0.49684 0.0
H73 H 0.1321 0.97284 0.46787 0.0
H74 H 0.18596 1.00701 0.4996 0.0
H75 H 0.19223 0.97716 0.5279 0.0
H76 H 0.15804 0.82003 0.60306 0.0
H77 H 0.16242 0.79375 0.63645 0.0
H78 H 0.09607 0.77457 0.62791 0.0
H79 H 0.09182 0.80105 0.59484 0.0
La80 La 0.36426 0.90101 0.79885 0.0
La81 La 0.41063 0.89068 0.80895 0.0
C82 C 0.32868 0.91395 0.782 0.0
C83 C 0.31255 0.90803 0.76297 0.0
C84 C 0.29522 0.8944 0.76892 0.0
C85 C 0.27877 0.89057 0.75184 0.0
C86 C 0.27913 0.90045 0.7285 0.0
C87 C 0.29674 0.91362 0.72231 0.0
C88 C 0.31322 0.9174 0.73935 0.0
C89 C 0.37071 0.86336 0.81995 0.0
C90 C 0.39377 0.88323 0.75507 0.0
C91 C 0.44432 0.87493 0.82794 0.0
C92 C 0.46009 0.87896 0.84814 0.0
C93 C 0.48 0.88856 0.84274 0.0
C94 C 0.49571 0.89093 0.86106 0.0
C95 C 0.49205 0.88365 0.88536 0.0
C96 C 0.47212 0.87401 0.89079 0.0
C97 C 0.45635 0.87167 0.87242 0.0
C98 C 0.40408 0.9298 0.79068 0.0
C99 C 0.38219 0.91501 0.85029 0.0
O100 O 0.33064 0.90102 0.8009 0.0
O101 O 0.34734 0.9212 0.77448 0.0
O102 O 0.35399 0.87524 0.8231 0.0
O103 O 0.38248 0.87167 0.80341 0.0
O104 O 0.3761 0.89325 0.76206 0.0
O105 O 0.4087 0.87738 0.77124 0.0
O106 O 0.44433 0.88824 0.8092 0.0
O107 O 0.42479 0.86923 0.83416 0.0
O108 O 0.42152 0.91872 0.78764 0.0
O109 O 0.39233 0.91959 0.80546 0.0
O110 O 0.39984 0.90381 0.84517 0.0
O111 O 0.36741 0.91858 0.83322 0.0
H112 H 0.29403 0.88713 0.78706 0.0
H113 H 0.26535 0.88054 0.75729 0.0
H114 H 0.29764 0.92126 0.70436 0.0
H115 H 0.32622 0.92809 0.7342 0.0
H116 H 0.48365 0.89392 0.82415 0.0
H117 H 0.51097 0.89804 0.85597 0.0
H118 H 0.46864 0.86836 0.9093 0.0
H119 H 0.44133 0.86391 0.8772 0.0
La120 La 0.36914 0.11578 0.04516 0.0
La121 La 0.38029 0.1619 0.05735 0.0
C122 C 0.35331 0.08155 1.028 0.0
C123 C 0.35792 0.06408 1.01056 0.0
C124 C 0.37492 0.06519 0.99355 0.0
C125 C 0.37895 0.04788 0.97761 0.0
C126 C 0.36603 0.02927 0.97849 0.0
C127 C 0.34922 0.02831 0.99585 0.0
C128 C 0.34522 0.04554 1.01165 0.0
C129 C 0.40627 0.12088 0.06775 0.0
C130 C 0.39025 0.14536 1.00331 0.0
C131 C 0.39746 0.19455 0.07714 0.0
C132 C 0.39495 0.20895 0.09865 0.0
C133 C 0.37498 0.21207 0.11014 0.0
C134 C 0.37288 0.22702 0.12939 0.0
C135 C 0.39072 0.23909 0.13758 0.0
C136 C 0.41081 0.23531 0.12649 0.0
C137 C 0.41287 0.22043 0.10723 0.0
C138 C 0.34158 0.15648 0.03758 0.0
C139 C 0.3546 0.13323 0.09703 0.0
O140 O 0.36551 0.08239 0.04763 0.0
O141 O 0.34948 0.10063 1.01877 0.0
O142 O 0.39425 0.104 0.0695 0.0
O143 O 0.3985 0.13332 0.05157 0.0
O144 O 0.38104 0.12691 1.00933 0.0
O145 O 0.39351 0.16093 1.01968 0.0
O146 O 0.38266 0.19549 0.06001 0.0
O147 O 0.40328 0.17478 0.08175 0.0
O148 O 0.35297 0.1739 1.03566 0.0
O149 O 0.35129 0.14415 0.05214 0.0
O150 O 0.36641 0.15071 0.09295 0.0
O151 O 0.35101 0.11908 0.07925 0.0
H152 H 0.38498 0.07939 0.9926 0.0
H153 H 0.39192 0.0492 0.96435 0.0
H154 H 0.33921 0.01413 0.99739 0.0
H155 H 0.33218 0.04433 1.02487 0.0
H156 H 0.36096 0.20323 0.10396 0.0
H157 H 0.35723 0.22925 0.13773 0.0
H158 H 0.42484 0.24441 0.13206 0.0
H159 H 0.42843 0.21823 0.09862 0.0
La160 La 0.15609 0.90013 0.27375 0.0
La161 La 0.10958 0.89017 0.26478 0.0
C162 C 0.19198 0.9126 0.29019 0.0
C163 C 0.20782 0.90684 0.30953 0.0
C164 C 0.22747 0.89746 0.30264 0.0
C165 C 0.24346 0.89359 0.32023 0.0
C166 C 0.24027 0.89926 0.34508 0.0
C167 C 0.22041 0.90816 0.3521 0.0
C168 C 0.20434 0.9119 0.33453 0.0
C169 C 0.14909 0.86404 0.24972 0.0
C170 C 0.12814 0.87944 0.31746 0.0
C171 C 0.0755 0.87501 0.24592 0.0
C172 C 0.06017 0.87884 0.22525 0.0
C173 C 0.03971 0.88723 0.23036 0.0
C174 C 0.02438 0.88945 0.21161 0.0
C175 C 0.02899 0.88322 0.18716 0.0
C176 C 0.04947 0.87477 0.18201 0.0
C177 C 0.06488 0.87259 0.20081 0.0
C178 C 0.11665 0.92829 0.28537 0.0
C179 C 0.13703 0.91637 0.22385 0.0
O180 O 0.18974 0.899 0.27197 0.0
O181 O 0.17354 0.92068 0.29721 0.0
O182 O 0.16545 0.8765 0.24652 0.0
O183 O 0.13789 0.87098 0.2676 0.0
O184 O 0.14593 0.88912 0.3101 0.0
O185 O 0.112 0.87574 0.30195 0.0
O186 O 0.07578 0.88901 0.26395 0.0
O187 O 0.09485 0.86835 0.2404 0.0
O188 O 0.09944 0.91684 0.28864 0.0
O189 O 0.12792 0.91894 0.26941 0.0
O190 O 0.1194 0.90504 0.22899 0.0
O191 O 0.15232 0.91907 0.24053 0.0
H192 H 0.2307 0.8936 0.28347 0.0
H193 H 0.25865 0.88695 0.31418 0.0
H194 H 0.21738 0.91248 0.37118 0.0
H195 H 0.18941 0.91915 0.3405 0.0
H196 H 0.03538 0.89176 0.24904 0.0
H197 H 1.00869 0.89565 0.21646 0.0
H198 H 0.05367 0.86994 0.16339 0.0
H199 H 0.08038 0.8658 0.19622 0.0
La200 La 0.36731 0.90628 0.52701 0.0
La201 La 0.37957 0.86001 0.51645 0.0
C202 C 0.35107 0.94041 0.54386 0.0
C203 C 0.3553 0.9572 0.56232 0.0
C204 C 0.37427 0.95755 0.57633 0.0
C205 C 0.37795 0.97417 0.59334 0.0
C206 C 0.36269 0.99063 0.59655 0.0
C207 C 0.34382 0.99014 0.58224 0.0
C208 C 0.34017 0.97358 0.56536 0.0
C209 C 0.40455 0.90152 0.50476 0.0
C210 C 0.38914 0.87822 0.56985 0.0
C211 C 0.39717 0.82741 0.49711 0.0
C212 C 0.39456 0.81262 0.47592 0.0
C213 C 0.37446 0.80886 0.46496 0.0
C214 C 0.37236 0.79375 0.44586 0.0
C215 C 0.39031 0.78212 0.43725 0.0
C216 C 0.4105 0.7865 0.44784 0.0
C217 C 0.41257 0.80154 0.46696 0.0
C218 C 0.34061 0.8652 0.53558 0.0
C219 C 0.35352 0.88747 0.47566 0.0
O220 O 0.36422 0.93975 0.52503 0.0
O221 O 0.34638 0.92121 0.55221 0.0
O222 O 0.39214 0.918 0.50231 0.0
O223 O 0.39704 0.88927 0.52134 0.0
O224 O 0.37895 0.89589 0.56303 0.0
O225 O 0.39318 0.86238 0.55403 0.0
O226 O 0.38271 0.82642 0.51465 0.0
O227 O 0.4025 0.84724 0.49193 0.0
O228 O 0.35211 0.84795 0.53814 0.0
O229 O 0.35033 0.87728 0.52077 0.0
O230 O 0.36558 0.87031 0.48046 0.0
O231 O 0.34959 0.90203 0.49288 0.0
H232 H 0.38618 0.94504 0.57408 0.0
H233 H 0.39256 0.97395 0.6042 0.0
H234 H 0.33189 1.00271 0.58388 0.0
H235 H 0.32554 0.97366 0.55452 0.0
H236 H 0.36037 0.81738 0.4714 0.0
H237 H 0.35661 0.79109 0.43792 0.0
H238 H 0.42464 0.77777 0.44195 0.0
H239 H 0.42824 0.80423 0.47511 0.0
La240 La 0.36627 0.11991 0.77824 0.0
La241 La 0.41257 0.12906 0.76602 0.0
C242 C 0.33146 0.10676 0.79677 0.0
C243 C 0.31512 0.11297 0.81531 0.0
C244 C 0.30199 0.13113 0.81203 0.0
C245 C 0.28493 0.13519 0.82825 0.0
C246 C 0.28062 0.12115 0.84802 0.0
C247 C 0.29431 0.10347 0.85175 0.0
C248 C 0.31128 0.09939 0.83553 0.0
C249 C 0.37269 0.15618 0.75424 0.0
C250 C 0.39648 0.14081 0.8196 0.0
C251 C 0.446 0.14404 0.74554 0.0
C252 C 0.461 0.13988 0.72466 0.0
C253 C 0.48035 0.12888 0.72886 0.0
C254 C 0.49552 0.12654 0.70998 0.0
C255 C 0.49187 0.13522 0.68632 0.0
C256 C 0.47247 0.1462 0.68206 0.0
C257 C 0.45724 0.14854 0.701 0.0
C258 C 0.40587 0.09102 0.78706 0.0
C259 C 0.38314 0.10325 0.72709 0.0
O260 O 0.33271 0.11839 0.77668 0.0
O261 O 0.35043 0.10104 0.80496 0.0
O262 O 0.3556 0.14447 0.75257 0.0
O263 O 0.38475 0.14861 0.77094 0.0
O264 O 0.37779 0.13208 0.81376 0.0
O265 O 0.41211 0.1433 0.80316 0.0
O266 O 0.44626 0.13058 0.76412 0.0
O267 O 0.42645 0.15025 0.74023 0.0
O268 O 0.42355 0.102 0.78878 0.0
O269 O 0.39392 0.1007 0.77207 0.0
O270 O 0.401 0.11453 0.73092 0.0
O271 O 0.36873 0.10072 0.74485 0.0
H272 H 0.30445 0.14189 0.79656 0.0
H273 H 0.27466 0.14887 0.82473 0.0
H274 H 0.29174 0.09257 0.86707 0.0
H275 H 0.32111 0.08526 0.83844 0.0
H276 H 0.48403 0.12243 0.74697 0.0
H277 H 0.51042 0.11835 0.71417 0.0
H278 H 0.46902 0.15297 0.66406 0.0
H279 H 0.44266 0.15741 0.69719 0.0
La280 La 0.15269 0.11538 1.02669 0.0
La281 La 0.14122 0.16192 1.01742 0.0
C282 C 0.16844 0.08065 0.04253 0.0
C283 C 0.16405 0.06361 0.06065 0.0
C284 C 0.14566 0.06384 0.07566 0.0
C285 C 0.14178 0.04697 0.0923 0.0
C286 C 0.15624 0.02965 0.09411 0.0
C287 C 0.17449 0.02954 0.07873 0.0
C288 C 0.17835 0.04636 0.06226 0.0
C289 C 0.11536 0.12103 1.00495 0.0
C290 C 0.13149 0.14296 0.07037 0.0
C291 C 0.12481 0.19546 0.99884 0.0
C292 C 0.12832 0.21123 0.97852 0.0
C293 C 0.13465 0.23231 0.98429 0.0
C294 C 0.13661 0.24791 0.96579 0.0
C295 C 0.13217 0.24295 0.94091 0.0
C296 C 0.12575 0.22185 0.93509 0.0
C297 C 0.12385 0.20617 0.95365 0.0
C298 C 0.18034 0.1557 1.03581 0.0
C299 C 0.16597 0.13469 0.97547 0.0
O300 O 0.1551 0.0819 1.02395 0.0
O301 O 0.17363 0.09961 0.05121 0.0
O302 O 0.12751 0.1044 1.00214 0.0
O303 O 0.12311 0.13294 1.02172 0.0
O304 O 0.14151 0.12532 0.06311 0.0
O305 O 0.1275 0.15904 0.05487 0.0
O306 O 0.13847 0.19564 1.01723 0.0
O307 O 0.11917 0.17588 0.99281 0.0
O308 O 0.16906 0.17297 0.03912 0.0
O309 O 0.1703 0.14409 1.02079 0.0
O310 O 0.15456 0.15209 0.98103 0.0
O311 O 0.16982 0.11964 0.99214 0.0
H312 H 0.13434 0.077 0.07447 0.0
H313 H 0.12767 0.04767 0.10398 0.0
H314 H 0.18576 0.01631 0.07923 0.0
H315 H 0.1925 0.04581 0.0506 0.0
H316 H 0.1378 0.23686 1.00328 0.0
H317 H 0.14121 0.26404 0.97112 0.0
H318 H 0.12235 0.21738 0.91614 0.0
H319 H 0.11869 0.19016 0.94852 0.0
La320 La 0.91181 0.8917 0.76629 0.0
La321 La 0.86528 0.90202 0.77613 0.0
C322 C 0.94544 0.87616 0.74693 0.0
C323 C 0.96097 0.88028 0.7265 0.0
C324 C 0.9813 0.88893 0.73184 0.0
C325 C 0.99674 0.89142 0.71325 0.0
C326 C 0.99238 0.88521 0.68872 0.0
C327 C 0.97203 0.87648 0.68334 0.0
C328 C 0.95652 0.87403 0.70199 0.0
C329 C 0.90518 0.93033 0.7857 0.0
C330 C 0.88382 0.91692 0.72529 0.0
C331 C 0.83005 0.91548 0.79318 0.0
C332 C 0.814 0.90965 0.81226 0.0
C333 C 0.79375 0.90191 0.80492 0.0
C334 C 0.77769 0.89787 0.8224 0.0
C335 C 0.78144 0.90173 0.8476 0.0
C336 C 0.80186 0.90904 0.85503 0.0
C337 C 0.81798 0.91294 0.83756 0.0
C338 C 0.87169 0.86532 0.75324 0.0
C339 C 0.89356 0.88095 0.81921 0.0
O340 O 0.94555 0.88949 0.76565 0.0
O341 O 0.9259 0.87032 0.74099 0.0
O342 O 0.92262 0.9192 0.78859 0.0
O343 O 0.89353 0.92046 0.77056 0.0
O344 O 0.90149 0.90575 0.73038 0.0
O345 O 0.86878 0.92007 0.74217 0.0
O346 O 0.83164 0.90247 0.7743 0.0
O347 O 0.84887 0.92248 0.80057 0.0
O348 O 0.85504 0.87743 0.75041 0.0
O349 O 0.88331 0.87285 0.7704 0.0
O350 O 0.87573 0.89074 0.81227 0.0
O351 O 0.90959 0.87742 0.80351 0.0
H352 H 0.98546 0.89347 0.75057 0.0
H353 H 0.01233 0.89781 0.71826 0.0
H354 H 0.96802 0.87165 0.66467 0.0
H355 H 0.94113 0.86702 0.69722 0.0
H356 H 0.79015 0.89943 0.78554 0.0
H357 H 0.76208 0.89248 0.81606 0.0
H358 H 0.8053 0.91195 0.87436 0.0
H359 H 0.83339 0.91889 0.84387 0.0
La360 La 0.87964 0.16244 0.5163 0.0
La361 La 0.86863 0.11632 0.52883 0.0
C362 C 0.89683 0.19489 0.49607 0.0
C363 C 0.89428 0.20901 0.47434 0.0
C364 C 0.87454 0.21109 0.46206 0.0
C365 C 0.87234 0.22569 0.44247 0.0
C366 C 0.88986 0.23845 0.43472 0.0
C367 C 0.90975 0.23573 0.44666 0.0
C368 C 0.9119 0.22119 0.46625 0.0
C369 C 0.84106 0.15709 0.53641 0.0
C370 C 0.85335 0.13376 0.47716 0.0
C371 C 0.85304 0.08211 0.54631 0.0
C372 C 0.85793 0.06479 0.56383 0.0
C373 C 0.87513 0.06612 0.58054 0.0
C374 C 0.87942 0.04896 0.59661 0.0
C375 C 0.86657 0.03031 0.59615 0.0
C376 C 0.84957 0.02911 0.57907 0.0
C377 C 0.8453 0.04619 0.56314 0.0
C378 C 0.90538 0.12135 0.5054 0.0
C379 C 0.88996 0.14604 0.57037 0.0
O380 O 0.88201 0.196 0.51318 0.0
O381 O 0.90266 0.17507 0.49176 0.0
O382 O 0.85236 0.17459 0.53799 0.0
O383 O 0.85074 0.14464 0.52198 0.0
O384 O 0.86522 0.15124 0.48097 0.0
O385 O 0.85004 0.11962 0.49505 0.0
O386 O 0.86506 0.08291 0.52653 0.0
O387 O 0.84919 0.10122 0.55547 0.0
O388 O 0.89331 0.1045 0.504 0.0
O389 O 0.8979 0.1338 0.52177 0.0
O390 O 0.88092 0.12749 0.56443 0.0
O391 O 0.89291 0.16166 0.55397 0.0
H392 H 0.86076 0.2017 0.46787 0.0
H393 H 0.85686 0.2271 0.43349 0.0
H394 H 0.92352 0.24539 0.44146 0.0
H395 H 0.92729 0.21979 0.47546 0.0
H396 H 0.88513 0.08036 0.58117 0.0
H397 H 0.89253 0.05046 0.60966 0.0
H398 H 0.8396 0.01488 0.57786 0.0
H399 H 0.83212 0.04482 0.55015 0.0
La400 La 0.60825 0.12967 0.26578 0.0
La401 La 0.65441 0.11865 0.27845 0.0
C402 C 0.5757 0.14649 0.24545 0.0
C403 C 0.56108 0.14341 0.2242 0.0
C404 C 0.55813 0.12324 0.2131 0.0
C405 C 0.5431 0.12065 0.19397 0.0
C406 C 0.53078 0.13818 0.18551 0.0
C407 C 0.53432 0.15846 0.19631 0.0
C408 C 0.54928 0.161 0.21543 0.0
C409 C 0.61356 0.09098 0.28554 0.0
C410 C 0.63733 0.10414 0.22639 0.0
C411 C 0.68835 0.1029 0.29635 0.0
C412 C 0.70493 0.10701 0.31511 0.0
C413 C 0.70546 0.12607 0.32897 0.0
C414 C 0.72218 0.12973 0.34588 0.0
C415 C 0.73852 0.11435 0.34916 0.0
C416 C 0.73778 0.09535 0.33509 0.0
C417 C 0.72115 0.09174 0.3183 0.0
C418 C 0.64942 0.1555 0.25539 0.0
C419 C 0.62468 0.14029 0.31968 0.0
O420 O 0.57467 0.1323 0.26326 0.0
O421 O 0.59553 0.15193 0.24041 0.0
O422 O 0.59609 0.10226 0.28727 0.0
O423 O 0.62604 0.10077 0.27121 0.0
O424 O 0.61966 0.11559 0.23046 0.0
O425 O 0.65163 0.10085 0.24409 0.0
O426 O 0.68794 0.11614 0.27759 0.0
O427 O 0.66904 0.098 0.30422 0.0
O428 O 0.6663 0.1435 0.25385 0.0
O429 O 0.63691 0.14786 0.27161 0.0
O430 O 0.64308 0.13095 0.31394 0.0
O431 O 0.60917 0.14337 0.30321 0.0
H432 H 0.56719 0.10946 0.21944 0.0
H433 H 0.54108 0.10487 0.18588 0.0
H434 H 0.52503 0.17227 0.19057 0.0
H435 H 0.55132 0.17671 0.22374 0.0
H436 H 0.69306 0.13808 0.32663 0.0
H437 H 0.72216 0.14443 0.35656 0.0
H438 H 0.75025 0.08333 0.33677 0.0
H439 H 0.72111 0.07704 0.30756 0.0
La440 La 0.6413 0.8589 1.01656 0.0
La441 La 0.65191 0.9051 1.02876 0.0
C442 C 0.62512 0.82598 0.99625 0.0
C443 C 0.62893 0.81067 0.97559 0.0
C444 C 0.63793 0.79043 0.98048 0.0
C445 C 0.64004 0.77514 0.9617 0.0
C446 C 0.63309 0.77956 0.93746 0.0
C447 C 0.62404 0.79981 0.93253 0.0
C448 C 0.62196 0.81518 0.95137 0.0
C449 C 0.67981 0.86458 0.03679 0.0
C450 C 0.66737 0.88767 0.97727 0.0
C451 C 0.66724 0.93948 0.04609 0.0
C452 C 0.66268 0.95653 0.06405 0.0
C453 C 0.64466 0.95585 0.07963 0.0
C454 C 0.64066 0.97281 0.09608 0.0
C455 C 0.65467 0.9906 0.09715 0.0
C456 C 0.67256 0.99112 0.08127 0.0
C457 C 0.67651 0.97425 0.06495 0.0
C458 C 0.61527 0.89957 1.00518 0.0
C459 C 0.63019 0.87564 0.07021 0.0
O460 O 0.63832 0.82527 1.01506 0.0
O461 O 0.61983 0.84574 0.99064 0.0
O462 O 0.66861 0.84703 0.03839 0.0
O463 O 0.67012 0.87689 1.02221 0.0
O464 O 0.65557 0.87016 0.98119 0.0
O465 O 0.67057 0.90189 0.99507 0.0
O466 O 0.65456 0.93861 1.02685 0.0
O467 O 0.67176 0.92038 0.05484 0.0
O468 O 0.62729 0.91646 1.0035 0.0
O469 O 0.62277 0.88735 1.02176 0.0
O470 O 0.63955 0.89404 0.06436 0.0
O471 O 0.62719 0.86005 0.0538 0.0
H472 H 0.64302 0.78621 0.999 0.0
H473 H 0.64669 0.7596 0.96638 0.0
H474 H 0.61864 0.80384 0.91409 0.0
H475 H 0.61464 0.83049 0.94699 0.0
H476 H 0.63375 0.94227 0.07906 0.0
H477 H 0.62685 0.97184 0.1082 0.0
H478 H 0.68346 1.0047 0.08126 0.0
H479 H 0.69037 0.97511 0.05286 0.0
La480 La 0.91185 0.12957 0.80797 0.0
La481 La 0.86569 0.12001 0.79553 0.0
C482 C 0.94483 0.14508 0.82883 0.0
C483 C 0.95983 0.1409 0.84969 0.0
C484 C 0.97821 0.12817 0.84619 0.0
C485 C 0.99336 0.12576 0.86509 0.0
C486 C 0.99065 0.13607 0.88805 0.0
C487 C 0.97221 0.14877 0.8916 0.0
C488 C 0.95703 0.15119 0.87264 0.0
C489 C 0.90578 0.09143 0.78713 0.0
C490 C 0.88247 0.1033 0.84673 0.0
C491 C 0.83092 0.10678 0.77695 0.0
C492 C 0.81468 0.11297 0.75825 0.0
C493 C 0.79863 0.12816 0.76373 0.0
C494 C 0.78188 0.13201 0.74708 0.0
C495 C 0.78071 0.12069 0.72465 0.0
C496 C 0.79714 0.10601 0.71886 0.0
C497 C 0.81386 0.10214 0.73551 0.0
C498 C 0.87188 0.1564 0.81942 0.0
C499 C 0.89589 0.14096 0.75418 0.0
O500 O 0.94548 0.13201 0.80989 0.0
O501 O 0.92512 0.15066 0.83427 0.0
O502 O 0.92339 0.10256 0.78561 0.0
O503 O 0.89349 0.10102 0.80186 0.0
O504 O 0.90035 0.11459 0.84293 0.0
O505 O 0.86804 0.10087 0.82898 0.0
O506 O 0.83212 0.11856 0.79693 0.0
O507 O 0.84993 0.10091 0.76901 0.0
O508 O 0.85489 0.14456 0.82121 0.0
O509 O 0.88391 0.14882 0.80272 0.0
O510 O 0.87725 0.13208 0.75997 0.0
O511 O 0.91143 0.14365 0.7707 0.0
H512 H 0.98118 0.12037 0.82863 0.0
H513 H 1.00752 0.11621 0.86141 0.0
H514 H 0.96948 0.15682 0.90905 0.0
H515 H 0.94323 0.16139 0.87585 0.0
H516 H 0.79861 0.13664 0.7812 0.0
H517 H 0.76941 0.14326 0.75222 0.0
H518 H 0.79692 0.09726 0.70157 0.0
H519 H 0.82588 0.09024 0.73082 0.0
La520 La 0.64083 0.16298 0.55682 0.0
La521 La 0.65236 0.11691 0.54438 0.0
C522 C 0.6235 0.19545 0.57677 0.0
C523 C 0.62598 0.21009 0.59809 0.0
C524 C 0.64582 0.21311 0.60991 0.0
C525 C 0.64784 0.22815 0.62912 0.0
C526 C 0.63004 0.24042 0.63693 0.0
C527 C 0.61009 0.23682 0.6254 0.0
C528 C 0.60812 0.22185 0.60621 0.0
C529 C 0.67979 0.15794 0.53763 0.0
C530 C 0.66603 0.13411 0.59666 0.0
C531 C 0.66853 0.08312 0.5266 0.0
C532 C 0.6645 0.06658 0.50779 0.0
C533 C 0.67976 0.05034 0.50461 0.0
C534 C 0.67618 0.03376 0.48775 0.0
C535 C 0.65723 0.03307 0.4736 0.0
C536 C 0.64187 0.04945 0.47685 0.0
C537 C 0.6455 0.06611 0.49383 0.0
C538 C 0.61521 0.12158 0.56691 0.0
C539 C 0.63079 0.14639 0.50284 0.0
O540 O 0.63807 0.19655 0.55938 0.0
O541 O 0.61806 0.17559 0.58164 0.0
O542 O 0.6684 0.17531 0.53569 0.0
O543 O 0.66994 0.14541 0.55186 0.0
O544 O 0.65443 0.15164 0.5924 0.0
O545 O 0.66974 0.11986 0.57901 0.0
O546 O 0.65526 0.08341 0.54534 0.0
O547 O 0.67328 0.10248 0.51877 0.0
O548 O 0.62732 0.10479 0.5686 0.0
O549 O 0.62293 0.13416 0.5508 0.0
O550 O 0.64023 0.12807 0.50873 0.0
O551 O 0.62748 0.16191 0.51923 0.0
H552 H 0.65979 0.20408 0.60408 0.0
H553 H 0.66339 0.23021 0.63778 0.0
H554 H 0.5961 0.24608 0.63062 0.0
H555 H 0.59265 0.21976 0.59733 0.0
H556 H 0.69442 0.05034 0.51543 0.0
H557 H 0.68819 0.02127 0.48609 0.0
H558 H 0.6272 0.04951 0.4661 0.0
H559 H 0.63349 0.07853 0.49614 0.0
La560 La 0.60798 0.89167 0.30721 0.0
La561 La 0.65427 0.90129 0.29473 0.0
C562 C 0.57489 0.87627 0.32795 0.0
C563 C 0.55958 0.88073 0.34844 0.0
C564 C 0.53982 0.89072 0.34342 0.0
C565 C 0.52447 0.89338 0.36205 0.0
C566 C 0.52834 0.88603 0.38625 0.0
C567 C 0.54812 0.87603 0.39132 0.0
C568 C 0.56354 0.87338 0.37263 0.0
C569 C 0.61418 0.92985 0.28639 0.0
C570 C 0.63727 0.91796 0.3459 0.0
C571 C 0.68892 0.91485 0.27619 0.0
C572 C 0.70556 0.90876 0.25795 0.0
C573 C 0.71976 0.8916 0.26232 0.0
C574 C 0.73706 0.88783 0.24637 0.0
C575 C 0.74057 0.90115 0.22577 0.0
C576 C 0.72587 0.91779 0.22097 0.0
C577 C 0.70863 0.92159 0.23693 0.0
C578 C 0.64813 0.86493 0.31868 0.0
C579 C 0.62418 0.87995 0.2536 0.0
O580 O 0.57435 0.88902 0.30872 0.0
O581 O 0.59459 0.87093 0.33379 0.0
O582 O 0.59648 0.91888 0.28502 0.0
O583 O 0.62641 0.92013 0.30103 0.0
O584 O 0.61948 0.90652 0.34219 0.0
O585 O 0.65163 0.92052 0.32808 0.0
O586 O 0.68777 0.90349 0.2965 0.0
O587 O 0.66988 0.92005 0.26773 0.0
O588 O 0.66522 0.87668 0.32023 0.0
O589 O 0.63603 0.87251 0.30206 0.0
O590 O 0.64277 0.88895 0.25931 0.0
O591 O 0.6086 0.87732 0.2701 0.0
H592 H 0.536 0.89613 0.32491 0.0
H593 H 0.50929 0.90077 0.35727 0.0
H594 H 0.55173 0.8703 0.40975 0.0
H595 H 0.57844 0.86531 0.3771 0.0
H596 H 0.71794 0.88145 0.27845 0.0
H597 H 0.74813 0.87497 0.25073 0.0
H598 H 0.72783 0.92811 0.20501 0.0
H599 H 0.698 0.93497 0.23316 0.0
La600 La 0.88084 0.85988 0.05866 0.0
La601 La 0.86795 0.90566 0.04692 0.0
C602 C 0.8989 0.82758 0.07813 0.0
C603 C 0.89617 0.81244 0.09898 0.0
C604 C 0.87603 0.8086 0.1098 0.0
C605 C 0.8738 0.79319 0.12859 0.0
C606 C 0.89168 0.78134 0.137 0.0
C607 C 0.91191 0.78574 0.12648 0.0
C608 C 0.91409 0.80109 0.10769 0.0
C609 C 0.84114 0.86416 0.04128 0.0
C610 C 0.8562 0.88833 0.09957 0.0
C611 C 0.85174 0.93979 1.02982 0.0
C612 C 0.856 0.95636 1.01105 0.0
C613 C 0.87464 0.95611 0.99644 0.0
C614 C 0.87855 0.97269 0.97943 0.0
C615 C 0.86385 0.98973 0.97676 0.0
C616 C 0.84525 0.98978 0.99156 0.0
C617 C 0.84138 0.97327 1.00848 0.0
C618 C 0.90633 0.90157 0.06715 0.0
C619 C 0.8869 0.87589 1.00408 0.0
O620 O 0.8849 0.82639 0.06014 0.0
O621 O 0.90353 0.8475 0.08374 0.0
O622 O 0.8528 0.84703 0.03878 0.0
O623 O 0.85112 0.87686 0.05519 0.0
O624 O 0.86818 0.87113 0.09482 0.0
O625 O 0.85143 0.90236 0.08204 0.0
O626 O 0.86507 0.93918 0.04844 0.0
O627 O 0.84677 0.92055 1.0219 0.0
O628 O 0.89403 0.91812 0.06941 0.0
O629 O 0.89803 0.88889 0.05156 0.0
O630 O 0.87593 0.89318 1.01045 0.0
O631 O 0.89363 0.86171 1.0207 0.0
H632 H 0.862 0.81731 0.10352 0.0
H633 H 0.85803 0.7905 0.13647 0.0
H634 H 0.92599 0.77685 0.13219 0.0
H635 H 0.92979 0.80381 0.0996 0.0
H636 H 0.88615 0.94317 0.99828 0.0
H637 H 0.89293 0.97203 0.96818 0.0
H638 H 0.83375 1.00278 0.99036 0.0
H639 H 0.82701 0.97383 1.01977 0.0
La640 La 0.65547 0.61899 0.7962 0.0
La641 La 0.60914 0.63035 0.80606 0.0
C642 C 0.69034 0.60486 0.77886 0.0
C643 C 0.70634 0.6106 0.75965 0.0
C644 C 0.72693 0.61747 0.76685 0.0
C645 C 0.74282 0.62164 0.7492 0.0
C646 C 0.73855 0.61878 0.72392 0.0
C647 C 0.71782 0.61229 0.71666 0.0
C648 C 0.70186 0.60827 0.73431 0.0
C649 C 0.65 0.65579 0.81911 0.0
C650 C 0.62745 0.64041 0.75303 0.0
C651 C 0.57585 0.64686 0.82518 0.0
C652 C 0.56129 0.64385 0.84653 0.0
C653 C 0.55871 0.6238 0.85804 0.0
C654 C 0.54381 0.62122 0.8773 0.0
C655 C 0.53122 0.63866 0.88551 0.0
C656 C 0.53439 0.65884 0.87434 0.0
C657 C 0.54923 0.66137 0.85507 0.0
C658 C 0.61507 0.59157 0.78667 0.0
C659 C 0.63671 0.60485 0.84719 0.0
O660 O 0.68911 0.61779 0.79785 0.0
O661 O 0.67135 0.59821 0.77163 0.0
O662 O 0.6664 0.64333 0.82178 0.0
O663 O 0.63808 0.64856 0.80202 0.0
O664 O 0.64517 0.63048 0.7601 0.0
O665 O 0.61142 0.6442 0.76865 0.0
O666 O 0.57545 0.63211 0.80795 0.0
O667 O 0.59544 0.65315 0.83008 0.0
O668 O 0.59796 0.60315 0.7835 0.0
O669 O 0.62681 0.60121 0.80192 0.0
O670 O 0.61933 0.61645 0.84206 0.0
O671 O 0.65161 0.60116 0.83029 0.0
H672 H 0.73089 0.61922 0.78624 0.0
H673 H 0.75867 0.62638 0.75542 0.0
H674 H 0.71397 0.61016 0.69729 0.0
H675 H 0.68617 0.60303 0.7281 0.0
H676 H 0.56799 0.61008 0.85192 0.0
H677 H 0.54207 0.60552 0.88568 0.0
H678 H 0.5249 0.67257 0.8799 0.0
H679 H 0.55099 0.677 0.84647 0.0
La680 La 0.65138 0.40387 0.0434 0.0
La681 La 0.64164 0.35778 0.05595 0.0
C682 C 0.66492 0.43842 1.02464 0.0
C683 C 0.65862 0.45488 1.0063 0.0
C684 C 0.64104 0.46862 1.01035 0.0
C685 C 0.63695 0.48571 0.9942 0.0
C686 C 0.65038 0.48945 0.97375 0.0
C687 C 0.66746 0.47518 0.96927 0.0
C688 C 0.67157 0.45816 0.98542 0.0
C689 C 0.61503 0.39806 0.06749 0.0
C690 C 0.62988 0.37384 1.00229 0.0
C691 C 0.62627 0.32465 0.07668 0.0
C692 C 0.63048 0.30951 0.09741 0.0
C693 C 0.6411 0.28999 0.09292 0.0
C694 C 0.64348 0.27474 0.11172 0.0
C695 C 0.63521 0.27848 0.13555 0.0
C696 C 0.6246 0.29804 0.14009 0.0
C697 C 0.62223 0.31335 0.12124 0.0
C698 C 0.67983 0.36384 1.03493 0.0
C699 C 0.66803 0.38705 0.09457 0.0
O700 O 0.65368 0.43737 0.04505 0.0
O701 O 0.67008 0.41935 1.01627 0.0
O702 O 0.62697 0.41501 0.06902 0.0
O703 O 0.62243 0.38582 0.05087 0.0
O704 O 0.63896 0.3924 1.00798 0.0
O705 O 0.62722 0.35832 1.01886 0.0
O706 O 0.63937 0.32412 0.05777 0.0
O707 O 0.62061 0.34432 0.0822 0.0
O708 O 0.66869 0.34625 1.03347 0.0
O709 O 0.67022 0.37601 0.04973 0.0
O710 O 0.65627 0.36944 0.091 0.0
O711 O 0.67082 0.40119 0.07657 0.0
H712 H 0.63077 0.4666 1.02634 0.0
H713 H 0.62375 0.49646 0.99829 0.0
H714 H 0.67788 0.47732 0.95342 0.0
H715 H 0.68525 0.44786 0.9819 0.0
H716 H 0.64723 0.28625 0.07469 0.0
H717 H 0.65137 0.25973 0.10732 0.0
H718 H 0.61816 0.30155 0.15823 0.0
H719 H 0.61366 0.32806 0.12528 0.0
La720 La 0.86418 0.40149 0.2978 0.0
La721 La 0.91056 0.39016 0.30645 0.0
C722 C 0.82889 0.41547 0.2814 0.0
C723 C 0.81297 0.41018 0.26194 0.0
C724 C 0.79255 0.40259 0.26883 0.0
C725 C 0.77674 0.39871 0.25102 0.0
C726 C 0.7809 0.40257 0.22589 0.0
C727 C 0.80147 0.40984 0.21893 0.0
C728 C 0.81734 0.41359 0.23675 0.0
C729 C 0.87014 0.36436 0.31992 0.0
C730 C 0.89165 0.38097 0.25362 0.0
C731 C 0.94434 0.37419 0.32504 0.0
C732 C 0.95993 0.37807 0.34548 0.0
C733 C 0.97985 0.3878 0.34042 0.0
C734 C 0.99531 0.39024 0.35901 0.0
C735 C 0.99141 0.38292 0.38324 0.0
C736 C 0.97151 0.37308 0.38831 0.0
C737 C 0.95597 0.37068 0.36967 0.0
C738 C 0.90434 0.4292 0.28784 0.0
C739 C 0.88347 0.41502 0.3486 0.0
O740 O 0.83051 0.40176 0.2996 0.0
O741 O 0.84768 0.42289 0.27449 0.0
O742 O 0.85385 0.37683 0.32334 0.0
O743 O 0.88171 0.37182 0.30264 0.0
O744 O 0.87427 0.3912 0.26118 0.0
O745 O 0.90758 0.37635 0.26907 0.0
O746 O 0.94429 0.38781 0.30661 0.0
O747 O 0.92484 0.36818 0.33098 0.0
O748 O 0.92136 0.41764 0.28411 0.0
O749 O 0.89284 0.41941 0.30322 0.0
O750 O 0.90086 0.40365 0.34285 0.0
O751 O 0.86826 0.41882 0.33213 0.0
H752 H 0.78866 0.40001 0.28813 0.0
H753 H 0.76101 0.39337 0.25703 0.0
H754 H 0.80526 0.41275 0.19967 0.0
H755 H 0.8329 0.41944 0.23078 0.0
H756 H 0.98366 0.39326 0.32192 0.0
H757 H 0.01056 0.39751 0.35419 0.0
H758 H 0.96784 0.36738 0.40675 0.0
H759 H 0.94094 0.36282 0.37421 0.0
La760 La 0.86952 0.61663 0.54301 0.0
La761 La 0.87941 0.66275 0.55527 0.0
C762 C 0.8558 0.58205 0.52456 0.0
C763 C 0.86203 0.56538 0.50649 0.0
C764 C 0.88029 0.55243 0.51003 0.0
C765 C 0.88439 0.5351 0.49425 0.0
C766 C 0.8703 0.53035 0.47468 0.0
C767 C 0.85253 0.54386 0.47066 0.0
C768 C 0.84842 0.56111 0.48645 0.0
C769 C 0.9058 0.62242 0.56721 0.0
C770 C 0.89106 0.64644 0.50168 0.0
C771 C 0.89499 0.69579 0.57594 0.0
C772 C 0.891 0.71062 0.597 0.0
C773 C 0.87812 0.72894 0.59388 0.0
C774 C 0.87584 0.74393 0.61296 0.0
C775 C 0.88645 0.74111 0.63572 0.0
C776 C 0.89931 0.72275 0.63889 0.0
C777 C 0.90159 0.70771 0.61975 0.0
C778 C 0.84132 0.65673 0.53405 0.0
C779 C 0.85267 0.63383 0.59394 0.0
O780 O 0.86694 0.58317 0.54502 0.0
O781 O 0.85088 0.60108 0.51588 0.0
O782 O 0.89379 0.60553 0.56881 0.0
O783 O 0.8985 0.63459 0.55046 0.0
O784 O 0.88204 0.62788 0.50753 0.0
O785 O 0.89369 0.66207 0.5181 0.0
O786 O 0.88157 0.69639 0.55732 0.0
O787 O 0.90087 0.67611 0.5811 0.0
O788 O 0.85253 0.67429 0.53252 0.0
O789 O 0.8508 0.64461 0.54902 0.0
O790 O 0.86452 0.65137 0.59033 0.0
O791 O 0.84992 0.61962 0.57602 0.0
H792 H 0.8911 0.55528 0.52537 0.0
H793 H 0.89814 0.52497 0.49795 0.0
H794 H 0.8416 0.54094 0.45545 0.0
H795 H 0.83424 0.57082 0.48334 0.0
H796 H 0.87009 0.73198 0.57648 0.0
H797 H 0.86615 0.75805 0.60958 0.0
H798 H 0.9076 0.71995 0.65618 0.0
H799 H 0.91193 0.69396 0.62267 0.0
La800 La 0.65393 0.40175 0.77794 0.0
La801 La 0.60771 0.39212 0.76498 0.0
C802 C 0.68833 0.41543 0.79692 0.0
C803 C 0.70487 0.4093 0.81524 0.0
C804 C 0.71857 0.39165 0.81138 0.0
C805 C 0.73587 0.38784 0.82733 0.0
C806 C 0.73986 0.40163 0.84739 0.0
C807 C 0.72559 0.41874 0.85175 0.0
C808 C 0.70837 0.42256 0.83581 0.0
C809 C 0.64815 0.36541 0.75396 0.0
C810 C 0.62349 0.3804 0.81881 0.0
C811 C 0.57474 0.37678 0.74387 0.0
C812 C 0.5598 0.38103 0.72294 0.0
C813 C 0.54101 0.39309 0.72667 0.0
C814 C 0.52591 0.39552 0.70771 0.0
C815 C 0.52907 0.38586 0.68444 0.0
C816 C 0.54791 0.37382 0.68067 0.0
C817 C 0.56306 0.37141 0.69968 0.0
C818 C 0.61393 0.43036 0.78576 0.0
C819 C 0.6374 0.41824 0.7265 0.0
O820 O 0.68742 0.40422 0.77649 0.0
O821 O 0.66921 0.42042 0.80527 0.0
O822 O 0.66525 0.37716 0.75275 0.0
O823 O 0.63575 0.37293 0.77035 0.0
O824 O 0.64216 0.38933 0.81324 0.0
O825 O 0.608 0.37785 0.80218 0.0
O826 O 0.57407 0.38983 0.76282 0.0
O827 O 0.59446 0.37111 0.73856 0.0
O828 O 0.59616 0.41948 0.787 0.0
O829 O 0.62613 0.4205 0.77124 0.0
O830 O 0.61963 0.40672 0.73004 0.0
O831 O 0.65154 0.42095 0.74451 0.0
H832 H 0.71638 0.38114 0.79563 0.0
H833 H 0.74659 0.3746 0.82335 0.0
H834 H 0.72793 0.42942 0.86732 0.0
H835 H 0.6981 0.43629 0.83918 0.0
H836 H 0.53769 0.40034 0.74445 0.0
H837 H 0.51144 0.40454 0.71156 0.0
H838 H 0.551 0.36629 0.66299 0.0
H839 H 0.57718 0.36171 0.69626 0.0
La840 La 0.86875 0.40624 1.0239 0.0
La841 La 0.88049 0.35978 1.01483 0.0
C842 C 0.85312 0.44106 0.03971 0.0
C843 C 0.85684 0.45732 0.05896 0.0
C844 C 0.8418 0.47382 0.06184 0.0
C845 C 0.84514 0.49004 0.07924 0.0
C846 C 0.86363 0.49011 0.0942 0.0
C847 C 0.87874 0.47347 0.09126 0.0
C848 C 0.87534 0.45716 0.07379 0.0
C849 C 0.90633 0.40058 1.00264 0.0
C850 C 0.88856 0.37832 0.06817 0.0
C851 C 0.89762 0.32641 0.9967 0.0
C852 C 0.89477 0.31134 0.97582 0.0
C853 C 0.87504 0.30917 0.96352 0.0
C854 C 0.87261 0.294 0.94453 0.0
C855 C 0.8899 0.28073 0.93738 0.0
C856 C 0.90977 0.28342 0.94942 0.0
C857 C 0.91214 0.29853 0.96842 0.0
C858 C 0.84115 0.36581 1.03264 0.0
C859 C 0.85603 0.38696 0.97253 0.0
O860 O 0.86765 0.43986 1.02233 0.0
O861 O 0.84668 0.42207 0.04704 0.0
O862 O 0.89405 0.41703 0.99935 0.0
O863 O 0.89845 0.38878 1.01946 0.0
O864 O 0.87851 0.39584 0.06065 0.0
O865 O 0.89354 0.3626 0.05258 0.0
O866 O 0.88294 0.32611 1.01402 0.0
O867 O 0.90347 0.346 0.99112 0.0
O868 O 0.85253 0.34864 0.03625 0.0
O869 O 0.85127 0.37747 1.01772 0.0
O870 O 0.86744 0.3696 0.97828 0.0
O871 O 0.85206 0.40208 0.98909 0.0
H872 H 0.82751 0.47428 0.05042 0.0
H873 H 0.83334 0.50274 0.0807 0.0
H874 H 0.89304 0.47292 0.10265 0.0
H875 H 0.88715 0.44451 0.07177 0.0
H876 H 0.86145 0.31903 0.96878 0.0
H877 H 0.85716 0.29264 0.93546 0.0
H878 H 0.92336 0.27339 0.9447 0.0
H879 H 0.92752 0.29996 0.97765 0.0
La880 La 0.8662 0.61908 0.27659 0.0
La881 La 0.91258 0.62853 0.26409 0.0
C882 C 0.83158 0.60551 0.2952 0.0
C883 C 0.81494 0.61161 0.31344 0.0
C884 C 0.80089 0.62893 0.3092 0.0
C885 C 0.7836 0.63273 0.32515 0.0
C886 C 0.77993 0.61927 0.34561 0.0
C887 C 0.79448 0.60247 0.35028 0.0
C888 C 0.81171 0.59865 0.33432 0.0
C889 C 0.87234 0.65541 0.2527 0.0
C890 C 0.89661 0.63991 0.31794 0.0
C891 C 0.94565 0.64441 0.24376 0.0
C892 C 0.95964 0.64173 0.22189 0.0
C893 C 0.96269 0.62166 0.21061 0.0
C894 C 0.97742 0.61942 0.19114 0.0
C895 C 0.98936 0.6372 0.18252 0.0
C896 C 0.98561 0.65739 0.19338 0.0
C897 C 0.97095 0.65959 0.21285 0.0
C898 C 0.90598 0.59044 0.28501 0.0
C899 C 0.88315 0.60262 0.22527 0.0
O900 O 0.83269 0.61683 0.27485 0.0
O901 O 0.85062 0.60037 0.30366 0.0
O902 O 0.85523 0.64371 0.25121 0.0
O903 O 0.88455 0.64781 0.26924 0.0
O904 O 0.87779 0.63144 0.31202 0.0
O905 O 0.91235 0.64217 0.30156 0.0
O906 O 0.94618 0.62928 0.26054 0.0
O907 O 0.92611 0.65126 0.23979 0.0
O908 O 0.92373 0.60134 0.28663 0.0
O909 O 0.89397 0.60022 0.27018 0.0
O910 O 0.90088 0.61416 0.22896 0.0
O911 O 0.86887 0.59989 0.24316 0.0
H912 H 0.80284 0.63918 0.29318 0.0
H913 H 0.77264 0.64571 0.3209 0.0
H914 H 0.7924 0.59205 0.36613 0.0
H915 H 0.82222 0.58516 0.33798 0.0
H916 H 0.954 0.60767 0.21712 0.0
H917 H 0.97961 0.60369 0.18299 0.0
H918 H 0.99461 0.67139 0.1875 0.0
H919 H 0.96883 0.67523 0.22129 0.0
La920 La 0.65252 0.61394 0.52424 0.0
La921 La 0.6403 0.65998 0.51366 0.0
C922 C 0.66839 0.57941 0.54065 0.0
C923 C 0.66465 0.56327 0.56002 0.0
C924 C 0.64575 0.56305 0.57419 0.0
C925 C 0.6423 0.54678 0.5917 0.0
C926 C 0.65773 0.53055 0.59533 0.0
C927 C 0.67663 0.531 0.58104 0.0
C928 C 0.68002 0.54719 0.56361 0.0
C929 C 0.61434 0.61875 0.50387 0.0
C930 C 0.6339 0.64312 0.56782 0.0
C931 C 0.62331 0.69306 0.4947 0.0
C932 C 0.62712 0.70905 0.47467 0.0
C933 C 0.63741 0.72865 0.47994 0.0
C934 C 0.63971 0.74444 0.46171 0.0
C935 C 0.63168 0.7412 0.43766 0.0
C936 C 0.62131 0.72162 0.43237 0.0
C937 C 0.61903 0.70576 0.45065 0.0
C938 C 0.68004 0.65477 0.53073 0.0
C939 C 0.66437 0.63185 0.47192 0.0
O940 O 0.65402 0.58033 0.5231 0.0
O941 O 0.67455 0.59853 0.54782 0.0
O942 O 0.6266 0.60222 0.50114 0.0
O943 O 0.62255 0.63113 0.51989 0.0
O944 O 0.64458 0.62578 0.56098 0.0
O945 O 0.62737 0.65767 0.55153 0.0
O946 O 0.63625 0.69351 0.51377 0.0
O947 O 0.61855 0.67336 0.48821 0.0
O948 O 0.66865 0.672 0.53375 0.0
O949 O 0.66975 0.64259 0.51654 0.0
O950 O 0.65284 0.64924 0.47722 0.0
O951 O 0.6688 0.61731 0.48901 0.0
H952 H 0.63367 0.57536 0.5716 0.0
H953 H 0.62769 0.54703 0.60256 0.0
H954 H 0.6887 0.51861 0.58302 0.0
H955 H 0.69462 0.54701 0.55268 0.0
H956 H 0.64342 0.73197 0.49833 0.0
H957 H 0.6474 0.75944 0.46668 0.0
H958 H 0.61506 0.71847 0.41405 0.0
H959 H 0.61071 0.69101 0.44601 0.0
La960 La 0.41213 0.39171 0.26518 0.0
La961 La 0.36556 0.40219 0.27505 0.0
C962 C 0.4457 0.37555 0.24629 0.0
C963 C 0.46032 0.37809 0.22491 0.0
C964 C 0.4627 0.39777 0.21251 0.0
C965 C 0.47771 0.3999 0.19328 0.0
C966 C 0.49063 0.38238 0.18599 0.0
C967 C 0.48768 0.36257 0.1981 0.0
C968 C 0.47273 0.36049 0.21732 0.0
C969 C 0.4056 0.43007 0.28526 0.0
C970 C 0.38431 0.41738 0.22442 0.0
C971 C 0.33038 0.41562 0.29234 0.0
C972 C 0.31403 0.40957 0.31109 0.0
C973 C 0.29647 0.39642 0.30464 0.0
C974 C 0.27986 0.39255 0.3215 0.0
C975 C 0.28028 0.40191 0.34512 0.0
C976 C 0.29811 0.41458 0.3518 0.0
C977 C 0.31475 0.4184 0.33497 0.0
C978 C 0.37187 0.36571 0.25166 0.0
C979 C 0.39378 0.38078 0.31805 0.0
O980 O 0.44583 0.39075 0.26298 0.0
O981 O 0.42622 0.36878 0.24161 0.0
O982 O 0.4229 0.41873 0.28821 0.0
O983 O 0.39395 0.42052 0.26982 0.0
O984 O 0.4018 0.40584 0.22929 0.0
O985 O 0.36942 0.42068 0.24144 0.0
O986 O 0.33197 0.40329 0.27286 0.0
O987 O 0.34923 0.42207 0.30025 0.0
O988 O 0.35524 0.37788 0.24897 0.0
O989 O 0.38346 0.37304 0.26896 0.0
O990 O 0.37584 0.39032 0.31102 0.0
O991 O 0.41001 0.37762 0.30251 0.0
H992 H 0.45317 0.41154 0.21792 0.0
H993 H 0.47926 0.41531 0.18418 0.0
H994 H 0.49743 0.3488 0.1933 0.0
H995 H 0.47116 0.34515 0.22663 0.0
H996 H 0.29523 0.38958 0.28629 0.0
H997 H 0.26627 0.38291 0.31568 0.0
H998 H 0.29907 0.4218 0.36998 0.0
H999 H 0.32793 0.42872 0.34051 0.0
La1000 La 0.38057 0.66044 1.01537 0.0
La1001 La 0.36908 0.61401 1.02471 0.0
C1002 C 0.39772 0.6937 0.99681 0.0
C1003 C 0.39494 0.70847 0.97565 0.0
C1004 C 0.37549 0.70978 0.96264 0.0
C1005 C 0.37308 0.72465 0.94334 0.0
C1006 C 0.39009 0.7385 0.93662 0.0
C1007 C 0.40971 0.73665 0.94937 0.0
C1008 C 0.41207 0.72183 0.96866 0.0
C1009 C 0.34162 0.65445 1.03419 0.0
C1010 C 0.35483 0.63333 0.97388 0.0
C1011 C 0.35396 0.57888 0.04037 0.0
C1012 C 0.35876 0.56184 0.05833 0.0
C1013 C 0.37606 0.5634 0.07487 0.0
C1014 C 0.38027 0.54663 0.0915 0.0
C1015 C 0.36721 0.52811 0.09179 0.0
C1016 C 0.35009 0.52667 0.07488 0.0
C1017 C 0.34592 0.54338 0.05838 0.0
C1018 C 0.40639 0.61996 1.00267 0.0
C1019 C 0.38914 0.64199 0.06881 0.0
O1020 O 0.38294 0.69412 1.014 0.0
O1021 O 0.40362 0.67407 0.99159 0.0
O1022 O 0.35306 0.6717 0.03732 0.0
O1023 O 0.35138 0.64267 1.0191 0.0
O1024 O 0.36672 0.65057 0.97906 0.0
O1025 O 0.35108 0.61847 0.99082 0.0
O1026 O 0.36715 0.58049 1.02167 0.0
O1027 O 0.34857 0.59768 0.04925 0.0
O1028 O 0.39408 0.60346 0.99956 0.0
O1029 O 0.39868 0.63157 1.0197 0.0
O1030 O 0.3793 0.6243 0.06134 0.0
O1031 O 0.39374 0.65785 0.05318 0.0
H1032 H 0.36211 0.69949 0.96759 0.0
H1033 H 0.35783 0.72535 0.93374 0.0
H1034 H 0.42308 0.74714 0.94498 0.0
H1035 H 0.42724 0.72104 0.97843 0.0
H1036 H 0.38622 0.57754 0.07495 0.0
H1037 H 0.39346 0.54833 0.1044 0.0
H1038 H 0.33995 0.51253 0.07426 0.0
H1039 H 0.33264 0.54183 0.04555 0.0
La1040 La 0.10948 0.62936 0.76411 0.0
La1041 La 0.15618 0.61956 0.77317 0.0
C1042 C 0.07562 0.64522 0.7456 0.0
C1043 C 0.06081 0.64253 0.7244 0.0
C1044 C 0.05734 0.62249 0.71316 0.0
C1045 C 0.04213 0.62032 0.69414 0.0
C1046 C 0.03012 0.63815 0.6859 0.0
C1047 C 0.03418 0.65828 0.6968 0.0
C1048 C 0.04931 0.66041 0.71582 0.0
C1049 C 0.11662 0.59086 0.78357 0.0
C1050 C 0.13726 0.60419 0.72275 0.0
C1051 C 0.19203 0.60714 0.78972 0.0
C1052 C 0.20794 0.61307 0.80898 0.0
C1053 C 0.22693 0.6239 0.80227 0.0
C1054 C 0.24305 0.62785 0.81972 0.0
C1055 C 0.24068 0.62083 0.84425 0.0
C1056 C 0.22146 0.61047 0.85112 0.0
C1057 C 0.20528 0.60663 0.8337 0.0
C1058 C 0.14896 0.65618 0.75031 0.0
C1059 C 0.12783 0.63921 0.81717 0.0
O1060 O 0.07574 0.63009 0.7624 0.0
O1061 O 0.09499 0.65211 0.74064 0.0
O1062 O 0.09924 0.602 0.7869 0.0
O1063 O 0.12806 0.6007 0.76813 0.0
O1064 O 0.11963 0.6154 0.72802 0.0
O1065 O 0.15247 0.6012 0.73947 0.0
O1066 O 0.18983 0.6205 0.77124 0.0
O1067 O 0.17353 0.5992 0.7969 0.0
O1068 O 0.16554 0.64411 0.74689 0.0
O1069 O 0.13779 0.64855 0.76783 0.0
O1070 O 0.14571 0.62986 0.80966 0.0
O1071 O 0.11169 0.64299 0.80169 0.0
H1072 H 0.06615 0.60848 0.71931 0.0
H1073 H 0.03973 0.60462 0.68596 0.0
H1074 H 0.02515 0.67233 0.69122 0.0
H1075 H 0.05174 0.67603 0.72421 0.0
H1076 H 0.22959 0.62884 0.78332 0.0
H1077 H 0.25773 0.63565 0.81376 0.0
H1078 H 0.21904 0.60508 0.86995 0.0
H1079 H 0.19091 0.59819 0.83953 0.0
La1080 La 0.1399 0.35991 0.51437 0.0
La1081 La 0.15198 0.40601 0.52456 0.0
C1082 C 0.12287 0.32683 0.49529 0.0
C1083 C 0.12657 0.31102 0.47505 0.0
C1084 C 0.1361 0.29108 0.48028 0.0
C1085 C 0.13833 0.27547 0.46184 0.0
C1086 C 0.13099 0.27925 0.43761 0.0
C1087 C 0.12133 0.29917 0.43237 0.0
C1088 C 0.11913 0.31485 0.45086 0.0
C1089 C 0.17918 0.36513 0.53254 0.0
C1090 C 0.16527 0.38752 0.47302 0.0
C1091 C 0.1675 0.44095 0.54036 0.0
C1092 C 0.16319 0.45799 0.55847 0.0
C1093 C 0.14584 0.45687 0.57501 0.0
C1094 C 0.14205 0.47374 0.59166 0.0
C1095 C 0.1556 0.4919 0.59199 0.0
C1096 C 0.17279 0.49288 0.57513 0.0
C1097 C 0.17653 0.4761 0.55861 0.0
C1098 C 0.11405 0.40073 0.50351 0.0
C1099 C 0.13309 0.37722 0.5684 0.0
O1100 O 0.13599 0.32634 0.5142 0.0
O1101 O 0.11798 0.34655 0.48906 0.0
O1102 O 0.16763 0.34794 0.53539 0.0
O1103 O 0.1694 0.37731 0.51789 0.0
O1104 O 0.15338 0.37026 0.47808 0.0
O1105 O 0.16939 0.40206 0.49019 0.0
O1106 O 0.15405 0.43956 0.52192 0.0
O1107 O 0.17282 0.42206 0.549 0.0
O1108 O 0.12637 0.41723 0.50059 0.0
O1109 O 0.12209 0.38873 0.51995 0.0
O1110 O 0.14356 0.39466 0.56135 0.0
O1111 O 0.12686 0.36236 0.55225 0.0
H1112 H 0.14157 0.28736 0.49879 0.0
H1113 H 0.14546 0.2602 0.46678 0.0
H1114 H 0.11561 0.30273 0.41392 0.0
H1115 H 0.1114 0.3299 0.44622 0.0
H1116 H 0.1353 0.443 0.57505 0.0
H1117 H 0.12878 0.47239 0.60451 0.0
H1118 H 0.18331 0.50675 0.57454 0.0
H1119 H 0.18987 0.47731 0.54579 0.0
La1120 La 0.41018 0.62984 0.30781 0.0
La1121 La 0.36367 0.61941 0.29902 0.0
C1122 C 0.44401 0.64563 0.32662 0.0
C1123 C 0.45945 0.6419 0.34723 0.0
C1124 C 0.47928 0.63196 0.34248 0.0
C1125 C 0.49468 0.62979 0.36117 0.0
C1126 C 0.4908 0.6376 0.38519 0.0
C1127 C 0.47096 0.64762 0.38996 0.0
C1128 C 0.45549 0.64975 0.37122 0.0
C1129 C 0.40346 0.59122 0.2884 0.0
C1130 C 0.38286 0.60402 0.34922 0.0
C1131 C 0.3279 0.60656 0.28261 0.0
C1132 C 0.31181 0.61264 0.26364 0.0
C1133 C 0.29451 0.62617 0.26978 0.0
C1134 C 0.27817 0.6303 0.25268 0.0
C1135 C 0.27861 0.6208 0.22914 0.0
C1136 C 0.29617 0.6077 0.22278 0.0
C1137 C 0.31255 0.60363 0.23984 0.0
C1138 C 0.37049 0.65605 0.32207 0.0
C1139 C 0.39158 0.63936 0.25479 0.0
O1140 O 0.44394 0.63181 0.30839 0.0
O1141 O 0.42454 0.65183 0.33231 0.0
O1142 O 0.42073 0.60258 0.28511 0.0
O1143 O 0.39196 0.60091 0.30386 0.0
O1144 O 0.40041 0.61541 0.34388 0.0
O1145 O 0.36763 0.60091 0.33256 0.0
O1146 O 0.33007 0.6195 0.30148 0.0
O1147 O 0.34645 0.59916 0.27496 0.0
O1148 O 0.35406 0.64371 0.32538 0.0
O1149 O 0.38172 0.64873 0.30444 0.0
O1150 O 0.37386 0.62975 0.26245 0.0
O1151 O 0.40766 0.64356 0.27023 0.0
H1152 H 0.4831 0.62615 0.32413 0.0
H1153 H 0.50989 0.62237 0.35658 0.0
H1154 H 0.46732 0.6537 0.40823 0.0
H1155 H 0.44053 0.65779 0.3755 0.0
H1156 H 0.29327 0.63317 0.28805 0.0
H1157 H 0.26477 0.64027 0.25825 0.0
H1158 H 0.29712 0.60034 0.20468 0.0
H1159 H 0.32555 0.59304 0.23453 0.0
La1160 La 0.14103 0.65953 0.05629 0.0
La1161 La 0.15367 0.61341 0.047 0.0
C1162 C 0.12318 0.6924 0.07473 0.0
C1163 C 0.12566 0.70735 0.09581 0.0
C1164 C 0.1456 0.71075 0.10729 0.0
C1165 C 0.14763 0.72595 0.12633 0.0
C1166 C 0.12975 0.738 0.13435 0.0
C1167 C 0.1097 0.734 0.12321 0.0
C1168 C 0.10772 0.71888 0.10415 0.0
C1169 C 0.18035 0.65452 0.03818 0.0
C1170 C 0.16635 0.63272 0.09825 0.0
C1171 C 0.1696 0.57875 1.03118 0.0
C1172 C 0.16483 0.56173 1.01318 0.0
C1173 C 0.17744 0.54314 1.01331 0.0
C1174 C 0.17314 0.52641 0.99687 0.0
C1175 C 0.15612 0.52792 0.97983 0.0
C1176 C 0.14333 0.54658 0.97991 0.0
C1177 C 0.14765 0.56337 0.99648 0.0
C1178 C 0.1159 0.61829 0.06822 0.0
C1179 C 0.13331 0.64095 1.00279 0.0
O1180 O 0.13789 0.69314 0.05746 0.0
O1181 O 0.11768 0.67265 0.08003 0.0
O1182 O 0.16858 0.67147 1.03483 0.0
O1183 O 0.17068 0.64248 0.05311 0.0
O1184 O 0.15433 0.64976 0.09283 0.0
O1185 O 0.17085 0.61806 0.08136 0.0
O1186 O 0.15659 0.57997 0.05007 0.0
O1187 O 0.17454 0.59772 1.02236 0.0
O1188 O 0.12843 0.60201 0.07135 0.0
O1189 O 0.12365 0.63022 0.05149 0.0
O1190 O 0.14366 0.62362 1.01032 0.0
O1191 O 0.12807 0.6566 1.0184 0.0
H1192 H 0.15963 0.70189 0.10133 0.0
H1193 H 0.16325 0.72832 0.13469 0.0
H1194 H 0.09564 0.74307 0.12864 0.0
H1195 H 0.09217 0.71648 0.09558 0.0
H1196 H 0.19061 0.54152 1.02627 0.0
H1197 H 0.18308 0.51216 0.99767 0.0
H1198 H 0.13023 0.54836 0.96691 0.0
H1199 H 0.13764 0.57759 0.99627 0.0
La1200 La 0.10977 0.39109 0.80706 0.0
La1201 La 0.15614 0.40204 0.79676 0.0
C1202 C 0.07648 0.37462 0.82634 0.0
C1203 C 0.06201 0.37748 0.84776 0.0
C1204 C 0.05962 0.39743 0.85953 0.0
C1205 C 0.04472 0.3999 0.87879 0.0
C1206 C 0.03193 0.38247 0.88672 0.0
C1207 C 0.03493 0.36238 0.87531 0.0
C1208 C 0.04977 0.35995 0.85604 0.0
C1209 C 0.11584 0.4296 0.78701 0.0
C1210 C 0.13762 0.41709 0.84755 0.0
C1211 C 0.19102 0.41605 0.77918 0.0
C1212 C 0.20757 0.41001 0.76073 0.0
C1213 C 0.22286 0.39395 0.76581 0.0
C1214 C 0.23975 0.39 0.74935 0.0
C1215 C 0.24183 0.40207 0.72752 0.0
C1216 C 0.22617 0.41767 0.72214 0.0
C1217 C 0.2093 0.42164 0.7386 0.0
C1218 C 0.15035 0.36547 0.8203 0.0
C1219 C 0.12775 0.3805 0.75392 0.0
O1220 O 0.07609 0.3895 0.80926 0.0
O1221 O 0.09605 0.36824 0.83107 0.0
O1222 O 0.0986 0.41807 0.78426 0.0
O1223 O 0.12769 0.42013 0.80228 0.0
O1224 O 0.12017 0.40538 0.84285 0.0
O1225 O 0.15233 0.42057 0.83035 0.0
O1226 O 0.18964 0.40423 0.79911 0.0
O1227 O 0.17207 0.42168 0.77087 0.0
O1228 O 0.16698 0.37775 0.82255 0.0
O1229 O 0.13851 0.37268 0.80316 0.0
O1230 O 0.1457 0.39014 0.76086 0.0
O1231 O 0.11168 0.37711 0.76963 0.0
H1232 H 0.06904 0.41115 0.8536 0.0
H1233 H 0.04311 0.41553 0.88737 0.0
H1234 H 0.02528 0.34865 0.88066 0.0
H1235 H 0.05138 0.34441 0.84723 0.0
H1236 H 0.22214 0.38478 0.78281 0.0
H1237 H 0.25161 0.378 0.75419 0.0
H1238 H 0.22705 0.42703 0.70529 0.0
H1239 H 0.19787 0.43418 0.73423 0.0
La1240 La 0.37991 0.35888 0.55756 0.0
La1241 La 0.36699 0.40462 0.54567 0.0
C1242 C 0.39803 0.32665 0.57709 0.0
C1243 C 0.39521 0.31149 0.59791 0.0
C1244 C 0.37529 0.30871 0.60966 0.0
C1245 C 0.37292 0.29341 0.62854 0.0
C1246 C 0.39043 0.28062 0.63612 0.0
C1247 C 0.41046 0.28393 0.62463 0.0
C1248 C 0.41278 0.29917 0.60575 0.0
C1249 C 0.34033 0.36308 0.53995 0.0
C1250 C 0.35511 0.38734 0.5983 0.0
C1251 C 0.35066 0.43875 0.52877 0.0
C1252 C 0.35541 0.45623 0.51131 0.0
C1253 C 0.3726 0.45514 0.49455 0.0
C1254 C 0.37669 0.47233 0.47841 0.0
C1255 C 0.36364 0.4908 0.47881 0.0
C1256 C 0.34667 0.49178 0.49597 0.0
C1257 C 0.3426 0.47467 0.51198 0.0
C1258 C 0.40561 0.40061 0.56539 0.0
C1259 C 0.38589 0.37482 0.50288 0.0
O1260 O 0.38413 0.32541 0.559 0.0
O1261 O 0.4025 0.34658 0.58279 0.0
O1262 O 0.35195 0.34591 0.53765 0.0
O1263 O 0.35019 0.37582 0.55391 0.0
O1264 O 0.36727 0.37023 0.59373 0.0
O1265 O 0.35021 0.40114 0.58059 0.0
O1266 O 0.36271 0.43795 0.5485 0.0
O1267 O 0.34705 0.41966 0.5195 0.0
O1268 O 0.39345 0.41726 0.56756 0.0
O1269 O 0.39707 0.38785 0.55011 0.0
O1270 O 0.37474 0.39202 0.50917 0.0
O1271 O 0.39276 0.36077 0.51959 0.0
H1272 H 0.36154 0.31817 0.60404 0.0
H1273 H 0.35733 0.29157 0.63718 0.0
H1274 H 0.42424 0.27429 0.62968 0.0
H1275 H 0.42831 0.30108 0.59694 0.0
H1276 H 0.38274 0.44103 0.4939 0.0
H1277 H 0.38978 0.47098 0.46532 0.0
H1278 H 0.33654 0.50587 0.49716 0.0
H1279 H 0.32941 0.47587 0.52498 0.0
H1280 H 0.26555 0.15494 0.2183 0.0
H1281 H 0.33733 0.09661 0.1155 0.0
H1282 H 0.2589 0.08857 0.19654 0.0
H1283 H 0.34209 0.16458 0.13024 0.0
H1284 H 0.31137 0.09316 0.14881 0.0
H1285 H 0.29571 0.15866 0.18934 0.0
C1286 C 0.27046 0.14114 0.20752 0.0
C1287 C 0.25952 0.12144 0.20972 0.0
C1288 C 0.31814 0.10885 0.14498 0.0
C1289 C 0.29403 0.12559 0.17666 0.0
C1290 C 0.33307 0.11082 0.12597 0.0
C1291 C 0.34177 0.13095 0.11992 0.0
C1292 C 0.31162 0.12715 0.15811 0.0
C1293 C 0.33579 0.14874 0.13431 0.0
C1294 C 0.28764 0.1433 0.19097 0.0
C1295 C 0.26653 0.10416 0.19517 0.0
N1296 N 0.32087 0.14648 0.15261 0.0
N1297 N 0.28327 0.10666 0.17933 0.0
H1298 H 0.10767 0.09035 0.38208 0.0
H1299 H 0.18945 0.01475 0.45631 0.0
H1300 H 0.17625 0.08876 0.37075 0.0
H1301 H 0.12069 0.01086 0.46571 0.0
H1302 H 0.18456 0.04448 0.42774 0.0
H1303 H 0.11178 0.06431 0.41597 0.0
C1304 C 0.1236 0.08488 0.38705 0.0
C1305 C 0.14164 0.0916 0.37351 0.0
C1306 C 0.17048 0.03723 0.43606 0.0
C1307 C 0.14642 0.06176 0.41186 0.0
C1308 C 0.17328 0.02026 0.45252 0.0
C1309 C 0.15547 1.01029 0.46355 0.0
C1310 C 0.14968 0.0444 0.43037 0.0
C1311 C 0.13488 0.01792 0.45745 0.0
C1312 C 0.12592 0.06989 0.40622 0.0
C1313 C 0.16188 0.08386 0.38055 0.0
N1314 N 0.13254 0.03452 0.44125 0.0
N1315 N 0.16369 0.06931 0.39908 0.0
H1316 H 0.25996 0.93177 0.70099 0.0
H1317 H 0.1785 0.85367 0.62978 0.0
H1318 H 0.25589 0.86397 0.71696 0.0
H1319 H 0.18107 0.9225 0.621 0.0
H1320 H 0.20478 0.85657 0.66366 0.0
H1321 H 0.22985 0.92816 0.67267 0.0
C1322 C 0.25281 0.91605 0.69841 0.0
C1323 C 0.26066 0.89811 0.7112 0.0
C1324 C 0.19933 0.87103 0.6545 0.0
C1325 C 0.22572 0.89384 0.67883 0.0
C1326 C 0.18421 0.86939 0.63533 0.0
C1327 C 0.17776 0.88786 0.62244 0.0
C1328 C 0.20792 0.89127 0.6607 0.0
C1329 C 0.18579 0.90781 0.63023 0.0
C1330 C 0.23543 0.91401 0.68236 0.0
C1331 C 0.25034 0.87824 0.70751 0.0
N1332 N 0.20052 0.90895 0.64862 0.0
N1333 N 0.23349 0.87659 0.69152 0.0
H1334 H 0.34568 0.92779 0.87302 0.0
H1335 H 0.40433 0.01155 0.96279 0.0
H1336 H 0.41465 0.93142 0.8794 0.0
H1337 H 0.33563 1.00537 0.95455 0.0
H1338 H 0.40907 0.98112 0.93442 0.0
H1339 H 0.34226 0.95406 0.90604 0.0
C1340 C 0.36014 0.93391 0.88169 0.0
C1341 C 0.38047 0.9275 0.8734 0.0
C1342 C 0.39298 0.98638 0.93898 0.0
C1343 C 0.37673 0.95811 0.91101 0.0
C1344 C 0.39026 1.00386 0.955 0.0
C1345 C 0.36953 0.01102 0.96117 0.0
C1346 C 0.37485 0.97608 0.92899 0.0
C1347 C 0.3519 1.00026 0.95072 0.0
C1348 C 0.35819 0.94902 0.9005 0.0
C1349 C 0.39866 0.93589 0.88536 0.0
N1350 N 0.35498 0.98344 0.93519 0.0
N1351 N 0.39638 0.95102 0.90339 0.0
H1352 H 0.343 0.8553 0.44245 0.0
H1353 H 0.25299 0.9286 0.37953 0.0
H1354 H 0.33425 0.92291 0.45691 0.0
H1355 H 0.26831 0.86549 0.35178 0.0
H1356 H 0.28254 0.92574 0.40879 0.0
H1357 H 0.3164 0.85785 0.4089 0.0
C1358 C 0.33582 0.87072 0.4383 0.0
C1359 C 0.34069 0.88887 0.45267 0.0
C1360 C 0.27953 0.91248 0.39631 0.0
C1361 C 0.31013 0.89181 0.4148 0.0
C1362 C 0.26248 0.91404 0.37974 0.0
C1363 C 0.25805 0.8972 0.36329 0.0
C1364 C 0.29228 0.89386 0.39669 0.0
C1365 C 0.27123 0.87888 0.36409 0.0
C1366 C 0.32055 0.87214 0.41928 0.0
C1367 C 0.33081 0.90841 0.44657 0.0
N1368 N 0.28769 0.87763 0.38063 0.0
N1369 N 0.31592 0.9093 0.42833 0.0
H1370 H 0.33298 1.00841 0.62758 0.0
H1371 H 0.4141 0.09047 0.69355 0.0
H1372 H 0.39999 0.01275 0.60763 0.0
H1373 H 0.34645 0.08498 0.70993 0.0
H1374 H 0.40958 0.0638 0.66038 0.0
H1375 H 0.33799 0.03769 0.65669 0.0
C1376 C 0.34876 0.01563 0.62918 0.0
C1377 C 0.36604 1.00814 0.61494 0.0
C1378 C 0.39573 0.06862 0.67114 0.0
C1379 C 0.37203 0.04177 0.64875 0.0
C1380 C 0.39827 0.08395 0.68993 0.0
C1381 C 0.38065 0.08985 0.70466 0.0
C1382 C 0.37544 0.05926 0.6671 0.0
C1383 C 0.36054 0.08078 0.69925 0.0
C1384 C 0.35165 0.03235 0.64595 0.0
C1385 C 0.38624 0.01787 0.61835 0.0
N1386 N 0.35854 0.06591 0.68108 0.0
N1387 N 0.38869 0.0342 0.6349 0.0
H1388 H 0.17829 0.09866 0.95141 0.0
H1389 H 0.26402 0.159 0.86647 0.0
H1390 H 0.18204 0.16773 0.94705 0.0
H1391 H 0.2532 0.09049 0.86591 0.0
H1392 H 0.23287 0.1632 0.8938 0.0
H1393 H 0.20397 0.09594 0.91764 0.0
C1394 C 0.18431 0.11329 0.94302 0.0
C1395 C 0.17813 0.13344 0.95209 0.0
C1396 C 0.23728 0.14728 0.88756 0.0
C1397 C 0.20804 0.13049 0.91366 0.0
C1398 C 0.25504 0.14486 0.87193 0.0
C1399 C 0.26147 0.12431 0.86411 0.0
C1400 C 0.22586 0.12902 0.89543 0.0
C1401 C 0.24924 0.10659 0.87191 0.0
C1402 C 0.19905 0.11174 0.92376 0.0
C1403 C 0.18635 0.15188 0.94051 0.0
N1404 N 0.23217 0.10935 0.88718 0.0
N1405 N 0.20118 0.14998 0.92209 0.0
H1406 H 0.10449 0.93177 0.19388 0.0
H1407 H 0.18638 1.00941 0.12244 0.0
H1408 H 0.17339 0.93127 0.20247 0.0
H1409 H 0.1183 1.00942 0.10726 0.0
H1410 H 0.18121 0.97977 0.15095 0.0
H1411 H 0.10845 0.95857 0.16064 0.0
C1412 C 0.12043 0.93697 0.18847 0.0
C1413 C 0.13864 0.92943 0.20107 0.0
C1414 C 0.16734 0.98612 0.14137 0.0
C1415 C 0.14325 0.96014 0.16354 0.0
C1416 C 0.17032 1.00307 0.12493 0.0
C1417 C 0.1528 0.01189 0.11219 0.0
C1418 C 0.14663 0.97782 0.14541 0.0
C1419 C 0.13227 1.00325 0.1168 0.0
C1420 C 0.12267 0.95237 0.16967 0.0
C1421 C 0.15889 0.93681 0.19347 0.0
N1422 N 0.12974 0.98668 0.13305 0.0
N1423 N 0.16061 0.9518 0.1754 0.0
H1424 H 0.77068 0.92936 0.88469 0.0
H1425 H 0.67675 0.85704 0.94182 0.0
H1426 H 0.75168 0.86911 0.85184 0.0
H1427 H 0.68901 0.92309 0.96173 0.0
H1428 H 0.70368 0.86026 0.90872 0.0
H1429 H 0.74118 0.92613 0.91403 0.0
C1430 C 0.76038 0.91534 0.88378 0.0
C1431 C 0.76375 0.89942 0.86587 0.0
C1432 C 0.70025 0.87407 0.92023 0.0
C1433 C 0.7296 0.8957 0.89935 0.0
C1434 C 0.68481 0.87228 0.93901 0.0
C1435 C 0.68076 0.88975 0.95475 0.0
C1436 C 0.7117 0.89342 0.91735 0.0
C1437 C 0.69175 0.90909 0.95031 0.0
C1438 C 0.74338 0.91359 0.90041 0.0
C1439 C 0.74959 0.88179 0.86529 0.0
N1440 N 0.70679 0.91032 0.93224 0.0
N1441 N 0.73318 0.88033 0.88189 0.0
H1442 H 0.90507 0.01283 0.61155 0.0
H1443 H 0.84727 0.92943 0.70255 0.0
H1444 H 0.83647 1.00665 0.6209 0.0
H1445 H 0.91621 0.93371 0.69627 0.0
H1446 H 0.84364 0.95551 0.6694 0.0
H1447 H 0.91016 0.98271 0.6403 0.0
C1448 C 0.8911 1.0052 0.61966 0.0
C1449 C 0.8703 0.01226 0.61369 0.0
C1450 C 0.85961 0.95068 0.675 0.0
C1451 C 0.876 0.97769 0.64628 0.0
C1452 C 0.86168 0.93569 0.6939 0.0
C1453 C 0.88206 0.92951 0.70225 0.0
C1454 C 0.87807 0.95989 0.66444 0.0
C1455 C 0.9002 0.93802 0.69029 0.0
C1456 C 0.89402 0.98791 0.6359 0.0
C1457 C 0.85279 1.0016 0.62456 0.0
N1458 N 0.89779 0.95304 0.67214 0.0
N1459 N 0.85606 0.98496 0.64028 0.0
H1460 H 0.75631 0.08477 0.38033 0.0
H1461 H 0.84 0.16523 0.44452 0.0
H1462 H 0.76116 0.15153 0.35948 0.0
H1463 H 0.83561 0.09722 0.45915 0.0
H1464 H 0.81269 0.16107 0.41193 0.0
H1465 H 0.78621 0.08963 0.4086 0.0
C1466 C 0.76376 0.10047 0.38156 0.0
C1467 C 0.75625 0.11771 0.36728 0.0
C1468 C 0.81792 0.14706 0.42214 0.0
C1469 C 0.79065 0.12353 0.40012 0.0
C1470 C 0.83362 0.1494 0.44058 0.0
C1471 C 0.83997 0.13156 0.45468 0.0
C1472 C 0.80863 0.12676 0.41787 0.0
C1473 C 0.83105 0.11146 0.44894 0.0
C1474 C 0.78086 0.10327 0.39783 0.0
C1475 C 0.7663 0.13782 0.37024 0.0
N1476 N 0.8158 0.10966 0.43117 0.0
N1477 N 0.78301 0.14018 0.38632 0.0
H1478 H 0.61657 1.01021 0.11024 0.0
H1479 H 0.67427 0.08908 0.20654 0.0
H1480 H 0.68474 0.01174 0.12478 0.0
H1481 H 0.60569 0.08923 0.19502 0.0
H1482 H 0.6781 0.06277 0.17366 0.0
H1483 H 0.6118 0.04019 0.13924 0.0
C1484 C 0.63051 0.01677 0.11956 0.0
C1485 C 0.65111 1.00847 0.11496 0.0
C1486 C 0.66219 0.06862 0.17807 0.0
C1487 C 0.64579 0.04288 0.14785 0.0
C1488 C 0.66 0.08375 0.19682 0.0
C1489 C 0.63963 0.09125 0.20362 0.0
C1490 C 0.64383 0.06066 0.16606 0.0
C1491 C 0.62172 0.08389 0.19028 0.0
C1492 C 0.62778 0.03399 0.13594 0.0
C1493 C 0.6686 0.01778 0.12737 0.0
N1494 N 0.6242 0.06876 0.17228 0.0
N1495 N 0.66552 0.0344 0.14318 0.0
H1496 H 0.75937 0.15787 0.7119 0.0
H1497 H 0.68195 0.09747 0.61655 0.0
H1498 H 0.75892 0.08937 0.69955 0.0
H1499 H 0.67946 0.16594 0.62856 0.0
H1500 H 0.70796 0.0943 0.64988 0.0
H1501 H 0.7285 0.16134 0.68402 0.0
C1502 C 0.75274 0.14356 0.70344 0.0
C1503 C 0.76194 0.12331 0.70789 0.0
C1504 C 0.70162 0.11003 0.64549 0.0
C1505 C 0.72665 0.12719 0.67599 0.0
C1506 C 0.68669 0.11184 0.62647 0.0
C1507 C 0.67865 0.13201 0.61966 0.0
C1508 C 0.70886 0.12857 0.65773 0.0
C1509 C 0.68524 0.15006 0.63327 0.0
C1510 C 0.73514 0.14557 0.6875 0.0
C1511 C 0.75272 0.10536 0.69629 0.0
N1512 N 0.70021 0.14796 0.65149 0.0
N1513 N 0.73569 0.10774 0.68088 0.0
H1514 H 0.68681 0.01525 0.44245 0.0
H1515 H 0.6061 0.93141 0.37884 0.0
H1516 H 0.62002 0.01054 0.46324 0.0
H1517 H 0.6739 0.93627 0.36308 0.0
H1518 H 0.61044 0.95883 0.41124 0.0
H1519 H 0.68187 0.98541 0.41408 0.0
C1520 C 0.67109 1.00784 0.44117 0.0
C1521 C 0.65385 0.01538 0.45546 0.0
C1522 C 0.62436 0.9537 0.40081 0.0
C1523 C 0.64796 0.98106 0.42253 0.0
C1524 C 0.62192 0.93794 0.38246 0.0
C1525 C 0.63964 0.93166 0.36811 0.0
C1526 C 0.64465 0.96311 0.40476 0.0
C1527 C 0.65974 0.94076 0.37349 0.0
C1528 C 0.66824 0.99078 0.42485 0.0
C1529 C 0.63373 1.00538 0.45248 0.0
N1530 N 0.66164 0.95606 0.39119 0.0
N1531 N 0.63132 0.98872 0.43636 0.0
H1532 H 0.84219 0.92473 0.12167 0.0
H1533 H 0.75945 0.86357 0.20972 0.0
H1534 H 0.84196 0.85582 0.12995 0.0
H1535 H 0.7662 0.93252 0.20603 0.0
H1536 H 0.79097 0.85994 0.18287 0.0
H1537 H 0.81629 0.92756 0.15523 0.0
C1538 C 0.83692 0.91019 0.1309 0.0
C1539 C 0.84413 0.89002 0.12297 0.0
C1540 C 0.78559 0.87584 0.18807 0.0
C1541 C 0.81398 0.89305 0.16114 0.0
C1542 C 0.76761 0.87794 0.20342 0.0
C1543 C 0.75994 0.8984 0.20992 0.0
C1544 C 0.79598 0.89435 0.17915 0.0
C1545 C 0.77114 0.91643 0.20107 0.0
C1546 C 0.82205 0.91179 0.15002 0.0
C1547 C 0.83685 0.8717 0.1356 0.0
N1548 N 0.78846 0.91397 0.18609 0.0
N1549 N 0.82188 0.87362 0.15385 0.0
H1550 H 0.84542 0.08661 0.86486 0.0
H1551 H 0.90181 0.01042 0.96496 0.0
H1552 H 0.91359 0.08866 0.87905 0.0
H1553 H 0.83429 1.00927 0.94684 0.0
H1554 H 0.90684 0.03993 0.93537 0.0
H1555 H 0.84128 0.06006 0.89743 0.0
C1556 C 0.85954 0.08162 0.87504 0.0
C1557 C 0.87991 0.0898 0.8691 0.0
C1558 C 0.89094 0.03323 0.93798 0.0
C1559 C 0.87531 0.05893 0.90645 0.0
C1560 C 0.88806 0.01628 0.95473 0.0
C1561 C 0.86755 1.00734 0.95854 0.0
C1562 C 0.87318 0.04128 0.9249 0.0
C1563 C 0.85033 0.0158 0.94492 0.0
C1564 C 0.85717 0.06635 0.89364 0.0
C1565 C 0.89758 0.08281 0.88308 0.0
N1566 N 0.85355 0.0322 0.92879 0.0
N1567 N 0.89492 0.06759 0.90099 0.0
H1568 H 0.74793 0.59244 0.68508 0.0
H1569 H 0.84367 0.6639 0.63022 0.0
H1570 H 0.76914 0.65075 0.72067 0.0
H1571 H 0.82963 0.59877 0.60794 0.0
H1572 H 0.81652 0.66054 0.66309 0.0
H1573 H 0.77709 0.59602 0.65533 0.0
C1574 C 0.75863 0.60613 0.68651 0.0
C1575 C 0.756 0.62137 0.70534 0.0
C1576 C 0.81959 0.64697 0.65109 0.0
C1577 C 0.78978 0.62548 0.67137 0.0
C1578 C 0.83514 0.64884 0.63242 0.0
C1579 C 0.83882 0.63166 0.61612 0.0
C1580 C 0.80763 0.62785 0.65329 0.0
C1581 C 0.82723 0.61255 0.61982 0.0
C1582 C 0.77545 0.60807 0.66964 0.0
C1583 C 0.77067 0.63857 0.70652 0.0
N1584 N 0.8121 0.61125 0.63779 0.0
N1585 N 0.78688 0.64023 0.68969 0.0
H1586 H 0.67292 0.59173 0.87032 0.0
H1587 H 0.6125 0.50714 0.95684 0.0
H1588 H 0.60386 0.58906 0.87613 0.0
H1589 H 0.68128 0.51585 0.95449 0.0
H1590 H 0.60839 0.53841 0.92966 0.0
H1591 H 0.67576 0.56581 0.90381 0.0
C1592 C 0.65832 0.58588 0.87895 0.0
C1593 C 0.63813 0.59243 0.87037 0.0
C1594 C 0.62436 0.53351 0.93523 0.0
C1595 C 0.64121 0.56228 0.90852 0.0
C1596 C 0.62672 0.51568 0.95076 0.0
C1597 C 0.6473 0.50864 0.95772 0.0
C1598 C 0.6427 0.54438 0.92662 0.0
C1599 C 0.66513 0.5203 0.94917 0.0
C1600 C 0.65994 0.57101 0.89806 0.0
C1601 C 0.61974 0.58444 0.88229 0.0
N1602 N 0.66241 0.53746 0.93403 0.0
N1603 N 0.62171 0.5695 0.90057 0.0
H1604 H 0.67677 0.35719 0.13113 0.0
H1605 H 0.77096 0.4297 0.18791 0.0
H1606 H 0.69091 0.42223 0.10856 0.0
H1607 H 0.75107 0.37001 0.22147 0.0
H1608 H 0.74206 0.4261 0.15784 0.0
H1609 H 0.70353 0.36077 0.16434 0.0
C1610 C 0.68524 0.37228 0.13333 0.0
C1611 C 0.6817 0.38937 0.11687 0.0
C1612 C 0.74393 0.41376 0.17177 0.0
C1613 C 0.71245 0.39344 0.15447 0.0
C1614 C 0.7606 0.41572 0.18883 0.0
C1615 C 0.76354 0.40009 0.20718 0.0
C1616 C 0.73006 0.39593 0.17284 0.0
C1617 C 0.74931 0.38251 0.20772 0.0
C1618 C 0.70058 0.37428 0.1522 0.0
C1619 C 0.69321 0.40852 0.12058 0.0
N1620 N 0.73324 0.38085 0.19072 0.0
N1621 N 0.70812 0.40995 0.13878 0.0
H1622 H 0.90812 0.51376 0.45623 0.0
H1623 H 0.84761 0.42685 0.3733 0.0
H1624 H 0.83972 0.50235 0.45795 0.0
H1625 H 0.9167 0.43137 0.37642 0.0
H1626 H 0.84505 0.45254 0.40707 0.0
H1627 H 0.91233 0.48225 0.42946 0.0
C1628 C 0.89401 0.50457 0.45115 0.0
C1629 C 0.87348 0.51093 0.45908 0.0
C1630 C 0.86083 0.44777 0.40068 0.0
C1631 C 0.87819 0.47494 0.42844 0.0
C1632 C 0.86228 0.43304 0.38143 0.0
C1633 C 0.88238 0.4271 0.372 0.0
C1634 C 0.87962 0.457 0.4104 0.0
C1635 C 0.90089 0.43551 0.38325 0.0
C1636 C 0.89643 0.4866 0.43585 0.0
C1637 C 0.85579 0.49843 0.45182 0.0
N1638 N 0.89906 0.45034 0.40165 0.0
N1639 N 0.85855 0.48118 0.43684 0.0
H1640 H 0.76648 0.43301 0.86505 0.0
H1641 H 0.84097 0.3536 0.94387 0.0
H1642 H 0.758 0.36417 0.86498 0.0
H1643 H 0.84251 0.42275 0.94877 0.0
H1644 H 0.81449 0.35646 0.91029 0.0
H1645 H 0.79769 0.42886 0.89165 0.0
C1646 C 0.7711 0.41699 0.87075 0.0
C1647 C 0.75934 0.39894 0.86305 0.0
C1648 C 0.82089 0.37099 0.91851 0.0
C1649 C 0.7955 0.39401 0.89338 0.0
C1650 C 0.83614 0.36936 0.93748 0.0
C1651 C 0.84379 0.38798 0.94919 0.0
C1652 C 0.81346 0.39136 0.91121 0.0
C1653 C 0.83686 0.40799 0.94039 0.0
C1654 C 0.78909 0.41461 0.88581 0.0
C1655 C 0.76657 0.37854 0.87047 0.0
N1656 N 0.82201 0.40913 0.92211 0.0
N1657 N 0.7841 0.37663 0.88538 0.0
H1658 H 0.91417 0.59009 0.19169 0.0
H1659 H 0.83354 0.50802 0.12469 0.0
H1660 H 0.84663 0.58386 0.20828 0.0
H1661 H 0.90092 0.51177 0.10635 0.0
H1662 H 0.83834 0.53717 0.15409 0.0
H1663 H 0.90988 0.56334 0.15857 0.0
C1664 C 0.89841 0.58339 0.18812 0.0
C1665 C 0.88075 0.58913 0.20288 0.0
C1666 C 0.85213 0.53172 0.14364 0.0
C1667 C 0.8758 0.55843 0.16536 0.0
C1668 C 0.84936 0.51507 0.12672 0.0
C1669 C 0.86682 0.50746 0.11285 0.0
C1670 C 0.87254 0.54096 0.14693 0.0
C1671 C 0.88704 0.51699 0.11678 0.0
C1672 C 0.896 0.568 0.16937 0.0
C1673 C 0.86074 0.5798 0.19756 0.0
N1674 N 0.88935 0.53327 0.13343 0.0
N1675 N 0.85886 0.5649 0.1794 0.0
H1676 H 0.76138 0.65689 0.36207 0.0
H1677 H 0.67765 0.59561 0.44886 0.0
H1678 H 0.75397 0.58798 0.36492 0.0
H1679 H 0.67922 0.66464 0.44232 0.0
H1680 H 0.70351 0.59292 0.41525 0.0
H1681 H 0.72986 0.66058 0.38893 0.0
C1682 C 0.75307 0.64255 0.36818 0.0
C1683 C 0.76056 0.62207 0.36145 0.0
C1684 C 0.69806 0.60869 0.42086 0.0
C1685 C 0.72452 0.62619 0.39223 0.0
C1686 C 0.6832 0.61022 0.44001 0.0
C1687 C 0.67638 0.63037 0.44845 0.0
C1688 C 0.7065 0.62748 0.41022 0.0
C1689 C 0.68403 0.64878 0.43628 0.0
C1690 C 0.7351 0.64467 0.38354 0.0
C1691 C 0.74917 0.60407 0.37006 0.0
N1692 N 0.69897 0.64692 0.41799 0.0
N1693 N 0.73186 0.60656 0.38504 0.0
H1694 H 0.60675 0.43039 0.69228 0.0
H1695 H 0.68741 0.51344 0.62694 0.0
H1696 H 0.67397 0.43734 0.71015 0.0
H1697 H 0.62062 0.50815 0.60639 0.0
H1698 H 0.68248 0.48434 0.65638 0.0
H1699 H 0.61128 0.45708 0.65913 0.0
C1700 C 0.6225 0.43724 0.689 0.0
C1701 C 0.63998 0.43172 0.70412 0.0
C1702 C 0.66885 0.48945 0.64544 0.0
C1703 C 0.6452 0.46235 0.66656 0.0
C1704 C 0.6717 0.50606 0.6285 0.0
C1705 C 0.65445 0.51323 0.61399 0.0
C1706 C 0.64856 0.47979 0.64813 0.0
C1707 C 0.63434 0.50329 0.61732 0.0
C1708 C 0.62504 0.45258 0.67021 0.0
C1709 C 0.65999 0.44123 0.69914 0.0
N1710 N 0.63194 0.48706 0.63402 0.0
N1711 N 0.66199 0.45609 0.68096 0.0
H1712 H 0.17796 0.35501 0.44142 0.0
H1713 H 0.26161 0.433 0.37343 0.0
H1714 H 0.18182 0.42355 0.4524 0.0
H1715 H 0.25621 0.36569 0.35541 0.0
H1716 H 0.23124 0.42939 0.40142 0.0
H1717 H 0.20462 0.35817 0.40799 0.0
C1718 C 0.18405 0.37074 0.43646 0.0
C1719 C 0.17782 0.38903 0.44984 0.0
C1720 C 0.23659 0.41536 0.39135 0.0
C1721 C 0.20843 0.39272 0.41208 0.0
C1722 C 0.25411 0.41739 0.3755 0.0
C1723 C 0.26166 0.39958 0.36222 0.0
C1724 C 0.22643 0.39532 0.39419 0.0
C1725 C 0.2509 0.37986 0.36525 0.0
C1726 C 0.19938 0.37252 0.41754 0.0
C1727 C 0.18634 0.40899 0.44278 0.0
N1728 N 0.23391 0.37821 0.38105 0.0
N1729 N 0.20128 0.41025 0.42461 0.0
H1730 H 0.3477 0.43066 0.2024 0.0
H1731 H 0.40565 0.51071 0.10758 0.0
H1732 H 0.41661 0.43316 0.1944 0.0
H1733 H 0.33705 0.50537 0.1176 0.0
H1734 H 0.41064 0.48142 0.13748 0.0
H1735 H 0.34408 0.45615 0.16867 0.0
C1736 C 0.36211 0.43642 0.19329 0.0
C1737 C 0.38248 0.42989 0.2013 0.0
C1738 C 0.39452 0.48662 0.13298 0.0
C1739 C 0.3785 0.45957 0.16273 0.0
C1740 C 0.39165 0.50344 0.11607 0.0
C1741 C 0.37087 0.5105 0.10995 0.0
C1742 C 0.37648 0.47688 0.14391 0.0
C1743 C 0.35335 0.50031 0.12135 0.0
C1744 C 0.36004 0.45107 0.17403 0.0
C1745 C 0.40059 0.43776 0.18871 0.0
N1746 N 0.35657 0.48412 0.13772 0.0
N1747 N 0.39819 0.45244 0.17019 0.0
H1748 H 0.2554 0.59077 0.87677 0.0
H1749 H 0.34306 0.66597 0.94185 0.0
H1750 H 0.26728 0.65568 0.85228 0.0
H1751 H 0.33667 0.59775 0.95401 0.0
H1752 H 0.31626 0.66334 0.90847 0.0
H1753 H 0.28517 0.59396 0.90568 0.0
C1754 C 0.26419 0.60579 0.87762 0.0
C1755 C 0.25869 0.62303 0.86219 0.0
C1756 C 0.32097 0.64894 0.9183 0.0
C1757 C 0.29323 0.62677 0.89522 0.0
C1758 C 0.33636 0.65042 0.93721 0.0
C1759 C 0.34195 0.63208 0.9509 0.0
C1760 C 0.31117 0.62902 0.91322 0.0
C1761 C 0.33267 0.61236 0.9442 0.0
C1762 C 0.28137 0.60756 0.89399 0.0
C1763 C 0.27101 0.64196 0.86378 0.0
N1764 N 0.31766 0.61142 0.92608 0.0
N1765 N 0.28764 0.64338 0.88012 0.0
H1766 H 0.1046 0.5889 0.69292 0.0
H1767 H 0.18627 0.51378 0.6179 0.0
H1768 H 0.17356 0.58975 0.70087 0.0
H1769 H 0.1176 0.51044 0.60754 0.0
H1770 H 0.18131 0.54333 0.64661 0.0
H1771 H 0.10838 0.56243 0.65936 0.0
C1772 C 0.12052 0.58386 0.68728 0.0
C1773 C 0.1388 0.5914 0.69978 0.0
C1774 C 0.16725 0.53626 0.63805 0.0
C1775 C 0.14321 0.56107 0.66186 0.0
C1776 C 0.17011 0.51937 0.62151 0.0
C1777 C 0.15235 0.50964 0.61009 0.0
C1778 C 0.14645 0.54359 0.64349 0.0
C1779 C 0.13175 0.51734 0.61605 0.0
C1780 C 0.12265 0.56863 0.66831 0.0
C1781 C 0.15902 0.58421 0.69191 0.0
N1782 N 0.12935 0.53387 0.63234 0.0
N1783 N 0.16064 0.56941 0.67364 0.0
H1784 H 0.18051 0.59666 0.1207 0.0
H1785 H 0.25587 0.65758 0.21807 0.0
H1786 H 0.18006 0.66558 0.1288 0.0
H1787 H 0.25923 0.58996 0.20102 0.0
H1788 H 0.2255 0.66101 0.18933 0.0
H1789 H 0.20592 0.59405 0.15464 0.0
C1790 C 0.18557 0.61127 0.1299 0.0
C1791 C 0.17831 0.63138 0.12178 0.0
C1792 C 0.23289 0.64545 0.19195 0.0
C1793 C 0.2079 0.62856 0.16057 0.0
C1794 C 0.25019 0.64346 0.20836 0.0
C1795 C 0.26027 0.62347 0.21178 0.0
C1796 C 0.22552 0.62728 0.17907 0.0
C1797 C 0.25228 0.60575 0.19865 0.0
C1798 C 0.2002 0.60978 0.14925 0.0
C1799 C 0.18526 0.64976 0.13454 0.0
N1800 N 0.23545 0.60809 0.18294 0.0
N1801 N 0.19993 0.64795 0.15316 0.0
H1802 H 0.17439 0.43011 0.86946 0.0
H1803 H 0.11748 0.51098 0.96387 0.0
H1804 H 0.10554 0.43309 0.87764 0.0
H1805 H 0.18603 0.50454 0.95449 0.0
H1806 H 0.11212 0.48166 0.9341 0.0
H1807 H 0.17836 0.45559 0.90317 0.0
C1808 C 0.16007 0.43597 0.87862 0.0
C1809 C 0.13961 0.42957 0.87066 0.0
C1810 C 0.12831 0.48663 0.93871 0.0
C1811 C 0.14399 0.45925 0.90919 0.0
C1812 C 0.13139 0.50347 0.95555 0.0
C1813 C 0.15226 0.51024 0.9618 0.0
C1814 C 0.14623 0.47657 0.92799 0.0
C1815 C 0.16966 0.49972 0.95062 0.0
C1816 C 0.16233 0.45061 0.89786 0.0
C1817 C 0.12162 0.43758 0.88329 0.0
N1818 N 0.16624 0.48352 0.93431 0.0
N1819 N 0.1242 0.45225 0.90179 0.0
H1820 H 0.34094 0.42401 0.61955 0.0
H1821 H 0.26169 0.36437 0.71349 0.0
H1822 H 0.3414 0.35531 0.62983 0.0
H1823 H 0.26531 0.43313 0.70398 0.0
H1824 H 0.29249 0.36037 0.68557 0.0
H1825 H 0.31551 0.42739 0.65347 0.0
C1826 C 0.3359 0.40962 0.62926 0.0
C1827 C 0.34319 0.38935 0.6218 0.0
C1828 C 0.28657 0.37632 0.68971 0.0
C1829 C 0.31356 0.39302 0.66047 0.0
C1830 C 0.26901 0.37863 0.70568 0.0
C1831 C 0.26069 0.39912 0.71091 0.0
C1832 C 0.29591 0.39463 0.67893 0.0
C1833 C 0.2708 0.41698 0.70011 0.0
C1834 C 0.32129 0.41155 0.64861 0.0
C1835 C 0.33622 0.37126 0.63509 0.0
N1836 N 0.28775 0.4143 0.68463 0.0
N1837 N 0.32152 0.37348 0.6536 0.0
H1838 H 0.33317 0.51397 0.45419 0.0
H1839 H 0.4156 0.58796 0.37836 0.0
H1840 H 0.40189 0.50872 0.46282 0.0
H1841 H 0.34659 0.59028 0.37177 0.0
H1842 H 0.41168 0.56134 0.41178 0.0
H1843 H 0.33848 0.54382 0.42596 0.0
C1844 C 0.34943 0.51921 0.45032 0.0
C1845 C 0.36709 0.50883 0.4611 0.0
C1846 C 0.39743 0.56791 0.40317 0.0
C1847 C 0.37338 0.54313 0.4282 0.0
C1848 C 0.39966 0.58322 0.38428 0.0
C1849 C 0.38138 0.59121 0.37219 0.0
C1850 C 0.3768 0.56072 0.40997 0.0
C1851 C 0.36112 0.58439 0.38041 0.0
C1852 C 0.35247 0.53627 0.43404 0.0
C1853 C 0.3878 0.51612 0.4548 0.0
N1854 N 0.3594 0.56951 0.3986 0.0
N1855 N 0.39039 0.53282 0.43875 0.0
H1856 H 0.10257 0.26739 0.40058 0.0
H1857 H 0.17694 0.17003 0.3558 0.0
H1858 H 0.16526 0.25251 0.42991 0.0
H1859 H 0.11772 0.18543 0.31846 0.0
H1860 H 0.172 0.20063 0.38272 0.0
H1861 H 0.10695 0.23838 0.37013 0.0
C1862 C 0.11731 0.25818 0.40054 0.0
C1863 C 0.13349 0.26237 0.41811 0.0
C1864 C 0.15999 0.19749 0.36871 0.0
C1865 C 0.13849 0.22902 0.38339 0.0
C1866 C 0.1628 0.17991 0.35321 0.0
C1867 C 0.14762 0.17496 0.3349 0.0
C1868 C 0.14175 0.21051 0.36618 0.0
C1869 C 0.12969 0.1885 0.33252 0.0
C1870 C 0.11973 0.24155 0.38321 0.0
C1871 C 0.15213 0.24972 0.4172 0.0
N1872 N 0.12717 0.20565 0.3481 0.0
N1873 N 0.15404 0.2337 0.4003 0.0
H1874 H 0.08317 0.87022 0.56517 0.0
H1875 H 0.02022 0.91885 0.6823 0.0
H1876 H 0.10262 0.92592 0.60702 0.0
H1877 H 1.00275 0.85786 0.65009 0.0
H1878 H 0.04879 0.92245 0.65195 0.0
H1879 H 0.05212 0.86589 0.5933 0.0
C1880 C 0.08098 0.88145 0.58024 0.0
C1881 C 0.09569 0.89829 0.58392 0.0
C1882 C 0.03876 0.90823 0.65141 0.0
C1883 C 0.06019 0.89374 0.61571 0.0
C1884 C 0.02243 0.90612 0.6689 0.0
C1885 C 1.00912 0.8879 0.66907 0.0
C1886 C 0.04203 0.89203 0.63369 0.0
C1887 C 0.01253 0.87224 0.65067 0.0
C1888 C 0.06325 0.87903 0.59621 0.0
C1889 C 0.09183 0.91263 0.60345 0.0
N1890 N 0.02871 0.8746 0.63381 0.0
N1891 N 0.0746 0.91001 0.61849 0.0
H1892 H 0.40442 0.83383 0.81762 0.0
H1893 H 0.35463 0.76358 0.92862 0.0
H1894 H 0.34541 0.84782 0.85616 0.0
H1895 H 0.41869 0.75265 0.90085 0.0
H1896 H 0.35022 0.79242 0.89872 0.0
H1897 H 0.40953 0.80235 0.84487 0.0
C1898 C 0.39261 0.83034 0.83176 0.0
C1899 C 0.37459 0.84364 0.83478 0.0
C1900 C 0.36527 0.78372 0.89903 0.0
C1901 C 0.38008 0.80764 0.86558 0.0
C1902 C 0.36772 0.76704 0.91604 0.0
C1903 C 0.38706 0.75553 0.91737 0.0
C1904 C 0.38223 0.78913 0.88299 0.0
C1905 C 0.40357 0.76121 0.90075 0.0
C1906 C 0.39549 0.81237 0.84725 0.0
C1907 C 0.35961 0.83815 0.85315 0.0
N1908 N 0.4008 0.77759 0.88428 0.0
N1909 N 0.36269 0.8207 0.86773 0.0
H1910 H 0.43754 0.15282 0.06494 0.0
H1911 H 0.50264 0.10449 0.18064 0.0
H1912 H 0.41931 0.09621 0.10589 0.0
H1913 H 0.51927 0.16518 0.14708 0.0
H1914 H 0.47358 0.10041 0.15091 0.0
H1915 H 0.46873 0.15723 0.09267 0.0
C1916 C 0.44004 0.14141 0.07977 0.0
C1917 C 0.42566 0.12427 0.08327 0.0
C1918 C 0.48359 0.11463 0.14992 0.0
C1919 C 0.46136 0.12894 0.11469 0.0
C1920 C 0.50038 0.11688 0.16684 0.0
C1921 C 0.51357 0.1352 0.16648 0.0
C1922 C 0.47977 0.13078 0.13228 0.0
C1923 C 0.50941 0.15089 0.14831 0.0
C1924 C 0.45786 0.14387 0.09552 0.0
C1925 C 0.42989 0.10971 0.10249 0.0
N1926 N 0.4929 0.14833 0.13198 0.0
N1927 N 0.44723 0.11239 0.11738 0.0
H1928 H 0.17268 0.85173 0.21056 0.0
H1929 H 0.10219 0.74929 0.17241 0.0
H1930 H 0.11743 0.8322 0.25319 0.0
H1931 H 0.16278 0.76687 0.13926 0.0
H1932 H 0.10613 0.77931 0.20159 0.0
H1933 H 0.16794 0.8208 0.18399 0.0
C1934 C 0.15947 0.84088 0.21439 0.0
C1935 C 0.14538 0.84469 0.23417 0.0
C1936 C 0.11859 0.77648 0.18801 0.0
C1937 C 0.13975 0.80878 0.20333 0.0
C1938 C 0.11633 0.7594 0.17124 0.0
C1939 C 0.1322 0.75541 0.15325 0.0
C1940 C 0.13677 0.78983 0.18668 0.0
C1941 C 0.15025 0.76898 0.15291 0.0
C1942 C 0.15677 0.82311 0.19911 0.0
C1943 C 0.12856 0.82997 0.23804 0.0
N1944 N 0.15194 0.78552 0.1692 0.0
N1945 N 0.12616 0.81265 0.22269 0.0
H1946 H 0.50208 0.92061 0.39419 0.0
H1947 H 0.43619 0.87 0.50796 0.0
H1948 H 0.51638 0.85766 0.42322 0.0
H1949 H 0.41769 0.92643 0.46694 0.0
H1950 H 0.46757 0.86599 0.48037 0.0
H1951 H 0.47324 0.92409 0.42423 0.0
C1952 C 0.49913 0.90744 0.40683 0.0
C1953 C 0.5116 0.8887 0.40585 0.0
C1954 C 0.45658 0.87922 0.47751 0.0
C1955 C 0.47843 0.89268 0.44082 0.0
C1956 C 0.43866 0.88145 0.49316 0.0
C1957 C 0.42414 0.8984 0.48954 0.0
C1958 C 0.46004 0.89424 0.45842 0.0
C1959 C 0.42835 0.91305 0.47041 0.0
C1960 C 0.48265 0.90947 0.42413 0.0
C1961 C 0.50727 0.87245 0.4233 0.0
N1962 N 0.4458 0.91062 0.45567 0.0
N1963 N 0.49098 0.87475 0.43998 0.0
H1964 H 0.35629 0.25315 0.64196 0.0
H1965 H 0.40583 0.18633 0.75575 0.0
H1966 H 0.41827 0.26807 0.67334 0.0
H1967 H 0.3476 0.16998 0.71683 0.0
H1968 H 0.41052 0.21738 0.72781 0.0
H1969 H 0.35232 0.22401 0.67163 0.0
C1970 C 0.36901 0.25049 0.65526 0.0
C1971 C 0.38763 0.26325 0.65504 0.0
C1972 C 0.39674 0.20694 0.72546 0.0
C1973 C 0.38332 0.22934 0.68918 0.0
C1974 C 0.39411 0.18921 0.74135 0.0
C1975 C 0.3764 0.17542 0.73851 0.0
C1976 C 0.38144 0.21093 0.70682 0.0
C1977 C 0.36154 0.1801 0.71974 0.0
C1978 C 0.36681 0.23365 0.67215 0.0
C1979 C 0.40372 0.25857 0.67257 0.0
N1980 N 0.36439 0.19734 0.70473 0.0
N1981 N 0.40121 0.24203 0.6889 0.0
H1982 H 0.08499 0.15391 1.00735 0.0
H1983 H 0.0133 0.09999 0.90065 0.0
H1984 H 0.10008 0.09487 0.96945 0.0
H1985 H 1.00582 0.16661 0.92097 0.0
H1986 H 0.04212 0.09672 0.93074 0.0
H1987 H 0.05318 0.15801 0.9804 0.0
C1988 C 0.08168 0.1419 0.99339 0.0
C1989 C 0.0954 0.1242 0.99041 0.0
C1990 C 0.0342 0.11209 0.9287 0.0
C1991 C 0.05898 0.12844 0.96014 0.0
C1992 C 0.01774 0.114 0.91137 0.0
C1993 C 1.00722 0.13369 0.90788 0.0
C1994 C 0.04034 0.12997 0.94293 0.0
C1995 C 0.01339 0.15108 0.92301 0.0
C1996 C 0.06353 0.14419 0.97811 0.0
C1997 C 0.09009 0.10886 0.97239 0.0
N1998 N 0.02962 0.14885 0.93978 0.0
N1999 N 0.07242 0.11133 0.95806 0.0
H2000 H 0.90486 0.83521 0.75522 0.0
H2001 H 0.8503 0.76324 0.64922 0.0
H2002 H 0.84539 0.84991 0.718 0.0
H2003 H 0.91729 0.75639 0.66819 0.0
H2004 H 0.84716 0.79188 0.67954 0.0
H2005 H 0.90892 0.80342 0.7282 0.0
C2006 C 0.89274 0.83181 0.74142 0.0
C2007 C 0.87491 0.84541 0.73864 0.0
C2008 C 0.86259 0.78414 0.67716 0.0
C2009 C 0.87913 0.80904 0.7083 0.0
C2010 C 0.86442 0.76778 0.6597 0.0
C2011 C 0.88418 0.75751 0.65575 0.0
C2012 C 0.88061 0.79043 0.69104 0.0
C2013 C 0.90171 0.76379 0.67058 0.0
C2014 C 0.89501 0.81368 0.72609 0.0
C2015 C 0.85947 0.84002 0.72078 0.0
N2016 N 0.89956 0.77993 0.68748 0.0
N2017 N 0.86193 0.82237 0.70641 0.0
H2018 H 0.02037 0.16469 0.42571 0.0
H2019 H 0.91673 0.09687 0.46659 0.0
H2020 H 0.99941 0.10552 0.39181 0.0
H2021 H 0.93758 0.15268 0.50732 0.0
H2022 H 0.94725 0.10078 0.43919 0.0
H2023 H 0.99099 0.1614 0.45588 0.0
C2024 C 1.00975 0.15093 0.42468 0.0
C2025 C 0.01237 0.13543 0.40595 0.0
C2026 C 0.94531 0.11227 0.45404 0.0
C2027 C 0.97856 0.13173 0.44034 0.0
C2028 C 0.92778 0.11004 0.4698 0.0
C2029 C 0.92443 0.12456 0.48925 0.0
C2030 C 0.95989 0.12922 0.45751 0.0
C2031 C 0.9394 0.14128 0.49238 0.0
C2032 C 0.9929 0.14915 0.44185 0.0
C2033 C 0.9979 0.11811 0.40549 0.0
N2034 N 0.9565 0.1432 0.47661 0.0
N2035 N 0.98171 0.1168 0.42228 0.0
H2036 H 0.67004 0.25297 0.14512 0.0
H2037 H 0.61705 0.18636 0.25691 0.0
H2038 H 0.60586 0.266 0.17126 0.0
H2039 H 0.67525 0.169 0.21857 0.0
H2040 H 0.61326 0.21751 0.22894 0.0
H2041 H 0.67309 0.22428 0.17542 0.0
C2042 C 0.65651 0.24977 0.15718 0.0
C2043 C 0.63756 0.26184 0.15531 0.0
C2044 C 0.62683 0.20682 0.22674 0.0
C2045 C 0.64104 0.22884 0.19057 0.0
C2046 C 0.62894 0.18904 0.24262 0.0
C2047 C 0.64634 0.1749 0.23987 0.0
C2048 C 0.6424 0.21055 0.20832 0.0
C2049 C 0.66151 0.17936 0.22136 0.0
C2050 C 0.6583 0.23338 0.17462 0.0
C2051 C 0.62082 0.2572 0.17204 0.0
N2052 N 0.65918 0.19668 0.2064 0.0
N2053 N 0.6229 0.24101 0.18888 0.0
H2054 H 0.5192 0.91778 0.89263 0.0
H2055 H 0.58454 0.86694 1.00669 0.0
H2056 H 0.50383 0.85532 0.92245 0.0
H2057 H 0.60207 0.9248 0.96769 0.0
H2058 H 0.5536 0.86266 0.97849 0.0
H2059 H 0.54814 0.92112 0.92256 0.0
C2060 C 0.52195 0.90468 0.9054 0.0
C2061 C 0.50909 0.88613 0.9047 0.0
C2062 C 0.56427 0.87627 0.97619 0.0
C2063 C 0.54241 0.88997 0.93961 0.0
C2064 C 0.58194 0.87866 0.99222 0.0
C2065 C 0.59604 0.89614 0.9894 0.0
C2066 C 0.56066 0.89159 0.95747 0.0
C2067 C 0.59171 0.91103 0.97058 0.0
C2068 C 0.53849 0.90664 0.92266 0.0
C2069 C 0.51321 0.86997 0.92231 0.0
N2070 N 0.57453 0.90841 0.95544 0.0
N2071 N 0.52956 0.87221 0.93896 0.0
H2072 H 0.85519 0.25415 0.93069 0.0
H2073 H 0.90499 0.18654 0.81773 0.0
H2074 H 0.91805 0.26765 0.90075 0.0
H2075 H 0.84667 0.17041 0.85662 0.0
H2076 H 0.9097 0.21765 0.84554 0.0
H2077 H 0.85108 0.22512 0.9009 0.0
C2078 C 0.86808 0.2512 0.91767 0.0
C2079 C 0.88699 0.2635 0.91834 0.0
C2080 C 0.8959 0.20725 0.84791 0.0
C2081 C 0.88251 0.22974 0.88409 0.0
C2082 C 0.89325 0.18949 0.83209 0.0
C2083 C 0.87552 0.17573 0.83499 0.0
C2084 C 0.88057 0.21133 0.8665 0.0
C2085 C 0.86062 0.1805 0.85368 0.0
C2086 C 0.86579 0.23443 0.90073 0.0
C2087 C 0.90327 0.25848 0.90117 0.0
N2088 N 0.86348 0.19779 0.86861 0.0
N2089 N 0.90066 0.24202 0.88478 0.0
H2090 H 0.51693 0.10021 0.67604 0.0
H2091 H 0.58414 0.15375 0.56512 0.0
H2092 H 0.50468 0.1649 0.65111 0.0
H2093 H 0.60158 0.09564 0.60355 0.0
H2094 H 0.55282 0.1574 0.59289 0.0
H2095 H 0.54562 0.09725 0.64573 0.0
C2096 C 0.52029 0.11386 0.66425 0.0
C2097 C 0.50845 0.13293 0.66648 0.0
C2098 C 0.56357 0.14388 0.59515 0.0
C2099 C 0.54145 0.12956 0.63119 0.0
C2100 C 0.58145 0.14186 0.57939 0.0
C2101 C 0.59566 0.12454 0.58224 0.0
C2102 C 0.55982 0.12828 0.61353 0.0
C2103 C 0.59116 0.10933 0.60069 0.0
C2104 C 0.53669 0.11213 0.64679 0.0
C2105 C 0.51329 0.14984 0.65006 0.0
N2106 N 0.57375 0.11156 0.61552 0.0
N2107 N 0.52949 0.14781 0.6332 0.0
H2108 H 0.61482 0.83495 0.31764 0.0
H2109 H 0.66642 0.76735 0.42943 0.0
H2110 H 0.67376 0.85084 0.35537 0.0
H2111 H 0.60277 0.75411 0.40168 0.0
H2112 H 0.66987 0.7964 0.39965 0.0
H2113 H 0.61037 0.80386 0.3456 0.0
C2114 C 0.62675 0.83195 0.33178 0.0
C2115 C 0.64458 0.84563 0.33431 0.0
C2116 C 0.6551 0.78719 0.39998 0.0
C2117 C 0.63983 0.81009 0.36596 0.0
C2118 C 0.65308 0.77059 0.41715 0.0
C2119 C 0.63418 0.7583 0.41839 0.0
C2120 C 0.63813 0.79175 0.38366 0.0
C2121 C 0.6177 0.76304 0.40139 0.0
C2122 C 0.62425 0.81421 0.34767 0.0
C2123 C 0.65972 0.84082 0.35271 0.0
N2124 N 0.62001 0.77944 0.38481 0.0
N2125 N 0.657 0.82357 0.36772 0.0
H2126 H 0.91929 0.92695 0.10452 0.0
H2127 H 0.01912 0.85555 0.14864 0.0
H2128 H 0.93753 0.86926 0.06574 0.0
H2129 H 1.00081 0.91645 0.1803 0.0
H2130 H 0.99039 0.85956 0.11777 0.0
H2131 H 0.94969 0.92258 0.13189 0.0
C2132 C 0.92975 0.91327 0.10171 0.0
C2133 C 0.92563 0.89832 0.08289 0.0
C2134 C 0.99275 0.87203 0.13145 0.0
C2135 C 0.96096 0.89311 0.11467 0.0
C2136 C 1.00922 0.86983 0.14903 0.0
C2137 C 0.01236 0.88561 0.16735 0.0
C2138 C 0.97933 0.89016 0.13214 0.0
C2139 C 0.99885 0.90364 0.16696 0.0
C2140 C 0.94721 0.91078 0.11747 0.0
C2141 C 0.93991 0.881 0.08023 0.0
N2142 N 0.98301 0.90534 0.1498 0.0
N2143 N 0.95693 0.87879 0.09606 0.0
H2144 H 0.67477 0.66817 0.8572 0.0
H2145 H 0.60463 0.76901 0.9 0.0
H2146 H 0.61851 0.68776 0.81653 0.0
H2147 H 0.66671 0.7521 0.92959 0.0
H2148 H 0.60827 0.74002 0.86939 0.0
H2149 H 0.67077 0.69895 0.88402 0.0
C2150 C 0.66148 0.67901 0.85386 0.0
C2151 C 0.64684 0.6752 0.83463 0.0
C2152 C 0.62109 0.74277 0.88254 0.0
C2153 C 0.64206 0.71095 0.86578 0.0
C2154 C 0.61909 0.75937 0.89997 0.0
C2155 C 0.6353 0.76293 0.91768 0.0
C2156 C 0.63941 0.72962 0.88284 0.0
C2157 C 0.65357 0.74977 0.91677 0.0
C2158 C 0.65921 0.6967 0.86929 0.0
C2159 C 0.63 0.68993 0.83133 0.0
N2160 N 0.65504 0.73376 0.89982 0.0
N2161 N 0.62798 0.70716 0.84687 0.0
H2162 H 0.58473 0.36506 0.06653 0.0
H2163 H 0.51762 0.41672 0.17883 0.0
H2164 H 0.6011 0.42391 0.10416 0.0
H2165 H 0.50323 0.35387 0.14948 0.0
H2166 H 0.54664 0.42026 0.14893 0.0
H2167 H 0.55357 0.36094 0.09442 0.0
C2168 C 0.58182 0.37704 0.08063 0.0
C2169 C 0.59567 0.39475 0.08314 0.0
C2170 C 0.53714 0.40568 0.14891 0.0
C2171 C 0.56002 0.39037 0.11476 0.0
C2172 C 0.52036 0.40372 0.16592 0.0
C2173 C 0.50781 0.38497 0.1668 0.0
C2174 C 0.54159 0.38879 0.13241 0.0
C2175 C 0.51259 0.36853 0.14975 0.0
C2176 C 0.56403 0.37473 0.09649 0.0
C2177 C 0.59095 0.40996 0.10152 0.0
N2178 N 0.52907 0.37081 0.13329 0.0
N2179 N 0.57365 0.40742 0.11651 0.0
H2180 H 0.84531 0.35053 0.35738 0.0
H2181 H 0.91787 0.25053 0.39742 0.0
H2182 H 0.90228 0.33317 0.31664 0.0
H2183 H 0.85569 0.26553 0.42816 0.0
H2184 H 0.91356 0.28026 0.36795 0.0
H2185 H 0.84992 0.31927 0.38342 0.0
C2186 C 0.85888 0.34008 0.35385 0.0
C2187 C 0.87353 0.34464 0.33484 0.0
C2188 C 0.90083 0.27689 0.38104 0.0
C2189 C 0.87901 0.30838 0.36506 0.0
C2190 C 0.9033 0.25999 0.39797 0.0
C2191 C 0.88711 0.25543 0.41541 0.0
C2192 C 0.88212 0.28946 0.38165 0.0
C2193 C 0.8685 0.26813 0.41496 0.0
C2194 C 0.86149 0.32212 0.36882 0.0
C2195 C 0.89074 0.33039 0.33126 0.0
N2196 N 0.86662 0.28453 0.39853 0.0
N2197 N 0.89309 0.31291 0.34635 0.0
H2198 H 0.93672 0.65484 0.56558 0.0
H2199 H 1.00134 0.605 0.68089 0.0
H2200 H 0.9187 0.5974 0.60511 0.0
H2201 H 0.01881 0.66564 0.64778 0.0
H2202 H 0.97218 0.60153 0.65119 0.0
H2203 H 0.96771 0.65903 0.5937 0.0
C2204 C 0.93922 0.64319 0.58015 0.0
C2205 C 0.92499 0.62584 0.58309 0.0
C2206 C 0.98239 0.61561 0.65029 0.0
C2207 C 0.96042 0.63031 0.61501 0.0
C2208 C 0.99924 0.61751 0.6672 0.0
C2209 C 0.01273 0.63561 0.66694 0.0
C2210 C 0.97879 0.63189 0.63275 0.0
C2211 C 1.00874 0.65149 0.64893 0.0
C2212 C 0.95692 0.64553 0.59614 0.0
C2213 C 0.92918 0.61106 0.6021 0.0
N2214 N 0.99217 0.64927 0.63259 0.0
N2215 N 0.94639 0.61363 0.61722 0.0
H2216 H 0.67397 0.35198 0.71712 0.0
H2217 H 0.6019 0.25195 0.67427 0.0
H2218 H 0.61519 0.33498 0.75459 0.0
H2219 H 0.66356 0.26861 0.64313 0.0
H2220 H 0.60566 0.28172 0.70373 0.0
H2221 H 0.66965 0.32119 0.6901 0.0
C2222 C 0.66008 0.34171 0.7197 0.0
C2223 C 0.64485 0.3462 0.73812 0.0
C2224 C 0.61839 0.27875 0.69052 0.0
C2225 C 0.63971 0.31052 0.70684 0.0
C2226 C 0.61624 0.26181 0.67359 0.0
C2227 C 0.63245 0.25764 0.65607 0.0
C2228 C 0.63684 0.29177 0.68989 0.0
C2229 C 0.65075 0.27087 0.6564 0.0
C2230 C 0.65762 0.32405 0.70418 0.0
C2231 C 0.62721 0.33224 0.74049 0.0
N2232 N 0.65236 0.28728 0.67289 0.0
N2233 N 0.62507 0.31502 0.72495 0.0
H2234 H 0.93764 0.36871 1.00681 0.0
H2235 H 1.00465 0.41663 0.89217 0.0
H2236 H 0.92004 0.42463 0.96437 0.0
H2237 H 0.01955 0.35504 0.9245 0.0
H2238 H 0.9755 0.42081 0.92171 0.0
H2239 H 0.96924 0.36399 0.97967 0.0
C2240 C 0.94036 0.3799 0.99181 0.0
C2241 C 0.92603 0.39694 0.9877 0.0
C2242 C 0.98514 0.40637 0.92248 0.0
C2243 C 0.96217 0.39195 0.95701 0.0
C2244 C 1.00199 0.40406 0.90568 0.0
C2245 C 0.01472 0.38547 0.90574 0.0
C2246 C 0.98078 0.39001 0.93972 0.0
C2247 C 1.01005 0.36956 0.92352 0.0
C2248 C 0.9584 0.37727 0.9764 0.0
C2249 C 0.93054 0.41121 0.96826 0.0
N2250 N 0.99348 0.37218 0.93977 0.0
N2251 N 0.94808 0.40839 0.95376 0.0
H2252 H 0.91878 0.77023 0.17552 0.0
H2253 H 0.848 0.66792 0.21413 0.0
H2254 H 0.8589 0.75202 0.14115 0.0
H2255 H 0.90442 0.68673 0.25505 0.0
H2256 H 0.85266 0.69879 0.18728 0.0
H2257 H 0.91476 0.74014 0.20451 0.0
C2258 C 0.90479 0.75996 0.17402 0.0
C2259 C 0.88914 0.7638 0.15575 0.0
C2260 C 0.8641 0.69631 0.20207 0.0
C2261 C 0.88446 0.72928 0.18904 0.0
C2262 C 0.86145 0.67859 0.2175 0.0
C2263 C 0.87592 0.67459 0.23684 0.0
C2264 C 0.88143 0.71038 0.20577 0.0
C2265 C 0.89302 0.68907 0.24019 0.0
C2266 C 0.90248 0.74282 0.19069 0.0
C2267 C 0.87125 0.75002 0.15503 0.0
N2268 N 0.89536 0.70633 0.22475 0.0
N2269 N 0.86949 0.73344 0.17129 0.0
H2270 H 0.59988 0.59267 0.4679 0.0
H2271 H 0.50267 0.66651 0.42173 0.0
H2272 H 0.58404 0.65196 0.50486 0.0
H2273 H 0.51714 0.6032 0.39394 0.0
H2274 H 0.5315 0.66241 0.45246 0.0
H2275 H 0.56921 0.59722 0.44098 0.0
C2276 C 0.58989 0.60674 0.47041 0.0
C2277 C 0.59477 0.62208 0.48859 0.0
C2278 C 0.52826 0.64943 0.43967 0.0
C2279 C 0.55914 0.62751 0.45728 0.0
C2280 C 0.51174 0.65169 0.42217 0.0
C2281 C 0.5075 0.63525 0.40494 0.0
C2282 C 0.54066 0.63058 0.43998 0.0
C2283 C 0.51998 0.61652 0.40637 0.0
C2284 C 0.57227 0.60933 0.45492 0.0
C2285 C 0.58106 0.63989 0.49087 0.0
N2286 N 0.53591 0.61478 0.42341 0.0
N2287 N 0.5639 0.64221 0.47527 0.0
H2288 H 0.41806 0.25033 0.17584 0.0
H2289 H 0.34828 0.35334 0.21252 0.0
H2290 H 0.35772 0.26785 0.14221 0.0
H2291 H 0.40312 0.33374 0.25566 0.0
H2292 H 0.35278 0.32212 0.18635 0.0
H2293 H 0.41414 0.2805 0.20478 0.0
C2294 C 0.40397 0.26045 0.17454 0.0
C2295 C 0.38817 0.25644 0.15647 0.0
C2296 C 0.3639 0.32449 0.20149 0.0
C2297 C 0.38363 0.291 0.18959 0.0
C2298 C 0.36135 0.34241 0.21653 0.0
C2299 C 0.37542 0.34629 0.23629 0.0
C2300 C 0.38075 0.31007 0.20598 0.0
C2301 C 0.39205 0.33148 0.24046 0.0
C2302 C 0.40172 0.27761 0.19116 0.0
C2303 C 0.37018 0.27 0.15594 0.0
N2304 N 0.39432 0.31401 0.22535 0.0
N2305 N 0.3685 0.28663 0.17208 0.0
H2306 H 0.50361 0.60462 0.89076 0.0
H2307 H 0.43803 0.65163 1.00687 0.0
H2308 H 0.51929 0.6658 0.92371 0.0
H2309 H 0.41943 0.59637 0.96376 0.0
H2310 H 0.46939 0.6565 0.97937 0.0
H2311 H 0.47461 0.60031 0.92052 0.0
C2312 C 0.50115 0.61708 0.90444 0.0
C2313 C 0.51406 0.63559 0.90462 0.0
C2314 C 0.45838 0.64334 0.97602 0.0
C2315 C 0.4803 0.6309 0.93886 0.0
C2316 C 0.44047 0.64062 0.99164 0.0
C2317 C 0.42593 0.62372 0.98746 0.0
C2318 C 0.46181 0.62888 0.95635 0.0
C2319 C 0.4301 0.60968 0.96772 0.0
C2320 C 0.48439 0.61469 0.92137 0.0
C2321 C 0.50965 0.65134 0.92264 0.0
N2322 N 0.44753 0.61258 0.95303 0.0
N2323 N 0.49317 0.64866 0.93901 0.0
H2324 H 0.16417 0.75519 0.64063 0.0
H2325 H 0.11694 0.68733 0.75491 0.0
H2326 H 0.10192 0.76875 0.67202 0.0
H2327 H 0.17234 0.66982 0.7115 0.0
H2328 H 0.11182 0.71893 0.72784 0.0
H2329 H 0.16854 0.72596 0.67003 0.0
C2330 C 0.15148 0.75221 0.65389 0.0
C2331 C 0.13266 0.76458 0.65375 0.0
C2332 C 0.12506 0.70809 0.72433 0.0
C2333 C 0.13743 0.73057 0.68756 0.0
C2334 C 0.12793 0.69006 0.73971 0.0
C2335 C 0.14495 0.67577 0.73532 0.0
C2336 C 0.13951 0.7119 0.70474 0.0
C2337 C 0.15894 0.68029 0.71562 0.0
C2338 C 0.1539 0.73532 0.67061 0.0
C2339 C 0.11662 0.75953 0.67123 0.0
N2340 N 0.15592 0.69784 0.70119 0.0
N2341 N 0.11936 0.74293 0.68742 0.0
H2342 H 0.01784 0.4175 0.39101 0.0
H2343 H 0.08336 0.36791 0.50574 0.0
H2344 H 1.00318 0.35478 0.4206 0.0
H2345 H 0.10024 0.42566 0.46613 0.0
H2346 H 0.05239 0.36314 0.4776 0.0
H2347 H 0.04636 0.42133 0.42136 0.0
C2348 C 0.02066 0.40443 0.40382 0.0
C2349 C 1.00814 0.38567 0.4029 0.0
C2350 C 0.06293 0.37684 0.47518 0.0
C2351 C 0.04101 0.39007 0.43832 0.0
C2352 C 0.08061 0.37951 0.49117 0.0
C2353 C 0.09458 0.39707 0.48812 0.0
C2354 C 0.05916 0.39198 0.45629 0.0
C2355 C 0.09003 0.41181 0.4692 0.0
C2356 C 0.03696 0.40667 0.42133 0.0
C2357 C 0.01233 0.36958 0.4206 0.0
N2358 N 0.07286 0.40893 0.45414 0.0
N2359 N 0.02846 0.37209 0.43749 0.0
H2360 H 0.4173 0.77142 0.3984 0.0
H2361 H 0.3473 0.66827 0.36152 0.0
H2362 H 0.35778 0.75263 0.43319 0.0
H2363 H 0.40213 0.68794 0.31825 0.0
H2364 H 0.35221 0.69916 0.38805 0.0
H2365 H 0.41332 0.74135 0.36927 0.0
C2366 C 0.40339 0.76104 0.39994 0.0
C2367 C 0.38782 0.7647 0.41837 0.0
C2368 C 0.36325 0.6969 0.3728 0.0
C2369 C 0.38321 0.73025 0.385 0.0
C2370 C 0.36046 0.67915 0.35753 0.0
C2371 C 0.37437 0.67538 0.33759 0.0
C2372 C 0.38018 0.71129 0.36838 0.0
C2373 C 0.39112 0.69014 0.33352 0.0
C2374 C 0.40111 0.74393 0.38321 0.0
C2375 C 0.37005 0.75079 0.41919 0.0
N2376 N 0.39362 0.70747 0.34886 0.0
N2377 N 0.36833 0.73425 0.40291 0.0
H2378 H 0.10314 0.59428 0.10688 0.0
H2379 H 1.00033 0.66428 0.14386 0.0
H2380 H 0.08376 0.64938 0.06405 0.0
H2381 H 0.01808 0.60415 0.17784 0.0
H2382 H 0.03031 0.66019 0.1147 0.0
H2383 H 0.07184 0.59868 0.13297 0.0
C2384 C 0.09224 0.60739 0.10291 0.0
C2385 C 0.09624 0.6216 0.0833 0.0
C2386 C 0.02751 0.64785 0.12844 0.0
C2387 C 0.05993 0.62682 0.11353 0.0
C2388 C 0.01045 0.6502 0.1452 0.0
C2389 C 1.00656 0.63451 0.16344 0.0
C2390 C 0.04091 0.62977 0.13003 0.0
C2391 C 0.02012 0.61653 0.16399 0.0
C2392 C 0.07427 0.60989 0.11791 0.0
C2393 C 0.08144 0.63823 0.07916 0.0
N2394 N 0.03665 0.61475 0.14771 0.0
N2395 N 0.06394 0.64047 0.09425 0.0
H2396 H 0.17352 0.35495 0.86038 0.0
H2397 H 0.10615 0.25073 0.90028 0.0
H2398 H 0.11929 0.33292 0.81769 0.0
H2399 H 0.16339 0.27379 0.93667 0.0
H2400 H 0.10985 0.27973 0.86964 0.0
H2401 H 0.16904 0.32486 0.88818 0.0
C2402 C 0.16057 0.34372 0.85681 0.0
C2403 C 0.14668 0.34662 0.83667 0.0
C2404 C 0.12158 0.27837 0.88432 0.0
C2405 C 0.14137 0.3116 0.86893 0.0
C2406 C 0.11957 0.26175 0.90178 0.0
C2407 C 0.13439 0.25983 0.92133 0.0
C2408 C 0.13858 0.29316 0.88638 0.0
C2409 C 0.1513 0.27475 0.92234 0.0
C2410 C 0.15802 0.32643 0.87282 0.0
C2411 C 0.13022 0.33143 0.83314 0.0
N2412 N 0.15286 0.29068 0.90525 0.0
N2413 N 0.12797 0.31455 0.84917 0.0
H2414 H 0.50545 0.42158 0.67274 0.0
H2415 H 0.43584 0.36757 0.56409 0.0
H2416 H 0.51497 0.35572 0.6504 0.0
H2417 H 0.42071 0.42727 0.60054 0.0
H2418 H 0.46723 0.3636 0.59169 0.0
H2419 H 0.47692 0.42483 0.64229 0.0
C2420 C 0.50152 0.40773 0.6615 0.0
C2421 C 0.51256 0.38825 0.66451 0.0
C2422 C 0.45698 0.37754 0.59354 0.0
C2423 C 0.47974 0.39197 0.62903 0.0
C2424 C 0.43906 0.37975 0.57788 0.0
C2425 C 0.42542 0.39758 0.58028 0.0
C2426 C 0.46138 0.39348 0.61135 0.0
C2427 C 0.43063 0.41316 0.59807 0.0
C2428 C 0.48522 0.40963 0.64395 0.0
C2429 C 0.50701 0.37109 0.64875 0.0
N2430 N 0.44807 0.41073 0.61282 0.0
N2431 N 0.49092 0.3733 0.63179 0.0
H2432 H 0.15157 0.06344 0.29573 0.0
H2433 H 0.08385 0.95479 0.29969 0.0
H2434 H 0.08338 0.06165 0.28184 0.0
H2435 H 0.15051 0.95556 0.27796 0.0
H2436 H 0.08405 0.99418 0.30029 0.0
H2437 H 0.15219 0.02399 0.2952 0.0
C2438 C 0.13678 0.05474 0.29231 0.0
C2439 C 0.11742 0.06581 0.28865 0.0
C2440 C 0.09866 0.9857 0.29553 0.0
C2441 C 0.11791 0.02079 0.28877 0.0
C2442 C 0.09861 0.96323 0.2954 0.0
C2443 C 0.11721 0.95189 0.2888 0.0
C2444 C 0.11753 0.99692 0.28945 0.0
C2445 C 0.13585 0.96369 0.28323 0.0
C2446 C 0.13714 0.03227 0.2921 0.0
C2447 C 0.09868 0.05376 0.28457 0.0
N2448 N 0.13557 0.98556 0.28375 0.0
N2449 N 0.09934 0.0319 0.285 0.0
H2450 H 0.20604 0.83134 0.52738 0.0
H2451 H 0.31417 0.89967 0.53004 0.0
H2452 H 0.20673 0.89868 0.54608 0.0
H2453 H 0.31322 0.83187 0.54637 0.0
H2454 H 0.27484 0.89986 0.53042 0.0
H2455 H 0.24549 0.83138 0.52783 0.0
C2456 C 0.21449 0.84619 0.53124 0.0
C2457 C 0.20312 0.86507 0.5366 0.0
C2458 C 0.28324 0.88499 0.53414 0.0
C2459 C 0.24813 0.8652 0.53716 0.0
C2460 C 0.30568 0.88489 0.53406 0.0
C2461 C 0.31698 0.86578 0.53845 0.0
C2462 C 0.27197 0.86574 0.53807 0.0
C2463 C 0.30514 0.84699 0.54312 0.0
C2464 C 0.23697 0.84615 0.53172 0.0
C2465 C 0.21487 0.88381 0.54172 0.0
N2466 N 0.28326 0.84739 0.54255 0.0
N2467 N 0.23673 0.88344 0.54177 0.0
H2468 H 0.36946 0.95612 0.79731 0.0
H2469 H 0.4389 0.06384 0.79858 0.0
H2470 H 0.43701 0.9574 0.77966 0.0
H2471 H 0.37112 0.06441 0.7821 0.0
H2472 H 0.43808 0.02448 0.79864 0.0
H2473 H 0.36926 0.99559 0.7975 0.0
C2474 C 0.38418 0.96472 0.79323 0.0
C2475 C 0.40325 0.95349 0.78833 0.0
C2476 C 0.42337 0.03323 0.79514 0.0
C2477 C 0.40327 0.99852 0.78922 0.0
C2478 C 0.42378 0.05569 0.79533 0.0
C2479 C 0.40504 0.0674 0.79032 0.0
C2480 C 0.40401 0.02238 0.79032 0.0
C2481 C 0.38592 0.05597 0.78607 0.0
C2482 C 0.38407 0.9872 0.79342 0.0
C2483 C 0.42192 0.9654 0.78337 0.0
N2484 N 0.38587 0.03409 0.78622 0.0
N2485 N 0.42152 0.98726 0.7842 0.0
H2486 H 0.20664 0.12129 1.02844 0.0
H2487 H 0.31466 0.19014 1.02751 0.0
H2488 H 0.20797 0.18857 0.04737 0.0
H2489 H 0.31463 0.12207 0.04233 0.0
H2490 H 0.27526 0.18976 1.02815 0.0
H2491 H 0.24603 0.12106 1.02802 0.0
C2492 C 0.21523 0.13595 1.03282 0.0
C2493 C 0.20403 0.15493 0.03816 0.0
C2494 C 0.2839 0.1749 1.03114 0.0
C2495 C 0.24904 0.15494 0.03693 0.0
C2496 C 0.30636 0.17506 1.03054 0.0
C2497 C 0.31792 0.15608 1.03483 0.0
C2498 C 0.2729 0.15557 1.03564 0.0
C2499 C 0.30633 0.13703 0.03887 0.0
C2500 C 0.23769 0.13582 1.03246 0.0
C2501 C 0.21597 0.17354 0.04336 0.0
N2502 N 0.28445 0.13723 0.0391 0.0
N2503 N 0.23783 0.17314 0.04236 0.0
H2504 H 0.93934 0.06449 0.77678 0.0
H2505 H 0.87054 0.95646 0.77924 0.0
H2506 H 0.87129 0.06456 0.79182 0.0
H2507 H 0.93809 0.95804 0.79685 0.0
H2508 H 0.87019 0.99584 0.77865 0.0
H2509 H 0.93895 0.02512 0.77763 0.0
C2510 C 0.92425 0.05622 0.77989 0.0
C2511 C 0.9053 0.0678 0.78422 0.0
C2512 C 0.88503 0.98756 0.78285 0.0
C2513 C 0.90478 0.0228 0.78531 0.0
C2514 C 0.88522 0.96511 0.78332 0.0
C2515 C 0.90433 0.95398 0.78829 0.0
C2516 C 0.90419 0.99897 0.78686 0.0
C2517 C 0.92297 0.96598 0.79312 0.0
C2518 C 0.92409 0.03377 0.78062 0.0
C2519 C 0.88624 0.05624 0.78835 0.0
N2520 N 0.92249 0.98783 0.79203 0.0
N2521 N 0.88644 0.03437 0.78875 0.0
H2522 H 0.70684 0.19148 0.52681 0.0
H2523 H 0.81458 0.12234 0.53251 0.0
H2524 H 0.70669 0.12377 0.54373 0.0
H2525 H 0.81366 0.19069 0.54539 0.0
H2526 H 0.7752 0.1222 0.532 0.0
H2527 H 0.74625 0.1912 0.52781 0.0
C2528 C 0.7151 0.1765 0.53039 0.0
C2529 C 0.70348 0.1576 0.53513 0.0
C2530 C 0.78361 0.13719 0.53516 0.0
C2531 C 0.74851 0.1572 0.5364 0.0
C2532 C 0.80607 0.13727 0.53556 0.0
C2533 C 0.81739 0.15653 0.53917 0.0
C2534 C 0.77237 0.15659 0.53789 0.0
C2535 C 0.80557 0.17546 0.54274 0.0
C2536 C 0.73757 0.1764 0.53118 0.0
C2537 C 0.71502 0.13868 0.53987 0.0
N2538 N 0.7837 0.17506 0.54176 0.0
N2539 N 0.73689 0.13894 0.54033 0.0
H2540 H 0.5801 0.0639 0.29639 0.0
H2541 H 0.64912 0.95612 0.29039 0.0
H2542 H 0.64784 0.06419 0.27966 0.0
H2543 H 0.58082 0.95739 0.27715 0.0
H2544 H 0.64941 0.99552 0.29111 0.0
H2545 H 0.58044 0.02451 0.29529 0.0
C2546 C 0.5951 0.05567 0.29285 0.0
C2547 C 0.61399 0.06732 0.28816 0.0
C2548 C 0.63441 0.98717 0.28783 0.0
C2549 C 0.61446 0.02232 0.28675 0.0
C2550 C 0.63425 0.96471 0.28731 0.0
C2551 C 0.61495 0.95349 0.28357 0.0
C2552 C 0.61505 0.99849 0.28508 0.0
C2553 C 0.59608 0.9654 0.27992 0.0
C2554 C 0.59524 0.03322 0.29199 0.0
C2555 C 0.63295 0.05582 0.28347 0.0
N2556 N 0.59657 0.98725 0.28102 0.0
N2557 N 0.63272 0.03397 0.28292 0.0
H2558 H 0.70632 0.89934 1.03243 0.0
H2559 H 0.81427 0.83053 1.03041 0.0
H2560 H 0.70717 0.83126 0.04713 0.0
H2561 H 0.81406 0.89823 0.0473 0.0
H2562 H 0.77485 0.83075 1.03062 0.0
H2563 H 0.74572 0.8996 1.03302 0.0
C2564 C 0.7148 0.8845 1.03609 0.0
C2565 C 0.70345 0.86528 0.0399 0.0
C2566 C 0.78345 0.84556 1.03419 0.0
C2567 C 0.74851 0.86534 0.03989 0.0
C2568 C 0.80593 0.84549 1.03386 0.0
C2569 C 0.81745 0.86441 0.0388 0.0
C2570 C 0.77239 0.86476 0.03909 0.0
C2571 C 0.80581 0.88331 0.04333 0.0
C2572 C 0.73727 0.88465 0.03632 0.0
C2573 C 0.71527 0.84647 0.04427 0.0
N2574 N 0.78393 0.88303 0.04328 0.0
N2575 N 0.73714 0.84692 0.04389 0.0
H2576 H 0.58174 0.56485 0.77418 0.0
H2577 H 0.6492 0.45628 0.78258 0.0
H2578 H 0.64876 0.56437 0.79437 0.0
H2579 H 0.58068 0.45828 0.79407 0.0
H2580 H 0.64995 0.49568 0.78198 0.0
H2581 H 0.5816 0.52544 0.77527 0.0
C2582 C 0.5965 0.55645 0.77848 0.0
C2583 C 0.61531 0.56788 0.78413 0.0
C2584 C 0.63479 0.48748 0.78485 0.0
C2585 C 0.61524 0.52286 0.7855 0.0
C2586 C 0.63436 0.46503 0.78531 0.0
C2587 C 0.61488 0.45401 0.78854 0.0
C2588 C 0.61551 0.49902 0.78712 0.0
C2589 C 0.59608 0.46613 0.7917 0.0
C2590 C 0.59636 0.53398 0.77933 0.0
C2591 C 0.63393 0.55617 0.7898 0.0
N2592 N 0.59682 0.48798 0.79065 0.0
N2593 N 0.63345 0.53431 0.79028 0.0
H2594 H 0.81457 0.39986 1.02421 0.0
H2595 H 0.707 0.33029 1.02524 0.0
H2596 H 0.81369 0.33296 0.04487 0.0
H2597 H 0.70654 0.39856 0.03871 0.0
H2598 H 0.7464 0.33099 1.02562 0.0
H2599 H 0.77517 0.39983 1.02383 0.0
C2600 C 0.80608 0.38524 1.02897 0.0
C2601 C 0.81742 0.36644 1.03481 0.0
C2602 C 0.73765 0.34583 1.02836 0.0
C2603 C 0.77239 0.36611 1.03361 0.0
C2604 C 0.71518 0.34548 1.02791 0.0
C2605 C 0.70349 0.36442 1.03191 0.0
C2606 C 0.74853 0.3653 1.03241 0.0
C2607 C 0.71495 0.38362 1.03548 0.0
C2608 C 0.78362 0.38521 1.02863 0.0
C2609 C 0.8056 0.34785 0.04046 0.0
N2610 N 0.73683 0.3836 1.03558 0.0
N2611 N 0.78373 0.3481 0.03948 0.0
H2612 H 0.87061 0.56462 0.28191 0.0
H2613 H 0.93745 0.45584 0.2745 0.0
H2614 H 0.93903 0.56247 0.29406 0.0
H2615 H 0.87088 0.45653 0.29655 0.0
H2616 H 0.93767 0.49524 0.27526 0.0
H2617 H 0.86968 0.52521 0.2821 0.0
C2618 C 0.88538 0.55585 0.28495 0.0
C2619 C 0.9049 0.56683 0.28815 0.0
C2620 C 0.923 0.48675 0.27982 0.0
C2621 C 0.90406 0.5218 0.28759 0.0
C2622 C 0.9228 0.46428 0.27917 0.0
C2623 C 0.90409 0.45291 0.28541 0.0
C2624 C 0.90426 0.49794 0.28634 0.0
C2625 C 0.88561 0.46468 0.29152 0.0
C2626 C 0.88486 0.53338 0.28494 0.0
C2627 C 0.92362 0.55466 0.29171 0.0
N2628 N 0.88613 0.48656 0.29175 0.0
N2629 N 0.92278 0.53281 0.29106 0.0
H2630 H 0.70662 0.62051 0.52339 0.0
H2631 H 0.8143 0.69015 0.52326 0.0
H2632 H 0.70748 0.68794 0.54161 0.0
H2633 H 0.81456 0.62209 0.53815 0.0
H2634 H 0.7749 0.68947 0.52313 0.0
H2635 H 0.74603 0.62054 0.52306 0.0
C2636 C 0.71511 0.63526 0.52759 0.0
C2637 C 0.70377 0.65421 0.53274 0.0
C2638 C 0.7836 0.67467 0.52628 0.0
C2639 C 0.7488 0.6545 0.53165 0.0
C2640 C 0.80607 0.675 0.52613 0.0
C2641 C 0.81771 0.65612 0.5307 0.0
C2642 C 0.77267 0.65527 0.53063 0.0
C2643 C 0.8062 0.63698 0.53451 0.0
C2644 C 0.73758 0.63528 0.5273 0.0
C2645 C 0.71559 0.67294 0.53773 0.0
N2646 N 0.78432 0.63702 0.53433 0.0
N2647 N 0.73745 0.67267 0.53683 0.0
H2648 H 0.36907 0.56454 0.29461 0.0
H2649 H 0.43869 0.45729 0.2972 0.0
H2650 H 0.43671 0.56402 0.2774 0.0
H2651 H 0.37117 0.45664 0.27939 0.0
H2652 H 0.43797 0.49672 0.29694 0.0
H2653 H 0.36915 0.52513 0.29485 0.0
C2654 C 0.38387 0.55612 0.29058 0.0
C2655 C 0.40287 0.56756 0.28577 0.0
C2656 C 0.4233 0.48791 0.29324 0.0
C2657 C 0.40322 0.52255 0.28681 0.0
C2658 C 0.42365 0.46544 0.29362 0.0
C2659 C 0.40493 0.45369 0.28838 0.0
C2660 C 0.40403 0.49871 0.288 0.0
C2661 C 0.38593 0.46509 0.28363 0.0
C2662 C 0.38392 0.53366 0.29083 0.0
C2663 C 0.42167 0.55584 0.28098 0.0
N2664 N 0.38593 0.48696 0.28363 0.0
N2665 N 0.42143 0.53398 0.28188 0.0
H2666 H 0.31515 0.61989 1.0284 0.0
H2667 H 0.20706 0.68812 1.02648 0.0
H2668 H 0.31421 0.6876 0.04517 0.0
H2669 H 0.20755 0.62068 0.04473 0.0
H2670 H 0.24652 0.68805 1.0267 0.0
H2671 H 0.27577 0.61959 1.02876 0.0
C2672 C 0.30665 0.63463 1.03247 0.0
C2673 C 0.31796 0.65375 0.03699 0.0
C2674 C 0.23795 0.67326 1.03053 0.0
C2675 C 0.27293 0.65367 0.03664 0.0
C2676 C 0.21546 0.67324 1.03019 0.0
C2677 C 0.20403 0.65435 1.03551 0.0
C2678 C 0.24907 0.65418 1.03579 0.0
C2679 C 0.21574 0.63557 0.04042 0.0
C2680 C 0.28419 0.63447 1.03256 0.0
C2681 C 0.30612 0.67247 0.04181 0.0
N2682 N 0.2376 0.63592 0.04034 0.0
N2683 N 0.28424 0.67201 0.04125 0.0
H2684 H 0.08239 0.45647 0.77568 0.0
H2685 H 0.15119 0.56455 0.77708 0.0
H2686 H 0.15013 0.45658 0.79238 0.0
H2687 H 0.0837 0.56326 0.795 0.0
H2688 H 0.15145 0.52513 0.77701 0.0
H2689 H 0.0828 0.49589 0.77592 0.0
C2690 C 0.09742 0.46478 0.77902 0.0
C2691 C 0.11628 0.45324 0.78395 0.0
C2692 C 0.13663 0.53349 0.78115 0.0
C2693 C 0.11684 0.49828 0.7843 0.0
C2694 C 0.1365 0.55596 0.7813 0.0
C2695 C 0.11744 0.56719 0.78625 0.0
C2696 C 0.11746 0.52215 0.78541 0.0
C2697 C 0.09878 0.55525 0.79129 0.0
C2698 C 0.09759 0.48726 0.77939 0.0
C2699 C 0.13525 0.46486 0.78839 0.0
N2700 N 0.0992 0.53339 0.79048 0.0
N2701 N 0.13508 0.48673 0.78839 0.0
H2702 H 0.20612 0.39935 0.52641 0.0
H2703 H 0.31333 0.32953 0.52929 0.0
H2704 H 0.20606 0.33188 0.54447 0.0
H2705 H 0.31356 0.39755 0.54439 0.0
H2706 H 0.27392 0.33018 0.52846 0.0
H2707 H 0.24552 0.39921 0.52757 0.0
C2708 C 0.21441 0.38457 0.53088 0.0
C2709 C 0.20282 0.36563 0.53551 0.0
C2710 C 0.28262 0.34496 0.53185 0.0
C2711 C 0.24783 0.36522 0.53617 0.0
C2712 C 0.30509 0.34464 0.53213 0.0
C2713 C 0.3167 0.36353 0.53689 0.0
C2714 C 0.2717 0.36438 0.53595 0.0
C2715 C 0.30521 0.38264 0.54061 0.0
C2716 C 0.23686 0.38448 0.53145 0.0
C2717 C 0.21436 0.34686 0.54094 0.0
N2718 N 0.28335 0.38261 0.53997 0.0
N2719 N 0.23623 0.34707 0.54088 0.0
H2720 H 0.1239 0.17852 0.10067 0.0
H2721 H 0.13449 0.10594 0.22115 0.0
H2722 H 0.12497 0.10924 0.10126 0.0
H2723 H 0.11104 0.17078 0.22788 0.0
H2724 H 0.13203 0.10864 0.17659 0.0
H2725 H 0.11929 0.17804 0.14614 0.0
C2726 C 0.12278 0.16326 0.11019 0.0
C2727 C 0.12512 0.14389 0.09701 0.0
C2728 C 0.1272 0.12234 0.18759 0.0
C2729 C 0.12012 0.14325 0.14888 0.0
C2730 C 0.12868 0.12081 0.21318 0.0
C2731 C 0.12299 0.13815 0.22837 0.0
C2732 C 0.12031 0.14155 0.17655 0.0
C2733 C 0.11546 0.15698 0.21685 0.0
C2734 C 0.12023 0.16301 0.13615 0.0
C2735 C 0.12364 0.12462 0.11044 0.0
N2736 N 0.11459 0.15831 0.19154 0.0
N2737 N 0.12147 0.12484 0.1354 0.0
H2738 H 0.14979 0.90434 0.46755 0.0
H2739 H 0.09278 0.86674 0.34621 0.0
H2740 H 0.10827 0.84912 0.47591 0.0
H2741 H 0.16071 0.88032 0.35095 0.0
H2742 H 0.09172 0.864 0.39195 0.0
H2743 H 0.14668 0.90135 0.42317 0.0
C2744 C 0.13979 0.8916 0.4602 0.0
C2745 C 0.12937 0.87686 0.47592 0.0
C2746 C 0.10683 0.86722 0.38273 0.0
C2747 C 0.12569 0.87355 0.42408 0.0
C2748 C 0.10748 0.86878 0.35665 0.0
C2749 C 0.12681 0.87406 0.34447 0.0
C2750 C 0.12555 0.87134 0.39657 0.0
C2751 C 0.1453 0.87657 0.35918 0.0
C2752 C 0.13813 0.8899 0.43464 0.0
C2753 C 0.11669 0.86079 0.46466 0.0
N2754 N 0.1441 0.87555 0.3842 0.0
N2755 N 0.11513 0.85956 0.43936 0.0
H2756 H 0.38283 0.9124 0.72084 0.0
H2757 H 0.39722 0.84232 0.59952 0.0
H2758 H 0.41187 0.84981 0.72709 0.0
H2759 H 0.39537 0.91158 0.6013 0.0
H2760 H 0.40168 0.84227 0.64504 0.0
H2761 H 0.38527 0.91006 0.67627 0.0
C2762 C 0.38981 0.89808 0.71279 0.0
C2763 C 0.3971 0.88126 0.72786 0.0
C2764 C 0.40063 0.85741 0.63527 0.0
C2765 C 0.39985 0.87834 0.676 0.0
C2766 C 0.39815 0.85747 0.6093 0.0
C2767 C 0.3956 0.87698 0.59645 0.0
C2768 C 0.40039 0.87699 0.64834 0.0
C2769 C 0.39685 0.89609 0.61022 0.0
C2770 C 0.3913 0.89679 0.68718 0.0
C2771 C 0.40615 0.86319 0.71617 0.0
N2772 N 0.39889 0.89556 0.63518 0.0
N2773 N 0.40703 0.86206 0.69085 0.0
H2774 H 0.43064 0.1308 0.84932 0.0
H2775 H 0.38315 0.18061 0.97401 0.0
H2776 H 0.36929 0.1627 0.85022 0.0
H2777 H 0.40961 0.11672 0.97218 0.0
H2778 H 0.38729 0.18276 0.92871 0.0
H2779 H 0.43238 0.13425 0.89471 0.0
C2780 C 0.41788 0.13911 0.85898 0.0
C2781 C 0.39987 0.14662 0.84598 0.0
C2782 C 0.39256 0.16847 0.93837 0.0
C2783 C 0.40185 0.15077 0.89771 0.0
C2784 C 0.39038 0.1673 0.96418 0.0
C2785 C 0.39615 0.1485 0.97688 0.0
C2786 C 0.40116 0.15098 0.92527 0.0
C2787 C 0.40502 0.13153 0.96312 0.0
C2788 C 0.41878 0.14089 0.88484 0.0
C2789 C 0.38351 0.15681 0.85952 0.0
N2790 N 0.40735 0.1332 0.93813 0.0
N2791 N 0.38491 0.15867 0.88459 0.0
H2792 H 0.92938 0.87452 0.84942 0.0
H2793 H 0.85612 0.881 0.96998 0.0
H2794 H 0.8601 0.87292 0.84993 0.0
H2795 H 0.92255 0.86247 0.97647 0.0
H2796 H 0.85881 0.87846 0.92539 0.0
H2797 H 0.92905 0.86976 0.89487 0.0
C2798 C 0.91417 0.87275 0.85893 0.0
C2799 C 0.89473 0.87437 0.84574 0.0
C2800 C 0.87288 0.87472 0.93634 0.0
C2801 C 0.89424 0.86922 0.89758 0.0
C2802 C 0.87134 0.87623 0.96194 0.0
C2803 C 0.88911 0.87196 0.97705 0.0
C2804 C 0.89253 0.86926 0.92524 0.0
C2805 C 0.9084 0.86577 0.96549 0.0
C2806 C 0.91399 0.87013 0.88487 0.0
C2807 C 0.87552 0.8721 0.85914 0.0
N2808 N 0.90971 0.86487 0.94019 0.0
N2809 N 0.8758 0.86987 0.88409 0.0
H2810 H 0.93022 0.13131 0.72445 0.0
H2811 H 0.88225 0.18105 0.59986 0.0
H2812 H 0.86856 0.16261 0.7235 0.0
H2813 H 0.90995 0.11768 0.60133 0.0
H2814 H 0.88627 0.18304 0.64518 0.0
H2815 H 0.93203 0.13493 0.67907 0.0
C2816 C 0.91739 0.13952 0.71479 0.0
C2817 C 0.89929 0.14682 0.72778 0.0
C2818 C 0.89184 0.16891 0.63545 0.0
C2819 C 0.90135 0.15117 0.67604 0.0
C2820 C 0.88974 0.16784 0.60961 0.0
C2821 C 0.8959 0.14922 0.59679 0.0
C2822 C 0.90075 0.15151 0.64846 0.0
C2823 C 0.90508 0.13236 0.61047 0.0
C2824 C 0.91834 0.14139 0.68893 0.0
C2825 C 0.88286 0.15688 0.71422 0.0
N2826 N 0.90732 0.13393 0.63549 0.0
N2827 N 0.88431 0.15884 0.68916 0.0
H2828 H 0.60955 0.1179 0.47336 0.0
H2829 H 0.65269 0.16229 0.34904 0.0
H2830 H 0.63886 0.18063 0.47229 0.0
H2831 H 0.59066 0.13152 0.35027 0.0
H2832 H 0.65049 0.16728 0.39403 0.0
H2833 H 0.60448 0.12008 0.42838 0.0
C2834 C 0.61453 0.13232 0.46369 0.0
C2835 C 0.6244 0.14923 0.47659 0.0
C2836 C 0.63718 0.15982 0.38439 0.0
C2837 C 0.61944 0.15143 0.42503 0.0
C2838 C 0.6384 0.15699 0.35875 0.0
C2839 C 0.62169 0.14673 0.34589 0.0
C2840 C 0.6195 0.15158 0.39746 0.0
C2841 C 0.60372 0.13982 0.35944 0.0
C2842 C 0.61164 0.13353 0.43806 0.0
C2843 C 0.63088 0.1674 0.46309 0.0
N2844 N 0.60329 0.14194 0.38456 0.0
N2845 N 0.62871 0.16784 0.43797 0.0
H2846 H 0.60973 0.9043 0.10019 0.0
H2847 H 0.65131 0.8571 0.22402 0.0
H2848 H 0.63737 0.84091 0.10035 0.0
H2849 H 0.59057 0.89011 0.22307 0.0
H2850 H 0.64904 0.85269 0.17894 0.0
H2851 H 0.60461 0.90176 0.14513 0.0
C2852 C 0.61433 0.88967 0.10965 0.0
C2853 C 0.62374 0.87268 0.09647 0.0
C2854 C 0.63601 0.86051 0.18865 0.0
C2855 C 0.61873 0.87004 0.14805 0.0
C2856 C 0.63726 0.863 0.21435 0.0
C2857 C 0.62094 0.87371 0.22734 0.0
C2858 C 0.61872 0.86956 0.17565 0.0
C2859 C 0.6033 0.88143 0.21383 0.0
C2860 C 0.61142 0.88825 0.13527 0.0
C2861 C 0.62974 0.85423 0.10973 0.0
N2862 N 0.60286 0.87961 0.18867 0.0
N2863 N 0.62756 0.85357 0.13485 0.0
H2864 H 0.59169 0.64778 0.72292 0.0
H2865 H 0.66288 0.63266 0.60255 0.0
H2866 H 0.661 0.64672 0.72187 0.0
H2867 H 0.60003 0.66098 0.59523 0.0
H2868 H 0.66014 0.63557 0.64706 0.0
H2869 H 0.59195 0.65165 0.67734 0.0
C2870 C 0.60691 0.64879 0.71327 0.0
C2871 C 0.62635 0.64664 0.72636 0.0
C2872 C 0.6469 0.64132 0.63591 0.0
C2873 C 0.62671 0.65072 0.6744 0.0
C2874 C 0.6484 0.63955 0.61035 0.0
C2875 C 0.63164 0.64652 0.595 0.0
C2876 C 0.62828 0.64982 0.64677 0.0
C2877 C 0.61338 0.65549 0.60637 0.0
C2878 C 0.60703 0.65091 0.68727 0.0
C2879 C 0.64555 0.64794 0.71276 0.0
N2880 N 0.61204 0.65666 0.63166 0.0
N2881 N 0.6452 0.64963 0.68777 0.0
H2882 H 0.58901 0.38941 0.84862 0.0
H2883 H 0.63827 0.33921 0.97249 0.0
H2884 H 0.65087 0.35851 0.84917 0.0
H2885 H 0.60858 0.40166 0.9719 0.0
H2886 H 0.63403 0.33743 0.92719 0.0
H2887 H 0.58716 0.3852 0.89393 0.0
C2888 C 0.60188 0.38116 0.85816 0.0
C2889 C 0.62006 0.37416 0.84509 0.0
C2890 C 0.62805 0.3513 0.93711 0.0
C2891 C 0.61795 0.36915 0.89675 0.0
C2892 C 0.63028 0.35224 0.96294 0.0
C2893 C 0.62363 0.37055 0.976 0.0
C2894 C 0.61857 0.36853 0.92434 0.0
C2895 C 0.61383 0.38721 0.96257 0.0
C2896 C 0.6009 0.37895 0.88399 0.0
C2897 C 0.63652 0.36403 0.85851 0.0
N2898 N 0.61152 0.38578 0.93755 0.0
N2899 N 0.63506 0.36175 0.88353 0.0
H2900 H 0.9097 0.34614 0.09508 0.0
H2901 H 0.85941 0.3848 0.22003 0.0
H2902 H 0.87705 0.40685 0.10387 0.0
H2903 H 0.92597 0.36569 0.22491 0.0
H2904 H 0.86135 0.38205 0.17545 0.0
H2905 H 0.91278 0.34375 0.14073 0.0
C2906 C 0.90339 0.359 0.1064 0.0
C2907 C 0.89295 0.37665 0.09535 0.0
C2908 C 0.87549 0.37823 0.18625 0.0
C2909 C 0.8961 0.37376 0.14727 0.0
C2910 C 0.87448 0.37978 0.21187 0.0
C2911 C 0.8927 0.37583 0.22658 0.0
C2912 C 0.89475 0.37238 0.17474 0.0
C2913 C 0.91155 0.36903 0.21442 0.0
C2914 C 0.90521 0.35763 0.1324 0.0
C2915 C 0.88511 0.39281 0.11115 0.0
N2916 N 0.91217 0.36763 0.18911 0.0
N2917 N 0.88656 0.39079 0.13606 0.0
H2918 H 0.93117 0.63093 0.34765 0.0
H2919 H 0.88237 0.68094 0.47179 0.0
H2920 H 0.86902 0.66127 0.34861 0.0
H2921 H 0.91221 0.61856 0.47119 0.0
H2922 H 0.88626 0.68258 0.42644 0.0
H2923 H 0.93315 0.63506 0.39295 0.0
C2924 C 0.91824 0.63901 0.35728 0.0
C2925 C 0.89996 0.64588 0.34432 0.0
C2926 C 0.89235 0.66876 0.43637 0.0
C2927 C 0.90223 0.65083 0.39598 0.0
C2928 C 0.89033 0.6679 0.46222 0.0
C2929 C 0.89712 0.64965 0.4753 0.0
C2930 C 0.90177 0.65151 0.42358 0.0
C2931 C 0.90686 0.63297 0.46184 0.0
C2932 C 0.9193 0.64118 0.38311 0.0
C2933 C 0.88344 0.65583 0.35786 0.0
N2934 N 0.90897 0.63432 0.43679 0.0
N2935 N 0.88499 0.65808 0.38288 0.0
H2936 H 0.42947 0.37488 0.34864 0.0
H2937 H 0.35518 0.37928 0.46854 0.0
H2938 H 0.36023 0.37194 0.34839 0.0
H2939 H 0.42194 0.36217 0.47552 0.0
H2940 H 0.35822 0.37697 0.42394 0.0
H2941 H 0.42887 0.36989 0.39405 0.0
C2942 C 0.41422 0.37277 0.35796 0.0
C2943 C 0.39487 0.37407 0.34457 0.0
C2944 C 0.37228 0.37349 0.43501 0.0
C2945 C 0.39406 0.36866 0.39639 0.0
C2946 C 0.37054 0.37486 0.46061 0.0
C2947 C 0.3883 0.37091 0.47586 0.0
C2948 C 0.39213 0.36851 0.42405 0.0
C2949 C 0.4078 0.36519 0.46443 0.0
C2950 C 0.41389 0.37002 0.38389 0.0
C2951 C 0.37559 0.37138 0.35776 0.0
N2952 N 0.4093 0.36443 0.43914 0.0
N2953 N 0.37572 0.36903 0.3827 0.0
H2954 H 0.36031 0.63274 0.22048 0.0
H2955 H 0.4086 0.67514 0.09613 0.0
H2956 H 0.42545 0.65631 0.22623 0.0
H2957 H 0.37973 0.61239 0.10427 0.0
H2958 H 0.41165 0.67729 0.14182 0.0
H2959 H 0.36258 0.63538 0.17596 0.0
C2960 C 0.37513 0.63873 0.21255 0.0
C2961 C 0.39285 0.64404 0.22756 0.0
C2962 C 0.40495 0.66302 0.13334 0.0
C2963 C 0.39527 0.64733 0.17561 0.0
C2964 C 0.40315 0.66177 0.1073 0.0
C2965 C 0.39372 0.64363 0.09603 0.0
C2966 C 0.39685 0.64621 0.14807 0.0
C2967 C 0.38695 0.62684 0.11169 0.0
C2968 C 0.37634 0.64019 0.18693 0.0
C2969 C 0.41141 0.65192 0.21556 0.0
N2970 N 0.38834 0.62871 0.13663 0.0
N2971 N 0.4122 0.65326 0.19023 0.0
H2972 H 0.09305 0.65406 0.84546 0.0
H2973 H 0.14476 0.61204 0.96751 0.0
H2974 H 0.15968 0.63546 0.85131 0.0
H2975 H 0.11183 0.67272 0.97527 0.0
H2976 H 0.14123 0.61466 0.92313 0.0
H2977 H 0.0917 0.65696 0.89119 0.0
C2978 C 0.10741 0.6509 0.85614 0.0
C2979 C 0.12643 0.64424 0.84426 0.0
C2980 C 0.1346 0.62736 0.9345 0.0
C2981 C 0.12481 0.6472 0.8963 0.0
C2982 C 0.13654 0.62592 0.96005 0.0
C2983 C 0.12877 0.64232 0.97557 0.0
C2984 C 0.12455 0.64515 0.92379 0.0
C2985 C 0.11819 0.65975 0.96417 0.0
C2986 C 0.1066 0.65259 0.8822 0.0
C2987 C 0.1445 0.64035 0.85927 0.0
N2988 N 0.11639 0.66076 0.93889 0.0
N2989 N 0.14311 0.64154 0.88425 0.0
H2990 H 0.0917 0.37297 0.72417 0.0
H2991 H 0.16132 0.3897 0.60313 0.0
H2992 H 0.16099 0.37427 0.72227 0.0
H2993 H 0.09996 0.358 0.59613 0.0
H2994 H 0.15869 0.38706 0.64766 0.0
H2995 H 0.09154 0.36906 0.67857 0.0
C2996 C 0.10683 0.37202 0.71435 0.0
C2997 C 0.12638 0.37425 0.72722 0.0
C2998 C 0.14575 0.38053 0.63657 0.0
C2999 C 0.12627 0.37014 0.67521 0.0
C3000 C 0.14718 0.38214 0.61098 0.0
C3001 C 0.13081 0.37412 0.59568 0.0
C3002 C 0.12761 0.3711 0.64755 0.0
C3003 C 0.113 0.36432 0.60719 0.0
C3004 C 0.10671 0.36986 0.68833 0.0
C3005 C 0.14546 0.373 0.71337 0.0
N3006 N 0.11172 0.3633 0.63252 0.0
N3007 N 0.14487 0.37132 0.68836 0.0
loop_
_geom_bond_atom_site_label_1
_geom_bond_atom_site_label_2
_geom_bond_distance
_geom_bond_site_symmetry_2
_ccdc_geom_bond_type
La0 C2 2.928 . S
La0 O20 2.521 . S
La0 O21 2.628 . S
La0 O22 2.554 . S
La0 O23 2.757 . S
La0 O24 2.470 . S
La0 O29 2.482 . S
La0 O31 2.503 . S
La1 C11 2.928 . S
La1 O23 2.482 . S
La1 O25 2.503 . S
La1 O26 2.521 . S
La1 O27 2.628 . S
La1 O28 2.554 . S
La1 O29 2.757 . S
La1 O30 2.470 . S
C2 La0 2.928 . S
C2 C3 1.503 . S
C2 O20 1.261 . S
C2 O21 1.243 . S
C3 C2 1.503 . S
C3 C4 1.394 . S
C3 C8 1.373 . S
C4 C3 1.394 . S
C4 C5 1.380 . S
C4 H32 0.930 . S
C5 C4 1.380 . S
C5 C6 1.376 . S
C5 H33 0.930 . S
C6 C5 1.376 . S
C6 C7 1.370 . S
C7 C6 1.370 . S
C7 C8 1.396 . S
C7 H34 0.929 . S
C8 C3 1.373 . S
C8 C7 1.396 . S
C8 H35 0.929 . S
C9 O22 1.240 . S
C9 O23 1.289 . S
C10 O24 1.258 . S
C10 O25 1.256 . S
C11 La1 2.928 . S
C11 C12 1.503 . S
C11 O26 1.261 . S
C11 O27 1.243 . S
C12 C11 1.503 . S
C12 C13 1.394 . S
C12 C17 1.373 . S
C13 C12 1.394 . S
C13 C14 1.380 . S
C13 H36 0.930 . S
C14 C13 1.380 . S
C14 C15 1.376 . S
C14 H37 0.930 . S
C15 C14 1.376 . S
C15 C16 1.370 . S
C16 C15 1.370 . S
C16 C17 1.396 . S
C16 H38 0.929 . S
C17 C12 1.373 . S
C17 C16 1.396 . S
C17 H39 0.929 . S
C18 O28 1.240 . S
C18 O29 1.289 . S
C19 O30 1.258 . S
C19 O31 1.256 . S
O20 La0 2.521 . S
O20 C2 1.261 . S
O21 La0 2.628 . S
O21 C2 1.243 . S
O22 La0 2.554 . S
O22 C9 1.240 . S
O23 La0 2.757 . S
O23 La1 2.482 . S
O23 C9 1.289 . S
O24 La0 2.470 . S
O24 C10 1.258 . S
O25 La1 2.503 . S
O25 C10 1.256 . S
O26 La1 2.521 . S
O26 C11 1.261 . S
O27 La1 2.628 . S
O27 C11 1.243 . S
O28 La1 2.554 . S
O28 C18 1.240 . S
O29 La0 2.482 . S
O29 La1 2.757 . S
O29 C18 1.289 . S
O30 La1 2.470 . S
O30 C19 1.258 . S
O31 La0 2.503 . S
O31 C19 1.256 . S
H32 C4 0.930 . S
H33 C5 0.930 . S
H34 C7 0.929 . S
H35 C8 0.929 . S
H36 C13 0.930 . S
H37 C14 0.930 . S
H38 C16 0.929 . S
H39 C17 0.929 . S
La40 C42 2.928 . S
La40 O60 2.521 . S
La40 O61 2.628 . S
La40 O62 2.554 . S
La40 O63 2.757 . S
La40 O64 2.470 . S
La40 O69 2.482 . S
La40 O71 2.503 . S
La41 C51 2.928 . S
La41 O63 2.482 . S
La41 O65 2.503 . S
La41 O66 2.521 . S
La41 O67 2.628 . S
La41 O68 2.554 . S
La41 O69 2.757 . S
La41 O70 2.470 . S
C42 La40 2.928 . S
C42 C43 1.503 . S
C42 O60 1.261 . S
C42 O61 1.243 . S
C43 C42 1.503 . S
C43 C44 1.394 . S
C43 C48 1.373 . S
C44 C43 1.394 . S
C44 C45 1.380 . S
C44 H72 0.930 . S
C45 C44 1.380 . S
C45 C46 1.376 . S
C45 H73 0.930 1_565 S
C46 C45 1.376 . S
C46 C47 1.370 . S
C47 C46 1.370 . S
C47 C48 1.396 . S
C47 H74 0.929 . S
C48 C43 1.373 . S
C48 C47 1.396 . S
C48 H75 0.929 . S
C49 O62 1.240 . S
C49 O63 1.289 . S
C50 O64 1.258 . S
C50 O65 1.256 . S
C51 La41 2.928 . S
C51 C52 1.503 . S
C51 O66 1.261 . S
C51 O67 1.243 . S
C52 C51 1.503 . S
C52 C53 1.394 . S
C52 C57 1.373 . S
C53 C52 1.394 . S
C53 C54 1.380 . S
C53 H76 0.930 . S
C54 C53 1.380 . S
C54 C55 1.376 . S
C54 H77 0.930 . S
C55 C54 1.376 . S
C55 C56 1.370 . S
C56 C55 1.370 . S
C56 C57 1.396 . S
C56 H78 0.929 . S
C57 C52 1.373 . S
C57 C56 1.396 . S
C57 H79 0.929 . S
C58 O68 1.240 . S
C58 O69 1.289 . S
C59 O70 1.258 . S
C59 O71 1.256 . S
O60 La40 2.521 . S
O60 C42 1.261 . S
O61 La40 2.628 . S
O61 C42 1.243 . S
O62 La40 2.554 . S
O62 C49 1.240 . S
O63 La40 2.757 . S
O63 La41 2.482 . S
O63 C49 1.289 . S
O64 La40 2.470 . S
O64 C50 1.258 . S
O65 La41 2.503 . S
O65 C50 1.256 . S
O66 La41 2.521 . S
O66 C51 1.261 . S
O67 La41 2.628 . S
O67 C51 1.243 . S
O68 La41 2.554 . S
O68 C58 1.240 . S
O69 La40 2.482 . S
O69 La41 2.757 . S
O69 C58 1.289 . S
O70 La41 2.470 . S
O70 C59 1.258 . S
O71 La40 2.503 . S
O71 C59 1.256 . S
H72 C44 0.930 . S
H73 C45 0.930 1_545 S
H74 C47 0.929 . S
H75 C48 0.929 . S
H76 C53 0.930 . S
H77 C54 0.930 . S
H78 C56 0.929 . S
H79 C57 0.929 . S
La80 C82 2.928 . S
La80 O100 2.521 . S
La80 O101 2.628 . S
La80 O102 2.554 . S
La80 O103 2.757 . S
La80 O104 2.470 . S
La80 O109 2.482 . S
La80 O111 2.503 . S
La81 C91 2.928 . S
La81 O103 2.482 . S
La81 O105 2.503 . S
La81 O106 2.521 . S
La81 O107 2.628 . S
La81 O108 2.554 . S
La81 O109 2.757 . S
La81 O110 2.470 . S
C82 La80 2.928 . S
C82 C83 1.503 . S
C82 O100 1.261 . S
C82 O101 1.243 . S
C83 C82 1.503 . S
C83 C84 1.394 . S
C83 C88 1.373 . S
C84 C83 1.394 . S
C84 C85 1.380 . S
C84 H112 0.930 . S
C85 C84 1.380 . S
C85 C86 1.376 . S
C85 H113 0.930 . S
C86 C85 1.376 . S
C86 C87 1.370 . S
C87 C86 1.370 . S
C87 C88 1.396 . S
C87 H114 0.929 . S
C88 C83 1.373 . S
C88 C87 1.396 . S
C88 H115 0.929 . S
C89 O102 1.240 . S
C89 O103 1.289 . S
C90 O104 1.258 . S
C90 O105 1.256 . S
C91 La81 2.928 . S
C91 C92 1.503 . S
C91 O106 1.261 . S
C91 O107 1.243 . S
C92 C91 1.503 . S
C92 C93 1.394 . S
C92 C97 1.373 . S
C93 C92 1.394 . S
C93 C94 1.380 . S
C93 H116 0.930 . S
C94 C93 1.380 . S
C94 C95 1.376 . S
C94 H117 0.930 . S
C95 C94 1.376 . S
C95 C96 1.370 . S
C96 C95 1.370 . S
C96 C97 1.396 . S
C96 H118 0.929 . S
C97 C92 1.373 . S
C97 C96 1.396 . S
C97 H119 0.929 . S
C98 O108 1.240 . S
C98 O109 1.289 . S
C99 O110 1.258 . S
C99 O111 1.256 . S
O100 La80 2.521 . S
O100 C82 1.261 . S
O101 La80 2.628 . S
O101 C82 1.243 . S
O102 La80 2.554 . S
O102 C89 1.240 . S
O103 La80 2.757 . S
O103 La81 2.482 . S
O103 C89 1.289 . S
O104 La80 2.470 . S
O104 C90 1.258 . S
O105 La81 2.503 . S
O105 C90 1.256 . S
O106 La81 2.521 . S
O106 C91 1.261 . S
O107 La81 2.628 . S
O107 C91 1.243 . S
O108 La81 2.554 . S
O108 C98 1.240 . S
O109 La80 2.482 . S
O109 La81 2.757 . S
O109 C98 1.289 . S
O110 La81 2.470 . S
O110 C99 1.258 . S
O111 La80 2.503 . S
O111 C99 1.256 . S
H112 C84 0.930 . S
H113 C85 0.930 . S
H114 C87 0.929 . S
H115 C88 0.929 . S
H116 C93 0.930 . S
H117 C94 0.930 . S
H118 C96 0.929 . S
H119 C97 0.929 . S
La120 C122 2.928 1_554 S
La120 O140 2.521 . S
La120 O141 2.628 1_554 S
La120 O142 2.554 . S
La120 O143 2.757 . S
La120 O144 2.470 1_554 S
La120 O149 2.482 . S
La120 O151 2.503 . S
La121 C131 2.928 . S
La121 O143 2.482 . S
La121 O145 2.503 1_554 S
La121 O146 2.521 . S
La121 O147 2.628 . S
La121 O148 2.554 . S
La121 O149 2.757 . S
La121 O150 2.470 . S
C122 La120 2.928 1_556 S
C122 C123 1.503 . S
C122 O140 1.261 1_556 S
C122 O141 1.243 . S
C123 C122 1.503 . S
C123 C124 1.394 . S
C123 C128 1.373 . S
C124 C123 1.394 . S
C124 C125 1.380 . S
C124 H152 0.930 . S
C125 C124 1.380 . S
C125 C126 1.376 . S
C125 H153 0.930 1_545 S
C126 C125 1.376 . S
C126 C127 1.370 . S
C127 C126 1.370 . S
C127 C128 1.396 . S
C127 H154 0.929 . S
C128 C123 1.373 . S
C128 C127 1.396 . S
C128 H155 0.929 . S
C129 O142 1.240 . S
C129 O143 1.289 . S
C130 O144 1.258 . S
C130 O145 1.256 . S
C131 La121 2.928 . S
C131 C132 1.503 . S
C131 O146 1.261 . S
C131 O147 1.243 . S
C132 C131 1.503 . S
C132 C133 1.394 . S
C132 C137 1.373 . S
C133 C132 1.394 . S
C133 C134 1.380 . S
C133 H156 0.930 . S
C134 C133 1.380 . S
C134 C135 1.376 . S
C134 H157 0.930 . S
C135 C134 1.376 . S
C135 C136 1.370 . S
C136 C135 1.370 . S
C136 C137 1.396 . S
C136 H158 0.929 . S
C137 C132 1.373 . S
C137 C136 1.396 . S
C137 H159 0.929 . S
C138 O148 1.240 . S
C138 O149 1.289 . S
C139 O150 1.258 . S
C139 O151 1.256 . S
O140 La120 2.521 . S
O140 C122 1.261 1_554 S
O141 La120 2.628 1_556 S
O141 C122 1.243 . S
O142 La120 2.554 . S
O142 C129 1.240 . S
O143 La120 2.757 . S
O143 La121 2.482 . S
O143 C129 1.289 . S
O144 La120 2.470 1_556 S
O144 C130 1.258 . S
O145 La121 2.503 1_556 S
O145 C130 1.256 . S
O146 La121 2.521 . S
O146 C131 1.261 . S
O147 La121 2.628 . S
O147 C131 1.243 . S
O148 La121 2.554 . S
O148 C138 1.240 . S
O149 La120 2.482 . S
O149 La121 2.757 . S
O149 C138 1.289 . S
O150 La121 2.470 . S
O150 C139 1.258 . S
O151 La120 2.503 . S
O151 C139 1.256 . S
H152 C124 0.930 . S
H153 C125 0.930 1_565 S
H154 C127 0.929 . S
H155 C128 0.929 . S
H156 C133 0.930 . S
H157 C134 0.930 . S
H158 C136 0.929 . S
H159 C137 0.929 . S
La160 C162 2.928 . S
La160 O180 2.521 . S
La160 O181 2.628 . S
La160 O182 2.554 . S
La160 O183 2.757 . S
La160 O184 2.470 . S
La160 O189 2.482 . S
La160 O191 2.503 . S
La161 C171 2.928 . S
La161 O183 2.482 . S
La161 O185 2.503 . S
La161 O186 2.521 . S
La161 O187 2.628 . S
La161 O188 2.554 . S
La161 O189 2.757 . S
La161 O190 2.470 . S
C162 La160 2.928 . S
C162 C163 1.503 . S
C162 O180 1.261 . S
C162 O181 1.243 . S
C163 C162 1.503 . S
C163 C164 1.394 . S
C163 C168 1.373 . S
C164 C163 1.394 . S
C164 C165 1.380 . S
C164 H192 0.930 . S
C165 C164 1.380 . S
C165 C166 1.376 . S
C165 H193 0.930 . S
C166 C165 1.376 . S
C166 C167 1.370 . S
C167 C166 1.370 . S
C167 C168 1.396 . S
C167 H194 0.929 . S
C168 C163 1.373 . S
C168 C167 1.396 . S
C168 H195 0.929 . S
C169 O182 1.240 . S
C169 O183 1.289 . S
C170 O184 1.258 . S
C170 O185 1.256 . S
C171 La161 2.928 . S
C171 C172 1.503 . S
C171 O186 1.261 . S
C171 O187 1.243 . S
C172 C171 1.503 . S
C172 C173 1.394 . S
C172 C177 1.373 . S
C173 C172 1.394 . S
C173 C174 1.380 . S
C173 H196 0.930 . S
C174 C173 1.380 . S
C174 C175 1.376 . S
C174 H197 0.930 . S
C175 C174 1.376 . S
C175 C176 1.370 . S
C176 C175 1.370 . S
C176 C177 1.396 . S
C176 H198 0.929 . S
C177 C172 1.373 . S
C177 C176 1.396 . S
C177 H199 0.929 . S
C178 O188 1.240 . S
C178 O189 1.289 . S
C179 O190 1.258 . S
C179 O191 1.256 . S
O180 La160 2.521 . S
O180 C162 1.261 . S
O181 La160 2.628 . S
O181 C162 1.243 . S
O182 La160 2.554 . S
O182 C169 1.240 . S
O183 La160 2.757 . S
O183 La161 2.482 . S
O183 C169 1.289 . S
O184 La160 2.470 . S
O184 C170 1.258 . S
O185 La161 2.503 . S
O185 C170 1.256 . S
O186 La161 2.521 . S
O186 C171 1.261 . S
O187 La161 2.628 . S
O187 C171 1.243 . S
O188 La161 2.554 . S
O188 C178 1.240 . S
O189 La160 2.482 . S
O189 La161 2.757 . S
O189 C178 1.289 . S
O190 La161 2.470 . S
O190 C179 1.258 . S
O191 La160 2.503 . S
O191 C179 1.256 . S
H192 C164 0.930 . S
H193 C165 0.930 . S
H194 C167 0.929 . S
H195 C168 0.929 . S
H196 C173 0.930 . S
H197 C174 0.930 . S
H198 C176 0.929 . S
H199 C177 0.929 . S
La200 C202 2.928 . S
La200 O220 2.521 . S
La200 O221 2.628 . S
La200 O222 2.554 . S
La200 O223 2.757 . S
La200 O224 2.470 . S
La200 O229 2.482 . S
La200 O231 2.503 . S
La201 C211 2.928 . S
La201 O223 2.482 . S
La201 O225 2.503 . S
La201 O226 2.521 . S
La201 O227 2.628 . S
La201 O228 2.554 . S
La201 O229 2.757 . S
La201 O230 2.470 . S
C202 La200 2.928 . S
C202 C203 1.503 . S
C202 O220 1.261 . S
C202 O221 1.243 . S
C203 C202 1.503 . S
C203 C204 1.394 . S
C203 C208 1.373 . S
C204 C203 1.394 . S
C204 C205 1.380 . S
C204 H232 0.930 . S
C205 C204 1.380 . S
C205 C206 1.376 . S
C205 H233 0.930 1_565 S
C206 C205 1.376 . S
C206 C207 1.370 . S
C207 C206 1.370 . S
C207 C208 1.396 . S
C207 H234 0.929 . S
C208 C203 1.373 . S
C208 C207 1.396 . S
C208 H235 0.929 . S
C209 O222 1.240 . S
C209 O223 1.289 . S
C210 O224 1.258 . S
C210 O225 1.256 . S
C211 La201 2.928 . S
C211 C212 1.503 . S
C211 O226 1.261 . S
C211 O227 1.243 . S
C212 C211 1.503 . S
C212 C213 1.394 . S
C212 C217 1.373 . S
C213 C212 1.394 . S
C213 C214 1.380 . S
C213 H236 0.930 . S
C214 C213 1.380 . S
C214 C215 1.376 . S
C214 H237 0.930 . S
C215 C214 1.376 . S
C215 C216 1.370 . S
C216 C215 1.370 . S
C216 C217 1.396 . S
C216 H238 0.929 . S
C217 C212 1.373 . S
C217 C216 1.396 . S
C217 H239 0.929 . S
C218 O228 1.240 . S
C218 O229 1.289 . S
C219 O230 1.258 . S
C219 O231 1.256 . S
O220 La200 2.521 . S
O220 C202 1.261 . S
O221 La200 2.628 . S
O221 C202 1.243 . S
O222 La200 2.554 . S
O222 C209 1.240 . S
O223 La200 2.757 . S
O223 La201 2.482 . S
O223 C209 1.289 . S
O224 La200 2.470 . S
O224 C210 1.258 . S
O225 La201 2.503 . S
O225 C210 1.256 . S
O226 La201 2.521 . S
O226 C211 1.261 . S
O227 La201 2.628 . S
O227 C211 1.243 . S
O228 La201 2.554 . S
O228 C218 1.240 . S
O229 La200 2.482 . S
O229 La201 2.757 . S
O229 C218 1.289 . S
O230 La201 2.470 . S
O230 C219 1.258 . S
O231 La200 2.503 . S
O231 C219 1.256 . S
H232 C204 0.930 . S
H233 C205 0.930 1_545 S
H234 C207 0.929 . S
H235 C208 0.929 . S
H236 C213 0.930 . S
H237 C214 0.930 . S
H238 C216 0.929 . S
H239 C217 0.929 . S
La240 C242 2.928 . S
La240 O260 2.521 . S
La240 O261 2.628 . S
La240 O262 2.554 . S
La240 O263 2.757 . S
La240 O264 2.470 . S
La240 O269 2.482 . S
La240 O271 2.503 . S
La241 C251 2.928 . S
La241 O263 2.482 . S
La241 O265 2.503 . S
La241 O266 2.521 . S
La241 O267 2.628 . S
La241 O268 2.554 . S
La241 O269 2.757 . S
La241 O270 2.470 . S
C242 La240 2.928 . S
C242 C243 1.503 . S
C242 O260 1.261 . S
C242 O261 1.243 . S
C243 C242 1.503 . S
C243 C244 1.394 . S
C243 C248 1.373 . S
C244 C243 1.394 . S
C244 C245 1.380 . S
C244 H272 0.930 . S
C245 C244 1.380 . S
C245 C246 1.376 . S
C245 H273 0.930 . S
C246 C245 1.376 . S
C246 C247 1.370 . S
C247 C246 1.370 . S
C247 C248 1.396 . S
C247 H274 0.929 . S
C248 C243 1.373 . S
C248 C247 1.396 . S
C248 H275 0.929 . S
C249 O262 1.240 . S
C249 O263 1.289 . S
C250 O264 1.258 . S
C250 O265 1.256 . S
C251 La241 2.928 . S
C251 C252 1.503 . S
C251 O266 1.261 . S
C251 O267 1.243 . S
C252 C251 1.503 . S
C252 C253 1.394 . S
C252 C257 1.373 . S
C253 C252 1.394 . S
C253 C254 1.380 . S
C253 H276 0.930 . S
C254 C253 1.380 . S
C254 C255 1.376 . S
C254 H277 0.930 . S
C255 C254 1.376 . S
C255 C256 1.370 . S
C256 C255 1.370 . S
C256 C257 1.396 . S
C256 H278 0.929 . S
C257 C252 1.373 . S
C257 C256 1.396 . S
C257 H279 0.929 . S
C258 O268 1.240 . S
C258 O269 1.289 . S
C259 O270 1.258 . S
C259 O271 1.256 . S
O260 La240 2.521 . S
O260 C242 1.261 . S
O261 La240 2.628 . S
O261 C242 1.243 . S
O262 La240 2.554 . S
O262 C249 1.240 . S
O263 La240 2.757 . S
O263 La241 2.482 . S
O263 C249 1.289 . S
O264 La240 2.470 . S
O264 C250 1.258 . S
O265 La241 2.503 . S
O265 C250 1.256 . S
O266 La241 2.521 . S
O266 C251 1.261 . S
O267 La241 2.628 . S
O267 C251 1.243 . S
O268 La241 2.554 . S
O268 C258 1.240 . S
O269 La240 2.482 . S
O269 La241 2.757 . S
O269 C258 1.289 . S
O270 La241 2.470 . S
O270 C259 1.258 . S
O271 La240 2.503 . S
O271 C259 1.256 . S
H272 C244 0.930 . S
H273 C245 0.930 . S
H274 C247 0.929 . S
H275 C248 0.929 . S
H276 C253 0.930 . S
H277 C254 0.930 . S
H278 C256 0.929 . S
H279 C257 0.929 . S
La280 C282 2.928 1_556 S
La280 O300 2.521 . S
La280 O301 2.628 1_556 S
La280 O302 2.554 . S
La280 O303 2.757 . S
La280 O304 2.470 1_556 S
La280 O309 2.482 . S
La280 O311 2.503 . S
La281 C291 2.928 . S
La281 O303 2.482 . S
La281 O305 2.503 1_556 S
La281 O306 2.521 . S
La281 O307 2.628 . S
La281 O308 2.554 . S
La281 O309 2.757 . S
La281 O310 2.470 . S
C282 La280 2.928 1_554 S
C282 C283 1.503 . S
C282 O300 1.261 1_554 S
C282 O301 1.243 . S
C283 C282 1.503 . S
C283 C284 1.394 . S
C283 C288 1.373 . S
C284 C283 1.394 . S
C284 C285 1.380 . S
C284 H312 0.930 . S
C285 C284 1.380 . S
C285 C286 1.376 . S
C285 H313 0.930 1_545 S
C286 C285 1.376 . S
C286 C287 1.370 . S
C287 C286 1.370 . S
C287 C288 1.396 . S
C287 H314 0.929 . S
C288 C283 1.373 . S
C288 C287 1.396 . S
C288 H315 0.929 . S
C289 O302 1.240 . S
C289 O303 1.289 . S
C290 O304 1.258 . S
C290 O305 1.256 . S
C291 La281 2.928 . S
C291 C292 1.503 . S
C291 O306 1.261 . S
C291 O307 1.243 . S
C292 C291 1.503 . S
C292 C293 1.394 . S
C292 C297 1.373 . S
C293 C292 1.394 . S
C293 C294 1.380 . S
C293 H316 0.930 . S
C294 C293 1.380 . S
C294 C295 1.376 . S
C294 H317 0.930 . S
C295 C294 1.376 . S
C295 C296 1.370 . S
C296 C295 1.370 . S
C296 C297 1.396 . S
C296 H318 0.929 . S
C297 C292 1.373 . S
C297 C296 1.396 . S
C297 H319 0.929 . S
C298 O308 1.240 . S
C298 O309 1.289 . S
C299 O310 1.258 . S
C299 O311 1.256 . S
O300 La280 2.521 . S
O300 C282 1.261 1_556 S
O301 La280 2.628 1_554 S
O301 C282 1.243 . S
O302 La280 2.554 . S
O302 C289 1.240 . S
O303 La280 2.757 . S
O303 La281 2.482 . S
O303 C289 1.289 . S
O304 La280 2.470 1_554 S
O304 C290 1.258 . S
O305 La281 2.503 1_554 S
O305 C290 1.256 . S
O306 La281 2.521 . S
O306 C291 1.261 . S
O307 La281 2.628 . S
O307 C291 1.243 . S
O308 La281 2.554 . S
O308 C298 1.240 . S
O309 La280 2.482 . S
O309 La281 2.757 . S
O309 C298 1.289 . S
O310 La281 2.470 . S
O310 C299 1.258 . S
O311 La280 2.503 . S
O311 C299 1.256 . S
H312 C284 0.930 . S
H313 C285 0.930 1_565 S
H314 C287 0.929 . S
H315 C288 0.929 . S
H316 C293 0.930 . S
H317 C294 0.930 . S
H318 C296 0.929 . S
H319 C297 0.929 . S
La320 C322 2.928 . S
La320 O340 2.521 . S
La320 O341 2.628 . S
La320 O342 2.554 . S
La320 O343 2.757 . S
La320 O344 2.470 . S
La320 O349 2.482 . S
La320 O351 2.503 . S
La321 C331 2.928 . S
La321 O343 2.482 . S
La321 O345 2.503 . S
La321 O346 2.521 . S
La321 O347 2.628 . S
La321 O348 2.554 . S
La321 O349 2.757 . S
La321 O350 2.470 . S
C322 La320 2.928 . S
C322 C323 1.503 . S
C322 O340 1.261 . S
C322 O341 1.243 . S
C323 C322 1.503 . S
C323 C324 1.394 . S
C323 C328 1.373 . S
C324 C323 1.394 . S
C324 C325 1.380 . S
C324 H352 0.930 . S
C325 C324 1.380 . S
C325 C326 1.376 . S
C325 H353 0.930 . S
C326 C325 1.376 . S
C326 C327 1.370 . S
C327 C326 1.370 . S
C327 C328 1.396 . S
C327 H354 0.929 . S
C328 C323 1.373 . S
C328 C327 1.396 . S
C328 H355 0.929 . S
C329 O342 1.240 . S
C329 O343 1.289 . S
C330 O344 1.258 . S
C330 O345 1.256 . S
C331 La321 2.928 . S
C331 C332 1.503 . S
C331 O346 1.261 . S
C331 O347 1.243 . S
C332 C331 1.503 . S
C332 C333 1.394 . S
C332 C337 1.373 . S
C333 C332 1.394 . S
C333 C334 1.380 . S
C333 H356 0.930 . S
C334 C333 1.380 . S
C334 C335 1.376 . S
C334 H357 0.930 . S
C335 C334 1.376 . S
C335 C336 1.370 . S
C336 C335 1.370 . S
C336 C337 1.396 . S
C336 H358 0.929 . S
C337 C332 1.373 . S
C337 C336 1.396 . S
C337 H359 0.929 . S
C338 O348 1.240 . S
C338 O349 1.289 . S
C339 O350 1.258 . S
C339 O351 1.256 . S
O340 La320 2.521 . S
O340 C322 1.261 . S
O341 La320 2.628 . S
O341 C322 1.243 . S
O342 La320 2.554 . S
O342 C329 1.240 . S
O343 La320 2.757 . S
O343 La321 2.482 . S
O343 C329 1.289 . S
O344 La320 2.470 . S
O344 C330 1.258 . S
O345 La321 2.503 . S
O345 C330 1.256 . S
O346 La321 2.521 . S
O346 C331 1.261 . S
O347 La321 2.628 . S
O347 C331 1.243 . S
O348 La321 2.554 . S
O348 C338 1.240 . S
O349 La320 2.482 . S
O349 La321 2.757 . S
O349 C338 1.289 . S
O350 La321 2.470 . S
O350 C339 1.258 . S
O351 La320 2.503 . S
O351 C339 1.256 . S
H352 C324 0.930 . S
H353 C325 0.930 . S
H354 C327 0.929 . S
H355 C328 0.929 . S
H356 C333 0.930 . S
H357 C334 0.930 . S
H358 C336 0.929 . S
H359 C337 0.929 . S
La360 C362 2.928 . S
La360 O380 2.521 . S
La360 O381 2.628 . S
La360 O382 2.554 . S
La360 O383 2.757 . S
La360 O384 2.470 . S
La360 O389 2.482 . S
La360 O391 2.503 . S
La361 C371 2.928 . S
La361 O383 2.482 . S
La361 O385 2.503 . S
La361 O386 2.521 . S
La361 O387 2.628 . S
La361 O388 2.554 . S
La361 O389 2.757 . S
La361 O390 2.470 . S
C362 La360 2.928 . S
C362 C363 1.503 . S
C362 O380 1.261 . S
C362 O381 1.243 . S
C363 C362 1.503 . S
C363 C364 1.394 . S
C363 C368 1.373 . S
C364 C363 1.394 . S
C364 C365 1.380 . S
C364 H392 0.930 . S
C365 C364 1.380 . S
C365 C366 1.376 . S
C365 H393 0.930 . S
C366 C365 1.376 . S
C366 C367 1.370 . S
C367 C366 1.370 . S
C367 C368 1.396 . S
C367 H394 0.929 . S
C368 C363 1.373 . S
C368 C367 1.396 . S
C368 H395 0.929 . S
C369 O382 1.240 . S
C369 O383 1.289 . S
C370 O384 1.258 . S
C370 O385 1.256 . S
C371 La361 2.928 . S
C371 C372 1.503 . S
C371 O386 1.261 . S
C371 O387 1.243 . S
C372 C371 1.503 . S
C372 C373 1.394 . S
C372 C377 1.373 . S
C373 C372 1.394 . S
C373 C374 1.380 . S
C373 H396 0.930 . S
C374 C373 1.380 . S
C374 C375 1.376 . S
C374 H397 0.930 1_545 S
C375 C374 1.376 . S
C375 C376 1.370 . S
C376 C375 1.370 . S
C376 C377 1.396 . S
C376 H398 0.929 . S
C377 C372 1.373 . S
C377 C376 1.396 . S
C377 H399 0.929 . S
C378 O388 1.240 . S
C378 O389 1.289 . S
C379 O390 1.258 . S
C379 O391 1.256 . S
O380 La360 2.521 . S
O380 C362 1.261 . S
O381 La360 2.628 . S
O381 C362 1.243 . S
O382 La360 2.554 . S
O382 C369 1.240 . S
O383 La360 2.757 . S
O383 La361 2.482 . S
O383 C369 1.289 . S
O384 La360 2.470 . S
O384 C370 1.258 . S
O385 La361 2.503 . S
O385 C370 1.256 . S
O386 La361 2.521 . S
O386 C371 1.261 . S
O387 La361 2.628 . S
O387 C371 1.243 . S
O388 La361 2.554 . S
O388 C378 1.240 . S
O389 La360 2.482 . S
O389 La361 2.757 . S
O389 C378 1.289 . S
O390 La361 2.470 . S
O390 C379 1.258 . S
O391 La360 2.503 . S
O391 C379 1.256 . S
H392 C364 0.930 . S
H393 C365 0.930 . S
H394 C367 0.929 . S
H395 C368 0.929 . S
H396 C373 0.930 . S
H397 C374 0.930 1_565 S
H398 C376 0.929 . S
H399 C377 0.929 . S
La400 C402 2.928 . S
La400 O420 2.521 . S
La400 O421 2.628 . S
La400 O422 2.554 . S
La400 O423 2.757 . S
La400 O424 2.470 . S
La400 O429 2.482 . S
La400 O431 2.503 . S
La401 C411 2.928 . S
La401 O423 2.482 . S
La401 O425 2.503 . S
La401 O426 2.521 . S
La401 O427 2.628 . S
La401 O428 2.554 . S
La401 O429 2.757 . S
La401 O430 2.470 . S
C402 La400 2.928 . S
C402 C403 1.503 . S
C402 O420 1.261 . S
C402 O421 1.243 . S
C403 C402 1.503 . S
C403 C404 1.394 . S
C403 C408 1.373 . S
C404 C403 1.394 . S
C404 C405 1.380 . S
C404 H432 0.930 . S
C405 C404 1.380 . S
C405 C406 1.376 . S
C405 H433 0.930 . S
C406 C405 1.376 . S
C406 C407 1.370 . S
C407 C406 1.370 . S
C407 C408 1.396 . S
C407 H434 0.929 . S
C408 C403 1.373 . S
C408 C407 1.396 . S
C408 H435 0.929 . S
C409 O422 1.240 . S
C409 O423 1.289 . S
C410 O424 1.258 . S
C410 O425 1.256 . S
C411 La401 2.928 . S
C411 C412 1.503 . S
C411 O426 1.261 . S
C411 O427 1.243 . S
C412 C411 1.503 . S
C412 C413 1.394 . S
C412 C417 1.373 . S
C413 C412 1.394 . S
C413 C414 1.380 . S
C413 H436 0.930 . S
C414 C413 1.380 . S
C414 C415 1.376 . S
C414 H437 0.930 . S
C415 C414 1.376 . S
C415 C416 1.370 . S
C416 C415 1.370 . S
C416 C417 1.396 . S
C416 H438 0.929 . S
C417 C412 1.373 . S
C417 C416 1.396 . S
C417 H439 0.929 . S
C418 O428 1.240 . S
C418 O429 1.289 . S
C419 O430 1.258 . S
C419 O431 1.256 . S
O420 La400 2.521 . S
O420 C402 1.261 . S
O421 La400 2.628 . S
O421 C402 1.243 . S
O422 La400 2.554 . S
O422 C409 1.240 . S
O423 La400 2.757 . S
O423 La401 2.482 . S
O423 C409 1.289 . S
O424 La400 2.470 . S
O424 C410 1.258 . S
O425 La401 2.503 . S
O425 C410 1.256 . S
O426 La401 2.521 . S
O426 C411 1.261 . S
O427 La401 2.628 . S
O427 C411 1.243 . S
O428 La401 2.554 . S
O428 C418 1.240 . S
O429 La400 2.482 . S
O429 La401 2.757 . S
O429 C418 1.289 . S
O430 La401 2.470 . S
O430 C419 1.258 . S
O431 La400 2.503 . S
O431 C419 1.256 . S
H432 C404 0.930 . S
H433 C405 0.930 . S
H434 C407 0.929 . S
H435 C408 0.929 . S
H436 C413 0.930 . S
H437 C414 0.930 . S
H438 C416 0.929 . S
H439 C417 0.929 . S
La440 C442 2.928 . S
La440 O460 2.521 . S
La440 O461 2.628 . S
La440 O462 2.554 . S
La440 O463 2.757 . S
La440 O464 2.470 . S
La440 O469 2.482 . S
La440 O471 2.503 1_556 S
La441 C451 2.928 1_556 S
La441 O463 2.482 . S
La441 O465 2.503 . S
La441 O466 2.521 . S
La441 O467 2.628 1_556 S
La441 O468 2.554 . S
La441 O469 2.757 . S
La441 O470 2.470 1_556 S
C442 La440 2.928 . S
C442 C443 1.503 . S
C442 O460 1.261 . S
C442 O461 1.243 . S
C443 C442 1.503 . S
C443 C444 1.394 . S
C443 C448 1.373 . S
C444 C443 1.394 . S
C444 C445 1.380 . S
C444 H472 0.930 . S
C445 C444 1.380 . S
C445 C446 1.376 . S
C445 H473 0.930 . S
C446 C445 1.376 . S
C446 C447 1.370 . S
C447 C446 1.370 . S
C447 C448 1.396 . S
C447 H474 0.929 . S
C448 C443 1.373 . S
C448 C447 1.396 . S
C448 H475 0.929 . S
C449 O462 1.240 . S
C449 O463 1.289 . S
C450 O464 1.258 . S
C450 O465 1.256 . S
C451 La441 2.928 1_554 S
C451 C452 1.503 . S
C451 O466 1.261 1_554 S
C451 O467 1.243 . S
C452 C451 1.503 . S
C452 C453 1.394 . S
C452 C457 1.373 . S
C453 C452 1.394 . S
C453 C454 1.380 . S
C453 H476 0.930 . S
C454 C453 1.380 . S
C454 C455 1.376 . S
C454 H477 0.930 1_565 S
C455 C454 1.376 . S
C455 C456 1.370 . S
C456 C455 1.370 . S
C456 C457 1.396 . S
C456 H478 0.929 . S
C457 C452 1.373 . S
C457 C456 1.396 . S
C457 H479 0.929 . S
C458 O468 1.240 . S
C458 O469 1.289 . S
C459 O470 1.258 . S
C459 O471 1.256 . S
O460 La440 2.521 . S
O460 C442 1.261 . S
O461 La440 2.628 . S
O461 C442 1.243 . S
O462 La440 2.554 . S
O462 C449 1.240 . S
O463 La440 2.757 . S
O463 La441 2.482 . S
O463 C449 1.289 . S
O464 La440 2.470 . S
O464 C450 1.258 . S
O465 La441 2.503 . S
O465 C450 1.256 . S
O466 La441 2.521 . S
O466 C451 1.261 1_556 S
O467 La441 2.628 1_554 S
O467 C451 1.243 . S
O468 La441 2.554 . S
O468 C458 1.240 . S
O469 La440 2.482 . S
O469 La441 2.757 . S
O469 C458 1.289 . S
O470 La441 2.470 1_554 S
O470 C459 1.258 . S
O471 La440 2.503 1_554 S
O471 C459 1.256 . S
H472 C444 0.930 . S
H473 C445 0.930 . S
H474 C447 0.929 . S
H475 C448 0.929 . S
H476 C453 0.930 . S
H477 C454 0.930 1_545 S
H478 C456 0.929 . S
H479 C457 0.929 . S
La480 C482 2.928 . S
La480 O500 2.521 . S
La480 O501 2.628 . S
La480 O502 2.554 . S
La480 O503 2.757 . S
La480 O504 2.470 . S
La480 O509 2.482 . S
La480 O511 2.503 . S
La481 C491 2.928 . S
La481 O503 2.482 . S
La481 O505 2.503 . S
La481 O506 2.521 . S
La481 O507 2.628 . S
La481 O508 2.554 . S
La481 O509 2.757 . S
La481 O510 2.470 . S
C482 La480 2.928 . S
C482 C483 1.503 . S
C482 O500 1.261 . S
C482 O501 1.243 . S
C483 C482 1.503 . S
C483 C484 1.394 . S
C483 C488 1.373 . S
C484 C483 1.394 . S
C484 C485 1.380 . S
C484 H512 0.930 . S
C485 C484 1.380 . S
C485 C486 1.376 . S
C485 H513 0.930 . S
C486 C485 1.376 . S
C486 C487 1.370 . S
C487 C486 1.370 . S
C487 C488 1.396 . S
C487 H514 0.929 . S
C488 C483 1.373 . S
C488 C487 1.396 . S
C488 H515 0.929 . S
C489 O502 1.240 . S
C489 O503 1.289 . S
C490 O504 1.258 . S
C490 O505 1.256 . S
C491 La481 2.928 . S
C491 C492 1.503 . S
C491 O506 1.261 . S
C491 O507 1.243 . S
C492 C491 1.503 . S
C492 C493 1.394 . S
C492 C497 1.373 . S
C493 C492 1.394 . S
C493 C494 1.380 . S
C493 H516 0.930 . S
C494 C493 1.380 . S
C494 C495 1.376 . S
C494 H517 0.930 . S
C495 C494 1.376 . S
C495 C496 1.370 . S
C496 C495 1.370 . S
C496 C497 1.396 . S
C496 H518 0.929 . S
C497 C492 1.373 . S
C497 C496 1.396 . S
C497 H519 0.929 . S
C498 O508 1.240 . S
C498 O509 1.289 . S
C499 O510 1.258 . S
C499 O511 1.256 . S
O500 La480 2.521 . S
O500 C482 1.261 . S
O501 La480 2.628 . S
O501 C482 1.243 . S
O502 La480 2.554 . S
O502 C489 1.240 . S
O503 La480 2.757 . S
O503 La481 2.482 . S
O503 C489 1.289 . S
O504 La480 2.470 . S
O504 C490 1.258 . S
O505 La481 2.503 . S
O505 C490 1.256 . S
O506 La481 2.521 . S
O506 C491 1.261 . S
O507 La481 2.628 . S
O507 C491 1.243 . S
O508 La481 2.554 . S
O508 C498 1.240 . S
O509 La480 2.482 . S
O509 La481 2.757 . S
O509 C498 1.289 . S
O510 La481 2.470 . S
O510 C499 1.258 . S
O511 La480 2.503 . S
O511 C499 1.256 . S
H512 C484 0.930 . S
H513 C485 0.930 . S
H514 C487 0.929 . S
H515 C488 0.929 . S
H516 C493 0.930 . S
H517 C494 0.930 . S
H518 C496 0.929 . S
H519 C497 0.929 . S
La520 C522 2.928 . S
La520 O540 2.521 . S
La520 O541 2.628 . S
La520 O542 2.554 . S
La520 O543 2.757 . S
La520 O544 2.470 . S
La520 O549 2.482 . S
La520 O551 2.503 . S
La521 C531 2.928 . S
La521 O543 2.482 . S
La521 O545 2.503 . S
La521 O546 2.521 . S
La521 O547 2.628 . S
La521 O548 2.554 . S
La521 O549 2.757 . S
La521 O550 2.470 . S
C522 La520 2.928 . S
C522 C523 1.503 . S
C522 O540 1.261 . S
C522 O541 1.243 . S
C523 C522 1.503 . S
C523 C524 1.394 . S
C523 C528 1.373 . S
C524 C523 1.394 . S
C524 C525 1.380 . S
C524 H552 0.930 . S
C525 C524 1.380 . S
C525 C526 1.376 . S
C525 H553 0.930 . S
C526 C525 1.376 . S
C526 C527 1.370 . S
C527 C526 1.370 . S
C527 C528 1.396 . S
C527 H554 0.929 . S
C528 C523 1.373 . S
C528 C527 1.396 . S
C528 H555 0.929 . S
C529 O542 1.240 . S
C529 O543 1.289 . S
C530 O544 1.258 . S
C530 O545 1.256 . S
C531 La521 2.928 . S
C531 C532 1.503 . S
C531 O546 1.261 . S
C531 O547 1.243 . S
C532 C531 1.503 . S
C532 C533 1.394 . S
C532 C537 1.373 . S
C533 C532 1.394 . S
C533 C534 1.380 . S
C533 H556 0.930 . S
C534 C533 1.380 . S
C534 C535 1.376 . S
C534 H557 0.930 1_545 S
C535 C534 1.376 . S
C535 C536 1.370 . S
C536 C535 1.370 . S
C536 C537 1.396 . S
C536 H558 0.929 . S
C537 C532 1.373 . S
C537 C536 1.396 . S
C537 H559 0.929 . S
C538 O548 1.240 . S
C538 O549 1.289 . S
C539 O550 1.258 . S
C539 O551 1.256 . S
O540 La520 2.521 . S
O540 C522 1.261 . S
O541 La520 2.628 . S
O541 C522 1.243 . S
O542 La520 2.554 . S
O542 C529 1.240 . S
O543 La520 2.757 . S
O543 La521 2.482 . S
O543 C529 1.289 . S
O544 La520 2.470 . S
O544 C530 1.258 . S
O545 La521 2.503 . S
O545 C530 1.256 . S
O546 La521 2.521 . S
O546 C531 1.261 . S
O547 La521 2.628 . S
O547 C531 1.243 . S
O548 La521 2.554 . S
O548 C538 1.240 . S
O549 La520 2.482 . S
O549 La521 2.757 . S
O549 C538 1.289 . S
O550 La521 2.470 . S
O550 C539 1.258 . S
O551 La520 2.503 . S
O551 C539 1.256 . S
H552 C524 0.930 . S
H553 C525 0.930 . S
H554 C527 0.929 . S
H555 C528 0.929 . S
H556 C533 0.930 . S
H557 C534 0.930 1_565 S
H558 C536 0.929 . S
H559 C537 0.929 . S
La560 C562 2.928 . S
La560 O580 2.521 . S
La560 O581 2.628 . S
La560 O582 2.554 . S
La560 O583 2.757 . S
La560 O584 2.470 . S
La560 O589 2.482 . S
La560 O591 2.503 . S
La561 C571 2.928 . S
La561 O583 2.482 . S
La561 O585 2.503 . S
La561 O586 2.521 . S
La561 O587 2.628 . S
La561 O588 2.554 . S
La561 O589 2.757 . S
La561 O590 2.470 . S
C562 La560 2.928 . S
C562 C563 1.503 . S
C562 O580 1.261 . S
C562 O581 1.243 . S
C563 C562 1.503 . S
C563 C564 1.394 . S
C563 C568 1.373 . S
C564 C563 1.394 . S
C564 C565 1.380 . S
C564 H592 0.930 . S
C565 C564 1.380 . S
C565 C566 1.376 . S
C565 H593 0.930 . S
C566 C565 1.376 . S
C566 C567 1.370 . S
C567 C566 1.370 . S
C567 C568 1.396 . S
C567 H594 0.929 . S
C568 C563 1.373 . S
C568 C567 1.396 . S
C568 H595 0.929 . S
C569 O582 1.240 . S
C569 O583 1.289 . S
C570 O584 1.258 . S
C570 O585 1.256 . S
C571 La561 2.928 . S
C571 C572 1.503 . S
C571 O586 1.261 . S
C571 O587 1.243 . S
C572 C571 1.503 . S
C572 C573 1.394 . S
C572 C577 1.373 . S
C573 C572 1.394 . S
C573 C574 1.380 . S
C573 H596 0.930 . S
C574 C573 1.380 . S
C574 C575 1.376 . S
C574 H597 0.930 . S
C575 C574 1.376 . S
C575 C576 1.370 . S
C576 C575 1.370 . S
C576 C577 1.396 . S
C576 H598 0.929 . S
C577 C572 1.373 . S
C577 C576 1.396 . S
C577 H599 0.929 . S
C578 O588 1.240 . S
C578 O589 1.289 . S
C579 O590 1.258 . S
C579 O591 1.256 . S
O580 La560 2.521 . S
O580 C562 1.261 . S
O581 La560 2.628 . S
O581 C562 1.243 . S
O582 La560 2.554 . S
O582 C569 1.240 . S
O583 La560 2.757 . S
O583 La561 2.482 . S
O583 C569 1.289 . S
O584 La560 2.470 . S
O584 C570 1.258 . S
O585 La561 2.503 . S
O585 C570 1.256 . S
O586 La561 2.521 . S
O586 C571 1.261 . S
O587 La561 2.628 . S
O587 C571 1.243 . S
O588 La561 2.554 . S
O588 C578 1.240 . S
O589 La560 2.482 . S
O589 La561 2.757 . S
O589 C578 1.289 . S
O590 La561 2.470 . S
O590 C579 1.258 . S
O591 La560 2.503 . S
O591 C579 1.256 . S
H592 C564 0.930 . S
H593 C565 0.930 . S
H594 C567 0.929 . S
H595 C568 0.929 . S
H596 C573 0.930 . S
H597 C574 0.930 . S
H598 C576 0.929 . S
H599 C577 0.929 . S
La600 C602 2.928 . S
La600 O620 2.521 . S
La600 O621 2.628 . S
La600 O622 2.554 . S
La600 O623 2.757 . S
La600 O624 2.470 . S
La600 O629 2.482 . S
La600 O631 2.503 1_554 S
La601 C611 2.928 1_554 S
La601 O623 2.482 . S
La601 O625 2.503 . S
La601 O626 2.521 . S
La601 O627 2.628 1_554 S
La601 O628 2.554 . S
La601 O629 2.757 . S
La601 O630 2.470 1_554 S
C602 La600 2.928 . S
C602 C603 1.503 . S
C602 O620 1.261 . S
C602 O621 1.243 . S
C603 C602 1.503 . S
C603 C604 1.394 . S
C603 C608 1.373 . S
C604 C603 1.394 . S
C604 C605 1.380 . S
C604 H632 0.930 . S
C605 C604 1.380 . S
C605 C606 1.376 . S
C605 H633 0.930 . S
C606 C605 1.376 . S
C606 C607 1.370 . S
C607 C606 1.370 . S
C607 C608 1.396 . S
C607 H634 0.929 . S
C608 C603 1.373 . S
C608 C607 1.396 . S
C608 H635 0.929 . S
C609 O622 1.240 . S
C609 O623 1.289 . S
C610 O624 1.258 . S
C610 O625 1.256 . S
C611 La601 2.928 1_556 S
C611 C612 1.503 . S
C611 O626 1.261 1_556 S
C611 O627 1.243 . S
C612 C611 1.503 . S
C612 C613 1.394 . S
C612 C617 1.373 . S
C613 C612 1.394 . S
C613 C614 1.380 . S
C613 H636 0.930 . S
C614 C613 1.380 . S
C614 C615 1.376 . S
C614 H637 0.930 1_565 S
C615 C614 1.376 . S
C615 C616 1.370 . S
C616 C615 1.370 . S
C616 C617 1.396 . S
C616 H638 0.929 . S
C617 C612 1.373 . S
C617 C616 1.396 . S
C617 H639 0.929 . S
C618 O628 1.240 . S
C618 O629 1.289 . S
C619 O630 1.258 . S
C619 O631 1.256 . S
O620 La600 2.521 . S
O620 C602 1.261 . S
O621 La600 2.628 . S
O621 C602 1.243 . S
O622 La600 2.554 . S
O622 C609 1.240 . S
O623 La600 2.757 . S
O623 La601 2.482 . S
O623 C609 1.289 . S
O624 La600 2.470 . S
O624 C610 1.258 . S
O625 La601 2.503 . S
O625 C610 1.256 . S
O626 La601 2.521 . S
O626 C611 1.261 1_554 S
O627 La601 2.628 1_556 S
O627 C611 1.243 . S
O628 La601 2.554 . S
O628 C618 1.240 . S
O629 La600 2.482 . S
O629 La601 2.757 . S
O629 C618 1.289 . S
O630 La601 2.470 1_556 S
O630 C619 1.258 . S
O631 La600 2.503 1_556 S
O631 C619 1.256 . S
H632 C604 0.930 . S
H633 C605 0.930 . S
H634 C607 0.929 . S
H635 C608 0.929 . S
H636 C613 0.930 . S
H637 C614 0.930 1_545 S
H638 C616 0.929 . S
H639 C617 0.929 . S
La640 C642 2.928 . S
La640 O660 2.521 . S
La640 O661 2.628 . S
La640 O662 2.554 . S
La640 O663 2.757 . S
La640 O664 2.470 . S
La640 O669 2.482 . S
La640 O671 2.503 . S
La641 C651 2.928 . S
La641 O663 2.482 . S
La641 O665 2.503 . S
La641 O666 2.521 . S
La641 O667 2.628 . S
La641 O668 2.554 . S
La641 O669 2.757 . S
La641 O670 2.470 . S
C642 La640 2.928 . S
C642 C643 1.503 . S
C642 O660 1.261 . S
C642 O661 1.243 . S
C643 C642 1.503 . S
C643 C644 1.394 . S
C643 C648 1.373 . S
C644 C643 1.394 . S
C644 C645 1.380 . S
C644 H672 0.930 . S
C645 C644 1.380 . S
C645 C646 1.376 . S
C645 H673 0.930 . S
C646 C645 1.376 . S
C646 C647 1.370 . S
C647 C646 1.370 . S
C647 C648 1.396 . S
C647 H674 0.929 . S
C648 C643 1.373 . S
C648 C647 1.396 . S
C648 H675 0.929 . S
C649 O662 1.240 . S
C649 O663 1.289 . S
C650 O664 1.258 . S
C650 O665 1.256 . S
C651 La641 2.928 . S
C651 C652 1.503 . S
C651 O666 1.261 . S
C651 O667 1.243 . S
C652 C651 1.503 . S
C652 C653 1.394 . S
C652 C657 1.373 . S
C653 C652 1.394 . S
C653 C654 1.380 . S
C653 H676 0.930 . S
C654 C653 1.380 . S
C654 C655 1.376 . S
C654 H677 0.930 . S
C655 C654 1.376 . S
C655 C656 1.370 . S
C656 C655 1.370 . S
C656 C657 1.396 . S
C656 H678 0.929 . S
C657 C652 1.373 . S
C657 C656 1.396 . S
C657 H679 0.929 . S
C658 O668 1.240 . S
C658 O669 1.289 . S
C659 O670 1.258 . S
C659 O671 1.256 . S
O660 La640 2.521 . S
O660 C642 1.261 . S
O661 La640 2.628 . S
O661 C642 1.243 . S
O662 La640 2.554 . S
O662 C649 1.240 . S
O663 La640 2.757 . S
O663 La641 2.482 . S
O663 C649 1.289 . S
O664 La640 2.470 . S
O664 C650 1.258 . S
O665 La641 2.503 . S
O665 C650 1.256 . S
O666 La641 2.521 . S
O666 C651 1.261 . S
O667 La641 2.628 . S
O667 C651 1.243 . S
O668 La641 2.554 . S
O668 C658 1.240 . S
O669 La640 2.482 . S
O669 La641 2.757 . S
O669 C658 1.289 . S
O670 La641 2.470 . S
O670 C659 1.258 . S
O671 La640 2.503 . S
O671 C659 1.256 . S
H672 C644 0.930 . S
H673 C645 0.930 . S
H674 C647 0.929 . S
H675 C648 0.929 . S
H676 C653 0.930 . S
H677 C654 0.930 . S
H678 C656 0.929 . S
H679 C657 0.929 . S
La680 C682 2.928 1_554 S
La680 O700 2.521 . S
La680 O701 2.628 1_554 S
La680 O702 2.554 . S
La680 O703 2.757 . S
La680 O704 2.470 1_554 S
La680 O709 2.482 . S
La680 O711 2.503 . S
La681 C691 2.928 . S
La681 O703 2.482 . S
La681 O705 2.503 1_554 S
La681 O706 2.521 . S
La681 O707 2.628 . S
La681 O708 2.554 . S
La681 O709 2.757 . S
La681 O710 2.470 . S
C682 La680 2.928 1_556 S
C682 C683 1.503 . S
C682 O700 1.261 1_556 S
C682 O701 1.243 . S
C683 C682 1.503 . S
C683 C684 1.394 . S
C683 C688 1.373 . S
C684 C683 1.394 . S
C684 C685 1.380 . S
C684 H712 0.930 . S
C685 C684 1.380 . S
C685 C686 1.376 . S
C685 H713 0.930 . S
C686 C685 1.376 . S
C686 C687 1.370 . S
C687 C686 1.370 . S
C687 C688 1.396 . S
C687 H714 0.929 . S
C688 C683 1.373 . S
C688 C687 1.396 . S
C688 H715 0.929 . S
C689 O702 1.240 . S
C689 O703 1.289 . S
C690 O704 1.258 . S
C690 O705 1.256 . S
C691 La681 2.928 . S
C691 C692 1.503 . S
C691 O706 1.261 . S
C691 O707 1.243 . S
C692 C691 1.503 . S
C692 C693 1.394 . S
C692 C697 1.373 . S
C693 C692 1.394 . S
C693 C694 1.380 . S
C693 H716 0.930 . S
C694 C693 1.380 . S
C694 C695 1.376 . S
C694 H717 0.930 . S
C695 C694 1.376 . S
C695 C696 1.370 . S
C696 C695 1.370 . S
C696 C697 1.396 . S
C696 H718 0.929 . S
C697 C692 1.373 . S
C697 C696 1.396 . S
C697 H719 0.929 . S
C698 O708 1.240 . S
C698 O709 1.289 . S
C699 O710 1.258 . S
C699 O711 1.256 . S
O700 La680 2.521 . S
O700 C682 1.261 1_554 S
O701 La680 2.628 1_556 S
O701 C682 1.243 . S
O702 La680 2.554 . S
O702 C689 1.240 . S
O703 La680 2.757 . S
O703 La681 2.482 . S
O703 C689 1.289 . S
O704 La680 2.470 1_556 S
O704 C690 1.258 . S
O705 La681 2.503 1_556 S
O705 C690 1.256 . S
O706 La681 2.521 . S
O706 C691 1.261 . S
O707 La681 2.628 . S
O707 C691 1.243 . S
O708 La681 2.554 . S
O708 C698 1.240 . S
O709 La680 2.482 . S
O709 La681 2.757 . S
O709 C698 1.289 . S
O710 La681 2.470 . S
O710 C699 1.258 . S
O711 La680 2.503 . S
O711 C699 1.256 . S
H712 C684 0.930 . S
H713 C685 0.930 . S
H714 C687 0.929 . S
H715 C688 0.929 . S
H716 C693 0.930 . S
H717 C694 0.930 . S
H718 C696 0.929 . S
H719 C697 0.929 . S
La720 C722 2.928 . S
La720 O740 2.521 . S
La720 O741 2.628 . S
La720 O742 2.554 . S
La720 O743 2.757 . S
La720 O744 2.470 . S
La720 O749 2.482 . S
La720 O751 2.503 . S
La721 C731 2.928 . S
La721 O743 2.482 . S
La721 O745 2.503 . S
La721 O746 2.521 . S
La721 O747 2.628 . S
La721 O748 2.554 . S
La721 O749 2.757 . S
La721 O750 2.470 . S
C722 La720 2.928 . S
C722 C723 1.503 . S
C722 O740 1.261 . S
C722 O741 1.243 . S
C723 C722 1.503 . S
C723 C724 1.394 . S
C723 C728 1.373 . S
C724 C723 1.394 . S
C724 C725 1.380 . S
C724 H752 0.930 . S
C725 C724 1.380 . S
C725 C726 1.376 . S
C725 H753 0.930 . S
C726 C725 1.376 . S
C726 C727 1.370 . S
C727 C726 1.370 . S
C727 C728 1.396 . S
C727 H754 0.929 . S
C728 C723 1.373 . S
C728 C727 1.396 . S
C728 H755 0.929 . S
C729 O742 1.240 . S
C729 O743 1.289 . S
C730 O744 1.258 . S
C730 O745 1.256 . S
C731 La721 2.928 . S
C731 C732 1.503 . S
C731 O746 1.261 . S
C731 O747 1.243 . S
C732 C731 1.503 . S
C732 C733 1.394 . S
C732 C737 1.373 . S
C733 C732 1.394 . S
C733 C734 1.380 . S
C733 H756 0.930 . S
C734 C733 1.380 . S
C734 C735 1.376 . S
C734 H757 0.930 . S
C735 C734 1.376 . S
C735 C736 1.370 . S
C736 C735 1.370 . S
C736 C737 1.396 . S
C736 H758 0.929 . S
C737 C732 1.373 . S
C737 C736 1.396 . S
C737 H759 0.929 . S
C738 O748 1.240 . S
C738 O749 1.289 . S
C739 O750 1.258 . S
C739 O751 1.256 . S
O740 La720 2.521 . S
O740 C722 1.261 . S
O741 La720 2.628 . S
O741 C722 1.243 . S
O742 La720 2.554 . S
O742 C729 1.240 . S
O743 La720 2.757 . S
O743 La721 2.482 . S
O743 C729 1.289 . S
O744 La720 2.470 . S
O744 C730 1.258 . S
O745 La721 2.503 . S
O745 C730 1.256 . S
O746 La721 2.521 . S
O746 C731 1.261 . S
O747 La721 2.628 . S
O747 C731 1.243 . S
O748 La721 2.554 . S
O748 C738 1.240 . S
O749 La720 2.482 . S
O749 La721 2.757 . S
O749 C738 1.289 . S
O750 La721 2.470 . S
O750 C739 1.258 . S
O751 La720 2.503 . S
O751 C739 1.256 . S
H752 C724 0.930 . S
H753 C725 0.930 . S
H754 C727 0.929 . S
H755 C728 0.929 . S
H756 C733 0.930 . S
H757 C734 0.930 . S
H758 C736 0.929 . S
H759 C737 0.929 . S
La760 C762 2.928 . S
La760 O780 2.521 . S
La760 O781 2.628 . S
La760 O782 2.554 . S
La760 O783 2.757 . S
La760 O784 2.470 . S
La760 O789 2.482 . S
La760 O791 2.503 . S
La761 C771 2.928 . S
La761 O783 2.482 . S
La761 O785 2.503 . S
La761 O786 2.521 . S
La761 O787 2.628 . S
La761 O788 2.554 . S
La761 O789 2.757 . S
La761 O790 2.470 . S
C762 La760 2.928 . S
C762 C763 1.503 . S
C762 O780 1.261 . S
C762 O781 1.243 . S
C763 C762 1.503 . S
C763 C764 1.394 . S
C763 C768 1.373 . S
C764 C763 1.394 . S
C764 C765 1.380 . S
C764 H792 0.930 . S
C765 C764 1.380 . S
C765 C766 1.376 . S
C765 H793 0.930 . S
C766 C765 1.376 . S
C766 C767 1.370 . S
C767 C766 1.370 . S
C767 C768 1.396 . S
C767 H794 0.929 . S
C768 C763 1.373 . S
C768 C767 1.396 . S
C768 H795 0.929 . S
C769 O782 1.240 . S
C769 O783 1.289 . S
C770 O784 1.258 . S
C770 O785 1.256 . S
C771 La761 2.928 . S
C771 C772 1.503 . S
C771 O786 1.261 . S
C771 O787 1.243 . S
C772 C771 1.503 . S
C772 C773 1.394 . S
C772 C777 1.373 . S
C773 C772 1.394 . S
C773 C774 1.380 . S
C773 H796 0.930 . S
C774 C773 1.380 . S
C774 C775 1.376 . S
C774 H797 0.930 . S
C775 C774 1.376 . S
C775 C776 1.370 . S
C776 C775 1.370 . S
C776 C777 1.396 . S
C776 H798 0.929 . S
C777 C772 1.373 . S
C777 C776 1.396 . S
C777 H799 0.929 . S
C778 O788 1.240 . S
C778 O789 1.289 . S
C779 O790 1.258 . S
C779 O791 1.256 . S
O780 La760 2.521 . S
O780 C762 1.261 . S
O781 La760 2.628 . S
O781 C762 1.243 . S
O782 La760 2.554 . S
O782 C769 1.240 . S
O783 La760 2.757 . S
O783 La761 2.482 . S
O783 C769 1.289 . S
O784 La760 2.470 . S
O784 C770 1.258 . S
O785 La761 2.503 . S
O785 C770 1.256 . S
O786 La761 2.521 . S
O786 C771 1.261 . S
O787 La761 2.628 . S
O787 C771 1.243 . S
O788 La761 2.554 . S
O788 C778 1.240 . S
O789 La760 2.482 . S
O789 La761 2.757 . S
O789 C778 1.289 . S
O790 La761 2.470 . S
O790 C779 1.258 . S
O791 La760 2.503 . S
O791 C779 1.256 . S
H792 C764 0.930 . S
H793 C765 0.930 . S
H794 C767 0.929 . S
H795 C768 0.929 . S
H796 C773 0.930 . S
H797 C774 0.930 . S
H798 C776 0.929 . S
H799 C777 0.929 . S
La800 C802 2.928 . S
La800 O820 2.521 . S
La800 O821 2.628 . S
La800 O822 2.554 . S
La800 O823 2.757 . S
La800 O824 2.470 . S
La800 O829 2.482 . S
La800 O831 2.503 . S
La801 C811 2.928 . S
La801 O823 2.482 . S
La801 O825 2.503 . S
La801 O826 2.521 . S
La801 O827 2.628 . S
La801 O828 2.554 . S
La801 O829 2.757 . S
La801 O830 2.470 . S
C802 La800 2.928 . S
C802 C803 1.503 . S
C802 O820 1.261 . S
C802 O821 1.243 . S
C803 C802 1.503 . S
C803 C804 1.394 . S
C803 C808 1.373 . S
C804 C803 1.394 . S
C804 C805 1.380 . S
C804 H832 0.930 . S
C805 C804 1.380 . S
C805 C806 1.376 . S
C805 H833 0.930 . S
C806 C805 1.376 . S
C806 C807 1.370 . S
C807 C806 1.370 . S
C807 C808 1.396 . S
C807 H834 0.929 . S
C808 C803 1.373 . S
C808 C807 1.396 . S
C808 H835 0.929 . S
C809 O822 1.240 . S
C809 O823 1.289 . S
C810 O824 1.258 . S
C810 O825 1.256 . S
C811 La801 2.928 . S
C811 C812 1.503 . S
C811 O826 1.261 . S
C811 O827 1.243 . S
C812 C811 1.503 . S
C812 C813 1.394 . S
C812 C817 1.373 . S
C813 C812 1.394 . S
C813 C814 1.380 . S
C813 H836 0.930 . S
C814 C813 1.380 . S
C814 C815 1.376 . S
C814 H837 0.930 . S
C815 C814 1.376 . S
C815 C816 1.370 . S
C816 C815 1.370 . S
C816 C817 1.396 . S
C816 H838 0.929 . S
C817 C812 1.373 . S
C817 C816 1.396 . S
C817 H839 0.929 . S
C818 O828 1.240 . S
C818 O829 1.289 . S
C819 O830 1.258 . S
C819 O831 1.256 . S
O820 La800 2.521 . S
O820 C802 1.261 . S
O821 La800 2.628 . S
O821 C802 1.243 . S
O822 La800 2.554 . S
O822 C809 1.240 . S
O823 La800 2.757 . S
O823 La801 2.482 . S
O823 C809 1.289 . S
O824 La800 2.470 . S
O824 C810 1.258 . S
O825 La801 2.503 . S
O825 C810 1.256 . S
O826 La801 2.521 . S
O826 C811 1.261 . S
O827 La801 2.628 . S
O827 C811 1.243 . S
O828 La801 2.554 . S
O828 C818 1.240 . S
O829 La800 2.482 . S
O829 La801 2.757 . S
O829 C818 1.289 . S
O830 La801 2.470 . S
O830 C819 1.258 . S
O831 La800 2.503 . S
O831 C819 1.256 . S
H832 C804 0.930 . S
H833 C805 0.930 . S
H834 C807 0.929 . S
H835 C808 0.929 . S
H836 C813 0.930 . S
H837 C814 0.930 . S
H838 C816 0.929 . S
H839 C817 0.929 . S
La840 C842 2.928 1_556 S
La840 O860 2.521 . S
La840 O861 2.628 1_556 S
La840 O862 2.554 . S
La840 O863 2.757 . S
La840 O864 2.470 1_556 S
La840 O869 2.482 . S
La840 O871 2.503 . S
La841 C851 2.928 . S
La841 O863 2.482 . S
La841 O865 2.503 1_556 S
La841 O866 2.521 . S
La841 O867 2.628 . S
La841 O868 2.554 . S
La841 O869 2.757 . S
La841 O870 2.470 . S
C842 La840 2.928 1_554 S
C842 C843 1.503 . S
C842 O860 1.261 1_554 S
C842 O861 1.243 . S
C843 C842 1.503 . S
C843 C844 1.394 . S
C843 C848 1.373 . S
C844 C843 1.394 . S
C844 C845 1.380 . S
C844 H872 0.930 . S
C845 C844 1.380 . S
C845 C846 1.376 . S
C845 H873 0.930 . S
C846 C845 1.376 . S
C846 C847 1.370 . S
C847 C846 1.370 . S
C847 C848 1.396 . S
C847 H874 0.929 . S
C848 C843 1.373 . S
C848 C847 1.396 . S
C848 H875 0.929 . S
C849 O862 1.240 . S
C849 O863 1.289 . S
C850 O864 1.258 . S
C850 O865 1.256 . S
C851 La841 2.928 . S
C851 C852 1.503 . S
C851 O866 1.261 . S
C851 O867 1.243 . S
C852 C851 1.503 . S
C852 C853 1.394 . S
C852 C857 1.373 . S
C853 C852 1.394 . S
C853 C854 1.380 . S
C853 H876 0.930 . S
C854 C853 1.380 . S
C854 C855 1.376 . S
C854 H877 0.930 . S
C855 C854 1.376 . S
C855 C856 1.370 . S
C856 C855 1.370 . S
C856 C857 1.396 . S
C856 H878 0.929 . S
C857 C852 1.373 . S
C857 C856 1.396 . S
C857 H879 0.929 . S
C858 O868 1.240 . S
C858 O869 1.289 . S
C859 O870 1.258 . S
C859 O871 1.256 . S
O860 La840 2.521 . S
O860 C842 1.261 1_556 S
O861 La840 2.628 1_554 S
O861 C842 1.243 . S
O862 La840 2.554 . S
O862 C849 1.240 . S
O863 La840 2.757 . S
O863 La841 2.482 . S
O863 C849 1.289 . S
O864 La840 2.470 1_554 S
O864 C850 1.258 . S
O865 La841 2.503 1_554 S
O865 C850 1.256 . S
O866 La841 2.521 . S
O866 C851 1.261 . S
O867 La841 2.628 . S
O867 C851 1.243 . S
O868 La841 2.554 . S
O868 C858 1.240 . S
O869 La840 2.482 . S
O869 La841 2.757 . S
O869 C858 1.289 . S
O870 La841 2.470 . S
O870 C859 1.258 . S
O871 La840 2.503 . S
O871 C859 1.256 . S
H872 C844 0.930 . S
H873 C845 0.930 . S
H874 C847 0.929 . S
H875 C848 0.929 . S
H876 C853 0.930 . S
H877 C854 0.930 . S
H878 C856 0.929 . S
H879 C857 0.929 . S
La880 C882 2.928 . S
La880 O900 2.521 . S
La880 O901 2.628 . S
La880 O902 2.554 . S
La880 O903 2.757 . S
La880 O904 2.470 . S
La880 O909 2.482 . S
La880 O911 2.503 . S
La881 C891 2.928 . S
La881 O903 2.482 . S
La881 O905 2.503 . S
La881 O906 2.521 . S
La881 O907 2.628 . S
La881 O908 2.554 . S
La881 O909 2.757 . S
La881 O910 2.470 . S
C882 La880 2.928 . S
C882 C883 1.503 . S
C882 O900 1.261 . S
C882 O901 1.243 . S
C883 C882 1.503 . S
C883 C884 1.394 . S
C883 C888 1.373 . S
C884 C883 1.394 . S
C884 C885 1.380 . S
C884 H912 0.930 . S
C885 C884 1.380 . S
C885 C886 1.376 . S
C885 H913 0.930 . S
C886 C885 1.376 . S
C886 C887 1.370 . S
C887 C886 1.370 . S
C887 C888 1.396 . S
C887 H914 0.929 . S
C888 C883 1.373 . S
C888 C887 1.396 . S
C888 H915 0.929 . S
C889 O902 1.240 . S
C889 O903 1.289 . S
C890 O904 1.258 . S
C890 O905 1.256 . S
C891 La881 2.928 . S
C891 C892 1.503 . S
C891 O906 1.261 . S
C891 O907 1.243 . S
C892 C891 1.503 . S
C892 C893 1.394 . S
C892 C897 1.373 . S
C893 C892 1.394 . S
C893 C894 1.380 . S
C893 H916 0.930 . S
C894 C893 1.380 . S
C894 C895 1.376 . S
C894 H917 0.930 . S
C895 C894 1.376 . S
C895 C896 1.370 . S
C896 C895 1.370 . S
C896 C897 1.396 . S
C896 H918 0.929 . S
C897 C892 1.373 . S
C897 C896 1.396 . S
C897 H919 0.929 . S
C898 O908 1.240 . S
C898 O909 1.289 . S
C899 O910 1.258 . S
C899 O911 1.256 . S
O900 La880 2.521 . S
O900 C882 1.261 . S
O901 La880 2.628 . S
O901 C882 1.243 . S
O902 La880 2.554 . S
O902 C889 1.240 . S
O903 La880 2.757 . S
O903 La881 2.482 . S
O903 C889 1.289 . S
O904 La880 2.470 . S
O904 C890 1.258 . S
O905 La881 2.503 . S
O905 C890 1.256 . S
O906 La881 2.521 . S
O906 C891 1.261 . S
O907 La881 2.628 . S
O907 C891 1.243 . S
O908 La881 2.554 . S
O908 C898 1.240 . S
O909 La880 2.482 . S
O909 La881 2.757 . S
O909 C898 1.289 . S
O910 La881 2.470 . S
O910 C899 1.258 . S
O911 La880 2.503 . S
O911 C899 1.256 . S
H912 C884 0.930 . S
H913 C885 0.930 . S
H914 C887 0.929 . S
H915 C888 0.929 . S
H916 C893 0.930 . S
H917 C894 0.930 . S
H918 C896 0.929 . S
H919 C897 0.929 . S
La920 C922 2.928 . S
La920 O940 2.521 . S
La920 O941 2.628 . S
La920 O942 2.554 . S
La920 O943 2.757 . S
La920 O944 2.470 . S
La920 O949 2.482 . S
La920 O951 2.503 . S
La921 C931 2.928 . S
La921 O943 2.482 . S
La921 O945 2.503 . S
La921 O946 2.521 . S
La921 O947 2.628 . S
La921 O948 2.554 . S
La921 O949 2.757 . S
La921 O950 2.470 . S
C922 La920 2.928 . S
C922 C923 1.503 . S
C922 O940 1.261 . S
C922 O941 1.243 . S
C923 C922 1.503 . S
C923 C924 1.394 . S
C923 C928 1.373 . S
C924 C923 1.394 . S
C924 C925 1.380 . S
C924 H952 0.930 . S
C925 C924 1.380 . S
C925 C926 1.376 . S
C925 H953 0.930 . S
C926 C925 1.376 . S
C926 C927 1.370 . S
C927 C926 1.370 . S
C927 C928 1.396 . S
C927 H954 0.929 . S
C928 C923 1.373 . S
C928 C927 1.396 . S
C928 H955 0.929 . S
C929 O942 1.240 . S
C929 O943 1.289 . S
C930 O944 1.258 . S
C930 O945 1.256 . S
C931 La921 2.928 . S
C931 C932 1.503 . S
C931 O946 1.261 . S
C931 O947 1.243 . S
C932 C931 1.503 . S
C932 C933 1.394 . S
C932 C937 1.373 . S
C933 C932 1.394 . S
C933 C934 1.380 . S
C933 H956 0.930 . S
C934 C933 1.380 . S
C934 C935 1.376 . S
C934 H957 0.930 . S
C935 C934 1.376 . S
C935 C936 1.370 . S
C936 C935 1.370 . S
C936 C937 1.396 . S
C936 H958 0.929 . S
C937 C932 1.373 . S
C937 C936 1.396 . S
C937 H959 0.929 . S
C938 O948 1.240 . S
C938 O949 1.289 . S
C939 O950 1.258 . S
C939 O951 1.256 . S
O940 La920 2.521 . S
O940 C922 1.261 . S
O941 La920 2.628 . S
O941 C922 1.243 . S
O942 La920 2.554 . S
O942 C929 1.240 . S
O943 La920 2.757 . S
O943 La921 2.482 . S
O943 C929 1.289 . S
O944 La920 2.470 . S
O944 C930 1.258 . S
O945 La921 2.503 . S
O945 C930 1.256 . S
O946 La921 2.521 . S
O946 C931 1.261 . S
O947 La921 2.628 . S
O947 C931 1.243 . S
O948 La921 2.554 . S
O948 C938 1.240 . S
O949 La920 2.482 . S
O949 La921 2.757 . S
O949 C938 1.289 . S
O950 La921 2.470 . S
O950 C939 1.258 . S
O951 La920 2.503 . S
O951 C939 1.256 . S
H952 C924 0.930 . S
H953 C925 0.930 . S
H954 C927 0.929 . S
H955 C928 0.929 . S
H956 C933 0.930 . S
H957 C934 0.930 . S
H958 C936 0.929 . S
H959 C937 0.929 . S
La960 C962 2.928 . S
La960 O980 2.521 . S
La960 O981 2.628 . S
La960 O982 2.554 . S
La960 O983 2.757 . S
La960 O984 2.470 . S
La960 O989 2.482 . S
La960 O991 2.503 . S
La961 C971 2.928 . S
La961 O983 2.482 . S
La961 O985 2.503 . S
La961 O986 2.521 . S
La961 O987 2.628 . S
La961 O988 2.554 . S
La961 O989 2.757 . S
La961 O990 2.470 . S
C962 La960 2.928 . S
C962 C963 1.503 . S
C962 O980 1.261 . S
C962 O981 1.243 . S
C963 C962 1.503 . S
C963 C964 1.394 . S
C963 C968 1.373 . S
C964 C963 1.394 . S
C964 C965 1.380 . S
C964 H992 0.930 . S
C965 C964 1.380 . S
C965 C966 1.376 . S
C965 H993 0.930 . S
C966 C965 1.376 . S
C966 C967 1.370 . S
C967 C966 1.370 . S
C967 C968 1.396 . S
C967 H994 0.929 . S
C968 C963 1.373 . S
C968 C967 1.396 . S
C968 H995 0.929 . S
C969 O982 1.240 . S
C969 O983 1.289 . S
C970 O984 1.258 . S
C970 O985 1.256 . S
C971 La961 2.928 . S
C971 C972 1.503 . S
C971 O986 1.261 . S
C971 O987 1.243 . S
C972 C971 1.503 . S
C972 C973 1.394 . S
C972 C977 1.373 . S
C973 C972 1.394 . S
C973 C974 1.380 . S
C973 H996 0.930 . S
C974 C973 1.380 . S
C974 C975 1.376 . S
C974 H997 0.930 . S
C975 C974 1.376 . S
C975 C976 1.370 . S
C976 C975 1.370 . S
C976 C977 1.396 . S
C976 H998 0.929 . S
C977 C972 1.373 . S
C977 C976 1.396 . S
C977 H999 0.929 . S
C978 O988 1.240 . S
C978 O989 1.289 . S
C979 O990 1.258 . S
C979 O991 1.256 . S
O980 La960 2.521 . S
O980 C962 1.261 . S
O981 La960 2.628 . S
O981 C962 1.243 . S
O982 La960 2.554 . S
O982 C969 1.240 . S
O983 La960 2.757 . S
O983 La961 2.482 . S
O983 C969 1.289 . S
O984 La960 2.470 . S
O984 C970 1.258 . S
O985 La961 2.503 . S
O985 C970 1.256 . S
O986 La961 2.521 . S
O986 C971 1.261 . S
O987 La961 2.628 . S
O987 C971 1.243 . S
O988 La961 2.554 . S
O988 C978 1.240 . S
O989 La960 2.482 . S
O989 La961 2.757 . S
O989 C978 1.289 . S
O990 La961 2.470 . S
O990 C979 1.258 . S
O991 La960 2.503 . S
O991 C979 1.256 . S
H992 C964 0.930 . S
H993 C965 0.930 . S
H994 C967 0.929 . S
H995 C968 0.929 . S
H996 C973 0.930 . S
H997 C974 0.930 . S
H998 C976 0.929 . S
H999 C977 0.929 . S
La1000 C1002 2.928 . S
La1000 O1020 2.521 . S
La1000 O1021 2.628 . S
La1000 O1022 2.554 . S
La1000 O1023 2.757 . S
La1000 O1024 2.470 . S
La1000 O1029 2.482 . S
La1000 O1031 2.503 1_556 S
La1001 C1011 2.928 1_556 S
La1001 O1023 2.482 . S
La1001 O1025 2.503 . S
La1001 O1026 2.521 . S
La1001 O1027 2.628 1_556 S
La1001 O1028 2.554 . S
La1001 O1029 2.757 . S
La1001 O1030 2.470 1_556 S
C1002 La1000 2.928 . S
C1002 C1003 1.503 . S
C1002 O1020 1.261 . S
C1002 O1021 1.243 . S
C1003 C1002 1.503 . S
C1003 C1004 1.394 . S
C1003 C1008 1.373 . S
C1004 C1003 1.394 . S
C1004 C1005 1.380 . S
C1004 H1032 0.930 . S
C1005 C1004 1.380 . S
C1005 C1006 1.376 . S
C1005 H1033 0.930 . S
C1006 C1005 1.376 . S
C1006 C1007 1.370 . S
C1007 C1006 1.370 . S
C1007 C1008 1.396 . S
C1007 H1034 0.929 . S
C1008 C1003 1.373 . S
C1008 C1007 1.396 . S
C1008 H1035 0.929 . S
C1009 O1022 1.240 . S
C1009 O1023 1.289 . S
C1010 O1024 1.258 . S
C1010 O1025 1.256 . S
C1011 La1001 2.928 1_554 S
C1011 C1012 1.503 . S
C1011 O1026 1.261 1_554 S
C1011 O1027 1.243 . S
C1012 C1011 1.503 . S
C1012 C1013 1.394 . S
C1012 C1017 1.373 . S
C1013 C1012 1.394 . S
C1013 C1014 1.380 . S
C1013 H1036 0.930 . S
C1014 C1013 1.380 . S
C1014 C1015 1.376 . S
C1014 H1037 0.930 . S
C1015 C1014 1.376 . S
C1015 C1016 1.370 . S
C1016 C1015 1.370 . S
C1016 C1017 1.396 . S
C1016 H1038 0.929 . S
C1017 C1012 1.373 . S
C1017 C1016 1.396 . S
C1017 H1039 0.929 . S
C1018 O1028 1.240 . S
C1018 O1029 1.289 . S
C1019 O1030 1.258 . S
C1019 O1031 1.256 . S
O1020 La1000 2.521 . S
O1020 C1002 1.261 . S
O1021 La1000 2.628 . S
O1021 C1002 1.243 . S
O1022 La1000 2.554 . S
O1022 C1009 1.240 . S
O1023 La1000 2.757 . S
O1023 La1001 2.482 . S
O1023 C1009 1.289 . S
O1024 La1000 2.470 . S
O1024 C1010 1.258 . S
O1025 La1001 2.503 . S
O1025 C1010 1.256 . S
O1026 La1001 2.521 . S
O1026 C1011 1.261 1_556 S
O1027 La1001 2.628 1_554 S
O1027 C1011 1.243 . S
O1028 La1001 2.554 . S
O1028 C1018 1.240 . S
O1029 La1000 2.482 . S
O1029 La1001 2.757 . S
O1029 C1018 1.289 . S
O1030 La1001 2.470 1_554 S
O1030 C1019 1.258 . S
O1031 La1000 2.503 1_554 S
O1031 C1019 1.256 . S
H1032 C1004 0.930 . S
H1033 C1005 0.930 . S
H1034 C1007 0.929 . S
H1035 C1008 0.929 . S
H1036 C1013 0.930 . S
H1037 C1014 0.930 . S
H1038 C1016 0.929 . S
H1039 C1017 0.929 . S
La1040 C1042 2.928 . S
La1040 O1060 2.521 . S
La1040 O1061 2.628 . S
La1040 O1062 2.554 . S
La1040 O1063 2.757 . S
La1040 O1064 2.470 . S
La1040 O1069 2.482 . S
La1040 O1071 2.503 . S
La1041 C1051 2.928 . S
La1041 O1063 2.482 . S
La1041 O1065 2.503 . S
La1041 O1066 2.521 . S
La1041 O1067 2.628 . S
La1041 O1068 2.554 . S
La1041 O1069 2.757 . S
La1041 O1070 2.470 . S
C1042 La1040 2.928 . S
C1042 C1043 1.503 . S
C1042 O1060 1.261 . S
C1042 O1061 1.243 . S
C1043 C1042 1.503 . S
C1043 C1044 1.394 . S
C1043 C1048 1.373 . S
C1044 C1043 1.394 . S
C1044 C1045 1.380 . S
C1044 H1072 0.930 . S
C1045 C1044 1.380 . S
C1045 C1046 1.376 . S
C1045 H1073 0.930 . S
C1046 C1045 1.376 . S
C1046 C1047 1.370 . S
C1047 C1046 1.370 . S
C1047 C1048 1.396 . S
C1047 H1074 0.929 . S
C1048 C1043 1.373 . S
C1048 C1047 1.396 . S
C1048 H1075 0.929 . S
C1049 O1062 1.240 . S
C1049 O1063 1.289 . S
C1050 O1064 1.258 . S
C1050 O1065 1.256 . S
C1051 La1041 2.928 . S
C1051 C1052 1.503 . S
C1051 O1066 1.261 . S
C1051 O1067 1.243 . S
C1052 C1051 1.503 . S
C1052 C1053 1.394 . S
C1052 C1057 1.373 . S
C1053 C1052 1.394 . S
C1053 C1054 1.380 . S
C1053 H1076 0.930 . S
C1054 C1053 1.380 . S
C1054 C1055 1.376 . S
C1054 H1077 0.930 . S
C1055 C1054 1.376 . S
C1055 C1056 1.370 . S
C1056 C1055 1.370 . S
C1056 C1057 1.396 . S
C1056 H1078 0.929 . S
C1057 C1052 1.373 . S
C1057 C1056 1.396 . S
C1057 H1079 0.929 . S
C1058 O1068 1.240 . S
C1058 O1069 1.289 . S
C1059 O1070 1.258 . S
C1059 O1071 1.256 . S
O1060 La1040 2.521 . S
O1060 C1042 1.261 . S
O1061 La1040 2.628 . S
O1061 C1042 1.243 . S
O1062 La1040 2.554 . S
O1062 C1049 1.240 . S
O1063 La1040 2.757 . S
O1063 La1041 2.482 . S
O1063 C1049 1.289 . S
O1064 La1040 2.470 . S
O1064 C1050 1.258 . S
O1065 La1041 2.503 . S
O1065 C1050 1.256 . S
O1066 La1041 2.521 . S
O1066 C1051 1.261 . S
O1067 La1041 2.628 . S
O1067 C1051 1.243 . S
O1068 La1041 2.554 . S
O1068 C1058 1.240 . S
O1069 La1040 2.482 . S
O1069 La1041 2.757 . S
O1069 C1058 1.289 . S
O1070 La1041 2.470 . S
O1070 C1059 1.258 . S
O1071 La1040 2.503 . S
O1071 C1059 1.256 . S
H1072 C1044 0.930 . S
H1073 C1045 0.930 . S
H1074 C1047 0.929 . S
H1075 C1048 0.929 . S
H1076 C1053 0.930 . S
H1077 C1054 0.930 . S
H1078 C1056 0.929 . S
H1079 C1057 0.929 . S
La1080 C1082 2.928 . S
La1080 O1100 2.521 . S
La1080 O1101 2.628 . S
La1080 O1102 2.554 . S
La1080 O1103 2.757 . S
La1080 O1104 2.470 . S
La1080 O1109 2.482 . S
La1080 O1111 2.503 . S
La1081 C1091 2.928 . S
La1081 O1103 2.482 . S
La1081 O1105 2.503 . S
La1081 O1106 2.521 . S
La1081 O1107 2.628 . S
La1081 O1108 2.554 . S
La1081 O1109 2.757 . S
La1081 O1110 2.470 . S
C1082 La1080 2.928 . S
C1082 C1083 1.503 . S
C1082 O1100 1.261 . S
C1082 O1101 1.243 . S
C1083 C1082 1.503 . S
C1083 C1084 1.394 . S
C1083 C1088 1.373 . S
C1084 C1083 1.394 . S
C1084 C1085 1.380 . S
C1084 H1112 0.930 . S
C1085 C1084 1.380 . S
C1085 C1086 1.376 . S
C1085 H1113 0.930 . S
C1086 C1085 1.376 . S
C1086 C1087 1.370 . S
C1087 C1086 1.370 . S
C1087 C1088 1.396 . S
C1087 H1114 0.929 . S
C1088 C1083 1.373 . S
C1088 C1087 1.396 . S
C1088 H1115 0.929 . S
C1089 O1102 1.240 . S
C1089 O1103 1.289 . S
C1090 O1104 1.258 . S
C1090 O1105 1.256 . S
C1091 La1081 2.928 . S
C1091 C1092 1.503 . S
C1091 O1106 1.261 . S
C1091 O1107 1.243 . S
C1092 C1091 1.503 . S
C1092 C1093 1.394 . S
C1092 C1097 1.373 . S
C1093 C1092 1.394 . S
C1093 C1094 1.380 . S
C1093 H1116 0.930 . S
C1094 C1093 1.380 . S
C1094 C1095 1.376 . S
C1094 H1117 0.930 . S
C1095 C1094 1.376 . S
C1095 C1096 1.370 . S
C1096 C1095 1.370 . S
C1096 C1097 1.396 . S
C1096 H1118 0.929 . S
C1097 C1092 1.373 . S
C1097 C1096 1.396 . S
C1097 H1119 0.929 . S
C1098 O1108 1.240 . S
C1098 O1109 1.289 . S
C1099 O1110 1.258 . S
C1099 O1111 1.256 . S
O1100 La1080 2.521 . S
O1100 C1082 1.261 . S
O1101 La1080 2.628 . S
O1101 C1082 1.243 . S
O1102 La1080 2.554 . S
O1102 C1089 1.240 . S
O1103 La1080 2.757 . S
O1103 La1081 2.482 . S
O1103 C1089 1.289 . S
O1104 La1080 2.470 . S
O1104 C1090 1.258 . S
O1105 La1081 2.503 . S
O1105 C1090 1.256 . S
O1106 La1081 2.521 . S
O1106 C1091 1.261 . S
O1107 La1081 2.628 . S
O1107 C1091 1.243 . S
O1108 La1081 2.554 . S
O1108 C1098 1.240 . S
O1109 La1080 2.482 . S
O1109 La1081 2.757 . S
O1109 C1098 1.289 . S
O1110 La1081 2.470 . S
O1110 C1099 1.258 . S
O1111 La1080 2.503 . S
O1111 C1099 1.256 . S
H1112 C1084 0.930 . S
H1113 C1085 0.930 . S
H1114 C1087 0.929 . S
H1115 C1088 0.929 . S
H1116 C1093 0.930 . S
H1117 C1094 0.930 . S
H1118 C1096 0.929 . S
H1119 C1097 0.929 . S
La1120 C1122 2.928 . S
La1120 O1140 2.521 . S
La1120 O1141 2.628 . S
La1120 O1142 2.554 . S
La1120 O1143 2.757 . S
La1120 O1144 2.470 . S
La1120 O1149 2.482 . S
La1120 O1151 2.503 . S
La1121 C1131 2.928 . S
La1121 O1143 2.482 . S
La1121 O1145 2.503 . S
La1121 O1146 2.521 . S
La1121 O1147 2.628 . S
La1121 O1148 2.554 . S
La1121 O1149 2.757 . S
La1121 O1150 2.470 . S
C1122 La1120 2.928 . S
C1122 C1123 1.503 . S
C1122 O1140 1.261 . S
C1122 O1141 1.243 . S
C1123 C1122 1.503 . S
C1123 C1124 1.394 . S
C1123 C1128 1.373 . S
C1124 C1123 1.394 . S
C1124 C1125 1.380 . S
C1124 H1152 0.930 . S
C1125 C1124 1.380 . S
C1125 C1126 1.376 . S
C1125 H1153 0.930 . S
C1126 C1125 1.376 . S
C1126 C1127 1.370 . S
C1127 C1126 1.370 . S
C1127 C1128 1.396 . S
C1127 H1154 0.929 . S
C1128 C1123 1.373 . S
C1128 C1127 1.396 . S
C1128 H1155 0.929 . S
C1129 O1142 1.240 . S
C1129 O1143 1.289 . S
C1130 O1144 1.258 . S
C1130 O1145 1.256 . S
C1131 La1121 2.928 . S
C1131 C1132 1.503 . S
C1131 O1146 1.261 . S
C1131 O1147 1.243 . S
C1132 C1131 1.503 . S
C1132 C1133 1.394 . S
C1132 C1137 1.373 . S
C1133 C1132 1.394 . S
C1133 C1134 1.380 . S
C1133 H1156 0.930 . S
C1134 C1133 1.380 . S
C1134 C1135 1.376 . S
C1134 H1157 0.930 . S
C1135 C1134 1.376 . S
C1135 C1136 1.370 . S
C1136 C1135 1.370 . S
C1136 C1137 1.396 . S
C1136 H1158 0.929 . S
C1137 C1132 1.373 . S
C1137 C1136 1.396 . S
C1137 H1159 0.929 . S
C1138 O1148 1.240 . S
C1138 O1149 1.289 . S
C1139 O1150 1.258 . S
C1139 O1151 1.256 . S
O1140 La1120 2.521 . S
O1140 C1122 1.261 . S
O1141 La1120 2.628 . S
O1141 C1122 1.243 . S
O1142 La1120 2.554 . S
O1142 C1129 1.240 . S
O1143 La1120 2.757 . S
O1143 La1121 2.482 . S
O1143 C1129 1.289 . S
O1144 La1120 2.470 . S
O1144 C1130 1.258 . S
O1145 La1121 2.503 . S
O1145 C1130 1.256 . S
O1146 La1121 2.521 . S
O1146 C1131 1.261 . S
O1147 La1121 2.628 . S
O1147 C1131 1.243 . S
O1148 La1121 2.554 . S
O1148 C1138 1.240 . S
O1149 La1120 2.482 . S
O1149 La1121 2.757 . S
O1149 C1138 1.289 . S
O1150 La1121 2.470 . S
O1150 C1139 1.258 . S
O1151 La1120 2.503 . S
O1151 C1139 1.256 . S
H1152 C1124 0.930 . S
H1153 C1125 0.930 . S
H1154 C1127 0.929 . S
H1155 C1128 0.929 . S
H1156 C1133 0.930 . S
H1157 C1134 0.930 . S
H1158 C1136 0.929 . S
H1159 C1137 0.929 . S
La1160 C1162 2.928 . S
La1160 O1180 2.521 . S
La1160 O1181 2.628 . S
La1160 O1182 2.554 . S
La1160 O1183 2.757 . S
La1160 O1184 2.470 . S
La1160 O1189 2.482 . S
La1160 O1191 2.503 1_554 S
La1161 C1171 2.928 1_554 S
La1161 O1183 2.482 . S
La1161 O1185 2.503 . S
La1161 O1186 2.521 . S
La1161 O1187 2.628 1_554 S
La1161 O1188 2.554 . S
La1161 O1189 2.757 . S
La1161 O1190 2.470 1_554 S
C1162 La1160 2.928 . S
C1162 C1163 1.503 . S
C1162 O1180 1.261 . S
C1162 O1181 1.243 . S
C1163 C1162 1.503 . S
C1163 C1164 1.394 . S
C1163 C1168 1.373 . S
C1164 C1163 1.394 . S
C1164 C1165 1.380 . S
C1164 H1192 0.930 . S
C1165 C1164 1.380 . S
C1165 C1166 1.376 . S
C1165 H1193 0.930 . S
C1166 C1165 1.376 . S
C1166 C1167 1.370 . S
C1167 C1166 1.370 . S
C1167 C1168 1.396 . S
C1167 H1194 0.929 . S
C1168 C1163 1.373 . S
C1168 C1167 1.396 . S
C1168 H1195 0.929 . S
C1169 O1182 1.240 . S
C1169 O1183 1.289 . S
C1170 O1184 1.258 . S
C1170 O1185 1.256 . S
C1171 La1161 2.928 1_556 S
C1171 C1172 1.503 . S
C1171 O1186 1.261 1_556 S
C1171 O1187 1.243 . S
C1172 C1171 1.503 . S
C1172 C1173 1.394 . S
C1172 C1177 1.373 . S
C1173 C1172 1.394 . S
C1173 C1174 1.380 . S
C1173 H1196 0.930 . S
C1174 C1173 1.380 . S
C1174 C1175 1.376 . S
C1174 H1197 0.930 . S
C1175 C1174 1.376 . S
C1175 C1176 1.370 . S
C1176 C1175 1.370 . S
C1176 C1177 1.396 . S
C1176 H1198 0.929 . S
C1177 C1172 1.373 . S
C1177 C1176 1.396 . S
C1177 H1199 0.929 . S
C1178 O1188 1.240 . S
C1178 O1189 1.289 . S
C1179 O1190 1.258 . S
C1179 O1191 1.256 . S
O1180 La1160 2.521 . S
O1180 C1162 1.261 . S
O1181 La1160 2.628 . S
O1181 C1162 1.243 . S
O1182 La1160 2.554 . S
O1182 C1169 1.240 . S
O1183 La1160 2.757 . S
O1183 La1161 2.482 . S
O1183 C1169 1.289 . S
O1184 La1160 2.470 . S
O1184 C1170 1.258 . S
O1185 La1161 2.503 . S
O1185 C1170 1.256 . S
O1186 La1161 2.521 . S
O1186 C1171 1.261 1_554 S
O1187 La1161 2.628 1_556 S
O1187 C1171 1.243 . S
O1188 La1161 2.554 . S
O1188 C1178 1.240 . S
O1189 La1160 2.482 . S
O1189 La1161 2.757 . S
O1189 C1178 1.289 . S
O1190 La1161 2.470 1_556 S
O1190 C1179 1.258 . S
O1191 La1160 2.503 1_556 S
O1191 C1179 1.256 . S
H1192 C1164 0.930 . S
H1193 C1165 0.930 . S
H1194 C1167 0.929 . S
H1195 C1168 0.929 . S
H1196 C1173 0.930 . S
H1197 C1174 0.930 . S
H1198 C1176 0.929 . S
H1199 C1177 0.929 . S
La1200 C1202 2.928 . S
La1200 O1220 2.521 . S
La1200 O1221 2.628 . S
La1200 O1222 2.554 . S
La1200 O1223 2.757 . S
La1200 O1224 2.470 . S
La1200 O1229 2.482 . S
La1200 O1231 2.503 . S
La1201 C1211 2.928 . S
La1201 O1223 2.482 . S
La1201 O1225 2.503 . S
La1201 O1226 2.521 . S
La1201 O1227 2.628 . S
La1201 O1228 2.554 . S
La1201 O1229 2.757 . S
La1201 O1230 2.470 . S
C1202 La1200 2.928 . S
C1202 C1203 1.503 . S
C1202 O1220 1.261 . S
C1202 O1221 1.243 . S
C1203 C1202 1.503 . S
C1203 C1204 1.394 . S
C1203 C1208 1.373 . S
C1204 C1203 1.394 . S
C1204 C1205 1.380 . S
C1204 H1232 0.930 . S
C1205 C1204 1.380 . S
C1205 C1206 1.376 . S
C1205 H1233 0.930 . S
C1206 C1205 1.376 . S
C1206 C1207 1.370 . S
C1207 C1206 1.370 . S
C1207 C1208 1.396 . S
C1207 H1234 0.929 . S
C1208 C1203 1.373 . S
C1208 C1207 1.396 . S
C1208 H1235 0.929 . S
C1209 O1222 1.240 . S
C1209 O1223 1.289 . S
C1210 O1224 1.258 . S
C1210 O1225 1.256 . S
C1211 La1201 2.928 . S
C1211 C1212 1.503 . S
C1211 O1226 1.261 . S
C1211 O1227 1.243 . S
C1212 C1211 1.503 . S
C1212 C1213 1.394 . S
C1212 C1217 1.373 . S
C1213 C1212 1.394 . S
C1213 C1214 1.380 . S
C1213 H1236 0.930 . S
C1214 C1213 1.380 . S
C1214 C1215 1.376 . S
C1214 H1237 0.930 . S
C1215 C1214 1.376 . S
C1215 C1216 1.370 . S
C1216 C1215 1.370 . S
C1216 C1217 1.396 . S
C1216 H1238 0.929 . S
C1217 C1212 1.373 . S
C1217 C1216 1.396 . S
C1217 H1239 0.929 . S
C1218 O1228 1.240 . S
C1218 O1229 1.289 . S
C1219 O1230 1.258 . S
C1219 O1231 1.256 . S
O1220 La1200 2.521 . S
O1220 C1202 1.261 . S
O1221 La1200 2.628 . S
O1221 C1202 1.243 . S
O1222 La1200 2.554 . S
O1222 C1209 1.240 . S
O1223 La1200 2.757 . S
O1223 La1201 2.482 . S
O1223 C1209 1.289 . S
O1224 La1200 2.470 . S
O1224 C1210 1.258 . S
O1225 La1201 2.503 . S
O1225 C1210 1.256 . S
O1226 La1201 2.521 . S
O1226 C1211 1.261 . S
O1227 La1201 2.628 . S
O1227 C1211 1.243 . S
O1228 La1201 2.554 . S
O1228 C1218 1.240 . S
O1229 La1200 2.482 . S
O1229 La1201 2.757 . S
O1229 C1218 1.289 . S
O1230 La1201 2.470 . S
O1230 C1219 1.258 . S
O1231 La1200 2.503 . S
O1231 C1219 1.256 . S
H1232 C1204 0.930 . S
H1233 C1205 0.930 . S
H1234 C1207 0.929 . S
H1235 C1208 0.929 . S
H1236 C1213 0.930 . S
H1237 C1214 0.930 . S
H1238 C1216 0.929 . S
H1239 C1217 0.929 . S
La1240 C1242 2.928 . S
La1240 O1260 2.521 . S
La1240 O1261 2.628 . S
La1240 O1262 2.554 . S
La1240 O1263 2.757 . S
La1240 O1264 2.470 . S
La1240 O1269 2.482 . S
La1240 O1271 2.503 . S
La1241 C1251 2.928 . S
La1241 O1263 2.482 . S
La1241 O1265 2.503 . S
La1241 O1266 2.521 . S
La1241 O1267 2.628 . S
La1241 O1268 2.554 . S
La1241 O1269 2.757 . S
La1241 O1270 2.470 . S
C1242 La1240 2.928 . S
C1242 C1243 1.503 . S
C1242 O1260 1.261 . S
C1242 O1261 1.243 . S
C1243 C1242 1.503 . S
C1243 C1244 1.394 . S
C1243 C1248 1.373 . S
C1244 C1243 1.394 . S
C1244 C1245 1.380 . S
C1244 H1272 0.930 . S
C1245 C1244 1.380 . S
C1245 C1246 1.376 . S
C1245 H1273 0.930 . S
C1246 C1245 1.376 . S
C1246 C1247 1.370 . S
C1247 C1246 1.370 . S
C1247 C1248 1.396 . S
C1247 H1274 0.929 . S
C1248 C1243 1.373 . S
C1248 C1247 1.396 . S
C1248 H1275 0.929 . S
C1249 O1262 1.240 . S
C1249 O1263 1.289 . S
C1250 O1264 1.258 . S
C1250 O1265 1.256 . S
C1251 La1241 2.928 . S
C1251 C1252 1.503 . S
C1251 O1266 1.261 . S
C1251 O1267 1.243 . S
C1252 C1251 1.503 . S
C1252 C1253 1.394 . S
C1252 C1257 1.373 . S
C1253 C1252 1.394 . S
C1253 C1254 1.380 . S
C1253 H1276 0.930 . S
C1254 C1253 1.380 . S
C1254 C1255 1.376 . S
C1254 H1277 0.930 . S
C1255 C1254 1.376 . S
C1255 C1256 1.370 . S
C1256 C1255 1.370 . S
C1256 C1257 1.396 . S
C1256 H1278 0.929 . S
C1257 C1252 1.373 . S
C1257 C1256 1.396 . S
C1257 H1279 0.929 . S
C1258 O1268 1.240 . S
C1258 O1269 1.289 . S
C1259 O1270 1.258 . S
C1259 O1271 1.256 . S
O1260 La1240 2.521 . S
O1260 C1242 1.261 . S
O1261 La1240 2.628 . S
O1261 C1242 1.243 . S
O1262 La1240 2.554 . S
O1262 C1249 1.240 . S
O1263 La1240 2.757 . S
O1263 La1241 2.482 . S
O1263 C1249 1.289 . S
O1264 La1240 2.470 . S
O1264 C1250 1.258 . S
O1265 La1241 2.503 . S
O1265 C1250 1.256 . S
O1266 La1241 2.521 . S
O1266 C1251 1.261 . S
O1267 La1241 2.628 . S
O1267 C1251 1.243 . S
O1268 La1241 2.554 . S
O1268 C1258 1.240 . S
O1269 La1240 2.482 . S
O1269 La1241 2.757 . S
O1269 C1258 1.289 . S
O1270 La1241 2.470 . S
O1270 C1259 1.258 . S
O1271 La1240 2.503 . S
O1271 C1259 1.256 . S
H1272 C1244 0.930 . S
H1273 C1245 0.930 . S
H1274 C1247 0.929 . S
H1275 C1248 0.929 . S
H1276 C1253 0.930 . S
H1277 C1254 0.930 . S
H1278 C1256 0.929 . S
H1279 C1257 0.929 . S
H1280 C1286 0.930 . S
H1281 C1290 0.930 . S
H1282 C1295 0.929 . S
H1283 C1293 0.929 . S
H1284 C1288 0.929 . S
H1285 C1294 0.929 . S
C1286 H1280 0.930 . S
C1286 C1287 1.367 . S
C1286 C1294 1.378 . S
C1287 C1286 1.367 . S
C1287 C1295 1.433 . S
C1288 H1284 0.929 . S
C1288 C1290 1.378 . S
C1288 C1292 1.350 . S
C1289 C1292 1.463 . S
C1289 C1294 1.350 . S
C1289 N1297 1.427 . S
C1290 H1281 0.930 . S
C1290 C1288 1.378 . S
C1290 C1291 1.367 . S
C1291 C1290 1.367 . S
C1291 C1293 1.433 . S
C1292 C1288 1.350 . S
C1292 C1289 1.463 . S
C1292 N1296 1.427 . S
C1293 H1283 0.929 . S
C1293 C1291 1.433 . S
C1293 N1296 1.384 . S
C1294 H1285 0.929 . S
C1294 C1286 1.378 . S
C1294 C1289 1.350 . S
C1295 H1282 0.929 . S
C1295 C1287 1.433 . S
C1295 N1297 1.384 . S
N1296 C1292 1.427 . S
N1296 C1293 1.384 . S
N1297 C1289 1.427 . S
N1297 C1295 1.384 . S
H1298 C1304 0.930 . S
H1299 C1308 0.930 . S
H1300 C1313 0.929 . S
H1301 C1311 0.929 . S
H1302 C1306 0.929 . S
H1303 C1312 0.929 . S
C1304 H1298 0.930 . S
C1304 C1305 1.367 . S
C1304 C1312 1.378 . S
C1305 C1304 1.367 . S
C1305 C1313 1.433 . S
C1306 H1302 0.929 . S
C1306 C1308 1.378 1_545 S
C1306 C1310 1.350 . S
C1307 C1310 1.463 . S
C1307 C1312 1.350 . S
C1307 N1315 1.427 . S
C1308 H1299 0.930 . S
C1308 C1306 1.378 1_565 S
C1308 C1309 1.367 1_565 S
C1309 C1308 1.367 1_545 S
C1309 C1311 1.433 . S
C1310 C1306 1.350 . S
C1310 C1307 1.463 . S
C1310 N1314 1.427 . S
C1311 H1301 0.929 . S
C1311 C1309 1.433 . S
C1311 N1314 1.384 . S
C1312 H1303 0.929 . S
C1312 C1304 1.378 . S
C1312 C1307 1.350 . S
C1313 H1300 0.929 . S
C1313 C1305 1.433 . S
C1313 N1315 1.384 . S
N1314 C1310 1.427 . S
N1314 C1311 1.384 . S
N1315 C1307 1.427 . S
N1315 C1313 1.384 . S
H1316 C1322 0.930 . S
H1317 C1326 0.930 . S
H1318 C1331 0.929 . S
H1319 C1329 0.929 . S
H1320 C1324 0.929 . S
H1321 C1330 0.929 . S
C1322 H1316 0.930 . S
C1322 C1323 1.367 . S
C1322 C1330 1.378 . S
C1323 C1322 1.367 . S
C1323 C1331 1.433 . S
C1324 H1320 0.929 . S
C1324 C1326 1.378 . S
C1324 C1328 1.350 . S
C1325 C1328 1.463 . S
C1325 C1330 1.350 . S
C1325 N1333 1.427 . S
C1326 H1317 0.930 . S
C1326 C1324 1.378 . S
C1326 C1327 1.367 . S
C1327 C1326 1.367 . S
C1327 C1329 1.433 . S
C1328 C1324 1.350 . S
C1328 C1325 1.463 . S
C1328 N1332 1.427 . S
C1329 H1319 0.929 . S
C1329 C1327 1.433 . S
C1329 N1332 1.384 . S
C1330 H1321 0.929 . S
C1330 C1322 1.378 . S
C1330 C1325 1.350 . S
C1331 H1318 0.929 . S
C1331 C1323 1.433 . S
C1331 N1333 1.384 . S
N1332 C1328 1.427 . S
N1332 C1329 1.384 . S
N1333 C1325 1.427 . S
N1333 C1331 1.384 . S
H1334 C1340 0.930 . S
H1335 C1344 0.930 . S
H1336 C1349 0.929 . S
H1337 C1347 0.929 . S
H1338 C1342 0.929 . S
H1339 C1348 0.929 . S
C1340 H1334 0.930 . S
C1340 C1341 1.367 . S
C1340 C1348 1.378 . S
C1341 C1340 1.367 . S
C1341 C1349 1.433 . S
C1342 H1338 0.929 . S
C1342 C1344 1.378 . S
C1342 C1346 1.350 . S
C1343 C1346 1.463 . S
C1343 C1348 1.350 . S
C1343 N1351 1.427 . S
C1344 H1335 0.930 . S
C1344 C1342 1.378 . S
C1344 C1345 1.367 . S
C1345 C1344 1.367 . S
C1345 C1347 1.433 1_565 S
C1346 C1342 1.350 . S
C1346 C1343 1.463 . S
C1346 N1350 1.427 . S
C1347 H1337 0.929 . S
C1347 C1345 1.433 1_545 S
C1347 N1350 1.384 1_545 S
C1348 H1339 0.929 . S
C1348 C1340 1.378 . S
C1348 C1343 1.350 . S
C1349 H1336 0.929 . S
C1349 C1341 1.433 . S
C1349 N1351 1.384 . S
N1350 C1346 1.427 . S
N1350 C1347 1.384 1_565 S
N1351 C1343 1.427 . S
N1351 C1349 1.384 . S
H1352 C1358 0.930 . S
H1353 C1362 0.930 . S
H1354 C1367 0.929 . S
H1355 C1365 0.929 . S
H1356 C1360 0.929 . S
H1357 C1366 0.929 . S
C1358 H1352 0.930 . S
C1358 C1359 1.367 . S
C1358 C1366 1.378 . S
C1359 C1358 1.367 . S
C1359 C1367 1.433 . S
C1360 H1356 0.929 . S
C1360 C1362 1.378 . S
C1360 C1364 1.350 . S
C1361 C1364 1.463 . S
C1361 C1366 1.350 . S
C1361 N1369 1.427 . S
C1362 H1353 0.930 . S
C1362 C1360 1.378 . S
C1362 C1363 1.367 . S
C1363 C1362 1.367 . S
C1363 C1365 1.433 . S
C1364 C1360 1.350 . S
C1364 C1361 1.463 . S
C1364 N1368 1.427 . S
C1365 H1355 0.929 . S
C1365 C1363 1.433 . S
C1365 N1368 1.384 . S
C1366 H1357 0.929 . S
C1366 C1358 1.378 . S
C1366 C1361 1.350 . S
C1367 H1354 0.929 . S
C1367 C1359 1.433 . S
C1367 N1369 1.384 . S
N1368 C1364 1.427 . S
N1368 C1365 1.384 . S
N1369 C1361 1.427 . S
N1369 C1367 1.384 . S
H1370 C1376 0.930 . S
H1371 C1380 0.930 . S
H1372 C1385 0.929 . S
H1373 C1383 0.929 . S
H1374 C1378 0.929 . S
H1375 C1384 0.929 . S
C1376 H1370 0.930 . S
C1376 C1377 1.367 1_565 S
C1376 C1384 1.378 1_565 S
C1377 C1376 1.367 1_545 S
C1377 C1385 1.433 . S
C1378 H1374 0.929 . S
C1378 C1380 1.378 . S
C1378 C1382 1.350 . S
C1379 C1382 1.463 . S
C1379 C1384 1.350 . S
C1379 N1387 1.427 . S
C1380 H1371 0.930 . S
C1380 C1378 1.378 . S
C1380 C1381 1.367 . S
C1381 C1380 1.367 . S
C1381 C1383 1.433 . S
C1382 C1378 1.350 . S
C1382 C1379 1.463 . S
C1382 N1386 1.427 . S
C1383 H1373 0.929 . S
C1383 C1381 1.433 . S
C1383 N1386 1.384 . S
C1384 H1375 0.929 . S
C1384 C1376 1.378 1_545 S
C1384 C1379 1.350 . S
C1385 H1372 0.929 . S
C1385 C1377 1.433 . S
C1385 N1387 1.384 . S
N1386 C1382 1.427 . S
N1386 C1383 1.384 . S
N1387 C1379 1.427 . S
N1387 C1385 1.384 . S
H1388 C1394 0.930 . S
H1389 C1398 0.930 . S
H1390 C1403 0.929 . S
H1391 C1401 0.929 . S
H1392 C1396 0.929 . S
H1393 C1402 0.929 . S
C1394 H1388 0.930 . S
C1394 C1395 1.367 . S
C1394 C1402 1.378 . S
C1395 C1394 1.367 . S
C1395 C1403 1.433 . S
C1396 H1392 0.929 . S
C1396 C1398 1.378 . S
C1396 C1400 1.350 . S
C1397 C1400 1.463 . S
C1397 C1402 1.350 . S
C1397 N1405 1.427 . S
C1398 H1389 0.930 . S
C1398 C1396 1.378 . S
C1398 C1399 1.367 . S
C1399 C1398 1.367 . S
C1399 C1401 1.433 . S
C1400 C1396 1.350 . S
C1400 C1397 1.463 . S
C1400 N1404 1.427 . S
C1401 H1391 0.929 . S
C1401 C1399 1.433 . S
C1401 N1404 1.384 . S
C1402 H1393 0.929 . S
C1402 C1394 1.378 . S
C1402 C1397 1.350 . S
C1403 H1390 0.929 . S
C1403 C1395 1.433 . S
C1403 N1405 1.384 . S
N1404 C1400 1.427 . S
N1404 C1401 1.384 . S
N1405 C1397 1.427 . S
N1405 C1403 1.384 . S
H1406 C1412 0.930 . S
H1407 C1416 0.930 . S
H1408 C1421 0.929 . S
H1409 C1419 0.929 . S
H1410 C1414 0.929 . S
H1411 C1420 0.929 . S
C1412 H1406 0.930 . S
C1412 C1413 1.367 . S
C1412 C1420 1.378 . S
C1413 C1412 1.367 . S
C1413 C1421 1.433 . S
C1414 H1410 0.929 . S
C1414 C1416 1.378 1_565 S
C1414 C1418 1.350 . S
C1415 C1418 1.463 . S
C1415 C1420 1.350 . S
C1415 N1423 1.427 . S
C1416 H1407 0.930 . S
C1416 C1414 1.378 1_545 S
C1416 C1417 1.367 1_545 S
C1417 C1416 1.367 1_565 S
C1417 C1419 1.433 . S
C1418 C1414 1.350 . S
C1418 C1415 1.463 . S
C1418 N1422 1.427 . S
C1419 H1409 0.929 . S
C1419 C1417 1.433 . S
C1419 N1422 1.384 . S
C1420 H1411 0.929 . S
C1420 C1412 1.378 . S
C1420 C1415 1.350 . S
C1421 H1408 0.929 . S
C1421 C1413 1.433 . S
C1421 N1423 1.384 . S
N1422 C1418 1.427 . S
N1422 C1419 1.384 . S
N1423 C1415 1.427 . S
N1423 C1421 1.384 . S
H1424 C1430 0.930 . S
H1425 C1434 0.930 . S
H1426 C1439 0.929 . S
H1427 C1437 0.929 . S
H1428 C1432 0.929 . S
H1429 C1438 0.929 . S
C1430 H1424 0.930 . S
C1430 C1431 1.367 . S
C1430 C1438 1.378 . S
C1431 C1430 1.367 . S
C1431 C1439 1.433 . S
C1432 H1428 0.929 . S
C1432 C1434 1.378 . S
C1432 C1436 1.350 . S
C1433 C1436 1.463 . S
C1433 C1438 1.350 . S
C1433 N1441 1.427 . S
C1434 H1425 0.930 . S
C1434 C1432 1.378 . S
C1434 C1435 1.367 . S
C1435 C1434 1.367 . S
C1435 C1437 1.433 . S
C1436 C1432 1.350 . S
C1436 C1433 1.463 . S
C1436 N1440 1.427 . S
C1437 H1427 0.929 . S
C1437 C1435 1.433 . S
C1437 N1440 1.384 . S
C1438 H1429 0.929 . S
C1438 C1430 1.378 . S
C1438 C1433 1.350 . S
C1439 H1426 0.929 . S
C1439 C1431 1.433 . S
C1439 N1441 1.384 . S
N1440 C1436 1.427 . S
N1440 C1437 1.384 . S
N1441 C1433 1.427 . S
N1441 C1439 1.384 . S
H1442 C1448 0.930 . S
H1443 C1452 0.930 . S
H1444 C1457 0.929 . S
H1445 C1455 0.929 . S
H1446 C1450 0.929 . S
H1447 C1456 0.929 . S
C1448 H1442 0.930 . S
C1448 C1449 1.367 . S
C1448 C1456 1.378 . S
C1449 C1448 1.367 . S
C1449 C1457 1.433 1_565 S
C1450 H1446 0.929 . S
C1450 C1452 1.378 . S
C1450 C1454 1.350 . S
C1451 C1454 1.463 . S
C1451 C1456 1.350 . S
C1451 N1459 1.427 . S
C1452 H1443 0.930 . S
C1452 C1450 1.378 . S
C1452 C1453 1.367 . S
C1453 C1452 1.367 . S
C1453 C1455 1.433 . S
C1454 C1450 1.350 . S
C1454 C1451 1.463 . S
C1454 N1458 1.427 . S
C1455 H1445 0.929 . S
C1455 C1453 1.433 . S
C1455 N1458 1.384 . S
C1456 H1447 0.929 . S
C1456 C1448 1.378 . S
C1456 C1451 1.350 . S
C1457 H1444 0.929 . S
C1457 C1449 1.433 1_545 S
C1457 N1459 1.384 1_545 S
N1458 C1454 1.427 . S
N1458 C1455 1.384 . S
N1459 C1451 1.427 . S
N1459 C1457 1.384 1_565 S
H1460 C1466 0.930 . S
H1461 C1470 0.930 . S
H1462 C1475 0.929 . S
H1463 C1473 0.929 . S
H1464 C1468 0.929 . S
H1465 C1474 0.929 . S
C1466 H1460 0.930 . S
C1466 C1467 1.367 . S
C1466 C1474 1.378 . S
C1467 C1466 1.367 . S
C1467 C1475 1.433 . S
C1468 H1464 0.929 . S
C1468 C1470 1.378 . S
C1468 C1472 1.350 . S
C1469 C1472 1.463 . S
C1469 C1474 1.350 . S
C1469 N1477 1.427 . S
C1470 H1461 0.930 . S
C1470 C1468 1.378 . S
C1470 C1471 1.367 . S
C1471 C1470 1.367 . S
C1471 C1473 1.433 . S
C1472 C1468 1.350 . S
C1472 C1469 1.463 . S
C1472 N1476 1.427 . S
C1473 H1463 0.929 . S
C1473 C1471 1.433 . S
C1473 N1476 1.384 . S
C1474 H1465 0.929 . S
C1474 C1466 1.378 . S
C1474 C1469 1.350 . S
C1475 H1462 0.929 . S
C1475 C1467 1.433 . S
C1475 N1477 1.384 . S
N1476 C1472 1.427 . S
N1476 C1473 1.384 . S
N1477 C1469 1.427 . S
N1477 C1475 1.384 . S
H1478 C1484 0.930 . S
H1479 C1488 0.930 . S
H1480 C1493 0.929 . S
H1481 C1491 0.929 . S
H1482 C1486 0.929 . S
H1483 C1492 0.929 . S
C1484 H1478 0.930 . S
C1484 C1485 1.367 . S
C1484 C1492 1.378 . S
C1485 C1484 1.367 . S
C1485 C1493 1.433 1_545 S
C1486 H1482 0.929 . S
C1486 C1488 1.378 . S
C1486 C1490 1.350 . S
C1487 C1490 1.463 . S
C1487 C1492 1.350 . S
C1487 N1495 1.427 . S
C1488 H1479 0.930 . S
C1488 C1486 1.378 . S
C1488 C1489 1.367 . S
C1489 C1488 1.367 . S
C1489 C1491 1.433 . S
C1490 C1486 1.350 . S
C1490 C1487 1.463 . S
C1490 N1494 1.427 . S
C1491 H1481 0.929 . S
C1491 C1489 1.433 . S
C1491 N1494 1.384 . S
C1492 H1483 0.929 . S
C1492 C1484 1.378 . S
C1492 C1487 1.350 . S
C1493 H1480 0.929 . S
C1493 C1485 1.433 1_565 S
C1493 N1495 1.384 1_565 S
N1494 C1490 1.427 . S
N1494 C1491 1.384 . S
N1495 C1487 1.427 . S
N1495 C1493 1.384 1_545 S
H1496 C1502 0.930 . S
H1497 C1506 0.930 . S
H1498 C1511 0.929 . S
H1499 C1509 0.929 . S
H1500 C1504 0.929 . S
H1501 C1510 0.929 . S
C1502 H1496 0.930 . S
C1502 C1503 1.367 . S
C1502 C1510 1.378 . S
C1503 C1502 1.367 . S
C1503 C1511 1.433 . S
C1504 H1500 0.929 . S
C1504 C1506 1.378 . S
C1504 C1508 1.350 . S
C1505 C1508 1.463 . S
C1505 C1510 1.350 . S
C1505 N1513 1.427 . S
C1506 H1497 0.930 . S
C1506 C1504 1.378 . S
C1506 C1507 1.367 . S
C1507 C1506 1.367 . S
C1507 C1509 1.433 . S
C1508 C1504 1.350 . S
C1508 C1505 1.463 . S
C1508 N1512 1.427 . S
C1509 H1499 0.929 . S
C1509 C1507 1.433 . S
C1509 N1512 1.384 . S
C1510 H1501 0.929 . S
C1510 C1502 1.378 . S
C1510 C1505 1.350 . S
C1511 H1498 0.929 . S
C1511 C1503 1.433 . S
C1511 N1513 1.384 . S
N1512 C1508 1.427 . S
N1512 C1509 1.384 . S
N1513 C1505 1.427 . S
N1513 C1511 1.384 . S
H1514 C1520 0.930 . S
H1515 C1524 0.930 . S
H1516 C1529 0.929 . S
H1517 C1527 0.929 . S
H1518 C1522 0.929 . S
H1519 C1528 0.929 . S
C1520 H1514 0.930 . S
C1520 C1521 1.367 . S
C1520 C1528 1.378 . S
C1521 C1520 1.367 . S
C1521 C1529 1.433 1_565 S
C1522 H1518 0.929 . S
C1522 C1524 1.378 . S
C1522 C1526 1.350 . S
C1523 C1526 1.463 . S
C1523 C1528 1.350 . S
C1523 N1531 1.427 . S
C1524 H1515 0.930 . S
C1524 C1522 1.378 . S
C1524 C1525 1.367 . S
C1525 C1524 1.367 . S
C1525 C1527 1.433 . S
C1526 C1522 1.350 . S
C1526 C1523 1.463 . S
C1526 N1530 1.427 . S
C1527 H1517 0.929 . S
C1527 C1525 1.433 . S
C1527 N1530 1.384 . S
C1528 H1519 0.929 . S
C1528 C1520 1.378 . S
C1528 C1523 1.350 . S
C1529 H1516 0.929 . S
C1529 C1521 1.433 1_545 S
C1529 N1531 1.384 1_545 S
N1530 C1526 1.427 . S
N1530 C1527 1.384 . S
N1531 C1523 1.427 . S
N1531 C1529 1.384 1_565 S
H1532 C1538 0.930 . S
H1533 C1542 0.930 . S
H1534 C1547 0.929 . S
H1535 C1545 0.929 . S
H1536 C1540 0.929 . S
H1537 C1546 0.929 . S
C1538 H1532 0.930 . S
C1538 C1539 1.367 . S
C1538 C1546 1.378 . S
C1539 C1538 1.367 . S
C1539 C1547 1.433 . S
C1540 H1536 0.929 . S
C1540 C1542 1.378 . S
C1540 C1544 1.350 . S
C1541 C1544 1.463 . S
C1541 C1546 1.350 . S
C1541 N1549 1.427 . S
C1542 H1533 0.930 . S
C1542 C1540 1.378 . S
C1542 C1543 1.367 . S
C1543 C1542 1.367 . S
C1543 C1545 1.433 . S
C1544 C1540 1.350 . S
C1544 C1541 1.463 . S
C1544 N1548 1.427 . S
C1545 H1535 0.929 . S
C1545 C1543 1.433 . S
C1545 N1548 1.384 . S
C1546 H1537 0.929 . S
C1546 C1538 1.378 . S
C1546 C1541 1.350 . S
C1547 H1534 0.929 . S
C1547 C1539 1.433 . S
C1547 N1549 1.384 . S
N1548 C1544 1.427 . S
N1548 C1545 1.384 . S
N1549 C1541 1.427 . S
N1549 C1547 1.384 . S
H1550 C1556 0.930 . S
H1551 C1560 0.930 . S
H1552 C1565 0.929 . S
H1553 C1563 0.929 . S
H1554 C1558 0.929 . S
H1555 C1564 0.929 . S
C1556 H1550 0.930 . S
C1556 C1557 1.367 . S
C1556 C1564 1.378 . S
C1557 C1556 1.367 . S
C1557 C1565 1.433 . S
C1558 H1554 0.929 . S
C1558 C1560 1.378 . S
C1558 C1562 1.350 . S
C1559 C1562 1.463 . S
C1559 C1564 1.350 . S
C1559 N1567 1.427 . S
C1560 H1551 0.930 . S
C1560 C1558 1.378 . S
C1560 C1561 1.367 . S
C1561 C1560 1.367 . S
C1561 C1563 1.433 1_545 S
C1562 C1558 1.350 . S
C1562 C1559 1.463 . S
C1562 N1566 1.427 . S
C1563 H1553 0.929 . S
C1563 C1561 1.433 1_565 S
C1563 N1566 1.384 1_565 S
C1564 H1555 0.929 . S
C1564 C1556 1.378 . S
C1564 C1559 1.350 . S
C1565 H1552 0.929 . S
C1565 C1557 1.433 . S
C1565 N1567 1.384 . S
N1566 C1562 1.427 . S
N1566 C1563 1.384 1_545 S
N1567 C1559 1.427 . S
N1567 C1565 1.384 . S
H1568 C1574 0.930 . S
H1569 C1578 0.930 . S
H1570 C1583 0.929 . S
H1571 C1581 0.929 . S
H1572 C1576 0.929 . S
H1573 C1582 0.929 . S
C1574 H1568 0.930 . S
C1574 C1575 1.367 . S
C1574 C1582 1.378 . S
C1575 C1574 1.367 . S
C1575 C1583 1.433 . S
C1576 H1572 0.929 . S
C1576 C1578 1.378 . S
C1576 C1580 1.350 . S
C1577 C1580 1.463 . S
C1577 C1582 1.350 . S
C1577 N1585 1.427 . S
C1578 H1569 0.930 . S
C1578 C1576 1.378 . S
C1578 C1579 1.367 . S
C1579 C1578 1.367 . S
C1579 C1581 1.433 . S
C1580 C1576 1.350 . S
C1580 C1577 1.463 . S
C1580 N1584 1.427 . S
C1581 H1571 0.929 . S
C1581 C1579 1.433 . S
C1581 N1584 1.384 . S
C1582 H1573 0.929 . S
C1582 C1574 1.378 . S
C1582 C1577 1.350 . S
C1583 H1570 0.929 . S
C1583 C1575 1.433 . S
C1583 N1585 1.384 . S
N1584 C1580 1.427 . S
N1584 C1581 1.384 . S
N1585 C1577 1.427 . S
N1585 C1583 1.384 . S
H1586 C1592 0.930 . S
H1587 C1596 0.930 . S
H1588 C1601 0.929 . S
H1589 C1599 0.929 . S
H1590 C1594 0.929 . S
H1591 C1600 0.929 . S
C1592 H1586 0.930 . S
C1592 C1593 1.367 . S
C1592 C1600 1.378 . S
C1593 C1592 1.367 . S
C1593 C1601 1.433 . S
C1594 H1590 0.929 . S
C1594 C1596 1.378 . S
C1594 C1598 1.350 . S
C1595 C1598 1.463 . S
C1595 C1600 1.350 . S
C1595 N1603 1.427 . S
C1596 H1587 0.930 . S
C1596 C1594 1.378 . S
C1596 C1597 1.367 . S
C1597 C1596 1.367 . S
C1597 C1599 1.433 . S
C1598 C1594 1.350 . S
C1598 C1595 1.463 . S
C1598 N1602 1.427 . S
C1599 H1589 0.929 . S
C1599 C1597 1.433 . S
C1599 N1602 1.384 . S
C1600 H1591 0.929 . S
C1600 C1592 1.378 . S
C1600 C1595 1.350 . S
C1601 H1588 0.929 . S
C1601 C1593 1.433 . S
C1601 N1603 1.384 . S
N1602 C1598 1.427 . S
N1602 C1599 1.384 . S
N1603 C1595 1.427 . S
N1603 C1601 1.384 . S
H1604 C1610 0.930 . S
H1605 C1614 0.930 . S
H1606 C1619 0.929 . S
H1607 C1617 0.929 . S
H1608 C1612 0.929 . S
H1609 C1618 0.929 . S
C1610 H1604 0.930 . S
C1610 C1611 1.367 . S
C1610 C1618 1.378 . S
C1611 C1610 1.367 . S
C1611 C1619 1.433 . S
C1612 H1608 0.929 . S
C1612 C1614 1.378 . S
C1612 C1616 1.350 . S
C1613 C1616 1.463 . S
C1613 C1618 1.350 . S
C1613 N1621 1.427 . S
C1614 H1605 0.930 . S
C1614 C1612 1.378 . S
C1614 C1615 1.367 . S
C1615 C1614 1.367 . S
C1615 C1617 1.433 . S
C1616 C1612 1.350 . S
C1616 C1613 1.463 . S
C1616 N1620 1.427 . S
C1617 H1607 0.929 . S
C1617 C1615 1.433 . S
C1617 N1620 1.384 . S
C1618 H1609 0.929 . S
C1618 C1610 1.378 . S
C1618 C1613 1.350 . S
C1619 H1606 0.929 . S
C1619 C1611 1.433 . S
C1619 N1621 1.384 . S
N1620 C1616 1.427 . S
N1620 C1617 1.384 . S
N1621 C1613 1.427 . S
N1621 C1619 1.384 . S
H1622 C1628 0.930 . S
H1623 C1632 0.930 . S
H1624 C1637 0.929 . S
H1625 C1635 0.929 . S
H1626 C1630 0.929 . S
H1627 C1636 0.929 . S
C1628 H1622 0.930 . S
C1628 C1629 1.367 . S
C1628 C1636 1.378 . S
C1629 C1628 1.367 . S
C1629 C1637 1.433 . S
C1630 H1626 0.929 . S
C1630 C1632 1.378 . S
C1630 C1634 1.350 . S
C1631 C1634 1.463 . S
C1631 C1636 1.350 . S
C1631 N1639 1.427 . S
C1632 H1623 0.930 . S
C1632 C1630 1.378 . S
C1632 C1633 1.367 . S
C1633 C1632 1.367 . S
C1633 C1635 1.433 . S
C1634 C1630 1.350 . S
C1634 C1631 1.463 . S
C1634 N1638 1.427 . S
C1635 H1625 0.929 . S
C1635 C1633 1.433 . S
C1635 N1638 1.384 . S
C1636 H1627 0.929 . S
C1636 C1628 1.378 . S
C1636 C1631 1.350 . S
C1637 H1624 0.929 . S
C1637 C1629 1.433 . S
C1637 N1639 1.384 . S
N1638 C1634 1.427 . S
N1638 C1635 1.384 . S
N1639 C1631 1.427 . S
N1639 C1637 1.384 . S
H1640 C1646 0.930 . S
H1641 C1650 0.930 . S
H1642 C1655 0.929 . S
H1643 C1653 0.929 . S
H1644 C1648 0.929 . S
H1645 C1654 0.929 . S
C1646 H1640 0.930 . S
C1646 C1647 1.367 . S
C1646 C1654 1.378 . S
C1647 C1646 1.367 . S
C1647 C1655 1.433 . S
C1648 H1644 0.929 . S
C1648 C1650 1.378 . S
C1648 C1652 1.350 . S
C1649 C1652 1.463 . S
C1649 C1654 1.350 . S
C1649 N1657 1.427 . S
C1650 H1641 0.930 . S
C1650 C1648 1.378 . S
C1650 C1651 1.367 . S
C1651 C1650 1.367 . S
C1651 C1653 1.433 . S
C1652 C1648 1.350 . S
C1652 C1649 1.463 . S
C1652 N1656 1.427 . S
C1653 H1643 0.929 . S
C1653 C1651 1.433 . S
C1653 N1656 1.384 . S
C1654 H1645 0.929 . S
C1654 C1646 1.378 . S
C1654 C1649 1.350 . S
C1655 H1642 0.929 . S
C1655 C1647 1.433 . S
C1655 N1657 1.384 . S
N1656 C1652 1.427 . S
N1656 C1653 1.384 . S
N1657 C1649 1.427 . S
N1657 C1655 1.384 . S
H1658 C1664 0.930 . S
H1659 C1668 0.930 . S
H1660 C1673 0.929 . S
H1661 C1671 0.929 . S
H1662 C1666 0.929 . S
H1663 C1672 0.929 . S
C1664 H1658 0.930 . S
C1664 C1665 1.367 . S
C1664 C1672 1.378 . S
C1665 C1664 1.367 . S
C1665 C1673 1.433 . S
C1666 H1662 0.929 . S
C1666 C1668 1.378 . S
C1666 C1670 1.350 . S
C1667 C1670 1.463 . S
C1667 C1672 1.350 . S
C1667 N1675 1.427 . S
C1668 H1659 0.930 . S
C1668 C1666 1.378 . S
C1668 C1669 1.367 . S
C1669 C1668 1.367 . S
C1669 C1671 1.433 . S
C1670 C1666 1.350 . S
C1670 C1667 1.463 . S
C1670 N1674 1.427 . S
C1671 H1661 0.929 . S
C1671 C1669 1.433 . S
C1671 N1674 1.384 . S
C1672 H1663 0.929 . S
C1672 C1664 1.378 . S
C1672 C1667 1.350 . S
C1673 H1660 0.929 . S
C1673 C1665 1.433 . S
C1673 N1675 1.384 . S
N1674 C1670 1.427 . S
N1674 C1671 1.384 . S
N1675 C1667 1.427 . S
N1675 C1673 1.384 . S
H1676 C1682 0.930 . S
H1677 C1686 0.930 . S
H1678 C1691 0.929 . S
H1679 C1689 0.929 . S
H1680 C1684 0.929 . S
H1681 C1690 0.929 . S
C1682 H1676 0.930 . S
C1682 C1683 1.367 . S
C1682 C1690 1.378 . S
C1683 C1682 1.367 . S
C1683 C1691 1.433 . S
C1684 H1680 0.929 . S
C1684 C1686 1.378 . S
C1684 C1688 1.350 . S
C1685 C1688 1.463 . S
C1685 C1690 1.350 . S
C1685 N1693 1.427 . S
C1686 H1677 0.930 . S
C1686 C1684 1.378 . S
C1686 C1687 1.367 . S
C1687 C1686 1.367 . S
C1687 C1689 1.433 . S
C1688 C1684 1.350 . S
C1688 C1685 1.463 . S
C1688 N1692 1.427 . S
C1689 H1679 0.929 . S
C1689 C1687 1.433 . S
C1689 N1692 1.384 . S
C1690 H1681 0.929 . S
C1690 C1682 1.378 . S
C1690 C1685 1.350 . S
C1691 H1678 0.929 . S
C1691 C1683 1.433 . S
C1691 N1693 1.384 . S
N1692 C1688 1.427 . S
N1692 C1689 1.384 . S
N1693 C1685 1.427 . S
N1693 C1691 1.384 . S
H1694 C1700 0.930 . S
H1695 C1704 0.930 . S
H1696 C1709 0.929 . S
H1697 C1707 0.929 . S
H1698 C1702 0.929 . S
H1699 C1708 0.929 . S
C1700 H1694 0.930 . S
C1700 C1701 1.367 . S
C1700 C1708 1.378 . S
C1701 C1700 1.367 . S
C1701 C1709 1.433 . S
C1702 H1698 0.929 . S
C1702 C1704 1.378 . S
C1702 C1706 1.350 . S
C1703 C1706 1.463 . S
C1703 C1708 1.350 . S
C1703 N1711 1.427 . S
C1704 H1695 0.930 . S
C1704 C1702 1.378 . S
C1704 C1705 1.367 . S
C1705 C1704 1.367 . S
C1705 C1707 1.433 . S
C1706 C1702 1.350 . S
C1706 C1703 1.463 . S
C1706 N1710 1.427 . S
C1707 H1697 0.929 . S
C1707 C1705 1.433 . S
C1707 N1710 1.384 . S
C1708 H1699 0.929 . S
C1708 C1700 1.378 . S
C1708 C1703 1.350 . S
C1709 H1696 0.929 . S
C1709 C1701 1.433 . S
C1709 N1711 1.384 . S
N1710 C1706 1.427 . S
N1710 C1707 1.384 . S
N1711 C1703 1.427 . S
N1711 C1709 1.384 . S
H1712 C1718 0.930 . S
H1713 C1722 0.930 . S
H1714 C1727 0.929 . S
H1715 C1725 0.929 . S
H1716 C1720 0.929 . S
H1717 C1726 0.929 . S
C1718 H1712 0.930 . S
C1718 C1719 1.367 . S
C1718 C1726 1.378 . S
C1719 C1718 1.367 . S
C1719 C1727 1.433 . S
C1720 H1716 0.929 . S
C1720 C1722 1.378 . S
C1720 C1724 1.350 . S
C1721 C1724 1.463 . S
C1721 C1726 1.350 . S
C1721 N1729 1.427 . S
C1722 H1713 0.930 . S
C1722 C1720 1.378 . S
C1722 C1723 1.367 . S
C1723 C1722 1.367 . S
C1723 C1725 1.433 . S
C1724 C1720 1.350 . S
C1724 C1721 1.463 . S
C1724 N1728 1.427 . S
C1725 H1715 0.929 . S
C1725 C1723 1.433 . S
C1725 N1728 1.384 . S
C1726 H1717 0.929 . S
C1726 C1718 1.378 . S
C1726 C1721 1.350 . S
C1727 H1714 0.929 . S
C1727 C1719 1.433 . S
C1727 N1729 1.384 . S
N1728 C1724 1.427 . S
N1728 C1725 1.384 . S
N1729 C1721 1.427 . S
N1729 C1727 1.384 . S
H1730 C1736 0.930 . S
H1731 C1740 0.930 . S
H1732 C1745 0.929 . S
H1733 C1743 0.929 . S
H1734 C1738 0.929 . S
H1735 C1744 0.929 . S
C1736 H1730 0.930 . S
C1736 C1737 1.367 . S
C1736 C1744 1.378 . S
C1737 C1736 1.367 . S
C1737 C1745 1.433 . S
C1738 H1734 0.929 . S
C1738 C1740 1.378 . S
C1738 C1742 1.350 . S
C1739 C1742 1.463 . S
C1739 C1744 1.350 . S
C1739 N1747 1.427 . S
C1740 H1731 0.930 . S
C1740 C1738 1.378 . S
C1740 C1741 1.367 . S
C1741 C1740 1.367 . S
C1741 C1743 1.433 . S
C1742 C1738 1.350 . S
C1742 C1739 1.463 . S
C1742 N1746 1.427 . S
C1743 H1733 0.929 . S
C1743 C1741 1.433 . S
C1743 N1746 1.384 . S
C1744 H1735 0.929 . S
C1744 C1736 1.378 . S
C1744 C1739 1.350 . S
C1745 H1732 0.929 . S
C1745 C1737 1.433 . S
C1745 N1747 1.384 . S
N1746 C1742 1.427 . S
N1746 C1743 1.384 . S
N1747 C1739 1.427 . S
N1747 C1745 1.384 . S
H1748 C1754 0.930 . S
H1749 C1758 0.930 . S
H1750 C1763 0.929 . S
H1751 C1761 0.929 . S
H1752 C1756 0.929 . S
H1753 C1762 0.929 . S
C1754 H1748 0.930 . S
C1754 C1755 1.367 . S
C1754 C1762 1.378 . S
C1755 C1754 1.367 . S
C1755 C1763 1.433 . S
C1756 H1752 0.929 . S
C1756 C1758 1.378 . S
C1756 C1760 1.350 . S
C1757 C1760 1.463 . S
C1757 C1762 1.350 . S
C1757 N1765 1.427 . S
C1758 H1749 0.930 . S
C1758 C1756 1.378 . S
C1758 C1759 1.367 . S
C1759 C1758 1.367 . S
C1759 C1761 1.433 . S
C1760 C1756 1.350 . S
C1760 C1757 1.463 . S
C1760 N1764 1.427 . S
C1761 H1751 0.929 . S
C1761 C1759 1.433 . S
C1761 N1764 1.384 . S
C1762 H1753 0.929 . S
C1762 C1754 1.378 . S
C1762 C1757 1.350 . S
C1763 H1750 0.929 . S
C1763 C1755 1.433 . S
C1763 N1765 1.384 . S
N1764 C1760 1.427 . S
N1764 C1761 1.384 . S
N1765 C1757 1.427 . S
N1765 C1763 1.384 . S
H1766 C1772 0.930 . S
H1767 C1776 0.930 . S
H1768 C1781 0.929 . S
H1769 C1779 0.929 . S
H1770 C1774 0.929 . S
H1771 C1780 0.929 . S
C1772 H1766 0.930 . S
C1772 C1773 1.367 . S
C1772 C1780 1.378 . S
C1773 C1772 1.367 . S
C1773 C1781 1.433 . S
C1774 H1770 0.929 . S
C1774 C1776 1.378 . S
C1774 C1778 1.350 . S
C1775 C1778 1.463 . S
C1775 C1780 1.350 . S
C1775 N1783 1.427 . S
C1776 H1767 0.930 . S
C1776 C1774 1.378 . S
C1776 C1777 1.367 . S
C1777 C1776 1.367 . S
C1777 C1779 1.433 . S
C1778 C1774 1.350 . S
C1778 C1775 1.463 . S
C1778 N1782 1.427 . S
C1779 H1769 0.929 . S
C1779 C1777 1.433 . S
C1779 N1782 1.384 . S
C1780 H1771 0.929 . S
C1780 C1772 1.378 . S
C1780 C1775 1.350 . S
C1781 H1768 0.929 . S
C1781 C1773 1.433 . S
C1781 N1783 1.384 . S
N1782 C1778 1.427 . S
N1782 C1779 1.384 . S
N1783 C1775 1.427 . S
N1783 C1781 1.384 . S
H1784 C1790 0.930 . S
H1785 C1794 0.930 . S
H1786 C1799 0.929 . S
H1787 C1797 0.929 . S
H1788 C1792 0.929 . S
H1789 C1798 0.929 . S
C1790 H1784 0.930 . S
C1790 C1791 1.367 . S
C1790 C1798 1.378 . S
C1791 C1790 1.367 . S
C1791 C1799 1.433 . S
C1792 H1788 0.929 . S
C1792 C1794 1.378 . S
C1792 C1796 1.350 . S
C1793 C1796 1.463 . S
C1793 C1798 1.350 . S
C1793 N1801 1.427 . S
C1794 H1785 0.930 . S
C1794 C1792 1.378 . S
C1794 C1795 1.367 . S
C1795 C1794 1.367 . S
C1795 C1797 1.433 . S
C1796 C1792 1.350 . S
C1796 C1793 1.463 . S
C1796 N1800 1.427 . S
C1797 H1787 0.929 . S
C1797 C1795 1.433 . S
C1797 N1800 1.384 . S
C1798 H1789 0.929 . S
C1798 C1790 1.378 . S
C1798 C1793 1.350 . S
C1799 H1786 0.929 . S
C1799 C1791 1.433 . S
C1799 N1801 1.384 . S
N1800 C1796 1.427 . S
N1800 C1797 1.384 . S
N1801 C1793 1.427 . S
N1801 C1799 1.384 . S
H1802 C1808 0.930 . S
H1803 C1812 0.930 . S
H1804 C1817 0.929 . S
H1805 C1815 0.929 . S
H1806 C1810 0.929 . S
H1807 C1816 0.929 . S
C1808 H1802 0.930 . S
C1808 C1809 1.367 . S
C1808 C1816 1.378 . S
C1809 C1808 1.367 . S
C1809 C1817 1.433 . S
C1810 H1806 0.929 . S
C1810 C1812 1.378 . S
C1810 C1814 1.350 . S
C1811 C1814 1.463 . S
C1811 C1816 1.350 . S
C1811 N1819 1.427 . S
C1812 H1803 0.930 . S
C1812 C1810 1.378 . S
C1812 C1813 1.367 . S
C1813 C1812 1.367 . S
C1813 C1815 1.433 . S
C1814 C1810 1.350 . S
C1814 C1811 1.463 . S
C1814 N1818 1.427 . S
C1815 H1805 0.929 . S
C1815 C1813 1.433 . S
C1815 N1818 1.384 . S
C1816 H1807 0.929 . S
C1816 C1808 1.378 . S
C1816 C1811 1.350 . S
C1817 H1804 0.929 . S
C1817 C1809 1.433 . S
C1817 N1819 1.384 . S
N1818 C1814 1.427 . S
N1818 C1815 1.384 . S
N1819 C1811 1.427 . S
N1819 C1817 1.384 . S
H1820 C1826 0.930 . S
H1821 C1830 0.930 . S
H1822 C1835 0.929 . S
H1823 C1833 0.929 . S
H1824 C1828 0.929 . S
H1825 C1834 0.929 . S
C1826 H1820 0.930 . S
C1826 C1827 1.367 . S
C1826 C1834 1.378 . S
C1827 C1826 1.367 . S
C1827 C1835 1.433 . S
C1828 H1824 0.929 . S
C1828 C1830 1.378 . S
C1828 C1832 1.350 . S
C1829 C1832 1.463 . S
C1829 C1834 1.350 . S
C1829 N1837 1.427 . S
C1830 H1821 0.930 . S
C1830 C1828 1.378 . S
C1830 C1831 1.367 . S
C1831 C1830 1.367 . S
C1831 C1833 1.433 . S
C1832 C1828 1.350 . S
C1832 C1829 1.463 . S
C1832 N1836 1.427 . S
C1833 H1823 0.929 . S
C1833 C1831 1.433 . S
C1833 N1836 1.384 . S
C1834 H1825 0.929 . S
C1834 C1826 1.378 . S
C1834 C1829 1.350 . S
C1835 H1822 0.929 . S
C1835 C1827 1.433 . S
C1835 N1837 1.384 . S
N1836 C1832 1.427 . S
N1836 C1833 1.384 . S
N1837 C1829 1.427 . S
N1837 C1835 1.384 . S
H1838 C1844 0.930 . S
H1839 C1848 0.930 . S
H1840 C1853 0.929 . S
H1841 C1851 0.929 . S
H1842 C1846 0.929 . S
H1843 C1852 0.929 . S
C1844 H1838 0.930 . S
C1844 C1845 1.367 . S
C1844 C1852 1.378 . S
C1845 C1844 1.367 . S
C1845 C1853 1.433 . S
C1846 H1842 0.929 . S
C1846 C1848 1.378 . S
C1846 C1850 1.350 . S
C1847 C1850 1.463 . S
C1847 C1852 1.350 . S
C1847 N1855 1.427 . S
C1848 H1839 0.930 . S
C1848 C1846 1.378 . S
C1848 C1849 1.367 . S
C1849 C1848 1.367 . S
C1849 C1851 1.433 . S
C1850 C1846 1.350 . S
C1850 C1847 1.463 . S
C1850 N1854 1.427 . S
C1851 H1841 0.929 . S
C1851 C1849 1.433 . S
C1851 N1854 1.384 . S
C1852 H1843 0.929 . S
C1852 C1844 1.378 . S
C1852 C1847 1.350 . S
C1853 H1840 0.929 . S
C1853 C1845 1.433 . S
C1853 N1855 1.384 . S
N1854 C1850 1.427 . S
N1854 C1851 1.384 . S
N1855 C1847 1.427 . S
N1855 C1853 1.384 . S
H1856 C1862 0.930 . S
H1857 C1866 0.930 . S
H1858 C1871 0.929 . S
H1859 C1869 0.929 . S
H1860 C1864 0.929 . S
H1861 C1870 0.929 . S
C1862 H1856 0.930 . S
C1862 C1863 1.367 . S
C1862 C1870 1.378 . S
C1863 C1862 1.367 . S
C1863 C1871 1.433 . S
C1864 H1860 0.929 . S
C1864 C1866 1.378 . S
C1864 C1868 1.350 . S
C1865 C1868 1.463 . S
C1865 C1870 1.350 . S
C1865 N1873 1.427 . S
C1866 H1857 0.930 . S
C1866 C1864 1.378 . S
C1866 C1867 1.367 . S
C1867 C1866 1.367 . S
C1867 C1869 1.433 . S
C1868 C1864 1.350 . S
C1868 C1865 1.463 . S
C1868 N1872 1.427 . S
C1869 H1859 0.929 . S
C1869 C1867 1.433 . S
C1869 N1872 1.384 . S
C1870 H1861 0.929 . S
C1870 C1862 1.378 . S
C1870 C1865 1.350 . S
C1871 H1858 0.929 . S
C1871 C1863 1.433 . S
C1871 N1873 1.384 . S
N1872 C1868 1.427 . S
N1872 C1869 1.384 . S
N1873 C1865 1.427 . S
N1873 C1871 1.384 . S
H1874 C1880 0.930 . S
H1875 C1884 0.933 1_655 S
H1876 C1889 0.929 . S
H1877 C1887 0.929 . S
H1878 C1882 0.929 . S
H1879 C1888 0.929 . S
C1880 H1874 0.930 . S
C1880 C1881 1.367 . S
C1880 C1888 1.378 . S
C1881 C1880 1.367 . S
C1881 C1889 1.433 . S
C1882 H1878 0.929 . S
C1882 C1884 1.378 . S
C1882 C1886 1.350 . S
C1883 C1886 1.463 . S
C1883 C1888 1.350 . S
C1883 N1891 1.427 . S
C1884 H1875 0.933 1_455 S
C1884 C1882 1.378 . S
C1884 C1885 1.367 . S
C1885 C1884 1.367 . S
C1885 C1887 1.433 . S
C1886 C1882 1.350 . S
C1886 C1883 1.463 . S
C1886 N1890 1.427 . S
C1887 H1877 0.929 . S
C1887 C1885 1.433 . S
C1887 N1890 1.384 . S
C1888 H1879 0.929 . S
C1888 C1880 1.378 . S
C1888 C1883 1.350 . S
C1889 H1876 0.929 . S
C1889 C1881 1.433 . S
C1889 N1891 1.384 . S
N1890 C1886 1.427 . S
N1890 C1887 1.384 . S
N1891 C1883 1.427 . S
N1891 C1889 1.384 . S
H1892 C1898 0.930 . S
H1893 C1902 0.930 . S
H1894 C1907 0.929 . S
H1895 C1905 0.929 . S
H1896 C1900 0.929 . S
H1897 C1906 0.929 . S
C1898 H1892 0.930 . S
C1898 C1899 1.367 . S
C1898 C1906 1.378 . S
C1899 C1898 1.367 . S
C1899 C1907 1.433 . S
C1900 H1896 0.929 . S
C1900 C1902 1.378 . S
C1900 C1904 1.350 . S
C1901 C1904 1.463 . S
C1901 C1906 1.350 . S
C1901 N1909 1.427 . S
C1902 H1893 0.930 . S
C1902 C1900 1.378 . S
C1902 C1903 1.367 . S
C1903 C1902 1.367 . S
C1903 C1905 1.433 . S
C1904 C1900 1.350 . S
C1904 C1901 1.463 . S
C1904 N1908 1.427 . S
C1905 H1895 0.929 . S
C1905 C1903 1.433 . S
C1905 N1908 1.384 . S
C1906 H1897 0.929 . S
C1906 C1898 1.378 . S
C1906 C1901 1.350 . S
C1907 H1894 0.929 . S
C1907 C1899 1.433 . S
C1907 N1909 1.384 . S
N1908 C1904 1.427 . S
N1908 C1905 1.384 . S
N1909 C1901 1.427 . S
N1909 C1907 1.384 . S
H1910 C1916 0.930 . S
H1911 C1920 0.930 . S
H1912 C1925 0.929 . S
H1913 C1923 0.929 . S
H1914 C1918 0.929 . S
H1915 C1924 0.929 . S
C1916 H1910 0.930 . S
C1916 C1917 1.367 . S
C1916 C1924 1.378 . S
C1917 C1916 1.367 . S
C1917 C1925 1.433 . S
C1918 H1914 0.929 . S
C1918 C1920 1.378 . S
C1918 C1922 1.350 . S
C1919 C1922 1.463 . S
C1919 C1924 1.350 . S
C1919 N1927 1.427 . S
C1920 H1911 0.930 . S
C1920 C1918 1.378 . S
C1920 C1921 1.367 . S
C1921 C1920 1.367 . S
C1921 C1923 1.433 . S
C1922 C1918 1.350 . S
C1922 C1919 1.463 . S
C1922 N1926 1.427 . S
C1923 H1913 0.929 . S
C1923 C1921 1.433 . S
C1923 N1926 1.384 . S
C1924 H1915 0.929 . S
C1924 C1916 1.378 . S
C1924 C1919 1.350 . S
C1925 H1912 0.929 . S
C1925 C1917 1.433 . S
C1925 N1927 1.384 . S
N1926 C1922 1.427 . S
N1926 C1923 1.384 . S
N1927 C1919 1.427 . S
N1927 C1925 1.384 . S
H1928 C1934 0.930 . S
H1929 C1938 0.930 . S
H1930 C1943 0.929 . S
H1931 C1941 0.929 . S
H1932 C1936 0.929 . S
H1933 C1942 0.929 . S
C1934 H1928 0.930 . S
C1934 C1935 1.367 . S
C1934 C1942 1.378 . S
C1935 C1934 1.367 . S
C1935 C1943 1.433 . S
C1936 H1932 0.929 . S
C1936 C1938 1.378 . S
C1936 C1940 1.350 . S
C1937 C1940 1.463 . S
C1937 C1942 1.350 . S
C1937 N1945 1.427 . S
C1938 H1929 0.930 . S
C1938 C1936 1.378 . S
C1938 C1939 1.367 . S
C1939 C1938 1.367 . S
C1939 C1941 1.433 . S
C1940 C1936 1.350 . S
C1940 C1937 1.463 . S
C1940 N1944 1.427 . S
C1941 H1931 0.929 . S
C1941 C1939 1.433 . S
C1941 N1944 1.384 . S
C1942 H1933 0.929 . S
C1942 C1934 1.378 . S
C1942 C1937 1.350 . S
C1943 H1930 0.929 . S
C1943 C1935 1.433 . S
C1943 N1945 1.384 . S
N1944 C1940 1.427 . S
N1944 C1941 1.384 . S
N1945 C1937 1.427 . S
N1945 C1943 1.384 . S
H1946 C1952 0.930 . S
H1947 C1956 0.930 . S
H1948 C1961 0.929 . S
H1949 C1959 0.929 . S
H1950 C1954 0.929 . S
H1951 C1960 0.929 . S
C1952 H1946 0.930 . S
C1952 C1953 1.367 . S
C1952 C1960 1.378 . S
C1953 C1952 1.367 . S
C1953 C1961 1.433 . S
C1954 H1950 0.929 . S
C1954 C1956 1.378 . S
C1954 C1958 1.350 . S
C1955 C1958 1.463 . S
C1955 C1960 1.350 . S
C1955 N1963 1.427 . S
C1956 H1947 0.930 . S
C1956 C1954 1.378 . S
C1956 C1957 1.367 . S
C1957 C1956 1.367 . S
C1957 C1959 1.433 . S
C1958 C1954 1.350 . S
C1958 C1955 1.463 . S
C1958 N1962 1.427 . S
C1959 H1949 0.929 . S
C1959 C1957 1.433 . S
C1959 N1962 1.384 . S
C1960 H1951 0.929 . S
C1960 C1952 1.378 . S
C1960 C1955 1.350 . S
C1961 H1948 0.929 . S
C1961 C1953 1.433 . S
C1961 N1963 1.384 . S
N1962 C1958 1.427 . S
N1962 C1959 1.384 . S
N1963 C1955 1.427 . S
N1963 C1961 1.384 . S
H1964 C1970 0.930 . S
H1965 C1974 0.930 . S
H1966 C1979 0.929 . S
H1967 C1977 0.929 . S
H1968 C1972 0.929 . S
H1969 C1978 0.929 . S
C1970 H1964 0.930 . S
C1970 C1971 1.367 . S
C1970 C1978 1.378 . S
C1971 C1970 1.367 . S
C1971 C1979 1.433 . S
C1972 H1968 0.929 . S
C1972 C1974 1.378 . S
C1972 C1976 1.350 . S
C1973 C1976 1.463 . S
C1973 C1978 1.350 . S
C1973 N1981 1.427 . S
C1974 H1965 0.930 . S
C1974 C1972 1.378 . S
C1974 C1975 1.367 . S
C1975 C1974 1.367 . S
C1975 C1977 1.433 . S
C1976 C1972 1.350 . S
C1976 C1973 1.463 . S
C1976 N1980 1.427 . S
C1977 H1967 0.929 . S
C1977 C1975 1.433 . S
C1977 N1980 1.384 . S
C1978 H1969 0.929 . S
C1978 C1970 1.378 . S
C1978 C1973 1.350 . S
C1979 H1966 0.929 . S
C1979 C1971 1.433 . S
C1979 N1981 1.384 . S
N1980 C1976 1.427 . S
N1980 C1977 1.384 . S
N1981 C1973 1.427 . S
N1981 C1979 1.384 . S
H1982 C1988 0.930 . S
H1983 C1992 0.930 1_655 S
H1984 C1997 0.929 . S
H1985 C1995 0.929 . S
H1986 C1990 0.929 . S
H1987 C1996 0.929 . S
C1988 H1982 0.930 . S
C1988 C1989 1.367 . S
C1988 C1996 1.378 . S
C1989 C1988 1.367 . S
C1989 C1997 1.433 . S
C1990 H1986 0.929 . S
C1990 C1992 1.378 . S
C1990 C1994 1.350 . S
C1991 C1994 1.463 . S
C1991 C1996 1.350 . S
C1991 N1999 1.427 . S
C1992 H1983 0.930 1_455 S
C1992 C1990 1.378 . S
C1992 C1993 1.367 . S
C1993 C1992 1.367 . S
C1993 C1995 1.433 . S
C1994 C1990 1.350 . S
C1994 C1991 1.463 . S
C1994 N1998 1.427 . S
C1995 H1985 0.929 . S
C1995 C1993 1.433 . S
C1995 N1998 1.384 . S
C1996 H1987 0.929 . S
C1996 C1988 1.378 . S
C1996 C1991 1.350 . S
C1997 H1984 0.929 . S
C1997 C1989 1.433 . S
C1997 N1999 1.384 . S
N1998 C1994 1.427 . S
N1998 C1995 1.384 . S
N1999 C1991 1.427 . S
N1999 C1997 1.384 . S
H2000 C2006 0.930 . S
H2001 C2010 0.930 . S
H2002 C2015 0.929 . S
H2003 C2013 0.929 . S
H2004 C2008 0.929 . S
H2005 C2014 0.929 . S
C2006 H2000 0.930 . S
C2006 C2007 1.367 . S
C2006 C2014 1.378 . S
C2007 C2006 1.367 . S
C2007 C2015 1.433 . S
C2008 H2004 0.929 . S
C2008 C2010 1.378 . S
C2008 C2012 1.350 . S
C2009 C2012 1.463 . S
C2009 C2014 1.350 . S
C2009 N2017 1.427 . S
C2010 H2001 0.930 . S
C2010 C2008 1.378 . S
C2010 C2011 1.367 . S
C2011 C2010 1.367 . S
C2011 C2013 1.433 . S
C2012 C2008 1.350 . S
C2012 C2009 1.463 . S
C2012 N2016 1.427 . S
C2013 H2003 0.929 . S
C2013 C2011 1.433 . S
C2013 N2016 1.384 . S
C2014 H2005 0.929 . S
C2014 C2006 1.378 . S
C2014 C2009 1.350 . S
C2015 H2002 0.929 . S
C2015 C2007 1.433 . S
C2015 N2017 1.384 . S
N2016 C2012 1.427 . S
N2016 C2013 1.384 . S
N2017 C2009 1.427 . S
N2017 C2015 1.384 . S
H2018 C2024 0.930 . S
H2019 C2028 0.930 . S
H2020 C2033 0.929 . S
H2021 C2031 0.929 . S
H2022 C2026 0.929 . S
H2023 C2032 0.929 . S
C2024 H2018 0.930 . S
C2024 C2025 1.367 . S
C2024 C2032 1.378 . S
C2025 C2024 1.367 . S
C2025 C2033 1.433 . S
C2026 H2022 0.929 . S
C2026 C2028 1.378 . S
C2026 C2030 1.350 . S
C2027 C2030 1.463 . S
C2027 C2032 1.350 . S
C2027 N2035 1.427 . S
C2028 H2019 0.930 . S
C2028 C2026 1.378 . S
C2028 C2029 1.367 . S
C2029 C2028 1.367 . S
C2029 C2031 1.433 . S
C2030 C2026 1.350 . S
C2030 C2027 1.463 . S
C2030 N2034 1.427 . S
C2031 H2021 0.929 . S
C2031 C2029 1.433 . S
C2031 N2034 1.384 . S
C2032 H2023 0.929 . S
C2032 C2024 1.378 . S
C2032 C2027 1.350 . S
C2033 H2020 0.929 . S
C2033 C2025 1.433 . S
C2033 N2035 1.384 . S
N2034 C2030 1.427 . S
N2034 C2031 1.384 . S
N2035 C2027 1.427 . S
N2035 C2033 1.384 . S
H2036 C2042 0.930 . S
H2037 C2046 0.930 . S
H2038 C2051 0.929 . S
H2039 C2049 0.929 . S
H2040 C2044 0.929 . S
H2041 C2050 0.929 . S
C2042 H2036 0.930 . S
C2042 C2043 1.367 . S
C2042 C2050 1.378 . S
C2043 C2042 1.367 . S
C2043 C2051 1.433 . S
C2044 H2040 0.929 . S
C2044 C2046 1.378 . S
C2044 C2048 1.350 . S
C2045 C2048 1.463 . S
C2045 C2050 1.350 . S
C2045 N2053 1.427 . S
C2046 H2037 0.930 . S
C2046 C2044 1.378 . S
C2046 C2047 1.367 . S
C2047 C2046 1.367 . S
C2047 C2049 1.433 . S
C2048 C2044 1.350 . S
C2048 C2045 1.463 . S
C2048 N2052 1.427 . S
C2049 H2039 0.929 . S
C2049 C2047 1.433 . S
C2049 N2052 1.384 . S
C2050 H2041 0.929 . S
C2050 C2042 1.378 . S
C2050 C2045 1.350 . S
C2051 H2038 0.929 . S
C2051 C2043 1.433 . S
C2051 N2053 1.384 . S
N2052 C2048 1.427 . S
N2052 C2049 1.384 . S
N2053 C2045 1.427 . S
N2053 C2051 1.384 . S
H2054 C2060 0.930 . S
H2055 C2064 0.930 . S
H2056 C2069 0.929 . S
H2057 C2067 0.929 . S
H2058 C2062 0.929 . S
H2059 C2068 0.929 . S
C2060 H2054 0.930 . S
C2060 C2061 1.367 . S
C2060 C2068 1.378 . S
C2061 C2060 1.367 . S
C2061 C2069 1.433 . S
C2062 H2058 0.929 . S
C2062 C2064 1.378 . S
C2062 C2066 1.350 . S
C2063 C2066 1.463 . S
C2063 C2068 1.350 . S
C2063 N2071 1.427 . S
C2064 H2055 0.930 . S
C2064 C2062 1.378 . S
C2064 C2065 1.367 . S
C2065 C2064 1.367 . S
C2065 C2067 1.433 . S
C2066 C2062 1.350 . S
C2066 C2063 1.463 . S
C2066 N2070 1.427 . S
C2067 H2057 0.929 . S
C2067 C2065 1.433 . S
C2067 N2070 1.384 . S
C2068 H2059 0.929 . S
C2068 C2060 1.378 . S
C2068 C2063 1.350 . S
C2069 H2056 0.929 . S
C2069 C2061 1.433 . S
C2069 N2071 1.384 . S
N2070 C2066 1.427 . S
N2070 C2067 1.384 . S
N2071 C2063 1.427 . S
N2071 C2069 1.384 . S
H2072 C2078 0.930 . S
H2073 C2082 0.930 . S
H2074 C2087 0.929 . S
H2075 C2085 0.929 . S
H2076 C2080 0.929 . S
H2077 C2086 0.929 . S
C2078 H2072 0.930 . S
C2078 C2079 1.367 . S
C2078 C2086 1.378 . S
C2079 C2078 1.367 . S
C2079 C2087 1.433 . S
C2080 H2076 0.929 . S
C2080 C2082 1.378 . S
C2080 C2084 1.350 . S
C2081 C2084 1.463 . S
C2081 C2086 1.350 . S
C2081 N2089 1.427 . S
C2082 H2073 0.930 . S
C2082 C2080 1.378 . S
C2082 C2083 1.367 . S
C2083 C2082 1.367 . S
C2083 C2085 1.433 . S
C2084 C2080 1.350 . S
C2084 C2081 1.463 . S
C2084 N2088 1.427 . S
C2085 H2075 0.929 . S
C2085 C2083 1.433 . S
C2085 N2088 1.384 . S
C2086 H2077 0.929 . S
C2086 C2078 1.378 . S
C2086 C2081 1.350 . S
C2087 H2074 0.929 . S
C2087 C2079 1.433 . S
C2087 N2089 1.384 . S
N2088 C2084 1.427 . S
N2088 C2085 1.384 . S
N2089 C2081 1.427 . S
N2089 C2087 1.384 . S
H2090 C2096 0.930 . S
H2091 C2100 0.930 . S
H2092 C2105 0.929 . S
H2093 C2103 0.929 . S
H2094 C2098 0.929 . S
H2095 C2104 0.929 . S
C2096 H2090 0.930 . S
C2096 C2097 1.367 . S
C2096 C2104 1.378 . S
C2097 C2096 1.367 . S
C2097 C2105 1.433 . S
C2098 H2094 0.929 . S
C2098 C2100 1.378 . S
C2098 C2102 1.350 . S
C2099 C2102 1.463 . S
C2099 C2104 1.350 . S
C2099 N2107 1.427 . S
C2100 H2091 0.930 . S
C2100 C2098 1.378 . S
C2100 C2101 1.367 . S
C2101 C2100 1.367 . S
C2101 C2103 1.433 . S
C2102 C2098 1.350 . S
C2102 C2099 1.463 . S
C2102 N2106 1.427 . S
C2103 H2093 0.929 . S
C2103 C2101 1.433 . S
C2103 N2106 1.384 . S
C2104 H2095 0.929 . S
C2104 C2096 1.378 . S
C2104 C2099 1.350 . S
C2105 H2092 0.929 . S
C2105 C2097 1.433 . S
C2105 N2107 1.384 . S
N2106 C2102 1.427 . S
N2106 C2103 1.384 . S
N2107 C2099 1.427 . S
N2107 C2105 1.384 . S
H2108 C2114 0.930 . S
H2109 C2118 0.930 . S
H2110 C2123 0.929 . S
H2111 C2121 0.929 . S
H2112 C2116 0.929 . S
H2113 C2122 0.929 . S
C2114 H2108 0.930 . S
C2114 C2115 1.367 . S
C2114 C2122 1.378 . S
C2115 C2114 1.367 . S
C2115 C2123 1.433 . S
C2116 H2112 0.929 . S
C2116 C2118 1.378 . S
C2116 C2120 1.350 . S
C2117 C2120 1.463 . S
C2117 C2122 1.350 . S
C2117 N2125 1.427 . S
C2118 H2109 0.930 . S
C2118 C2116 1.378 . S
C2118 C2119 1.367 . S
C2119 C2118 1.367 . S
C2119 C2121 1.433 . S
C2120 C2116 1.350 . S
C2120 C2117 1.463 . S
C2120 N2124 1.427 . S
C2121 H2111 0.929 . S
C2121 C2119 1.433 . S
C2121 N2124 1.384 . S
C2122 H2113 0.929 . S
C2122 C2114 1.378 . S
C2122 C2117 1.350 . S
C2123 H2110 0.929 . S
C2123 C2115 1.433 . S
C2123 N2125 1.384 . S
N2124 C2120 1.427 . S
N2124 C2121 1.384 . S
N2125 C2117 1.427 . S
N2125 C2123 1.384 . S
H2126 C2132 0.930 . S
H2127 C2136 0.917 1_455 S
H2128 C2141 0.929 . S
H2129 C2139 0.929 . S
H2130 C2134 0.929 . S
H2131 C2140 0.929 . S
C2132 H2126 0.930 . S
C2132 C2133 1.367 . S
C2132 C2140 1.378 . S
C2133 C2132 1.367 . S
C2133 C2141 1.433 . S
C2134 H2130 0.929 . S
C2134 C2136 1.378 . S
C2134 C2138 1.350 . S
C2135 C2138 1.463 . S
C2135 C2140 1.350 . S
C2135 N2143 1.427 . S
C2136 H2127 0.917 1_655 S
C2136 C2134 1.378 . S
C2136 C2137 1.367 . S
C2137 C2136 1.367 . S
C2137 C2139 1.433 . S
C2138 C2134 1.350 . S
C2138 C2135 1.463 . S
C2138 N2142 1.427 . S
C2139 H2129 0.929 . S
C2139 C2137 1.433 . S
C2139 N2142 1.384 . S
C2140 H2131 0.929 . S
C2140 C2132 1.378 . S
C2140 C2135 1.350 . S
C2141 H2128 0.929 . S
C2141 C2133 1.433 . S
C2141 N2143 1.384 . S
N2142 C2138 1.427 . S
N2142 C2139 1.384 . S
N2143 C2135 1.427 . S
N2143 C2141 1.384 . S
H2144 C2150 0.930 . S
H2145 C2154 0.930 . S
H2146 C2159 0.929 . S
H2147 C2157 0.929 . S
H2148 C2152 0.929 . S
H2149 C2158 0.929 . S
C2150 H2144 0.930 . S
C2150 C2151 1.367 . S
C2150 C2158 1.378 . S
C2151 C2150 1.367 . S
C2151 C2159 1.433 . S
C2152 H2148 0.929 . S
C2152 C2154 1.378 . S
C2152 C2156 1.350 . S
C2153 C2156 1.463 . S
C2153 C2158 1.350 . S
C2153 N2161 1.427 . S
C2154 H2145 0.930 . S
C2154 C2152 1.378 . S
C2154 C2155 1.367 . S
C2155 C2154 1.367 . S
C2155 C2157 1.433 . S
C2156 C2152 1.350 . S
C2156 C2153 1.463 . S
C2156 N2160 1.427 . S
C2157 H2147 0.929 . S
C2157 C2155 1.433 . S
C2157 N2160 1.384 . S
C2158 H2149 0.929 . S
C2158 C2150 1.378 . S
C2158 C2153 1.350 . S
C2159 H2146 0.929 . S
C2159 C2151 1.433 . S
C2159 N2161 1.384 . S
N2160 C2156 1.427 . S
N2160 C2157 1.384 . S
N2161 C2153 1.427 . S
N2161 C2159 1.384 . S
H2162 C2168 0.930 . S
H2163 C2172 0.930 . S
H2164 C2177 0.929 . S
H2165 C2175 0.929 . S
H2166 C2170 0.929 . S
H2167 C2176 0.929 . S
C2168 H2162 0.930 . S
C2168 C2169 1.367 . S
C2168 C2176 1.378 . S
C2169 C2168 1.367 . S
C2169 C2177 1.433 . S
C2170 H2166 0.929 . S
C2170 C2172 1.378 . S
C2170 C2174 1.350 . S
C2171 C2174 1.463 . S
C2171 C2176 1.350 . S
C2171 N2179 1.427 . S
C2172 H2163 0.930 . S
C2172 C2170 1.378 . S
C2172 C2173 1.367 . S
C2173 C2172 1.367 . S
C2173 C2175 1.433 . S
C2174 C2170 1.350 . S
C2174 C2171 1.463 . S
C2174 N2178 1.427 . S
C2175 H2165 0.929 . S
C2175 C2173 1.433 . S
C2175 N2178 1.384 . S
C2176 H2167 0.929 . S
C2176 C2168 1.378 . S
C2176 C2171 1.350 . S
C2177 H2164 0.929 . S
C2177 C2169 1.433 . S
C2177 N2179 1.384 . S
N2178 C2174 1.427 . S
N2178 C2175 1.384 . S
N2179 C2171 1.427 . S
N2179 C2177 1.384 . S
H2180 C2186 0.930 . S
H2181 C2190 0.930 . S
H2182 C2195 0.929 . S
H2183 C2193 0.929 . S
H2184 C2188 0.929 . S
H2185 C2194 0.929 . S
C2186 H2180 0.930 . S
C2186 C2187 1.367 . S
C2186 C2194 1.378 . S
C2187 C2186 1.367 . S
C2187 C2195 1.433 . S
C2188 H2184 0.929 . S
C2188 C2190 1.378 . S
C2188 C2192 1.350 . S
C2189 C2192 1.463 . S
C2189 C2194 1.350 . S
C2189 N2197 1.427 . S
C2190 H2181 0.930 . S
C2190 C2188 1.378 . S
C2190 C2191 1.367 . S
C2191 C2190 1.367 . S
C2191 C2193 1.433 . S
C2192 C2188 1.350 . S
C2192 C2189 1.463 . S
C2192 N2196 1.427 . S
C2193 H2183 0.929 . S
C2193 C2191 1.433 . S
C2193 N2196 1.384 . S
C2194 H2185 0.929 . S
C2194 C2186 1.378 . S
C2194 C2189 1.350 . S
C2195 H2182 0.929 . S
C2195 C2187 1.433 . S
C2195 N2197 1.384 . S
N2196 C2192 1.427 . S
N2196 C2193 1.384 . S
N2197 C2189 1.427 . S
N2197 C2195 1.384 . S
H2198 C2204 0.930 . S
H2199 C2208 0.930 . S
H2200 C2213 0.929 . S
H2201 C2211 0.929 1_455 S
H2202 C2206 0.929 . S
H2203 C2212 0.929 . S
C2204 H2198 0.930 . S
C2204 C2205 1.367 . S
C2204 C2212 1.378 . S
C2205 C2204 1.367 . S
C2205 C2213 1.433 . S
C2206 H2202 0.929 . S
C2206 C2208 1.378 . S
C2206 C2210 1.350 . S
C2207 C2210 1.463 . S
C2207 C2212 1.350 . S
C2207 N2215 1.427 . S
C2208 H2199 0.930 . S
C2208 C2206 1.378 . S
C2208 C2209 1.367 . S
C2209 C2208 1.367 . S
C2209 C2211 1.433 . S
C2210 C2206 1.350 . S
C2210 C2207 1.463 . S
C2210 N2214 1.427 . S
C2211 H2201 0.929 1_655 S
C2211 C2209 1.433 . S
C2211 N2214 1.384 . S
C2212 H2203 0.929 . S
C2212 C2204 1.378 . S
C2212 C2207 1.350 . S
C2213 H2200 0.929 . S
C2213 C2205 1.433 . S
C2213 N2215 1.384 . S
N2214 C2210 1.427 . S
N2214 C2211 1.384 . S
N2215 C2207 1.427 . S
N2215 C2213 1.384 . S
H2216 C2222 0.930 . S
H2217 C2226 0.930 . S
H2218 C2231 0.929 . S
H2219 C2229 0.929 . S
H2220 C2224 0.929 . S
H2221 C2230 0.929 . S
C2222 H2216 0.930 . S
C2222 C2223 1.367 . S
C2222 C2230 1.378 . S
C2223 C2222 1.367 . S
C2223 C2231 1.433 . S
C2224 H2220 0.929 . S
C2224 C2226 1.378 . S
C2224 C2228 1.350 . S
C2225 C2228 1.463 . S
C2225 C2230 1.350 . S
C2225 N2233 1.427 . S
C2226 H2217 0.930 . S
C2226 C2224 1.378 . S
C2226 C2227 1.367 . S
C2227 C2226 1.367 . S
C2227 C2229 1.433 . S
C2228 C2224 1.350 . S
C2228 C2225 1.463 . S
C2228 N2232 1.427 . S
C2229 H2219 0.929 . S
C2229 C2227 1.433 . S
C2229 N2232 1.384 . S
C2230 H2221 0.929 . S
C2230 C2222 1.378 . S
C2230 C2225 1.350 . S
C2231 H2218 0.929 . S
C2231 C2223 1.433 . S
C2231 N2233 1.384 . S
N2232 C2228 1.427 . S
N2232 C2229 1.384 . S
N2233 C2225 1.427 . S
N2233 C2231 1.384 . S
H2234 C2240 0.930 . S
H2235 C2244 0.930 . S
H2236 C2249 0.929 . S
H2237 C2247 0.929 1_455 S
H2238 C2242 0.929 . S
H2239 C2248 0.929 . S
C2240 H2234 0.930 . S
C2240 C2241 1.367 . S
C2240 C2248 1.378 . S
C2241 C2240 1.367 . S
C2241 C2249 1.433 . S
C2242 H2238 0.929 . S
C2242 C2244 1.378 . S
C2242 C2246 1.350 . S
C2243 C2246 1.463 . S
C2243 C2248 1.350 . S
C2243 N2251 1.427 . S
C2244 H2235 0.930 . S
C2244 C2242 1.378 . S
C2244 C2245 1.367 . S
C2245 C2244 1.367 . S
C2245 C2247 1.433 . S
C2246 C2242 1.350 . S
C2246 C2243 1.463 . S
C2246 N2250 1.427 . S
C2247 H2237 0.929 1_655 S
C2247 C2245 1.433 . S
C2247 N2250 1.384 . S
C2248 H2239 0.929 . S
C2248 C2240 1.378 . S
C2248 C2243 1.350 . S
C2249 H2236 0.929 . S
C2249 C2241 1.433 . S
C2249 N2251 1.384 . S
N2250 C2246 1.427 . S
N2250 C2247 1.384 . S
N2251 C2243 1.427 . S
N2251 C2249 1.384 . S
H2252 C2258 0.930 . S
H2253 C2262 0.930 . S
H2254 C2267 0.929 . S
H2255 C2265 0.929 . S
H2256 C2260 0.929 . S
H2257 C2266 0.929 . S
C2258 H2252 0.930 . S
C2258 C2259 1.367 . S
C2258 C2266 1.378 . S
C2259 C2258 1.367 . S
C2259 C2267 1.433 . S
C2260 H2256 0.929 . S
C2260 C2262 1.378 . S
C2260 C2264 1.350 . S
C2261 C2264 1.463 . S
C2261 C2266 1.350 . S
C2261 N2269 1.427 . S
C2262 H2253 0.930 . S
C2262 C2260 1.378 . S
C2262 C2263 1.367 . S
C2263 C2262 1.367 . S
C2263 C2265 1.433 . S
C2264 C2260 1.350 . S
C2264 C2261 1.463 . S
C2264 N2268 1.427 . S
C2265 H2255 0.929 . S
C2265 C2263 1.433 . S
C2265 N2268 1.384 . S
C2266 H2257 0.929 . S
C2266 C2258 1.378 . S
C2266 C2261 1.350 . S
C2267 H2254 0.929 . S
C2267 C2259 1.433 . S
C2267 N2269 1.384 . S
N2268 C2264 1.427 . S
N2268 C2265 1.384 . S
N2269 C2261 1.427 . S
N2269 C2267 1.384 . S
H2270 C2276 0.930 . S
H2271 C2280 0.930 . S
H2272 C2285 0.929 . S
H2273 C2283 0.929 . S
H2274 C2278 0.929 . S
H2275 C2284 0.929 . S
C2276 H2270 0.930 . S
C2276 C2277 1.367 . S
C2276 C2284 1.378 . S
C2277 C2276 1.367 . S
C2277 C2285 1.433 . S
C2278 H2274 0.929 . S
C2278 C2280 1.378 . S
C2278 C2282 1.350 . S
C2279 C2282 1.463 . S
C2279 C2284 1.350 . S
C2279 N2287 1.427 . S
C2280 H2271 0.930 . S
C2280 C2278 1.378 . S
C2280 C2281 1.367 . S
C2281 C2280 1.367 . S
C2281 C2283 1.433 . S
C2282 C2278 1.350 . S
C2282 C2279 1.463 . S
C2282 N2286 1.427 . S
C2283 H2273 0.929 . S
C2283 C2281 1.433 . S
C2283 N2286 1.384 . S
C2284 H2275 0.929 . S
C2284 C2276 1.378 . S
C2284 C2279 1.350 . S
C2285 H2272 0.929 . S
C2285 C2277 1.433 . S
C2285 N2287 1.384 . S
N2286 C2282 1.427 . S
N2286 C2283 1.384 . S
N2287 C2279 1.427 . S
N2287 C2285 1.384 . S
H2288 C2294 0.930 . S
H2289 C2298 0.930 . S
H2290 C2303 0.929 . S
H2291 C2301 0.929 . S
H2292 C2296 0.929 . S
H2293 C2302 0.929 . S
C2294 H2288 0.930 . S
C2294 C2295 1.367 . S
C2294 C2302 1.378 . S
C2295 C2294 1.367 . S
C2295 C2303 1.433 . S
C2296 H2292 0.929 . S
C2296 C2298 1.378 . S
C2296 C2300 1.350 . S
C2297 C2300 1.463 . S
C2297 C2302 1.350 . S
C2297 N2305 1.427 . S
C2298 H2289 0.930 . S
C2298 C2296 1.378 . S
C2298 C2299 1.367 . S
C2299 C2298 1.367 . S
C2299 C2301 1.433 . S
C2300 C2296 1.350 . S
C2300 C2297 1.463 . S
C2300 N2304 1.427 . S
C2301 H2291 0.929 . S
C2301 C2299 1.433 . S
C2301 N2304 1.384 . S
C2302 H2293 0.929 . S
C2302 C2294 1.378 . S
C2302 C2297 1.350 . S
C2303 H2290 0.929 . S
C2303 C2295 1.433 . S
C2303 N2305 1.384 . S
N2304 C2300 1.427 . S
N2304 C2301 1.384 . S
N2305 C2297 1.427 . S
N2305 C2303 1.384 . S
H2306 C2312 0.930 . S
H2307 C2316 0.930 . S
H2308 C2321 0.929 . S
H2309 C2319 0.929 . S
H2310 C2314 0.929 . S
H2311 C2320 0.929 . S
C2312 H2306 0.930 . S
C2312 C2313 1.367 . S
C2312 C2320 1.378 . S
C2313 C2312 1.367 . S
C2313 C2321 1.433 . S
C2314 H2310 0.929 . S
C2314 C2316 1.378 . S
C2314 C2318 1.350 . S
C2315 C2318 1.463 . S
C2315 C2320 1.350 . S
C2315 N2323 1.427 . S
C2316 H2307 0.930 . S
C2316 C2314 1.378 . S
C2316 C2317 1.367 . S
C2317 C2316 1.367 . S
C2317 C2319 1.433 . S
C2318 C2314 1.350 . S
C2318 C2315 1.463 . S
C2318 N2322 1.427 . S
C2319 H2309 0.929 . S
C2319 C2317 1.433 . S
C2319 N2322 1.384 . S
C2320 H2311 0.929 . S
C2320 C2312 1.378 . S
C2320 C2315 1.350 . S
C2321 H2308 0.929 . S
C2321 C2313 1.433 . S
C2321 N2323 1.384 . S
N2322 C2318 1.427 . S
N2322 C2319 1.384 . S
N2323 C2315 1.427 . S
N2323 C2321 1.384 . S
H2324 C2330 0.930 . S
H2325 C2334 0.930 . S
H2326 C2339 0.929 . S
H2327 C2337 0.929 . S
H2328 C2332 0.929 . S
H2329 C2338 0.929 . S
C2330 H2324 0.930 . S
C2330 C2331 1.367 . S
C2330 C2338 1.378 . S
C2331 C2330 1.367 . S
C2331 C2339 1.433 . S
C2332 H2328 0.929 . S
C2332 C2334 1.378 . S
C2332 C2336 1.350 . S
C2333 C2336 1.463 . S
C2333 C2338 1.350 . S
C2333 N2341 1.427 . S
C2334 H2325 0.930 . S
C2334 C2332 1.378 . S
C2334 C2335 1.367 . S
C2335 C2334 1.367 . S
C2335 C2337 1.433 . S
C2336 C2332 1.350 . S
C2336 C2333 1.463 . S
C2336 N2340 1.427 . S
C2337 H2327 0.929 . S
C2337 C2335 1.433 . S
C2337 N2340 1.384 . S
C2338 H2329 0.929 . S
C2338 C2330 1.378 . S
C2338 C2333 1.350 . S
C2339 H2326 0.929 . S
C2339 C2331 1.433 . S
C2339 N2341 1.384 . S
N2340 C2336 1.427 . S
N2340 C2337 1.384 . S
N2341 C2333 1.427 . S
N2341 C2339 1.384 . S
H2342 C2348 0.930 1_655 S
H2343 C2352 0.930 . S
H2344 C2357 0.929 . S
H2345 C2355 0.929 . S
H2346 C2350 0.929 . S
H2347 C2356 0.929 . S
C2348 H2342 0.930 1_455 S
C2348 C2349 1.367 . S
C2348 C2356 1.378 . S
C2349 C2348 1.367 . S
C2349 C2357 1.433 . S
C2350 H2346 0.929 . S
C2350 C2352 1.378 . S
C2350 C2354 1.350 . S
C2351 C2354 1.463 . S
C2351 C2356 1.350 . S
C2351 N2359 1.427 . S
C2352 H2343 0.930 . S
C2352 C2350 1.378 . S
C2352 C2353 1.367 . S
C2353 C2352 1.367 . S
C2353 C2355 1.433 . S
C2354 C2350 1.350 . S
C2354 C2351 1.463 . S
C2354 N2358 1.427 . S
C2355 H2345 0.929 . S
C2355 C2353 1.433 . S
C2355 N2358 1.384 . S
C2356 H2347 0.929 . S
C2356 C2348 1.378 . S
C2356 C2351 1.350 . S
C2357 H2344 0.929 . S
C2357 C2349 1.433 . S
C2357 N2359 1.384 . S
N2358 C2354 1.427 . S
N2358 C2355 1.384 . S
N2359 C2351 1.427 . S
N2359 C2357 1.384 . S
H2360 C2366 0.930 . S
H2361 C2370 0.930 . S
H2362 C2375 0.929 . S
H2363 C2373 0.929 . S
H2364 C2368 0.929 . S
H2365 C2374 0.929 . S
C2366 H2360 0.930 . S
C2366 C2367 1.367 . S
C2366 C2374 1.378 . S
C2367 C2366 1.367 . S
C2367 C2375 1.433 . S
C2368 H2364 0.929 . S
C2368 C2370 1.378 . S
C2368 C2372 1.350 . S
C2369 C2372 1.463 . S
C2369 C2374 1.350 . S
C2369 N2377 1.427 . S
C2370 H2361 0.930 . S
C2370 C2368 1.378 . S
C2370 C2371 1.367 . S
C2371 C2370 1.367 . S
C2371 C2373 1.433 . S
C2372 C2368 1.350 . S
C2372 C2369 1.463 . S
C2372 N2376 1.427 . S
C2373 H2363 0.929 . S
C2373 C2371 1.433 . S
C2373 N2376 1.384 . S
C2374 H2365 0.929 . S
C2374 C2366 1.378 . S
C2374 C2369 1.350 . S
C2375 H2362 0.929 . S
C2375 C2367 1.433 . S
C2375 N2377 1.384 . S
N2376 C2372 1.427 . S
N2376 C2373 1.384 . S
N2377 C2369 1.427 . S
N2377 C2375 1.384 . S
H2378 C2384 0.930 . S
H2379 C2388 0.930 1_655 S
H2380 C2393 0.929 . S
H2381 C2391 0.929 . S
H2382 C2386 0.929 . S
H2383 C2392 0.929 . S
C2384 H2378 0.930 . S
C2384 C2385 1.367 . S
C2384 C2392 1.378 . S
C2385 C2384 1.367 . S
C2385 C2393 1.433 . S
C2386 H2382 0.929 . S
C2386 C2388 1.378 . S
C2386 C2390 1.350 . S
C2387 C2390 1.463 . S
C2387 C2392 1.350 . S
C2387 N2395 1.427 . S
C2388 H2379 0.930 1_455 S
C2388 C2386 1.378 . S
C2388 C2389 1.367 . S
C2389 C2388 1.367 . S
C2389 C2391 1.433 . S
C2390 C2386 1.350 . S
C2390 C2387 1.463 . S
C2390 N2394 1.427 . S
C2391 H2381 0.929 . S
C2391 C2389 1.433 . S
C2391 N2394 1.384 . S
C2392 H2383 0.929 . S
C2392 C2384 1.378 . S
C2392 C2387 1.350 . S
C2393 H2380 0.929 . S
C2393 C2385 1.433 . S
C2393 N2395 1.384 . S
N2394 C2390 1.427 . S
N2394 C2391 1.384 . S
N2395 C2387 1.427 . S
N2395 C2393 1.384 . S
H2396 C2402 0.930 . S
H2397 C2406 0.930 . S
H2398 C2411 0.929 . S
H2399 C2409 0.929 . S
H2400 C2404 0.929 . S
H2401 C2410 0.929 . S
C2402 H2396 0.930 . S
C2402 C2403 1.367 . S
C2402 C2410 1.378 . S
C2403 C2402 1.367 . S
C2403 C2411 1.433 . S
C2404 H2400 0.929 . S
C2404 C2406 1.378 . S
C2404 C2408 1.350 . S
C2405 C2408 1.463 . S
C2405 C2410 1.350 . S
C2405 N2413 1.427 . S
C2406 H2397 0.930 . S
C2406 C2404 1.378 . S
C2406 C2407 1.367 . S
C2407 C2406 1.367 . S
C2407 C2409 1.433 . S
C2408 C2404 1.350 . S
C2408 C2405 1.463 . S
C2408 N2412 1.427 . S
C2409 H2399 0.929 . S
C2409 C2407 1.433 . S
C2409 N2412 1.384 . S
C2410 H2401 0.929 . S
C2410 C2402 1.378 . S
C2410 C2405 1.350 . S
C2411 H2398 0.929 . S
C2411 C2403 1.433 . S
C2411 N2413 1.384 . S
N2412 C2408 1.427 . S
N2412 C2409 1.384 . S
N2413 C2405 1.427 . S
N2413 C2411 1.384 . S
H2414 C2420 0.930 . S
H2415 C2424 0.930 . S
H2416 C2429 0.929 . S
H2417 C2427 0.929 . S
H2418 C2422 0.929 . S
H2419 C2428 0.929 . S
C2420 H2414 0.930 . S
C2420 C2421 1.367 . S
C2420 C2428 1.378 . S
C2421 C2420 1.367 . S
C2421 C2429 1.433 . S
C2422 H2418 0.929 . S
C2422 C2424 1.378 . S
C2422 C2426 1.350 . S
C2423 C2426 1.463 . S
C2423 C2428 1.350 . S
C2423 N2431 1.427 . S
C2424 H2415 0.930 . S
C2424 C2422 1.378 . S
C2424 C2425 1.367 . S
C2425 C2424 1.367 . S
C2425 C2427 1.433 . S
C2426 C2422 1.350 . S
C2426 C2423 1.463 . S
C2426 N2430 1.427 . S
C2427 H2417 0.929 . S
C2427 C2425 1.433 . S
C2427 N2430 1.384 . S
C2428 H2419 0.929 . S
C2428 C2420 1.378 . S
C2428 C2423 1.350 . S
C2429 H2416 0.929 . S
C2429 C2421 1.433 . S
C2429 N2431 1.384 . S
N2430 C2426 1.427 . S
N2430 C2427 1.384 . S
N2431 C2423 1.427 . S
N2431 C2429 1.384 . S
H2432 C2438 0.930 . S
H2433 C2442 0.930 . S
H2434 C2447 0.929 . S
H2435 C2445 0.929 . S
H2436 C2440 0.929 . S
H2437 C2446 0.929 . S
C2438 H2432 0.930 . S
C2438 C2439 1.367 . S
C2438 C2446 1.378 . S
C2439 C2438 1.367 . S
C2439 C2447 1.433 . S
C2440 H2436 0.929 . S
C2440 C2442 1.378 . S
C2440 C2444 1.350 . S
C2441 C2444 1.463 1_545 S
C2441 C2446 1.350 . S
C2441 N2449 1.427 . S
C2442 H2433 0.930 . S
C2442 C2440 1.378 . S
C2442 C2443 1.367 . S
C2443 C2442 1.367 . S
C2443 C2445 1.433 . S
C2444 C2440 1.350 . S
C2444 C2441 1.463 1_565 S
C2444 N2448 1.427 . S
C2445 H2435 0.929 . S
C2445 C2443 1.433 . S
C2445 N2448 1.384 . S
C2446 H2437 0.929 . S
C2446 C2438 1.378 . S
C2446 C2441 1.350 . S
C2447 H2434 0.929 . S
C2447 C2439 1.433 . S
C2447 N2449 1.384 . S
N2448 C2444 1.427 . S
N2448 C2445 1.384 . S
N2449 C2441 1.427 . S
N2449 C2447 1.384 . S
H2450 C2456 0.930 . S
H2451 C2460 0.930 . S
H2452 C2465 0.929 . S
H2453 C2463 0.929 . S
H2454 C2458 0.929 . S
H2455 C2464 0.929 . S
C2456 H2450 0.930 . S
C2456 C2457 1.367 . S
C2456 C2464 1.378 . S
C2457 C2456 1.367 . S
C2457 C2465 1.433 . S
C2458 H2454 0.929 . S
C2458 C2460 1.378 . S
C2458 C2462 1.350 . S
C2459 C2462 1.463 . S
C2459 C2464 1.350 . S
C2459 N2467 1.427 . S
C2460 H2451 0.930 . S
C2460 C2458 1.378 . S
C2460 C2461 1.367 . S
C2461 C2460 1.367 . S
C2461 C2463 1.433 . S
C2462 C2458 1.350 . S
C2462 C2459 1.463 . S
C2462 N2466 1.427 . S
C2463 H2453 0.929 . S
C2463 C2461 1.433 . S
C2463 N2466 1.384 . S
C2464 H2455 0.929 . S
C2464 C2456 1.378 . S
C2464 C2459 1.350 . S
C2465 H2452 0.929 . S
C2465 C2457 1.433 . S
C2465 N2467 1.384 . S
N2466 C2462 1.427 . S
N2466 C2463 1.384 . S
N2467 C2459 1.427 . S
N2467 C2465 1.384 . S
H2468 C2474 0.930 . S
H2469 C2478 0.930 . S
H2470 C2483 0.929 . S
H2471 C2481 0.929 . S
H2472 C2476 0.929 . S
H2473 C2482 0.929 . S
C2474 H2468 0.930 . S
C2474 C2475 1.367 . S
C2474 C2482 1.378 . S
C2475 C2474 1.367 . S
C2475 C2483 1.433 . S
C2476 H2472 0.929 . S
C2476 C2478 1.378 . S
C2476 C2480 1.350 . S
C2477 C2480 1.463 1_565 S
C2477 C2482 1.350 . S
C2477 N2485 1.427 . S
C2478 H2469 0.930 . S
C2478 C2476 1.378 . S
C2478 C2479 1.367 . S
C2479 C2478 1.367 . S
C2479 C2481 1.433 . S
C2480 C2476 1.350 . S
C2480 C2477 1.463 1_545 S
C2480 N2484 1.427 . S
C2481 H2471 0.929 . S
C2481 C2479 1.433 . S
C2481 N2484 1.384 . S
C2482 H2473 0.929 . S
C2482 C2474 1.378 . S
C2482 C2477 1.350 . S
C2483 H2470 0.929 . S
C2483 C2475 1.433 . S
C2483 N2485 1.384 . S
N2484 C2480 1.427 . S
N2484 C2481 1.384 . S
N2485 C2477 1.427 . S
N2485 C2483 1.384 . S
H2486 C2492 0.930 . S
H2487 C2496 0.930 . S
H2488 C2501 0.929 . S
H2489 C2499 0.929 . S
H2490 C2494 0.929 . S
H2491 C2500 0.929 . S
C2492 H2486 0.930 . S
C2492 C2493 1.367 1_554 S
C2492 C2500 1.378 . S
C2493 C2492 1.367 1_556 S
C2493 C2501 1.433 . S
C2494 H2490 0.929 . S
C2494 C2496 1.378 . S
C2494 C2498 1.359 . S
C2495 C2498 1.462 1_554 S
C2495 C2500 1.359 . S
C2495 N2503 1.418 1_554 S
C2496 H2487 0.930 . S
C2496 C2494 1.378 . S
C2496 C2497 1.367 1_556 S
C2497 C2496 1.367 1_554 S
C2497 C2499 1.433 . S
C2498 C2494 1.359 . S
C2498 C2495 1.462 1_556 S
C2498 N2502 1.418 1_556 S
C2499 H2489 0.929 . S
C2499 C2497 1.433 . S
C2499 N2502 1.384 . S
C2500 H2491 0.929 . S
C2500 C2492 1.378 . S
C2500 C2495 1.359 . S
C2501 H2488 0.929 . S
C2501 C2493 1.433 . S
C2501 N2503 1.384 . S
N2502 C2498 1.418 1_554 S
N2502 C2499 1.384 . S
N2503 C2495 1.418 1_556 S
N2503 C2501 1.384 . S
H2504 C2510 0.930 . S
H2505 C2514 0.930 . S
H2506 C2519 0.929 . S
H2507 C2517 0.929 . S
H2508 C2512 0.929 . S
H2509 C2518 0.929 . S
C2510 H2504 0.930 . S
C2510 C2511 1.367 . S
C2510 C2518 1.378 . S
C2511 C2510 1.367 . S
C2511 C2519 1.433 . S
C2512 H2508 0.929 . S
C2512 C2514 1.378 . S
C2512 C2516 1.350 . S
C2513 C2516 1.463 1_545 S
C2513 C2518 1.350 . S
C2513 N2521 1.427 . S
C2514 H2505 0.930 . S
C2514 C2512 1.378 . S
C2514 C2515 1.367 . S
C2515 C2514 1.367 . S
C2515 C2517 1.433 . S
C2516 C2512 1.350 . S
C2516 C2513 1.463 1_565 S
C2516 N2520 1.427 . S
C2517 H2507 0.929 . S
C2517 C2515 1.433 . S
C2517 N2520 1.384 . S
C2518 H2509 0.929 . S
C2518 C2510 1.378 . S
C2518 C2513 1.350 . S
C2519 H2506 0.929 . S
C2519 C2511 1.433 . S
C2519 N2521 1.384 . S
N2520 C2516 1.427 . S
N2520 C2517 1.384 . S
N2521 C2513 1.427 . S
N2521 C2519 1.384 . S
H2522 C2528 0.930 . S
H2523 C2532 0.930 . S
H2524 C2537 0.929 . S
H2525 C2535 0.929 . S
H2526 C2530 0.929 . S
H2527 C2536 0.929 . S
C2528 H2522 0.930 . S
C2528 C2529 1.367 . S
C2528 C2536 1.378 . S
C2529 C2528 1.367 . S
C2529 C2537 1.433 . S
C2530 H2526 0.929 . S
C2530 C2532 1.378 . S
C2530 C2534 1.350 . S
C2531 C2534 1.463 . S
C2531 C2536 1.350 . S
C2531 N2539 1.427 . S
C2532 H2523 0.930 . S
C2532 C2530 1.378 . S
C2532 C2533 1.367 . S
C2533 C2532 1.367 . S
C2533 C2535 1.433 . S
C2534 C2530 1.350 . S
C2534 C2531 1.463 . S
C2534 N2538 1.427 . S
C2535 H2525 0.929 . S
C2535 C2533 1.433 . S
C2535 N2538 1.384 . S
C2536 H2527 0.929 . S
C2536 C2528 1.378 . S
C2536 C2531 1.350 . S
C2537 H2524 0.929 . S
C2537 C2529 1.433 . S
C2537 N2539 1.384 . S
N2538 C2534 1.427 . S
N2538 C2535 1.384 . S
N2539 C2531 1.427 . S
N2539 C2537 1.384 . S
H2540 C2546 0.930 . S
H2541 C2550 0.930 . S
H2542 C2555 0.929 . S
H2543 C2553 0.929 . S
H2544 C2548 0.929 . S
H2545 C2554 0.929 . S
C2546 H2540 0.930 . S
C2546 C2547 1.367 . S
C2546 C2554 1.378 . S
C2547 C2546 1.367 . S
C2547 C2555 1.433 . S
C2548 H2544 0.929 . S
C2548 C2550 1.378 . S
C2548 C2552 1.350 . S
C2549 C2552 1.463 1_545 S
C2549 C2554 1.350 . S
C2549 N2557 1.427 . S
C2550 H2541 0.930 . S
C2550 C2548 1.378 . S
C2550 C2551 1.367 . S
C2551 C2550 1.367 . S
C2551 C2553 1.433 . S
C2552 C2548 1.350 . S
C2552 C2549 1.463 1_565 S
C2552 N2556 1.427 . S
C2553 H2543 0.929 . S
C2553 C2551 1.433 . S
C2553 N2556 1.384 . S
C2554 H2545 0.929 . S
C2554 C2546 1.378 . S
C2554 C2549 1.350 . S
C2555 H2542 0.929 . S
C2555 C2547 1.433 . S
C2555 N2557 1.384 . S
N2556 C2552 1.427 . S
N2556 C2553 1.384 . S
N2557 C2549 1.427 . S
N2557 C2555 1.384 . S
H2558 C2564 0.930 . S
H2559 C2568 0.930 . S
H2560 C2573 0.929 . S
H2561 C2571 0.929 . S
H2562 C2566 0.929 . S
H2563 C2572 0.929 . S
C2564 H2558 0.930 . S
C2564 C2565 1.367 . S
C2564 C2572 1.378 . S
C2565 C2564 1.367 . S
C2565 C2573 1.433 1_556 S
C2566 H2562 0.929 . S
C2566 C2568 1.378 . S
C2566 C2570 1.350 . S
C2567 C2570 1.463 1_556 S
C2567 C2572 1.350 . S
C2567 N2575 1.427 1_556 S
C2568 H2559 0.930 . S
C2568 C2566 1.378 . S
C2568 C2569 1.367 . S
C2569 C2568 1.367 . S
C2569 C2571 1.433 1_554 S
C2570 C2566 1.350 . S
C2570 C2567 1.463 1_554 S
C2570 N2574 1.427 1_554 S
C2571 H2561 0.929 . S
C2571 C2569 1.433 1_556 S
C2571 N2574 1.384 . S
C2572 H2563 0.929 . S
C2572 C2564 1.378 . S
C2572 C2567 1.350 . S
C2573 H2560 0.929 . S
C2573 C2565 1.433 1_554 S
C2573 N2575 1.384 . S
N2574 C2570 1.427 1_556 S
N2574 C2571 1.384 . S
N2575 C2567 1.427 1_554 S
N2575 C2573 1.384 . S
H2576 C2582 0.930 . S
H2577 C2586 0.930 . S
H2578 C2591 0.929 . S
H2579 C2589 0.929 . S
H2580 C2584 0.929 . S
H2581 C2590 0.929 . S
C2582 H2576 0.930 . S
C2582 C2583 1.367 . S
C2582 C2590 1.378 . S
C2583 C2582 1.367 . S
C2583 C2591 1.433 . S
C2584 H2580 0.929 . S
C2584 C2586 1.378 . S
C2584 C2588 1.350 . S
C2585 C2588 1.463 . S
C2585 C2590 1.350 . S
C2585 N2593 1.427 . S
C2586 H2577 0.930 . S
C2586 C2584 1.378 . S
C2586 C2587 1.367 . S
C2587 C2586 1.367 . S
C2587 C2589 1.433 . S
C2588 C2584 1.350 . S
C2588 C2585 1.463 . S
C2588 N2592 1.427 . S
C2589 H2579 0.929 . S
C2589 C2587 1.433 . S
C2589 N2592 1.384 . S
C2590 H2581 0.929 . S
C2590 C2582 1.378 . S
C2590 C2585 1.350 . S
C2591 H2578 0.929 . S
C2591 C2583 1.433 . S
C2591 N2593 1.384 . S
N2592 C2588 1.427 . S
N2592 C2589 1.384 . S
N2593 C2585 1.427 . S
N2593 C2591 1.384 . S
H2594 C2600 0.930 . S
H2595 C2604 0.930 . S
H2596 C2609 0.929 . S
H2597 C2607 0.929 . S
H2598 C2602 0.929 . S
H2599 C2608 0.929 . S
C2600 H2594 0.930 . S
C2600 C2601 1.367 . S
C2600 C2608 1.378 . S
C2601 C2600 1.367 . S
C2601 C2609 1.433 1_556 S
C2602 H2598 0.929 . S
C2602 C2604 1.378 . S
C2602 C2606 1.376 . S
C2603 C2606 1.459 1_556 S
C2603 C2608 1.376 . S
C2603 N2611 1.404 1_556 S
C2604 H2595 0.930 . S
C2604 C2602 1.378 . S
C2604 C2605 1.367 . S
C2605 C2604 1.367 . S
C2605 C2607 1.433 1_554 S
C2606 C2602 1.376 . S
C2606 C2603 1.459 1_554 S
C2606 N2610 1.404 1_554 S
C2607 H2597 0.929 . S
C2607 C2605 1.433 1_556 S
C2607 N2610 1.384 . S
C2608 H2599 0.929 . S
C2608 C2600 1.378 . S
C2608 C2603 1.376 . S
C2609 H2596 0.929 . S
C2609 C2601 1.433 1_554 S
C2609 N2611 1.384 . S
N2610 C2606 1.404 1_556 S
N2610 C2607 1.384 . S
N2611 C2603 1.404 1_554 S
N2611 C2609 1.384 . S
H2612 C2618 0.930 . S
H2613 C2622 0.930 . S
H2614 C2627 0.929 . S
H2615 C2625 0.929 . S
H2616 C2620 0.929 . S
H2617 C2626 0.929 . S
C2618 H2612 0.930 . S
C2618 C2619 1.367 . S
C2618 C2626 1.378 . S
C2619 C2618 1.367 . S
C2619 C2627 1.433 . S
C2620 H2616 0.929 . S
C2620 C2622 1.378 . S
C2620 C2624 1.350 . S
C2621 C2624 1.463 . S
C2621 C2626 1.350 . S
C2621 N2629 1.427 . S
C2622 H2613 0.930 . S
C2622 C2620 1.378 . S
C2622 C2623 1.367 . S
C2623 C2622 1.367 . S
C2623 C2625 1.433 . S
C2624 C2620 1.350 . S
C2624 C2621 1.463 . S
C2624 N2628 1.427 . S
C2625 H2615 0.929 . S
C2625 C2623 1.433 . S
C2625 N2628 1.384 . S
C2626 H2617 0.929 . S
C2626 C2618 1.378 . S
C2626 C2621 1.350 . S
C2627 H2614 0.929 . S
C2627 C2619 1.433 . S
C2627 N2629 1.384 . S
N2628 C2624 1.427 . S
N2628 C2625 1.384 . S
N2629 C2621 1.427 . S
N2629 C2627 1.384 . S
H2630 C2636 0.930 . S
H2631 C2640 0.930 . S
H2632 C2645 0.929 . S
H2633 C2643 0.929 . S
H2634 C2638 0.929 . S
H2635 C2644 0.929 . S
C2636 H2630 0.930 . S
C2636 C2637 1.367 . S
C2636 C2644 1.378 . S
C2637 C2636 1.367 . S
C2637 C2645 1.433 . S
C2638 H2634 0.929 . S
C2638 C2640 1.378 . S
C2638 C2642 1.350 . S
C2639 C2642 1.463 . S
C2639 C2644 1.350 . S
C2639 N2647 1.427 . S
C2640 H2631 0.930 . S
C2640 C2638 1.378 . S
C2640 C2641 1.367 . S
C2641 C2640 1.367 . S
C2641 C2643 1.433 . S
C2642 C2638 1.350 . S
C2642 C2639 1.463 . S
C2642 N2646 1.427 . S
C2643 H2633 0.929 . S
C2643 C2641 1.433 . S
C2643 N2646 1.384 . S
C2644 H2635 0.929 . S
C2644 C2636 1.378 . S
C2644 C2639 1.350 . S
C2645 H2632 0.929 . S
C2645 C2637 1.433 . S
C2645 N2647 1.384 . S
N2646 C2642 1.427 . S
N2646 C2643 1.384 . S
N2647 C2639 1.427 . S
N2647 C2645 1.384 . S
H2648 C2654 0.930 . S
H2649 C2658 0.930 . S
H2650 C2663 0.929 . S
H2651 C2661 0.929 . S
H2652 C2656 0.929 . S
H2653 C2662 0.929 . S
C2654 H2648 0.930 . S
C2654 C2655 1.367 . S
C2654 C2662 1.378 . S
C2655 C2654 1.367 . S
C2655 C2663 1.433 . S
C2656 H2652 0.929 . S
C2656 C2658 1.378 . S
C2656 C2660 1.350 . S
C2657 C2660 1.463 . S
C2657 C2662 1.350 . S
C2657 N2665 1.427 . S
C2658 H2649 0.930 . S
C2658 C2656 1.378 . S
C2658 C2659 1.367 . S
C2659 C2658 1.367 . S
C2659 C2661 1.433 . S
C2660 C2656 1.350 . S
C2660 C2657 1.463 . S
C2660 N2664 1.427 . S
C2661 H2651 0.929 . S
C2661 C2659 1.433 . S
C2661 N2664 1.384 . S
C2662 H2653 0.929 . S
C2662 C2654 1.378 . S
C2662 C2657 1.350 . S
C2663 H2650 0.929 . S
C2663 C2655 1.433 . S
C2663 N2665 1.384 . S
N2664 C2660 1.427 . S
N2664 C2661 1.384 . S
N2665 C2657 1.427 . S
N2665 C2663 1.384 . S
H2666 C2672 0.930 . S
H2667 C2676 0.930 . S
H2668 C2681 0.929 . S
H2669 C2679 0.929 . S
H2670 C2674 0.929 . S
H2671 C2680 0.929 . S
C2672 H2666 0.930 . S
C2672 C2673 1.367 1_554 S
C2672 C2680 1.378 . S
C2673 C2672 1.367 1_556 S
C2673 C2681 1.433 . S
C2674 H2670 0.929 . S
C2674 C2676 1.378 . S
C2674 C2678 1.356 . S
C2675 C2678 1.462 1_554 S
C2675 C2680 1.356 . S
C2675 N2683 1.421 1_554 S
C2676 H2667 0.930 . S
C2676 C2674 1.378 . S
C2676 C2677 1.367 1_556 S
C2677 C2676 1.367 1_554 S
C2677 C2679 1.433 . S
C2678 C2674 1.356 . S
C2678 C2675 1.462 1_556 S
C2678 N2682 1.421 1_556 S
C2679 H2669 0.929 . S
C2679 C2677 1.433 . S
C2679 N2682 1.384 . S
C2680 H2671 0.929 . S
C2680 C2672 1.378 . S
C2680 C2675 1.356 . S
C2681 H2668 0.929 . S
C2681 C2673 1.433 . S
C2681 N2683 1.384 . S
N2682 C2678 1.421 1_554 S
N2682 C2679 1.384 . S
N2683 C2675 1.421 1_556 S
N2683 C2681 1.384 . S
H2684 C2690 0.930 . S
H2685 C2694 0.930 . S
H2686 C2699 0.929 . S
H2687 C2697 0.929 . S
H2688 C2692 0.929 . S
H2689 C2698 0.929 . S
C2690 H2684 0.930 . S
C2690 C2691 1.367 . S
C2690 C2698 1.378 . S
C2691 C2690 1.367 . S
C2691 C2699 1.433 . S
C2692 H2688 0.929 . S
C2692 C2694 1.378 . S
C2692 C2696 1.350 . S
C2693 C2696 1.463 . S
C2693 C2698 1.350 . S
C2693 N2701 1.427 . S
C2694 H2685 0.930 . S
C2694 C2692 1.378 . S
C2694 C2695 1.367 . S
C2695 C2694 1.367 . S
C2695 C2697 1.433 . S
C2696 C2692 1.350 . S
C2696 C2693 1.463 . S
C2696 N2700 1.427 . S
C2697 H2687 0.929 . S
C2697 C2695 1.433 . S
C2697 N2700 1.384 . S
C2698 H2689 0.929 . S
C2698 C2690 1.378 . S
C2698 C2693 1.350 . S
C2699 H2686 0.929 . S
C2699 C2691 1.433 . S
C2699 N2701 1.384 . S
N2700 C2696 1.427 . S
N2700 C2697 1.384 . S
N2701 C2693 1.427 . S
N2701 C2699 1.384 . S
H2702 C2708 0.930 . S
H2703 C2712 0.930 . S
H2704 C2717 0.929 . S
H2705 C2715 0.929 . S
H2706 C2710 0.929 . S
H2707 C2716 0.929 . S
C2708 H2702 0.930 . S
C2708 C2709 1.367 . S
C2708 C2716 1.378 . S
C2709 C2708 1.367 . S
C2709 C2717 1.433 . S
C2710 H2706 0.929 . S
C2710 C2712 1.378 . S
C2710 C2714 1.350 . S
C2711 C2714 1.463 . S
C2711 C2716 1.350 . S
C2711 N2719 1.427 . S
C2712 H2703 0.930 . S
C2712 C2710 1.378 . S
C2712 C2713 1.367 . S
C2713 C2712 1.367 . S
C2713 C2715 1.433 . S
C2714 C2710 1.350 . S
C2714 C2711 1.463 . S
C2714 N2718 1.427 . S
C2715 H2705 0.929 . S
C2715 C2713 1.433 . S
C2715 N2718 1.384 . S
C2716 H2707 0.929 . S
C2716 C2708 1.378 . S
C2716 C2711 1.350 . S
C2717 H2704 0.929 . S
C2717 C2709 1.433 . S
C2717 N2719 1.384 . S
N2718 C2714 1.427 . S
N2718 C2715 1.384 . S
N2719 C2711 1.427 . S
N2719 C2717 1.384 . S
H2720 C2726 0.930 . S
H2721 C2730 0.930 . S
H2722 C2735 0.929 . S
H2723 C2733 0.929 . S
H2724 C2728 0.929 . S
H2725 C2734 0.929 . S
C2726 H2720 0.930 . S
C2726 C2727 1.367 . S
C2726 C2734 1.378 . S
C2727 C2726 1.367 . S
C2727 C2735 1.433 . S
C2728 H2724 0.929 . S
C2728 C2730 1.378 . S
C2728 C2732 1.350 . S
C2729 C2732 1.463 . S
C2729 C2734 1.350 . S
C2729 N2737 1.427 . S
C2730 H2721 0.930 . S
C2730 C2728 1.378 . S
C2730 C2731 1.367 . S
C2731 C2730 1.367 . S
C2731 C2733 1.433 . S
C2732 C2728 1.350 . S
C2732 C2729 1.463 . S
C2732 N2736 1.427 . S
C2733 H2723 0.929 . S
C2733 C2731 1.433 . S
C2733 N2736 1.384 . S
C2734 H2725 0.929 . S
C2734 C2726 1.378 . S
C2734 C2729 1.350 . S
C2735 H2722 0.929 . S
C2735 C2727 1.433 . S
C2735 N2737 1.384 . S
N2736 C2732 1.427 . S
N2736 C2733 1.384 . S
N2737 C2729 1.427 . S
N2737 C2735 1.384 . S
H2738 C2744 0.930 . S
H2739 C2748 0.930 . S
H2740 C2753 0.929 . S
H2741 C2751 0.929 . S
H2742 C2746 0.929 . S
H2743 C2752 0.929 . S
C2744 H2738 0.930 . S
C2744 C2745 1.367 . S
C2744 C2752 1.378 . S
C2745 C2744 1.367 . S
C2745 C2753 1.433 . S
C2746 H2742 0.929 . S
C2746 C2748 1.378 . S
C2746 C2750 1.350 . S
C2747 C2750 1.463 . S
C2747 C2752 1.350 . S
C2747 N2755 1.427 . S
C2748 H2739 0.930 . S
C2748 C2746 1.378 . S
C2748 C2749 1.367 . S
C2749 C2748 1.367 . S
C2749 C2751 1.433 . S
C2750 C2746 1.350 . S
C2750 C2747 1.463 . S
C2750 N2754 1.427 . S
C2751 H2741 0.929 . S
C2751 C2749 1.433 . S
C2751 N2754 1.384 . S
C2752 H2743 0.929 . S
C2752 C2744 1.378 . S
C2752 C2747 1.350 . S
C2753 H2740 0.929 . S
C2753 C2745 1.433 . S
C2753 N2755 1.384 . S
N2754 C2750 1.427 . S
N2754 C2751 1.384 . S
N2755 C2747 1.427 . S
N2755 C2753 1.384 . S
H2756 C2762 0.930 . S
H2757 C2766 0.930 . S
H2758 C2771 0.929 . S
H2759 C2769 0.929 . S
H2760 C2764 0.929 . S
H2761 C2770 0.929 . S
C2762 H2756 0.930 . S
C2762 C2763 1.367 . S
C2762 C2770 1.378 . S
C2763 C2762 1.367 . S
C2763 C2771 1.433 . S
C2764 H2760 0.929 . S
C2764 C2766 1.378 . S
C2764 C2768 1.350 . S
C2765 C2768 1.463 . S
C2765 C2770 1.350 . S
C2765 N2773 1.427 . S
C2766 H2757 0.930 . S
C2766 C2764 1.378 . S
C2766 C2767 1.367 . S
C2767 C2766 1.367 . S
C2767 C2769 1.433 . S
C2768 C2764 1.350 . S
C2768 C2765 1.463 . S
C2768 N2772 1.427 . S
C2769 H2759 0.929 . S
C2769 C2767 1.433 . S
C2769 N2772 1.384 . S
C2770 H2761 0.929 . S
C2770 C2762 1.378 . S
C2770 C2765 1.350 . S
C2771 H2758 0.929 . S
C2771 C2763 1.433 . S
C2771 N2773 1.384 . S
N2772 C2768 1.427 . S
N2772 C2769 1.384 . S
N2773 C2765 1.427 . S
N2773 C2771 1.384 . S
H2774 C2780 0.930 . S
H2775 C2784 0.930 . S
H2776 C2789 0.929 . S
H2777 C2787 0.929 . S
H2778 C2782 0.929 . S
H2779 C2788 0.929 . S
C2780 H2774 0.930 . S
C2780 C2781 1.367 . S
C2780 C2788 1.378 . S
C2781 C2780 1.367 . S
C2781 C2789 1.433 . S
C2782 H2778 0.929 . S
C2782 C2784 1.378 . S
C2782 C2786 1.350 . S
C2783 C2786 1.463 . S
C2783 C2788 1.350 . S
C2783 N2791 1.427 . S
C2784 H2775 0.930 . S
C2784 C2782 1.378 . S
C2784 C2785 1.367 . S
C2785 C2784 1.367 . S
C2785 C2787 1.433 . S
C2786 C2782 1.350 . S
C2786 C2783 1.463 . S
C2786 N2790 1.427 . S
C2787 H2777 0.929 . S
C2787 C2785 1.433 . S
C2787 N2790 1.384 . S
C2788 H2779 0.929 . S
C2788 C2780 1.378 . S
C2788 C2783 1.350 . S
C2789 H2776 0.929 . S
C2789 C2781 1.433 . S
C2789 N2791 1.384 . S
N2790 C2786 1.427 . S
N2790 C2787 1.384 . S
N2791 C2783 1.427 . S
N2791 C2789 1.384 . S
H2792 C2798 0.930 . S
H2793 C2802 0.930 . S
H2794 C2807 0.929 . S
H2795 C2805 0.929 . S
H2796 C2800 0.929 . S
H2797 C2806 0.929 . S
C2798 H2792 0.930 . S
C2798 C2799 1.367 . S
C2798 C2806 1.378 . S
C2799 C2798 1.367 . S
C2799 C2807 1.433 . S
C2800 H2796 0.929 . S
C2800 C2802 1.378 . S
C2800 C2804 1.350 . S
C2801 C2804 1.463 . S
C2801 C2806 1.350 . S
C2801 N2809 1.427 . S
C2802 H2793 0.930 . S
C2802 C2800 1.378 . S
C2802 C2803 1.367 . S
C2803 C2802 1.367 . S
C2803 C2805 1.433 . S
C2804 C2800 1.350 . S
C2804 C2801 1.463 . S
C2804 N2808 1.427 . S
C2805 H2795 0.929 . S
C2805 C2803 1.433 . S
C2805 N2808 1.384 . S
C2806 H2797 0.929 . S
C2806 C2798 1.378 . S
C2806 C2801 1.350 . S
C2807 H2794 0.929 . S
C2807 C2799 1.433 . S
C2807 N2809 1.384 . S
N2808 C2804 1.427 . S
N2808 C2805 1.384 . S
N2809 C2801 1.427 . S
N2809 C2807 1.384 . S
H2810 C2816 0.930 . S
H2811 C2820 0.930 . S
H2812 C2825 0.929 . S
H2813 C2823 0.929 . S
H2814 C2818 0.929 . S
H2815 C2824 0.929 . S
C2816 H2810 0.930 . S
C2816 C2817 1.367 . S
C2816 C2824 1.378 . S
C2817 C2816 1.367 . S
C2817 C2825 1.433 . S
C2818 H2814 0.929 . S
C2818 C2820 1.378 . S
C2818 C2822 1.350 . S
C2819 C2822 1.463 . S
C2819 C2824 1.350 . S
C2819 N2827 1.427 . S
C2820 H2811 0.930 . S
C2820 C2818 1.378 . S
C2820 C2821 1.367 . S
C2821 C2820 1.367 . S
C2821 C2823 1.433 . S
C2822 C2818 1.350 . S
C2822 C2819 1.463 . S
C2822 N2826 1.427 . S
C2823 H2813 0.929 . S
C2823 C2821 1.433 . S
C2823 N2826 1.384 . S
C2824 H2815 0.929 . S
C2824 C2816 1.378 . S
C2824 C2819 1.350 . S
C2825 H2812 0.929 . S
C2825 C2817 1.433 . S
C2825 N2827 1.384 . S
N2826 C2822 1.427 . S
N2826 C2823 1.384 . S
N2827 C2819 1.427 . S
N2827 C2825 1.384 . S
H2828 C2834 0.930 . S
H2829 C2838 0.930 . S
H2830 C2843 0.929 . S
H2831 C2841 0.929 . S
H2832 C2836 0.929 . S
H2833 C2842 0.929 . S
C2834 H2828 0.930 . S
C2834 C2835 1.367 . S
C2834 C2842 1.378 . S
C2835 C2834 1.367 . S
C2835 C2843 1.433 . S
C2836 H2832 0.929 . S
C2836 C2838 1.378 . S
C2836 C2840 1.350 . S
C2837 C2840 1.463 . S
C2837 C2842 1.350 . S
C2837 N2845 1.427 . S
C2838 H2829 0.930 . S
C2838 C2836 1.378 . S
C2838 C2839 1.367 . S
C2839 C2838 1.367 . S
C2839 C2841 1.433 . S
C2840 C2836 1.350 . S
C2840 C2837 1.463 . S
C2840 N2844 1.427 . S
C2841 H2831 0.929 . S
C2841 C2839 1.433 . S
C2841 N2844 1.384 . S
C2842 H2833 0.929 . S
C2842 C2834 1.378 . S
C2842 C2837 1.350 . S
C2843 H2830 0.929 . S
C2843 C2835 1.433 . S
C2843 N2845 1.384 . S
N2844 C2840 1.427 . S
N2844 C2841 1.384 . S
N2845 C2837 1.427 . S
N2845 C2843 1.384 . S
H2846 C2852 0.930 . S
H2847 C2856 0.930 . S
H2848 C2861 0.929 . S
H2849 C2859 0.929 . S
H2850 C2854 0.929 . S
H2851 C2860 0.929 . S
C2852 H2846 0.930 . S
C2852 C2853 1.367 . S
C2852 C2860 1.378 . S
C2853 C2852 1.367 . S
C2853 C2861 1.433 . S
C2854 H2850 0.929 . S
C2854 C2856 1.378 . S
C2854 C2858 1.350 . S
C2855 C2858 1.463 . S
C2855 C2860 1.350 . S
C2855 N2863 1.427 . S
C2856 H2847 0.930 . S
C2856 C2854 1.378 . S
C2856 C2857 1.367 . S
C2857 C2856 1.367 . S
C2857 C2859 1.433 . S
C2858 C2854 1.350 . S
C2858 C2855 1.463 . S
C2858 N2862 1.427 . S
C2859 H2849 0.929 . S
C2859 C2857 1.433 . S
C2859 N2862 1.384 . S
C2860 H2851 0.929 . S
C2860 C2852 1.378 . S
C2860 C2855 1.350 . S
C2861 H2848 0.929 . S
C2861 C2853 1.433 . S
C2861 N2863 1.384 . S
N2862 C2858 1.427 . S
N2862 C2859 1.384 . S
N2863 C2855 1.427 . S
N2863 C2861 1.384 . S
H2864 C2870 0.930 . S
H2865 C2874 0.930 . S
H2866 C2879 0.929 . S
H2867 C2877 0.929 . S
H2868 C2872 0.929 . S
H2869 C2878 0.929 . S
C2870 H2864 0.930 . S
C2870 C2871 1.367 . S
C2870 C2878 1.378 . S
C2871 C2870 1.367 . S
C2871 C2879 1.433 . S
C2872 H2868 0.929 . S
C2872 C2874 1.378 . S
C2872 C2876 1.350 . S
C2873 C2876 1.463 . S
C2873 C2878 1.350 . S
C2873 N2881 1.427 . S
C2874 H2865 0.930 . S
C2874 C2872 1.378 . S
C2874 C2875 1.367 . S
C2875 C2874 1.367 . S
C2875 C2877 1.433 . S
C2876 C2872 1.350 . S
C2876 C2873 1.463 . S
C2876 N2880 1.427 . S
C2877 H2867 0.929 . S
C2877 C2875 1.433 . S
C2877 N2880 1.384 . S
C2878 H2869 0.929 . S
C2878 C2870 1.378 . S
C2878 C2873 1.350 . S
C2879 H2866 0.929 . S
C2879 C2871 1.433 . S
C2879 N2881 1.384 . S
N2880 C2876 1.427 . S
N2880 C2877 1.384 . S
N2881 C2873 1.427 . S
N2881 C2879 1.384 . S
H2882 C2888 0.930 . S
H2883 C2892 0.930 . S
H2884 C2897 0.929 . S
H2885 C2895 0.929 . S
H2886 C2890 0.929 . S
H2887 C2896 0.929 . S
C2888 H2882 0.930 . S
C2888 C2889 1.367 . S
C2888 C2896 1.378 . S
C2889 C2888 1.367 . S
C2889 C2897 1.433 . S
C2890 H2886 0.929 . S
C2890 C2892 1.378 . S
C2890 C2894 1.350 . S
C2891 C2894 1.463 . S
C2891 C2896 1.350 . S
C2891 N2899 1.427 . S
C2892 H2883 0.930 . S
C2892 C2890 1.378 . S
C2892 C2893 1.367 . S
C2893 C2892 1.367 . S
C2893 C2895 1.433 . S
C2894 C2890 1.350 . S
C2894 C2891 1.463 . S
C2894 N2898 1.427 . S
C2895 H2885 0.929 . S
C2895 C2893 1.433 . S
C2895 N2898 1.384 . S
C2896 H2887 0.929 . S
C2896 C2888 1.378 . S
C2896 C2891 1.350 . S
C2897 H2884 0.929 . S
C2897 C2889 1.433 . S
C2897 N2899 1.384 . S
N2898 C2894 1.427 . S
N2898 C2895 1.384 . S
N2899 C2891 1.427 . S
N2899 C2897 1.384 . S
H2900 C2906 0.930 . S
H2901 C2910 0.930 . S
H2902 C2915 0.929 . S
H2903 C2913 0.929 . S
H2904 C2908 0.929 . S
H2905 C2914 0.929 . S
C2906 H2900 0.930 . S
C2906 C2907 1.367 . S
C2906 C2914 1.378 . S
C2907 C2906 1.367 . S
C2907 C2915 1.433 . S
C2908 H2904 0.929 . S
C2908 C2910 1.378 . S
C2908 C2912 1.350 . S
C2909 C2912 1.463 . S
C2909 C2914 1.350 . S
C2909 N2917 1.427 . S
C2910 H2901 0.930 . S
C2910 C2908 1.378 . S
C2910 C2911 1.367 . S
C2911 C2910 1.367 . S
C2911 C2913 1.433 . S
C2912 C2908 1.350 . S
C2912 C2909 1.463 . S
C2912 N2916 1.427 . S
C2913 H2903 0.929 . S
C2913 C2911 1.433 . S
C2913 N2916 1.384 . S
C2914 H2905 0.929 . S
C2914 C2906 1.378 . S
C2914 C2909 1.350 . S
C2915 H2902 0.929 . S
C2915 C2907 1.433 . S
C2915 N2917 1.384 . S
N2916 C2912 1.427 . S
N2916 C2913 1.384 . S
N2917 C2909 1.427 . S
N2917 C2915 1.384 . S
H2918 C2924 0.930 . S
H2919 C2928 0.930 . S
H2920 C2933 0.929 . S
H2921 C2931 0.929 . S
H2922 C2926 0.929 . S
H2923 C2932 0.929 . S
C2924 H2918 0.930 . S
C2924 C2925 1.367 . S
C2924 C2932 1.378 . S
C2925 C2924 1.367 . S
C2925 C2933 1.433 . S
C2926 H2922 0.929 . S
C2926 C2928 1.378 . S
C2926 C2930 1.350 . S
C2927 C2930 1.463 . S
C2927 C2932 1.350 . S
C2927 N2935 1.427 . S
C2928 H2919 0.930 . S
C2928 C2926 1.378 . S
C2928 C2929 1.367 . S
C2929 C2928 1.367 . S
C2929 C2931 1.433 . S
C2930 C2926 1.350 . S
C2930 C2927 1.463 . S
C2930 N2934 1.427 . S
C2931 H2921 0.929 . S
C2931 C2929 1.433 . S
C2931 N2934 1.384 . S
C2932 H2923 0.929 . S
C2932 C2924 1.378 . S
C2932 C2927 1.350 . S
C2933 H2920 0.929 . S
C2933 C2925 1.433 . S
C2933 N2935 1.384 . S
N2934 C2930 1.427 . S
N2934 C2931 1.384 . S
N2935 C2927 1.427 . S
N2935 C2933 1.384 . S
H2936 C2942 0.930 . S
H2937 C2946 0.930 . S
H2938 C2951 0.929 . S
H2939 C2949 0.929 . S
H2940 C2944 0.929 . S
H2941 C2950 0.929 . S
C2942 H2936 0.930 . S
C2942 C2943 1.367 . S
C2942 C2950 1.378 . S
C2943 C2942 1.367 . S
C2943 C2951 1.433 . S
C2944 H2940 0.929 . S
C2944 C2946 1.378 . S
C2944 C2948 1.350 . S
C2945 C2948 1.463 . S
C2945 C2950 1.350 . S
C2945 N2953 1.427 . S
C2946 H2937 0.930 . S
C2946 C2944 1.378 . S
C2946 C2947 1.367 . S
C2947 C2946 1.367 . S
C2947 C2949 1.433 . S
C2948 C2944 1.350 . S
C2948 C2945 1.463 . S
C2948 N2952 1.427 . S
C2949 H2939 0.929 . S
C2949 C2947 1.433 . S
C2949 N2952 1.384 . S
C2950 H2941 0.929 . S
C2950 C2942 1.378 . S
C2950 C2945 1.350 . S
C2951 H2938 0.929 . S
C2951 C2943 1.433 . S
C2951 N2953 1.384 . S
N2952 C2948 1.427 . S
N2952 C2949 1.384 . S
N2953 C2945 1.427 . S
N2953 C2951 1.384 . S
H2954 C2960 0.930 . S
H2955 C2964 0.930 . S
H2956 C2969 0.929 . S
H2957 C2967 0.929 . S
H2958 C2962 0.929 . S
H2959 C2968 0.929 . S
C2960 H2954 0.930 . S
C2960 C2961 1.367 . S
C2960 C2968 1.378 . S
C2961 C2960 1.367 . S
C2961 C2969 1.433 . S
C2962 H2958 0.929 . S
C2962 C2964 1.378 . S
C2962 C2966 1.350 . S
C2963 C2966 1.463 . S
C2963 C2968 1.350 . S
C2963 N2971 1.427 . S
C2964 H2955 0.930 . S
C2964 C2962 1.378 . S
C2964 C2965 1.367 . S
C2965 C2964 1.367 . S
C2965 C2967 1.433 . S
C2966 C2962 1.350 . S
C2966 C2963 1.463 . S
C2966 N2970 1.427 . S
C2967 H2957 0.929 . S
C2967 C2965 1.433 . S
C2967 N2970 1.384 . S
C2968 H2959 0.929 . S
C2968 C2960 1.378 . S
C2968 C2963 1.350 . S
C2969 H2956 0.929 . S
C2969 C2961 1.433 . S
C2969 N2971 1.384 . S
N2970 C2966 1.427 . S
N2970 C2967 1.384 . S
N2971 C2963 1.427 . S
N2971 C2969 1.384 . S
H2972 C2978 0.930 . S
H2973 C2982 0.930 . S
H2974 C2987 0.929 . S
H2975 C2985 0.929 . S
H2976 C2980 0.929 . S
H2977 C2986 0.929 . S
C2978 H2972 0.930 . S
C2978 C2979 1.367 . S
C2978 C2986 1.378 . S
C2979 C2978 1.367 . S
C2979 C2987 1.433 . S
C2980 H2976 0.929 . S
C2980 C2982 1.378 . S
C2980 C2984 1.350 . S
C2981 C2984 1.463 . S
C2981 C2986 1.350 . S
C2981 N2989 1.427 . S
C2982 H2973 0.930 . S
C2982 C2980 1.378 . S
C2982 C2983 1.367 . S
C2983 C2982 1.367 . S
C2983 C2985 1.433 . S
C2984 C2980 1.350 . S
C2984 C2981 1.463 . S
C2984 N2988 1.427 . S
C2985 H2975 0.929 . S
C2985 C2983 1.433 . S
C2985 N2988 1.384 . S
C2986 H2977 0.929 . S
C2986 C2978 1.378 . S
C2986 C2981 1.350 . S
C2987 H2974 0.929 . S
C2987 C2979 1.433 . S
C2987 N2989 1.384 . S
N2988 C2984 1.427 . S
N2988 C2985 1.384 . S
N2989 C2981 1.427 . S
N2989 C2987 1.384 . S
H2990 C2996 0.930 . S
H2991 C3000 0.930 . S
H2992 C3005 0.929 . S
H2993 C3003 0.929 . S
H2994 C2998 0.929 . S
H2995 C3004 0.929 . S
C2996 H2990 0.930 . S
C2996 C2997 1.367 . S
C2996 C3004 1.378 . S
C2997 C2996 1.367 . S
C2997 C3005 1.433 . S
C2998 H2994 0.929 . S
C2998 C3000 1.378 . S
C2998 C3002 1.350 . S
C2999 C3002 1.463 . S
C2999 C3004 1.350 . S
C2999 N3007 1.427 . S
C3000 H2991 0.930 . S
C3000 C2998 1.378 . S
C3000 C3001 1.367 . S
C3001 C3000 1.367 . S
C3001 C3003 1.433 . S
C3002 C2998 1.350 . S
C3002 C2999 1.463 . S
C3002 N3006 1.427 . S
C3003 H2993 0.929 . S
C3003 C3001 1.433 . S
C3003 N3006 1.384 . S
C3004 H2995 0.929 . S
C3004 C2996 1.378 . S
C3004 C2999 1.350 . S
C3005 H2992 0.929 . S
C3005 C2997 1.433 . S
C3005 N3007 1.384 . S
N3006 C3002 1.427 . S
N3006 C3003 1.384 . S
N3007 C2999 1.427 . S
N3007 C3005 1.384 . S
C1287 C6 1.067 . S
C1291 C139 1.008 . S
C1305 C19 1.029 . S
C1309 C46 1.064 1_545 S
C1323 C86 1.065 . S
C1327 C59 1.023 . S
C1341 C99 1.004 . S
C1345 C126 1.068 1_565 S
C1359 C219 1.014 . S
C1363 C166 1.067 . S
C1377 C206 1.064 1_545 S
C1381 C259 1.028 . S
C1395 C299 1.015 . S
C1399 C246 1.066 . S
C1413 C179 1.028 . S
C1417 C286 1.064 1_565 S
C1431 C335 1.067 . S
C1435 C450 1.011 . S
C1449 C375 1.068 1_565 S
C1453 C330 1.004 . S
C1467 C415 1.064 . S
C1471 C370 1.029 . S
C1485 C455 1.068 1_545 S
C1489 C410 1.004 . S
C1503 C495 1.065 . S
C1507 C530 1.024 . S
C1521 C535 1.068 1_565 S
C1525 C570 1.006 . S
C1539 C610 1.007 . S
C1543 C575 1.067 . S
C1557 C490 1.004 . S
C1561 C615 1.068 1_545 S
C1575 C646 1.065 . S
C1579 C779 1.026 . S
C1593 C659 1.007 . S
C1597 C686 1.067 . S
C1611 C699 1.018 . S
C1615 C726 1.066 . S
C1629 C766 1.067 . S
C1633 C739 1.011 . S
C1647 C806 1.066 . S
C1651 C859 1.016 . S
C1665 C899 1.008 . S
C1669 C846 1.067 . S
C1683 C886 1.066 . S
C1687 C939 1.015 . S
C1701 C819 1.028 . S
C1705 C926 1.064 . S
C1719 C1090 1.020 . S
C1723 C975 1.066 . S
C1737 C970 1.005 . S
C1741 C1015 1.068 . S
C1755 C1055 1.065 . S
C1759 C1010 1.024 . S
C1773 C1050 1.028 . S
C1777 C1095 1.064 . S
C1791 C1170 1.005 . S
C1795 C1135 1.068 . S
C1809 C1210 1.026 . S
C1813 C1175 1.064 . S
C1827 C1250 1.024 . S
C1831 C1215 1.065 . S
C1845 C1255 1.064 . S
C1849 C1130 1.029 . S
C1863 C1086 1.583 . S
C1867 C9 1.520 . S
C1881 C49 1.534 . S
C1885 C326 1.591 1_455 S
C1899 C89 1.533 . S
C1903 C1006 1.586 . S
C1917 C129 1.534 . S
C1921 C406 1.587 . S
C1935 C169 1.524 . S
C1939 C1166 1.587 . S
C1953 C566 1.590 . S
C1957 C209 1.536 . S
C1971 C1246 1.583 . S
C1975 C249 1.527 . S
C1989 C289 1.533 . S
C1993 C486 1.590 1_455 S
C2007 C338 1.535 . S
C2011 C775 1.591 . S
C2025 C15 1.582 1_655 S
C2029 C378 1.521 . S
C2043 C695 1.588 . S
C2047 C418 1.535 . S
C2061 C95 1.590 . S
C2065 C458 1.536 . S
C2079 C855 1.587 . S
C2083 C498 1.535 . S
C2097 C255 1.590 . S
C2101 C538 1.533 . S
C2115 C578 1.535 . S
C2119 C935 1.591 . S
C2133 C618 1.520 . S
C2137 C175 1.583 1_655 S
C2151 C649 1.520 . S
C2155 C446 1.583 . S
C2169 C689 1.534 . S
C2173 C966 1.587 . S
C2187 C729 1.530 . S
C2191 C366 1.590 . S
C2205 C769 1.524 . S
C2209 C1046 1.583 1_655 S
C2223 C809 1.524 . S
C2227 C526 1.587 . S
C2241 C849 1.525 . S
C2245 C1206 1.583 1_655 S
C2259 C606 1.586 . S
C2263 C889 1.522 . S
C2277 C929 1.522 . S
C2281 C1126 1.582 . S
C2295 C135 1.589 . S
C2299 C978 1.528 . S
C2313 C655 1.584 . S
C2317 C1018 1.528 . S
C2331 C55 1.587 . S
C2335 C1058 1.534 . S
C2349 C735 1.590 1_455 S
C2353 C1098 1.533 . S
C2367 C215 1.586 . S
C2371 C1138 1.522 . S
C2385 C1178 1.531 . S
C2389 C895 1.590 1_455 S
C2403 C1218 1.521 . S
C2407 C295 1.582 . S
C2421 C815 1.590 . S
C2425 C1258 1.536 . S
C2439 C18 0.688 . S
C2443 C178 0.672 . S
C2457 C58 0.657 . S
C2461 C218 0.681 . S
C2475 C98 0.688 . S
C2479 C258 0.672 . S
C2493 C298 0.684 . S
C2497 C138 0.683 . S
C2511 C489 0.677 . S
C2515 C329 0.687 . S
C2529 C529 0.657 . S
C2533 C369 0.667 . S
C2547 C409 0.659 . S
C2551 C569 0.662 . S
C2565 C449 0.669 . S
C2569 C609 0.656 . S
C2583 C658 0.655 . S
C2587 C818 0.672 . S
C2601 C858 0.675 . S
C2605 C698 0.655 . S
C2619 C898 0.688 . S
C2623 C738 0.664 . S
C2637 C938 0.679 . S
C2641 C778 0.656 . S
C2655 C1129 0.673 . S
C2659 C969 0.655 . S
C2673 C1009 0.687 . S
C2677 C1169 0.678 . S
C2691 C1209 0.674 . S
C2695 C1049 0.688 . S
C2709 C1089 0.669 . S
C2713 C1249 0.656 . S
C2727 C290 2.739 . S
C2731 C10 2.739 . S
C2745 C50 2.739 . S
C2749 C170 2.739 . S
C2763 C90 2.739 . S
C2767 C210 2.739 . S
C2781 C250 2.738 . S
C2785 C130 2.738 . S
C2799 C339 2.739 . S
C2803 C619 2.739 . S
C2817 C499 2.739 . S
C2821 C379 2.739 . S
C2835 C539 2.740 . S
C2839 C419 2.740 . S
C2853 C459 2.740 . S
C2857 C579 2.740 . S
C2871 C650 2.740 . S
C2875 C930 2.740 . S
C2889 C810 2.738 . S
C2893 C690 2.738 . S
C2907 C850 2.739 . S
C2911 C730 2.739 . S
C2925 C890 2.738 . S
C2929 C770 2.738 . S
C2943 C979 2.740 . S
C2947 C1259 2.740 . S
C2961 C1139 2.739 . S
C2965 C1019 2.739 . S
C2979 C1059 2.739 . S
C2983 C1179 2.739 . S
C2997 C1219 2.739 . S
C3001 C1099 2.739 . S
