# Generated by pormake.
# Topology unc, (4)-cn, num edge types: 1
# Building blocks:
#     Node 0, Type 0, BuildingBlock: UXUYUI_clean_sbu_0, # of connection points: 4
#     Node 1, Type 0, BuildingBlock: UXUYUI_clean_sbu_0, # of connection points: 4
#     Node 2, Type 0, BuildingBlock: UXUYUI_clean_sbu_0, # of connection points: 4
#     Node 3, Type 0, BuildingBlock: UXUYUI_clean_sbu_0, # of connection points: 4
#     Edge 4, Type (0, 0), BuildingBlock: TEMPAE_clean_linker_10, # of connection points: 2
#     Edge 5, Type (0, 0), BuildingBlock: TEMPAE_clean_linker_10, # of connection points: 2
#     Edge 6, Type (0, 0), BuildingBlock: TEMPAE_clean_linker_10, # of connection points: 2
#     Edge 7, Type (0, 0), BuildingBlock: TEMPAE_clean_linker_10, # of connection points: 2
#     Edge 8, Type (0, 0), BuildingBlock: TEMPAE_clean_linker_10, # of connection points: 2
#     Edge 9, Type (0, 0), BuildingBlock: TEMPAE_clean_linker_10, # of connection points: 2
#     Edge 10, Type (0, 0), BuildingBlock: TEMPAE_clean_linker_10, # of connection points: 2
#     Edge 11, Type (0, 0), BuildingBlock: TEMPAE_clean_linker_10, # of connection points: 2
# Relax obj value: 0.184
# Max RMSD: 0.213
# Mean RMSD: 0.213
data_MOF--net-unc--node1-UXUYUI_clean_sbu_0--edge1-TEMPAE_clean_linker_10
_symmetry_space_group_name_H-M    P1
_symmetry_Int_Tables_number       1
_symmetry_cell_setting            triclinic
loop_
_symmetry_equiv_pos_as_xyz
'x, y, z'
_cell_length_a     43.701267
_cell_length_b     43.671578
_cell_length_c     32.970253
_cell_angle_alpha  90.020979
_cell_angle_beta   90.041925
_cell_angle_gamma 89.883993
loop_
_atom_site_label
_atom_site_type_symbol
_atom_site_fract_x
_atom_site_fract_y
_atom_site_fract_z
_atom_type_partial_charge
Li0 Li 0.02562 0.67924 0.01242 0.0
Li1 Li 0.99044 0.64063 0.03057 0.0
Li2 Li 0.01151 0.6418 0.96323 0.0
Li3 Li 0.97216 0.6803 0.98448 0.0
C4 C 0.06152 0.63639 0.03261 0.0
N5 N 0.11784 0.64275 0.0699 0.0
C6 C 0.0638 0.63554 0.0749 0.0
C7 C 0.08793 0.64044 0.00931 0.0
C8 C 0.09247 0.63878 0.09317 0.0
C9 C 0.11617 0.64363 0.02873 0.0
C10 C 0.96885 0.68695 0.07611 0.0
C11 C 0.92135 0.69902 0.10989 0.0
N12 N 0.93408 0.69088 0.14597 0.0
C13 C 0.98148 0.67881 0.11359 0.0
C14 C 0.93855 0.69722 0.07426 0.0
C15 C 0.96352 0.68091 0.14853 0.0
C16 C 0.07812 0.71756 0.00507 0.0
N17 N 0.05729 0.70571 0.03131 0.0
C18 C 0.08087 0.73158 0.08694 0.0
C19 C 0.05822 0.71242 0.07152 0.0
C20 C 0.10272 0.74415 0.06063 0.0
C21 C 0.10127 0.73683 0.01918 0.0
H22 H 0.07672 0.71217 0.9732 0.0
H23 H 0.04142 0.7028 0.09171 0.0
C24 C -0.00232 0.58816 0.07747 0.0
N25 N 0.97803 0.61188 0.07145 0.0
C26 C 0.99153 0.56607 0.10675 0.0
C27 C 0.94407 0.59211 0.12193 0.0
C28 C 0.95115 0.61374 0.09216 0.0
C29 C 0.96471 0.56817 0.12997 0.0
H30 H 0.01823 0.58634 0.05944 0.0
H31 H 0.93519 0.63201 0.08573 0.0
C32 C 0.01934 0.68917 0.91566 0.0
N33 N 0.03343 0.69131 0.83397 0.0
C34 C -0.00303 0.69741 0.88733 0.0
C35 C 0.04891 0.68211 0.90238 0.0
C36 C 0.00455 0.69837 0.84619 0.0
C37 C 0.05556 0.68327 0.86097 0.0
C38 C 0.95198 0.60953 0.98525 0.0
C39 C 0.96585 0.58107 0.97879 0.0
C40 C 0.92221 0.61088 0.00063 0.0
C41 C 0.94964 0.55439 0.9878 0.0
C42 C 0.90677 0.58367 0.00925 0.0
N43 N 0.92069 0.55622 0.00272 0.0
C44 C 0.0482 0.59893 0.91944 0.0
C45 C 0.00387 0.61735 0.8858 0.0
C46 C 0.0551 0.57986 0.88667 0.0
N47 N 0.023 0.61721 0.91828 0.0
C48 C 0.00994 0.59881 0.85237 0.0
C49 C 0.03575 0.57958 0.85262 0.0
H50 H 0.06256 0.59864 0.94611 0.0
H51 H 0.98356 0.63154 0.88625 0.0
C52 C 0.94663 0.73649 0.96353 0.0
N53 N 0.9403 0.70613 0.96609 0.0
C54 C 0.92495 0.75677 0.94784 0.0
C55 C 0.89028 0.71422 0.93891 0.0
C56 C 0.91287 0.69468 0.95414 0.0
C57 C 0.89627 0.74575 0.93516 0.0
H58 H 0.96886 0.7448 0.97281 0.0
H59 H 0.90864 0.67037 0.95591 0.0
O60 O 0.03352 0.63414 0.0142 0.0
O61 O 0.98613 0.68549 0.04154 0.0
O62 O 0.01223 0.68758 0.95606 0.0
O63 O 0.96782 0.6359 0.97765 0.0
H64 H 0.04363 0.63284 0.0935 0.0
H65 H 0.08661 0.64165 0.97662 0.0
H66 H 0.09452 0.63831 0.12586 0.0
H67 H 0.13674 0.64699 0.01106 0.0
H68 H 0.89788 0.70688 0.10885 0.0
H69 H 0.00465 0.67029 0.11568 0.0
H70 H 0.92835 0.70375 0.04567 0.0
H71 H 0.97294 0.67443 0.17765 0.0
H72 H 0.08137 0.73637 0.11917 0.0
H73 H 0.11747 0.74636 -0.00219 0.0
H74 H 0.00763 0.54746 0.11111 0.0
H75 H 0.92302 0.59445 0.13897 0.0
H76 H 0.97391 0.70271 0.89684 0.0
H77 H 0.0664 0.67516 0.92367 0.0
H78 H 0.98742 0.70461 0.82396 0.0
H79 H 0.07828 0.67761 0.85029 0.0
H80 H 0.98902 0.57957 0.96745 0.0
H81 H 0.91137 0.63268 0.00674 0.0
H82 H 0.96014 0.53221 0.9831 0.0
H83 H 0.8838 0.58437 0.02142 0.0
H84 H 0.07517 0.56531 0.88807 0.0
H85 H 0.99403 0.59878 0.82717 0.0
H86 H 0.93097 0.78069 0.9448 0.0
H87 H 0.86843 0.70464 0.93013 0.0
Li88 Li 0.35184 0.98664 0.27958 0.0
Li89 Li 0.31297 0.02452 0.26133 0.0
Li90 Li 0.31493 0.97253 0.2289 0.0
Li91 Li 0.35244 0.01142 0.2106 0.0
C92 C 0.30285 0.97176 0.32434 0.0
N93 N 0.29624 0.9483 0.40169 0.0
C94 C 0.29173 0.99029 0.35564 0.0
C95 C 0.31013 0.94117 0.33227 0.0
C96 C 0.28866 0.97804 0.39456 0.0
C97 C 0.30678 0.92977 0.3716 0.0
C98 C 0.36754 0.05929 0.27446 0.0
C99 C 0.37748 0.11166 0.25531 0.0
N100 N 0.38735 0.11764 0.29363 0.0
C101 C 0.37828 0.06585 0.31346 0.0
C102 C 0.36755 0.08229 0.24499 0.0
C103 C 0.38799 0.09552 0.32264 0.0
C104 C 0.3997 0.9525 0.31595 0.0
N105 N 0.37696 0.9731 0.32297 0.0
C106 C 0.39175 0.97764 0.39241 0.0
C107 C 0.37264 0.98562 0.36026 0.0
C108 C 0.4158 0.95684 0.38598 0.0
C109 C 0.41954 0.94398 0.34723 0.0
H110 H 0.40286 0.94319 0.28585 0.0
H111 H 0.35477 0.00241 0.3648 0.0
C112 C 0.25957 0.06085 0.26367 0.0
N113 N 0.28703 0.05588 0.2819 0.0
C114 C 0.23969 0.08323 0.27859 0.0
C115 C 0.27642 0.09443 0.33138 0.0
C116 C 0.29561 0.07193 0.31533 0.0
C117 C 0.24802 0.10033 0.31297 0.0
H118 H 0.25302 0.04731 0.23762 0.0
H119 H 0.31697 0.06671 0.33024 0.0
C120 C 0.36406 0.94055 0.20661 0.0
N121 N 0.37066 0.88509 0.16716 0.0
C122 C 0.3721 0.93975 0.1656 0.0
C123 C 0.35985 0.91313 0.2277 0.0
C124 C 0.37522 0.91148 0.14616 0.0
C125 C 0.36314 0.88533 0.20718 0.0
C126 C 0.29758 0.03202 0.17283 0.0
C127 C 0.28445 0.01982 0.13769 0.0
C128 C 0.30006 0.06376 0.17702 0.0
C129 C 0.27471 0.03957 0.10693 0.0
C130 C 0.29002 0.08276 0.14562 0.0
N131 N 0.27771 0.07037 0.11148 0.0
C132 C 0.27204 0.9241 0.2311 0.0
C133 C 0.29346 0.93432 0.16648 0.0
C134 C 0.254 0.9008 0.21482 0.0
N135 N 0.29121 0.94028 0.20683 0.0
C136 C 0.27586 0.91125 0.14892 0.0
C137 C 0.25564 0.89427 0.17314 0.0
H138 H 0.2704 0.92959 0.26298 0.0
H139 H 0.30883 0.94764 0.14789 0.0
C140 C 0.40634 0.03626 0.17772 0.0
N141 N 0.37798 0.02573 0.16821 0.0
C142 C 0.42696 0.04391 0.14703 0.0
C143 C 0.38865 0.02996 0.09744 0.0
C144 C 0.36877 0.02271 0.12904 0.0
C145 C 0.41835 0.0402 0.10629 0.0
H146 H 0.41328 0.03778 0.20915 0.0
H147 H 0.34652 0.01336 0.12224 0.0
O148 O 0.30632 0.98348 0.28612 0.0
O149 O 0.35808 0.03026 0.26497 0.0
O150 O 0.36046 0.96803 0.22603 0.0
O151 O 0.30726 0.01293 0.20322 0.0
H152 H 0.28564 0.0139 0.35003 0.0
H153 H 0.3184 0.92641 0.30837 0.0
H154 H 0.28027 0.99218 0.41911 0.0
H155 H 0.31255 0.90619 0.37819 0.0
H156 H 0.3775 0.12967 0.23279 0.0
H157 H 0.37892 0.0483 0.33653 0.0
H158 H 0.36044 0.07748 0.21428 0.0
H159 H 0.39608 0.10094 0.35281 0.0
H160 H 0.38845 0.98856 0.42159 0.0
H161 H 0.4378 0.92783 0.3411 0.0
H162 H 0.21809 0.08712 0.2633 0.0
H163 H 0.28344 0.10652 0.35851 0.0
H164 H 0.37571 0.96069 0.14886 0.0
H165 H 0.35406 0.9133 0.25953 0.0
H166 H 0.38123 0.91054 0.11436 0.0
H167 H 0.35975 0.86394 0.22308 0.0
H168 H 0.2819 0.99537 0.13409 0.0
H169 H 0.30912 0.07369 0.20447 0.0
H170 H 0.26472 0.03041 0.07947 0.0
H171 H 0.29185 0.10736 0.14851 0.0
H172 H 0.23836 0.88857 0.23445 0.0
H173 H 0.27802 0.90676 0.11674 0.0
H174 H 0.44982 0.05127 0.1551 0.0
H175 H 0.38114 0.02682 0.0664 0.0
Li176 Li 0.00142 0.35345 0.52744 0.0
Li177 Li 0.96731 0.31296 0.51184 0.0
Li178 Li 0.02087 0.31357 0.48296 0.0
Li179 Li 0.97947 0.34985 0.46077 0.0
C180 C 0.02208 0.30854 0.57664 0.0
N181 N 0.05185 0.30689 0.65059 0.0
C182 C 0.0067 0.31717 0.61201 0.0
C183 C 0.05258 0.29896 0.5789 0.0
C184 C 0.02217 0.31625 0.64909 0.0
C185 C 0.06723 0.29829 0.61657 0.0
C186 C 0.92933 0.35678 0.52874 0.0
C187 C 0.87512 0.34735 0.5227 0.0
N188 N 0.87158 0.35393 0.56275 0.0
C189 C 0.92513 0.36347 0.56985 0.0
C190 C 0.9041 0.34873 0.50495 0.0
C191 C 0.89576 0.36192 0.58646 0.0
C192 C 0.99419 0.40733 0.57162 0.0
N193 N 0.01366 0.38331 0.56691 0.0
C194 C 0.04686 0.40338 0.6181 0.0
C195 C 0.04021 0.38155 0.5884 0.0
C196 C 0.02617 0.42744 0.62519 0.0
C197 C -9e-05 0.42964 0.60081 0.0
H198 H 0.97399 0.40906 0.55282 0.0
H199 H 0.05614 0.36311 0.58284 0.0
C200 C 0.92531 0.26411 0.50573 0.0
N201 N 0.93695 0.28543 0.5315 0.0
C202 C 0.90345 0.24322 0.51933 0.0
C203 C 0.90584 0.26677 0.58562 0.0
C204 C 0.92796 0.28685 0.57092 0.0
C205 C 0.89342 0.24457 0.55971 0.0
H206 H 0.93319 0.26312 0.47471 0.0
H207 H 0.93793 0.30352 0.59105 0.0
C208 C 0.04038 0.38302 0.48108 0.0
N209 N 0.07498 0.43433 0.49775 0.0
C210 C 0.02798 0.41221 0.47527 0.0
C211 C 0.07039 0.37987 0.49511 0.0
C212 C 0.04584 0.43789 0.48395 0.0
C213 C 0.08752 0.40612 0.50341 0.0
C214 C 0.97317 0.30056 0.41559 0.0
C215 C 0.99582 0.29462 0.38671 0.0
C216 C 0.94266 0.30328 0.40333 0.0
C217 C 0.98759 0.2919 0.34591 0.0
C218 C 0.93537 0.30045 0.36224 0.0
N219 N 0.9578 0.29488 0.33462 0.0
C220 C 0.05449 0.25933 0.47621 0.0
C221 C 0.07588 0.30155 0.44105 0.0
C222 C 0.07746 0.24002 0.46165 0.0
N223 N 0.05412 0.28937 0.4656 0.0
C224 C 0.0992 0.28303 0.4256 0.0
C225 C 0.10002 0.25178 0.43565 0.0
H226 H 0.03659 0.25032 0.49544 0.0
H227 H 0.07469 0.32548 0.43274 0.0
C228 C 0.94066 0.39045 0.41671 0.0
N229 N 0.96646 0.37305 0.41535 0.0
C230 C 0.93312 0.40955 0.38421 0.0
C231 C 0.97875 0.39222 0.3496 0.0
C232 C 0.98543 0.37359 0.38275 0.0
C233 C 0.95248 0.41081 0.35025 0.0
H234 H 0.92642 0.39025 0.44346 0.0
H235 H 0.00626 0.36018 0.38308 0.0
O236 O 0.00733 0.30903 0.54005 0.0
O237 O 0.95797 0.35786 0.51194 0.0
O238 O 0.02298 0.35765 0.4738 0.0
O239 O 0.98085 0.30392 0.4556 0.0
H240 H 0.98332 0.32518 0.61078 0.0
H241 H 0.06488 0.29227 0.55185 0.0
H242 H 0.01061 0.32311 0.67665 0.0
H243 H 0.09084 0.29099 0.61875 0.0
H244 H 0.85545 0.34101 0.50465 0.0
H245 H 0.94435 0.36922 0.58902 0.0
H246 H 0.90688 0.34334 0.47319 0.0
H247 H 0.89224 0.36686 0.61826 0.0
H248 H 0.06751 0.40098 0.63599 0.0
H249 H 0.98384 0.44836 0.6044 0.0
H250 H 0.89435 0.22635 0.4985 0.0
H251 H 0.89896 0.26819 0.61713 0.0
H252 H 0.0047 0.41498 0.46461 0.0
H253 H 0.08019 0.35739 0.50008 0.0
H254 H 0.03651 0.46064 0.47983 0.0
H255 H 0.11072 0.40406 0.51454 0.0
H256 H 0.01952 0.2924 0.39558 0.0
H257 H 0.92482 0.30767 0.42526 0.0
H258 H 0.00491 0.28748 0.32322 0.0
H259 H 0.91187 0.30268 0.35232 0.0
H260 H 0.07702 0.21598 0.46967 0.0
H261 H 0.11628 0.29299 0.40584 0.0
H262 H 0.91268 0.42355 0.38592 0.0
H263 H 0.99468 0.39301 0.32448 0.0
Li264 Li 0.64048 0.00603 0.78199 0.0
Li265 Li 0.67851 0.96795 0.75876 0.0
Li266 Li 0.67777 0.01966 0.731 0.0
Li267 Li 0.63814 0.98502 0.71561 0.0
C268 C 0.69609 0.00186 0.82612 0.0
N269 N 0.71703 0.98979 0.90357 0.0
C270 C 0.68214 0.97917 0.84961 0.0
C271 C 0.72075 0.0183 0.84195 0.0
C272 C 0.69305 0.97345 0.88871 0.0
C273 C 0.73097 0.0119 0.88121 0.0
C274 C 0.61542 0.93926 0.75535 0.0
C275 C 0.60708 0.89337 0.71614 0.0
N276 N 0.57719 0.89348 0.72756 0.0
C277 C 0.58466 0.93882 0.76689 0.0
C278 C 0.62678 0.91629 0.72991 0.0
C279 C 0.56568 0.91552 0.75245 0.0
C280 C 0.58539 0.01914 0.81911 0.0
N281 N 0.61604 0.02093 0.82546 0.0
C282 C 0.60804 0.0422 0.8914 0.0
C283 C 0.62765 0.03307 0.86022 0.0
C284 C 0.57627 0.03932 0.88633 0.0
C285 C 0.56497 0.02816 0.84931 0.0
H286 H 0.57685 0.01041 0.79059 0.0
H287 H 0.65203 0.03561 0.86399 0.0
C288 C 0.73544 0.94247 0.77644 0.0
N289 N 0.70501 0.93628 0.77638 0.0
C290 C 0.75619 0.92134 0.7924 0.0
C291 C 0.71388 0.8875 0.80692 0.0
C292 C 0.69392 0.90953 0.79134 0.0
C293 C 0.74552 0.89336 0.80806 0.0
H294 H 0.74347 0.96427 0.76509 0.0
H295 H 0.66955 0.9055 0.79195 0.0
C296 C 0.62802 0.05851 0.73998 0.0
N297 N 0.61722 0.11934 0.75822 0.0
C298 C 0.60447 0.07443 0.72049 0.0
C299 C 0.64606 0.07352 0.76883 0.0
C300 C 0.59938 0.10518 0.7301 0.0
C301 C 0.64023 0.10428 0.7776 0.0
C302 C 0.68704 0.98622 0.66113 0.0
C303 C 0.6696 0.00831 0.64084 0.0
C304 C 0.71003 0.97049 0.64028 0.0
C305 C 0.67545 0.01424 0.59995 0.0
C306 C 0.71517 0.97707 0.59938 0.0
N307 N 0.69792 -0.00137 0.58024 0.0
C308 C 0.7341 0.04822 0.71893 0.0
C309 C 0.69275 0.07352 0.68651 0.0
C310 C 0.7548 0.06931 0.70294 0.0
N311 N 0.70379 0.05069 0.71045 0.0
C312 C 0.71254 0.09528 0.67025 0.0
C313 C 0.7441 0.09324 0.67813 0.0
H314 H 0.74222 0.02952 0.73759 0.0
H315 H 0.66862 0.07468 0.67955 0.0
C316 C 0.58166 0.98724 0.67721 0.0
N317 N 0.6095 0.97349 0.67498 0.0
C318 C 0.55964 0.98169 0.64754 0.0
C319 C 0.59507 0.9472 0.61439 0.0
C320 C 0.61647 0.95348 0.64473 0.0
C321 C 0.5664 0.9618 0.61528 0.0
H322 H 0.57675 0.00284 0.70186 0.0
H323 H 0.63877 0.94273 0.64386 0.0
O324 O 0.68632 0.00754 0.78742 0.0
O325 O 0.63427 0.96223 0.76841 0.0
O326 O 0.63298 0.02832 0.73085 0.0
O327 O 0.68201 0.98003 0.70126 0.0
H328 H 0.66307 0.96615 0.83787 0.0
H329 H 0.7319 0.03579 0.82402 0.0
H330 H 0.68247 0.95599 0.90723 0.0
H331 H 0.75002 0.02447 0.89388 0.0
H332 H 0.61553 0.8756 0.69619 0.0
H333 H 0.57551 0.9562 0.78683 0.0
H334 H 0.65047 0.91648 0.72031 0.0
H335 H 0.54181 0.91495 0.76104 0.0
H336 H 0.6176 0.05125 0.91924 0.0
H337 H 0.54063 0.0255 0.84419 0.0
H338 H 0.78021 0.92728 0.79339 0.0
H339 H 0.70454 0.86618 0.81813 0.0
H340 H 0.59029 0.06313 0.69812 0.0
H341 H 0.6644 0.0617 0.78429 0.0
H342 H 0.58125 0.11779 0.71521 0.0
H343 H 0.65402 0.11617 0.79983 0.0
H344 H 0.65169 0.02073 0.65636 0.0
H345 H 0.72377 0.95337 0.65559 0.0
H346 H 0.66212 0.03126 0.5839 0.0
H347 H 0.7329 0.96506 0.58287 0.0
H348 H 0.77895 0.06647 0.70926 0.0
H349 H 0.70318 0.1135 0.65174 0.0
H350 H 0.53764 0.99304 0.64964 0.0
H351 H 0.60121 0.93187 0.58988 0.0
C352 C 0.98286 0.53671 0.18843 0.0
C353 C 0.95887 0.5457 0.1628 0.0
C354 C 0.97837 0.51474 0.21873 0.0
C355 C 0.94909 0.5015 0.22375 0.0
C356 C 0.92455 0.51088 0.19857 0.0
C357 C 0.92974 0.53292 0.1683 0.0
C358 C 0.00512 0.50547 0.24511 0.0
C359 C 0.89301 0.4973 0.2032 0.0
C360 C 0.95206 0.42462 0.27655 0.0
C361 C 0.94688 0.43303 0.31701 0.0
C362 C 0.95106 0.44645 0.24539 0.0
C363 C 0.94471 0.47741 0.25499 0.0
C364 C 0.93765 0.48571 0.29542 0.0
C365 C 0.93886 0.46341 0.32599 0.0
C366 C 0.95856 0.43667 0.2026 0.0
C367 C 0.93069 0.51848 0.30682 0.0
H368 H 0.00527 0.54696 0.18483 0.0
H369 H 0.91116 0.53965 0.14839 0.0
H370 H -0.00043 0.50949 0.27751 0.0
H371 H 0.00976 0.48063 0.24148 0.0
H372 H 0.02631 0.51828 0.23759 0.0
H373 H 0.8761 0.508 0.18237 0.0
H374 H 0.89387 0.47235 0.19695 0.0
H375 H 0.88489 0.50017 0.23485 0.0
H376 H 0.95777 0.40106 0.26939 0.0
H377 H 0.93507 0.47014 0.35724 0.0
H378 H 0.981 0.44639 0.19362 0.0
H379 H 0.9412 0.44563 0.18108 0.0
H380 H 0.95972 0.41137 0.19946 0.0
H381 H 0.95184 0.53237 0.30432 0.0
H382 H 0.92188 0.52048 0.33831 0.0
H383 H 0.91359 0.52848 0.28573 0.0
C384 C 0.46956 0.95172 0.41106 0.0
C385 C 0.43806 0.95055 0.41891 0.0
C386 C 0.49091 0.95 0.44275 0.0
C387 C 0.48046 0.94697 0.48317 0.0
C388 C 0.44877 0.94402 0.49103 0.0
C389 C 0.42792 0.94592 0.45878 0.0
C390 C 0.52453 0.95329 0.43317 0.0
C391 C 0.43677 0.94048 0.5337 0.0
C392 C 0.53825 0.92835 0.56588 0.0
C393 C 0.54414 0.95754 0.58181 0.0
C394 C 0.51739 0.92441 0.53387 0.0
C395 C 0.50232 0.95029 0.51739 0.0
C396 C 0.50825 0.97978 0.53336 0.0
C397 C 0.52906 0.98303 0.56537 0.0
C398 C 0.51146 0.89263 0.5177 0.0
C399 C 0.49279 0.008 0.51642 0.0
H400 H 0.4775 0.95556 0.38034 0.0
H401 H 0.40358 0.94457 0.46485 0.0
H402 H 0.53287 0.97564 0.44474 0.0
H403 H 0.53798 0.93511 0.44852 0.0
H404 H 0.52912 0.95216 0.40007 0.0
H405 H 0.41195 0.93505 0.53425 0.0
H406 H 0.44939 0.9221 0.54987 0.0
H407 H 0.44046 0.96207 0.55076 0.0
H408 H 0.54971 0.90858 0.57875 0.0
H409 H 0.53394 0.00568 0.57713 0.0
H410 H 0.51741 0.89156 0.48502 0.0
H411 H 0.48677 0.8871 0.52033 0.0
H412 H 0.52485 0.87486 0.53409 0.0
H413 H 0.49833 0.01045 0.48375 0.0
H414 H 0.49987 0.02924 0.5324 0.0
H415 H 0.46758 0.00572 0.5189 0.0
C416 C 0.04844 0.52735 0.8262 0.0
C417 C 0.04111 0.55809 0.81852 0.0
C418 C 0.04978 0.50591 0.79456 0.0
C419 C 0.04358 0.51548 0.75436 0.0
C420 C 0.03782 0.54678 0.74617 0.0
C421 C 0.03664 0.56771 0.77838 0.0
C422 C 0.05606 0.47273 0.80447 0.0
C423 C 0.03126 0.55789 0.70367 0.0
C424 C 0.06024 0.46213 0.66586 0.0
C425 C 0.0312 0.44965 0.65857 0.0
C426 C 0.06481 0.48347 0.69719 0.0
C427 C 0.03973 0.49239 0.72168 0.0
C428 C 0.01048 0.47957 0.71472 0.0
C429 C 0.00661 0.45834 0.68334 0.0
C430 C 0.0963 0.49668 0.70383 0.0
C431 C 0.98317 0.48839 0.74031 0.0
H432 H 0.05168 0.51973 0.8572 0.0
H433 H 0.03147 0.59156 0.77225 0.0
H434 H 0.03486 0.45919 0.80008 0.0
H435 H 0.07364 0.46321 0.78374 0.0
H436 H 0.06394 0.46964 0.83626 0.0
H437 H 0.03032 0.58327 0.70184 0.0
H438 H 0.049 0.54945 0.68236 0.0
H439 H 0.00895 0.54862 0.69332 0.0
H440 H 0.07928 0.45562 0.64662 0.0
H441 H 0.98425 0.4483 0.67836 0.0
H442 H 0.10381 0.49253 0.73551 0.0
H443 H 0.09568 0.52184 0.69931 0.0
H444 H 0.11356 0.4867 0.6829 0.0
H445 H 0.98786 0.48333 0.7727 0.0
H446 H 0.96206 0.47608 0.73113 0.0
H447 H 0.9789 0.51337 0.73782 0.0
C448 C 0.44375 0.02218 0.04293 0.0
C449 C 0.44099 0.04444 0.07335 0.0
C450 C 0.46615 0.02459 0.01278 0.0
C451 C 0.48625 0.04997 0.01294 0.0
C452 C 0.48322 0.07289 0.04305 0.0
C453 C 0.46067 0.06976 0.07311 0.0
C454 C 0.46881 -0.00048 0.98137 0.0
C455 C 0.50407 0.10039 0.04385 0.0
C456 C 0.56117 0.03462 0.95907 0.0
C457 C 0.55497 0.04599 0.92017 0.0
C458 C 0.53953 0.03716 0.99025 0.0
C459 C 0.5111 0.05156 0.98233 0.0
C460 C 0.5054 0.06462 0.94377 0.0
C461 C 0.52739 0.06156 0.91305 0.0
C462 C 0.5464 0.02281 0.03094 0.0
C463 C 0.4755 0.08047 0.93435 0.0
H464 H 0.42892 0.00231 0.04339 0.0
H465 H 0.45843 0.0871 0.09645 0.0
H466 H 0.46697 0.00936 0.95044 0.0
H467 H 0.49158 0.98836 0.98371 0.0
H468 H 0.45089 0.98172 0.98493 0.0
H469 H 0.49764 0.11698 0.06796 0.0
H470 H 0.52801 0.09289 0.04908 0.0
H471 H 0.50348 0.11227 0.01412 0.0
H472 H 0.58234 0.02233 0.96461 0.0
H473 H 0.52273 0.07076 0.88313 0.0
H474 H 0.53127 0.00275 0.03562 0.0
H475 H 0.54166 0.03929 0.05577 0.0
H476 H 0.57056 0.01507 0.03338 0.0
H477 H 0.45679 0.06334 0.93357 0.0
H478 H 0.47608 0.09249 0.90468 0.0
H479 H 0.46981 0.0973 0.95842 0.0
C480 C 0.22027 0.87669 0.11822 0.0
C481 C 0.23551 0.87071 0.15483 0.0
C482 C 0.19987 0.85537 0.10157 0.0
C483 C 0.19461 0.8274 0.12204 0.0
C484 C 0.21047 0.82089 0.15849 0.0
C485 C 0.23072 0.84266 0.17449 0.0
C486 C 0.18329 0.86316 0.0627 0.0
C487 C 0.20553 0.79122 0.18104 0.0
C488 C 0.11847 0.78825 0.10415 0.0
C489 C 0.12644 0.76529 0.07633 0.0
C490 C 0.1405 0.8085 0.11936 0.0
C491 C 0.17125 0.80572 0.10645 0.0
C492 C 0.1795 0.78257 0.07843 0.0
C493 C 0.15695 0.76263 0.06362 0.0
C494 C 0.13079 0.83302 0.14904 0.0
C495 C 0.21212 0.77888 0.06414 0.0
H496 H 0.2236 0.89849 0.10314 0.0
H497 H 0.24277 0.83777 0.2025 0.0
H498 H 0.18667 0.84472 0.04 0.0
H499 H 0.15835 0.86487 0.0686 0.0
H500 H 0.19119 0.88514 0.04942 0.0
H501 H 0.22084 0.78898 0.20779 0.0
H502 H 0.18146 0.78985 0.19153 0.0
H503 H 0.20954 0.77146 0.16054 0.0
H504 H 0.09484 0.79066 0.11361 0.0
H505 H 0.16325 0.7447 0.04246 0.0
H506 H 0.13589 0.85599 0.13638 0.0
H507 H 0.14396 0.83072 0.17766 0.0
H508 H 0.10599 0.8319 0.15627 0.0
H509 H 0.21989 0.80022 0.04912 0.0
H510 H 0.2148 0.75955 0.04252 0.0
H511 H 0.22743 0.77491 0.09048 0.0
C512 C 0.23822 0.15162 0.34472 0.0
C513 C 0.2269 0.12363 0.33021 0.0
C514 C 0.21859 0.1735 0.36196 0.0
C515 C 0.18689 0.16728 0.36457 0.0
C516 C 0.17527 0.13921 0.34968 0.0
C517 C 0.19543 0.1177 0.33278 0.0
C518 C 0.23178 0.20321 0.3775 0.0
C519 C 0.14158 0.13178 0.35194 0.0
C520 C 0.13813 0.20916 0.44205 0.0
C521 C 0.12351 0.23121 0.41792 0.0
C522 C 0.15926 0.18856 0.42521 0.0
C523 C 0.1658 0.18999 0.3832 0.0
C524 C 0.15149 0.21251 0.3588 0.0
C525 C 0.13053 0.23289 0.37648 0.0
C526 C 0.17427 0.16499 0.45223 0.0
C527 C 0.15777 0.21462 0.31386 0.0
H528 H 0.26245 0.15653 0.34235 0.0
H529 H 0.18658 0.09594 0.32222 0.0
H530 H 0.22096 0.22284 0.36163 0.0
H531 H 0.22667 0.20579 0.41029 0.0
H532 H 0.25695 0.20452 0.37318 0.0
H533 H 0.13615 0.1092 0.33821 0.0
H534 H 0.13402 0.13162 0.38405 0.0
H535 H 0.12808 0.14968 0.33606 0.0
H536 H 0.13302 0.20802 0.47419 0.0
H537 H 0.11899 0.24964 0.35761 0.0
H538 H 0.19953 0.16684 0.4501 0.0
H539 H 0.16796 0.14163 0.44198 0.0
H540 H 0.16746 0.16758 0.48452 0.0
H541 H 0.18268 0.21717 0.3084 0.0
H542 H 0.14564 0.23418 0.29945 0.0
H543 H 0.15043 0.19316 0.29869 0.0
C544 C 0.7613 0.12639 0.62035 0.0
C545 C 0.76572 0.11566 0.66007 0.0
C546 C 0.78143 0.14763 0.60298 0.0
C547 C 0.80686 0.15805 0.62562 0.0
C548 C 0.81164 0.14719 0.66557 0.0
C549 C 0.7909 0.12631 0.68242 0.0
C550 C 0.77548 0.15891 0.56039 0.0
C551 C 0.83868 0.15764 0.69052 0.0
C552 C 0.8747 0.19104 0.56883 0.0
C553 C 0.87063 0.2225 0.57519 0.0
C554 C 0.85405 0.16976 0.58501 0.0
C555 C 0.82855 0.18032 0.60754 0.0
C556 C 0.82402 0.21213 0.61333 0.0
C557 C 0.84529 0.23286 0.59732 0.0
C558 C 0.85984 0.13599 0.5787 0.0
C559 C 0.79681 0.22424 0.63659 0.0
H560 H 0.74226 0.11791 0.60256 0.0
H561 H 0.79426 0.11854 0.71331 0.0
H562 H 0.77353 0.18425 0.56028 0.0
H563 H 0.79499 0.15277 0.54046 0.0
H564 H 0.75423 0.14913 0.54724 0.0
H565 H 0.83948 0.14649 0.72078 0.0
H566 H 0.86029 0.15246 0.67423 0.0
H567 H 0.83768 0.18281 0.6949 0.0
H568 H 0.8945 0.18305 0.55205 0.0
H569 H 0.84204 0.25724 0.6019 0.0
H570 H 0.83989 0.12528 0.56352 0.0
H571 H 0.86271 0.12451 0.60848 0.0
H572 H 0.88057 0.13159 0.5601 0.0
H573 H 0.77529 0.21575 0.62276 0.0
H574 H 0.79611 0.24967 0.63723 0.0
H575 H 0.7975 0.21572 0.66827 0.0
C576 C 0.75853 0.85365 0.86051 0.0
C577 C 0.76714 0.87086 0.82641 0.0
C578 C 0.77874 0.8326 0.87835 0.0
C579 C 0.80857 0.82914 0.86232 0.0
C580 C 0.81753 0.84649 0.82811 0.0
C581 C 0.79662 0.86686 0.81031 0.0
C582 C 0.76822 0.81415 0.91446 0.0
C583 C 0.84932 0.84371 0.8105 0.0
C584 C 0.87021 0.79705 0.93154 0.0
C585 C 0.87313 0.76689 0.91723 0.0
C586 C 0.84941 0.81759 0.91381 0.0
C587 C 0.83053 0.80756 0.88158 0.0
C588 C 0.83282 0.77704 0.8675 0.0
C589 C 0.85431 0.75719 0.88516 0.0
C590 C 0.84788 0.85011 0.9293 0.0
C591 C 0.8127 0.7654 0.83359 0.0
H592 H 0.73608 0.8569 0.87377 0.0
H593 H 0.8034 0.87958 0.78359 0.0
H594 H 0.77109 0.78933 0.90826 0.0
H595 H 0.78251 0.81967 0.94129 0.0
H596 H 0.74387 0.81861 0.92218 0.0
H597 H 0.85288 0.85927 0.78429 0.0
H598 H 0.86661 0.8491 0.8341 0.0
H599 H 0.85354 0.81984 0.80044 0.0
H600 H 0.88415 0.80469 0.95676 0.0
H601 H 0.85666 0.73418 0.87328 0.0
H602 H 0.82454 0.85522 0.94065 0.0
H603 H 0.85262 0.86632 0.90417 0.0
H604 H 0.86452 0.85442 0.95414 0.0
H605 H 0.78826 0.76906 0.84132 0.0
H606 H 0.81638 0.74066 0.82739 0.0
H607 H 0.81736 0.77842 0.80539 0.0
loop_
_geom_bond_atom_site_label_1
_geom_bond_atom_site_label_2
_geom_bond_distance
_geom_bond_site_symmetry_2
_ccdc_geom_bond_type
Li0 N17 1.990 . S
Li0 O60 1.956 . S
Li0 O61 1.970 1_455 S
Li0 O62 1.961 1_554 S
Li1 N25 1.990 . S
Li1 O60 1.970 1_655 S
Li1 O61 1.956 . S
Li1 O63 1.961 1_554 S
Li2 N47 1.990 . S
Li2 O60 1.961 1_556 S
Li2 O62 1.956 . S
Li2 O63 1.970 1_455 S
Li3 N53 1.990 . S
Li3 O61 1.961 1_556 S
Li3 O62 1.970 1_655 S
Li3 O63 1.956 . S
C4 C6 1.348 . S
C4 C7 1.356 1_554 S
C4 O60 1.325 . S
N5 C8 1.314 . S
N5 C9 1.279 . S
C6 C4 1.348 . S
C6 C8 1.353 . S
C6 H64 0.929 . S
C7 C4 1.356 1_556 S
C7 C9 1.358 1_556 S
C7 H65 0.930 . S
C8 N5 1.314 . S
C8 C6 1.353 . S
C8 H66 0.930 . S
C9 N5 1.279 . S
C9 C7 1.358 1_554 S
C9 H67 0.930 1_554 S
C10 C13 1.348 1_655 S
C10 C14 1.356 . S
C10 O61 1.325 . S
C11 N12 1.279 . S
C11 C14 1.358 . S
C11 H68 0.930 . S
N12 C11 1.279 . S
N12 C15 1.314 . S
C13 C10 1.348 1_455 S
C13 C15 1.353 1_455 S
C13 H69 0.929 . S
C14 C10 1.356 . S
C14 C11 1.358 . S
C14 H70 0.930 . S
C15 N12 1.314 . S
C15 C13 1.353 1_655 S
C15 H71 0.930 1_655 S
C16 N17 1.314 . S
C16 C21 1.353 . S
C16 H22 0.930 1_554 S
N17 Li0 1.990 . S
N17 C16 1.314 . S
N17 C19 1.279 . S
C18 C19 1.358 . S
C18 C20 1.356 . S
C18 H72 0.930 . S
C19 N17 1.279 . S
C19 C18 1.358 . S
C19 H23 0.930 . S
C20 C18 1.356 . S
C20 C21 1.348 . S
C21 C16 1.353 . S
C21 C20 1.348 . S
C21 H73 0.929 . S
H22 C16 0.930 1_556 S
H23 C19 0.930 . S
C24 N25 1.314 . S
C24 C26 1.353 . S
C24 H30 0.930 . S
N25 Li1 1.990 . S
N25 C24 1.314 . S
N25 C28 1.279 . S
C26 C24 1.353 . S
C26 C29 1.348 . S
C26 H74 0.929 . S
C27 C28 1.358 . S
C27 C29 1.356 . S
C27 H75 0.930 . S
C28 N25 1.279 . S
C28 C27 1.358 . S
C28 H31 0.930 . S
C29 C26 1.348 . S
C29 C27 1.356 . S
H30 C24 0.930 . S
H31 C28 0.930 . S
C32 C34 1.348 1_455 S
C32 C35 1.356 . S
C32 O62 1.325 . S
N33 C36 1.314 . S
N33 C37 1.279 . S
C34 C32 1.348 1_655 S
C34 C36 1.353 1_655 S
C34 H76 0.929 . S
C35 C32 1.356 . S
C35 C37 1.358 . S
C35 H77 0.930 . S
C36 N33 1.314 . S
C36 C34 1.353 1_455 S
C36 H78 0.930 1_455 S
C37 N33 1.279 . S
C37 C35 1.358 . S
C37 H79 0.930 . S
C38 C39 1.348 . S
C38 C40 1.356 1_556 S
C38 O63 1.325 . S
C39 C38 1.348 . S
C39 C41 1.353 . S
C39 H80 0.929 . S
C40 C38 1.356 1_554 S
C40 C42 1.358 1_554 S
C40 H81 0.930 . S
C41 C39 1.353 . S
C41 N43 1.314 . S
C41 H82 0.930 . S
C42 C40 1.358 1_556 S
C42 N43 1.279 . S
C42 H83 0.930 1_556 S
N43 C41 1.314 . S
N43 C42 1.279 . S
C44 C46 1.353 . S
C44 N47 1.314 . S
C44 H50 0.930 . S
C45 N47 1.279 . S
C45 C48 1.358 . S
C45 H51 0.930 . S
C46 C44 1.353 . S
C46 C49 1.348 . S
C46 H84 0.929 . S
N47 Li2 1.990 . S
N47 C44 1.314 . S
N47 C45 1.279 . S
C48 C45 1.358 . S
C48 C49 1.356 . S
C48 H85 0.930 . S
C49 C46 1.348 . S
C49 C48 1.356 . S
H50 C44 0.930 . S
H51 C45 0.930 . S
C52 N53 1.314 . S
C52 C54 1.353 . S
C52 H58 0.930 1_556 S
N53 Li3 1.990 . S
N53 C52 1.314 . S
N53 C56 1.279 . S
C54 C52 1.353 . S
C54 C57 1.348 . S
C54 H86 0.929 . S
C55 C56 1.358 . S
C55 C57 1.356 . S
C55 H87 0.930 . S
C56 N53 1.279 . S
C56 C55 1.358 . S
C56 H59 0.930 . S
C57 C54 1.348 . S
C57 C55 1.356 . S
H58 C52 0.930 1_554 S
H59 C56 0.930 . S
O60 Li0 1.956 . S
O60 Li1 1.970 1_455 S
O60 Li2 1.961 1_554 S
O60 C4 1.325 . S
O61 Li0 1.970 1_655 S
O61 Li1 1.956 . S
O61 Li3 1.961 1_554 S
O61 C10 1.325 . S
O62 Li0 1.961 1_556 S
O62 Li2 1.956 . S
O62 Li3 1.970 1_455 S
O62 C32 1.325 . S
O63 Li1 1.961 1_556 S
O63 Li2 1.970 1_655 S
O63 Li3 1.956 . S
O63 C38 1.325 . S
H64 C6 0.929 . S
H65 C7 0.930 . S
H66 C8 0.930 . S
H67 C9 0.930 1_556 S
H68 C11 0.930 . S
H69 C13 0.929 . S
H70 C14 0.930 . S
H71 C15 0.930 1_455 S
H72 C18 0.930 . S
H73 C21 0.929 . S
H74 C26 0.929 . S
H75 C27 0.930 . S
H76 C34 0.929 . S
H77 C35 0.930 . S
H78 C36 0.930 1_655 S
H79 C37 0.930 . S
H80 C39 0.929 . S
H81 C40 0.930 . S
H82 C41 0.930 . S
H83 C42 0.930 1_554 S
H84 C46 0.929 . S
H85 C48 0.930 . S
H86 C54 0.929 . S
H87 C55 0.930 . S
Li88 N105 1.990 . S
Li88 O148 1.956 . S
Li88 O149 1.970 1_565 S
Li88 O150 1.961 . S
Li89 N113 1.990 . S
Li89 O148 1.970 1_545 S
Li89 O149 1.956 . S
Li89 O151 1.961 . S
Li90 N135 1.990 . S
Li90 O148 1.961 . S
Li90 O150 1.956 . S
Li90 O151 1.970 1_565 S
Li91 N141 1.990 . S
Li91 O149 1.961 . S
Li91 O150 1.970 1_545 S
Li91 O151 1.956 . S
C92 C94 1.348 1_565 S
C92 C95 1.356 . S
C92 O148 1.325 . S
N93 C96 1.314 . S
N93 C97 1.279 . S
C94 C92 1.348 1_545 S
C94 C96 1.353 1_545 S
C94 H152 0.929 . S
C95 C92 1.356 . S
C95 C97 1.358 . S
C95 H153 0.930 . S
C96 N93 1.314 . S
C96 C94 1.353 1_565 S
C96 H154 0.930 1_565 S
C97 N93 1.279 . S
C97 C95 1.358 . S
C97 H155 0.930 . S
C98 C101 1.348 . S
C98 C102 1.356 . S
C98 O149 1.325 . S
C99 N100 1.279 . S
C99 C102 1.358 . S
C99 H156 0.930 . S
N100 C99 1.279 . S
N100 C103 1.314 . S
C101 C98 1.348 . S
C101 C103 1.353 . S
C101 H157 0.929 . S
C102 C98 1.356 . S
C102 C99 1.358 . S
C102 H158 0.930 . S
C103 N100 1.314 . S
C103 C101 1.353 . S
C103 H159 0.930 . S
C104 N105 1.314 . S
C104 C109 1.353 . S
C104 H110 0.930 . S
N105 Li88 1.990 . S
N105 C104 1.314 . S
N105 C107 1.279 . S
C106 C107 1.358 . S
C106 C108 1.356 . S
C106 H160 0.930 . S
C107 N105 1.279 . S
C107 C106 1.358 . S
C107 H111 0.930 . S
C108 C106 1.356 . S
C108 C109 1.348 . S
C109 C104 1.353 . S
C109 C108 1.348 . S
C109 H161 0.929 . S
H110 C104 0.930 . S
H111 C107 0.930 . S
C112 N113 1.314 . S
C112 C114 1.353 . S
C112 H118 0.930 . S
N113 Li89 1.990 . S
N113 C112 1.314 . S
N113 C116 1.279 . S
C114 C112 1.353 . S
C114 C117 1.348 . S
C114 H162 0.929 . S
C115 C116 1.358 . S
C115 C117 1.356 . S
C115 H163 0.930 . S
C116 N113 1.279 . S
C116 C115 1.358 . S
C116 H119 0.930 . S
C117 C114 1.348 . S
C117 C115 1.356 . S
H118 C112 0.930 . S
H119 C116 0.930 . S
C120 C122 1.348 . S
C120 C123 1.356 . S
C120 O150 1.325 . S
N121 C124 1.314 . S
N121 C125 1.279 . S
C122 C120 1.348 . S
C122 C124 1.353 . S
C122 H164 0.929 . S
C123 C120 1.356 . S
C123 C125 1.358 . S
C123 H165 0.930 . S
C124 N121 1.314 . S
C124 C122 1.353 . S
C124 H166 0.930 . S
C125 N121 1.279 . S
C125 C123 1.358 . S
C125 H167 0.930 . S
C126 C127 1.348 1_545 S
C126 C128 1.356 . S
C126 O151 1.325 . S
C127 C126 1.348 1_565 S
C127 C129 1.353 1_565 S
C127 H168 0.929 . S
C128 C126 1.356 . S
C128 C130 1.358 . S
C128 H169 0.930 . S
C129 C127 1.353 1_545 S
C129 N131 1.314 . S
C129 H170 0.930 1_545 S
C130 C128 1.358 . S
C130 N131 1.279 . S
C130 H171 0.930 . S
N131 C129 1.314 . S
N131 C130 1.279 . S
C132 C134 1.353 . S
C132 N135 1.314 . S
C132 H138 0.930 . S
C133 N135 1.279 . S
C133 C136 1.358 . S
C133 H139 0.930 . S
C134 C132 1.353 . S
C134 C137 1.348 . S
C134 H172 0.929 . S
N135 Li90 1.990 . S
N135 C132 1.314 . S
N135 C133 1.279 . S
C136 C133 1.358 . S
C136 C137 1.356 . S
C136 H173 0.930 . S
C137 C134 1.348 . S
C137 C136 1.356 . S
H138 C132 0.930 . S
H139 C133 0.930 . S
C140 N141 1.314 . S
C140 C142 1.353 . S
C140 H146 0.930 . S
N141 Li91 1.990 . S
N141 C140 1.314 . S
N141 C144 1.279 . S
C142 C140 1.353 . S
C142 C145 1.348 . S
C142 H174 0.929 . S
C143 C144 1.358 . S
C143 C145 1.356 . S
C143 H175 0.930 . S
C144 N141 1.279 . S
C144 C143 1.358 . S
C144 H147 0.930 . S
C145 C142 1.348 . S
C145 C143 1.356 . S
H146 C140 0.930 . S
H147 C144 0.930 . S
O148 Li88 1.956 . S
O148 Li89 1.970 1_565 S
O148 Li90 1.961 . S
O148 C92 1.325 . S
O149 Li88 1.970 1_545 S
O149 Li89 1.956 . S
O149 Li91 1.961 . S
O149 C98 1.325 . S
O150 Li88 1.961 . S
O150 Li90 1.956 . S
O150 Li91 1.970 1_565 S
O150 C120 1.325 . S
O151 Li89 1.961 . S
O151 Li90 1.970 1_545 S
O151 Li91 1.956 . S
O151 C126 1.325 . S
H152 C94 0.929 . S
H153 C95 0.930 . S
H154 C96 0.930 1_545 S
H155 C97 0.930 . S
H156 C99 0.930 . S
H157 C101 0.929 . S
H158 C102 0.930 . S
H159 C103 0.930 . S
H160 C106 0.930 . S
H161 C109 0.929 . S
H162 C114 0.929 . S
H163 C115 0.930 . S
H164 C122 0.929 . S
H165 C123 0.930 . S
H166 C124 0.930 . S
H167 C125 0.930 . S
H168 C127 0.929 . S
H169 C128 0.930 . S
H170 C129 0.930 1_565 S
H171 C130 0.930 . S
H172 C134 0.929 . S
H173 C136 0.930 . S
H174 C142 0.929 . S
H175 C143 0.930 . S
Li176 N193 1.990 . S
Li176 O236 1.956 . S
Li176 O237 1.970 1_455 S
Li176 O238 1.961 . S
Li177 N201 1.990 . S
Li177 O236 1.970 1_655 S
Li177 O237 1.956 . S
Li177 O239 1.961 . S
Li178 N223 1.990 . S
Li178 O236 1.961 . S
Li178 O238 1.956 . S
Li178 O239 1.970 1_455 S
Li179 N229 1.990 . S
Li179 O237 1.961 . S
Li179 O238 1.970 1_655 S
Li179 O239 1.956 . S
C180 C182 1.348 1_455 S
C180 C183 1.356 . S
C180 O236 1.325 . S
N181 C184 1.314 . S
N181 C185 1.279 . S
C182 C180 1.348 1_655 S
C182 C184 1.353 1_655 S
C182 H240 0.929 . S
C183 C180 1.356 . S
C183 C185 1.358 . S
C183 H241 0.930 . S
C184 N181 1.314 . S
C184 C182 1.353 1_455 S
C184 H242 0.930 1_455 S
C185 N181 1.279 . S
C185 C183 1.358 . S
C185 H243 0.930 . S
C186 C189 1.348 . S
C186 C190 1.356 . S
C186 O237 1.325 . S
C187 N188 1.279 . S
C187 C190 1.358 . S
C187 H244 0.930 . S
N188 C187 1.279 . S
N188 C191 1.314 . S
C189 C186 1.348 . S
C189 C191 1.353 . S
C189 H245 0.929 . S
C190 C186 1.356 . S
C190 C187 1.358 . S
C190 H246 0.930 . S
C191 N188 1.314 . S
C191 C189 1.353 . S
C191 H247 0.930 . S
C192 N193 1.314 . S
C192 C197 1.353 . S
C192 H198 0.930 . S
N193 Li176 1.990 . S
N193 C192 1.314 . S
N193 C195 1.279 . S
C194 C195 1.358 . S
C194 C196 1.356 . S
C194 H248 0.930 . S
C195 N193 1.279 . S
C195 C194 1.358 . S
C195 H199 0.930 . S
C196 C194 1.356 . S
C196 C197 1.348 . S
C197 C192 1.353 . S
C197 C196 1.348 . S
C197 H249 0.929 . S
H198 C192 0.930 . S
H199 C195 0.930 . S
C200 N201 1.314 . S
C200 C202 1.353 . S
C200 H206 0.930 . S
N201 Li177 1.990 . S
N201 C200 1.314 . S
N201 C204 1.279 . S
C202 C200 1.353 . S
C202 C205 1.348 . S
C202 H250 0.929 . S
C203 C204 1.358 . S
C203 C205 1.356 . S
C203 H251 0.930 . S
C204 N201 1.279 . S
C204 C203 1.358 . S
C204 H207 0.930 . S
C205 C202 1.348 . S
C205 C203 1.356 . S
H206 C200 0.930 . S
H207 C204 0.930 . S
C208 C210 1.348 . S
C208 C211 1.356 . S
C208 O238 1.325 . S
N209 C212 1.314 . S
N209 C213 1.279 . S
C210 C208 1.348 . S
C210 C212 1.353 . S
C210 H252 0.929 . S
C211 C208 1.356 . S
C211 C213 1.358 . S
C211 H253 0.930 . S
C212 N209 1.314 . S
C212 C210 1.353 . S
C212 H254 0.930 . S
C213 N209 1.279 . S
C213 C211 1.358 . S
C213 H255 0.930 . S
C214 C215 1.348 1_655 S
C214 C216 1.356 . S
C214 O239 1.325 . S
C215 C214 1.348 1_455 S
C215 C217 1.353 1_455 S
C215 H256 0.929 . S
C216 C214 1.356 . S
C216 C218 1.358 . S
C216 H257 0.930 . S
C217 C215 1.353 1_655 S
C217 N219 1.314 . S
C217 H258 0.930 1_655 S
C218 C216 1.358 . S
C218 N219 1.279 . S
C218 H259 0.930 . S
N219 C217 1.314 . S
N219 C218 1.279 . S
C220 C222 1.353 . S
C220 N223 1.314 . S
C220 H226 0.930 . S
C221 N223 1.279 . S
C221 C224 1.358 . S
C221 H227 0.930 . S
C222 C220 1.353 . S
C222 C225 1.348 . S
C222 H260 0.929 . S
N223 Li178 1.990 . S
N223 C220 1.314 . S
N223 C221 1.279 . S
C224 C221 1.358 . S
C224 C225 1.356 . S
C224 H261 0.930 . S
C225 C222 1.348 . S
C225 C224 1.356 . S
H226 C220 0.930 . S
H227 C221 0.930 . S
C228 N229 1.314 . S
C228 C230 1.353 . S
C228 H234 0.930 . S
N229 Li179 1.990 . S
N229 C228 1.314 . S
N229 C232 1.279 . S
C230 C228 1.353 . S
C230 C233 1.348 . S
C230 H262 0.929 . S
C231 C232 1.358 . S
C231 C233 1.356 . S
C231 H263 0.930 . S
C232 N229 1.279 . S
C232 C231 1.358 . S
C232 H235 0.930 . S
C233 C230 1.348 . S
C233 C231 1.356 . S
H234 C228 0.930 . S
H235 C232 0.930 . S
O236 Li176 1.956 . S
O236 Li177 1.970 1_455 S
O236 Li178 1.961 . S
O236 C180 1.325 . S
O237 Li176 1.970 1_655 S
O237 Li177 1.956 . S
O237 Li179 1.961 . S
O237 C186 1.325 . S
O238 Li176 1.961 . S
O238 Li178 1.956 . S
O238 Li179 1.970 1_455 S
O238 C208 1.325 . S
O239 Li177 1.961 . S
O239 Li178 1.970 1_655 S
O239 Li179 1.956 . S
O239 C214 1.325 . S
H240 C182 0.929 . S
H241 C183 0.930 . S
H242 C184 0.930 1_655 S
H243 C185 0.930 . S
H244 C187 0.930 . S
H245 C189 0.929 . S
H246 C190 0.930 . S
H247 C191 0.930 . S
H248 C194 0.930 . S
H249 C197 0.929 . S
H250 C202 0.929 . S
H251 C203 0.930 . S
H252 C210 0.929 . S
H253 C211 0.930 . S
H254 C212 0.930 . S
H255 C213 0.930 . S
H256 C215 0.929 . S
H257 C216 0.930 . S
H258 C217 0.930 1_455 S
H259 C218 0.930 . S
H260 C222 0.929 . S
H261 C224 0.930 . S
H262 C230 0.929 . S
H263 C231 0.930 . S
Li264 N281 1.990 . S
Li264 O324 1.956 . S
Li264 O325 1.970 1_545 S
Li264 O326 1.961 . S
Li265 N289 1.990 . S
Li265 O324 1.970 1_565 S
Li265 O325 1.956 . S
Li265 O327 1.961 . S
Li266 N311 1.990 . S
Li266 O324 1.961 . S
Li266 O326 1.956 . S
Li266 O327 1.970 1_545 S
Li267 N317 1.990 . S
Li267 O325 1.961 . S
Li267 O326 1.970 1_565 S
Li267 O327 1.956 . S
C268 C270 1.348 1_545 S
C268 C271 1.356 . S
C268 O324 1.325 . S
N269 C272 1.314 . S
N269 C273 1.279 . S
C270 C268 1.348 1_565 S
C270 C272 1.353 1_565 S
C270 H328 0.929 . S
C271 C268 1.356 . S
C271 C273 1.358 . S
C271 H329 0.930 . S
C272 N269 1.314 . S
C272 C270 1.353 1_545 S
C272 H330 0.930 1_545 S
C273 N269 1.279 . S
C273 C271 1.358 . S
C273 H331 0.930 . S
C274 C277 1.348 . S
C274 C278 1.356 . S
C274 O325 1.325 . S
C275 N276 1.279 . S
C275 C278 1.358 . S
C275 H332 0.930 . S
N276 C275 1.279 . S
N276 C279 1.314 . S
C277 C274 1.348 . S
C277 C279 1.353 . S
C277 H333 0.929 . S
C278 C274 1.356 . S
C278 C275 1.358 . S
C278 H334 0.930 . S
C279 N276 1.314 . S
C279 C277 1.353 . S
C279 H335 0.930 . S
C280 N281 1.314 . S
C280 C285 1.353 . S
C280 H286 0.930 . S
N281 Li264 1.990 . S
N281 C280 1.314 . S
N281 C283 1.279 . S
C282 C283 1.358 . S
C282 C284 1.356 . S
C282 H336 0.930 . S
C283 N281 1.279 . S
C283 C282 1.358 . S
C283 H287 0.930 . S
C284 C282 1.356 . S
C284 C285 1.348 . S
C285 C280 1.353 . S
C285 C284 1.348 . S
C285 H337 0.929 . S
H286 C280 0.930 . S
H287 C283 0.930 . S
C288 N289 1.314 . S
C288 C290 1.353 . S
C288 H294 0.930 . S
N289 Li265 1.990 . S
N289 C288 1.314 . S
N289 C292 1.279 . S
C290 C288 1.353 . S
C290 C293 1.348 . S
C290 H338 0.929 . S
C291 C292 1.358 . S
C291 C293 1.356 . S
C291 H339 0.930 . S
C292 N289 1.279 . S
C292 C291 1.358 . S
C292 H295 0.930 . S
C293 C290 1.348 . S
C293 C291 1.356 . S
H294 C288 0.930 . S
H295 C292 0.930 . S
C296 C298 1.348 . S
C296 C299 1.356 . S
C296 O326 1.325 . S
N297 C300 1.314 . S
N297 C301 1.279 . S
C298 C296 1.348 . S
C298 C300 1.353 . S
C298 H340 0.929 . S
C299 C296 1.356 . S
C299 C301 1.358 . S
C299 H341 0.930 . S
C300 N297 1.314 . S
C300 C298 1.353 . S
C300 H342 0.930 . S
C301 N297 1.279 . S
C301 C299 1.358 . S
C301 H343 0.930 . S
C302 C303 1.348 1_565 S
C302 C304 1.356 . S
C302 O327 1.325 . S
C303 C302 1.348 1_545 S
C303 C305 1.353 1_545 S
C303 H344 0.929 . S
C304 C302 1.356 . S
C304 C306 1.358 . S
C304 H345 0.930 . S
C305 C303 1.353 1_565 S
C305 N307 1.314 . S
C305 H346 0.930 1_565 S
C306 C304 1.358 . S
C306 N307 1.279 . S
C306 H347 0.930 . S
N307 C305 1.314 . S
N307 C306 1.279 . S
C308 C310 1.353 . S
C308 N311 1.314 . S
C308 H314 0.930 . S
C309 N311 1.279 . S
C309 C312 1.358 . S
C309 H315 0.930 . S
C310 C308 1.353 . S
C310 C313 1.348 . S
C310 H348 0.929 . S
N311 Li266 1.990 . S
N311 C308 1.314 . S
N311 C309 1.279 . S
C312 C309 1.358 . S
C312 C313 1.356 . S
C312 H349 0.930 . S
C313 C310 1.348 . S
C313 C312 1.356 . S
H314 C308 0.930 . S
H315 C309 0.930 . S
C316 N317 1.314 . S
C316 C318 1.353 . S
C316 H322 0.930 . S
N317 Li267 1.990 . S
N317 C316 1.314 . S
N317 C320 1.279 . S
C318 C316 1.353 . S
C318 C321 1.348 . S
C318 H350 0.929 . S
C319 C320 1.358 . S
C319 C321 1.356 . S
C319 H351 0.930 . S
C320 N317 1.279 . S
C320 C319 1.358 . S
C320 H323 0.930 . S
C321 C318 1.348 . S
C321 C319 1.356 . S
H322 C316 0.930 . S
H323 C320 0.930 . S
O324 Li264 1.956 . S
O324 Li265 1.970 1_545 S
O324 Li266 1.961 . S
O324 C268 1.325 . S
O325 Li264 1.970 1_565 S
O325 Li265 1.956 . S
O325 Li267 1.961 . S
O325 C274 1.325 . S
O326 Li264 1.961 . S
O326 Li266 1.956 . S
O326 Li267 1.970 1_545 S
O326 C296 1.325 . S
O327 Li265 1.961 . S
O327 Li266 1.970 1_565 S
O327 Li267 1.956 . S
O327 C302 1.325 . S
H328 C270 0.929 . S
H329 C271 0.930 . S
H330 C272 0.930 1_565 S
H331 C273 0.930 . S
H332 C275 0.930 . S
H333 C277 0.929 . S
H334 C278 0.930 . S
H335 C279 0.930 . S
H336 C282 0.930 . S
H337 C285 0.929 . S
H338 C290 0.929 . S
H339 C291 0.930 . S
H340 C298 0.929 . S
H341 C299 0.930 . S
H342 C300 0.930 . S
H343 C301 0.930 . S
H344 C303 0.929 . S
H345 C304 0.930 . S
H346 C305 0.930 1_545 S
H347 C306 0.930 . S
H348 C310 0.929 . S
H349 C312 0.930 . S
H350 C318 0.929 . S
H351 C319 0.930 . S
C352 C353 1.391 . S
C352 C354 1.394 . S
C352 H368 0.931 1_655 S
C353 C352 1.391 . S
C353 C357 1.376 . S
C354 C352 1.394 . S
C354 C355 1.369 . S
C354 C358 1.531 1_655 S
C355 C354 1.369 . S
C355 C356 1.410 . S
C355 C363 1.503 . S
C356 C355 1.410 . S
C356 C357 1.392 . S
C356 C359 1.511 . S
C357 C353 1.376 . S
C357 C356 1.392 . S
C357 H369 0.929 . S
C358 C354 1.531 1_455 S
C358 H370 0.960 . S
C358 H371 0.962 . S
C358 H372 0.960 . S
C359 C356 1.511 . S
C359 H373 0.961 . S
C359 H374 0.961 . S
C359 H375 0.961 . S
C360 C361 1.370 . S
C360 C362 1.363 . S
C360 H376 0.931 . S
C361 C360 1.370 . S
C361 C365 1.408 . S
C362 C360 1.363 . S
C362 C363 1.370 . S
C362 C366 1.524 . S
C363 C355 1.503 . S
C363 C362 1.370 . S
C363 C364 1.403 . S
C364 C363 1.403 . S
C364 C365 1.404 . S
C364 C367 1.539 . S
C365 C361 1.408 . S
C365 C364 1.404 . S
C365 H377 0.930 . S
C366 C362 1.524 . S
C366 H378 0.956 . S
C366 H379 0.961 . S
C366 H380 0.961 . S
C367 C364 1.539 . S
C367 H381 0.958 1_655 S
C367 H382 0.961 . S
C367 H383 0.960 . S
H368 C352 0.931 1_455 S
H369 C357 0.929 . S
H370 C358 0.960 . S
H371 C358 0.962 . S
H372 C358 0.960 . S
H373 C359 0.961 . S
H374 C359 0.961 . S
H375 C359 0.961 . S
H376 C360 0.931 . S
H377 C365 0.930 . S
H378 C366 0.956 . S
H379 C366 0.961 . S
H380 C366 0.961 . S
H381 C367 0.958 1_455 S
H382 C367 0.961 . S
H383 C367 0.960 . S
C384 C385 1.391 . S
C384 C386 1.394 . S
C384 H400 0.931 . S
C385 C384 1.391 . S
C385 C389 1.376 . S
C386 C384 1.394 . S
C386 C387 1.369 . S
C386 C390 1.531 . S
C387 C386 1.369 . S
C387 C388 1.410 . S
C387 C395 1.503 . S
C388 C387 1.410 . S
C388 C389 1.392 . S
C388 C391 1.511 . S
C389 C385 1.376 . S
C389 C388 1.392 . S
C389 H401 0.929 . S
C390 C386 1.531 . S
C390 H402 0.960 . S
C390 H403 0.962 . S
C390 H404 0.960 . S
C391 C388 1.511 . S
C391 H405 0.961 . S
C391 H406 0.961 . S
C391 H407 0.961 . S
C392 C393 1.370 . S
C392 C394 1.363 . S
C392 H408 0.931 . S
C393 C392 1.370 . S
C393 C397 1.408 . S
C394 C392 1.363 . S
C394 C395 1.370 . S
C394 C398 1.524 . S
C395 C387 1.503 . S
C395 C394 1.370 . S
C395 C396 1.403 . S
C396 C395 1.403 . S
C396 C397 1.404 . S
C396 C399 1.539 1_565 S
C397 C393 1.408 . S
C397 C396 1.404 . S
C397 H409 0.930 1_565 S
C398 C394 1.524 . S
C398 H410 0.956 . S
C398 H411 0.961 . S
C398 H412 0.961 . S
C399 C396 1.539 1_545 S
C399 H413 0.958 . S
C399 H414 0.961 . S
C399 H415 0.960 . S
H400 C384 0.931 . S
H401 C389 0.929 . S
H402 C390 0.960 . S
H403 C390 0.962 . S
H404 C390 0.960 . S
H405 C391 0.961 . S
H406 C391 0.961 . S
H407 C391 0.961 . S
H408 C392 0.931 . S
H409 C397 0.930 1_545 S
H410 C398 0.956 . S
H411 C398 0.961 . S
H412 C398 0.961 . S
H413 C399 0.958 . S
H414 C399 0.961 . S
H415 C399 0.960 . S
C416 C417 1.391 . S
C416 C418 1.394 . S
C416 H432 0.931 . S
C417 C416 1.391 . S
C417 C421 1.376 . S
C418 C416 1.394 . S
C418 C419 1.369 . S
C418 C422 1.531 . S
C419 C418 1.369 . S
C419 C420 1.410 . S
C419 C427 1.503 . S
C420 C419 1.410 . S
C420 C421 1.392 . S
C420 C423 1.511 . S
C421 C417 1.376 . S
C421 C420 1.392 . S
C421 H433 0.929 . S
C422 C418 1.531 . S
C422 H434 0.960 . S
C422 H435 0.962 . S
C422 H436 0.960 . S
C423 C420 1.511 . S
C423 H437 0.961 . S
C423 H438 0.961 . S
C423 H439 0.961 1_455 S
C424 C425 1.370 . S
C424 C426 1.363 . S
C424 H440 0.931 . S
C425 C424 1.370 . S
C425 C429 1.408 . S
C426 C424 1.363 . S
C426 C427 1.370 . S
C426 C430 1.524 . S
C427 C419 1.503 . S
C427 C426 1.370 . S
C427 C428 1.403 . S
C428 C427 1.403 . S
C428 C429 1.404 . S
C428 C431 1.539 1_455 S
C429 C425 1.408 . S
C429 C428 1.404 . S
C429 H441 0.930 1_455 S
C430 C426 1.524 . S
C430 H442 0.956 . S
C430 H443 0.961 . S
C430 H444 0.961 . S
C431 C428 1.539 1_655 S
C431 H445 0.958 . S
C431 H446 0.961 . S
C431 H447 0.960 . S
H432 C416 0.931 . S
H433 C421 0.929 . S
H434 C422 0.960 . S
H435 C422 0.962 . S
H436 C422 0.960 . S
H437 C423 0.961 . S
H438 C423 0.961 . S
H439 C423 0.961 1_655 S
H440 C424 0.931 . S
H441 C429 0.930 1_655 S
H442 C430 0.956 . S
H443 C430 0.961 . S
H444 C430 0.961 . S
H445 C431 0.958 . S
H446 C431 0.961 . S
H447 C431 0.960 . S
C448 C449 1.391 . S
C448 C450 1.394 . S
C448 H464 0.931 1_545 S
C449 C448 1.391 . S
C449 C453 1.376 . S
C450 C448 1.394 . S
C450 C451 1.369 . S
C450 C454 1.531 1_544 S
C451 C450 1.369 . S
C451 C452 1.410 . S
C451 C459 1.503 1_554 S
C452 C451 1.410 . S
C452 C453 1.392 . S
C452 C455 1.511 . S
C453 C449 1.376 . S
C453 C452 1.392 . S
C453 H465 0.929 . S
C454 C450 1.531 1_566 S
C454 H466 0.960 . S
C454 H467 0.962 . S
C454 H468 0.960 . S
C455 C452 1.511 . S
C455 H469 0.961 . S
C455 H470 0.961 . S
C455 H471 0.961 . S
C456 C457 1.370 . S
C456 C458 1.363 . S
C456 H472 0.931 . S
C457 C456 1.370 . S
C457 C461 1.408 . S
C458 C456 1.363 . S
C458 C459 1.370 . S
C458 C462 1.524 1_556 S
C459 C451 1.503 1_556 S
C459 C458 1.370 . S
C459 C460 1.403 . S
C460 C459 1.403 . S
C460 C461 1.404 . S
C460 C463 1.539 . S
C461 C457 1.408 . S
C461 C460 1.404 . S
C461 H473 0.930 . S
C462 C458 1.524 1_554 S
C462 H474 0.956 1_545 S
C462 H475 0.961 . S
C462 H476 0.954 1_545 S
C463 C460 1.539 . S
C463 H477 0.958 . S
C463 H478 0.961 . S
C463 H479 0.960 . S
H464 C448 0.931 1_565 S
H465 C453 0.929 . S
H466 C454 0.960 . S
H467 C454 0.962 . S
H468 C454 0.960 . S
H469 C455 0.961 . S
H470 C455 0.961 . S
H471 C455 0.961 . S
H472 C456 0.931 . S
H473 C461 0.930 . S
H474 C462 0.956 1_565 S
H475 C462 0.961 . S
H476 C462 0.954 1_565 S
H477 C463 0.958 . S
H478 C463 0.961 . S
H479 C463 0.960 . S
C480 C481 1.391 . S
C480 C482 1.394 . S
C480 H496 0.931 . S
C481 C480 1.391 . S
C481 C485 1.376 . S
C482 C480 1.394 . S
C482 C483 1.369 . S
C482 C486 1.531 . S
C483 C482 1.369 . S
C483 C484 1.410 . S
C483 C491 1.503 . S
C484 C483 1.410 . S
C484 C485 1.392 . S
C484 C487 1.511 . S
C485 C481 1.376 . S
C485 C484 1.392 . S
C485 H497 0.929 . S
C486 C482 1.531 . S
C486 H498 0.960 . S
C486 H499 0.962 . S
C486 H500 0.960 . S
C487 C484 1.511 . S
C487 H501 0.961 . S
C487 H502 0.961 . S
C487 H503 0.961 . S
C488 C489 1.370 . S
C488 C490 1.363 . S
C488 H504 0.931 . S
C489 C488 1.370 . S
C489 C493 1.408 . S
C490 C488 1.363 . S
C490 C491 1.370 . S
C490 C494 1.524 . S
C491 C483 1.503 . S
C491 C490 1.370 . S
C491 C492 1.403 . S
C492 C491 1.403 . S
C492 C493 1.404 . S
C492 C495 1.539 . S
C493 C489 1.408 . S
C493 C492 1.404 . S
C493 H505 0.930 . S
C494 C490 1.524 . S
C494 H506 0.956 . S
C494 H507 0.961 . S
C494 H508 0.961 . S
C495 C492 1.539 . S
C495 H509 0.958 . S
C495 H510 0.961 . S
C495 H511 0.960 . S
H496 C480 0.931 . S
H497 C485 0.929 . S
H498 C486 0.960 . S
H499 C486 0.962 . S
H500 C486 0.960 . S
H501 C487 0.961 . S
H502 C487 0.961 . S
H503 C487 0.961 . S
H504 C488 0.931 . S
H505 C493 0.930 . S
H506 C494 0.956 . S
H507 C494 0.961 . S
H508 C494 0.961 . S
H509 C495 0.958 . S
H510 C495 0.961 . S
H511 C495 0.960 . S
C512 C513 1.391 . S
C512 C514 1.394 . S
C512 H528 0.931 . S
C513 C512 1.391 . S
C513 C517 1.376 . S
C514 C512 1.394 . S
C514 C515 1.369 . S
C514 C518 1.531 . S
C515 C514 1.369 . S
C515 C516 1.410 . S
C515 C523 1.503 . S
C516 C515 1.410 . S
C516 C517 1.392 . S
C516 C519 1.511 . S
C517 C513 1.376 . S
C517 C516 1.392 . S
C517 H529 0.929 . S
C518 C514 1.531 . S
C518 H530 0.960 . S
C518 H531 0.962 . S
C518 H532 0.960 . S
C519 C516 1.511 . S
C519 H533 0.961 . S
C519 H534 0.961 . S
C519 H535 0.961 . S
C520 C521 1.370 . S
C520 C522 1.363 . S
C520 H536 0.931 . S
C521 C520 1.370 . S
C521 C525 1.408 . S
C522 C520 1.363 . S
C522 C523 1.370 . S
C522 C526 1.524 . S
C523 C515 1.503 . S
C523 C522 1.370 . S
C523 C524 1.403 . S
C524 C523 1.403 . S
C524 C525 1.404 . S
C524 C527 1.539 . S
C525 C521 1.408 . S
C525 C524 1.404 . S
C525 H537 0.930 . S
C526 C522 1.524 . S
C526 H538 0.956 . S
C526 H539 0.961 . S
C526 H540 0.961 . S
C527 C524 1.539 . S
C527 H541 0.958 . S
C527 H542 0.961 . S
C527 H543 0.960 . S
H528 C512 0.931 . S
H529 C517 0.929 . S
H530 C518 0.960 . S
H531 C518 0.962 . S
H532 C518 0.960 . S
H533 C519 0.961 . S
H534 C519 0.961 . S
H535 C519 0.961 . S
H536 C520 0.931 . S
H537 C525 0.930 . S
H538 C526 0.956 . S
H539 C526 0.961 . S
H540 C526 0.961 . S
H541 C527 0.958 . S
H542 C527 0.961 . S
H543 C527 0.960 . S
C544 C545 1.391 . S
C544 C546 1.394 . S
C544 H560 0.931 . S
C545 C544 1.391 . S
C545 C549 1.376 . S
C546 C544 1.394 . S
C546 C547 1.369 . S
C546 C550 1.531 . S
C547 C546 1.369 . S
C547 C548 1.410 . S
C547 C555 1.503 . S
C548 C547 1.410 . S
C548 C549 1.392 . S
C548 C551 1.511 . S
C549 C545 1.376 . S
C549 C548 1.392 . S
C549 H561 0.929 . S
C550 C546 1.531 . S
C550 H562 0.960 . S
C550 H563 0.962 . S
C550 H564 0.960 . S
C551 C548 1.511 . S
C551 H565 0.961 . S
C551 H566 0.961 . S
C551 H567 0.961 . S
C552 C553 1.370 . S
C552 C554 1.363 . S
C552 H568 0.931 . S
C553 C552 1.370 . S
C553 C557 1.408 . S
C554 C552 1.363 . S
C554 C555 1.370 . S
C554 C558 1.524 . S
C555 C547 1.503 . S
C555 C554 1.370 . S
C555 C556 1.403 . S
C556 C555 1.403 . S
C556 C557 1.404 . S
C556 C559 1.539 . S
C557 C553 1.408 . S
C557 C556 1.404 . S
C557 H569 0.930 . S
C558 C554 1.524 . S
C558 H570 0.956 . S
C558 H571 0.961 . S
C558 H572 0.961 . S
C559 C556 1.539 . S
C559 H573 0.958 . S
C559 H574 0.961 . S
C559 H575 0.960 . S
H560 C544 0.931 . S
H561 C549 0.929 . S
H562 C550 0.960 . S
H563 C550 0.962 . S
H564 C550 0.960 . S
H565 C551 0.961 . S
H566 C551 0.961 . S
H567 C551 0.961 . S
H568 C552 0.931 . S
H569 C557 0.930 . S
H570 C558 0.956 . S
H571 C558 0.961 . S
H572 C558 0.961 . S
H573 C559 0.958 . S
H574 C559 0.961 . S
H575 C559 0.960 . S
C576 C577 1.391 . S
C576 C578 1.394 . S
C576 H592 0.931 . S
C577 C576 1.391 . S
C577 C581 1.376 . S
C578 C576 1.394 . S
C578 C579 1.369 . S
C578 C582 1.531 . S
C579 C578 1.369 . S
C579 C580 1.410 . S
C579 C587 1.503 . S
C580 C579 1.410 . S
C580 C581 1.392 . S
C580 C583 1.511 . S
C581 C577 1.376 . S
C581 C580 1.392 . S
C581 H593 0.929 . S
C582 C578 1.531 . S
C582 H594 0.960 . S
C582 H595 0.962 . S
C582 H596 0.960 . S
C583 C580 1.511 . S
C583 H597 0.961 . S
C583 H598 0.961 . S
C583 H599 0.961 . S
C584 C585 1.370 . S
C584 C586 1.363 . S
C584 H600 0.931 . S
C585 C584 1.370 . S
C585 C589 1.408 . S
C586 C584 1.363 . S
C586 C587 1.370 . S
C586 C590 1.524 . S
C587 C579 1.503 . S
C587 C586 1.370 . S
C587 C588 1.403 . S
C588 C587 1.403 . S
C588 C589 1.404 . S
C588 C591 1.539 . S
C589 C585 1.408 . S
C589 C588 1.404 . S
C589 H601 0.930 . S
C590 C586 1.524 . S
C590 H602 0.956 . S
C590 H603 0.961 . S
C590 H604 0.961 . S
C591 C588 1.539 . S
C591 H605 0.958 . S
C591 H606 0.961 . S
C591 H607 0.960 . S
H592 C576 0.931 . S
H593 C581 0.929 . S
H594 C582 0.960 . S
H595 C582 0.962 . S
H596 C582 0.960 . S
H597 C583 0.961 . S
H598 C583 0.961 . S
H599 C583 0.961 . S
H600 C584 0.931 . S
H601 C589 0.930 . S
H602 C590 0.956 . S
H603 C590 0.961 . S
H604 C590 0.961 . S
H605 C591 0.958 . S
H606 C591 0.961 . S
H607 C591 0.960 . S
C353 C29 0.866 . S
C361 C233 0.852 . S
C385 C108 0.847 . S
C393 C321 0.854 . S
C417 C49 0.843 . S
C425 C196 0.857 . S
C449 C145 0.884 . S
C457 C284 0.863 . S
C481 C137 1.635 . S
C489 C20 1.653 . S
C513 C117 1.665 . S
C521 C225 1.635 . S
C545 C313 1.656 . S
C553 C205 1.647 . S
C577 C293 1.665 . S
C585 C57 1.648 . S
