# Generated by pormake.
# Topology zni, (4)-cn, num edge types: 1
# Building blocks:
#     Node 0, Type 0, BuildingBlock: KUFVIS_clean_sbu_0, # of connection points: 4
#     Node 1, Type 0, BuildingBlock: KUFVIS_clean_sbu_0, # of connection points: 4
#     Node 2, Type 0, BuildingBlock: KUFVIS_clean_sbu_0, # of connection points: 4
#     Node 3, Type 0, BuildingBlock: KUFVIS_clean_sbu_0, # of connection points: 4
#     Node 4, Type 0, BuildingBlock: KUFVIS_clean_sbu_0, # of connection points: 4
#     Node 5, Type 0, BuildingBlock: KUFVIS_clean_sbu_0, # of connection points: 4
#     Node 6, Type 0, BuildingBlock: KUFVIS_clean_sbu_0, # of connection points: 4
#     Node 7, Type 0, BuildingBlock: KUFVIS_clean_sbu_0, # of connection points: 4
#     Node 8, Type 0, BuildingBlock: KUFVIS_clean_sbu_0, # of connection points: 4
#     Node 9, Type 0, BuildingBlock: KUFVIS_clean_sbu_0, # of connection points: 4
#     Node 10, Type 0, BuildingBlock: KUFVIS_clean_sbu_0, # of connection points: 4
#     Node 11, Type 0, BuildingBlock: KUFVIS_clean_sbu_0, # of connection points: 4
#     Node 12, Type 0, BuildingBlock: KUFVIS_clean_sbu_0, # of connection points: 4
#     Node 13, Type 0, BuildingBlock: KUFVIS_clean_sbu_0, # of connection points: 4
#     Node 14, Type 0, BuildingBlock: KUFVIS_clean_sbu_0, # of connection points: 4
#     Node 15, Type 0, BuildingBlock: KUFVIS_clean_sbu_0, # of connection points: 4
#     Node 16, Type 0, BuildingBlock: KUFVIS_clean_sbu_0, # of connection points: 4
#     Node 17, Type 0, BuildingBlock: KUFVIS_clean_sbu_0, # of connection points: 4
#     Node 18, Type 0, BuildingBlock: KUFVIS_clean_sbu_0, # of connection points: 4
#     Node 19, Type 0, BuildingBlock: KUFVIS_clean_sbu_0, # of connection points: 4
#     Node 20, Type 0, BuildingBlock: KUFVIS_clean_sbu_0, # of connection points: 4
#     Node 21, Type 0, BuildingBlock: KUFVIS_clean_sbu_0, # of connection points: 4
#     Node 22, Type 0, BuildingBlock: KUFVIS_clean_sbu_0, # of connection points: 4
#     Node 23, Type 0, BuildingBlock: KUFVIS_clean_sbu_0, # of connection points: 4
#     Node 24, Type 0, BuildingBlock: KUFVIS_clean_sbu_0, # of connection points: 4
#     Node 25, Type 0, BuildingBlock: KUFVIS_clean_sbu_0, # of connection points: 4
#     Node 26, Type 0, BuildingBlock: KUFVIS_clean_sbu_0, # of connection points: 4
#     Node 27, Type 0, BuildingBlock: KUFVIS_clean_sbu_0, # of connection points: 4
#     Node 28, Type 0, BuildingBlock: KUFVIS_clean_sbu_0, # of connection points: 4
#     Node 29, Type 0, BuildingBlock: KUFVIS_clean_sbu_0, # of connection points: 4
#     Node 30, Type 0, BuildingBlock: KUFVIS_clean_sbu_0, # of connection points: 4
#     Node 31, Type 0, BuildingBlock: KUFVIS_clean_sbu_0, # of connection points: 4
#     Edge 32, Type (0, 0), BuildingBlock: ZUJKAS_clean_linker_0, # of connection points: 2
#     Edge 33, Type (0, 0), BuildingBlock: ZUJKAS_clean_linker_0, # of connection points: 2
#     Edge 34, Type (0, 0), BuildingBlock: ZUJKAS_clean_linker_0, # of connection points: 2
#     Edge 35, Type (0, 0), BuildingBlock: ZUJKAS_clean_linker_0, # of connection points: 2
#     Edge 36, Type (0, 0), BuildingBlock: ZUJKAS_clean_linker_0, # of connection points: 2
#     Edge 37, Type (0, 0), BuildingBlock: ZUJKAS_clean_linker_0, # of connection points: 2
#     Edge 38, Type (0, 0), BuildingBlock: ZUJKAS_clean_linker_0, # of connection points: 2
#     Edge 39, Type (0, 0), BuildingBlock: ZUJKAS_clean_linker_0, # of connection points: 2
#     Edge 40, Type (0, 0), BuildingBlock: ZUJKAS_clean_linker_0, # of connection points: 2
#     Edge 41, Type (0, 0), BuildingBlock: ZUJKAS_clean_linker_0, # of connection points: 2
#     Edge 42, Type (0, 0), BuildingBlock: ZUJKAS_clean_linker_0, # of connection points: 2
#     Edge 43, Type (0, 0), BuildingBlock: ZUJKAS_clean_linker_0, # of connection points: 2
#     Edge 44, Type (0, 0), BuildingBlock: ZUJKAS_clean_linker_0, # of connection points: 2
#     Edge 45, Type (0, 0), BuildingBlock: ZUJKAS_clean_linker_0, # of connection points: 2
#     Edge 46, Type (0, 0), BuildingBlock: ZUJKAS_clean_linker_0, # of connection points: 2
#     Edge 47, Type (0, 0), BuildingBlock: ZUJKAS_clean_linker_0, # of connection points: 2
#     Edge 48, Type (0, 0), BuildingBlock: ZUJKAS_clean_linker_0, # of connection points: 2
#     Edge 49, Type (0, 0), BuildingBlock: ZUJKAS_clean_linker_0, # of connection points: 2
#     Edge 50, Type (0, 0), BuildingBlock: ZUJKAS_clean_linker_0, # of connection points: 2
#     Edge 51, Type (0, 0), BuildingBlock: ZUJKAS_clean_linker_0, # of connection points: 2
#     Edge 52, Type (0, 0), BuildingBlock: ZUJKAS_clean_linker_0, # of connection points: 2
#     Edge 53, Type (0, 0), BuildingBlock: ZUJKAS_clean_linker_0, # of connection points: 2
#     Edge 54, Type (0, 0), BuildingBlock: ZUJKAS_clean_linker_0, # of connection points: 2
#     Edge 55, Type (0, 0), BuildingBlock: ZUJKAS_clean_linker_0, # of connection points: 2
#     Edge 56, Type (0, 0), BuildingBlock: ZUJKAS_clean_linker_0, # of connection points: 2
#     Edge 57, Type (0, 0), BuildingBlock: ZUJKAS_clean_linker_0, # of connection points: 2
#     Edge 58, Type (0, 0), BuildingBlock: ZUJKAS_clean_linker_0, # of connection points: 2
#     Edge 59, Type (0, 0), BuildingBlock: ZUJKAS_clean_linker_0, # of connection points: 2
#     Edge 60, Type (0, 0), BuildingBlock: ZUJKAS_clean_linker_0, # of connection points: 2
#     Edge 61, Type (0, 0), BuildingBlock: ZUJKAS_clean_linker_0, # of connection points: 2
#     Edge 62, Type (0, 0), BuildingBlock: ZUJKAS_clean_linker_0, # of connection points: 2
#     Edge 63, Type (0, 0), BuildingBlock: ZUJKAS_clean_linker_0, # of connection points: 2
#     Edge 64, Type (0, 0), BuildingBlock: ZUJKAS_clean_linker_0, # of connection points: 2
#     Edge 65, Type (0, 0), BuildingBlock: ZUJKAS_clean_linker_0, # of connection points: 2
#     Edge 66, Type (0, 0), BuildingBlock: ZUJKAS_clean_linker_0, # of connection points: 2
#     Edge 67, Type (0, 0), BuildingBlock: ZUJKAS_clean_linker_0, # of connection points: 2
#     Edge 68, Type (0, 0), BuildingBlock: ZUJKAS_clean_linker_0, # of connection points: 2
#     Edge 69, Type (0, 0), BuildingBlock: ZUJKAS_clean_linker_0, # of connection points: 2
#     Edge 70, Type (0, 0), BuildingBlock: ZUJKAS_clean_linker_0, # of connection points: 2
#     Edge 71, Type (0, 0), BuildingBlock: ZUJKAS_clean_linker_0, # of connection points: 2
#     Edge 72, Type (0, 0), BuildingBlock: ZUJKAS_clean_linker_0, # of connection points: 2
#     Edge 73, Type (0, 0), BuildingBlock: ZUJKAS_clean_linker_0, # of connection points: 2
#     Edge 74, Type (0, 0), BuildingBlock: ZUJKAS_clean_linker_0, # of connection points: 2
#     Edge 75, Type (0, 0), BuildingBlock: ZUJKAS_clean_linker_0, # of connection points: 2
#     Edge 76, Type (0, 0), BuildingBlock: ZUJKAS_clean_linker_0, # of connection points: 2
#     Edge 77, Type (0, 0), BuildingBlock: ZUJKAS_clean_linker_0, # of connection points: 2
#     Edge 78, Type (0, 0), BuildingBlock: ZUJKAS_clean_linker_0, # of connection points: 2
#     Edge 79, Type (0, 0), BuildingBlock: ZUJKAS_clean_linker_0, # of connection points: 2
#     Edge 80, Type (0, 0), BuildingBlock: ZUJKAS_clean_linker_0, # of connection points: 2
#     Edge 81, Type (0, 0), BuildingBlock: ZUJKAS_clean_linker_0, # of connection points: 2
#     Edge 82, Type (0, 0), BuildingBlock: ZUJKAS_clean_linker_0, # of connection points: 2
#     Edge 83, Type (0, 0), BuildingBlock: ZUJKAS_clean_linker_0, # of connection points: 2
#     Edge 84, Type (0, 0), BuildingBlock: ZUJKAS_clean_linker_0, # of connection points: 2
#     Edge 85, Type (0, 0), BuildingBlock: ZUJKAS_clean_linker_0, # of connection points: 2
#     Edge 86, Type (0, 0), BuildingBlock: ZUJKAS_clean_linker_0, # of connection points: 2
#     Edge 87, Type (0, 0), BuildingBlock: ZUJKAS_clean_linker_0, # of connection points: 2
#     Edge 88, Type (0, 0), BuildingBlock: ZUJKAS_clean_linker_0, # of connection points: 2
#     Edge 89, Type (0, 0), BuildingBlock: ZUJKAS_clean_linker_0, # of connection points: 2
#     Edge 90, Type (0, 0), BuildingBlock: ZUJKAS_clean_linker_0, # of connection points: 2
#     Edge 91, Type (0, 0), BuildingBlock: ZUJKAS_clean_linker_0, # of connection points: 2
#     Edge 92, Type (0, 0), BuildingBlock: ZUJKAS_clean_linker_0, # of connection points: 2
#     Edge 93, Type (0, 0), BuildingBlock: ZUJKAS_clean_linker_0, # of connection points: 2
#     Edge 94, Type (0, 0), BuildingBlock: ZUJKAS_clean_linker_0, # of connection points: 2
#     Edge 95, Type (0, 0), BuildingBlock: ZUJKAS_clean_linker_0, # of connection points: 2
# Relax obj value: 0.220
# Max RMSD: 0.100
# Mean RMSD: 0.100
data_MOF--net-zni--node1-KUFVIS_clean_sbu_0--edge1-ZUJKAS_clean_linker_0
_symmetry_space_group_name_H-M    P1
_symmetry_Int_Tables_number       1
_symmetry_cell_setting            triclinic
loop_
_symmetry_equiv_pos_as_xyz
'x, y, z'
_cell_length_a     74.462839
_cell_length_b     74.463249
_cell_length_c     38.18907
_cell_angle_alpha  89.983385
_cell_angle_beta   90.00184
_cell_angle_gamma 89.994
loop_
_atom_site_label
_atom_site_type_symbol
_atom_site_fract_x
_atom_site_fract_y
_atom_site_fract_z
_atom_type_partial_charge
Mn0 Mn 0.10747 0.09766 0.43183 0.0
Mn1 Mn 0.08634 0.0649 0.47713 0.0
C2 C 0.12156 0.08409 0.47849 0.0
C3 C 0.11349 0.12781 0.42123 0.0
C4 C 0.10389 0.0588 0.40681 0.0
O5 O 0.08138 0.10067 0.41714 0.0
O6 O 0.06849 0.07885 0.44951 0.0
C7 C 0.06584 0.08805 0.52582 0.0
N8 N 0.07785 0.07454 0.52044 0.0
C9 C 0.08127 0.06985 0.58242 0.0
C10 C 0.06884 0.08362 0.58864 0.0
C11 C 0.06113 0.0928 0.56021 0.0
C12 C 0.08542 0.06569 0.54759 0.0
H13 H 0.05991 0.09515 0.50404 0.0
C14 C 0.06771 0.09184 0.42755 0.0
O15 O 0.11541 0.11576 0.39697 0.0
O16 O 0.1078 0.12237 0.45156 0.0
N17 N 0.10188 0.05038 0.50528 0.0
C18 C 0.11435 0.03811 0.49483 0.0
C19 C 0.12372 0.02813 0.52014 0.0
C20 C 0.12003 0.03073 0.55586 0.0
C21 C 0.10698 0.04328 0.56595 0.0
C22 C 0.09806 0.0528 0.53956 0.0
H23 H 0.11721 0.03603 0.4674 0.0
O24 O 0.13091 0.09239 0.4548 0.0
O25 O 0.10421 0.08426 0.47448 0.0
O26 O 0.10962 0.07479 0.40266 0.0
O27 O 0.09488 0.05366 0.43343 0.0
C28 C 0.10264 0.04688 0.60116 0.0
C29 C 0.08989 0.06023 0.60941 0.0
H30 H 0.06521 0.08736 0.61512 0.0
H31 H 0.05159 0.10351 0.5648 0.0
H32 H 0.13378 0.01848 0.51215 0.0
H33 H 0.12737 0.02309 0.57532 0.0
H34 H 0.10918 0.03959 0.62214 0.0
H35 H 0.08689 0.06308 0.6366 0.0
Mn36 Mn 0.15269 0.84914 0.65678 0.0
Mn37 Mn 0.18736 0.83188 0.7026 0.0
C38 C 0.16363 0.86443 0.70477 0.0
C39 C 0.12207 0.852 0.64631 0.0
C40 C 0.19141 0.84924 0.63127 0.0
O41 O 0.15279 0.8229 0.64244 0.0
O42 O 0.17504 0.81215 0.67671 0.0
C43 C 0.16832 0.80885 0.75372 0.0
N44 N 0.17973 0.82271 0.74689 0.0
C45 C 0.18487 0.82763 0.80837 0.0
C46 C 0.17322 0.81336 0.81605 0.0
C47 C 0.16491 0.80394 0.7886 0.0
C48 C 0.18799 0.83172 0.77309 0.0
H49 H 0.16184 0.80163 0.73271 0.0
C50 C 0.16238 0.81003 0.65423 0.0
O51 O 0.13377 0.85492 0.62175 0.0
O52 O 0.12812 0.84689 0.67657 0.0
N53 N 0.19989 0.84974 0.72904 0.0
C54 C 0.20928 0.86424 0.71725 0.0
C55 C 0.21761 0.87572 0.74146 0.0
C56 C 0.21618 0.8722 0.77749 0.0
C57 C 0.2064 0.85723 0.789 0.0
C58 C 0.19852 0.84617 0.76364 0.0
H59 H 0.21029 0.86708 0.68959 0.0
O60 O 0.15515 0.87291 0.68005 0.0
O61 O 0.16591 0.84726 0.69993 0.0
O62 O 0.17508 0.85384 0.62743 0.0
O63 O 0.19722 0.84082 0.65802 0.0
C64 C 0.20377 0.85311 0.82465 0.0
C65 C 0.19304 0.8383 0.83432 0.0
H66 H 0.17038 0.80968 0.84292 0.0
H67 H 0.15584 0.79298 0.79433 0.0
H68 H 0.22504 0.88731 0.73239 0.0
H69 H 0.22249 0.88118 0.7961 0.0
H70 H 0.20971 0.86142 0.84485 0.0
H71 H 0.19086 0.83547 0.86182 0.0
Mn72 Mn 0.39898 0.89861 0.90437 0.0
Mn73 Mn 0.41722 0.93211 0.95209 0.0
C74 C 0.38314 0.91116 0.95001 0.0
C75 C 0.39466 0.86822 0.89308 0.0
C76 C 0.40156 0.93768 0.87986 0.0
O77 O 0.42548 0.8968 0.89259 0.0
O78 O 0.43648 0.91922 0.92607 0.0
C79 C 0.43772 0.90993 0.00251 0.0
N80 N 0.4251 0.92275 0.99608 0.0
C81 C 0.4198 0.92695 0.0577 0.0
C82 C 0.43283 0.91387 0.065 0.0
C83 C 0.44178 0.90529 0.03727 0.0
C84 C 0.41635 0.93104 0.02255 0.0
H85 H 0.44461 0.90328 0.98128 0.0
C86 C 0.43843 0.90627 0.90427 0.0
O87 O 0.39291 0.88021 0.86863 0.0
O88 O 0.39914 0.87388 0.92401 0.0
N89 N 0.40015 0.94558 0.97881 0.0
C90 C 0.38716 0.95703 0.96726 0.0
C91 C 0.37651 0.96624 0.99171 0.0
C92 C 0.37943 0.96373 0.02772 0.0
C93 C 0.39299 0.952 0.03896 0.0
C94 C 0.4032 0.9432 0.0134 0.0
H95 H 0.38489 0.95902 0.9396 0.0
O96 O 0.37474 0.90279 0.9251 0.0
O97 O 0.40053 0.91188 0.9474 0.0
O98 O 0.39684 0.92142 0.87495 0.0
O99 O 0.40925 0.94314 0.90778 0.0
C100 C 0.39661 0.94849 0.07453 0.0
C101 C 0.40993 0.9359 0.08389 0.0
H102 H 0.43596 0.91021 0.09176 0.0
H103 H 0.45179 0.89512 0.04269 0.0
H104 H 0.36605 0.97525 0.98282 0.0
H105 H 0.37112 0.97078 0.0465 0.0
H106 H 0.38909 0.95526 0.09489 0.0
H107 H 0.41235 0.93308 0.11132 0.0
Mn108 Mn 0.3543 0.14884 0.15946 0.0
Mn109 Mn 0.32173 0.16749 0.20913 0.0
C110 C 0.34187 0.13298 0.20529 0.0
C111 C 0.38443 0.14378 0.14647 0.0
C112 C 0.31486 0.15214 0.13722 0.0
O113 O 0.35669 0.17535 0.14828 0.0
O114 O 0.33446 0.18648 0.18204 0.0
C115 C 0.34518 0.18777 0.25766 0.0
N116 N 0.332 0.17539 0.25231 0.0
C117 C 0.32854 0.1707 0.31429 0.0
C118 C 0.34199 0.18348 0.32047 0.0
C119 C 0.35039 0.192 0.29202 0.0
C120 C 0.32392 0.16702 0.27948 0.0
H121 H 0.35167 0.19436 0.23588 0.0
C122 C 0.34735 0.18836 0.16009 0.0
O123 O 0.37206 0.14254 0.12262 0.0
O124 O 0.37929 0.14816 0.17781 0.0
N125 N 0.30841 0.15082 0.23706 0.0
C126 C 0.29645 0.13806 0.22655 0.0
C127 C 0.2873 0.12786 0.25183 0.0
C128 C 0.29037 0.13104 0.28759 0.0
C129 C 0.30259 0.14438 0.29776 0.0
C130 C 0.31133 0.15409 0.2714 0.0
H131 H 0.294 0.13561 0.19909 0.0
O132 O 0.34972 0.12456 0.17976 0.0
O133 O 0.34158 0.15041 0.20324 0.0
O134 O 0.33105 0.14756 0.13106 0.0
O135 O 0.30981 0.15949 0.16577 0.0
C136 C 0.30661 0.14827 0.33301 0.0
C137 C 0.31967 0.16132 0.34127 0.0
H138 H 0.34607 0.18677 0.34694 0.0
H139 H 0.36084 0.20183 0.29658 0.0
H140 H 0.2779 0.11758 0.24377 0.0
H141 H 0.28334 0.12309 0.30701 0.0
H142 H 0.29986 0.14118 0.35399 0.0
H143 H 0.32286 0.16396 0.36845 0.0
Mn144 Mn 0.09339 0.89984 0.09484 0.0
Mn145 Mn 0.07355 0.93483 0.05377 0.0
C146 C 0.10584 0.9111 0.04418 0.0
C147 C 0.09676 0.86926 0.10551 0.0
C148 C 0.09526 0.93858 0.12033 0.0
O149 O 0.06818 0.89988 0.11498 0.0
O150 O 0.05557 0.92248 0.08406 0.0
C151 C 0.04764 0.91577 0.00826 0.0
N152 N 0.06162 0.9274 0.01194 0.0
C153 C 0.06205 0.93348 0.95005 0.0
C154 C 0.04758 0.92165 0.94562 0.0
C155 C 0.04036 0.91274 0.97486 0.0
C156 C 0.06855 0.93619 0.98404 0.0
H157 H 0.0421 0.90885 0.03065 0.0
C158 C 0.05479 0.90966 0.10648 0.0
O159 O 0.1013 0.88122 0.12856 0.0
O160 O 0.08988 0.87505 0.07636 0.0
N161 N 0.08948 0.94764 0.02341 0.0
C162 C 0.10465 0.95694 0.03167 0.0
C163 C 0.11427 0.96568 0.00503 0.0
C164 C 0.10817 0.96482 0.97027 0.0
C165 C 0.09251 0.95516 0.96243 0.0
C166 C 0.0834 0.94683 0.99009 0.0
H167 H 0.10945 0.95754 0.05832 0.0
O168 O 0.11561 0.90225 0.06646 0.0
O169 O 0.08898 0.91328 0.05243 0.0
O170 O 0.09991 0.92221 0.12289 0.0
O171 O 0.08526 0.94454 0.0959 0.0
C172 C 0.0859 0.95301 0.92811 0.0
C173 C 0.07066 0.94221 0.92193 0.0
H174 H 0.04207 0.9191 0.91985 0.0
H175 H 0.02926 0.90351 0.97161 0.0
H176 H 0.12641 0.97301 0.01126 0.0
H177 H 0.11574 0.97142 0.94974 0.0
H178 H 0.09266 0.95931 0.90619 0.0
H179 H 0.06593 0.94036 0.89535 0.0
Mn180 Mn 0.35613 0.85427 0.32894 0.0
Mn181 Mn 0.32466 0.83412 0.27889 0.0
C182 C 0.34456 0.86903 0.28101 0.0
C183 C 0.38609 0.85909 0.34356 0.0
C184 C 0.31666 0.85098 0.34931 0.0
O185 O 0.35778 0.82806 0.34349 0.0
O186 O 0.33787 0.81562 0.30629 0.0
C187 C 0.34867 0.81426 0.23078 0.0
N188 N 0.33518 0.82633 0.23587 0.0
C189 C 0.33166 0.83067 0.17382 0.0
C190 C 0.34544 0.8182 0.16788 0.0
C191 C 0.35402 0.81001 0.1965 0.0
C192 C 0.3269 0.83436 0.20854 0.0
H193 H 0.35529 0.80793 0.25271 0.0
C194 C 0.34972 0.81447 0.33053 0.0
O195 O 0.37331 0.86131 0.36629 0.0
O196 O 0.38146 0.8539 0.31239 0.0
N197 N 0.31096 0.85035 0.25067 0.0
C198 C 0.2987 0.86287 0.26094 0.0
C199 C 0.28934 0.87276 0.23547 0.0
C200 C 0.29253 0.86952 0.19976 0.0
C201 C 0.30507 0.85643 0.18984 0.0
C202 C 0.314 0.84702 0.21638 0.0
H203 H 0.29615 0.86536 0.28834 0.0
O204 O 0.35238 0.87799 0.30586 0.0
O205 O 0.34412 0.85166 0.28462 0.0
O206 O 0.33241 0.85695 0.3551 0.0
O207 O 0.3124 0.8419 0.32219 0.0
C208 C 0.30924 0.85252 0.15467 0.0
C209 C 0.32261 0.83975 0.14666 0.0
H210 H 0.34963 0.81492 0.14149 0.0
H211 H 0.36472 0.80043 0.19214 0.0
H212 H 0.27969 0.88285 0.24334 0.0
H213 H 0.28535 0.87723 0.1802 0.0
H214 H 0.30238 0.8594 0.13357 0.0
H215 H 0.32592 0.8371 0.11953 0.0
Mn216 Mn 0.39908 0.1053 0.58136 0.0
Mn217 Mn 0.41803 0.07384 0.52944 0.0
C218 C 0.38334 0.09383 0.53444 0.0
C219 C 0.39431 0.13521 0.59647 0.0
C220 C 0.40234 0.06554 0.60074 0.0
O221 O 0.42555 0.10706 0.59377 0.0
O222 O 0.43694 0.08645 0.55682 0.0
C223 C 0.43783 0.0982 0.48187 0.0
N224 N 0.42565 0.08479 0.4867 0.0
C225 C 0.42097 0.08194 0.42461 0.0
C226 C 0.43354 0.09565 0.41895 0.0
C227 C 0.44196 0.10386 0.44773 0.0
C228 C 0.41738 0.07689 0.45923 0.0
H229 H 0.44435 0.10453 0.50391 0.0
C230 C 0.43873 0.09849 0.58054 0.0
O231 O 0.39271 0.1224 0.61934 0.0
O232 O 0.39889 0.13064 0.56491 0.0
N233 N 0.40145 0.06067 0.50105 0.0
C234 C 0.38893 0.04835 0.51109 0.0
C235 C 0.37887 0.03931 0.48546 0.0
C236 C 0.38197 0.04283 0.44982 0.0
C237 C 0.39508 0.05539 0.44013 0.0
C238 C 0.40465 0.06402 0.46682 0.0
H239 H 0.38658 0.04552 0.53845 0.0
O240 O 0.37489 0.10144 0.56019 0.0
O241 O 0.40077 0.09342 0.53665 0.0
O242 O 0.39724 0.08149 0.60768 0.0
O243 O 0.41032 0.06122 0.57235 0.0
C244 C 0.39891 0.05984 0.40504 0.0
C245 C 0.41173 0.0732 0.3973 0.0
H246 H 0.43675 0.10006 0.39266 0.0
H247 H 0.45162 0.11451 0.44358 0.0
H248 H 0.36877 0.02963 0.49315 0.0
H249 H 0.37414 0.03588 0.43014 0.0
H250 H 0.39195 0.05318 0.3838 0.0
H251 H 0.41432 0.07672 0.37024 0.0
Mn252 Mn 0.14368 0.1444 0.84282 0.0
Mn253 Mn 0.17542 0.1619 0.7898 0.0
C254 C 0.15688 0.12676 0.80046 0.0
C255 C 0.11351 0.13947 0.85525 0.0
C256 C 0.18261 0.15064 0.8648 0.0
O257 O 0.14063 0.17122 0.84957 0.0
O258 O 0.16114 0.18166 0.81131 0.0
C259 C 0.15152 0.17746 0.73575 0.0
N260 N 0.16531 0.16634 0.74461 0.0
C261 C 0.16985 0.1579 0.68445 0.0
C262 C 0.15578 0.16936 0.67465 0.0
C263 C 0.14654 0.17913 0.70043 0.0
C264 C 0.17423 0.15679 0.72004 0.0
H265 H 0.14437 0.18499 0.75548 0.0
C266 C 0.14856 0.18405 0.83376 0.0
O267 O 0.12554 0.1394 0.8799 0.0
O268 O 0.11904 0.14249 0.8236 0.0
N269 N 0.19003 0.14437 0.76673 0.0
C270 C 0.20245 0.13301 0.78076 0.0
C271 C 0.21245 0.12178 0.75856 0.0
C272 C 0.20971 0.12247 0.72219 0.0
C273 C 0.19695 0.13436 0.70834 0.0
C274 C 0.18739 0.14522 0.73174 0.0
H275 H 0.20463 0.13245 0.80869 0.0
O276 O 0.14895 0.11939 0.8271 0.0
O277 O 0.15657 0.14421 0.79923 0.0
O278 O 0.16681 0.145 0.87154 0.0
O279 O 0.18717 0.15738 0.83533 0.0
C280 C 0.19319 0.13571 0.67227 0.0
C281 C 0.17956 0.14736 0.66035 0.0
H282 H 0.15187 0.17065 0.64744 0.0
H283 H 0.13561 0.18794 0.6931 0.0
H284 H 0.22224 0.11261 0.76946 0.0
H285 H 0.21738 0.11372 0.70517 0.0
H286 H 0.20056 0.1277 0.65347 0.0
H287 H 0.17656 0.14801 0.63263 0.0
Mn288 Mn 0.89989 0.89961 0.5848 0.0
Mn289 Mn 0.91877 0.93432 0.54145 0.0
C290 C 0.88403 0.91426 0.54157 0.0
C291 C 0.89504 0.86901 0.5928 0.0
C292 C 0.90336 0.93771 0.61432 0.0
O293 O 0.92633 0.89661 0.5955 0.0
O294 O 0.93779 0.92008 0.56562 0.0
C295 C 0.93887 0.9135 0.48828 0.0
N296 N 0.92656 0.92637 0.49637 0.0
C297 C 0.92201 0.93338 0.43551 0.0
C298 C 0.93473 0.92027 0.42652 0.0
C299 C 0.94314 0.91025 0.45303 0.0
C300 C 0.9183 0.93601 0.47107 0.0
H301 H 0.94539 0.90578 0.50857 0.0
C302 C 0.93949 0.90616 0.58512 0.0
O303 O 0.89361 0.88033 0.61848 0.0
O304 O 0.89928 0.87548 0.56231 0.0
N305 N 0.90212 0.94913 0.5165 0.0
C306 C 0.88928 0.96036 0.52943 0.0
C307 C 0.87909 0.97085 0.50621 0.0
C308 C 0.88236 0.96987 0.47003 0.0
C309 C 0.89574 0.95832 0.45738 0.0
C310 C 0.90541 0.94813 0.48174 0.0
H311 H 0.88677 0.96121 0.55723 0.0
O312 O 0.87568 0.90516 0.5656 0.0
O313 O 0.90149 0.91438 0.54336 0.0
O314 O 0.89856 0.92136 0.61726 0.0
O315 O 0.91094 0.94404 0.58701 0.0
C316 C 0.89972 0.95635 0.42152 0.0
C317 C 0.91274 0.94379 0.41056 0.0
H318 H 0.93805 0.91771 0.39936 0.0
H319 H 0.95291 0.90005 0.4463 0.0
H320 H 0.86877 0.97971 0.51618 0.0
H321 H 0.87445 0.97796 0.4522 0.0
H322 H 0.89267 0.96426 0.40209 0.0
H323 H 0.91542 0.94216 0.38287 0.0
Mn324 Mn 0.85529 0.1458 0.33449 0.0
Mn325 Mn 0.82366 0.16684 0.28615 0.0
C326 C 0.84097 0.13062 0.2899 0.0
C327 C 0.88531 0.1393 0.34568 0.0
C328 C 0.81686 0.15259 0.35922 0.0
O329 O 0.85937 0.17217 0.34567 0.0
O330 O 0.83892 0.18495 0.31012 0.0
C331 C 0.84753 0.18368 0.23358 0.0
N332 N 0.83336 0.17282 0.24133 0.0
C333 C 0.82736 0.16764 0.18027 0.0
C334 C 0.84183 0.17885 0.1716 0.0
C335 C 0.852 0.18684 0.19839 0.0
C336 C 0.82358 0.16495 0.21579 0.0
H337 H 0.85535 0.18988 0.2541 0.0
C338 C 0.8517 0.18592 0.3325 0.0
O339 O 0.87333 0.13873 0.37036 0.0
O340 O 0.87987 0.14368 0.31455 0.0
N341 N 0.80797 0.15105 0.26111 0.0
C342 C 0.79516 0.13976 0.27392 0.0
C343 C 0.78418 0.13022 0.25051 0.0
C344 C 0.78632 0.13258 0.21424 0.0
C345 C 0.79946 0.14442 0.2017 0.0
C346 C 0.81005 0.15351 0.22626 0.0
H347 H 0.79338 0.13801 0.30177 0.0
O348 O 0.84896 0.12179 0.31475 0.0
O349 O 0.84194 0.14804 0.29155 0.0
O350 O 0.83239 0.14581 0.36396 0.0
O351 O 0.81228 0.16098 0.33144 0.0
C352 C 0.8026 0.14745 0.1658 0.0
C353 C 0.81665 0.15892 0.15507 0.0
H354 H 0.84532 0.18132 0.14448 0.0
H355 H 0.86323 0.19545 0.19191 0.0
H356 H 0.77407 0.12109 0.26039 0.0
H357 H 0.77786 0.12516 0.19627 0.0
H358 H 0.79441 0.14088 0.14618 0.0
H359 H 0.81914 0.16085 0.12739 0.0
Mn360 Mn 0.60381 0.09128 0.062 0.0
Mn361 Mn 0.58261 0.05768 0.01962 0.0
C362 C 0.61879 0.07502 0.01975 0.0
C363 C 0.61118 0.12143 0.06814 0.0
C364 C 0.59672 0.05429 0.09363 0.0
O365 O 0.57749 0.0962 0.07212 0.0
O366 O 0.56448 0.07404 0.04093 0.0
C367 C 0.56539 0.07869 0.96301 0.0
N368 N 0.57651 0.06515 0.97326 0.0
C369 C 0.58219 0.05669 0.91347 0.0
C370 C 0.57072 0.07048 0.90227 0.0
C371 C 0.56232 0.08155 0.92716 0.0
C372 C 0.58467 0.05443 0.94954 0.0
H373 H 0.55892 0.08723 0.98206 0.0
C374 C 0.56365 0.08796 0.06066 0.0
O375 O 0.61128 0.11058 0.09476 0.0
O376 O 0.6065 0.11484 0.03803 0.0
N377 N 0.59862 0.04109 0.99749 0.0
C378 C 0.61039 0.0294 0.01252 0.0
C379 C 0.62053 0.01789 0.99114 0.0
C380 C 0.61836 0.01842 0.95461 0.0
C381 C 0.60611 0.03053 0.93978 0.0
C382 C 0.59638 0.04168 0.96238 0.0
H383 H 0.6121 0.02894 0.04059 0.0
O384 O 0.62767 0.08372 0.04359 0.0
O385 O 0.60137 0.07618 0.02139 0.0
O386 O 0.60349 0.06996 0.09543 0.0
O387 O 0.58842 0.04838 0.06675 0.0
C388 C 0.60338 0.03218 0.90342 0.0
C389 C 0.59149 0.0453 0.89026 0.0
H390 H 0.56838 0.07278 0.87464 0.0
H391 H 0.55351 0.09227 0.91872 0.0
H392 H 0.63001 0.00862 0.00279 0.0
H393 H 0.62627 0.00958 0.9382 0.0
H394 H 0.61055 0.02359 0.8853 0.0
H395 H 0.58978 0.04667 0.86222 0.0
Mn396 Mn 0.65257 0.85384 0.82725 0.0
Mn397 Mn 0.68585 0.83355 0.78227 0.0
C398 C 0.66834 0.86967 0.78547 0.0
C399 C 0.62239 0.86058 0.8352 0.0
C400 C 0.69004 0.84663 0.85686 0.0
O401 O 0.64784 0.82742 0.83578 0.0
O402 O 0.66988 0.81499 0.80349 0.0
C403 C 0.66416 0.8169 0.72599 0.0
N404 N 0.67781 0.82793 0.73605 0.0
C405 C 0.68571 0.83403 0.67613 0.0
C406 C 0.67181 0.82265 0.66512 0.0
C407 C 0.66095 0.8141 0.69017 0.0
C408 C 0.68829 0.83628 0.71217 0.0
H409 H 0.6558 0.81028 0.74516 0.0
C410 C 0.65606 0.81381 0.82342 0.0
O411 O 0.63355 0.86047 0.8613 0.0
O412 O 0.62874 0.85672 0.80444 0.0
N413 N 0.70208 0.84987 0.76 0.0
C414 C 0.71397 0.86148 0.77492 0.0
C415 C 0.72532 0.87174 0.7534 0.0
C416 C 0.72446 0.8698 0.71684 0.0
C417 C 0.71218 0.85768 0.70213 0.0
C418 C 0.70117 0.84788 0.72487 0.0
H419 H 0.71472 0.86297 0.80301 0.0
O420 O 0.6598 0.87806 0.8102 0.0
O421 O 0.66728 0.85222 0.78587 0.0
O422 O 0.67424 0.85299 0.85986 0.0
O423 O 0.69574 0.83898 0.82909 0.0
C424 C 0.71026 0.85513 0.66577 0.0
C425 C 0.69696 0.8434 0.65276 0.0
H426 H 0.66927 0.82049 0.63751 0.0
H427 H 0.65015 0.80536 0.68188 0.0
H428 H 0.73472 0.88109 0.76496 0.0
H429 H 0.7332 0.87777 0.70033 0.0
H430 H 0.71877 0.86232 0.64755 0.0
H431 H 0.69538 0.84184 0.62473 0.0
Mn432 Mn 0.88992 0.10115 0.92116 0.0
Mn433 Mn 0.90768 0.06928 0.97373 0.0
C434 C 0.87301 0.08891 0.96582 0.0
C435 C 0.88511 0.13115 0.90672 0.0
C436 C 0.89458 0.06175 0.9002 0.0
O437 O 0.91669 0.10356 0.91226 0.0
O438 O 0.92723 0.08249 0.94926 0.0
C439 C 0.92568 0.09322 0.0247 0.0
N440 N 0.91383 0.07975 0.0178 0.0
C441 C 0.90733 0.07599 0.07907 0.0
C442 C 0.91954 0.08975 0.08686 0.0
C443 C 0.9287 0.09845 0.05953 0.0
C444 C 0.90485 0.07139 0.04386 0.0
H445 H 0.93278 0.09992 0.00378 0.0
C446 C 0.92956 0.09498 0.92661 0.0
O447 O 0.88447 0.11857 0.88321 0.0
O448 O 0.88869 0.1263 0.93862 0.0
N449 N 0.89037 0.05561 -0.00054 0.0
C450 C 0.87823 0.04342 0.98736 0.0
C451 C 0.86748 0.03396 0.01132 0.0
C452 C 0.86951 0.03696 0.04743 0.0
C453 C 0.88222 0.04945 0.05926 0.0
C454 C 0.89249 0.05852 0.03416 0.0
H455 H 0.87669 0.041 0.95965 0.0
O456 O 0.86518 0.09657 0.93937 0.0
O457 O 0.89047 0.08877 0.96538 0.0
O458 O 0.88949 0.07772 0.89346 0.0
O459 O 0.90151 0.05707 0.92941 0.0
C460 C 0.88499 0.0534 0.09494 0.0
C461 C 0.8974 0.06677 0.10483 0.0
H462 H 0.9219 0.09383 0.1137 0.0
H463 H 0.93809 0.10914 0.06532 0.0
H464 H 0.85769 0.02436 0.00199 0.0
H465 H 0.86117 0.02967 0.06582 0.0
H466 H 0.87751 0.04635 0.115 0.0
H467 H 0.89914 0.06992 0.13231 0.0
Mn468 Mn 0.6528 0.14436 0.67142 0.0
Mn469 Mn 0.68568 0.16464 0.71765 0.0
C470 C 0.66801 0.12856 0.71399 0.0
C471 C 0.62256 0.13804 0.66237 0.0
C472 C 0.69058 0.15141 0.64337 0.0
O473 O 0.64835 0.17082 0.66247 0.0
O474 O 0.67003 0.18324 0.69587 0.0
C475 C 0.66355 0.18129 0.77324 0.0
N476 N 0.67727 0.17026 0.76361 0.0
C477 C 0.68478 0.16424 0.82375 0.0
C478 C 0.67079 0.17562 0.83435 0.0
C479 C 0.66009 0.18413 0.80897 0.0
C480 C 0.68759 0.16194 0.78779 0.0
H481 H 0.65532 0.18787 0.75381 0.0
C482 C 0.65649 0.18437 0.67526 0.0
O483 O 0.63405 0.1377 0.63681 0.0
O484 O 0.62866 0.142 0.69326 0.0
N485 N 0.70169 0.14828 0.74039 0.0
C486 C 0.71367 0.13664 0.72582 0.0
C487 C 0.72487 0.12641 0.74767 0.0
C488 C 0.72378 0.1284 0.78419 0.0
C489 C 0.71142 0.14055 0.79854 0.0
C490 C 0.70055 0.15032 0.77548 0.0
H491 H 0.7146 0.13512 0.69776 0.0
O492 O 0.65959 0.12016 0.68913 0.0
O493 O 0.66708 0.14602 0.71338 0.0
O494 O 0.67492 0.14479 0.63972 0.0
O495 O 0.69589 0.15928 0.67118 0.0
C496 C 0.70927 0.14317 0.83483 0.0
C497 C 0.69588 0.15491 0.84744 0.0
H498 H 0.66806 0.17782 0.86187 0.0
H499 H 0.64922 0.19287 0.81693 0.0
H500 H 0.73435 0.11703 0.7364 0.0
H501 H 0.73242 0.12046 0.80097 0.0
H502 H 0.71768 0.13602 0.8533 0.0
H503 H 0.69412 0.15651 0.87542 0.0
Mn504 Mn 0.60511 0.90889 0.43594 0.0
Mn505 Mn 0.58406 0.94237 0.47893 0.0
C506 C 0.62013 0.92475 0.47869 0.0
C507 C 0.6121 0.8787 0.42921 0.0
C508 C 0.59821 0.94605 0.40499 0.0
O509 O 0.57877 0.90426 0.42554 0.0
O510 O 0.56583 0.92624 0.45731 0.0
C511 C 0.56669 0.92123 0.53516 0.0
N512 N 0.57791 0.93473 0.52516 0.0
C513 C 0.58361 0.9429 0.58508 0.0
C514 C 0.57204 0.92915 0.59604 0.0
C515 C 0.56358 0.91823 0.57096 0.0
C516 C 0.58613 0.94529 0.54906 0.0
H517 H 0.56018 0.91281 0.51596 0.0
C518 C 0.56496 0.91248 0.43716 0.0
O519 O 0.61241 0.88969 0.40282 0.0
O520 O 0.60752 0.88519 0.45945 0.0
N521 N 0.60019 0.95873 0.50135 0.0
C522 C 0.61206 0.97039 0.48653 0.0
C523 C 0.62229 0.98173 0.50811 0.0
C524 C 0.62009 0.98106 0.54463 0.0
C525 C 0.60773 0.96899 0.55925 0.0
C526 C 0.59794 0.95801 0.53644 0.0
H527 H 0.61379 0.97095 0.45848 0.0
O528 O 0.629 0.91613 0.4547 0.0
O529 O 0.60271 0.92376 0.47684 0.0
O530 O 0.605 0.9304 0.40293 0.0
O531 O 0.58992 0.95184 0.43197 0.0
C532 C 0.60496 0.96722 0.59557 0.0
C533 C 0.59297 0.95413 0.6085 0.0
H534 H 0.56966 0.92674 0.62363 0.0
H535 H 0.5547 0.90754 0.57921 0.0
H536 H 0.63184 0.99097 0.49663 0.0
H537 H 0.62805 0.98978 0.5612 0.0
H538 H 0.61217 0.97568 0.61384 0.0
H539 H 0.59122 0.95266 0.63651 0.0
Mn540 Mn 0.84333 0.85087 0.1872 0.0
Mn541 Mn 0.80941 0.83109 0.23117 0.0
C542 C 0.82844 0.86635 0.23071 0.0
C543 C 0.87369 0.85702 0.17964 0.0
C544 C 0.80544 0.84588 0.15778 0.0
O545 O 0.847 0.82446 0.17647 0.0
O546 O 0.82432 0.8124 0.20766 0.0
C547 C 0.83066 0.81202 0.28514 0.0
N548 N 0.81751 0.82395 0.27655 0.0
C549 C 0.81042 0.829 0.33722 0.0
C550 C 0.82382 0.8167 0.34672 0.0
C551 C 0.83402 0.80822 0.32056 0.0
C552 C 0.80766 0.83223 0.30151 0.0
H553 H 0.83851 0.80546 0.26511 0.0
C554 C 0.83802 0.811 0.18747 0.0
O555 O 0.86253 0.85768 0.15356 0.0
O556 O 0.86729 0.85248 0.20998 0.0
N557 N 0.79415 0.84759 0.25543 0.0
C558 C 0.78274 0.86012 0.24197 0.0
C559 C 0.77211 0.87042 0.26477 0.0
C560 C 0.77319 0.86759 0.30108 0.0
C561 C 0.78497 0.85454 0.31428 0.0
C562 C 0.79526 0.84474 0.29032 0.0
H563 H 0.78184 0.86231 0.21407 0.0
O564 O 0.83705 0.87496 0.20638 0.0
O565 O 0.82878 0.84891 0.2287 0.0
O566 O 0.82153 0.85147 0.1548 0.0
O567 O 0.79949 0.83812 0.18524 0.0
C568 C 0.78707 0.85105 0.3503 0.0
C569 C 0.79986 0.83837 0.36179 0.0
H570 H 0.82649 0.81376 0.37401 0.0
H571 H 0.84444 0.79876 0.32768 0.0
H572 H 0.7631 0.88049 0.25438 0.0
H573 H 0.76501 0.87559 0.31859 0.0
H574 H 0.77911 0.85824 0.36945 0.0
H575 H 0.80161 0.83608 0.38959 0.0
Mn576 Mn 0.59602 0.60347 0.90586 0.0
Mn577 Mn 0.57922 0.56856 0.95185 0.0
C578 C 0.61028 0.59406 0.9562 0.0
C579 C 0.5977 0.63395 0.89283 0.0
C580 C 0.59971 0.56425 0.88391 0.0
O581 O 0.57044 0.6017 0.88818 0.0
O582 O 0.55996 0.57907 0.92174 0.0
C583 C 0.55305 0.58746 0.99711 0.0
N584 N 0.56766 0.57659 0.99368 0.0
C585 C 0.56981 0.57277 0.05612 0.0
C586 C 0.55472 0.58384 0.0603 0.0
C587 C 0.54632 0.59122 0.03066 0.0
C588 C 0.57574 0.56926 0.022 0.0
H589 H 0.5466 0.59324 0.97442 0.0
C590 C 0.55783 0.59137 0.89852 0.0
O591 O 0.60212 0.6218 0.87004 0.0
O592 O 0.59182 0.62837 0.92294 0.0
N593 N 0.59642 0.55761 0.98236 0.0
C594 C 0.61188 0.54881 0.97399 0.0
C595 C 0.62251 0.5415 0.0008 0.0
C596 C 0.61714 0.5433 0.03589 0.0
C597 C 0.60119 0.55243 0.04386 0.0
C598 C 0.59105 0.5593 0.01602 0.0
H599 H 0.61613 0.54751 0.94708 0.0
O600 O 0.61905 0.60274 0.93215 0.0
O601 O 0.59339 0.59088 0.94975 0.0
O602 O 0.60284 0.58085 0.879 0.0
O603 O 0.59089 0.5583 0.91004 0.0
C604 C 0.59522 0.55542 0.07837 0.0
C605 C 0.57952 0.56556 0.0845 0.0
H606 H 0.54962 0.58695 0.08616 0.0
H607 H 0.53474 0.59986 0.0337 0.0
H608 H 0.63487 0.53457 0.99446 0.0
H609 H 0.62548 0.5378 0.05652 0.0
H610 H 0.60277 0.55027 0.10043 0.0
H611 H 0.57526 0.56806 0.11117 0.0
Mn612 Mn 0.64874 0.34157 0.14682 0.0
Mn613 Mn 0.68559 0.32499 0.187 0.0
C614 C 0.6602 0.35589 0.19539 0.0
C615 C 0.61785 0.34336 0.13854 0.0
C616 C 0.68698 0.34536 0.11866 0.0
O617 O 0.64959 0.31592 0.12952 0.0
O618 O 0.67426 0.30582 0.15775 0.0
C619 C 0.66864 0.2983 0.23403 0.0
N620 N 0.67922 0.31304 0.22951 0.0
C621 C 0.6852 0.31483 0.29134 0.0
C622 C 0.67446 0.2996 0.29662 0.0
C623 C 0.66613 0.29132 0.26784 0.0
C624 C 0.68745 0.32101 0.25698 0.0
H625 H 0.66213 0.29194 0.21201 0.0
C626 C 0.66078 0.30357 0.13722 0.0
O627 O 0.62906 0.3476 0.11387 0.0
O628 O 0.62459 0.33764 0.16785 0.0
N629 N 0.69744 0.34209 0.2164 0.0
C630 C 0.70576 0.35769 0.20724 0.0
C631 C 0.71388 0.36824 0.23327 0.0
C632 C 0.71338 0.36263 0.26838 0.0
C633 C 0.70472 0.34652 0.27716 0.0
C634 C 0.697 0.33648 0.25006 0.0
H635 H 0.70605 0.36212 0.18033 0.0
O636 O 0.65072 0.36467 0.17252 0.0
O637 O 0.66312 0.33899 0.18855 0.0
O638 O 0.67017 0.34806 0.11611 0.0
O639 O 0.69414 0.33702 0.14422 0.0
C640 C 0.70301 0.3403 0.31185 0.0
C641 C 0.69328 0.32446 0.31893 0.0
H642 H 0.67231 0.29431 0.32271 0.0
H643 H 0.65773 0.27963 0.27173 0.0
H644 H 0.72044 0.3807 0.22632 0.0
H645 H 0.71951 0.37089 0.28843 0.0
H646 H 0.70885 0.34778 0.33335 0.0
H647 H 0.69177 0.32 0.34577 0.0
Mn648 Mn 0.90484 0.39877 0.41371 0.0
Mn649 Mn 0.92312 0.43341 0.45818 0.0
C650 C 0.8881 0.41382 0.45507 0.0
C651 C 0.89997 0.36815 0.40629 0.0
C652 C 0.90949 0.43655 0.38379 0.0
O653 O 0.93146 0.39562 0.40504 0.0
O654 O 0.94253 0.41853 0.43687 0.0
C655 C 0.94121 0.4128 0.51436 0.0
N656 N 0.9294 0.4258 0.50437 0.0
C657 C 0.92327 0.43362 0.56432 0.0
C658 C 0.93544 0.42038 0.57526 0.0
C659 C 0.94439 0.40989 0.55016 0.0
C660 C 0.92064 0.43591 0.52829 0.0
H661 H 0.94814 0.40473 0.49516 0.0
C662 C 0.94454 0.40471 0.41721 0.0
O663 O 0.89922 0.37924 0.38009 0.0
O664 O 0.9036 0.37486 0.43686 0.0
N665 N 0.90602 0.44876 0.4806 0.0
C666 C 0.89375 0.46001 0.4658 0.0
C667 C 0.8831 0.47094 0.4874 0.0
C668 C 0.88533 0.47035 0.52391 0.0
C669 C 0.89814 0.45875 0.53851 0.0
C670 C 0.90831 0.44812 0.51569 0.0
H671 H 0.89203 0.46056 0.43775 0.0
O672 O 0.88026 0.40455 0.43069 0.0
O673 O 0.90559 0.41376 0.45489 0.0
O674 O 0.90429 0.42033 0.38081 0.0
O675 O 0.91681 0.44281 0.41144 0.0
C676 C 0.90104 0.45713 0.57482 0.0
C677 C 0.9135 0.44449 0.58774 0.0
H678 H 0.93792 0.41808 0.60284 0.0
H679 H 0.95375 0.39959 0.5584 0.0
H680 H 0.87321 0.47982 0.47594 0.0
H681 H 0.87706 0.47876 0.54049 0.0
H682 H 0.89359 0.46538 0.59309 0.0
H683 H 0.91534 0.44313 0.61575 0.0
Mn684 Mn 0.85975 0.64534 0.66805 0.0
Mn685 Mn 0.82833 0.66503 0.71906 0.0
C686 C 0.84668 0.6294 0.71305 0.0
C687 C 0.88971 0.6397 0.65456 0.0
C688 C 0.82044 0.65035 0.64678 0.0
O689 O 0.86279 0.6718 0.65681 0.0
O690 O 0.84217 0.68363 0.69315 0.0
C691 C 0.85309 0.68307 0.76847 0.0
N692 N 0.83908 0.67171 0.76258 0.0
C693 C 0.83504 0.66681 0.82434 0.0
C694 C 0.84935 0.67855 0.8311 0.0
C695 C 0.85846 0.68665 0.80302 0.0
C696 C 0.83034 0.6637 0.78937 0.0
H697 H 0.86011 0.68936 0.74697 0.0
C698 C 0.85462 0.68518 0.67019 0.0
O699 O 0.87725 0.63882 0.63084 0.0
O700 O 0.88476 0.64397 0.68607 0.0
N701 N 0.81389 0.64897 0.74623 0.0
C702 C 0.80088 0.63741 0.73521 0.0
C703 C 0.79077 0.62787 0.76007 0.0
C704 C 0.79393 0.63053 0.79597 0.0
C705 C 0.8072 0.64271 0.80669 0.0
C706 C 0.81688 0.65179 0.78072 0.0
H707 H 0.7983 0.63543 0.70766 0.0
O708 O 0.85457 0.62105 0.68751 0.0
O709 O 0.84713 0.64687 0.71209 0.0
O710 O 0.83631 0.64481 0.64037 0.0
O711 O 0.816 0.65822 0.67523 0.0
C712 C 0.81132 0.64608 0.84211 0.0
C713 C 0.82533 0.65799 0.85092 0.0
H714 H 0.85352 0.68136 0.85771 0.0
H715 H 0.86956 0.69567 0.80801 0.0
H716 H 0.78054 0.61851 0.75159 0.0
H717 H 0.78613 0.62312 0.81505 0.0
H718 H 0.80389 0.63947 0.86282 0.0
H719 H 0.82856 0.66023 0.87823 0.0
Mn720 Mn 0.59894 0.39565 0.59283 0.0
Mn721 Mn 0.5814 0.43058 0.54783 0.0
C722 C 0.61251 0.4053 0.542 0.0
C723 C 0.60098 0.36519 0.60539 0.0
C724 C 0.60265 0.43498 0.61463 0.0
O725 O 0.57348 0.39685 0.61097 0.0
O726 O 0.56277 0.42031 0.57981 0.0
C727 C 0.55427 0.41144 0.50517 0.0
N728 N 0.56892 0.42234 0.50717 0.0
C729 C 0.56964 0.42591 0.44454 0.0
C730 C 0.55449 0.41481 0.44184 0.0
C731 C 0.54679 0.40754 0.47229 0.0
C732 C 0.57633 0.42957 0.47806 0.0
H733 H 0.54836 0.40574 0.52848 0.0
C734 C 0.56092 0.4076 0.60227 0.0
O735 O 0.60537 0.37725 0.62837 0.0
O736 O 0.59511 0.37079 0.57531 0.0
N737 N 0.59791 0.44136 0.51567 0.0
C738 C 0.6136 0.45009 0.52254 0.0
C739 C 0.62365 0.45721 0.4947 0.0
C740 C 0.61747 0.45531 0.46015 0.0
C741 C 0.60128 0.44627 0.45374 0.0
C742 C 0.59176 0.43957 0.48255 0.0
H743 H 0.61851 0.45141 0.54901 0.0
O744 O 0.62175 0.39685 0.56572 0.0
O745 O 0.59569 0.40832 0.54929 0.0
O746 O 0.60544 0.41835 0.62008 0.0
O747 O 0.59399 0.44095 0.58832 0.0
C748 C 0.59453 0.44314 0.41983 0.0
C749 C 0.57869 0.433 0.41523 0.0
H750 H 0.5488 0.41159 0.4165 0.0
H751 H 0.53516 0.39887 0.4704 0.0
H752 H 0.6362 0.46405 0.49984 0.0
H753 H 0.62537 0.46064 0.43872 0.0
H754 H 0.6016 0.44815 0.39705 0.0
H755 H 0.57383 0.43039 0.38899 0.0
Mn756 Mn 0.84568 0.3511 0.80393 0.0
Mn757 Mn 0.81232 0.33122 0.75838 0.0
C758 C 0.83167 0.3663 0.75903 0.0
C759 C 0.87598 0.35693 0.81342 0.0
C760 C 0.807 0.34751 0.83008 0.0
O761 O 0.8488 0.32483 0.81637 0.0
O762 O 0.82626 0.3128 0.78486 0.0
C763 C 0.83478 0.31078 0.70834 0.0
N764 N 0.82151 0.32296 0.71454 0.0
C765 C 0.81597 0.32654 0.65287 0.0
C766 C 0.8295 0.31395 0.64582 0.0
C767 C 0.83899 0.30609 0.67368 0.0
C768 C 0.81237 0.33068 0.68793 0.0
H769 H 0.84209 0.30467 0.72968 0.0
C770 C 0.83963 0.31142 0.80588 0.0
O771 O 0.8643 0.35819 0.83854 0.0
O772 O 0.87009 0.35199 0.78293 0.0
N773 N 0.79786 0.34724 0.73117 0.0
C774 C 0.7861 0.36004 0.74233 0.0
C775 C 0.77602 0.3697 0.71761 0.0
C776 C 0.77796 0.36595 0.68176 0.0
C777 C 0.79005 0.35263 0.67094 0.0
C778 C 0.79978 0.34348 0.69674 0.0
H779 H 0.78453 0.36294 0.76985 0.0
O780 O 0.84013 0.37502 0.78339 0.0
O781 O 0.83185 0.34886 0.76139 0.0
O782 O 0.82323 0.35242 0.83452 0.0
O783 O 0.80141 0.33958 0.80252 0.0
C784 C 0.793 0.34822 0.63553 0.0
C785 C 0.80605 0.33529 0.62648 0.0
H786 H 0.83281 0.31032 0.61912 0.0
H787 H 0.8495 0.29642 0.66845 0.0
H788 H 0.76675 0.38 0.72617 0.0
H789 H 0.77019 0.37347 0.66277 0.0
H790 H 0.78549 0.35487 0.61501 0.0
H791 H 0.80843 0.33227 0.59913 0.0
Mn792 Mn 0.89244 0.60096 0.07917 0.0
Mn793 Mn 0.91103 0.56933 0.02719 0.0
C794 C 0.87596 0.58821 0.03462 0.0
C795 C 0.88688 0.63085 0.09326 0.0
C796 C 0.89742 0.56146 0.09997 0.0
O797 O 0.91906 0.60416 0.08824 0.0
O798 O 0.9301 0.58231 0.05353 0.0
C799 C 0.92965 0.59402 0.97844 0.0
N800 N 0.91785 0.58034 0.98398 0.0
C801 C 0.91235 0.57731 0.92219 0.0
C802 C 0.92453 0.59129 0.91579 0.0
C803 C 0.93316 0.59972 0.94406 0.0
C804 C 0.90936 0.57223 0.95701 0.0
H805 H 0.93634 0.60053 8e-05 0.0
C806 C 0.93207 0.59516 0.07551 0.0
O807 O 0.88648 0.61833 0.11693 0.0
O808 O 0.8906 0.62599 0.06144 0.0
N809 N 0.89437 0.55574 -0.00025 0.0
C810 C 0.88231 0.54314 0.01051 0.0
C811 C 0.87213 0.5338 0.98546 0.0
C812 C 0.87466 0.53732 0.94965 0.0
C813 C 0.88732 0.55018 0.9392 0.0
C814 C 0.89702 0.5591 0.96534 0.0
H815 H 0.8804 0.54031 0.038 0.0
O816 O 0.86788 0.59569 0.06097 0.0
O817 O 0.89342 0.58853 0.03505 0.0
O818 O 0.89262 0.5775 0.10701 0.0
O819 O 0.90415 0.55676 0.07061 0.0
C820 C 0.89058 0.55465 0.9039 0.0
C821 C 0.90295 0.56831 0.89541 0.0
H822 H 0.92727 0.59572 0.88931 0.0
H823 H 0.94252 0.61058 0.93935 0.0
H824 H 0.86239 0.52389 0.99373 0.0
H825 H 0.86675 0.53013 0.93042 0.0
H826 H 0.88353 0.54777 0.88305 0.0
H827 H 0.90509 0.57183 0.86821 0.0
Mn828 Mn 0.65102 0.65803 0.35072 0.0
Mn829 Mn 0.68642 0.67571 0.30744 0.0
C830 C 0.66141 0.64442 0.30045 0.0
C831 C 0.62035 0.65575 0.36157 0.0
C832 C 0.68996 0.65486 0.37502 0.0
O833 O 0.65188 0.68354 0.36882 0.0
O834 O 0.67534 0.69449 0.33793 0.0
C835 C 0.66795 0.70229 0.26239 0.0
N836 N 0.67889 0.68774 0.26574 0.0
C837 C 0.68369 0.68645 0.20346 0.0
C838 C 0.67255 0.70149 0.19938 0.0
C839 C 0.66464 0.70943 0.22897 0.0
C840 C 0.68675 0.68011 0.23747 0.0
H841 H 0.66177 0.70839 0.28504 0.0
C842 C 0.66243 0.69625 0.35998 0.0
O843 O 0.63215 0.65137 0.38509 0.0
O844 O 0.62638 0.66186 0.33198 0.0
N845 N 0.69795 0.65899 0.27674 0.0
C846 C 0.70664 0.64343 0.28484 0.0
C847 C 0.71436 0.63316 0.25794 0.0
C848 C 0.71307 0.63899 0.22304 0.0
C849 C 0.70404 0.65503 0.21535 0.0
C850 C 0.69674 0.66479 0.24328 0.0
H851 H 0.70751 0.63881 0.31159 0.0
O852 O 0.65267 0.63522 0.3238 0.0
O853 O 0.66426 0.66127 0.30779 0.0
O854 O 0.67333 0.6516 0.3792 0.0
O855 O 0.69617 0.66367 0.34913 0.0
C856 C 0.70152 0.66143 0.18098 0.0
C857 C 0.69138 0.67715 0.17504 0.0
H858 H 0.66978 0.70691 0.17361 0.0
H859 H 0.65594 0.72098 0.226 0.0
H860 H 0.7212 0.62072 0.26406 0.0
H861 H 0.71887 0.63092 0.20233 0.0
H862 H 0.70701 0.65417 0.15886 0.0
H863 H 0.68924 0.68174 0.14845 0.0
Mn864 Mn 0.39872 0.4029 0.08278 0.0
Mn865 Mn 0.42032 0.43512 0.03716 0.0
C866 C 0.3837 0.41846 0.03967 0.0
C867 C 0.39177 0.37284 0.09166 0.0
C868 C 0.40639 0.44046 0.11092 0.0
O869 O 0.42495 0.39799 0.09308 0.0
O870 O 0.4383 0.41881 0.05918 0.0
C871 C 0.43666 0.41261 0.98179 0.0
N872 N 0.42599 0.42665 0.99127 0.0
C873 C 0.42061 0.43446 0.93105 0.0
C874 C 0.43163 0.42016 0.92062 0.0
C875 C 0.43963 0.40915 0.94611 0.0
C876 C 0.41816 0.43727 0.96697 0.0
H877 H 0.44286 0.40414 0.00131 0.0
C878 C 0.43889 0.40544 0.08031 0.0
O879 O 0.39146 0.3843 0.11727 0.0
O880 O 0.39603 0.37885 0.06085 0.0
N881 N 0.40461 0.45168 0.01415 0.0
C882 C 0.39323 0.46397 0.02852 0.0
C883 C 0.38349 0.47552 0.0065 0.0
C884 C 0.3857 0.47445 0.97002 0.0
C885 C 0.39757 0.46176 0.95588 0.0
C886 C 0.40686 0.45056 0.9791 0.0
H887 H 0.39154 0.46489 0.05654 0.0
O888 O 0.37485 0.41016 0.06412 0.0
O889 O 0.40112 0.41711 0.0409 0.0
O890 O 0.39923 0.42502 0.11424 0.0
O891 O 0.41492 0.44544 0.0836 0.0
C892 C 0.40036 0.45961 0.91965 0.0
C893 C 0.41178 0.44589 0.90722 0.0
H894 H 0.43392 0.41742 0.89312 0.0
H895 H 0.44809 0.39803 0.93827 0.0
H896 H 0.37432 0.48525 0.01761 0.0
H897 H 0.37813 0.48335 0.95312 0.0
H898 H 0.39359 0.46826 0.90107 0.0
H899 H 0.41351 0.44414 0.87926 0.0
Mn900 Mn 0.34536 0.64733 0.81818 0.0
Mn901 Mn 0.31224 0.66787 0.77309 0.0
C902 C 0.33008 0.63197 0.77501 0.0
C903 C 0.37557 0.64048 0.8264 0.0
C904 C 0.30766 0.65392 0.84701 0.0
O905 O 0.34975 0.67372 0.82828 0.0
O906 O 0.32789 0.68624 0.79555 0.0
C907 C 0.33408 0.68542 0.71807 0.0
N908 N 0.32049 0.67413 0.72732 0.0
C909 C 0.31291 0.66877 0.66698 0.0
C910 C 0.32676 0.68041 0.65679 0.0
C911 C 0.33743 0.68872 0.68246 0.0
C912 C 0.31019 0.66602 0.70285 0.0
H913 H 0.34228 0.69185 0.73772 0.0
C914 C 0.34146 0.68737 0.81615 0.0
O915 O 0.36423 0.64014 0.85221 0.0
O916 O 0.36939 0.64503 0.79588 0.0
N917 N 0.2963 0.65167 0.74973 0.0
C918 C 0.28447 0.63974 0.76386 0.0
C919 C 0.27334 0.62966 0.74164 0.0
C920 C 0.27435 0.63209 0.70521 0.0
C921 C 0.28656 0.64452 0.69132 0.0
C922 C 0.29736 0.65414 0.71473 0.0
H923 H 0.28361 0.63788 0.79186 0.0
O924 O 0.33848 0.6233 0.79955 0.0
O925 O 0.33097 0.64941 0.77643 0.0
O926 O 0.32344 0.64755 0.85023 0.0
O927 O 0.30215 0.66183 0.81937 0.0
C928 C 0.28863 0.64757 0.65514 0.0
C929 C 0.30187 0.6596 0.64296 0.0
H930 H 0.32942 0.68296 0.62935 0.0
H931 H 0.34819 0.69766 0.6748 0.0
H932 H 0.26398 0.62005 0.75257 0.0
H933 H 0.26577 0.62425 0.68815 0.0
H934 H 0.28029 0.64052 0.63641 0.0
H935 H 0.30357 0.66154 0.61504 0.0
Mn936 Mn 0.11053 0.59721 0.56387 0.0
Mn937 Mn 0.09065 0.56468 0.51609 0.0
C938 C 0.12588 0.58379 0.51851 0.0
C939 C 0.11607 0.6274 0.57508 0.0
C940 C 0.10603 0.55842 0.58847 0.0
O941 O 0.08412 0.60008 0.57597 0.0
O942 O 0.072 0.57888 0.54117 0.0
C943 C 0.07185 0.58773 0.46466 0.0
N944 N 0.08364 0.57422 0.4717 0.0
C945 C 0.08898 0.56925 0.41032 0.0
C946 C 0.07681 0.58304 0.4024 0.0
C947 C 0.06825 0.59235 0.4297 0.0
C948 C 0.092 0.56523 0.44565 0.0
H949 H 0.06525 0.59494 0.48556 0.0
C950 C 0.07064 0.59168 0.56347 0.0
O951 O 0.11738 0.61536 0.59956 0.0
O952 O 0.11134 0.6219 0.54417 0.0
N953 N 0.10705 0.55004 0.49011 0.0
C954 C 0.11921 0.53786 0.50223 0.0
C955 C 0.12938 0.52781 0.47825 0.0
C956 C 0.1268 0.53024 0.44212 0.0
C957 C 0.11408 0.54273 0.43028 0.0
C958 C 0.10433 0.55235 0.4554 0.0
H959 H 0.12121 0.53591 0.52998 0.0
O960 O 0.13458 0.59201 0.54321 0.0
O961 O 0.10845 0.58394 0.52088 0.0
O962 O 0.11182 0.57435 0.59314 0.0
O963 O 0.09772 0.55344 0.56087 0.0
C964 C 0.11085 0.54618 0.39456 0.0
C965 C 0.0984 0.55951 0.38458 0.0
H966 H 0.07404 0.58668 0.37547 0.0
H967 H 0.05891 0.60307 0.4238 0.0
H968 H 0.13919 0.51821 0.48759 0.0
H969 H 0.13474 0.52253 0.4237 0.0
H970 H 0.11802 0.53879 0.37453 0.0
H971 H 0.09628 0.56226 0.35703 0.0
Mn972 Mn 0.15664 0.34744 0.34175 0.0
Mn973 Mn 0.19084 0.33011 0.29481 0.0
C974 C 0.16619 0.36201 0.29182 0.0
C975 C 0.1262 0.34949 0.35474 0.0
C976 C 0.19566 0.34894 0.36457 0.0
O977 O 0.158 0.32159 0.35847 0.0
O978 O 0.17915 0.31048 0.32205 0.0
C979 C 0.17159 0.3062 0.24559 0.0
N980 N 0.18285 0.32031 0.25129 0.0
C981 C 0.1872 0.32458 0.1894 0.0
C982 C 0.17571 0.31004 0.18288 0.0
C983 C 0.16787 0.30082 0.2111 0.0
C984 C 0.19065 0.32914 0.22433 0.0
H985 H 0.16544 0.29914 0.26719 0.0
C986 C 0.16724 0.3086 0.3461 0.0
O987 O 0.13838 0.35352 0.37776 0.0
O988 O 0.13173 0.34378 0.32449 0.0
N989 N 0.20271 0.3479 0.26702 0.0
C990 C 0.21192 0.36272 0.27772 0.0
C991 C 0.21973 0.37408 0.25263 0.0
C992 C 0.21797 0.3701 0.21684 0.0
C993 C 0.20837 0.3548 0.20646 0.0
C994 C 0.20102 0.34389 0.23266 0.0
H995 H 0.21319 0.36593 0.30518 0.0
O996 O 0.15775 0.37071 0.31626 0.0
O997 O 0.16907 0.34502 0.2978 0.0
O998 O 0.17938 0.35364 0.36863 0.0
O999 O 0.20115 0.33973 0.33857 0.0
C1000 C 0.20542 0.35021 0.17113 0.0
C1001 C 0.19487 0.3351 0.16261 0.0
H1002 H 0.17262 0.30599 0.15631 0.0
H1003 H 0.15891 0.28965 0.20627 0.0
H1004 H 0.22701 0.38593 0.26084 0.0
H1005 H 0.22387 0.37899 0.19755 0.0
H1006 H 0.21095 0.35839 0.1503 0.0
H1007 H 0.19242 0.3319 0.13535 0.0
Mn1008 Mn 0.39987 0.6021 0.4256 0.0
Mn1009 Mn 0.42087 0.56952 0.47144 0.0
C1010 C 0.38459 0.58695 0.46897 0.0
C1011 C 0.39355 0.63234 0.41634 0.0
C1012 C 0.40669 0.56431 0.39781 0.0
O1013 O 0.42621 0.60634 0.41483 0.0
O1014 O 0.43909 0.58545 0.44929 0.0
C1015 C 0.43765 0.59183 0.52661 0.0
N1016 N 0.42675 0.57795 0.51725 0.0
C1017 C 0.42155 0.57013 0.57752 0.0
C1018 C 0.4328 0.58428 0.58783 0.0
C1019 C 0.44082 0.59522 0.56226 0.0
C1020 C 0.41888 0.56742 0.54163 0.0
H1021 H 0.44388 0.60023 0.50702 0.0
C1022 C 0.43999 0.59866 0.42783 0.0
O1023 O 0.3928 0.62073 0.39102 0.0
O1024 O 0.39793 0.62635 0.44711 0.0
N1025 N 0.40494 0.55325 0.49461 0.0
C1026 C 0.39341 0.54106 0.48037 0.0
C1027 C 0.38366 0.52957 0.50249 0.0
C1028 C 0.38607 0.53055 0.53893 0.0
C1029 C 0.39811 0.54311 0.55294 0.0
C1030 C 0.40737 0.55428 0.52963 0.0
H1031 H 0.39161 0.54018 0.45237 0.0
O1032 O 0.37589 0.59549 0.44465 0.0
O1033 O 0.40204 0.58792 0.46767 0.0
O1034 O 0.39974 0.57985 0.39444 0.0
O1035 O 0.41523 0.55926 0.42508 0.0
C1036 C 0.40114 0.54514 0.58913 0.0
C1037 C 0.41274 0.55873 0.60144 0.0
H1038 H 0.43526 0.58694 0.6153 0.0
H1039 H 0.44945 0.60621 0.57 0.0
H1040 H 0.37437 0.51994 0.49148 0.0
H1041 H 0.37851 0.52168 0.55591 0.0
H1042 H 0.39442 0.53649 0.60778 0.0
H1043 H 0.41465 0.5604 0.62937 0.0
Mn1044 Mn 0.14592 0.64683 0.15909 0.0
Mn1045 Mn 0.17761 0.66548 0.21069 0.0
C1046 C 0.16031 0.62964 0.20063 0.0
C1047 C 0.11595 0.64068 0.14742 0.0
C1048 C 0.18435 0.65455 0.13543 0.0
O1049 O 0.14172 0.67353 0.1527 0.0
O1050 O 0.16242 0.68472 0.18972 0.0
C1051 C 0.15373 0.68014 0.26571 0.0
N1052 N 0.16782 0.66952 0.25628 0.0
C1053 C 0.17323 0.66113 0.31621 0.0
C1054 C 0.15885 0.67206 0.32659 0.0
C1055 C 0.14903 0.68156 0.30121 0.0
C1056 C 0.17731 0.66026 0.28045 0.0
H1057 H 0.14613 0.68745 0.24629 0.0
C1058 C 0.14947 0.68665 0.16791 0.0
O1059 O 0.12775 0.64137 0.12242 0.0
O1060 O 0.12153 0.64369 0.17905 0.0
N1061 N 0.19311 0.64851 0.23313 0.0
C1062 C 0.20584 0.63769 0.21858 0.0
C1063 C 0.21646 0.6268 0.24034 0.0
C1064 C 0.21401 0.62728 0.2768 0.0
C1065 C 0.20094 0.63865 0.29119 0.0
C1066 C 0.19076 0.6492 0.26821 0.0
H1067 H 0.20782 0.63731 0.19058 0.0
O1068 O 0.15238 0.62202 0.17426 0.0
O1069 O 0.15931 0.64707 0.2021 0.0
O1070 O 0.16867 0.64838 0.12953 0.0
O1071 O 0.18905 0.66144 0.16467 0.0
C1072 C 0.19745 0.63976 0.32739 0.0
C1073 C 0.18352 0.65089 0.33987 0.0
H1074 H 0.15515 0.67316 0.35394 0.0
H1075 H 0.13786 0.68996 0.309 0.0
H1076 H 0.2265 0.61804 0.22903 0.0
H1077 H 0.22215 0.61879 0.29348 0.0
H1078 H 0.20527 0.63197 0.34585 0.0
H1079 H 0.18075 0.65137 0.3677 0.0
Mn1080 Mn 0.09512 0.39819 0.90035 0.0
Mn1081 Mn 0.07675 0.4334 0.94307 0.0
C1082 C 0.10837 0.40871 0.95088 0.0
C1083 C 0.09741 0.36755 0.8894 0.0
C1084 C 0.09794 0.437 0.87568 0.0
O1085 O 0.06981 0.3992 0.88095 0.0
O1086 O 0.05809 0.42167 0.91332 0.0
C1087 C 0.05073 0.41483 0.98916 0.0
N1088 N 0.06504 0.42604 0.9852 0.0
C1089 C 0.06636 0.4316 0.04723 0.0
C1090 C 0.05157 0.4202 0.05194 0.0
C1091 C 0.04374 0.41177 0.02279 0.0
C1092 C 0.07256 0.43438 0.01304 0.0
H1093 H 0.04471 0.40828 0.96684 0.0
C1094 C 0.0567 0.40911 0.89043 0.0
O1095 O 0.10216 0.37937 0.86621 0.0
O1096 O 0.09094 0.37353 0.91873 0.0
N1097 N 0.09336 0.44553 0.97309 0.0
C1098 C 0.10871 0.45445 0.96445 0.0
C1099 C 0.11889 0.46268 0.99091 0.0
C1100 C 0.11317 0.46169 0.02591 0.0
C1101 C 0.09733 0.45244 0.03415 0.0
C1102 C 0.08766 0.44461 0.00664 0.0
H1103 H 0.11323 0.45514 0.93762 0.0
O1104 O 0.11768 0.39974 0.92805 0.0
O1105 O 0.09154 0.41145 0.94321 0.0
O1106 O 0.10198 0.42049 0.87242 0.0
O1107 O 0.0884 0.44304 0.90076 0.0
C1108 C 0.09105 0.4502 0.06868 0.0
C1109 C 0.07556 0.43982 0.07521 0.0
H1110 H 0.04627 0.41761 0.07788 0.0
H1111 H 0.03238 0.40287 0.02625 0.0
H1112 H 0.13117 0.4697 0.98437 0.0
H1113 H 0.12117 0.46788 0.04628 0.0
H1114 H 0.09824 0.4561 0.09048 0.0
H1115 H 0.07107 0.4379 0.10193 0.0
Mn1116 Mn 0.34847 0.3549 0.69055 0.0
Mn1117 Mn 0.31432 0.33477 0.73343 0.0
C1118 C 0.33321 0.37022 0.73363 0.0
C1119 C 0.37883 0.36085 0.68309 0.0
C1120 C 0.31073 0.35023 0.66056 0.0
O1121 O 0.35208 0.32851 0.67919 0.0
O1122 O 0.32952 0.31622 0.71029 0.0
C1123 C 0.33536 0.31581 0.78786 0.0
N1124 N 0.32213 0.3276 0.77899 0.0
C1125 C 0.31451 0.33243 0.83948 0.0
C1126 C 0.32798 0.32025 0.84927 0.0
C1127 C 0.33848 0.31196 0.82334 0.0
C1128 C 0.31199 0.33571 0.80372 0.0
H1129 H 0.34345 0.3094 0.76801 0.0
C1130 C 0.34324 0.31496 0.69015 0.0
O1131 O 0.36765 0.36172 0.65708 0.0
O1132 O 0.37244 0.35627 0.71344 0.0
N1133 N 0.29868 0.35104 0.75738 0.0
C1134 C 0.28717 0.36341 0.74369 0.0
C1135 C 0.2762 0.37348 0.76625 0.0
C1136 C 0.27703 0.37058 0.80257 0.0
C1137 C 0.28889 0.35768 0.81601 0.0
C1138 C 0.29953 0.34809 0.79226 0.0
H1139 H 0.28644 0.36565 0.71578 0.0
O1140 O 0.34224 0.37889 0.70994 0.0
O1141 O 0.33362 0.35277 0.73171 0.0
O1142 O 0.32677 0.356 0.65817 0.0
O1143 O 0.3047 0.34185 0.68724 0.0
C1144 C 0.29077 0.35414 0.85206 0.0
C1145 C 0.30365 0.34161 0.86381 0.0
H1146 H 0.33046 0.31728 0.87662 0.0
H1147 H 0.34895 0.30261 0.8307 0.0
H1148 H 0.26711 0.38344 0.75568 0.0
H1149 H 0.2686 0.37841 0.8199 0.0
H1150 H 0.28255 0.36116 0.87102 0.0
H1151 H 0.3052 0.33927 0.89165 0.0
H1152 H 0.1319 0.05838 0.36061 0.0
H1153 H 0.13688 0.03715 0.31263 0.0
H1154 H 0.08845 0.00887 0.34122 0.0
H1155 H 0.08393 0.02944 0.39013 0.0
H1156 H 0.11375 0.98595 0.32404 0.0
H1157 H 0.11037 0.03914 0.22212 0.0
H1158 H 0.12821 0.04204 0.25314 0.0
H1159 H 0.10522 0.04351 0.26741 0.0
C1160 C 0.12238 0.04757 0.35667 0.0
C1161 C 0.10743 0.04564 0.37884 0.0
C1162 C 0.12519 0.03552 0.32917 0.0
C1163 C 0.11281 0.02168 0.32281 0.0
C1164 C 0.09816 0.01947 0.34556 0.0
H1165 H 0.07922 0.97004 0.13828 0.0
H1166 H 0.08673 0.98974 0.18695 0.0
C1167 C 0.09557 0.03125 0.37347 0.0
C1168 C 0.11459 0.00972 0.292 0.0
H1169 H 0.11473 0.00956 0.20266 0.0
C1170 C 0.11408 0.99108 0.29746 0.0
C1171 C 0.11496 0.0165 0.25736 0.0
C1172 C 0.11456 0.03638 0.24952 0.0
C1173 C 0.11301 0.97903 0.26932 0.0
C1174 C 0.1132 0.98582 0.23469 0.0
C1175 C 0.11465 0.00441 0.22923 0.0
C1176 C 0.10973 0.9742 0.20394 0.0
C1177 C 0.11059 0.9593 0.27712 0.0
C1178 C 0.12038 0.95907 0.19682 0.0
C1179 C 0.11586 0.94752 0.16931 0.0
C1180 C 0.10092 0.95121 0.14799 0.0
C1181 C 0.09084 0.96683 0.15419 0.0
C1182 C 0.09513 0.97813 0.182 0.0
H1183 H 0.1065 0.95693 0.30472 0.0
H1184 H 0.1003 0.95326 0.25969 0.0
H1185 H 0.12349 0.95221 0.27274 0.0
H1186 H 0.13201 0.95606 0.21277 0.0
H1187 H 0.12402 0.9357 0.16482 0.0
H1188 H 0.18915 0.87535 0.58084 0.0
H1189 H 0.21003 0.88057 0.53229 0.0
H1190 H 0.2428 0.83638 0.56792 0.0
H1191 H 0.22257 0.83168 0.61715 0.0
H1192 H 0.26316 0.86321 0.54904 0.0
H1193 H 0.2125 0.8514 0.44481 0.0
H1194 H 0.20713 0.86971 0.47345 0.0
H1195 H 0.20787 0.84717 0.49038 0.0
C1196 C 0.20086 0.86681 0.57831 0.0
C1197 C 0.20419 0.85305 0.60267 0.0
C1198 C 0.2127 0.86973 0.55045 0.0
C1199 C 0.22777 0.85862 0.54601 0.0
C1200 C 0.23125 0.84512 0.57075 0.0
H1201 H 0.28745 0.83032 0.3639 0.0
H1202 H 0.26573 0.83451 0.4111 0.0
C1203 C 0.21966 0.84243 0.5989 0.0
C1204 C 0.24 0.86072 0.51565 0.0
H1205 H 0.24172 0.85901 0.4264 0.0
C1206 C 0.25847 0.86236 0.52219 0.0
C1207 C 0.23385 0.85947 0.48065 0.0
C1208 C 0.21428 0.85667 0.4718 0.0
C1209 C 0.27105 0.8621 0.49489 0.0
C1210 C 0.2649 0.86098 0.45986 0.0
C1211 C 0.24638 0.85998 0.45324 0.0
C1212 C 0.27747 0.85931 0.42994 0.0
C1213 C 0.29077 0.86206 0.50411 0.0
C1214 C 0.29105 0.87207 0.42429 0.0
C1215 C 0.30374 0.86945 0.39783 0.0
C1216 C 0.30272 0.85433 0.37593 0.0
C1217 C 0.28856 0.84209 0.38041 0.0
C1218 C 0.27613 0.8445 0.40734 0.0
H1219 H 0.29306 0.85804 0.53178 0.0
H1220 H 0.29841 0.85275 0.48696 0.0
H1221 H 0.29628 0.87579 0.50067 0.0
H1222 H 0.29201 0.8839 0.44063 0.0
H1223 H 0.31436 0.87926 0.39453 0.0
H1224 H 0.41127 0.02991 0.59665 0.0
H1225 H 0.408 0.00708 0.64211 0.0
H1226 H 0.38358 0.04612 0.71054 0.0
H1227 H 0.38663 0.06907 0.66528 0.0
H1228 H 0.42382 0.00936 0.70844 0.0
H1229 H 0.34974 0.00249 0.71802 0.0
H1230 H 0.36072 0.01263 0.68074 0.0
H1231 H 0.35776 0.02521 0.72048 0.0
C1232 C 0.40502 0.03365 0.62121 0.0
C1233 C 0.39929 0.05139 0.62733 0.0
C1234 C 0.40315 0.02056 0.64711 0.0
C1235 C 0.39538 0.02489 0.67946 0.0
C1236 C 0.3893 0.04244 0.68547 0.0
H1237 H 0.41076 0.97327 0.87878 0.0
H1238 H 0.40827 0.99416 0.82976 0.0
C1239 C 0.39119 0.05557 0.65962 0.0
C1240 C 0.39497 0.01145 0.70791 0.0
H1241 H 0.36702 0.98902 0.76366 0.0
C1242 C 0.4114 0.00481 0.72037 0.0
C1243 C 0.37873 0.0055 0.72317 0.0
C1244 C 0.36071 0.01168 0.70977 0.0
C1245 C 0.41206 0.99265 0.74831 0.0
C1246 C 0.39586 0.98718 0.76439 0.0
C1247 C 0.37939 0.99344 0.75142 0.0
C1248 C 0.39592 0.97495 0.79479 0.0
C1249 C 0.43006 0.98568 0.76039 0.0
C1250 C 0.38928 0.95744 0.79152 0.0
C1251 C 0.39068 0.94541 0.81947 0.0
C1252 C 0.39869 0.95077 0.8512 0.0
C1253 C 0.40466 0.96861 0.8547 0.0
C1254 C 0.40328 0.98058 0.82672 0.0
H1255 H 0.44074 0.98808 0.74063 0.0
H1256 H 0.43395 0.99266 0.78492 0.0
H1257 H 0.42937 0.97106 0.766 0.0
H1258 H 0.38349 0.95292 0.76703 0.0
H1259 H 0.38584 0.93182 0.8159 0.0
H1260 H 0.17752 0.14436 0.93475 0.0
H1261 H 0.20036 0.14323 0.98066 0.0
H1262 H 0.24173 0.15218 0.90355 0.0
H1263 H 0.21901 0.15383 0.85762 0.0
H1264 H 0.22906 0.12106 0.99017 0.0
H1265 H 0.25214 0.19141 0.97366 0.0
H1266 H 0.23191 0.18305 0.95345 0.0
H1267 H 0.25347 0.17848 0.93412 0.0
C1268 C 0.19148 0.14611 0.92753 0.0
C1269 C 0.19642 0.14938 0.89255 0.0
C1270 C 0.20451 0.14544 0.95381 0.0
C1271 C 0.22269 0.14797 0.94558 0.0
C1272 C 0.22772 0.15068 0.91059 0.0
H1273 H 0.32068 0.14464 0.06799 0.0
H1274 H 0.2982 0.1422 0.02148 0.0
C1275 C 0.21471 0.15154 0.88435 0.0
C1276 C 0.23639 0.14775 0.97365 0.0
H1277 H 0.26957 0.17286 0.01121 0.0
C1278 C 0.23787 0.13241 0.99486 0.0
C1279 C 0.24781 0.16263 0.9798 0.0
C1280 C 0.24617 0.17989 0.9593 0.0
C1281 C 0.25065 0.13147 0.0218 0.0
C1282 C 0.26217 0.14622 0.02749 0.0
C1283 C 0.26074 0.16154 0.00638 0.0
C1284 C 0.27553 0.14627 0.05592 0.0
C1285 C 0.25192 0.11475 0.04394 0.0
C1286 C 0.27008 0.1493 0.09052 0.0
C1287 C 0.28285 0.15085 0.11712 0.0
C1288 C 0.30128 0.14933 0.10948 0.0
C1289 C 0.30661 0.14583 0.07479 0.0
C1290 C 0.29382 0.14445 0.04819 0.0
H1291 H 0.24346 0.10368 0.03357 0.0
H1292 H 0.26608 0.11011 0.04537 0.0
H1293 H 0.24748 0.11786 0.07101 0.0
H1294 H 0.25598 0.15086 0.09679 0.0
H1295 H 0.27828 0.15347 0.14355 0.0
H1296 H 0.89478 0.92866 0.68177 0.0
H1297 H 0.89087 0.94889 0.7317 0.0
H1298 H 0.90087 0.99447 0.66492 0.0
H1299 H 0.90495 0.97443 0.61479 0.0
H1300 H 0.92031 0.97778 0.75078 0.0
H1301 H 0.8512 0.00284 0.72367 0.0
H1302 H 0.85883 0.98104 0.70905 0.0
H1303 H 0.86667 0.00095 0.68755 0.0
C1304 C 0.89602 0.94299 0.67757 0.0
C1305 C 0.90023 0.94993 0.64427 0.0
C1306 C 0.89379 0.95449 0.70613 0.0
C1307 C 0.89549 0.97309 0.70176 0.0
C1308 C 0.8994 0.98012 0.66859 0.0
H1309 H 0.88863 0.06737 0.83043 0.0
H1310 H 0.88825 0.04503 0.78371 0.0
C1311 C 0.9018 0.96864 0.64007 0.0
C1312 C 0.89408 0.98517 0.7322 0.0
H1313 H 0.8669 0.01633 0.77052 0.0
C1314 C 0.90862 0.98614 0.75538 0.0
C1315 C 0.87883 0.99606 0.73765 0.0
C1316 C 0.86289 0.99522 0.71336 0.0
C1317 C 0.90852 0.99816 0.78365 0.0
C1318 C 0.89321 0.00907 0.78932 0.0
C1319 C 0.87857 0.0079 0.76622 0.0
C1320 C 0.89246 0.02234 0.81816 0.0
C1321 C 0.92508 0.99952 0.8063 0.0
C1322 C 0.89452 0.01694 0.85314 0.0
C1323 C 0.89495 0.02971 0.87994 0.0
C1324 C 0.893 0.04808 0.87225 0.0
C1325 C 0.89019 0.05334 0.8373 0.0
C1326 C 0.88996 0.04059 0.81052 0.0
H1327 H 0.93711 0.99392 0.79299 0.0
H1328 H 0.9279 0.01369 0.81349 0.0
H1329 H 0.92293 0.99177 0.83075 0.0
H1330 H 0.89599 0.00287 0.8597 0.0
H1331 H 0.8969 0.02518 0.90662 0.0
H1332 H 0.78797 0.17416 0.3716 0.0
H1333 H 0.76654 0.17213 0.41984 0.0
H1334 H 0.7934 0.12462 0.45789 0.0
H1335 H 0.81539 0.12705 0.41056 0.0
H1336 H 0.74285 0.14779 0.43799 0.0
H1337 H 0.79282 0.15424 0.54485 0.0
H1338 H 0.79855 0.15789 0.49956 0.0
H1339 H 0.79715 0.13542 0.51682 0.0
C1340 C 0.78933 0.16329 0.39029 0.0
C1341 C 0.80348 0.15088 0.38755 0.0
C1342 C 0.77707 0.16214 0.41782 0.0
C1343 C 0.77857 0.14844 0.44292 0.0
C1344 C 0.7923 0.13564 0.43951 0.0
H1345 H 0.69082 0.12677 0.59022 0.0
H1346 H 0.71213 0.12482 0.54157 0.0
C1347 C 0.8048 0.13698 0.41233 0.0
C1348 C 0.76572 0.14767 0.47253 0.0
H1349 H 0.76303 0.1472 0.56172 0.0
C1350 C 0.74725 0.1477 0.46507 0.0
C1351 C 0.77148 0.14778 0.50786 0.0
C1352 C 0.79107 0.14902 0.51781 0.0
C1353 C 0.73438 0.148 0.4919 0.0
C1354 C 0.74015 0.14758 0.52721 0.0
C1355 C 0.75862 0.14737 0.53465 0.0
C1356 C 0.72737 0.14831 0.55695 0.0
C1357 C 0.7148 0.14945 0.48203 0.0
C1358 C 0.72925 0.16172 0.58252 0.0
C1359 C 0.7174 0.16258 0.61074 0.0
C1360 C 0.70328 0.15017 0.61377 0.0
C1361 C 0.70144 0.13667 0.5883 0.0
C1362 C 0.71353 0.13561 0.56037 0.0
H1363 H 0.71307 0.15485 0.45511 0.0
H1364 H 0.70863 0.13589 0.48273 0.0
H1365 H 0.7074 0.15825 0.50052 0.0
H1366 H 0.73984 0.17164 0.58049 0.0
H1367 H 0.71914 0.17317 0.6299 0.0
H1368 H 0.57625 0.974 0.38759 0.0
H1369 H 0.57702 0.99204 0.33418 0.0
H1370 H 0.62422 0.96342 0.2998 0.0
H1371 H 0.62307 0.94479 0.35245 0.0
H1372 H 0.6005 0.01452 0.30793 0.0
H1373 H 0.59286 0.95757 0.21583 0.0
H1374 H 0.59014 0.95501 0.26247 0.0
H1375 H 0.61225 0.95526 0.2433 0.0
C1376 C 0.58681 0.97157 0.36867 0.0
C1377 C 0.59948 0.95785 0.37401 0.0
C1378 C 0.58723 0.98188 0.33814 0.0
C1379 C 0.60043 0.9788 0.31258 0.0
C1380 C 0.61356 0.96563 0.31858 0.0
H1381 H 0.62188 0.05571 0.14552 0.0
H1382 H 0.62353 0.03709 0.19812 0.0
C1383 C 0.61296 0.95509 0.34881 0.0
C1384 C 0.60042 0.98946 0.27979 0.0
H1385 H 0.60001 0.98589 0.19069 0.0
C1386 C 0.60033 0.00827 0.28228 0.0
C1387 C 0.59989 0.98128 0.24634 0.0
C1388 C 0.5986 0.96118 0.24176 0.0
C1389 C 0.59978 0.01913 0.2523 0.0
C1390 C 0.60003 0.01095 0.21884 0.0
C1391 C 0.60004 0.99215 0.21634 0.0
C1392 C 0.59969 0.02162 0.18607 0.0
C1393 C 0.59838 0.03922 0.25694 0.0
C1394 C 0.58629 0.0185 0.16091 0.0
C1395 C 0.58559 0.02882 0.1304 0.0
C1396 C 0.59817 0.04257 0.12469 0.0
C1397 C 0.61183 0.04539 0.14949 0.0
C1398 C 0.61271 0.03485 0.17968 0.0
H1399 H 0.59285 0.04278 0.28305 0.0
H1400 H 0.61197 0.04524 0.25496 0.0
H1401 H 0.58971 0.04533 0.23652 0.0
H1402 H 0.57616 0.00829 0.16519 0.0
H1403 H 0.5749 0.02634 0.11177 0.0
H1404 H 0.72454 0.83406 0.86239 0.0
H1405 H 0.74423 0.83538 0.91353 0.0
H1406 H 0.7032 0.86349 0.97131 0.0
H1407 H 0.6834 0.86238 0.92039 0.0
H1408 H 0.7387 0.87823 0.97773 0.0
H1409 H 0.73621 0.80474 0.00308 0.0
H1410 H 0.74246 0.81104 0.95931 0.0
H1411 H 0.72028 0.81601 0.97501 0.0
C1412 C 0.71967 0.84055 0.88591 0.0
C1413 C 0.7023 0.84797 0.88731 0.0
C1414 C 0.73094 0.84124 0.91513 0.0
C1415 C 0.72504 0.84932 0.94623 0.0
C1416 C 0.70793 0.85713 0.94752 0.0
H1417 H 0.76997 0.83638 0.15359 0.0
H1418 H 0.75024 0.83844 0.10266 0.0
C1419 C 0.69664 0.85643 0.91838 0.0
C1420 C 0.73659 0.84939 0.97768 0.0
H1421 H 0.75626 0.82179 0.03779 0.0
C1422 C 0.74256 0.86592 0.99094 0.0
C1423 C 0.74135 0.8333 0.99498 0.0
C1424 C 0.73465 0.81525 0.98264 0.0
C1425 C 0.75342 0.86675 0.02093 0.0
C1426 C 0.75854 0.85062 0.03772 0.0
C1427 C 0.75237 0.83412 0.02469 0.0
C1428 C 0.77025 0.85048 0.06897 0.0
C1429 C 0.75911 0.88487 0.0347 0.0
C1430 C 0.78802 0.8566 0.06682 0.0
C1431 C 0.79936 0.85546 0.09587 0.0
C1432 C 0.79315 0.84804 0.12755 0.0
C1433 C 0.77523 0.84213 0.12965 0.0
C1434 C 0.76392 0.84329 0.10058 0.0
H1435 H 0.75058 0.89585 0.02417 0.0
H1436 H 0.75851 0.8852 0.06375 0.0
H1437 H 0.77319 0.88752 0.02669 0.0
H1438 H 0.79323 0.86191 0.04244 0.0
H1439 H 0.81308 0.86008 0.09323 0.0
H1440 H 0.6087 0.42922 0.68431 0.0
H1441 H 0.61392 0.45205 0.72928 0.0
H1442 H 0.61611 0.49301 0.64949 0.0
H1443 H 0.61023 0.47041 0.60457 0.0
H1444 H 0.63944 0.47792 0.74365 0.0
H1445 H 0.57407 0.50913 0.70874 0.0
H1446 H 0.58102 0.48766 0.69169 0.0
H1447 H 0.58962 0.5081 0.67294 0.0
C1448 C 0.61056 0.44306 0.67632 0.0
C1449 C 0.60872 0.4481 0.64103 0.0
C1450 C 0.61356 0.45607 0.70202 0.0
C1451 C 0.61493 0.47425 0.69273 0.0
C1452 C 0.61457 0.4791 0.65725 0.0
H1453 H 0.61228 0.57146 0.81806 0.0
H1454 H 0.61921 0.54983 0.77187 0.0
C1455 C 0.61127 0.46617 0.63163 0.0
C1456 C 0.61521 0.48823 0.72023 0.0
H1457 H 0.59138 0.52391 0.75158 0.0
C1458 C 0.62898 0.48802 0.74536 0.0
C1459 C 0.60141 0.50127 0.72256 0.0
C1460 C 0.5856 0.5015 0.69778 0.0
C1461 C 0.62934 0.50062 0.77272 0.0
C1462 C 0.6156 0.51364 0.77481 0.0
C1463 C 0.60199 0.51398 0.74952 0.0
C1464 C 0.61429 0.52647 0.8041 0.0
C1465 C 0.64434 0.49998 0.79921 0.0
C1466 C 0.60941 0.5204 0.8375 0.0
C1467 C 0.60526 0.53269 0.86388 0.0
C1468 C 0.60593 0.55127 0.85723 0.0
C1469 C 0.61162 0.55727 0.82409 0.0
C1470 C 0.61563 0.54495 0.79767 0.0
H1471 H 0.65575 0.49159 0.79006 0.0
H1472 H 0.64932 0.51373 0.80496 0.0
H1473 H 0.63918 0.49418 0.82402 0.0
H1474 H 0.60805 0.50616 0.84271 0.0
H1475 H 0.60104 0.52762 0.88917 0.0
H1476 H 0.81417 0.35497 0.89876 0.0
H1477 H 0.79256 0.35855 0.94642 0.0
H1478 H 0.74889 0.3521 0.87327 0.0
H1479 H 0.77037 0.34791 0.82565 0.0
H1480 H 0.76534 0.38219 0.95913 0.0
H1481 H 0.73846 0.31308 0.94364 0.0
H1482 H 0.7585 0.32059 0.92156 0.0
H1483 H 0.7367 0.32642 0.90468 0.0
C1484 C 0.79997 0.35437 0.89278 0.0
C1485 C 0.79398 0.35089 0.85851 0.0
C1486 C 0.78765 0.35646 0.92003 0.0
C1487 C 0.76915 0.35522 0.91345 0.0
C1488 C 0.76312 0.35261 0.87903 0.0
H1489 H 0.67688 0.35509 0.05247 0.0
H1490 H 0.69652 0.36045 0.00222 0.0
C1491 C 0.77542 0.35028 0.85184 0.0
C1492 C 0.75624 0.35601 0.94284 0.0
H1493 H 0.72369 0.33182 0.98444 0.0
C1494 C 0.75621 0.37119 0.96467 0.0
C1495 C 0.74445 0.34157 0.9501 0.0
C1496 C 0.7446 0.32442 0.929 0.0
C1497 C 0.74462 0.37232 0.99356 0.0
C1498 C 0.73282 0.35794 0.00056 0.0
C1499 C 0.73269 0.34288 0.97859 0.0
C1500 C 0.72114 0.35762 0.03168 0.0
C1501 C 0.74499 0.3888 0.01648 0.0
C1502 C 0.7286 0.35452 0.06482 0.0
C1503 C 0.71747 0.35126 0.09352 0.0
C1504 C 0.69868 0.35111 0.08949 0.0
C1505 C 0.69128 0.35514 0.0565 0.0
C1506 C 0.70245 0.35821 0.02776 0.0
H1507 H 0.75262 0.39998 0.00423 0.0
H1508 H 0.73111 0.39343 0.02214 0.0
H1509 H 0.75145 0.38541 0.04182 0.0
H1510 H 0.74304 0.35381 0.06814 0.0
H1511 H 0.72359 0.34832 0.11861 0.0
H1512 H 0.91193 0.47322 0.38329 0.0
H1513 H 0.90747 0.4934 0.33351 0.0
H1514 H 0.89656 0.44806 0.26672 0.0
H1515 H 0.90084 0.42767 0.31631 0.0
H1516 H 0.92554 0.47732 0.24629 0.0
H1517 H 0.85664 0.50146 0.27819 0.0
H1518 H 0.87272 0.49956 0.31329 0.0
H1519 H 0.86474 0.47968 0.29192 0.0
C1520 C 0.90856 0.4675 0.35806 0.0
C1521 C 0.90675 0.44881 0.35378 0.0
C1522 C 0.90594 0.47906 0.32975 0.0
C1523 C 0.90158 0.47214 0.29673 0.0
C1524 C 0.89982 0.45357 0.29219 0.0
H1525 H 0.89912 0.52492 0.09289 0.0
H1526 H 0.89884 0.50246 0.13955 0.0
C1527 C 0.90227 0.44198 0.32055 0.0
C1528 C 0.89955 0.48433 0.26664 0.0
H1529 H 0.87139 0.51535 0.23061 0.0
C1530 C 0.91368 0.48557 0.24258 0.0
C1531 C 0.88409 0.49507 0.26235 0.0
C1532 C 0.86857 0.49393 0.28762 0.0
C1533 C 0.91297 0.4977 0.21454 0.0
C1534 C 0.89744 0.50846 0.21005 0.0
C1535 C 0.88322 0.50703 0.23403 0.0
C1536 C 0.89607 0.52181 0.18149 0.0
C1537 C 0.92911 0.49935 0.19083 0.0
C1538 C 0.89372 0.54003 0.18952 0.0
C1539 C 0.89358 0.55289 0.16292 0.0
C1540 C 0.89589 0.54773 0.12777 0.0
C1541 C 0.89757 0.52937 0.11972 0.0
C1542 C 0.89751 0.51652 0.14635 0.0
H1543 H 0.94141 0.49377 0.2032 0.0
H1544 H 0.92659 0.49172 0.16636 0.0
H1545 H 0.93167 0.51359 0.18376 0.0
H1546 H 0.89248 0.54438 0.21649 0.0
H1547 H 0.89224 0.5669 0.17004 0.0
H1548 H 0.72614 0.65046 0.36851 0.0
H1549 H 0.74781 0.645 0.41521 0.0
H1550 H 0.70464 0.64169 0.49028 0.0
H1551 H 0.68279 0.64667 0.44348 0.0
H1552 H 0.75232 0.66787 0.46879 0.0
H1553 H 0.73608 0.60022 0.52081 0.0
H1554 H 0.72778 0.60814 0.47914 0.0
H1555 H 0.71709 0.61504 0.51917 0.0
C1556 C 0.72122 0.64823 0.39485 0.0
C1557 C 0.70276 0.64911 0.40237 0.0
C1558 C 0.73362 0.64508 0.42148 0.0
C1559 C 0.72784 0.64283 0.45616 0.0
C1560 C 0.70938 0.643 0.46359 0.0
H1561 H 0.78421 0.65617 0.65252 0.0
H1562 H 0.76148 0.65301 0.60664 0.0
C1563 C 0.69691 0.64595 0.43684 0.0
C1564 C 0.74123 0.64241 0.48479 0.0
H1565 H 0.7558 0.61832 0.55544 0.0
C1566 C 0.75316 0.65695 0.48752 0.0
C1567 C 0.74222 0.6282 0.50933 0.0
C1568 C 0.73022 0.61193 0.50685 0.0
C1569 C 0.76597 0.65773 0.51429 0.0
C1570 C 0.76685 0.64364 0.53889 0.0
C1571 C 0.75496 0.6291 0.5364 0.0
C1572 C 0.78023 0.64394 0.56724 0.0
C1573 C 0.77841 0.6737 0.51642 0.0
C1574 C 0.79818 0.63968 0.56008 0.0
C1575 C 0.81121 0.64148 0.5861 0.0
C1576 C 0.80649 0.64766 0.61969 0.0
C1577 C 0.78834 0.65151 0.6269 0.0
C1578 C 0.77532 0.64962 0.60085 0.0
H1579 H 0.77474 0.6844 0.49746 0.0
H1580 H 0.77821 0.67942 0.54327 0.0
H1581 H 0.79236 0.66929 0.51087 0.0
H1582 H 0.80214 0.63532 0.53414 0.0
H1583 H 0.82502 0.63836 0.57962 0.0
H1584 H 0.38109 0.44066 0.16273 0.0
H1585 H 0.37805 0.46225 0.21059 0.0
H1586 H 0.42507 0.49038 0.17376 0.0
H1587 H 0.42775 0.46932 0.1251 0.0
H1588 H 0.39927 0.46941 0.26304 0.0
H1589 H 0.39134 0.53148 0.18531 0.0
H1590 H 0.39024 0.50946 0.16576 0.0
H1591 H 0.41164 0.52 0.17375 0.0
C1592 C 0.39072 0.45151 0.16474 0.0
C1593 C 0.40461 0.45336 0.14006 0.0
C1594 C 0.38895 0.46385 0.19205 0.0
C1595 C 0.40111 0.47816 0.19535 0.0
C1596 C 0.41517 0.47981 0.1711 0.0
H1597 H 0.42764 0.53514 0.38393 0.0
H1598 H 0.42484 0.51412 0.33526 0.0
C1599 C 0.41678 0.46767 0.14345 0.0
C1600 C 0.39961 0.49085 0.22509 0.0
H1601 H 0.39966 0.53542 0.24567 0.0
C1602 C 0.39913 0.48385 0.25922 0.0
C1603 C 0.39903 0.50968 0.22014 0.0
C1604 C 0.39788 0.51807 0.18423 0.0
C1605 C 0.39877 0.49516 0.28854 0.0
C1606 C 0.39957 0.51398 0.28361 0.0
C1607 C 0.39935 0.52099 0.24948 0.0
C1608 C 0.4011 0.52665 0.31338 0.0
C1609 C 0.39734 0.48678 0.32443 0.0
C1610 C 0.38911 0.54111 0.31655 0.0
C1611 C 0.39096 0.55342 0.34389 0.0
C1612 C 0.40475 0.5514 0.36872 0.0
C1613 C 0.41674 0.53692 0.36547 0.0
C1614 C 0.41507 0.52481 0.33781 0.0
H1615 H 0.39064 0.47346 0.32321 0.0
H1616 H 0.41103 0.48466 0.33516 0.0
H1617 H 0.38972 0.49548 0.34276 0.0
H1618 H 0.3783 0.54285 0.29787 0.0
H1619 H 0.38147 0.56441 0.34578 0.0
H1620 H 0.17993 0.6408 0.06948 0.0
H1621 H 0.20207 0.63943 0.02248 0.0
H1622 H 0.2414 0.66439 0.08952 0.0
H1623 H 0.21934 0.66598 0.1368 0.0
H1624 H 0.23841 0.68005 0.0226 0.0
H1625 H 0.24605 0.606 0.01488 0.0
H1626 H 0.2232 0.61368 0.01295 0.0
H1627 H 0.2361 0.61713 0.05215 0.0
C1628 C 0.19329 0.64595 0.0744 0.0
C1629 C 0.19783 0.65352 0.107 0.0
C1630 C 0.20596 0.64503 0.04754 0.0
C1631 C 0.2234 0.65157 0.05278 0.0
C1632 C 0.22801 0.65917 0.08513 0.0
H1633 H 0.31412 0.63885 0.91132 0.0
H1634 H 0.294 0.63814 0.96189 0.0
C1635 C 0.21536 0.66008 0.11208 0.0
C1636 C 0.23659 0.6512 0.0239 0.0
H1637 H 0.25874 0.62304 0.96818 0.0
C1638 C 0.24296 0.6676 0.01081 0.0
C1639 C 0.2426 0.63491 0.00893 0.0
C1640 C 0.23679 0.61691 0.02311 0.0
C1641 C 0.25488 0.66816 0.98243 0.0
C1642 C 0.26032 0.6519 0.96656 0.0
C1643 C 0.25435 0.63547 0.98025 0.0
C1644 C 0.27217 0.65173 0.93557 0.0
C1645 C 0.26161 0.68614 0.96975 0.0
C1646 C 0.26634 0.65927 0.90392 0.0
C1647 C 0.27775 0.6597 0.87496 0.0
C1648 C 0.29522 0.65255 0.87713 0.0
C1649 C 0.30081 0.64456 0.90873 0.0
C1650 C 0.28934 0.64412 0.93766 0.0
H1651 H 0.25971 0.6968 0.98975 0.0
H1652 H 0.27607 0.68543 0.9628 0.0
H1653 H 0.25403 0.69009 0.94594 0.0
H1654 H 0.25298 0.66492 0.90169 0.0
H1655 H 0.27293 0.66583 0.85101 0.0
H1656 H 0.11274 0.42922 0.81172 0.0
H1657 H 0.11837 0.45012 0.76361 0.0
H1658 H 0.10173 0.49435 0.82886 0.0
H1659 H 0.09588 0.47363 0.87699 0.0
H1660 H 0.08319 0.49186 0.76606 0.0
H1661 H 0.15685 0.4885 0.74414 0.0
H1662 H 0.14579 0.46707 0.74596 0.0
H1663 H 0.1464 0.48104 0.78429 0.0
C1664 C 0.1106 0.44343 0.8161 0.0
C1665 C 0.10367 0.44972 0.84811 0.0
C1666 C 0.11393 0.45536 0.78861 0.0
C1667 C 0.11057 0.47376 0.79282 0.0
C1668 C 0.10443 0.48018 0.82518 0.0
H1669 H 0.12444 0.56294 0.64999 0.0
H1670 H 0.12671 0.54179 0.69874 0.0
C1671 C 0.10105 0.46829 0.85261 0.0
C1672 C 0.11147 0.48605 0.7625 0.0
H1673 H 0.13951 0.50339 0.70036 0.0
C1674 C 0.09552 0.49445 0.7518 0.0
C1675 C 0.1276 0.4894 0.74409 0.0
C1676 C 0.14519 0.48117 0.75531 0.0
C1677 C 0.0952 0.50598 0.72288 0.0
C1678 C 0.11121 0.50899 0.70395 0.0
C1679 C 0.12725 0.50083 0.71485 0.0
C1680 C 0.11142 0.5209 0.67313 0.0
C1681 C 0.07778 0.515 0.7129 0.0
C1682 C 0.1024 0.5159 0.64245 0.0
C1683 C 0.10103 0.52792 0.61453 0.0
C1684 C 0.10865 0.54518 0.61692 0.0
C1685 C 0.11828 0.54984 0.64733 0.0
C1686 C 0.11968 0.53776 0.67517 0.0
H1687 H 0.06755 0.51394 0.73398 0.0
H1688 H 0.08003 0.52942 0.70691 0.0
H1689 H 0.0723 0.50852 0.68902 0.0
H1690 H 0.09606 0.50285 0.64044 0.0
H1691 H 0.09364 0.52382 0.59145 0.0
H1692 H 0.19326 0.376 0.41277 0.0
H1693 H 0.21374 0.38203 0.46147 0.0
H1694 H 0.24709 0.33766 0.42892 0.0
H1695 H 0.2272 0.33211 0.37949 0.0
H1696 H 0.22052 0.36186 0.51466 0.0
H1697 H 0.28491 0.3738 0.44755 0.0
H1698 H 0.26385 0.37331 0.4242 0.0
H1699 H 0.27575 0.35275 0.43363 0.0
C1700 C 0.20514 0.36775 0.41569 0.0
C1701 C 0.20866 0.35361 0.39227 0.0
C1702 C 0.21683 0.3712 0.4435 0.0
C1703 C 0.23213 0.36049 0.44856 0.0
C1704 C 0.23573 0.3465 0.42495 0.0
H1705 H 0.28134 0.33066 0.64164 0.0
H1706 H 0.26188 0.33546 0.59105 0.0
C1707 C 0.22425 0.34324 0.39682 0.0
C1708 C 0.24345 0.36279 0.48018 0.0
H1709 H 0.28699 0.36339 0.50766 0.0
C1710 C 0.23505 0.36253 0.51311 0.0
C1711 C 0.26238 0.36408 0.47829 0.0
C1712 C 0.27219 0.36622 0.44396 0.0
C1713 C 0.24511 0.36255 0.54413 0.0
C1714 C 0.26408 0.36209 0.54212 0.0
C1715 C 0.27245 0.36336 0.50926 0.0
C1716 C 0.2755 0.35957 0.57352 0.0
C1717 C 0.23524 0.36308 0.57863 0.0
C1718 C 0.29004 0.37112 0.57985 0.0
C1719 C 0.30148 0.36808 0.60818 0.0
C1720 C 0.29849 0.35354 0.63092 0.0
C1721 C 0.28384 0.34209 0.62478 0.0
C1722 C 0.27262 0.34493 0.59604 0.0
H1723 H 0.22209 0.37 0.57592 0.0
H1724 H 0.23251 0.34914 0.58744 0.0
H1725 H 0.24318 0.37005 0.59914 0.0
H1726 H 0.29258 0.38245 0.56274 0.0
H1727 H 0.31262 0.37719 0.6124 0.0
H1728 H 0.10847 0.15641 0.46508 0.0
H1729 H 0.11685 0.18777 0.45467 0.0
H1730 H 0.13796 0.17332 0.35333 0.0
H1731 H 0.12925 0.14212 0.36314 0.0
H1732 H 0.14995 0.20222 0.4431 0.0
H1733 H 0.10593 0.21525 0.32895 0.0
H1734 H 0.1033 0.19575 0.35653 0.0
H1735 H 0.1201 0.19605 0.32264 0.0
C1736 C 0.11475 0.15996 0.44045 0.0
C1737 C 0.11809 0.14683 0.41481 0.0
C1738 C 0.11956 0.17786 0.43459 0.0
C1739 C 0.12775 0.18293 0.403 0.0
C1740 C 0.13124 0.1698 0.37752 0.0
H1741 H 0.1789 0.27677 0.31835 0.0
H1742 H 0.16962 0.24648 0.33497 0.0
C1743 C 0.12633 0.15195 0.38325 0.0
C1744 C 0.13323 0.20181 0.39704 0.0
H1745 H 0.12921 0.23669 0.3395 0.0
C1746 C 0.14527 0.20983 0.42066 0.0
C1747 C 0.12703 0.21175 0.36782 0.0
C1748 C 0.11323 0.20433 0.34274 0.0
C1749 C 0.15172 0.22732 0.41518 0.0
C1750 C 0.14596 0.23695 0.3854 0.0
C1751 C 0.1337 0.22911 0.36214 0.0
C1752 C 0.15262 0.25518 0.37759 0.0
C1753 C 0.16496 0.23531 0.44066 0.0
C1754 C 0.14621 0.27001 0.39637 0.0
C1755 C 0.15138 0.28738 0.38687 0.0
C1756 C 0.1631 0.29018 0.35844 0.0
C1757 C 0.16991 0.27516 0.34042 0.0
C1758 C 0.16461 0.25783 0.34979 0.0
H1759 H 0.16956 0.22539 0.46047 0.0
H1760 H 0.17684 0.24059 0.42639 0.0
H1761 H 0.15859 0.24677 0.4545 0.0
H1762 H 0.13684 0.26816 0.41777 0.0
H1763 H 0.1459 0.29862 0.40136 0.0
H1764 H 0.95159 0.87195 0.5931 0.0
H1765 H 0.98232 0.86219 0.60477 0.0
H1766 H 0.99924 0.91753 0.61162 0.0
H1767 H 0.96868 0.9273 0.59763 0.0
H1768 H 0.02218 0.90045 0.57568 0.0
H1769 H 0.00925 0.85915 0.69313 0.0
H1770 H 0.99639 0.85116 0.65672 0.0
H1771 H 0.99222 0.8733 0.67408 0.0
C1772 C 0.96185 0.88201 0.59747 0.0
C1773 C 0.95778 0.90038 0.5947 0.0
C1774 C 0.9794 0.87642 0.60442 0.0
C1775 C 0.99309 0.88909 0.60998 0.0
C1776 C 0.98894 0.90748 0.60758 0.0
H1777 H 0.09746 0.86108 0.6957 0.0
H1778 H 0.06631 0.8702 0.6864 0.0
C1779 C 0.97148 0.91306 0.59967 0.0
C1780 C 0.0119 0.88323 0.61637 0.0
H1781 H 0.03774 0.85485 0.66529 0.0
C1782 C 0.02558 0.89061 0.59555 0.0
C1783 C 0.01646 0.87058 0.64262 0.0
C1784 C 0.00281 0.86326 0.66813 0.0
C1785 C 0.04361 0.88565 0.6 0.0
C1786 C 0.04803 0.8722 0.62479 0.0
C1787 C 0.03437 0.86493 0.64586 0.0
C1788 C 0.06679 0.86595 0.63027 0.0
C1789 C 0.05771 0.89535 0.57876 0.0
C1790 C 0.07738 0.8601 0.60201 0.0
C1791 C 0.09535 0.85534 0.60718 0.0
C1792 C 0.10283 0.8557 0.64091 0.0
C1793 C 0.092 0.86063 0.66942 0.0
C1794 C 0.07419 0.86585 0.66411 0.0
H1795 H 0.05293 0.9088 0.57024 0.0
H1796 H 0.07032 0.89714 0.59388 0.0
H1797 H 0.06072 0.88746 0.55483 0.0
H1798 H 0.07182 0.85939 0.57586 0.0
H1799 H 0.10339 0.85138 0.58484 0.0
H1800 H 0.38646 0.85242 0.83058 0.0
H1801 H 0.37898 0.82088 0.82002 0.0
H1802 H 0.38739 0.80907 0.92934 0.0
H1803 H 0.39483 0.84061 0.94024 0.0
H1804 H 0.39994 0.78878 0.83487 0.0
H1805 H 0.33521 0.7918 0.90749 0.0
H1806 H 0.3469 0.8117 0.89299 0.0
H1807 H 0.35472 0.79961 0.9307 0.0
C1808 C 0.38679 0.84311 0.85236 0.0
C1809 C 0.39112 0.84901 0.88629 0.0
C1810 C 0.38255 0.8251 0.84626 0.0
C1811 C 0.38245 0.81275 0.87398 0.0
C1812 C 0.38718 0.81849 0.90771 0.0
H1813 H 0.37137 0.69624 0.85453 0.0
H1814 H 0.382 0.72636 0.86968 0.0
C1815 C 0.39148 0.83648 0.91384 0.0
C1816 C 0.37699 0.79395 0.86759 0.0
H1817 H 0.3437 0.76365 0.88446 0.0
C1818 C 0.38771 0.78322 0.84581 0.0
C1819 C 0.36092 0.78688 0.88171 0.0
C1820 C 0.34865 0.79808 0.90433 0.0
C1821 C 0.38274 0.76552 0.8377 0.0
C1822 C 0.36673 0.75842 0.85197 0.0
C1823 C 0.35604 0.76915 0.87381 0.0
C1824 C 0.36036 0.74017 0.84318 0.0
C1825 C 0.39438 0.75468 0.81322 0.0
C1826 C 0.34453 0.73803 0.82379 0.0
C1827 C 0.33839 0.72089 0.8151 0.0
C1828 C 0.34792 0.70553 0.82589 0.0
C1829 C 0.3637 0.70775 0.84573 0.0
C1830 C 0.36986 0.72494 0.85429 0.0
H1831 H 0.40443 0.76316 0.79949 0.0
H1832 H 0.40169 0.7443 0.82844 0.0
H1833 H 0.38601 0.7477 0.79337 0.0
H1834 H 0.33699 0.74965 0.8151 0.0
H1835 H 0.32617 0.71973 0.79987 0.0
H1836 H 0.39912 0.13569 0.08289 0.0
H1837 H 0.43034 0.1277 0.07027 0.0
H1838 H 0.44396 0.13505 0.17906 0.0
H1839 H 0.41274 0.14299 0.19201 0.0
H1840 H 0.46295 0.14789 0.08342 0.0
H1841 H 0.46016 0.08288 0.1551 0.0
H1842 H 0.44021 0.09499 0.14224 0.0
H1843 H 0.45309 0.10236 0.17927 0.0
C1844 C 0.40876 0.13567 0.10413 0.0
C1845 C 0.40345 0.13986 0.13849 0.0
C1846 C 0.42658 0.13114 0.09685 0.0
C1847 C 0.43936 0.1306 0.12381 0.0
C1848 C 0.43421 0.13517 0.158 0.0
H1849 H 0.55541 0.11829 0.09836 0.0
H1850 H 0.52555 0.12932 0.11434 0.0
C1851 C 0.4164 0.13976 0.1653 0.0
C1852 C 0.45797 0.12488 0.11614 0.0
H1853 H 0.48811 0.09116 0.13085 0.0
C1854 C 0.46851 0.13554 0.09387 0.0
C1855 C 0.46506 0.10867 0.1296 0.0
C1856 C 0.45405 0.09644 0.15268 0.0
C1857 C 0.48603 0.13039 0.08468 0.0
C1858 C 0.49315 0.11424 0.09836 0.0
C1859 C 0.48261 0.1036 0.12063 0.0
C1860 C 0.51126 0.10773 0.08869 0.0
C1861 C 0.49664 0.14199 0.05975 0.0
C1862 C 0.51307 0.09181 0.06944 0.0
C1863 C 0.53006 0.08544 0.06028 0.0
C1864 C 0.54563 0.09481 0.07046 0.0
C1865 C 0.54374 0.11073 0.09002 0.0
C1866 C 0.52669 0.11712 0.09905 0.0
H1867 H 0.48804 0.15208 0.04641 0.0
H1868 H 0.50721 0.14925 0.07454 0.0
H1869 H 0.50337 0.13361 0.03959 0.0
H1870 H 0.50129 0.08436 0.06131 0.0
H1871 H 0.53095 0.07314 0.04528 0.0
H1872 H 0.15868 0.71776 0.20155 0.0
H1873 H 0.14796 0.7481 0.18936 0.0
H1874 H 0.11535 0.72788 0.10479 0.0
H1875 H 0.12571 0.69738 0.11714 0.0
H1876 H 0.15163 0.76776 0.1293 0.0
H1877 H 0.07941 0.75763 0.15997 0.0
H1878 H 0.09648 0.7416 0.17219 0.0
H1879 H 0.08825 0.74234 0.12796 0.0
C1880 C 0.14919 0.71971 0.18039 0.0
C1881 C 0.14303 0.70509 0.16038 0.0
C1882 C 0.14306 0.73707 0.1735 0.0
C1883 C 0.13066 0.7402 0.14653 0.0
C1884 C 0.1246 0.7257 0.12626 0.0
H1885 H 0.08795 0.84087 0.06325 0.0
H1886 H 0.09561 0.80914 0.0722 0.0
C1887 C 0.13064 0.70829 0.13324 0.0
C1888 C 0.1246 0.75876 0.13902 0.0
H1889 H 0.08754 0.78578 0.13554 0.0
C1890 C 0.13762 0.7717 0.13071 0.0
C1891 C 0.10629 0.76383 0.14079 0.0
C1892 C 0.09179 0.75068 0.15101 0.0
C1893 C 0.13284 0.78959 0.12414 0.0
C1894 C 0.1146 0.79468 0.1262 0.0
C1895 C 0.10151 0.78174 0.13394 0.0
C1896 C 0.10904 0.81357 0.12165 0.0
C1897 C 0.14732 0.80297 0.11496 0.0
C1898 C 0.11374 0.82639 0.14691 0.0
C1899 C 0.10933 0.84443 0.142 0.0
C1900 C 0.10017 0.84997 0.11168 0.0
C1901 C 0.09505 0.83701 0.08682 0.0
C1902 C 0.0994 0.81891 0.09187 0.0
H1903 H 0.16008 0.79626 0.10744 0.0
H1904 H 0.14292 0.81176 0.09309 0.0
H1905 H 0.15002 0.81164 0.13801 0.0
H1906 H 0.12102 0.82244 0.17024 0.0
H1907 H 0.11342 0.85406 0.16169 0.0
H1908 H 0.53233 0.92776 0.4514 0.0
H1909 H 0.50266 0.91693 0.43428 0.0
H1910 H 0.52681 0.8715 0.38257 0.0
H1911 H 0.55666 0.88215 0.39957 0.0
H1912 H 0.49041 0.90996 0.36343 0.0
H1913 H 0.48801 0.84975 0.4497 0.0
H1914 H 0.50339 0.86811 0.45713 0.0
H1915 H 0.5077 0.85223 0.42282 0.0
C1916 C 0.53141 0.91542 0.43647 0.0
C1917 C 0.54694 0.90582 0.42692 0.0
C1918 C 0.51442 0.90929 0.42669 0.0
C1919 C 0.51258 0.89336 0.40747 0.0
C1920 C 0.52798 0.88372 0.3978 0.0
H1921 H 0.41519 0.85841 0.29997 0.0
H1922 H 0.44634 0.86593 0.3145 0.0
C1923 C 0.54502 0.88989 0.40742 0.0
C1924 C 0.49451 0.88712 0.39703 0.0
H1925 H 0.46347 0.85419 0.41142 0.0
C1926 C 0.48452 0.89774 0.37376 0.0
C1927 C 0.4869 0.87124 0.41084 0.0
C1928 C 0.49694 0.85968 0.43672 0.0
C1929 C 0.46703 0.89289 0.36393 0.0
C1930 C 0.45944 0.87695 0.37758 0.0
C1931 C 0.46943 0.86633 0.40085 0.0
C1932 C 0.44085 0.87153 0.36904 0.0
C1933 C 0.45661 0.90505 0.33969 0.0
C1934 C 0.4276 0.87181 0.39511 0.0
C1935 C 0.40982 0.86755 0.38693 0.0
C1936 C 0.40503 0.86279 0.35254 0.0
C1937 C 0.41845 0.86208 0.32667 0.0
C1938 C 0.43622 0.86642 0.33486 0.0
H1939 H 0.46309 0.91841 0.33677 0.0
H1940 H 0.45579 0.89875 0.3134 0.0
H1941 H 0.4427 0.907 0.34944 0.0
H1942 H 0.43096 0.87567 0.42167 0.0
H1943 H 0.3998 0.86815 0.40746 0.0
H1944 H 0.38594 0.14885 0.66084 0.0
H1945 H 0.37833 0.17995 0.6754 0.0
H1946 H 0.38658 0.19539 0.56777 0.0
H1947 H 0.39416 0.16432 0.5529 0.0
H1948 H 0.39929 0.21238 0.66474 0.0
H1949 H 0.33459 0.21225 0.59188 0.0
H1950 H 0.34619 0.19184 0.60375 0.0
H1951 H 0.35399 0.20509 0.56754 0.0
C1952 C 0.38619 0.15887 0.64028 0.0
C1953 C 0.39055 0.15412 0.60568 0.0
C1954 C 0.38187 0.17662 0.64866 0.0
C1955 C 0.3817 0.18987 0.62257 0.0
C1956 C 0.38641 0.18527 0.58816 0.0
H1957 H 0.37321 0.30576 0.65226 0.0
H1958 H 0.38304 0.27561 0.63547 0.0
C1959 C 0.3908 0.16754 0.57977 0.0
C1960 C 0.37634 0.20847 0.63134 0.0
H1961 H 0.3436 0.23975 0.61729 0.0
C1962 C 0.38715 0.21842 0.65434 0.0
C1963 C 0.3604 0.21616 0.61794 0.0
C1964 C 0.348 0.20579 0.59411 0.0
C1965 C 0.38247 0.23597 0.66416 0.0
C1966 C 0.36664 0.24375 0.6504 0.0
C1967 C 0.35579 0.23376 0.62755 0.0
C1968 C 0.36076 0.26202 0.66036 0.0
C1969 C 0.39425 0.24595 0.68974 0.0
C1970 C 0.34483 0.26434 0.67936 0.0
C1971 C 0.33915 0.28152 0.68899 0.0
C1972 C 0.34923 0.29676 0.67951 0.0
C1973 C 0.36512 0.29436 0.66007 0.0
C1974 C 0.37082 0.27713 0.65058 0.0
H1975 H 0.40389 0.23687 0.70314 0.0
H1976 H 0.40204 0.25634 0.67548 0.0
H1977 H 0.38597 0.25285 0.70984 0.0
H1978 H 0.33685 0.25282 0.68702 0.0
H1979 H 0.32683 0.28281 0.70387 0.0
H1980 H 0.08621 0.13733 0.80796 0.0
H1981 H 0.05457 0.13099 0.81946 0.0
H1982 H 0.06571 0.12728 0.93003 0.0
H1983 H 0.09748 0.13373 0.91881 0.0
H1984 H 0.0407 0.09979 0.85264 0.0
H1985 H 0.02253 0.16243 0.92341 0.0
H1986 H 0.04247 0.16056 0.89673 0.0
H1987 H 0.04201 0.1509 0.93982 0.0
C1988 C 0.08194 0.13528 0.83478 0.0
C1989 C 0.09433 0.13606 0.86252 0.0
C1990 C 0.06386 0.13165 0.84126 0.0
C1991 C 0.05781 0.12887 0.87558 0.0
C1992 C 0.0701 0.12968 0.9034 0.0
H1993 H 0.96049 0.07806 0.9468 0.0
H1994 H 0.99133 0.0865 0.933 0.0
C1995 C 0.08824 0.13327 0.89693 0.0
C1996 C 0.03875 0.1244 0.88199 0.0
H1997 H 0.00065 0.13923 0.92241 0.0
C1998 C 0.03191 0.10842 0.8678 0.0
C1999 C 0.02732 0.13582 0.90143 0.0
C2000 C 0.03385 0.15348 0.91602 0.0
C2001 C 0.01399 0.10337 0.87314 0.0
C2002 C 0.0027 0.11453 0.89343 0.0
C2003 C 0.00942 0.13068 0.90703 0.0
C2004 C 0.98396 0.10944 0.90137 0.0
C2005 C 0.0072 0.08619 0.85688 0.0
C2006 C 0.96963 0.11972 0.88847 0.0
C2007 C 0.95192 0.11493 0.89624 0.0
C2008 C 0.94827 0.09987 0.91737 0.0
C2009 C 0.96275 0.08969 0.93036 0.0
C2010 C 0.98041 0.09445 0.92243 0.0
H2011 H 0.0162 0.08137 0.83567 0.0
H2012 H 0.00651 0.0756 0.87729 0.0
H2013 H 0.99349 0.08806 0.84602 0.0
H2014 H 0.97217 0.13139 0.87228 0.0
H2015 H 0.94112 0.12313 0.88596 0.0
H2016 H 0.84507 0.71699 0.70064 0.0
H2017 H 0.8539 0.74725 0.68309 0.0
H2018 H 0.88488 0.72552 0.59773 0.0
H2019 H 0.87621 0.69501 0.61509 0.0
H2020 H 0.89432 0.75872 0.67134 0.0
H2021 H 0.84726 0.76608 0.55863 0.0
H2022 H 0.84226 0.75136 0.59498 0.0
H2023 H 0.85947 0.74536 0.56437 0.0
C2024 C 0.85371 0.71857 0.67803 0.0
C2025 C 0.85989 0.70353 0.65922 0.0
C2026 C 0.85876 0.73588 0.66813 0.0
C2027 C 0.86993 0.73853 0.6391 0.0
C2028 C 0.87615 0.72366 0.62014 0.0
H2029 H 0.90003 0.84168 0.54585 0.0
H2030 H 0.89548 0.80948 0.55576 0.0
C2031 C 0.87121 0.70627 0.63016 0.0
C2032 C 0.87524 0.75693 0.6292 0.0
H2033 H 0.86494 0.79115 0.5733 0.0
C2034 C 0.88804 0.76582 0.64976 0.0
C2035 C 0.86707 0.76597 0.60088 0.0
C2036 C 0.85319 0.75683 0.57831 0.0
C2037 C 0.89272 0.78373 0.64303 0.0
C2038 C 0.88398 0.79309 0.61562 0.0
C2039 C 0.87156 0.78398 0.59439 0.0
C2040 C 0.88694 0.81253 0.6096 0.0
C2041 C 0.90704 0.79242 0.66528 0.0
C2042 C 0.88336 0.82493 0.63637 0.0
C2043 C 0.88603 0.84326 0.63087 0.0
C2044 C 0.8921 0.84959 0.59829 0.0
C2045 C 0.89538 0.8372 0.57126 0.0
C2046 C 0.89279 0.81881 0.57687 0.0
H2047 H 0.91619 0.78224 0.67688 0.0
H2048 H 0.91516 0.80209 0.64983 0.0
H2049 H 0.90056 0.79979 0.68714 0.0
H2050 H 0.87836 0.82043 0.66152 0.0
H2051 H 0.88323 0.85247 0.65213 0.0
H2052 H 0.91044 0.12772 0.29902 0.0
H2053 H 0.94167 0.11951 0.31099 0.0
H2054 H 0.93459 0.13429 0.4194 0.0
H2055 H 0.90309 0.14148 0.40791 0.0
H2056 H 0.96957 0.13703 0.33149 0.0
H2057 H 0.95512 0.08582 0.43247 0.0
H2058 H 0.93764 0.09589 0.40642 0.0
H2059 H 0.94618 0.10726 0.44465 0.0
C2060 C 0.91555 0.12911 0.32544 0.0
C2061 C 0.90432 0.13501 0.35265 0.0
C2062 C 0.9334 0.12445 0.33225 0.0
C2063 C 0.94043 0.12586 0.3663 0.0
C2064 C 0.92936 0.13244 0.39321 0.0
H2065 H 0.05532 0.12553 0.41299 0.0
H2066 H 0.02467 0.13406 0.39673 0.0
C2067 C 0.91139 0.13668 0.38658 0.0
C2068 C 0.95935 0.12061 0.37348 0.0
H2069 H 0.98554 0.09546 0.42799 0.0
C2070 C 0.97305 0.12781 0.35242 0.0
C2071 C 0.96393 0.10832 0.40034 0.0
C2072 C 0.94991 0.09873 0.42196 0.0
C2073 C 0.99116 0.12325 0.35769 0.0
C2074 C 0.9958 0.11173 0.3858 0.0
C2075 C 0.98207 0.10443 0.40664 0.0
C2076 C 0.0147 0.10674 0.39397 0.0
C2077 C 0.00498 0.13044 0.3324 0.0
C2078 C 0.01929 0.08861 0.39883 0.0
C2079 C 0.0366 0.08379 0.40926 0.0
C2080 C 0.04981 0.09698 0.41439 0.0
C2081 C 0.04543 0.11509 0.40869 0.0
C2082 C 0.02794 0.11996 0.39914 0.0
H2083 H 0.99886 0.13364 0.3066 0.0
H2084 H 0.01072 0.14305 0.34304 0.0
H2085 H 0.01605 0.12069 0.3282 0.0
H2086 H 0.00938 0.07814 0.39502 0.0
H2087 H 0.03965 0.06972 0.4134 0.0
H2088 H 0.68511 0.27675 0.12498 0.0
H2089 H 0.67881 0.24603 0.10563 0.0
H2090 H 0.62216 0.25827 0.1024 0.0
H2091 H 0.62848 0.2891 0.1197 0.0
H2092 H 0.66181 0.22104 0.13659 0.0
H2093 H 0.62606 0.2328 0.01238 0.0
H2094 H 0.63785 0.25053 0.03484 0.0
H2095 H 0.61512 0.24483 0.04689 0.0
C2096 C 0.67136 0.27293 0.11949 0.0
C2097 C 0.65731 0.28535 0.12353 0.0
C2098 C 0.66776 0.25538 0.10848 0.0
C2099 C 0.65003 0.24987 0.10182 0.0
C2100 C 0.63601 0.2623 0.10602 0.0
H2101 H 0.61076 0.14186 0.12722 0.0
H2102 H 0.62084 0.17291 0.13367 0.0
C2103 C 0.63963 0.27992 0.11622 0.0
C2104 C 0.64598 0.23081 0.09331 0.0
H2105 H 0.62044 0.20418 0.04033 0.0
C2106 C 0.65299 0.21736 0.11517 0.0
C2107 C 0.63478 0.22585 0.06495 0.0
C2108 C 0.62822 0.23928 0.03824 0.0
C2109 C 0.64855 0.19922 0.11034 0.0
C2110 C 0.63609 0.19446 0.0839 0.0
C2111 C 0.62968 0.20781 0.06111 0.0
C2112 C 0.62937 0.1758 0.07969 0.0
C2113 C 0.65749 0.18541 0.13343 0.0
C2114 C 0.62983 0.16737 0.04679 0.0
C2115 C 0.6235 0.14981 0.04283 0.0
C2116 C 0.61682 0.14031 0.07181 0.0
C2117 C 0.61607 0.14882 0.10456 0.0
C2118 C 0.62201 0.1665 0.10833 0.0
H2119 H 0.67082 0.19017 0.14266 0.0
H2120 H 0.64905 0.18305 0.15693 0.0
H2121 H 0.65938 0.17245 0.11952 0.0
H2122 H 0.63531 0.17429 0.02423 0.0
H2123 H 0.62425 0.14354 0.01729 0.0
H2124 H 0.5989 0.87358 0.78668 0.0
H2125 H 0.56756 0.88229 0.79594 0.0
H2126 H 0.57125 0.86524 0.90376 0.0
H2127 H 0.60284 0.85752 0.89508 0.0
H2128 H 0.53883 0.86487 0.81228 0.0
H2129 H 0.55132 0.91393 0.91801 0.0
H2130 H 0.56932 0.90406 0.89304 0.0
H2131 H 0.55971 0.89221 0.92972 0.0
C2132 C 0.59301 0.87179 0.81239 0.0
C2133 C 0.6033 0.86509 0.84029 0.0
C2134 C 0.57511 0.87675 0.81766 0.0
C2135 C 0.56713 0.87485 0.85079 0.0
C2136 C 0.57726 0.86748 0.87831 0.0
H2137 H 0.45206 0.87325 0.88865 0.0
H2138 H 0.48315 0.86582 0.87398 0.0
C2139 C 0.59526 0.86292 0.87327 0.0
C2140 C 0.54816 0.88031 0.8564 0.0
H2141 H 0.52092 0.90436 0.91076 0.0
C2142 C 0.53493 0.87365 0.83362 0.0
C2143 C 0.54307 0.89208 0.88376 0.0
C2144 C 0.55664 0.90113 0.90724 0.0
C2145 C 0.51675 0.87814 0.83785 0.0
C2146 C 0.51154 0.88896 0.86659 0.0
C2147 C 0.52482 0.89588 0.88896 0.0
C2148 C 0.49246 0.8934 0.87413 0.0
C2149 C 0.50346 0.87153 0.81093 0.0
C2150 C 0.48739 0.9113 0.88029 0.0
C2151 C 0.46979 0.91548 0.88984 0.0
C2152 C 0.45682 0.90188 0.89279 0.0
C2153 C 0.46176 0.88402 0.88603 0.0
C2154 C 0.4795 0.87978 0.87736 0.0
H2155 H 0.51006 0.86913 0.78526 0.0
H2156 H 0.4977 0.85856 0.81981 0.0
H2157 H 0.49234 0.88126 0.80704 0.0
H2158 H 0.49712 0.92206 0.87805 0.0
H2159 H 0.4663 0.92937 0.89483 0.0
H2160 H 0.86829 0.302 0.84725 0.0
H2161 H 0.87695 0.27186 0.86632 0.0
H2162 H 0.83161 0.2495 0.81134 0.0
H2163 H 0.82273 0.2795 0.79222 0.0
H2164 H 0.83637 0.23671 0.88164 0.0
H2165 H 0.89879 0.2324 0.80204 0.0
H2166 H 0.89664 0.25198 0.82926 0.0
H2167 H 0.8814 0.24873 0.7934 0.0
C2168 C 0.86013 0.2907 0.83919 0.0
C2169 C 0.84482 0.29322 0.81808 0.0
C2170 C 0.86516 0.27347 0.85 0.0
C2171 C 0.85503 0.25848 0.83988 0.0
C2172 C 0.83964 0.26093 0.81929 0.0
H2173 H 0.8787 0.14523 0.84189 0.0
H2174 H 0.87182 0.17646 0.82713 0.0
C2175 C 0.83461 0.27811 0.80837 0.0
C2176 C 0.86034 0.24017 0.85087 0.0
H2177 H 0.89274 0.20819 0.8403 0.0
C2178 C 0.84872 0.23047 0.87274 0.0
C2179 C 0.87637 0.23208 0.83888 0.0
C2180 C 0.889 0.24172 0.81437 0.0
C2181 C 0.85273 0.21282 0.88302 0.0
C2182 C 0.86885 0.20478 0.87132 0.0
C2183 C 0.88046 0.21448 0.8494 0.0
C2184 C 0.87356 0.18605 0.88048 0.0
C2185 C 0.83949 0.20275 0.9056 0.0
C2186 C 0.87708 0.1812 0.91531 0.0
C2187 C 0.88104 0.16338 0.92384 0.0
C2188 C 0.88156 0.15012 0.89764 0.0
C2189 C 0.87834 0.15511 0.86269 0.0
C2190 C 0.87443 0.17294 0.85419 0.0
H2191 H 0.82617 0.20946 0.90634 0.0
H2192 H 0.83769 0.1888 0.89594 0.0
H2193 H 0.84472 0.20203 0.93278 0.0
H2194 H 0.87671 0.19121 0.93589 0.0
H2195 H 0.88353 0.15997 0.95098 0.0
H2196 H 0.59577 0.13615 0.71123 0.0
H2197 H 0.56388 0.13 0.70107 0.0
H2198 H 0.57395 0.12533 0.59027 0.0
H2199 H 0.60582 0.13151 0.60009 0.0
H2200 H 0.54379 0.14773 0.60954 0.0
H2201 H 0.54234 0.08036 0.67265 0.0
H2202 H 0.55184 0.09831 0.69814 0.0
H2203 H 0.56298 0.09101 0.65899 0.0
C2204 C 0.59121 0.13377 0.68471 0.0
C2205 C 0.60331 0.13424 0.65646 0.0
C2206 C 0.57301 0.13021 0.67899 0.0
C2207 C 0.56664 0.12705 0.64498 0.0
C2208 C 0.57865 0.12768 0.61672 0.0
H2209 H 0.46994 0.08131 0.56317 0.0
H2210 H 0.50043 0.08894 0.58113 0.0
C2211 C 0.59685 0.13118 0.6224 0.0
C2212 C 0.54743 0.12324 0.63862 0.0
H2213 H 0.5148 0.09173 0.65153 0.0
C2214 C 0.53739 0.13555 0.61885 0.0
C2215 C 0.53924 0.10726 0.65065 0.0
C2216 C 0.54962 0.09336 0.67108 0.0
C2217 C 0.51933 0.13225 0.61059 0.0
C2218 C 0.51113 0.11629 0.62268 0.0
C2219 C 0.52114 0.10402 0.6426 0.0
C2220 C 0.49249 0.11157 0.61304 0.0
C2221 C 0.50928 0.14557 0.58815 0.0
C2222 C 0.47791 0.12166 0.62546 0.0
C2223 C 0.46039 0.11733 0.6153 0.0
C2224 C 0.45717 0.10282 0.59251 0.0
C2225 C 0.47187 0.0926 0.58062 0.0
C2226 C 0.48933 0.09691 0.59091 0.0
H2227 H 0.51841 0.15557 0.57593 0.0
H2228 H 0.50175 0.13854 0.56714 0.0
H2229 H 0.49942 0.1529 0.60459 0.0
H2230 H 0.48011 0.13292 0.64291 0.0
H2231 H 0.44941 0.12547 0.62502 0.0
H2232 H 0.62989 0.7097 0.37867 0.0
H2233 H 0.62261 0.74065 0.39389 0.0
H2234 H 0.6788 0.75464 0.38861 0.0
H2235 H 0.68604 0.72382 0.3712 0.0
H2236 H 0.6299 0.76222 0.44433 0.0
H2237 H 0.65925 0.79097 0.32333 0.0
H2238 H 0.6571 0.76713 0.32996 0.0
H2239 H 0.67557 0.77927 0.34919 0.0
C2240 C 0.64072 0.71935 0.38098 0.0
C2241 C 0.65852 0.71441 0.37343 0.0
C2242 C 0.63654 0.73705 0.38966 0.0
C2243 C 0.65009 0.75013 0.39155 0.0
C2244 C 0.66803 0.74497 0.38608 0.0
H2245 H 0.62614 0.85643 0.47867 0.0
H2246 H 0.63599 0.82534 0.47094 0.0
C2247 C 0.67218 0.72733 0.37648 0.0
C2248 C 0.64521 0.76916 0.3984 0.0
H2249 H 0.64924 0.81169 0.36604 0.0
C2250 C 0.63409 0.77304 0.42714 0.0
C2251 C 0.65041 0.78325 0.37564 0.0
C2252 C 0.66107 0.77995 0.34262 0.0
C2253 C 0.62787 0.79053 0.43356 0.0
C2254 C 0.63362 0.80472 0.41155 0.0
C2255 C 0.64491 0.80086 0.38307 0.0
C2256 C 0.62767 0.82359 0.41666 0.0
C2257 C 0.61465 0.79338 0.46301 0.0
C2258 C 0.62036 0.83326 0.38843 0.0
C2259 C 0.6153 0.85119 0.39252 0.0
C2260 C 0.61716 0.8597 0.42508 0.0
C2261 C 0.62433 0.85006 0.45342 0.0
C2262 C 0.62983 0.83225 0.44908 0.0
H2263 H 0.60734 0.7808 0.46948 0.0
H2264 H 0.62201 0.79765 0.48685 0.0
H2265 H 0.60463 0.80387 0.45631 0.0
H2266 H 0.61857 0.82692 0.36313 0.0
H2267 H 0.60979 0.85835 0.37027 0.0
H2268 H 0.89664 0.86936 0.22965 0.0
H2269 H 0.92755 0.87969 0.22156 0.0
H2270 H 0.92485 0.86517 0.11226 0.0
H2271 H 0.8936 0.85584 0.11986 0.0
H2272 H 0.95722 0.86459 0.20416 0.0
H2273 H 0.94208 0.91511 0.10249 0.0
H2274 H 0.92464 0.90368 0.1264 0.0
H2275 H 0.93491 0.89327 0.08874 0.0
C2276 C 0.90267 0.86841 0.20389 0.0
C2277 C 0.89271 0.862 0.17527 0.0
C2278 C 0.92032 0.87432 0.19929 0.0
C2279 C 0.92842 0.87367 0.16609 0.0
C2280 C 0.91871 0.86647 0.13783 0.0
H2281 H 0.04239 0.87659 0.12466 0.0
H2282 H 0.01194 0.86857 0.14228 0.0
C2283 C 0.90091 0.86098 0.14224 0.0
C2284 C 0.94706 0.88033 0.16112 0.0
H2285 H 0.97298 0.90677 0.10852 0.0
C2286 C 0.96063 0.87397 0.18348 0.0
C2287 C 0.95152 0.89295 0.13476 0.0
C2288 C 0.93747 0.90179 0.11204 0.0
C2289 C 0.97857 0.87944 0.17954 0.0
C2290 C 0.98321 0.89099 0.15148 0.0
C2291 C 0.96954 0.89774 0.12978 0.0
C2292 C 0.0021 0.89596 0.14338 0.0
C2293 C 0.9922 0.873 0.20595 0.0
C2294 C 0.00671 0.91399 0.13717 0.0
C2295 C 0.02398 0.91854 0.12593 0.0
C2296 C 0.03707 0.90517 0.12134 0.0
C2297 C 0.03264 0.88721 0.12859 0.0
C2298 C 0.01525 0.88262 0.13893 0.0
H2299 H 0.98581 0.87029 0.2317 0.0
H2300 H 0.9982 0.86022 0.19666 0.0
H2301 H 0.00312 0.88297 0.20981 0.0
H2302 H 0.99683 0.92455 0.14032 0.0
H2303 H 0.02706 0.93248 0.12051 0.0
H2304 H 0.67109 0.78121 0.80763 0.0
H2305 H 0.65908 0.75139 0.82055 0.0
H2306 H 0.6132 0.77536 0.87105 0.0
H2307 H 0.62502 0.80529 0.85832 0.0
H2308 H 0.64957 0.73714 0.88959 0.0
H2309 H 0.59219 0.7397 0.79628 0.0
H2310 H 0.61137 0.75445 0.7927 0.0
H2311 H 0.59461 0.75849 0.82552 0.0
C2312 C 0.65844 0.78019 0.82149 0.0
C2313 C 0.64902 0.79569 0.83187 0.0
C2314 C 0.65162 0.76313 0.82886 0.0
C2315 C 0.6352 0.76123 0.8464 0.0
C2316 C 0.6258 0.77659 0.85708 0.0
H2317 H 0.59413 0.66205 0.93836 0.0
H2318 H 0.60197 0.69355 0.92786 0.0
C2319 C 0.63265 0.79368 0.84992 0.0
C2320 C 0.62804 0.74312 0.85386 0.0
H2321 H 0.59447 0.71393 0.83214 0.0
C2322 C 0.63749 0.73206 0.87719 0.0
C2323 C 0.61235 0.73658 0.83737 0.0
C2324 C 0.60205 0.74782 0.81135 0.0
C2325 C 0.63165 0.71455 0.8845 0.0
C2326 C 0.6159 0.70804 0.86818 0.0
C2327 C 0.60645 0.71908 0.8448 0.0
C2328 C 0.60961 0.68944 0.87381 0.0
C2329 C 0.64257 0.70297 0.90896 0.0
C2330 C 0.61081 0.67689 0.84655 0.0
C2331 C 0.60637 0.65892 0.85244 0.0
C2332 C 0.60054 0.65324 0.88565 0.0
C2333 C 0.59862 0.66601 0.91251 0.0
C2334 C 0.60315 0.68398 0.90663 0.0
H2335 H 0.65597 0.70889 0.91453 0.0
H2336 H 0.63529 0.70148 0.93415 0.0
H2337 H 0.64448 0.68935 0.89772 0.0
H2338 H 0.61572 0.6809 0.82101 0.0
H2339 H 0.60792 0.64941 0.83119 0.0
H2340 H 0.44612 0.37429 0.11593 0.0
H2341 H 0.47556 0.36159 0.12982 0.0
H2342 H 0.50137 0.40657 0.07966 0.0
H2343 H 0.47206 0.41944 0.06555 0.0
H2344 H 0.50379 0.35295 0.07922 0.0
H2345 H 0.52474 0.40288 0.1793 0.0
H2346 H 0.50157 0.39964 0.16676 0.0
H2347 H 0.51642 0.41223 0.13902 0.0
C2348 C 0.45803 0.38159 0.10803 0.0
C2349 C 0.4567 0.39795 0.08971 0.0
C2350 C 0.47483 0.37426 0.11594 0.0
C2351 C 0.49056 0.38325 0.10606 0.0
C2352 C 0.48933 0.39957 0.0879 0.0
H2353 H 0.60005 0.35229 0.07863 0.0
H2354 H 0.56826 0.3598 0.07239 0.0
C2355 C 0.47256 0.40686 0.07975 0.0
C2356 C 0.50833 0.37535 0.11375 0.0
H2357 H 0.54729 0.38299 0.1583 0.0
C2358 C 0.51327 0.35939 0.09674 0.0
C2359 C 0.52052 0.38372 0.13692 0.0
C2360 C 0.51556 0.40049 0.15684 0.0
C2361 C 0.53042 0.35193 0.10132 0.0
C2362 C 0.54288 0.36075 0.12331 0.0
C2363 C 0.5377 0.37633 0.14133 0.0
C2364 C 0.56168 0.35459 0.12663 0.0
C2365 C 0.53512 0.33477 0.08247 0.0
C2366 C 0.56848 0.34918 0.15923 0.0
C2367 C 0.58666 0.34485 0.16289 0.0
C2368 C 0.59834 0.3461 0.13406 0.0
C2369 C 0.59138 0.35117 0.10131 0.0
C2370 C 0.57321 0.35538 0.09764 0.0
H2371 H 0.52292 0.32734 0.07409 0.0
H2372 H 0.54307 0.33804 0.05873 0.0
H2373 H 0.54339 0.32587 0.09937 0.0
H2374 H 0.55978 0.34861 0.18194 0.0
H2375 H 0.59164 0.34106 0.18849 0.0
H2376 H 0.83718 0.21831 0.31427 0.0
H2377 H 0.84734 0.24817 0.33128 0.0
H2378 H 0.89012 0.22478 0.39218 0.0
H2379 H 0.88012 0.19467 0.37523 0.0
H2380 H 0.85138 0.26207 0.40163 0.0
H2381 H 0.91506 0.26166 0.32514 0.0
H2382 H 0.89693 0.24619 0.31636 0.0
H2383 H 0.91112 0.24287 0.35377 0.0
C2384 C 0.84877 0.21942 0.33126 0.0
C2385 C 0.85785 0.20403 0.34329 0.0
C2386 C 0.85452 0.23653 0.341 0.0
C2387 C 0.86953 0.23864 0.36271 0.0
C2388 C 0.87861 0.22339 0.37505 0.0
H2389 H 0.89871 0.34207 0.45667 0.0
H2390 H 0.8923 0.31006 0.44851 0.0
C2391 C 0.87282 0.20621 0.36543 0.0
C2392 C 0.87552 0.25691 0.37232 0.0
H2393 H 0.90862 0.28773 0.35778 0.0
C2394 C 0.86396 0.26766 0.39236 0.0
C2395 C 0.89186 0.26412 0.35984 0.0
C2396 C 0.90447 0.25322 0.33737 0.0
C2397 C 0.86822 0.2856 0.39988 0.0
C2398 C 0.88452 0.29286 0.38723 0.0
C2399 C 0.89619 0.28203 0.36758 0.0
C2400 C 0.88914 0.31199 0.39232 0.0
C2401 C 0.85497 0.29685 0.42022 0.0
C2402 C 0.88984 0.32352 0.36333 0.0
C2403 C 0.89349 0.34176 0.36787 0.0
C2404 C 0.89662 0.34876 0.4015 0.0
C2405 C 0.89628 0.33709 0.43045 0.0
C2406 C 0.89257 0.31883 0.42588 0.0
H2407 H 0.84167 0.2902 0.42253 0.0
H2408 H 0.86025 0.29918 0.44701 0.0
H2409 H 0.85312 0.31015 0.40754 0.0
H2410 H 0.88726 0.31845 0.33722 0.0
H2411 H 0.89373 0.35039 0.34504 0.0
H2412 H 0.90424 0.63228 0.59048 0.0
H2413 H 0.93555 0.62494 0.5771 0.0
H2414 H 0.94939 0.63099 0.68609 0.0
H2415 H 0.91811 0.6383 0.69979 0.0
H2416 H 0.96756 0.64604 0.59136 0.0
H2417 H 0.96722 0.57975 0.6586 0.0
H2418 H 0.94683 0.59134 0.64653 0.0
H2419 H 0.95944 0.59851 0.68407 0.0
C2420 C 0.91394 0.63206 0.61161 0.0
C2421 C 0.9087 0.63577 0.64622 0.0
C2422 C 0.93181 0.62791 0.6039 0.0
C2423 C 0.94469 0.62724 0.63068 0.0
C2424 C 0.93957 0.63121 0.66516 0.0
H2425 H 0.06107 0.62028 0.60492 0.0
H2426 H 0.03075 0.6294 0.62216 0.0
C2427 C 0.92172 0.63544 0.67289 0.0
C2428 C 0.96346 0.62229 0.62246 0.0
H2429 H 0.9949 0.58955 0.63515 0.0
C2430 C 0.97359 0.63373 0.60098 0.0
C2431 C 0.97116 0.60614 0.63488 0.0
C2432 C 0.96062 0.5931 0.65709 0.0
C2433 C 0.99132 0.62946 0.59164 0.0
C2434 C 0.99907 0.61339 0.60433 0.0
C2435 C 0.98892 0.60193 0.62573 0.0
C2436 C 0.01745 0.60785 0.59443 0.0
C2437 C 0.0015 0.64192 0.56762 0.0
C2438 C 0.01998 0.59254 0.57369 0.0
C2439 C 0.03724 0.58727 0.56378 0.0
C2440 C 0.05236 0.59714 0.57471 0.0
C2441 C 0.04976 0.61237 0.59598 0.0
C2442 C 0.03244 0.61767 0.60574 0.0
H2443 H 0.99253 0.65192 0.55494 0.0
H2444 H 0.01177 0.6493 0.58299 0.0
H2445 H 0.00856 0.63419 0.54692 0.0
H2446 H 0.00855 0.58476 0.56483 0.0
H2447 H 0.03869 0.57545 0.54749 0.0
H2448 H 0.67577 0.21494 0.66485 0.0
H2449 H 0.66419 0.24503 0.65268 0.0
H2450 H 0.60995 0.22468 0.65711 0.0
H2451 H 0.62159 0.19434 0.66688 0.0
H2452 H 0.61168 0.24728 0.60754 0.0
H2453 H 0.64445 0.27907 0.72132 0.0
H2454 H 0.66097 0.2692 0.69324 0.0
H2455 H 0.64465 0.25511 0.71484 0.0
C2456 C 0.66138 0.21694 0.66311 0.0
C2457 C 0.64955 0.2024 0.66696 0.0
C2458 C 0.65476 0.23416 0.65653 0.0
C2459 C 0.63616 0.23729 0.65508 0.0
C2460 C 0.62434 0.22267 0.65834 0.0
H2461 H 0.59892 0.34824 0.66841 0.0
H2462 H 0.60481 0.31653 0.68074 0.0
C2463 C 0.63099 0.20535 0.66391 0.0
C2464 C 0.62904 0.25574 0.6496 0.0
H2465 H 0.63346 0.29909 0.67708 0.0
C2466 C 0.61628 0.25858 0.62306 0.0
C2467 C 0.63463 0.27047 0.67037 0.0
C2468 C 0.64676 0.26826 0.70177 0.0
C2469 C 0.60937 0.27575 0.61607 0.0
C2470 C 0.61607 0.29069 0.63499 0.0
C2471 C 0.62846 0.28775 0.66215 0.0
C2472 C 0.61076 0.3095 0.62688 0.0
C2473 C 0.59471 0.27753 0.58901 0.0
C2474 C 0.61193 0.31616 0.59251 0.0
C2475 C 0.60798 0.33413 0.58533 0.0
C2476 C 0.60348 0.34593 0.61259 0.0
C2477 C 0.60238 0.33937 0.64696 0.0
C2478 C 0.60579 0.32127 0.65398 0.0
H2479 H 0.58666 0.265 0.58715 0.0
H2480 H 0.58549 0.28882 0.59511 0.0
H2481 H 0.60086 0.2799 0.56295 0.0
H2482 H 0.61638 0.30762 0.57129 0.0
H2483 H 0.6092 0.33896 0.55868 0.0
H2484 H 0.04717 0.38157 0.84661 0.0
H2485 H 0.01695 0.37304 0.8282 0.0
H2486 H 0.99501 0.41836 0.88387 0.0
H2487 H 0.02516 0.42711 0.90243 0.0
H2488 H 0.98884 0.36466 0.87609 0.0
H2489 H 0.97036 0.42046 0.78647 0.0
H2490 H 0.99335 0.41546 0.7981 0.0
H2491 H 0.97915 0.42737 0.82819 0.0
C2492 C 0.03599 0.38993 0.85454 0.0
C2493 C 0.03865 0.40504 0.8761 0.0
C2494 C 0.01872 0.38499 0.84401 0.0
C2495 C 0.00381 0.39514 0.85447 0.0
C2496 C 0.0064 0.4105 0.8751 0.0
H2497 H 0.89248 0.36553 0.87504 0.0
H2498 H 0.92389 0.3741 0.8838 0.0
C2499 C 0.02366 0.41543 0.88579 0.0
C2500 C 0.98545 0.38892 0.84607 0.0
H2501 H 0.94677 0.40086 0.80414 0.0
C2502 C 0.97967 0.3725 0.86017 0.0
C2503 C 0.97361 0.39913 0.82509 0.0
C2504 C 0.97942 0.41652 0.80829 0.0
C2505 C 0.96215 0.36623 0.85455 0.0
C2506 C 0.95012 0.37673 0.83457 0.0
C2507 C 0.95603 0.39292 0.81969 0.0
C2508 C 0.93124 0.37125 0.82928 0.0
C2509 C 0.95663 0.3484 0.86995 0.0
C2510 C 0.92499 0.36699 0.79566 0.0
C2511 C 0.90707 0.36205 0.79057 0.0
C2512 C 0.89508 0.36147 0.819 0.0
C2513 C 0.9014 0.36578 0.85265 0.0
C2514 C 0.91934 0.37063 0.85772 0.0
H2515 H 0.96844 0.34018 0.87764 0.0
H2516 H 0.94837 0.35078 0.89369 0.0
H2517 H 0.94839 0.34064 0.85103 0.0
H2518 H 0.93399 0.36747 0.77339 0.0
H2519 H 0.90258 0.35888 0.76431 0.0
H2520 H 0.86762 0.8016 0.14873 0.0
H2521 H 0.87677 0.77144 0.13065 0.0
H2522 H 0.83078 0.74897 0.1834 0.0
H2523 H 0.82143 0.77898 0.20156 0.0
H2524 H 0.8842 0.74102 0.17482 0.0
H2525 H 0.828 0.72858 0.08229 0.0
H2526 H 0.83388 0.75078 0.09748 0.0
H2527 H 0.82126 0.7359 0.12516 0.0
C2528 C 0.85938 0.79027 0.15642 0.0
C2529 C 0.84371 0.79277 0.17647 0.0
C2530 C 0.86467 0.77306 0.14609 0.0
C2531 C 0.85432 0.75806 0.15533 0.0
C2532 C 0.83878 0.76044 0.17554 0.0
H2533 H 0.88017 0.64508 0.15787 0.0
H2534 H 0.87324 0.67636 0.17215 0.0
C2535 C 0.83351 0.77761 0.18601 0.0
C2536 C 0.85989 0.73985 0.14438 0.0
H2537 H 0.8465 0.70359 0.09639 0.0
C2538 C 0.87603 0.73284 0.15753 0.0
C2539 C 0.84928 0.72935 0.12152 0.0
C2540 C 0.83221 0.73654 0.10548 0.0
C2541 C 0.88162 0.71537 0.14911 0.0
C2542 C 0.87067 0.70464 0.12726 0.0
C2543 C 0.85477 0.71182 0.11338 0.0
C2544 C 0.87537 0.68583 0.11874 0.0
C2545 C 0.89922 0.70855 0.16346 0.0
C2546 C 0.87858 0.68079 0.08392 0.0
C2547 C 0.8825 0.66293 0.07566 0.0
C2548 C 0.88312 0.6498 0.10209 0.0
C2549 C 0.87986 0.6549 0.13695 0.0
C2550 C 0.87599 0.67277 0.14519 0.0
H2551 H 0.908 0.71972 0.17239 0.0
H2552 H 0.89655 0.6997 0.18625 0.0
H2553 H 0.90655 0.70058 0.14347 0.0
H2554 H 0.87805 0.69068 0.06313 0.0
H2555 H 0.88491 0.65941 0.04855 0.0
H2556 H 0.60394 0.64512 0.422 0.0
H2557 H 0.57221 0.63769 0.43031 0.0
H2558 H 0.56125 0.65216 0.32311 0.0
H2559 H 0.59299 0.65965 0.31447 0.0
H2560 H 0.53979 0.6598 0.41763 0.0
H2561 H 0.54465 0.59837 0.33496 0.0
H2562 H 0.56419 0.60933 0.35303 0.0
H2563 H 0.55279 0.61899 0.31617 0.0
C2564 C 0.59476 0.64688 0.40026 0.0
C2565 C 0.60097 0.65285 0.36751 0.0
C2566 C 0.57665 0.64266 0.40509 0.0
C2567 C 0.56451 0.6442 0.37721 0.0
C2568 C 0.57051 0.65072 0.34481 0.0
H2569 H 0.44815 0.6292 0.39083 0.0
H2570 H 0.478 0.64101 0.37706 0.0
C2571 C 0.58861 0.65504 0.33999 0.0
C2572 C 0.54572 0.63829 0.38183 0.0
H2573 H 0.51638 0.60499 0.35946 0.0
C2574 C 0.53458 0.6479 0.40475 0.0
C2575 C 0.53913 0.62266 0.36518 0.0
C2576 C 0.55078 0.6116 0.34111 0.0
C2577 C 0.51695 0.64223 0.4116 0.0
C2578 C 0.51038 0.62659 0.39499 0.0
C2579 C 0.52149 0.61704 0.37193 0.0
C2580 C 0.49231 0.6194 0.40262 0.0
C2581 C 0.50562 0.65265 0.43727 0.0
C2582 C 0.49057 0.60321 0.42101 0.0
C2583 C 0.47358 0.59642 0.42898 0.0
C2584 C 0.45799 0.60563 0.41839 0.0
C2585 C 0.45984 0.62174 0.39939 0.0
C2586 C 0.47687 0.62857 0.39163 0.0
H2587 H 0.51361 0.66274 0.45196 0.0
H2588 H 0.49481 0.65979 0.42289 0.0
H2589 H 0.49913 0.6434 0.45627 0.0
H2590 H 0.50238 0.59593 0.42959 0.0
H2591 H 0.4727 0.58397 0.44354 0.0
H2592 H 0.39541 0.35389 0.15212 0.0
H2593 H 0.38921 0.32201 0.1615 0.0
H2594 H 0.37155 0.31718 0.05422 0.0
H2595 H 0.37883 0.3488 0.04424 0.0
H2596 H 0.36015 0.30414 0.16045 0.0
H2597 H 0.40375 0.27514 0.05789 0.0
H2598 H 0.40466 0.29857 0.06959 0.0
H2599 H 0.38784 0.29052 0.03946 0.0
C2600 C 0.39034 0.34595 0.1305 0.0
C2601 C 0.3877 0.35372 0.09742 0.0
C2602 C 0.3868 0.32774 0.13585 0.0
C2603 C 0.38024 0.31703 0.10838 0.0
C2604 C 0.3772 0.32493 0.0755 0.0
H2605 H 0.32465 0.21661 0.15102 0.0
H2606 H 0.33255 0.24759 0.13658 0.0
C2607 C 0.38119 0.34305 0.0699 0.0
C2608 C 0.3759 0.29782 0.11473 0.0
H2609 H 0.38187 0.2554 0.08281 0.0
C2610 C 0.36505 0.29349 0.1436 0.0
C2611 C 0.3825 0.28382 0.09317 0.0
C2612 C 0.39549 0.28723 0.06356 0.0
C2613 C 0.3605 0.27566 0.15136 0.0
C2614 C 0.3662 0.26177 0.12859 0.0
C2615 C 0.37723 0.26605 0.09995 0.0
C2616 C 0.36121 0.24269 0.13447 0.0
C2617 C 0.35007 0.27195 0.18451 0.0
C2618 C 0.37456 0.22936 0.13586 0.0
C2619 C 0.36998 0.21152 0.1429 0.0
C2620 C 0.35202 0.20677 0.14921 0.0
C2621 C 0.33863 0.21999 0.14679 0.0
C2622 C 0.34316 0.23772 0.13886 0.0
H2623 H 0.35205 0.28277 0.20416 0.0
H2624 H 0.33552 0.27139 0.17832 0.0
H2625 H 0.35411 0.25899 0.19654 0.0
H2626 H 0.38857 0.23282 0.13232 0.0
H2627 H 0.38057 0.20157 0.1447 0.0
H2628 H 0.39266 0.63279 0.88786 0.0
H2629 H 0.4241 0.62414 0.89596 0.0
H2630 H 0.43294 0.6282 0.78467 0.0
H2631 H 0.40149 0.63686 0.77624 0.0
H2632 H 0.44634 0.59555 0.81822 0.0
H2633 H 0.46827 0.6583 0.88444 0.0
H2634 H 0.44847 0.64796 0.90232 0.0
H2635 H 0.44795 0.65699 0.85872 0.0
C2636 C 0.4013 0.63191 0.8651 0.0
C2637 C 0.39463 0.63558 0.83142 0.0
C2638 C 0.41925 0.62702 0.8698 0.0
C2639 C 0.43082 0.6257 0.84094 0.0
C2640 C 0.42419 0.62921 0.80725 0.0
H2641 H 0.54699 0.61759 0.85277 0.0
H2642 H 0.51632 0.62504 0.83549 0.0
C2643 C 0.40626 0.6342 0.80253 0.0
C2644 C 0.44981 0.62049 0.84595 0.0
H2645 H 0.48894 0.63407 0.88407 0.0
C2646 C 0.45571 0.60398 0.83245 0.0
C2647 C 0.46198 0.63163 0.8642 0.0
C2648 C 0.45646 0.64979 0.87805 0.0
C2649 C 0.47345 0.59812 0.83753 0.0
C2650 C 0.48546 0.60902 0.85674 0.0
C2651 C 0.47965 0.62571 0.86949 0.0
C2652 C 0.50408 0.60332 0.8645 0.0
C2653 C 0.47924 0.58038 0.82218 0.0
C2654 C 0.50734 0.58851 0.8863 0.0
C2655 C 0.52487 0.5842 0.89635 0.0
C2656 C 0.53946 0.59467 0.88485 0.0
C2657 C 0.53612 0.6092 0.86214 0.0
C2658 C 0.51859 0.61352 0.85223 0.0
H2659 H 0.46991 0.57575 0.80135 0.0
H2660 H 0.49299 0.58134 0.81106 0.0
H2661 H 0.47944 0.57007 0.84317 0.0
H2662 H 0.49627 0.58064 0.89649 0.0
H2663 H 0.52689 0.57297 0.91394 0.0
H2664 H 0.11702 0.65495 0.52785 0.0
H2665 H 0.1248 0.68638 0.53901 0.0
H2666 H 0.13231 0.67441 0.64851 0.0
H2667 H 0.1245 0.64297 0.63768 0.0
H2668 H 0.11107 0.70602 0.63334 0.0
H2669 H 0.17638 0.70474 0.56261 0.0
H2670 H 0.15729 0.69651 0.53864 0.0
H2671 H 0.16502 0.68453 0.57655 0.0
C2672 C 0.1203 0.65901 0.55433 0.0
C2673 C 0.12022 0.64648 0.58189 0.0
C2674 C 0.12482 0.67693 0.56059 0.0
C2675 C 0.12933 0.6826 0.59448 0.0
C2676 C 0.12894 0.67022 0.62215 0.0
H2677 H 0.18043 0.77899 0.67005 0.0
H2678 H 0.17219 0.74831 0.65401 0.0
C2679 C 0.12449 0.65229 0.6159 0.0
C2680 C 0.13439 0.70148 0.60123 0.0
H2681 H 0.16675 0.73283 0.58461 0.0
C2682 C 0.12321 0.71192 0.62266 0.0
C2683 C 0.15032 0.70901 0.58744 0.0
C2684 C 0.16306 0.69813 0.56523 0.0
C2685 C 0.12752 0.72981 0.63055 0.0
C2686 C 0.14333 0.73741 0.61639 0.0
C2687 C 0.15456 0.72694 0.59514 0.0
C2688 C 0.14869 0.75607 0.62437 0.0
C2689 C 0.11533 0.74035 0.65453 0.0
C2690 C 0.13838 0.77057 0.61235 0.0
C2691 C 0.14305 0.78814 0.62135 0.0
C2692 C 0.15814 0.79152 0.64258 0.0
C2693 C 0.16869 0.77692 0.65378 0.0
C2694 C 0.16404 0.75937 0.64463 0.0
H2695 H 0.10569 0.73153 0.66859 0.0
H2696 H 0.12331 0.74796 0.67411 0.0
H2697 H 0.10753 0.75017 0.63883 0.0
H2698 H 0.12662 0.76826 0.59628 0.0
H2699 H 0.13463 0.79902 0.61216 0.0
H2700 H 0.0982 0.34603 0.30907 0.0
H2701 H 0.06674 0.35405 0.3192 0.0
H2702 H 0.07921 0.36809 0.42598 0.0
H2703 H 0.11071 0.3601 0.41617 0.0
H2704 H 0.04633 0.34675 0.41489 0.0
H2705 H 0.05111 0.40796 0.3317 0.0
H2706 H 0.05873 0.38733 0.3122 0.0
H2707 H 0.07067 0.39661 0.3488 0.0
C2708 C 0.09422 0.35064 0.33482 0.0
C2709 C 0.10694 0.35255 0.36178 0.0
C2710 C 0.07628 0.35528 0.34049 0.0
C2711 C 0.07078 0.36186 0.37317 0.0
C2712 C 0.08327 0.3631 0.40054 0.0
H2713 H 0.97624 0.42143 0.43356 0.0
H2714 H 0.00671 0.41058 0.42254 0.0
C2715 C 0.10124 0.35854 0.39486 0.0
C2716 C 0.05214 0.36806 0.37854 0.0
H2717 H 0.02257 0.40096 0.35503 0.0
C2718 C 0.04108 0.35856 0.40178 0.0
C2719 C 0.0455 0.3836 0.36164 0.0
C2720 C 0.05711 0.3946 0.33736 0.0
C2721 C 0.02339 0.36413 0.40832 0.0
C2722 C 0.01667 0.37952 0.39102 0.0
C2723 C 0.02779 0.3891 0.36803 0.0
C2724 C 0.99821 0.3861 0.397 0.0
C2725 C 0.01209 0.35375 0.43412 0.0
C2726 C 0.98341 0.37602 0.38573 0.0
C2727 C 0.96597 0.38219 0.39179 0.0
C2728 C 0.96303 0.39858 0.4093 0.0
C2729 C 0.97798 0.40875 0.42008 0.0
C2730 C 0.9954 0.40259 0.41382 0.0
H2731 H 0.02031 0.3444 0.45017 0.0
H2732 H 0.0048 0.36304 0.45188 0.0
H2733 H 0.00196 0.34574 0.41964 0.0
H2734 H 0.98536 0.36336 0.37227 0.0
H2735 H 0.95481 0.374 0.38309 0.0
H2736 H 0.38696 0.64896 0.35395 0.0
H2737 H 0.38073 0.6808 0.34391 0.0
H2738 H 0.38523 0.69105 0.45468 0.0
H2739 H 0.39148 0.65917 0.46505 0.0
H2740 H 0.35392 0.70612 0.42089 0.0
H2741 H 0.41744 0.72284 0.35198 0.0
H2742 H 0.40586 0.70348 0.33522 0.0
H2743 H 0.41493 0.70301 0.37881 0.0
C2744 C 0.38668 0.65798 0.37619 0.0
C2745 C 0.38976 0.65157 0.41029 0.0
C2746 C 0.38321 0.67617 0.37037 0.0
C2747 C 0.38276 0.68826 0.39851 0.0
C2748 C 0.38564 0.6819 0.43262 0.0
H2749 H 0.37736 0.80503 0.37448 0.0
H2750 H 0.38549 0.77481 0.39426 0.0
C2751 C 0.38921 0.66371 0.43847 0.0
C2752 C 0.3788 0.70746 0.39228 0.0
H2753 H 0.39412 0.7447 0.34954 0.0
C2754 C 0.36276 0.71462 0.40555 0.0
C2755 C 0.39048 0.71852 0.37262 0.0
C2756 C 0.40823 0.71167 0.35905 0.0
C2757 C 0.35777 0.73244 0.39856 0.0
C2758 C 0.36908 0.74326 0.3776 0.0
C2759 C 0.38543 0.7363 0.36541 0.0
C2760 C 0.36382 0.76159 0.36676 0.0
C2761 C 0.34041 0.73955 0.41347 0.0
C2762 C 0.34904 0.76408 0.34457 0.0
C2763 C 0.34439 0.78126 0.33309 0.0
C2764 C 0.35446 0.79632 0.34359 0.0
C2765 C 0.36925 0.79376 0.36601 0.0
C2766 C 0.37395 0.77652 0.37731 0.0
H2767 H 0.33561 0.73126 0.43579 0.0
H2768 H 0.342 0.75365 0.42242 0.0
H2769 H 0.32993 0.7393 0.39281 0.0
H2770 H 0.34123 0.75267 0.3357 0.0
H2771 H 0.33295 0.78268 0.31581 0.0
H2772 H 0.9607 0.57278 0.08214 0.0
H2773 H 0.99157 0.58078 0.09727 0.0
H2774 H 0.97616 0.63656 0.10447 0.0
H2775 H 0.94505 0.62842 0.09139 0.0
H2776 H 0.01452 0.59973 0.06414 0.0
H2777 H 0.00386 0.63257 0.19233 0.0
H2778 H 0.98632 0.62027 0.17041 0.0
H2779 H 0.99101 0.64323 0.15856 0.0
C2780 C 0.96389 0.58672 0.08743 0.0
C2781 C 0.95051 0.59998 0.08588 0.0
C2782 C 0.98152 0.59129 0.09601 0.0
C2783 C 0.98619 0.60925 0.10259 0.0
C2784 C 0.97283 0.62254 0.10068 0.0
H2785 H 0.09743 0.64541 0.08648 0.0
H2786 H 0.06583 0.63841 0.07536 0.0
C2787 C 0.95508 0.61791 0.09296 0.0
C2788 C 0.00521 0.61405 0.1097 0.0
H2789 H 0.0325 0.63712 0.16563 0.0
C2790 C 0.01845 0.60779 0.08653 0.0
C2791 C 0.01042 0.62436 0.13914 0.0
C2792 C 0.99716 0.63032 0.1667 0.0
C2793 C 0.0367 0.61154 0.09187 0.0
C2794 C 0.04182 0.62262 0.1203 0.0
C2795 C 0.02858 0.62883 0.14357 0.0
C2796 C 0.06084 0.6275 0.12708 0.0
C2797 C 0.05027 0.60309 0.06754 0.0
C2798 C 0.06836 0.62451 0.1603 0.0
C2799 C 0.08622 0.62904 0.16699 0.0
C2800 C 0.09698 0.63638 0.14041 0.0
C2801 C 0.08947 0.63952 0.10726 0.0
C2802 C 0.07146 0.63539 0.10082 0.0
H2803 H 0.04486 0.59074 0.05509 0.0
H2804 H 0.05358 0.6127 0.04629 0.0
H2805 H 0.06283 0.59954 0.08158 0.0
H2806 H 0.06044 0.61851 0.18104 0.0
H2807 H 0.0917 0.62648 0.19279 0.0
H2808 H 0.12571 0.19572 0.8853 0.0
H2809 H 0.11511 0.2264 0.89543 0.0
H2810 H 0.14694 0.24514 0.80852 0.0
H2811 H 0.15764 0.2146 0.79805 0.0
H2812 H 0.13759 0.25847 0.90754 0.0
H2813 H 0.09444 0.26325 0.78913 0.0
H2814 H 0.10161 0.24203 0.80731 0.0
H2815 H 0.11694 0.25531 0.78187 0.0
C2816 C 0.13048 0.20635 0.8683 0.0
C2817 C 0.14252 0.20266 0.8408 0.0
C2818 C 0.1244 0.22385 0.87417 0.0
C2819 C 0.13008 0.23791 0.85243 0.0
C2820 C 0.14222 0.23437 0.82526 0.0
H2821 H 0.11394 0.35167 0.83371 0.0
H2822 H 0.12083 0.31983 0.82601 0.0
C2823 C 0.14841 0.21692 0.81948 0.0
C2824 C 0.12359 0.2564 0.85845 0.0
H2825 H 0.09919 0.29013 0.8211 0.0
C2826 C 0.12907 0.26539 0.88887 0.0
C2827 C 0.11253 0.2653 0.83389 0.0
C2828 C 0.10588 0.25598 0.8013 0.0
C2829 C 0.12425 0.28335 0.89488 0.0
C2830 C 0.11328 0.29234 0.87017 0.0
C2831 C 0.10757 0.2832 0.84001 0.0
C2832 C 0.10821 0.31145 0.87438 0.0
C2833 C 0.13151 0.29271 0.92695 0.0
C2834 C 0.09845 0.31724 0.90372 0.0
C2835 C 0.09458 0.33546 0.90832 0.0
C2836 C 0.10024 0.34815 0.8834 0.0
C2837 C 0.10942 0.34222 0.8534 0.0
C2838 C 0.11337 0.32404 0.84896 0.0
H2839 H 0.1432 0.28547 0.93826 0.0
H2840 H 0.13566 0.30667 0.92072 0.0
H2841 H 0.12086 0.29329 0.94725 0.0
H2842 H 0.09396 0.30768 0.92323 0.0
H2843 H 0.08736 0.33961 0.93157 0.0
H2844 H 0.39859 0.35771 0.62364 0.0
H2845 H 0.43002 0.36603 0.61499 0.0
H2846 H 0.43303 0.38396 0.72236 0.0
H2847 H 0.4019 0.37452 0.73161 0.0
H2848 H 0.4453 0.39664 0.61648 0.0
H2849 H 0.47751 0.35526 0.71928 0.0
H2850 H 0.45425 0.35256 0.70744 0.0
H2851 H 0.46097 0.37017 0.73703 0.0
C2852 C 0.40607 0.3632 0.64549 0.0
C2853 C 0.39793 0.36535 0.67834 0.0
C2854 C 0.424 0.368 0.64053 0.0
C2855 C 0.43406 0.37539 0.66816 0.0
C2856 C 0.42581 0.37776 0.70094 0.0
H2857 H 0.53397 0.4319 0.61402 0.0
H2858 H 0.50333 0.42549 0.63381 0.0
C2859 C 0.40799 0.37248 0.70615 0.0
C2860 C 0.45287 0.38125 0.66192 0.0
H2861 H 0.49587 0.37729 0.69198 0.0
C2862 C 0.45637 0.39232 0.63292 0.0
C2863 C 0.46737 0.37553 0.68319 0.0
C2864 C 0.46488 0.36258 0.71323 0.0
C2865 C 0.47389 0.39754 0.62414 0.0
C2866 C 0.48833 0.3923 0.64605 0.0
C2867 C 0.48481 0.38148 0.67541 0.0
C2868 C 0.5073 0.39672 0.63756 0.0
C2869 C 0.47673 0.40791 0.5906 0.0
C2870 C 0.52004 0.38288 0.63523 0.0
C2871 C 0.53766 0.3866 0.62517 0.0
C2872 C 0.54284 0.40421 0.61666 0.0
C2873 C 0.53026 0.41817 0.62002 0.0
C2874 C 0.51272 0.41449 0.631 0.0
H2875 H 0.4653 0.40617 0.5722 0.0
H2876 H 0.47781 0.42243 0.5967 0.0
H2877 H 0.48921 0.4036 0.57709 0.0
H2878 H 0.51625 0.36907 0.64025 0.0
H2879 H 0.54703 0.37554 0.62267 0.0
H2880 H 0.11105 0.0951 0.54217 0.0
H2881 H 0.12609 0.09 0.59804 0.0
H2882 H 0.16711 0.05902 0.54585 0.0
H2883 H 0.15181 0.06411 0.48937 0.0
H2884 H 0.13686 0.05643 0.63304 0.0
H2885 H 0.19382 0.10129 0.59623 0.0
H2886 H 0.17326 0.10165 0.57125 0.0
H2887 H 0.18785 0.08252 0.56878 0.0
C2888 C 0.12301 0.08681 0.54278 0.0
C2889 C 0.13002 0.07949 0.51194 0.0
C2890 C 0.13162 0.08395 0.57459 0.0
C2891 C 0.14762 0.07402 0.57603 0.0
C2892 C 0.15473 0.06665 0.5452 0.0
H2893 H 0.17637 0.09566 0.79652 0.0
H2894 H 0.18037 0.07655 0.74414 0.0
C2895 C 0.14604 0.06954 0.51315 0.0
C2896 C 0.15719 0.07312 0.60982 0.0
H2897 H 0.18707 0.09839 0.65589 0.0
C2898 C 0.1483 0.06502 0.63809 0.0
C2899 C 0.17229 0.08415 0.61619 0.0
C2900 C 0.18246 0.09296 0.58665 0.0
C2901 C 0.15247 0.06975 0.67265 0.0
C2902 C 0.16592 0.08271 0.67871 0.0
C2903 C 0.17659 0.08867 0.65083 0.0
C2904 C 0.16509 0.09408 0.71019 0.0
C2905 C 0.14099 0.06269 0.70211 0.0
C2906 C 0.15517 0.11004 0.70809 0.0
C2907 C 0.15284 0.12073 0.73754 0.0
C2908 C 0.16074 0.11587 0.76941 0.0
C2909 C 0.17056 0.0998 0.7718 0.0
C2910 C 0.17286 0.08896 0.74212 0.0
H2911 H 0.13283 0.05093 0.69387 0.0
H2912 H 0.14954 0.05876 0.72466 0.0
H2913 H 0.13175 0.07345 0.7111 0.0
H2914 H 0.14887 0.11402 0.6837 0.0
H2915 H 0.1446 0.13268 0.73553 0.0
H2916 H 0.15629 0.84723 0.76518 0.0
H2917 H 0.15199 0.85992 0.82272 0.0
H2918 H 0.15877 0.91309 0.77958 0.0
H2919 H 0.16739 0.89976 0.72318 0.0
H2920 H 0.16584 0.91569 0.84378 0.0
H2921 H 0.10358 0.87664 0.83794 0.0
H2922 H 0.12158 0.8608 0.83838 0.0
H2923 H 0.11936 0.87646 0.80234 0.0
C2924 C 0.15865 0.86142 0.7686 0.0
C2925 C 0.16342 0.87229 0.74018 0.0
C2926 C 0.15525 0.86884 0.80125 0.0
C2927 C 0.15411 0.88753 0.80523 0.0
C2928 C 0.15937 0.89861 0.77721 0.0
H2929 H 0.08699 0.90583 0.98481 0.0
H2930 H 0.0974 0.90756 0.92499 0.0
C2931 C 0.16421 0.891 0.74496 0.0
C2932 C 0.14577 0.89508 0.83739 0.0
H2933 H 0.11264 0.88601 0.8957 0.0
C2934 C 0.15395 0.90952 0.8549 0.0
C2935 C 0.12968 0.8878 0.85113 0.0
C2936 C 0.11797 0.87477 0.83109 0.0
C2937 C 0.14697 0.91615 0.88666 0.0
C2938 C 0.13232 0.90712 0.90273 0.0
C2939 C 0.12392 0.8931 0.88429 0.0
C2940 C 0.12551 0.91132 0.93864 0.0
C2941 C 0.15515 0.93299 0.90175 0.0
C2942 C 0.13733 0.91416 0.96693 0.0
C2943 C 0.13076 0.9155 0.00119 0.0
C2944 C 0.1124 0.91309 0.00802 0.0
C2945 C 0.10081 0.90951 0.9801 0.0
C2946 C 0.10704 0.90973 0.94579 0.0
H2947 H 0.15996 0.94201 0.88055 0.0
H2948 H 0.14541 0.94054 0.91811 0.0
H2949 H 0.167 0.92936 0.91787 0.0
H2950 H 0.15169 0.91446 0.96302 0.0
H2951 H 0.14015 0.91744 0.02252 0.0
H2952 H 0.39404 0.89947 0.01293 0.0
H2953 H 0.37836 0.90197 0.06875 0.0
H2954 H 0.33502 0.93035 0.01815 0.0
H2955 H 0.35107 0.92812 0.9617 0.0
H2956 H 0.3636 0.93521 0.10478 0.0
H2957 H 0.31353 0.88314 0.06634 0.0
H2958 H 0.33453 0.88495 0.04301 0.0
H2959 H 0.3179 0.90219 0.03839 0.0
C2960 C 0.38142 0.90669 0.01389 0.0
C2961 C 0.374 0.91416 0.98351 0.0
C2962 C 0.37244 0.90803 0.04568 0.0
C2963 C 0.35565 0.91648 0.04751 0.0
C2964 C 0.34805 0.92391 0.01716 0.0
H2965 H 0.32567 0.89988 0.26938 0.0
H2966 H 0.3223 0.91579 0.21305 0.0
C2967 C 0.35716 0.92263 0.98514 0.0
C2968 C 0.34594 0.91589 0.08114 0.0
H2969 H 0.31898 0.88717 0.12639 0.0
C2970 C 0.35336 0.9252 0.10958 0.0
C2971 C 0.33248 0.90288 0.08707 0.0
C2972 C 0.32404 0.89265 0.05722 0.0
C2973 C 0.34922 0.92032 0.14411 0.0
C2974 C 0.33725 0.90593 0.14999 0.0
C2975 C 0.32824 0.8981 0.1216 0.0
C2976 C 0.3374 0.89612 0.18353 0.0
C2977 C 0.35909 0.92923 0.17391 0.0
C2978 C 0.3469 0.87988 0.18524 0.0
C2979 C 0.34886 0.87095 0.21701 0.0
C2980 C 0.34099 0.87788 0.24743 0.0
C2981 C 0.33149 0.89416 0.2459 0.0
C2982 C 0.32956 0.90319 0.21394 0.0
H2983 H 0.36789 0.94033 0.1648 0.0
H2984 H 0.34929 0.93471 0.19301 0.0
H2985 H 0.36747 0.91916 0.18781 0.0
H2986 H 0.35327 0.87438 0.16209 0.0
H2987 H 0.35685 0.8588 0.21795 0.0
H2988 H 0.39266 0.10637 0.47105 0.0
H2989 H 0.37644 0.10284 0.4159 0.0
H2990 H 0.33552 0.07202 0.46863 0.0
H2991 H 0.35208 0.07532 0.52429 0.0
H2992 H 0.36308 0.06754 0.38204 0.0
H2993 H 0.31102 0.11788 0.41883 0.0
H2994 H 0.33241 0.11792 0.44104 0.0
H2995 H 0.317 0.09978 0.44806 0.0
C2996 C 0.38045 0.09846 0.47067 0.0
C2997 C 0.37388 0.09056 0.50137 0.0
C2998 C 0.37116 0.09653 0.43931 0.0
C2999 C 0.35492 0.08702 0.43826 0.0
C3000 C 0.34813 0.07926 0.46901 0.0
H3001 H 0.32408 0.10129 0.21618 0.0
H3002 H 0.32114 0.08505 0.27231 0.0
C3003 C 0.35753 0.08116 0.50058 0.0
C3004 C 0.34494 0.08663 0.40494 0.0
H3005 H 0.31661 0.11356 0.35879 0.0
C3006 C 0.3525 0.07714 0.37688 0.0
C3007 C 0.33091 0.09896 0.39862 0.0
C3008 C 0.32224 0.10927 0.4281 0.0
C3009 C 0.34804 0.0814 0.34218 0.0
C3010 C 0.33556 0.09529 0.3358 0.0
C3011 C 0.3263 0.10306 0.36394 0.0
C3012 C 0.33564 0.10503 0.30218 0.0
C3013 C 0.35815 0.07251 0.31268 0.0
C3014 C 0.34472 0.1215 0.30069 0.0
C3015 C 0.34645 0.1306 0.26909 0.0
C3016 C 0.33876 0.12362 0.23853 0.0
C3017 C 0.32975 0.10705 0.23976 0.0
C3018 C 0.32807 0.09783 0.2716 0.0
H3019 H 0.36707 0.06156 0.3221 0.0
H3020 H 0.34852 0.06684 0.29346 0.0
H3021 H 0.36646 0.08264 0.29881 0.0
H3022 H 0.3509 0.12711 0.32395 0.0
H3023 H 0.35406 0.14299 0.26843 0.0
H3024 H 0.83711 0.85556 0.29581 0.0
H3025 H 0.83505 0.87276 0.34978 0.0
H3026 H 0.81121 0.91689 0.29324 0.0
H3027 H 0.81251 0.89911 0.23889 0.0
H3028 H 0.843 0.92537 0.32937 0.0
H3029 H 0.79616 0.89057 0.41816 0.0
H3030 H 0.8101 0.87482 0.39528 0.0
H3031 H 0.79474 0.88884 0.37099 0.0
C3032 C 0.83048 0.8685 0.29522 0.0
C3033 C 0.82424 0.87572 0.26359 0.0
C3034 C 0.8294 0.87839 0.32605 0.0
C3035 C 0.82258 0.89596 0.3257 0.0
C3036 C 0.81614 0.90321 0.29416 0.0
H3037 H 0.85144 0.93073 0.5367 0.0
H3038 H 0.83293 0.93377 0.48361 0.0
C3039 C 0.81693 0.89311 0.26325 0.0
C3040 C 0.82537 0.9073 0.357 0.0
H3041 H 0.82284 0.90378 0.44577 0.0
C3042 C 0.83809 0.92115 0.35482 0.0
C3043 C 0.81869 0.90214 0.39013 0.0
C3044 C 0.804 0.88839 0.39377 0.0
C3045 C 0.846 0.92825 0.38513 0.0
C3046 C 0.84121 0.92111 0.41811 0.0
C3047 C 0.82679 0.90903 0.42041 0.0
C3048 C 0.85315 0.92289 0.44889 0.0
C3049 C 0.86031 0.94239 0.38148 0.0
C3050 C 0.87059 0.9158 0.44688 0.0
C3051 C 0.88095 0.91382 0.47701 0.0
C3052 C 0.87426 0.91929 0.50959 0.0
C3053 C 0.85701 0.92684 0.51161 0.0
C3054 C 0.84649 0.92862 0.48141 0.0
H3055 H 0.85794 0.95086 0.35798 0.0
H3056 H 0.86081 0.95114 0.405 0.0
H3057 H 0.87355 0.93574 0.37823 0.0
H3058 H 0.87578 0.91068 0.42233 0.0
H3059 H 0.89382 0.90712 0.47507 0.0
H3060 H 0.84135 0.07065 0.97444 0.0
H3061 H 0.824 0.06766 0.02938 0.0
H3062 H 0.86441 0.09845 0.08362 0.0
H3063 H 0.88133 0.10172 0.02933 0.0
H3064 H 0.84924 0.06138 0.11527 0.0
H3065 H 0.80094 0.11558 0.08111 0.0
H3066 H 0.80719 0.09821 0.05035 0.0
H3067 H 0.82268 0.11593 0.06032 0.0
C3068 C 0.84649 0.07656 0.99834 0.0
C3069 C 0.86291 0.08587 0.99825 0.0
C3070 C 0.83666 0.07482 0.02949 0.0
C3071 C 0.84312 0.08264 0.06044 0.0
C3072 C 0.85939 0.0921 0.06004 0.0
H3073 H 0.85187 0.13842 0.22467 0.0
H3074 H 0.84503 0.12221 0.17076 0.0
C3075 C 0.86908 0.09387 0.02915 0.0
C3076 C 0.83291 0.08233 0.09347 0.0
H3077 H 0.80843 0.1121 0.14115 0.0
C3078 C 0.83982 0.07202 0.12106 0.0
C3079 C 0.82026 0.09595 0.10061 0.0
C3080 C 0.81218 0.10706 0.07161 0.0
C3081 C 0.83661 0.07686 0.156 0.0
C3082 C 0.82594 0.09212 0.16304 0.0
C3083 C 0.81682 0.10061 0.13551 0.0
C3084 C 0.82828 0.10224 0.19593 0.0
C3085 C 0.8464 0.06708 0.18484 0.0
C3086 C 0.8211 0.09634 0.22789 0.0
C3087 C 0.82494 0.10574 0.2588 0.0
C3088 C 0.8357 0.12124 0.25774 0.0
C3089 C 0.84297 0.12692 0.22581 0.0
C3090 C 0.83914 0.11763 0.19513 0.0
H3091 H 0.85363 0.05503 0.17503 0.0
H3092 H 0.8563 0.07625 0.19723 0.0
H3093 H 0.83674 0.06283 0.20535 0.0
H3094 H 0.81282 0.0844 0.22896 0.0
H3095 H 0.81954 0.10097 0.28344 0.0
H3096 H 0.65972 0.13693 0.78068 0.0
H3097 H 0.66361 0.11829 0.83249 0.0
H3098 H 0.68892 0.07734 0.76969 0.0
H3099 H 0.68583 0.09663 0.71762 0.0
H3100 H 0.65773 0.06631 0.80669 0.0
H3101 H 0.70501 0.10009 0.89588 0.0
H3102 H 0.6899 0.116 0.87653 0.0
H3103 H 0.70524 0.10362 0.84901 0.0
C3104 C 0.66705 0.12443 0.77827 0.0
C3105 C 0.67319 0.11853 0.74557 0.0
C3106 C 0.66916 0.1137 0.80784 0.0
C3107 C 0.67693 0.09659 0.80508 0.0
C3108 C 0.68327 0.09067 0.77246 0.0
H3109 H 0.65063 0.05713 0.01366 0.0
H3110 H 0.66885 0.05421 0.96012 0.0
C3111 C 0.68145 0.10163 0.74285 0.0
C3112 C 0.67524 0.08417 0.83512 0.0
H3113 H 0.67903 0.08544 0.92391 0.0
C3114 C 0.66294 0.06997 0.83223 0.0
C3115 C 0.68232 0.08861 0.86831 0.0
C3116 C 0.69653 0.10281 0.87255 0.0
C3117 C 0.65567 0.0619 0.86222 0.0
C3118 C 0.66073 0.06835 0.89557 0.0
C3119 C 0.67491 0.08067 0.89829 0.0
C3120 C 0.64885 0.06617 0.92629 0.0
C3121 C 0.64153 0.0476 0.85804 0.0
C3122 C 0.63165 0.07383 0.92489 0.0
C3123 C 0.62153 0.07585 0.95526 0.0
C3124 C 0.62813 0.06973 0.98747 0.0
C3125 C 0.64509 0.06149 0.98885 0.0
C3126 C 0.65544 0.05977 0.95839 0.0
H3127 H 0.64373 0.03974 0.8337 0.0
H3128 H 0.64149 0.03832 0.88081 0.0
H3129 H 0.62815 0.05409 0.85607 0.0
H3130 H 0.62655 0.07948 0.9007 0.0
H3131 H 0.60898 0.08316 0.95384 0.0
H3132 H 0.61 0.91621 0.54422 0.0
H3133 H 0.62741 0.91926 0.59772 0.0
H3134 H 0.67025 0.94443 0.53965 0.0
H3135 H 0.65219 0.94216 0.48576 0.0
H3136 H 0.67988 0.91279 0.57551 0.0
H3137 H 0.64469 0.95863 0.66567 0.0
H3138 H 0.6291 0.94453 0.64276 0.0
H3139 H 0.64274 0.96025 0.61854 0.0
C3140 C 0.62265 0.92337 0.54319 0.0
C3141 C 0.62944 0.92967 0.51125 0.0
C3142 C 0.63267 0.92502 0.57376 0.0
C3143 C 0.64997 0.93247 0.57284 0.0
C3144 C 0.65676 0.93903 0.54102 0.0
H3145 H 0.68611 0.90166 0.78199 0.0
H3146 H 0.68935 0.9209 0.72989 0.0
C3147 C 0.64651 0.93768 0.51036 0.0
C3148 C 0.66167 0.93001 0.60375 0.0
H3149 H 0.65845 0.93198 0.69261 0.0
C3150 C 0.67573 0.91754 0.60111 0.0
C3151 C 0.65657 0.93646 0.63707 0.0
C3152 C 0.64256 0.95088 0.64117 0.0
C3153 C 0.683 0.90952 0.63114 0.0
C3154 C 0.67589 0.914 0.66429 0.0
C3155 C 0.6637 0.92829 0.6671 0.0
C3156 C 0.67751 0.90161 0.69439 0.0
C3157 C 0.69714 0.89523 0.62699 0.0
C3158 C 0.66979 0.88447 0.69159 0.0
C3159 C 0.66761 0.87377 0.72117 0.0
C3160 C 0.67362 0.8797 0.75395 0.0
C3161 C 0.68183 0.89663 0.75672 0.0
C3162 C 0.68373 0.90756 0.72709 0.0
H3163 H 0.70563 0.89785 0.60361 0.0
H3164 H 0.70587 0.89445 0.65052 0.0
H3165 H 0.69046 0.88206 0.62318 0.0
H3166 H 0.66432 0.87986 0.66689 0.0
H3167 H 0.66033 0.86125 0.7187 0.0
H3168 H 0.59209 0.60069 0.01586 0.0
H3169 H 0.60386 0.60324 0.07477 0.0
H3170 H 0.65766 0.59668 0.0345 0.0
H3171 H 0.64521 0.58995 0.97647 0.0
H3172 H 0.65919 0.58703 0.09637 0.0
H3173 H 0.62094 0.65001 0.10033 0.0
H3174 H 0.60503 0.63214 0.09771 0.0
H3175 H 0.62074 0.63589 0.06223 0.0
C3176 C 0.60622 0.59825 0.02007 0.0
C3177 C 0.61754 0.59396 0.99205 0.0
C3178 C 0.61312 0.60058 0.05357 0.0
C3179 C 0.63175 0.60106 0.05902 0.0
C3180 C 0.64322 0.59651 0.03112 0.0
H3181 H 0.65524 0.66364 0.24201 0.0
H3182 H 0.65445 0.65341 0.1821 0.0
C3183 C 0.63613 0.59279 0.99793 0.0
C3184 C 0.63903 0.60775 0.09287 0.0
H3185 H 0.63096 0.63891 0.15584 0.0
C3186 C 0.65332 0.59864 0.10913 0.0
C3187 C 0.63198 0.62334 0.1091 0.0
C3188 C 0.61902 0.63599 0.0911 0.0
C3189 C 0.66036 0.60443 0.14145 0.0
C3190 C 0.65188 0.61882 0.15937 0.0
C3191 C 0.63767 0.62787 0.14275 0.0
C3192 C 0.65724 0.62511 0.195 0.0
C3193 C 0.67708 0.59538 0.15509 0.0
C3194 C 0.66035 0.61301 0.22274 0.0
C3195 C 0.66306 0.61934 0.25689 0.0
C3196 C 0.66186 0.63778 0.26416 0.0
C3197 C 0.65802 0.64965 0.23681 0.0
C3198 C 0.6568 0.64359 0.20252 0.0
H3199 H 0.68552 0.59035 0.13319 0.0
H3200 H 0.68533 0.60465 0.17121 0.0
H3201 H 0.67322 0.58359 0.17118 0.0
H3202 H 0.65987 0.59866 0.21852 0.0
H3203 H 0.66518 0.60977 0.27787 0.0
H3204 H 0.64705 0.40945 0.5188 0.0
H3205 H 0.658 0.40419 0.45925 0.0
H3206 H 0.60326 0.39703 0.4241 0.0
H3207 H 0.59323 0.39811 0.48417 0.0
H3208 H 0.61853 0.37389 0.39774 0.0
H3209 H 0.66462 0.43046 0.37372 0.0
H3210 H 0.67204 0.41837 0.41151 0.0
H3211 H 0.65055 0.42966 0.41204 0.0
C3212 C 0.63745 0.40693 0.49805 0.0
C3213 C 0.61908 0.40537 0.50565 0.0
C3214 C 0.64368 0.40425 0.46381 0.0
C3215 C 0.63152 0.40072 0.43638 0.0
C3216 C 0.6131 0.39974 0.44429 0.0
H3217 H 0.66371 0.39087 0.21593 0.0
H3218 H 0.65781 0.4028 0.27471 0.0
C3219 C 0.60716 0.40105 0.47865 0.0
C3220 C 0.63775 0.39562 0.40058 0.0
H3221 H 0.66843 0.4045 0.33625 0.0
C3222 C 0.62914 0.38107 0.38423 0.0
C3223 C 0.65156 0.40475 0.38216 0.0
C3224 C 0.66003 0.4218 0.39567 0.0
C3225 C 0.63352 0.37567 0.35032 0.0
C3226 C 0.64858 0.38346 0.33346 0.0
C3227 C 0.65726 0.39809 0.34948 0.0
C3228 C 0.6551 0.37664 0.29912 0.0
C3229 C 0.62123 0.36224 0.33274 0.0
C3230 C 0.65632 0.35807 0.29336 0.0
C3231 C 0.65812 0.35141 0.25957 0.0
C3232 C 0.6612 0.36299 0.23133 0.0
C3233 C 0.6618 0.38159 0.23746 0.0
C3234 C 0.65855 0.3884 0.27108 0.0
H3235 H 0.60727 0.36345 0.34276 0.0
H3236 H 0.62083 0.36411 0.30392 0.0
H3237 H 0.62583 0.34841 0.33881 0.0
H3238 H 0.6545 0.34864 0.31462 0.0
H3239 H 0.65603 0.33722 0.25539 0.0
H3240 H 0.81465 0.39849 0.7521 0.0
H3241 H 0.81221 0.41653 0.69827 0.0
H3242 H 0.83719 0.37366 0.63995 0.0
H3243 H 0.84023 0.35615 0.69345 0.0
H3244 H 0.84295 0.42668 0.66249 0.0
H3245 H 0.79804 0.39072 0.57217 0.0
H3246 H 0.7969 0.38793 0.61917 0.0
H3247 H 0.81277 0.37515 0.59352 0.0
C3248 C 0.81909 0.39281 0.72747 0.0
C3249 C 0.82702 0.37571 0.72647 0.0
C3250 C 0.81762 0.40305 0.69684 0.0
C3251 C 0.82406 0.39624 0.66496 0.0
C3252 C 0.83152 0.37893 0.66397 0.0
H3253 H 0.89613 0.40732 0.52264 0.0
H3254 H 0.8769 0.41178 0.57343 0.0
C3255 C 0.83322 0.36888 0.69452 0.0
C3256 C 0.82635 0.40796 0.63405 0.0
H3257 H 0.82495 0.40449 0.54523 0.0
C3258 C 0.83844 0.42235 0.63684 0.0
C3259 C 0.82016 0.40269 0.60064 0.0
C3260 C 0.80607 0.38838 0.59626 0.0
C3261 C 0.84647 0.42972 0.60693 0.0
C3262 C 0.8424 0.42236 0.57379 0.0
C3263 C 0.82836 0.40991 0.57075 0.0
C3264 C 0.8551 0.42389 0.54419 0.0
C3265 C 0.86036 0.44422 0.61127 0.0
C3266 C 0.8493 0.42931 0.51085 0.0
C3267 C 0.86054 0.42707 0.48179 0.0
C3268 C 0.87763 0.41935 0.4858 0.0
C3269 C 0.88343 0.41418 0.51919 0.0
C3270 C 0.87239 0.41666 0.54819 0.0
H3271 H 0.85716 0.45291 0.63407 0.0
H3272 H 0.87361 0.43789 0.61626 0.0
H3273 H 0.86134 0.45269 0.58741 0.0
H3274 H 0.83585 0.43452 0.50714 0.0
H3275 H 0.85565 0.43072 0.45603 0.0
H3276 H 0.88385 0.60103 0.97093 0.0
H3277 H 0.86709 0.5969 0.91668 0.0
H3278 H 0.8277 0.56503 0.97148 0.0
H3279 H 0.84486 0.56898 0.02642 0.0
H3280 H 0.85349 0.55882 0.88646 0.0
H3281 H 0.80297 0.61144 0.91712 0.0
H3282 H 0.8245 0.61311 0.93845 0.0
H3283 H 0.80985 0.59472 0.94876 0.0
C3284 C 0.87184 0.59281 0.97126 0.0
C3285 C 0.86592 0.58476 0.00229 0.0
C3286 C 0.86224 0.59054 0.94041 0.0
C3287 C 0.84634 0.58048 0.94016 0.0
C3288 C 0.84009 0.57265 0.97126 0.0
H3289 H 0.82542 0.59961 0.71699 0.0
H3290 H 0.81818 0.58218 0.77019 0.0
C3291 C 0.84981 0.57493 0.0024 0.0
C3292 C 0.83633 0.57944 0.90698 0.0
H3293 H 0.81182 0.6084 0.85748 0.0
C3294 C 0.84389 0.5692 0.87996 0.0
C3295 C 0.82338 0.59264 0.89893 0.0
C3296 C 0.81455 0.60359 0.92728 0.0
C3297 C 0.84123 0.57396 0.84482 0.0
C3298 C 0.83039 0.58899 0.83702 0.0
C3299 C 0.82043 0.59716 0.86378 0.0
C3300 C 0.83344 0.5994 0.80474 0.0
C3301 C 0.85181 0.56447 0.81671 0.0
C3302 C 0.84445 0.61465 0.80682 0.0
C3303 C 0.84854 0.62446 0.77688 0.0
C3304 C 0.84142 0.61939 0.74446 0.0
C3305 C 0.83068 0.60392 0.74207 0.0
C3306 C 0.82655 0.59402 0.77223 0.0
H3307 H 0.8585 0.55216 0.82672 0.0
H3308 H 0.84283 0.56074 0.79469 0.0
H3309 H 0.86226 0.57367 0.80627 0.0
H3310 H 0.85011 0.61881 0.83168 0.0
H3311 H 0.85741 0.63594 0.779 0.0
H3312 H 0.34034 0.36055 0.80012 0.0
H3313 H 0.3361 0.37843 0.8528 0.0
H3314 H 0.31219 0.42075 0.79128 0.0
H3315 H 0.31574 0.40228 0.73824 0.0
H3316 H 0.34282 0.43084 0.82883 0.0
H3317 H 0.3103 0.38054 0.89682 0.0
H3318 H 0.29509 0.39354 0.87011 0.0
H3319 H 0.29556 0.39647 0.91713 0.0
C3320 C 0.33325 0.37321 0.79812 0.0
C3321 C 0.32769 0.37976 0.7655 0.0
C3322 C 0.33089 0.38348 0.82821 0.0
C3323 C 0.32343 0.40076 0.82609 0.0
C3324 C 0.31759 0.40729 0.79354 0.0
H3325 H 0.35239 0.4373 0.03541 0.0
H3326 H 0.3336 0.44113 0.98284 0.0
C3327 C 0.31968 0.39681 0.76338 0.0
C3328 C 0.32526 0.41278 0.85667 0.0
H3329 H 0.32214 0.41011 0.94544 0.0
C3330 C 0.33771 0.42686 0.85428 0.0
C3331 C 0.31834 0.40792 0.88977 0.0
C3332 C 0.30391 0.3939 0.89355 0.0
C3333 C 0.34538 0.43428 0.8845 0.0
C3334 C 0.34051 0.42732 0.91755 0.0
C3335 C 0.32612 0.41522 0.92 0.0
C3336 C 0.35276 0.42869 0.94786 0.0
C3337 C 0.35982 0.44828 0.88069 0.0
C3338 C 0.36965 0.42042 0.94547 0.0
C3339 C 0.38007 0.41787 0.97531 0.0
C3340 C 0.3741 0.42408 0.00791 0.0
C3341 C 0.35745 0.43286 0.01026 0.0
C3342 C 0.34678 0.43511 0.98038 0.0
H3343 H 0.35735 0.45685 0.85737 0.0
H3344 H 0.36064 0.45693 0.90431 0.0
H3345 H 0.37292 0.44145 0.87689 0.0
H3346 H 0.37425 0.4148 0.92088 0.0
H3347 H 0.39234 0.41015 0.97318 0.0
H3348 H 0.33864 0.64172 0.70928 0.0
H3349 H 0.33531 0.62414 0.65605 0.0
H3350 H 0.31042 0.58149 0.71512 0.0
H3351 H 0.31285 0.59977 0.7687 0.0
H3352 H 0.34232 0.57206 0.67851 0.0
H3353 H 0.29502 0.60608 0.58977 0.0
H3354 H 0.30925 0.62215 0.61104 0.0
H3355 H 0.29409 0.60861 0.63687 0.0
C3356 C 0.33148 0.62908 0.71059 0.0
C3357 C 0.32526 0.62243 0.74268 0.0
C3358 C 0.32968 0.61896 0.68019 0.0
C3359 C 0.32222 0.60167 0.68148 0.0
C3360 C 0.31581 0.59497 0.71349 0.0
H3361 H 0.35337 0.56797 0.47182 0.0
H3362 H 0.33437 0.56333 0.52382 0.0
C3363 C 0.31727 0.60535 0.74396 0.0
C3364 C 0.32454 0.58991 0.65067 0.0
H3365 H 0.32219 0.59339 0.56192 0.0
C3366 C 0.33735 0.57615 0.65301 0.0
C3367 C 0.31781 0.59491 0.6175 0.0
C3368 C 0.30311 0.60864 0.6137 0.0
C3369 C 0.3455 0.56924 0.62281 0.0
C3370 C 0.34077 0.57639 0.58983 0.0
C3371 C 0.32608 0.58813 0.58731 0.0
C3372 C 0.35323 0.57551 0.55976 0.0
C3373 C 0.36024 0.55555 0.62664 0.0
C3374 C 0.37005 0.58388 0.56285 0.0
C3375 C 0.38061 0.58686 0.53333 0.0
C3376 C 0.37485 0.58101 0.50034 0.0
C3377 C 0.35827 0.57215 0.49726 0.0
C3378 C 0.34748 0.56944 0.52683 0.0
H3379 H 0.35779 0.54673 0.64962 0.0
H3380 H 0.36142 0.54711 0.60278 0.0
H3381 H 0.37315 0.56264 0.63103 0.0
H3382 H 0.37447 0.58924 0.58777 0.0
H3383 H 0.39285 0.59458 0.53604 0.0
H3384 H 0.15668 0.56436 0.50912 0.0
H3385 H 0.17311 0.56009 0.45354 0.0
H3386 H 0.13253 0.59088 0.39962 0.0
H3387 H 0.11647 0.59529 0.45456 0.0
H3388 H 0.14505 0.55671 0.36516 0.0
H3389 H 0.19906 0.60437 0.40493 0.0
H3390 H 0.19292 0.58565 0.43248 0.0
H3391 H 0.17796 0.60441 0.42816 0.0
C3392 C 0.15126 0.56993 0.48513 0.0
C3393 C 0.13508 0.57963 0.48557 0.0
C3394 C 0.16058 0.56748 0.4536 0.0
C3395 C 0.15388 0.57502 0.42255 0.0
C3396 C 0.13774 0.58471 0.42323 0.0
H3397 H 0.14873 0.63482 0.26631 0.0
H3398 H 0.15438 0.61609 0.31754 0.0
C3399 C 0.12854 0.58716 0.45451 0.0
C3400 C 0.164 0.57458 0.38936 0.0
H3401 H 0.19234 0.60225 0.34491 0.0
C3402 C 0.15592 0.56607 0.36065 0.0
C3403 C 0.17838 0.58662 0.38373 0.0
C3404 C 0.1877 0.59583 0.41383 0.0
C3405 C 0.15997 0.57136 0.32633 0.0
C3406 C 0.1725 0.58531 0.32101 0.0
C3407 C 0.18256 0.59175 0.34936 0.0
C3408 C 0.17101 0.59692 0.28991 0.0
C3409 C 0.14918 0.56377 0.29639 0.0
C3410 C 0.17855 0.59227 0.25751 0.0
C3411 C 0.17545 0.60315 0.22816 0.0
C3412 C 0.16505 0.61881 0.23131 0.0
C3413 C 0.15741 0.62322 0.26367 0.0
C3414 C 0.16054 0.61249 0.2928 0.0
H3415 H 0.14149 0.55164 0.30427 0.0
H3416 H 0.13956 0.57408 0.28691 0.0
H3417 H 0.15819 0.56024 0.27428 0.0
H3418 H 0.18648 0.58015 0.25485 0.0
H3419 H 0.18108 0.59935 0.20308 0.0
H3420 H 0.16995 0.39701 0.27155 0.0
H3421 H 0.16143 0.40962 0.21452 0.0
H3422 H 0.15419 0.35593 0.17423 0.0
H3423 H 0.15846 0.34399 0.23251 0.0
H3424 H 0.16877 0.41148 0.15109 0.0
H3425 H 0.10627 0.3727 0.15597 0.0
H3426 H 0.12174 0.37268 0.19206 0.0
H3427 H 0.12423 0.35682 0.15643 0.0
C3428 C 0.16665 0.38798 0.25027 0.0
C3429 C 0.16575 0.36936 0.25603 0.0
C3430 C 0.16187 0.39518 0.21765 0.0
C3431 C 0.15655 0.38376 0.19019 0.0
C3432 C 0.15746 0.36512 0.19522 0.0
H3433 H 0.14296 0.41401 0.97206 0.0
H3434 H 0.15472 0.4103 0.0313 0.0
C3435 C 0.16082 0.35813 0.22829 0.0
C3436 C 0.14854 0.39102 0.15744 0.0
H3437 H 0.11567 0.38197 0.09847 0.0
C3438 C 0.1569 0.40534 0.13984 0.0
C3439 C 0.13251 0.38373 0.14337 0.0
C3440 C 0.1206 0.37083 0.16331 0.0
C3441 C 0.15009 0.41195 0.10793 0.0
C3442 C 0.13544 0.40301 0.09175 0.0
C3443 C 0.12694 0.38899 0.11005 0.0
C3444 C 0.12858 0.40743 0.05599 0.0
C3445 C 0.15842 0.42872 0.09283 0.0
C3446 C 0.11006 0.4062 0.04911 0.0
C3447 C 0.10367 0.40647 0.01493 0.0
C3448 C 0.1152 0.41011 0.98694 0.0
C3449 C 0.13364 0.41205 0.9935 0.0
C3450 C 0.14033 0.41027 0.0276 0.0
H3451 H 0.16342 0.43765 0.114 0.0
H3452 H 0.17017 0.42498 0.07652 0.0
H3453 H 0.14872 0.43642 0.07664 0.0
H3454 H 0.10048 0.40401 0.07002 0.0
H3455 H 0.08974 0.40316 0.01036 0.0
loop_
_geom_bond_atom_site_label_1
_geom_bond_atom_site_label_2
_geom_bond_distance
_geom_bond_site_symmetry_2
_ccdc_geom_bond_type
Mn0 O5 2.095 . S
Mn0 O15 2.162 . S
Mn0 O16 2.297 . S
Mn0 O24 2.385 . S
Mn0 O25 2.209 . S
Mn0 O26 2.094 . S
Mn1 O6 2.121 . S
Mn1 N8 2.257 . S
Mn1 N17 2.282 . S
Mn1 O25 2.215 . S
Mn1 O27 2.117 . S
C2 O24 1.234 . S
C2 O25 1.283 . S
C3 O15 1.281 . S
C3 O16 1.236 . S
C4 O26 1.240 . S
C4 O27 1.264 . S
O5 Mn0 2.095 . S
O5 C14 1.250 . S
O6 Mn1 2.121 . S
O6 C14 1.258 . S
C7 N8 1.326 . S
C7 C11 1.460 . S
C7 H13 0.929 . S
N8 Mn1 2.257 . S
N8 C7 1.326 . S
N8 C12 1.362 . S
C9 C10 1.258 . S
C9 C12 1.431 . S
C9 C29 1.449 . S
C10 C9 1.258 . S
C10 C11 1.477 . S
C10 H30 0.931 . S
C11 C7 1.460 . S
C11 C10 1.477 . S
C11 H31 0.930 . S
C12 N8 1.362 . S
C12 C9 1.431 . S
C12 C22 1.476 . S
H13 C7 0.929 . S
C14 O5 1.250 . S
C14 O6 1.258 . S
O15 Mn0 2.162 . S
O15 C3 1.281 . S
O16 Mn0 2.297 . S
O16 C3 1.236 . S
N17 Mn1 2.282 . S
N17 C18 1.328 . S
N17 C22 1.318 . S
C18 N17 1.328 . S
C18 C19 1.457 . S
C18 H23 0.929 . S
C19 C18 1.457 . S
C19 C20 1.291 . S
C19 H32 0.931 . S
C20 C19 1.291 . S
C20 C21 1.373 . S
C20 H33 0.929 . S
C21 C20 1.373 . S
C21 C22 1.396 . S
C21 C28 1.403 . S
C22 C12 1.476 . S
C22 N17 1.318 . S
C22 C21 1.396 . S
H23 C18 0.929 . S
O24 Mn0 2.385 . S
O24 C2 1.234 . S
O25 Mn0 2.209 . S
O25 Mn1 2.215 . S
O25 C2 1.283 . S
O26 Mn0 2.094 . S
O26 C4 1.240 . S
O27 Mn1 2.117 . S
O27 C4 1.264 . S
C28 C21 1.403 . S
C28 C29 1.399 . S
C28 H34 0.929 . S
C29 C9 1.449 . S
C29 C28 1.399 . S
C29 H35 0.930 . S
H30 C10 0.931 . S
H31 C11 0.930 . S
H32 C19 0.931 . S
H33 C20 0.929 . S
H34 C28 0.929 . S
H35 C29 0.930 . S
Mn36 O41 2.095 . S
Mn36 O51 2.162 . S
Mn36 O52 2.297 . S
Mn36 O60 2.385 . S
Mn36 O61 2.209 . S
Mn36 O62 2.094 . S
Mn37 O42 2.121 . S
Mn37 N44 2.257 . S
Mn37 N53 2.282 . S
Mn37 O61 2.215 . S
Mn37 O63 2.117 . S
C38 O60 1.234 . S
C38 O61 1.283 . S
C39 O51 1.281 . S
C39 O52 1.236 . S
C40 O62 1.240 . S
C40 O63 1.264 . S
O41 Mn36 2.095 . S
O41 C50 1.250 . S
O42 Mn37 2.121 . S
O42 C50 1.258 . S
C43 N44 1.326 . S
C43 C47 1.460 . S
C43 H49 0.929 . S
N44 Mn37 2.257 . S
N44 C43 1.326 . S
N44 C48 1.362 . S
C45 C46 1.258 . S
C45 C48 1.431 . S
C45 C65 1.449 . S
C46 C45 1.258 . S
C46 C47 1.477 . S
C46 H66 0.931 . S
C47 C43 1.460 . S
C47 C46 1.477 . S
C47 H67 0.930 . S
C48 N44 1.362 . S
C48 C45 1.431 . S
C48 C58 1.476 . S
H49 C43 0.929 . S
C50 O41 1.250 . S
C50 O42 1.258 . S
O51 Mn36 2.162 . S
O51 C39 1.281 . S
O52 Mn36 2.297 . S
O52 C39 1.236 . S
N53 Mn37 2.282 . S
N53 C54 1.328 . S
N53 C58 1.318 . S
C54 N53 1.328 . S
C54 C55 1.457 . S
C54 H59 0.929 . S
C55 C54 1.457 . S
C55 C56 1.291 . S
C55 H68 0.931 . S
C56 C55 1.291 . S
C56 C57 1.373 . S
C56 H69 0.929 . S
C57 C56 1.373 . S
C57 C58 1.396 . S
C57 C64 1.403 . S
C58 C48 1.476 . S
C58 N53 1.318 . S
C58 C57 1.396 . S
H59 C54 0.929 . S
O60 Mn36 2.385 . S
O60 C38 1.234 . S
O61 Mn36 2.209 . S
O61 Mn37 2.215 . S
O61 C38 1.283 . S
O62 Mn36 2.094 . S
O62 C40 1.240 . S
O63 Mn37 2.117 . S
O63 C40 1.264 . S
C64 C57 1.403 . S
C64 C65 1.399 . S
C64 H70 0.929 . S
C65 C45 1.449 . S
C65 C64 1.399 . S
C65 H71 0.930 . S
H66 C46 0.931 . S
H67 C47 0.930 . S
H68 C55 0.931 . S
H69 C56 0.929 . S
H70 C64 0.929 . S
H71 C65 0.930 . S
Mn72 O77 2.095 . S
Mn72 O87 2.162 . S
Mn72 O88 2.297 . S
Mn72 O96 2.385 . S
Mn72 O97 2.209 . S
Mn72 O98 2.094 . S
Mn73 O78 2.121 . S
Mn73 N80 2.257 . S
Mn73 N89 2.282 . S
Mn73 O97 2.215 . S
Mn73 O99 2.117 . S
C74 O96 1.234 . S
C74 O97 1.283 . S
C75 O87 1.281 . S
C75 O88 1.236 . S
C76 O98 1.240 . S
C76 O99 1.264 . S
O77 Mn72 2.095 . S
O77 C86 1.250 . S
O78 Mn73 2.121 . S
O78 C86 1.258 . S
C79 N80 1.326 . S
C79 C83 1.460 1_556 S
C79 H85 0.929 . S
N80 Mn73 2.257 . S
N80 C79 1.326 . S
N80 C84 1.362 1_556 S
C81 C82 1.258 . S
C81 C84 1.431 . S
C81 C101 1.449 . S
C82 C81 1.258 . S
C82 C83 1.477 . S
C82 H102 0.931 . S
C83 C79 1.460 1_554 S
C83 C82 1.477 . S
C83 H103 0.930 . S
C84 N80 1.362 1_554 S
C84 C81 1.431 . S
C84 C94 1.476 . S
H85 C79 0.929 . S
C86 O77 1.250 . S
C86 O78 1.258 . S
O87 Mn72 2.162 . S
O87 C75 1.281 . S
O88 Mn72 2.297 . S
O88 C75 1.236 . S
N89 Mn73 2.282 . S
N89 C90 1.328 . S
N89 C94 1.318 1_556 S
C90 N89 1.328 . S
C90 C91 1.457 . S
C90 H95 0.929 . S
C91 C90 1.457 . S
C91 C92 1.291 1_556 S
C91 H104 0.931 . S
C92 C91 1.291 1_554 S
C92 C93 1.373 . S
C92 H105 0.929 . S
C93 C92 1.373 . S
C93 C94 1.396 . S
C93 C100 1.403 . S
C94 C84 1.476 . S
C94 N89 1.318 1_554 S
C94 C93 1.396 . S
H95 C90 0.929 . S
O96 Mn72 2.385 . S
O96 C74 1.234 . S
O97 Mn72 2.209 . S
O97 Mn73 2.215 . S
O97 C74 1.283 . S
O98 Mn72 2.094 . S
O98 C76 1.240 . S
O99 Mn73 2.117 . S
O99 C76 1.264 . S
C100 C93 1.403 . S
C100 C101 1.399 . S
C100 H106 0.929 . S
C101 C81 1.449 . S
C101 C100 1.399 . S
C101 H107 0.930 . S
H102 C82 0.931 . S
H103 C83 0.930 . S
H104 C91 0.931 . S
H105 C92 0.929 . S
H106 C100 0.929 . S
H107 C101 0.930 . S
Mn108 O113 2.095 . S
Mn108 O123 2.162 . S
Mn108 O124 2.297 . S
Mn108 O132 2.385 . S
Mn108 O133 2.209 . S
Mn108 O134 2.094 . S
Mn109 O114 2.121 . S
Mn109 N116 2.257 . S
Mn109 N125 2.282 . S
Mn109 O133 2.215 . S
Mn109 O135 2.117 . S
C110 O132 1.234 . S
C110 O133 1.283 . S
C111 O123 1.281 . S
C111 O124 1.236 . S
C112 O134 1.240 . S
C112 O135 1.264 . S
O113 Mn108 2.095 . S
O113 C122 1.250 . S
O114 Mn109 2.121 . S
O114 C122 1.258 . S
C115 N116 1.326 . S
C115 C119 1.460 . S
C115 H121 0.929 . S
N116 Mn109 2.257 . S
N116 C115 1.326 . S
N116 C120 1.362 . S
C117 C118 1.258 . S
C117 C120 1.431 . S
C117 C137 1.449 . S
C118 C117 1.258 . S
C118 C119 1.477 . S
C118 H138 0.931 . S
C119 C115 1.460 . S
C119 C118 1.477 . S
C119 H139 0.930 . S
C120 N116 1.362 . S
C120 C117 1.431 . S
C120 C130 1.476 . S
H121 C115 0.929 . S
C122 O113 1.250 . S
C122 O114 1.258 . S
O123 Mn108 2.162 . S
O123 C111 1.281 . S
O124 Mn108 2.297 . S
O124 C111 1.236 . S
N125 Mn109 2.282 . S
N125 C126 1.328 . S
N125 C130 1.318 . S
C126 N125 1.328 . S
C126 C127 1.457 . S
C126 H131 0.929 . S
C127 C126 1.457 . S
C127 C128 1.291 . S
C127 H140 0.931 . S
C128 C127 1.291 . S
C128 C129 1.373 . S
C128 H141 0.929 . S
C129 C128 1.373 . S
C129 C130 1.396 . S
C129 C136 1.403 . S
C130 C120 1.476 . S
C130 N125 1.318 . S
C130 C129 1.396 . S
H131 C126 0.929 . S
O132 Mn108 2.385 . S
O132 C110 1.234 . S
O133 Mn108 2.209 . S
O133 Mn109 2.215 . S
O133 C110 1.283 . S
O134 Mn108 2.094 . S
O134 C112 1.240 . S
O135 Mn109 2.117 . S
O135 C112 1.264 . S
C136 C129 1.403 . S
C136 C137 1.399 . S
C136 H142 0.929 . S
C137 C117 1.449 . S
C137 C136 1.399 . S
C137 H143 0.930 . S
H138 C118 0.931 . S
H139 C119 0.930 . S
H140 C127 0.931 . S
H141 C128 0.929 . S
H142 C136 0.929 . S
H143 C137 0.930 . S
Mn144 O149 2.095 . S
Mn144 O159 2.162 . S
Mn144 O160 2.297 . S
Mn144 O168 2.385 . S
Mn144 O169 2.209 . S
Mn144 O170 2.094 . S
Mn145 O150 2.121 . S
Mn145 N152 2.257 . S
Mn145 N161 2.282 . S
Mn145 O169 2.215 . S
Mn145 O171 2.117 . S
C146 O168 1.234 . S
C146 O169 1.283 . S
C147 O159 1.281 . S
C147 O160 1.236 . S
C148 O170 1.240 . S
C148 O171 1.264 . S
O149 Mn144 2.095 . S
O149 C158 1.250 . S
O150 Mn145 2.121 . S
O150 C158 1.258 . S
C151 N152 1.326 . S
C151 C155 1.460 1_554 S
C151 H157 0.929 . S
N152 Mn145 2.257 . S
N152 C151 1.326 . S
N152 C156 1.362 1_554 S
C153 C154 1.258 . S
C153 C156 1.431 . S
C153 C173 1.449 . S
C154 C153 1.258 . S
C154 C155 1.477 . S
C154 H174 0.931 . S
C155 C151 1.460 1_556 S
C155 C154 1.477 . S
C155 H175 0.930 . S
C156 N152 1.362 1_556 S
C156 C153 1.431 . S
C156 C166 1.476 . S
H157 C151 0.929 . S
C158 O149 1.250 . S
C158 O150 1.258 . S
O159 Mn144 2.162 . S
O159 C147 1.281 . S
O160 Mn144 2.297 . S
O160 C147 1.236 . S
N161 Mn145 2.282 . S
N161 C162 1.328 . S
N161 C166 1.318 1_554 S
C162 N161 1.328 . S
C162 C163 1.457 . S
C162 H167 0.929 . S
C163 C162 1.457 . S
C163 C164 1.291 1_554 S
C163 H176 0.931 . S
C164 C163 1.291 1_556 S
C164 C165 1.373 . S
C164 H177 0.929 . S
C165 C164 1.373 . S
C165 C166 1.396 . S
C165 C172 1.403 . S
C166 C156 1.476 . S
C166 N161 1.318 1_556 S
C166 C165 1.396 . S
H167 C162 0.929 . S
O168 Mn144 2.385 . S
O168 C146 1.234 . S
O169 Mn144 2.209 . S
O169 Mn145 2.215 . S
O169 C146 1.283 . S
O170 Mn144 2.094 . S
O170 C148 1.240 . S
O171 Mn145 2.117 . S
O171 C148 1.264 . S
C172 C165 1.403 . S
C172 C173 1.399 . S
C172 H178 0.929 . S
C173 C153 1.449 . S
C173 C172 1.399 . S
C173 H179 0.930 . S
H174 C154 0.931 . S
H175 C155 0.930 . S
H176 C163 0.931 . S
H177 C164 0.929 . S
H178 C172 0.929 . S
H179 C173 0.930 . S
Mn180 O185 2.095 . S
Mn180 O195 2.162 . S
Mn180 O196 2.297 . S
Mn180 O204 2.385 . S
Mn180 O205 2.209 . S
Mn180 O206 2.094 . S
Mn181 O186 2.121 . S
Mn181 N188 2.257 . S
Mn181 N197 2.282 . S
Mn181 O205 2.215 . S
Mn181 O207 2.117 . S
C182 O204 1.234 . S
C182 O205 1.283 . S
C183 O195 1.281 . S
C183 O196 1.236 . S
C184 O206 1.240 . S
C184 O207 1.264 . S
O185 Mn180 2.095 . S
O185 C194 1.250 . S
O186 Mn181 2.121 . S
O186 C194 1.258 . S
C187 N188 1.326 . S
C187 C191 1.460 . S
C187 H193 0.929 . S
N188 Mn181 2.257 . S
N188 C187 1.326 . S
N188 C192 1.362 . S
C189 C190 1.258 . S
C189 C192 1.431 . S
C189 C209 1.449 . S
C190 C189 1.258 . S
C190 C191 1.477 . S
C190 H210 0.931 . S
C191 C187 1.460 . S
C191 C190 1.477 . S
C191 H211 0.930 . S
C192 N188 1.362 . S
C192 C189 1.431 . S
C192 C202 1.476 . S
H193 C187 0.929 . S
C194 O185 1.250 . S
C194 O186 1.258 . S
O195 Mn180 2.162 . S
O195 C183 1.281 . S
O196 Mn180 2.297 . S
O196 C183 1.236 . S
N197 Mn181 2.282 . S
N197 C198 1.328 . S
N197 C202 1.318 . S
C198 N197 1.328 . S
C198 C199 1.457 . S
C198 H203 0.929 . S
C199 C198 1.457 . S
C199 C200 1.291 . S
C199 H212 0.931 . S
C200 C199 1.291 . S
C200 C201 1.373 . S
C200 H213 0.929 . S
C201 C200 1.373 . S
C201 C202 1.396 . S
C201 C208 1.403 . S
C202 C192 1.476 . S
C202 N197 1.318 . S
C202 C201 1.396 . S
H203 C198 0.929 . S
O204 Mn180 2.385 . S
O204 C182 1.234 . S
O205 Mn180 2.209 . S
O205 Mn181 2.215 . S
O205 C182 1.283 . S
O206 Mn180 2.094 . S
O206 C184 1.240 . S
O207 Mn181 2.117 . S
O207 C184 1.264 . S
C208 C201 1.403 . S
C208 C209 1.399 . S
C208 H214 0.929 . S
C209 C189 1.449 . S
C209 C208 1.399 . S
C209 H215 0.930 . S
H210 C190 0.931 . S
H211 C191 0.930 . S
H212 C199 0.931 . S
H213 C200 0.929 . S
H214 C208 0.929 . S
H215 C209 0.930 . S
Mn216 O221 2.095 . S
Mn216 O231 2.162 . S
Mn216 O232 2.297 . S
Mn216 O240 2.385 . S
Mn216 O241 2.209 . S
Mn216 O242 2.094 . S
Mn217 O222 2.121 . S
Mn217 N224 2.257 . S
Mn217 N233 2.282 . S
Mn217 O241 2.215 . S
Mn217 O243 2.117 . S
C218 O240 1.234 . S
C218 O241 1.283 . S
C219 O231 1.281 . S
C219 O232 1.236 . S
C220 O242 1.240 . S
C220 O243 1.264 . S
O221 Mn216 2.095 . S
O221 C230 1.250 . S
O222 Mn217 2.121 . S
O222 C230 1.258 . S
C223 N224 1.326 . S
C223 C227 1.460 . S
C223 H229 0.929 . S
N224 Mn217 2.257 . S
N224 C223 1.326 . S
N224 C228 1.362 . S
C225 C226 1.258 . S
C225 C228 1.431 . S
C225 C245 1.449 . S
C226 C225 1.258 . S
C226 C227 1.477 . S
C226 H246 0.931 . S
C227 C223 1.460 . S
C227 C226 1.477 . S
C227 H247 0.930 . S
C228 N224 1.362 . S
C228 C225 1.431 . S
C228 C238 1.476 . S
H229 C223 0.929 . S
C230 O221 1.250 . S
C230 O222 1.258 . S
O231 Mn216 2.162 . S
O231 C219 1.281 . S
O232 Mn216 2.297 . S
O232 C219 1.236 . S
N233 Mn217 2.282 . S
N233 C234 1.328 . S
N233 C238 1.318 . S
C234 N233 1.328 . S
C234 C235 1.457 . S
C234 H239 0.929 . S
C235 C234 1.457 . S
C235 C236 1.291 . S
C235 H248 0.931 . S
C236 C235 1.291 . S
C236 C237 1.373 . S
C236 H249 0.929 . S
C237 C236 1.373 . S
C237 C238 1.396 . S
C237 C244 1.403 . S
C238 C228 1.476 . S
C238 N233 1.318 . S
C238 C237 1.396 . S
H239 C234 0.929 . S
O240 Mn216 2.385 . S
O240 C218 1.234 . S
O241 Mn216 2.209 . S
O241 Mn217 2.215 . S
O241 C218 1.283 . S
O242 Mn216 2.094 . S
O242 C220 1.240 . S
O243 Mn217 2.117 . S
O243 C220 1.264 . S
C244 C237 1.403 . S
C244 C245 1.399 . S
C244 H250 0.929 . S
C245 C225 1.449 . S
C245 C244 1.399 . S
C245 H251 0.930 . S
H246 C226 0.931 . S
H247 C227 0.930 . S
H248 C235 0.931 . S
H249 C236 0.929 . S
H250 C244 0.929 . S
H251 C245 0.930 . S
Mn252 O257 2.095 . S
Mn252 O267 2.162 . S
Mn252 O268 2.297 . S
Mn252 O276 2.385 . S
Mn252 O277 2.209 . S
Mn252 O278 2.094 . S
Mn253 O258 2.121 . S
Mn253 N260 2.257 . S
Mn253 N269 2.282 . S
Mn253 O277 2.215 . S
Mn253 O279 2.117 . S
C254 O276 1.234 . S
C254 O277 1.283 . S
C255 O267 1.281 . S
C255 O268 1.236 . S
C256 O278 1.240 . S
C256 O279 1.264 . S
O257 Mn252 2.095 . S
O257 C266 1.250 . S
O258 Mn253 2.121 . S
O258 C266 1.258 . S
C259 N260 1.326 . S
C259 C263 1.460 . S
C259 H265 0.929 . S
N260 Mn253 2.257 . S
N260 C259 1.326 . S
N260 C264 1.362 . S
C261 C262 1.258 . S
C261 C264 1.431 . S
C261 C281 1.449 . S
C262 C261 1.258 . S
C262 C263 1.477 . S
C262 H282 0.931 . S
C263 C259 1.460 . S
C263 C262 1.477 . S
C263 H283 0.930 . S
C264 N260 1.362 . S
C264 C261 1.431 . S
C264 C274 1.476 . S
H265 C259 0.929 . S
C266 O257 1.250 . S
C266 O258 1.258 . S
O267 Mn252 2.162 . S
O267 C255 1.281 . S
O268 Mn252 2.297 . S
O268 C255 1.236 . S
N269 Mn253 2.282 . S
N269 C270 1.328 . S
N269 C274 1.318 . S
C270 N269 1.328 . S
C270 C271 1.457 . S
C270 H275 0.929 . S
C271 C270 1.457 . S
C271 C272 1.291 . S
C271 H284 0.931 . S
C272 C271 1.291 . S
C272 C273 1.373 . S
C272 H285 0.929 . S
C273 C272 1.373 . S
C273 C274 1.396 . S
C273 C280 1.403 . S
C274 C264 1.476 . S
C274 N269 1.318 . S
C274 C273 1.396 . S
H275 C270 0.929 . S
O276 Mn252 2.385 . S
O276 C254 1.234 . S
O277 Mn252 2.209 . S
O277 Mn253 2.215 . S
O277 C254 1.283 . S
O278 Mn252 2.094 . S
O278 C256 1.240 . S
O279 Mn253 2.117 . S
O279 C256 1.264 . S
C280 C273 1.403 . S
C280 C281 1.399 . S
C280 H286 0.929 . S
C281 C261 1.449 . S
C281 C280 1.399 . S
C281 H287 0.930 . S
H282 C262 0.931 . S
H283 C263 0.930 . S
H284 C271 0.931 . S
H285 C272 0.929 . S
H286 C280 0.929 . S
H287 C281 0.930 . S
Mn288 O293 2.095 . S
Mn288 O303 2.162 . S
Mn288 O304 2.297 . S
Mn288 O312 2.385 . S
Mn288 O313 2.209 . S
Mn288 O314 2.094 . S
Mn289 O294 2.121 . S
Mn289 N296 2.257 . S
Mn289 N305 2.282 . S
Mn289 O313 2.215 . S
Mn289 O315 2.117 . S
C290 O312 1.234 . S
C290 O313 1.283 . S
C291 O303 1.281 . S
C291 O304 1.236 . S
C292 O314 1.240 . S
C292 O315 1.264 . S
O293 Mn288 2.095 . S
O293 C302 1.250 . S
O294 Mn289 2.121 . S
O294 C302 1.258 . S
C295 N296 1.326 . S
C295 C299 1.460 . S
C295 H301 0.929 . S
N296 Mn289 2.257 . S
N296 C295 1.326 . S
N296 C300 1.362 . S
C297 C298 1.258 . S
C297 C300 1.431 . S
C297 C317 1.449 . S
C298 C297 1.258 . S
C298 C299 1.477 . S
C298 H318 0.931 . S
C299 C295 1.460 . S
C299 C298 1.477 . S
C299 H319 0.930 . S
C300 N296 1.362 . S
C300 C297 1.431 . S
C300 C310 1.476 . S
H301 C295 0.929 . S
C302 O293 1.250 . S
C302 O294 1.258 . S
O303 Mn288 2.162 . S
O303 C291 1.281 . S
O304 Mn288 2.297 . S
O304 C291 1.236 . S
N305 Mn289 2.282 . S
N305 C306 1.328 . S
N305 C310 1.318 . S
C306 N305 1.328 . S
C306 C307 1.457 . S
C306 H311 0.929 . S
C307 C306 1.457 . S
C307 C308 1.291 . S
C307 H320 0.931 . S
C308 C307 1.291 . S
C308 C309 1.373 . S
C308 H321 0.929 . S
C309 C308 1.373 . S
C309 C310 1.396 . S
C309 C316 1.403 . S
C310 C300 1.476 . S
C310 N305 1.318 . S
C310 C309 1.396 . S
H311 C306 0.929 . S
O312 Mn288 2.385 . S
O312 C290 1.234 . S
O313 Mn288 2.209 . S
O313 Mn289 2.215 . S
O313 C290 1.283 . S
O314 Mn288 2.094 . S
O314 C292 1.240 . S
O315 Mn289 2.117 . S
O315 C292 1.264 . S
C316 C309 1.403 . S
C316 C317 1.399 . S
C316 H322 0.929 . S
C317 C297 1.449 . S
C317 C316 1.399 . S
C317 H323 0.930 . S
H318 C298 0.931 . S
H319 C299 0.930 . S
H320 C307 0.931 . S
H321 C308 0.929 . S
H322 C316 0.929 . S
H323 C317 0.930 . S
Mn324 O329 2.095 . S
Mn324 O339 2.162 . S
Mn324 O340 2.297 . S
Mn324 O348 2.385 . S
Mn324 O349 2.209 . S
Mn324 O350 2.094 . S
Mn325 O330 2.121 . S
Mn325 N332 2.257 . S
Mn325 N341 2.282 . S
Mn325 O349 2.215 . S
Mn325 O351 2.117 . S
C326 O348 1.234 . S
C326 O349 1.283 . S
C327 O339 1.281 . S
C327 O340 1.236 . S
C328 O350 1.240 . S
C328 O351 1.264 . S
O329 Mn324 2.095 . S
O329 C338 1.250 . S
O330 Mn325 2.121 . S
O330 C338 1.258 . S
C331 N332 1.326 . S
C331 C335 1.460 . S
C331 H337 0.929 . S
N332 Mn325 2.257 . S
N332 C331 1.326 . S
N332 C336 1.362 . S
C333 C334 1.258 . S
C333 C336 1.431 . S
C333 C353 1.449 . S
C334 C333 1.258 . S
C334 C335 1.477 . S
C334 H354 0.931 . S
C335 C331 1.460 . S
C335 C334 1.477 . S
C335 H355 0.930 . S
C336 N332 1.362 . S
C336 C333 1.431 . S
C336 C346 1.476 . S
H337 C331 0.929 . S
C338 O329 1.250 . S
C338 O330 1.258 . S
O339 Mn324 2.162 . S
O339 C327 1.281 . S
O340 Mn324 2.297 . S
O340 C327 1.236 . S
N341 Mn325 2.282 . S
N341 C342 1.328 . S
N341 C346 1.318 . S
C342 N341 1.328 . S
C342 C343 1.457 . S
C342 H347 0.929 . S
C343 C342 1.457 . S
C343 C344 1.291 . S
C343 H356 0.931 . S
C344 C343 1.291 . S
C344 C345 1.373 . S
C344 H357 0.929 . S
C345 C344 1.373 . S
C345 C346 1.396 . S
C345 C352 1.403 . S
C346 C336 1.476 . S
C346 N341 1.318 . S
C346 C345 1.396 . S
H347 C342 0.929 . S
O348 Mn324 2.385 . S
O348 C326 1.234 . S
O349 Mn324 2.209 . S
O349 Mn325 2.215 . S
O349 C326 1.283 . S
O350 Mn324 2.094 . S
O350 C328 1.240 . S
O351 Mn325 2.117 . S
O351 C328 1.264 . S
C352 C345 1.403 . S
C352 C353 1.399 . S
C352 H358 0.929 . S
C353 C333 1.449 . S
C353 C352 1.399 . S
C353 H359 0.930 . S
H354 C334 0.931 . S
H355 C335 0.930 . S
H356 C343 0.931 . S
H357 C344 0.929 . S
H358 C352 0.929 . S
H359 C353 0.930 . S
Mn360 O365 2.095 . S
Mn360 O375 2.162 . S
Mn360 O376 2.297 . S
Mn360 O384 2.385 . S
Mn360 O385 2.209 . S
Mn360 O386 2.094 . S
Mn361 O366 2.121 . S
Mn361 N368 2.257 . S
Mn361 N377 2.282 . S
Mn361 O385 2.215 . S
Mn361 O387 2.117 . S
C362 O384 1.234 . S
C362 O385 1.283 . S
C363 O375 1.281 . S
C363 O376 1.236 . S
C364 O386 1.240 . S
C364 O387 1.264 . S
O365 Mn360 2.095 . S
O365 C374 1.250 . S
O366 Mn361 2.121 . S
O366 C374 1.258 . S
C367 N368 1.326 . S
C367 C371 1.460 1_554 S
C367 H373 0.929 . S
N368 Mn361 2.257 . S
N368 C367 1.326 . S
N368 C372 1.362 1_554 S
C369 C370 1.258 . S
C369 C372 1.431 . S
C369 C389 1.449 . S
C370 C369 1.258 . S
C370 C371 1.477 . S
C370 H390 0.931 . S
C371 C367 1.460 1_556 S
C371 C370 1.477 . S
C371 H391 0.930 . S
C372 N368 1.362 1_556 S
C372 C369 1.431 . S
C372 C382 1.476 . S
H373 C367 0.929 . S
C374 O365 1.250 . S
C374 O366 1.258 . S
O375 Mn360 2.162 . S
O375 C363 1.281 . S
O376 Mn360 2.297 . S
O376 C363 1.236 . S
N377 Mn361 2.282 . S
N377 C378 1.328 . S
N377 C382 1.318 1_554 S
C378 N377 1.328 . S
C378 C379 1.457 . S
C378 H383 0.929 . S
C379 C378 1.457 . S
C379 C380 1.291 1_554 S
C379 H392 0.931 . S
C380 C379 1.291 1_556 S
C380 C381 1.373 . S
C380 H393 0.929 . S
C381 C380 1.373 . S
C381 C382 1.396 . S
C381 C388 1.403 . S
C382 C372 1.476 . S
C382 N377 1.318 1_556 S
C382 C381 1.396 . S
H383 C378 0.929 . S
O384 Mn360 2.385 . S
O384 C362 1.234 . S
O385 Mn360 2.209 . S
O385 Mn361 2.215 . S
O385 C362 1.283 . S
O386 Mn360 2.094 . S
O386 C364 1.240 . S
O387 Mn361 2.117 . S
O387 C364 1.264 . S
C388 C381 1.403 . S
C388 C389 1.399 . S
C388 H394 0.929 . S
C389 C369 1.449 . S
C389 C388 1.399 . S
C389 H395 0.930 . S
H390 C370 0.931 . S
H391 C371 0.930 . S
H392 C379 0.931 . S
H393 C380 0.929 . S
H394 C388 0.929 . S
H395 C389 0.930 . S
Mn396 O401 2.095 . S
Mn396 O411 2.162 . S
Mn396 O412 2.297 . S
Mn396 O420 2.385 . S
Mn396 O421 2.209 . S
Mn396 O422 2.094 . S
Mn397 O402 2.121 . S
Mn397 N404 2.257 . S
Mn397 N413 2.282 . S
Mn397 O421 2.215 . S
Mn397 O423 2.117 . S
C398 O420 1.234 . S
C398 O421 1.283 . S
C399 O411 1.281 . S
C399 O412 1.236 . S
C400 O422 1.240 . S
C400 O423 1.264 . S
O401 Mn396 2.095 . S
O401 C410 1.250 . S
O402 Mn397 2.121 . S
O402 C410 1.258 . S
C403 N404 1.326 . S
C403 C407 1.460 . S
C403 H409 0.929 . S
N404 Mn397 2.257 . S
N404 C403 1.326 . S
N404 C408 1.362 . S
C405 C406 1.258 . S
C405 C408 1.431 . S
C405 C425 1.449 . S
C406 C405 1.258 . S
C406 C407 1.477 . S
C406 H426 0.931 . S
C407 C403 1.460 . S
C407 C406 1.477 . S
C407 H427 0.930 . S
C408 N404 1.362 . S
C408 C405 1.431 . S
C408 C418 1.476 . S
H409 C403 0.929 . S
C410 O401 1.250 . S
C410 O402 1.258 . S
O411 Mn396 2.162 . S
O411 C399 1.281 . S
O412 Mn396 2.297 . S
O412 C399 1.236 . S
N413 Mn397 2.282 . S
N413 C414 1.328 . S
N413 C418 1.318 . S
C414 N413 1.328 . S
C414 C415 1.457 . S
C414 H419 0.929 . S
C415 C414 1.457 . S
C415 C416 1.291 . S
C415 H428 0.931 . S
C416 C415 1.291 . S
C416 C417 1.373 . S
C416 H429 0.929 . S
C417 C416 1.373 . S
C417 C418 1.396 . S
C417 C424 1.403 . S
C418 C408 1.476 . S
C418 N413 1.318 . S
C418 C417 1.396 . S
H419 C414 0.929 . S
O420 Mn396 2.385 . S
O420 C398 1.234 . S
O421 Mn396 2.209 . S
O421 Mn397 2.215 . S
O421 C398 1.283 . S
O422 Mn396 2.094 . S
O422 C400 1.240 . S
O423 Mn397 2.117 . S
O423 C400 1.264 . S
C424 C417 1.403 . S
C424 C425 1.399 . S
C424 H430 0.929 . S
C425 C405 1.449 . S
C425 C424 1.399 . S
C425 H431 0.930 . S
H426 C406 0.931 . S
H427 C407 0.930 . S
H428 C415 0.931 . S
H429 C416 0.929 . S
H430 C424 0.929 . S
H431 C425 0.930 . S
Mn432 O437 2.095 . S
Mn432 O447 2.162 . S
Mn432 O448 2.297 . S
Mn432 O456 2.385 . S
Mn432 O457 2.209 . S
Mn432 O458 2.094 . S
Mn433 O438 2.121 . S
Mn433 N440 2.257 . S
Mn433 N449 2.282 . S
Mn433 O457 2.215 . S
Mn433 O459 2.117 . S
C434 O456 1.234 . S
C434 O457 1.283 . S
C435 O447 1.281 . S
C435 O448 1.236 . S
C436 O458 1.240 . S
C436 O459 1.264 . S
O437 Mn432 2.095 . S
O437 C446 1.250 . S
O438 Mn433 2.121 . S
O438 C446 1.258 . S
C439 N440 1.326 . S
C439 C443 1.460 1_556 S
C439 H445 0.929 . S
N440 Mn433 2.257 . S
N440 C439 1.326 . S
N440 C444 1.362 1_556 S
C441 C442 1.258 . S
C441 C444 1.431 . S
C441 C461 1.449 . S
C442 C441 1.258 . S
C442 C443 1.477 . S
C442 H462 0.931 . S
C443 C439 1.460 1_554 S
C443 C442 1.477 . S
C443 H463 0.930 . S
C444 N440 1.362 1_554 S
C444 C441 1.431 . S
C444 C454 1.476 . S
H445 C439 0.929 . S
C446 O437 1.250 . S
C446 O438 1.258 . S
O447 Mn432 2.162 . S
O447 C435 1.281 . S
O448 Mn432 2.297 . S
O448 C435 1.236 . S
N449 Mn433 2.282 . S
N449 C450 1.328 . S
N449 C454 1.318 1_556 S
C450 N449 1.328 . S
C450 C451 1.457 . S
C450 H455 0.929 . S
C451 C450 1.457 . S
C451 C452 1.291 1_556 S
C451 H464 0.931 . S
C452 C451 1.291 1_554 S
C452 C453 1.373 . S
C452 H465 0.929 . S
C453 C452 1.373 . S
C453 C454 1.396 . S
C453 C460 1.403 . S
C454 C444 1.476 . S
C454 N449 1.318 1_554 S
C454 C453 1.396 . S
H455 C450 0.929 . S
O456 Mn432 2.385 . S
O456 C434 1.234 . S
O457 Mn432 2.209 . S
O457 Mn433 2.215 . S
O457 C434 1.283 . S
O458 Mn432 2.094 . S
O458 C436 1.240 . S
O459 Mn433 2.117 . S
O459 C436 1.264 . S
C460 C453 1.403 . S
C460 C461 1.399 . S
C460 H466 0.929 . S
C461 C441 1.449 . S
C461 C460 1.399 . S
C461 H467 0.930 . S
H462 C442 0.931 . S
H463 C443 0.930 . S
H464 C451 0.931 . S
H465 C452 0.929 . S
H466 C460 0.929 . S
H467 C461 0.930 . S
Mn468 O473 2.095 . S
Mn468 O483 2.162 . S
Mn468 O484 2.297 . S
Mn468 O492 2.385 . S
Mn468 O493 2.209 . S
Mn468 O494 2.094 . S
Mn469 O474 2.121 . S
Mn469 N476 2.257 . S
Mn469 N485 2.282 . S
Mn469 O493 2.215 . S
Mn469 O495 2.117 . S
C470 O492 1.234 . S
C470 O493 1.283 . S
C471 O483 1.281 . S
C471 O484 1.236 . S
C472 O494 1.240 . S
C472 O495 1.264 . S
O473 Mn468 2.095 . S
O473 C482 1.250 . S
O474 Mn469 2.121 . S
O474 C482 1.258 . S
C475 N476 1.326 . S
C475 C479 1.460 . S
C475 H481 0.929 . S
N476 Mn469 2.257 . S
N476 C475 1.326 . S
N476 C480 1.362 . S
C477 C478 1.258 . S
C477 C480 1.431 . S
C477 C497 1.449 . S
C478 C477 1.258 . S
C478 C479 1.477 . S
C478 H498 0.931 . S
C479 C475 1.460 . S
C479 C478 1.477 . S
C479 H499 0.930 . S
C480 N476 1.362 . S
C480 C477 1.431 . S
C480 C490 1.476 . S
H481 C475 0.929 . S
C482 O473 1.250 . S
C482 O474 1.258 . S
O483 Mn468 2.162 . S
O483 C471 1.281 . S
O484 Mn468 2.297 . S
O484 C471 1.236 . S
N485 Mn469 2.282 . S
N485 C486 1.328 . S
N485 C490 1.318 . S
C486 N485 1.328 . S
C486 C487 1.457 . S
C486 H491 0.929 . S
C487 C486 1.457 . S
C487 C488 1.291 . S
C487 H500 0.931 . S
C488 C487 1.291 . S
C488 C489 1.373 . S
C488 H501 0.929 . S
C489 C488 1.373 . S
C489 C490 1.396 . S
C489 C496 1.403 . S
C490 C480 1.476 . S
C490 N485 1.318 . S
C490 C489 1.396 . S
H491 C486 0.929 . S
O492 Mn468 2.385 . S
O492 C470 1.234 . S
O493 Mn468 2.209 . S
O493 Mn469 2.215 . S
O493 C470 1.283 . S
O494 Mn468 2.094 . S
O494 C472 1.240 . S
O495 Mn469 2.117 . S
O495 C472 1.264 . S
C496 C489 1.403 . S
C496 C497 1.399 . S
C496 H502 0.929 . S
C497 C477 1.449 . S
C497 C496 1.399 . S
C497 H503 0.930 . S
H498 C478 0.931 . S
H499 C479 0.930 . S
H500 C487 0.931 . S
H501 C488 0.929 . S
H502 C496 0.929 . S
H503 C497 0.930 . S
Mn504 O509 2.095 . S
Mn504 O519 2.162 . S
Mn504 O520 2.297 . S
Mn504 O528 2.385 . S
Mn504 O529 2.209 . S
Mn504 O530 2.094 . S
Mn505 O510 2.121 . S
Mn505 N512 2.257 . S
Mn505 N521 2.282 . S
Mn505 O529 2.215 . S
Mn505 O531 2.117 . S
C506 O528 1.234 . S
C506 O529 1.283 . S
C507 O519 1.281 . S
C507 O520 1.236 . S
C508 O530 1.240 . S
C508 O531 1.264 . S
O509 Mn504 2.095 . S
O509 C518 1.250 . S
O510 Mn505 2.121 . S
O510 C518 1.258 . S
C511 N512 1.326 . S
C511 C515 1.460 . S
C511 H517 0.929 . S
N512 Mn505 2.257 . S
N512 C511 1.326 . S
N512 C516 1.362 . S
C513 C514 1.258 . S
C513 C516 1.431 . S
C513 C533 1.449 . S
C514 C513 1.258 . S
C514 C515 1.477 . S
C514 H534 0.931 . S
C515 C511 1.460 . S
C515 C514 1.477 . S
C515 H535 0.930 . S
C516 N512 1.362 . S
C516 C513 1.431 . S
C516 C526 1.476 . S
H517 C511 0.929 . S
C518 O509 1.250 . S
C518 O510 1.258 . S
O519 Mn504 2.162 . S
O519 C507 1.281 . S
O520 Mn504 2.297 . S
O520 C507 1.236 . S
N521 Mn505 2.282 . S
N521 C522 1.328 . S
N521 C526 1.318 . S
C522 N521 1.328 . S
C522 C523 1.457 . S
C522 H527 0.929 . S
C523 C522 1.457 . S
C523 C524 1.291 . S
C523 H536 0.931 . S
C524 C523 1.291 . S
C524 C525 1.373 . S
C524 H537 0.929 . S
C525 C524 1.373 . S
C525 C526 1.396 . S
C525 C532 1.403 . S
C526 C516 1.476 . S
C526 N521 1.318 . S
C526 C525 1.396 . S
H527 C522 0.929 . S
O528 Mn504 2.385 . S
O528 C506 1.234 . S
O529 Mn504 2.209 . S
O529 Mn505 2.215 . S
O529 C506 1.283 . S
O530 Mn504 2.094 . S
O530 C508 1.240 . S
O531 Mn505 2.117 . S
O531 C508 1.264 . S
C532 C525 1.403 . S
C532 C533 1.399 . S
C532 H538 0.929 . S
C533 C513 1.449 . S
C533 C532 1.399 . S
C533 H539 0.930 . S
H534 C514 0.931 . S
H535 C515 0.930 . S
H536 C523 0.931 . S
H537 C524 0.929 . S
H538 C532 0.929 . S
H539 C533 0.930 . S
Mn540 O545 2.095 . S
Mn540 O555 2.162 . S
Mn540 O556 2.297 . S
Mn540 O564 2.385 . S
Mn540 O565 2.209 . S
Mn540 O566 2.094 . S
Mn541 O546 2.121 . S
Mn541 N548 2.257 . S
Mn541 N557 2.282 . S
Mn541 O565 2.215 . S
Mn541 O567 2.117 . S
C542 O564 1.234 . S
C542 O565 1.283 . S
C543 O555 1.281 . S
C543 O556 1.236 . S
C544 O566 1.240 . S
C544 O567 1.264 . S
O545 Mn540 2.095 . S
O545 C554 1.250 . S
O546 Mn541 2.121 . S
O546 C554 1.258 . S
C547 N548 1.326 . S
C547 C551 1.460 . S
C547 H553 0.929 . S
N548 Mn541 2.257 . S
N548 C547 1.326 . S
N548 C552 1.362 . S
C549 C550 1.258 . S
C549 C552 1.431 . S
C549 C569 1.449 . S
C550 C549 1.258 . S
C550 C551 1.477 . S
C550 H570 0.931 . S
C551 C547 1.460 . S
C551 C550 1.477 . S
C551 H571 0.930 . S
C552 N548 1.362 . S
C552 C549 1.431 . S
C552 C562 1.476 . S
H553 C547 0.929 . S
C554 O545 1.250 . S
C554 O546 1.258 . S
O555 Mn540 2.162 . S
O555 C543 1.281 . S
O556 Mn540 2.297 . S
O556 C543 1.236 . S
N557 Mn541 2.282 . S
N557 C558 1.328 . S
N557 C562 1.318 . S
C558 N557 1.328 . S
C558 C559 1.457 . S
C558 H563 0.929 . S
C559 C558 1.457 . S
C559 C560 1.291 . S
C559 H572 0.931 . S
C560 C559 1.291 . S
C560 C561 1.373 . S
C560 H573 0.929 . S
C561 C560 1.373 . S
C561 C562 1.396 . S
C561 C568 1.403 . S
C562 C552 1.476 . S
C562 N557 1.318 . S
C562 C561 1.396 . S
H563 C558 0.929 . S
O564 Mn540 2.385 . S
O564 C542 1.234 . S
O565 Mn540 2.209 . S
O565 Mn541 2.215 . S
O565 C542 1.283 . S
O566 Mn540 2.094 . S
O566 C544 1.240 . S
O567 Mn541 2.117 . S
O567 C544 1.264 . S
C568 C561 1.403 . S
C568 C569 1.399 . S
C568 H574 0.929 . S
C569 C549 1.449 . S
C569 C568 1.399 . S
C569 H575 0.930 . S
H570 C550 0.931 . S
H571 C551 0.930 . S
H572 C559 0.931 . S
H573 C560 0.929 . S
H574 C568 0.929 . S
H575 C569 0.930 . S
Mn576 O581 2.095 . S
Mn576 O591 2.162 . S
Mn576 O592 2.297 . S
Mn576 O600 2.385 . S
Mn576 O601 2.209 . S
Mn576 O602 2.094 . S
Mn577 O582 2.121 . S
Mn577 N584 2.257 . S
Mn577 N593 2.282 . S
Mn577 O601 2.215 . S
Mn577 O603 2.117 . S
C578 O600 1.234 . S
C578 O601 1.283 . S
C579 O591 1.281 . S
C579 O592 1.236 . S
C580 O602 1.240 . S
C580 O603 1.264 . S
O581 Mn576 2.095 . S
O581 C590 1.250 . S
O582 Mn577 2.121 . S
O582 C590 1.258 . S
C583 N584 1.326 . S
C583 C587 1.460 1_556 S
C583 H589 0.929 . S
N584 Mn577 2.257 . S
N584 C583 1.326 . S
N584 C588 1.362 1_556 S
C585 C586 1.258 . S
C585 C588 1.431 . S
C585 C605 1.449 . S
C586 C585 1.258 . S
C586 C587 1.477 . S
C586 H606 0.931 . S
C587 C583 1.460 1_554 S
C587 C586 1.477 . S
C587 H607 0.930 . S
C588 N584 1.362 1_554 S
C588 C585 1.431 . S
C588 C598 1.476 . S
H589 C583 0.929 . S
C590 O581 1.250 . S
C590 O582 1.258 . S
O591 Mn576 2.162 . S
O591 C579 1.281 . S
O592 Mn576 2.297 . S
O592 C579 1.236 . S
N593 Mn577 2.282 . S
N593 C594 1.328 . S
N593 C598 1.318 1_556 S
C594 N593 1.328 . S
C594 C595 1.457 . S
C594 H599 0.929 . S
C595 C594 1.457 . S
C595 C596 1.291 1_556 S
C595 H608 0.931 . S
C596 C595 1.291 1_554 S
C596 C597 1.373 . S
C596 H609 0.929 . S
C597 C596 1.373 . S
C597 C598 1.396 . S
C597 C604 1.403 . S
C598 C588 1.476 . S
C598 N593 1.318 1_554 S
C598 C597 1.396 . S
H599 C594 0.929 . S
O600 Mn576 2.385 . S
O600 C578 1.234 . S
O601 Mn576 2.209 . S
O601 Mn577 2.215 . S
O601 C578 1.283 . S
O602 Mn576 2.094 . S
O602 C580 1.240 . S
O603 Mn577 2.117 . S
O603 C580 1.264 . S
C604 C597 1.403 . S
C604 C605 1.399 . S
C604 H610 0.929 . S
C605 C585 1.449 . S
C605 C604 1.399 . S
C605 H611 0.930 . S
H606 C586 0.931 . S
H607 C587 0.930 . S
H608 C595 0.931 . S
H609 C596 0.929 . S
H610 C604 0.929 . S
H611 C605 0.930 . S
Mn612 O617 2.095 . S
Mn612 O627 2.162 . S
Mn612 O628 2.297 . S
Mn612 O636 2.385 . S
Mn612 O637 2.209 . S
Mn612 O638 2.094 . S
Mn613 O618 2.121 . S
Mn613 N620 2.257 . S
Mn613 N629 2.282 . S
Mn613 O637 2.215 . S
Mn613 O639 2.117 . S
C614 O636 1.234 . S
C614 O637 1.283 . S
C615 O627 1.281 . S
C615 O628 1.236 . S
C616 O638 1.240 . S
C616 O639 1.264 . S
O617 Mn612 2.095 . S
O617 C626 1.250 . S
O618 Mn613 2.121 . S
O618 C626 1.258 . S
C619 N620 1.326 . S
C619 C623 1.460 . S
C619 H625 0.929 . S
N620 Mn613 2.257 . S
N620 C619 1.326 . S
N620 C624 1.362 . S
C621 C622 1.258 . S
C621 C624 1.431 . S
C621 C641 1.449 . S
C622 C621 1.258 . S
C622 C623 1.477 . S
C622 H642 0.931 . S
C623 C619 1.460 . S
C623 C622 1.477 . S
C623 H643 0.930 . S
C624 N620 1.362 . S
C624 C621 1.431 . S
C624 C634 1.476 . S
H625 C619 0.929 . S
C626 O617 1.250 . S
C626 O618 1.258 . S
O627 Mn612 2.162 . S
O627 C615 1.281 . S
O628 Mn612 2.297 . S
O628 C615 1.236 . S
N629 Mn613 2.282 . S
N629 C630 1.328 . S
N629 C634 1.318 . S
C630 N629 1.328 . S
C630 C631 1.457 . S
C630 H635 0.929 . S
C631 C630 1.457 . S
C631 C632 1.291 . S
C631 H644 0.931 . S
C632 C631 1.291 . S
C632 C633 1.373 . S
C632 H645 0.929 . S
C633 C632 1.373 . S
C633 C634 1.396 . S
C633 C640 1.403 . S
C634 C624 1.476 . S
C634 N629 1.318 . S
C634 C633 1.396 . S
H635 C630 0.929 . S
O636 Mn612 2.385 . S
O636 C614 1.234 . S
O637 Mn612 2.209 . S
O637 Mn613 2.215 . S
O637 C614 1.283 . S
O638 Mn612 2.094 . S
O638 C616 1.240 . S
O639 Mn613 2.117 . S
O639 C616 1.264 . S
C640 C633 1.403 . S
C640 C641 1.399 . S
C640 H646 0.929 . S
C641 C621 1.449 . S
C641 C640 1.399 . S
C641 H647 0.930 . S
H642 C622 0.931 . S
H643 C623 0.930 . S
H644 C631 0.931 . S
H645 C632 0.929 . S
H646 C640 0.929 . S
H647 C641 0.930 . S
Mn648 O653 2.095 . S
Mn648 O663 2.162 . S
Mn648 O664 2.297 . S
Mn648 O672 2.385 . S
Mn648 O673 2.209 . S
Mn648 O674 2.094 . S
Mn649 O654 2.121 . S
Mn649 N656 2.257 . S
Mn649 N665 2.282 . S
Mn649 O673 2.215 . S
Mn649 O675 2.117 . S
C650 O672 1.234 . S
C650 O673 1.283 . S
C651 O663 1.281 . S
C651 O664 1.236 . S
C652 O674 1.240 . S
C652 O675 1.264 . S
O653 Mn648 2.095 . S
O653 C662 1.250 . S
O654 Mn649 2.121 . S
O654 C662 1.258 . S
C655 N656 1.326 . S
C655 C659 1.460 . S
C655 H661 0.929 . S
N656 Mn649 2.257 . S
N656 C655 1.326 . S
N656 C660 1.362 . S
C657 C658 1.258 . S
C657 C660 1.431 . S
C657 C677 1.449 . S
C658 C657 1.258 . S
C658 C659 1.477 . S
C658 H678 0.931 . S
C659 C655 1.460 . S
C659 C658 1.477 . S
C659 H679 0.930 . S
C660 N656 1.362 . S
C660 C657 1.431 . S
C660 C670 1.476 . S
H661 C655 0.929 . S
C662 O653 1.250 . S
C662 O654 1.258 . S
O663 Mn648 2.162 . S
O663 C651 1.281 . S
O664 Mn648 2.297 . S
O664 C651 1.236 . S
N665 Mn649 2.282 . S
N665 C666 1.328 . S
N665 C670 1.318 . S
C666 N665 1.328 . S
C666 C667 1.457 . S
C666 H671 0.929 . S
C667 C666 1.457 . S
C667 C668 1.291 . S
C667 H680 0.931 . S
C668 C667 1.291 . S
C668 C669 1.373 . S
C668 H681 0.929 . S
C669 C668 1.373 . S
C669 C670 1.396 . S
C669 C676 1.403 . S
C670 C660 1.476 . S
C670 N665 1.318 . S
C670 C669 1.396 . S
H671 C666 0.929 . S
O672 Mn648 2.385 . S
O672 C650 1.234 . S
O673 Mn648 2.209 . S
O673 Mn649 2.215 . S
O673 C650 1.283 . S
O674 Mn648 2.094 . S
O674 C652 1.240 . S
O675 Mn649 2.117 . S
O675 C652 1.264 . S
C676 C669 1.403 . S
C676 C677 1.399 . S
C676 H682 0.929 . S
C677 C657 1.449 . S
C677 C676 1.399 . S
C677 H683 0.930 . S
H678 C658 0.931 . S
H679 C659 0.930 . S
H680 C667 0.931 . S
H681 C668 0.929 . S
H682 C676 0.929 . S
H683 C677 0.930 . S
Mn684 O689 2.095 . S
Mn684 O699 2.162 . S
Mn684 O700 2.297 . S
Mn684 O708 2.385 . S
Mn684 O709 2.209 . S
Mn684 O710 2.094 . S
Mn685 O690 2.121 . S
Mn685 N692 2.257 . S
Mn685 N701 2.282 . S
Mn685 O709 2.215 . S
Mn685 O711 2.117 . S
C686 O708 1.234 . S
C686 O709 1.283 . S
C687 O699 1.281 . S
C687 O700 1.236 . S
C688 O710 1.240 . S
C688 O711 1.264 . S
O689 Mn684 2.095 . S
O689 C698 1.250 . S
O690 Mn685 2.121 . S
O690 C698 1.258 . S
C691 N692 1.326 . S
C691 C695 1.460 . S
C691 H697 0.929 . S
N692 Mn685 2.257 . S
N692 C691 1.326 . S
N692 C696 1.362 . S
C693 C694 1.258 . S
C693 C696 1.431 . S
C693 C713 1.449 . S
C694 C693 1.258 . S
C694 C695 1.477 . S
C694 H714 0.931 . S
C695 C691 1.460 . S
C695 C694 1.477 . S
C695 H715 0.930 . S
C696 N692 1.362 . S
C696 C693 1.431 . S
C696 C706 1.476 . S
H697 C691 0.929 . S
C698 O689 1.250 . S
C698 O690 1.258 . S
O699 Mn684 2.162 . S
O699 C687 1.281 . S
O700 Mn684 2.297 . S
O700 C687 1.236 . S
N701 Mn685 2.282 . S
N701 C702 1.328 . S
N701 C706 1.318 . S
C702 N701 1.328 . S
C702 C703 1.457 . S
C702 H707 0.929 . S
C703 C702 1.457 . S
C703 C704 1.291 . S
C703 H716 0.931 . S
C704 C703 1.291 . S
C704 C705 1.373 . S
C704 H717 0.929 . S
C705 C704 1.373 . S
C705 C706 1.396 . S
C705 C712 1.403 . S
C706 C696 1.476 . S
C706 N701 1.318 . S
C706 C705 1.396 . S
H707 C702 0.929 . S
O708 Mn684 2.385 . S
O708 C686 1.234 . S
O709 Mn684 2.209 . S
O709 Mn685 2.215 . S
O709 C686 1.283 . S
O710 Mn684 2.094 . S
O710 C688 1.240 . S
O711 Mn685 2.117 . S
O711 C688 1.264 . S
C712 C705 1.403 . S
C712 C713 1.399 . S
C712 H718 0.929 . S
C713 C693 1.449 . S
C713 C712 1.399 . S
C713 H719 0.930 . S
H714 C694 0.931 . S
H715 C695 0.930 . S
H716 C703 0.931 . S
H717 C704 0.929 . S
H718 C712 0.929 . S
H719 C713 0.930 . S
Mn720 O725 2.095 . S
Mn720 O735 2.162 . S
Mn720 O736 2.297 . S
Mn720 O744 2.385 . S
Mn720 O745 2.209 . S
Mn720 O746 2.094 . S
Mn721 O726 2.121 . S
Mn721 N728 2.257 . S
Mn721 N737 2.282 . S
Mn721 O745 2.215 . S
Mn721 O747 2.117 . S
C722 O744 1.234 . S
C722 O745 1.283 . S
C723 O735 1.281 . S
C723 O736 1.236 . S
C724 O746 1.240 . S
C724 O747 1.264 . S
O725 Mn720 2.095 . S
O725 C734 1.250 . S
O726 Mn721 2.121 . S
O726 C734 1.258 . S
C727 N728 1.326 . S
C727 C731 1.460 . S
C727 H733 0.929 . S
N728 Mn721 2.257 . S
N728 C727 1.326 . S
N728 C732 1.362 . S
C729 C730 1.258 . S
C729 C732 1.431 . S
C729 C749 1.449 . S
C730 C729 1.258 . S
C730 C731 1.477 . S
C730 H750 0.931 . S
C731 C727 1.460 . S
C731 C730 1.477 . S
C731 H751 0.930 . S
C732 N728 1.362 . S
C732 C729 1.431 . S
C732 C742 1.476 . S
H733 C727 0.929 . S
C734 O725 1.250 . S
C734 O726 1.258 . S
O735 Mn720 2.162 . S
O735 C723 1.281 . S
O736 Mn720 2.297 . S
O736 C723 1.236 . S
N737 Mn721 2.282 . S
N737 C738 1.328 . S
N737 C742 1.318 . S
C738 N737 1.328 . S
C738 C739 1.457 . S
C738 H743 0.929 . S
C739 C738 1.457 . S
C739 C740 1.291 . S
C739 H752 0.931 . S
C740 C739 1.291 . S
C740 C741 1.373 . S
C740 H753 0.929 . S
C741 C740 1.373 . S
C741 C742 1.396 . S
C741 C748 1.403 . S
C742 C732 1.476 . S
C742 N737 1.318 . S
C742 C741 1.396 . S
H743 C738 0.929 . S
O744 Mn720 2.385 . S
O744 C722 1.234 . S
O745 Mn720 2.209 . S
O745 Mn721 2.215 . S
O745 C722 1.283 . S
O746 Mn720 2.094 . S
O746 C724 1.240 . S
O747 Mn721 2.117 . S
O747 C724 1.264 . S
C748 C741 1.403 . S
C748 C749 1.399 . S
C748 H754 0.929 . S
C749 C729 1.449 . S
C749 C748 1.399 . S
C749 H755 0.930 . S
H750 C730 0.931 . S
H751 C731 0.930 . S
H752 C739 0.931 . S
H753 C740 0.929 . S
H754 C748 0.929 . S
H755 C749 0.930 . S
Mn756 O761 2.095 . S
Mn756 O771 2.162 . S
Mn756 O772 2.297 . S
Mn756 O780 2.385 . S
Mn756 O781 2.209 . S
Mn756 O782 2.094 . S
Mn757 O762 2.121 . S
Mn757 N764 2.257 . S
Mn757 N773 2.282 . S
Mn757 O781 2.215 . S
Mn757 O783 2.117 . S
C758 O780 1.234 . S
C758 O781 1.283 . S
C759 O771 1.281 . S
C759 O772 1.236 . S
C760 O782 1.240 . S
C760 O783 1.264 . S
O761 Mn756 2.095 . S
O761 C770 1.250 . S
O762 Mn757 2.121 . S
O762 C770 1.258 . S
C763 N764 1.326 . S
C763 C767 1.460 . S
C763 H769 0.929 . S
N764 Mn757 2.257 . S
N764 C763 1.326 . S
N764 C768 1.362 . S
C765 C766 1.258 . S
C765 C768 1.431 . S
C765 C785 1.449 . S
C766 C765 1.258 . S
C766 C767 1.477 . S
C766 H786 0.931 . S
C767 C763 1.460 . S
C767 C766 1.477 . S
C767 H787 0.930 . S
C768 N764 1.362 . S
C768 C765 1.431 . S
C768 C778 1.476 . S
H769 C763 0.929 . S
C770 O761 1.250 . S
C770 O762 1.258 . S
O771 Mn756 2.162 . S
O771 C759 1.281 . S
O772 Mn756 2.297 . S
O772 C759 1.236 . S
N773 Mn757 2.282 . S
N773 C774 1.328 . S
N773 C778 1.318 . S
C774 N773 1.328 . S
C774 C775 1.457 . S
C774 H779 0.929 . S
C775 C774 1.457 . S
C775 C776 1.291 . S
C775 H788 0.931 . S
C776 C775 1.291 . S
C776 C777 1.373 . S
C776 H789 0.929 . S
C777 C776 1.373 . S
C777 C778 1.396 . S
C777 C784 1.403 . S
C778 C768 1.476 . S
C778 N773 1.318 . S
C778 C777 1.396 . S
H779 C774 0.929 . S
O780 Mn756 2.385 . S
O780 C758 1.234 . S
O781 Mn756 2.209 . S
O781 Mn757 2.215 . S
O781 C758 1.283 . S
O782 Mn756 2.094 . S
O782 C760 1.240 . S
O783 Mn757 2.117 . S
O783 C760 1.264 . S
C784 C777 1.403 . S
C784 C785 1.399 . S
C784 H790 0.929 . S
C785 C765 1.449 . S
C785 C784 1.399 . S
C785 H791 0.930 . S
H786 C766 0.931 . S
H787 C767 0.930 . S
H788 C775 0.931 . S
H789 C776 0.929 . S
H790 C784 0.929 . S
H791 C785 0.930 . S
Mn792 O797 2.095 . S
Mn792 O807 2.162 . S
Mn792 O808 2.297 . S
Mn792 O816 2.385 . S
Mn792 O817 2.209 . S
Mn792 O818 2.094 . S
Mn793 O798 2.121 . S
Mn793 N800 2.257 . S
Mn793 N809 2.282 . S
Mn793 O817 2.215 . S
Mn793 O819 2.117 . S
C794 O816 1.234 . S
C794 O817 1.283 . S
C795 O807 1.281 . S
C795 O808 1.236 . S
C796 O818 1.240 . S
C796 O819 1.264 . S
O797 Mn792 2.095 . S
O797 C806 1.250 . S
O798 Mn793 2.121 . S
O798 C806 1.258 . S
C799 N800 1.326 . S
C799 C803 1.460 1_554 S
C799 H805 0.929 . S
N800 Mn793 2.257 . S
N800 C799 1.326 . S
N800 C804 1.362 1_554 S
C801 C802 1.258 . S
C801 C804 1.431 . S
C801 C821 1.449 . S
C802 C801 1.258 . S
C802 C803 1.477 . S
C802 H822 0.931 . S
C803 C799 1.460 1_556 S
C803 C802 1.477 . S
C803 H823 0.930 . S
C804 N800 1.362 1_556 S
C804 C801 1.431 . S
C804 C814 1.476 . S
H805 C799 0.929 . S
C806 O797 1.250 . S
C806 O798 1.258 . S
O807 Mn792 2.162 . S
O807 C795 1.281 . S
O808 Mn792 2.297 . S
O808 C795 1.236 . S
N809 Mn793 2.282 . S
N809 C810 1.328 . S
N809 C814 1.318 1_554 S
C810 N809 1.328 . S
C810 C811 1.457 . S
C810 H815 0.929 . S
C811 C810 1.457 . S
C811 C812 1.291 1_554 S
C811 H824 0.931 . S
C812 C811 1.291 1_556 S
C812 C813 1.373 . S
C812 H825 0.929 . S
C813 C812 1.373 . S
C813 C814 1.396 . S
C813 C820 1.403 . S
C814 C804 1.476 . S
C814 N809 1.318 1_556 S
C814 C813 1.396 . S
H815 C810 0.929 . S
O816 Mn792 2.385 . S
O816 C794 1.234 . S
O817 Mn792 2.209 . S
O817 Mn793 2.215 . S
O817 C794 1.283 . S
O818 Mn792 2.094 . S
O818 C796 1.240 . S
O819 Mn793 2.117 . S
O819 C796 1.264 . S
C820 C813 1.403 . S
C820 C821 1.399 . S
C820 H826 0.929 . S
C821 C801 1.449 . S
C821 C820 1.399 . S
C821 H827 0.930 . S
H822 C802 0.931 . S
H823 C803 0.930 . S
H824 C811 0.931 . S
H825 C812 0.929 . S
H826 C820 0.929 . S
H827 C821 0.930 . S
Mn828 O833 2.095 . S
Mn828 O843 2.162 . S
Mn828 O844 2.297 . S
Mn828 O852 2.385 . S
Mn828 O853 2.209 . S
Mn828 O854 2.094 . S
Mn829 O834 2.121 . S
Mn829 N836 2.257 . S
Mn829 N845 2.282 . S
Mn829 O853 2.215 . S
Mn829 O855 2.117 . S
C830 O852 1.234 . S
C830 O853 1.283 . S
C831 O843 1.281 . S
C831 O844 1.236 . S
C832 O854 1.240 . S
C832 O855 1.264 . S
O833 Mn828 2.095 . S
O833 C842 1.250 . S
O834 Mn829 2.121 . S
O834 C842 1.258 . S
C835 N836 1.326 . S
C835 C839 1.460 . S
C835 H841 0.929 . S
N836 Mn829 2.257 . S
N836 C835 1.326 . S
N836 C840 1.362 . S
C837 C838 1.258 . S
C837 C840 1.431 . S
C837 C857 1.449 . S
C838 C837 1.258 . S
C838 C839 1.477 . S
C838 H858 0.931 . S
C839 C835 1.460 . S
C839 C838 1.477 . S
C839 H859 0.930 . S
C840 N836 1.362 . S
C840 C837 1.431 . S
C840 C850 1.476 . S
H841 C835 0.929 . S
C842 O833 1.250 . S
C842 O834 1.258 . S
O843 Mn828 2.162 . S
O843 C831 1.281 . S
O844 Mn828 2.297 . S
O844 C831 1.236 . S
N845 Mn829 2.282 . S
N845 C846 1.328 . S
N845 C850 1.318 . S
C846 N845 1.328 . S
C846 C847 1.457 . S
C846 H851 0.929 . S
C847 C846 1.457 . S
C847 C848 1.291 . S
C847 H860 0.931 . S
C848 C847 1.291 . S
C848 C849 1.373 . S
C848 H861 0.929 . S
C849 C848 1.373 . S
C849 C850 1.396 . S
C849 C856 1.403 . S
C850 C840 1.476 . S
C850 N845 1.318 . S
C850 C849 1.396 . S
H851 C846 0.929 . S
O852 Mn828 2.385 . S
O852 C830 1.234 . S
O853 Mn828 2.209 . S
O853 Mn829 2.215 . S
O853 C830 1.283 . S
O854 Mn828 2.094 . S
O854 C832 1.240 . S
O855 Mn829 2.117 . S
O855 C832 1.264 . S
C856 C849 1.403 . S
C856 C857 1.399 . S
C856 H862 0.929 . S
C857 C837 1.449 . S
C857 C856 1.399 . S
C857 H863 0.930 . S
H858 C838 0.931 . S
H859 C839 0.930 . S
H860 C847 0.931 . S
H861 C848 0.929 . S
H862 C856 0.929 . S
H863 C857 0.930 . S
Mn864 O869 2.095 . S
Mn864 O879 2.162 . S
Mn864 O880 2.297 . S
Mn864 O888 2.385 . S
Mn864 O889 2.209 . S
Mn864 O890 2.094 . S
Mn865 O870 2.121 . S
Mn865 N872 2.257 . S
Mn865 N881 2.282 . S
Mn865 O889 2.215 . S
Mn865 O891 2.117 . S
C866 O888 1.234 . S
C866 O889 1.283 . S
C867 O879 1.281 . S
C867 O880 1.236 . S
C868 O890 1.240 . S
C868 O891 1.264 . S
O869 Mn864 2.095 . S
O869 C878 1.250 . S
O870 Mn865 2.121 . S
O870 C878 1.258 . S
C871 N872 1.326 . S
C871 C875 1.460 1_554 S
C871 H877 0.929 . S
N872 Mn865 2.257 . S
N872 C871 1.326 . S
N872 C876 1.362 1_554 S
C873 C874 1.258 . S
C873 C876 1.431 . S
C873 C893 1.449 . S
C874 C873 1.258 . S
C874 C875 1.477 . S
C874 H894 0.931 . S
C875 C871 1.460 1_556 S
C875 C874 1.477 . S
C875 H895 0.930 . S
C876 N872 1.362 1_556 S
C876 C873 1.431 . S
C876 C886 1.476 . S
H877 C871 0.929 . S
C878 O869 1.250 . S
C878 O870 1.258 . S
O879 Mn864 2.162 . S
O879 C867 1.281 . S
O880 Mn864 2.297 . S
O880 C867 1.236 . S
N881 Mn865 2.282 . S
N881 C882 1.328 . S
N881 C886 1.318 1_554 S
C882 N881 1.328 . S
C882 C883 1.457 . S
C882 H887 0.929 . S
C883 C882 1.457 . S
C883 C884 1.291 1_554 S
C883 H896 0.931 . S
C884 C883 1.291 1_556 S
C884 C885 1.373 . S
C884 H897 0.929 . S
C885 C884 1.373 . S
C885 C886 1.396 . S
C885 C892 1.403 . S
C886 C876 1.476 . S
C886 N881 1.318 1_556 S
C886 C885 1.396 . S
H887 C882 0.929 . S
O888 Mn864 2.385 . S
O888 C866 1.234 . S
O889 Mn864 2.209 . S
O889 Mn865 2.215 . S
O889 C866 1.283 . S
O890 Mn864 2.094 . S
O890 C868 1.240 . S
O891 Mn865 2.117 . S
O891 C868 1.264 . S
C892 C885 1.403 . S
C892 C893 1.399 . S
C892 H898 0.929 . S
C893 C873 1.449 . S
C893 C892 1.399 . S
C893 H899 0.930 . S
H894 C874 0.931 . S
H895 C875 0.930 . S
H896 C883 0.931 . S
H897 C884 0.929 . S
H898 C892 0.929 . S
H899 C893 0.930 . S
Mn900 O905 2.095 . S
Mn900 O915 2.162 . S
Mn900 O916 2.297 . S
Mn900 O924 2.385 . S
Mn900 O925 2.209 . S
Mn900 O926 2.094 . S
Mn901 O906 2.121 . S
Mn901 N908 2.257 . S
Mn901 N917 2.282 . S
Mn901 O925 2.215 . S
Mn901 O927 2.117 . S
C902 O924 1.234 . S
C902 O925 1.283 . S
C903 O915 1.281 . S
C903 O916 1.236 . S
C904 O926 1.240 . S
C904 O927 1.264 . S
O905 Mn900 2.095 . S
O905 C914 1.250 . S
O906 Mn901 2.121 . S
O906 C914 1.258 . S
C907 N908 1.326 . S
C907 C911 1.460 . S
C907 H913 0.929 . S
N908 Mn901 2.257 . S
N908 C907 1.326 . S
N908 C912 1.362 . S
C909 C910 1.258 . S
C909 C912 1.431 . S
C909 C929 1.449 . S
C910 C909 1.258 . S
C910 C911 1.477 . S
C910 H930 0.931 . S
C911 C907 1.460 . S
C911 C910 1.477 . S
C911 H931 0.930 . S
C912 N908 1.362 . S
C912 C909 1.431 . S
C912 C922 1.476 . S
H913 C907 0.929 . S
C914 O905 1.250 . S
C914 O906 1.258 . S
O915 Mn900 2.162 . S
O915 C903 1.281 . S
O916 Mn900 2.297 . S
O916 C903 1.236 . S
N917 Mn901 2.282 . S
N917 C918 1.328 . S
N917 C922 1.318 . S
C918 N917 1.328 . S
C918 C919 1.457 . S
C918 H923 0.929 . S
C919 C918 1.457 . S
C919 C920 1.291 . S
C919 H932 0.931 . S
C920 C919 1.291 . S
C920 C921 1.373 . S
C920 H933 0.929 . S
C921 C920 1.373 . S
C921 C922 1.396 . S
C921 C928 1.403 . S
C922 C912 1.476 . S
C922 N917 1.318 . S
C922 C921 1.396 . S
H923 C918 0.929 . S
O924 Mn900 2.385 . S
O924 C902 1.234 . S
O925 Mn900 2.209 . S
O925 Mn901 2.215 . S
O925 C902 1.283 . S
O926 Mn900 2.094 . S
O926 C904 1.240 . S
O927 Mn901 2.117 . S
O927 C904 1.264 . S
C928 C921 1.403 . S
C928 C929 1.399 . S
C928 H934 0.929 . S
C929 C909 1.449 . S
C929 C928 1.399 . S
C929 H935 0.930 . S
H930 C910 0.931 . S
H931 C911 0.930 . S
H932 C919 0.931 . S
H933 C920 0.929 . S
H934 C928 0.929 . S
H935 C929 0.930 . S
Mn936 O941 2.095 . S
Mn936 O951 2.162 . S
Mn936 O952 2.297 . S
Mn936 O960 2.385 . S
Mn936 O961 2.209 . S
Mn936 O962 2.094 . S
Mn937 O942 2.121 . S
Mn937 N944 2.257 . S
Mn937 N953 2.282 . S
Mn937 O961 2.215 . S
Mn937 O963 2.117 . S
C938 O960 1.234 . S
C938 O961 1.283 . S
C939 O951 1.281 . S
C939 O952 1.236 . S
C940 O962 1.240 . S
C940 O963 1.264 . S
O941 Mn936 2.095 . S
O941 C950 1.250 . S
O942 Mn937 2.121 . S
O942 C950 1.258 . S
C943 N944 1.326 . S
C943 C947 1.460 . S
C943 H949 0.929 . S
N944 Mn937 2.257 . S
N944 C943 1.326 . S
N944 C948 1.362 . S
C945 C946 1.258 . S
C945 C948 1.431 . S
C945 C965 1.449 . S
C946 C945 1.258 . S
C946 C947 1.477 . S
C946 H966 0.931 . S
C947 C943 1.460 . S
C947 C946 1.477 . S
C947 H967 0.930 . S
C948 N944 1.362 . S
C948 C945 1.431 . S
C948 C958 1.476 . S
H949 C943 0.929 . S
C950 O941 1.250 . S
C950 O942 1.258 . S
O951 Mn936 2.162 . S
O951 C939 1.281 . S
O952 Mn936 2.297 . S
O952 C939 1.236 . S
N953 Mn937 2.282 . S
N953 C954 1.328 . S
N953 C958 1.318 . S
C954 N953 1.328 . S
C954 C955 1.457 . S
C954 H959 0.929 . S
C955 C954 1.457 . S
C955 C956 1.291 . S
C955 H968 0.931 . S
C956 C955 1.291 . S
C956 C957 1.373 . S
C956 H969 0.929 . S
C957 C956 1.373 . S
C957 C958 1.396 . S
C957 C964 1.403 . S
C958 C948 1.476 . S
C958 N953 1.318 . S
C958 C957 1.396 . S
H959 C954 0.929 . S
O960 Mn936 2.385 . S
O960 C938 1.234 . S
O961 Mn936 2.209 . S
O961 Mn937 2.215 . S
O961 C938 1.283 . S
O962 Mn936 2.094 . S
O962 C940 1.240 . S
O963 Mn937 2.117 . S
O963 C940 1.264 . S
C964 C957 1.403 . S
C964 C965 1.399 . S
C964 H970 0.929 . S
C965 C945 1.449 . S
C965 C964 1.399 . S
C965 H971 0.930 . S
H966 C946 0.931 . S
H967 C947 0.930 . S
H968 C955 0.931 . S
H969 C956 0.929 . S
H970 C964 0.929 . S
H971 C965 0.930 . S
Mn972 O977 2.095 . S
Mn972 O987 2.162 . S
Mn972 O988 2.297 . S
Mn972 O996 2.385 . S
Mn972 O997 2.209 . S
Mn972 O998 2.094 . S
Mn973 O978 2.121 . S
Mn973 N980 2.257 . S
Mn973 N989 2.282 . S
Mn973 O997 2.215 . S
Mn973 O999 2.117 . S
C974 O996 1.234 . S
C974 O997 1.283 . S
C975 O987 1.281 . S
C975 O988 1.236 . S
C976 O998 1.240 . S
C976 O999 1.264 . S
O977 Mn972 2.095 . S
O977 C986 1.250 . S
O978 Mn973 2.121 . S
O978 C986 1.258 . S
C979 N980 1.326 . S
C979 C983 1.460 . S
C979 H985 0.929 . S
N980 Mn973 2.257 . S
N980 C979 1.326 . S
N980 C984 1.362 . S
C981 C982 1.258 . S
C981 C984 1.431 . S
C981 C1001 1.449 . S
C982 C981 1.258 . S
C982 C983 1.477 . S
C982 H1002 0.931 . S
C983 C979 1.460 . S
C983 C982 1.477 . S
C983 H1003 0.930 . S
C984 N980 1.362 . S
C984 C981 1.431 . S
C984 C994 1.476 . S
H985 C979 0.929 . S
C986 O977 1.250 . S
C986 O978 1.258 . S
O987 Mn972 2.162 . S
O987 C975 1.281 . S
O988 Mn972 2.297 . S
O988 C975 1.236 . S
N989 Mn973 2.282 . S
N989 C990 1.328 . S
N989 C994 1.318 . S
C990 N989 1.328 . S
C990 C991 1.457 . S
C990 H995 0.929 . S
C991 C990 1.457 . S
C991 C992 1.291 . S
C991 H1004 0.931 . S
C992 C991 1.291 . S
C992 C993 1.373 . S
C992 H1005 0.929 . S
C993 C992 1.373 . S
C993 C994 1.396 . S
C993 C1000 1.403 . S
C994 C984 1.476 . S
C994 N989 1.318 . S
C994 C993 1.396 . S
H995 C990 0.929 . S
O996 Mn972 2.385 . S
O996 C974 1.234 . S
O997 Mn972 2.209 . S
O997 Mn973 2.215 . S
O997 C974 1.283 . S
O998 Mn972 2.094 . S
O998 C976 1.240 . S
O999 Mn973 2.117 . S
O999 C976 1.264 . S
C1000 C993 1.403 . S
C1000 C1001 1.399 . S
C1000 H1006 0.929 . S
C1001 C981 1.449 . S
C1001 C1000 1.399 . S
C1001 H1007 0.930 . S
H1002 C982 0.931 . S
H1003 C983 0.930 . S
H1004 C991 0.931 . S
H1005 C992 0.929 . S
H1006 C1000 0.929 . S
H1007 C1001 0.930 . S
Mn1008 O1013 2.095 . S
Mn1008 O1023 2.162 . S
Mn1008 O1024 2.297 . S
Mn1008 O1032 2.385 . S
Mn1008 O1033 2.209 . S
Mn1008 O1034 2.094 . S
Mn1009 O1014 2.121 . S
Mn1009 N1016 2.257 . S
Mn1009 N1025 2.282 . S
Mn1009 O1033 2.215 . S
Mn1009 O1035 2.117 . S
C1010 O1032 1.234 . S
C1010 O1033 1.283 . S
C1011 O1023 1.281 . S
C1011 O1024 1.236 . S
C1012 O1034 1.240 . S
C1012 O1035 1.264 . S
O1013 Mn1008 2.095 . S
O1013 C1022 1.250 . S
O1014 Mn1009 2.121 . S
O1014 C1022 1.258 . S
C1015 N1016 1.326 . S
C1015 C1019 1.460 . S
C1015 H1021 0.929 . S
N1016 Mn1009 2.257 . S
N1016 C1015 1.326 . S
N1016 C1020 1.362 . S
C1017 C1018 1.258 . S
C1017 C1020 1.431 . S
C1017 C1037 1.449 . S
C1018 C1017 1.258 . S
C1018 C1019 1.477 . S
C1018 H1038 0.931 . S
C1019 C1015 1.460 . S
C1019 C1018 1.477 . S
C1019 H1039 0.930 . S
C1020 N1016 1.362 . S
C1020 C1017 1.431 . S
C1020 C1030 1.476 . S
H1021 C1015 0.929 . S
C1022 O1013 1.250 . S
C1022 O1014 1.258 . S
O1023 Mn1008 2.162 . S
O1023 C1011 1.281 . S
O1024 Mn1008 2.297 . S
O1024 C1011 1.236 . S
N1025 Mn1009 2.282 . S
N1025 C1026 1.328 . S
N1025 C1030 1.318 . S
C1026 N1025 1.328 . S
C1026 C1027 1.457 . S
C1026 H1031 0.929 . S
C1027 C1026 1.457 . S
C1027 C1028 1.291 . S
C1027 H1040 0.931 . S
C1028 C1027 1.291 . S
C1028 C1029 1.373 . S
C1028 H1041 0.929 . S
C1029 C1028 1.373 . S
C1029 C1030 1.396 . S
C1029 C1036 1.403 . S
C1030 C1020 1.476 . S
C1030 N1025 1.318 . S
C1030 C1029 1.396 . S
H1031 C1026 0.929 . S
O1032 Mn1008 2.385 . S
O1032 C1010 1.234 . S
O1033 Mn1008 2.209 . S
O1033 Mn1009 2.215 . S
O1033 C1010 1.283 . S
O1034 Mn1008 2.094 . S
O1034 C1012 1.240 . S
O1035 Mn1009 2.117 . S
O1035 C1012 1.264 . S
C1036 C1029 1.403 . S
C1036 C1037 1.399 . S
C1036 H1042 0.929 . S
C1037 C1017 1.449 . S
C1037 C1036 1.399 . S
C1037 H1043 0.930 . S
H1038 C1018 0.931 . S
H1039 C1019 0.930 . S
H1040 C1027 0.931 . S
H1041 C1028 0.929 . S
H1042 C1036 0.929 . S
H1043 C1037 0.930 . S
Mn1044 O1049 2.095 . S
Mn1044 O1059 2.162 . S
Mn1044 O1060 2.297 . S
Mn1044 O1068 2.385 . S
Mn1044 O1069 2.209 . S
Mn1044 O1070 2.094 . S
Mn1045 O1050 2.121 . S
Mn1045 N1052 2.257 . S
Mn1045 N1061 2.282 . S
Mn1045 O1069 2.215 . S
Mn1045 O1071 2.117 . S
C1046 O1068 1.234 . S
C1046 O1069 1.283 . S
C1047 O1059 1.281 . S
C1047 O1060 1.236 . S
C1048 O1070 1.240 . S
C1048 O1071 1.264 . S
O1049 Mn1044 2.095 . S
O1049 C1058 1.250 . S
O1050 Mn1045 2.121 . S
O1050 C1058 1.258 . S
C1051 N1052 1.326 . S
C1051 C1055 1.460 . S
C1051 H1057 0.929 . S
N1052 Mn1045 2.257 . S
N1052 C1051 1.326 . S
N1052 C1056 1.362 . S
C1053 C1054 1.258 . S
C1053 C1056 1.431 . S
C1053 C1073 1.449 . S
C1054 C1053 1.258 . S
C1054 C1055 1.477 . S
C1054 H1074 0.931 . S
C1055 C1051 1.460 . S
C1055 C1054 1.477 . S
C1055 H1075 0.930 . S
C1056 N1052 1.362 . S
C1056 C1053 1.431 . S
C1056 C1066 1.476 . S
H1057 C1051 0.929 . S
C1058 O1049 1.250 . S
C1058 O1050 1.258 . S
O1059 Mn1044 2.162 . S
O1059 C1047 1.281 . S
O1060 Mn1044 2.297 . S
O1060 C1047 1.236 . S
N1061 Mn1045 2.282 . S
N1061 C1062 1.328 . S
N1061 C1066 1.318 . S
C1062 N1061 1.328 . S
C1062 C1063 1.457 . S
C1062 H1067 0.929 . S
C1063 C1062 1.457 . S
C1063 C1064 1.291 . S
C1063 H1076 0.931 . S
C1064 C1063 1.291 . S
C1064 C1065 1.373 . S
C1064 H1077 0.929 . S
C1065 C1064 1.373 . S
C1065 C1066 1.396 . S
C1065 C1072 1.403 . S
C1066 C1056 1.476 . S
C1066 N1061 1.318 . S
C1066 C1065 1.396 . S
H1067 C1062 0.929 . S
O1068 Mn1044 2.385 . S
O1068 C1046 1.234 . S
O1069 Mn1044 2.209 . S
O1069 Mn1045 2.215 . S
O1069 C1046 1.283 . S
O1070 Mn1044 2.094 . S
O1070 C1048 1.240 . S
O1071 Mn1045 2.117 . S
O1071 C1048 1.264 . S
C1072 C1065 1.403 . S
C1072 C1073 1.399 . S
C1072 H1078 0.929 . S
C1073 C1053 1.449 . S
C1073 C1072 1.399 . S
C1073 H1079 0.930 . S
H1074 C1054 0.931 . S
H1075 C1055 0.930 . S
H1076 C1063 0.931 . S
H1077 C1064 0.929 . S
H1078 C1072 0.929 . S
H1079 C1073 0.930 . S
Mn1080 O1085 2.095 . S
Mn1080 O1095 2.162 . S
Mn1080 O1096 2.297 . S
Mn1080 O1104 2.385 . S
Mn1080 O1105 2.209 . S
Mn1080 O1106 2.094 . S
Mn1081 O1086 2.121 . S
Mn1081 N1088 2.257 . S
Mn1081 N1097 2.282 . S
Mn1081 O1105 2.215 . S
Mn1081 O1107 2.117 . S
C1082 O1104 1.234 . S
C1082 O1105 1.283 . S
C1083 O1095 1.281 . S
C1083 O1096 1.236 . S
C1084 O1106 1.240 . S
C1084 O1107 1.264 . S
O1085 Mn1080 2.095 . S
O1085 C1094 1.250 . S
O1086 Mn1081 2.121 . S
O1086 C1094 1.258 . S
C1087 N1088 1.326 . S
C1087 C1091 1.460 1_556 S
C1087 H1093 0.929 . S
N1088 Mn1081 2.257 . S
N1088 C1087 1.326 . S
N1088 C1092 1.362 1_556 S
C1089 C1090 1.258 . S
C1089 C1092 1.431 . S
C1089 C1109 1.449 . S
C1090 C1089 1.258 . S
C1090 C1091 1.477 . S
C1090 H1110 0.931 . S
C1091 C1087 1.460 1_554 S
C1091 C1090 1.477 . S
C1091 H1111 0.930 . S
C1092 N1088 1.362 1_554 S
C1092 C1089 1.431 . S
C1092 C1102 1.476 . S
H1093 C1087 0.929 . S
C1094 O1085 1.250 . S
C1094 O1086 1.258 . S
O1095 Mn1080 2.162 . S
O1095 C1083 1.281 . S
O1096 Mn1080 2.297 . S
O1096 C1083 1.236 . S
N1097 Mn1081 2.282 . S
N1097 C1098 1.328 . S
N1097 C1102 1.318 1_556 S
C1098 N1097 1.328 . S
C1098 C1099 1.457 . S
C1098 H1103 0.929 . S
C1099 C1098 1.457 . S
C1099 C1100 1.291 1_556 S
C1099 H1112 0.931 . S
C1100 C1099 1.291 1_554 S
C1100 C1101 1.373 . S
C1100 H1113 0.929 . S
C1101 C1100 1.373 . S
C1101 C1102 1.396 . S
C1101 C1108 1.403 . S
C1102 C1092 1.476 . S
C1102 N1097 1.318 1_554 S
C1102 C1101 1.396 . S
H1103 C1098 0.929 . S
O1104 Mn1080 2.385 . S
O1104 C1082 1.234 . S
O1105 Mn1080 2.209 . S
O1105 Mn1081 2.215 . S
O1105 C1082 1.283 . S
O1106 Mn1080 2.094 . S
O1106 C1084 1.240 . S
O1107 Mn1081 2.117 . S
O1107 C1084 1.264 . S
C1108 C1101 1.403 . S
C1108 C1109 1.399 . S
C1108 H1114 0.929 . S
C1109 C1089 1.449 . S
C1109 C1108 1.399 . S
C1109 H1115 0.930 . S
H1110 C1090 0.931 . S
H1111 C1091 0.930 . S
H1112 C1099 0.931 . S
H1113 C1100 0.929 . S
H1114 C1108 0.929 . S
H1115 C1109 0.930 . S
Mn1116 O1121 2.095 . S
Mn1116 O1131 2.162 . S
Mn1116 O1132 2.297 . S
Mn1116 O1140 2.385 . S
Mn1116 O1141 2.209 . S
Mn1116 O1142 2.094 . S
Mn1117 O1122 2.121 . S
Mn1117 N1124 2.257 . S
Mn1117 N1133 2.282 . S
Mn1117 O1141 2.215 . S
Mn1117 O1143 2.117 . S
C1118 O1140 1.234 . S
C1118 O1141 1.283 . S
C1119 O1131 1.281 . S
C1119 O1132 1.236 . S
C1120 O1142 1.240 . S
C1120 O1143 1.264 . S
O1121 Mn1116 2.095 . S
O1121 C1130 1.250 . S
O1122 Mn1117 2.121 . S
O1122 C1130 1.258 . S
C1123 N1124 1.326 . S
C1123 C1127 1.460 . S
C1123 H1129 0.929 . S
N1124 Mn1117 2.257 . S
N1124 C1123 1.326 . S
N1124 C1128 1.362 . S
C1125 C1126 1.258 . S
C1125 C1128 1.431 . S
C1125 C1145 1.449 . S
C1126 C1125 1.258 . S
C1126 C1127 1.477 . S
C1126 H1146 0.931 . S
C1127 C1123 1.460 . S
C1127 C1126 1.477 . S
C1127 H1147 0.930 . S
C1128 N1124 1.362 . S
C1128 C1125 1.431 . S
C1128 C1138 1.476 . S
H1129 C1123 0.929 . S
C1130 O1121 1.250 . S
C1130 O1122 1.258 . S
O1131 Mn1116 2.162 . S
O1131 C1119 1.281 . S
O1132 Mn1116 2.297 . S
O1132 C1119 1.236 . S
N1133 Mn1117 2.282 . S
N1133 C1134 1.328 . S
N1133 C1138 1.318 . S
C1134 N1133 1.328 . S
C1134 C1135 1.457 . S
C1134 H1139 0.929 . S
C1135 C1134 1.457 . S
C1135 C1136 1.291 . S
C1135 H1148 0.931 . S
C1136 C1135 1.291 . S
C1136 C1137 1.373 . S
C1136 H1149 0.929 . S
C1137 C1136 1.373 . S
C1137 C1138 1.396 . S
C1137 C1144 1.403 . S
C1138 C1128 1.476 . S
C1138 N1133 1.318 . S
C1138 C1137 1.396 . S
H1139 C1134 0.929 . S
O1140 Mn1116 2.385 . S
O1140 C1118 1.234 . S
O1141 Mn1116 2.209 . S
O1141 Mn1117 2.215 . S
O1141 C1118 1.283 . S
O1142 Mn1116 2.094 . S
O1142 C1120 1.240 . S
O1143 Mn1117 2.117 . S
O1143 C1120 1.264 . S
C1144 C1137 1.403 . S
C1144 C1145 1.399 . S
C1144 H1150 0.929 . S
C1145 C1125 1.449 . S
C1145 C1144 1.399 . S
C1145 H1151 0.930 . S
H1146 C1126 0.931 . S
H1147 C1127 0.930 . S
H1148 C1135 0.931 . S
H1149 C1136 0.929 . S
H1150 C1144 0.929 . S
H1151 C1145 0.930 . S
H1152 C1160 0.929 . S
H1153 C1162 0.930 . S
H1154 C1164 0.930 . S
H1155 C1167 0.929 . S
H1156 C1170 0.930 . S
H1157 C1172 0.960 . S
H1158 C1172 0.960 . S
H1159 C1172 0.960 . S
C1160 H1152 0.929 . S
C1160 C1161 1.377 . S
C1160 C1162 1.384 . S
C1161 C1160 1.377 . S
C1161 C1167 1.390 . S
C1162 H1153 0.930 . S
C1162 C1160 1.384 . S
C1162 C1163 1.372 . S
C1163 C1162 1.372 . S
C1163 C1164 1.400 . S
C1163 C1168 1.490 . S
C1164 H1154 0.930 . S
C1164 C1163 1.400 . S
C1164 C1167 1.386 . S
H1165 C1181 0.930 . S
H1166 C1182 0.931 . S
C1167 H1155 0.929 . S
C1167 C1161 1.390 . S
C1167 C1164 1.386 . S
C1168 C1163 1.490 . S
C1168 C1170 1.395 1_545 S
C1168 C1171 1.403 . S
H1169 C1175 0.931 1_545 S
C1170 H1156 0.930 . S
C1170 C1168 1.395 1_565 S
C1170 C1173 1.403 . S
C1171 C1168 1.403 . S
C1171 C1172 1.524 . S
C1171 C1175 1.405 1_545 S
C1172 H1157 0.960 . S
C1172 H1158 0.960 . S
C1172 H1159 0.960 . S
C1172 C1171 1.524 . S
C1173 C1170 1.403 . S
C1173 C1174 1.392 . S
C1173 C1177 1.495 . S
C1174 C1173 1.392 . S
C1174 C1175 1.380 . S
C1174 C1176 1.478 . S
C1175 H1169 0.931 1_565 S
C1175 C1171 1.405 1_565 S
C1175 C1174 1.380 . S
C1176 C1174 1.478 . S
C1176 C1178 1.381 . S
C1176 C1182 1.383 . S
C1177 C1173 1.495 . S
C1177 H1183 0.959 . S
C1177 H1184 0.961 . S
C1177 H1185 0.960 . S
C1178 C1176 1.381 . S
C1178 C1179 1.394 . S
C1178 H1186 0.930 . S
C1179 C1178 1.394 . S
C1179 C1180 1.383 . S
C1179 H1187 0.929 . S
C1180 C1179 1.383 . S
C1180 C1181 1.377 . S
C1181 H1165 0.930 . S
C1181 C1180 1.377 . S
C1181 C1182 1.379 . S
C1182 H1166 0.931 . S
C1182 C1176 1.383 . S
C1182 C1181 1.379 . S
H1183 C1177 0.959 . S
H1184 C1177 0.961 . S
H1185 C1177 0.960 . S
H1186 C1178 0.930 . S
H1187 C1179 0.929 . S
H1188 C1196 0.929 . S
H1189 C1198 0.930 . S
H1190 C1200 0.930 . S
H1191 C1203 0.929 . S
H1192 C1206 0.930 . S
H1193 C1208 0.960 . S
H1194 C1208 0.960 . S
H1195 C1208 0.960 . S
C1196 H1188 0.929 . S
C1196 C1197 1.377 . S
C1196 C1198 1.384 . S
C1197 C1196 1.377 . S
C1197 C1203 1.390 . S
C1198 H1189 0.930 . S
C1198 C1196 1.384 . S
C1198 C1199 1.372 . S
C1199 C1198 1.372 . S
C1199 C1200 1.400 . S
C1199 C1204 1.490 . S
C1200 H1190 0.930 . S
C1200 C1199 1.400 . S
C1200 C1203 1.386 . S
H1201 C1217 0.930 . S
H1202 C1218 0.931 . S
C1203 H1191 0.929 . S
C1203 C1197 1.390 . S
C1203 C1200 1.386 . S
C1204 C1199 1.490 . S
C1204 C1206 1.395 . S
C1204 C1207 1.403 . S
H1205 C1211 0.930 . S
C1206 H1192 0.930 . S
C1206 C1204 1.395 . S
C1206 C1209 1.403 . S
C1207 C1204 1.403 . S
C1207 C1208 1.524 . S
C1207 C1211 1.400 . S
C1208 H1193 0.960 . S
C1208 H1194 0.960 . S
C1208 H1195 0.960 . S
C1208 C1207 1.524 . S
C1209 C1206 1.403 . S
C1209 C1210 1.392 . S
C1209 C1213 1.495 . S
C1210 C1209 1.392 . S
C1210 C1211 1.385 . S
C1210 C1212 1.478 . S
C1211 H1205 0.930 . S
C1211 C1207 1.400 . S
C1211 C1210 1.385 . S
C1212 C1210 1.478 . S
C1212 C1214 1.381 . S
C1212 C1218 1.383 . S
C1213 C1209 1.495 . S
C1213 H1219 0.959 . S
C1213 H1220 0.961 . S
C1213 H1221 0.960 . S
C1214 C1212 1.381 . S
C1214 C1215 1.394 . S
C1214 H1222 0.930 . S
C1215 C1214 1.394 . S
C1215 C1216 1.383 . S
C1215 H1223 0.929 . S
C1216 C1215 1.383 . S
C1216 C1217 1.377 . S
C1217 H1201 0.930 . S
C1217 C1216 1.377 . S
C1217 C1218 1.379 . S
C1218 H1202 0.931 . S
C1218 C1212 1.383 . S
C1218 C1217 1.379 . S
H1219 C1213 0.959 . S
H1220 C1213 0.961 . S
H1221 C1213 0.960 . S
H1222 C1214 0.930 . S
H1223 C1215 0.929 . S
H1224 C1232 0.929 . S
H1225 C1234 0.930 . S
H1226 C1236 0.930 . S
H1227 C1239 0.929 . S
H1228 C1242 0.930 . S
H1229 C1244 0.956 . S
H1230 C1244 0.960 . S
H1231 C1244 0.960 . S
C1232 H1224 0.929 . S
C1232 C1233 1.377 . S
C1232 C1234 1.384 . S
C1233 C1232 1.377 . S
C1233 C1239 1.390 . S
C1234 H1225 0.930 . S
C1234 C1232 1.384 . S
C1234 C1235 1.372 . S
C1235 C1234 1.372 . S
C1235 C1236 1.400 . S
C1235 C1240 1.490 . S
C1236 H1226 0.930 . S
C1236 C1235 1.400 . S
C1236 C1239 1.386 . S
H1237 C1253 0.930 . S
H1238 C1254 0.931 . S
C1239 H1227 0.929 . S
C1239 C1233 1.390 . S
C1239 C1236 1.386 . S
C1240 C1235 1.490 . S
C1240 C1242 1.395 . S
C1240 C1243 1.403 . S
H1241 C1247 0.930 . S
C1242 H1228 0.930 . S
C1242 C1240 1.395 . S
C1242 C1245 1.403 1_545 S
C1243 C1240 1.403 . S
C1243 C1244 1.524 . S
C1243 C1247 1.400 1_545 S
C1244 H1229 0.956 . S
C1244 H1230 0.960 . S
C1244 H1231 0.960 . S
C1244 C1243 1.524 . S
C1245 C1242 1.403 1_565 S
C1245 C1246 1.392 . S
C1245 C1249 1.495 . S
C1246 C1245 1.392 . S
C1246 C1247 1.385 . S
C1246 C1248 1.478 . S
C1247 H1241 0.930 . S
C1247 C1243 1.400 1_565 S
C1247 C1246 1.385 . S
C1248 C1246 1.478 . S
C1248 C1250 1.381 . S
C1248 C1254 1.383 . S
C1249 C1245 1.495 . S
C1249 H1255 0.959 . S
C1249 H1256 0.961 . S
C1249 H1257 0.960 . S
C1250 C1248 1.381 . S
C1250 C1251 1.394 . S
C1250 H1258 0.930 . S
C1251 C1250 1.394 . S
C1251 C1252 1.383 . S
C1251 H1259 0.929 . S
C1252 C1251 1.383 . S
C1252 C1253 1.377 . S
C1253 H1237 0.930 . S
C1253 C1252 1.377 . S
C1253 C1254 1.379 . S
C1254 H1238 0.931 . S
C1254 C1248 1.383 . S
C1254 C1253 1.379 . S
H1255 C1249 0.959 . S
H1256 C1249 0.961 . S
H1257 C1249 0.960 . S
H1258 C1250 0.930 . S
H1259 C1251 0.929 . S
H1260 C1268 0.929 . S
H1261 C1270 0.930 . S
H1262 C1272 0.930 . S
H1263 C1275 0.929 . S
H1264 C1278 0.930 . S
H1265 C1280 0.960 . S
H1266 C1280 0.960 . S
H1267 C1280 0.960 . S
C1268 H1260 0.929 . S
C1268 C1269 1.377 . S
C1268 C1270 1.384 . S
C1269 C1268 1.377 . S
C1269 C1275 1.390 . S
C1270 H1261 0.930 . S
C1270 C1268 1.384 . S
C1270 C1271 1.372 . S
C1271 C1270 1.372 . S
C1271 C1272 1.400 . S
C1271 C1276 1.490 . S
C1272 H1262 0.930 . S
C1272 C1271 1.400 . S
C1272 C1275 1.386 . S
H1273 C1289 0.930 . S
H1274 C1290 0.931 . S
C1275 H1263 0.929 . S
C1275 C1269 1.390 . S
C1275 C1272 1.386 . S
C1276 C1271 1.490 . S
C1276 C1278 1.395 1_556 S
C1276 C1279 1.403 . S
H1277 C1283 0.930 . S
C1278 H1264 0.930 . S
C1278 C1276 1.395 1_554 S
C1278 C1281 1.403 . S
C1279 C1276 1.403 . S
C1279 C1280 1.524 . S
C1279 C1283 1.400 . S
C1280 H1265 0.960 . S
C1280 H1266 0.960 . S
C1280 H1267 0.960 . S
C1280 C1279 1.524 . S
C1281 C1278 1.403 . S
C1281 C1282 1.392 . S
C1281 C1285 1.495 . S
C1282 C1281 1.392 . S
C1282 C1283 1.385 1_554 S
C1282 C1284 1.478 . S
C1283 H1277 0.930 . S
C1283 C1279 1.400 . S
C1283 C1282 1.385 1_556 S
C1284 C1282 1.478 . S
C1284 C1286 1.381 . S
C1284 C1290 1.383 . S
C1285 C1281 1.495 . S
C1285 H1291 0.959 . S
C1285 H1292 0.961 . S
C1285 H1293 0.960 . S
C1286 C1284 1.381 . S
C1286 C1287 1.394 . S
C1286 H1294 0.930 . S
C1287 C1286 1.394 . S
C1287 C1288 1.383 . S
C1287 H1295 0.929 . S
C1288 C1287 1.383 . S
C1288 C1289 1.377 . S
C1289 H1273 0.930 . S
C1289 C1288 1.377 . S
C1289 C1290 1.379 . S
C1290 H1274 0.931 . S
C1290 C1284 1.383 . S
C1290 C1289 1.379 . S
H1291 C1285 0.959 . S
H1292 C1285 0.961 . S
H1293 C1285 0.960 . S
H1294 C1286 0.930 . S
H1295 C1287 0.929 . S
H1296 C1304 0.929 . S
H1297 C1306 0.930 . S
H1298 C1308 0.930 . S
H1299 C1311 0.929 . S
H1300 C1314 0.930 . S
H1301 C1316 0.960 . S
H1302 C1316 0.960 . S
H1303 C1316 0.960 . S
C1304 H1296 0.929 . S
C1304 C1305 1.377 . S
C1304 C1306 1.384 . S
C1305 C1304 1.377 . S
C1305 C1311 1.390 . S
C1306 H1297 0.930 . S
C1306 C1304 1.384 . S
C1306 C1307 1.372 . S
C1307 C1306 1.372 . S
C1307 C1308 1.400 . S
C1307 C1312 1.490 . S
C1308 H1298 0.930 . S
C1308 C1307 1.400 . S
C1308 C1311 1.386 . S
H1309 C1325 0.930 . S
H1310 C1326 0.931 . S
C1311 H1299 0.929 . S
C1311 C1305 1.390 . S
C1311 C1308 1.386 . S
C1312 C1307 1.490 . S
C1312 C1314 1.395 . S
C1312 C1315 1.403 1_565 S
H1313 C1319 0.930 . S
C1314 H1300 0.930 . S
C1314 C1312 1.395 . S
C1314 C1317 1.403 . S
C1315 C1312 1.403 1_545 S
C1315 C1316 1.524 . S
C1315 C1319 1.400 . S
C1316 H1301 0.960 . S
C1316 H1302 0.960 . S
C1316 H1303 0.960 . S
C1316 C1315 1.524 . S
C1317 C1314 1.403 . S
C1317 C1318 1.392 1_565 S
C1317 C1321 1.495 . S
C1318 C1317 1.392 1_545 S
C1318 C1319 1.385 . S
C1318 C1320 1.478 . S
C1319 H1313 0.930 . S
C1319 C1315 1.400 . S
C1319 C1318 1.385 . S
C1320 C1318 1.478 . S
C1320 C1322 1.381 . S
C1320 C1326 1.383 . S
C1321 C1317 1.495 . S
C1321 H1327 0.959 . S
C1321 H1328 0.961 . S
C1321 H1329 0.960 . S
C1322 C1320 1.381 . S
C1322 C1323 1.394 . S
C1322 H1330 0.930 . S
C1323 C1322 1.394 . S
C1323 C1324 1.383 . S
C1323 H1331 0.929 . S
C1324 C1323 1.383 . S
C1324 C1325 1.377 . S
C1325 H1309 0.930 . S
C1325 C1324 1.377 . S
C1325 C1326 1.379 . S
C1326 H1310 0.931 . S
C1326 C1320 1.383 . S
C1326 C1325 1.379 . S
H1327 C1321 0.959 . S
H1328 C1321 0.961 . S
H1329 C1321 0.960 . S
H1330 C1322 0.930 . S
H1331 C1323 0.929 . S
H1332 C1340 0.929 . S
H1333 C1342 0.930 . S
H1334 C1344 0.930 . S
H1335 C1347 0.929 . S
H1336 C1350 0.930 . S
H1337 C1352 0.960 . S
H1338 C1352 0.960 . S
H1339 C1352 0.960 . S
C1340 H1332 0.929 . S
C1340 C1341 1.377 . S
C1340 C1342 1.384 . S
C1341 C1340 1.377 . S
C1341 C1347 1.390 . S
C1342 H1333 0.930 . S
C1342 C1340 1.384 . S
C1342 C1343 1.372 . S
C1343 C1342 1.372 . S
C1343 C1344 1.400 . S
C1343 C1348 1.490 . S
C1344 H1334 0.930 . S
C1344 C1343 1.400 . S
C1344 C1347 1.386 . S
H1345 C1361 0.930 . S
H1346 C1362 0.931 . S
C1347 H1335 0.929 . S
C1347 C1341 1.390 . S
C1347 C1344 1.386 . S
C1348 C1343 1.490 . S
C1348 C1350 1.395 . S
C1348 C1351 1.403 . S
H1349 C1355 0.930 . S
C1350 H1336 0.930 . S
C1350 C1348 1.395 . S
C1350 C1353 1.403 . S
C1351 C1348 1.403 . S
C1351 C1352 1.524 . S
C1351 C1355 1.400 . S
C1352 H1337 0.960 . S
C1352 H1338 0.960 . S
C1352 H1339 0.960 . S
C1352 C1351 1.524 . S
C1353 C1350 1.403 . S
C1353 C1354 1.392 . S
C1353 C1357 1.495 . S
C1354 C1353 1.392 . S
C1354 C1355 1.385 . S
C1354 C1356 1.478 . S
C1355 H1349 0.930 . S
C1355 C1351 1.400 . S
C1355 C1354 1.385 . S
C1356 C1354 1.478 . S
C1356 C1358 1.381 . S
C1356 C1362 1.383 . S
C1357 C1353 1.495 . S
C1357 H1363 0.959 . S
C1357 H1364 0.961 . S
C1357 H1365 0.960 . S
C1358 C1356 1.381 . S
C1358 C1359 1.394 . S
C1358 H1366 0.930 . S
C1359 C1358 1.394 . S
C1359 C1360 1.383 . S
C1359 H1367 0.929 . S
C1360 C1359 1.383 . S
C1360 C1361 1.377 . S
C1361 H1345 0.930 . S
C1361 C1360 1.377 . S
C1361 C1362 1.379 . S
C1362 H1346 0.931 . S
C1362 C1356 1.383 . S
C1362 C1361 1.379 . S
H1363 C1357 0.959 . S
H1364 C1357 0.961 . S
H1365 C1357 0.960 . S
H1366 C1358 0.930 . S
H1367 C1359 0.929 . S
H1368 C1376 0.929 . S
H1369 C1378 0.930 . S
H1370 C1380 0.930 . S
H1371 C1383 0.929 . S
H1372 C1386 0.930 . S
H1373 C1388 0.960 . S
H1374 C1388 0.960 . S
H1375 C1388 0.960 . S
C1376 H1368 0.929 . S
C1376 C1377 1.377 . S
C1376 C1378 1.384 . S
C1377 C1376 1.377 . S
C1377 C1383 1.390 . S
C1378 H1369 0.930 . S
C1378 C1376 1.384 . S
C1378 C1379 1.372 . S
C1379 C1378 1.372 . S
C1379 C1380 1.400 . S
C1379 C1384 1.490 . S
C1380 H1370 0.930 . S
C1380 C1379 1.400 . S
C1380 C1383 1.386 . S
H1381 C1397 0.930 . S
H1382 C1398 0.931 . S
C1383 H1371 0.929 . S
C1383 C1377 1.390 . S
C1383 C1380 1.386 . S
C1384 C1379 1.490 . S
C1384 C1386 1.395 1_565 S
C1384 C1387 1.403 . S
H1385 C1391 0.929 1_565 S
C1386 H1372 0.930 . S
C1386 C1384 1.395 1_545 S
C1386 C1389 1.403 . S
C1387 C1384 1.403 . S
C1387 C1388 1.524 . S
C1387 C1391 1.389 1_565 S
C1388 H1373 0.960 . S
C1388 H1374 0.960 . S
C1388 H1375 0.960 . S
C1388 C1387 1.524 . S
C1389 C1386 1.403 . S
C1389 C1390 1.392 . S
C1389 C1393 1.495 . S
C1390 C1389 1.392 . S
C1390 C1391 1.397 . S
C1390 C1392 1.478 . S
C1391 H1385 0.929 1_545 S
C1391 C1387 1.389 1_545 S
C1391 C1390 1.397 . S
C1392 C1390 1.478 . S
C1392 C1394 1.381 . S
C1392 C1398 1.383 . S
C1393 C1389 1.495 . S
C1393 H1399 0.959 . S
C1393 H1400 0.961 . S
C1393 H1401 0.960 . S
C1394 C1392 1.381 . S
C1394 C1395 1.394 . S
C1394 H1402 0.930 . S
C1395 C1394 1.394 . S
C1395 C1396 1.383 . S
C1395 H1403 0.929 . S
C1396 C1395 1.383 . S
C1396 C1397 1.377 . S
C1397 H1381 0.930 . S
C1397 C1396 1.377 . S
C1397 C1398 1.379 . S
C1398 H1382 0.931 . S
C1398 C1392 1.383 . S
C1398 C1397 1.379 . S
H1399 C1393 0.959 . S
H1400 C1393 0.961 . S
H1401 C1393 0.960 . S
H1402 C1394 0.930 . S
H1403 C1395 0.929 . S
H1404 C1412 0.929 . S
H1405 C1414 0.930 . S
H1406 C1416 0.930 . S
H1407 C1419 0.929 . S
H1408 C1422 0.930 . S
H1409 C1424 0.960 . S
H1410 C1424 0.960 . S
H1411 C1424 0.960 . S
C1412 H1404 0.929 . S
C1412 C1413 1.377 . S
C1412 C1414 1.384 . S
C1413 C1412 1.377 . S
C1413 C1419 1.390 . S
C1414 H1405 0.930 . S
C1414 C1412 1.384 . S
C1414 C1415 1.372 . S
C1415 C1414 1.372 . S
C1415 C1416 1.400 . S
C1415 C1420 1.490 . S
C1416 H1406 0.930 . S
C1416 C1415 1.400 . S
C1416 C1419 1.386 . S
H1417 C1433 0.930 . S
H1418 C1434 0.931 . S
C1419 H1407 0.929 . S
C1419 C1413 1.390 . S
C1419 C1416 1.386 . S
C1420 C1415 1.490 . S
C1420 C1422 1.395 . S
C1420 C1423 1.403 1_556 S
H1421 C1427 0.930 . S
C1422 H1408 0.930 . S
C1422 C1420 1.395 . S
C1422 C1425 1.403 . S
C1423 C1420 1.403 1_554 S
C1423 C1424 1.524 . S
C1423 C1427 1.400 . S
C1424 H1409 0.960 . S
C1424 H1410 0.960 . S
C1424 H1411 0.960 . S
C1424 C1423 1.524 . S
C1425 C1422 1.403 . S
C1425 C1426 1.392 1_556 S
C1425 C1429 1.495 . S
C1426 C1425 1.392 1_554 S
C1426 C1427 1.385 . S
C1426 C1428 1.478 . S
C1427 H1421 0.930 . S
C1427 C1423 1.400 . S
C1427 C1426 1.385 . S
C1428 C1426 1.478 . S
C1428 C1430 1.381 . S
C1428 C1434 1.383 . S
C1429 C1425 1.495 . S
C1429 H1435 0.959 . S
C1429 H1436 0.961 . S
C1429 H1437 0.960 . S
C1430 C1428 1.381 . S
C1430 C1431 1.394 . S
C1430 H1438 0.930 . S
C1431 C1430 1.394 . S
C1431 C1432 1.383 . S
C1431 H1439 0.929 . S
C1432 C1431 1.383 . S
C1432 C1433 1.377 . S
C1433 H1417 0.930 . S
C1433 C1432 1.377 . S
C1433 C1434 1.379 . S
C1434 H1418 0.931 . S
C1434 C1428 1.383 . S
C1434 C1433 1.379 . S
H1435 C1429 0.959 . S
H1436 C1429 0.961 . S
H1437 C1429 0.960 . S
H1438 C1430 0.930 . S
H1439 C1431 0.929 . S
H1440 C1448 0.929 . S
H1441 C1450 0.930 . S
H1442 C1452 0.930 . S
H1443 C1455 0.929 . S
H1444 C1458 0.930 . S
H1445 C1460 0.960 . S
H1446 C1460 0.960 . S
H1447 C1460 0.960 . S
C1448 H1440 0.929 . S
C1448 C1449 1.377 . S
C1448 C1450 1.384 . S
C1449 C1448 1.377 . S
C1449 C1455 1.390 . S
C1450 H1441 0.930 . S
C1450 C1448 1.384 . S
C1450 C1451 1.372 . S
C1451 C1450 1.372 . S
C1451 C1452 1.400 . S
C1451 C1456 1.490 . S
C1452 H1442 0.930 . S
C1452 C1451 1.400 . S
C1452 C1455 1.386 . S
H1453 C1469 0.930 . S
H1454 C1470 0.931 . S
C1455 H1443 0.929 . S
C1455 C1449 1.390 . S
C1455 C1452 1.386 . S
C1456 C1451 1.490 . S
C1456 C1458 1.395 . S
C1456 C1459 1.403 . S
H1457 C1463 0.930 . S
C1458 H1444 0.930 . S
C1458 C1456 1.395 . S
C1458 C1461 1.403 . S
C1459 C1456 1.403 . S
C1459 C1460 1.524 . S
C1459 C1463 1.400 . S
C1460 H1445 0.960 . S
C1460 H1446 0.960 . S
C1460 H1447 0.960 . S
C1460 C1459 1.524 . S
C1461 C1458 1.403 . S
C1461 C1462 1.392 . S
C1461 C1465 1.495 . S
C1462 C1461 1.392 . S
C1462 C1463 1.385 . S
C1462 C1464 1.478 . S
C1463 H1457 0.930 . S
C1463 C1459 1.400 . S
C1463 C1462 1.385 . S
C1464 C1462 1.478 . S
C1464 C1466 1.381 . S
C1464 C1470 1.383 . S
C1465 C1461 1.495 . S
C1465 H1471 0.959 . S
C1465 H1472 0.961 . S
C1465 H1473 0.960 . S
C1466 C1464 1.381 . S
C1466 C1467 1.394 . S
C1466 H1474 0.930 . S
C1467 C1466 1.394 . S
C1467 C1468 1.383 . S
C1467 H1475 0.929 . S
C1468 C1467 1.383 . S
C1468 C1469 1.377 . S
C1469 H1453 0.930 . S
C1469 C1468 1.377 . S
C1469 C1470 1.379 . S
C1470 H1454 0.931 . S
C1470 C1464 1.383 . S
C1470 C1469 1.379 . S
H1471 C1465 0.959 . S
H1472 C1465 0.961 . S
H1473 C1465 0.960 . S
H1474 C1466 0.930 . S
H1475 C1467 0.929 . S
H1476 C1484 0.929 . S
H1477 C1486 0.930 . S
H1478 C1488 0.930 . S
H1479 C1491 0.929 . S
H1480 C1494 0.930 . S
H1481 C1496 0.960 . S
H1482 C1496 0.960 . S
H1483 C1496 0.960 . S
C1484 H1476 0.929 . S
C1484 C1485 1.377 . S
C1484 C1486 1.384 . S
C1485 C1484 1.377 . S
C1485 C1491 1.390 . S
C1486 H1477 0.930 . S
C1486 C1484 1.384 . S
C1486 C1487 1.372 . S
C1487 C1486 1.372 . S
C1487 C1488 1.400 . S
C1487 C1492 1.490 . S
C1488 H1478 0.930 . S
C1488 C1487 1.400 . S
C1488 C1491 1.386 . S
H1489 C1505 0.930 . S
H1490 C1506 0.931 . S
C1491 H1479 0.929 . S
C1491 C1485 1.390 . S
C1491 C1488 1.386 . S
C1492 C1487 1.490 . S
C1492 C1494 1.395 1_556 S
C1492 C1495 1.403 . S
H1493 C1499 0.930 . S
C1494 H1480 0.930 . S
C1494 C1492 1.395 1_554 S
C1494 C1497 1.403 . S
C1495 C1492 1.403 . S
C1495 C1496 1.524 . S
C1495 C1499 1.400 . S
C1496 H1481 0.960 . S
C1496 H1482 0.960 . S
C1496 H1483 0.960 . S
C1496 C1495 1.524 . S
C1497 C1494 1.403 . S
C1497 C1498 1.392 . S
C1497 C1501 1.495 . S
C1498 C1497 1.392 . S
C1498 C1499 1.385 1_554 S
C1498 C1500 1.478 . S
C1499 H1493 0.930 . S
C1499 C1495 1.400 . S
C1499 C1498 1.385 1_556 S
C1500 C1498 1.478 . S
C1500 C1502 1.381 . S
C1500 C1506 1.383 . S
C1501 C1497 1.495 . S
C1501 H1507 0.959 . S
C1501 H1508 0.961 . S
C1501 H1509 0.960 . S
C1502 C1500 1.381 . S
C1502 C1503 1.394 . S
C1502 H1510 0.930 . S
C1503 C1502 1.394 . S
C1503 C1504 1.383 . S
C1503 H1511 0.929 . S
C1504 C1503 1.383 . S
C1504 C1505 1.377 . S
C1505 H1489 0.930 . S
C1505 C1504 1.377 . S
C1505 C1506 1.379 . S
C1506 H1490 0.931 . S
C1506 C1500 1.383 . S
C1506 C1505 1.379 . S
H1507 C1501 0.959 . S
H1508 C1501 0.961 . S
H1509 C1501 0.960 . S
H1510 C1502 0.930 . S
H1511 C1503 0.929 . S
H1512 C1520 0.929 . S
H1513 C1522 0.930 . S
H1514 C1524 0.930 . S
H1515 C1527 0.929 . S
H1516 C1530 0.930 . S
H1517 C1532 0.960 . S
H1518 C1532 0.960 . S
H1519 C1532 0.960 . S
C1520 H1512 0.929 . S
C1520 C1521 1.377 . S
C1520 C1522 1.384 . S
C1521 C1520 1.377 . S
C1521 C1527 1.390 . S
C1522 H1513 0.930 . S
C1522 C1520 1.384 . S
C1522 C1523 1.372 . S
C1523 C1522 1.372 . S
C1523 C1524 1.400 . S
C1523 C1528 1.490 . S
C1524 H1514 0.930 . S
C1524 C1523 1.400 . S
C1524 C1527 1.386 . S
H1525 C1541 0.930 . S
H1526 C1542 0.931 . S
C1527 H1515 0.929 . S
C1527 C1521 1.390 . S
C1527 C1524 1.386 . S
C1528 C1523 1.490 . S
C1528 C1530 1.395 . S
C1528 C1531 1.403 . S
H1529 C1535 0.930 . S
C1530 H1516 0.930 . S
C1530 C1528 1.395 . S
C1530 C1533 1.403 . S
C1531 C1528 1.403 . S
C1531 C1532 1.524 . S
C1531 C1535 1.400 . S
C1532 H1517 0.960 . S
C1532 H1518 0.960 . S
C1532 H1519 0.960 . S
C1532 C1531 1.524 . S
C1533 C1530 1.403 . S
C1533 C1534 1.392 . S
C1533 C1537 1.495 . S
C1534 C1533 1.392 . S
C1534 C1535 1.385 . S
C1534 C1536 1.478 . S
C1535 H1529 0.930 . S
C1535 C1531 1.400 . S
C1535 C1534 1.385 . S
C1536 C1534 1.478 . S
C1536 C1538 1.381 . S
C1536 C1542 1.383 . S
C1537 C1533 1.495 . S
C1537 H1543 0.959 . S
C1537 H1544 0.961 . S
C1537 H1545 0.960 . S
C1538 C1536 1.381 . S
C1538 C1539 1.394 . S
C1538 H1546 0.930 . S
C1539 C1538 1.394 . S
C1539 C1540 1.383 . S
C1539 H1547 0.929 . S
C1540 C1539 1.383 . S
C1540 C1541 1.377 . S
C1541 H1525 0.930 . S
C1541 C1540 1.377 . S
C1541 C1542 1.379 . S
C1542 H1526 0.931 . S
C1542 C1536 1.383 . S
C1542 C1541 1.379 . S
H1543 C1537 0.959 . S
H1544 C1537 0.961 . S
H1545 C1537 0.960 . S
H1546 C1538 0.930 . S
H1547 C1539 0.929 . S
H1548 C1556 0.929 . S
H1549 C1558 0.930 . S
H1550 C1560 0.930 . S
H1551 C1563 0.929 . S
H1552 C1566 0.930 . S
H1553 C1568 0.960 . S
H1554 C1568 0.960 . S
H1555 C1568 0.960 . S
C1556 H1548 0.929 . S
C1556 C1557 1.377 . S
C1556 C1558 1.384 . S
C1557 C1556 1.377 . S
C1557 C1563 1.390 . S
C1558 H1549 0.930 . S
C1558 C1556 1.384 . S
C1558 C1559 1.372 . S
C1559 C1558 1.372 . S
C1559 C1560 1.400 . S
C1559 C1564 1.490 . S
C1560 H1550 0.930 . S
C1560 C1559 1.400 . S
C1560 C1563 1.386 . S
H1561 C1577 0.930 . S
H1562 C1578 0.931 . S
C1563 H1551 0.929 . S
C1563 C1557 1.390 . S
C1563 C1560 1.386 . S
C1564 C1559 1.490 . S
C1564 C1566 1.395 . S
C1564 C1567 1.403 . S
H1565 C1571 0.930 . S
C1566 H1552 0.930 . S
C1566 C1564 1.395 . S
C1566 C1569 1.403 . S
C1567 C1564 1.403 . S
C1567 C1568 1.524 . S
C1567 C1571 1.400 . S
C1568 H1553 0.960 . S
C1568 H1554 0.960 . S
C1568 H1555 0.960 . S
C1568 C1567 1.524 . S
C1569 C1566 1.403 . S
C1569 C1570 1.392 . S
C1569 C1573 1.495 . S
C1570 C1569 1.392 . S
C1570 C1571 1.385 . S
C1570 C1572 1.478 . S
C1571 H1565 0.930 . S
C1571 C1567 1.400 . S
C1571 C1570 1.385 . S
C1572 C1570 1.478 . S
C1572 C1574 1.381 . S
C1572 C1578 1.383 . S
C1573 C1569 1.495 . S
C1573 H1579 0.959 . S
C1573 H1580 0.961 . S
C1573 H1581 0.960 . S
C1574 C1572 1.381 . S
C1574 C1575 1.394 . S
C1574 H1582 0.930 . S
C1575 C1574 1.394 . S
C1575 C1576 1.383 . S
C1575 H1583 0.929 . S
C1576 C1575 1.383 . S
C1576 C1577 1.377 . S
C1577 H1561 0.930 . S
C1577 C1576 1.377 . S
C1577 C1578 1.379 . S
C1578 H1562 0.931 . S
C1578 C1572 1.383 . S
C1578 C1577 1.379 . S
H1579 C1573 0.959 . S
H1580 C1573 0.961 . S
H1581 C1573 0.960 . S
H1582 C1574 0.930 . S
H1583 C1575 0.929 . S
H1584 C1592 0.929 . S
H1585 C1594 0.930 . S
H1586 C1596 0.930 . S
H1587 C1599 0.929 . S
H1588 C1602 0.930 . S
H1589 C1604 0.960 . S
H1590 C1604 0.960 . S
H1591 C1604 0.960 . S
C1592 H1584 0.929 . S
C1592 C1593 1.377 . S
C1592 C1594 1.384 . S
C1593 C1592 1.377 . S
C1593 C1599 1.390 . S
C1594 H1585 0.930 . S
C1594 C1592 1.384 . S
C1594 C1595 1.372 . S
C1595 C1594 1.372 . S
C1595 C1596 1.400 . S
C1595 C1600 1.490 . S
C1596 H1586 0.930 . S
C1596 C1595 1.400 . S
C1596 C1599 1.386 . S
H1597 C1613 0.930 . S
H1598 C1614 0.931 . S
C1599 H1587 0.929 . S
C1599 C1593 1.390 . S
C1599 C1596 1.386 . S
C1600 C1595 1.490 . S
C1600 C1602 1.395 . S
C1600 C1603 1.403 . S
H1601 C1607 0.930 . S
C1602 H1588 0.930 . S
C1602 C1600 1.395 . S
C1602 C1605 1.403 . S
C1603 C1600 1.403 . S
C1603 C1604 1.524 . S
C1603 C1607 1.400 . S
C1604 H1589 0.960 . S
C1604 H1590 0.960 . S
C1604 H1591 0.960 . S
C1604 C1603 1.524 . S
C1605 C1602 1.403 . S
C1605 C1606 1.392 . S
C1605 C1609 1.495 . S
C1606 C1605 1.392 . S
C1606 C1607 1.385 . S
C1606 C1608 1.478 . S
C1607 H1601 0.930 . S
C1607 C1603 1.400 . S
C1607 C1606 1.385 . S
C1608 C1606 1.478 . S
C1608 C1610 1.381 . S
C1608 C1614 1.383 . S
C1609 C1605 1.495 . S
C1609 H1615 0.959 . S
C1609 H1616 0.961 . S
C1609 H1617 0.960 . S
C1610 C1608 1.381 . S
C1610 C1611 1.394 . S
C1610 H1618 0.930 . S
C1611 C1610 1.394 . S
C1611 C1612 1.383 . S
C1611 H1619 0.929 . S
C1612 C1611 1.383 . S
C1612 C1613 1.377 . S
C1613 H1597 0.930 . S
C1613 C1612 1.377 . S
C1613 C1614 1.379 . S
C1614 H1598 0.931 . S
C1614 C1608 1.383 . S
C1614 C1613 1.379 . S
H1615 C1609 0.959 . S
H1616 C1609 0.961 . S
H1617 C1609 0.960 . S
H1618 C1610 0.930 . S
H1619 C1611 0.929 . S
H1620 C1628 0.929 . S
H1621 C1630 0.930 . S
H1622 C1632 0.930 . S
H1623 C1635 0.929 . S
H1624 C1638 0.930 . S
H1625 C1640 0.960 . S
H1626 C1640 0.960 . S
H1627 C1640 0.960 . S
C1628 H1620 0.929 . S
C1628 C1629 1.377 . S
C1628 C1630 1.384 . S
C1629 C1628 1.377 . S
C1629 C1635 1.390 . S
C1630 H1621 0.930 . S
C1630 C1628 1.384 . S
C1630 C1631 1.372 . S
C1631 C1630 1.372 . S
C1631 C1632 1.400 . S
C1631 C1636 1.490 . S
C1632 H1622 0.930 . S
C1632 C1631 1.400 . S
C1632 C1635 1.386 . S
H1633 C1649 0.930 . S
H1634 C1650 0.931 . S
C1635 H1623 0.929 . S
C1635 C1629 1.390 . S
C1635 C1632 1.386 . S
C1636 C1631 1.490 . S
C1636 C1638 1.395 1_554 S
C1636 C1639 1.403 . S
H1637 C1643 0.930 . S
C1638 H1624 0.930 . S
C1638 C1636 1.395 1_556 S
C1638 C1641 1.403 . S
C1639 C1636 1.403 . S
C1639 C1640 1.524 . S
C1639 C1643 1.400 . S
C1640 H1625 0.960 . S
C1640 H1626 0.960 . S
C1640 H1627 0.960 . S
C1640 C1639 1.524 . S
C1641 C1638 1.403 . S
C1641 C1642 1.392 . S
C1641 C1645 1.495 . S
C1642 C1641 1.392 . S
C1642 C1643 1.385 1_556 S
C1642 C1644 1.478 . S
C1643 H1637 0.930 . S
C1643 C1639 1.400 . S
C1643 C1642 1.385 1_554 S
C1644 C1642 1.478 . S
C1644 C1646 1.381 . S
C1644 C1650 1.383 . S
C1645 C1641 1.495 . S
C1645 H1651 0.959 . S
C1645 H1652 0.961 . S
C1645 H1653 0.960 . S
C1646 C1644 1.381 . S
C1646 C1647 1.394 . S
C1646 H1654 0.930 . S
C1647 C1646 1.394 . S
C1647 C1648 1.383 . S
C1647 H1655 0.929 . S
C1648 C1647 1.383 . S
C1648 C1649 1.377 . S
C1649 H1633 0.930 . S
C1649 C1648 1.377 . S
C1649 C1650 1.379 . S
C1650 H1634 0.931 . S
C1650 C1644 1.383 . S
C1650 C1649 1.379 . S
H1651 C1645 0.959 . S
H1652 C1645 0.961 . S
H1653 C1645 0.960 . S
H1654 C1646 0.930 . S
H1655 C1647 0.929 . S
H1656 C1664 0.929 . S
H1657 C1666 0.930 . S
H1658 C1668 0.930 . S
H1659 C1671 0.929 . S
H1660 C1674 0.930 . S
H1661 C1676 0.960 . S
H1662 C1676 0.960 . S
H1663 C1676 0.960 . S
C1664 H1656 0.929 . S
C1664 C1665 1.377 . S
C1664 C1666 1.384 . S
C1665 C1664 1.377 . S
C1665 C1671 1.390 . S
C1666 H1657 0.930 . S
C1666 C1664 1.384 . S
C1666 C1667 1.372 . S
C1667 C1666 1.372 . S
C1667 C1668 1.400 . S
C1667 C1672 1.490 . S
C1668 H1658 0.930 . S
C1668 C1667 1.400 . S
C1668 C1671 1.386 . S
H1669 C1685 0.930 . S
H1670 C1686 0.931 . S
C1671 H1659 0.929 . S
C1671 C1665 1.390 . S
C1671 C1668 1.386 . S
C1672 C1667 1.490 . S
C1672 C1674 1.395 . S
C1672 C1675 1.403 . S
H1673 C1679 0.930 . S
C1674 H1660 0.930 . S
C1674 C1672 1.395 . S
C1674 C1677 1.403 . S
C1675 C1672 1.403 . S
C1675 C1676 1.524 . S
C1675 C1679 1.400 . S
C1676 H1661 0.960 . S
C1676 H1662 0.960 . S
C1676 H1663 0.960 . S
C1676 C1675 1.524 . S
C1677 C1674 1.403 . S
C1677 C1678 1.392 . S
C1677 C1681 1.495 . S
C1678 C1677 1.392 . S
C1678 C1679 1.385 . S
C1678 C1680 1.478 . S
C1679 H1673 0.930 . S
C1679 C1675 1.400 . S
C1679 C1678 1.385 . S
C1680 C1678 1.478 . S
C1680 C1682 1.381 . S
C1680 C1686 1.383 . S
C1681 C1677 1.495 . S
C1681 H1687 0.959 . S
C1681 H1688 0.961 . S
C1681 H1689 0.960 . S
C1682 C1680 1.381 . S
C1682 C1683 1.394 . S
C1682 H1690 0.930 . S
C1683 C1682 1.394 . S
C1683 C1684 1.383 . S
C1683 H1691 0.929 . S
C1684 C1683 1.383 . S
C1684 C1685 1.377 . S
C1685 H1669 0.930 . S
C1685 C1684 1.377 . S
C1685 C1686 1.379 . S
C1686 H1670 0.931 . S
C1686 C1680 1.383 . S
C1686 C1685 1.379 . S
H1687 C1681 0.959 . S
H1688 C1681 0.961 . S
H1689 C1681 0.960 . S
H1690 C1682 0.930 . S
H1691 C1683 0.929 . S
H1692 C1700 0.929 . S
H1693 C1702 0.930 . S
H1694 C1704 0.930 . S
H1695 C1707 0.929 . S
H1696 C1710 0.930 . S
H1697 C1712 0.960 . S
H1698 C1712 0.960 . S
H1699 C1712 0.960 . S
C1700 H1692 0.929 . S
C1700 C1701 1.377 . S
C1700 C1702 1.384 . S
C1701 C1700 1.377 . S
C1701 C1707 1.390 . S
C1702 H1693 0.930 . S
C1702 C1700 1.384 . S
C1702 C1703 1.372 . S
C1703 C1702 1.372 . S
C1703 C1704 1.400 . S
C1703 C1708 1.490 . S
C1704 H1694 0.930 . S
C1704 C1703 1.400 . S
C1704 C1707 1.386 . S
H1705 C1721 0.930 . S
H1706 C1722 0.931 . S
C1707 H1695 0.929 . S
C1707 C1701 1.390 . S
C1707 C1704 1.386 . S
C1708 C1703 1.490 . S
C1708 C1710 1.395 . S
C1708 C1711 1.403 . S
H1709 C1715 0.930 . S
C1710 H1696 0.930 . S
C1710 C1708 1.395 . S
C1710 C1713 1.403 . S
C1711 C1708 1.403 . S
C1711 C1712 1.524 . S
C1711 C1715 1.400 . S
C1712 H1697 0.960 . S
C1712 H1698 0.960 . S
C1712 H1699 0.960 . S
C1712 C1711 1.524 . S
C1713 C1710 1.403 . S
C1713 C1714 1.392 . S
C1713 C1717 1.495 . S
C1714 C1713 1.392 . S
C1714 C1715 1.385 . S
C1714 C1716 1.478 . S
C1715 H1709 0.930 . S
C1715 C1711 1.400 . S
C1715 C1714 1.385 . S
C1716 C1714 1.478 . S
C1716 C1718 1.381 . S
C1716 C1722 1.383 . S
C1717 C1713 1.495 . S
C1717 H1723 0.959 . S
C1717 H1724 0.961 . S
C1717 H1725 0.960 . S
C1718 C1716 1.381 . S
C1718 C1719 1.394 . S
C1718 H1726 0.930 . S
C1719 C1718 1.394 . S
C1719 C1720 1.383 . S
C1719 H1727 0.929 . S
C1720 C1719 1.383 . S
C1720 C1721 1.377 . S
C1721 H1705 0.930 . S
C1721 C1720 1.377 . S
C1721 C1722 1.379 . S
C1722 H1706 0.931 . S
C1722 C1716 1.383 . S
C1722 C1721 1.379 . S
H1723 C1717 0.959 . S
H1724 C1717 0.961 . S
H1725 C1717 0.960 . S
H1726 C1718 0.930 . S
H1727 C1719 0.929 . S
H1728 C1736 0.929 . S
H1729 C1738 0.930 . S
H1730 C1740 0.930 . S
H1731 C1743 0.929 . S
H1732 C1746 0.930 . S
H1733 C1748 0.960 . S
H1734 C1748 0.960 . S
H1735 C1748 0.960 . S
C1736 H1728 0.929 . S
C1736 C1737 1.377 . S
C1736 C1738 1.384 . S
C1737 C1736 1.377 . S
C1737 C1743 1.390 . S
C1738 H1729 0.930 . S
C1738 C1736 1.384 . S
C1738 C1739 1.372 . S
C1739 C1738 1.372 . S
C1739 C1740 1.400 . S
C1739 C1744 1.490 . S
C1740 H1730 0.930 . S
C1740 C1739 1.400 . S
C1740 C1743 1.386 . S
H1741 C1757 0.930 . S
H1742 C1758 0.931 . S
C1743 H1731 0.929 . S
C1743 C1737 1.390 . S
C1743 C1740 1.386 . S
C1744 C1739 1.490 . S
C1744 C1746 1.395 . S
C1744 C1747 1.403 . S
H1745 C1751 0.930 . S
C1746 H1732 0.930 . S
C1746 C1744 1.395 . S
C1746 C1749 1.403 . S
C1747 C1744 1.403 . S
C1747 C1748 1.524 . S
C1747 C1751 1.400 . S
C1748 H1733 0.960 . S
C1748 H1734 0.960 . S
C1748 H1735 0.960 . S
C1748 C1747 1.524 . S
C1749 C1746 1.403 . S
C1749 C1750 1.392 . S
C1749 C1753 1.495 . S
C1750 C1749 1.392 . S
C1750 C1751 1.385 . S
C1750 C1752 1.478 . S
C1751 H1745 0.930 . S
C1751 C1747 1.400 . S
C1751 C1750 1.385 . S
C1752 C1750 1.478 . S
C1752 C1754 1.381 . S
C1752 C1758 1.383 . S
C1753 C1749 1.495 . S
C1753 H1759 0.959 . S
C1753 H1760 0.961 . S
C1753 H1761 0.960 . S
C1754 C1752 1.381 . S
C1754 C1755 1.394 . S
C1754 H1762 0.930 . S
C1755 C1754 1.394 . S
C1755 C1756 1.383 . S
C1755 H1763 0.929 . S
C1756 C1755 1.383 . S
C1756 C1757 1.377 . S
C1757 H1741 0.930 . S
C1757 C1756 1.377 . S
C1757 C1758 1.379 . S
C1758 H1742 0.931 . S
C1758 C1752 1.383 . S
C1758 C1757 1.379 . S
H1759 C1753 0.959 . S
H1760 C1753 0.961 . S
H1761 C1753 0.960 . S
H1762 C1754 0.930 . S
H1763 C1755 0.929 . S
H1764 C1772 0.929 . S
H1765 C1774 0.930 . S
H1766 C1776 0.930 . S
H1767 C1779 0.929 . S
H1768 C1782 0.930 1_655 S
H1769 C1784 0.960 1_455 S
H1770 C1784 0.960 . S
H1771 C1784 0.960 . S
C1772 H1764 0.929 . S
C1772 C1773 1.377 . S
C1772 C1774 1.384 . S
C1773 C1772 1.377 . S
C1773 C1779 1.390 . S
C1774 H1765 0.930 . S
C1774 C1772 1.384 . S
C1774 C1775 1.372 . S
C1775 C1774 1.372 . S
C1775 C1776 1.400 . S
C1775 C1780 1.490 . S
C1776 H1766 0.930 . S
C1776 C1775 1.400 . S
C1776 C1779 1.386 . S
H1777 C1793 0.930 . S
H1778 C1794 0.931 . S
C1779 H1767 0.929 . S
C1779 C1773 1.390 . S
C1779 C1776 1.386 . S
C1780 C1775 1.490 . S
C1780 C1782 1.395 1_655 S
C1780 C1783 1.403 1_655 S
H1781 C1787 0.930 . S
C1782 H1768 0.930 1_455 S
C1782 C1780 1.395 1_455 S
C1782 C1785 1.403 . S
C1783 C1780 1.403 1_455 S
C1783 C1784 1.524 1_455 S
C1783 C1787 1.400 . S
C1784 H1769 0.960 1_655 S
C1784 H1770 0.960 . S
C1784 H1771 0.960 . S
C1784 C1783 1.524 1_655 S
C1785 C1782 1.403 . S
C1785 C1786 1.392 . S
C1785 C1789 1.495 . S
C1786 C1785 1.392 . S
C1786 C1787 1.385 . S
C1786 C1788 1.478 . S
C1787 H1781 0.930 . S
C1787 C1783 1.400 . S
C1787 C1786 1.385 . S
C1788 C1786 1.478 . S
C1788 C1790 1.381 . S
C1788 C1794 1.383 . S
C1789 C1785 1.495 . S
C1789 H1795 0.959 . S
C1789 H1796 0.961 . S
C1789 H1797 0.960 . S
C1790 C1788 1.381 . S
C1790 C1791 1.394 . S
C1790 H1798 0.930 . S
C1791 C1790 1.394 . S
C1791 C1792 1.383 . S
C1791 H1799 0.929 . S
C1792 C1791 1.383 . S
C1792 C1793 1.377 . S
C1793 H1777 0.930 . S
C1793 C1792 1.377 . S
C1793 C1794 1.379 . S
C1794 H1778 0.931 . S
C1794 C1788 1.383 . S
C1794 C1793 1.379 . S
H1795 C1789 0.959 . S
H1796 C1789 0.961 . S
H1797 C1789 0.960 . S
H1798 C1790 0.930 . S
H1799 C1791 0.929 . S
H1800 C1808 0.929 . S
H1801 C1810 0.930 . S
H1802 C1812 0.930 . S
H1803 C1815 0.929 . S
H1804 C1818 0.930 . S
H1805 C1820 0.960 . S
H1806 C1820 0.960 . S
H1807 C1820 0.960 . S
C1808 H1800 0.929 . S
C1808 C1809 1.377 . S
C1808 C1810 1.384 . S
C1809 C1808 1.377 . S
C1809 C1815 1.390 . S
C1810 H1801 0.930 . S
C1810 C1808 1.384 . S
C1810 C1811 1.372 . S
C1811 C1810 1.372 . S
C1811 C1812 1.400 . S
C1811 C1816 1.490 . S
C1812 H1802 0.930 . S
C1812 C1811 1.400 . S
C1812 C1815 1.386 . S
H1813 C1829 0.930 . S
H1814 C1830 0.931 . S
C1815 H1803 0.929 . S
C1815 C1809 1.390 . S
C1815 C1812 1.386 . S
C1816 C1811 1.490 . S
C1816 C1818 1.395 . S
C1816 C1819 1.403 . S
H1817 C1823 0.930 . S
C1818 H1804 0.930 . S
C1818 C1816 1.395 . S
C1818 C1821 1.403 . S
C1819 C1816 1.403 . S
C1819 C1820 1.524 . S
C1819 C1823 1.400 . S
C1820 H1805 0.960 . S
C1820 H1806 0.960 . S
C1820 H1807 0.960 . S
C1820 C1819 1.524 . S
C1821 C1818 1.403 . S
C1821 C1822 1.392 . S
C1821 C1825 1.495 . S
C1822 C1821 1.392 . S
C1822 C1823 1.385 . S
C1822 C1824 1.478 . S
C1823 H1817 0.930 . S
C1823 C1819 1.400 . S
C1823 C1822 1.385 . S
C1824 C1822 1.478 . S
C1824 C1826 1.381 . S
C1824 C1830 1.383 . S
C1825 C1821 1.495 . S
C1825 H1831 0.959 . S
C1825 H1832 0.961 . S
C1825 H1833 0.960 . S
C1826 C1824 1.381 . S
C1826 C1827 1.394 . S
C1826 H1834 0.930 . S
C1827 C1826 1.394 . S
C1827 C1828 1.383 . S
C1827 H1835 0.929 . S
C1828 C1827 1.383 . S
C1828 C1829 1.377 . S
C1829 H1813 0.930 . S
C1829 C1828 1.377 . S
C1829 C1830 1.379 . S
C1830 H1814 0.931 . S
C1830 C1824 1.383 . S
C1830 C1829 1.379 . S
H1831 C1825 0.959 . S
H1832 C1825 0.961 . S
H1833 C1825 0.960 . S
H1834 C1826 0.930 . S
H1835 C1827 0.929 . S
H1836 C1844 0.929 . S
H1837 C1846 0.930 . S
H1838 C1848 0.930 . S
H1839 C1851 0.929 . S
H1840 C1854 0.930 . S
H1841 C1856 0.960 . S
H1842 C1856 0.960 . S
H1843 C1856 0.960 . S
C1844 H1836 0.929 . S
C1844 C1845 1.377 . S
C1844 C1846 1.384 . S
C1845 C1844 1.377 . S
C1845 C1851 1.390 . S
C1846 H1837 0.930 . S
C1846 C1844 1.384 . S
C1846 C1847 1.372 . S
C1847 C1846 1.372 . S
C1847 C1848 1.400 . S
C1847 C1852 1.490 . S
C1848 H1838 0.930 . S
C1848 C1847 1.400 . S
C1848 C1851 1.386 . S
H1849 C1865 0.930 . S
H1850 C1866 0.931 . S
C1851 H1839 0.929 . S
C1851 C1845 1.390 . S
C1851 C1848 1.386 . S
C1852 C1847 1.490 . S
C1852 C1854 1.395 . S
C1852 C1855 1.403 . S
H1853 C1859 0.930 . S
C1854 H1840 0.930 . S
C1854 C1852 1.395 . S
C1854 C1857 1.403 . S
C1855 C1852 1.403 . S
C1855 C1856 1.524 . S
C1855 C1859 1.400 . S
C1856 H1841 0.960 . S
C1856 H1842 0.960 . S
C1856 H1843 0.960 . S
C1856 C1855 1.524 . S
C1857 C1854 1.403 . S
C1857 C1858 1.392 . S
C1857 C1861 1.495 . S
C1858 C1857 1.392 . S
C1858 C1859 1.385 . S
C1858 C1860 1.478 . S
C1859 H1853 0.930 . S
C1859 C1855 1.400 . S
C1859 C1858 1.385 . S
C1860 C1858 1.478 . S
C1860 C1862 1.381 . S
C1860 C1866 1.383 . S
C1861 C1857 1.495 . S
C1861 H1867 0.959 . S
C1861 H1868 0.961 . S
C1861 H1869 0.960 . S
C1862 C1860 1.381 . S
C1862 C1863 1.394 . S
C1862 H1870 0.930 . S
C1863 C1862 1.394 . S
C1863 C1864 1.383 . S
C1863 H1871 0.929 . S
C1864 C1863 1.383 . S
C1864 C1865 1.377 . S
C1865 H1849 0.930 . S
C1865 C1864 1.377 . S
C1865 C1866 1.379 . S
C1866 H1850 0.931 . S
C1866 C1860 1.383 . S
C1866 C1865 1.379 . S
H1867 C1861 0.959 . S
H1868 C1861 0.961 . S
H1869 C1861 0.960 . S
H1870 C1862 0.930 . S
H1871 C1863 0.929 . S
H1872 C1880 0.929 . S
H1873 C1882 0.930 . S
H1874 C1884 0.930 . S
H1875 C1887 0.929 . S
H1876 C1890 0.930 . S
H1877 C1892 0.960 . S
H1878 C1892 0.960 . S
H1879 C1892 0.960 . S
C1880 H1872 0.929 . S
C1880 C1881 1.377 . S
C1880 C1882 1.384 . S
C1881 C1880 1.377 . S
C1881 C1887 1.390 . S
C1882 H1873 0.930 . S
C1882 C1880 1.384 . S
C1882 C1883 1.372 . S
C1883 C1882 1.372 . S
C1883 C1884 1.400 . S
C1883 C1888 1.490 . S
C1884 H1874 0.930 . S
C1884 C1883 1.400 . S
C1884 C1887 1.386 . S
H1885 C1901 0.930 . S
H1886 C1902 0.931 . S
C1887 H1875 0.929 . S
C1887 C1881 1.390 . S
C1887 C1884 1.386 . S
C1888 C1883 1.490 . S
C1888 C1890 1.395 . S
C1888 C1891 1.403 . S
H1889 C1895 0.930 . S
C1890 H1876 0.930 . S
C1890 C1888 1.395 . S
C1890 C1893 1.403 . S
C1891 C1888 1.403 . S
C1891 C1892 1.524 . S
C1891 C1895 1.400 . S
C1892 H1877 0.960 . S
C1892 H1878 0.960 . S
C1892 H1879 0.960 . S
C1892 C1891 1.524 . S
C1893 C1890 1.403 . S
C1893 C1894 1.392 . S
C1893 C1897 1.495 . S
C1894 C1893 1.392 . S
C1894 C1895 1.385 . S
C1894 C1896 1.478 . S
C1895 H1889 0.930 . S
C1895 C1891 1.400 . S
C1895 C1894 1.385 . S
C1896 C1894 1.478 . S
C1896 C1898 1.381 . S
C1896 C1902 1.383 . S
C1897 C1893 1.495 . S
C1897 H1903 0.959 . S
C1897 H1904 0.961 . S
C1897 H1905 0.960 . S
C1898 C1896 1.381 . S
C1898 C1899 1.394 . S
C1898 H1906 0.930 . S
C1899 C1898 1.394 . S
C1899 C1900 1.383 . S
C1899 H1907 0.929 . S
C1900 C1899 1.383 . S
C1900 C1901 1.377 . S
C1901 H1885 0.930 . S
C1901 C1900 1.377 . S
C1901 C1902 1.379 . S
C1902 H1886 0.931 . S
C1902 C1896 1.383 . S
C1902 C1901 1.379 . S
H1903 C1897 0.959 . S
H1904 C1897 0.961 . S
H1905 C1897 0.960 . S
H1906 C1898 0.930 . S
H1907 C1899 0.929 . S
H1908 C1916 0.929 . S
H1909 C1918 0.930 . S
H1910 C1920 0.930 . S
H1911 C1923 0.929 . S
H1912 C1926 0.930 . S
H1913 C1928 0.960 . S
H1914 C1928 0.960 . S
H1915 C1928 0.960 . S
C1916 H1908 0.929 . S
C1916 C1917 1.377 . S
C1916 C1918 1.384 . S
C1917 C1916 1.377 . S
C1917 C1923 1.390 . S
C1918 H1909 0.930 . S
C1918 C1916 1.384 . S
C1918 C1919 1.372 . S
C1919 C1918 1.372 . S
C1919 C1920 1.400 . S
C1919 C1924 1.490 . S
C1920 H1910 0.930 . S
C1920 C1919 1.400 . S
C1920 C1923 1.386 . S
H1921 C1937 0.930 . S
H1922 C1938 0.931 . S
C1923 H1911 0.929 . S
C1923 C1917 1.390 . S
C1923 C1920 1.386 . S
C1924 C1919 1.490 . S
C1924 C1926 1.395 . S
C1924 C1927 1.403 . S
H1925 C1931 0.930 . S
C1926 H1912 0.930 . S
C1926 C1924 1.395 . S
C1926 C1929 1.403 . S
C1927 C1924 1.403 . S
C1927 C1928 1.524 . S
C1927 C1931 1.400 . S
C1928 H1913 0.960 . S
C1928 H1914 0.960 . S
C1928 H1915 0.960 . S
C1928 C1927 1.524 . S
C1929 C1926 1.403 . S
C1929 C1930 1.392 . S
C1929 C1933 1.495 . S
C1930 C1929 1.392 . S
C1930 C1931 1.385 . S
C1930 C1932 1.478 . S
C1931 H1925 0.930 . S
C1931 C1927 1.400 . S
C1931 C1930 1.385 . S
C1932 C1930 1.478 . S
C1932 C1934 1.381 . S
C1932 C1938 1.383 . S
C1933 C1929 1.495 . S
C1933 H1939 0.959 . S
C1933 H1940 0.961 . S
C1933 H1941 0.960 . S
C1934 C1932 1.381 . S
C1934 C1935 1.394 . S
C1934 H1942 0.930 . S
C1935 C1934 1.394 . S
C1935 C1936 1.383 . S
C1935 H1943 0.929 . S
C1936 C1935 1.383 . S
C1936 C1937 1.377 . S
C1937 H1921 0.930 . S
C1937 C1936 1.377 . S
C1937 C1938 1.379 . S
C1938 H1922 0.931 . S
C1938 C1932 1.383 . S
C1938 C1937 1.379 . S
H1939 C1933 0.959 . S
H1940 C1933 0.961 . S
H1941 C1933 0.960 . S
H1942 C1934 0.930 . S
H1943 C1935 0.929 . S
H1944 C1952 0.929 . S
H1945 C1954 0.930 . S
H1946 C1956 0.930 . S
H1947 C1959 0.929 . S
H1948 C1962 0.930 . S
H1949 C1964 0.960 . S
H1950 C1964 0.960 . S
H1951 C1964 0.960 . S
C1952 H1944 0.929 . S
C1952 C1953 1.377 . S
C1952 C1954 1.384 . S
C1953 C1952 1.377 . S
C1953 C1959 1.390 . S
C1954 H1945 0.930 . S
C1954 C1952 1.384 . S
C1954 C1955 1.372 . S
C1955 C1954 1.372 . S
C1955 C1956 1.400 . S
C1955 C1960 1.490 . S
C1956 H1946 0.930 . S
C1956 C1955 1.400 . S
C1956 C1959 1.386 . S
H1957 C1973 0.930 . S
H1958 C1974 0.931 . S
C1959 H1947 0.929 . S
C1959 C1953 1.390 . S
C1959 C1956 1.386 . S
C1960 C1955 1.490 . S
C1960 C1962 1.395 . S
C1960 C1963 1.403 . S
H1961 C1967 0.930 . S
C1962 H1948 0.930 . S
C1962 C1960 1.395 . S
C1962 C1965 1.403 . S
C1963 C1960 1.403 . S
C1963 C1964 1.524 . S
C1963 C1967 1.400 . S
C1964 H1949 0.960 . S
C1964 H1950 0.960 . S
C1964 H1951 0.960 . S
C1964 C1963 1.524 . S
C1965 C1962 1.403 . S
C1965 C1966 1.392 . S
C1965 C1969 1.495 . S
C1966 C1965 1.392 . S
C1966 C1967 1.385 . S
C1966 C1968 1.478 . S
C1967 H1961 0.930 . S
C1967 C1963 1.400 . S
C1967 C1966 1.385 . S
C1968 C1966 1.478 . S
C1968 C1970 1.381 . S
C1968 C1974 1.383 . S
C1969 C1965 1.495 . S
C1969 H1975 0.959 . S
C1969 H1976 0.961 . S
C1969 H1977 0.960 . S
C1970 C1968 1.381 . S
C1970 C1971 1.394 . S
C1970 H1978 0.930 . S
C1971 C1970 1.394 . S
C1971 C1972 1.383 . S
C1971 H1979 0.929 . S
C1972 C1971 1.383 . S
C1972 C1973 1.377 . S
C1973 H1957 0.930 . S
C1973 C1972 1.377 . S
C1973 C1974 1.379 . S
C1974 H1958 0.931 . S
C1974 C1968 1.383 . S
C1974 C1973 1.379 . S
H1975 C1969 0.959 . S
H1976 C1969 0.961 . S
H1977 C1969 0.960 . S
H1978 C1970 0.930 . S
H1979 C1971 0.929 . S
H1980 C1988 0.929 . S
H1981 C1990 0.930 . S
H1982 C1992 0.930 . S
H1983 C1995 0.929 . S
H1984 C1998 0.930 . S
H1985 C2000 0.960 . S
H1986 C2000 0.960 . S
H1987 C2000 0.960 . S
C1988 H1980 0.929 . S
C1988 C1989 1.377 . S
C1988 C1990 1.384 . S
C1989 C1988 1.377 . S
C1989 C1995 1.390 . S
C1990 H1981 0.930 . S
C1990 C1988 1.384 . S
C1990 C1991 1.372 . S
C1991 C1990 1.372 . S
C1991 C1992 1.400 . S
C1991 C1996 1.490 . S
C1992 H1982 0.930 . S
C1992 C1991 1.400 . S
C1992 C1995 1.386 . S
H1993 C2009 0.930 . S
H1994 C2010 0.931 . S
C1995 H1983 0.929 . S
C1995 C1989 1.390 . S
C1995 C1992 1.386 . S
C1996 C1991 1.490 . S
C1996 C1998 1.395 . S
C1996 C1999 1.403 . S
H1997 C2003 0.930 1_655 S
C1998 H1984 0.930 . S
C1998 C1996 1.395 . S
C1998 C2001 1.403 . S
C1999 C1996 1.403 . S
C1999 C2000 1.524 . S
C1999 C2003 1.400 . S
C2000 H1985 0.960 . S
C2000 H1986 0.960 . S
C2000 H1987 0.960 . S
C2000 C1999 1.524 . S
C2001 C1998 1.403 . S
C2001 C2002 1.392 1_455 S
C2001 C2005 1.495 1_455 S
C2002 C2001 1.392 1_655 S
C2002 C2003 1.385 1_655 S
C2002 C2004 1.478 . S
C2003 H1997 0.930 1_455 S
C2003 C1999 1.400 . S
C2003 C2002 1.385 1_455 S
C2004 C2002 1.478 . S
C2004 C2006 1.381 . S
C2004 C2010 1.383 . S
C2005 C2001 1.495 1_655 S
C2005 H2011 0.948 1_655 S
C2005 H2012 0.961 . S
C2005 H2013 0.960 . S
C2006 C2004 1.381 . S
C2006 C2007 1.394 . S
C2006 H2014 0.930 . S
C2007 C2006 1.394 . S
C2007 C2008 1.383 . S
C2007 H2015 0.929 . S
C2008 C2007 1.383 . S
C2008 C2009 1.377 . S
C2009 H1993 0.930 . S
C2009 C2008 1.377 . S
C2009 C2010 1.379 . S
C2010 H1994 0.931 . S
C2010 C2004 1.383 . S
C2010 C2009 1.379 . S
H2011 C2005 0.948 1_455 S
H2012 C2005 0.961 . S
H2013 C2005 0.960 . S
H2014 C2006 0.930 . S
H2015 C2007 0.929 . S
H2016 C2024 0.929 . S
H2017 C2026 0.930 . S
H2018 C2028 0.930 . S
H2019 C2031 0.929 . S
H2020 C2034 0.930 . S
H2021 C2036 0.960 . S
H2022 C2036 0.960 . S
H2023 C2036 0.960 . S
C2024 H2016 0.929 . S
C2024 C2025 1.377 . S
C2024 C2026 1.384 . S
C2025 C2024 1.377 . S
C2025 C2031 1.390 . S
C2026 H2017 0.930 . S
C2026 C2024 1.384 . S
C2026 C2027 1.372 . S
C2027 C2026 1.372 . S
C2027 C2028 1.400 . S
C2027 C2032 1.490 . S
C2028 H2018 0.930 . S
C2028 C2027 1.400 . S
C2028 C2031 1.386 . S
H2029 C2045 0.930 . S
H2030 C2046 0.931 . S
C2031 H2019 0.929 . S
C2031 C2025 1.390 . S
C2031 C2028 1.386 . S
C2032 C2027 1.490 . S
C2032 C2034 1.395 . S
C2032 C2035 1.403 . S
H2033 C2039 0.930 . S
C2034 H2020 0.930 . S
C2034 C2032 1.395 . S
C2034 C2037 1.403 . S
C2035 C2032 1.403 . S
C2035 C2036 1.524 . S
C2035 C2039 1.400 . S
C2036 H2021 0.960 . S
C2036 H2022 0.960 . S
C2036 H2023 0.960 . S
C2036 C2035 1.524 . S
C2037 C2034 1.403 . S
C2037 C2038 1.392 . S
C2037 C2041 1.495 . S
C2038 C2037 1.392 . S
C2038 C2039 1.385 . S
C2038 C2040 1.478 . S
C2039 H2033 0.930 . S
C2039 C2035 1.400 . S
C2039 C2038 1.385 . S
C2040 C2038 1.478 . S
C2040 C2042 1.381 . S
C2040 C2046 1.383 . S
C2041 C2037 1.495 . S
C2041 H2047 0.959 . S
C2041 H2048 0.961 . S
C2041 H2049 0.960 . S
C2042 C2040 1.381 . S
C2042 C2043 1.394 . S
C2042 H2050 0.930 . S
C2043 C2042 1.394 . S
C2043 C2044 1.383 . S
C2043 H2051 0.929 . S
C2044 C2043 1.383 . S
C2044 C2045 1.377 . S
C2045 H2029 0.930 . S
C2045 C2044 1.377 . S
C2045 C2046 1.379 . S
C2046 H2030 0.931 . S
C2046 C2040 1.383 . S
C2046 C2045 1.379 . S
H2047 C2041 0.959 . S
H2048 C2041 0.961 . S
H2049 C2041 0.960 . S
H2050 C2042 0.930 . S
H2051 C2043 0.929 . S
H2052 C2060 0.929 . S
H2053 C2062 0.930 . S
H2054 C2064 0.930 . S
H2055 C2067 0.929 . S
H2056 C2070 0.930 . S
H2057 C2072 0.960 . S
H2058 C2072 0.960 . S
H2059 C2072 0.960 . S
C2060 H2052 0.929 . S
C2060 C2061 1.377 . S
C2060 C2062 1.384 . S
C2061 C2060 1.377 . S
C2061 C2067 1.390 . S
C2062 H2053 0.930 . S
C2062 C2060 1.384 . S
C2062 C2063 1.372 . S
C2063 C2062 1.372 . S
C2063 C2064 1.400 . S
C2063 C2068 1.490 . S
C2064 H2054 0.930 . S
C2064 C2063 1.400 . S
C2064 C2067 1.386 . S
H2065 C2081 0.930 . S
H2066 C2082 0.931 . S
C2067 H2055 0.929 . S
C2067 C2061 1.390 . S
C2067 C2064 1.386 . S
C2068 C2063 1.490 . S
C2068 C2070 1.395 . S
C2068 C2071 1.403 . S
H2069 C2075 0.930 1_455 S
C2070 H2056 0.930 . S
C2070 C2068 1.395 . S
C2070 C2073 1.403 . S
C2071 C2068 1.403 . S
C2071 C2072 1.524 . S
C2071 C2075 1.400 . S
C2072 H2057 0.960 . S
C2072 H2058 0.960 . S
C2072 H2059 0.960 . S
C2072 C2071 1.524 . S
C2073 C2070 1.403 . S
C2073 C2074 1.392 1_655 S
C2073 C2077 1.495 1_655 S
C2074 C2073 1.392 1_455 S
C2074 C2075 1.385 1_455 S
C2074 C2076 1.478 . S
C2075 H2069 0.930 1_655 S
C2075 C2071 1.400 . S
C2075 C2074 1.385 1_655 S
C2076 C2074 1.478 . S
C2076 C2078 1.381 . S
C2076 C2082 1.383 . S
C2077 C2073 1.495 1_455 S
C2077 H2083 0.938 1_455 S
C2077 H2084 0.961 . S
C2077 H2085 0.960 . S
C2078 C2076 1.381 . S
C2078 C2079 1.394 . S
C2078 H2086 0.930 . S
C2079 C2078 1.394 . S
C2079 C2080 1.383 . S
C2079 H2087 0.929 . S
C2080 C2079 1.383 . S
C2080 C2081 1.377 . S
C2081 H2065 0.930 . S
C2081 C2080 1.377 . S
C2081 C2082 1.379 . S
C2082 H2066 0.931 . S
C2082 C2076 1.383 . S
C2082 C2081 1.379 . S
H2083 C2077 0.938 1_655 S
H2084 C2077 0.961 . S
H2085 C2077 0.960 . S
H2086 C2078 0.930 . S
H2087 C2079 0.929 . S
H2088 C2096 0.929 . S
H2089 C2098 0.930 . S
H2090 C2100 0.930 . S
H2091 C2103 0.929 . S
H2092 C2106 0.930 . S
H2093 C2108 0.960 . S
H2094 C2108 0.960 . S
H2095 C2108 0.960 . S
C2096 H2088 0.929 . S
C2096 C2097 1.377 . S
C2096 C2098 1.384 . S
C2097 C2096 1.377 . S
C2097 C2103 1.390 . S
C2098 H2089 0.930 . S
C2098 C2096 1.384 . S
C2098 C2099 1.372 . S
C2099 C2098 1.372 . S
C2099 C2100 1.400 . S
C2099 C2104 1.490 . S
C2100 H2090 0.930 . S
C2100 C2099 1.400 . S
C2100 C2103 1.386 . S
H2101 C2117 0.930 . S
H2102 C2118 0.931 . S
C2103 H2091 0.929 . S
C2103 C2097 1.390 . S
C2103 C2100 1.386 . S
C2104 C2099 1.490 . S
C2104 C2106 1.395 . S
C2104 C2107 1.403 . S
H2105 C2111 0.930 . S
C2106 H2092 0.930 . S
C2106 C2104 1.395 . S
C2106 C2109 1.403 . S
C2107 C2104 1.403 . S
C2107 C2108 1.524 . S
C2107 C2111 1.400 . S
C2108 H2093 0.960 . S
C2108 H2094 0.960 . S
C2108 H2095 0.960 . S
C2108 C2107 1.524 . S
C2109 C2106 1.403 . S
C2109 C2110 1.392 . S
C2109 C2113 1.495 . S
C2110 C2109 1.392 . S
C2110 C2111 1.385 . S
C2110 C2112 1.478 . S
C2111 H2105 0.930 . S
C2111 C2107 1.400 . S
C2111 C2110 1.385 . S
C2112 C2110 1.478 . S
C2112 C2114 1.381 . S
C2112 C2118 1.383 . S
C2113 C2109 1.495 . S
C2113 H2119 0.959 . S
C2113 H2120 0.961 . S
C2113 H2121 0.960 . S
C2114 C2112 1.381 . S
C2114 C2115 1.394 . S
C2114 H2122 0.930 . S
C2115 C2114 1.394 . S
C2115 C2116 1.383 . S
C2115 H2123 0.929 . S
C2116 C2115 1.383 . S
C2116 C2117 1.377 . S
C2117 H2101 0.930 . S
C2117 C2116 1.377 . S
C2117 C2118 1.379 . S
C2118 H2102 0.931 . S
C2118 C2112 1.383 . S
C2118 C2117 1.379 . S
H2119 C2113 0.959 . S
H2120 C2113 0.961 . S
H2121 C2113 0.960 . S
H2122 C2114 0.930 . S
H2123 C2115 0.929 . S
H2124 C2132 0.929 . S
H2125 C2134 0.930 . S
H2126 C2136 0.930 . S
H2127 C2139 0.929 . S
H2128 C2142 0.930 . S
H2129 C2144 0.960 . S
H2130 C2144 0.960 . S
H2131 C2144 0.960 . S
C2132 H2124 0.929 . S
C2132 C2133 1.377 . S
C2132 C2134 1.384 . S
C2133 C2132 1.377 . S
C2133 C2139 1.390 . S
C2134 H2125 0.930 . S
C2134 C2132 1.384 . S
C2134 C2135 1.372 . S
C2135 C2134 1.372 . S
C2135 C2136 1.400 . S
C2135 C2140 1.490 . S
C2136 H2126 0.930 . S
C2136 C2135 1.400 . S
C2136 C2139 1.386 . S
H2137 C2153 0.930 . S
H2138 C2154 0.931 . S
C2139 H2127 0.929 . S
C2139 C2133 1.390 . S
C2139 C2136 1.386 . S
C2140 C2135 1.490 . S
C2140 C2142 1.395 . S
C2140 C2143 1.403 . S
H2141 C2147 0.930 . S
C2142 H2128 0.930 . S
C2142 C2140 1.395 . S
C2142 C2145 1.403 . S
C2143 C2140 1.403 . S
C2143 C2144 1.524 . S
C2143 C2147 1.400 . S
C2144 H2129 0.960 . S
C2144 H2130 0.960 . S
C2144 H2131 0.960 . S
C2144 C2143 1.524 . S
C2145 C2142 1.403 . S
C2145 C2146 1.392 . S
C2145 C2149 1.495 . S
C2146 C2145 1.392 . S
C2146 C2147 1.385 . S
C2146 C2148 1.478 . S
C2147 H2141 0.930 . S
C2147 C2143 1.400 . S
C2147 C2146 1.385 . S
C2148 C2146 1.478 . S
C2148 C2150 1.381 . S
C2148 C2154 1.383 . S
C2149 C2145 1.495 . S
C2149 H2155 0.959 . S
C2149 H2156 0.961 . S
C2149 H2157 0.960 . S
C2150 C2148 1.381 . S
C2150 C2151 1.394 . S
C2150 H2158 0.930 . S
C2151 C2150 1.394 . S
C2151 C2152 1.383 . S
C2151 H2159 0.929 . S
C2152 C2151 1.383 . S
C2152 C2153 1.377 . S
C2153 H2137 0.930 . S
C2153 C2152 1.377 . S
C2153 C2154 1.379 . S
C2154 H2138 0.931 . S
C2154 C2148 1.383 . S
C2154 C2153 1.379 . S
H2155 C2149 0.959 . S
H2156 C2149 0.961 . S
H2157 C2149 0.960 . S
H2158 C2150 0.930 . S
H2159 C2151 0.929 . S
H2160 C2168 0.929 . S
H2161 C2170 0.930 . S
H2162 C2172 0.930 . S
H2163 C2175 0.929 . S
H2164 C2178 0.930 . S
H2165 C2180 0.960 . S
H2166 C2180 0.960 . S
H2167 C2180 0.960 . S
C2168 H2160 0.929 . S
C2168 C2169 1.377 . S
C2168 C2170 1.384 . S
C2169 C2168 1.377 . S
C2169 C2175 1.390 . S
C2170 H2161 0.930 . S
C2170 C2168 1.384 . S
C2170 C2171 1.372 . S
C2171 C2170 1.372 . S
C2171 C2172 1.400 . S
C2171 C2176 1.490 . S
C2172 H2162 0.930 . S
C2172 C2171 1.400 . S
C2172 C2175 1.386 . S
H2173 C2189 0.930 . S
H2174 C2190 0.931 . S
C2175 H2163 0.929 . S
C2175 C2169 1.390 . S
C2175 C2172 1.386 . S
C2176 C2171 1.490 . S
C2176 C2178 1.395 . S
C2176 C2179 1.403 . S
H2177 C2183 0.930 . S
C2178 H2164 0.930 . S
C2178 C2176 1.395 . S
C2178 C2181 1.403 . S
C2179 C2176 1.403 . S
C2179 C2180 1.524 . S
C2179 C2183 1.400 . S
C2180 H2165 0.960 . S
C2180 H2166 0.960 . S
C2180 H2167 0.960 . S
C2180 C2179 1.524 . S
C2181 C2178 1.403 . S
C2181 C2182 1.392 . S
C2181 C2185 1.495 . S
C2182 C2181 1.392 . S
C2182 C2183 1.385 . S
C2182 C2184 1.478 . S
C2183 H2177 0.930 . S
C2183 C2179 1.400 . S
C2183 C2182 1.385 . S
C2184 C2182 1.478 . S
C2184 C2186 1.381 . S
C2184 C2190 1.383 . S
C2185 C2181 1.495 . S
C2185 H2191 0.959 . S
C2185 H2192 0.961 . S
C2185 H2193 0.960 . S
C2186 C2184 1.381 . S
C2186 C2187 1.394 . S
C2186 H2194 0.930 . S
C2187 C2186 1.394 . S
C2187 C2188 1.383 . S
C2187 H2195 0.929 . S
C2188 C2187 1.383 . S
C2188 C2189 1.377 . S
C2189 H2173 0.930 . S
C2189 C2188 1.377 . S
C2189 C2190 1.379 . S
C2190 H2174 0.931 . S
C2190 C2184 1.383 . S
C2190 C2189 1.379 . S
H2191 C2185 0.959 . S
H2192 C2185 0.961 . S
H2193 C2185 0.960 . S
H2194 C2186 0.930 . S
H2195 C2187 0.929 . S
H2196 C2204 0.929 . S
H2197 C2206 0.930 . S
H2198 C2208 0.930 . S
H2199 C2211 0.929 . S
H2200 C2214 0.930 . S
H2201 C2216 0.960 . S
H2202 C2216 0.960 . S
H2203 C2216 0.960 . S
C2204 H2196 0.929 . S
C2204 C2205 1.377 . S
C2204 C2206 1.384 . S
C2205 C2204 1.377 . S
C2205 C2211 1.390 . S
C2206 H2197 0.930 . S
C2206 C2204 1.384 . S
C2206 C2207 1.372 . S
C2207 C2206 1.372 . S
C2207 C2208 1.400 . S
C2207 C2212 1.490 . S
C2208 H2198 0.930 . S
C2208 C2207 1.400 . S
C2208 C2211 1.386 . S
H2209 C2225 0.930 . S
H2210 C2226 0.931 . S
C2211 H2199 0.929 . S
C2211 C2205 1.390 . S
C2211 C2208 1.386 . S
C2212 C2207 1.490 . S
C2212 C2214 1.395 . S
C2212 C2215 1.403 . S
H2213 C2219 0.930 . S
C2214 H2200 0.930 . S
C2214 C2212 1.395 . S
C2214 C2217 1.403 . S
C2215 C2212 1.403 . S
C2215 C2216 1.524 . S
C2215 C2219 1.400 . S
C2216 H2201 0.960 . S
C2216 H2202 0.960 . S
C2216 H2203 0.960 . S
C2216 C2215 1.524 . S
C2217 C2214 1.403 . S
C2217 C2218 1.392 . S
C2217 C2221 1.495 . S
C2218 C2217 1.392 . S
C2218 C2219 1.385 . S
C2218 C2220 1.478 . S
C2219 H2213 0.930 . S
C2219 C2215 1.400 . S
C2219 C2218 1.385 . S
C2220 C2218 1.478 . S
C2220 C2222 1.381 . S
C2220 C2226 1.383 . S
C2221 C2217 1.495 . S
C2221 H2227 0.959 . S
C2221 H2228 0.961 . S
C2221 H2229 0.960 . S
C2222 C2220 1.381 . S
C2222 C2223 1.394 . S
C2222 H2230 0.930 . S
C2223 C2222 1.394 . S
C2223 C2224 1.383 . S
C2223 H2231 0.929 . S
C2224 C2223 1.383 . S
C2224 C2225 1.377 . S
C2225 H2209 0.930 . S
C2225 C2224 1.377 . S
C2225 C2226 1.379 . S
C2226 H2210 0.931 . S
C2226 C2220 1.383 . S
C2226 C2225 1.379 . S
H2227 C2221 0.959 . S
H2228 C2221 0.961 . S
H2229 C2221 0.960 . S
H2230 C2222 0.930 . S
H2231 C2223 0.929 . S
H2232 C2240 0.929 . S
H2233 C2242 0.930 . S
H2234 C2244 0.930 . S
H2235 C2247 0.929 . S
H2236 C2250 0.930 . S
H2237 C2252 0.960 . S
H2238 C2252 0.960 . S
H2239 C2252 0.960 . S
C2240 H2232 0.929 . S
C2240 C2241 1.377 . S
C2240 C2242 1.384 . S
C2241 C2240 1.377 . S
C2241 C2247 1.390 . S
C2242 H2233 0.930 . S
C2242 C2240 1.384 . S
C2242 C2243 1.372 . S
C2243 C2242 1.372 . S
C2243 C2244 1.400 . S
C2243 C2248 1.490 . S
C2244 H2234 0.930 . S
C2244 C2243 1.400 . S
C2244 C2247 1.386 . S
H2245 C2261 0.930 . S
H2246 C2262 0.931 . S
C2247 H2235 0.929 . S
C2247 C2241 1.390 . S
C2247 C2244 1.386 . S
C2248 C2243 1.490 . S
C2248 C2250 1.395 . S
C2248 C2251 1.403 . S
H2249 C2255 0.930 . S
C2250 H2236 0.930 . S
C2250 C2248 1.395 . S
C2250 C2253 1.403 . S
C2251 C2248 1.403 . S
C2251 C2252 1.524 . S
C2251 C2255 1.400 . S
C2252 H2237 0.960 . S
C2252 H2238 0.960 . S
C2252 H2239 0.960 . S
C2252 C2251 1.524 . S
C2253 C2250 1.403 . S
C2253 C2254 1.392 . S
C2253 C2257 1.495 . S
C2254 C2253 1.392 . S
C2254 C2255 1.385 . S
C2254 C2256 1.478 . S
C2255 H2249 0.930 . S
C2255 C2251 1.400 . S
C2255 C2254 1.385 . S
C2256 C2254 1.478 . S
C2256 C2258 1.381 . S
C2256 C2262 1.383 . S
C2257 C2253 1.495 . S
C2257 H2263 0.959 . S
C2257 H2264 0.961 . S
C2257 H2265 0.960 . S
C2258 C2256 1.381 . S
C2258 C2259 1.394 . S
C2258 H2266 0.930 . S
C2259 C2258 1.394 . S
C2259 C2260 1.383 . S
C2259 H2267 0.929 . S
C2260 C2259 1.383 . S
C2260 C2261 1.377 . S
C2261 H2245 0.930 . S
C2261 C2260 1.377 . S
C2261 C2262 1.379 . S
C2262 H2246 0.931 . S
C2262 C2256 1.383 . S
C2262 C2261 1.379 . S
H2263 C2257 0.959 . S
H2264 C2257 0.961 . S
H2265 C2257 0.960 . S
H2266 C2258 0.930 . S
H2267 C2259 0.929 . S
H2268 C2276 0.929 . S
H2269 C2278 0.930 . S
H2270 C2280 0.930 . S
H2271 C2283 0.929 . S
H2272 C2286 0.930 . S
H2273 C2288 0.960 . S
H2274 C2288 0.960 . S
H2275 C2288 0.960 . S
C2276 H2268 0.929 . S
C2276 C2277 1.377 . S
C2276 C2278 1.384 . S
C2277 C2276 1.377 . S
C2277 C2283 1.390 . S
C2278 H2269 0.930 . S
C2278 C2276 1.384 . S
C2278 C2279 1.372 . S
C2279 C2278 1.372 . S
C2279 C2280 1.400 . S
C2279 C2284 1.490 . S
C2280 H2270 0.930 . S
C2280 C2279 1.400 . S
C2280 C2283 1.386 . S
H2281 C2297 0.930 . S
H2282 C2298 0.931 . S
C2283 H2271 0.929 . S
C2283 C2277 1.390 . S
C2283 C2280 1.386 . S
C2284 C2279 1.490 . S
C2284 C2286 1.395 . S
C2284 C2287 1.403 . S
H2285 C2291 0.930 1_455 S
C2286 H2272 0.930 . S
C2286 C2284 1.395 . S
C2286 C2289 1.403 . S
C2287 C2284 1.403 . S
C2287 C2288 1.524 . S
C2287 C2291 1.400 . S
C2288 H2273 0.960 . S
C2288 H2274 0.960 . S
C2288 H2275 0.960 . S
C2288 C2287 1.524 . S
C2289 C2286 1.403 . S
C2289 C2290 1.392 1_655 S
C2289 C2293 1.495 1_655 S
C2290 C2289 1.392 1_455 S
C2290 C2291 1.385 1_455 S
C2290 C2292 1.478 . S
C2291 H2285 0.930 1_655 S
C2291 C2287 1.400 . S
C2291 C2290 1.385 1_655 S
C2292 C2290 1.478 . S
C2292 C2294 1.381 . S
C2292 C2298 1.383 . S
C2293 C2289 1.495 1_455 S
C2293 H2299 0.959 1_455 S
C2293 H2300 0.961 . S
C2293 H2301 0.960 . S
C2294 C2292 1.381 . S
C2294 C2295 1.394 . S
C2294 H2302 0.930 . S
C2295 C2294 1.394 . S
C2295 C2296 1.383 . S
C2295 H2303 0.929 . S
C2296 C2295 1.383 . S
C2296 C2297 1.377 . S
C2297 H2281 0.930 . S
C2297 C2296 1.377 . S
C2297 C2298 1.379 . S
C2298 H2282 0.931 . S
C2298 C2292 1.383 . S
C2298 C2297 1.379 . S
H2299 C2293 0.959 1_655 S
H2300 C2293 0.961 . S
H2301 C2293 0.960 . S
H2302 C2294 0.930 . S
H2303 C2295 0.929 . S
H2304 C2312 0.929 . S
H2305 C2314 0.930 . S
H2306 C2316 0.930 . S
H2307 C2319 0.929 . S
H2308 C2322 0.930 . S
H2309 C2324 0.960 . S
H2310 C2324 0.960 . S
H2311 C2324 0.960 . S
C2312 H2304 0.929 . S
C2312 C2313 1.377 . S
C2312 C2314 1.384 . S
C2313 C2312 1.377 . S
C2313 C2319 1.390 . S
C2314 H2305 0.930 . S
C2314 C2312 1.384 . S
C2314 C2315 1.372 . S
C2315 C2314 1.372 . S
C2315 C2316 1.400 . S
C2315 C2320 1.490 . S
C2316 H2306 0.930 . S
C2316 C2315 1.400 . S
C2316 C2319 1.386 . S
H2317 C2333 0.930 . S
H2318 C2334 0.931 . S
C2319 H2307 0.929 . S
C2319 C2313 1.390 . S
C2319 C2316 1.386 . S
C2320 C2315 1.490 . S
C2320 C2322 1.395 . S
C2320 C2323 1.403 . S
H2321 C2327 0.930 . S
C2322 H2308 0.930 . S
C2322 C2320 1.395 . S
C2322 C2325 1.403 . S
C2323 C2320 1.403 . S
C2323 C2324 1.524 . S
C2323 C2327 1.400 . S
C2324 H2309 0.960 . S
C2324 H2310 0.960 . S
C2324 H2311 0.960 . S
C2324 C2323 1.524 . S
C2325 C2322 1.403 . S
C2325 C2326 1.392 . S
C2325 C2329 1.495 . S
C2326 C2325 1.392 . S
C2326 C2327 1.385 . S
C2326 C2328 1.478 . S
C2327 H2321 0.930 . S
C2327 C2323 1.400 . S
C2327 C2326 1.385 . S
C2328 C2326 1.478 . S
C2328 C2330 1.381 . S
C2328 C2334 1.383 . S
C2329 C2325 1.495 . S
C2329 H2335 0.959 . S
C2329 H2336 0.961 . S
C2329 H2337 0.960 . S
C2330 C2328 1.381 . S
C2330 C2331 1.394 . S
C2330 H2338 0.930 . S
C2331 C2330 1.394 . S
C2331 C2332 1.383 . S
C2331 H2339 0.929 . S
C2332 C2331 1.383 . S
C2332 C2333 1.377 . S
C2333 H2317 0.930 . S
C2333 C2332 1.377 . S
C2333 C2334 1.379 . S
C2334 H2318 0.931 . S
C2334 C2328 1.383 . S
C2334 C2333 1.379 . S
H2335 C2329 0.959 . S
H2336 C2329 0.961 . S
H2337 C2329 0.960 . S
H2338 C2330 0.930 . S
H2339 C2331 0.929 . S
H2340 C2348 0.929 . S
H2341 C2350 0.930 . S
H2342 C2352 0.930 . S
H2343 C2355 0.929 . S
H2344 C2358 0.930 . S
H2345 C2360 0.960 . S
H2346 C2360 0.960 . S
H2347 C2360 0.960 . S
C2348 H2340 0.929 . S
C2348 C2349 1.377 . S
C2348 C2350 1.384 . S
C2349 C2348 1.377 . S
C2349 C2355 1.390 . S
C2350 H2341 0.930 . S
C2350 C2348 1.384 . S
C2350 C2351 1.372 . S
C2351 C2350 1.372 . S
C2351 C2352 1.400 . S
C2351 C2356 1.490 . S
C2352 H2342 0.930 . S
C2352 C2351 1.400 . S
C2352 C2355 1.386 . S
H2353 C2369 0.930 . S
H2354 C2370 0.931 . S
C2355 H2343 0.929 . S
C2355 C2349 1.390 . S
C2355 C2352 1.386 . S
C2356 C2351 1.490 . S
C2356 C2358 1.395 . S
C2356 C2359 1.403 . S
H2357 C2363 0.930 . S
C2358 H2344 0.930 . S
C2358 C2356 1.395 . S
C2358 C2361 1.403 . S
C2359 C2356 1.403 . S
C2359 C2360 1.524 . S
C2359 C2363 1.400 . S
C2360 H2345 0.960 . S
C2360 H2346 0.960 . S
C2360 H2347 0.960 . S
C2360 C2359 1.524 . S
C2361 C2358 1.403 . S
C2361 C2362 1.392 . S
C2361 C2365 1.495 . S
C2362 C2361 1.392 . S
C2362 C2363 1.385 . S
C2362 C2364 1.478 . S
C2363 H2357 0.930 . S
C2363 C2359 1.400 . S
C2363 C2362 1.385 . S
C2364 C2362 1.478 . S
C2364 C2366 1.381 . S
C2364 C2370 1.383 . S
C2365 C2361 1.495 . S
C2365 H2371 0.959 . S
C2365 H2372 0.961 . S
C2365 H2373 0.960 . S
C2366 C2364 1.381 . S
C2366 C2367 1.394 . S
C2366 H2374 0.930 . S
C2367 C2366 1.394 . S
C2367 C2368 1.383 . S
C2367 H2375 0.929 . S
C2368 C2367 1.383 . S
C2368 C2369 1.377 . S
C2369 H2353 0.930 . S
C2369 C2368 1.377 . S
C2369 C2370 1.379 . S
C2370 H2354 0.931 . S
C2370 C2364 1.383 . S
C2370 C2369 1.379 . S
H2371 C2365 0.959 . S
H2372 C2365 0.961 . S
H2373 C2365 0.960 . S
H2374 C2366 0.930 . S
H2375 C2367 0.929 . S
H2376 C2384 0.929 . S
H2377 C2386 0.930 . S
H2378 C2388 0.930 . S
H2379 C2391 0.929 . S
H2380 C2394 0.930 . S
H2381 C2396 0.960 . S
H2382 C2396 0.960 . S
H2383 C2396 0.960 . S
C2384 H2376 0.929 . S
C2384 C2385 1.377 . S
C2384 C2386 1.384 . S
C2385 C2384 1.377 . S
C2385 C2391 1.390 . S
C2386 H2377 0.930 . S
C2386 C2384 1.384 . S
C2386 C2387 1.372 . S
C2387 C2386 1.372 . S
C2387 C2388 1.400 . S
C2387 C2392 1.490 . S
C2388 H2378 0.930 . S
C2388 C2387 1.400 . S
C2388 C2391 1.386 . S
H2389 C2405 0.930 . S
H2390 C2406 0.931 . S
C2391 H2379 0.929 . S
C2391 C2385 1.390 . S
C2391 C2388 1.386 . S
C2392 C2387 1.490 . S
C2392 C2394 1.395 . S
C2392 C2395 1.403 . S
H2393 C2399 0.930 . S
C2394 H2380 0.930 . S
C2394 C2392 1.395 . S
C2394 C2397 1.403 . S
C2395 C2392 1.403 . S
C2395 C2396 1.524 . S
C2395 C2399 1.400 . S
C2396 H2381 0.960 . S
C2396 H2382 0.960 . S
C2396 H2383 0.960 . S
C2396 C2395 1.524 . S
C2397 C2394 1.403 . S
C2397 C2398 1.392 . S
C2397 C2401 1.495 . S
C2398 C2397 1.392 . S
C2398 C2399 1.385 . S
C2398 C2400 1.478 . S
C2399 H2393 0.930 . S
C2399 C2395 1.400 . S
C2399 C2398 1.385 . S
C2400 C2398 1.478 . S
C2400 C2402 1.381 . S
C2400 C2406 1.383 . S
C2401 C2397 1.495 . S
C2401 H2407 0.959 . S
C2401 H2408 0.961 . S
C2401 H2409 0.960 . S
C2402 C2400 1.381 . S
C2402 C2403 1.394 . S
C2402 H2410 0.930 . S
C2403 C2402 1.394 . S
C2403 C2404 1.383 . S
C2403 H2411 0.929 . S
C2404 C2403 1.383 . S
C2404 C2405 1.377 . S
C2405 H2389 0.930 . S
C2405 C2404 1.377 . S
C2405 C2406 1.379 . S
C2406 H2390 0.931 . S
C2406 C2400 1.383 . S
C2406 C2405 1.379 . S
H2407 C2401 0.959 . S
H2408 C2401 0.961 . S
H2409 C2401 0.960 . S
H2410 C2402 0.930 . S
H2411 C2403 0.929 . S
H2412 C2420 0.929 . S
H2413 C2422 0.930 . S
H2414 C2424 0.930 . S
H2415 C2427 0.929 . S
H2416 C2430 0.930 . S
H2417 C2432 0.960 . S
H2418 C2432 0.960 . S
H2419 C2432 0.960 . S
C2420 H2412 0.929 . S
C2420 C2421 1.377 . S
C2420 C2422 1.384 . S
C2421 C2420 1.377 . S
C2421 C2427 1.390 . S
C2422 H2413 0.930 . S
C2422 C2420 1.384 . S
C2422 C2423 1.372 . S
C2423 C2422 1.372 . S
C2423 C2424 1.400 . S
C2423 C2428 1.490 . S
C2424 H2414 0.930 . S
C2424 C2423 1.400 . S
C2424 C2427 1.386 . S
H2425 C2441 0.930 . S
H2426 C2442 0.931 . S
C2427 H2415 0.929 . S
C2427 C2421 1.390 . S
C2427 C2424 1.386 . S
C2428 C2423 1.490 . S
C2428 C2430 1.395 . S
C2428 C2431 1.403 . S
H2429 C2435 0.930 1_455 S
C2430 H2416 0.930 . S
C2430 C2428 1.395 . S
C2430 C2433 1.403 . S
C2431 C2428 1.403 . S
C2431 C2432 1.524 . S
C2431 C2435 1.400 . S
C2432 H2417 0.960 . S
C2432 H2418 0.960 . S
C2432 H2419 0.960 . S
C2432 C2431 1.524 . S
C2433 C2430 1.403 . S
C2433 C2434 1.392 1_655 S
C2433 C2437 1.495 1_655 S
C2434 C2433 1.392 1_455 S
C2434 C2435 1.385 1_455 S
C2434 C2436 1.478 . S
C2435 H2429 0.930 1_655 S
C2435 C2431 1.400 . S
C2435 C2434 1.385 1_655 S
C2436 C2434 1.478 . S
C2436 C2438 1.381 . S
C2436 C2442 1.383 . S
C2437 C2433 1.495 1_455 S
C2437 H2443 0.959 1_455 S
C2437 H2444 0.961 . S
C2437 H2445 0.960 . S
C2438 C2436 1.381 . S
C2438 C2439 1.394 . S
C2438 H2446 0.930 . S
C2439 C2438 1.394 . S
C2439 C2440 1.383 . S
C2439 H2447 0.929 . S
C2440 C2439 1.383 . S
C2440 C2441 1.377 . S
C2441 H2425 0.930 . S
C2441 C2440 1.377 . S
C2441 C2442 1.379 . S
C2442 H2426 0.931 . S
C2442 C2436 1.383 . S
C2442 C2441 1.379 . S
H2443 C2437 0.959 1_655 S
H2444 C2437 0.961 . S
H2445 C2437 0.960 . S
H2446 C2438 0.930 . S
H2447 C2439 0.929 . S
H2448 C2456 0.929 . S
H2449 C2458 0.930 . S
H2450 C2460 0.930 . S
H2451 C2463 0.929 . S
H2452 C2466 0.930 . S
H2453 C2468 0.960 . S
H2454 C2468 0.960 . S
H2455 C2468 0.960 . S
C2456 H2448 0.929 . S
C2456 C2457 1.377 . S
C2456 C2458 1.384 . S
C2457 C2456 1.377 . S
C2457 C2463 1.390 . S
C2458 H2449 0.930 . S
C2458 C2456 1.384 . S
C2458 C2459 1.372 . S
C2459 C2458 1.372 . S
C2459 C2460 1.400 . S
C2459 C2464 1.490 . S
C2460 H2450 0.930 . S
C2460 C2459 1.400 . S
C2460 C2463 1.386 . S
H2461 C2477 0.930 . S
H2462 C2478 0.931 . S
C2463 H2451 0.929 . S
C2463 C2457 1.390 . S
C2463 C2460 1.386 . S
C2464 C2459 1.490 . S
C2464 C2466 1.395 . S
C2464 C2467 1.403 . S
H2465 C2471 0.930 . S
C2466 H2452 0.930 . S
C2466 C2464 1.395 . S
C2466 C2469 1.403 . S
C2467 C2464 1.403 . S
C2467 C2468 1.524 . S
C2467 C2471 1.400 . S
C2468 H2453 0.960 . S
C2468 H2454 0.960 . S
C2468 H2455 0.960 . S
C2468 C2467 1.524 . S
C2469 C2466 1.403 . S
C2469 C2470 1.392 . S
C2469 C2473 1.495 . S
C2470 C2469 1.392 . S
C2470 C2471 1.385 . S
C2470 C2472 1.478 . S
C2471 H2465 0.930 . S
C2471 C2467 1.400 . S
C2471 C2470 1.385 . S
C2472 C2470 1.478 . S
C2472 C2474 1.381 . S
C2472 C2478 1.383 . S
C2473 C2469 1.495 . S
C2473 H2479 0.959 . S
C2473 H2480 0.961 . S
C2473 H2481 0.960 . S
C2474 C2472 1.381 . S
C2474 C2475 1.394 . S
C2474 H2482 0.930 . S
C2475 C2474 1.394 . S
C2475 C2476 1.383 . S
C2475 H2483 0.929 . S
C2476 C2475 1.383 . S
C2476 C2477 1.377 . S
C2477 H2461 0.930 . S
C2477 C2476 1.377 . S
C2477 C2478 1.379 . S
C2478 H2462 0.931 . S
C2478 C2472 1.383 . S
C2478 C2477 1.379 . S
H2479 C2473 0.959 . S
H2480 C2473 0.961 . S
H2481 C2473 0.960 . S
H2482 C2474 0.930 . S
H2483 C2475 0.929 . S
H2484 C2492 0.929 . S
H2485 C2494 0.930 . S
H2486 C2496 0.930 . S
H2487 C2499 0.929 . S
H2488 C2502 0.930 1_455 S
H2489 C2504 0.960 1_655 S
H2490 C2504 0.960 . S
H2491 C2504 0.960 . S
C2492 H2484 0.929 . S
C2492 C2493 1.377 . S
C2492 C2494 1.384 . S
C2493 C2492 1.377 . S
C2493 C2499 1.390 . S
C2494 H2485 0.930 . S
C2494 C2492 1.384 . S
C2494 C2495 1.372 . S
C2495 C2494 1.372 . S
C2495 C2496 1.400 . S
C2495 C2500 1.490 . S
C2496 H2486 0.930 . S
C2496 C2495 1.400 . S
C2496 C2499 1.386 . S
H2497 C2513 0.930 . S
H2498 C2514 0.931 . S
C2499 H2487 0.929 . S
C2499 C2493 1.390 . S
C2499 C2496 1.386 . S
C2500 C2495 1.490 . S
C2500 C2502 1.395 1_455 S
C2500 C2503 1.403 1_455 S
H2501 C2507 0.930 . S
C2502 H2488 0.930 1_655 S
C2502 C2500 1.395 1_655 S
C2502 C2505 1.403 . S
C2503 C2500 1.403 1_655 S
C2503 C2504 1.524 1_655 S
C2503 C2507 1.400 . S
C2504 H2489 0.960 1_455 S
C2504 H2490 0.960 . S
C2504 H2491 0.960 . S
C2504 C2503 1.524 1_455 S
C2505 C2502 1.403 . S
C2505 C2506 1.392 . S
C2505 C2509 1.495 . S
C2506 C2505 1.392 . S
C2506 C2507 1.385 . S
C2506 C2508 1.478 . S
C2507 H2501 0.930 . S
C2507 C2503 1.400 . S
C2507 C2506 1.385 . S
C2508 C2506 1.478 . S
C2508 C2510 1.381 . S
C2508 C2514 1.383 . S
C2509 C2505 1.495 . S
C2509 H2515 0.959 . S
C2509 H2516 0.961 . S
C2509 H2517 0.960 . S
C2510 C2508 1.381 . S
C2510 C2511 1.394 . S
C2510 H2518 0.930 . S
C2511 C2510 1.394 . S
C2511 C2512 1.383 . S
C2511 H2519 0.929 . S
C2512 C2511 1.383 . S
C2512 C2513 1.377 . S
C2513 H2497 0.930 . S
C2513 C2512 1.377 . S
C2513 C2514 1.379 . S
C2514 H2498 0.931 . S
C2514 C2508 1.383 . S
C2514 C2513 1.379 . S
H2515 C2509 0.959 . S
H2516 C2509 0.961 . S
H2517 C2509 0.960 . S
H2518 C2510 0.930 . S
H2519 C2511 0.929 . S
H2520 C2528 0.929 . S
H2521 C2530 0.930 . S
H2522 C2532 0.930 . S
H2523 C2535 0.929 . S
H2524 C2538 0.930 . S
H2525 C2540 0.960 . S
H2526 C2540 0.960 . S
H2527 C2540 0.960 . S
C2528 H2520 0.929 . S
C2528 C2529 1.377 . S
C2528 C2530 1.384 . S
C2529 C2528 1.377 . S
C2529 C2535 1.390 . S
C2530 H2521 0.930 . S
C2530 C2528 1.384 . S
C2530 C2531 1.372 . S
C2531 C2530 1.372 . S
C2531 C2532 1.400 . S
C2531 C2536 1.490 . S
C2532 H2522 0.930 . S
C2532 C2531 1.400 . S
C2532 C2535 1.386 . S
H2533 C2549 0.930 . S
H2534 C2550 0.931 . S
C2535 H2523 0.929 . S
C2535 C2529 1.390 . S
C2535 C2532 1.386 . S
C2536 C2531 1.490 . S
C2536 C2538 1.395 . S
C2536 C2539 1.403 . S
H2537 C2543 0.930 . S
C2538 H2524 0.930 . S
C2538 C2536 1.395 . S
C2538 C2541 1.403 . S
C2539 C2536 1.403 . S
C2539 C2540 1.524 . S
C2539 C2543 1.400 . S
C2540 H2525 0.960 . S
C2540 H2526 0.960 . S
C2540 H2527 0.960 . S
C2540 C2539 1.524 . S
C2541 C2538 1.403 . S
C2541 C2542 1.392 . S
C2541 C2545 1.495 . S
C2542 C2541 1.392 . S
C2542 C2543 1.385 . S
C2542 C2544 1.478 . S
C2543 H2537 0.930 . S
C2543 C2539 1.400 . S
C2543 C2542 1.385 . S
C2544 C2542 1.478 . S
C2544 C2546 1.381 . S
C2544 C2550 1.383 . S
C2545 C2541 1.495 . S
C2545 H2551 0.959 . S
C2545 H2552 0.961 . S
C2545 H2553 0.960 . S
C2546 C2544 1.381 . S
C2546 C2547 1.394 . S
C2546 H2554 0.930 . S
C2547 C2546 1.394 . S
C2547 C2548 1.383 . S
C2547 H2555 0.929 . S
C2548 C2547 1.383 . S
C2548 C2549 1.377 . S
C2549 H2533 0.930 . S
C2549 C2548 1.377 . S
C2549 C2550 1.379 . S
C2550 H2534 0.931 . S
C2550 C2544 1.383 . S
C2550 C2549 1.379 . S
H2551 C2545 0.959 . S
H2552 C2545 0.961 . S
H2553 C2545 0.960 . S
H2554 C2546 0.930 . S
H2555 C2547 0.929 . S
H2556 C2564 0.929 . S
H2557 C2566 0.930 . S
H2558 C2568 0.930 . S
H2559 C2571 0.929 . S
H2560 C2574 0.930 . S
H2561 C2576 0.960 . S
H2562 C2576 0.960 . S
H2563 C2576 0.960 . S
C2564 H2556 0.929 . S
C2564 C2565 1.377 . S
C2564 C2566 1.384 . S
C2565 C2564 1.377 . S
C2565 C2571 1.390 . S
C2566 H2557 0.930 . S
C2566 C2564 1.384 . S
C2566 C2567 1.372 . S
C2567 C2566 1.372 . S
C2567 C2568 1.400 . S
C2567 C2572 1.490 . S
C2568 H2558 0.930 . S
C2568 C2567 1.400 . S
C2568 C2571 1.386 . S
H2569 C2585 0.930 . S
H2570 C2586 0.931 . S
C2571 H2559 0.929 . S
C2571 C2565 1.390 . S
C2571 C2568 1.386 . S
C2572 C2567 1.490 . S
C2572 C2574 1.395 . S
C2572 C2575 1.403 . S
H2573 C2579 0.930 . S
C2574 H2560 0.930 . S
C2574 C2572 1.395 . S
C2574 C2577 1.403 . S
C2575 C2572 1.403 . S
C2575 C2576 1.524 . S
C2575 C2579 1.400 . S
C2576 H2561 0.960 . S
C2576 H2562 0.960 . S
C2576 H2563 0.960 . S
C2576 C2575 1.524 . S
C2577 C2574 1.403 . S
C2577 C2578 1.392 . S
C2577 C2581 1.495 . S
C2578 C2577 1.392 . S
C2578 C2579 1.385 . S
C2578 C2580 1.478 . S
C2579 H2573 0.930 . S
C2579 C2575 1.400 . S
C2579 C2578 1.385 . S
C2580 C2578 1.478 . S
C2580 C2582 1.381 . S
C2580 C2586 1.383 . S
C2581 C2577 1.495 . S
C2581 H2587 0.959 . S
C2581 H2588 0.961 . S
C2581 H2589 0.960 . S
C2582 C2580 1.381 . S
C2582 C2583 1.394 . S
C2582 H2590 0.930 . S
C2583 C2582 1.394 . S
C2583 C2584 1.383 . S
C2583 H2591 0.929 . S
C2584 C2583 1.383 . S
C2584 C2585 1.377 . S
C2585 H2569 0.930 . S
C2585 C2584 1.377 . S
C2585 C2586 1.379 . S
C2586 H2570 0.931 . S
C2586 C2580 1.383 . S
C2586 C2585 1.379 . S
H2587 C2581 0.959 . S
H2588 C2581 0.961 . S
H2589 C2581 0.960 . S
H2590 C2582 0.930 . S
H2591 C2583 0.929 . S
H2592 C2600 0.929 . S
H2593 C2602 0.930 . S
H2594 C2604 0.930 . S
H2595 C2607 0.929 . S
H2596 C2610 0.930 . S
H2597 C2612 0.960 . S
H2598 C2612 0.960 . S
H2599 C2612 0.960 . S
C2600 H2592 0.929 . S
C2600 C2601 1.377 . S
C2600 C2602 1.384 . S
C2601 C2600 1.377 . S
C2601 C2607 1.390 . S
C2602 H2593 0.930 . S
C2602 C2600 1.384 . S
C2602 C2603 1.372 . S
C2603 C2602 1.372 . S
C2603 C2604 1.400 . S
C2603 C2608 1.490 . S
C2604 H2594 0.930 . S
C2604 C2603 1.400 . S
C2604 C2607 1.386 . S
H2605 C2621 0.930 . S
H2606 C2622 0.931 . S
C2607 H2595 0.929 . S
C2607 C2601 1.390 . S
C2607 C2604 1.386 . S
C2608 C2603 1.490 . S
C2608 C2610 1.395 . S
C2608 C2611 1.403 . S
H2609 C2615 0.930 . S
C2610 H2596 0.930 . S
C2610 C2608 1.395 . S
C2610 C2613 1.403 . S
C2611 C2608 1.403 . S
C2611 C2612 1.524 . S
C2611 C2615 1.400 . S
C2612 H2597 0.960 . S
C2612 H2598 0.960 . S
C2612 H2599 0.960 . S
C2612 C2611 1.524 . S
C2613 C2610 1.403 . S
C2613 C2614 1.392 . S
C2613 C2617 1.495 . S
C2614 C2613 1.392 . S
C2614 C2615 1.385 . S
C2614 C2616 1.478 . S
C2615 H2609 0.930 . S
C2615 C2611 1.400 . S
C2615 C2614 1.385 . S
C2616 C2614 1.478 . S
C2616 C2618 1.381 . S
C2616 C2622 1.383 . S
C2617 C2613 1.495 . S
C2617 H2623 0.959 . S
C2617 H2624 0.961 . S
C2617 H2625 0.960 . S
C2618 C2616 1.381 . S
C2618 C2619 1.394 . S
C2618 H2626 0.930 . S
C2619 C2618 1.394 . S
C2619 C2620 1.383 . S
C2619 H2627 0.929 . S
C2620 C2619 1.383 . S
C2620 C2621 1.377 . S
C2621 H2605 0.930 . S
C2621 C2620 1.377 . S
C2621 C2622 1.379 . S
C2622 H2606 0.931 . S
C2622 C2616 1.383 . S
C2622 C2621 1.379 . S
H2623 C2617 0.959 . S
H2624 C2617 0.961 . S
H2625 C2617 0.960 . S
H2626 C2618 0.930 . S
H2627 C2619 0.929 . S
H2628 C2636 0.929 . S
H2629 C2638 0.930 . S
H2630 C2640 0.930 . S
H2631 C2643 0.929 . S
H2632 C2646 0.930 . S
H2633 C2648 0.960 . S
H2634 C2648 0.960 . S
H2635 C2648 0.960 . S
C2636 H2628 0.929 . S
C2636 C2637 1.377 . S
C2636 C2638 1.384 . S
C2637 C2636 1.377 . S
C2637 C2643 1.390 . S
C2638 H2629 0.930 . S
C2638 C2636 1.384 . S
C2638 C2639 1.372 . S
C2639 C2638 1.372 . S
C2639 C2640 1.400 . S
C2639 C2644 1.490 . S
C2640 H2630 0.930 . S
C2640 C2639 1.400 . S
C2640 C2643 1.386 . S
H2641 C2657 0.930 . S
H2642 C2658 0.931 . S
C2643 H2631 0.929 . S
C2643 C2637 1.390 . S
C2643 C2640 1.386 . S
C2644 C2639 1.490 . S
C2644 C2646 1.395 . S
C2644 C2647 1.403 . S
H2645 C2651 0.930 . S
C2646 H2632 0.930 . S
C2646 C2644 1.395 . S
C2646 C2649 1.403 . S
C2647 C2644 1.403 . S
C2647 C2648 1.524 . S
C2647 C2651 1.400 . S
C2648 H2633 0.960 . S
C2648 H2634 0.960 . S
C2648 H2635 0.960 . S
C2648 C2647 1.524 . S
C2649 C2646 1.403 . S
C2649 C2650 1.392 . S
C2649 C2653 1.495 . S
C2650 C2649 1.392 . S
C2650 C2651 1.385 . S
C2650 C2652 1.478 . S
C2651 H2645 0.930 . S
C2651 C2647 1.400 . S
C2651 C2650 1.385 . S
C2652 C2650 1.478 . S
C2652 C2654 1.381 . S
C2652 C2658 1.383 . S
C2653 C2649 1.495 . S
C2653 H2659 0.959 . S
C2653 H2660 0.961 . S
C2653 H2661 0.960 . S
C2654 C2652 1.381 . S
C2654 C2655 1.394 . S
C2654 H2662 0.930 . S
C2655 C2654 1.394 . S
C2655 C2656 1.383 . S
C2655 H2663 0.929 . S
C2656 C2655 1.383 . S
C2656 C2657 1.377 . S
C2657 H2641 0.930 . S
C2657 C2656 1.377 . S
C2657 C2658 1.379 . S
C2658 H2642 0.931 . S
C2658 C2652 1.383 . S
C2658 C2657 1.379 . S
H2659 C2653 0.959 . S
H2660 C2653 0.961 . S
H2661 C2653 0.960 . S
H2662 C2654 0.930 . S
H2663 C2655 0.929 . S
H2664 C2672 0.929 . S
H2665 C2674 0.930 . S
H2666 C2676 0.930 . S
H2667 C2679 0.929 . S
H2668 C2682 0.930 . S
H2669 C2684 0.960 . S
H2670 C2684 0.960 . S
H2671 C2684 0.960 . S
C2672 H2664 0.929 . S
C2672 C2673 1.377 . S
C2672 C2674 1.384 . S
C2673 C2672 1.377 . S
C2673 C2679 1.390 . S
C2674 H2665 0.930 . S
C2674 C2672 1.384 . S
C2674 C2675 1.372 . S
C2675 C2674 1.372 . S
C2675 C2676 1.400 . S
C2675 C2680 1.490 . S
C2676 H2666 0.930 . S
C2676 C2675 1.400 . S
C2676 C2679 1.386 . S
H2677 C2693 0.930 . S
H2678 C2694 0.931 . S
C2679 H2667 0.929 . S
C2679 C2673 1.390 . S
C2679 C2676 1.386 . S
C2680 C2675 1.490 . S
C2680 C2682 1.395 . S
C2680 C2683 1.403 . S
H2681 C2687 0.930 . S
C2682 H2668 0.930 . S
C2682 C2680 1.395 . S
C2682 C2685 1.403 . S
C2683 C2680 1.403 . S
C2683 C2684 1.524 . S
C2683 C2687 1.400 . S
C2684 H2669 0.960 . S
C2684 H2670 0.960 . S
C2684 H2671 0.960 . S
C2684 C2683 1.524 . S
C2685 C2682 1.403 . S
C2685 C2686 1.392 . S
C2685 C2689 1.495 . S
C2686 C2685 1.392 . S
C2686 C2687 1.385 . S
C2686 C2688 1.478 . S
C2687 H2681 0.930 . S
C2687 C2683 1.400 . S
C2687 C2686 1.385 . S
C2688 C2686 1.478 . S
C2688 C2690 1.381 . S
C2688 C2694 1.383 . S
C2689 C2685 1.495 . S
C2689 H2695 0.959 . S
C2689 H2696 0.961 . S
C2689 H2697 0.960 . S
C2690 C2688 1.381 . S
C2690 C2691 1.394 . S
C2690 H2698 0.930 . S
C2691 C2690 1.394 . S
C2691 C2692 1.383 . S
C2691 H2699 0.929 . S
C2692 C2691 1.383 . S
C2692 C2693 1.377 . S
C2693 H2677 0.930 . S
C2693 C2692 1.377 . S
C2693 C2694 1.379 . S
C2694 H2678 0.931 . S
C2694 C2688 1.383 . S
C2694 C2693 1.379 . S
H2695 C2689 0.959 . S
H2696 C2689 0.961 . S
H2697 C2689 0.960 . S
H2698 C2690 0.930 . S
H2699 C2691 0.929 . S
H2700 C2708 0.929 . S
H2701 C2710 0.930 . S
H2702 C2712 0.930 . S
H2703 C2715 0.929 . S
H2704 C2718 0.930 . S
H2705 C2720 0.960 . S
H2706 C2720 0.960 . S
H2707 C2720 0.960 . S
C2708 H2700 0.929 . S
C2708 C2709 1.377 . S
C2708 C2710 1.384 . S
C2709 C2708 1.377 . S
C2709 C2715 1.390 . S
C2710 H2701 0.930 . S
C2710 C2708 1.384 . S
C2710 C2711 1.372 . S
C2711 C2710 1.372 . S
C2711 C2712 1.400 . S
C2711 C2716 1.490 . S
C2712 H2702 0.930 . S
C2712 C2711 1.400 . S
C2712 C2715 1.386 . S
H2713 C2729 0.930 . S
H2714 C2730 0.931 . S
C2715 H2703 0.929 . S
C2715 C2709 1.390 . S
C2715 C2712 1.386 . S
C2716 C2711 1.490 . S
C2716 C2718 1.395 . S
C2716 C2719 1.403 . S
H2717 C2723 0.910 1_655 S
C2718 H2704 0.930 . S
C2718 C2716 1.395 . S
C2718 C2721 1.403 . S
C2719 C2716 1.403 . S
C2719 C2720 1.524 . S
C2719 C2723 1.435 . S
C2720 H2705 0.960 . S
C2720 H2706 0.960 . S
C2720 H2707 0.960 . S
C2720 C2719 1.524 . S
C2721 C2718 1.403 . S
C2721 C2722 1.392 1_455 S
C2721 C2725 1.495 1_455 S
C2722 C2721 1.392 1_655 S
C2722 C2723 1.370 1_655 S
C2722 C2724 1.478 . S
C2723 H2717 0.910 1_455 S
C2723 C2719 1.435 . S
C2723 C2722 1.370 1_455 S
C2724 C2722 1.478 . S
C2724 C2726 1.381 . S
C2724 C2730 1.383 . S
C2725 C2721 1.495 1_655 S
C2725 H2731 0.959 1_655 S
C2725 H2732 0.961 . S
C2725 H2733 0.960 . S
C2726 C2724 1.381 . S
C2726 C2727 1.394 . S
C2726 H2734 0.930 . S
C2727 C2726 1.394 . S
C2727 C2728 1.383 . S
C2727 H2735 0.929 . S
C2728 C2727 1.383 . S
C2728 C2729 1.377 . S
C2729 H2713 0.930 . S
C2729 C2728 1.377 . S
C2729 C2730 1.379 . S
C2730 H2714 0.931 . S
C2730 C2724 1.383 . S
C2730 C2729 1.379 . S
H2731 C2725 0.959 1_455 S
H2732 C2725 0.961 . S
H2733 C2725 0.960 . S
H2734 C2726 0.930 . S
H2735 C2727 0.929 . S
H2736 C2744 0.929 . S
H2737 C2746 0.930 . S
H2738 C2748 0.930 . S
H2739 C2751 0.929 . S
H2740 C2754 0.930 . S
H2741 C2756 0.960 . S
H2742 C2756 0.960 . S
H2743 C2756 0.960 . S
C2744 H2736 0.929 . S
C2744 C2745 1.377 . S
C2744 C2746 1.384 . S
C2745 C2744 1.377 . S
C2745 C2751 1.390 . S
C2746 H2737 0.930 . S
C2746 C2744 1.384 . S
C2746 C2747 1.372 . S
C2747 C2746 1.372 . S
C2747 C2748 1.400 . S
C2747 C2752 1.490 . S
C2748 H2738 0.930 . S
C2748 C2747 1.400 . S
C2748 C2751 1.386 . S
H2749 C2765 0.930 . S
H2750 C2766 0.931 . S
C2751 H2739 0.929 . S
C2751 C2745 1.390 . S
C2751 C2748 1.386 . S
C2752 C2747 1.490 . S
C2752 C2754 1.395 . S
C2752 C2755 1.403 . S
H2753 C2759 0.930 . S
C2754 H2740 0.930 . S
C2754 C2752 1.395 . S
C2754 C2757 1.403 . S
C2755 C2752 1.403 . S
C2755 C2756 1.524 . S
C2755 C2759 1.400 . S
C2756 H2741 0.960 . S
C2756 H2742 0.960 . S
C2756 H2743 0.960 . S
C2756 C2755 1.524 . S
C2757 C2754 1.403 . S
C2757 C2758 1.392 . S
C2757 C2761 1.495 . S
C2758 C2757 1.392 . S
C2758 C2759 1.385 . S
C2758 C2760 1.478 . S
C2759 H2753 0.930 . S
C2759 C2755 1.400 . S
C2759 C2758 1.385 . S
C2760 C2758 1.478 . S
C2760 C2762 1.381 . S
C2760 C2766 1.383 . S
C2761 C2757 1.495 . S
C2761 H2767 0.959 . S
C2761 H2768 0.961 . S
C2761 H2769 0.960 . S
C2762 C2760 1.381 . S
C2762 C2763 1.394 . S
C2762 H2770 0.930 . S
C2763 C2762 1.394 . S
C2763 C2764 1.383 . S
C2763 H2771 0.929 . S
C2764 C2763 1.383 . S
C2764 C2765 1.377 . S
C2765 H2749 0.930 . S
C2765 C2764 1.377 . S
C2765 C2766 1.379 . S
C2766 H2750 0.931 . S
C2766 C2760 1.383 . S
C2766 C2765 1.379 . S
H2767 C2761 0.959 . S
H2768 C2761 0.961 . S
H2769 C2761 0.960 . S
H2770 C2762 0.930 . S
H2771 C2763 0.929 . S
H2772 C2780 0.929 . S
H2773 C2782 0.930 . S
H2774 C2784 0.930 . S
H2775 C2787 0.929 . S
H2776 C2790 0.930 1_655 S
H2777 C2792 0.960 1_455 S
H2778 C2792 0.960 . S
H2779 C2792 0.960 . S
C2780 H2772 0.929 . S
C2780 C2781 1.377 . S
C2780 C2782 1.384 . S
C2781 C2780 1.377 . S
C2781 C2787 1.390 . S
C2782 H2773 0.930 . S
C2782 C2780 1.384 . S
C2782 C2783 1.372 . S
C2783 C2782 1.372 . S
C2783 C2784 1.400 . S
C2783 C2788 1.490 . S
C2784 H2774 0.930 . S
C2784 C2783 1.400 . S
C2784 C2787 1.386 . S
H2785 C2801 0.930 . S
H2786 C2802 0.931 . S
C2787 H2775 0.929 . S
C2787 C2781 1.390 . S
C2787 C2784 1.386 . S
C2788 C2783 1.490 . S
C2788 C2790 1.395 1_655 S
C2788 C2791 1.403 1_655 S
H2789 C2795 0.930 . S
C2790 H2776 0.930 1_455 S
C2790 C2788 1.395 1_455 S
C2790 C2793 1.403 . S
C2791 C2788 1.403 1_455 S
C2791 C2792 1.524 1_455 S
C2791 C2795 1.400 . S
C2792 H2777 0.960 1_655 S
C2792 H2778 0.960 . S
C2792 H2779 0.960 . S
C2792 C2791 1.524 1_655 S
C2793 C2790 1.403 . S
C2793 C2794 1.392 . S
C2793 C2797 1.495 . S
C2794 C2793 1.392 . S
C2794 C2795 1.385 . S
C2794 C2796 1.478 . S
C2795 H2789 0.930 . S
C2795 C2791 1.400 . S
C2795 C2794 1.385 . S
C2796 C2794 1.478 . S
C2796 C2798 1.381 . S
C2796 C2802 1.383 . S
C2797 C2793 1.495 . S
C2797 H2803 0.959 . S
C2797 H2804 0.961 . S
C2797 H2805 0.960 . S
C2798 C2796 1.381 . S
C2798 C2799 1.394 . S
C2798 H2806 0.930 . S
C2799 C2798 1.394 . S
C2799 C2800 1.383 . S
C2799 H2807 0.929 . S
C2800 C2799 1.383 . S
C2800 C2801 1.377 . S
C2801 H2785 0.930 . S
C2801 C2800 1.377 . S
C2801 C2802 1.379 . S
C2802 H2786 0.931 . S
C2802 C2796 1.383 . S
C2802 C2801 1.379 . S
H2803 C2797 0.959 . S
H2804 C2797 0.961 . S
H2805 C2797 0.960 . S
H2806 C2798 0.930 . S
H2807 C2799 0.929 . S
H2808 C2816 0.929 . S
H2809 C2818 0.930 . S
H2810 C2820 0.930 . S
H2811 C2823 0.929 . S
H2812 C2826 0.930 . S
H2813 C2828 0.960 . S
H2814 C2828 0.960 . S
H2815 C2828 0.960 . S
C2816 H2808 0.929 . S
C2816 C2817 1.377 . S
C2816 C2818 1.384 . S
C2817 C2816 1.377 . S
C2817 C2823 1.390 . S
C2818 H2809 0.930 . S
C2818 C2816 1.384 . S
C2818 C2819 1.372 . S
C2819 C2818 1.372 . S
C2819 C2820 1.400 . S
C2819 C2824 1.490 . S
C2820 H2810 0.930 . S
C2820 C2819 1.400 . S
C2820 C2823 1.386 . S
H2821 C2837 0.930 . S
H2822 C2838 0.931 . S
C2823 H2811 0.929 . S
C2823 C2817 1.390 . S
C2823 C2820 1.386 . S
C2824 C2819 1.490 . S
C2824 C2826 1.395 . S
C2824 C2827 1.403 . S
H2825 C2831 0.930 . S
C2826 H2812 0.930 . S
C2826 C2824 1.395 . S
C2826 C2829 1.403 . S
C2827 C2824 1.403 . S
C2827 C2828 1.524 . S
C2827 C2831 1.400 . S
C2828 H2813 0.960 . S
C2828 H2814 0.960 . S
C2828 H2815 0.960 . S
C2828 C2827 1.524 . S
C2829 C2826 1.403 . S
C2829 C2830 1.392 . S
C2829 C2833 1.495 . S
C2830 C2829 1.392 . S
C2830 C2831 1.385 . S
C2830 C2832 1.478 . S
C2831 H2825 0.930 . S
C2831 C2827 1.400 . S
C2831 C2830 1.385 . S
C2832 C2830 1.478 . S
C2832 C2834 1.381 . S
C2832 C2838 1.383 . S
C2833 C2829 1.495 . S
C2833 H2839 0.959 . S
C2833 H2840 0.961 . S
C2833 H2841 0.960 . S
C2834 C2832 1.381 . S
C2834 C2835 1.394 . S
C2834 H2842 0.930 . S
C2835 C2834 1.394 . S
C2835 C2836 1.383 . S
C2835 H2843 0.929 . S
C2836 C2835 1.383 . S
C2836 C2837 1.377 . S
C2837 H2821 0.930 . S
C2837 C2836 1.377 . S
C2837 C2838 1.379 . S
C2838 H2822 0.931 . S
C2838 C2832 1.383 . S
C2838 C2837 1.379 . S
H2839 C2833 0.959 . S
H2840 C2833 0.961 . S
H2841 C2833 0.960 . S
H2842 C2834 0.930 . S
H2843 C2835 0.929 . S
H2844 C2852 0.929 . S
H2845 C2854 0.930 . S
H2846 C2856 0.930 . S
H2847 C2859 0.929 . S
H2848 C2862 0.930 . S
H2849 C2864 0.960 . S
H2850 C2864 0.960 . S
H2851 C2864 0.960 . S
C2852 H2844 0.929 . S
C2852 C2853 1.377 . S
C2852 C2854 1.384 . S
C2853 C2852 1.377 . S
C2853 C2859 1.390 . S
C2854 H2845 0.930 . S
C2854 C2852 1.384 . S
C2854 C2855 1.372 . S
C2855 C2854 1.372 . S
C2855 C2856 1.400 . S
C2855 C2860 1.490 . S
C2856 H2846 0.930 . S
C2856 C2855 1.400 . S
C2856 C2859 1.386 . S
H2857 C2873 0.930 . S
H2858 C2874 0.931 . S
C2859 H2847 0.929 . S
C2859 C2853 1.390 . S
C2859 C2856 1.386 . S
C2860 C2855 1.490 . S
C2860 C2862 1.395 . S
C2860 C2863 1.403 . S
H2861 C2867 0.930 . S
C2862 H2848 0.930 . S
C2862 C2860 1.395 . S
C2862 C2865 1.403 . S
C2863 C2860 1.403 . S
C2863 C2864 1.524 . S
C2863 C2867 1.400 . S
C2864 H2849 0.960 . S
C2864 H2850 0.960 . S
C2864 H2851 0.960 . S
C2864 C2863 1.524 . S
C2865 C2862 1.403 . S
C2865 C2866 1.392 . S
C2865 C2869 1.495 . S
C2866 C2865 1.392 . S
C2866 C2867 1.385 . S
C2866 C2868 1.478 . S
C2867 H2861 0.930 . S
C2867 C2863 1.400 . S
C2867 C2866 1.385 . S
C2868 C2866 1.478 . S
C2868 C2870 1.381 . S
C2868 C2874 1.383 . S
C2869 C2865 1.495 . S
C2869 H2875 0.959 . S
C2869 H2876 0.961 . S
C2869 H2877 0.960 . S
C2870 C2868 1.381 . S
C2870 C2871 1.394 . S
C2870 H2878 0.930 . S
C2871 C2870 1.394 . S
C2871 C2872 1.383 . S
C2871 H2879 0.929 . S
C2872 C2871 1.383 . S
C2872 C2873 1.377 . S
C2873 H2857 0.930 . S
C2873 C2872 1.377 . S
C2873 C2874 1.379 . S
C2874 H2858 0.931 . S
C2874 C2868 1.383 . S
C2874 C2873 1.379 . S
H2875 C2869 0.959 . S
H2876 C2869 0.961 . S
H2877 C2869 0.960 . S
H2878 C2870 0.930 . S
H2879 C2871 0.929 . S
H2880 C2888 0.929 . S
H2881 C2890 0.930 . S
H2882 C2892 0.930 . S
H2883 C2895 0.929 . S
H2884 C2898 0.930 . S
H2885 C2900 0.960 . S
H2886 C2900 0.960 . S
H2887 C2900 0.960 . S
C2888 H2880 0.929 . S
C2888 C2889 1.377 . S
C2888 C2890 1.384 . S
C2889 C2888 1.377 . S
C2889 C2895 1.390 . S
C2890 H2881 0.930 . S
C2890 C2888 1.384 . S
C2890 C2891 1.372 . S
C2891 C2890 1.372 . S
C2891 C2892 1.400 . S
C2891 C2896 1.490 . S
C2892 H2882 0.930 . S
C2892 C2891 1.400 . S
C2892 C2895 1.386 . S
H2893 C2909 0.930 . S
H2894 C2910 0.931 . S
C2895 H2883 0.929 . S
C2895 C2889 1.390 . S
C2895 C2892 1.386 . S
C2896 C2891 1.490 . S
C2896 C2898 1.395 . S
C2896 C2899 1.403 . S
H2897 C2903 0.930 . S
C2898 H2884 0.930 . S
C2898 C2896 1.395 . S
C2898 C2901 1.403 . S
C2899 C2896 1.403 . S
C2899 C2900 1.524 . S
C2899 C2903 1.400 . S
C2900 H2885 0.960 . S
C2900 H2886 0.960 . S
C2900 H2887 0.960 . S
C2900 C2899 1.524 . S
C2901 C2898 1.403 . S
C2901 C2902 1.392 . S
C2901 C2905 1.495 . S
C2902 C2901 1.392 . S
C2902 C2903 1.385 . S
C2902 C2904 1.478 . S
C2903 H2897 0.930 . S
C2903 C2899 1.400 . S
C2903 C2902 1.385 . S
C2904 C2902 1.478 . S
C2904 C2906 1.381 . S
C2904 C2910 1.383 . S
C2905 C2901 1.495 . S
C2905 H2911 0.959 . S
C2905 H2912 0.961 . S
C2905 H2913 0.960 . S
C2906 C2904 1.381 . S
C2906 C2907 1.394 . S
C2906 H2914 0.930 . S
C2907 C2906 1.394 . S
C2907 C2908 1.383 . S
C2907 H2915 0.929 . S
C2908 C2907 1.383 . S
C2908 C2909 1.377 . S
C2909 H2893 0.930 . S
C2909 C2908 1.377 . S
C2909 C2910 1.379 . S
C2910 H2894 0.931 . S
C2910 C2904 1.383 . S
C2910 C2909 1.379 . S
H2911 C2905 0.959 . S
H2912 C2905 0.961 . S
H2913 C2905 0.960 . S
H2914 C2906 0.930 . S
H2915 C2907 0.929 . S
H2916 C2924 0.929 . S
H2917 C2926 0.930 . S
H2918 C2928 0.930 . S
H2919 C2931 0.929 . S
H2920 C2934 0.930 . S
H2921 C2936 0.960 . S
H2922 C2936 0.960 . S
H2923 C2936 0.960 . S
C2924 H2916 0.929 . S
C2924 C2925 1.377 . S
C2924 C2926 1.384 . S
C2925 C2924 1.377 . S
C2925 C2931 1.390 . S
C2926 H2917 0.930 . S
C2926 C2924 1.384 . S
C2926 C2927 1.372 . S
C2927 C2926 1.372 . S
C2927 C2928 1.400 . S
C2927 C2932 1.490 . S
C2928 H2918 0.930 . S
C2928 C2927 1.400 . S
C2928 C2931 1.386 . S
H2929 C2945 0.929 . S
H2930 C2946 0.931 . S
C2931 H2919 0.929 . S
C2931 C2925 1.390 . S
C2931 C2928 1.386 . S
C2932 C2927 1.490 . S
C2932 C2934 1.395 . S
C2932 C2935 1.403 . S
H2933 C2939 0.930 . S
C2934 H2920 0.930 . S
C2934 C2932 1.395 . S
C2934 C2937 1.403 . S
C2935 C2932 1.403 . S
C2935 C2936 1.524 . S
C2935 C2939 1.400 . S
C2936 H2921 0.960 . S
C2936 H2922 0.960 . S
C2936 H2923 0.960 . S
C2936 C2935 1.524 . S
C2937 C2934 1.403 . S
C2937 C2938 1.392 . S
C2937 C2941 1.495 . S
C2938 C2937 1.392 . S
C2938 C2939 1.385 . S
C2938 C2940 1.478 . S
C2939 H2933 0.930 . S
C2939 C2935 1.400 . S
C2939 C2938 1.385 . S
C2940 C2938 1.478 . S
C2940 C2942 1.381 . S
C2940 C2946 1.383 . S
C2941 C2937 1.495 . S
C2941 H2947 0.959 . S
C2941 H2948 0.961 . S
C2941 H2949 0.960 . S
C2942 C2940 1.381 . S
C2942 C2943 1.394 1_556 S
C2942 H2950 0.930 . S
C2943 C2942 1.394 1_554 S
C2943 C2944 1.383 . S
C2943 H2951 0.929 . S
C2944 C2943 1.383 . S
C2944 C2945 1.376 . S
C2945 H2929 0.929 . S
C2945 C2944 1.376 . S
C2945 C2946 1.381 1_554 S
C2946 H2930 0.931 . S
C2946 C2940 1.383 . S
C2946 C2945 1.381 1_556 S
H2947 C2941 0.959 . S
H2948 C2941 0.961 . S
H2949 C2941 0.960 . S
H2950 C2942 0.930 . S
H2951 C2943 0.929 . S
H2952 C2960 0.929 . S
H2953 C2962 0.930 . S
H2954 C2964 0.930 . S
H2955 C2967 0.929 . S
H2956 C2970 0.930 . S
H2957 C2972 0.960 . S
H2958 C2972 0.960 . S
H2959 C2972 0.960 . S
C2960 H2952 0.929 . S
C2960 C2961 1.377 . S
C2960 C2962 1.384 1_556 S
C2961 C2960 1.377 . S
C2961 C2967 1.390 . S
C2962 H2953 0.930 . S
C2962 C2960 1.384 1_554 S
C2962 C2963 1.372 . S
C2963 C2962 1.372 . S
C2963 C2964 1.400 . S
C2963 C2968 1.490 . S
C2964 H2954 0.930 . S
C2964 C2963 1.400 . S
C2964 C2967 1.386 1_554 S
H2965 C2981 0.930 . S
H2966 C2982 0.931 . S
C2967 H2955 0.929 . S
C2967 C2961 1.390 . S
C2967 C2964 1.386 1_556 S
C2968 C2963 1.490 . S
C2968 C2970 1.395 . S
C2968 C2971 1.403 . S
H2969 C2975 0.930 . S
C2970 H2956 0.930 . S
C2970 C2968 1.395 . S
C2970 C2973 1.403 . S
C2971 C2968 1.403 . S
C2971 C2972 1.524 . S
C2971 C2975 1.400 . S
C2972 H2957 0.960 . S
C2972 H2958 0.960 . S
C2972 H2959 0.960 . S
C2972 C2971 1.524 . S
C2973 C2970 1.403 . S
C2973 C2974 1.392 . S
C2973 C2977 1.495 . S
C2974 C2973 1.392 . S
C2974 C2975 1.385 . S
C2974 C2976 1.478 . S
C2975 H2969 0.930 . S
C2975 C2971 1.400 . S
C2975 C2974 1.385 . S
C2976 C2974 1.478 . S
C2976 C2978 1.381 . S
C2976 C2982 1.383 . S
C2977 C2973 1.495 . S
C2977 H2983 0.959 . S
C2977 H2984 0.961 . S
C2977 H2985 0.960 . S
C2978 C2976 1.381 . S
C2978 C2979 1.394 . S
C2978 H2986 0.930 . S
C2979 C2978 1.394 . S
C2979 C2980 1.383 . S
C2979 H2987 0.929 . S
C2980 C2979 1.383 . S
C2980 C2981 1.377 . S
C2981 H2965 0.930 . S
C2981 C2980 1.377 . S
C2981 C2982 1.379 . S
C2982 H2966 0.931 . S
C2982 C2976 1.383 . S
C2982 C2981 1.379 . S
H2983 C2977 0.959 . S
H2984 C2977 0.961 . S
H2985 C2977 0.960 . S
H2986 C2978 0.930 . S
H2987 C2979 0.929 . S
H2988 C2996 0.929 . S
H2989 C2998 0.930 . S
H2990 C3000 0.930 . S
H2991 C3003 0.929 . S
H2992 C3006 0.930 . S
H2993 C3008 0.960 . S
H2994 C3008 0.960 . S
H2995 C3008 0.960 . S
C2996 H2988 0.929 . S
C2996 C2997 1.377 . S
C2996 C2998 1.384 . S
C2997 C2996 1.377 . S
C2997 C3003 1.390 . S
C2998 H2989 0.930 . S
C2998 C2996 1.384 . S
C2998 C2999 1.372 . S
C2999 C2998 1.372 . S
C2999 C3000 1.400 . S
C2999 C3004 1.490 . S
C3000 H2990 0.930 . S
C3000 C2999 1.400 . S
C3000 C3003 1.386 . S
H3001 C3017 0.930 . S
H3002 C3018 0.931 . S
C3003 H2991 0.929 . S
C3003 C2997 1.390 . S
C3003 C3000 1.386 . S
C3004 C2999 1.490 . S
C3004 C3006 1.395 . S
C3004 C3007 1.403 . S
H3005 C3011 0.930 . S
C3006 H2992 0.930 . S
C3006 C3004 1.395 . S
C3006 C3009 1.403 . S
C3007 C3004 1.403 . S
C3007 C3008 1.524 . S
C3007 C3011 1.400 . S
C3008 H2993 0.960 . S
C3008 H2994 0.960 . S
C3008 H2995 0.960 . S
C3008 C3007 1.524 . S
C3009 C3006 1.403 . S
C3009 C3010 1.392 . S
C3009 C3013 1.495 . S
C3010 C3009 1.392 . S
C3010 C3011 1.385 . S
C3010 C3012 1.478 . S
C3011 H3005 0.930 . S
C3011 C3007 1.400 . S
C3011 C3010 1.385 . S
C3012 C3010 1.478 . S
C3012 C3014 1.381 . S
C3012 C3018 1.383 . S
C3013 C3009 1.495 . S
C3013 H3019 0.959 . S
C3013 H3020 0.961 . S
C3013 H3021 0.960 . S
C3014 C3012 1.381 . S
C3014 C3015 1.394 . S
C3014 H3022 0.930 . S
C3015 C3014 1.394 . S
C3015 C3016 1.383 . S
C3015 H3023 0.929 . S
C3016 C3015 1.383 . S
C3016 C3017 1.377 . S
C3017 H3001 0.930 . S
C3017 C3016 1.377 . S
C3017 C3018 1.379 . S
C3018 H3002 0.931 . S
C3018 C3012 1.383 . S
C3018 C3017 1.379 . S
H3019 C3013 0.959 . S
H3020 C3013 0.961 . S
H3021 C3013 0.960 . S
H3022 C3014 0.930 . S
H3023 C3015 0.929 . S
H3024 C3032 0.929 . S
H3025 C3034 0.930 . S
H3026 C3036 0.930 . S
H3027 C3039 0.929 . S
H3028 C3042 0.930 . S
H3029 C3044 0.960 . S
H3030 C3044 0.960 . S
H3031 C3044 0.960 . S
C3032 H3024 0.929 . S
C3032 C3033 1.377 . S
C3032 C3034 1.384 . S
C3033 C3032 1.377 . S
C3033 C3039 1.390 . S
C3034 H3025 0.930 . S
C3034 C3032 1.384 . S
C3034 C3035 1.372 . S
C3035 C3034 1.372 . S
C3035 C3036 1.400 . S
C3035 C3040 1.490 . S
C3036 H3026 0.930 . S
C3036 C3035 1.400 . S
C3036 C3039 1.386 . S
H3037 C3053 0.930 . S
H3038 C3054 0.931 . S
C3039 H3027 0.929 . S
C3039 C3033 1.390 . S
C3039 C3036 1.386 . S
C3040 C3035 1.490 . S
C3040 C3042 1.395 . S
C3040 C3043 1.403 . S
H3041 C3047 0.930 . S
C3042 H3028 0.930 . S
C3042 C3040 1.395 . S
C3042 C3045 1.403 . S
C3043 C3040 1.403 . S
C3043 C3044 1.524 . S
C3043 C3047 1.400 . S
C3044 H3029 0.960 . S
C3044 H3030 0.960 . S
C3044 H3031 0.960 . S
C3044 C3043 1.524 . S
C3045 C3042 1.403 . S
C3045 C3046 1.392 . S
C3045 C3049 1.495 . S
C3046 C3045 1.392 . S
C3046 C3047 1.385 . S
C3046 C3048 1.478 . S
C3047 H3041 0.930 . S
C3047 C3043 1.400 . S
C3047 C3046 1.385 . S
C3048 C3046 1.478 . S
C3048 C3050 1.381 . S
C3048 C3054 1.383 . S
C3049 C3045 1.495 . S
C3049 H3055 0.959 . S
C3049 H3056 0.961 . S
C3049 H3057 0.960 . S
C3050 C3048 1.381 . S
C3050 C3051 1.394 . S
C3050 H3058 0.930 . S
C3051 C3050 1.394 . S
C3051 C3052 1.383 . S
C3051 H3059 0.929 . S
C3052 C3051 1.383 . S
C3052 C3053 1.377 . S
C3053 H3037 0.930 . S
C3053 C3052 1.377 . S
C3053 C3054 1.379 . S
C3054 H3038 0.931 . S
C3054 C3048 1.383 . S
C3054 C3053 1.379 . S
H3055 C3049 0.959 . S
H3056 C3049 0.961 . S
H3057 C3049 0.960 . S
H3058 C3050 0.930 . S
H3059 C3051 0.929 . S
H3060 C3068 0.929 . S
H3061 C3070 0.930 . S
H3062 C3072 0.930 . S
H3063 C3075 0.929 . S
H3064 C3078 0.930 . S
H3065 C3080 0.960 . S
H3066 C3080 0.960 . S
H3067 C3080 0.960 . S
C3068 H3060 0.929 . S
C3068 C3069 1.377 . S
C3068 C3070 1.384 1_556 S
C3069 C3068 1.377 . S
C3069 C3075 1.390 . S
C3070 H3061 0.930 . S
C3070 C3068 1.384 1_554 S
C3070 C3071 1.372 . S
C3071 C3070 1.372 . S
C3071 C3072 1.400 . S
C3071 C3076 1.490 . S
C3072 H3062 0.930 . S
C3072 C3071 1.400 . S
C3072 C3075 1.386 1_554 S
H3073 C3089 0.930 . S
H3074 C3090 0.931 . S
C3075 H3063 0.929 . S
C3075 C3069 1.390 . S
C3075 C3072 1.386 1_556 S
C3076 C3071 1.490 . S
C3076 C3078 1.395 . S
C3076 C3079 1.403 . S
H3077 C3083 0.930 . S
C3078 H3064 0.930 . S
C3078 C3076 1.395 . S
C3078 C3081 1.403 . S
C3079 C3076 1.403 . S
C3079 C3080 1.524 . S
C3079 C3083 1.400 . S
C3080 H3065 0.960 . S
C3080 H3066 0.960 . S
C3080 H3067 0.960 . S
C3080 C3079 1.524 . S
C3081 C3078 1.403 . S
C3081 C3082 1.392 . S
C3081 C3085 1.495 . S
C3082 C3081 1.392 . S
C3082 C3083 1.385 . S
C3082 C3084 1.478 . S
C3083 H3077 0.930 . S
C3083 C3079 1.400 . S
C3083 C3082 1.385 . S
C3084 C3082 1.478 . S
C3084 C3086 1.381 . S
C3084 C3090 1.383 . S
C3085 C3081 1.495 . S
C3085 H3091 0.959 . S
C3085 H3092 0.961 . S
C3085 H3093 0.960 . S
C3086 C3084 1.381 . S
C3086 C3087 1.394 . S
C3086 H3094 0.930 . S
C3087 C3086 1.394 . S
C3087 C3088 1.383 . S
C3087 H3095 0.929 . S
C3088 C3087 1.383 . S
C3088 C3089 1.377 . S
C3089 H3073 0.930 . S
C3089 C3088 1.377 . S
C3089 C3090 1.379 . S
C3090 H3074 0.931 . S
C3090 C3084 1.383 . S
C3090 C3089 1.379 . S
H3091 C3085 0.959 . S
H3092 C3085 0.961 . S
H3093 C3085 0.960 . S
H3094 C3086 0.930 . S
H3095 C3087 0.929 . S
H3096 C3104 0.929 . S
H3097 C3106 0.930 . S
H3098 C3108 0.930 . S
H3099 C3111 0.929 . S
H3100 C3114 0.930 . S
H3101 C3116 0.960 . S
H3102 C3116 0.960 . S
H3103 C3116 0.960 . S
C3104 H3096 0.929 . S
C3104 C3105 1.377 . S
C3104 C3106 1.384 . S
C3105 C3104 1.377 . S
C3105 C3111 1.390 . S
C3106 H3097 0.930 . S
C3106 C3104 1.384 . S
C3106 C3107 1.372 . S
C3107 C3106 1.372 . S
C3107 C3108 1.400 . S
C3107 C3112 1.490 . S
C3108 H3098 0.930 . S
C3108 C3107 1.400 . S
C3108 C3111 1.386 . S
H3109 C3125 0.930 . S
H3110 C3126 0.931 . S
C3111 H3099 0.929 . S
C3111 C3105 1.390 . S
C3111 C3108 1.386 . S
C3112 C3107 1.490 . S
C3112 C3114 1.395 . S
C3112 C3115 1.403 . S
H3113 C3119 0.930 . S
C3114 H3100 0.930 . S
C3114 C3112 1.395 . S
C3114 C3117 1.403 . S
C3115 C3112 1.403 . S
C3115 C3116 1.524 . S
C3115 C3119 1.400 . S
C3116 H3101 0.960 . S
C3116 H3102 0.960 . S
C3116 H3103 0.960 . S
C3116 C3115 1.524 . S
C3117 C3114 1.403 . S
C3117 C3118 1.392 . S
C3117 C3121 1.495 . S
C3118 C3117 1.392 . S
C3118 C3119 1.385 . S
C3118 C3120 1.478 . S
C3119 H3113 0.930 . S
C3119 C3115 1.400 . S
C3119 C3118 1.385 . S
C3120 C3118 1.478 . S
C3120 C3122 1.381 . S
C3120 C3126 1.383 . S
C3121 C3117 1.495 . S
C3121 H3127 0.959 . S
C3121 H3128 0.961 . S
C3121 H3129 0.960 . S
C3122 C3120 1.381 . S
C3122 C3123 1.394 1_556 S
C3122 H3130 0.930 . S
C3123 C3122 1.394 1_554 S
C3123 C3124 1.383 . S
C3123 H3131 0.929 . S
C3124 C3123 1.383 . S
C3124 C3125 1.377 . S
C3125 H3109 0.930 . S
C3125 C3124 1.377 . S
C3125 C3126 1.379 1_554 S
C3126 H3110 0.931 . S
C3126 C3120 1.383 . S
C3126 C3125 1.379 1_556 S
H3127 C3121 0.959 . S
H3128 C3121 0.961 . S
H3129 C3121 0.960 . S
H3130 C3122 0.930 . S
H3131 C3123 0.929 . S
H3132 C3140 0.929 . S
H3133 C3142 0.930 . S
H3134 C3144 0.930 . S
H3135 C3147 0.929 . S
H3136 C3150 0.930 . S
H3137 C3152 0.960 . S
H3138 C3152 0.960 . S
H3139 C3152 0.960 . S
C3140 H3132 0.929 . S
C3140 C3141 1.377 . S
C3140 C3142 1.384 . S
C3141 C3140 1.377 . S
C3141 C3147 1.390 . S
C3142 H3133 0.930 . S
C3142 C3140 1.384 . S
C3142 C3143 1.372 . S
C3143 C3142 1.372 . S
C3143 C3144 1.400 . S
C3143 C3148 1.490 . S
C3144 H3134 0.930 . S
C3144 C3143 1.400 . S
C3144 C3147 1.386 . S
H3145 C3161 0.930 . S
H3146 C3162 0.931 . S
C3147 H3135 0.929 . S
C3147 C3141 1.390 . S
C3147 C3144 1.386 . S
C3148 C3143 1.490 . S
C3148 C3150 1.395 . S
C3148 C3151 1.403 . S
H3149 C3155 0.930 . S
C3150 H3136 0.930 . S
C3150 C3148 1.395 . S
C3150 C3153 1.403 . S
C3151 C3148 1.403 . S
C3151 C3152 1.524 . S
C3151 C3155 1.400 . S
C3152 H3137 0.960 . S
C3152 H3138 0.960 . S
C3152 H3139 0.960 . S
C3152 C3151 1.524 . S
C3153 C3150 1.403 . S
C3153 C3154 1.392 . S
C3153 C3157 1.495 . S
C3154 C3153 1.392 . S
C3154 C3155 1.385 . S
C3154 C3156 1.478 . S
C3155 H3149 0.930 . S
C3155 C3151 1.400 . S
C3155 C3154 1.385 . S
C3156 C3154 1.478 . S
C3156 C3158 1.381 . S
C3156 C3162 1.383 . S
C3157 C3153 1.495 . S
C3157 H3163 0.959 . S
C3157 H3164 0.961 . S
C3157 H3165 0.960 . S
C3158 C3156 1.381 . S
C3158 C3159 1.394 . S
C3158 H3166 0.930 . S
C3159 C3158 1.394 . S
C3159 C3160 1.383 . S
C3159 H3167 0.929 . S
C3160 C3159 1.383 . S
C3160 C3161 1.377 . S
C3161 H3145 0.930 . S
C3161 C3160 1.377 . S
C3161 C3162 1.379 . S
C3162 H3146 0.931 . S
C3162 C3156 1.383 . S
C3162 C3161 1.379 . S
H3163 C3157 0.959 . S
H3164 C3157 0.961 . S
H3165 C3157 0.960 . S
H3166 C3158 0.930 . S
H3167 C3159 0.929 . S
H3168 C3176 0.942 . S
H3169 C3178 0.930 . S
H3170 C3180 0.930 . S
H3171 C3183 0.929 . S
H3172 C3186 0.930 . S
H3173 C3188 0.960 . S
H3174 C3188 0.960 . S
H3175 C3188 0.960 . S
C3176 H3168 0.942 . S
C3176 C3177 1.396 . S
C3176 C3178 1.353 1_556 S
C3177 C3176 1.396 . S
C3177 C3183 1.390 . S
C3178 H3169 0.930 . S
C3178 C3176 1.353 1_554 S
C3178 C3179 1.372 . S
C3179 C3178 1.372 . S
C3179 C3180 1.400 . S
C3179 C3184 1.490 . S
C3180 H3170 0.930 . S
C3180 C3179 1.400 . S
C3180 C3183 1.386 1_554 S
H3181 C3197 0.930 . S
H3182 C3198 0.931 . S
C3183 H3171 0.929 . S
C3183 C3177 1.390 . S
C3183 C3180 1.386 1_556 S
C3184 C3179 1.490 . S
C3184 C3186 1.395 . S
C3184 C3187 1.403 . S
H3185 C3191 0.930 . S
C3186 H3172 0.930 . S
C3186 C3184 1.395 . S
C3186 C3189 1.403 . S
C3187 C3184 1.403 . S
C3187 C3188 1.524 . S
C3187 C3191 1.400 . S
C3188 H3173 0.960 . S
C3188 H3174 0.960 . S
C3188 H3175 0.960 . S
C3188 C3187 1.524 . S
C3189 C3186 1.403 . S
C3189 C3190 1.392 . S
C3189 C3193 1.495 . S
C3190 C3189 1.392 . S
C3190 C3191 1.385 . S
C3190 C3192 1.478 . S
C3191 H3185 0.930 . S
C3191 C3187 1.400 . S
C3191 C3190 1.385 . S
C3192 C3190 1.478 . S
C3192 C3194 1.381 . S
C3192 C3198 1.383 . S
C3193 C3189 1.495 . S
C3193 H3199 0.959 . S
C3193 H3200 0.961 . S
C3193 H3201 0.960 . S
C3194 C3192 1.381 . S
C3194 C3195 1.394 . S
C3194 H3202 0.930 . S
C3195 C3194 1.394 . S
C3195 C3196 1.383 . S
C3195 H3203 0.929 . S
C3196 C3195 1.383 . S
C3196 C3197 1.377 . S
C3197 H3181 0.930 . S
C3197 C3196 1.377 . S
C3197 C3198 1.379 . S
C3198 H3182 0.931 . S
C3198 C3192 1.383 . S
C3198 C3197 1.379 . S
H3199 C3193 0.959 . S
H3200 C3193 0.961 . S
H3201 C3193 0.960 . S
H3202 C3194 0.930 . S
H3203 C3195 0.929 . S
H3204 C3212 0.929 . S
H3205 C3214 0.930 . S
H3206 C3216 0.930 . S
H3207 C3219 0.929 . S
H3208 C3222 0.930 . S
H3209 C3224 0.960 . S
H3210 C3224 0.960 . S
H3211 C3224 0.960 . S
C3212 H3204 0.929 . S
C3212 C3213 1.377 . S
C3212 C3214 1.384 . S
C3213 C3212 1.377 . S
C3213 C3219 1.390 . S
C3214 H3205 0.930 . S
C3214 C3212 1.384 . S
C3214 C3215 1.372 . S
C3215 C3214 1.372 . S
C3215 C3216 1.400 . S
C3215 C3220 1.490 . S
C3216 H3206 0.930 . S
C3216 C3215 1.400 . S
C3216 C3219 1.386 . S
H3217 C3233 0.930 . S
H3218 C3234 0.931 . S
C3219 H3207 0.929 . S
C3219 C3213 1.390 . S
C3219 C3216 1.386 . S
C3220 C3215 1.490 . S
C3220 C3222 1.395 . S
C3220 C3223 1.403 . S
H3221 C3227 0.930 . S
C3222 H3208 0.930 . S
C3222 C3220 1.395 . S
C3222 C3225 1.403 . S
C3223 C3220 1.403 . S
C3223 C3224 1.524 . S
C3223 C3227 1.400 . S
C3224 H3209 0.960 . S
C3224 H3210 0.960 . S
C3224 H3211 0.960 . S
C3224 C3223 1.524 . S
C3225 C3222 1.403 . S
C3225 C3226 1.392 . S
C3225 C3229 1.495 . S
C3226 C3225 1.392 . S
C3226 C3227 1.385 . S
C3226 C3228 1.478 . S
C3227 H3221 0.930 . S
C3227 C3223 1.400 . S
C3227 C3226 1.385 . S
C3228 C3226 1.478 . S
C3228 C3230 1.381 . S
C3228 C3234 1.383 . S
C3229 C3225 1.495 . S
C3229 H3235 0.959 . S
C3229 H3236 0.961 . S
C3229 H3237 0.960 . S
C3230 C3228 1.381 . S
C3230 C3231 1.394 . S
C3230 H3238 0.930 . S
C3231 C3230 1.394 . S
C3231 C3232 1.383 . S
C3231 H3239 0.929 . S
C3232 C3231 1.383 . S
C3232 C3233 1.377 . S
C3233 H3217 0.930 . S
C3233 C3232 1.377 . S
C3233 C3234 1.379 . S
C3234 H3218 0.931 . S
C3234 C3228 1.383 . S
C3234 C3233 1.379 . S
H3235 C3229 0.959 . S
H3236 C3229 0.961 . S
H3237 C3229 0.960 . S
H3238 C3230 0.930 . S
H3239 C3231 0.929 . S
H3240 C3248 0.929 . S
H3241 C3250 0.930 . S
H3242 C3252 0.930 . S
H3243 C3255 0.929 . S
H3244 C3258 0.930 . S
H3245 C3260 0.960 . S
H3246 C3260 0.960 . S
H3247 C3260 0.960 . S
C3248 H3240 0.929 . S
C3248 C3249 1.377 . S
C3248 C3250 1.384 . S
C3249 C3248 1.377 . S
C3249 C3255 1.390 . S
C3250 H3241 0.930 . S
C3250 C3248 1.384 . S
C3250 C3251 1.372 . S
C3251 C3250 1.372 . S
C3251 C3252 1.400 . S
C3251 C3256 1.490 . S
C3252 H3242 0.930 . S
C3252 C3251 1.400 . S
C3252 C3255 1.386 . S
H3253 C3269 0.930 . S
H3254 C3270 0.931 . S
C3255 H3243 0.929 . S
C3255 C3249 1.390 . S
C3255 C3252 1.386 . S
C3256 C3251 1.490 . S
C3256 C3258 1.395 . S
C3256 C3259 1.403 . S
H3257 C3263 0.930 . S
C3258 H3244 0.930 . S
C3258 C3256 1.395 . S
C3258 C3261 1.403 . S
C3259 C3256 1.403 . S
C3259 C3260 1.524 . S
C3259 C3263 1.400 . S
C3260 H3245 0.960 . S
C3260 H3246 0.960 . S
C3260 H3247 0.960 . S
C3260 C3259 1.524 . S
C3261 C3258 1.403 . S
C3261 C3262 1.392 . S
C3261 C3265 1.495 . S
C3262 C3261 1.392 . S
C3262 C3263 1.385 . S
C3262 C3264 1.478 . S
C3263 H3257 0.930 . S
C3263 C3259 1.400 . S
C3263 C3262 1.385 . S
C3264 C3262 1.478 . S
C3264 C3266 1.381 . S
C3264 C3270 1.383 . S
C3265 C3261 1.495 . S
C3265 H3271 0.959 . S
C3265 H3272 0.961 . S
C3265 H3273 0.960 . S
C3266 C3264 1.381 . S
C3266 C3267 1.394 . S
C3266 H3274 0.930 . S
C3267 C3266 1.394 . S
C3267 C3268 1.383 . S
C3267 H3275 0.929 . S
C3268 C3267 1.383 . S
C3268 C3269 1.377 . S
C3269 H3253 0.930 . S
C3269 C3268 1.377 . S
C3269 C3270 1.379 . S
C3270 H3254 0.931 . S
C3270 C3264 1.383 . S
C3270 C3269 1.379 . S
H3271 C3265 0.959 . S
H3272 C3265 0.961 . S
H3273 C3265 0.960 . S
H3274 C3266 0.930 . S
H3275 C3267 0.929 . S
H3276 C3284 0.929 . S
H3277 C3286 0.930 . S
H3278 C3288 0.930 . S
H3279 C3291 0.929 . S
H3280 C3294 0.930 . S
H3281 C3296 0.960 . S
H3282 C3296 0.960 . S
H3283 C3296 0.960 . S
C3284 H3276 0.929 . S
C3284 C3285 1.377 . S
C3284 C3286 1.384 1_554 S
C3285 C3284 1.377 . S
C3285 C3291 1.390 . S
C3286 H3277 0.930 . S
C3286 C3284 1.384 1_556 S
C3286 C3287 1.372 . S
C3287 C3286 1.372 . S
C3287 C3288 1.400 . S
C3287 C3292 1.490 . S
C3288 H3278 0.930 . S
C3288 C3287 1.400 . S
C3288 C3291 1.386 1_556 S
H3289 C3305 0.930 . S
H3290 C3306 0.931 . S
C3291 H3279 0.929 . S
C3291 C3285 1.390 . S
C3291 C3288 1.386 1_554 S
C3292 C3287 1.490 . S
C3292 C3294 1.395 . S
C3292 C3295 1.403 . S
H3293 C3299 0.930 . S
C3294 H3280 0.930 . S
C3294 C3292 1.395 . S
C3294 C3297 1.403 . S
C3295 C3292 1.403 . S
C3295 C3296 1.524 . S
C3295 C3299 1.400 . S
C3296 H3281 0.960 . S
C3296 H3282 0.960 . S
C3296 H3283 0.960 . S
C3296 C3295 1.524 . S
C3297 C3294 1.403 . S
C3297 C3298 1.392 . S
C3297 C3301 1.495 . S
C3298 C3297 1.392 . S
C3298 C3299 1.385 . S
C3298 C3300 1.478 . S
C3299 H3293 0.930 . S
C3299 C3295 1.400 . S
C3299 C3298 1.385 . S
C3300 C3298 1.478 . S
C3300 C3302 1.381 . S
C3300 C3306 1.383 . S
C3301 C3297 1.495 . S
C3301 H3307 0.959 . S
C3301 H3308 0.961 . S
C3301 H3309 0.960 . S
C3302 C3300 1.381 . S
C3302 C3303 1.394 . S
C3302 H3310 0.930 . S
C3303 C3302 1.394 . S
C3303 C3304 1.383 . S
C3303 H3311 0.929 . S
C3304 C3303 1.383 . S
C3304 C3305 1.377 . S
C3305 H3289 0.930 . S
C3305 C3304 1.377 . S
C3305 C3306 1.379 . S
C3306 H3290 0.931 . S
C3306 C3300 1.383 . S
C3306 C3305 1.379 . S
H3307 C3301 0.959 . S
H3308 C3301 0.961 . S
H3309 C3301 0.960 . S
H3310 C3302 0.930 . S
H3311 C3303 0.929 . S
H3312 C3320 0.929 . S
H3313 C3322 0.930 . S
H3314 C3324 0.930 . S
H3315 C3327 0.929 . S
H3316 C3330 0.930 . S
H3317 C3332 0.960 . S
H3318 C3332 0.960 . S
H3319 C3332 0.960 . S
C3320 H3312 0.929 . S
C3320 C3321 1.377 . S
C3320 C3322 1.384 . S
C3321 C3320 1.377 . S
C3321 C3327 1.390 . S
C3322 H3313 0.930 . S
C3322 C3320 1.384 . S
C3322 C3323 1.372 . S
C3323 C3322 1.372 . S
C3323 C3324 1.400 . S
C3323 C3328 1.490 . S
C3324 H3314 0.930 . S
C3324 C3323 1.400 . S
C3324 C3327 1.386 . S
H3325 C3341 0.930 . S
H3326 C3342 0.931 . S
C3327 H3315 0.929 . S
C3327 C3321 1.390 . S
C3327 C3324 1.386 . S
C3328 C3323 1.490 . S
C3328 C3330 1.395 . S
C3328 C3331 1.403 . S
H3329 C3335 0.930 . S
C3330 H3316 0.930 . S
C3330 C3328 1.395 . S
C3330 C3333 1.403 . S
C3331 C3328 1.403 . S
C3331 C3332 1.524 . S
C3331 C3335 1.400 . S
C3332 H3317 0.960 . S
C3332 H3318 0.960 . S
C3332 H3319 0.960 . S
C3332 C3331 1.524 . S
C3333 C3330 1.403 . S
C3333 C3334 1.392 . S
C3333 C3337 1.495 . S
C3334 C3333 1.392 . S
C3334 C3335 1.385 . S
C3334 C3336 1.478 . S
C3335 H3329 0.930 . S
C3335 C3331 1.400 . S
C3335 C3334 1.385 . S
C3336 C3334 1.478 . S
C3336 C3338 1.381 . S
C3336 C3342 1.383 . S
C3337 C3333 1.495 . S
C3337 H3343 0.959 . S
C3337 H3344 0.961 . S
C3337 H3345 0.960 . S
C3338 C3336 1.381 . S
C3338 C3339 1.394 1_556 S
C3338 H3346 0.930 . S
C3339 C3338 1.394 1_554 S
C3339 C3340 1.383 . S
C3339 H3347 0.929 . S
C3340 C3339 1.383 . S
C3340 C3341 1.377 . S
C3341 H3325 0.930 . S
C3341 C3340 1.377 . S
C3341 C3342 1.379 1_554 S
C3342 H3326 0.931 . S
C3342 C3336 1.383 . S
C3342 C3341 1.379 1_556 S
H3343 C3337 0.959 . S
H3344 C3337 0.961 . S
H3345 C3337 0.960 . S
H3346 C3338 0.930 . S
H3347 C3339 0.929 . S
H3348 C3356 0.929 . S
H3349 C3358 0.930 . S
H3350 C3360 0.930 . S
H3351 C3363 0.929 . S
H3352 C3366 0.930 . S
H3353 C3368 0.960 . S
H3354 C3368 0.960 . S
H3355 C3368 0.960 . S
C3356 H3348 0.929 . S
C3356 C3357 1.377 . S
C3356 C3358 1.384 . S
C3357 C3356 1.377 . S
C3357 C3363 1.390 . S
C3358 H3349 0.930 . S
C3358 C3356 1.384 . S
C3358 C3359 1.372 . S
C3359 C3358 1.372 . S
C3359 C3360 1.400 . S
C3359 C3364 1.490 . S
C3360 H3350 0.930 . S
C3360 C3359 1.400 . S
C3360 C3363 1.386 . S
H3361 C3377 0.930 . S
H3362 C3378 0.931 . S
C3363 H3351 0.929 . S
C3363 C3357 1.390 . S
C3363 C3360 1.386 . S
C3364 C3359 1.490 . S
C3364 C3366 1.395 . S
C3364 C3367 1.403 . S
H3365 C3371 0.930 . S
C3366 H3352 0.930 . S
C3366 C3364 1.395 . S
C3366 C3369 1.403 . S
C3367 C3364 1.403 . S
C3367 C3368 1.524 . S
C3367 C3371 1.400 . S
C3368 H3353 0.960 . S
C3368 H3354 0.960 . S
C3368 H3355 0.960 . S
C3368 C3367 1.524 . S
C3369 C3366 1.403 . S
C3369 C3370 1.392 . S
C3369 C3373 1.495 . S
C3370 C3369 1.392 . S
C3370 C3371 1.385 . S
C3370 C3372 1.478 . S
C3371 H3365 0.930 . S
C3371 C3367 1.400 . S
C3371 C3370 1.385 . S
C3372 C3370 1.478 . S
C3372 C3374 1.381 . S
C3372 C3378 1.383 . S
C3373 C3369 1.495 . S
C3373 H3379 0.959 . S
C3373 H3380 0.961 . S
C3373 H3381 0.960 . S
C3374 C3372 1.381 . S
C3374 C3375 1.394 . S
C3374 H3382 0.930 . S
C3375 C3374 1.394 . S
C3375 C3376 1.383 . S
C3375 H3383 0.929 . S
C3376 C3375 1.383 . S
C3376 C3377 1.377 . S
C3377 H3361 0.930 . S
C3377 C3376 1.377 . S
C3377 C3378 1.379 . S
C3378 H3362 0.931 . S
C3378 C3372 1.383 . S
C3378 C3377 1.379 . S
H3379 C3373 0.959 . S
H3380 C3373 0.961 . S
H3381 C3373 0.960 . S
H3382 C3374 0.930 . S
H3383 C3375 0.929 . S
H3384 C3392 0.929 . S
H3385 C3394 0.930 . S
H3386 C3396 0.930 . S
H3387 C3399 0.929 . S
H3388 C3402 0.930 . S
H3389 C3404 0.960 . S
H3390 C3404 0.960 . S
H3391 C3404 0.960 . S
C3392 H3384 0.929 . S
C3392 C3393 1.377 . S
C3392 C3394 1.384 . S
C3393 C3392 1.377 . S
C3393 C3399 1.390 . S
C3394 H3385 0.930 . S
C3394 C3392 1.384 . S
C3394 C3395 1.372 . S
C3395 C3394 1.372 . S
C3395 C3396 1.400 . S
C3395 C3400 1.490 . S
C3396 H3386 0.930 . S
C3396 C3395 1.400 . S
C3396 C3399 1.386 . S
H3397 C3413 0.930 . S
H3398 C3414 0.931 . S
C3399 H3387 0.929 . S
C3399 C3393 1.390 . S
C3399 C3396 1.386 . S
C3400 C3395 1.490 . S
C3400 C3402 1.395 . S
C3400 C3403 1.403 . S
H3401 C3407 0.930 . S
C3402 H3388 0.930 . S
C3402 C3400 1.395 . S
C3402 C3405 1.403 . S
C3403 C3400 1.403 . S
C3403 C3404 1.524 . S
C3403 C3407 1.400 . S
C3404 H3389 0.960 . S
C3404 H3390 0.960 . S
C3404 H3391 0.960 . S
C3404 C3403 1.524 . S
C3405 C3402 1.403 . S
C3405 C3406 1.392 . S
C3405 C3409 1.495 . S
C3406 C3405 1.392 . S
C3406 C3407 1.385 . S
C3406 C3408 1.478 . S
C3407 H3401 0.930 . S
C3407 C3403 1.400 . S
C3407 C3406 1.385 . S
C3408 C3406 1.478 . S
C3408 C3410 1.381 . S
C3408 C3414 1.383 . S
C3409 C3405 1.495 . S
C3409 H3415 0.959 . S
C3409 H3416 0.961 . S
C3409 H3417 0.960 . S
C3410 C3408 1.381 . S
C3410 C3411 1.394 . S
C3410 H3418 0.930 . S
C3411 C3410 1.394 . S
C3411 C3412 1.383 . S
C3411 H3419 0.929 . S
C3412 C3411 1.383 . S
C3412 C3413 1.377 . S
C3413 H3397 0.930 . S
C3413 C3412 1.377 . S
C3413 C3414 1.379 . S
C3414 H3398 0.931 . S
C3414 C3408 1.383 . S
C3414 C3413 1.379 . S
H3415 C3409 0.959 . S
H3416 C3409 0.961 . S
H3417 C3409 0.960 . S
H3418 C3410 0.930 . S
H3419 C3411 0.929 . S
H3420 C3428 0.929 . S
H3421 C3430 0.930 . S
H3422 C3432 0.930 . S
H3423 C3435 0.929 . S
H3424 C3438 0.930 . S
H3425 C3440 0.960 . S
H3426 C3440 0.960 . S
H3427 C3440 0.960 . S
C3428 H3420 0.929 . S
C3428 C3429 1.377 . S
C3428 C3430 1.384 . S
C3429 C3428 1.377 . S
C3429 C3435 1.390 . S
C3430 H3421 0.930 . S
C3430 C3428 1.384 . S
C3430 C3431 1.372 . S
C3431 C3430 1.372 . S
C3431 C3432 1.400 . S
C3431 C3436 1.490 . S
C3432 H3422 0.930 . S
C3432 C3431 1.400 . S
C3432 C3435 1.386 . S
H3433 C3449 0.930 . S
H3434 C3450 0.931 . S
C3435 H3423 0.929 . S
C3435 C3429 1.390 . S
C3435 C3432 1.386 . S
C3436 C3431 1.490 . S
C3436 C3438 1.395 . S
C3436 C3439 1.403 . S
H3437 C3443 0.930 . S
C3438 H3424 0.930 . S
C3438 C3436 1.395 . S
C3438 C3441 1.403 . S
C3439 C3436 1.403 . S
C3439 C3440 1.524 . S
C3439 C3443 1.400 . S
C3440 H3425 0.960 . S
C3440 H3426 0.960 . S
C3440 H3427 0.960 . S
C3440 C3439 1.524 . S
C3441 C3438 1.403 . S
C3441 C3442 1.392 . S
C3441 C3445 1.495 . S
C3442 C3441 1.392 . S
C3442 C3443 1.385 . S
C3442 C3444 1.478 . S
C3443 H3437 0.930 . S
C3443 C3439 1.400 . S
C3443 C3442 1.385 . S
C3444 C3442 1.478 . S
C3444 C3446 1.381 . S
C3444 C3450 1.383 . S
C3445 C3441 1.495 . S
C3445 H3451 0.959 . S
C3445 H3452 0.961 . S
C3445 H3453 0.960 . S
C3446 C3444 1.381 . S
C3446 C3447 1.394 1_554 S
C3446 H3454 0.930 . S
C3447 C3446 1.394 1_556 S
C3447 C3448 1.383 . S
C3447 H3455 0.929 . S
C3448 C3447 1.383 . S
C3448 C3449 1.377 . S
C3449 H3433 0.930 . S
C3449 C3448 1.377 . S
C3449 C3450 1.379 1_556 S
C3450 H3434 0.931 . S
C3450 C3444 1.383 . S
C3450 C3449 1.379 1_554 S
H3451 C3445 0.959 . S
H3452 C3445 0.961 . S
H3453 C3445 0.960 . S
H3454 C3446 0.930 . S
H3455 C3447 0.929 . S
C1161 C4 1.337 . S
C1180 C148 1.327 . S
C1197 C40 1.334 . S
C1216 C184 1.344 . S
C1233 C220 1.334 . S
C1252 C76 1.313 . S
C1269 C256 1.330 . S
C1288 C112 1.336 . S
C1305 C292 1.337 . S
C1324 C436 1.327 . S
C1341 C328 1.330 . S
C1360 C472 1.337 . S
C1377 C508 1.331 . S
C1396 C364 1.326 . S
C1413 C400 1.330 . S
C1432 C544 1.339 . S
C1449 C724 1.331 . S
C1468 C580 1.348 . S
C1485 C760 1.330 . S
C1504 C616 1.337 . S
C1521 C652 1.333 . S
C1540 C796 1.314 . S
C1557 C832 1.337 . S
C1576 C688 1.316 . S
C1593 C868 1.336 . S
C1612 C1012 1.334 . S
C1629 C1048 1.337 . S
C1648 C904 1.322 . S
C1665 C1084 1.334 . S
C1684 C940 1.314 . S
C1701 C976 1.337 . S
C1720 C1120 1.326 . S
C1737 C3 1.487 . S
C1756 C986 1.460 . S
C1773 C302 1.454 . S
C1792 C39 1.496 . S
C1809 C75 1.491 . S
C1828 C914 1.428 . S
C1845 C111 1.490 . S
C1864 C374 1.421 . S
C1881 C1058 1.450 . S
C1900 C147 1.500 . S
C1917 C518 1.444 . S
C1936 C183 1.489 . S
C1953 C219 1.492 . S
C1972 C1130 1.461 . S
C1989 C255 1.488 . S
C2008 C446 1.468 . S
C2025 C698 1.444 . S
C2044 C291 1.483 . S
C2061 C327 1.491 . S
C2080 C14 1.471 . S
C2097 C626 1.450 . S
C2116 C363 1.498 . S
C2133 C399 1.490 . S
C2152 C86 1.471 . S
C2169 C770 1.451 . S
C2188 C435 1.480 . S
C2205 C471 1.487 . S
C2224 C230 1.443 . S
C2241 C842 1.448 . S
C2260 C507 1.474 . S
C2277 C543 1.492 . S
C2296 C158 1.463 . S
C2313 C410 1.443 . S
C2332 C579 1.483 . S
C2349 C878 1.453 . S
C2368 C615 1.478 . S
C2385 C338 1.444 . S
C2404 C651 1.490 . S
C2421 C687 1.492 . S
C2440 C950 1.459 . S
C2457 C482 1.447 . S
C2476 C723 1.473 . S
C2493 C1094 1.454 . S
C2512 C759 1.487 . S
C2529 C554 1.451 . S
C2548 C795 1.474 . S
C2565 C831 1.492 . S
C2584 C1022 1.436 . S
C2601 C867 1.487 . S
C2620 C122 1.421 . S
C2637 C903 1.490 . S
C2656 C590 1.434 . S
C2673 C939 1.488 . S
C2692 C50 1.459 . S
C2709 C975 1.487 . S
C2728 C662 1.442 . S
C2745 C1011 1.489 . S
C2764 C194 1.426 . S
C2781 C806 1.451 . S
C2800 C1047 1.498 . S
C2817 C266 1.451 . S
C2836 C1083 1.480 . S
C2853 C1119 1.487 . S
C2872 C734 1.421 . S
C2889 C2 0.838 . S
C2908 C254 0.848 . S
C2925 C38 0.840 . S
C2944 C146 0.856 . S
C2961 C74 0.838 . S
C2980 C182 0.842 . S
C2997 C218 0.839 . S
C3016 C110 0.821 . S
C3033 C542 0.842 . S
C3052 C290 0.836 . S
C3069 C434 0.845 . S
C3088 C326 0.829 . S
C3105 C470 0.838 . S
C3124 C362 0.854 . S
C3141 C506 0.845 . S
C3160 C398 0.824 . S
C3177 C578 0.839 . S
C3196 C830 0.853 . S
C3213 C722 0.843 . S
C3232 C614 0.824 . S
C3249 C758 0.845 . S
C3268 C650 0.859 . S
C3285 C794 0.838 . S
C3304 C686 0.829 . S
C3321 C1118 0.841 . S
C3340 C866 0.839 . S
C3357 C902 0.838 . S
C3376 C1010 0.858 . S
C3393 C938 0.845 . S
C3412 C1046 0.827 . S
C3429 C974 0.838 . S
C3448 C1082 0.860 . S
