# Generated by pormake.
# Topology zfv, (5)-cn, num edge types: 1
# Building blocks:
#     Node 0, Type 0, BuildingBlock: XOMCOT_clean_sbu_0, # of connection points: 5
#     Node 1, Type 0, BuildingBlock: XOMCOT_clean_sbu_0, # of connection points: 5
#     Node 2, Type 0, BuildingBlock: XOMCOT_clean_sbu_0, # of connection points: 5
#     Node 3, Type 0, BuildingBlock: XOMCOT_clean_sbu_0, # of connection points: 5
#     Node 4, Type 0, BuildingBlock: XOMCOT_clean_sbu_0, # of connection points: 5
#     Node 5, Type 0, BuildingBlock: XOMCOT_clean_sbu_0, # of connection points: 5
#     Node 6, Type 0, BuildingBlock: XOMCOT_clean_sbu_0, # of connection points: 5
#     Node 7, Type 0, BuildingBlock: XOMCOT_clean_sbu_0, # of connection points: 5
#     Node 8, Type 0, BuildingBlock: XOMCOT_clean_sbu_0, # of connection points: 5
#     Node 9, Type 0, BuildingBlock: XOMCOT_clean_sbu_0, # of connection points: 5
#     Node 10, Type 0, BuildingBlock: XOMCOT_clean_sbu_0, # of connection points: 5
#     Node 11, Type 0, BuildingBlock: XOMCOT_clean_sbu_0, # of connection points: 5
#     Node 12, Type 0, BuildingBlock: XOMCOT_clean_sbu_0, # of connection points: 5
#     Node 13, Type 0, BuildingBlock: XOMCOT_clean_sbu_0, # of connection points: 5
#     Node 14, Type 0, BuildingBlock: XOMCOT_clean_sbu_0, # of connection points: 5
#     Node 15, Type 0, BuildingBlock: XOMCOT_clean_sbu_0, # of connection points: 5
#     Edge 16, Type (0, 0), BuildingBlock: KIFKEQ_clean_linker_1, # of connection points: 2
#     Edge 17, Type (0, 0), BuildingBlock: KIFKEQ_clean_linker_1, # of connection points: 2
#     Edge 18, Type (0, 0), BuildingBlock: KIFKEQ_clean_linker_1, # of connection points: 2
#     Edge 19, Type (0, 0), BuildingBlock: KIFKEQ_clean_linker_1, # of connection points: 2
#     Edge 20, Type (0, 0), BuildingBlock: KIFKEQ_clean_linker_1, # of connection points: 2
#     Edge 21, Type (0, 0), BuildingBlock: KIFKEQ_clean_linker_1, # of connection points: 2
#     Edge 22, Type (0, 0), BuildingBlock: KIFKEQ_clean_linker_1, # of connection points: 2
#     Edge 23, Type (0, 0), BuildingBlock: KIFKEQ_clean_linker_1, # of connection points: 2
#     Edge 24, Type (0, 0), BuildingBlock: KIFKEQ_clean_linker_1, # of connection points: 2
#     Edge 25, Type (0, 0), BuildingBlock: KIFKEQ_clean_linker_1, # of connection points: 2
#     Edge 26, Type (0, 0), BuildingBlock: KIFKEQ_clean_linker_1, # of connection points: 2
#     Edge 27, Type (0, 0), BuildingBlock: KIFKEQ_clean_linker_1, # of connection points: 2
#     Edge 28, Type (0, 0), BuildingBlock: KIFKEQ_clean_linker_1, # of connection points: 2
#     Edge 29, Type (0, 0), BuildingBlock: KIFKEQ_clean_linker_1, # of connection points: 2
#     Edge 30, Type (0, 0), BuildingBlock: KIFKEQ_clean_linker_1, # of connection points: 2
#     Edge 31, Type (0, 0), BuildingBlock: KIFKEQ_clean_linker_1, # of connection points: 2
#     Edge 32, Type (0, 0), BuildingBlock: KIFKEQ_clean_linker_1, # of connection points: 2
#     Edge 33, Type (0, 0), BuildingBlock: KIFKEQ_clean_linker_1, # of connection points: 2
#     Edge 34, Type (0, 0), BuildingBlock: KIFKEQ_clean_linker_1, # of connection points: 2
#     Edge 35, Type (0, 0), BuildingBlock: KIFKEQ_clean_linker_1, # of connection points: 2
#     Edge 36, Type (0, 0), BuildingBlock: KIFKEQ_clean_linker_1, # of connection points: 2
#     Edge 37, Type (0, 0), BuildingBlock: KIFKEQ_clean_linker_1, # of connection points: 2
#     Edge 38, Type (0, 0), BuildingBlock: KIFKEQ_clean_linker_1, # of connection points: 2
#     Edge 39, Type (0, 0), BuildingBlock: KIFKEQ_clean_linker_1, # of connection points: 2
#     Edge 40, Type (0, 0), BuildingBlock: KIFKEQ_clean_linker_1, # of connection points: 2
#     Edge 41, Type (0, 0), BuildingBlock: KIFKEQ_clean_linker_1, # of connection points: 2
#     Edge 42, Type (0, 0), BuildingBlock: KIFKEQ_clean_linker_1, # of connection points: 2
#     Edge 43, Type (0, 0), BuildingBlock: KIFKEQ_clean_linker_1, # of connection points: 2
#     Edge 44, Type (0, 0), BuildingBlock: KIFKEQ_clean_linker_1, # of connection points: 2
#     Edge 45, Type (0, 0), BuildingBlock: KIFKEQ_clean_linker_1, # of connection points: 2
#     Edge 46, Type (0, 0), BuildingBlock: KIFKEQ_clean_linker_1, # of connection points: 2
#     Edge 47, Type (0, 0), BuildingBlock: KIFKEQ_clean_linker_1, # of connection points: 2
#     Edge 48, Type (0, 0), BuildingBlock: KIFKEQ_clean_linker_1, # of connection points: 2
#     Edge 49, Type (0, 0), BuildingBlock: KIFKEQ_clean_linker_1, # of connection points: 2
#     Edge 50, Type (0, 0), BuildingBlock: KIFKEQ_clean_linker_1, # of connection points: 2
#     Edge 51, Type (0, 0), BuildingBlock: KIFKEQ_clean_linker_1, # of connection points: 2
#     Edge 52, Type (0, 0), BuildingBlock: KIFKEQ_clean_linker_1, # of connection points: 2
#     Edge 53, Type (0, 0), BuildingBlock: KIFKEQ_clean_linker_1, # of connection points: 2
#     Edge 54, Type (0, 0), BuildingBlock: KIFKEQ_clean_linker_1, # of connection points: 2
#     Edge 55, Type (0, 0), BuildingBlock: KIFKEQ_clean_linker_1, # of connection points: 2
# Relax obj value: 0.143
# Max RMSD: 0.144
# Mean RMSD: 0.144
data_MOF--net-zfv--node1-XOMCOT_clean_sbu_0--edge1-KIFKEQ_clean_linker_1
_symmetry_space_group_name_H-M    P1
_symmetry_Int_Tables_number       1
_symmetry_cell_setting            triclinic
loop_
_symmetry_equiv_pos_as_xyz
'x, y, z'
_cell_length_a     77.627428
_cell_length_b     77.67996
_cell_length_c     17.93851
_cell_angle_alpha  90.01177
_cell_angle_beta   89.943864
_cell_angle_gamma 89.978926
loop_
_atom_site_label
_atom_site_type_symbol
_atom_site_fract_x
_atom_site_fract_y
_atom_site_fract_z
_atom_type_partial_charge
Co0 Co 0.07034 0.59259 0.09118 0.0
C1 C 0.06989 0.59606 0.92585 0.0
C2 C 0.09472 0.60152 0.97294 0.0
C3 C 0.09588 0.60301 0.89683 0.0
N4 N 0.07842 0.59734 0.99123 0.0
N5 N 0.08031 0.59955 0.86713 0.0
H6 H 0.05645 0.59253 0.92144 0.0
H7 H 0.10522 0.60291 1.012 0.0
C8 C 0.08602 0.62374 0.16678 0.0
O9 O 0.0712 0.62752 0.19826 0.0
N10 N 0.06261 0.58722 0.19289 0.0
C11 C 0.04947 0.57659 0.21116 0.0
C12 C 0.04802 0.57561 0.28718 0.0
C13 C 0.06955 0.59176 0.25942 0.0
N14 N 0.06056 0.58525 0.31769 0.0
C15 C 0.03605 0.60654 0.10036 0.0
C16 C 0.04446 0.6398 0.05981 0.0
C17 C 0.02818 0.63654 0.09067 0.0
C18 C 0.02377 0.61952 0.10764 0.0
C19 C 0.05644 0.62636 0.05408 0.0
N20 N 0.05259 0.61028 0.08042 0.0
H21 H 0.03227 0.59354 0.11242 0.0
H22 H 0.0692 0.62917 0.0331 0.0
H23 H 0.04141 0.5697 0.17223 0.0
H24 H 0.081 0.59947 0.2658 0.0
O25 O 0.05761 0.57304 0.05419 0.0
O26 O 0.08475 0.57228 0.09302 0.0
O27 O 0.08772 0.60994 0.12866 0.0
C28 C 0.07148 0.56407 0.06642 0.0
H29 H 0.10749 0.60576 0.86556 0.0
H30 H 0.03864 0.56808 0.31766 0.0
H31 H 0.04822 0.65272 0.04402 0.0
H32 H 0.01101 0.61631 0.12778 0.0
Co33 Co 0.70655 0.76681 0.32135 0.0
C34 C 0.70243 0.76661 0.15597 0.0
C35 C 0.69995 0.7918 0.20414 0.0
C36 C 0.69868 0.79329 0.12816 0.0
N37 N 0.70216 0.77511 0.22167 0.0
N38 N 0.70023 0.77748 0.09753 0.0
H39 H 0.70447 0.75287 0.15124 0.0
H40 H 0.69996 0.80228 0.2438 0.0
C41 C 0.6758 0.78244 0.4003 0.0
O42 O 0.67283 0.76791 0.43551 0.0
N43 N 0.71163 0.75896 0.42302 0.0
C44 C 0.72171 0.74542 0.44169 0.0
C45 C 0.72334 0.74461 0.51775 0.0
C46 C 0.70805 0.76668 0.48904 0.0
N47 N 0.71464 0.7579 0.54758 0.0
C48 C 0.69282 0.73248 0.32542 0.0
C49 C 0.65909 0.74132 0.2947 0.0
C50 C 0.66266 0.72485 0.3227 0.0
C51 C 0.67989 0.72021 0.33408 0.0
C52 C 0.67251 0.75326 0.28708 0.0
N53 N 0.68886 0.74916 0.30926 0.0
H54 H 0.70596 0.72862 0.33392 0.0
H55 H 0.66954 0.76612 0.26806 0.0
H56 H 0.72802 0.73681 0.40305 0.0
H57 H 0.70141 0.77882 0.49472 0.0
O58 O 0.72624 0.75412 0.28525 0.0
O59 O 0.72687 0.78119 0.32505 0.0
O60 O 0.68897 0.78406 0.35801 0.0
C61 C 0.73518 0.76795 0.29868 0.0
H62 H 0.69751 0.80527 0.09783 0.0
H63 H 0.73034 0.73491 0.54872 0.0
H64 H 0.64599 0.74527 0.28293 0.0
H65 H 0.68331 0.70731 0.35162 0.0
Co66 Co 0.53387 0.40405 0.58377 0.0
C67 C 0.53431 0.40015 0.41862 0.0
C68 C 0.50908 0.39651 0.46516 0.0
C69 C 0.50794 0.39506 0.38902 0.0
N70 N 0.5256 0.39952 0.48386 0.0
N71 N 0.52377 0.39738 0.35964 0.0
H72 H 0.54796 0.40279 0.41446 0.0
H73 H 0.49843 0.39604 0.50385 0.0
C74 C 0.5151 0.37465 0.66179 0.0
O75 O 0.52932 0.36899 0.69305 0.0
N76 N 0.54192 0.4092 0.68517 0.0
C77 C 0.55572 0.41901 0.70281 0.0
C78 C 0.55733 0.41995 0.77882 0.0
C79 C 0.53482 0.40513 0.75202 0.0
N80 N 0.54426 0.41113 0.80992 0.0
C81 C 0.56722 0.3881 0.59234 0.0
C82 C 0.55673 0.35517 0.55589 0.0
C83 C 0.57339 0.35766 0.5841 0.0
C84 C 0.5788 0.37449 0.59931 0.0
C85 C 0.54546 0.36923 0.5505 0.0
N86 N 0.5504 0.38521 0.57433 0.0
H87 H 0.57177 0.40093 0.60286 0.0
H88 H 0.53246 0.36707 0.53107 0.0
H89 H 0.56414 0.42532 0.66342 0.0
H90 H 0.52293 0.39816 0.75895 0.0
O91 O 0.5477 0.42277 0.54512 0.0
O92 O 0.52074 0.42506 0.58508 0.0
O93 O 0.51522 0.3883 0.62215 0.0
C94 C 0.5343 0.43249 0.55711 0.0
H95 H 0.49621 0.39319 0.35749 0.0
H96 H 0.56721 0.4269 0.80888 0.0
H97 H 0.55219 0.34242 0.54153 0.0
H98 H 0.59185 0.37708 0.61752 0.0
Co99 Co 0.89514 0.23182 0.82449 0.0
C100 C 0.89873 0.23195 0.65919 0.0
C101 C 0.90183 0.20676 0.70668 0.0
C102 C 0.90317 0.20541 0.63055 0.0
N103 N 0.89926 0.22339 0.72469 0.0
N104 N 0.90118 0.22121 0.6006 0.0
H105 H 0.89639 0.24564 0.65461 0.0
H106 H 0.9021 0.19624 0.74606 0.0
C107 C 0.92603 0.21589 0.90183 0.0
O108 O 0.92942 0.23039 0.93664 0.0
N109 N 0.89035 0.23994 0.92608 0.0
C110 C 0.88066 0.25378 0.94435 0.0
C111 C 0.87971 0.25523 0.02041 0.0
C112 C 0.89419 0.23255 0.99255 0.0
N113 N 0.88834 0.24196 0.05089 0.0
C114 C 0.90916 0.2661 0.82656 0.0
C115 C 0.94273 0.25692 0.79434 0.0
C116 C 0.93936 0.27348 0.82191 0.0
C117 C 0.92222 0.27827 0.83432 0.0
C118 C 0.9292 0.24507 0.78806 0.0
N119 N 0.91292 0.24934 0.81086 0.0
H120 H 0.89607 0.27012 0.83524 0.0
H121 H 0.93202 0.23214 0.76934 0.0
H122 H 0.87418 0.26218 0.90548 0.0
H123 H 0.9009 0.22047 0.99871 0.0
O124 O 0.87538 0.24444 0.78836 0.0
O125 O 0.87479 0.21757 0.8301 0.0
O126 O 0.91266 0.21449 0.86074 0.0
C127 C 0.86642 0.23066 0.80273 0.0
H128 H 0.90473 0.19357 0.59944 0.0
H129 H 0.8728 0.26507 0.05093 0.0
H130 H 0.95576 0.25287 0.78177 0.0
H131 H 0.91897 0.29124 0.85165 0.0
Co132 Co 0.07001 0.40662 0.96058 0.0
C133 C 0.06965 0.40289 0.12588 0.0
C134 C 0.09486 0.39958 0.07854 0.0
C135 C 0.09615 0.39817 0.15461 0.0
N136 N 0.07826 0.40232 0.06044 0.0
N137 N 0.08034 0.40028 0.18447 0.0
H138 H 0.05597 0.40537 0.13043 0.0
H139 H 0.10542 0.39927 0.03925 0.0
C140 C 0.08574 0.3757 0.88312 0.0
O141 O 0.07119 0.37253 0.84831 0.0
N142 N 0.06211 0.41162 0.85888 0.0
C143 C 0.0484 0.42151 0.84066 0.0
C144 C 0.04699 0.4225 0.76466 0.0
C145 C 0.06945 0.40768 0.79237 0.0
N146 N 0.06013 0.41367 0.73412 0.0
C147 C 0.03567 0.39265 0.95603 0.0
C148 C 0.04468 0.35915 0.99007 0.0
C149 C 0.02821 0.36248 0.96136 0.0
C150 C 0.0235 0.37959 0.94794 0.0
C151 C 0.05654 0.37267 0.99662 0.0
N152 N 0.05237 0.3889 0.97305 0.0
H153 H 0.03169 0.40571 0.94668 0.0
H154 H 0.0694 0.36985 0.01614 0.0
H155 H 0.04003 0.42805 0.87955 0.0
H156 H 0.08143 0.40077 0.7861 0.0
O157 O 0.05732 0.42634 0.99644 0.0
O158 O 0.08441 0.42692 0.95662 0.0
O159 O 0.08732 0.38904 0.92428 0.0
C160 C 0.07118 0.43525 0.98307 0.0
H161 H 0.10797 0.39648 0.18577 0.0
H162 H 0.03722 0.42952 0.7342 0.0
H163 H 0.04867 0.34615 1.00336 0.0
H164 H 0.0106 0.38282 0.92969 0.0
Co165 Co 0.89324 0.76667 0.20965 0.0
C166 C 0.89661 0.76661 0.37503 0.0
C167 C 0.89947 0.79181 0.32735 0.0
C168 C 0.90078 0.79321 0.40344 0.0
N169 N 0.89706 0.77516 0.30949 0.0
N170 N 0.89896 0.7774 0.4335 0.0
H171 H 0.89447 0.75289 0.37971 0.0
H172 H 0.8997 0.80232 0.28785 0.0
C173 C 0.92422 0.78256 0.13322 0.0
O174 O 0.9276 0.76803 0.09859 0.0
N175 N 0.88875 0.75851 0.10794 0.0
C176 C 0.87927 0.74455 0.08947 0.0
C177 C 0.87841 0.74312 1.01345 0.0
C178 C 0.89257 0.76596 0.04157 0.0
N179 N 0.8869 0.75649 0.98315 0.0
C180 C 0.90748 0.73243 0.20877 0.0
C181 C 0.94086 0.74183 0.24312 0.0
C182 C 0.9377 0.72518 0.21614 0.0
C183 C 0.92063 0.72029 0.20257 0.0
C184 C 0.92724 0.75363 0.24789 0.0
N185 N 0.91109 0.74923 0.22414 0.0
H186 H 0.89446 0.72831 0.19944 0.0
H187 H 0.92992 0.76659 0.26643 0.0
H188 H 0.87282 0.73608 0.12815 0.0
H189 H 0.89915 0.77812 0.03556 0.0
O190 O 0.87346 0.75392 0.24441 0.0
O191 O 0.87286 0.7809 0.20354 0.0
O192 O 0.9108 0.78404 0.17405 0.0
C193 C 0.86451 0.76768 0.22976 0.0
H194 H 0.90226 0.80507 0.43444 0.0
H195 H 0.87165 0.73321 0.98279 0.0
H196 H 0.9538 0.74598 0.25654 0.0
H197 H 0.91752 0.70726 0.18573 0.0
Co198 Co 0.5337 0.58909 0.43574 0.0
C199 C 0.53322 0.59189 0.60112 0.0
C200 C 0.50814 0.59538 0.553 0.0
C201 C 0.50667 0.59649 0.62923 0.0
N202 N 0.52478 0.59264 0.53535 0.0
N203 N 0.52242 0.59426 0.65958 0.0
H204 H 0.54693 0.58958 0.60592 0.0
H205 H 0.49769 0.59611 0.51335 0.0
C206 C 0.51584 0.61901 0.35874 0.0
O207 O 0.53039 0.62435 0.32921 0.0
N208 N 0.54239 0.585 0.33448 0.0
C209 C 0.55678 0.57611 0.31633 0.0
C210 C 0.55833 0.57532 0.24022 0.0
C211 C 0.53494 0.58861 0.26792 0.0
N212 N 0.54466 0.58327 0.20961 0.0
C213 C 0.5672 0.6047 0.4393 0.0
C214 C 0.55643 0.63759 0.47466 0.0
C215 C 0.57367 0.63498 0.4537 0.0
C216 C 0.5791 0.61811 0.43878 0.0
C217 C 0.54494 0.62369 0.47474 0.0
N218 N 0.55013 0.60777 0.45113 0.0
H219 H 0.57177 0.59186 0.42906 0.0
H220 H 0.53169 0.6259 0.49062 0.0
H221 H 0.56544 0.57001 0.35527 0.0
H222 H 0.52255 0.59473 0.26167 0.0
O223 O 0.54735 0.57007 0.47228 0.0
O224 O 0.52067 0.56805 0.4289 0.0
O225 O 0.51537 0.60529 0.39792 0.0
C226 C 0.53411 0.5604 0.45696 0.0
H227 H 0.4948 0.5982 0.66002 0.0
H228 H 0.56852 0.56889 0.20978 0.0
H229 H 0.5518 0.65028 0.48976 0.0
H230 H 0.59234 0.6153 0.42403 0.0
Co231 Co 0.70913 0.22758 0.69151 0.0
C232 C 0.70534 0.22784 0.85668 0.0
C233 C 0.70263 0.20254 0.80992 0.0
C234 C 0.70122 0.2013 0.88605 0.0
N235 N 0.70501 0.21916 0.7914 0.0
N236 N 0.70296 0.21718 0.91554 0.0
H237 H 0.70748 0.24157 0.86093 0.0
H238 H 0.70259 0.19193 0.77102 0.0
C239 C 0.67908 0.20974 0.61481 0.0
O240 O 0.67416 0.22417 0.58304 0.0
N241 N 0.71391 0.23575 0.58996 0.0
C242 C 0.72356 0.24963 0.5719 0.0
C243 C 0.72441 0.2512 0.49587 0.0
C244 C 0.70989 0.22854 0.52333 0.0
N245 N 0.71572 0.23801 0.46518 0.0
C246 C 0.69352 0.26112 0.68597 0.0
C247 C 0.66054 0.25085 0.72305 0.0
C248 C 0.66313 0.26751 0.69509 0.0
C249 C 0.67999 0.27282 0.67973 0.0
C250 C 0.67452 0.23946 0.72772 0.0
N251 N 0.6905 0.24429 0.70328 0.0
H252 H 0.70638 0.26559 0.67535 0.0
H253 H 0.67228 0.22647 0.74694 0.0
H254 H 0.72994 0.25807 0.61098 0.0
H255 H 0.70309 0.21654 0.51681 0.0
O256 O 0.72814 0.24117 0.72883 0.0
O257 O 0.73014 0.21429 0.68793 0.0
O258 O 0.69279 0.20925 0.65413 0.0
C259 C 0.73778 0.22778 0.71559 0.0
H260 H 0.69979 0.1895 0.91751 0.0
H261 H 0.73126 0.26111 0.46549 0.0
H262 H 0.64775 0.24639 0.73764 0.0
H263 H 0.68266 0.28587 0.66184 0.0
Co264 Co 0.39359 0.26741 0.70687 0.0
C265 C 0.39834 0.26706 0.87321 0.0
C266 C 0.39828 0.29246 0.82677 0.0
C267 C 0.39962 0.29384 0.90264 0.0
N268 N 0.39768 0.27569 0.80766 0.0
N269 N 0.39969 0.27789 0.9323 0.0
H270 H 0.39737 0.25327 0.87803 0.0
H271 H 0.3969 0.30313 0.78892 0.0
C272 C 0.40845 0.30032 0.65029 0.0
O273 O 0.39277 0.30657 0.64484 0.0
N274 N 0.3894 0.25921 0.60644 0.0
C275 C 0.38281 0.24363 0.58952 0.0
C276 C 0.38216 0.2419 0.51337 0.0
C277 C 0.39291 0.26668 0.5401 0.0
N278 N 0.38853 0.25636 0.48235 0.0
C279 C 0.40922 0.23543 0.75408 0.0
C280 C 0.43856 0.23888 0.66795 0.0
C281 C 0.43629 0.22372 0.70886 0.0
C282 C 0.42135 0.22205 0.75248 0.0
C283 C 0.42618 0.25178 0.67073 0.0
N284 N 0.41184 0.25024 0.7146 0.0
H285 H 0.39741 0.23356 0.78481 0.0
H286 H 0.42789 0.26249 0.63345 0.0
H287 H 0.37903 0.234 0.62982 0.0
H288 H 0.39852 0.27932 0.5338 0.0
O289 O 0.37408 0.25406 0.74143 0.0
O290 O 0.3728 0.28116 0.7035 0.0
O291 O 0.41079 0.28482 0.67094 0.0
C292 C 0.3648 0.26768 0.72871 0.0
H293 H 0.39961 0.3058 0.93356 0.0
H294 H 0.37777 0.23067 0.48312 0.0
H295 H 0.44945 0.24046 0.63077 0.0
H296 H 0.41892 0.21042 0.78403 0.0
Co297 Co 0.20841 0.73128 0.18457 0.0
C298 C 0.20562 0.731 0.35001 0.0
C299 C 0.2012 0.70608 0.30181 0.0
C300 C 0.19996 0.70467 0.37799 0.0
N301 N 0.20459 0.72259 0.28425 0.0
N302 N 0.20275 0.72031 0.40837 0.0
H303 H 0.20844 0.7446 0.3549 0.0
H304 H 0.2001 0.69568 0.26211 0.0
C305 C 0.17712 0.71556 0.11037 0.0
O306 O 0.17316 0.73043 0.07989 0.0
N307 N 0.21285 0.73963 0.08308 0.0
C308 C 0.22277 0.75328 0.06457 0.0
C309 C 0.22356 0.75477 0.98849 0.0
C310 C 0.2086 0.73244 0.01668 0.0
N311 N 0.21456 0.74173 0.95822 0.0
C312 C 0.19395 0.76539 0.18278 0.0
C313 C 0.16087 0.756 0.22254 0.0
C314 C 0.16376 0.77252 0.19356 0.0
C315 C 0.1807 0.77742 0.17729 0.0
C316 C 0.17458 0.74429 0.22652 0.0
N317 N 0.19054 0.74865 0.20014 0.0
H318 H 0.20688 0.76951 0.1711 0.0
H319 H 0.17206 0.73136 0.24592 0.0
H320 H 0.22952 0.76151 0.10333 0.0
H321 H 0.20157 0.72054 1.01065 0.0
O322 O 0.22815 0.74397 0.22042 0.0
O323 O 0.22887 0.71722 0.17719 0.0
O324 O 0.19102 0.71388 0.14782 0.0
C325 C 0.2372 0.73032 0.2047 0.0
H326 H 0.19774 0.69289 0.40875 0.0
H327 H 0.23066 0.76444 0.95778 0.0
H328 H 0.14803 0.75186 0.23788 0.0
H329 H 0.18362 0.79037 0.1587 0.0
Co330 Co 0.20692 0.26628 0.82327 0.0
C331 C 0.20312 0.26591 0.65801 0.0
C332 C 0.20026 0.29117 0.70515 0.0
C333 C 0.19883 0.29246 0.62909 0.0
N334 N 0.20274 0.27455 0.72337 0.0
N335 N 0.20065 0.27662 0.59936 0.0
H336 H 0.20536 0.2522 0.65355 0.0
H337 H 0.20016 0.30174 0.74434 0.0
C338 C 0.17618 0.28256 0.9006 0.0
O339 O 0.17269 0.26814 0.93581 0.0
N340 N 0.21179 0.25833 0.92503 0.0
C341 C 0.2215 0.2445 0.94331 0.0
C342 C 0.22242 0.24307 0.01931 0.0
C343 C 0.2079 0.26571 0.9915 0.0
N344 N 0.21374 0.2563 0.04978 0.0
C345 C 0.1927 0.2321 0.82735 0.0
C346 C 0.15917 0.24138 0.79511 0.0
C347 C 0.16246 0.22487 0.82337 0.0
C348 C 0.17958 0.22002 0.8358 0.0
C349 C 0.17276 0.25314 0.78815 0.0
N350 N 0.18901 0.24884 0.81095 0.0
H351 H 0.20576 0.22803 0.83602 0.0
H352 H 0.16999 0.26603 0.76889 0.0
H353 H 0.22796 0.23606 0.90448 0.0
H354 H 0.20113 0.27775 0.99773 0.0
O355 O 0.22652 0.25336 0.78757 0.0
O356 O 0.22737 0.28044 0.82725 0.0
O357 O 0.18955 0.28382 0.85934 0.0
C358 C 0.23557 0.26712 0.80097 0.0
H359 H 0.19732 0.30429 0.59783 0.0
H360 H 0.22931 0.23321 0.04982 0.0
H361 H 0.14615 0.24546 0.78251 0.0
H362 H 0.18277 0.20708 0.85366 0.0
Co363 Co 0.39355 0.72734 0.33458 0.0
C364 C 0.3935 0.72422 0.16727 0.0
C365 C 0.4186 0.72093 0.21511 0.0
C366 C 0.41991 0.71893 0.13915 0.0
N367 N 0.40202 0.72408 0.23316 0.0
N368 N 0.40415 0.72101 0.10911 0.0
H369 H 0.37982 0.72642 0.16146 0.0
H370 H 0.42908 0.72017 0.25463 0.0
C371 C 0.40924 0.69332 0.34418 0.0
O372 O 0.39638 0.68842 0.30168 0.0
N373 N 0.3854 0.73079 0.4363 0.0
C374 C 0.37495 0.74366 0.45903 0.0
C375 C 0.37271 0.74256 0.5348 0.0
C376 C 0.38959 0.72216 0.49938 0.0
N377 N 0.38196 0.72913 0.56024 0.0
C378 C 0.41179 0.75888 0.30732 0.0
C379 C 0.43506 0.75504 0.42299 0.0
C380 C 0.43611 0.76977 0.37808 0.0
C381 C 0.42422 0.77164 0.31958 0.0
C382 C 0.42252 0.74265 0.40883 0.0
N383 N 0.41114 0.74461 0.35148 0.0
H384 H 0.40269 0.76036 0.26217 0.0
H385 H 0.42188 0.73157 0.44492 0.0
H386 H 0.36966 0.75359 0.42363 0.0
H387 H 0.39827 0.71128 0.50125 0.0
O388 O 0.37492 0.74174 0.29815 0.0
O389 O 0.37338 0.71354 0.3143 0.0
O390 O 0.40983 0.7088 0.36766 0.0
C391 C 0.36565 0.72778 0.29614 0.0
H392 H 0.43164 0.71647 0.10823 0.0
H393 H 0.36546 0.75146 0.56913 0.0
H394 H 0.44367 0.7532 0.46977 0.0
H395 H 0.42461 0.78274 0.28316 0.0
Co396 Co 0.56768 0.09126 0.5622 0.0
C397 C 0.56697 0.09561 0.39686 0.0
C398 C 0.59212 0.09973 0.44311 0.0
C399 C 0.59329 0.10086 0.36699 0.0
N400 N 0.57565 0.09651 0.4622 0.0
N401 N 0.57754 0.09814 0.33758 0.0
H402 H 0.55345 0.09237 0.39275 0.0
H403 H 0.60282 0.10048 0.48124 0.0
C404 C 0.59911 0.10694 0.62574 0.0
O405 O 0.60512 0.09124 0.63339 0.0
N406 N 0.5598 0.08593 0.66323 0.0
C407 C 0.54834 0.07364 0.68261 0.0
C408 C 0.54609 0.07385 0.75856 0.0
C409 C 0.56428 0.09349 0.7285 0.0
N410 N 0.55611 0.08631 0.78765 0.0
C411 C 0.53292 0.10292 0.56225 0.0
C412 C 0.54022 0.13772 0.55614 0.0
C413 C 0.52325 0.13248 0.57137 0.0
C414 C 0.51959 0.1148 0.57124 0.0
C415 C 0.55315 0.12538 0.54666 0.0
N416 N 0.54953 0.10827 0.5538 0.0
H417 H 0.52998 0.08936 0.56546 0.0
H418 H 0.56617 0.12968 0.53636 0.0
H419 H 0.54194 0.06496 0.6446 0.0
H420 H 0.57316 0.10413 0.73298 0.0
O421 O 0.55565 0.0714 0.52342 0.0
O422 O 0.58255 0.07122 0.56395 0.0
O423 O 0.58381 0.10928 0.60207 0.0
C424 C 0.56964 0.0627 0.53627 0.0
H425 H 0.60498 0.10318 0.33565 0.0
H426 H 0.53797 0.06515 0.79 0.0
H427 H 0.54371 0.15121 0.55502 0.0
H428 H 0.50662 0.11011 0.58005 0.0
Co429 Co 0.03165 0.90531 0.0753 0.0
C430 C 0.03161 0.90195 0.90997 0.0
C431 C 0.00643 0.89893 0.9579 0.0
C432 C 0.00501 0.89767 0.88177 0.0
N433 N 0.02308 0.90142 0.97562 0.0
N434 N 0.02081 0.89959 0.85155 0.0
H435 H 0.04532 0.90418 0.90517 0.0
H436 H 0.99593 0.89864 0.99751 0.0
C437 C 0.01585 0.87439 0.1524 0.0
O438 O 0.03041 0.87105 0.18681 0.0
N439 N 0.0399 0.90987 0.17683 0.0
C440 C 0.05387 0.91938 0.19509 0.0
C441 C 0.0553 0.92029 0.27114 0.0
C442 C 0.03245 0.90612 0.2433 0.0
N443 N 0.04192 0.91184 0.30163 0.0
C444 C 0.06593 0.8912 0.0754 0.0
C445 C 0.05662 0.85774 0.04235 0.0
C446 C 0.07328 0.86102 0.06897 0.0
C447 C 0.07812 0.87812 0.08184 0.0
C448 C 0.04475 0.8713 0.03734 0.0
N449 N 0.04911 0.8875 0.06052 0.0
H450 H 0.07 0.90425 0.08425 0.0
H451 H 0.03177 0.86854 0.01916 0.0
H452 H 0.06232 0.92581 0.15623 0.0
H453 H 0.02028 0.89957 0.24943 0.0
O454 O 0.04431 0.92505 0.03954 0.0
O455 O 0.01747 0.92571 0.08201 0.0
O456 O 0.01433 0.88778 0.11151 0.0
C457 C 0.0306 0.93405 0.05466 0.0
H458 H 0.99314 0.89615 0.85088 0.0
H459 H 0.06521 0.9271 0.30165 0.0
H460 H 0.05252 0.84476 0.02942 0.0
H461 H 0.09115 0.88131 0.09839 0.0
Co462 Co 0.56761 0.90438 0.47115 0.0
C463 C 0.56839 0.90144 0.6367 0.0
C464 C 0.5935 0.89972 0.58698 0.0
C465 C 0.59528 0.89884 0.66304 0.0
N466 N 0.57668 0.90124 0.57047 0.0
N467 N 0.57951 0.89991 0.69463 0.0
H468 H 0.55457 0.90282 0.64205 0.0
H469 H 0.60383 0.89975 0.54647 0.0
C470 C 0.58301 0.87321 0.3945 0.0
O471 O 0.56836 0.86999 0.36057 0.0
N472 N 0.55891 0.90812 0.3699 0.0
C473 C 0.5447 0.91721 0.35111 0.0
C474 C 0.54378 0.91866 0.27499 0.0
C475 C 0.56685 0.90495 0.30393 0.0
N476 N 0.55766 0.91088 0.24523 0.0
C477 C 0.53315 0.89097 0.48196 0.0
C478 C 0.54236 0.85743 0.51361 0.0
C479 C 0.52518 0.86102 0.49492 0.0
C480 C 0.52051 0.87821 0.48249 0.0
C481 C 0.55457 0.87067 0.51292 0.0
N482 N 0.55012 0.8869 0.49063 0.0
H483 H 0.52925 0.90408 0.47315 0.0
H484 H 0.56775 0.86769 0.52729 0.0
H485 H 0.5359 0.92326 0.38961 0.0
H486 H 0.57945 0.89917 0.2986 0.0
O487 O 0.55531 0.92455 0.5048 0.0
O488 O 0.58193 0.92453 0.45962 0.0
O489 O 0.58465 0.88649 0.4359 0.0
C490 C 0.56903 0.93325 0.48672 0.0
H491 H 0.60739 0.89813 0.69263 0.0
H492 H 0.53373 0.92512 0.24397 0.0
H493 H 0.54641 0.84445 0.52709 0.0
H494 H 0.50732 0.88173 0.47001 0.0
Co495 Co 0.03211 0.09188 0.96333 0.0
C496 C 0.03213 0.09527 0.12865 0.0
C497 C 0.00699 0.09866 0.08099 0.0
C498 C 0.00559 0.09992 0.15714 0.0
N499 N 0.02361 0.09594 0.06308 0.0
N500 N 0.02137 0.09776 0.1872 0.0
H501 H 0.04581 0.09282 0.1333 0.0
H502 H 0.99648 0.09909 0.04151 0.0
C503 C 0.01658 0.12285 0.8858 0.0
O504 O 0.03119 0.12597 0.85128 0.0
N505 N 0.04029 0.08713 0.86176 0.0
C506 C 0.05415 0.07745 0.84352 0.0
C507 C 0.05557 0.07644 0.76747 0.0
C508 C 0.03287 0.09089 0.79529 0.0
N509 N 0.04227 0.08502 0.73696 0.0
C510 C 0.06645 0.10583 0.96162 0.0
C511 C 0.05726 0.13935 0.99429 0.0
C512 C 0.07381 0.13601 0.96642 0.0
C513 C 0.07862 0.11889 0.95387 0.0
C514 C 0.04542 0.12582 1.00058 0.0
N515 N 0.04968 0.10958 0.97743 0.0
H516 H 0.07047 0.09276 0.9528 0.0
H517 H 0.03248 0.12863 0.01939 0.0
H518 H 0.06255 0.07097 0.88241 0.0
H519 H 0.02076 0.09757 0.78916 0.0
O520 O 0.04466 0.07209 0.99933 0.0
O521 O 0.0178 0.07157 0.95731 0.0
O522 O 0.0149 0.10952 0.92695 0.0
C523 C 0.03088 0.06317 0.98461 0.0
H524 H 0.99374 0.10158 0.18817 0.0
H525 H 0.06541 0.06951 0.73697 0.0
H526 H 0.0532 0.15237 1.00698 0.0
H527 H 0.09159 0.11566 0.93632 0.0
H528 H 0.05701 0.57874 0.79957 0.0
H529 H 0.09483 0.6182 0.75647 0.0
H530 H 0.05216 0.57564 0.66582 0.0
H531 H 0.08987 0.61535 0.62301 0.0
H532 H 0.09082 0.59176 0.38836 0.0
H533 H 0.09515 0.59577 0.52211 0.0
H534 H 0.04045 0.58971 0.55867 0.0
H535 H 0.03625 0.5855 0.42567 0.0
C536 C 0.06408 0.58694 0.76159 0.0
C537 C 0.07636 0.59864 0.78865 0.0
C538 C 0.06133 0.58518 0.68483 0.0
C539 C 0.07072 0.59517 0.63334 0.0
C540 C 0.08268 0.60717 0.66074 0.0
C541 C 0.08549 0.60886 0.73734 0.0
C542 C 0.07974 0.5914 0.42497 0.0
C543 C 0.06323 0.58815 0.39633 0.0
C544 C 0.08219 0.59373 0.5017 0.0
C545 C 0.06815 0.59298 0.55148 0.0
C546 C 0.05161 0.59 0.52243 0.0
C547 C 0.0492 0.5876 0.44599 0.0
H548 H 0.71506 0.7498 0.02953 0.0
H549 H 0.68672 0.79655 0.98517 0.0
H550 H 0.71772 0.74474 0.89595 0.0
H551 H 0.69028 0.79209 0.85242 0.0
H552 H 0.68671 0.77189 0.61466 0.0
H553 H 0.68203 0.7756 0.7483 0.0
H554 H 0.73302 0.75554 0.79146 0.0
H555 H 0.73738 0.75145 0.65822 0.0
C556 C 0.70933 0.75897 0.99156 0.0
C557 C 0.70084 0.77369 0.01861 0.0
C558 C 0.71106 0.7562 0.91472 0.0
C559 C 0.7044 0.76811 0.86297 0.0
C560 C 0.69549 0.78255 0.89019 0.0
C561 C 0.69365 0.78524 0.96677 0.0
C562 C 0.69695 0.76846 0.65283 0.0
C563 C 0.71239 0.76136 0.62596 0.0
C564 C 0.69429 0.77055 0.72952 0.0
C565 C 0.7071 0.76577 0.78115 0.0
C566 C 0.72268 0.75898 0.75382 0.0
C567 C 0.72525 0.75674 0.6773 0.0
H568 H 0.50821 0.37981 0.24845 0.0
H569 H 0.54841 0.41676 0.29265 0.0
H570 H 0.51338 0.38256 0.11507 0.0
H571 H 0.55347 0.41978 0.15894 0.0
H572 H 0.56859 0.40961 0.91758 0.0
H573 H 0.56423 0.4055 0.05062 0.0
H574 H 0.50926 0.40248 1.01501 0.0
H575 H 0.51373 0.40636 0.88132 0.0
C576 C 0.51814 0.38857 0.22957 0.0
C577 C 0.52785 0.39812 0.28119 0.0
C578 C 0.52106 0.39021 0.153 0.0
C579 C 0.53374 0.40151 0.12586 0.0
C580 C 0.54373 0.4108 0.17766 0.0
C581 C 0.54086 0.40907 0.25443 0.0
C582 C 0.55555 0.4082 0.93813 0.0
C583 C 0.54149 0.40844 0.8887 0.0
C584 C 0.55305 0.40585 1.01461 0.0
C585 C 0.53639 0.40372 0.04397 0.0
C586 C 0.52231 0.40382 0.99442 0.0
C587 C 0.52484 0.40609 0.91768 0.0
H588 H 0.91833 0.20498 0.48976 0.0
H589 H 0.88243 0.24621 0.53304 0.0
H590 H 0.91583 0.2101 0.35626 0.0
H591 H 0.87964 0.25122 0.3993 0.0
H592 H 0.8905 0.26612 0.15888 0.0
H593 H 0.8944 0.26158 0.29183 0.0
H594 H 0.89603 0.20661 0.25531 0.0
H595 H 0.89238 0.21127 0.12155 0.0
C596 C 0.90984 0.21511 0.47065 0.0
C597 C 0.90053 0.22515 0.52203 0.0
C598 C 0.90835 0.21801 0.39402 0.0
C599 C 0.89743 0.23098 0.36663 0.0
C600 C 0.88835 0.24125 0.41821 0.0
C601 C 0.88993 0.2384 0.495 0.0
C602 C 0.89156 0.25305 0.17921 0.0
C603 C 0.89098 0.23904 0.12955 0.0
C604 C 0.89378 0.25044 0.25564 0.0
C605 C 0.89543 0.23372 0.28473 0.0
C606 C 0.89504 0.21969 0.23492 0.0
C607 C 0.89291 0.22233 0.15818 0.0
H608 H 0.09629 0.38282 0.29491 0.0
H609 H 0.05561 0.41937 0.25229 0.0
H610 H 0.09128 0.38543 0.4285 0.0
H611 H 0.05071 0.42227 0.38612 0.0
H612 H 0.03583 0.41171 0.62678 0.0
H613 H 0.04019 0.40763 0.49379 0.0
H614 H 0.09521 0.40532 0.52908 0.0
H615 H 0.09072 0.40915 0.66292 0.0
C616 C 0.08629 0.39147 0.3142 0.0
C617 C 0.07639 0.40094 0.26301 0.0
C618 C 0.08346 0.39302 0.39086 0.0
C619 C 0.07069 0.40416 0.41842 0.0
C620 C 0.06053 0.41339 0.36703 0.0
C621 C 0.06331 0.41174 0.29021 0.0
C622 C 0.04887 0.41046 0.60616 0.0
C623 C 0.06294 0.41091 0.65548 0.0
C624 C 0.05138 0.40814 0.52973 0.0
C625 C 0.06806 0.40625 0.50032 0.0
C626 C 0.08216 0.4065 0.54977 0.0
C627 C 0.07962 0.40873 0.62653 0.0
H628 H 0.91604 0.79386 0.5437 0.0
H629 H 0.88062 0.75219 0.50165 0.0
H630 H 0.91378 0.78872 0.67728 0.0
H631 H 0.87808 0.74715 0.63549 0.0
H632 H 0.88956 0.73237 0.87529 0.0
H633 H 0.8933 0.73698 0.74227 0.0
H634 H 0.89393 0.79197 0.77872 0.0
H635 H 0.89043 0.78725 0.91258 0.0
C636 C 0.90771 0.78363 0.5631 0.0
C637 C 0.89846 0.77347 0.51206 0.0
C638 C 0.90635 0.78072 0.63976 0.0
C639 C 0.89565 0.76761 0.66748 0.0
C640 C 0.88663 0.75723 0.61625 0.0
C641 C 0.88807 0.76009 0.53943 0.0
C642 C 0.89037 0.74546 0.85492 0.0
C643 C 0.88954 0.75946 0.90455 0.0
C644 C 0.8925 0.74811 0.77848 0.0
C645 C 0.8938 0.76485 0.74939 0.0
C646 C 0.89319 0.77888 0.79916 0.0
C647 C 0.89115 0.77621 0.87593 0.0
H648 H 0.54787 0.57607 0.72718 0.0
H649 H 0.50576 0.61094 0.7709 0.0
H650 H 0.55321 0.57366 0.86079 0.0
H651 H 0.51117 0.60875 0.90422 0.0
H652 H 0.51365 0.58601 0.14006 0.0
H653 H 0.50854 0.58906 1.00641 0.0
H654 H 0.56346 0.58909 0.96704 0.0
H655 H 0.56849 0.58584 0.10002 0.0
C656 C 0.53991 0.58341 0.76522 0.0
C657 C 0.52634 0.59363 0.73825 0.0
C658 C 0.54295 0.58204 0.84196 0.0
C659 C 0.53256 0.59094 0.89366 0.0
C660 C 0.51921 0.60142 0.8664 0.0
C661 C 0.51613 0.60272 0.7898 0.0
C662 C 0.52461 0.58679 0.10289 0.0
C663 C 0.54147 0.58554 0.13085 0.0
C664 C 0.52171 0.58856 0.02616 0.0
C665 C 0.53559 0.58925 0.97556 0.0
C666 C 0.55244 0.58824 1.00388 0.0
C667 C 0.55533 0.58639 0.08035 0.0
H668 H 0.71358 0.26225 0.35744 0.0
H669 H 0.71164 0.20738 0.39416 0.0
H670 H 0.70964 0.25777 0.22441 0.0
H671 H 0.70796 0.20278 0.26043 0.0
H672 H 0.68573 0.20108 0.02635 0.0
H673 H 0.68815 0.2063 0.1598 0.0
H674 H 0.7243 0.24743 0.11658 0.0
H675 H 0.72156 0.24232 0.98283 0.0
C676 C 0.71249 0.24919 0.33696 0.0
C677 C 0.71305 0.23516 0.38648 0.0
C678 C 0.71025 0.24661 0.2605 0.0
C679 C 0.70857 0.22991 0.23126 0.0
C680 C 0.70897 0.21585 0.28093 0.0
C681 C 0.71111 0.21846 0.35767 0.0
C682 C 0.69418 0.21124 0.04542 0.0
C683 C 0.7035 0.22124 0.994 0.0
C684 C 0.69564 0.2142 0.12202 0.0
C685 C 0.70654 0.22719 0.14935 0.0
C686 C 0.71561 0.23744 0.09771 0.0
C687 C 0.71405 0.23454 0.02093 0.0
H688 H 0.36762 0.2457 0.37154 0.0
H689 H 0.41431 0.274 0.41512 0.0
H690 H 0.37136 0.25022 0.23827 0.0
H691 H 0.41855 0.27807 0.28139 0.0
H692 H 0.41073 0.29829 0.04563 0.0
H693 H 0.40814 0.29302 0.17792 0.0
H694 H 0.38752 0.24241 0.13259 0.0
H695 H 0.38897 0.24821 0.99943 0.0
C696 C 0.37879 0.25277 0.35236 0.0
C697 C 0.39065 0.25954 0.40371 0.0
C698 C 0.38103 0.25526 0.27582 0.0
C699 C 0.39533 0.26443 0.24843 0.0
C700 C 0.40723 0.27118 0.30011 0.0
C701 C 0.40483 0.26887 0.37686 0.0
C702 C 0.40545 0.28608 0.06342 0.0
C703 C 0.39976 0.27383 1.01107 0.0
C704 C 0.40422 0.28294 0.13987 0.0
C705 C 0.39751 0.26732 0.1666 0.0
C706 C 0.39243 0.25475 0.11434 0.0
C707 C 0.39349 0.25799 0.0376 0.0
H708 H 0.18501 0.70457 0.51889 0.0
H709 H 0.22209 0.74477 0.47652 0.0
H710 H 0.18724 0.70984 0.65235 0.0
H711 H 0.22458 0.74994 0.61025 0.0
H712 H 0.21313 0.7657 0.84924 0.0
H713 H 0.20956 0.76094 0.7162 0.0
H714 H 0.20665 0.70611 0.75478 0.0
H715 H 0.20998 0.71098 0.88853 0.0
C716 C 0.19372 0.71449 0.53816 0.0
C717 C 0.20342 0.72421 0.487 0.0
C718 C 0.19505 0.71748 0.61479 0.0
C719 C 0.20618 0.73024 0.64243 0.0
C720 C 0.21569 0.74016 0.5911 0.0
C721 C 0.21428 0.73722 0.51432 0.0
C722 C 0.21184 0.75262 0.82935 0.0
C723 C 0.21197 0.73871 0.87958 0.0
C724 C 0.20982 0.74988 0.75288 0.0
C725 C 0.20793 0.73313 0.72435 0.0
C726 C 0.20785 0.71921 0.77472 0.0
C727 C 0.20978 0.72197 0.85147 0.0
H728 H 0.18335 0.29278 0.48907 0.0
H729 H 0.21936 0.25162 0.53148 0.0
H730 H 0.18584 0.28774 0.35547 0.0
H731 H 0.22215 0.24669 0.39763 0.0
H732 H 0.21138 0.23202 0.15706 0.0
H733 H 0.20734 0.2364 0.29004 0.0
H734 H 0.2058 0.29142 0.25483 0.0
H735 H 0.2096 0.28692 0.12098 0.0
C736 C 0.19185 0.28267 0.46973 0.0
C737 C 0.20121 0.27264 0.52086 0.0
C738 C 0.19334 0.27982 0.39307 0.0
C739 C 0.20431 0.2669 0.36545 0.0
C740 C 0.21341 0.25662 0.41678 0.0
C741 C 0.21182 0.25941 0.4936 0.0
C742 C 0.21031 0.24506 0.17769 0.0
C743 C 0.21097 0.25913 0.1284 0.0
C744 C 0.208 0.24759 0.25412 0.0
C745 C 0.20635 0.26427 0.28355 0.0
C746 C 0.20681 0.27837 0.23412 0.0
C747 C 0.20902 0.27582 0.15736 0.0
H748 H 0.3579 0.72964 0.66843 0.0
H749 H 0.41161 0.71934 0.62733 0.0
H750 H 0.3624 0.72579 0.80182 0.0
H751 H 0.41649 0.71619 0.76115 0.0
H752 H 0.41866 0.70065 1.00408 0.0
H753 H 0.41255 0.70035 0.87082 0.0
H754 H 0.37436 0.74022 0.9032 0.0
H755 H 0.38013 0.73993 0.03669 0.0
C756 C 0.37069 0.72649 0.68825 0.0
C757 C 0.38441 0.72482 0.63766 0.0
C758 C 0.37334 0.72443 0.7648 0.0
C759 C 0.38988 0.72092 0.79309 0.0
C760 C 0.40352 0.71868 0.7419 0.0
C761 C 0.40077 0.72049 0.66504 0.0
C762 C 0.40893 0.7093 0.98252 0.0
C763 C 0.3999 0.72034 0.03084 0.0
C764 C 0.40546 0.7092 0.90596 0.0
C765 C 0.39299 0.72031 0.87544 0.0
C766 C 0.38382 0.73122 0.92428 0.0
C767 C 0.38714 0.73113 1.00101 0.0
H768 H 0.58402 0.10054 0.85532 0.0
H769 H 0.53298 0.08087 0.89893 0.0
H770 H 0.58838 0.10477 0.98862 0.0
H771 H 0.53759 0.08441 0.03224 0.0
H772 H 0.54714 0.10543 0.26889 0.0
H773 H 0.54121 0.10436 0.13471 0.0
H774 H 0.59316 0.08663 0.09478 0.0
H775 H 0.599 0.08782 0.22736 0.0
C776 C 0.57367 0.09725 0.89311 0.0
C777 C 0.55822 0.09018 0.86606 0.0
C778 C 0.57623 0.09948 0.96982 0.0
C779 C 0.56342 0.09472 0.02158 0.0
C780 C 0.54772 0.08828 0.99429 0.0
C781 C 0.54516 0.08605 0.91764 0.0
C782 C 0.55722 0.10124 0.2313 0.0
C783 C 0.57359 0.09692 0.25897 0.0
C784 C 0.55385 0.10064 0.15439 0.0
C785 C 0.56678 0.09563 0.10353 0.0
C786 C 0.58303 0.09103 0.13171 0.0
C787 C 0.58637 0.09167 0.20811 0.0
H788 H 0.00437 0.88262 0.74091 0.0
H789 H 0.04598 0.91807 0.78363 0.0
H790 H 0.00954 0.88499 0.60737 0.0
H791 H 0.05106 0.92072 0.64986 0.0
H792 H 0.066 0.90945 0.40981 0.0
H793 H 0.06133 0.90572 0.5428 0.0
H794 H 0.00632 0.90474 0.50596 0.0
H795 H 0.01111 0.90821 0.37216 0.0
C796 C 0.01459 0.89099 0.72168 0.0
C797 C 0.02473 0.9002 0.77293 0.0
C798 C 0.01752 0.89241 0.64502 0.0
C799 C 0.03064 0.90315 0.61747 0.0
C800 C 0.04098 0.91215 0.66891 0.0
C801 C 0.0381 0.91064 0.74572 0.0
C802 C 0.05289 0.90857 0.43008 0.0
C803 C 0.03892 0.90928 0.38031 0.0
C804 C 0.05021 0.90644 0.50652 0.0
C805 C 0.03345 0.90503 0.53554 0.0
C806 C 0.01944 0.90555 0.48563 0.0
C807 C 0.02215 0.90758 0.40887 0.0
H808 H 0.54979 0.93353 0.13589 0.0
H809 H 0.57414 0.88451 0.17677 0.0
H810 H 0.55474 0.93019 1.00271 0.0
H811 H 0.57877 0.88084 0.04298 0.0
H812 H 0.59971 0.88805 0.80716 0.0
H813 H 0.59482 0.89088 0.93999 0.0
H814 H 0.54547 0.91457 0.89664 0.0
H815 H 0.55085 0.91268 0.76321 0.0
C816 C 0.55611 0.92196 0.11624 0.0
C817 C 0.56154 0.90927 0.16686 0.0
C818 C 0.55887 0.91998 0.03971 0.0
C819 C 0.56702 0.90516 1.01153 0.0
C820 C 0.57264 0.89253 0.06244 0.0
C821 C 0.57001 0.89461 0.13921 0.0
C822 C 0.58787 0.89403 0.82557 0.0
C823 C 0.5758 0.90035 0.77375 0.0
C824 C 0.58495 0.89543 0.90222 0.0
C825 C 0.56978 0.90305 0.92958 0.0
C826 C 0.55746 0.90892 0.87785 0.0
C827 C 0.56044 0.90762 0.801 0.0
H828 H 0.00516 0.11489 0.29818 0.0
H829 H 0.04628 0.07886 0.25469 0.0
H830 H 0.0103 0.11235 0.43165 0.0
H831 H 0.0513 0.07604 0.3884 0.0
H832 H 0.06639 0.08701 0.62854 0.0
H833 H 0.06177 0.09081 0.4956 0.0
H834 H 0.00679 0.0926 0.53285 0.0
H835 H 0.01152 0.08904 0.6666 0.0
C836 C 0.01527 0.10636 0.31723 0.0
C837 C 0.02528 0.09703 0.26578 0.0
C838 C 0.01817 0.10484 0.39385 0.0
C839 C 0.03113 0.09389 0.42117 0.0
C840 C 0.04135 0.08477 0.36954 0.0
C841 C 0.0385 0.08638 0.29276 0.0
C842 C 0.0533 0.08808 0.60838 0.0
C843 C 0.03931 0.08758 0.65827 0.0
C844 C 0.05064 0.09025 0.53195 0.0
C845 C 0.03391 0.09191 0.50307 0.0
C846 C 0.01989 0.09158 0.55307 0.0
C847 C 0.02257 0.08951 0.62982 0.0
H848 H 0.04485 0.54179 0.08088 0.0
H849 H 0.09878 0.54414 0.02431 0.0
H850 H 0.04511 0.5108 0.06421 0.0
H851 H 0.09892 0.51322 1.00096 0.0
H852 H 0.09852 0.45506 0.02482 0.0
H853 H 0.09882 0.486 0.04743 0.0
H854 H 0.04512 0.4887 0.98301 0.0
H855 H 0.0447 0.45768 0.96707 0.0
C856 C 0.05672 0.53563 0.06353 0.0
C857 C 0.07178 0.54531 0.05377 0.0
C858 C 0.05688 0.5178 0.05319 0.0
C859 C 0.07201 0.50922 0.03034 0.0
C860 C 0.08707 0.5191 0.01994 0.0
C861 C 0.08701 0.5369 0.03263 0.0
C862 C 0.08681 0.46237 0.01604 0.0
C863 C 0.07157 0.45403 0.99486 0.0
C864 C 0.08696 0.48018 0.0283 0.0
C865 C 0.07197 0.49014 0.01743 0.0
C866 C 0.05683 0.48164 0.9944 0.0
C867 C 0.05658 0.4638 0.98449 0.0
H868 H 0.84228 0.7411 0.21219 0.0
H869 H 0.84437 0.79497 0.26911 0.0
H870 H 0.81114 0.74146 0.22457 0.0
H871 H 0.81328 0.79522 0.28821 0.0
H872 H 0.75534 0.79514 0.25797 0.0
H873 H 0.78642 0.79524 0.23816 0.0
H874 H 0.78846 0.74155 0.30294 0.0
H875 H 0.75735 0.74133 0.31603 0.0
C876 C 0.83601 0.75297 0.2287 0.0
C877 C 0.84566 0.76799 0.23982 0.0
C878 C 0.8181 0.75319 0.23654 0.0
C879 C 0.80941 0.76834 0.2582 0.0
C880 C 0.81926 0.78336 0.26999 0.0
C881 C 0.83715 0.78323 0.25978 0.0
C882 C 0.76254 0.78338 0.26736 0.0
C883 C 0.75401 0.7682 0.28789 0.0
C884 C 0.78042 0.78342 0.25673 0.0
C885 C 0.79024 0.76838 0.26869 0.0
C886 C 0.78152 0.7533 0.29082 0.0
C887 C 0.76363 0.75316 0.29908 0.0
H888 H 0.50854 0.53726 0.42825 0.0
H889 H 0.56024 0.54111 0.51556 0.0
H890 H 0.50886 0.5063 0.45014 0.0
H891 H 0.56045 0.51015 0.53887 0.0
H892 H 0.50825 0.45549 0.5784 0.0
H893 H 0.50846 0.48631 0.55385 0.0
H894 H 0.56083 0.48256 0.47357 0.0
H895 H 0.56071 0.45168 0.4996 0.0
C896 C 0.51996 0.5315 0.45235 0.0
C897 C 0.53435 0.54163 0.4703 0.0
C898 C 0.52011 0.51376 0.46526 0.0
C899 C 0.53466 0.50574 0.49646 0.0
C900 C 0.54911 0.51588 0.51397 0.0
C901 C 0.54895 0.53364 0.50106 0.0
C902 C 0.51981 0.46123 0.55545 0.0
C903 C 0.53447 0.45115 0.54092 0.0
C904 C 0.5199 0.47889 0.54096 0.0
C905 C 0.53464 0.48691 0.51156 0.0
C906 C 0.54932 0.47682 0.497 0.0
C907 C 0.54923 0.45911 0.51149 0.0
H908 H 0.84438 0.20393 0.82992 0.0
H909 H 0.8459 0.25606 0.74641 0.0
H910 H 0.81328 0.20317 0.81052 0.0
H911 H 0.81488 0.2552 0.72559 0.0
H912 H 0.76102 0.20198 0.69067 0.0
H913 H 0.79207 0.20261 0.71126 0.0
H914 H 0.78801 0.25466 0.79444 0.0
H915 H 0.75701 0.25413 0.77241 0.0
C916 C 0.83809 0.2152 0.80708 0.0
C917 C 0.8476 0.23005 0.78975 0.0
C918 C 0.82026 0.21474 0.79559 0.0
C919 C 0.81155 0.22913 0.76655 0.0
C920 C 0.82112 0.24397 0.74905 0.0
C921 C 0.83893 0.24442 0.76052 0.0
C922 C 0.76675 0.21355 0.71344 0.0
C923 C 0.75656 0.22802 0.7298 0.0
C924 C 0.78455 0.21388 0.72563 0.0
C925 C 0.79257 0.22869 0.75445 0.0
C926 C 0.78231 0.24312 0.77119 0.0
C927 C 0.76452 0.24279 0.75901 0.0
H928 H 0.25775 0.2404 0.81697 0.0
H929 H 0.25568 0.29428 0.76023 0.0
H930 H 0.28888 0.24066 0.80334 0.0
H931 H 0.28671 0.29443 0.73996 0.0
H932 H 0.34447 0.29456 0.77055 0.0
H933 H 0.31345 0.29446 0.79065 0.0
H934 H 0.31169 0.2408 0.7253 0.0
H935 H 0.34285 0.24077 0.71181 0.0
C936 C 0.26402 0.25225 0.80023 0.0
C937 C 0.25438 0.26732 0.78966 0.0
C938 C 0.28191 0.25242 0.7917 0.0
C939 C 0.2906 0.26755 0.76999 0.0
C940 C 0.28075 0.28259 0.75837 0.0
C941 C 0.26289 0.28252 0.76925 0.0
C942 C 0.33736 0.28275 0.76109 0.0
C943 C 0.34599 0.26765 0.74017 0.0
C944 C 0.31951 0.28269 0.77184 0.0
C945 C 0.30977 0.26762 0.75961 0.0
C946 C 0.31858 0.25258 0.73741 0.0
C947 C 0.33648 0.25254 0.72899 0.0
H948 H 0.25973 0.70496 0.16415 0.0
H949 H 0.25736 0.75481 0.27024 0.0
H950 H 0.2909 0.7045 0.18087 0.0
H951 H 0.28844 0.75416 0.28905 0.0
H952 H 0.34633 0.75527 0.25032 0.0
H953 H 0.31545 0.75589 0.22462 0.0
H954 H 0.31216 0.70163 0.27604 0.0
H955 H 0.34303 0.70095 0.29943 0.0
C956 C 0.26586 0.71577 0.19148 0.0
C957 C 0.25608 0.72991 0.21596 0.0
C958 C 0.28373 0.71549 0.20138 0.0
C959 C 0.29225 0.72929 0.23637 0.0
C960 C 0.2824 0.74343 0.26082 0.0
C961 C 0.26454 0.74375 0.25056 0.0
C962 C 0.33901 0.74346 0.25552 0.0
C963 C 0.34712 0.72807 0.27687 0.0
C964 C 0.32128 0.74383 0.24136 0.0
C965 C 0.31125 0.72882 0.24854 0.0
C966 C 0.31947 0.71339 0.26891 0.0
C967 C 0.33719 0.71301 0.28271 0.0
H968 H 0.54427 0.04203 0.48168 0.0
H969 H 0.59642 0.04078 0.56523 0.0
H970 H 0.54459 0.01083 0.46873 0.0
H971 H 0.59665 0.00944 0.55353 0.0
H972 H 0.54379 0.95449 0.53907 0.0
H973 H 0.5445 0.98575 0.54961 0.0
H974 H 0.5963 0.98619 0.46129 0.0
H975 H 0.5957 0.95482 0.452 0.0
C976 C 0.55583 0.03509 0.4971 0.0
C977 C 0.57031 0.04387 0.52455 0.0
C978 C 0.55597 0.01718 0.49021 0.0
C979 C 0.5706 0.00761 0.51065 0.0
C980 C 0.58523 0.01643 0.53672 0.0
C981 C 0.58508 0.03438 0.54367 0.0
C982 C 0.55536 0.96124 0.5221 0.0
C983 C 0.56968 0.95219 0.49463 0.0
C984 C 0.55572 0.97918 0.52765 0.0
C985 C 0.57042 0.98849 0.50584 0.0
C986 C 0.58483 0.9794 0.47915 0.0
C987 C 0.58446 0.96144 0.47352 0.0
H988 H 0.0562 0.95444 0.9995 0.0
H989 H 0.00409 0.95632 0.08376 0.0
H990 H 0.05587 0.98555 0.98246 0.0
H991 H 0.00386 0.98755 0.06802 0.0
H992 H 0.05639 0.04267 0.03973 0.0
H993 H 0.05593 0.01157 0.05696 0.0
H994 H 0.0039 0.00981 0.97201 0.0
H995 H 0.00426 0.04104 0.95609 0.0
C996 C 0.04467 0.9615 1.0145 0.0
C997 C 0.03017 0.95291 0.04305 0.0
C998 C 0.04452 0.97937 1.00519 0.0
C999 C 0.02987 0.98908 0.02423 0.0
C1000 C 0.0153 0.98045 0.05211 0.0
C1001 C 0.01545 0.96256 0.06147 0.0
C1002 C 0.04483 0.03566 0.02493 0.0
C1003 C 0.03037 0.04432 0.99647 0.0
C1004 C 0.0446 0.0178 0.03434 0.0
C1005 C 0.02991 0.00815 1.0155 0.0
C1006 C 0.01536 0.01685 0.98776 0.0
C1007 C 0.0156 0.03474 0.9783 0.0
H1008 H 0.1431 0.71675 0.07023 0.0
H1009 H 0.18211 0.68237 0.15602 0.0
H1010 H 0.12144 0.69428 0.08662 0.0
H1011 H 0.16043 0.66007 0.17341 0.0
H1012 H 0.11925 0.61906 0.12036 0.0
H1013 H 0.14137 0.64093 0.10296 0.0
H1014 H 0.10691 0.67952 0.19157 0.0
H1015 H 0.08461 0.65767 0.20792 0.0
C1016 C 0.1471 0.70435 0.09179 0.0
C1017 C 0.16435 0.70138 0.11184 0.0
C1018 C 0.13465 0.69154 0.10202 0.0
C1019 C 0.13917 0.67544 0.13204 0.0
C1020 C 0.15652 0.67229 0.14984 0.0
C1021 C 0.16894 0.68511 0.14002 0.0
C1022 C 0.11641 0.63218 0.13673 0.0
C1023 C 0.10012 0.63661 0.16538 0.0
C1024 C 0.12912 0.64471 0.12691 0.0
C1025 C 0.12585 0.662 0.14521 0.0
C1026 C 0.10973 0.66636 0.17576 0.0
C1027 C 0.09703 0.65379 0.18598 0.0
H1028 H 0.60761 0.86813 0.5001 0.0
H1029 H 0.58984 0.84896 0.28757 0.0
H1030 H 0.63004 0.84612 0.50245 0.0
H1031 H 0.61265 0.82705 0.2895 0.0
H1032 H 0.66965 0.80633 0.29256 0.0
H1033 H 0.64709 0.82822 0.29004 0.0
H1034 H 0.62967 0.81175 0.50708 0.0
H1035 H 0.65213 0.78951 0.50923 0.0
C1036 C 0.60861 0.85934 0.45345 0.0
C1037 C 0.59703 0.86033 0.39334 0.0
C1038 C 0.62136 0.84666 0.45524 0.0
C1039 C 0.62301 0.83492 0.3963 0.0
C1040 C 0.61163 0.83603 0.33553 0.0
C1041 C 0.59861 0.84851 0.33447 0.0
C1042 C 0.66113 0.80745 0.34009 0.0
C1043 C 0.66274 0.79629 0.40144 0.0
C1044 C 0.64812 0.81987 0.33821 0.0
C1045 C 0.63667 0.82161 0.39822 0.0
C1046 C 0.63841 0.81067 0.46019 0.0
C1047 C 0.65121 0.79797 0.4614 0.0
H1048 H 0.51004 0.34296 0.72602 0.0
H1049 H 0.48345 0.38344 0.60756 0.0
H1050 H 0.48392 0.32551 0.72295 0.0
H1051 H 0.45779 0.36577 0.60104 0.0
H1052 H 0.40928 0.33547 0.66048 0.0
H1053 H 0.43469 0.3538 0.66887 0.0
H1054 H 0.46735 0.30932 0.63655 0.0
H1055 H 0.44201 0.29101 0.63095 0.0
C1056 C 0.49864 0.34816 0.69946 0.0
C1057 C 0.49894 0.36454 0.66639 0.0
C1058 C 0.48371 0.33808 0.69691 0.0
C1059 C 0.46875 0.34411 0.66083 0.0
C1060 C 0.46895 0.36071 0.62978 0.0
C1061 C 0.4838 0.37081 0.63292 0.0
C1062 C 0.42188 0.32966 0.65424 0.0
C1063 C 0.42362 0.31179 0.64516 0.0
C1064 C 0.43648 0.34016 0.65914 0.0
C1065 C 0.45314 0.33305 0.65424 0.0
C1066 C 0.45479 0.31522 0.64253 0.0
C1067 C 0.44022 0.30473 0.63843 0.0
H1068 H 0.99265 0.12853 0.99407 0.0
H1069 H 0.00969 0.1472 0.77956 0.0
H1070 H 0.97086 0.15114 0.99909 0.0
H1071 H 0.98755 0.16975 0.78423 0.0
H1072 H 0.93146 0.19221 0.7926 0.0
H1073 H 0.9534 0.16977 0.78781 0.0
H1074 H 0.97185 0.18531 1.00442 0.0
H1075 H 0.94994 0.2081 1.00891 0.0
C1076 C 0.99159 0.13731 0.94749 0.0
C1077 C 0.00278 0.13598 0.88601 0.0
C1078 C 0.97923 0.15036 0.95084 0.0
C1079 C 0.97758 0.16217 0.89219 0.0
C1080 C 0.98856 0.16073 0.83009 0.0
C1081 C 0.00119 0.14787 0.82743 0.0
C1082 C 0.94006 0.19077 0.83961 0.0
C1083 C 0.93886 0.20182 0.90154 0.0
C1084 C 0.95273 0.17803 0.8364 0.0
C1085 C 0.9643 0.17585 0.89562 0.0
C1086 C 0.96301 0.18671 0.95813 0.0
C1087 C 0.95052 0.19973 0.96067 0.0
H1088 H 0.17094 0.30621 0.79107 0.0
H1089 H 0.15226 0.29057 1.00755 0.0
H1090 H 0.14908 0.32873 0.78587 0.0
H1091 H 0.13044 0.31343 1.00264 0.0
H1092 H 0.10959 0.37009 0.99162 0.0
H1093 H 0.13141 0.34754 0.99694 0.0
H1094 H 0.11497 0.32884 0.78196 0.0
H1095 H 0.09281 0.35136 0.77696 0.0
C1096 C 0.16232 0.30773 0.83804 0.0
C1097 C 0.16343 0.29673 0.90012 0.0
C1098 C 0.1497 0.32051 0.8346 0.0
C1099 C 0.13809 0.32277 0.89373 0.0
C1100 C 0.13931 0.31197 0.95642 0.0
C1101 C 0.15175 0.29891 0.9592 0.0
C1102 C 0.11071 0.36132 0.94506 0.0
C1103 C 0.09958 0.36261 0.88347 0.0
C1104 C 0.12309 0.34829 0.94858 0.0
C1105 C 0.12482 0.33646 0.89 0.0
C1106 C 0.11391 0.33787 0.82776 0.0
C1107 C 0.10126 0.35072 0.82492 0.0
H1108 H 0.99209 0.86901 0.04347 0.0
H1109 H 0.00845 0.85013 0.2585 0.0
H1110 H 0.97 0.84673 0.03787 0.0
H1111 H 0.986 0.8279 0.25323 0.0
H1112 H 0.92949 0.80631 0.24235 0.0
H1113 H 0.95172 0.82845 0.24814 0.0
H1114 H 0.97072 0.8125 0.03281 0.0
H1115 H 0.94855 0.79 0.02736 0.0
C1116 C 0.99082 0.86026 0.09005 0.0
C1117 C 0.00191 0.86143 0.15183 0.0
C1118 C 0.97829 0.8474 0.08636 0.0
C1119 C 0.97635 0.83562 0.14498 0.0
C1120 C 0.98723 0.8369 0.2074 0.0
C1121 C 5e-05 0.84957 0.2104 0.0
C1122 C 0.93828 0.8076 0.19584 0.0
C1123 C 0.93717 0.79652 0.13399 0.0
C1124 C 0.95111 0.82016 0.19963 0.0
C1125 C 0.96291 0.82213 0.14105 0.0
C1126 C 0.9617 0.81125 0.0786 0.0
C1127 C 0.94906 0.7984 0.0755 0.0
H1128 H 0.48309 0.60958 0.39561 0.0
H1129 H 0.51272 0.6523 0.3096 0.0
H1130 H 0.45731 0.6274 0.39604 0.0
H1131 H 0.48672 0.67011 0.30912 0.0
H1132 H 0.44105 0.70155 0.39977 0.0
H1133 H 0.46677 0.68345 0.40166 0.0
H1134 H 0.43755 0.64139 0.30797 0.0
H1135 H 0.41182 0.65936 0.3067 0.0
C1136 C 0.48409 0.62275 0.37622 0.0
C1137 C 0.49999 0.62953 0.35261 0.0
C1138 C 0.46928 0.63294 0.37624 0.0
C1139 C 0.46999 0.65018 0.35297 0.0
C1140 C 0.48582 0.65692 0.32832 0.0
C1141 C 0.50067 0.64667 0.32785 0.0
C1142 C 0.44005 0.68837 0.38047 0.0
C1143 C 0.42436 0.68189 0.35316 0.0
C1144 C 0.45484 0.67807 0.38079 0.0
C1145 C 0.45422 0.66104 0.35439 0.0
C1146 C 0.43842 0.65443 0.32909 0.0
C1147 C 0.42368 0.66475 0.3283 0.0
H1148 H 0.64805 0.20578 0.54324 0.0
H1149 H 0.68466 0.17857 0.68097 0.0
H1150 H 0.6289 0.18089 0.54721 0.0
H1151 H 0.66529 0.15423 0.68834 0.0
H1152 H 0.63427 0.10662 0.62927 0.0
H1153 H 0.65367 0.13112 0.62221 0.0
H1154 H 0.61005 0.16572 0.62774 0.0
H1155 H 0.59061 0.1411 0.63161 0.0
C1156 C 0.65203 0.19452 0.57435 0.0
C1157 C 0.66789 0.19426 0.61204 0.0
C1158 C 0.64095 0.18029 0.57739 0.0
C1159 C 0.64542 0.16552 0.61867 0.0
C1160 C 0.66143 0.16522 0.65522 0.0
C1161 C 0.67254 0.17932 0.65149 0.0
C1162 C 0.62882 0.11946 0.62985 0.0
C1163 C 0.61089 0.12189 0.63108 0.0
C1164 C 0.63997 0.13356 0.62586 0.0
C1165 C 0.63349 0.15049 0.62399 0.0
C1166 C 0.61553 0.15291 0.62741 0.0
C1167 C 0.60437 0.13878 0.63051 0.0
H1168 H 0.01874 0.33452 0.04557 0.0
H1169 H 0.01096 0.35842 0.831 0.0
H1170 H -0.00169 0.31172 1.01142 0.0
H1171 H 0.99071 0.33571 0.79688 0.0
H1172 H 0.96759 0.28265 0.73849 0.0
H1173 H 0.99035 0.30312 0.77266 0.0
H1174 H 0.96579 0.31137 0.98572 0.0
H1175 H 0.94311 0.29108 0.95156 0.0
C1176 C 0.01275 0.33482 0.99107 0.0
C1177 C 0.01628 0.34831 0.94123 0.0
C1178 C 0.00105 0.32185 0.97162 0.0
C1179 C 0.99295 0.32196 0.90144 0.0
C1180 C 0.99686 0.33521 0.85103 0.0
C1181 C 0.0083 0.34829 0.87089 0.0
C1182 C 0.96715 0.2888 0.79266 0.0
C1183 C 0.95352 0.28543 0.84206 0.0
C1184 C 0.98011 0.30052 0.81213 0.0
C1185 C 0.97982 0.30882 0.8819 0.0
C1186 C 0.96642 0.30508 0.93189 0.0
C1187 C 0.95336 0.29361 0.91201 0.0
H1188 H 0.51829 0.16496 0.51426 0.0
H1189 H 0.49761 0.12912 0.67561 0.0
H1190 H 0.4973 0.18643 0.55416 0.0
H1191 H 0.47636 0.15048 0.71369 0.0
H1192 H 0.42989 0.18914 0.69357 0.0
H1193 H 0.45061 0.16654 0.66201 0.0
H1194 H 0.49192 0.20368 0.67073 0.0
H1195 H 0.47136 0.22616 0.70356 0.0
C1196 C 0.50931 0.16163 0.5582 0.0
C1197 C 0.50972 0.14527 0.59166 0.0
C1198 C 0.49727 0.17394 0.581 0.0
C1199 C 0.48527 0.17015 0.63736 0.0
C1200 C 0.48537 0.15371 0.6697 0.0
C1201 C 0.49751 0.14144 0.64744 0.0
C1202 C 0.44344 0.1924 0.69048 0.0
C1203 C 0.44895 0.20949 0.7004 0.0
C1204 C 0.45528 0.17948 0.67197 0.0
C1205 C 0.47283 0.18343 0.66267 0.0
C1206 C 0.47842 0.20034 0.67585 0.0
C1207 C 0.46664 0.21319 0.69483 0.0
H1208 H 0.66015 0.70688 0.45186 0.0
H1209 H 0.63345 0.71608 0.24475 0.0
H1210 H 0.63784 0.68676 0.48977 0.0
H1211 H 0.61119 0.69544 0.28162 0.0
H1212 H 0.56711 0.66667 0.39264 0.0
H1213 H 0.58771 0.68954 0.36516 0.0
H1214 H 0.62851 0.65871 0.46022 0.0
H1215 H 0.60784 0.6364 0.49124 0.0
C1216 C 0.64956 0.70443 0.41405 0.0
C1217 C 0.64867 0.71286 0.34485 0.0
C1218 C 0.63675 0.69287 0.43575 0.0
C1219 C 0.62277 0.68928 0.38852 0.0
C1220 C 0.62167 0.69801 0.31982 0.0
C1221 C 0.63445 0.70977 0.29839 0.0
C1222 C 0.58041 0.66496 0.40921 0.0
C1223 C 0.58581 0.64964 0.44391 0.0
C1224 C 0.59228 0.67797 0.39239 0.0
C1225 C 0.60984 0.67596 0.40984 0.0
C1226 C 0.6151 0.66084 0.44651 0.0
C1227 C 0.60325 0.64791 0.46361 0.0
H1228 H 0.09158 0.85696 0.19662 0.0
H1229 H 0.08199 0.833 0.98352 0.0
H1230 H 0.11216 0.83428 0.22744 0.0
H1231 H 0.10272 0.81022 1.01439 0.0
H1232 H 0.15848 0.78983 0.06422 0.0
H1233 H 0.13533 0.80992 0.03406 0.0
H1234 H 0.11308 0.80184 0.25193 0.0
H1235 H 0.13635 0.78159 0.28216 0.0
C1236 C 0.0939 0.84682 0.15636 0.0
C1237 C 0.08533 0.84682 0.08734 0.0
C1238 C 0.10554 0.83375 0.17435 0.0
C1239 C 0.10903 0.8205 0.12335 0.0
C1240 C 0.10031 0.82035 0.05459 0.0
C1241 C 0.08844 0.83331 0.03702 0.0
C1242 C 0.14864 0.79235 0.1057 0.0
C1243 C 0.14929 0.7843 0.17584 0.0
C1244 C 0.1353 0.8037 0.08811 0.0
C1245 C 0.12241 0.80743 0.14059 0.0
C1246 C 0.12292 0.79924 0.21055 0.0
C1247 C 0.13616 0.78764 0.22777 0.0
H1248 H 0.96583 0.7169 0.3017 0.0
H1249 H 0.94195 0.70664 0.08906 0.0
H1250 H 0.98899 0.69659 0.27085 0.0
H1251 H 0.96497 0.68644 0.05834 0.0
H1252 H 0.01815 0.66358 1.00218 0.0
H1253 H 0.9973 0.68626 0.03288 0.0
H1254 H 0.99031 0.6641 0.25153 0.0
H1255 H 0.01104 0.64153 0.22094 0.0
C1256 C 0.9656 0.71038 0.24834 0.0
C1257 C 0.95202 0.71321 0.19811 0.0
C1258 C 0.97878 0.69873 0.23079 0.0
C1259 C 0.97878 0.68996 0.16213 0.0
C1260 C 0.9654 0.69312 0.11134 0.0
C1261 C 0.95213 0.70454 0.12929 0.0
C1262 C 0.01222 0.66367 0.05687 0.0
C1263 C 0.01607 0.65072 0.10889 0.0
C1264 C 0.00026 0.67657 0.07434 0.0
C1265 C 0.99219 0.67693 0.14462 0.0
C1266 C 0.99642 0.66424 0.19721 0.0
C1267 C 0.00814 0.65123 0.17939 0.0
H1268 H 0.1343 0.21547 0.74033 0.0
H1269 H 0.15859 0.20773 0.95407 0.0
H1270 H 0.11154 0.19506 0.77544 0.0
H1271 H 0.13592 0.1875 0.98916 0.0
H1272 H 0.09124 0.13978 0.83626 0.0
H1273 H 0.11139 0.16253 0.80129 0.0
H1274 H 0.10335 0.18708 1.01445 0.0
H1275 H 0.08302 0.16425 0.04944 0.0
C1276 C 0.13468 0.2095 0.79487 0.0
C1277 C 0.14827 0.21302 0.84418 0.0
C1278 C 0.12174 0.19781 0.81486 0.0
C1279 C 0.12198 0.18972 0.88507 0.0
C1280 C 0.13533 0.19364 0.93499 0.0
C1281 C 0.14838 0.20508 0.9146 0.0
C1282 C 0.09378 0.15004 0.87567 0.0
C1283 C 0.08571 0.15018 0.94588 0.0
C1284 C 0.10517 0.16314 0.85532 0.0
C1285 C 0.10891 0.17656 0.9051 0.0
C1286 C 0.10073 0.17682 0.97514 0.0
C1287 C 0.08909 0.16383 0.99508 0.0
H1288 H 0.65751 0.28551 0.56761 0.0
H1289 H 0.63566 0.27574 0.78487 0.0
H1290 H 0.63432 0.3058 0.54067 0.0
H1291 H 0.61235 0.29618 0.75789 0.0
H1292 H 0.59132 0.35196 0.71169 0.0
H1293 H 0.61151 0.32869 0.73873 0.0
H1294 H 0.60181 0.30677 0.52161 0.0
H1295 H 0.58148 0.33016 0.49453 0.0
C1296 C 0.6477 0.2877 0.60956 0.0
C1297 C 0.64846 0.27918 0.67863 0.0
C1298 C 0.63434 0.29918 0.59382 0.0
C1299 C 0.62153 0.30258 0.64714 0.0
C1300 C 0.62211 0.29386 0.71589 0.0
C1301 C 0.63538 0.28214 0.73123 0.0
C1302 C 0.59347 0.34214 0.6698 0.0
C1303 C 0.58496 0.34294 0.60072 0.0
C1304 C 0.60489 0.32873 0.6856 0.0
C1305 C 0.60824 0.31592 0.63232 0.0
C1306 C 0.59953 0.31653 0.56358 0.0
C1307 C 0.58787 0.32984 0.54818 0.0
H1308 H 0.53022 0.83019 0.42527 0.0
H1309 H 0.4912 0.86019 0.53766 0.0
H1310 H 0.50889 0.80823 0.39621 0.0
H1311 H 0.46983 0.83813 0.50904 0.0
H1312 H 0.43268 0.80493 0.37317 0.0
H1313 H 0.45435 0.82661 0.40294 0.0
H1314 H 0.49111 0.78636 0.45116 0.0
H1315 H 0.46974 0.76476 0.41824 0.0
C1316 C 0.51715 0.83195 0.44504 0.0
C1317 C 0.51243 0.84695 0.48385 0.0
C1318 C 0.50489 0.81936 0.42817 0.0
C1319 C 0.4876 0.82144 0.44987 0.0
C1320 C 0.48295 0.83627 0.49018 0.0
C1321 C 0.49522 0.84888 0.50689 0.0
C1322 C 0.44546 0.80072 0.3891 0.0
C1323 C 0.44944 0.78309 0.39345 0.0
C1324 C 0.45782 0.81315 0.4072 0.0
C1325 C 0.47446 0.80825 0.42998 0.0
C1326 C 0.47848 0.79062 0.43334 0.0
C1327 C 0.46615 0.77821 0.4152 0.0
loop_
_geom_bond_atom_site_label_1
_geom_bond_atom_site_label_2
_geom_bond_distance
_geom_bond_site_symmetry_2
_ccdc_geom_bond_type
Co0 N4 2.148 1_554 S
Co0 N10 2.128 . S
Co0 N20 2.194 . S
Co0 O25 2.351 . S
Co0 O26 2.155 . S
Co0 O27 2.096 . S
C1 N4 1.301 . S
C1 N5 1.328 . S
C1 H6 0.930 . S
C2 C3 1.333 . S
C2 N4 1.317 . S
C2 H7 0.930 . S
C3 C2 1.333 . S
C3 N5 1.350 . S
C3 H29 0.931 . S
N4 Co0 2.148 1_556 S
N4 C1 1.301 . S
N4 C2 1.317 . S
N5 C1 1.328 . S
N5 C3 1.350 . S
H6 C1 0.930 . S
H7 C2 0.930 . S
C8 O9 1.224 . S
C8 O27 1.247 . S
O9 C8 1.224 . S
N10 Co0 2.128 . S
N10 C11 1.355 . S
N10 C13 1.311 . S
C11 N10 1.355 . S
C11 C12 1.363 . S
C11 H23 0.929 . S
C12 C11 1.363 . S
C12 N14 1.375 . S
C12 H30 0.931 . S
C13 N10 1.311 . S
C13 N14 1.347 . S
C13 H24 0.929 . S
N14 C12 1.375 . S
N14 C13 1.347 . S
C15 C18 1.365 . S
C15 N20 1.328 . S
C15 H21 0.929 . S
C16 C17 1.362 . S
C16 C19 1.378 . S
C16 H31 0.929 . S
C17 C16 1.362 . S
C17 C18 1.366 . S
C18 C15 1.365 . S
C18 C17 1.366 . S
C18 H32 0.930 . S
C19 C16 1.378 . S
C19 N20 1.315 . S
C19 H22 0.930 . S
N20 Co0 2.194 . S
N20 C15 1.328 . S
N20 C19 1.315 . S
H21 C15 0.929 . S
H22 C19 0.930 . S
H23 C11 0.929 . S
H24 C13 0.929 . S
O25 Co0 2.351 . S
O25 C28 1.244 . S
O26 Co0 2.155 . S
O26 C28 1.240 . S
O27 Co0 2.096 . S
O27 C8 1.247 . S
C28 O25 1.244 . S
C28 O26 1.240 . S
H29 C3 0.931 . S
H30 C12 0.931 . S
H31 C16 0.929 . S
H32 C18 0.930 . S
Co33 N37 2.148 . S
Co33 N43 2.128 . S
Co33 N53 2.194 . S
Co33 O58 2.351 . S
Co33 O59 2.155 . S
Co33 O60 2.096 . S
C34 N37 1.301 . S
C34 N38 1.328 . S
C34 H39 0.930 . S
C35 C36 1.333 . S
C35 N37 1.317 . S
C35 H40 0.930 . S
C36 C35 1.333 . S
C36 N38 1.350 . S
C36 H62 0.931 . S
N37 Co33 2.148 . S
N37 C34 1.301 . S
N37 C35 1.317 . S
N38 C34 1.328 . S
N38 C36 1.350 . S
H39 C34 0.930 . S
H40 C35 0.930 . S
C41 O42 1.224 . S
C41 O60 1.247 . S
O42 C41 1.224 . S
N43 Co33 2.128 . S
N43 C44 1.355 . S
N43 C46 1.311 . S
C44 N43 1.355 . S
C44 C45 1.363 . S
C44 H56 0.929 . S
C45 C44 1.363 . S
C45 N47 1.375 . S
C45 H63 0.931 . S
C46 N43 1.311 . S
C46 N47 1.347 . S
C46 H57 0.929 . S
N47 C45 1.375 . S
N47 C46 1.347 . S
C48 C51 1.365 . S
C48 N53 1.328 . S
C48 H54 0.929 . S
C49 C50 1.362 . S
C49 C52 1.378 . S
C49 H64 0.929 . S
C50 C49 1.362 . S
C50 C51 1.366 . S
C51 C48 1.365 . S
C51 C50 1.366 . S
C51 H65 0.930 . S
C52 C49 1.378 . S
C52 N53 1.315 . S
C52 H55 0.930 . S
N53 Co33 2.194 . S
N53 C48 1.328 . S
N53 C52 1.315 . S
H54 C48 0.929 . S
H55 C52 0.930 . S
H56 C44 0.929 . S
H57 C46 0.929 . S
O58 Co33 2.351 . S
O58 C61 1.244 . S
O59 Co33 2.155 . S
O59 C61 1.240 . S
O60 Co33 2.096 . S
O60 C41 1.247 . S
C61 O58 1.244 . S
C61 O59 1.240 . S
H62 C36 0.931 . S
H63 C45 0.931 . S
H64 C49 0.929 . S
H65 C51 0.930 . S
Co66 N70 2.148 . S
Co66 N76 2.128 . S
Co66 N86 2.194 . S
Co66 O91 2.351 . S
Co66 O92 2.155 . S
Co66 O93 2.096 . S
C67 N70 1.301 . S
C67 N71 1.328 . S
C67 H72 0.930 . S
C68 C69 1.333 . S
C68 N70 1.317 . S
C68 H73 0.930 . S
C69 C68 1.333 . S
C69 N71 1.350 . S
C69 H95 0.931 . S
N70 Co66 2.148 . S
N70 C67 1.301 . S
N70 C68 1.317 . S
N71 C67 1.328 . S
N71 C69 1.350 . S
H72 C67 0.930 . S
H73 C68 0.930 . S
C74 O75 1.224 . S
C74 O93 1.247 . S
O75 C74 1.224 . S
N76 Co66 2.128 . S
N76 C77 1.355 . S
N76 C79 1.311 . S
C77 N76 1.355 . S
C77 C78 1.363 . S
C77 H89 0.929 . S
C78 C77 1.363 . S
C78 N80 1.375 . S
C78 H96 0.931 . S
C79 N76 1.311 . S
C79 N80 1.347 . S
C79 H90 0.929 . S
N80 C78 1.375 . S
N80 C79 1.347 . S
C81 C84 1.365 . S
C81 N86 1.328 . S
C81 H87 0.929 . S
C82 C83 1.362 . S
C82 C85 1.378 . S
C82 H97 0.929 . S
C83 C82 1.362 . S
C83 C84 1.366 . S
C84 C81 1.365 . S
C84 C83 1.366 . S
C84 H98 0.930 . S
C85 C82 1.378 . S
C85 N86 1.315 . S
C85 H88 0.930 . S
N86 Co66 2.194 . S
N86 C81 1.328 . S
N86 C85 1.315 . S
H87 C81 0.929 . S
H88 C85 0.930 . S
H89 C77 0.929 . S
H90 C79 0.929 . S
O91 Co66 2.351 . S
O91 C94 1.244 . S
O92 Co66 2.155 . S
O92 C94 1.240 . S
O93 Co66 2.096 . S
O93 C74 1.247 . S
C94 O91 1.244 . S
C94 O92 1.240 . S
H95 C69 0.931 . S
H96 C78 0.931 . S
H97 C82 0.929 . S
H98 C84 0.930 . S
Co99 N103 2.148 . S
Co99 N109 2.128 . S
Co99 N119 2.194 . S
Co99 O124 2.351 . S
Co99 O125 2.155 . S
Co99 O126 2.096 . S
C100 N103 1.301 . S
C100 N104 1.328 . S
C100 H105 0.930 . S
C101 C102 1.333 . S
C101 N103 1.317 . S
C101 H106 0.930 . S
C102 C101 1.333 . S
C102 N104 1.350 . S
C102 H128 0.931 . S
N103 Co99 2.148 . S
N103 C100 1.301 . S
N103 C101 1.317 . S
N104 C100 1.328 . S
N104 C102 1.350 . S
H105 C100 0.930 . S
H106 C101 0.930 . S
C107 O108 1.224 . S
C107 O126 1.247 . S
O108 C107 1.224 . S
N109 Co99 2.128 . S
N109 C110 1.355 . S
N109 C112 1.311 1_556 S
C110 N109 1.355 . S
C110 C111 1.363 1_556 S
C110 H122 0.929 . S
C111 C110 1.363 1_554 S
C111 N113 1.375 . S
C111 H129 0.931 . S
C112 N109 1.311 1_554 S
C112 N113 1.347 . S
C112 H123 0.929 1_554 S
N113 C111 1.375 . S
N113 C112 1.347 . S
C114 C117 1.365 . S
C114 N119 1.328 . S
C114 H120 0.929 . S
C115 C116 1.362 . S
C115 C118 1.378 . S
C115 H130 0.929 . S
C116 C115 1.362 . S
C116 C117 1.366 . S
C117 C114 1.365 . S
C117 C116 1.366 . S
C117 H131 0.930 . S
C118 C115 1.378 . S
C118 N119 1.315 . S
C118 H121 0.930 . S
N119 Co99 2.194 . S
N119 C114 1.328 . S
N119 C118 1.315 . S
H120 C114 0.929 . S
H121 C118 0.930 . S
H122 C110 0.929 . S
H123 C112 0.929 1_556 S
O124 Co99 2.351 . S
O124 C127 1.244 . S
O125 Co99 2.155 . S
O125 C127 1.240 . S
O126 Co99 2.096 . S
O126 C107 1.247 . S
C127 O124 1.244 . S
C127 O125 1.240 . S
H128 C102 0.931 . S
H129 C111 0.931 . S
H130 C115 0.929 . S
H131 C117 0.930 . S
Co132 N136 2.148 1_556 S
Co132 N142 2.128 . S
Co132 N152 2.194 . S
Co132 O157 2.351 . S
Co132 O158 2.155 . S
Co132 O159 2.096 . S
C133 N136 1.301 . S
C133 N137 1.328 . S
C133 H138 0.930 . S
C134 C135 1.333 . S
C134 N136 1.317 . S
C134 H139 0.930 . S
C135 C134 1.333 . S
C135 N137 1.350 . S
C135 H161 0.931 . S
N136 Co132 2.148 1_554 S
N136 C133 1.301 . S
N136 C134 1.317 . S
N137 C133 1.328 . S
N137 C135 1.350 . S
H138 C133 0.930 . S
H139 C134 0.930 . S
C140 O141 1.224 . S
C140 O159 1.247 . S
O141 C140 1.224 . S
N142 Co132 2.128 . S
N142 C143 1.355 . S
N142 C145 1.311 . S
C143 N142 1.355 . S
C143 C144 1.363 . S
C143 H155 0.929 . S
C144 C143 1.363 . S
C144 N146 1.375 . S
C144 H162 0.931 . S
C145 N142 1.311 . S
C145 N146 1.347 . S
C145 H156 0.929 . S
N146 C144 1.375 . S
N146 C145 1.347 . S
C147 C150 1.365 . S
C147 N152 1.328 . S
C147 H153 0.929 . S
C148 C149 1.362 . S
C148 C151 1.378 . S
C148 H163 0.929 . S
C149 C148 1.362 . S
C149 C150 1.366 . S
C150 C147 1.365 . S
C150 C149 1.366 . S
C150 H164 0.930 . S
C151 C148 1.378 . S
C151 N152 1.315 . S
C151 H154 0.930 . S
N152 Co132 2.194 . S
N152 C147 1.328 . S
N152 C151 1.315 . S
H153 C147 0.929 . S
H154 C151 0.930 . S
H155 C143 0.929 . S
H156 C145 0.929 . S
O157 Co132 2.351 . S
O157 C160 1.244 . S
O158 Co132 2.155 . S
O158 C160 1.240 . S
O159 Co132 2.096 . S
O159 C140 1.247 . S
C160 O157 1.244 . S
C160 O158 1.240 . S
H161 C135 0.931 . S
H162 C144 0.931 . S
H163 C148 0.929 . S
H164 C150 0.930 . S
Co165 N169 2.148 . S
Co165 N175 2.128 . S
Co165 N185 2.194 . S
Co165 O190 2.351 . S
Co165 O191 2.155 . S
Co165 O192 2.096 . S
C166 N169 1.301 . S
C166 N170 1.328 . S
C166 H171 0.930 . S
C167 C168 1.333 . S
C167 N169 1.317 . S
C167 H172 0.930 . S
C168 C167 1.333 . S
C168 N170 1.350 . S
C168 H194 0.931 . S
N169 Co165 2.148 . S
N169 C166 1.301 . S
N169 C167 1.317 . S
N170 C166 1.328 . S
N170 C168 1.350 . S
H171 C166 0.930 . S
H172 C167 0.930 . S
C173 O174 1.224 . S
C173 O192 1.247 . S
O174 C173 1.224 . S
N175 Co165 2.128 . S
N175 C176 1.355 . S
N175 C178 1.311 1_554 S
C176 N175 1.355 . S
C176 C177 1.363 1_554 S
C176 H188 0.929 . S
C177 C176 1.363 1_556 S
C177 N179 1.375 . S
C177 H195 0.931 . S
C178 N175 1.311 1_556 S
C178 N179 1.347 . S
C178 H189 0.929 1_556 S
N179 C177 1.375 . S
N179 C178 1.347 . S
C180 C183 1.365 . S
C180 N185 1.328 . S
C180 H186 0.929 . S
C181 C182 1.362 . S
C181 C184 1.378 . S
C181 H196 0.929 . S
C182 C181 1.362 . S
C182 C183 1.366 . S
C183 C180 1.365 . S
C183 C182 1.366 . S
C183 H197 0.930 . S
C184 C181 1.378 . S
C184 N185 1.315 . S
C184 H187 0.930 . S
N185 Co165 2.194 . S
N185 C180 1.328 . S
N185 C184 1.315 . S
H186 C180 0.929 . S
H187 C184 0.930 . S
H188 C176 0.929 . S
H189 C178 0.929 1_554 S
O190 Co165 2.351 . S
O190 C193 1.244 . S
O191 Co165 2.155 . S
O191 C193 1.240 . S
O192 Co165 2.096 . S
O192 C173 1.247 . S
C193 O190 1.244 . S
C193 O191 1.240 . S
H194 C168 0.931 . S
H195 C177 0.931 . S
H196 C181 0.929 . S
H197 C183 0.930 . S
Co198 N202 2.148 . S
Co198 N208 2.128 . S
Co198 N218 2.194 . S
Co198 O223 2.351 . S
Co198 O224 2.155 . S
Co198 O225 2.096 . S
C199 N202 1.301 . S
C199 N203 1.328 . S
C199 H204 0.930 . S
C200 C201 1.333 . S
C200 N202 1.317 . S
C200 H205 0.930 . S
C201 C200 1.333 . S
C201 N203 1.350 . S
C201 H227 0.931 . S
N202 Co198 2.148 . S
N202 C199 1.301 . S
N202 C200 1.317 . S
N203 C199 1.328 . S
N203 C201 1.350 . S
H204 C199 0.930 . S
H205 C200 0.930 . S
C206 O207 1.224 . S
C206 O225 1.247 . S
O207 C206 1.224 . S
N208 Co198 2.128 . S
N208 C209 1.355 . S
N208 C211 1.311 . S
C209 N208 1.355 . S
C209 C210 1.363 . S
C209 H221 0.929 . S
C210 C209 1.363 . S
C210 N212 1.375 . S
C210 H228 0.931 . S
C211 N208 1.311 . S
C211 N212 1.347 . S
C211 H222 0.929 . S
N212 C210 1.375 . S
N212 C211 1.347 . S
C213 C216 1.365 . S
C213 N218 1.328 . S
C213 H219 0.929 . S
C214 C215 1.362 . S
C214 C217 1.378 . S
C214 H229 0.929 . S
C215 C214 1.362 . S
C215 C216 1.366 . S
C216 C213 1.365 . S
C216 C215 1.366 . S
C216 H230 0.930 . S
C217 C214 1.378 . S
C217 N218 1.315 . S
C217 H220 0.930 . S
N218 Co198 2.194 . S
N218 C213 1.328 . S
N218 C217 1.315 . S
H219 C213 0.929 . S
H220 C217 0.930 . S
H221 C209 0.929 . S
H222 C211 0.929 . S
O223 Co198 2.351 . S
O223 C226 1.244 . S
O224 Co198 2.155 . S
O224 C226 1.240 . S
O225 Co198 2.096 . S
O225 C206 1.247 . S
C226 O223 1.244 . S
C226 O224 1.240 . S
H227 C201 0.931 . S
H228 C210 0.931 . S
H229 C214 0.929 . S
H230 C216 0.930 . S
Co231 N235 2.148 . S
Co231 N241 2.128 . S
Co231 N251 2.194 . S
Co231 O256 2.351 . S
Co231 O257 2.155 . S
Co231 O258 2.096 . S
C232 N235 1.301 . S
C232 N236 1.328 . S
C232 H237 0.930 . S
C233 C234 1.333 . S
C233 N235 1.317 . S
C233 H238 0.930 . S
C234 C233 1.333 . S
C234 N236 1.350 . S
C234 H260 0.931 . S
N235 Co231 2.148 . S
N235 C232 1.301 . S
N235 C233 1.317 . S
N236 C232 1.328 . S
N236 C234 1.350 . S
H237 C232 0.930 . S
H238 C233 0.930 . S
C239 O240 1.224 . S
C239 O258 1.247 . S
O240 C239 1.224 . S
N241 Co231 2.128 . S
N241 C242 1.355 . S
N241 C244 1.311 . S
C242 N241 1.355 . S
C242 C243 1.363 . S
C242 H254 0.929 . S
C243 C242 1.363 . S
C243 N245 1.375 . S
C243 H261 0.931 . S
C244 N241 1.311 . S
C244 N245 1.347 . S
C244 H255 0.929 . S
N245 C243 1.375 . S
N245 C244 1.347 . S
C246 C249 1.365 . S
C246 N251 1.328 . S
C246 H252 0.929 . S
C247 C248 1.362 . S
C247 C250 1.378 . S
C247 H262 0.929 . S
C248 C247 1.362 . S
C248 C249 1.366 . S
C249 C246 1.365 . S
C249 C248 1.366 . S
C249 H263 0.930 . S
C250 C247 1.378 . S
C250 N251 1.315 . S
C250 H253 0.930 . S
N251 Co231 2.194 . S
N251 C246 1.328 . S
N251 C250 1.315 . S
H252 C246 0.929 . S
H253 C250 0.930 . S
H254 C242 0.929 . S
H255 C244 0.929 . S
O256 Co231 2.351 . S
O256 C259 1.244 . S
O257 Co231 2.155 . S
O257 C259 1.240 . S
O258 Co231 2.096 . S
O258 C239 1.247 . S
C259 O256 1.244 . S
C259 O257 1.240 . S
H260 C234 0.931 . S
H261 C243 0.931 . S
H262 C247 0.929 . S
H263 C249 0.930 . S
Co264 N268 2.148 . S
Co264 N274 2.128 . S
Co264 N284 2.194 . S
Co264 O289 2.351 . S
Co264 O290 2.155 . S
Co264 O291 2.096 . S
C265 N268 1.301 . S
C265 N269 1.328 . S
C265 H270 0.930 . S
C266 C267 1.333 . S
C266 N268 1.317 . S
C266 H271 0.930 . S
C267 C266 1.333 . S
C267 N269 1.350 . S
C267 H293 0.931 . S
N268 Co264 2.148 . S
N268 C265 1.301 . S
N268 C266 1.317 . S
N269 C265 1.328 . S
N269 C267 1.350 . S
H270 C265 0.930 . S
H271 C266 0.930 . S
C272 O273 1.224 . S
C272 O291 1.247 . S
O273 C272 1.224 . S
N274 Co264 2.128 . S
N274 C275 1.355 . S
N274 C277 1.311 . S
C275 N274 1.355 . S
C275 C276 1.363 . S
C275 H287 0.929 . S
C276 C275 1.363 . S
C276 N278 1.375 . S
C276 H294 0.931 . S
C277 N274 1.311 . S
C277 N278 1.347 . S
C277 H288 0.929 . S
N278 C276 1.375 . S
N278 C277 1.347 . S
C279 C282 1.365 . S
C279 N284 1.328 . S
C279 H285 0.929 . S
C280 C281 1.362 . S
C280 C283 1.378 . S
C280 H295 0.929 . S
C281 C280 1.362 . S
C281 C282 1.366 . S
C282 C279 1.365 . S
C282 C281 1.366 . S
C282 H296 0.930 . S
C283 C280 1.378 . S
C283 N284 1.315 . S
C283 H286 0.930 . S
N284 Co264 2.194 . S
N284 C279 1.328 . S
N284 C283 1.315 . S
H285 C279 0.929 . S
H286 C283 0.930 . S
H287 C275 0.929 . S
H288 C277 0.929 . S
O289 Co264 2.351 . S
O289 C292 1.244 . S
O290 Co264 2.155 . S
O290 C292 1.240 . S
O291 Co264 2.096 . S
O291 C272 1.247 . S
C292 O289 1.244 . S
C292 O290 1.240 . S
H293 C267 0.931 . S
H294 C276 0.931 . S
H295 C280 0.929 . S
H296 C282 0.930 . S
Co297 N301 2.148 . S
Co297 N307 2.128 . S
Co297 N317 2.194 . S
Co297 O322 2.351 . S
Co297 O323 2.155 . S
Co297 O324 2.096 . S
C298 N301 1.301 . S
C298 N302 1.328 . S
C298 H303 0.930 . S
C299 C300 1.333 . S
C299 N301 1.317 . S
C299 H304 0.930 . S
C300 C299 1.333 . S
C300 N302 1.350 . S
C300 H326 0.931 . S
N301 Co297 2.148 . S
N301 C298 1.301 . S
N301 C299 1.317 . S
N302 C298 1.328 . S
N302 C300 1.350 . S
H303 C298 0.930 . S
H304 C299 0.930 . S
C305 O306 1.224 . S
C305 O324 1.247 . S
O306 C305 1.224 . S
N307 Co297 2.128 . S
N307 C308 1.355 . S
N307 C310 1.311 1_554 S
C308 N307 1.355 . S
C308 C309 1.363 1_554 S
C308 H320 0.929 . S
C309 C308 1.363 1_556 S
C309 N311 1.375 . S
C309 H327 0.931 . S
C310 N307 1.311 1_556 S
C310 N311 1.347 . S
C310 H321 0.929 1_556 S
N311 C309 1.375 . S
N311 C310 1.347 . S
C312 C315 1.365 . S
C312 N317 1.328 . S
C312 H318 0.929 . S
C313 C314 1.362 . S
C313 C316 1.378 . S
C313 H328 0.929 . S
C314 C313 1.362 . S
C314 C315 1.366 . S
C315 C312 1.365 . S
C315 C314 1.366 . S
C315 H329 0.930 . S
C316 C313 1.378 . S
C316 N317 1.315 . S
C316 H319 0.930 . S
N317 Co297 2.194 . S
N317 C312 1.328 . S
N317 C316 1.315 . S
H318 C312 0.929 . S
H319 C316 0.930 . S
H320 C308 0.929 . S
H321 C310 0.929 1_554 S
O322 Co297 2.351 . S
O322 C325 1.244 . S
O323 Co297 2.155 . S
O323 C325 1.240 . S
O324 Co297 2.096 . S
O324 C305 1.247 . S
C325 O322 1.244 . S
C325 O323 1.240 . S
H326 C300 0.931 . S
H327 C309 0.931 . S
H328 C313 0.929 . S
H329 C315 0.930 . S
Co330 N334 2.148 . S
Co330 N340 2.128 . S
Co330 N350 2.194 . S
Co330 O355 2.351 . S
Co330 O356 2.155 . S
Co330 O357 2.096 . S
C331 N334 1.301 . S
C331 N335 1.328 . S
C331 H336 0.930 . S
C332 C333 1.333 . S
C332 N334 1.317 . S
C332 H337 0.930 . S
C333 C332 1.333 . S
C333 N335 1.350 . S
C333 H359 0.931 . S
N334 Co330 2.148 . S
N334 C331 1.301 . S
N334 C332 1.317 . S
N335 C331 1.328 . S
N335 C333 1.350 . S
H336 C331 0.930 . S
H337 C332 0.930 . S
C338 O339 1.224 . S
C338 O357 1.247 . S
O339 C338 1.224 . S
N340 Co330 2.128 . S
N340 C341 1.355 . S
N340 C343 1.311 1_556 S
C341 N340 1.355 . S
C341 C342 1.363 1_556 S
C341 H353 0.929 . S
C342 C341 1.363 1_554 S
C342 N344 1.375 . S
C342 H360 0.931 . S
C343 N340 1.311 1_554 S
C343 N344 1.347 . S
C343 H354 0.929 1_554 S
N344 C342 1.375 . S
N344 C343 1.347 . S
C345 C348 1.365 . S
C345 N350 1.328 . S
C345 H351 0.929 . S
C346 C347 1.362 . S
C346 C349 1.378 . S
C346 H361 0.929 . S
C347 C346 1.362 . S
C347 C348 1.366 . S
C348 C345 1.365 . S
C348 C347 1.366 . S
C348 H362 0.930 . S
C349 C346 1.378 . S
C349 N350 1.315 . S
C349 H352 0.930 . S
N350 Co330 2.194 . S
N350 C345 1.328 . S
N350 C349 1.315 . S
H351 C345 0.929 . S
H352 C349 0.930 . S
H353 C341 0.929 . S
H354 C343 0.929 1_556 S
O355 Co330 2.351 . S
O355 C358 1.244 . S
O356 Co330 2.155 . S
O356 C358 1.240 . S
O357 Co330 2.096 . S
O357 C338 1.247 . S
C358 O355 1.244 . S
C358 O356 1.240 . S
H359 C333 0.931 . S
H360 C342 0.931 . S
H361 C346 0.929 . S
H362 C348 0.930 . S
Co363 N367 2.148 . S
Co363 N373 2.128 . S
Co363 N383 2.194 . S
Co363 O388 2.351 . S
Co363 O389 2.155 . S
Co363 O390 2.096 . S
C364 N367 1.301 . S
C364 N368 1.328 . S
C364 H369 0.930 . S
C365 C366 1.333 . S
C365 N367 1.317 . S
C365 H370 0.930 . S
C366 C365 1.333 . S
C366 N368 1.350 . S
C366 H392 0.931 . S
N367 Co363 2.148 . S
N367 C364 1.301 . S
N367 C365 1.317 . S
N368 C364 1.328 . S
N368 C366 1.350 . S
H369 C364 0.930 . S
H370 C365 0.930 . S
C371 O372 1.224 . S
C371 O390 1.247 . S
O372 C371 1.224 . S
N373 Co363 2.128 . S
N373 C374 1.355 . S
N373 C376 1.311 . S
C374 N373 1.355 . S
C374 C375 1.363 . S
C374 H386 0.929 . S
C375 C374 1.363 . S
C375 N377 1.375 . S
C375 H393 0.931 . S
C376 N373 1.311 . S
C376 N377 1.347 . S
C376 H387 0.929 . S
N377 C375 1.375 . S
N377 C376 1.347 . S
C378 C381 1.365 . S
C378 N383 1.328 . S
C378 H384 0.929 . S
C379 C380 1.362 . S
C379 C382 1.378 . S
C379 H394 0.929 . S
C380 C379 1.362 . S
C380 C381 1.366 . S
C381 C378 1.365 . S
C381 C380 1.366 . S
C381 H395 0.930 . S
C382 C379 1.378 . S
C382 N383 1.315 . S
C382 H385 0.930 . S
N383 Co363 2.194 . S
N383 C378 1.328 . S
N383 C382 1.315 . S
H384 C378 0.929 . S
H385 C382 0.930 . S
H386 C374 0.929 . S
H387 C376 0.929 . S
O388 Co363 2.351 . S
O388 C391 1.244 . S
O389 Co363 2.155 . S
O389 C391 1.240 . S
O390 Co363 2.096 . S
O390 C371 1.247 . S
C391 O388 1.244 . S
C391 O389 1.240 . S
H392 C366 0.931 . S
H393 C375 0.931 . S
H394 C379 0.929 . S
H395 C381 0.930 . S
Co396 N400 2.148 . S
Co396 N406 2.128 . S
Co396 N416 2.194 . S
Co396 O421 2.351 . S
Co396 O422 2.155 . S
Co396 O423 2.096 . S
C397 N400 1.301 . S
C397 N401 1.328 . S
C397 H402 0.930 . S
C398 C399 1.333 . S
C398 N400 1.317 . S
C398 H403 0.930 . S
C399 C398 1.333 . S
C399 N401 1.350 . S
C399 H425 0.931 . S
N400 Co396 2.148 . S
N400 C397 1.301 . S
N400 C398 1.317 . S
N401 C397 1.328 . S
N401 C399 1.350 . S
H402 C397 0.930 . S
H403 C398 0.930 . S
C404 O405 1.224 . S
C404 O423 1.247 . S
O405 C404 1.224 . S
N406 Co396 2.128 . S
N406 C407 1.355 . S
N406 C409 1.311 . S
C407 N406 1.355 . S
C407 C408 1.363 . S
C407 H419 0.929 . S
C408 C407 1.363 . S
C408 N410 1.375 . S
C408 H426 0.931 . S
C409 N406 1.311 . S
C409 N410 1.347 . S
C409 H420 0.929 . S
N410 C408 1.375 . S
N410 C409 1.347 . S
C411 C414 1.365 . S
C411 N416 1.328 . S
C411 H417 0.929 . S
C412 C413 1.362 . S
C412 C415 1.378 . S
C412 H427 0.929 . S
C413 C412 1.362 . S
C413 C414 1.366 . S
C414 C411 1.365 . S
C414 C413 1.366 . S
C414 H428 0.930 . S
C415 C412 1.378 . S
C415 N416 1.315 . S
C415 H418 0.930 . S
N416 Co396 2.194 . S
N416 C411 1.328 . S
N416 C415 1.315 . S
H417 C411 0.929 . S
H418 C415 0.930 . S
H419 C407 0.929 . S
H420 C409 0.929 . S
O421 Co396 2.351 . S
O421 C424 1.244 . S
O422 Co396 2.155 . S
O422 C424 1.240 . S
O423 Co396 2.096 . S
O423 C404 1.247 . S
C424 O421 1.244 . S
C424 O422 1.240 . S
H425 C399 0.931 . S
H426 C408 0.931 . S
H427 C412 0.929 . S
H428 C414 0.930 . S
Co429 N433 2.148 1_554 S
Co429 N439 2.128 . S
Co429 N449 2.194 . S
Co429 O454 2.351 . S
Co429 O455 2.155 . S
Co429 O456 2.096 . S
C430 N433 1.301 . S
C430 N434 1.328 . S
C430 H435 0.930 . S
C431 C432 1.333 . S
C431 N433 1.317 . S
C431 H436 0.930 . S
C432 C431 1.333 . S
C432 N434 1.350 . S
C432 H458 0.931 . S
N433 Co429 2.148 1_556 S
N433 C430 1.301 . S
N433 C431 1.317 . S
N434 C430 1.328 . S
N434 C432 1.350 . S
H435 C430 0.930 . S
H436 C431 0.930 . S
C437 O438 1.224 . S
C437 O456 1.247 . S
O438 C437 1.224 . S
N439 Co429 2.128 . S
N439 C440 1.355 . S
N439 C442 1.311 . S
C440 N439 1.355 . S
C440 C441 1.363 . S
C440 H452 0.929 . S
C441 C440 1.363 . S
C441 N443 1.375 . S
C441 H459 0.931 . S
C442 N439 1.311 . S
C442 N443 1.347 . S
C442 H453 0.929 . S
N443 C441 1.375 . S
N443 C442 1.347 . S
C444 C447 1.365 . S
C444 N449 1.328 . S
C444 H450 0.929 . S
C445 C446 1.362 . S
C445 C448 1.378 . S
C445 H460 0.929 . S
C446 C445 1.362 . S
C446 C447 1.366 . S
C447 C444 1.365 . S
C447 C446 1.366 . S
C447 H461 0.930 . S
C448 C445 1.378 . S
C448 N449 1.315 . S
C448 H451 0.930 . S
N449 Co429 2.194 . S
N449 C444 1.328 . S
N449 C448 1.315 . S
H450 C444 0.929 . S
H451 C448 0.930 . S
H452 C440 0.929 . S
H453 C442 0.929 . S
O454 Co429 2.351 . S
O454 C457 1.244 . S
O455 Co429 2.155 . S
O455 C457 1.240 . S
O456 Co429 2.096 . S
O456 C437 1.247 . S
C457 O454 1.244 . S
C457 O455 1.240 . S
H458 C432 0.931 . S
H459 C441 0.931 . S
H460 C445 0.929 . S
H461 C447 0.930 . S
Co462 N466 2.148 . S
Co462 N472 2.128 . S
Co462 N482 2.194 . S
Co462 O487 2.351 . S
Co462 O488 2.155 . S
Co462 O489 2.096 . S
C463 N466 1.301 . S
C463 N467 1.328 . S
C463 H468 0.930 . S
C464 C465 1.333 . S
C464 N466 1.317 . S
C464 H469 0.930 . S
C465 C464 1.333 . S
C465 N467 1.350 . S
C465 H491 0.931 . S
N466 Co462 2.148 . S
N466 C463 1.301 . S
N466 C464 1.317 . S
N467 C463 1.328 . S
N467 C465 1.350 . S
H468 C463 0.930 . S
H469 C464 0.930 . S
C470 O471 1.224 . S
C470 O489 1.247 . S
O471 C470 1.224 . S
N472 Co462 2.128 . S
N472 C473 1.355 . S
N472 C475 1.311 . S
C473 N472 1.355 . S
C473 C474 1.363 . S
C473 H485 0.929 . S
C474 C473 1.363 . S
C474 N476 1.375 . S
C474 H492 0.931 . S
C475 N472 1.311 . S
C475 N476 1.347 . S
C475 H486 0.929 . S
N476 C474 1.375 . S
N476 C475 1.347 . S
C477 C480 1.365 . S
C477 N482 1.328 . S
C477 H483 0.929 . S
C478 C479 1.362 . S
C478 C481 1.378 . S
C478 H493 0.929 . S
C479 C478 1.362 . S
C479 C480 1.366 . S
C480 C477 1.365 . S
C480 C479 1.366 . S
C480 H494 0.930 . S
C481 C478 1.378 . S
C481 N482 1.315 . S
C481 H484 0.930 . S
N482 Co462 2.194 . S
N482 C477 1.328 . S
N482 C481 1.315 . S
H483 C477 0.929 . S
H484 C481 0.930 . S
H485 C473 0.929 . S
H486 C475 0.929 . S
O487 Co462 2.351 . S
O487 C490 1.244 . S
O488 Co462 2.155 . S
O488 C490 1.240 . S
O489 Co462 2.096 . S
O489 C470 1.247 . S
C490 O487 1.244 . S
C490 O488 1.240 . S
H491 C465 0.931 . S
H492 C474 0.931 . S
H493 C478 0.929 . S
H494 C480 0.930 . S
Co495 N499 2.148 1_556 S
Co495 N505 2.128 . S
Co495 N515 2.194 . S
Co495 O520 2.351 . S
Co495 O521 2.155 . S
Co495 O522 2.096 . S
C496 N499 1.301 . S
C496 N500 1.328 . S
C496 H501 0.930 . S
C497 C498 1.333 . S
C497 N499 1.317 . S
C497 H502 0.930 . S
C498 C497 1.333 . S
C498 N500 1.350 . S
C498 H524 0.931 . S
N499 Co495 2.148 1_554 S
N499 C496 1.301 . S
N499 C497 1.317 . S
N500 C496 1.328 . S
N500 C498 1.350 . S
H501 C496 0.930 . S
H502 C497 0.930 . S
C503 O504 1.224 . S
C503 O522 1.247 . S
O504 C503 1.224 . S
N505 Co495 2.128 . S
N505 C506 1.355 . S
N505 C508 1.311 . S
C506 N505 1.355 . S
C506 C507 1.363 . S
C506 H518 0.929 . S
C507 C506 1.363 . S
C507 N509 1.375 . S
C507 H525 0.931 . S
C508 N505 1.311 . S
C508 N509 1.347 . S
C508 H519 0.929 . S
N509 C507 1.375 . S
N509 C508 1.347 . S
C510 C513 1.365 . S
C510 N515 1.328 . S
C510 H516 0.929 . S
C511 C512 1.362 . S
C511 C514 1.378 . S
C511 H526 0.929 . S
C512 C511 1.362 . S
C512 C513 1.366 . S
C513 C510 1.365 . S
C513 C512 1.366 . S
C513 H527 0.930 . S
C514 C511 1.378 . S
C514 N515 1.315 . S
C514 H517 0.930 . S
N515 Co495 2.194 . S
N515 C510 1.328 . S
N515 C514 1.315 . S
H516 C510 0.929 . S
H517 C514 0.930 . S
H518 C506 0.929 . S
H519 C508 0.929 . S
O520 Co495 2.351 . S
O520 C523 1.244 . S
O521 Co495 2.155 . S
O521 C523 1.240 . S
O522 Co495 2.096 . S
O522 C503 1.247 . S
C523 O520 1.244 . S
C523 O521 1.240 . S
H524 C498 0.931 . S
H525 C507 0.931 . S
H526 C511 0.929 . S
H527 C513 0.930 . S
H528 C536 0.950 . S
H529 C541 0.950 . S
H530 C538 0.950 . S
H531 C540 0.950 . S
H532 C542 0.950 . S
H533 C544 0.950 . S
H534 C546 0.950 . S
H535 C547 0.950 . S
C536 H528 0.950 . S
C536 C537 1.386 . S
C536 C538 1.391 . S
C537 C536 1.386 . S
C537 C541 1.393 . S
C538 H530 0.950 . S
C538 C536 1.391 . S
C538 C539 1.400 . S
C539 C538 1.400 . S
C539 C540 1.398 . S
C539 C545 1.491 . S
C540 H531 0.950 . S
C540 C539 1.398 . S
C540 C541 1.391 . S
C541 H529 0.950 . S
C541 C537 1.393 . S
C541 C540 1.391 . S
C542 H532 0.950 . S
C542 C543 1.386 . S
C542 C544 1.391 . S
C543 C542 1.386 . S
C543 C547 1.393 . S
C544 H533 0.950 . S
C544 C542 1.391 . S
C544 C545 1.400 . S
C545 C539 1.491 . S
C545 C544 1.400 . S
C545 C546 1.398 . S
C546 H534 0.950 . S
C546 C545 1.398 . S
C546 C547 1.391 . S
C547 H535 0.950 . S
C547 C543 1.393 . S
C547 C546 1.391 . S
H548 C556 0.950 1_554 S
H549 C561 0.950 1_554 S
H550 C558 0.950 . S
H551 C560 0.950 . S
H552 C562 0.950 . S
H553 C564 0.950 . S
H554 C566 0.950 . S
H555 C567 0.950 . S
C556 H548 0.950 1_556 S
C556 C557 1.386 1_556 S
C556 C558 1.391 . S
C557 C556 1.386 1_554 S
C557 C561 1.393 1_554 S
C558 H550 0.950 . S
C558 C556 1.391 . S
C558 C559 1.400 . S
C559 C558 1.400 . S
C559 C560 1.398 . S
C559 C565 1.491 . S
C560 H551 0.950 . S
C560 C559 1.398 . S
C560 C561 1.391 . S
C561 H549 0.950 1_556 S
C561 C557 1.393 1_556 S
C561 C560 1.391 . S
C562 H552 0.950 . S
C562 C563 1.386 . S
C562 C564 1.391 . S
C563 C562 1.386 . S
C563 C567 1.393 . S
C564 H553 0.950 . S
C564 C562 1.391 . S
C564 C565 1.400 . S
C565 C559 1.491 . S
C565 C564 1.400 . S
C565 C566 1.398 . S
C566 H554 0.950 . S
C566 C565 1.398 . S
C566 C567 1.391 . S
C567 H555 0.950 . S
C567 C563 1.393 . S
C567 C566 1.391 . S
H568 C576 0.950 . S
H569 C581 0.950 . S
H570 C578 0.950 . S
H571 C580 0.950 . S
H572 C582 0.950 . S
H573 C584 0.950 . S
H574 C586 0.950 . S
H575 C587 0.950 . S
C576 H568 0.950 . S
C576 C577 1.386 . S
C576 C578 1.391 . S
C577 C576 1.386 . S
C577 C581 1.393 . S
C578 H570 0.950 . S
C578 C576 1.391 . S
C578 C579 1.400 . S
C579 C578 1.400 . S
C579 C580 1.398 . S
C579 C585 1.491 . S
C580 H571 0.950 . S
C580 C579 1.398 . S
C580 C581 1.391 . S
C581 H569 0.950 . S
C581 C577 1.393 . S
C581 C580 1.391 . S
C582 H572 0.950 . S
C582 C583 1.386 . S
C582 C584 1.391 1_556 S
C583 C582 1.386 . S
C583 C587 1.393 . S
C584 H573 0.950 . S
C584 C582 1.391 1_554 S
C584 C585 1.400 . S
C585 C579 1.491 . S
C585 C584 1.400 . S
C585 C586 1.398 . S
C586 H574 0.950 . S
C586 C585 1.398 . S
C586 C587 1.391 1_554 S
C587 H575 0.950 . S
C587 C583 1.393 . S
C587 C586 1.391 1_556 S
H588 C596 0.950 . S
H589 C601 0.950 . S
H590 C598 0.950 . S
H591 C600 0.950 . S
H592 C602 0.950 . S
H593 C604 0.950 . S
H594 C606 0.950 . S
H595 C607 0.950 . S
C596 H588 0.950 . S
C596 C597 1.386 . S
C596 C598 1.391 . S
C597 C596 1.386 . S
C597 C601 1.393 . S
C598 H590 0.950 . S
C598 C596 1.391 . S
C598 C599 1.400 . S
C599 C598 1.400 . S
C599 C600 1.398 . S
C599 C605 1.491 . S
C600 H591 0.950 . S
C600 C599 1.398 . S
C600 C601 1.391 . S
C601 H589 0.950 . S
C601 C597 1.393 . S
C601 C600 1.391 . S
C602 H592 0.950 . S
C602 C603 1.386 . S
C602 C604 1.391 . S
C603 C602 1.386 . S
C603 C607 1.393 . S
C604 H593 0.950 . S
C604 C602 1.391 . S
C604 C605 1.400 . S
C605 C599 1.491 . S
C605 C604 1.400 . S
C605 C606 1.398 . S
C606 H594 0.950 . S
C606 C605 1.398 . S
C606 C607 1.391 . S
C607 H595 0.950 . S
C607 C603 1.393 . S
C607 C606 1.391 . S
H608 C616 0.950 . S
H609 C621 0.950 . S
H610 C618 0.950 . S
H611 C620 0.950 . S
H612 C622 0.950 . S
H613 C624 0.950 . S
H614 C626 0.950 . S
H615 C627 0.950 . S
C616 H608 0.950 . S
C616 C617 1.386 . S
C616 C618 1.391 . S
C617 C616 1.386 . S
C617 C621 1.393 . S
C618 H610 0.950 . S
C618 C616 1.391 . S
C618 C619 1.400 . S
C619 C618 1.400 . S
C619 C620 1.398 . S
C619 C625 1.491 . S
C620 H611 0.950 . S
C620 C619 1.398 . S
C620 C621 1.391 . S
C621 H609 0.950 . S
C621 C617 1.393 . S
C621 C620 1.391 . S
C622 H612 0.950 . S
C622 C623 1.386 . S
C622 C624 1.391 . S
C623 C622 1.386 . S
C623 C627 1.393 . S
C624 H613 0.950 . S
C624 C622 1.391 . S
C624 C625 1.400 . S
C625 C619 1.491 . S
C625 C624 1.400 . S
C625 C626 1.398 . S
C626 H614 0.950 . S
C626 C625 1.398 . S
C626 C627 1.391 . S
C627 H615 0.950 . S
C627 C623 1.393 . S
C627 C626 1.391 . S
H628 C636 0.950 . S
H629 C641 0.950 . S
H630 C638 0.950 . S
H631 C640 0.950 . S
H632 C642 0.950 . S
H633 C644 0.950 . S
H634 C646 0.950 . S
H635 C647 0.950 . S
C636 H628 0.950 . S
C636 C637 1.386 . S
C636 C638 1.391 . S
C637 C636 1.386 . S
C637 C641 1.393 . S
C638 H630 0.950 . S
C638 C636 1.391 . S
C638 C639 1.400 . S
C639 C638 1.400 . S
C639 C640 1.398 . S
C639 C645 1.491 . S
C640 H631 0.950 . S
C640 C639 1.398 . S
C640 C641 1.391 . S
C641 H629 0.950 . S
C641 C637 1.393 . S
C641 C640 1.391 . S
C642 H632 0.950 . S
C642 C643 1.386 . S
C642 C644 1.391 . S
C643 C642 1.386 . S
C643 C647 1.393 . S
C644 H633 0.950 . S
C644 C642 1.391 . S
C644 C645 1.400 . S
C645 C639 1.491 . S
C645 C644 1.400 . S
C645 C646 1.398 . S
C646 H634 0.950 . S
C646 C645 1.398 . S
C646 C647 1.391 . S
C647 H635 0.950 . S
C647 C643 1.393 . S
C647 C646 1.391 . S
H648 C656 0.950 . S
H649 C661 0.950 . S
H650 C658 0.950 . S
H651 C660 0.950 . S
H652 C662 0.950 . S
H653 C664 0.950 . S
H654 C666 0.950 . S
H655 C667 0.950 . S
C656 H648 0.950 . S
C656 C657 1.386 . S
C656 C658 1.391 . S
C657 C656 1.386 . S
C657 C661 1.393 . S
C658 H650 0.950 . S
C658 C656 1.391 . S
C658 C659 1.400 . S
C659 C658 1.400 . S
C659 C660 1.398 . S
C659 C665 1.491 . S
C660 H651 0.950 . S
C660 C659 1.398 . S
C660 C661 1.391 . S
C661 H649 0.950 . S
C661 C657 1.393 . S
C661 C660 1.391 . S
C662 H652 0.950 . S
C662 C663 1.386 . S
C662 C664 1.391 1_554 S
C663 C662 1.386 . S
C663 C667 1.393 . S
C664 H653 0.950 . S
C664 C662 1.391 1_556 S
C664 C665 1.400 . S
C665 C659 1.491 . S
C665 C664 1.400 . S
C665 C666 1.398 . S
C666 H654 0.950 . S
C666 C665 1.398 . S
C666 C667 1.391 1_556 S
C667 H655 0.950 . S
C667 C663 1.393 . S
C667 C666 1.391 1_554 S
H668 C676 0.950 . S
H669 C681 0.950 . S
H670 C678 0.950 . S
H671 C680 0.950 . S
H672 C682 0.950 1_556 S
H673 C684 0.950 . S
H674 C686 0.950 . S
H675 C687 0.950 1_556 S
C676 H668 0.950 . S
C676 C677 1.386 . S
C676 C678 1.391 . S
C677 C676 1.386 . S
C677 C681 1.393 . S
C678 H670 0.950 . S
C678 C676 1.391 . S
C678 C679 1.400 . S
C679 C678 1.400 . S
C679 C680 1.398 . S
C679 C685 1.491 . S
C680 H671 0.950 . S
C680 C679 1.398 . S
C680 C681 1.391 . S
C681 H669 0.950 . S
C681 C677 1.393 . S
C681 C680 1.391 . S
C682 H672 0.950 1_554 S
C682 C683 1.386 1_554 S
C682 C684 1.391 . S
C683 C682 1.386 1_556 S
C683 C687 1.393 1_556 S
C684 H673 0.950 . S
C684 C682 1.391 . S
C684 C685 1.400 . S
C685 C679 1.491 . S
C685 C684 1.400 . S
C685 C686 1.398 . S
C686 H674 0.950 . S
C686 C685 1.398 . S
C686 C687 1.391 . S
C687 H675 0.950 1_554 S
C687 C683 1.393 1_554 S
C687 C686 1.391 . S
H688 C696 0.950 . S
H689 C701 0.950 . S
H690 C698 0.950 . S
H691 C700 0.950 . S
H692 C702 0.950 1_556 S
H693 C704 0.950 . S
H694 C706 0.950 . S
H695 C707 0.950 1_556 S
C696 H688 0.950 . S
C696 C697 1.386 . S
C696 C698 1.391 . S
C697 C696 1.386 . S
C697 C701 1.393 . S
C698 H690 0.950 . S
C698 C696 1.391 . S
C698 C699 1.400 . S
C699 C698 1.400 . S
C699 C700 1.398 . S
C699 C705 1.491 . S
C700 H691 0.950 . S
C700 C699 1.398 . S
C700 C701 1.391 . S
C701 H689 0.950 . S
C701 C697 1.393 . S
C701 C700 1.391 . S
C702 H692 0.950 1_554 S
C702 C703 1.386 1_554 S
C702 C704 1.391 . S
C703 C702 1.386 1_556 S
C703 C707 1.393 1_556 S
C704 H693 0.950 . S
C704 C702 1.391 . S
C704 C705 1.400 . S
C705 C699 1.491 . S
C705 C704 1.400 . S
C705 C706 1.398 . S
C706 H694 0.950 . S
C706 C705 1.398 . S
C706 C707 1.391 . S
C707 H695 0.950 1_554 S
C707 C703 1.393 1_554 S
C707 C706 1.391 . S
H708 C716 0.950 . S
H709 C721 0.950 . S
H710 C718 0.950 . S
H711 C720 0.950 . S
H712 C722 0.950 . S
H713 C724 0.950 . S
H714 C726 0.950 . S
H715 C727 0.950 . S
C716 H708 0.950 . S
C716 C717 1.386 . S
C716 C718 1.391 . S
C717 C716 1.386 . S
C717 C721 1.393 . S
C718 H710 0.950 . S
C718 C716 1.391 . S
C718 C719 1.400 . S
C719 C718 1.400 . S
C719 C720 1.398 . S
C719 C725 1.491 . S
C720 H711 0.950 . S
C720 C719 1.398 . S
C720 C721 1.391 . S
C721 H709 0.950 . S
C721 C717 1.393 . S
C721 C720 1.391 . S
C722 H712 0.950 . S
C722 C723 1.386 . S
C722 C724 1.391 . S
C723 C722 1.386 . S
C723 C727 1.393 . S
C724 H713 0.950 . S
C724 C722 1.391 . S
C724 C725 1.400 . S
C725 C719 1.491 . S
C725 C724 1.400 . S
C725 C726 1.398 . S
C726 H714 0.950 . S
C726 C725 1.398 . S
C726 C727 1.391 . S
C727 H715 0.950 . S
C727 C723 1.393 . S
C727 C726 1.391 . S
H728 C736 0.950 . S
H729 C741 0.950 . S
H730 C738 0.950 . S
H731 C740 0.950 . S
H732 C742 0.950 . S
H733 C744 0.950 . S
H734 C746 0.950 . S
H735 C747 0.950 . S
C736 H728 0.950 . S
C736 C737 1.386 . S
C736 C738 1.391 . S
C737 C736 1.386 . S
C737 C741 1.393 . S
C738 H730 0.950 . S
C738 C736 1.391 . S
C738 C739 1.400 . S
C739 C738 1.400 . S
C739 C740 1.398 . S
C739 C745 1.491 . S
C740 H731 0.950 . S
C740 C739 1.398 . S
C740 C741 1.391 . S
C741 H729 0.950 . S
C741 C737 1.393 . S
C741 C740 1.391 . S
C742 H732 0.950 . S
C742 C743 1.386 . S
C742 C744 1.391 . S
C743 C742 1.386 . S
C743 C747 1.393 . S
C744 H733 0.950 . S
C744 C742 1.391 . S
C744 C745 1.400 . S
C745 C739 1.491 . S
C745 C744 1.400 . S
C745 C746 1.398 . S
C746 H734 0.950 . S
C746 C745 1.398 . S
C746 C747 1.391 . S
C747 H735 0.950 . S
C747 C743 1.393 . S
C747 C746 1.391 . S
H748 C756 0.950 . S
H749 C761 0.950 . S
H750 C758 0.950 . S
H751 C760 0.950 . S
H752 C762 0.950 1_554 S
H753 C764 0.950 . S
H754 C766 0.950 . S
H755 C767 0.950 1_554 S
C756 H748 0.950 . S
C756 C757 1.386 . S
C756 C758 1.391 . S
C757 C756 1.386 . S
C757 C761 1.393 . S
C758 H750 0.950 . S
C758 C756 1.391 . S
C758 C759 1.400 . S
C759 C758 1.400 . S
C759 C760 1.398 . S
C759 C765 1.491 . S
C760 H751 0.950 . S
C760 C759 1.398 . S
C760 C761 1.391 . S
C761 H749 0.950 . S
C761 C757 1.393 . S
C761 C760 1.391 . S
C762 H752 0.950 1_556 S
C762 C763 1.386 1_556 S
C762 C764 1.391 . S
C763 C762 1.386 1_554 S
C763 C767 1.393 1_554 S
C764 H753 0.950 . S
C764 C762 1.391 . S
C764 C765 1.400 . S
C765 C759 1.491 . S
C765 C764 1.400 . S
C765 C766 1.398 . S
C766 H754 0.950 . S
C766 C765 1.398 . S
C766 C767 1.391 . S
C767 H755 0.950 1_556 S
C767 C763 1.393 1_556 S
C767 C766 1.391 . S
H768 C776 0.950 . S
H769 C781 0.950 . S
H770 C778 0.950 . S
H771 C780 0.950 . S
H772 C782 0.950 . S
H773 C784 0.950 . S
H774 C786 0.950 . S
H775 C787 0.950 . S
C776 H768 0.950 . S
C776 C777 1.386 . S
C776 C778 1.391 1_556 S
C777 C776 1.386 . S
C777 C781 1.393 . S
C778 H770 0.950 . S
C778 C776 1.391 1_554 S
C778 C779 1.400 . S
C779 C778 1.400 . S
C779 C780 1.398 . S
C779 C785 1.491 . S
C780 H771 0.950 . S
C780 C779 1.398 . S
C780 C781 1.391 1_554 S
C781 H769 0.950 . S
C781 C777 1.393 . S
C781 C780 1.391 1_556 S
C782 H772 0.950 . S
C782 C783 1.386 . S
C782 C784 1.391 . S
C783 C782 1.386 . S
C783 C787 1.393 . S
C784 H773 0.950 . S
C784 C782 1.391 . S
C784 C785 1.400 . S
C785 C779 1.491 . S
C785 C784 1.400 . S
C785 C786 1.398 . S
C786 H774 0.950 . S
C786 C785 1.398 . S
C786 C787 1.391 . S
C787 H775 0.950 . S
C787 C783 1.393 . S
C787 C786 1.391 . S
H788 C796 0.950 . S
H789 C801 0.950 . S
H790 C798 0.950 . S
H791 C800 0.950 . S
H792 C802 0.950 . S
H793 C804 0.950 . S
H794 C806 0.950 . S
H795 C807 0.950 . S
C796 H788 0.950 . S
C796 C797 1.386 . S
C796 C798 1.391 . S
C797 C796 1.386 . S
C797 C801 1.393 . S
C798 H790 0.950 . S
C798 C796 1.391 . S
C798 C799 1.400 . S
C799 C798 1.400 . S
C799 C800 1.398 . S
C799 C805 1.491 . S
C800 H791 0.950 . S
C800 C799 1.398 . S
C800 C801 1.391 . S
C801 H789 0.950 . S
C801 C797 1.393 . S
C801 C800 1.391 . S
C802 H792 0.950 . S
C802 C803 1.386 . S
C802 C804 1.391 . S
C803 C802 1.386 . S
C803 C807 1.393 . S
C804 H793 0.950 . S
C804 C802 1.391 . S
C804 C805 1.400 . S
C805 C799 1.491 . S
C805 C804 1.400 . S
C805 C806 1.398 . S
C806 H794 0.950 . S
C806 C805 1.398 . S
C806 C807 1.391 . S
C807 H795 0.950 . S
C807 C803 1.393 . S
C807 C806 1.391 . S
H808 C816 0.950 . S
H809 C821 0.950 . S
H810 C818 0.950 . S
H811 C820 0.950 . S
H812 C822 0.950 . S
H813 C824 0.950 . S
H814 C826 0.950 . S
H815 C827 0.950 . S
C816 H808 0.950 . S
C816 C817 1.386 . S
C816 C818 1.391 1_554 S
C817 C816 1.386 . S
C817 C821 1.393 . S
C818 H810 0.950 . S
C818 C816 1.391 1_556 S
C818 C819 1.400 . S
C819 C818 1.400 . S
C819 C820 1.398 . S
C819 C825 1.491 . S
C820 H811 0.950 . S
C820 C819 1.398 . S
C820 C821 1.391 1_556 S
C821 H809 0.950 . S
C821 C817 1.393 . S
C821 C820 1.391 1_554 S
C822 H812 0.950 . S
C822 C823 1.386 . S
C822 C824 1.391 . S
C823 C822 1.386 . S
C823 C827 1.393 . S
C824 H813 0.950 . S
C824 C822 1.391 . S
C824 C825 1.400 . S
C825 C819 1.491 . S
C825 C824 1.400 . S
C825 C826 1.398 . S
C826 H814 0.950 . S
C826 C825 1.398 . S
C826 C827 1.391 . S
C827 H815 0.950 . S
C827 C823 1.393 . S
C827 C826 1.391 . S
H828 C836 0.950 . S
H829 C841 0.950 . S
H830 C838 0.950 . S
H831 C840 0.950 . S
H832 C842 0.950 . S
H833 C844 0.950 . S
H834 C846 0.950 . S
H835 C847 0.950 . S
C836 H828 0.950 . S
C836 C837 1.386 . S
C836 C838 1.391 . S
C837 C836 1.386 . S
C837 C841 1.393 . S
C838 H830 0.950 . S
C838 C836 1.391 . S
C838 C839 1.400 . S
C839 C838 1.400 . S
C839 C840 1.398 . S
C839 C845 1.491 . S
C840 H831 0.950 . S
C840 C839 1.398 . S
C840 C841 1.391 . S
C841 H829 0.950 . S
C841 C837 1.393 . S
C841 C840 1.391 . S
C842 H832 0.950 . S
C842 C843 1.386 . S
C842 C844 1.391 . S
C843 C842 1.386 . S
C843 C847 1.393 . S
C844 H833 0.950 . S
C844 C842 1.391 . S
C844 C845 1.400 . S
C845 C839 1.491 . S
C845 C844 1.400 . S
C845 C846 1.398 . S
C846 H834 0.950 . S
C846 C845 1.398 . S
C846 C847 1.391 . S
C847 H835 0.950 . S
C847 C843 1.393 . S
C847 C846 1.391 . S
H848 C856 0.950 . S
H849 C861 0.950 . S
H850 C858 0.950 . S
H851 C860 0.950 . S
H852 C862 0.950 . S
H853 C864 0.950 . S
H854 C866 0.950 . S
H855 C867 0.950 . S
C856 H848 0.950 . S
C856 C857 1.386 . S
C856 C858 1.391 . S
C857 C856 1.386 . S
C857 C861 1.393 1_554 S
C858 H850 0.950 . S
C858 C856 1.391 . S
C858 C859 1.400 . S
C859 C858 1.400 . S
C859 C860 1.398 1_554 S
C859 C865 1.491 1_554 S
C860 H851 0.950 . S
C860 C859 1.398 1_556 S
C860 C861 1.391 . S
C861 H849 0.950 . S
C861 C857 1.393 1_556 S
C861 C860 1.391 . S
C862 H852 0.950 . S
C862 C863 1.386 . S
C862 C864 1.391 . S
C863 C862 1.386 . S
C863 C867 1.393 1_556 S
C864 H853 0.950 . S
C864 C862 1.391 . S
C864 C865 1.400 . S
C865 C859 1.491 1_556 S
C865 C864 1.400 . S
C865 C866 1.398 1_556 S
C866 H854 0.950 . S
C866 C865 1.398 1_554 S
C866 C867 1.391 . S
C867 H855 0.950 . S
C867 C863 1.393 1_554 S
C867 C866 1.391 . S
H868 C876 0.950 . S
H869 C881 0.950 . S
H870 C878 0.950 . S
H871 C880 0.950 . S
H872 C882 0.950 . S
H873 C884 0.950 . S
H874 C886 0.950 . S
H875 C887 0.950 . S
C876 H868 0.950 . S
C876 C877 1.386 . S
C876 C878 1.391 . S
C877 C876 1.386 . S
C877 C881 1.393 . S
C878 H870 0.950 . S
C878 C876 1.391 . S
C878 C879 1.400 . S
C879 C878 1.400 . S
C879 C880 1.398 . S
C879 C885 1.491 . S
C880 H871 0.950 . S
C880 C879 1.398 . S
C880 C881 1.391 . S
C881 H869 0.950 . S
C881 C877 1.393 . S
C881 C880 1.391 . S
C882 H872 0.950 . S
C882 C883 1.386 . S
C882 C884 1.391 . S
C883 C882 1.386 . S
C883 C887 1.393 . S
C884 H873 0.950 . S
C884 C882 1.391 . S
C884 C885 1.400 . S
C885 C879 1.491 . S
C885 C884 1.400 . S
C885 C886 1.398 . S
C886 H874 0.950 . S
C886 C885 1.398 . S
C886 C887 1.391 . S
C887 H875 0.950 . S
C887 C883 1.393 . S
C887 C886 1.391 . S
H888 C896 0.950 . S
H889 C901 0.950 . S
H890 C898 0.950 . S
H891 C900 0.950 . S
H892 C902 0.950 . S
H893 C904 0.950 . S
H894 C906 0.950 . S
H895 C907 0.950 . S
C896 H888 0.950 . S
C896 C897 1.386 . S
C896 C898 1.391 . S
C897 C896 1.386 . S
C897 C901 1.393 . S
C898 H890 0.950 . S
C898 C896 1.391 . S
C898 C899 1.400 . S
C899 C898 1.400 . S
C899 C900 1.398 . S
C899 C905 1.491 . S
C900 H891 0.950 . S
C900 C899 1.398 . S
C900 C901 1.391 . S
C901 H889 0.950 . S
C901 C897 1.393 . S
C901 C900 1.391 . S
C902 H892 0.950 . S
C902 C903 1.386 . S
C902 C904 1.391 . S
C903 C902 1.386 . S
C903 C907 1.393 . S
C904 H893 0.950 . S
C904 C902 1.391 . S
C904 C905 1.400 . S
C905 C899 1.491 . S
C905 C904 1.400 . S
C905 C906 1.398 . S
C906 H894 0.950 . S
C906 C905 1.398 . S
C906 C907 1.391 . S
C907 H895 0.950 . S
C907 C903 1.393 . S
C907 C906 1.391 . S
H908 C916 0.950 . S
H909 C921 0.950 . S
H910 C918 0.950 . S
H911 C920 0.950 . S
H912 C922 0.950 . S
H913 C924 0.950 . S
H914 C926 0.950 . S
H915 C927 0.950 . S
C916 H908 0.950 . S
C916 C917 1.386 . S
C916 C918 1.391 . S
C917 C916 1.386 . S
C917 C921 1.393 . S
C918 H910 0.950 . S
C918 C916 1.391 . S
C918 C919 1.400 . S
C919 C918 1.400 . S
C919 C920 1.398 . S
C919 C925 1.491 . S
C920 H911 0.950 . S
C920 C919 1.398 . S
C920 C921 1.391 . S
C921 H909 0.950 . S
C921 C917 1.393 . S
C921 C920 1.391 . S
C922 H912 0.950 . S
C922 C923 1.386 . S
C922 C924 1.391 . S
C923 C922 1.386 . S
C923 C927 1.393 . S
C924 H913 0.950 . S
C924 C922 1.391 . S
C924 C925 1.400 . S
C925 C919 1.491 . S
C925 C924 1.400 . S
C925 C926 1.398 . S
C926 H914 0.950 . S
C926 C925 1.398 . S
C926 C927 1.391 . S
C927 H915 0.950 . S
C927 C923 1.393 . S
C927 C926 1.391 . S
H928 C936 0.950 . S
H929 C941 0.950 . S
H930 C938 0.950 . S
H931 C940 0.950 . S
H932 C942 0.950 . S
H933 C944 0.950 . S
H934 C946 0.950 . S
H935 C947 0.950 . S
C936 H928 0.950 . S
C936 C937 1.386 . S
C936 C938 1.391 . S
C937 C936 1.386 . S
C937 C941 1.393 . S
C938 H930 0.950 . S
C938 C936 1.391 . S
C938 C939 1.400 . S
C939 C938 1.400 . S
C939 C940 1.398 . S
C939 C945 1.491 . S
C940 H931 0.950 . S
C940 C939 1.398 . S
C940 C941 1.391 . S
C941 H929 0.950 . S
C941 C937 1.393 . S
C941 C940 1.391 . S
C942 H932 0.950 . S
C942 C943 1.386 . S
C942 C944 1.391 . S
C943 C942 1.386 . S
C943 C947 1.393 . S
C944 H933 0.950 . S
C944 C942 1.391 . S
C944 C945 1.400 . S
C945 C939 1.491 . S
C945 C944 1.400 . S
C945 C946 1.398 . S
C946 H934 0.950 . S
C946 C945 1.398 . S
C946 C947 1.391 . S
C947 H935 0.950 . S
C947 C943 1.393 . S
C947 C946 1.391 . S
H948 C956 0.950 . S
H949 C961 0.950 . S
H950 C958 0.950 . S
H951 C960 0.950 . S
H952 C962 0.950 . S
H953 C964 0.950 . S
H954 C966 0.950 . S
H955 C967 0.950 . S
C956 H948 0.950 . S
C956 C957 1.386 . S
C956 C958 1.391 . S
C957 C956 1.386 . S
C957 C961 1.393 . S
C958 H950 0.950 . S
C958 C956 1.391 . S
C958 C959 1.400 . S
C959 C958 1.400 . S
C959 C960 1.398 . S
C959 C965 1.491 . S
C960 H951 0.950 . S
C960 C959 1.398 . S
C960 C961 1.391 . S
C961 H949 0.950 . S
C961 C957 1.393 . S
C961 C960 1.391 . S
C962 H952 0.950 . S
C962 C963 1.386 . S
C962 C964 1.391 . S
C963 C962 1.386 . S
C963 C967 1.393 . S
C964 H953 0.950 . S
C964 C962 1.391 . S
C964 C965 1.400 . S
C965 C959 1.491 . S
C965 C964 1.400 . S
C965 C966 1.398 . S
C966 H954 0.950 . S
C966 C965 1.398 . S
C966 C967 1.391 . S
C967 H955 0.950 . S
C967 C963 1.393 . S
C967 C966 1.391 . S
H968 C976 0.950 . S
H969 C981 0.950 . S
H970 C978 0.950 . S
H971 C980 0.950 . S
H972 C982 0.950 . S
H973 C984 0.950 . S
H974 C986 0.950 . S
H975 C987 0.950 . S
C976 H968 0.950 . S
C976 C977 1.386 . S
C976 C978 1.391 . S
C977 C976 1.386 . S
C977 C981 1.393 . S
C978 H970 0.950 . S
C978 C976 1.391 . S
C978 C979 1.400 . S
C979 C978 1.400 . S
C979 C980 1.398 . S
C979 C985 1.491 1_545 S
C980 H971 0.950 . S
C980 C979 1.398 . S
C980 C981 1.391 . S
C981 H969 0.950 . S
C981 C977 1.393 . S
C981 C980 1.391 . S
C982 H972 0.950 . S
C982 C983 1.386 . S
C982 C984 1.391 . S
C983 C982 1.386 . S
C983 C987 1.393 . S
C984 H973 0.950 . S
C984 C982 1.391 . S
C984 C985 1.400 . S
C985 C979 1.491 1_565 S
C985 C984 1.400 . S
C985 C986 1.398 . S
C986 H974 0.950 . S
C986 C985 1.398 . S
C986 C987 1.391 . S
C987 H975 0.950 . S
C987 C983 1.393 . S
C987 C986 1.391 . S
H988 C996 0.950 . S
H989 C1001 0.950 . S
H990 C998 0.950 . S
H991 C1000 0.950 . S
H992 C1002 0.950 . S
H993 C1004 0.950 . S
H994 C1006 0.950 . S
H995 C1007 0.950 . S
C996 H988 0.950 . S
C996 C997 1.386 1_556 S
C996 C998 1.391 . S
C997 C996 1.386 1_554 S
C997 C1001 1.393 . S
C998 H990 0.950 . S
C998 C996 1.391 . S
C998 C999 1.400 1_556 S
C999 C998 1.400 1_554 S
C999 C1000 1.398 . S
C999 C1005 1.491 1_564 S
C1000 H991 0.950 . S
C1000 C999 1.398 . S
C1000 C1001 1.391 . S
C1001 H989 0.950 . S
C1001 C997 1.393 . S
C1001 C1000 1.391 . S
C1002 H992 0.950 . S
C1002 C1003 1.386 1_554 S
C1002 C1004 1.391 . S
C1003 C1002 1.386 1_556 S
C1003 C1007 1.393 . S
C1004 H993 0.950 . S
C1004 C1002 1.391 . S
C1004 C1005 1.400 1_554 S
C1005 C999 1.491 1_546 S
C1005 C1004 1.400 1_556 S
C1005 C1006 1.398 . S
C1006 H994 0.950 . S
C1006 C1005 1.398 . S
C1006 C1007 1.391 . S
C1007 H995 0.950 . S
C1007 C1003 1.393 . S
C1007 C1006 1.391 . S
H1008 C1016 0.950 . S
H1009 C1021 0.950 . S
H1010 C1018 0.950 . S
H1011 C1020 0.950 . S
H1012 C1022 0.950 . S
H1013 C1024 0.950 . S
H1014 C1026 0.950 . S
H1015 C1027 0.950 . S
C1016 H1008 0.950 . S
C1016 C1017 1.386 . S
C1016 C1018 1.391 . S
C1017 C1016 1.386 . S
C1017 C1021 1.393 . S
C1018 H1010 0.950 . S
C1018 C1016 1.391 . S
C1018 C1019 1.400 . S
C1019 C1018 1.400 . S
C1019 C1020 1.398 . S
C1019 C1025 1.491 . S
C1020 H1011 0.950 . S
C1020 C1019 1.398 . S
C1020 C1021 1.391 . S
C1021 H1009 0.950 . S
C1021 C1017 1.393 . S
C1021 C1020 1.391 . S
C1022 H1012 0.950 . S
C1022 C1023 1.386 . S
C1022 C1024 1.391 . S
C1023 C1022 1.386 . S
C1023 C1027 1.393 . S
C1024 H1013 0.950 . S
C1024 C1022 1.391 . S
C1024 C1025 1.400 . S
C1025 C1019 1.491 . S
C1025 C1024 1.400 . S
C1025 C1026 1.398 . S
C1026 H1014 0.950 . S
C1026 C1025 1.398 . S
C1026 C1027 1.391 . S
C1027 H1015 0.950 . S
C1027 C1023 1.393 . S
C1027 C1026 1.391 . S
H1028 C1036 0.950 . S
H1029 C1041 0.950 . S
H1030 C1038 0.950 . S
H1031 C1040 0.950 . S
H1032 C1042 0.950 . S
H1033 C1044 0.950 . S
H1034 C1046 0.950 . S
H1035 C1047 0.950 . S
C1036 H1028 0.950 . S
C1036 C1037 1.386 . S
C1036 C1038 1.391 . S
C1037 C1036 1.386 . S
C1037 C1041 1.393 . S
C1038 H1030 0.950 . S
C1038 C1036 1.391 . S
C1038 C1039 1.400 . S
C1039 C1038 1.400 . S
C1039 C1040 1.398 . S
C1039 C1045 1.491 . S
C1040 H1031 0.950 . S
C1040 C1039 1.398 . S
C1040 C1041 1.391 . S
C1041 H1029 0.950 . S
C1041 C1037 1.393 . S
C1041 C1040 1.391 . S
C1042 H1032 0.950 . S
C1042 C1043 1.386 . S
C1042 C1044 1.391 . S
C1043 C1042 1.386 . S
C1043 C1047 1.393 . S
C1044 H1033 0.950 . S
C1044 C1042 1.391 . S
C1044 C1045 1.400 . S
C1045 C1039 1.491 . S
C1045 C1044 1.400 . S
C1045 C1046 1.398 . S
C1046 H1034 0.950 . S
C1046 C1045 1.398 . S
C1046 C1047 1.391 . S
C1047 H1035 0.950 . S
C1047 C1043 1.393 . S
C1047 C1046 1.391 . S
H1048 C1056 0.950 . S
H1049 C1061 0.950 . S
H1050 C1058 0.950 . S
H1051 C1060 0.950 . S
H1052 C1062 0.950 . S
H1053 C1064 0.950 . S
H1054 C1066 0.950 . S
H1055 C1067 0.950 . S
C1056 H1048 0.950 . S
C1056 C1057 1.386 . S
C1056 C1058 1.391 . S
C1057 C1056 1.386 . S
C1057 C1061 1.393 . S
C1058 H1050 0.950 . S
C1058 C1056 1.391 . S
C1058 C1059 1.400 . S
C1059 C1058 1.400 . S
C1059 C1060 1.398 . S
C1059 C1065 1.491 . S
C1060 H1051 0.950 . S
C1060 C1059 1.398 . S
C1060 C1061 1.391 . S
C1061 H1049 0.950 . S
C1061 C1057 1.393 . S
C1061 C1060 1.391 . S
C1062 H1052 0.950 . S
C1062 C1063 1.386 . S
C1062 C1064 1.391 . S
C1063 C1062 1.386 . S
C1063 C1067 1.393 . S
C1064 H1053 0.950 . S
C1064 C1062 1.391 . S
C1064 C1065 1.400 . S
C1065 C1059 1.491 . S
C1065 C1064 1.400 . S
C1065 C1066 1.398 . S
C1066 H1054 0.950 . S
C1066 C1065 1.398 . S
C1066 C1067 1.391 . S
C1067 H1055 0.950 . S
C1067 C1063 1.393 . S
C1067 C1066 1.391 . S
H1068 C1076 0.950 . S
H1069 C1081 0.950 1_455 S
H1070 C1078 0.950 . S
H1071 C1080 0.950 . S
H1072 C1082 0.950 . S
H1073 C1084 0.950 . S
H1074 C1086 0.950 . S
H1075 C1087 0.950 . S
C1076 H1068 0.950 . S
C1076 C1077 1.386 . S
C1076 C1078 1.391 . S
C1077 C1076 1.386 . S
C1077 C1081 1.393 . S
C1078 H1070 0.950 . S
C1078 C1076 1.391 . S
C1078 C1079 1.400 . S
C1079 C1078 1.400 . S
C1079 C1080 1.398 . S
C1079 C1085 1.491 . S
C1080 H1071 0.950 . S
C1080 C1079 1.398 . S
C1080 C1081 1.391 . S
C1081 H1069 0.950 1_655 S
C1081 C1077 1.393 . S
C1081 C1080 1.391 . S
C1082 H1072 0.950 . S
C1082 C1083 1.386 . S
C1082 C1084 1.391 . S
C1083 C1082 1.386 . S
C1083 C1087 1.393 . S
C1084 H1073 0.950 . S
C1084 C1082 1.391 . S
C1084 C1085 1.400 . S
C1085 C1079 1.491 . S
C1085 C1084 1.400 . S
C1085 C1086 1.398 . S
C1086 H1074 0.950 . S
C1086 C1085 1.398 . S
C1086 C1087 1.391 . S
C1087 H1075 0.950 . S
C1087 C1083 1.393 . S
C1087 C1086 1.391 . S
H1088 C1096 0.950 . S
H1089 C1101 0.950 . S
H1090 C1098 0.950 . S
H1091 C1100 0.950 . S
H1092 C1102 0.950 . S
H1093 C1104 0.950 . S
H1094 C1106 0.950 . S
H1095 C1107 0.950 . S
C1096 H1088 0.950 . S
C1096 C1097 1.386 . S
C1096 C1098 1.391 . S
C1097 C1096 1.386 . S
C1097 C1101 1.393 . S
C1098 H1090 0.950 . S
C1098 C1096 1.391 . S
C1098 C1099 1.400 . S
C1099 C1098 1.400 . S
C1099 C1100 1.398 . S
C1099 C1105 1.491 . S
C1100 H1091 0.950 . S
C1100 C1099 1.398 . S
C1100 C1101 1.391 . S
C1101 H1089 0.950 . S
C1101 C1097 1.393 . S
C1101 C1100 1.391 . S
C1102 H1092 0.950 . S
C1102 C1103 1.386 . S
C1102 C1104 1.391 . S
C1103 C1102 1.386 . S
C1103 C1107 1.393 . S
C1104 H1093 0.950 . S
C1104 C1102 1.391 . S
C1104 C1105 1.400 . S
C1105 C1099 1.491 . S
C1105 C1104 1.400 . S
C1105 C1106 1.398 . S
C1106 H1094 0.950 . S
C1106 C1105 1.398 . S
C1106 C1107 1.391 . S
C1107 H1095 0.950 . S
C1107 C1103 1.393 . S
C1107 C1106 1.391 . S
H1108 C1116 0.950 . S
H1109 C1121 0.971 . S
H1110 C1118 0.950 . S
H1111 C1120 0.950 . S
H1112 C1122 0.950 . S
H1113 C1124 0.950 . S
H1114 C1126 0.950 . S
H1115 C1127 0.950 . S
C1116 H1108 0.950 . S
C1116 C1117 1.386 . S
C1116 C1118 1.391 . S
C1117 C1116 1.386 . S
C1117 C1121 1.393 . S
C1118 H1110 0.950 . S
C1118 C1116 1.391 . S
C1118 C1119 1.400 . S
C1119 C1118 1.400 . S
C1119 C1120 1.398 . S
C1119 C1125 1.491 . S
C1120 H1111 0.950 . S
C1120 C1119 1.398 . S
C1120 C1121 1.391 . S
C1121 H1109 0.971 . S
C1121 C1117 1.393 . S
C1121 C1120 1.391 . S
C1122 H1112 0.950 . S
C1122 C1123 1.386 . S
C1122 C1124 1.391 . S
C1123 C1122 1.386 . S
C1123 C1127 1.393 . S
C1124 H1113 0.950 . S
C1124 C1122 1.391 . S
C1124 C1125 1.400 . S
C1125 C1119 1.491 . S
C1125 C1124 1.400 . S
C1125 C1126 1.398 . S
C1126 H1114 0.950 . S
C1126 C1125 1.398 . S
C1126 C1127 1.391 . S
C1127 H1115 0.950 . S
C1127 C1123 1.393 . S
C1127 C1126 1.391 . S
H1128 C1136 0.950 . S
H1129 C1141 0.950 . S
H1130 C1138 0.950 . S
H1131 C1140 0.950 . S
H1132 C1142 0.950 . S
H1133 C1144 0.950 . S
H1134 C1146 0.950 . S
H1135 C1147 0.950 . S
C1136 H1128 0.950 . S
C1136 C1137 1.386 . S
C1136 C1138 1.391 . S
C1137 C1136 1.386 . S
C1137 C1141 1.393 . S
C1138 H1130 0.950 . S
C1138 C1136 1.391 . S
C1138 C1139 1.400 . S
C1139 C1138 1.400 . S
C1139 C1140 1.398 . S
C1139 C1145 1.491 . S
C1140 H1131 0.950 . S
C1140 C1139 1.398 . S
C1140 C1141 1.391 . S
C1141 H1129 0.950 . S
C1141 C1137 1.393 . S
C1141 C1140 1.391 . S
C1142 H1132 0.950 . S
C1142 C1143 1.386 . S
C1142 C1144 1.391 . S
C1143 C1142 1.386 . S
C1143 C1147 1.393 . S
C1144 H1133 0.950 . S
C1144 C1142 1.391 . S
C1144 C1145 1.400 . S
C1145 C1139 1.491 . S
C1145 C1144 1.400 . S
C1145 C1146 1.398 . S
C1146 H1134 0.950 . S
C1146 C1145 1.398 . S
C1146 C1147 1.391 . S
C1147 H1135 0.950 . S
C1147 C1143 1.393 . S
C1147 C1146 1.391 . S
H1148 C1156 0.950 . S
H1149 C1161 0.950 . S
H1150 C1158 0.950 . S
H1151 C1160 0.950 . S
H1152 C1162 0.950 . S
H1153 C1164 0.950 . S
H1154 C1166 0.950 . S
H1155 C1167 0.950 . S
C1156 H1148 0.950 . S
C1156 C1157 1.386 . S
C1156 C1158 1.391 . S
C1157 C1156 1.386 . S
C1157 C1161 1.393 . S
C1158 H1150 0.950 . S
C1158 C1156 1.391 . S
C1158 C1159 1.400 . S
C1159 C1158 1.400 . S
C1159 C1160 1.398 . S
C1159 C1165 1.491 . S
C1160 H1151 0.950 . S
C1160 C1159 1.398 . S
C1160 C1161 1.391 . S
C1161 H1149 0.950 . S
C1161 C1157 1.393 . S
C1161 C1160 1.391 . S
C1162 H1152 0.950 . S
C1162 C1163 1.386 . S
C1162 C1164 1.391 . S
C1163 C1162 1.386 . S
C1163 C1167 1.393 . S
C1164 H1153 0.950 . S
C1164 C1162 1.391 . S
C1164 C1165 1.400 . S
C1165 C1159 1.491 . S
C1165 C1164 1.400 . S
C1165 C1166 1.398 . S
C1166 H1154 0.950 . S
C1166 C1165 1.398 . S
C1166 C1167 1.391 . S
C1167 H1155 0.950 . S
C1167 C1163 1.393 . S
C1167 C1166 1.391 . S
H1168 C1176 0.950 . S
H1169 C1181 0.950 . S
H1170 C1178 0.950 . S
H1171 C1180 0.950 . S
H1172 C1182 0.950 . S
H1173 C1184 0.950 . S
H1174 C1186 0.950 . S
H1175 C1187 0.950 . S
C1176 H1168 0.950 . S
C1176 C1177 1.386 . S
C1176 C1178 1.391 1_455 S
C1177 C1176 1.386 . S
C1177 C1181 1.393 1_455 S
C1178 H1170 0.950 . S
C1178 C1176 1.391 1_655 S
C1178 C1179 1.400 . S
C1179 C1178 1.400 . S
C1179 C1180 1.398 . S
C1179 C1185 1.491 . S
C1180 H1171 0.950 . S
C1180 C1179 1.398 . S
C1180 C1181 1.391 . S
C1181 H1169 0.950 . S
C1181 C1177 1.393 1_655 S
C1181 C1180 1.391 . S
C1182 H1172 0.950 . S
C1182 C1183 1.386 . S
C1182 C1184 1.391 . S
C1183 C1182 1.386 . S
C1183 C1187 1.393 . S
C1184 H1173 0.950 . S
C1184 C1182 1.391 . S
C1184 C1185 1.400 . S
C1185 C1179 1.491 . S
C1185 C1184 1.400 . S
C1185 C1186 1.398 . S
C1186 H1174 0.950 . S
C1186 C1185 1.398 . S
C1186 C1187 1.391 . S
C1187 H1175 0.950 . S
C1187 C1183 1.393 . S
C1187 C1186 1.391 . S
H1188 C1196 0.950 . S
H1189 C1201 0.950 . S
H1190 C1198 0.950 . S
H1191 C1200 0.950 . S
H1192 C1202 0.950 . S
H1193 C1204 0.950 . S
H1194 C1206 0.950 . S
H1195 C1207 0.950 . S
C1196 H1188 0.950 . S
C1196 C1197 1.386 . S
C1196 C1198 1.391 . S
C1197 C1196 1.386 . S
C1197 C1201 1.393 . S
C1198 H1190 0.950 . S
C1198 C1196 1.391 . S
C1198 C1199 1.400 . S
C1199 C1198 1.400 . S
C1199 C1200 1.398 . S
C1199 C1205 1.491 . S
C1200 H1191 0.950 . S
C1200 C1199 1.398 . S
C1200 C1201 1.391 . S
C1201 H1189 0.950 . S
C1201 C1197 1.393 . S
C1201 C1200 1.391 . S
C1202 H1192 0.950 . S
C1202 C1203 1.386 . S
C1202 C1204 1.391 . S
C1203 C1202 1.386 . S
C1203 C1207 1.393 . S
C1204 H1193 0.950 . S
C1204 C1202 1.391 . S
C1204 C1205 1.400 . S
C1205 C1199 1.491 . S
C1205 C1204 1.400 . S
C1205 C1206 1.398 . S
C1206 H1194 0.950 . S
C1206 C1205 1.398 . S
C1206 C1207 1.391 . S
C1207 H1195 0.950 . S
C1207 C1203 1.393 . S
C1207 C1206 1.391 . S
H1208 C1216 0.950 . S
H1209 C1221 0.950 . S
H1210 C1218 0.950 . S
H1211 C1220 0.950 . S
H1212 C1222 0.950 . S
H1213 C1224 0.950 . S
H1214 C1226 0.950 . S
H1215 C1227 0.950 . S
C1216 H1208 0.950 . S
C1216 C1217 1.386 . S
C1216 C1218 1.391 . S
C1217 C1216 1.386 . S
C1217 C1221 1.393 . S
C1218 H1210 0.950 . S
C1218 C1216 1.391 . S
C1218 C1219 1.400 . S
C1219 C1218 1.400 . S
C1219 C1220 1.398 . S
C1219 C1225 1.491 . S
C1220 H1211 0.950 . S
C1220 C1219 1.398 . S
C1220 C1221 1.391 . S
C1221 H1209 0.950 . S
C1221 C1217 1.393 . S
C1221 C1220 1.391 . S
C1222 H1212 0.950 . S
C1222 C1223 1.386 . S
C1222 C1224 1.391 . S
C1223 C1222 1.386 . S
C1223 C1227 1.393 . S
C1224 H1213 0.950 . S
C1224 C1222 1.391 . S
C1224 C1225 1.400 . S
C1225 C1219 1.491 . S
C1225 C1224 1.400 . S
C1225 C1226 1.398 . S
C1226 H1214 0.950 . S
C1226 C1225 1.398 . S
C1226 C1227 1.391 . S
C1227 H1215 0.950 . S
C1227 C1223 1.393 . S
C1227 C1226 1.391 . S
H1228 C1236 0.950 . S
H1229 C1241 0.950 . S
H1230 C1238 0.950 . S
H1231 C1240 0.950 . S
H1232 C1242 0.950 . S
H1233 C1244 0.950 . S
H1234 C1246 0.950 . S
H1235 C1247 0.950 . S
C1236 H1228 0.950 . S
C1236 C1237 1.386 . S
C1236 C1238 1.391 . S
C1237 C1236 1.386 . S
C1237 C1241 1.393 . S
C1238 H1230 0.950 . S
C1238 C1236 1.391 . S
C1238 C1239 1.400 . S
C1239 C1238 1.400 . S
C1239 C1240 1.398 . S
C1239 C1245 1.491 . S
C1240 H1231 0.950 . S
C1240 C1239 1.398 . S
C1240 C1241 1.391 . S
C1241 H1229 0.950 . S
C1241 C1237 1.393 . S
C1241 C1240 1.391 . S
C1242 H1232 0.950 . S
C1242 C1243 1.386 . S
C1242 C1244 1.391 . S
C1243 C1242 1.386 . S
C1243 C1247 1.393 . S
C1244 H1233 0.950 . S
C1244 C1242 1.391 . S
C1244 C1245 1.400 . S
C1245 C1239 1.491 . S
C1245 C1244 1.400 . S
C1245 C1246 1.398 . S
C1246 H1234 0.950 . S
C1246 C1245 1.398 . S
C1246 C1247 1.391 . S
C1247 H1235 0.950 . S
C1247 C1243 1.393 . S
C1247 C1246 1.391 . S
H1248 C1256 0.950 . S
H1249 C1261 0.950 . S
H1250 C1258 0.950 . S
H1251 C1260 0.950 . S
H1252 C1262 0.950 . S
H1253 C1264 0.950 . S
H1254 C1266 0.950 . S
H1255 C1267 0.950 . S
C1256 H1248 0.950 . S
C1256 C1257 1.386 . S
C1256 C1258 1.391 . S
C1257 C1256 1.386 . S
C1257 C1261 1.393 . S
C1258 H1250 0.950 . S
C1258 C1256 1.391 . S
C1258 C1259 1.400 . S
C1259 C1258 1.400 . S
C1259 C1260 1.398 . S
C1259 C1265 1.491 . S
C1260 H1251 0.950 . S
C1260 C1259 1.398 . S
C1260 C1261 1.391 . S
C1261 H1249 0.950 . S
C1261 C1257 1.393 . S
C1261 C1260 1.391 . S
C1262 H1252 0.950 . S
C1262 C1263 1.386 1_655 S
C1262 C1264 1.391 . S
C1263 C1262 1.386 1_455 S
C1263 C1267 1.393 . S
C1264 H1253 0.950 . S
C1264 C1262 1.391 . S
C1264 C1265 1.400 . S
C1265 C1259 1.491 . S
C1265 C1264 1.400 . S
C1265 C1266 1.398 . S
C1266 H1254 0.950 . S
C1266 C1265 1.398 . S
C1266 C1267 1.391 1_655 S
C1267 H1255 0.950 . S
C1267 C1263 1.393 . S
C1267 C1266 1.391 1_455 S
H1268 C1276 0.950 . S
H1269 C1281 0.950 . S
H1270 C1278 0.950 . S
H1271 C1280 0.950 . S
H1272 C1282 0.950 . S
H1273 C1284 0.950 . S
H1274 C1286 0.950 . S
H1275 C1287 0.950 . S
C1276 H1268 0.950 . S
C1276 C1277 1.386 . S
C1276 C1278 1.391 . S
C1277 C1276 1.386 . S
C1277 C1281 1.393 . S
C1278 H1270 0.950 . S
C1278 C1276 1.391 . S
C1278 C1279 1.400 . S
C1279 C1278 1.400 . S
C1279 C1280 1.398 . S
C1279 C1285 1.491 . S
C1280 H1271 0.950 . S
C1280 C1279 1.398 . S
C1280 C1281 1.391 . S
C1281 H1269 0.950 . S
C1281 C1277 1.393 . S
C1281 C1280 1.391 . S
C1282 H1272 0.950 . S
C1282 C1283 1.386 . S
C1282 C1284 1.391 . S
C1283 C1282 1.386 . S
C1283 C1287 1.393 . S
C1284 H1273 0.950 . S
C1284 C1282 1.391 . S
C1284 C1285 1.400 . S
C1285 C1279 1.491 . S
C1285 C1284 1.400 . S
C1285 C1286 1.398 . S
C1286 H1274 0.950 . S
C1286 C1285 1.398 . S
C1286 C1287 1.391 . S
C1287 H1275 0.950 . S
C1287 C1283 1.393 . S
C1287 C1286 1.391 . S
H1288 C1296 0.950 . S
H1289 C1301 0.950 . S
H1290 C1298 0.950 . S
H1291 C1300 0.950 . S
H1292 C1302 0.950 . S
H1293 C1304 0.950 . S
H1294 C1306 0.950 . S
H1295 C1307 0.950 . S
C1296 H1288 0.950 . S
C1296 C1297 1.386 . S
C1296 C1298 1.391 . S
C1297 C1296 1.386 . S
C1297 C1301 1.393 . S
C1298 H1290 0.950 . S
C1298 C1296 1.391 . S
C1298 C1299 1.400 . S
C1299 C1298 1.400 . S
C1299 C1300 1.398 . S
C1299 C1305 1.491 . S
C1300 H1291 0.950 . S
C1300 C1299 1.398 . S
C1300 C1301 1.391 . S
C1301 H1289 0.950 . S
C1301 C1297 1.393 . S
C1301 C1300 1.391 . S
C1302 H1292 0.950 . S
C1302 C1303 1.386 . S
C1302 C1304 1.391 . S
C1303 C1302 1.386 . S
C1303 C1307 1.393 . S
C1304 H1293 0.950 . S
C1304 C1302 1.391 . S
C1304 C1305 1.400 . S
C1305 C1299 1.491 . S
C1305 C1304 1.400 . S
C1305 C1306 1.398 . S
C1306 H1294 0.950 . S
C1306 C1305 1.398 . S
C1306 C1307 1.391 . S
C1307 H1295 0.950 . S
C1307 C1303 1.393 . S
C1307 C1306 1.391 . S
H1308 C1316 0.950 . S
H1309 C1321 0.950 . S
H1310 C1318 0.950 . S
H1311 C1320 0.950 . S
H1312 C1322 0.950 . S
H1313 C1324 0.950 . S
H1314 C1326 0.950 . S
H1315 C1327 0.950 . S
C1316 H1308 0.950 . S
C1316 C1317 1.386 . S
C1316 C1318 1.391 . S
C1317 C1316 1.386 . S
C1317 C1321 1.393 . S
C1318 H1310 0.950 . S
C1318 C1316 1.391 . S
C1318 C1319 1.400 . S
C1319 C1318 1.400 . S
C1319 C1320 1.398 . S
C1319 C1325 1.491 . S
C1320 H1311 0.950 . S
C1320 C1319 1.398 . S
C1320 C1321 1.391 . S
C1321 H1309 0.950 . S
C1321 C1317 1.393 . S
C1321 C1320 1.391 . S
C1322 H1312 0.950 . S
C1322 C1323 1.386 . S
C1322 C1324 1.391 . S
C1323 C1322 1.386 . S
C1323 C1327 1.393 . S
C1324 H1313 0.950 . S
C1324 C1322 1.391 . S
C1324 C1325 1.400 . S
C1325 C1319 1.491 . S
C1325 C1324 1.400 . S
C1325 C1326 1.398 . S
C1326 H1314 0.950 . S
C1326 C1325 1.398 . S
C1326 C1327 1.391 . S
C1327 H1315 0.950 . S
C1327 C1323 1.393 . S
C1327 C1326 1.391 . S
C537 N5 1.434 . S
C543 N14 1.425 . S
C557 N38 1.455 . S
C563 N47 1.449 . S
C577 N71 1.457 . S
C583 N80 1.449 . S
C597 N104 1.438 . S
C603 N113 1.429 . S
C617 N137 1.451 . S
C623 N146 1.443 . S
C637 N170 1.457 . S
C643 N179 1.451 . S
C657 N203 1.434 . S
C663 N212 1.425 . S
C677 N245 1.447 . S
C683 N236 1.453 . S
C697 N278 1.440 . S
C703 N269 1.447 . S
C717 N302 1.456 . S
C723 N311 1.448 . S
C737 N335 1.456 . S
C743 N344 1.448 . S
C757 N377 1.439 . S
C763 N368 1.446 . S
C777 N410 1.450 . S
C783 N401 1.457 . S
C797 N434 1.452 . S
C803 N443 1.443 . S
C817 N476 1.441 . S
C823 N467 1.448 . S
C837 N500 1.457 . S
C843 N509 1.449 . S
C857 C28 0.983 . S
C863 C160 0.980 . S
C877 C193 0.984 . S
C883 C61 0.980 . S
C897 C226 0.985 . S
C903 C94 0.980 . S
C917 C127 0.984 . S
C923 C259 0.980 . S
C937 C358 0.983 . S
C943 C292 0.980 . S
C957 C325 0.984 . S
C963 C391 0.986 . S
C977 C424 0.981 . S
C983 C490 0.986 . S
C997 C457 0.980 . S
C1003 C523 0.985 . S
C1017 C305 1.424 . S
C1023 C8 1.414 . S
C1037 C470 1.408 . S
C1043 C41 1.419 . S
C1057 C74 1.425 . S
C1063 C272 1.408 . S
C1077 C503 1.409 1_655 S
C1083 C107 1.416 . S
C1097 C338 1.410 . S
C1103 C140 1.417 . S
C1117 C437 1.407 1_655 S
C1123 C173 1.421 . S
C1137 C206 1.408 . S
C1143 C371 1.424 . S
C1157 C239 1.424 . S
C1163 C404 1.414 . S
C1177 C149 1.526 . S
C1183 C116 1.517 . S
C1197 C413 1.522 . S
C1203 C281 1.521 . S
C1217 C50 1.517 . S
C1223 C215 1.527 . S
C1237 C446 1.519 . S
C1243 C314 1.525 . S
C1257 C182 1.526 . S
C1263 C17 1.516 . S
C1277 C347 1.523 . S
C1283 C512 1.520 . S
C1297 C248 1.518 . S
C1303 C83 1.527 . S
C1317 C479 1.519 . S
C1323 C380 1.524 . S
