# Generated by pormake.
# Topology yfm, (5)-cn, num edge types: 1
# Building blocks:
#     Node 0, Type 0, BuildingBlock: XOMCOT_clean_sbu_1, # of connection points: 5
#     Node 1, Type 0, BuildingBlock: XOMCOT_clean_sbu_1, # of connection points: 5
#     Node 2, Type 0, BuildingBlock: XOMCOT_clean_sbu_1, # of connection points: 5
#     Node 3, Type 0, BuildingBlock: XOMCOT_clean_sbu_1, # of connection points: 5
#     Node 4, Type 0, BuildingBlock: XOMCOT_clean_sbu_1, # of connection points: 5
#     Node 5, Type 0, BuildingBlock: XOMCOT_clean_sbu_1, # of connection points: 5
#     Node 6, Type 0, BuildingBlock: XOMCOT_clean_sbu_1, # of connection points: 5
#     Node 7, Type 0, BuildingBlock: XOMCOT_clean_sbu_1, # of connection points: 5
#     Node 8, Type 0, BuildingBlock: XOMCOT_clean_sbu_1, # of connection points: 5
#     Node 9, Type 0, BuildingBlock: XOMCOT_clean_sbu_1, # of connection points: 5
#     Node 10, Type 0, BuildingBlock: XOMCOT_clean_sbu_1, # of connection points: 5
#     Node 11, Type 0, BuildingBlock: XOMCOT_clean_sbu_1, # of connection points: 5
#     Node 12, Type 0, BuildingBlock: XOMCOT_clean_sbu_1, # of connection points: 5
#     Node 13, Type 0, BuildingBlock: XOMCOT_clean_sbu_1, # of connection points: 5
#     Node 14, Type 0, BuildingBlock: XOMCOT_clean_sbu_1, # of connection points: 5
#     Node 15, Type 0, BuildingBlock: XOMCOT_clean_sbu_1, # of connection points: 5
#     Node 16, Type 0, BuildingBlock: XOMCOT_clean_sbu_1, # of connection points: 5
#     Node 17, Type 0, BuildingBlock: XOMCOT_clean_sbu_1, # of connection points: 5
#     Node 18, Type 0, BuildingBlock: XOMCOT_clean_sbu_1, # of connection points: 5
#     Node 19, Type 0, BuildingBlock: XOMCOT_clean_sbu_1, # of connection points: 5
#     Node 20, Type 0, BuildingBlock: XOMCOT_clean_sbu_1, # of connection points: 5
#     Node 21, Type 0, BuildingBlock: XOMCOT_clean_sbu_1, # of connection points: 5
#     Node 22, Type 0, BuildingBlock: XOMCOT_clean_sbu_1, # of connection points: 5
#     Node 23, Type 0, BuildingBlock: XOMCOT_clean_sbu_1, # of connection points: 5
#     Node 24, Type 0, BuildingBlock: XOMCOT_clean_sbu_1, # of connection points: 5
#     Node 25, Type 0, BuildingBlock: XOMCOT_clean_sbu_1, # of connection points: 5
#     Node 26, Type 0, BuildingBlock: XOMCOT_clean_sbu_1, # of connection points: 5
#     Node 27, Type 0, BuildingBlock: XOMCOT_clean_sbu_1, # of connection points: 5
#     Node 28, Type 0, BuildingBlock: XOMCOT_clean_sbu_1, # of connection points: 5
#     Node 29, Type 0, BuildingBlock: XOMCOT_clean_sbu_1, # of connection points: 5
#     Node 30, Type 0, BuildingBlock: XOMCOT_clean_sbu_1, # of connection points: 5
#     Node 31, Type 0, BuildingBlock: XOMCOT_clean_sbu_1, # of connection points: 5
#     Edge 32, Type (0, 0), BuildingBlock: KIFKEQ_clean_linker_1, # of connection points: 2
#     Edge 33, Type (0, 0), BuildingBlock: KIFKEQ_clean_linker_1, # of connection points: 2
#     Edge 34, Type (0, 0), BuildingBlock: KIFKEQ_clean_linker_1, # of connection points: 2
#     Edge 35, Type (0, 0), BuildingBlock: KIFKEQ_clean_linker_1, # of connection points: 2
#     Edge 36, Type (0, 0), BuildingBlock: KIFKEQ_clean_linker_1, # of connection points: 2
#     Edge 37, Type (0, 0), BuildingBlock: KIFKEQ_clean_linker_1, # of connection points: 2
#     Edge 38, Type (0, 0), BuildingBlock: KIFKEQ_clean_linker_1, # of connection points: 2
#     Edge 39, Type (0, 0), BuildingBlock: KIFKEQ_clean_linker_1, # of connection points: 2
#     Edge 40, Type (0, 0), BuildingBlock: KIFKEQ_clean_linker_1, # of connection points: 2
#     Edge 41, Type (0, 0), BuildingBlock: KIFKEQ_clean_linker_1, # of connection points: 2
#     Edge 42, Type (0, 0), BuildingBlock: KIFKEQ_clean_linker_1, # of connection points: 2
#     Edge 43, Type (0, 0), BuildingBlock: KIFKEQ_clean_linker_1, # of connection points: 2
#     Edge 44, Type (0, 0), BuildingBlock: KIFKEQ_clean_linker_1, # of connection points: 2
#     Edge 45, Type (0, 0), BuildingBlock: KIFKEQ_clean_linker_1, # of connection points: 2
#     Edge 46, Type (0, 0), BuildingBlock: KIFKEQ_clean_linker_1, # of connection points: 2
#     Edge 47, Type (0, 0), BuildingBlock: KIFKEQ_clean_linker_1, # of connection points: 2
#     Edge 48, Type (0, 0), BuildingBlock: KIFKEQ_clean_linker_1, # of connection points: 2
#     Edge 49, Type (0, 0), BuildingBlock: KIFKEQ_clean_linker_1, # of connection points: 2
#     Edge 50, Type (0, 0), BuildingBlock: KIFKEQ_clean_linker_1, # of connection points: 2
#     Edge 51, Type (0, 0), BuildingBlock: KIFKEQ_clean_linker_1, # of connection points: 2
#     Edge 52, Type (0, 0), BuildingBlock: KIFKEQ_clean_linker_1, # of connection points: 2
#     Edge 53, Type (0, 0), BuildingBlock: KIFKEQ_clean_linker_1, # of connection points: 2
#     Edge 54, Type (0, 0), BuildingBlock: KIFKEQ_clean_linker_1, # of connection points: 2
#     Edge 55, Type (0, 0), BuildingBlock: KIFKEQ_clean_linker_1, # of connection points: 2
#     Edge 56, Type (0, 0), BuildingBlock: KIFKEQ_clean_linker_1, # of connection points: 2
#     Edge 57, Type (0, 0), BuildingBlock: KIFKEQ_clean_linker_1, # of connection points: 2
#     Edge 58, Type (0, 0), BuildingBlock: KIFKEQ_clean_linker_1, # of connection points: 2
#     Edge 59, Type (0, 0), BuildingBlock: KIFKEQ_clean_linker_1, # of connection points: 2
#     Edge 60, Type (0, 0), BuildingBlock: KIFKEQ_clean_linker_1, # of connection points: 2
#     Edge 61, Type (0, 0), BuildingBlock: KIFKEQ_clean_linker_1, # of connection points: 2
#     Edge 62, Type (0, 0), BuildingBlock: KIFKEQ_clean_linker_1, # of connection points: 2
#     Edge 63, Type (0, 0), BuildingBlock: KIFKEQ_clean_linker_1, # of connection points: 2
#     Edge 64, Type (0, 0), BuildingBlock: KIFKEQ_clean_linker_1, # of connection points: 2
#     Edge 65, Type (0, 0), BuildingBlock: KIFKEQ_clean_linker_1, # of connection points: 2
#     Edge 66, Type (0, 0), BuildingBlock: KIFKEQ_clean_linker_1, # of connection points: 2
#     Edge 67, Type (0, 0), BuildingBlock: KIFKEQ_clean_linker_1, # of connection points: 2
#     Edge 68, Type (0, 0), BuildingBlock: KIFKEQ_clean_linker_1, # of connection points: 2
#     Edge 69, Type (0, 0), BuildingBlock: KIFKEQ_clean_linker_1, # of connection points: 2
#     Edge 70, Type (0, 0), BuildingBlock: KIFKEQ_clean_linker_1, # of connection points: 2
#     Edge 71, Type (0, 0), BuildingBlock: KIFKEQ_clean_linker_1, # of connection points: 2
#     Edge 72, Type (0, 0), BuildingBlock: KIFKEQ_clean_linker_1, # of connection points: 2
#     Edge 73, Type (0, 0), BuildingBlock: KIFKEQ_clean_linker_1, # of connection points: 2
#     Edge 74, Type (0, 0), BuildingBlock: KIFKEQ_clean_linker_1, # of connection points: 2
#     Edge 75, Type (0, 0), BuildingBlock: KIFKEQ_clean_linker_1, # of connection points: 2
#     Edge 76, Type (0, 0), BuildingBlock: KIFKEQ_clean_linker_1, # of connection points: 2
#     Edge 77, Type (0, 0), BuildingBlock: KIFKEQ_clean_linker_1, # of connection points: 2
#     Edge 78, Type (0, 0), BuildingBlock: KIFKEQ_clean_linker_1, # of connection points: 2
#     Edge 79, Type (0, 0), BuildingBlock: KIFKEQ_clean_linker_1, # of connection points: 2
#     Edge 80, Type (0, 0), BuildingBlock: KIFKEQ_clean_linker_1, # of connection points: 2
#     Edge 81, Type (0, 0), BuildingBlock: KIFKEQ_clean_linker_1, # of connection points: 2
#     Edge 82, Type (0, 0), BuildingBlock: KIFKEQ_clean_linker_1, # of connection points: 2
#     Edge 83, Type (0, 0), BuildingBlock: KIFKEQ_clean_linker_1, # of connection points: 2
#     Edge 84, Type (0, 0), BuildingBlock: KIFKEQ_clean_linker_1, # of connection points: 2
#     Edge 85, Type (0, 0), BuildingBlock: KIFKEQ_clean_linker_1, # of connection points: 2
#     Edge 86, Type (0, 0), BuildingBlock: KIFKEQ_clean_linker_1, # of connection points: 2
#     Edge 87, Type (0, 0), BuildingBlock: KIFKEQ_clean_linker_1, # of connection points: 2
#     Edge 88, Type (0, 0), BuildingBlock: KIFKEQ_clean_linker_1, # of connection points: 2
#     Edge 89, Type (0, 0), BuildingBlock: KIFKEQ_clean_linker_1, # of connection points: 2
#     Edge 90, Type (0, 0), BuildingBlock: KIFKEQ_clean_linker_1, # of connection points: 2
#     Edge 91, Type (0, 0), BuildingBlock: KIFKEQ_clean_linker_1, # of connection points: 2
#     Edge 92, Type (0, 0), BuildingBlock: KIFKEQ_clean_linker_1, # of connection points: 2
#     Edge 93, Type (0, 0), BuildingBlock: KIFKEQ_clean_linker_1, # of connection points: 2
#     Edge 94, Type (0, 0), BuildingBlock: KIFKEQ_clean_linker_1, # of connection points: 2
#     Edge 95, Type (0, 0), BuildingBlock: KIFKEQ_clean_linker_1, # of connection points: 2
#     Edge 96, Type (0, 0), BuildingBlock: KIFKEQ_clean_linker_1, # of connection points: 2
#     Edge 97, Type (0, 0), BuildingBlock: KIFKEQ_clean_linker_1, # of connection points: 2
#     Edge 98, Type (0, 0), BuildingBlock: KIFKEQ_clean_linker_1, # of connection points: 2
#     Edge 99, Type (0, 0), BuildingBlock: KIFKEQ_clean_linker_1, # of connection points: 2
#     Edge 100, Type (0, 0), BuildingBlock: KIFKEQ_clean_linker_1, # of connection points: 2
#     Edge 101, Type (0, 0), BuildingBlock: KIFKEQ_clean_linker_1, # of connection points: 2
#     Edge 102, Type (0, 0), BuildingBlock: KIFKEQ_clean_linker_1, # of connection points: 2
#     Edge 103, Type (0, 0), BuildingBlock: KIFKEQ_clean_linker_1, # of connection points: 2
#     Edge 104, Type (0, 0), BuildingBlock: KIFKEQ_clean_linker_1, # of connection points: 2
#     Edge 105, Type (0, 0), BuildingBlock: KIFKEQ_clean_linker_1, # of connection points: 2
#     Edge 106, Type (0, 0), BuildingBlock: KIFKEQ_clean_linker_1, # of connection points: 2
#     Edge 107, Type (0, 0), BuildingBlock: KIFKEQ_clean_linker_1, # of connection points: 2
#     Edge 108, Type (0, 0), BuildingBlock: KIFKEQ_clean_linker_1, # of connection points: 2
#     Edge 109, Type (0, 0), BuildingBlock: KIFKEQ_clean_linker_1, # of connection points: 2
#     Edge 110, Type (0, 0), BuildingBlock: KIFKEQ_clean_linker_1, # of connection points: 2
#     Edge 111, Type (0, 0), BuildingBlock: KIFKEQ_clean_linker_1, # of connection points: 2
# Relax obj value: 0.619
# Max RMSD: 0.256
# Mean RMSD: 0.255
data_MOF--net-yfm--node1-XOMCOT_clean_sbu_1--edge1-KIFKEQ_clean_linker_1
_symmetry_space_group_name_H-M    P1
_symmetry_Int_Tables_number       1
_symmetry_cell_setting            triclinic
loop_
_symmetry_equiv_pos_as_xyz
'x, y, z'
_cell_length_a     68.039674
_cell_length_b     67.720641
_cell_length_c     45.303578
_cell_angle_alpha  89.999598
_cell_angle_beta   89.97181
_cell_angle_gamma 90.004332
loop_
_atom_site_label
_atom_site_type_symbol
_atom_site_fract_x
_atom_site_fract_y
_atom_site_fract_z
_atom_type_partial_charge
C0 C 0.29646 0.13282 0.11547 0.0
C1 C 0.29482 0.13649 0.14517 0.0
N2 N 0.28163 0.15103 0.14891 0.0
N3 N 0.28461 0.14523 0.10044 0.0
C4 C 0.27562 0.15611 0.12155 0.0
H5 H 0.30516 0.12122 0.10561 0.0
Co6 Co 0.28141 0.14417 0.05957 0.0
C7 C 0.26338 0.18294 0.04267 0.0
O8 O 0.25219 0.17433 0.02292 0.0
N9 N 0.27861 0.14208 0.01725 0.0
C10 C 0.2674 0.1327 0.97305 0.0
C11 C 0.26247 0.13649 1.00191 0.0
C12 C 0.29306 0.14189 0.9965 0.0
N13 N 0.28684 0.13569 0.96964 0.0
O14 O 0.30861 0.15118 0.05596 0.0
H15 H 0.24795 0.13449 0.01108 0.0
H16 H 0.30821 0.14513 1.00122 0.0
O17 O 0.27469 0.17247 0.05889 0.0
C18 C 0.32008 0.1364 0.05334 0.0
O19 O 0.31237 0.11925 0.04617 0.0
N20 N 0.2555 0.13544 0.06575 0.0
C21 C 0.22417 0.11471 0.09103 0.0
C22 C 0.22412 0.13548 0.09023 0.0
C23 C 0.24002 0.14563 0.0775 0.0
C24 C 0.25512 0.11535 0.06463 0.0
C25 C 0.23954 0.10473 0.07674 0.0
H26 H 0.24053 0.1615 0.07943 0.0
H27 H 0.26769 0.10748 0.05593 0.0
H28 H 0.26447 0.1671 0.11716 0.0
H29 H 0.3018 0.12825 0.16277 0.0
H30 H 0.25741 0.12732 0.95634 0.0
H31 H 0.21266 0.14381 0.10119 0.0
H32 H 0.24007 0.08875 0.07624 0.0
C33 C 0.12697 0.0519 0.37114 0.0
C34 C 0.12195 0.05018 0.40037 0.0
N35 N 0.10912 0.0352 0.40298 0.0
N36 N 0.1171 0.03828 0.35521 0.0
C37 C 0.10637 0.02824 0.37538 0.0
H38 H 0.13796 0.06182 0.36243 0.0
Co39 Co 0.12077 0.0339 0.31489 0.0
C40 C 0.08366 0.01248 0.29645 0.0
O41 O 0.09307 1.00043 0.27873 0.0
N42 N 0.12551 0.02982 0.2734 0.0
C43 C 0.13731 0.01655 0.23185 0.0
C44 C 0.13069 0.01276 0.25993 0.0
C45 C 0.12902 0.0437 0.25236 0.0
N46 N 0.13668 0.03618 0.22716 0.0
O47 O 0.11198 0.06043 0.30807 0.0
H48 H 0.13083 0.99836 0.27021 0.0
H49 H 0.12729 0.05929 0.25587 0.0
O50 O 0.09323 0.02523 0.31151 0.0
C51 C 0.12564 0.0733 0.3077 0.0
O52 O 0.14389 0.06711 0.30527 0.0
N53 N 0.1309 0.00874 0.32407 0.0
C54 C 0.1519 0.97803 0.35064 0.0
C55 C 0.13147 0.97663 0.34677 0.0
C56 C 0.12115 0.99229 0.33367 0.0
C57 C 0.15084 0.00979 0.32618 0.0
C58 C 0.16162 0.99465 0.33935 0.0
H59 H 0.10534 0.9916 0.33329 0.0
H60 H 0.1583 0.02308 0.3191 0.0
H61 H 0.09729 0.0156 0.37024 0.0
H62 H 0.12834 0.05831 0.41858 0.0
H63 H 0.14314 0.00563 0.21679 0.0
H64 H 0.12339 0.96417 0.35557 0.0
H65 H 0.17738 0.99628 0.34172 0.0
C66 C 0.24508 0.88371 0.62397 0.0
C67 C 0.24818 0.87831 0.65272 0.0
N68 N 0.24786 0.85849 0.65412 0.0
N69 N 0.24305 0.86737 0.60727 0.0
C70 C 0.24459 0.85208 0.62636 0.0
H71 H 0.24511 0.89863 0.61544 0.0
Co72 Co 0.24154 0.86945 0.5666 0.0
C73 C 0.25792 0.8296 0.54855 0.0
O74 O 0.27224 0.83734 0.53299 0.0
N75 N 0.23959 0.87288 0.52482 0.0
C76 C 0.24647 0.87964 0.47759 0.0
C77 C 0.25373 0.87227 0.5038 0.0
C78 C 0.22398 0.88089 0.51055 0.0
N79 N 0.22776 0.88528 0.48205 0.0
O80 O 0.21393 0.86425 0.56942 0.0
H81 H 0.26895 0.86863 0.50763 0.0
H82 H 0.21025 0.88456 0.52097 0.0
O83 O 0.24584 0.84082 0.56221 0.0
C84 C 0.20401 0.87959 0.57592 0.0
O85 O 0.213 0.89677 0.57648 0.0
N86 N 0.26849 0.87603 0.56643 0.0
C87 C 0.30165 0.89475 0.59019 0.0
C88 C 0.29915 0.8742 0.59267 0.0
C89 C 0.28232 0.86519 0.58114 0.0
C90 C 0.27161 0.89561 0.56123 0.0
C91 C 0.28805 0.90526 0.57289 0.0
H92 H 0.27944 0.85005 0.58719 0.0
H93 H 0.26015 0.9043 0.55097 0.0
H94 H 0.24428 0.83668 0.61998 0.0
H95 H 0.25087 0.88811 0.67116 0.0
H96 H 0.25482 0.88225 0.45762 0.0
H97 H 0.30932 0.8653 0.60532 0.0
H98 H 0.289 0.92113 0.57057 0.0
C99 C 0.37981 0.01387 0.86556 0.0
C100 C 0.38506 0.01636 0.89447 0.0
N101 N 0.40359 0.00988 0.89772 0.0
N102 N 0.3951 0.0062 0.85044 0.0
C103 C 0.40938 1.00352 0.87084 0.0
H104 H 0.36568 0.01744 0.85607 0.0
Co105 Co 0.39359 1.00145 0.81001 0.0
C106 C 0.43375 0.01367 0.78912 0.0
O107 O 0.42612 0.02588 0.76983 0.0
N108 N 0.39086 0.99621 0.76868 0.0
C109 C 0.38587 0.99946 0.72014 0.0
C110 C 0.39127 0.00899 0.74568 0.0
C111 C 0.38462 0.97907 0.75624 0.0
N112 N 0.38152 0.98064 0.72685 0.0
O113 O 0.39693 0.97392 0.81802 0.0
H114 H 0.39386 0.02468 0.74731 0.0
H115 H 0.38159 0.96575 0.76853 0.0
O116 O 0.42246 1.00391 0.80637 0.0
C117 C 0.381 0.96654 0.82775 0.0
O118 O 0.36509 0.97753 0.82781 0.0
N119 N 0.38869 0.02864 0.80458 0.0
C120 C 0.37107 0.06361 0.82407 0.0
C121 C 0.39141 0.06059 0.8273 0.0
C122 C 0.39993 0.04291 0.81763 0.0
C123 C 0.36947 0.03233 0.79806 0.0
C124 C 0.36038 0.04973 0.80754 0.0
H125 H 0.41481 0.03973 0.82441 0.0
H126 H 0.36046 0.02065 0.78901 0.0
H127 H 0.42363 0.99715 0.86615 0.0
H128 H 0.37585 0.02206 0.91201 0.0
H129 H 0.3839 0.00624 0.69871 0.0
H130 H 0.40036 0.07099 0.83949 0.0
H131 H 0.34465 0.05114 0.80467 0.0
C132 C 0.26683 0.88122 0.89051 0.0
C133 C 0.26333 0.87675 0.86151 0.0
N134 N 0.26424 0.85703 0.85848 0.0
N135 N 0.2697 0.86438 0.90578 0.0
C136 C 0.26828 0.84976 0.88553 0.0
H137 H 0.2665 0.8958 0.90022 0.0
Co138 Co 0.27181 0.86497 0.94657 0.0
C139 C 0.25802 0.82415 0.96356 0.0
O140 O 0.24457 0.83127 0.98134 0.0
N141 N 0.27431 0.86686 0.98868 0.0
C142 C 0.26758 0.87228 0.03636 0.0
C143 C 0.26005 0.86641 0.00955 0.0
C144 C 0.29035 0.87323 0.00378 0.0
N145 N 0.28664 0.87682 0.0326 0.0
O146 O 0.29954 0.86151 0.9421 0.0
H147 H 0.24466 0.86369 0.00539 0.0
H148 H 0.30443 0.87615 0.99383 0.0
O149 O 0.26887 0.83596 0.94868 0.0
C150 C 0.30774 0.8781 0.93734 0.0
O151 O 0.29729 0.89429 0.94027 0.0
N152 N 0.24469 0.87029 0.94816 0.0
C153 C 0.21241 0.88934 0.92276 0.0
C154 C 0.21489 0.86882 0.91983 0.0
C155 C 0.2312 0.85954 0.9326 0.0
C156 C 0.24128 0.88973 0.95409 0.0
C157 C 0.2252 0.89954 0.94169 0.0
H158 H 0.23428 0.84447 0.92641 0.0
H159 H 0.25247 0.89833 0.96515 0.0
H160 H 0.26918 0.83418 0.89063 0.0
H161 H 0.25998 0.88711 0.84402 0.0
H162 H 0.25927 0.8746 0.05644 0.0
H163 H 0.20526 0.86026 0.90575 0.0
H164 H 0.2241 0.91538 0.94446 0.0
C165 C 0.37334 0.02101 0.13716 0.0
C166 C 0.37697 0.01666 0.10812 0.0
N167 N 0.39647 0.01424 0.10479 0.0
N168 N 0.39042 0.02109 0.15214 0.0
C169 C 0.40442 0.01719 0.13173 0.0
H170 H 0.35906 0.02339 0.14705 0.0
Co171 Co 0.39035 0.02376 0.19268 0.0
C172 C 0.4291 0.00685 0.211 0.0
O173 O 0.42038 0.99593 0.2311 0.0
N174 N 0.38909 0.02741 0.23417 0.0
C175 C 0.39506 0.04086 0.27822 0.0
C176 C 0.40329 0.0345 0.25213 0.0
C177 C 0.37231 0.03009 0.24985 0.0
N178 N 0.37546 0.03836 0.27666 0.0
O179 O 0.39648 0.05107 0.18796 0.0
H180 H 0.41838 0.037 0.24573 0.0
H181 H 0.35787 0.02781 0.24072 0.0
O182 O 0.4188 0.01809 0.1944 0.0
C183 C 0.38211 0.06303 0.18963 0.0
O184 O 0.36492 0.05623 0.19811 0.0
N185 N 0.38283 0.99676 0.19498 0.0
C186 C 0.36449 0.96268 0.17248 0.0
C187 C 0.38503 0.96464 0.17222 0.0
C188 C 0.39384 0.98192 0.18279 0.0
C189 C 0.363 0.9943 0.19781 0.0
C190 C 0.35357 0.97745 0.18682 0.0
H191 H 0.40912 0.98405 0.17756 0.0
H192 H 0.35398 0.00653 0.20467 0.0
H193 H 0.41992 0.01576 0.13661 0.0
H194 H 0.36614 0.01531 0.09073 0.0
H195 H 0.40275 0.04855 0.29568 0.0
H196 H 0.39424 0.95365 0.16176 0.0
H197 H 0.33767 0.97706 0.18705 0.0
C198 C 0.20465 0.13377 0.38158 0.0
C199 C 0.20705 0.13761 0.35202 0.0
N200 N 0.22317 0.1489 0.3488 0.0
N201 N 0.21902 0.14283 0.39697 0.0
C202 C 0.23019 0.15188 0.37631 0.0
H203 H 0.1933 0.12466 0.39124 0.0
Co204 Co 0.22102 0.14135 0.43781 0.0
C205 C 0.24293 0.17828 0.45521 0.0
O206 O 0.25302 0.1689 0.47559 0.0
N207 N 0.22193 0.13912 0.47943 0.0
C208 C 0.21277 0.14464 0.52591 0.0
C209 C 0.21638 0.15315 0.4989 0.0
C210 C 0.22128 0.12212 0.49525 0.0
N211 N 0.21554 0.125 0.5236 0.0
O212 O 0.19487 0.15182 0.44034 0.0
H213 H 0.21305 0.16829 0.4932 0.0
H214 H 0.22311 0.10773 0.48541 0.0
O215 O 0.23091 0.1687 0.43889 0.0
C216 C 0.18066 0.14055 0.44747 0.0
O217 O 0.18473 0.12354 0.45998 0.0
N218 N 0.24614 0.12965 0.43334 0.0
C219 C 0.27682 0.10728 0.40871 0.0
C220 C 0.27872 0.12777 0.41262 0.0
C221 C 0.26318 0.13873 0.42474 0.0
C222 C 0.24448 0.10965 0.43109 0.0
C223 C 0.25963 0.09819 0.41919 0.0
H224 H 0.2644 0.15456 0.42437 0.0
H225 H 0.23061 0.10266 0.43621 0.0
H226 H 0.24323 0.16041 0.38117 0.0
H227 H 0.19814 0.13189 0.33415 0.0
H228 H 0.2066 0.15216 0.54483 0.0
H229 H 0.29149 0.13556 0.40434 0.0
H230 H 0.25745 0.08243 0.41693 0.0
C231 C 0.12745 0.95854 0.63531 0.0
C232 C 0.12428 0.96087 0.60557 0.0
N233 N 0.1113 0.97564 0.60193 0.0
N234 N 0.1163 0.97158 0.65032 0.0
C235 C 0.10666 0.98192 0.62932 0.0
H236 H 0.13743 0.94812 0.64544 0.0
Co237 Co 0.11633 0.973 0.69113 0.0
C238 C 0.08046 0.99598 0.70725 0.0
O239 O 0.09074 0.00589 0.72686 0.0
N240 N 0.11698 0.9733 0.73297 0.0
C241 C 0.10897 0.96329 0.77825 0.0
C242 C 0.10197 0.96769 0.75063 0.0
C243 C 0.13306 0.97186 0.75054 0.0
N244 N 0.12864 0.96551 0.77816 0.0
O245 O 0.10606 0.94652 0.69181 0.0
H246 H 0.08718 0.96471 0.74316 0.0
H247 H 0.14789 0.97327 0.74234 0.0
O248 O 0.08907 0.98318 0.69092 0.0
C249 C 0.11724 0.9324 0.69986 0.0
O250 O 0.13305 0.93668 0.71518 0.0
N251 N 0.12809 0.99835 0.68816 0.0
C252 C 0.15112 0.02856 0.66337 0.0
C253 C 0.1306 0.03034 0.66508 0.0
C254 C 0.11934 0.015 0.67712 0.0
C255 C 0.1481 0.99694 0.68823 0.0
C256 C 0.15987 0.01185 0.67612 0.0
H257 H 0.10368 0.01592 0.67444 0.0
H258 H 0.15496 0.98327 0.69495 0.0
H259 H 0.09655 0.99387 0.63385 0.0
H260 H 0.13151 0.95288 0.58792 0.0
H261 H 0.10048 0.9567 0.79589 0.0
H262 H 0.12313 0.0427 0.65488 0.0
H263 H 0.17564 0.00977 0.6753 0.0
C264 C 0.74668 0.88949 0.88995 0.0
C265 C 0.74955 0.88593 0.86049 0.0
N266 N 0.74957 0.86627 0.85631 0.0
N267 N 0.74512 0.87216 0.90438 0.0
C268 C 0.74668 0.85815 0.88319 0.0
H269 H 0.7466 0.9038 0.90053 0.0
Co270 Co 0.74448 0.8717 0.94529 0.0
C271 C 0.75778 0.83068 0.96035 0.0
O272 O 0.77098 0.83749 0.97878 0.0
N273 N 0.74351 0.8725 0.98774 0.0
C274 C 0.75206 0.8771 0.03486 0.0
C275 C 0.7587 0.87262 0.00701 0.0
C276 C 0.72777 0.87703 0.00497 0.0
N277 N 0.73254 0.88019 0.0336 0.0
O278 O 0.71666 0.86848 0.94291 0.0
H279 H 0.774 0.87082 1.00124 0.0
H280 H 0.71316 0.87928 0.99654 0.0
O281 O 0.74718 0.84271 0.94551 0.0
C282 C 0.70763 0.88489 0.94112 0.0
O283 O 0.71751 0.90125 0.94601 0.0
N284 N 0.77172 0.87661 0.94483 0.0
C285 C 0.80529 0.89432 0.92096 0.0
C286 C 0.80159 0.8741 0.91674 0.0
C287 C 0.78467 0.8655 0.92878 0.0
C288 C 0.77595 0.89581 0.95125 0.0
C289 C 0.79274 0.90491 0.93978 0.0
H290 H 0.78091 0.85069 0.92207 0.0
H291 H 0.76515 0.90474 0.96261 0.0
H292 H 0.7468 0.84243 0.88746 0.0
H293 H 0.75184 0.8969 0.84344 0.0
H294 H 0.76122 0.8788 0.0542 0.0
H295 H 0.81091 0.86532 0.90248 0.0
H296 H 0.79475 0.92059 0.94333 0.0
C297 C 0.87553 1.00482 0.64178 0.0
C298 C 0.88014 0.00789 0.61271 0.0
N299 N 0.89963 0.00532 0.60947 0.0
N300 N 0.89206 1.00062 0.6569 0.0
C301 C 0.90658 1.00068 0.63649 0.0
H302 H 0.86109 0.00614 0.65158 0.0
Co303 Co 0.89183 0.998 0.69762 0.0
C304 C 0.93245 0.01322 0.71249 0.0
O305 O 0.92566 0.02739 0.7294 0.0
N306 N 0.89056 0.99496 0.7395 0.0
C307 C 0.88706 1.00097 0.78767 0.0
C308 C 0.89193 0.00894 0.76071 0.0
C309 C 0.88472 0.97861 0.75448 0.0
N310 N 0.88238 0.98184 0.78373 0.0
O311 O 0.8962 0.97036 0.69249 0.0
H312 H 0.89487 0.02439 0.75689 0.0
H313 H 0.88098 0.96481 0.74407 0.0
O314 O 0.92053 1.00164 0.69923 0.0
C315 C 0.88027 0.96127 0.68688 0.0
O316 O 0.86358 0.97092 0.689 0.0
N317 N 0.88581 0.02516 0.70007 0.0
C318 C 0.86631 0.05874 0.6789 0.0
C319 C 0.88662 0.05624 0.67446 0.0
C320 C 0.89603 0.03921 0.68476 0.0
C321 C 0.86663 0.02836 0.7074 0.0
C322 C 0.8566 0.04501 0.69706 0.0
H323 H 0.91076 0.0363 0.67708 0.0
H324 H 0.85837 0.01675 0.71816 0.0
H325 H 0.92193 0.9981 0.6414 0.0
H326 H 0.87001 0.01176 0.59522 0.0
H327 H 0.88631 0.00892 0.80836 0.0
H328 H 0.89491 0.06653 0.66105 0.0
H329 H 0.84093 0.04597 0.70091 0.0
C330 C 0.79172 0.1258 0.39039 0.0
C331 C 0.79155 0.12977 0.36067 0.0
N332 N 0.78026 0.14578 0.35623 0.0
N333 N 0.7808 0.13939 0.40471 0.0
C334 C 0.77393 0.15139 0.38319 0.0
H335 H 0.79886 0.11336 0.40078 0.0
Co336 Co 0.77664 0.13874 0.44531 0.0
C337 C 0.75812 0.17772 0.45907 0.0
O338 O 0.74464 0.16918 0.47541 0.0
N339 N 0.77295 0.13722 0.4875 0.0
C340 C 0.761 0.12888 0.53177 0.0
C341 C 0.75645 0.13256 0.50269 0.0
C342 C 0.78717 0.13678 0.50854 0.0
N343 N 0.78051 0.13118 0.53541 0.0
O344 O 0.80394 0.14491 0.44996 0.0
H345 H 0.74196 0.13098 0.49324 0.0
H346 H 0.80249 0.13934 0.50411 0.0
O347 O 0.77086 0.16716 0.44561 0.0
C348 C 0.81494 0.12981 0.453 0.0
O349 O 0.80664 0.11285 0.45967 0.0
N350 N 0.7505 0.13078 0.43796 0.0
C351 C 0.71923 0.11067 0.41104 0.0
C352 C 0.72065 0.13136 0.40944 0.0
C353 C 0.73643 0.14116 0.42301 0.0
C354 C 0.74873 0.11085 0.44113 0.0
C355 C 0.73311 0.10058 0.42836 0.0
H356 H 0.73809 0.15678 0.41915 0.0
H357 H 0.76027 0.10269 0.45212 0.0
H358 H 0.7641 0.16368 0.38695 0.0
H359 H 0.79821 0.12091 0.34346 0.0
H360 H 0.75075 0.12401 0.54851 0.0
H361 H 0.71051 0.13983 0.39608 0.0
H362 H 0.73251 0.0847 0.43089 0.0
C363 C 0.63459 0.01511 0.13586 0.0
C364 C 0.63083 0.01284 0.10637 0.0
N365 N 0.61127 0.01345 0.10249 0.0
N366 N 0.61746 0.01689 0.15059 0.0
C367 C 0.60336 0.01606 0.12955 0.0
H368 H 0.64891 0.01492 0.1462 0.0
Co369 Co 0.61753 0.01835 0.19148 0.0
C370 C 0.5781 0.99986 0.20562 0.0
O371 O 0.58611 0.98518 0.22015 0.0
N372 N 0.61896 0.02043 0.23362 0.0
C373 C 0.62359 0.01297 0.28115 0.0
C374 C 0.61742 0.00602 0.25419 0.0
C375 C 0.62628 0.03598 0.24908 0.0
N376 N 0.62942 0.03183 0.27791 0.0
O377 O 0.61129 0.04575 0.18798 0.0
H378 H 0.61416 0.99075 0.24975 0.0
H379 H 0.63084 0.04968 0.23913 0.0
O380 O 0.589 0.0128 0.19313 0.0
C381 C 0.62632 0.05644 0.18309 0.0
O382 O 0.64384 0.04842 0.18554 0.0
N383 N 0.62523 0.99154 0.19241 0.0
C384 C 0.64705 0.95934 0.17169 0.0
C385 C 0.62705 0.96132 0.16456 0.0
C386 C 0.6164 0.97757 0.17508 0.0
C387 C 0.6441 0.98887 0.20171 0.0
C388 C 0.65517 0.97276 0.19195 0.0
H389 H 0.6019 0.98014 0.16617 0.0
H390 H 0.65132 1.00037 0.21423 0.0
H391 H 0.58774 0.01669 0.13398 0.0
H392 H 0.64158 0.01068 0.08903 0.0
H393 H 0.62484 1.00431 0.30113 0.0
H394 H 0.62017 0.95157 0.1487 0.0
H395 H 0.67043 0.9717 0.19851 0.0
C396 C 0.71038 0.13159 0.12179 0.0
C397 C 0.71194 0.13686 0.15098 0.0
N398 N 0.72773 0.14862 0.15389 0.0
N399 N 0.72493 0.14029 0.10626 0.0
C400 C 0.7354 0.15045 0.12657 0.0
H401 H 0.69994 0.12118 0.11285 0.0
Co402 Co 0.7301 0.13617 0.06635 0.0
C403 C 0.74499 0.17501 0.04303 0.0
O404 O 0.75219 0.16693 0.01901 0.0
N405 N 0.73504 0.13115 0.02538 0.0
C406 C 0.74639 0.11648 0.9847 0.0
C407 C 0.75017 0.12074 0.0138 0.0
C408 C 0.72251 0.13336 1.00225 0.0
N409 N 0.72878 0.1241 0.97749 0.0
O410 O 0.70309 0.14247 0.05835 0.0
H411 H 0.76267 0.11525 0.02593 0.0
H412 H 0.7085 0.14077 0.00378 0.0
O413 O 0.73682 0.1642 0.06265 0.0
C414 C 0.69188 0.12772 0.05367 0.0
O415 O 0.70008 0.11051 0.04827 0.0
N416 N 0.75568 0.12844 0.07667 0.0
C417 C 0.78803 0.11216 0.10567 0.0
C418 C 0.78907 0.13124 0.09354 0.0
C419 C 0.77256 0.13926 0.0792 0.0
C420 C 0.75495 0.10951 0.08674 0.0
C421 C 0.77087 0.10112 0.10138 0.0
H422 H 0.77311 0.15435 0.07166 0.0
H423 H 0.74141 0.10124 0.08473 0.0
H424 H 0.74882 0.15838 0.12172 0.0
H425 H 0.70303 0.13135 0.16901 0.0
H426 H 0.75522 0.107 0.97076 0.0
H427 H 0.80209 0.14022 0.09652 0.0
H428 H 0.76954 0.08629 0.11012 0.0
C429 C 0.63989 0.99935 0.86026 0.0
C430 C 0.63628 1.00265 0.8896 0.0
N431 N 0.61676 1.00163 0.89398 0.0
N432 N 0.62271 0.99654 0.84608 0.0
C433 C 0.60877 0.9977 0.86734 0.0
H434 H 0.65411 0.99967 0.84959 0.0
Co435 Co 0.62216 0.99416 0.80525 0.0
C436 C 0.58266 0.01134 0.79099 0.0
O437 O 0.59083 0.02489 0.77433 0.0
N438 N 0.62279 0.99113 0.76299 0.0
C439 C 0.62685 0.99669 0.71462 0.0
C440 C 0.62238 0.00507 0.74154 0.0
C441 C 0.62761 0.9744 0.74806 0.0
N442 N 0.63039 0.97738 0.71887 0.0
O443 O 0.61725 0.96663 0.81052 0.0
H444 H 0.62065 0.02072 0.74518 0.0
H445 H 0.62991 0.96023 0.75825 0.0
O446 O 0.59347 0.9988 0.80449 0.0
C447 C 0.63328 0.95723 0.81407 0.0
O448 O 0.64994 0.96648 0.80908 0.0
N449 N 0.62886 0.02124 0.80286 0.0
C450 C 0.64985 0.05397 0.82379 0.0
C451 C 0.62986 0.05151 0.83064 0.0
C452 C 0.61962 0.03507 0.81998 0.0
C453 C 0.64768 0.0244 0.79363 0.0
C454 C 0.65832 0.04081 0.80344 0.0
H455 H 0.6052 0.03217 0.82894 0.0
H456 H 0.65525 0.01303 0.78128 0.0
H457 H 0.59313 0.99658 0.86325 0.0
H458 H 0.64712 0.00584 0.90644 0.0
H459 H 0.62887 1.0045 0.694 0.0
H460 H 0.62264 0.06098 0.84656 0.0
H461 H 0.67357 0.04223 0.79692 0.0
C462 C 0.75851 0.88313 0.61487 0.0
C463 C 0.75526 0.87889 0.64399 0.0
N464 N 0.75829 0.85947 0.64796 0.0
N465 N 0.76327 0.86641 0.60036 0.0
C466 C 0.76336 0.85215 0.62129 0.0
H467 H 0.75725 0.89752 0.6047 0.0
Co468 Co 0.76719 0.8669 0.55977 0.0
C469 C 0.75414 0.82651 0.54032 0.0
O470 O 0.74231 0.83422 0.52061 0.0
N471 N 0.77162 0.86876 0.51795 0.0
C472 C 0.76731 0.87404 0.46963 0.0
C473 C 0.75825 0.86923 0.49582 0.0
C474 C 0.78871 0.87372 0.50425 0.0
N475 N 0.78648 0.87708 0.47502 0.0
O476 O 0.79457 0.86301 0.56685 0.0
H477 H 0.74256 0.86756 0.49852 0.0
H478 H 0.80255 0.87568 0.51544 0.0
O479 O 0.76397 0.83786 0.55741 0.0
C480 C 0.80298 0.87931 0.57276 0.0
O481 O 0.79301 0.89578 0.56959 0.0
N482 N 0.74019 0.8725 0.55555 0.0
C483 C 0.70642 0.8912 0.57731 0.0
C484 C 0.70875 0.87059 0.57961 0.0
C485 C 0.72587 0.86155 0.56898 0.0
C486 C 0.73709 0.89202 0.54985 0.0
C487 C 0.72038 0.90167 0.56059 0.0
H488 H 0.7286 0.84639 0.57508 0.0
H489 H 0.74886 0.90076 0.54051 0.0
H490 H 0.76668 0.83678 0.61707 0.0
H491 H 0.75116 0.88927 0.66111 0.0
H492 H 0.76007 0.87655 0.44868 0.0
H493 H 0.69825 0.86169 0.59165 0.0
H494 H 0.7196 0.91755 0.55831 0.0
C495 C 0.87963 0.00847 0.37147 0.0
C496 C 0.88448 1.0049 0.40029 0.0
N497 N 0.90399 0.0073 0.40317 0.0
N498 N 0.89605 0.01279 0.35611 0.0
C499 C 0.91075 0.01233 0.37619 0.0
H500 H 0.86505 0.00764 0.36206 0.0
Co501 Co 0.89488 0.01642 0.31565 0.0
C502 C 0.93468 1.00376 0.29431 0.0
O503 O 0.92682 0.9927 0.27371 0.0
N504 N 0.8923 0.02056 0.27381 0.0
C505 C 0.88394 0.0159 0.22656 0.0
C506 C 0.89022 0.00693 0.25214 0.0
C507 C 0.8873 0.03774 0.26027 0.0
N508 N 0.88179 0.03532 0.23183 0.0
O509 O 0.89898 0.04395 0.32217 0.0
H510 H 0.89164 0.99116 0.25502 0.0
H511 H 0.88667 0.05183 0.27122 0.0
O512 O 0.92358 0.01308 0.31232 0.0
C513 C 0.88294 0.05296 0.32738 0.0
O514 O 0.86629 0.04341 0.32378 0.0
N515 N 0.88921 0.98929 0.31211 0.0
C516 C 0.87128 0.95527 0.33478 0.0
C517 C 0.89181 0.95771 0.33602 0.0
C518 C 0.9005 0.97493 0.32483 0.0
C519 C 0.86964 0.98618 0.30771 0.0
C520 C 0.86038 0.96933 0.31885 0.0
H521 H 0.91576 0.97767 0.32987 0.0
H522 H 0.86067 0.99801 0.29898 0.0
H523 H 0.92604 0.01514 0.37112 0.0
H524 H 0.87445 1.00102 0.41793 0.0
H525 H 0.87965 0.00841 0.20646 0.0
H526 H 0.90097 0.94716 0.34754 0.0
H527 H 0.84453 0.96846 0.31748 0.0
C528 C 0.79864 0.63183 0.61728 0.0
C529 C 0.79696 0.63717 0.6464 0.0
N530 N 0.78315 0.6513 0.64841 0.0
N531 N 0.78615 0.64272 0.60083 0.0
C532 C 0.77688 0.65448 0.62055 0.0
H533 H 0.80769 0.61997 0.60898 0.0
Co534 Co 0.78219 0.63894 0.5604 0.0
C535 C 0.7614 0.67663 0.542 0.0
O536 O 0.74869 0.66734 0.52527 0.0
N537 N 0.77857 0.63399 0.51883 0.0
C538 C 0.76545 0.62201 0.47725 0.0
C539 C 0.76156 0.62964 0.50477 0.0
C540 C 0.79256 0.62902 0.49867 0.0
N541 N 0.78505 0.62129 0.47354 0.0
O542 O 0.80884 0.6472 0.55423 0.0
H543 H 0.74707 0.63051 0.51445 0.0
H544 H 0.8081 0.62961 0.50283 0.0
O545 O 0.77425 0.66682 0.55645 0.0
C546 C 0.82156 0.63342 0.55503 0.0
O547 O 0.81538 0.61505 0.55318 0.0
N548 N 0.75675 0.62943 0.56897 0.0
C549 C 0.72536 0.60901 0.59486 0.0
C550 C 0.72523 0.62974 0.59309 0.0
C551 C 0.74112 0.6397 0.58011 0.0
C552 C 0.75661 0.60932 0.5691 0.0
C553 C 0.74103 0.59884 0.58159 0.0
H554 H 0.74131 0.65559 0.58108 0.0
H555 H 0.76924 0.60137 0.56078 0.0
H556 H 0.76524 0.66467 0.61495 0.0
H557 H 0.80423 0.6302 0.66493 0.0
H558 H 0.75462 0.61642 0.4619 0.0
H559 H 0.71361 0.63826 0.6033 0.0
H560 H 0.74166 0.58286 0.58185 0.0
C561 C 0.63012 0.54649 0.87381 0.0
C562 C 0.62587 0.5456 0.90334 0.0
N563 N 0.6091 0.53528 0.90689 0.0
N564 N 0.61607 0.53696 0.85849 0.0
C565 C 0.60336 0.53031 0.87925 0.0
H566 H 0.64324 0.55279 0.86425 0.0
Co567 Co 0.6182 0.53287 0.81794 0.0
C568 C 0.57983 0.51289 0.8019 0.0
O569 O 0.58848 0.49974 0.78512 0.0
N570 N 0.62163 0.52913 0.77609 0.0
C571 C 0.63141 0.51564 0.7335 0.0
C572 C 0.62467 0.51193 0.76154 0.0
C573 C 0.62667 0.54304 0.7558 0.0
N574 N 0.63307 0.53529 0.72998 0.0
O575 O 0.61053 0.55982 0.81239 0.0
H576 H 0.62364 0.49738 0.77117 0.0
H577 H 0.6272 0.5586 0.76034 0.0
O578 O 0.59013 0.52561 0.81592 0.0
C579 C 0.62466 0.57216 0.81262 0.0
O580 O 0.64273 0.5654 0.81048 0.0
N581 N 0.62713 0.50714 0.82584 0.0
C582 C 0.64739 0.47546 0.85138 0.0
C583 C 0.62677 0.47673 0.85316 0.0
C584 C 0.6169 0.49272 0.84027 0.0
C585 C 0.64699 0.50569 0.8227 0.0
C586 C 0.65735 0.48987 0.83485 0.0
H587 H 0.60131 0.49418 0.84398 0.0
H588 H 0.65498 0.51752 0.81203 0.0
H589 H 0.59063 0.52134 0.87434 0.0
H590 H 0.63521 0.55094 0.92095 0.0
H591 H 0.6359 0.50454 0.71771 0.0
H592 H 0.6184 0.4662 0.86603 0.0
H593 H 0.67316 0.48943 0.83226 0.0
C594 C 0.70194 0.36965 0.12406 0.0
C595 C 0.70364 0.36647 0.15391 0.0
N596 N 0.71919 0.35458 0.15841 0.0
N597 N 0.71619 0.35961 0.10982 0.0
C598 C 0.72651 0.35056 0.13137 0.0
H599 H 0.69128 0.37911 0.11342 0.0
Co600 Co 0.71944 0.36062 0.06927 0.0
C601 C 0.74334 0.32438 0.05507 0.0
O602 O 0.75478 0.33426 0.03693 0.0
N603 N 0.72164 0.36242 0.02782 0.0
C604 C 0.71506 0.35615 0.98065 0.0
C605 C 0.71856 0.34795 0.00788 0.0
C606 C 0.71962 0.37929 0.01205 0.0
N607 N 0.71525 0.376 0.98325 0.0
O608 O 0.69359 0.34959 0.0653 0.0
H609 H 0.71676 0.3325 0.01313 0.0
H610 H 0.71883 0.39361 0.02238 0.0
O611 O 0.72982 0.33346 0.06927 0.0
C612 C 0.67922 0.36043 0.05744 0.0
O613 O 0.68307 0.3772 0.04407 0.0
N614 N 0.74427 0.37286 0.07518 0.0
C615 C 0.77442 0.39615 0.09944 0.0
C616 C 0.77623 0.37553 0.0978 0.0
C617 C 0.76093 0.36415 0.08602 0.0
C618 C 0.7426 0.39293 0.0757 0.0
C619 C 0.75749 0.40483 0.08744 0.0
H620 H 0.76202 0.3484 0.08837 0.0
H621 H 0.72892 0.39975 0.06924 0.0
H622 H 0.73932 0.34147 0.12751 0.0
H623 H 0.69479 0.37318 0.17106 0.0
H624 H 0.71102 0.34789 0.96117 0.0
H625 H 0.78873 0.36809 0.10755 0.0
H626 H 0.75534 0.42067 0.08827 0.0
C627 C 0.88319 0.45617 0.37161 0.0
C628 C 0.88682 0.45946 0.40101 0.0
N629 N 0.89854 0.47537 0.40323 0.0
N630 N 0.89279 0.4698 0.35535 0.0
C631 C 0.90199 0.48138 0.37532 0.0
H632 H 0.87373 0.44484 0.36266 0.0
Co633 Co 0.89136 0.47089 0.31451 0.0
C634 C 0.92932 0.49025 0.29589 0.0
O635 O 0.92053 0.5003 0.27488 0.0
N636 N 0.88907 0.4709 0.27296 0.0
C637 C 0.89359 0.45995 0.22712 0.0
C638 C 0.90255 0.46409 0.25359 0.0
C639 C 0.87196 0.47049 0.25766 0.0
N640 N 0.87421 0.46363 0.22975 0.0
O641 O 0.90013 0.44398 0.31336 0.0
H642 H 0.9175 0.46019 0.2592 0.0
H643 H 0.85784 0.4732 0.26776 0.0
O644 O 0.91915 0.47913 0.31287 0.0
C645 C 0.88782 0.43037 0.30747 0.0
O646 O 0.87076 0.4354 0.29616 0.0
N647 N 0.88129 0.49694 0.31757 0.0
C648 C 0.86118 0.52996 0.3399 0.0
C649 C 0.88163 0.53037 0.33578 0.0
C650 C 0.89143 0.51371 0.32476 0.0
C651 C 0.86132 0.49664 0.32019 0.0
C652 C 0.85098 0.51297 0.33098 0.0
H653 H 0.90722 0.514 0.32482 0.0
H654 H 0.85347 0.483 0.31635 0.0
H655 H 0.91085 0.4941 0.3697 0.0
H656 H 0.88058 0.45139 0.41941 0.0
H657 H 0.90053 0.45272 0.20853 0.0
H658 H 0.89016 0.54313 0.34239 0.0
H659 H 0.83527 0.5117 0.33432 0.0
C660 C 0.8004 0.37112 0.38731 0.0
C661 C 0.79709 0.36692 0.35809 0.0
N662 N 0.78067 0.35595 0.35629 0.0
N663 N 0.7863 0.36257 0.40389 0.0
C664 C 0.77434 0.35352 0.38428 0.0
H665 H 0.8121 0.38026 0.39588 0.0
Co666 Co 0.78512 0.36489 0.44462 0.0
C667 C 0.76544 0.32731 0.46511 0.0
O668 O 0.75611 0.33644 0.48655 0.0
N669 N 0.78496 0.36806 0.48596 0.0
C670 C 0.79567 0.36456 0.53208 0.0
C671 C 0.79177 0.35498 0.506 0.0
C672 C 0.78518 0.38558 0.50042 0.0
N673 N 0.79187 0.38394 0.5285 0.0
O674 O 0.81174 0.35553 0.44639 0.0
H675 H 0.79577 0.33988 0.50111 0.0
H676 H 0.78243 0.39952 0.48959 0.0
O677 O 0.77626 0.3372 0.44735 0.0
C678 C 0.82548 0.36769 0.45228 0.0
O679 O 0.82074 0.38496 0.46339 0.0
N680 N 0.75949 0.37552 0.44089 0.0
C681 C 0.72702 0.39554 0.41684 0.0
C682 C 0.72581 0.37546 0.42459 0.0
C683 C 0.74224 0.36565 0.43611 0.0
C684 C 0.76055 0.39527 0.4353 0.0
C685 C 0.7446 0.40554 0.42331 0.0
H686 H 0.74126 0.34992 0.43855 0.0
H687 H 0.77448 0.40279 0.43776 0.0
H688 H 0.76118 0.3455 0.39024 0.0
H689 H 0.80555 0.37226 0.33948 0.0
H690 H 0.80282 0.35806 0.55108 0.0
H691 H 0.71257 0.36704 0.42044 0.0
H692 H 0.74663 0.42087 0.4173 0.0
C693 C 0.8836 0.55926 0.63173 0.0
C694 C 0.88716 0.55678 0.60211 0.0
N695 N 0.89857 0.54071 0.59879 0.0
N696 N 0.89293 0.54499 0.64702 0.0
C697 C 0.90191 0.53384 0.62629 0.0
H698 H 0.87428 0.57043 0.64148 0.0
Co699 Co 0.89124 0.54227 0.68763 0.0
C700 C 0.92797 0.51976 0.70405 0.0
O701 O 0.91863 0.50874 0.72339 0.0
N702 N 0.88876 0.54052 0.72899 0.0
C703 C 0.89341 0.54881 0.77602 0.0
C704 C 0.90242 0.54548 0.74928 0.0
C705 C 0.87156 0.54108 0.74402 0.0
N706 N 0.87387 0.5464 0.77264 0.0
O707 O 0.90163 0.56849 0.69129 0.0
H708 H 0.91764 0.54867 0.74437 0.0
H709 H 0.85744 0.53961 0.73343 0.0
O710 O 0.91844 0.53243 0.68876 0.0
C711 C 0.89035 0.58272 0.69841 0.0
O712 O 0.87355 0.57855 0.7113 0.0
N713 N 0.8796 0.51712 0.68201 0.0
C714 C 0.85732 0.48642 0.65716 0.0
C715 C 0.87768 0.4844 0.66129 0.0
C716 C 0.8886 0.49998 0.67343 0.0
C717 C 0.85973 0.51896 0.67923 0.0
C718 C 0.84832 0.5038 0.66719 0.0
H719 H 0.90434 0.49867 0.67313 0.0
H720 H 0.85282 0.53295 0.68417 0.0
H721 H 0.91042 0.52074 0.63109 0.0
H722 H 0.881 0.56546 0.58429 0.0
H723 H 0.90054 0.55464 0.79551 0.0
H724 H 0.88539 0.47149 0.65322 0.0
H725 H 0.83267 0.50609 0.66457 0.0
C726 C 0.702 0.63905 0.87807 0.0
C727 C 0.70463 0.64272 0.8485 0.0
N728 N 0.72088 0.65384 0.84539 0.0
N729 N 0.71637 0.64803 0.89355 0.0
C730 C 0.72773 0.6569 0.87296 0.0
H731 H 0.69057 0.63001 0.88769 0.0
Co732 Co 0.71851 0.64631 0.93429 0.0
C733 C 0.74195 0.68199 0.95163 0.0
O734 O 0.75235 0.6717 0.97065 0.0
N735 N 0.71964 0.64391 0.97579 0.0
C736 C 0.71048 0.64923 0.02231 0.0
C737 C 0.71456 0.65793 0.99558 0.0
C738 C 0.71845 0.6268 0.99118 0.0
N739 N 0.71255 0.62953 0.01947 0.0
O740 O 0.69254 0.65729 0.93717 0.0
H741 H 0.71175 0.67322 0.9902 0.0
H742 H 0.71982 0.61249 0.98097 0.0
O743 O 0.72898 0.67336 0.9358 0.0
C744 C 0.67818 0.6464 0.94497 0.0
O745 O 0.68203 0.62955 0.95811 0.0
N746 N 0.74339 0.63407 0.92942 0.0
C747 C 0.7738 0.61096 0.90565 0.0
C748 C 0.776 0.63145 0.90902 0.0
C749 C 0.76057 0.64277 0.92056 0.0
C750 C 0.74135 0.61409 0.92736 0.0
C751 C 0.75637 0.60226 0.91587 0.0
H752 H 0.76205 0.65855 0.91949 0.0
H753 H 0.72733 0.60738 0.93236 0.0
H754 H 0.74087 0.66524 0.8779 0.0
H755 H 0.69584 0.63691 0.83057 0.0
H756 H 0.70437 0.65672 0.04131 0.0
H757 H 0.78894 0.63893 0.90069 0.0
H758 H 0.75392 0.58653 0.91372 0.0
C759 C 0.62882 0.45848 0.13268 0.0
C760 C 0.62396 0.4605 0.10348 0.0
N761 N 0.60876 0.47316 0.10138 0.0
N762 N 0.61666 0.46962 0.14922 0.0
C763 C 0.60455 0.47844 0.12951 0.0
H764 H 0.64116 0.45019 0.14111 0.0
Co765 Co 0.6201 0.47283 0.18974 0.0
C766 C 0.58195 0.49026 0.21222 0.0
O767 O 0.59052 0.4989 0.23468 0.0
N768 N 0.62496 0.47569 0.23148 0.0
C769 C 0.63755 0.4875 0.27363 0.0
C770 C 0.63043 0.49228 0.2461 0.0
C771 C 0.62877 0.4611 0.25128 0.0
N772 N 0.63684 0.46778 0.27664 0.0
O773 O 0.61229 0.44583 0.19462 0.0
H774 H 0.6304 0.50701 0.23691 0.0
H775 H 0.62668 0.44561 0.24705 0.0
O776 O 0.59226 0.48054 0.1936 0.0
C777 C 0.62642 0.4335 0.19401 0.0
O778 O 0.64448 0.44024 0.19645 0.0
N779 N 0.62915 0.49849 0.18232 0.0
C780 C 0.64852 0.53007 0.15527 0.0
C781 C 0.628 0.53039 0.15916 0.0
C782 C 0.61851 0.51434 0.17269 0.0
C783 C 0.64912 0.49854 0.18045 0.0
C784 C 0.6591 0.5142 0.16724 0.0
H785 H 0.60266 0.51408 0.1733 0.0
H786 H 0.65726 0.48568 0.1876 0.0
H787 H 0.59339 0.48907 0.13555 0.0
H788 H 0.63193 0.45415 0.08511 0.0
H789 H 0.64425 0.4976 0.28917 0.0
H790 H 0.61922 0.54225 0.15005 0.0
H791 H 0.67494 0.51344 0.16524 0.0
C792 C 0.20458 0.37311 0.38184 0.0
C793 C 0.20693 0.36915 0.3523 0.0
N794 N 0.22266 0.35731 0.34922 0.0
N795 N 0.21861 0.36361 0.39735 0.0
C796 C 0.22946 0.3541 0.37678 0.0
H797 H 0.19363 0.38276 0.39138 0.0
Co798 Co 0.22098 0.36565 0.43812 0.0
C799 C 0.24238 0.32814 0.45514 0.0
O800 O 0.25387 0.33738 0.47393 0.0
N801 N 0.2223 0.36854 0.47961 0.0
C802 C 0.21394 0.36388 0.52667 0.0
C803 C 0.21796 0.35477 0.50019 0.0
C804 C 0.22054 0.38592 0.49424 0.0
N805 N 0.21518 0.38355 0.52282 0.0
O806 O 0.1945 0.35616 0.44148 0.0
H807 H 0.21546 0.33931 0.49566 0.0
H808 H 0.221 0.4001 0.48334 0.0
O809 O 0.22983 0.33794 0.44004 0.0
C810 C 0.18067 0.36809 0.44789 0.0
O811 O 0.18531 0.38543 0.45881 0.0
N812 N 0.24658 0.37635 0.43284 0.0
C813 C 0.27816 0.39703 0.40749 0.0
C814 C 0.27887 0.37646 0.411 0.0
C815 C 0.26294 0.36639 0.4235 0.0
C816 C 0.24607 0.39646 0.43087 0.0
C817 C 0.26174 0.4071 0.41862 0.0
H818 H 0.26332 0.35054 0.42275 0.0
H819 H 0.23269 0.40422 0.43631 0.0
H820 H 0.24225 0.34521 0.38166 0.0
H821 H 0.1984 0.3753 0.33435 0.0
H822 H 0.20831 0.35665 0.54624 0.0
H823 H 0.29122 0.36804 0.40266 0.0
H824 H 0.2603 0.42291 0.41586 0.0
C825 C 0.38674 0.4552 0.13468 0.0
C826 C 0.39011 0.45809 0.1051 0.0
N827 N 0.40187 0.47392 0.10215 0.0
N828 N 0.39658 0.46896 0.15035 0.0
C829 C 0.40564 0.48025 0.12983 0.0
H830 H 0.37719 0.44413 0.14416 0.0
Co831 Co 0.39498 0.47076 0.19119 0.0
C832 C 0.43273 0.49114 0.20873 0.0
O833 O 0.42374 0.50224 0.22833 0.0
N834 N 0.39244 0.47157 0.2327 0.0
C835 C 0.39666 0.46236 0.2795 0.0
C836 C 0.40591 0.46617 0.25306 0.0
C837 C 0.3751 0.47068 0.24738 0.0
N838 N 0.37718 0.46483 0.27579 0.0
O839 O 0.40399 0.44392 0.19343 0.0
H840 H 0.42114 0.46294 0.24832 0.0
H841 H 0.36103 0.47215 0.23662 0.0
O842 O 0.42275 0.47914 0.19288 0.0
C843 C 0.39204 0.43011 0.19996 0.0
O844 O 0.37526 0.43484 0.21242 0.0
N845 N 0.38471 0.49666 0.187 0.0
C846 C 0.36434 0.52912 0.16359 0.0
C847 C 0.38481 0.52967 0.16724 0.0
C848 C 0.39474 0.51328 0.17876 0.0
C849 C 0.36472 0.49624 0.18475 0.0
C850 C 0.35423 0.51234 0.17349 0.0
H851 H 0.41052 0.51358 0.17814 0.0
H852 H 0.35693 0.48266 0.1892 0.0
H853 H 0.41453 0.49304 0.13487 0.0
H854 H 0.38357 0.44989 0.08709 0.0
H855 H 0.40353 0.45608 0.29889 0.0
H856 H 0.39325 0.54228 0.15975 0.0
H857 H 0.3385 0.51099 0.17048 0.0
C858 C 0.30649 0.63294 0.88178 0.0
C859 C 0.30379 0.6385 0.85295 0.0
N860 N 0.2882 0.65066 0.85182 0.0
N861 N 0.29289 0.64182 0.89898 0.0
C862 C 0.28185 0.65247 0.87991 0.0
H863 H 0.31714 0.62227 0.88925 0.0
Co864 Co 0.28954 0.63754 0.93948 0.0
C865 C 0.28532 0.67721 0.96362 0.0
O866 O 0.29758 0.67169 0.98444 0.0
N867 N 0.28623 0.63246 0.98049 0.0
C868 C 0.27286 0.62638 0.02462 0.0
C869 C 0.26961 0.63395 0.99671 0.0
C870 C 0.29937 0.62428 0.99935 0.0
N871 N 0.29168 0.62037 0.02615 0.0
O872 O 0.316 0.64668 0.94539 0.0
H873 H 0.25578 0.6396 0.98853 0.0
H874 H 0.31419 0.62037 0.99362 0.0
O875 O 0.27996 0.66474 0.944 0.0
C876 C 0.32914 0.63333 0.94401 0.0
O877 O 0.32346 0.61476 0.94345 0.0
N878 N 0.26448 0.62723 0.9317 0.0
C879 C 0.23304 0.60759 0.90489 0.0
C880 C 0.23179 0.62785 0.91167 0.0
C881 C 0.24772 0.63744 0.92519 0.0
C882 C 0.26539 0.60738 0.92731 0.0
C883 C 0.24985 0.59726 0.9141 0.0
H884 H 0.24701 0.65322 0.92855 0.0
H885 H 0.27883 0.59957 0.93245 0.0
H886 H 0.269 0.66087 0.88621 0.0
H887 H 0.31176 0.63294 0.834 0.0
H888 H 0.26215 0.62511 0.0422 0.0
H889 H 0.21916 0.63647 0.90498 0.0
H890 H 0.25135 0.58157 0.91009 0.0
C891 C 0.12634 0.54796 0.629 0.0
C892 C 0.12363 0.54334 0.59976 0.0
N893 N 0.10881 0.53027 0.59794 0.0
N894 N 0.11346 0.53761 0.64547 0.0
C895 C 0.10286 0.52698 0.62588 0.0
H896 H 0.13773 0.55736 0.63791 0.0
Co897 Co 0.11468 0.53708 0.68619 0.0
C898 C 0.07706 0.5175 0.70514 0.0
O899 O 0.08616 0.50746 0.72587 0.0
N900 N 0.11679 0.53756 0.72781 0.0
C901 C 0.11196 0.54901 0.77335 0.0
C902 C 0.10316 0.54449 0.74687 0.0
C903 C 0.13381 0.53828 0.7433 0.0
N904 N 0.13137 0.54545 0.77099 0.0
O905 O 0.10609 0.56399 0.68654 0.0
H906 H 0.08821 0.5482 0.74102 0.0
H907 H 0.14801 0.53556 0.73352 0.0
O908 O 0.08693 0.5288 0.68803 0.0
C909 C 0.11911 0.57704 0.69166 0.0
O910 O 0.13641 0.57124 0.70118 0.0
N911 N 0.12479 0.51106 0.68365 0.0
C912 C 0.14515 0.47932 0.65803 0.0
C913 C 0.12467 0.47861 0.66187 0.0
C914 C 0.11474 0.49463 0.67462 0.0
C915 C 0.14479 0.51148 0.68154 0.0
C916 C 0.15526 0.49574 0.66919 0.0
H917 H 0.09895 0.49437 0.67414 0.0
H918 H 0.15257 0.52499 0.68646 0.0
H919 H 0.09197 0.51607 0.63196 0.0
H920 H 0.1326 0.54823 0.58141 0.0
H921 H 0.10491 0.55639 0.79172 0.0
H922 H 0.11623 0.46625 0.65353 0.0
H923 H 0.17098 0.49721 0.66614 0.0
C924 C 0.20632 0.63634 0.62276 0.0
C925 C 0.20872 0.63994 0.65239 0.0
N926 N 0.22475 0.65134 0.65578 0.0
N927 N 0.22063 0.64561 0.60753 0.0
C928 C 0.23169 0.65464 0.6283 0.0
H929 H 0.19506 0.62719 0.61294 0.0
Co930 Co 0.2229 0.64422 0.56679 0.0
C931 C 0.24619 0.68024 0.55003 0.0
O932 O 0.25647 0.67015 0.53061 0.0
N933 N 0.22406 0.64214 0.5252 0.0
C934 C 0.21563 0.64836 0.47869 0.0
C935 C 0.21968 0.65654 0.50572 0.0
C936 C 0.22222 0.62526 0.50935 0.0
N937 N 0.21675 0.62851 0.48092 0.0
O938 O 0.19693 0.65511 0.56393 0.0
H939 H 0.21737 0.67187 0.51135 0.0
H940 H 0.2225 0.61086 0.5195 0.0
O941 O 0.23338 0.67137 0.56592 0.0
C942 C 0.18279 0.64379 0.55666 0.0
O943 O 0.18699 0.62648 0.54519 0.0
N944 N 0.24783 0.63204 0.57156 0.0
C945 C 0.27815 0.60901 0.59578 0.0
C946 C 0.28022 0.62953 0.59277 0.0
C947 C 0.26484 0.64081 0.58097 0.0
C948 C 0.24599 0.61201 0.57305 0.0
C949 C 0.26096 0.60023 0.58482 0.0
H950 H 0.26618 0.6566 0.58227 0.0
H951 H 0.23212 0.60521 0.56744 0.0
H952 H 0.24466 0.6633 0.62355 0.0
H953 H 0.19992 0.63392 0.67015 0.0
H954 H 0.21053 0.65659 0.45977 0.0
H955 H 0.29298 0.63706 0.60159 0.0
H956 H 0.25864 0.58445 0.58661 0.0
C957 C 0.12994 0.45808 0.36883 0.0
C958 C 0.12605 0.45759 0.39849 0.0
N959 N 0.10923 0.46753 0.40341 0.0
N960 N 0.11557 0.46808 0.35486 0.0
C961 C 0.10307 0.47363 0.37655 0.0
H962 H 0.14298 0.45232 0.3583 0.0
Co963 Co 0.11678 0.47336 0.31462 0.0
C964 C 0.07836 0.49489 0.3039 0.0
O965 O 0.08703 0.50994 0.29115 0.0
N966 N 0.11913 0.47822 0.27303 0.0
C967 C 0.12742 0.49264 0.23043 0.0
C968 C 0.12116 0.49573 0.25894 0.0
C969 C 0.12409 0.4648 0.25204 0.0
N970 N 0.12961 0.4731 0.22618 0.0
O971 O 0.10885 0.44659 0.30794 0.0
H972 H 0.12005 0.51007 0.26921 0.0
H973 H 0.12525 0.44921 0.25605 0.0
O974 O 0.08869 0.48067 0.31414 0.0
C975 C 0.1228 0.43405 0.3076 0.0
O976 O 0.14087 0.44057 0.30424 0.0
N977 N 0.12605 0.49891 0.32369 0.0
C978 C 0.14705 0.52991 0.3499 0.0
C979 C 0.12663 0.52818 0.35377 0.0
C980 C 0.11642 0.5125 0.34068 0.0
C981 C 0.14573 0.5008 0.31874 0.0
C982 C 0.15645 0.51627 0.33131 0.0
H983 H 0.10112 0.51059 0.34615 0.0
H984 H 0.15337 0.48954 0.30626 0.0
H985 H 0.09015 0.48262 0.37296 0.0
H986 H 0.13561 0.45162 0.41538 0.0
H987 H 0.13131 0.50408 0.21482 0.0
H988 H 0.11875 0.53806 0.36837 0.0
H989 H 0.17213 0.51706 0.32735 0.0
C990 C 0.29752 0.38001 0.11972 0.0
C991 C 0.29603 0.37488 0.14895 0.0
N992 N 0.283 0.36005 0.15119 0.0
N993 N 0.28569 0.36829 0.10343 0.0
C994 C 0.27697 0.35626 0.12338 0.0
H995 H 0.30602 0.3922 0.11119 0.0
Co996 Co 0.28205 0.37132 0.06279 0.0
C997 C 0.26179 0.33285 0.04625 0.0
O998 O 0.24816 0.34153 0.03046 0.0
N999 N 0.27874 0.37544 0.02101 0.0
C1000 C 0.26551 0.3857 0.97852 0.0
C1001 C 0.2617 0.3783 0.0062 0.0
C1002 C 0.29267 0.38111 1.0012 0.0
N1003 N 0.28506 0.3878 0.97548 0.0
O1004 O 0.30892 0.36351 0.0575 0.0
H1005 H 0.24716 0.37679 0.01549 0.0
H1006 H 0.30812 0.38184 0.00599 0.0
O1007 O 0.27476 0.34322 0.05954 0.0
C1008 C 0.32139 0.37753 0.05833 0.0
O1009 O 0.31491 0.39578 0.05617 0.0
N1010 N 0.25635 0.38046 0.07035 0.0
C1011 C 0.22412 0.40091 0.09367 0.0
C1012 C 0.22469 0.38017 0.09404 0.0
C1013 C 0.24101 0.37019 0.08239 0.0
C1014 C 0.25558 0.40052 0.06856 0.0
C1015 C 0.23958 0.41101 0.07976 0.0
H1016 H 0.24173 0.3544 0.08499 0.0
H1017 H 0.26802 0.4085 0.05966 0.0
H1018 H 0.26595 0.34536 0.11793 0.0
H1019 H 0.30289 0.38239 0.16736 0.0
H1020 H 0.25455 0.39029 0.96264 0.0
H1021 H 0.21327 0.37173 0.1049 0.0
H1022 H 0.2397 0.42698 0.07851 0.0
C1023 C 0.38594 0.55605 0.87127 0.0
C1024 C 0.38929 0.55375 0.90099 0.0
N1025 N 0.40041 0.53752 0.90474 0.0
N1026 N 0.3951 0.54149 0.85633 0.0
C1027 C 0.40381 0.53039 0.87739 0.0
H1028 H 0.37695 0.56737 0.86122 0.0
Co1029 Co 0.39367 0.53871 0.81559 0.0
C1030 C 0.43075 0.51649 0.80016 0.0
O1031 O 0.42172 0.50503 0.78108 0.0
N1032 N 0.39143 0.53698 0.77411 0.0
C1033 C 0.39652 0.54534 0.72718 0.0
C1034 C 0.40531 0.54166 0.75398 0.0
C1035 C 0.37433 0.53808 0.75889 0.0
N1036 N 0.37691 0.54344 0.73032 0.0
O1037 O 0.40386 0.56498 0.81194 0.0
H1038 H 0.42057 0.5445 0.75905 0.0
H1039 H 0.36012 0.53698 0.76932 0.0
O1040 O 0.42095 0.52925 0.81486 0.0
C1041 C 0.3927 0.57923 0.80455 0.0
O1042 O 0.37554 0.5751 0.79278 0.0
N1043 N 0.38234 0.51334 0.82102 0.0
C1044 C 0.36017 0.48205 0.84462 0.0
C1045 C 0.38069 0.48064 0.84196 0.0
C1046 C 0.39152 0.49646 0.83033 0.0
C1047 C 0.36237 0.51462 0.82246 0.0
C1048 C 0.35103 0.49913 0.83367 0.0
H1049 H 0.40726 0.49557 0.83161 0.0
H1050 H 0.35522 0.52839 0.81707 0.0
H1051 H 0.41228 0.51722 0.87295 0.0
H1052 H 0.38323 0.56272 0.91857 0.0
H1053 H 0.40392 0.55104 0.70783 0.0
H1054 H 0.38853 0.46803 0.85074 0.0
H1055 H 0.33524 0.50097 0.83497 0.0
H1056 H 0.13214 0.07525 0.21289 0.0
H1057 H 0.16327 0.0223 0.18697 0.0
H1058 H 0.15203 0.09438 0.17855 0.0
H1059 H 0.18225 0.04125 0.15192 0.0
H1060 H 0.23146 0.08325 0.12686 0.0
H1061 H 0.20859 0.06444 0.15664 0.0
H1062 H 0.16095 0.10173 0.12729 0.0
H1063 H 0.18415 0.12082 0.09716 0.0
C1064 C 0.14302 0.06756 0.19984 0.0
C1065 C 0.14622 0.04712 0.20354 0.0
C1066 C 0.15432 0.07858 0.1798 0.0
C1067 C 0.16904 0.06946 0.1628 0.0
C1068 C 0.17139 0.04889 0.16516 0.0
C1069 C 0.16022 0.03791 0.18521 0.0
C1070 C 0.21607 0.08731 0.12624 0.0
C1071 C 0.20964 0.10338 0.1091 0.0
C1072 C 0.20289 0.07647 0.14342 0.0
C1073 C 0.1828 0.08131 0.1441 0.0
C1074 C 0.17632 0.09759 0.12736 0.0
C1075 C 0.1896 0.10853 0.11007 0.0
H1076 H 0.17724 0.98567 0.39556 0.0
H1077 H 0.15104 0.93743 0.34731 0.0
H1078 H 0.19492 0.96221 0.42658 0.0
H1079 H 0.16901 0.91377 0.37847 0.0
H1080 H 0.22528 0.88283 0.42237 0.0
H1081 H 0.20617 0.90438 0.38943 0.0
H1082 H 0.18444 0.93641 0.46503 0.0
H1083 H 0.20333 0.91503 0.49768 0.0
C1084 C 0.1754 0.97002 0.39141 0.0
C1085 C 0.16283 0.9634 0.36887 0.0
C1086 C 0.18542 0.95659 0.40934 0.0
C1087 C 0.18333 0.93616 0.40499 0.0
C1088 C 0.17096 0.92945 0.38221 0.0
C1089 C 0.16062 0.94295 0.36452 0.0
C1090 C 0.21631 0.89441 0.43185 0.0
C1091 C 0.21577 0.89715 0.46262 0.0
C1092 C 0.2053 0.90664 0.41306 0.0
C1093 C 0.19387 0.92211 0.42467 0.0
C1094 C 0.19319 0.92469 0.45543 0.0
C1095 C 0.20389 0.91231 0.47416 0.0
H1096 H 0.3149 0.88519 0.64577 0.0
H1097 H 0.32199 0.92901 0.57717 0.0
H1098 H 0.33652 0.9039 0.67762 0.0
H1099 H 0.34232 0.94862 0.61009 0.0
H1100 H 0.3888 0.97555 0.66865 0.0
H1101 H 0.372 0.95319 0.63477 0.0
H1102 H 0.33615 0.93193 0.70695 0.0
H1103 H 0.35357 0.95369 0.7407 0.0
C1104 C 0.32123 0.89868 0.63718 0.0
C1105 C 0.31657 0.90544 0.6086 0.0
C1106 C 0.3334 0.9097 0.65585 0.0
C1107 C 0.34107 0.92804 0.64683 0.0
C1108 C 0.33691 0.93453 0.61794 0.0
C1109 C 0.32495 0.92335 0.59907 0.0
C1110 C 0.37743 0.96594 0.6772 0.0
C1111 C 0.37255 0.96637 0.70735 0.0
C1112 C 0.36767 0.95318 0.65776 0.0
C1113 C 0.35253 0.94069 0.66786 0.0
C1114 C 0.34793 0.94095 0.69822 0.0
C1115 C 0.3579 0.9535 0.7177 0.0
H1116 H 0.33825 0.0854 0.80887 0.0
H1117 H 0.37943 0.07625 0.8802 0.0
H1118 H 0.31818 0.10606 0.84124 0.0
H1119 H 0.35968 0.09715 0.91201 0.0
H1120 H 0.32549 0.14475 0.95928 0.0
H1121 H 0.34677 0.13075 0.92152 0.0
H1122 H 0.29747 0.09907 0.88492 0.0
H1123 H 0.27623 0.1126 0.92267 0.0
C1124 C 0.34321 0.08797 0.83125 0.0
C1125 C 0.36054 0.07903 0.84176 0.0
C1126 C 0.33168 0.09984 0.84981 0.0
C1127 C 0.33725 0.10321 0.8793 0.0
C1128 C 0.35506 0.09512 0.88934 0.0
C1129 C 0.36648 0.08315 0.87091 0.0
C1130 C 0.31905 0.13483 0.9433 0.0
C1131 C 0.29899 0.12967 0.94478 0.0
C1132 C 0.33133 0.12683 0.9215 0.0
C1133 C 0.32389 0.11365 0.90029 0.0
C1134 C 0.30369 0.10931 0.90071 0.0
C1135 C 0.29145 0.11715 0.92261 0.0
H1136 H 0.20442 0.88222 0.86449 0.0
H1137 H 0.19 0.9222 0.93559 0.0
H1138 H 0.18467 0.90176 0.83077 0.0
H1139 H 0.17095 0.9424 0.90134 0.0
H1140 H 0.1219 0.96184 0.83687 0.0
H1141 H 0.14153 0.94351 0.87252 0.0
H1142 H 0.18529 0.9326 0.80536 0.0
H1143 H 0.16522 0.9501 0.76946 0.0
C1144 C 0.19683 0.89504 0.87311 0.0
C1145 C 0.19872 0.90046 0.90298 0.0
C1146 C 0.18578 0.90652 0.85353 0.0
C1147 C 0.17635 0.92387 0.86312 0.0
C1148 C 0.1779 0.92911 0.89312 0.0
C1149 C 0.18894 0.91757 0.91276 0.0
C1150 C 0.13575 0.9556 0.82973 0.0
C1151 C 0.14182 0.95738 0.80014 0.0
C1152 C 0.14711 0.94518 0.85028 0.0
C1153 C 0.16493 0.93629 0.84184 0.0
C1154 C 0.17145 0.93886 0.81257 0.0
C1155 C 0.16006 0.94923 0.792 0.0
H1156 H 0.2873 0.87249 0.0921 0.0
H1157 H 0.31407 0.90466 0.02043 0.0
H1158 H 0.30724 0.891 0.12748 0.0
H1159 H 0.33341 0.92358 0.05538 0.0
H1160 H 0.37673 0.94648 0.1199 0.0
H1161 H 0.3595 0.92363 0.08818 0.0
H1162 H 0.31103 0.92208 0.14981 0.0
H1163 H 0.32908 0.94377 0.18296 0.0
C1164 C 0.29746 0.88352 0.08393 0.0
C1165 C 0.29919 0.88696 0.05343 0.0
C1166 C 0.30883 0.89425 0.1042 0.0
C1167 C 0.32207 0.90889 0.0945 0.0
C1168 C 0.32381 0.91217 0.06389 0.0
C1169 C 0.31265 0.9013 0.04369 0.0
C1170 C 0.36269 0.94086 0.12736 0.0
C1171 C 0.35446 0.9471 0.15434 0.0
C1172 C 0.35254 0.92797 0.10867 0.0
C1173 C 0.33363 0.92112 0.11597 0.0
C1174 C 0.32559 0.92685 0.14334 0.0
C1175 C 0.33589 0.93957 0.16229 0.0
H1176 H 0.26996 0.07796 0.36828 0.0
H1177 H 0.31723 0.1108 0.40875 0.0
H1178 H 0.29357 0.06013 0.33812 0.0
H1179 H 0.34091 0.09339 0.37758 0.0
H1180 H 0.37977 0.04562 0.33531 0.0
H1181 H 0.35622 0.06147 0.3684 0.0
H1182 H 0.31477 0.0661 0.2966 0.0
H1183 H 0.33819 0.05038 0.26367 0.0
C1184 C 0.28542 0.08126 0.37104 0.0
C1185 C 0.29162 0.0958 0.39123 0.0
C1186 C 0.29898 0.07119 0.35334 0.0
C1187 C 0.3192 0.07533 0.3552 0.0
C1188 C 0.32548 0.08965 0.37569 0.0
C1189 C 0.31187 0.09979 0.3934 0.0
C1190 C 0.36564 0.05002 0.32657 0.0
C1191 C 0.36098 0.04659 0.29672 0.0
C1192 C 0.35213 0.05917 0.34556 0.0
C1193 C 0.33353 0.06512 0.33526 0.0
C1194 C 0.32878 0.06145 0.30552 0.0
C1195 C 0.34228 0.05233 0.28655 0.0
H1196 H 0.14803 0.06904 0.66128 0.0
H1197 H 0.18059 0.02031 0.62405 0.0
H1198 H 0.16535 0.09185 0.62849 0.0
H1199 H 0.19814 0.04311 0.59174 0.0
H1200 H 0.20423 0.0869 0.51311 0.0
H1201 H 0.19046 0.06363 0.54842 0.0
H1202 H 0.19798 0.10633 0.61822 0.0
H1203 H 0.21208 0.12958 0.583 0.0
C1204 C 0.15901 0.06321 0.64632 0.0
C1205 C 0.16293 0.04282 0.64545 0.0
C1206 C 0.16906 0.0763 0.62765 0.0
C1207 C 0.18314 0.06933 0.60738 0.0
C1208 C 0.18728 0.04899 0.60686 0.0
C1209 C 0.17737 0.03593 0.62569 0.0
C1210 C 0.20339 0.09128 0.53602 0.0
C1211 C 0.20925 0.11031 0.54498 0.0
C1212 C 0.19539 0.07788 0.55635 0.0
C1213 C 0.19293 0.08313 0.58619 0.0
C1214 C 0.19932 0.1019 0.59534 0.0
C1215 C 0.20743 0.11525 0.57507 0.0
H1216 H 0.86253 0.99139 0.8339 0.0
H1217 H 0.88286 0.94167 0.78257 0.0
H1218 H 0.84656 0.96902 0.86824 0.0
H1219 H 0.86687 0.91918 0.81714 0.0
H1220 H 0.81341 0.88907 0.86233 0.0
H1221 H 0.83412 0.90926 0.83066 0.0
H1222 H 0.85119 0.94446 0.90592 0.0
H1223 H 0.8303 0.92424 0.93769 0.0
C1224 C 0.86393 0.97568 0.83015 0.0
C1225 C 0.874 0.96842 0.80525 0.0
C1226 C 0.85474 0.96278 0.84997 0.0
C1227 C 0.85535 0.94222 0.84555 0.0
C1228 C 0.86581 0.93492 0.82104 0.0
C1229 C 0.875 0.94784 0.80118 0.0
C1230 C 0.82196 0.90078 0.87234 0.0
C1231 C 0.82017 0.90497 0.90266 0.0
C1232 C 0.83384 0.91244 0.85408 0.0
C1233 C 0.84428 0.92864 0.8656 0.0
C1234 C 0.8431 0.93235 0.89614 0.0
C1235 C 0.83118 0.9207 0.91441 0.0
H1236 H 0.81862 0.14105 0.54741 0.0
H1237 H 0.76974 0.10684 0.58077 0.0
H1238 H 0.83987 0.12644 0.58468 0.0
H1239 H 0.79096 0.09275 0.61838 0.0
H1240 H 0.83277 0.07932 0.69484 0.0
H1241 H 0.81187 0.09964 0.66317 0.0
H1242 H 0.85283 0.09212 0.59134 0.0
H1243 H 0.87329 0.07135 0.62222 0.0
C1244 C 0.81228 0.13055 0.56266 0.0
C1245 C 0.79238 0.12495 0.5604 0.0
C1246 C 0.82452 0.12222 0.58417 0.0
C1247 C 0.81718 0.10828 0.60434 0.0
C1248 C 0.79708 0.10355 0.60331 0.0
C1249 C 0.78486 0.11171 0.58161 0.0
C1250 C 0.8374 0.08203 0.67234 0.0
C1251 C 0.85486 0.07357 0.66132 0.0
C1252 C 0.8254 0.09373 0.65421 0.0
C1253 C 0.83067 0.09751 0.62472 0.0
C1254 C 0.84847 0.08977 0.61407 0.0
C1255 C 0.86032 0.0779 0.632 0.0
H1256 H 0.68087 0.12053 0.39684 0.0
H1257 H 0.72484 0.07547 0.38249 0.0
H1258 H 0.65789 0.10208 0.36564 0.0
H1259 H 0.70192 0.0571 0.35213 0.0
H1260 H 0.6514 0.01868 0.32402 0.0
H1261 H 0.67147 0.03818 0.35735 0.0
H1262 H 0.65322 0.0915 0.31296 0.0
H1263 H 0.63254 0.07192 0.27981 0.0
C1264 C 0.68567 0.10674 0.38713 0.0
C1265 C 0.70471 0.09943 0.3927 0.0
C1266 C 0.67248 0.09617 0.36924 0.0
C1267 C 0.67797 0.07798 0.35662 0.0
C1268 C 0.697 0.0708 0.36203 0.0
C1269 C 0.71017 0.08136 0.37965 0.0
C1270 C 0.65129 0.03457 0.32155 0.0
C1271 C 0.64028 0.04365 0.29902 0.0
C1272 C 0.66305 0.04576 0.34054 0.0
C1273 C 0.66415 0.06641 0.3377 0.0
C1274 C 0.65267 0.07564 0.31585 0.0
C1275 C 0.64094 0.06438 0.29667 0.0
H1276 H 0.69238 0.88054 0.03602 0.0
H1277 H 0.74417 0.89918 0.08379 0.0
H1278 H 0.67182 0.89803 0.07145 0.0
H1279 H 0.72362 0.9157 0.1197 0.0
H1280 H 0.68414 0.96615 0.15097 0.0
H1281 H 0.70438 0.94516 0.12019 0.0
H1282 H 0.6595 0.90007 0.12187 0.0
H1283 H 0.63902 0.92128 0.15304 0.0
C1284 C 0.69946 0.88817 0.05409 0.0
C1285 C 0.72011 0.88856 0.05649 0.0
C1286 C 0.68759 0.89804 0.07469 0.0
C1287 C 0.69602 0.90852 0.09833 0.0
C1288 C 0.71658 0.90814 0.10148 0.0
C1289 C 0.72843 0.89837 0.0809 0.0
C1290 C 0.67868 0.95158 0.14551 0.0
C1291 C 0.65995 0.94539 0.15493 0.0
C1292 C 0.69034 0.9395 0.12767 0.0
C1293 C 0.68369 0.92081 0.11857 0.0
C1294 C 0.66504 0.91444 0.1282 0.0
C1295 C 0.65332 0.92659 0.14615 0.0
H1296 H 0.78428 0.0975 0.161 0.0
H1297 H 0.82742 0.1082 0.09306 0.0
H1298 H 0.80908 0.08122 0.19116 0.0
H1299 H 0.85255 0.0918 0.12348 0.0
H1300 H 0.87995 0.03587 0.17191 0.0
H1301 H 0.85908 0.05698 0.14125 0.0
H1302 H 0.83939 0.08786 0.21918 0.0
H1303 H 0.85976 0.06662 0.24974 0.0
C1304 C 0.79917 0.09647 0.15264 0.0
C1305 C 0.8039 0.10399 0.12462 0.0
C1306 C 0.81343 0.08727 0.17001 0.0
C1307 C 0.83283 0.08518 0.15976 0.0
C1308 C 0.83771 0.09307 0.13192 0.0
C1309 C 0.8234 0.10256 0.11461 0.0
C1310 C 0.8713 0.04728 0.18245 0.0
C1311 C 0.87152 0.0494 0.21336 0.0
C1312 C 0.85946 0.0595 0.16485 0.0
C1313 C 0.84744 0.07402 0.17778 0.0
C1314 C 0.84831 0.07668 0.20854 0.0
C1315 C 0.8602 0.06459 0.22607 0.0
H1316 H 0.64022 0.09094 0.84559 0.0
H1317 H 0.68775 0.0486 0.84274 0.0
H1318 H 0.65928 0.11125 0.87983 0.0
H1319 H 0.70673 0.06903 0.87604 0.0
H1320 H 0.7426 0.11453 0.92316 0.0
H1321 H 0.7239 0.10063 0.88218 0.0
H1322 H 0.67025 0.10795 0.93189 0.0
H1323 H 0.6889 0.12166 0.9729 0.0
C1324 C 0.65476 0.08602 0.8519 0.0
C1325 C 0.66234 0.06803 0.84115 0.0
C1326 C 0.66569 0.0977 0.87154 0.0
C1327 C 0.68456 0.0918 0.88071 0.0
C1328 C 0.69241 0.07425 0.86909 0.0
C1329 C 0.68147 0.06252 0.84974 0.0
C1330 C 0.7268 0.11336 0.92527 0.0
C1331 C 0.71737 0.11906 0.95157 0.0
C1332 C 0.71607 0.10537 0.90176 0.0
C1333 C 0.69558 0.10295 0.90383 0.0
C1334 C 0.68598 0.10975 0.9294 0.0
C1335 C 0.69673 0.11767 0.95299 0.0
H1336 H 0.62331 0.97517 0.66002 0.0
H1337 H 0.65729 0.94893 0.73009 0.0
H1338 H 0.63883 0.95294 0.62441 0.0
H1339 H 0.67338 0.92739 0.69483 0.0
H1340 H 0.69201 0.88112 0.6321 0.0
H1341 H 0.67117 0.90025 0.66445 0.0
H1342 H 0.66777 0.94637 0.59873 0.0
H1343 H 0.68718 0.92634 0.56512 0.0
C1344 C 0.63412 0.96465 0.66777 0.0
C1345 C 0.63891 0.96372 0.69792 0.0
C1346 C 0.64314 0.95194 0.64735 0.0
C1347 C 0.65744 0.93816 0.65649 0.0
C1348 C 0.66213 0.93731 0.68678 0.0
C1349 C 0.65291 0.94977 0.70715 0.0
C1350 C 0.68634 0.89501 0.62393 0.0
C1351 C 0.69151 0.90204 0.59569 0.0
C1352 C 0.67464 0.90629 0.64295 0.0
C1353 C 0.66799 0.92519 0.63472 0.0
C1354 C 0.67245 0.93191 0.60605 0.0
C1355 C 0.6839 0.92046 0.58678 0.0
H1356 H 0.81516 0.90353 0.48757 0.0
H1357 H 0.78961 0.87 0.41641 0.0
H1358 H 0.83679 0.92016 0.45281 0.0
H1359 H 0.81186 0.88591 0.38145 0.0
H1360 H 0.83664 0.9354 0.32309 0.0
H1361 H 0.81739 0.9153 0.35672 0.0
H1362 H 0.86368 0.91929 0.42176 0.0
H1363 H 0.88211 0.94079 0.38921 0.0
C1364 C 0.81451 0.89936 0.46452 0.0
C1365 C 0.80064 0.88545 0.45476 0.0
C1366 C 0.827 0.90887 0.44444 0.0
C1367 C 0.82622 0.90453 0.41401 0.0
C1368 C 0.81273 0.89007 0.40448 0.0
C1369 C 0.80002 0.8808 0.42454 0.0
C1370 C 0.84274 0.93209 0.34459 0.0
C1371 C 0.86098 0.94003 0.35326 0.0
C1372 C 0.83175 0.92024 0.36388 0.0
C1373 C 0.83875 0.91568 0.39236 0.0
C1374 C 0.85746 0.92276 0.4004 0.0
C1375 C 0.86831 0.93485 0.3813 0.0
H1376 H 0.65961 0.5198 0.69126 0.0
H1377 H 0.63104 0.57443 0.7157 0.0
H1378 H 0.68001 0.5375 0.65639 0.0
H1379 H 0.65225 0.59231 0.68145 0.0
H1380 H 0.68546 0.6161 0.59948 0.0
H1381 H 0.66142 0.59826 0.62967 0.0
H1382 H 0.70745 0.55972 0.66102 0.0
H1383 H 0.73127 0.57741 0.63128 0.0
C1384 C 0.65742 0.53554 0.68909 0.0
C1385 C 0.64366 0.5456 0.7068 0.0
C1386 C 0.66939 0.54578 0.66922 0.0
C1387 C 0.66807 0.56641 0.66642 0.0
C1388 C 0.6537 0.57642 0.683 0.0
C1389 C 0.64165 0.56615 0.70292 0.0
C1390 C 0.69042 0.60383 0.61285 0.0
C1391 C 0.71031 0.59808 0.61255 0.0
C1392 C 0.67664 0.59361 0.63017 0.0
C1393 C 0.68242 0.57738 0.64757 0.0
C1394 C 0.70232 0.57178 0.64736 0.0
C1395 C 0.71603 0.58196 0.63018 0.0
H1396 H 0.63727 0.43678 0.86293 0.0
H1397 H 0.68283 0.47982 0.8796 0.0
H1398 H 0.65463 0.41303 0.89374 0.0
H1399 H 0.70074 0.45575 0.90869 0.0
H1400 H 0.71579 0.41635 0.98729 0.0
H1401 H 0.69983 0.43978 0.95486 0.0
H1402 H 0.68259 0.39223 0.89689 0.0
H1403 H 0.69756 0.36864 0.9299 0.0
C1404 C 0.65104 0.44117 0.87293 0.0
C1405 C 0.65857 0.4603 0.86857 0.0
C1406 C 0.66117 0.42743 0.89035 0.0
C1407 C 0.67917 0.43238 0.90382 0.0
C1408 C 0.68683 0.45141 0.89908 0.0
C1409 C 0.67665 0.46517 0.88187 0.0
C1410 C 0.70853 0.4107 0.96784 0.0
C1411 C 0.70779 0.39027 0.96201 0.0
C1412 C 0.69951 0.4243 0.94889 0.0
C1413 C 0.68966 0.41796 0.92327 0.0
C1414 C 0.6896 0.39768 0.91673 0.0
C1415 C 0.69849 0.38406 0.93576 0.0
H1416 H 0.87744 0.4583 0.17051 0.0
H1417 H 0.83643 0.45321 0.24295 0.0
H1418 H 0.8533 0.44344 0.13746 0.0
H1419 H 0.81235 0.4386 0.2099 0.0
H1420 H 0.76735 0.42657 0.13793 0.0
H1421 H 0.79095 0.44493 0.16766 0.0
H1422 H 0.83831 0.41084 0.12985 0.0
H1423 H 0.81471 0.39279 0.09947 0.0
C1424 C 0.86328 0.45412 0.17942 0.0
C1425 C 0.85905 0.45694 0.20957 0.0
C1426 C 0.84944 0.44554 0.16044 0.0
C1427 C 0.83089 0.43967 0.171 0.0
C1428 C 0.82638 0.44313 0.20088 0.0
C1429 C 0.84026 0.45161 0.2199 0.0
C1430 C 0.78282 0.42322 0.13549 0.0
C1431 C 0.78909 0.40821 0.11614 0.0
C1432 C 0.79636 0.4336 0.15286 0.0
C1433 C 0.81657 0.42936 0.15129 0.0
C1434 C 0.82289 0.41465 0.13146 0.0
C1435 C 0.80933 0.40417 0.11421 0.0
H1436 H 0.77162 0.59131 0.43893 0.0
H1437 H 0.82309 0.62673 0.45653 0.0
H1438 H 0.79034 0.5714 0.40445 0.0
H1439 H 0.84191 0.60671 0.42176 0.0
H1440 H 0.87364 0.55009 0.38895 0.0
H1441 H 0.85547 0.57394 0.41849 0.0
H1442 H 0.80671 0.57012 0.35771 0.0
H1443 H 0.82491 0.5461 0.32824 0.0
C1444 C 0.78683 0.59518 0.43507 0.0
C1445 C 0.79577 0.61071 0.45079 0.0
C1446 C 0.79763 0.58367 0.41517 0.0
C1447 C 0.81773 0.58731 0.41026 0.0
C1448 C 0.82656 0.60321 0.42529 0.0
C1449 C 0.81574 0.61474 0.44525 0.0
C1450 C 0.85921 0.55463 0.38149 0.0
C1451 C 0.85078 0.54612 0.35613 0.0
C1452 C 0.84874 0.56835 0.39851 0.0
C1453 C 0.82951 0.57397 0.39068 0.0
C1454 C 0.82132 0.56591 0.36479 0.0
C1455 C 0.83179 0.55216 0.3478 0.0
H1456 H 0.64083 0.4762 0.33486 0.0
H1457 H 0.65648 0.43347 0.26833 0.0
H1458 H 0.66023 0.45802 0.37126 0.0
H1459 H 0.67643 0.41577 0.3039 0.0
H1460 H 0.70231 0.37916 0.37535 0.0
H1461 H 0.67814 0.39549 0.3447 0.0
H1462 H 0.69237 0.4513 0.38575 0.0
H1463 H 0.71536 0.43463 0.4183 0.0
C1464 C 0.64838 0.46287 0.32808 0.0
C1465 C 0.64696 0.45622 0.29877 0.0
C1466 C 0.65965 0.45249 0.34886 0.0
C1467 C 0.67008 0.43532 0.34076 0.0
C1468 C 0.66836 0.42859 0.31143 0.0
C1469 C 0.65688 0.4388 0.29085 0.0
C1470 C 0.69996 0.39481 0.3786 0.0
C1471 C 0.71099 0.40546 0.39954 0.0
C1472 C 0.68625 0.40433 0.36044 0.0
C1473 C 0.68334 0.42489 0.36219 0.0
C1474 C 0.69396 0.43546 0.38371 0.0
C1475 C 0.70746 0.42588 0.4022 0.0
H1476 H 0.82883 0.49295 0.61554 0.0
H1477 H 0.86019 0.44589 0.65936 0.0
H1478 H 0.8111 0.46878 0.58597 0.0
H1479 H 0.84285 0.42168 0.62902 0.0
H1480 H 0.79597 0.38215 0.588 0.0
H1481 H 0.81058 0.40697 0.62028 0.0
H1482 H 0.81763 0.44605 0.54572 0.0
H1483 H 0.80316 0.42127 0.5135 0.0
C1484 C 0.83181 0.47743 0.61914 0.0
C1485 C 0.8459 0.47141 0.64005 0.0
C1486 C 0.8218 0.46356 0.60186 0.0
C1487 C 0.82553 0.44324 0.60499 0.0
C1488 C 0.83942 0.43718 0.62619 0.0
C1489 C 0.84951 0.45108 0.64342 0.0
C1490 C 0.80057 0.39606 0.57849 0.0
C1491 C 0.79838 0.39958 0.54804 0.0
C1492 C 0.80902 0.41029 0.59701 0.0
C1493 C 0.81545 0.4285 0.58563 0.0
C1494 C 0.81266 0.4323 0.55536 0.0
C1495 C 0.80426 0.41804 0.53682 0.0
H1496 H 0.8767 0.54933 0.83237 0.0
H1497 H 0.83665 0.55874 0.75973 0.0
H1498 H 0.85258 0.56343 0.86627 0.0
H1499 H 0.81264 0.57252 0.79353 0.0
H1500 H 0.76691 0.58214 0.86454 0.0
H1501 H 0.79068 0.56445 0.83429 0.0
H1502 H 0.83799 0.59603 0.87679 0.0
H1503 H 0.81416 0.61338 0.90777 0.0
C1504 C 0.86278 0.5543 0.82357 0.0
C1505 C 0.85879 0.55286 0.79313 0.0
C1506 C 0.84894 0.56242 0.84304 0.0
C1507 C 0.83067 0.56919 0.83266 0.0
C1508 C 0.82644 0.56722 0.80241 0.0
C1509 C 0.84029 0.55921 0.78293 0.0
C1510 C 0.78239 0.58506 0.86793 0.0
C1511 C 0.78858 0.59918 0.88875 0.0
C1512 C 0.79603 0.57507 0.85027 0.0
C1513 C 0.81627 0.57886 0.85294 0.0
C1514 C 0.82253 0.5926 0.87428 0.0
C1515 C 0.80886 0.60269 0.89188 0.0
H1516 H 0.67692 0.52348 0.11388 0.0
H1517 H 0.64308 0.57041 0.15369 0.0
H1518 H 0.69357 0.54734 0.08249 0.0
H1519 H 0.65956 0.5944 0.12156 0.0
H1520 H 0.70772 0.63326 0.07885 0.0
H1521 H 0.6925 0.60959 0.11247 0.0
H1522 H 0.68535 0.56852 0.04043 0.0
H1523 H 0.70016 0.5921 0.00682 0.0
C1524 C 0.67314 0.53894 0.11615 0.0
C1525 C 0.65875 0.54503 0.13655 0.0
C1526 C 0.68256 0.55261 0.09786 0.0
C1527 C 0.67791 0.57279 0.09943 0.0
C1528 C 0.66363 0.57897 0.11998 0.0
C1529 C 0.65406 0.56522 0.1382 0.0
C1530 C 0.70289 0.6192 0.07011 0.0
C1531 C 0.70525 0.61475 0.03992 0.0
C1532 C 0.69411 0.60564 0.08943 0.0
C1533 C 0.68762 0.58717 0.07916 0.0
C1534 C 0.69039 0.58251 0.04919 0.0
C1535 C 0.69902 0.5961 0.02985 0.0
H1536 H 0.37773 0.46424 0.33563 0.0
H1537 H 0.34235 0.44806 0.26036 0.0
H1538 H 0.35381 0.44846 0.36847 0.0
H1539 H 0.3184 0.43269 0.29302 0.0
H1540 H 0.29428 0.38529 0.35513 0.0
H1541 H 0.31773 0.40288 0.32415 0.0
H1542 H 0.31922 0.45071 0.38712 0.0
H1543 H 0.29585 0.43286 0.41853 0.0
C1544 C 0.36475 0.45753 0.32613 0.0
C1545 C 0.362 0.45749 0.29534 0.0
C1546 C 0.35099 0.44857 0.34494 0.0
C1547 C 0.33424 0.43915 0.33338 0.0
C1548 C 0.33125 0.43958 0.30266 0.0
C1549 C 0.34489 0.44866 0.28391 0.0
C1550 C 0.2998 0.39942 0.36265 0.0
C1551 C 0.29327 0.40757 0.38949 0.0
C1552 C 0.31306 0.40965 0.34465 0.0
C1553 C 0.32029 0.42829 0.35301 0.0
C1554 C 0.31402 0.43635 0.38007 0.0
C1555 C 0.30056 0.42618 0.39799 0.0
H1556 H 0.32851 0.54635 0.17525 0.0
H1557 H 0.37624 0.54679 0.11246 0.0
H1558 H 0.31067 0.57028 0.14498 0.0
H1559 H 0.35842 0.57022 0.08202 0.0
H1560 H 0.3299 0.6231 0.04161 0.0
H1561 H 0.34741 0.603 0.07759 0.0
H1562 H 0.29319 0.57315 0.0996 0.0
H1563 H 0.27566 0.59381 0.06406 0.0
C1564 C 0.33521 0.5516 0.15504 0.0
C1565 C 0.3539 0.54477 0.14647 0.0
C1566 C 0.32495 0.56526 0.13757 0.0
C1567 C 0.33304 0.57233 0.11096 0.0
C1568 C 0.35182 0.56557 0.10263 0.0
C1569 C 0.3621 0.55207 0.12015 0.0
C1570 C 0.32172 0.61234 0.05432 0.0
C1571 C 0.30143 0.60994 0.04981 0.0
C1572 C 0.33177 0.6007 0.07488 0.0
C1573 C 0.32185 0.58613 0.09132 0.0
C1574 C 0.30136 0.58428 0.08762 0.0
C1575 C 0.29126 0.59612 0.06721 0.0
H1576 H 0.23888 0.58049 0.86096 0.0
H1577 H 0.19272 0.6121 0.90628 0.0
H1578 H 0.21459 0.5642 0.83018 0.0
H1579 H 0.16832 0.59629 0.87445 0.0
H1580 H 0.12835 0.55024 0.83031 0.0
H1581 H 0.15266 0.56475 0.86353 0.0
H1582 H 0.1927 0.57175 0.79028 0.0
H1583 H 0.16853 0.55732 0.75727 0.0
C1584 C 0.22351 0.58388 0.86458 0.0
C1585 C 0.21782 0.59754 0.88641 0.0
C1586 C 0.20956 0.5747 0.84656 0.0
C1587 C 0.18943 0.57892 0.84967 0.0
C1588 C 0.18366 0.5925 0.8716 0.0
C1589 C 0.19768 0.60174 0.88967 0.0
C1590 C 0.14236 0.55483 0.82132 0.0
C1591 C 0.14641 0.55247 0.79104 0.0
C1592 C 0.15629 0.56324 0.84036 0.0
C1593 C 0.17468 0.5695 0.82966 0.0
C1594 C 0.17884 0.56683 0.79947 0.0
C1595 C 0.16494 0.55844 0.78046 0.0
H1596 H 0.13324 0.46335 0.60551 0.0
H1597 H 0.18106 0.46191 0.66809 0.0
H1598 H 0.15111 0.44071 0.57343 0.0
H1599 H 0.19918 0.43949 0.63561 0.0
H1600 H 0.21526 0.38274 0.58262 0.0
H1601 H 0.19856 0.40558 0.61609 0.0
H1602 H 0.18011 0.44068 0.54152 0.0
H1603 H 0.19638 0.41766 0.50817 0.0
C1604 C 0.14747 0.458 0.61264 0.0
C1605 C 0.15562 0.46435 0.63956 0.0
C1606 C 0.15787 0.44523 0.59399 0.0
C1607 C 0.17668 0.43833 0.60178 0.0
C1608 C 0.1847 0.44439 0.62896 0.0
C1609 C 0.17435 0.45732 0.64752 0.0
C1610 C 0.20774 0.39541 0.57342 0.0
C1611 C 0.20723 0.39832 0.54267 0.0
C1612 C 0.19824 0.40857 0.59261 0.0
C1613 C 0.18782 0.42492 0.58154 0.0
C1614 C 0.18775 0.42811 0.55083 0.0
C1615 C 0.19736 0.41503 0.53167 0.0
H1616 H 0.33955 0.55585 0.74264 0.0
H1617 H 0.38037 0.54709 0.67069 0.0
H1618 H 0.31593 0.56998 0.70858 0.0
H1619 H 0.35665 0.56159 0.6366 0.0
H1620 H 0.31854 0.61174 0.59498 0.0
H1621 H 0.34207 0.59431 0.62637 0.0
H1622 H 0.29441 0.56216 0.66704 0.0
H1623 H 0.27092 0.57988 0.63631 0.0
C1624 C 0.34347 0.55656 0.71954 0.0
C1625 C 0.36208 0.55026 0.70964 0.0
C1626 C 0.32983 0.56478 0.69992 0.0
C1627 C 0.33437 0.56704 0.66981 0.0
C1628 C 0.35276 0.56037 0.65972 0.0
C1629 C 0.36638 0.55202 0.67932 0.0
C1630 C 0.31309 0.60091 0.61055 0.0
C1631 C 0.2928 0.59723 0.613 0.0
C1632 C 0.3266 0.59078 0.6284 0.0
C1633 C 0.32016 0.57684 0.64934 0.0
C1634 C 0.2999 0.57292 0.65138 0.0
C1635 C 0.28643 0.58293 0.63345 0.0
H1636 H 0.21679 0.58807 0.48543 0.0
H1637 H 0.19944 0.6357 0.42722 0.0
H1638 H 0.2007 0.56466 0.45294 0.0
H1639 H 0.18399 0.61219 0.39469 0.0
H1640 H 0.1371 0.56826 0.3633 0.0
H1641 H 0.15513 0.59167 0.39388 0.0
H1642 H 0.20163 0.54893 0.40528 0.0
H1643 H 0.18322 0.52523 0.37583 0.0
C1644 C 0.2097 0.59373 0.46586 0.0
C1645 C 0.20921 0.61416 0.45983 0.0
C1646 C 0.20056 0.58014 0.44695 0.0
C1647 C 0.19075 0.58652 0.42132 0.0
C1648 C 0.19096 0.60675 0.41458 0.0
C1649 C 0.20006 0.62033 0.43342 0.0
C1650 C 0.15113 0.56381 0.37239 0.0
C1651 C 0.15865 0.54481 0.36695 0.0
C1652 C 0.16161 0.57734 0.38971 0.0
C1653 C 0.17991 0.57225 0.4021 0.0
C1654 C 0.18752 0.55333 0.39639 0.0
C1655 C 0.17705 0.53981 0.37908 0.0
H1656 H 0.15526 0.48967 0.18708 0.0
H1657 H 0.12818 0.43417 0.2109 0.0
H1658 H 0.17606 0.47267 0.15184 0.0
H1659 H 0.14981 0.41702 0.17659 0.0
H1660 H 0.18441 0.39288 0.0975 0.0
H1661 H 0.15955 0.41076 0.12602 0.0
H1662 H 0.20407 0.4516 0.15588 0.0
H1663 H 0.22867 0.43393 0.12758 0.0
C1664 C 0.15348 0.47389 0.18467 0.0
C1665 C 0.1401 0.46335 0.20239 0.0
C1666 C 0.16569 0.46406 0.16462 0.0
C1667 C 0.16495 0.44338 0.16171 0.0
C1668 C 0.15083 0.43294 0.17818 0.0
C1669 C 0.13854 0.4428 0.19818 0.0
C1670 C 0.18885 0.40571 0.11013 0.0
C1671 C 0.20855 0.41204 0.10994 0.0
C1672 C 0.1746 0.41595 0.1265 0.0
C1673 C 0.17972 0.43276 0.14312 0.0
C1674 C 0.19942 0.43906 0.14281 0.0
C1675 C 0.21359 0.42887 0.1265 0.0
H1676 H 0.32378 0.38537 0.96033 0.0
H1677 H 0.26991 0.41607 0.9393 0.0
H1678 H 0.34175 0.40713 0.92682 0.0
H1679 H 0.28768 0.43719 0.90525 0.0
H1680 H 0.32924 0.48813 0.88229 0.0
H1681 H 0.31099 0.46403 0.91084 0.0
H1682 H 0.34687 0.41726 0.87493 0.0
H1683 H 0.36515 0.44152 0.84574 0.0
C1684 C 0.3157 0.39658 0.94841 0.0
C1685 C 0.29534 0.39897 0.95291 0.0
C1686 C 0.326 0.40896 0.92894 0.0
C1687 C 0.31622 0.4241 0.91353 0.0
C1688 C 0.29577 0.42593 0.91711 0.0
C1689 C 0.28549 0.41357 0.93646 0.0
C1690 C 0.33305 0.4727 0.87984 0.0
C1691 C 0.3486 0.46686 0.86127 0.0
C1692 C 0.32257 0.45882 0.89639 0.0
C1693 C 0.32732 0.43863 0.89509 0.0
C1694 C 0.34289 0.4327 0.87664 0.0
C1695 C 0.35338 0.44663 0.85989 0.0
H1696 H 0.2052 0.16466 0.30151 0.0
H1697 H 0.26119 0.1446 0.33397 0.0
H1698 H 0.21952 0.17038 0.25284 0.0
H1699 H 0.27544 0.14874 0.28507 0.0
H1700 H 0.30076 0.16292 0.19758 0.0
H1701 H 0.28681 0.16737 0.24681 0.0
H1702 H 0.2292 0.1533 0.212 0.0
H1703 H 0.24326 0.15048 0.16276 0.0
C1704 C 0.22065 0.16157 0.29806 0.0
C1705 C 0.23215 0.15426 0.32127 0.0
C1706 C 0.22886 0.16461 0.27013 0.0
C1707 C 0.24868 0.1598 0.26454 0.0
C1708 C 0.26027 0.15302 0.2883 0.0
C1709 C 0.25214 0.15052 0.3164 0.0
C1710 C 0.28505 0.16135 0.20064 0.0
C1711 C 0.27301 0.15651 0.17663 0.0
C1712 C 0.27703 0.16361 0.22885 0.0
C1713 C 0.25682 0.1604 0.23385 0.0
C1714 C 0.24472 0.15626 0.20931 0.0
C1715 C 0.25272 0.15456 0.18098 0.0
H1716 H 0.11283 0.99679 0.41663 0.0
H1717 H 0.09411 0.053 0.45097 0.0
H1718 H 0.10982 0.9822 0.46546 0.0
H1719 H 0.08954 0.03834 0.49975 0.0
H1720 H 0.11245 0.01415 0.58789 0.0
H1721 H 0.10816 0.02841 0.53898 0.0
H1722 H 0.09245 0.97075 0.50498 0.0
H1723 H 0.09833 0.95657 0.55373 0.0
C1724 C 0.10734 0.0058 0.4346 0.0
C1725 C 0.10368 0.02594 0.43026 0.0
C1726 C 0.10553 0.99747 0.46269 0.0
C1727 C 0.09958 0.00906 0.487 0.0
C1728 C 0.09469 0.029 0.48197 0.0
C1729 C 0.09703 0.03741 0.454 0.0
C1730 C 0.10779 1.00471 0.56991 0.0
C1731 C 0.10578 0.98434 0.57429 0.0
C1732 C 0.1052 0.01283 0.54181 0.0
C1733 C 0.10007 1.00078 0.51759 0.0
C1734 C 0.09693 0.98049 0.52268 0.0
C1735 C 0.10007 0.97233 0.55062 0.0
H1736 H 0.28145 0.8581 0.68442 0.0
H1737 H 0.22261 0.83486 0.68304 0.0
H1738 H 0.28517 0.84787 0.73572 0.0
H1739 H 0.22607 0.8245 0.73479 0.0
H1740 H 0.23098 0.85853 0.8274 0.0
H1741 H 0.22713 0.84894 0.77588 0.0
H1742 H 0.28532 0.82335 0.77687 0.0
H1743 H 0.28891 0.83305 0.82891 0.0
C1744 C 0.26965 0.84997 0.69494 0.0
C1745 C 0.25177 0.84723 0.68017 0.0
C1746 C 0.27175 0.84403 0.72423 0.0
C1747 C 0.25583 0.83553 0.73943 0.0
C1748 C 0.23854 0.8311 0.72367 0.0
C1749 C 0.23656 0.83688 0.69413 0.0
C1750 C 0.24256 0.85014 0.81681 0.0
C1751 C 0.26023 0.84655 0.83172 0.0
C1752 C 0.24037 0.84452 0.78739 0.0
C1753 C 0.256 0.8355 0.7722 0.0
C1754 C 0.27307 0.83035 0.788 0.0
C1755 C 0.27512 0.83577 0.81769 0.0
H1756 H 0.41221 0.04038 0.93266 0.0
H1757 H 0.41616 0.97715 0.92554 0.0
H1758 H 0.41905 0.03841 0.98541 0.0
H1759 H 0.42297 0.97488 0.9787 0.0
H1760 H 0.42809 0.03225 0.08084 0.0
H1761 H 0.43923 0.0288 0.02945 0.0
H1762 H 0.39708 0.98187 0.0164 0.0
H1763 H 0.38612 0.98551 0.06731 0.0
C1764 C 0.41548 0.02613 0.94235 0.0
C1765 C 0.41372 0.00893 0.92537 0.0
C1766 C 0.41944 0.02495 0.9725 0.0
C1767 C 0.42136 0.00646 0.9863 0.0
C1768 C 0.42146 0.98932 0.96867 0.0
C1769 C 0.41774 0.99058 0.93831 0.0
C1770 C 0.42179 0.02079 0.06711 0.0
C1771 C 0.40614 0.00929 0.07763 0.0
C1772 C 0.42807 0.01884 0.03779 0.0
C1773 C 0.41896 0.00513 0.01882 0.0
C1774 C 0.40457 0.99242 0.03042 0.0
C1775 C 0.39814 0.99459 0.05946 0.0
H1776 H 0.7876 0.8422 0.67821 0.0
H1777 H 0.72596 0.85621 0.68099 0.0
H1778 H 0.78717 0.8355 0.73153 0.0
H1779 H 0.72523 0.84949 0.73392 0.0
H1780 H 0.72746 0.83823 0.83006 0.0
H1781 H 0.73029 0.82751 0.77831 0.0
H1782 H 0.78305 0.86248 0.76908 0.0
H1783 H 0.77997 0.87312 0.82029 0.0
C1784 C 0.7738 0.84288 0.69008 0.0
C1785 C 0.7568 0.84962 0.67583 0.0
C1786 C 0.77353 0.83924 0.72052 0.0
C1787 C 0.75619 0.84213 0.73696 0.0
C1788 C 0.73877 0.84691 0.72192 0.0
C1789 C 0.73914 0.85079 0.69168 0.0
C1790 C 0.73994 0.84301 0.81705 0.0
C1791 C 0.75341 0.85657 0.82876 0.0
C1792 C 0.74155 0.83697 0.78754 0.0
C1793 C 0.75687 0.84419 0.7696 0.0
C1794 C 0.77123 0.85644 0.78232 0.0
C1795 C 0.76941 0.86268 0.81152 0.0
H1796 H 0.92614 0.03509 0.4296 0.0
H1797 H 0.90431 0.97573 0.43848 0.0
H1798 H 0.93474 0.03542 0.48227 0.0
H1799 H 0.91286 0.97579 0.49072 0.0
H1800 H 0.89757 0.03592 0.57233 0.0
H1801 H 0.90861 0.03634 0.52118 0.0
H1802 H 0.93595 0.97934 0.53355 0.0
H1803 H 0.92482 0.97919 0.58521 0.0
C1804 C 0.92407 0.02183 0.44261 0.0
C1805 C 0.91451 0.00543 0.43039 0.0
C1806 C 0.92886 0.02202 0.47267 0.0
C1807 C 0.92428 0.0057 0.4907 0.0
C1808 C 0.91675 0.98852 0.47748 0.0
C1809 C 0.91175 0.98847 0.44764 0.0
C1810 C 0.90653 0.02384 0.56427 0.0
C1811 C 0.91022 0.00745 0.58232 0.0
C1812 C 0.91301 0.02411 0.5351 0.0
C1813 C 0.92307 0.0078 0.52325 0.0
C1814 C 0.92819 0.99209 0.5421 0.0
C1815 C 0.92192 0.99199 0.57156 0.0
H1816 H 0.80227 0.15526 0.30908 0.0
H1817 H 0.74264 0.15031 0.33988 0.0
H1818 H 0.79052 0.16156 0.25903 0.0
H1819 H 0.73059 0.15499 0.28984 0.0
H1820 H 0.71063 0.16773 0.19903 0.0
H1821 H 0.72432 0.17281 0.24829 0.0
H1822 H 0.77813 0.1442 0.22022 0.0
H1823 H 0.76471 0.14076 0.17073 0.0
C1824 C 0.7866 0.15575 0.30497 0.0
C1825 C 0.77331 0.15242 0.32807 0.0
C1826 C 0.7798 0.15909 0.27629 0.0
C1827 C 0.75953 0.15849 0.26993 0.0
C1828 C 0.74626 0.15594 0.29358 0.0
C1829 C 0.7531 0.15317 0.32236 0.0
C1830 C 0.72556 0.16307 0.20351 0.0
C1831 C 0.73671 0.15398 0.18136 0.0
C1832 C 0.73338 0.16572 0.23176 0.0
C1833 C 0.75232 0.15867 0.23873 0.0
C1834 C 0.76368 0.1502 0.21593 0.0
C1835 C 0.75602 0.1481 0.18749 0.0
H1836 H 0.62143 0.03332 0.92841 0.0
H1837 H 0.59107 0.97772 0.92198 0.0
H1838 H 0.61136 0.03649 0.97984 0.0
H1839 H 0.58092 0.98063 0.97397 0.0
H1840 H 0.61032 0.9803 0.07071 0.0
H1841 H 0.60335 0.97814 0.01792 0.0
H1842 H 0.58507 0.03924 0.0181 0.0
H1843 H 0.59211 0.04111 0.07124 0.0
C1844 C 0.61205 0.02208 0.93796 0.0
C1845 C 0.60707 0.00526 0.92157 0.0
C1846 C 0.60615 0.02392 0.96731 0.0
C1847 C 0.59538 0.00877 0.98104 0.0
C1848 C 0.58924 0.99251 0.96397 0.0
C1849 C 0.59493 0.99086 0.93431 0.0
C1850 C 0.60396 0.99292 0.05957 0.0
C1851 C 0.60161 0.01081 0.07471 0.0
C1852 C 0.59993 0.99174 0.02941 0.0
C1853 C 0.5938 0.00857 0.01376 0.0
C1854 C 0.58986 0.02605 0.02956 0.0
C1855 C 0.5937 0.02713 0.05989 0.0
H1856 H 0.74453 0.6508 0.66067 0.0
H1857 H 0.80125 0.66495 0.69702 0.0
H1858 H 0.72953 0.65499 0.70901 0.0
H1859 H 0.7863 0.67068 0.7453 0.0
H1860 H 0.75917 0.64937 0.83236 0.0
H1861 H 0.77434 0.65261 0.78397 0.0
H1862 H 0.71898 0.67328 0.74833 0.0
H1863 H 0.70375 0.66854 0.79662 0.0
C1864 C 0.75362 0.65556 0.67896 0.0
C1865 C 0.77398 0.65757 0.67534 0.0
C1866 C 0.74507 0.65804 0.70677 0.0
C1867 C 0.75665 0.66302 0.73149 0.0
C1868 C 0.77691 0.6663 0.72717 0.0
C1869 C 0.7855 0.6633 0.69949 0.0
C1870 C 0.75044 0.6549 0.81417 0.0
C1871 C 0.73034 0.65864 0.81799 0.0
C1872 C 0.7591 0.65689 0.78635 0.0
C1873 C 0.74794 0.66311 0.76182 0.0
C1874 C 0.72801 0.66794 0.7663 0.0
C1875 C 0.71926 0.66544 0.79398 0.0
H1876 H 0.58883 0.50128 0.91696 0.0
H1877 H 0.61254 0.55283 0.96024 0.0
H1878 H 0.58182 0.48655 0.96491 0.0
H1879 H 0.6067 0.53775 0.00797 0.0
H1880 H 0.59324 0.50981 0.09324 0.0
H1881 H 0.58638 0.52567 0.04602 0.0
H1882 H 0.60206 0.47173 1.00071 0.0
H1883 H 0.60774 0.45572 0.04778 0.0
C1884 C 0.5922 0.50965 0.93666 0.0
C1885 C 0.60161 0.5281 0.93472 0.0
C1886 C 0.58841 0.5011 0.96423 0.0
C1887 C 0.59404 0.51073 0.99046 0.0
C1888 C 0.60204 0.52983 0.98842 0.0
C1889 C 0.60567 0.53842 0.96094 0.0
C1890 C 0.59461 0.50118 0.07325 0.0
C1891 C 0.60139 0.48158 0.07428 0.0
C1892 C 0.59091 0.51034 0.04609 0.0
C1893 C 0.59398 0.50014 0.01937 0.0
C1894 C 0.59938 0.48011 0.02066 0.0
C1895 C 0.60293 0.47096 0.04773 0.0
H1896 H 0.7968 0.33878 0.30872 0.0
H1897 H 0.74252 0.36175 0.34346 0.0
H1898 H 0.78131 0.3337 0.26074 0.0
H1899 H 0.72713 0.35813 0.29518 0.0
H1900 H 0.75763 0.35556 0.17211 0.0
H1901 H 0.77198 0.35248 0.221 0.0
H1902 H 0.71446 0.33952 0.25707 0.0
H1903 H 0.70016 0.3439 0.20806 0.0
C1904 C 0.78146 0.34259 0.30593 0.0
C1905 C 0.77079 0.35061 0.32952 0.0
C1906 C 0.77259 0.33992 0.27843 0.0
C1907 C 0.75299 0.3458 0.27368 0.0
C1908 C 0.74213 0.35312 0.29785 0.0
C1909 C 0.75091 0.3553 0.32556 0.0
C1910 C 0.74819 0.35172 0.19049 0.0
C1911 C 0.72784 0.35 0.18648 0.0
C1912 C 0.75638 0.34985 0.21861 0.0
C1913 C 0.74443 0.3458 0.24332 0.0
C1914 C 0.72412 0.3431 0.23885 0.0
C1915 C 0.7159 0.34543 0.21079 0.0
H1916 H 0.89569 0.50195 0.58674 0.0
H1917 H 0.91127 0.55817 0.54894 0.0
H1918 H 0.89896 0.48636 0.53866 0.0
H1919 H 0.91593 0.54256 0.50083 0.0
H1920 H 0.8945 0.51413 0.41448 0.0
H1921 H 0.89767 0.53019 0.46235 0.0
H1922 H 0.91777 0.47506 0.50023 0.0
H1923 H 0.91312 0.45897 0.45253 0.0
C1924 C 0.90043 0.51081 0.56815 0.0
C1925 C 0.9032 0.5312 0.57135 0.0
C1926 C 0.90241 0.5019 0.54051 0.0
C1927 C 0.90766 0.51314 0.51551 0.0
C1928 C 0.9114 0.53345 0.51925 0.0
C1929 C 0.90894 0.54241 0.5468 0.0
C1930 C 0.89991 0.50565 0.43306 0.0
C1931 C 0.90351 0.48538 0.43009 0.0
C1932 C 0.90183 0.51482 0.46055 0.0
C1933 C 0.90782 0.50395 0.48554 0.0
C1934 C 0.91258 0.48385 0.48187 0.0
C1935 C 0.91015 0.47462 0.45454 0.0
H1936 H 0.30183 0.34682 0.1994 0.0
H1937 H 0.24449 0.35953 0.16413 0.0
H1938 H 0.28746 0.34081 0.24799 0.0
H1939 H 0.23002 0.35514 0.21279 0.0
H1940 H 0.20525 0.34206 0.30109 0.0
H1941 H 0.22011 0.33713 0.25258 0.0
H1942 H 0.2756 0.35852 0.28688 0.0
H1943 H 0.26082 0.36184 0.33553 0.0
C1944 C 0.28607 0.34808 0.20218 0.0
C1945 C 0.2742 0.35349 0.17825 0.0
C1946 C 0.2778 0.34493 0.23005 0.0
C1947 C 0.25751 0.34779 0.2348 0.0
C1948 C 0.2456 0.35242 0.21027 0.0
C1949 C 0.25384 0.35502 0.18227 0.0
C1950 C 0.22073 0.34523 0.29811 0.0
C1951 C 0.23196 0.35224 0.32182 0.0
C1952 C 0.22926 0.34265 0.27029 0.0
C1953 C 0.2491 0.34766 0.26533 0.0
C1954 C 0.26042 0.35409 0.28959 0.0
C1955 C 0.25199 0.35612 0.31757 0.0
H1956 H 0.39754 0.49885 0.9177 0.0
H1957 H 0.41292 0.55547 0.95434 0.0
H1958 H 0.40087 0.48372 0.9661 0.0
H1959 H 0.41763 0.54033 0.00274 0.0
H1960 H 0.39741 0.51255 0.09013 0.0
H1961 H 0.39988 0.52817 0.04183 0.0
H1962 H 0.41979 0.47278 0.00453 0.0
H1963 H 0.41582 0.45712 0.0527 0.0
C1964 C 0.40222 0.50791 0.9361 0.0
C1965 C 0.40495 0.52828 0.93245 0.0
C1966 C 0.40424 0.49926 0.96394 0.0
C1967 C 0.40948 0.51073 0.98871 0.0
C1968 C 0.41311 0.53103 0.98453 0.0
C1969 C 0.41061 0.53973 0.95679 0.0
C1970 C 0.40262 0.50392 0.07157 0.0
C1971 C 0.40641 0.4837 0.07489 0.0
C1972 C 0.40413 0.51283 0.04382 0.0
C1973 C 0.40989 0.50177 0.01888 0.0
C1974 C 0.41477 0.48172 0.02284 0.0
C1975 C 0.41275 0.47274 0.05045 0.0
H1976 H 0.26333 0.64949 0.6685 0.0
H1977 H 0.20673 0.66392 0.70525 0.0
H1978 H 0.27836 0.6532 0.71688 0.0
H1979 H 0.22173 0.66894 0.75362 0.0
H1980 H 0.30453 0.66702 0.80369 0.0
H1981 H 0.2888 0.67221 0.75588 0.0
H1982 H 0.23401 0.65043 0.79206 0.0
H1983 H 0.24968 0.64665 0.84003 0.0
C1984 C 0.25425 0.65407 0.68691 0.0
C1985 C 0.23391 0.65635 0.68333 0.0
C1986 C 0.26283 0.65631 0.71472 0.0
C1987 C 0.25131 0.66129 0.73951 0.0
C1988 C 0.23105 0.66462 0.73537 0.0
C1989 C 0.22243 0.66192 0.70766 0.0
C1990 C 0.28901 0.66388 0.80133 0.0
C1991 C 0.27825 0.65653 0.82533 0.0
C1992 C 0.28 0.66659 0.77393 0.0
C1993 C 0.26013 0.66145 0.76971 0.0
C1994 C 0.24921 0.65488 0.7943 0.0
C1995 C 0.25815 0.65264 0.82187 0.0
H1996 H 0.1104 0.44661 0.45398 0.0
H1997 H 0.09312 0.50285 0.41757 0.0
H1998 H 0.10584 0.45956 0.5038 0.0
H1999 H 0.0887 0.51593 0.46732 0.0
H2000 H 0.07728 0.5333 0.56244 0.0
H2001 H 0.07205 0.51544 0.51574 0.0
H2002 H 0.12611 0.48329 0.53033 0.0
H2003 H 0.13092 0.50105 0.5767 0.0
C2004 C 0.10525 0.46163 0.45669 0.0
C2005 C 0.10236 0.4738 0.43196 0.0
C2006 C 0.1027 0.46907 0.48516 0.0
C2007 C 0.09725 0.48888 0.48952 0.0
C2008 C 0.0928 0.50058 0.46474 0.0
C2009 C 0.0953 0.49309 0.4362 0.0
C2010 C 0.08771 0.52212 0.55563 0.0
C2011 C 0.10446 0.5184 0.5727 0.0
C2012 C 0.08483 0.512 0.52901 0.0
C2013 C 0.09865 0.49794 0.51932 0.0
C2014 C 0.11501 0.49377 0.53729 0.0
C2015 C 0.11789 0.50396 0.56367 0.0
H2016 H 0.35776 0.09415 0.19856 0.0
H2017 H 0.40783 0.07559 0.14698 0.0
H2018 H 0.35163 0.12076 0.16406 0.0
H2019 H 0.4019 0.10261 0.11236 0.0
H2020 H 0.33314 0.16005 0.09828 0.0
H2021 H 0.35774 0.14997 0.13444 0.0
H2022 H 0.37485 0.10168 0.07761 0.0
H2023 H 0.35054 0.11188 0.04167 0.0
C2024 C 0.36796 0.09628 0.18045 0.0
C2025 C 0.38294 0.08252 0.17505 0.0
C2026 C 0.36456 0.11171 0.1607 0.0
C2027 C 0.37604 0.11361 0.13501 0.0
C2028 C 0.3926 0.10134 0.13169 0.0
C2029 C 0.39606 0.08592 0.15161 0.0
C2030 C 0.3429 0.14795 0.09284 0.0
C2031 C 0.33959 0.13636 0.06759 0.0
C2032 C 0.3569 0.14206 0.1137 0.0
C2033 C 0.36782 0.12464 0.1094 0.0
C2034 C 0.36667 0.1151 0.08186 0.0
C2035 C 0.35263 0.1209 0.06118 0.0
H2036 H 0.09623 0.08591 0.34452 0.0
H2037 H 0.14821 0.10563 0.29857 0.0
H2038 H 0.09973 0.11308 0.37948 0.0
H2039 H 0.15207 0.13228 0.3335 0.0
H2040 H 0.14756 0.11858 0.4554 0.0
H2041 H 0.12406 0.11132 0.41701 0.0
H2042 H 0.14671 0.15978 0.365 0.0
H2043 H 0.17081 0.16664 0.40336 0.0
C2044 C 0.10783 0.09661 0.34097 0.0
C2045 C 0.12233 0.09336 0.31942 0.0
C2046 C 0.10995 0.11211 0.3612 0.0
C2047 C 0.12659 0.12447 0.36009 0.0
C2048 C 0.13911 0.12308 0.33541 0.0
C2049 C 0.137 0.10764 0.31531 0.0
C2050 C 0.14703 0.12824 0.43635 0.0
C2051 C 0.16166 0.14254 0.43179 0.0
C2052 C 0.13335 0.12417 0.41423 0.0
C2053 C 0.13401 0.13444 0.38722 0.0
C2054 C 0.14626 0.15114 0.38511 0.0
C2055 C 0.16003 0.15516 0.40725 0.0
H2056 H 0.18569 0.85037 0.60735 0.0
H2057 H 0.17594 0.90691 0.56605 0.0
H2058 H 0.15476 0.85395 0.63464 0.0
H2059 H 0.1454 0.91062 0.59297 0.0
H2060 H 0.13704 0.89862 0.71276 0.0
H2061 H 0.15084 0.87691 0.67571 0.0
H2062 H 0.11246 0.90237 0.61 0.0
H2063 H 0.09875 0.92435 0.64725 0.0
C2064 C 0.17652 0.86315 0.60319 0.0
C2065 C 0.18326 0.87854 0.58507 0.0
C2066 C 0.15887 0.86525 0.61887 0.0
C2067 C 0.14769 0.88268 0.61634 0.0
C2068 C 0.15344 0.89691 0.59541 0.0
C2069 C 0.1711 0.89491 0.58013 0.0
C2070 C 0.13083 0.89894 0.69074 0.0
C2071 C 0.11753 0.91384 0.6826 0.0
C2072 C 0.13871 0.88637 0.66938 0.0
C2073 C 0.13334 0.8885 0.63958 0.0
C2074 C 0.11731 0.9008 0.63265 0.0
C2075 C 0.10936 0.91335 0.6541 0.0
H2076 H 0.37748 0.96399 0.88628 0.0
H2077 H 0.38286 0.92841 0.80788 0.0
H2078 H 0.36728 0.93537 0.91431 0.0
H2079 H 0.37321 0.89903 0.83617 0.0
H2080 H 0.31578 0.87278 0.87988 0.0
H2081 H 0.34209 0.88937 0.85344 0.0
H2082 H 0.36938 0.90464 0.93661 0.0
H2083 H 0.34209 0.88907 0.96281 0.0
C2084 C 0.37724 0.94972 0.87542 0.0
C2085 C 0.38084 0.94827 0.84509 0.0
C2086 C 0.37152 0.93317 0.89151 0.0
C2087 C 0.36915 0.91473 0.87756 0.0
C2088 C 0.37455 0.91302 0.84758 0.0
C2089 C 0.38027 0.92973 0.8314 0.0
C2090 C 0.32795 0.87887 0.89237 0.0
C2091 C 0.32704 0.87972 0.92324 0.0
C2092 C 0.34311 0.88844 0.87724 0.0
C2093 C 0.35767 0.89894 0.89283 0.0
C2094 C 0.3581 0.89728 0.92385 0.0
C2095 C 0.34267 0.8881 0.93894 0.0
H2096 H 0.65768 0.92715 0.80069 0.0
H2097 H 0.61143 0.94422 0.8606 0.0
H2098 H 0.66767 0.9011 0.8343 0.0
H2099 H 0.6215 0.91804 0.89471 0.0
H2100 H 0.69125 0.86171 0.89843 0.0
H2101 H 0.66404 0.8715 0.86626 0.0
H2102 H 0.65278 0.92178 0.92249 0.0
H2103 H 0.67983 0.91203 0.95424 0.0
C2104 C 0.64907 0.92466 0.82049 0.0
C2105 C 0.63397 0.93774 0.82829 0.0
C2106 C 0.65472 0.90965 0.83976 0.0
C2107 C 0.64558 0.9077 0.86745 0.0
C2108 C 0.6289 0.9193 0.87363 0.0
C2109 C 0.62305 0.93419 0.85404 0.0
C2110 C 0.68232 0.87429 0.9046 0.0
C2111 C 0.68775 0.88633 0.92848 0.0
C2112 C 0.66681 0.87995 0.88612 0.0
C2113 C 0.65645 0.89758 0.89154 0.0
C2114 C 0.66034 0.90808 0.91768 0.0
C2115 C 0.67596 0.90258 0.93583 0.0
H2116 H 0.88454 0.95597 0.62871 0.0
H2117 H 0.87411 0.9247 0.70997 0.0
H2118 H 0.87204 0.92824 0.60078 0.0
H2119 H 0.86284 0.89592 0.68214 0.0
H2120 H 0.80653 0.87689 0.63144 0.0
H2121 H 0.83314 0.8906 0.66028 0.0
H2122 H 0.86765 0.89771 0.5806 0.0
H2123 H 0.83998 0.88519 0.5517 0.0
C2124 C 0.88056 0.9426 0.64044 0.0
C2125 C 0.88021 0.94234 0.67131 0.0
C2126 C 0.87339 0.92653 0.62443 0.0
C2127 C 0.86584 0.90978 0.63907 0.0
C2128 C 0.86787 0.90874 0.67004 0.0
C2129 C 0.87462 0.92507 0.68606 0.0
C2130 C 0.82015 0.88067 0.62035 0.0
C2131 C 0.82134 0.88005 0.58953 0.0
C2132 C 0.83557 0.88854 0.63689 0.0
C2133 C 0.85259 0.89585 0.62287 0.0
C2134 C 0.85459 0.89288 0.59217 0.0
C2135 C 0.83891 0.88541 0.57556 0.0
H2136 H 0.90737 0.0682 0.36936 0.0
H2137 H 0.85682 0.08188 0.31571 0.0
H2138 H 0.8996 0.09617 0.40168 0.0
H2139 H 0.8491 0.10967 0.34747 0.0
H2140 H 0.84496 0.10571 0.46849 0.0
H2141 H 0.8707 0.09478 0.43521 0.0
H2142 H 0.85518 0.14113 0.37399 0.0
H2143 H 0.82932 0.1521 0.40757 0.0
C2144 C 0.89517 0.07776 0.36371 0.0
C2145 C 0.88249 0.07284 0.3404 0.0
C2146 C 0.89068 0.0937 0.38224 0.0
C2147 C 0.87362 0.10502 0.37738 0.0
C2148 C 0.86244 0.10143 0.35182 0.0
C2149 C 0.86674 0.08538 0.33368 0.0
C2150 C 0.84772 0.1142 0.44864 0.0
C2151 C 0.83487 0.1294 0.44025 0.0
C2152 C 0.86257 0.10799 0.42953 0.0
C2153 C 0.86463 0.11677 0.40156 0.0
C2154 C 0.85372 0.13391 0.39522 0.0
C2155 C 0.83897 0.14027 0.41456 0.0
H2156 H 0.60099 0.06749 0.1395 0.0
H2157 H 0.64904 0.0884 0.19308 0.0
H2158 H 0.60707 0.0941 0.10406 0.0
H2159 H 0.65511 0.11487 0.15818 0.0
H2160 H 0.67468 0.15319 0.09306 0.0
H2161 H 0.64812 0.14366 0.12632 0.0
H2162 H 0.63643 0.09252 0.07211 0.0
H2163 H 0.66286 0.102 0.03916 0.0
C2164 C 0.61215 0.07841 0.14449 0.0
C2165 C 0.62473 0.07586 0.16875 0.0
C2166 C 0.61571 0.09357 0.12412 0.0
C2167 C 0.63176 0.10644 0.12801 0.0
C2168 C 0.64254 0.10537 0.15447 0.0
C2169 C 0.63917 0.0901 0.17448 0.0
C2170 C 0.66575 0.1405 0.08738 0.0
C2171 C 0.67131 0.12786 0.06422 0.0
C2172 C 0.65057 0.13499 0.10656 0.0
C2173 C 0.64063 0.11697 0.10246 0.0
C2174 C 0.64387 0.1064 0.07617 0.0
C2175 C 0.65914 0.11178 0.05725 0.0
H2176 H 0.8538 0.61044 0.54829 0.0
H2177 H 0.83359 0.66375 0.59074 0.0
H2178 H 0.88032 0.60785 0.58355 0.0
H2179 H 0.86058 0.66148 0.62605 0.0
H2180 H 0.91595 0.5924 0.65367 0.0
H2181 H 0.90806 0.61523 0.6139 0.0
H2182 H 0.85948 0.6379 0.66523 0.0
H2183 H 0.86767 0.6156 0.70496 0.0
C2184 C 0.85565 0.62218 0.56432 0.0
C2185 C 0.84135 0.63695 0.5673 0.0
C2186 C 0.871 0.62079 0.58458 0.0
C2187 C 0.87229 0.63415 0.60833 0.0
C2188 C 0.85974 0.65069 0.60845 0.0
C2189 C 0.84435 0.65209 0.58803 0.0
C2190 C 0.9042 0.60295 0.65708 0.0
C2191 C 0.89181 0.60154 0.68186 0.0
C2192 C 0.8996 0.61599 0.63413 0.0
C2193 C 0.8826 0.62778 0.63574 0.0
C2194 C 0.87254 0.62889 0.66285 0.0
C2195 C 0.87716 0.61592 0.68576 0.0
H2196 H 0.64446 0.62601 0.9557 0.0
H2197 H 0.66889 0.67052 0.89813 0.0
H2198 H 0.6213 0.61677 0.91783 0.0
H2199 H 0.64518 0.66163 0.86018 0.0
H2200 H 0.59508 0.58674 0.84737 0.0
H2201 H 0.59793 0.61589 0.87884 0.0
H2202 H 0.65148 0.63209 0.83337 0.0
H2203 H 0.64825 0.60349 0.80189 0.0
C2204 C 0.64423 0.63453 0.93546 0.0
C2205 C 0.65917 0.64823 0.92931 0.0
C2206 C 0.63077 0.6293 0.9136 0.0
C2207 C 0.63198 0.63781 0.8853 0.0
C2208 C 0.64435 0.65428 0.88138 0.0
C2209 C 0.65789 0.65947 0.90327 0.0
C2210 C 0.60687 0.59713 0.84318 0.0
C2211 C 0.62177 0.59264 0.82278 0.0
C2212 C 0.60859 0.61377 0.86136 0.0
C2213 C 0.62527 0.62604 0.85939 0.0
C2214 C 0.63844 0.62307 0.83581 0.0
C2215 C 0.63671 0.60649 0.81776 0.0
H2216 H 0.59687 0.41957 0.15866 0.0
H2217 H 0.65013 0.40203 0.20317 0.0
H2218 H 0.59974 0.39107 0.1259 0.0
H2219 H 0.65336 0.37407 0.1704 0.0
H2220 H 0.64573 0.38154 0.04809 0.0
H2221 H 0.62304 0.3907 0.0867 0.0
H2222 H 0.6468 0.34491 0.14276 0.0
H2223 H 0.67005 0.3361 0.1041 0.0
C2224 C 0.60868 0.40913 0.16235 0.0
C2225 C 0.62358 0.41323 0.1829 0.0
C2226 C 0.61042 0.39287 0.14341 0.0
C2227 C 0.6271 0.38057 0.14479 0.0
C2228 C 0.64031 0.38312 0.16842 0.0
C2229 C 0.63858 0.39933 0.18721 0.0
C2230 C 0.64558 0.37282 0.06814 0.0
C2231 C 0.66036 0.35882 0.07361 0.0
C2232 C 0.63238 0.37801 0.09042 0.0
C2233 C 0.63369 0.36915 0.11846 0.0
C2234 C 0.6459 0.35251 0.12176 0.0
C2235 C 0.65917 0.34736 0.09945 0.0
H2236 H 0.86442 0.39818 0.30014 0.0
H2237 H 0.91417 0.41917 0.3503 0.0
H2238 H 0.85782 0.37364 0.33752 0.0
H2239 H 0.90799 0.39398 0.38756 0.0
H2240 H 0.85795 0.39053 0.45991 0.0
H2241 H 0.88223 0.39715 0.42231 0.0
H2242 H 0.86108 0.34739 0.37165 0.0
H2243 H 0.83618 0.34118 0.40919 0.0
C2244 C 0.87452 0.39696 0.31854 0.0
C2245 C 0.88931 0.41113 0.32283 0.0
C2246 C 0.87083 0.38269 0.34005 0.0
C2247 C 0.88196 0.38224 0.36624 0.0
C2248 C 0.89875 0.39433 0.36811 0.0
C2249 C 0.90239 0.4087 0.34659 0.0
C2250 C 0.85895 0.3805 0.44133 0.0
C2251 C 0.84462 0.36587 0.43694 0.0
C2252 C 0.87306 0.38421 0.41968 0.0
C2253 C 0.87318 0.37325 0.39326 0.0
C2254 C 0.86097 0.35651 0.39129 0.0
C2255 C 0.84677 0.35285 0.41297 0.0
H2256 H 0.14789 0.39036 0.45644 0.0
H2257 H 0.17007 0.34172 0.40457 0.0
H2258 H 0.12388 0.39746 0.41867 0.0
H2259 H 0.14549 0.34845 0.36684 0.0
H2260 H 0.14578 0.40194 0.29909 0.0
H2261 H 0.15051 0.37583 0.33472 0.0
H2262 H 0.09881 0.39521 0.38214 0.0
H2263 H 0.09444 0.42184 0.34647 0.0
C2264 C 0.14701 0.38055 0.43759 0.0
C2265 C 0.16145 0.36609 0.43286 0.0
C2266 C 0.13305 0.38453 0.41584 0.0
C2267 C 0.13325 0.37402 0.38903 0.0
C2268 C 0.14537 0.35724 0.38682 0.0
C2269 C 0.15941 0.35329 0.4086 0.0
C2270 C 0.1349 0.40007 0.31634 0.0
C2271 C 0.12011 0.41423 0.3205 0.0
C2272 C 0.13751 0.38494 0.33684 0.0
C2273 C 0.12539 0.38375 0.36199 0.0
C2274 C 0.1087 0.39603 0.36344 0.0
C2275 C 0.10608 0.4112 0.34282 0.0
H2276 H 0.35333 0.40078 0.0507 0.0
H2277 H 0.33378 0.34791 0.09503 0.0
H2278 H 0.38007 0.40404 0.08548 0.0
H2279 H 0.36099 0.35086 0.12987 0.0
H2280 H 0.36905 0.39759 0.20748 0.0
H2281 H 0.3602 0.37502 0.16839 0.0
H2282 H 0.40825 0.39696 0.11525 0.0
H2283 H 0.41682 0.42005 0.15439 0.0
C2284 C 0.35536 0.38929 0.06706 0.0
C2285 C 0.34122 0.37442 0.07064 0.0
C2286 C 0.37085 0.39105 0.08704 0.0
C2287 C 0.37241 0.378 0.11112 0.0
C2288 C 0.35995 0.3614 0.11197 0.0
C2289 C 0.34444 0.35961 0.09183 0.0
C2290 C 0.37829 0.39704 0.188 0.0
C2291 C 0.39303 0.41124 0.18348 0.0
C2292 C 0.37328 0.38392 0.16547 0.0
C2293 C 0.38302 0.38472 0.13808 0.0
C2294 C 0.40005 0.39643 0.13574 0.0
C2295 C 0.40505 0.4096 0.15832 0.0
H2296 H 0.37056 0.61237 0.79705 0.0
H2297 H 0.42019 0.58993 0.84607 0.0
H2298 H 0.36461 0.63657 0.83509 0.0
H2299 H 0.41465 0.61476 0.88401 0.0
H2300 H 0.34034 0.66378 0.90801 0.0
H2301 H 0.36701 0.6612 0.8722 0.0
H2302 H 0.38847 0.60929 0.91752 0.0
H2303 H 0.36229 0.61226 0.9532 0.0
C2304 C 0.38082 0.61323 0.81529 0.0
C2305 C 0.39519 0.5986 0.81928 0.0
C2306 C 0.37752 0.62732 0.8372 0.0
C2307 C 0.38863 0.62707 0.86342 0.0
C2308 C 0.40537 0.61489 0.86459 0.0
C2309 C 0.40861 0.60068 0.8427 0.0
C2310 C 0.35148 0.65256 0.91126 0.0
C2311 C 0.34897 0.63781 0.93275 0.0
C2312 C 0.36667 0.65094 0.89054 0.0
C2313 C 0.37943 0.63456 0.89113 0.0
C2314 C 0.37891 0.62203 0.91594 0.0
C2315 C 0.36377 0.62364 0.93652 0.0
H2316 H 0.14932 0.62339 0.54482 0.0
H2317 H 0.17231 0.66927 0.60125 0.0
H2318 H 0.12415 0.61618 0.58071 0.0
H2319 H 0.14642 0.66264 0.63702 0.0
H2320 H 0.14219 0.60885 0.70273 0.0
H2321 H 0.14872 0.63527 0.66842 0.0
H2322 H 0.09886 0.61721 0.61571 0.0
H2323 H 0.09288 0.59001 0.64982 0.0
C2324 C 0.1484 0.63262 0.56431 0.0
C2325 C 0.16334 0.64623 0.57084 0.0
C2326 C 0.13377 0.62858 0.58502 0.0
C2327 C 0.13374 0.63821 0.61257 0.0
C2328 C 0.14648 0.65439 0.61654 0.0
C2329 C 0.16126 0.65833 0.59586 0.0
C2330 C 0.13216 0.61093 0.68441 0.0
C2331 C 0.11753 0.59691 0.67834 0.0
C2332 C 0.13579 0.62631 0.66468 0.0
C2333 C 0.12476 0.62802 0.6385 0.0
C2334 C 0.10806 0.61593 0.63511 0.0
C2335 C 0.10451 0.6004 0.65483 0.0
H2336 H 0.24581 0.2092 0.00557 0.0
H2337 H 0.28029 0.20643 0.08546 0.0
H2338 H 0.24572 0.24491 0.00816 0.0
H2339 H 0.2796 0.24252 0.08876 0.0
H2340 H 0.29123 0.30854 0.0667 0.0
H2341 H 0.29164 0.27242 0.06741 0.0
H2342 H 0.23226 0.27165 0.03357 0.0
H2343 H 0.23222 0.30746 0.03175 0.0
C2344 C 0.2532 0.21621 0.02397 0.0
C2345 C 0.26301 0.20485 0.04536 0.0
C2346 C 0.25304 0.23682 0.02558 0.0
C2347 C 0.26249 0.24681 0.04884 0.0
C2348 C 0.27231 0.23544 0.07035 0.0
C2349 C 0.27262 0.21472 0.06857 0.0
C2350 C 0.27826 0.30061 0.0595 0.0
C2351 C 0.26179 0.31093 0.04882 0.0
C2352 C 0.27844 0.27986 0.06006 0.0
C2353 C 0.26207 0.26894 0.0502 0.0
C2354 C 0.24537 0.2794 0.04058 0.0
C2355 C 0.24529 0.30004 0.03971 0.0
H2356 H 0.96166 0.99061 0.25446 0.0
H2357 H 0.95718 0.02038 0.33848 0.0
H2358 H 0.99715 0.99301 0.25658 0.0
H2359 H 0.99306 0.02213 0.34126 0.0
H2360 H 0.05776 0.03917 0.32069 0.0
H2361 H 0.02186 0.03728 0.32145 0.0
H2362 H 0.0247 0.97984 0.28005 0.0
H2363 H 0.06027 0.98216 0.27822 0.0
C2364 C 0.96826 0.9975 0.27362 0.0
C2365 C 0.95648 0.00521 0.29637 0.0
C2366 C 0.98874 0.99877 0.27495 0.0
C2367 C 0.99819 0.00757 0.29926 0.0
C2368 C 0.98639 0.01539 0.32204 0.0
C2369 C 0.96579 0.01429 0.32056 0.0
C2370 C 0.05067 0.02613 0.31184 0.0
C2371 C 0.06192 0.01093 0.29908 0.0
C2372 C 0.03006 0.02498 0.31241 0.0
C2373 C 0.02019 0.00851 0.30047 0.0
C2374 C 0.0316 0.99303 0.28872 0.0
C2375 C 0.0521 0.99429 0.28784 0.0
H2376 H 0.2662 0.70424 0.51218 0.0
H2377 H 0.23131 0.70566 0.59179 0.0
H2378 H 0.26876 0.73995 0.51307 0.0
H2379 H 0.23453 0.7416 0.59346 0.0
H2380 H 0.22694 0.80742 0.56911 0.0
H2381 H 0.22432 0.77144 0.57076 0.0
H2382 H 0.28352 0.76658 0.53683 0.0
H2383 H 0.28572 0.80229 0.53398 0.0
C2384 C 0.2593 0.71216 0.53018 0.0
C2385 C 0.24858 0.70202 0.55194 0.0
C2386 C 0.26086 0.73274 0.5308 0.0
C2387 C 0.25195 0.74385 0.55343 0.0
C2388 C 0.24138 0.73366 0.57543 0.0
C2389 C 0.23964 0.71301 0.57462 0.0
C2390 C 0.23937 0.79862 0.56202 0.0
C2391 C 0.25645 0.80776 0.5511 0.0
C2392 C 0.23794 0.77795 0.56315 0.0
C2393 C 0.25363 0.76592 0.55368 0.0
C2394 C 0.2709 0.7752 0.5436 0.0
C2395 C 0.27222 0.79578 0.54213 0.0
H2396 H 0.45638 0.99611 0.83253 0.0
H2397 H 0.4605 0.02709 0.74942 0.0
H2398 H 0.4924 0.99506 0.8354 0.0
H2399 H 0.49599 0.02553 0.75178 0.0
H2400 H 0.55732 0.04076 0.77648 0.0
H2401 H 0.52175 0.04062 0.77839 0.0
H2402 H 0.5226 0.98143 0.81396 0.0
H2403 H 0.55868 0.98186 0.81295 0.0
C2404 C 0.46493 1.00256 0.81481 0.0
C2405 C 0.45551 0.01191 0.79094 0.0
C2406 C 0.48558 1.00189 0.81638 0.0
C2407 C 0.4972 0.01049 0.79405 0.0
C2408 C 0.48764 0.01925 0.76984 0.0
C2409 C 0.46717 0.02004 0.7684 0.0
C2410 C 0.55001 0.02768 0.78482 0.0
C2411 C 0.56091 0.01121 0.79421 0.0
C2412 C 0.52951 0.02756 0.78576 0.0
C2413 C 0.51917 0.01086 0.79575 0.0
C2414 C 0.53004 0.99457 0.80616 0.0
C2415 C 0.55072 0.99477 0.80547 0.0
H2416 H 0.24228 0.79595 0.99943 0.0
H2417 H 0.27956 0.80285 0.9229 0.0
H2418 H 0.24725 0.76037 0.99786 0.0
H2419 H 0.28439 0.76693 0.92126 0.0
H2420 H 0.27218 0.69848 0.91567 0.0
H2421 H 0.26472 0.734 0.91378 0.0
H2422 H 0.27704 0.73872 0.00695 0.0
H2423 H 0.28467 0.7036 0.00879 0.0
C2424 C 0.25144 0.7899 0.9821 0.0
C2425 C 0.2606 0.80235 0.96138 0.0
C2426 C 0.25433 0.76946 0.98128 0.0
C2427 C 0.26625 0.76082 0.9595 0.0
C2428 C 0.27501 0.77314 0.9382 0.0
C2429 C 0.27234 0.79372 0.93927 0.0
C2430 C 0.27309 0.7071 0.93576 0.0
C2431 C 0.279 0.69821 0.9624 0.0
C2432 C 0.26898 0.72744 0.93463 0.0
C2433 C 0.2703 0.73917 0.96022 0.0
C2434 C 0.27574 0.7301 0.9869 0.0
C2435 C 0.28017 0.70995 0.98792 0.0
H2436 H 0.5522 0.98382 0.24433 0.0
H2437 H 0.55471 0.01972 0.16573 0.0
H2438 H 0.51672 0.9861 0.24451 0.0
H2439 H 0.51876 0.02112 0.1647 0.0
H2440 H 0.45401 0.03472 0.18774 0.0
H2441 H 0.48989 0.0336 0.18555 0.0
H2442 H 0.48871 0.97472 0.22255 0.0
H2443 H 0.45319 0.9765 0.22633 0.0
C2444 C 0.54511 0.992 0.22675 0.0
C2445 C 0.55632 1.00148 0.2049 0.0
C2446 C 0.52462 0.99319 0.22668 0.0
C2447 C 0.51456 1.00354 0.20434 0.0
C2448 C 0.52583 0.01316 0.18248 0.0
C2449 C 0.54648 0.01228 0.18291 0.0
C2450 C 0.46151 0.02157 0.19536 0.0
C2451 C 0.45078 0.0058 0.20755 0.0
C2452 C 0.48212 0.02084 0.19396 0.0
C2453 C 0.49249 1.00416 0.20424 0.0
C2454 C 0.48152 0.98812 0.2153 0.0
C2455 C 0.46103 0.98904 0.21727 0.0
H2456 H 0.22906 0.20227 0.41095 0.0
H2457 H 0.25978 0.2039 0.49427 0.0
H2458 H 0.23014 0.23826 0.4085 0.0
H2459 H 0.2601 0.23973 0.49262 0.0
H2460 H 0.27187 0.30374 0.47386 0.0
H2461 H 0.27332 0.26789 0.47124 0.0
H2462 H 0.21651 0.26704 0.42854 0.0
H2463 H 0.21559 0.30301 0.42996 0.0
C2464 C 0.23603 0.21031 0.42877 0.0
C2465 C 0.24437 0.20015 0.45277 0.0
C2466 C 0.23652 0.23101 0.42751 0.0
C2467 C 0.24516 0.24214 0.45039 0.0
C2468 C 0.25365 0.23185 0.47423 0.0
C2469 C 0.25337 0.21119 0.47529 0.0
C2470 C 0.25974 0.29591 0.46373 0.0
C2471 C 0.24359 0.30629 0.45223 0.0
C2472 C 0.26049 0.27525 0.4624 0.0
C2473 C 0.24494 0.26431 0.44994 0.0
C2474 C 0.22892 0.2748 0.43796 0.0
C2475 C 0.22832 0.29549 0.43892 0.0
H2476 H 0.05446 0.9821 0.66546 0.0
H2477 H 0.05738 0.01635 0.74574 0.0
H2478 H 0.01878 0.9867 0.66418 0.0
H2479 H 0.02201 0.02026 0.7452 0.0
H2480 H 0.96087 0.04011 0.72586 0.0
H2481 H 0.99625 0.03654 0.72172 0.0
H2482 H 0.98861 0.97754 0.68713 0.0
H2483 H 0.95295 0.98156 0.6901 0.0
C2484 C 0.0475 0.99058 0.68284 0.0
C2485 C 0.05883 0.99896 0.70559 0.0
C2486 C 0.02701 0.99311 0.68224 0.0
C2487 C 0.01736 1.00396 0.7045 0.0
C2488 C 0.02881 0.01222 0.72724 0.0
C2489 C 0.0492 0.00986 0.72767 0.0
C2490 C 0.9667 0.02639 0.71724 0.0
C2491 C 0.95404 0.01106 0.70857 0.0
C2492 C 0.98708 0.02427 0.71504 0.0
C2493 C 0.99549 0.00661 0.70452 0.0
C2494 C 0.98278 0.99142 0.69513 0.0
C2495 C 0.96229 0.99366 0.69699 0.0
H2496 H 0.77123 0.80215 0.99739 0.0
H2497 H 0.73883 0.81002 0.91632 0.0
H2498 H 0.76741 0.76671 0.99345 0.0
H2499 H 0.73576 0.77417 0.91145 0.0
H2500 H 0.71665 0.70971 0.92924 0.0
H2501 H 0.72039 0.74556 0.92994 0.0
H2502 H 0.77814 0.73891 0.96853 0.0
H2503 H 0.77387 0.70329 0.96917 0.0
C2504 C 0.76348 0.79628 0.97844 0.0
C2505 C 0.75541 0.80898 0.95711 0.0
C2506 C 0.76141 0.77583 0.97602 0.0
C2507 C 0.75146 0.76734 0.95191 0.0
C2508 C 0.74334 0.78007 0.9305 0.0
C2509 C 0.74519 0.80066 0.93317 0.0
C2510 C 0.73018 0.71596 0.93772 0.0
C2511 C 0.74488 0.70366 0.94943 0.0
C2512 C 0.73239 0.73656 0.938 0.0
C2513 C 0.74949 0.74534 0.94964 0.0
C2514 C 0.7645 0.73286 0.96018 0.0
C2515 C 0.76214 0.71235 0.96035 0.0
H2516 H 0.78735 0.20138 0.43652 0.0
H2517 H 0.72977 0.20376 0.47648 0.0
H2518 H 0.78878 0.23743 0.4365 0.0
H2519 H 0.73083 0.23961 0.47548 0.0
H2520 H 0.74807 0.30156 0.50343 0.0
H2521 H 0.74623 0.26585 0.50017 0.0
H2522 H 0.77661 0.26761 0.41641 0.0
H2523 H 0.77903 0.30354 0.42026 0.0
C2524 C 0.77489 0.20958 0.44495 0.0
C2525 C 0.75853 0.19963 0.45676 0.0
C2526 C 0.77565 0.2303 0.4448 0.0
C2527 C 0.76001 0.24159 0.45627 0.0
C2528 C 0.7434 0.23154 0.46713 0.0
C2529 C 0.74272 0.21089 0.46752 0.0
C2530 C 0.75429 0.29439 0.48421 0.0
C2531 C 0.76368 0.30549 0.46211 0.0
C2532 C 0.75314 0.27382 0.48223 0.0
C2533 C 0.76117 0.26367 0.45792 0.0
C2534 C 0.77046 0.27481 0.43564 0.0
C2535 C 0.77174 0.29545 0.43775 0.0
H2536 H 0.75782 0.20253 0.00333 0.0
H2537 H 0.73441 0.19696 0.09158 0.0
H2538 H 0.7582 0.23822 0.00847 0.0
H2539 H 0.73533 0.23283 0.09712 0.0
H2540 H 0.71813 0.29825 0.08179 0.0
H2541 H 0.71939 0.26226 0.08052 0.0
H2542 H 0.77402 0.26503 0.03201 0.0
H2543 H 0.77239 0.30093 0.03246 0.0
C2544 C 0.75295 0.2089 0.02401 0.0
C2545 C 0.74605 0.1968 0.04701 0.0
C2546 C 0.75329 0.22945 0.02705 0.0
C2547 C 0.74685 0.23856 0.05327 0.0
C2548 C 0.74016 0.22643 0.07646 0.0
C2549 C 0.73974 0.20581 0.07335 0.0
C2550 C 0.7305 0.29117 0.07107 0.0
C2551 C 0.74508 0.30252 0.05702 0.0
C2552 C 0.73128 0.27048 0.07045 0.0
C2553 C 0.74672 0.2606 0.05591 0.0
C2554 C 0.76166 0.27203 0.04284 0.0
C2555 C 0.76081 0.29268 0.04328 0.0
H2556 H 0.74068 0.79949 0.50082 0.0
H2557 H 0.77151 0.80381 0.58385 0.0
H2558 H 0.74296 0.76386 0.50274 0.0
H2559 H 0.77318 0.76769 0.58644 0.0
H2560 H 0.78885 0.70224 0.56515 0.0
H2561 H 0.78756 0.73836 0.56608 0.0
H2562 H 0.72973 0.73646 0.52674 0.0
H2563 H 0.73143 0.70071 0.52474 0.0
C2564 C 0.74779 0.79282 0.51974 0.0
C2565 C 0.75579 0.80461 0.54228 0.0
C2566 C 0.74899 0.77225 0.52096 0.0
C2567 C 0.75801 0.76266 0.54496 0.0
C2568 C 0.76623 0.77445 0.56748 0.0
C2569 C 0.76518 0.79519 0.5661 0.0
C2570 C 0.77587 0.70959 0.55676 0.0
C2571 C 0.76035 0.69854 0.54452 0.0
C2572 C 0.77506 0.73033 0.55744 0.0
C2573 C 0.75864 0.74052 0.54612 0.0
C2574 C 0.74288 0.72932 0.5349 0.0
C2575 C 0.74379 0.7087 0.53392 0.0
H2576 H 0.55626 0.53096 0.84333 0.0
H2577 H 0.55396 0.49534 0.76438 0.0
H2578 H 0.52036 0.53091 0.84565 0.0
H2579 H 0.51839 0.4961 0.76567 0.0
H2580 H 0.45483 0.48583 0.78512 0.0
H2581 H 0.49048 0.48425 0.78835 0.0
H2582 H 0.49154 0.5433 0.82469 0.0
H2583 H 0.45574 0.54431 0.82291 0.0
C2584 C 0.54809 0.52322 0.82638 0.0
C2585 C 0.55801 0.51307 0.80377 0.0
C2586 C 0.52746 0.52328 0.82756 0.0
C2587 C 0.51622 0.51342 0.80591 0.0
C2588 C 0.52631 0.50344 0.78323 0.0
C2589 C 0.54684 0.50312 0.78234 0.0
C2590 C 0.46268 0.49841 0.794 0.0
C2591 C 0.45243 0.51522 0.80362 0.0
C2592 C 0.48322 0.49761 0.79565 0.0
C2593 C 0.49416 0.51376 0.80641 0.0
C2594 C 0.48378 0.53044 0.8166 0.0
C2595 C 0.46319 0.53109 0.81543 0.0
H2596 H 0.05433 0.4642 0.32096 0.0
H2597 H 0.0528 0.52478 0.2913 0.0
H2598 H 0.0184 0.46326 0.32052 0.0
H2599 H 0.01712 0.52407 0.29174 0.0
H2600 H 0.95541 0.5096 0.26032 0.0
H2601 H 0.99099 0.51056 0.264 0.0
H2602 H 0.98843 0.47477 0.34287 0.0
H2603 H 0.95262 0.47336 0.33865 0.0
C2604 C 0.04635 0.47738 0.31467 0.0
C2605 C 0.05651 0.4945 0.30589 0.0
C2606 C 0.02571 0.47689 0.31456 0.0
C2607 C 0.01472 0.49353 0.30579 0.0
C2608 C 0.02497 0.5108 0.29794 0.0
C2609 C 0.04553 0.51126 0.29788 0.0
C2610 C 0.96237 0.50199 0.27856 0.0
C2611 C 0.95107 0.49142 0.2992 0.0
C2612 C 0.98287 0.50263 0.28079 0.0
C2613 C 0.99274 0.49283 0.30384 0.0
C2614 C 0.98142 0.48232 0.32462 0.0
C2615 C 0.96085 0.48162 0.32232 0.0
H2616 H 0.05354 0.53081 0.66003 0.0
H2617 H 0.05118 0.50205 0.745 0.0
H2618 H 0.01771 0.53004 0.65726 0.0
H2619 H 0.01553 0.50203 0.74297 0.0
H2620 H 0.9533 0.54577 0.67749 0.0
H2621 H 0.98908 0.54447 0.67634 0.0
H2622 H 0.98756 0.48834 0.72178 0.0
H2623 H 0.95187 0.49018 0.72407 0.0
C2624 C 0.04537 0.52436 0.67816 0.0
C2625 C 0.05527 0.51646 0.70272 0.0
C2626 C 0.02477 0.52403 0.67669 0.0
C2627 C 0.0135 0.516 0.6999 0.0
C2628 C 0.02353 0.508 0.72433 0.0
C2629 C 0.04408 0.50811 0.72562 0.0
C2630 C 0.96062 0.53309 0.68708 0.0
C2631 C 0.94969 0.51815 0.70107 0.0
C2632 C 0.98121 0.53228 0.68629 0.0
C2633 C 0.99144 0.51636 0.69916 0.0
C2634 C 0.98037 0.5011 0.71225 0.0
C2635 C 0.95982 0.50206 0.71338 0.0
H2636 H 0.45744 0.51954 0.2301 0.0
H2637 H 0.45742 0.46489 0.18109 0.0
H2638 H 0.49314 0.52036 0.22825 0.0
H2639 H 0.4933 0.46519 0.18027 0.0
H2640 H 0.55865 0.47821 0.16578 0.0
H2641 H 0.52279 0.47947 0.16237 0.0
H2642 H 0.52018 0.50498 0.24974 0.0
H2643 H 0.55574 0.50442 0.25256 0.0
C2644 C 0.46507 0.50764 0.21897 0.0
C2645 C 0.45452 0.49209 0.20591 0.0
C2646 C 0.48564 0.50802 0.21808 0.0
C2647 C 0.49634 0.4927 0.20447 0.0
C2648 C 0.48571 0.47737 0.19072 0.0
C2649 C 0.46508 0.47713 0.19131 0.0
C2650 C 0.55038 0.4842 0.18415 0.0
C2651 C 0.56015 0.49127 0.2094 0.0
C2652 C 0.52977 0.48481 0.1823 0.0
C2653 C 0.51838 0.49239 0.20573 0.0
C2654 C 0.52828 0.49944 0.23091 0.0
C2655 C 0.5488 0.49899 0.23263 0.0
loop_
_geom_bond_atom_site_label_1
_geom_bond_atom_site_label_2
_geom_bond_distance
_geom_bond_site_symmetry_2
_ccdc_geom_bond_type
C0 C1 1.351 . S
C0 N3 1.368 . S
C0 H5 0.931 . S
C1 C0 1.351 . S
C1 N2 1.373 . S
C1 H29 0.930 . S
N2 C1 1.373 . S
N2 C4 1.340 . S
N3 C0 1.368 . S
N3 C4 1.321 . S
N3 Co6 2.135 . S
C4 N2 1.340 . S
C4 N3 1.321 . S
C4 H28 0.930 . S
H5 C0 0.931 . S
Co6 N3 2.135 . S
Co6 N9 2.121 . S
Co6 O14 2.055 . S
Co6 O17 2.039 . S
Co6 N20 2.140 . S
C7 O8 1.227 . S
C7 O17 1.265 . S
O8 C7 1.227 . S
N9 Co6 2.121 . S
N9 C11 1.375 . S
N9 C12 1.313 . S
C10 C11 1.338 1_556 S
C10 N13 1.377 . S
C10 H30 0.930 . S
C11 N9 1.375 . S
C11 C10 1.338 1_554 S
C11 H15 0.931 . S
C12 N9 1.313 . S
C12 N13 1.344 1_554 S
C12 H16 0.930 . S
N13 C10 1.377 . S
N13 C12 1.344 1_556 S
O14 Co6 2.055 . S
O14 C18 1.253 . S
H15 C11 0.931 . S
H16 C12 0.930 . S
O17 Co6 2.039 . S
O17 C7 1.265 . S
C18 O14 1.253 . S
C18 O19 1.227 . S
O19 C18 1.227 . S
N20 Co6 2.140 . S
N20 C23 1.346 . S
N20 C24 1.345 . S
C21 C22 1.387 . S
C21 C25 1.391 . S
C22 C21 1.387 . S
C22 C23 1.369 . S
C22 H31 0.929 . S
C23 N20 1.346 . S
C23 C22 1.369 . S
C23 H26 0.928 . S
C24 N20 1.345 . S
C24 C25 1.371 . S
C24 H27 0.931 . S
C25 C21 1.391 . S
C25 C24 1.371 . S
C25 H32 0.930 . S
H26 C23 0.928 . S
H27 C24 0.931 . S
H28 C4 0.930 . S
H29 C1 0.930 . S
H30 C10 0.930 . S
H31 C22 0.929 . S
H32 C25 0.930 . S
C33 C34 1.351 . S
C33 N36 1.368 . S
C33 H38 0.931 . S
C34 C33 1.351 . S
C34 N35 1.373 . S
C34 H62 0.930 . S
N35 C34 1.373 . S
N35 C37 1.340 . S
N36 C33 1.368 . S
N36 C37 1.321 . S
N36 Co39 2.135 . S
C37 N35 1.340 . S
C37 N36 1.321 . S
C37 H61 0.930 . S
H38 C33 0.931 . S
Co39 N36 2.135 . S
Co39 N42 2.121 . S
Co39 O47 2.055 . S
Co39 O50 2.039 . S
Co39 N53 2.140 1_545 S
C40 O41 1.227 . S
C40 O50 1.265 1_565 S
O41 C40 1.227 . S
N42 Co39 2.121 . S
N42 C44 1.375 1_545 S
N42 C45 1.313 . S
C43 C44 1.338 . S
C43 N46 1.377 1_565 S
C43 H63 0.930 . S
C44 N42 1.375 1_565 S
C44 C43 1.338 . S
C44 H48 0.931 . S
C45 N42 1.313 . S
C45 N46 1.344 . S
C45 H49 0.930 . S
N46 C43 1.377 1_545 S
N46 C45 1.344 . S
O47 Co39 2.055 . S
O47 C51 1.253 . S
H48 C44 0.931 . S
H49 C45 0.930 . S
O50 Co39 2.039 . S
O50 C40 1.265 1_545 S
C51 O47 1.253 . S
C51 O52 1.227 . S
O52 C51 1.227 . S
N53 Co39 2.140 1_565 S
N53 C56 1.346 . S
N53 C57 1.345 . S
C54 C55 1.387 . S
C54 C58 1.391 . S
C55 C54 1.387 . S
C55 C56 1.369 . S
C55 H64 0.929 . S
C56 N53 1.346 . S
C56 C55 1.369 . S
C56 H59 0.928 . S
C57 N53 1.345 . S
C57 C58 1.371 . S
C57 H60 0.931 . S
C58 C54 1.391 . S
C58 C57 1.371 . S
C58 H65 0.930 . S
H59 C56 0.928 . S
H60 C57 0.931 . S
H61 C37 0.930 . S
H62 C34 0.930 . S
H63 C43 0.930 . S
H64 C55 0.929 . S
H65 C58 0.930 . S
C66 C67 1.351 . S
C66 N69 1.368 . S
C66 H71 0.931 . S
C67 C66 1.351 . S
C67 N68 1.373 . S
C67 H95 0.930 . S
N68 C67 1.373 . S
N68 C70 1.340 . S
N69 C66 1.368 . S
N69 C70 1.321 . S
N69 Co72 2.135 . S
C70 N68 1.340 . S
C70 N69 1.321 . S
C70 H94 0.930 . S
H71 C66 0.931 . S
Co72 N69 2.135 . S
Co72 N75 2.121 . S
Co72 O80 2.055 . S
Co72 O83 2.039 . S
Co72 N86 2.140 . S
C73 O74 1.227 . S
C73 O83 1.265 . S
O74 C73 1.227 . S
N75 Co72 2.121 . S
N75 C77 1.375 . S
N75 C78 1.313 . S
C76 C77 1.338 . S
C76 N79 1.377 . S
C76 H96 0.930 . S
C77 N75 1.375 . S
C77 C76 1.338 . S
C77 H81 0.931 . S
C78 N75 1.313 . S
C78 N79 1.344 . S
C78 H82 0.930 . S
N79 C76 1.377 . S
N79 C78 1.344 . S
O80 Co72 2.055 . S
O80 C84 1.253 . S
H81 C77 0.931 . S
H82 C78 0.930 . S
O83 Co72 2.039 . S
O83 C73 1.265 . S
C84 O80 1.253 . S
C84 O85 1.227 . S
O85 C84 1.227 . S
N86 Co72 2.140 . S
N86 C89 1.346 . S
N86 C90 1.345 . S
C87 C88 1.387 . S
C87 C91 1.391 . S
C88 C87 1.387 . S
C88 C89 1.369 . S
C88 H97 0.929 . S
C89 N86 1.346 . S
C89 C88 1.369 . S
C89 H92 0.928 . S
C90 N86 1.345 . S
C90 C91 1.371 . S
C90 H93 0.931 . S
C91 C87 1.391 . S
C91 C90 1.371 . S
C91 H98 0.930 . S
H92 C89 0.928 . S
H93 C90 0.931 . S
H94 C70 0.930 . S
H95 C67 0.930 . S
H96 C76 0.930 . S
H97 C88 0.929 . S
H98 C91 0.930 . S
C99 C100 1.351 . S
C99 N102 1.368 . S
C99 H104 0.931 . S
C100 C99 1.351 . S
C100 N101 1.373 . S
C100 H128 0.930 . S
N101 C100 1.373 . S
N101 C103 1.340 . S
N102 C99 1.368 . S
N102 C103 1.321 . S
N102 Co105 2.135 . S
C103 N101 1.340 . S
C103 N102 1.321 . S
C103 H127 0.930 . S
H104 C99 0.931 . S
Co105 N102 2.135 . S
Co105 N108 2.121 . S
Co105 O113 2.055 . S
Co105 O116 2.039 . S
Co105 N119 2.140 1_565 S
C106 O107 1.227 . S
C106 O116 1.265 1_545 S
O107 C106 1.227 . S
N108 Co105 2.121 . S
N108 C110 1.375 1_565 S
N108 C111 1.313 . S
C109 C110 1.338 . S
C109 N112 1.377 1_545 S
C109 H129 0.930 . S
C110 N108 1.375 1_545 S
C110 C109 1.338 . S
C110 H114 0.931 . S
C111 N108 1.313 . S
C111 N112 1.344 . S
C111 H115 0.930 . S
N112 C109 1.377 1_565 S
N112 C111 1.344 . S
O113 Co105 2.055 . S
O113 C117 1.253 . S
H114 C110 0.931 . S
H115 C111 0.930 . S
O116 Co105 2.039 . S
O116 C106 1.265 1_565 S
C117 O113 1.253 . S
C117 O118 1.227 . S
O118 C117 1.227 . S
N119 Co105 2.140 1_545 S
N119 C122 1.346 . S
N119 C123 1.345 . S
C120 C121 1.387 . S
C120 C124 1.391 . S
C121 C120 1.387 . S
C121 C122 1.369 . S
C121 H130 0.929 . S
C122 N119 1.346 . S
C122 C121 1.369 . S
C122 H125 0.928 . S
C123 N119 1.345 . S
C123 C124 1.371 . S
C123 H126 0.931 . S
C124 C120 1.391 . S
C124 C123 1.371 . S
C124 H131 0.930 . S
H125 C122 0.928 . S
H126 C123 0.931 . S
H127 C103 0.930 . S
H128 C100 0.930 . S
H129 C109 0.930 . S
H130 C121 0.929 . S
H131 C124 0.930 . S
C132 C133 1.351 . S
C132 N135 1.368 . S
C132 H137 0.931 . S
C133 C132 1.351 . S
C133 N134 1.373 . S
C133 H161 0.930 . S
N134 C133 1.373 . S
N134 C136 1.340 . S
N135 C132 1.368 . S
N135 C136 1.321 . S
N135 Co138 2.135 . S
C136 N134 1.340 . S
C136 N135 1.321 . S
C136 H160 0.930 . S
H137 C132 0.931 . S
Co138 N135 2.135 . S
Co138 N141 2.121 . S
Co138 O146 2.055 . S
Co138 O149 2.039 . S
Co138 N152 2.140 . S
C139 O140 1.227 . S
C139 O149 1.265 . S
O140 C139 1.227 . S
N141 Co138 2.121 . S
N141 C143 1.375 . S
N141 C144 1.313 . S
C142 C143 1.338 1_554 S
C142 N145 1.377 . S
C142 H162 0.930 . S
C143 N141 1.375 . S
C143 C142 1.338 1_556 S
C143 H147 0.931 . S
C144 N141 1.313 . S
C144 N145 1.344 1_556 S
C144 H148 0.930 . S
N145 C142 1.377 . S
N145 C144 1.344 1_554 S
O146 Co138 2.055 . S
O146 C150 1.253 . S
H147 C143 0.931 . S
H148 C144 0.930 . S
O149 Co138 2.039 . S
O149 C139 1.265 . S
C150 O146 1.253 . S
C150 O151 1.227 . S
O151 C150 1.227 . S
N152 Co138 2.140 . S
N152 C155 1.346 . S
N152 C156 1.345 . S
C153 C154 1.387 . S
C153 C157 1.391 . S
C154 C153 1.387 . S
C154 C155 1.369 . S
C154 H163 0.929 . S
C155 N152 1.346 . S
C155 C154 1.369 . S
C155 H158 0.928 . S
C156 N152 1.345 . S
C156 C157 1.371 . S
C156 H159 0.931 . S
C157 C153 1.391 . S
C157 C156 1.371 . S
C157 H164 0.930 . S
H158 C155 0.928 . S
H159 C156 0.931 . S
H160 C136 0.930 . S
H161 C133 0.930 . S
H162 C142 0.930 . S
H163 C154 0.929 . S
H164 C157 0.930 . S
C165 C166 1.351 . S
C165 N168 1.368 . S
C165 H170 0.931 . S
C166 C165 1.351 . S
C166 N167 1.373 . S
C166 H194 0.930 . S
N167 C166 1.373 . S
N167 C169 1.340 . S
N168 C165 1.368 . S
N168 C169 1.321 . S
N168 Co171 2.135 . S
C169 N167 1.340 . S
C169 N168 1.321 . S
C169 H193 0.930 . S
H170 C165 0.931 . S
Co171 N168 2.135 . S
Co171 N174 2.121 . S
Co171 O179 2.055 . S
Co171 O182 2.039 . S
Co171 N185 2.140 1_545 S
C172 O173 1.227 . S
C172 O182 1.265 1_565 S
O173 C172 1.227 . S
N174 Co171 2.121 . S
N174 C176 1.375 1_545 S
N174 C177 1.313 . S
C175 C176 1.338 . S
C175 N178 1.377 1_565 S
C175 H195 0.930 . S
C176 N174 1.375 1_565 S
C176 C175 1.338 . S
C176 H180 0.931 . S
C177 N174 1.313 . S
C177 N178 1.344 . S
C177 H181 0.930 . S
N178 C175 1.377 1_545 S
N178 C177 1.344 . S
O179 Co171 2.055 . S
O179 C183 1.253 . S
H180 C176 0.931 . S
H181 C177 0.930 . S
O182 Co171 2.039 . S
O182 C172 1.265 1_545 S
C183 O179 1.253 . S
C183 O184 1.227 . S
O184 C183 1.227 . S
N185 Co171 2.140 1_565 S
N185 C188 1.346 . S
N185 C189 1.345 . S
C186 C187 1.387 . S
C186 C190 1.391 . S
C187 C186 1.387 . S
C187 C188 1.369 . S
C187 H196 0.929 . S
C188 N185 1.346 . S
C188 C187 1.369 . S
C188 H191 0.928 . S
C189 N185 1.345 . S
C189 C190 1.371 . S
C189 H192 0.931 . S
C190 C186 1.391 . S
C190 C189 1.371 . S
C190 H197 0.930 . S
H191 C188 0.928 . S
H192 C189 0.931 . S
H193 C169 0.930 . S
H194 C166 0.930 . S
H195 C175 0.930 . S
H196 C187 0.929 . S
H197 C190 0.930 . S
C198 C199 1.351 . S
C198 N201 1.368 . S
C198 H203 0.931 . S
C199 C198 1.351 . S
C199 N200 1.373 . S
C199 H227 0.930 . S
N200 C199 1.373 . S
N200 C202 1.340 . S
N201 C198 1.368 . S
N201 C202 1.321 . S
N201 Co204 2.135 . S
C202 N200 1.340 . S
C202 N201 1.321 . S
C202 H226 0.930 . S
H203 C198 0.931 . S
Co204 N201 2.135 . S
Co204 N207 2.121 . S
Co204 O212 2.055 . S
Co204 O215 2.039 . S
Co204 N218 2.140 . S
C205 O206 1.227 . S
C205 O215 1.265 . S
O206 C205 1.227 . S
N207 Co204 2.121 . S
N207 C209 1.375 . S
N207 C210 1.313 . S
C208 C209 1.338 . S
C208 N211 1.377 . S
C208 H228 0.930 . S
C209 N207 1.375 . S
C209 C208 1.338 . S
C209 H213 0.931 . S
C210 N207 1.313 . S
C210 N211 1.344 . S
C210 H214 0.930 . S
N211 C208 1.377 . S
N211 C210 1.344 . S
O212 Co204 2.055 . S
O212 C216 1.253 . S
H213 C209 0.931 . S
H214 C210 0.930 . S
O215 Co204 2.039 . S
O215 C205 1.265 . S
C216 O212 1.253 . S
C216 O217 1.227 . S
O217 C216 1.227 . S
N218 Co204 2.140 . S
N218 C221 1.346 . S
N218 C222 1.345 . S
C219 C220 1.387 . S
C219 C223 1.391 . S
C220 C219 1.387 . S
C220 C221 1.369 . S
C220 H229 0.929 . S
C221 N218 1.346 . S
C221 C220 1.369 . S
C221 H224 0.928 . S
C222 N218 1.345 . S
C222 C223 1.371 . S
C222 H225 0.931 . S
C223 C219 1.391 . S
C223 C222 1.371 . S
C223 H230 0.930 . S
H224 C221 0.928 . S
H225 C222 0.931 . S
H226 C202 0.930 . S
H227 C199 0.930 . S
H228 C208 0.930 . S
H229 C220 0.929 . S
H230 C223 0.930 . S
C231 C232 1.351 . S
C231 N234 1.368 . S
C231 H236 0.931 . S
C232 C231 1.351 . S
C232 N233 1.373 . S
C232 H260 0.930 . S
N233 C232 1.373 . S
N233 C235 1.340 . S
N234 C231 1.368 . S
N234 C235 1.321 . S
N234 Co237 2.135 . S
C235 N233 1.340 . S
C235 N234 1.321 . S
C235 H259 0.930 . S
H236 C231 0.931 . S
Co237 N234 2.135 . S
Co237 N240 2.121 . S
Co237 O245 2.055 . S
Co237 O248 2.039 . S
Co237 N251 2.140 1_565 S
C238 O239 1.227 . S
C238 O248 1.265 1_545 S
O239 C238 1.227 . S
N240 Co237 2.121 . S
N240 C242 1.375 1_565 S
N240 C243 1.313 . S
C241 C242 1.338 . S
C241 N244 1.377 1_545 S
C241 H261 0.930 . S
C242 N240 1.375 1_545 S
C242 C241 1.338 . S
C242 H246 0.931 . S
C243 N240 1.313 . S
C243 N244 1.344 . S
C243 H247 0.930 . S
N244 C241 1.377 1_565 S
N244 C243 1.344 . S
O245 Co237 2.055 . S
O245 C249 1.253 . S
H246 C242 0.931 . S
H247 C243 0.930 . S
O248 Co237 2.039 . S
O248 C238 1.265 1_565 S
C249 O245 1.253 . S
C249 O250 1.227 . S
O250 C249 1.227 . S
N251 Co237 2.140 1_545 S
N251 C254 1.346 . S
N251 C255 1.345 . S
C252 C253 1.387 . S
C252 C256 1.391 . S
C253 C252 1.387 . S
C253 C254 1.369 . S
C253 H262 0.929 . S
C254 N251 1.346 . S
C254 C253 1.369 . S
C254 H257 0.928 . S
C255 N251 1.345 . S
C255 C256 1.371 . S
C255 H258 0.931 . S
C256 C252 1.391 . S
C256 C255 1.371 . S
C256 H263 0.930 . S
H257 C254 0.928 . S
H258 C255 0.931 . S
H259 C235 0.930 . S
H260 C232 0.930 . S
H261 C241 0.930 . S
H262 C253 0.929 . S
H263 C256 0.930 . S
C264 C265 1.351 . S
C264 N267 1.368 . S
C264 H269 0.931 . S
C265 C264 1.351 . S
C265 N266 1.373 . S
C265 H293 0.930 . S
N266 C265 1.373 . S
N266 C268 1.340 . S
N267 C264 1.368 . S
N267 C268 1.321 . S
N267 Co270 2.135 . S
C268 N266 1.340 . S
C268 N267 1.321 . S
C268 H292 0.930 . S
H269 C264 0.931 . S
Co270 N267 2.135 . S
Co270 N273 2.121 . S
Co270 O278 2.055 . S
Co270 O281 2.039 . S
Co270 N284 2.140 . S
C271 O272 1.227 . S
C271 O281 1.265 . S
O272 C271 1.227 . S
N273 Co270 2.121 . S
N273 C275 1.375 . S
N273 C276 1.313 . S
C274 C275 1.338 1_554 S
C274 N277 1.377 . S
C274 H294 0.930 . S
C275 N273 1.375 . S
C275 C274 1.338 1_556 S
C275 H279 0.931 . S
C276 N273 1.313 . S
C276 N277 1.344 1_556 S
C276 H280 0.930 . S
N277 C274 1.377 . S
N277 C276 1.344 1_554 S
O278 Co270 2.055 . S
O278 C282 1.253 . S
H279 C275 0.931 . S
H280 C276 0.930 . S
O281 Co270 2.039 . S
O281 C271 1.265 . S
C282 O278 1.253 . S
C282 O283 1.227 . S
O283 C282 1.227 . S
N284 Co270 2.140 . S
N284 C287 1.346 . S
N284 C288 1.345 . S
C285 C286 1.387 . S
C285 C289 1.391 . S
C286 C285 1.387 . S
C286 C287 1.369 . S
C286 H295 0.929 . S
C287 N284 1.346 . S
C287 C286 1.369 . S
C287 H290 0.928 . S
C288 N284 1.345 . S
C288 C289 1.371 . S
C288 H291 0.931 . S
C289 C285 1.391 . S
C289 C288 1.371 . S
C289 H296 0.930 . S
H290 C287 0.928 . S
H291 C288 0.931 . S
H292 C268 0.930 . S
H293 C265 0.930 . S
H294 C274 0.930 . S
H295 C286 0.929 . S
H296 C289 0.930 . S
C297 C298 1.351 . S
C297 N300 1.368 . S
C297 H302 0.931 . S
C298 C297 1.351 . S
C298 N299 1.373 . S
C298 H326 0.930 . S
N299 C298 1.373 . S
N299 C301 1.340 . S
N300 C297 1.368 . S
N300 C301 1.321 . S
N300 Co303 2.135 . S
C301 N299 1.340 . S
C301 N300 1.321 . S
C301 H325 0.930 . S
H302 C297 0.931 . S
Co303 N300 2.135 . S
Co303 N306 2.121 . S
Co303 O311 2.055 . S
Co303 O314 2.039 . S
Co303 N317 2.140 1_565 S
C304 O305 1.227 . S
C304 O314 1.265 1_545 S
O305 C304 1.227 . S
N306 Co303 2.121 . S
N306 C308 1.375 1_565 S
N306 C309 1.313 . S
C307 C308 1.338 . S
C307 N310 1.377 1_545 S
C307 H327 0.930 . S
C308 N306 1.375 1_545 S
C308 C307 1.338 . S
C308 H312 0.931 . S
C309 N306 1.313 . S
C309 N310 1.344 . S
C309 H313 0.930 . S
N310 C307 1.377 1_565 S
N310 C309 1.344 . S
O311 Co303 2.055 . S
O311 C315 1.253 . S
H312 C308 0.931 . S
H313 C309 0.930 . S
O314 Co303 2.039 . S
O314 C304 1.265 1_565 S
C315 O311 1.253 . S
C315 O316 1.227 . S
O316 C315 1.227 . S
N317 Co303 2.140 1_545 S
N317 C320 1.346 . S
N317 C321 1.345 . S
C318 C319 1.387 . S
C318 C322 1.391 . S
C319 C318 1.387 . S
C319 C320 1.369 . S
C319 H328 0.929 . S
C320 N317 1.346 . S
C320 C319 1.369 . S
C320 H323 0.928 . S
C321 N317 1.345 . S
C321 C322 1.371 . S
C321 H324 0.931 . S
C322 C318 1.391 . S
C322 C321 1.371 . S
C322 H329 0.930 . S
H323 C320 0.928 . S
H324 C321 0.931 . S
H325 C301 0.930 . S
H326 C298 0.930 . S
H327 C307 0.930 . S
H328 C319 0.929 . S
H329 C322 0.930 . S
C330 C331 1.351 . S
C330 N333 1.368 . S
C330 H335 0.931 . S
C331 C330 1.351 . S
C331 N332 1.373 . S
C331 H359 0.930 . S
N332 C331 1.373 . S
N332 C334 1.340 . S
N333 C330 1.368 . S
N333 C334 1.321 . S
N333 Co336 2.135 . S
C334 N332 1.340 . S
C334 N333 1.321 . S
C334 H358 0.930 . S
H335 C330 0.931 . S
Co336 N333 2.135 . S
Co336 N339 2.121 . S
Co336 O344 2.055 . S
Co336 O347 2.039 . S
Co336 N350 2.140 . S
C337 O338 1.227 . S
C337 O347 1.265 . S
O338 C337 1.227 . S
N339 Co336 2.121 . S
N339 C341 1.375 . S
N339 C342 1.313 . S
C340 C341 1.338 . S
C340 N343 1.377 . S
C340 H360 0.930 . S
C341 N339 1.375 . S
C341 C340 1.338 . S
C341 H345 0.931 . S
C342 N339 1.313 . S
C342 N343 1.344 . S
C342 H346 0.930 . S
N343 C340 1.377 . S
N343 C342 1.344 . S
O344 Co336 2.055 . S
O344 C348 1.253 . S
H345 C341 0.931 . S
H346 C342 0.930 . S
O347 Co336 2.039 . S
O347 C337 1.265 . S
C348 O344 1.253 . S
C348 O349 1.227 . S
O349 C348 1.227 . S
N350 Co336 2.140 . S
N350 C353 1.346 . S
N350 C354 1.345 . S
C351 C352 1.387 . S
C351 C355 1.391 . S
C352 C351 1.387 . S
C352 C353 1.369 . S
C352 H361 0.929 . S
C353 N350 1.346 . S
C353 C352 1.369 . S
C353 H356 0.928 . S
C354 N350 1.345 . S
C354 C355 1.371 . S
C354 H357 0.931 . S
C355 C351 1.391 . S
C355 C354 1.371 . S
C355 H362 0.930 . S
H356 C353 0.928 . S
H357 C354 0.931 . S
H358 C334 0.930 . S
H359 C331 0.930 . S
H360 C340 0.930 . S
H361 C352 0.929 . S
H362 C355 0.930 . S
C363 C364 1.351 . S
C363 N366 1.368 . S
C363 H368 0.931 . S
C364 C363 1.351 . S
C364 N365 1.373 . S
C364 H392 0.930 . S
N365 C364 1.373 . S
N365 C367 1.340 . S
N366 C363 1.368 . S
N366 C367 1.321 . S
N366 Co369 2.135 . S
C367 N365 1.340 . S
C367 N366 1.321 . S
C367 H391 0.930 . S
H368 C363 0.931 . S
Co369 N366 2.135 . S
Co369 N372 2.121 . S
Co369 O377 2.055 . S
Co369 O380 2.039 . S
Co369 N383 2.140 1_545 S
C370 O371 1.227 . S
C370 O380 1.265 1_565 S
O371 C370 1.227 . S
N372 Co369 2.121 . S
N372 C374 1.375 1_545 S
N372 C375 1.313 . S
C373 C374 1.338 . S
C373 N376 1.377 1_565 S
C373 H393 0.930 . S
C374 N372 1.375 1_565 S
C374 C373 1.338 . S
C374 H378 0.931 . S
C375 N372 1.313 . S
C375 N376 1.344 . S
C375 H379 0.930 . S
N376 C373 1.377 1_545 S
N376 C375 1.344 . S
O377 Co369 2.055 . S
O377 C381 1.253 . S
H378 C374 0.931 . S
H379 C375 0.930 . S
O380 Co369 2.039 . S
O380 C370 1.265 1_545 S
C381 O377 1.253 . S
C381 O382 1.227 . S
O382 C381 1.227 . S
N383 Co369 2.140 1_565 S
N383 C386 1.346 . S
N383 C387 1.345 . S
C384 C385 1.387 . S
C384 C388 1.391 . S
C385 C384 1.387 . S
C385 C386 1.369 . S
C385 H394 0.929 . S
C386 N383 1.346 . S
C386 C385 1.369 . S
C386 H389 0.928 . S
C387 N383 1.345 . S
C387 C388 1.371 . S
C387 H390 0.931 . S
C388 C384 1.391 . S
C388 C387 1.371 . S
C388 H395 0.930 . S
H389 C386 0.928 . S
H390 C387 0.931 . S
H391 C367 0.930 . S
H392 C364 0.930 . S
H393 C373 0.930 . S
H394 C385 0.929 . S
H395 C388 0.930 . S
C396 C397 1.351 . S
C396 N399 1.368 . S
C396 H401 0.931 . S
C397 C396 1.351 . S
C397 N398 1.373 . S
C397 H425 0.930 . S
N398 C397 1.373 . S
N398 C400 1.340 . S
N399 C396 1.368 . S
N399 C400 1.321 . S
N399 Co402 2.135 . S
C400 N398 1.340 . S
C400 N399 1.321 . S
C400 H424 0.930 . S
H401 C396 0.931 . S
Co402 N399 2.135 . S
Co402 N405 2.121 . S
Co402 O410 2.055 . S
Co402 O413 2.039 . S
Co402 N416 2.140 . S
C403 O404 1.227 . S
C403 O413 1.265 . S
O404 C403 1.227 . S
N405 Co402 2.121 . S
N405 C407 1.375 . S
N405 C408 1.313 . S
C406 C407 1.338 1_556 S
C406 N409 1.377 . S
C406 H426 0.930 . S
C407 N405 1.375 . S
C407 C406 1.338 1_554 S
C407 H411 0.931 . S
C408 N405 1.313 . S
C408 N409 1.344 1_554 S
C408 H412 0.930 . S
N409 C406 1.377 . S
N409 C408 1.344 1_556 S
O410 Co402 2.055 . S
O410 C414 1.253 . S
H411 C407 0.931 . S
H412 C408 0.930 . S
O413 Co402 2.039 . S
O413 C403 1.265 . S
C414 O410 1.253 . S
C414 O415 1.227 . S
O415 C414 1.227 . S
N416 Co402 2.140 . S
N416 C419 1.346 . S
N416 C420 1.345 . S
C417 C418 1.387 . S
C417 C421 1.391 . S
C418 C417 1.387 . S
C418 C419 1.369 . S
C418 H427 0.929 . S
C419 N416 1.346 . S
C419 C418 1.369 . S
C419 H422 0.928 . S
C420 N416 1.345 . S
C420 C421 1.371 . S
C420 H423 0.931 . S
C421 C417 1.391 . S
C421 C420 1.371 . S
C421 H428 0.930 . S
H422 C419 0.928 . S
H423 C420 0.931 . S
H424 C400 0.930 . S
H425 C397 0.930 . S
H426 C406 0.930 . S
H427 C418 0.929 . S
H428 C421 0.930 . S
C429 C430 1.351 . S
C429 N432 1.368 . S
C429 H434 0.931 . S
C430 C429 1.351 . S
C430 N431 1.373 . S
C430 H458 0.930 . S
N431 C430 1.373 . S
N431 C433 1.340 . S
N432 C429 1.368 . S
N432 C433 1.321 . S
N432 Co435 2.135 . S
C433 N431 1.340 . S
C433 N432 1.321 . S
C433 H457 0.930 . S
H434 C429 0.931 . S
Co435 N432 2.135 . S
Co435 N438 2.121 . S
Co435 O443 2.055 . S
Co435 O446 2.039 . S
Co435 N449 2.140 1_565 S
C436 O437 1.227 . S
C436 O446 1.265 1_545 S
O437 C436 1.227 . S
N438 Co435 2.121 . S
N438 C440 1.375 1_565 S
N438 C441 1.313 . S
C439 C440 1.338 . S
C439 N442 1.377 1_545 S
C439 H459 0.930 . S
C440 N438 1.375 1_545 S
C440 C439 1.338 . S
C440 H444 0.931 . S
C441 N438 1.313 . S
C441 N442 1.344 . S
C441 H445 0.930 . S
N442 C439 1.377 1_565 S
N442 C441 1.344 . S
O443 Co435 2.055 . S
O443 C447 1.253 . S
H444 C440 0.931 . S
H445 C441 0.930 . S
O446 Co435 2.039 . S
O446 C436 1.265 1_565 S
C447 O443 1.253 . S
C447 O448 1.227 . S
O448 C447 1.227 . S
N449 Co435 2.140 1_545 S
N449 C452 1.346 . S
N449 C453 1.345 . S
C450 C451 1.387 . S
C450 C454 1.391 . S
C451 C450 1.387 . S
C451 C452 1.369 . S
C451 H460 0.929 . S
C452 N449 1.346 . S
C452 C451 1.369 . S
C452 H455 0.928 . S
C453 N449 1.345 . S
C453 C454 1.371 . S
C453 H456 0.931 . S
C454 C450 1.391 . S
C454 C453 1.371 . S
C454 H461 0.930 . S
H455 C452 0.928 . S
H456 C453 0.931 . S
H457 C433 0.930 . S
H458 C430 0.930 . S
H459 C439 0.930 . S
H460 C451 0.929 . S
H461 C454 0.930 . S
C462 C463 1.351 . S
C462 N465 1.368 . S
C462 H467 0.931 . S
C463 C462 1.351 . S
C463 N464 1.373 . S
C463 H491 0.930 . S
N464 C463 1.373 . S
N464 C466 1.340 . S
N465 C462 1.368 . S
N465 C466 1.321 . S
N465 Co468 2.135 . S
C466 N464 1.340 . S
C466 N465 1.321 . S
C466 H490 0.930 . S
H467 C462 0.931 . S
Co468 N465 2.135 . S
Co468 N471 2.121 . S
Co468 O476 2.055 . S
Co468 O479 2.039 . S
Co468 N482 2.140 . S
C469 O470 1.227 . S
C469 O479 1.265 . S
O470 C469 1.227 . S
N471 Co468 2.121 . S
N471 C473 1.375 . S
N471 C474 1.313 . S
C472 C473 1.338 . S
C472 N475 1.377 . S
C472 H492 0.930 . S
C473 N471 1.375 . S
C473 C472 1.338 . S
C473 H477 0.931 . S
C474 N471 1.313 . S
C474 N475 1.344 . S
C474 H478 0.930 . S
N475 C472 1.377 . S
N475 C474 1.344 . S
O476 Co468 2.055 . S
O476 C480 1.253 . S
H477 C473 0.931 . S
H478 C474 0.930 . S
O479 Co468 2.039 . S
O479 C469 1.265 . S
C480 O476 1.253 . S
C480 O481 1.227 . S
O481 C480 1.227 . S
N482 Co468 2.140 . S
N482 C485 1.346 . S
N482 C486 1.345 . S
C483 C484 1.387 . S
C483 C487 1.391 . S
C484 C483 1.387 . S
C484 C485 1.369 . S
C484 H493 0.929 . S
C485 N482 1.346 . S
C485 C484 1.369 . S
C485 H488 0.928 . S
C486 N482 1.345 . S
C486 C487 1.371 . S
C486 H489 0.931 . S
C487 C483 1.391 . S
C487 C486 1.371 . S
C487 H494 0.930 . S
H488 C485 0.928 . S
H489 C486 0.931 . S
H490 C466 0.930 . S
H491 C463 0.930 . S
H492 C472 0.930 . S
H493 C484 0.929 . S
H494 C487 0.930 . S
C495 C496 1.351 . S
C495 N498 1.368 . S
C495 H500 0.931 . S
C496 C495 1.351 . S
C496 N497 1.373 . S
C496 H524 0.930 . S
N497 C496 1.373 . S
N497 C499 1.340 . S
N498 C495 1.368 . S
N498 C499 1.321 . S
N498 Co501 2.135 . S
C499 N497 1.340 . S
C499 N498 1.321 . S
C499 H523 0.930 . S
H500 C495 0.931 . S
Co501 N498 2.135 . S
Co501 N504 2.121 . S
Co501 O509 2.055 . S
Co501 O512 2.039 . S
Co501 N515 2.140 1_545 S
C502 O503 1.227 . S
C502 O512 1.265 1_565 S
O503 C502 1.227 . S
N504 Co501 2.121 . S
N504 C506 1.375 1_545 S
N504 C507 1.313 . S
C505 C506 1.338 . S
C505 N508 1.377 1_565 S
C505 H525 0.930 . S
C506 N504 1.375 1_565 S
C506 C505 1.338 . S
C506 H510 0.931 . S
C507 N504 1.313 . S
C507 N508 1.344 . S
C507 H511 0.930 . S
N508 C505 1.377 1_545 S
N508 C507 1.344 . S
O509 Co501 2.055 . S
O509 C513 1.253 . S
H510 C506 0.931 . S
H511 C507 0.930 . S
O512 Co501 2.039 . S
O512 C502 1.265 1_545 S
C513 O509 1.253 . S
C513 O514 1.227 . S
O514 C513 1.227 . S
N515 Co501 2.140 1_565 S
N515 C518 1.346 . S
N515 C519 1.345 . S
C516 C517 1.387 . S
C516 C520 1.391 . S
C517 C516 1.387 . S
C517 C518 1.369 . S
C517 H526 0.929 . S
C518 N515 1.346 . S
C518 C517 1.369 . S
C518 H521 0.928 . S
C519 N515 1.345 . S
C519 C520 1.371 . S
C519 H522 0.931 . S
C520 C516 1.391 . S
C520 C519 1.371 . S
C520 H527 0.930 . S
H521 C518 0.928 . S
H522 C519 0.931 . S
H523 C499 0.930 . S
H524 C496 0.930 . S
H525 C505 0.930 . S
H526 C517 0.929 . S
H527 C520 0.930 . S
C528 C529 1.351 . S
C528 N531 1.368 . S
C528 H533 0.931 . S
C529 C528 1.351 . S
C529 N530 1.373 . S
C529 H557 0.930 . S
N530 C529 1.373 . S
N530 C532 1.340 . S
N531 C528 1.368 . S
N531 C532 1.321 . S
N531 Co534 2.135 . S
C532 N530 1.340 . S
C532 N531 1.321 . S
C532 H556 0.930 . S
H533 C528 0.931 . S
Co534 N531 2.135 . S
Co534 N537 2.121 . S
Co534 O542 2.055 . S
Co534 O545 2.039 . S
Co534 N548 2.140 . S
C535 O536 1.227 . S
C535 O545 1.265 . S
O536 C535 1.227 . S
N537 Co534 2.121 . S
N537 C539 1.375 . S
N537 C540 1.313 . S
C538 C539 1.338 . S
C538 N541 1.377 . S
C538 H558 0.930 . S
C539 N537 1.375 . S
C539 C538 1.338 . S
C539 H543 0.931 . S
C540 N537 1.313 . S
C540 N541 1.344 . S
C540 H544 0.930 . S
N541 C538 1.377 . S
N541 C540 1.344 . S
O542 Co534 2.055 . S
O542 C546 1.253 . S
H543 C539 0.931 . S
H544 C540 0.930 . S
O545 Co534 2.039 . S
O545 C535 1.265 . S
C546 O542 1.253 . S
C546 O547 1.227 . S
O547 C546 1.227 . S
N548 Co534 2.140 . S
N548 C551 1.346 . S
N548 C552 1.345 . S
C549 C550 1.387 . S
C549 C553 1.391 . S
C550 C549 1.387 . S
C550 C551 1.369 . S
C550 H559 0.929 . S
C551 N548 1.346 . S
C551 C550 1.369 . S
C551 H554 0.928 . S
C552 N548 1.345 . S
C552 C553 1.371 . S
C552 H555 0.931 . S
C553 C549 1.391 . S
C553 C552 1.371 . S
C553 H560 0.930 . S
H554 C551 0.928 . S
H555 C552 0.931 . S
H556 C532 0.930 . S
H557 C529 0.930 . S
H558 C538 0.930 . S
H559 C550 0.929 . S
H560 C553 0.930 . S
C561 C562 1.351 . S
C561 N564 1.368 . S
C561 H566 0.931 . S
C562 C561 1.351 . S
C562 N563 1.373 . S
C562 H590 0.930 . S
N563 C562 1.373 . S
N563 C565 1.340 . S
N564 C561 1.368 . S
N564 C565 1.321 . S
N564 Co567 2.135 . S
C565 N563 1.340 . S
C565 N564 1.321 . S
C565 H589 0.930 . S
H566 C561 0.931 . S
Co567 N564 2.135 . S
Co567 N570 2.121 . S
Co567 O575 2.055 . S
Co567 O578 2.039 . S
Co567 N581 2.140 . S
C568 O569 1.227 . S
C568 O578 1.265 . S
O569 C568 1.227 . S
N570 Co567 2.121 . S
N570 C572 1.375 . S
N570 C573 1.313 . S
C571 C572 1.338 . S
C571 N574 1.377 . S
C571 H591 0.930 . S
C572 N570 1.375 . S
C572 C571 1.338 . S
C572 H576 0.931 . S
C573 N570 1.313 . S
C573 N574 1.344 . S
C573 H577 0.930 . S
N574 C571 1.377 . S
N574 C573 1.344 . S
O575 Co567 2.055 . S
O575 C579 1.253 . S
H576 C572 0.931 . S
H577 C573 0.930 . S
O578 Co567 2.039 . S
O578 C568 1.265 . S
C579 O575 1.253 . S
C579 O580 1.227 . S
O580 C579 1.227 . S
N581 Co567 2.140 . S
N581 C584 1.346 . S
N581 C585 1.345 . S
C582 C583 1.387 . S
C582 C586 1.391 . S
C583 C582 1.387 . S
C583 C584 1.369 . S
C583 H592 0.929 . S
C584 N581 1.346 . S
C584 C583 1.369 . S
C584 H587 0.928 . S
C585 N581 1.345 . S
C585 C586 1.371 . S
C585 H588 0.931 . S
C586 C582 1.391 . S
C586 C585 1.371 . S
C586 H593 0.930 . S
H587 C584 0.928 . S
H588 C585 0.931 . S
H589 C565 0.930 . S
H590 C562 0.930 . S
H591 C571 0.930 . S
H592 C583 0.929 . S
H593 C586 0.930 . S
C594 C595 1.351 . S
C594 N597 1.368 . S
C594 H599 0.931 . S
C595 C594 1.351 . S
C595 N596 1.373 . S
C595 H623 0.930 . S
N596 C595 1.373 . S
N596 C598 1.340 . S
N597 C594 1.368 . S
N597 C598 1.321 . S
N597 Co600 2.135 . S
C598 N596 1.340 . S
C598 N597 1.321 . S
C598 H622 0.930 . S
H599 C594 0.931 . S
Co600 N597 2.135 . S
Co600 N603 2.121 . S
Co600 O608 2.055 . S
Co600 O611 2.039 . S
Co600 N614 2.140 . S
C601 O602 1.227 . S
C601 O611 1.265 . S
O602 C601 1.227 . S
N603 Co600 2.121 . S
N603 C605 1.375 . S
N603 C606 1.313 . S
C604 C605 1.338 1_556 S
C604 N607 1.377 . S
C604 H624 0.930 . S
C605 N603 1.375 . S
C605 C604 1.338 1_554 S
C605 H609 0.931 . S
C606 N603 1.313 . S
C606 N607 1.344 1_554 S
C606 H610 0.930 . S
N607 C604 1.377 . S
N607 C606 1.344 1_556 S
O608 Co600 2.055 . S
O608 C612 1.253 . S
H609 C605 0.931 . S
H610 C606 0.930 . S
O611 Co600 2.039 . S
O611 C601 1.265 . S
C612 O608 1.253 . S
C612 O613 1.227 . S
O613 C612 1.227 . S
N614 Co600 2.140 . S
N614 C617 1.346 . S
N614 C618 1.345 . S
C615 C616 1.387 . S
C615 C619 1.391 . S
C616 C615 1.387 . S
C616 C617 1.369 . S
C616 H625 0.929 . S
C617 N614 1.346 . S
C617 C616 1.369 . S
C617 H620 0.928 . S
C618 N614 1.345 . S
C618 C619 1.371 . S
C618 H621 0.931 . S
C619 C615 1.391 . S
C619 C618 1.371 . S
C619 H626 0.930 . S
H620 C617 0.928 . S
H621 C618 0.931 . S
H622 C598 0.930 . S
H623 C595 0.930 . S
H624 C604 0.930 . S
H625 C616 0.929 . S
H626 C619 0.930 . S
C627 C628 1.351 . S
C627 N630 1.368 . S
C627 H632 0.931 . S
C628 C627 1.351 . S
C628 N629 1.373 . S
C628 H656 0.930 . S
N629 C628 1.373 . S
N629 C631 1.340 . S
N630 C627 1.368 . S
N630 C631 1.321 . S
N630 Co633 2.135 . S
C631 N629 1.340 . S
C631 N630 1.321 . S
C631 H655 0.930 . S
H632 C627 0.931 . S
Co633 N630 2.135 . S
Co633 N636 2.121 . S
Co633 O641 2.055 . S
Co633 O644 2.039 . S
Co633 N647 2.140 . S
C634 O635 1.227 . S
C634 O644 1.265 . S
O635 C634 1.227 . S
N636 Co633 2.121 . S
N636 C638 1.375 . S
N636 C639 1.313 . S
C637 C638 1.338 . S
C637 N640 1.377 . S
C637 H657 0.930 . S
C638 N636 1.375 . S
C638 C637 1.338 . S
C638 H642 0.931 . S
C639 N636 1.313 . S
C639 N640 1.344 . S
C639 H643 0.930 . S
N640 C637 1.377 . S
N640 C639 1.344 . S
O641 Co633 2.055 . S
O641 C645 1.253 . S
H642 C638 0.931 . S
H643 C639 0.930 . S
O644 Co633 2.039 . S
O644 C634 1.265 . S
C645 O641 1.253 . S
C645 O646 1.227 . S
O646 C645 1.227 . S
N647 Co633 2.140 . S
N647 C650 1.346 . S
N647 C651 1.345 . S
C648 C649 1.387 . S
C648 C652 1.391 . S
C649 C648 1.387 . S
C649 C650 1.369 . S
C649 H658 0.929 . S
C650 N647 1.346 . S
C650 C649 1.369 . S
C650 H653 0.928 . S
C651 N647 1.345 . S
C651 C652 1.371 . S
C651 H654 0.931 . S
C652 C648 1.391 . S
C652 C651 1.371 . S
C652 H659 0.930 . S
H653 C650 0.928 . S
H654 C651 0.931 . S
H655 C631 0.930 . S
H656 C628 0.930 . S
H657 C637 0.930 . S
H658 C649 0.929 . S
H659 C652 0.930 . S
C660 C661 1.351 . S
C660 N663 1.368 . S
C660 H665 0.931 . S
C661 C660 1.351 . S
C661 N662 1.373 . S
C661 H689 0.930 . S
N662 C661 1.373 . S
N662 C664 1.340 . S
N663 C660 1.368 . S
N663 C664 1.321 . S
N663 Co666 2.135 . S
C664 N662 1.340 . S
C664 N663 1.321 . S
C664 H688 0.930 . S
H665 C660 0.931 . S
Co666 N663 2.135 . S
Co666 N669 2.121 . S
Co666 O674 2.055 . S
Co666 O677 2.039 . S
Co666 N680 2.140 . S
C667 O668 1.227 . S
C667 O677 1.265 . S
O668 C667 1.227 . S
N669 Co666 2.121 . S
N669 C671 1.375 . S
N669 C672 1.313 . S
C670 C671 1.338 . S
C670 N673 1.377 . S
C670 H690 0.930 . S
C671 N669 1.375 . S
C671 C670 1.338 . S
C671 H675 0.931 . S
C672 N669 1.313 . S
C672 N673 1.344 . S
C672 H676 0.930 . S
N673 C670 1.377 . S
N673 C672 1.344 . S
O674 Co666 2.055 . S
O674 C678 1.253 . S
H675 C671 0.931 . S
H676 C672 0.930 . S
O677 Co666 2.039 . S
O677 C667 1.265 . S
C678 O674 1.253 . S
C678 O679 1.227 . S
O679 C678 1.227 . S
N680 Co666 2.140 . S
N680 C683 1.346 . S
N680 C684 1.345 . S
C681 C682 1.387 . S
C681 C685 1.391 . S
C682 C681 1.387 . S
C682 C683 1.369 . S
C682 H691 0.929 . S
C683 N680 1.346 . S
C683 C682 1.369 . S
C683 H686 0.928 . S
C684 N680 1.345 . S
C684 C685 1.371 . S
C684 H687 0.931 . S
C685 C681 1.391 . S
C685 C684 1.371 . S
C685 H692 0.930 . S
H686 C683 0.928 . S
H687 C684 0.931 . S
H688 C664 0.930 . S
H689 C661 0.930 . S
H690 C670 0.930 . S
H691 C682 0.929 . S
H692 C685 0.930 . S
C693 C694 1.351 . S
C693 N696 1.368 . S
C693 H698 0.931 . S
C694 C693 1.351 . S
C694 N695 1.373 . S
C694 H722 0.930 . S
N695 C694 1.373 . S
N695 C697 1.340 . S
N696 C693 1.368 . S
N696 C697 1.321 . S
N696 Co699 2.135 . S
C697 N695 1.340 . S
C697 N696 1.321 . S
C697 H721 0.930 . S
H698 C693 0.931 . S
Co699 N696 2.135 . S
Co699 N702 2.121 . S
Co699 O707 2.055 . S
Co699 O710 2.039 . S
Co699 N713 2.140 . S
C700 O701 1.227 . S
C700 O710 1.265 . S
O701 C700 1.227 . S
N702 Co699 2.121 . S
N702 C704 1.375 . S
N702 C705 1.313 . S
C703 C704 1.338 . S
C703 N706 1.377 . S
C703 H723 0.930 . S
C704 N702 1.375 . S
C704 C703 1.338 . S
C704 H708 0.931 . S
C705 N702 1.313 . S
C705 N706 1.344 . S
C705 H709 0.930 . S
N706 C703 1.377 . S
N706 C705 1.344 . S
O707 Co699 2.055 . S
O707 C711 1.253 . S
H708 C704 0.931 . S
H709 C705 0.930 . S
O710 Co699 2.039 . S
O710 C700 1.265 . S
C711 O707 1.253 . S
C711 O712 1.227 . S
O712 C711 1.227 . S
N713 Co699 2.140 . S
N713 C716 1.346 . S
N713 C717 1.345 . S
C714 C715 1.387 . S
C714 C718 1.391 . S
C715 C714 1.387 . S
C715 C716 1.369 . S
C715 H724 0.929 . S
C716 N713 1.346 . S
C716 C715 1.369 . S
C716 H719 0.928 . S
C717 N713 1.345 . S
C717 C718 1.371 . S
C717 H720 0.931 . S
C718 C714 1.391 . S
C718 C717 1.371 . S
C718 H725 0.930 . S
H719 C716 0.928 . S
H720 C717 0.931 . S
H721 C697 0.930 . S
H722 C694 0.930 . S
H723 C703 0.930 . S
H724 C715 0.929 . S
H725 C718 0.930 . S
C726 C727 1.351 . S
C726 N729 1.368 . S
C726 H731 0.931 . S
C727 C726 1.351 . S
C727 N728 1.373 . S
C727 H755 0.930 . S
N728 C727 1.373 . S
N728 C730 1.340 . S
N729 C726 1.368 . S
N729 C730 1.321 . S
N729 Co732 2.135 . S
C730 N728 1.340 . S
C730 N729 1.321 . S
C730 H754 0.930 . S
H731 C726 0.931 . S
Co732 N729 2.135 . S
Co732 N735 2.121 . S
Co732 O740 2.055 . S
Co732 O743 2.039 . S
Co732 N746 2.140 . S
C733 O734 1.227 . S
C733 O743 1.265 . S
O734 C733 1.227 . S
N735 Co732 2.121 . S
N735 C737 1.375 . S
N735 C738 1.313 . S
C736 C737 1.338 1_554 S
C736 N739 1.377 . S
C736 H756 0.930 . S
C737 N735 1.375 . S
C737 C736 1.338 1_556 S
C737 H741 0.931 . S
C738 N735 1.313 . S
C738 N739 1.344 1_556 S
C738 H742 0.930 . S
N739 C736 1.377 . S
N739 C738 1.344 1_554 S
O740 Co732 2.055 . S
O740 C744 1.253 . S
H741 C737 0.931 . S
H742 C738 0.930 . S
O743 Co732 2.039 . S
O743 C733 1.265 . S
C744 O740 1.253 . S
C744 O745 1.227 . S
O745 C744 1.227 . S
N746 Co732 2.140 . S
N746 C749 1.346 . S
N746 C750 1.345 . S
C747 C748 1.387 . S
C747 C751 1.391 . S
C748 C747 1.387 . S
C748 C749 1.369 . S
C748 H757 0.929 . S
C749 N746 1.346 . S
C749 C748 1.369 . S
C749 H752 0.928 . S
C750 N746 1.345 . S
C750 C751 1.371 . S
C750 H753 0.931 . S
C751 C747 1.391 . S
C751 C750 1.371 . S
C751 H758 0.930 . S
H752 C749 0.928 . S
H753 C750 0.931 . S
H754 C730 0.930 . S
H755 C727 0.930 . S
H756 C736 0.930 . S
H757 C748 0.929 . S
H758 C751 0.930 . S
C759 C760 1.351 . S
C759 N762 1.368 . S
C759 H764 0.931 . S
C760 C759 1.351 . S
C760 N761 1.373 . S
C760 H788 0.930 . S
N761 C760 1.373 . S
N761 C763 1.340 . S
N762 C759 1.368 . S
N762 C763 1.321 . S
N762 Co765 2.135 . S
C763 N761 1.340 . S
C763 N762 1.321 . S
C763 H787 0.930 . S
H764 C759 0.931 . S
Co765 N762 2.135 . S
Co765 N768 2.121 . S
Co765 O773 2.055 . S
Co765 O776 2.039 . S
Co765 N779 2.140 . S
C766 O767 1.227 . S
C766 O776 1.265 . S
O767 C766 1.227 . S
N768 Co765 2.121 . S
N768 C770 1.375 . S
N768 C771 1.313 . S
C769 C770 1.338 . S
C769 N772 1.377 . S
C769 H789 0.930 . S
C770 N768 1.375 . S
C770 C769 1.338 . S
C770 H774 0.931 . S
C771 N768 1.313 . S
C771 N772 1.344 . S
C771 H775 0.930 . S
N772 C769 1.377 . S
N772 C771 1.344 . S
O773 Co765 2.055 . S
O773 C777 1.253 . S
H774 C770 0.931 . S
H775 C771 0.930 . S
O776 Co765 2.039 . S
O776 C766 1.265 . S
C777 O773 1.253 . S
C777 O778 1.227 . S
O778 C777 1.227 . S
N779 Co765 2.140 . S
N779 C782 1.346 . S
N779 C783 1.345 . S
C780 C781 1.387 . S
C780 C784 1.391 . S
C781 C780 1.387 . S
C781 C782 1.369 . S
C781 H790 0.929 . S
C782 N779 1.346 . S
C782 C781 1.369 . S
C782 H785 0.928 . S
C783 N779 1.345 . S
C783 C784 1.371 . S
C783 H786 0.931 . S
C784 C780 1.391 . S
C784 C783 1.371 . S
C784 H791 0.930 . S
H785 C782 0.928 . S
H786 C783 0.931 . S
H787 C763 0.930 . S
H788 C760 0.930 . S
H789 C769 0.930 . S
H790 C781 0.929 . S
H791 C784 0.930 . S
C792 C793 1.351 . S
C792 N795 1.368 . S
C792 H797 0.931 . S
C793 C792 1.351 . S
C793 N794 1.373 . S
C793 H821 0.930 . S
N794 C793 1.373 . S
N794 C796 1.340 . S
N795 C792 1.368 . S
N795 C796 1.321 . S
N795 Co798 2.135 . S
C796 N794 1.340 . S
C796 N795 1.321 . S
C796 H820 0.930 . S
H797 C792 0.931 . S
Co798 N795 2.135 . S
Co798 N801 2.121 . S
Co798 O806 2.055 . S
Co798 O809 2.039 . S
Co798 N812 2.140 . S
C799 O800 1.227 . S
C799 O809 1.265 . S
O800 C799 1.227 . S
N801 Co798 2.121 . S
N801 C803 1.375 . S
N801 C804 1.313 . S
C802 C803 1.338 . S
C802 N805 1.377 . S
C802 H822 0.930 . S
C803 N801 1.375 . S
C803 C802 1.338 . S
C803 H807 0.931 . S
C804 N801 1.313 . S
C804 N805 1.344 . S
C804 H808 0.930 . S
N805 C802 1.377 . S
N805 C804 1.344 . S
O806 Co798 2.055 . S
O806 C810 1.253 . S
H807 C803 0.931 . S
H808 C804 0.930 . S
O809 Co798 2.039 . S
O809 C799 1.265 . S
C810 O806 1.253 . S
C810 O811 1.227 . S
O811 C810 1.227 . S
N812 Co798 2.140 . S
N812 C815 1.346 . S
N812 C816 1.345 . S
C813 C814 1.387 . S
C813 C817 1.391 . S
C814 C813 1.387 . S
C814 C815 1.369 . S
C814 H823 0.929 . S
C815 N812 1.346 . S
C815 C814 1.369 . S
C815 H818 0.928 . S
C816 N812 1.345 . S
C816 C817 1.371 . S
C816 H819 0.931 . S
C817 C813 1.391 . S
C817 C816 1.371 . S
C817 H824 0.930 . S
H818 C815 0.928 . S
H819 C816 0.931 . S
H820 C796 0.930 . S
H821 C793 0.930 . S
H822 C802 0.930 . S
H823 C814 0.929 . S
H824 C817 0.930 . S
C825 C826 1.351 . S
C825 N828 1.368 . S
C825 H830 0.931 . S
C826 C825 1.351 . S
C826 N827 1.373 . S
C826 H854 0.930 . S
N827 C826 1.373 . S
N827 C829 1.340 . S
N828 C825 1.368 . S
N828 C829 1.321 . S
N828 Co831 2.135 . S
C829 N827 1.340 . S
C829 N828 1.321 . S
C829 H853 0.930 . S
H830 C825 0.931 . S
Co831 N828 2.135 . S
Co831 N834 2.121 . S
Co831 O839 2.055 . S
Co831 O842 2.039 . S
Co831 N845 2.140 . S
C832 O833 1.227 . S
C832 O842 1.265 . S
O833 C832 1.227 . S
N834 Co831 2.121 . S
N834 C836 1.375 . S
N834 C837 1.313 . S
C835 C836 1.338 . S
C835 N838 1.377 . S
C835 H855 0.930 . S
C836 N834 1.375 . S
C836 C835 1.338 . S
C836 H840 0.931 . S
C837 N834 1.313 . S
C837 N838 1.344 . S
C837 H841 0.930 . S
N838 C835 1.377 . S
N838 C837 1.344 . S
O839 Co831 2.055 . S
O839 C843 1.253 . S
H840 C836 0.931 . S
H841 C837 0.930 . S
O842 Co831 2.039 . S
O842 C832 1.265 . S
C843 O839 1.253 . S
C843 O844 1.227 . S
O844 C843 1.227 . S
N845 Co831 2.140 . S
N845 C848 1.346 . S
N845 C849 1.345 . S
C846 C847 1.387 . S
C846 C850 1.391 . S
C847 C846 1.387 . S
C847 C848 1.369 . S
C847 H856 0.929 . S
C848 N845 1.346 . S
C848 C847 1.369 . S
C848 H851 0.928 . S
C849 N845 1.345 . S
C849 C850 1.371 . S
C849 H852 0.931 . S
C850 C846 1.391 . S
C850 C849 1.371 . S
C850 H857 0.930 . S
H851 C848 0.928 . S
H852 C849 0.931 . S
H853 C829 0.930 . S
H854 C826 0.930 . S
H855 C835 0.930 . S
H856 C847 0.929 . S
H857 C850 0.930 . S
C858 C859 1.351 . S
C858 N861 1.368 . S
C858 H863 0.931 . S
C859 C858 1.351 . S
C859 N860 1.373 . S
C859 H887 0.930 . S
N860 C859 1.373 . S
N860 C862 1.340 . S
N861 C858 1.368 . S
N861 C862 1.321 . S
N861 Co864 2.135 . S
C862 N860 1.340 . S
C862 N861 1.321 . S
C862 H886 0.930 . S
H863 C858 0.931 . S
Co864 N861 2.135 . S
Co864 N867 2.121 . S
Co864 O872 2.055 . S
Co864 O875 2.039 . S
Co864 N878 2.140 . S
C865 O866 1.227 . S
C865 O875 1.265 . S
O866 C865 1.227 . S
N867 Co864 2.121 . S
N867 C869 1.375 . S
N867 C870 1.313 . S
C868 C869 1.338 1_554 S
C868 N871 1.377 . S
C868 H888 0.930 . S
C869 N867 1.375 . S
C869 C868 1.338 1_556 S
C869 H873 0.931 . S
C870 N867 1.313 . S
C870 N871 1.344 1_556 S
C870 H874 0.930 . S
N871 C868 1.377 . S
N871 C870 1.344 1_554 S
O872 Co864 2.055 . S
O872 C876 1.253 . S
H873 C869 0.931 . S
H874 C870 0.930 . S
O875 Co864 2.039 . S
O875 C865 1.265 . S
C876 O872 1.253 . S
C876 O877 1.227 . S
O877 C876 1.227 . S
N878 Co864 2.140 . S
N878 C881 1.346 . S
N878 C882 1.345 . S
C879 C880 1.387 . S
C879 C883 1.391 . S
C880 C879 1.387 . S
C880 C881 1.369 . S
C880 H889 0.929 . S
C881 N878 1.346 . S
C881 C880 1.369 . S
C881 H884 0.928 . S
C882 N878 1.345 . S
C882 C883 1.371 . S
C882 H885 0.931 . S
C883 C879 1.391 . S
C883 C882 1.371 . S
C883 H890 0.930 . S
H884 C881 0.928 . S
H885 C882 0.931 . S
H886 C862 0.930 . S
H887 C859 0.930 . S
H888 C868 0.930 . S
H889 C880 0.929 . S
H890 C883 0.930 . S
C891 C892 1.351 . S
C891 N894 1.368 . S
C891 H896 0.931 . S
C892 C891 1.351 . S
C892 N893 1.373 . S
C892 H920 0.930 . S
N893 C892 1.373 . S
N893 C895 1.340 . S
N894 C891 1.368 . S
N894 C895 1.321 . S
N894 Co897 2.135 . S
C895 N893 1.340 . S
C895 N894 1.321 . S
C895 H919 0.930 . S
H896 C891 0.931 . S
Co897 N894 2.135 . S
Co897 N900 2.121 . S
Co897 O905 2.055 . S
Co897 O908 2.039 . S
Co897 N911 2.140 . S
C898 O899 1.227 . S
C898 O908 1.265 . S
O899 C898 1.227 . S
N900 Co897 2.121 . S
N900 C902 1.375 . S
N900 C903 1.313 . S
C901 C902 1.338 . S
C901 N904 1.377 . S
C901 H921 0.930 . S
C902 N900 1.375 . S
C902 C901 1.338 . S
C902 H906 0.931 . S
C903 N900 1.313 . S
C903 N904 1.344 . S
C903 H907 0.930 . S
N904 C901 1.377 . S
N904 C903 1.344 . S
O905 Co897 2.055 . S
O905 C909 1.253 . S
H906 C902 0.931 . S
H907 C903 0.930 . S
O908 Co897 2.039 . S
O908 C898 1.265 . S
C909 O905 1.253 . S
C909 O910 1.227 . S
O910 C909 1.227 . S
N911 Co897 2.140 . S
N911 C914 1.346 . S
N911 C915 1.345 . S
C912 C913 1.387 . S
C912 C916 1.391 . S
C913 C912 1.387 . S
C913 C914 1.369 . S
C913 H922 0.929 . S
C914 N911 1.346 . S
C914 C913 1.369 . S
C914 H917 0.928 . S
C915 N911 1.345 . S
C915 C916 1.371 . S
C915 H918 0.931 . S
C916 C912 1.391 . S
C916 C915 1.371 . S
C916 H923 0.930 . S
H917 C914 0.928 . S
H918 C915 0.931 . S
H919 C895 0.930 . S
H920 C892 0.930 . S
H921 C901 0.930 . S
H922 C913 0.929 . S
H923 C916 0.930 . S
C924 C925 1.351 . S
C924 N927 1.368 . S
C924 H929 0.931 . S
C925 C924 1.351 . S
C925 N926 1.373 . S
C925 H953 0.930 . S
N926 C925 1.373 . S
N926 C928 1.340 . S
N927 C924 1.368 . S
N927 C928 1.321 . S
N927 Co930 2.135 . S
C928 N926 1.340 . S
C928 N927 1.321 . S
C928 H952 0.930 . S
H929 C924 0.931 . S
Co930 N927 2.135 . S
Co930 N933 2.121 . S
Co930 O938 2.055 . S
Co930 O941 2.039 . S
Co930 N944 2.140 . S
C931 O932 1.227 . S
C931 O941 1.265 . S
O932 C931 1.227 . S
N933 Co930 2.121 . S
N933 C935 1.375 . S
N933 C936 1.313 . S
C934 C935 1.338 . S
C934 N937 1.377 . S
C934 H954 0.930 . S
C935 N933 1.375 . S
C935 C934 1.338 . S
C935 H939 0.931 . S
C936 N933 1.313 . S
C936 N937 1.344 . S
C936 H940 0.930 . S
N937 C934 1.377 . S
N937 C936 1.344 . S
O938 Co930 2.055 . S
O938 C942 1.253 . S
H939 C935 0.931 . S
H940 C936 0.930 . S
O941 Co930 2.039 . S
O941 C931 1.265 . S
C942 O938 1.253 . S
C942 O943 1.227 . S
O943 C942 1.227 . S
N944 Co930 2.140 . S
N944 C947 1.346 . S
N944 C948 1.345 . S
C945 C946 1.387 . S
C945 C949 1.391 . S
C946 C945 1.387 . S
C946 C947 1.369 . S
C946 H955 0.929 . S
C947 N944 1.346 . S
C947 C946 1.369 . S
C947 H950 0.928 . S
C948 N944 1.345 . S
C948 C949 1.371 . S
C948 H951 0.931 . S
C949 C945 1.391 . S
C949 C948 1.371 . S
C949 H956 0.930 . S
H950 C947 0.928 . S
H951 C948 0.931 . S
H952 C928 0.930 . S
H953 C925 0.930 . S
H954 C934 0.930 . S
H955 C946 0.929 . S
H956 C949 0.930 . S
C957 C958 1.351 . S
C957 N960 1.368 . S
C957 H962 0.931 . S
C958 C957 1.351 . S
C958 N959 1.373 . S
C958 H986 0.930 . S
N959 C958 1.373 . S
N959 C961 1.340 . S
N960 C957 1.368 . S
N960 C961 1.321 . S
N960 Co963 2.135 . S
C961 N959 1.340 . S
C961 N960 1.321 . S
C961 H985 0.930 . S
H962 C957 0.931 . S
Co963 N960 2.135 . S
Co963 N966 2.121 . S
Co963 O971 2.055 . S
Co963 O974 2.039 . S
Co963 N977 2.140 . S
C964 O965 1.227 . S
C964 O974 1.265 . S
O965 C964 1.227 . S
N966 Co963 2.121 . S
N966 C968 1.375 . S
N966 C969 1.313 . S
C967 C968 1.338 . S
C967 N970 1.377 . S
C967 H987 0.930 . S
C968 N966 1.375 . S
C968 C967 1.338 . S
C968 H972 0.931 . S
C969 N966 1.313 . S
C969 N970 1.344 . S
C969 H973 0.930 . S
N970 C967 1.377 . S
N970 C969 1.344 . S
O971 Co963 2.055 . S
O971 C975 1.253 . S
H972 C968 0.931 . S
H973 C969 0.930 . S
O974 Co963 2.039 . S
O974 C964 1.265 . S
C975 O971 1.253 . S
C975 O976 1.227 . S
O976 C975 1.227 . S
N977 Co963 2.140 . S
N977 C980 1.346 . S
N977 C981 1.345 . S
C978 C979 1.387 . S
C978 C982 1.391 . S
C979 C978 1.387 . S
C979 C980 1.369 . S
C979 H988 0.929 . S
C980 N977 1.346 . S
C980 C979 1.369 . S
C980 H983 0.928 . S
C981 N977 1.345 . S
C981 C982 1.371 . S
C981 H984 0.931 . S
C982 C978 1.391 . S
C982 C981 1.371 . S
C982 H989 0.930 . S
H983 C980 0.928 . S
H984 C981 0.931 . S
H985 C961 0.930 . S
H986 C958 0.930 . S
H987 C967 0.930 . S
H988 C979 0.929 . S
H989 C982 0.930 . S
C990 C991 1.351 . S
C990 N993 1.368 . S
C990 H995 0.931 . S
C991 C990 1.351 . S
C991 N992 1.373 . S
C991 H1019 0.930 . S
N992 C991 1.373 . S
N992 C994 1.340 . S
N993 C990 1.368 . S
N993 C994 1.321 . S
N993 Co996 2.135 . S
C994 N992 1.340 . S
C994 N993 1.321 . S
C994 H1018 0.930 . S
H995 C990 0.931 . S
Co996 N993 2.135 . S
Co996 N999 2.121 . S
Co996 O1004 2.055 . S
Co996 O1007 2.039 . S
Co996 N1010 2.140 . S
C997 O998 1.227 . S
C997 O1007 1.265 . S
O998 C997 1.227 . S
N999 Co996 2.121 . S
N999 C1001 1.375 . S
N999 C1002 1.313 . S
C1000 C1001 1.338 1_556 S
C1000 N1003 1.377 . S
C1000 H1020 0.930 . S
C1001 N999 1.375 . S
C1001 C1000 1.338 1_554 S
C1001 H1005 0.931 . S
C1002 N999 1.313 . S
C1002 N1003 1.344 1_554 S
C1002 H1006 0.930 . S
N1003 C1000 1.377 . S
N1003 C1002 1.344 1_556 S
O1004 Co996 2.055 . S
O1004 C1008 1.253 . S
H1005 C1001 0.931 . S
H1006 C1002 0.930 . S
O1007 Co996 2.039 . S
O1007 C997 1.265 . S
C1008 O1004 1.253 . S
C1008 O1009 1.227 . S
O1009 C1008 1.227 . S
N1010 Co996 2.140 . S
N1010 C1013 1.346 . S
N1010 C1014 1.345 . S
C1011 C1012 1.387 . S
C1011 C1015 1.391 . S
C1012 C1011 1.387 . S
C1012 C1013 1.369 . S
C1012 H1021 0.929 . S
C1013 N1010 1.346 . S
C1013 C1012 1.369 . S
C1013 H1016 0.928 . S
C1014 N1010 1.345 . S
C1014 C1015 1.371 . S
C1014 H1017 0.931 . S
C1015 C1011 1.391 . S
C1015 C1014 1.371 . S
C1015 H1022 0.930 . S
H1016 C1013 0.928 . S
H1017 C1014 0.931 . S
H1018 C994 0.930 . S
H1019 C991 0.930 . S
H1020 C1000 0.930 . S
H1021 C1012 0.929 . S
H1022 C1015 0.930 . S
C1023 C1024 1.351 . S
C1023 N1026 1.368 . S
C1023 H1028 0.931 . S
C1024 C1023 1.351 . S
C1024 N1025 1.373 . S
C1024 H1052 0.930 . S
N1025 C1024 1.373 . S
N1025 C1027 1.340 . S
N1026 C1023 1.368 . S
N1026 C1027 1.321 . S
N1026 Co1029 2.135 . S
C1027 N1025 1.340 . S
C1027 N1026 1.321 . S
C1027 H1051 0.930 . S
H1028 C1023 0.931 . S
Co1029 N1026 2.135 . S
Co1029 N1032 2.121 . S
Co1029 O1037 2.055 . S
Co1029 O1040 2.039 . S
Co1029 N1043 2.140 . S
C1030 O1031 1.227 . S
C1030 O1040 1.265 . S
O1031 C1030 1.227 . S
N1032 Co1029 2.121 . S
N1032 C1034 1.375 . S
N1032 C1035 1.313 . S
C1033 C1034 1.338 . S
C1033 N1036 1.377 . S
C1033 H1053 0.930 . S
C1034 N1032 1.375 . S
C1034 C1033 1.338 . S
C1034 H1038 0.931 . S
C1035 N1032 1.313 . S
C1035 N1036 1.344 . S
C1035 H1039 0.930 . S
N1036 C1033 1.377 . S
N1036 C1035 1.344 . S
O1037 Co1029 2.055 . S
O1037 C1041 1.253 . S
H1038 C1034 0.931 . S
H1039 C1035 0.930 . S
O1040 Co1029 2.039 . S
O1040 C1030 1.265 . S
C1041 O1037 1.253 . S
C1041 O1042 1.227 . S
O1042 C1041 1.227 . S
N1043 Co1029 2.140 . S
N1043 C1046 1.346 . S
N1043 C1047 1.345 . S
C1044 C1045 1.387 . S
C1044 C1048 1.391 . S
C1045 C1044 1.387 . S
C1045 C1046 1.369 . S
C1045 H1054 0.929 . S
C1046 N1043 1.346 . S
C1046 C1045 1.369 . S
C1046 H1049 0.928 . S
C1047 N1043 1.345 . S
C1047 C1048 1.371 . S
C1047 H1050 0.931 . S
C1048 C1044 1.391 . S
C1048 C1047 1.371 . S
C1048 H1055 0.930 . S
H1049 C1046 0.928 . S
H1050 C1047 0.931 . S
H1051 C1027 0.930 . S
H1052 C1024 0.930 . S
H1053 C1033 0.930 . S
H1054 C1045 0.929 . S
H1055 C1048 0.930 . S
H1056 C1064 0.950 . S
H1057 C1069 0.950 . S
H1058 C1066 0.950 . S
H1059 C1068 0.950 . S
H1060 C1070 0.950 . S
H1061 C1072 0.950 . S
H1062 C1074 0.950 . S
H1063 C1075 0.950 . S
C1064 H1056 0.950 . S
C1064 C1065 1.386 . S
C1064 C1066 1.391 . S
C1065 C1064 1.386 . S
C1065 C1069 1.393 . S
C1066 H1058 0.950 . S
C1066 C1064 1.391 . S
C1066 C1067 1.400 . S
C1067 C1066 1.400 . S
C1067 C1068 1.398 . S
C1067 C1073 1.491 . S
C1068 H1059 0.950 . S
C1068 C1067 1.398 . S
C1068 C1069 1.391 . S
C1069 H1057 0.950 . S
C1069 C1065 1.393 . S
C1069 C1068 1.391 . S
C1070 H1060 0.950 . S
C1070 C1071 1.386 . S
C1070 C1072 1.391 . S
C1071 C1070 1.386 . S
C1071 C1075 1.393 . S
C1072 H1061 0.950 . S
C1072 C1070 1.391 . S
C1072 C1073 1.400 . S
C1073 C1067 1.491 . S
C1073 C1072 1.400 . S
C1073 C1074 1.398 . S
C1074 H1062 0.950 . S
C1074 C1073 1.398 . S
C1074 C1075 1.391 . S
C1075 H1063 0.950 . S
C1075 C1071 1.393 . S
C1075 C1074 1.391 . S
H1076 C1084 0.950 . S
H1077 C1089 0.950 . S
H1078 C1086 0.950 . S
H1079 C1088 0.950 . S
H1080 C1090 0.950 . S
H1081 C1092 0.950 . S
H1082 C1094 0.950 . S
H1083 C1095 0.950 . S
C1084 H1076 0.950 . S
C1084 C1085 1.386 . S
C1084 C1086 1.391 . S
C1085 C1084 1.386 . S
C1085 C1089 1.393 . S
C1086 H1078 0.950 . S
C1086 C1084 1.391 . S
C1086 C1087 1.400 . S
C1087 C1086 1.400 . S
C1087 C1088 1.398 . S
C1087 C1093 1.491 . S
C1088 H1079 0.950 . S
C1088 C1087 1.398 . S
C1088 C1089 1.391 . S
C1089 H1077 0.950 . S
C1089 C1085 1.393 . S
C1089 C1088 1.391 . S
C1090 H1080 0.950 . S
C1090 C1091 1.386 . S
C1090 C1092 1.391 . S
C1091 C1090 1.386 . S
C1091 C1095 1.393 . S
C1092 H1081 0.950 . S
C1092 C1090 1.391 . S
C1092 C1093 1.400 . S
C1093 C1087 1.491 . S
C1093 C1092 1.400 . S
C1093 C1094 1.398 . S
C1094 H1082 0.950 . S
C1094 C1093 1.398 . S
C1094 C1095 1.391 . S
C1095 H1083 0.950 . S
C1095 C1091 1.393 . S
C1095 C1094 1.391 . S
H1096 C1104 0.950 . S
H1097 C1109 0.950 . S
H1098 C1106 0.950 . S
H1099 C1108 0.950 . S
H1100 C1110 0.950 . S
H1101 C1112 0.950 . S
H1102 C1114 0.950 . S
H1103 C1115 0.950 . S
C1104 H1096 0.950 . S
C1104 C1105 1.386 . S
C1104 C1106 1.391 . S
C1105 C1104 1.386 . S
C1105 C1109 1.393 . S
C1106 H1098 0.950 . S
C1106 C1104 1.391 . S
C1106 C1107 1.400 . S
C1107 C1106 1.400 . S
C1107 C1108 1.398 . S
C1107 C1113 1.491 . S
C1108 H1099 0.950 . S
C1108 C1107 1.398 . S
C1108 C1109 1.391 . S
C1109 H1097 0.950 . S
C1109 C1105 1.393 . S
C1109 C1108 1.391 . S
C1110 H1100 0.950 . S
C1110 C1111 1.386 . S
C1110 C1112 1.391 . S
C1111 C1110 1.386 . S
C1111 C1115 1.393 . S
C1112 H1101 0.950 . S
C1112 C1110 1.391 . S
C1112 C1113 1.400 . S
C1113 C1107 1.491 . S
C1113 C1112 1.400 . S
C1113 C1114 1.398 . S
C1114 H1102 0.950 . S
C1114 C1113 1.398 . S
C1114 C1115 1.391 . S
C1115 H1103 0.950 . S
C1115 C1111 1.393 . S
C1115 C1114 1.391 . S
H1116 C1124 0.950 . S
H1117 C1129 0.950 . S
H1118 C1126 0.950 . S
H1119 C1128 0.950 . S
H1120 C1130 0.950 . S
H1121 C1132 0.950 . S
H1122 C1134 0.950 . S
H1123 C1135 0.950 . S
C1124 H1116 0.950 . S
C1124 C1125 1.386 . S
C1124 C1126 1.391 . S
C1125 C1124 1.386 . S
C1125 C1129 1.393 . S
C1126 H1118 0.950 . S
C1126 C1124 1.391 . S
C1126 C1127 1.400 . S
C1127 C1126 1.400 . S
C1127 C1128 1.398 . S
C1127 C1133 1.491 . S
C1128 H1119 0.950 . S
C1128 C1127 1.398 . S
C1128 C1129 1.391 . S
C1129 H1117 0.950 . S
C1129 C1125 1.393 . S
C1129 C1128 1.391 . S
C1130 H1120 0.950 . S
C1130 C1131 1.386 . S
C1130 C1132 1.391 . S
C1131 C1130 1.386 . S
C1131 C1135 1.393 . S
C1132 H1121 0.950 . S
C1132 C1130 1.391 . S
C1132 C1133 1.400 . S
C1133 C1127 1.491 . S
C1133 C1132 1.400 . S
C1133 C1134 1.398 . S
C1134 H1122 0.950 . S
C1134 C1133 1.398 . S
C1134 C1135 1.391 . S
C1135 H1123 0.950 . S
C1135 C1131 1.393 . S
C1135 C1134 1.391 . S
H1136 C1144 0.950 . S
H1137 C1149 0.950 . S
H1138 C1146 0.950 . S
H1139 C1148 0.950 . S
H1140 C1150 0.950 . S
H1141 C1152 0.950 . S
H1142 C1154 0.950 . S
H1143 C1155 0.950 . S
C1144 H1136 0.950 . S
C1144 C1145 1.386 . S
C1144 C1146 1.391 . S
C1145 C1144 1.386 . S
C1145 C1149 1.393 . S
C1146 H1138 0.950 . S
C1146 C1144 1.391 . S
C1146 C1147 1.400 . S
C1147 C1146 1.400 . S
C1147 C1148 1.398 . S
C1147 C1153 1.491 . S
C1148 H1139 0.950 . S
C1148 C1147 1.398 . S
C1148 C1149 1.391 . S
C1149 H1137 0.950 . S
C1149 C1145 1.393 . S
C1149 C1148 1.391 . S
C1150 H1140 0.950 . S
C1150 C1151 1.386 . S
C1150 C1152 1.391 . S
C1151 C1150 1.386 . S
C1151 C1155 1.393 . S
C1152 H1141 0.950 . S
C1152 C1150 1.391 . S
C1152 C1153 1.400 . S
C1153 C1147 1.491 . S
C1153 C1152 1.400 . S
C1153 C1154 1.398 . S
C1154 H1142 0.950 . S
C1154 C1153 1.398 . S
C1154 C1155 1.391 . S
C1155 H1143 0.950 . S
C1155 C1151 1.393 . S
C1155 C1154 1.391 . S
H1156 C1164 0.950 . S
H1157 C1169 0.950 . S
H1158 C1166 0.950 . S
H1159 C1168 0.950 . S
H1160 C1170 0.950 . S
H1161 C1172 0.950 . S
H1162 C1174 0.950 . S
H1163 C1175 0.950 . S
C1164 H1156 0.950 . S
C1164 C1165 1.386 . S
C1164 C1166 1.391 . S
C1165 C1164 1.386 . S
C1165 C1169 1.393 . S
C1166 H1158 0.950 . S
C1166 C1164 1.391 . S
C1166 C1167 1.400 . S
C1167 C1166 1.400 . S
C1167 C1168 1.398 . S
C1167 C1173 1.491 . S
C1168 H1159 0.950 . S
C1168 C1167 1.398 . S
C1168 C1169 1.391 . S
C1169 H1157 0.950 . S
C1169 C1165 1.393 . S
C1169 C1168 1.391 . S
C1170 H1160 0.950 . S
C1170 C1171 1.386 . S
C1170 C1172 1.391 . S
C1171 C1170 1.386 . S
C1171 C1175 1.393 . S
C1172 H1161 0.950 . S
C1172 C1170 1.391 . S
C1172 C1173 1.400 . S
C1173 C1167 1.491 . S
C1173 C1172 1.400 . S
C1173 C1174 1.398 . S
C1174 H1162 0.950 . S
C1174 C1173 1.398 . S
C1174 C1175 1.391 . S
C1175 H1163 0.950 . S
C1175 C1171 1.393 . S
C1175 C1174 1.391 . S
H1176 C1184 0.950 . S
H1177 C1189 0.950 . S
H1178 C1186 0.950 . S
H1179 C1188 0.950 . S
H1180 C1190 0.950 . S
H1181 C1192 0.950 . S
H1182 C1194 0.950 . S
H1183 C1195 0.950 . S
C1184 H1176 0.950 . S
C1184 C1185 1.386 . S
C1184 C1186 1.391 . S
C1185 C1184 1.386 . S
C1185 C1189 1.393 . S
C1186 H1178 0.950 . S
C1186 C1184 1.391 . S
C1186 C1187 1.400 . S
C1187 C1186 1.400 . S
C1187 C1188 1.398 . S
C1187 C1193 1.491 . S
C1188 H1179 0.950 . S
C1188 C1187 1.398 . S
C1188 C1189 1.391 . S
C1189 H1177 0.950 . S
C1189 C1185 1.393 . S
C1189 C1188 1.391 . S
C1190 H1180 0.950 . S
C1190 C1191 1.386 . S
C1190 C1192 1.391 . S
C1191 C1190 1.386 . S
C1191 C1195 1.393 . S
C1192 H1181 0.950 . S
C1192 C1190 1.391 . S
C1192 C1193 1.400 . S
C1193 C1187 1.491 . S
C1193 C1192 1.400 . S
C1193 C1194 1.398 . S
C1194 H1182 0.950 . S
C1194 C1193 1.398 . S
C1194 C1195 1.391 . S
C1195 H1183 0.950 . S
C1195 C1191 1.393 . S
C1195 C1194 1.391 . S
H1196 C1204 0.950 . S
H1197 C1209 0.950 . S
H1198 C1206 0.950 . S
H1199 C1208 0.950 . S
H1200 C1210 0.950 . S
H1201 C1212 0.950 . S
H1202 C1214 0.950 . S
H1203 C1215 0.950 . S
C1204 H1196 0.950 . S
C1204 C1205 1.386 . S
C1204 C1206 1.391 . S
C1205 C1204 1.386 . S
C1205 C1209 1.393 . S
C1206 H1198 0.950 . S
C1206 C1204 1.391 . S
C1206 C1207 1.400 . S
C1207 C1206 1.400 . S
C1207 C1208 1.398 . S
C1207 C1213 1.491 . S
C1208 H1199 0.950 . S
C1208 C1207 1.398 . S
C1208 C1209 1.391 . S
C1209 H1197 0.950 . S
C1209 C1205 1.393 . S
C1209 C1208 1.391 . S
C1210 H1200 0.950 . S
C1210 C1211 1.386 . S
C1210 C1212 1.391 . S
C1211 C1210 1.386 . S
C1211 C1215 1.393 . S
C1212 H1201 0.950 . S
C1212 C1210 1.391 . S
C1212 C1213 1.400 . S
C1213 C1207 1.491 . S
C1213 C1212 1.400 . S
C1213 C1214 1.398 . S
C1214 H1202 0.950 . S
C1214 C1213 1.398 . S
C1214 C1215 1.391 . S
C1215 H1203 0.950 . S
C1215 C1211 1.393 . S
C1215 C1214 1.391 . S
H1216 C1224 0.950 . S
H1217 C1229 0.950 . S
H1218 C1226 0.950 . S
H1219 C1228 0.950 . S
H1220 C1230 0.950 . S
H1221 C1232 0.950 . S
H1222 C1234 0.950 . S
H1223 C1235 0.950 . S
C1224 H1216 0.950 . S
C1224 C1225 1.386 . S
C1224 C1226 1.391 . S
C1225 C1224 1.386 . S
C1225 C1229 1.393 . S
C1226 H1218 0.950 . S
C1226 C1224 1.391 . S
C1226 C1227 1.400 . S
C1227 C1226 1.400 . S
C1227 C1228 1.398 . S
C1227 C1233 1.491 . S
C1228 H1219 0.950 . S
C1228 C1227 1.398 . S
C1228 C1229 1.391 . S
C1229 H1217 0.950 . S
C1229 C1225 1.393 . S
C1229 C1228 1.391 . S
C1230 H1220 0.950 . S
C1230 C1231 1.386 . S
C1230 C1232 1.391 . S
C1231 C1230 1.386 . S
C1231 C1235 1.393 . S
C1232 H1221 0.950 . S
C1232 C1230 1.391 . S
C1232 C1233 1.400 . S
C1233 C1227 1.491 . S
C1233 C1232 1.400 . S
C1233 C1234 1.398 . S
C1234 H1222 0.950 . S
C1234 C1233 1.398 . S
C1234 C1235 1.391 . S
C1235 H1223 0.950 . S
C1235 C1231 1.393 . S
C1235 C1234 1.391 . S
H1236 C1244 0.950 . S
H1237 C1249 0.950 . S
H1238 C1246 0.950 . S
H1239 C1248 0.950 . S
H1240 C1250 0.950 . S
H1241 C1252 0.950 . S
H1242 C1254 0.950 . S
H1243 C1255 0.950 . S
C1244 H1236 0.950 . S
C1244 C1245 1.386 . S
C1244 C1246 1.391 . S
C1245 C1244 1.386 . S
C1245 C1249 1.393 . S
C1246 H1238 0.950 . S
C1246 C1244 1.391 . S
C1246 C1247 1.400 . S
C1247 C1246 1.400 . S
C1247 C1248 1.398 . S
C1247 C1253 1.491 . S
C1248 H1239 0.950 . S
C1248 C1247 1.398 . S
C1248 C1249 1.391 . S
C1249 H1237 0.950 . S
C1249 C1245 1.393 . S
C1249 C1248 1.391 . S
C1250 H1240 0.950 . S
C1250 C1251 1.386 . S
C1250 C1252 1.391 . S
C1251 C1250 1.386 . S
C1251 C1255 1.393 . S
C1252 H1241 0.950 . S
C1252 C1250 1.391 . S
C1252 C1253 1.400 . S
C1253 C1247 1.491 . S
C1253 C1252 1.400 . S
C1253 C1254 1.398 . S
C1254 H1242 0.950 . S
C1254 C1253 1.398 . S
C1254 C1255 1.391 . S
C1255 H1243 0.950 . S
C1255 C1251 1.393 . S
C1255 C1254 1.391 . S
H1256 C1264 0.950 . S
H1257 C1269 0.950 . S
H1258 C1266 0.950 . S
H1259 C1268 0.950 . S
H1260 C1270 0.950 . S
H1261 C1272 0.950 . S
H1262 C1274 0.950 . S
H1263 C1275 0.950 . S
C1264 H1256 0.950 . S
C1264 C1265 1.386 . S
C1264 C1266 1.391 . S
C1265 C1264 1.386 . S
C1265 C1269 1.393 . S
C1266 H1258 0.950 . S
C1266 C1264 1.391 . S
C1266 C1267 1.400 . S
C1267 C1266 1.400 . S
C1267 C1268 1.398 . S
C1267 C1273 1.491 . S
C1268 H1259 0.950 . S
C1268 C1267 1.398 . S
C1268 C1269 1.391 . S
C1269 H1257 0.950 . S
C1269 C1265 1.393 . S
C1269 C1268 1.391 . S
C1270 H1260 0.950 . S
C1270 C1271 1.386 . S
C1270 C1272 1.391 . S
C1271 C1270 1.386 . S
C1271 C1275 1.393 . S
C1272 H1261 0.950 . S
C1272 C1270 1.391 . S
C1272 C1273 1.400 . S
C1273 C1267 1.491 . S
C1273 C1272 1.400 . S
C1273 C1274 1.398 . S
C1274 H1262 0.950 . S
C1274 C1273 1.398 . S
C1274 C1275 1.391 . S
C1275 H1263 0.950 . S
C1275 C1271 1.393 . S
C1275 C1274 1.391 . S
H1276 C1284 0.950 . S
H1277 C1289 0.950 . S
H1278 C1286 0.950 . S
H1279 C1288 0.950 . S
H1280 C1290 0.950 . S
H1281 C1292 0.950 . S
H1282 C1294 0.950 . S
H1283 C1295 0.950 . S
C1284 H1276 0.950 . S
C1284 C1285 1.386 . S
C1284 C1286 1.391 . S
C1285 C1284 1.386 . S
C1285 C1289 1.393 . S
C1286 H1278 0.950 . S
C1286 C1284 1.391 . S
C1286 C1287 1.400 . S
C1287 C1286 1.400 . S
C1287 C1288 1.398 . S
C1287 C1293 1.491 . S
C1288 H1279 0.950 . S
C1288 C1287 1.398 . S
C1288 C1289 1.391 . S
C1289 H1277 0.950 . S
C1289 C1285 1.393 . S
C1289 C1288 1.391 . S
C1290 H1280 0.950 . S
C1290 C1291 1.386 . S
C1290 C1292 1.391 . S
C1291 C1290 1.386 . S
C1291 C1295 1.393 . S
C1292 H1281 0.950 . S
C1292 C1290 1.391 . S
C1292 C1293 1.400 . S
C1293 C1287 1.491 . S
C1293 C1292 1.400 . S
C1293 C1294 1.398 . S
C1294 H1282 0.950 . S
C1294 C1293 1.398 . S
C1294 C1295 1.391 . S
C1295 H1283 0.950 . S
C1295 C1291 1.393 . S
C1295 C1294 1.391 . S
H1296 C1304 0.950 . S
H1297 C1309 0.950 . S
H1298 C1306 0.950 . S
H1299 C1308 0.950 . S
H1300 C1310 0.950 . S
H1301 C1312 0.950 . S
H1302 C1314 0.950 . S
H1303 C1315 0.950 . S
C1304 H1296 0.950 . S
C1304 C1305 1.386 . S
C1304 C1306 1.391 . S
C1305 C1304 1.386 . S
C1305 C1309 1.393 . S
C1306 H1298 0.950 . S
C1306 C1304 1.391 . S
C1306 C1307 1.400 . S
C1307 C1306 1.400 . S
C1307 C1308 1.398 . S
C1307 C1313 1.491 . S
C1308 H1299 0.950 . S
C1308 C1307 1.398 . S
C1308 C1309 1.391 . S
C1309 H1297 0.950 . S
C1309 C1305 1.393 . S
C1309 C1308 1.391 . S
C1310 H1300 0.950 . S
C1310 C1311 1.386 . S
C1310 C1312 1.391 . S
C1311 C1310 1.386 . S
C1311 C1315 1.393 . S
C1312 H1301 0.950 . S
C1312 C1310 1.391 . S
C1312 C1313 1.400 . S
C1313 C1307 1.491 . S
C1313 C1312 1.400 . S
C1313 C1314 1.398 . S
C1314 H1302 0.950 . S
C1314 C1313 1.398 . S
C1314 C1315 1.391 . S
C1315 H1303 0.950 . S
C1315 C1311 1.393 . S
C1315 C1314 1.391 . S
H1316 C1324 0.950 . S
H1317 C1329 0.950 . S
H1318 C1326 0.950 . S
H1319 C1328 0.950 . S
H1320 C1330 0.950 . S
H1321 C1332 0.950 . S
H1322 C1334 0.950 . S
H1323 C1335 0.950 . S
C1324 H1316 0.950 . S
C1324 C1325 1.386 . S
C1324 C1326 1.391 . S
C1325 C1324 1.386 . S
C1325 C1329 1.393 . S
C1326 H1318 0.950 . S
C1326 C1324 1.391 . S
C1326 C1327 1.400 . S
C1327 C1326 1.400 . S
C1327 C1328 1.398 . S
C1327 C1333 1.491 . S
C1328 H1319 0.950 . S
C1328 C1327 1.398 . S
C1328 C1329 1.391 . S
C1329 H1317 0.950 . S
C1329 C1325 1.393 . S
C1329 C1328 1.391 . S
C1330 H1320 0.950 . S
C1330 C1331 1.386 . S
C1330 C1332 1.391 . S
C1331 C1330 1.386 . S
C1331 C1335 1.393 . S
C1332 H1321 0.950 . S
C1332 C1330 1.391 . S
C1332 C1333 1.400 . S
C1333 C1327 1.491 . S
C1333 C1332 1.400 . S
C1333 C1334 1.398 . S
C1334 H1322 0.950 . S
C1334 C1333 1.398 . S
C1334 C1335 1.391 . S
C1335 H1323 0.950 . S
C1335 C1331 1.393 . S
C1335 C1334 1.391 . S
H1336 C1344 0.950 . S
H1337 C1349 0.950 . S
H1338 C1346 0.950 . S
H1339 C1348 0.950 . S
H1340 C1350 0.950 . S
H1341 C1352 0.950 . S
H1342 C1354 0.950 . S
H1343 C1355 0.950 . S
C1344 H1336 0.950 . S
C1344 C1345 1.386 . S
C1344 C1346 1.391 . S
C1345 C1344 1.386 . S
C1345 C1349 1.393 . S
C1346 H1338 0.950 . S
C1346 C1344 1.391 . S
C1346 C1347 1.400 . S
C1347 C1346 1.400 . S
C1347 C1348 1.398 . S
C1347 C1353 1.491 . S
C1348 H1339 0.950 . S
C1348 C1347 1.398 . S
C1348 C1349 1.391 . S
C1349 H1337 0.950 . S
C1349 C1345 1.393 . S
C1349 C1348 1.391 . S
C1350 H1340 0.950 . S
C1350 C1351 1.386 . S
C1350 C1352 1.391 . S
C1351 C1350 1.386 . S
C1351 C1355 1.393 . S
C1352 H1341 0.950 . S
C1352 C1350 1.391 . S
C1352 C1353 1.400 . S
C1353 C1347 1.491 . S
C1353 C1352 1.400 . S
C1353 C1354 1.398 . S
C1354 H1342 0.950 . S
C1354 C1353 1.398 . S
C1354 C1355 1.391 . S
C1355 H1343 0.950 . S
C1355 C1351 1.393 . S
C1355 C1354 1.391 . S
H1356 C1364 0.950 . S
H1357 C1369 0.950 . S
H1358 C1366 0.950 . S
H1359 C1368 0.950 . S
H1360 C1370 0.950 . S
H1361 C1372 0.950 . S
H1362 C1374 0.950 . S
H1363 C1375 0.950 . S
C1364 H1356 0.950 . S
C1364 C1365 1.386 . S
C1364 C1366 1.391 . S
C1365 C1364 1.386 . S
C1365 C1369 1.393 . S
C1366 H1358 0.950 . S
C1366 C1364 1.391 . S
C1366 C1367 1.400 . S
C1367 C1366 1.400 . S
C1367 C1368 1.398 . S
C1367 C1373 1.491 . S
C1368 H1359 0.950 . S
C1368 C1367 1.398 . S
C1368 C1369 1.391 . S
C1369 H1357 0.950 . S
C1369 C1365 1.393 . S
C1369 C1368 1.391 . S
C1370 H1360 0.950 . S
C1370 C1371 1.386 . S
C1370 C1372 1.391 . S
C1371 C1370 1.386 . S
C1371 C1375 1.393 . S
C1372 H1361 0.950 . S
C1372 C1370 1.391 . S
C1372 C1373 1.400 . S
C1373 C1367 1.491 . S
C1373 C1372 1.400 . S
C1373 C1374 1.398 . S
C1374 H1362 0.950 . S
C1374 C1373 1.398 . S
C1374 C1375 1.391 . S
C1375 H1363 0.950 . S
C1375 C1371 1.393 . S
C1375 C1374 1.391 . S
H1376 C1384 0.950 . S
H1377 C1389 0.950 . S
H1378 C1386 0.950 . S
H1379 C1388 0.950 . S
H1380 C1390 0.950 . S
H1381 C1392 0.950 . S
H1382 C1394 0.950 . S
H1383 C1395 0.950 . S
C1384 H1376 0.950 . S
C1384 C1385 1.386 . S
C1384 C1386 1.391 . S
C1385 C1384 1.386 . S
C1385 C1389 1.393 . S
C1386 H1378 0.950 . S
C1386 C1384 1.391 . S
C1386 C1387 1.400 . S
C1387 C1386 1.400 . S
C1387 C1388 1.398 . S
C1387 C1393 1.491 . S
C1388 H1379 0.950 . S
C1388 C1387 1.398 . S
C1388 C1389 1.391 . S
C1389 H1377 0.950 . S
C1389 C1385 1.393 . S
C1389 C1388 1.391 . S
C1390 H1380 0.950 . S
C1390 C1391 1.386 . S
C1390 C1392 1.391 . S
C1391 C1390 1.386 . S
C1391 C1395 1.393 . S
C1392 H1381 0.950 . S
C1392 C1390 1.391 . S
C1392 C1393 1.400 . S
C1393 C1387 1.491 . S
C1393 C1392 1.400 . S
C1393 C1394 1.398 . S
C1394 H1382 0.950 . S
C1394 C1393 1.398 . S
C1394 C1395 1.391 . S
C1395 H1383 0.950 . S
C1395 C1391 1.393 . S
C1395 C1394 1.391 . S
H1396 C1404 0.950 . S
H1397 C1409 0.950 . S
H1398 C1406 0.950 . S
H1399 C1408 0.950 . S
H1400 C1410 0.950 . S
H1401 C1412 0.950 . S
H1402 C1414 0.950 . S
H1403 C1415 0.950 . S
C1404 H1396 0.950 . S
C1404 C1405 1.386 . S
C1404 C1406 1.391 . S
C1405 C1404 1.386 . S
C1405 C1409 1.393 . S
C1406 H1398 0.950 . S
C1406 C1404 1.391 . S
C1406 C1407 1.400 . S
C1407 C1406 1.400 . S
C1407 C1408 1.398 . S
C1407 C1413 1.491 . S
C1408 H1399 0.950 . S
C1408 C1407 1.398 . S
C1408 C1409 1.391 . S
C1409 H1397 0.950 . S
C1409 C1405 1.393 . S
C1409 C1408 1.391 . S
C1410 H1400 0.950 . S
C1410 C1411 1.386 . S
C1410 C1412 1.391 . S
C1411 C1410 1.386 . S
C1411 C1415 1.393 . S
C1412 H1401 0.950 . S
C1412 C1410 1.391 . S
C1412 C1413 1.400 . S
C1413 C1407 1.491 . S
C1413 C1412 1.400 . S
C1413 C1414 1.398 . S
C1414 H1402 0.950 . S
C1414 C1413 1.398 . S
C1414 C1415 1.391 . S
C1415 H1403 0.950 . S
C1415 C1411 1.393 . S
C1415 C1414 1.391 . S
H1416 C1424 0.950 . S
H1417 C1429 0.950 . S
H1418 C1426 0.950 . S
H1419 C1428 0.950 . S
H1420 C1430 0.950 . S
H1421 C1432 0.950 . S
H1422 C1434 0.950 . S
H1423 C1435 0.950 . S
C1424 H1416 0.950 . S
C1424 C1425 1.386 . S
C1424 C1426 1.391 . S
C1425 C1424 1.386 . S
C1425 C1429 1.393 . S
C1426 H1418 0.950 . S
C1426 C1424 1.391 . S
C1426 C1427 1.400 . S
C1427 C1426 1.400 . S
C1427 C1428 1.398 . S
C1427 C1433 1.491 . S
C1428 H1419 0.950 . S
C1428 C1427 1.398 . S
C1428 C1429 1.391 . S
C1429 H1417 0.950 . S
C1429 C1425 1.393 . S
C1429 C1428 1.391 . S
C1430 H1420 0.950 . S
C1430 C1431 1.386 . S
C1430 C1432 1.391 . S
C1431 C1430 1.386 . S
C1431 C1435 1.393 . S
C1432 H1421 0.950 . S
C1432 C1430 1.391 . S
C1432 C1433 1.400 . S
C1433 C1427 1.491 . S
C1433 C1432 1.400 . S
C1433 C1434 1.398 . S
C1434 H1422 0.950 . S
C1434 C1433 1.398 . S
C1434 C1435 1.391 . S
C1435 H1423 0.950 . S
C1435 C1431 1.393 . S
C1435 C1434 1.391 . S
H1436 C1444 0.950 . S
H1437 C1449 0.950 . S
H1438 C1446 0.950 . S
H1439 C1448 0.950 . S
H1440 C1450 0.950 . S
H1441 C1452 0.950 . S
H1442 C1454 0.950 . S
H1443 C1455 0.950 . S
C1444 H1436 0.950 . S
C1444 C1445 1.386 . S
C1444 C1446 1.391 . S
C1445 C1444 1.386 . S
C1445 C1449 1.393 . S
C1446 H1438 0.950 . S
C1446 C1444 1.391 . S
C1446 C1447 1.400 . S
C1447 C1446 1.400 . S
C1447 C1448 1.398 . S
C1447 C1453 1.491 . S
C1448 H1439 0.950 . S
C1448 C1447 1.398 . S
C1448 C1449 1.391 . S
C1449 H1437 0.950 . S
C1449 C1445 1.393 . S
C1449 C1448 1.391 . S
C1450 H1440 0.950 . S
C1450 C1451 1.386 . S
C1450 C1452 1.391 . S
C1451 C1450 1.386 . S
C1451 C1455 1.393 . S
C1452 H1441 0.950 . S
C1452 C1450 1.391 . S
C1452 C1453 1.400 . S
C1453 C1447 1.491 . S
C1453 C1452 1.400 . S
C1453 C1454 1.398 . S
C1454 H1442 0.950 . S
C1454 C1453 1.398 . S
C1454 C1455 1.391 . S
C1455 H1443 0.950 . S
C1455 C1451 1.393 . S
C1455 C1454 1.391 . S
H1456 C1464 0.950 . S
H1457 C1469 0.950 . S
H1458 C1466 0.950 . S
H1459 C1468 0.950 . S
H1460 C1470 0.950 . S
H1461 C1472 0.950 . S
H1462 C1474 0.950 . S
H1463 C1475 0.950 . S
C1464 H1456 0.950 . S
C1464 C1465 1.386 . S
C1464 C1466 1.391 . S
C1465 C1464 1.386 . S
C1465 C1469 1.393 . S
C1466 H1458 0.950 . S
C1466 C1464 1.391 . S
C1466 C1467 1.400 . S
C1467 C1466 1.400 . S
C1467 C1468 1.398 . S
C1467 C1473 1.491 . S
C1468 H1459 0.950 . S
C1468 C1467 1.398 . S
C1468 C1469 1.391 . S
C1469 H1457 0.950 . S
C1469 C1465 1.393 . S
C1469 C1468 1.391 . S
C1470 H1460 0.950 . S
C1470 C1471 1.386 . S
C1470 C1472 1.391 . S
C1471 C1470 1.386 . S
C1471 C1475 1.393 . S
C1472 H1461 0.950 . S
C1472 C1470 1.391 . S
C1472 C1473 1.400 . S
C1473 C1467 1.491 . S
C1473 C1472 1.400 . S
C1473 C1474 1.398 . S
C1474 H1462 0.950 . S
C1474 C1473 1.398 . S
C1474 C1475 1.391 . S
C1475 H1463 0.950 . S
C1475 C1471 1.393 . S
C1475 C1474 1.391 . S
H1476 C1484 0.950 . S
H1477 C1489 0.950 . S
H1478 C1486 0.950 . S
H1479 C1488 0.950 . S
H1480 C1490 0.950 . S
H1481 C1492 0.950 . S
H1482 C1494 0.950 . S
H1483 C1495 0.950 . S
C1484 H1476 0.950 . S
C1484 C1485 1.386 . S
C1484 C1486 1.391 . S
C1485 C1484 1.386 . S
C1485 C1489 1.393 . S
C1486 H1478 0.950 . S
C1486 C1484 1.391 . S
C1486 C1487 1.400 . S
C1487 C1486 1.400 . S
C1487 C1488 1.398 . S
C1487 C1493 1.491 . S
C1488 H1479 0.950 . S
C1488 C1487 1.398 . S
C1488 C1489 1.391 . S
C1489 H1477 0.950 . S
C1489 C1485 1.393 . S
C1489 C1488 1.391 . S
C1490 H1480 0.950 . S
C1490 C1491 1.386 . S
C1490 C1492 1.391 . S
C1491 C1490 1.386 . S
C1491 C1495 1.393 . S
C1492 H1481 0.950 . S
C1492 C1490 1.391 . S
C1492 C1493 1.400 . S
C1493 C1487 1.491 . S
C1493 C1492 1.400 . S
C1493 C1494 1.398 . S
C1494 H1482 0.950 . S
C1494 C1493 1.398 . S
C1494 C1495 1.391 . S
C1495 H1483 0.950 . S
C1495 C1491 1.393 . S
C1495 C1494 1.391 . S
H1496 C1504 0.950 . S
H1497 C1509 0.950 . S
H1498 C1506 0.950 . S
H1499 C1508 0.950 . S
H1500 C1510 0.950 . S
H1501 C1512 0.950 . S
H1502 C1514 0.950 . S
H1503 C1515 0.950 . S
C1504 H1496 0.950 . S
C1504 C1505 1.386 . S
C1504 C1506 1.391 . S
C1505 C1504 1.386 . S
C1505 C1509 1.393 . S
C1506 H1498 0.950 . S
C1506 C1504 1.391 . S
C1506 C1507 1.400 . S
C1507 C1506 1.400 . S
C1507 C1508 1.398 . S
C1507 C1513 1.491 . S
C1508 H1499 0.950 . S
C1508 C1507 1.398 . S
C1508 C1509 1.391 . S
C1509 H1497 0.950 . S
C1509 C1505 1.393 . S
C1509 C1508 1.391 . S
C1510 H1500 0.950 . S
C1510 C1511 1.386 . S
C1510 C1512 1.391 . S
C1511 C1510 1.386 . S
C1511 C1515 1.393 . S
C1512 H1501 0.950 . S
C1512 C1510 1.391 . S
C1512 C1513 1.400 . S
C1513 C1507 1.491 . S
C1513 C1512 1.400 . S
C1513 C1514 1.398 . S
C1514 H1502 0.950 . S
C1514 C1513 1.398 . S
C1514 C1515 1.391 . S
C1515 H1503 0.950 . S
C1515 C1511 1.393 . S
C1515 C1514 1.391 . S
H1516 C1524 0.950 . S
H1517 C1529 0.950 . S
H1518 C1526 0.950 . S
H1519 C1528 0.950 . S
H1520 C1530 0.950 . S
H1521 C1532 0.950 . S
H1522 C1534 0.950 . S
H1523 C1535 0.950 . S
C1524 H1516 0.950 . S
C1524 C1525 1.386 . S
C1524 C1526 1.391 . S
C1525 C1524 1.386 . S
C1525 C1529 1.393 . S
C1526 H1518 0.950 . S
C1526 C1524 1.391 . S
C1526 C1527 1.400 . S
C1527 C1526 1.400 . S
C1527 C1528 1.398 . S
C1527 C1533 1.491 . S
C1528 H1519 0.950 . S
C1528 C1527 1.398 . S
C1528 C1529 1.391 . S
C1529 H1517 0.950 . S
C1529 C1525 1.393 . S
C1529 C1528 1.391 . S
C1530 H1520 0.950 . S
C1530 C1531 1.386 . S
C1530 C1532 1.391 . S
C1531 C1530 1.386 . S
C1531 C1535 1.393 . S
C1532 H1521 0.950 . S
C1532 C1530 1.391 . S
C1532 C1533 1.400 . S
C1533 C1527 1.491 . S
C1533 C1532 1.400 . S
C1533 C1534 1.398 . S
C1534 H1522 0.950 . S
C1534 C1533 1.398 . S
C1534 C1535 1.391 . S
C1535 H1523 0.950 . S
C1535 C1531 1.393 . S
C1535 C1534 1.391 . S
H1536 C1544 0.950 . S
H1537 C1549 0.950 . S
H1538 C1546 0.950 . S
H1539 C1548 0.950 . S
H1540 C1550 0.950 . S
H1541 C1552 0.950 . S
H1542 C1554 0.950 . S
H1543 C1555 0.950 . S
C1544 H1536 0.950 . S
C1544 C1545 1.386 . S
C1544 C1546 1.391 . S
C1545 C1544 1.386 . S
C1545 C1549 1.393 . S
C1546 H1538 0.950 . S
C1546 C1544 1.391 . S
C1546 C1547 1.400 . S
C1547 C1546 1.400 . S
C1547 C1548 1.398 . S
C1547 C1553 1.491 . S
C1548 H1539 0.950 . S
C1548 C1547 1.398 . S
C1548 C1549 1.391 . S
C1549 H1537 0.950 . S
C1549 C1545 1.393 . S
C1549 C1548 1.391 . S
C1550 H1540 0.950 . S
C1550 C1551 1.386 . S
C1550 C1552 1.391 . S
C1551 C1550 1.386 . S
C1551 C1555 1.393 . S
C1552 H1541 0.950 . S
C1552 C1550 1.391 . S
C1552 C1553 1.400 . S
C1553 C1547 1.491 . S
C1553 C1552 1.400 . S
C1553 C1554 1.398 . S
C1554 H1542 0.950 . S
C1554 C1553 1.398 . S
C1554 C1555 1.391 . S
C1555 H1543 0.950 . S
C1555 C1551 1.393 . S
C1555 C1554 1.391 . S
H1556 C1564 0.950 . S
H1557 C1569 0.950 . S
H1558 C1566 0.950 . S
H1559 C1568 0.950 . S
H1560 C1570 0.950 . S
H1561 C1572 0.950 . S
H1562 C1574 0.950 . S
H1563 C1575 0.950 . S
C1564 H1556 0.950 . S
C1564 C1565 1.386 . S
C1564 C1566 1.391 . S
C1565 C1564 1.386 . S
C1565 C1569 1.393 . S
C1566 H1558 0.950 . S
C1566 C1564 1.391 . S
C1566 C1567 1.400 . S
C1567 C1566 1.400 . S
C1567 C1568 1.398 . S
C1567 C1573 1.491 . S
C1568 H1559 0.950 . S
C1568 C1567 1.398 . S
C1568 C1569 1.391 . S
C1569 H1557 0.950 . S
C1569 C1565 1.393 . S
C1569 C1568 1.391 . S
C1570 H1560 0.950 . S
C1570 C1571 1.386 . S
C1570 C1572 1.391 . S
C1571 C1570 1.386 . S
C1571 C1575 1.393 . S
C1572 H1561 0.950 . S
C1572 C1570 1.391 . S
C1572 C1573 1.400 . S
C1573 C1567 1.491 . S
C1573 C1572 1.400 . S
C1573 C1574 1.398 . S
C1574 H1562 0.950 . S
C1574 C1573 1.398 . S
C1574 C1575 1.391 . S
C1575 H1563 0.950 . S
C1575 C1571 1.393 . S
C1575 C1574 1.391 . S
H1576 C1584 0.950 . S
H1577 C1589 0.950 . S
H1578 C1586 0.950 . S
H1579 C1588 0.950 . S
H1580 C1590 0.950 . S
H1581 C1592 0.950 . S
H1582 C1594 0.950 . S
H1583 C1595 0.950 . S
C1584 H1576 0.950 . S
C1584 C1585 1.386 . S
C1584 C1586 1.391 . S
C1585 C1584 1.386 . S
C1585 C1589 1.393 . S
C1586 H1578 0.950 . S
C1586 C1584 1.391 . S
C1586 C1587 1.400 . S
C1587 C1586 1.400 . S
C1587 C1588 1.398 . S
C1587 C1593 1.491 . S
C1588 H1579 0.950 . S
C1588 C1587 1.398 . S
C1588 C1589 1.391 . S
C1589 H1577 0.950 . S
C1589 C1585 1.393 . S
C1589 C1588 1.391 . S
C1590 H1580 0.950 . S
C1590 C1591 1.386 . S
C1590 C1592 1.391 . S
C1591 C1590 1.386 . S
C1591 C1595 1.393 . S
C1592 H1581 0.950 . S
C1592 C1590 1.391 . S
C1592 C1593 1.400 . S
C1593 C1587 1.491 . S
C1593 C1592 1.400 . S
C1593 C1594 1.398 . S
C1594 H1582 0.950 . S
C1594 C1593 1.398 . S
C1594 C1595 1.391 . S
C1595 H1583 0.950 . S
C1595 C1591 1.393 . S
C1595 C1594 1.391 . S
H1596 C1604 0.950 . S
H1597 C1609 0.950 . S
H1598 C1606 0.950 . S
H1599 C1608 0.950 . S
H1600 C1610 0.950 . S
H1601 C1612 0.950 . S
H1602 C1614 0.950 . S
H1603 C1615 0.950 . S
C1604 H1596 0.950 . S
C1604 C1605 1.386 . S
C1604 C1606 1.391 . S
C1605 C1604 1.386 . S
C1605 C1609 1.393 . S
C1606 H1598 0.950 . S
C1606 C1604 1.391 . S
C1606 C1607 1.400 . S
C1607 C1606 1.400 . S
C1607 C1608 1.398 . S
C1607 C1613 1.491 . S
C1608 H1599 0.950 . S
C1608 C1607 1.398 . S
C1608 C1609 1.391 . S
C1609 H1597 0.950 . S
C1609 C1605 1.393 . S
C1609 C1608 1.391 . S
C1610 H1600 0.950 . S
C1610 C1611 1.386 . S
C1610 C1612 1.391 . S
C1611 C1610 1.386 . S
C1611 C1615 1.393 . S
C1612 H1601 0.950 . S
C1612 C1610 1.391 . S
C1612 C1613 1.400 . S
C1613 C1607 1.491 . S
C1613 C1612 1.400 . S
C1613 C1614 1.398 . S
C1614 H1602 0.950 . S
C1614 C1613 1.398 . S
C1614 C1615 1.391 . S
C1615 H1603 0.950 . S
C1615 C1611 1.393 . S
C1615 C1614 1.391 . S
H1616 C1624 0.950 . S
H1617 C1629 0.950 . S
H1618 C1626 0.950 . S
H1619 C1628 0.950 . S
H1620 C1630 0.950 . S
H1621 C1632 0.950 . S
H1622 C1634 0.950 . S
H1623 C1635 0.950 . S
C1624 H1616 0.950 . S
C1624 C1625 1.386 . S
C1624 C1626 1.391 . S
C1625 C1624 1.386 . S
C1625 C1629 1.393 . S
C1626 H1618 0.950 . S
C1626 C1624 1.391 . S
C1626 C1627 1.400 . S
C1627 C1626 1.400 . S
C1627 C1628 1.398 . S
C1627 C1633 1.491 . S
C1628 H1619 0.950 . S
C1628 C1627 1.398 . S
C1628 C1629 1.391 . S
C1629 H1617 0.950 . S
C1629 C1625 1.393 . S
C1629 C1628 1.391 . S
C1630 H1620 0.950 . S
C1630 C1631 1.386 . S
C1630 C1632 1.391 . S
C1631 C1630 1.386 . S
C1631 C1635 1.393 . S
C1632 H1621 0.950 . S
C1632 C1630 1.391 . S
C1632 C1633 1.400 . S
C1633 C1627 1.491 . S
C1633 C1632 1.400 . S
C1633 C1634 1.398 . S
C1634 H1622 0.950 . S
C1634 C1633 1.398 . S
C1634 C1635 1.391 . S
C1635 H1623 0.950 . S
C1635 C1631 1.393 . S
C1635 C1634 1.391 . S
H1636 C1644 0.950 . S
H1637 C1649 0.950 . S
H1638 C1646 0.950 . S
H1639 C1648 0.950 . S
H1640 C1650 0.950 . S
H1641 C1652 0.950 . S
H1642 C1654 0.950 . S
H1643 C1655 0.950 . S
C1644 H1636 0.950 . S
C1644 C1645 1.386 . S
C1644 C1646 1.391 . S
C1645 C1644 1.386 . S
C1645 C1649 1.393 . S
C1646 H1638 0.950 . S
C1646 C1644 1.391 . S
C1646 C1647 1.400 . S
C1647 C1646 1.400 . S
C1647 C1648 1.398 . S
C1647 C1653 1.491 . S
C1648 H1639 0.950 . S
C1648 C1647 1.398 . S
C1648 C1649 1.391 . S
C1649 H1637 0.950 . S
C1649 C1645 1.393 . S
C1649 C1648 1.391 . S
C1650 H1640 0.950 . S
C1650 C1651 1.386 . S
C1650 C1652 1.391 . S
C1651 C1650 1.386 . S
C1651 C1655 1.393 . S
C1652 H1641 0.950 . S
C1652 C1650 1.391 . S
C1652 C1653 1.400 . S
C1653 C1647 1.491 . S
C1653 C1652 1.400 . S
C1653 C1654 1.398 . S
C1654 H1642 0.950 . S
C1654 C1653 1.398 . S
C1654 C1655 1.391 . S
C1655 H1643 0.950 . S
C1655 C1651 1.393 . S
C1655 C1654 1.391 . S
H1656 C1664 0.950 . S
H1657 C1669 0.950 . S
H1658 C1666 0.950 . S
H1659 C1668 0.950 . S
H1660 C1670 0.950 . S
H1661 C1672 0.950 . S
H1662 C1674 0.950 . S
H1663 C1675 0.950 . S
C1664 H1656 0.950 . S
C1664 C1665 1.386 . S
C1664 C1666 1.391 . S
C1665 C1664 1.386 . S
C1665 C1669 1.393 . S
C1666 H1658 0.950 . S
C1666 C1664 1.391 . S
C1666 C1667 1.400 . S
C1667 C1666 1.400 . S
C1667 C1668 1.398 . S
C1667 C1673 1.491 . S
C1668 H1659 0.950 . S
C1668 C1667 1.398 . S
C1668 C1669 1.391 . S
C1669 H1657 0.950 . S
C1669 C1665 1.393 . S
C1669 C1668 1.391 . S
C1670 H1660 0.950 . S
C1670 C1671 1.386 . S
C1670 C1672 1.391 . S
C1671 C1670 1.386 . S
C1671 C1675 1.393 . S
C1672 H1661 0.950 . S
C1672 C1670 1.391 . S
C1672 C1673 1.400 . S
C1673 C1667 1.491 . S
C1673 C1672 1.400 . S
C1673 C1674 1.398 . S
C1674 H1662 0.950 . S
C1674 C1673 1.398 . S
C1674 C1675 1.391 . S
C1675 H1663 0.950 . S
C1675 C1671 1.393 . S
C1675 C1674 1.391 . S
H1676 C1684 0.950 . S
H1677 C1689 0.950 . S
H1678 C1686 0.950 . S
H1679 C1688 0.950 . S
H1680 C1690 0.950 . S
H1681 C1692 0.950 . S
H1682 C1694 0.950 . S
H1683 C1695 0.950 . S
C1684 H1676 0.950 . S
C1684 C1685 1.386 . S
C1684 C1686 1.391 . S
C1685 C1684 1.386 . S
C1685 C1689 1.393 . S
C1686 H1678 0.950 . S
C1686 C1684 1.391 . S
C1686 C1687 1.400 . S
C1687 C1686 1.400 . S
C1687 C1688 1.398 . S
C1687 C1693 1.491 . S
C1688 H1679 0.950 . S
C1688 C1687 1.398 . S
C1688 C1689 1.391 . S
C1689 H1677 0.950 . S
C1689 C1685 1.393 . S
C1689 C1688 1.391 . S
C1690 H1680 0.950 . S
C1690 C1691 1.386 . S
C1690 C1692 1.391 . S
C1691 C1690 1.386 . S
C1691 C1695 1.393 . S
C1692 H1681 0.950 . S
C1692 C1690 1.391 . S
C1692 C1693 1.400 . S
C1693 C1687 1.491 . S
C1693 C1692 1.400 . S
C1693 C1694 1.398 . S
C1694 H1682 0.950 . S
C1694 C1693 1.398 . S
C1694 C1695 1.391 . S
C1695 H1683 0.950 . S
C1695 C1691 1.393 . S
C1695 C1694 1.391 . S
H1696 C1704 0.950 . S
H1697 C1709 0.950 . S
H1698 C1706 0.950 . S
H1699 C1708 0.950 . S
H1700 C1710 0.950 . S
H1701 C1712 0.950 . S
H1702 C1714 0.950 . S
H1703 C1715 0.950 . S
C1704 H1696 0.950 . S
C1704 C1705 1.386 . S
C1704 C1706 1.391 . S
C1705 C1704 1.386 . S
C1705 C1709 1.393 . S
C1706 H1698 0.950 . S
C1706 C1704 1.391 . S
C1706 C1707 1.400 . S
C1707 C1706 1.400 . S
C1707 C1708 1.398 . S
C1707 C1713 1.491 . S
C1708 H1699 0.950 . S
C1708 C1707 1.398 . S
C1708 C1709 1.391 . S
C1709 H1697 0.950 . S
C1709 C1705 1.393 . S
C1709 C1708 1.391 . S
C1710 H1700 0.950 . S
C1710 C1711 1.386 . S
C1710 C1712 1.391 . S
C1711 C1710 1.386 . S
C1711 C1715 1.393 . S
C1712 H1701 0.950 . S
C1712 C1710 1.391 . S
C1712 C1713 1.400 . S
C1713 C1707 1.491 . S
C1713 C1712 1.400 . S
C1713 C1714 1.398 . S
C1714 H1702 0.950 . S
C1714 C1713 1.398 . S
C1714 C1715 1.391 . S
C1715 H1703 0.950 . S
C1715 C1711 1.393 . S
C1715 C1714 1.391 . S
H1716 C1724 0.950 . S
H1717 C1729 0.950 . S
H1718 C1726 0.950 . S
H1719 C1728 0.950 . S
H1720 C1730 0.950 . S
H1721 C1732 0.950 . S
H1722 C1734 0.950 . S
H1723 C1735 0.950 . S
C1724 H1716 0.950 . S
C1724 C1725 1.386 1_565 S
C1724 C1726 1.391 . S
C1725 C1724 1.386 1_545 S
C1725 C1729 1.393 . S
C1726 H1718 0.950 . S
C1726 C1724 1.391 . S
C1726 C1727 1.378 1_565 S
C1727 C1726 1.378 1_545 S
C1727 C1728 1.426 . S
C1727 C1733 1.487 1_545 S
C1728 H1719 0.950 . S
C1728 C1727 1.426 . S
C1728 C1729 1.391 . S
C1729 H1717 0.950 . S
C1729 C1725 1.393 . S
C1729 C1728 1.391 . S
C1730 H1720 0.950 . S
C1730 C1731 1.386 1_545 S
C1730 C1732 1.391 . S
C1731 C1730 1.386 1_565 S
C1731 C1735 1.393 . S
C1732 H1721 0.950 . S
C1732 C1730 1.391 . S
C1732 C1733 1.400 1_545 S
C1733 C1727 1.487 1_565 S
C1733 C1732 1.400 1_565 S
C1733 C1734 1.398 . S
C1734 H1722 0.950 . S
C1734 C1733 1.398 . S
C1734 C1735 1.391 . S
C1735 H1723 0.950 . S
C1735 C1731 1.393 . S
C1735 C1734 1.391 . S
H1736 C1744 0.950 . S
H1737 C1749 0.950 . S
H1738 C1746 0.950 . S
H1739 C1748 0.950 . S
H1740 C1750 0.950 . S
H1741 C1752 0.950 . S
H1742 C1754 0.950 . S
H1743 C1755 0.950 . S
C1744 H1736 0.950 . S
C1744 C1745 1.386 . S
C1744 C1746 1.391 . S
C1745 C1744 1.386 . S
C1745 C1749 1.393 . S
C1746 H1738 0.950 . S
C1746 C1744 1.391 . S
C1746 C1747 1.400 . S
C1747 C1746 1.400 . S
C1747 C1748 1.398 . S
C1747 C1753 1.491 . S
C1748 H1739 0.950 . S
C1748 C1747 1.398 . S
C1748 C1749 1.391 . S
C1749 H1737 0.950 . S
C1749 C1745 1.393 . S
C1749 C1748 1.391 . S
C1750 H1740 0.950 . S
C1750 C1751 1.386 . S
C1750 C1752 1.391 . S
C1751 C1750 1.386 . S
C1751 C1755 1.393 . S
C1752 H1741 0.950 . S
C1752 C1750 1.391 . S
C1752 C1753 1.400 . S
C1753 C1747 1.491 . S
C1753 C1752 1.400 . S
C1753 C1754 1.398 . S
C1754 H1742 0.950 . S
C1754 C1753 1.398 . S
C1754 C1755 1.391 . S
C1755 H1743 0.950 . S
C1755 C1751 1.393 . S
C1755 C1754 1.391 . S
H1756 C1764 0.950 . S
H1757 C1769 0.950 . S
H1758 C1766 0.953 . S
H1759 C1768 0.950 . S
H1760 C1770 0.950 . S
H1761 C1772 0.950 . S
H1762 C1774 0.950 . S
H1763 C1775 0.950 . S
C1764 H1756 0.950 . S
C1764 C1765 1.386 . S
C1764 C1766 1.391 . S
C1765 C1764 1.386 . S
C1765 C1769 1.393 . S
C1766 H1758 0.953 . S
C1766 C1764 1.391 . S
C1766 C1767 1.403 . S
C1767 C1766 1.403 . S
C1767 C1768 1.403 . S
C1767 C1773 1.487 1_566 S
C1768 H1759 0.950 . S
C1768 C1767 1.403 . S
C1768 C1769 1.391 . S
C1769 H1757 0.950 . S
C1769 C1765 1.393 . S
C1769 C1768 1.391 . S
C1770 H1760 0.950 . S
C1770 C1771 1.386 . S
C1770 C1772 1.391 . S
C1771 C1770 1.386 . S
C1771 C1775 1.393 . S
C1772 H1761 0.950 . S
C1772 C1770 1.391 . S
C1772 C1773 1.400 . S
C1773 C1767 1.487 1_544 S
C1773 C1772 1.400 . S
C1773 C1774 1.398 . S
C1774 H1762 0.950 . S
C1774 C1773 1.398 . S
C1774 C1775 1.391 . S
C1775 H1763 0.950 . S
C1775 C1771 1.393 . S
C1775 C1774 1.391 . S
H1776 C1784 0.950 . S
H1777 C1789 0.950 . S
H1778 C1786 0.950 . S
H1779 C1788 0.950 . S
H1780 C1790 0.950 . S
H1781 C1792 0.950 . S
H1782 C1794 0.950 . S
H1783 C1795 0.950 . S
C1784 H1776 0.950 . S
C1784 C1785 1.386 . S
C1784 C1786 1.391 . S
C1785 C1784 1.386 . S
C1785 C1789 1.393 . S
C1786 H1778 0.950 . S
C1786 C1784 1.391 . S
C1786 C1787 1.400 . S
C1787 C1786 1.400 . S
C1787 C1788 1.398 . S
C1787 C1793 1.491 . S
C1788 H1779 0.950 . S
C1788 C1787 1.398 . S
C1788 C1789 1.391 . S
C1789 H1777 0.950 . S
C1789 C1785 1.393 . S
C1789 C1788 1.391 . S
C1790 H1780 0.950 . S
C1790 C1791 1.386 . S
C1790 C1792 1.391 . S
C1791 C1790 1.386 . S
C1791 C1795 1.393 . S
C1792 H1781 0.950 . S
C1792 C1790 1.391 . S
C1792 C1793 1.400 . S
C1793 C1787 1.491 . S
C1793 C1792 1.400 . S
C1793 C1794 1.398 . S
C1794 H1782 0.950 . S
C1794 C1793 1.398 . S
C1794 C1795 1.391 . S
C1795 H1783 0.950 . S
C1795 C1791 1.393 . S
C1795 C1794 1.391 . S
H1796 C1804 0.950 . S
H1797 C1809 0.946 1_565 S
H1798 C1806 0.950 . S
H1799 C1808 0.950 . S
H1800 C1810 0.950 . S
H1801 C1812 0.950 . S
H1802 C1814 0.950 1_545 S
H1803 C1815 0.949 1_545 S
C1804 H1796 0.950 . S
C1804 C1805 1.386 . S
C1804 C1806 1.391 . S
C1805 C1804 1.386 . S
C1805 C1809 1.400 . S
C1806 H1798 0.950 . S
C1806 C1804 1.391 . S
C1806 C1807 1.409 . S
C1807 C1806 1.409 . S
C1807 C1808 1.397 1_545 S
C1807 C1813 1.487 1_545 S
C1808 H1799 0.950 . S
C1808 C1807 1.397 1_565 S
C1808 C1809 1.389 1_565 S
C1809 H1797 0.946 1_545 S
C1809 C1805 1.400 . S
C1809 C1808 1.389 1_545 S
C1810 H1800 0.950 . S
C1810 C1811 1.386 . S
C1810 C1812 1.391 . S
C1811 C1810 1.386 . S
C1811 C1815 1.393 . S
C1812 H1801 0.950 . S
C1812 C1810 1.391 . S
C1812 C1813 1.400 . S
C1813 C1807 1.487 1_565 S
C1813 C1812 1.400 . S
C1813 C1814 1.398 . S
C1814 H1802 0.950 1_565 S
C1814 C1813 1.398 . S
C1814 C1815 1.390 . S
C1815 H1803 0.949 1_565 S
C1815 C1811 1.393 . S
C1815 C1814 1.390 . S
H1816 C1824 0.950 . S
H1817 C1829 0.950 . S
H1818 C1826 0.950 . S
H1819 C1828 0.950 . S
H1820 C1830 0.950 . S
H1821 C1832 0.950 . S
H1822 C1834 0.950 . S
H1823 C1835 0.950 . S
C1824 H1816 0.950 . S
C1824 C1825 1.386 . S
C1824 C1826 1.391 . S
C1825 C1824 1.386 . S
C1825 C1829 1.393 . S
C1826 H1818 0.950 . S
C1826 C1824 1.391 . S
C1826 C1827 1.400 . S
C1827 C1826 1.400 . S
C1827 C1828 1.398 . S
C1827 C1833 1.491 . S
C1828 H1819 0.950 . S
C1828 C1827 1.398 . S
C1828 C1829 1.391 . S
C1829 H1817 0.950 . S
C1829 C1825 1.393 . S
C1829 C1828 1.391 . S
C1830 H1820 0.950 . S
C1830 C1831 1.386 . S
C1830 C1832 1.391 . S
C1831 C1830 1.386 . S
C1831 C1835 1.393 . S
C1832 H1821 0.950 . S
C1832 C1830 1.391 . S
C1832 C1833 1.400 . S
C1833 C1827 1.491 . S
C1833 C1832 1.400 . S
C1833 C1834 1.398 . S
C1834 H1822 0.950 . S
C1834 C1833 1.398 . S
C1834 C1835 1.391 . S
C1835 H1823 0.950 . S
C1835 C1831 1.393 . S
C1835 C1834 1.391 . S
H1836 C1844 0.950 . S
H1837 C1849 0.950 . S
H1838 C1846 0.950 . S
H1839 C1848 0.950 . S
H1840 C1850 0.950 . S
H1841 C1852 0.950 . S
H1842 C1854 0.950 . S
H1843 C1855 0.950 . S
C1844 H1836 0.950 . S
C1844 C1845 1.386 1_545 S
C1844 C1846 1.391 . S
C1845 C1844 1.386 1_565 S
C1845 C1849 1.393 . S
C1846 H1838 0.950 . S
C1846 C1844 1.391 . S
C1846 C1847 1.376 1_545 S
C1847 C1846 1.376 1_565 S
C1847 C1848 1.428 . S
C1847 C1853 1.487 1_566 S
C1848 H1839 0.950 . S
C1848 C1847 1.428 . S
C1848 C1849 1.391 . S
C1849 H1837 0.950 . S
C1849 C1845 1.393 . S
C1849 C1848 1.391 . S
C1850 H1840 0.950 . S
C1850 C1851 1.386 1_565 S
C1850 C1852 1.391 . S
C1851 C1850 1.386 1_545 S
C1851 C1855 1.393 . S
C1852 H1841 0.950 . S
C1852 C1850 1.391 . S
C1852 C1853 1.400 1_565 S
C1853 C1847 1.487 1_544 S
C1853 C1852 1.400 1_545 S
C1853 C1854 1.398 . S
C1854 H1842 0.950 . S
C1854 C1853 1.398 . S
C1854 C1855 1.391 . S
C1855 H1843 0.950 . S
C1855 C1851 1.393 . S
C1855 C1854 1.391 . S
H1856 C1864 0.950 . S
H1857 C1869 0.950 . S
H1858 C1866 0.950 . S
H1859 C1868 0.950 . S
H1860 C1870 0.950 . S
H1861 C1872 0.950 . S
H1862 C1874 0.950 . S
H1863 C1875 0.950 . S
C1864 H1856 0.950 . S
C1864 C1865 1.386 . S
C1864 C1866 1.391 . S
C1865 C1864 1.386 . S
C1865 C1869 1.393 . S
C1866 H1858 0.950 . S
C1866 C1864 1.391 . S
C1866 C1867 1.400 . S
C1867 C1866 1.400 . S
C1867 C1868 1.398 . S
C1867 C1873 1.491 . S
C1868 H1859 0.950 . S
C1868 C1867 1.398 . S
C1868 C1869 1.391 . S
C1869 H1857 0.950 . S
C1869 C1865 1.393 . S
C1869 C1868 1.391 . S
C1870 H1860 0.950 . S
C1870 C1871 1.386 . S
C1870 C1872 1.391 . S
C1871 C1870 1.386 . S
C1871 C1875 1.393 . S
C1872 H1861 0.950 . S
C1872 C1870 1.391 . S
C1872 C1873 1.400 . S
C1873 C1867 1.491 . S
C1873 C1872 1.400 . S
C1873 C1874 1.398 . S
C1874 H1862 0.950 . S
C1874 C1873 1.398 . S
C1874 C1875 1.391 . S
C1875 H1863 0.950 . S
C1875 C1871 1.393 . S
C1875 C1874 1.391 . S
H1876 C1884 0.950 . S
H1877 C1889 0.950 . S
H1878 C1886 0.950 . S
H1879 C1888 0.950 . S
H1880 C1890 0.950 . S
H1881 C1892 0.950 . S
H1882 C1894 0.950 . S
H1883 C1895 0.950 . S
C1884 H1876 0.950 . S
C1884 C1885 1.386 . S
C1884 C1886 1.391 . S
C1885 C1884 1.386 . S
C1885 C1889 1.393 . S
C1886 H1878 0.950 . S
C1886 C1884 1.391 . S
C1886 C1887 1.400 . S
C1887 C1886 1.400 . S
C1887 C1888 1.398 . S
C1887 C1893 1.491 1_556 S
C1888 H1879 0.950 . S
C1888 C1887 1.398 . S
C1888 C1889 1.391 . S
C1889 H1877 0.950 . S
C1889 C1885 1.393 . S
C1889 C1888 1.391 . S
C1890 H1880 0.950 . S
C1890 C1891 1.386 . S
C1890 C1892 1.391 . S
C1891 C1890 1.386 . S
C1891 C1895 1.393 . S
C1892 H1881 0.950 . S
C1892 C1890 1.391 . S
C1892 C1893 1.400 . S
C1893 C1887 1.491 1_554 S
C1893 C1892 1.400 . S
C1893 C1894 1.398 . S
C1894 H1882 0.950 . S
C1894 C1893 1.398 . S
C1894 C1895 1.391 . S
C1895 H1883 0.950 . S
C1895 C1891 1.393 . S
C1895 C1894 1.391 . S
H1896 C1904 0.950 . S
H1897 C1909 0.950 . S
H1898 C1906 0.950 . S
H1899 C1908 0.950 . S
H1900 C1910 0.950 . S
H1901 C1912 0.950 . S
H1902 C1914 0.950 . S
H1903 C1915 0.950 . S
C1904 H1896 0.950 . S
C1904 C1905 1.386 . S
C1904 C1906 1.391 . S
C1905 C1904 1.386 . S
C1905 C1909 1.393 . S
C1906 H1898 0.950 . S
C1906 C1904 1.391 . S
C1906 C1907 1.400 . S
C1907 C1906 1.400 . S
C1907 C1908 1.398 . S
C1907 C1913 1.491 . S
C1908 H1899 0.950 . S
C1908 C1907 1.398 . S
C1908 C1909 1.391 . S
C1909 H1897 0.950 . S
C1909 C1905 1.393 . S
C1909 C1908 1.391 . S
C1910 H1900 0.950 . S
C1910 C1911 1.386 . S
C1910 C1912 1.391 . S
C1911 C1910 1.386 . S
C1911 C1915 1.393 . S
C1912 H1901 0.950 . S
C1912 C1910 1.391 . S
C1912 C1913 1.400 . S
C1913 C1907 1.491 . S
C1913 C1912 1.400 . S
C1913 C1914 1.398 . S
C1914 H1902 0.950 . S
C1914 C1913 1.398 . S
C1914 C1915 1.391 . S
C1915 H1903 0.950 . S
C1915 C1911 1.393 . S
C1915 C1914 1.391 . S
H1916 C1924 0.950 . S
H1917 C1929 0.950 . S
H1918 C1926 0.950 . S
H1919 C1928 0.950 . S
H1920 C1930 0.950 . S
H1921 C1932 0.950 . S
H1922 C1934 0.950 . S
H1923 C1935 0.950 . S
C1924 H1916 0.950 . S
C1924 C1925 1.386 . S
C1924 C1926 1.391 . S
C1925 C1924 1.386 . S
C1925 C1929 1.393 . S
C1926 H1918 0.950 . S
C1926 C1924 1.391 . S
C1926 C1927 1.400 . S
C1927 C1926 1.400 . S
C1927 C1928 1.398 . S
C1927 C1933 1.491 . S
C1928 H1919 0.950 . S
C1928 C1927 1.398 . S
C1928 C1929 1.391 . S
C1929 H1917 0.950 . S
C1929 C1925 1.393 . S
C1929 C1928 1.391 . S
C1930 H1920 0.950 . S
C1930 C1931 1.386 . S
C1930 C1932 1.391 . S
C1931 C1930 1.386 . S
C1931 C1935 1.393 . S
C1932 H1921 0.950 . S
C1932 C1930 1.391 . S
C1932 C1933 1.400 . S
C1933 C1927 1.491 . S
C1933 C1932 1.400 . S
C1933 C1934 1.398 . S
C1934 H1922 0.950 . S
C1934 C1933 1.398 . S
C1934 C1935 1.391 . S
C1935 H1923 0.950 . S
C1935 C1931 1.393 . S
C1935 C1934 1.391 . S
H1936 C1944 0.950 . S
H1937 C1949 0.950 . S
H1938 C1946 0.950 . S
H1939 C1948 0.950 . S
H1940 C1950 0.950 . S
H1941 C1952 0.950 . S
H1942 C1954 0.950 . S
H1943 C1955 0.950 . S
C1944 H1936 0.950 . S
C1944 C1945 1.386 . S
C1944 C1946 1.391 . S
C1945 C1944 1.386 . S
C1945 C1949 1.393 . S
C1946 H1938 0.950 . S
C1946 C1944 1.391 . S
C1946 C1947 1.400 . S
C1947 C1946 1.400 . S
C1947 C1948 1.398 . S
C1947 C1953 1.491 . S
C1948 H1939 0.950 . S
C1948 C1947 1.398 . S
C1948 C1949 1.391 . S
C1949 H1937 0.950 . S
C1949 C1945 1.393 . S
C1949 C1948 1.391 . S
C1950 H1940 0.950 . S
C1950 C1951 1.386 . S
C1950 C1952 1.391 . S
C1951 C1950 1.386 . S
C1951 C1955 1.393 . S
C1952 H1941 0.950 . S
C1952 C1950 1.391 . S
C1952 C1953 1.400 . S
C1953 C1947 1.491 . S
C1953 C1952 1.400 . S
C1953 C1954 1.398 . S
C1954 H1942 0.950 . S
C1954 C1953 1.398 . S
C1954 C1955 1.391 . S
C1955 H1943 0.950 . S
C1955 C1951 1.393 . S
C1955 C1954 1.391 . S
H1956 C1964 0.950 . S
H1957 C1969 0.950 . S
H1958 C1966 0.950 . S
H1959 C1968 0.950 . S
H1960 C1970 0.950 . S
H1961 C1972 0.950 . S
H1962 C1974 0.950 . S
H1963 C1975 0.950 . S
C1964 H1956 0.950 . S
C1964 C1965 1.386 . S
C1964 C1966 1.391 . S
C1965 C1964 1.386 . S
C1965 C1969 1.393 . S
C1966 H1958 0.950 . S
C1966 C1964 1.391 . S
C1966 C1967 1.400 . S
C1967 C1966 1.400 . S
C1967 C1968 1.398 . S
C1967 C1973 1.491 1_556 S
C1968 H1959 0.950 . S
C1968 C1967 1.398 . S
C1968 C1969 1.391 . S
C1969 H1957 0.950 . S
C1969 C1965 1.393 . S
C1969 C1968 1.391 . S
C1970 H1960 0.950 . S
C1970 C1971 1.386 . S
C1970 C1972 1.391 . S
C1971 C1970 1.386 . S
C1971 C1975 1.393 . S
C1972 H1961 0.950 . S
C1972 C1970 1.391 . S
C1972 C1973 1.400 . S
C1973 C1967 1.491 1_554 S
C1973 C1972 1.400 . S
C1973 C1974 1.398 . S
C1974 H1962 0.950 . S
C1974 C1973 1.398 . S
C1974 C1975 1.391 . S
C1975 H1963 0.950 . S
C1975 C1971 1.393 . S
C1975 C1974 1.391 . S
H1976 C1984 0.950 . S
H1977 C1989 0.950 . S
H1978 C1986 0.950 . S
H1979 C1988 0.950 . S
H1980 C1990 0.950 . S
H1981 C1992 0.950 . S
H1982 C1994 0.950 . S
H1983 C1995 0.950 . S
C1984 H1976 0.950 . S
C1984 C1985 1.386 . S
C1984 C1986 1.391 . S
C1985 C1984 1.386 . S
C1985 C1989 1.393 . S
C1986 H1978 0.950 . S
C1986 C1984 1.391 . S
C1986 C1987 1.400 . S
C1987 C1986 1.400 . S
C1987 C1988 1.398 . S
C1987 C1993 1.491 . S
C1988 H1979 0.950 . S
C1988 C1987 1.398 . S
C1988 C1989 1.391 . S
C1989 H1977 0.950 . S
C1989 C1985 1.393 . S
C1989 C1988 1.391 . S
C1990 H1980 0.950 . S
C1990 C1991 1.386 . S
C1990 C1992 1.391 . S
C1991 C1990 1.386 . S
C1991 C1995 1.393 . S
C1992 H1981 0.950 . S
C1992 C1990 1.391 . S
C1992 C1993 1.400 . S
C1993 C1987 1.491 . S
C1993 C1992 1.400 . S
C1993 C1994 1.398 . S
C1994 H1982 0.950 . S
C1994 C1993 1.398 . S
C1994 C1995 1.391 . S
C1995 H1983 0.950 . S
C1995 C1991 1.393 . S
C1995 C1994 1.391 . S
H1996 C2004 0.950 . S
H1997 C2009 0.950 . S
H1998 C2006 0.950 . S
H1999 C2008 0.950 . S
H2000 C2010 0.950 . S
H2001 C2012 0.950 . S
H2002 C2014 0.950 . S
H2003 C2015 0.950 . S
C2004 H1996 0.950 . S
C2004 C2005 1.386 . S
C2004 C2006 1.391 . S
C2005 C2004 1.386 . S
C2005 C2009 1.393 . S
C2006 H1998 0.950 . S
C2006 C2004 1.391 . S
C2006 C2007 1.400 . S
C2007 C2006 1.400 . S
C2007 C2008 1.398 . S
C2007 C2013 1.491 . S
C2008 H1999 0.950 . S
C2008 C2007 1.398 . S
C2008 C2009 1.391 . S
C2009 H1997 0.950 . S
C2009 C2005 1.393 . S
C2009 C2008 1.391 . S
C2010 H2000 0.950 . S
C2010 C2011 1.386 . S
C2010 C2012 1.391 . S
C2011 C2010 1.386 . S
C2011 C2015 1.393 . S
C2012 H2001 0.950 . S
C2012 C2010 1.391 . S
C2012 C2013 1.400 . S
C2013 C2007 1.491 . S
C2013 C2012 1.400 . S
C2013 C2014 1.398 . S
C2014 H2002 0.950 . S
C2014 C2013 1.398 . S
C2014 C2015 1.391 . S
C2015 H2003 0.950 . S
C2015 C2011 1.393 . S
C2015 C2014 1.391 . S
H2016 C2024 0.950 . S
H2017 C2029 0.950 . S
H2018 C2026 0.950 . S
H2019 C2028 0.950 . S
H2020 C2030 0.950 . S
H2021 C2032 0.950 . S
H2022 C2034 0.950 . S
H2023 C2035 0.950 . S
C2024 H2016 0.950 . S
C2024 C2025 1.386 . S
C2024 C2026 1.391 . S
C2025 C2024 1.386 . S
C2025 C2029 1.393 . S
C2026 H2018 0.950 . S
C2026 C2024 1.391 . S
C2026 C2027 1.400 . S
C2027 C2026 1.400 . S
C2027 C2028 1.398 . S
C2027 C2033 1.491 . S
C2028 H2019 0.950 . S
C2028 C2027 1.398 . S
C2028 C2029 1.391 . S
C2029 H2017 0.950 . S
C2029 C2025 1.393 . S
C2029 C2028 1.391 . S
C2030 H2020 0.950 . S
C2030 C2031 1.386 . S
C2030 C2032 1.391 . S
C2031 C2030 1.386 . S
C2031 C2035 1.393 . S
C2032 H2021 0.950 . S
C2032 C2030 1.391 . S
C2032 C2033 1.400 . S
C2033 C2027 1.491 . S
C2033 C2032 1.400 . S
C2033 C2034 1.398 . S
C2034 H2022 0.950 . S
C2034 C2033 1.398 . S
C2034 C2035 1.391 . S
C2035 H2023 0.950 . S
C2035 C2031 1.393 . S
C2035 C2034 1.391 . S
H2036 C2044 0.950 . S
H2037 C2049 0.950 . S
H2038 C2046 0.950 . S
H2039 C2048 0.950 . S
H2040 C2050 0.950 . S
H2041 C2052 0.950 . S
H2042 C2054 0.950 . S
H2043 C2055 0.950 . S
C2044 H2036 0.950 . S
C2044 C2045 1.386 . S
C2044 C2046 1.391 . S
C2045 C2044 1.386 . S
C2045 C2049 1.393 . S
C2046 H2038 0.950 . S
C2046 C2044 1.391 . S
C2046 C2047 1.400 . S
C2047 C2046 1.400 . S
C2047 C2048 1.398 . S
C2047 C2053 1.491 . S
C2048 H2039 0.950 . S
C2048 C2047 1.398 . S
C2048 C2049 1.391 . S
C2049 H2037 0.950 . S
C2049 C2045 1.393 . S
C2049 C2048 1.391 . S
C2050 H2040 0.950 . S
C2050 C2051 1.386 . S
C2050 C2052 1.391 . S
C2051 C2050 1.386 . S
C2051 C2055 1.393 . S
C2052 H2041 0.950 . S
C2052 C2050 1.391 . S
C2052 C2053 1.400 . S
C2053 C2047 1.491 . S
C2053 C2052 1.400 . S
C2053 C2054 1.398 . S
C2054 H2042 0.950 . S
C2054 C2053 1.398 . S
C2054 C2055 1.391 . S
C2055 H2043 0.950 . S
C2055 C2051 1.393 . S
C2055 C2054 1.391 . S
H2056 C2064 0.950 . S
H2057 C2069 0.950 . S
H2058 C2066 0.950 . S
H2059 C2068 0.950 . S
H2060 C2070 0.950 . S
H2061 C2072 0.950 . S
H2062 C2074 0.950 . S
H2063 C2075 0.950 . S
C2064 H2056 0.950 . S
C2064 C2065 1.386 . S
C2064 C2066 1.391 . S
C2065 C2064 1.386 . S
C2065 C2069 1.393 . S
C2066 H2058 0.950 . S
C2066 C2064 1.391 . S
C2066 C2067 1.400 . S
C2067 C2066 1.400 . S
C2067 C2068 1.398 . S
C2067 C2073 1.491 . S
C2068 H2059 0.950 . S
C2068 C2067 1.398 . S
C2068 C2069 1.391 . S
C2069 H2057 0.950 . S
C2069 C2065 1.393 . S
C2069 C2068 1.391 . S
C2070 H2060 0.950 . S
C2070 C2071 1.386 . S
C2070 C2072 1.391 . S
C2071 C2070 1.386 . S
C2071 C2075 1.393 . S
C2072 H2061 0.950 . S
C2072 C2070 1.391 . S
C2072 C2073 1.400 . S
C2073 C2067 1.491 . S
C2073 C2072 1.400 . S
C2073 C2074 1.398 . S
C2074 H2062 0.950 . S
C2074 C2073 1.398 . S
C2074 C2075 1.391 . S
C2075 H2063 0.950 . S
C2075 C2071 1.393 . S
C2075 C2074 1.391 . S
H2076 C2084 0.950 . S
H2077 C2089 0.950 . S
H2078 C2086 0.950 . S
H2079 C2088 0.950 . S
H2080 C2090 0.950 . S
H2081 C2092 0.950 . S
H2082 C2094 0.950 . S
H2083 C2095 0.950 . S
C2084 H2076 0.950 . S
C2084 C2085 1.386 . S
C2084 C2086 1.391 . S
C2085 C2084 1.386 . S
C2085 C2089 1.393 . S
C2086 H2078 0.950 . S
C2086 C2084 1.391 . S
C2086 C2087 1.400 . S
C2087 C2086 1.400 . S
C2087 C2088 1.398 . S
C2087 C2093 1.491 . S
C2088 H2079 0.950 . S
C2088 C2087 1.398 . S
C2088 C2089 1.391 . S
C2089 H2077 0.950 . S
C2089 C2085 1.393 . S
C2089 C2088 1.391 . S
C2090 H2080 0.950 . S
C2090 C2091 1.386 . S
C2090 C2092 1.391 . S
C2091 C2090 1.386 . S
C2091 C2095 1.393 . S
C2092 H2081 0.950 . S
C2092 C2090 1.391 . S
C2092 C2093 1.400 . S
C2093 C2087 1.491 . S
C2093 C2092 1.400 . S
C2093 C2094 1.398 . S
C2094 H2082 0.950 . S
C2094 C2093 1.398 . S
C2094 C2095 1.391 . S
C2095 H2083 0.950 . S
C2095 C2091 1.393 . S
C2095 C2094 1.391 . S
H2096 C2104 0.950 . S
H2097 C2109 0.950 . S
H2098 C2106 0.950 . S
H2099 C2108 0.950 . S
H2100 C2110 0.950 . S
H2101 C2112 0.950 . S
H2102 C2114 0.950 . S
H2103 C2115 0.950 . S
C2104 H2096 0.950 . S
C2104 C2105 1.386 . S
C2104 C2106 1.391 . S
C2105 C2104 1.386 . S
C2105 C2109 1.393 . S
C2106 H2098 0.950 . S
C2106 C2104 1.391 . S
C2106 C2107 1.400 . S
C2107 C2106 1.400 . S
C2107 C2108 1.398 . S
C2107 C2113 1.491 . S
C2108 H2099 0.950 . S
C2108 C2107 1.398 . S
C2108 C2109 1.391 . S
C2109 H2097 0.950 . S
C2109 C2105 1.393 . S
C2109 C2108 1.391 . S
C2110 H2100 0.950 . S
C2110 C2111 1.386 . S
C2110 C2112 1.391 . S
C2111 C2110 1.386 . S
C2111 C2115 1.393 . S
C2112 H2101 0.950 . S
C2112 C2110 1.391 . S
C2112 C2113 1.400 . S
C2113 C2107 1.491 . S
C2113 C2112 1.400 . S
C2113 C2114 1.398 . S
C2114 H2102 0.950 . S
C2114 C2113 1.398 . S
C2114 C2115 1.391 . S
C2115 H2103 0.950 . S
C2115 C2111 1.393 . S
C2115 C2114 1.391 . S
H2116 C2124 0.950 . S
H2117 C2129 0.950 . S
H2118 C2126 0.950 . S
H2119 C2128 0.950 . S
H2120 C2130 0.950 . S
H2121 C2132 0.950 . S
H2122 C2134 0.950 . S
H2123 C2135 0.950 . S
C2124 H2116 0.950 . S
C2124 C2125 1.386 . S
C2124 C2126 1.391 . S
C2125 C2124 1.386 . S
C2125 C2129 1.393 . S
C2126 H2118 0.950 . S
C2126 C2124 1.391 . S
C2126 C2127 1.400 . S
C2127 C2126 1.400 . S
C2127 C2128 1.398 . S
C2127 C2133 1.491 . S
C2128 H2119 0.950 . S
C2128 C2127 1.398 . S
C2128 C2129 1.391 . S
C2129 H2117 0.950 . S
C2129 C2125 1.393 . S
C2129 C2128 1.391 . S
C2130 H2120 0.950 . S
C2130 C2131 1.386 . S
C2130 C2132 1.391 . S
C2131 C2130 1.386 . S
C2131 C2135 1.393 . S
C2132 H2121 0.950 . S
C2132 C2130 1.391 . S
C2132 C2133 1.400 . S
C2133 C2127 1.491 . S
C2133 C2132 1.400 . S
C2133 C2134 1.398 . S
C2134 H2122 0.950 . S
C2134 C2133 1.398 . S
C2134 C2135 1.391 . S
C2135 H2123 0.950 . S
C2135 C2131 1.393 . S
C2135 C2134 1.391 . S
H2136 C2144 0.950 . S
H2137 C2149 0.950 . S
H2138 C2146 0.950 . S
H2139 C2148 0.950 . S
H2140 C2150 0.950 . S
H2141 C2152 0.950 . S
H2142 C2154 0.950 . S
H2143 C2155 0.950 . S
C2144 H2136 0.950 . S
C2144 C2145 1.386 . S
C2144 C2146 1.391 . S
C2145 C2144 1.386 . S
C2145 C2149 1.393 . S
C2146 H2138 0.950 . S
C2146 C2144 1.391 . S
C2146 C2147 1.400 . S
C2147 C2146 1.400 . S
C2147 C2148 1.398 . S
C2147 C2153 1.491 . S
C2148 H2139 0.950 . S
C2148 C2147 1.398 . S
C2148 C2149 1.391 . S
C2149 H2137 0.950 . S
C2149 C2145 1.393 . S
C2149 C2148 1.391 . S
C2150 H2140 0.950 . S
C2150 C2151 1.386 . S
C2150 C2152 1.391 . S
C2151 C2150 1.386 . S
C2151 C2155 1.393 . S
C2152 H2141 0.950 . S
C2152 C2150 1.391 . S
C2152 C2153 1.400 . S
C2153 C2147 1.491 . S
C2153 C2152 1.400 . S
C2153 C2154 1.398 . S
C2154 H2142 0.950 . S
C2154 C2153 1.398 . S
C2154 C2155 1.391 . S
C2155 H2143 0.950 . S
C2155 C2151 1.393 . S
C2155 C2154 1.391 . S
H2156 C2164 0.950 . S
H2157 C2169 0.950 . S
H2158 C2166 0.950 . S
H2159 C2168 0.950 . S
H2160 C2170 0.950 . S
H2161 C2172 0.950 . S
H2162 C2174 0.950 . S
H2163 C2175 0.950 . S
C2164 H2156 0.950 . S
C2164 C2165 1.386 . S
C2164 C2166 1.391 . S
C2165 C2164 1.386 . S
C2165 C2169 1.393 . S
C2166 H2158 0.950 . S
C2166 C2164 1.391 . S
C2166 C2167 1.400 . S
C2167 C2166 1.400 . S
C2167 C2168 1.398 . S
C2167 C2173 1.491 . S
C2168 H2159 0.950 . S
C2168 C2167 1.398 . S
C2168 C2169 1.391 . S
C2169 H2157 0.950 . S
C2169 C2165 1.393 . S
C2169 C2168 1.391 . S
C2170 H2160 0.950 . S
C2170 C2171 1.386 . S
C2170 C2172 1.391 . S
C2171 C2170 1.386 . S
C2171 C2175 1.393 . S
C2172 H2161 0.950 . S
C2172 C2170 1.391 . S
C2172 C2173 1.400 . S
C2173 C2167 1.491 . S
C2173 C2172 1.400 . S
C2173 C2174 1.398 . S
C2174 H2162 0.950 . S
C2174 C2173 1.398 . S
C2174 C2175 1.391 . S
C2175 H2163 0.950 . S
C2175 C2171 1.393 . S
C2175 C2174 1.391 . S
H2176 C2184 0.950 . S
H2177 C2189 0.950 . S
H2178 C2186 0.950 . S
H2179 C2188 0.950 . S
H2180 C2190 0.950 . S
H2181 C2192 0.950 . S
H2182 C2194 0.950 . S
H2183 C2195 0.950 . S
C2184 H2176 0.950 . S
C2184 C2185 1.386 . S
C2184 C2186 1.391 . S
C2185 C2184 1.386 . S
C2185 C2189 1.393 . S
C2186 H2178 0.950 . S
C2186 C2184 1.391 . S
C2186 C2187 1.400 . S
C2187 C2186 1.400 . S
C2187 C2188 1.398 . S
C2187 C2193 1.491 . S
C2188 H2179 0.950 . S
C2188 C2187 1.398 . S
C2188 C2189 1.391 . S
C2189 H2177 0.950 . S
C2189 C2185 1.393 . S
C2189 C2188 1.391 . S
C2190 H2180 0.950 . S
C2190 C2191 1.386 . S
C2190 C2192 1.391 . S
C2191 C2190 1.386 . S
C2191 C2195 1.393 . S
C2192 H2181 0.950 . S
C2192 C2190 1.391 . S
C2192 C2193 1.400 . S
C2193 C2187 1.491 . S
C2193 C2192 1.400 . S
C2193 C2194 1.398 . S
C2194 H2182 0.950 . S
C2194 C2193 1.398 . S
C2194 C2195 1.391 . S
C2195 H2183 0.950 . S
C2195 C2191 1.393 . S
C2195 C2194 1.391 . S
H2196 C2204 0.950 . S
H2197 C2209 0.950 . S
H2198 C2206 0.950 . S
H2199 C2208 0.950 . S
H2200 C2210 0.950 . S
H2201 C2212 0.950 . S
H2202 C2214 0.950 . S
H2203 C2215 0.950 . S
C2204 H2196 0.950 . S
C2204 C2205 1.386 . S
C2204 C2206 1.391 . S
C2205 C2204 1.386 . S
C2205 C2209 1.393 . S
C2206 H2198 0.950 . S
C2206 C2204 1.391 . S
C2206 C2207 1.400 . S
C2207 C2206 1.400 . S
C2207 C2208 1.398 . S
C2207 C2213 1.491 . S
C2208 H2199 0.950 . S
C2208 C2207 1.398 . S
C2208 C2209 1.391 . S
C2209 H2197 0.950 . S
C2209 C2205 1.393 . S
C2209 C2208 1.391 . S
C2210 H2200 0.950 . S
C2210 C2211 1.386 . S
C2210 C2212 1.391 . S
C2211 C2210 1.386 . S
C2211 C2215 1.393 . S
C2212 H2201 0.950 . S
C2212 C2210 1.391 . S
C2212 C2213 1.400 . S
C2213 C2207 1.491 . S
C2213 C2212 1.400 . S
C2213 C2214 1.398 . S
C2214 H2202 0.950 . S
C2214 C2213 1.398 . S
C2214 C2215 1.391 . S
C2215 H2203 0.950 . S
C2215 C2211 1.393 . S
C2215 C2214 1.391 . S
H2216 C2224 0.950 . S
H2217 C2229 0.950 . S
H2218 C2226 0.950 . S
H2219 C2228 0.950 . S
H2220 C2230 0.950 . S
H2221 C2232 0.950 . S
H2222 C2234 0.950 . S
H2223 C2235 0.950 . S
C2224 H2216 0.950 . S
C2224 C2225 1.386 . S
C2224 C2226 1.391 . S
C2225 C2224 1.386 . S
C2225 C2229 1.393 . S
C2226 H2218 0.950 . S
C2226 C2224 1.391 . S
C2226 C2227 1.400 . S
C2227 C2226 1.400 . S
C2227 C2228 1.398 . S
C2227 C2233 1.491 . S
C2228 H2219 0.950 . S
C2228 C2227 1.398 . S
C2228 C2229 1.391 . S
C2229 H2217 0.950 . S
C2229 C2225 1.393 . S
C2229 C2228 1.391 . S
C2230 H2220 0.950 . S
C2230 C2231 1.386 . S
C2230 C2232 1.391 . S
C2231 C2230 1.386 . S
C2231 C2235 1.393 . S
C2232 H2221 0.950 . S
C2232 C2230 1.391 . S
C2232 C2233 1.400 . S
C2233 C2227 1.491 . S
C2233 C2232 1.400 . S
C2233 C2234 1.398 . S
C2234 H2222 0.950 . S
C2234 C2233 1.398 . S
C2234 C2235 1.391 . S
C2235 H2223 0.950 . S
C2235 C2231 1.393 . S
C2235 C2234 1.391 . S
H2236 C2244 0.950 . S
H2237 C2249 0.950 . S
H2238 C2246 0.950 . S
H2239 C2248 0.950 . S
H2240 C2250 0.950 . S
H2241 C2252 0.950 . S
H2242 C2254 0.950 . S
H2243 C2255 0.950 . S
C2244 H2236 0.950 . S
C2244 C2245 1.386 . S
C2244 C2246 1.391 . S
C2245 C2244 1.386 . S
C2245 C2249 1.393 . S
C2246 H2238 0.950 . S
C2246 C2244 1.391 . S
C2246 C2247 1.400 . S
C2247 C2246 1.400 . S
C2247 C2248 1.398 . S
C2247 C2253 1.491 . S
C2248 H2239 0.950 . S
C2248 C2247 1.398 . S
C2248 C2249 1.391 . S
C2249 H2237 0.950 . S
C2249 C2245 1.393 . S
C2249 C2248 1.391 . S
C2250 H2240 0.950 . S
C2250 C2251 1.386 . S
C2250 C2252 1.391 . S
C2251 C2250 1.386 . S
C2251 C2255 1.393 . S
C2252 H2241 0.950 . S
C2252 C2250 1.391 . S
C2252 C2253 1.400 . S
C2253 C2247 1.491 . S
C2253 C2252 1.400 . S
C2253 C2254 1.398 . S
C2254 H2242 0.950 . S
C2254 C2253 1.398 . S
C2254 C2255 1.391 . S
C2255 H2243 0.950 . S
C2255 C2251 1.393 . S
C2255 C2254 1.391 . S
H2256 C2264 0.950 . S
H2257 C2269 0.950 . S
H2258 C2266 0.950 . S
H2259 C2268 0.950 . S
H2260 C2270 0.950 . S
H2261 C2272 0.950 . S
H2262 C2274 0.950 . S
H2263 C2275 0.950 . S
C2264 H2256 0.950 . S
C2264 C2265 1.386 . S
C2264 C2266 1.391 . S
C2265 C2264 1.386 . S
C2265 C2269 1.393 . S
C2266 H2258 0.950 . S
C2266 C2264 1.391 . S
C2266 C2267 1.400 . S
C2267 C2266 1.400 . S
C2267 C2268 1.398 . S
C2267 C2273 1.491 . S
C2268 H2259 0.950 . S
C2268 C2267 1.398 . S
C2268 C2269 1.391 . S
C2269 H2257 0.950 . S
C2269 C2265 1.393 . S
C2269 C2268 1.391 . S
C2270 H2260 0.950 . S
C2270 C2271 1.386 . S
C2270 C2272 1.391 . S
C2271 C2270 1.386 . S
C2271 C2275 1.393 . S
C2272 H2261 0.950 . S
C2272 C2270 1.391 . S
C2272 C2273 1.400 . S
C2273 C2267 1.491 . S
C2273 C2272 1.400 . S
C2273 C2274 1.398 . S
C2274 H2262 0.950 . S
C2274 C2273 1.398 . S
C2274 C2275 1.391 . S
C2275 H2263 0.950 . S
C2275 C2271 1.393 . S
C2275 C2274 1.391 . S
H2276 C2284 0.950 . S
H2277 C2289 0.950 . S
H2278 C2286 0.950 . S
H2279 C2288 0.950 . S
H2280 C2290 0.950 . S
H2281 C2292 0.950 . S
H2282 C2294 0.950 . S
H2283 C2295 0.950 . S
C2284 H2276 0.950 . S
C2284 C2285 1.386 . S
C2284 C2286 1.391 . S
C2285 C2284 1.386 . S
C2285 C2289 1.393 . S
C2286 H2278 0.950 . S
C2286 C2284 1.391 . S
C2286 C2287 1.400 . S
C2287 C2286 1.400 . S
C2287 C2288 1.398 . S
C2287 C2293 1.491 . S
C2288 H2279 0.950 . S
C2288 C2287 1.398 . S
C2288 C2289 1.391 . S
C2289 H2277 0.950 . S
C2289 C2285 1.393 . S
C2289 C2288 1.391 . S
C2290 H2280 0.950 . S
C2290 C2291 1.386 . S
C2290 C2292 1.391 . S
C2291 C2290 1.386 . S
C2291 C2295 1.393 . S
C2292 H2281 0.950 . S
C2292 C2290 1.391 . S
C2292 C2293 1.400 . S
C2293 C2287 1.491 . S
C2293 C2292 1.400 . S
C2293 C2294 1.398 . S
C2294 H2282 0.950 . S
C2294 C2293 1.398 . S
C2294 C2295 1.391 . S
C2295 H2283 0.950 . S
C2295 C2291 1.393 . S
C2295 C2294 1.391 . S
H2296 C2304 0.950 . S
H2297 C2309 0.950 . S
H2298 C2306 0.950 . S
H2299 C2308 0.950 . S
H2300 C2310 0.950 . S
H2301 C2312 0.950 . S
H2302 C2314 0.950 . S
H2303 C2315 0.950 . S
C2304 H2296 0.950 . S
C2304 C2305 1.386 . S
C2304 C2306 1.391 . S
C2305 C2304 1.386 . S
C2305 C2309 1.393 . S
C2306 H2298 0.950 . S
C2306 C2304 1.391 . S
C2306 C2307 1.400 . S
C2307 C2306 1.400 . S
C2307 C2308 1.398 . S
C2307 C2313 1.491 . S
C2308 H2299 0.950 . S
C2308 C2307 1.398 . S
C2308 C2309 1.391 . S
C2309 H2297 0.950 . S
C2309 C2305 1.393 . S
C2309 C2308 1.391 . S
C2310 H2300 0.950 . S
C2310 C2311 1.386 . S
C2310 C2312 1.391 . S
C2311 C2310 1.386 . S
C2311 C2315 1.393 . S
C2312 H2301 0.950 . S
C2312 C2310 1.391 . S
C2312 C2313 1.400 . S
C2313 C2307 1.491 . S
C2313 C2312 1.400 . S
C2313 C2314 1.398 . S
C2314 H2302 0.950 . S
C2314 C2313 1.398 . S
C2314 C2315 1.391 . S
C2315 H2303 0.950 . S
C2315 C2311 1.393 . S
C2315 C2314 1.391 . S
H2316 C2324 0.950 . S
H2317 C2329 0.950 . S
H2318 C2326 0.950 . S
H2319 C2328 0.950 . S
H2320 C2330 0.950 . S
H2321 C2332 0.950 . S
H2322 C2334 0.950 . S
H2323 C2335 0.950 . S
C2324 H2316 0.950 . S
C2324 C2325 1.386 . S
C2324 C2326 1.391 . S
C2325 C2324 1.386 . S
C2325 C2329 1.393 . S
C2326 H2318 0.950 . S
C2326 C2324 1.391 . S
C2326 C2327 1.400 . S
C2327 C2326 1.400 . S
C2327 C2328 1.398 . S
C2327 C2333 1.491 . S
C2328 H2319 0.950 . S
C2328 C2327 1.398 . S
C2328 C2329 1.391 . S
C2329 H2317 0.950 . S
C2329 C2325 1.393 . S
C2329 C2328 1.391 . S
C2330 H2320 0.950 . S
C2330 C2331 1.386 . S
C2330 C2332 1.391 . S
C2331 C2330 1.386 . S
C2331 C2335 1.393 . S
C2332 H2321 0.950 . S
C2332 C2330 1.391 . S
C2332 C2333 1.400 . S
C2333 C2327 1.491 . S
C2333 C2332 1.400 . S
C2333 C2334 1.398 . S
C2334 H2322 0.950 . S
C2334 C2333 1.398 . S
C2334 C2335 1.391 . S
C2335 H2323 0.950 . S
C2335 C2331 1.393 . S
C2335 C2334 1.391 . S
H2336 C2344 0.950 . S
H2337 C2349 0.950 . S
H2338 C2346 0.950 . S
H2339 C2348 0.950 . S
H2340 C2350 0.950 . S
H2341 C2352 0.950 . S
H2342 C2354 0.950 . S
H2343 C2355 0.950 . S
C2344 H2336 0.950 . S
C2344 C2345 1.386 . S
C2344 C2346 1.391 . S
C2345 C2344 1.386 . S
C2345 C2349 1.393 . S
C2346 H2338 0.950 . S
C2346 C2344 1.391 . S
C2346 C2347 1.400 . S
C2347 C2346 1.400 . S
C2347 C2348 1.398 . S
C2347 C2353 1.491 . S
C2348 H2339 0.950 . S
C2348 C2347 1.398 . S
C2348 C2349 1.391 . S
C2349 H2337 0.950 . S
C2349 C2345 1.393 . S
C2349 C2348 1.391 . S
C2350 H2340 0.950 . S
C2350 C2351 1.386 . S
C2350 C2352 1.391 . S
C2351 C2350 1.386 . S
C2351 C2355 1.393 . S
C2352 H2341 0.950 . S
C2352 C2350 1.391 . S
C2352 C2353 1.400 . S
C2353 C2347 1.491 . S
C2353 C2352 1.400 . S
C2353 C2354 1.398 . S
C2354 H2342 0.950 . S
C2354 C2353 1.398 . S
C2354 C2355 1.391 . S
C2355 H2343 0.950 . S
C2355 C2351 1.393 . S
C2355 C2354 1.391 . S
H2356 C2364 0.950 . S
H2357 C2369 0.950 . S
H2358 C2366 0.950 . S
H2359 C2368 0.950 . S
H2360 C2370 0.950 . S
H2361 C2372 0.950 . S
H2362 C2374 0.950 . S
H2363 C2375 0.950 . S
C2364 H2356 0.950 . S
C2364 C2365 1.386 . S
C2364 C2366 1.391 . S
C2365 C2364 1.386 . S
C2365 C2369 1.393 1_565 S
C2366 H2358 0.950 . S
C2366 C2364 1.391 . S
C2366 C2367 1.400 . S
C2367 C2366 1.400 . S
C2367 C2368 1.398 1_565 S
C2367 C2373 1.491 1_655 S
C2368 H2359 0.950 . S
C2368 C2367 1.398 1_545 S
C2368 C2369 1.391 . S
C2369 H2357 0.950 . S
C2369 C2365 1.393 1_545 S
C2369 C2368 1.391 . S
C2370 H2360 0.950 . S
C2370 C2371 1.386 1_545 S
C2370 C2372 1.391 . S
C2371 C2370 1.386 1_565 S
C2371 C2375 1.393 . S
C2372 H2361 0.950 . S
C2372 C2370 1.391 . S
C2372 C2373 1.400 1_545 S
C2373 C2367 1.491 1_455 S
C2373 C2372 1.400 1_565 S
C2373 C2374 1.398 . S
C2374 H2362 0.950 . S
C2374 C2373 1.398 . S
C2374 C2375 1.391 . S
C2375 H2363 0.950 . S
C2375 C2371 1.393 . S
C2375 C2374 1.391 . S
H2376 C2384 0.950 . S
H2377 C2389 0.950 . S
H2378 C2386 0.950 . S
H2379 C2388 0.950 . S
H2380 C2390 0.950 . S
H2381 C2392 0.950 . S
H2382 C2394 0.950 . S
H2383 C2395 0.950 . S
C2384 H2376 0.950 . S
C2384 C2385 1.386 . S
C2384 C2386 1.391 . S
C2385 C2384 1.386 . S
C2385 C2389 1.393 . S
C2386 H2378 0.950 . S
C2386 C2384 1.391 . S
C2386 C2387 1.400 . S
C2387 C2386 1.400 . S
C2387 C2388 1.398 . S
C2387 C2393 1.491 . S
C2388 H2379 0.950 . S
C2388 C2387 1.398 . S
C2388 C2389 1.391 . S
C2389 H2377 0.950 . S
C2389 C2385 1.393 . S
C2389 C2388 1.391 . S
C2390 H2380 0.950 . S
C2390 C2391 1.386 . S
C2390 C2392 1.391 . S
C2391 C2390 1.386 . S
C2391 C2395 1.393 . S
C2392 H2381 0.950 . S
C2392 C2390 1.391 . S
C2392 C2393 1.400 . S
C2393 C2387 1.491 . S
C2393 C2392 1.400 . S
C2393 C2394 1.398 . S
C2394 H2382 0.950 . S
C2394 C2393 1.398 . S
C2394 C2395 1.391 . S
C2395 H2383 0.950 . S
C2395 C2391 1.393 . S
C2395 C2394 1.391 . S
H2396 C2404 0.950 . S
H2397 C2409 0.950 . S
H2398 C2406 0.950 . S
H2399 C2408 0.950 . S
H2400 C2410 0.950 . S
H2401 C2412 0.950 . S
H2402 C2414 0.950 . S
H2403 C2415 0.950 . S
C2404 H2396 0.950 . S
C2404 C2405 1.386 1_565 S
C2404 C2406 1.391 . S
C2405 C2404 1.386 1_545 S
C2405 C2409 1.393 . S
C2406 H2398 0.950 . S
C2406 C2404 1.391 . S
C2406 C2407 1.400 1_565 S
C2407 C2406 1.400 1_545 S
C2407 C2408 1.398 . S
C2407 C2413 1.491 . S
C2408 H2399 0.950 . S
C2408 C2407 1.398 . S
C2408 C2409 1.391 . S
C2409 H2397 0.950 . S
C2409 C2405 1.393 . S
C2409 C2408 1.391 . S
C2410 H2400 0.950 . S
C2410 C2411 1.386 . S
C2410 C2412 1.391 . S
C2411 C2410 1.386 . S
C2411 C2415 1.393 1_545 S
C2412 H2401 0.950 . S
C2412 C2410 1.391 . S
C2412 C2413 1.400 . S
C2413 C2407 1.491 . S
C2413 C2412 1.400 . S
C2413 C2414 1.398 1_545 S
C2414 H2402 0.950 . S
C2414 C2413 1.398 1_565 S
C2414 C2415 1.391 . S
C2415 H2403 0.950 . S
C2415 C2411 1.393 1_565 S
C2415 C2414 1.391 . S
H2416 C2424 0.950 . S
H2417 C2429 0.950 . S
H2418 C2426 0.950 . S
H2419 C2428 0.950 . S
H2420 C2430 0.950 . S
H2421 C2432 0.950 . S
H2422 C2434 0.950 . S
H2423 C2435 0.950 . S
C2424 H2416 0.950 . S
C2424 C2425 1.386 . S
C2424 C2426 1.391 . S
C2425 C2424 1.386 . S
C2425 C2429 1.393 . S
C2426 H2418 0.950 . S
C2426 C2424 1.391 . S
C2426 C2427 1.400 . S
C2427 C2426 1.400 . S
C2427 C2428 1.398 . S
C2427 C2433 1.491 . S
C2428 H2419 0.950 . S
C2428 C2427 1.398 . S
C2428 C2429 1.391 . S
C2429 H2417 0.950 . S
C2429 C2425 1.393 . S
C2429 C2428 1.391 . S
C2430 H2420 0.950 . S
C2430 C2431 1.386 . S
C2430 C2432 1.391 . S
C2431 C2430 1.386 . S
C2431 C2435 1.393 . S
C2432 H2421 0.950 . S
C2432 C2430 1.391 . S
C2432 C2433 1.400 . S
C2433 C2427 1.491 . S
C2433 C2432 1.400 . S
C2433 C2434 1.398 . S
C2434 H2422 0.950 . S
C2434 C2433 1.398 . S
C2434 C2435 1.391 . S
C2435 H2423 0.950 . S
C2435 C2431 1.393 . S
C2435 C2434 1.391 . S
H2436 C2444 0.950 . S
H2437 C2449 0.950 . S
H2438 C2446 0.950 . S
H2439 C2448 0.950 . S
H2440 C2450 0.950 . S
H2441 C2452 0.950 . S
H2442 C2454 0.950 . S
H2443 C2455 0.950 . S
C2444 H2436 0.950 . S
C2444 C2445 1.386 . S
C2444 C2446 1.391 . S
C2445 C2444 1.386 . S
C2445 C2449 1.393 1_565 S
C2446 H2438 0.950 . S
C2446 C2444 1.391 . S
C2446 C2447 1.400 . S
C2447 C2446 1.400 . S
C2447 C2448 1.398 1_565 S
C2447 C2453 1.491 . S
C2448 H2439 0.950 . S
C2448 C2447 1.398 1_545 S
C2448 C2449 1.391 . S
C2449 H2437 0.950 . S
C2449 C2445 1.393 1_545 S
C2449 C2448 1.391 . S
C2450 H2440 0.950 . S
C2450 C2451 1.386 1_545 S
C2450 C2452 1.391 . S
C2451 C2450 1.386 1_565 S
C2451 C2455 1.393 . S
C2452 H2441 0.950 . S
C2452 C2450 1.391 . S
C2452 C2453 1.400 1_545 S
C2453 C2447 1.491 . S
C2453 C2452 1.400 1_565 S
C2453 C2454 1.398 . S
C2454 H2442 0.950 . S
C2454 C2453 1.398 . S
C2454 C2455 1.391 . S
C2455 H2443 0.950 . S
C2455 C2451 1.393 . S
C2455 C2454 1.391 . S
H2456 C2464 0.950 . S
H2457 C2469 0.950 . S
H2458 C2466 0.950 . S
H2459 C2468 0.950 . S
H2460 C2470 0.950 . S
H2461 C2472 0.950 . S
H2462 C2474 0.950 . S
H2463 C2475 0.950 . S
C2464 H2456 0.950 . S
C2464 C2465 1.386 . S
C2464 C2466 1.391 . S
C2465 C2464 1.386 . S
C2465 C2469 1.393 . S
C2466 H2458 0.950 . S
C2466 C2464 1.391 . S
C2466 C2467 1.400 . S
C2467 C2466 1.400 . S
C2467 C2468 1.398 . S
C2467 C2473 1.491 . S
C2468 H2459 0.950 . S
C2468 C2467 1.398 . S
C2468 C2469 1.391 . S
C2469 H2457 0.950 . S
C2469 C2465 1.393 . S
C2469 C2468 1.391 . S
C2470 H2460 0.950 . S
C2470 C2471 1.386 . S
C2470 C2472 1.391 . S
C2471 C2470 1.386 . S
C2471 C2475 1.393 . S
C2472 H2461 0.950 . S
C2472 C2470 1.391 . S
C2472 C2473 1.400 . S
C2473 C2467 1.491 . S
C2473 C2472 1.400 . S
C2473 C2474 1.398 . S
C2474 H2462 0.950 . S
C2474 C2473 1.398 . S
C2474 C2475 1.391 . S
C2475 H2463 0.950 . S
C2475 C2471 1.393 . S
C2475 C2474 1.391 . S
H2476 C2484 0.950 . S
H2477 C2489 0.950 . S
H2478 C2486 0.950 . S
H2479 C2488 0.950 . S
H2480 C2490 0.950 . S
H2481 C2492 0.950 . S
H2482 C2494 0.950 . S
H2483 C2495 0.950 . S
C2484 H2476 0.950 . S
C2484 C2485 1.386 1_565 S
C2484 C2486 1.391 . S
C2485 C2484 1.386 1_545 S
C2485 C2489 1.393 . S
C2486 H2478 0.950 . S
C2486 C2484 1.391 . S
C2486 C2487 1.400 1_565 S
C2487 C2486 1.400 1_545 S
C2487 C2488 1.398 . S
C2487 C2493 1.491 1_455 S
C2488 H2479 0.950 . S
C2488 C2487 1.398 . S
C2488 C2489 1.391 . S
C2489 H2477 0.950 . S
C2489 C2485 1.393 . S
C2489 C2488 1.391 . S
C2490 H2480 0.950 . S
C2490 C2491 1.386 . S
C2490 C2492 1.391 . S
C2491 C2490 1.386 . S
C2491 C2495 1.393 1_545 S
C2492 H2481 0.950 . S
C2492 C2490 1.391 . S
C2492 C2493 1.400 . S
C2493 C2487 1.491 1_655 S
C2493 C2492 1.400 . S
C2493 C2494 1.398 1_545 S
C2494 H2482 0.950 . S
C2494 C2493 1.398 1_565 S
C2494 C2495 1.391 . S
C2495 H2483 0.950 . S
C2495 C2491 1.393 1_565 S
C2495 C2494 1.391 . S
H2496 C2504 0.950 . S
H2497 C2509 0.950 . S
H2498 C2506 0.950 . S
H2499 C2508 0.950 . S
H2500 C2510 0.950 . S
H2501 C2512 0.950 . S
H2502 C2514 0.950 . S
H2503 C2515 0.950 . S
C2504 H2496 0.950 . S
C2504 C2505 1.386 . S
C2504 C2506 1.391 . S
C2505 C2504 1.386 . S
C2505 C2509 1.393 . S
C2506 H2498 0.950 . S
C2506 C2504 1.391 . S
C2506 C2507 1.400 . S
C2507 C2506 1.400 . S
C2507 C2508 1.398 . S
C2507 C2513 1.491 . S
C2508 H2499 0.950 . S
C2508 C2507 1.398 . S
C2508 C2509 1.391 . S
C2509 H2497 0.950 . S
C2509 C2505 1.393 . S
C2509 C2508 1.391 . S
C2510 H2500 0.950 . S
C2510 C2511 1.386 . S
C2510 C2512 1.391 . S
C2511 C2510 1.386 . S
C2511 C2515 1.393 . S
C2512 H2501 0.950 . S
C2512 C2510 1.391 . S
C2512 C2513 1.400 . S
C2513 C2507 1.491 . S
C2513 C2512 1.400 . S
C2513 C2514 1.398 . S
C2514 H2502 0.950 . S
C2514 C2513 1.398 . S
C2514 C2515 1.391 . S
C2515 H2503 0.950 . S
C2515 C2511 1.393 . S
C2515 C2514 1.391 . S
H2516 C2524 0.950 . S
H2517 C2529 0.950 . S
H2518 C2526 0.950 . S
H2519 C2528 0.950 . S
H2520 C2530 0.950 . S
H2521 C2532 0.950 . S
H2522 C2534 0.950 . S
H2523 C2535 0.950 . S
C2524 H2516 0.950 . S
C2524 C2525 1.386 . S
C2524 C2526 1.391 . S
C2525 C2524 1.386 . S
C2525 C2529 1.393 . S
C2526 H2518 0.950 . S
C2526 C2524 1.391 . S
C2526 C2527 1.400 . S
C2527 C2526 1.400 . S
C2527 C2528 1.398 . S
C2527 C2533 1.491 . S
C2528 H2519 0.950 . S
C2528 C2527 1.398 . S
C2528 C2529 1.391 . S
C2529 H2517 0.950 . S
C2529 C2525 1.393 . S
C2529 C2528 1.391 . S
C2530 H2520 0.950 . S
C2530 C2531 1.386 . S
C2530 C2532 1.391 . S
C2531 C2530 1.386 . S
C2531 C2535 1.393 . S
C2532 H2521 0.950 . S
C2532 C2530 1.391 . S
C2532 C2533 1.400 . S
C2533 C2527 1.491 . S
C2533 C2532 1.400 . S
C2533 C2534 1.398 . S
C2534 H2522 0.950 . S
C2534 C2533 1.398 . S
C2534 C2535 1.391 . S
C2535 H2523 0.950 . S
C2535 C2531 1.393 . S
C2535 C2534 1.391 . S
H2536 C2544 0.950 . S
H2537 C2549 0.950 . S
H2538 C2546 0.950 . S
H2539 C2548 0.950 . S
H2540 C2550 0.950 . S
H2541 C2552 0.950 . S
H2542 C2554 0.950 . S
H2543 C2555 0.950 . S
C2544 H2536 0.950 . S
C2544 C2545 1.386 . S
C2544 C2546 1.391 . S
C2545 C2544 1.386 . S
C2545 C2549 1.393 . S
C2546 H2538 0.950 . S
C2546 C2544 1.391 . S
C2546 C2547 1.400 . S
C2547 C2546 1.400 . S
C2547 C2548 1.398 . S
C2547 C2553 1.491 . S
C2548 H2539 0.950 . S
C2548 C2547 1.398 . S
C2548 C2549 1.391 . S
C2549 H2537 0.950 . S
C2549 C2545 1.393 . S
C2549 C2548 1.391 . S
C2550 H2540 0.950 . S
C2550 C2551 1.386 . S
C2550 C2552 1.391 . S
C2551 C2550 1.386 . S
C2551 C2555 1.393 . S
C2552 H2541 0.950 . S
C2552 C2550 1.391 . S
C2552 C2553 1.400 . S
C2553 C2547 1.491 . S
C2553 C2552 1.400 . S
C2553 C2554 1.398 . S
C2554 H2542 0.950 . S
C2554 C2553 1.398 . S
C2554 C2555 1.391 . S
C2555 H2543 0.950 . S
C2555 C2551 1.393 . S
C2555 C2554 1.391 . S
H2556 C2564 0.950 . S
H2557 C2569 0.950 . S
H2558 C2566 0.950 . S
H2559 C2568 0.950 . S
H2560 C2570 0.950 . S
H2561 C2572 0.950 . S
H2562 C2574 0.950 . S
H2563 C2575 0.950 . S
C2564 H2556 0.950 . S
C2564 C2565 1.386 . S
C2564 C2566 1.391 . S
C2565 C2564 1.386 . S
C2565 C2569 1.393 . S
C2566 H2558 0.950 . S
C2566 C2564 1.391 . S
C2566 C2567 1.400 . S
C2567 C2566 1.400 . S
C2567 C2568 1.398 . S
C2567 C2573 1.491 . S
C2568 H2559 0.950 . S
C2568 C2567 1.398 . S
C2568 C2569 1.391 . S
C2569 H2557 0.950 . S
C2569 C2565 1.393 . S
C2569 C2568 1.391 . S
C2570 H2560 0.950 . S
C2570 C2571 1.386 . S
C2570 C2572 1.391 . S
C2571 C2570 1.386 . S
C2571 C2575 1.393 . S
C2572 H2561 0.950 . S
C2572 C2570 1.391 . S
C2572 C2573 1.400 . S
C2573 C2567 1.491 . S
C2573 C2572 1.400 . S
C2573 C2574 1.398 . S
C2574 H2562 0.950 . S
C2574 C2573 1.398 . S
C2574 C2575 1.391 . S
C2575 H2563 0.950 . S
C2575 C2571 1.393 . S
C2575 C2574 1.391 . S
H2576 C2584 0.950 . S
H2577 C2589 0.950 . S
H2578 C2586 0.950 . S
H2579 C2588 0.950 . S
H2580 C2590 0.950 . S
H2581 C2592 0.950 . S
H2582 C2594 0.950 . S
H2583 C2595 0.950 . S
C2584 H2576 0.950 . S
C2584 C2585 1.386 . S
C2584 C2586 1.391 . S
C2585 C2584 1.386 . S
C2585 C2589 1.393 . S
C2586 H2578 0.950 . S
C2586 C2584 1.391 . S
C2586 C2587 1.400 . S
C2587 C2586 1.400 . S
C2587 C2588 1.398 . S
C2587 C2593 1.491 . S
C2588 H2579 0.950 . S
C2588 C2587 1.398 . S
C2588 C2589 1.391 . S
C2589 H2577 0.950 . S
C2589 C2585 1.393 . S
C2589 C2588 1.391 . S
C2590 H2580 0.950 . S
C2590 C2591 1.386 . S
C2590 C2592 1.391 . S
C2591 C2590 1.386 . S
C2591 C2595 1.393 . S
C2592 H2581 0.950 . S
C2592 C2590 1.391 . S
C2592 C2593 1.400 . S
C2593 C2587 1.491 . S
C2593 C2592 1.400 . S
C2593 C2594 1.398 . S
C2594 H2582 0.950 . S
C2594 C2593 1.398 . S
C2594 C2595 1.391 . S
C2595 H2583 0.950 . S
C2595 C2591 1.393 . S
C2595 C2594 1.391 . S
H2596 C2604 0.950 . S
H2597 C2609 0.950 . S
H2598 C2606 0.950 . S
H2599 C2608 0.950 . S
H2600 C2610 0.950 . S
H2601 C2612 0.950 . S
H2602 C2614 0.950 . S
H2603 C2615 0.950 . S
C2604 H2596 0.950 . S
C2604 C2605 1.386 . S
C2604 C2606 1.391 . S
C2605 C2604 1.386 . S
C2605 C2609 1.393 . S
C2606 H2598 0.950 . S
C2606 C2604 1.391 . S
C2606 C2607 1.400 . S
C2607 C2606 1.400 . S
C2607 C2608 1.398 . S
C2607 C2613 1.491 1_455 S
C2608 H2599 0.950 . S
C2608 C2607 1.398 . S
C2608 C2609 1.391 . S
C2609 H2597 0.950 . S
C2609 C2605 1.393 . S
C2609 C2608 1.391 . S
C2610 H2600 0.950 . S
C2610 C2611 1.386 . S
C2610 C2612 1.391 . S
C2611 C2610 1.386 . S
C2611 C2615 1.393 . S
C2612 H2601 0.950 . S
C2612 C2610 1.391 . S
C2612 C2613 1.400 . S
C2613 C2607 1.491 1_655 S
C2613 C2612 1.400 . S
C2613 C2614 1.398 . S
C2614 H2602 0.950 . S
C2614 C2613 1.398 . S
C2614 C2615 1.391 . S
C2615 H2603 0.950 . S
C2615 C2611 1.393 . S
C2615 C2614 1.391 . S
H2616 C2624 0.950 . S
H2617 C2629 0.950 . S
H2618 C2626 0.950 . S
H2619 C2628 0.950 . S
H2620 C2630 0.950 . S
H2621 C2632 0.950 . S
H2622 C2634 0.950 . S
H2623 C2635 0.950 . S
C2624 H2616 0.950 . S
C2624 C2625 1.386 . S
C2624 C2626 1.391 . S
C2625 C2624 1.386 . S
C2625 C2629 1.393 . S
C2626 H2618 0.950 . S
C2626 C2624 1.391 . S
C2626 C2627 1.400 . S
C2627 C2626 1.400 . S
C2627 C2628 1.398 . S
C2627 C2633 1.491 1_455 S
C2628 H2619 0.950 . S
C2628 C2627 1.398 . S
C2628 C2629 1.391 . S
C2629 H2617 0.950 . S
C2629 C2625 1.393 . S
C2629 C2628 1.391 . S
C2630 H2620 0.950 . S
C2630 C2631 1.386 . S
C2630 C2632 1.391 . S
C2631 C2630 1.386 . S
C2631 C2635 1.393 . S
C2632 H2621 0.950 . S
C2632 C2630 1.391 . S
C2632 C2633 1.400 . S
C2633 C2627 1.491 1_655 S
C2633 C2632 1.400 . S
C2633 C2634 1.398 . S
C2634 H2622 0.950 . S
C2634 C2633 1.398 . S
C2634 C2635 1.391 . S
C2635 H2623 0.950 . S
C2635 C2631 1.393 . S
C2635 C2634 1.391 . S
H2636 C2644 0.950 . S
H2637 C2649 0.950 . S
H2638 C2646 0.950 . S
H2639 C2648 0.950 . S
H2640 C2650 0.950 . S
H2641 C2652 0.950 . S
H2642 C2654 0.950 . S
H2643 C2655 0.950 . S
C2644 H2636 0.950 . S
C2644 C2645 1.386 . S
C2644 C2646 1.391 . S
C2645 C2644 1.386 . S
C2645 C2649 1.393 . S
C2646 H2638 0.950 . S
C2646 C2644 1.391 . S
C2646 C2647 1.400 . S
C2647 C2646 1.400 . S
C2647 C2648 1.398 . S
C2647 C2653 1.491 . S
C2648 H2639 0.950 . S
C2648 C2647 1.398 . S
C2648 C2649 1.391 . S
C2649 H2637 0.950 . S
C2649 C2645 1.393 . S
C2649 C2648 1.391 . S
C2650 H2640 0.950 . S
C2650 C2651 1.386 . S
C2650 C2652 1.391 . S
C2651 C2650 1.386 . S
C2651 C2655 1.393 . S
C2652 H2641 0.950 . S
C2652 C2650 1.391 . S
C2652 C2653 1.400 . S
C2653 C2647 1.491 . S
C2653 C2652 1.400 . S
C2653 C2654 1.398 . S
C2654 H2642 0.950 . S
C2654 C2653 1.398 . S
C2654 C2655 1.391 . S
C2655 H2643 0.950 . S
C2655 C2651 1.393 . S
C2655 C2654 1.391 . S
C1065 N46 2.073 . S
C1071 C21 2.008 . S
C1085 C54 1.762 . S
C1091 N79 1.857 . S
C1105 C87 1.998 . S
C1111 N112 2.084 . S
C1125 C120 1.752 . S
C1131 N13 1.847 . S
C1145 C153 1.995 . S
C1151 N244 2.084 . S
C1165 N145 1.848 . S
C1171 C186 1.755 . S
C1185 C219 1.989 . S
C1191 N178 2.083 . S
C1205 C252 1.767 . S
C1211 N211 1.846 . S
C1225 N310 2.077 . S
C1231 C285 2.008 . S
C1245 N343 1.850 . S
C1251 C318 1.749 . S
C1265 C351 1.981 . S
C1271 N376 2.076 . S
C1285 N277 1.853 . S
C1291 C384 1.747 . S
C1305 C417 1.996 . S
C1311 N508 2.072 . S
C1325 C450 1.752 . S
C1331 N409 1.851 . S
C1345 N442 2.080 . S
C1351 C483 2.004 . S
C1365 N475 1.848 . S
C1371 C516 1.754 . S
C1385 N574 1.990 . S
C1391 C549 1.894 . S
C1405 C582 1.925 . S
C1411 N607 2.000 . S
C1425 N640 1.991 . S
C1431 C615 1.917 . S
C1445 N541 1.998 . S
C1451 C648 1.907 . S
C1465 N772 1.986 . S
C1471 C681 1.900 . S
C1485 C714 1.914 . S
C1491 N673 2.008 . S
C1505 N706 1.990 . S
C1511 C747 1.916 . S
C1525 C780 1.919 . S
C1531 N739 2.009 . S
C1545 N838 1.998 . S
C1551 C813 1.908 . S
C1565 C846 1.928 . S
C1571 N871 2.007 . S
C1585 C879 1.913 . S
C1591 N904 1.988 . S
C1605 C912 1.910 . S
C1611 N805 1.997 . S
C1625 N1036 1.987 . S
C1631 C945 1.908 . S
C1645 N937 1.998 . S
C1651 C978 1.920 . S
C1665 N970 1.993 . S
C1671 C1011 1.919 . S
C1685 N1003 2.001 . S
C1691 C1044 1.905 . S
C1705 N200 0.549 . S
C1711 N2 0.468 . S
C1725 N35 0.558 . S
C1731 N233 0.590 . S
C1745 N68 0.498 . S
C1751 N134 0.558 . S
C1765 N101 0.579 . S
C1771 N167 0.565 . S
C1785 N464 0.512 . S
C1791 N266 0.550 . S
C1805 N497 0.564 . S
C1811 N299 0.581 . S
C1825 N332 0.490 . S
C1831 N398 0.561 . S
C1845 N431 0.598 . S
C1851 N365 0.551 . S
C1865 N530 0.517 . S
C1871 N728 0.558 . S
C1885 N563 0.513 . S
C1891 N761 0.593 . S
C1905 N662 0.569 . S
C1911 N596 0.563 . S
C1925 N695 0.521 . S
C1931 N629 0.572 . S
C1945 N992 0.511 . S
C1951 N794 0.566 . S
C1965 N1025 0.555 . S
C1971 N827 0.533 . S
C1985 N926 0.581 . S
C1991 N860 0.547 . S
C2005 N959 0.521 . S
C2011 N893 0.572 . S
C2025 C183 0.729 . S
C2031 C18 0.726 . S
C2045 C51 0.691 . S
C2051 C216 0.699 . S
C2065 C84 0.696 . S
C2071 C249 0.698 . S
C2085 C117 0.688 . S
C2091 C150 0.716 . S
C2105 C447 0.698 . S
C2111 C282 0.693 . S
C2125 C315 0.731 . S
C2131 C480 0.719 . S
C2145 C513 0.715 . S
C2151 C348 0.735 . S
C2165 C381 0.721 . S
C2171 C414 0.695 . S
C2185 C546 0.635 . S
C2191 C711 0.612 . S
C2205 C744 0.635 . S
C2211 C579 0.613 . S
C2225 C777 0.593 . S
C2231 C612 0.590 . S
C2245 C645 0.617 . S
C2251 C678 0.586 . S
C2265 C810 0.590 . S
C2271 C975 0.625 . S
C2285 C1008 0.589 . S
C2291 C843 0.623 . S
C2305 C1041 0.584 . S
C2311 C876 0.606 . S
C2325 C942 0.598 . S
C2331 C909 0.631 . S
C2345 C7 0.871 . S
C2351 C997 0.883 . S
C2365 C502 0.886 . S
C2371 C40 0.855 . S
C2385 C931 0.893 . S
C2391 C73 0.862 . S
C2405 C106 0.879 . S
C2411 C436 0.862 . S
C2425 C139 0.862 . S
C2431 C865 0.893 . S
C2445 C370 0.887 . S
C2451 C172 0.854 . S
C2465 C205 0.893 . S
C2471 C799 0.859 . S
C2485 C238 0.887 . S
C2491 C304 0.854 . S
C2505 C271 0.893 . S
C2511 C733 0.859 . S
C2525 C337 0.862 . S
C2531 C667 0.893 . S
C2545 C403 0.893 . S
C2551 C601 0.859 . S
C2565 C469 0.893 . S
C2571 C535 0.859 . S
C2585 C568 0.873 . S
C2591 C1030 0.840 . S
C2605 C964 0.840 . S
C2611 C634 0.873 . S
C2625 C898 0.863 . S
C2631 C700 0.850 . S
C2645 C832 0.858 . S
C2651 C766 0.855 . S
