# Generated by pormake.
# Topology umb, (4)-cn, num edge types: 1
# Building blocks:
#     Node 0, Type 0, BuildingBlock: ICAMEG_clean_sbu_1, # of connection points: 4
#     Node 1, Type 0, BuildingBlock: ICAMEG_clean_sbu_1, # of connection points: 4
#     Node 2, Type 0, BuildingBlock: ICAMEG_clean_sbu_1, # of connection points: 4
#     Node 3, Type 0, BuildingBlock: ICAMEG_clean_sbu_1, # of connection points: 4
#     Node 4, Type 0, BuildingBlock: ICAMEG_clean_sbu_1, # of connection points: 4
#     Node 5, Type 0, BuildingBlock: ICAMEG_clean_sbu_1, # of connection points: 4
#     Node 6, Type 0, BuildingBlock: ICAMEG_clean_sbu_1, # of connection points: 4
#     Node 7, Type 0, BuildingBlock: ICAMEG_clean_sbu_1, # of connection points: 4
#     Node 8, Type 0, BuildingBlock: ICAMEG_clean_sbu_1, # of connection points: 4
#     Node 9, Type 0, BuildingBlock: ICAMEG_clean_sbu_1, # of connection points: 4
#     Node 10, Type 0, BuildingBlock: ICAMEG_clean_sbu_1, # of connection points: 4
#     Node 11, Type 0, BuildingBlock: ICAMEG_clean_sbu_1, # of connection points: 4
#     Edge 12, Type (0, 0), BuildingBlock: CIFDUS_clean_linker_0, # of connection points: 2
#     Edge 13, Type (0, 0), BuildingBlock: CIFDUS_clean_linker_0, # of connection points: 2
#     Edge 14, Type (0, 0), BuildingBlock: CIFDUS_clean_linker_0, # of connection points: 2
#     Edge 15, Type (0, 0), BuildingBlock: CIFDUS_clean_linker_0, # of connection points: 2
#     Edge 16, Type (0, 0), BuildingBlock: CIFDUS_clean_linker_0, # of connection points: 2
#     Edge 17, Type (0, 0), BuildingBlock: CIFDUS_clean_linker_0, # of connection points: 2
#     Edge 18, Type (0, 0), BuildingBlock: CIFDUS_clean_linker_0, # of connection points: 2
#     Edge 19, Type (0, 0), BuildingBlock: CIFDUS_clean_linker_0, # of connection points: 2
#     Edge 20, Type (0, 0), BuildingBlock: CIFDUS_clean_linker_0, # of connection points: 2
#     Edge 21, Type (0, 0), BuildingBlock: CIFDUS_clean_linker_0, # of connection points: 2
#     Edge 22, Type (0, 0), BuildingBlock: CIFDUS_clean_linker_0, # of connection points: 2
#     Edge 23, Type (0, 0), BuildingBlock: CIFDUS_clean_linker_0, # of connection points: 2
#     Edge 24, Type (0, 0), BuildingBlock: CIFDUS_clean_linker_0, # of connection points: 2
#     Edge 25, Type (0, 0), BuildingBlock: CIFDUS_clean_linker_0, # of connection points: 2
#     Edge 26, Type (0, 0), BuildingBlock: CIFDUS_clean_linker_0, # of connection points: 2
#     Edge 27, Type (0, 0), BuildingBlock: CIFDUS_clean_linker_0, # of connection points: 2
#     Edge 28, Type (0, 0), BuildingBlock: CIFDUS_clean_linker_0, # of connection points: 2
#     Edge 29, Type (0, 0), BuildingBlock: CIFDUS_clean_linker_0, # of connection points: 2
#     Edge 30, Type (0, 0), BuildingBlock: CIFDUS_clean_linker_0, # of connection points: 2
#     Edge 31, Type (0, 0), BuildingBlock: CIFDUS_clean_linker_0, # of connection points: 2
#     Edge 32, Type (0, 0), BuildingBlock: CIFDUS_clean_linker_0, # of connection points: 2
#     Edge 33, Type (0, 0), BuildingBlock: CIFDUS_clean_linker_0, # of connection points: 2
#     Edge 34, Type (0, 0), BuildingBlock: CIFDUS_clean_linker_0, # of connection points: 2
#     Edge 35, Type (0, 0), BuildingBlock: CIFDUS_clean_linker_0, # of connection points: 2
# Relax obj value: 0.159
# Max RMSD: 0.175
# Mean RMSD: 0.175
data_MOF--net-umb--node1-ICAMEG_clean_sbu_1--edge1-CIFDUS_clean_linker_0
_symmetry_space_group_name_H-M    P1
_symmetry_Int_Tables_number       1
_symmetry_cell_setting            triclinic
loop_
_symmetry_equiv_pos_as_xyz
'x, y, z'
_cell_length_a     45.03078
_cell_length_b     44.991307
_cell_length_c     35.763105
_cell_angle_alpha  90.049457
_cell_angle_beta   89.949149
_cell_angle_gamma 120.05521
loop_
_atom_site_label
_atom_site_type_symbol
_atom_site_fract_x
_atom_site_fract_y
_atom_site_fract_z
_atom_type_partial_charge
Co0 Co 0.50003 0.18969 0.37393 0.0
Co1 Co 0.55419 0.15964 0.3481 0.0
O2 O 0.51029 0.15854 0.34567 0.0
C3 C 0.49776 0.20593 0.29375 0.0
O4 O 0.51967 0.19544 0.28722 0.0
C5 C 0.50274 0.09015 0.37442 0.0
O6 O 0.48483 0.10298 0.38904 0.0
O7 O 0.5573 0.16713 0.40344 0.0
O8 O 0.51498 0.17691 0.42102 0.0
H9 H 0.67735 0.20888 0.38638 0.0
H10 H 0.44728 0.13821 0.32325 0.0
O11 O 0.48609 0.20431 0.32673 0.0
H12 H 0.39577 0.10954 0.44916 0.0
H13 H 0.42958 0.24429 0.40746 0.0
H14 H 0.53392 0.23897 0.43612 0.0
H15 H 0.45397 0.15896 0.43972 0.0
H16 H 0.44323 0.20552 0.37211 0.0
O17 O 0.53056 0.10919 0.35699 0.0
H18 H 0.62152 0.20656 0.38283 0.0
H19 H 0.58038 0.11498 0.31852 0.0
H20 H 0.52113 0.2779 0.47236 0.0
H21 H 0.3889 0.08872 0.33133 0.0
H22 H 0.46863 0.28074 0.45808 0.0
H23 H 0.36282 0.07408 0.39469 0.0
O24 O 0.5472 0.22944 0.36706 0.0
H25 H 0.49542 0.10091 0.22858 0.0
H26 H 0.60234 0.19294 0.28423 0.0
H27 H 0.59862 0.18446 0.21589 0.0
H28 H 0.54487 0.13814 0.18764 0.0
H29 H 0.50014 0.11051 0.29677 0.0
H30 H 0.63565 0.1161 0.32173 0.0
H31 H 0.68466 0.16339 0.35571 0.0
O32 O 0.57865 0.20969 0.33928 0.0
C33 C 0.5397 0.17161 0.42852 0.0
C34 C 0.65622 0.18819 0.3714 0.0
C35 C 0.6328 0.1361 0.33514 0.0
N36 N 0.59782 0.16082 0.35023 0.0
C37 C 0.62458 0.18681 0.36918 0.0
C38 C 0.60154 0.13556 0.3335 0.0
C39 C 0.66029 0.16265 0.35421 0.0
C40 C 0.43595 0.13217 0.35082 0.0
N41 N 0.45387 0.15154 0.38093 0.0
C42 C 0.40296 0.10404 0.35527 0.0
C43 C 0.38836 0.09581 0.39083 0.0
C44 C 0.40684 0.11569 0.42141 0.0
C45 C 0.43979 0.14359 0.41591 0.0
C46 C 0.4525 0.24324 0.41399 0.0
C47 C 0.51091 0.23989 0.42992 0.0
C48 C 0.46039 0.22139 0.39402 0.0
N49 N 0.48921 0.21982 0.40223 0.0
C50 C 0.50385 0.26206 0.45045 0.0
C51 C 0.47441 0.26367 0.4424 0.0
C52 C 0.57426 0.23395 0.35071 0.0
C53 C 0.51901 0.12111 0.24057 0.0
C54 C 0.57884 0.17277 0.27215 0.0
C55 C 0.57691 0.16805 0.23344 0.0
C56 C 0.54675 0.14204 0.21761 0.0
N57 N 0.55153 0.15211 0.29449 0.0
C58 C 0.52188 0.12655 0.27917 0.0
Co59 Co 0.31725 0.51152 0.68928 0.0
Co60 Co 0.40207 0.56504 0.66519 0.0
O61 O 0.35894 0.52135 0.66202 0.0
C62 C 0.30004 0.50994 0.60872 0.0
O63 O 0.33245 0.53252 0.60312 0.0
C64 C 0.41881 0.5135 0.69377 0.0
O65 O 0.38763 0.49573 0.70733 0.0
O66 O 0.39684 0.56838 0.72033 0.0
O67 O 0.34423 0.52624 0.73694 0.0
H68 H 0.47684 0.68805 0.70418 0.0
H69 H 0.31601 0.45839 0.63924 0.0
O70 O 0.28948 0.49773 0.64143 0.0
H71 H 0.2903 0.40681 0.76515 0.0
H72 H 0.19146 0.44219 0.72031 0.0
H73 H 0.30147 0.54578 0.75074 0.0
H74 H 0.30018 0.46535 0.75522 0.0
H75 H 0.24428 0.45529 0.68614 0.0
O76 O 0.42815 0.54099 0.67544 0.0
H77 H 0.42283 0.63265 0.6996 0.0
H78 H 0.47327 0.5904 0.63729 0.0
H79 H 0.24935 0.53355 0.78579 0.0
H80 H 0.30603 0.39965 0.64781 0.0
H81 H 0.19384 0.48143 0.77062 0.0
H82 H 0.29314 0.37354 0.71117 0.0
O83 O 0.32551 0.55894 0.68211 0.0
H84 H 0.40296 0.50547 0.54667 0.0
H85 H 0.41878 0.61323 0.60102 0.0
H86 H 0.42447 0.60919 0.53286 0.0
H87 H 0.41655 0.555 0.50528 0.0
H88 H 0.39719 0.51054 0.61465 0.0
H89 H 0.52791 0.64526 0.64151 0.0
H90 H 0.52989 0.69461 0.67502 0.0
O91 O 0.37727 0.59003 0.65537 0.0
C92 C 0.37426 0.55082 0.745 0.0
C93 C 0.47628 0.66678 0.68939 0.0
C94 C 0.50495 0.64275 0.65426 0.0
N95 N 0.44484 0.60842 0.66793 0.0
C96 C 0.44575 0.63538 0.68659 0.0
C97 C 0.47396 0.61173 0.65202 0.0
C98 C 0.50604 0.67043 0.67306 0.0
C99 C 0.3101 0.44704 0.6668 0.0
N100 N 0.30845 0.46513 0.69664 0.0
C101 C 0.30461 0.41385 0.67153 0.0
C102 C 0.29743 0.39923 0.70709 0.0
C103 C 0.29585 0.41789 0.7374 0.0
C104 C 0.30152 0.45104 0.73162 0.0
C105 C 0.21551 0.46495 0.72721 0.0
C106 C 0.27745 0.52294 0.74414 0.0
C107 C 0.24547 0.47253 0.70792 0.0
N108 N 0.27595 0.50115 0.71662 0.0
C109 C 0.24801 0.5162 0.76401 0.0
C110 C 0.21686 0.48697 0.75545 0.0
C111 C 0.34868 0.58607 0.66637 0.0
C112 C 0.40655 0.52924 0.55837 0.0
C113 C 0.41524 0.58955 0.58921 0.0
C114 C 0.41856 0.58743 0.55061 0.0
C115 C 0.41413 0.55703 0.53515 0.0
N116 N 0.40781 0.56218 0.61179 0.0
C117 C 0.40347 0.53231 0.59685 0.0
Co118 Co 0.78749 0.3035 0.04402 0.0
Co119 Co 0.81627 0.38922 0.02468 0.0
O120 O 0.81687 0.34648 1.01745 0.0
C121 C 0.77086 0.28821 0.96397 0.0
O122 O 0.77492 0.31908 0.96152 0.0
C123 C 0.88684 0.40715 0.04288 0.0
O124 O 0.87424 0.37722 0.05946 0.0
O125 O 0.81564 0.38436 0.07981 0.0
O126 O 0.79794 0.32903 0.09304 0.0
H127 H 0.77662 0.4654 0.08221 0.0
H128 H 0.84133 0.30786 0.99286 0.0
O129 O 0.77544 0.2773 0.9952 0.0
H130 H 0.8711 0.28322 0.11724 0.0
H131 H 0.73963 0.17785 0.07079 0.0
H132 H 0.73677 0.28247 0.10563 0.0
H133 H 0.81946 0.28831 0.10868 0.0
H134 H 0.77631 0.23258 0.03806 0.0
O135 O 0.86728 0.41561 0.02613 0.0
H136 H 0.77705 0.41134 0.07266 0.0
H137 H 0.85668 0.45953 0.99238 0.0
H138 H 0.69989 0.22838 0.13934 0.0
H139 H 0.89308 0.30274 1.00008 0.0
H140 H 0.70117 0.17557 0.12194 0.0
H141 H 0.90829 0.29044 0.06267 0.0
O142 O 0.74631 0.30834 0.03778 0.0
H143 H 0.85894 0.38986 0.89466 0.0
H144 H 0.77466 0.40321 0.97018 0.0
H145 H 0.77396 0.40774 0.90147 0.0
H146 H 0.81633 0.40104 0.86325 0.0
H147 H 0.85853 0.38523 0.96343 0.0
H148 H 0.85747 0.51429 1.0013 0.0
H149 H 0.81709 0.51742 0.04635 0.0
O150 O 0.76542 0.364 0.02468 0.0
C151 C 0.80776 0.35998 0.10296 0.0
C152 C 0.79416 0.46431 0.06229 0.0
C153 C 0.83957 0.49176 1.01693 0.0
N154 N 0.81634 0.43206 0.0315 0.0
C155 C 0.79433 0.43369 0.05661 0.0
C156 C 0.839 0.46068 1.012 0.0
C157 C 0.81692 0.4935 0.04221 0.0
C158 C 0.84762 0.30216 1.02009 0.0
N159 N 0.82733 0.29819 0.05026 0.0
C160 C 0.87702 0.29944 0.02405 0.0
C161 C 0.88557 0.29259 0.05919 0.0
C162 C 0.86472 0.28856 0.08982 0.0
C163 C 0.83555 0.29152 0.08482 0.0
C164 C 0.73889 0.2007 0.07868 0.0
C165 C 0.73763 0.25964 0.09809 0.0
C166 C 0.75954 0.23173 0.06019 0.0
N167 N 0.75885 0.26071 0.07014 0.0
C168 C 0.71662 0.22907 0.11718 0.0
C169 C 0.71733 0.19944 0.10738 0.0
C170 C 0.74155 0.33331 0.03059 0.0
C171 C 0.84042 0.39293 0.91102 0.0
C172 C 0.79314 0.40022 0.95372 0.0
C173 C 0.79267 0.40288 0.91484 0.0
C174 C 0.81647 0.39915 0.89341 0.0
N175 N 0.81672 0.39412 0.97077 0.0
C176 C 0.84018 0.39051 0.94997 0.0
Co177 Co 0.47106 0.79984 0.36198 0.0
Co178 Co 0.41403 0.82868 0.3439 0.0
O179 O 0.45747 0.82951 0.33614 0.0
C180 C 0.47073 0.78451 0.28123 0.0
O181 O 0.44506 0.79026 0.27785 0.0
C182 C 0.46696 0.89884 0.3639 0.0
O183 O 0.48413 0.8856 0.37937 0.0
O184 O 0.41776 0.82666 0.399 0.0
O185 O 0.45606 0.80976 0.41131 0.0
H186 H 0.29828 0.78807 0.40201 0.0
H187 H 0.52068 0.85426 0.31149 0.0
O188 O 0.48522 0.78806 0.31293 0.0
H189 H 0.57512 0.88249 0.43593 0.0
H190 H 0.54847 0.75147 0.38763 0.0
H191 H 0.4409 0.74818 0.42262 0.0
H192 H 0.51827 0.83097 0.42686 0.0
H193 H 0.53078 0.78871 0.35567 0.0
O194 O 0.43875 0.87979 0.34709 0.0
H195 H 0.35281 0.78878 0.39182 0.0
H196 H 0.38414 0.86951 0.31299 0.0
H197 H 0.45775 0.71071 0.45553 0.0
H198 H 0.5777 0.90592 0.3192 0.0
H199 H 0.51189 0.71222 0.43806 0.0
H200 H 0.60522 0.92035 0.38182 0.0
O201 O 0.42504 0.75887 0.35513 0.0
H202 H 0.45689 0.8751 0.21518 0.0
H203 H 0.35885 0.78832 0.2884 0.0
H204 H 0.35407 0.7895 0.21976 0.0
H205 H 0.40333 0.83315 0.1827 0.0
H206 H 0.46068 0.87276 0.28384 0.0
H207 H 0.33015 0.87003 0.32258 0.0
H208 H 0.28667 0.82894 0.36721 0.0
O209 O 0.38831 0.77767 0.34215 0.0
C210 C 0.43454 0.81885 0.42173 0.0
C211 C 0.31687 0.80587 0.38222 0.0
C212 C 0.33479 0.85191 0.3377 0.0
N213 N 0.37124 0.82853 0.35118 0.0
C214 C 0.34766 0.80618 0.37613 0.0
C215 C 0.36529 0.85147 0.33235 0.0
C216 C 0.31041 0.82886 0.36275 0.0
C217 C 0.53268 0.86023 0.33872 0.0
N218 N 0.5163 0.83958 0.36863 0.0
C219 C 0.56488 0.88957 0.34296 0.0
C220 C 0.58029 0.89768 0.37812 0.0
C221 C 0.56341 0.87646 0.4085 0.0
C222 C 0.5312 0.84737 0.40321 0.0
C223 C 0.52486 0.75063 0.39555 0.0
C224 C 0.46461 0.74914 0.41505 0.0
C225 C 0.51468 0.77161 0.37751 0.0
N226 N 0.48499 0.7708 0.3875 0.0
C227 C 0.47396 0.72779 0.4337 0.0
C228 C 0.50433 0.72863 0.42385 0.0
C229 C 0.39525 0.75381 0.34762 0.0
C230 C 0.43522 0.85603 0.23103 0.0
C231 C 0.38042 0.80732 0.27244 0.0
C232 C 0.37754 0.80792 0.2336 0.0
C233 C 0.40518 0.83244 0.21282 0.0
N234 N 0.40997 0.83055 0.29009 0.0
C235 C 0.43715 0.8547 0.26992 0.0
Co236 Co 0.68166 0.48873 0.71341 0.0
Co237 Co 0.59685 0.43129 0.69068 0.0
O238 O 0.6396 0.47498 0.68491 0.0
C239 C 0.69986 0.48803 0.63421 0.0
O240 O 0.66889 0.46164 0.63035 0.0
C241 C 0.57758 0.4835 0.70661 0.0
O242 O 0.60692 0.5013 0.72417 0.0
O243 O 0.59977 0.43524 0.74594 0.0
O244 O 0.65441 0.47328 0.76135 0.0
H245 H 0.51961 0.31486 0.74646 0.0
H246 H 0.67893 0.53831 0.66112 0.0
O247 O 0.70967 0.50317 0.66579 0.0
H248 H 0.69875 0.5922 0.78561 0.0
H249 H 0.80605 0.56701 0.7453 0.0
H250 H 0.70064 0.45885 0.77654 0.0
H251 H 0.69426 0.53558 0.77791 0.0
H252 H 0.75253 0.54887 0.71012 0.0
O253 O 0.57 0.45543 0.69037 0.0
H254 H 0.57358 0.36983 0.73873 0.0
H255 H 0.52774 0.4008 0.65529 0.0
H256 H 0.7535 0.47613 0.81266 0.0
H257 H 0.68351 0.59509 0.66747 0.0
H258 H 0.8067 0.53057 0.79708 0.0
H259 H 0.69338 0.62234 0.73011 0.0
O260 O 0.67738 0.44285 0.70765 0.0
H261 H 0.60001 0.47384 0.56006 0.0
H262 H 0.5853 0.37611 0.6364 0.0
H263 H 0.58304 0.37124 0.56762 0.0
H264 H 0.59041 0.42034 0.52898 0.0
H265 H 0.60242 0.47773 0.62893 0.0
H266 H 0.47308 0.34636 0.66237 0.0
H267 H 0.46882 0.30284 0.70807 0.0
O268 O 0.6224 0.40603 0.69223 0.0
C269 C 0.62322 0.45185 0.77003 0.0
C270 C 0.5212 0.33348 0.72623 0.0
C271 C 0.49508 0.35119 0.67909 0.0
N272 N 0.55407 0.38818 0.69607 0.0
C273 C 0.55179 0.36455 0.72156 0.0
C274 C 0.52611 0.38197 0.6752 0.0
C275 C 0.49271 0.32679 0.70474 0.0
C276 C 0.68356 0.55019 0.68839 0.0
N277 N 0.6865 0.53379 0.71907 0.0
C278 C 0.68599 0.58226 0.69185 0.0
C279 C 0.69148 0.59751 0.72701 0.0
C280 C 0.69447 0.5806 0.75817 0.0
C281 C 0.69185 0.54853 0.75365 0.0
C282 C 0.78302 0.54327 0.7524 0.0
C283 C 0.72364 0.48269 0.76978 0.0
C284 C 0.75267 0.53285 0.73254 0.0
N285 N 0.72347 0.50298 0.74149 0.0
C286 C 0.75351 0.49229 0.79024 0.0
C287 C 0.78336 0.52282 0.78146 0.0
C288 C 0.65292 0.41306 0.69951 0.0
C289 C 0.59666 0.45223 0.5766 0.0
C290 C 0.58861 0.39761 0.61977 0.0
C291 C 0.58722 0.39468 0.58084 0.0
C292 C 0.59133 0.42223 0.55918 0.0
N293 N 0.59384 0.42713 0.63664 0.0
C294 C 0.59782 0.45422 0.6156 0.0
Co295 Co 0.17651 0.66538 0.02103 0.0
Co296 Co 0.14319 0.57938 1.0007 0.0
O297 O 0.14251 0.62238 0.99725 0.0
C298 C 0.18502 0.67789 0.93923 0.0
O299 O 0.17488 0.64521 0.9356 0.0
C300 C 0.07685 0.56385 0.03418 0.0
O301 O 0.09118 0.59538 0.04704 0.0
O302 O 0.15517 0.58697 0.05486 0.0
O303 O 0.16811 0.64069 0.07011 0.0
H304 H 0.19327 0.50588 0.03753 0.0
H305 H 0.12076 0.66421 0.97588 0.0
O306 O 0.18657 0.69068 0.9716 0.0
H307 H 0.10506 0.69592 0.10337 0.0
H308 H 0.2353 0.79263 0.04502 0.0
H309 H 0.23136 0.68419 0.07744 0.0
H310 H 0.15278 0.68562 0.08915 0.0
H311 H 0.1929 0.73812 1.01539 0.0
O312 O 0.09383 0.5539 1.01464 0.0
H313 H 0.19185 0.5598 0.0322 0.0
H314 H 0.0955 0.50707 0.97702 0.0
H315 H 0.274 0.73804 0.10793 0.0
H316 H 0.07283 0.67453 0.98877 0.0
H317 H 0.27615 0.79277 0.09174 0.0
H318 H 0.06471 0.69044 0.05294 0.0
O319 O 0.21495 0.65681 1.01042 0.0
H320 H 0.07537 0.57359 0.88669 0.0
H321 H 0.17039 0.55982 0.93476 0.0
H322 H 0.15627 0.55117 0.86757 0.0
H323 H 0.10843 0.55803 0.84315 0.0
H324 H 0.09058 0.58232 0.95364 0.0
H325 H 0.09573 0.45252 0.98206 0.0
H326 H 0.14494 0.45172 1.01237 0.0
O327 O 0.19227 0.60354 0.98718 0.0
C328 C 0.16254 0.61073 0.07881 0.0
C329 C 0.17174 0.50591 0.02414 0.0
C330 C 0.11698 0.47596 0.99305 0.0
N331 N 0.14377 0.53664 1.00403 0.0
C332 C 0.17085 0.53639 0.02092 0.0
C333 C 0.11696 0.50692 0.99034 0.0
C334 C 0.1446 0.47553 1.01005 0.0
C335 C 0.11756 0.67144 1.00377 0.0
N336 N 0.13963 0.67454 0.03167 0.0
C337 C 0.0903 0.67711 1.01095 0.0
C338 C 0.08574 0.68599 0.04697 0.0
C339 C 0.10835 0.68905 0.07529 0.0
C340 C 0.13528 0.68313 0.06709 0.0
C341 C 0.23457 0.76894 0.05235 0.0
C342 C 0.23199 0.70787 0.07044 0.0
C343 C 0.21068 0.73803 0.03562 0.0
N344 N 0.20953 0.708 0.04488 0.0
C345 C 0.25626 0.73829 0.08771 0.0
C346 C 0.25748 0.769 0.07858 0.0
C347 C 0.21773 0.63271 0.99529 0.0
C348 C 0.09621 0.57044 0.89702 0.0
C349 C 0.14959 0.56293 0.92433 0.0
C350 C 0.14167 0.55793 0.88627 0.0
C351 C 0.1148 0.56176 0.87259 0.0
N352 N 0.13123 0.57143 0.94811 0.0
C353 C 0.10483 0.57519 0.93492 0.0
Co354 Co 0.80117 0.4772 0.3652 0.0
Co355 Co 0.81594 0.4111 0.3889 0.0
O356 O 0.82546 0.45841 0.39314 0.0
C357 C 0.78615 0.48112 0.4453 0.0
O358 O 0.78953 0.45418 0.45065 0.0
C359 C 0.88681 0.45226 0.36225 0.0
O360 O 0.87655 0.4707 0.34383 0.0
O361 O 0.81162 0.41159 0.33333 0.0
O362 O 0.80934 0.45883 0.31752 0.0
H363 H 0.75139 0.28908 0.34331 0.0
H364 H 0.85697 0.5224 0.41713 0.0
O365 O 0.79095 0.4947 0.41287 0.0
H366 H 0.89516 0.57465 0.29245 0.0
H367 H 0.77048 0.56751 0.33353 0.0
H368 H 0.75159 0.45252 0.30225 0.0
H369 H 0.83908 0.52191 0.30053 0.0
H370 H 0.80025 0.5429 0.36862 0.0
O371 O 0.86603 0.42774 0.38316 0.0
H372 H 0.7638 0.34885 0.34908 0.0
H373 H 0.84879 0.37289 0.41956 0.0
H374 H 0.72154 0.47626 0.26622 0.0
H375 H 0.91313 0.57533 0.41042 0.0
H376 H 0.7309 0.53415 0.28182 0.0
H377 H 0.93256 0.60175 0.34769 0.0
O378 O 0.75624 0.43446 0.37085 0.0
H379 H 0.87269 0.45737 0.51303 0.0
H380 H 0.77298 0.36289 0.4492 0.0
H381 H 0.77718 0.3621 0.51793 0.0
H382 H 0.82733 0.40959 0.55028 0.0
H383 H 0.8673 0.45729 0.44436 0.0
H384 H 0.8375 0.31342 0.41428 0.0
H385 H 0.7884 0.27103 0.37606 0.0
O386 O 0.76607 0.39368 0.39397 0.0
C387 C 0.81041 0.43173 0.30902 0.0
C388 C 0.77278 0.30728 0.36016 0.0
C389 C 0.82114 0.32096 0.39995 0.0
N390 N 0.80676 0.36424 0.38494 0.0
C391 C 0.77986 0.34113 0.36364 0.0
C392 C 0.82744 0.3546 0.40279 0.0
C393 C 0.79358 0.29718 0.37851 0.0
C394 C 0.86515 0.53395 0.38982 0.0
N395 N 0.84472 0.51927 0.35931 0.0
C396 C 0.89701 0.56383 0.38616 0.0
C397 C 0.90792 0.57861 0.35095 0.0
C398 C 0.88695 0.56341 0.31994 0.0
C399 C 0.85527 0.53353 0.32466 0.0
C400 C 0.76623 0.54228 0.32643 0.0
C401 C 0.75597 0.47782 0.30904 0.0
C402 C 0.78295 0.52819 0.34625 0.0
N403 N 0.77784 0.49642 0.33731 0.0
C404 C 0.7388 0.49108 0.28862 0.0
C405 C 0.74404 0.52355 0.29741 0.0
C406 C 0.74621 0.4047 0.38403 0.0
C407 C 0.85076 0.43649 0.49924 0.0
C408 C 0.79484 0.38368 0.46309 0.0
C409 C 0.79711 0.38306 0.502 0.0
C410 C 0.82527 0.4097 0.52013 0.0
N411 N 0.81995 0.41005 0.44281 0.0
C412 C 0.84766 0.43623 0.46037 0.0
Co413 Co 0.31452 0.80248 0.69082 0.0
Co414 Co 0.3997 0.82749 0.70756 0.0
O415 O 0.35855 0.83073 0.71579 0.0
C416 C 0.30183 0.7873 0.77138 0.0
O417 O 0.33205 0.78972 0.7721 0.0
C418 C 0.4191 0.89757 0.68563 0.0
O419 O 0.38856 0.88465 0.67055 0.0
O420 O 0.39278 0.82442 0.65264 0.0
O421 O 0.33849 0.81158 0.64085 0.0
H422 H 0.46911 0.77941 0.65106 0.0
H423 H 0.32298 0.85793 0.74218 0.0
O424 O 0.29004 0.79189 0.74077 0.0
H425 H 0.29612 0.88812 0.61919 0.0
H426 H 0.18893 0.75885 0.66922 0.0
H427 H 0.28975 0.75107 0.62958 0.0
H428 H 0.29901 0.83516 0.62716 0.0
H429 H 0.24504 0.79424 0.69983 0.0
O430 O 0.42776 0.87842 0.70302 0.0
H431 H 0.41695 0.78305 0.66189 0.0
H432 H 0.47156 0.86726 0.7356 0.0
H433 H 0.23422 0.71545 0.59797 0.0
H434 H 0.32011 0.91103 0.73556 0.0
H435 H 0.18332 0.71921 0.61779 0.0
H436 H 0.30669 0.92645 0.67367 0.0
O437 O 0.31761 0.76026 0.6963 0.0
H438 H 0.40755 0.87722 0.83544 0.0
H439 H 0.41366 0.78689 0.76345 0.0
H440 H 0.4209 0.78923 0.83197 0.0
H441 H 0.41785 0.83465 0.86842 0.0
H442 H 0.40021 0.87378 0.76691 0.0
H443 H 0.52447 0.86482 0.72533 0.0
H444 H 0.52342 0.82054 0.68292 0.0
O445 O 0.37249 0.77667 0.71046 0.0
C446 C 0.36844 0.81837 0.63014 0.0
C447 C 0.46986 0.79869 0.66978 0.0
C448 C 0.50094 0.84666 0.71141 0.0
N449 N 0.44104 0.82497 0.69975 0.0
C450 C 0.44033 0.80074 0.67616 0.0
C451 C 0.4709 0.84793 0.71709 0.0
C452 C 0.50033 0.82181 0.68761 0.0
C453 C 0.31679 0.86432 0.71527 0.0
N454 N 0.31096 0.84341 0.68515 0.0
C455 C 0.31534 0.89448 0.71164 0.0
C456 C 0.30787 0.90315 0.67689 0.0
C457 C 0.30195 0.88166 0.64631 0.0
C458 C 0.30367 0.85174 0.65097 0.0
C459 C 0.21094 0.75703 0.66028 0.0
C460 C 0.26777 0.75302 0.63817 0.0
C461 C 0.24274 0.77695 0.67756 0.0
N462 N 0.27066 0.77489 0.66629 0.0
C463 C 0.23637 0.73271 0.62026 0.0
C464 C 0.20781 0.7348 0.63142 0.0
C465 C 0.34138 0.75392 0.70431 0.0
C466 C 0.40904 0.85738 0.81986 0.0
C467 C 0.41228 0.80671 0.77914 0.0
C468 C 0.41645 0.80794 0.81792 0.0
C469 C 0.41476 0.83345 0.83835 0.0
N470 N 0.4067 0.83029 0.76123 0.0
C471 C 0.40507 0.85541 0.78104 0.0
Co472 Co 0.50467 0.32154 0.02767 0.0
Co473 Co 0.55729 0.40623 0.05337 0.0
O474 O 0.51362 0.36293 0.05515 0.0
C475 C 0.49992 0.30304 0.10818 0.0
O476 O 0.52126 0.33555 0.11513 0.0
C477 C 0.50644 0.42327 0.02339 0.0
O478 O 0.48921 0.39234 1.009 0.0
O479 O 0.56201 0.40182 0.99835 0.0
O480 O 0.52081 0.34915 0.98059 0.0
H481 H 0.68108 0.48185 1.0181 0.0
H482 H 0.45004 0.31969 0.07554 0.0
O483 O 0.48942 0.29303 0.07487 0.0
H484 H 0.40252 0.29557 0.94777 0.0
H485 H 0.4365 0.19613 0.99414 0.0
H486 H 0.54105 0.30664 0.96789 0.0
H487 H 0.46064 0.30529 0.95999 0.0
H488 H 0.44836 0.24849 0.02861 0.0
O489 O 0.53341 0.43236 0.04255 0.0
H490 H 0.6257 0.42766 0.02097 0.0
H491 H 0.58174 0.47708 0.08216 0.0
H492 H 0.53008 0.255 0.93257 0.0
H493 H 0.39167 0.30985 0.06467 0.0
H494 H 0.47748 0.19924 0.94564 0.0
H495 H 0.3676 0.29777 1.00037 0.0
O496 O 0.55176 0.32964 0.03692 0.0
H497 H 0.49474 0.40549 0.17008 0.0
H498 H 0.60382 0.42224 0.11897 0.0
H499 H 0.59806 0.42708 0.18697 0.0
H500 H 0.54321 0.41872 0.21293 0.0
H501 H 0.50151 0.40053 0.10229 0.0
H502 H 0.63655 0.53189 0.07965 0.0
H503 H 0.68675 0.53447 0.04756 0.0
O504 O 0.58211 0.3814 0.06387 0.0
C505 C 0.54527 0.37942 0.97323 0.0
C506 C 0.65943 0.48103 0.03228 0.0
C507 C 0.63443 0.50912 0.06678 0.0
N508 N 0.60061 0.44914 0.05198 0.0
C509 C 0.62804 0.45039 0.0341 0.0
C510 C 0.60344 0.47803 0.06805 0.0
C511 C 0.66258 0.51055 0.04878 0.0
C512 C 0.43959 0.31413 0.04756 0.0
N513 N 0.45859 0.31285 1.01848 0.0
C514 C 0.4066 0.30873 0.04154 0.0
C515 C 0.39313 0.302 1.00544 0.0
C516 C 0.41271 0.30077 0.97591 0.0
C517 C 0.44562 0.30636 0.98298 0.0
C518 C 0.45947 0.22029 0.98814 0.0
C519 C 0.51799 0.28252 0.97355 0.0
C520 C 0.46635 0.25 1.00762 0.0
N521 N 0.49524 0.28062 1.00006 0.0
C522 C 0.51197 0.25334 0.95355 0.0
C523 C 0.48247 0.22205 0.96092 0.0
C524 C 0.57843 0.35275 0.0534 0.0
C525 C 0.51879 0.40927 0.1591 0.0
C526 C 0.57984 0.41846 0.13007 0.0
C527 C 0.57676 0.42131 0.16858 0.0
C528 C 0.54598 0.41664 0.18313 0.0
N529 N 0.55305 0.41122 0.10668 0.0
C530 C 0.52282 0.40665 0.12073 0.0
Co531 Co 0.19079 0.50334 0.33736 0.0
Co532 Co 0.14506 0.54326 0.35989 0.0
O533 O 0.1521 0.50379 0.36192 0.0
C534 C 0.20302 0.50109 0.41931 0.0
O535 O 0.18416 0.51523 0.42563 0.0
C536 C 0.08204 0.51834 0.31578 0.0
O537 O 0.1004 0.54384 0.29283 0.0
O538 O 0.16024 0.55236 0.30626 0.0
O539 O 0.17629 0.51444 0.28906 0.0
H540 H 0.17756 0.6646 0.32786 0.0
H541 H 0.14359 0.44407 0.38444 0.0
O542 O 0.207 0.49335 0.38601 0.0
H543 H 0.13438 0.3968 0.25777 0.0
H544 H 0.27011 0.45729 0.31083 0.0
H545 H 0.24101 0.54635 0.27923 0.0
H546 H 0.17302 0.4585 0.27012 0.0
H547 H 0.22174 0.45835 0.342 0.0
O548 O 0.09641 0.5127 0.34347 0.0
H549 H 0.18535 0.61416 0.3304 0.0
H550 H 0.08969 0.5567 0.38608 0.0
H551 H 0.2894 0.5461 0.24718 0.0
H552 H 0.10486 0.38215 0.37346 0.0
H553 H 0.30424 0.50134 0.26295 0.0
H554 H 0.10007 0.35816 0.30972 0.0
O555 O 0.22256 0.55331 0.34663 0.0
H556 H 0.07731 0.46943 0.46839 0.0
H557 H 0.16392 0.58635 0.42899 0.0
H558 H 0.14659 0.57521 0.49524 0.0
H559 H 0.10291 0.51642 0.5153 0.0
H560 H 0.09571 0.48159 0.40249 0.0
H561 H 0.0808 0.60648 0.384 0.0
H562 H 0.12495 0.66094 0.35477 0.0
O563 O 0.1927 0.57378 0.37611 0.0
C564 C 0.1684 0.53735 0.28135 0.0
C565 C 0.15816 0.64103 0.34074 0.0
C566 C 0.10386 0.60842 0.37225 0.0
N567 N 0.13813 0.58257 0.35856 0.0
C568 C 0.16246 0.6124 0.34232 0.0
C569 C 0.10906 0.58033 0.37337 0.0
C570 C 0.12864 0.63896 0.35583 0.0
C571 C 0.14181 0.43375 0.35672 0.0
N572 N 0.1607 0.45477 0.32802 0.0
C573 C 0.11976 0.3987 0.35063 0.0
C574 C 0.11705 0.38527 0.31484 0.0
C575 C 0.13628 0.40694 0.28568 0.0
C576 C 0.15804 0.44185 0.29281 0.0
C577 C 0.26385 0.47689 0.30366 0.0
C578 C 0.24715 0.52665 0.28605 0.0
C579 C 0.23654 0.47766 0.32127 0.0
N580 N 0.22842 0.50225 0.31224 0.0
C581 C 0.27465 0.5267 0.2679 0.0
C582 C 0.28298 0.5016 0.27679 0.0
C583 C 0.22074 0.57686 0.36449 0.0
C584 C 0.09629 0.49517 0.45997 0.0
C585 C 0.145 0.56066 0.43751 0.0
C586 C 0.13523 0.55453 0.47505 0.0
C587 C 0.1107 0.52154 0.48628 0.0
N588 N 0.13066 0.53467 0.41183 0.0
C589 C 0.10668 0.50225 0.42267 0.0
Co590 Co 0.6734 0.19258 0.6879 0.0
Co591 Co 0.58755 0.15564 0.7109 0.0
O592 O 0.63197 0.15785 0.7136 0.0
C593 C 0.68879 0.20413 0.76916 0.0
O594 O 0.65589 0.19178 0.77456 0.0
C595 C 0.57435 0.08852 0.68123 0.0
O596 O 0.60567 0.10298 0.66782 0.0
O597 O 0.59283 0.16531 0.6561 0.0
O598 O 0.64709 0.18142 0.63977 0.0
H599 H 0.50771 0.19807 0.6736 0.0
H600 H 0.67685 0.13989 0.73435 0.0
O601 O 0.70043 0.20545 0.73622 0.0
H602 H 0.70622 0.12226 0.6065 0.0
H603 H 0.79975 0.25598 0.65871 0.0
H604 H 0.68767 0.24515 0.6299 0.0
H605 H 0.69341 0.1685 0.61984 0.0
H606 H 0.74729 0.21276 0.69097 0.0
O607 O 0.56395 0.1058 0.6995 0.0
H608 H 0.56339 0.20017 0.67787 0.0
H609 H 0.51689 0.10608 0.73791 0.0
H610 H 0.73942 0.28854 0.59678 0.0
H611 H 0.68975 0.09351 0.72236 0.0
H612 H 0.79597 0.29415 0.61114 0.0
H613 H 0.70448 0.08442 0.65802 0.0
O614 O 0.66278 0.22982 0.69806 0.0
H615 H 0.58947 0.09447 0.82756 0.0
H616 H 0.56759 0.18336 0.7761 0.0
H617 H 0.5617 0.17199 0.84393 0.0
H618 H 0.57264 0.12723 0.87007 0.0
H619 H 0.59544 0.10696 0.75995 0.0
H620 H 0.46064 0.10281 0.73398 0.0
H621 H 0.45583 0.14911 0.70177 0.0
O622 O 0.6097 0.2051 0.72209 0.0
C623 C 0.61628 0.17331 0.63161 0.0
C624 C 0.5095 0.17781 0.68783 0.0
C625 C 0.48308 0.12431 0.72167 0.0
N626 N 0.54345 0.15344 0.7084 0.0
C627 C 0.54098 0.17891 0.69044 0.0
C628 C 0.51499 0.12628 0.72375 0.0
C629 C 0.4804 0.15031 0.7036 0.0
C630 C 0.68356 0.13628 0.70637 0.0
N631 N 0.68459 0.15698 0.67788 0.0
C632 C 0.6907 0.1099 0.69971 0.0
C633 C 0.69891 0.10478 0.66359 0.0
C634 C 0.69988 0.12599 0.63467 0.0
C635 C 0.69254 0.15208 0.64236 0.0
C636 C 0.77525 0.25374 0.65216 0.0
C637 C 0.71216 0.2473 0.63612 0.0
C638 C 0.74548 0.22937 0.67039 0.0
N639 N 0.71444 0.2263 0.66211 0.0
C640 C 0.74138 0.27198 0.61736 0.0
C641 C 0.77311 0.27514 0.62546 0.0
C642 C 0.63808 0.23136 0.71345 0.0
C643 C 0.58457 0.11399 0.8165 0.0
C644 C 0.57253 0.16395 0.78728 0.0
C645 C 0.56906 0.15755 0.8257 0.0
C646 C 0.57517 0.13241 0.84034 0.0
N647 N 0.58178 0.14579 0.76407 0.0
C648 C 0.58775 0.12106 0.77822 0.0
Co649 Co 0.4768 0.68398 1.00824 0.0
Co650 Co 0.42061 0.59831 0.02887 0.0
O651 O 0.46336 0.64169 0.03616 0.0
C652 C 0.47338 0.70064 0.08754 0.0
O653 O 0.44699 0.66952 0.09023 0.0
C654 C 0.47453 0.58109 1.0148 0.0
O655 O 0.4922 0.61078 0.99782 0.0
O656 O 0.42624 0.60205 0.97377 0.0
O657 O 0.46311 0.6574 0.95967 0.0
H658 H 0.30687 0.51901 0.96878 0.0
H659 H 0.5258 0.6819 0.06192 0.0
O660 O 0.48944 0.71121 0.05652 0.0
H661 H 0.58296 0.70499 0.93906 0.0
H662 H 0.55335 0.80941 0.97922 0.0
H663 H 0.44768 0.7029 0.94431 0.0
H664 H 0.52552 0.69873 0.94514 0.0
H665 H 0.53557 0.75553 1.01363 0.0
O666 O 0.44594 0.57265 0.03025 0.0
H667 H 0.36058 0.57386 0.97838 0.0
H668 H 0.39084 0.52893 0.06357 0.0
H669 H 0.46464 0.75612 0.90894 0.0
H670 H 0.58338 0.68823 0.05719 0.0
H671 H 0.51781 0.80987 0.92638 0.0
H672 H 0.61228 0.69976 0.99538 0.0
O673 O 0.43033 0.67831 1.01254 0.0
H674 H 0.45963 0.60123 0.16108 0.0
H675 H 0.36334 0.58452 0.08098 0.0
H676 H 0.35635 0.58132 0.14956 0.0
H677 H 0.40472 0.5897 0.19008 0.0
H678 H 0.46561 0.60451 0.09239 0.0
H679 H 0.33768 0.47341 0.05466 0.0
H680 H 0.29515 0.46824 1.00712 0.0
O681 O 0.39419 0.62265 0.02604 0.0
C682 C 0.44275 0.6261 0.95024 0.0
C683 C 0.32505 0.52099 0.98981 0.0
C684 C 0.34238 0.4954 0.03795 0.0
N685 N 0.37846 0.55485 0.02203 0.0
C686 C 0.35538 0.55209 0.99554 0.0
C687 C 0.37243 0.52691 0.04288 0.0
C688 C 0.31853 0.49251 1.01127 0.0
C689 C 0.53839 0.68725 0.03501 0.0
N690 N 0.52245 0.69013 1.00389 0.0
C691 C 0.57091 0.69066 0.03247 0.0
C692 C 0.58709 0.69708 0.99777 0.0
C693 C 0.57065 0.7 0.96615 0.0
C694 C 0.5381 0.69637 0.96975 0.0
C695 C 0.53016 0.78614 0.97132 0.0
C696 C 0.47098 0.72614 0.95188 0.0
C697 C 0.51994 0.75559 0.99074 0.0
N698 N 0.49078 0.72608 0.98078 0.0
C699 C 0.48039 0.75622 0.93184 0.0
C700 C 0.51021 0.78638 0.94166 0.0
C701 C 0.40059 0.65306 1.01911 0.0
C702 C 0.43833 0.59743 0.14371 0.0
C703 C 0.38452 0.58826 0.09845 0.0
C704 C 0.38039 0.58634 0.13725 0.0
C705 C 0.40754 0.59102 0.15997 0.0
N706 N 0.41481 0.59454 0.08273 0.0
C707 C 0.44151 0.59908 0.10481 0.0
H708 H 0.59758 0.17439 0.45617 0.0
H709 H 0.50259 0.16787 0.49089 0.0
H710 H 0.51775 0.1674 0.55631 0.0
H711 H 0.5579 0.16911 0.60373 0.0
H712 H 0.65377 0.1775 0.56926 0.0
H713 H 0.63821 0.17699 0.50374 0.0
C714 C 0.58005 0.1727 0.47798 0.0
C715 C 0.54883 0.17097 0.46839 0.0
C716 C 0.5891 0.17285 0.51567 0.0
C717 C 0.52674 0.1692 0.49725 0.0
C718 C 0.53539 0.16892 0.53475 0.0
C719 C 0.57544 0.17072 0.58197 0.0
C720 C 0.60696 0.17317 0.59164 0.0
C721 C 0.5665 0.17076 0.5443 0.0
C722 C 0.62937 0.17558 0.56283 0.0
C723 C 0.62047 0.17526 0.52528 0.0
H724 H 0.42843 0.60914 0.77395 0.0
H725 H 0.34071 0.51244 0.80642 0.0
H726 H 0.35524 0.5268 0.87215 0.0
H727 H 0.39191 0.56673 0.92031 0.0
H728 H 0.47817 0.66482 0.88898 0.0
H729 H 0.46518 0.64975 0.82282 0.0
C730 C 0.41255 0.59109 0.79536 0.0
C731 C 0.38351 0.55962 0.78504 0.0
C732 C 0.42078 0.59971 0.83331 0.0
C733 C 0.36312 0.53681 0.81334 0.0
C734 C 0.37145 0.54498 0.85102 0.0
C735 C 0.40813 0.58489 0.89917 0.0
C736 C 0.43618 0.61689 0.90986 0.0
C737 C 0.40013 0.57636 0.8613 0.0
C738 C 0.45651 0.64002 0.88174 0.0
C739 C 0.44904 0.63141 0.84386 0.0
H740 H 0.80436 0.37297 0.27912 0.0
H741 H 0.81827 0.472 0.24821 0.0
H742 H 0.8198 0.45876 0.18235 0.0
H743 H 0.81666 0.41926 0.13362 0.0
H744 H 0.8009 0.31938 0.16361 0.0
H745 H 0.80086 0.33303 0.22987 0.0
C746 C 0.80785 0.39178 0.25805 0.0
C747 C 0.81132 0.42357 0.26885 0.0
C748 C 0.80845 0.38391 0.22006 0.0
C749 C 0.81553 0.44737 0.24094 0.0
C750 C 0.81646 0.43984 0.20318 0.0
C751 C 0.81339 0.4004 0.15451 0.0
C752 C 0.80895 0.36831 0.14341 0.0
C753 C 0.81291 0.40821 0.19245 0.0
C754 C 0.80446 0.34428 0.17117 0.0
C755 C 0.80439 0.35207 0.20911 0.0
H756 H 0.3813 0.82218 0.45377 0.0
H757 H 0.4717 0.81645 0.48128 0.0
H758 H 0.4593 0.8164 0.54785 0.0
H759 H 0.42271 0.81739 0.59796 0.0
H760 H 0.33096 0.82065 0.57066 0.0
H761 H 0.34405 0.8221 0.50401 0.0
C762 C 0.39848 0.82107 0.47422 0.0
C763 C 0.4276 0.81953 0.46232 0.0
C764 C 0.39089 0.82049 0.51245 0.0
C765 C 0.4492 0.81773 0.48946 0.0
C766 C 0.4421 0.81768 0.52757 0.0
C767 C 0.40554 0.81856 0.57756 0.0
C768 C 0.37593 0.81914 0.58951 0.0
C769 C 0.413 0.81898 0.53935 0.0
C770 C 0.3539 0.82022 0.56241 0.0
C771 C 0.36141 0.82109 0.52427 0.0
H772 H 0.60326 0.43494 0.94576 0.0
H773 H 0.5088 0.34564 0.91093 0.0
H774 H 0.52422 0.36108 0.8456 0.0
H775 H 0.56439 0.3991 0.79844 0.0
H776 H 0.66022 0.48719 0.83215 0.0
H777 H 0.64416 0.47303 0.89791 0.0
C778 C 0.58594 0.4189 0.92391 0.0
C779 C 0.55478 0.38917 0.93345 0.0
C780 C 0.59516 0.4277 0.8862 0.0
C781 C 0.53291 0.36859 0.90461 0.0
C782 C 0.54168 0.37743 0.86716 0.0
C783 C 0.58184 0.41545 0.82002 0.0
C784 C 0.61347 0.44436 0.81014 0.0
C785 C 0.57273 0.40685 0.85765 0.0
C786 C 0.6357 0.46486 0.83879 0.0
C787 C 0.62654 0.45674 0.87644 0.0
H788 H 0.16644 0.59312 0.25417 0.0
H789 H 0.17099 0.50366 0.21876 0.0
H790 H 0.16968 0.51864 0.15346 0.0
H791 H 0.16635 0.55637 0.10642 0.0
H792 H 0.16332 0.64674 0.14126 0.0
H793 H 0.16497 0.63206 0.20679 0.0
C794 C 0.16709 0.57681 0.23222 0.0
C795 C 0.16855 0.54709 0.24157 0.0
C796 C 0.16657 0.5857 0.19459 0.0
C797 C 0.16982 0.52662 0.21257 0.0
C798 C 0.16901 0.53514 0.17515 0.0
C799 C 0.16598 0.57292 0.12826 0.0
C800 C 0.16443 0.60254 0.11874 0.0
C801 C 0.16722 0.5645 0.16584 0.0
C802 C 0.16445 0.62379 0.14762 0.0
C803 C 0.16534 0.61537 0.18515 0.0
H804 H 0.7172 0.36441 0.32579 0.0
H805 H 0.6957 0.38822 0.43557 0.0
H806 H 0.63686 0.33906 0.43221 0.0
H807 H 0.59476 0.2855 0.40083 0.0
H808 H 0.61945 0.25964 0.29345 0.0
H809 H 0.67387 0.31378 0.29252 0.0
C810 C 0.69923 0.35901 0.34857 0.0
C811 C 0.71003 0.37931 0.38079 0.0
C812 C 0.66633 0.3304 0.34681 0.0
C813 C 0.6873 0.37257 0.41052 0.0
C814 C 0.65393 0.34454 0.4086 0.0
C815 C 0.61176 0.29224 0.37689 0.0
C816 C 0.60346 0.26887 0.3473 0.0
C817 C 0.64354 0.32273 0.37729 0.0
C818 C 0.62565 0.27737 0.31658 0.0
C819 C 0.6567 0.30818 0.31608 0.0
H820 H 0.3653 0.73161 0.65035 0.0
H821 H 0.30034 0.69822 0.74769 0.0
H822 H 0.29283 0.64033 0.7414 0.0
H823 H 0.31008 0.60182 0.71148 0.0
H824 H 0.37746 0.63754 0.61557 0.0
H825 H 0.37861 0.69223 0.61768 0.0
C826 C 0.34964 0.71157 0.67019 0.0
C827 C 0.33408 0.71877 0.69992 0.0
C828 C 0.34588 0.67904 0.66649 0.0
C829 C 0.31279 0.69281 0.7249 0.0
C830 C 0.30857 0.65996 0.72125 0.0
C831 C 0.32436 0.62132 0.69059 0.0
C832 C 0.34392 0.61594 0.66363 0.0
C833 C 0.32566 0.65305 0.69259 0.0
C834 C 0.36251 0.64137 0.6368 0.0
C835 C 0.36326 0.67261 0.63802 0.0
H836 H 0.59181 0.30781 1.01632 0.0
H837 H 0.63137 0.38633 0.10182 0.0
H838 H 0.68452 0.38479 0.1039 0.0
H839 H 0.72156 0.3653 0.07764 0.0
H840 H 0.68436 0.28825 0.99135 0.0
H841 H 0.62789 0.28444 0.99367 0.0
C842 C 0.61183 0.32412 0.03585 0.0
C843 C 0.60789 0.34751 0.05848 0.0
C844 C 0.64268 0.32356 0.03649 0.0
C845 C 0.63399 0.36846 0.08371 0.0
C846 C 0.66439 0.36764 0.08495 0.0
C847 C 0.70105 0.34779 0.05931 0.0
C848 C 0.70685 0.32774 0.03374 0.0
C849 C 0.66933 0.34609 0.06072 0.0
C850 C 0.6801 0.3041 1.01097 0.0
C851 C 0.64805 0.30205 1.01228 0.0
H852 H 0.33215 0.73249 0.37411 0.0
H853 H 0.39485 0.6958 0.32399 0.0
H854 H 0.34651 0.63663 0.32674 0.0
H855 H 0.28587 0.59613 0.34185 0.0
H856 H 0.22542 0.63435 0.39551 0.0
H857 H 0.27396 0.69233 0.39358 0.0
C858 C 0.33521 0.71162 0.36358 0.0
C859 C 0.36659 0.71834 0.34827 0.0
C860 C 0.30792 0.67803 0.36628 0.0
C861 C 0.37062 0.69102 0.3356 0.0
C862 C 0.34311 0.65733 0.33728 0.0
C863 C 0.28343 0.61707 0.35352 0.0
C864 C 0.25185 0.61085 0.36831 0.0
C865 C 0.31157 0.65058 0.35247 0.0
C866 C 0.24927 0.63828 0.38366 0.0
C867 C 0.27697 0.67156 0.38245 0.0
H868 H 0.61705 0.35682 0.74015 0.0
H869 H 0.703 0.40562 0.6649 0.0
H870 H 0.70848 0.35384 0.66526 0.0
H871 H 0.68481 0.29294 0.68294 0.0
H872 H 0.59799 0.24553 0.75812 0.0
H873 H 0.5969 0.2988 0.762 0.0
C874 C 0.63688 0.356 0.72378 0.0
C875 C 0.65904 0.38418 0.70184 0.0
C876 C 0.63966 0.32653 0.72416 0.0
C877 C 0.68553 0.38373 0.68171 0.0
C878 C 0.68855 0.35424 0.68189 0.0
C879 C 0.66603 0.29446 0.70062 0.0
C880 C 0.64119 0.26514 0.71973 0.0
C881 C 0.66522 0.3252 0.70244 0.0
C882 C 0.61708 0.26753 0.74266 0.0
C883 C 0.61639 0.29797 0.74494 0.0
H884 H 0.27768 0.68115 0.02683 0.0
H885 H 0.23489 0.59415 0.95166 0.0
H886 H 0.28915 0.59475 0.95085 0.0
H887 H 0.34636 0.61614 0.97598 0.0
H888 H 0.39017 0.70209 0.05169 0.0
H889 H 0.33779 0.70621 0.04754 0.0
C890 C 0.28044 0.66275 1.00973 0.0
C891 C 0.25216 0.63731 0.98979 0.0
C892 C 0.31159 0.66282 1.00988 0.0
C893 C 0.25613 0.6137 0.96766 0.0
C894 C 0.28709 0.61395 0.96721 0.0
C895 C 0.34429 0.63562 0.99168 0.0
C896 C 0.37121 0.65812 1.01488 0.0
C897 C 0.3145 0.63764 0.98912 0.0
C898 C 0.36923 0.68428 0.03401 0.0
C899 C 0.33942 0.68656 0.03164 0.0
H900 H 0.54125 0.05979 0.37406 0.0
H901 H 0.43641 0.03783 0.37865 0.0
H902 H 0.41601 0.97615 0.37541 0.0
H903 H 0.42824 0.92894 0.36867 0.0
H904 H 0.53313 0.9509 0.36794 0.0
H905 H 0.55349 0.0125 0.37218 0.0
C906 C 0.51393 0.04144 0.37453 0.0
C907 C 0.49027 0.05311 0.37623 0.0
C908 C 0.50253 0.00626 0.3731 0.0
C909 C 0.45501 0.02927 0.37743 0.0
C910 C 0.44339 -0.00588 0.37537 0.0
C911 C 0.45555 0.94729 0.36938 0.0
C912 C 0.47927 0.93571 0.36747 0.0
C913 C 0.46694 0.9824 0.3727 0.0
C914 C 0.51453 0.95944 0.36923 0.0
C915 C 0.52611 -0.00546 0.37163 0.0
H916 H 0.48727 0.55372 0.69935 0.0
H917 H 0.40614 0.44782 0.70092 0.0
H918 H 0.44869 0.42918 0.70523 0.0
H919 H 0.50888 0.44325 0.70588 0.0
H920 H 0.58981 0.54921 0.70815 0.0
H921 H 0.54721 0.56784 0.70506 0.0
C922 C 0.47895 0.52656 0.70075 0.0
C923 C 0.44381 0.50206 0.69938 0.0
C924 C 0.50341 0.5162 0.70377 0.0
C925 C 0.43315 0.46702 0.70192 0.0
C926 C 0.45741 0.45642 0.70422 0.0
C927 C 0.51712 0.47042 0.70571 0.0
C928 C 0.55227 0.49494 0.7067 0.0
C929 C 0.49258 0.4808 0.70469 0.0
C930 C 0.5628 0.53001 0.70728 0.0
C931 C 0.53852 0.5406 0.70544 0.0
H932 H 0.91638 0.476 0.04476 0.0
H933 H 0.93938 0.39372 0.04561 0.0
H934 H 0.00093 0.43564 0.04478 0.0
H935 H 0.04759 0.49538 0.0404 0.0
H936 H 0.02485 0.5778 0.04268 0.0
H937 H 0.96334 0.53594 0.04625 0.0
C938 C 0.93495 0.46732 0.04482 0.0
C939 C 0.92368 0.43201 0.04465 0.0
C940 C 0.97004 0.49146 0.04503 0.0
C941 C 0.9477 0.42088 0.04558 0.0
C942 C 0.98275 0.44477 0.04505 0.0
C943 C 0.02912 0.50412 0.04195 0.0
C944 C 0.04041 0.53942 0.04084 0.0
C945 C -0.00588 0.48006 0.04428 0.0
C946 C 0.01653 0.55066 0.04351 0.0
C947 C 0.98148 0.52679 0.04533 0.0
H948 H 0.03654 0.47546 0.36763 0.0
H949 H 0.04296 0.52629 0.263 0.0
H950 H 0.9826 0.50962 0.26799 0.0
H951 H 0.92957 0.48503 0.30457 0.0
H952 H 0.92273 0.43389 0.40894 0.0
H953 H 0.98195 0.44654 0.40162 0.0
C954 C 0.02463 0.48238 0.34555 0.0
C955 C 0.04435 0.50242 0.31519 0.0
C956 C -0.00994 0.47322 0.34887 0.0
C957 C 0.02843 0.51106 0.2868 0.0
C958 C -0.00603 0.50173 0.28972 0.0
C959 C 0.94107 0.47668 0.32572 0.0
C960 C 0.92213 0.45908 0.3575 0.0
C961 C 0.97485 0.48369 0.32114 0.0
C962 C 0.937 0.44773 0.38433 0.0
C963 C 0.97077 0.45489 0.38014 0.0
H964 H 0.50603 0.0581 0.67538 0.0
H965 H 0.58929 0.0367 0.67738 0.0
H966 H 0.54796 0.97484 0.67861 0.0
H967 H 0.48815 0.92745 0.6832 0.0
H968 H 0.40533 0.94951 0.67861 0.0
H969 H 0.4467 0.01098 0.67448 0.0
C970 C 0.5151 0.03983 0.67579 0.0
C971 C 0.55045 0.05163 0.67673 0.0
C972 C 0.49137 0.0047 0.6764 0.0
C973 C 0.56209 0.02797 0.6766 0.0
C974 C 0.53852 0.99275 0.67757 0.0
C975 C 0.47926 0.94581 0.68129 0.0
C976 C 0.44392 0.9343 0.68174 0.0
C977 C 0.50312 0.98091 0.67823 0.0
C978 C 0.43249 0.958 0.67845 0.0
C979 C 0.45607 0.99302 0.67611 0.0
H980 H 0.435 0.51231 1.01285 0.0
H981 H 0.5405 0.59418 1.01493 0.0
H982 H 0.55972 0.55196 1.01692 0.0
H983 H 0.54615 0.49199 1.0204 0.0
H984 H 0.44081 0.41011 1.01451 0.0
H985 H 0.42164 0.45231 1.01126 0.0
C986 C 0.46221 0.52084 1.01376 0.0
C987 C 0.48641 0.55612 1.01432 0.0
C988 C 0.47293 0.49655 1.0141 0.0
C989 C 0.52154 0.56706 1.01464 0.0
C990 C 0.53246 0.54299 1.01583 0.0
C991 C 0.519 0.48344 1.01827 0.0
C992 C 0.49479 0.44816 1.01812 0.0
C993 C 0.50835 0.50773 1.01592 0.0
C994 C 0.45978 0.43722 1.01466 0.0
C995 C 0.44887 0.46128 1.01299 0.0
H996 H 0.49149 0.19115 0.21976 0.0
H997 H 0.48856 0.2611 0.30014 0.0
H998 H 0.4868 0.29669 0.24939 0.0
H999 H 0.49205 0.31082 0.1821 0.0
H1000 H 0.49101 0.23881 0.10173 0.0
H1001 H 0.48795 0.20086 0.15242 0.0
C1002 C 0.48985 0.21388 0.22607 0.0
C1003 C 0.49047 0.22373 0.26353 0.0
C1004 C 0.48835 0.2339 0.19677 0.0
C1005 C 0.488 0.25299 0.27149 0.0
C1006 C 0.48723 0.27345 0.24249 0.0
C1007 C 0.49056 0.28652 0.17576 0.0
C1008 C 0.49209 0.27772 0.13834 0.0
C1009 C 0.48828 0.26461 0.20503 0.0
C1010 C 0.48978 0.24606 0.13035 0.0
C1011 C 0.48825 0.22447 0.15932 0.0
H1012 H 0.18638 0.49211 0.49328 0.0
H1013 H 0.26437 0.50305 0.41528 0.0
H1014 H 0.30073 0.50509 0.46708 0.0
H1015 H 0.3122 0.50825 0.53473 0.0
H1016 H 0.233 0.49362 0.61284 0.0
H1017 H 0.19514 0.48816 0.56093 0.0
C1018 C 0.21118 0.49454 0.48766 0.0
C1019 C 0.2228 0.49776 0.45051 0.0
C1020 C 0.23177 0.49515 0.51761 0.0
C1021 C 0.2548 0.50048 0.4436 0.0
C1022 C 0.27569 0.50182 0.47322 0.0
C1023 C 0.28648 0.50342 0.54033 0.0
C1024 C 0.2755 0.50165 0.57753 0.0
C1025 C 0.26472 0.49984 0.51035 0.0
C1026 C 0.242 0.495 0.58444 0.0
C1027 C 0.22042 0.49208 0.55476 0.0
H1028 H 0.78875 0.30446 0.8915 0.0
H1029 H 0.72132 0.22079 0.9635 0.0
H1030 H 0.6909 0.18592 0.90883 0.0
H1031 H 0.67981 0.18188 0.84082 0.0
H1032 H 0.74995 0.26385 0.76861 0.0
H1033 H 0.78338 0.29669 0.82297 0.0
C1034 C 0.76781 0.27832 0.89507 0.0
C1035 C 0.75701 0.2652 0.93131 0.0
C1036 C 0.75089 0.2583 0.86353 0.0
C1037 C 0.7301 0.23129 0.93579 0.0
C1038 C 0.71258 0.21148 0.90458 0.0
C1039 C 0.70284 0.20664 0.83705 0.0
C1040 C 0.71234 0.22064 0.80093 0.0
C1041 C 0.72219 0.22507 0.86837 0.0
C1042 C 0.74229 0.25257 0.79619 0.0
C1043 C 0.76124 0.27142 0.82726 0.0
H1044 H 0.47978 0.68804 0.16012 0.0
H1045 H 0.48309 0.76532 0.0864 0.0
H1046 H 0.48449 0.79966 0.14038 0.0
H1047 H 0.4786 0.80443 0.20865 0.0
H1048 H 0.48049 0.72968 0.28236 0.0
H1049 H 0.48366 0.69771 0.22846 0.0
C1050 C 0.4816 0.71279 0.15601 0.0
C1051 C 0.4812 0.72419 0.11951 0.0
C1052 C 0.48308 0.73263 0.18715 0.0
C1053 C 0.48364 0.75625 0.11431 0.0
C1054 C 0.48416 0.77572 0.14515 0.0
C1055 C 0.48045 0.78152 0.21279 0.0
C1056 C 0.47912 0.76922 0.24926 0.0
C1057 C 0.48301 0.76373 0.18169 0.0
C1058 C 0.48168 0.73966 0.25449 0.0
C1059 C 0.48325 0.72129 0.22369 0.0
H1060 H 0.68972 0.49559 0.56119 0.0
H1061 H 0.76413 0.49727 0.6381 0.0
H1062 H 0.79956 0.49802 0.58564 0.0
H1063 H 0.8054 0.49093 0.51793 0.0
H1064 H 0.73339 0.49387 0.44091 0.0
H1065 H 0.70111 0.49911 0.49322 0.0
C1066 C 0.71415 0.49702 0.56631 0.0
C1067 C 0.72438 0.49622 0.60325 0.0
C1068 C 0.73457 0.49801 0.53603 0.0
C1069 C 0.756 0.49813 0.60981 0.0
C1070 C 0.77607 0.49827 0.57985 0.0
C1071 C 0.78311 0.4936 0.51271 0.0
C1072 C 0.77156 0.49185 0.47583 0.0
C1073 C 0.76509 0.49718 0.54287 0.0
C1074 C 0.74279 0.4954 0.46914 0.0
C1075 C 0.72422 0.49812 0.49903 0.0
H1076 H 0.24303 0.73989 0.93336 0.0
H1077 H 0.15724 0.6638 0.86986 0.0
H1078 H 0.18364 0.69457 0.81182 0.0
H1079 H 0.23455 0.73901 0.77843 0.0
H1080 H 0.32347 0.81026 0.84158 0.0
H1081 H 0.29267 0.78611 0.90019 0.0
C1082 C 0.22982 0.73067 0.90686 0.0
C1083 C 0.19817 0.69991 0.90576 0.0
C1084 C 0.24601 0.74754 0.87342 0.0
C1085 C 0.18159 0.68759 0.87125 0.0
C1086 C 0.19674 0.70508 0.83808 0.0
C1087 C 0.24674 0.74971 0.80508 0.0
C1088 C 0.28102 0.77649 0.80586 0.0
C1089 C 0.22943 0.73451 0.83867 0.0
C1090 C 0.29699 0.7897 0.84046 0.0
C1091 C 0.27945 0.77582 0.87394 0.0
loop_
_geom_bond_atom_site_label_1
_geom_bond_atom_site_label_2
_geom_bond_distance
_geom_bond_site_symmetry_2
_ccdc_geom_bond_type
Co0 O2 2.143 . S
Co0 O8 2.074 . S
Co0 O11 2.093 . S
Co0 O24 2.097 . S
Co0 N41 2.151 . S
Co0 N49 2.214 . S
Co1 O2 2.160 . S
Co1 O7 2.058 . S
Co1 O17 2.057 . S
Co1 O32 2.037 . S
Co1 N36 2.145 . S
Co1 N57 2.257 . S
O2 Co0 2.143 . S
O2 Co1 2.160 . S
C3 O4 1.278 . S
C3 O11 1.224 . S
O4 C3 1.278 . S
C5 O6 1.245 . S
C5 O17 1.232 . S
O6 C5 1.245 . S
O7 Co1 2.058 . S
O7 C33 1.269 . S
O8 Co0 2.074 . S
O8 C33 1.257 . S
H9 C34 0.930 . S
H10 C40 0.930 . S
O11 Co0 2.093 . S
O11 C3 1.224 . S
H12 C44 0.929 . S
H13 C46 0.930 . S
H14 C47 0.930 . S
H15 C45 0.929 . S
H16 C48 0.928 . S
O17 Co1 2.057 . S
O17 C5 1.232 . S
H18 C37 0.929 . S
H19 C38 0.929 . S
H20 C50 0.931 . S
H21 C42 0.929 . S
H22 C51 0.930 . S
H23 C43 0.931 . S
O24 Co0 2.097 . S
O24 C52 1.214 . S
H25 C53 0.929 . S
H26 C54 0.929 . S
H27 C55 0.930 . S
H28 C56 0.929 . S
H29 C58 0.930 . S
H30 C35 0.930 . S
H31 C39 0.930 . S
O32 Co1 2.037 . S
O32 C52 1.234 . S
C33 O7 1.269 . S
C33 O8 1.257 . S
C34 H9 0.930 . S
C34 C37 1.388 . S
C34 C39 1.418 . S
C35 H30 0.930 . S
C35 C38 1.404 . S
C35 C39 1.353 . S
N36 Co1 2.145 . S
N36 C37 1.397 . S
N36 C38 1.334 . S
C37 H18 0.929 . S
C37 C34 1.388 . S
C37 N36 1.397 . S
C38 H19 0.929 . S
C38 C35 1.404 . S
C38 N36 1.334 . S
C39 H31 0.930 . S
C39 C34 1.418 . S
C39 C35 1.353 . S
C40 H10 0.930 . S
C40 N41 1.330 . S
C40 C42 1.446 . S
N41 Co0 2.151 . S
N41 C40 1.330 . S
N41 C45 1.418 . S
C42 H21 0.929 . S
C42 C40 1.446 . S
C42 C43 1.332 . S
C43 H23 0.931 . S
C43 C42 1.332 . S
C43 C44 1.267 . S
C44 H12 0.929 . S
C44 C43 1.267 . S
C44 C45 1.251 . S
C45 H15 0.929 . S
C45 N41 1.418 . S
C45 C44 1.251 . S
C46 H13 0.930 . S
C46 C48 1.406 . S
C46 C51 1.261 . S
C47 H14 0.930 . S
C47 N49 1.325 . S
C47 C50 1.357 . S
C48 H16 0.928 . S
C48 C46 1.406 . S
C48 N49 1.261 . S
N49 Co0 2.214 . S
N49 C47 1.325 . S
N49 C48 1.261 . S
C50 H20 0.931 . S
C50 C47 1.357 . S
C50 C51 1.312 . S
C51 H22 0.930 . S
C51 C46 1.261 . S
C51 C50 1.312 . S
C52 O24 1.214 . S
C52 O32 1.234 . S
C53 H25 0.929 . S
C53 C56 1.391 . S
C53 C58 1.391 . S
C54 H26 0.929 . S
C54 C55 1.390 . S
C54 N57 1.391 . S
C55 H27 0.930 . S
C55 C54 1.390 . S
C55 C56 1.392 . S
C56 H28 0.929 . S
C56 C53 1.391 . S
C56 C55 1.392 . S
N57 Co1 2.257 . S
N57 C54 1.391 . S
N57 C58 1.388 . S
C58 H29 0.930 . S
C58 C53 1.391 . S
C58 N57 1.388 . S
Co59 O61 2.143 . S
Co59 O67 2.074 . S
Co59 O70 2.093 . S
Co59 O83 2.097 . S
Co59 N100 2.151 . S
Co59 N108 2.214 . S
Co60 O61 2.160 . S
Co60 O66 2.058 . S
Co60 O76 2.057 . S
Co60 O91 2.037 . S
Co60 N95 2.145 . S
Co60 N116 2.257 . S
O61 Co59 2.143 . S
O61 Co60 2.160 . S
C62 O63 1.278 . S
C62 O70 1.224 . S
O63 C62 1.278 . S
C64 O65 1.245 . S
C64 O76 1.232 . S
O65 C64 1.245 . S
O66 Co60 2.058 . S
O66 C92 1.269 . S
O67 Co59 2.074 . S
O67 C92 1.257 . S
H68 C93 0.930 . S
H69 C99 0.930 . S
O70 Co59 2.093 . S
O70 C62 1.224 . S
H71 C103 0.929 . S
H72 C105 0.930 . S
H73 C106 0.930 . S
H74 C104 0.929 . S
H75 C107 0.928 . S
O76 Co60 2.057 . S
O76 C64 1.232 . S
H77 C96 0.929 . S
H78 C97 0.929 . S
H79 C109 0.931 . S
H80 C101 0.929 . S
H81 C110 0.930 . S
H82 C102 0.931 . S
O83 Co59 2.097 . S
O83 C111 1.214 . S
H84 C112 0.929 . S
H85 C113 0.929 . S
H86 C114 0.930 . S
H87 C115 0.929 . S
H88 C117 0.930 . S
H89 C94 0.930 . S
H90 C98 0.930 . S
O91 Co60 2.037 . S
O91 C111 1.234 . S
C92 O66 1.269 . S
C92 O67 1.257 . S
C93 H68 0.930 . S
C93 C96 1.388 . S
C93 C98 1.418 . S
C94 H89 0.930 . S
C94 C97 1.404 . S
C94 C98 1.353 . S
N95 Co60 2.145 . S
N95 C96 1.397 . S
N95 C97 1.334 . S
C96 H77 0.929 . S
C96 C93 1.388 . S
C96 N95 1.397 . S
C97 H78 0.929 . S
C97 C94 1.404 . S
C97 N95 1.334 . S
C98 H90 0.930 . S
C98 C93 1.418 . S
C98 C94 1.353 . S
C99 H69 0.930 . S
C99 N100 1.330 . S
C99 C101 1.446 . S
N100 Co59 2.151 . S
N100 C99 1.330 . S
N100 C104 1.418 . S
C101 H80 0.929 . S
C101 C99 1.446 . S
C101 C102 1.332 . S
C102 H82 0.931 . S
C102 C101 1.332 . S
C102 C103 1.267 . S
C103 H71 0.929 . S
C103 C102 1.267 . S
C103 C104 1.251 . S
C104 H74 0.929 . S
C104 N100 1.418 . S
C104 C103 1.251 . S
C105 H72 0.930 . S
C105 C107 1.406 . S
C105 C110 1.261 . S
C106 H73 0.930 . S
C106 N108 1.325 . S
C106 C109 1.357 . S
C107 H75 0.928 . S
C107 C105 1.406 . S
C107 N108 1.261 . S
N108 Co59 2.214 . S
N108 C106 1.325 . S
N108 C107 1.261 . S
C109 H79 0.931 . S
C109 C106 1.357 . S
C109 C110 1.312 . S
C110 H81 0.930 . S
C110 C105 1.261 . S
C110 C109 1.312 . S
C111 O83 1.214 . S
C111 O91 1.234 . S
C112 H84 0.929 . S
C112 C115 1.391 . S
C112 C117 1.391 . S
C113 H85 0.929 . S
C113 C114 1.390 . S
C113 N116 1.391 . S
C114 H86 0.930 . S
C114 C113 1.390 . S
C114 C115 1.392 . S
C115 H87 0.929 . S
C115 C112 1.391 . S
C115 C114 1.392 . S
N116 Co60 2.257 . S
N116 C113 1.391 . S
N116 C117 1.388 . S
C117 H88 0.930 . S
C117 C112 1.391 . S
C117 N116 1.388 . S
Co118 O120 2.143 1_554 S
Co118 O126 2.074 . S
Co118 O129 2.093 1_554 S
Co118 O142 2.097 1_554 S
Co118 N159 2.151 . S
Co118 N167 2.214 . S
Co119 O120 2.160 1_554 S
Co119 O125 2.058 . S
Co119 O135 2.057 1_554 S
Co119 O150 2.037 . S
Co119 N154 2.145 . S
Co119 N175 2.257 1_554 S
O120 Co118 2.143 1_556 S
O120 Co119 2.160 1_556 S
C121 O122 1.278 . S
C121 O129 1.224 . S
O122 C121 1.278 . S
C123 O124 1.245 . S
C123 O135 1.232 . S
O124 C123 1.245 . S
O125 Co119 2.058 . S
O125 C151 1.269 . S
O126 Co118 2.074 . S
O126 C151 1.257 . S
H127 C152 0.930 . S
H128 C158 0.930 . S
O129 Co118 2.093 1_556 S
O129 C121 1.224 . S
H130 C162 0.929 . S
H131 C164 0.930 . S
H132 C165 0.930 . S
H133 C163 0.929 . S
H134 C166 0.928 . S
O135 Co119 2.057 1_556 S
O135 C123 1.232 . S
H136 C155 0.929 . S
H137 C156 0.929 . S
H138 C168 0.931 . S
H139 C160 0.929 1_556 S
H140 C169 0.930 . S
H141 C161 0.931 . S
O142 Co118 2.097 1_556 S
O142 C170 1.214 1_556 S
H143 C171 0.929 . S
H144 C172 0.929 . S
H145 C173 0.930 . S
H146 C174 0.929 . S
H147 C176 0.930 . S
H148 C153 0.930 . S
H149 C157 0.930 . S
O150 Co119 2.037 . S
O150 C170 1.234 . S
C151 O125 1.269 . S
C151 O126 1.257 . S
C152 H127 0.930 . S
C152 C155 1.388 . S
C152 C157 1.418 . S
C153 H148 0.930 . S
C153 C156 1.404 . S
C153 C157 1.353 . S
N154 Co119 2.145 . S
N154 C155 1.397 . S
N154 C156 1.334 . S
C155 H136 0.929 . S
C155 C152 1.388 . S
C155 N154 1.397 . S
C156 H137 0.929 . S
C156 C153 1.404 . S
C156 N154 1.334 . S
C157 H149 0.930 . S
C157 C152 1.418 . S
C157 C153 1.353 . S
C158 H128 0.930 . S
C158 N159 1.330 1_556 S
C158 C160 1.446 1_556 S
N159 Co118 2.151 . S
N159 C158 1.330 1_554 S
N159 C163 1.418 . S
C160 H139 0.929 1_554 S
C160 C158 1.446 1_554 S
C160 C161 1.332 . S
C161 H141 0.931 . S
C161 C160 1.332 . S
C161 C162 1.267 . S
C162 H130 0.929 . S
C162 C161 1.267 . S
C162 C163 1.251 . S
C163 H133 0.929 . S
C163 N159 1.418 . S
C163 C162 1.251 . S
C164 H131 0.930 . S
C164 C166 1.406 . S
C164 C169 1.261 . S
C165 H132 0.930 . S
C165 N167 1.325 . S
C165 C168 1.357 . S
C166 H134 0.928 . S
C166 C164 1.406 . S
C166 N167 1.261 . S
N167 Co118 2.214 . S
N167 C165 1.325 . S
N167 C166 1.261 . S
C168 H138 0.931 . S
C168 C165 1.357 . S
C168 C169 1.312 . S
C169 H140 0.930 . S
C169 C164 1.261 . S
C169 C168 1.312 . S
C170 O142 1.214 1_554 S
C170 O150 1.234 . S
C171 H143 0.929 . S
C171 C174 1.391 . S
C171 C176 1.391 . S
C172 H144 0.929 . S
C172 C173 1.390 . S
C172 N175 1.391 . S
C173 H145 0.930 . S
C173 C172 1.390 . S
C173 C174 1.392 . S
C174 H146 0.929 . S
C174 C171 1.391 . S
C174 C173 1.392 . S
N175 Co119 2.257 1_556 S
N175 C172 1.391 . S
N175 C176 1.388 . S
C176 H147 0.930 . S
C176 C171 1.391 . S
C176 N175 1.388 . S
Co177 O179 2.143 . S
Co177 O185 2.074 . S
Co177 O188 2.093 . S
Co177 O201 2.097 . S
Co177 N218 2.151 . S
Co177 N226 2.214 . S
Co178 O179 2.160 . S
Co178 O184 2.058 . S
Co178 O194 2.057 . S
Co178 O209 2.037 . S
Co178 N213 2.145 . S
Co178 N234 2.257 . S
O179 Co177 2.143 . S
O179 Co178 2.160 . S
C180 O181 1.278 . S
C180 O188 1.224 . S
O181 C180 1.278 . S
C182 O183 1.245 . S
C182 O194 1.232 . S
O183 C182 1.245 . S
O184 Co178 2.058 . S
O184 C210 1.269 . S
O185 Co177 2.074 . S
O185 C210 1.257 . S
H186 C211 0.930 . S
H187 C217 0.930 . S
O188 Co177 2.093 . S
O188 C180 1.224 . S
H189 C221 0.929 . S
H190 C223 0.930 . S
H191 C224 0.930 . S
H192 C222 0.929 . S
H193 C225 0.928 . S
O194 Co178 2.057 . S
O194 C182 1.232 . S
H195 C214 0.929 . S
H196 C215 0.929 . S
H197 C227 0.931 . S
H198 C219 0.929 . S
H199 C228 0.930 . S
H200 C220 0.931 . S
O201 Co177 2.097 . S
O201 C229 1.214 . S
H202 C230 0.929 . S
H203 C231 0.929 . S
H204 C232 0.930 . S
H205 C233 0.929 . S
H206 C235 0.930 . S
H207 C212 0.930 . S
H208 C216 0.930 . S
O209 Co178 2.037 . S
O209 C229 1.234 . S
C210 O184 1.269 . S
C210 O185 1.257 . S
C211 H186 0.930 . S
C211 C214 1.388 . S
C211 C216 1.418 . S
C212 H207 0.930 . S
C212 C215 1.404 . S
C212 C216 1.353 . S
N213 Co178 2.145 . S
N213 C214 1.397 . S
N213 C215 1.334 . S
C214 H195 0.929 . S
C214 C211 1.388 . S
C214 N213 1.397 . S
C215 H196 0.929 . S
C215 C212 1.404 . S
C215 N213 1.334 . S
C216 H208 0.930 . S
C216 C211 1.418 . S
C216 C212 1.353 . S
C217 H187 0.930 . S
C217 N218 1.330 . S
C217 C219 1.446 . S
N218 Co177 2.151 . S
N218 C217 1.330 . S
N218 C222 1.418 . S
C219 H198 0.929 . S
C219 C217 1.446 . S
C219 C220 1.332 . S
C220 H200 0.931 . S
C220 C219 1.332 . S
C220 C221 1.267 . S
C221 H189 0.929 . S
C221 C220 1.267 . S
C221 C222 1.251 . S
C222 H192 0.929 . S
C222 N218 1.418 . S
C222 C221 1.251 . S
C223 H190 0.930 . S
C223 C225 1.406 . S
C223 C228 1.261 . S
C224 H191 0.930 . S
C224 N226 1.325 . S
C224 C227 1.357 . S
C225 H193 0.928 . S
C225 C223 1.406 . S
C225 N226 1.261 . S
N226 Co177 2.214 . S
N226 C224 1.325 . S
N226 C225 1.261 . S
C227 H197 0.931 . S
C227 C224 1.357 . S
C227 C228 1.312 . S
C228 H199 0.930 . S
C228 C223 1.261 . S
C228 C227 1.312 . S
C229 O201 1.214 . S
C229 O209 1.234 . S
C230 H202 0.929 . S
C230 C233 1.391 . S
C230 C235 1.391 . S
C231 H203 0.929 . S
C231 C232 1.390 . S
C231 N234 1.391 . S
C232 H204 0.930 . S
C232 C231 1.390 . S
C232 C233 1.392 . S
C233 H205 0.929 . S
C233 C230 1.391 . S
C233 C232 1.392 . S
N234 Co178 2.257 . S
N234 C231 1.391 . S
N234 C235 1.388 . S
C235 H206 0.930 . S
C235 C230 1.391 . S
C235 N234 1.388 . S
Co236 O238 2.143 . S
Co236 O244 2.074 . S
Co236 O247 2.093 . S
Co236 O260 2.097 . S
Co236 N277 2.151 . S
Co236 N285 2.214 . S
Co237 O238 2.160 . S
Co237 O243 2.058 . S
Co237 O253 2.057 . S
Co237 O268 2.037 . S
Co237 N272 2.145 . S
Co237 N293 2.257 . S
O238 Co236 2.143 . S
O238 Co237 2.160 . S
C239 O240 1.278 . S
C239 O247 1.224 . S
O240 C239 1.278 . S
C241 O242 1.245 . S
C241 O253 1.232 . S
O242 C241 1.245 . S
O243 Co237 2.058 . S
O243 C269 1.269 . S
O244 Co236 2.074 . S
O244 C269 1.257 . S
H245 C270 0.930 . S
H246 C276 0.930 . S
O247 Co236 2.093 . S
O247 C239 1.224 . S
H248 C280 0.929 . S
H249 C282 0.930 . S
H250 C283 0.930 . S
H251 C281 0.929 . S
H252 C284 0.928 . S
O253 Co237 2.057 . S
O253 C241 1.232 . S
H254 C273 0.929 . S
H255 C274 0.929 . S
H256 C286 0.931 . S
H257 C278 0.929 . S
H258 C287 0.930 . S
H259 C279 0.931 . S
O260 Co236 2.097 . S
O260 C288 1.214 . S
H261 C289 0.929 . S
H262 C290 0.929 . S
H263 C291 0.930 . S
H264 C292 0.929 . S
H265 C294 0.930 . S
H266 C271 0.930 . S
H267 C275 0.930 . S
O268 Co237 2.037 . S
O268 C288 1.234 . S
C269 O243 1.269 . S
C269 O244 1.257 . S
C270 H245 0.930 . S
C270 C273 1.388 . S
C270 C275 1.418 . S
C271 H266 0.930 . S
C271 C274 1.404 . S
C271 C275 1.353 . S
N272 Co237 2.145 . S
N272 C273 1.397 . S
N272 C274 1.334 . S
C273 H254 0.929 . S
C273 C270 1.388 . S
C273 N272 1.397 . S
C274 H255 0.929 . S
C274 C271 1.404 . S
C274 N272 1.334 . S
C275 H267 0.930 . S
C275 C270 1.418 . S
C275 C271 1.353 . S
C276 H246 0.930 . S
C276 N277 1.330 . S
C276 C278 1.446 . S
N277 Co236 2.151 . S
N277 C276 1.330 . S
N277 C281 1.418 . S
C278 H257 0.929 . S
C278 C276 1.446 . S
C278 C279 1.332 . S
C279 H259 0.931 . S
C279 C278 1.332 . S
C279 C280 1.267 . S
C280 H248 0.929 . S
C280 C279 1.267 . S
C280 C281 1.251 . S
C281 H251 0.929 . S
C281 N277 1.418 . S
C281 C280 1.251 . S
C282 H249 0.930 . S
C282 C284 1.406 . S
C282 C287 1.261 . S
C283 H250 0.930 . S
C283 N285 1.325 . S
C283 C286 1.357 . S
C284 H252 0.928 . S
C284 C282 1.406 . S
C284 N285 1.261 . S
N285 Co236 2.214 . S
N285 C283 1.325 . S
N285 C284 1.261 . S
C286 H256 0.931 . S
C286 C283 1.357 . S
C286 C287 1.312 . S
C287 H258 0.930 . S
C287 C282 1.261 . S
C287 C286 1.312 . S
C288 O260 1.214 . S
C288 O268 1.234 . S
C289 H261 0.929 . S
C289 C292 1.391 . S
C289 C294 1.391 . S
C290 H262 0.929 . S
C290 C291 1.390 . S
C290 N293 1.391 . S
C291 H263 0.930 . S
C291 C290 1.390 . S
C291 C292 1.392 . S
C292 H264 0.929 . S
C292 C289 1.391 . S
C292 C291 1.392 . S
N293 Co237 2.257 . S
N293 C290 1.391 . S
N293 C294 1.388 . S
C294 H265 0.930 . S
C294 C289 1.391 . S
C294 N293 1.388 . S
Co295 O297 2.143 1_554 S
Co295 O303 2.074 . S
Co295 O306 2.093 1_554 S
Co295 O319 2.097 1_554 S
Co295 N336 2.151 . S
Co295 N344 2.214 . S
Co296 O297 2.160 1_554 S
Co296 O302 2.058 . S
Co296 O312 2.057 1_554 S
Co296 O327 2.037 . S
Co296 N331 2.145 . S
Co296 N352 2.257 1_554 S
O297 Co295 2.143 1_556 S
O297 Co296 2.160 1_556 S
C298 O299 1.278 . S
C298 O306 1.224 . S
O299 C298 1.278 . S
C300 O301 1.245 . S
C300 O312 1.232 . S
O301 C300 1.245 . S
O302 Co296 2.058 . S
O302 C328 1.269 . S
O303 Co295 2.074 . S
O303 C328 1.257 . S
H304 C329 0.930 . S
H305 C335 0.930 . S
O306 Co295 2.093 1_556 S
O306 C298 1.224 . S
H307 C339 0.929 . S
H308 C341 0.930 . S
H309 C342 0.930 . S
H310 C340 0.929 . S
H311 C343 0.928 . S
O312 Co296 2.057 1_556 S
O312 C300 1.232 . S
H313 C332 0.929 . S
H314 C333 0.929 . S
H315 C345 0.931 . S
H316 C337 0.929 1_556 S
H317 C346 0.930 . S
H318 C338 0.931 . S
O319 Co295 2.097 1_556 S
O319 C347 1.214 1_556 S
H320 C348 0.929 . S
H321 C349 0.929 . S
H322 C350 0.930 . S
H323 C351 0.929 . S
H324 C353 0.930 . S
H325 C330 0.930 . S
H326 C334 0.930 . S
O327 Co296 2.037 . S
O327 C347 1.234 . S
C328 O302 1.269 . S
C328 O303 1.257 . S
C329 H304 0.930 . S
C329 C332 1.388 . S
C329 C334 1.418 . S
C330 H325 0.930 . S
C330 C333 1.404 . S
C330 C334 1.353 . S
N331 Co296 2.145 . S
N331 C332 1.397 . S
N331 C333 1.334 . S
C332 H313 0.929 . S
C332 C329 1.388 . S
C332 N331 1.397 . S
C333 H314 0.929 . S
C333 C330 1.404 . S
C333 N331 1.334 . S
C334 H326 0.930 . S
C334 C329 1.418 . S
C334 C330 1.353 . S
C335 H305 0.930 . S
C335 N336 1.330 1_556 S
C335 C337 1.446 1_556 S
N336 Co295 2.151 . S
N336 C335 1.330 1_554 S
N336 C340 1.418 . S
C337 H316 0.929 1_554 S
C337 C335 1.446 1_554 S
C337 C338 1.332 . S
C338 H318 0.931 . S
C338 C337 1.332 . S
C338 C339 1.267 . S
C339 H307 0.929 . S
C339 C338 1.267 . S
C339 C340 1.251 . S
C340 H310 0.929 . S
C340 N336 1.418 . S
C340 C339 1.251 . S
C341 H308 0.930 . S
C341 C343 1.406 . S
C341 C346 1.261 . S
C342 H309 0.930 . S
C342 N344 1.325 . S
C342 C345 1.357 . S
C343 H311 0.928 . S
C343 C341 1.406 . S
C343 N344 1.261 . S
N344 Co295 2.214 . S
N344 C342 1.325 . S
N344 C343 1.261 . S
C345 H315 0.931 . S
C345 C342 1.357 . S
C345 C346 1.312 . S
C346 H317 0.930 . S
C346 C341 1.261 . S
C346 C345 1.312 . S
C347 O319 1.214 1_554 S
C347 O327 1.234 . S
C348 H320 0.929 . S
C348 C351 1.391 . S
C348 C353 1.391 . S
C349 H321 0.929 . S
C349 C350 1.390 . S
C349 N352 1.391 . S
C350 H322 0.930 . S
C350 C349 1.390 . S
C350 C351 1.392 . S
C351 H323 0.929 . S
C351 C348 1.391 . S
C351 C350 1.392 . S
N352 Co296 2.257 1_556 S
N352 C349 1.391 . S
N352 C353 1.388 . S
C353 H324 0.930 . S
C353 C348 1.391 . S
C353 N352 1.388 . S
Co354 O356 2.143 . S
Co354 O362 2.074 . S
Co354 O365 2.093 . S
Co354 O378 2.097 . S
Co354 N395 2.151 . S
Co354 N403 2.214 . S
Co355 O356 2.160 . S
Co355 O361 2.058 . S
Co355 O371 2.057 . S
Co355 O386 2.037 . S
Co355 N390 2.145 . S
Co355 N411 2.257 . S
O356 Co354 2.143 . S
O356 Co355 2.160 . S
C357 O358 1.278 . S
C357 O365 1.224 . S
O358 C357 1.278 . S
C359 O360 1.245 . S
C359 O371 1.232 . S
O360 C359 1.245 . S
O361 Co355 2.058 . S
O361 C387 1.269 . S
O362 Co354 2.074 . S
O362 C387 1.257 . S
H363 C388 0.930 . S
H364 C394 0.930 . S
O365 Co354 2.093 . S
O365 C357 1.224 . S
H366 C398 0.929 . S
H367 C400 0.930 . S
H368 C401 0.930 . S
H369 C399 0.929 . S
H370 C402 0.928 . S
O371 Co355 2.057 . S
O371 C359 1.232 . S
H372 C391 0.929 . S
H373 C392 0.929 . S
H374 C404 0.931 . S
H375 C396 0.929 . S
H376 C405 0.930 . S
H377 C397 0.931 . S
O378 Co354 2.097 . S
O378 C406 1.214 . S
H379 C407 0.929 . S
H380 C408 0.929 . S
H381 C409 0.930 . S
H382 C410 0.929 . S
H383 C412 0.930 . S
H384 C389 0.930 . S
H385 C393 0.930 . S
O386 Co355 2.037 . S
O386 C406 1.234 . S
C387 O361 1.269 . S
C387 O362 1.257 . S
C388 H363 0.930 . S
C388 C391 1.388 . S
C388 C393 1.418 . S
C389 H384 0.930 . S
C389 C392 1.404 . S
C389 C393 1.353 . S
N390 Co355 2.145 . S
N390 C391 1.397 . S
N390 C392 1.334 . S
C391 H372 0.929 . S
C391 C388 1.388 . S
C391 N390 1.397 . S
C392 H373 0.929 . S
C392 C389 1.404 . S
C392 N390 1.334 . S
C393 H385 0.930 . S
C393 C388 1.418 . S
C393 C389 1.353 . S
C394 H364 0.930 . S
C394 N395 1.330 . S
C394 C396 1.446 . S
N395 Co354 2.151 . S
N395 C394 1.330 . S
N395 C399 1.418 . S
C396 H375 0.929 . S
C396 C394 1.446 . S
C396 C397 1.332 . S
C397 H377 0.931 . S
C397 C396 1.332 . S
C397 C398 1.267 . S
C398 H366 0.929 . S
C398 C397 1.267 . S
C398 C399 1.251 . S
C399 H369 0.929 . S
C399 N395 1.418 . S
C399 C398 1.251 . S
C400 H367 0.930 . S
C400 C402 1.406 . S
C400 C405 1.261 . S
C401 H368 0.930 . S
C401 N403 1.325 . S
C401 C404 1.357 . S
C402 H370 0.928 . S
C402 C400 1.406 . S
C402 N403 1.261 . S
N403 Co354 2.214 . S
N403 C401 1.325 . S
N403 C402 1.261 . S
C404 H374 0.931 . S
C404 C401 1.357 . S
C404 C405 1.312 . S
C405 H376 0.930 . S
C405 C400 1.261 . S
C405 C404 1.312 . S
C406 O378 1.214 . S
C406 O386 1.234 . S
C407 H379 0.929 . S
C407 C410 1.391 . S
C407 C412 1.391 . S
C408 H380 0.929 . S
C408 C409 1.390 . S
C408 N411 1.391 . S
C409 H381 0.930 . S
C409 C408 1.390 . S
C409 C410 1.392 . S
C410 H382 0.929 . S
C410 C407 1.391 . S
C410 C409 1.392 . S
N411 Co355 2.257 . S
N411 C408 1.391 . S
N411 C412 1.388 . S
C412 H383 0.930 . S
C412 C407 1.391 . S
C412 N411 1.388 . S
Co413 O415 2.143 . S
Co413 O421 2.074 . S
Co413 O424 2.093 . S
Co413 O437 2.097 . S
Co413 N454 2.151 . S
Co413 N462 2.214 . S
Co414 O415 2.160 . S
Co414 O420 2.058 . S
Co414 O430 2.057 . S
Co414 O445 2.037 . S
Co414 N449 2.145 . S
Co414 N470 2.257 . S
O415 Co413 2.143 . S
O415 Co414 2.160 . S
C416 O417 1.278 . S
C416 O424 1.224 . S
O417 C416 1.278 . S
C418 O419 1.245 . S
C418 O430 1.232 . S
O419 C418 1.245 . S
O420 Co414 2.058 . S
O420 C446 1.269 . S
O421 Co413 2.074 . S
O421 C446 1.257 . S
H422 C447 0.930 . S
H423 C453 0.930 . S
O424 Co413 2.093 . S
O424 C416 1.224 . S
H425 C457 0.929 . S
H426 C459 0.930 . S
H427 C460 0.930 . S
H428 C458 0.929 . S
H429 C461 0.928 . S
O430 Co414 2.057 . S
O430 C418 1.232 . S
H431 C450 0.929 . S
H432 C451 0.929 . S
H433 C463 0.931 . S
H434 C455 0.929 . S
H435 C464 0.930 . S
H436 C456 0.931 . S
O437 Co413 2.097 . S
O437 C465 1.214 . S
H438 C466 0.929 . S
H439 C467 0.929 . S
H440 C468 0.930 . S
H441 C469 0.929 . S
H442 C471 0.930 . S
H443 C448 0.930 . S
H444 C452 0.930 . S
O445 Co414 2.037 . S
O445 C465 1.234 . S
C446 O420 1.269 . S
C446 O421 1.257 . S
C447 H422 0.930 . S
C447 C450 1.388 . S
C447 C452 1.418 . S
C448 H443 0.930 . S
C448 C451 1.404 . S
C448 C452 1.353 . S
N449 Co414 2.145 . S
N449 C450 1.397 . S
N449 C451 1.334 . S
C450 H431 0.929 . S
C450 C447 1.388 . S
C450 N449 1.397 . S
C451 H432 0.929 . S
C451 C448 1.404 . S
C451 N449 1.334 . S
C452 H444 0.930 . S
C452 C447 1.418 . S
C452 C448 1.353 . S
C453 H423 0.930 . S
C453 N454 1.330 . S
C453 C455 1.446 . S
N454 Co413 2.151 . S
N454 C453 1.330 . S
N454 C458 1.418 . S
C455 H434 0.929 . S
C455 C453 1.446 . S
C455 C456 1.332 . S
C456 H436 0.931 . S
C456 C455 1.332 . S
C456 C457 1.267 . S
C457 H425 0.929 . S
C457 C456 1.267 . S
C457 C458 1.251 . S
C458 H428 0.929 . S
C458 N454 1.418 . S
C458 C457 1.251 . S
C459 H426 0.930 . S
C459 C461 1.406 . S
C459 C464 1.261 . S
C460 H427 0.930 . S
C460 N462 1.325 . S
C460 C463 1.357 . S
C461 H429 0.928 . S
C461 C459 1.406 . S
C461 N462 1.261 . S
N462 Co413 2.214 . S
N462 C460 1.325 . S
N462 C461 1.261 . S
C463 H433 0.931 . S
C463 C460 1.357 . S
C463 C464 1.312 . S
C464 H435 0.930 . S
C464 C459 1.261 . S
C464 C463 1.312 . S
C465 O437 1.214 . S
C465 O445 1.234 . S
C466 H438 0.929 . S
C466 C469 1.391 . S
C466 C471 1.391 . S
C467 H439 0.929 . S
C467 C468 1.390 . S
C467 N470 1.391 . S
C468 H440 0.930 . S
C468 C467 1.390 . S
C468 C469 1.392 . S
C469 H441 0.929 . S
C469 C466 1.391 . S
C469 C468 1.392 . S
N470 Co414 2.257 . S
N470 C467 1.391 . S
N470 C471 1.388 . S
C471 H442 0.930 . S
C471 C466 1.391 . S
C471 N470 1.388 . S
Co472 O474 2.143 . S
Co472 O480 2.074 1_554 S
Co472 O483 2.093 . S
Co472 O496 2.097 . S
Co472 N513 2.151 1_554 S
Co472 N521 2.214 1_554 S
Co473 O474 2.160 . S
Co473 O479 2.058 1_554 S
Co473 O489 2.057 . S
Co473 O504 2.037 . S
Co473 N508 2.145 1_554 S
Co473 N529 2.257 . S
O474 Co472 2.143 . S
O474 Co473 2.160 . S
C475 O476 1.278 . S
C475 O483 1.224 . S
O476 C475 1.278 . S
C477 O478 1.245 . S
C477 O489 1.232 . S
O478 C477 1.245 . S
O479 Co473 2.058 1_556 S
O479 C505 1.269 . S
O480 Co472 2.074 1_556 S
O480 C505 1.257 . S
H481 C506 0.930 . S
H482 C512 0.930 . S
O483 Co472 2.093 . S
O483 C475 1.224 . S
H484 C516 0.929 . S
H485 C518 0.930 . S
H486 C519 0.930 . S
H487 C517 0.929 . S
H488 C520 0.928 1_554 S
O489 Co473 2.057 . S
O489 C477 1.232 . S
H490 C509 0.929 . S
H491 C510 0.929 1_554 S
H492 C522 0.931 . S
H493 C514 0.929 . S
H494 C523 0.930 . S
H495 C515 0.931 . S
O496 Co472 2.097 . S
O496 C524 1.214 . S
H497 C525 0.929 . S
H498 C526 0.929 . S
H499 C527 0.930 . S
H500 C528 0.929 . S
H501 C530 0.930 . S
H502 C507 0.930 . S
H503 C511 0.930 . S
O504 Co473 2.037 . S
O504 C524 1.234 . S
C505 O479 1.269 . S
C505 O480 1.257 . S
C506 H481 0.930 . S
C506 C509 1.388 . S
C506 C511 1.418 . S
C507 H502 0.930 . S
C507 C510 1.404 . S
C507 C511 1.353 . S
N508 Co473 2.145 1_556 S
N508 C509 1.397 . S
N508 C510 1.334 . S
C509 H490 0.929 . S
C509 C506 1.388 . S
C509 N508 1.397 . S
C510 H491 0.929 1_556 S
C510 C507 1.404 . S
C510 N508 1.334 . S
C511 H503 0.930 . S
C511 C506 1.418 . S
C511 C507 1.353 . S
C512 H482 0.930 . S
C512 N513 1.330 1_554 S
C512 C514 1.446 . S
N513 Co472 2.151 1_556 S
N513 C512 1.330 1_556 S
N513 C517 1.418 . S
C514 H493 0.929 . S
C514 C512 1.446 . S
C514 C515 1.332 1_554 S
C515 H495 0.931 . S
C515 C514 1.332 1_556 S
C515 C516 1.267 . S
C516 H484 0.929 . S
C516 C515 1.267 . S
C516 C517 1.251 . S
C517 H487 0.929 . S
C517 N513 1.418 . S
C517 C516 1.251 . S
C518 H485 0.930 . S
C518 C520 1.406 . S
C518 C523 1.261 . S
C519 H486 0.930 . S
C519 N521 1.325 . S
C519 C522 1.357 . S
C520 H488 0.928 1_556 S
C520 C518 1.406 . S
C520 N521 1.261 . S
N521 Co472 2.214 1_556 S
N521 C519 1.325 . S
N521 C520 1.261 . S
C522 H492 0.931 . S
C522 C519 1.357 . S
C522 C523 1.312 . S
C523 H494 0.930 . S
C523 C518 1.261 . S
C523 C522 1.312 . S
C524 O496 1.214 . S
C524 O504 1.234 . S
C525 H497 0.929 . S
C525 C528 1.391 . S
C525 C530 1.391 . S
C526 H498 0.929 . S
C526 C527 1.390 . S
C526 N529 1.391 . S
C527 H499 0.930 . S
C527 C526 1.390 . S
C527 C528 1.392 . S
C528 H500 0.929 . S
C528 C525 1.391 . S
C528 C527 1.392 . S
N529 Co473 2.257 . S
N529 C526 1.391 . S
N529 C530 1.388 . S
C530 H501 0.930 . S
C530 C525 1.391 . S
C530 N529 1.388 . S
Co531 O533 2.143 . S
Co531 O539 2.074 . S
Co531 O542 2.093 . S
Co531 O555 2.097 . S
Co531 N572 2.151 . S
Co531 N580 2.214 . S
Co532 O533 2.160 . S
Co532 O538 2.058 . S
Co532 O548 2.057 . S
Co532 O563 2.037 . S
Co532 N567 2.145 . S
Co532 N588 2.257 . S
O533 Co531 2.143 . S
O533 Co532 2.160 . S
C534 O535 1.278 . S
C534 O542 1.224 . S
O535 C534 1.278 . S
C536 O537 1.245 . S
C536 O548 1.232 . S
O537 C536 1.245 . S
O538 Co532 2.058 . S
O538 C564 1.269 . S
O539 Co531 2.074 . S
O539 C564 1.257 . S
H540 C565 0.930 . S
H541 C571 0.930 . S
O542 Co531 2.093 . S
O542 C534 1.224 . S
H543 C575 0.929 . S
H544 C577 0.930 . S
H545 C578 0.930 . S
H546 C576 0.929 . S
H547 C579 0.928 . S
O548 Co532 2.057 . S
O548 C536 1.232 . S
H549 C568 0.929 . S
H550 C569 0.929 . S
H551 C581 0.931 . S
H552 C573 0.929 . S
H553 C582 0.930 . S
H554 C574 0.931 . S
O555 Co531 2.097 . S
O555 C583 1.214 . S
H556 C584 0.929 . S
H557 C585 0.929 . S
H558 C586 0.930 . S
H559 C587 0.929 . S
H560 C589 0.930 . S
H561 C566 0.930 . S
H562 C570 0.930 . S
O563 Co532 2.037 . S
O563 C583 1.234 . S
C564 O538 1.269 . S
C564 O539 1.257 . S
C565 H540 0.930 . S
C565 C568 1.388 . S
C565 C570 1.418 . S
C566 H561 0.930 . S
C566 C569 1.404 . S
C566 C570 1.353 . S
N567 Co532 2.145 . S
N567 C568 1.397 . S
N567 C569 1.334 . S
C568 H549 0.929 . S
C568 C565 1.388 . S
C568 N567 1.397 . S
C569 H550 0.929 . S
C569 C566 1.404 . S
C569 N567 1.334 . S
C570 H562 0.930 . S
C570 C565 1.418 . S
C570 C566 1.353 . S
C571 H541 0.930 . S
C571 N572 1.330 . S
C571 C573 1.446 . S
N572 Co531 2.151 . S
N572 C571 1.330 . S
N572 C576 1.418 . S
C573 H552 0.929 . S
C573 C571 1.446 . S
C573 C574 1.332 . S
C574 H554 0.931 . S
C574 C573 1.332 . S
C574 C575 1.267 . S
C575 H543 0.929 . S
C575 C574 1.267 . S
C575 C576 1.251 . S
C576 H546 0.929 . S
C576 N572 1.418 . S
C576 C575 1.251 . S
C577 H544 0.930 . S
C577 C579 1.406 . S
C577 C582 1.261 . S
C578 H545 0.930 . S
C578 N580 1.325 . S
C578 C581 1.357 . S
C579 H547 0.928 . S
C579 C577 1.406 . S
C579 N580 1.261 . S
N580 Co531 2.214 . S
N580 C578 1.325 . S
N580 C579 1.261 . S
C581 H551 0.931 . S
C581 C578 1.357 . S
C581 C582 1.312 . S
C582 H553 0.930 . S
C582 C577 1.261 . S
C582 C581 1.312 . S
C583 O555 1.214 . S
C583 O563 1.234 . S
C584 H556 0.929 . S
C584 C587 1.391 . S
C584 C589 1.391 . S
C585 H557 0.929 . S
C585 C586 1.390 . S
C585 N588 1.391 . S
C586 H558 0.930 . S
C586 C585 1.390 . S
C586 C587 1.392 . S
C587 H559 0.929 . S
C587 C584 1.391 . S
C587 C586 1.392 . S
N588 Co532 2.257 . S
N588 C585 1.391 . S
N588 C589 1.388 . S
C589 H560 0.930 . S
C589 C584 1.391 . S
C589 N588 1.388 . S
Co590 O592 2.143 . S
Co590 O598 2.074 . S
Co590 O601 2.093 . S
Co590 O614 2.097 . S
Co590 N631 2.151 . S
Co590 N639 2.214 . S
Co591 O592 2.160 . S
Co591 O597 2.058 . S
Co591 O607 2.057 . S
Co591 O622 2.037 . S
Co591 N626 2.145 . S
Co591 N647 2.257 . S
O592 Co590 2.143 . S
O592 Co591 2.160 . S
C593 O594 1.278 . S
C593 O601 1.224 . S
O594 C593 1.278 . S
C595 O596 1.245 . S
C595 O607 1.232 . S
O596 C595 1.245 . S
O597 Co591 2.058 . S
O597 C623 1.269 . S
O598 Co590 2.074 . S
O598 C623 1.257 . S
H599 C624 0.930 . S
H600 C630 0.930 . S
O601 Co590 2.093 . S
O601 C593 1.224 . S
H602 C634 0.929 . S
H603 C636 0.930 . S
H604 C637 0.930 . S
H605 C635 0.929 . S
H606 C638 0.928 . S
O607 Co591 2.057 . S
O607 C595 1.232 . S
H608 C627 0.929 . S
H609 C628 0.929 . S
H610 C640 0.931 . S
H611 C632 0.929 . S
H612 C641 0.930 . S
H613 C633 0.931 . S
O614 Co590 2.097 . S
O614 C642 1.214 . S
H615 C643 0.929 . S
H616 C644 0.929 . S
H617 C645 0.930 . S
H618 C646 0.929 . S
H619 C648 0.930 . S
H620 C625 0.930 . S
H621 C629 0.930 . S
O622 Co591 2.037 . S
O622 C642 1.234 . S
C623 O597 1.269 . S
C623 O598 1.257 . S
C624 H599 0.930 . S
C624 C627 1.388 . S
C624 C629 1.418 . S
C625 H620 0.930 . S
C625 C628 1.404 . S
C625 C629 1.353 . S
N626 Co591 2.145 . S
N626 C627 1.397 . S
N626 C628 1.334 . S
C627 H608 0.929 . S
C627 C624 1.388 . S
C627 N626 1.397 . S
C628 H609 0.929 . S
C628 C625 1.404 . S
C628 N626 1.334 . S
C629 H621 0.930 . S
C629 C624 1.418 . S
C629 C625 1.353 . S
C630 H600 0.930 . S
C630 N631 1.330 . S
C630 C632 1.446 . S
N631 Co590 2.151 . S
N631 C630 1.330 . S
N631 C635 1.418 . S
C632 H611 0.929 . S
C632 C630 1.446 . S
C632 C633 1.332 . S
C633 H613 0.931 . S
C633 C632 1.332 . S
C633 C634 1.267 . S
C634 H602 0.929 . S
C634 C633 1.267 . S
C634 C635 1.251 . S
C635 H605 0.929 . S
C635 N631 1.418 . S
C635 C634 1.251 . S
C636 H603 0.930 . S
C636 C638 1.406 . S
C636 C641 1.261 . S
C637 H604 0.930 . S
C637 N639 1.325 . S
C637 C640 1.357 . S
C638 H606 0.928 . S
C638 C636 1.406 . S
C638 N639 1.261 . S
N639 Co590 2.214 . S
N639 C637 1.325 . S
N639 C638 1.261 . S
C640 H610 0.931 . S
C640 C637 1.357 . S
C640 C641 1.312 . S
C641 H612 0.930 . S
C641 C636 1.261 . S
C641 C640 1.312 . S
C642 O614 1.214 . S
C642 O622 1.234 . S
C643 H615 0.929 . S
C643 C646 1.391 . S
C643 C648 1.391 . S
C644 H616 0.929 . S
C644 C645 1.390 . S
C644 N647 1.391 . S
C645 H617 0.930 . S
C645 C644 1.390 . S
C645 C646 1.392 . S
C646 H618 0.929 . S
C646 C643 1.391 . S
C646 C645 1.392 . S
N647 Co591 2.257 . S
N647 C644 1.391 . S
N647 C648 1.388 . S
C648 H619 0.930 . S
C648 C643 1.391 . S
C648 N647 1.388 . S
Co649 O651 2.143 . S
Co649 O657 2.074 1_554 S
Co649 O660 2.093 . S
Co649 O673 2.097 . S
Co649 N690 2.151 1_554 S
Co649 N698 2.214 1_554 S
Co650 O651 2.160 . S
Co650 O656 2.058 1_554 S
Co650 O666 2.057 . S
Co650 O681 2.037 . S
Co650 N685 2.145 1_554 S
Co650 N706 2.257 . S
O651 Co649 2.143 . S
O651 Co650 2.160 . S
C652 O653 1.278 . S
C652 O660 1.224 . S
O653 C652 1.278 . S
C654 O655 1.245 . S
C654 O666 1.232 . S
O655 C654 1.245 . S
O656 Co650 2.058 1_556 S
O656 C682 1.269 . S
O657 Co649 2.074 1_556 S
O657 C682 1.257 . S
H658 C683 0.930 . S
H659 C689 0.930 . S
O660 Co649 2.093 . S
O660 C652 1.224 . S
H661 C693 0.929 . S
H662 C695 0.930 . S
H663 C696 0.930 . S
H664 C694 0.929 . S
H665 C697 0.928 1_554 S
O666 Co650 2.057 . S
O666 C654 1.232 . S
H667 C686 0.929 . S
H668 C687 0.929 1_554 S
H669 C699 0.931 . S
H670 C691 0.929 . S
H671 C700 0.930 . S
H672 C692 0.931 . S
O673 Co649 2.097 . S
O673 C701 1.214 . S
H674 C702 0.929 . S
H675 C703 0.929 . S
H676 C704 0.930 . S
H677 C705 0.929 . S
H678 C707 0.930 . S
H679 C684 0.930 . S
H680 C688 0.930 . S
O681 Co650 2.037 . S
O681 C701 1.234 . S
C682 O656 1.269 . S
C682 O657 1.257 . S
C683 H658 0.930 . S
C683 C686 1.388 . S
C683 C688 1.418 . S
C684 H679 0.930 . S
C684 C687 1.404 . S
C684 C688 1.353 . S
N685 Co650 2.145 1_556 S
N685 C686 1.397 . S
N685 C687 1.334 . S
C686 H667 0.929 . S
C686 C683 1.388 . S
C686 N685 1.397 . S
C687 H668 0.929 1_556 S
C687 C684 1.404 . S
C687 N685 1.334 . S
C688 H680 0.930 . S
C688 C683 1.418 . S
C688 C684 1.353 . S
C689 H659 0.930 . S
C689 N690 1.330 1_554 S
C689 C691 1.446 . S
N690 Co649 2.151 1_556 S
N690 C689 1.330 1_556 S
N690 C694 1.418 . S
C691 H670 0.929 . S
C691 C689 1.446 . S
C691 C692 1.332 1_554 S
C692 H672 0.931 . S
C692 C691 1.332 1_556 S
C692 C693 1.267 . S
C693 H661 0.929 . S
C693 C692 1.267 . S
C693 C694 1.251 . S
C694 H664 0.929 . S
C694 N690 1.418 . S
C694 C693 1.251 . S
C695 H662 0.930 . S
C695 C697 1.406 . S
C695 C700 1.261 . S
C696 H663 0.930 . S
C696 N698 1.325 . S
C696 C699 1.357 . S
C697 H665 0.928 1_556 S
C697 C695 1.406 . S
C697 N698 1.261 . S
N698 Co649 2.214 1_556 S
N698 C696 1.325 . S
N698 C697 1.261 . S
C699 H669 0.931 . S
C699 C696 1.357 . S
C699 C700 1.312 . S
C700 H671 0.930 . S
C700 C695 1.261 . S
C700 C699 1.312 . S
C701 O673 1.214 . S
C701 O681 1.234 . S
C702 H674 0.929 . S
C702 C705 1.391 . S
C702 C707 1.391 . S
C703 H675 0.929 . S
C703 C704 1.390 . S
C703 N706 1.391 . S
C704 H676 0.930 . S
C704 C703 1.390 . S
C704 C705 1.392 . S
C705 H677 0.929 . S
C705 C702 1.391 . S
C705 C704 1.392 . S
N706 Co650 2.257 . S
N706 C703 1.391 . S
N706 C707 1.388 . S
C707 H678 0.930 . S
C707 C702 1.391 . S
C707 N706 1.388 . S
H708 C714 0.930 . S
H709 C717 0.930 . S
H710 C718 0.930 . S
H711 C719 0.930 . S
H712 C722 0.930 . S
H713 C723 0.930 . S
C714 H708 0.930 . S
C714 C715 1.355 . S
C714 C716 1.415 . S
C715 C714 1.355 . S
C715 C717 1.419 . S
C716 C714 1.415 . S
C716 C721 1.425 . S
C716 C723 1.409 . S
C717 H709 0.930 . S
C717 C715 1.419 . S
C717 C718 1.362 . S
C718 H710 0.930 . S
C718 C717 1.362 . S
C718 C721 1.409 . S
C719 H711 0.930 . S
C719 C720 1.355 . S
C719 C721 1.415 . S
C720 C719 1.355 . S
C720 C722 1.419 . S
C721 C716 1.425 . S
C721 C718 1.409 . S
C721 C719 1.415 . S
C722 H712 0.930 . S
C722 C720 1.419 . S
C722 C723 1.362 . S
C723 H713 0.930 . S
C723 C716 1.409 . S
C723 C722 1.362 . S
H724 C730 0.930 . S
H725 C733 0.930 . S
H726 C734 0.930 . S
H727 C735 0.930 . S
H728 C738 0.930 . S
H729 C739 0.930 . S
C730 H724 0.930 . S
C730 C731 1.355 . S
C730 C732 1.415 . S
C731 C730 1.355 . S
C731 C733 1.419 . S
C732 C730 1.415 . S
C732 C737 1.425 . S
C732 C739 1.409 . S
C733 H725 0.930 . S
C733 C731 1.419 . S
C733 C734 1.362 . S
C734 H726 0.930 . S
C734 C733 1.362 . S
C734 C737 1.409 . S
C735 H727 0.930 . S
C735 C736 1.355 . S
C735 C737 1.415 . S
C736 C735 1.355 . S
C736 C738 1.419 . S
C737 C732 1.425 . S
C737 C734 1.409 . S
C737 C735 1.415 . S
C738 H728 0.930 . S
C738 C736 1.419 . S
C738 C739 1.362 . S
C739 H729 0.930 . S
C739 C732 1.409 . S
C739 C738 1.362 . S
H740 C746 0.930 . S
H741 C749 0.930 . S
H742 C750 0.930 . S
H743 C751 0.930 . S
H744 C754 0.930 . S
H745 C755 0.930 . S
C746 H740 0.930 . S
C746 C747 1.355 . S
C746 C748 1.415 . S
C747 C746 1.355 . S
C747 C749 1.419 . S
C748 C746 1.415 . S
C748 C753 1.425 . S
C748 C755 1.409 . S
C749 H741 0.930 . S
C749 C747 1.419 . S
C749 C750 1.362 . S
C750 H742 0.930 . S
C750 C749 1.362 . S
C750 C753 1.409 . S
C751 H743 0.930 . S
C751 C752 1.355 . S
C751 C753 1.415 . S
C752 C751 1.355 . S
C752 C754 1.419 . S
C753 C748 1.425 . S
C753 C750 1.409 . S
C753 C751 1.415 . S
C754 H744 0.930 . S
C754 C752 1.419 . S
C754 C755 1.362 . S
C755 H745 0.930 . S
C755 C748 1.409 . S
C755 C754 1.362 . S
H756 C762 0.930 . S
H757 C765 0.930 . S
H758 C766 0.930 . S
H759 C767 0.930 . S
H760 C770 0.930 . S
H761 C771 0.930 . S
C762 H756 0.930 . S
C762 C763 1.355 . S
C762 C764 1.415 . S
C763 C762 1.355 . S
C763 C765 1.419 . S
C764 C762 1.415 . S
C764 C769 1.425 . S
C764 C771 1.409 . S
C765 H757 0.930 . S
C765 C763 1.419 . S
C765 C766 1.362 . S
C766 H758 0.930 . S
C766 C765 1.362 . S
C766 C769 1.409 . S
C767 H759 0.930 . S
C767 C768 1.355 . S
C767 C769 1.415 . S
C768 C767 1.355 . S
C768 C770 1.419 . S
C769 C764 1.425 . S
C769 C766 1.409 . S
C769 C767 1.415 . S
C770 H760 0.930 . S
C770 C768 1.419 . S
C770 C771 1.362 . S
C771 H761 0.930 . S
C771 C764 1.409 . S
C771 C770 1.362 . S
H772 C778 0.930 . S
H773 C781 0.930 . S
H774 C782 0.930 . S
H775 C783 0.930 . S
H776 C786 0.930 . S
H777 C787 0.930 . S
C778 H772 0.930 . S
C778 C779 1.355 . S
C778 C780 1.415 . S
C779 C778 1.355 . S
C779 C781 1.419 . S
C780 C778 1.415 . S
C780 C785 1.425 . S
C780 C787 1.409 . S
C781 H773 0.930 . S
C781 C779 1.419 . S
C781 C782 1.362 . S
C782 H774 0.930 . S
C782 C781 1.362 . S
C782 C785 1.409 . S
C783 H775 0.930 . S
C783 C784 1.355 . S
C783 C785 1.415 . S
C784 C783 1.355 . S
C784 C786 1.419 . S
C785 C780 1.425 . S
C785 C782 1.409 . S
C785 C783 1.415 . S
C786 H776 0.930 . S
C786 C784 1.419 . S
C786 C787 1.362 . S
C787 H777 0.930 . S
C787 C780 1.409 . S
C787 C786 1.362 . S
H788 C794 0.930 . S
H789 C797 0.930 . S
H790 C798 0.930 . S
H791 C799 0.930 . S
H792 C802 0.930 . S
H793 C803 0.930 . S
C794 H788 0.930 . S
C794 C795 1.355 . S
C794 C796 1.415 . S
C795 C794 1.355 . S
C795 C797 1.419 . S
C796 C794 1.415 . S
C796 C801 1.425 . S
C796 C803 1.409 . S
C797 H789 0.930 . S
C797 C795 1.419 . S
C797 C798 1.362 . S
C798 H790 0.930 . S
C798 C797 1.362 . S
C798 C801 1.409 . S
C799 H791 0.930 . S
C799 C800 1.355 . S
C799 C801 1.415 . S
C800 C799 1.355 . S
C800 C802 1.419 . S
C801 C796 1.425 . S
C801 C798 1.409 . S
C801 C799 1.415 . S
C802 H792 0.930 . S
C802 C800 1.419 . S
C802 C803 1.362 . S
C803 H793 0.930 . S
C803 C796 1.409 . S
C803 C802 1.362 . S
H804 C810 0.930 . S
H805 C813 0.930 . S
H806 C814 0.930 . S
H807 C815 0.930 . S
H808 C818 0.930 . S
H809 C819 0.930 . S
C810 H804 0.930 . S
C810 C811 1.355 . S
C810 C812 1.415 . S
C811 C810 1.355 . S
C811 C813 1.419 . S
C812 C810 1.415 . S
C812 C817 1.425 . S
C812 C819 1.409 . S
C813 H805 0.930 . S
C813 C811 1.419 . S
C813 C814 1.362 . S
C814 H806 0.930 . S
C814 C813 1.362 . S
C814 C817 1.409 . S
C815 H807 0.930 . S
C815 C816 1.355 . S
C815 C817 1.415 . S
C816 C815 1.355 . S
C816 C818 1.419 . S
C817 C812 1.425 . S
C817 C814 1.409 . S
C817 C815 1.415 . S
C818 H808 0.930 . S
C818 C816 1.419 . S
C818 C819 1.362 . S
C819 H809 0.930 . S
C819 C812 1.409 . S
C819 C818 1.362 . S
H820 C826 0.930 . S
H821 C829 0.930 . S
H822 C830 0.930 . S
H823 C831 0.930 . S
H824 C834 0.930 . S
H825 C835 0.930 . S
C826 H820 0.930 . S
C826 C827 1.355 . S
C826 C828 1.415 . S
C827 C826 1.355 . S
C827 C829 1.419 . S
C828 C826 1.415 . S
C828 C833 1.425 . S
C828 C835 1.409 . S
C829 H821 0.930 . S
C829 C827 1.419 . S
C829 C830 1.362 . S
C830 H822 0.930 . S
C830 C829 1.362 . S
C830 C833 1.409 . S
C831 H823 0.930 . S
C831 C832 1.355 . S
C831 C833 1.415 . S
C832 C831 1.355 . S
C832 C834 1.419 . S
C833 C828 1.425 . S
C833 C830 1.409 . S
C833 C831 1.415 . S
C834 H824 0.930 . S
C834 C832 1.419 . S
C834 C835 1.362 . S
C835 H825 0.930 . S
C835 C828 1.409 . S
C835 C834 1.362 . S
H836 C842 0.930 . S
H837 C845 0.930 . S
H838 C846 0.930 . S
H839 C847 0.930 . S
H840 C850 0.930 . S
H841 C851 0.930 . S
C842 H836 0.930 . S
C842 C843 1.355 1_556 S
C842 C844 1.415 . S
C843 C842 1.355 1_554 S
C843 C845 1.419 . S
C844 C842 1.415 . S
C844 C849 1.417 1_556 S
C844 C851 1.417 . S
C845 H837 0.930 . S
C845 C843 1.419 . S
C845 C846 1.362 . S
C846 H838 0.930 . S
C846 C845 1.362 . S
C846 C849 1.409 . S
C847 H839 0.930 . S
C847 C848 1.355 . S
C847 C849 1.415 . S
C848 C847 1.355 . S
C848 C850 1.419 1_554 S
C849 C844 1.417 1_554 S
C849 C846 1.409 . S
C849 C847 1.415 . S
C850 H840 0.930 . S
C850 C848 1.419 1_556 S
C850 C851 1.362 . S
C851 H841 0.930 . S
C851 C844 1.417 . S
C851 C850 1.362 . S
H852 C858 0.930 . S
H853 C861 0.930 . S
H854 C862 0.930 . S
H855 C863 0.930 . S
H856 C866 0.930 . S
H857 C867 0.930 . S
C858 H852 0.930 . S
C858 C859 1.355 . S
C858 C860 1.415 . S
C859 C858 1.355 . S
C859 C861 1.419 . S
C860 C858 1.415 . S
C860 C865 1.425 . S
C860 C867 1.409 . S
C861 H853 0.930 . S
C861 C859 1.419 . S
C861 C862 1.362 . S
C862 H854 0.930 . S
C862 C861 1.362 . S
C862 C865 1.409 . S
C863 H855 0.930 . S
C863 C864 1.355 . S
C863 C865 1.415 . S
C864 C863 1.355 . S
C864 C866 1.419 . S
C865 C860 1.425 . S
C865 C862 1.409 . S
C865 C863 1.415 . S
C866 H856 0.930 . S
C866 C864 1.419 . S
C866 C867 1.362 . S
C867 H857 0.930 . S
C867 C860 1.409 . S
C867 C866 1.362 . S
H868 C874 0.930 . S
H869 C877 0.930 . S
H870 C878 0.930 . S
H871 C879 0.930 . S
H872 C882 0.930 . S
H873 C883 0.930 . S
C874 H868 0.930 . S
C874 C875 1.355 . S
C874 C876 1.415 . S
C875 C874 1.355 . S
C875 C877 1.419 . S
C876 C874 1.415 . S
C876 C881 1.425 . S
C876 C883 1.409 . S
C877 H869 0.930 . S
C877 C875 1.419 . S
C877 C878 1.362 . S
C878 H870 0.930 . S
C878 C877 1.362 . S
C878 C881 1.409 . S
C879 H871 0.930 . S
C879 C880 1.355 . S
C879 C881 1.415 . S
C880 C879 1.355 . S
C880 C882 1.419 . S
C881 C876 1.425 . S
C881 C878 1.409 . S
C881 C879 1.415 . S
C882 H872 0.930 . S
C882 C880 1.419 . S
C882 C883 1.362 . S
C883 H873 0.930 . S
C883 C876 1.409 . S
C883 C882 1.362 . S
H884 C890 0.930 . S
H885 C893 0.930 . S
H886 C894 0.930 . S
H887 C895 0.930 . S
H888 C898 0.930 . S
H889 C899 0.930 . S
C890 H884 0.930 . S
C890 C891 1.355 1_556 S
C890 C892 1.415 . S
C891 C890 1.355 1_554 S
C891 C893 1.419 . S
C892 C890 1.415 . S
C892 C897 1.425 1_556 S
C892 C899 1.409 . S
C893 H885 0.930 . S
C893 C891 1.419 . S
C893 C894 1.362 . S
C894 H886 0.930 . S
C894 C893 1.362 . S
C894 C897 1.409 . S
C895 H887 0.930 . S
C895 C896 1.355 . S
C895 C897 1.415 . S
C896 C895 1.355 . S
C896 C898 1.419 1_554 S
C897 C892 1.425 1_554 S
C897 C894 1.409 . S
C897 C895 1.415 . S
C898 H888 0.930 . S
C898 C896 1.419 1_556 S
C898 C899 1.362 . S
C899 H889 0.930 . S
C899 C892 1.409 . S
C899 C898 1.362 . S
H900 C906 0.930 . S
H901 C909 0.930 . S
H902 C910 0.930 . S
H903 C911 0.930 . S
H904 C914 0.930 . S
H905 C915 0.930 . S
C906 H900 0.930 . S
C906 C907 1.355 . S
C906 C908 1.415 . S
C907 C906 1.355 . S
C907 C909 1.419 . S
C908 C906 1.415 . S
C908 C913 1.425 1_545 S
C908 C915 1.407 . S
C909 H901 0.930 . S
C909 C907 1.419 . S
C909 C910 1.364 1_545 S
C910 H902 0.930 . S
C910 C909 1.364 1_565 S
C910 C913 1.407 . S
C911 H903 0.930 . S
C911 C912 1.355 . S
C911 C913 1.415 . S
C912 C911 1.355 . S
C912 C914 1.419 . S
C913 C908 1.425 1_565 S
C913 C910 1.407 . S
C913 C911 1.415 . S
C914 H904 0.930 . S
C914 C912 1.419 . S
C914 C915 1.364 1_565 S
C915 H905 0.930 . S
C915 C908 1.407 . S
C915 C914 1.364 1_545 S
H916 C922 0.930 . S
H917 C925 0.930 . S
H918 C926 0.930 . S
H919 C927 0.930 . S
H920 C930 0.930 . S
H921 C931 0.930 . S
C922 H916 0.930 . S
C922 C923 1.355 . S
C922 C924 1.415 . S
C923 C922 1.355 . S
C923 C925 1.419 . S
C924 C922 1.415 . S
C924 C929 1.425 . S
C924 C931 1.409 . S
C925 H917 0.930 . S
C925 C923 1.419 . S
C925 C926 1.362 . S
C926 H918 0.930 . S
C926 C925 1.362 . S
C926 C929 1.409 . S
C927 H919 0.930 . S
C927 C928 1.355 . S
C927 C929 1.415 . S
C928 C927 1.355 . S
C928 C930 1.419 . S
C929 C924 1.425 . S
C929 C926 1.409 . S
C929 C927 1.415 . S
C930 H920 0.930 . S
C930 C928 1.419 . S
C930 C931 1.362 . S
C931 H921 0.930 . S
C931 C924 1.409 . S
C931 C930 1.362 . S
H932 C938 0.930 . S
H933 C941 0.930 . S
H934 C942 0.930 . S
H935 C943 0.930 . S
H936 C946 0.930 . S
H937 C947 0.930 . S
C938 H932 0.930 . S
C938 C939 1.355 1_554 S
C938 C940 1.415 . S
C939 C938 1.355 1_556 S
C939 C941 1.419 . S
C940 C938 1.415 . S
C940 C945 1.424 1_654 S
C940 C947 1.410 1_655 S
C941 H933 0.930 . S
C941 C939 1.419 . S
C941 C942 1.362 . S
C942 H934 0.930 . S
C942 C941 1.362 . S
C942 C945 1.409 1_655 S
C943 H935 0.930 . S
C943 C944 1.355 . S
C943 C945 1.415 . S
C944 C943 1.355 . S
C944 C946 1.419 1_556 S
C945 C940 1.424 1_456 S
C945 C942 1.409 1_455 S
C945 C943 1.415 . S
C946 H936 0.930 . S
C946 C944 1.419 1_554 S
C946 C947 1.362 . S
C947 H937 0.930 . S
C947 C940 1.410 1_455 S
C947 C946 1.362 . S
H948 C954 0.930 . S
H949 C957 0.930 . S
H950 C958 0.930 . S
H951 C959 0.930 . S
H952 C962 0.930 . S
H953 C963 0.930 . S
C954 H948 0.930 . S
C954 C955 1.355 . S
C954 C956 1.415 . S
C955 C954 1.355 . S
C955 C957 1.419 . S
C956 C954 1.415 . S
C956 C961 1.425 1_455 S
C956 C963 1.409 1_455 S
C957 H949 0.930 . S
C957 C955 1.419 . S
C957 C958 1.362 . S
C958 H950 0.930 . S
C958 C957 1.362 . S
C958 C961 1.409 1_455 S
C959 H951 0.930 . S
C959 C960 1.355 . S
C959 C961 1.415 . S
C960 C959 1.355 . S
C960 C962 1.419 . S
C961 C956 1.425 1_655 S
C961 C958 1.409 1_655 S
C961 C959 1.415 . S
C962 H952 0.930 . S
C962 C960 1.419 . S
C962 C963 1.362 . S
C963 H953 0.930 . S
C963 C956 1.409 1_655 S
C963 C962 1.362 . S
H964 C970 0.930 . S
H965 C973 0.930 . S
H966 C974 0.930 . S
H967 C975 0.930 . S
H968 C978 0.930 . S
H969 C979 0.930 . S
C970 H964 0.930 . S
C970 C971 1.355 . S
C970 C972 1.415 . S
C971 C970 1.355 . S
C971 C973 1.419 . S
C972 C970 1.415 . S
C972 C977 1.425 1_545 S
C972 C979 1.409 . S
C973 H965 0.930 . S
C973 C971 1.419 . S
C973 C974 1.362 1_545 S
C974 H966 0.930 . S
C974 C973 1.362 1_565 S
C974 C977 1.409 . S
C975 H967 0.930 . S
C975 C976 1.355 . S
C975 C977 1.415 . S
C976 C975 1.355 . S
C976 C978 1.419 . S
C977 C972 1.425 1_565 S
C977 C974 1.409 . S
C977 C975 1.415 . S
C978 H968 0.930 . S
C978 C976 1.419 . S
C978 C979 1.362 1_565 S
C979 H969 0.930 . S
C979 C972 1.409 . S
C979 C978 1.362 1_545 S
H980 C986 0.930 . S
H981 C989 0.930 . S
H982 C990 0.930 . S
H983 C991 0.930 1_556 S
H984 C994 0.930 . S
H985 C995 0.930 . S
C986 H980 0.930 . S
C986 C987 1.355 . S
C986 C988 1.415 . S
C987 C986 1.355 . S
C987 C989 1.419 1_554 S
C988 C986 1.415 . S
C988 C993 1.425 . S
C988 C995 1.409 . S
C989 H981 0.930 . S
C989 C987 1.419 1_556 S
C989 C990 1.362 . S
C990 H982 0.930 . S
C990 C989 1.362 . S
C990 C993 1.409 1_556 S
C991 H983 0.930 1_554 S
C991 C992 1.355 . S
C991 C993 1.415 . S
C992 C991 1.355 . S
C992 C994 1.419 . S
C993 C988 1.425 . S
C993 C990 1.409 1_554 S
C993 C991 1.415 . S
C994 H984 0.930 . S
C994 C992 1.419 . S
C994 C995 1.362 . S
C995 H985 0.930 . S
C995 C988 1.409 . S
C995 C994 1.362 . S
H996 C1002 0.930 . S
H997 C1005 0.930 . S
H998 C1006 0.930 . S
H999 C1007 0.930 . S
H1000 C1010 0.930 . S
H1001 C1011 0.930 . S
C1002 H996 0.930 . S
C1002 C1003 1.355 . S
C1002 C1004 1.415 . S
C1003 C1002 1.355 . S
C1003 C1005 1.419 . S
C1004 C1002 1.415 . S
C1004 C1009 1.425 . S
C1004 C1011 1.409 . S
C1005 H997 0.930 . S
C1005 C1003 1.419 . S
C1005 C1006 1.362 . S
C1006 H998 0.930 . S
C1006 C1005 1.362 . S
C1006 C1009 1.409 . S
C1007 H999 0.930 . S
C1007 C1008 1.355 . S
C1007 C1009 1.415 . S
C1008 C1007 1.355 . S
C1008 C1010 1.419 . S
C1009 C1004 1.425 . S
C1009 C1006 1.409 . S
C1009 C1007 1.415 . S
C1010 H1000 0.930 . S
C1010 C1008 1.419 . S
C1010 C1011 1.362 . S
C1011 H1001 0.930 . S
C1011 C1004 1.409 . S
C1011 C1010 1.362 . S
H1012 C1018 0.930 . S
H1013 C1021 0.930 . S
H1014 C1022 0.930 . S
H1015 C1023 0.930 . S
H1016 C1026 0.930 . S
H1017 C1027 0.930 . S
C1018 H1012 0.930 . S
C1018 C1019 1.355 . S
C1018 C1020 1.415 . S
C1019 C1018 1.355 . S
C1019 C1021 1.419 . S
C1020 C1018 1.415 . S
C1020 C1025 1.425 . S
C1020 C1027 1.409 . S
C1021 H1013 0.930 . S
C1021 C1019 1.419 . S
C1021 C1022 1.362 . S
C1022 H1014 0.930 . S
C1022 C1021 1.362 . S
C1022 C1025 1.409 . S
C1023 H1015 0.930 . S
C1023 C1024 1.355 . S
C1023 C1025 1.415 . S
C1024 C1023 1.355 . S
C1024 C1026 1.419 . S
C1025 C1020 1.425 . S
C1025 C1022 1.409 . S
C1025 C1023 1.415 . S
C1026 H1016 0.930 . S
C1026 C1024 1.419 . S
C1026 C1027 1.362 . S
C1027 H1017 0.930 . S
C1027 C1020 1.409 . S
C1027 C1026 1.362 . S
H1028 C1034 0.930 . S
H1029 C1037 0.930 . S
H1030 C1038 0.930 . S
H1031 C1039 0.930 . S
H1032 C1042 0.930 . S
H1033 C1043 0.930 . S
C1034 H1028 0.930 . S
C1034 C1035 1.355 . S
C1034 C1036 1.415 . S
C1035 C1034 1.355 . S
C1035 C1037 1.419 . S
C1036 C1034 1.415 . S
C1036 C1041 1.425 . S
C1036 C1043 1.409 . S
C1037 H1029 0.930 . S
C1037 C1035 1.419 . S
C1037 C1038 1.362 . S
C1038 H1030 0.930 . S
C1038 C1037 1.362 . S
C1038 C1041 1.409 . S
C1039 H1031 0.930 . S
C1039 C1040 1.355 . S
C1039 C1041 1.415 . S
C1040 C1039 1.355 . S
C1040 C1042 1.419 . S
C1041 C1036 1.425 . S
C1041 C1038 1.409 . S
C1041 C1039 1.415 . S
C1042 H1032 0.930 . S
C1042 C1040 1.419 . S
C1042 C1043 1.362 . S
C1043 H1033 0.930 . S
C1043 C1036 1.409 . S
C1043 C1042 1.362 . S
H1044 C1050 0.930 . S
H1045 C1053 0.930 . S
H1046 C1054 0.930 . S
H1047 C1055 0.930 . S
H1048 C1058 0.930 . S
H1049 C1059 0.930 . S
C1050 H1044 0.930 . S
C1050 C1051 1.355 . S
C1050 C1052 1.415 . S
C1051 C1050 1.355 . S
C1051 C1053 1.419 . S
C1052 C1050 1.415 . S
C1052 C1057 1.425 . S
C1052 C1059 1.409 . S
C1053 H1045 0.930 . S
C1053 C1051 1.419 . S
C1053 C1054 1.362 . S
C1054 H1046 0.930 . S
C1054 C1053 1.362 . S
C1054 C1057 1.409 . S
C1055 H1047 0.930 . S
C1055 C1056 1.355 . S
C1055 C1057 1.415 . S
C1056 C1055 1.355 . S
C1056 C1058 1.419 . S
C1057 C1052 1.425 . S
C1057 C1054 1.409 . S
C1057 C1055 1.415 . S
C1058 H1048 0.930 . S
C1058 C1056 1.419 . S
C1058 C1059 1.362 . S
C1059 H1049 0.930 . S
C1059 C1052 1.409 . S
C1059 C1058 1.362 . S
H1060 C1066 0.930 . S
H1061 C1069 0.930 . S
H1062 C1070 0.930 . S
H1063 C1071 0.930 . S
H1064 C1074 0.930 . S
H1065 C1075 0.930 . S
C1066 H1060 0.930 . S
C1066 C1067 1.355 . S
C1066 C1068 1.415 . S
C1067 C1066 1.355 . S
C1067 C1069 1.419 . S
C1068 C1066 1.415 . S
C1068 C1073 1.425 . S
C1068 C1075 1.409 . S
C1069 H1061 0.930 . S
C1069 C1067 1.419 . S
C1069 C1070 1.362 . S
C1070 H1062 0.930 . S
C1070 C1069 1.362 . S
C1070 C1073 1.409 . S
C1071 H1063 0.930 . S
C1071 C1072 1.355 . S
C1071 C1073 1.415 . S
C1072 C1071 1.355 . S
C1072 C1074 1.419 . S
C1073 C1068 1.425 . S
C1073 C1070 1.409 . S
C1073 C1071 1.415 . S
C1074 H1064 0.930 . S
C1074 C1072 1.419 . S
C1074 C1075 1.362 . S
C1075 H1065 0.930 . S
C1075 C1068 1.409 . S
C1075 C1074 1.362 . S
H1076 C1082 0.930 . S
H1077 C1085 0.930 . S
H1078 C1086 0.930 . S
H1079 C1087 0.930 . S
H1080 C1090 0.930 . S
H1081 C1091 0.930 . S
C1082 H1076 0.930 . S
C1082 C1083 1.355 . S
C1082 C1084 1.415 . S
C1083 C1082 1.355 . S
C1083 C1085 1.419 . S
C1084 C1082 1.415 . S
C1084 C1089 1.425 . S
C1084 C1091 1.409 . S
C1085 H1077 0.930 . S
C1085 C1083 1.419 . S
C1085 C1086 1.362 . S
C1086 H1078 0.930 . S
C1086 C1085 1.362 . S
C1086 C1089 1.409 . S
C1087 H1079 0.930 . S
C1087 C1088 1.355 . S
C1087 C1089 1.415 . S
C1088 C1087 1.355 . S
C1088 C1090 1.419 . S
C1089 C1084 1.425 . S
C1089 C1086 1.409 . S
C1089 C1087 1.415 . S
C1090 H1080 0.930 . S
C1090 C1088 1.419 . S
C1090 C1091 1.362 . S
C1091 H1081 0.930 . S
C1091 C1084 1.409 . S
C1091 C1090 1.362 . S
C715 C33 1.836 . S
C720 C623 1.835 . S
C731 C92 1.768 . S
C736 C682 1.769 . S
C747 C387 1.838 . S
C752 C151 1.838 . S
C763 C210 1.770 . S
C768 C446 1.769 . S
C779 C505 1.769 . S
C784 C269 1.768 . S
C795 C564 1.797 . S
C800 C328 1.799 . S
C811 C406 0.716 . S
C816 C52 0.724 . S
C827 C465 0.728 . S
C832 C111 0.735 . S
C843 C524 0.713 . S
C848 C170 0.707 . S
C859 C229 0.716 . S
C864 C583 0.724 . S
C875 C288 0.723 . S
C880 C642 0.730 . S
C891 C347 0.735 . S
C896 C701 0.728 . S
C907 C5 1.552 . S
C912 C182 1.532 . S
C923 C64 1.547 . S
C928 C241 1.546 . S
C939 C123 1.536 . S
C944 C300 1.510 . S
C955 C536 1.516 . S
C960 C359 1.546 . S
C971 C595 1.550 . S
C976 C418 1.541 . S
C987 C654 1.534 . S
C992 C477 1.552 . S
C1003 C3 1.389 . S
C1008 C475 1.368 . S
C1019 C534 1.360 . S
C1024 C62 1.399 . S
C1035 C121 1.364 . S
C1040 C593 1.427 . S
C1051 C652 1.360 . S
C1056 C180 1.428 . S
C1067 C239 1.361 . S
C1072 C357 1.397 . S
C1083 C298 1.412 . S
C1088 C416 1.387 . S
