# Generated by pormake.
# Topology bto, (3)-cn, num edge types: 1
# Building blocks:
#     Node 0, Type 0, BuildingBlock: OLANEW_clean_sbu_2, # of connection points: 3
#     Node 1, Type 0, BuildingBlock: OLANEW_clean_sbu_2, # of connection points: 3
#     Node 2, Type 0, BuildingBlock: OLANEW_clean_sbu_2, # of connection points: 3
#     Node 3, Type 0, BuildingBlock: OLANEW_clean_sbu_2, # of connection points: 3
#     Node 4, Type 0, BuildingBlock: OLANEW_clean_sbu_2, # of connection points: 3
#     Node 5, Type 0, BuildingBlock: OLANEW_clean_sbu_2, # of connection points: 3
#     Edge 6, Type (0, 0), BuildingBlock: ZUJKAS_clean_linker_0, # of connection points: 2
#     Edge 7, Type (0, 0), BuildingBlock: ZUJKAS_clean_linker_0, # of connection points: 2
#     Edge 8, Type (0, 0), BuildingBlock: ZUJKAS_clean_linker_0, # of connection points: 2
#     Edge 9, Type (0, 0), BuildingBlock: ZUJKAS_clean_linker_0, # of connection points: 2
#     Edge 10, Type (0, 0), BuildingBlock: ZUJKAS_clean_linker_0, # of connection points: 2
#     Edge 11, Type (0, 0), BuildingBlock: ZUJKAS_clean_linker_0, # of connection points: 2
#     Edge 12, Type (0, 0), BuildingBlock: ZUJKAS_clean_linker_0, # of connection points: 2
#     Edge 13, Type (0, 0), BuildingBlock: ZUJKAS_clean_linker_0, # of connection points: 2
#     Edge 14, Type (0, 0), BuildingBlock: ZUJKAS_clean_linker_0, # of connection points: 2
# Relax obj value: 0.000
# Max RMSD: 0.062
# Mean RMSD: 0.062
data_MOF--net-bto--node1-OLANEW_clean_sbu_2--edge1-ZUJKAS_clean_linker_0
_symmetry_space_group_name_H-M    P1
_symmetry_Int_Tables_number       1
_symmetry_cell_setting            triclinic
loop_
_symmetry_equiv_pos_as_xyz
'x, y, z'
_cell_length_a     40.830026
_cell_length_b     40.977245
_cell_length_c     76.127843
_cell_angle_alpha  81.645304
_cell_angle_beta   90.203117
_cell_angle_gamma 120.03888
loop_
_atom_site_label
_atom_site_type_symbol
_atom_site_fract_x
_atom_site_fract_y
_atom_site_fract_z
_atom_type_partial_charge
O0 O 0.12356 0.6688 0.04525 0.0
Cd1 Cd 0.11703 0.65086 0.01569 0.0
O2 O 0.082 0.61027 0.05801 0.0
Cd3 Cd 0.06016 0.59192 0.03289 0.0
O4 O 0.01367 0.58156 0.01604 0.0
C5 C 0.00992 0.61004 0.01008 0.0
O6 O 0.03564 0.64406 0.01314 0.0
C7 C 0.10651 0.64458 0.05928 0.0
C8 C 0.17587 0.63845 0.00726 0.0
O9 O 0.17902 0.67134 0.00275 0.0
O10 O 0.14463 0.61127 0.01552 0.0
O11 O 0.51369 0.20759 0.38458 0.0
Cd12 Cd 0.51211 0.23318 0.35377 0.0
O13 O 0.53435 0.1708 0.3771 0.0
Cd14 Cd 0.52018 0.1769 0.34965 0.0
O15 O 0.47511 0.1437 0.33329 0.0
C16 C 0.46076 0.10785 0.33793 0.0
O17 O 0.47532 0.09548 0.35083 0.0
C18 C 0.52583 0.18463 0.38903 0.0
C19 C 0.58026 0.30121 0.34298 0.0
O20 O 0.55182 0.30131 0.35 0.0
O21 O 0.57622 0.26898 0.34083 0.0
O22 O 0.4801 0.49798 0.72539 0.0
Cd23 Cd 0.46237 0.49412 0.69481 0.0
O24 O 0.42327 0.48235 0.73611 0.0
Cd25 Cd 0.40548 0.49187 0.70974 0.0
O26 O 0.40044 0.5356 0.69187 0.0
C27 C 0.41321 0.56652 0.69812 0.0
O28 O 0.42753 0.56842 0.71368 0.0
C29 C 0.45692 0.48972 0.73865 0.0
C30 C 0.44658 0.42362 0.6869 0.0
O31 O 0.48039 0.45251 0.68454 0.0
O32 O 0.42001 0.42822 0.69273 0.0
O33 O 0.44424 0.00575 0.58218 0.0
Cd34 Cd 0.42179 0.98047 0.61353 0.0
O35 O 0.44175 0.05776 0.58349 0.0
Cd36 Cd 0.42388 0.04677 0.61172 0.0
O37 O 0.4183 0.07555 0.6325 0.0
C38 C 0.3905 0.08134 0.63266 0.0
O39 O 0.36432 0.06643 0.62151 0.0
C40 C 0.44863 0.03759 0.57461 0.0
C41 C 0.41681 0.90982 0.62364 0.0
O42 O 0.38834 0.91196 0.61779 0.0
O43 O 0.44752 0.9411 0.62473 0.0
O44 O 0.57117 0.54715 0.92491 0.0
Cd45 Cd 0.58109 0.55843 0.95559 0.0
O46 O 0.56326 0.59628 0.91654 0.0
Cd47 Cd 0.55804 0.60669 0.9434 0.0
O48 O 0.5177 0.61044 0.96053 0.0
C49 C 0.48328 0.58469 0.96005 0.0
O50 O 0.47573 0.5576 0.95064 0.0
C51 C 0.5663 0.56868 0.91272 0.0
C52 C 0.65055 0.5656 0.96432 0.0
O53 O 0.61999 0.53288 0.96671 0.0
O54 O 0.64814 0.59504 0.95806 0.0
O55 O 0.07801 0.74253 0.23927 0.0
Cd56 Cd 0.06003 0.75022 0.26826 0.0
O57 O 0.01938 0.71499 0.23146 0.0
Cd58 Cd 0.99208 0.70737 0.2575 0.0
O59 O 0.94463 0.66685 0.27683 0.0
C60 C 0.93838 0.6328 0.27921 0.0
O61 O 0.96173 0.62562 0.27097 0.0
C62 C 0.05458 0.72846 0.22769 0.0
C63 C 0.12174 0.81216 0.27969 0.0
O64 O 0.11581 0.77813 0.2841 0.0
O65 O 0.09809 0.81684 0.27009 0.0
H66 H 0.07107 0.60111 0.09151 0.0
H67 H 0.07468 0.62302 0.11995 0.0
H68 H 0.15944 0.73728 0.09582 0.0
H69 H 0.15554 0.71579 0.0671 0.0
H70 H 0.13328 0.65954 0.14174 0.0
H71 H 0.07368 0.75073 0.11454 0.0
H72 H 0.07383 0.71559 0.10281 0.0
H73 H 0.11671 0.76043 0.10299 0.0
C74 C 0.09083 0.63084 0.09224 0.0
C75 C 0.11262 0.65682 0.07696 0.0
C76 C 0.09291 0.64328 0.10854 0.0
C77 C 0.11681 0.68188 0.1099 0.0
C78 C 0.14026 0.7075 0.09494 0.0
H79 H 0.12737 0.75238 0.21504 0.0
H80 H 0.14792 0.74566 0.18623 0.0
C81 C 0.1381 0.69511 0.07858 0.0
C82 C 0.11493 0.69533 0.12669 0.0
H83 H 0.08483 0.74819 0.14482 0.0
C84 C 0.12317 0.67931 0.14243 0.0
C85 C 0.10134 0.72083 0.1275 0.0
C86 C 0.09056 0.73774 0.11112 0.0
C87 C 0.11711 0.68721 0.15906 0.0
C88 C 0.10296 0.71223 0.15988 0.0
C89 C 0.0959 0.72921 0.14409 0.0
C90 C 0.09153 0.7181 0.17704 0.0
C91 C 0.12405 0.66728 0.17568 0.0
C92 C 0.05324 0.7058 0.18117 0.0
C93 C 0.04145 0.70979 0.19749 0.0
C94 C 0.06778 0.72628 0.21003 0.0
C95 C 0.10635 0.73939 0.20571 0.0
C96 C 0.11813 0.7354 0.18931 0.0
H97 H 0.12838 0.64373 0.17295 0.0
H98 H 0.14987 0.68822 0.18133 0.0
H99 H 0.09984 0.65535 0.18591 0.0
H100 H 0.03228 0.69245 0.17185 0.0
H101 H 0.01157 0.69945 0.20033 0.0
H102 H 0.46837 0.00393 0.55122 0.0
H103 H 0.49065 0.02843 0.51963 0.0
H104 H 0.48062 0.12715 0.52327 0.0
H105 H 0.459 0.10343 0.55468 0.0
H106 H 0.45297 0.04417 0.49246 0.0
H107 H 0.58727 0.17551 0.49957 0.0
H108 H 0.56156 0.13712 0.51801 0.0
H109 H 0.54743 0.17199 0.51141 0.0
C110 C 0.47115 0.03098 0.54531 0.0
C111 C 0.46206 0.05179 0.55551 0.0
C112 C 0.48392 0.04493 0.52728 0.0
C113 C 0.48805 0.07999 0.51923 0.0
C114 C 0.47865 0.10056 0.52934 0.0
H115 H 0.51164 0.20977 0.41786 0.0
H116 H 0.50693 0.18346 0.4493 0.0
C117 C 0.46597 0.08674 0.54729 0.0
C118 C 0.50006 0.09437 0.50001 0.0
H119 H 0.56245 0.1737 0.47076 0.0
C120 C 0.47731 0.07218 0.48768 0.0
C121 C 0.53189 0.1309 0.49384 0.0
C122 C 0.55866 0.15509 0.50641 0.0
C123 C 0.48433 0.08644 0.46935 0.0
C124 C 0.51513 0.12364 0.46326 0.0
C125 C 0.53875 0.14525 0.47553 0.0
C126 C 0.52158 0.14149 0.44434 0.0
C127 C 0.45771 0.06238 0.45668 0.0
C128 C 0.53241 0.12724 0.43123 0.0
C129 C 0.53522 0.14224 0.41323 0.0
C130 C 0.52716 0.17174 0.40808 0.0
C131 C 0.51784 0.18696 0.42135 0.0
C132 C 0.51519 0.17202 0.43932 0.0
H133 H 0.43187 0.03687 0.4638 0.0
H134 H 0.44892 0.07953 0.44735 0.0
H135 H 0.47257 0.05242 0.44865 0.0
H136 H 0.53793 0.10399 0.4349 0.0
H137 H 0.54261 0.12996 0.40336 0.0
H138 H 0.54934 0.60514 0.88438 0.0
H139 H 0.53567 0.58771 0.85482 0.0
H140 H 0.55942 0.49639 0.86948 0.0
H141 H 0.57241 0.51311 0.89934 0.0
H142 H 0.57843 0.58345 0.82853 0.0
H143 H 0.45248 0.44082 0.85317 0.0
H144 H 0.47521 0.47691 0.86713 0.0
H145 H 0.49599 0.44913 0.86245 0.0
C146 C 0.55189 0.58146 0.88134 0.0
C147 C 0.56161 0.56027 0.8943 0.0
C148 C 0.54409 0.57156 0.86441 0.0
C149 C 0.54586 0.54034 0.86007 0.0
C150 C 0.55707 0.52006 0.8727 0.0
H151 H 0.52514 0.49993 0.7493 0.0
H152 H 0.54843 0.50888 0.77888 0.0
C153 C 0.56471 0.52982 0.88971 0.0
C154 C 0.535 0.52878 0.84244 0.0
H155 H 0.46878 0.45698 0.82221 0.0
C156 C 0.55465 0.5557 0.82711 0.0
C157 C 0.50366 0.4927 0.84069 0.0
C158 C 0.48033 0.46328 0.85671 0.0
C159 C 0.5434 0.54784 0.81006 0.0
C160 C 0.51215 0.5117 0.80831 0.0
C161 C 0.49293 0.48451 0.82361 0.0
C162 C 0.49718 0.50269 0.79081 0.0
C163 C 0.56402 0.57891 0.79418 0.0
C164 C 0.46003 0.49446 0.78795 0.0
C165 C 0.44646 0.48885 0.77114 0.0
C166 C 0.46985 0.49145 0.75686 0.0
C167 C 0.50653 0.49811 0.75997 0.0
C168 C 0.51999 0.50346 0.77683 0.0
H169 H 0.58133 0.60747 0.79816 0.0
H170 H 0.58343 0.57272 0.78704 0.0
H171 H 0.54371 0.58018 0.78475 0.0
H172 H 0.4419 0.49355 0.79859 0.0
H173 H 0.41805 0.48368 0.76924 0.0
H174 H 0.24353 0.68896 -0.01194 0.0
H175 H 0.29602 0.67863 0.98162 0.0
H176 H 0.23279 0.56393 0.01095 0.0
H177 H 0.18008 0.57393 0.01751 0.0
H178 H 0.31206 0.60918 0.01894 0.0
H179 H 0.29325 0.60768 0.94661 0.0
H180 H 0.29581 0.64775 0.9549 0.0
H181 H 0.25642 0.60056 0.9624 0.0
C182 C 0.24072 0.66149 -0.00688 0.0
C183 C 0.20755 0.63218 0.00322 0.0
C184 C 0.2707 0.65565 -0.01061 0.0
C185 C 0.26807 0.62044 -0.0043 0.0
C186 C 0.23525 0.59127 0.00595 0.0
H187 H 0.4073 0.53535 0.96008 0.0
H188 H 0.35535 0.54303 0.97032 0.0
C189 C 0.20515 0.59701 0.00962 0.0
C190 C 0.29953 0.61399 -0.00849 0.0
H191 H 0.34733 0.60657 0.95707 0.0
C192 C 0.31982 0.60854 0.00544 0.0
C193 C 0.30923 0.61287 0.9739 0.0
C194 C 0.28743 0.61721 0.95857 0.0
C195 C 0.35003 0.60246 0.00214 0.0
C196 C 0.36017 0.60206 0.98447 0.0
C197 C 0.33956 0.60709 0.9706 0.0
C198 C 0.39172 0.59592 0.97998 0.0
C199 C 0.37049 0.59594 0.01758 0.0
C200 C 0.4294 0.62293 0.98224 0.0
C201 C 0.45928 0.61866 0.97637 0.0
C202 C 0.45191 0.58738 0.96808 0.0
C203 C 0.41402 0.55982 0.96637 0.0
C204 C 0.38425 0.56415 0.9722 0.0
H205 H 0.35407 0.58875 0.03055 0.0
H206 H 0.37609 0.57253 0.01618 0.0
H207 H 0.39822 0.62237 0.01775 0.0
H208 H 0.43576 0.64796 -0.01201 0.0
H209 H 0.48815 0.64045 0.97784 0.0
H210 H 0.59766 0.37389 0.34587 0.0
H211 H 0.65864 0.43306 0.33772 0.0
H212 H 0.70655 0.36918 0.32029 0.0
H213 H 0.64586 0.30985 0.32853 0.0
H214 H 0.7521 0.42293 0.34272 0.0
H215 H 0.70463 0.48781 0.28645 0.0
H216 H 0.67657 0.47222 0.30733 0.0
H217 H 0.67785 0.43761 0.29577 0.0
C218 C 0.62112 0.37243 0.34024 0.0
C219 C 0.61686 0.33717 0.33777 0.0
C220 C 0.65589 0.40628 0.33554 0.0
C221 C 0.68692 0.40548 0.32823 0.0
C222 C 0.68287 0.37036 0.32587 0.0
H223 H 0.91634 0.55712 0.28542 0.0
H224 H 0.85595 0.5038 0.29942 0.0
C225 C 0.64813 0.33652 0.33054 0.0
C226 C 0.72383 0.44115 0.32315 0.0
H227 H 0.76772 0.52472 0.2936 0.0
C228 C 0.75555 0.44529 0.33203 0.0
C229 C 0.7281 0.47032 0.30929 0.0
C230 C 0.69512 0.46685 0.29903 0.0
C231 C 0.7916 0.47775 0.32729 0.0
C232 C 0.79609 0.50642 0.31307 0.0
C233 C 0.76417 0.50273 0.30451 0.0
C234 C 0.83393 0.53919 0.30603 0.0
C235 C 0.82448 0.48107 0.33759 0.0
C236 C 0.84154 0.57688 0.30491 0.0
C237 C 0.87607 0.60757 0.29675 0.0
C238 C 0.90343 0.601 0.28944 0.0
C239 C 0.89599 0.56324 0.29096 0.0
C240 C 0.86153 0.53266 0.29909 0.0
H241 H 0.81463 0.46386 0.35117 0.0
H242 H 0.83969 0.47009 0.33051 0.0
H243 H 0.84485 0.51127 0.33879 0.0
H244 H 0.8205 0.5825 0.31009 0.0
H245 H 0.88088 0.63629 0.29577 0.0
H246 H 0.35497 0.83851 0.6241 0.0
H247 H 0.35053 0.77675 0.63413 0.0
H248 H 0.468 0.83461 0.64568 0.0
H249 H 0.47285 0.89642 0.63559 0.0
H250 H 0.44561 0.77099 0.62708 0.0
H251 H 0.34961 0.73522 0.68736 0.0
H252 H 0.33459 0.7476 0.66647 0.0
H253 H 0.37644 0.78306 0.67492 0.0
C254 C 0.3799 0.8381 0.62873 0.0
C255 C 0.41421 0.87239 0.62917 0.0
C256 C 0.37726 0.8028 0.63449 0.0
C257 C 0.40883 0.80121 0.6408 0.0
C258 C 0.44331 0.8353 0.64087 0.0
H259 H 0.43638 0.63464 0.70904 0.0
H260 H 0.43326 0.68937 0.69366 0.0
C261 C 0.44597 0.87058 0.63515 0.0
C262 C 0.40591 0.76413 0.64782 0.0
H263 H 0.36652 0.68989 0.68261 0.0
C264 C 0.42809 0.75302 0.63913 0.0
C265 C 0.3832 0.74103 0.66361 0.0
C266 C 0.35977 0.75229 0.67377 0.0
C267 C 0.42862 0.71957 0.646 0.0
C268 C 0.40616 0.69667 0.66187 0.0
C269 C 0.38349 0.70746 0.67037 0.0
C270 C 0.40817 0.66317 0.67074 0.0
C271 C 0.45421 0.7097 0.63663 0.0
C272 C 0.39496 0.6302 0.66293 0.0
C273 C 0.39668 0.59866 0.67173 0.0
C274 C 0.41159 0.59968 0.68846 0.0
C275 C 0.42476 0.63284 0.69617 0.0
C276 C 0.42296 0.66418 0.68742 0.0
H277 H 0.47428 0.73356 0.62621 0.0
H278 H 0.47075 0.70224 0.64634 0.0
H279 H 0.43663 0.6844 0.63018 0.0
H280 H 0.383 0.62874 0.65015 0.0
H281 H 0.3862 0.57349 0.66547 0.0
H282 H 0.94657 0.5425 0.00614 0.0
H283 H 0.88604 0.53343 -0.004 0.0
H284 H 0.93287 0.65552 0.98607 0.0
H285 H -0.00652 0.66493 -0.00395 0.0
H286 H 0.84282 0.55903 0.01242 0.0
H287 H 0.87955 0.62139 0.94062 0.0
H288 H 0.90851 0.60696 0.95374 0.0
H289 H 0.91105 0.65149 0.95531 0.0
C290 C 0.94423 0.56746 0.0015 0.0
C291 C 0.97485 0.60446 0.00195 0.0
C292 C 0.9096 0.56221 -0.00426 0.0
C293 C 0.9051 0.59381 -0.00985 0.0
C294 C 0.93594 0.63077 -0.00995 0.0
H295 H 0.71949 0.63116 0.96253 0.0
H296 H 0.78071 0.63679 0.96899 0.0
C297 C 0.97052 0.63607 -0.00415 0.0
C298 C 0.86738 0.58813 0.98586 0.0
H299 H 0.82009 0.60862 0.95305 0.0
C300 C 0.83768 0.56953 -0.00061 0.0
C301 C 0.86097 0.60217 0.9689 0.0
C302 C 0.89158 0.62135 0.95374 0.0
C303 C 0.80191 0.56538 -0.00342 0.0
C304 C 0.79547 0.57951 0.97962 0.0
C305 C 0.82511 0.59785 0.96603 0.0
C306 C 0.75826 0.57584 0.97578 0.0
C307 C 0.77174 0.54701 0.01194 0.0
C308 C 0.7254 0.53968 0.97731 0.0
C309 C 0.69035 0.53637 0.97375 0.0
C310 C 0.68757 0.56917 0.9684 0.0
C311 C 0.72063 0.60534 0.96668 0.0
C312 C 0.75565 0.60862 0.97032 0.0
H313 H 0.78413 0.5472 0.02497 0.0
H314 H 0.75523 0.56182 0.01198 0.0
H315 H 0.75183 0.51679 0.01064 0.0
H316 H 0.7269 0.51398 0.98112 0.0
H317 H 0.6655 0.50808 0.97505 0.0
H318 H 0.41899 0.12293 0.3131 0.0
H319 H 0.35964 0.07636 0.30214 0.0
H320 H 0.36626 0.98421 0.33407 0.0
H321 H 0.42502 0.03018 0.34517 0.0
H322 H 0.34366 0.01397 0.28426 0.0
H323 H 0.26085 0.96495 0.34974 0.0
H324 H 0.30617 0.00866 0.345 0.0
H325 H 0.304 0.96339 0.35059 0.0
C326 C 0.40786 0.09274 0.31772 0.0
C327 C 0.42654 0.08027 0.33013 0.0
C328 C 0.37398 0.06622 0.31146 0.0
C329 C 0.35824 0.02694 0.3176 0.0
C330 C 0.37752 0.01445 0.32949 0.0
H331 H 0.17391 0.81072 0.30185 0.0
H332 H 0.23041 0.86526 0.31033 0.0
C333 C 0.41124 0.04081 0.33574 0.0
C334 C 0.32164 -0.00134 0.3117 0.0
H335 H 0.23299 0.92552 0.32751 0.0
C336 C 0.31925 0.99493 0.29364 0.0
C337 C 0.28985 0.97404 0.32399 0.0
C338 C 0.2901 0.97812 0.34339 0.0
C339 C 0.28637 0.96595 0.28768 0.0
C340 C 0.25513 0.94049 0.30011 0.0
C341 C 0.25714 0.94499 0.31806 0.0
C342 C 0.22069 0.90787 0.29492 0.0
C343 C 0.28574 0.9618 0.2683 0.0
C344 C 0.19631 0.91388 0.28365 0.0
C345 C 0.16387 0.88276 0.27883 0.0
C346 C 0.15535 0.84514 0.28521 0.0
C347 C 0.1797 0.83931 0.29667 0.0
C348 C 0.21197 0.87041 0.30153 0.0
H349 H 0.31436 0.97956 0.26107 0.0
H350 H 0.27465 0.93146 0.26695 0.0
H351 H 0.26656 0.97086 0.2618 0.0
H352 H 0.20233 0.94262 0.27862 0.0
H353 H 0.14566 0.88821 0.27 0.0
H354 H 0.33708 0.10252 0.63487 0.0
H355 H 0.34338 0.15693 0.64742 0.0
H356 H 0.45168 0.17955 0.66563 0.0
H357 H 0.44577 0.12517 0.6532 0.0
H358 H 0.37334 0.1812 0.6878 0.0
H359 H 0.45632 0.2736 0.62432 0.0
H360 H 0.4196 0.2244 0.6249 0.0
H361 H 0.46353 0.23516 0.63424 0.0
C362 C 0.3619 0.11854 0.64186 0.0
C363 C 0.39112 0.10975 0.64286 0.0
C364 C 0.36536 0.14953 0.64905 0.0
C365 C 0.39803 0.17214 0.65733 0.0
C366 C 0.42625 0.16224 0.65928 0.0
H367 H 0.49794 0.40292 0.67871 0.0
H368 H 0.48506 0.34073 0.67278 0.0
C369 C 0.42279 0.1312 0.65215 0.0
C370 C 0.40455 0.20836 0.66221 0.0
H371 H 0.44763 0.30385 0.64628 0.0
C372 C 0.38952 0.2081 0.67878 0.0
C373 C 0.42579 0.24317 0.65038 0.0
C374 C 0.4423 0.2445 0.63241 0.0
C375 C 0.39562 0.24219 0.68393 0.0
C376 C 0.4166 0.2771 0.67199 0.0
C377 C 0.43154 0.27711 0.65541 0.0
C378 C 0.42395 0.31416 0.67638 0.0
C379 C 0.38036 0.2406 0.70225 0.0
C380 C 0.39385 0.32 0.68024 0.0
C381 C 0.40114 0.35551 0.68375 0.0
C382 C 0.43867 0.38597 0.68321 0.0
C383 C 0.46871 0.3801 0.6792 0.0
C384 C 0.4614 0.34454 0.67583 0.0
H385 H 0.37454 0.2142 0.71137 0.0
H386 H 0.40055 0.26577 0.70823 0.0
H387 H 0.35327 0.24064 0.7012 0.0
H388 H 0.36471 0.29728 0.68028 0.0
H389 H 0.37737 0.35921 0.68669 0.0
loop_
_geom_bond_atom_site_label_1
_geom_bond_atom_site_label_2
_geom_bond_distance
_geom_bond_site_symmetry_2
_ccdc_geom_bond_type
O0 Cd1 2.300 . S
O0 C7 1.275 . S
Cd1 O0 2.300 . S
Cd1 O9 2.381 . S
Cd1 O10 2.378 . S
O2 Cd3 2.385 . S
O2 C7 1.255 . S
Cd3 O2 2.385 . S
Cd3 O4 2.317 . S
O4 Cd3 2.317 . S
O4 C5 1.232 . S
C5 O4 1.232 . S
C5 O6 1.218 1_455 S
O6 C5 1.218 1_655 S
C7 O0 1.275 . S
C7 O2 1.255 . S
C8 O9 1.258 . S
C8 O10 1.256 . S
O9 Cd1 2.381 . S
O9 C8 1.258 . S
O10 Cd1 2.378 . S
O10 C8 1.256 . S
O11 Cd12 2.300 . S
O11 C18 1.275 . S
Cd12 O11 2.300 . S
Cd12 O20 2.381 . S
Cd12 O21 2.378 . S
O13 Cd14 2.385 . S
O13 C18 1.255 . S
Cd14 O13 2.385 . S
Cd14 O15 2.317 . S
O15 Cd14 2.317 . S
O15 C16 1.232 . S
C16 O15 1.232 . S
C16 O17 1.218 . S
O17 C16 1.218 . S
C18 O11 1.275 . S
C18 O13 1.255 . S
C19 O20 1.258 . S
C19 O21 1.256 . S
O20 Cd12 2.381 . S
O20 C19 1.258 . S
O21 Cd12 2.378 . S
O21 C19 1.256 . S
O22 Cd23 2.300 . S
O22 C29 1.275 . S
Cd23 O22 2.300 . S
Cd23 O31 2.381 . S
Cd23 O32 2.378 . S
O24 Cd25 2.385 . S
O24 C29 1.255 . S
Cd25 O24 2.385 . S
Cd25 O26 2.317 . S
O26 Cd25 2.317 . S
O26 C27 1.232 . S
C27 O26 1.232 . S
C27 O28 1.218 . S
O28 C27 1.218 . S
C29 O22 1.275 . S
C29 O24 1.255 . S
C30 O31 1.258 . S
C30 O32 1.256 . S
O31 Cd23 2.381 . S
O31 C30 1.258 . S
O32 Cd23 2.378 . S
O32 C30 1.256 . S
O33 Cd34 2.300 . S
O33 C40 1.275 1_565 S
Cd34 O33 2.300 . S
Cd34 O42 2.381 . S
Cd34 O43 2.378 . S
O35 Cd36 2.385 . S
O35 C40 1.255 . S
Cd36 O35 2.385 . S
Cd36 O37 2.317 . S
O37 Cd36 2.317 . S
O37 C38 1.232 . S
C38 O37 1.232 . S
C38 O39 1.218 . S
O39 C38 1.218 . S
C40 O33 1.275 1_545 S
C40 O35 1.255 . S
C41 O42 1.258 . S
C41 O43 1.256 . S
O42 Cd34 2.381 . S
O42 C41 1.258 . S
O43 Cd34 2.378 . S
O43 C41 1.256 . S
O44 Cd45 2.300 . S
O44 C51 1.275 . S
Cd45 O44 2.300 . S
Cd45 O53 2.381 . S
Cd45 O54 2.378 . S
O46 Cd47 2.385 . S
O46 C51 1.255 . S
Cd47 O46 2.385 . S
Cd47 O48 2.317 . S
O48 Cd47 2.317 . S
O48 C49 1.232 . S
C49 O48 1.232 . S
C49 O50 1.218 . S
O50 C49 1.218 . S
C51 O44 1.275 . S
C51 O46 1.255 . S
C52 O53 1.258 . S
C52 O54 1.256 . S
O53 Cd45 2.381 . S
O53 C52 1.258 . S
O54 Cd45 2.378 . S
O54 C52 1.256 . S
O55 Cd56 2.300 . S
O55 C62 1.275 . S
Cd56 O55 2.300 . S
Cd56 O64 2.381 . S
Cd56 O65 2.378 . S
O57 Cd58 2.385 1_455 S
O57 C62 1.255 . S
Cd58 O57 2.385 1_655 S
Cd58 O59 2.317 . S
O59 Cd58 2.317 . S
O59 C60 1.232 . S
C60 O59 1.232 . S
C60 O61 1.218 . S
O61 C60 1.218 . S
C62 O55 1.275 . S
C62 O57 1.255 . S
C63 O64 1.258 . S
C63 O65 1.256 . S
O64 Cd56 2.381 . S
O64 C63 1.258 . S
O65 Cd56 2.378 . S
O65 C63 1.256 . S
H66 C74 0.929 . S
H67 C76 0.930 . S
H68 C78 0.930 . S
H69 C81 0.929 . S
H70 C84 0.930 . S
H71 C86 0.960 . S
H72 C86 0.960 . S
H73 C86 0.960 . S
C74 H66 0.929 . S
C74 C75 1.377 . S
C74 C76 1.384 . S
C75 C74 1.377 . S
C75 C81 1.390 . S
C76 H67 0.930 . S
C76 C74 1.384 . S
C76 C77 1.372 . S
C77 C76 1.372 . S
C77 C78 1.400 . S
C77 C82 1.490 . S
C78 H68 0.930 . S
C78 C77 1.400 . S
C78 C81 1.386 . S
H79 C95 0.930 . S
H80 C96 0.931 . S
C81 H69 0.929 . S
C81 C75 1.390 . S
C81 C78 1.386 . S
C82 C77 1.490 . S
C82 C84 1.395 . S
C82 C85 1.403 . S
H83 C89 0.930 . S
C84 H70 0.930 . S
C84 C82 1.395 . S
C84 C87 1.403 . S
C85 C82 1.403 . S
C85 C86 1.524 . S
C85 C89 1.400 . S
C86 H71 0.960 . S
C86 H72 0.960 . S
C86 H73 0.960 . S
C86 C85 1.524 . S
C87 C84 1.403 . S
C87 C88 1.392 . S
C87 C91 1.495 . S
C88 C87 1.392 . S
C88 C89 1.385 . S
C88 C90 1.478 . S
C89 H83 0.930 . S
C89 C85 1.400 . S
C89 C88 1.385 . S
C90 C88 1.478 . S
C90 C92 1.381 . S
C90 C96 1.383 . S
C91 C87 1.495 . S
C91 H97 0.959 . S
C91 H98 0.961 . S
C91 H99 0.960 . S
C92 C90 1.381 . S
C92 C93 1.394 . S
C92 H100 0.930 . S
C93 C92 1.394 . S
C93 C94 1.383 . S
C93 H101 0.929 . S
C94 C93 1.383 . S
C94 C95 1.377 . S
C95 H79 0.930 . S
C95 C94 1.377 . S
C95 C96 1.379 . S
C96 H80 0.931 . S
C96 C90 1.383 . S
C96 C95 1.379 . S
H97 C91 0.959 . S
H98 C91 0.961 . S
H99 C91 0.960 . S
H100 C92 0.930 . S
H101 C93 0.929 . S
H102 C110 0.929 . S
H103 C112 0.930 . S
H104 C114 0.930 . S
H105 C117 0.929 . S
H106 C120 0.930 . S
H107 C122 0.960 . S
H108 C122 0.960 . S
H109 C122 0.960 . S
C110 H102 0.929 . S
C110 C111 1.377 . S
C110 C112 1.384 . S
C111 C110 1.377 . S
C111 C117 1.390 . S
C112 H103 0.930 . S
C112 C110 1.384 . S
C112 C113 1.372 . S
C113 C112 1.372 . S
C113 C114 1.400 . S
C113 C118 1.490 . S
C114 H104 0.930 . S
C114 C113 1.400 . S
C114 C117 1.386 . S
H115 C131 0.930 . S
H116 C132 0.931 . S
C117 H105 0.929 . S
C117 C111 1.390 . S
C117 C114 1.386 . S
C118 C113 1.490 . S
C118 C120 1.395 . S
C118 C121 1.403 . S
H119 C125 0.930 . S
C120 H106 0.930 . S
C120 C118 1.395 . S
C120 C123 1.403 . S
C121 C118 1.403 . S
C121 C122 1.524 . S
C121 C125 1.400 . S
C122 H107 0.960 . S
C122 H108 0.960 . S
C122 H109 0.960 . S
C122 C121 1.524 . S
C123 C120 1.403 . S
C123 C124 1.392 . S
C123 C127 1.495 . S
C124 C123 1.392 . S
C124 C125 1.385 . S
C124 C126 1.478 . S
C125 H119 0.930 . S
C125 C121 1.400 . S
C125 C124 1.385 . S
C126 C124 1.478 . S
C126 C128 1.381 . S
C126 C132 1.383 . S
C127 C123 1.495 . S
C127 H133 0.959 . S
C127 H134 0.961 . S
C127 H135 0.960 . S
C128 C126 1.381 . S
C128 C129 1.394 . S
C128 H136 0.930 . S
C129 C128 1.394 . S
C129 C130 1.383 . S
C129 H137 0.929 . S
C130 C129 1.383 . S
C130 C131 1.377 . S
C131 H115 0.930 . S
C131 C130 1.377 . S
C131 C132 1.379 . S
C132 H116 0.931 . S
C132 C126 1.383 . S
C132 C131 1.379 . S
H133 C127 0.959 . S
H134 C127 0.961 . S
H135 C127 0.960 . S
H136 C128 0.930 . S
H137 C129 0.929 . S
H138 C146 0.929 . S
H139 C148 0.930 . S
H140 C150 0.930 . S
H141 C153 0.929 . S
H142 C156 0.930 . S
H143 C158 0.960 . S
H144 C158 0.960 . S
H145 C158 0.960 . S
C146 H138 0.929 . S
C146 C147 1.377 . S
C146 C148 1.384 . S
C147 C146 1.377 . S
C147 C153 1.390 . S
C148 H139 0.930 . S
C148 C146 1.384 . S
C148 C149 1.372 . S
C149 C148 1.372 . S
C149 C150 1.400 . S
C149 C154 1.490 . S
C150 H140 0.930 . S
C150 C149 1.400 . S
C150 C153 1.386 . S
H151 C167 0.930 . S
H152 C168 0.931 . S
C153 H141 0.929 . S
C153 C147 1.390 . S
C153 C150 1.386 . S
C154 C149 1.490 . S
C154 C156 1.395 . S
C154 C157 1.403 . S
H155 C161 0.930 . S
C156 H142 0.930 . S
C156 C154 1.395 . S
C156 C159 1.403 . S
C157 C154 1.403 . S
C157 C158 1.524 . S
C157 C161 1.400 . S
C158 H143 0.960 . S
C158 H144 0.960 . S
C158 H145 0.960 . S
C158 C157 1.524 . S
C159 C156 1.403 . S
C159 C160 1.392 . S
C159 C163 1.495 . S
C160 C159 1.392 . S
C160 C161 1.385 . S
C160 C162 1.478 . S
C161 H155 0.930 . S
C161 C157 1.400 . S
C161 C160 1.385 . S
C162 C160 1.478 . S
C162 C164 1.381 . S
C162 C168 1.383 . S
C163 C159 1.495 . S
C163 H169 0.959 . S
C163 H170 0.961 . S
C163 H171 0.960 . S
C164 C162 1.381 . S
C164 C165 1.394 . S
C164 H172 0.930 . S
C165 C164 1.394 . S
C165 C166 1.383 . S
C165 H173 0.929 . S
C166 C165 1.383 . S
C166 C167 1.377 . S
C167 H151 0.930 . S
C167 C166 1.377 . S
C167 C168 1.379 . S
C168 H152 0.931 . S
C168 C162 1.383 . S
C168 C167 1.379 . S
H169 C163 0.959 . S
H170 C163 0.961 . S
H171 C163 0.960 . S
H172 C164 0.930 . S
H173 C165 0.929 . S
H174 C182 0.929 . S
H175 C184 0.930 . S
H176 C186 0.930 1_556 S
H177 C189 0.929 . S
H178 C192 0.930 . S
H179 C194 0.960 . S
H180 C194 0.960 . S
H181 C194 0.960 . S
C182 H174 0.929 . S
C182 C183 1.377 . S
C182 C184 1.384 . S
C183 C182 1.377 . S
C183 C189 1.390 . S
C184 H175 0.930 . S
C184 C182 1.384 . S
C184 C185 1.372 . S
C185 C184 1.372 . S
C185 C186 1.400 . S
C185 C190 1.490 . S
C186 H176 0.930 1_554 S
C186 C185 1.400 . S
C186 C189 1.386 . S
H187 C203 0.930 . S
H188 C204 0.931 . S
C189 H177 0.929 . S
C189 C183 1.390 . S
C189 C186 1.386 . S
C190 C185 1.490 . S
C190 C192 1.395 . S
C190 C193 1.403 1_554 S
H191 C197 0.930 . S
C192 H178 0.930 . S
C192 C190 1.395 . S
C192 C195 1.403 . S
C193 C190 1.403 1_556 S
C193 C194 1.524 . S
C193 C197 1.400 . S
C194 H179 0.960 . S
C194 H180 0.960 . S
C194 H181 0.960 . S
C194 C193 1.524 . S
C195 C192 1.403 . S
C195 C196 1.392 1_554 S
C195 C199 1.495 . S
C196 C195 1.392 1_556 S
C196 C197 1.385 . S
C196 C198 1.478 . S
C197 H191 0.930 . S
C197 C193 1.400 . S
C197 C196 1.385 . S
C198 C196 1.478 . S
C198 C200 1.381 . S
C198 C204 1.383 . S
C199 C195 1.495 . S
C199 H205 0.959 . S
C199 H206 0.961 . S
C199 H207 0.960 . S
C200 C198 1.381 . S
C200 C201 1.394 . S
C200 H208 0.930 . S
C201 C200 1.394 . S
C201 C202 1.383 . S
C201 H209 0.929 . S
C202 C201 1.383 . S
C202 C203 1.377 . S
C203 H187 0.930 . S
C203 C202 1.377 . S
C203 C204 1.379 . S
C204 H188 0.931 . S
C204 C198 1.383 . S
C204 C203 1.379 . S
H205 C199 0.959 . S
H206 C199 0.961 . S
H207 C199 0.960 . S
H208 C200 0.930 . S
H209 C201 0.929 . S
H210 C218 0.929 . S
H211 C220 0.930 . S
H212 C222 0.930 . S
H213 C225 0.929 . S
H214 C228 0.930 . S
H215 C230 0.960 . S
H216 C230 0.960 . S
H217 C230 0.960 . S
C218 H210 0.929 . S
C218 C219 1.377 . S
C218 C220 1.384 . S
C219 C218 1.377 . S
C219 C225 1.390 . S
C220 H211 0.930 . S
C220 C218 1.384 . S
C220 C221 1.372 . S
C221 C220 1.372 . S
C221 C222 1.400 . S
C221 C226 1.490 . S
C222 H212 0.930 . S
C222 C221 1.400 . S
C222 C225 1.386 . S
H223 C239 0.930 . S
H224 C240 0.931 . S
C225 H213 0.929 . S
C225 C219 1.390 . S
C225 C222 1.386 . S
C226 C221 1.490 . S
C226 C228 1.395 . S
C226 C229 1.403 . S
H227 C233 0.930 . S
C228 H214 0.930 . S
C228 C226 1.395 . S
C228 C231 1.403 . S
C229 C226 1.403 . S
C229 C230 1.524 . S
C229 C233 1.400 . S
C230 H215 0.960 . S
C230 H216 0.960 . S
C230 H217 0.960 . S
C230 C229 1.524 . S
C231 C228 1.403 . S
C231 C232 1.392 . S
C231 C235 1.495 . S
C232 C231 1.392 . S
C232 C233 1.385 . S
C232 C234 1.478 . S
C233 H227 0.930 . S
C233 C229 1.400 . S
C233 C232 1.385 . S
C234 C232 1.478 . S
C234 C236 1.381 . S
C234 C240 1.383 . S
C235 C231 1.495 . S
C235 H241 0.959 . S
C235 H242 0.961 . S
C235 H243 0.960 . S
C236 C234 1.381 . S
C236 C237 1.394 . S
C236 H244 0.930 . S
C237 C236 1.394 . S
C237 C238 1.383 . S
C237 H245 0.929 . S
C238 C237 1.383 . S
C238 C239 1.377 . S
C239 H223 0.930 . S
C239 C238 1.377 . S
C239 C240 1.379 . S
C240 H224 0.931 . S
C240 C234 1.383 . S
C240 C239 1.379 . S
H241 C235 0.959 . S
H242 C235 0.961 . S
H243 C235 0.960 . S
H244 C236 0.930 . S
H245 C237 0.929 . S
H246 C254 0.929 . S
H247 C256 0.930 . S
H248 C258 0.930 . S
H249 C261 0.929 . S
H250 C264 0.930 . S
H251 C266 0.960 . S
H252 C266 0.960 . S
H253 C266 0.960 . S
C254 H246 0.929 . S
C254 C255 1.377 . S
C254 C256 1.384 . S
C255 C254 1.377 . S
C255 C261 1.390 . S
C256 H247 0.930 . S
C256 C254 1.384 . S
C256 C257 1.372 . S
C257 C256 1.372 . S
C257 C258 1.400 . S
C257 C262 1.490 . S
C258 H248 0.930 . S
C258 C257 1.400 . S
C258 C261 1.386 . S
H259 C275 0.930 . S
H260 C276 0.931 . S
C261 H249 0.929 . S
C261 C255 1.390 . S
C261 C258 1.386 . S
C262 C257 1.490 . S
C262 C264 1.395 . S
C262 C265 1.403 . S
H263 C269 0.930 . S
C264 H250 0.930 . S
C264 C262 1.395 . S
C264 C267 1.403 . S
C265 C262 1.403 . S
C265 C266 1.524 . S
C265 C269 1.400 . S
C266 H251 0.960 . S
C266 H252 0.960 . S
C266 H253 0.960 . S
C266 C265 1.524 . S
C267 C264 1.403 . S
C267 C268 1.392 . S
C267 C271 1.495 . S
C268 C267 1.392 . S
C268 C269 1.385 . S
C268 C270 1.478 . S
C269 H263 0.930 . S
C269 C265 1.400 . S
C269 C268 1.385 . S
C270 C268 1.478 . S
C270 C272 1.381 . S
C270 C276 1.383 . S
C271 C267 1.495 . S
C271 H277 0.959 . S
C271 H278 0.961 . S
C271 H279 0.960 . S
C272 C270 1.381 . S
C272 C273 1.394 . S
C272 H280 0.930 . S
C273 C272 1.394 . S
C273 C274 1.383 . S
C273 H281 0.929 . S
C274 C273 1.383 . S
C274 C275 1.377 . S
C275 H259 0.930 . S
C275 C274 1.377 . S
C275 C276 1.379 . S
C276 H260 0.931 . S
C276 C270 1.383 . S
C276 C275 1.379 . S
H277 C271 0.959 . S
H278 C271 0.961 . S
H279 C271 0.960 . S
H280 C272 0.930 . S
H281 C273 0.929 . S
H282 C290 0.929 . S
H283 C292 0.930 1_556 S
H284 C294 0.930 . S
H285 C297 0.929 . S
H286 C300 0.930 . S
H287 C302 0.960 . S
H288 C302 0.960 . S
H289 C302 0.960 1_554 S
C290 H282 0.929 . S
C290 C291 1.377 . S
C290 C292 1.384 . S
C291 C290 1.377 . S
C291 C297 1.390 . S
C292 H283 0.930 1_554 S
C292 C290 1.384 . S
C292 C293 1.372 . S
C293 C292 1.372 . S
C293 C294 1.400 . S
C293 C298 1.490 . S
C294 H284 0.930 . S
C294 C293 1.400 . S
C294 C297 1.386 . S
H295 C311 0.930 . S
H296 C312 0.931 1_554 S
C297 H285 0.929 . S
C297 C291 1.390 . S
C297 C294 1.386 . S
C298 C293 1.490 . S
C298 C300 1.395 . S
C298 C301 1.403 1_554 S
H299 C305 0.930 . S
C300 H286 0.930 . S
C300 C298 1.395 . S
C300 C303 1.405 . S
C301 C298 1.403 1_556 S
C301 C302 1.524 . S
C301 C305 1.400 . S
C302 H287 0.960 . S
C302 H288 0.960 . S
C302 H289 0.960 1_556 S
C302 C301 1.524 . S
C303 C300 1.405 . S
C303 C304 1.392 1_554 S
C303 C307 1.495 . S
C304 C303 1.392 1_556 S
C304 C305 1.385 . S
C304 C306 1.478 . S
C305 H299 0.930 . S
C305 C301 1.400 . S
C305 C304 1.385 . S
C306 C304 1.478 . S
C306 C308 1.381 . S
C306 C312 1.383 . S
C307 C303 1.495 . S
C307 H313 0.959 . S
C307 H314 0.961 . S
C307 H315 0.960 1_554 S
C308 C306 1.381 . S
C308 C309 1.394 . S
C308 H316 0.930 . S
C309 C308 1.394 . S
C309 C310 1.383 . S
C309 H317 0.929 . S
C310 C309 1.383 . S
C310 C311 1.377 . S
C311 H295 0.930 . S
C311 C310 1.377 . S
C311 C312 1.379 . S
C312 H296 0.931 1_556 S
C312 C306 1.383 . S
C312 C311 1.379 . S
H313 C307 0.959 . S
H314 C307 0.961 . S
H315 C307 0.960 1_556 S
H316 C308 0.930 . S
H317 C309 0.929 . S
H318 C326 0.929 . S
H319 C328 0.930 . S
H320 C330 0.930 . S
H321 C333 0.929 . S
H322 C336 0.930 . S
H323 C338 0.960 . S
H324 C338 0.960 1_545 S
H325 C338 0.960 . S
C326 H318 0.929 . S
C326 C327 1.377 . S
C326 C328 1.384 . S
C327 C326 1.377 . S
C327 C333 1.390 . S
C328 H319 0.930 . S
C328 C326 1.384 . S
C328 C329 1.372 . S
C329 C328 1.372 . S
C329 C330 1.400 . S
C329 C334 1.490 . S
C330 H320 0.930 . S
C330 C329 1.400 . S
C330 C333 1.386 . S
H331 C347 0.930 . S
H332 C348 0.931 . S
C333 H321 0.929 . S
C333 C327 1.390 . S
C333 C330 1.386 . S
C334 C329 1.490 . S
C334 C336 1.395 . S
C334 C337 1.403 1_545 S
H335 C341 0.930 . S
C336 H322 0.930 . S
C336 C334 1.395 . S
C336 C339 1.403 1_545 S
C337 C334 1.403 1_565 S
C337 C338 1.524 . S
C337 C341 1.400 . S
C338 H323 0.960 . S
C338 H324 0.960 1_565 S
C338 H325 0.960 . S
C338 C337 1.524 . S
C339 C336 1.403 1_565 S
C339 C340 1.392 . S
C339 C343 1.495 . S
C340 C339 1.392 . S
C340 C341 1.385 . S
C340 C342 1.478 . S
C341 H335 0.930 . S
C341 C337 1.400 . S
C341 C340 1.385 . S
C342 C340 1.478 . S
C342 C344 1.381 . S
C342 C348 1.383 . S
C343 C339 1.495 . S
C343 H349 0.967 . S
C343 H350 0.961 . S
C343 H351 0.960 . S
C344 C342 1.381 . S
C344 C345 1.394 . S
C344 H352 0.930 . S
C345 C344 1.394 . S
C345 C346 1.383 . S
C345 H353 0.929 . S
C346 C345 1.383 . S
C346 C347 1.377 . S
C347 H331 0.930 . S
C347 C346 1.377 . S
C347 C348 1.379 . S
C348 H332 0.931 . S
C348 C342 1.383 . S
C348 C347 1.379 . S
H349 C343 0.967 . S
H350 C343 0.961 . S
H351 C343 0.960 . S
H352 C344 0.930 . S
H353 C345 0.929 . S
H354 C362 0.929 . S
H355 C364 0.930 . S
H356 C366 0.930 . S
H357 C369 0.929 . S
H358 C372 0.930 . S
H359 C374 0.960 . S
H360 C374 0.960 . S
H361 C374 0.960 . S
C362 H354 0.929 . S
C362 C363 1.377 . S
C362 C364 1.384 . S
C363 C362 1.377 . S
C363 C369 1.390 . S
C364 H355 0.930 . S
C364 C362 1.384 . S
C364 C365 1.372 . S
C365 C364 1.372 . S
C365 C366 1.400 . S
C365 C370 1.490 . S
C366 H356 0.930 . S
C366 C365 1.400 . S
C366 C369 1.386 . S
H367 C383 0.930 . S
H368 C384 0.931 . S
C369 H357 0.929 . S
C369 C363 1.390 . S
C369 C366 1.386 . S
C370 C365 1.490 . S
C370 C372 1.395 . S
C370 C373 1.403 . S
H371 C377 0.930 . S
C372 H358 0.930 . S
C372 C370 1.395 . S
C372 C375 1.403 . S
C373 C370 1.403 . S
C373 C374 1.524 . S
C373 C377 1.400 . S
C374 H359 0.960 . S
C374 H360 0.960 . S
C374 H361 0.960 . S
C374 C373 1.524 . S
C375 C372 1.403 . S
C375 C376 1.392 . S
C375 C379 1.495 . S
C376 C375 1.392 . S
C376 C377 1.385 . S
C376 C378 1.478 . S
C377 H371 0.930 . S
C377 C373 1.400 . S
C377 C376 1.385 . S
C378 C376 1.478 . S
C378 C380 1.381 . S
C378 C384 1.383 . S
C379 C375 1.495 . S
C379 H385 0.959 . S
C379 H386 0.961 . S
C379 H387 0.960 . S
C380 C378 1.381 . S
C380 C381 1.394 . S
C380 H388 0.930 . S
C381 C380 1.394 . S
C381 C382 1.383 . S
C381 H389 0.929 . S
C382 C381 1.383 . S
C382 C383 1.377 . S
C383 H367 0.930 . S
C383 C382 1.377 . S
C383 C384 1.379 . S
C384 H368 0.931 . S
C384 C378 1.383 . S
C384 C383 1.379 . S
H385 C379 0.959 . S
H386 C379 0.961 . S
H387 C379 0.960 . S
H388 C380 0.930 . S
H389 C381 0.929 . S
C75 C7 1.475 . S
C94 C62 1.484 . S
C111 C40 1.462 . S
C130 C18 1.473 . S
C147 C51 1.478 . S
C166 C29 1.493 . S
C183 C8 1.497 . S
C202 C49 1.345 . S
C219 C19 1.506 . S
C238 C60 1.378 . S
C255 C41 1.507 . S
C274 C27 1.382 . S
C291 C5 1.321 1_655 S
C310 C52 1.501 . S
C327 C16 1.306 . S
C346 C63 1.509 . S
C363 C38 1.289 . S
C382 C30 1.506 . S
