# Generated by pormake.
# Topology umj, (4)-cn, num edge types: 1
# Building blocks:
#     Node 0, Type 0, BuildingBlock: MUDLON_clean_sbu_0, # of connection points: 4
#     Node 1, Type 0, BuildingBlock: MUDLON_clean_sbu_0, # of connection points: 4
#     Node 2, Type 0, BuildingBlock: MUDLON_clean_sbu_0, # of connection points: 4
#     Node 3, Type 0, BuildingBlock: MUDLON_clean_sbu_0, # of connection points: 4
#     Node 4, Type 0, BuildingBlock: MUDLON_clean_sbu_0, # of connection points: 4
#     Node 5, Type 0, BuildingBlock: MUDLON_clean_sbu_0, # of connection points: 4
#     Node 6, Type 0, BuildingBlock: MUDLON_clean_sbu_0, # of connection points: 4
#     Node 7, Type 0, BuildingBlock: MUDLON_clean_sbu_0, # of connection points: 4
#     Node 8, Type 0, BuildingBlock: MUDLON_clean_sbu_0, # of connection points: 4
#     Node 9, Type 0, BuildingBlock: MUDLON_clean_sbu_0, # of connection points: 4
#     Node 10, Type 0, BuildingBlock: MUDLON_clean_sbu_0, # of connection points: 4
#     Node 11, Type 0, BuildingBlock: MUDLON_clean_sbu_0, # of connection points: 4
#     Edge 12, Type (0, 0), BuildingBlock: MIFKUJ_clean_linker_0, # of connection points: 2
#     Edge 13, Type (0, 0), BuildingBlock: MIFKUJ_clean_linker_0, # of connection points: 2
#     Edge 14, Type (0, 0), BuildingBlock: MIFKUJ_clean_linker_0, # of connection points: 2
#     Edge 15, Type (0, 0), BuildingBlock: MIFKUJ_clean_linker_0, # of connection points: 2
#     Edge 16, Type (0, 0), BuildingBlock: MIFKUJ_clean_linker_0, # of connection points: 2
#     Edge 17, Type (0, 0), BuildingBlock: MIFKUJ_clean_linker_0, # of connection points: 2
#     Edge 18, Type (0, 0), BuildingBlock: MIFKUJ_clean_linker_0, # of connection points: 2
#     Edge 19, Type (0, 0), BuildingBlock: MIFKUJ_clean_linker_0, # of connection points: 2
#     Edge 20, Type (0, 0), BuildingBlock: MIFKUJ_clean_linker_0, # of connection points: 2
#     Edge 21, Type (0, 0), BuildingBlock: MIFKUJ_clean_linker_0, # of connection points: 2
#     Edge 22, Type (0, 0), BuildingBlock: MIFKUJ_clean_linker_0, # of connection points: 2
#     Edge 23, Type (0, 0), BuildingBlock: MIFKUJ_clean_linker_0, # of connection points: 2
#     Edge 24, Type (0, 0), BuildingBlock: MIFKUJ_clean_linker_0, # of connection points: 2
#     Edge 25, Type (0, 0), BuildingBlock: MIFKUJ_clean_linker_0, # of connection points: 2
#     Edge 26, Type (0, 0), BuildingBlock: MIFKUJ_clean_linker_0, # of connection points: 2
#     Edge 27, Type (0, 0), BuildingBlock: MIFKUJ_clean_linker_0, # of connection points: 2
#     Edge 28, Type (0, 0), BuildingBlock: MIFKUJ_clean_linker_0, # of connection points: 2
#     Edge 29, Type (0, 0), BuildingBlock: MIFKUJ_clean_linker_0, # of connection points: 2
#     Edge 30, Type (0, 0), BuildingBlock: MIFKUJ_clean_linker_0, # of connection points: 2
#     Edge 31, Type (0, 0), BuildingBlock: MIFKUJ_clean_linker_0, # of connection points: 2
#     Edge 32, Type (0, 0), BuildingBlock: MIFKUJ_clean_linker_0, # of connection points: 2
#     Edge 33, Type (0, 0), BuildingBlock: MIFKUJ_clean_linker_0, # of connection points: 2
#     Edge 34, Type (0, 0), BuildingBlock: MIFKUJ_clean_linker_0, # of connection points: 2
#     Edge 35, Type (0, 0), BuildingBlock: MIFKUJ_clean_linker_0, # of connection points: 2
# Relax obj value: 0.017
# Max RMSD: 0.121
# Mean RMSD: 0.121
data_MOF--net-umj--node1-MUDLON_clean_sbu_0--edge1-MIFKUJ_clean_linker_0
_symmetry_space_group_name_H-M    P1
_symmetry_Int_Tables_number       1
_symmetry_cell_setting            triclinic
loop_
_symmetry_equiv_pos_as_xyz
'x, y, z'
_cell_length_a     39.54399
_cell_length_b     39.533031
_cell_length_c     113.9637
_cell_angle_alpha  90.034169
_cell_angle_beta   90.270014
_cell_angle_gamma 120.02024
loop_
_atom_site_label
_atom_site_type_symbol
_atom_site_fract_x
_atom_site_fract_y
_atom_site_fract_z
_atom_type_partial_charge
Mg0 Mg 0.04814 0.2791 0.09452 0.0
C1 C 0.02684 0.2695 0.11894 0.0
O2 O 0.9952 0.26014 0.11275 0.0
C3 C 0.08555 0.31413 0.07211 0.0
O4 O 0.05084 0.3108 0.07149 0.0
C5 C 0.0435 0.34914 0.09601 0.0
O6 O 0.07779 0.35704 0.10014 0.0
O7 O 0.01991 0.31429 0.09267 0.0
O8 O 0.0587 0.28049 0.11345 0.0
O9 O 0.01776 0.21678 0.09024 0.0
C10 C 0.04212 0.20529 0.08823 0.0
O11 O 0.07955 0.2313 0.08849 0.0
O12 O 0.09564 0.30473 0.08166 0.0
Mg13 Mg 0.77301 0.04078 0.42586 0.0
C14 C 0.78338 0.02968 0.45054 0.0
O15 O 0.77871 0.99847 0.445 0.0
C16 C 0.81343 0.11567 0.40849 0.0
O17 O 0.84011 0.13758 0.41627 0.0
C18 C 0.69915 0.03579 0.42593 0.0
O19 O 0.72645 0.07215 0.42794 0.0
O20 O 0.70958 0.01028 0.42466 0.0
O21 O 0.78435 0.05728 0.44447 0.0
O22 O 0.80577 0.01104 0.42211 0.0
C23 C 0.8418 0.03587 0.42071 0.0
O24 O 0.85286 0.07316 0.42132 0.0
O25 O 0.78741 0.08103 0.41112 0.0
Mg26 Mg 0.73465 0.77784 0.76021 0.0
C27 C 0.71177 0.75581 0.78539 0.0
O28 O 0.69659 0.72134 0.78037 0.0
C29 C 0.72969 0.79604 0.73629 0.0
O30 O 0.75058 0.77866 0.73697 0.0
C31 C 0.66475 0.70532 0.75474 0.0
O32 O 0.65517 0.73271 0.75492 0.0
O33 O 0.70037 0.71524 0.75657 0.0
O34 O 0.7267 0.7861 0.77889 0.0
O35 O 0.79799 0.81071 0.75829 0.0
C36 C 0.80883 0.84686 0.7593 0.0
O37 O 0.78199 0.85638 0.7614 0.0
O38 O 0.71654 0.80204 0.74579 0.0
Mg39 Mg 0.96346 0.73684 0.09454 0.0
C40 C 0.95066 0.70249 0.1191 0.0
O41 O 0.96025 0.679 0.11381 0.0
C42 C 0.93894 0.73612 0.07081 0.0
O43 O 0.97718 0.75795 0.07125 0.0
C44 C 0.97044 0.66987 0.0873 0.0
O45 O 0.93365 0.65962 0.0856 0.0
O46 O 0.99382 0.70442 0.09096 0.0
O47 O 0.94553 0.72646 0.11295 0.0
O48 O 0.99315 0.80042 0.09331 0.0
C49 C 0.96839 0.81104 0.09574 0.0
O50 O 0.93301 0.78396 0.09876 0.0
O51 O 0.92085 0.7204 0.08027 0.0
Mg52 Mg 0.23143 0.95814 0.42866 0.0
C53 C 0.24933 0.97548 0.45309 0.0
O54 O 0.27146 0.00745 0.44711 0.0
C55 C 0.21943 0.93327 0.40492 0.0
O56 O 0.24085 0.97156 0.40537 0.0
C57 C 0.30393 0.96056 0.42528 0.0
O58 O 0.27668 0.92401 0.42692 0.0
O59 O 0.29402 0.98666 0.42542 0.0
O60 O 0.22637 0.94451 0.44739 0.0
O61 O 0.19751 0.9873 0.42646 0.0
C62 C 0.1623 0.9628 0.42912 0.0
O63 O 0.15432 0.92799 0.43271 0.0
O64 O 0.20806 0.91471 0.41457 0.0
Mg65 Mg 0.27927 0.2343 0.76105 0.0
C66 C 0.25867 0.22765 0.78565 0.0
O67 O 0.23259 0.23257 0.77989 0.0
C68 C 0.31131 0.18991 0.74466 0.0
O69 O 0.30285 0.16261 0.75253 0.0
C70 C 0.34709 0.30928 0.76097 0.0
O71 O 0.35693 0.28311 0.7638 0.0
O72 O 0.31106 0.2976 0.75916 0.0
O73 O 0.28484 0.22536 0.77978 0.0
O74 O 0.21683 0.19973 0.75715 0.0
C75 C 0.20559 0.16348 0.75793 0.0
O76 O 0.23147 0.15339 0.76086 0.0
O77 O 0.30573 0.21823 0.74693 0.0
Mg78 Mg 0.71381 0.95204 0.59994 0.0
C79 C 0.71824 0.97336 0.57523 0.0
O80 O 0.72071 0.00298 0.58119 0.0
C81 C 0.67658 0.90778 0.62161 0.0
O82 O 0.67549 0.94022 0.62292 0.0
C83 C 0.64095 0.95307 0.6002 0.0
O84 O 0.63224 0.91771 0.59694 0.0
O85 O 0.67665 0.978 0.60231 0.0
O86 O 0.71385 0.94363 0.5809 0.0
O87 O 0.776 0.9845 0.60477 0.0
C88 C 0.78909 0.96249 0.60822 0.0
O89 O 0.7646 0.92482 0.60907 0.0
O90 O 0.68912 0.90198 0.61196 0.0
Mg91 Mg 0.77406 0.74311 0.93252 0.0
C92 C 0.80411 0.7423 0.90685 0.0
O93 O 0.84002 0.76252 0.9109 0.0
C94 C 0.78428 0.72703 0.95617 0.0
O95 O 0.76054 0.74127 0.95586 0.0
C96 C 0.70077 0.67254 0.93528 0.0
O97 O 0.72758 0.66336 0.93274 0.0
O98 O 0.71121 0.70868 0.93598 0.0
O99 O 0.77563 0.73001 0.91394 0.0
O100 O 0.80757 0.80674 0.93506 0.0
C101 C 0.82201 0.83003 0.92642 0.0
O102 O 0.80986 0.81663 0.91577 0.0
O103 O 0.79769 0.72275 0.94647 0.0
Mg104 Mg 0.05694 0.77007 0.26599 0.0
C105 C 0.0611 0.74932 0.24062 0.0
O106 O 0.04934 0.71531 0.24557 0.0
C107 C 0.08748 0.78095 0.28948 0.0
O108 O 0.05046 0.75373 0.28977 0.0
C109 C 0.05668 0.69776 0.27034 0.0
O110 O 0.09339 0.72542 0.26943 0.0
O111 O 0.03036 0.70726 0.26933 0.0
O112 O 0.07037 0.77895 0.24714 0.0
O113 O 0.02547 0.80144 0.2691 0.0
C114 C 0.04957 0.83778 0.2678 0.0
O115 O 0.08564 0.84837 0.26487 0.0
O116 O 0.10232 0.79613 0.2796 0.0
Mg117 Mg 0.26041 0.04738 0.60277 0.0
C118 C 0.24813 0.02626 0.57837 0.0
O119 O 0.22619 0.99468 0.58453 0.0
C120 C 0.26497 0.10073 0.62269 0.0
O121 O 0.22733 0.08308 0.62053 0.0
C122 C 0.32854 0.04055 0.60505 0.0
O123 O 0.33926 0.07715 0.6028 0.0
O124 O 0.29212 0.01613 0.60595 0.0
O125 O 0.26903 0.05826 0.58389 0.0
O126 O 0.19687 0.01956 0.60489 0.0
C127 C 0.18366 0.03905 0.59962 0.0
O128 O 0.20829 0.06992 0.59359 0.0
O129 O 0.2868 0.09486 0.6158 0.0
Mg130 Mg 0.23843 0.27092 0.93551 0.0
C131 C 0.26164 0.28178 0.91086 0.0
O132 O 0.28979 0.28038 0.9166 0.0
C133 C 0.22161 0.28211 0.959 0.0
O134 O 0.24348 0.26573 0.95918 0.0
C135 C 0.30899 0.34452 0.93974 0.0
O136 O 0.2805 0.35202 0.93805 0.0
O137 O 0.30079 0.30894 0.93945 0.0
O138 O 0.23346 0.28014 0.91673 0.0
O139 O 0.20794 0.20733 0.93821 0.0
C140 C 0.19148 0.18452 0.92951 0.0
O141 O 0.19913 0.19915 0.91889 0.0
O142 O 0.21185 0.28933 0.94903 0.0
Mg143 Mg 0.96653 0.22462 0.26911 0.0
C144 C 0.98219 0.22318 0.24464 0.0
O145 O 0.01429 0.23257 0.25058 0.0
C146 C 0.88986 0.18417 0.2856 0.0
O147 O 0.86868 0.15851 0.2775 0.0
C148 C 0.9742 0.29986 0.26996 0.0
O149 O 0.93736 0.27369 0.26807 0.0
O150 O 0.99878 0.28806 0.27083 0.0
O151 O 0.95165 0.21577 0.2504 0.0
O152 O 0.99376 0.18921 0.27263 0.0
C153 C 0.96778 0.15313 0.27284 0.0
O154 O 0.9312 0.14364 0.27116 0.0
O155 O 0.92504 0.20987 0.28346 0.0
H156 H 0.92682 0.21844 0.22877 0.0
H157 H 0.93344 0.22529 0.20733 0.0
H158 H 0.04754 0.23662 0.20977 0.0
H159 H 0.0414 0.23028 0.23097 0.0
H160 H 0.05019 0.29189 0.19601 0.0
H161 H 0.96766 0.15253 0.19956 0.0
H162 H 0.90949 0.09174 0.20594 0.0
H163 H 0.83551 0.123 0.18673 0.0
H164 H 0.89324 0.18427 0.18036 0.0
H165 H 0.08152 0.27386 0.13499 0.0
H166 H 0.07361 0.26491 0.15633 0.0
H167 H 0.95778 0.24922 0.15348 0.0
H168 H 0.96509 0.25719 0.13233 0.0
H169 H 0.95571 0.19614 0.16748 0.0
H170 H 0.03754 0.33541 0.16402 0.0
H171 H 0.09532 0.39668 0.15772 0.0
H172 H 0.1701 0.3663 0.17685 0.0
H173 H 0.11277 0.30458 0.18314 0.0
C174 C 0.9531 0.222 0.2247 0.0
C175 C 0.98358 0.22393 0.23161 0.0
C176 C 0.95688 0.2259 0.21245 0.0
C177 C 0.99106 0.23149 0.2069 0.0
C178 C 0.02105 0.23264 0.2138 0.0
C179 C 0.01735 0.22885 0.22597 0.0
C180 C 0.99647 0.23717 0.19397 0.0
C181 C 0.02973 0.2707 0.18978 0.0
C182 C 0.96945 0.21003 0.18579 0.0
C183 C 0.93474 0.17317 0.18958 0.0
C184 C 0.93897 0.14659 0.19677 0.0
C185 C 0.90608 0.11202 0.20037 0.0
C186 C 0.86882 0.10357 0.19677 0.0
C187 C 0.86438 0.12962 0.18953 0.0
C188 C 0.89718 0.16425 0.18591 0.0
C189 C 0.0545 0.26871 0.13894 0.0
C190 C 0.02398 0.26623 0.13193 0.0
C191 C 0.05 0.26367 0.15115 0.0
C192 C 0.0151 0.25657 0.15657 0.0
C193 C 0.98487 0.25442 0.14955 0.0
C194 C 0.98922 0.25916 0.13742 0.0
C195 C 0.00949 0.25088 0.16951 0.0
C196 C 0.97619 0.21735 0.17371 0.0
C197 C 0.03641 0.27809 0.1777 0.0
C198 C 0.0709 0.3152 0.17395 0.0
C199 C 0.06633 0.34166 0.16681 0.0
C200 C 0.09899 0.37649 0.16325 0.0
C201 C 0.13636 0.38532 0.16686 0.0
C202 C 0.14114 0.35939 0.17405 0.0
C203 C 0.10857 0.32449 0.17762 0.0
H204 H 0.16162 0.4123 0.16409 0.0
H205 H 0.8434 0.07679 0.19956 0.0
H206 H 0.76903 0.07557 0.46569 0.0
H207 H 0.75979 0.06744 0.48703 0.0
H208 H 0.78738 0.97482 0.48605 0.0
H209 H 0.79615 0.98244 0.4649 0.0
H210 H 0.72236 0.95215 0.49802 0.0
H211 H 0.85097 0.06544 0.49781 0.0
H212 H 0.90106 0.13258 0.49253 0.0
H213 H 0.83432 0.17742 0.5092 0.0
H214 H 0.78356 0.11047 0.51444 0.0
H215 H 0.73443 0.92897 0.56003 0.0
H216 H 0.74721 0.9394 0.53889 0.0
H217 H 0.72463 0.03542 0.5401 0.0
H218 H 0.71289 0.02581 0.5611 0.0
H219 H 0.7875 0.05652 0.52797 0.0
H220 H 0.65855 0.94387 0.52797 0.0
H221 H 0.60771 0.87691 0.53312 0.0
H222 H 0.67397 0.83103 0.51674 0.0
H223 H 0.72546 0.8978 0.51161 0.0
C224 C 0.77379 0.05399 0.47007 0.0
C225 C 0.78314 0.02956 0.46358 0.0
C226 C 0.76844 0.04929 0.48227 0.0
C227 C 0.77276 0.02036 0.48818 0.0
C228 C 0.78352 0.99706 0.48172 0.0
C229 C 0.78868 1.00161 0.4696 0.0
C230 C 0.76445 0.01289 0.50097 0.0
C231 C 0.73701 0.9749 0.50458 0.0
C232 C 0.78277 0.04265 0.50954 0.0
C233 C 0.81329 0.08291 0.50641 0.0
C234 C 0.84683 0.08959 0.50027 0.0
C235 C 0.87537 0.12762 0.4973 0.0
C236 C 0.87082 0.15923 0.5005 0.0
C237 C 0.83777 0.15289 0.50671 0.0
C238 C 0.80913 0.11492 0.50969 0.0
C239 C 0.73182 0.95201 0.55574 0.0
C240 C 0.72269 0.97655 0.56227 0.0
C241 C 0.7391 0.95797 0.54365 0.0
C242 C 0.73677 0.98819 0.53783 0.0
C243 C 0.72691 0.01212 0.54434 0.0
C244 C 0.72003 0.00643 0.55638 0.0
C245 C 0.74537 0.99574 0.52505 0.0
C246 C 0.77286 0.03374 0.52142 0.0
C247 C 0.72697 0.96601 0.51646 0.0
C248 C 0.69604 0.92586 0.51952 0.0
C249 C 0.66241 0.91953 0.52554 0.0
C250 C 0.63346 0.8816 0.52844 0.0
C251 C 0.63766 0.84975 0.52529 0.0
C252 C 0.67078 0.85574 0.51919 0.0
C253 C 0.69985 0.89361 0.51628 0.0
H254 H 0.6152 0.82041 0.52754 0.0
H255 H 0.89295 0.18865 0.49819 0.0
H256 H 0.76075 0.82045 0.79871 0.0
H257 H 0.7787 0.82102 0.81941 0.0
H258 H 0.69494 0.69803 0.82187 0.0
H259 H 0.67712 0.69712 0.80132 0.0
H260 H 0.74017 0.8018 0.84074 0.0
H261 H 0.73539 0.65371 0.83719 0.0
H262 H 0.74243 0.61292 0.8221 0.0
H263 H 0.81583 0.71528 0.80187 0.0
H264 H 0.80967 0.75672 0.81692 0.0
H265 H 0.73383 0.71857 0.89609 0.0
H266 H 0.72143 0.72422 0.8754 0.0
H267 H 0.84299 0.76835 0.8677 0.0
H268 H 0.85604 0.76352 0.88856 0.0
H269 H 0.78752 0.71052 0.8511 0.0
H270 H 0.8186 0.83204 0.86925 0.0
H271 H 0.81301 0.87342 0.88442 0.0
H272 H 0.69247 0.82812 0.87521 0.0
H273 H 0.69715 0.78588 0.86012 0.0
C274 C 0.7456 0.79373 0.80374 0.0
C275 C 0.71776 0.75866 0.79831 0.0
C276 C 0.75597 0.79407 0.81556 0.0
C277 C 0.73878 0.75937 0.82212 0.0
C278 C 0.7092 0.72498 0.81693 0.0
C279 C 0.69891 0.72459 0.80516 0.0
C280 C 0.75291 0.75831 0.83419 0.0
C281 C 0.7506 0.78193 0.84298 0.0
C282 C 0.76714 0.7328 0.83712 0.0
C283 C 0.7718 0.70826 0.82814 0.0
C284 C 0.75321 0.66752 0.82956 0.0
C285 C 0.757 0.64428 0.821 0.0
C286 C 0.77947 0.66149 0.81102 0.0
C287 C 0.79833 0.70198 0.80959 0.0
C288 C 0.79467 0.72535 0.81812 0.0
C289 C 0.75799 0.72904 0.89002 0.0
C290 C 0.79606 0.74075 0.89403 0.0
C291 C 0.7508 0.7324 0.87818 0.0
C292 C 0.78134 0.7471 0.87005 0.0
C293 C 0.81904 0.75705 0.87387 0.0
C294 C 0.82643 0.75424 0.88578 0.0
C295 C 0.77378 0.75324 0.85766 0.0
C296 C 0.77728 0.73054 0.84882 0.0
C297 C 0.76094 0.77978 0.85467 0.0
C298 C 0.75815 0.80555 0.86362 0.0
C299 C 0.79081 0.83066 0.87052 0.0
C300 C 0.78782 0.8543 0.8791 0.0
C301 C 0.75239 0.85335 0.8808 0.0
C302 C 0.71989 0.8288 0.8739 0.0
C303 C 0.7227 0.80502 0.86532 0.0
H304 H 0.75012 0.87167 0.88744 0.0
H305 H 0.78233 0.64344 0.8044 0.0
H306 H 0.95573 0.76214 0.13276 0.0
H307 H 0.97257 0.77352 0.15366 0.0
H308 H 0.97141 0.66403 0.15563 0.0
H309 H 0.9546 0.65241 0.13479 0.0
H310 H 0.93822 0.67677 0.17503 0.0
H311 H 0.0561 0.74763 0.15225 0.0
H312 H 0.09803 0.79502 0.13731 0.0
H313 H 0.09345 0.88719 0.15587 0.0
H314 H 0.051 0.84019 0.17084 0.0
H315 H 0.04956 0.69364 0.22452 0.0
H316 H 0.02977 0.68987 0.20405 0.0
H317 H 0.03993 0.80335 0.20697 0.0
H318 H 0.06027 0.80758 0.22757 0.0
H319 H 0.06538 0.79301 0.18554 0.0
H320 H 0.95174 0.72366 0.20913 0.0
H321 H 0.90975 0.67665 0.22413 0.0
H322 H 0.90527 0.58233 0.20416 0.0
H323 H 0.94774 0.62887 0.18911 0.0
C324 C 0.95829 0.7401 0.13769 0.0
C325 C 0.95402 0.70643 0.13207 0.0
C326 C 0.96822 0.74681 0.14962 0.0
C327 C 0.97388 0.71993 0.15617 0.0
C328 C 0.96738 0.68527 0.15075 0.0
C329 C 0.95776 0.67868 0.13882 0.0
C330 C 0.9884 0.7285 0.1685 0.0
C331 C 0.96613 0.70204 0.17731 0.0
C332 C 0.02437 0.76205 0.17155 0.0
C333 C 0.05002 0.79033 0.16259 0.0
C334 C 0.06377 0.77795 0.15309 0.0
C335 C 0.08767 0.80474 0.14463 0.0
C336 C 0.0983 0.84407 0.14562 0.0
C337 C 0.08513 0.8567 0.1551 0.0
C338 C 0.06116 0.83001 0.16358 0.0
C339 C 0.04821 0.71815 0.22079 0.0
C340 C 0.05615 0.75077 0.22773 0.0
C341 C 0.03666 0.71582 0.20908 0.0
C342 C 0.0324 0.74588 0.20405 0.0
C343 C 0.04269 0.77965 0.2107 0.0
C344 C 0.05444 0.78208 0.22247 0.0
C345 C 0.0155 0.74087 0.19204 0.0
C346 C 0.03727 0.76797 0.18329 0.0
C347 C 0.97895 0.70798 0.18904 0.0
C348 C 0.95319 0.67982 0.19804 0.0
C349 C 0.94204 0.69293 0.20797 0.0
C350 C 0.91812 0.66636 0.21648 0.0
C351 C 0.90492 0.62653 0.21511 0.0
C352 C 0.91554 0.61319 0.20522 0.0
C353 C 0.93951 0.63965 0.19669 0.0
H354 H 0.8864 0.60601 0.22171 0.0
H355 H 0.11681 0.86477 0.13906 0.0
H356 H 0.19796 0.96453 0.56491 0.0
H357 H 0.19917 0.95624 0.54382 0.0
H358 H 0.29995 0.0716 0.5411 0.0
H359 H 0.29849 0.0805 0.56243 0.0
H360 H 0.2486 0.05776 0.52353 0.0
H361 H 0.30916 0.98969 0.53996 0.0
H362 H 0.3149 0.94325 0.5531 0.0
H363 H 0.21133 0.84827 0.53784 0.0
H364 H 0.20464 0.89423 0.52471 0.0
H365 H 0.30226 0.03495 0.46672 0.0
H366 H 0.30188 0.04242 0.48789 0.0
H367 H 0.1983 0.929 0.49035 0.0
H368 H 0.19867 0.92101 0.46894 0.0
H369 H 0.25132 0.94179 0.50801 0.0
H370 H 0.19101 0.01045 0.4916 0.0
H371 H 0.18595 0.05718 0.47842 0.0
H372 H 0.29007 0.1515 0.49366 0.0
H373 H 0.29608 0.10523 0.50682 0.0
C374 C 0.22045 0.98831 0.55988 0.0
C375 C 0.24839 0.02312 0.5654 0.0
C376 C 0.22117 0.98338 0.54778 0.0
C377 C 0.25014 0.0129 0.54087 0.0
C378 C 0.27746 0.04827 0.54627 0.0
C379 C 0.27662 0.05335 0.55844 0.0
C380 C 0.25158 0.00646 0.52805 0.0
C381 C 0.24983 0.03275 0.52015 0.0
C382 C 0.25215 0.97322 0.5236 0.0
C383 C 0.25622 0.94546 0.53143 0.0
C384 C 0.28745 0.95894 0.53947 0.0
C385 C 0.2909 0.9327 0.5469 0.0
C386 C 0.26345 0.89285 0.54632 0.0
C387 C 0.23255 0.87915 0.53828 0.0
C388 C 0.22894 0.90528 0.53084 0.0
C389 C 0.27939 0.01137 0.47172 0.0
C390 C 0.25023 0.97748 0.4661 0.0
C391 C 0.27919 0.01582 0.48386 0.0
C392 C 0.24963 0.98668 0.4907 0.0
C393 C 0.22126 0.95202 0.48522 0.0
C394 C 0.2215 0.94745 0.473 0.0
C395 C 0.24833 0.99308 0.50352 0.0
C396 C 0.25011 0.9668 0.51141 0.0
C397 C 0.24788 0.02637 0.50797 0.0
C398 C 0.24418 0.05431 0.50013 0.0
C399 C 0.21299 0.04111 0.49208 0.0
C400 C 0.20992 0.06753 0.48462 0.0
C401 C 0.23772 0.10727 0.48518 0.0
C402 C 0.26859 0.1207 0.49323 0.0
C403 C 0.27182 0.0944 0.5007 0.0
H404 H 0.2353 0.12768 0.4794 0.0
H405 H 0.26617 0.87258 0.55209 0.0
H406 H 0.31794 0.24063 0.8011 0.0
H407 H 0.31846 0.24943 0.82246 0.0
H408 H 0.19933 0.22515 0.82084 0.0
H409 H 0.19892 0.21716 0.79965 0.0
H410 H 0.24074 0.28768 0.83358 0.0
H411 H 0.22456 0.15893 0.83226 0.0
H412 H 0.241 0.10866 0.82661 0.0
H413 H 0.35218 0.17334 0.84396 0.0
H414 H 0.33659 0.22428 0.84958 0.0
H415 H 0.20125 0.266 0.89551 0.0
H416 H 0.20043 0.25668 0.87417 0.0
H417 H 0.32074 0.28467 0.87554 0.0
H418 H 0.32164 0.29358 0.8967 0.0
H419 H 0.27865 0.22015 0.86299 0.0
H420 H 0.29438 0.34888 0.86429 0.0
H421 H 0.27744 0.39876 0.86997 0.0
H422 H 0.16623 0.33336 0.85268 0.0
H423 H 0.18233 0.2828 0.84703 0.0
C424 C 0.29173 0.23661 0.80535 0.0
C425 C 0.25846 0.22832 0.79867 0.0
C426 C 0.29202 0.24166 0.81755 0.0
C427 C 0.25888 0.23796 0.8233 0.0
C428 C 0.22536 0.22849 0.81665 0.0
C429 C 0.22515 0.22376 0.8045 0.0
C430 C 0.2592 0.2453 0.83616 0.0
C431 C 0.24855 0.27249 0.84001 0.0
C432 C 0.27015 0.22621 0.84459 0.0
C433 C 0.27957 0.19561 0.84123 0.0
C434 C 0.25264 0.16259 0.83479 0.0
C435 C 0.26178 0.13394 0.83161 0.0
C436 C 0.29765 0.13786 0.8349 0.0
C437 C 0.32442 0.17038 0.8414 0.0
C438 C 0.31544 0.19913 0.84459 0.0
C439 C 0.22764 0.27071 0.89122 0.0
C440 C 0.26146 0.28045 0.89783 0.0
C441 C 0.22717 0.26534 0.87903 0.0
C442 C 0.26057 0.26993 0.87322 0.0
C443 C 0.29454 0.28066 0.8798 0.0
C444 C 0.29501 0.28592 0.89192 0.0
C445 C 0.26014 0.26246 0.86039 0.0
C446 C 0.2708 0.23528 0.85655 0.0
C447 C 0.2491 0.28148 0.85197 0.0
C448 C 0.2394 0.31187 0.85534 0.0
C449 C 0.26619 0.34498 0.86178 0.0
C450 C 0.25676 0.3734 0.86498 0.0
C451 C 0.22073 0.36918 0.86172 0.0
C452 C 0.1941 0.33656 0.85522 0.0
C453 C 0.20337 0.30803 0.85201 0.0
H454 H 0.21349 0.39122 0.8642 0.0
H455 H 0.30467 0.11565 0.83243 0.0
H456 H 0.07974 0.35041 0.05264 0.0
H457 H 0.10805 0.35406 0.0334 0.0
H458 H 0.171 0.29995 0.04736 0.0
H459 H 0.14298 0.29665 0.06681 0.0
H460 H 0.2142 0.35666 0.03094 0.0
H461 H 0.08471 0.24501 0.03373 0.0
H462 H 0.01398 0.2113 0.03766 0.0
H463 H 0.99872 0.2788 1.01082 0.0
H464 H 0.0695 0.31332 1.00685 0.0
H465 H 0.23958 0.26885 0.9809 0.0
H466 H 0.22096 0.28352 0.99964 0.0
H467 H 0.15845 0.33207 0.98187 0.0
H468 H 0.17677 0.31684 0.9628 0.0
H469 H 0.1162 0.28442 0.99968 0.0
H470 H 0.24556 0.39175 0.99557 0.0
H471 H 0.31616 0.4242 0.99156 0.0
H472 H 0.33206 0.36456 0.02067 0.0
H473 H 0.26144 0.33127 0.02476 0.0
C474 C 0.10016 0.3399 0.05169 0.0
C475 C 0.10881 0.32285 0.06123 0.0
C476 C 0.11623 0.3419 0.04066 0.0
C477 C 0.14093 0.32647 0.03886 0.0
C478 C 0.1518 0.31184 0.04853 0.0
C479 C 0.13586 0.31005 0.05965 0.0
C480 C 0.15295 0.32304 0.02676 0.0
C481 C 0.19282 0.3406 0.02413 0.0
C482 C 0.12503 0.30294 0.01776 0.0
C483 C 0.08244 0.28203 0.02008 0.0
C484 C 0.06631 0.25287 0.02873 0.0
C485 C 0.02621 0.23359 0.03095 0.0
C486 C 1.00189 0.24298 0.02451 0.0
C487 C 0.0176 0.27161 0.01582 0.0
C488 C 0.0577 0.29102 1.01357 0.0
C489 C 0.22197 0.28279 0.98089 0.0
C490 C 0.20976 0.29176 0.97029 0.0
C491 C 0.21154 0.29141 0.99167 0.0
C492 C 0.1889 0.30956 0.99221 0.0
C493 C 0.17622 0.31831 0.98167 0.0
C494 C 0.1867 0.30962 0.97079 0.0
C495 C 0.17753 0.31778 1.00385 0.0
C496 C 0.13769 0.30097 1.00642 0.0
C497 C 0.20551 0.33853 1.01277 0.0
C498 C 0.24811 0.3588 1.01042 0.0
C499 C 0.26406 0.38535 1.00107 0.0
C500 C 0.30409 0.40392 0.99879 0.0
C501 C 0.32857 0.39639 1.00584 0.0
C502 C 0.31306 0.37035 0.01521 0.0
C503 C 0.27303 0.35166 0.01753 0.0
H504 H 0.35955 0.41078 1.00405 0.0
H505 H 0.97085 0.22802 0.02625 0.0
H506 H 0.87191 0.1817 0.39792 0.0
H507 H 0.87933 0.19686 0.37689 0.0
H508 H 0.76896 0.09283 0.36993 0.0
H509 H 0.76132 0.0775 0.39078 0.0
H510 H 0.82593 0.09654 0.35611 0.0
H511 H 0.7783 0.18237 0.36719 0.0
H512 H 0.77751 0.23507 0.37855 0.0
H513 H 0.89262 0.3167 0.36633 0.0
H514 H 0.89433 0.26434 0.35503 0.0
H515 H 0.82098 0.12661 0.29507 0.0
H516 H 0.80186 0.11817 0.31577 0.0
H517 H 0.90753 0.2252 0.32444 0.0
H518 H 0.92629 0.23432 0.30387 0.0
H519 H 0.84976 0.21965 0.33732 0.0
H520 H 0.9006 0.13526 0.32769 0.0
H521 H 0.90432 0.08368 0.31658 0.0
H522 H 0.78681 1.0006 0.32649 0.0
H523 H 0.7822 0.05188 0.33753 0.0
C524 C 0.84893 0.16243 0.39193 0.0
C525 C 0.81617 0.12825 0.39606 0.0
C526 C 0.85318 0.17113 0.37991 0.0
C527 C 0.82471 0.14591 0.37181 0.0
C528 C 0.7914 0.11261 0.37598 0.0
C529 C 0.78709 0.10397 0.38794 0.0
C530 C 0.83056 0.15259 0.35894 0.0
C531 C 0.83048 0.12322 0.35198 0.0
C532 C 0.83756 0.18779 0.35358 0.0
C533 C 0.83659 0.21933 0.36035 0.0
C534 C 0.80359 0.21148 0.36701 0.0
C535 C 0.80294 0.24131 0.37342 0.0
C536 C 0.83503 0.27919 0.37319 0.0
C537 C 0.8678 0.28733 0.36652 0.0
C538 C 0.86861 0.2576 0.3601 0.0
C539 C 0.83981 0.14862 0.30135 0.0
C540 C 0.87537 0.18087 0.2978 0.0
C541 C 0.82899 0.1437 0.31321 0.0
C542 C 0.85363 0.1707 0.32173 0.0
C543 C 0.88808 0.20389 0.31808 0.0
C544 C 0.89881 0.2089 0.30628 0.0
C545 C 0.84501 0.16353 0.33449 0.0
C546 C 0.8448 0.19283 0.34144 0.0
C547 C 0.83815 0.12841 0.3399 0.0
C548 C 0.8409 0.09749 0.33332 0.0
C549 C 0.87545 0.10605 0.32743 0.0
C550 C 0.87774 0.07687 0.32115 0.0
C551 C 0.84578 0.03891 0.3208 0.0
C552 C 0.81151 0.03004 0.32675 0.0
C553 C 0.80905 0.05914 0.33302 0.0
H554 H 0.8476 0.01636 0.31594 0.0
H555 H 0.83447 0.30224 0.37815 0.0
H556 H 0.67642 0.81899 0.73017 0.0
H557 H 0.66185 0.83264 0.71028 0.0
H558 H 0.74955 0.80985 0.69615 0.0
H559 H 0.76436 0.7967 0.71576 0.0
H560 H 0.75543 0.87297 0.68638 0.0
H561 H 0.65357 0.74251 0.69376 0.0
H562 H 0.59861 0.68932 0.70444 0.0
H563 H 0.532 0.74724 0.70022 0.0
H564 H 0.58681 0.80108 0.68964 0.0
H565 H 0.70862 0.86168 0.62638 0.0
H566 H 0.71113 0.83505 0.6456 0.0
H567 H 0.63511 0.87351 0.65982 0.0
H568 H 0.63261 0.90023 0.64071 0.0
H569 H 0.62184 0.8009 0.66934 0.0
H570 H 0.72825 0.9328 0.66206 0.0
H571 H 0.78289 0.98158 0.65017 0.0
H572 H 0.84155 0.91539 0.65348 0.0
H573 H 0.78693 0.86589 0.66526 0.0
C574 C 0.69271 0.8172 0.72282 0.0
C575 C 0.72145 0.80666 0.72456 0.0
C576 C 0.68421 0.82473 0.71145 0.0
C577 C 0.70439 0.82192 0.70169 0.0
C578 C 0.73358 0.81222 0.70351 0.0
C579 C 0.74191 0.80458 0.71477 0.0
C580 C 0.69551 0.82904 0.68953 0.0
C581 C 0.72625 0.85689 0.68266 0.0
C582 C 0.65744 0.80825 0.68462 0.0
C583 C 0.62448 0.77607 0.69103 0.0
C584 C 0.62735 0.74411 0.69521 0.0
C585 C 0.5962 0.71379 0.70122 0.0
C586 C 0.56189 0.71497 0.70304 0.0
C587 C 0.55863 0.74642 0.69882 0.0
C588 C 0.58972 0.77683 0.69281 0.0
C589 C 0.69144 0.86331 0.6335 0.0
C590 C 0.67068 0.88332 0.63208 0.0
C591 C 0.69305 0.84828 0.64449 0.0
C592 C 0.67372 0.85281 0.65418 0.0
C593 C 0.65028 0.86975 0.65249 0.0
C594 C 0.64899 0.8851 0.64157 0.0
C595 C 0.68176 0.84463 0.66628 0.0
C596 C 0.65094 0.81683 0.67312 0.0
C597 C 0.71986 0.86501 0.67114 0.0
C598 C 0.75336 0.89549 0.66445 0.0
C599 C 0.75274 0.92858 0.66021 0.0
C600 C 0.78369 0.95635 0.65349 0.0
C601 C 0.81562 0.95153 0.65104 0.0
C602 C 0.81677 0.91905 0.65538 0.0
C603 C 0.78584 0.89115 0.66208 0.0
H604 H 0.83949 0.97297 0.6458 0.0
H605 H 0.53779 0.69145 0.70769 0.0
H606 H 0.96853 0.77973 0.05121 0.0
H607 H 0.93741 0.77099 0.0321 0.0
H608 H 0.83279 0.67133 0.0451 0.0
H609 H 0.86396 0.68006 0.06451 0.0
H610 H 0.85885 0.66093 0.02193 0.0
H611 H 0.82828 0.74842 0.04249 0.0
H612 H 0.843 0.80626 0.05446 0.0
H613 H 0.92159 0.88135 0.02799 0.0
H614 H 0.90768 0.8239 0.01593 0.0
H615 H 0.7504 0.72318 0.97708 0.0
H616 H 0.77208 0.7171 0.99653 0.0
H617 H 0.86594 0.70632 0.98133 0.0
H618 H 0.84408 0.71235 0.96156 0.0
H619 H 0.8408 0.76795 1.00625 0.0
H620 H 0.88697 0.65125 1.00155 0.0
H621 H 0.86944 0.59205 0.98989 0.0
H622 H 0.75309 0.57219 0.98514 0.0
H623 H 0.76976 0.63092 0.9969 0.0
C624 C 0.93888 0.75586 0.05006 0.0
C625 C 0.91865 0.73061 0.0594 0.0
C626 C 0.92117 0.75094 0.03911 0.0
C627 C 0.88285 0.72055 0.03719 0.0
C628 C 0.86249 0.6949 0.04642 0.0
C629 C 0.88016 0.7001 0.0575 0.0
C630 C 0.86419 0.71686 0.02557 0.0
C631 C 0.85469 0.68418 0.01849 0.0
C632 C 0.85874 0.74719 0.02113 0.0
C633 C 0.86712 0.78183 0.02834 0.0
C634 C 0.84891 0.77725 0.03926 0.0
C635 C 0.85704 0.80997 0.04605 0.0
C636 C 0.88316 0.84745 0.04198 0.0
C637 C 0.90127 0.8523 0.03112 0.0
C638 C 0.89324 0.81967 0.0243 0.0
C639 C 0.7755 0.71918 0.97779 0.0
C640 C 0.79579 0.71868 0.96774 0.0
C641 C 0.78785 0.71571 0.98896 0.0
C642 C 0.82073 0.71148 0.99042 0.0
C643 C 0.84032 0.70936 0.98041 0.0
C644 C 0.82786 0.71284 0.96913 0.0
C645 C 0.83555 0.71207 1.00248 0.0
C646 C 0.84471 0.74449 1.00965 0.0
C647 C 0.84026 0.68132 1.00699 0.0
C648 C 0.82978 0.64573 1.0 0.0
C649 C 0.85762 0.63417 0.99804 0.0
C650 C 0.84783 0.6007 0.99141 0.0
C651 C 0.81022 0.57845 0.98674 0.0
C652 C 0.78227 0.58954 0.98872 0.0
C653 C 0.79189 0.62296 0.99535 0.0
H654 H 0.80271 0.55256 0.98161 0.0
H655 H 0.88941 0.87274 0.04724 0.0
H656 H 0.07268 0.73884 0.30938 0.0
H657 H 0.10056 0.76192 0.32883 0.0
H658 H 0.17858 0.87613 0.31471 0.0
H659 H 0.15104 0.8527 0.29498 0.0
H660 H 0.21397 0.85626 0.33208 0.0
H661 H 0.09511 0.85903 0.32747 0.0
H662 H 0.02561 0.83257 0.32248 0.0
H663 H 0.99284 0.74484 0.34906 0.0
H664 H 0.06224 0.77048 0.35411 0.0
H665 H 0.24612 0.96723 0.38372 0.0
H666 H 0.22835 0.93747 0.36438 0.0
H667 H 0.15228 0.82532 0.38003 0.0
H668 H 0.16973 0.85533 0.39968 0.0
H669 H 0.117 0.84177 0.36208 0.0
H670 H 0.23919 0.84548 0.36763 0.0
H671 H 0.3093 0.87649 0.37253 0.0
H672 H 0.33672 0.95708 0.34407 0.0
H673 H 0.26675 0.92699 0.33911 0.0
C674 C 0.09619 0.76876 0.31036 0.0
C675 C 0.10939 0.79413 0.30068 0.0
C676 C 0.11203 0.78193 0.3215 0.0
C677 C 0.14099 0.82099 0.3233 0.0
C678 C 0.15605 0.84589 0.31354 0.0
C679 C 0.14039 0.83252 0.30228 0.0
C680 C 0.15331 0.83603 0.33546 0.0
C681 C 0.19287 0.85346 0.33862 0.0
C682 C 0.12567 0.83181 0.34405 0.0
C683 C 0.08388 0.81642 0.34108 0.0
C684 C 0.0731 0.83391 0.33219 0.0
C685 C 0.03372 0.81909 0.32936 0.0
C686 C 0.00483 0.78697 0.33543 0.0
C687 C 0.01526 0.76968 0.34436 0.0
C688 C 0.05461 0.78436 0.34722 0.0
C689 C 0.22574 0.93614 0.38313 0.0
C690 C 0.20929 0.91365 0.39329 0.0
C691 C 0.21584 0.91911 0.37202 0.0
C692 C 0.18943 0.87906 0.37073 0.0
C693 C 0.17295 0.85629 0.38083 0.0
C694 C 0.18296 0.8734 0.39204 0.0
C695 C 0.17768 0.86185 0.35877 0.0
C696 C 0.13812 0.84417 0.35561 0.0
C697 C 0.20545 0.86637 0.35018 0.0
C698 C 0.24764 0.88411 0.35304 0.0
C699 C 0.26014 0.86997 0.36246 0.0
C700 C 0.29987 0.88737 0.36524 0.0
C701 C 0.32742 0.91878 0.35863 0.0
C702 C 0.31533 0.93276 0.34919 0.0
C703 C 0.27565 0.91551 0.34638 0.0
H704 H 0.35815 0.93226 0.3608 0.0
H705 H 0.97436 0.77554 0.33322 0.0
H706 H 0.2266 0.12071 0.63854 0.0
H707 H 0.24447 0.14009 0.65895 0.0
H708 H 0.35333 0.14178 0.65391 0.0
H709 H 0.33568 0.12247 0.63333 0.0
H710 H 0.2543 0.09733 0.6753 0.0
H711 H 0.41974 0.20662 0.67427 0.0
H712 H 0.46879 0.25696 0.66124 0.0
H713 H 0.3803 0.27598 0.64591 0.0
H714 H 0.33086 0.22606 0.65891 0.0
H715 H 0.31315 0.12717 0.73479 0.0
H716 H 0.31708 0.11539 0.71385 0.0
H717 H 0.33207 0.22866 0.70576 0.0
H718 H 0.32954 0.24113 0.72654 0.0
H719 H 0.3731 0.21322 0.69092 0.0
H720 H 0.23992 0.14335 0.7057 0.0
H721 H 0.18838 0.09668 0.71892 0.0
H722 H 0.20658 0.00451 0.70645 0.0
H723 H 0.25847 0.05074 0.69325 0.0
C724 C 0.25471 0.12588 0.64167 0.0
C725 C 0.27959 0.11978 0.63429 0.0
C726 C 0.26478 0.13677 0.65339 0.0
C727 C 0.30004 0.14203 0.65802 0.0
C728 C 0.326 0.13803 0.65053 0.0
C729 C 0.31592 0.1271 0.63875 0.0
C730 C 0.30811 0.14928 0.67082 0.0
C731 C 0.28041 0.1226 0.6787 0.0
C732 C 0.3421 0.18217 0.6753 0.0
C733 C 0.37158 0.2123 0.66747 0.0
C734 C 0.4108 0.2216 0.66812 0.0
C735 C 0.43865 0.25005 0.66075 0.0
C736 C 0.42764 0.26955 0.65272 0.0
C737 C 0.38876 0.26073 0.65209 0.0
C738 C 0.3608 0.2323 0.65944 0.0
C739 C 0.31819 0.14991 0.72857 0.0
C740 C 0.3204 0.18484 0.73236 0.0
C741 C 0.32021 0.14305 0.71659 0.0
C742 C 0.32399 0.17079 0.70818 0.0
C743 C 0.32897 0.20671 0.71203 0.0
C744 C 0.32728 0.21369 0.72397 0.0
C745 C 0.31908 0.16147 0.6954 0.0
C746 C 0.34732 0.18764 0.68752 0.0
C747 C 0.28516 0.12849 0.69088 0.0
C748 C 0.25333 0.10055 0.69859 0.0
C749 C 0.23299 0.11315 0.70581 0.0
C750 C 0.20375 0.0868 0.7133 0.0
C751 C 0.1944 0.04773 0.71357 0.0
C752 C 0.21398 0.03483 0.70627 0.0
C753 C 0.24326 0.06107 0.69877 0.0
H754 H 0.17194 0.02741 0.71942 0.0
H755 H 0.44924 0.29157 0.64702 0.0
H756 H 0.92751 0.5969 0.07815 0.0
H757 H 0.94154 0.54361 0.07882 0.0
H758 H 0.053 0.61985 0.09513 0.0
H759 H 0.0391 0.67392 0.09451 0.0
H760 H 0.05576 0.56946 0.07802 0.0
H761 H 0.98087 0.56078 0.11197 0.0
H762 H 0.92577 0.55875 0.12263 0.0
H763 H 0.8454 0.45424 0.10405 0.0
H764 H 0.90001 0.45602 0.09313 0.0
H765 H 0.09026 0.42536 0.10207 0.0
H766 H 0.07808 0.4794 0.09951 0.0
H767 H 0.96489 0.4008 0.08456 0.0
H768 H 0.97685 0.3459 0.08716 0.0
H769 H 0.96278 0.45223 0.10057 0.0
H770 H 0.03808 0.46 0.06693 0.0
H771 H 0.09333 0.46221 0.05632 0.0
H772 H 0.1731 0.56831 0.07431 0.0
H773 H 0.11837 0.56642 0.08518 0.0
C774 C 0.95525 0.60264 0.08179 0.0
C775 C 0.98205 0.63964 0.08639 0.0
C776 C 0.96315 0.57201 0.08218 0.0
C777 C 0.99797 0.57755 0.08721 0.0
C778 C 0.02583 0.61494 0.09126 0.0
C779 C 0.01788 0.64579 0.09089 0.0
C780 C 0.0041 0.54366 0.08867 0.0
C781 C 0.03578 0.54404 0.08307 0.0
C782 C 0.9774 0.51009 0.09504 0.0
C783 C 0.94451 0.50876 0.10165 0.0
C784 C 0.95142 0.53754 0.11009 0.0
C785 C 0.92028 0.53641 0.11619 0.0
C786 C 0.8821 0.50643 0.114 0.0
C787 C 0.87499 0.47747 0.10572 0.0
C788 C 0.90603 0.47852 0.09958 0.0
C789 C 0.06266 0.41932 0.09825 0.0
C790 C 0.03456 0.38121 0.09477 0.0
C791 C 0.05586 0.45042 0.09674 0.0
C792 C 0.02087 0.44431 0.09168 0.0
C793 C 0.99223 0.40619 0.08843 0.0
C794 C 0.99908 0.37487 0.08991 0.0
C795 C 0.01447 0.47794 0.08991 0.0
C796 C 0.98272 0.47756 0.09547 0.0
C797 C 0.04114 0.51149 0.08352 0.0
C798 C 0.07413 0.51287 0.07695 0.0
C799 C 0.06743 0.48364 0.0687 0.0
C800 C 0.09865 0.48486 0.06263 0.0
C801 C 0.13671 0.51533 0.06466 0.0
C802 C 0.14361 0.5447 0.07275 0.0
C803 C 0.11249 0.54359 0.07887 0.0
H804 H 0.16084 0.51623 0.05995 0.0
H805 H 0.85802 0.5056 0.11873 0.0
H806 H 0.67232 0.08687 0.42649 0.0
H807 H 0.6053 0.0731 0.42535 0.0
H808 H 0.56473 0.94986 0.42228 0.0
H809 H 0.63265 0.96358 0.42323 0.0
H810 H 0.52616 0.97307 0.40714 0.0
H811 H 0.55671 0.98697 0.44808 0.0
H812 H 0.59553 0.01839 0.46589 0.0
H813 H 0.58269 0.11866 0.45999 0.0
H814 H 0.54424 0.08807 0.44204 0.0
H815 H 0.3297 0.90919 0.42211 0.0
H816 H 0.3967 0.92274 0.42096 0.0
H817 H 0.4385 0.04629 0.42381 0.0
H818 H 0.37083 0.03282 0.42513 0.0
H819 H 0.47629 0.02246 0.43881 0.0
H820 H 0.44296 0.00581 0.39786 0.0
H821 H 0.40257 0.97197 0.3805 0.0
H822 H 0.41894 0.87407 0.38688 0.0
H823 H 0.4589 0.90702 0.40438 0.0
C824 C 0.6493 0.05673 0.42558 0.0
C825 C 0.65789 0.02624 0.42505 0.0
C826 C 0.61088 0.04893 0.42496 0.0
C827 C 0.57992 0.01043 0.42393 0.0
C828 C 0.58823 0.97982 0.42313 0.0
C829 C 0.62697 0.98765 0.42371 0.0
C830 C 0.53908 0.00269 0.42382 0.0
C831 C 0.51501 0.98334 0.41414 0.0
C832 C 0.52487 0.0169 0.43283 0.0
C833 C 0.54789 0.03536 0.44365 0.0
C834 C 0.56242 0.01585 0.45052 0.0
C835 C 0.58431 0.03349 0.46066 0.0
C836 C 0.59165 0.07053 0.46405 0.0
C837 C 0.57702 0.08998 0.45734 0.0
C838 C 0.55514 0.07249 0.44719 0.0
C839 C 0.35302 0.93935 0.42241 0.0
C840 C 0.3449 0.96997 0.42375 0.0
C841 C 0.39139 0.94703 0.42167 0.0
C842 C 0.42263 0.98552 0.42217 0.0
C843 C 0.41476 0.01633 0.42336 0.0
C844 C 0.37615 0.00865 0.42408 0.0
C845 C 0.46338 0.99308 0.42209 0.0
C846 C 0.48744 0.01232 0.43177 0.0
C847 C 0.47738 0.97847 0.41312 0.0
C848 C 0.45369 0.95879 0.4025 0.0
C849 C 0.43772 0.97695 0.39562 0.0
C850 C 0.41493 0.95793 0.38574 0.0
C851 C 0.40813 0.92086 0.38261 0.0
C852 C 0.42421 0.90277 0.38932 0.0
C853 C 0.44696 0.92162 0.39921 0.0
H854 H 0.39049 0.90616 0.37497 0.0
H855 H 0.6086 0.08414 0.4719 0.0
H856 H 0.42511 0.33886 0.7636 0.0
H857 H 0.47731 0.40602 0.76156 0.0
H858 H 0.39304 0.44159 0.75344 0.0
H859 H 0.33988 0.37342 0.75531 0.0
H860 H 0.45723 0.47671 0.739 0.0
H861 H 0.43442 0.46006 0.78021 0.0
H862 H 0.4246 0.42776 0.7994 0.0
H863 H 0.53922 0.44141 0.7976 0.0
H864 H 0.54952 0.47331 0.77831 0.0
H865 H 0.58876 0.67837 0.74898 0.0
H866 H 0.53509 0.61127 0.74899 0.0
H867 H 0.61515 0.57096 0.75788 0.0
H868 H 0.66945 0.63877 0.75812 0.0
H869 H 0.55165 0.53881 0.77181 0.0
H870 H 0.57391 0.55657 0.73029 0.0
H871 H 0.58336 0.59127 0.71155 0.0
H872 H 0.46892 0.57759 0.7143 0.0
H873 H 0.45898 0.54327 0.73315 0.0
C874 C 0.41738 0.36079 0.76139 0.0
C875 C 0.37816 0.35071 0.7597 0.0
C876 C 0.44742 0.39932 0.76026 0.0
C877 C 0.43912 0.42897 0.75752 0.0
C878 C 0.40007 0.41914 0.75561 0.0
C879 C 0.36975 0.38027 0.75673 0.0
C880 C 0.47161 0.47006 0.75678 0.0
C881 C 0.47755 0.49055 0.74623 0.0
C882 C 0.49861 0.48782 0.76613 0.0
C883 C 0.4926 0.46879 0.77776 0.0
C884 C 0.45742 0.45591 0.78386 0.0
C885 C 0.45179 0.43772 0.79477 0.0
C886 C 0.48123 0.43246 0.7997 0.0
C887 C 0.51642 0.44547 0.79376 0.0
C888 C 0.52219 0.46365 0.78285 0.0
C889 C 0.5952 0.65531 0.75083 0.0
C890 C 0.63346 0.66397 0.75358 0.0
C891 C 0.56438 0.61683 0.75076 0.0
C892 C 0.57106 0.58598 0.75332 0.0
C893 C 0.60935 0.59435 0.75584 0.0
C894 C 0.64037 0.63304 0.75592 0.0
C895 C 0.53763 0.54535 0.75399 0.0
C896 C 0.53142 0.52498 0.76456 0.0
C897 C 0.51032 0.5279 0.74468 0.0
C898 C 0.51583 0.54761 0.73319 0.0
C899 C 0.55083 0.56112 0.72693 0.0
C900 C 0.55627 0.58071 0.71628 0.0
C901 C 0.52681 0.58673 0.71175 0.0
C902 C 0.49174 0.57295 0.71783 0.0
C903 C 0.48616 0.55337 0.72848 0.0
H904 H 0.53113 0.60202 0.70353 0.0
H905 H 0.47682 0.41836 0.80815 0.0
H906 H 0.31956 0.96656 0.60586 0.0
H907 H 0.3718 0.94998 0.6059 0.0
H908 H 0.45832 0.0726 0.60638 0.0
H909 H 0.40692 0.08921 0.60619 0.0
H910 H 0.47617 0.03638 0.59028 0.0
H911 H 0.43828 0.01464 0.63086 0.0
H912 H 0.39259 0.98547 0.64736 0.0
H913 H 0.36624 0.87088 0.63636 0.0
H914 H 0.41142 0.89936 0.61969 0.0
H915 H 0.64685 0.02494 0.60336 0.0
H916 H 0.59298 0.03874 0.60509 0.0
H917 H 0.5096 0.91566 0.60211 0.0
H918 H 0.56282 0.9017 0.60038 0.0
H919 H 0.48938 0.95041 0.61939 0.0
H920 H 0.52734 0.97231 0.57889 0.0
H921 H 0.57342 1.00148 0.56248 0.0
H922 H 0.5997 0.11609 0.57345 0.0
H923 H 0.55417 0.0876 0.59005 0.0
C924 C 0.34973 0.98988 0.60608 0.0
C925 C 0.359 0.02917 0.60597 0.0
C926 C 0.37957 0.98042 0.60612 0.0
C927 C 0.41909 0.01009 0.60615 0.0
C928 C 0.42816 0.04919 0.60627 0.0
C929 C 0.39858 0.05861 0.60619 0.0
C930 C 0.45136 1.001 0.60569 0.0
C931 C 0.47926 0.01795 0.59675 0.0
C932 C 0.45506 0.97628 0.61395 0.0
C933 C 0.42789 0.9591 0.62395 0.0
C934 C 0.42248 0.9832 0.6319 0.0
C935 C 0.39673 0.96679 0.6413 0.0
C936 C 0.37644 0.92634 0.64289 0.0
C937 C 0.38193 0.90221 0.6351 0.0
C938 C 0.40762 0.91846 0.62568 0.0
C939 C 0.61704 1.00087 0.60313 0.0
C940 C 0.60916 0.96229 0.60166 0.0
C941 C 0.5863 0.00876 0.60408 0.0
C942 C 0.54723 0.9782 0.60365 0.0
C943 C 0.53944 0.93967 0.60248 0.0
C944 C 0.57001 0.93182 0.60142 0.0
C945 C 0.51429 0.9862 0.60408 0.0
C946 C 0.48625 0.96891 0.61296 0.0
C947 C 0.51043 0.01066 0.59578 0.0
C948 C 0.53767 0.02785 0.58578 0.0
C949 C 0.54319 0.00375 0.57787 0.0
C950 C 0.56916 0.02016 0.56852 0.0
C951 C 0.58956 0.06062 0.56695 0.0
C952 C 0.58393 0.08475 0.5747 0.0
C953 C 0.55803 0.06849 0.58407 0.0
H954 H 0.60965 0.07327 0.55971 0.0
H955 H 0.35652 0.91369 0.65017 0.0
H956 H 0.3785 0.34387 0.93913 0.0
H957 H 0.44483 0.4007 0.93999 0.0
H958 H 0.39687 0.47669 0.94464 0.0
H959 H 0.33112 0.42062 0.94363 0.0
H960 H 0.45086 0.50529 0.9284 0.0
H961 H 0.4418 0.45633 0.96735 0.0
H962 H 0.43017 0.40706 0.98245 0.0
H963 H 0.52327 0.39332 0.96848 0.0
H964 H 0.53513 0.44215 0.9532 0.0
H965 H 0.63496 0.67799 0.93983 0.0
H966 H 0.56775 0.62371 0.94233 0.0
H967 H 0.60745 0.54108 0.93727 0.0
H968 H 0.67397 0.59448 0.93497 0.0
H969 H 0.55671 0.51779 0.95474 0.0
H970 H 0.56261 0.56407 0.91509 0.0
H971 H 0.57396 0.61344 0.90004 0.0
H972 H 0.48611 0.6324 0.91562 0.0
H973 H 0.4746 0.58345 0.93085 0.0
C974 C 0.38218 0.37265 0.94046 0.0
C975 C 0.34947 0.37765 0.94126 0.0
C976 C 0.4201 0.40514 0.94097 0.0
C977 C 0.42594 0.44311 0.9424 0.0
C978 C 0.39325 0.44785 0.94346 0.0
C979 C 0.35557 0.41561 0.94291 0.0
C980 C 0.46585 0.47819 0.94232 0.0
C981 C 0.47381 0.50822 0.93429 0.0
C982 C 0.4961 0.48196 0.94987 0.0
C983 C 0.4891 0.45263 0.95906 0.0
C984 C 0.45959 0.44258 0.96744 0.0
C985 C 0.453 0.41477 0.97604 0.0
C986 C 0.4759 0.39699 0.9764 0.0
C987 C 0.50552 0.40707 0.96818 0.0
C988 C 0.51222 0.43484 0.95955 0.0
C989 C 0.6293 0.64825 0.9393 0.0
C990 C 0.65989 0.64069 0.93714 0.0
C991 C 0.59088 0.61723 0.9407 0.0
C992 C 0.58242 0.57819 0.9399 0.0
C993 C 0.61311 0.57081 0.93796 0.0
C994 C 0.65125 0.60157 0.93658 0.0
C995 C 0.54171 0.54468 0.94076 0.0
C996 C 0.53363 0.51493 0.94891 0.0
C997 C 0.51129 0.54117 0.93335 0.0
C998 C 0.51807 0.57044 0.92417 0.0
C999 C 0.54593 0.57898 0.91535 0.0
C1000 C 0.55235 0.60685 0.90678 0.0
C1001 C 0.53085 0.62613 0.9069 0.0
C1002 C 0.5028 0.6175 0.91556 0.0
C1003 C 0.49629 0.58968 0.92415 0.0
H1004 H 0.53586 0.64769 0.90026 0.0
H1005 H 0.47075 0.37548 0.98307 0.0
H1006 H 0.10812 0.6713 0.27147 0.0
H1007 H 0.09427 0.60411 0.27229 0.0
H1008 H 0.97069 0.56316 0.27274 0.0
H1009 H 0.98435 0.63106 0.27189 0.0
H1010 H 0.99424 0.5243 0.28886 0.0
H1011 H 0.00898 0.55743 0.24811 0.0
H1012 H 0.04145 0.59789 0.23078 0.0
H1013 H 0.1409 0.58363 0.23674 0.0
H1014 H 0.10927 0.54359 0.25423 0.0
H1015 H 0.92521 0.32882 0.27216 0.0
H1016 H 0.94143 0.39665 0.27343 0.0
H1017 H 0.06408 0.43383 0.27168 0.0
H1018 H 0.04793 0.36516 0.27035 0.0
H1019 H 0.04255 0.47522 0.25665 0.0
H1020 H 0.02652 0.44009 0.29716 0.0
H1021 H 0.99365 0.39968 0.31446 0.0
H1022 H 0.89609 0.41732 0.30892 0.0
H1023 H 0.92813 0.45737 0.29147 0.0
C1024 C 0.0779 0.64816 0.27179 0.0
C1025 C 0.04728 0.65661 0.27153 0.0
C1026 C 0.07009 0.60968 0.27223 0.0
C1027 C 0.0315 0.57864 0.27243 0.0
C1028 C 1.00072 0.58679 0.27255 0.0
C1029 C 0.00854 0.62552 0.27204 0.0
C1030 C 0.02375 0.53782 0.27225 0.0
C1031 C 0.00428 0.51333 0.28175 0.0
C1032 C 0.03788 0.52397 0.26311 0.0
C1033 C 0.0569 0.54783 0.25255 0.0
C1034 C 0.03791 0.5632 0.24578 0.0
C1035 C 0.05614 0.58601 0.23592 0.0
C1036 C 0.09325 0.5934 0.23268 0.0
C1037 C 0.11217 0.57791 0.23927 0.0
C1038 C 0.09409 0.55514 0.24916 0.0
C1039 C 0.95574 0.35127 0.27208 0.0
C1040 C 0.98533 0.34152 0.27114 0.0
C1041 C 0.96493 0.39013 0.27288 0.0
C1042 C 0.00394 0.42032 0.27277 0.0
C1043 C 0.03374 0.4109 0.27182 0.0
C1044 C 0.02452 0.37173 0.2711 0.0
C1045 C 0.01298 0.46157 0.27327 0.0
C1046 C 0.03265 0.48618 0.2638 0.0
C1047 C 0.99895 0.47547 0.28243 0.0
C1048 C 0.9796 0.45147 0.29294 0.0
C1049 C 0.99792 0.43509 0.29957 0.0
C1050 C 0.97946 0.4123 0.30942 0.0
C1051 C 0.94277 0.40586 0.31277 0.0
C1052 C 0.9245 0.4223 0.3063 0.0
C1053 C 0.94282 0.44508 0.29644 0.0
H1054 H 0.92853 0.38821 0.3204 0.0
H1055 H 0.10732 0.61106 0.22504 0.0
H1056 H 0.97101 0.14027 0.09309 0.0
H1057 H 0.95585 0.07193 0.09304 0.0
H1058 H 0.07155 0.10809 0.08029 0.0
H1059 H 0.08657 0.17578 0.08016 0.0
H1060 H 0.01919 0.04074 0.0701 0.0
H1061 H 0.05102 0.09321 0.10943 0.0
H1062 H 0.04355 0.12457 0.12718 0.0
H1063 H 0.92553 0.03065 0.13101 0.0
H1064 H 0.93215 0.999 0.11318 0.0
H1065 H 0.03573 0.87553 0.08781 0.0
H1066 H 0.04736 0.94238 0.08557 0.0
H1067 H 0.93216 0.90542 0.09892 0.0
H1068 H 0.9207 0.83949 0.10136 0.0
H1069 H 0.98325 0.9728 0.10846 0.0
H1070 H 0.95314 0.91795 0.06959 0.0
H1071 H 0.96208 0.88647 0.05213 0.0
H1072 H 0.077 0.98479 0.04726 0.0
H1073 H 0.06932 0.01637 0.06492 0.0
C1074 C 0.99289 0.1335 0.09008 0.0
C1075 C 0.03011 0.16349 0.08675 0.0
C1076 C 0.98431 0.09449 0.09012 0.0
C1077 C 0.01282 0.08494 0.08684 0.0
C1078 C 0.04913 0.11466 0.08289 0.0
C1079 C 0.05771 0.15346 0.08288 0.0
C1080 C 0.00616 0.04462 0.08821 0.0
C1081 C 0.01157 0.02595 0.0785 0.0
C1082 C 0.99587 0.02513 0.09915 0.0
C1083 C 0.99194 0.04397 0.10991 0.0
C1084 C 0.02339 0.0794 0.11402 0.0
C1085 C 0.01933 0.0972 0.12409 0.0
C1086 C 0.98405 0.07967 0.1302 0.0
C1087 C 0.95281 0.04423 0.12626 0.0
C1088 C 0.95671 0.02634 0.11617 0.0
C1089 C 0.01306 0.8818 0.09033 0.0
C1090 C 0.97729 0.85211 0.09473 0.0
C1091 C 0.01962 0.91993 0.08898 0.0
C1092 C 0.99043 0.92886 0.09197 0.0
C1093 C 0.95511 0.89934 0.09656 0.0
C1094 C 0.9486 0.86151 0.09791 0.0
C1095 C 0.99613 0.96873 0.09034 0.0
C1096 C 0.99065 0.9874 0.10003 0.0
C1097 C 0.00638 0.98815 0.07938 0.0
C1098 C 0.01081 0.96936 0.06867 0.0
C1099 C 0.98046 0.93274 0.06486 0.0
C1100 C 0.98527 0.91489 0.05492 0.0
C1101 C 0.02002 0.93364 0.04858 0.0
C1102 C 0.05009 0.97028 0.05218 0.0
C1103 C 0.04556 0.98814 0.06218 0.0
H1104 H 0.02363 0.91978 0.04087 0.0
H1105 H 0.98096 0.0935 0.138 0.0
H1106 H 0.83592 0.96486 0.4255 0.0
H1107 H 0.8894 0.95017 0.42571 0.0
H1108 H 0.9691 0.0667 0.41351 0.0
H1109 H 0.91616 0.08135 0.41318 0.0
H1110 H 0.98352 0.01359 0.40309 0.0
H1111 H 0.96322 0.04605 0.44228 0.0
H1112 H 0.92405 0.03862 0.45988 0.0
H1113 H 0.90014 0.92072 0.46404 0.0
H1114 H 0.93871 0.92728 0.44635 0.0
H1115 H 0.16503 0.02964 0.42073 0.0
H1116 H 0.10989 0.04132 0.4184 0.0
H1117 H 0.03179 0.92676 0.43228 0.0
H1118 H 0.08621 0.91523 0.43481 0.0
H1119 H 0.01594 0.97816 0.44159 0.0
H1120 H 0.03713 0.94563 0.40268 0.0
H1121 H 0.07539 0.95238 0.38493 0.0
H1122 H 0.09711 0.06929 0.38008 0.0
H1123 H 0.0594 0.06342 0.39792 0.0
C1124 C 0.8647 0.98703 0.42267 0.0
C1125 C 0.87191 0.02435 0.41944 0.0
C1126 C 0.89525 0.97872 0.42285 0.0
C1127 C 0.93337 0.00757 0.41978 0.0
C1128 C 0.94002 0.04404 0.41595 0.0
C1129 C 0.90969 0.0524 0.41582 0.0
C1130 C 0.96699 1.00099 0.42123 0.0
C1131 C 0.99081 0.00612 0.41152 0.0
C1132 C 0.97624 0.99083 0.4322 0.0
C1133 C 0.9535 0.98702 0.44293 0.0
C1134 C 0.94939 0.01845 0.4469 0.0
C1135 C 0.92732 0.01441 0.4569 0.0
C1136 C 0.90952 0.97918 0.46306 0.0
C1137 C 0.91388 0.94797 0.45925 0.0
C1138 C 0.93586 0.95184 0.44925 0.0
C1139 C 0.13612 0.00709 0.42332 0.0
C1140 C 0.13007 0.9715 0.42792 0.0
C1141 C 0.10461 0.01368 0.42193 0.0
C1142 C 0.06657 0.98471 0.42506 0.0
C1143 C 0.06077 0.94954 0.42981 0.0
C1144 C 0.09205 0.94299 0.43121 0.0
C1145 C 0.03252 0.99058 0.42343 0.0
C1146 C 0.00864 0.98546 0.43313 0.0
C1147 C 0.02321 1.00066 0.41244 0.0
C1148 C 0.0458 0.00423 0.4017 0.0
C1149 C 0.05033 0.97289 0.39788 0.0
C1150 C 0.07187 0.97654 0.3878 0.0
C1151 C 0.08877 0.01128 0.3814 0.0
C1152 C 0.08406 0.04242 0.38506 0.0
C1153 C 0.06259 0.03894 0.39515 0.0
H1154 H 0.10542 0.01405 0.37359 0.0
H1155 H 0.89243 0.9761 0.47079 0.0
H1156 H 0.17861 0.08638 0.75417 0.0
H1157 H 0.1111 0.03362 0.75287 0.0
H1158 H 0.07143 0.11683 0.7563 0.0
H1159 H 0.13958 0.1703 0.75768 0.0
H1160 H 0.03415 0.05513 0.77136 0.0
H1161 H 0.06285 0.07216 0.73044 0.0
H1162 H 0.09998 0.0787 0.71245 0.0
H1163 H 0.08346 0.96385 0.71763 0.0
H1164 H 0.04676 0.95683 0.73578 0.0
H1165 H 0.83646 0.92499 0.75964 0.0
H1166 H 0.9036 0.97778 0.75821 0.0
H1167 H 0.9427 0.89409 0.75492 0.0
H1168 H 0.87464 0.84033 0.7562 0.0
H1169 H 0.98026 0.95595 0.73951 0.0
H1170 H 0.95324 0.93971 0.78067 0.0
H1171 H 0.91579 0.93296 0.79861 0.0
H1172 H 0.92968 0.0466 0.79296 0.0
H1173 H 0.96675 0.05381 0.77488 0.0
C1174 C 0.15561 0.09364 0.75455 0.0
C1175 C 0.16444 0.13255 0.75608 0.0
C1176 C 0.11697 0.06337 0.75373 0.0
C1177 C 0.08619 0.07124 0.75441 0.0
C1178 C 0.0948 0.11015 0.75573 0.0
C1179 C 0.13368 0.14065 0.75646 0.0
C1180 C 0.04519 0.03842 0.75445 0.0
C1181 C 0.02213 0.03385 0.76429 0.0
C1182 C 0.03 0.0099 0.74541 0.0
C1183 C 0.05227 0.01409 0.73453 0.0
C1184 C 0.06742 0.04842 0.72781 0.0
C1185 C 0.08831 0.05218 0.71756 0.0
C1186 C 0.09399 0.02168 0.71389 0.0
C1187 C 0.07893 0.98741 0.72048 0.0
C1188 C 0.05807 0.98352 0.73074 0.0
C1189 C 0.85917 0.91753 0.75862 0.0
C1190 C 0.85013 0.8783 0.75814 0.0
C1191 C 0.89767 0.94791 0.75782 0.0
C1192 C 0.92827 0.93995 0.75665 0.0
C1193 C 0.91948 0.90086 0.75588 0.0
C1194 C 0.88066 0.87021 0.75664 0.0
C1195 C 0.96926 0.9728 0.7564 0.0
C1196 C 0.99231 0.97731 0.74655 0.0
C1197 C 0.98457 1.00129 0.76544 0.0
C1198 C 0.96249 0.99715 0.77636 0.0
C1199 C 0.94806 0.96315 0.7832 0.0
C1200 C 0.92694 0.95925 0.79341 0.0
C1201 C 0.92029 0.98929 0.79691 0.0
C1202 C 0.93483 0.02334 0.79023 0.0
C1203 C 0.95593 0.02736 0.78001 0.0
H1204 H 0.90393 0.98622 0.80482 0.0
H1205 H 0.11008 0.02461 0.70593 0.0
H1206 H 0.85181 0.03188 0.6008 0.0
H1207 H 0.92073 0.04913 0.6009 0.0
H1208 H 0.89027 0.94206 0.61912 0.0
H1209 H 0.82205 0.92525 0.6193 0.0
H1210 H 0.95868 0.99874 0.62688 0.0
H1211 H 0.89922 0.94911 0.58885 0.0
H1212 H 0.86441 0.94841 0.57075 0.0
H1213 H 0.95592 0.06451 0.56261 0.0
H1214 H 0.99102 0.06607 0.58075 0.0
H1215 H 0.12265 0.97791 0.61132 0.0
H1216 H 0.05634 0.96711 0.614 0.0
H1217 H 0.08728 0.07178 0.59432 0.0
H1218 H 0.15246 0.08196 0.59133 0.0
H1219 H 0.0191 0.01786 0.58762 0.0
H1220 H 0.08036 0.06701 0.62517 0.0
H1221 H 0.1154 0.06802 0.64324 0.0
H1222 H 0.02158 0.95416 0.65238 0.0
H1223 H 0.98622 0.95225 0.63426 0.0
C1224 C 0.86 0.0125 0.60505 0.0
C1225 C 0.83139 0.97695 0.60988 0.0
C1226 C 0.89934 0.02221 0.60502 0.0
C1227 C 0.91062 0.99644 0.60979 0.0
C1228 C 0.88238 0.9623 0.61532 0.0
C1229 C 0.84326 0.95264 0.61535 0.0
C1230 C 0.951 0.00328 0.60834 0.0
C1231 C 0.97182 0.00269 0.61829 0.0
C1232 C 0.96846 0.0089 0.59716 0.0
C1233 C 0.94752 0.00785 0.58621 0.0
C1234 C 0.91178 0.97457 0.58324 0.0
C1235 C 0.89202 0.97401 0.57297 0.0
C1236 C 0.90789 0.00644 0.56555 0.0
C1237 C 0.94362 0.03945 0.56837 0.0
C1238 C 0.96347 0.04018 0.57864 0.0
C1239 C 0.11516 0.99844 0.60753 0.0
C1240 C 0.14292 0.03076 0.60111 0.0
C1241 C 0.07735 0.99243 0.60913 0.0
C1242 C 0.06683 0.01893 0.60449 0.0
C1243 C 0.09449 0.05088 0.59799 0.0
C1244 C 0.13193 0.05667 0.5963 0.0
C1245 C 0.02706 0.01358 0.60617 0.0
C1246 C 0.00621 0.01423 0.59624 0.0
C1247 C 0.00971 0.00814 0.61738 0.0
C1248 C 0.03083 0.00933 0.6283 0.0
C1249 C 0.06733 0.04207 0.63099 0.0
C1250 C 0.08723 0.04282 0.64125 0.0
C1251 C 0.07077 0.01113 0.64894 0.0
C1252 C 0.03433 0.97867 0.6464 0.0
C1253 C 0.01433 0.97774 0.63615 0.0
H1254 H 0.08622 0.01177 0.65688 0.0
H1255 H 0.89254 0.00595 0.55761 0.0
H1256 H 0.85499 0.86925 0.94708 0.0
H1257 H 0.91876 0.92871 0.94963 0.0
H1258 H 0.93466 0.93685 0.91214 0.0
H1259 H 0.87102 0.87816 0.90948 0.0
H1260 H 0.99834 0.94035 0.92514 0.0
H1261 H 0.91617 0.99887 0.92478 0.0
H1262 H 0.86212 0.00772 0.93172 0.0
H1263 H 0.91403 0.03752 0.96608 0.0
H1264 H 0.96815 0.0283 0.95938 0.0
H1265 H 0.15505 0.12777 0.91292 0.0
H1266 H 0.09417 0.06598 0.91477 0.0
H1267 H 0.09078 0.08772 0.95172 0.0
H1268 H 0.15184 0.1503 0.94988 0.0
H1269 H 0.0218 0.06632 0.94177 0.0
H1270 H 0.10672 0.01449 0.94233 0.0
H1271 H 0.16097 0.00482 0.93617 0.0
H1272 H 0.10486 0.96055 0.90285 0.0
H1273 H 0.0505 0.97048 0.90873 0.0
C1274 C 0.87175 0.88409 0.93936 0.0
C1275 C 0.85777 0.86885 0.92807 0.0
C1276 C 0.90825 0.91801 0.94084 0.0
C1277 C 0.93159 0.93706 0.93107 0.0
C1278 C 0.91725 0.92251 0.9198 0.0
C1279 C 0.88065 0.88904 0.91831 0.0
C1280 C 0.97158 0.97133 0.93251 0.0
C1281 C 0.00351 0.96802 0.92869 0.0
C1282 C 0.97843 0.00689 0.93758 0.0
C1283 C 0.94593 0.01241 0.94162 0.0
C1284 C 0.91585 0.00692 0.93384 0.0
C1285 C 0.88525 0.01209 0.93773 0.0
C1286 C 0.88457 0.02304 0.94934 0.0
C1287 C 0.91455 0.02895 0.95709 0.0
C1288 C 0.9452 0.02378 0.95325 0.0
C1289 C 0.14184 0.11919 0.9215 0.0
C1290 C 0.15843 0.14411 0.93124 0.0
C1291 C 0.10695 0.08366 0.92256 0.0
C1292 C 0.08779 0.07193 0.9334 0.0
C1293 C 0.10495 0.09609 0.94326 0.0
C1294 C 0.14006 0.13173 0.94221 0.0
C1295 C 0.04872 0.03575 0.93413 0.0
C1296 C 0.01688 0.03858 0.93837 0.0
C1297 C 0.04198 0.99952 0.92957 0.0
C1298 C 0.07464 0.99352 0.92595 0.0
C1299 C 0.10608 0.00299 0.93365 0.0
C1300 C 0.13683 0.9974 0.93021 0.0
C1301 C 0.1364 0.98215 0.91912 0.0
C1302 C 0.10516 0.97238 0.91144 0.0
C1303 C 0.07434 0.97794 0.91483 0.0
H1304 H 0.16023 0.97784 0.91647 0.0
H1305 H 0.86087 0.02706 0.95233 0.0
H1306 H 0.09778 0.9163 0.26676 0.0
H1307 H 0.08176 0.96764 0.2693 0.0
H1308 H 0.9613 0.88121 0.27541 0.0
H1309 H 0.97718 0.8289 0.27275 0.0
H1310 H 0.96903 0.93834 0.2601 0.0
H1311 H 0.01843 0.9343 0.29804 0.0
H1312 H 0.06509 0.93314 0.31223 0.0
H1313 H 0.15407 0.04598 0.30042 0.0
H1314 H 0.10811 0.04757 0.28603 0.0
H1315 H 0.91728 0.07679 0.27752 0.0
H1316 H 0.93047 0.02295 0.27821 0.0
H1317 H 0.05267 0.10316 0.27205 0.0
H1318 H 0.03967 0.15783 0.2715 0.0
H1319 H 0.04156 0.04724 0.28832 0.0
H1320 H 0.99381 0.04951 0.24968 0.0
H1321 H 0.94786 0.0507 0.23521 0.0
H1322 H 0.85635 0.94107 0.24821 0.0
H1323 H 0.90164 0.93949 0.26287 0.0
C1324 C 0.0678 0.90793 0.26868 0.0
C1325 C 0.03873 0.86834 0.26957 0.0
C1326 C 0.05876 0.9375 0.27019 0.0
C1327 C 0.02048 0.92838 0.27272 0.0
C1328 C 0.99113 0.8889 0.27353 0.0
C1329 C 1.00022 0.85907 0.27204 0.0
C1330 C 0.01144 0.96043 0.27411 0.0
C1331 C 0.9843 0.96174 0.26643 0.0
C1332 C 0.03221 0.99157 0.28215 0.0
C1333 C 0.05987 0.99091 0.29089 0.0
C1334 C 0.04802 0.95875 0.29841 0.0
C1335 C 0.07434 0.95803 0.3065 0.0
C1336 C 0.11254 0.98944 0.30721 0.0
C1337 C 0.12447 0.02167 0.29986 0.0
C1338 C 0.09828 0.02251 0.29174 0.0
C1339 C 0.94708 0.08319 0.27637 0.0
C1340 C 0.9774 0.12162 0.27432 0.0
C1341 C 0.95453 0.05226 0.27675 0.0
C1342 C 0.99239 0.05884 0.27494 0.0
C1343 C 0.02315 0.09738 0.2734 0.0
C1344 C 0.01572 0.12858 0.27308 0.0
C1345 C 0.99929 0.0252 0.27428 0.0
C1346 C 0.02607 0.02366 0.28206 0.0
C1347 C 0.97825 0.99384 0.26632 0.0
C1348 C 0.95103 0.99458 0.25745 0.0
C1349 C 0.96382 0.0258 0.24951 0.0
C1350 C 0.9379 0.02652 0.24126 0.0
C1351 C 0.89919 0.99603 0.24081 0.0
C1352 C 0.88633 0.96469 0.24858 0.0
C1353 C 0.91212 0.96385 0.25685 0.0
H1354 H 0.87917 0.99665 0.23442 0.0
H1355 H 0.13288 0.98882 0.31348 0.0
loop_
_geom_bond_atom_site_label_1
_geom_bond_atom_site_label_2
_geom_bond_distance
_geom_bond_site_symmetry_2
_ccdc_geom_bond_type
Mg0 O7 2.141 . S
Mg0 O8 2.048 . S
Mg0 O9 2.048 . S
Mg0 O12 2.141 . S
C1 O2 1.313 . S
C1 O8 1.195 . S
O2 C1 1.313 . S
C3 O4 1.245 . S
C3 O12 1.289 . S
O4 C3 1.245 . S
C5 O6 1.245 . S
C5 O7 1.289 . S
O6 C5 1.245 . S
O7 Mg0 2.141 . S
O7 C5 1.289 . S
O8 Mg0 2.048 . S
O8 C1 1.195 . S
O9 Mg0 2.048 . S
O9 C10 1.195 . S
C10 O9 1.195 . S
C10 O11 1.313 . S
O11 C10 1.313 . S
O12 Mg0 2.141 . S
O12 C3 1.289 . S
Mg13 O20 2.141 . S
Mg13 O21 2.048 . S
Mg13 O22 2.048 . S
Mg13 O25 2.141 . S
C14 O15 1.313 . S
C14 O21 1.195 . S
O15 C14 1.313 . S
C16 O17 1.245 . S
C16 O25 1.289 . S
O17 C16 1.245 . S
C18 O19 1.245 . S
C18 O20 1.289 . S
O19 C18 1.245 . S
O20 Mg13 2.141 . S
O20 C18 1.289 . S
O21 Mg13 2.048 . S
O21 C14 1.195 . S
O22 Mg13 2.048 . S
O22 C23 1.195 . S
C23 O22 1.195 . S
C23 O24 1.313 . S
O24 C23 1.313 . S
O25 Mg13 2.141 . S
O25 C16 1.289 . S
Mg26 O33 2.141 . S
Mg26 O34 2.048 . S
Mg26 O35 2.048 . S
Mg26 O38 2.141 . S
C27 O28 1.313 . S
C27 O34 1.195 . S
O28 C27 1.313 . S
C29 O30 1.245 . S
C29 O38 1.289 . S
O30 C29 1.245 . S
C31 O32 1.245 . S
C31 O33 1.289 . S
O32 C31 1.245 . S
O33 Mg26 2.141 . S
O33 C31 1.289 . S
O34 Mg26 2.048 . S
O34 C27 1.195 . S
O35 Mg26 2.048 . S
O35 C36 1.195 . S
C36 O35 1.195 . S
C36 O37 1.313 . S
O37 C36 1.313 . S
O38 Mg26 2.141 . S
O38 C29 1.289 . S
Mg39 O46 2.141 . S
Mg39 O47 2.048 . S
Mg39 O48 2.048 . S
Mg39 O51 2.141 . S
C40 O41 1.313 . S
C40 O47 1.195 . S
O41 C40 1.313 . S
C42 O43 1.245 . S
C42 O51 1.289 . S
O43 C42 1.245 . S
C44 O45 1.245 . S
C44 O46 1.289 . S
O45 C44 1.245 . S
O46 Mg39 2.141 . S
O46 C44 1.289 . S
O47 Mg39 2.048 . S
O47 C40 1.195 . S
O48 Mg39 2.048 . S
O48 C49 1.195 . S
C49 O48 1.195 . S
C49 O50 1.313 . S
O50 C49 1.313 . S
O51 Mg39 2.141 . S
O51 C42 1.289 . S
Mg52 O59 2.141 . S
Mg52 O60 2.048 . S
Mg52 O61 2.048 . S
Mg52 O64 2.141 . S
C53 O54 1.313 . S
C53 O60 1.195 . S
O54 C53 1.313 . S
C55 O56 1.245 . S
C55 O64 1.289 . S
O56 C55 1.245 . S
C57 O58 1.245 . S
C57 O59 1.289 . S
O58 C57 1.245 . S
O59 Mg52 2.141 . S
O59 C57 1.289 . S
O60 Mg52 2.048 . S
O60 C53 1.195 . S
O61 Mg52 2.048 . S
O61 C62 1.195 . S
C62 O61 1.195 . S
C62 O63 1.313 . S
O63 C62 1.313 . S
O64 Mg52 2.141 . S
O64 C55 1.289 . S
Mg65 O72 2.141 . S
Mg65 O73 2.048 . S
Mg65 O74 2.048 . S
Mg65 O77 2.141 . S
C66 O67 1.313 . S
C66 O73 1.195 . S
O67 C66 1.313 . S
C68 O69 1.245 . S
C68 O77 1.289 . S
O69 C68 1.245 . S
C70 O71 1.245 . S
C70 O72 1.289 . S
O71 C70 1.245 . S
O72 Mg65 2.141 . S
O72 C70 1.289 . S
O73 Mg65 2.048 . S
O73 C66 1.195 . S
O74 Mg65 2.048 . S
O74 C75 1.195 . S
C75 O74 1.195 . S
C75 O76 1.313 . S
O76 C75 1.313 . S
O77 Mg65 2.141 . S
O77 C68 1.289 . S
Mg78 O85 2.141 . S
Mg78 O86 2.048 . S
Mg78 O87 2.048 . S
Mg78 O90 2.141 . S
C79 O80 1.313 . S
C79 O86 1.195 . S
O80 C79 1.313 . S
C81 O82 1.245 . S
C81 O90 1.289 . S
O82 C81 1.245 . S
C83 O84 1.245 . S
C83 O85 1.289 . S
O84 C83 1.245 . S
O85 Mg78 2.141 . S
O85 C83 1.289 . S
O86 Mg78 2.048 . S
O86 C79 1.195 . S
O87 Mg78 2.048 . S
O87 C88 1.195 . S
C88 O87 1.195 . S
C88 O89 1.313 . S
O89 C88 1.313 . S
O90 Mg78 2.141 . S
O90 C81 1.289 . S
Mg91 O98 2.141 . S
Mg91 O99 2.048 . S
Mg91 O100 2.048 . S
Mg91 O103 2.141 . S
C92 O93 1.313 . S
C92 O99 1.195 . S
O93 C92 1.313 . S
C94 O95 1.245 . S
C94 O103 1.289 . S
O95 C94 1.245 . S
C96 O97 1.245 . S
C96 O98 1.289 . S
O97 C96 1.245 . S
O98 Mg91 2.141 . S
O98 C96 1.289 . S
O99 Mg91 2.048 . S
O99 C92 1.195 . S
O100 Mg91 2.048 . S
O100 C101 1.195 . S
C101 O100 1.195 . S
C101 O102 1.313 . S
O102 C101 1.313 . S
O103 Mg91 2.141 . S
O103 C94 1.289 . S
Mg104 O111 2.141 . S
Mg104 O112 2.048 . S
Mg104 O113 2.048 . S
Mg104 O116 2.141 . S
C105 O106 1.313 . S
C105 O112 1.195 . S
O106 C105 1.313 . S
C107 O108 1.245 . S
C107 O116 1.289 . S
O108 C107 1.245 . S
C109 O110 1.245 . S
C109 O111 1.289 . S
O110 C109 1.245 . S
O111 Mg104 2.141 . S
O111 C109 1.289 . S
O112 Mg104 2.048 . S
O112 C105 1.195 . S
O113 Mg104 2.048 . S
O113 C114 1.195 . S
C114 O113 1.195 . S
C114 O115 1.313 . S
O115 C114 1.313 . S
O116 Mg104 2.141 . S
O116 C107 1.289 . S
Mg117 O124 2.141 . S
Mg117 O125 2.048 . S
Mg117 O126 2.048 . S
Mg117 O129 2.141 . S
C118 O119 1.313 . S
C118 O125 1.195 . S
O119 C118 1.313 . S
C120 O121 1.245 . S
C120 O129 1.289 . S
O121 C120 1.245 . S
C122 O123 1.245 . S
C122 O124 1.289 . S
O123 C122 1.245 . S
O124 Mg117 2.141 . S
O124 C122 1.289 . S
O125 Mg117 2.048 . S
O125 C118 1.195 . S
O126 Mg117 2.048 . S
O126 C127 1.195 . S
C127 O126 1.195 . S
C127 O128 1.313 . S
O128 C127 1.313 . S
O129 Mg117 2.141 . S
O129 C120 1.289 . S
Mg130 O137 2.141 . S
Mg130 O138 2.048 . S
Mg130 O139 2.048 . S
Mg130 O142 2.141 . S
C131 O132 1.313 . S
C131 O138 1.195 . S
O132 C131 1.313 . S
C133 O134 1.245 . S
C133 O142 1.289 . S
O134 C133 1.245 . S
C135 O136 1.245 . S
C135 O137 1.289 . S
O136 C135 1.245 . S
O137 Mg130 2.141 . S
O137 C135 1.289 . S
O138 Mg130 2.048 . S
O138 C131 1.195 . S
O139 Mg130 2.048 . S
O139 C140 1.195 . S
C140 O139 1.195 . S
C140 O141 1.313 . S
O141 C140 1.313 . S
O142 Mg130 2.141 . S
O142 C133 1.289 . S
Mg143 O150 2.141 . S
Mg143 O151 2.048 . S
Mg143 O152 2.048 . S
Mg143 O155 2.141 . S
C144 O145 1.313 . S
C144 O151 1.195 . S
O145 C144 1.313 . S
C146 O147 1.245 . S
C146 O155 1.289 . S
O147 C146 1.245 . S
C148 O149 1.245 . S
C148 O150 1.289 . S
O149 C148 1.245 . S
O150 Mg143 2.141 . S
O150 C148 1.289 . S
O151 Mg143 2.048 . S
O151 C144 1.195 . S
O152 Mg143 2.048 . S
O152 C153 1.195 . S
C153 O152 1.195 . S
C153 O154 1.313 . S
O154 C153 1.313 . S
O155 Mg143 2.141 . S
O155 C146 1.289 . S
H156 C174 0.951 . S
H157 C176 0.951 . S
H158 C178 0.950 . S
H159 C179 0.950 . S
H160 C181 0.950 . S
H161 C184 0.950 . S
H162 C185 0.950 . S
H163 C187 0.950 . S
H164 C188 0.950 . S
H165 C189 0.951 . S
H166 C191 0.951 . S
H167 C193 0.950 . S
H168 C194 0.950 . S
H169 C196 0.950 . S
H170 C199 0.950 . S
H171 C200 0.950 . S
H172 C202 0.950 . S
H173 C203 0.950 . S
C174 H156 0.951 . S
C174 C175 1.366 . S
C174 C176 1.388 . S
C175 C174 1.366 . S
C175 C179 1.385 . S
C176 H157 0.951 . S
C176 C174 1.388 . S
C176 C177 1.366 . S
C177 C176 1.366 . S
C177 C178 1.414 . S
C177 C180 1.499 . S
C178 H158 0.950 . S
C178 C177 1.414 . S
C178 C179 1.374 . S
C179 H159 0.950 . S
C179 C175 1.385 . S
C179 C178 1.374 . S
C180 C177 1.499 . S
C180 C181 1.373 1_655 S
C180 C182 1.389 . S
C181 H160 0.950 . S
C181 C180 1.373 1_455 S
C181 C197 1.377 . S
C182 C180 1.389 . S
C182 C183 1.524 . S
C182 C196 1.377 . S
C183 C182 1.524 . S
C183 C184 1.397 . S
C183 C188 1.363 . S
C184 H161 0.950 . S
C184 C183 1.397 . S
C184 C185 1.334 . S
C185 H162 0.950 . S
C185 C184 1.334 . S
C185 C186 1.287 . S
C186 C185 1.287 . S
C186 C187 1.524 . S
C186 H205 0.913 . S
C187 H163 0.950 . S
C187 C186 1.524 . S
C187 C188 1.415 . S
C188 H164 0.950 . S
C188 C183 1.363 . S
C188 C187 1.415 . S
C189 H165 0.951 . S
C189 C190 1.366 . S
C189 C191 1.388 . S
C190 C189 1.366 . S
C190 C194 1.385 . S
C191 H166 0.951 . S
C191 C189 1.388 . S
C191 C192 1.366 . S
C192 C191 1.366 . S
C192 C193 1.414 . S
C192 C195 1.499 . S
C193 H167 0.950 . S
C193 C192 1.414 . S
C193 C194 1.374 . S
C194 H168 0.950 . S
C194 C190 1.385 . S
C194 C193 1.374 . S
C195 C192 1.499 . S
C195 C196 1.373 1_455 S
C195 C197 1.389 . S
C196 H169 0.950 . S
C196 C182 1.377 . S
C196 C195 1.373 1_655 S
C197 C181 1.377 . S
C197 C195 1.389 . S
C197 C198 1.524 . S
C198 C197 1.524 . S
C198 C199 1.397 . S
C198 C203 1.363 . S
C199 H170 0.950 . S
C199 C198 1.397 . S
C199 C200 1.334 . S
C200 H171 0.950 . S
C200 C199 1.334 . S
C200 C201 1.287 . S
C201 C200 1.287 . S
C201 C202 1.524 . S
C201 H204 0.999 . S
C202 H172 0.950 . S
C202 C201 1.524 . S
C202 C203 1.415 . S
C203 H173 0.950 . S
C203 C198 1.363 . S
C203 C202 1.415 . S
H204 C201 0.999 . S
H205 C186 0.913 . S
H206 C224 0.951 . S
H207 C226 0.951 . S
H208 C228 0.950 . S
H209 C229 0.950 . S
H210 C231 0.950 . S
H211 C234 0.950 . S
H212 C235 0.950 . S
H213 C237 0.950 . S
H214 C238 0.950 . S
H215 C239 0.951 . S
H216 C241 0.951 . S
H217 C243 0.950 . S
H218 C244 0.950 . S
H219 C246 0.950 . S
H220 C249 0.950 . S
H221 C250 0.950 . S
H222 C252 0.950 . S
H223 C253 0.950 . S
C224 H206 0.951 . S
C224 C225 1.366 . S
C224 C226 1.388 . S
C225 C224 1.366 . S
C225 C229 1.385 . S
C226 H207 0.951 . S
C226 C224 1.388 . S
C226 C227 1.366 . S
C227 C226 1.366 . S
C227 C228 1.414 . S
C227 C230 1.499 . S
C228 H208 0.950 . S
C228 C227 1.414 . S
C228 C229 1.374 . S
C229 H209 0.950 . S
C229 C225 1.385 . S
C229 C228 1.374 . S
C230 C227 1.499 . S
C230 C231 1.373 1_545 S
C230 C232 1.389 . S
C231 H210 0.950 . S
C231 C230 1.373 1_565 S
C231 C247 1.377 . S
C232 C230 1.389 . S
C232 C233 1.524 . S
C232 C246 1.377 . S
C233 C232 1.524 . S
C233 C234 1.397 . S
C233 C238 1.363 . S
C234 H211 0.950 . S
C234 C233 1.397 . S
C234 C235 1.334 . S
C235 H212 0.950 . S
C235 C234 1.334 . S
C235 C236 1.287 . S
C236 C235 1.287 . S
C236 C237 1.524 . S
C236 H255 0.913 . S
C237 H213 0.950 . S
C237 C236 1.524 . S
C237 C238 1.415 . S
C238 H214 0.950 . S
C238 C233 1.363 . S
C238 C237 1.415 . S
C239 H215 0.951 . S
C239 C240 1.366 . S
C239 C241 1.388 . S
C240 C239 1.366 . S
C240 C244 1.385 . S
C241 H216 0.951 . S
C241 C239 1.388 . S
C241 C242 1.366 . S
C242 C241 1.366 . S
C242 C243 1.414 . S
C242 C245 1.499 . S
C243 H217 0.950 . S
C243 C242 1.414 . S
C243 C244 1.374 . S
C244 H218 0.950 . S
C244 C240 1.385 . S
C244 C243 1.374 . S
C245 C242 1.499 . S
C245 C246 1.373 1_565 S
C245 C247 1.389 . S
C246 H219 0.950 . S
C246 C232 1.377 . S
C246 C245 1.373 1_545 S
C247 C231 1.377 . S
C247 C245 1.389 . S
C247 C248 1.524 . S
C248 C247 1.524 . S
C248 C249 1.397 . S
C248 C253 1.363 . S
C249 H220 0.950 . S
C249 C248 1.397 . S
C249 C250 1.334 . S
C250 H221 0.950 . S
C250 C249 1.334 . S
C250 C251 1.287 . S
C251 C250 1.287 . S
C251 C252 1.524 . S
C251 H254 0.999 . S
C252 H222 0.950 . S
C252 C251 1.524 . S
C252 C253 1.415 . S
C253 H223 0.950 . S
C253 C248 1.363 . S
C253 C252 1.415 . S
H254 C251 0.999 . S
H255 C236 0.913 . S
H256 C274 0.951 . S
H257 C276 0.951 . S
H258 C278 0.950 . S
H259 C279 0.950 . S
H260 C281 0.950 . S
H261 C284 0.950 . S
H262 C285 0.950 . S
H263 C287 0.950 . S
H264 C288 0.950 . S
H265 C289 0.951 . S
H266 C291 0.951 . S
H267 C293 0.950 . S
H268 C294 0.950 . S
H269 C296 0.950 . S
H270 C299 0.950 . S
H271 C300 0.950 . S
H272 C302 0.950 . S
H273 C303 0.950 . S
C274 H256 0.951 . S
C274 C275 1.366 . S
C274 C276 1.388 . S
C275 C274 1.366 . S
C275 C279 1.385 . S
C276 H257 0.951 . S
C276 C274 1.388 . S
C276 C277 1.366 . S
C277 C276 1.366 . S
C277 C278 1.414 . S
C277 C280 1.499 . S
C278 H258 0.950 . S
C278 C277 1.414 . S
C278 C279 1.374 . S
C279 H259 0.950 . S
C279 C275 1.385 . S
C279 C278 1.374 . S
C280 C277 1.499 . S
C280 C281 1.373 . S
C280 C282 1.389 . S
C281 H260 0.950 . S
C281 C280 1.373 . S
C281 C297 1.377 . S
C282 C280 1.389 . S
C282 C283 1.524 . S
C282 C296 1.377 . S
C283 C282 1.524 . S
C283 C284 1.397 . S
C283 C288 1.363 . S
C284 H261 0.950 . S
C284 C283 1.397 . S
C284 C285 1.334 . S
C285 H262 0.950 . S
C285 C284 1.334 . S
C285 C286 1.287 . S
C286 C285 1.287 . S
C286 C287 1.524 . S
C286 H305 0.913 . S
C287 H263 0.950 . S
C287 C286 1.524 . S
C287 C288 1.415 . S
C288 H264 0.950 . S
C288 C283 1.363 . S
C288 C287 1.415 . S
C289 H265 0.951 . S
C289 C290 1.366 . S
C289 C291 1.388 . S
C290 C289 1.366 . S
C290 C294 1.385 . S
C291 H266 0.951 . S
C291 C289 1.388 . S
C291 C292 1.366 . S
C292 C291 1.366 . S
C292 C293 1.414 . S
C292 C295 1.499 . S
C293 H267 0.950 . S
C293 C292 1.414 . S
C293 C294 1.374 . S
C294 H268 0.950 . S
C294 C290 1.385 . S
C294 C293 1.374 . S
C295 C292 1.499 . S
C295 C296 1.373 . S
C295 C297 1.389 . S
C296 H269 0.950 . S
C296 C282 1.377 . S
C296 C295 1.373 . S
C297 C281 1.377 . S
C297 C295 1.389 . S
C297 C298 1.524 . S
C298 C297 1.524 . S
C298 C299 1.397 . S
C298 C303 1.363 . S
C299 H270 0.950 . S
C299 C298 1.397 . S
C299 C300 1.334 . S
C300 H271 0.950 . S
C300 C299 1.334 . S
C300 C301 1.287 . S
C301 C300 1.287 . S
C301 C302 1.524 . S
C301 H304 0.999 . S
C302 H272 0.950 . S
C302 C301 1.524 . S
C302 C303 1.415 . S
C303 H273 0.950 . S
C303 C298 1.363 . S
C303 C302 1.415 . S
H304 C301 0.999 . S
H305 C286 0.913 . S
H306 C324 0.951 . S
H307 C326 0.951 1_455 S
H308 C328 0.950 . S
H309 C329 0.950 . S
H310 C331 0.950 . S
H311 C334 0.950 . S
H312 C335 0.950 . S
H313 C337 0.950 . S
H314 C338 0.950 . S
H315 C339 0.951 . S
H316 C341 0.951 1_655 S
H317 C343 0.950 . S
H318 C344 0.950 . S
H319 C346 0.950 . S
H320 C349 0.950 . S
H321 C350 0.950 . S
H322 C352 0.950 . S
H323 C353 0.950 . S
C324 H306 0.951 . S
C324 C325 1.366 . S
C324 C326 1.388 . S
C325 C324 1.366 . S
C325 C329 1.385 . S
C326 H307 0.951 1_655 S
C326 C324 1.388 . S
C326 C327 1.366 . S
C327 C326 1.366 . S
C327 C328 1.414 . S
C327 C330 1.499 . S
C328 H308 0.950 . S
C328 C327 1.414 . S
C328 C329 1.374 . S
C329 H309 0.950 . S
C329 C325 1.385 . S
C329 C328 1.374 . S
C330 C327 1.499 . S
C330 C331 1.373 . S
C330 C332 1.389 1_655 S
C331 H310 0.950 . S
C331 C330 1.373 . S
C331 C347 1.377 . S
C332 C330 1.389 1_455 S
C332 C333 1.524 . S
C332 C346 1.377 . S
C333 C332 1.524 . S
C333 C334 1.397 . S
C333 C338 1.363 . S
C334 H311 0.950 . S
C334 C333 1.397 . S
C334 C335 1.334 . S
C335 H312 0.950 . S
C335 C334 1.334 . S
C335 C336 1.287 . S
C336 C335 1.287 . S
C336 C337 1.524 . S
C336 H355 0.913 . S
C337 H313 0.950 . S
C337 C336 1.524 . S
C337 C338 1.415 . S
C338 H314 0.950 . S
C338 C333 1.363 . S
C338 C337 1.415 . S
C339 H315 0.951 . S
C339 C340 1.366 . S
C339 C341 1.388 . S
C340 C339 1.366 . S
C340 C344 1.385 . S
C341 H316 0.951 1_455 S
C341 C339 1.388 . S
C341 C342 1.366 . S
C342 C341 1.366 . S
C342 C343 1.414 . S
C342 C345 1.499 . S
C343 H317 0.950 . S
C343 C342 1.414 . S
C343 C344 1.374 . S
C344 H318 0.950 . S
C344 C340 1.385 . S
C344 C343 1.374 . S
C345 C342 1.499 . S
C345 C346 1.373 . S
C345 C347 1.389 1_455 S
C346 H319 0.950 . S
C346 C332 1.377 . S
C346 C345 1.373 . S
C347 C331 1.377 . S
C347 C345 1.389 1_655 S
C347 C348 1.524 . S
C348 C347 1.524 . S
C348 C349 1.397 . S
C348 C353 1.363 . S
C349 H320 0.950 . S
C349 C348 1.397 . S
C349 C350 1.334 . S
C350 H321 0.950 . S
C350 C349 1.334 . S
C350 C351 1.287 . S
C351 C350 1.287 . S
C351 C352 1.524 . S
C351 H354 0.999 . S
C352 H322 0.950 . S
C352 C351 1.524 . S
C352 C353 1.415 . S
C353 H323 0.950 . S
C353 C348 1.363 . S
C353 C352 1.415 . S
H354 C351 0.999 . S
H355 C336 0.913 . S
H356 C374 0.951 . S
H357 C376 0.951 . S
H358 C378 0.950 . S
H359 C379 0.950 1_565 S
H360 C381 0.950 . S
H361 C384 0.950 . S
H362 C385 0.950 . S
H363 C387 0.950 . S
H364 C388 0.950 . S
H365 C389 0.951 . S
H366 C391 0.951 . S
H367 C393 0.950 . S
H368 C394 0.950 1_545 S
H369 C396 0.950 . S
H370 C399 0.950 . S
H371 C400 0.950 . S
H372 C402 0.950 . S
H373 C403 0.950 . S
C374 H356 0.951 . S
C374 C375 1.366 . S
C374 C376 1.388 . S
C375 C374 1.366 . S
C375 C379 1.385 . S
C376 H357 0.951 . S
C376 C374 1.388 . S
C376 C377 1.366 . S
C377 C376 1.366 . S
C377 C378 1.414 1_545 S
C377 C380 1.499 . S
C378 H358 0.950 . S
C378 C377 1.414 1_565 S
C378 C379 1.374 1_565 S
C379 H359 0.950 1_545 S
C379 C375 1.385 . S
C379 C378 1.374 1_545 S
C380 C377 1.499 . S
C380 C381 1.373 . S
C380 C382 1.389 . S
C381 H360 0.950 . S
C381 C380 1.373 . S
C381 C397 1.377 1_545 S
C382 C380 1.389 . S
C382 C383 1.523 . S
C382 C396 1.377 1_545 S
C383 C382 1.523 . S
C383 C384 1.395 1_545 S
C383 C388 1.365 . S
C384 H361 0.950 . S
C384 C383 1.395 1_565 S
C384 C385 1.334 . S
C385 H362 0.950 . S
C385 C384 1.334 . S
C385 C386 1.287 . S
C386 C385 1.287 . S
C386 C387 1.524 1_565 S
C386 H405 0.913 . S
C387 H363 0.950 . S
C387 C386 1.524 1_545 S
C387 C388 1.415 . S
C388 H364 0.950 . S
C388 C383 1.365 . S
C388 C387 1.415 . S
C389 H365 0.951 . S
C389 C390 1.366 . S
C389 C391 1.388 . S
C390 C389 1.366 . S
C390 C394 1.385 . S
C391 H366 0.951 . S
C391 C389 1.388 . S
C391 C392 1.366 . S
C392 C391 1.366 . S
C392 C393 1.414 1_565 S
C392 C395 1.499 . S
C393 H367 0.950 . S
C393 C392 1.414 1_545 S
C393 C394 1.374 1_545 S
C394 H368 0.950 1_565 S
C394 C390 1.385 . S
C394 C393 1.374 1_565 S
C395 C392 1.499 . S
C395 C396 1.373 . S
C395 C397 1.389 . S
C396 H369 0.950 . S
C396 C382 1.377 1_565 S
C396 C395 1.373 . S
C397 C381 1.377 1_565 S
C397 C395 1.389 . S
C397 C398 1.524 . S
C398 C397 1.524 . S
C398 C399 1.397 1_565 S
C398 C403 1.363 . S
C399 H370 0.950 . S
C399 C398 1.397 1_545 S
C399 C400 1.334 . S
C400 H371 0.950 . S
C400 C399 1.334 . S
C400 C401 1.287 . S
C401 C400 1.287 . S
C401 C402 1.524 1_545 S
C401 H404 0.999 . S
C402 H372 0.950 . S
C402 C401 1.524 1_565 S
C402 C403 1.415 . S
C403 H373 0.950 . S
C403 C398 1.363 . S
C403 C402 1.415 . S
H404 C401 0.999 . S
H405 C386 0.913 . S
H406 C424 0.951 . S
H407 C426 0.951 . S
H408 C428 0.950 . S
H409 C429 0.950 . S
H410 C431 0.950 . S
H411 C434 0.950 . S
H412 C435 0.950 . S
H413 C437 0.950 . S
H414 C438 0.950 . S
H415 C439 0.951 . S
H416 C441 0.951 . S
H417 C443 0.950 . S
H418 C444 0.950 . S
H419 C446 0.950 . S
H420 C449 0.950 . S
H421 C450 0.950 . S
H422 C452 0.950 . S
H423 C453 0.950 . S
C424 H406 0.951 . S
C424 C425 1.366 . S
C424 C426 1.388 . S
C425 C424 1.366 . S
C425 C429 1.385 . S
C426 H407 0.951 . S
C426 C424 1.388 . S
C426 C427 1.366 . S
C427 C426 1.366 . S
C427 C428 1.414 . S
C427 C430 1.499 . S
C428 H408 0.950 . S
C428 C427 1.414 . S
C428 C429 1.374 . S
C429 H409 0.950 . S
C429 C425 1.385 . S
C429 C428 1.374 . S
C430 C427 1.499 . S
C430 C431 1.373 . S
C430 C432 1.389 . S
C431 H410 0.950 . S
C431 C430 1.373 . S
C431 C447 1.377 . S
C432 C430 1.389 . S
C432 C433 1.524 . S
C432 C446 1.377 . S
C433 C432 1.524 . S
C433 C434 1.397 . S
C433 C438 1.363 . S
C434 H411 0.950 . S
C434 C433 1.397 . S
C434 C435 1.334 . S
C435 H412 0.950 . S
C435 C434 1.334 . S
C435 C436 1.287 . S
C436 C435 1.287 . S
C436 C437 1.524 . S
C436 H455 0.913 . S
C437 H413 0.950 . S
C437 C436 1.524 . S
C437 C438 1.415 . S
C438 H414 0.950 . S
C438 C433 1.363 . S
C438 C437 1.415 . S
C439 H415 0.951 . S
C439 C440 1.366 . S
C439 C441 1.388 . S
C440 C439 1.366 . S
C440 C444 1.385 . S
C441 H416 0.951 . S
C441 C439 1.388 . S
C441 C442 1.366 . S
C442 C441 1.366 . S
C442 C443 1.414 . S
C442 C445 1.499 . S
C443 H417 0.950 . S
C443 C442 1.414 . S
C443 C444 1.374 . S
C444 H418 0.950 . S
C444 C440 1.385 . S
C444 C443 1.374 . S
C445 C442 1.499 . S
C445 C446 1.373 . S
C445 C447 1.389 . S
C446 H419 0.950 . S
C446 C432 1.377 . S
C446 C445 1.373 . S
C447 C431 1.377 . S
C447 C445 1.389 . S
C447 C448 1.524 . S
C448 C447 1.524 . S
C448 C449 1.397 . S
C448 C453 1.363 . S
C449 H420 0.950 . S
C449 C448 1.397 . S
C449 C450 1.334 . S
C450 H421 0.950 . S
C450 C449 1.334 . S
C450 C451 1.287 . S
C451 C450 1.287 . S
C451 C452 1.524 . S
C451 H454 0.999 . S
C452 H422 0.950 . S
C452 C451 1.524 . S
C452 C453 1.415 . S
C453 H423 0.950 . S
C453 C448 1.363 . S
C453 C452 1.415 . S
H454 C451 0.999 . S
H455 C436 0.913 . S
H456 C474 0.951 . S
H457 C476 0.951 . S
H458 C478 0.950 . S
H459 C479 0.950 . S
H460 C481 0.950 . S
H461 C484 0.950 . S
H462 C485 0.950 . S
H463 C487 0.950 . S
H464 C488 0.950 . S
H465 C489 0.951 . S
H466 C491 0.951 . S
H467 C493 0.950 . S
H468 C494 0.950 . S
H469 C496 0.950 . S
H470 C499 0.950 . S
H471 C500 0.950 . S
H472 C502 0.950 . S
H473 C503 0.950 . S
C474 H456 0.951 . S
C474 C475 1.366 . S
C474 C476 1.388 . S
C475 C474 1.366 . S
C475 C479 1.385 . S
C476 H457 0.951 . S
C476 C474 1.388 . S
C476 C477 1.366 . S
C477 C476 1.366 . S
C477 C478 1.414 . S
C477 C480 1.499 . S
C478 H458 0.950 . S
C478 C477 1.414 . S
C478 C479 1.374 . S
C479 H459 0.950 . S
C479 C475 1.385 . S
C479 C478 1.374 . S
C480 C477 1.499 . S
C480 C481 1.373 . S
C480 C482 1.389 . S
C481 H460 0.950 . S
C481 C480 1.373 . S
C481 C497 1.377 1_554 S
C482 C480 1.389 . S
C482 C483 1.524 . S
C482 C496 1.377 1_554 S
C483 C482 1.524 . S
C483 C484 1.397 . S
C483 C488 1.363 . S
C484 H461 0.950 . S
C484 C483 1.397 . S
C484 C485 1.334 . S
C485 H462 0.950 . S
C485 C484 1.334 . S
C485 C486 1.287 . S
C486 C485 1.287 . S
C486 C487 1.524 . S
C486 H505 0.913 . S
C487 H463 0.950 . S
C487 C486 1.524 . S
C487 C488 1.415 . S
C488 H464 0.950 . S
C488 C483 1.363 . S
C488 C487 1.415 . S
C489 H465 0.951 . S
C489 C490 1.366 . S
C489 C491 1.388 . S
C490 C489 1.366 . S
C490 C494 1.385 . S
C491 H466 0.951 . S
C491 C489 1.388 . S
C491 C492 1.366 . S
C492 C491 1.366 . S
C492 C493 1.414 . S
C492 C495 1.499 . S
C493 H467 0.950 . S
C493 C492 1.414 . S
C493 C494 1.374 . S
C494 H468 0.950 . S
C494 C490 1.385 . S
C494 C493 1.374 . S
C495 C492 1.499 . S
C495 C496 1.373 . S
C495 C497 1.389 . S
C496 H469 0.950 . S
C496 C482 1.377 1_556 S
C496 C495 1.373 . S
C497 C481 1.377 1_556 S
C497 C495 1.389 . S
C497 C498 1.524 . S
C498 C497 1.524 . S
C498 C499 1.397 . S
C498 C503 1.363 . S
C499 H470 0.950 . S
C499 C498 1.397 . S
C499 C500 1.334 . S
C500 H471 0.950 . S
C500 C499 1.334 . S
C500 C501 1.287 . S
C501 C500 1.287 . S
C501 C502 1.524 . S
C501 H504 0.999 . S
C502 H472 0.950 . S
C502 C501 1.524 . S
C502 C503 1.415 . S
C503 H473 0.950 . S
C503 C498 1.363 . S
C503 C502 1.415 . S
H504 C501 0.999 . S
H505 C486 0.913 . S
H506 C524 0.951 . S
H507 C526 0.951 . S
H508 C528 0.950 . S
H509 C529 0.950 . S
H510 C531 0.950 . S
H511 C534 0.950 . S
H512 C535 0.950 . S
H513 C537 0.950 . S
H514 C538 0.950 . S
H515 C539 0.951 . S
H516 C541 0.951 . S
H517 C543 0.950 . S
H518 C544 0.950 . S
H519 C546 0.950 . S
H520 C549 0.950 . S
H521 C550 0.950 . S
H522 C552 0.950 1_565 S
H523 C553 0.950 . S
C524 H506 0.951 . S
C524 C525 1.366 . S
C524 C526 1.388 . S
C525 C524 1.366 . S
C525 C529 1.385 . S
C526 H507 0.951 . S
C526 C524 1.388 . S
C526 C527 1.366 . S
C527 C526 1.366 . S
C527 C528 1.414 . S
C527 C530 1.499 . S
C528 H508 0.950 . S
C528 C527 1.414 . S
C528 C529 1.374 . S
C529 H509 0.950 . S
C529 C525 1.385 . S
C529 C528 1.374 . S
C530 C527 1.499 . S
C530 C531 1.373 . S
C530 C532 1.389 . S
C531 H510 0.950 . S
C531 C530 1.373 . S
C531 C547 1.377 . S
C532 C530 1.389 . S
C532 C533 1.524 . S
C532 C546 1.377 . S
C533 C532 1.524 . S
C533 C534 1.397 . S
C533 C538 1.363 . S
C534 H511 0.950 . S
C534 C533 1.397 . S
C534 C535 1.334 . S
C535 H512 0.950 . S
C535 C534 1.334 . S
C535 C536 1.287 . S
C536 C535 1.287 . S
C536 C537 1.524 . S
C536 H555 0.913 . S
C537 H513 0.950 . S
C537 C536 1.524 . S
C537 C538 1.415 . S
C538 H514 0.950 . S
C538 C533 1.363 . S
C538 C537 1.415 . S
C539 H515 0.951 . S
C539 C540 1.366 . S
C539 C541 1.388 . S
C540 C539 1.366 . S
C540 C544 1.385 . S
C541 H516 0.951 . S
C541 C539 1.388 . S
C541 C542 1.366 . S
C542 C541 1.366 . S
C542 C543 1.414 . S
C542 C545 1.499 . S
C543 H517 0.950 . S
C543 C542 1.414 . S
C543 C544 1.374 . S
C544 H518 0.950 . S
C544 C540 1.385 . S
C544 C543 1.374 . S
C545 C542 1.499 . S
C545 C546 1.373 . S
C545 C547 1.389 . S
C546 H519 0.950 . S
C546 C532 1.377 . S
C546 C545 1.373 . S
C547 C531 1.377 . S
C547 C545 1.389 . S
C547 C548 1.524 . S
C548 C547 1.524 . S
C548 C549 1.397 . S
C548 C553 1.363 . S
C549 H520 0.950 . S
C549 C548 1.397 . S
C549 C550 1.334 . S
C550 H521 0.950 . S
C550 C549 1.334 . S
C550 C551 1.287 . S
C551 C550 1.287 . S
C551 C552 1.524 . S
C551 H554 0.999 . S
C552 H522 0.950 1_545 S
C552 C551 1.524 . S
C552 C553 1.415 . S
C553 H523 0.950 . S
C553 C548 1.363 . S
C553 C552 1.415 . S
H554 C551 0.999 . S
H555 C536 0.913 . S
H556 C574 0.951 . S
H557 C576 0.951 . S
H558 C578 0.950 . S
H559 C579 0.950 . S
H560 C581 0.950 . S
H561 C584 0.950 . S
H562 C585 0.950 . S
H563 C587 0.950 . S
H564 C588 0.950 . S
H565 C589 0.951 . S
H566 C591 0.951 . S
H567 C593 0.950 . S
H568 C594 0.950 . S
H569 C596 0.950 . S
H570 C599 0.950 . S
H571 C600 0.950 . S
H572 C602 0.950 . S
H573 C603 0.950 . S
C574 H556 0.951 . S
C574 C575 1.366 . S
C574 C576 1.388 . S
C575 C574 1.366 . S
C575 C579 1.385 . S
C576 H557 0.951 . S
C576 C574 1.388 . S
C576 C577 1.366 . S
C577 C576 1.366 . S
C577 C578 1.414 . S
C577 C580 1.499 . S
C578 H558 0.950 . S
C578 C577 1.414 . S
C578 C579 1.374 . S
C579 H559 0.950 . S
C579 C575 1.385 . S
C579 C578 1.374 . S
C580 C577 1.499 . S
C580 C581 1.373 . S
C580 C582 1.389 . S
C581 H560 0.950 . S
C581 C580 1.373 . S
C581 C597 1.377 . S
C582 C580 1.389 . S
C582 C583 1.524 . S
C582 C596 1.377 . S
C583 C582 1.524 . S
C583 C584 1.397 . S
C583 C588 1.363 . S
C584 H561 0.950 . S
C584 C583 1.397 . S
C584 C585 1.334 . S
C585 H562 0.950 . S
C585 C584 1.334 . S
C585 C586 1.287 . S
C586 C585 1.287 . S
C586 C587 1.524 . S
C586 H605 0.913 . S
C587 H563 0.950 . S
C587 C586 1.524 . S
C587 C588 1.415 . S
C588 H564 0.950 . S
C588 C583 1.363 . S
C588 C587 1.415 . S
C589 H565 0.951 . S
C589 C590 1.366 . S
C589 C591 1.388 . S
C590 C589 1.366 . S
C590 C594 1.385 . S
C591 H566 0.951 . S
C591 C589 1.388 . S
C591 C592 1.366 . S
C592 C591 1.366 . S
C592 C593 1.414 . S
C592 C595 1.499 . S
C593 H567 0.950 . S
C593 C592 1.414 . S
C593 C594 1.374 . S
C594 H568 0.950 . S
C594 C590 1.385 . S
C594 C593 1.374 . S
C595 C592 1.499 . S
C595 C596 1.373 . S
C595 C597 1.389 . S
C596 H569 0.950 . S
C596 C582 1.377 . S
C596 C595 1.373 . S
C597 C581 1.377 . S
C597 C595 1.389 . S
C597 C598 1.524 . S
C598 C597 1.524 . S
C598 C599 1.397 . S
C598 C603 1.363 . S
C599 H570 0.950 . S
C599 C598 1.397 . S
C599 C600 1.334 . S
C600 H571 0.950 . S
C600 C599 1.334 . S
C600 C601 1.287 . S
C601 C600 1.287 . S
C601 C602 1.524 . S
C601 H604 0.999 . S
C602 H572 0.950 . S
C602 C601 1.524 . S
C602 C603 1.415 . S
C603 H573 0.950 . S
C603 C598 1.363 . S
C603 C602 1.415 . S
H604 C601 0.999 . S
H605 C586 0.913 . S
H606 C624 0.951 . S
H607 C626 0.951 . S
H608 C628 0.950 . S
H609 C629 0.950 . S
H610 C631 0.950 . S
H611 C634 0.950 . S
H612 C635 0.950 . S
H613 C637 0.950 . S
H614 C638 0.950 . S
H615 C639 0.951 . S
H616 C641 0.951 . S
H617 C643 0.950 . S
H618 C644 0.950 . S
H619 C646 0.950 . S
H620 C649 0.950 . S
H621 C650 0.950 . S
H622 C652 0.950 . S
H623 C653 0.950 . S
C624 H606 0.951 . S
C624 C625 1.366 . S
C624 C626 1.388 . S
C625 C624 1.366 . S
C625 C629 1.385 . S
C626 H607 0.951 . S
C626 C624 1.388 . S
C626 C627 1.366 . S
C627 C626 1.366 . S
C627 C628 1.414 . S
C627 C630 1.499 . S
C628 H608 0.950 . S
C628 C627 1.414 . S
C628 C629 1.374 . S
C629 H609 0.950 . S
C629 C625 1.385 . S
C629 C628 1.374 . S
C630 C627 1.499 . S
C630 C631 1.373 . S
C630 C632 1.389 . S
C631 H610 0.950 . S
C631 C630 1.373 . S
C631 C647 1.377 1_554 S
C632 C630 1.389 . S
C632 C633 1.524 . S
C632 C646 1.377 1_554 S
C633 C632 1.524 . S
C633 C634 1.397 . S
C633 C638 1.363 . S
C634 H611 0.950 . S
C634 C633 1.397 . S
C634 C635 1.334 . S
C635 H612 0.950 . S
C635 C634 1.334 . S
C635 C636 1.287 . S
C636 C635 1.287 . S
C636 C637 1.524 . S
C636 H655 0.913 . S
C637 H613 0.950 . S
C637 C636 1.524 . S
C637 C638 1.415 . S
C638 H614 0.950 . S
C638 C633 1.363 . S
C638 C637 1.415 . S
C639 H615 0.951 . S
C639 C640 1.366 . S
C639 C641 1.388 . S
C640 C639 1.366 . S
C640 C644 1.385 . S
C641 H616 0.951 . S
C641 C639 1.388 . S
C641 C642 1.366 . S
C642 C641 1.366 . S
C642 C643 1.414 . S
C642 C645 1.499 . S
C643 H617 0.950 . S
C643 C642 1.414 . S
C643 C644 1.374 . S
C644 H618 0.950 . S
C644 C640 1.385 . S
C644 C643 1.374 . S
C645 C642 1.499 . S
C645 C646 1.373 . S
C645 C647 1.389 . S
C646 H619 0.950 . S
C646 C632 1.377 1_556 S
C646 C645 1.373 . S
C647 C631 1.377 1_556 S
C647 C645 1.389 . S
C647 C648 1.524 . S
C648 C647 1.524 . S
C648 C649 1.397 . S
C648 C653 1.363 . S
C649 H620 0.950 . S
C649 C648 1.397 . S
C649 C650 1.334 . S
C650 H621 0.950 . S
C650 C649 1.334 . S
C650 C651 1.287 . S
C651 C650 1.287 . S
C651 C652 1.524 . S
C651 H654 0.999 . S
C652 H622 0.950 . S
C652 C651 1.524 . S
C652 C653 1.415 . S
C653 H623 0.950 . S
C653 C648 1.363 . S
C653 C652 1.415 . S
H654 C651 0.999 . S
H655 C636 0.913 . S
H656 C674 0.951 . S
H657 C676 0.951 . S
H658 C678 0.950 . S
H659 C679 0.950 . S
H660 C681 0.950 . S
H661 C684 0.950 . S
H662 C685 0.950 . S
H663 C687 0.950 . S
H664 C688 0.950 . S
H665 C689 0.951 . S
H666 C691 0.951 . S
H667 C693 0.950 . S
H668 C694 0.950 . S
H669 C696 0.950 . S
H670 C699 0.950 . S
H671 C700 0.950 1_545 S
H672 C702 0.950 . S
H673 C703 0.950 . S
C674 H656 0.951 . S
C674 C675 1.366 . S
C674 C676 1.388 . S
C675 C674 1.366 . S
C675 C679 1.385 . S
C676 H657 0.951 . S
C676 C674 1.388 . S
C676 C677 1.366 . S
C677 C676 1.366 . S
C677 C678 1.414 . S
C677 C680 1.499 . S
C678 H658 0.950 . S
C678 C677 1.414 . S
C678 C679 1.374 . S
C679 H659 0.950 . S
C679 C675 1.385 . S
C679 C678 1.374 . S
C680 C677 1.499 . S
C680 C681 1.373 . S
C680 C682 1.389 . S
C681 H660 0.950 . S
C681 C680 1.373 . S
C681 C697 1.377 . S
C682 C680 1.389 . S
C682 C683 1.524 . S
C682 C696 1.377 . S
C683 C682 1.524 . S
C683 C684 1.397 . S
C683 C688 1.363 . S
C684 H661 0.950 . S
C684 C683 1.397 . S
C684 C685 1.334 . S
C685 H662 0.950 . S
C685 C684 1.334 . S
C685 C686 1.287 . S
C686 C685 1.287 . S
C686 C687 1.524 . S
C686 H705 0.913 . S
C687 H663 0.950 . S
C687 C686 1.524 . S
C687 C688 1.415 . S
C688 H664 0.950 . S
C688 C683 1.363 . S
C688 C687 1.415 . S
C689 H665 0.951 . S
C689 C690 1.366 . S
C689 C691 1.388 . S
C690 C689 1.366 . S
C690 C694 1.385 . S
C691 H666 0.951 . S
C691 C689 1.388 . S
C691 C692 1.366 . S
C692 C691 1.366 . S
C692 C693 1.414 . S
C692 C695 1.499 . S
C693 H667 0.950 . S
C693 C692 1.414 . S
C693 C694 1.374 . S
C694 H668 0.950 . S
C694 C690 1.385 . S
C694 C693 1.374 . S
C695 C692 1.499 . S
C695 C696 1.373 . S
C695 C697 1.389 . S
C696 H669 0.950 . S
C696 C682 1.377 . S
C696 C695 1.373 . S
C697 C681 1.377 . S
C697 C695 1.389 . S
C697 C698 1.524 . S
C698 C697 1.524 . S
C698 C699 1.397 . S
C698 C703 1.363 . S
C699 H670 0.950 . S
C699 C698 1.397 . S
C699 C700 1.334 . S
C700 H671 0.950 1_565 S
C700 C699 1.334 . S
C700 C701 1.287 . S
C701 C700 1.287 . S
C701 C702 1.524 . S
C701 H704 0.999 . S
C702 H672 0.950 . S
C702 C701 1.524 . S
C702 C703 1.415 . S
C703 H673 0.950 . S
C703 C698 1.363 . S
C703 C702 1.415 . S
H704 C701 0.999 . S
H705 C686 0.913 . S
H706 C724 0.951 . S
H707 C726 0.951 . S
H708 C728 0.950 . S
H709 C729 0.950 . S
H710 C731 0.950 . S
H711 C734 0.950 . S
H712 C735 0.950 . S
H713 C737 0.950 . S
H714 C738 0.950 . S
H715 C739 0.951 . S
H716 C741 0.951 . S
H717 C743 0.950 . S
H718 C744 0.950 . S
H719 C746 0.950 . S
H720 C749 0.950 . S
H721 C750 0.950 . S
H722 C752 0.939 1_565 S
H723 C753 0.950 . S
C724 H706 0.951 . S
C724 C725 1.366 . S
C724 C726 1.388 . S
C725 C724 1.366 . S
C725 C729 1.385 . S
C726 H707 0.951 . S
C726 C724 1.388 . S
C726 C727 1.366 . S
C727 C726 1.366 . S
C727 C728 1.414 . S
C727 C730 1.499 . S
C728 H708 0.950 . S
C728 C727 1.414 . S
C728 C729 1.374 . S
C729 H709 0.950 . S
C729 C725 1.385 . S
C729 C728 1.374 . S
C730 C727 1.499 . S
C730 C731 1.373 . S
C730 C732 1.389 . S
C731 H710 0.950 . S
C731 C730 1.373 . S
C731 C747 1.377 . S
C732 C730 1.389 . S
C732 C733 1.524 . S
C732 C746 1.377 . S
C733 C732 1.524 . S
C733 C734 1.397 . S
C733 C738 1.363 . S
C734 H711 0.950 . S
C734 C733 1.397 . S
C734 C735 1.334 . S
C735 H712 0.950 . S
C735 C734 1.334 . S
C735 C736 1.287 . S
C736 C735 1.287 . S
C736 C737 1.524 . S
C736 H755 0.913 . S
C737 H713 0.950 . S
C737 C736 1.524 . S
C737 C738 1.415 . S
C738 H714 0.950 . S
C738 C733 1.363 . S
C738 C737 1.415 . S
C739 H715 0.951 . S
C739 C740 1.366 . S
C739 C741 1.388 . S
C740 C739 1.366 . S
C740 C744 1.385 . S
C741 H716 0.951 . S
C741 C739 1.388 . S
C741 C742 1.366 . S
C742 C741 1.366 . S
C742 C743 1.414 . S
C742 C745 1.499 . S
C743 H717 0.950 . S
C743 C742 1.414 . S
C743 C744 1.374 . S
C744 H718 0.950 . S
C744 C740 1.385 . S
C744 C743 1.374 . S
C745 C742 1.499 . S
C745 C746 1.373 . S
C745 C747 1.389 . S
C746 H719 0.950 . S
C746 C732 1.377 . S
C746 C745 1.373 . S
C747 C731 1.377 . S
C747 C745 1.389 . S
C747 C748 1.524 . S
C748 C747 1.524 . S
C748 C749 1.397 . S
C748 C753 1.363 . S
C749 H720 0.950 . S
C749 C748 1.397 . S
C749 C750 1.334 . S
C750 H721 0.950 . S
C750 C749 1.334 . S
C750 C751 1.287 . S
C751 C750 1.287 . S
C751 C752 1.524 . S
C751 H754 0.998 . S
C752 H722 0.939 1_545 S
C752 C751 1.524 . S
C752 C753 1.415 . S
C753 H723 0.950 . S
C753 C748 1.363 . S
C753 C752 1.415 . S
H754 C751 0.998 . S
H755 C736 0.913 . S
H756 C774 0.951 . S
H757 C776 0.951 . S
H758 C778 0.950 1_455 S
H759 C779 0.952 . S
H760 C781 0.950 . S
H761 C784 0.950 . S
H762 C785 0.950 . S
H763 C787 0.950 . S
H764 C788 0.950 . S
H765 C789 0.951 . S
H766 C791 0.951 . S
H767 C793 0.950 1_655 S
H768 C794 0.951 . S
H769 C796 0.950 . S
H770 C799 0.950 . S
H771 C800 0.950 . S
H772 C802 0.950 . S
H773 C803 0.950 . S
C774 H756 0.951 . S
C774 C775 1.366 . S
C774 C776 1.388 . S
C775 C774 1.366 . S
C775 C779 1.385 . S
C776 H757 0.951 . S
C776 C774 1.388 . S
C776 C777 1.366 . S
C777 C776 1.366 . S
C777 C778 1.414 . S
C777 C780 1.499 . S
C778 H758 0.950 1_655 S
C778 C777 1.414 . S
C778 C779 1.374 . S
C779 H759 0.952 . S
C779 C775 1.385 . S
C779 C778 1.374 . S
C780 C777 1.499 . S
C780 C781 1.373 1_655 S
C780 C782 1.389 . S
C781 H760 0.950 . S
C781 C780 1.373 1_455 S
C781 C797 1.377 . S
C782 C780 1.389 . S
C782 C783 1.524 . S
C782 C796 1.377 . S
C783 C782 1.524 . S
C783 C784 1.397 . S
C783 C788 1.363 . S
C784 H761 0.950 . S
C784 C783 1.397 . S
C784 C785 1.334 . S
C785 H762 0.950 . S
C785 C784 1.334 . S
C785 C786 1.287 . S
C786 C785 1.287 . S
C786 C787 1.524 . S
C786 H805 0.913 . S
C787 H763 0.950 . S
C787 C786 1.524 . S
C787 C788 1.415 . S
C788 H764 0.950 . S
C788 C783 1.363 . S
C788 C787 1.415 . S
C789 H765 0.951 . S
C789 C790 1.366 . S
C789 C791 1.388 . S
C790 C789 1.366 . S
C790 C794 1.385 . S
C791 H766 0.951 . S
C791 C789 1.388 . S
C791 C792 1.366 . S
C792 C791 1.366 . S
C792 C793 1.414 . S
C792 C795 1.499 . S
C793 H767 0.950 1_455 S
C793 C792 1.414 . S
C793 C794 1.374 . S
C794 H768 0.951 . S
C794 C790 1.385 . S
C794 C793 1.374 . S
C795 C792 1.499 . S
C795 C796 1.373 1_455 S
C795 C797 1.389 . S
C796 H769 0.950 . S
C796 C782 1.377 . S
C796 C795 1.373 1_655 S
C797 C781 1.377 . S
C797 C795 1.389 . S
C797 C798 1.524 . S
C798 C797 1.524 . S
C798 C799 1.397 . S
C798 C803 1.363 . S
C799 H770 0.950 . S
C799 C798 1.397 . S
C799 C800 1.334 . S
C800 H771 0.950 . S
C800 C799 1.334 . S
C800 C801 1.287 . S
C801 C800 1.287 . S
C801 C802 1.524 . S
C801 H804 0.999 . S
C802 H772 0.950 . S
C802 C801 1.524 . S
C802 C803 1.415 . S
C803 H773 0.950 . S
C803 C798 1.363 . S
C803 C802 1.415 . S
H804 C801 0.999 . S
H805 C786 0.913 . S
H806 C824 0.951 . S
H807 C826 0.951 . S
H808 C828 0.950 1_565 S
H809 C829 0.950 . S
H810 C831 0.950 . S
H811 C834 0.950 . S
H812 C835 0.950 . S
H813 C837 0.950 . S
H814 C838 0.950 . S
H815 C839 0.951 . S
H816 C841 0.951 . S
H817 C843 0.950 1_545 S
H818 C844 0.950 . S
H819 C846 0.950 . S
H820 C849 0.950 . S
H821 C850 0.950 . S
H822 C852 0.950 . S
H823 C853 0.950 . S
C824 H806 0.951 . S
C824 C825 1.366 . S
C824 C826 1.388 . S
C825 C824 1.366 . S
C825 C829 1.385 . S
C826 H807 0.951 . S
C826 C824 1.388 . S
C826 C827 1.366 . S
C827 C826 1.366 . S
C827 C828 1.414 . S
C827 C830 1.499 . S
C828 H808 0.950 1_545 S
C828 C827 1.414 . S
C828 C829 1.374 . S
C829 H809 0.950 . S
C829 C825 1.385 . S
C829 C828 1.374 . S
C830 C827 1.499 . S
C830 C831 1.373 1_545 S
C830 C832 1.389 . S
C831 H810 0.950 . S
C831 C830 1.373 1_565 S
C831 C847 1.377 . S
C832 C830 1.389 . S
C832 C833 1.524 . S
C832 C846 1.377 . S
C833 C832 1.524 . S
C833 C834 1.397 . S
C833 C838 1.363 . S
C834 H811 0.950 . S
C834 C833 1.397 . S
C834 C835 1.334 . S
C835 H812 0.950 . S
C835 C834 1.334 . S
C835 C836 1.287 . S
C836 C835 1.287 . S
C836 C837 1.524 . S
C836 H855 0.913 . S
C837 H813 0.950 . S
C837 C836 1.524 . S
C837 C838 1.415 . S
C838 H814 0.950 . S
C838 C833 1.363 . S
C838 C837 1.415 . S
C839 H815 0.951 . S
C839 C840 1.366 . S
C839 C841 1.388 . S
C840 C839 1.366 . S
C840 C844 1.385 . S
C841 H816 0.951 . S
C841 C839 1.388 . S
C841 C842 1.366 . S
C842 C841 1.366 . S
C842 C843 1.414 . S
C842 C845 1.499 . S
C843 H817 0.950 1_565 S
C843 C842 1.414 . S
C843 C844 1.374 . S
C844 H818 0.950 . S
C844 C840 1.385 . S
C844 C843 1.374 . S
C845 C842 1.499 . S
C845 C846 1.373 1_565 S
C845 C847 1.389 . S
C846 H819 0.950 . S
C846 C832 1.377 . S
C846 C845 1.373 1_545 S
C847 C831 1.377 . S
C847 C845 1.389 . S
C847 C848 1.524 . S
C848 C847 1.524 . S
C848 C849 1.397 . S
C848 C853 1.363 . S
C849 H820 0.950 . S
C849 C848 1.397 . S
C849 C850 1.334 . S
C850 H821 0.950 . S
C850 C849 1.334 . S
C850 C851 1.287 . S
C851 C850 1.287 . S
C851 C852 1.524 . S
C851 H854 0.999 . S
C852 H822 0.950 . S
C852 C851 1.524 . S
C852 C853 1.415 . S
C853 H823 0.950 . S
C853 C848 1.363 . S
C853 C852 1.415 . S
H854 C851 0.999 . S
H855 C836 0.913 . S
H856 C874 0.951 . S
H857 C876 0.951 . S
H858 C878 0.950 . S
H859 C879 0.950 . S
H860 C881 0.950 . S
H861 C884 0.950 . S
H862 C885 0.950 . S
H863 C887 0.950 . S
H864 C888 0.950 . S
H865 C889 0.951 . S
H866 C891 0.951 . S
H867 C893 0.950 . S
H868 C894 0.950 . S
H869 C896 0.950 . S
H870 C899 0.950 . S
H871 C900 0.950 . S
H872 C902 0.950 . S
H873 C903 0.950 . S
C874 H856 0.951 . S
C874 C875 1.366 . S
C874 C876 1.388 . S
C875 C874 1.366 . S
C875 C879 1.385 . S
C876 H857 0.951 . S
C876 C874 1.388 . S
C876 C877 1.366 . S
C877 C876 1.366 . S
C877 C878 1.414 . S
C877 C880 1.499 . S
C878 H858 0.950 . S
C878 C877 1.414 . S
C878 C879 1.374 . S
C879 H859 0.950 . S
C879 C875 1.385 . S
C879 C878 1.374 . S
C880 C877 1.499 . S
C880 C881 1.373 . S
C880 C882 1.389 . S
C881 H860 0.950 . S
C881 C880 1.373 . S
C881 C897 1.377 . S
C882 C880 1.389 . S
C882 C883 1.524 . S
C882 C896 1.377 . S
C883 C882 1.524 . S
C883 C884 1.397 . S
C883 C888 1.363 . S
C884 H861 0.950 . S
C884 C883 1.397 . S
C884 C885 1.334 . S
C885 H862 0.950 . S
C885 C884 1.334 . S
C885 C886 1.287 . S
C886 C885 1.287 . S
C886 C887 1.524 . S
C886 H905 0.913 . S
C887 H863 0.950 . S
C887 C886 1.524 . S
C887 C888 1.415 . S
C888 H864 0.950 . S
C888 C883 1.363 . S
C888 C887 1.415 . S
C889 H865 0.951 . S
C889 C890 1.366 . S
C889 C891 1.388 . S
C890 C889 1.366 . S
C890 C894 1.385 . S
C891 H866 0.951 . S
C891 C889 1.388 . S
C891 C892 1.366 . S
C892 C891 1.366 . S
C892 C893 1.414 . S
C892 C895 1.499 . S
C893 H867 0.950 . S
C893 C892 1.414 . S
C893 C894 1.374 . S
C894 H868 0.950 . S
C894 C890 1.385 . S
C894 C893 1.374 . S
C895 C892 1.499 . S
C895 C896 1.373 . S
C895 C897 1.389 . S
C896 H869 0.950 . S
C896 C882 1.377 . S
C896 C895 1.373 . S
C897 C881 1.377 . S
C897 C895 1.389 . S
C897 C898 1.524 . S
C898 C897 1.524 . S
C898 C899 1.397 . S
C898 C903 1.363 . S
C899 H870 0.950 . S
C899 C898 1.397 . S
C899 C900 1.334 . S
C900 H871 0.950 . S
C900 C899 1.334 . S
C900 C901 1.287 . S
C901 C900 1.287 . S
C901 C902 1.524 . S
C901 H904 0.999 . S
C902 H872 0.950 . S
C902 C901 1.524 . S
C902 C903 1.415 . S
C903 H873 0.950 . S
C903 C898 1.363 . S
C903 C902 1.415 . S
H904 C901 0.999 . S
H905 C886 0.913 . S
H906 C924 0.951 . S
H907 C926 0.951 1_565 S
H908 C928 0.950 . S
H909 C929 0.950 . S
H910 C931 0.950 . S
H911 C934 0.950 . S
H912 C935 0.950 . S
H913 C937 0.950 . S
H914 C938 0.950 . S
H915 C939 0.951 . S
H916 C941 0.951 1_545 S
H917 C943 0.950 . S
H918 C944 0.950 . S
H919 C946 0.950 . S
H920 C949 0.950 . S
H921 C950 0.950 . S
H922 C952 0.950 . S
H923 C953 0.950 . S
C924 H906 0.951 . S
C924 C925 1.366 . S
C924 C926 1.388 . S
C925 C924 1.366 . S
C925 C929 1.385 . S
C926 H907 0.951 1_545 S
C926 C924 1.388 . S
C926 C927 1.366 . S
C927 C926 1.366 . S
C927 C928 1.414 . S
C927 C930 1.499 . S
C928 H908 0.950 . S
C928 C927 1.414 . S
C928 C929 1.374 . S
C929 H909 0.950 . S
C929 C925 1.385 . S
C929 C928 1.374 . S
C930 C927 1.499 . S
C930 C931 1.373 . S
C930 C932 1.389 1_545 S
C931 H910 0.950 . S
C931 C930 1.373 . S
C931 C947 1.377 . S
C932 C930 1.389 1_565 S
C932 C933 1.524 . S
C932 C946 1.377 . S
C933 C932 1.524 . S
C933 C934 1.397 1_565 S
C933 C938 1.363 . S
C934 H911 0.950 . S
C934 C933 1.397 1_545 S
C934 C935 1.334 . S
C935 H912 0.950 . S
C935 C934 1.334 . S
C935 C936 1.287 1_545 S
C936 C935 1.287 1_565 S
C936 C937 1.524 . S
C936 H955 0.913 . S
C937 H913 0.950 . S
C937 C936 1.524 . S
C937 C938 1.415 . S
C938 H914 0.950 . S
C938 C933 1.363 . S
C938 C937 1.415 . S
C939 H915 0.951 . S
C939 C940 1.366 . S
C939 C941 1.388 . S
C940 C939 1.366 . S
C940 C944 1.385 . S
C941 H916 0.951 1_565 S
C941 C939 1.388 . S
C941 C942 1.366 . S
C942 C941 1.366 . S
C942 C943 1.414 . S
C942 C945 1.499 . S
C943 H917 0.950 . S
C943 C942 1.414 . S
C943 C944 1.374 . S
C944 H918 0.950 . S
C944 C940 1.385 . S
C944 C943 1.374 . S
C945 C942 1.499 . S
C945 C946 1.373 . S
C945 C947 1.389 1_565 S
C946 H919 0.950 . S
C946 C932 1.377 . S
C946 C945 1.373 . S
C947 C931 1.377 . S
C947 C945 1.389 1_545 S
C947 C948 1.524 . S
C948 C947 1.524 . S
C948 C949 1.397 1_545 S
C948 C953 1.363 . S
C949 H920 0.950 . S
C949 C948 1.397 1_565 S
C949 C950 1.334 . S
C950 H921 0.950 . S
C950 C949 1.334 . S
C950 C951 1.287 1_565 S
C951 C950 1.287 1_545 S
C951 C952 1.524 . S
C951 H954 0.999 . S
C952 H922 0.950 . S
C952 C951 1.524 . S
C952 C953 1.415 . S
C953 H923 0.950 . S
C953 C948 1.363 . S
C953 C952 1.415 . S
H954 C951 0.999 . S
H955 C936 0.913 . S
H956 C974 0.951 . S
H957 C976 0.951 . S
H958 C978 0.950 . S
H959 C979 0.950 . S
H960 C981 0.950 . S
H961 C984 0.950 . S
H962 C985 0.950 . S
H963 C987 0.950 . S
H964 C988 0.950 . S
H965 C989 0.951 . S
H966 C991 0.951 . S
H967 C993 0.950 . S
H968 C994 0.950 . S
H969 C996 0.950 . S
H970 C999 0.950 . S
H971 C1000 0.950 . S
H972 C1002 0.950 . S
H973 C1003 0.950 . S
C974 H956 0.951 . S
C974 C975 1.366 . S
C974 C976 1.388 . S
C975 C974 1.366 . S
C975 C979 1.385 . S
C976 H957 0.951 . S
C976 C974 1.388 . S
C976 C977 1.366 . S
C977 C976 1.366 . S
C977 C978 1.414 . S
C977 C980 1.499 . S
C978 H958 0.950 . S
C978 C977 1.414 . S
C978 C979 1.374 . S
C979 H959 0.950 . S
C979 C975 1.385 . S
C979 C978 1.374 . S
C980 C977 1.499 . S
C980 C981 1.373 . S
C980 C982 1.389 . S
C981 H960 0.950 . S
C981 C980 1.373 . S
C981 C997 1.377 . S
C982 C980 1.389 . S
C982 C983 1.524 . S
C982 C996 1.377 . S
C983 C982 1.524 . S
C983 C984 1.397 . S
C983 C988 1.363 . S
C984 H961 0.950 . S
C984 C983 1.397 . S
C984 C985 1.334 . S
C985 H962 0.950 . S
C985 C984 1.334 . S
C985 C986 1.287 . S
C986 C985 1.287 . S
C986 C987 1.524 . S
C986 H1005 0.913 . S
C987 H963 0.950 . S
C987 C986 1.524 . S
C987 C988 1.415 . S
C988 H964 0.950 . S
C988 C983 1.363 . S
C988 C987 1.415 . S
C989 H965 0.951 . S
C989 C990 1.366 . S
C989 C991 1.388 . S
C990 C989 1.366 . S
C990 C994 1.385 . S
C991 H966 0.951 . S
C991 C989 1.388 . S
C991 C992 1.366 . S
C992 C991 1.366 . S
C992 C993 1.414 . S
C992 C995 1.499 . S
C993 H967 0.950 . S
C993 C992 1.414 . S
C993 C994 1.374 . S
C994 H968 0.950 . S
C994 C990 1.385 . S
C994 C993 1.374 . S
C995 C992 1.499 . S
C995 C996 1.373 . S
C995 C997 1.389 . S
C996 H969 0.950 . S
C996 C982 1.377 . S
C996 C995 1.373 . S
C997 C981 1.377 . S
C997 C995 1.389 . S
C997 C998 1.524 . S
C998 C997 1.524 . S
C998 C999 1.397 . S
C998 C1003 1.363 . S
C999 H970 0.950 . S
C999 C998 1.397 . S
C999 C1000 1.334 . S
C1000 H971 0.950 . S
C1000 C999 1.334 . S
C1000 C1001 1.287 . S
C1001 C1000 1.287 . S
C1001 C1002 1.524 . S
C1001 H1004 0.999 . S
C1002 H972 0.950 . S
C1002 C1001 1.524 . S
C1002 C1003 1.415 . S
C1003 H973 0.950 . S
C1003 C998 1.363 . S
C1003 C1002 1.415 . S
H1004 C1001 0.999 . S
H1005 C986 0.913 . S
H1006 C1024 0.951 . S
H1007 C1026 0.951 . S
H1008 C1028 0.950 1_655 S
H1009 C1029 0.950 . S
H1010 C1031 0.950 . S
H1011 C1034 0.950 . S
H1012 C1035 0.950 . S
H1013 C1037 0.950 . S
H1014 C1038 0.950 . S
H1015 C1039 0.951 . S
H1016 C1041 0.951 . S
H1017 C1043 0.950 1_455 S
H1018 C1044 0.950 . S
H1019 C1046 0.950 . S
H1020 C1049 0.950 . S
H1021 C1050 0.950 . S
H1022 C1052 0.950 . S
H1023 C1053 0.950 . S
C1024 H1006 0.951 . S
C1024 C1025 1.366 . S
C1024 C1026 1.388 . S
C1025 C1024 1.366 . S
C1025 C1029 1.385 . S
C1026 H1007 0.951 . S
C1026 C1024 1.388 . S
C1026 C1027 1.366 . S
C1027 C1026 1.366 . S
C1027 C1028 1.414 . S
C1027 C1030 1.499 . S
C1028 H1008 0.950 1_455 S
C1028 C1027 1.414 . S
C1028 C1029 1.374 . S
C1029 H1009 0.950 . S
C1029 C1025 1.385 . S
C1029 C1028 1.374 . S
C1030 C1027 1.499 . S
C1030 C1031 1.373 . S
C1030 C1032 1.389 . S
C1031 H1010 0.950 . S
C1031 C1030 1.373 . S
C1031 C1047 1.377 1_455 S
C1032 C1030 1.389 . S
C1032 C1033 1.524 . S
C1032 C1046 1.377 1_455 S
C1033 C1032 1.524 . S
C1033 C1034 1.397 1_455 S
C1033 C1038 1.363 . S
C1034 H1011 0.950 . S
C1034 C1033 1.397 1_655 S
C1034 C1035 1.334 . S
C1035 H1012 0.950 . S
C1035 C1034 1.334 . S
C1035 C1036 1.287 . S
C1036 C1035 1.287 . S
C1036 C1037 1.524 1_655 S
C1036 H1055 0.913 . S
C1037 H1013 0.950 . S
C1037 C1036 1.524 1_455 S
C1037 C1038 1.415 . S
C1038 H1014 0.950 . S
C1038 C1033 1.363 . S
C1038 C1037 1.415 . S
C1039 H1015 0.951 . S
C1039 C1040 1.366 . S
C1039 C1041 1.388 . S
C1040 C1039 1.366 . S
C1040 C1044 1.385 . S
C1041 H1016 0.951 . S
C1041 C1039 1.388 . S
C1041 C1042 1.366 . S
C1042 C1041 1.366 . S
C1042 C1043 1.414 . S
C1042 C1045 1.499 . S
C1043 H1017 0.950 1_655 S
C1043 C1042 1.414 . S
C1043 C1044 1.374 . S
C1044 H1018 0.950 . S
C1044 C1040 1.385 . S
C1044 C1043 1.374 . S
C1045 C1042 1.499 . S
C1045 C1046 1.373 . S
C1045 C1047 1.389 . S
C1046 H1019 0.950 . S
C1046 C1032 1.377 1_655 S
C1046 C1045 1.373 . S
C1047 C1031 1.377 1_655 S
C1047 C1045 1.389 . S
C1047 C1048 1.524 . S
C1048 C1047 1.524 . S
C1048 C1049 1.397 1_655 S
C1048 C1053 1.363 . S
C1049 H1020 0.950 . S
C1049 C1048 1.397 1_455 S
C1049 C1050 1.334 . S
C1050 H1021 0.950 . S
C1050 C1049 1.334 . S
C1050 C1051 1.287 . S
C1051 C1050 1.287 . S
C1051 C1052 1.524 1_455 S
C1051 H1054 0.999 . S
C1052 H1022 0.950 . S
C1052 C1051 1.524 1_655 S
C1052 C1053 1.415 . S
C1053 H1023 0.950 . S
C1053 C1048 1.363 . S
C1053 C1052 1.415 . S
H1054 C1051 0.999 . S
H1055 C1036 0.913 . S
H1056 C1074 0.951 . S
H1057 C1076 0.951 1_655 S
H1058 C1078 0.950 . S
H1059 C1079 0.950 . S
H1060 C1081 0.950 . S
H1061 C1084 0.962 . S
H1062 C1085 0.950 . S
H1063 C1087 0.950 . S
H1064 C1088 0.950 1_565 S
H1065 C1089 0.951 . S
H1066 C1091 0.951 1_455 S
H1067 C1093 0.950 . S
H1068 C1094 0.950 . S
H1069 C1096 0.950 . S
H1070 C1099 0.956 . S
H1071 C1100 0.950 . S
H1072 C1102 0.950 . S
H1073 C1103 0.950 1_545 S
C1074 H1056 0.951 . S
C1074 C1075 1.366 . S
C1074 C1076 1.388 . S
C1075 C1074 1.366 . S
C1075 C1079 1.385 . S
C1076 H1057 0.951 1_455 S
C1076 C1074 1.388 . S
C1076 C1077 1.366 . S
C1077 C1076 1.366 . S
C1077 C1078 1.414 . S
C1077 C1080 1.499 . S
C1078 H1058 0.950 . S
C1078 C1077 1.414 . S
C1078 C1079 1.374 . S
C1079 H1059 0.950 . S
C1079 C1075 1.385 . S
C1079 C1078 1.374 . S
C1080 C1077 1.499 . S
C1080 C1081 1.373 . S
C1080 C1082 1.389 1_455 S
C1081 H1060 0.950 . S
C1081 C1080 1.373 . S
C1081 C1097 1.377 1_545 S
C1082 C1080 1.389 1_655 S
C1082 C1083 1.524 . S
C1082 C1096 1.377 1_545 S
C1083 C1082 1.524 . S
C1083 C1084 1.397 . S
C1083 C1088 1.363 . S
C1084 H1061 0.962 . S
C1084 C1083 1.397 . S
C1084 C1085 1.334 . S
C1085 H1062 0.950 . S
C1085 C1084 1.334 . S
C1085 C1086 1.287 . S
C1086 C1085 1.287 . S
C1086 C1087 1.524 . S
C1086 H1105 0.913 . S
C1087 H1063 0.950 . S
C1087 C1086 1.524 . S
C1087 C1088 1.415 . S
C1088 H1064 0.950 1_545 S
C1088 C1083 1.363 . S
C1088 C1087 1.415 . S
C1089 H1065 0.951 . S
C1089 C1090 1.366 . S
C1089 C1091 1.388 . S
C1090 C1089 1.366 . S
C1090 C1094 1.385 . S
C1091 H1066 0.951 1_655 S
C1091 C1089 1.388 . S
C1091 C1092 1.366 . S
C1092 C1091 1.366 . S
C1092 C1093 1.414 . S
C1092 C1095 1.499 . S
C1093 H1067 0.950 . S
C1093 C1092 1.414 . S
C1093 C1094 1.374 . S
C1094 H1068 0.950 . S
C1094 C1090 1.385 . S
C1094 C1093 1.374 . S
C1095 C1092 1.499 . S
C1095 C1096 1.373 . S
C1095 C1097 1.389 1_655 S
C1096 H1069 0.950 . S
C1096 C1082 1.377 1_565 S
C1096 C1095 1.373 . S
C1097 C1081 1.377 1_565 S
C1097 C1095 1.389 1_455 S
C1097 C1098 1.524 . S
C1098 C1097 1.524 . S
C1098 C1099 1.397 . S
C1098 C1103 1.363 . S
C1099 H1070 0.956 . S
C1099 C1098 1.397 . S
C1099 C1100 1.334 . S
C1100 H1071 0.950 . S
C1100 C1099 1.334 . S
C1100 C1101 1.287 . S
C1101 C1100 1.287 . S
C1101 C1102 1.524 . S
C1101 H1104 0.999 . S
C1102 H1072 0.950 . S
C1102 C1101 1.524 . S
C1102 C1103 1.415 . S
C1103 H1073 0.950 1_565 S
C1103 C1098 1.363 . S
C1103 C1102 1.415 . S
H1104 C1101 0.999 . S
H1105 C1086 0.913 . S
H1106 C1124 0.952 . S
H1107 C1126 0.951 1_565 S
H1108 C1128 0.950 . S
H1109 C1129 0.950 . S
H1110 C1131 0.950 . S
H1111 C1134 0.950 . S
H1112 C1135 0.950 . S
H1113 C1137 0.950 . S
H1114 C1138 0.950 . S
H1115 C1139 0.953 . S
H1116 C1141 0.951 1_545 S
H1117 C1143 0.950 . S
H1118 C1144 0.950 . S
H1119 C1146 0.950 . S
H1120 C1149 0.950 . S
H1121 C1150 0.950 . S
H1122 C1152 0.950 . S
H1123 C1153 0.950 . S
C1124 H1106 0.952 . S
C1124 C1125 1.366 . S
C1124 C1126 1.388 . S
C1125 C1124 1.366 . S
C1125 C1129 1.385 . S
C1126 H1107 0.951 1_545 S
C1126 C1124 1.388 . S
C1126 C1127 1.366 . S
C1127 C1126 1.366 . S
C1127 C1128 1.414 . S
C1127 C1130 1.499 . S
C1128 H1108 0.950 . S
C1128 C1127 1.414 . S
C1128 C1129 1.374 . S
C1129 H1109 0.950 . S
C1129 C1125 1.385 . S
C1129 C1128 1.374 . S
C1130 C1127 1.499 . S
C1130 C1131 1.373 . S
C1130 C1132 1.389 1_545 S
C1131 H1110 0.950 . S
C1131 C1130 1.373 . S
C1131 C1147 1.377 1_655 S
C1132 C1130 1.389 1_565 S
C1132 C1133 1.524 . S
C1132 C1146 1.377 1_655 S
C1133 C1132 1.524 . S
C1133 C1134 1.397 1_565 S
C1133 C1138 1.363 . S
C1134 H1111 0.950 . S
C1134 C1133 1.397 1_545 S
C1134 C1135 1.334 . S
C1135 H1112 0.950 . S
C1135 C1134 1.334 . S
C1135 C1136 1.287 1_545 S
C1136 C1135 1.287 1_565 S
C1136 C1137 1.524 . S
C1136 H1155 0.913 . S
C1137 H1113 0.950 . S
C1137 C1136 1.524 . S
C1137 C1138 1.415 . S
C1138 H1114 0.950 . S
C1138 C1133 1.363 . S
C1138 C1137 1.415 . S
C1139 H1115 0.953 . S
C1139 C1140 1.366 . S
C1139 C1141 1.388 . S
C1140 C1139 1.366 . S
C1140 C1144 1.385 . S
C1141 H1116 0.951 1_565 S
C1141 C1139 1.388 . S
C1141 C1142 1.366 . S
C1142 C1141 1.366 . S
C1142 C1143 1.414 . S
C1142 C1145 1.499 . S
C1143 H1117 0.950 . S
C1143 C1142 1.414 . S
C1143 C1144 1.374 . S
C1144 H1118 0.950 . S
C1144 C1140 1.385 . S
C1144 C1143 1.374 . S
C1145 C1142 1.499 . S
C1145 C1146 1.373 . S
C1145 C1147 1.389 1_565 S
C1146 H1119 0.950 . S
C1146 C1132 1.377 1_455 S
C1146 C1145 1.373 . S
C1147 C1131 1.377 1_455 S
C1147 C1145 1.389 1_545 S
C1147 C1148 1.524 . S
C1148 C1147 1.524 . S
C1148 C1149 1.397 1_545 S
C1148 C1153 1.363 . S
C1149 H1120 0.950 . S
C1149 C1148 1.397 1_565 S
C1149 C1150 1.334 . S
C1150 H1121 0.950 . S
C1150 C1149 1.334 . S
C1150 C1151 1.287 1_565 S
C1151 C1150 1.287 1_545 S
C1151 C1152 1.524 . S
C1151 H1154 0.999 . S
C1152 H1122 0.950 . S
C1152 C1151 1.524 . S
C1152 C1153 1.415 . S
C1153 H1123 0.950 . S
C1153 C1148 1.363 . S
C1153 C1152 1.415 . S
H1154 C1151 0.999 . S
H1155 C1136 0.913 . S
H1156 C1174 0.951 . S
H1157 C1176 0.951 . S
H1158 C1178 0.950 . S
H1159 C1179 0.950 . S
H1160 C1181 0.950 . S
H1161 C1184 0.950 . S
H1162 C1185 0.950 . S
H1163 C1187 0.950 . S
H1164 C1188 0.950 . S
H1165 C1189 0.951 . S
H1166 C1191 0.951 . S
H1167 C1193 0.950 . S
H1168 C1194 0.950 . S
H1169 C1196 0.950 . S
H1170 C1199 0.950 . S
H1171 C1200 0.950 . S
H1172 C1202 0.950 . S
H1173 C1203 0.950 . S
C1174 H1156 0.951 . S
C1174 C1175 1.366 . S
C1174 C1176 1.388 . S
C1175 C1174 1.366 . S
C1175 C1179 1.385 . S
C1176 H1157 0.951 . S
C1176 C1174 1.388 . S
C1176 C1177 1.366 . S
C1177 C1176 1.366 . S
C1177 C1178 1.414 . S
C1177 C1180 1.499 . S
C1178 H1158 0.950 . S
C1178 C1177 1.414 . S
C1178 C1179 1.374 . S
C1179 H1159 0.950 . S
C1179 C1175 1.385 . S
C1179 C1178 1.374 . S
C1180 C1177 1.499 . S
C1180 C1181 1.373 . S
C1180 C1182 1.406 . S
C1181 H1160 0.950 . S
C1181 C1180 1.373 . S
C1181 C1197 1.370 1_445 S
C1182 C1180 1.406 . S
C1182 C1183 1.517 . S
C1182 C1196 1.369 1_445 S
C1183 C1182 1.517 . S
C1183 C1184 1.397 . S
C1183 C1188 1.363 1_545 S
C1184 H1161 0.950 . S
C1184 C1183 1.397 . S
C1184 C1185 1.334 . S
C1185 H1162 0.950 . S
C1185 C1184 1.334 . S
C1185 C1186 1.287 . S
C1186 C1185 1.287 . S
C1186 C1187 1.524 1_545 S
C1186 H1205 0.913 . S
C1187 H1163 0.950 . S
C1187 C1186 1.524 1_565 S
C1187 C1188 1.415 . S
C1188 H1164 0.950 . S
C1188 C1183 1.363 1_565 S
C1188 C1187 1.415 . S
C1189 H1165 0.951 . S
C1189 C1190 1.366 . S
C1189 C1191 1.388 . S
C1190 C1189 1.366 . S
C1190 C1194 1.385 . S
C1191 H1166 0.951 . S
C1191 C1189 1.388 . S
C1191 C1192 1.366 . S
C1192 C1191 1.366 . S
C1192 C1193 1.414 . S
C1192 C1195 1.499 . S
C1193 H1167 0.950 . S
C1193 C1192 1.414 . S
C1193 C1194 1.374 . S
C1194 H1168 0.950 . S
C1194 C1190 1.385 . S
C1194 C1193 1.374 . S
C1195 C1192 1.499 . S
C1195 C1196 1.373 . S
C1195 C1197 1.405 . S
C1196 H1169 0.950 . S
C1196 C1182 1.369 1_665 S
C1196 C1195 1.373 . S
C1197 C1181 1.370 1_665 S
C1197 C1195 1.405 . S
C1197 C1198 1.517 . S
C1198 C1197 1.517 . S
C1198 C1199 1.397 . S
C1198 C1203 1.363 1_565 S
C1199 H1170 0.950 . S
C1199 C1198 1.397 . S
C1199 C1200 1.334 . S
C1200 H1171 0.950 . S
C1200 C1199 1.334 . S
C1200 C1201 1.287 . S
C1201 C1200 1.287 . S
C1201 C1202 1.524 1_565 S
C1201 H1204 0.999 . S
C1202 H1172 0.950 . S
C1202 C1201 1.524 1_545 S
C1202 C1203 1.415 . S
C1203 H1173 0.950 . S
C1203 C1198 1.363 1_545 S
C1203 C1202 1.415 . S
H1204 C1201 0.999 . S
H1205 C1186 0.913 . S
H1206 C1224 0.951 . S
H1207 C1226 0.951 1_545 S
H1208 C1228 0.950 . S
H1209 C1229 0.950 . S
H1210 C1231 0.950 . S
H1211 C1234 0.968 . S
H1212 C1235 0.950 . S
H1213 C1237 0.950 . S
H1214 C1238 0.950 1_455 S
H1215 C1239 0.951 . S
H1216 C1241 0.951 1_565 S
H1217 C1243 0.950 . S
H1218 C1244 0.950 . S
H1219 C1246 0.950 . S
H1220 C1249 0.962 . S
H1221 C1250 0.950 . S
H1222 C1252 0.950 . S
H1223 C1253 0.950 1_655 S
C1224 H1206 0.951 . S
C1224 C1225 1.366 . S
C1224 C1226 1.388 . S
C1225 C1224 1.366 . S
C1225 C1229 1.385 . S
C1226 H1207 0.951 1_565 S
C1226 C1224 1.388 . S
C1226 C1227 1.366 . S
C1227 C1226 1.366 . S
C1227 C1228 1.414 . S
C1227 C1230 1.499 . S
C1228 H1208 0.950 . S
C1228 C1227 1.414 . S
C1228 C1229 1.374 . S
C1229 H1209 0.950 . S
C1229 C1225 1.385 . S
C1229 C1228 1.374 . S
C1230 C1227 1.499 . S
C1230 C1231 1.373 . S
C1230 C1232 1.389 1_565 S
C1231 H1210 0.950 . S
C1231 C1230 1.373 . S
C1231 C1247 1.377 1_655 S
C1232 C1230 1.389 1_545 S
C1232 C1233 1.524 . S
C1232 C1246 1.377 1_655 S
C1233 C1232 1.524 . S
C1233 C1234 1.397 . S
C1233 C1238 1.363 . S
C1234 H1211 0.968 . S
C1234 C1233 1.397 . S
C1234 C1235 1.334 . S
C1235 H1212 0.950 . S
C1235 C1234 1.334 . S
C1235 C1236 1.287 . S
C1236 C1235 1.287 . S
C1236 C1237 1.524 . S
C1236 H1255 0.913 . S
C1237 H1213 0.950 . S
C1237 C1236 1.524 . S
C1237 C1238 1.415 . S
C1238 H1214 0.950 1_655 S
C1238 C1233 1.363 . S
C1238 C1237 1.415 . S
C1239 H1215 0.951 . S
C1239 C1240 1.366 . S
C1239 C1241 1.388 . S
C1240 C1239 1.366 . S
C1240 C1244 1.385 . S
C1241 H1216 0.951 1_545 S
C1241 C1239 1.388 . S
C1241 C1242 1.366 . S
C1242 C1241 1.366 . S
C1242 C1243 1.414 . S
C1242 C1245 1.499 . S
C1243 H1217 0.950 . S
C1243 C1242 1.414 . S
C1243 C1244 1.374 . S
C1244 H1218 0.950 . S
C1244 C1240 1.385 . S
C1244 C1243 1.374 . S
C1245 C1242 1.499 . S
C1245 C1246 1.373 . S
C1245 C1247 1.389 1_545 S
C1246 H1219 0.950 . S
C1246 C1232 1.377 1_455 S
C1246 C1245 1.373 . S
C1247 C1231 1.377 1_455 S
C1247 C1245 1.389 1_565 S
C1247 C1248 1.524 . S
C1248 C1247 1.524 . S
C1248 C1249 1.397 . S
C1248 C1253 1.363 . S
C1249 H1220 0.962 . S
C1249 C1248 1.397 . S
C1249 C1250 1.334 . S
C1250 H1221 0.950 . S
C1250 C1249 1.334 . S
C1250 C1251 1.287 . S
C1251 C1250 1.287 . S
C1251 C1252 1.524 . S
C1251 H1254 0.999 . S
C1252 H1222 0.950 . S
C1252 C1251 1.524 . S
C1252 C1253 1.415 . S
C1253 H1223 0.950 1_455 S
C1253 C1248 1.363 . S
C1253 C1252 1.415 . S
H1254 C1251 0.999 . S
H1255 C1236 0.913 . S
H1256 C1274 0.951 . S
H1257 C1276 0.951 . S
H1258 C1278 0.950 . S
H1259 C1279 0.950 . S
H1260 C1281 0.950 . S
H1261 C1284 0.950 . S
H1262 C1285 0.950 . S
H1263 C1287 0.950 . S
H1264 C1288 0.950 1_545 S
H1265 C1289 0.951 . S
H1266 C1291 0.951 . S
H1267 C1293 0.950 . S
H1268 C1294 0.950 . S
H1269 C1296 0.950 . S
H1270 C1299 0.950 . S
H1271 C1300 0.950 . S
H1272 C1302 0.950 . S
H1273 C1303 0.950 1_565 S
C1274 H1256 0.951 . S
C1274 C1275 1.366 . S
C1274 C1276 1.388 . S
C1275 C1274 1.366 . S
C1275 C1279 1.385 . S
C1276 H1257 0.951 . S
C1276 C1274 1.388 . S
C1276 C1277 1.366 . S
C1277 C1276 1.366 . S
C1277 C1278 1.414 . S
C1277 C1280 1.499 . S
C1278 H1258 0.950 . S
C1278 C1277 1.414 . S
C1278 C1279 1.374 . S
C1279 H1259 0.950 . S
C1279 C1275 1.385 . S
C1279 C1278 1.374 . S
C1280 C1277 1.499 . S
C1280 C1281 1.373 1_655 S
C1280 C1282 1.389 . S
C1281 H1260 0.950 . S
C1281 C1280 1.373 1_455 S
C1281 C1297 1.377 1_565 S
C1282 C1280 1.389 . S
C1282 C1283 1.524 . S
C1282 C1296 1.377 1_565 S
C1283 C1282 1.524 . S
C1283 C1284 1.397 . S
C1283 C1288 1.363 . S
C1284 H1261 0.950 . S
C1284 C1283 1.397 . S
C1284 C1285 1.334 . S
C1285 H1262 0.950 . S
C1285 C1284 1.334 . S
C1285 C1286 1.287 . S
C1286 C1285 1.287 . S
C1286 C1287 1.524 . S
C1286 H1305 0.913 . S
C1287 H1263 0.950 . S
C1287 C1286 1.524 . S
C1287 C1288 1.415 . S
C1288 H1264 0.950 1_565 S
C1288 C1283 1.363 . S
C1288 C1287 1.415 . S
C1289 H1265 0.951 . S
C1289 C1290 1.366 . S
C1289 C1291 1.388 . S
C1290 C1289 1.366 . S
C1290 C1294 1.385 . S
C1291 H1266 0.951 . S
C1291 C1289 1.388 . S
C1291 C1292 1.366 . S
C1292 C1291 1.366 . S
C1292 C1293 1.414 . S
C1292 C1295 1.499 . S
C1293 H1267 0.950 . S
C1293 C1292 1.414 . S
C1293 C1294 1.374 . S
C1294 H1268 0.950 . S
C1294 C1290 1.385 . S
C1294 C1293 1.374 . S
C1295 C1292 1.499 . S
C1295 C1296 1.373 1_455 S
C1295 C1297 1.389 . S
C1296 H1269 0.950 . S
C1296 C1282 1.377 1_545 S
C1296 C1295 1.373 1_655 S
C1297 C1281 1.377 1_545 S
C1297 C1295 1.389 . S
C1297 C1298 1.524 . S
C1298 C1297 1.524 . S
C1298 C1299 1.397 . S
C1298 C1303 1.363 . S
C1299 H1270 0.950 . S
C1299 C1298 1.397 . S
C1299 C1300 1.334 . S
C1300 H1271 0.950 . S
C1300 C1299 1.334 . S
C1300 C1301 1.287 . S
C1301 C1300 1.287 . S
C1301 C1302 1.524 . S
C1301 H1304 0.999 . S
C1302 H1272 0.950 . S
C1302 C1301 1.524 . S
C1302 C1303 1.415 . S
C1303 H1273 0.950 1_545 S
C1303 C1298 1.363 . S
C1303 C1302 1.415 . S
H1304 C1301 0.999 . S
H1305 C1286 0.913 . S
H1306 C1324 0.951 . S
H1307 C1326 0.951 . S
H1308 C1328 0.960 . S
H1309 C1329 0.950 . S
H1310 C1331 0.950 . S
H1311 C1334 0.950 . S
H1312 C1335 0.950 . S
H1313 C1337 0.950 . S
H1314 C1338 0.950 . S
H1315 C1339 0.951 . S
H1316 C1341 0.951 . S
H1317 C1343 0.957 . S
H1318 C1344 0.950 . S
H1319 C1346 0.950 . S
H1320 C1349 0.950 . S
H1321 C1350 0.950 . S
H1322 C1352 0.950 . S
H1323 C1353 0.950 . S
C1324 H1306 0.951 . S
C1324 C1325 1.366 . S
C1324 C1326 1.388 . S
C1325 C1324 1.366 . S
C1325 C1329 1.385 . S
C1326 H1307 0.951 . S
C1326 C1324 1.388 . S
C1326 C1327 1.366 . S
C1327 C1326 1.366 . S
C1327 C1328 1.414 . S
C1327 C1330 1.499 . S
C1328 H1308 0.960 . S
C1328 C1327 1.414 . S
C1328 C1329 1.374 . S
C1329 H1309 0.950 . S
C1329 C1325 1.385 . S
C1329 C1328 1.374 . S
C1330 C1327 1.499 . S
C1330 C1331 1.373 1_455 S
C1330 C1332 1.389 1_565 S
C1331 H1310 0.950 . S
C1331 C1330 1.373 1_655 S
C1331 C1347 1.377 . S
C1332 C1330 1.389 1_545 S
C1332 C1333 1.524 . S
C1332 C1346 1.377 . S
C1333 C1332 1.524 . S
C1333 C1334 1.397 . S
C1333 C1338 1.363 . S
C1334 H1311 0.950 . S
C1334 C1333 1.397 . S
C1334 C1335 1.334 . S
C1335 H1312 0.950 . S
C1335 C1334 1.334 . S
C1335 C1336 1.287 . S
C1336 C1335 1.287 . S
C1336 C1337 1.524 . S
C1336 H1355 0.913 . S
C1337 H1313 0.950 . S
C1337 C1336 1.524 . S
C1337 C1338 1.415 . S
C1338 H1314 0.950 . S
C1338 C1333 1.363 . S
C1338 C1337 1.415 . S
C1339 H1315 0.951 . S
C1339 C1340 1.366 . S
C1339 C1341 1.388 . S
C1340 C1339 1.366 . S
C1340 C1344 1.385 . S
C1341 H1316 0.951 . S
C1341 C1339 1.388 . S
C1341 C1342 1.366 . S
C1342 C1341 1.366 . S
C1342 C1343 1.414 . S
C1342 C1345 1.499 . S
C1343 H1317 0.957 . S
C1343 C1342 1.414 . S
C1343 C1344 1.374 . S
C1344 H1318 0.950 . S
C1344 C1340 1.385 . S
C1344 C1343 1.374 . S
C1345 C1342 1.499 . S
C1345 C1346 1.373 1_655 S
C1345 C1347 1.389 1_545 S
C1346 H1319 0.950 . S
C1346 C1332 1.377 . S
C1346 C1345 1.373 1_455 S
C1347 C1331 1.377 . S
C1347 C1345 1.389 1_565 S
C1347 C1348 1.524 . S
C1348 C1347 1.524 . S
C1348 C1349 1.397 . S
C1348 C1353 1.363 . S
C1349 H1320 0.950 . S
C1349 C1348 1.397 . S
C1349 C1350 1.334 . S
C1350 H1321 0.950 . S
C1350 C1349 1.334 . S
C1350 C1351 1.287 . S
C1351 C1350 1.287 . S
C1351 C1352 1.524 . S
C1351 H1354 0.999 . S
C1352 H1322 0.950 . S
C1352 C1351 1.524 . S
C1352 C1353 1.415 . S
C1353 H1323 0.950 . S
C1353 C1348 1.363 . S
C1353 C1352 1.415 . S
H1354 C1351 0.999 . S
H1355 C1336 0.913 . S
C175 C144 1.510 . S
C190 C1 1.510 . S
C225 C14 1.510 . S
C240 C79 1.510 . S
C275 C27 1.510 . S
C290 C92 1.510 . S
C325 C40 1.510 . S
C340 C105 1.510 . S
C375 C118 1.510 . S
C390 C53 1.510 . S
C425 C66 1.510 . S
C440 C131 1.510 . S
C475 C3 1.517 . S
C490 C133 1.517 . S
C525 C16 1.517 . S
C540 C146 1.517 . S
C575 C29 1.517 . S
C590 C81 1.517 . S
C625 C42 1.518 . S
C640 C94 1.518 . S
C675 C107 1.517 . S
C690 C55 1.517 . S
C725 C120 1.518 . S
C740 C68 1.517 . S
C775 C44 1.793 . S
C790 C5 1.793 . S
C825 C18 1.793 . S
C840 C57 1.793 . S
C875 C70 1.793 . S
C890 C31 1.793 . S
C925 C122 1.793 . S
C940 C83 1.793 . S
C975 C135 1.793 . S
C990 C96 1.793 . S
C1025 C109 1.793 . S
C1040 C148 1.793 . S
C1075 C10 1.657 . S
C1090 C49 1.657 . S
C1125 C23 1.656 . S
C1140 C62 1.656 . S
C1175 C75 1.656 . S
C1190 C36 1.656 . S
C1225 C88 1.657 . S
C1240 C127 1.657 . S
C1275 C101 1.656 . S
C1290 C140 1.656 . S
C1325 C114 1.656 . S
C1340 C153 1.656 . S
