# Generated by pormake.
# Topology smk, (6)-cn, num edge types: 1
# Building blocks:
#     Node 0, Type 0, BuildingBlock: FUNLAD_clean_sbu_0, # of connection points: 6
#     Node 1, Type 0, BuildingBlock: FUNLAD_clean_sbu_0, # of connection points: 6
#     Node 2, Type 0, BuildingBlock: FUNLAD_clean_sbu_0, # of connection points: 6
#     Node 3, Type 0, BuildingBlock: FUNLAD_clean_sbu_0, # of connection points: 6
#     Node 4, Type 0, BuildingBlock: FUNLAD_clean_sbu_0, # of connection points: 6
#     Node 5, Type 0, BuildingBlock: FUNLAD_clean_sbu_0, # of connection points: 6
#     Edge 6, Type (0, 0), BuildingBlock: EZIPEK_clean_linker_0, # of connection points: 2
#     Edge 7, Type (0, 0), BuildingBlock: EZIPEK_clean_linker_0, # of connection points: 2
#     Edge 8, Type (0, 0), BuildingBlock: EZIPEK_clean_linker_0, # of connection points: 2
#     Edge 9, Type (0, 0), BuildingBlock: EZIPEK_clean_linker_0, # of connection points: 2
#     Edge 10, Type (0, 0), BuildingBlock: EZIPEK_clean_linker_0, # of connection points: 2
#     Edge 11, Type (0, 0), BuildingBlock: EZIPEK_clean_linker_0, # of connection points: 2
#     Edge 12, Type (0, 0), BuildingBlock: EZIPEK_clean_linker_0, # of connection points: 2
#     Edge 13, Type (0, 0), BuildingBlock: EZIPEK_clean_linker_0, # of connection points: 2
#     Edge 14, Type (0, 0), BuildingBlock: EZIPEK_clean_linker_0, # of connection points: 2
#     Edge 15, Type (0, 0), BuildingBlock: EZIPEK_clean_linker_0, # of connection points: 2
#     Edge 16, Type (0, 0), BuildingBlock: EZIPEK_clean_linker_0, # of connection points: 2
#     Edge 17, Type (0, 0), BuildingBlock: EZIPEK_clean_linker_0, # of connection points: 2
#     Edge 18, Type (0, 0), BuildingBlock: EZIPEK_clean_linker_0, # of connection points: 2
#     Edge 19, Type (0, 0), BuildingBlock: EZIPEK_clean_linker_0, # of connection points: 2
#     Edge 20, Type (0, 0), BuildingBlock: EZIPEK_clean_linker_0, # of connection points: 2
#     Edge 21, Type (0, 0), BuildingBlock: EZIPEK_clean_linker_0, # of connection points: 2
#     Edge 22, Type (0, 0), BuildingBlock: EZIPEK_clean_linker_0, # of connection points: 2
#     Edge 23, Type (0, 0), BuildingBlock: EZIPEK_clean_linker_0, # of connection points: 2
# Relax obj value: 0.455
# Max RMSD: 0.251
# Mean RMSD: 0.251
data_MOF--net-smk--node1-FUNLAD_clean_sbu_0--edge1-EZIPEK_clean_linker_0
_symmetry_space_group_name_H-M    P1
_symmetry_Int_Tables_number       1
_symmetry_cell_setting            triclinic
loop_
_symmetry_equiv_pos_as_xyz
'x, y, z'
_cell_length_a     37.402897
_cell_length_b     37.615667
_cell_length_c     10.883072
_cell_angle_alpha  89.856358
_cell_angle_beta   89.874491
_cell_angle_gamma 119.75001
loop_
_atom_site_label
_atom_site_type_symbol
_atom_site_fract_x
_atom_site_fract_y
_atom_site_fract_z
_atom_type_partial_charge
C0 C 0.47647 0.27303 0.37821 0.0
N1 N 0.55106 0.36695 0.60586 0.0
C2 C 0.58098 0.36296 0.5459 0.0
C3 C 0.61804 0.39701 0.51242 0.0
C4 C 0.62488 0.43613 0.53875 0.0
C5 C 0.59414 0.4402 0.60135 0.0
C6 C 0.55706 0.40481 0.63445 0.0
Zn7 Zn 0.49613 0.31152 0.62296 0.0
C8 C 0.42001 0.31742 0.58897 0.0
N9 N 0.38796 0.19081 0.61131 0.0
C10 C 0.39585 0.16238 0.5597 0.0
C11 C 0.34835 0.18215 0.63029 0.0
C12 C 0.31518 0.14409 0.59412 0.0
C13 C 0.32312 0.11484 0.53942 0.0
C14 C 0.36399 0.12423 0.52449 0.0
Zn15 Zn 0.4396 0.24904 0.62434 0.0
O16 O 0.50079 0.30525 0.43533 0.0
C17 C 0.51545 0.24464 0.68208 0.0
O18 O 0.44699 0.24457 0.43712 0.0
H19 H 0.34238 0.20524 0.66833 0.0
H20 H 0.57578 0.33323 0.5186 0.0
H21 H 0.42698 0.1698 0.53857 0.0
O22 O 0.53148 0.28278 0.66361 0.0
O23 O 0.47695 0.22184 0.66791 0.0
H24 H 0.53282 0.40768 0.67961 0.0
O25 O 0.43373 0.2551 0.81077 0.0
O26 O 0.48953 0.31594 0.81026 0.0
O27 O 0.40349 0.27847 0.59139 0.0
O28 O 0.45913 0.33951 0.59294 0.0
C29 C 0.45917 0.28729 0.86819 0.0
H30 H 0.64097 0.39282 0.46364 0.0
H31 H 0.59862 0.47022 0.62288 0.0
H32 H 0.28385 0.13792 0.60589 0.0
H33 H 0.37128 0.10265 0.48128 0.0
C34 C 0.29502 0.45905 0.89282 0.0
N35 N 0.38754 0.53769 0.66905 0.0
C36 C 0.41181 0.53617 0.7599 0.0
C37 C 0.44504 0.57214 0.80514 0.0
C38 C 0.45345 0.60998 0.75612 0.0
C39 C 0.43014 0.61067 0.65624 0.0
C40 C 0.39704 0.5739 0.6138 0.0
Zn41 Zn 0.32929 0.48716 0.65178 0.0
C42 C 0.33072 0.40717 0.64813 0.0
N43 N 0.20519 0.38363 0.65723 0.0
C44 C 0.18172 0.39122 0.73751 0.0
C45 C 0.18899 0.34697 0.59796 0.0
C46 C 0.14774 0.31652 0.61938 0.0
C47 C 0.12343 0.32429 0.70198 0.0
C48 C 0.14089 0.36215 0.76062 0.0
Zn49 Zn 0.26578 0.43167 0.64789 0.0
O50 O 0.32477 0.48811 0.8373 0.0
C51 C 0.26512 0.51178 0.62884 0.0
O52 O 0.26604 0.43015 0.83532 0.0
H53 H 0.20802 0.34115 0.53549 0.0
H54 H 0.40349 0.50735 0.80441 0.0
H55 H 0.19478 0.41988 0.78643 0.0
O56 O 0.30391 0.52679 0.6323 0.0
O57 O 0.24196 0.47347 0.64403 0.0
H58 H 0.3773 0.5747 0.5427 0.0
O59 O 0.2676 0.43406 0.46199 0.0
O60 O 0.33243 0.48536 0.46628 0.0
O61 O 0.29169 0.39169 0.64085 0.0
O62 O 0.3533 0.44575 0.66289 0.0
C63 C 0.30061 0.45984 0.40807 0.0
H64 H 0.46252 0.57064 0.88221 0.0
H65 H 0.43602 0.63949 0.61628 0.0
H66 H 0.13504 0.28738 0.5727 0.0
H67 H 0.12308 0.36903 0.8252 0.0
C68 C 0.78624 0.20228 0.73173 0.0
N69 N 0.69579 0.18991 0.96492 0.0
C70 C 0.68807 0.21776 0.0211 0.0
C71 C 0.65467 0.22228 -0.01587 0.0
C72 C 0.629 0.19776 0.88921 0.0
C73 C 0.63558 0.16708 0.84007 0.0
C74 C 0.6694 0.16374 0.87914 0.0
Zn75 Zn 0.75375 0.19565 -0.02538 0.0
C76 C 0.75176 0.11464 -0.02414 0.0
N77 N 0.87678 0.21201 0.96118 0.0
C78 C 0.88316 0.18886 0.87715 0.0
C79 C 0.90923 0.2451 0.01377 0.0
C80 C 0.9496 0.2577 -0.02449 0.0
C81 C 0.95656 0.23605 0.88251 0.0
C82 C 0.92299 0.20041 0.83627 0.0
Zn83 Zn 0.81769 0.20375 -0.02572 0.0
O84 O 0.75614 0.20056 0.78903 0.0
C85 C 0.81939 0.2842 -0.00588 0.0
O86 O 0.81612 0.20298 0.78719 0.0
H87 H 0.90378 0.2634 0.07941 0.0
H88 H 0.70937 0.23848 0.08849 0.0
H89 H 0.85715 0.16306 0.83473 0.0
O90 O 0.78062 0.26044 -0.00718 0.0
O91 O 0.84294 0.26926 -0.02401 0.0
H92 H 0.6763 0.14231 0.8337 0.0
O93 O 0.81746 0.20424 0.16087 0.0
O94 O 0.7526 0.19139 0.15988 0.0
O95 O 0.79068 0.13814 -0.01892 0.0
O96 O 0.72858 0.1304 0.9641 0.0
C97 C 0.7848 0.19758 0.21642 0.0
H98 H 0.6503 0.2462 0.02417 0.0
H99 H 0.61631 0.14767 0.7667 0.0
H100 H 0.97493 0.28539 0.013 0.0
H101 H 0.92734 0.18309 0.7642 0.0
C102 C 0.61706 0.84498 0.25125 0.0
N103 N 0.53538 0.85926 0.0385 0.0
C104 C 0.50377 0.82579 0.09386 0.0
C105 C 0.46827 0.82588 0.1314 0.0
C106 C 0.46533 0.86129 0.11762 0.0
C107 C 0.49827 0.89585 0.06179 0.0
C108 C 0.53306 0.89399 0.02123 0.0
Zn109 Zn 0.58855 0.85549 0.01026 0.0
C110 C 0.66679 0.93645 0.02356 0.0
N111 N 0.6957 0.83873 0.0066 0.0
C112 C 0.68854 0.80441 0.06973 0.0
C113 C 0.73446 0.86594 0.96637 0.0
C114 C 0.76758 0.85912 -0.00867 0.0
C115 C 0.76037 0.82396 0.05757 0.0
C116 C 0.72023 0.79633 0.095 0.0
Zn117 Zn 0.64486 0.8477 0.00578 0.0
O118 O 0.58978 0.84938 0.19669 0.0
C119 C 0.56701 0.76784 0.96872 0.0
O120 O 0.64449 0.84204 0.19235 0.0
H121 H 0.74003 0.89357 0.91915 0.0
H122 H 0.50637 0.79917 0.11499 0.0
H123 H 0.65842 0.78382 0.10691 0.0
O124 O 0.55155 0.79089 -0.01717 0.0
O125 O 0.60552 0.7829 -0.01812 0.0
H126 H 0.55867 0.92075 -0.01978 0.0
O127 O 0.64344 0.85373 0.81746 0.0
O128 O 0.58842 0.8619 0.82578 0.0
O129 O 0.6828 0.91332 0.02282 0.0
O130 O 0.62766 0.92021 0.02512 0.0
C131 C 0.61559 0.85846 0.76526 0.0
H132 H 0.44381 0.79884 0.17561 0.0
H133 H 0.49724 0.92396 0.05111 0.0
H134 H 0.79845 0.88134 0.96203 0.0
H135 H 0.71362 0.76919 0.14743 0.0
C136 C 0.85651 0.59608 0.05707 0.0
N137 N 0.87957 0.52061 0.27324 0.0
C138 C 0.90165 0.52029 0.17373 0.0
C139 C 0.89689 0.48342 0.12844 0.0
C140 C 0.86936 0.44651 0.18645 0.0
C141 C 0.84917 0.44775 0.29392 0.0
C142 C 0.85468 0.48537 0.33596 0.0
Zn143 Zn 0.87386 0.57239 0.29586 0.0
C144 C 0.95532 0.65092 0.27641 0.0
N145 N 0.85684 0.67823 0.30205 0.0
C146 C 0.8206 0.66977 0.24796 0.0
C147 C 0.88595 0.71774 0.32672 0.0
C148 C 0.87924 0.75024 0.29403 0.0
C149 C 0.84217 0.74172 0.23658 0.0
C150 C 0.81254 0.70091 0.21583 0.0
Zn151 Zn 0.86676 0.62828 0.30837 0.0
O152 O 0.86337 0.57014 0.10999 0.0
C153 C 0.78678 0.54966 0.351 0.0
O154 O 0.85746 0.62464 0.11997 0.0
H155 H 0.91505 0.72427 0.36647 0.0
H156 H 0.92073 0.54834 0.12351 0.0
H157 H 0.79844 0.63888 0.2221 0.0
O158 O 0.80938 0.53393 0.32987 0.0
O159 O 0.80234 0.58822 0.34421 0.0
H160 H 0.83695 0.48599 0.41377 0.0
O161 O 0.87643 0.63063 0.49463 0.0
O162 O 0.88402 0.57623 0.48355 0.0
O163 O 0.93219 0.66681 0.28525 0.0
O164 O 0.93888 0.61209 0.26939 0.0
C165 C 0.88412 0.60474 0.54655 0.0
H166 H 0.91297 0.48349 0.04544 0.0
H167 H 0.82777 0.41972 0.341 0.0
H168 H 0.90301 0.78157 0.31031 0.0
H169 H 0.78386 0.69324 0.17033 0.0
C170 C 0.22453 0.79243 0.56981 0.0
N171 N 0.2185 0.69918 0.36342 0.0
C172 C 0.2529 0.70386 0.42143 0.0
C173 C 0.2558 0.67018 0.46074 0.0
C174 C 0.22235 0.63069 0.44665 0.0
C175 C 0.18667 0.62613 0.38876 0.0
C176 C 0.18556 0.66099 0.34627 0.0
Zn177 Zn 0.21852 0.75402 0.32975 0.0
C178 C 0.13433 0.74663 0.3339 0.0
N179 N 0.22825 0.87437 0.31934 0.0
C180 C 0.26089 0.90165 0.38777 0.0
C181 C 0.20149 0.88528 0.27036 0.0
C182 C 0.20716 0.92479 0.29118 0.0
C183 C 0.24073 0.95289 0.36231 0.0
C184 C 0.26783 0.94092 0.40918 0.0
Zn185 Zn 0.22202 0.81601 0.32232 0.0
O186 O 0.22307 0.76206 0.5162 0.0
C187 C 0.30537 0.82327 0.29551 0.0
O188 O 0.22486 0.82128 0.5099 0.0
H189 H 0.17516 0.86313 0.21871 0.0
H190 H 0.27799 0.73384 0.44297 0.0
H191 H 0.28106 0.89268 0.43152 0.0
O192 O 0.28395 0.7847 0.30627 0.0
O193 O 0.28783 0.84453 0.30595 0.0
H194 H 0.15795 0.65753 0.30344 0.0
O195 O 0.21858 0.80823 0.1335 0.0
O196 O 0.2138 0.74683 0.1448 0.0
O197 O 0.15579 0.78569 0.3318 0.0
O198 O 0.15255 0.72554 0.34048 0.0
C199 C 0.21556 0.77631 0.08283 0.0
H200 H 0.28363 0.67508 0.50624 0.0
H201 H 0.15996 0.59604 0.37752 0.0
H202 H 0.18536 0.93304 0.2545 0.0
H203 H 0.29372 0.96158 0.4655 0.0
C204 C 0.50495 0.30893 0.17895 0.0
C205 C 0.47703 0.27264 0.24203 0.0
C206 C 0.43047 0.25116 0.06752 0.0
C207 C 0.45842 0.28749 0.00444 0.0
N208 N 0.51153 0.35809 0.02552 0.0
N209 N 0.42372 0.20209 0.22168 0.0
C210 C 0.49265 0.31865 0.06748 0.0
C211 C 0.44275 0.24147 0.17919 0.0
N212 N 0.54413 0.3326 0.22128 0.0
N213 N 0.39126 0.22748 0.0254 0.0
H214 H 0.43562 0.19312 0.29448 0.0
H215 H 0.40025 0.17771 0.17395 0.0
H216 H 0.37969 0.23678 0.9525 0.0
H217 H 0.36884 0.20217 0.0735 0.0
H218 H 0.56655 0.35803 0.1736 0.0
H219 H 0.55559 0.32315 0.29406 0.0
H220 H 0.53488 0.38243 0.0737 0.0
H221 H 0.49964 0.36708 0.95271 0.0
C222 C 0.30284 0.42858 0.21314 0.0
C223 C 0.30142 0.46059 0.27665 0.0
C224 C 0.28977 0.48753 0.08888 0.0
C225 C 0.29535 0.4582 0.02434 0.0
N226 N 0.31549 0.40633 0.01835 0.0
N227 N 0.30218 0.52534 0.27708 0.0
C228 C 0.30418 0.4301 0.08425 0.0
C229 C 0.29781 0.49181 0.21526 0.0
N230 N 0.30264 0.39686 0.27558 0.0
N231 N 0.27511 0.50984 0.03023 0.0
H232 H 0.30746 0.52934 0.37132 0.0
H233 H 0.30371 0.55071 0.23317 0.0
H234 H 0.26689 0.50556 0.93773 0.0
H235 H 0.26696 0.52913 0.07575 0.0
H236 H 0.29923 0.37065 0.23264 0.0
H237 H 0.30297 0.39534 0.37121 0.0
H238 H 0.32627 0.38829 0.05859 0.0
H239 H 0.31775 0.40753 0.92282 0.0
C240 C 0.77901 0.16382 0.41367 0.0
C241 C 0.78468 0.19861 0.34772 0.0
C242 C 0.79459 0.23698 0.53462 0.0
C243 C 0.78527 0.20105 0.60042 0.0
N244 N 0.75881 0.12805 0.60768 0.0
N245 N 0.78936 0.26514 0.34084 0.0
C246 C 0.77466 0.16368 0.5417 0.0
C247 C 0.7898 0.23433 0.4066 0.0
N248 N 0.778 0.13131 0.35439 0.0
N249 N 0.8091 0.27356 0.59399 0.0
H250 H 0.78608 0.26436 0.24571 0.0
H251 H 0.78894 0.28997 0.38149 0.0
H252 H 0.81333 0.27645 0.68888 0.0
H253 H 0.82032 0.30149 0.54834 0.0
H254 H 0.77796 0.10696 0.40034 0.0
H255 H 0.78045 0.13011 0.25919 0.0
H256 H 0.74708 0.09931 0.56743 0.0
H257 H 0.75344 0.12684 0.70203 0.0
C258 C 0.58736 0.81452 0.45086 0.0
C259 C 0.61862 0.84731 0.38327 0.0
C260 C 0.64393 0.88985 0.56521 0.0
C261 C 0.61325 0.85673 0.63307 0.0
N262 N 0.55035 0.79141 0.64308 0.0
N263 N 0.67962 0.91416 0.37114 0.0
C264 C 0.58323 0.8201 0.57682 0.0
C265 C 0.64791 0.88449 0.43887 0.0
N266 N 0.56319 0.7776 0.39515 0.0
N267 N 0.66728 0.92689 0.62104 0.0
H268 H 0.68306 0.91174 0.27707 0.0
H269 H 0.70418 0.94026 0.40851 0.0
H270 H 0.66272 0.93192 0.71252 0.0
H271 H 0.68826 0.95356 0.57558 0.0
H272 H 0.54247 0.75104 0.4417 0.0
H273 H 0.56649 0.7725 0.3027 0.0
H274 H 0.5253 0.76599 0.60459 0.0
H275 H 0.54635 0.79431 0.73644 0.0
C276 C 0.89084 0.63939 0.74479 0.0
C277 C 0.88596 0.60439 0.68211 0.0
C278 C 0.85063 0.56161 0.85891 0.0
C279 C 0.85531 0.59659 0.92147 0.0
N280 N 0.86327 0.66423 0.90127 0.0
N281 N 0.87851 0.53699 0.70277 0.0
C282 C 0.87073 0.63442 0.85846 0.0
C283 C 0.87084 0.56667 0.74541 0.0
N284 N 0.91618 0.67749 0.69732 0.0
N285 N 0.82537 0.52344 0.90616 0.0
H286 H 0.89908 0.5422 0.63112 0.0
H287 H 0.87011 0.50993 0.7507 0.0
H288 H 0.80757 0.51895 -0.01513 0.0
H289 H 0.81821 0.49658 0.85939 0.0
H290 H 0.92361 0.70439 0.74424 0.0
H291 H 0.9337 0.68181 0.61804 0.0
H292 H 0.87187 0.69137 0.85354 0.0
H293 H 0.84272 0.65914 -0.02711 0.0
C294 C 0.18068 0.76605 0.88522 0.0
C295 C 0.21663 0.77503 0.95058 0.0
C296 C 0.25875 0.7997 0.76681 0.0
C297 C 0.22303 0.79212 0.70203 0.0
N298 N 0.15154 0.7743 0.69647 0.0
N299 N 0.28688 0.78918 0.95427 0.0
C300 C 0.18429 0.77704 0.76019 0.0
C301 C 0.25495 0.78859 0.89171 0.0
N302 N 0.14315 0.7447 0.9416 0.0
N303 N 0.29631 0.8194 0.70973 0.0
H304 H 0.2846 0.78048 0.04624 0.0
H305 H 0.31438 0.79488 0.91312 0.0
H306 H 0.2998 0.82988 0.61926 0.0
H307 H 0.32416 0.82892 0.75436 0.0
H308 H 0.11515 0.73399 0.89664 0.0
H309 H 0.14007 0.73392 0.03166 0.0
H310 H 0.12345 0.76702 0.73678 0.0
H311 H 0.15338 0.78246 0.60408 0.0
C312 C 0.26617 0.04167 0.57032 0.0
C313 C 0.28997 0.07501 0.48994 0.0
C314 C 0.26978 0.02792 0.31457 0.0
C315 C 0.24806 0.99444 0.39613 0.0
N316 N 0.21469 0.96968 0.59144 0.0
N317 N 0.30434 0.10166 0.28354 0.0
C318 C 0.24236 1.00161 0.52065 0.0
C319 C 0.28806 0.06861 0.36095 0.0
N320 N 0.26855 0.04777 0.69443 0.0
N321 N 0.27515 0.02076 0.19481 0.0
H322 H 0.31772 0.13167 0.3158 0.0
H323 H 0.30126 0.09935 0.1884 0.0
H324 H 0.2611 0.99141 0.15743 0.0
H325 H 0.29492 0.04354 0.13412 0.0
H326 H 0.25602 0.02405 0.7586 0.0
H327 H 0.28515 0.07668 0.73394 0.0
H328 H 0.20642 0.97309 0.68019 0.0
H329 H 0.19707 0.94017 0.55625 0.0
C330 C 0.36674 0.32887 0.69863 0.0
C331 C 0.3939 0.33732 0.59692 0.0
C332 C 0.37925 0.39119 0.52808 0.0
C333 C 0.35058 0.38142 0.62685 0.0
N334 N 0.3105 0.33444 0.78923 0.0
N335 N 0.41956 0.37055 0.40186 0.0
C336 C 0.34206 0.34802 0.70609 0.0
C337 C 0.39836 0.36689 0.5081 0.0
N338 N 0.36643 0.30465 0.79304 0.0
N339 N 0.3883 0.42374 0.45262 0.0
H340 H 0.43329 0.35281 0.38362 0.0
H341 H 0.42037 0.38822 0.32701 0.0
H342 H 0.37251 0.44002 0.45496 0.0
H343 H 0.41283 0.43591 0.39074 0.0
H344 H 0.35128 0.3015 0.87619 0.0
H345 H 0.38446 0.29068 0.79396 0.0
H346 H 0.29981 0.3073 0.83889 0.0
H347 H 0.29247 0.34813 0.80148 0.0
C348 C 1.00761 0.27762 0.71681 0.0
C349 C 0.9982 0.2532 0.82492 0.0
C350 C 0.07021 0.26902 0.83811 0.0
C351 C 0.07966 0.29377 0.73091 0.0
N352 N 0.0566 0.31462 0.55303 0.0
N353 N 1.01765 0.21863 -0.02601 0.0
C354 C 0.04794 0.29556 0.66507 0.0
C355 C 1.02866 0.24661 0.88083 0.0
N356 N 0.97852 0.28524 0.667 0.0
N357 N 0.10137 0.26835 0.90163 0.0
H358 H 0.98762 0.20222 0.008 0.0
H359 H 0.03728 0.2093 0.01132 0.0
H360 H 0.13168 0.28272 0.86946 0.0
H361 H 0.09773 0.25522 -0.01169 0.0
H362 H 0.98466 0.30656 0.5974 0.0
H363 H 0.94846 0.27216 0.70057 0.0
H364 H 0.0343 0.31381 0.49423 0.0
H365 H 0.08595 0.32836 0.51378 0.0
C366 C 0.68558 1.00605 0.10695 0.0
C367 C 0.69293 0.98231 0.01972 0.0
C368 C 0.74322 0.0459 0.91263 0.0
C369 C 0.73322 0.06927 -0.00592 0.0
N370 N 0.69474 0.07194 0.16902 0.0
N371 N 0.7341 0.97987 0.85149 0.0
C372 C 0.70444 0.04938 0.09143 0.0
C373 C 0.72349 1.00233 0.92651 0.0
N374 N 0.66259 0.98729 0.2096 0.0
N375 N 0.7696 0.06511 0.81655 0.0
H376 H 0.71854 0.94808 0.84912 0.0
H377 H 0.75984 0.99244 0.79439 0.0
H378 H 0.78609 0.09676 0.80569 0.0
H379 H 0.77389 0.05005 0.7429 0.0
H380 H 0.65958 1.00283 0.28424 0.0
H381 H 0.6494 0.95597 0.22644 0.0
H382 H 0.66977 0.05929 0.2292 0.0
H383 H 0.71068 0.10382 0.17072 0.0
C384 C 0.83171 0.7788 0.06091 0.0
C385 C 0.83391 0.77437 0.18991 0.0
C386 C 0.80391 0.81868 0.22289 0.0
C387 C 0.79385 0.81566 0.09625 0.0
N388 N 0.79857 0.79359 0.89237 0.0
N389 N 0.82242 0.79019 0.39559 0.0
C390 C 0.80867 0.7967 0.01397 0.0
C391 C 0.82096 0.79514 0.27162 0.0
N392 N 0.8514 0.7654 -0.01616 0.0
N393 N 0.7965 0.84373 0.29634 0.0
H394 H 0.83536 0.77384 0.43446 0.0
H395 H 0.80882 0.80032 0.45978 0.0
H396 H 0.78409 0.86124 0.26213 0.0
H397 H 0.80612 0.85014 0.38728 0.0
H398 H 0.85396 0.77056 0.88938 0.0
H399 H 0.86854 0.75236 0.01642 0.0
H400 H 0.80398 0.7758 0.83011 0.0
H401 H 0.78279 0.80734 0.85467 0.0
C402 C 1.02071 0.66882 0.39244 0.0
C403 C 1.00108 0.67693 0.29253 0.0
C404 C 0.06859 0.73351 0.22473 0.0
C405 C 0.08816 0.7252 0.32457 0.0
N406 N 0.08183 0.6911 0.51755 0.0
N407 N 1.00518 0.72017 0.12323 0.0
C408 C 0.06389 0.69437 0.41181 0.0
C409 C 1.0247 0.71048 0.21234 0.0
N410 N 0.99802 0.63676 0.47043 0.0
N411 N 0.09201 0.7619 0.13752 0.0
H412 H 0.97401 0.70191 0.10297 0.0
H413 H 1.01915 0.74732 0.07293 0.0
H414 H 0.12387 0.77995 0.14215 0.0
H415 H 0.08051 0.76594 0.05497 0.0
H416 H 1.01087 0.62495 0.53157 0.0
H417 H 0.966 0.62064 0.47194 0.0
H418 H 0.0655 0.67296 0.59232 0.0
H419 H 0.11308 0.70944 0.5362 0.0
C420 C 0.66939 0.48632 0.37532 0.0
C421 C 0.66469 0.47182 0.49834 0.0
C422 C 0.73966 0.50941 0.52523 0.0
C423 C 0.74452 0.52399 0.40204 0.0
N424 N 0.71457 0.53274 0.21684 0.0
N425 N 0.69371 0.4759 0.69816 0.0
C426 C 0.70947 0.51464 0.3295 0.0
C427 C 0.69941 0.48555 0.57577 0.0
N428 N 0.63561 0.4716 0.30104 0.0
N429 N 0.77358 0.51757 0.59315 0.0
H430 H 0.66459 0.45819 0.73737 0.0
H431 H 0.7172 0.48817 0.76287 0.0
H432 H 0.80355 0.53652 0.56225 0.0
H433 H 0.77229 0.50373 0.6772 0.0
H434 H 0.63712 0.47673 0.20669 0.0
H435 H 0.60574 0.45242 0.33334 0.0
H436 H 0.69039 0.53065 0.16434 0.0
H437 H 0.74349 0.55221 0.17871 0.0
C438 C 0.23022 0.53297 0.46995 0.0
C439 C 0.24753 0.53796 0.58947 0.0
C440 C 0.23512 0.59537 0.62404 0.0
C441 C 0.22548 0.59528 0.4977 0.0
N442 N 0.22011 0.5669 0.29524 0.0
N443 N 0.27073 0.5774 0.77594 0.0
C444 C 0.22415 0.56453 0.41934 0.0
C445 C 0.25113 0.57014 0.66548 0.0
N446 N 0.22014 0.49856 0.4032 0.0
N447 N 0.22832 0.61914 0.70484 0.0
H448 H 0.28269 0.55954 0.80956 0.0
H449 H 0.27803 0.6031 0.82917 0.0
H450 H 0.21534 0.63691 0.67805 0.0
H451 H 0.23134 0.61779 0.79963 0.0
H452 H 0.20348 0.49163 0.32166 0.0
H453 H 0.22552 0.47535 0.43301 0.0
H454 H 0.22393 0.54809 0.23275 0.0
H455 H 0.21683 0.59003 0.25326 0.0
C456 C 0.60637 0.22673 0.71635 0.0
C457 C 0.5981 0.20696 0.83292 0.0
C458 C 0.53474 0.21104 0.85022 0.0
C459 C 0.54154 0.22809 0.72979 0.0
N460 N 0.57938 0.24491 0.5392 0.0
N461 N 0.55105 0.1736 0.00099 0.0
C462 C 0.57606 0.23371 0.66015 0.0
C463 C 0.56118 0.19702 0.89678 0.0
N464 N 0.64396 0.24052 0.66166 0.0
N465 N 0.50457 0.21038 0.92309 0.0
H466 H 0.56986 0.16313 0.03811 0.0
H467 H 0.52254 0.16166 0.04455 0.0
H468 H 0.48466 0.22052 0.89366 0.0
H469 H 0.50142 0.20298 0.01625 0.0
H470 H 0.65347 0.25914 0.58376 0.0
H471 H 0.66722 0.23642 0.69985 0.0
H472 H 0.60155 0.24548 0.47991 0.0
H473 H 0.5575 0.24987 0.49493 0.0
C474 C 0.50253 0.69909 -0.01766 0.0
C475 C 0.5406 0.72518 0.92279 0.0
C476 C 0.52414 0.6722 0.7657 0.0
C477 C 0.48412 0.64884 0.81625 0.0
N478 N 0.4331 0.64164 0.96539 0.0
N479 N 0.58506 0.7387 0.74544 0.0
C480 C 0.47277 0.66265 0.92295 0.0
C481 C 0.55102 0.71217 0.81187 0.0
N482 N 0.49533 0.70854 0.0976 0.0
N483 N 0.53663 0.65601 0.67397 0.0
H484 H 0.60532 0.76865 0.77189 0.0
H485 H 0.59112 0.73249 0.65703 0.0
H486 H 0.51744 0.6272 0.6363 0.0
H487 H 0.56694 0.66947 0.6428 0.0
H488 H 0.47003 0.68882 0.15118 0.0
H489 H 0.51679 0.73446 0.14481 0.0
H490 H 0.42169 0.65269 0.03374 0.0
H491 H 0.41052 0.61451 0.92589 0.0
C492 C 0.83037 0.39014 0.03291 0.0
C493 C 0.85943 0.40649 0.12992 0.0
C494 C 0.86363 0.34344 0.13586 0.0
C495 C 0.83635 0.32779 0.03351 0.0
N496 N 0.80025 0.33994 0.87008 0.0
N497 N 0.91036 0.40283 0.25547 0.0
C498 C 0.82165 0.3523 -0.02222 0.0
C499 C 0.87825 0.38446 0.17514 0.0
N500 N 0.81009 0.41015 -0.00407 0.0
N501 N 0.87328 0.31843 0.20214 0.0
H502 H 0.92129 0.4325 0.28815 0.0
H503 H 0.92849 0.39014 0.28087 0.0
H504 H 0.86189 0.28764 0.18254 0.0
H505 H 0.88896 0.32692 0.28538 0.0
H506 H 0.78517 0.39758 0.93606 0.0
H507 H 0.81615 0.43825 0.0321 0.0
H508 H 0.7924 0.35827 0.81794 0.0
H509 H 0.79363 0.31271 0.82654 0.0
C510 C 0.39972 0.86464 0.08983 0.0
C511 C 0.42822 0.86144 0.16849 0.0
C512 C 0.37786 0.83858 0.33725 0.0
C513 C 0.34954 0.84231 0.25929 0.0
N514 N 0.3384 0.87057 0.07253 0.0
N515 N 0.44916 0.85827 0.37557 0.0
C516 C 0.36227 0.85965 0.13982 0.0
C517 C 0.41877 0.85266 0.29526 0.0
N518 N 0.40677 0.86935 0.96599 0.0
N519 N 0.3655 0.82068 0.45031 0.0
H520 H 0.47965 0.8696 0.34774 0.0
H521 H 0.44509 0.85583 0.47055 0.0
H522 H 0.3363 0.81134 0.48604 0.0
H523 H 0.38329 0.81276 0.50515 0.0
H524 H 0.38483 0.86701 0.90285 0.0
H525 H 0.4332 0.87216 0.92466 0.0
H526 H 0.34843 0.88726 -0.00908 0.0
H527 H 0.30984 0.86579 0.1018 0.0
loop_
_geom_bond_atom_site_label_1
_geom_bond_atom_site_label_2
_geom_bond_distance
_geom_bond_site_symmetry_2
_ccdc_geom_bond_type
C0 O16 1.251 . S
C0 O18 1.254 . S
N1 C2 1.333 . S
N1 C6 1.307 . S
N1 Zn7 2.020 . S
C2 N1 1.333 . S
C2 C3 1.379 . S
C2 H20 0.952 . S
C3 C2 1.379 . S
C3 C4 1.390 . S
C3 H30 0.949 . S
C4 C3 1.390 . S
C4 C5 1.357 . S
C5 C4 1.357 . S
C5 C6 1.370 . S
C5 H31 0.950 . S
C6 N1 1.307 . S
C6 C5 1.370 . S
C6 H24 0.948 . S
Zn7 N1 2.020 . S
Zn7 O16 2.039 . S
Zn7 O22 2.034 . S
Zn7 O26 2.025 . S
Zn7 O28 2.024 . S
C8 O27 1.246 . S
C8 O28 1.249 . S
N9 C10 1.307 . S
N9 C11 1.333 . S
N9 Zn15 2.020 . S
C10 N9 1.307 . S
C10 C14 1.370 . S
C10 H21 0.948 . S
C11 N9 1.333 . S
C11 C12 1.379 . S
C11 H19 0.952 . S
C12 C11 1.379 . S
C12 C13 1.390 . S
C12 H32 0.949 . S
C13 C12 1.390 . S
C13 C14 1.357 . S
C14 C10 1.370 . S
C14 C13 1.357 . S
C14 H33 0.950 . S
Zn15 N9 2.020 . S
Zn15 O18 2.025 . S
Zn15 O23 2.024 . S
Zn15 O25 2.039 . S
Zn15 O27 2.034 . S
O16 C0 1.251 . S
O16 Zn7 2.039 . S
C17 O22 1.246 . S
C17 O23 1.249 . S
O18 C0 1.254 . S
O18 Zn15 2.025 . S
H19 C11 0.952 . S
H20 C2 0.952 . S
H21 C10 0.948 . S
O22 Zn7 2.034 . S
O22 C17 1.246 . S
O23 Zn15 2.024 . S
O23 C17 1.249 . S
H24 C6 0.948 . S
O25 Zn15 2.039 . S
O25 C29 1.251 . S
O26 Zn7 2.025 . S
O26 C29 1.254 . S
O27 C8 1.246 . S
O27 Zn15 2.034 . S
O28 Zn7 2.024 . S
O28 C8 1.249 . S
C29 O25 1.251 . S
C29 O26 1.254 . S
H30 C3 0.949 . S
H31 C5 0.950 . S
H32 C12 0.949 . S
H33 C14 0.950 . S
C34 O50 1.251 . S
C34 O52 1.254 . S
N35 C36 1.333 . S
N35 C40 1.307 . S
N35 Zn41 2.020 . S
C36 N35 1.333 . S
C36 C37 1.379 . S
C36 H54 0.952 . S
C37 C36 1.379 . S
C37 C38 1.390 . S
C37 H64 0.949 . S
C38 C37 1.390 . S
C38 C39 1.357 . S
C39 C38 1.357 . S
C39 C40 1.370 . S
C39 H65 0.950 . S
C40 N35 1.307 . S
C40 C39 1.370 . S
C40 H58 0.948 . S
Zn41 N35 2.020 . S
Zn41 O50 2.039 . S
Zn41 O56 2.034 . S
Zn41 O60 2.025 . S
Zn41 O62 2.024 . S
C42 O61 1.246 . S
C42 O62 1.249 . S
N43 C44 1.307 . S
N43 C45 1.333 . S
N43 Zn49 2.020 . S
C44 N43 1.307 . S
C44 C48 1.370 . S
C44 H55 0.948 . S
C45 N43 1.333 . S
C45 C46 1.379 . S
C45 H53 0.952 . S
C46 C45 1.379 . S
C46 C47 1.390 . S
C46 H66 0.949 . S
C47 C46 1.390 . S
C47 C48 1.357 . S
C48 C44 1.370 . S
C48 C47 1.357 . S
C48 H67 0.950 . S
Zn49 N43 2.020 . S
Zn49 O52 2.025 . S
Zn49 O57 2.024 . S
Zn49 O59 2.039 . S
Zn49 O61 2.034 . S
O50 C34 1.251 . S
O50 Zn41 2.039 . S
C51 O56 1.246 . S
C51 O57 1.249 . S
O52 C34 1.254 . S
O52 Zn49 2.025 . S
H53 C45 0.952 . S
H54 C36 0.952 . S
H55 C44 0.948 . S
O56 Zn41 2.034 . S
O56 C51 1.246 . S
O57 Zn49 2.024 . S
O57 C51 1.249 . S
H58 C40 0.948 . S
O59 Zn49 2.039 . S
O59 C63 1.251 . S
O60 Zn41 2.025 . S
O60 C63 1.254 . S
O61 C42 1.246 . S
O61 Zn49 2.034 . S
O62 Zn41 2.024 . S
O62 C42 1.249 . S
C63 O59 1.251 . S
C63 O60 1.254 . S
H64 C37 0.949 . S
H65 C39 0.950 . S
H66 C46 0.949 . S
H67 C48 0.950 . S
C68 O84 1.251 . S
C68 O86 1.254 . S
N69 C70 1.333 . S
N69 C74 1.307 1_556 S
N69 Zn75 2.020 . S
C70 N69 1.333 . S
C70 C71 1.379 . S
C70 H88 0.952 . S
C71 C70 1.379 . S
C71 C72 1.390 . S
C71 H98 0.949 . S
C72 C71 1.390 . S
C72 C73 1.357 1_556 S
C73 C72 1.357 1_554 S
C73 C74 1.370 . S
C73 H99 0.950 . S
C74 N69 1.307 1_554 S
C74 C73 1.370 . S
C74 H92 0.948 . S
Zn75 N69 2.020 . S
Zn75 O84 2.039 . S
Zn75 O90 2.034 . S
Zn75 O94 2.025 1_556 S
Zn75 O96 2.024 . S
C76 O95 1.246 . S
C76 O96 1.249 . S
N77 C78 1.307 . S
N77 C79 1.333 1_556 S
N77 Zn83 2.020 . S
C78 N77 1.307 . S
C78 C82 1.370 . S
C78 H89 0.948 . S
C79 N77 1.333 1_554 S
C79 C80 1.379 . S
C79 H87 0.952 . S
C80 C79 1.379 . S
C80 C81 1.390 1_554 S
C80 H100 0.949 . S
C81 C80 1.390 1_556 S
C81 C82 1.357 . S
C82 C78 1.370 . S
C82 C81 1.357 . S
C82 H101 0.950 . S
Zn83 N77 2.020 . S
Zn83 O86 2.025 . S
Zn83 O91 2.024 . S
Zn83 O93 2.039 1_556 S
Zn83 O95 2.034 . S
O84 C68 1.251 . S
O84 Zn75 2.039 . S
C85 O90 1.246 . S
C85 O91 1.249 . S
O86 C68 1.254 . S
O86 Zn83 2.025 . S
H87 C79 0.952 . S
H88 C70 0.952 . S
H89 C78 0.948 . S
O90 Zn75 2.034 . S
O90 C85 1.246 . S
O91 Zn83 2.024 . S
O91 C85 1.249 . S
H92 C74 0.948 . S
O93 Zn83 2.039 1_554 S
O93 C97 1.251 . S
O94 Zn75 2.025 1_554 S
O94 C97 1.254 . S
O95 C76 1.246 . S
O95 Zn83 2.034 . S
O96 Zn75 2.024 . S
O96 C76 1.249 . S
C97 O93 1.251 . S
C97 O94 1.254 . S
H98 C71 0.949 . S
H99 C73 0.950 . S
H100 C80 0.949 . S
H101 C82 0.950 . S
C102 O118 1.251 . S
C102 O120 1.254 . S
N103 C104 1.333 . S
N103 C108 1.307 1_554 S
N103 Zn109 2.020 . S
C104 N103 1.333 . S
C104 C105 1.379 . S
C104 H122 0.952 . S
C105 C104 1.379 . S
C105 C106 1.390 . S
C105 H132 0.949 . S
C106 C105 1.390 . S
C106 C107 1.357 1_554 S
C107 C106 1.357 1_556 S
C107 C108 1.370 . S
C107 H133 0.950 . S
C108 N103 1.307 1_556 S
C108 C107 1.370 . S
C108 H126 0.948 . S
Zn109 N103 2.020 . S
Zn109 O118 2.039 . S
Zn109 O124 2.034 . S
Zn109 O128 2.025 1_554 S
Zn109 O130 2.024 . S
C110 O129 1.246 . S
C110 O130 1.249 . S
N111 C112 1.307 . S
N111 C113 1.333 1_554 S
N111 Zn117 2.020 . S
C112 N111 1.307 . S
C112 C116 1.370 . S
C112 H123 0.948 . S
C113 N111 1.333 1_556 S
C113 C114 1.379 . S
C113 H121 0.952 . S
C114 C113 1.379 . S
C114 C115 1.390 1_556 S
C114 H134 0.949 . S
C115 C114 1.390 1_554 S
C115 C116 1.357 . S
C116 C112 1.370 . S
C116 C115 1.357 . S
C116 H135 0.950 . S
Zn117 N111 2.020 . S
Zn117 O120 2.025 . S
Zn117 O125 2.024 . S
Zn117 O127 2.039 1_554 S
Zn117 O129 2.034 . S
O118 C102 1.251 . S
O118 Zn109 2.039 . S
C119 O124 1.246 . S
C119 O125 1.249 . S
O120 C102 1.254 . S
O120 Zn117 2.025 . S
H121 C113 0.952 . S
H122 C104 0.952 . S
H123 C112 0.948 . S
O124 Zn109 2.034 . S
O124 C119 1.246 . S
O125 Zn117 2.024 . S
O125 C119 1.249 . S
H126 C108 0.948 . S
O127 Zn117 2.039 1_556 S
O127 C131 1.251 . S
O128 Zn109 2.025 1_556 S
O128 C131 1.254 . S
O129 C110 1.246 . S
O129 Zn117 2.034 . S
O130 Zn109 2.024 . S
O130 C110 1.249 . S
C131 O127 1.251 . S
C131 O128 1.254 . S
H132 C105 0.949 . S
H133 C107 0.950 . S
H134 C114 0.949 . S
H135 C116 0.950 . S
C136 O152 1.251 . S
C136 O154 1.254 . S
N137 C138 1.333 . S
N137 C142 1.307 . S
N137 Zn143 2.020 . S
C138 N137 1.333 . S
C138 C139 1.379 . S
C138 H156 0.952 . S
C139 C138 1.379 . S
C139 C140 1.390 . S
C139 H166 0.949 . S
C140 C139 1.390 . S
C140 C141 1.357 . S
C141 C140 1.357 . S
C141 C142 1.370 . S
C141 H167 0.950 . S
C142 N137 1.307 . S
C142 C141 1.370 . S
C142 H160 0.948 . S
Zn143 N137 2.020 . S
Zn143 O152 2.039 . S
Zn143 O158 2.034 . S
Zn143 O162 2.025 . S
Zn143 O164 2.024 . S
C144 O163 1.246 . S
C144 O164 1.249 . S
N145 C146 1.307 . S
N145 C147 1.333 . S
N145 Zn151 2.020 . S
C146 N145 1.307 . S
C146 C150 1.370 . S
C146 H157 0.948 . S
C147 N145 1.333 . S
C147 C148 1.379 . S
C147 H155 0.952 . S
C148 C147 1.379 . S
C148 C149 1.390 . S
C148 H168 0.949 . S
C149 C148 1.390 . S
C149 C150 1.357 . S
C150 C146 1.370 . S
C150 C149 1.357 . S
C150 H169 0.950 . S
Zn151 N145 2.020 . S
Zn151 O154 2.025 . S
Zn151 O159 2.024 . S
Zn151 O161 2.039 . S
Zn151 O163 2.034 . S
O152 C136 1.251 . S
O152 Zn143 2.039 . S
C153 O158 1.246 . S
C153 O159 1.249 . S
O154 C136 1.254 . S
O154 Zn151 2.025 . S
H155 C147 0.952 . S
H156 C138 0.952 . S
H157 C146 0.948 . S
O158 Zn143 2.034 . S
O158 C153 1.246 . S
O159 Zn151 2.024 . S
O159 C153 1.249 . S
H160 C142 0.948 . S
O161 Zn151 2.039 . S
O161 C165 1.251 . S
O162 Zn143 2.025 . S
O162 C165 1.254 . S
O163 C144 1.246 . S
O163 Zn151 2.034 . S
O164 Zn143 2.024 . S
O164 C144 1.249 . S
C165 O161 1.251 . S
C165 O162 1.254 . S
H166 C139 0.949 . S
H167 C141 0.950 . S
H168 C148 0.949 . S
H169 C150 0.950 . S
C170 O186 1.251 . S
C170 O188 1.254 . S
N171 C172 1.333 . S
N171 C176 1.307 . S
N171 Zn177 2.020 . S
C172 N171 1.333 . S
C172 C173 1.379 . S
C172 H190 0.952 . S
C173 C172 1.379 . S
C173 C174 1.390 . S
C173 H200 0.949 . S
C174 C173 1.390 . S
C174 C175 1.357 . S
C175 C174 1.357 . S
C175 C176 1.370 . S
C175 H201 0.950 . S
C176 N171 1.307 . S
C176 C175 1.370 . S
C176 H194 0.948 . S
Zn177 N171 2.020 . S
Zn177 O186 2.039 . S
Zn177 O192 2.034 . S
Zn177 O196 2.025 . S
Zn177 O198 2.024 . S
C178 O197 1.246 . S
C178 O198 1.249 . S
N179 C180 1.307 . S
N179 C181 1.333 . S
N179 Zn185 2.020 . S
C180 N179 1.307 . S
C180 C184 1.370 . S
C180 H191 0.948 . S
C181 N179 1.333 . S
C181 C182 1.379 . S
C181 H189 0.952 . S
C182 C181 1.379 . S
C182 C183 1.390 . S
C182 H202 0.949 . S
C183 C182 1.390 . S
C183 C184 1.357 . S
C184 C180 1.370 . S
C184 C183 1.357 . S
C184 H203 0.950 . S
Zn185 N179 2.020 . S
Zn185 O188 2.025 . S
Zn185 O193 2.024 . S
Zn185 O195 2.039 . S
Zn185 O197 2.034 . S
O186 C170 1.251 . S
O186 Zn177 2.039 . S
C187 O192 1.246 . S
C187 O193 1.249 . S
O188 C170 1.254 . S
O188 Zn185 2.025 . S
H189 C181 0.952 . S
H190 C172 0.952 . S
H191 C180 0.948 . S
O192 Zn177 2.034 . S
O192 C187 1.246 . S
O193 Zn185 2.024 . S
O193 C187 1.249 . S
H194 C176 0.948 . S
O195 Zn185 2.039 . S
O195 C199 1.251 . S
O196 Zn177 2.025 . S
O196 C199 1.254 . S
O197 C178 1.246 . S
O197 Zn185 2.034 . S
O198 Zn177 2.024 . S
O198 C178 1.249 . S
C199 O195 1.251 . S
C199 O196 1.254 . S
H200 C173 0.949 . S
H201 C175 0.950 . S
H202 C182 0.949 . S
H203 C184 0.950 . S
C204 C205 1.363 . S
C204 C210 1.379 . S
C204 N212 1.356 . S
C205 C204 1.363 . S
C205 C211 1.363 . S
C206 C207 1.363 1_554 S
C206 C211 1.379 . S
C206 N213 1.356 1_554 S
C207 C206 1.363 1_556 S
C207 C210 1.363 1_556 S
N208 C210 1.356 1_556 S
N208 H220 0.984 . S
N208 H221 0.985 . S
N209 C211 1.356 . S
N209 H214 0.984 . S
N209 H215 0.985 . S
C210 C204 1.379 . S
C210 C207 1.363 1_554 S
C210 N208 1.356 1_554 S
C211 C205 1.363 . S
C211 C206 1.379 . S
C211 N209 1.356 . S
N212 C204 1.356 . S
N212 H218 0.984 . S
N212 H219 0.984 . S
N213 C206 1.356 1_556 S
N213 H216 0.984 . S
N213 H217 0.985 . S
H214 N209 0.984 . S
H215 N209 0.985 . S
H216 N213 0.984 . S
H217 N213 0.985 . S
H218 N212 0.984 . S
H219 N212 0.984 . S
H220 N208 0.984 . S
H221 N208 0.985 . S
C222 C223 1.363 . S
C222 C228 1.379 . S
C222 N230 1.356 . S
C223 C222 1.363 . S
C223 C229 1.363 . S
C224 C225 1.363 . S
C224 C229 1.379 . S
C224 N231 1.356 . S
C225 C224 1.363 . S
C225 C228 1.363 . S
N226 C228 1.356 . S
N226 H238 0.984 . S
N226 H239 0.985 1_554 S
N227 C229 1.356 . S
N227 H232 0.984 . S
N227 H233 0.985 . S
C228 C222 1.379 . S
C228 C225 1.363 . S
C228 N226 1.356 . S
C229 C223 1.363 . S
C229 C224 1.379 . S
C229 N227 1.356 . S
N230 C222 1.356 . S
N230 H236 0.984 . S
N230 H237 0.984 . S
N231 C224 1.356 . S
N231 H234 0.984 1_554 S
N231 H235 0.985 . S
H232 N227 0.984 . S
H233 N227 0.985 . S
H234 N231 0.984 1_556 S
H235 N231 0.985 . S
H236 N230 0.984 . S
H237 N230 0.984 . S
H238 N226 0.984 . S
H239 N226 0.985 1_556 S
C240 C241 1.363 . S
C240 C246 1.379 . S
C240 N248 1.356 . S
C241 C240 1.363 . S
C241 C247 1.363 . S
C242 C243 1.363 . S
C242 C247 1.379 . S
C242 N249 1.356 . S
C243 C242 1.363 . S
C243 C246 1.363 . S
N244 C246 1.356 . S
N244 H256 0.984 . S
N244 H257 0.985 . S
N245 C247 1.356 . S
N245 H250 0.984 . S
N245 H251 0.985 . S
C246 C240 1.379 . S
C246 C243 1.363 . S
C246 N244 1.356 . S
C247 C241 1.363 . S
C247 C242 1.379 . S
C247 N245 1.356 . S
N248 C240 1.356 . S
N248 H254 0.984 . S
N248 H255 0.984 . S
N249 C242 1.356 . S
N249 H252 0.984 . S
N249 H253 0.985 . S
H250 N245 0.984 . S
H251 N245 0.985 . S
H252 N249 0.984 . S
H253 N249 0.985 . S
H254 N248 0.984 . S
H255 N248 0.984 . S
H256 N244 0.984 . S
H257 N244 0.985 . S
C258 C259 1.363 . S
C258 C264 1.379 . S
C258 N266 1.356 . S
C259 C258 1.363 . S
C259 C265 1.363 . S
C260 C261 1.363 . S
C260 C265 1.379 . S
C260 N267 1.356 . S
C261 C260 1.363 . S
C261 C264 1.363 . S
N262 C264 1.356 . S
N262 H274 0.984 . S
N262 H275 0.985 . S
N263 C265 1.356 . S
N263 H268 0.984 . S
N263 H269 0.985 . S
C264 C258 1.379 . S
C264 C261 1.363 . S
C264 N262 1.356 . S
C265 C259 1.363 . S
C265 C260 1.379 . S
C265 N263 1.356 . S
N266 C258 1.356 . S
N266 H272 0.984 . S
N266 H273 0.984 . S
N267 C260 1.356 . S
N267 H270 0.984 . S
N267 H271 0.985 . S
H268 N263 0.984 . S
H269 N263 0.985 . S
H270 N267 0.984 . S
H271 N267 0.985 . S
H272 N266 0.984 . S
H273 N266 0.984 . S
H274 N262 0.984 . S
H275 N262 0.985 . S
C276 C277 1.363 . S
C276 C282 1.379 . S
C276 N284 1.356 . S
C277 C276 1.363 . S
C277 C283 1.363 . S
C278 C279 1.363 . S
C278 C283 1.379 . S
C278 N285 1.356 . S
C279 C278 1.363 . S
C279 C282 1.363 . S
N280 C282 1.356 . S
N280 H292 0.984 . S
N280 H293 0.985 1_556 S
N281 C283 1.356 . S
N281 H286 0.984 . S
N281 H287 0.985 . S
C282 C276 1.379 . S
C282 C279 1.363 . S
C282 N280 1.356 . S
C283 C277 1.363 . S
C283 C278 1.379 . S
C283 N281 1.356 . S
N284 C276 1.356 . S
N284 H290 0.984 . S
N284 H291 0.984 . S
N285 C278 1.356 . S
N285 H288 0.984 1_556 S
N285 H289 0.985 . S
H286 N281 0.984 . S
H287 N281 0.985 . S
H288 N285 0.984 1_554 S
H289 N285 0.985 . S
H290 N284 0.984 . S
H291 N284 0.984 . S
H292 N280 0.984 . S
H293 N280 0.985 1_554 S
C294 C295 1.363 1_556 S
C294 C300 1.379 . S
C294 N302 1.356 1_556 S
C295 C294 1.363 1_554 S
C295 C301 1.363 1_554 S
C296 C297 1.363 . S
C296 C301 1.379 . S
C296 N303 1.356 . S
C297 C296 1.363 . S
C297 C300 1.363 . S
N298 C300 1.356 . S
N298 H310 0.984 . S
N298 H311 0.985 . S
N299 C301 1.356 1_554 S
N299 H304 0.984 . S
N299 H305 0.985 . S
C300 C294 1.379 . S
C300 C297 1.363 . S
C300 N298 1.356 . S
C301 C295 1.363 1_556 S
C301 C296 1.379 . S
C301 N299 1.356 1_556 S
N302 C294 1.356 1_554 S
N302 H308 0.984 . S
N302 H309 0.984 . S
N303 C296 1.356 . S
N303 H306 0.984 . S
N303 H307 0.985 . S
H304 N299 0.984 . S
H305 N299 0.985 . S
H306 N303 0.984 . S
H307 N303 0.985 . S
H308 N302 0.984 . S
H309 N302 0.984 . S
H310 N298 0.984 . S
H311 N298 0.985 . S
C312 C313 1.363 . S
C312 C318 1.379 1_545 S
C312 N320 1.356 . S
C313 C312 1.363 . S
C313 C319 1.363 . S
C314 C315 1.363 1_545 S
C314 C319 1.379 . S
C314 N321 1.356 . S
C315 C314 1.363 1_565 S
C315 C318 1.363 . S
N316 C318 1.356 . S
N316 H328 0.984 . S
N316 H329 0.985 . S
N317 C319 1.356 . S
N317 H322 0.984 . S
N317 H323 0.985 . S
C318 C312 1.379 1_565 S
C318 C315 1.363 . S
C318 N316 1.356 . S
C319 C313 1.363 . S
C319 C314 1.379 . S
C319 N317 1.356 . S
N320 C312 1.356 . S
N320 H326 0.984 . S
N320 H327 0.984 . S
N321 C314 1.356 . S
N321 H324 0.984 1_545 S
N321 H325 0.985 . S
H322 N317 0.984 . S
H323 N317 0.985 . S
H324 N321 0.984 1_565 S
H325 N321 0.985 . S
H326 N320 0.984 . S
H327 N320 0.984 . S
H328 N316 0.984 . S
H329 N316 0.985 . S
C330 C331 1.363 . S
C330 C336 1.379 . S
C330 N338 1.356 . S
C331 C330 1.363 . S
C331 C337 1.363 . S
C332 C333 1.363 . S
C332 C337 1.379 . S
C332 N339 1.356 . S
C333 C332 1.363 . S
C333 C336 1.363 . S
N334 C336 1.356 . S
N334 H346 0.984 . S
N334 H347 0.985 . S
N335 C337 1.356 . S
N335 H340 0.984 . S
N335 H341 0.985 . S
C336 C330 1.379 . S
C336 C333 1.363 . S
C336 N334 1.356 . S
C337 C331 1.363 . S
C337 C332 1.379 . S
C337 N335 1.356 . S
N338 C330 1.356 . S
N338 H344 0.984 . S
N338 H345 0.984 . S
N339 C332 1.356 . S
N339 H342 0.984 . S
N339 H343 0.985 . S
H340 N335 0.984 . S
H341 N335 0.985 . S
H342 N339 0.984 . S
H343 N339 0.985 . S
H344 N338 0.984 . S
H345 N338 0.984 . S
H346 N334 0.984 . S
H347 N334 0.985 . S
C348 C349 1.363 . S
C348 C354 1.379 1_655 S
C348 N356 1.356 . S
C349 C348 1.363 . S
C349 C355 1.363 1_655 S
C350 C351 1.363 . S
C350 C355 1.379 . S
C350 N357 1.356 . S
C351 C350 1.363 . S
C351 C354 1.363 . S
N352 C354 1.356 . S
N352 H364 0.984 . S
N352 H365 0.985 . S
N353 C355 1.356 1_655 S
N353 H358 0.984 1_556 S
N353 H359 0.985 . S
C354 C348 1.379 1_455 S
C354 C351 1.363 . S
C354 N352 1.356 . S
C355 C349 1.363 1_455 S
C355 C350 1.379 . S
C355 N353 1.356 1_455 S
N356 C348 1.356 . S
N356 H362 0.984 . S
N356 H363 0.984 . S
N357 C350 1.356 . S
N357 H360 0.984 . S
N357 H361 0.985 . S
H358 N353 0.984 1_554 S
H359 N353 0.985 . S
H360 N357 0.984 . S
H361 N357 0.985 . S
H362 N356 0.984 . S
H363 N356 0.984 . S
H364 N352 0.984 . S
H365 N352 0.985 . S
C366 C367 1.363 . S
C366 C372 1.379 1_565 S
C366 N374 1.356 . S
C367 C366 1.363 . S
C367 C373 1.367 . S
C368 C369 1.363 . S
C368 C373 1.376 1_546 S
C368 N375 1.356 . S
C369 C368 1.363 . S
C369 C372 1.363 1_556 S
N370 C372 1.356 . S
N370 H382 0.984 . S
N370 H383 0.985 1_554 S
N371 C373 1.357 . S
N371 H376 0.984 . S
N371 H377 0.985 1_554 S
C372 C366 1.379 1_545 S
C372 C369 1.363 1_554 S
C372 N370 1.356 . S
C373 C367 1.367 . S
C373 C368 1.376 1_564 S
C373 N371 1.357 . S
N374 C366 1.356 . S
N374 H380 0.984 . S
N374 H381 0.984 . S
N375 C368 1.356 . S
N375 H378 0.984 . S
N375 H379 0.985 . S
H376 N371 0.984 . S
H377 N371 0.985 1_556 S
H378 N375 0.984 . S
H379 N375 0.985 . S
H380 N374 0.984 . S
H381 N374 0.984 . S
H382 N370 0.984 . S
H383 N370 0.985 1_556 S
C384 C385 1.363 . S
C384 C390 1.379 . S
C384 N392 1.356 . S
C385 C384 1.363 . S
C385 C391 1.363 . S
C386 C387 1.363 . S
C386 C391 1.379 . S
C386 N393 1.356 . S
C387 C386 1.363 . S
C387 C390 1.363 . S
N388 C390 1.356 1_556 S
N388 H400 0.984 . S
N388 H401 0.985 . S
N389 C391 1.356 . S
N389 H394 0.984 . S
N389 H395 0.985 . S
C390 C384 1.379 . S
C390 C387 1.363 . S
C390 N388 1.356 1_554 S
C391 C385 1.363 . S
C391 C386 1.379 . S
C391 N389 1.356 . S
N392 C384 1.356 . S
N392 H398 0.984 . S
N392 H399 0.984 . S
N393 C386 1.356 . S
N393 H396 0.984 . S
N393 H397 0.985 . S
H394 N389 0.984 . S
H395 N389 0.985 . S
H396 N393 0.984 . S
H397 N393 0.985 . S
H398 N392 0.984 . S
H399 N392 0.984 . S
H400 N388 0.984 . S
H401 N388 0.985 . S
C402 C403 1.363 . S
C402 C408 1.379 1_655 S
C402 N410 1.356 . S
C403 C402 1.363 . S
C403 C409 1.363 1_655 S
C404 C405 1.363 . S
C404 C409 1.379 . S
C404 N411 1.356 . S
C405 C404 1.363 . S
C405 C408 1.363 . S
N406 C408 1.356 . S
N406 H418 0.984 . S
N406 H419 0.985 . S
N407 C409 1.356 1_655 S
N407 H412 0.984 . S
N407 H413 0.985 . S
C408 C402 1.379 1_455 S
C408 C405 1.363 . S
C408 N406 1.356 . S
C409 C403 1.363 1_455 S
C409 C404 1.379 . S
C409 N407 1.356 1_455 S
N410 C402 1.356 . S
N410 H416 0.984 . S
N410 H417 0.984 . S
N411 C404 1.356 . S
N411 H414 0.984 . S
N411 H415 0.985 . S
H412 N407 0.984 . S
H413 N407 0.985 . S
H414 N411 0.984 . S
H415 N411 0.985 . S
H416 N410 0.984 . S
H417 N410 0.984 . S
H418 N406 0.984 . S
H419 N406 0.985 . S
C420 C421 1.363 . S
C420 C426 1.379 . S
C420 N428 1.356 . S
C421 C420 1.363 . S
C421 C427 1.363 . S
C422 C423 1.363 . S
C422 C427 1.379 . S
C422 N429 1.356 . S
C423 C422 1.363 . S
C423 C426 1.363 . S
N424 C426 1.356 . S
N424 H436 0.984 . S
N424 H437 0.985 . S
N425 C427 1.356 . S
N425 H430 0.984 . S
N425 H431 0.985 . S
C426 C420 1.379 . S
C426 C423 1.363 . S
C426 N424 1.356 . S
C427 C421 1.363 . S
C427 C422 1.379 . S
C427 N425 1.356 . S
N428 C420 1.356 . S
N428 H434 0.984 . S
N428 H435 0.984 . S
N429 C422 1.356 . S
N429 H432 0.984 . S
N429 H433 0.985 . S
H430 N425 0.984 . S
H431 N425 0.985 . S
H432 N429 0.984 . S
H433 N429 0.985 . S
H434 N428 0.984 . S
H435 N428 0.984 . S
H436 N424 0.984 . S
H437 N424 0.985 . S
C438 C439 1.363 . S
C438 C444 1.379 . S
C438 N446 1.356 . S
C439 C438 1.363 . S
C439 C445 1.363 . S
C440 C441 1.363 . S
C440 C445 1.379 . S
C440 N447 1.356 . S
C441 C440 1.363 . S
C441 C444 1.363 . S
N442 C444 1.356 . S
N442 H454 0.984 . S
N442 H455 0.985 . S
N443 C445 1.356 . S
N443 H448 0.984 . S
N443 H449 0.985 . S
C444 C438 1.379 . S
C444 C441 1.363 . S
C444 N442 1.356 . S
C445 C439 1.363 . S
C445 C440 1.379 . S
C445 N443 1.356 . S
N446 C438 1.356 . S
N446 H452 0.984 . S
N446 H453 0.984 . S
N447 C440 1.356 . S
N447 H450 0.984 . S
N447 H451 0.985 . S
H448 N443 0.984 . S
H449 N443 0.985 . S
H450 N447 0.984 . S
H451 N447 0.985 . S
H452 N446 0.984 . S
H453 N446 0.984 . S
H454 N442 0.984 . S
H455 N442 0.985 . S
C456 C457 1.363 . S
C456 C462 1.379 . S
C456 N464 1.356 . S
C457 C456 1.363 . S
C457 C463 1.363 . S
C458 C459 1.363 . S
C458 C463 1.379 . S
C458 N465 1.356 . S
C459 C458 1.363 . S
C459 C462 1.363 . S
N460 C462 1.356 . S
N460 H472 0.984 . S
N460 H473 0.985 . S
N461 C463 1.356 1_554 S
N461 H466 0.984 . S
N461 H467 0.985 . S
C462 C456 1.379 . S
C462 C459 1.363 . S
C462 N460 1.356 . S
C463 C457 1.363 . S
C463 C458 1.379 . S
C463 N461 1.356 1_556 S
N464 C456 1.356 . S
N464 H470 0.984 . S
N464 H471 0.984 . S
N465 C458 1.356 . S
N465 H468 0.984 . S
N465 H469 0.985 . S
H466 N461 0.984 . S
H467 N461 0.985 . S
H468 N465 0.984 . S
H469 N465 0.985 . S
H470 N464 0.984 . S
H471 N464 0.984 . S
H472 N460 0.984 . S
H473 N460 0.985 . S
C474 C475 1.363 . S
C474 C480 1.379 . S
C474 N482 1.356 1_556 S
C475 C474 1.363 . S
C475 C481 1.363 . S
C476 C477 1.363 . S
C476 C481 1.379 . S
C476 N483 1.356 . S
C477 C476 1.363 . S
C477 C480 1.363 . S
N478 C480 1.356 . S
N478 H490 0.984 . S
N478 H491 0.985 . S
N479 C481 1.356 . S
N479 H484 0.984 . S
N479 H485 0.985 . S
C480 C474 1.379 . S
C480 C477 1.363 . S
C480 N478 1.356 . S
C481 C475 1.363 . S
C481 C476 1.379 . S
C481 N479 1.356 . S
N482 C474 1.356 1_554 S
N482 H488 0.984 . S
N482 H489 0.984 . S
N483 C476 1.356 . S
N483 H486 0.984 . S
N483 H487 0.985 . S
H484 N479 0.984 . S
H485 N479 0.985 . S
H486 N483 0.984 . S
H487 N483 0.985 . S
H488 N482 0.984 . S
H489 N482 0.984 . S
H490 N478 0.984 . S
H491 N478 0.985 . S
C492 C493 1.363 . S
C492 C498 1.379 . S
C492 N500 1.356 . S
C493 C492 1.363 . S
C493 C499 1.363 . S
C494 C495 1.363 . S
C494 C499 1.379 . S
C494 N501 1.356 . S
C495 C494 1.363 . S
C495 C498 1.363 . S
N496 C498 1.356 . S
N496 H508 0.984 . S
N496 H509 0.985 1_554 S
N497 C499 1.356 . S
N497 H502 0.984 . S
N497 H503 0.985 . S
C498 C492 1.379 . S
C498 C495 1.363 . S
C498 N496 1.356 . S
C499 C493 1.363 . S
C499 C494 1.379 . S
C499 N497 1.356 . S
N500 C492 1.356 . S
N500 H506 0.984 . S
N500 H507 0.984 . S
N501 C494 1.356 . S
N501 H504 0.984 . S
N501 H505 0.985 . S
H502 N497 0.984 . S
H503 N497 0.985 . S
H504 N501 0.984 . S
H505 N501 0.985 . S
H506 N500 0.984 . S
H507 N500 0.984 . S
H508 N496 0.984 . S
H509 N496 0.985 1_556 S
C510 C511 1.363 . S
C510 C516 1.379 . S
C510 N518 1.356 . S
C511 C510 1.363 . S
C511 C517 1.363 . S
C512 C513 1.363 . S
C512 C517 1.379 . S
C512 N519 1.356 . S
C513 C512 1.363 . S
C513 C516 1.363 . S
N514 C516 1.356 . S
N514 H526 0.984 . S
N514 H527 0.985 . S
N515 C517 1.356 . S
N515 H520 0.984 . S
N515 H521 0.985 . S
C516 C510 1.379 . S
C516 C513 1.363 . S
C516 N514 1.356 . S
C517 C511 1.363 . S
C517 C512 1.379 . S
C517 N515 1.356 . S
N518 C510 1.356 . S
N518 H524 0.984 1_554 S
N518 H525 0.984 1_554 S
N519 C512 1.356 . S
N519 H522 0.984 . S
N519 H523 0.985 . S
H520 N515 0.984 . S
H521 N515 0.985 . S
H522 N519 0.984 . S
H523 N519 0.985 . S
H524 N518 0.984 1_556 S
H525 N518 0.984 1_556 S
H526 N514 0.984 . S
H527 N514 0.985 . S
C205 C0 1.124 . S
C207 C29 1.124 . S
C223 C63 1.124 . S
C225 C34 1.124 1_554 S
C241 C97 1.124 . S
C243 C68 1.124 . S
C259 C102 1.124 . S
C261 C131 1.124 . S
C277 C165 1.124 . S
C279 C136 1.124 1_556 S
C295 C199 1.124 . S
C297 C170 1.124 . S
C313 C13 1.846 . S
C315 C183 1.845 . S
C331 C8 1.861 . S
C333 C42 1.861 . S
C349 C81 1.846 . S
C351 C47 1.846 . S
C367 C110 1.861 . S
C369 C76 1.861 . S
C385 C149 1.845 . S
C387 C115 1.845 . S
C403 C144 1.861 . S
C405 C178 1.861 . S
C421 C4 2.036 . S
C423 C153 2.158 . S
C439 C51 2.158 . S
C441 C174 2.036 . S
C457 C72 2.036 . S
C459 C17 2.158 . S
C475 C119 2.158 1_556 S
C477 C38 2.036 . S
C493 C140 2.036 . S
C495 C85 2.158 1_554 S
C511 C106 2.037 . S
C513 C187 2.158 . S
