# Generated by pormake.
# Topology uol, (4)-cn, num edge types: 1
# Building blocks:
#     Node 0, Type 0, BuildingBlock: NAWXER_clean_sbu_0, # of connection points: 4
#     Node 1, Type 0, BuildingBlock: NAWXER_clean_sbu_0, # of connection points: 4
#     Node 2, Type 0, BuildingBlock: NAWXER_clean_sbu_0, # of connection points: 4
#     Node 3, Type 0, BuildingBlock: NAWXER_clean_sbu_0, # of connection points: 4
#     Node 4, Type 0, BuildingBlock: NAWXER_clean_sbu_0, # of connection points: 4
#     Node 5, Type 0, BuildingBlock: NAWXER_clean_sbu_0, # of connection points: 4
#     Node 6, Type 0, BuildingBlock: NAWXER_clean_sbu_0, # of connection points: 4
#     Node 7, Type 0, BuildingBlock: NAWXER_clean_sbu_0, # of connection points: 4
#     Node 8, Type 0, BuildingBlock: NAWXER_clean_sbu_0, # of connection points: 4
#     Node 9, Type 0, BuildingBlock: NAWXER_clean_sbu_0, # of connection points: 4
#     Node 10, Type 0, BuildingBlock: NAWXER_clean_sbu_0, # of connection points: 4
#     Node 11, Type 0, BuildingBlock: NAWXER_clean_sbu_0, # of connection points: 4
#     Edge 12, Type (0, 0), BuildingBlock: EYOCIG_clean_linker_4, # of connection points: 2
#     Edge 13, Type (0, 0), BuildingBlock: EYOCIG_clean_linker_4, # of connection points: 2
#     Edge 14, Type (0, 0), BuildingBlock: EYOCIG_clean_linker_4, # of connection points: 2
#     Edge 15, Type (0, 0), BuildingBlock: EYOCIG_clean_linker_4, # of connection points: 2
#     Edge 16, Type (0, 0), BuildingBlock: EYOCIG_clean_linker_4, # of connection points: 2
#     Edge 17, Type (0, 0), BuildingBlock: EYOCIG_clean_linker_4, # of connection points: 2
#     Edge 18, Type (0, 0), BuildingBlock: EYOCIG_clean_linker_4, # of connection points: 2
#     Edge 19, Type (0, 0), BuildingBlock: EYOCIG_clean_linker_4, # of connection points: 2
#     Edge 20, Type (0, 0), BuildingBlock: EYOCIG_clean_linker_4, # of connection points: 2
#     Edge 21, Type (0, 0), BuildingBlock: EYOCIG_clean_linker_4, # of connection points: 2
#     Edge 22, Type (0, 0), BuildingBlock: EYOCIG_clean_linker_4, # of connection points: 2
#     Edge 23, Type (0, 0), BuildingBlock: EYOCIG_clean_linker_4, # of connection points: 2
#     Edge 24, Type (0, 0), BuildingBlock: EYOCIG_clean_linker_4, # of connection points: 2
#     Edge 25, Type (0, 0), BuildingBlock: EYOCIG_clean_linker_4, # of connection points: 2
#     Edge 26, Type (0, 0), BuildingBlock: EYOCIG_clean_linker_4, # of connection points: 2
#     Edge 27, Type (0, 0), BuildingBlock: EYOCIG_clean_linker_4, # of connection points: 2
#     Edge 28, Type (0, 0), BuildingBlock: EYOCIG_clean_linker_4, # of connection points: 2
#     Edge 29, Type (0, 0), BuildingBlock: EYOCIG_clean_linker_4, # of connection points: 2
#     Edge 30, Type (0, 0), BuildingBlock: EYOCIG_clean_linker_4, # of connection points: 2
#     Edge 31, Type (0, 0), BuildingBlock: EYOCIG_clean_linker_4, # of connection points: 2
#     Edge 32, Type (0, 0), BuildingBlock: EYOCIG_clean_linker_4, # of connection points: 2
#     Edge 33, Type (0, 0), BuildingBlock: EYOCIG_clean_linker_4, # of connection points: 2
#     Edge 34, Type (0, 0), BuildingBlock: EYOCIG_clean_linker_4, # of connection points: 2
#     Edge 35, Type (0, 0), BuildingBlock: EYOCIG_clean_linker_4, # of connection points: 2
# Relax obj value: 0.141
# Max RMSD: 0.284
# Mean RMSD: 0.284
data_MOF--net-uol--node1-NAWXER_clean_sbu_0--edge1-EYOCIG_clean_linker_4
_symmetry_space_group_name_H-M    P1
_symmetry_Int_Tables_number       1
_symmetry_cell_setting            triclinic
loop_
_symmetry_equiv_pos_as_xyz
'x, y, z'
_cell_length_a     27.516562
_cell_length_b     27.505424
_cell_length_c     48.452293
_cell_angle_alpha  89.974386
_cell_angle_beta   90.028879
_cell_angle_gamma 120.01801
loop_
_atom_site_label
_atom_site_type_symbol
_atom_site_fract_x
_atom_site_fract_y
_atom_site_fract_z
_atom_type_partial_charge
C0 C 0.16097 0.32759 0.10285 0.0
C1 C 0.0268 0.29567 0.17584 0.0
O2 O 0.18476 0.36163 0.12301 0.0
Zn3 Zn 0.15709 0.38031 0.16178 0.0
O4 O 0.10807 0.29606 0.10258 0.0
Zn5 Zn 0.0933 0.31713 0.13814 0.0
O6 O 0.10343 0.39933 0.13189 0.0
O7 O 0.17372 0.45631 0.15887 0.0
O8 O 0.01815 0.27316 0.15219 0.0
O9 O 0.07587 0.33584 0.18224 0.0
O10 O 0.20309 0.36819 0.18691 0.0
O11 O 0.14066 0.29189 0.16456 0.0
C12 C 0.13625 0.44856 0.14149 0.0
C13 C 0.18147 0.31626 0.18166 0.0
C14 C 0.85366 0.18658 0.34811 0.0
C15 C 0.67646 0.1407 0.30738 0.0
O16 O 0.83752 0.14577 0.33104 0.0
Zn17 Zn 0.76525 0.09817 0.30446 0.0
O18 O 0.82316 0.20801 0.35322 0.0
Zn19 Zn 0.76539 0.16185 0.32796 0.0
O20 O 0.72853 0.0806 0.34844 0.0
O21 O 0.73408 0.023 0.31856 0.0
O22 O 0.70596 0.17825 0.32478 0.0
O23 O 0.69308 0.10798 0.2979 0.0
O24 O 0.8016 0.11311 0.26901 0.0
O25 O 0.81224 0.1897 0.28933 0.0
C26 C 0.71984 0.03158 0.34212 0.0
C27 C 0.82286 0.16601 0.26926 0.0
C28 C 0.65562 0.85982 0.51464 0.0
C29 C 0.52415 0.68201 0.47441 0.0
O30 O 0.68026 0.84354 0.49765 0.0
Zn31 Zn 0.65551 0.7709 0.4713 0.0
O32 O 0.60371 0.82927 0.51983 0.0
Zn33 Zn 0.59207 0.7712 0.49478 0.0
O34 O 0.63664 0.7347 0.51543 0.0
O35 O 0.69961 0.73997 0.48553 0.0
O36 O 0.51621 0.71163 0.49176 0.0
O37 O 0.57347 0.6986 0.4649 0.0
O38 O 0.67678 0.80686 0.43575 0.0
O39 O 0.61088 0.81762 0.45599 0.0
C40 C 0.67697 0.72602 0.50914 0.0
C41 C 0.64511 0.82806 0.43591 0.0
C42 C 0.80604 0.65141 0.6029 0.0
C43 C 0.93981 0.68275 0.67608 0.0
O44 O 0.78221 0.61691 0.6229 0.0
Zn45 Zn 0.80979 0.59767 0.66158 0.0
O46 O 0.85891 0.6831 0.60277 0.0
Zn47 Zn 0.87358 0.66153 0.63827 0.0
O48 O 0.86432 0.5797 0.63177 0.0
O49 O 0.79373 0.52191 0.65837 0.0
O50 O 0.94853 0.70573 0.65255 0.0
O51 O 0.89082 0.6422 0.68228 0.0
O52 O 0.76327 0.60883 0.68676 0.0
O53 O 0.82557 0.68577 0.66478 0.0
C54 C 0.83162 0.53023 0.64115 0.0
C55 C 0.78462 0.66083 0.68175 0.0
C56 C 0.11261 0.7901 0.84857 0.0
C57 C 0.29002 0.83692 0.80783 0.0
O58 O 0.12867 0.8311 0.83161 0.0
Zn59 Zn 0.20097 0.87919 0.80512 0.0
O60 O 0.14327 0.76881 0.85363 0.0
Zn61 Zn 0.20102 0.8154 0.82847 0.0
O62 O 0.2376 0.89643 0.84916 0.0
O63 O 0.23191 0.95419 0.8194 0.0
O64 O 0.2606 0.79925 0.82519 0.0
O65 O 0.27328 0.86964 0.79845 0.0
O66 O 0.16463 0.86456 0.76967 0.0
O67 O 0.15419 0.78784 0.78978 0.0
C68 C 0.24613 0.94546 0.84295 0.0
C69 C 0.14349 0.81167 0.76979 0.0
C70 C 0.28953 0.25276 1.00917 0.0
C71 C 0.32083 0.14943 0.93648 0.0
O72 O 0.32976 0.24399 1.01556 0.0
Zn73 Zn 0.37406 0.20696 0.9952 0.0
O74 O 0.26677 0.23854 0.98558 0.0
Zn75 Zn 0.31069 0.20726 0.9716 0.0
O76 O 0.28571 0.13503 0.99827 0.0
O77 O 0.36218 0.14923 1.02054 0.0
O78 O 0.28939 0.17089 0.93613 0.0
O79 O 0.35501 0.15996 0.9566 0.0
O80 O 0.44997 0.26635 0.99213 0.0
O81 O 0.39275 0.27949 0.96524 0.0
C82 C 0.31022 0.11885 1.01542 0.0
C83 C 0.44204 0.29604 0.97478 0.0
C84 C 0.65471 0.79036 0.73167 0.0
C85 C 0.52366 0.83672 0.77224 0.0
O86 O 0.67949 0.83126 0.74869 0.0
Zn87 Zn 0.65497 0.87907 0.7752 0.0
O88 O 0.60275 0.76894 0.72658 0.0
Zn89 Zn 0.59135 0.81531 0.75177 0.0
O90 O 0.63589 0.89646 0.73114 0.0
O91 O 0.69908 0.95416 0.76099 0.0
O92 O 0.51554 0.79905 0.75491 0.0
O93 O 0.57305 0.86945 0.7817 0.0
O94 O 0.67645 0.86429 0.81069 0.0
O95 O 0.61045 0.7876 0.79046 0.0
C96 C 0.67631 0.94549 0.73741 0.0
C97 C 0.64482 0.81138 0.81051 0.0
C98 C 0.82271 0.65116 0.97719 0.0
C99 C 0.71982 0.68258 0.90422 0.0
O100 O 0.81174 0.61656 0.95721 0.0
Zn101 Zn 0.76467 0.59739 0.9186 0.0
O102 O 0.80183 0.68311 0.97733 0.0
Zn103 Zn 0.7652 0.66143 0.94194 0.0
O104 O 0.69274 0.57966 0.94875 0.0
O105 O 0.70495 0.52172 0.92197 0.0
O106 O 0.73436 0.70564 0.92772 0.0
O107 O 0.72811 0.64195 0.898 0.0
O108 O 0.8221 0.60831 0.8933 0.0
O109 O 0.83719 0.68537 0.91529 0.0
C110 C 0.67577 0.53014 0.93939 0.0
C111 C 0.85294 0.66028 0.89828 0.0
C112 C 0.18053 0.85938 0.06541 0.0
C113 C 0.13545 0.68209 0.10585 0.0
O114 O 0.13966 0.84292 0.08246 0.0
Zn115 Zn 0.09226 0.77037 0.1089 0.0
O116 O 0.2022 0.82911 0.06024 0.0
Zn117 Zn 0.15613 0.771 0.08536 0.0
O118 O 0.07501 0.7341 0.06479 0.0
O119 O 0.01712 0.73896 0.09471 0.0
O120 O 0.17283 0.71173 0.08842 0.0
O121 O 0.10257 0.69847 0.11537 0.0
O122 O 0.10698 0.80647 0.14442 0.0
O123 O 0.18369 0.81752 0.12411 0.0
C124 C 0.02591 0.72513 0.0711 0.0
C125 C 0.15988 0.82786 0.14421 0.0
C126 C 0.28956 0.03139 0.2379 0.0
C127 C 0.32143 0.16604 0.31071 0.0
O128 O 0.32985 0.0804 0.2315 0.0
Zn129 Zn 0.37441 0.16175 0.25192 0.0
O130 O 0.26699 0.02286 0.26152 0.0
Zn131 Zn 0.31109 0.09809 0.27552 0.0
O132 O 0.28615 0.14546 0.24889 0.0
O133 O 0.36264 0.20772 0.22662 0.0
O134 O 0.28991 0.11312 0.31101 0.0
O135 O 0.35556 0.18972 0.29057 0.0
O136 O 0.45028 0.17822 0.25492 0.0
O137 O 0.39314 0.10791 0.28186 0.0
C138 C 0.31069 0.18617 0.23175 0.0
C139 C 0.44241 0.14066 0.27229 0.0
C140 C 0.29025 0.44797 0.43886 0.0
C141 C 0.11316 0.31648 0.39804 0.0
O142 O 0.27355 0.39862 0.4484 0.0
Zn143 Zn 0.20135 0.31656 0.44186 0.0
O144 O 0.26083 0.45595 0.42139 0.0
Zn145 Zn 0.20134 0.38006 0.41825 0.0
O146 O 0.15431 0.36112 0.45686 0.0
O147 O 0.16484 0.2952 0.47729 0.0
O148 O 0.14372 0.36843 0.3929 0.0
O149 O 0.12919 0.29183 0.41519 0.0
O150 O 0.23251 0.27248 0.42787 0.0
O151 O 0.23815 0.33554 0.39788 0.0
C152 C 0.14361 0.32684 0.47697 0.0
C153 C 0.24676 0.29519 0.40428 0.0
C154 C 0.83197 0.29646 0.60594 0.0
C155 C 0.78498 0.11928 0.56475 0.0
O156 O 0.86456 0.27953 0.61528 0.0
Zn157 Zn 0.87379 0.20703 0.6085 0.0
O158 O 0.79422 0.26715 0.58859 0.0
Zn159 Zn 0.81016 0.20742 0.58519 0.0
O160 O 0.78232 0.16021 0.62375 0.0
O161 O 0.85883 0.17029 0.64389 0.0
O162 O 0.76367 0.14999 0.55985 0.0
O163 O 0.82583 0.13509 0.58177 0.0
O164 O 0.94882 0.23794 0.59426 0.0
O165 O 0.89124 0.24406 0.56456 0.0
C166 C 0.80598 0.14926 0.64373 0.0
C167 C 0.94019 0.25242 0.57075 0.0
C168 C 0.1275 0.58615 0.12052 0.0
C169 C 0.12962 0.6296 0.11441 0.0
C170 C 0.12773 0.53636 0.12707 0.0
C171 C 0.1302 0.49518 0.1331 0.0
C172 C 0.58013 0.13199 0.2929 0.0
C173 C 0.62375 0.1344 0.29889 0.0
C174 C 0.53016 0.13199 0.28653 0.0
C175 C 0.48891 0.1344 0.28063 0.0
C176 C 0.43643 0.58566 0.45995 0.0
C177 C 0.47765 0.62929 0.46595 0.0
C178 C 0.38648 0.53569 0.45345 0.0
C179 C 0.3429 0.49446 0.4474 0.0
C180 C 0.841 0.44288 0.62689 0.0
C181 C 0.83833 0.48399 0.63279 0.0
C182 C 0.84112 0.39294 0.62054 0.0
C183 C 0.83862 0.34927 0.61452 0.0
C184 C 0.43615 0.8456 0.7867 0.0
C185 C 0.47729 0.84309 0.7807 0.0
C186 C 0.38627 0.84569 0.79318 0.0
C187 C 0.34269 0.84329 0.79925 0.0
C188 C 0.52965 0.39263 0.96054 0.0
C189 C 0.4885 0.34888 0.96646 0.0
C190 C 0.57951 0.44271 0.95412 0.0
C191 C 0.62308 0.48392 0.94805 0.0
C192 C 0.25472 0.23203 0.2114 0.0
C193 C 0.28046 0.21119 0.22066 0.0
C194 C 0.22716 0.25987 0.20169 0.0
C195 C 0.20641 0.28582 0.19258 0.0
C196 C 0.95573 0.23288 0.3682 0.0
C197 C 0.90903 0.21189 0.35907 0.0
C198 C 0.01118 0.26064 0.37784 0.0
C199 C 0.05784 0.28638 0.38701 0.0
C200 C 0.73867 0.01751 0.54426 0.0
C201 C 0.7596 0.06409 0.55354 0.0
C202 C 0.71117 0.9621 0.53454 0.0
C203 C 0.68566 0.91533 0.52548 0.0
C204 C 0.73807 0.71627 0.70191 0.0
C205 C 0.75916 0.69069 0.69276 0.0
C206 C 0.71034 0.74396 0.71156 0.0
C207 C 0.6847 0.76501 0.7207 0.0
C208 C 0.95494 0.71544 0.8781 0.0
C209 C 0.90826 0.68993 0.88724 0.0
C210 C 0.01042 0.74321 0.86852 0.0
C211 C 0.05718 0.76445 0.85947 0.0
C212 C 0.22641 0.9615 0.04538 0.0
C213 C 0.20555 0.91479 0.0545 0.0
C214 C 0.25413 0.01693 1.03569 0.0
C215 C 0.27994 0.06355 1.02647 0.0
C216 C 0.22051 0.31074 0.06502 0.0
C217 C 0.19457 0.31947 0.08257 0.0
C218 C 0.24779 0.29409 0.04552 0.0
C219 C 0.26755 0.27532 1.02929 0.0
C220 C 0.89968 0.22589 0.23163 0.0
C221 C 0.8648 0.19975 0.24908 0.0
C222 C 0.94376 0.25346 0.21222 0.0
C223 C 0.98232 0.27348 0.19599 0.0
C224 C 0.67865 0.94852 0.37854 0.0
C225 C 0.69735 0.98706 0.36229 0.0
C226 C 0.66202 0.90453 0.39805 0.0
C227 C 0.65327 0.86982 0.4156 0.0
C228 C 0.74653 0.66865 0.56514 0.0
C229 C 0.77247 0.65975 0.58264 0.0
C230 C 0.71911 0.68525 0.54565 0.0
C231 C 0.69912 0.70376 0.52937 0.0
C232 C 0.0667 0.75208 0.73208 0.0
C233 C 0.10156 0.77806 0.74957 0.0
C234 C 0.02266 0.72466 0.71261 0.0
C235 C -0.01584 0.70474 0.69633 0.0
C236 C 0.30366 0.07245 0.89888 0.0
C237 C 0.31252 0.10739 0.91632 0.0
C238 C 0.28705 0.02835 0.87945 0.0
C239 C 0.26848 -0.01018 0.86319 0.0
C240 C 0.662 0.75181 0.84827 0.0
C241 C 0.65311 0.77776 0.83075 0.0
C242 C 0.6787 0.72446 0.86775 0.0
C243 C 0.69736 0.70458 0.88402 0.0
C244 C 0.89926 0.66789 1.01496 0.0
C245 C 0.86451 0.65918 0.99744 0.0
C246 C 0.94315 0.68435 1.03451 0.0
C247 C 0.98156 0.70287 0.05084 0.0
C248 C 0.21959 0.90434 0.18203 0.0
C249 C 0.19348 0.86962 0.1645 0.0
C250 C 0.2472 0.94832 0.20151 0.0
C251 C 0.26726 0.98687 0.21775 0.0
C252 C 0.30445 0.22573 0.34844 0.0
C253 C 0.31326 0.19975 0.33093 0.0
C254 C 0.28783 0.25312 0.36792 0.0
C255 C 0.26918 0.27303 0.38416 0.0
C256 C 0.06689 0.30995 0.51466 0.0
C257 C 0.10171 0.31874 0.49717 0.0
C258 C 0.02296 0.29338 0.53419 0.0
C259 C -0.01547 0.27479 0.5505 0.0
C260 C 0.71854 0.02841 0.70089 0.0
C261 C 0.69849 -0.01011 0.71717 0.0
C262 C 0.74612 0.07244 0.68141 0.0
C263 C 0.77223 0.10732 0.66394 0.0
loop_
_geom_bond_atom_site_label_1
_geom_bond_atom_site_label_2
_geom_bond_distance
_geom_bond_site_symmetry_2
_ccdc_geom_bond_type
C0 O2 1.247 . S
C0 O4 1.258 . S
C1 O8 1.247 . S
C1 O9 1.258 . S
O2 C0 1.247 . S
O2 Zn3 2.028 . S
Zn3 O2 2.028 . S
Zn3 O7 2.035 . S
Zn3 O9 2.035 . S
Zn3 O10 2.028 . S
O4 C0 1.258 . S
O4 Zn5 2.035 . S
Zn5 O4 2.035 . S
Zn5 O6 2.028 . S
Zn5 O8 2.028 . S
Zn5 O11 2.035 . S
O6 Zn5 2.028 . S
O6 C12 1.247 . S
O7 Zn3 2.035 . S
O7 C12 1.258 . S
O8 C1 1.247 . S
O8 Zn5 2.028 . S
O9 C1 1.258 . S
O9 Zn3 2.035 . S
O10 Zn3 2.028 . S
O10 C13 1.247 . S
O11 Zn5 2.035 . S
O11 C13 1.258 . S
C12 O6 1.247 . S
C12 O7 1.258 . S
C13 O10 1.247 . S
C13 O11 1.258 . S
C14 O16 1.247 . S
C14 O18 1.258 . S
C15 O22 1.247 . S
C15 O23 1.258 . S
O16 C14 1.247 . S
O16 Zn17 2.028 . S
Zn17 O16 2.028 . S
Zn17 O21 2.035 . S
Zn17 O23 2.035 . S
Zn17 O24 2.028 . S
O18 C14 1.258 . S
O18 Zn19 2.035 . S
Zn19 O18 2.035 . S
Zn19 O20 2.028 . S
Zn19 O22 2.028 . S
Zn19 O25 2.035 . S
O20 Zn19 2.028 . S
O20 C26 1.247 . S
O21 Zn17 2.035 . S
O21 C26 1.258 . S
O22 C15 1.247 . S
O22 Zn19 2.028 . S
O23 C15 1.258 . S
O23 Zn17 2.035 . S
O24 Zn17 2.028 . S
O24 C27 1.247 . S
O25 Zn19 2.035 . S
O25 C27 1.258 . S
C26 O20 1.247 . S
C26 O21 1.258 . S
C27 O24 1.247 . S
C27 O25 1.258 . S
C28 O30 1.247 . S
C28 O32 1.258 . S
C29 O36 1.247 . S
C29 O37 1.258 . S
O30 C28 1.247 . S
O30 Zn31 2.028 . S
Zn31 O30 2.028 . S
Zn31 O35 2.035 . S
Zn31 O37 2.035 . S
Zn31 O38 2.028 . S
O32 C28 1.258 . S
O32 Zn33 2.035 . S
Zn33 O32 2.035 . S
Zn33 O34 2.028 . S
Zn33 O36 2.028 . S
Zn33 O39 2.035 . S
O34 Zn33 2.028 . S
O34 C40 1.247 . S
O35 Zn31 2.035 . S
O35 C40 1.258 . S
O36 C29 1.247 . S
O36 Zn33 2.028 . S
O37 C29 1.258 . S
O37 Zn31 2.035 . S
O38 Zn31 2.028 . S
O38 C41 1.247 . S
O39 Zn33 2.035 . S
O39 C41 1.258 . S
C40 O34 1.247 . S
C40 O35 1.258 . S
C41 O38 1.247 . S
C41 O39 1.258 . S
C42 O44 1.247 . S
C42 O46 1.258 . S
C43 O50 1.247 . S
C43 O51 1.258 . S
O44 C42 1.247 . S
O44 Zn45 2.028 . S
Zn45 O44 2.028 . S
Zn45 O49 2.035 . S
Zn45 O51 2.035 . S
Zn45 O52 2.028 . S
O46 C42 1.258 . S
O46 Zn47 2.035 . S
Zn47 O46 2.035 . S
Zn47 O48 2.028 . S
Zn47 O50 2.028 . S
Zn47 O53 2.035 . S
O48 Zn47 2.028 . S
O48 C54 1.247 . S
O49 Zn45 2.035 . S
O49 C54 1.258 . S
O50 C43 1.247 . S
O50 Zn47 2.028 . S
O51 C43 1.258 . S
O51 Zn45 2.035 . S
O52 Zn45 2.028 . S
O52 C55 1.247 . S
O53 Zn47 2.035 . S
O53 C55 1.258 . S
C54 O48 1.247 . S
C54 O49 1.258 . S
C55 O52 1.247 . S
C55 O53 1.258 . S
C56 O58 1.247 . S
C56 O60 1.258 . S
C57 O64 1.247 . S
C57 O65 1.258 . S
O58 C56 1.247 . S
O58 Zn59 2.028 . S
Zn59 O58 2.028 . S
Zn59 O63 2.035 . S
Zn59 O65 2.035 . S
Zn59 O66 2.028 . S
O60 C56 1.258 . S
O60 Zn61 2.035 . S
Zn61 O60 2.035 . S
Zn61 O62 2.028 . S
Zn61 O64 2.028 . S
Zn61 O67 2.035 . S
O62 Zn61 2.028 . S
O62 C68 1.247 . S
O63 Zn59 2.035 . S
O63 C68 1.258 . S
O64 C57 1.247 . S
O64 Zn61 2.028 . S
O65 C57 1.258 . S
O65 Zn59 2.035 . S
O66 Zn59 2.028 . S
O66 C69 1.247 . S
O67 Zn61 2.035 . S
O67 C69 1.258 . S
C68 O62 1.247 . S
C68 O63 1.258 . S
C69 O66 1.247 . S
C69 O67 1.258 . S
C70 O72 1.247 . S
C70 O74 1.258 . S
C71 O78 1.247 . S
C71 O79 1.258 . S
O72 C70 1.247 . S
O72 Zn73 2.028 . S
Zn73 O72 2.028 . S
Zn73 O77 2.035 . S
Zn73 O79 2.035 . S
Zn73 O80 2.028 . S
O74 C70 1.258 . S
O74 Zn75 2.035 . S
Zn75 O74 2.035 . S
Zn75 O76 2.028 . S
Zn75 O78 2.028 . S
Zn75 O81 2.035 . S
O76 Zn75 2.028 . S
O76 C82 1.247 . S
O77 Zn73 2.035 . S
O77 C82 1.258 . S
O78 C71 1.247 . S
O78 Zn75 2.028 . S
O79 C71 1.258 . S
O79 Zn73 2.035 . S
O80 Zn73 2.028 . S
O80 C83 1.247 . S
O81 Zn75 2.035 . S
O81 C83 1.258 . S
C82 O76 1.247 . S
C82 O77 1.258 . S
C83 O80 1.247 . S
C83 O81 1.258 . S
C84 O86 1.247 . S
C84 O88 1.258 . S
C85 O92 1.247 . S
C85 O93 1.258 . S
O86 C84 1.247 . S
O86 Zn87 2.028 . S
Zn87 O86 2.028 . S
Zn87 O91 2.035 . S
Zn87 O93 2.035 . S
Zn87 O94 2.028 . S
O88 C84 1.258 . S
O88 Zn89 2.035 . S
Zn89 O88 2.035 . S
Zn89 O90 2.028 . S
Zn89 O92 2.028 . S
Zn89 O95 2.035 . S
O90 Zn89 2.028 . S
O90 C96 1.247 . S
O91 Zn87 2.035 . S
O91 C96 1.258 . S
O92 C85 1.247 . S
O92 Zn89 2.028 . S
O93 C85 1.258 . S
O93 Zn87 2.035 . S
O94 Zn87 2.028 . S
O94 C97 1.247 . S
O95 Zn89 2.035 . S
O95 C97 1.258 . S
C96 O90 1.247 . S
C96 O91 1.258 . S
C97 O94 1.247 . S
C97 O95 1.258 . S
C98 O100 1.247 . S
C98 O102 1.258 . S
C99 O106 1.247 . S
C99 O107 1.258 . S
O100 C98 1.247 . S
O100 Zn101 2.028 . S
Zn101 O100 2.028 . S
Zn101 O105 2.035 . S
Zn101 O107 2.035 . S
Zn101 O108 2.028 . S
O102 C98 1.258 . S
O102 Zn103 2.035 . S
Zn103 O102 2.035 . S
Zn103 O104 2.028 . S
Zn103 O106 2.028 . S
Zn103 O109 2.035 . S
O104 Zn103 2.028 . S
O104 C110 1.247 . S
O105 Zn101 2.035 . S
O105 C110 1.258 . S
O106 C99 1.247 . S
O106 Zn103 2.028 . S
O107 C99 1.258 . S
O107 Zn101 2.035 . S
O108 Zn101 2.028 . S
O108 C111 1.247 . S
O109 Zn103 2.035 . S
O109 C111 1.258 . S
C110 O104 1.247 . S
C110 O105 1.258 . S
C111 O108 1.247 . S
C111 O109 1.258 . S
C112 O114 1.247 . S
C112 O116 1.258 . S
C113 O120 1.247 . S
C113 O121 1.258 . S
O114 C112 1.247 . S
O114 Zn115 2.028 . S
Zn115 O114 2.028 . S
Zn115 O119 2.035 . S
Zn115 O121 2.035 . S
Zn115 O122 2.028 . S
O116 C112 1.258 . S
O116 Zn117 2.035 . S
Zn117 O116 2.035 . S
Zn117 O118 2.028 . S
Zn117 O120 2.028 . S
Zn117 O123 2.035 . S
O118 Zn117 2.028 . S
O118 C124 1.247 . S
O119 Zn115 2.035 . S
O119 C124 1.258 . S
O120 C113 1.247 . S
O120 Zn117 2.028 . S
O121 C113 1.258 . S
O121 Zn115 2.035 . S
O122 Zn115 2.028 . S
O122 C125 1.247 . S
O123 Zn117 2.035 . S
O123 C125 1.258 . S
C124 O118 1.247 . S
C124 O119 1.258 . S
C125 O122 1.247 . S
C125 O123 1.258 . S
C126 O128 1.247 . S
C126 O130 1.258 . S
C127 O134 1.247 . S
C127 O135 1.258 . S
O128 C126 1.247 . S
O128 Zn129 2.028 . S
Zn129 O128 2.028 . S
Zn129 O133 2.035 . S
Zn129 O135 2.035 . S
Zn129 O136 2.028 . S
O130 C126 1.258 . S
O130 Zn131 2.035 . S
Zn131 O130 2.035 . S
Zn131 O132 2.028 . S
Zn131 O134 2.028 . S
Zn131 O137 2.035 . S
O132 Zn131 2.028 . S
O132 C138 1.247 . S
O133 Zn129 2.035 . S
O133 C138 1.258 . S
O134 C127 1.247 . S
O134 Zn131 2.028 . S
O135 C127 1.258 . S
O135 Zn129 2.035 . S
O136 Zn129 2.028 . S
O136 C139 1.247 . S
O137 Zn131 2.035 . S
O137 C139 1.258 . S
C138 O132 1.247 . S
C138 O133 1.258 . S
C139 O136 1.247 . S
C139 O137 1.258 . S
C140 O142 1.247 . S
C140 O144 1.258 . S
C141 O148 1.247 . S
C141 O149 1.258 . S
O142 C140 1.247 . S
O142 Zn143 2.028 . S
Zn143 O142 2.028 . S
Zn143 O147 2.035 . S
Zn143 O149 2.035 . S
Zn143 O150 2.028 . S
O144 C140 1.258 . S
O144 Zn145 2.035 . S
Zn145 O144 2.035 . S
Zn145 O146 2.028 . S
Zn145 O148 2.028 . S
Zn145 O151 2.035 . S
O146 Zn145 2.028 . S
O146 C152 1.247 . S
O147 Zn143 2.035 . S
O147 C152 1.258 . S
O148 C141 1.247 . S
O148 Zn145 2.028 . S
O149 C141 1.258 . S
O149 Zn143 2.035 . S
O150 Zn143 2.028 . S
O150 C153 1.247 . S
O151 Zn145 2.035 . S
O151 C153 1.258 . S
C152 O146 1.247 . S
C152 O147 1.258 . S
C153 O150 1.247 . S
C153 O151 1.258 . S
C154 O156 1.247 . S
C154 O158 1.258 . S
C155 O162 1.247 . S
C155 O163 1.258 . S
O156 C154 1.247 . S
O156 Zn157 2.028 . S
Zn157 O156 2.028 . S
Zn157 O161 2.035 . S
Zn157 O163 2.035 . S
Zn157 O164 2.028 . S
O158 C154 1.258 . S
O158 Zn159 2.035 . S
Zn159 O158 2.035 . S
Zn159 O160 2.028 . S
Zn159 O162 2.028 . S
Zn159 O165 2.035 . S
O160 Zn159 2.028 . S
O160 C166 1.247 . S
O161 Zn157 2.035 . S
O161 C166 1.258 . S
O162 C155 1.247 . S
O162 Zn159 2.028 . S
O163 C155 1.258 . S
O163 Zn157 2.035 . S
O164 Zn157 2.028 . S
O164 C167 1.247 . S
O165 Zn159 2.035 . S
O165 C167 1.258 . S
C166 O160 1.247 . S
C166 O161 1.258 . S
C167 O164 1.247 . S
C167 O165 1.258 . S
C168 C169 1.170 . S
C168 C170 1.380 . S
C169 C168 1.170 . S
C170 C168 1.380 . S
C170 C171 1.170 . S
C171 C170 1.170 . S
C172 C173 1.170 . S
C172 C174 1.380 . S
C173 C172 1.170 . S
C174 C172 1.380 . S
C174 C175 1.170 . S
C175 C174 1.170 . S
C176 C177 1.170 . S
C176 C178 1.380 . S
C177 C176 1.170 . S
C178 C176 1.380 . S
C178 C179 1.170 . S
C179 C178 1.170 . S
C180 C181 1.170 . S
C180 C182 1.380 . S
C181 C180 1.170 . S
C182 C180 1.380 . S
C182 C183 1.170 . S
C183 C182 1.170 . S
C184 C185 1.170 . S
C184 C186 1.380 . S
C185 C184 1.170 . S
C186 C184 1.380 . S
C186 C187 1.170 . S
C187 C186 1.170 . S
C188 C189 1.170 . S
C188 C190 1.380 . S
C189 C188 1.170 . S
C190 C188 1.380 . S
C190 C191 1.170 . S
C191 C190 1.170 . S
C192 C193 1.170 . S
C192 C194 1.380 . S
C193 C192 1.170 . S
C194 C192 1.380 . S
C194 C195 1.170 . S
C195 C194 1.170 . S
C196 C197 1.170 . S
C196 C198 1.380 1_655 S
C197 C196 1.170 . S
C198 C196 1.380 1_455 S
C198 C199 1.170 . S
C199 C198 1.170 . S
C200 C201 1.170 . S
C200 C202 1.380 1_545 S
C201 C200 1.170 . S
C202 C200 1.380 1_565 S
C202 C203 1.170 . S
C203 C202 1.170 . S
C204 C205 1.170 . S
C204 C206 1.380 . S
C205 C204 1.170 . S
C206 C204 1.380 . S
C206 C207 1.170 . S
C207 C206 1.170 . S
C208 C209 1.170 . S
C208 C210 1.380 1_655 S
C209 C208 1.170 . S
C210 C208 1.380 1_455 S
C210 C211 1.170 . S
C211 C210 1.170 . S
C212 C213 1.170 . S
C212 C214 1.380 1_564 S
C213 C212 1.170 . S
C214 C212 1.380 1_546 S
C214 C215 1.170 . S
C215 C214 1.170 . S
C216 C217 1.170 . S
C216 C218 1.380 . S
C217 C216 1.170 . S
C218 C216 1.380 . S
C218 C219 1.170 . S
C219 C218 1.170 . S
C220 C221 1.170 . S
C220 C222 1.380 . S
C221 C220 1.170 . S
C222 C220 1.380 . S
C222 C223 1.170 1_655 S
C223 C222 1.170 1_455 S
C224 C225 1.170 1_565 S
C224 C226 1.380 . S
C225 C224 1.170 1_545 S
C226 C224 1.380 . S
C226 C227 1.170 . S
C227 C226 1.170 . S
C228 C229 1.170 . S
C228 C230 1.380 . S
C229 C228 1.170 . S
C230 C228 1.380 . S
C230 C231 1.170 . S
C231 C230 1.170 . S
C232 C233 1.170 . S
C232 C234 1.380 . S
C233 C232 1.170 . S
C234 C232 1.380 . S
C234 C235 1.170 1_455 S
C235 C234 1.170 1_655 S
C236 C237 1.170 . S
C236 C238 1.380 . S
C237 C236 1.170 . S
C238 C236 1.380 . S
C238 C239 1.170 1_545 S
C239 C238 1.170 1_565 S
C240 C241 1.170 . S
C240 C242 1.380 . S
C241 C240 1.170 . S
C242 C240 1.380 . S
C242 C243 1.170 . S
C243 C242 1.170 . S
C244 C245 1.170 . S
C244 C246 1.380 . S
C245 C244 1.170 . S
C246 C244 1.380 . S
C246 C247 1.170 1_655 S
C247 C246 1.170 1_455 S
C248 C249 1.170 . S
C248 C250 1.380 . S
C249 C248 1.170 . S
C250 C248 1.380 . S
C250 C251 1.170 1_565 S
C251 C250 1.170 1_545 S
C252 C253 1.170 . S
C252 C254 1.380 . S
C253 C252 1.170 . S
C254 C252 1.380 . S
C254 C255 1.170 . S
C255 C254 1.170 . S
C256 C257 1.170 . S
C256 C258 1.380 . S
C257 C256 1.170 . S
C258 C256 1.380 . S
C258 C259 1.170 1_455 S
C259 C258 1.170 1_655 S
C260 C261 1.170 1_545 S
C260 C262 1.380 . S
C261 C260 1.170 1_565 S
C262 C260 1.380 . S
C262 C263 1.170 . S
C263 C262 1.170 . S
C169 C113 1.616 . S
C171 C12 1.597 . S
C173 C15 1.620 . S
C175 C139 1.597 . S
C177 C29 1.608 . S
C179 C140 1.596 . S
C181 C54 1.601 . S
C183 C154 1.623 . S
C185 C85 1.596 . S
C187 C57 1.605 . S
C189 C83 1.599 . S
C191 C110 1.623 . S
C193 C138 1.413 . S
C195 C13 1.435 . S
C197 C14 1.434 . S
C199 C141 1.410 . S
C201 C155 1.409 . S
C203 C28 1.433 . S
C205 C55 1.414 . S
C207 C84 1.414 . S
C209 C111 1.411 . S
C211 C56 1.416 . S
C213 C112 1.440 . S
C215 C82 1.425 . S
C217 C0 1.905 . S
C219 C70 1.882 1_554 S
C221 C27 1.898 . S
C223 C1 1.877 . S
C225 C26 1.870 . S
C227 C41 1.912 . S
C229 C42 1.895 . S
C231 C40 1.867 . S
C233 C69 1.896 . S
C235 C43 1.874 . S
C237 C71 1.895 . S
C239 C68 1.873 . S
C241 C97 1.909 . S
C243 C99 1.876 . S
C245 C98 1.905 . S
C247 C124 1.882 1_556 S
C249 C125 1.912 . S
C251 C126 1.869 . S
C253 C127 1.911 . S
C255 C153 1.859 . S
C257 C152 1.901 . S
C259 C167 1.879 . S
C261 C96 1.880 . S
C263 C166 1.908 . S
