# Generated by pormake.
# Topology sms, (6)-cn, num edge types: 1
# Building blocks:
#     Node 0, Type 0, BuildingBlock: IZENUY_clean_sbu_0, # of connection points: 6
#     Node 1, Type 0, BuildingBlock: IZENUY_clean_sbu_0, # of connection points: 6
#     Node 2, Type 0, BuildingBlock: IZENUY_clean_sbu_0, # of connection points: 6
#     Node 3, Type 0, BuildingBlock: IZENUY_clean_sbu_0, # of connection points: 6
#     Node 4, Type 0, BuildingBlock: IZENUY_clean_sbu_0, # of connection points: 6
#     Node 5, Type 0, BuildingBlock: IZENUY_clean_sbu_0, # of connection points: 6
#     Node 6, Type 0, BuildingBlock: IZENUY_clean_sbu_0, # of connection points: 6
#     Node 7, Type 0, BuildingBlock: IZENUY_clean_sbu_0, # of connection points: 6
#     Node 8, Type 0, BuildingBlock: IZENUY_clean_sbu_0, # of connection points: 6
#     Node 9, Type 0, BuildingBlock: IZENUY_clean_sbu_0, # of connection points: 6
#     Node 10, Type 0, BuildingBlock: IZENUY_clean_sbu_0, # of connection points: 6
#     Node 11, Type 0, BuildingBlock: IZENUY_clean_sbu_0, # of connection points: 6
#     Node 12, Type 0, BuildingBlock: IZENUY_clean_sbu_0, # of connection points: 6
#     Node 13, Type 0, BuildingBlock: IZENUY_clean_sbu_0, # of connection points: 6
#     Node 14, Type 0, BuildingBlock: IZENUY_clean_sbu_0, # of connection points: 6
#     Node 15, Type 0, BuildingBlock: IZENUY_clean_sbu_0, # of connection points: 6
#     Node 16, Type 0, BuildingBlock: IZENUY_clean_sbu_0, # of connection points: 6
#     Node 17, Type 0, BuildingBlock: IZENUY_clean_sbu_0, # of connection points: 6
#     Edge 18, Type (0, 0), BuildingBlock: AJUNOK_clean_linker_0, # of connection points: 2
#     Edge 19, Type (0, 0), BuildingBlock: AJUNOK_clean_linker_0, # of connection points: 2
#     Edge 20, Type (0, 0), BuildingBlock: AJUNOK_clean_linker_0, # of connection points: 2
#     Edge 21, Type (0, 0), BuildingBlock: AJUNOK_clean_linker_0, # of connection points: 2
#     Edge 22, Type (0, 0), BuildingBlock: AJUNOK_clean_linker_0, # of connection points: 2
#     Edge 23, Type (0, 0), BuildingBlock: AJUNOK_clean_linker_0, # of connection points: 2
#     Edge 24, Type (0, 0), BuildingBlock: AJUNOK_clean_linker_0, # of connection points: 2
#     Edge 25, Type (0, 0), BuildingBlock: AJUNOK_clean_linker_0, # of connection points: 2
#     Edge 26, Type (0, 0), BuildingBlock: AJUNOK_clean_linker_0, # of connection points: 2
#     Edge 27, Type (0, 0), BuildingBlock: AJUNOK_clean_linker_0, # of connection points: 2
#     Edge 28, Type (0, 0), BuildingBlock: AJUNOK_clean_linker_0, # of connection points: 2
#     Edge 29, Type (0, 0), BuildingBlock: AJUNOK_clean_linker_0, # of connection points: 2
#     Edge 30, Type (0, 0), BuildingBlock: AJUNOK_clean_linker_0, # of connection points: 2
#     Edge 31, Type (0, 0), BuildingBlock: AJUNOK_clean_linker_0, # of connection points: 2
#     Edge 32, Type (0, 0), BuildingBlock: AJUNOK_clean_linker_0, # of connection points: 2
#     Edge 33, Type (0, 0), BuildingBlock: AJUNOK_clean_linker_0, # of connection points: 2
#     Edge 34, Type (0, 0), BuildingBlock: AJUNOK_clean_linker_0, # of connection points: 2
#     Edge 35, Type (0, 0), BuildingBlock: AJUNOK_clean_linker_0, # of connection points: 2
#     Edge 36, Type (0, 0), BuildingBlock: AJUNOK_clean_linker_0, # of connection points: 2
#     Edge 37, Type (0, 0), BuildingBlock: AJUNOK_clean_linker_0, # of connection points: 2
#     Edge 38, Type (0, 0), BuildingBlock: AJUNOK_clean_linker_0, # of connection points: 2
#     Edge 39, Type (0, 0), BuildingBlock: AJUNOK_clean_linker_0, # of connection points: 2
#     Edge 40, Type (0, 0), BuildingBlock: AJUNOK_clean_linker_0, # of connection points: 2
#     Edge 41, Type (0, 0), BuildingBlock: AJUNOK_clean_linker_0, # of connection points: 2
#     Edge 42, Type (0, 0), BuildingBlock: AJUNOK_clean_linker_0, # of connection points: 2
#     Edge 43, Type (0, 0), BuildingBlock: AJUNOK_clean_linker_0, # of connection points: 2
#     Edge 44, Type (0, 0), BuildingBlock: AJUNOK_clean_linker_0, # of connection points: 2
#     Edge 45, Type (0, 0), BuildingBlock: AJUNOK_clean_linker_0, # of connection points: 2
#     Edge 46, Type (0, 0), BuildingBlock: AJUNOK_clean_linker_0, # of connection points: 2
#     Edge 47, Type (0, 0), BuildingBlock: AJUNOK_clean_linker_0, # of connection points: 2
#     Edge 48, Type (0, 0), BuildingBlock: AJUNOK_clean_linker_0, # of connection points: 2
#     Edge 49, Type (0, 0), BuildingBlock: AJUNOK_clean_linker_0, # of connection points: 2
#     Edge 50, Type (0, 0), BuildingBlock: AJUNOK_clean_linker_0, # of connection points: 2
#     Edge 51, Type (0, 0), BuildingBlock: AJUNOK_clean_linker_0, # of connection points: 2
#     Edge 52, Type (0, 0), BuildingBlock: AJUNOK_clean_linker_0, # of connection points: 2
#     Edge 53, Type (0, 0), BuildingBlock: AJUNOK_clean_linker_0, # of connection points: 2
#     Edge 54, Type (0, 0), BuildingBlock: AJUNOK_clean_linker_0, # of connection points: 2
#     Edge 55, Type (0, 0), BuildingBlock: AJUNOK_clean_linker_0, # of connection points: 2
#     Edge 56, Type (0, 0), BuildingBlock: AJUNOK_clean_linker_0, # of connection points: 2
#     Edge 57, Type (0, 0), BuildingBlock: AJUNOK_clean_linker_0, # of connection points: 2
#     Edge 58, Type (0, 0), BuildingBlock: AJUNOK_clean_linker_0, # of connection points: 2
#     Edge 59, Type (0, 0), BuildingBlock: AJUNOK_clean_linker_0, # of connection points: 2
#     Edge 60, Type (0, 0), BuildingBlock: AJUNOK_clean_linker_0, # of connection points: 2
#     Edge 61, Type (0, 0), BuildingBlock: AJUNOK_clean_linker_0, # of connection points: 2
#     Edge 62, Type (0, 0), BuildingBlock: AJUNOK_clean_linker_0, # of connection points: 2
#     Edge 63, Type (0, 0), BuildingBlock: AJUNOK_clean_linker_0, # of connection points: 2
#     Edge 64, Type (0, 0), BuildingBlock: AJUNOK_clean_linker_0, # of connection points: 2
#     Edge 65, Type (0, 0), BuildingBlock: AJUNOK_clean_linker_0, # of connection points: 2
#     Edge 66, Type (0, 0), BuildingBlock: AJUNOK_clean_linker_0, # of connection points: 2
#     Edge 67, Type (0, 0), BuildingBlock: AJUNOK_clean_linker_0, # of connection points: 2
#     Edge 68, Type (0, 0), BuildingBlock: AJUNOK_clean_linker_0, # of connection points: 2
#     Edge 69, Type (0, 0), BuildingBlock: AJUNOK_clean_linker_0, # of connection points: 2
#     Edge 70, Type (0, 0), BuildingBlock: AJUNOK_clean_linker_0, # of connection points: 2
#     Edge 71, Type (0, 0), BuildingBlock: AJUNOK_clean_linker_0, # of connection points: 2
# Relax obj value: 0.430
# Max RMSD: 0.158
# Mean RMSD: 0.158
data_MOF--net-sms--node1-IZENUY_clean_sbu_0--edge1-AJUNOK_clean_linker_0
_symmetry_space_group_name_H-M    P1
_symmetry_Int_Tables_number       1
_symmetry_cell_setting            triclinic
loop_
_symmetry_equiv_pos_as_xyz
'x, y, z'
_cell_length_a     28.550148
_cell_length_b     28.600835
_cell_length_c     44.00462
_cell_angle_alpha  89.998027
_cell_angle_beta   89.923142
_cell_angle_gamma 120.02235
loop_
_atom_site_label
_atom_site_type_symbol
_atom_site_fract_x
_atom_site_fract_y
_atom_site_fract_z
_atom_type_partial_charge
Fe0 Fe 0.23592 0.45433 0.11774 0.0
Fe1 Fe 0.17141 0.33486 0.10197 0.0
O2 O 0.20651 0.40321 0.09002 0.0
Fe3 Fe 0.2126 0.42128 0.05107 0.0
O4 O 0.28648 0.45847 0.05263 0.0
O5 O 0.28989 0.50333 0.0936 0.0
O6 O 0.28128 0.43082 0.12893 0.0
C7 C 0.26574 0.38418 0.1391 0.0
C8 C 0.19046 0.49659 0.08085 0.0
O9 O 0.21705 0.34644 0.13501 0.0
C10 C 0.10806 0.33712 0.05229 0.0
O11 O 0.188 0.41596 0.14793 0.0
O12 O 0.12369 0.34589 0.1246 0.0
O13 O 0.20838 0.4827 0.05816 0.0
O14 O 0.19188 0.47989 0.10721 0.0
C15 C 0.2268 0.32977 0.05194 0.0
O16 O 0.12086 0.31167 0.07107 0.0
O17 O 0.14015 0.38599 0.04608 0.0
C18 C 0.13882 0.38074 0.14542 0.0
O19 O 0.21613 0.3199 0.0799 0.0
O20 O 0.2171 0.3627 0.03788 0.0
C21 C 0.31292 0.49621 0.07116 0.0
Fe22 Fe 0.54852 0.77842 0.11419 0.0
Fe23 Fe 0.6696 0.83633 0.10153 0.0
O24 O 0.60223 0.80387 0.08779 0.0
Fe25 Fe 0.58748 0.79643 0.04823 0.0
O26 O 0.54992 0.83267 0.05073 0.0
O27 O 0.50145 0.7858 0.08958 0.0
O28 O 0.57022 0.84545 0.12809 0.0
C29 C 0.61615 0.87627 0.1393 0.0
C30 C 0.5108 0.69525 0.07392 0.0
O31 O 0.65497 0.86696 0.13518 0.0
C32 C 0.67177 0.77596 0.05019 0.0
O33 O 0.5843 0.76572 0.14464 0.0
O34 O 0.65755 0.77604 0.12272 0.0
O35 O 0.52548 0.72958 0.05242 0.0
O36 O 0.52481 0.71055 0.10098 0.0
C37 C 0.67814 0.90215 0.05336 0.0
O38 O 0.69547 0.81201 0.0704 0.0
O39 O 0.62377 0.76048 0.04231 0.0
C40 C 0.62144 0.75427 0.14283 0.0
O41 O 0.68612 0.89799 0.08122 0.0
O42 O 0.64695 0.86112 0.0376 0.0
C43 C 0.51081 0.81936 0.06865 0.0
Fe44 Fe 0.17315 0.84058 0.1029 0.0
Fe45 Fe 0.21491 0.79635 0.05174 0.0
O46 O 0.20919 0.80842 0.09071 0.0
Fe47 Fe 0.23987 0.7877 0.11823 0.0
O48 O 0.19265 0.77785 0.14903 0.0
O49 O 0.12696 0.78146 0.12594 0.0
O50 O 0.12206 0.81222 0.07248 0.0
C51 C 0.10978 0.77435 0.05357 0.0
C52 C 0.26839 0.88752 0.13912 0.0
O53 O 0.14239 0.75828 0.04711 0.0
C54 C 0.31612 0.82368 0.07124 0.0
O55 O 0.21613 0.90054 0.08032 0.0
O56 O 0.21812 0.85869 0.0386 0.0
O57 O 0.28459 0.85691 0.12897 0.0
O58 O 0.21929 0.87549 0.13551 0.0
C59 C 0.1942 0.69957 0.08158 0.0
O60 O 0.28888 0.83412 0.05282 0.0
O61 O 0.29347 0.79308 0.09358 0.0
C62 C 0.22664 0.90124 0.05227 0.0
O63 O 0.2118 0.73127 0.05884 0.0
O64 O 0.19635 0.71781 0.10801 0.0
C65 C 0.14318 0.76301 0.14698 0.0
Fe66 Fe 0.41783 0.21159 0.99043 0.0
Fe67 Fe 0.45757 0.22679 0.9247 0.0
O68 O 0.40371 0.20283 0.95092 0.0
Fe69 Fe 0.33637 0.17057 0.93709 0.0
O70 O 0.31046 0.19515 0.96795 0.0
O71 O 0.38271 0.24894 0.99486 0.0
O72 O 0.48057 0.27722 0.98603 0.0
C73 C 0.4976 0.31091 0.96424 0.0
C74 C 0.32674 0.106 0.986 0.0
O75 O 0.4831 0.29544 0.93727 0.0
C76 C 0.38879 0.12934 0.8996 0.0
O77 O 0.45452 0.17466 0.98935 0.0
O78 O 0.50346 0.21836 0.9497 0.0
O79 O 0.31947 0.10904 0.95786 0.0
O80 O 0.35753 0.14788 1.00129 0.0
C81 C 0.38646 0.25318 0.8962 0.0
O82 O 0.43458 0.1591 0.91126 0.0
O83 O 0.35075 0.13978 0.90357 0.0
C84 C 0.49411 0.18721 0.97195 0.0
O85 O 0.42252 0.2402 0.8942 0.0
O86 O 0.34928 0.23099 0.91572 0.0
C87 C 0.33461 0.23299 0.98708 0.0
Fe88 Fe 0.835 0.17416 0.94116 0.0
Fe89 Fe 0.79488 0.21449 0.99519 0.0
O90 O 0.80234 0.20859 0.95547 0.0
Fe91 Fe 0.77684 0.23748 0.92967 0.0
O92 O 0.76218 0.18826 0.89929 0.0
O93 O 0.77458 0.12577 0.92014 0.0
O94 O 0.81161 0.12395 0.97225 0.0
C95 C 0.77472 0.11044 0.99213 0.0
C96 C 0.8737 0.26683 0.90314 0.0
O97 O 0.75826 0.14213 0.99995 0.0
C98 C 0.81864 0.31491 0.97636 0.0
O99 O 0.89699 0.21983 0.96127 0.0
O100 O 0.8594 0.21878 1.00529 0.0
O101 O 0.84377 0.28239 0.91509 0.0
O102 O 0.86453 0.21893 0.90738 0.0
C103 C 0.69393 0.19183 0.97046 0.0
O104 O 0.83146 0.28808 0.99368 0.0
O105 O 0.78625 0.29246 0.95463 0.0
C106 C 0.90084 0.23034 0.98937 0.0
O107 O 0.72842 0.21059 0.99181 0.0
O108 O 0.70894 0.19403 0.94327 0.0
C109 C 0.75127 0.13978 0.90085 0.0
Fe110 Fe 0.84139 0.6716 0.93986 0.0
Fe111 Fe 0.79848 0.58991 0.9932 0.0
O112 O 0.80843 0.60435 0.95367 0.0
Fe113 Fe 0.78546 0.55089 0.92738 0.0
O114 O 0.85372 0.57377 0.91493 0.0
O115 O 0.87305 0.65727 0.90673 0.0
O116 O 0.90219 0.68772 0.96106 0.0
C117 C 0.90459 0.67979 0.98915 0.0
C118 C 0.76109 0.62294 0.89778 0.0
O119 O 0.86234 0.64976 1.00445 0.0
C120 C 0.6997 0.51116 0.96592 0.0
O121 O 0.81595 0.69751 0.97033 0.0
O122 O 0.76144 0.62553 0.9974 0.0
O123 O 0.7733 0.58628 0.89639 0.0
O124 O 0.78179 0.65914 0.91786 0.0
C125 C 0.82347 0.51361 0.97509 0.0
O126 O 0.73251 0.5276 0.98816 0.0
O127 O 0.71638 0.52565 0.9391 0.0
C128 C 0.77767 0.67348 0.98932 0.0
O129 O 0.83518 0.55282 0.99256 0.0
O130 O 0.79275 0.50451 0.95265 0.0
C131 C 0.8836 0.61932 0.90311 0.0
Fe132 Fe 0.90125 0.79325 0.44715 0.0
Fe133 Fe 0.84074 0.67161 0.43554 0.0
O134 O 0.87457 0.73879 0.42146 0.0
Fe135 Fe 0.88263 0.75233 0.3819 0.0
O136 O 0.949 0.81458 0.38537 0.0
O137 O 0.96934 0.81634 0.4336 0.0
O138 O 0.91422 0.75794 0.47779 0.0
C139 C 0.92434 0.71985 0.47625 0.0
C140 C 0.86202 0.83084 0.39988 0.0
O141 O 0.90071 0.68279 0.45686 0.0
C142 C 0.77642 0.66278 0.38678 0.0
O143 O 0.83451 0.7729 0.46147 0.0
O144 O 0.81096 0.68775 0.46908 0.0
O145 O 0.84634 0.78972 0.38332 0.0
O146 O 0.8937 0.83939 0.42181 0.0
C147 C 0.90396 0.66932 0.38605 0.0
O148 O 0.77928 0.65617 0.41499 0.0
O149 O 0.8185 0.69227 0.3713 0.0
C150 C 0.80323 0.72754 0.47324 0.0
O151 O 0.86461 0.64456 0.40444 0.0
O152 O 0.91952 0.71704 0.37792 0.0
C153 C 0.98401 0.83033 0.40641 0.0
Fe154 Fe 0.2575 0.12925 0.37899 0.0
Fe155 Fe 0.21385 0.1117 0.44373 0.0
O156 O 0.26972 0.13812 0.41873 0.0
Fe157 Fe 0.33645 0.17252 0.43356 0.0
O158 O 0.36366 0.22231 0.40227 0.0
O159 O 0.2931 0.20117 0.37281 0.0
O160 O 0.19497 0.13239 0.38061 0.0
C161 C 0.17947 0.15452 0.39999 0.0
C162 C 0.34859 0.11603 0.3862 0.0
O163 O 0.19155 0.15594 0.42775 0.0
C164 C 0.27933 0.0803 0.47151 0.0
O165 O 0.22071 0.05566 0.38257 0.0
O166 O 0.16888 0.05628 0.41909 0.0
O167 O 0.35415 0.12702 0.41423 0.0
O168 O 0.31787 0.1255 0.36999 0.0
C169 C 0.28679 0.20841 0.47314 0.0
O170 O 0.23362 0.06636 0.46021 0.0
O171 O 0.31941 0.12753 0.4672 0.0
C172 C 0.18011 0.03095 0.39973 0.0
O173 O 0.24723 0.16104 0.47394 0.0
O174 O 0.32456 0.22139 0.45422 0.0
C175 C 0.34067 0.23404 0.38127 0.0
Fe176 Fe 0.84588 0.16949 0.43303 0.0
Fe177 Fe 0.88201 0.12959 0.3775 0.0
O178 O 0.87764 0.13519 0.41739 0.0
Fe179 Fe 0.90505 0.1057 0.44132 0.0
O180 O 0.85646 0.08968 0.47223 0.0
O181 O 0.79695 0.10981 0.45435 0.0
O182 O 0.79429 0.14734 0.4025 0.0
C183 C 0.77843 0.10849 0.38368 0.0
C184 C 0.93873 0.20152 0.47065 0.0
O185 O 0.80953 0.09197 0.37469 0.0
C186 C 0.98231 0.15233 0.39454 0.0
O187 O 0.89213 0.23156 0.4128 0.0
O188 O 0.88398 0.19297 0.36853 0.0
O189 O 0.95159 0.17029 0.45767 0.0
O190 O 0.89248 0.19693 0.46624 0.0
C191 C 0.8597 0.02739 0.39835 0.0
O192 O 0.95562 0.16717 0.3784 0.0
O193 O 0.95947 0.11702 0.41506 0.0
C194 C 0.89833 0.23488 0.38427 0.0
O195 O 0.88039 0.06458 0.3787 0.0
O196 O 0.85964 0.03894 0.42599 0.0
C197 C 0.80949 0.08346 0.47232 0.0
Fe198 Fe 0.01443 0.50885 0.27321 0.0
Fe199 Fe 0.0956 0.5482 0.32667 0.0
O200 O 0.08175 0.54135 0.28712 0.0
Fe201 Fe 0.13624 0.56799 0.26119 0.0
O202 O 0.10137 0.58205 0.23073 0.0
O203 O 0.02668 0.56934 0.25209 0.0
O204 O 0.98805 0.53269 0.30451 0.0
C205 C 0.01254 0.57013 0.32391 0.0
C206 C 0.06924 0.47046 0.23534 0.0
O207 O 0.06044 0.58519 0.33172 0.0
C208 C 0.17228 0.5253 0.30703 0.0
O209 O 0.99747 0.44693 0.29348 0.0
O210 O 0.03545 0.48418 0.33708 0.0
O211 O 0.11505 0.50165 0.2466 0.0
O212 O 0.02973 0.47872 0.23959 0.0
C213 C 0.17323 0.64952 0.30241 0.0
O214 O 0.13238 0.51139 0.32444 0.0
O215 O 0.18231 0.55898 0.28599 0.0
C216 C 1.00408 0.44295 0.32157 0.0
O217 O 0.15808 0.61415 0.32322 0.0
O218 O 0.1598 0.63564 0.27512 0.0
C219 C 0.06345 0.59241 0.23241 0.0
Fe220 Fe 0.5093 0.50424 0.26991 0.0
Fe221 Fe 0.46767 0.54612 0.32232 0.0
O222 O 0.47378 0.53648 0.28301 0.0
Fe223 Fe 0.44387 0.55928 0.25618 0.0
O224 O 0.39925 0.4912 0.24384 0.0
O225 O 0.46382 0.47185 0.23655 0.0
O226 O 0.46462 0.44345 0.29086 0.0
C227 C 0.45301 0.44065 0.31875 0.0
C228 C 0.54175 0.58464 0.22777 0.0
O229 O 0.46378 0.48249 0.33399 0.0
C230 C 0.48783 0.64467 0.2947 0.0
O231 O 0.55972 0.52991 0.30107 0.0
O232 O 0.54005 0.5836 0.32713 0.0
O233 O 0.49265 0.57169 0.22567 0.0
O234 O 0.55673 0.56412 0.24822 0.0
C235 C 0.36692 0.52097 0.30331 0.0
O236 O 0.4709 0.61172 0.31689 0.0
O237 O 0.48689 0.62827 0.26796 0.0
C238 C 0.57218 0.56701 0.32065 0.0
O239 O 0.39399 0.50908 0.321 0.0
O240 O 0.38906 0.55157 0.28084 0.0
C241 C 0.41485 0.46048 0.23317 0.0
Fe242 Fe 0.50813 0.00873 0.27189 0.0
Fe243 Fe 0.46836 0.92383 0.32325 0.0
O244 O 0.47356 0.94055 0.28419 0.0
Fe245 Fe 0.44423 0.88847 0.25707 0.0
O246 O 0.49296 0.92557 0.22688 0.0
O247 O 0.55617 0.9978 0.24951 0.0
O248 O 0.55836 0.0327 0.30295 0.0
C249 C 0.57249 0.00707 0.32077 0.0
C250 C 0.41452 0.9581 0.23447 0.0
O251 O 0.54088 0.95807 0.32692 0.0
C252 C 0.36752 0.84993 0.30405 0.0
O253 O 0.46303 0.02358 0.29381 0.0
O254 O 0.46559 0.98346 0.33598 0.0
O255 O 0.39931 0.91172 0.24489 0.0
O256 O 0.46283 0.99636 0.23867 0.0
C257 C 0.48807 0.84606 0.29504 0.0
O258 O 0.39474 0.8879 0.32231 0.0
O259 O 0.3897 0.84132 0.28165 0.0
C260 C 0.454 0.01507 0.32202 0.0
O261 O 0.47059 0.86126 0.31725 0.0
O262 O 0.4876 0.86247 0.26849 0.0
C263 C 0.54185 0.96188 0.2293 0.0
Fe264 Fe 0.50807 0.00813 0.76767 0.0
Fe265 Fe 0.54751 0.08966 0.71431 0.0
O266 O 0.54055 0.07553 0.75386 0.0
Fe267 Fe 0.56639 0.12979 0.77979 0.0
O268 O 0.61294 0.11062 0.79502 0.0
O269 O 0.55306 0.02454 0.80152 0.0
O270 O 0.55532 0.99384 0.74731 0.0
C271 C 0.56459 1.00039 0.71904 0.0
C272 C 0.46928 0.05452 0.80765 0.0
O273 O 0.55329 0.03097 0.7039 0.0
C274 C 0.52176 0.16611 0.7382 0.0
O275 O 0.4584 0.98088 0.73628 0.0
O276 O 0.47535 0.05254 0.70901 0.0
O277 O 0.51687 0.09364 0.80968 0.0
O278 O 0.45769 0.01729 0.78865 0.0
C279 C 0.64589 0.16752 0.73445 0.0
O280 O 0.54226 0.15101 0.71755 0.0
O281 O 0.5212 0.15188 0.76543 0.0
C282 C 0.44471 1.00383 0.71624 0.0
O283 O 0.62102 0.12792 0.71682 0.0
O284 O 0.62133 0.17671 0.75532 0.0
C285 C 0.59986 0.06518 0.80623 0.0
Fe286 Fe 0.88464 0.44366 0.77897 0.0
Fe287 Fe 1.00661 0.5027 0.76851 0.0
O288 O 0.93995 0.46982 0.75369 0.0
Fe289 Fe 0.92766 0.46275 0.71391 0.0
O290 O 0.89063 0.49947 0.71524 0.0
O291 O 0.83957 0.45236 0.75345 0.0
O292 O 0.90541 0.51028 0.79329 0.0
C293 C 0.95062 0.54102 0.80534 0.0
C294 C 0.84823 0.36175 0.7381 0.0
O295 O 0.99001 0.53247 0.80166 0.0
C296 C 0.01131 0.44213 0.71811 0.0
O297 O 0.91839 0.42966 0.80993 0.0
O298 O 0.99419 0.44256 0.78998 0.0
O299 O 0.86501 0.39672 0.71699 0.0
O300 O 0.86141 0.376 0.76536 0.0
C301 C 0.01783 0.56812 0.7198 0.0
O302 O 0.03416 0.47905 0.73797 0.0
O303 O 0.96353 0.42615 0.70956 0.0
C304 C 0.95608 0.41893 0.80884 0.0
O305 O 0.02354 0.56441 0.74801 0.0
O306 O 0.98811 0.52679 0.70396 0.0
C307 C 0.85045 0.48601 0.73237 0.0
Fe308 Fe 0.51332 0.50682 0.76927 0.0
Fe309 Fe 0.55186 0.46624 0.71488 0.0
O310 O 0.54617 0.47287 0.75461 0.0
Fe311 Fe 0.57378 0.4451 0.77972 0.0
O312 O 0.50792 0.39987 0.7952 0.0
O313 O 0.48424 0.46138 0.80292 0.0
O314 O 0.45102 0.46098 0.74957 0.0
C315 C 0.44666 0.45085 0.72147 0.0
C316 C 0.59812 0.54187 0.80906 0.0
O317 O 0.48795 0.46341 0.7053 0.0
C318 C 0.65389 0.48847 0.73743 0.0
O319 O 0.53652 0.55719 0.73798 0.0
O320 O 0.58953 0.53829 0.71039 0.0
O321 O 0.58909 0.49406 0.81017 0.0
O322 O 0.57388 0.55535 0.7901 0.0
C323 C 0.52809 0.36662 0.73423 0.0
O324 O 0.6175 0.46866 0.71717 0.0
O325 O 0.64122 0.48906 0.7649 0.0
C326 C 0.57469 0.57094 0.71883 0.0
O327 O 0.51422 0.39278 0.71702 0.0
O328 O 0.56331 0.39019 0.75455 0.0
C329 C 0.47656 0.41389 0.8069 0.0
Fe330 Fe 0.75947 0.88318 0.65979 0.0
Fe331 Fe 0.79943 0.9026 0.59427 0.0
O332 O 0.74521 0.87581 0.62023 0.0
Fe333 Fe 0.6777 0.84155 0.60652 0.0
O334 O 0.66199 0.88748 0.62678 0.0
O335 O 0.69915 0.88661 0.67034 0.0
O336 O 0.79605 0.95668 0.65745 0.0
C337 C 0.8359 0.98222 0.63993 0.0
C338 C 0.67684 0.77838 0.65682 0.0
O339 O 0.84549 0.95815 0.61886 0.0
C340 C 0.72538 0.80491 0.56597 0.0
O341 O 0.8223 0.88035 0.65645 0.0
O342 O 0.82271 0.85854 0.60866 0.0
O343 O 0.65167 0.79175 0.63807 0.0
O344 O 0.72472 0.81116 0.66465 0.0
C345 C 0.73304 0.93357 0.56764 0.0
O346 O 0.76421 0.85277 0.56426 0.0
O347 O 0.68834 0.79229 0.58536 0.0
C348 C 0.83676 0.85918 0.63589 0.0
O349 O 0.77866 0.94774 0.57903 0.0
O350 O 0.69292 0.88645 0.57259 0.0
C351 C 0.66853 0.89761 0.65491 0.0
Fe352 Fe 0.13495 0.87731 0.65924 0.0
Fe353 Fe 0.11444 0.90042 0.59454 0.0
O354 O 0.14093 0.87138 0.61946 0.0
Fe355 Fe 0.173 0.83718 0.60427 0.0
O356 O 0.14935 0.786 0.63499 0.0
O357 O 0.09776 0.80515 0.66381 0.0
O358 O 0.06923 0.87461 0.65664 0.0
C359 C 0.03361 0.85508 0.63593 0.0
C360 C 0.23975 0.89148 0.6525 0.0
O361 O 0.04694 0.85569 0.6085 0.0
C362 C 0.21129 0.93184 0.56769 0.0
O363 O 0.17244 0.95088 0.65757 0.0
O364 O 0.12353 0.9541 0.62028 0.0
O365 O 0.2354 0.88173 0.62433 0.0
O366 O 0.19881 0.88026 0.66868 0.0
C367 C 0.08974 0.80471 0.56379 0.0
O368 O 0.18088 0.9463 0.58014 0.0
O369 O 0.20256 0.88379 0.57107 0.0
C370 C 0.15839 0.97733 0.64075 0.0
O371 O 0.10037 0.85309 0.56329 0.0
O372 O 0.11217 0.78963 0.58306 0.0
C373 C 0.11369 0.77322 0.65564 0.0
Fe374 Fe 0.17576 0.3328 0.60828 0.0
Fe375 Fe 0.13491 0.25263 0.66239 0.0
O376 O 0.14169 0.26592 0.6227 0.0
Fe377 Fe 0.11358 0.21127 0.59709 0.0
O378 O 0.16216 0.24576 0.56643 0.0
O379 O 0.22434 0.32107 0.58704 0.0
O380 O 0.22608 0.35976 0.63932 0.0
C381 C 0.2391 0.33671 0.65963 0.0
C382 C 0.08271 0.27758 0.57055 0.0
O383 O 0.20729 0.28855 0.6675 0.0
C384 C 0.03503 0.17596 0.64284 0.0
O385 O 0.13008 0.34921 0.62845 0.0
O386 O 0.13077 0.3126 0.67241 0.0
O387 O 0.06791 0.23221 0.58239 0.0
O388 O 0.13055 0.31672 0.57471 0.0
C389 C 0.15853 0.17466 0.63833 0.0
O390 O 0.06102 0.21563 0.6603 0.0
O391 O 0.05908 0.16553 0.62223 0.0
C392 C 0.12035 0.34325 0.65665 0.0
O393 O 0.13885 0.19037 0.65922 0.0
O394 O 0.15801 0.18804 0.61102 0.0
C395 C 0.2103 0.28413 0.56749 0.0
C396 C 0.16634 0.60964 0.10448 0.0
C397 C 0.18212 0.64299 0.07858 0.0
C398 C 0.16514 0.56025 0.10425 0.0
C399 C 0.17984 0.54212 0.07814 0.0
H400 H 0.15753 0.62289 0.1257 0.0
H401 H 0.1555 0.53768 0.12532 0.0
S402 S 0.21284 0.60869 1.00247 0.0
N403 N 0.20419 0.6503 0.02465 0.0
N404 N 0.20213 0.5573 0.02426 0.0
C405 C 0.19039 0.5724 0.0512 0.0
C406 C 0.19151 0.62288 0.05142 0.0
C407 C 0.43337 0.62402 0.04342 0.0
C408 C 0.46782 0.63836 0.06891 0.0
C409 C 0.38491 0.57404 0.04218 0.0
C410 C 0.36997 0.53701 0.06626 0.0
H411 H 0.44158 0.65307 0.02548 0.0
H412 H 0.35696 0.56648 0.02371 0.0
S413 S 0.44965 0.55088 0.13543 0.0
N414 N 0.48653 0.60774 0.11663 0.0
N415 N 0.39569 0.51486 0.11423 0.0
C416 C 0.40639 0.54871 0.09026 0.0
C417 C 0.45537 0.59913 0.09159 0.0
C418 C 0.4402 0.82718 0.03871 0.0
C419 C 0.47202 0.83874 0.06508 0.0
C420 C 0.39137 0.82838 0.0393 0.0
C421 C 0.37366 0.84125 0.06627 0.0
H422 H 0.45028 0.81223 1.01858 0.0
H423 H 0.36511 0.81419 0.01963 0.0
S424 S 0.44646 0.88184 0.13976 0.0
N425 N 0.48532 0.86923 0.11746 0.0
N426 N 0.39486 0.8721 0.11845 0.0
C427 C 0.4081 0.85817 0.09157 0.0
C428 C 0.45703 0.85668 0.09102 0.0
C429 C 0.5726 0.19694 1.0015 0.0
C430 C 0.53458 0.17129 0.97819 0.0
C431 C 0.6231 0.1995 1.0005 0.0
C432 C 0.63692 0.17704 0.97594 0.0
H433 H 0.56539 0.21936 1.01893 0.0
H434 H 0.65292 0.2231 1.0176 0.0
S435 S 0.54755 0.09922 0.91181 0.0
N436 N 0.51125 0.11813 0.93209 0.0
N437 N 0.60531 0.12236 0.93014 0.0
C438 C 0.5969 0.14699 0.95421 0.0
C439 C 0.54589 0.14433 0.95534 0.0
C440 C 0.86342 0.45891 0.95856 0.0
C441 C 0.839 0.47283 0.98189 0.0
C442 C 0.86189 0.40926 0.95877 0.0
C443 C 0.83606 0.37192 0.98236 0.0
H444 H 0.87975 0.4846 0.93872 0.0
H445 H 0.8771 0.39818 0.9391 0.0
S446 S 0.76993 0.39085 0.04993 0.0
N447 N 0.79178 0.44729 0.03028 0.0
N448 N 0.78912 0.35358 0.03074 0.0
C449 C 0.81553 0.38713 1.00711 0.0
C450 C 0.81699 0.43787 1.00687 0.0
C451 C 0.60643 0.45343 0.94606 0.0
C452 C 0.64372 0.46582 0.96984 0.0
C453 C 0.55746 0.40466 0.94556 0.0
C454 C 0.54352 0.36631 0.9689 0.0
H455 H 0.61636 0.4803 0.92675 0.0
H456 H 0.53169 0.39579 0.92586 0.0
S457 S 0.62387 0.38216 0.0384 0.0
N458 N 0.66101 0.43821 1.01893 0.0
N459 N 0.56853 0.34644 1.01812 0.0
C460 C 0.57833 0.38005 0.99412 0.0
C461 C 0.62852 0.42987 0.99457 0.0
C462 C 0.90383 0.9748 0.38576 0.0
C463 C 0.85581 0.97549 0.39131 0.0
C464 C 0.90417 0.9262 0.38525 0.0
C465 C 0.8564 0.87671 0.39001 0.0
H466 H 0.942 0.01224 0.38405 0.0
H467 H 0.94273 0.9276 0.38335 0.0
S468 S 0.71866 0.85662 0.39905 0.0
N469 N 0.75829 0.9229 0.39728 0.0
N470 N 0.75877 0.8306 0.39599 0.0
C471 C 0.80732 0.87645 0.39269 0.0
C472 C 0.80709 0.92627 0.39356 0.0
C473 C 0.07777 0.89274 0.42468 0.0
C474 C 0.04032 0.8745 0.40062 0.0
C475 C 0.12667 0.94133 0.42263 0.0
C476 C 0.14072 0.97329 0.39634 0.0
H477 H 0.06776 0.87168 0.44621 0.0
H478 H 0.15156 0.95626 0.44279 0.0
S479 S 0.06121 0.94138 0.32539 0.0
N480 N 0.02382 0.89003 0.34818 0.0
N481 N 0.11645 0.98185 0.34474 0.0
C482 C 0.10641 0.95368 0.3711 0.0
C483 C 0.05604 0.90404 0.37313 0.0
C484 C 0.09253 0.12585 0.37358 0.0
C485 C 0.13501 0.16396 0.39176 0.0
C486 C 0.04413 0.12666 0.37099 0.0
C487 C 0.03725 0.16603 0.38607 0.0
H488 H 0.09484 0.09253 0.36342 0.0
H489 H 0.01038 0.0937 0.35931 0.0
S490 S 0.14128 0.28252 0.42954 0.0
N491 N 0.1708 0.24736 0.42042 0.0
N492 N 0.07987 0.24962 0.41475 0.0
C493 C 0.08159 0.20792 0.40115 0.0
C494 C 0.13058 0.20664 0.40427 0.0
C495 C 0.2725 0.48319 0.28668 0.0
C496 C 0.3107 0.50607 0.31013 0.0
C497 C 0.22397 0.48396 0.2877 0.0
C498 C 0.21206 0.50786 0.31216 0.0
H499 H 0.28216 0.46857 0.26625 0.0
H500 H 0.19766 0.46986 0.26803 0.0
S501 S 0.29739 0.57077 0.37995 0.0
N502 N 0.33226 0.55039 0.35933 0.0
N503 N 0.24065 0.55221 0.36115 0.0
C504 C 0.24796 0.52729 0.33683 0.0
C505 C 0.29755 0.52632 0.33584 0.0
C506 C 0.51957 0.73688 0.27413 0.0
C507 C 0.49769 0.70033 0.29854 0.0
C508 C 0.51971 0.78573 0.27422 0.0
C509 C 0.49773 0.80011 0.29866 0.0
H510 H 0.53424 0.72664 0.25397 0.0
H511 H 0.53472 0.81108 0.2542 0.0
S512 S 0.44201 0.7221 0.37004 0.0
N513 N 0.45875 0.68454 0.34935 0.0
N514 N 0.45876 0.77654 0.3495 0.0
C515 C 0.4796 0.76603 0.32433 0.0
C516 C 0.47961 0.71609 0.32426 0.0
C517 C 0.22575 0.74598 0.28683 0.0
C518 C 0.21587 0.70588 0.3085 0.0
C519 C 0.27302 0.79629 0.2878 0.0
C520 C 0.31168 0.80849 0.31063 0.0
H521 H 0.19868 0.73723 0.26775 0.0
H522 H 0.28146 0.8242 0.26915 0.0
S523 S 0.30246 0.72097 0.37495 0.0
N524 N 0.24624 0.6843 0.35549 0.0
N525 N 0.33536 0.77942 0.35699 0.0
C526 C 0.3002 0.7711 0.33406 0.0
C527 C 0.25204 0.71955 0.3331 0.0
C528 C 0.48521 0.2249 0.7548 0.0
C529 C 0.5103 0.21038 0.73209 0.0
C530 C 0.48553 0.27383 0.7534 0.0
C531 C 0.5101 0.3096 0.72905 0.0
H532 H 0.46868 0.20031 0.77497 0.0
H533 H 0.47039 0.28573 0.77273 0.0
S534 S 0.57495 0.28836 0.66176 0.0
N535 N 0.55522 0.23363 0.68265 0.0
N536 N 0.55548 0.32588 0.68039 0.0
C537 C 0.53077 0.29373 0.7048 0.0
C538 C 0.5308 0.24386 0.70619 0.0
C539 C 0.73735 0.22036 0.7552 0.0
C540 C 0.70303 0.20759 0.73005 0.0
C541 C 0.78702 0.26816 0.7562 0.0
C542 C 0.8034 0.30611 0.73244 0.0
H543 H 0.72381 0.19519 0.77529 0.0
H544 H 0.8107 0.27713 0.77682 0.0
S545 S 0.72908 0.28906 0.66025 0.0
N546 N 0.68983 0.23357 0.67975 0.0
N547 N 0.78306 0.32496 0.68157 0.0
C548 C 0.77106 0.2919 0.70605 0.0
C549 C 0.72065 0.24232 0.70493 0.0
C550 C 0.80052 0.53033 0.74959 0.0
C551 C 0.81037 0.5026 0.72643 0.0
C552 C 0.75111 0.5293 0.7515 0.0
C553 C 0.70948 0.49987 0.73047 0.0
H554 H 0.82947 0.54921 0.7678 0.0
H555 H 0.74427 0.54865 0.7708 0.0
S556 S 0.71798 0.42498 0.66365 0.0
N557 N 0.77719 0.44895 0.68061 0.0
N558 N 0.6839 0.44683 0.68379 0.0
C559 C 0.72075 0.47585 0.70561 0.0
C560 C 0.77135 0.47713 0.70373 0.0
C561 C 0.97169 0.88019 0.66168 0.0
C562 C 0.97897 0.84559 0.64198 0.0
C563 C 0.9232 0.88135 0.66159 0.0
C564 C 0.88086 0.8479 0.64183 0.0
H565 H 1.00497 0.90952 0.67539 0.0
H566 H 0.9206 0.91149 0.67526 0.0
S567 S 0.87586 0.74186 0.59145 0.0
N568 N 0.93721 0.77126 0.60619 0.0
N569 N 0.84587 0.77301 0.60642 0.0
C570 C 0.88584 0.80941 0.62458 0.0
C571 C 0.93504 0.80835 0.62455 0.0
C572 C 0.19872 0.11899 0.62196 0.0
C573 C 0.17133 0.13128 0.64437 0.0
C574 C 0.20031 0.071 0.62309 0.0
C575 C 0.17514 0.03386 0.64679 0.0
H576 H 0.21566 0.14463 0.6022 0.0
H577 H 0.21739 0.06077 0.60395 0.0
S578 S 0.10437 0.04932 0.71314 0.0
N579 N 0.12363 0.10469 0.69291 0.0
N580 N 0.12668 0.01407 0.69461 0.0
C581 C 0.1521 0.04762 0.6708 0.0
C582 C 0.15028 0.09661 0.66973 0.0
C583 C 0.95613 0.10588 0.67273 0.0
C584 C 0.97671 0.13789 0.64643 0.0
C585 C 0.90614 0.05708 0.67194 0.0
C586 C 0.87617 0.03947 0.6448 0.0
H587 H 0.9809 0.11579 0.69295 0.0
H588 H 0.89366 0.03078 0.69162 0.0
S589 S 0.90988 0.11219 0.57129 0.0
N590 N 0.96037 0.15147 0.59396 0.0
N591 N 0.86803 0.06024 0.59238 0.0
C592 C 0.89427 0.07375 0.61949 0.0
C593 C 0.94424 0.12297 0.62034 0.0
C594 C 0.1101 0.37812 0.19863 0.0
C595 C 0.10111 0.38262 0.16768 0.0
C596 C 0.09311 0.40128 0.22101 0.0
C597 C 0.0669 0.43024 0.21327 0.0
H598 H 0.1349 0.36107 0.2054 0.0
H599 H 0.10494 0.40072 0.24434 0.0
S600 S 0.02858 0.44841 0.13563 0.0
N601 N 0.05968 0.41339 0.13055 0.0
N602 N 0.02789 0.45732 0.17271 0.0
C603 C 0.05298 0.43051 0.18268 0.0
C604 C 0.07021 0.40665 0.15982 0.0
C605 C 0.616 0.7246 0.19633 0.0
C606 C 0.62107 0.71571 0.16536 0.0
C607 C 0.59695 0.68229 0.21749 0.0
C608 C 0.58081 0.62933 0.20833 0.0
H609 H 0.62294 0.76366 0.20385 0.0
H610 H 0.59031 0.69012 0.24071 0.0
S611 S 0.5935 0.58626 0.13083 0.0
N612 N 0.61536 0.65156 0.12733 0.0
N613 N 0.57694 0.57132 0.167 0.0
C614 C 0.5899 0.62071 0.178 0.0
C615 C 0.61075 0.6642 0.15651 0.0
C616 C 0.32207 0.93205 0.21714 0.0
C617 C 0.37827 0.96132 0.21164 0.0
C618 C 0.28479 0.91468 0.19316 0.0
C619 C 0.30266 0.92557 0.1629 0.0
H620 H 0.30704 0.91784 0.23988 0.0
H621 H 0.24247 0.88725 0.19816 0.0
S622 S 0.44426 0.0109 0.13681 0.0
N623 N 0.44914 0.0086 0.17414 0.0
N624 N 0.37901 0.97522 0.12896 0.0
C625 C 0.35811 0.96046 0.15739 0.0
C626 C 0.39606 0.97868 0.18185 0.0
C627 C 0.39152 0.1123 0.8446 0.0
C628 C 0.38714 0.09399 0.87466 0.0
C629 C 0.41195 0.0934 0.82156 0.0
C630 C 0.42833 0.05544 0.82778 0.0
H631 H 0.38456 0.1454 0.83949 0.0
H632 H 0.41961 0.11222 0.79937 0.0
S633 S 0.41403 0.98679 0.90138 0.0
N634 N 0.39271 0.02985 0.90843 0.0
N635 N 0.43111 0.99437 0.86503 0.0
C636 C 0.41859 0.03263 0.85694 0.0
C637 C 0.39796 0.05197 0.88044 0.0
C638 C 0.92138 0.3241 0.82492 0.0
C639 C 0.95429 0.37955 0.83117 0.0
C640 C 0.90029 0.28576 0.84853 0.0
C641 C 0.91092 0.30191 0.87911 0.0
H642 H 0.90779 0.31087 0.80189 0.0
H643 H 0.8713 0.24426 0.84294 0.0
S644 S 1.00113 0.44072 0.90717 0.0
N645 N 1.00173 0.4475 0.86984 0.0
N646 N 0.96156 0.37569 0.91415 0.0
C647 C 0.9476 0.35641 0.8854 0.0
C648 C 0.96939 0.39524 0.86143 0.0
C649 C 0.69408 0.60324 0.82185 0.0
C650 C 0.6394 0.58103 0.83002 0.0
C651 C 0.7349 0.62282 0.84401 0.0
C652 C 0.72249 0.62167 0.87504 0.0
H653 H 0.70485 0.60077 0.79852 0.0
H654 H 0.77585 0.6349 0.83705 0.0
S655 S 0.58617 0.57185 0.90793 0.0
N656 N 0.57535 0.56205 0.87098 0.0
N657 N 0.6523 0.6004 0.91257 0.0
C658 C 0.66859 0.60384 0.88323 0.0
C659 C 0.62689 0.58305 0.8607 0.0
C660 C 0.9207 0.60415 0.82385 0.0
C661 C 0.95161 0.57884 0.82874 0.0
C662 C 0.90463 0.62481 0.84812 0.0
C663 C 0.91858 0.62036 0.87812 0.0
H664 H 0.90517 0.60405 0.8014 0.0
H665 H 0.87645 0.63895 0.84368 0.0
S666 S 0.00817 0.5685 0.90251 0.0
N667 N 1.00318 0.55923 0.86532 0.0
N668 N 0.97171 0.59686 0.91102 0.0
C669 C 0.95436 0.60081 0.88292 0.0
C670 C 0.9714 0.58046 0.85816 0.0
C671 C 0.38509 0.27974 0.84297 0.0
C672 C 0.38859 0.29278 0.87395 0.0
C673 C 0.40807 0.32023 0.82077 0.0
C674 C 0.43622 0.37528 0.82875 0.0
H675 H 0.36885 0.23807 0.83606 0.0
H676 H 0.40792 0.30833 0.79739 0.0
S677 S 0.45009 0.4305 0.90645 0.0
N678 N 0.41635 0.36429 0.91129 0.0
N679 N 0.46046 0.44068 0.86947 0.0
C680 C 0.43521 0.38891 0.85932 0.0
C681 C 0.41129 0.34747 0.882 0.0
C682 C 0.62076 0.05177 0.8598 0.0
C683 C 0.63732 0.06449 0.82932 0.0
C684 C 0.65912 0.07025 0.88352 0.0
C685 C 0.71484 0.10217 0.8774 0.0
H686 H 0.57816 0.03214 0.86552 0.0
H687 H 0.64494 0.06365 0.90679 0.0
S688 S 0.77885 0.13526 0.80132 0.0
N689 N 0.71322 0.10166 0.79424 0.0
N690 N 0.78466 0.13762 0.83871 0.0
C691 C 0.73174 0.10958 0.847 0.0
C692 C 0.69304 0.09037 0.82297 0.0
C693 C 0.61996 0.90297 0.19355 0.0
C694 C 0.61845 0.91461 0.16264 0.0
C695 C 0.60132 0.92475 0.21608 0.0
C696 C 0.58086 0.95894 0.20841 0.0
H697 H 0.63028 0.8727 0.20008 0.0
H698 H 0.59813 0.91068 0.23926 0.0
S699 S 0.57723 0.00891 0.13133 0.0
N700 N 0.60171 0.96799 0.12601 0.0
N701 N 0.56668 0.00863 0.16829 0.0
C702 C 0.58418 0.97489 0.17798 0.0
C703 C 0.60306 0.9528 0.1551 0.0
C704 C 0.11415 0.73113 0.20002 0.0
C705 C 0.10593 0.72108 0.1686 0.0
C706 C 0.09393 0.68854 0.22121 0.0
C707 C 0.06582 0.63435 0.21169 0.0
H708 H 0.13986 0.77201 0.2081 0.0
H709 H 0.10453 0.69801 0.24494 0.0
S710 S 0.03136 0.58647 0.13224 0.0
N711 N 0.06464 0.653 0.12926 0.0
N712 N 0.02844 0.57305 0.16896 0.0
C713 C 0.05468 0.62385 0.18055 0.0
C714 C 0.07425 0.66723 0.15903 0.0
C715 C 0.39493 0.42415 0.18037 0.0
C716 C 0.37812 0.42043 0.21071 0.0
C717 C 0.35682 0.40472 0.15667 0.0
C718 C 0.30092 0.38072 0.16261 0.0
H719 H 0.43752 0.44756 0.17467 0.0
H720 H 0.37139 0.41325 0.13345 0.0
S721 S 0.23647 0.35056 0.23858 0.0
N722 N 0.30206 0.3825 0.24572 0.0
N723 N 0.23073 0.34599 0.2012 0.0
C724 C 0.28365 0.3702 0.19294 0.0
C725 C 0.32232 0.3902 0.21703 0.0
C726 C 0.75252 0.73791 0.55067 0.0
C727 C 0.72452 0.76542 0.54382 0.0
C728 C 0.77306 0.71905 0.52747 0.0
C729 C 0.7654 0.72663 0.49668 0.0
H730 H 0.76218 0.73485 0.57401 0.0
H731 H 0.79912 0.70315 0.53362 0.0
S732 S 0.68108 0.78133 0.46729 0.0
N733 N 0.6808 0.78904 0.50448 0.0
N734 N 0.71832 0.75302 0.4609 0.0
C735 C 0.73141 0.74758 0.48982 0.0
C736 C 0.71109 0.76706 0.51338 0.0
C737 C 0.29182 0.06182 0.52523 0.0
C738 C 0.28092 0.0442 0.49496 0.0
C739 C 0.27495 0.0244 0.54918 0.0
C740 C 0.24715 0.96831 0.54362 0.0
H741 H 0.30838 0.10419 0.53055 0.0
H742 H 0.27934 0.03929 0.57225 0.0
S743 S 0.21919 0.90277 0.46807 0.0
N744 N 0.24868 0.96803 0.46046 0.0
N745 N 0.21716 0.89773 0.50551 0.0
C746 C 0.242 0.95071 0.51341 0.0
C747 C 0.25871 0.98876 0.48904 0.0
C748 C 0.06824 0.27731 0.51523 0.0
C749 C 0.04973 0.2775 0.54471 0.0
C750 C 0.03208 0.2572 0.49078 0.0
C751 C 0.97624 0.23711 0.49467 0.0
H752 H 0.10988 0.28771 0.51149 0.0
H753 H 0.04732 0.25353 0.46904 0.0
S754 S 0.90953 0.23918 0.56657 0.0
N755 N 0.9736 0.26331 0.57602 0.0
N756 N 0.90566 0.22637 0.52974 0.0
C757 C 0.95822 0.24264 0.52347 0.0
C758 C 0.99502 0.26249 0.54859 0.0
C759 C 0.23831 0.29152 0.51342 0.0
C760 C 0.24792 0.28499 0.54407 0.0
C761 C 0.25802 0.27299 0.48976 0.0
C762 C 0.28741 0.24668 0.49593 0.0
H763 H 0.21147 0.30678 0.50778 0.0
H764 H 0.24579 0.27462 0.46669 0.0
S765 S 0.32677 0.22312 0.5721 0.0
N766 N 0.29232 0.25426 0.57915 0.0
N767 N 0.32829 0.21839 0.53472 0.0
C768 C 0.30061 0.24349 0.52632 0.0
C769 C 0.28111 0.26293 0.5504 0.0
C770 C 0.78149 0.0643 0.52632 0.0
C771 C 0.77164 0.04762 0.49587 0.0
C772 C 0.76133 0.02647 0.55008 0.0
C773 C 0.73204 0.97055 0.54425 0.0
H774 H 0.80864 0.10641 0.53175 0.0
H775 H 0.77275 0.04083 0.57313 0.0
S776 S 0.68622 0.9075 0.46856 0.0
N777 N 0.72324 0.97272 0.46119 0.0
N778 N 0.68638 0.90128 0.5059 0.0
C779 C 0.71667 0.9539 0.51408 0.0
C780 C 0.73666 0.99261 0.48983 0.0
C781 C 0.06289 0.78727 0.50962 0.0
C782 C 0.05332 0.76845 0.53979 0.0
C783 C 0.02176 0.76532 0.48776 0.0
C784 C 0.96914 0.72461 0.49533 0.0
H785 H 0.10127 0.82209 0.50344 0.0
H786 H 0.02997 0.78353 0.46542 0.0
S787 S 0.92561 0.65444 0.56951 0.0
N788 N 0.98967 0.70088 0.57487 0.0
N789 N 0.91148 0.66102 0.53387 0.0
C790 C 0.96027 0.70182 0.52453 0.0
C791 C 1.00268 0.72346 0.54677 0.0
C792 C 0.28856 0.29169 0.04988 0.0
C793 C 0.25131 0.30246 0.03516 0.0
C794 C 0.31526 0.26926 0.03407 0.0
C795 C 0.30473 0.2555 1.00313 0.0
H796 H 0.2983 0.30203 0.07362 0.0
H797 H 0.34427 0.26243 0.04625 0.0
S798 S 0.20916 0.27357 0.95439 0.0
N799 N 0.20452 0.29687 0.98794 0.0
N800 N 0.25366 0.25317 0.95849 0.0
C801 C 0.26659 0.26476 0.9883 0.0
C802 C 0.24023 0.28873 1.00423 0.0
C803 C 0.74265 0.01123 0.99261 0.0
C804 C 0.75305 0.05825 1.00834 0.0
C805 C 0.71879 0.96088 1.00736 0.0
C806 C 0.70589 0.95602 0.03856 0.0
H807 H 0.75153 0.01311 0.96855 0.0
H808 H 0.71033 0.92548 0.99422 0.0
S809 S 0.72798 0.06768 0.09031 0.0
N810 N 0.75014 0.09711 0.05697 0.0
N811 N 0.70691 1.00305 0.0848 0.0
C812 C 0.71771 1.00309 0.0547 0.0
C813 C 0.74082 0.05402 0.03957 0.0
C814 C 0.96151 0.72172 0.03543 0.0
C815 C 0.95764 0.70622 1.00474 0.0
C816 C 0.01106 0.74467 0.05099 0.0
C817 C 0.05813 0.75149 0.03665 0.0
H818 H 0.92601 0.71623 0.0475 0.0
H819 H 0.01227 0.75606 0.07458 0.0
S820 S 0.06951 0.71741 0.95655 0.0
N821 N 1.00528 0.69995 0.96051 0.0
N822 N 0.09792 0.7417 0.98984 0.0
C823 C 0.05477 0.73616 1.00596 0.0
C824 C 1.00467 0.71394 0.98998 0.0
C825 C 0.73197 0.73549 0.05059 0.0
C826 C 0.70153 0.7532 0.03414 0.0
C827 C 0.75694 0.71 0.03586 0.0
C828 C 0.75376 0.70303 1.00412 0.0
H829 H 0.73498 0.73974 0.07509 0.0
H830 H 0.77879 0.69551 0.04937 0.0
S831 S 0.68102 0.74415 0.95059 0.0
N832 N 0.67031 0.76255 0.98431 0.0
N833 N 0.71917 0.71672 0.95669 0.0
C834 C 0.72488 0.72192 0.98735 0.0
C835 C 0.69823 0.74647 1.00236 0.0
C836 C 0.27047 1.00232 0.04997 0.0
C837 C 0.24883 0.95258 0.03467 0.0
C838 C 0.29467 0.05141 0.03401 0.0
C839 C 0.29792 0.05304 1.00201 0.0
H840 H 0.26985 1.00357 0.07456 0.0
H841 H 0.31136 0.08848 0.04701 0.0
S842 S 0.24582 0.93423 0.95083 0.0
N843 N 0.23096 0.90811 0.98533 0.0
N844 N 0.27639 1.00026 0.95555 0.0
C845 C 0.27541 1.00361 0.98634 0.0
C846 C 0.25099 0.95353 1.00259 0.0
C847 C 0.95894 0.24339 0.03494 0.0
C848 C 0.9545 0.2556 1.00442 0.0
C849 C 0.00897 0.26877 0.05009 0.0
C850 C 0.05611 0.30841 0.03553 0.0
H851 H 0.92343 0.21393 0.04724 0.0
H852 H 0.01048 0.25836 0.0736 0.0
S853 S 0.06636 0.35466 0.95566 0.0
N854 N 1.00184 0.30907 0.96005 0.0
N855 N 0.09538 0.35777 0.98862 0.0
C856 C 0.05225 0.32074 1.00497 0.0
C857 C 1.00161 0.29406 0.98938 0.0
C858 C 0.90241 0.58863 0.36182 0.0
C859 C 0.9315 0.64243 0.37202 0.0
C860 C 0.92839 0.5655 0.34556 0.0
C861 C 0.98439 0.59515 0.33954 0.0
H862 H 0.85921 0.56483 0.36569 0.0
H863 H 0.90464 0.52402 0.33801 0.0
S864 S 0.07866 0.73718 0.36215 0.0
N865 N 0.01924 0.72428 0.37536 0.0
N866 N 0.06782 0.68109 0.3453 0.0
C867 C 0.01379 0.64872 0.35006 0.0
C868 C 0.98742 0.67225 0.36618 0.0
C869 C 0.43591 0.38291 0.36495 0.0
C870 C 0.42632 0.3874 0.334 0.0
C871 C 0.40921 0.33286 0.37997 0.0
C872 C 0.37099 0.28591 0.36475 0.0
H873 H 0.4643 0.4183 0.37764 0.0
H874 H 0.41749 0.33119 0.40385 0.0
S875 S 0.33144 0.27624 0.28359 0.0
N876 N 0.37655 0.3406 0.28859 0.0
N877 N 0.32569 0.24699 0.31681 0.0
C878 C 0.36129 0.28992 0.33375 0.0
C879 C 0.38915 0.34054 0.31837 0.0
C880 C 0.64868 0.00475 0.34656 0.0
C881 C 0.62502 0.03504 0.33678 0.0
C882 C 0.69767 0.02898 0.36232 0.0
C883 C 0.72459 0.08428 0.36944 0.0
H884 H 0.62956 0.96196 0.34166 0.0
H885 H 0.71475 1.00412 0.36894 0.0
S886 S 0.67939 0.18149 0.34978 0.0
N887 N 0.63191 0.12337 0.33572 0.0
N888 N 0.72415 0.16884 0.36587 0.0
C889 C 0.70116 0.11506 0.36035 0.0
C890 C 0.65143 0.09049 0.34378 0.0
C891 C 0.38514 0.09651 0.33922 0.0
C892 C 0.37931 0.09322 0.3711 0.0
C893 C 0.41041 0.07233 0.32374 0.0
C894 C 0.43074 0.0434 0.33938 0.0
H895 H 0.36955 0.11758 0.32591 0.0
H896 H 0.41293 0.07549 0.29919 0.0
S897 S 0.42728 0.02409 0.42318 0.0
N898 N 0.3972 0.05994 0.41792 0.0
N899 N 0.44478 0.01437 0.38901 0.0
C900 C 0.42625 0.04074 0.37142 0.0
C901 C 0.40064 0.0657 0.3872 0.0
C902 C 0.98053 0.38589 0.36878 0.0
C903 C 0.97381 0.38965 0.33724 0.0
C904 C 0.95466 0.33608 0.38404 0.0
C905 C 0.92122 0.28779 0.36842 0.0
H906 H 1.00668 0.42167 0.38187 0.0
H907 H 0.96222 0.33532 0.40811 0.0
S908 S 0.88652 0.27526 0.28627 0.0
N909 N 0.9285 0.34038 0.29133 0.0
N910 N 0.87998 0.24712 0.3199 0.0
C911 C 0.9128 0.291 0.33707 0.0
C912 C 0.93901 0.34173 0.32154 0.0
C913 C 0.71979 0.61779 0.34068 0.0
C914 C 0.72335 0.63507 0.37104 0.0
C915 C 0.67052 0.59436 0.32473 0.0
C916 C 0.62332 0.58876 0.33825 0.0
H917 H 0.75543 0.62249 0.32913 0.0
H918 H 0.66976 0.58198 0.30138 0.0
S919 S 0.61108 0.6273 0.41733 0.0
N920 N 0.6752 0.64395 0.41413 0.0
N921 N 0.58315 0.60137 0.38416 0.0
C922 C 0.62634 0.60554 0.3687 0.0
C923 C 0.67616 0.62826 0.38508 0.0
C924 C 0.64268 0.92753 0.70265 0.0
C925 C 0.63888 0.9211 0.67076 0.0
C926 C 0.61736 0.95172 0.71823 0.0
C927 C 0.58747 0.97091 0.70258 0.0
H928 H 0.66599 0.91435 0.71582 0.0
H929 H 0.62247 0.95667 0.74263 0.0
S930 S 0.56178 0.96097 0.61932 0.0
N931 N 0.60049 0.93396 0.62433 0.0
N932 N 0.55291 0.97915 0.65346 0.0
C933 C 0.58211 0.96353 0.67079 0.0
C934 C 0.60774 0.93873 0.65495 0.0
C935 C 0.08267 0.67434 0.65772 0.0
C936 C 0.09325 0.72201 0.67267 0.0
C937 C 0.05912 0.6248 0.67327 0.0
C938 C 0.0465 0.62142 0.70449 0.0
H939 H 0.09096 0.675 0.63364 0.0
H940 H 0.05033 0.58879 0.66066 0.0
S941 S 0.06987 0.73552 0.75447 0.0
N942 N 0.09167 0.76333 0.72074 0.0
N943 N 0.04837 0.67059 0.74995 0.0
C944 C 0.05879 0.66922 0.71991 0.0
C945 C 0.08185 0.71938 0.704 0.0
C946 C 0.33756 0.4067 0.66096 0.0
C947 C 0.29095 0.36768 0.67617 0.0
C948 C 0.38767 0.43403 0.6759 0.0
C949 C 0.3927 0.42436 0.7068 0.0
H950 H 0.33564 0.41504 0.63712 0.0
H951 H 0.4228 0.46282 0.66309 0.0
S952 S 0.28214 0.32827 0.75732 0.0
N953 N 0.25259 0.32204 0.72415 0.0
N954 N 0.34637 0.37414 0.75227 0.0
C955 C 0.34603 0.38668 0.7225 0.0
C956 C 0.2953 0.35812 0.70717 0.0
C957 C 0.03028 0.4029 0.6721 0.0
C958 C 0.04217 0.4201 0.70255 0.0
C959 C 0.05735 0.3801 0.65698 0.0
C960 C 0.09647 0.37253 0.67197 0.0
H961 H 0.99966 0.40697 0.6598 0.0
H962 H 0.04624 0.36665 0.63373 0.0
S963 S 0.14371 0.41206 0.75134 0.0
N964 N 0.09718 0.42966 0.74676 0.0
N965 N 0.14717 0.38561 0.71864 0.0
C966 C 0.10936 0.39024 0.70226 0.0
C967 C 0.08251 0.4144 0.71746 0.0
C968 C 0.57112 0.65043 0.69679 0.0
C969 C 0.60073 0.62464 0.704 0.0
C970 C 0.5952 0.6995 0.68056 0.0
C971 C 0.64986 0.7247 0.67162 0.0
H972 H 0.52891 0.63208 0.70319 0.0
H973 H 0.57127 0.71831 0.67554 0.0
S974 S 0.74489 0.67388 0.6852 0.0
N975 N 0.68759 0.62824 0.701 0.0
N976 N 0.73257 0.72001 0.67094 0.0
C977 C 0.67975 0.69934 0.67886 0.0
C978 C 0.65528 0.64947 0.69495 0.0
C979 C 0.29733 0.90603 0.6983 0.0
C980 C 0.29335 0.9165 0.66738 0.0
C981 C 0.34687 0.93297 0.71376 0.0
C982 C 0.39386 0.9723 0.69905 0.0
H983 H 0.26172 0.87719 0.71076 0.0
H984 H 0.34796 0.92436 0.73765 0.0
S985 S 0.40573 0.01285 0.61797 0.0
N986 N 0.34127 0.96709 0.62233 0.0
N987 N 0.43409 0.01848 0.65146 0.0
C988 C 0.39073 0.98222 0.66797 0.0
C989 C 0.34057 0.95408 0.65211 0.0
loop_
_geom_bond_atom_site_label_1
_geom_bond_atom_site_label_2
_geom_bond_distance
_geom_bond_site_symmetry_2
_ccdc_geom_bond_type
Fe0 O2 1.918 . S
Fe0 O5 1.997 . S
Fe0 O6 2.002 . S
Fe0 O11 1.976 . S
Fe0 O14 1.996 . S
Fe1 O2 1.918 . S
Fe1 O9 1.997 . S
Fe1 O12 1.996 . S
Fe1 O16 1.976 . S
Fe1 O19 2.002 . S
O2 Fe0 1.918 . S
O2 Fe1 1.918 . S
O2 Fe3 1.918 . S
Fe3 O2 1.918 . S
Fe3 O4 2.002 . S
Fe3 O13 1.976 . S
Fe3 O17 1.996 . S
Fe3 O20 1.997 . S
O4 Fe3 2.002 . S
O4 C21 1.295 . S
O5 Fe0 1.997 . S
O5 C21 1.235 . S
O6 Fe0 2.002 . S
O6 C7 1.295 . S
C7 O6 1.295 . S
C7 O9 1.235 . S
C8 O13 1.287 . S
C8 O14 1.255 . S
O9 Fe1 1.997 . S
O9 C7 1.235 . S
C10 O16 1.287 . S
C10 O17 1.255 . S
O11 Fe0 1.976 . S
O11 C18 1.287 . S
O12 Fe1 1.996 . S
O12 C18 1.255 . S
O13 Fe3 1.976 . S
O13 C8 1.287 . S
O14 Fe0 1.996 . S
O14 C8 1.255 . S
C15 O19 1.295 . S
C15 O20 1.235 . S
O16 Fe1 1.976 . S
O16 C10 1.287 . S
O17 Fe3 1.996 . S
O17 C10 1.255 . S
C18 O11 1.287 . S
C18 O12 1.255 . S
O19 Fe1 2.002 . S
O19 C15 1.295 . S
O20 Fe3 1.997 . S
O20 C15 1.235 . S
C21 O4 1.295 . S
C21 O5 1.235 . S
Fe22 O24 1.918 . S
Fe22 O27 1.997 . S
Fe22 O28 2.002 . S
Fe22 O33 1.976 . S
Fe22 O36 1.996 . S
Fe23 O24 1.918 . S
Fe23 O31 1.997 . S
Fe23 O34 1.996 . S
Fe23 O38 1.976 . S
Fe23 O41 2.002 . S
O24 Fe22 1.918 . S
O24 Fe23 1.918 . S
O24 Fe25 1.918 . S
Fe25 O24 1.918 . S
Fe25 O26 2.002 . S
Fe25 O35 1.976 . S
Fe25 O39 1.996 . S
Fe25 O42 1.997 . S
O26 Fe25 2.002 . S
O26 C43 1.295 . S
O27 Fe22 1.997 . S
O27 C43 1.235 . S
O28 Fe22 2.002 . S
O28 C29 1.295 . S
C29 O28 1.295 . S
C29 O31 1.235 . S
C30 O35 1.287 . S
C30 O36 1.255 . S
O31 Fe23 1.997 . S
O31 C29 1.235 . S
C32 O38 1.287 . S
C32 O39 1.255 . S
O33 Fe22 1.976 . S
O33 C40 1.287 . S
O34 Fe23 1.996 . S
O34 C40 1.255 . S
O35 Fe25 1.976 . S
O35 C30 1.287 . S
O36 Fe22 1.996 . S
O36 C30 1.255 . S
C37 O41 1.295 . S
C37 O42 1.235 . S
O38 Fe23 1.976 . S
O38 C32 1.287 . S
O39 Fe25 1.996 . S
O39 C32 1.255 . S
C40 O33 1.287 . S
C40 O34 1.255 . S
O41 Fe23 2.002 . S
O41 C37 1.295 . S
O42 Fe25 1.997 . S
O42 C37 1.235 . S
C43 O26 1.295 . S
C43 O27 1.235 . S
Fe44 O46 1.918 . S
Fe44 O49 1.997 . S
Fe44 O50 2.002 . S
Fe44 O55 1.976 . S
Fe44 O58 1.996 . S
Fe45 O46 1.918 . S
Fe45 O53 1.997 . S
Fe45 O56 1.996 . S
Fe45 O60 1.976 . S
Fe45 O63 2.002 . S
O46 Fe44 1.918 . S
O46 Fe45 1.918 . S
O46 Fe47 1.918 . S
Fe47 O46 1.918 . S
Fe47 O48 2.002 . S
Fe47 O57 1.976 . S
Fe47 O61 1.996 . S
Fe47 O64 1.997 . S
O48 Fe47 2.002 . S
O48 C65 1.295 . S
O49 Fe44 1.997 . S
O49 C65 1.235 . S
O50 Fe44 2.002 . S
O50 C51 1.295 . S
C51 O50 1.295 . S
C51 O53 1.235 . S
C52 O57 1.287 . S
C52 O58 1.255 . S
O53 Fe45 1.997 . S
O53 C51 1.235 . S
C54 O60 1.287 . S
C54 O61 1.255 . S
O55 Fe44 1.976 . S
O55 C62 1.287 . S
O56 Fe45 1.996 . S
O56 C62 1.255 . S
O57 Fe47 1.976 . S
O57 C52 1.287 . S
O58 Fe44 1.996 . S
O58 C52 1.255 . S
C59 O63 1.295 . S
C59 O64 1.235 . S
O60 Fe45 1.976 . S
O60 C54 1.287 . S
O61 Fe47 1.996 . S
O61 C54 1.255 . S
C62 O55 1.287 . S
C62 O56 1.255 . S
O63 Fe45 2.002 . S
O63 C59 1.295 . S
O64 Fe47 1.997 . S
O64 C59 1.235 . S
C65 O48 1.295 . S
C65 O49 1.235 . S
Fe66 O68 1.918 . S
Fe66 O71 1.997 . S
Fe66 O72 2.002 . S
Fe66 O77 1.976 . S
Fe66 O80 1.996 . S
Fe67 O68 1.918 . S
Fe67 O75 1.997 . S
Fe67 O78 1.996 . S
Fe67 O82 1.976 . S
Fe67 O85 2.002 . S
O68 Fe66 1.918 . S
O68 Fe67 1.918 . S
O68 Fe69 1.918 . S
Fe69 O68 1.918 . S
Fe69 O70 2.002 . S
Fe69 O79 1.976 . S
Fe69 O83 1.996 . S
Fe69 O86 1.997 . S
O70 Fe69 2.002 . S
O70 C87 1.295 . S
O71 Fe66 1.997 . S
O71 C87 1.235 . S
O72 Fe66 2.002 . S
O72 C73 1.295 . S
C73 O72 1.295 . S
C73 O75 1.235 . S
C74 O79 1.287 . S
C74 O80 1.255 . S
O75 Fe67 1.997 . S
O75 C73 1.235 . S
C76 O82 1.287 . S
C76 O83 1.255 . S
O77 Fe66 1.976 . S
O77 C84 1.287 . S
O78 Fe67 1.996 . S
O78 C84 1.255 . S
O79 Fe69 1.976 . S
O79 C74 1.287 . S
O80 Fe66 1.996 . S
O80 C74 1.255 . S
C81 O85 1.295 . S
C81 O86 1.235 . S
O82 Fe67 1.976 . S
O82 C76 1.287 . S
O83 Fe69 1.996 . S
O83 C76 1.255 . S
C84 O77 1.287 . S
C84 O78 1.255 . S
O85 Fe67 2.002 . S
O85 C81 1.295 . S
O86 Fe69 1.997 . S
O86 C81 1.235 . S
C87 O70 1.295 . S
C87 O71 1.235 . S
Fe88 O90 1.918 . S
Fe88 O93 1.997 . S
Fe88 O94 2.002 . S
Fe88 O99 1.976 . S
Fe88 O102 1.996 . S
Fe89 O90 1.918 . S
Fe89 O97 1.997 . S
Fe89 O100 1.996 . S
Fe89 O104 1.976 . S
Fe89 O107 2.002 . S
O90 Fe88 1.918 . S
O90 Fe89 1.918 . S
O90 Fe91 1.918 . S
Fe91 O90 1.918 . S
Fe91 O92 2.002 . S
Fe91 O101 1.976 . S
Fe91 O105 1.996 . S
Fe91 O108 1.997 . S
O92 Fe91 2.002 . S
O92 C109 1.295 . S
O93 Fe88 1.997 . S
O93 C109 1.235 . S
O94 Fe88 2.002 . S
O94 C95 1.295 . S
C95 O94 1.295 . S
C95 O97 1.235 . S
C96 O101 1.287 . S
C96 O102 1.255 . S
O97 Fe89 1.997 . S
O97 C95 1.235 . S
C98 O104 1.287 . S
C98 O105 1.255 . S
O99 Fe88 1.976 . S
O99 C106 1.287 . S
O100 Fe89 1.996 . S
O100 C106 1.255 . S
O101 Fe91 1.976 . S
O101 C96 1.287 . S
O102 Fe88 1.996 . S
O102 C96 1.255 . S
C103 O107 1.295 . S
C103 O108 1.235 . S
O104 Fe89 1.976 . S
O104 C98 1.287 . S
O105 Fe91 1.996 . S
O105 C98 1.255 . S
C106 O99 1.287 . S
C106 O100 1.255 . S
O107 Fe89 2.002 . S
O107 C103 1.295 . S
O108 Fe91 1.997 . S
O108 C103 1.235 . S
C109 O92 1.295 . S
C109 O93 1.235 . S
Fe110 O112 1.918 . S
Fe110 O115 1.997 . S
Fe110 O116 2.002 . S
Fe110 O121 1.976 . S
Fe110 O124 1.996 . S
Fe111 O112 1.918 . S
Fe111 O119 1.997 . S
Fe111 O122 1.996 . S
Fe111 O126 1.976 . S
Fe111 O129 2.002 . S
O112 Fe110 1.918 . S
O112 Fe111 1.918 . S
O112 Fe113 1.918 . S
Fe113 O112 1.918 . S
Fe113 O114 2.002 . S
Fe113 O123 1.976 . S
Fe113 O127 1.996 . S
Fe113 O130 1.997 . S
O114 Fe113 2.002 . S
O114 C131 1.295 . S
O115 Fe110 1.997 . S
O115 C131 1.235 . S
O116 Fe110 2.002 . S
O116 C117 1.295 . S
C117 O116 1.295 . S
C117 O119 1.235 . S
C118 O123 1.287 . S
C118 O124 1.255 . S
O119 Fe111 1.997 . S
O119 C117 1.235 . S
C120 O126 1.287 . S
C120 O127 1.255 . S
O121 Fe110 1.976 . S
O121 C128 1.287 . S
O122 Fe111 1.996 . S
O122 C128 1.255 . S
O123 Fe113 1.976 . S
O123 C118 1.287 . S
O124 Fe110 1.996 . S
O124 C118 1.255 . S
C125 O129 1.295 . S
C125 O130 1.235 . S
O126 Fe111 1.976 . S
O126 C120 1.287 . S
O127 Fe113 1.996 . S
O127 C120 1.255 . S
C128 O121 1.287 . S
C128 O122 1.255 . S
O129 Fe111 2.002 . S
O129 C125 1.295 . S
O130 Fe113 1.997 . S
O130 C125 1.235 . S
C131 O114 1.295 . S
C131 O115 1.235 . S
Fe132 O134 1.918 . S
Fe132 O137 1.997 . S
Fe132 O138 2.002 . S
Fe132 O143 1.976 . S
Fe132 O146 1.996 . S
Fe133 O134 1.918 . S
Fe133 O141 1.997 . S
Fe133 O144 1.996 . S
Fe133 O148 1.976 . S
Fe133 O151 2.002 . S
O134 Fe132 1.918 . S
O134 Fe133 1.918 . S
O134 Fe135 1.918 . S
Fe135 O134 1.918 . S
Fe135 O136 2.002 . S
Fe135 O145 1.976 . S
Fe135 O149 1.996 . S
Fe135 O152 1.997 . S
O136 Fe135 2.002 . S
O136 C153 1.295 . S
O137 Fe132 1.997 . S
O137 C153 1.235 . S
O138 Fe132 2.002 . S
O138 C139 1.295 . S
C139 O138 1.295 . S
C139 O141 1.235 . S
C140 O145 1.287 . S
C140 O146 1.255 . S
O141 Fe133 1.997 . S
O141 C139 1.235 . S
C142 O148 1.287 . S
C142 O149 1.255 . S
O143 Fe132 1.976 . S
O143 C150 1.287 . S
O144 Fe133 1.996 . S
O144 C150 1.255 . S
O145 Fe135 1.976 . S
O145 C140 1.287 . S
O146 Fe132 1.996 . S
O146 C140 1.255 . S
C147 O151 1.295 . S
C147 O152 1.235 . S
O148 Fe133 1.976 . S
O148 C142 1.287 . S
O149 Fe135 1.996 . S
O149 C142 1.255 . S
C150 O143 1.287 . S
C150 O144 1.255 . S
O151 Fe133 2.002 . S
O151 C147 1.295 . S
O152 Fe135 1.997 . S
O152 C147 1.235 . S
C153 O136 1.295 . S
C153 O137 1.235 . S
Fe154 O156 1.918 . S
Fe154 O159 1.997 . S
Fe154 O160 2.002 . S
Fe154 O165 1.976 . S
Fe154 O168 1.996 . S
Fe155 O156 1.918 . S
Fe155 O163 1.997 . S
Fe155 O166 1.996 . S
Fe155 O170 1.976 . S
Fe155 O173 2.002 . S
O156 Fe154 1.918 . S
O156 Fe155 1.918 . S
O156 Fe157 1.918 . S
Fe157 O156 1.918 . S
Fe157 O158 2.002 . S
Fe157 O167 1.976 . S
Fe157 O171 1.996 . S
Fe157 O174 1.997 . S
O158 Fe157 2.002 . S
O158 C175 1.295 . S
O159 Fe154 1.997 . S
O159 C175 1.235 . S
O160 Fe154 2.002 . S
O160 C161 1.295 . S
C161 O160 1.295 . S
C161 O163 1.235 . S
C162 O167 1.287 . S
C162 O168 1.255 . S
O163 Fe155 1.997 . S
O163 C161 1.235 . S
C164 O170 1.287 . S
C164 O171 1.255 . S
O165 Fe154 1.976 . S
O165 C172 1.287 . S
O166 Fe155 1.996 . S
O166 C172 1.255 . S
O167 Fe157 1.976 . S
O167 C162 1.287 . S
O168 Fe154 1.996 . S
O168 C162 1.255 . S
C169 O173 1.295 . S
C169 O174 1.235 . S
O170 Fe155 1.976 . S
O170 C164 1.287 . S
O171 Fe157 1.996 . S
O171 C164 1.255 . S
C172 O165 1.287 . S
C172 O166 1.255 . S
O173 Fe155 2.002 . S
O173 C169 1.295 . S
O174 Fe157 1.997 . S
O174 C169 1.235 . S
C175 O158 1.295 . S
C175 O159 1.235 . S
Fe176 O178 1.918 . S
Fe176 O181 1.997 . S
Fe176 O182 2.002 . S
Fe176 O187 1.976 . S
Fe176 O190 1.996 . S
Fe177 O178 1.918 . S
Fe177 O185 1.997 . S
Fe177 O188 1.996 . S
Fe177 O192 1.976 . S
Fe177 O195 2.002 . S
O178 Fe176 1.918 . S
O178 Fe177 1.918 . S
O178 Fe179 1.918 . S
Fe179 O178 1.918 . S
Fe179 O180 2.002 . S
Fe179 O189 1.976 . S
Fe179 O193 1.996 . S
Fe179 O196 1.997 . S
O180 Fe179 2.002 . S
O180 C197 1.295 . S
O181 Fe176 1.997 . S
O181 C197 1.235 . S
O182 Fe176 2.002 . S
O182 C183 1.295 . S
C183 O182 1.295 . S
C183 O185 1.235 . S
C184 O189 1.287 . S
C184 O190 1.255 . S
O185 Fe177 1.997 . S
O185 C183 1.235 . S
C186 O192 1.287 . S
C186 O193 1.255 . S
O187 Fe176 1.976 . S
O187 C194 1.287 . S
O188 Fe177 1.996 . S
O188 C194 1.255 . S
O189 Fe179 1.976 . S
O189 C184 1.287 . S
O190 Fe176 1.996 . S
O190 C184 1.255 . S
C191 O195 1.295 . S
C191 O196 1.235 . S
O192 Fe177 1.976 . S
O192 C186 1.287 . S
O193 Fe179 1.996 . S
O193 C186 1.255 . S
C194 O187 1.287 . S
C194 O188 1.255 . S
O195 Fe177 2.002 . S
O195 C191 1.295 . S
O196 Fe179 1.997 . S
O196 C191 1.235 . S
C197 O180 1.295 . S
C197 O181 1.235 . S
Fe198 O200 1.918 1_655 S
Fe198 O203 1.997 1_655 S
Fe198 O204 2.002 . S
Fe198 O209 1.976 . S
Fe198 O212 1.996 1_655 S
Fe199 O200 1.918 . S
Fe199 O207 1.997 . S
Fe199 O210 1.996 . S
Fe199 O214 1.976 . S
Fe199 O217 2.002 . S
O200 Fe198 1.918 1_455 S
O200 Fe199 1.918 . S
O200 Fe201 1.918 . S
Fe201 O200 1.918 . S
Fe201 O202 2.002 . S
Fe201 O211 1.976 . S
Fe201 O215 1.996 . S
Fe201 O218 1.997 . S
O202 Fe201 2.002 . S
O202 C219 1.295 . S
O203 Fe198 1.997 1_455 S
O203 C219 1.235 . S
O204 Fe198 2.002 . S
O204 C205 1.295 . S
C205 O204 1.295 . S
C205 O207 1.235 1_655 S
C206 O211 1.287 . S
C206 O212 1.255 . S
O207 Fe199 1.997 . S
O207 C205 1.235 1_455 S
C208 O214 1.287 . S
C208 O215 1.255 . S
O209 Fe198 1.976 . S
O209 C216 1.287 . S
O210 Fe199 1.996 . S
O210 C216 1.255 1_455 S
O211 Fe201 1.976 . S
O211 C206 1.287 . S
O212 Fe198 1.996 1_455 S
O212 C206 1.255 . S
C213 O217 1.295 . S
C213 O218 1.235 . S
O214 Fe199 1.976 . S
O214 C208 1.287 . S
O215 Fe201 1.996 . S
O215 C208 1.255 . S
C216 O209 1.287 . S
C216 O210 1.255 1_655 S
O217 Fe199 2.002 . S
O217 C213 1.295 . S
O218 Fe201 1.997 . S
O218 C213 1.235 . S
C219 O202 1.295 . S
C219 O203 1.235 . S
Fe220 O222 1.918 . S
Fe220 O225 1.997 . S
Fe220 O226 2.002 . S
Fe220 O231 1.976 . S
Fe220 O234 1.996 . S
Fe221 O222 1.918 . S
Fe221 O229 1.997 . S
Fe221 O232 1.996 . S
Fe221 O236 1.976 . S
Fe221 O239 2.002 . S
O222 Fe220 1.918 . S
O222 Fe221 1.918 . S
O222 Fe223 1.918 . S
Fe223 O222 1.918 . S
Fe223 O224 2.002 . S
Fe223 O233 1.976 . S
Fe223 O237 1.996 . S
Fe223 O240 1.997 . S
O224 Fe223 2.002 . S
O224 C241 1.295 . S
O225 Fe220 1.997 . S
O225 C241 1.235 . S
O226 Fe220 2.002 . S
O226 C227 1.295 . S
C227 O226 1.295 . S
C227 O229 1.235 . S
C228 O233 1.287 . S
C228 O234 1.255 . S
O229 Fe221 1.997 . S
O229 C227 1.235 . S
C230 O236 1.287 . S
C230 O237 1.255 . S
O231 Fe220 1.976 . S
O231 C238 1.287 . S
O232 Fe221 1.996 . S
O232 C238 1.255 . S
O233 Fe223 1.976 . S
O233 C228 1.287 . S
O234 Fe220 1.996 . S
O234 C228 1.255 . S
C235 O239 1.295 . S
C235 O240 1.235 . S
O236 Fe221 1.976 . S
O236 C230 1.287 . S
O237 Fe223 1.996 . S
O237 C230 1.255 . S
C238 O231 1.287 . S
C238 O232 1.255 . S
O239 Fe221 2.002 . S
O239 C235 1.295 . S
O240 Fe223 1.997 . S
O240 C235 1.235 . S
C241 O224 1.295 . S
C241 O225 1.235 . S
Fe242 O244 1.918 1_545 S
Fe242 O247 1.997 1_545 S
Fe242 O248 2.002 . S
Fe242 O253 1.976 . S
Fe242 O256 1.996 1_545 S
Fe243 O244 1.918 . S
Fe243 O251 1.997 . S
Fe243 O254 1.996 . S
Fe243 O258 1.976 . S
Fe243 O261 2.002 . S
O244 Fe242 1.918 1_565 S
O244 Fe243 1.918 . S
O244 Fe245 1.918 . S
Fe245 O244 1.918 . S
Fe245 O246 2.002 . S
Fe245 O255 1.976 . S
Fe245 O259 1.996 . S
Fe245 O262 1.997 . S
O246 Fe245 2.002 . S
O246 C263 1.295 . S
O247 Fe242 1.997 1_565 S
O247 C263 1.235 . S
O248 Fe242 2.002 . S
O248 C249 1.295 . S
C249 O248 1.295 . S
C249 O251 1.235 1_545 S
C250 O255 1.287 . S
C250 O256 1.255 . S
O251 Fe243 1.997 . S
O251 C249 1.235 1_565 S
C252 O258 1.287 . S
C252 O259 1.255 . S
O253 Fe242 1.976 . S
O253 C260 1.287 . S
O254 Fe243 1.996 . S
O254 C260 1.255 1_565 S
O255 Fe245 1.976 . S
O255 C250 1.287 . S
O256 Fe242 1.996 1_565 S
O256 C250 1.255 . S
C257 O261 1.295 . S
C257 O262 1.235 . S
O258 Fe243 1.976 . S
O258 C252 1.287 . S
O259 Fe245 1.996 . S
O259 C252 1.255 . S
C260 O253 1.287 . S
C260 O254 1.255 1_545 S
O261 Fe243 2.002 . S
O261 C257 1.295 . S
O262 Fe245 1.997 . S
O262 C257 1.235 . S
C263 O246 1.295 . S
C263 O247 1.235 . S
Fe264 O266 1.918 1_565 S
Fe264 O269 1.997 1_565 S
Fe264 O270 2.002 . S
Fe264 O275 1.976 . S
Fe264 O278 1.996 1_565 S
Fe265 O266 1.918 . S
Fe265 O273 1.997 . S
Fe265 O276 1.996 . S
Fe265 O280 1.976 . S
Fe265 O283 2.002 . S
O266 Fe264 1.918 1_545 S
O266 Fe265 1.918 . S
O266 Fe267 1.918 . S
Fe267 O266 1.918 . S
Fe267 O268 2.002 . S
Fe267 O277 1.976 . S
Fe267 O281 1.996 . S
Fe267 O284 1.997 . S
O268 Fe267 2.002 . S
O268 C285 1.295 . S
O269 Fe264 1.997 1_545 S
O269 C285 1.235 . S
O270 Fe264 2.002 . S
O270 C271 1.295 . S
C271 O270 1.295 . S
C271 O273 1.235 1_565 S
C272 O277 1.287 . S
C272 O278 1.255 . S
O273 Fe265 1.997 . S
O273 C271 1.235 1_545 S
C274 O280 1.287 . S
C274 O281 1.255 . S
O275 Fe264 1.976 . S
O275 C282 1.287 . S
O276 Fe265 1.996 . S
O276 C282 1.255 1_545 S
O277 Fe267 1.976 . S
O277 C272 1.287 . S
O278 Fe264 1.996 1_545 S
O278 C272 1.255 . S
C279 O283 1.295 . S
C279 O284 1.235 . S
O280 Fe265 1.976 . S
O280 C274 1.287 . S
O281 Fe267 1.996 . S
O281 C274 1.255 . S
C282 O275 1.287 . S
C282 O276 1.255 1_565 S
O283 Fe265 2.002 . S
O283 C279 1.295 . S
O284 Fe267 1.997 . S
O284 C279 1.235 . S
C285 O268 1.295 . S
C285 O269 1.235 . S
Fe286 O288 1.918 . S
Fe286 O291 1.997 . S
Fe286 O292 2.002 . S
Fe286 O297 1.976 . S
Fe286 O300 1.996 . S
Fe287 O288 1.918 1_455 S
Fe287 O295 1.997 1_455 S
Fe287 O298 1.996 1_455 S
Fe287 O302 1.976 . S
Fe287 O305 2.002 . S
O288 Fe286 1.918 . S
O288 Fe287 1.918 1_655 S
O288 Fe289 1.918 . S
Fe289 O288 1.918 . S
Fe289 O290 2.002 . S
Fe289 O299 1.976 . S
Fe289 O303 1.996 . S
Fe289 O306 1.997 . S
O290 Fe289 2.002 . S
O290 C307 1.295 . S
O291 Fe286 1.997 . S
O291 C307 1.235 . S
O292 Fe286 2.002 . S
O292 C293 1.295 . S
C293 O292 1.295 . S
C293 O295 1.235 . S
C294 O299 1.287 . S
C294 O300 1.255 . S
O295 Fe287 1.997 1_655 S
O295 C293 1.235 . S
C296 O302 1.287 . S
C296 O303 1.255 1_455 S
O297 Fe286 1.976 . S
O297 C304 1.287 . S
O298 Fe287 1.996 1_655 S
O298 C304 1.255 . S
O299 Fe289 1.976 . S
O299 C294 1.287 . S
O300 Fe286 1.996 . S
O300 C294 1.255 . S
C301 O305 1.295 . S
C301 O306 1.235 1_455 S
O302 Fe287 1.976 . S
O302 C296 1.287 . S
O303 Fe289 1.996 . S
O303 C296 1.255 1_655 S
C304 O297 1.287 . S
C304 O298 1.255 . S
O305 Fe287 2.002 . S
O305 C301 1.295 . S
O306 Fe289 1.997 . S
O306 C301 1.235 1_655 S
C307 O290 1.295 . S
C307 O291 1.235 . S
Fe308 O310 1.918 . S
Fe308 O313 1.997 . S
Fe308 O314 2.002 . S
Fe308 O319 1.976 . S
Fe308 O322 1.996 . S
Fe309 O310 1.918 . S
Fe309 O317 1.997 . S
Fe309 O320 1.996 . S
Fe309 O324 1.976 . S
Fe309 O327 2.002 . S
O310 Fe308 1.918 . S
O310 Fe309 1.918 . S
O310 Fe311 1.918 . S
Fe311 O310 1.918 . S
Fe311 O312 2.002 . S
Fe311 O321 1.976 . S
Fe311 O325 1.996 . S
Fe311 O328 1.997 . S
O312 Fe311 2.002 . S
O312 C329 1.295 . S
O313 Fe308 1.997 . S
O313 C329 1.235 . S
O314 Fe308 2.002 . S
O314 C315 1.295 . S
C315 O314 1.295 . S
C315 O317 1.235 . S
C316 O321 1.287 . S
C316 O322 1.255 . S
O317 Fe309 1.997 . S
O317 C315 1.235 . S
C318 O324 1.287 . S
C318 O325 1.255 . S
O319 Fe308 1.976 . S
O319 C326 1.287 . S
O320 Fe309 1.996 . S
O320 C326 1.255 . S
O321 Fe311 1.976 . S
O321 C316 1.287 . S
O322 Fe308 1.996 . S
O322 C316 1.255 . S
C323 O327 1.295 . S
C323 O328 1.235 . S
O324 Fe309 1.976 . S
O324 C318 1.287 . S
O325 Fe311 1.996 . S
O325 C318 1.255 . S
C326 O319 1.287 . S
C326 O320 1.255 . S
O327 Fe309 2.002 . S
O327 C323 1.295 . S
O328 Fe311 1.997 . S
O328 C323 1.235 . S
C329 O312 1.295 . S
C329 O313 1.235 . S
Fe330 O332 1.918 . S
Fe330 O335 1.997 . S
Fe330 O336 2.002 . S
Fe330 O341 1.976 . S
Fe330 O344 1.996 . S
Fe331 O332 1.918 . S
Fe331 O339 1.997 . S
Fe331 O342 1.996 . S
Fe331 O346 1.976 . S
Fe331 O349 2.002 . S
O332 Fe330 1.918 . S
O332 Fe331 1.918 . S
O332 Fe333 1.918 . S
Fe333 O332 1.918 . S
Fe333 O334 2.002 . S
Fe333 O343 1.976 . S
Fe333 O347 1.996 . S
Fe333 O350 1.997 . S
O334 Fe333 2.002 . S
O334 C351 1.295 . S
O335 Fe330 1.997 . S
O335 C351 1.235 . S
O336 Fe330 2.002 . S
O336 C337 1.295 . S
C337 O336 1.295 . S
C337 O339 1.235 . S
C338 O343 1.287 . S
C338 O344 1.255 . S
O339 Fe331 1.997 . S
O339 C337 1.235 . S
C340 O346 1.287 . S
C340 O347 1.255 . S
O341 Fe330 1.976 . S
O341 C348 1.287 . S
O342 Fe331 1.996 . S
O342 C348 1.255 . S
O343 Fe333 1.976 . S
O343 C338 1.287 . S
O344 Fe330 1.996 . S
O344 C338 1.255 . S
C345 O349 1.295 . S
C345 O350 1.235 . S
O346 Fe331 1.976 . S
O346 C340 1.287 . S
O347 Fe333 1.996 . S
O347 C340 1.255 . S
C348 O341 1.287 . S
C348 O342 1.255 . S
O349 Fe331 2.002 . S
O349 C345 1.295 . S
O350 Fe333 1.997 . S
O350 C345 1.235 . S
C351 O334 1.295 . S
C351 O335 1.235 . S
Fe352 O354 1.918 . S
Fe352 O357 1.997 . S
Fe352 O358 2.002 . S
Fe352 O363 1.976 . S
Fe352 O366 1.996 . S
Fe353 O354 1.918 . S
Fe353 O361 1.997 . S
Fe353 O364 1.996 . S
Fe353 O368 1.976 . S
Fe353 O371 2.002 . S
O354 Fe352 1.918 . S
O354 Fe353 1.918 . S
O354 Fe355 1.918 . S
Fe355 O354 1.918 . S
Fe355 O356 2.002 . S
Fe355 O365 1.976 . S
Fe355 O369 1.996 . S
Fe355 O372 1.997 . S
O356 Fe355 2.002 . S
O356 C373 1.295 . S
O357 Fe352 1.997 . S
O357 C373 1.235 . S
O358 Fe352 2.002 . S
O358 C359 1.295 . S
C359 O358 1.295 . S
C359 O361 1.235 . S
C360 O365 1.287 . S
C360 O366 1.255 . S
O361 Fe353 1.997 . S
O361 C359 1.235 . S
C362 O368 1.287 . S
C362 O369 1.255 . S
O363 Fe352 1.976 . S
O363 C370 1.287 . S
O364 Fe353 1.996 . S
O364 C370 1.255 . S
O365 Fe355 1.976 . S
O365 C360 1.287 . S
O366 Fe352 1.996 . S
O366 C360 1.255 . S
C367 O371 1.295 . S
C367 O372 1.235 . S
O368 Fe353 1.976 . S
O368 C362 1.287 . S
O369 Fe355 1.996 . S
O369 C362 1.255 . S
C370 O363 1.287 . S
C370 O364 1.255 . S
O371 Fe353 2.002 . S
O371 C367 1.295 . S
O372 Fe355 1.997 . S
O372 C367 1.235 . S
C373 O356 1.295 . S
C373 O357 1.235 . S
Fe374 O376 1.918 . S
Fe374 O379 1.997 . S
Fe374 O380 2.002 . S
Fe374 O385 1.976 . S
Fe374 O388 1.996 . S
Fe375 O376 1.918 . S
Fe375 O383 1.997 . S
Fe375 O386 1.996 . S
Fe375 O390 1.976 . S
Fe375 O393 2.002 . S
O376 Fe374 1.918 . S
O376 Fe375 1.918 . S
O376 Fe377 1.918 . S
Fe377 O376 1.918 . S
Fe377 O378 2.002 . S
Fe377 O387 1.976 . S
Fe377 O391 1.996 . S
Fe377 O394 1.997 . S
O378 Fe377 2.002 . S
O378 C395 1.295 . S
O379 Fe374 1.997 . S
O379 C395 1.235 . S
O380 Fe374 2.002 . S
O380 C381 1.295 . S
C381 O380 1.295 . S
C381 O383 1.235 . S
C382 O387 1.287 . S
C382 O388 1.255 . S
O383 Fe375 1.997 . S
O383 C381 1.235 . S
C384 O390 1.287 . S
C384 O391 1.255 . S
O385 Fe374 1.976 . S
O385 C392 1.287 . S
O386 Fe375 1.996 . S
O386 C392 1.255 . S
O387 Fe377 1.976 . S
O387 C382 1.287 . S
O388 Fe374 1.996 . S
O388 C382 1.255 . S
C389 O393 1.295 . S
C389 O394 1.235 . S
O390 Fe375 1.976 . S
O390 C384 1.287 . S
O391 Fe377 1.996 . S
O391 C384 1.255 . S
C392 O385 1.287 . S
C392 O386 1.255 . S
O393 Fe375 2.002 . S
O393 C389 1.295 . S
O394 Fe377 1.997 . S
O394 C389 1.235 . S
C395 O378 1.295 . S
C395 O379 1.235 . S
C396 C397 1.369 . S
C396 C398 1.419 . S
C396 H400 0.930 . S
C397 C396 1.369 . S
C397 C406 1.429 . S
C398 C396 1.419 . S
C398 C399 1.363 . S
C398 H401 0.929 . S
C399 C398 1.363 . S
C399 C405 1.428 . S
H400 C396 0.930 . S
H401 C398 0.929 . S
S402 N403 1.613 . S
S402 N404 1.610 . S
N403 S402 1.613 . S
N403 C406 1.350 . S
N404 S402 1.610 . S
N404 C405 1.351 . S
C405 C399 1.428 . S
C405 N404 1.351 . S
C405 C406 1.434 . S
C406 C397 1.429 . S
C406 N403 1.350 . S
C406 C405 1.434 . S
C407 C408 1.369 . S
C407 C409 1.419 . S
C407 H411 0.930 . S
C408 C407 1.369 . S
C408 C417 1.429 . S
C409 C407 1.419 . S
C409 C410 1.363 . S
C409 H412 0.929 . S
C410 C409 1.363 . S
C410 C416 1.428 . S
H411 C407 0.930 . S
H412 C409 0.929 . S
S413 N414 1.613 . S
S413 N415 1.610 . S
N414 S413 1.613 . S
N414 C417 1.350 . S
N415 S413 1.610 . S
N415 C416 1.351 . S
C416 C410 1.428 . S
C416 N415 1.351 . S
C416 C417 1.434 . S
C417 C408 1.429 . S
C417 N414 1.350 . S
C417 C416 1.434 . S
C418 C419 1.369 . S
C418 C420 1.419 . S
C418 H422 0.930 . S
C419 C418 1.369 . S
C419 C428 1.429 . S
C420 C418 1.419 . S
C420 C421 1.363 . S
C420 H423 0.929 . S
C421 C420 1.363 . S
C421 C427 1.428 . S
H422 C418 0.930 . S
H423 C420 0.929 . S
S424 N425 1.613 . S
S424 N426 1.610 . S
N425 S424 1.613 . S
N425 C428 1.350 . S
N426 S424 1.610 . S
N426 C427 1.351 . S
C427 C421 1.428 . S
C427 N426 1.351 . S
C427 C428 1.434 . S
C428 C419 1.429 . S
C428 N425 1.350 . S
C428 C427 1.434 . S
C429 C430 1.369 . S
C429 C431 1.419 . S
C429 H433 0.930 . S
C430 C429 1.369 . S
C430 C439 1.429 . S
C431 C429 1.419 . S
C431 C432 1.363 . S
C431 H434 0.929 . S
C432 C431 1.363 . S
C432 C438 1.428 . S
H433 C429 0.930 . S
H434 C431 0.929 . S
S435 N436 1.613 . S
S435 N437 1.610 . S
N436 S435 1.613 . S
N436 C439 1.350 . S
N437 S435 1.610 . S
N437 C438 1.351 . S
C438 C432 1.428 . S
C438 N437 1.351 . S
C438 C439 1.434 . S
C439 C430 1.429 . S
C439 N436 1.350 . S
C439 C438 1.434 . S
C440 C441 1.369 . S
C440 C442 1.419 . S
C440 H444 0.930 . S
C441 C440 1.369 . S
C441 C450 1.429 . S
C442 C440 1.419 . S
C442 C443 1.363 . S
C442 H445 0.929 . S
C443 C442 1.363 . S
C443 C449 1.428 . S
H444 C440 0.930 . S
H445 C442 0.929 . S
S446 N447 1.613 . S
S446 N448 1.610 . S
N447 S446 1.613 . S
N447 C450 1.350 . S
N448 S446 1.610 . S
N448 C449 1.351 . S
C449 C443 1.428 . S
C449 N448 1.351 . S
C449 C450 1.434 . S
C450 C441 1.429 . S
C450 N447 1.350 . S
C450 C449 1.434 . S
C451 C452 1.369 . S
C451 C453 1.419 . S
C451 H455 0.930 . S
C452 C451 1.369 . S
C452 C461 1.429 . S
C453 C451 1.419 . S
C453 C454 1.363 . S
C453 H456 0.929 . S
C454 C453 1.363 . S
C454 C460 1.428 . S
H455 C451 0.930 . S
H456 C453 0.929 . S
S457 N458 1.613 . S
S457 N459 1.610 . S
N458 S457 1.613 . S
N458 C461 1.350 . S
N459 S457 1.610 . S
N459 C460 1.351 . S
C460 C454 1.428 . S
C460 N459 1.351 . S
C460 C461 1.434 . S
C461 C452 1.429 . S
C461 N458 1.350 . S
C461 C460 1.434 . S
C462 C463 1.369 . S
C462 C464 1.419 . S
C462 H466 0.930 . S
C463 C462 1.369 . S
C463 C472 1.429 . S
C464 C462 1.419 . S
C464 C465 1.363 . S
C464 H467 0.929 . S
C465 C464 1.363 . S
C465 C471 1.428 . S
H466 C462 0.930 . S
H467 C464 0.929 . S
S468 N469 1.613 . S
S468 N470 1.610 . S
N469 S468 1.613 . S
N469 C472 1.350 . S
N470 S468 1.610 . S
N470 C471 1.351 . S
C471 C465 1.428 . S
C471 N470 1.351 . S
C471 C472 1.434 . S
C472 C463 1.429 . S
C472 N469 1.350 . S
C472 C471 1.434 . S
C473 C474 1.369 . S
C473 C475 1.419 . S
C473 H477 0.930 . S
C474 C473 1.369 . S
C474 C483 1.429 . S
C475 C473 1.419 . S
C475 C476 1.363 . S
C475 H478 0.929 . S
C476 C475 1.363 . S
C476 C482 1.428 . S
H477 C473 0.930 . S
H478 C475 0.929 . S
S479 N480 1.613 1_455 S
S479 N481 1.610 1_565 S
N480 S479 1.613 1_655 S
N480 C483 1.350 1_655 S
N481 S479 1.610 1_545 S
N481 C482 1.351 1_545 S
C482 C476 1.428 . S
C482 N481 1.351 1_565 S
C482 C483 1.434 . S
C483 C474 1.429 . S
C483 N480 1.350 1_455 S
C483 C482 1.434 . S
C484 C485 1.369 . S
C484 C486 1.419 . S
C484 H488 0.930 . S
C485 C484 1.369 . S
C485 C494 1.429 . S
C486 C484 1.419 . S
C486 C487 1.363 . S
C486 H489 0.929 . S
C487 C486 1.363 . S
C487 C493 1.428 . S
H488 C484 0.930 . S
H489 C486 0.929 . S
S490 N491 1.613 . S
S490 N492 1.610 . S
N491 S490 1.613 . S
N491 C494 1.350 . S
N492 S490 1.610 . S
N492 C493 1.351 . S
C493 C487 1.428 . S
C493 N492 1.351 . S
C493 C494 1.434 . S
C494 C485 1.429 . S
C494 N491 1.350 . S
C494 C493 1.434 . S
C495 C496 1.369 . S
C495 C497 1.419 . S
C495 H499 0.930 . S
C496 C495 1.369 . S
C496 C505 1.429 . S
C497 C495 1.419 . S
C497 C498 1.363 . S
C497 H500 0.929 . S
C498 C497 1.363 . S
C498 C504 1.428 . S
H499 C495 0.930 . S
H500 C497 0.929 . S
S501 N502 1.613 . S
S501 N503 1.610 . S
N502 S501 1.613 . S
N502 C505 1.350 . S
N503 S501 1.610 . S
N503 C504 1.351 . S
C504 C498 1.428 . S
C504 N503 1.351 . S
C504 C505 1.434 . S
C505 C496 1.429 . S
C505 N502 1.350 . S
C505 C504 1.434 . S
C506 C507 1.369 . S
C506 C508 1.419 . S
C506 H510 0.930 . S
C507 C506 1.369 . S
C507 C516 1.429 . S
C508 C506 1.419 . S
C508 C509 1.363 . S
C508 H511 0.929 . S
C509 C508 1.363 . S
C509 C515 1.428 . S
H510 C506 0.930 . S
H511 C508 0.929 . S
S512 N513 1.613 . S
S512 N514 1.610 . S
N513 S512 1.613 . S
N513 C516 1.350 . S
N514 S512 1.610 . S
N514 C515 1.351 . S
C515 C509 1.428 . S
C515 N514 1.351 . S
C515 C516 1.434 . S
C516 C507 1.429 . S
C516 N513 1.350 . S
C516 C515 1.434 . S
C517 C518 1.369 . S
C517 C519 1.419 . S
C517 H521 0.930 . S
C518 C517 1.369 . S
C518 C527 1.429 . S
C519 C517 1.419 . S
C519 C520 1.363 . S
C519 H522 0.929 . S
C520 C519 1.363 . S
C520 C526 1.428 . S
H521 C517 0.930 . S
H522 C519 0.929 . S
S523 N524 1.613 . S
S523 N525 1.610 . S
N524 S523 1.613 . S
N524 C527 1.350 . S
N525 S523 1.610 . S
N525 C526 1.351 . S
C526 C520 1.428 . S
C526 N525 1.351 . S
C526 C527 1.434 . S
C527 C518 1.429 . S
C527 N524 1.350 . S
C527 C526 1.434 . S
C528 C529 1.369 . S
C528 C530 1.419 . S
C528 H532 0.930 . S
C529 C528 1.369 . S
C529 C538 1.429 . S
C530 C528 1.419 . S
C530 C531 1.363 . S
C530 H533 0.929 . S
C531 C530 1.363 . S
C531 C537 1.428 . S
H532 C528 0.930 . S
H533 C530 0.929 . S
S534 N535 1.613 . S
S534 N536 1.610 . S
N535 S534 1.613 . S
N535 C538 1.350 . S
N536 S534 1.610 . S
N536 C537 1.351 . S
C537 C531 1.428 . S
C537 N536 1.351 . S
C537 C538 1.434 . S
C538 C529 1.429 . S
C538 N535 1.350 . S
C538 C537 1.434 . S
C539 C540 1.369 . S
C539 C541 1.419 . S
C539 H543 0.930 . S
C540 C539 1.369 . S
C540 C549 1.429 . S
C541 C539 1.419 . S
C541 C542 1.363 . S
C541 H544 0.929 . S
C542 C541 1.363 . S
C542 C548 1.428 . S
H543 C539 0.930 . S
H544 C541 0.929 . S
S545 N546 1.613 . S
S545 N547 1.610 . S
N546 S545 1.613 . S
N546 C549 1.350 . S
N547 S545 1.610 . S
N547 C548 1.351 . S
C548 C542 1.428 . S
C548 N547 1.351 . S
C548 C549 1.434 . S
C549 C540 1.429 . S
C549 N546 1.350 . S
C549 C548 1.434 . S
C550 C551 1.369 . S
C550 C552 1.419 . S
C550 H554 0.930 . S
C551 C550 1.369 . S
C551 C560 1.429 . S
C552 C550 1.419 . S
C552 C553 1.363 . S
C552 H555 0.929 . S
C553 C552 1.363 . S
C553 C559 1.428 . S
H554 C550 0.930 . S
H555 C552 0.929 . S
S556 N557 1.613 . S
S556 N558 1.610 . S
N557 S556 1.613 . S
N557 C560 1.350 . S
N558 S556 1.610 . S
N558 C559 1.351 . S
C559 C553 1.428 . S
C559 N558 1.351 . S
C559 C560 1.434 . S
C560 C551 1.429 . S
C560 N557 1.350 . S
C560 C559 1.434 . S
C561 C562 1.369 . S
C561 C563 1.419 . S
C561 H565 0.927 1_655 S
C562 C561 1.369 . S
C562 C571 1.429 . S
C563 C561 1.419 . S
C563 C564 1.363 . S
C563 H566 0.929 . S
C564 C563 1.363 . S
C564 C570 1.428 . S
H565 C561 0.927 1_455 S
H566 C563 0.929 . S
S567 N568 1.613 . S
S567 N569 1.610 . S
N568 S567 1.613 . S
N568 C571 1.350 . S
N569 S567 1.610 . S
N569 C570 1.351 . S
C570 C564 1.428 . S
C570 N569 1.351 . S
C570 C571 1.434 . S
C571 C562 1.429 . S
C571 N568 1.350 . S
C571 C570 1.434 . S
C572 C573 1.369 . S
C572 C574 1.419 . S
C572 H576 0.930 . S
C573 C572 1.369 . S
C573 C582 1.429 . S
C574 C572 1.419 . S
C574 C575 1.363 . S
C574 H577 0.929 . S
C575 C574 1.363 . S
C575 C581 1.428 . S
H576 C572 0.930 . S
H577 C574 0.929 . S
S578 N579 1.613 . S
S578 N580 1.610 . S
N579 S578 1.613 . S
N579 C582 1.350 . S
N580 S578 1.610 . S
N580 C581 1.351 . S
C581 C575 1.428 . S
C581 N580 1.351 . S
C581 C582 1.434 . S
C582 C573 1.429 . S
C582 N579 1.350 . S
C582 C581 1.434 . S
C583 C584 1.369 . S
C583 C585 1.419 . S
C583 H587 0.930 . S
C584 C583 1.369 . S
C584 C593 1.429 . S
C585 C583 1.419 . S
C585 C586 1.363 . S
C585 H588 0.929 . S
C586 C585 1.363 . S
C586 C592 1.428 . S
H587 C583 0.930 . S
H588 C585 0.929 . S
S589 N590 1.613 . S
S589 N591 1.610 . S
N590 S589 1.613 . S
N590 C593 1.350 . S
N591 S589 1.610 . S
N591 C592 1.351 . S
C592 C586 1.428 . S
C592 N591 1.351 . S
C592 C593 1.434 . S
C593 C584 1.429 . S
C593 N590 1.350 . S
C593 C592 1.434 . S
C594 C595 1.369 . S
C594 C596 1.419 . S
C594 H598 0.930 . S
C595 C594 1.369 . S
C595 C604 1.429 . S
C596 C594 1.419 . S
C596 C597 1.363 . S
C596 H599 0.929 . S
C597 C596 1.363 . S
C597 C603 1.428 . S
H598 C594 0.930 . S
H599 C596 0.929 . S
S600 N601 1.613 . S
S600 N602 1.610 . S
N601 S600 1.613 . S
N601 C604 1.350 . S
N602 S600 1.610 . S
N602 C603 1.351 . S
C603 C597 1.428 . S
C603 N602 1.351 . S
C603 C604 1.434 . S
C604 C595 1.429 . S
C604 N601 1.350 . S
C604 C603 1.434 . S
C605 C606 1.369 . S
C605 C607 1.419 . S
C605 H609 0.930 . S
C606 C605 1.369 . S
C606 C615 1.429 . S
C607 C605 1.419 . S
C607 C608 1.363 . S
C607 H610 0.929 . S
C608 C607 1.363 . S
C608 C614 1.428 . S
H609 C605 0.930 . S
H610 C607 0.929 . S
S611 N612 1.613 . S
S611 N613 1.610 . S
N612 S611 1.613 . S
N612 C615 1.350 . S
N613 S611 1.610 . S
N613 C614 1.351 . S
C614 C608 1.428 . S
C614 N613 1.351 . S
C614 C615 1.434 . S
C615 C606 1.429 . S
C615 N612 1.350 . S
C615 C614 1.434 . S
C616 C617 1.369 . S
C616 C618 1.419 . S
C616 H620 0.930 . S
C617 C616 1.369 . S
C617 C626 1.429 . S
C618 C616 1.419 . S
C618 C619 1.363 . S
C618 H621 0.929 . S
C619 C618 1.363 . S
C619 C625 1.428 . S
H620 C616 0.930 . S
H621 C618 0.929 . S
S622 N623 1.613 . S
S622 N624 1.610 1_545 S
N623 S622 1.613 . S
N623 C626 1.350 1_545 S
N624 S622 1.610 1_565 S
N624 C625 1.351 . S
C625 C619 1.428 . S
C625 N624 1.351 . S
C625 C626 1.434 . S
C626 C617 1.429 . S
C626 N623 1.350 1_565 S
C626 C625 1.434 . S
C627 C628 1.369 . S
C627 C629 1.419 . S
C627 H631 0.930 . S
C628 C627 1.369 . S
C628 C637 1.429 . S
C629 C627 1.419 . S
C629 C630 1.363 . S
C629 H632 0.929 . S
C630 C629 1.363 . S
C630 C636 1.428 . S
H631 C627 0.930 . S
H632 C629 0.929 . S
S633 N634 1.613 1_565 S
S633 N635 1.610 . S
N634 S633 1.613 1_545 S
N634 C637 1.350 . S
N635 S633 1.610 . S
N635 C636 1.351 1_565 S
C636 C630 1.428 . S
C636 N635 1.351 1_545 S
C636 C637 1.434 . S
C637 C628 1.429 . S
C637 N634 1.350 . S
C637 C636 1.434 . S
C638 C639 1.369 . S
C638 C640 1.419 . S
C638 H642 0.930 . S
C639 C638 1.369 . S
C639 C648 1.429 . S
C640 C638 1.419 . S
C640 C641 1.363 . S
C640 H643 0.929 . S
C641 C640 1.363 . S
C641 C647 1.428 . S
H642 C638 0.930 . S
H643 C640 0.929 . S
S644 N645 1.613 . S
S644 N646 1.610 1_455 S
N645 S644 1.613 . S
N645 C648 1.350 1_455 S
N646 S644 1.610 1_655 S
N646 C647 1.351 . S
C647 C641 1.428 . S
C647 N646 1.351 . S
C647 C648 1.434 . S
C648 C639 1.429 . S
C648 N645 1.350 1_655 S
C648 C647 1.434 . S
C649 C650 1.369 . S
C649 C651 1.419 . S
C649 H653 0.930 . S
C650 C649 1.369 . S
C650 C659 1.429 . S
C651 C649 1.419 . S
C651 C652 1.363 . S
C651 H654 0.929 . S
C652 C651 1.363 . S
C652 C658 1.428 . S
H653 C649 0.930 . S
H654 C651 0.929 . S
S655 N656 1.613 . S
S655 N657 1.610 . S
N656 S655 1.613 . S
N656 C659 1.350 . S
N657 S655 1.610 . S
N657 C658 1.351 . S
C658 C652 1.428 . S
C658 N657 1.351 . S
C658 C659 1.434 . S
C659 C650 1.429 . S
C659 N656 1.350 . S
C659 C658 1.434 . S
C660 C661 1.369 . S
C660 C662 1.419 . S
C660 H664 0.930 . S
C661 C660 1.369 . S
C661 C670 1.429 . S
C662 C660 1.419 . S
C662 C663 1.363 . S
C662 H665 0.929 . S
C663 C662 1.363 . S
C663 C669 1.428 . S
H664 C660 0.930 . S
H665 C662 0.929 . S
S666 N667 1.613 . S
S666 N668 1.610 1_455 S
N667 S666 1.613 . S
N667 C670 1.350 1_455 S
N668 S666 1.610 1_655 S
N668 C669 1.351 . S
C669 C663 1.428 . S
C669 N668 1.351 . S
C669 C670 1.434 . S
C670 C661 1.429 . S
C670 N667 1.350 1_655 S
C670 C669 1.434 . S
C671 C672 1.369 . S
C671 C673 1.419 . S
C671 H675 0.930 . S
C672 C671 1.369 . S
C672 C681 1.429 . S
C673 C671 1.419 . S
C673 C674 1.363 . S
C673 H676 0.929 . S
C674 C673 1.363 . S
C674 C680 1.428 . S
H675 C671 0.930 . S
H676 C673 0.929 . S
S677 N678 1.613 . S
S677 N679 1.610 . S
N678 S677 1.613 . S
N678 C681 1.350 . S
N679 S677 1.610 . S
N679 C680 1.351 . S
C680 C674 1.428 . S
C680 N679 1.351 . S
C680 C681 1.434 . S
C681 C672 1.429 . S
C681 N678 1.350 . S
C681 C680 1.434 . S
C682 C683 1.369 . S
C682 C684 1.419 . S
C682 H686 0.930 . S
C683 C682 1.369 . S
C683 C692 1.429 . S
C684 C682 1.419 . S
C684 C685 1.363 . S
C684 H687 0.929 . S
C685 C684 1.363 . S
C685 C691 1.428 . S
H686 C682 0.930 . S
H687 C684 0.929 . S
S688 N689 1.613 . S
S688 N690 1.610 1_565 S
N689 S688 1.613 . S
N689 C692 1.350 1_565 S
N690 S688 1.610 1_545 S
N690 C691 1.351 . S
C691 C685 1.428 . S
C691 N690 1.351 . S
C691 C692 1.434 . S
C692 C683 1.429 . S
C692 N689 1.350 1_545 S
C692 C691 1.434 . S
C693 C694 1.369 . S
C693 C695 1.419 . S
C693 H697 0.930 . S
C694 C693 1.369 . S
C694 C703 1.429 . S
C695 C693 1.419 . S
C695 C696 1.363 . S
C695 H698 0.929 . S
C696 C695 1.363 . S
C696 C702 1.428 . S
H697 C693 0.930 . S
H698 C695 0.929 . S
S699 N700 1.613 1_545 S
S699 N701 1.610 . S
N700 S699 1.613 1_565 S
N700 C703 1.350 . S
N701 S699 1.610 . S
N701 C702 1.351 1_545 S
C702 C696 1.428 . S
C702 N701 1.351 1_565 S
C702 C703 1.434 . S
C703 C694 1.429 . S
C703 N700 1.350 . S
C703 C702 1.434 . S
C704 C705 1.369 . S
C704 C706 1.419 . S
C704 H708 0.930 . S
C705 C704 1.369 . S
C705 C714 1.429 . S
C706 C704 1.419 . S
C706 C707 1.363 . S
C706 H709 0.929 . S
C707 C706 1.363 . S
C707 C713 1.428 . S
H708 C704 0.930 . S
H709 C706 0.929 . S
S710 N711 1.613 . S
S710 N712 1.610 . S
N711 S710 1.613 . S
N711 C714 1.350 . S
N712 S710 1.610 . S
N712 C713 1.351 . S
C713 C707 1.428 . S
C713 N712 1.351 . S
C713 C714 1.434 . S
C714 C705 1.429 . S
C714 N711 1.350 . S
C714 C713 1.434 . S
C715 C716 1.369 . S
C715 C717 1.419 . S
C715 H719 0.930 . S
C716 C715 1.369 . S
C716 C725 1.429 . S
C717 C715 1.419 . S
C717 C718 1.363 . S
C717 H720 0.929 . S
C718 C717 1.363 . S
C718 C724 1.428 . S
H719 C715 0.930 . S
H720 C717 0.929 . S
S721 N722 1.613 . S
S721 N723 1.610 . S
N722 S721 1.613 . S
N722 C725 1.350 . S
N723 S721 1.610 . S
N723 C724 1.351 . S
C724 C718 1.428 . S
C724 N723 1.351 . S
C724 C725 1.434 . S
C725 C716 1.429 . S
C725 N722 1.350 . S
C725 C724 1.434 . S
C726 C727 1.369 . S
C726 C728 1.419 . S
C726 H730 0.930 . S
C727 C726 1.369 . S
C727 C736 1.429 . S
C728 C726 1.419 . S
C728 C729 1.363 . S
C728 H731 0.929 . S
C729 C728 1.363 . S
C729 C735 1.428 . S
H730 C726 0.930 . S
H731 C728 0.929 . S
S732 N733 1.613 . S
S732 N734 1.610 . S
N733 S732 1.613 . S
N733 C736 1.350 . S
N734 S732 1.610 . S
N734 C735 1.351 . S
C735 C729 1.428 . S
C735 N734 1.351 . S
C735 C736 1.434 . S
C736 C727 1.429 . S
C736 N733 1.350 . S
C736 C735 1.434 . S
C737 C738 1.369 . S
C737 C739 1.419 . S
C737 H741 0.930 . S
C738 C737 1.369 . S
C738 C747 1.429 1_545 S
C739 C737 1.419 . S
C739 C740 1.363 1_545 S
C739 H742 0.929 . S
C740 C739 1.363 1_565 S
C740 C746 1.428 . S
H741 C737 0.930 . S
H742 C739 0.929 . S
S743 N744 1.613 . S
S743 N745 1.610 . S
N744 S743 1.613 . S
N744 C747 1.350 . S
N745 S743 1.610 . S
N745 C746 1.351 . S
C746 C740 1.428 . S
C746 N745 1.351 . S
C746 C747 1.434 . S
C747 C738 1.429 1_565 S
C747 N744 1.350 . S
C747 C746 1.434 . S
C748 C749 1.369 . S
C748 C750 1.419 . S
C748 H752 0.930 . S
C749 C748 1.369 . S
C749 C758 1.429 1_455 S
C750 C748 1.419 . S
C750 C751 1.363 1_455 S
C750 H753 0.929 . S
C751 C750 1.363 1_655 S
C751 C757 1.428 . S
H752 C748 0.930 . S
H753 C750 0.929 . S
S754 N755 1.613 . S
S754 N756 1.610 . S
N755 S754 1.613 . S
N755 C758 1.350 . S
N756 S754 1.610 . S
N756 C757 1.351 . S
C757 C751 1.428 . S
C757 N756 1.351 . S
C757 C758 1.434 . S
C758 C749 1.429 1_655 S
C758 N755 1.350 . S
C758 C757 1.434 . S
C759 C760 1.369 . S
C759 C761 1.419 . S
C759 H763 0.930 . S
C760 C759 1.369 . S
C760 C769 1.429 . S
C761 C759 1.419 . S
C761 C762 1.363 . S
C761 H764 0.929 . S
C762 C761 1.363 . S
C762 C768 1.428 . S
H763 C759 0.930 . S
H764 C761 0.929 . S
S765 N766 1.613 . S
S765 N767 1.610 . S
N766 S765 1.613 . S
N766 C769 1.350 . S
N767 S765 1.610 . S
N767 C768 1.351 . S
C768 C762 1.428 . S
C768 N767 1.351 . S
C768 C769 1.434 . S
C769 C760 1.429 . S
C769 N766 1.350 . S
C769 C768 1.434 . S
C770 C771 1.369 . S
C770 C772 1.419 . S
C770 H774 0.930 . S
C771 C770 1.369 . S
C771 C780 1.429 1_545 S
C772 C770 1.419 . S
C772 C773 1.363 1_545 S
C772 H775 0.929 . S
C773 C772 1.363 1_565 S
C773 C779 1.428 . S
H774 C770 0.930 . S
H775 C772 0.929 . S
S776 N777 1.613 . S
S776 N778 1.610 . S
N777 S776 1.613 . S
N777 C780 1.350 . S
N778 S776 1.610 . S
N778 C779 1.351 . S
C779 C773 1.428 . S
C779 N778 1.351 . S
C779 C780 1.434 . S
C780 C771 1.429 1_565 S
C780 N777 1.350 . S
C780 C779 1.434 . S
C781 C782 1.369 . S
C781 C783 1.419 . S
C781 H785 0.930 . S
C782 C781 1.369 . S
C782 C791 1.429 1_455 S
C783 C781 1.419 . S
C783 C784 1.363 1_455 S
C783 H786 0.929 . S
C784 C783 1.363 1_655 S
C784 C790 1.428 . S
H785 C781 0.930 . S
H786 C783 0.929 . S
S787 N788 1.613 . S
S787 N789 1.610 . S
N788 S787 1.613 . S
N788 C791 1.350 . S
N789 S787 1.610 . S
N789 C790 1.351 . S
C790 C784 1.428 . S
C790 N789 1.351 . S
C790 C791 1.434 . S
C791 C782 1.429 1_655 S
C791 N788 1.350 . S
C791 C790 1.434 . S
C792 C793 1.369 . S
C792 C794 1.419 . S
C792 H796 0.930 . S
C793 C792 1.369 . S
C793 C802 1.429 1_554 S
C794 C792 1.419 . S
C794 C795 1.363 1_554 S
C794 H797 0.929 . S
C795 C794 1.363 1_556 S
C795 C801 1.428 . S
H796 C792 0.930 . S
H797 C794 0.929 . S
S798 N799 1.613 . S
S798 N800 1.610 . S
N799 S798 1.613 . S
N799 C802 1.350 . S
N800 S798 1.610 . S
N800 C801 1.351 . S
C801 C795 1.428 . S
C801 N800 1.351 . S
C801 C802 1.434 . S
C802 C793 1.429 1_556 S
C802 N799 1.350 . S
C802 C801 1.434 . S
C803 C804 1.381 . S
C803 C805 1.409 1_545 S
C803 H807 0.928 1_545 S
C804 C803 1.381 . S
C804 C813 1.429 1_556 S
C805 C803 1.409 1_565 S
C805 C806 1.363 1_556 S
C805 H808 0.929 . S
C806 C805 1.363 1_554 S
C806 C812 1.428 1_565 S
H807 C803 0.928 1_565 S
H808 C805 0.929 . S
S809 N810 1.613 . S
S809 N811 1.610 . S
N810 S809 1.613 . S
N810 C813 1.350 . S
N811 S809 1.610 . S
N811 C812 1.351 . S
C812 C806 1.428 1_545 S
C812 N811 1.351 . S
C812 C813 1.434 . S
C813 C804 1.429 1_554 S
C813 N810 1.350 . S
C813 C812 1.434 . S
C814 C815 1.369 1_554 S
C814 C816 1.413 1_655 S
C814 H818 0.930 . S
C815 C814 1.369 1_556 S
C815 C824 1.429 1_655 S
C816 C814 1.413 1_455 S
C816 C817 1.371 . S
C816 H819 0.928 1_455 S
C817 C816 1.371 . S
C817 C823 1.428 1_554 S
H818 C814 0.930 . S
H819 C816 0.928 1_655 S
S820 N821 1.613 . S
S820 N822 1.610 . S
N821 S820 1.613 . S
N821 C824 1.350 . S
N822 S820 1.610 . S
N822 C823 1.351 . S
C823 C817 1.428 1_556 S
C823 N822 1.351 . S
C823 C824 1.434 . S
C824 C815 1.429 1_455 S
C824 N821 1.350 . S
C824 C823 1.434 . S
C825 C826 1.369 . S
C825 C827 1.419 . S
C825 H829 0.930 . S
C826 C825 1.369 . S
C826 C835 1.429 1_554 S
C827 C825 1.419 . S
C827 C828 1.363 1_554 S
C827 H830 0.929 . S
C828 C827 1.363 1_556 S
C828 C834 1.428 . S
H829 C825 0.930 . S
H830 C827 0.929 . S
S831 N832 1.613 . S
S831 N833 1.610 . S
N832 S831 1.613 . S
N832 C835 1.350 . S
N833 S831 1.610 . S
N833 C834 1.351 . S
C834 C828 1.428 . S
C834 N833 1.351 . S
C834 C835 1.434 . S
C835 C826 1.429 1_556 S
C835 N832 1.350 . S
C835 C834 1.434 . S
C836 C837 1.369 . S
C836 C838 1.419 1_564 S
C836 H840 0.930 . S
C837 C836 1.369 . S
C837 C846 1.429 . S
C838 C836 1.419 1_546 S
C838 C839 1.363 . S
C838 H841 0.929 . S
C839 C838 1.363 . S
C839 C845 1.428 . S
H840 C836 0.930 . S
H841 C838 0.929 . S
S842 N843 1.613 1_556 S
S842 N844 1.610 1_565 S
N843 S842 1.613 1_554 S
N843 C846 1.350 . S
N844 S842 1.610 1_545 S
N844 C845 1.351 . S
C845 C839 1.428 . S
C845 N844 1.351 . S
C845 C846 1.434 1_546 S
C846 C837 1.429 . S
C846 N843 1.350 . S
C846 C845 1.434 1_564 S
C847 C848 1.369 . S
C847 C849 1.419 1_655 S
C847 H851 0.930 . S
C848 C847 1.369 . S
C848 C857 1.429 1_556 S
C849 C847 1.419 1_455 S
C849 C850 1.363 1_556 S
C849 H852 0.929 . S
C850 C849 1.363 1_554 S
C850 C856 1.428 . S
H851 C847 0.930 . S
H852 C849 0.929 . S
S853 N854 1.613 . S
S853 N855 1.610 1_655 S
N854 S853 1.613 . S
N854 C857 1.350 . S
N855 S853 1.610 1_455 S
N855 C856 1.351 . S
C856 C850 1.428 . S
C856 N855 1.351 . S
C856 C857 1.434 1_455 S
C857 C848 1.429 1_554 S
C857 N854 1.350 . S
C857 C856 1.434 1_655 S
C858 C859 1.369 . S
C858 C860 1.419 . S
C858 H862 0.930 . S
C859 C858 1.369 . S
C859 C868 1.429 . S
C860 C858 1.419 . S
C860 C861 1.363 . S
C860 H863 0.929 . S
C861 C860 1.363 . S
C861 C867 1.428 . S
H862 C858 0.930 . S
H863 C860 0.929 . S
S864 N865 1.613 . S
S864 N866 1.610 . S
N865 S864 1.613 . S
N865 C868 1.350 1_455 S
N866 S864 1.610 . S
N866 C867 1.351 1_455 S
C867 C861 1.428 . S
C867 N866 1.351 1_655 S
C867 C868 1.434 . S
C868 C859 1.429 . S
C868 N865 1.350 1_655 S
C868 C867 1.434 . S
C869 C870 1.369 . S
C869 C871 1.419 . S
C869 H873 0.930 . S
C870 C869 1.369 . S
C870 C879 1.429 . S
C871 C869 1.419 . S
C871 C872 1.363 . S
C871 H874 0.929 . S
C872 C871 1.363 . S
C872 C878 1.428 . S
H873 C869 0.930 . S
H874 C871 0.929 . S
S875 N876 1.613 . S
S875 N877 1.610 . S
N876 S875 1.613 . S
N876 C879 1.350 . S
N877 S875 1.610 . S
N877 C878 1.351 . S
C878 C872 1.428 . S
C878 N877 1.351 . S
C878 C879 1.434 . S
C879 C870 1.429 . S
C879 N876 1.350 . S
C879 C878 1.434 . S
C880 C881 1.369 . S
C880 C882 1.419 . S
C880 H884 0.930 1_545 S
C881 C880 1.369 . S
C881 C890 1.429 . S
C882 C880 1.419 . S
C882 C883 1.363 . S
C882 H885 0.929 . S
C883 C882 1.363 . S
C883 C889 1.428 . S
H884 C880 0.930 1_565 S
H885 C882 0.929 . S
S886 N887 1.613 . S
S886 N888 1.610 . S
N887 S886 1.613 . S
N887 C890 1.350 . S
N888 S886 1.610 . S
N888 C889 1.351 . S
C889 C883 1.428 . S
C889 N888 1.351 . S
C889 C890 1.434 . S
C890 C881 1.429 . S
C890 N887 1.350 . S
C890 C889 1.434 . S
C891 C892 1.369 . S
C891 C893 1.419 . S
C891 H895 0.930 . S
C892 C891 1.369 . S
C892 C901 1.429 . S
C893 C891 1.419 . S
C893 C894 1.363 . S
C893 H896 0.929 . S
C894 C893 1.363 . S
C894 C900 1.428 . S
H895 C891 0.930 . S
H896 C893 0.929 . S
S897 N898 1.613 . S
S897 N899 1.610 . S
N898 S897 1.613 . S
N898 C901 1.350 . S
N899 S897 1.610 . S
N899 C900 1.351 . S
C900 C894 1.428 . S
C900 N899 1.351 . S
C900 C901 1.434 . S
C901 C892 1.429 . S
C901 N898 1.350 . S
C901 C900 1.434 . S
C902 C903 1.369 . S
C902 C904 1.419 . S
C902 H906 0.930 1_655 S
C903 C902 1.369 . S
C903 C912 1.429 . S
C904 C902 1.419 . S
C904 C905 1.363 . S
C904 H907 0.929 . S
C905 C904 1.363 . S
C905 C911 1.428 . S
H906 C902 0.930 1_455 S
H907 C904 0.929 . S
S908 N909 1.613 . S
S908 N910 1.610 . S
N909 S908 1.613 . S
N909 C912 1.350 . S
N910 S908 1.610 . S
N910 C911 1.351 . S
C911 C905 1.428 . S
C911 N910 1.351 . S
C911 C912 1.434 . S
C912 C903 1.429 . S
C912 N909 1.350 . S
C912 C911 1.434 . S
C913 C914 1.369 . S
C913 C915 1.419 . S
C913 H917 0.930 . S
C914 C913 1.369 . S
C914 C923 1.429 . S
C915 C913 1.419 . S
C915 C916 1.363 . S
C915 H918 0.929 . S
C916 C915 1.363 . S
C916 C922 1.428 . S
H917 C913 0.930 . S
H918 C915 0.929 . S
S919 N920 1.613 . S
S919 N921 1.610 . S
N920 S919 1.613 . S
N920 C923 1.350 . S
N921 S919 1.610 . S
N921 C922 1.351 . S
C922 C916 1.428 . S
C922 N921 1.351 . S
C922 C923 1.434 . S
C923 C914 1.429 . S
C923 N920 1.350 . S
C923 C922 1.434 . S
C924 C925 1.369 . S
C924 C926 1.419 . S
C924 H928 0.930 . S
C925 C924 1.369 . S
C925 C934 1.429 . S
C926 C924 1.419 . S
C926 C927 1.363 . S
C926 H929 0.929 . S
C927 C926 1.363 . S
C927 C933 1.428 . S
H928 C924 0.930 . S
H929 C926 0.929 . S
S930 N931 1.613 1_545 S
S930 N932 1.610 . S
N931 S930 1.613 1_565 S
N931 C934 1.350 . S
N932 S930 1.610 . S
N932 C933 1.351 1_545 S
C933 C927 1.428 . S
C933 N932 1.351 1_565 S
C933 C934 1.434 . S
C934 C925 1.429 . S
C934 N931 1.350 . S
C934 C933 1.434 . S
C935 C936 1.369 . S
C935 C937 1.419 . S
C935 H939 0.930 . S
C936 C935 1.369 . S
C936 C945 1.429 . S
C937 C935 1.419 . S
C937 C938 1.363 . S
C937 H940 0.929 . S
C938 C937 1.363 . S
C938 C944 1.428 . S
H939 C935 0.930 . S
H940 C937 0.929 . S
S941 N942 1.613 . S
S941 N943 1.610 . S
N942 S941 1.613 . S
N942 C945 1.350 . S
N943 S941 1.610 . S
N943 C944 1.351 . S
C944 C938 1.428 . S
C944 N943 1.351 . S
C944 C945 1.434 . S
C945 C936 1.429 . S
C945 N942 1.350 . S
C945 C944 1.434 . S
C946 C947 1.369 . S
C946 C948 1.419 . S
C946 H950 0.930 . S
C947 C946 1.369 . S
C947 C956 1.429 . S
C948 C946 1.419 . S
C948 C949 1.363 . S
C948 H951 0.929 . S
C949 C948 1.363 . S
C949 C955 1.428 . S
H950 C946 0.930 . S
H951 C948 0.929 . S
S952 N953 1.613 . S
S952 N954 1.610 . S
N953 S952 1.613 . S
N953 C956 1.350 . S
N954 S952 1.610 . S
N954 C955 1.351 . S
C955 C949 1.428 . S
C955 N954 1.351 . S
C955 C956 1.434 . S
C956 C947 1.429 . S
C956 N953 1.350 . S
C956 C955 1.434 . S
C957 C958 1.369 . S
C957 C959 1.419 . S
C957 H961 0.930 . S
C958 C957 1.369 . S
C958 C967 1.429 . S
C959 C957 1.419 . S
C959 C960 1.363 . S
C959 H962 0.929 . S
C960 C959 1.363 . S
C960 C966 1.428 . S
H961 C957 0.930 . S
H962 C959 0.929 . S
S963 N964 1.613 . S
S963 N965 1.610 . S
N964 S963 1.613 . S
N964 C967 1.350 . S
N965 S963 1.610 . S
N965 C966 1.351 . S
C966 C960 1.428 . S
C966 N965 1.351 . S
C966 C967 1.434 . S
C967 C958 1.429 . S
C967 N964 1.350 . S
C967 C966 1.434 . S
C968 C969 1.369 . S
C968 C970 1.419 . S
C968 H972 0.930 . S
C969 C968 1.369 . S
C969 C978 1.429 . S
C970 C968 1.419 . S
C970 C971 1.363 . S
C970 H973 0.929 . S
C971 C970 1.363 . S
C971 C977 1.428 . S
H972 C968 0.930 . S
H973 C970 0.929 . S
S974 N975 1.613 . S
S974 N976 1.610 . S
N975 S974 1.613 . S
N975 C978 1.350 . S
N976 S974 1.610 . S
N976 C977 1.351 . S
C977 C971 1.428 . S
C977 N976 1.351 . S
C977 C978 1.434 . S
C978 C969 1.429 . S
C978 N975 1.350 . S
C978 C977 1.434 . S
C979 C980 1.369 . S
C979 C981 1.419 . S
C979 H983 0.930 . S
C980 C979 1.369 . S
C980 C989 1.429 . S
C981 C979 1.419 . S
C981 C982 1.363 . S
C981 H984 0.929 . S
C982 C981 1.363 . S
C982 C988 1.428 . S
H983 C979 0.930 . S
H984 C981 0.929 . S
S985 N986 1.613 . S
S985 N987 1.610 . S
N986 S985 1.613 . S
N986 C989 1.350 . S
N987 S985 1.610 . S
N987 C988 1.351 . S
C988 C982 1.428 . S
C988 N987 1.351 . S
C988 C989 1.434 . S
C989 C980 1.429 . S
C989 N986 1.350 . S
C989 C988 1.434 . S
C397 C59 1.192 . S
C399 C8 1.203 . S
C408 C30 1.202 . S
C410 C21 1.194 . S
C419 C43 1.196 . S
C421 C54 1.204 . S
C430 C84 1.206 . S
C432 C103 1.198 . S
C441 C125 1.196 . S
C443 C98 1.206 . S
C452 C120 1.202 . S
C454 C73 1.194 . S
C463 C191 1.196 1_565 S
C465 C140 1.204 . S
C474 C153 1.193 1_455 S
C476 C172 1.204 1_565 S
C485 C161 1.198 . S
C487 C186 1.206 1_455 S
C496 C235 1.194 . S
C498 C208 1.205 . S
C507 C230 1.202 . S
C509 C257 1.193 . S
C518 C213 1.196 . S
C520 C252 1.207 . S
C529 C274 1.201 . S
C531 C323 1.193 . S
C540 C279 1.194 . S
C542 C294 1.205 . S
C551 C307 1.198 . S
C553 C318 1.207 . S
C562 C359 1.201 1_655 S
C564 C348 1.208 . S
C573 C389 1.197 . S
C575 C370 1.207 1_545 S
C584 C384 1.204 1_655 S
C586 C337 1.197 1_545 S
C595 C18 1.262 . S
C597 C206 1.264 . S
C606 C40 1.270 . S
C608 C228 1.270 . S
C617 C250 1.270 . S
C619 C52 1.270 . S
C628 C76 1.266 . S
C630 C272 1.269 . S
C639 C304 1.271 . S
C641 C96 1.269 . S
C650 C316 1.267 . S
C652 C118 1.264 . S
C661 C293 1.325 . S
C663 C131 1.325 . S
C672 C81 1.319 . S
C674 C329 1.319 . S
C683 C285 1.327 . S
C685 C109 1.326 . S
C694 C29 1.326 . S
C696 C263 1.324 . S
C705 C65 1.321 . S
C707 C219 1.321 . S
C716 C241 1.327 . S
C718 C7 1.325 . S
C727 C340 1.271 . S
C729 C150 1.268 . S
C738 C164 1.262 . S
C740 C362 1.266 . S
C749 C382 1.265 . S
C751 C184 1.268 . S
C760 C395 1.326 . S
C762 C169 1.325 . S
C771 C197 1.320 . S
C773 C345 1.320 . S
C782 C367 1.326 . S
C784 C139 1.324 . S
C793 C15 1.410 . S
C795 C87 1.411 . S
C804 C95 1.409 . S
C806 C37 1.412 . S
C815 C117 1.412 . S
C817 C51 1.410 . S
C826 C32 1.316 . S
C828 C128 1.317 . S
C837 C62 1.318 . S
C839 C74 1.319 . S
C848 C106 1.316 . S
C850 C10 1.316 . S
C859 C147 1.410 . S
C861 C205 1.411 . S
C870 C227 1.412 . S
C872 C175 1.410 . S
C881 C249 1.411 . S
C883 C183 1.411 . S
C892 C162 1.318 . S
C894 C260 1.317 . S
C903 C216 1.319 . S
C905 C194 1.318 . S
C914 C142 1.317 . S
C916 C238 1.316 . S
C925 C351 1.411 . S
C927 C271 1.410 . S
C936 C373 1.409 . S
C938 C301 1.412 . S
C947 C381 1.409 . S
C949 C315 1.412 . S
C958 C296 1.319 . S
C960 C392 1.317 . S
C969 C326 1.317 . S
C971 C338 1.316 . S
C980 C360 1.319 . S
C982 C282 1.317 . S
