# Generated by pormake.
# Topology wfs, (7)-cn, num edge types: 1
# Building blocks:
#     Node 0, Type 0, BuildingBlock: NUHQUE_clean_sbu_2, # of connection points: 7
#     Node 1, Type 0, BuildingBlock: NUHQUE_clean_sbu_2, # of connection points: 7
#     Node 2, Type 0, BuildingBlock: NUHQUE_clean_sbu_2, # of connection points: 7
#     Node 3, Type 0, BuildingBlock: NUHQUE_clean_sbu_2, # of connection points: 7
#     Node 4, Type 0, BuildingBlock: NUHQUE_clean_sbu_2, # of connection points: 7
#     Node 5, Type 0, BuildingBlock: NUHQUE_clean_sbu_2, # of connection points: 7
#     Node 6, Type 0, BuildingBlock: NUHQUE_clean_sbu_2, # of connection points: 7
#     Node 7, Type 0, BuildingBlock: NUHQUE_clean_sbu_2, # of connection points: 7
#     Edge 8, Type (0, 0), BuildingBlock: CIFDUS_clean_linker_0, # of connection points: 2
#     Edge 9, Type (0, 0), BuildingBlock: CIFDUS_clean_linker_0, # of connection points: 2
#     Edge 10, Type (0, 0), BuildingBlock: CIFDUS_clean_linker_0, # of connection points: 2
#     Edge 11, Type (0, 0), BuildingBlock: CIFDUS_clean_linker_0, # of connection points: 2
#     Edge 12, Type (0, 0), BuildingBlock: CIFDUS_clean_linker_0, # of connection points: 2
#     Edge 13, Type (0, 0), BuildingBlock: CIFDUS_clean_linker_0, # of connection points: 2
#     Edge 14, Type (0, 0), BuildingBlock: CIFDUS_clean_linker_0, # of connection points: 2
#     Edge 15, Type (0, 0), BuildingBlock: CIFDUS_clean_linker_0, # of connection points: 2
#     Edge 16, Type (0, 0), BuildingBlock: CIFDUS_clean_linker_0, # of connection points: 2
#     Edge 17, Type (0, 0), BuildingBlock: CIFDUS_clean_linker_0, # of connection points: 2
#     Edge 18, Type (0, 0), BuildingBlock: CIFDUS_clean_linker_0, # of connection points: 2
#     Edge 19, Type (0, 0), BuildingBlock: CIFDUS_clean_linker_0, # of connection points: 2
#     Edge 20, Type (0, 0), BuildingBlock: CIFDUS_clean_linker_0, # of connection points: 2
#     Edge 21, Type (0, 0), BuildingBlock: CIFDUS_clean_linker_0, # of connection points: 2
#     Edge 22, Type (0, 0), BuildingBlock: CIFDUS_clean_linker_0, # of connection points: 2
#     Edge 23, Type (0, 0), BuildingBlock: CIFDUS_clean_linker_0, # of connection points: 2
#     Edge 24, Type (0, 0), BuildingBlock: CIFDUS_clean_linker_0, # of connection points: 2
#     Edge 25, Type (0, 0), BuildingBlock: CIFDUS_clean_linker_0, # of connection points: 2
#     Edge 26, Type (0, 0), BuildingBlock: CIFDUS_clean_linker_0, # of connection points: 2
#     Edge 27, Type (0, 0), BuildingBlock: CIFDUS_clean_linker_0, # of connection points: 2
#     Edge 28, Type (0, 0), BuildingBlock: CIFDUS_clean_linker_0, # of connection points: 2
#     Edge 29, Type (0, 0), BuildingBlock: CIFDUS_clean_linker_0, # of connection points: 2
#     Edge 30, Type (0, 0), BuildingBlock: CIFDUS_clean_linker_0, # of connection points: 2
#     Edge 31, Type (0, 0), BuildingBlock: CIFDUS_clean_linker_0, # of connection points: 2
#     Edge 32, Type (0, 0), BuildingBlock: CIFDUS_clean_linker_0, # of connection points: 2
#     Edge 33, Type (0, 0), BuildingBlock: CIFDUS_clean_linker_0, # of connection points: 2
#     Edge 34, Type (0, 0), BuildingBlock: CIFDUS_clean_linker_0, # of connection points: 2
#     Edge 35, Type (0, 0), BuildingBlock: CIFDUS_clean_linker_0, # of connection points: 2
# Relax obj value: 0.236
# Max RMSD: 0.187
# Mean RMSD: 0.187
data_MOF--net-wfs--node1-NUHQUE_clean_sbu_2--edge1-CIFDUS_clean_linker_0
_symmetry_space_group_name_H-M    P1
_symmetry_Int_Tables_number       1
_symmetry_cell_setting            triclinic
loop_
_symmetry_equiv_pos_as_xyz
'x, y, z'
_cell_length_a     27.819405
_cell_length_b     33.704776
_cell_length_c     27.182916
_cell_angle_alpha  90.060433
_cell_angle_beta   89.961609
_cell_angle_gamma 89.630888
loop_
_atom_site_label
_atom_site_type_symbol
_atom_site_fract_x
_atom_site_fract_y
_atom_site_fract_z
_atom_type_partial_charge
O0 O 0.21571 0.07413 0.25843 0.0
Tb1 Tb 0.19792 0.10678 0.19209 0.0
Eu2 Eu 0.2115 0.18425 0.11196 0.0
C3 C 0.25361 0.05063 0.26013 0.0
O4 O 0.28583 0.05279 0.22494 0.0
C5 C 0.25275 0.09957 0.09822 0.0
O6 O 0.16546 0.21484 0.05504 0.0
C7 C 0.29317 0.21691 0.13447 0.0
C8 C 0.12909 0.19428 0.03754 0.0
O9 O 0.12553 0.15682 0.05031 0.0
C10 C 0.14129 0.18669 0.2092 0.0
C11 C 0.31618 0.25239 0.15568 0.0
C12 C 0.36468 0.25082 0.17119 0.0
C13 C 0.38824 0.28544 0.18747 0.0
C14 C 0.36237 0.32134 0.18814 0.0
C15 C 0.3138 0.3229 0.17415 0.0
C16 C 0.2908 0.28838 0.1582 0.0
O17 O 0.26096 0.10362 0.14549 0.0
O18 O 0.2234 0.12477 0.07711 0.0
O19 O 0.1637 0.05029 0.17708 0.0
O20 O 0.13589 0.10214 0.14258 0.0
C21 C 0.13158 0.06383 0.1468 0.0
O22 O 0.15023 0.19835 0.16384 0.0
O23 O 0.16537 0.15737 0.23026 0.0
O24 O 0.27156 0.2216 0.09169 0.0
O25 O 0.26964 0.19342 0.16473 0.0
H26 H 0.38424 0.22292 0.16973 0.0
H27 H 0.37955 0.34804 0.20158 0.0
H28 H 0.25343 0.28968 0.14692 0.0
O29 O 0.22894 0.95729 0.75895 0.0
Tb30 Tb 0.21324 0.92109 0.82313 0.0
Eu31 Eu 0.23356 0.82822 0.89536 0.0
C32 C 0.26553 0.98186 0.75787 0.0
O33 O 0.29923 0.97855 0.79141 0.0
C34 C 0.26829 0.9138 0.91759 0.0
O35 O 0.18589 0.78483 0.93463 0.0
C36 C 0.31284 0.79639 0.86363 0.0
C37 C 0.15898 0.79697 0.97152 0.0
O38 O 0.17007 0.83026 0.99382 0.0
C39 C 0.15573 0.84367 0.80466 0.0
C40 C 0.33641 0.76088 0.84269 0.0
C41 C 0.3862 0.76194 0.8332 0.0
C42 C 0.41117 0.72747 0.81852 0.0
C43 C 0.38548 0.69209 0.81288 0.0
C44 C 0.33568 0.69062 0.82141 0.0
C45 C 0.31116 0.72526 0.83623 0.0
O46 O 0.27539 0.91249 0.86978 0.0
O47 O 0.24559 0.88421 0.93829 0.0
O48 O 0.18291 0.97734 0.8481 0.0
O49 O 0.14881 0.92401 0.86974 0.0
C50 C 0.14752 0.96256 0.87301 0.0
O51 O 0.16714 0.82842 0.84773 0.0
O52 O 0.18118 0.87162 0.78316 0.0
O53 O 0.29745 0.79313 0.90932 0.0
O54 O 0.28427 0.81782 0.83514 0.0
H55 H 0.40572 0.78935 0.83849 0.0
H56 H 0.40417 0.6657 0.80003 0.0
H57 H 0.2729 0.72434 0.84371 0.0
O58 O 0.79109 0.94828 0.23431 0.0
Tb59 Tb 0.8171 0.91479 0.17142 0.0
Eu60 Eu 0.80781 0.82556 0.09976 0.0
C61 C 0.75716 0.97533 0.22925 0.0
O62 O 0.73278 0.97673 0.18793 0.0
C63 C 0.77169 0.90974 0.07133 0.0
O64 O 0.85579 0.78009 0.06367 0.0
C65 C 0.72708 0.79833 0.13287 0.0
C66 C 0.88166 0.79034 0.02531 0.0
O67 O 0.86777 0.8211 0.99921 0.0
C68 C 0.87851 0.84021 0.19408 0.0
C69 C 0.70296 0.7645 0.15629 0.0
C70 C 0.65349 0.76726 0.16707 0.0
C71 C 0.62824 0.7339 0.1839 0.0
C72 C 0.65313 0.69799 0.19034 0.0
C73 C 0.70274 0.69518 0.18115 0.0
C74 C 0.72761 0.7286 0.16416 0.0
O75 O 0.75971 0.90989 0.11811 0.0
O76 O 0.79833 0.88052 0.05447 0.0
O77 O 0.8499 0.97197 0.1563 0.0
O78 O 0.88335 0.91986 0.12819 0.0
C79 C 0.88559 0.95839 0.13045 0.0
O80 O 0.87266 0.82685 0.14912 0.0
O81 O 0.84856 0.86613 0.21385 0.0
O82 O 0.74267 0.79229 0.08762 0.0
O83 O 0.75626 0.82005 0.15999 0.0
H84 H 0.63441 0.795 0.16116 0.0
H85 H 0.63404 0.6724 0.20435 0.0
H86 H 0.76571 0.72646 0.15607 0.0
O87 O 0.80796 0.07863 0.78169 0.0
Tb88 Tb 0.83082 0.11227 0.8456 0.0
Eu89 Eu 0.81848 0.20434 0.90834 0.0
C90 C 0.77377 0.05196 0.78466 0.0
O91 O 0.74713 0.05062 0.82448 0.0
C92 C 0.78411 0.12218 0.94363 0.0
O93 O 0.8313 0.26264 0.94704 0.0
C94 C 0.74196 0.2147 0.85451 0.0
C95 C 0.87239 0.27703 0.96321 0.0
O96 O 0.87218 0.31344 0.98055 0.0
C97 C 0.89253 0.18625 0.82073 0.0
C98 C 0.7176 0.24901 0.83196 0.0
C99 C 0.67185 0.24448 0.81058 0.0
C100 C 0.64623 0.2779 0.79389 0.0
C101 C 0.6668 0.31552 0.79833 0.0
C102 C 0.71262 0.32035 0.81866 0.0
C103 C 0.73824 0.28697 0.83518 0.0
O104 O 0.77236 0.12053 0.89694 0.0
O105 O 0.81169 0.15133 0.95818 0.0
O106 O 0.86167 0.05494 0.86546 0.0
O107 O 0.89817 0.10723 0.88715 0.0
C108 C 0.89902 0.06859 0.88834 0.0
O109 O 0.88787 0.20088 0.86545 0.0
O110 O 0.86179 0.16033 0.80283 0.0
O111 O 0.74139 0.21422 0.90275 0.0
O112 O 0.78396 0.20472 0.83619 0.0
H113 H 0.65569 0.21535 0.80832 0.0
H114 H 0.64715 0.34132 0.78515 0.0
H115 H 0.7734 0.29062 0.85172 0.0
O116 O 0.74973 0.55139 0.7362 0.0
Tb117 Tb 0.72233 0.5915 0.68032 0.0
Eu118 Eu 0.72927 0.69097 0.62654 0.0
C119 C 0.78843 0.52959 0.72869 0.0
O120 O 0.816 0.53746 0.69076 0.0
C121 C 0.76967 0.61039 0.58534 0.0
O122 O 0.66412 0.71579 0.58739 0.0
C123 C 0.80445 0.73638 0.6274 0.0
C124 C 0.62151 0.70308 0.60131 0.0
O125 O 0.61885 0.6764 0.63627 0.0
C126 C 0.67348 0.6687 0.73145 0.0
C127 C 0.82653 0.77099 0.65205 0.0
C128 C 0.8763 0.77041 0.66249 0.0
C129 C 0.89842 0.80345 0.68436 0.0
C130 C 0.87074 0.83739 0.69412 0.0
C131 C 0.8215 0.8387 0.68351 0.0
C132 C 0.79918 0.80519 0.66331 0.0
O133 O 0.78119 0.60503 0.63158 0.0
O134 O 0.74021 0.63957 0.57474 0.0
O135 O 0.6925 0.53537 0.65516 0.0
O136 O 0.6578 0.58897 0.63413 0.0
C137 C 0.6567 0.55042 0.63075 0.0
O138 O 0.68906 0.69468 0.6988 0.0
O139 O 0.68543 0.63065 0.732 0.0
O140 O 0.76639 0.7431 0.59973 0.0
O141 O 0.80202 0.70302 0.65255 0.0
H142 H 0.89757 0.74417 0.6542 0.0
H143 H 0.88771 0.86307 0.71063 0.0
H144 H 0.76099 0.80612 0.65548 0.0
O145 O 0.72443 0.44982 0.2659 0.0
Tb146 Tb 0.70333 0.41453 0.3288 0.0
Eu147 Eu 0.70836 0.32992 0.39823 0.0
C148 C 0.75583 0.47853 0.27076 0.0
O149 O 0.78088 0.48073 0.31159 0.0
C150 C 0.75269 0.4122 0.42736 0.0
O151 O 0.65851 0.29947 0.45109 0.0
C152 C 0.78809 0.29251 0.37744 0.0
C153 C 0.62472 0.32172 0.47126 0.0
O154 O 0.62501 0.36004 0.46243 0.0
C155 C 0.64659 0.339 0.29745 0.0
C156 C 0.81061 0.25753 0.3536 0.0
C157 C 0.86096 0.25664 0.34593 0.0
C158 C 0.88386 0.22179 0.32891 0.0
C159 C 0.85584 0.18835 0.3191 0.0
C160 C 0.80582 0.18902 0.32559 0.0
C161 C 0.78316 0.22379 0.34245 0.0
O162 O 0.76282 0.4149 0.38032 0.0
O163 O 0.72236 0.38516 0.44217 0.0
O164 O 0.66751 0.47042 0.34549 0.0
O165 O 0.63492 0.41689 0.36911 0.0
C166 C 0.63103 0.45546 0.36846 0.0
O167 O 0.64868 0.32414 0.34217 0.0
O168 O 0.6773 0.36618 0.2826 0.0
O169 O 0.7623 0.28575 0.41719 0.0
O170 O 0.76977 0.32049 0.34907 0.0
H171 H 0.88237 0.28243 0.35476 0.0
H172 H 0.87314 0.16157 0.30544 0.0
H173 H 0.7446 0.22421 0.34829 0.0
O174 O 0.3186 0.44723 0.7336 0.0
Tb175 Tb 0.33455 0.41267 0.66807 0.0
Eu176 Eu 0.31387 0.32523 0.5995 0.0
C177 C 0.28323 0.47332 0.73443 0.0
O178 O 0.25137 0.47302 0.69883 0.0
C179 C 0.28138 0.41083 0.57312 0.0
O180 O 0.32217 0.26946 0.55422 0.0
C181 C 0.23882 0.31161 0.65402 0.0
C182 C 0.36204 0.25342 0.53691 0.0
O183 O 0.35899 0.2186 0.51539 0.0
C184 C 0.38979 0.33393 0.68756 0.0
C185 C 0.21761 0.27602 0.67649 0.0
C186 C 0.17058 0.27794 0.6954 0.0
C187 C 0.14799 0.24344 0.71242 0.0
C188 C 0.17295 0.20724 0.7109 0.0
C189 C 0.22015 0.20485 0.69303 0.0
C190 C 0.24262 0.23948 0.676 0.0
O191 O 0.2726 0.41008 0.6205 0.0
O192 O 0.30653 0.38137 0.55437 0.0
O193 O 0.36921 0.46794 0.6476 0.0
O194 O 0.40091 0.4137 0.62414 0.0
C195 C 0.40466 0.4522 0.62328 0.0
O196 O 0.38395 0.32155 0.64187 0.0
O197 O 0.36087 0.36073 0.70728 0.0
O198 O 0.2376 0.31252 0.60583 0.0
O199 O 0.28 0.32358 0.67198 0.0
H200 H 0.15119 0.30595 0.69569 0.0
H201 H 0.15581 0.18077 0.72508 0.0
H202 H 0.27888 0.23787 0.66147 0.0
O203 O 0.28985 0.56831 0.2314 0.0
Tb204 Tb 0.31176 0.60169 0.29547 0.0
Eu205 Eu 0.30701 0.68405 0.37396 0.0
C206 C 0.25346 0.54374 0.23302 0.0
O207 O 0.22332 0.54595 0.27014 0.0
C208 C 0.2668 0.59874 0.39387 0.0
O209 O 0.36429 0.70951 0.42339 0.0
C210 C 0.22679 0.72382 0.36933 0.0
C211 C 0.40889 0.69855 0.41388 0.0
O212 O 0.41697 0.67257 0.37879 0.0
C213 C 0.3631 0.68139 0.26669 0.0
C214 C 0.20432 0.76083 0.35101 0.0
C215 C 0.15532 0.76086 0.33734 0.0
C216 C 0.13279 0.79602 0.32112 0.0
C217 C 0.1594 0.83118 0.32042 0.0
C218 C 0.20799 0.83171 0.33404 0.0
C219 C 0.23064 0.7963 0.34858 0.0
O220 O 0.25349 0.60194 0.34777 0.0
O221 O 0.29716 0.62492 0.41107 0.0
O222 O 0.34696 0.54502 0.30924 0.0
O223 O 0.37793 0.59731 0.33911 0.0
C224 C 0.3817 0.55881 0.33592 0.0
O225 O 0.35746 0.69712 0.31072 0.0
O226 O 0.33812 0.65068 0.25128 0.0
O227 O 0.2578 0.72722 0.40571 0.0
O228 O 0.23931 0.6969 0.33641 0.0
H229 H 0.13507 0.73351 0.33862 0.0
H230 H 0.14224 0.85848 0.30836 0.0
H231 H 0.26832 0.79652 0.35873 0.0
H232 H 0.30739 0.98305 0.25257 0.0
H233 H 0.1953 0.0383 0.33922 0.0
H234 H 0.17714 0.97467 0.3773 0.0
H235 H 0.18295 0.90212 0.37422 0.0
H236 H 0.29112 0.84603 0.28392 0.0
H237 H 0.32179 0.91117 0.25982 0.0
C238 C 0.27991 0.98143 0.28081 0.0
C239 C 0.25209 0.01527 0.29233 0.0
C240 C 0.26858 0.94443 0.30143 0.0
C241 C 0.21681 0.01263 0.32918 0.0
C242 C 0.20624 0.9762 0.35084 0.0
C243 C 0.21401 0.90428 0.35022 0.0
C244 C 0.23439 0.86957 0.33023 0.0
C245 C 0.23028 0.94168 0.33542 0.0
C246 C 0.27492 0.87245 0.29969 0.0
C247 C 0.29211 0.90968 0.28558 0.0
H248 H 0.1238 0.8228 0.71164 0.0
H249 H 0.07637 0.84668 0.85998 0.0
H250 H 0.99364 0.83336 0.83687 0.0
H251 H 0.9339 0.81714 0.77461 0.0
H252 H 0.97813 0.79134 0.62617 0.0
H253 H 0.06264 0.80222 0.64904 0.0
C254 C 0.0952 0.82507 0.73862 0.0
C255 C 0.10619 0.8357 0.78746 0.0
C256 C 0.04715 0.81666 0.72518 0.0
C257 C 0.06889 0.83824 0.82227 0.0
C258 C 0.02149 0.83068 0.80912 0.0
C259 C 0.96218 0.81344 0.74742 0.0
C260 C 0.94996 0.80353 0.69885 0.0
C261 C 1.01017 0.81998 0.76078 0.0
C262 C 0.98681 0.79864 0.66393 0.0
C263 C 0.03502 0.80526 0.67694 0.0
H264 H 0.81969 0.11591 0.36321 0.0
H265 H 0.7321 0.18113 0.2603 0.0
H266 H 0.70175 0.11878 0.22606 0.0
H267 H 0.71165 0.0465 0.21643 0.0
H268 H 0.80257 0.982 0.3177 0.0
H269 H 0.81936 0.04316 0.36221 0.0
C270 C 0.79301 0.11632 0.33411 0.0
C271 C 0.77845 0.15277 0.31377 0.0
C272 C 0.7768 0.08052 0.31401 0.0
C273 C 0.74366 0.15329 0.27643 0.0
C274 C 0.7267 0.11767 0.25664 0.0
C275 C 0.73409 0.0456 0.24902 0.0
C276 C 0.75659 0.00979 0.2631 0.0
C277 C 0.74466 0.08114 0.27376 0.0
C278 C 0.78531 1.0092 0.30563 0.0
C279 C 0.79513 0.04422 0.33102 0.0
H280 H 0.95949 0.24316 0.84052 0.0
H281 H 0.9212 0.15398 0.73339 0.0
H282 H 0.99486 0.16685 0.68794 0.0
H283 H 0.07331 0.19913 0.68221 0.0
H284 H 0.11263 0.28827 0.78819 0.0
H285 H 0.0351 0.28022 0.83011 0.0
C286 C 0.96698 0.22683 0.80694 0.0
C287 C 0.93491 0.19735 0.79074 0.0
C288 C 1.00961 0.23437 0.78078 0.0
C289 C 0.94514 0.17673 0.74693 0.0
C290 C 0.98737 0.184 0.72085 0.0
C291 C 0.06444 0.21722 0.71403 0.0
C292 C 0.09844 0.24408 0.73236 0.0
C293 C 0.02025 0.21213 0.73796 0.0
C294 C 0.08673 0.26759 0.77337 0.0
C295 C 0.04265 0.26273 0.79749 0.0
H296 H 0.32034 0.04872 0.76411 0.0
H297 H 0.20067 0.99818 0.68531 0.0
H298 H 0.18086 0.0631 0.65124 0.0
H299 H 0.18912 0.13545 0.65508 0.0
H300 H 0.30621 0.18692 0.73619 0.0
H301 H 0.33611 0.12048 0.75722 0.0
C302 C 0.29068 0.05166 0.73849 0.0
C303 C 0.26151 0.01863 0.72806 0.0
C304 C 0.27872 0.08941 0.71984 0.0
C305 C 0.22339 0.02308 0.69453 0.0
C306 C 0.21188 0.06029 0.67512 0.0
C307 C 0.22188 0.13199 0.67635 0.0
C308 C 0.24518 0.16587 0.6946 0.0
C309 C 0.23798 0.09386 0.68926 0.0
C310 C 0.28778 0.16122 0.7217 0.0
C311 C 0.30455 0.12324 0.7341 0.0
H312 H 0.10012 0.82861 0.23689 0.0
H313 H 0.05157 0.76644 0.36586 0.0
H314 H 0.96758 0.77582 0.33985 0.0
H315 H 0.9075 0.80402 0.28047 0.0
H316 H 0.95939 0.86445 0.15138 0.0
H317 H 0.04215 0.85439 0.17779 0.0
C318 C 0.07116 0.81707 0.25936 0.0
C319 C 0.08205 0.79715 0.30343 0.0
C320 C 0.02338 0.82292 0.24444 0.0
C321 C 0.04414 0.78172 0.33164 0.0
C322 C 0.99612 0.78743 0.31697 0.0
C323 C 0.93708 0.81529 0.2587 0.0
C324 C 0.92747 0.83561 0.2145 0.0
C325 C 0.98518 0.8085 0.27367 0.0
C326 C 0.966 0.84927 0.18586 0.0
C327 C 1.01335 0.8433 0.20076 0.0
H328 H 0.72615 0.9817 0.79299 0.0
H329 H 0.82396 0.04546 0.69882 0.0
H330 H 0.84134 0.98477 0.6532 0.0
H331 H 0.83945 0.9121 0.64946 0.0
H332 H 0.74471 0.84743 0.74517 0.0
H333 H 0.71466 0.90995 0.78024 0.0
C334 C 0.7503 0.98258 0.76169 0.0
C335 C 0.77442 0.01799 0.74998 0.0
C336 C 0.76107 0.94726 0.73625 0.0
C337 C 0.80538 0.01856 0.70909 0.0
C338 C 0.8155 0.9838 0.68304 0.0
C339 C 0.81128 0.9119 0.67709 0.0
C340 C 0.79451 0.87549 0.69517 0.0
C341 C 0.79523 0.94775 0.69773 0.0
C342 C 0.75792 0.87525 0.73072 0.0
C343 C 0.74114 0.91094 0.75102 0.0
H344 H 0.94096 0.26399 0.26611 0.0
H345 H 0.94493 0.17029 0.37365 0.0
H346 H 0.0276 0.15387 0.35033 0.0
H347 H 0.09508 0.16058 0.29231 0.0
H348 H 0.09002 0.25277 0.18231 0.0
H349 H 1.01248 0.27538 0.21376 0.0
C350 C 0.96052 0.24077 0.2853 0.0
C351 C 0.9369 0.21848 0.32168 0.0
C352 C 1.00787 0.23073 0.2707 0.0
C353 C 0.96241 0.18796 0.34566 0.0
C354 C 1.00962 0.17839 0.3321 0.0
C355 C 0.07762 0.18616 0.27585 0.0
C356 C 0.09863 0.20459 0.23463 0.0
C357 C 0.03225 0.19872 0.29359 0.0
C358 C 0.07492 0.23765 0.21383 0.0
C359 C 0.03029 0.25065 0.23174 0.0
H360 H 0.73562 0.50325 0.80589 0.0
H361 H 0.85021 0.46825 0.70759 0.0
H362 H 0.84251 0.39947 0.73436 0.0
H363 H 0.79292 0.34792 0.774 0.0
H364 H 0.67521 0.38325 0.86767 0.0
H365 H 0.69472 0.4531 0.85509 0.0
C366 C 0.75971 0.48078 0.79112 0.0
C367 C 0.79272 0.49081 0.75404 0.0
C368 C 0.75409 0.44112 0.80553 0.0
C369 C 0.82411 0.46136 0.73586 0.0
C370 C 0.81954 0.42189 0.75092 0.0
C371 C 0.77272 0.37101 0.79285 0.0
C372 C 0.73262 0.36078 0.82144 0.0
C373 C 0.78315 0.41117 0.784 0.0
C374 C 0.70617 0.39071 0.84539 0.0
C375 C 0.71714 0.43057 0.83797 0.0
H376 H 0.46175 0.33463 0.16207 0.0
H377 H 0.42817 0.2355 0.25571 0.0
H378 H 0.50679 0.24113 0.29569 0.0
H379 H 0.58206 0.27836 0.30924 0.0
H380 H 0.61572 0.37686 0.21411 0.0
H381 H 0.54064 0.3671 0.16951 0.0
C382 C 0.47193 0.31392 0.19081 0.0
C383 C 0.43888 0.28481 0.20606 0.0
C384 C 0.51724 0.31739 0.21367 0.0
C385 C 0.45289 0.25799 0.24302 0.0
C386 C 0.49777 0.26142 0.26616 0.0
C387 C 0.57341 0.29734 0.27826 0.0
C388 C 0.60476 0.32854 0.26547 0.0
C389 C 0.52984 0.29159 0.25256 0.0
C390 C 0.59271 0.35258 0.22495 0.0
C391 C 0.54947 0.34717 0.19949 0.0
H392 H 0.36024 0.61756 0.85477 0.0
H393 H 0.25423 0.67897 0.76729 0.0
H394 H 0.22256 0.61542 0.73849 0.0
H395 H 0.2339 0.54336 0.72819 0.0
H396 H 0.34294 0.48269 0.81309 0.0
H397 H 0.36405 0.54485 0.85336 0.0
C398 C 0.32966 0.61694 0.83003 0.0
C399 C 0.31005 0.6528 0.81253 0.0
C400 C 0.31251 0.58042 0.81281 0.0
C401 C 0.26993 0.65172 0.78122 0.0
C402 C 0.2521 0.6154 0.76446 0.0
C403 C 0.26146 0.5435 0.75639 0.0
C404 C 0.28735 0.50847 0.76696 0.0
C405 C 0.27435 0.57964 0.77853 0.0
C406 C 0.3228 0.50926 0.80378 0.0
C407 C 0.33507 0.54486 0.82671 0.0
H408 H 0.42525 0.74225 0.28593 0.0
H409 H 0.39682 0.64925 0.18059 0.0
H410 H 0.47518 0.65978 0.14293 0.0
H411 H 0.55602 0.68926 0.14659 0.0
H412 H 0.5846 0.78249 0.25081 0.0
H413 H 0.50211 0.77807 0.2821 0.0
C414 C 0.43557 0.72485 0.25401 0.0
C415 C 0.40496 0.69463 0.23666 0.0
C416 C 0.48119 0.73071 0.23271 0.0
C417 C 0.4193 0.67263 0.19504 0.0
C418 C 0.46444 0.67842 0.17359 0.0
C419 C 0.54375 0.70909 0.1755 0.0
C420 C 0.57628 0.73601 0.19661 0.0
C421 C 0.49631 0.70638 0.19318 0.0
C422 C 0.56009 0.7617 0.23389 0.0
C423 C 0.51302 0.759 0.25193 0.0
H424 H 0.80342 0.54867 0.27885 0.0
H425 H 0.69949 0.48724 0.18924 0.0
H426 H 0.67812 0.54925 0.14855 0.0
H427 H 0.67973 0.62208 0.14792 0.0
H428 H 0.78194 0.68397 0.23845 0.0
H429 H 0.81368 0.62064 0.26884 0.0
C430 C 0.77692 0.54863 0.2496 0.0
C431 C 0.75239 0.51345 0.2379 0.0
C432 C 0.76402 0.58461 0.22697 0.0
C433 C 0.71854 0.51392 0.19949 0.0
C434 C 0.70606 0.54945 0.17632 0.0
C435 C 0.70956 0.62154 0.17361 0.0
C436 C 0.72811 0.65741 0.19155 0.0
C437 C 0.72706 0.58515 0.19131 0.0
C438 C 0.76715 0.6566 0.22425 0.0
C439 C 0.78504 0.62044 0.24182 0.0
H440 H 0.46297 0.28384 0.65891 0.0
H441 H 0.41078 0.35235 0.78264 0.0
H442 H 0.48334 0.33668 0.82849 0.0
H443 H 0.56515 0.30973 0.8307 0.0
H444 H 0.61923 0.24168 0.70832 0.0
H445 H 0.5423 0.2503 0.66503 0.0
C446 C 0.46713 0.29484 0.69616 0.0
C447 C 0.4315 0.31971 0.71691 0.0
C448 C 0.5094 0.28584 0.72261 0.0
C449 C 0.43759 0.33351 0.76536 0.0
C450 C 0.47918 0.32457 0.79178 0.0
C451 C 0.55951 0.296 0.79504 0.0
C452 C 0.59741 0.27508 0.77261 0.0
C453 C 0.51575 0.30164 0.77037 0.0
C454 C 0.59017 0.25755 0.72637 0.0
C455 C 0.54642 0.26283 0.70152 0.0
H456 H 0.20508 0.47466 0.24695 0.0
H457 H 0.31074 0.52993 0.15341 0.0
H458 H 0.33501 0.46519 0.12173 0.0
H459 H 0.33619 0.3928 0.13194 0.0
H460 H 0.23215 0.3372 0.22642 0.0
H461 H 0.19695 0.4021 0.24623 0.0
C462 C 0.23239 0.47269 0.21855 0.0
C463 C 0.25684 0.507 0.20344 0.0
C464 C 0.24712 0.43522 0.20142 0.0
C465 C 0.29186 0.50391 0.16627 0.0
C466 C 0.30602 0.46686 0.14833 0.0
C467 C 0.30519 0.39502 0.15607 0.0
C468 C 0.28709 0.36071 0.17838 0.0
C469 C 0.2856 0.4323 0.16752 0.0
C470 C 0.24661 0.36347 0.20906 0.0
C471 C 0.22669 0.40051 0.22051 0.0
H472 H 0.47979 0.67532 0.84972 0.0
H473 H 0.46017 0.7802 0.76116 0.0
H474 H 0.54333 0.77487 0.73219 0.0
H475 H 0.61771 0.7356 0.72408 0.0
H476 H 0.63609 0.62927 0.81085 0.0
H477 H 0.55787 0.64053 0.84914 0.0
C478 C 0.49397 0.6973 0.82456 0.0
C479 C 0.46365 0.72789 0.80722 0.0
C480 C 0.54165 0.69377 0.80767 0.0
C481 C 0.48272 0.75646 0.77519 0.0
C482 C 0.53023 0.75327 0.75841 0.0
C483 C 0.60542 0.7154 0.75238 0.0
C484 C 0.633 0.68135 0.76407 0.0
C485 C 0.55961 0.72143 0.77337 0.0
C486 C 0.61585 0.65559 0.80075 0.0
C487 C 0.57083 0.66185 0.82249 0.0
H488 H 0.04287 0.08846 0.11876 0.0
H489 H 0.13337 0.98468 0.13131 0.0
H490 H 0.06445 0.94178 0.11626 0.0
H491 H 0.97694 0.93388 0.11528 0.0
H492 H 0.88538 0.03747 0.1126 0.0
H493 H 0.95576 0.08038 0.1068 0.0
C494 C 0.0475 0.0565 0.11683 0.0
C495 C 0.09261 0.03953 0.12673 0.0
C496 C 1.00732 0.03202 0.11048 0.0
C497 C 0.09857 0.99819 0.12435 0.0
C498 C 0.05923 0.97369 0.11587 0.0
C499 C 0.97252 0.96577 0.11205 0.0
C500 C 0.92648 0.98271 0.11502 0.0
C501 C 1.01312 0.99022 0.11128 0.0
C502 C 0.92083 0.024 0.11096 0.0
C503 C 0.96099 0.04849 0.10784 0.0
H504 H 0.99024 0.09238 0.90608 0.0
H505 H 0.89985 0.989 0.90241 0.0
H506 H 0.97058 0.94578 0.9069 0.0
H507 H 0.05791 0.93774 0.89639 0.0
H508 H 0.14798 0.04131 0.89302 0.0
H509 H 0.07808 0.08403 0.9076 0.0
C510 C 0.98611 0.06042 0.90761 0.0
C511 C 0.94022 0.04375 0.90314 0.0
C512 C 0.02702 0.03578 0.90821 0.0
C513 C 0.93507 1.00237 0.90521 0.0
C514 C 0.97547 0.97766 0.90758 0.0
C515 C 0.06226 0.96957 0.90019 0.0
C516 C 0.10763 0.98654 0.89297 0.0
C517 C 0.02166 0.99402 0.9067 0.0
C518 C 0.11308 0.02775 0.89789 0.0
C519 C 0.07315 0.05218 0.90607 0.0
H520 H 0.56781 0.57704 0.60646 0.0
H521 H 0.6547 0.4709 0.61478 0.0
H522 H 0.58333 0.42994 0.60327 0.0
H523 H 0.49505 0.4245 0.60614 0.0
H524 H 0.4083 0.53095 0.60495 0.0
H525 H 0.48034 0.57152 0.59736 0.0
C526 C 0.57117 0.54499 0.60444 0.0
C527 C 0.61609 0.5269 0.61219 0.0
C528 C 0.52978 0.52165 0.59971 0.0
C529 C 0.62021 0.48539 0.60946 0.0
C530 C 0.57942 0.46196 0.60308 0.0
C531 C 0.49202 0.4565 0.60285 0.0
C532 C 0.44674 0.47487 0.60677 0.0
C533 C 0.53376 0.47973 0.6005 0.0
C534 C 0.44301 0.5163 0.60254 0.0
C535 C 0.48417 0.53951 0.59841 0.0
H536 H 0.53939 0.42939 0.37351 0.0
H537 H 0.62651 0.53391 0.38906 0.0
H538 H 0.55455 0.57592 0.38849 0.0
H539 H 0.46859 0.58337 0.369 0.0
H540 H 0.38279 0.47895 0.3458 0.0
H541 H 0.45191 0.4365 0.3643 0.0
C542 C 0.54233 0.46126 0.37824 0.0
C543 C 0.58786 0.47872 0.3809 0.0
C544 C 0.50101 0.4853 0.37549 0.0
C545 C 0.59158 0.52 0.38663 0.0
C546 C 0.55053 0.54402 0.386 0.0
C547 C 0.46497 0.55134 0.36902 0.0
C548 C 0.42119 0.53419 0.3553 0.0
C549 C 0.50528 0.52713 0.37811 0.0
C550 C 0.41658 0.49271 0.35555 0.0
C551 C 0.45603 0.46843 0.36612 0.0
H552 H 0.26632 0.0887 1.0007 0.0
H553 H 0.262 0.02555 0.13841 0.0
H554 H 0.26882 0.96235 0.09483 0.0
H555 H 0.26998 0.92479 0.01683 0.0
H556 H 0.27627 0.98843 0.87955 0.0
H557 H 0.27493 0.0514 0.92338 0.0
C558 C 0.26764 0.06108 0.02115 0.0
C559 C 0.26395 0.06183 0.0727 0.0
C560 C 0.27154 0.02485 0.9958 0.0
C561 C 0.26565 0.02588 0.09881 0.0
C562 C 0.26906 0.98966 0.07382 0.0
C563 C 0.27156 0.95246 0.99656 0.0
C564 C 0.27288 0.95179 0.94478 0.0
C565 C 0.27117 0.98875 0.02224 0.0
C566 C 0.2754 0.98792 0.9192 0.0
C567 C 0.2744 0.02406 0.94433 0.0
H568 H 0.10461 0.78905 0.05413 0.0
H569 H 0.10091 0.77409 0.89666 0.0
H570 H 1.01367 0.76718 0.8991 0.0
H571 H 0.93741 0.77485 0.94515 0.0
H572 H 0.94168 0.78301 0.10336 0.0
H573 H 0.02932 0.78254 0.10172 0.0
C574 C 0.08474 0.78311 0.02062 0.0
C575 C 0.10904 0.78251 0.97531 0.0
C576 C 0.03455 0.7783 0.02238 0.0
C577 C 0.08304 0.77461 0.93207 0.0
C578 C 0.03304 0.77095 0.93336 0.0
C579 C 0.95764 0.77527 0.97925 0.0
C580 C 0.93315 0.77926 0.0242 0.0
C581 C 1.00824 0.7741 0.97813 0.0
C582 C 0.95966 0.77977 0.06824 0.0
C583 C 1.00988 0.77979 0.06734 0.0
H584 H 0.76978 0.04645 0.91407 0.0
H585 H 0.78549 0.11834 0.04414 0.0
H586 H 0.77868 0.059 0.09575 0.0
H587 H 0.77174 0.98638 0.10307 0.0
H588 H 0.76288 0.91461 0.97213 0.0
H589 H 0.7628 0.97442 0.92121 0.0
C590 C 0.77089 0.04931 0.95364 0.0
C591 C 0.77747 0.08683 0.9752 0.0
C592 C 0.76816 0.01507 0.98276 0.0
C593 C 0.78022 0.0898 0.02667 0.0
C594 C 0.77632 0.0559 0.05613 0.0
C595 C 0.76893 0.98388 0.06354 0.0
C596 C 0.76668 0.94616 0.04143 0.0
C597 C 0.77062 0.01834 0.03451 0.0
C598 C 0.76432 0.94334 0.98996 0.0
C599 C 0.76443 0.97749 0.96088 0.0
H600 H 0.04431 0.16109 0.01008 0.0
H601 H 0.1215 0.27183 0.00825 0.0
H602 H 0.04953 0.30612 0.97839 0.0
H603 H 0.96267 0.30597 0.96251 0.0
H604 H 0.88421 0.19644 0.97097 0.0
H605 H 0.95883 0.16008 0.98737 0.0
C606 C 0.04573 0.19265 0.00248 0.0
C607 C 0.08824 0.21396 0.012 0.0
C608 C 1.00385 0.21235 0.98659 0.0
C609 C 0.08929 0.25476 1.00162 0.0
C610 C 0.04807 0.2744 0.98468 0.0
C611 C 0.96198 0.27403 0.96726 0.0
C612 C 0.91783 0.25382 0.96512 0.0
C613 C 1.00481 0.25371 0.97857 0.0
C614 C 0.91762 0.21252 0.97137 0.0
C615 C 0.96031 0.19184 0.98138 0.0
H616 H 0.76489 0.49056 0.40695 0.0
H617 H 0.76724 0.40608 0.52584 0.0
H618 H 0.77773 0.45989 0.58527 0.0
H619 H 0.77931 0.53118 0.6038 0.0
H620 H 0.77038 0.616 0.48559 0.0
H621 H 0.76988 0.56197 0.42539 0.0
C622 C 0.76899 0.48388 0.44569 0.0
C623 C 0.76598 0.44434 0.4619 0.0
C624 C 0.7734 0.51512 0.47979 0.0
C625 C 0.76978 0.43627 0.51246 0.0
C626 C 0.77561 0.46703 0.54645 0.0
C627 C 0.77832 0.5379 0.56491 0.0
C628 C 0.77528 0.57761 0.54926 0.0
C629 C 0.77654 0.50663 0.53063 0.0
C630 C 0.77284 0.58568 0.49859 0.0
C631 C 0.77246 0.55479 0.46416 0.0
H632 H 0.44928 0.21834 0.53682 0.0
H633 H 0.3804 0.33323 0.53722 0.0
H634 H 0.45819 0.36515 0.52488 0.0
H635 H 0.54341 0.35938 0.50211 0.0
H636 H 0.61072 0.24371 0.49462 0.0
H637 H 0.53595 0.21303 0.52179 0.0
C638 C 0.4514 0.25043 0.53494 0.0
C639 C 0.40914 0.27347 0.53816 0.0
C640 C 0.49592 0.2683 0.52584 0.0
C641 C 0.41241 0.31494 0.53573 0.0
C642 C 0.45687 0.33312 0.52808 0.0
C643 C 0.54205 0.32749 0.50713 0.0
C644 C 0.58247 0.30378 0.4956 0.0
C645 C 0.49855 0.30997 0.52136 0.0
C646 C 0.58006 0.26259 0.50273 0.0
C647 C 0.53726 0.24502 0.51814 0.0
H648 H 0.27101 0.42213 0.47376 0.0
H649 H 0.27947 0.48519 0.6115 0.0
H650 H 0.27358 0.54829 0.56885 0.0
H651 H 0.26899 0.58628 0.4921 0.0
H652 H 0.25739 0.52438 0.35393 0.0
H653 H 0.2609 0.46067 0.39655 0.0
C654 C 0.27127 0.44972 0.49431 0.0
C655 C 0.27553 0.44877 0.54591 0.0
C656 C 0.26709 0.48631 0.46935 0.0
C657 C 0.2756 0.48483 0.572 0.0
C658 C 0.27247 0.5211 0.54754 0.0
C659 C 0.26659 0.55883 0.4714 0.0
C660 C 0.2626 0.56021 0.41991 0.0
C661 C 0.26844 0.52226 0.49624 0.0
C662 C 0.25961 0.52433 0.3936 0.0
C663 C 0.26212 0.48777 0.418 0.0
H664 H 0.61244 0.72262 0.50501 0.0
H665 H 0.53123 0.70677 0.63859 0.0
H666 H 0.456 0.71123 0.59255 0.0
H667 H 0.41405 0.70906 0.51275 0.0
H668 H 0.49629 0.71796 0.37887 0.0
H669 H 0.56996 0.72752 0.42612 0.0
C670 C 0.57822 0.72122 0.52406 0.0
C671 C 0.5772 0.71408 0.57485 0.0
C672 C 0.53517 0.72215 0.49708 0.0
C673 C 0.53273 0.7119 0.59926 0.0
C674 C 0.48972 0.71435 0.57298 0.0
C675 C 0.44796 0.71424 0.49418 0.0
C676 C 0.45006 0.71273 0.44269 0.0
C677 C 0.49053 0.71791 0.52163 0.0
C678 C 0.49413 0.71884 0.41868 0.0
C679 C 0.53624 0.72416 0.44562 0.0
loop_
_geom_bond_atom_site_label_1
_geom_bond_atom_site_label_2
_geom_bond_distance
_geom_bond_site_symmetry_2
_ccdc_geom_bond_type
O0 Tb1 2.292 . S
O0 C3 1.255 . S
Tb1 O0 2.292 . S
Tb1 O17 2.326 . S
Tb1 O19 2.500 . S
Tb1 O20 2.473 . S
Tb1 O23 2.324 . S
Eu2 O6 2.292 . S
Eu2 C7 2.852 . S
Eu2 O18 2.324 . S
Eu2 O22 2.326 . S
Eu2 O24 2.500 . S
Eu2 O25 2.473 . S
C3 O0 1.255 . S
C3 O4 1.247 . S
O4 C3 1.247 . S
C5 O17 1.242 . S
C5 O18 1.258 . S
O6 Eu2 2.292 . S
O6 C8 1.255 . S
C7 Eu2 2.852 . S
C7 C11 1.503 . S
C7 O24 1.273 . S
C7 O25 1.257 . S
C8 O6 1.255 . S
C8 O9 1.247 . S
O9 C8 1.247 . S
C10 O22 1.242 . S
C10 O23 1.258 . S
C11 C7 1.503 . S
C11 C12 1.379 . S
C11 C16 1.392 . S
C12 C11 1.379 . S
C12 C13 1.404 . S
C12 H26 0.929 . S
C13 C12 1.404 . S
C13 C14 1.389 . S
C14 C13 1.389 . S
C14 C15 1.399 . S
C14 H27 0.931 . S
C15 C14 1.399 . S
C15 C16 1.390 . S
C16 C11 1.392 . S
C16 C15 1.390 . S
C16 H28 0.929 . S
O17 Tb1 2.326 . S
O17 C5 1.242 . S
O18 Eu2 2.324 . S
O18 C5 1.258 . S
O19 Tb1 2.500 . S
O19 C21 1.273 . S
O20 Tb1 2.473 . S
O20 C21 1.257 . S
C21 O19 1.273 . S
C21 O20 1.257 . S
O22 Eu2 2.326 . S
O22 C10 1.242 . S
O23 Tb1 2.324 . S
O23 C10 1.258 . S
O24 Eu2 2.500 . S
O24 C7 1.273 . S
O25 Eu2 2.473 . S
O25 C7 1.257 . S
H26 C12 0.929 . S
H27 C14 0.931 . S
H28 C16 0.929 . S
O29 Tb30 2.292 . S
O29 C32 1.255 . S
Tb30 O29 2.292 . S
Tb30 O46 2.326 . S
Tb30 O48 2.500 . S
Tb30 O49 2.473 . S
Tb30 O52 2.324 . S
Eu31 O35 2.292 . S
Eu31 C36 2.852 . S
Eu31 O47 2.324 . S
Eu31 O51 2.326 . S
Eu31 O53 2.500 . S
Eu31 O54 2.473 . S
C32 O29 1.255 . S
C32 O33 1.247 . S
O33 C32 1.247 . S
C34 O46 1.242 . S
C34 O47 1.258 . S
O35 Eu31 2.292 . S
O35 C37 1.255 . S
C36 Eu31 2.852 . S
C36 C40 1.503 . S
C36 O53 1.273 . S
C36 O54 1.257 . S
C37 O35 1.255 . S
C37 O38 1.247 . S
O38 C37 1.247 . S
C39 O51 1.242 . S
C39 O52 1.258 . S
C40 C36 1.503 . S
C40 C41 1.379 . S
C40 C45 1.392 . S
C41 C40 1.379 . S
C41 C42 1.404 . S
C41 H55 0.929 . S
C42 C41 1.404 . S
C42 C43 1.389 . S
C43 C42 1.389 . S
C43 C44 1.399 . S
C43 H56 0.931 . S
C44 C43 1.399 . S
C44 C45 1.390 . S
C45 C40 1.392 . S
C45 C44 1.390 . S
C45 H57 0.929 . S
O46 Tb30 2.326 . S
O46 C34 1.242 . S
O47 Eu31 2.324 . S
O47 C34 1.258 . S
O48 Tb30 2.500 . S
O48 C50 1.273 . S
O49 Tb30 2.473 . S
O49 C50 1.257 . S
C50 O48 1.273 . S
C50 O49 1.257 . S
O51 Eu31 2.326 . S
O51 C39 1.242 . S
O52 Tb30 2.324 . S
O52 C39 1.258 . S
O53 Eu31 2.500 . S
O53 C36 1.273 . S
O54 Eu31 2.473 . S
O54 C36 1.257 . S
H55 C41 0.929 . S
H56 C43 0.931 . S
H57 C45 0.929 . S
O58 Tb59 2.292 . S
O58 C61 1.255 . S
Tb59 O58 2.292 . S
Tb59 O75 2.326 . S
Tb59 O77 2.500 . S
Tb59 O78 2.473 . S
Tb59 O81 2.324 . S
Eu60 O64 2.292 . S
Eu60 C65 2.852 . S
Eu60 O76 2.324 . S
Eu60 O80 2.326 . S
Eu60 O82 2.500 . S
Eu60 O83 2.473 . S
C61 O58 1.255 . S
C61 O62 1.247 . S
O62 C61 1.247 . S
C63 O75 1.242 . S
C63 O76 1.258 . S
O64 Eu60 2.292 . S
O64 C66 1.255 . S
C65 Eu60 2.852 . S
C65 C69 1.503 . S
C65 O82 1.273 . S
C65 O83 1.257 . S
C66 O64 1.255 . S
C66 O67 1.247 . S
O67 C66 1.247 . S
C68 O80 1.242 . S
C68 O81 1.258 . S
C69 C65 1.503 . S
C69 C70 1.379 . S
C69 C74 1.392 . S
C70 C69 1.379 . S
C70 C71 1.404 . S
C70 H84 0.929 . S
C71 C70 1.404 . S
C71 C72 1.389 . S
C72 C71 1.389 . S
C72 C73 1.399 . S
C72 H85 0.931 . S
C73 C72 1.399 . S
C73 C74 1.390 . S
C74 C69 1.392 . S
C74 C73 1.390 . S
C74 H86 0.929 . S
O75 Tb59 2.326 . S
O75 C63 1.242 . S
O76 Eu60 2.324 . S
O76 C63 1.258 . S
O77 Tb59 2.500 . S
O77 C79 1.273 . S
O78 Tb59 2.473 . S
O78 C79 1.257 . S
C79 O77 1.273 . S
C79 O78 1.257 . S
O80 Eu60 2.326 . S
O80 C68 1.242 . S
O81 Tb59 2.324 . S
O81 C68 1.258 . S
O82 Eu60 2.500 . S
O82 C65 1.273 . S
O83 Eu60 2.473 . S
O83 C65 1.257 . S
H84 C70 0.929 . S
H85 C72 0.931 . S
H86 C74 0.929 . S
O87 Tb88 2.292 . S
O87 C90 1.255 . S
Tb88 O87 2.292 . S
Tb88 O104 2.326 . S
Tb88 O106 2.500 . S
Tb88 O107 2.473 . S
Tb88 O110 2.324 . S
Eu89 O93 2.292 . S
Eu89 C94 2.852 . S
Eu89 O105 2.324 . S
Eu89 O109 2.326 . S
Eu89 O111 2.500 . S
Eu89 O112 2.473 . S
C90 O87 1.255 . S
C90 O91 1.247 . S
O91 C90 1.247 . S
C92 O104 1.242 . S
C92 O105 1.258 . S
O93 Eu89 2.292 . S
O93 C95 1.255 . S
C94 Eu89 2.852 . S
C94 C98 1.503 . S
C94 O111 1.273 . S
C94 O112 1.257 . S
C95 O93 1.255 . S
C95 O96 1.247 . S
O96 C95 1.247 . S
C97 O109 1.242 . S
C97 O110 1.258 . S
C98 C94 1.503 . S
C98 C99 1.379 . S
C98 C103 1.392 . S
C99 C98 1.379 . S
C99 C100 1.404 . S
C99 H113 0.929 . S
C100 C99 1.404 . S
C100 C101 1.389 . S
C101 C100 1.389 . S
C101 C102 1.399 . S
C101 H114 0.931 . S
C102 C101 1.399 . S
C102 C103 1.390 . S
C103 C98 1.392 . S
C103 C102 1.390 . S
C103 H115 0.929 . S
O104 Tb88 2.326 . S
O104 C92 1.242 . S
O105 Eu89 2.324 . S
O105 C92 1.258 . S
O106 Tb88 2.500 . S
O106 C108 1.273 . S
O107 Tb88 2.473 . S
O107 C108 1.257 . S
C108 O106 1.273 . S
C108 O107 1.257 . S
O109 Eu89 2.326 . S
O109 C97 1.242 . S
O110 Tb88 2.324 . S
O110 C97 1.258 . S
O111 Eu89 2.500 . S
O111 C94 1.273 . S
O112 Eu89 2.473 . S
O112 C94 1.257 . S
H113 C99 0.929 . S
H114 C101 0.931 . S
H115 C103 0.929 . S
O116 Tb117 2.292 . S
O116 C119 1.255 . S
Tb117 O116 2.292 . S
Tb117 O133 2.326 . S
Tb117 O135 2.500 . S
Tb117 O136 2.473 . S
Tb117 O139 2.324 . S
Eu118 O122 2.292 . S
Eu118 C123 2.852 . S
Eu118 O134 2.324 . S
Eu118 O138 2.326 . S
Eu118 O140 2.500 . S
Eu118 O141 2.473 . S
C119 O116 1.255 . S
C119 O120 1.247 . S
O120 C119 1.247 . S
C121 O133 1.242 . S
C121 O134 1.258 . S
O122 Eu118 2.292 . S
O122 C124 1.255 . S
C123 Eu118 2.852 . S
C123 C127 1.503 . S
C123 O140 1.273 . S
C123 O141 1.257 . S
C124 O122 1.255 . S
C124 O125 1.247 . S
O125 C124 1.247 . S
C126 O138 1.242 . S
C126 O139 1.258 . S
C127 C123 1.503 . S
C127 C128 1.379 . S
C127 C132 1.392 . S
C128 C127 1.379 . S
C128 C129 1.404 . S
C128 H142 0.929 . S
C129 C128 1.404 . S
C129 C130 1.389 . S
C130 C129 1.389 . S
C130 C131 1.399 . S
C130 H143 0.931 . S
C131 C130 1.399 . S
C131 C132 1.390 . S
C132 C127 1.392 . S
C132 C131 1.390 . S
C132 H144 0.929 . S
O133 Tb117 2.326 . S
O133 C121 1.242 . S
O134 Eu118 2.324 . S
O134 C121 1.258 . S
O135 Tb117 2.500 . S
O135 C137 1.273 . S
O136 Tb117 2.473 . S
O136 C137 1.257 . S
C137 O135 1.273 . S
C137 O136 1.257 . S
O138 Eu118 2.326 . S
O138 C126 1.242 . S
O139 Tb117 2.324 . S
O139 C126 1.258 . S
O140 Eu118 2.500 . S
O140 C123 1.273 . S
O141 Eu118 2.473 . S
O141 C123 1.257 . S
H142 C128 0.929 . S
H143 C130 0.931 . S
H144 C132 0.929 . S
O145 Tb146 2.292 . S
O145 C148 1.255 . S
Tb146 O145 2.292 . S
Tb146 O162 2.326 . S
Tb146 O164 2.500 . S
Tb146 O165 2.473 . S
Tb146 O168 2.324 . S
Eu147 O151 2.292 . S
Eu147 C152 2.852 . S
Eu147 O163 2.324 . S
Eu147 O167 2.326 . S
Eu147 O169 2.500 . S
Eu147 O170 2.473 . S
C148 O145 1.255 . S
C148 O149 1.247 . S
O149 C148 1.247 . S
C150 O162 1.242 . S
C150 O163 1.258 . S
O151 Eu147 2.292 . S
O151 C153 1.255 . S
C152 Eu147 2.852 . S
C152 C156 1.503 . S
C152 O169 1.273 . S
C152 O170 1.257 . S
C153 O151 1.255 . S
C153 O154 1.247 . S
O154 C153 1.247 . S
C155 O167 1.242 . S
C155 O168 1.258 . S
C156 C152 1.503 . S
C156 C157 1.379 . S
C156 C161 1.392 . S
C157 C156 1.379 . S
C157 C158 1.404 . S
C157 H171 0.929 . S
C158 C157 1.404 . S
C158 C159 1.389 . S
C159 C158 1.389 . S
C159 C160 1.399 . S
C159 H172 0.931 . S
C160 C159 1.399 . S
C160 C161 1.390 . S
C161 C156 1.392 . S
C161 C160 1.390 . S
C161 H173 0.929 . S
O162 Tb146 2.326 . S
O162 C150 1.242 . S
O163 Eu147 2.324 . S
O163 C150 1.258 . S
O164 Tb146 2.500 . S
O164 C166 1.273 . S
O165 Tb146 2.473 . S
O165 C166 1.257 . S
C166 O164 1.273 . S
C166 O165 1.257 . S
O167 Eu147 2.326 . S
O167 C155 1.242 . S
O168 Tb146 2.324 . S
O168 C155 1.258 . S
O169 Eu147 2.500 . S
O169 C152 1.273 . S
O170 Eu147 2.473 . S
O170 C152 1.257 . S
H171 C157 0.929 . S
H172 C159 0.931 . S
H173 C161 0.929 . S
O174 Tb175 2.292 . S
O174 C177 1.255 . S
Tb175 O174 2.292 . S
Tb175 O191 2.326 . S
Tb175 O193 2.500 . S
Tb175 O194 2.473 . S
Tb175 O197 2.324 . S
Eu176 O180 2.292 . S
Eu176 C181 2.852 . S
Eu176 O192 2.324 . S
Eu176 O196 2.326 . S
Eu176 O198 2.500 . S
Eu176 O199 2.473 . S
C177 O174 1.255 . S
C177 O178 1.247 . S
O178 C177 1.247 . S
C179 O191 1.242 . S
C179 O192 1.258 . S
O180 Eu176 2.292 . S
O180 C182 1.255 . S
C181 Eu176 2.852 . S
C181 C185 1.503 . S
C181 O198 1.273 . S
C181 O199 1.257 . S
C182 O180 1.255 . S
C182 O183 1.247 . S
O183 C182 1.247 . S
C184 O196 1.242 . S
C184 O197 1.258 . S
C185 C181 1.503 . S
C185 C186 1.379 . S
C185 C190 1.392 . S
C186 C185 1.379 . S
C186 C187 1.404 . S
C186 H200 0.929 . S
C187 C186 1.404 . S
C187 C188 1.389 . S
C188 C187 1.389 . S
C188 C189 1.399 . S
C188 H201 0.931 . S
C189 C188 1.399 . S
C189 C190 1.390 . S
C190 C185 1.392 . S
C190 C189 1.390 . S
C190 H202 0.929 . S
O191 Tb175 2.326 . S
O191 C179 1.242 . S
O192 Eu176 2.324 . S
O192 C179 1.258 . S
O193 Tb175 2.500 . S
O193 C195 1.273 . S
O194 Tb175 2.473 . S
O194 C195 1.257 . S
C195 O193 1.273 . S
C195 O194 1.257 . S
O196 Eu176 2.326 . S
O196 C184 1.242 . S
O197 Tb175 2.324 . S
O197 C184 1.258 . S
O198 Eu176 2.500 . S
O198 C181 1.273 . S
O199 Eu176 2.473 . S
O199 C181 1.257 . S
H200 C186 0.929 . S
H201 C188 0.931 . S
H202 C190 0.929 . S
O203 Tb204 2.292 . S
O203 C206 1.255 . S
Tb204 O203 2.292 . S
Tb204 O220 2.326 . S
Tb204 O222 2.500 . S
Tb204 O223 2.473 . S
Tb204 O226 2.324 . S
Eu205 O209 2.292 . S
Eu205 C210 2.852 . S
Eu205 O221 2.324 . S
Eu205 O225 2.326 . S
Eu205 O227 2.500 . S
Eu205 O228 2.473 . S
C206 O203 1.255 . S
C206 O207 1.247 . S
O207 C206 1.247 . S
C208 O220 1.242 . S
C208 O221 1.258 . S
O209 Eu205 2.292 . S
O209 C211 1.255 . S
C210 Eu205 2.852 . S
C210 C214 1.503 . S
C210 O227 1.273 . S
C210 O228 1.257 . S
C211 O209 1.255 . S
C211 O212 1.247 . S
O212 C211 1.247 . S
C213 O225 1.242 . S
C213 O226 1.258 . S
C214 C210 1.503 . S
C214 C215 1.379 . S
C214 C219 1.392 . S
C215 C214 1.379 . S
C215 C216 1.404 . S
C215 H229 0.929 . S
C216 C215 1.404 . S
C216 C217 1.389 . S
C217 C216 1.389 . S
C217 C218 1.399 . S
C217 H230 0.931 . S
C218 C217 1.399 . S
C218 C219 1.390 . S
C219 C214 1.392 . S
C219 C218 1.390 . S
C219 H231 0.929 . S
O220 Tb204 2.326 . S
O220 C208 1.242 . S
O221 Eu205 2.324 . S
O221 C208 1.258 . S
O222 Tb204 2.500 . S
O222 C224 1.273 . S
O223 Tb204 2.473 . S
O223 C224 1.257 . S
C224 O222 1.273 . S
C224 O223 1.257 . S
O225 Eu205 2.326 . S
O225 C213 1.242 . S
O226 Tb204 2.324 . S
O226 C213 1.258 . S
O227 Eu205 2.500 . S
O227 C210 1.273 . S
O228 Eu205 2.473 . S
O228 C210 1.257 . S
H229 C215 0.929 . S
H230 C217 0.931 . S
H231 C219 0.929 . S
H232 C238 0.930 . S
H233 C241 0.930 . S
H234 C242 0.930 . S
H235 C243 0.930 . S
H236 C246 0.930 . S
H237 C247 0.930 . S
C238 H232 0.930 . S
C238 C239 1.355 1_565 S
C238 C240 1.415 . S
C239 C238 1.355 1_545 S
C239 C241 1.419 . S
C240 C238 1.415 . S
C240 C245 1.425 . S
C240 C247 1.409 . S
C241 H233 0.930 . S
C241 C239 1.419 . S
C241 C242 1.362 1_545 S
C242 H234 0.930 . S
C242 C241 1.362 1_565 S
C242 C245 1.409 . S
C243 H235 0.930 . S
C243 C244 1.355 . S
C243 C245 1.415 . S
C244 C243 1.355 . S
C244 C246 1.419 . S
C245 C240 1.425 . S
C245 C242 1.409 . S
C245 C243 1.415 . S
C246 H236 0.930 . S
C246 C244 1.419 . S
C246 C247 1.362 . S
C247 H237 0.930 . S
C247 C240 1.409 . S
C247 C246 1.362 . S
H248 C254 0.930 . S
H249 C257 0.930 . S
H250 C258 0.930 . S
H251 C259 0.930 . S
H252 C262 0.930 . S
H253 C263 0.930 . S
C254 H248 0.930 . S
C254 C255 1.355 . S
C254 C256 1.415 1_455 S
C255 C254 1.355 . S
C255 C257 1.419 . S
C256 C254 1.415 1_655 S
C256 C261 1.425 . S
C256 C263 1.409 . S
C257 H249 0.930 . S
C257 C255 1.419 . S
C257 C258 1.362 1_455 S
C258 H250 0.930 . S
C258 C257 1.362 1_655 S
C258 C261 1.409 . S
C259 H251 0.930 . S
C259 C260 1.355 . S
C259 C261 1.415 . S
C260 C259 1.355 . S
C260 C262 1.419 . S
C261 C256 1.425 . S
C261 C258 1.409 . S
C261 C259 1.415 . S
C262 H252 0.930 . S
C262 C260 1.419 . S
C262 C263 1.362 . S
C263 H253 0.930 . S
C263 C256 1.409 . S
C263 C262 1.362 . S
H264 C270 0.930 . S
H265 C273 0.930 . S
H266 C274 0.930 . S
H267 C275 0.930 . S
H268 C278 0.930 . S
H269 C279 0.930 . S
C270 H264 0.930 . S
C270 C271 1.355 . S
C270 C272 1.415 . S
C271 C270 1.355 . S
C271 C273 1.419 . S
C272 C270 1.415 . S
C272 C277 1.425 . S
C272 C279 1.409 . S
C273 H265 0.930 . S
C273 C271 1.419 . S
C273 C274 1.362 . S
C274 H266 0.930 . S
C274 C273 1.362 . S
C274 C277 1.409 . S
C275 H267 0.930 . S
C275 C276 1.355 1_545 S
C275 C277 1.415 . S
C276 C275 1.355 1_565 S
C276 C278 1.419 . S
C277 C272 1.425 . S
C277 C274 1.409 . S
C277 C275 1.415 . S
C278 H268 0.930 . S
C278 C276 1.419 . S
C278 C279 1.362 1_565 S
C279 H269 0.930 . S
C279 C272 1.409 . S
C279 C278 1.362 1_545 S
H280 C286 0.930 . S
H281 C289 0.930 . S
H282 C290 0.930 . S
H283 C291 0.930 . S
H284 C294 0.930 . S
H285 C295 0.930 . S
C286 H280 0.930 . S
C286 C287 1.355 . S
C286 C288 1.415 1_655 S
C287 C286 1.355 . S
C287 C289 1.419 . S
C288 C286 1.415 1_455 S
C288 C293 1.425 . S
C288 C295 1.409 . S
C289 H281 0.930 . S
C289 C287 1.419 . S
C289 C290 1.362 1_655 S
C290 H282 0.930 . S
C290 C289 1.362 1_455 S
C290 C293 1.409 . S
C291 H283 0.930 . S
C291 C292 1.355 . S
C291 C293 1.415 . S
C292 C291 1.355 . S
C292 C294 1.419 . S
C293 C288 1.425 . S
C293 C290 1.409 . S
C293 C291 1.415 . S
C294 H284 0.930 . S
C294 C292 1.419 . S
C294 C295 1.362 . S
C295 H285 0.930 . S
C295 C288 1.409 . S
C295 C294 1.362 . S
H296 C302 0.930 . S
H297 C305 0.930 1_565 S
H298 C306 0.930 . S
H299 C307 0.930 . S
H300 C310 0.930 . S
H301 C311 0.930 . S
C302 H296 0.930 . S
C302 C303 1.355 1_545 S
C302 C304 1.415 . S
C303 C302 1.355 1_565 S
C303 C305 1.419 1_565 S
C304 C302 1.415 . S
C304 C309 1.425 . S
C304 C311 1.409 . S
C305 H297 0.930 1_545 S
C305 C303 1.419 1_545 S
C305 C306 1.362 . S
C306 H298 0.930 . S
C306 C305 1.362 . S
C306 C309 1.409 . S
C307 H299 0.930 . S
C307 C308 1.355 . S
C307 C309 1.415 . S
C308 C307 1.355 . S
C308 C310 1.419 . S
C309 C304 1.425 . S
C309 C306 1.409 . S
C309 C307 1.415 . S
C310 H300 0.930 . S
C310 C308 1.419 . S
C310 C311 1.362 . S
C311 H301 0.930 . S
C311 C304 1.409 . S
C311 C310 1.362 . S
H312 C318 0.930 . S
H313 C321 0.930 . S
H314 C322 0.930 . S
H315 C323 0.930 . S
H316 C326 0.930 . S
H317 C327 0.930 . S
C318 H312 0.930 . S
C318 C319 1.355 . S
C318 C320 1.415 . S
C319 C318 1.355 . S
C319 C321 1.419 . S
C320 C318 1.415 . S
C320 C325 1.425 . S
C320 C327 1.409 . S
C321 H313 0.930 . S
C321 C319 1.419 . S
C321 C322 1.362 . S
C322 H314 0.930 . S
C322 C321 1.362 . S
C322 C325 1.409 . S
C323 H315 0.930 . S
C323 C324 1.355 . S
C323 C325 1.415 1_655 S
C324 C323 1.355 . S
C324 C326 1.419 . S
C325 C320 1.425 . S
C325 C322 1.409 . S
C325 C323 1.415 1_455 S
C326 H316 0.930 . S
C326 C324 1.419 . S
C326 C327 1.362 1_655 S
C327 H317 0.930 . S
C327 C320 1.409 . S
C327 C326 1.362 1_455 S
H328 C334 0.930 . S
H329 C337 0.930 1_545 S
H330 C338 0.930 . S
H331 C339 0.930 . S
H332 C342 0.930 . S
H333 C343 0.930 . S
C334 H328 0.930 . S
C334 C335 1.355 1_565 S
C334 C336 1.415 . S
C335 C334 1.355 1_545 S
C335 C337 1.419 1_545 S
C336 C334 1.415 . S
C336 C341 1.425 . S
C336 C343 1.409 . S
C337 H329 0.930 1_565 S
C337 C335 1.419 1_565 S
C337 C338 1.362 . S
C338 H330 0.930 . S
C338 C337 1.362 . S
C338 C341 1.409 . S
C339 H331 0.930 . S
C339 C340 1.355 . S
C339 C341 1.415 . S
C340 C339 1.355 . S
C340 C342 1.419 . S
C341 C336 1.425 . S
C341 C338 1.409 . S
C341 C339 1.415 . S
C342 H332 0.930 . S
C342 C340 1.419 . S
C342 C343 1.362 . S
C343 H333 0.930 . S
C343 C336 1.409 . S
C343 C342 1.362 . S
H344 C350 0.930 . S
H345 C353 0.930 . S
H346 C354 0.930 . S
H347 C355 0.930 . S
H348 C358 0.930 . S
H349 C359 0.930 . S
C350 H344 0.930 . S
C350 C351 1.355 . S
C350 C352 1.415 . S
C351 C350 1.355 . S
C351 C353 1.419 . S
C352 C350 1.415 . S
C352 C357 1.425 . S
C352 C359 1.409 . S
C353 H345 0.930 . S
C353 C351 1.419 . S
C353 C354 1.362 . S
C354 H346 0.930 . S
C354 C353 1.362 . S
C354 C357 1.409 . S
C355 H347 0.930 . S
C355 C356 1.355 . S
C355 C357 1.415 1_455 S
C356 C355 1.355 . S
C356 C358 1.419 . S
C357 C352 1.425 . S
C357 C354 1.409 . S
C357 C355 1.415 1_655 S
C358 H348 0.930 . S
C358 C356 1.419 . S
C358 C359 1.362 1_455 S
C359 H349 0.930 . S
C359 C352 1.409 . S
C359 C358 1.362 1_655 S
H360 C366 0.930 . S
H361 C369 0.930 . S
H362 C370 0.930 . S
H363 C371 0.930 . S
H364 C374 0.930 . S
H365 C375 0.930 . S
C366 H360 0.930 . S
C366 C367 1.355 . S
C366 C368 1.415 . S
C367 C366 1.355 . S
C367 C369 1.419 . S
C368 C366 1.415 . S
C368 C373 1.425 . S
C368 C375 1.409 . S
C369 H361 0.930 . S
C369 C367 1.419 . S
C369 C370 1.362 . S
C370 H362 0.930 . S
C370 C369 1.362 . S
C370 C373 1.409 . S
C371 H363 0.930 . S
C371 C372 1.355 . S
C371 C373 1.415 . S
C372 C371 1.355 . S
C372 C374 1.419 . S
C373 C368 1.425 . S
C373 C370 1.409 . S
C373 C371 1.415 . S
C374 H364 0.930 . S
C374 C372 1.419 . S
C374 C375 1.362 . S
C375 H365 0.930 . S
C375 C368 1.409 . S
C375 C374 1.362 . S
H376 C382 0.930 . S
H377 C385 0.930 . S
H378 C386 0.930 . S
H379 C387 0.930 . S
H380 C390 0.930 . S
H381 C391 0.930 . S
C382 H376 0.930 . S
C382 C383 1.355 . S
C382 C384 1.415 . S
C383 C382 1.355 . S
C383 C385 1.419 . S
C384 C382 1.415 . S
C384 C389 1.425 . S
C384 C391 1.409 . S
C385 H377 0.930 . S
C385 C383 1.419 . S
C385 C386 1.362 . S
C386 H378 0.930 . S
C386 C385 1.362 . S
C386 C389 1.409 . S
C387 H379 0.930 . S
C387 C388 1.355 . S
C387 C389 1.415 . S
C388 C387 1.355 . S
C388 C390 1.419 . S
C389 C384 1.425 . S
C389 C386 1.409 . S
C389 C387 1.415 . S
C390 H380 0.930 . S
C390 C388 1.419 . S
C390 C391 1.362 . S
C391 H381 0.930 . S
C391 C384 1.409 . S
C391 C390 1.362 . S
H392 C398 0.930 . S
H393 C401 0.930 . S
H394 C402 0.930 . S
H395 C403 0.930 . S
H396 C406 0.930 . S
H397 C407 0.930 . S
C398 H392 0.930 . S
C398 C399 1.355 . S
C398 C400 1.415 . S
C399 C398 1.355 . S
C399 C401 1.419 . S
C400 C398 1.415 . S
C400 C405 1.425 . S
C400 C407 1.409 . S
C401 H393 0.930 . S
C401 C399 1.419 . S
C401 C402 1.362 . S
C402 H394 0.930 . S
C402 C401 1.362 . S
C402 C405 1.409 . S
C403 H395 0.930 . S
C403 C404 1.355 . S
C403 C405 1.415 . S
C404 C403 1.355 . S
C404 C406 1.419 . S
C405 C400 1.425 . S
C405 C402 1.409 . S
C405 C403 1.415 . S
C406 H396 0.930 . S
C406 C404 1.419 . S
C406 C407 1.362 . S
C407 H397 0.930 . S
C407 C400 1.409 . S
C407 C406 1.362 . S
H408 C414 0.930 . S
H409 C417 0.930 . S
H410 C418 0.930 . S
H411 C419 0.930 . S
H412 C422 0.930 . S
H413 C423 0.930 . S
C414 H408 0.930 . S
C414 C415 1.355 . S
C414 C416 1.415 . S
C415 C414 1.355 . S
C415 C417 1.419 . S
C416 C414 1.415 . S
C416 C421 1.425 . S
C416 C423 1.409 . S
C417 H409 0.930 . S
C417 C415 1.419 . S
C417 C418 1.362 . S
C418 H410 0.930 . S
C418 C417 1.362 . S
C418 C421 1.409 . S
C419 H411 0.930 . S
C419 C420 1.355 . S
C419 C421 1.415 . S
C420 C419 1.355 . S
C420 C422 1.419 . S
C421 C416 1.425 . S
C421 C418 1.409 . S
C421 C419 1.415 . S
C422 H412 0.930 . S
C422 C420 1.419 . S
C422 C423 1.362 . S
C423 H413 0.930 . S
C423 C416 1.409 . S
C423 C422 1.362 . S
H424 C430 0.930 . S
H425 C433 0.930 . S
H426 C434 0.930 . S
H427 C435 0.930 . S
H428 C438 0.930 . S
H429 C439 0.930 . S
C430 H424 0.930 . S
C430 C431 1.355 . S
C430 C432 1.415 . S
C431 C430 1.355 . S
C431 C433 1.419 . S
C432 C430 1.415 . S
C432 C437 1.425 . S
C432 C439 1.409 . S
C433 H425 0.930 . S
C433 C431 1.419 . S
C433 C434 1.362 . S
C434 H426 0.930 . S
C434 C433 1.362 . S
C434 C437 1.409 . S
C435 H427 0.930 . S
C435 C436 1.355 . S
C435 C437 1.415 . S
C436 C435 1.355 . S
C436 C438 1.419 . S
C437 C432 1.425 . S
C437 C434 1.409 . S
C437 C435 1.415 . S
C438 H428 0.930 . S
C438 C436 1.419 . S
C438 C439 1.362 . S
C439 H429 0.930 . S
C439 C432 1.409 . S
C439 C438 1.362 . S
H440 C446 0.930 . S
H441 C449 0.930 . S
H442 C450 0.930 . S
H443 C451 0.930 . S
H444 C454 0.930 . S
H445 C455 0.930 . S
C446 H440 0.930 . S
C446 C447 1.355 . S
C446 C448 1.415 . S
C447 C446 1.355 . S
C447 C449 1.419 . S
C448 C446 1.415 . S
C448 C453 1.425 . S
C448 C455 1.409 . S
C449 H441 0.930 . S
C449 C447 1.419 . S
C449 C450 1.362 . S
C450 H442 0.930 . S
C450 C449 1.362 . S
C450 C453 1.409 . S
C451 H443 0.930 . S
C451 C452 1.355 . S
C451 C453 1.415 . S
C452 C451 1.355 . S
C452 C454 1.419 . S
C453 C448 1.425 . S
C453 C450 1.409 . S
C453 C451 1.415 . S
C454 H444 0.930 . S
C454 C452 1.419 . S
C454 C455 1.362 . S
C455 H445 0.930 . S
C455 C448 1.409 . S
C455 C454 1.362 . S
H456 C462 0.930 . S
H457 C465 0.930 . S
H458 C466 0.930 . S
H459 C467 0.930 . S
H460 C470 0.930 . S
H461 C471 0.930 . S
C462 H456 0.930 . S
C462 C463 1.355 . S
C462 C464 1.415 . S
C463 C462 1.355 . S
C463 C465 1.419 . S
C464 C462 1.415 . S
C464 C469 1.425 . S
C464 C471 1.409 . S
C465 H457 0.930 . S
C465 C463 1.419 . S
C465 C466 1.362 . S
C466 H458 0.930 . S
C466 C465 1.362 . S
C466 C469 1.409 . S
C467 H459 0.930 . S
C467 C468 1.355 . S
C467 C469 1.415 . S
C468 C467 1.355 . S
C468 C470 1.419 . S
C469 C464 1.425 . S
C469 C466 1.409 . S
C469 C467 1.415 . S
C470 H460 0.930 . S
C470 C468 1.419 . S
C470 C471 1.362 . S
C471 H461 0.930 . S
C471 C464 1.409 . S
C471 C470 1.362 . S
H472 C478 0.930 . S
H473 C481 0.930 . S
H474 C482 0.930 . S
H475 C483 0.930 . S
H476 C486 0.930 . S
H477 C487 0.930 . S
C478 H472 0.930 . S
C478 C479 1.355 . S
C478 C480 1.415 . S
C479 C478 1.355 . S
C479 C481 1.419 . S
C480 C478 1.415 . S
C480 C485 1.425 . S
C480 C487 1.409 . S
C481 H473 0.930 . S
C481 C479 1.419 . S
C481 C482 1.362 . S
C482 H474 0.930 . S
C482 C481 1.362 . S
C482 C485 1.409 . S
C483 H475 0.930 . S
C483 C484 1.355 . S
C483 C485 1.415 . S
C484 C483 1.355 . S
C484 C486 1.419 . S
C485 C480 1.425 . S
C485 C482 1.409 . S
C485 C483 1.415 . S
C486 H476 0.930 . S
C486 C484 1.419 . S
C486 C487 1.362 . S
C487 H477 0.930 . S
C487 C480 1.409 . S
C487 C486 1.362 . S
H488 C494 0.930 . S
H489 C497 0.930 . S
H490 C498 0.930 . S
H491 C499 0.930 . S
H492 C502 0.930 . S
H493 C503 0.930 . S
C494 H488 0.930 . S
C494 C495 1.355 . S
C494 C496 1.415 1_455 S
C495 C494 1.355 . S
C495 C497 1.419 . S
C496 C494 1.415 1_655 S
C496 C501 1.425 1_645 S
C496 C503 1.409 . S
C497 H489 0.930 . S
C497 C495 1.419 . S
C497 C498 1.362 1_545 S
C498 H490 0.930 . S
C498 C497 1.362 1_565 S
C498 C501 1.409 . S
C499 H491 0.930 . S
C499 C500 1.355 . S
C499 C501 1.415 1_655 S
C500 C499 1.355 . S
C500 C502 1.419 . S
C501 C496 1.425 1_465 S
C501 C498 1.409 . S
C501 C499 1.415 1_455 S
C502 H492 0.930 . S
C502 C500 1.419 . S
C502 C503 1.362 1_565 S
C503 H493 0.930 . S
C503 C496 1.409 . S
C503 C502 1.362 1_545 S
H504 C510 0.930 . S
H505 C513 0.930 . S
H506 C514 0.930 . S
H507 C515 0.930 . S
H508 C518 0.930 . S
H509 C519 0.930 . S
C510 H504 0.930 . S
C510 C511 1.355 . S
C510 C512 1.415 . S
C511 C510 1.355 . S
C511 C513 1.419 . S
C512 C510 1.415 . S
C512 C517 1.425 1_645 S
C512 C519 1.409 1_645 S
C513 H505 0.930 . S
C513 C511 1.419 . S
C513 C514 1.362 . S
C514 H506 0.930 . S
C514 C513 1.362 . S
C514 C517 1.409 1_645 S
C515 H507 0.930 . S
C515 C516 1.355 . S
C515 C517 1.415 . S
C516 C515 1.355 . S
C516 C518 1.419 . S
C517 C512 1.425 1_465 S
C517 C514 1.409 1_465 S
C517 C515 1.415 . S
C518 H508 0.930 . S
C518 C516 1.419 . S
C518 C519 1.362 . S
C519 H509 0.930 . S
C519 C512 1.409 1_465 S
C519 C518 1.362 . S
H520 C526 0.930 . S
H521 C529 0.930 . S
H522 C530 0.930 . S
H523 C531 0.930 . S
H524 C534 0.930 . S
H525 C535 0.930 . S
C526 H520 0.930 . S
C526 C527 1.355 . S
C526 C528 1.415 . S
C527 C526 1.355 . S
C527 C529 1.419 . S
C528 C526 1.415 . S
C528 C533 1.425 . S
C528 C535 1.409 . S
C529 H521 0.930 . S
C529 C527 1.419 . S
C529 C530 1.362 . S
C530 H522 0.930 . S
C530 C529 1.362 . S
C530 C533 1.409 . S
C531 H523 0.930 . S
C531 C532 1.355 . S
C531 C533 1.415 . S
C532 C531 1.355 . S
C532 C534 1.419 . S
C533 C528 1.425 . S
C533 C530 1.409 . S
C533 C531 1.415 . S
C534 H524 0.930 . S
C534 C532 1.419 . S
C534 C535 1.362 . S
C535 H525 0.930 . S
C535 C528 1.409 . S
C535 C534 1.362 . S
H536 C542 0.930 . S
H537 C545 0.930 . S
H538 C546 0.930 . S
H539 C547 0.930 . S
H540 C550 0.930 . S
H541 C551 0.930 . S
C542 H536 0.930 . S
C542 C543 1.355 . S
C542 C544 1.415 . S
C543 C542 1.355 . S
C543 C545 1.419 . S
C544 C542 1.415 . S
C544 C549 1.425 . S
C544 C551 1.409 . S
C545 H537 0.930 . S
C545 C543 1.419 . S
C545 C546 1.362 . S
C546 H538 0.930 . S
C546 C545 1.362 . S
C546 C549 1.409 . S
C547 H539 0.930 . S
C547 C548 1.355 . S
C547 C549 1.415 . S
C548 C547 1.355 . S
C548 C550 1.419 . S
C549 C544 1.425 . S
C549 C546 1.409 . S
C549 C547 1.415 . S
C550 H540 0.930 . S
C550 C548 1.419 . S
C550 C551 1.362 . S
C551 H541 0.930 . S
C551 C544 1.409 . S
C551 C550 1.362 . S
H552 C558 0.930 . S
H553 C561 0.930 . S
H554 C562 0.930 1_565 S
H555 C563 0.930 . S
H556 C566 0.930 . S
H557 C567 0.930 1_545 S
C558 H552 0.930 . S
C558 C559 1.355 . S
C558 C560 1.415 1_554 S
C559 C558 1.355 . S
C559 C561 1.419 . S
C560 C558 1.415 1_556 S
C560 C565 1.425 1_546 S
C560 C567 1.409 1_545 S
C561 H553 0.930 . S
C561 C559 1.419 . S
C561 C562 1.362 . S
C562 H554 0.930 1_545 S
C562 C561 1.362 . S
C562 C565 1.409 1_545 S
C563 H555 0.930 . S
C563 C564 1.355 . S
C563 C565 1.415 1_556 S
C564 C563 1.355 . S
C564 C566 1.419 . S
C565 C560 1.425 1_564 S
C565 C562 1.409 1_565 S
C565 C563 1.415 1_554 S
C566 H556 0.930 . S
C566 C564 1.419 . S
C566 C567 1.362 . S
C567 H557 0.930 1_565 S
C567 C560 1.409 1_565 S
C567 C566 1.362 . S
H568 C574 0.930 . S
H569 C577 0.930 . S
H570 C578 0.930 . S
H571 C579 0.930 . S
H572 C582 0.930 . S
H573 C583 0.930 . S
C574 H568 0.930 . S
C574 C575 1.355 . S
C574 C576 1.415 1_556 S
C575 C574 1.355 . S
C575 C577 1.419 . S
C576 C574 1.415 1_554 S
C576 C581 1.425 1_454 S
C576 C583 1.409 . S
C577 H569 0.930 . S
C577 C575 1.419 . S
C577 C578 1.362 1_455 S
C578 H570 0.930 . S
C578 C577 1.362 1_655 S
C578 C581 1.409 . S
C579 H571 0.930 . S
C579 C580 1.355 . S
C579 C581 1.415 1_554 S
C580 C579 1.355 . S
C580 C582 1.419 . S
C581 C576 1.425 1_656 S
C581 C578 1.409 . S
C581 C579 1.415 1_556 S
C582 H572 0.930 . S
C582 C580 1.419 . S
C582 C583 1.362 1_655 S
C583 H573 0.930 . S
C583 C576 1.409 . S
C583 C582 1.362 1_455 S
H584 C590 0.930 . S
H585 C593 0.930 1_554 S
H586 C594 0.930 . S
H587 C595 0.930 . S
H588 C598 0.930 1_556 S
H589 C599 0.930 . S
C590 H584 0.930 . S
C590 C591 1.355 . S
C590 C592 1.415 1_545 S
C591 C590 1.355 . S
C591 C593 1.419 . S
C592 C590 1.415 1_565 S
C592 C597 1.425 1_566 S
C592 C599 1.409 . S
C593 H585 0.930 1_556 S
C593 C591 1.419 . S
C593 C594 1.362 1_556 S
C594 H586 0.930 . S
C594 C593 1.362 1_554 S
C594 C597 1.409 . S
C595 H587 0.930 . S
C595 C596 1.355 . S
C595 C597 1.415 1_565 S
C596 C595 1.355 . S
C596 C598 1.419 . S
C597 C592 1.425 1_544 S
C597 C594 1.409 . S
C597 C595 1.415 1_545 S
C598 H588 0.930 1_554 S
C598 C596 1.419 . S
C598 C599 1.362 1_554 S
C599 H589 0.930 . S
C599 C592 1.409 . S
C599 C598 1.362 1_556 S
H600 C606 0.930 . S
H601 C609 0.930 . S
H602 C610 0.930 . S
H603 C611 0.930 . S
H604 C614 0.930 . S
H605 C615 0.930 . S
C606 H600 0.930 . S
C606 C607 1.355 . S
C606 C608 1.415 1_455 S
C607 C606 1.355 . S
C607 C609 1.419 . S
C608 C606 1.415 1_655 S
C608 C613 1.425 1_654 S
C608 C615 1.409 . S
C609 H601 0.930 . S
C609 C607 1.419 . S
C609 C610 1.362 1_554 S
C610 H602 0.930 . S
C610 C609 1.362 1_556 S
C610 C613 1.409 . S
C611 H603 0.930 . S
C611 C612 1.355 . S
C611 C613 1.415 1_655 S
C612 C611 1.355 . S
C612 C614 1.419 . S
C613 C608 1.425 1_456 S
C613 C610 1.409 . S
C613 C611 1.415 1_455 S
C614 H604 0.930 . S
C614 C612 1.419 . S
C614 C615 1.362 1_556 S
C615 H605 0.930 . S
C615 C608 1.409 . S
C615 C614 1.362 1_554 S
H616 C622 0.930 . S
H617 C625 0.930 . S
H618 C626 0.930 . S
H619 C627 0.930 . S
H620 C630 0.930 . S
H621 C631 0.930 . S
C622 H616 0.930 . S
C622 C623 1.355 . S
C622 C624 1.415 . S
C623 C622 1.355 . S
C623 C625 1.419 . S
C624 C622 1.415 . S
C624 C629 1.425 . S
C624 C631 1.409 . S
C625 H617 0.930 . S
C625 C623 1.419 . S
C625 C626 1.362 . S
C626 H618 0.930 . S
C626 C625 1.362 . S
C626 C629 1.409 . S
C627 H619 0.930 . S
C627 C628 1.355 . S
C627 C629 1.415 . S
C628 C627 1.355 . S
C628 C630 1.419 . S
C629 C624 1.425 . S
C629 C626 1.409 . S
C629 C627 1.415 . S
C630 H620 0.930 . S
C630 C628 1.419 . S
C630 C631 1.362 . S
C631 H621 0.930 . S
C631 C624 1.409 . S
C631 C630 1.362 . S
H632 C638 0.930 . S
H633 C641 0.930 . S
H634 C642 0.930 . S
H635 C643 0.930 . S
H636 C646 0.930 . S
H637 C647 0.930 . S
C638 H632 0.930 . S
C638 C639 1.355 . S
C638 C640 1.415 . S
C639 C638 1.355 . S
C639 C641 1.419 . S
C640 C638 1.415 . S
C640 C645 1.425 . S
C640 C647 1.409 . S
C641 H633 0.930 . S
C641 C639 1.419 . S
C641 C642 1.362 . S
C642 H634 0.930 . S
C642 C641 1.362 . S
C642 C645 1.409 . S
C643 H635 0.930 . S
C643 C644 1.355 . S
C643 C645 1.415 . S
C644 C643 1.355 . S
C644 C646 1.419 . S
C645 C640 1.425 . S
C645 C642 1.409 . S
C645 C643 1.415 . S
C646 H636 0.930 . S
C646 C644 1.419 . S
C646 C647 1.362 . S
C647 H637 0.930 . S
C647 C640 1.409 . S
C647 C646 1.362 . S
H648 C654 0.930 . S
H649 C657 0.930 . S
H650 C658 0.930 . S
H651 C659 0.930 . S
H652 C662 0.930 . S
H653 C663 0.930 . S
C654 H648 0.930 . S
C654 C655 1.355 . S
C654 C656 1.415 . S
C655 C654 1.355 . S
C655 C657 1.419 . S
C656 C654 1.415 . S
C656 C661 1.425 . S
C656 C663 1.409 . S
C657 H649 0.930 . S
C657 C655 1.419 . S
C657 C658 1.362 . S
C658 H650 0.930 . S
C658 C657 1.362 . S
C658 C661 1.409 . S
C659 H651 0.930 . S
C659 C660 1.355 . S
C659 C661 1.415 . S
C660 C659 1.355 . S
C660 C662 1.419 . S
C661 C656 1.425 . S
C661 C658 1.409 . S
C661 C659 1.415 . S
C662 H652 0.930 . S
C662 C660 1.419 . S
C662 C663 1.362 . S
C663 H653 0.930 . S
C663 C656 1.409 . S
C663 C662 1.362 . S
H664 C670 0.930 . S
H665 C673 0.930 . S
H666 C674 0.930 . S
H667 C675 0.930 . S
H668 C678 0.930 . S
H669 C679 0.930 . S
C670 H664 0.930 . S
C670 C671 1.355 . S
C670 C672 1.415 . S
C671 C670 1.355 . S
C671 C673 1.419 . S
C672 C670 1.415 . S
C672 C677 1.425 . S
C672 C679 1.409 . S
C673 H665 0.930 . S
C673 C671 1.419 . S
C673 C674 1.362 . S
C674 H666 0.930 . S
C674 C673 1.362 . S
C674 C677 1.409 . S
C675 H667 0.930 . S
C675 C676 1.355 . S
C675 C677 1.415 . S
C676 C675 1.355 . S
C676 C678 1.419 . S
C677 C672 1.425 . S
C677 C674 1.409 . S
C677 C675 1.415 . S
C678 H668 0.930 . S
C678 C676 1.419 . S
C678 C679 1.362 . S
C679 H669 0.930 . S
C679 C672 1.409 . S
C679 C678 1.362 . S
C239 C3 1.719 . S
C244 C218 1.747 . S
C255 C39 2.073 . S
C260 C129 2.098 . S
C271 C160 1.746 . S
C276 C61 1.753 . S
C287 C97 2.064 . S
C292 C187 2.132 . S
C303 C32 1.718 . S
C308 C189 1.774 . S
C319 C216 2.080 . S
C324 C68 2.091 . S
C335 C90 1.715 . S
C340 C131 1.771 . S
C351 C158 2.068 . S
C356 C10 2.114 . S
C367 C119 1.761 . S
C372 C102 1.754 . S
C383 C13 2.136 . S
C388 C155 2.077 . S
C399 C44 1.770 . S
C404 C177 1.714 . S
C415 C213 2.074 . S
C420 C71 2.136 . S
C431 C148 1.710 . S
C436 C73 1.761 . S
C447 C184 2.081 . S
C452 C100 2.135 . S
C463 C206 1.711 . S
C468 C15 1.764 . S
C479 C42 2.134 . S
C484 C126 2.066 . S
C495 C21 0.458 . S
C500 C79 0.587 . S
C511 C108 0.623 . S
C516 C50 0.412 . S
C527 C137 0.458 . S
C532 C195 0.587 . S
C543 C166 0.458 . S
C548 C224 0.587 . S
C559 C5 1.723 . S
C564 C34 1.681 . S
C575 C37 0.969 . S
C580 C66 1.005 . S
C591 C92 1.691 . S
C596 C63 1.665 . S
C607 C8 1.000 . S
C612 C95 0.931 . S
C623 C150 1.666 . S
C628 C121 1.690 . S
C639 C182 0.878 . S
C644 C153 1.061 . S
C655 C179 1.694 . S
C660 C208 1.716 . S
C671 C124 1.036 . S
C676 C211 0.932 . S
