# Generated by pormake.
# Topology sxb, (6)-cn, num edge types: 1
# Building blocks:
#     Node 0, Type 0, BuildingBlock: VOLQOD_clean_sbu_1, # of connection points: 6
#     Node 1, Type 0, BuildingBlock: VOLQOD_clean_sbu_1, # of connection points: 6
#     Node 2, Type 0, BuildingBlock: VOLQOD_clean_sbu_1, # of connection points: 6
#     Node 3, Type 0, BuildingBlock: VOLQOD_clean_sbu_1, # of connection points: 6
#     Edge 4, Type (0, 0), BuildingBlock: KIFKEQ_clean_linker_1, # of connection points: 2
#     Edge 5, Type (0, 0), BuildingBlock: KIFKEQ_clean_linker_1, # of connection points: 2
#     Edge 6, Type (0, 0), BuildingBlock: KIFKEQ_clean_linker_1, # of connection points: 2
#     Edge 7, Type (0, 0), BuildingBlock: KIFKEQ_clean_linker_1, # of connection points: 2
#     Edge 8, Type (0, 0), BuildingBlock: KIFKEQ_clean_linker_1, # of connection points: 2
#     Edge 9, Type (0, 0), BuildingBlock: KIFKEQ_clean_linker_1, # of connection points: 2
#     Edge 10, Type (0, 0), BuildingBlock: KIFKEQ_clean_linker_1, # of connection points: 2
#     Edge 11, Type (0, 0), BuildingBlock: KIFKEQ_clean_linker_1, # of connection points: 2
#     Edge 12, Type (0, 0), BuildingBlock: KIFKEQ_clean_linker_1, # of connection points: 2
#     Edge 13, Type (0, 0), BuildingBlock: KIFKEQ_clean_linker_1, # of connection points: 2
#     Edge 14, Type (0, 0), BuildingBlock: KIFKEQ_clean_linker_1, # of connection points: 2
#     Edge 15, Type (0, 0), BuildingBlock: KIFKEQ_clean_linker_1, # of connection points: 2
# Relax obj value: 0.285
# Max RMSD: 0.223
# Mean RMSD: 0.222
data_MOF--net-sxb--node1-VOLQOD_clean_sbu_1--edge1-KIFKEQ_clean_linker_1
_symmetry_space_group_name_H-M    P1
_symmetry_Int_Tables_number       1
_symmetry_cell_setting            triclinic
loop_
_symmetry_equiv_pos_as_xyz
'x, y, z'
_cell_length_a     15.944898
_cell_length_b     30.899196
_cell_length_c     35.005434
_cell_angle_alpha  90.026752
_cell_angle_beta   90.635056
_cell_angle_gamma 89.792475
loop_
_atom_site_label
_atom_site_type_symbol
_atom_site_fract_x
_atom_site_fract_y
_atom_site_fract_z
_atom_type_partial_charge
O0 O -0.03082 0.96827 0.91216 0.0
Zn1 Zn 0.9415 0.95536 0.96694 0.0
O2 O -0.02882 0.00374 0.00016 0.0
Zn3 Zn 0.06394 0.98883 0.03328 0.0
Zn4 Zn -0.00071 0.05273 0.96761 0.0
Zn5 Zn 0.87967 0.01786 0.03335 0.0
O6 O 0.0421 -0.00165 0.08912 0.0
O7 O 0.9044 0.00808 0.08913 0.0
O8 O 0.00375 0.90101 0.98264 0.0
O9 O 0.09338 0.9264 0.02623 0.0
O10 O 0.1641 0.02155 0.01812 0.0
O11 O 0.12448 0.06201 0.96853 0.0
O12 O 0.93533 0.10642 0.98315 0.0
O13 O 0.81608 0.94705 0.96679 0.0
O14 O 0.84836 0.08011 0.02654 0.0
O15 O 0.77914 0.98487 0.01803 0.0
C16 C -0.02906 0.00424 0.89448 0.0
C17 C -0.02633 0.00315 0.10698 0.0
C18 C 0.18081 0.04773 0.99132 0.0
C19 C 0.06485 0.89545 0.00597 0.0
C20 C 0.87494 0.11135 0.00637 0.0
C21 C 0.76096 0.96013 0.99018 0.0
O22 O -0.02773 0.0401 0.9124 0.0
O23 O -0.0204 0.96736 0.41255 0.0
Zn24 Zn 0.00517 0.95475 0.46792 0.0
O25 O -0.02452 0.00402 0.50019 0.0
Zn26 Zn 0.06733 0.01943 0.5337 0.0
Zn27 Zn 0.94562 0.05252 0.46687 0.0
Zn28 Zn 0.88341 0.98948 0.53284 0.0
O29 O 0.04405 0.01036 0.58951 0.0
O30 O 0.90701 -0.00124 0.58874 0.0
O31 O 0.13057 0.94565 0.46965 0.0
O32 O 0.16824 0.98643 0.5193 0.0
O33 O 0.09702 0.08182 0.52628 0.0
O34 O 0.00819 0.10689 0.4821 0.0
O35 O 0.82014 0.06137 0.4668 0.0
O36 O 0.94117 0.90085 0.48283 0.0
O37 O 0.78303 0.0229 0.51753 0.0
O38 O 0.85223 0.92732 0.52543 0.0
C39 C -0.0235 0.00312 0.39453 0.0
C40 C -0.02454 0.00461 0.60697 0.0
C41 C 0.06898 0.11259 0.50555 0.0
C42 C 0.1861 0.96013 0.49267 0.0
C43 C 0.76495 0.04813 0.48999 0.0
C44 C 0.87968 0.89602 0.50543 0.0
O45 O -0.02722 0.03915 0.41211 0.0
O46 O 0.46192 0.46633 0.91162 0.0
Zn47 Zn 0.43533 0.45313 0.96653 0.0
O48 O 0.46405 0.50176 -0.00026 0.0
Zn49 Zn 0.5562 0.48731 0.03338 0.0
Zn50 Zn 0.49302 0.55051 0.96718 0.0
Zn51 Zn 0.37193 0.51628 0.03242 0.0
O52 O 0.53303 0.4972 0.08905 0.0
O53 O 0.39528 0.50674 0.08836 0.0
O54 O 0.49928 0.39922 0.98218 0.0
O55 O 0.58649 0.42498 0.02663 0.0
O56 O 0.65681 0.51991 0.01852 0.0
O57 O 0.6184 0.55881 0.96779 0.0
O58 O 0.43084 0.60465 0.98289 0.0
O59 O 0.31009 0.44386 0.96659 0.0
O60 O 0.34162 0.57865 0.02545 0.0
O61 O 0.27178 0.48327 0.0167 0.0
C62 C 0.46307 0.50239 0.89406 0.0
C63 C 0.46418 0.50206 0.10656 0.0
C64 C 0.67427 0.5451 0.99109 0.0
C65 C 0.55962 0.39396 0.00598 0.0
C66 C 0.36979 0.60986 0.00569 0.0
C67 C 0.25442 0.45754 0.98945 0.0
O68 O 0.46472 0.53816 0.91211 0.0
O69 O 0.46944 0.46982 0.41215 0.0
Zn70 Zn 0.49715 0.45737 0.46729 0.0
O71 O 0.46712 0.50631 0.49977 0.0
Zn72 Zn 0.55893 0.52117 0.5335 0.0
Zn73 Zn 0.43771 0.55515 0.46666 0.0
Zn74 Zn 0.37499 0.4913 0.53222 0.0
O75 O 0.53509 0.51192 0.58921 0.0
O76 O 0.398 0.50048 0.58819 0.0
O77 O 0.62272 0.44919 0.46831 0.0
O78 O 0.65987 0.48809 0.51919 0.0
O79 O 0.5897 0.58339 0.52621 0.0
O80 O 0.50236 0.60902 0.48167 0.0
O81 O 0.31241 0.56492 0.46722 0.0
O82 O 0.43527 0.40298 0.48255 0.0
O83 O 0.27462 0.52459 0.51673 0.0
O84 O 0.34497 0.42896 0.52478 0.0
C85 C 0.46574 0.50555 0.39411 0.0
C86 C 0.46635 0.50616 0.60655 0.0
C87 C 0.563 0.6143 0.50528 0.0
C88 C 0.67807 0.4629 0.49179 0.0
C89 C 0.25696 0.55089 0.48993 0.0
C90 C 0.3737 0.39776 0.50503 0.0
O91 O 0.46287 0.54162 0.41166 0.0
H92 H 0.42735 0.68872 0.98196 0.0
H93 H 0.21419 0.62651 0.03361 0.0
H94 H 0.35225 0.75793 0.98321 0.0
H95 H 0.13949 0.69546 0.0344 0.0
H96 H 0.00679 0.81693 0.98092 0.0
H97 H 0.08172 0.74765 0.98202 0.0
H98 H 0.29498 0.80925 0.03579 0.0
H99 H 0.22046 0.87826 0.03515 0.0
C100 C 0.36477 0.68983 -0.00635 0.0
C101 C 0.32683 0.65221 0.00776 0.0
C102 C 0.32199 0.72938 -0.00555 0.0
C103 C 0.24013 0.7318 0.00877 0.0
C104 C 0.2023 0.69429 0.02294 0.0
C105 C 0.24543 0.65495 0.02271 0.0
C106 C 0.06944 0.81561 0.99315 0.0
C107 C 0.10759 0.85301 0.00802 0.0
C108 C 0.11212 0.77602 -0.00614 0.0
C109 C 0.19409 0.77335 0.00885 0.0
C110 C 0.23209 0.81062 0.0238 0.0
C111 C 0.18907 0.84999 0.02366 0.0
H112 H 0.50464 0.31494 0.98064 0.0
H113 H 0.71541 0.37817 0.0355 0.0
H114 H 0.58211 0.24636 0.98182 0.0
H115 H 0.79246 0.30991 0.03617 0.0
H116 H 0.92956 0.19067 0.98229 0.0
H117 H 0.85184 0.25915 0.98327 0.0
H118 H 0.64155 0.19482 0.03476 0.0
H119 H 0.71888 0.12662 0.03429 0.0
C120 C 0.56718 0.31418 0.99302 0.0
C121 C 0.60377 0.3519 0.00807 0.0
C122 C 0.61131 0.275 -0.00623 0.0
C123 C 0.6932 0.2731 0.00894 0.0
C124 C 0.72966 0.3107 0.02404 0.0
C125 C 0.68518 0.34964 0.02389 0.0
C126 C 0.86697 0.19122 -0.006 0.0
C127 C 0.8305 0.15331 0.00831 0.0
C128 C 0.82269 0.23034 -0.00537 0.0
C129 C 0.74077 0.23201 0.00896 0.0
C130 C 0.70439 0.19421 0.0233 0.0
C131 C 0.74902 0.15532 0.02326 0.0
H132 H 0.01138 0.1911 0.47965 0.0
H133 H 0.22469 0.1296 0.53463 0.0
H134 H 0.08628 0.26014 0.48031 0.0
H135 H 0.29925 0.19836 0.5348 0.0
H136 H 0.43217 0.3186 0.48157 0.0
H137 H 0.35743 0.24951 0.48255 0.0
H138 H 0.1429 0.31264 0.53236 0.0
H139 H 0.21724 0.38142 0.53187 0.0
C140 C 0.07397 0.19232 0.49194 0.0
C141 C 0.11192 0.15493 0.50719 0.0
C142 C 0.11666 0.23178 0.49239 0.0
C143 C 0.19855 0.23438 0.50748 0.0
C144 C 0.23645 0.19708 0.52272 0.0
C145 C 0.19338 0.15785 0.52286 0.0
C146 C 0.36925 0.31767 0.49289 0.0
C147 C 0.33079 0.35544 0.50674 0.0
C148 C 0.32666 0.27817 0.49353 0.0
C149 C 0.2444 0.27593 0.50741 0.0
C150 C 0.206 0.31362 0.52124 0.0
C151 C 0.24894 0.35288 0.52119 0.0
H152 H 0.93494 0.81636 0.48161 0.0
H153 H 0.72244 0.88127 0.532 0.0
H154 H 0.85723 0.74811 0.48217 0.0
H155 H 0.64516 0.81336 0.53205 0.0
H156 H 0.50873 0.69337 0.47914 0.0
H157 H 0.58655 0.76157 0.47973 0.0
H158 H 0.79674 0.69754 0.53444 0.0
H159 H 0.71929 0.62966 0.53436 0.0
C160 C 0.87193 0.81606 0.49285 0.0
C161 C 0.83504 0.85416 0.50689 0.0
C162 C 0.82763 0.77705 0.49325 0.0
C163 C 0.7452 0.77566 0.50703 0.0
C164 C 0.70835 0.81369 0.52099 0.0
C165 C 0.75299 0.85245 0.52121 0.0
C166 C 0.57134 0.69393 0.49146 0.0
C167 C 0.60764 0.65617 0.50683 0.0
C168 C 0.61571 0.73291 0.49186 0.0
C169 C 0.69766 0.73462 0.507 0.0
C170 C 0.73394 0.69695 0.52232 0.0
C171 C 0.6892 0.65822 0.52252 0.0
H172 H 0.30906 0.06875 0.03865 0.0
H173 H 0.25022 0.02976 0.92311 0.0
H174 H 0.45164 0.04173 0.03141 0.0
H175 H 0.39215 0.00085 0.9162 0.0
H176 H 0.63466 0.93769 0.03679 0.0
H177 H 0.49197 0.96524 0.0303 0.0
H178 H 0.54643 0.0103 0.91641 0.0
H179 H 0.68848 0.98091 0.92252 0.0
C180 C 0.32801 0.05608 0.01117 0.0
C181 C 0.26929 0.05114 0.9815 0.0
C182 C 0.40876 0.03965 0.00726 0.0
C183 C 0.43135 0.01735 0.97387 0.0
C184 C 0.37588 0.0173 0.94244 0.0
C185 C 0.29514 0.03442 0.9462 0.0
C186 C 0.61456 0.95144 0.00971 0.0
C187 C 0.67196 0.95737 0.98023 0.0
C188 C 0.53376 0.96816 0.00625 0.0
C189 C 0.50978 0.99173 0.97353 0.0
C190 C 0.56381 -0.00713 0.94215 0.0
C191 C 0.6446 0.97547 0.94544 0.0
H192 H 0.2558 0.9765 0.42425 0.0
H193 H 0.31468 0.94134 0.54077 0.0
H194 H 0.39685 0.0058 0.41695 0.0
H195 H 0.45649 0.96874 0.53318 0.0
H196 H 0.63891 0.07224 0.5363 0.0
H197 H 0.49637 0.04481 0.53046 0.0
H198 H 0.55066 -0.00303 0.41732 0.0
H199 H 0.69238 0.02634 0.42273 0.0
C200 C 0.30059 0.97277 0.44754 0.0
C201 C 0.27489 0.957 0.48316 0.0
C202 C 0.38083 0.99014 0.44355 0.0
C203 C 0.43604 0.99128 0.47505 0.0
C204 C 0.41376 0.96995 0.50892 0.0
C205 C 0.33348 0.95328 0.51306 0.0
C206 C 0.61871 0.05795 0.50947 0.0
C207 C 0.67598 0.05124 0.48003 0.0
C208 C 0.53803 0.04127 0.50641 0.0
C209 C 0.51409 0.01694 0.47414 0.0
C210 C 0.56795 0.01502 0.44272 0.0
C211 C 0.64856 0.0324 0.44559 0.0
H212 H 0.80322 0.56492 0.03845 0.0
H213 H 0.74332 0.52653 0.92285 0.0
H214 H 0.94527 0.53724 0.03106 0.0
H215 H 0.88476 0.49702 0.91578 0.0
H216 H 0.12881 0.43388 0.03595 0.0
H217 H -0.01442 0.46074 0.02958 0.0
H218 H 0.03908 0.50653 0.91581 0.0
H219 H 0.18164 0.47779 0.92179 0.0
C220 C 0.82181 0.55218 0.01095 0.0
C221 C 0.76292 0.54766 0.98129 0.0
C222 C 0.90225 0.53538 0.00695 0.0
C223 C 0.92441 0.51315 0.97346 0.0
C224 C 0.8688 0.5134 0.94209 0.0
C225 C 0.78835 0.53087 0.94594 0.0
C226 C 0.10837 0.44758 0.00889 0.0
C227 C 0.16561 0.45396 0.97943 0.0
C228 C 0.02725 0.46391 0.00551 0.0
C229 C 0.00285 0.48754 0.97288 0.0
C230 C 0.05676 0.48903 0.94148 0.0
C231 C 0.13786 0.47201 0.94468 0.0
H232 H 0.18392 0.53096 0.42236 0.0
H233 H 0.13149 0.57471 0.53669 0.0
H234 H 0.04183 0.50216 0.4166 0.0
H235 H -0.01143 0.54787 0.53053 0.0
H236 H 0.80721 0.44376 0.53947 0.0
H237 H 0.94865 0.47174 0.53216 0.0
H238 H 0.88798 0.51107 0.41662 0.0
H239 H 0.74726 0.48122 0.4236 0.0
C240 C 0.14026 0.53672 0.44534 0.0
C241 C 0.16807 0.55473 0.48006 0.0
C242 C 0.05941 0.51966 0.44227 0.0
C243 C 0.00573 0.52109 0.47377 0.0
C244 C 0.03007 0.54472 0.50638 0.0
C245 C 0.11099 0.56107 0.50964 0.0
C246 C 0.82568 0.45637 0.51194 0.0
C247 C 0.76689 0.46052 0.48216 0.0
C248 C 0.90575 0.47337 0.50798 0.0
C249 C 0.92766 0.49544 0.47443 0.0
C250 C 0.87224 0.49483 0.44299 0.0
C251 C 0.79221 0.47716 0.44679 0.0
H252 H 0.92979 0.93735 0.34685 0.0
H253 H 0.02433 0.06828 0.34699 0.0
H254 H 0.92902 0.93737 0.27693 0.0
H255 H 0.02497 0.06777 0.27709 0.0
H256 H 0.10556 0.02093 0.15477 0.0
H257 H 0.10655 0.02103 0.2247 0.0
H258 H 0.84578 0.98416 0.22434 0.0
H259 H 0.84391 0.98485 0.15444 0.0
C260 C 0.95077 0.96601 0.33197 0.0
C261 C -0.023 0.00285 0.35235 0.0
C262 C 0.94994 0.96604 0.29205 0.0
C263 C -0.02303 0.00256 0.27186 0.0
C264 C 0.00423 0.03918 0.29214 0.0
C265 C 0.00344 0.0395 0.33205 0.0
C266 C 0.04847 0.01285 0.16962 0.0
C267 C -0.02539 0.00293 0.14918 0.0
C268 C 0.04903 0.0131 0.20953 0.0
C269 C -0.02372 0.00256 0.22967 0.0
C270 C 0.90272 -0.00782 0.20933 0.0
C271 C 0.90164 -0.00721 0.16943 0.0
H272 H 0.92025 0.06916 0.8466 0.0
H273 H 0.02353 0.93964 0.84717 0.0
H274 H 0.92105 0.06914 0.77669 0.0
H275 H 0.02576 0.94017 0.77727 0.0
H276 H 0.10713 0.98872 0.65557 0.0
H277 H 0.10588 0.98832 0.72549 0.0
H278 H 0.84263 0.02121 0.72351 0.0
H279 H 0.84304 0.0208 0.65363 0.0
C280 C 0.94342 0.04081 0.83181 0.0
C281 C -0.02826 0.00438 0.8523 0.0
C282 C 0.94351 0.04077 0.7919 0.0
C283 C -0.02646 0.00468 0.77183 0.0
C284 C 0.0027 0.96844 0.79223 0.0
C285 C 0.001 0.9681 0.83212 0.0
C286 C 0.04902 -0.00413 0.67006 0.0
C287 C -0.02485 0.00475 0.64917 0.0
C288 C 0.0483 -0.00456 0.70997 0.0
C289 C -0.02581 0.00477 0.72965 0.0
C290 C 0.90059 0.01412 0.70886 0.0
C291 C 0.90084 0.01368 0.66896 0.0
H292 H 0.51225 0.57051 0.34605 0.0
H293 H 0.41759 0.43962 0.34693 0.0
H294 H 0.51236 0.56939 0.27614 0.0
H295 H 0.4163 0.43902 0.27702 0.0
H296 H 0.33345 0.48442 0.15372 0.0
H297 H 0.33393 0.48496 0.22363 0.0
H298 H 0.59463 0.52196 0.22454 0.0
H299 H 0.59505 0.52064 0.15465 0.0
C300 C 0.49112 0.54163 0.33133 0.0
C301 C 0.46499 0.50513 0.35192 0.0
C302 C 0.49159 0.54096 0.29142 0.0
C303 C 0.46431 0.50413 0.27143 0.0
C304 C 0.43724 0.46784 0.29191 0.0
C305 C 0.43838 0.46816 0.33182 0.0
C306 C 0.39087 0.49264 0.16884 0.0
C307 C 0.46425 0.50245 0.14876 0.0
C308 C 0.39114 0.49275 0.20875 0.0
C309 C 0.46427 0.50355 0.22924 0.0
C310 C 0.53741 0.51375 0.20926 0.0
C311 C 0.53766 0.51278 0.16936 0.0
H312 H 0.33373 0.52184 0.65327 0.0
H313 H 0.59778 0.48964 0.65509 0.0
H314 H 0.33304 0.5212 0.72316 0.0
H315 H 0.59624 0.48821 0.72498 0.0
H316 H 0.51473 0.43815 0.84612 0.0
H317 H 0.51619 0.43939 0.77621 0.0
H318 H 0.41126 0.56831 0.77689 0.0
H319 H 0.41121 0.56761 0.84679 0.0
C320 C 0.39146 0.51448 0.66858 0.0
C321 C 0.46585 0.50582 0.64875 0.0
C322 C 0.39104 0.51431 0.70848 0.0
C323 C 0.46454 0.5046 0.72922 0.0
C324 C 0.53873 0.49556 0.70949 0.0
C325 C 0.53961 0.4966 0.6696 0.0
C326 C 0.49193 0.46673 0.83135 0.0
C327 C 0.46292 0.50281 0.85187 0.0
C328 C 0.49318 0.46748 0.79145 0.0
C329 C 0.46383 0.50393 0.7714 0.0
C330 C 0.43386 0.53978 0.79182 0.0
C331 C 0.43421 0.53941 0.83173 0.0
loop_
_geom_bond_atom_site_label_1
_geom_bond_atom_site_label_2
_geom_bond_distance
_geom_bond_site_symmetry_2
_ccdc_geom_bond_type
O0 Zn1 1.953 . S
O0 C16 1.225 1_665 S
Zn1 O0 1.953 . S
Zn1 O2 1.949 1_666 S
Zn1 O8 1.919 1_655 S
Zn1 O13 1.924 . S
O2 Zn1 1.949 1_444 S
O2 Zn3 1.923 1_545 S
O2 Zn4 1.950 1_554 S
O2 Zn5 1.945 1_455 S
Zn3 O2 1.923 1_565 S
Zn3 O6 1.933 1_565 S
Zn3 O9 1.941 . S
Zn3 O10 1.965 1_565 S
Zn4 O2 1.950 1_556 S
Zn4 O11 1.938 . S
Zn4 O12 1.906 . S
Zn4 O22 1.953 . S
Zn5 O2 1.945 1_655 S
Zn5 O7 1.932 . S
Zn5 O14 1.977 . S
Zn5 O15 1.910 . S
O6 Zn3 1.933 1_545 S
O6 C17 1.226 . S
O7 Zn5 1.932 . S
O7 C17 1.307 1_655 S
O8 Zn1 1.919 1_455 S
O8 C19 1.253 1_556 S
O9 Zn3 1.941 . S
O9 C19 1.283 . S
O10 Zn3 1.965 1_545 S
O10 C18 1.303 1_554 S
O11 Zn4 1.938 . S
O11 C18 1.247 . S
O12 Zn4 1.906 . S
O12 C20 1.304 1_456 S
O13 Zn1 1.924 . S
O13 C21 1.311 . S
O14 Zn5 1.977 . S
O14 C20 1.272 . S
O15 Zn5 1.910 . S
O15 C21 1.231 1_544 S
C16 O0 1.225 1_445 S
C16 O22 1.298 . S
C17 O6 1.226 . S
C17 O7 1.307 1_455 S
C18 O10 1.303 1_556 S
C18 O11 1.247 . S
C19 O8 1.253 1_554 S
C19 O9 1.283 . S
C20 O12 1.304 1_654 S
C20 O14 1.272 . S
C21 O13 1.311 . S
C21 O15 1.231 1_566 S
O22 Zn4 1.953 . S
O22 C16 1.298 . S
O23 Zn24 1.953 . S
O23 C39 1.225 1_565 S
Zn24 O23 1.953 . S
Zn24 O25 1.949 1_565 S
Zn24 O31 1.919 . S
Zn24 O36 1.924 . S
O25 Zn24 1.949 1_545 S
O25 Zn26 1.923 . S
O25 Zn27 1.950 1_455 S
O25 Zn28 1.945 1_445 S
Zn26 O25 1.923 . S
Zn26 O29 1.933 . S
Zn26 O32 1.941 . S
Zn26 O33 1.965 . S
Zn27 O25 1.950 1_655 S
Zn27 O34 1.938 . S
Zn27 O35 1.906 . S
Zn27 O45 1.953 . S
Zn28 O25 1.945 1_665 S
Zn28 O30 1.932 . S
Zn28 O37 1.977 . S
Zn28 O38 1.910 . S
O29 Zn26 1.933 . S
O29 C40 1.226 . S
O30 Zn28 1.932 . S
O30 C40 1.307 1_665 S
O31 Zn24 1.919 . S
O31 C42 1.253 . S
O32 Zn26 1.941 . S
O32 C42 1.283 1_545 S
O33 Zn26 1.965 . S
O33 C41 1.303 . S
O34 Zn27 1.938 . S
O34 C41 1.247 1_655 S
O35 Zn27 1.906 . S
O35 C43 1.304 . S
O36 Zn24 1.924 . S
O36 C44 1.311 1_455 S
O37 Zn28 1.977 . S
O37 C43 1.272 1_565 S
O38 Zn28 1.910 . S
O38 C44 1.231 . S
C39 O23 1.225 1_545 S
C39 O45 1.298 1_455 S
C40 O29 1.226 . S
C40 O30 1.307 1_445 S
C41 O33 1.303 . S
C41 O34 1.247 1_455 S
C42 O31 1.253 . S
C42 O32 1.283 1_565 S
C43 O35 1.304 . S
C43 O37 1.272 1_545 S
C44 O36 1.311 1_655 S
C44 O38 1.231 . S
O45 Zn27 1.953 . S
O45 C39 1.298 1_655 S
O46 Zn47 1.953 . S
O46 C62 1.225 . S
Zn47 O46 1.953 . S
Zn47 O48 1.949 1_556 S
Zn47 O54 1.919 . S
Zn47 O59 1.924 . S
O48 Zn47 1.949 1_554 S
O48 Zn49 1.923 . S
O48 Zn50 1.950 1_554 S
O48 Zn51 1.945 . S
Zn49 O48 1.923 . S
Zn49 O52 1.933 . S
Zn49 O55 1.941 . S
Zn49 O56 1.965 . S
Zn50 O48 1.950 1_556 S
Zn50 O57 1.938 . S
Zn50 O58 1.906 . S
Zn50 O68 1.953 . S
Zn51 O48 1.945 . S
Zn51 O53 1.932 . S
Zn51 O60 1.977 . S
Zn51 O61 1.910 . S
O52 Zn49 1.933 . S
O52 C63 1.226 . S
O53 Zn51 1.932 . S
O53 C63 1.307 . S
O54 Zn47 1.919 . S
O54 C65 1.253 1_556 S
O55 Zn49 1.941 . S
O55 C65 1.283 . S
O56 Zn49 1.965 . S
O56 C64 1.303 1_554 S
O57 Zn50 1.938 . S
O57 C64 1.247 . S
O58 Zn50 1.906 . S
O58 C66 1.304 1_556 S
O59 Zn47 1.924 . S
O59 C67 1.311 . S
O60 Zn51 1.977 . S
O60 C66 1.272 . S
O61 Zn51 1.910 . S
O61 C67 1.231 1_554 S
C62 O46 1.225 . S
C62 O68 1.298 . S
C63 O52 1.226 . S
C63 O53 1.307 . S
C64 O56 1.303 1_556 S
C64 O57 1.247 . S
C65 O54 1.253 1_554 S
C65 O55 1.283 . S
C66 O58 1.304 1_554 S
C66 O60 1.272 . S
C67 O59 1.311 . S
C67 O61 1.231 1_556 S
O68 Zn50 1.953 . S
O68 C62 1.298 . S
O69 Zn70 1.953 . S
O69 C85 1.225 . S
Zn70 O69 1.953 . S
Zn70 O71 1.949 . S
Zn70 O77 1.919 . S
Zn70 O82 1.924 . S
O71 Zn70 1.949 . S
O71 Zn72 1.923 . S
O71 Zn73 1.950 . S
O71 Zn74 1.945 . S
Zn72 O71 1.923 . S
Zn72 O75 1.933 . S
Zn72 O78 1.941 . S
Zn72 O79 1.965 . S
Zn73 O71 1.950 . S
Zn73 O80 1.938 . S
Zn73 O81 1.906 . S
Zn73 O91 1.953 . S
Zn74 O71 1.945 . S
Zn74 O76 1.932 . S
Zn74 O83 1.977 . S
Zn74 O84 1.910 . S
O75 Zn72 1.933 . S
O75 C86 1.226 . S
O76 Zn74 1.932 . S
O76 C86 1.307 . S
O77 Zn70 1.919 . S
O77 C88 1.253 . S
O78 Zn72 1.941 . S
O78 C88 1.283 . S
O79 Zn72 1.965 . S
O79 C87 1.303 . S
O80 Zn73 1.938 . S
O80 C87 1.247 . S
O81 Zn73 1.906 . S
O81 C89 1.304 . S
O82 Zn70 1.924 . S
O82 C90 1.311 . S
O83 Zn74 1.977 . S
O83 C89 1.272 . S
O84 Zn74 1.910 . S
O84 C90 1.231 . S
C85 O69 1.225 . S
C85 O91 1.298 . S
C86 O75 1.226 . S
C86 O76 1.307 . S
C87 O79 1.303 . S
C87 O80 1.247 . S
C88 O77 1.253 . S
C88 O78 1.283 . S
C89 O81 1.304 . S
C89 O83 1.272 . S
C90 O82 1.311 . S
C90 O84 1.231 . S
O91 Zn73 1.953 . S
O91 C85 1.298 . S
H92 C100 0.950 . S
H93 C105 0.950 . S
H94 C102 0.950 . S
H95 C104 0.950 . S
H96 C106 0.950 . S
H97 C108 0.950 . S
H98 C110 0.950 . S
H99 C111 0.950 . S
C100 H92 0.950 . S
C100 C101 1.386 . S
C100 C102 1.391 . S
C101 C100 1.386 . S
C101 C105 1.393 . S
C102 H94 0.950 . S
C102 C100 1.391 . S
C102 C103 1.400 . S
C103 C102 1.400 . S
C103 C104 1.398 . S
C103 C109 1.491 . S
C104 H95 0.950 . S
C104 C103 1.398 . S
C104 C105 1.391 . S
C105 H93 0.950 . S
C105 C101 1.393 . S
C105 C104 1.391 . S
C106 H96 0.950 . S
C106 C107 1.386 . S
C106 C108 1.391 . S
C107 C106 1.386 . S
C107 C111 1.393 . S
C108 H97 0.950 . S
C108 C106 1.391 . S
C108 C109 1.400 . S
C109 C103 1.491 . S
C109 C108 1.400 . S
C109 C110 1.398 . S
C110 H98 0.950 . S
C110 C109 1.398 . S
C110 C111 1.391 . S
C111 H99 0.950 . S
C111 C107 1.393 . S
C111 C110 1.391 . S
H112 C120 0.950 . S
H113 C125 0.950 . S
H114 C122 0.950 . S
H115 C124 0.950 . S
H116 C126 0.950 1_455 S
H117 C128 0.950 . S
H118 C130 0.950 . S
H119 C131 0.950 . S
C120 H112 0.950 . S
C120 C121 1.386 . S
C120 C122 1.391 . S
C121 C120 1.386 . S
C121 C125 1.393 . S
C122 H114 0.950 . S
C122 C120 1.391 . S
C122 C123 1.400 . S
C123 C122 1.400 . S
C123 C124 1.398 . S
C123 C129 1.491 . S
C124 H115 0.950 . S
C124 C123 1.398 . S
C124 C125 1.391 . S
C125 H113 0.950 . S
C125 C121 1.393 . S
C125 C124 1.391 . S
C126 H116 0.950 1_655 S
C126 C127 1.386 . S
C126 C128 1.391 . S
C127 C126 1.386 . S
C127 C131 1.393 . S
C128 H117 0.950 . S
C128 C126 1.391 . S
C128 C129 1.400 . S
C129 C123 1.491 . S
C129 C128 1.400 . S
C129 C130 1.398 . S
C130 H118 0.950 . S
C130 C129 1.398 . S
C130 C131 1.391 . S
C131 H119 0.950 . S
C131 C127 1.393 . S
C131 C130 1.391 . S
H132 C140 0.950 . S
H133 C145 0.950 . S
H134 C142 0.950 . S
H135 C144 0.950 . S
H136 C146 0.950 . S
H137 C148 0.950 . S
H138 C150 0.950 . S
H139 C151 0.950 . S
C140 H132 0.950 . S
C140 C141 1.386 . S
C140 C142 1.391 . S
C141 C140 1.386 . S
C141 C145 1.393 . S
C142 H134 0.950 . S
C142 C140 1.391 . S
C142 C143 1.400 . S
C143 C142 1.400 . S
C143 C144 1.398 . S
C143 C149 1.491 . S
C144 H135 0.950 . S
C144 C143 1.398 . S
C144 C145 1.391 . S
C145 H133 0.950 . S
C145 C141 1.393 . S
C145 C144 1.391 . S
C146 H136 0.950 . S
C146 C147 1.386 . S
C146 C148 1.391 . S
C147 C146 1.386 . S
C147 C151 1.393 . S
C148 H137 0.950 . S
C148 C146 1.391 . S
C148 C149 1.400 . S
C149 C143 1.491 . S
C149 C148 1.400 . S
C149 C150 1.398 . S
C150 H138 0.950 . S
C150 C149 1.398 . S
C150 C151 1.391 . S
C151 H139 0.950 . S
C151 C147 1.393 . S
C151 C150 1.391 . S
H152 C160 0.950 . S
H153 C165 0.950 . S
H154 C162 0.950 . S
H155 C164 0.950 . S
H156 C166 0.950 . S
H157 C168 0.950 . S
H158 C170 0.950 . S
H159 C171 0.950 . S
C160 H152 0.950 . S
C160 C161 1.386 . S
C160 C162 1.391 . S
C161 C160 1.386 . S
C161 C165 1.393 . S
C162 H154 0.950 . S
C162 C160 1.391 . S
C162 C163 1.400 . S
C163 C162 1.400 . S
C163 C164 1.398 . S
C163 C169 1.491 . S
C164 H155 0.950 . S
C164 C163 1.398 . S
C164 C165 1.391 . S
C165 H153 0.950 . S
C165 C161 1.393 . S
C165 C164 1.391 . S
C166 H156 0.950 . S
C166 C167 1.386 . S
C166 C168 1.391 . S
C167 C166 1.386 . S
C167 C171 1.393 . S
C168 H157 0.950 . S
C168 C166 1.391 . S
C168 C169 1.400 . S
C169 C163 1.491 . S
C169 C168 1.400 . S
C169 C170 1.398 . S
C170 H158 0.950 . S
C170 C169 1.398 . S
C170 C171 1.391 . S
C171 H159 0.950 . S
C171 C167 1.393 . S
C171 C170 1.391 . S
H172 C180 0.950 . S
H173 C185 0.950 1_565 S
H174 C182 0.950 . S
H175 C184 0.950 . S
H176 C186 0.950 . S
H177 C188 0.950 . S
H178 C190 0.950 . S
H179 C191 0.950 . S
C180 H172 0.950 . S
C180 C181 1.386 1_554 S
C180 C182 1.391 . S
C181 C180 1.386 1_556 S
C181 C185 1.393 . S
C182 H174 0.950 . S
C182 C180 1.391 . S
C182 C183 1.400 1_554 S
C183 C182 1.400 1_556 S
C183 C184 1.398 1_545 S
C183 C189 1.491 . S
C184 H175 0.950 . S
C184 C183 1.398 1_565 S
C184 C185 1.391 1_565 S
C185 H173 0.950 1_545 S
C185 C181 1.393 . S
C185 C184 1.391 1_545 S
C186 H176 0.950 . S
C186 C187 1.386 . S
C186 C188 1.391 . S
C187 C186 1.386 . S
C187 C191 1.393 1_566 S
C188 H177 0.950 . S
C188 C186 1.391 . S
C188 C189 1.400 1_565 S
C189 C183 1.491 . S
C189 C188 1.400 1_545 S
C189 C190 1.398 1_556 S
C190 H178 0.950 . S
C190 C189 1.398 1_554 S
C190 C191 1.391 . S
C191 H179 0.950 . S
C191 C187 1.393 1_544 S
C191 C190 1.391 . S
H192 C200 0.950 . S
H193 C205 0.950 . S
H194 C202 0.950 . S
H195 C204 0.950 . S
H196 C206 0.950 . S
H197 C208 0.950 . S
H198 C210 0.950 . S
H199 C211 0.950 . S
C200 H192 0.950 . S
C200 C201 1.386 . S
C200 C202 1.391 . S
C201 C200 1.386 . S
C201 C205 1.389 1_565 S
C202 H194 0.950 . S
C202 C200 1.391 . S
C202 C203 1.400 1_565 S
C203 C202 1.400 1_545 S
C203 C204 1.398 . S
C203 C209 1.491 . S
C204 H195 0.950 . S
C204 C203 1.398 . S
C204 C205 1.394 . S
C205 H193 0.950 . S
C205 C201 1.389 1_545 S
C205 C204 1.394 . S
C206 H196 0.950 . S
C206 C207 1.386 . S
C206 C208 1.391 . S
C207 C206 1.386 . S
C207 C211 1.393 . S
C208 H197 0.950 . S
C208 C206 1.391 . S
C208 C209 1.400 . S
C209 C203 1.491 . S
C209 C208 1.400 . S
C209 C210 1.398 . S
C210 H198 0.950 . S
C210 C209 1.398 . S
C210 C211 1.391 . S
C211 H199 0.950 . S
C211 C207 1.393 . S
C211 C210 1.391 . S
H212 C220 0.950 . S
H213 C225 0.950 . S
H214 C222 0.950 . S
H215 C224 0.950 . S
H216 C226 0.950 . S
H217 C228 0.950 . S
H218 C230 0.950 . S
H219 C231 0.950 . S
C220 H212 0.950 . S
C220 C221 1.386 . S
C220 C222 1.391 . S
C221 C220 1.386 . S
C221 C225 1.393 . S
C222 H214 0.950 . S
C222 C220 1.391 . S
C222 C223 1.400 . S
C223 C222 1.400 . S
C223 C224 1.398 . S
C223 C229 1.491 1_655 S
C224 H215 0.950 . S
C224 C223 1.398 . S
C224 C225 1.391 . S
C225 H213 0.950 . S
C225 C221 1.393 . S
C225 C224 1.391 . S
C226 H216 0.950 . S
C226 C227 1.386 . S
C226 C228 1.391 . S
C227 C226 1.386 . S
C227 C231 1.393 . S
C228 H217 0.950 . S
C228 C226 1.391 . S
C228 C229 1.400 . S
C229 C223 1.491 1_455 S
C229 C228 1.400 . S
C229 C230 1.398 . S
C230 H218 0.950 . S
C230 C229 1.398 . S
C230 C231 1.391 . S
C231 H219 0.950 . S
C231 C227 1.393 . S
C231 C230 1.391 . S
H232 C240 0.950 . S
H233 C245 0.950 . S
H234 C242 0.950 . S
H235 C244 0.950 . S
H236 C246 0.950 . S
H237 C248 0.950 . S
H238 C250 0.950 . S
H239 C251 0.950 . S
C240 H232 0.950 . S
C240 C241 1.386 . S
C240 C242 1.391 . S
C241 C240 1.386 . S
C241 C245 1.393 . S
C242 H234 0.950 . S
C242 C240 1.391 . S
C242 C243 1.400 . S
C243 C242 1.400 . S
C243 C244 1.398 . S
C243 C249 1.491 1_455 S
C244 H235 0.950 . S
C244 C243 1.398 . S
C244 C245 1.391 . S
C245 H233 0.950 . S
C245 C241 1.393 . S
C245 C244 1.391 . S
C246 H236 0.950 . S
C246 C247 1.386 . S
C246 C248 1.391 . S
C247 C246 1.386 . S
C247 C251 1.393 . S
C248 H237 0.950 . S
C248 C246 1.391 . S
C248 C249 1.400 . S
C249 C243 1.491 1_655 S
C249 C248 1.400 . S
C249 C250 1.398 . S
C250 H238 0.950 . S
C250 C249 1.398 . S
C250 C251 1.391 . S
C251 H239 0.950 . S
C251 C247 1.393 . S
C251 C250 1.391 . S
H252 C260 0.950 . S
H253 C265 0.950 . S
H254 C262 0.950 . S
H255 C264 0.950 . S
H256 C266 0.950 . S
H257 C268 0.950 . S
H258 C270 0.950 . S
H259 C271 0.950 . S
C260 H252 0.950 . S
C260 C261 1.386 1_565 S
C260 C262 1.391 . S
C261 C260 1.386 1_545 S
C261 C265 1.393 1_455 S
C262 H254 0.950 . S
C262 C260 1.391 . S
C262 C263 1.400 1_565 S
C263 C262 1.400 1_545 S
C263 C264 1.398 1_455 S
C263 C269 1.491 . S
C264 H255 0.950 . S
C264 C263 1.398 1_655 S
C264 C265 1.391 . S
C265 H253 0.950 . S
C265 C261 1.393 1_655 S
C265 C264 1.391 . S
C266 H256 0.950 . S
C266 C267 1.386 1_655 S
C266 C268 1.391 . S
C267 C266 1.386 1_455 S
C267 C271 1.393 1_545 S
C268 H257 0.950 . S
C268 C266 1.391 . S
C268 C269 1.400 1_655 S
C269 C263 1.491 . S
C269 C268 1.400 1_455 S
C269 C270 1.398 1_545 S
C270 H258 0.950 . S
C270 C269 1.398 1_565 S
C270 C271 1.391 . S
C271 H259 0.950 . S
C271 C267 1.393 1_565 S
C271 C270 1.391 . S
H272 C280 0.954 . S
H273 C285 0.950 . S
H274 C282 0.950 . S
H275 C284 0.950 . S
H276 C286 0.950 . S
H277 C288 0.950 . S
H278 C290 0.950 . S
H279 C291 0.950 . S
C280 H272 0.954 . S
C280 C281 1.381 1_665 S
C280 C282 1.391 . S
C281 C280 1.381 1_445 S
C281 C285 1.393 . S
C282 H274 0.950 . S
C282 C280 1.391 . S
C282 C283 1.400 1_665 S
C283 C282 1.400 1_445 S
C283 C284 1.398 . S
C283 C289 1.491 . S
C284 H275 0.950 . S
C284 C283 1.398 . S
C284 C285 1.391 . S
C285 H273 0.950 . S
C285 C281 1.393 . S
C285 C284 1.391 . S
C286 H276 0.950 . S
C286 C287 1.386 . S
C286 C288 1.391 . S
C287 C286 1.386 . S
C287 C291 1.393 1_445 S
C288 H277 0.950 . S
C288 C286 1.391 . S
C288 C289 1.400 . S
C289 C283 1.491 . S
C289 C288 1.400 . S
C289 C290 1.398 1_445 S
C290 H278 0.950 . S
C290 C289 1.398 1_665 S
C290 C291 1.391 . S
C291 H279 0.950 . S
C291 C287 1.393 1_665 S
C291 C290 1.391 . S
H292 C300 0.950 . S
H293 C305 0.950 . S
H294 C302 0.950 . S
H295 C304 0.950 . S
H296 C306 0.950 . S
H297 C308 0.950 . S
H298 C310 0.950 . S
H299 C311 0.950 . S
C300 H292 0.950 . S
C300 C301 1.386 . S
C300 C302 1.391 . S
C301 C300 1.386 . S
C301 C305 1.393 . S
C302 H294 0.950 . S
C302 C300 1.391 . S
C302 C303 1.400 . S
C303 C302 1.400 . S
C303 C304 1.398 . S
C303 C309 1.491 . S
C304 H295 0.950 . S
C304 C303 1.398 . S
C304 C305 1.391 . S
C305 H293 0.950 . S
C305 C301 1.393 . S
C305 C304 1.391 . S
C306 H296 0.950 . S
C306 C307 1.386 . S
C306 C308 1.391 . S
C307 C306 1.386 . S
C307 C311 1.393 . S
C308 H297 0.950 . S
C308 C306 1.391 . S
C308 C309 1.400 . S
C309 C303 1.491 . S
C309 C308 1.400 . S
C309 C310 1.398 . S
C310 H298 0.950 . S
C310 C309 1.398 . S
C310 C311 1.391 . S
C311 H299 0.950 . S
C311 C307 1.393 . S
C311 C310 1.391 . S
H312 C320 0.950 . S
H313 C325 0.950 . S
H314 C322 0.950 . S
H315 C324 0.950 . S
H316 C326 0.950 . S
H317 C328 0.950 . S
H318 C330 0.950 . S
H319 C331 0.950 . S
C320 H312 0.950 . S
C320 C321 1.386 . S
C320 C322 1.391 . S
C321 C320 1.386 . S
C321 C325 1.393 . S
C322 H314 0.950 . S
C322 C320 1.391 . S
C322 C323 1.400 . S
C323 C322 1.400 . S
C323 C324 1.398 . S
C323 C329 1.491 . S
C324 H315 0.950 . S
C324 C323 1.398 . S
C324 C325 1.391 . S
C325 H313 0.950 . S
C325 C321 1.393 . S
C325 C324 1.391 . S
C326 H316 0.950 . S
C326 C327 1.386 . S
C326 C328 1.391 . S
C327 C326 1.386 . S
C327 C331 1.393 . S
C328 H317 0.950 . S
C328 C326 1.391 . S
C328 C329 1.400 . S
C329 C323 1.491 . S
C329 C328 1.400 . S
C329 C330 1.398 . S
C330 H318 0.950 . S
C330 C329 1.398 . S
C330 C331 1.391 . S
C331 H319 0.950 . S
C331 C327 1.393 . S
C331 C330 1.391 . S
C101 C66 1.536 . S
C107 C19 1.553 . S
C121 C65 1.534 . S
C127 C20 1.553 . S
C141 C41 1.626 . S
C147 C90 1.607 . S
C161 C44 1.601 . S
C167 C87 1.631 . S
C181 C18 0.632 . S
C187 C21 0.660 . S
C201 C42 0.626 . S
C207 C43 0.625 . S
C221 C64 0.630 . S
C227 C67 0.682 . S
C241 C89 0.624 . S
C247 C88 0.627 . S
C261 C39 1.500 . S
C267 C17 1.497 . S
C281 C16 1.500 . S
C287 C40 1.500 . S
C301 C85 1.498 . S
C307 C63 1.499 . S
C321 C86 1.500 . S
C327 C62 1.500 . S
