# Generated by pormake.
# Topology crs, (6)-cn, num edge types: 1
# Building blocks:
#     Node 0, Type 0, BuildingBlock: NUHQIS_clean_sbu_0, # of connection points: 6
#     Node 1, Type 0, BuildingBlock: NUHQIS_clean_sbu_0, # of connection points: 6
#     Node 2, Type 0, BuildingBlock: NUHQIS_clean_sbu_0, # of connection points: 6
#     Node 3, Type 0, BuildingBlock: NUHQIS_clean_sbu_0, # of connection points: 6
#     Node 4, Type 0, BuildingBlock: NUHQIS_clean_sbu_0, # of connection points: 6
#     Node 5, Type 0, BuildingBlock: NUHQIS_clean_sbu_0, # of connection points: 6
#     Node 6, Type 0, BuildingBlock: NUHQIS_clean_sbu_0, # of connection points: 6
#     Node 7, Type 0, BuildingBlock: NUHQIS_clean_sbu_0, # of connection points: 6
#     Node 8, Type 0, BuildingBlock: NUHQIS_clean_sbu_0, # of connection points: 6
#     Node 9, Type 0, BuildingBlock: NUHQIS_clean_sbu_0, # of connection points: 6
#     Node 10, Type 0, BuildingBlock: NUHQIS_clean_sbu_0, # of connection points: 6
#     Node 11, Type 0, BuildingBlock: NUHQIS_clean_sbu_0, # of connection points: 6
#     Node 12, Type 0, BuildingBlock: NUHQIS_clean_sbu_0, # of connection points: 6
#     Node 13, Type 0, BuildingBlock: NUHQIS_clean_sbu_0, # of connection points: 6
#     Node 14, Type 0, BuildingBlock: NUHQIS_clean_sbu_0, # of connection points: 6
#     Node 15, Type 0, BuildingBlock: NUHQIS_clean_sbu_0, # of connection points: 6
#     Edge 16, Type (0, 0), BuildingBlock: AJUNOK_clean_linker_0, # of connection points: 2
#     Edge 17, Type (0, 0), BuildingBlock: AJUNOK_clean_linker_0, # of connection points: 2
#     Edge 18, Type (0, 0), BuildingBlock: AJUNOK_clean_linker_0, # of connection points: 2
#     Edge 19, Type (0, 0), BuildingBlock: AJUNOK_clean_linker_0, # of connection points: 2
#     Edge 20, Type (0, 0), BuildingBlock: AJUNOK_clean_linker_0, # of connection points: 2
#     Edge 21, Type (0, 0), BuildingBlock: AJUNOK_clean_linker_0, # of connection points: 2
#     Edge 22, Type (0, 0), BuildingBlock: AJUNOK_clean_linker_0, # of connection points: 2
#     Edge 23, Type (0, 0), BuildingBlock: AJUNOK_clean_linker_0, # of connection points: 2
#     Edge 24, Type (0, 0), BuildingBlock: AJUNOK_clean_linker_0, # of connection points: 2
#     Edge 25, Type (0, 0), BuildingBlock: AJUNOK_clean_linker_0, # of connection points: 2
#     Edge 26, Type (0, 0), BuildingBlock: AJUNOK_clean_linker_0, # of connection points: 2
#     Edge 27, Type (0, 0), BuildingBlock: AJUNOK_clean_linker_0, # of connection points: 2
#     Edge 28, Type (0, 0), BuildingBlock: AJUNOK_clean_linker_0, # of connection points: 2
#     Edge 29, Type (0, 0), BuildingBlock: AJUNOK_clean_linker_0, # of connection points: 2
#     Edge 30, Type (0, 0), BuildingBlock: AJUNOK_clean_linker_0, # of connection points: 2
#     Edge 31, Type (0, 0), BuildingBlock: AJUNOK_clean_linker_0, # of connection points: 2
#     Edge 32, Type (0, 0), BuildingBlock: AJUNOK_clean_linker_0, # of connection points: 2
#     Edge 33, Type (0, 0), BuildingBlock: AJUNOK_clean_linker_0, # of connection points: 2
#     Edge 34, Type (0, 0), BuildingBlock: AJUNOK_clean_linker_0, # of connection points: 2
#     Edge 35, Type (0, 0), BuildingBlock: AJUNOK_clean_linker_0, # of connection points: 2
#     Edge 36, Type (0, 0), BuildingBlock: AJUNOK_clean_linker_0, # of connection points: 2
#     Edge 37, Type (0, 0), BuildingBlock: AJUNOK_clean_linker_0, # of connection points: 2
#     Edge 38, Type (0, 0), BuildingBlock: AJUNOK_clean_linker_0, # of connection points: 2
#     Edge 39, Type (0, 0), BuildingBlock: AJUNOK_clean_linker_0, # of connection points: 2
#     Edge 40, Type (0, 0), BuildingBlock: AJUNOK_clean_linker_0, # of connection points: 2
#     Edge 41, Type (0, 0), BuildingBlock: AJUNOK_clean_linker_0, # of connection points: 2
#     Edge 42, Type (0, 0), BuildingBlock: AJUNOK_clean_linker_0, # of connection points: 2
#     Edge 43, Type (0, 0), BuildingBlock: AJUNOK_clean_linker_0, # of connection points: 2
#     Edge 44, Type (0, 0), BuildingBlock: AJUNOK_clean_linker_0, # of connection points: 2
#     Edge 45, Type (0, 0), BuildingBlock: AJUNOK_clean_linker_0, # of connection points: 2
#     Edge 46, Type (0, 0), BuildingBlock: AJUNOK_clean_linker_0, # of connection points: 2
#     Edge 47, Type (0, 0), BuildingBlock: AJUNOK_clean_linker_0, # of connection points: 2
#     Edge 48, Type (0, 0), BuildingBlock: AJUNOK_clean_linker_0, # of connection points: 2
#     Edge 49, Type (0, 0), BuildingBlock: AJUNOK_clean_linker_0, # of connection points: 2
#     Edge 50, Type (0, 0), BuildingBlock: AJUNOK_clean_linker_0, # of connection points: 2
#     Edge 51, Type (0, 0), BuildingBlock: AJUNOK_clean_linker_0, # of connection points: 2
#     Edge 52, Type (0, 0), BuildingBlock: AJUNOK_clean_linker_0, # of connection points: 2
#     Edge 53, Type (0, 0), BuildingBlock: AJUNOK_clean_linker_0, # of connection points: 2
#     Edge 54, Type (0, 0), BuildingBlock: AJUNOK_clean_linker_0, # of connection points: 2
#     Edge 55, Type (0, 0), BuildingBlock: AJUNOK_clean_linker_0, # of connection points: 2
#     Edge 56, Type (0, 0), BuildingBlock: AJUNOK_clean_linker_0, # of connection points: 2
#     Edge 57, Type (0, 0), BuildingBlock: AJUNOK_clean_linker_0, # of connection points: 2
#     Edge 58, Type (0, 0), BuildingBlock: AJUNOK_clean_linker_0, # of connection points: 2
#     Edge 59, Type (0, 0), BuildingBlock: AJUNOK_clean_linker_0, # of connection points: 2
#     Edge 60, Type (0, 0), BuildingBlock: AJUNOK_clean_linker_0, # of connection points: 2
#     Edge 61, Type (0, 0), BuildingBlock: AJUNOK_clean_linker_0, # of connection points: 2
#     Edge 62, Type (0, 0), BuildingBlock: AJUNOK_clean_linker_0, # of connection points: 2
#     Edge 63, Type (0, 0), BuildingBlock: AJUNOK_clean_linker_0, # of connection points: 2
# Relax obj value: 0.558
# Max RMSD: 0.395
# Mean RMSD: 0.338
data_MOF--net-crs--node1-NUHQIS_clean_sbu_0--edge1-AJUNOK_clean_linker_0
_symmetry_space_group_name_H-M    P1
_symmetry_Int_Tables_number       1
_symmetry_cell_setting            triclinic
loop_
_symmetry_equiv_pos_as_xyz
'x, y, z'
_cell_length_a     42.065576
_cell_length_b     46.063348
_cell_length_c     33.519109
_cell_angle_alpha  70.20324
_cell_angle_beta   70.944734
_cell_angle_gamma 60.894805
loop_
_atom_site_label
_atom_site_type_symbol
_atom_site_fract_x
_atom_site_fract_y
_atom_site_fract_z
_atom_type_partial_charge
Tb0 Tb 0.96605 1.00766 0.06455 0.0
Eu1 Eu -0.01681 0.05134 0.96547 0.0
C2 C 0.0435 1.01051 0.02554 0.0
C3 C 0.95948 0.081 0.05048 0.0
C4 C 0.92123 0.95864 0.14574 0.0
C5 C 0.91203 0.90748 0.16135 0.0
C6 C 0.93238 0.92358 0.16283 0.0
C7 C 0.88817 0.97768 0.12957 0.0
C8 C 0.86794 0.96163 0.12803 0.0
C9 C 0.88045 0.92625 0.14245 0.0
C10 C 0.94744 0.97372 0.13644 0.0
O11 O 0.91328 0.03964 0.04321 0.0
O12 O 0.93314 0.0447 0.97012 0.0
O13 O 0.00388 0.99721 0.95927 0.0
O14 O -0.03091 0.9792 0.02222 0.0
C15 C 0.908 0.04307 1.00513 0.0
O16 O 0.96599 0.09801 0.91573 0.0
O17 O 0.01964 0.05606 0.90274 0.0
O18 O 0.02903 0.03805 0.99687 0.0
O19 O 0.02586 0.99134 0.04846 0.0
O20 O -0.02975 0.04989 0.07429 0.0
O21 O 0.95442 0.08759 1.01105 0.0
C22 C -0.01038 0.97552 0.98366 0.0
O23 O -0.02199 0.9607 0.1092 0.0
O24 O 0.93348 1.00693 0.12728 0.0
C25 C 0.01747 0.11138 0.88028 0.0
C26 C 0.05054 0.15211 0.87939 0.0
C27 C 0.01267 0.16666 0.87832 0.0
C28 C -0.00376 0.14644 0.87875 0.0
C29 C 0.05597 0.0976 0.87782 0.0
C30 C 0.07224 0.11773 0.87766 0.0
C31 C -0.00097 0.08857 0.891 0.0
H32 H 0.92214 0.88012 0.17267 0.0
H33 H 0.95803 0.90835 0.17484 0.0
H34 H 0.87893 1.00471 0.11581 0.0
H35 H 0.84329 0.9767 0.11402 0.0
H36 H -0.00465 0.19314 0.87975 0.0
H37 H 0.96657 0.15783 0.88042 0.0
H38 H 0.07333 0.07081 0.87844 0.0
H39 H 0.10164 0.1061 0.87782 0.0
Tb40 Tb -0.01349 0.28782 0.2993 0.0
Eu41 Eu 0.95083 0.27805 0.23144 0.0
C42 C 0.01965 0.21595 0.27397 0.0
C43 C 0.01775 0.29905 0.19949 0.0
C44 C 0.01115 0.32075 0.36986 0.0
C45 C 0.03691 0.33953 0.4065 0.0
C46 C 0.03979 0.31479 0.38846 0.0
C47 C -0.02084 0.35147 0.37057 0.0
C48 C -0.02363 0.37647 0.38814 0.0
C49 C 0.00552 0.37095 0.40568 0.0
C50 C 0.01702 0.29619 0.34611 0.0
O51 O 0.94639 0.3397 0.27588 0.0
O52 O 0.91147 0.33019 0.24493 0.0
O53 O 0.92911 0.25547 0.29989 0.0
O54 O 0.93311 0.2878 0.33546 0.0
C55 C 0.9168 0.35027 0.25973 0.0
O56 O 0.95378 0.27513 0.1666 0.0
O57 O 0.90922 0.26879 0.21818 0.0
O58 O 0.00343 0.23058 0.24043 0.0
O59 O 0.01142 0.23243 0.30414 0.0
O60 O 0.02558 0.28319 0.23802 0.0
O61 O -0.01434 0.30674 0.19174 0.0
C62 C 0.91852 0.2688 0.33364 0.0
O63 O -0.00374 0.27958 0.36112 0.0
O64 O 0.0211 0.30668 0.30427 0.0
C65 C 0.92963 0.24011 0.16123 0.0
C66 C 0.93977 0.18831 0.12475 0.0
C67 C 0.91486 0.22227 0.11162 0.0
C68 C 0.90995 0.24787 0.12961 0.0
C69 C 0.95411 0.20619 0.17507 0.0
C70 C 0.95905 0.18048 0.15708 0.0
C71 C 0.92525 0.268 0.17782 0.0
H72 H 0.05973 0.33453 0.41991 0.0
H73 H 0.06487 0.2913 0.38804 0.0
H74 H 0.95681 0.35618 0.35678 0.0
H75 H 0.95154 0.40017 0.38787 0.0
H76 H 0.89899 0.22906 0.08755 0.0
H77 H 0.89089 0.27388 0.11854 0.0
H78 H -0.03039 0.1997 0.19941 0.0
H79 H -0.02158 0.15458 0.16787 0.0
Tb80 Tb 0.73214 0.28978 0.5522 0.0
Eu81 Eu 0.70623 0.27468 0.48289 0.0
C82 C 0.64837 0.29964 0.56819 0.0
C83 C 0.7244 0.2187 0.57362 0.0
C84 C 0.77517 0.31672 0.60743 0.0
C85 C 0.82373 0.3148 0.63358 0.0
C86 C 0.80455 0.29855 0.6298 0.0
C87 C 0.76543 0.35143 0.58837 0.0
C88 C 0.78449 0.36777 0.59239 0.0
C89 C 0.81376 0.34961 0.61518 0.0
C90 C 0.75435 0.2991 0.60621 0.0
O91 O 0.77729 0.28494 0.49596 0.0
O92 O 0.76873 0.25224 0.46604 0.0
O93 O 0.71275 0.32456 0.44892 0.0
O94 O 0.71517 0.34006 0.50567 0.0
C95 C 0.78918 0.26561 0.46839 0.0
O96 O 0.71204 0.24084 0.44599 0.0
O97 O 0.67358 0.29417 0.43324 0.0
O98 O 0.65255 0.29796 0.52837 0.0
O99 O 0.67616 0.29457 0.58341 0.0
O100 O 0.74161 0.23529 0.57678 0.0
O101 O 0.70581 0.23097 0.54214 0.0
C102 C 0.713 0.3472 0.46454 0.0
O103 O 0.7215 0.31794 0.59647 0.0
O104 O 0.77318 0.27321 0.58757 0.0
C105 C 0.65937 0.25553 0.41951 0.0
C106 C 0.60789 0.23807 0.40843 0.0
C107 C 0.62913 0.2516 0.37241 0.0
C108 C 0.65466 0.26028 0.37796 0.0
C109 C 0.63789 0.24253 0.45572 0.0
C110 C 0.6124 0.2337 0.4502 0.0
C111 C 0.68665 0.26456 0.42415 0.0
H112 H 0.84632 0.30014 0.65107 0.0
H113 H 0.81243 0.27177 0.64481 0.0
H114 H 0.74276 0.36607 0.57105 0.0
H115 H 0.77573 0.39478 0.57856 0.0
H116 H 0.62612 0.25531 0.33993 0.0
H117 H 0.67092 0.27051 0.34973 0.0
H118 H 0.64118 0.23886 0.48807 0.0
H119 H 0.59693 0.22267 0.47849 0.0
Tb120 Tb 0.71011 1.02285 0.73986 0.0
Eu121 Eu 0.72546 0.04669 0.80866 0.0
C122 C 0.78925 0.98457 0.765 0.0
C123 C 0.71219 0.97766 0.84067 0.0
C124 C 0.68348 1.00682 0.65399 0.0
C125 C 0.68248 0.98881 0.59452 0.0
C126 C 0.70103 0.9853 0.62473 0.0
C127 C 0.64813 0.03345 0.65093 0.0
C128 C 0.62952 0.03692 0.62075 0.0
C129 C 0.64605 1.01379 0.59347 0.0
C130 C 0.70094 0.99823 0.69015 0.0
O131 O 0.6597 0.06947 0.74899 0.0
O132 O 0.66371 0.07246 0.81353 0.0
O133 O 0.73353 0.08362 0.74363 0.0
O134 O 0.71257 0.07142 0.69887 0.0
C135 C 0.64549 0.08367 0.7825 0.0
O136 O 0.70376 0.06661 0.86695 0.0
O137 O 0.75722 0.06403 0.82729 0.0
O138 O 0.77658 0.99775 0.79919 0.0
O139 O 0.77017 0.99783 0.7342 0.0
O140 O 0.70416 0.98525 0.80215 0.0
O141 O 0.72205 0.99731 0.85005 0.0
C142 C 0.72415 0.09093 0.70616 0.0
O143 O 0.72881 1.00582 0.68208 0.0
O144 O 0.67895 1.00402 0.72722 0.0
C145 C 0.7476 0.06024 0.90165 0.0
C146 C 0.78674 0.04148 0.9662 0.0
C147 C 0.76235 0.07563 0.9532 0.0
C148 C 0.74293 0.08492 0.92102 0.0
C149 C 0.76878 1.02573 0.91751 0.0
C150 C 0.78819 1.01636 0.94987 0.0
C151 C 0.73289 0.07138 0.86266 0.0
H152 H 0.69596 0.97111 0.57327 0.0
H153 H 0.72842 0.96472 0.62662 0.0
H154 H 0.63425 0.05042 0.67317 0.0
H155 H 0.60139 0.0564 0.62048 0.0
H156 H 0.76115 0.09562 0.96452 0.0
H157 H 0.72631 0.11165 0.90919 0.0
H158 H 0.77216 1.00638 0.90302 0.0
H159 H 0.80685 0.9899 0.95932 0.0
Tb160 Tb 0.48498 0.78816 0.30345 0.0
Eu161 Eu 0.44799 0.77783 0.23792 0.0
C162 C 0.51818 0.71554 0.27935 0.0
C163 C 0.51736 0.79651 0.2031 0.0
C164 C 0.50758 0.82796 0.36626 0.0
C165 C 0.51635 0.84849 0.41809 0.0
C166 C 0.52047 0.82162 0.40335 0.0
C167 C 0.49066 0.86176 0.34378 0.0
C168 C 0.48663 0.88879 0.35849 0.0
C169 C 0.49933 0.88242 0.39598 0.0
C170 C 0.51067 0.79894 0.35323 0.0
O171 O 0.43433 0.83468 0.29547 0.0
O172 O 0.423 0.83493 0.23261 0.0
O173 O 0.40885 0.78259 0.30184 0.0
O174 O 0.45136 0.76071 0.3445 0.0
C175 C 0.41692 0.85048 0.2628 0.0
O176 O 0.43896 0.7821 0.17493 0.0
O177 O 0.40982 0.76024 0.23387 0.0
O178 O 0.48918 0.72482 0.26311 0.0
O179 O 0.52284 0.73678 0.29286 0.0
O180 O 0.50551 0.81016 0.23692 0.0
O181 O 0.50304 0.77773 0.20023 0.0
C182 C 0.41822 0.76831 0.33971 0.0
O183 O 0.48089 0.79373 0.36486 0.0
O184 O 0.52731 0.7953 0.3138 0.0
C185 C 0.42353 0.73919 0.17278 0.0
C186 C 0.4334 0.68397 0.14362 0.0
C187 C 0.3979 0.71027 0.15222 0.0
C188 C 0.39305 0.73753 0.16676 0.0
C189 C 0.45914 0.71327 0.16373 0.0
C190 C 0.46406 0.68596 0.14907 0.0
C191 C 0.41694 0.76667 0.19178 0.0
H192 H 0.52651 0.84273 0.44695 0.0
H193 H 0.53342 0.79576 0.42129 0.0
H194 H 0.48017 0.86724 0.3153 0.0
H195 H 0.47283 0.91466 0.34115 0.0
H196 H 0.37388 0.70991 0.14737 0.0
H197 H 0.36532 0.7572 0.1738 0.0
H198 H 0.48299 0.71397 0.16851 0.0
H199 H 0.49176 0.66611 0.14259 0.0
Tb200 Tb 0.23144 0.79005 0.55616 0.0
Eu201 Eu 0.20803 0.77379 0.48507 0.0
C202 C 0.14813 0.79965 0.56876 0.0
C203 C 0.22478 0.71867 0.5766 0.0
C204 C 0.27156 0.81823 0.61259 0.0
C205 C 0.28666 0.84334 0.65267 0.0
C206 C 0.26604 0.82782 0.65058 0.0
C207 C 0.29774 0.82455 0.57643 0.0
C208 C 0.31868 0.8398 0.57861 0.0
C209 C 0.31326 0.84943 0.61678 0.0
C210 C 0.25041 0.80093 0.6118 0.0
O211 O 0.27872 0.78361 0.50255 0.0
O212 O 0.27051 0.75202 0.47015 0.0
O213 O 0.21395 0.82382 0.45109 0.0
O214 O 0.21652 0.83942 0.50778 0.0
C215 C 0.29106 0.76435 0.47483 0.0
O216 O 0.21731 0.73878 0.44767 0.0
O217 O 0.17597 0.79099 0.43546 0.0
O218 O 0.15343 0.79759 0.52883 0.0
O219 O 0.17521 0.79476 0.58515 0.0
O220 O 0.24133 0.7355 0.5806 0.0
O221 O 0.20683 0.73067 0.54461 0.0
C222 C 0.21449 0.84634 0.46665 0.0
O223 O 0.219 0.8204 0.59873 0.0
O224 O 0.26939 0.77389 0.59537 0.0
C225 C 0.16553 0.74905 0.42193 0.0
C226 C 0.11973 0.72682 0.40642 0.0
C227 C 0.1568 0.70456 0.40965 0.0
C228 C 0.17952 0.71564 0.41695 0.0
C229 C 0.12823 0.77121 0.41942 0.0
C230 C 0.10553 0.76014 0.41188 0.0
C231 C 0.19068 0.76097 0.42676 0.0
H232 H 0.28171 0.85073 0.68235 0.0
H233 H 0.24586 0.82314 0.67873 0.0
H234 H 0.30224 0.81736 0.54678 0.0
H235 H 0.33946 0.84357 0.55071 0.0
H236 H 0.16822 0.67843 0.40681 0.0
H237 H 0.20819 0.69807 0.41841 0.0
H238 H 0.11664 0.79723 0.42274 0.0
H239 H 0.07701 0.77778 0.40969 0.0
Tb240 Tb 0.21219 0.52214 0.73973 0.0
Eu241 Eu 0.22378 0.54677 0.80975 0.0
C242 C 0.29021 0.48563 0.76763 0.0
C243 C 0.21261 0.47707 0.84038 0.0
C244 C 0.19235 0.5007 0.65302 0.0
C245 C 0.19031 0.47646 0.60067 0.0
C246 C 0.20782 0.47448 0.63089 0.0
C247 C 0.16054 0.53007 0.64277 0.0
C248 C 0.14302 0.53212 0.61239 0.0
C249 C 0.15722 0.50483 0.59217 0.0
C250 C 0.20748 0.49462 0.68993 0.0
O251 O 0.16108 0.56868 0.74649 0.0
O252 O 0.16223 0.57081 0.8128 0.0
O253 O 0.23347 0.5829 0.74459 0.0
O254 O 0.21303 0.57116 0.699 0.0
C255 C 0.1453 0.58247 0.78045 0.0
O256 O 0.20134 0.56569 0.86909 0.0
O257 O 0.25144 0.56932 0.82594 0.0
O258 O 0.2763 0.49861 0.80209 0.0
O259 O 0.272 0.49885 0.73602 0.0
O260 O 0.20354 0.48605 0.80219 0.0
O261 O 0.22346 0.49581 0.85025 0.0
C262 C 0.2244 0.59052 0.70689 0.0
O263 O 0.23407 0.50374 0.68266 0.0
O264 O 0.18368 0.50137 0.72572 0.0
C265 C 0.24239 0.56945 0.89888 0.0
C266 C 0.27756 0.56512 0.95968 0.0
C267 C 0.24406 0.59323 0.952 0.0
C268 C 0.22659 0.59539 0.92158 0.0
C269 C 0.27424 0.54013 0.90886 0.0
C270 C 0.29176 0.53797 0.93922 0.0
C271 C 0.2275 0.57537 0.86193 0.0
H272 H 0.20158 0.45518 0.58545 0.0
H273 H 0.23239 0.45164 0.63866 0.0
H274 H 0.14827 0.55046 0.65982 0.0
H275 H 0.11713 0.554 0.6068 0.0
H276 H 0.23247 0.61417 0.9679 0.0
H277 H 0.20179 0.61809 0.91418 0.0
H278 H 0.28658 0.51987 0.89158 0.0
H279 H 0.31771 0.5161 0.94459 0.0
Tb280 Tb -0.0278 0.50058 0.565 0.0
Eu281 Eu -0.02032 0.55282 0.46996 0.0
C282 C 0.04574 0.51043 0.52342 0.0
C283 C 0.95964 0.57427 0.55918 0.0
C284 C 0.93141 0.44776 0.64517 0.0
C285 C 0.92185 0.39693 0.65958 0.0
C286 C 0.94291 0.41252 0.66067 0.0
C287 C 0.89739 0.46741 0.63109 0.0
C288 C 0.87659 0.45187 0.62972 0.0
C289 C 0.88932 0.41642 0.6425 0.0
C290 C 0.95766 0.46289 0.63547 0.0
O291 O 0.91758 0.53034 0.54771 0.0
O292 O 0.93361 0.54069 0.47405 0.0
O293 O 0.00222 0.50137 0.45402 0.0
O294 O -0.02057 0.47279 0.51917 0.0
C295 C 0.91105 0.53481 0.50994 0.0
O296 O 0.95478 0.60195 0.42707 0.0
O297 O 0.01213 0.56744 0.40777 0.0
O298 O 0.02805 0.53867 0.49766 0.0
O299 O 0.03106 0.48881 0.54619 0.0
O300 O -0.02424 0.54207 0.57778 0.0
O301 O 0.9489 0.58302 0.52253 0.0
C302 C -0.0052 0.47518 0.47784 0.0
O303 O -0.01315 0.45175 0.60568 0.0
O304 O 0.94316 0.49599 0.62937 0.0
C305 C -0.00099 0.62439 0.39785 0.0
C306 C 0.03115 0.66687 0.39331 0.0
C307 C 0.02492 0.66506 0.35556 0.0
C308 C 0.00911 0.64373 0.35781 0.0
C309 C 0.00378 0.6273 0.43562 0.0
C310 C 0.01964 0.64831 0.4334 0.0
C311 C -0.0133 0.59871 0.40116 0.0
H312 H 0.93206 0.36949 0.66969 0.0
H313 H -0.03079 0.39685 0.67116 0.0
H314 H 0.88775 0.49463 0.61881 0.0
H315 H 0.85127 0.46743 0.61704 0.0
H316 H 0.03285 0.67963 0.3243 0.0
H317 H 0.00566 0.64169 0.32837 0.0
H318 H -0.00356 0.61231 0.46684 0.0
H319 H 0.02431 0.64889 0.463 0.0
Tb320 Tb 0.22821 0.29073 0.05426 0.0
Eu321 Eu 0.20542 0.27443 0.98242 0.0
C322 C 0.14673 0.29979 0.06575 0.0
C323 C 0.22301 0.21786 0.07318 0.0
C324 C 0.26526 0.31316 0.12314 0.0
C325 C 0.27916 0.33034 0.17386 0.0
C326 C 0.25821 0.31844 0.16451 0.0
C327 C 0.29375 0.31956 0.0911 0.0
C328 C 0.3149 0.33139 0.1005 0.0
C329 C 0.30765 0.33696 0.14198 0.0
C330 C 0.24259 0.30065 0.11476 0.0
O331 O 0.2808 0.27473 1.00831 0.0
O332 O 0.26502 0.26532 0.95566 0.0
O333 O 0.19726 0.33022 0.95828 0.0
O334 O 0.22856 0.33445 0.99922 0.0
C335 C 0.28896 0.26729 0.97056 0.0
O336 O 0.21612 0.24503 0.93659 0.0
O337 O 0.1664 0.29238 0.94072 0.0
O338 O 0.15752 0.28037 0.03877 0.0
O339 O 0.16774 0.31307 0.06688 0.0
O340 O 0.22539 0.24072 0.08629 0.0
O341 O 0.21861 0.22417 0.03331 0.0
C342 C 0.21223 0.34697 0.96556 0.0
O343 O 0.21595 0.32305 0.0941 0.0
O344 O 0.2603 0.27231 0.10125 0.0
C345 C 0.16361 0.25073 0.91804 0.0
C346 C 0.12206 0.2226 0.90625 0.0
C347 C 0.1464 0.23295 0.87106 0.0
C348 C 0.16693 0.247 0.87693 0.0
C349 C 0.1396 0.24024 0.95345 0.0
C350 C 0.11895 0.2262 0.94758 0.0
C351 C 0.18515 0.266 0.92295 0.0
H352 H 0.27305 0.33449 0.206 0.0
H353 H 0.23633 0.31349 0.18958 0.0
H354 H 0.29937 0.31568 0.05895 0.0
H355 H 0.33627 0.33695 0.07515 0.0
H356 H 0.15007 0.22963 0.83912 0.0
H357 H 0.18554 0.25486 0.84936 0.0
H358 H 0.13683 0.24294 0.98545 0.0
H359 H 0.10049 0.21825 0.97524 0.0
Tb360 Tb 0.21312 1.0203 0.23982 0.0
Eu361 Eu 0.22547 0.04652 0.30825 0.0
C362 C 0.29116 0.98482 0.26572 0.0
C363 C 0.21402 0.97644 0.34112 0.0
C364 C 0.19217 0.99894 0.1541 0.0
C365 C 0.1908 0.97538 0.10052 0.0
C366 C 0.20864 0.97365 0.13023 0.0
C367 C 0.15911 1.0274 0.14579 0.0
C368 C 0.14121 1.02914 0.11605 0.0
C369 C 0.15623 1.00241 0.09462 0.0
C370 C 0.20774 0.99264 0.19075 0.0
O371 O 0.1616 0.06652 0.24742 0.0
O372 O 0.16388 0.0712 0.31189 0.0
O373 O 0.23264 0.08363 0.24271 0.0
O374 O 0.21392 0.06903 0.19817 0.0
C375 C 0.14641 0.08151 0.28038 0.0
O376 O 0.20267 0.0676 0.36585 0.0
O377 O 0.25628 0.0651 0.32634 0.0
O378 O 0.27713 0.99771 0.30026 0.0
O379 O 0.27298 0.99819 0.23414 0.0
O380 O 0.20738 0.98301 0.30218 0.0
O381 O 0.22226 0.99714 0.35076 0.0
C382 C 0.22395 0.08977 0.20513 0.0
O383 O 0.23451 1.0016 0.18304 0.0
O384 O 0.18428 0.99938 0.22675 0.0
C385 C 0.24487 0.06491 0.40045 0.0
C386 C 0.27695 0.05886 0.4656 0.0
C387 C 0.24177 0.08502 0.46025 0.0
C388 C 0.22588 0.08808 0.42765 0.0
C389 C 0.27806 0.03662 0.4088 0.0
C390 C 0.29403 0.0336 0.44135 0.0
C391 C 0.23145 0.07303 0.36122 0.0
H392 H 0.20301 0.9548 0.08382 0.0
H393 H 0.23432 0.95162 0.13628 0.0
H394 H 0.1462 0.0472 0.16393 0.0
H395 H 0.11449 0.05021 0.11193 0.0
H396 H 0.22805 0.10455 0.4789 0.0
H397 H 0.19994 0.10982 0.42185 0.0
H398 H 0.29279 1.0182 0.38843 0.0
H399 H 0.32126 1.01323 0.4449 0.0
Tb400 Tb 0.48678 0.29048 0.80167 0.0
Eu401 Eu 0.44995 0.27953 0.73653 0.0
C402 C 0.51936 0.21809 0.77818 0.0
C403 C 0.51816 0.29921 0.70145 0.0
C404 C 0.50819 0.32532 0.87249 0.0
C405 C 0.53167 0.35501 0.89502 0.0
C406 C 0.53776 0.33089 0.8737 0.0
C407 C 0.4722 0.34415 0.89339 0.0
C408 C 0.46608 0.36829 0.91506 0.0
C409 C 0.49582 0.37405 0.9159 0.0
C410 C 0.51608 0.30058 0.84782 0.0
O411 O 0.44641 0.34196 0.77824 0.0
O412 O 0.4107 0.33186 0.74924 0.0
O413 O 0.42895 0.25767 0.80582 0.0
O414 O 0.43347 0.29115 0.83891 0.0
C415 C 0.41643 0.35213 0.7632 0.0
O416 O 0.45065 0.2774 0.67209 0.0
O417 O 0.40924 0.26757 0.72607 0.0
O418 O 0.5027 0.23239 0.74506 0.0
O419 O 0.51186 0.23497 0.80757 0.0
O420 O 0.52585 0.28522 0.74031 0.0
O421 O 0.4857 0.30693 0.69464 0.0
C422 C 0.41905 0.27148 0.83897 0.0
O423 O 0.49771 0.28175 0.86278 0.0
O424 O 0.51956 0.31159 0.80605 0.0
C425 C 0.43035 0.23839 0.6687 0.0
C426 C 0.4376 0.187 0.63344 0.0
C427 C 0.44992 0.21219 0.60752 0.0
C428 C 0.44613 0.23766 0.62486 0.0
C429 C 0.41903 0.21261 0.69504 0.0
C430 C 0.42275 0.18713 0.6776 0.0
C431 C 0.42427 0.26715 0.6854 0.0
H432 H 0.55511 0.35879 0.89522 0.0
H433 H 0.56571 0.31673 0.85769 0.0
H434 H 0.44888 0.3405 0.89253 0.0
H435 H 0.43806 0.38295 0.93031 0.0
H436 H 0.46231 0.21237 0.57363 0.0
H437 H 0.45512 0.25712 0.60371 0.0
H438 H 0.40671 0.21239 0.72894 0.0
H439 H 0.41305 0.16804 0.69841 0.0
Tb440 Tb -0.01524 0.78891 0.79827 0.0
Eu441 Eu 0.94887 0.77791 0.7322 0.0
C442 C 0.01805 0.71648 0.77471 0.0
C443 C 0.01671 0.79799 0.69834 0.0
C444 C 0.00482 0.82537 0.8682 0.0
C445 C 0.01543 0.83871 0.92575 0.0
C446 C 0.01918 0.81478 0.90559 0.0
C447 C -0.01421 0.86042 0.85182 0.0
C448 C -0.01793 0.88439 0.87194 0.0
C449 C -0.00284 0.87382 0.90891 0.0
C450 C 0.01336 0.79971 0.84453 0.0
O451 O 0.94472 0.84036 0.77424 0.0
O452 O 0.90921 0.83027 0.74495 0.0
O453 O 0.92737 0.75607 0.80127 0.0
O454 O 0.93127 0.78955 0.83495 0.0
C455 C 0.91477 0.85054 0.75917 0.0
O456 O 0.94997 0.77551 0.66785 0.0
O457 O 0.90834 0.7657 0.72146 0.0
O458 O 0.0017 0.73074 0.74129 0.0
O459 O 0.01 0.73338 0.80431 0.0
O460 O 0.02413 0.78352 0.73726 0.0
O461 O -0.01547 0.80556 0.69088 0.0
C462 C 0.91679 0.77009 0.83438 0.0
O463 O -0.00533 0.78116 0.85984 0.0
O464 O 0.01796 0.80943 0.80255 0.0
C465 C 0.93031 0.73573 0.66535 0.0
C466 C 0.94124 0.68166 0.63241 0.0
C467 C 0.90532 0.70407 0.64899 0.0
C468 C 0.89995 0.73077 0.66526 0.0
C469 C 0.96629 0.71327 0.64903 0.0
C470 C -0.02833 0.68664 0.63259 0.0
C471 C 0.92369 0.76514 0.68092 0.0
H472 H 0.02792 0.82973 0.95371 0.0
H473 H 0.03436 0.78793 0.91849 0.0
H474 H -0.02532 0.86931 0.82281 0.0
H475 H -0.0323 0.91124 0.85835 0.0
H476 H 0.8813 0.70089 0.64951 0.0
H477 H 0.87195 0.74777 0.6775 0.0
H478 H -0.00971 0.71653 0.64842 0.0
H479 H -0.00035 0.67038 0.61922 0.0
Tb480 Tb 0.71326 0.52242 0.23887 0.0
Eu481 Eu 0.72873 0.54581 0.30842 0.0
C482 C 0.79158 0.48461 0.26464 0.0
C483 C 0.71293 0.47739 0.33898 0.0
C484 C 0.6909 0.50973 0.14757 0.0
C485 C 0.68143 0.49206 0.09375 0.0
C486 C 0.70342 0.48692 0.12105 0.0
C487 C 0.65821 0.53965 0.14341 0.0
C488 C 0.63617 0.5448 0.11613 0.0
C489 C 0.64671 0.52003 0.09305 0.0
C490 C 0.70962 0.49937 0.18304 0.0
O491 O 0.65776 0.56278 0.25586 0.0
O492 O 0.66969 0.58068 0.30333 0.0
O493 O 0.74043 0.58066 0.24248 0.0
O494 O 0.70969 0.57382 0.20371 0.0
C495 C 0.64731 0.58368 0.28126 0.0
O496 O 0.70776 0.56493 0.36725 0.0
O497 O 0.76225 0.56023 0.32864 0.0
O498 O 0.77812 0.4959 0.30028 0.0
O499 O 0.77334 0.50011 0.23289 0.0
O500 O 0.71206 0.48148 0.29817 0.0
O501 O 0.71622 0.50031 0.35065 0.0
C502 C 0.72549 0.59101 0.20813 0.0
O503 O 0.73326 0.51171 0.17696 0.0
O504 O 0.68881 0.49942 0.22169 0.0
C505 C 0.75255 0.55455 0.40355 0.0
C506 C 0.7915 0.53236 0.46949 0.0
C507 C 0.76684 0.56674 0.45857 0.0
C508 C 0.74752 0.57774 0.4257 0.0
C509 C 0.77392 0.51969 0.4173 0.0
C510 C 0.79326 0.50861 0.45033 0.0
C511 C 0.73797 0.56765 0.36405 0.0
H512 H 0.68985 0.47247 0.07668 0.0
H513 H 0.72879 0.46379 0.12391 0.0
H514 H 0.64846 0.55762 0.16352 0.0
H515 H 0.60938 0.56652 0.116 0.0
H516 H 0.76537 0.58574 0.47209 0.0
H517 H 0.73072 0.60471 0.41555 0.0
H518 H 0.77755 0.50147 0.40069 0.0
H519 H 0.81213 0.482 0.45815 0.0
Tb520 Tb 0.73172 0.79055 0.05521 0.0
Eu521 Eu 0.70682 0.77462 0.9854 0.0
C522 C 0.64804 0.79942 0.07132 0.0
C523 C 0.7239 0.71939 0.07667 0.0
C524 C 0.77371 0.81908 0.10929 0.0
C525 C 0.82163 0.8194 0.13411 0.0
C526 C 0.80353 0.80194 0.13091 0.0
C527 C 0.76255 0.85395 0.09027 0.0
C528 C 0.78054 0.87148 0.09368 0.0
C529 C 0.81014 0.85439 0.11585 0.0
C530 C 0.7538 0.80035 0.10886 0.0
O531 O 0.77643 0.7867 0.99851 0.0
O532 O 0.76928 0.75198 0.97091 0.0
O533 O 0.70973 0.82606 0.95221 0.0
O534 O 0.71646 0.84027 1.00745 0.0
C535 C 0.78896 0.76658 0.97181 0.0
O536 O 0.71947 0.74076 0.94459 0.0
O537 O 0.67216 0.79009 0.93918 0.0
O538 O 0.65337 0.7935 0.03341 0.0
O539 O 0.67452 0.79855 0.08492 0.0
O540 O 0.74053 0.7361 0.08089 0.0
O541 O 0.70622 0.73142 0.04447 0.0
C542 C 0.71202 0.84799 0.9671 0.0
O543 O 0.7206 0.81841 0.09999 0.0
O544 O 0.77307 0.77464 0.0899 0.0
C545 C 0.66932 0.74576 0.92209 0.0
C546 C 0.62991 0.71465 0.91224 0.0
C547 C 0.65987 0.71805 0.87989 0.0
C548 C 0.67929 0.73362 0.88474 0.0
C549 C 0.6397 0.74217 0.95479 0.0
C550 C 0.62008 0.72672 0.94986 0.0
C551 C 0.69081 0.76135 0.92642 0.0
H552 H 0.84452 0.80557 0.15114 0.0
H553 H 0.81251 0.77506 0.14585 0.0
H554 H 0.73951 0.86782 0.07352 0.0
H555 H 0.77063 0.89858 0.07998 0.0
H556 H 0.66873 0.70813 0.85116 0.0
H557 H 0.7024 0.73589 0.85946 0.0
H558 H 0.63189 0.75118 0.98404 0.0
H559 H 0.59719 0.72427 0.97535 0.0
Tb560 Tb 0.46546 1.00981 0.55866 0.0
Eu561 Eu 0.47139 0.06352 0.46526 0.0
C562 C 0.53692 1.02194 0.51727 0.0
C563 C 0.45043 0.08413 0.55616 0.0
C564 C 0.43518 0.94805 0.63649 0.0
C565 C 0.43142 0.89558 0.64291 0.0
C566 C 0.45137 0.91239 0.64352 0.0
C567 C 0.39797 0.96642 0.63155 0.0
C568 C 0.37814 0.94965 0.63096 0.0
C569 C 0.39513 0.91426 0.635 0.0
C570 C 0.45877 0.96609 0.62604 0.0
O571 O 0.40862 0.04019 0.54874 0.0
O572 O 0.41857 0.05976 0.47473 0.0
O573 O 0.49334 1.01231 0.44922 0.0
O574 O 0.46249 0.98897 0.51117 0.0
C575 C 0.39703 0.05406 0.51194 0.0
O576 O 0.44694 0.11203 0.42115 0.0
O577 O 0.50481 0.07809 0.4038 0.0
O578 O 0.51757 0.05172 0.49541 0.0
O579 O 0.52396 0.99871 0.53433 0.0
O580 O 0.46583 0.05175 0.575 0.0
O581 O 0.44219 0.09332 0.51789 0.0
C582 C 0.48073 0.98907 0.47099 0.0
O583 O 0.48602 0.95895 0.59299 0.0
O584 O 0.44156 0.9988 0.62441 0.0
C585 C 0.49019 0.1354 0.3943 0.0
C586 C 0.51893 0.17953 0.39317 0.0
C587 C 0.51687 0.17579 0.35419 0.0
C588 C 0.50249 0.15381 0.35477 0.0
C589 C 0.49156 0.13972 0.43308 0.0
C590 C 0.50571 0.16156 0.43257 0.0
C591 C 0.47915 0.10916 0.39645 0.0
H592 H 0.44498 0.8682 0.64637 0.0
H593 H 0.48009 0.89775 0.64696 0.0
H594 H 0.38466 0.99395 0.62581 0.0
H595 H 0.34988 0.96451 0.62581 0.0
H596 H 0.52719 0.18921 0.32338 0.0
H597 H 0.50202 0.15044 0.32455 0.0
H598 H 0.48303 0.12512 0.46389 0.0
H599 H 0.50797 0.16303 0.46305 0.0
Tb600 Tb 0.45594 0.50319 0.0819 0.0
Eu601 Eu 0.47499 0.54975 0.98521 0.0
C602 C 0.5331 0.50734 0.04843 0.0
C603 C 0.4529 0.57572 0.07176 0.0
C604 C 0.41751 0.44622 0.1598 0.0
C605 C 0.41376 0.39167 0.18382 0.0
C606 C 0.43117 0.41179 0.18117 0.0
C607 C 0.3858 0.46036 0.14196 0.0
C608 C 0.3686 0.44038 0.14446 0.0
C609 C 0.38259 0.40576 0.1649 0.0
C610 C 0.43827 0.46645 0.15182 0.0
O611 O 0.41139 0.5193 0.05005 0.0
O612 O 0.41298 0.56862 1.00493 0.0
O613 O 0.47008 0.50784 0.97174 0.0
O614 O 0.48121 0.46952 0.03633 0.0
C615 C 0.39544 0.54915 0.02572 0.0
O616 O 0.4616 0.59937 0.94073 0.0
O617 O 0.50821 0.55478 0.92002 0.0
O618 O 0.52906 0.51618 1.0082 0.0
O619 O 0.50661 0.50429 0.08123 0.0
O620 O 0.43738 0.5543 0.09208 0.0
O621 O 0.47398 0.57417 0.03319 0.0
C622 C 0.4778 0.47707 0.99589 0.0
O623 O 0.47095 0.45615 0.12673 0.0
O624 O 0.4196 0.49943 0.14155 0.0
C625 C 0.51594 0.60571 0.90118 0.0
C626 C 0.55557 0.64195 0.89617 0.0
C627 C 0.52109 0.65915 0.88331 0.0
C628 C 0.50149 0.64112 0.88567 0.0
C629 C 0.55115 0.58838 0.91224 0.0
C630 C 0.57079 0.60633 0.90964 0.0
C631 C 0.49192 0.58804 0.91231 0.0
H632 H 0.42483 0.36513 0.20025 0.0
H633 H 0.45577 0.40031 0.19484 0.0
H634 H 0.37476 0.48672 0.12493 0.0
H635 H 0.34492 0.45186 0.12911 0.0
H636 H 0.50838 0.68666 0.87355 0.0
H637 H 0.47417 0.65503 0.87758 0.0
H638 H 0.56287 0.56112 0.92473 0.0
H639 H 0.59741 0.59245 0.9195 0.0
C640 C 0.94805 0.10505 0.11348 0.0
C641 C 0.95406 0.10899 0.06841 0.0
C642 C 0.94372 0.1306 0.13136 0.0
C643 C 0.94531 0.16118 0.10496 0.0
H644 H 0.94637 0.08208 0.1353 0.0
H645 H 0.93861 0.12655 0.16622 0.0
S646 S 0.96422 0.18293 0.98492 0.0
N647 N 0.96365 0.14526 0.9977 0.0
N648 N 0.95587 0.19297 0.03129 0.0
C649 C 0.95203 0.16522 0.05983 0.0
C650 C 0.9563 0.13926 0.04159 0.0
C651 C 0.84506 0.27855 0.43743 0.0
C652 C 0.82451 0.26225 0.43621 0.0
C653 C 0.87587 0.27953 0.40496 0.0
C654 C 0.88778 0.26429 0.36957 0.0
H655 H 0.83677 0.29156 0.46311 0.0
H656 H 0.88989 0.29319 0.40731 0.0
S657 S 0.84553 0.21601 0.35234 0.0
N658 N 0.8198 0.2287 0.39756 0.0
N659 N 0.87762 0.23054 0.33669 0.0
C660 C 0.86843 0.2467 0.36871 0.0
C661 C 0.83693 0.2457 0.40192 0.0
C662 C 0.71004 0.13534 0.63439 0.0
C663 C 0.72571 0.12286 0.67175 0.0
C664 C 0.70995 0.16561 0.60319 0.0
C665 C 0.72578 0.18544 0.60692 0.0
H666 H 0.69714 0.12182 0.62931 0.0
H667 H 0.69706 0.17359 0.57584 0.0
S668 S 0.771 0.16456 0.698 0.0
N669 N 0.75785 0.13371 0.70971 0.0
N670 N 0.75791 0.18931 0.6521 0.0
C671 C 0.74181 0.17307 0.64393 0.0
C672 C 0.7417 0.14242 0.67578 0.0
C673 C 0.88286 1.02125 0.97083 0.0
C674 C 0.87682 0.03853 1.00188 0.0
C675 C 0.85371 1.01902 0.96301 0.0
C676 C 0.8173 0.03427 0.98571 0.0
H677 H 0.91019 1.01029 0.95123 0.0
H678 H 0.85942 1.00764 0.93652 0.0
S679 S 0.78821 0.07653 0.07617 0.0
N680 N 0.83314 0.06657 0.06006 0.0
N681 N 0.7776 0.06278 0.04487 0.0
C682 C 0.81141 0.04889 1.01962 0.0
C683 C 0.84141 0.05088 0.02789 0.0
C684 C 0.08973 1.03061 0.02224 0.0
C685 C 0.0776 1.00441 0.037 0.0
C686 C 0.11692 1.02895 0.03923 0.0
C687 C 0.13337 1.00083 0.07095 0.0
H688 H 0.07669 0.05359 0.99925 0.0
H689 H 0.12401 0.05043 0.02884 0.0
S690 S 0.11534 0.92357 0.11643 0.0
N691 N 0.08711 0.94792 0.08197 0.0
N692 N 0.13829 0.94493 0.11399 0.0
C693 C 0.12365 0.97334 0.08367 0.0
C694 C 0.09574 0.97509 0.06662 0.0
C695 C 0.00672 0.41543 0.48217 0.0
C696 C 0.00016 0.44865 0.45733 0.0
C697 C 0.00881 0.39044 0.46511 0.0
C698 C 0.00356 0.39784 0.42283 0.0
H699 H 0.01013 0.40866 0.51526 0.0
H700 H 0.01387 0.36528 0.48549 0.0
S701 S -0.01481 0.4808 0.34438 0.0
N702 N -0.01149 0.48744 0.388 0.0
N703 N -0.00819 0.44065 0.35628 0.0
C704 C -0.00301 0.43089 0.39758 0.0
C705 C -0.00447 0.4562 0.41468 0.0
C706 C 0.60776 0.30775 0.64093 0.0
C707 C 0.61223 0.30412 0.59906 0.0
C708 C 0.57663 0.30736 0.67303 0.0
C709 C 0.54819 0.3037 0.66484 0.0
H710 H 0.62904 0.3099 0.64964 0.0
H711 H 0.57525 0.30929 0.70495 0.0
S712 S 0.54491 0.2949 0.56036 0.0
N713 N 0.58436 0.29798 0.55085 0.0
N714 N 0.52563 0.29768 0.61126 0.0
C715 C 0.55126 0.30156 0.62272 0.0
C716 C 0.58328 0.30167 0.58987 0.0
C717 C 0.70136 0.92301 0.86528 0.0
C718 C 0.71103 0.94535 0.87421 0.0
C719 C 0.70137 0.8924 0.8952 0.0
C720 C 0.71084 0.88196 0.93635 0.0
H721 H 0.69395 0.92901 0.83449 0.0
H722 H 0.6939 0.87664 0.88567 0.0
S723 S 0.73931 0.9302 0.97659 0.0
N724 N 0.73102 0.9537 0.92831 0.0
N725 N 0.7308 0.89721 0.98358 0.0
C726 C 0.72047 0.90408 0.94582 0.0
C727 C 0.72063 0.93521 0.91527 0.0
C728 C 0.08389 0.29891 0.09054 0.0
C729 C 0.11135 0.30466 0.09783 0.0
C730 C 0.0524 0.29912 0.12269 0.0
C731 C 0.04764 0.30433 0.16363 0.0
H732 H 0.08717 0.29338 0.06012 0.0
H733 H 0.03266 0.29346 0.11616 0.0
S734 S 0.10986 0.32269 0.19857 0.0
N735 N 0.13022 0.31777 0.14857 0.0
N736 N 0.07163 0.31742 0.20891 0.0
C737 C 0.0741 0.3113 0.17083 0.0
C738 C 0.10577 0.3117 0.13795 0.0
C739 C 0.70672 0.42064 0.36125 0.0
C740 C 0.71173 0.44501 0.37239 0.0
C741 C 0.70679 0.38993 0.39092 0.0
C742 C 0.71186 0.38126 0.43396 0.0
H743 H 0.70286 0.42514 0.32894 0.0
H744 H 0.70295 0.37264 0.37963 0.0
S745 S 0.72734 0.43518 0.48042 0.0
N746 N 0.72263 0.45723 0.43063 0.0
N747 N 0.72269 0.40044 0.48544 0.0
C748 C 0.71691 0.40538 0.44563 0.0
C749 C 0.71686 0.43672 0.41536 0.0
C750 C 0.57701 0.04579 0.52249 0.0
C751 C 0.57003 1.01722 0.52975 0.0
C752 C 0.60315 0.04407 0.5414 0.0
C753 C 0.62362 1.01366 0.5677 0.0
H754 H 0.56079 0.07026 0.50406 0.0
H755 H 0.60638 0.06702 0.53676 0.0
S756 S 0.6192 0.93066 0.59289 0.0
N757 N 0.5884 0.95678 0.56185 0.0
N758 N 0.63744 0.9537 0.59761 0.0
C759 C 0.61883 0.98434 0.57288 0.0
C760 C 0.59207 0.98608 0.5538 0.0
C761 C 0.00515 0.94937 0.92095 0.0
C762 C -0.00703 0.94837 0.96566 0.0
C763 C 0.00606 0.92544 0.90291 0.0
C764 C -0.00484 0.8993 0.92882 0.0
H765 H 0.01354 0.96912 0.89946 0.0
H766 H 0.01572 0.92725 0.86835 0.0
S767 S 0.96101 0.88499 0.04763 0.0
N768 N -0.03017 0.91854 0.03549 0.0
N769 N -0.02855 0.87398 1.00138 0.0
C770 C -0.01689 0.89782 0.97353 0.0
C771 C -0.01799 0.92221 0.99196 0.0
C772 C 0.08642 0.15781 0.92023 0.0
C773 C 0.06704 0.17157 0.88623 0.0
C774 C 0.10326 0.17496 0.92713 0.0
C775 C 0.10151 0.20641 0.90015 0.0
H776 H 0.08866 0.1335 0.94162 0.0
H777 H 0.11857 0.16308 0.95313 0.0
S778 S 0.05253 0.25405 0.80799 0.0
N779 N 0.04599 0.21887 0.82618 0.0
N780 N 0.07738 0.25146 0.83941 0.0
C781 C 0.08148 0.22084 0.86664 0.0
C782 C 0.06421 0.20338 0.8597 0.0
C783 C 0.59927 0.63298 0.31495 0.0
C784 C 0.61058 0.61428 0.28312 0.0
C785 C 0.56891 0.66499 0.31403 0.0
C786 C 0.54773 0.67987 0.28169 0.0
H787 H 0.61482 0.62341 0.34031 0.0
H788 H 0.5624 0.67847 0.33862 0.0
S789 S 0.56359 0.64133 0.19187 0.0
N790 N 0.59676 0.61292 0.21895 0.0
N791 N 0.53909 0.67275 0.21783 0.0
C792 C 0.55734 0.6609 0.25078 0.0
C793 C 0.58878 0.62826 0.25138 0.0
C794 C 0.35168 0.8538 0.65601 0.0
C795 C 0.33533 0.86552 0.61972 0.0
C796 C 0.37154 0.8693 0.66046 0.0
C797 C 0.37547 0.89724 0.62894 0.0
H798 H 0.34911 0.83245 0.68121 0.0
H799 H 0.38329 0.85978 0.68912 0.0
S800 S 0.33965 0.93672 0.52687 0.0
N801 N 0.32519 0.90633 0.55124 0.0
N802 N 0.36323 0.93496 0.55918 0.0
C803 C 0.35999 0.90878 0.59206 0.0
C804 C 0.3398 0.89301 0.58751 0.0
C805 C 0.06783 0.66522 0.81142 0.0
C806 C 0.04788 0.68069 0.7777 0.0
C807 C 0.09795 0.6329 0.813 0.0
C808 C 0.10984 0.61437 0.78084 0.0
H809 H 0.06082 0.67849 0.83643 0.0
H810 H 0.1128 0.62296 0.8391 0.0
S811 S 0.0651 0.64165 0.68749 0.0
N812 N 0.04077 0.67343 0.71276 0.0
N813 N 0.09738 0.61315 0.7157 0.0
C814 C 0.08926 0.62885 0.74783 0.0
C815 C 0.05839 0.66178 0.74629 0.0
C816 C 0.8393 0.36159 0.66254 0.0
C817 C 0.83316 0.36699 0.62121 0.0
C818 C 0.85761 0.37756 0.66928 0.0
C819 C 0.87007 0.39972 0.635 0.0
H820 H 0.82955 0.34515 0.69002 0.0
H821 H 0.86166 0.37289 0.70157 0.0
S822 S 0.8636 0.42048 0.52012 0.0
N823 N 0.84302 0.39457 0.54509 0.0
N824 N 0.87685 0.42507 0.558 0.0
C825 C 0.86448 0.40514 0.59348 0.0
C826 C 0.84612 0.3887 0.58652 0.0
C827 C 0.3369 0.93593 0.22959 0.0
C828 C 0.32627 0.95275 0.26322 0.0
C829 C 0.36669 0.90356 0.22904 0.0
C830 C 0.38754 0.88631 0.26203 0.0
H831 H 0.3213 0.94731 0.20393 0.0
H832 H 0.37275 0.89166 0.20296 0.0
S833 S 0.37355 0.92031 0.35571 0.0
N834 N 0.34078 0.95036 0.32907 0.0
N835 N 0.39673 0.88996 0.32808 0.0
C836 C 0.37825 0.90348 0.29496 0.0
C837 C 0.34774 0.93646 0.29556 0.0
C838 C 0.33435 0.43591 0.73285 0.0
C839 C 0.32543 0.45366 0.76487 0.0
C840 C 0.36419 0.40368 0.73208 0.0
C841 C 0.38714 0.38772 0.76278 0.0
H842 H 0.31732 0.44635 0.70881 0.0
H843 H 0.36899 0.39095 0.70739 0.0
S844 S 0.37748 0.42342 0.85244 0.0
N845 N 0.34317 0.45284 0.82759 0.0
N846 N 0.39971 0.39262 0.82551 0.0
C847 C 0.3796 0.40556 0.79408 0.0
C848 C 0.3487 0.43833 0.79532 0.0
C849 C 0.10621 0.80737 0.64087 0.0
C850 C 0.11154 0.80418 0.59854 0.0
C851 C 0.07477 0.80669 0.67209 0.0
C852 C 0.04685 0.80315 0.66251 0.0
H853 H 0.12709 0.80931 0.6507 0.0
H854 H 0.07277 0.8082 0.70445 0.0
S855 S 0.04548 0.79618 0.55604 0.0
N856 N 0.08478 0.7991 0.54816 0.0
N857 N 0.02543 0.7982 0.607 0.0
C858 C 0.05064 0.80168 0.61985 0.0
C859 C 0.083 0.8021 0.58788 0.0
C860 C 0.20482 0.92112 0.36481 0.0
C861 C 0.21318 0.944 0.37454 0.0
C862 C 0.20506 0.89036 0.39443 0.0
C863 C 0.21346 0.8803 0.43607 0.0
H864 H 0.19822 0.92681 0.33361 0.0
H865 H 0.19854 0.87423 0.3843 0.0
S866 S 0.23859 0.92986 0.47839 0.0
N867 N 0.231 0.95319 0.42982 0.0
N868 N 0.23118 0.89637 0.48465 0.0
C869 C 0.22186 0.9029 0.44635 0.0
C870 C 0.2218 0.93421 0.41606 0.0
C871 C 0.92448 0.66052 0.5855 0.0
C872 C 0.94662 0.65372 0.61419 0.0
C873 C 0.92888 0.6348 0.56786 0.0
C874 C 0.95526 0.60104 0.57861 0.0
H875 H 0.90382 0.68609 0.57614 0.0
H876 H 0.91125 0.64144 0.54582 0.0
S877 S 0.02096 0.56984 0.65139 0.0
N878 N -0.00372 0.61063 0.65214 0.0
N879 N 0.00479 0.56248 0.61887 0.0
C880 C -0.02223 0.5939 0.60706 0.0
C881 C -0.02656 0.62015 0.6248 0.0
C882 C 0.33301 0.75305 0.40373 0.0
C883 C 0.32692 0.76027 0.44388 0.0
C884 C 0.36353 0.75436 0.371 0.0
C885 C 0.38972 0.76224 0.37723 0.0
H886 H 0.31311 0.74798 0.39655 0.0
H887 H 0.3661 0.74999 0.34006 0.0
S888 S 0.38867 0.78027 0.4775 0.0
N889 N 0.3512 0.77354 0.48887 0.0
N890 N 0.40887 0.77541 0.42741 0.0
C891 C 0.38525 0.76765 0.41792 0.0
C892 C 0.35376 0.76685 0.45117 0.0
C893 C 0.23402 0.14489 0.17741 0.0
C894 C 0.22452 0.12172 0.17018 0.0
C895 C 0.23371 0.17515 0.1463 0.0
C896 C 0.2241 0.18439 0.10552 0.0
H897 H 0.2416 0.13984 0.2078 0.0
H898 H 0.24112 0.19155 0.15458 0.0
S899 S 0.19597 0.13359 0.06949 0.0
N900 N 0.20448 0.11129 0.11809 0.0
N901 N 0.20418 0.1671 0.06048 0.0
C902 C 0.21459 0.16144 0.09773 0.0
C903 C 0.21472 0.13067 0.12955 0.0
C904 C 0.84347 0.78144 0.9382 0.0
C905 C 0.82391 0.76356 0.939 0.0
C906 C 0.8739 0.7825 0.90507 0.0
C907 C 0.88636 0.76577 0.87097 0.0
H908 H 0.83469 0.79559 0.96281 0.0
H909 H 0.88718 0.79735 0.90584 0.0
S910 S 0.84663 0.71326 0.85912 0.0
N911 N 0.82067 0.72708 0.90361 0.0
N912 N 0.87772 0.7291 0.84147 0.0
C913 C 0.86794 0.74674 0.8721 0.0
C914 C 0.83686 0.74562 0.90599 0.0
C915 C 0.21092 0.63508 0.63535 0.0
C916 C 0.22606 0.62253 0.67308 0.0
C917 C 0.21086 0.66548 0.60467 0.0
C918 C 0.22615 0.68535 0.60941 0.0
H919 H 0.19842 0.62151 0.62956 0.0
H920 H 0.19841 0.67353 0.57692 0.0
S921 S 0.26988 0.66425 0.70187 0.0
N922 N 0.25716 0.63326 0.71256 0.0
N923 N 0.25723 0.6892 0.65585 0.0
C924 C 0.24167 0.67291 0.64681 0.0
C925 C 0.24156 0.64209 0.67813 0.0
C926 C 0.31956 0.03367 0.51746 0.0
C927 C 0.29961 0.06192 0.48811 0.0
C928 C 0.34929 1.03263 0.52902 0.0
C929 C 0.35997 0.05965 0.51098 0.0
H930 H 0.31377 1.01142 0.52911 0.0
H931 H 0.36596 1.00941 0.54893 0.0
S932 S 0.31379 0.141 0.43744 0.0
N933 N 0.29011 0.11898 0.44516 0.0
N934 N 0.3462 0.1167 0.46679 0.0
C935 C 0.33834 0.0891 0.48471 0.0
C936 C 0.30794 0.09036 0.47332 0.0
C937 C 0.83396 0.86839 0.16287 0.0
C938 C 0.8281 0.87314 0.12164 0.0
C939 C 0.8508 0.88574 0.16945 0.0
C940 C 0.86203 0.90868 0.13512 0.0
H941 H 0.82515 0.85135 0.19039 0.0
H942 H 0.85475 0.88142 0.20168 0.0
S943 S 0.85555 0.92835 1.02041 0.0
N944 N 0.83681 0.90102 0.04555 0.0
N945 N 0.86772 0.93424 0.05814 0.0
C946 C 0.85655 0.91357 0.0937 0.0
C947 C 0.83974 0.89567 0.0869 0.0
C948 C 0.59627 0.20567 0.37247 0.0
C949 C 0.58294 0.2265 0.40211 0.0
C950 C 0.57453 0.19207 0.36811 0.0
C951 C 0.53865 0.19879 0.39324 0.0
H952 H 0.6243 0.19871 0.35368 0.0
H953 H 0.58661 0.17485 0.34641 0.0
S954 S 0.48911 0.25514 0.47163 0.0
N955 N 0.53041 0.25568 0.45415 0.0
N956 N 0.48944 0.23003 0.44598 0.0
C957 C 0.52431 0.22085 0.42154 0.0
C958 C 0.54649 0.23468 0.42602 0.0
C959 C 0.83224 0.43318 0.23198 0.0
C960 C 0.8261 0.45234 0.26102 0.0
C961 C 0.86195 0.40078 0.2312 0.0
C962 C 0.88741 0.38609 0.25894 0.0
H963 H 0.81311 0.4427 0.2106 0.0
H964 H 0.86462 0.38696 0.20893 0.0
S965 S 0.88524 0.42662 0.33927 0.0
N966 N 0.84899 0.45473 0.31708 0.0
N967 N 0.90501 0.39439 0.31508 0.0
C968 C 0.88238 0.40558 0.28699 0.0
C969 C 0.85174 0.43843 0.28822 0.0
C970 C 0.03904 0.70602 0.42209 0.0
C971 C 0.05171 0.686 0.39161 0.0
C972 C 0.06061 0.72019 0.42561 0.0
C973 C 0.09569 0.71484 0.3988 0.0
H974 H 0.01267 0.70995 0.44429 0.0
H975 H 0.05036 0.73428 0.45067 0.0
S976 S 0.14022 0.66704 0.31115 0.0
N977 N 0.10083 0.66304 0.33263 0.0
N978 N 0.14076 0.69072 0.33826 0.0
C979 C 0.10789 0.69634 0.36674 0.0
C980 C 0.08601 0.68176 0.36329 0.0
C981 C 0.59939 0.13426 0.81533 0.0
C982 C 0.61021 0.11566 0.78356 0.0
C983 C 0.56953 0.1667 0.81406 0.0
C984 C 0.54883 0.18221 0.78105 0.0
H985 H 0.61489 0.12427 0.84083 0.0
H986 H 0.56333 0.18004 0.83867 0.0
S987 S 0.56313 0.14305 0.69225 0.0
N988 N 0.59591 0.11443 0.71968 0.0
N989 N 0.53981 0.17495 0.71732 0.0
C990 C 0.55825 0.16323 0.75012 0.0
C991 C 0.58882 0.13018 0.75136 0.0
C992 C 0.74445 0.64135 0.17512 0.0
C993 C 0.72553 0.62335 0.17382 0.0
C994 C 0.74413 0.67166 0.14397 0.0
C995 C 0.72481 0.68613 0.10937 0.0
H996 H 0.75976 0.63201 0.20064 0.0
H997 H 0.75918 0.68396 0.1473 0.0
S998 S 0.66952 0.6502 0.09101 0.0
N999 N 0.68611 0.62354 0.13432 0.0
N1000 N 0.68549 0.67939 0.07696 0.0
C1001 C 0.70567 0.66841 0.1078 0.0
C1002 C 0.70603 0.63759 0.13944 0.0
C1003 C 0.88723 0.51266 0.47446 0.0
C1004 C 0.88089 0.52862 0.50709 0.0
C1005 C 0.85844 0.51022 0.46607 0.0
C1006 C 0.82211 0.52403 0.48971 0.0
H1007 H 0.91437 0.50327 0.45387 0.0
H1008 H 0.86423 0.50016 0.43831 0.0
S1009 S 0.79272 0.56208 0.58426 0.0
N1010 N 0.83731 0.55352 0.56769 0.0
N1011 N 0.78245 0.54935 0.55147 0.0
C1012 C 0.81614 0.53698 0.52527 0.0
C1013 C 0.84577 0.53916 0.53412 0.0
C1014 C 0.12413 0.47671 0.58138 0.0
C1015 C 0.1346 0.50378 0.56767 0.0
C1016 C 0.09716 0.47788 0.56449 0.0
C1017 C 0.07978 0.50616 0.53324 0.0
H1018 H 0.13519 0.45542 0.60726 0.0
H1019 H 0.08853 0.45728 0.57782 0.0
S1020 S 0.10264 0.58088 0.48159 0.0
N1021 N 0.12941 0.55749 0.51775 0.0
N1022 N 0.07893 0.55991 0.48511 0.0
C1023 C 0.09243 0.53212 0.51669 0.0
C1024 C 0.11971 0.53094 0.53427 0.0
C1025 C 0.55863 0.7891 0.13004 0.0
C1026 C 0.54823 0.80139 0.16774 0.0
C1027 C 0.58971 0.79022 0.098 0.0
C1028 C 0.61208 0.80344 0.10229 0.0
H1029 H 0.54319 0.77766 0.12553 0.0
H1030 H 0.59709 0.77927 0.07055 0.0
S1031 S 0.59536 0.84178 0.19267 0.0
N1032 N 0.5617 0.82948 0.20579 0.0
N1033 N 0.62 0.83142 0.1459 0.0
C1034 C 0.60118 0.81713 0.13891 0.0
C1035 C 0.56935 0.81618 0.17145 0.0
C1036 C 0.58684 0.51712 0.10956 0.0
C1037 C 0.61825 0.51837 0.07866 0.0
C1038 C 0.56057 0.51207 0.09961 0.0
C1039 C 0.56435 0.50833 0.05808 0.0
H1040 H 0.58282 0.5194 0.14219 0.0
H1041 H 0.53669 0.51184 0.12481 0.0
S1042 S 0.64234 0.50929 0.96562 0.0
N1043 N 0.65262 0.51493 1.00519 0.0
N1044 N 0.60251 0.5059 0.98574 0.0
C1045 C 0.59586 0.50939 0.0267 0.0
C1046 C 0.62302 0.51423 0.03718 0.0
C1047 C 0.32591 0.39753 0.17479 0.0
C1048 C 0.36484 0.38486 0.16453 0.0
C1049 C 0.3078 0.38127 0.16849 0.0
C1050 C 0.32791 0.35186 0.15138 0.0
H1051 H 0.30924 0.42075 0.18676 0.0
H1052 H 0.27773 0.39251 0.17564 0.0
S1053 S 0.4303 0.30656 0.12295 0.0
N1054 N 0.42305 0.33965 0.13941 0.0
N1055 N 0.38877 0.30921 0.1272 0.0
C1056 C 0.36685 0.33807 0.14263 0.0
C1057 C 0.38538 0.35444 0.14951 0.0
C1058 C 0.06735 0.16337 0.31224 0.0
C1059 C 0.04937 0.18009 0.27674 0.0
C1060 C 0.09725 0.1309 0.31401 0.0
C1061 C 0.11089 0.11342 0.28029 0.0
H1062 H 0.05889 0.17572 0.33866 0.0
H1063 H 0.1105 0.11996 0.34168 0.0
S1064 S 0.07211 0.14457 0.18114 0.0
N1065 N 0.04634 0.17541 0.20784 0.0
N1066 N 0.10239 0.11481 0.21123 0.0
C1067 C 0.09228 0.12921 0.24533 0.0
C1068 C 0.06169 0.16232 0.24351 0.0
C1069 C 0.22527 0.4006 0.94091 0.0
C1070 C 0.2111 0.38071 0.93401 0.0
C1071 C 0.22518 0.43144 0.91137 0.0
C1072 C 0.21112 0.44445 0.87273 0.0
H1073 H 0.23681 0.39222 0.96947 0.0
H1074 H 0.23674 0.44502 0.91884 0.0
S1075 S 0.17071 0.4028 0.8382 0.0
N1076 N 0.18238 0.37732 0.88442 0.0
N1077 N 0.18245 0.43404 0.82993 0.0
C1078 C 0.19684 0.42484 0.86549 0.0
C1079 C 0.19676 0.39358 0.8956 0.0
C1080 C 0.33677 0.25073 0.90417 0.0
C1081 C 0.32535 0.26416 0.94112 0.0
C1082 C 0.36784 0.25199 0.87232 0.0
C1083 C 0.38885 0.26698 0.87569 0.0
H1084 H 0.32097 0.23992 0.89905 0.0
H1085 H 0.37458 0.24213 0.84408 0.0
S1086 S 0.37262 0.30361 0.96765 0.0
N1087 N 0.33913 0.29116 0.98036 0.0
N1088 N 0.39734 0.29356 0.92075 0.0
C1089 C 0.37876 0.2792 0.91341 0.0
C1090 C 0.34716 0.27774 0.94601 0.0
C1091 C 0.34532 0.53317 0.03134 0.0
C1092 C 0.35969 0.55782 1.01592 0.0
C1093 C 0.31641 0.53698 1.01549 0.0
C1094 C 0.30064 0.56568 0.98398 0.0
H1095 H 0.35794 0.5096 0.05373 0.0
H1096 H 0.30778 0.51645 0.0261 0.0
S1097 S 0.32385 0.64004 0.93787 0.0
N1098 N 0.35254 0.61401 0.97142 0.0
N1099 N 0.29832 0.62088 0.94112 0.0
C1100 C 0.31234 0.59192 0.97104 0.0
C1101 C 0.34188 0.58805 0.98717 0.0
C1102 C 0.60403 0.67125 0.94145 0.0
C1103 C 0.60997 0.69727 0.9075 0.0
C1104 C 0.58659 0.65347 0.93729 0.0
C1105 C 0.57434 0.66109 0.89907 0.0
H1106 H 0.61344 0.66421 0.97126 0.0
H1107 H 0.58241 0.63374 0.96441 0.0
S1108 S 0.58254 0.72746 0.80101 0.0
N1109 N 0.60134 0.73047 0.83482 0.0
N1110 N 0.56928 0.6964 0.82666 0.0
C1111 C 0.57983 0.68721 0.86498 0.0
C1112 C 0.59756 0.70538 0.86923 0.0
C1113 C 0.86201 0.90231 0.7289 0.0
C1114 C 0.88537 0.8861 0.75919 0.0
C1115 C 0.83237 0.93466 0.72998 0.0
C1116 C 0.82411 0.9523 0.76189 0.0
H1117 H 0.86638 0.88972 0.70426 0.0
H1118 H 0.81503 0.94535 0.70622 0.0
S1119 S 0.87713 0.92122 0.84875 0.0
N1120 N 0.8987 0.89051 0.82172 0.0
N1121 N 0.84277 0.95096 0.82421 0.0
C1122 C 0.84773 0.93665 0.79198 0.0
C1123 C 0.87833 0.90376 0.7905 0.0
C1124 C 0.45442 0.12635 0.63386 0.0
C1125 C 0.43943 0.16122 0.61416 0.0
C1126 C 0.45722 0.10171 0.61543 0.0
C1127 C 0.44485 0.11092 0.57668 0.0
H1128 H 0.46481 0.11794 0.66331 0.0
H1129 H 0.46972 0.07518 0.63145 0.0
S1130 S 0.4008 0.19941 0.51405 0.0
N1131 N 0.41029 0.20392 0.55503 0.0
N1132 N 0.41527 0.15808 0.52047 0.0
C1133 C 0.42892 0.14592 0.55729 0.0
C1134 C 0.42632 0.17089 0.57595 0.0
C1135 C 0.50432 0.42477 0.91406 0.0
C1136 C 0.48992 0.40047 0.93709 0.0
C1137 C 0.50027 0.44941 0.93333 0.0
C1138 C 0.48241 0.45026 0.97672 0.0
H1139 H 0.51862 0.4249 0.88067 0.0
H1140 H 0.51158 0.46772 0.91421 0.0
S1141 S 0.43857 0.39338 0.05072 0.0
N1142 N 0.45603 0.37956 1.00535 0.0
N1143 N 0.44901 0.42557 0.04175 0.0
C1144 C 0.46775 0.42627 1.00012 0.0
C1145 C 0.47127 0.40153 0.98025 0.0
C1146 C 0.47848 0.91121 0.45733 0.0
C1147 C 0.49394 0.91075 0.41334 0.0
C1148 C 0.47425 0.93664 0.47525 0.0
C1149 C 0.48554 0.96278 0.45012 0.0
H1150 H 0.46942 0.89172 0.47819 0.0
H1151 H 0.46218 0.93551 0.50935 0.0
S1152 S 0.52781 0.97306 0.33293 0.0
N1153 N 0.52061 0.93861 0.34488 0.0
N1154 N 0.51273 0.9865 0.37833 0.0
C1155 C 0.50088 0.96274 0.40588 0.0
C1156 C 0.50497 0.93682 0.38757 0.0
C1157 C 0.46994 0.62038 0.07322 0.0
C1158 C 0.44765 0.60225 0.09231 0.0
C1159 C 0.46557 0.64617 0.09049 0.0
C1160 C 0.43856 0.65522 0.12749 0.0
H1161 H 0.49106 0.6148 0.04441 0.0
H1162 H 0.48301 0.65964 0.07411 0.0
S1163 S 0.37444 0.61467 0.19167 0.0
N1164 N 0.39842 0.59451 0.15165 0.0
N1165 N 0.39034 0.64298 0.18415 0.0
C1166 C 0.41651 0.63699 0.14753 0.0
C1167 C 0.42107 0.6105 0.13003 0.0
loop_
_geom_bond_atom_site_label_1
_geom_bond_atom_site_label_2
_geom_bond_distance
_geom_bond_site_symmetry_2
_ccdc_geom_bond_type
Tb0 C10 2.825 . S
Tb0 O11 2.347 1_564 S
Tb0 O14 2.368 1_655 S
Tb0 O19 2.418 1_655 S
Tb0 O20 2.384 1_565 S
Tb0 O23 2.479 . S
Tb0 O24 2.471 . S
Eu1 O12 2.418 1_455 S
Eu1 O13 2.384 1_545 S
Eu1 O16 2.479 . S
Eu1 O17 2.471 . S
Eu1 O18 2.347 1_546 S
Eu1 O21 2.364 1_456 S
Eu1 C31 2.825 . S
C2 O18 1.259 . S
C2 O19 1.265 . S
C3 O20 1.255 . S
C3 O21 1.267 . S
C4 C6 1.380 . S
C4 C7 1.374 . S
C4 C10 1.507 . S
C5 C6 1.384 . S
C5 C9 1.387 . S
C5 H32 0.930 . S
C6 C4 1.380 . S
C6 C5 1.384 . S
C6 H33 0.931 . S
C7 C4 1.374 . S
C7 C8 1.390 . S
C7 H34 0.930 . S
C8 C7 1.390 . S
C8 C9 1.391 . S
C8 H35 0.930 . S
C9 C5 1.387 . S
C9 C8 1.391 . S
C10 Tb0 2.825 . S
C10 C4 1.507 . S
C10 O23 1.238 . S
C10 O24 1.247 . S
O11 Tb0 2.347 1_546 S
O11 C15 1.259 . S
O12 Eu1 2.418 1_655 S
O12 C15 1.265 . S
O13 Eu1 2.384 1_565 S
O13 C22 1.255 . S
O14 Tb0 2.368 1_455 S
O14 C22 1.262 1_554 S
C15 O11 1.259 . S
C15 O12 1.265 . S
O16 Eu1 2.479 . S
O16 C31 1.238 . S
O17 Eu1 2.471 . S
O17 C31 1.247 . S
O18 Eu1 2.347 1_564 S
O18 C2 1.259 . S
O19 Tb0 2.418 1_455 S
O19 C2 1.265 . S
O20 Tb0 2.384 1_545 S
O20 C3 1.255 . S
O21 Eu1 2.364 1_654 S
O21 C3 1.267 . S
C22 O13 1.255 . S
C22 O14 1.262 1_556 S
O23 Tb0 2.479 . S
O23 C10 1.238 . S
O24 Tb0 2.471 . S
O24 C10 1.247 . S
C25 C28 1.380 . S
C25 C29 1.374 . S
C25 C31 1.507 . S
C26 C27 1.387 . S
C26 C30 1.391 . S
C27 C26 1.387 . S
C27 C28 1.384 . S
C27 H36 0.930 . S
C28 C25 1.380 . S
C28 C27 1.384 . S
C28 H37 0.931 . S
C29 C25 1.374 . S
C29 C30 1.390 . S
C29 H38 0.930 . S
C30 C26 1.391 . S
C30 C29 1.390 . S
C30 H39 0.930 . S
C31 Eu1 2.825 . S
C31 O16 1.238 . S
C31 O17 1.247 . S
C31 C25 1.507 . S
H32 C5 0.930 . S
H33 C6 0.931 . S
H34 C7 0.930 . S
H35 C8 0.930 . S
H36 C27 0.930 . S
H37 C28 0.931 . S
H38 C29 0.930 . S
H39 C30 0.930 . S
Tb40 C50 2.825 . S
Tb40 O51 2.347 1_455 S
Tb40 O54 2.366 1_455 S
Tb40 O59 2.418 . S
Tb40 O60 2.384 . S
Tb40 O63 2.479 . S
Tb40 O64 2.471 1_455 S
Eu41 O52 2.418 . S
Eu41 O53 2.384 . S
Eu41 O56 2.479 . S
Eu41 O57 2.471 1_655 S
Eu41 O58 2.347 1_655 S
Eu41 O61 2.366 1_655 S
Eu41 C71 2.825 . S
C42 O58 1.259 . S
C42 O59 1.265 . S
C43 O60 1.255 . S
C43 O61 1.265 . S
C44 C46 1.380 1_655 S
C44 C47 1.374 . S
C44 C50 1.507 1_655 S
C45 C46 1.384 . S
C45 C49 1.387 1_455 S
C45 H72 0.930 . S
C46 C44 1.380 1_455 S
C46 C45 1.384 . S
C46 H73 0.931 . S
C47 C44 1.374 . S
C47 C48 1.390 . S
C47 H74 0.930 . S
C48 C47 1.390 . S
C48 C49 1.391 . S
C48 H75 0.930 . S
C49 C45 1.387 1_655 S
C49 C48 1.391 . S
C50 Tb40 2.825 . S
C50 C44 1.507 1_455 S
C50 O63 1.238 . S
C50 O64 1.247 1_455 S
O51 Tb40 2.347 1_655 S
O51 C55 1.259 . S
O52 Eu41 2.418 . S
O52 C55 1.265 . S
O53 Eu41 2.384 . S
O53 C62 1.255 . S
O54 Tb40 2.366 1_655 S
O54 C62 1.265 . S
C55 O51 1.259 . S
C55 O52 1.265 . S
O56 Eu41 2.479 . S
O56 C71 1.238 . S
O57 Eu41 2.471 1_455 S
O57 C71 1.247 1_455 S
O58 Eu41 2.347 1_455 S
O58 C42 1.259 . S
O59 Tb40 2.418 . S
O59 C42 1.265 . S
O60 Tb40 2.384 . S
O60 C43 1.255 . S
O61 Eu41 2.366 1_455 S
O61 C43 1.265 . S
C62 O53 1.255 . S
C62 O54 1.265 . S
O63 Tb40 2.479 . S
O63 C50 1.238 . S
O64 Tb40 2.471 1_655 S
O64 C50 1.247 1_655 S
C65 C68 1.380 1_455 S
C65 C69 1.374 . S
C65 C71 1.507 1_455 S
C66 C67 1.387 1_455 S
C66 C70 1.391 . S
C67 C66 1.387 1_655 S
C67 C68 1.384 . S
C67 H76 0.930 . S
C68 C65 1.380 1_655 S
C68 C67 1.384 . S
C68 H77 0.931 . S
C69 C65 1.374 . S
C69 C70 1.390 . S
C69 H78 0.930 . S
C70 C66 1.391 . S
C70 C69 1.390 . S
C70 H79 0.930 . S
C71 Eu41 2.825 . S
C71 O56 1.238 . S
C71 O57 1.247 1_655 S
C71 C65 1.507 1_655 S
H72 C45 0.930 . S
H73 C46 0.931 . S
H74 C47 0.930 . S
H75 C48 0.930 . S
H76 C67 0.930 . S
H77 C68 0.931 . S
H78 C69 0.930 . S
H79 C70 0.930 . S
Tb80 C90 2.825 . S
Tb80 O91 2.347 . S
Tb80 O94 2.366 . S
Tb80 O99 2.418 . S
Tb80 O100 2.384 . S
Tb80 O103 2.479 . S
Tb80 O104 2.471 . S
Eu81 O92 2.418 . S
Eu81 O93 2.384 . S
Eu81 O96 2.479 . S
Eu81 O97 2.471 . S
Eu81 O98 2.347 . S
Eu81 O101 2.366 . S
Eu81 C111 2.825 . S
C82 O98 1.259 . S
C82 O99 1.265 . S
C83 O100 1.255 . S
C83 O101 1.265 . S
C84 C86 1.380 . S
C84 C87 1.374 . S
C84 C90 1.507 . S
C85 C86 1.384 . S
C85 C89 1.387 . S
C85 H112 0.930 . S
C86 C84 1.380 . S
C86 C85 1.384 . S
C86 H113 0.931 . S
C87 C84 1.374 . S
C87 C88 1.390 . S
C87 H114 0.930 . S
C88 C87 1.390 . S
C88 C89 1.391 . S
C88 H115 0.930 . S
C89 C85 1.387 . S
C89 C88 1.391 . S
C90 Tb80 2.825 . S
C90 C84 1.507 . S
C90 O103 1.238 . S
C90 O104 1.247 . S
O91 Tb80 2.347 . S
O91 C95 1.259 . S
O92 Eu81 2.418 . S
O92 C95 1.265 . S
O93 Eu81 2.384 . S
O93 C102 1.255 . S
O94 Tb80 2.366 . S
O94 C102 1.265 . S
C95 O91 1.259 . S
C95 O92 1.265 . S
O96 Eu81 2.479 . S
O96 C111 1.238 . S
O97 Eu81 2.471 . S
O97 C111 1.247 . S
O98 Eu81 2.347 . S
O98 C82 1.259 . S
O99 Tb80 2.418 . S
O99 C82 1.265 . S
O100 Tb80 2.384 . S
O100 C83 1.255 . S
O101 Eu81 2.366 . S
O101 C83 1.265 . S
C102 O93 1.255 . S
C102 O94 1.265 . S
O103 Tb80 2.479 . S
O103 C90 1.238 . S
O104 Tb80 2.471 . S
O104 C90 1.247 . S
C105 C108 1.380 . S
C105 C109 1.374 . S
C105 C111 1.507 . S
C106 C107 1.387 . S
C106 C110 1.391 . S
C107 C106 1.387 . S
C107 C108 1.384 . S
C107 H116 0.930 . S
C108 C105 1.380 . S
C108 C107 1.384 . S
C108 H117 0.931 . S
C109 C105 1.374 . S
C109 C110 1.390 . S
C109 H118 0.930 . S
C110 C106 1.391 . S
C110 C109 1.390 . S
C110 H119 0.930 . S
C111 Eu81 2.825 . S
C111 O96 1.238 . S
C111 O97 1.247 . S
C111 C105 1.507 . S
H112 C85 0.930 . S
H113 C86 0.931 . S
H114 C87 0.930 . S
H115 C88 0.930 . S
H116 C107 0.930 . S
H117 C108 0.931 . S
H118 C109 0.930 . S
H119 C110 0.930 . S
Tb120 C130 2.825 1_565 S
Tb120 O131 2.347 1_565 S
Tb120 O134 2.366 1_565 S
Tb120 O139 2.418 . S
Tb120 O140 2.384 . S
Tb120 O143 2.479 . S
Tb120 O144 2.471 1_565 S
Eu121 O132 2.418 . S
Eu121 O133 2.384 . S
Eu121 O136 2.479 . S
Eu121 O137 2.471 1_545 S
Eu121 O138 2.347 1_545 S
Eu121 O141 2.366 1_545 S
Eu121 C151 2.827 1_545 S
C122 O138 1.259 . S
C122 O139 1.265 . S
C123 O140 1.255 . S
C123 O141 1.265 . S
C124 C126 1.380 1_545 S
C124 C127 1.374 . S
C124 C130 1.507 . S
C125 C126 1.384 1_545 S
C125 C129 1.387 . S
C125 H152 0.930 1_545 S
C126 C124 1.380 1_565 S
C126 C125 1.384 1_565 S
C126 H153 0.931 . S
C127 C124 1.374 . S
C127 C128 1.390 . S
C127 H154 0.930 . S
C128 C127 1.390 . S
C128 C129 1.391 . S
C128 H155 0.930 . S
C129 C125 1.387 . S
C129 C128 1.391 . S
C130 Tb120 2.825 1_545 S
C130 C124 1.507 . S
C130 O143 1.238 1_545 S
C130 O144 1.247 . S
O131 Tb120 2.347 1_545 S
O131 C135 1.259 . S
O132 Eu121 2.418 . S
O132 C135 1.265 . S
O133 Eu121 2.384 . S
O133 C142 1.255 . S
O134 Tb120 2.366 1_545 S
O134 C142 1.265 . S
C135 O131 1.259 . S
C135 O132 1.265 . S
O136 Eu121 2.479 . S
O136 C151 1.232 1_545 S
O137 Eu121 2.471 1_565 S
O137 C151 1.254 . S
O138 Eu121 2.347 1_565 S
O138 C122 1.259 . S
O139 Tb120 2.418 . S
O139 C122 1.265 . S
O140 Tb120 2.384 . S
O140 C123 1.255 . S
O141 Eu121 2.366 1_565 S
O141 C123 1.265 . S
C142 O133 1.255 . S
C142 O134 1.265 . S
O143 Tb120 2.479 . S
O143 C130 1.238 1_565 S
O144 Tb120 2.471 1_545 S
O144 C130 1.247 . S
C145 C148 1.380 1_565 S
C145 C149 1.374 . S
C145 C151 1.506 . S
C146 C147 1.418 . S
C146 C150 1.391 . S
C147 C146 1.418 . S
C147 C148 1.389 1_565 S
C147 H156 0.896 1_565 S
C148 C145 1.380 1_545 S
C148 C147 1.389 1_545 S
C148 H157 0.931 . S
C149 C145 1.374 . S
C149 C150 1.390 . S
C149 H158 0.930 . S
C150 C146 1.391 . S
C150 C149 1.390 . S
C150 H159 0.930 . S
C151 Eu121 2.827 1_565 S
C151 O136 1.232 1_565 S
C151 O137 1.254 . S
C151 C145 1.506 . S
H152 C125 0.930 1_565 S
H153 C126 0.931 . S
H154 C127 0.930 . S
H155 C128 0.930 . S
H156 C147 0.896 1_545 S
H157 C148 0.931 . S
H158 C149 0.930 . S
H159 C150 0.930 . S
Tb160 C170 2.825 . S
Tb160 O171 2.347 . S
Tb160 O174 2.366 . S
Tb160 O179 2.418 . S
Tb160 O180 2.384 . S
Tb160 O183 2.479 . S
Tb160 O184 2.471 . S
Eu161 O172 2.418 . S
Eu161 O173 2.384 . S
Eu161 O176 2.479 . S
Eu161 O177 2.471 . S
Eu161 O178 2.347 . S
Eu161 O181 2.366 . S
Eu161 C191 2.825 . S
C162 O178 1.259 . S
C162 O179 1.265 . S
C163 O180 1.255 . S
C163 O181 1.265 . S
C164 C166 1.380 . S
C164 C167 1.374 . S
C164 C170 1.507 . S
C165 C166 1.384 . S
C165 C169 1.387 . S
C165 H192 0.930 . S
C166 C164 1.380 . S
C166 C165 1.384 . S
C166 H193 0.931 . S
C167 C164 1.374 . S
C167 C168 1.390 . S
C167 H194 0.930 . S
C168 C167 1.390 . S
C168 C169 1.391 . S
C168 H195 0.930 . S
C169 C165 1.387 . S
C169 C168 1.391 . S
C170 Tb160 2.825 . S
C170 C164 1.507 . S
C170 O183 1.238 . S
C170 O184 1.247 . S
O171 Tb160 2.347 . S
O171 C175 1.259 . S
O172 Eu161 2.418 . S
O172 C175 1.265 . S
O173 Eu161 2.384 . S
O173 C182 1.255 . S
O174 Tb160 2.366 . S
O174 C182 1.265 . S
C175 O171 1.259 . S
C175 O172 1.265 . S
O176 Eu161 2.479 . S
O176 C191 1.238 . S
O177 Eu161 2.471 . S
O177 C191 1.247 . S
O178 Eu161 2.347 . S
O178 C162 1.259 . S
O179 Tb160 2.418 . S
O179 C162 1.265 . S
O180 Tb160 2.384 . S
O180 C163 1.255 . S
O181 Eu161 2.366 . S
O181 C163 1.265 . S
C182 O173 1.255 . S
C182 O174 1.265 . S
O183 Tb160 2.479 . S
O183 C170 1.238 . S
O184 Tb160 2.471 . S
O184 C170 1.247 . S
C185 C188 1.380 . S
C185 C189 1.374 . S
C185 C191 1.507 . S
C186 C187 1.387 . S
C186 C190 1.391 . S
C187 C186 1.387 . S
C187 C188 1.384 . S
C187 H196 0.930 . S
C188 C185 1.380 . S
C188 C187 1.384 . S
C188 H197 0.931 . S
C189 C185 1.374 . S
C189 C190 1.390 . S
C189 H198 0.930 . S
C190 C186 1.391 . S
C190 C189 1.390 . S
C190 H199 0.930 . S
C191 Eu161 2.825 . S
C191 O176 1.238 . S
C191 O177 1.247 . S
C191 C185 1.507 . S
H192 C165 0.930 . S
H193 C166 0.931 . S
H194 C167 0.930 . S
H195 C168 0.930 . S
H196 C187 0.930 . S
H197 C188 0.931 . S
H198 C189 0.930 . S
H199 C190 0.930 . S
Tb200 C210 2.825 . S
Tb200 O211 2.347 . S
Tb200 O214 2.366 . S
Tb200 O219 2.418 . S
Tb200 O220 2.384 . S
Tb200 O223 2.479 . S
Tb200 O224 2.471 . S
Eu201 O212 2.418 . S
Eu201 O213 2.384 . S
Eu201 O216 2.479 . S
Eu201 O217 2.471 . S
Eu201 O218 2.347 . S
Eu201 O221 2.366 . S
Eu201 C231 2.825 . S
C202 O218 1.259 . S
C202 O219 1.265 . S
C203 O220 1.255 . S
C203 O221 1.265 . S
C204 C206 1.380 . S
C204 C207 1.374 . S
C204 C210 1.507 . S
C205 C206 1.384 . S
C205 C209 1.387 . S
C205 H232 0.930 . S
C206 C204 1.380 . S
C206 C205 1.384 . S
C206 H233 0.931 . S
C207 C204 1.374 . S
C207 C208 1.390 . S
C207 H234 0.930 . S
C208 C207 1.390 . S
C208 C209 1.391 . S
C208 H235 0.930 . S
C209 C205 1.387 . S
C209 C208 1.391 . S
C210 Tb200 2.825 . S
C210 C204 1.507 . S
C210 O223 1.238 . S
C210 O224 1.247 . S
O211 Tb200 2.347 . S
O211 C215 1.259 . S
O212 Eu201 2.418 . S
O212 C215 1.265 . S
O213 Eu201 2.384 . S
O213 C222 1.255 . S
O214 Tb200 2.366 . S
O214 C222 1.265 . S
C215 O211 1.259 . S
C215 O212 1.265 . S
O216 Eu201 2.479 . S
O216 C231 1.238 . S
O217 Eu201 2.471 . S
O217 C231 1.247 . S
O218 Eu201 2.347 . S
O218 C202 1.259 . S
O219 Tb200 2.418 . S
O219 C202 1.265 . S
O220 Tb200 2.384 . S
O220 C203 1.255 . S
O221 Eu201 2.366 . S
O221 C203 1.265 . S
C222 O213 1.255 . S
C222 O214 1.265 . S
O223 Tb200 2.479 . S
O223 C210 1.238 . S
O224 Tb200 2.471 . S
O224 C210 1.247 . S
C225 C228 1.380 . S
C225 C229 1.374 . S
C225 C231 1.507 . S
C226 C227 1.387 . S
C226 C230 1.391 . S
C227 C226 1.387 . S
C227 C228 1.384 . S
C227 H236 0.930 . S
C228 C225 1.380 . S
C228 C227 1.384 . S
C228 H237 0.931 . S
C229 C225 1.374 . S
C229 C230 1.390 . S
C229 H238 0.930 . S
C230 C226 1.391 . S
C230 C229 1.390 . S
C230 H239 0.930 . S
C231 Eu201 2.825 . S
C231 O216 1.238 . S
C231 O217 1.247 . S
C231 C225 1.507 . S
H232 C205 0.930 . S
H233 C206 0.931 . S
H234 C207 0.930 . S
H235 C208 0.930 . S
H236 C227 0.930 . S
H237 C228 0.931 . S
H238 C229 0.930 . S
H239 C230 0.930 . S
Tb240 C250 2.825 . S
Tb240 O251 2.347 . S
Tb240 O254 2.366 . S
Tb240 O259 2.418 . S
Tb240 O260 2.384 . S
Tb240 O263 2.479 . S
Tb240 O264 2.471 . S
Eu241 O252 2.418 . S
Eu241 O253 2.384 . S
Eu241 O256 2.479 . S
Eu241 O257 2.471 . S
Eu241 O258 2.347 . S
Eu241 O261 2.366 . S
Eu241 C271 2.825 . S
C242 O258 1.259 . S
C242 O259 1.265 . S
C243 O260 1.255 . S
C243 O261 1.265 . S
C244 C246 1.380 . S
C244 C247 1.374 . S
C244 C250 1.507 . S
C245 C246 1.384 . S
C245 C249 1.387 . S
C245 H272 0.930 . S
C246 C244 1.380 . S
C246 C245 1.384 . S
C246 H273 0.931 . S
C247 C244 1.374 . S
C247 C248 1.390 . S
C247 H274 0.930 . S
C248 C247 1.390 . S
C248 C249 1.391 . S
C248 H275 0.930 . S
C249 C245 1.387 . S
C249 C248 1.391 . S
C250 Tb240 2.825 . S
C250 C244 1.507 . S
C250 O263 1.238 . S
C250 O264 1.247 . S
O251 Tb240 2.347 . S
O251 C255 1.259 . S
O252 Eu241 2.418 . S
O252 C255 1.265 . S
O253 Eu241 2.384 . S
O253 C262 1.255 . S
O254 Tb240 2.366 . S
O254 C262 1.265 . S
C255 O251 1.259 . S
C255 O252 1.265 . S
O256 Eu241 2.479 . S
O256 C271 1.238 . S
O257 Eu241 2.471 . S
O257 C271 1.247 . S
O258 Eu241 2.347 . S
O258 C242 1.259 . S
O259 Tb240 2.418 . S
O259 C242 1.265 . S
O260 Tb240 2.384 . S
O260 C243 1.255 . S
O261 Eu241 2.366 . S
O261 C243 1.265 . S
C262 O253 1.255 . S
C262 O254 1.265 . S
O263 Tb240 2.479 . S
O263 C250 1.238 . S
O264 Tb240 2.471 . S
O264 C250 1.247 . S
C265 C268 1.380 . S
C265 C269 1.374 . S
C265 C271 1.507 . S
C266 C267 1.387 . S
C266 C270 1.391 . S
C267 C266 1.387 . S
C267 C268 1.384 . S
C267 H276 0.930 . S
C268 C265 1.380 . S
C268 C267 1.384 . S
C268 H277 0.931 . S
C269 C265 1.374 . S
C269 C270 1.390 . S
C269 H278 0.930 . S
C270 C266 1.391 . S
C270 C269 1.390 . S
C270 H279 0.930 . S
C271 Eu241 2.825 . S
C271 O256 1.238 . S
C271 O257 1.247 . S
C271 C265 1.507 . S
H272 C245 0.930 . S
H273 C246 0.931 . S
H274 C247 0.930 . S
H275 C248 0.930 . S
H276 C267 0.930 . S
H277 C268 0.931 . S
H278 C269 0.930 . S
H279 C270 0.930 . S
Tb280 C290 2.825 . S
Tb280 O291 2.347 . S
Tb280 O294 2.366 1_655 S
Tb280 O299 2.418 1_655 S
Tb280 O300 2.384 . S
Tb280 O303 2.479 . S
Tb280 O304 2.471 . S
Eu281 O292 2.418 1_455 S
Eu281 O293 2.384 . S
Eu281 O296 2.479 . S
Eu281 O297 2.471 . S
Eu281 O298 2.347 . S
Eu281 O301 2.366 1_455 S
Eu281 C311 2.825 . S
C282 O298 1.259 . S
C282 O299 1.265 . S
C283 O300 1.255 . S
C283 O301 1.265 . S
C284 C286 1.380 . S
C284 C287 1.374 . S
C284 C290 1.507 . S
C285 C286 1.384 . S
C285 C289 1.387 . S
C285 H312 0.930 . S
C286 C284 1.380 . S
C286 C285 1.384 . S
C286 H313 0.931 . S
C287 C284 1.374 . S
C287 C288 1.390 . S
C287 H314 0.930 . S
C288 C287 1.390 . S
C288 C289 1.391 . S
C288 H315 0.930 . S
C289 C285 1.387 . S
C289 C288 1.391 . S
C290 Tb280 2.825 . S
C290 C284 1.507 . S
C290 O303 1.238 . S
C290 O304 1.247 . S
O291 Tb280 2.347 . S
O291 C295 1.259 . S
O292 Eu281 2.418 1_655 S
O292 C295 1.265 . S
O293 Eu281 2.384 . S
O293 C302 1.255 . S
O294 Tb280 2.366 1_455 S
O294 C302 1.265 . S
C295 O291 1.259 . S
C295 O292 1.265 . S
O296 Eu281 2.479 . S
O296 C311 1.238 . S
O297 Eu281 2.471 . S
O297 C311 1.247 . S
O298 Eu281 2.347 . S
O298 C282 1.259 . S
O299 Tb280 2.418 1_455 S
O299 C282 1.265 . S
O300 Tb280 2.384 . S
O300 C283 1.255 . S
O301 Eu281 2.366 1_655 S
O301 C283 1.265 . S
C302 O293 1.255 . S
C302 O294 1.265 . S
O303 Tb280 2.479 . S
O303 C290 1.238 . S
O304 Tb280 2.471 . S
O304 C290 1.247 . S
C305 C308 1.380 . S
C305 C309 1.374 . S
C305 C311 1.507 . S
C306 C307 1.387 . S
C306 C310 1.391 . S
C307 C306 1.387 . S
C307 C308 1.384 . S
C307 H316 0.930 . S
C308 C305 1.380 . S
C308 C307 1.384 . S
C308 H317 0.931 . S
C309 C305 1.374 . S
C309 C310 1.390 . S
C309 H318 0.930 . S
C310 C306 1.391 . S
C310 C309 1.390 . S
C310 H319 0.930 . S
C311 Eu281 2.825 . S
C311 O296 1.238 . S
C311 O297 1.247 . S
C311 C305 1.507 . S
H312 C285 0.930 . S
H313 C286 0.931 . S
H314 C287 0.930 . S
H315 C288 0.930 . S
H316 C307 0.930 . S
H317 C308 0.931 . S
H318 C309 0.930 . S
H319 C310 0.930 . S
Tb320 C330 2.825 . S
Tb320 O331 2.347 1_554 S
Tb320 O334 2.366 1_554 S
Tb320 O339 2.418 . S
Tb320 O340 2.384 . S
Tb320 O343 2.479 . S
Tb320 O344 2.471 . S
Eu321 O332 2.418 . S
Eu321 O333 2.384 . S
Eu321 O336 2.479 . S
Eu321 O337 2.471 . S
Eu321 O338 2.347 1_556 S
Eu321 O341 2.366 1_556 S
Eu321 C351 2.825 . S
C322 O338 1.259 . S
C322 O339 1.265 . S
C323 O340 1.255 . S
C323 O341 1.265 . S
C324 C326 1.380 . S
C324 C327 1.383 . S
C324 C330 1.507 . S
C325 C326 1.384 . S
C325 C329 1.387 . S
C325 H352 0.930 . S
C326 C324 1.380 . S
C326 C325 1.384 . S
C326 H353 0.931 . S
C327 C324 1.383 . S
C327 C328 1.394 1_554 S
C327 H354 0.918 1_554 S
C328 C327 1.394 1_556 S
C328 C329 1.391 1_556 S
C328 H355 0.930 . S
C329 C325 1.387 . S
C329 C328 1.391 1_554 S
C330 Tb320 2.825 . S
C330 C324 1.507 . S
C330 O343 1.238 . S
C330 O344 1.247 . S
O331 Tb320 2.347 1_556 S
O331 C335 1.259 . S
O332 Eu321 2.418 . S
O332 C335 1.265 . S
O333 Eu321 2.384 . S
O333 C342 1.255 . S
O334 Tb320 2.366 1_556 S
O334 C342 1.265 . S
C335 O331 1.259 . S
C335 O332 1.265 . S
O336 Eu321 2.479 . S
O336 C351 1.238 . S
O337 Eu321 2.471 . S
O337 C351 1.247 . S
O338 Eu321 2.347 1_554 S
O338 C322 1.259 . S
O339 Tb320 2.418 . S
O339 C322 1.265 . S
O340 Tb320 2.384 . S
O340 C323 1.255 . S
O341 Eu321 2.366 1_554 S
O341 C323 1.265 . S
C342 O333 1.255 . S
C342 O334 1.265 . S
O343 Tb320 2.479 . S
O343 C330 1.238 . S
O344 Tb320 2.471 . S
O344 C330 1.247 . S
C345 C348 1.380 . S
C345 C349 1.373 . S
C345 C351 1.507 . S
C346 C347 1.387 . S
C346 C350 1.391 1_556 S
C347 C346 1.387 . S
C347 C348 1.384 . S
C347 H356 0.930 . S
C348 C345 1.380 . S
C348 C347 1.384 . S
C348 H357 0.931 . S
C349 C345 1.373 . S
C349 C350 1.390 1_556 S
C349 H358 0.931 1_556 S
C350 C346 1.391 1_554 S
C350 C349 1.390 1_554 S
C350 H359 0.930 . S
C351 Eu321 2.825 . S
C351 O336 1.238 . S
C351 O337 1.247 . S
C351 C345 1.507 . S
H352 C325 0.930 . S
H353 C326 0.931 . S
H354 C327 0.918 1_556 S
H355 C328 0.930 . S
H356 C347 0.930 . S
H357 C348 0.931 . S
H358 C349 0.931 1_554 S
H359 C350 0.930 . S
Tb360 C370 2.825 1_565 S
Tb360 O371 2.347 1_565 S
Tb360 O374 2.366 1_565 S
Tb360 O379 2.418 . S
Tb360 O380 2.384 . S
Tb360 O383 2.479 . S
Tb360 O384 2.471 1_565 S
Eu361 O372 2.418 . S
Eu361 O373 2.384 . S
Eu361 O376 2.479 . S
Eu361 O377 2.471 1_545 S
Eu361 O378 2.347 1_545 S
Eu361 O381 2.366 1_545 S
Eu361 C391 2.827 1_545 S
C362 O378 1.259 . S
C362 O379 1.265 . S
C363 O380 1.255 . S
C363 O381 1.265 . S
C364 C366 1.380 1_545 S
C364 C367 1.374 . S
C364 C370 1.507 . S
C365 C366 1.384 1_545 S
C365 C369 1.387 . S
C365 H392 0.930 1_545 S
C366 C364 1.380 1_565 S
C366 C365 1.384 1_565 S
C366 H393 0.931 . S
C367 C364 1.374 . S
C367 C368 1.390 . S
C367 H394 0.930 . S
C368 C367 1.390 . S
C368 C369 1.391 . S
C368 H395 0.930 . S
C369 C365 1.387 . S
C369 C368 1.391 . S
C370 Tb360 2.825 1_545 S
C370 C364 1.507 . S
C370 O383 1.238 1_545 S
C370 O384 1.247 . S
O371 Tb360 2.347 1_545 S
O371 C375 1.259 . S
O372 Eu361 2.418 . S
O372 C375 1.265 . S
O373 Eu361 2.384 . S
O373 C382 1.255 . S
O374 Tb360 2.366 1_545 S
O374 C382 1.265 . S
C375 O371 1.259 . S
C375 O372 1.265 . S
O376 Eu361 2.479 . S
O376 C391 1.232 1_545 S
O377 Eu361 2.471 1_565 S
O377 C391 1.253 . S
O378 Eu361 2.347 1_565 S
O378 C362 1.259 . S
O379 Tb360 2.418 . S
O379 C362 1.265 . S
O380 Tb360 2.384 . S
O380 C363 1.255 . S
O381 Eu361 2.366 1_565 S
O381 C363 1.265 . S
C382 O373 1.255 . S
C382 O374 1.265 . S
O383 Tb360 2.479 . S
O383 C370 1.238 1_565 S
O384 Tb360 2.471 1_545 S
O384 C370 1.247 . S
C385 C388 1.380 1_565 S
C385 C389 1.374 . S
C385 C391 1.506 . S
C386 C387 1.417 . S
C386 C390 1.391 . S
C387 C386 1.417 . S
C387 C388 1.389 1_565 S
C387 H396 0.896 1_565 S
C388 C385 1.380 1_545 S
C388 C387 1.389 1_545 S
C388 H397 0.931 . S
C389 C385 1.374 . S
C389 C390 1.390 . S
C389 H398 0.930 . S
C390 C386 1.391 . S
C390 C389 1.390 . S
C390 H399 0.930 . S
C391 Eu361 2.827 1_565 S
C391 O376 1.232 1_565 S
C391 O377 1.253 . S
C391 C385 1.506 . S
H392 C365 0.930 1_565 S
H393 C366 0.931 . S
H394 C367 0.930 . S
H395 C368 0.930 . S
H396 C387 0.896 1_545 S
H397 C388 0.931 . S
H398 C389 0.930 . S
H399 C390 0.930 . S
Tb400 C410 2.825 . S
Tb400 O411 2.347 . S
Tb400 O414 2.366 . S
Tb400 O419 2.418 . S
Tb400 O420 2.384 . S
Tb400 O423 2.479 . S
Tb400 O424 2.471 . S
Eu401 O412 2.418 . S
Eu401 O413 2.384 . S
Eu401 O416 2.479 . S
Eu401 O417 2.471 . S
Eu401 O418 2.347 . S
Eu401 O421 2.366 . S
Eu401 C431 2.825 . S
C402 O418 1.259 . S
C402 O419 1.265 . S
C403 O420 1.255 . S
C403 O421 1.265 . S
C404 C406 1.380 . S
C404 C407 1.374 . S
C404 C410 1.507 . S
C405 C406 1.384 . S
C405 C409 1.387 . S
C405 H432 0.930 . S
C406 C404 1.380 . S
C406 C405 1.384 . S
C406 H433 0.931 . S
C407 C404 1.374 . S
C407 C408 1.390 . S
C407 H434 0.930 . S
C408 C407 1.390 . S
C408 C409 1.391 . S
C408 H435 0.930 . S
C409 C405 1.387 . S
C409 C408 1.391 . S
C410 Tb400 2.825 . S
C410 C404 1.507 . S
C410 O423 1.238 . S
C410 O424 1.247 . S
O411 Tb400 2.347 . S
O411 C415 1.259 . S
O412 Eu401 2.418 . S
O412 C415 1.265 . S
O413 Eu401 2.384 . S
O413 C422 1.255 . S
O414 Tb400 2.366 . S
O414 C422 1.265 . S
C415 O411 1.259 . S
C415 O412 1.265 . S
O416 Eu401 2.479 . S
O416 C431 1.238 . S
O417 Eu401 2.471 . S
O417 C431 1.247 . S
O418 Eu401 2.347 . S
O418 C402 1.259 . S
O419 Tb400 2.418 . S
O419 C402 1.265 . S
O420 Tb400 2.384 . S
O420 C403 1.255 . S
O421 Eu401 2.366 . S
O421 C403 1.265 . S
C422 O413 1.255 . S
C422 O414 1.265 . S
O423 Tb400 2.479 . S
O423 C410 1.238 . S
O424 Tb400 2.471 . S
O424 C410 1.247 . S
C425 C428 1.380 . S
C425 C429 1.374 . S
C425 C431 1.507 . S
C426 C427 1.387 . S
C426 C430 1.391 . S
C427 C426 1.387 . S
C427 C428 1.384 . S
C427 H436 0.930 . S
C428 C425 1.380 . S
C428 C427 1.384 . S
C428 H437 0.931 . S
C429 C425 1.374 . S
C429 C430 1.390 . S
C429 H438 0.930 . S
C430 C426 1.391 . S
C430 C429 1.390 . S
C430 H439 0.930 . S
C431 Eu401 2.825 . S
C431 O416 1.238 . S
C431 O417 1.247 . S
C431 C425 1.507 . S
H432 C405 0.930 . S
H433 C406 0.931 . S
H434 C407 0.930 . S
H435 C408 0.930 . S
H436 C427 0.930 . S
H437 C428 0.931 . S
H438 C429 0.930 . S
H439 C430 0.930 . S
Tb440 C450 2.825 . S
Tb440 O451 2.347 1_455 S
Tb440 O454 2.366 1_455 S
Tb440 O459 2.418 . S
Tb440 O460 2.384 . S
Tb440 O463 2.479 . S
Tb440 O464 2.471 1_455 S
Eu441 O452 2.418 . S
Eu441 O453 2.384 . S
Eu441 O456 2.479 . S
Eu441 O457 2.471 1_655 S
Eu441 O458 2.347 1_655 S
Eu441 O461 2.366 1_655 S
Eu441 C471 2.825 . S
C442 O458 1.259 . S
C442 O459 1.265 . S
C443 O460 1.255 . S
C443 O461 1.265 . S
C444 C446 1.380 1_655 S
C444 C447 1.374 . S
C444 C450 1.507 1_655 S
C445 C446 1.384 . S
C445 C449 1.387 1_455 S
C445 H472 0.930 . S
C446 C444 1.380 1_455 S
C446 C445 1.384 . S
C446 H473 0.931 . S
C447 C444 1.374 . S
C447 C448 1.390 . S
C447 H474 0.930 . S
C448 C447 1.390 . S
C448 C449 1.391 . S
C448 H475 0.930 . S
C449 C445 1.387 1_655 S
C449 C448 1.391 . S
C450 Tb440 2.825 . S
C450 C444 1.507 1_455 S
C450 O463 1.238 . S
C450 O464 1.247 1_455 S
O451 Tb440 2.347 1_655 S
O451 C455 1.259 . S
O452 Eu441 2.418 . S
O452 C455 1.265 . S
O453 Eu441 2.384 . S
O453 C462 1.255 . S
O454 Tb440 2.366 1_655 S
O454 C462 1.265 . S
C455 O451 1.259 . S
C455 O452 1.265 . S
O456 Eu441 2.479 . S
O456 C471 1.238 . S
O457 Eu441 2.471 1_455 S
O457 C471 1.247 1_455 S
O458 Eu441 2.347 1_455 S
O458 C442 1.259 . S
O459 Tb440 2.418 . S
O459 C442 1.265 . S
O460 Tb440 2.384 . S
O460 C443 1.255 . S
O461 Eu441 2.366 1_455 S
O461 C443 1.265 . S
C462 O453 1.255 . S
C462 O454 1.265 . S
O463 Tb440 2.479 . S
O463 C450 1.238 . S
O464 Tb440 2.471 1_655 S
O464 C450 1.247 1_655 S
C465 C468 1.380 1_455 S
C465 C469 1.374 . S
C465 C471 1.507 1_455 S
C466 C467 1.387 1_455 S
C466 C470 1.391 . S
C467 C466 1.387 1_655 S
C467 C468 1.384 . S
C467 H476 0.930 . S
C468 C465 1.380 1_655 S
C468 C467 1.384 . S
C468 H477 0.931 . S
C469 C465 1.374 . S
C469 C470 1.390 . S
C469 H478 0.930 . S
C470 C466 1.391 . S
C470 C469 1.390 . S
C470 H479 0.930 . S
C471 Eu441 2.825 . S
C471 O456 1.238 . S
C471 O457 1.247 1_655 S
C471 C465 1.507 1_655 S
H472 C445 0.930 . S
H473 C446 0.931 . S
H474 C447 0.930 . S
H475 C448 0.930 . S
H476 C467 0.930 . S
H477 C468 0.931 . S
H478 C469 0.930 . S
H479 C470 0.930 . S
Tb480 C490 2.825 . S
Tb480 O491 2.347 . S
Tb480 O494 2.366 . S
Tb480 O499 2.418 . S
Tb480 O500 2.384 . S
Tb480 O503 2.479 . S
Tb480 O504 2.471 . S
Eu481 O492 2.418 . S
Eu481 O493 2.384 . S
Eu481 O496 2.479 . S
Eu481 O497 2.471 . S
Eu481 O498 2.347 . S
Eu481 O501 2.366 . S
Eu481 C511 2.825 . S
C482 O498 1.259 . S
C482 O499 1.265 . S
C483 O500 1.255 . S
C483 O501 1.265 . S
C484 C486 1.380 . S
C484 C487 1.374 . S
C484 C490 1.507 . S
C485 C486 1.384 . S
C485 C489 1.387 . S
C485 H512 0.930 . S
C486 C484 1.380 . S
C486 C485 1.384 . S
C486 H513 0.931 . S
C487 C484 1.374 . S
C487 C488 1.390 . S
C487 H514 0.930 . S
C488 C487 1.390 . S
C488 C489 1.391 . S
C488 H515 0.930 . S
C489 C485 1.387 . S
C489 C488 1.391 . S
C490 Tb480 2.825 . S
C490 C484 1.507 . S
C490 O503 1.238 . S
C490 O504 1.247 . S
O491 Tb480 2.347 . S
O491 C495 1.259 . S
O492 Eu481 2.418 . S
O492 C495 1.265 . S
O493 Eu481 2.384 . S
O493 C502 1.255 . S
O494 Tb480 2.366 . S
O494 C502 1.265 . S
C495 O491 1.259 . S
C495 O492 1.265 . S
O496 Eu481 2.479 . S
O496 C511 1.238 . S
O497 Eu481 2.471 . S
O497 C511 1.247 . S
O498 Eu481 2.347 . S
O498 C482 1.259 . S
O499 Tb480 2.418 . S
O499 C482 1.265 . S
O500 Tb480 2.384 . S
O500 C483 1.255 . S
O501 Eu481 2.366 . S
O501 C483 1.265 . S
C502 O493 1.255 . S
C502 O494 1.265 . S
O503 Tb480 2.479 . S
O503 C490 1.238 . S
O504 Tb480 2.471 . S
O504 C490 1.247 . S
C505 C508 1.380 . S
C505 C509 1.374 . S
C505 C511 1.507 . S
C506 C507 1.387 . S
C506 C510 1.391 . S
C507 C506 1.387 . S
C507 C508 1.384 . S
C507 H516 0.930 . S
C508 C505 1.380 . S
C508 C507 1.384 . S
C508 H517 0.931 . S
C509 C505 1.374 . S
C509 C510 1.390 . S
C509 H518 0.930 . S
C510 C506 1.391 . S
C510 C509 1.390 . S
C510 H519 0.930 . S
C511 Eu481 2.825 . S
C511 O496 1.238 . S
C511 O497 1.247 . S
C511 C505 1.507 . S
H512 C485 0.930 . S
H513 C486 0.931 . S
H514 C487 0.930 . S
H515 C488 0.930 . S
H516 C507 0.930 . S
H517 C508 0.931 . S
H518 C509 0.930 . S
H519 C510 0.930 . S
Tb520 C530 2.825 . S
Tb520 O531 2.347 1_554 S
Tb520 O534 2.366 1_554 S
Tb520 O539 2.418 . S
Tb520 O540 2.384 . S
Tb520 O543 2.479 . S
Tb520 O544 2.471 . S
Eu521 O532 2.418 . S
Eu521 O533 2.384 . S
Eu521 O536 2.479 . S
Eu521 O537 2.471 . S
Eu521 O538 2.347 1_556 S
Eu521 O541 2.366 1_556 S
Eu521 C551 2.825 . S
C522 O538 1.259 . S
C522 O539 1.265 . S
C523 O540 1.255 . S
C523 O541 1.265 . S
C524 C526 1.380 . S
C524 C527 1.383 . S
C524 C530 1.507 . S
C525 C526 1.384 . S
C525 C529 1.387 . S
C525 H552 0.930 . S
C526 C524 1.380 . S
C526 C525 1.384 . S
C526 H553 0.931 . S
C527 C524 1.383 . S
C527 C528 1.394 1_554 S
C527 H554 0.918 1_554 S
C528 C527 1.394 1_556 S
C528 C529 1.391 1_556 S
C528 H555 0.930 . S
C529 C525 1.387 . S
C529 C528 1.391 1_554 S
C530 Tb520 2.825 . S
C530 C524 1.507 . S
C530 O543 1.238 . S
C530 O544 1.247 . S
O531 Tb520 2.347 1_556 S
O531 C535 1.259 . S
O532 Eu521 2.418 . S
O532 C535 1.265 . S
O533 Eu521 2.384 . S
O533 C542 1.255 . S
O534 Tb520 2.366 1_556 S
O534 C542 1.265 . S
C535 O531 1.259 . S
C535 O532 1.265 . S
O536 Eu521 2.479 . S
O536 C551 1.238 . S
O537 Eu521 2.471 . S
O537 C551 1.247 . S
O538 Eu521 2.347 1_554 S
O538 C522 1.259 . S
O539 Tb520 2.418 . S
O539 C522 1.265 . S
O540 Tb520 2.384 . S
O540 C523 1.255 . S
O541 Eu521 2.366 1_554 S
O541 C523 1.265 . S
C542 O533 1.255 . S
C542 O534 1.265 . S
O543 Tb520 2.479 . S
O543 C530 1.238 . S
O544 Tb520 2.471 . S
O544 C530 1.247 . S
C545 C548 1.380 . S
C545 C549 1.373 . S
C545 C551 1.507 . S
C546 C547 1.387 . S
C546 C550 1.391 1_556 S
C547 C546 1.387 . S
C547 C548 1.384 . S
C547 H556 0.930 . S
C548 C545 1.380 . S
C548 C547 1.384 . S
C548 H557 0.931 . S
C549 C545 1.373 . S
C549 C550 1.390 1_556 S
C549 H558 0.931 1_556 S
C550 C546 1.391 1_554 S
C550 C549 1.390 1_554 S
C550 H559 0.930 . S
C551 Eu521 2.825 . S
C551 O536 1.238 . S
C551 O537 1.247 . S
C551 C545 1.507 . S
H552 C525 0.930 . S
H553 C526 0.931 . S
H554 C527 0.918 1_556 S
H555 C528 0.930 . S
H556 C547 0.930 . S
H557 C548 0.931 . S
H558 C549 0.931 1_554 S
H559 C550 0.930 . S
Tb560 C570 2.825 . S
Tb560 O571 2.347 1_565 S
Tb560 O574 2.366 . S
Tb560 O579 2.418 . S
Tb560 O580 2.384 1_565 S
Tb560 O583 2.479 . S
Tb560 O584 2.471 . S
Eu561 O572 2.418 . S
Eu561 O573 2.384 1_545 S
Eu561 O576 2.479 . S
Eu561 O577 2.471 . S
Eu561 O578 2.347 1_545 S
Eu561 O581 2.366 . S
Eu561 C591 2.825 . S
C562 O578 1.259 . S
C562 O579 1.265 . S
C563 O580 1.255 . S
C563 O581 1.265 . S
C564 C566 1.380 . S
C564 C567 1.374 . S
C564 C570 1.507 . S
C565 C566 1.384 . S
C565 C569 1.387 . S
C565 H592 0.930 . S
C566 C564 1.380 . S
C566 C565 1.384 . S
C566 H593 0.931 . S
C567 C564 1.374 . S
C567 C568 1.390 . S
C567 H594 0.930 . S
C568 C567 1.390 . S
C568 C569 1.391 . S
C568 H595 0.930 . S
C569 C565 1.387 . S
C569 C568 1.391 . S
C570 Tb560 2.825 . S
C570 C564 1.507 . S
C570 O583 1.238 . S
C570 O584 1.247 . S
O571 Tb560 2.347 1_545 S
O571 C575 1.259 . S
O572 Eu561 2.418 . S
O572 C575 1.265 . S
O573 Eu561 2.384 1_565 S
O573 C582 1.255 . S
O574 Tb560 2.366 . S
O574 C582 1.265 . S
C575 O571 1.259 . S
C575 O572 1.265 . S
O576 Eu561 2.479 . S
O576 C591 1.238 . S
O577 Eu561 2.471 . S
O577 C591 1.247 . S
O578 Eu561 2.347 1_565 S
O578 C562 1.259 . S
O579 Tb560 2.418 . S
O579 C562 1.265 . S
O580 Tb560 2.384 1_545 S
O580 C563 1.255 . S
O581 Eu561 2.366 . S
O581 C563 1.265 . S
C582 O573 1.255 . S
C582 O574 1.265 . S
O583 Tb560 2.479 . S
O583 C570 1.238 . S
O584 Tb560 2.471 . S
O584 C570 1.247 . S
C585 C588 1.380 . S
C585 C589 1.374 . S
C585 C591 1.507 . S
C586 C587 1.387 . S
C586 C590 1.391 . S
C587 C586 1.387 . S
C587 C588 1.384 . S
C587 H596 0.930 . S
C588 C585 1.380 . S
C588 C587 1.384 . S
C588 H597 0.931 . S
C589 C585 1.374 . S
C589 C590 1.390 . S
C589 H598 0.930 . S
C590 C586 1.391 . S
C590 C589 1.390 . S
C590 H599 0.930 . S
C591 Eu561 2.825 . S
C591 O576 1.238 . S
C591 O577 1.247 . S
C591 C585 1.507 . S
H592 C565 0.930 . S
H593 C566 0.931 . S
H594 C567 0.930 . S
H595 C568 0.930 . S
H596 C587 0.930 . S
H597 C588 0.931 . S
H598 C589 0.930 . S
H599 C590 0.930 . S
Tb600 C610 2.825 . S
Tb600 O611 2.347 1_554 S
Tb600 O614 2.369 . S
Tb600 O619 2.418 . S
Tb600 O620 2.384 . S
Tb600 O623 2.479 . S
Tb600 O624 2.471 . S
Eu601 O612 2.418 . S
Eu601 O613 2.384 . S
Eu601 O616 2.479 . S
Eu601 O617 2.471 . S
Eu601 O618 2.347 1_556 S
Eu601 O621 2.363 1_556 S
Eu601 C631 2.825 . S
C602 O618 1.259 . S
C602 O619 1.265 . S
C603 O620 1.255 . S
C603 O621 1.268 . S
C604 C606 1.380 . S
C604 C607 1.374 . S
C604 C610 1.507 . S
C605 C606 1.384 . S
C605 C609 1.387 . S
C605 H632 0.930 . S
C606 C604 1.380 . S
C606 C605 1.384 . S
C606 H633 0.931 . S
C607 C604 1.374 . S
C607 C608 1.390 . S
C607 H634 0.930 . S
C608 C607 1.390 . S
C608 C609 1.391 . S
C608 H635 0.930 . S
C609 C605 1.387 . S
C609 C608 1.391 . S
C610 Tb600 2.825 . S
C610 C604 1.507 . S
C610 O623 1.238 . S
C610 O624 1.247 . S
O611 Tb600 2.347 1_556 S
O611 C615 1.259 . S
O612 Eu601 2.418 . S
O612 C615 1.265 . S
O613 Eu601 2.384 . S
O613 C622 1.255 . S
O614 Tb600 2.369 . S
O614 C622 1.261 1_554 S
C615 O611 1.259 . S
C615 O612 1.265 . S
O616 Eu601 2.479 . S
O616 C631 1.238 . S
O617 Eu601 2.471 . S
O617 C631 1.247 . S
O618 Eu601 2.347 1_554 S
O618 C602 1.259 . S
O619 Tb600 2.418 . S
O619 C602 1.265 . S
O620 Tb600 2.384 . S
O620 C603 1.255 . S
O621 Eu601 2.363 1_554 S
O621 C603 1.268 . S
C622 O613 1.255 . S
C622 O614 1.261 1_556 S
O623 Tb600 2.479 . S
O623 C610 1.238 . S
O624 Tb600 2.471 . S
O624 C610 1.247 . S
C625 C628 1.380 . S
C625 C629 1.374 . S
C625 C631 1.507 . S
C626 C627 1.387 . S
C626 C630 1.391 . S
C627 C626 1.387 . S
C627 C628 1.384 . S
C627 H636 0.930 . S
C628 C625 1.380 . S
C628 C627 1.384 . S
C628 H637 0.931 . S
C629 C625 1.374 . S
C629 C630 1.390 . S
C629 H638 0.930 . S
C630 C626 1.391 . S
C630 C629 1.390 . S
C630 H639 0.930 . S
C631 Eu601 2.825 . S
C631 O616 1.238 . S
C631 O617 1.247 . S
C631 C625 1.507 . S
H632 C605 0.930 . S
H633 C606 0.931 . S
H634 C607 0.930 . S
H635 C608 0.930 . S
H636 C627 0.930 . S
H637 C628 0.931 . S
H638 C629 0.930 . S
H639 C630 0.930 . S
C640 C641 1.369 1_455 S
C640 C642 1.419 . S
C640 H644 0.930 . S
C641 C640 1.369 1_655 S
C641 C650 1.429 . S
C642 C640 1.419 . S
C642 C643 1.363 . S
C642 H645 0.929 . S
C643 C642 1.363 . S
C643 C649 1.428 1_455 S
H644 C640 0.930 . S
H645 C642 0.929 . S
S646 N647 1.613 . S
S646 N648 1.610 . S
N647 S646 1.613 . S
N647 C650 1.350 1_556 S
N648 S646 1.610 . S
N648 C649 1.351 1_556 S
C649 C643 1.428 1_655 S
C649 N648 1.351 1_554 S
C649 C650 1.434 . S
C650 C641 1.429 . S
C650 N647 1.350 1_554 S
C650 C649 1.434 . S
C651 C652 1.369 . S
C651 C653 1.419 . S
C651 H655 0.930 . S
C652 C651 1.369 . S
C652 C661 1.429 . S
C653 C651 1.419 . S
C653 C654 1.363 . S
C653 H656 0.929 . S
C654 C653 1.363 . S
C654 C660 1.428 . S
H655 C651 0.930 . S
H656 C653 0.929 . S
S657 N658 1.613 . S
S657 N659 1.610 . S
N658 S657 1.613 . S
N658 C661 1.350 . S
N659 S657 1.610 . S
N659 C660 1.351 . S
C660 C654 1.428 . S
C660 N659 1.351 . S
C660 C661 1.434 . S
C661 C652 1.429 . S
C661 N658 1.350 . S
C661 C660 1.434 . S
C662 C663 1.369 . S
C662 C664 1.419 . S
C662 H666 0.930 . S
C663 C662 1.369 . S
C663 C672 1.429 . S
C664 C662 1.419 . S
C664 C665 1.363 . S
C664 H667 0.929 . S
C665 C664 1.363 . S
C665 C671 1.428 . S
H666 C662 0.930 . S
H667 C664 0.929 . S
S668 N669 1.613 . S
S668 N670 1.610 . S
N669 S668 1.613 . S
N669 C672 1.350 . S
N670 S668 1.610 . S
N670 C671 1.351 . S
C671 C665 1.428 . S
C671 N670 1.351 . S
C671 C672 1.434 . S
C672 C663 1.429 . S
C672 N669 1.350 . S
C672 C671 1.434 . S
C673 C674 1.369 1_565 S
C673 C675 1.419 . S
C673 H677 0.930 . S
C674 C673 1.369 1_545 S
C674 C683 1.429 . S
C675 C673 1.419 . S
C675 C676 1.363 . S
C675 H678 0.929 . S
C676 C675 1.363 . S
C676 C682 1.428 1_565 S
H677 C673 0.930 . S
H678 C675 0.929 . S
S679 N680 1.613 . S
S679 N681 1.610 . S
N680 S679 1.613 . S
N680 C683 1.350 . S
N681 S679 1.610 . S
N681 C682 1.351 . S
C682 C676 1.428 1_545 S
C682 N681 1.351 . S
C682 C683 1.434 . S
C683 C674 1.429 . S
C683 N680 1.350 . S
C683 C682 1.434 . S
C684 C685 1.369 1_545 S
C684 C686 1.419 . S
C684 H688 0.930 . S
C685 C684 1.369 1_565 S
C685 C694 1.429 . S
C686 C684 1.419 . S
C686 C687 1.363 . S
C686 H689 0.929 . S
C687 C686 1.363 . S
C687 C693 1.428 1_545 S
H688 C684 0.930 . S
H689 C686 0.929 . S
S690 N691 1.613 . S
S690 N692 1.610 . S
N691 S690 1.613 . S
N691 C694 1.350 . S
N692 S690 1.610 . S
N692 C693 1.351 . S
C693 C687 1.428 1_565 S
C693 N692 1.351 . S
C693 C694 1.434 . S
C694 C685 1.429 . S
C694 N691 1.350 . S
C694 C693 1.434 . S
C695 C696 1.369 . S
C695 C697 1.419 1_455 S
C695 H699 0.930 . S
C696 C695 1.369 . S
C696 C705 1.429 . S
C697 C695 1.419 1_655 S
C697 C698 1.363 . S
C697 H700 0.929 . S
C698 C697 1.363 . S
C698 C704 1.430 . S
H699 C695 0.930 . S
H700 C697 0.929 . S
S701 N702 1.613 . S
S701 N703 1.610 1_455 S
N702 S701 1.613 . S
N702 C705 1.350 . S
N703 S701 1.610 1_655 S
N703 C704 1.353 . S
C704 C698 1.430 . S
C704 N703 1.353 . S
C704 C705 1.431 1_655 S
C705 C696 1.429 . S
C705 N702 1.350 . S
C705 C704 1.431 1_455 S
C706 C707 1.369 . S
C706 C708 1.419 . S
C706 H710 0.930 . S
C707 C706 1.369 . S
C707 C716 1.429 . S
C708 C706 1.419 . S
C708 C709 1.363 . S
C708 H711 0.929 . S
C709 C708 1.363 . S
C709 C715 1.428 . S
H710 C706 0.930 . S
H711 C708 0.929 . S
S712 N713 1.613 . S
S712 N714 1.610 . S
N713 S712 1.613 . S
N713 C716 1.350 . S
N714 S712 1.610 . S
N714 C715 1.351 . S
C715 C709 1.428 . S
C715 N714 1.351 . S
C715 C716 1.434 . S
C716 C707 1.429 . S
C716 N713 1.350 . S
C716 C715 1.434 . S
C717 C718 1.369 . S
C717 C719 1.419 . S
C717 H721 0.930 . S
C718 C717 1.369 . S
C718 C727 1.429 . S
C719 C717 1.419 . S
C719 C720 1.363 . S
C719 H722 0.929 . S
C720 C719 1.363 . S
C720 C726 1.428 . S
H721 C717 0.930 . S
H722 C719 0.929 . S
S723 N724 1.613 . S
S723 N725 1.610 . S
N724 S723 1.613 . S
N724 C727 1.350 . S
N725 S723 1.610 . S
N725 C726 1.351 . S
C726 C720 1.428 . S
C726 N725 1.351 . S
C726 C727 1.434 . S
C727 C718 1.429 . S
C727 N724 1.350 . S
C727 C726 1.434 . S
C728 C729 1.369 . S
C728 C730 1.419 . S
C728 H732 0.930 . S
C729 C728 1.369 . S
C729 C738 1.429 . S
C730 C728 1.419 . S
C730 C731 1.363 . S
C730 H733 0.929 . S
C731 C730 1.363 . S
C731 C737 1.428 . S
H732 C728 0.930 . S
H733 C730 0.929 . S
S734 N735 1.613 . S
S734 N736 1.610 . S
N735 S734 1.613 . S
N735 C738 1.350 . S
N736 S734 1.610 . S
N736 C737 1.351 . S
C737 C731 1.428 . S
C737 N736 1.351 . S
C737 C738 1.434 . S
C738 C729 1.429 . S
C738 N735 1.350 . S
C738 C737 1.434 . S
C739 C740 1.369 . S
C739 C741 1.419 . S
C739 H743 0.930 . S
C740 C739 1.369 . S
C740 C749 1.429 . S
C741 C739 1.419 . S
C741 C742 1.363 . S
C741 H744 0.929 . S
C742 C741 1.363 . S
C742 C748 1.428 . S
H743 C739 0.930 . S
H744 C741 0.929 . S
S745 N746 1.613 . S
S745 N747 1.610 . S
N746 S745 1.613 . S
N746 C749 1.350 . S
N747 S745 1.610 . S
N747 C748 1.351 . S
C748 C742 1.428 . S
C748 N747 1.351 . S
C748 C749 1.434 . S
C749 C740 1.429 . S
C749 N746 1.350 . S
C749 C748 1.434 . S
C750 C751 1.369 . S
C750 C752 1.419 1_565 S
C750 H754 0.930 . S
C751 C750 1.369 . S
C751 C760 1.429 . S
C752 C750 1.419 1_545 S
C752 C753 1.363 . S
C752 H755 0.929 . S
C753 C752 1.363 . S
C753 C759 1.428 . S
H754 C750 0.930 . S
H755 C752 0.929 . S
S756 N757 1.613 . S
S756 N758 1.610 1_565 S
N757 S756 1.613 . S
N757 C760 1.350 . S
N758 S756 1.610 1_545 S
N758 C759 1.351 . S
C759 C753 1.428 . S
C759 N758 1.351 . S
C759 C760 1.434 1_545 S
C760 C751 1.429 . S
C760 N757 1.350 . S
C760 C759 1.434 1_565 S
C761 C762 1.369 . S
C761 C763 1.419 1_455 S
C761 H765 0.930 . S
C762 C761 1.369 . S
C762 C771 1.429 . S
C763 C761 1.419 1_655 S
C763 C764 1.363 . S
C763 H766 0.929 . S
C764 C763 1.363 . S
C764 C770 1.428 1_556 S
H765 C761 0.930 . S
H766 C763 0.929 . S
S767 N768 1.613 . S
S767 N769 1.610 1_455 S
N768 S767 1.613 . S
N768 C771 1.350 1_554 S
N769 S767 1.610 1_655 S
N769 C770 1.351 . S
C770 C764 1.428 1_554 S
C770 N769 1.351 . S
C770 C771 1.434 1_654 S
C771 C762 1.429 . S
C771 N768 1.350 1_556 S
C771 C770 1.434 1_456 S
C772 C773 1.369 . S
C772 C774 1.419 . S
C772 H776 0.930 . S
C773 C772 1.369 . S
C773 C782 1.429 . S
C774 C772 1.419 . S
C774 C775 1.363 . S
C774 H777 0.929 1_556 S
C775 C774 1.363 . S
C775 C781 1.428 . S
H776 C772 0.930 . S
H777 C774 0.929 1_554 S
S778 N779 1.613 . S
S778 N780 1.610 . S
N779 S778 1.613 . S
N779 C782 1.350 . S
N780 S778 1.610 . S
N780 C781 1.351 . S
C781 C775 1.428 . S
C781 N780 1.351 . S
C781 C782 1.434 . S
C782 C773 1.429 . S
C782 N779 1.350 . S
C782 C781 1.434 . S
C783 C784 1.369 . S
C783 C785 1.419 . S
C783 H787 0.930 . S
C784 C783 1.369 . S
C784 C793 1.429 . S
C785 C783 1.419 . S
C785 C786 1.363 . S
C785 H788 0.929 . S
C786 C785 1.363 . S
C786 C792 1.428 . S
H787 C783 0.930 . S
H788 C785 0.929 . S
S789 N790 1.613 . S
S789 N791 1.610 . S
N790 S789 1.613 . S
N790 C793 1.350 . S
N791 S789 1.610 . S
N791 C792 1.351 . S
C792 C786 1.428 . S
C792 N791 1.351 . S
C792 C793 1.434 . S
C793 C784 1.429 . S
C793 N790 1.350 . S
C793 C792 1.434 . S
C794 C795 1.369 . S
C794 C796 1.419 . S
C794 H798 0.930 . S
C795 C794 1.369 . S
C795 C804 1.429 . S
C796 C794 1.419 . S
C796 C797 1.363 . S
C796 H799 0.929 . S
C797 C796 1.363 . S
C797 C803 1.428 . S
H798 C794 0.930 . S
H799 C796 0.929 . S
S800 N801 1.613 . S
S800 N802 1.610 . S
N801 S800 1.613 . S
N801 C804 1.350 . S
N802 S800 1.610 . S
N802 C803 1.351 . S
C803 C797 1.428 . S
C803 N802 1.351 . S
C803 C804 1.434 . S
C804 C795 1.429 . S
C804 N801 1.350 . S
C804 C803 1.434 . S
C805 C806 1.369 . S
C805 C807 1.419 . S
C805 H809 0.930 . S
C806 C805 1.369 . S
C806 C815 1.429 . S
C807 C805 1.419 . S
C807 C808 1.363 . S
C807 H810 0.929 . S
C808 C807 1.363 . S
C808 C814 1.428 . S
H809 C805 0.930 . S
H810 C807 0.929 . S
S811 N812 1.613 . S
S811 N813 1.610 . S
N812 S811 1.613 . S
N812 C815 1.350 . S
N813 S811 1.610 . S
N813 C814 1.351 . S
C814 C808 1.428 . S
C814 N813 1.351 . S
C814 C815 1.434 . S
C815 C806 1.429 . S
C815 N812 1.350 . S
C815 C814 1.434 . S
C816 C817 1.369 . S
C816 C818 1.419 . S
C816 H820 0.930 . S
C817 C816 1.369 . S
C817 C826 1.429 . S
C818 C816 1.419 . S
C818 C819 1.363 . S
C818 H821 0.929 . S
C819 C818 1.363 . S
C819 C825 1.428 . S
H820 C816 0.930 . S
H821 C818 0.929 . S
S822 N823 1.613 . S
S822 N824 1.610 . S
N823 S822 1.613 . S
N823 C826 1.350 . S
N824 S822 1.610 . S
N824 C825 1.351 . S
C825 C819 1.428 . S
C825 N824 1.351 . S
C825 C826 1.434 . S
C826 C817 1.429 . S
C826 N823 1.350 . S
C826 C825 1.434 . S
C827 C828 1.369 . S
C827 C829 1.419 . S
C827 H831 0.930 . S
C828 C827 1.369 . S
C828 C837 1.429 . S
C829 C827 1.419 . S
C829 C830 1.363 . S
C829 H832 0.929 . S
C830 C829 1.363 . S
C830 C836 1.428 . S
H831 C827 0.930 . S
H832 C829 0.929 . S
S833 N834 1.613 . S
S833 N835 1.610 . S
N834 S833 1.613 . S
N834 C837 1.350 . S
N835 S833 1.610 . S
N835 C836 1.351 . S
C836 C830 1.428 . S
C836 N835 1.351 . S
C836 C837 1.434 . S
C837 C828 1.429 . S
C837 N834 1.350 . S
C837 C836 1.434 . S
C838 C839 1.369 . S
C838 C840 1.419 . S
C838 H842 0.930 . S
C839 C838 1.369 . S
C839 C848 1.429 . S
C840 C838 1.419 . S
C840 C841 1.363 . S
C840 H843 0.929 . S
C841 C840 1.363 . S
C841 C847 1.428 . S
H842 C838 0.930 . S
H843 C840 0.929 . S
S844 N845 1.613 . S
S844 N846 1.610 . S
N845 S844 1.613 . S
N845 C848 1.350 . S
N846 S844 1.610 . S
N846 C847 1.351 . S
C847 C841 1.428 . S
C847 N846 1.351 . S
C847 C848 1.434 . S
C848 C839 1.429 . S
C848 N845 1.350 . S
C848 C847 1.434 . S
C849 C850 1.369 . S
C849 C851 1.419 . S
C849 H853 0.930 . S
C850 C849 1.369 . S
C850 C859 1.429 . S
C851 C849 1.419 . S
C851 C852 1.363 . S
C851 H854 0.929 . S
C852 C851 1.363 . S
C852 C858 1.428 . S
H853 C849 0.930 . S
H854 C851 0.929 . S
S855 N856 1.613 . S
S855 N857 1.610 . S
N856 S855 1.613 . S
N856 C859 1.350 . S
N857 S855 1.610 . S
N857 C858 1.351 . S
C858 C852 1.428 . S
C858 N857 1.351 . S
C858 C859 1.434 . S
C859 C850 1.429 . S
C859 N856 1.350 . S
C859 C858 1.434 . S
C860 C861 1.369 . S
C860 C862 1.419 . S
C860 H864 0.930 . S
C861 C860 1.369 . S
C861 C870 1.429 . S
C862 C860 1.419 . S
C862 C863 1.363 . S
C862 H865 0.929 . S
C863 C862 1.363 . S
C863 C869 1.428 . S
H864 C860 0.930 . S
H865 C862 0.929 . S
S866 N867 1.613 . S
S866 N868 1.610 . S
N867 S866 1.613 . S
N867 C870 1.350 . S
N868 S866 1.610 . S
N868 C869 1.351 . S
C869 C863 1.428 . S
C869 N868 1.351 . S
C869 C870 1.434 . S
C870 C861 1.429 . S
C870 N867 1.350 . S
C870 C869 1.434 . S
C871 C872 1.369 1_655 S
C871 C873 1.419 . S
C871 H875 0.930 . S
C872 C871 1.369 1_455 S
C872 C881 1.429 . S
C873 C871 1.419 . S
C873 C874 1.363 . S
C873 H876 0.929 . S
C874 C873 1.363 . S
C874 C880 1.428 1_655 S
H875 C871 0.930 . S
H876 C873 0.929 . S
S877 N878 1.613 . S
S877 N879 1.610 . S
N878 S877 1.613 . S
N878 C881 1.350 . S
N879 S877 1.610 . S
N879 C880 1.351 . S
C880 C874 1.428 1_455 S
C880 N879 1.351 . S
C880 C881 1.434 . S
C881 C872 1.429 . S
C881 N878 1.350 . S
C881 C880 1.434 . S
C882 C883 1.369 . S
C882 C884 1.419 . S
C882 H886 0.930 . S
C883 C882 1.369 . S
C883 C892 1.429 . S
C884 C882 1.419 . S
C884 C885 1.363 . S
C884 H887 0.929 . S
C885 C884 1.363 . S
C885 C891 1.428 . S
H886 C882 0.930 . S
H887 C884 0.929 . S
S888 N889 1.613 . S
S888 N890 1.610 . S
N889 S888 1.613 . S
N889 C892 1.350 . S
N890 S888 1.610 . S
N890 C891 1.351 . S
C891 C885 1.428 . S
C891 N890 1.351 . S
C891 C892 1.434 . S
C892 C883 1.429 . S
C892 N889 1.350 . S
C892 C891 1.434 . S
C893 C894 1.369 . S
C893 C895 1.419 . S
C893 H897 0.930 . S
C894 C893 1.369 . S
C894 C903 1.429 . S
C895 C893 1.419 . S
C895 C896 1.363 . S
C895 H898 0.929 . S
C896 C895 1.363 . S
C896 C902 1.428 . S
H897 C893 0.930 . S
H898 C895 0.929 . S
S899 N900 1.613 . S
S899 N901 1.610 . S
N900 S899 1.613 . S
N900 C903 1.350 . S
N901 S899 1.610 . S
N901 C902 1.351 . S
C902 C896 1.428 . S
C902 N901 1.351 . S
C902 C903 1.434 . S
C903 C894 1.429 . S
C903 N900 1.350 . S
C903 C902 1.434 . S
C904 C905 1.369 . S
C904 C906 1.419 . S
C904 H908 0.930 . S
C905 C904 1.369 . S
C905 C914 1.429 . S
C906 C904 1.419 . S
C906 C907 1.363 . S
C906 H909 0.929 . S
C907 C906 1.363 . S
C907 C913 1.428 . S
H908 C904 0.930 . S
H909 C906 0.929 . S
S910 N911 1.613 . S
S910 N912 1.610 . S
N911 S910 1.613 . S
N911 C914 1.350 . S
N912 S910 1.610 . S
N912 C913 1.351 . S
C913 C907 1.428 . S
C913 N912 1.351 . S
C913 C914 1.434 . S
C914 C905 1.429 . S
C914 N911 1.350 . S
C914 C913 1.434 . S
C915 C916 1.369 . S
C915 C917 1.419 . S
C915 H919 0.930 . S
C916 C915 1.369 . S
C916 C925 1.429 . S
C917 C915 1.419 . S
C917 C918 1.363 . S
C917 H920 0.929 . S
C918 C917 1.363 . S
C918 C924 1.428 . S
H919 C915 0.930 . S
H920 C917 0.929 . S
S921 N922 1.613 . S
S921 N923 1.610 . S
N922 S921 1.613 . S
N922 C925 1.350 . S
N923 S921 1.610 . S
N923 C924 1.351 . S
C924 C918 1.428 . S
C924 N923 1.351 . S
C924 C925 1.434 . S
C925 C916 1.429 . S
C925 N922 1.350 . S
C925 C924 1.434 . S
C926 C927 1.369 . S
C926 C928 1.419 . S
C926 H930 0.930 . S
C927 C926 1.369 . S
C927 C936 1.429 1_565 S
C928 C926 1.419 . S
C928 C929 1.363 1_565 S
C928 H931 0.929 . S
C929 C928 1.363 1_545 S
C929 C935 1.428 . S
H930 C926 0.930 . S
H931 C928 0.929 . S
S932 N933 1.613 . S
S932 N934 1.610 . S
N933 S932 1.613 . S
N933 C936 1.350 . S
N934 S932 1.610 . S
N934 C935 1.351 . S
C935 C929 1.428 . S
C935 N934 1.351 . S
C935 C936 1.434 . S
C936 C927 1.429 1_545 S
C936 N933 1.350 . S
C936 C935 1.434 . S
C937 C938 1.369 . S
C937 C939 1.419 . S
C937 H941 0.930 . S
C938 C937 1.369 . S
C938 C947 1.429 . S
C939 C937 1.419 . S
C939 C940 1.363 . S
C939 H942 0.929 . S
C940 C939 1.363 . S
C940 C946 1.428 . S
H941 C937 0.930 . S
H942 C939 0.929 . S
S943 N944 1.613 . S
S943 N945 1.610 1_556 S
N944 S943 1.613 . S
N944 C947 1.350 1_556 S
N945 S943 1.610 1_554 S
N945 C946 1.351 . S
C946 C940 1.428 . S
C946 N945 1.351 . S
C946 C947 1.434 . S
C947 C938 1.429 . S
C947 N944 1.350 1_554 S
C947 C946 1.434 . S
C948 C949 1.369 . S
C948 C950 1.419 . S
C948 H952 0.930 . S
C949 C948 1.369 . S
C949 C958 1.429 . S
C950 C948 1.419 . S
C950 C951 1.363 . S
C950 H953 0.929 . S
C951 C950 1.363 . S
C951 C957 1.428 . S
H952 C948 0.930 . S
H953 C950 0.929 . S
S954 N955 1.613 . S
S954 N956 1.610 . S
N955 S954 1.613 . S
N955 C958 1.350 . S
N956 S954 1.610 . S
N956 C957 1.351 . S
C957 C951 1.428 . S
C957 N956 1.351 . S
C957 C958 1.434 . S
C958 C949 1.429 . S
C958 N955 1.350 . S
C958 C957 1.434 . S
C959 C960 1.369 . S
C959 C961 1.419 . S
C959 H963 0.930 . S
C960 C959 1.369 . S
C960 C969 1.429 . S
C961 C959 1.419 . S
C961 C962 1.363 . S
C961 H964 0.929 . S
C962 C961 1.363 . S
C962 C968 1.428 . S
H963 C959 0.930 . S
H964 C961 0.929 . S
S965 N966 1.613 . S
S965 N967 1.610 . S
N966 S965 1.613 . S
N966 C969 1.350 . S
N967 S965 1.610 . S
N967 C968 1.351 . S
C968 C962 1.428 . S
C968 N967 1.351 . S
C968 C969 1.434 . S
C969 C960 1.429 . S
C969 N966 1.350 . S
C969 C968 1.434 . S
C970 C971 1.369 . S
C970 C972 1.419 . S
C970 H974 0.930 . S
C971 C970 1.369 . S
C971 C980 1.429 . S
C972 C970 1.419 . S
C972 C973 1.363 . S
C972 H975 0.929 . S
C973 C972 1.363 . S
C973 C979 1.428 . S
H974 C970 0.930 . S
H975 C972 0.929 . S
S976 N977 1.613 . S
S976 N978 1.610 . S
N977 S976 1.613 . S
N977 C980 1.350 . S
N978 S976 1.610 . S
N978 C979 1.351 . S
C979 C973 1.428 . S
C979 N978 1.351 . S
C979 C980 1.434 . S
C980 C971 1.429 . S
C980 N977 1.350 . S
C980 C979 1.434 . S
C981 C982 1.369 . S
C981 C983 1.419 . S
C981 H985 0.930 . S
C982 C981 1.369 . S
C982 C991 1.429 . S
C983 C981 1.419 . S
C983 C984 1.363 . S
C983 H986 0.929 . S
C984 C983 1.363 . S
C984 C990 1.428 . S
H985 C981 0.930 . S
H986 C983 0.929 . S
S987 N988 1.613 . S
S987 N989 1.610 . S
N988 S987 1.613 . S
N988 C991 1.350 . S
N989 S987 1.610 . S
N989 C990 1.351 . S
C990 C984 1.428 . S
C990 N989 1.351 . S
C990 C991 1.434 . S
C991 C982 1.429 . S
C991 N988 1.350 . S
C991 C990 1.434 . S
C992 C993 1.369 . S
C992 C994 1.419 . S
C992 H996 0.930 . S
C993 C992 1.369 . S
C993 C1002 1.429 . S
C994 C992 1.419 . S
C994 C995 1.363 . S
C994 H997 0.929 . S
C995 C994 1.363 . S
C995 C1001 1.428 . S
H996 C992 0.930 . S
H997 C994 0.929 . S
S998 N999 1.613 . S
S998 N1000 1.610 . S
N999 S998 1.613 . S
N999 C1002 1.350 . S
N1000 S998 1.610 . S
N1000 C1001 1.351 . S
C1001 C995 1.428 . S
C1001 N1000 1.351 . S
C1001 C1002 1.434 . S
C1002 C993 1.429 . S
C1002 N999 1.350 . S
C1002 C1001 1.434 . S
C1003 C1004 1.369 . S
C1003 C1005 1.419 . S
C1003 H1007 0.930 . S
C1004 C1003 1.369 . S
C1004 C1013 1.429 . S
C1005 C1003 1.419 . S
C1005 C1006 1.363 . S
C1005 H1008 0.929 . S
C1006 C1005 1.363 . S
C1006 C1012 1.428 . S
H1007 C1003 0.930 . S
H1008 C1005 0.929 . S
S1009 N1010 1.613 . S
S1009 N1011 1.610 . S
N1010 S1009 1.613 . S
N1010 C1013 1.350 . S
N1011 S1009 1.610 . S
N1011 C1012 1.351 . S
C1012 C1006 1.428 . S
C1012 N1011 1.351 . S
C1012 C1013 1.434 . S
C1013 C1004 1.429 . S
C1013 N1010 1.350 . S
C1013 C1012 1.434 . S
C1014 C1015 1.369 . S
C1014 C1016 1.419 . S
C1014 H1018 0.930 . S
C1015 C1014 1.369 . S
C1015 C1024 1.429 . S
C1016 C1014 1.419 . S
C1016 C1017 1.363 . S
C1016 H1019 0.929 . S
C1017 C1016 1.363 . S
C1017 C1023 1.428 . S
H1018 C1014 0.930 . S
H1019 C1016 0.929 . S
S1020 N1021 1.613 . S
S1020 N1022 1.610 . S
N1021 S1020 1.613 . S
N1021 C1024 1.350 . S
N1022 S1020 1.610 . S
N1022 C1023 1.351 . S
C1023 C1017 1.428 . S
C1023 N1022 1.351 . S
C1023 C1024 1.434 . S
C1024 C1015 1.429 . S
C1024 N1021 1.350 . S
C1024 C1023 1.434 . S
C1025 C1026 1.369 . S
C1025 C1027 1.419 . S
C1025 H1029 0.930 . S
C1026 C1025 1.369 . S
C1026 C1035 1.429 . S
C1027 C1025 1.419 . S
C1027 C1028 1.363 . S
C1027 H1030 0.929 . S
C1028 C1027 1.363 . S
C1028 C1034 1.428 . S
H1029 C1025 0.930 . S
H1030 C1027 0.929 . S
S1031 N1032 1.613 . S
S1031 N1033 1.610 . S
N1032 S1031 1.613 . S
N1032 C1035 1.350 . S
N1033 S1031 1.610 . S
N1033 C1034 1.351 . S
C1034 C1028 1.428 . S
C1034 N1033 1.351 . S
C1034 C1035 1.434 . S
C1035 C1026 1.429 . S
C1035 N1032 1.350 . S
C1035 C1034 1.434 . S
C1036 C1037 1.369 . S
C1036 C1038 1.419 . S
C1036 H1040 0.930 . S
C1037 C1036 1.369 . S
C1037 C1046 1.429 . S
C1038 C1036 1.419 . S
C1038 C1039 1.363 . S
C1038 H1041 0.929 . S
C1039 C1038 1.363 . S
C1039 C1045 1.428 . S
H1040 C1036 0.930 . S
H1041 C1038 0.929 . S
S1042 N1043 1.613 . S
S1042 N1044 1.610 . S
N1043 S1042 1.613 . S
N1043 C1046 1.350 1_556 S
N1044 S1042 1.610 . S
N1044 C1045 1.351 1_556 S
C1045 C1039 1.428 . S
C1045 N1044 1.351 1_554 S
C1045 C1046 1.434 . S
C1046 C1037 1.429 . S
C1046 N1043 1.350 1_554 S
C1046 C1045 1.434 . S
C1047 C1048 1.369 . S
C1047 C1049 1.419 . S
C1047 H1051 0.930 . S
C1048 C1047 1.369 . S
C1048 C1057 1.429 . S
C1049 C1047 1.419 . S
C1049 C1050 1.363 . S
C1049 H1052 0.929 . S
C1050 C1049 1.363 . S
C1050 C1056 1.428 . S
H1051 C1047 0.930 . S
H1052 C1049 0.929 . S
S1053 N1054 1.613 . S
S1053 N1055 1.610 . S
N1054 S1053 1.613 . S
N1054 C1057 1.350 . S
N1055 S1053 1.610 . S
N1055 C1056 1.351 . S
C1056 C1050 1.428 . S
C1056 N1055 1.351 . S
C1056 C1057 1.434 . S
C1057 C1048 1.429 . S
C1057 N1054 1.350 . S
C1057 C1056 1.434 . S
C1058 C1059 1.369 . S
C1058 C1060 1.419 . S
C1058 H1062 0.930 . S
C1059 C1058 1.369 . S
C1059 C1068 1.429 . S
C1060 C1058 1.419 . S
C1060 C1061 1.363 . S
C1060 H1063 0.929 . S
C1061 C1060 1.363 . S
C1061 C1067 1.428 . S
H1062 C1058 0.930 . S
H1063 C1060 0.929 . S
S1064 N1065 1.613 . S
S1064 N1066 1.610 . S
N1065 S1064 1.613 . S
N1065 C1068 1.350 . S
N1066 S1064 1.610 . S
N1066 C1067 1.351 . S
C1067 C1061 1.428 . S
C1067 N1066 1.351 . S
C1067 C1068 1.434 . S
C1068 C1059 1.429 . S
C1068 N1065 1.350 . S
C1068 C1067 1.434 . S
C1069 C1070 1.369 . S
C1069 C1071 1.419 . S
C1069 H1073 0.930 . S
C1070 C1069 1.369 . S
C1070 C1079 1.429 . S
C1071 C1069 1.419 . S
C1071 C1072 1.363 . S
C1071 H1074 0.929 . S
C1072 C1071 1.363 . S
C1072 C1078 1.428 . S
H1073 C1069 0.930 . S
H1074 C1071 0.929 . S
S1075 N1076 1.613 . S
S1075 N1077 1.610 . S
N1076 S1075 1.613 . S
N1076 C1079 1.350 . S
N1077 S1075 1.610 . S
N1077 C1078 1.351 . S
C1078 C1072 1.428 . S
C1078 N1077 1.351 . S
C1078 C1079 1.434 . S
C1079 C1070 1.429 . S
C1079 N1076 1.350 . S
C1079 C1078 1.434 . S
C1080 C1081 1.369 . S
C1080 C1082 1.419 . S
C1080 H1084 0.930 . S
C1081 C1080 1.369 . S
C1081 C1090 1.429 . S
C1082 C1080 1.419 . S
C1082 C1083 1.363 . S
C1082 H1085 0.929 . S
C1083 C1082 1.363 . S
C1083 C1089 1.428 . S
H1084 C1080 0.930 . S
H1085 C1082 0.929 . S
S1086 N1087 1.613 . S
S1086 N1088 1.610 . S
N1087 S1086 1.613 . S
N1087 C1090 1.350 . S
N1088 S1086 1.610 . S
N1088 C1089 1.351 . S
C1089 C1083 1.428 . S
C1089 N1088 1.351 . S
C1089 C1090 1.434 . S
C1090 C1081 1.429 . S
C1090 N1087 1.350 . S
C1090 C1089 1.434 . S
C1091 C1092 1.369 . S
C1091 C1093 1.419 . S
C1091 H1095 0.930 . S
C1092 C1091 1.369 . S
C1092 C1101 1.429 . S
C1093 C1091 1.419 . S
C1093 C1094 1.363 . S
C1093 H1096 0.929 . S
C1094 C1093 1.363 . S
C1094 C1100 1.428 . S
H1095 C1091 0.930 . S
H1096 C1093 0.929 . S
S1097 N1098 1.613 . S
S1097 N1099 1.610 . S
N1098 S1097 1.613 . S
N1098 C1101 1.350 . S
N1099 S1097 1.610 . S
N1099 C1100 1.351 . S
C1100 C1094 1.428 . S
C1100 N1099 1.351 . S
C1100 C1101 1.434 . S
C1101 C1092 1.429 . S
C1101 N1098 1.350 . S
C1101 C1100 1.434 . S
C1102 C1103 1.369 . S
C1102 C1104 1.419 . S
C1102 H1106 0.930 . S
C1103 C1102 1.369 . S
C1103 C1112 1.429 . S
C1104 C1102 1.419 . S
C1104 C1105 1.363 . S
C1104 H1107 0.929 . S
C1105 C1104 1.363 . S
C1105 C1111 1.428 . S
H1106 C1102 0.930 . S
H1107 C1104 0.929 . S
S1108 N1109 1.613 . S
S1108 N1110 1.610 . S
N1109 S1108 1.613 . S
N1109 C1112 1.350 . S
N1110 S1108 1.610 . S
N1110 C1111 1.351 . S
C1111 C1105 1.428 . S
C1111 N1110 1.351 . S
C1111 C1112 1.434 . S
C1112 C1103 1.429 . S
C1112 N1109 1.350 . S
C1112 C1111 1.434 . S
C1113 C1114 1.369 . S
C1113 C1115 1.419 . S
C1113 H1117 0.930 . S
C1114 C1113 1.369 . S
C1114 C1123 1.429 . S
C1115 C1113 1.419 . S
C1115 C1116 1.363 . S
C1115 H1118 0.929 . S
C1116 C1115 1.363 . S
C1116 C1122 1.428 . S
H1117 C1113 0.930 . S
H1118 C1115 0.929 . S
S1119 N1120 1.613 . S
S1119 N1121 1.610 . S
N1120 S1119 1.613 . S
N1120 C1123 1.350 . S
N1121 S1119 1.610 . S
N1121 C1122 1.351 . S
C1122 C1116 1.428 . S
C1122 N1121 1.351 . S
C1122 C1123 1.434 . S
C1123 C1114 1.429 . S
C1123 N1120 1.350 . S
C1123 C1122 1.434 . S
C1124 C1125 1.369 . S
C1124 C1126 1.419 . S
C1124 H1128 0.930 . S
C1125 C1124 1.369 . S
C1125 C1134 1.429 . S
C1126 C1124 1.419 . S
C1126 C1127 1.363 . S
C1126 H1129 0.929 . S
C1127 C1126 1.363 . S
C1127 C1133 1.428 . S
H1128 C1124 0.930 . S
H1129 C1126 0.929 . S
S1130 N1131 1.613 . S
S1130 N1132 1.610 . S
N1131 S1130 1.613 . S
N1131 C1134 1.350 . S
N1132 S1130 1.610 . S
N1132 C1133 1.351 . S
C1133 C1127 1.428 . S
C1133 N1132 1.351 . S
C1133 C1134 1.434 . S
C1134 C1125 1.429 . S
C1134 N1131 1.350 . S
C1134 C1133 1.434 . S
C1135 C1136 1.369 . S
C1135 C1137 1.419 . S
C1135 H1139 0.930 . S
C1136 C1135 1.369 . S
C1136 C1145 1.429 . S
C1137 C1135 1.419 . S
C1137 C1138 1.363 . S
C1137 H1140 0.929 . S
C1138 C1137 1.363 . S
C1138 C1144 1.428 . S
H1139 C1135 0.930 . S
H1140 C1137 0.929 . S
S1141 N1142 1.613 1_554 S
S1141 N1143 1.610 1_554 S
N1142 S1141 1.613 1_556 S
N1142 C1145 1.350 . S
N1143 S1141 1.610 1_556 S
N1143 C1144 1.351 . S
C1144 C1138 1.428 . S
C1144 N1143 1.351 . S
C1144 C1145 1.434 . S
C1145 C1136 1.429 . S
C1145 N1142 1.350 . S
C1145 C1144 1.434 . S
C1146 C1147 1.369 . S
C1146 C1148 1.419 . S
C1146 H1150 0.930 . S
C1147 C1146 1.369 . S
C1147 C1156 1.429 . S
C1148 C1146 1.419 . S
C1148 C1149 1.363 . S
C1148 H1151 0.929 . S
C1149 C1148 1.363 . S
C1149 C1155 1.428 . S
H1150 C1146 0.930 . S
H1151 C1148 0.929 . S
S1152 N1153 1.613 . S
S1152 N1154 1.610 . S
N1153 S1152 1.613 . S
N1153 C1156 1.350 . S
N1154 S1152 1.610 . S
N1154 C1155 1.351 . S
C1155 C1149 1.428 . S
C1155 N1154 1.351 . S
C1155 C1156 1.434 . S
C1156 C1147 1.429 . S
C1156 N1153 1.350 . S
C1156 C1155 1.434 . S
C1157 C1158 1.369 . S
C1157 C1159 1.419 . S
C1157 H1161 0.930 . S
C1158 C1157 1.369 . S
C1158 C1167 1.429 . S
C1159 C1157 1.419 . S
C1159 C1160 1.363 . S
C1159 H1162 0.929 . S
C1160 C1159 1.363 . S
C1160 C1166 1.428 . S
H1161 C1157 0.930 . S
H1162 C1159 0.929 . S
S1163 N1164 1.613 . S
S1163 N1165 1.610 . S
N1164 S1163 1.613 . S
N1164 C1167 1.350 . S
N1165 S1163 1.610 . S
N1165 C1166 1.351 . S
C1166 C1160 1.428 . S
C1166 N1165 1.351 . S
C1166 C1167 1.434 . S
C1167 C1158 1.429 . S
C1167 N1164 1.350 . S
C1167 C1166 1.434 . S
C641 C3 1.919 . S
C643 C66 1.779 . S
C652 C95 1.858 . S
C654 C62 1.805 . S
C663 C142 2.527 . S
C665 C83 2.606 . S
C674 C15 1.657 . S
C676 C146 1.485 . S
C685 C2 1.659 . S
C687 C369 1.479 . S
C696 C302 1.922 . S
C698 C49 1.772 . S
C707 C82 1.857 . S
C709 C403 1.812 . S
C718 C123 2.533 . S
C720 C542 2.607 . S
C729 C322 1.853 . S
C731 C43 1.809 . S
C740 C483 2.531 . S
C742 C102 2.605 . S
C751 C562 1.653 . S
C753 C129 1.481 . S
C762 C22 1.920 . S
C764 C449 1.779 . S
C773 C26 0.732 . S
C775 C346 0.713 . S
C784 C495 1.954 . S
C786 C162 2.013 . S
C795 C209 0.726 . S
C797 C569 0.717 . S
C806 C442 2.013 . S
C808 C255 1.952 . S
C817 C89 0.709 . S
C819 C289 0.730 . S
C828 C362 1.952 . S
C830 C175 2.013 . S
C839 C242 1.952 . S
C841 C415 2.013 . S
C850 C202 1.856 . S
C852 C443 1.812 . S
C861 C363 2.532 . S
C863 C222 2.606 . S
C872 C466 1.778 . S
C874 C283 1.917 . S
C883 C215 1.856 . S
C885 C182 1.812 . S
C894 C382 2.531 . S
C896 C323 2.606 . S
C905 C535 1.854 . S
C907 C462 1.807 . S
C916 C262 2.529 . S
C918 C203 2.607 . S
C927 C386 1.477 . S
C929 C575 1.658 . S
C938 C529 0.714 . S
C940 C9 0.727 . S
C949 C106 0.706 . S
C951 C586 0.735 . S
C960 C482 1.954 . S
C962 C55 2.014 . S
C971 C306 0.728 . S
C973 C226 0.717 . S
C982 C135 1.947 . S
C984 C402 2.011 . S
C993 C502 2.532 . S
C995 C523 2.607 . S
C1004 C295 1.649 . S
C1006 C506 1.492 . S
C1015 C249 1.490 . S
C1017 C282 1.654 . S
C1026 C163 1.807 . S
C1028 C522 1.854 . S
C1037 C489 1.490 . S
C1039 C602 1.654 . S
C1048 C609 0.735 . S
C1050 C329 0.711 . S
C1059 C42 2.013 . S
C1061 C375 1.953 . S
C1070 C342 2.608 . S
C1072 C243 2.529 . S
C1081 C335 1.854 . S
C1083 C422 1.809 . S
C1092 C615 1.660 . S
C1094 C266 1.481 . S
C1103 C546 0.704 . S
C1105 C626 0.735 . S
C1114 C455 2.011 . S
C1116 C122 1.950 . S
C1125 C426 1.771 . S
C1127 C563 1.924 . S
C1136 C409 1.779 . S
C1138 C622 1.917 . S
C1147 C169 1.770 . S
C1149 C582 1.924 . S
C1158 C603 1.922 . S
C1160 C186 1.776 . S
