# Generated by pormake.
# Topology uon, (4)-cn, num edge types: 1
# Building blocks:
#     Node 0, Type 0, BuildingBlock: ESEHIV_clean_sbu_0, # of connection points: 4
#     Node 1, Type 0, BuildingBlock: ESEHIV_clean_sbu_0, # of connection points: 4
#     Node 2, Type 0, BuildingBlock: ESEHIV_clean_sbu_0, # of connection points: 4
#     Node 3, Type 0, BuildingBlock: ESEHIV_clean_sbu_0, # of connection points: 4
#     Node 4, Type 0, BuildingBlock: ESEHIV_clean_sbu_0, # of connection points: 4
#     Node 5, Type 0, BuildingBlock: ESEHIV_clean_sbu_0, # of connection points: 4
#     Edge 6, Type (0, 0), BuildingBlock: KIFKEQ_clean_linker_1, # of connection points: 2
#     Edge 7, Type (0, 0), BuildingBlock: KIFKEQ_clean_linker_1, # of connection points: 2
#     Edge 8, Type (0, 0), BuildingBlock: KIFKEQ_clean_linker_1, # of connection points: 2
#     Edge 9, Type (0, 0), BuildingBlock: KIFKEQ_clean_linker_1, # of connection points: 2
#     Edge 10, Type (0, 0), BuildingBlock: KIFKEQ_clean_linker_1, # of connection points: 2
#     Edge 11, Type (0, 0), BuildingBlock: KIFKEQ_clean_linker_1, # of connection points: 2
#     Edge 12, Type (0, 0), BuildingBlock: KIFKEQ_clean_linker_1, # of connection points: 2
#     Edge 13, Type (0, 0), BuildingBlock: KIFKEQ_clean_linker_1, # of connection points: 2
#     Edge 14, Type (0, 0), BuildingBlock: KIFKEQ_clean_linker_1, # of connection points: 2
#     Edge 15, Type (0, 0), BuildingBlock: KIFKEQ_clean_linker_1, # of connection points: 2
#     Edge 16, Type (0, 0), BuildingBlock: KIFKEQ_clean_linker_1, # of connection points: 2
#     Edge 17, Type (0, 0), BuildingBlock: KIFKEQ_clean_linker_1, # of connection points: 2
# Relax obj value: 0.074
# Max RMSD: 0.073
# Mean RMSD: 0.073
data_MOF--net-uon--node1-ESEHIV_clean_sbu_0--edge1-KIFKEQ_clean_linker_1
_symmetry_space_group_name_H-M    P1
_symmetry_Int_Tables_number       1
_symmetry_cell_setting            triclinic
loop_
_symmetry_equiv_pos_as_xyz
'x, y, z'
_cell_length_a     35.005208
_cell_length_b     34.78397
_cell_length_c     27.577438
_cell_angle_alpha  90.617426
_cell_angle_beta   89.496406
_cell_angle_gamma 119.77984
loop_
_atom_site_label
_atom_site_type_symbol
_atom_site_fract_x
_atom_site_fract_y
_atom_site_fract_z
_atom_type_partial_charge
Cu0 Cu 0.2373 0.44464 1.00388 0.0
N1 N 0.25272 0.47833 0.9471 0.0
N2 N 0.29495 0.52267 0.88718 0.0
C3 C 0.29394 0.50277 0.92951 0.0
C4 C 0.25241 0.51009 0.87809 0.0
C5 C 0.22654 0.48281 0.91501 0.0
O6 O 0.27415 0.41696 1.00299 0.0
C7 C 0.2448 0.47501 0.10314 0.0
O8 O 0.23757 0.43549 0.11514 0.0
H9 H 0.32259 0.50612 0.94796 0.0
H10 H 0.19112 0.46718 0.91807 0.0
N11 N 0.17733 0.40135 1.00282 0.0
N12 N 0.10796 0.35577 1.0272 0.0
C13 C 0.14866 0.38799 0.04032 0.0
C14 C 0.15396 0.37674 0.96464 0.0
C15 C 0.11119 0.34873 0.97948 0.0
C16 C 0.26219 0.37726 1.01498 0.0
O17 O 0.22363 0.35302 0.03568 0.0
H18 H 0.15738 0.40182 0.07648 0.0
H19 H 0.16723 0.37878 0.9286 0.0
O20 O 0.24772 0.48506 0.05844 0.0
H21 H 0.24052 0.5194 0.84678 0.0
H22 H 0.08484 0.32437 0.95713 0.0
Cu23 Cu 0.81593 0.23877 0.334 0.0
N24 N 0.84789 0.30034 0.32745 0.0
N25 N 0.86703 0.36245 0.28596 0.0
C26 C 0.83459 0.32125 0.29691 0.0
C27 C 0.90244 0.36775 0.31086 0.0
C28 C 0.89057 0.32924 0.33626 0.0
O29 O 0.82919 0.21974 0.27205 0.0
C30 C 0.74824 0.24517 0.37964 0.0
O31 O 0.7818 0.28355 0.39225 0.0
H32 H 0.80275 0.30474 0.27944 0.0
H33 H 0.91237 0.32161 0.3563 0.0
N34 N 0.83199 0.21492 0.38513 0.0
N35 N 0.82435 0.16046 0.43415 0.0
C36 C 0.81355 0.1709 0.39128 0.0
C37 C 0.85549 0.23351 0.42549 0.0
C38 C 0.85106 0.19999 0.4557 0.0
C39 C 0.86464 0.21771 0.27009 0.0
O40 O 0.88447 0.21907 0.31076 0.0
H41 H 0.79152 0.14715 0.36495 0.0
H42 H 0.87278 0.26865 0.43341 0.0
O43 O 0.75452 0.22041 0.34989 0.0
H44 H 0.9351 0.39638 0.30893 0.0
H45 H 0.86478 0.20456 0.49169 0.0
Cu46 Cu 0.62816 0.83258 0.67597 0.0
N47 N 0.60212 0.8681 0.67556 0.0
N48 N 0.55955 0.88944 0.63712 0.0
C49 C 0.56493 0.85511 0.65026 0.0
C50 C 0.59481 0.9257 0.65567 0.0
C51 C 0.6212 0.91248 0.67892 0.0
O52 O 0.65651 0.846 0.61231 0.0
C53 C 0.56604 0.76495 0.731 0.0
O54 O 0.58499 0.79725 0.76292 0.0
H55 H 0.54537 0.82168 0.63641 0.0
H56 H 0.65412 0.93411 0.69219 0.0
N57 N 0.67024 0.84611 0.72473 0.0
N58 N 0.71725 0.83772 0.77219 0.0
C59 C 0.68705 0.81997 0.73645 0.0
C60 C 0.69018 0.88162 0.75428 0.0
C61 C 0.71916 0.87654 0.78358 0.0
C62 C 0.69813 0.87018 0.60768 0.0
O63 O 0.72362 0.87256 0.64356 0.0
H64 H 0.67693 0.78834 0.71906 0.0
H65 H 0.68429 0.9093 0.75449 0.0
O66 O 0.58003 0.77213 0.68726 0.0
H67 H 0.60283 0.9596 0.6498 0.0
H68 H 0.74044 0.90004 0.81061 0.0
Cu69 Cu 0.82727 0.61828 1.00934 0.0
N70 N 0.76584 0.58795 1.00503 0.0
N71 N 0.70122 0.54663 0.96753 0.0
C72 C 0.74541 0.57036 0.96273 0.0
C73 C 0.69354 0.54981 1.01517 0.0
C74 C 0.73353 0.57551 0.03823 0.0
O75 O 0.84462 0.65363 0.95025 0.0
C76 C 0.82258 0.53475 1.02416 0.0
O77 O 0.78073 0.51742 1.01354 0.0
H78 H 0.76319 0.57296 0.92951 0.0
H79 H 0.7387 0.58329 0.07653 0.0
N80 N 0.8503 0.65491 0.06393 0.0
N81 N 0.90108 0.69206 0.12085 0.0
C82 C 0.88832 0.66248 0.08404 0.0
C83 C 0.83816 0.6806 0.08891 0.0
C84 C 0.86965 0.70377 0.12409 0.0
C85 C 0.86274 0.69575 0.95092 0.0
O86 O 0.88322 0.71752 0.99029 0.0
H87 H 0.90702 0.64742 0.07072 0.0
H88 H 0.80913 0.68301 0.08147 0.0
O89 O 0.8484 0.57599 1.01715 0.0
H90 H 0.6615 0.53399 0.03244 0.0
H91 H 0.8693 0.72713 0.15008 0.0
Cu92 Cu 0.23734 0.7998 0.38371 0.0
N93 N 0.22443 0.7404 0.38232 0.0
N94 N 0.22212 0.67943 0.35108 0.0
C95 C 0.2345 0.72249 0.34418 0.0
C96 C 0.20331 0.6699 0.3956 0.0
C97 C 0.20487 0.70758 0.41483 0.0
O98 O 0.20081 0.80368 0.33257 0.0
C99 C 0.31859 0.82492 0.41466 0.0
O100 O 0.29257 0.79367 0.44477 0.0
H101 H 0.25011 0.74084 0.3116 0.0
H102 H 0.19276 0.7108 0.44997 0.0
N103 N 0.22466 0.82015 0.44167 0.0
N104 N 0.23268 0.87098 0.49746 0.0
C105 C 0.24804 0.86289 0.45582 0.0
C106 C 0.19317 0.80019 0.47569 0.0
C107 C 0.19796 0.83157 0.5101 0.0
C108 C 0.16009 0.77598 0.33967 0.0
O109 O 0.14912 0.75204 0.37921 0.0
H110 H 0.27545 0.88783 0.43519 0.0
H111 H 0.16834 0.76552 0.47545 0.0
O112 O 0.3015 0.83507 0.37983 0.0
H113 H 0.18986 0.63819 0.41338 0.0
H114 H 0.17773 0.82572 0.54211 0.0
Cu115 Cu 0.4574 0.2187 0.72365 0.0
N116 N 0.49524 0.19702 0.70655 0.0
N117 N 0.53869 0.18543 0.65533 0.0
C118 C 0.52396 0.21314 0.66923 0.0
C119 C 0.51832 0.15028 0.68511 0.0
C120 C 0.49142 0.15746 0.71657 0.0
O121 O 0.40859 0.18727 0.67795 0.0
C122 C 0.52792 0.30194 0.7411 0.0
O123 O 0.5442 0.27703 0.75496 0.0
H124 H 0.53113 0.24301 0.65008 0.0
H125 H 0.46836 0.13407 0.74234 0.0
N126 N 0.43701 0.20915 0.78802 0.0
N127 N 0.40946 0.22348 0.85499 0.0
C128 C 0.42727 0.23767 0.81079 0.0
C129 C 0.42522 0.17552 0.81926 0.0
C130 C 0.40768 0.18411 0.86057 0.0
C131 C 0.37197 0.15439 0.69127 0.0
O132 O 0.36249 0.14865 0.73769 0.0
H133 H 0.43113 0.26741 0.79412 0.0
H134 H 0.42748 0.14612 0.81183 0.0
O135 O 0.49013 0.28351 0.72099 0.0
H136 H 0.52124 0.12075 0.68301 0.0
H137 H 0.39414 0.16289 0.89182 0.0
H138 H 0.25579 0.29939 0.04561 0.0
H139 H 0.32805 0.40799 0.94731 0.0
H140 H 0.29508 0.26284 1.01409 0.0
H141 H 0.36538 0.37076 0.91387 0.0
H142 H 0.33251 0.1852 0.90488 0.0
H143 H 0.29955 0.22313 0.94846 0.0
H144 H 0.41683 0.34886 0.92119 0.0
H145 H 0.448 0.31065 0.87542 0.0
C146 C 0.28017 0.31553 1.01735 0.0
C147 C 0.28878 0.3567 0.99914 0.0
C148 C 0.3025 0.29435 0.99883 0.0
C149 C 0.33355 0.31341 0.96098 0.0
C150 C 0.34259 0.35509 0.94357 0.0
C151 C 0.32087 0.37654 0.96265 0.0
C152 C 0.35126 0.22087 0.90892 0.0
C153 C 0.39261 0.24503 0.88653 0.0
C154 C 0.3325 0.24281 0.93405 0.0
C155 C 0.35505 0.28946 0.93815 0.0
C156 C 0.39759 0.31318 0.9178 0.0
C157 C 0.41581 0.29131 0.89188 0.0
H158 H 0.92639 0.19448 0.2503 0.0
H159 H 0.86276 0.26151 0.18832 0.0
H160 H 0.98253 0.22437 0.18716 0.0
H161 H 0.91952 0.29192 0.12488 0.0
H162 H 1.02185 0.31801 1.00135 0.0
H163 H 0.9573 0.27763 0.05388 0.0
H164 H 0.04298 0.30097 0.17569 0.0
H165 H 0.10702 0.34042 0.12338 0.0
C166 C 0.92376 0.21473 0.2224 0.0
C167 C 0.8902 0.22574 0.22447 0.0
C168 C 0.95623 0.23225 0.18647 0.0
C169 C 0.95613 0.26138 0.15164 0.0
C170 C 0.92057 0.2696 0.15123 0.0
C171 C 0.88786 0.25194 0.18738 0.0
C172 C 1.02683 0.31422 0.03929 0.0
C173 C 0.0697 0.33249 0.05811 0.0
C174 C 0.98984 0.29136 0.06942 0.0
C175 C 0.99492 0.28569 0.11889 0.0
C176 C 0.0378 0.30407 0.1376 0.0
C177 C 0.07463 0.32722 0.1077 0.0
H178 H 0.75253 0.08347 0.40428 0.0
H179 H 0.85741 0.13636 0.50978 0.0
H180 H 0.72399 1.01028 0.43804 0.0
H181 H 0.8272 0.06323 0.54531 0.0
H182 H 0.78423 0.92226 0.58137 0.0
H183 H 0.81602 0.99041 0.53458 0.0
H184 H 0.6855 0.96907 0.5071 0.0
H185 H 0.65382 0.90037 0.5525 0.0
C186 C 0.76985 0.07978 0.43449 0.0
C187 C 0.80762 0.11647 0.45404 0.0
C188 C 0.75297 0.03751 0.45433 0.0
C189 C 0.77306 0.03052 0.49458 0.0
C190 C 0.81107 0.06702 0.51388 0.0
C191 C 0.82814 0.10931 0.49385 0.0
C192 C 0.76228 0.93159 0.56432 0.0
C193 C 0.71647 0.90576 0.57075 0.0
C194 C 0.78055 0.97102 0.53797 0.0
C195 C 0.7535 0.98589 0.51763 0.0
C196 C 0.70751 0.9587 0.52179 0.0
C197 C 0.68922 0.91907 0.54783 0.0
H198 H 0.80068 0.65814 0.87909 0.0
H199 H 0.89434 0.78466 0.94131 0.0
H200 H 0.76868 0.69408 0.8322 0.0
H201 H 0.86289 0.82067 0.89373 0.0
H202 H 0.75475 0.85527 0.86146 0.0
H203 H 0.79508 0.82286 0.89805 0.0
H204 H 0.77687 0.74505 0.76832 0.0
H205 H 0.73648 0.77756 0.7316 0.0
C206 C 0.8153 0.69379 0.88179 0.0
C207 C 0.84993 0.71841 0.91438 0.0
C208 C 0.79686 0.71445 0.85487 0.0
C209 C 0.81265 0.76025 0.85976 0.0
C210 C 0.84917 0.78521 0.88991 0.0
C211 C 0.86753 0.76458 0.91686 0.0
C212 C 0.75974 0.83171 0.84039 0.0
C213 C 0.74208 0.81908 0.79352 0.0
C214 C 0.78304 0.81311 0.86139 0.0
C215 C 0.78947 0.78137 0.83613 0.0
C216 C 0.77216 0.76898 0.78909 0.0
C217 C 0.74885 0.78762 0.76805 0.0
H218 H 0.94956 0.7724 0.16517 0.0
H219 H 0.94159 0.6456 0.1426 0.0
H220 H 1.01586 0.79661 0.21477 0.0
H221 H 1.00745 0.66982 0.19098 0.0
H222 H 0.07978 0.703 0.33515 0.0
H223 H 1.01976 0.68629 0.28053 0.0
H224 H 0.09854 0.81133 0.20869 0.0
H225 H 0.16004 0.82849 0.26428 0.0
C226 C 0.96192 0.74979 0.17071 0.0
C227 C 0.94016 0.70702 0.15 0.0
C228 C 1.00013 0.76383 0.19854 0.0
C229 C 1.01686 0.73512 0.2067 0.0
C230 C 0.99531 0.69267 0.1855 0.0
C231 C 0.95762 0.67886 0.15753 0.0
C232 C 0.08471 0.72721 0.30784 0.0
C233 C 0.1249 0.76718 0.30417 0.0
C234 C 0.05017 0.7174 0.2763 0.0
C235 C 0.05441 0.74734 0.24017 0.0
C236 C 0.09436 0.78769 0.23638 0.0
C237 C 0.12958 0.79737 0.26788 0.0
H238 H 0.38898 0.14555 0.59523 0.0
H239 H 0.29566 0.07783 0.71046 0.0
H240 H 0.35235 0.07881 0.54491 0.0
H241 H 0.26036 1.011 0.66134 0.0
H242 H 0.18761 0.90018 0.55293 0.0
H243 H 0.2171 0.97161 0.59445 0.0
H244 H 0.34721 1.00843 0.54099 0.0
H245 H 0.31737 0.93766 0.49875 0.0
C246 C 0.36028 0.11672 0.60961 0.0
C247 C 0.34551 0.11717 0.65709 0.0
C248 C 0.33955 0.07814 0.58096 0.0
C249 C 0.30364 0.03896 0.59912 0.0
C250 C 0.28756 0.04034 0.64567 0.0
C251 C 0.30806 0.07887 0.6741 0.0
C252 C 0.2225 0.92354 0.5502 0.0
C253 C 0.25007 0.91311 0.52249 0.0
C254 C 0.23952 0.96461 0.574 0.0
C255 C 0.2847 0.99622 0.57119 0.0
C256 C 0.31215 0.98564 0.54329 0.0
C257 C 0.29506 0.9448 0.51917 0.0
H258 H 0.28287 0.70263 0.27883 0.0
H259 H 0.17411 0.58936 0.34662 0.0
H260 H 0.29061 0.65396 0.22052 0.0
H261 H 0.18187 0.54054 0.28813 0.0
H262 H 0.23254 0.46188 0.20135 0.0
H263 H 0.22901 0.51128 0.26254 0.0
H264 H 0.25307 0.60759 0.15167 0.0
H265 H 0.25739 0.55864 0.09075 0.0
C266 C 0.26033 0.66738 0.2812 0.0
C267 C 0.2276 0.65015 0.31747 0.0
C268 C 0.26482 0.63936 0.24763 0.0
C269 C 0.23676 0.5932 0.24927 0.0
C270 C 0.20447 0.57584 0.28602 0.0
C271 C 0.19997 0.60391 0.31965 0.0
C272 C 0.23745 0.49375 0.19005 0.0
C273 C 0.24531 0.50619 0.14099 0.0
C274 C 0.23506 0.52198 0.22516 0.0
C275 C 0.24059 0.56349 0.21221 0.0
C276 C 0.24917 0.57618 0.16323 0.0
C277 C 0.25146 0.54794 0.12815 0.0
H278 H 0.60573 0.26176 0.62127 0.0
H279 H 0.53373 0.12092 0.59465 0.0
H280 H 0.65074 0.27186 0.54976 0.0
H281 H 0.57767 0.13083 0.52154 0.0
H282 H 0.70057 0.16505 0.42426 0.0
H283 H 0.64709 0.14786 0.48986 0.0
H284 H 0.65087 0.27237 0.46584 0.0
H285 H 0.70596 0.29015 0.4026 0.0
C286 C 0.59929 0.23296 0.59973 0.0
C287 C 0.56616 0.19062 0.61365 0.0
C288 C 0.62485 0.23868 0.5583 0.0
C289 C 0.61762 0.20227 0.52889 0.0
C290 C 0.58463 0.15971 0.5432 0.0
C291 C 0.55938 0.15395 0.58519 0.0
C292 C 0.68881 0.18798 0.43217 0.0
C293 C 0.7072 0.22884 0.40825 0.0
C294 C 0.65828 0.17832 0.47003 0.0
C295 C 0.64519 0.20916 0.48433 0.0
C296 C 0.66112 0.24838 0.45733 0.0
C297 C 0.69215 0.25833 0.42035 0.0
H298 H 0.49244 0.70604 0.67944 0.0
H299 H 0.55378 0.72878 0.81984 0.0
H300 H 0.42576 0.64211 0.7123 0.0
H301 H 0.48811 0.66553 0.85229 0.0
H302 H 0.37648 0.53079 0.89037 0.0
H303 H 0.44228 0.58366 0.84692 0.0
H304 H 0.36749 0.63365 0.77399 0.0
H305 H 0.3016 0.58136 0.81805 0.0
C306 C 0.49203 0.6968 0.7169 0.0
C307 C 0.52826 0.72238 0.74709 0.0
C308 C 0.4538 0.66053 0.73584 0.0
C309 C 0.45159 0.64877 0.78497 0.0
C310 C 0.48875 0.67329 0.81425 0.0
C311 C 0.52638 0.70972 0.79566 0.0
C312 C 0.3738 0.55303 0.86533 0.0
C313 C 0.33342 0.55192 0.8586 0.0
C314 C 0.41164 0.58324 0.84012 0.0
C315 C 0.41023 0.61304 0.80711 0.0
C316 C 0.36963 0.61083 0.79875 0.0
C317 C 0.33177 0.58079 0.82425 0.0
H318 H 0.8979 0.56551 0.07877 0.0
H319 H 0.77778 0.44597 0.04115 0.0
H320 H 0.91199 0.52534 0.14201 0.0
H321 H 0.79212 0.40599 0.10364 0.0
H322 H 0.79519 0.36662 0.25899 0.0
H323 H 0.78902 0.40815 0.19212 0.0
H324 H 0.92782 0.46469 0.16195 0.0
H325 H 0.93397 0.42261 0.22917 0.0
C326 C 0.87508 0.53045 0.08307 0.0
C327 C 0.83646 0.50908 0.05505 0.0
C328 C 0.88313 0.50745 0.11947 0.0
C329 C 0.85271 0.46265 0.12862 0.0
C330 C 0.81567 0.44074 0.09844 0.0
C331 C 0.80765 0.46362 0.06222 0.0
C332 C 0.82442 0.38775 0.23808 0.0
C333 C 0.86494 0.39078 0.24927 0.0
C334 C 0.82087 0.41151 0.19955 0.0
C335 C 0.85776 0.43917 0.17099 0.0
C336 C 0.89876 0.44368 0.1832 0.0
C337 C 0.9023 0.41968 0.22188 0.0
H338 H 0.37346 0.7922 0.40676 0.0
H339 H 0.36698 0.90726 0.45412 0.0
H340 H 0.43787 0.8144 0.45767 0.0
H341 H 0.43171 0.9297 0.5056 0.0
H342 H 0.56656 0.95555 0.57799 0.0
H343 H 0.51563 0.94859 0.51358 0.0
H344 H 0.43076 0.81155 0.55103 0.0
H345 H 0.4802 0.81858 0.61601 0.0
C346 C 0.38737 0.82357 0.42606 0.0
C347 C 0.36583 0.84844 0.42589 0.0
C348 C 0.42378 0.83591 0.45583 0.0
C349 C 0.43922 0.87328 0.48633 0.0
C350 C 0.42056 0.9008 0.4824 0.0
C351 C 0.38388 0.88829 0.4525 0.0
C352 C 0.53674 0.92412 0.57308 0.0
C353 C 0.52797 0.88739 0.60206 0.0
C354 C 0.50776 0.92014 0.53589 0.0
C355 C 0.46983 0.87926 0.52652 0.0
C356 C 0.46039 0.84317 0.55647 0.0
C357 C 0.48881 0.84725 0.59384 0.0
H358 H 0.61486 0.36132 0.74072 0.0
H359 H 0.48956 0.3444 0.78737 0.0
H360 H 0.65275 0.42755 0.79135 0.0
H361 H 0.52755 0.41035 0.83949 0.0
H362 H 0.62018 0.47367 0.97963 0.0
H363 H 0.57397 0.42204 0.91651 0.0
H364 H 0.66627 0.50523 0.80732 0.0
H365 H 0.71186 0.55743 0.86996 0.0
C366 C 0.59547 0.37273 0.76059 0.0
C367 C 0.54933 0.34795 0.75978 0.0
C368 C 0.61714 0.41058 0.78977 0.0
C369 C 0.59315 0.42402 0.81976 0.0
C370 C 0.54689 0.40066 0.81695 0.0
C371 C 0.52516 0.36322 0.78671 0.0
C372 C 0.63015 0.48164 0.94217 0.0
C373 C 0.67043 0.5194 0.93023 0.0
C374 C 0.60356 0.452 0.9059 0.0
C375 C 0.61674 0.45931 0.85695 0.0
C376 C 0.65555 0.49835 0.84477 0.0
C377 C 0.68185 0.52812 0.88084 0.0
loop_
_geom_bond_atom_site_label_1
_geom_bond_atom_site_label_2
_geom_bond_distance
_geom_bond_site_symmetry_2
_ccdc_geom_bond_type
Cu0 N1 1.999 . S
Cu0 O6 1.974 . S
Cu0 N11 1.985 1_556 S
Cu0 O20 1.959 1_556 S
N1 Cu0 1.999 . S
N1 C3 1.263 . S
N1 C5 1.389 . S
N2 C3 1.358 . S
N2 C4 1.400 . S
C3 N1 1.263 . S
C3 N2 1.358 . S
C3 H9 0.930 . S
C4 N2 1.400 . S
C4 C5 1.351 . S
C4 H21 0.930 . S
C5 N1 1.389 . S
C5 C4 1.351 . S
C5 H10 0.930 . S
O6 Cu0 1.974 . S
O6 C16 1.282 . S
C7 O8 1.261 . S
C7 O20 1.251 . S
O8 C7 1.261 . S
H9 C3 0.930 . S
H10 C5 0.930 . S
N11 Cu0 1.985 1_554 S
N11 C13 1.335 . S
N11 C14 1.390 . S
N12 C13 1.345 . S
N12 C15 1.336 . S
C13 N11 1.335 . S
C13 N12 1.345 . S
C13 H18 0.930 . S
C14 N11 1.390 . S
C14 C15 1.346 . S
C14 H19 0.930 . S
C15 N12 1.336 . S
C15 C14 1.346 . S
C15 H22 0.929 . S
C16 O6 1.282 . S
C16 O17 1.216 . S
O17 C16 1.216 . S
H18 C13 0.930 . S
H19 C14 0.930 . S
O20 Cu0 1.959 1_554 S
O20 C7 1.251 . S
H21 C4 0.930 . S
H22 C15 0.929 . S
Cu23 N24 1.999 . S
Cu23 O29 1.974 . S
Cu23 N34 1.985 . S
Cu23 O43 1.959 . S
N24 Cu23 1.999 . S
N24 C26 1.263 . S
N24 C28 1.389 . S
N25 C26 1.358 . S
N25 C27 1.400 . S
C26 N24 1.263 . S
C26 N25 1.358 . S
C26 H32 0.930 . S
C27 N25 1.400 . S
C27 C28 1.351 . S
C27 H44 0.930 . S
C28 N24 1.389 . S
C28 C27 1.351 . S
C28 H33 0.930 . S
O29 Cu23 1.974 . S
O29 C39 1.282 . S
C30 O31 1.261 . S
C30 O43 1.251 . S
O31 C30 1.261 . S
H32 C26 0.930 . S
H33 C28 0.930 . S
N34 Cu23 1.985 . S
N34 C36 1.335 . S
N34 C37 1.390 . S
N35 C36 1.345 . S
N35 C38 1.336 . S
C36 N34 1.335 . S
C36 N35 1.345 . S
C36 H41 0.930 . S
C37 N34 1.390 . S
C37 C38 1.346 . S
C37 H42 0.930 . S
C38 N35 1.336 . S
C38 C37 1.346 . S
C38 H45 0.929 . S
C39 O29 1.282 . S
C39 O40 1.216 . S
O40 C39 1.216 . S
H41 C36 0.930 . S
H42 C37 0.930 . S
O43 Cu23 1.959 . S
O43 C30 1.251 . S
H44 C27 0.930 . S
H45 C38 0.929 . S
Cu46 N47 1.999 . S
Cu46 O52 1.974 . S
Cu46 N57 1.985 . S
Cu46 O66 1.959 . S
N47 Cu46 1.999 . S
N47 C49 1.263 . S
N47 C51 1.389 . S
N48 C49 1.358 . S
N48 C50 1.400 . S
C49 N47 1.263 . S
C49 N48 1.358 . S
C49 H55 0.930 . S
C50 N48 1.400 . S
C50 C51 1.351 . S
C50 H67 0.930 . S
C51 N47 1.389 . S
C51 C50 1.351 . S
C51 H56 0.930 . S
O52 Cu46 1.974 . S
O52 C62 1.282 . S
C53 O54 1.261 . S
C53 O66 1.251 . S
O54 C53 1.261 . S
H55 C49 0.930 . S
H56 C51 0.930 . S
N57 Cu46 1.985 . S
N57 C59 1.335 . S
N57 C60 1.390 . S
N58 C59 1.345 . S
N58 C61 1.336 . S
C59 N57 1.335 . S
C59 N58 1.345 . S
C59 H64 0.930 . S
C60 N57 1.390 . S
C60 C61 1.346 . S
C60 H65 0.930 . S
C61 N58 1.336 . S
C61 C60 1.346 . S
C61 H68 0.929 . S
C62 O52 1.282 . S
C62 O63 1.216 . S
O63 C62 1.216 . S
H64 C59 0.930 . S
H65 C60 0.930 . S
O66 Cu46 1.959 . S
O66 C53 1.251 . S
H67 C50 0.930 . S
H68 C61 0.929 . S
Cu69 N70 1.999 . S
Cu69 O75 1.974 . S
Cu69 N80 1.985 1_556 S
Cu69 O89 1.959 1_556 S
N70 Cu69 1.999 . S
N70 C72 1.263 . S
N70 C74 1.389 . S
N71 C72 1.358 . S
N71 C73 1.400 . S
C72 N70 1.263 . S
C72 N71 1.358 . S
C72 H78 0.930 . S
C73 N71 1.400 . S
C73 C74 1.351 . S
C73 H90 0.930 . S
C74 N70 1.389 . S
C74 C73 1.351 . S
C74 H79 0.930 . S
O75 Cu69 1.974 . S
O75 C85 1.282 . S
C76 O77 1.261 . S
C76 O89 1.251 . S
O77 C76 1.261 . S
H78 C72 0.930 . S
H79 C74 0.930 . S
N80 Cu69 1.985 1_554 S
N80 C82 1.335 . S
N80 C83 1.390 . S
N81 C82 1.345 . S
N81 C84 1.336 . S
C82 N80 1.335 . S
C82 N81 1.345 . S
C82 H87 0.930 . S
C83 N80 1.390 . S
C83 C84 1.346 . S
C83 H88 0.930 . S
C84 N81 1.336 . S
C84 C83 1.346 . S
C84 H91 0.929 . S
C85 O75 1.282 . S
C85 O86 1.216 . S
O86 C85 1.216 . S
H87 C82 0.930 . S
H88 C83 0.930 . S
O89 Cu69 1.959 1_554 S
O89 C76 1.251 . S
H90 C73 0.930 . S
H91 C84 0.929 . S
Cu92 N93 1.999 . S
Cu92 O98 1.974 . S
Cu92 N103 1.985 . S
Cu92 O112 1.959 . S
N93 Cu92 1.999 . S
N93 C95 1.263 . S
N93 C97 1.389 . S
N94 C95 1.358 . S
N94 C96 1.400 . S
C95 N93 1.263 . S
C95 N94 1.358 . S
C95 H101 0.930 . S
C96 N94 1.400 . S
C96 C97 1.351 . S
C96 H113 0.930 . S
C97 N93 1.389 . S
C97 C96 1.351 . S
C97 H102 0.930 . S
O98 Cu92 1.974 . S
O98 C108 1.282 . S
C99 O100 1.261 . S
C99 O112 1.251 . S
O100 C99 1.261 . S
H101 C95 0.930 . S
H102 C97 0.930 . S
N103 Cu92 1.985 . S
N103 C105 1.335 . S
N103 C106 1.390 . S
N104 C105 1.345 . S
N104 C107 1.336 . S
C105 N103 1.335 . S
C105 N104 1.345 . S
C105 H110 0.930 . S
C106 N103 1.390 . S
C106 C107 1.346 . S
C106 H111 0.930 . S
C107 N104 1.336 . S
C107 C106 1.346 . S
C107 H114 0.929 . S
C108 O98 1.282 . S
C108 O109 1.216 . S
O109 C108 1.216 . S
H110 C105 0.930 . S
H111 C106 0.930 . S
O112 Cu92 1.959 . S
O112 C99 1.251 . S
H113 C96 0.930 . S
H114 C107 0.929 . S
Cu115 N116 1.999 . S
Cu115 O121 1.974 . S
Cu115 N126 1.985 . S
Cu115 O135 1.959 . S
N116 Cu115 1.999 . S
N116 C118 1.263 . S
N116 C120 1.389 . S
N117 C118 1.358 . S
N117 C119 1.400 . S
C118 N116 1.263 . S
C118 N117 1.358 . S
C118 H124 0.930 . S
C119 N117 1.400 . S
C119 C120 1.351 . S
C119 H136 0.930 . S
C120 N116 1.389 . S
C120 C119 1.351 . S
C120 H125 0.930 . S
O121 Cu115 1.974 . S
O121 C131 1.282 . S
C122 O123 1.261 . S
C122 O135 1.251 . S
O123 C122 1.261 . S
H124 C118 0.930 . S
H125 C120 0.930 . S
N126 Cu115 1.985 . S
N126 C128 1.335 . S
N126 C129 1.390 . S
N127 C128 1.345 . S
N127 C130 1.336 . S
C128 N126 1.335 . S
C128 N127 1.345 . S
C128 H133 0.930 . S
C129 N126 1.390 . S
C129 C130 1.346 . S
C129 H134 0.930 . S
C130 N127 1.336 . S
C130 C129 1.346 . S
C130 H137 0.929 . S
C131 O121 1.282 . S
C131 O132 1.216 . S
O132 C131 1.216 . S
H133 C128 0.930 . S
H134 C129 0.930 . S
O135 Cu115 1.959 . S
O135 C122 1.251 . S
H136 C119 0.930 . S
H137 C130 0.929 . S
H138 C146 0.950 . S
H139 C151 0.950 . S
H140 C148 0.950 . S
H141 C150 0.950 . S
H142 C152 0.950 . S
H143 C154 0.950 . S
H144 C156 0.950 . S
H145 C157 0.950 . S
C146 H138 0.950 . S
C146 C147 1.386 . S
C146 C148 1.391 . S
C147 C146 1.386 . S
C147 C151 1.393 . S
C148 H140 0.950 . S
C148 C146 1.391 . S
C148 C149 1.400 . S
C149 C148 1.400 . S
C149 C150 1.398 . S
C149 C155 1.491 . S
C150 H141 0.950 . S
C150 C149 1.398 . S
C150 C151 1.391 . S
C151 H139 0.950 . S
C151 C147 1.393 . S
C151 C150 1.391 . S
C152 H142 0.950 . S
C152 C153 1.386 . S
C152 C154 1.391 . S
C153 C152 1.386 . S
C153 C157 1.393 . S
C154 H143 0.950 . S
C154 C152 1.391 . S
C154 C155 1.400 . S
C155 C149 1.491 . S
C155 C154 1.400 . S
C155 C156 1.398 . S
C156 H144 0.950 . S
C156 C155 1.398 . S
C156 C157 1.391 . S
C157 H145 0.950 . S
C157 C153 1.393 . S
C157 C156 1.391 . S
H158 C166 0.950 . S
H159 C171 0.950 . S
H160 C168 0.950 . S
H161 C170 0.950 . S
H162 C172 0.950 . S
H163 C174 0.963 . S
H164 C176 0.950 . S
H165 C177 0.950 . S
C166 H158 0.950 . S
C166 C167 1.386 . S
C166 C168 1.391 . S
C167 C166 1.386 . S
C167 C171 1.393 . S
C168 H160 0.950 . S
C168 C166 1.391 . S
C168 C169 1.400 . S
C169 C168 1.400 . S
C169 C170 1.398 . S
C169 C175 1.477 1_655 S
C170 H161 0.950 . S
C170 C169 1.398 . S
C170 C171 1.391 . S
C171 H159 0.950 . S
C171 C167 1.393 . S
C171 C170 1.391 . S
C172 H162 0.950 . S
C172 C173 1.386 . S
C172 C174 1.371 1_455 S
C173 C172 1.386 . S
C173 C177 1.393 . S
C174 H163 0.963 . S
C174 C172 1.371 1_655 S
C174 C175 1.414 1_655 S
C175 C169 1.477 1_455 S
C175 C174 1.414 1_455 S
C175 C176 1.408 . S
C176 H164 0.950 . S
C176 C175 1.408 . S
C176 C177 1.391 . S
C177 H165 0.950 . S
C177 C173 1.393 . S
C177 C176 1.391 . S
H178 C186 0.950 . S
H179 C191 0.950 . S
H180 C188 0.950 . S
H181 C190 0.950 . S
H182 C192 0.950 . S
H183 C194 0.950 . S
H184 C196 0.950 . S
H185 C197 0.950 . S
C186 H178 0.950 . S
C186 C187 1.386 . S
C186 C188 1.391 . S
C187 C186 1.386 . S
C187 C191 1.393 . S
C188 H180 0.950 . S
C188 C186 1.391 . S
C188 C189 1.410 . S
C189 C188 1.410 . S
C189 C190 1.397 . S
C189 C195 1.483 1_545 S
C190 H181 0.950 . S
C190 C189 1.397 . S
C190 C191 1.391 . S
C191 H179 0.950 . S
C191 C187 1.393 . S
C191 C190 1.391 . S
C192 H182 0.950 . S
C192 C193 1.386 . S
C192 C194 1.391 . S
C193 C192 1.386 . S
C193 C197 1.393 . S
C194 H183 0.950 . S
C194 C192 1.391 . S
C194 C195 1.400 . S
C195 C189 1.483 1_565 S
C195 C194 1.400 . S
C195 C196 1.398 . S
C196 H184 0.950 . S
C196 C195 1.398 . S
C196 C197 1.391 . S
C197 H185 0.950 . S
C197 C193 1.393 . S
C197 C196 1.391 . S
H198 C206 0.950 . S
H199 C211 0.950 . S
H200 C208 0.950 . S
H201 C210 0.950 . S
H202 C212 0.950 . S
H203 C214 0.950 . S
H204 C216 0.950 . S
H205 C217 0.950 . S
C206 H198 0.950 . S
C206 C207 1.386 . S
C206 C208 1.391 . S
C207 C206 1.386 . S
C207 C211 1.393 . S
C208 H200 0.950 . S
C208 C206 1.391 . S
C208 C209 1.400 . S
C209 C208 1.400 . S
C209 C210 1.398 . S
C209 C215 1.491 . S
C210 H201 0.950 . S
C210 C209 1.398 . S
C210 C211 1.391 . S
C211 H199 0.950 . S
C211 C207 1.393 . S
C211 C210 1.391 . S
C212 H202 0.950 . S
C212 C213 1.386 . S
C212 C214 1.391 . S
C213 C212 1.386 . S
C213 C217 1.393 . S
C214 H203 0.950 . S
C214 C212 1.391 . S
C214 C215 1.400 . S
C215 C209 1.491 . S
C215 C214 1.400 . S
C215 C216 1.398 . S
C216 H204 0.950 . S
C216 C215 1.398 . S
C216 C217 1.391 . S
C217 H205 0.950 . S
C217 C213 1.393 . S
C217 C216 1.391 . S
H218 C226 0.950 . S
H219 C231 0.950 . S
H220 C228 0.950 . S
H221 C230 0.950 . S
H222 C232 0.950 . S
H223 C234 0.950 . S
H224 C236 0.950 . S
H225 C237 0.950 . S
C226 H218 0.950 . S
C226 C227 1.386 . S
C226 C228 1.391 1_655 S
C227 C226 1.386 . S
C227 C231 1.393 . S
C228 H220 0.950 . S
C228 C226 1.391 1_455 S
C228 C229 1.400 1_455 S
C229 C228 1.400 1_655 S
C229 C230 1.398 . S
C229 C235 1.491 1_655 S
C230 H221 0.950 . S
C230 C229 1.398 . S
C230 C231 1.391 . S
C231 H219 0.950 . S
C231 C227 1.393 . S
C231 C230 1.391 . S
C232 H222 0.950 . S
C232 C233 1.386 . S
C232 C234 1.391 . S
C233 C232 1.386 . S
C233 C237 1.393 . S
C234 H223 0.950 . S
C234 C232 1.391 . S
C234 C235 1.400 . S
C235 C229 1.491 1_455 S
C235 C234 1.400 . S
C235 C236 1.398 . S
C236 H224 0.950 . S
C236 C235 1.398 . S
C236 C237 1.391 . S
C237 H225 0.950 . S
C237 C233 1.393 . S
C237 C236 1.391 . S
H238 C246 0.950 . S
H239 C251 0.950 . S
H240 C248 0.950 . S
H241 C250 0.976 . S
H242 C252 0.950 . S
H243 C254 0.950 . S
H244 C256 0.950 . S
H245 C257 0.950 . S
C246 H238 0.950 . S
C246 C247 1.386 . S
C246 C248 1.391 . S
C247 C246 1.386 . S
C247 C251 1.393 . S
C248 H240 0.950 . S
C248 C246 1.391 . S
C248 C249 1.400 . S
C249 C248 1.400 . S
C249 C250 1.398 . S
C249 C255 1.474 1_545 S
C250 H241 0.976 . S
C250 C249 1.398 . S
C250 C251 1.391 . S
C251 H239 0.950 . S
C251 C247 1.393 . S
C251 C250 1.391 . S
C252 H242 0.950 . S
C252 C253 1.386 . S
C252 C254 1.391 . S
C253 C252 1.386 . S
C253 C257 1.393 . S
C254 H243 0.950 . S
C254 C252 1.391 . S
C254 C255 1.421 . S
C255 C249 1.474 1_565 S
C255 C254 1.421 . S
C255 C256 1.395 1_565 S
C256 H244 0.950 . S
C256 C255 1.395 1_545 S
C256 C257 1.391 1_545 S
C257 H245 0.950 . S
C257 C253 1.393 . S
C257 C256 1.391 1_565 S
H258 C266 0.950 . S
H259 C271 0.950 . S
H260 C268 0.950 . S
H261 C270 0.950 . S
H262 C272 0.950 . S
H263 C274 0.950 . S
H264 C276 0.950 . S
H265 C277 0.950 . S
C266 H258 0.950 . S
C266 C267 1.386 . S
C266 C268 1.391 . S
C267 C266 1.386 . S
C267 C271 1.393 . S
C268 H260 0.950 . S
C268 C266 1.391 . S
C268 C269 1.400 . S
C269 C268 1.400 . S
C269 C270 1.398 . S
C269 C275 1.491 . S
C270 H261 0.950 . S
C270 C269 1.398 . S
C270 C271 1.391 . S
C271 H259 0.950 . S
C271 C267 1.393 . S
C271 C270 1.391 . S
C272 H262 0.950 . S
C272 C273 1.386 . S
C272 C274 1.391 . S
C273 C272 1.386 . S
C273 C277 1.393 . S
C274 H263 0.950 . S
C274 C272 1.391 . S
C274 C275 1.400 . S
C275 C269 1.491 . S
C275 C274 1.400 . S
C275 C276 1.398 . S
C276 H264 0.950 . S
C276 C275 1.398 . S
C276 C277 1.391 . S
C277 H265 0.950 . S
C277 C273 1.393 . S
C277 C276 1.391 . S
H278 C286 0.950 . S
H279 C291 0.950 . S
H280 C288 0.950 . S
H281 C290 0.950 . S
H282 C292 0.950 . S
H283 C294 0.950 . S
H284 C296 0.950 . S
H285 C297 0.950 . S
C286 H278 0.950 . S
C286 C287 1.386 . S
C286 C288 1.391 . S
C287 C286 1.386 . S
C287 C291 1.393 . S
C288 H280 0.950 . S
C288 C286 1.391 . S
C288 C289 1.400 . S
C289 C288 1.400 . S
C289 C290 1.398 . S
C289 C295 1.491 . S
C290 H281 0.950 . S
C290 C289 1.398 . S
C290 C291 1.391 . S
C291 H279 0.950 . S
C291 C287 1.393 . S
C291 C290 1.391 . S
C292 H282 0.950 . S
C292 C293 1.386 . S
C292 C294 1.391 . S
C293 C292 1.386 . S
C293 C297 1.393 . S
C294 H283 0.950 . S
C294 C292 1.391 . S
C294 C295 1.400 . S
C295 C289 1.491 . S
C295 C294 1.400 . S
C295 C296 1.398 . S
C296 H284 0.950 . S
C296 C295 1.398 . S
C296 C297 1.391 . S
C297 H285 0.950 . S
C297 C293 1.393 . S
C297 C296 1.391 . S
H298 C306 0.950 . S
H299 C311 0.950 . S
H300 C308 0.950 . S
H301 C310 0.950 . S
H302 C312 0.950 . S
H303 C314 0.950 . S
H304 C316 0.950 . S
H305 C317 0.950 . S
C306 H298 0.950 . S
C306 C307 1.386 . S
C306 C308 1.391 . S
C307 C306 1.386 . S
C307 C311 1.393 . S
C308 H300 0.950 . S
C308 C306 1.391 . S
C308 C309 1.400 . S
C309 C308 1.400 . S
C309 C310 1.398 . S
C309 C315 1.491 . S
C310 H301 0.950 . S
C310 C309 1.398 . S
C310 C311 1.391 . S
C311 H299 0.950 . S
C311 C307 1.393 . S
C311 C310 1.391 . S
C312 H302 0.950 . S
C312 C313 1.386 . S
C312 C314 1.391 . S
C313 C312 1.386 . S
C313 C317 1.393 . S
C314 H303 0.950 . S
C314 C312 1.391 . S
C314 C315 1.400 . S
C315 C309 1.491 . S
C315 C314 1.400 . S
C315 C316 1.398 . S
C316 H304 0.950 . S
C316 C315 1.398 . S
C316 C317 1.391 . S
C317 H305 0.950 . S
C317 C313 1.393 . S
C317 C316 1.391 . S
H318 C326 0.950 . S
H319 C331 0.950 . S
H320 C328 0.950 . S
H321 C330 0.950 . S
H322 C332 0.950 . S
H323 C334 0.950 . S
H324 C336 0.950 . S
H325 C337 0.950 . S
C326 H318 0.950 . S
C326 C327 1.386 . S
C326 C328 1.391 . S
C327 C326 1.386 . S
C327 C331 1.393 . S
C328 H320 0.950 . S
C328 C326 1.391 . S
C328 C329 1.400 . S
C329 C328 1.400 . S
C329 C330 1.398 . S
C329 C335 1.491 . S
C330 H321 0.950 . S
C330 C329 1.398 . S
C330 C331 1.391 . S
C331 H319 0.950 . S
C331 C327 1.393 . S
C331 C330 1.391 . S
C332 H322 0.950 . S
C332 C333 1.386 . S
C332 C334 1.391 . S
C333 C332 1.386 . S
C333 C337 1.393 . S
C334 H323 0.950 . S
C334 C332 1.391 . S
C334 C335 1.400 . S
C335 C329 1.491 . S
C335 C334 1.400 . S
C335 C336 1.398 . S
C336 H324 0.950 . S
C336 C335 1.398 . S
C336 C337 1.391 . S
C337 H325 0.950 . S
C337 C333 1.393 . S
C337 C336 1.391 . S
H338 C346 0.950 . S
H339 C351 0.950 . S
H340 C348 0.950 . S
H341 C350 0.950 . S
H342 C352 0.950 . S
H343 C354 0.950 . S
H344 C356 0.950 . S
H345 C357 0.950 . S
C346 H338 0.950 . S
C346 C347 1.386 . S
C346 C348 1.391 . S
C347 C346 1.386 . S
C347 C351 1.393 . S
C348 H340 0.950 . S
C348 C346 1.391 . S
C348 C349 1.400 . S
C349 C348 1.400 . S
C349 C350 1.398 . S
C349 C355 1.491 . S
C350 H341 0.950 . S
C350 C349 1.398 . S
C350 C351 1.391 . S
C351 H339 0.950 . S
C351 C347 1.393 . S
C351 C350 1.391 . S
C352 H342 0.950 . S
C352 C353 1.386 . S
C352 C354 1.391 . S
C353 C352 1.386 . S
C353 C357 1.393 . S
C354 H343 0.950 . S
C354 C352 1.391 . S
C354 C355 1.400 . S
C355 C349 1.491 . S
C355 C354 1.400 . S
C355 C356 1.398 . S
C356 H344 0.950 . S
C356 C355 1.398 . S
C356 C357 1.391 . S
C357 H345 0.950 . S
C357 C353 1.393 . S
C357 C356 1.391 . S
H358 C366 0.950 . S
H359 C371 0.950 . S
H360 C368 0.950 . S
H361 C370 0.950 . S
H362 C372 0.950 . S
H363 C374 0.950 . S
H364 C376 0.950 . S
H365 C377 0.950 . S
C366 H358 0.950 . S
C366 C367 1.386 . S
C366 C368 1.391 . S
C367 C366 1.386 . S
C367 C371 1.393 . S
C368 H360 0.950 . S
C368 C366 1.391 . S
C368 C369 1.400 . S
C369 C368 1.400 . S
C369 C370 1.398 . S
C369 C375 1.491 . S
C370 H361 0.950 . S
C370 C369 1.398 . S
C370 C371 1.391 . S
C371 H359 0.950 . S
C371 C367 1.393 . S
C371 C370 1.391 . S
C372 H362 0.950 . S
C372 C373 1.386 . S
C372 C374 1.391 . S
C373 C372 1.386 . S
C373 C377 1.393 . S
C374 H363 0.950 . S
C374 C372 1.391 . S
C374 C375 1.400 . S
C375 C369 1.491 . S
C375 C374 1.400 . S
C375 C376 1.398 . S
C376 H364 0.950 . S
C376 C375 1.398 . S
C376 C377 1.391 . S
C377 H365 0.950 . S
C377 C373 1.393 . S
C377 C376 1.391 . S
C147 C16 1.406 . S
C153 N127 1.413 . S
C167 C39 1.403 . S
C173 N12 1.412 . S
C187 N35 1.409 . S
C193 C62 1.396 . S
C207 C85 1.404 . S
C213 N58 1.413 . S
C227 N81 1.407 . S
C233 C108 1.399 . S
C247 C131 1.395 . S
C253 N104 1.406 . S
C267 N94 1.392 . S
C273 C7 1.470 . S
C287 N117 1.391 . S
C293 C30 1.473 . S
C307 C53 1.464 . S
C313 N2 1.406 . S
C327 C76 1.462 . S
C333 N25 1.421 . S
C347 C99 1.473 . S
C353 N48 1.393 . S
C367 C122 1.469 . S
C373 N71 1.394 . S
