# Generated by pormake.
# Topology uoq, (4)-cn, num edge types: 1
# Building blocks:
#     Node 0, Type 0, BuildingBlock: TATPOV_clean_sbu_0, # of connection points: 4
#     Node 1, Type 0, BuildingBlock: TATPOV_clean_sbu_0, # of connection points: 4
#     Node 2, Type 0, BuildingBlock: TATPOV_clean_sbu_0, # of connection points: 4
#     Node 3, Type 0, BuildingBlock: TATPOV_clean_sbu_0, # of connection points: 4
#     Node 4, Type 0, BuildingBlock: TATPOV_clean_sbu_0, # of connection points: 4
#     Node 5, Type 0, BuildingBlock: TATPOV_clean_sbu_0, # of connection points: 4
#     Node 6, Type 0, BuildingBlock: TATPOV_clean_sbu_0, # of connection points: 4
#     Node 7, Type 0, BuildingBlock: TATPOV_clean_sbu_0, # of connection points: 4
#     Node 8, Type 0, BuildingBlock: TATPOV_clean_sbu_0, # of connection points: 4
#     Node 9, Type 0, BuildingBlock: TATPOV_clean_sbu_0, # of connection points: 4
#     Node 10, Type 0, BuildingBlock: TATPOV_clean_sbu_0, # of connection points: 4
#     Node 11, Type 0, BuildingBlock: TATPOV_clean_sbu_0, # of connection points: 4
#     Edge 12, Type (0, 0), BuildingBlock: MIFKUJ_clean_linker_0, # of connection points: 2
#     Edge 13, Type (0, 0), BuildingBlock: MIFKUJ_clean_linker_0, # of connection points: 2
#     Edge 14, Type (0, 0), BuildingBlock: MIFKUJ_clean_linker_0, # of connection points: 2
#     Edge 15, Type (0, 0), BuildingBlock: MIFKUJ_clean_linker_0, # of connection points: 2
#     Edge 16, Type (0, 0), BuildingBlock: MIFKUJ_clean_linker_0, # of connection points: 2
#     Edge 17, Type (0, 0), BuildingBlock: MIFKUJ_clean_linker_0, # of connection points: 2
#     Edge 18, Type (0, 0), BuildingBlock: MIFKUJ_clean_linker_0, # of connection points: 2
#     Edge 19, Type (0, 0), BuildingBlock: MIFKUJ_clean_linker_0, # of connection points: 2
#     Edge 20, Type (0, 0), BuildingBlock: MIFKUJ_clean_linker_0, # of connection points: 2
#     Edge 21, Type (0, 0), BuildingBlock: MIFKUJ_clean_linker_0, # of connection points: 2
#     Edge 22, Type (0, 0), BuildingBlock: MIFKUJ_clean_linker_0, # of connection points: 2
#     Edge 23, Type (0, 0), BuildingBlock: MIFKUJ_clean_linker_0, # of connection points: 2
#     Edge 24, Type (0, 0), BuildingBlock: MIFKUJ_clean_linker_0, # of connection points: 2
#     Edge 25, Type (0, 0), BuildingBlock: MIFKUJ_clean_linker_0, # of connection points: 2
#     Edge 26, Type (0, 0), BuildingBlock: MIFKUJ_clean_linker_0, # of connection points: 2
#     Edge 27, Type (0, 0), BuildingBlock: MIFKUJ_clean_linker_0, # of connection points: 2
#     Edge 28, Type (0, 0), BuildingBlock: MIFKUJ_clean_linker_0, # of connection points: 2
#     Edge 29, Type (0, 0), BuildingBlock: MIFKUJ_clean_linker_0, # of connection points: 2
#     Edge 30, Type (0, 0), BuildingBlock: MIFKUJ_clean_linker_0, # of connection points: 2
#     Edge 31, Type (0, 0), BuildingBlock: MIFKUJ_clean_linker_0, # of connection points: 2
#     Edge 32, Type (0, 0), BuildingBlock: MIFKUJ_clean_linker_0, # of connection points: 2
#     Edge 33, Type (0, 0), BuildingBlock: MIFKUJ_clean_linker_0, # of connection points: 2
#     Edge 34, Type (0, 0), BuildingBlock: MIFKUJ_clean_linker_0, # of connection points: 2
#     Edge 35, Type (0, 0), BuildingBlock: MIFKUJ_clean_linker_0, # of connection points: 2
# Relax obj value: 0.073
# Max RMSD: 0.061
# Mean RMSD: 0.061
data_MOF--net-uoq--node1-TATPOV_clean_sbu_0--edge1-MIFKUJ_clean_linker_0
_symmetry_space_group_name_H-M    P1
_symmetry_Int_Tables_number       1
_symmetry_cell_setting            triclinic
loop_
_symmetry_equiv_pos_as_xyz
'x, y, z'
_cell_length_a     75.15238
_cell_length_b     75.210233
_cell_length_c     31.357339
_cell_angle_alpha  90.072442
_cell_angle_beta   89.924093
_cell_angle_gamma 119.90564
loop_
_atom_site_label
_atom_site_type_symbol
_atom_site_fract_x
_atom_site_fract_y
_atom_site_fract_z
_atom_type_partial_charge
Zn0 Zn 0.30746 0.43553 0.32513 0.0
Zn1 Zn 0.29242 0.43684 0.25728 0.0
O2 O 0.29993 0.41361 0.24872 0.0
O3 O 0.32222 0.42208 0.30096 0.0
O4 O 0.2789 0.43868 0.20204 0.0
O5 O 0.28085 0.41857 0.35482 0.0
O6 O 0.2695 0.42956 0.30251 0.0
C7 C 0.31367 0.41147 0.2682 0.0
C8 C 0.32618 0.47574 0.29984 0.0
O9 O 0.31765 0.46651 0.26514 0.0
O10 O 0.32223 0.4657 0.33415 0.0
C11 C 0.26656 0.42323 0.17976 0.0
O12 O 0.26268 0.40487 0.19145 0.0
C13 C 0.26676 0.42094 0.33885 0.0
Zn14 Zn 0.86681 0.32814 0.64237 0.0
Zn15 Zn 0.84706 0.30128 0.58158 0.0
O16 O 0.87805 0.30912 0.57546 0.0
O17 O 0.89404 0.33345 0.62344 0.0
O18 O 0.83236 0.2817 0.53162 0.0
O19 O 0.85088 0.30603 0.68567 0.0
O20 O 0.83436 0.28356 0.63474 0.0
C21 C 0.89458 0.32226 0.59403 0.0
C22 C 0.84369 0.34076 0.59595 0.0
O23 O 0.83814 0.32365 0.57742 0.0
O24 O 0.85712 0.34708 0.62493 0.0
C25 C 0.82487 0.28652 0.50019 0.0
O26 O 0.82698 0.30493 0.49898 0.0
C27 C 0.83774 0.28802 0.67424 0.0
Zn28 Zn 0.55462 0.87859 0.97131 0.0
Zn29 Zn 0.55138 0.85558 0.91506 0.0
O30 O 0.57623 0.88514 0.90166 0.0
O31 O 0.56724 0.90431 0.93778 0.0
O32 O 0.54887 0.83801 0.86316 0.0
O33 O 0.57211 0.87067 0.00585 0.0
O34 O 0.55945 0.84335 0.96492 0.0
C35 C 0.57908 0.90288 0.91128 0.0
C36 C 0.51357 0.85396 0.95789 0.0
O37 O 0.52115 0.84995 0.92514 0.0
O38 O 0.52546 0.86569 0.9864 0.0
C39 C 0.56374 0.83594 0.84971 0.0
O40 O 0.58143 0.84558 0.8697 0.0
C41 C 0.5692 0.85288 0.99836 0.0
Zn42 Zn 0.69121 0.54979 0.343 0.0
Zn43 Zn 0.70541 0.55471 0.26965 0.0
O44 O 0.69261 0.57383 0.2672 0.0
O45 O 0.67486 0.56289 0.32674 0.0
O46 O 0.71979 0.55678 0.21301 0.0
O47 O 0.71736 0.56643 0.37326 0.0
O48 O 0.73048 0.56569 0.31119 0.0
C49 C 0.67947 0.57371 0.29333 0.0
C50 C 0.67477 0.51184 0.30649 0.0
O51 O 0.68286 0.52351 0.27419 0.0
O52 O 0.67817 0.51948 0.34347 0.0
C53 C 0.71366 0.55643 0.17502 0.0
O54 O 0.69567 0.55491 0.16872 0.0
C55 C 0.73284 0.5705 0.35067 0.0
Zn56 Zn 0.11846 0.68414 0.65939 0.0
Zn57 Zn 0.13527 0.69631 0.59391 0.0
O58 O 0.10445 0.68851 0.58328 0.0
O59 O 0.09749 0.69228 0.64936 0.0
O60 O 0.15097 0.70829 0.53821 0.0
O61 O 0.1417 0.70194 0.69648 0.0
O62 O 0.15146 0.72012 0.63777 0.0
C63 C 0.09254 0.68991 0.61053 0.0
C64 C 0.1256 0.65465 0.62773 0.0
O65 O 0.13815 0.67046 0.6064 0.0
O66 O 0.1119 0.65528 0.64995 0.0
C67 C 0.14783 0.72008 0.51413 0.0
O68 O 0.13324 0.72412 0.52429 0.0
C69 C 0.15324 0.71873 0.67797 0.0
Zn70 Zn 0.43864 0.12507 0.97386 0.0
Zn71 Zn 0.4361 0.13805 0.90923 0.0
O72 O 0.41773 0.10598 0.90449 0.0
O73 O 0.43597 0.09941 0.94931 0.0
O74 O 0.43331 0.15038 0.85306 0.0
O75 O 0.41397 0.12435 -0.00042 0.0
O76 O 0.42479 0.14996 0.95486 0.0
C77 C 0.42202 0.09314 0.92146 0.0
C78 C 0.47683 0.15403 0.95382 0.0
O79 O 0.46758 0.14859 0.91794 0.0
O80 O 0.46638 0.14853 0.98771 0.0
C81 C 0.44798 0.16709 0.83836 0.0
O82 O 0.46549 0.17616 0.85906 0.0
C83 C 0.41437 0.14059 0.98785 0.0
Zn84 Zn 0.55087 0.68689 0.3308 0.0
Zn85 Zn 0.55121 0.69714 0.4042 0.0
O86 O 0.57615 0.69193 0.3987 0.0
O87 O 0.57995 0.69351 0.32912 0.0
O88 O 0.55312 0.70833 0.46443 0.0
O89 O 0.54322 0.70598 0.30512 0.0
O90 O 0.553 0.72117 0.36735 0.0
C91 C 0.58644 0.69253 0.36566 0.0
C92 C 0.5173 0.65561 0.37243 0.0
O93 O 0.52275 0.66995 0.39999 0.0
O94 O 0.52869 0.65829 0.34058 0.0
C95 C 0.53913 0.7117 0.47826 0.0
O96 O 0.52297 0.70659 0.4542 0.0
C97 C 0.54756 0.72117 0.32883 0.0
Zn98 Zn 0.86939 0.53421 0.69393 0.0
Zn99 Zn 0.85104 0.5447 0.7469 0.0
O100 O 0.88262 0.56252 0.76054 0.0
O101 O 0.89589 0.547 0.72402 0.0
O102 O 0.83617 0.55127 0.79355 0.0
O103 O 0.8651 0.55019 0.6479 0.0
O104 O 0.8456 0.55598 0.69159 0.0
C105 C 0.89819 0.56095 0.74962 0.0
C106 C 0.83732 0.49896 0.72601 0.0
O107 O 0.83558 0.51232 0.74803 0.0
O108 O 0.85116 0.50449 0.69808 0.0
C109 C 0.83916 0.54954 0.83293 0.0
O110 O 0.85278 0.54424 0.84354 0.0
C111 C 0.85359 0.55772 0.6548 0.0
Zn112 Zn 0.31776 0.86457 0.01805 0.0
Zn113 Zn 0.29771 0.84959 0.08034 0.0
O114 O 0.3116 0.88147 0.08855 0.0
O115 O 0.33796 0.89069 0.04613 0.0
O116 O 0.28007 0.83643 0.13364 0.0
O117 O 0.29498 0.86393 0.98467 0.0
O118 O 0.27627 0.8401 0.03124 0.0
C119 C 0.32881 0.89541 0.07384 0.0
C120 C 0.32518 0.83434 0.0418 0.0
O121 O 0.3176 0.83741 0.07566 0.0
O122 O 0.32468 0.84274 0.00739 0.0
C123 C 0.28487 0.82795 0.16316 0.0
O124 O 0.3024 0.82812 0.16057 0.0
C125 C 0.27774 0.84932 0.9961 0.0
Zn126 Zn 0.44474 0.30693 0.31945 0.0
Zn127 Zn 0.44294 0.29648 0.39335 0.0
O128 O 0.41732 0.30067 0.38831 0.0
O129 O 0.41571 0.30046 0.31828 0.0
O130 O 0.44302 0.28636 0.4537 0.0
O131 O 0.45173 0.28684 0.29564 0.0
O132 O 0.43991 0.27178 0.35732 0.0
C133 C 0.40785 0.3002 0.35406 0.0
C134 C 0.47798 0.33783 0.3595 0.0
O135 O 0.47164 0.32353 0.38736 0.0
O136 O 0.46711 0.33551 0.32703 0.0
C137 C 0.42751 0.27043 0.46869 0.0
O138 O 0.41062 0.26131 0.44586 0.0
C139 C 0.44579 0.27135 0.31936 0.0
Zn140 Zn 0.11474 0.44265 0.68761 0.0
Zn141 Zn 0.12899 0.43696 0.75313 0.0
O142 O 0.09952 0.41066 0.74939 0.0
O143 O 0.09275 0.41377 0.68243 0.0
O144 O 0.14222 0.43298 0.80687 0.0
O145 O 0.13995 0.45164 0.65303 0.0
O146 O 0.14812 0.43735 0.70468 0.0
C147 C 0.0883 0.40331 0.7162 0.0
C148 C 0.11978 0.47256 0.74311 0.0
O149 O 0.13013 0.46538 0.76109 0.0
O150 O 0.10854 0.46331 0.71153 0.0
C151 C 0.15558 0.448 0.8288 0.0
O152 O 0.16063 0.46674 0.81748 0.0
C153 C 0.15128 0.44503 0.66727 0.0
Zn154 Zn 0.66373 0.11543 0.01407 0.0
Zn155 Zn 0.68479 0.13594 0.07896 0.0
O156 O 0.6822 0.1068 0.08595 0.0
O157 O 0.66258 0.08987 0.03131 0.0
O158 O 0.70031 0.15247 0.13162 0.0
O159 O 0.68592 0.134 0.97426 0.0
O160 O 0.7043 0.15198 0.0292 0.0
C161 C 0.67266 0.09039 0.06384 0.0
C162 C 0.64207 0.13116 0.05529 0.0
O163 O 0.65816 0.13869 0.07867 0.0
O164 O 0.64018 0.11943 0.02468 0.0
C165 C 0.71231 0.14895 0.15417 0.0
O166 O 0.715 0.13351 0.144 0.0
C167 C 0.70223 0.14885 0.98905 0.0
H168 H 0.35072 0.41479 0.2556 0.0
H169 H 0.35878 0.38724 0.26351 0.0
H170 H 0.29419 0.34302 0.27265 0.0
H171 H 0.28607 0.37069 0.26361 0.0
H172 H 0.31796 0.34335 0.34352 0.0
H173 H 0.31802 0.33772 0.19254 0.0
H174 H 0.32643 0.35001 0.11841 0.0
H175 H 0.39063 0.37517 0.14466 0.0
H176 H 0.38263 0.36329 0.21915 0.0
H177 H 0.37533 0.28045 0.30153 0.0
H178 H 0.35019 0.29088 0.28445 0.0
H179 H 0.37394 0.33543 0.38622 0.0
H180 H 0.39893 0.32463 0.40398 0.0
H181 H 0.36282 0.32758 0.25414 0.0
H182 H 0.33877 0.34971 0.4131 0.0
H183 H 0.32947 0.33659 0.48655 0.0
H184 H 0.31067 0.27564 0.44265 0.0
H185 H 0.31958 0.28833 0.36886 0.0
C186 C 0.33824 0.39907 0.25726 0.0
C187 C 0.3178 0.39475 0.25832 0.0
C188 C 0.34283 0.38336 0.26212 0.0
C189 C 0.32708 0.36311 0.2689 0.0
C190 C 0.30655 0.35856 0.26739 0.0
C191 C 0.30192 0.37429 0.26163 0.0
C192 C 0.33246 0.34746 0.2822 0.0
C193 C 0.32756 0.33963 0.32387 0.0
C194 C 0.34478 0.34251 0.25637 0.0
C195 C 0.34971 0.34969 0.21154 0.0
C196 C 0.33394 0.346 0.18261 0.0
C197 C 0.33864 0.35287 0.1405 0.0
C198 C 0.35905 0.36338 0.12685 0.0
C199 C 0.37482 0.36702 0.15528 0.0
C200 C 0.37021 0.36019 0.19744 0.0
C201 C 0.37462 0.29189 0.32137 0.0
C202 C 0.38908 0.3018 0.35398 0.0
C203 C 0.36033 0.29793 0.3114 0.0
C204 C 0.36029 0.31409 0.33366 0.0
C205 C 0.37353 0.32278 0.3688 0.0
C206 C 0.38776 0.31656 0.3791 0.0
C207 C 0.34884 0.32384 0.31606 0.0
C208 C 0.35282 0.3308 0.27363 0.0
C209 C 0.33558 0.32784 0.34117 0.0
C210 C 0.32999 0.32003 0.38544 0.0
C211 C 0.33256 0.33349 0.41906 0.0
C212 C 0.32737 0.32613 0.46078 0.0
C213 C 0.31953 0.30531 0.46928 0.0
C214 C 0.31681 0.29178 0.43605 0.0
C215 C 0.32196 0.29906 0.39428 0.0
H216 H 0.31554 0.29964 0.50159 0.0
H217 H 0.36266 0.36869 0.09422 0.0
H218 H 0.93138 0.35608 0.58141 0.0
H219 H 0.96471 0.35919 0.59541 0.0
H220 H 0.93576 0.29354 0.6102 0.0
H221 H 0.90216 0.29042 0.59564 0.0
H222 H 0.95818 0.3142 0.68039 0.0
H223 H 0.97057 0.31584 0.53216 0.0
H224 H 0.97122 0.32582 0.45708 0.0
H225 H 0.0135 0.38864 0.4888 0.0
H226 H 0.0129 0.3791 0.56419 0.0
H227 H 0.08028 0.37084 0.66702 0.0
H228 H 0.04613 0.34473 0.64332 0.0
H229 H 0.01891 0.36655 0.73589 0.0
H230 H 0.05316 0.39231 0.76027 0.0
H231 H 0.02398 0.35705 0.60467 0.0
H232 H 0.96908 0.33238 0.75206 0.0
H233 H 0.96838 0.32129 0.8263 0.0
H234 H 0.01122 0.30133 0.79432 0.0
H235 H 0.01197 0.31201 0.71975 0.0
C236 C 0.93226 0.34224 0.58562 0.0
C237 C 0.9143 0.32301 0.58694 0.0
C238 C 0.9513 0.34401 0.59385 0.0
C239 C 0.95275 0.3266 0.60397 0.0
C240 C 0.93498 0.30716 0.60237 0.0
C241 C 0.91586 0.30536 0.59347 0.0
C242 C 0.97234 0.32937 0.62143 0.0
C243 C 0.9726 0.32329 0.66369 0.0
C244 C 0.99108 0.34087 0.59935 0.0
C245 C 0.99165 0.34673 0.55393 0.0
C246 C 0.97993 0.3318 0.52319 0.0
C247 C 0.98029 0.33738 0.48055 0.0
C248 C 0.99238 0.35785 0.46818 0.0
C249 C 0.00416 0.37278 0.49842 0.0
C250 C 0.00384 0.36728 0.54111 0.0
C251 C 0.06697 0.36923 0.68391 0.0
C252 C 0.06926 0.38336 0.71575 0.0
C253 C 0.04745 0.35447 0.67004 0.0
C254 C 0.02989 0.35374 0.68745 0.0
C255 C 0.03216 0.36656 0.72226 0.0
C256 C 0.05175 0.38124 0.73644 0.0
C257 C 0.00995 0.34269 0.66444 0.0
C258 C 0.00962 0.3474 0.62115 0.0
C259 C 0.99119 0.32977 0.6855 0.0
C260 C 0.99065 0.32311 0.73028 0.0
C261 C 0.97826 0.32551 0.76077 0.0
C262 C 0.97788 0.31932 0.80295 0.0
C263 C 0.98978 0.31065 0.81504 0.0
C264 C 0.00206 0.30811 0.78495 0.0
C265 C 0.00249 0.31426 0.74273 0.0
H266 H 0.98946 0.30588 0.84771 0.0
H267 H 0.99264 0.36214 0.43516 0.0
H268 H 0.58833 0.93744 0.86662 0.0
H269 H 0.61539 0.97164 0.88775 0.0
H270 H 0.63961 0.94421 0.97408 0.0
H271 H 0.6139 0.91036 0.94965 0.0
H272 H 0.61316 0.98342 0.95835 0.0
H273 H 0.68321 0.97788 0.02298 0.0
H274 H 0.70575 0.9646 -0.00025 0.0
H275 H 0.6915 0.96872 0.86886 0.0
H276 H 0.6691 0.98229 0.89123 0.0
H277 H 0.64873 0.05596 0.10996 0.0
H278 H 0.64158 0.02208 0.08587 0.0
H279 H 0.69326 0.05056 6e-05 0.0
H280 H 0.70114 0.08422 0.02628 0.0
H281 H 0.6844 0.01262 0.01183 0.0
H282 H 0.64659 0.04586 0.97139 0.0
H283 H 0.62599 0.06268 0.98338 0.0
H284 H 0.57931 0.00842 0.04515 0.0
H285 H 0.59972 0.99132 0.0337 0.0
C286 C 0.60039 0.93885 0.88766 0.0
C287 C 0.59922 0.92136 0.90617 0.0
C288 C 0.61567 0.95839 0.90046 0.0
C289 C 0.62942 0.9607 0.93338 0.0
C290 C 0.62956 0.94315 0.94829 0.0
C291 C 0.61482 0.92366 0.93412 0.0
C292 C 0.64028 0.98039 0.9577 0.0
C293 C 0.62884 0.98977 0.96944 0.0
C294 C 0.66076 0.98898 0.97265 0.0
C295 C 0.67432 0.98095 0.95886 0.0
C296 C 0.68495 0.97605 0.98923 0.0
C297 C 0.6977 0.96844 0.97621 0.0
C298 C 0.70001 0.96576 0.93287 0.0
C299 C 0.68963 0.97073 0.90244 0.0
C300 C 0.67688 0.97834 0.91528 0.0
C301 C 0.65945 0.05488 0.08845 0.0
C302 C 0.67547 0.07262 0.06993 0.0
C303 C 0.65516 0.03553 0.07402 0.0
C304 C 0.66633 0.03383 0.03969 0.0
C305 C 0.68424 0.05142 0.02611 0.0
C306 C 0.68886 0.07071 0.04144 0.0
C307 C 0.6571 0.01515 0.01231 0.0
C308 C 0.66878 0.00607 0.00025 0.0
C309 C 0.63711 0.00723 0.99529 0.0
C310 C 0.62475 0.01741 0.00208 0.0
C311 C 0.63197 0.03757 0.98769 0.0
C312 C 0.62033 0.04714 0.99437 0.0
C313 C 0.6014 0.03666 0.01517 0.0
C314 C 0.59401 0.01654 0.02914 0.0
C315 C 0.60558 0.00688 0.02252 0.0
H316 H 0.59242 0.0441 0.02036 0.0
H317 H 0.70988 0.95987 0.92286 0.0
H318 H 0.64346 0.5672 0.32569 0.0
H319 H 0.63142 0.59156 0.33185 0.0
H320 H 0.68282 0.63534 0.25669 0.0
H321 H 0.69545 0.61082 0.25143 0.0
H322 H 0.67899 0.6532 0.32679 0.0
H323 H 0.63332 0.61324 0.21762 0.0
H324 H 0.60869 0.58216 0.17852 0.0
H325 H 0.56593 0.56484 0.28235 0.0
H326 H 0.5904 0.59565 0.32239 0.0
H327 H 0.62048 0.70825 0.31579 0.0
H328 H 0.64146 0.69227 0.30207 0.0
H329 H 0.60995 0.64882 0.40291 0.0
H330 H 0.58929 0.6651 0.41757 0.0
H331 H 0.60602 0.63428 0.30998 0.0
H332 H 0.655 0.67476 0.41991 0.0
H333 H 0.68008 0.70714 0.45441 0.0
H334 H 0.71692 0.72536 0.3408 0.0
H335 H 0.69187 0.69318 0.30538 0.0
C336 C 0.65205 0.58185 0.30968 0.0
C337 C 0.67044 0.58712 0.28815 0.0
C338 C 0.64507 0.59578 0.31306 0.0
C339 C 0.65609 0.61528 0.29448 0.0
C340 C 0.67404 0.62035 0.27122 0.0
C341 C 0.68112 0.60629 0.26783 0.0
C342 C 0.64936 0.6305 0.30268 0.0
C343 C 0.66313 0.64925 0.32222 0.0
C344 C 0.62863 0.62534 0.29708 0.0
C345 C 0.61378 0.60674 0.27312 0.0
C346 C 0.61872 0.60274 0.23227 0.0
C347 C 0.60478 0.58517 0.20991 0.0
C348 C 0.58577 0.57152 0.22796 0.0
C349 C 0.58066 0.57543 0.26839 0.0
C350 C 0.59455 0.59296 0.29091 0.0
C351 C 0.61872 0.6959 0.33633 0.0
C352 C 0.60329 0.68788 0.36774 0.0
C353 C 0.63065 0.68676 0.32835 0.0
C354 C 0.6271 0.66932 0.35127 0.0
C355 C 0.61291 0.66234 0.38502 0.0
C356 C 0.60125 0.67175 0.39361 0.0
C357 C 0.63544 0.65642 0.33538 0.0
C358 C 0.62191 0.63823 0.31406 0.0
C359 C 0.65641 0.66233 0.33855 0.0
C360 C 0.67142 0.68168 0.35981 0.0
C361 C 0.66832 0.68577 0.4021 0.0
C362 C 0.68256 0.70406 0.42187 0.0
C363 C 0.70004 0.71833 0.39976 0.0
C364 C 0.70335 0.71431 0.35786 0.0
C365 C 0.68914 0.69604 0.33794 0.0
H366 H 0.71106 0.73248 0.41513 0.0
H367 H 0.57499 0.55793 0.21059 0.0
H368 H 0.91126 0.60187 0.75896 0.0
H369 H 0.94518 0.62945 0.73709 0.0
H370 H 0.96638 0.58579 0.72713 0.0
H371 H 0.933 0.55857 0.75059 0.0
H372 H -0.0027 0.62039 0.74398 0.0
H373 H 0.9423 0.59637 0.64256 0.0
H374 H 0.90841 0.58893 0.61587 0.0
H375 H 0.92725 0.65297 0.62212 0.0
H376 H 0.96118 0.66074 0.64957 0.0
H377 H 0.06479 0.65403 0.5745 0.0
H378 H 0.02875 0.63552 0.59632 0.0
H379 H 0.03532 0.69083 0.65229 0.0
H380 H 0.07152 0.70924 0.63158 0.0
H381 H 0.99074 0.65353 0.61258 0.0
H382 H 0.04716 0.67407 0.72066 0.0
H383 H 0.08064 0.67744 0.73913 0.0
H384 H 0.05736 0.61393 0.7089 0.0
H385 H 0.02379 0.61028 0.68985 0.0
C386 C 0.92349 0.59838 0.75436 0.0
C387 C 0.91939 0.578 0.75572 0.0
C388 C 0.94279 0.6141 0.74107 0.0
C389 C 0.95808 0.60954 0.72865 0.0
C390 C 0.9548 0.58971 0.73581 0.0
C391 C 0.93567 0.57412 0.74945 0.0
C392 C 0.97632 0.62433 0.70351 0.0
C393 C -0.00425 0.62766 0.71547 0.0
C394 C 0.97445 0.63367 0.66565 0.0
C395 C 0.95419 0.6291 0.6486 0.0
C396 C 0.93918 0.60885 0.63848 0.0
C397 C 0.91996 0.60457 0.62322 0.0
C398 C 0.91566 0.62046 0.61741 0.0
C399 C 0.93059 0.64067 0.62674 0.0
C400 C 0.94982 0.64502 0.64216 0.0
C401 C 0.05821 0.66258 0.5888 0.0
C402 C 0.07089 0.68304 0.60141 0.0
C403 C 0.03764 0.65193 0.60164 0.0
C404 C 0.02953 0.6618 0.62634 0.0
C405 C 0.04131 0.683 0.63311 0.0
C406 C 0.06196 0.69355 0.62097 0.0
C407 C 0.01135 0.64944 0.6535 0.0
C408 C 0.99211 0.64653 0.64168 0.0
C409 C 0.01318 0.63992 0.69077 0.0
C410 C 0.03308 0.64195 0.70363 0.0
C411 C 0.04923 0.66086 0.71784 0.0
C412 C 0.0682 0.66281 0.72843 0.0
C413 C 0.07114 0.64592 0.7251 0.0
C414 C 0.05506 0.627 0.71142 0.0
C415 C 0.03606 0.62498 0.7008 0.0
H416 H 0.08585 0.64747 0.73319 0.0
H417 H 0.90077 0.61712 0.6056 0.0
H418 H 0.30498 0.91328 0.07851 0.0
H419 H 0.31609 0.94864 0.05711 0.0
H420 H 0.37901 0.96214 0.05511 0.0
H421 H 0.36799 0.92694 0.07628 0.0
H422 H 0.376 -0.0041 0.07781 0.0
H423 H 0.34937 0.94239 0.96882 0.0
H424 H 0.32241 0.91024 0.93655 0.0
H425 H 0.28263 0.93578 0.92737 0.0
H426 H 0.30924 0.96795 0.96034 0.0
H427 H 0.43247 0.06359 0.92328 0.0
H428 H 0.41061 0.02892 0.95034 0.0
H429 H 0.35821 0.03776 0.94581 0.0
H430 H 0.38012 0.07263 0.91833 0.0
H431 H 0.35034 0.99448 0.93115 0.0
H432 H 0.37956 0.05021 0.03127 0.0
H433 H 0.4078 0.08259 0.0598 0.0
H434 H 0.44303 0.05304 0.0847 0.0
H435 H 0.41516 0.02058 0.05542 0.0
C436 C 0.32126 0.92408 0.07564 0.0
C437 C 0.33565 0.91738 0.07878 0.0
C438 C 0.32756 0.94422 0.06289 0.0
C439 C 0.34832 0.95785 0.05351 0.0
C440 C 0.36291 0.95185 0.06189 0.0
C441 C 0.35661 0.93175 0.07418 0.0
C442 C 0.35472 0.97702 0.02918 0.0
C443 C 0.37027 -0.0044 0.04592 0.0
C444 C 0.34706 0.97671 0.98767 0.0
C445 C 0.33117 0.95745 0.96751 0.0
C446 C 0.33481 0.94108 0.96022 0.0
C447 C 0.3196 0.92286 0.94179 0.0
C448 C 0.3008 0.92096 0.93001 0.0
C449 C 0.29718 0.93726 0.9366 0.0
C450 C 0.31231 0.95548 0.95518 0.0
C451 C 0.41611 0.0578 0.92596 0.0
C452 C 0.408 0.07081 0.91903 0.0
C453 C 0.40366 0.03804 0.94171 0.0
C454 C 0.38295 0.03104 0.951 0.0
C455 C 0.3742 0.04298 0.93897 0.0
C456 C 0.38671 0.06283 0.92294 0.0
C457 C 0.37184 0.01313 0.97958 0.0
C458 C 0.35557 0.99486 0.96354 0.0
C459 C 0.37879 0.0137 0.0218 0.0
C460 C 0.39531 0.03299 0.04087 0.0
C461 C 0.39337 0.05064 0.0426 0.0
C462 C 0.40932 0.06901 0.0589 0.0
C463 C 0.42721 0.06988 0.074 0.0
C464 C 0.42916 0.05235 0.07297 0.0
C465 C 0.41328 0.03395 0.05655 0.0
H466 H 0.43956 0.08412 0.08654 0.0
H467 H 0.28906 0.90688 0.91564 0.0
H468 H 0.1802 0.47604 0.88837 0.0
H469 H 0.19861 0.47122 0.94714 0.0
H470 H 0.17383 0.40784 0.91112 0.0
H471 H 0.15481 0.41243 0.85279 0.0
H472 H 0.17351 0.4106 0.99463 0.0
H473 H 0.22453 0.44602 0.88688 0.0
H474 H 0.2443 0.47351 0.83485 0.0
H475 H 0.2659 0.51823 0.93543 0.0
H476 H 0.24603 0.49104 0.98801 0.0
H477 H 0.24243 0.39418 0.12097 0.0
H478 H 0.22383 0.3979 0.06096 0.0
H479 H 0.24722 0.46141 0.09403 0.0
H480 H 0.26633 0.45794 0.15347 0.0
H481 H 0.24836 0.45794 0.01087 0.0
H482 H 0.1968 0.42245 0.11839 0.0
H483 H 0.17702 0.39489 0.17027 0.0
H484 H 0.15655 0.35015 0.06979 0.0
H485 H 0.17642 0.37743 0.01738 0.0
C486 C 0.1786 0.46104 0.89292 0.0
C487 C 0.16609 0.44465 0.86559 0.0
C488 C 0.18927 0.45833 0.92651 0.0
C489 C 0.18803 0.43927 0.93323 0.0
C490 C 0.17517 0.42274 0.90659 0.0
C491 C 0.16429 0.42539 0.87317 0.0
C492 C 0.20016 0.43665 0.96797 0.0
C493 C 0.18993 0.42078 0.99776 0.0
C494 C 0.22156 0.45015 0.97284 0.0
C495 C 0.23365 0.46651 0.94132 0.0
C496 C 0.23339 0.46173 0.89786 0.0
C497 C 0.24463 0.47726 0.86828 0.0
C498 C 0.25631 0.49761 0.88181 0.0
C499 C 0.25682 0.50246 0.92499 0.0
C500 C 0.2456 0.487 0.9547 0.0
C501 C 0.24368 0.40897 0.11546 0.0
C502 C 0.25584 0.42573 0.14228 0.0
C503 C 0.23291 0.41105 0.08119 0.0
C504 C 0.23375 0.42985 0.07323 0.0
C505 C 0.24622 0.44672 0.09945 0.0
C506 C 0.25714 0.4447 0.13354 0.0
C507 C 0.22169 0.43197 0.03767 0.0
C508 C 0.23194 0.44774 0.0077 0.0
C509 C 0.20032 0.41836 0.03262 0.0
C510 C 0.18825 0.40196 0.06404 0.0
C511 C 0.18819 0.40672 0.10741 0.0
C512 C 0.17695 0.39115 0.13691 0.0
C513 C 0.16558 0.37077 0.12336 0.0
C514 C 0.16538 0.36593 0.08026 0.0
C515 C 0.17661 0.38145 0.05064 0.0
H516 H 0.15689 0.35874 0.14624 0.0
H517 H 0.265 0.5096 0.85886 0.0
H518 H 0.80295 0.29065 0.4354 0.0
H519 H 0.7837 0.26616 0.379 0.0
H520 H 0.80139 0.22396 0.42967 0.0
H521 H 0.82077 0.24848 0.48659 0.0
H522 H 0.8054 0.22788 0.34116 0.0
H523 H 0.75397 0.21478 0.4464 0.0
H524 H 0.73449 0.22387 0.49662 0.0
H525 H 0.71471 0.24719 0.39318 0.0
H526 H 0.73432 0.23852 0.34238 0.0
H527 H 0.73605 0.14356 0.2132 0.0
H528 H 0.75478 0.16578 0.27319 0.0
H529 H 0.73314 0.20721 0.23833 0.0
H530 H 0.71391 0.18475 0.17887 0.0
H531 H 0.73108 0.20259 0.32124 0.0
H532 H 0.78316 0.21742 0.21637 0.0
H533 H 0.80319 0.20953 0.16515 0.0
H534 H 0.82232 0.18431 0.26614 0.0
H535 H 0.80217 0.19181 0.3179 0.0
C536 C 0.8028 0.27618 0.43467 0.0
C537 C 0.8134 0.27154 0.46569 0.0
C538 C 0.79169 0.26214 0.40242 0.0
C539 C 0.79092 0.24312 0.40028 0.0
C540 C 0.80173 0.23852 0.43075 0.0
C541 C 0.81275 0.25253 0.46333 0.0
C542 C 0.77885 0.22818 0.36606 0.0
C543 C 0.78908 0.22207 0.33719 0.0
C544 C 0.75766 0.22101 0.36018 0.0
C545 C 0.74577 0.22616 0.39063 0.0
C546 C 0.7456 0.222 0.4344 0.0
C547 C 0.73451 0.22705 0.46297 0.0
C548 C 0.72341 0.23615 0.44812 0.0
C549 C 0.72334 0.24017 0.40465 0.0
C550 C 0.73442 0.23517 0.37594 0.0
C551 C 0.73524 0.15739 0.21825 0.0
C552 C 0.72351 0.16238 0.19101 0.0
C553 C 0.74608 0.17017 0.25253 0.0
C554 C 0.7457 0.18841 0.26006 0.0
C555 C 0.73375 0.19327 0.23325 0.0
C556 C 0.72278 0.18041 0.19914 0.0
C557 C 0.75763 0.20235 0.29595 0.0
C558 C 0.74738 0.20829 0.3252 0.0
C559 C 0.77884 0.2095 0.30196 0.0
C560 C 0.79098 0.20498 0.27092 0.0
C561 C 0.79151 0.21005 0.22759 0.0
C562 C 0.8029 0.20567 0.19848 0.0
C563 C 0.81397 0.19637 0.21236 0.0
C564 C 0.81371 0.19148 0.25542 0.0
C565 C 0.80231 0.1958 0.28466 0.0
H566 H 0.82279 0.19299 0.18977 0.0
H567 H 0.71483 0.24004 0.47029 0.0
H568 H 0.59272 0.82913 0.81211 0.0
H569 H 0.58862 0.80737 0.75074 0.0
H570 H 0.52504 0.79106 0.74044 0.0
H571 H 0.52896 0.81266 0.80226 0.0
H572 H 0.52917 0.75775 0.73113 0.0
H573 H 0.56113 0.82536 0.67161 0.0
H574 H 0.58725 0.86195 0.66536 0.0
H575 H 0.63398 0.84589 0.64473 0.0
H576 H 0.60817 0.80918 0.65145 0.0
H577 H 0.51053 0.71769 0.51982 0.0
H578 H 0.51502 0.73762 0.58452 0.0
H579 H 0.5777 0.7509 0.59426 0.0
H580 H 0.57333 0.73094 0.52929 0.0
H581 H 0.57454 0.78537 0.60458 0.0
H582 H 0.54201 0.71747 0.66219 0.0
H583 H 0.51556 0.68096 0.66769 0.0
H584 H 0.46951 0.6977 0.69103 0.0
H585 H 0.49564 0.73433 0.68507 0.0
C586 C 0.57785 0.82095 0.79683 0.0
C587 C 0.56119 0.82274 0.81214 0.0
C588 C 0.57554 0.80855 0.76155 0.0
C589 C 0.55657 0.7977 0.74054 0.0
C590 C 0.53984 0.79927 0.75602 0.0
C591 C 0.54213 0.8117 0.79132 0.0
C592 C 0.55417 0.78468 0.70261 0.0
C593 C 0.53892 0.76387 0.70325 0.0
C594 C 0.56719 0.79247 0.66652 0.0
C595 C 0.58275 0.81453 0.66249 0.0
C596 C 0.57701 0.82963 0.66611 0.0
C597 C 0.59175 0.8504 0.66241 0.0
C598 C 0.61227 0.85624 0.65477 0.0
C599 C 0.61808 0.84133 0.65071 0.0
C600 C 0.6034 0.82055 0.65444 0.0
C601 C 0.52524 0.72469 0.53585 0.0
C602 C 0.54156 0.72266 0.51929 0.0
C603 C 0.52776 0.73605 0.57299 0.0
C604 C 0.54666 0.74569 0.59451 0.0
C605 C 0.56297 0.74359 0.57826 0.0
C606 C 0.56041 0.73209 0.54122 0.0
C607 C 0.54953 0.75847 0.63309 0.0
C608 C 0.56484 0.77924 0.63254 0.0
C609 C 0.53652 0.75066 0.66918 0.0
C610 C 0.52076 0.72864 0.67277 0.0
C611 C 0.52621 0.71336 0.66813 0.0
C612 C 0.51128 0.69264 0.6714 0.0
C613 C 0.49086 0.68701 0.67959 0.0
C614 C 0.48533 0.70209 0.68463 0.0
C615 C 0.5002 0.72283 0.68135 0.0
H616 H 0.47932 0.67096 0.68213 0.0
H617 H 0.62366 0.87233 0.6519 0.0
H618 H 0.75023 0.55671 0.17727 0.0
H619 H 0.77123 0.55728 0.11734 0.0
H620 H 0.72788 0.55873 0.02943 0.0
H621 H 0.70647 0.5577 0.08944 0.0
H622 H 0.73914 0.53267 0.00179 0.0
H623 H 0.77516 0.60204 0.05038 0.0
H624 H 0.79207 0.63013 0.1026 0.0
H625 H 0.83617 0.61129 0.13032 0.0
H626 H 0.81935 0.5829 0.07867 0.0
H627 H 0.80622 0.55561 0.82269 0.0
H628 H 0.78496 0.55853 0.8785 0.0
H629 H 0.82255 0.55261 0.97489 0.0
H630 H 0.84388 0.54977 0.91945 0.0
H631 H 0.81379 0.58263 0.99517 0.0
H632 H 0.77625 0.51217 0.9486 0.0
H633 H 0.75923 0.48435 0.89582 0.0
H634 H 0.71791 0.50608 0.86323 0.0
H635 H 0.73487 0.53422 0.91544 0.0
C636 C 0.74514 0.55723 0.14523 0.0
C637 C 0.72664 0.55724 0.1383 0.0
C638 C 0.75726 0.55766 0.11088 0.0
C639 C 0.75136 0.55837 0.06868 0.0
C640 C 0.73283 0.55825 0.06162 0.0
C641 C 0.72062 0.55772 0.09602 0.0
C642 C 0.76435 0.5588 0.0321 0.0
C643 C 0.75539 0.54384 2e-05 0.0
C644 C 0.78567 0.57312 0.02991 0.0
C645 C 0.79588 0.59023 0.0609 0.0
C646 C 0.78837 0.60379 0.06783 0.0
C647 C 0.79796 0.61979 0.0973 0.0
C648 C 0.81515 0.62247 0.11983 0.0
C649 C 0.82283 0.60918 0.11287 0.0
C650 C 0.81329 0.59315 0.08347 0.0
C651 C 0.81004 0.55504 0.85576 0.0
C652 C 0.82674 0.55237 0.86651 0.0
C653 C 0.7978 0.55662 0.88767 0.0
C654 C 0.802 0.55558 0.93099 0.0
C655 C 0.81897 0.55344 0.94175 0.0
C656 C 0.83113 0.55175 0.90993 0.0
C657 C 0.78861 0.5564 0.96522 0.0
C658 C 0.79751 0.57158 0.99684 0.0
C659 C 0.76723 0.54236 0.96686 0.0
C660 C 0.75698 0.52543 0.93557 0.0
C661 C 0.76364 0.51111 0.92992 0.0
C662 C 0.75399 0.49527 0.90016 0.0
C663 C 0.73754 0.49348 0.87609 0.0
C664 C 0.73067 0.50751 0.88183 0.0
C665 C 0.7403 0.5234 0.91152 0.0
H666 H 0.73008 0.4812 0.85307 0.0
H667 H 0.82255 0.63486 0.14263 0.0
H668 H 0.1833 0.72049 0.49096 0.0
H669 H 0.20604 0.73863 0.43093 0.0
H670 H 0.16549 0.76067 0.39193 0.0
H671 H 0.14268 0.74261 0.45184 0.0
H672 H 0.17886 0.74739 0.32355 0.0
H673 H 0.20867 0.79202 0.44409 0.0
H674 H 0.22254 0.80116 0.51704 0.0
H675 H 0.26955 0.78673 0.48571 0.0
H676 H 0.25577 0.77721 0.41269 0.0
H677 H 0.2474 0.82471 0.17978 0.0
H678 H 0.22385 0.8064 0.23859 0.0
H679 H 0.26624 0.78833 0.2867 0.0
H680 H 0.28998 0.8069 0.22865 0.0
H681 H 0.25155 0.79968 0.3506 0.0
H682 H 0.222 0.75468 0.23086 0.0
H683 H 0.20817 0.74489 0.158 0.0
H684 H 0.16087 0.75915 0.18753 0.0
H685 H 0.17459 0.76929 0.26044 0.0
C686 C 0.17914 0.72909 0.4695 0.0
C687 C 0.16117 0.73013 0.47641 0.0
C688 C 0.19222 0.73954 0.43526 0.0
C689 C 0.18761 0.75121 0.40708 0.0
C690 C 0.16941 0.75181 0.41323 0.0
C691 C 0.1564 0.74151 0.44763 0.0
C692 C 0.20191 0.76306 0.37167 0.0
C693 C 0.19469 0.75901 0.32949 0.0
C694 C 0.2227 0.77793 0.37923 0.0
C695 C 0.23105 0.7837 0.42306 0.0
C696 C 0.22186 0.79063 0.45286 0.0
C697 C 0.22972 0.79591 0.4942 0.0
C698 C 0.24688 0.79447 0.50604 0.0
C699 C 0.25624 0.78781 0.47651 0.0
C700 C 0.24842 0.78248 0.43514 0.0
C701 C 0.25174 0.81688 0.20292 0.0
C702 C 0.2706 0.81727 0.1993 0.0
C703 C 0.23819 0.8063 0.23647 0.0
C704 C 0.24308 0.79569 0.26694 0.0
C705 C 0.26204 0.79634 0.26369 0.0
C706 C 0.27561 0.80696 0.23031 0.0
C707 C 0.22857 0.78397 0.30229 0.0
C708 C 0.23574 0.78806 0.34454 0.0
C709 C 0.20776 0.76906 0.29474 0.0
C710 C 0.19946 0.76295 0.25096 0.0
C711 C 0.20875 0.75588 0.22171 0.0
C712 C 0.20091 0.75025 0.18042 0.0
C713 C 0.18369 0.75146 0.1681 0.0
C714 C 0.17423 0.75825 0.19709 0.0
C715 C 0.18202 0.76393 0.23841 0.0
H716 H 0.17764 0.74708 0.13613 0.0
H717 H 0.25295 0.79857 0.53806 0.0
H718 H 0.47766 0.19903 0.79265 0.0
H719 H 0.47337 0.21629 0.73101 0.0
H720 H 0.4079 0.17524 0.73509 0.0
H721 H 0.41218 0.15743 0.79622 0.0
H722 H 0.42044 0.18112 0.65542 0.0
H723 H 0.43126 0.22598 0.77365 0.0
H724 H 0.44932 0.24677 0.83674 0.0
H725 H 0.50266 0.2839 0.76034 0.0
H726 H 0.48501 0.26317 0.69688 0.0
H727 H 0.39631 0.23952 0.51407 0.0
H728 H 0.3989 0.22233 0.57787 0.0
H729 H 0.46461 0.26219 0.57835 0.0
H730 H 0.46203 0.27988 0.51525 0.0
H731 H 0.45089 0.25675 0.6568 0.0
H732 H 0.4404 0.21131 0.53909 0.0
H733 H 0.4224 0.19049 0.47599 0.0
H734 H 0.36843 0.15443 0.55152 0.0
H735 H 0.38603 0.17522 0.61497 0.0
C736 C 0.46233 0.1936 0.78043 0.0
C737 C 0.44525 0.17689 0.79963 0.0
C738 C 0.45988 0.2036 0.74524 0.0
C739 C 0.44026 0.19742 0.72878 0.0
C740 C 0.4232 0.18041 0.74724 0.0
C741 C 0.42567 0.17024 0.78225 0.0
C742 C 0.43759 0.20869 0.69237 0.0
C743 C 0.42684 0.19762 0.65604 0.0
C744 C 0.44629 0.23031 0.69255 0.0
C745 C 0.45687 0.24291 0.7306 0.0
C746 C 0.44689 0.2385 0.77036 0.0
C747 C 0.45704 0.25028 0.80618 0.0
C748 C 0.47714 0.26661 0.80257 0.0
C749 C 0.4871 0.27123 0.7631 0.0
C750 C 0.47702 0.25949 0.72719 0.0
C751 C 0.41131 0.24474 0.52789 0.0
C752 C 0.42898 0.26103 0.50932 0.0
C753 C 0.41279 0.23479 0.5643 0.0
C754 C 0.43201 0.24061 0.58258 0.0
C755 C 0.4496 0.2573 0.56485 0.0
C756 C 0.44811 0.26742 0.52869 0.0
C757 C 0.43384 0.2292 0.61975 0.0
C758 C 0.44443 0.24024 0.65623 0.0
C759 C 0.425 0.20755 0.61971 0.0
C760 C 0.41447 0.19494 0.58167 0.0
C761 C 0.42465 0.19903 0.54217 0.0
C762 C 0.41452 0.18722 0.50635 0.0
C763 C 0.39427 0.17119 0.50972 0.0
C764 C 0.38411 0.16688 0.54895 0.0
C765 C 0.39416 0.17865 0.58485 0.0
H766 H 0.38645 0.16207 0.48195 0.0
H767 H 0.48498 0.27571 0.83034 0.0
H768 H 0.16926 0.42117 0.67461 0.0
H769 H 0.18779 0.41429 0.61856 0.0
H770 H 0.18438 0.45871 0.5372 0.0
H771 H 0.16582 0.46554 0.59261 0.0
H772 H 0.17022 0.42216 0.49749 0.0
H773 H 0.22941 0.46844 0.58071 0.0
H774 H 0.2504 0.48085 0.64596 0.0
H775 H 0.25221 0.42478 0.6539 0.0
H776 H 0.23099 0.41192 0.58897 0.0
H777 H 0.24234 0.43822 0.33361 0.0
H778 H 0.21973 0.43825 0.38969 0.0
H779 H 0.22905 0.39477 0.46196 0.0
H780 H 0.25197 0.39502 0.4065 0.0
H781 H 0.23852 0.42749 0.50822 0.0
H782 H 0.18159 0.38214 0.42182 0.0
H783 H 0.16076 0.36973 0.35639 0.0
H784 H 0.15444 0.42339 0.35418 0.0
H785 H 0.17549 0.43629 0.41928 0.0
C786 C 0.1729 0.42981 0.64517 0.0
C787 C 0.16595 0.44376 0.63785 0.0
C788 C 0.18341 0.42581 0.61313 0.0
C789 C 0.18725 0.43586 0.57362 0.0
C790 C 0.18134 0.45063 0.56728 0.0
C791 C 0.17083 0.45458 0.59909 0.0
C792 C 0.19638 0.4303 0.53785 0.0
C793 C 0.18525 0.4235 0.49961 0.0
C794 C 0.21564 0.43141 0.54126 0.0
C795 C 0.22841 0.43913 0.58026 0.0
C796 C 0.23413 0.45868 0.59658 0.0
C797 C 0.2461 0.46581 0.63346 0.0
C798 C 0.25258 0.45358 0.65414 0.0
C799 C 0.24715 0.43422 0.63789 0.0
C800 C 0.23516 0.42701 0.60104 0.0
C801 C 0.23902 0.42816 0.36078 0.0
C802 C 0.24908 0.41681 0.36597 0.0
C803 C 0.22611 0.42819 0.39286 0.0
C804 C 0.22283 0.41661 0.43017 0.0
C805 C 0.23153 0.40395 0.43363 0.0
C806 C 0.24454 0.40406 0.40183 0.0
C807 C 0.21249 0.41958 0.46748 0.0
C808 C 0.22339 0.42591 0.50609 0.0
C809 C 0.19299 0.41799 0.46441 0.0
C810 C 0.18027 0.41026 0.42528 0.0
C811 C 0.1759 0.39138 0.40721 0.0
C812 C 0.16403 0.38424 0.37021 0.0
C813 C 0.15632 0.39579 0.35109 0.0
C814 C 0.16043 0.41447 0.369 0.0
C815 C 0.17231 0.42169 0.406 0.0
H816 H 0.14714 0.39023 0.32244 0.0
H817 H 0.26185 0.45913 0.68268 0.0
H818 H 0.80769 0.248 0.66268 0.0
H819 H 0.78684 0.22332 0.71775 0.0
H820 H 0.82014 0.26837 0.81515 0.0
H821 H 0.84122 0.293 0.7606 0.0
H822 H 0.81271 0.23055 0.83885 0.0
H823 H 0.77457 0.26097 0.78217 0.0
H824 H 0.75884 0.27115 0.72526 0.0
H825 H 0.72082 0.20804 0.6892 0.0
H826 H 0.73654 0.19751 0.74558 0.0
H827 H 0.737 0.18576 0.00541 0.0
H828 H 0.7624 0.20876 0.95319 0.0
H829 H 0.72958 0.16521 0.85304 0.0
H830 H 0.70418 0.14246 0.90436 0.0
H831 H 0.73744 0.20265 0.83166 0.0
H832 H 0.77516 0.17217 0.89035 0.0
H833 H 0.79096 0.16235 0.94775 0.0
H834 H 0.82961 0.22572 0.98109 0.0
H835 H 0.81383 0.23591 0.92422 0.0
C836 C 0.81069 0.25259 0.69579 0.0
C837 C 0.82596 0.27252 0.7072 0.0
C838 C 0.79876 0.2385 0.72722 0.0
C839 C 0.80182 0.24416 0.77044 0.0
C840 C 0.81755 0.26374 0.78198 0.0
C841 C 0.82949 0.2778 0.75066 0.0
C842 C 0.78791 0.2301 0.80353 0.0
C843 C 0.79626 0.22457 0.83758 0.0
C844 C 0.76647 0.22219 0.8015 0.0
C845 C 0.75687 0.22848 0.76781 0.0
C846 C 0.76296 0.24928 0.76191 0.0
C847 C 0.75403 0.25511 0.72978 0.0
C848 C 0.73888 0.24026 0.70356 0.0
C849 C 0.73258 0.21953 0.7095 0.0
C850 C 0.74148 0.21362 0.74156 0.0
C851 C 0.73533 0.18106 0.97231 0.0
C852 C 0.7185 0.16239 0.95897 0.0
C853 C 0.74987 0.19415 0.94258 0.0
C854 C 0.74785 0.18863 0.89929 0.0
C855 C 0.73135 0.16979 0.88625 0.0
C856 C 0.71684 0.15681 0.91571 0.0
C857 C 0.76216 0.20282 0.86684 0.0
C858 C 0.75387 0.20852 0.83295 0.0
C859 C 0.78362 0.21088 0.86919 0.0
C860 C 0.79316 0.20478 0.90331 0.0
C861 C 0.7869 0.184 0.91015 0.0
C862 C 0.79588 0.17837 0.94255 0.0
C863 C 0.81124 0.19339 0.96813 0.0
C864 C 0.81769 0.21409 0.96129 0.0
C865 C 0.80875 0.21981 0.92896 0.0
H866 H 0.81817 0.189 0.99319 0.0
H867 H 0.73198 0.2448 0.67869 0.0
H868 H 0.55267 0.81164 0.00892 0.0
H869 H 0.55268 0.79438 0.0749 0.0
H870 H 0.59525 0.85263 0.13142 0.0
H871 H 0.59526 0.8701 0.06563 0.0
H872 H 0.60029 0.81641 0.15369 0.0
H873 H 0.55099 0.83993 0.15317 0.0
H874 H 0.52372 0.8442 0.11948 0.0
H875 H 0.48521 0.7788 0.11147 0.0
H876 H 0.51237 0.77415 0.14462 0.0
H877 H 0.57263 0.76184 0.3486 0.0
H878 H 0.57871 0.79099 0.30321 0.0
H879 H 0.53008 0.74964 0.21917 0.0
H880 H 0.52379 0.72091 0.26439 0.0
H881 H 0.53132 0.78509 0.22091 0.0
H882 H 0.58061 0.76102 0.20565 0.0
H883 H 0.60759 0.75426 0.23207 0.0
H884 H 0.6454 0.81791 0.26432 0.0
H885 H 0.61849 0.82497 0.23852 0.0
C886 C 0.56257 0.82073 0.03481 0.0
C887 C 0.57371 0.84222 0.03241 0.0
C888 C 0.56248 0.81086 0.07252 0.0
C889 C 0.57367 0.82236 0.10802 0.0
C890 C 0.58645 0.84359 0.10431 0.0
C891 C 0.58639 0.8535 0.06676 0.0
C892 C 0.56993 0.81242 0.15009 0.0
C893 C 0.58539 0.80993 0.16903 0.0
C894 C 0.55043 0.80396 0.16967 0.0
C895 C 0.53377 0.8067 0.15117 0.0
C896 C 0.53674 0.82646 0.14408 0.0
C897 C 0.52129 0.82895 0.1251 0.0
C898 C 0.50274 0.81179 0.11332 0.0
C899 C 0.49957 0.79209 0.12068 0.0
C900 C 0.51497 0.78952 0.13963 0.0
C901 C 0.56281 0.75919 0.32127 0.0
C902 C 0.54798 0.73917 0.30946 0.0
C903 C 0.56638 0.77578 0.29523 0.0
C904 C 0.55514 0.77239 0.25732 0.0
C905 C 0.53901 0.75264 0.2481 0.0
C906 C 0.53549 0.73619 0.27388 0.0
C907 C 0.56147 0.78837 0.22405 0.0
C908 C 0.54647 0.79209 0.20653 0.0
C909 C 0.5813 0.79767 0.20542 0.0
C910 C 0.59747 0.79346 0.22073 0.0
C911 C 0.59463 0.77353 0.21864 0.0
C912 C 0.6099 0.76965 0.23346 0.0
C913 C 0.62817 0.78563 0.25 0.0
C914 C 0.63122 0.80554 0.25162 0.0
C915 C 0.61597 0.80949 0.23692 0.0
H916 H 0.63998 0.78261 0.26145 0.0
H917 H 0.49084 0.81376 0.09848 0.0
H918 H 0.76924 0.57607 0.31749 0.0
H919 H 0.80076 0.58542 0.3575 0.0
H920 H 0.77316 0.59368 0.47108 0.0
H921 H 0.74229 0.58518 0.43146 0.0
H922 H 0.81279 0.6194 0.47301 0.0
H923 H 0.76817 0.54591 0.44246 0.0
H924 H 0.75081 0.51627 0.39384 0.0
H925 H 0.80884 0.5311 0.33818 0.0
H926 H 0.8265 0.56096 0.38626 0.0
H927 H 0.82639 0.57199 0.6536 0.0
H928 H 0.81665 0.58513 0.59195 0.0
H929 H 0.86116 0.57967 0.51447 0.0
H930 H 0.87092 0.56645 0.57565 0.0
H931 H 0.82342 0.55948 0.48066 0.0
H932 H 0.86753 0.62636 0.53319 0.0
H933 H 0.88298 0.65402 0.58664 0.0
H934 H 0.82476 0.65063 0.60554 0.0
H935 H 0.80885 0.62269 0.55275 0.0
C936 C 0.77015 0.58039 0.35071 0.0
C937 C 0.75311 0.5794 0.37157 0.0
C938 C 0.78814 0.58571 0.37353 0.0
C939 C 0.78914 0.58982 0.41751 0.0
C940 C 0.77277 0.59052 0.43725 0.0
C941 C 0.75498 0.58542 0.41455 0.0
C942 C 0.8055 0.5904 0.44485 0.0
C943 C 0.8153 0.60641 0.47458 0.0
C944 C 0.80917 0.57369 0.44619 0.0
C945 C 0.79859 0.55576 0.41746 0.0
C946 C 0.77719 0.54288 0.41967 0.0
C947 C 0.76731 0.52606 0.39225 0.0
C948 C 0.77871 0.52185 0.36283 0.0
C949 C 0.80003 0.53442 0.36089 0.0
C950 C 0.80998 0.55129 0.38819 0.0
C951 C 0.83434 0.57391 0.62364 0.0
C952 C 0.84917 0.56786 0.61936 0.0
C953 C 0.82889 0.58158 0.58851 0.0
C954 C 0.83827 0.58345 0.5487 0.0
C955 C 0.85377 0.57836 0.54492 0.0
C956 C 0.85923 0.57071 0.57993 0.0
C957 C 0.82994 0.588 0.51015 0.0
C958 C 0.82164 0.57291 0.47833 0.0
C959 C 0.82745 0.6054 0.50742 0.0
C960 C 0.83697 0.62235 0.53902 0.0
C961 C 0.85797 0.63141 0.54891 0.0
C962 C 0.86682 0.64716 0.57909 0.0
C963 C 0.85486 0.65408 0.59948 0.0
C964 C 0.83402 0.64527 0.58969 0.0
C965 C 0.82508 0.62949 0.55957 0.0
H966 H 0.86174 0.66627 0.62284 0.0
H967 H 0.77103 0.50881 0.34163 0.0
H968 H 0.16142 0.71844 0.76192 0.0
H969 H 0.18066 0.74756 0.80862 0.0
H970 H 0.19589 0.78887 0.70207 0.0
H971 H 0.17619 0.7594 0.65424 0.0
H972 H 0.22943 0.79692 0.76073 0.0
H973 H 0.16256 0.78853 0.76363 0.0
H974 H 0.12475 0.76932 0.7667 0.0
H975 H 0.127 0.74718 0.89157 0.0
H976 H 0.16483 0.76598 0.88901 0.0
H977 H 0.27476 0.86876 0.92568 0.0
H978 H 0.25092 0.8532 0.8664 0.0
H979 H 0.21853 0.79659 0.93684 0.0
H980 H 0.24224 0.81214 0.99667 0.0
H981 H 0.19265 0.80389 0.88566 0.0
H982 H 0.25756 0.80441 0.87413 0.0
H983 H 0.29536 0.82146 0.87201 0.0
H984 H 0.29649 0.85686 0.76362 0.0
H985 H 0.25867 0.84019 0.76554 0.0
C986 C 0.16888 0.73366 0.74806 0.0
C987 C 0.16709 0.73662 0.70435 0.0
C988 C 0.1798 0.7503 0.77495 0.0
C989 C 0.18924 0.7703 0.75888 0.0
C990 C 0.18843 0.77346 0.71498 0.0
C991 C 0.17729 0.75667 0.68778 0.0
C992 C 0.19994 0.78752 0.789 0.0
C993 C 0.22139 0.79899 0.78734 0.0
C994 C 0.18936 0.78983 0.82403 0.0
C995 C 0.16657 0.77865 0.82605 0.0
C996 C 0.155 0.77947 0.79166 0.0
C997 C 0.13356 0.76866 0.79332 0.0
C998 C 0.12348 0.75703 0.8293 0.0
C999 C 0.13483 0.75621 0.86373 0.0
C1000 C 0.15628 0.76698 0.86223 0.0
C1001 C 0.26223 0.85316 0.92906 0.0
C1002 C 0.26058 0.84151 0.96549 0.0
C1003 C 0.24864 0.84432 0.89513 0.0
C1004 C 0.23329 0.82366 0.89696 0.0
C1005 C 0.23038 0.81257 0.93483 0.0
C1006 C 0.24394 0.82145 0.96896 0.0
C1007 C 0.22213 0.8128 0.85797 0.0
C1008 C 0.20064 0.80244 0.85821 0.0
C1009 C 0.23266 0.8114 0.82173 0.0
C1010 C 0.25535 0.82127 0.82032 0.0
C1011 C 0.26589 0.81594 0.85006 0.0
C1012 C 0.28731 0.82551 0.84887 0.0
C1013 C 0.29833 0.84028 0.81779 0.0
C1014 C 0.28794 0.84545 0.78775 0.0
C1015 C 0.26652 0.83595 0.78887 0.0
H1016 H 0.31491 0.84768 0.81691 0.0
H1017 H 0.10688 0.74866 0.83051 0.0
H1018 H 0.42895 0.18158 0.99649 0.0
H1019 H 0.428 0.19832 0.06252 0.0
H1020 H 0.3846 0.1397 0.1162 0.0
H1021 H 0.38563 0.12272 0.05039 0.0
H1022 H 0.38337 0.18058 0.14131 0.0
H1023 H 0.42412 0.14625 0.14038 0.0
H1024 H 0.44794 0.13734 0.10473 0.0
H1025 H 0.4929 0.20123 0.0939 0.0
H1026 H 0.46918 0.21052 0.12884 0.0
H1027 H 0.4171 0.23165 0.33871 0.0
H1028 H 0.4071 0.20184 0.29217 0.0
H1029 H 0.45809 0.23908 0.20889 0.0
H1030 H 0.46822 0.26849 0.25525 0.0
H1031 H 0.45076 0.20093 0.20822 0.0
H1032 H 0.41079 0.23591 0.19688 0.0
H1033 H 0.3878 0.24765 0.22555 0.0
H1034 H 0.34246 0.18544 0.25477 0.0
H1035 H 0.36534 0.17339 0.22675 0.0
C1036 C 0.41845 0.17232 0.02148 0.0
C1037 C 0.40767 0.15083 0.01871 0.0
C1038 C 0.41799 0.1819 0.05925 0.0
C1039 C 0.40652 0.17012 0.09419 0.0
C1040 C 0.39357 0.14896 0.08947 0.0
C1041 C 0.3942 0.13932 0.05189 0.0
C1042 C 0.41128 0.17933 0.13705 0.0
C1043 C 0.39784 0.18463 0.15664 0.0
C1044 C 0.43025 0.18463 0.15653 0.0
C1045 C 0.44482 0.17907 0.13693 0.0
C1046 C 0.43904 0.1584 0.13017 0.0
C1047 C 0.45252 0.15328 0.11012 0.0
C1048 C 0.47189 0.16872 0.09698 0.0
C1049 C 0.47787 0.18929 0.10408 0.0
C1050 C 0.46443 0.19449 0.12404 0.0
C1051 C 0.42659 0.23318 0.31137 0.0
C1052 C 0.44321 0.25238 0.30004 0.0
C1053 C 0.42078 0.21622 0.28467 0.0
C1054 C 0.43157 0.21842 0.24656 0.0
C1055 C 0.44946 0.23705 0.23796 0.0
C1056 C 0.4552 0.25389 0.26441 0.0
C1057 C 0.42308 0.20276 0.2124 0.0
C1058 C 0.4359 0.19626 0.19404 0.0
C1059 C 0.40364 0.19658 0.19385 0.0
C1060 C 0.38984 0.20379 0.21026 0.0
C1061 C 0.39596 0.22477 0.20966 0.0
C1062 C 0.38296 0.23147 0.22576 0.0
C1063 C 0.3637 0.21731 0.24209 0.0
C1064 C 0.35739 0.1964 0.24222 0.0
C1065 C 0.37037 0.18962 0.22625 0.0
H1066 H 0.35365 0.22253 0.25455 0.0
H1067 H 0.48228 0.16474 0.08136 0.0
H1068 H 0.33125 0.50387 0.35951 0.0
H1069 H 0.36229 0.53691 0.37224 0.0
H1070 H 0.3894 0.52886 0.25784 0.0
H1071 H 0.35801 0.49596 0.24426 0.0
H1072 H 0.41036 0.53279 0.34154 0.0
H1073 H 0.38201 0.56562 0.25476 0.0
H1074 H 0.35558 0.57422 0.23389 0.0
H1075 H 0.3598 0.60122 0.35687 0.0
H1076 H 0.38606 0.59251 0.37872 0.0
H1077 H 0.50557 0.62107 0.32633 0.0
H1078 H 0.47141 0.59186 0.31851 0.0
H1079 H 0.44859 0.61705 0.41354 0.0
H1080 H 0.48316 0.64717 0.42057 0.0
H1081 H 0.42383 0.6044 0.3463 0.0
H1082 H 0.45212 0.57369 0.43415 0.0
H1083 H 0.47752 0.56456 0.45976 0.0
H1084 H 0.47193 0.53242 0.34281 0.0
H1085 H 0.4467 0.54161 0.3162 0.0
C1086 C 0.34356 0.50954 0.33626 0.0
C1087 C 0.3423 0.49748 0.30085 0.0
C1088 C 0.36125 0.52835 0.34362 0.0
C1089 C 0.3781 0.53521 0.31608 0.0
C1090 C 0.37646 0.52378 0.27932 0.0
C1091 C 0.35853 0.50513 0.27142 0.0
C1092 C 0.39815 0.55274 0.32882 0.0
C1093 C 0.41348 0.54852 0.34198 0.0
C1094 C 0.40165 0.57298 0.33162 0.0
C1095 C 0.38584 0.57819 0.31854 0.0
C1096 C 0.37715 0.57319 0.27753 0.0
C1097 C 0.36224 0.57814 0.26547 0.0
C1098 C 0.35597 0.5882 0.29408 0.0
C1099 C 0.36464 0.59339 0.33477 0.0
C1100 C 0.37956 0.58847 0.34699 0.0
C1101 C 0.49341 0.62039 0.34613 0.0
C1102 C 0.49711 0.63653 0.37404 0.0
C1103 C 0.47383 0.60352 0.34175 0.0
C1104 C 0.4574 0.60208 0.36572 0.0
C1105 C 0.46106 0.61783 0.39477 0.0
C1106 C 0.48082 0.63492 0.39905 0.0
C1107 C 0.4364 0.58459 0.35801 0.0
C1108 C 0.42078 0.5887 0.34612 0.0
C1109 C 0.43243 0.5641 0.3572 0.0
C1110 C 0.44759 0.55847 0.37306 0.0
C1111 C 0.45641 0.5648 0.41375 0.0
C1112 C 0.47076 0.55959 0.42847 0.0
C1113 C 0.47636 0.54794 0.4029 0.0
C1114 C 0.46758 0.54145 0.36258 0.0
C1115 C 0.45322 0.54662 0.34769 0.0
H1116 H 0.48748 0.54393 0.41436 0.0
H1117 H 0.34442 0.59202 0.28468 0.0
H1118 H 0.8448 0.47108 0.76285 0.0
H1119 H 0.82973 0.43568 0.73857 0.0
H1120 H 0.78378 0.44193 0.66854 0.0
H1121 H 0.79906 0.47756 0.69287 0.0
H1122 H 0.79486 0.39822 0.72781 0.0
H1123 H 0.78616 0.42732 0.5673 0.0
H1124 H 0.79548 0.45983 0.5304 0.0
H1125 H 0.85065 0.49095 0.60482 0.0
H1126 H 0.84173 0.45858 0.64171 0.0
H1127 H 0.8024 0.32617 0.59558 0.0
H1128 H 0.78608 0.34682 0.61102 0.0
H1129 H 0.84491 0.40204 0.59943 0.0
H1130 H 0.86109 0.38156 0.58451 0.0
H1131 H 0.81383 0.40854 0.57445 0.0
H1132 H 0.83062 0.37664 0.69372 0.0
H1133 H 0.82642 0.34619 0.73229 0.0
H1134 H 0.76164 0.32345 0.74352 0.0
H1135 H 0.76547 0.35369 0.70451 0.0
C1136 C 0.8307 0.46447 0.74455 0.0
C1137 C 0.82298 0.4769 0.72991 0.0
C1138 C 0.82212 0.44424 0.73044 0.0
C1139 C 0.80589 0.43629 0.70098 0.0
C1140 C 0.79639 0.44781 0.69102 0.0
C1141 C 0.80499 0.4681 0.70529 0.0
C1142 C 0.80263 0.41863 0.67415 0.0
C1143 C 0.79836 0.4002 0.69398 0.0
C1144 C 0.80744 0.42123 0.63004 0.0
C1145 C 0.81315 0.44064 0.60752 0.0
C1146 C 0.80029 0.44111 0.57565 0.0
C1147 C 0.8055 0.4595 0.55476 0.0
C1148 C 0.82361 0.47746 0.56538 0.0
C1149 C 0.8366 0.47705 0.59672 0.0
C1150 C 0.83148 0.45869 0.61759 0.0
C1151 C 0.81158 0.34274 0.59425 0.0
C1152 C 0.83297 0.35236 0.58894 0.0
C1153 C 0.8023 0.3545 0.60344 0.0
C1154 C 0.81434 0.37595 0.60703 0.0
C1155 C 0.8353 0.38554 0.59681 0.0
C1156 C 0.84456 0.37384 0.58822 0.0
C1157 C 0.80655 0.38836 0.62833 0.0
C1158 C 0.809 0.40594 0.60758 0.0
C1159 C 0.8005 0.38515 0.67175 0.0
C1160 C 0.79828 0.36725 0.69587 0.0
C1161 C 0.81548 0.36509 0.7043 0.0
C1162 C 0.81317 0.34789 0.72621 0.0
C1163 C 0.79376 0.33286 0.74024 0.0
C1164 C 0.77665 0.33507 0.73255 0.0
C1165 C 0.77887 0.35223 0.71054 0.0
H1166 H 0.79199 0.31953 0.75714 0.0
H1167 H 0.82759 0.49169 0.54926 0.0
H1168 H 0.49464 0.85689 0.02898 0.0
H1169 H 0.45835 0.84301 0.04169 0.0
H1170 H 0.44471 0.816 0.91606 0.0
H1171 H 0.48168 0.83028 0.90256 0.0
H1172 H 0.42464 0.8368 0.93309 0.0
H1173 H 0.43241 0.78544 0.00431 0.0
H1174 H 0.44851 0.77151 0.05208 0.0
H1175 H 0.43799 0.80059 0.15936 0.0
H1176 H 0.42216 0.81502 0.11222 0.0
H1177 H 0.32424 0.80765 0.98288 0.0
H1178 H 0.35146 0.79958 0.96948 0.0
H1179 H 0.38169 0.83084 0.08555 0.0
H1180 H 0.35397 0.83831 0.09981 0.0
H1181 H 0.38993 0.7999 0.06599 0.0
H1182 H 0.39088 0.85746 0.99395 0.0
H1183 H 0.37598 0.8734 0.94835 0.0
H1184 H 0.37168 0.83426 0.84432 0.0
H1185 H 0.38628 0.81787 0.8896 0.0
C1186 C 0.48405 0.84795 0.00384 0.0
C1187 C 0.49115 0.8448 0.96453 0.0
C1188 C 0.46319 0.83979 0.01148 0.0
C1189 C 0.44875 0.8281 0.98023 0.0
C1190 C 0.45563 0.82481 0.94082 0.0
C1191 C 0.47671 0.833 0.93309 0.0
C1192 C 0.42673 0.82097 0.98832 0.0
C1193 C 0.41682 0.82817 0.96145 0.0
C1194 C 0.41671 0.81015 0.02598 0.0
C1195 C 0.4261 0.80136 0.05461 0.0
C1196 C 0.43362 0.78897 0.03805 0.0
C1197 C 0.4427 0.78097 0.06503 0.0
C1198 C 0.44423 0.78513 0.10872 0.0
C1199 C 0.43674 0.79734 0.12552 0.0
C1200 C 0.42768 0.80541 0.09868 0.0
C1201 C 0.33622 0.81198 0.00649 0.0
C1202 C 0.33716 0.82372 0.04219 0.0
C1203 C 0.35183 0.80747 -0.00132 0.0
C1204 C 0.3689 0.81514 0.02585 0.0
C1205 C 0.3687 0.82488 0.06403 0.0
C1206 C 0.35284 0.82909 0.07227 0.0
C1207 C 0.38816 0.81611 0.01119 0.0
C1208 C 0.39755 0.80792 0.03695 0.0
C1209 C 0.39787 0.8262 0.97271 0.0
C1210 C 0.38943 0.83628 0.94527 0.0
C1211 C 0.38665 0.85218 0.96142 0.0
C1212 C 0.37826 0.8613 0.93565 0.0
C1213 C 0.37283 0.85481 0.8935 0.0
C1214 C 0.37585 0.83924 0.87701 0.0
C1215 C 0.38418 0.83003 0.9027 0.0
H1216 H 0.36632 0.86187 0.8736 0.0
H1217 H 0.45122 0.7789 0.12958 0.0
H1218 H 0.66782 0.48012 0.35815 0.0
H1219 H 0.63555 0.44762 0.36469 0.0
H1220 H 0.61197 0.46298 0.25399 0.0
H1221 H 0.6445 0.49537 0.2467 0.0
H1222 H 0.59005 0.45753 0.33374 0.0
H1223 H 0.61624 0.42321 0.24621 0.0
H1224 H 0.64104 0.41244 0.22491 0.0
H1225 H 0.6325 0.38175 0.34491 0.0
H1226 H 0.60786 0.3926 0.36721 0.0
H1227 H 0.49185 0.37272 0.31337 0.0
H1228 H 0.52688 0.40063 0.3063 0.0
H1229 H 0.54658 0.37302 0.40207 0.0
H1230 H 0.51115 0.34433 0.40854 0.0
H1231 H 0.57157 0.38434 0.33427 0.0
H1232 H 0.54576 0.41746 0.42296 0.0
H1233 H 0.52174 0.42858 0.44801 0.0
H1234 H 0.53078 0.46237 0.33206 0.0
H1235 H 0.55464 0.45121 0.306 0.0
C1236 C 0.65607 0.47614 0.33414 0.0
C1237 C 0.6586 0.4902 0.30191 0.0
C1238 C 0.63764 0.45762 0.33799 0.0
C1239 C 0.62137 0.45302 0.31003 0.0
C1240 C 0.62441 0.4663 0.27583 0.0
C1241 C 0.64303 0.48468 0.27146 0.0
C1242 C 0.60049 0.43615 0.32044 0.0
C1243 C 0.58586 0.44148 0.33316 0.0
C1244 C 0.59549 0.41538 0.32184 0.0
C1245 C 0.61037 0.40892 0.30857 0.0
C1246 C 0.61981 0.41435 0.26825 0.0
C1247 C 0.6338 0.40819 0.25595 0.0
C1248 C 0.63839 0.39647 0.28359 0.0
C1249 C 0.62896 0.39085 0.32356 0.0
C1250 C 0.61496 0.39699 0.33603 0.0
C1251 C 0.50351 0.37263 0.33349 0.0
C1252 C 0.49869 0.35624 0.36151 0.0
C1253 C 0.52359 0.38872 0.32951 0.0
C1254 C 0.53939 0.38906 0.35385 0.0
C1255 C 0.53461 0.37307 0.38297 0.0
C1256 C 0.51436 0.35681 0.38695 0.0
C1257 C 0.5609 0.40567 0.34674 0.0
C1258 C 0.57572 0.40037 0.33496 0.0
C1259 C 0.56625 0.42658 0.34688 0.0
C1260 C 0.55189 0.43336 0.36239 0.0
C1261 C 0.54251 0.42713 0.40264 0.0
C1262 C 0.52894 0.43347 0.41705 0.0
C1263 C 0.5247 0.44614 0.39161 0.0
C1264 C 0.53407 0.45254 0.35172 0.0
C1265 C 0.54764 0.44624 0.33714 0.0
H1266 H 0.51419 0.45103 0.40282 0.0
H1267 H 0.64922 0.3917 0.27399 0.0
H1268 H 0.09561 0.61528 0.63831 0.0
H1269 H 0.09961 0.58685 0.66381 0.0
H1270 H 0.16547 0.62498 0.65685 0.0
H1271 H 0.16147 0.65347 0.62978 0.0
H1272 H 0.15267 0.5846 0.63684 0.0
H1273 H 0.14194 0.62068 0.75025 0.0
H1274 H 0.12447 0.63708 0.78559 0.0
H1275 H 0.06862 0.57904 0.79155 0.0
H1276 H 0.08566 0.56234 0.75561 0.0
H1277 H 0.15614 0.50746 0.75905 0.0
H1278 H 0.16249 0.54256 0.74918 0.0
H1279 H 0.0974 0.51904 0.73573 0.0
H1280 H 0.09109 0.48418 0.74522 0.0
H1281 H 0.11674 0.557 0.77462 0.0
H1282 H 0.12551 0.5231 0.65009 0.0
H1283 H 0.14164 0.50627 0.61118 0.0
H1284 H 0.20077 0.56027 0.62549 0.0
H1285 H 0.18497 0.5773 0.66511 0.0
C1286 C 0.11094 0.61743 0.64102 0.0
C1287 C 0.12824 0.63658 0.63234 0.0
C1288 C 0.11322 0.60124 0.65594 0.0
C1289 C 0.13284 0.60401 0.66356 0.0
C1290 C 0.15018 0.62259 0.65163 0.0
C1291 C 0.14789 0.6388 0.63594 0.0
C1292 C 0.13493 0.58797 0.68689 0.0
C1293 C 0.14524 0.57889 0.66743 0.0
C1294 C 0.12517 0.58045 0.72682 0.0
C1295 C 0.11507 0.59027 0.75008 0.0
C1296 C 0.12592 0.61141 0.75903 0.0
C1297 C 0.11609 0.62077 0.77912 0.0
C1298 C 0.09544 0.60912 0.79075 0.0
C1299 C 0.08462 0.58805 0.78253 0.0
C1300 C 0.09437 0.57862 0.76237 0.0
C1301 C 0.14318 0.50993 0.75596 0.0
C1302 C 0.12313 0.49318 0.75277 0.0
C1303 C 0.14682 0.52994 0.74987 0.0
C1304 C 0.13043 0.53335 0.74091 0.0
C1305 C 0.11028 0.51678 0.74245 0.0
C1306 C 0.10667 0.49686 0.74799 0.0
C1307 C 0.134 0.5533 0.72404 0.0
C1308 C 0.12469 0.56312 0.74467 0.0
C1309 C 0.14468 0.56148 0.68523 0.0
C1310 C 0.15412 0.55136 0.66099 0.0
C1311 C 0.14197 0.53132 0.64518 0.0
C1312 C 0.15104 0.52176 0.62299 0.0
C1313 C 0.17223 0.53217 0.61598 0.0
C1314 C 0.18437 0.5522 0.63104 0.0
C1315 C 0.17537 0.56182 0.65337 0.0
H1316 H 0.17923 0.52474 0.5988 0.0
H1317 H 0.08783 0.6164 0.80615 0.0
H1318 H 0.60297 0.11064 0.02643 0.0
H1319 H 0.57967 0.12401 0.01712 0.0
H1320 H 0.622 0.17946 0.0832 0.0
H1321 H 0.64592 0.16626 0.09209 0.0
H1322 H 0.56749 0.15013 0.09242 0.0
H1323 H 0.62882 0.19671 0.00847 0.0
H1324 H 0.65783 0.20277 0.96197 0.0
H1325 H 0.6159 0.15905 0.87159 0.0
H1326 H 0.58667 0.15252 0.91796 0.0
H1327 H 0.50182 0.18213 0.01182 0.0
H1328 H 0.53562 0.18824 0.0337 0.0
H1329 H 0.53539 0.15073 0.92919 0.0
H1330 H 0.50187 0.14522 0.9064 0.0
H1331 H 0.57381 0.17917 0.94738 0.0
H1332 H 0.51444 0.12959 0.02708 0.0
H1333 H 0.48325 0.11852 0.07048 0.0
H1334 H 0.51886 0.16288 0.16645 0.0
H1335 H 0.55023 0.17437 0.1233 0.0
C1336 C 0.60724 0.12553 0.03982 0.0
C1337 C 0.62641 0.1375 0.05959 0.0
C1338 C 0.59387 0.13312 0.03446 0.0
C1339 C 0.59929 0.15278 0.04892 0.0
C1340 C 0.61767 0.16426 0.07164 0.0
C1341 C 0.63123 0.15666 0.07693 0.0
C1342 C 0.58627 0.16148 0.03622 0.0
C1343 C 0.56921 0.15721 0.06142 0.0
C1344 C 0.58815 0.16988 0.99505 0.0
C1345 C 0.60562 0.17401 0.96682 0.0
C1346 C 0.62582 0.18827 0.97885 0.0
C1347 C 0.64229 0.19182 0.9525 0.0
C1348 C 0.63871 0.18126 0.9139 0.0
C1349 C 0.61865 0.1672 0.90152 0.0
C1350 C 0.60213 0.16359 0.9278 0.0
C1351 C 0.50939 0.17588 0.99258 0.0
C1352 C 0.49922 0.16303 0.95772 0.0
C1353 C 0.52863 0.17926 0.00525 0.0
C1354 C 0.53774 0.1694 0.98391 0.0
C1355 C 0.52859 0.15838 0.94635 0.0
C1356 C 0.50946 0.15529 0.93319 0.0
C1357 C 0.55497 0.16804 0.00373 0.0
C1358 C 0.57254 0.17314 0.97934 0.0
C1359 C 0.55338 0.16011 0.04551 0.0
C1360 C 0.53462 0.15297 0.07182 0.0
C1361 C 0.51559 0.13702 0.05737 0.0
C1362 C 0.49789 0.13067 0.08191 0.0
C1363 C 0.49907 0.14 0.12119 0.0
C1364 C 0.51797 0.15567 0.13602 0.0
C1365 C 0.53572 0.1621 0.11155 0.0
H1366 H 0.48535 0.1351 0.1401 0.0
H1367 H 0.65148 0.18402 0.89354 0.0
loop_
_geom_bond_atom_site_label_1
_geom_bond_atom_site_label_2
_geom_bond_distance
_geom_bond_site_symmetry_2
_ccdc_geom_bond_type
Zn0 O3 2.031 . S
Zn0 O5 2.049 . S
Zn0 O10 2.067 . S
Zn1 O2 1.962 . S
Zn1 O4 1.986 . S
Zn1 O6 1.996 . S
Zn1 O9 1.943 . S
O2 Zn1 1.962 . S
O2 C7 1.254 . S
O3 Zn0 2.031 . S
O3 C7 1.269 . S
O4 Zn1 1.986 . S
O4 C11 1.262 . S
O5 Zn0 2.049 . S
O5 C13 1.260 . S
O6 Zn1 1.996 . S
O6 C13 1.257 . S
C7 O2 1.254 . S
C7 O3 1.269 . S
C8 O9 1.249 . S
C8 O10 1.270 . S
O9 Zn1 1.943 . S
O9 C8 1.249 . S
O10 Zn0 2.067 . S
O10 C8 1.270 . S
C11 O4 1.262 . S
C11 O12 1.232 . S
O12 C11 1.232 . S
C13 O5 1.260 . S
C13 O6 1.257 . S
Zn14 O17 2.031 . S
Zn14 O19 2.049 . S
Zn14 O24 2.067 . S
Zn15 O16 1.962 . S
Zn15 O18 1.986 . S
Zn15 O20 1.996 . S
Zn15 O23 1.943 . S
O16 Zn15 1.962 . S
O16 C21 1.254 . S
O17 Zn14 2.031 . S
O17 C21 1.269 . S
O18 Zn15 1.986 . S
O18 C25 1.262 . S
O19 Zn14 2.049 . S
O19 C27 1.260 . S
O20 Zn15 1.996 . S
O20 C27 1.257 . S
C21 O16 1.254 . S
C21 O17 1.269 . S
C22 O23 1.249 . S
C22 O24 1.270 . S
O23 Zn15 1.943 . S
O23 C22 1.249 . S
O24 Zn14 2.067 . S
O24 C22 1.270 . S
C25 O18 1.262 . S
C25 O26 1.232 . S
O26 C25 1.232 . S
C27 O19 1.260 . S
C27 O20 1.257 . S
Zn28 O31 2.031 1_554 S
Zn28 O33 2.049 . S
Zn28 O38 2.067 . S
Zn29 O30 1.962 . S
Zn29 O32 1.986 . S
Zn29 O34 1.996 . S
Zn29 O37 1.943 . S
O30 Zn29 1.962 . S
O30 C35 1.254 . S
O31 Zn28 2.031 1_556 S
O31 C35 1.269 . S
O32 Zn29 1.986 . S
O32 C39 1.262 . S
O33 Zn28 2.049 . S
O33 C41 1.260 . S
O34 Zn29 1.996 . S
O34 C41 1.257 1_556 S
C35 O30 1.254 . S
C35 O31 1.269 . S
C36 O37 1.249 . S
C36 O38 1.270 1_556 S
O37 Zn29 1.943 . S
O37 C36 1.249 . S
O38 Zn28 2.067 . S
O38 C36 1.270 1_554 S
C39 O32 1.262 . S
C39 O40 1.232 . S
O40 C39 1.232 . S
C41 O33 1.260 . S
C41 O34 1.257 1_554 S
Zn42 O45 2.031 . S
Zn42 O47 2.049 . S
Zn42 O52 2.067 . S
Zn43 O44 1.962 . S
Zn43 O46 1.986 . S
Zn43 O48 1.996 . S
Zn43 O51 1.943 . S
O44 Zn43 1.962 . S
O44 C49 1.254 . S
O45 Zn42 2.031 . S
O45 C49 1.269 . S
O46 Zn43 1.986 . S
O46 C53 1.262 . S
O47 Zn42 2.049 . S
O47 C55 1.260 . S
O48 Zn43 1.996 . S
O48 C55 1.257 . S
C49 O44 1.254 . S
C49 O45 1.269 . S
C50 O51 1.249 . S
C50 O52 1.270 . S
O51 Zn43 1.943 . S
O51 C50 1.249 . S
O52 Zn42 2.067 . S
O52 C50 1.270 . S
C53 O46 1.262 . S
C53 O54 1.232 . S
O54 C53 1.232 . S
C55 O47 1.260 . S
C55 O48 1.257 . S
Zn56 O59 2.031 . S
Zn56 O61 2.049 . S
Zn56 O66 2.067 . S
Zn57 O58 1.962 . S
Zn57 O60 1.986 . S
Zn57 O62 1.996 . S
Zn57 O65 1.943 . S
O58 Zn57 1.962 . S
O58 C63 1.254 . S
O59 Zn56 2.031 . S
O59 C63 1.269 . S
O60 Zn57 1.986 . S
O60 C67 1.262 . S
O61 Zn56 2.049 . S
O61 C69 1.260 . S
O62 Zn57 1.996 . S
O62 C69 1.257 . S
C63 O58 1.254 . S
C63 O59 1.269 . S
C64 O65 1.249 . S
C64 O66 1.270 . S
O65 Zn57 1.943 . S
O65 C64 1.249 . S
O66 Zn56 2.067 . S
O66 C64 1.270 . S
C67 O60 1.262 . S
C67 O68 1.232 . S
O68 C67 1.232 . S
C69 O61 1.260 . S
C69 O62 1.257 . S
Zn70 O73 2.031 1_554 S
Zn70 O75 2.049 . S
Zn70 O80 2.067 . S
Zn71 O72 1.962 . S
Zn71 O74 1.986 . S
Zn71 O76 1.996 . S
Zn71 O79 1.943 . S
O72 Zn71 1.962 . S
O72 C77 1.254 . S
O73 Zn70 2.031 1_556 S
O73 C77 1.269 . S
O74 Zn71 1.986 . S
O74 C81 1.262 . S
O75 Zn70 2.049 . S
O75 C83 1.260 . S
O76 Zn71 1.996 . S
O76 C83 1.257 1_556 S
C77 O72 1.254 . S
C77 O73 1.269 . S
C78 O79 1.249 . S
C78 O80 1.270 1_556 S
O79 Zn71 1.943 . S
O79 C78 1.249 . S
O80 Zn70 2.067 . S
O80 C78 1.270 1_554 S
C81 O74 1.262 . S
C81 O82 1.232 . S
O82 C81 1.232 . S
C83 O75 1.260 . S
C83 O76 1.257 1_554 S
Zn84 O87 2.031 . S
Zn84 O89 2.049 . S
Zn84 O94 2.067 . S
Zn85 O86 1.962 . S
Zn85 O88 1.986 . S
Zn85 O90 1.996 . S
Zn85 O93 1.943 . S
O86 Zn85 1.962 . S
O86 C91 1.254 . S
O87 Zn84 2.031 . S
O87 C91 1.269 . S
O88 Zn85 1.986 . S
O88 C95 1.262 . S
O89 Zn84 2.049 . S
O89 C97 1.260 . S
O90 Zn85 1.996 . S
O90 C97 1.257 . S
C91 O86 1.254 . S
C91 O87 1.269 . S
C92 O93 1.249 . S
C92 O94 1.270 . S
O93 Zn85 1.943 . S
O93 C92 1.249 . S
O94 Zn84 2.067 . S
O94 C92 1.270 . S
C95 O88 1.262 . S
C95 O96 1.232 . S
O96 C95 1.232 . S
C97 O89 1.260 . S
C97 O90 1.257 . S
Zn98 O101 2.031 . S
Zn98 O103 2.049 . S
Zn98 O108 2.067 . S
Zn99 O100 1.962 . S
Zn99 O102 1.986 . S
Zn99 O104 1.996 . S
Zn99 O107 1.943 . S
O100 Zn99 1.962 . S
O100 C105 1.254 . S
O101 Zn98 2.031 . S
O101 C105 1.269 . S
O102 Zn99 1.986 . S
O102 C109 1.262 . S
O103 Zn98 2.049 . S
O103 C111 1.260 . S
O104 Zn99 1.996 . S
O104 C111 1.257 . S
C105 O100 1.254 . S
C105 O101 1.269 . S
C106 O107 1.249 . S
C106 O108 1.270 . S
O107 Zn99 1.943 . S
O107 C106 1.249 . S
O108 Zn98 2.067 . S
O108 C106 1.270 . S
C109 O102 1.262 . S
C109 O110 1.232 . S
O110 C109 1.232 . S
C111 O103 1.260 . S
C111 O104 1.257 . S
Zn112 O115 2.031 1_556 S
Zn112 O117 2.049 . S
Zn112 O122 2.067 . S
Zn113 O114 1.962 . S
Zn113 O116 1.986 . S
Zn113 O118 1.996 . S
Zn113 O121 1.943 . S
O114 Zn113 1.962 . S
O114 C119 1.254 . S
O115 Zn112 2.031 1_554 S
O115 C119 1.269 . S
O116 Zn113 1.986 . S
O116 C123 1.262 . S
O117 Zn112 2.049 . S
O117 C125 1.260 . S
O118 Zn113 1.996 . S
O118 C125 1.257 1_554 S
C119 O114 1.254 . S
C119 O115 1.269 . S
C120 O121 1.249 . S
C120 O122 1.270 1_554 S
O121 Zn113 1.943 . S
O121 C120 1.249 . S
O122 Zn112 2.067 . S
O122 C120 1.270 1_556 S
C123 O116 1.262 . S
C123 O124 1.232 . S
O124 C123 1.232 . S
C125 O117 1.260 . S
C125 O118 1.257 1_556 S
Zn126 O129 2.031 . S
Zn126 O131 2.049 . S
Zn126 O136 2.067 . S
Zn127 O128 1.962 . S
Zn127 O130 1.986 . S
Zn127 O132 1.996 . S
Zn127 O135 1.943 . S
O128 Zn127 1.962 . S
O128 C133 1.254 . S
O129 Zn126 2.031 . S
O129 C133 1.269 . S
O130 Zn127 1.986 . S
O130 C137 1.262 . S
O131 Zn126 2.049 . S
O131 C139 1.260 . S
O132 Zn127 1.996 . S
O132 C139 1.257 . S
C133 O128 1.254 . S
C133 O129 1.269 . S
C134 O135 1.249 . S
C134 O136 1.270 . S
O135 Zn127 1.943 . S
O135 C134 1.249 . S
O136 Zn126 2.067 . S
O136 C134 1.270 . S
C137 O130 1.262 . S
C137 O138 1.232 . S
O138 C137 1.232 . S
C139 O131 1.260 . S
C139 O132 1.257 . S
Zn140 O143 2.031 . S
Zn140 O145 2.049 . S
Zn140 O150 2.067 . S
Zn141 O142 1.962 . S
Zn141 O144 1.986 . S
Zn141 O146 1.996 . S
Zn141 O149 1.943 . S
O142 Zn141 1.962 . S
O142 C147 1.254 . S
O143 Zn140 2.031 . S
O143 C147 1.269 . S
O144 Zn141 1.986 . S
O144 C151 1.262 . S
O145 Zn140 2.049 . S
O145 C153 1.260 . S
O146 Zn141 1.996 . S
O146 C153 1.257 . S
C147 O142 1.254 . S
C147 O143 1.269 . S
C148 O149 1.249 . S
C148 O150 1.270 . S
O149 Zn141 1.943 . S
O149 C148 1.249 . S
O150 Zn140 2.067 . S
O150 C148 1.270 . S
C151 O144 1.262 . S
C151 O152 1.232 . S
O152 C151 1.232 . S
C153 O145 1.260 . S
C153 O146 1.257 . S
Zn154 O157 2.031 1_556 S
Zn154 O159 2.049 . S
Zn154 O164 2.067 . S
Zn155 O156 1.962 . S
Zn155 O158 1.986 . S
Zn155 O160 1.996 . S
Zn155 O163 1.943 . S
O156 Zn155 1.962 . S
O156 C161 1.254 . S
O157 Zn154 2.031 1_554 S
O157 C161 1.269 . S
O158 Zn155 1.986 . S
O158 C165 1.262 . S
O159 Zn154 2.049 . S
O159 C167 1.260 . S
O160 Zn155 1.996 . S
O160 C167 1.257 1_554 S
C161 O156 1.254 . S
C161 O157 1.269 . S
C162 O163 1.249 . S
C162 O164 1.270 1_554 S
O163 Zn155 1.943 . S
O163 C162 1.249 . S
O164 Zn154 2.067 . S
O164 C162 1.270 1_556 S
C165 O158 1.262 . S
C165 O166 1.232 . S
O166 C165 1.232 . S
C167 O159 1.260 . S
C167 O160 1.257 1_556 S
H168 C186 0.951 . S
H169 C188 0.951 . S
H170 C190 0.950 . S
H171 C191 0.950 . S
H172 C193 0.950 . S
H173 C196 0.950 . S
H174 C197 0.950 . S
H175 C199 0.950 . S
H176 C200 0.950 . S
H177 C201 0.951 . S
H178 C203 0.951 . S
H179 C205 0.950 . S
H180 C206 0.950 . S
H181 C208 0.950 . S
H182 C211 0.950 . S
H183 C212 0.950 . S
H184 C214 0.950 . S
H185 C215 0.950 . S
C186 H168 0.951 . S
C186 C187 1.366 . S
C186 C188 1.388 . S
C187 C186 1.366 . S
C187 C191 1.385 . S
C188 H169 0.951 . S
C188 C186 1.388 . S
C188 C189 1.366 . S
C189 C188 1.366 . S
C189 C190 1.414 . S
C189 C192 1.499 . S
C190 H170 0.950 . S
C190 C189 1.414 . S
C190 C191 1.374 . S
C191 H171 0.950 . S
C191 C187 1.385 . S
C191 C190 1.374 . S
C192 C189 1.499 . S
C192 C193 1.373 . S
C192 C194 1.389 . S
C193 H172 0.950 . S
C193 C192 1.373 . S
C193 C209 1.377 . S
C194 C192 1.389 . S
C194 C195 1.524 . S
C194 C208 1.377 . S
C195 C194 1.524 . S
C195 C196 1.397 . S
C195 C200 1.363 . S
C196 H173 0.950 . S
C196 C195 1.397 . S
C196 C197 1.334 . S
C197 H174 0.950 . S
C197 C196 1.334 . S
C197 C198 1.287 . S
C198 C197 1.287 . S
C198 C199 1.524 . S
C198 H217 0.913 . S
C199 H175 0.950 . S
C199 C198 1.524 . S
C199 C200 1.415 . S
C200 H176 0.950 . S
C200 C195 1.363 . S
C200 C199 1.415 . S
C201 H177 0.951 . S
C201 C202 1.366 . S
C201 C203 1.388 . S
C202 C201 1.366 . S
C202 C206 1.385 . S
C203 H178 0.951 . S
C203 C201 1.388 . S
C203 C204 1.366 . S
C204 C203 1.366 . S
C204 C205 1.414 . S
C204 C207 1.499 . S
C205 H179 0.950 . S
C205 C204 1.414 . S
C205 C206 1.374 . S
C206 H180 0.950 . S
C206 C202 1.385 . S
C206 C205 1.374 . S
C207 C204 1.499 . S
C207 C208 1.373 . S
C207 C209 1.389 . S
C208 H181 0.950 . S
C208 C194 1.377 . S
C208 C207 1.373 . S
C209 C193 1.377 . S
C209 C207 1.389 . S
C209 C210 1.524 . S
C210 C209 1.524 . S
C210 C211 1.397 . S
C210 C215 1.363 . S
C211 H182 0.950 . S
C211 C210 1.397 . S
C211 C212 1.334 . S
C212 H183 0.950 . S
C212 C211 1.334 . S
C212 C213 1.287 . S
C213 C212 1.287 . S
C213 C214 1.524 . S
C213 H216 0.999 . S
C214 H184 0.950 . S
C214 C213 1.524 . S
C214 C215 1.415 . S
C215 H185 0.950 . S
C215 C210 1.363 . S
C215 C214 1.415 . S
H216 C213 0.999 . S
H217 C198 0.913 . S
H218 C236 0.951 . S
H219 C238 0.951 . S
H220 C240 0.950 . S
H221 C241 0.950 . S
H222 C243 0.950 . S
H223 C246 0.950 . S
H224 C247 0.950 . S
H225 C249 0.950 . S
H226 C250 0.950 . S
H227 C251 0.951 . S
H228 C253 0.951 . S
H229 C255 0.950 . S
H230 C256 0.950 . S
H231 C258 0.950 . S
H232 C261 0.950 . S
H233 C262 0.950 . S
H234 C264 0.950 . S
H235 C265 0.950 . S
C236 H218 0.951 . S
C236 C237 1.366 . S
C236 C238 1.388 . S
C237 C236 1.366 . S
C237 C241 1.385 . S
C238 H219 0.951 . S
C238 C236 1.388 . S
C238 C239 1.366 . S
C239 C238 1.366 . S
C239 C240 1.414 . S
C239 C242 1.499 . S
C240 H220 0.950 . S
C240 C239 1.414 . S
C240 C241 1.374 . S
C241 H221 0.950 . S
C241 C237 1.385 . S
C241 C240 1.374 . S
C242 C239 1.499 . S
C242 C243 1.373 . S
C242 C244 1.389 . S
C243 H222 0.950 . S
C243 C242 1.373 . S
C243 C259 1.377 1_655 S
C244 C242 1.389 . S
C244 C245 1.524 . S
C244 C258 1.377 1_655 S
C245 C244 1.524 . S
C245 C246 1.397 . S
C245 C250 1.363 . S
C246 H223 0.950 . S
C246 C245 1.397 . S
C246 C247 1.334 . S
C247 H224 0.950 . S
C247 C246 1.334 . S
C247 C248 1.287 . S
C248 C247 1.287 . S
C248 C249 1.524 . S
C248 H267 0.913 . S
C249 H225 0.950 . S
C249 C248 1.524 . S
C249 C250 1.415 . S
C250 H226 0.950 . S
C250 C245 1.363 . S
C250 C249 1.415 . S
C251 H227 0.951 . S
C251 C252 1.366 . S
C251 C253 1.388 . S
C252 C251 1.366 . S
C252 C256 1.385 . S
C253 H228 0.951 . S
C253 C251 1.388 . S
C253 C254 1.366 . S
C254 C253 1.366 . S
C254 C255 1.414 . S
C254 C257 1.499 . S
C255 H229 0.950 . S
C255 C254 1.414 . S
C255 C256 1.374 . S
C256 H230 0.950 . S
C256 C252 1.385 . S
C256 C255 1.374 . S
C257 C254 1.499 . S
C257 C258 1.373 . S
C257 C259 1.389 . S
C258 H231 0.950 . S
C258 C244 1.377 1_455 S
C258 C257 1.373 . S
C259 C243 1.377 1_455 S
C259 C257 1.389 . S
C259 C260 1.524 . S
C260 C259 1.524 . S
C260 C261 1.397 . S
C260 C265 1.363 . S
C261 H232 0.950 . S
C261 C260 1.397 . S
C261 C262 1.334 . S
C262 H233 0.950 . S
C262 C261 1.334 . S
C262 C263 1.287 . S
C263 C262 1.287 . S
C263 C264 1.524 . S
C263 H266 0.999 . S
C264 H234 0.950 . S
C264 C263 1.524 . S
C264 C265 1.415 . S
C265 H235 0.950 . S
C265 C260 1.363 . S
C265 C264 1.415 . S
H266 C263 0.999 . S
H267 C248 0.913 . S
H268 C286 0.951 . S
H269 C288 0.951 . S
H270 C290 0.950 . S
H271 C291 0.948 1_554 S
H272 C293 0.950 . S
H273 C296 0.950 . S
H274 C297 0.950 . S
H275 C299 0.950 . S
H276 C300 0.950 1_545 S
H277 C301 0.951 . S
H278 C303 0.951 . S
H279 C305 0.950 . S
H280 C306 0.948 1_556 S
H281 C308 0.950 . S
H282 C311 0.950 . S
H283 C312 0.950 . S
H284 C314 0.950 . S
H285 C315 0.950 1_565 S
C286 H268 0.951 . S
C286 C287 1.366 . S
C286 C288 1.388 . S
C287 C286 1.366 . S
C287 C291 1.387 . S
C288 H269 0.951 . S
C288 C286 1.388 . S
C288 C289 1.366 . S
C289 C288 1.366 . S
C289 C290 1.414 1_556 S
C289 C292 1.499 . S
C290 H270 0.950 . S
C290 C289 1.414 1_554 S
C290 C291 1.373 1_554 S
C291 H271 0.948 1_556 S
C291 C287 1.387 . S
C291 C290 1.373 1_556 S
C292 C289 1.499 . S
C292 C293 1.373 1_556 S
C292 C294 1.389 . S
C293 H272 0.950 . S
C293 C292 1.373 1_554 S
C293 C309 1.377 1_565 S
C294 C292 1.389 . S
C294 C295 1.524 . S
C294 C308 1.377 1_565 S
C295 C294 1.524 . S
C295 C296 1.397 . S
C295 C300 1.363 . S
C296 H273 0.950 . S
C296 C295 1.397 . S
C296 C297 1.334 . S
C297 H274 0.950 . S
C297 C296 1.334 . S
C297 C298 1.287 . S
C298 C297 1.287 . S
C298 C299 1.524 . S
C298 H317 0.913 . S
C299 H275 0.950 . S
C299 C298 1.524 . S
C299 C300 1.415 . S
C300 H276 0.950 1_565 S
C300 C295 1.363 . S
C300 C299 1.415 . S
C301 H277 0.951 . S
C301 C302 1.366 . S
C301 C303 1.388 . S
C302 C301 1.366 . S
C302 C306 1.387 . S
C303 H278 0.951 . S
C303 C301 1.388 . S
C303 C304 1.366 . S
C304 C303 1.366 . S
C304 C305 1.414 1_554 S
C304 C307 1.499 . S
C305 H279 0.950 . S
C305 C304 1.414 1_556 S
C305 C306 1.373 1_556 S
C306 H280 0.948 1_554 S
C306 C302 1.387 . S
C306 C305 1.373 1_554 S
C307 C304 1.499 . S
C307 C308 1.373 1_554 S
C307 C309 1.389 . S
C308 H281 0.950 . S
C308 C294 1.377 1_545 S
C308 C307 1.373 1_556 S
C309 C293 1.377 1_545 S
C309 C307 1.389 . S
C309 C310 1.524 . S
C310 C309 1.524 . S
C310 C311 1.397 . S
C310 C315 1.363 . S
C311 H282 0.950 . S
C311 C310 1.397 . S
C311 C312 1.334 . S
C312 H283 0.950 . S
C312 C311 1.334 . S
C312 C313 1.287 . S
C313 C312 1.287 . S
C313 C314 1.524 . S
C313 H316 0.999 . S
C314 H284 0.950 . S
C314 C313 1.524 . S
C314 C315 1.415 . S
C315 H285 0.950 1_545 S
C315 C310 1.363 . S
C315 C314 1.415 . S
H316 C313 0.999 . S
H317 C298 0.913 . S
H318 C336 0.951 . S
H319 C338 0.951 . S
H320 C340 0.950 . S
H321 C341 0.950 . S
H322 C343 0.950 . S
H323 C346 0.950 . S
H324 C347 0.950 . S
H325 C349 0.950 . S
H326 C350 0.950 . S
H327 C351 0.951 . S
H328 C353 0.951 . S
H329 C355 0.950 . S
H330 C356 0.950 . S
H331 C358 0.950 . S
H332 C361 0.950 . S
H333 C362 0.950 . S
H334 C364 0.950 . S
H335 C365 0.950 . S
C336 H318 0.951 . S
C336 C337 1.366 . S
C336 C338 1.388 . S
C337 C336 1.366 . S
C337 C341 1.385 . S
C338 H319 0.951 . S
C338 C336 1.388 . S
C338 C339 1.366 . S
C339 C338 1.366 . S
C339 C340 1.414 . S
C339 C342 1.499 . S
C340 H320 0.950 . S
C340 C339 1.414 . S
C340 C341 1.374 . S
C341 H321 0.950 . S
C341 C337 1.385 . S
C341 C340 1.374 . S
C342 C339 1.499 . S
C342 C343 1.373 . S
C342 C344 1.389 . S
C343 H322 0.950 . S
C343 C342 1.373 . S
C343 C359 1.377 . S
C344 C342 1.389 . S
C344 C345 1.524 . S
C344 C358 1.377 . S
C345 C344 1.524 . S
C345 C346 1.397 . S
C345 C350 1.363 . S
C346 H323 0.950 . S
C346 C345 1.397 . S
C346 C347 1.334 . S
C347 H324 0.950 . S
C347 C346 1.334 . S
C347 C348 1.287 . S
C348 C347 1.287 . S
C348 C349 1.524 . S
C348 H367 0.913 . S
C349 H325 0.950 . S
C349 C348 1.524 . S
C349 C350 1.415 . S
C350 H326 0.950 . S
C350 C345 1.363 . S
C350 C349 1.415 . S
C351 H327 0.951 . S
C351 C352 1.366 . S
C351 C353 1.388 . S
C352 C351 1.366 . S
C352 C356 1.385 . S
C353 H328 0.951 . S
C353 C351 1.388 . S
C353 C354 1.366 . S
C354 C353 1.366 . S
C354 C355 1.414 . S
C354 C357 1.499 . S
C355 H329 0.950 . S
C355 C354 1.414 . S
C355 C356 1.374 . S
C356 H330 0.950 . S
C356 C352 1.385 . S
C356 C355 1.374 . S
C357 C354 1.499 . S
C357 C358 1.373 . S
C357 C359 1.389 . S
C358 H331 0.950 . S
C358 C344 1.377 . S
C358 C357 1.373 . S
C359 C343 1.377 . S
C359 C357 1.389 . S
C359 C360 1.524 . S
C360 C359 1.524 . S
C360 C361 1.397 . S
C360 C365 1.363 . S
C361 H332 0.950 . S
C361 C360 1.397 . S
C361 C362 1.334 . S
C362 H333 0.950 . S
C362 C361 1.334 . S
C362 C363 1.287 . S
C363 C362 1.287 . S
C363 C364 1.524 . S
C363 H366 0.999 . S
C364 H334 0.950 . S
C364 C363 1.524 . S
C364 C365 1.415 . S
C365 H335 0.950 . S
C365 C360 1.363 . S
C365 C364 1.415 . S
H366 C363 0.999 . S
H367 C348 0.913 . S
H368 C386 0.951 . S
H369 C388 0.951 . S
H370 C390 0.950 . S
H371 C391 0.950 . S
H372 C393 0.950 . S
H373 C396 0.950 . S
H374 C397 0.950 . S
H375 C399 0.950 . S
H376 C400 0.950 . S
H377 C401 0.951 . S
H378 C403 0.951 . S
H379 C405 0.950 . S
H380 C406 0.950 . S
H381 C408 0.950 . S
H382 C411 0.950 . S
H383 C412 0.950 . S
H384 C414 0.950 . S
H385 C415 0.950 . S
C386 H368 0.951 . S
C386 C387 1.366 . S
C386 C388 1.388 . S
C387 C386 1.366 . S
C387 C391 1.385 . S
C388 H369 0.951 . S
C388 C386 1.388 . S
C388 C389 1.366 . S
C389 C388 1.366 . S
C389 C390 1.414 . S
C389 C392 1.499 . S
C390 H370 0.950 . S
C390 C389 1.414 . S
C390 C391 1.374 . S
C391 H371 0.950 . S
C391 C387 1.385 . S
C391 C390 1.374 . S
C392 C389 1.499 . S
C392 C393 1.373 . S
C392 C394 1.389 . S
C393 H372 0.950 . S
C393 C392 1.373 . S
C393 C409 1.377 1_655 S
C394 C392 1.389 . S
C394 C395 1.524 . S
C394 C408 1.377 1_655 S
C395 C394 1.524 . S
C395 C396 1.397 . S
C395 C400 1.363 . S
C396 H373 0.950 . S
C396 C395 1.397 . S
C396 C397 1.334 . S
C397 H374 0.950 . S
C397 C396 1.334 . S
C397 C398 1.287 . S
C398 C397 1.287 . S
C398 C399 1.524 . S
C398 H417 0.913 . S
C399 H375 0.950 . S
C399 C398 1.524 . S
C399 C400 1.415 . S
C400 H376 0.950 . S
C400 C395 1.363 . S
C400 C399 1.415 . S
C401 H377 0.951 . S
C401 C402 1.366 . S
C401 C403 1.388 . S
C402 C401 1.366 . S
C402 C406 1.385 . S
C403 H378 0.951 . S
C403 C401 1.388 . S
C403 C404 1.366 . S
C404 C403 1.366 . S
C404 C405 1.414 . S
C404 C407 1.499 . S
C405 H379 0.950 . S
C405 C404 1.414 . S
C405 C406 1.374 . S
C406 H380 0.950 . S
C406 C402 1.385 . S
C406 C405 1.374 . S
C407 C404 1.499 . S
C407 C408 1.373 . S
C407 C409 1.389 . S
C408 H381 0.950 . S
C408 C394 1.377 1_455 S
C408 C407 1.373 . S
C409 C393 1.377 1_455 S
C409 C407 1.389 . S
C409 C410 1.524 . S
C410 C409 1.524 . S
C410 C411 1.397 . S
C410 C415 1.363 . S
C411 H382 0.950 . S
C411 C410 1.397 . S
C411 C412 1.334 . S
C412 H383 0.950 . S
C412 C411 1.334 . S
C412 C413 1.287 . S
C413 C412 1.287 . S
C413 C414 1.524 . S
C413 H416 0.999 . S
C414 H384 0.950 . S
C414 C413 1.524 . S
C414 C415 1.415 . S
C415 H385 0.950 . S
C415 C410 1.363 . S
C415 C414 1.415 . S
H416 C413 0.999 . S
H417 C398 0.913 . S
H418 C436 0.951 . S
H419 C438 0.951 1_556 S
H420 C440 0.950 . S
H421 C441 0.950 . S
H422 C443 0.950 . S
H423 C446 0.950 . S
H424 C447 0.950 . S
H425 C449 0.950 . S
H426 C450 0.950 . S
H427 C451 0.951 . S
H428 C453 0.951 1_554 S
H429 C455 0.950 . S
H430 C456 0.950 . S
H431 C458 0.950 . S
H432 C461 0.950 . S
H433 C462 0.950 . S
H434 C464 0.950 . S
H435 C465 0.950 . S
C436 H418 0.951 . S
C436 C437 1.366 . S
C436 C438 1.388 . S
C437 C436 1.366 . S
C437 C441 1.385 . S
C438 H419 0.951 1_554 S
C438 C436 1.388 . S
C438 C439 1.366 . S
C439 C438 1.366 . S
C439 C440 1.414 . S
C439 C442 1.499 . S
C440 H420 0.950 . S
C440 C439 1.414 . S
C440 C441 1.374 . S
C441 H421 0.950 . S
C441 C437 1.385 . S
C441 C440 1.374 . S
C442 C439 1.499 . S
C442 C443 1.373 . S
C442 C444 1.389 1_554 S
C443 H422 0.950 . S
C443 C442 1.373 . S
C443 C459 1.377 1_565 S
C444 C442 1.389 1_556 S
C444 C445 1.524 . S
C444 C458 1.377 1_565 S
C445 C444 1.524 . S
C445 C446 1.397 . S
C445 C450 1.363 . S
C446 H423 0.950 . S
C446 C445 1.397 . S
C446 C447 1.334 . S
C447 H424 0.950 . S
C447 C446 1.334 . S
C447 C448 1.287 . S
C448 C447 1.287 . S
C448 C449 1.524 . S
C448 H467 0.913 . S
C449 H425 0.950 . S
C449 C448 1.524 . S
C449 C450 1.415 . S
C450 H426 0.950 . S
C450 C445 1.363 . S
C450 C449 1.415 . S
C451 H427 0.951 . S
C451 C452 1.366 . S
C451 C453 1.388 . S
C452 C451 1.366 . S
C452 C456 1.385 . S
C453 H428 0.951 1_556 S
C453 C451 1.388 . S
C453 C454 1.366 . S
C454 C453 1.366 . S
C454 C455 1.414 . S
C454 C457 1.499 . S
C455 H429 0.950 . S
C455 C454 1.414 . S
C455 C456 1.374 . S
C456 H430 0.950 . S
C456 C452 1.385 . S
C456 C455 1.374 . S
C457 C454 1.499 . S
C457 C458 1.373 . S
C457 C459 1.389 1_556 S
C458 H431 0.950 . S
C458 C444 1.377 1_545 S
C458 C457 1.373 . S
C459 C443 1.377 1_545 S
C459 C457 1.389 1_554 S
C459 C460 1.524 . S
C460 C459 1.524 . S
C460 C461 1.397 . S
C460 C465 1.363 . S
C461 H432 0.950 . S
C461 C460 1.397 . S
C461 C462 1.334 . S
C462 H433 0.950 . S
C462 C461 1.334 . S
C462 C463 1.287 . S
C463 C462 1.287 . S
C463 C464 1.524 . S
C463 H466 0.999 . S
C464 H434 0.950 . S
C464 C463 1.524 . S
C464 C465 1.415 . S
C465 H435 0.950 . S
C465 C460 1.363 . S
C465 C464 1.415 . S
H466 C463 0.999 . S
H467 C448 0.913 . S
H468 C486 0.951 . S
H469 C488 0.951 . S
H470 C490 0.950 . S
H471 C491 0.950 . S
H472 C493 0.950 . S
H473 C496 0.950 . S
H474 C497 0.950 . S
H475 C499 0.950 . S
H476 C500 0.950 1_554 S
H477 C501 0.951 . S
H478 C503 0.951 . S
H479 C505 0.950 . S
H480 C506 0.950 . S
H481 C508 0.950 . S
H482 C511 0.950 . S
H483 C512 0.950 . S
H484 C514 0.950 . S
H485 C515 0.950 1_556 S
C486 H468 0.951 . S
C486 C487 1.366 . S
C486 C488 1.388 . S
C487 C486 1.366 . S
C487 C491 1.385 . S
C488 H469 0.951 . S
C488 C486 1.388 . S
C488 C489 1.366 . S
C489 C488 1.366 . S
C489 C490 1.414 . S
C489 C492 1.499 . S
C490 H470 0.950 . S
C490 C489 1.414 . S
C490 C491 1.374 . S
C491 H471 0.950 . S
C491 C487 1.385 . S
C491 C490 1.374 . S
C492 C489 1.499 . S
C492 C493 1.373 . S
C492 C494 1.389 . S
C493 H472 0.950 . S
C493 C492 1.373 . S
C493 C509 1.377 1_556 S
C494 C492 1.389 . S
C494 C495 1.524 . S
C494 C508 1.377 1_556 S
C495 C494 1.524 . S
C495 C496 1.397 . S
C495 C500 1.363 . S
C496 H473 0.950 . S
C496 C495 1.397 . S
C496 C497 1.334 . S
C497 H474 0.950 . S
C497 C496 1.334 . S
C497 C498 1.287 . S
C498 C497 1.287 . S
C498 C499 1.524 . S
C498 H517 0.913 . S
C499 H475 0.950 . S
C499 C498 1.524 . S
C499 C500 1.415 . S
C500 H476 0.950 1_556 S
C500 C495 1.363 . S
C500 C499 1.415 . S
C501 H477 0.951 . S
C501 C502 1.366 . S
C501 C503 1.388 . S
C502 C501 1.366 . S
C502 C506 1.385 . S
C503 H478 0.951 . S
C503 C501 1.388 . S
C503 C504 1.366 . S
C504 C503 1.366 . S
C504 C505 1.414 . S
C504 C507 1.499 . S
C505 H479 0.950 . S
C505 C504 1.414 . S
C505 C506 1.374 . S
C506 H480 0.950 . S
C506 C502 1.385 . S
C506 C505 1.374 . S
C507 C504 1.499 . S
C507 C508 1.373 . S
C507 C509 1.389 . S
C508 H481 0.950 . S
C508 C494 1.377 1_554 S
C508 C507 1.373 . S
C509 C493 1.377 1_554 S
C509 C507 1.389 . S
C509 C510 1.524 . S
C510 C509 1.524 . S
C510 C511 1.397 . S
C510 C515 1.363 . S
C511 H482 0.950 . S
C511 C510 1.397 . S
C511 C512 1.334 . S
C512 H483 0.950 . S
C512 C511 1.334 . S
C512 C513 1.287 . S
C513 C512 1.287 . S
C513 C514 1.524 . S
C513 H516 0.999 . S
C514 H484 0.950 . S
C514 C513 1.524 . S
C514 C515 1.415 . S
C515 H485 0.950 1_554 S
C515 C510 1.363 . S
C515 C514 1.415 . S
H516 C513 0.999 . S
H517 C498 0.913 . S
H518 C536 0.951 . S
H519 C538 0.951 . S
H520 C540 0.950 . S
H521 C541 0.950 . S
H522 C543 0.950 . S
H523 C546 0.950 . S
H524 C547 0.950 . S
H525 C549 0.950 . S
H526 C550 0.950 . S
H527 C551 0.951 . S
H528 C553 0.951 . S
H529 C555 0.950 . S
H530 C556 0.950 . S
H531 C558 0.950 . S
H532 C561 0.950 . S
H533 C562 0.950 . S
H534 C564 0.950 . S
H535 C565 0.950 . S
C536 H518 0.951 . S
C536 C537 1.366 . S
C536 C538 1.388 . S
C537 C536 1.366 . S
C537 C541 1.385 . S
C538 H519 0.951 . S
C538 C536 1.388 . S
C538 C539 1.366 . S
C539 C538 1.366 . S
C539 C540 1.414 . S
C539 C542 1.499 . S
C540 H520 0.950 . S
C540 C539 1.414 . S
C540 C541 1.374 . S
C541 H521 0.950 . S
C541 C537 1.385 . S
C541 C540 1.374 . S
C542 C539 1.499 . S
C542 C543 1.373 . S
C542 C544 1.389 . S
C543 H522 0.950 . S
C543 C542 1.373 . S
C543 C559 1.377 . S
C544 C542 1.389 . S
C544 C545 1.524 . S
C544 C558 1.377 . S
C545 C544 1.524 . S
C545 C546 1.397 . S
C545 C550 1.363 . S
C546 H523 0.950 . S
C546 C545 1.397 . S
C546 C547 1.334 . S
C547 H524 0.950 . S
C547 C546 1.334 . S
C547 C548 1.287 . S
C548 C547 1.287 . S
C548 C549 1.524 . S
C548 H567 0.913 . S
C549 H525 0.950 . S
C549 C548 1.524 . S
C549 C550 1.415 . S
C550 H526 0.950 . S
C550 C545 1.363 . S
C550 C549 1.415 . S
C551 H527 0.951 . S
C551 C552 1.366 . S
C551 C553 1.388 . S
C552 C551 1.366 . S
C552 C556 1.385 . S
C553 H528 0.951 . S
C553 C551 1.388 . S
C553 C554 1.366 . S
C554 C553 1.366 . S
C554 C555 1.414 . S
C554 C557 1.499 . S
C555 H529 0.950 . S
C555 C554 1.414 . S
C555 C556 1.374 . S
C556 H530 0.950 . S
C556 C552 1.385 . S
C556 C555 1.374 . S
C557 C554 1.499 . S
C557 C558 1.373 . S
C557 C559 1.389 . S
C558 H531 0.950 . S
C558 C544 1.377 . S
C558 C557 1.373 . S
C559 C543 1.377 . S
C559 C557 1.389 . S
C559 C560 1.524 . S
C560 C559 1.524 . S
C560 C561 1.397 . S
C560 C565 1.363 . S
C561 H532 0.950 . S
C561 C560 1.397 . S
C561 C562 1.334 . S
C562 H533 0.950 . S
C562 C561 1.334 . S
C562 C563 1.287 . S
C563 C562 1.287 . S
C563 C564 1.524 . S
C563 H566 0.999 . S
C564 H534 0.950 . S
C564 C563 1.524 . S
C564 C565 1.415 . S
C565 H535 0.950 . S
C565 C560 1.363 . S
C565 C564 1.415 . S
H566 C563 0.999 . S
H567 C548 0.913 . S
H568 C586 0.951 . S
H569 C588 0.951 . S
H570 C590 0.950 . S
H571 C591 0.950 . S
H572 C593 0.950 . S
H573 C596 0.950 . S
H574 C597 0.950 . S
H575 C599 0.950 . S
H576 C600 0.950 . S
H577 C601 0.951 . S
H578 C603 0.951 . S
H579 C605 0.950 . S
H580 C606 0.950 . S
H581 C608 0.950 . S
H582 C611 0.950 . S
H583 C612 0.950 . S
H584 C614 0.950 . S
H585 C615 0.950 . S
C586 H568 0.951 . S
C586 C587 1.366 . S
C586 C588 1.388 . S
C587 C586 1.366 . S
C587 C591 1.385 . S
C588 H569 0.951 . S
C588 C586 1.388 . S
C588 C589 1.366 . S
C589 C588 1.366 . S
C589 C590 1.414 . S
C589 C592 1.499 . S
C590 H570 0.950 . S
C590 C589 1.414 . S
C590 C591 1.374 . S
C591 H571 0.950 . S
C591 C587 1.385 . S
C591 C590 1.374 . S
C592 C589 1.499 . S
C592 C593 1.373 . S
C592 C594 1.389 . S
C593 H572 0.950 . S
C593 C592 1.373 . S
C593 C609 1.377 . S
C594 C592 1.389 . S
C594 C595 1.524 . S
C594 C608 1.377 . S
C595 C594 1.524 . S
C595 C596 1.397 . S
C595 C600 1.363 . S
C596 H573 0.950 . S
C596 C595 1.397 . S
C596 C597 1.334 . S
C597 H574 0.950 . S
C597 C596 1.334 . S
C597 C598 1.287 . S
C598 C597 1.287 . S
C598 C599 1.524 . S
C598 H617 0.913 . S
C599 H575 0.950 . S
C599 C598 1.524 . S
C599 C600 1.415 . S
C600 H576 0.950 . S
C600 C595 1.363 . S
C600 C599 1.415 . S
C601 H577 0.951 . S
C601 C602 1.366 . S
C601 C603 1.388 . S
C602 C601 1.366 . S
C602 C606 1.385 . S
C603 H578 0.951 . S
C603 C601 1.388 . S
C603 C604 1.366 . S
C604 C603 1.366 . S
C604 C605 1.414 . S
C604 C607 1.499 . S
C605 H579 0.950 . S
C605 C604 1.414 . S
C605 C606 1.374 . S
C606 H580 0.950 . S
C606 C602 1.385 . S
C606 C605 1.374 . S
C607 C604 1.499 . S
C607 C608 1.373 . S
C607 C609 1.389 . S
C608 H581 0.950 . S
C608 C594 1.377 . S
C608 C607 1.373 . S
C609 C593 1.377 . S
C609 C607 1.389 . S
C609 C610 1.524 . S
C610 C609 1.524 . S
C610 C611 1.397 . S
C610 C615 1.363 . S
C611 H582 0.950 . S
C611 C610 1.397 . S
C611 C612 1.334 . S
C612 H583 0.950 . S
C612 C611 1.334 . S
C612 C613 1.287 . S
C613 C612 1.287 . S
C613 C614 1.524 . S
C613 H616 0.999 . S
C614 H584 0.950 . S
C614 C613 1.524 . S
C614 C615 1.415 . S
C615 H585 0.950 . S
C615 C610 1.363 . S
C615 C614 1.415 . S
H616 C613 0.999 . S
H617 C598 0.913 . S
H618 C636 0.951 . S
H619 C638 0.951 . S
H620 C640 0.950 . S
H621 C641 0.950 . S
H622 C643 0.950 . S
H623 C646 0.950 . S
H624 C647 0.950 . S
H625 C649 0.950 . S
H626 C650 0.950 . S
H627 C651 0.951 . S
H628 C653 0.951 . S
H629 C655 0.950 . S
H630 C656 0.950 . S
H631 C658 0.950 . S
H632 C661 0.950 . S
H633 C662 0.950 . S
H634 C664 0.950 . S
H635 C665 0.950 . S
C636 H618 0.951 . S
C636 C637 1.366 . S
C636 C638 1.388 . S
C637 C636 1.366 . S
C637 C641 1.385 . S
C638 H619 0.951 . S
C638 C636 1.388 . S
C638 C639 1.366 . S
C639 C638 1.366 . S
C639 C640 1.414 . S
C639 C642 1.499 . S
C640 H620 0.950 . S
C640 C639 1.414 . S
C640 C641 1.374 . S
C641 H621 0.950 . S
C641 C637 1.385 . S
C641 C640 1.374 . S
C642 C639 1.499 . S
C642 C643 1.373 . S
C642 C644 1.389 . S
C643 H622 0.950 . S
C643 C642 1.373 . S
C643 C659 1.377 1_554 S
C644 C642 1.389 . S
C644 C645 1.524 . S
C644 C658 1.377 1_554 S
C645 C644 1.524 . S
C645 C646 1.397 . S
C645 C650 1.363 . S
C646 H623 0.950 . S
C646 C645 1.397 . S
C646 C647 1.334 . S
C647 H624 0.950 . S
C647 C646 1.334 . S
C647 C648 1.287 . S
C648 C647 1.287 . S
C648 C649 1.524 . S
C648 H667 0.913 . S
C649 H625 0.950 . S
C649 C648 1.524 . S
C649 C650 1.415 . S
C650 H626 0.950 . S
C650 C645 1.363 . S
C650 C649 1.415 . S
C651 H627 0.951 . S
C651 C652 1.366 . S
C651 C653 1.388 . S
C652 C651 1.366 . S
C652 C656 1.385 . S
C653 H628 0.951 . S
C653 C651 1.388 . S
C653 C654 1.366 . S
C654 C653 1.366 . S
C654 C655 1.414 . S
C654 C657 1.499 . S
C655 H629 0.950 . S
C655 C654 1.414 . S
C655 C656 1.374 . S
C656 H630 0.950 . S
C656 C652 1.385 . S
C656 C655 1.374 . S
C657 C654 1.499 . S
C657 C658 1.373 . S
C657 C659 1.389 . S
C658 H631 0.950 . S
C658 C644 1.377 1_556 S
C658 C657 1.373 . S
C659 C643 1.377 1_556 S
C659 C657 1.389 . S
C659 C660 1.524 . S
C660 C659 1.524 . S
C660 C661 1.397 . S
C660 C665 1.363 . S
C661 H632 0.950 . S
C661 C660 1.397 . S
C661 C662 1.334 . S
C662 H633 0.950 . S
C662 C661 1.334 . S
C662 C663 1.287 . S
C663 C662 1.287 . S
C663 C664 1.524 . S
C663 H666 0.999 . S
C664 H634 0.950 . S
C664 C663 1.524 . S
C664 C665 1.415 . S
C665 H635 0.950 . S
C665 C660 1.363 . S
C665 C664 1.415 . S
H666 C663 0.999 . S
H667 C648 0.913 . S
H668 C686 0.951 . S
H669 C688 0.951 . S
H670 C690 0.950 . S
H671 C691 0.950 . S
H672 C693 0.950 . S
H673 C696 0.950 . S
H674 C697 0.950 . S
H675 C699 0.950 . S
H676 C700 0.950 . S
H677 C701 0.951 . S
H678 C703 0.951 . S
H679 C705 0.950 . S
H680 C706 0.950 . S
H681 C708 0.950 . S
H682 C711 0.950 . S
H683 C712 0.950 . S
H684 C714 0.950 . S
H685 C715 0.950 . S
C686 H668 0.951 . S
C686 C687 1.366 . S
C686 C688 1.388 . S
C687 C686 1.366 . S
C687 C691 1.385 . S
C688 H669 0.951 . S
C688 C686 1.388 . S
C688 C689 1.366 . S
C689 C688 1.366 . S
C689 C690 1.414 . S
C689 C692 1.499 . S
C690 H670 0.950 . S
C690 C689 1.414 . S
C690 C691 1.374 . S
C691 H671 0.950 . S
C691 C687 1.385 . S
C691 C690 1.374 . S
C692 C689 1.499 . S
C692 C693 1.373 . S
C692 C694 1.389 . S
C693 H672 0.950 . S
C693 C692 1.373 . S
C693 C709 1.377 . S
C694 C692 1.389 . S
C694 C695 1.524 . S
C694 C708 1.377 . S
C695 C694 1.524 . S
C695 C696 1.397 . S
C695 C700 1.363 . S
C696 H673 0.950 . S
C696 C695 1.397 . S
C696 C697 1.334 . S
C697 H674 0.950 . S
C697 C696 1.334 . S
C697 C698 1.287 . S
C698 C697 1.287 . S
C698 C699 1.524 . S
C698 H717 0.913 . S
C699 H675 0.950 . S
C699 C698 1.524 . S
C699 C700 1.415 . S
C700 H676 0.950 . S
C700 C695 1.363 . S
C700 C699 1.415 . S
C701 H677 0.951 . S
C701 C702 1.366 . S
C701 C703 1.388 . S
C702 C701 1.366 . S
C702 C706 1.385 . S
C703 H678 0.951 . S
C703 C701 1.388 . S
C703 C704 1.366 . S
C704 C703 1.366 . S
C704 C705 1.414 . S
C704 C707 1.499 . S
C705 H679 0.950 . S
C705 C704 1.414 . S
C705 C706 1.374 . S
C706 H680 0.950 . S
C706 C702 1.385 . S
C706 C705 1.374 . S
C707 C704 1.499 . S
C707 C708 1.373 . S
C707 C709 1.389 . S
C708 H681 0.950 . S
C708 C694 1.377 . S
C708 C707 1.373 . S
C709 C693 1.377 . S
C709 C707 1.389 . S
C709 C710 1.524 . S
C710 C709 1.524 . S
C710 C711 1.397 . S
C710 C715 1.363 . S
C711 H682 0.950 . S
C711 C710 1.397 . S
C711 C712 1.334 . S
C712 H683 0.950 . S
C712 C711 1.334 . S
C712 C713 1.287 . S
C713 C712 1.287 . S
C713 C714 1.524 . S
C713 H716 0.999 . S
C714 H684 0.950 . S
C714 C713 1.524 . S
C714 C715 1.415 . S
C715 H685 0.950 . S
C715 C710 1.363 . S
C715 C714 1.415 . S
H716 C713 0.999 . S
H717 C698 0.913 . S
H718 C736 0.951 . S
H719 C738 0.951 . S
H720 C740 0.950 . S
H721 C741 0.950 . S
H722 C743 0.950 . S
H723 C746 0.950 . S
H724 C747 0.950 . S
H725 C749 0.950 . S
H726 C750 0.950 . S
H727 C751 0.951 . S
H728 C753 0.951 . S
H729 C755 0.950 . S
H730 C756 0.950 . S
H731 C758 0.950 . S
H732 C761 0.950 . S
H733 C762 0.950 . S
H734 C764 0.950 . S
H735 C765 0.950 . S
C736 H718 0.951 . S
C736 C737 1.366 . S
C736 C738 1.388 . S
C737 C736 1.366 . S
C737 C741 1.385 . S
C738 H719 0.951 . S
C738 C736 1.388 . S
C738 C739 1.366 . S
C739 C738 1.366 . S
C739 C740 1.414 . S
C739 C742 1.499 . S
C740 H720 0.950 . S
C740 C739 1.414 . S
C740 C741 1.374 . S
C741 H721 0.950 . S
C741 C737 1.385 . S
C741 C740 1.374 . S
C742 C739 1.499 . S
C742 C743 1.373 . S
C742 C744 1.389 . S
C743 H722 0.950 . S
C743 C742 1.373 . S
C743 C759 1.377 . S
C744 C742 1.389 . S
C744 C745 1.524 . S
C744 C758 1.377 . S
C745 C744 1.524 . S
C745 C746 1.397 . S
C745 C750 1.363 . S
C746 H723 0.950 . S
C746 C745 1.397 . S
C746 C747 1.334 . S
C747 H724 0.950 . S
C747 C746 1.334 . S
C747 C748 1.287 . S
C748 C747 1.287 . S
C748 C749 1.524 . S
C748 H767 0.913 . S
C749 H725 0.950 . S
C749 C748 1.524 . S
C749 C750 1.415 . S
C750 H726 0.950 . S
C750 C745 1.363 . S
C750 C749 1.415 . S
C751 H727 0.951 . S
C751 C752 1.366 . S
C751 C753 1.388 . S
C752 C751 1.366 . S
C752 C756 1.385 . S
C753 H728 0.951 . S
C753 C751 1.388 . S
C753 C754 1.366 . S
C754 C753 1.366 . S
C754 C755 1.414 . S
C754 C757 1.499 . S
C755 H729 0.950 . S
C755 C754 1.414 . S
C755 C756 1.374 . S
C756 H730 0.950 . S
C756 C752 1.385 . S
C756 C755 1.374 . S
C757 C754 1.499 . S
C757 C758 1.373 . S
C757 C759 1.389 . S
C758 H731 0.950 . S
C758 C744 1.377 . S
C758 C757 1.373 . S
C759 C743 1.377 . S
C759 C757 1.389 . S
C759 C760 1.524 . S
C760 C759 1.524 . S
C760 C761 1.397 . S
C760 C765 1.363 . S
C761 H732 0.950 . S
C761 C760 1.397 . S
C761 C762 1.334 . S
C762 H733 0.950 . S
C762 C761 1.334 . S
C762 C763 1.287 . S
C763 C762 1.287 . S
C763 C764 1.524 . S
C763 H766 0.999 . S
C764 H734 0.950 . S
C764 C763 1.524 . S
C764 C765 1.415 . S
C765 H735 0.950 . S
C765 C760 1.363 . S
C765 C764 1.415 . S
H766 C763 0.999 . S
H767 C748 0.913 . S
H768 C786 0.951 . S
H769 C788 0.951 . S
H770 C790 0.950 . S
H771 C791 0.950 . S
H772 C793 0.950 . S
H773 C796 0.950 . S
H774 C797 0.950 . S
H775 C799 0.950 . S
H776 C800 0.950 . S
H777 C801 0.951 . S
H778 C803 0.951 . S
H779 C805 0.950 . S
H780 C806 0.950 . S
H781 C808 0.950 . S
H782 C811 0.950 . S
H783 C812 0.950 . S
H784 C814 0.950 . S
H785 C815 0.950 . S
C786 H768 0.951 . S
C786 C787 1.366 . S
C786 C788 1.388 . S
C787 C786 1.366 . S
C787 C791 1.385 . S
C788 H769 0.951 . S
C788 C786 1.388 . S
C788 C789 1.366 . S
C789 C788 1.366 . S
C789 C790 1.414 . S
C789 C792 1.499 . S
C790 H770 0.950 . S
C790 C789 1.414 . S
C790 C791 1.374 . S
C791 H771 0.950 . S
C791 C787 1.385 . S
C791 C790 1.374 . S
C792 C789 1.499 . S
C792 C793 1.373 . S
C792 C794 1.389 . S
C793 H772 0.950 . S
C793 C792 1.373 . S
C793 C809 1.377 . S
C794 C792 1.389 . S
C794 C795 1.524 . S
C794 C808 1.377 . S
C795 C794 1.524 . S
C795 C796 1.397 . S
C795 C800 1.363 . S
C796 H773 0.950 . S
C796 C795 1.397 . S
C796 C797 1.334 . S
C797 H774 0.950 . S
C797 C796 1.334 . S
C797 C798 1.287 . S
C798 C797 1.287 . S
C798 C799 1.524 . S
C798 H817 0.913 . S
C799 H775 0.950 . S
C799 C798 1.524 . S
C799 C800 1.415 . S
C800 H776 0.950 . S
C800 C795 1.363 . S
C800 C799 1.415 . S
C801 H777 0.951 . S
C801 C802 1.366 . S
C801 C803 1.388 . S
C802 C801 1.366 . S
C802 C806 1.385 . S
C803 H778 0.951 . S
C803 C801 1.388 . S
C803 C804 1.366 . S
C804 C803 1.366 . S
C804 C805 1.414 . S
C804 C807 1.499 . S
C805 H779 0.950 . S
C805 C804 1.414 . S
C805 C806 1.374 . S
C806 H780 0.950 . S
C806 C802 1.385 . S
C806 C805 1.374 . S
C807 C804 1.499 . S
C807 C808 1.373 . S
C807 C809 1.389 . S
C808 H781 0.950 . S
C808 C794 1.377 . S
C808 C807 1.373 . S
C809 C793 1.377 . S
C809 C807 1.389 . S
C809 C810 1.524 . S
C810 C809 1.524 . S
C810 C811 1.397 . S
C810 C815 1.363 . S
C811 H782 0.950 . S
C811 C810 1.397 . S
C811 C812 1.334 . S
C812 H783 0.950 . S
C812 C811 1.334 . S
C812 C813 1.287 . S
C813 C812 1.287 . S
C813 C814 1.524 . S
C813 H816 0.999 . S
C814 H784 0.950 . S
C814 C813 1.524 . S
C814 C815 1.415 . S
C815 H785 0.950 . S
C815 C810 1.363 . S
C815 C814 1.415 . S
H816 C813 0.999 . S
H817 C798 0.913 . S
H818 C836 0.951 . S
H819 C838 0.951 . S
H820 C840 0.950 . S
H821 C841 0.950 . S
H822 C843 0.950 . S
H823 C846 0.950 . S
H824 C847 0.950 . S
H825 C849 0.950 . S
H826 C850 0.950 . S
H827 C851 0.951 1_554 S
H828 C853 0.951 . S
H829 C855 0.950 . S
H830 C856 0.950 . S
H831 C858 0.950 . S
H832 C861 0.950 . S
H833 C862 0.950 . S
H834 C864 0.950 . S
H835 C865 0.950 . S
C836 H818 0.951 . S
C836 C837 1.366 . S
C836 C838 1.388 . S
C837 C836 1.366 . S
C837 C841 1.385 . S
C838 H819 0.951 . S
C838 C836 1.388 . S
C838 C839 1.366 . S
C839 C838 1.366 . S
C839 C840 1.414 . S
C839 C842 1.499 . S
C840 H820 0.950 . S
C840 C839 1.414 . S
C840 C841 1.374 . S
C841 H821 0.950 . S
C841 C837 1.385 . S
C841 C840 1.374 . S
C842 C839 1.499 . S
C842 C843 1.373 . S
C842 C844 1.389 . S
C843 H822 0.950 . S
C843 C842 1.373 . S
C843 C859 1.377 . S
C844 C842 1.389 . S
C844 C845 1.524 . S
C844 C858 1.377 . S
C845 C844 1.524 . S
C845 C846 1.397 . S
C845 C850 1.363 . S
C846 H823 0.950 . S
C846 C845 1.397 . S
C846 C847 1.334 . S
C847 H824 0.950 . S
C847 C846 1.334 . S
C847 C848 1.287 . S
C848 C847 1.287 . S
C848 C849 1.524 . S
C848 H867 0.913 . S
C849 H825 0.950 . S
C849 C848 1.524 . S
C849 C850 1.415 . S
C850 H826 0.950 . S
C850 C845 1.363 . S
C850 C849 1.415 . S
C851 H827 0.951 1_556 S
C851 C852 1.366 . S
C851 C853 1.388 . S
C852 C851 1.366 . S
C852 C856 1.385 . S
C853 H828 0.951 . S
C853 C851 1.388 . S
C853 C854 1.366 . S
C854 C853 1.366 . S
C854 C855 1.414 . S
C854 C857 1.499 . S
C855 H829 0.950 . S
C855 C854 1.414 . S
C855 C856 1.374 . S
C856 H830 0.950 . S
C856 C852 1.385 . S
C856 C855 1.374 . S
C857 C854 1.499 . S
C857 C858 1.373 . S
C857 C859 1.389 . S
C858 H831 0.950 . S
C858 C844 1.377 . S
C858 C857 1.373 . S
C859 C843 1.377 . S
C859 C857 1.389 . S
C859 C860 1.524 . S
C860 C859 1.524 . S
C860 C861 1.397 . S
C860 C865 1.363 . S
C861 H832 0.950 . S
C861 C860 1.397 . S
C861 C862 1.334 . S
C862 H833 0.950 . S
C862 C861 1.334 . S
C862 C863 1.287 . S
C863 C862 1.287 . S
C863 C864 1.524 . S
C863 H866 0.999 . S
C864 H834 0.950 . S
C864 C863 1.524 . S
C864 C865 1.415 . S
C865 H835 0.950 . S
C865 C860 1.363 . S
C865 C864 1.415 . S
H866 C863 0.999 . S
H867 C848 0.913 . S
H868 C886 0.968 . S
H869 C888 0.951 . S
H870 C890 0.950 . S
H871 C891 0.950 . S
H872 C893 0.950 . S
H873 C896 0.950 . S
H874 C897 0.950 . S
H875 C899 0.950 . S
H876 C900 0.950 . S
H877 C901 0.951 . S
H878 C903 0.951 . S
H879 C905 0.950 . S
H880 C906 0.950 . S
H881 C908 0.950 . S
H882 C911 0.950 . S
H883 C912 0.950 . S
H884 C914 0.950 . S
H885 C915 0.950 . S
C886 H868 0.968 . S
C886 C887 1.366 . S
C886 C888 1.388 . S
C887 C886 1.366 . S
C887 C891 1.385 . S
C888 H869 0.951 . S
C888 C886 1.388 . S
C888 C889 1.366 . S
C889 C888 1.366 . S
C889 C890 1.414 . S
C889 C892 1.499 . S
C890 H870 0.950 . S
C890 C889 1.414 . S
C890 C891 1.374 . S
C891 H871 0.950 . S
C891 C887 1.385 . S
C891 C890 1.374 . S
C892 C889 1.499 . S
C892 C893 1.373 . S
C892 C894 1.389 . S
C893 H872 0.950 . S
C893 C892 1.373 . S
C893 C909 1.377 . S
C894 C892 1.389 . S
C894 C895 1.524 . S
C894 C908 1.377 . S
C895 C894 1.524 . S
C895 C896 1.397 . S
C895 C900 1.363 . S
C896 H873 0.950 . S
C896 C895 1.397 . S
C896 C897 1.334 . S
C897 H874 0.950 . S
C897 C896 1.334 . S
C897 C898 1.287 . S
C898 C897 1.287 . S
C898 C899 1.524 . S
C898 H917 0.913 . S
C899 H875 0.950 . S
C899 C898 1.524 . S
C899 C900 1.415 . S
C900 H876 0.950 . S
C900 C895 1.363 . S
C900 C899 1.415 . S
C901 H877 0.951 . S
C901 C902 1.366 . S
C901 C903 1.388 . S
C902 C901 1.366 . S
C902 C906 1.385 . S
C903 H878 0.951 . S
C903 C901 1.388 . S
C903 C904 1.366 . S
C904 C903 1.366 . S
C904 C905 1.414 . S
C904 C907 1.499 . S
C905 H879 0.950 . S
C905 C904 1.414 . S
C905 C906 1.374 . S
C906 H880 0.950 . S
C906 C902 1.385 . S
C906 C905 1.374 . S
C907 C904 1.499 . S
C907 C908 1.373 . S
C907 C909 1.389 . S
C908 H881 0.950 . S
C908 C894 1.377 . S
C908 C907 1.373 . S
C909 C893 1.377 . S
C909 C907 1.389 . S
C909 C910 1.524 . S
C910 C909 1.524 . S
C910 C911 1.397 . S
C910 C915 1.363 . S
C911 H882 0.950 . S
C911 C910 1.397 . S
C911 C912 1.334 . S
C912 H883 0.950 . S
C912 C911 1.334 . S
C912 C913 1.287 . S
C913 C912 1.287 . S
C913 C914 1.524 . S
C913 H916 0.999 . S
C914 H884 0.950 . S
C914 C913 1.524 . S
C914 C915 1.415 . S
C915 H885 0.950 . S
C915 C910 1.363 . S
C915 C914 1.415 . S
H916 C913 0.999 . S
H917 C898 0.913 . S
H918 C936 0.951 . S
H919 C938 0.951 . S
H920 C940 0.950 . S
H921 C941 0.950 . S
H922 C943 0.950 . S
H923 C946 0.950 . S
H924 C947 0.950 . S
H925 C949 0.950 . S
H926 C950 0.950 . S
H927 C951 0.951 . S
H928 C953 0.951 . S
H929 C955 0.950 . S
H930 C956 0.950 . S
H931 C958 0.950 . S
H932 C961 0.950 . S
H933 C962 0.950 . S
H934 C964 0.950 . S
H935 C965 0.950 . S
C936 H918 0.951 . S
C936 C937 1.366 . S
C936 C938 1.388 . S
C937 C936 1.366 . S
C937 C941 1.385 . S
C938 H919 0.951 . S
C938 C936 1.388 . S
C938 C939 1.366 . S
C939 C938 1.366 . S
C939 C940 1.414 . S
C939 C942 1.499 . S
C940 H920 0.950 . S
C940 C939 1.414 . S
C940 C941 1.374 . S
C941 H921 0.950 . S
C941 C937 1.385 . S
C941 C940 1.374 . S
C942 C939 1.499 . S
C942 C943 1.373 . S
C942 C944 1.389 . S
C943 H922 0.950 . S
C943 C942 1.373 . S
C943 C959 1.377 . S
C944 C942 1.389 . S
C944 C945 1.524 . S
C944 C958 1.377 . S
C945 C944 1.524 . S
C945 C946 1.397 . S
C945 C950 1.363 . S
C946 H923 0.950 . S
C946 C945 1.397 . S
C946 C947 1.334 . S
C947 H924 0.950 . S
C947 C946 1.334 . S
C947 C948 1.287 . S
C948 C947 1.287 . S
C948 C949 1.524 . S
C948 H967 0.913 . S
C949 H925 0.950 . S
C949 C948 1.524 . S
C949 C950 1.415 . S
C950 H926 0.950 . S
C950 C945 1.363 . S
C950 C949 1.415 . S
C951 H927 0.951 . S
C951 C952 1.366 . S
C951 C953 1.388 . S
C952 C951 1.366 . S
C952 C956 1.385 . S
C953 H928 0.951 . S
C953 C951 1.388 . S
C953 C954 1.366 . S
C954 C953 1.366 . S
C954 C955 1.414 . S
C954 C957 1.499 . S
C955 H929 0.950 . S
C955 C954 1.414 . S
C955 C956 1.374 . S
C956 H930 0.950 . S
C956 C952 1.385 . S
C956 C955 1.374 . S
C957 C954 1.499 . S
C957 C958 1.373 . S
C957 C959 1.389 . S
C958 H931 0.950 . S
C958 C944 1.377 . S
C958 C957 1.373 . S
C959 C943 1.377 . S
C959 C957 1.389 . S
C959 C960 1.524 . S
C960 C959 1.524 . S
C960 C961 1.397 . S
C960 C965 1.363 . S
C961 H932 0.950 . S
C961 C960 1.397 . S
C961 C962 1.334 . S
C962 H933 0.950 . S
C962 C961 1.334 . S
C962 C963 1.287 . S
C963 C962 1.287 . S
C963 C964 1.524 . S
C963 H966 0.999 . S
C964 H934 0.950 . S
C964 C963 1.524 . S
C964 C965 1.415 . S
C965 H935 0.950 . S
C965 C960 1.363 . S
C965 C964 1.415 . S
H966 C963 0.999 . S
H967 C948 0.913 . S
H968 C986 0.951 . S
H969 C988 0.951 . S
H970 C990 0.950 . S
H971 C991 0.950 . S
H972 C993 0.950 . S
H973 C996 0.950 . S
H974 C997 0.950 . S
H975 C999 0.950 . S
H976 C1000 0.950 . S
H977 C1001 0.951 . S
H978 C1003 0.951 . S
H979 C1005 0.950 . S
H980 C1006 0.950 1_554 S
H981 C1008 0.950 . S
H982 C1011 0.950 . S
H983 C1012 0.950 . S
H984 C1014 0.950 . S
H985 C1015 0.950 . S
C986 H968 0.951 . S
C986 C987 1.366 . S
C986 C988 1.388 . S
C987 C986 1.366 . S
C987 C991 1.385 . S
C988 H969 0.951 . S
C988 C986 1.388 . S
C988 C989 1.366 . S
C989 C988 1.366 . S
C989 C990 1.414 . S
C989 C992 1.499 . S
C990 H970 0.950 . S
C990 C989 1.414 . S
C990 C991 1.374 . S
C991 H971 0.950 . S
C991 C987 1.385 . S
C991 C990 1.374 . S
C992 C989 1.499 . S
C992 C993 1.373 . S
C992 C994 1.389 . S
C993 H972 0.950 . S
C993 C992 1.373 . S
C993 C1009 1.377 . S
C994 C992 1.389 . S
C994 C995 1.524 . S
C994 C1008 1.377 . S
C995 C994 1.524 . S
C995 C996 1.397 . S
C995 C1000 1.363 . S
C996 H973 0.950 . S
C996 C995 1.397 . S
C996 C997 1.334 . S
C997 H974 0.950 . S
C997 C996 1.334 . S
C997 C998 1.287 . S
C998 C997 1.287 . S
C998 C999 1.524 . S
C998 H1017 0.913 . S
C999 H975 0.950 . S
C999 C998 1.524 . S
C999 C1000 1.415 . S
C1000 H976 0.950 . S
C1000 C995 1.363 . S
C1000 C999 1.415 . S
C1001 H977 0.951 . S
C1001 C1002 1.366 . S
C1001 C1003 1.388 . S
C1002 C1001 1.366 . S
C1002 C1006 1.385 . S
C1003 H978 0.951 . S
C1003 C1001 1.388 . S
C1003 C1004 1.366 . S
C1004 C1003 1.366 . S
C1004 C1005 1.414 . S
C1004 C1007 1.499 . S
C1005 H979 0.950 . S
C1005 C1004 1.414 . S
C1005 C1006 1.374 . S
C1006 H980 0.950 1_556 S
C1006 C1002 1.385 . S
C1006 C1005 1.374 . S
C1007 C1004 1.499 . S
C1007 C1008 1.373 . S
C1007 C1009 1.389 . S
C1008 H981 0.950 . S
C1008 C994 1.377 . S
C1008 C1007 1.373 . S
C1009 C993 1.377 . S
C1009 C1007 1.389 . S
C1009 C1010 1.524 . S
C1010 C1009 1.524 . S
C1010 C1011 1.397 . S
C1010 C1015 1.363 . S
C1011 H982 0.950 . S
C1011 C1010 1.397 . S
C1011 C1012 1.334 . S
C1012 H983 0.950 . S
C1012 C1011 1.334 . S
C1012 C1013 1.287 . S
C1013 C1012 1.287 . S
C1013 C1014 1.524 . S
C1013 H1016 0.999 . S
C1014 H984 0.950 . S
C1014 C1013 1.524 . S
C1014 C1015 1.415 . S
C1015 H985 0.950 . S
C1015 C1010 1.363 . S
C1015 C1014 1.415 . S
H1016 C1013 0.999 . S
H1017 C998 0.913 . S
H1018 C1036 0.951 . S
H1019 C1038 0.951 . S
H1020 C1040 0.950 . S
H1021 C1041 0.950 . S
H1022 C1043 0.950 . S
H1023 C1046 0.950 . S
H1024 C1047 0.950 . S
H1025 C1049 0.950 . S
H1026 C1050 0.950 . S
H1027 C1051 0.951 . S
H1028 C1053 0.951 . S
H1029 C1055 0.950 . S
H1030 C1056 0.950 . S
H1031 C1058 0.950 . S
H1032 C1061 0.950 . S
H1033 C1062 0.950 . S
H1034 C1064 0.950 . S
H1035 C1065 0.950 . S
C1036 H1018 0.951 . S
C1036 C1037 1.366 . S
C1036 C1038 1.388 . S
C1037 C1036 1.366 . S
C1037 C1041 1.385 . S
C1038 H1019 0.951 . S
C1038 C1036 1.388 . S
C1038 C1039 1.366 . S
C1039 C1038 1.366 . S
C1039 C1040 1.414 . S
C1039 C1042 1.499 . S
C1040 H1020 0.950 . S
C1040 C1039 1.414 . S
C1040 C1041 1.374 . S
C1041 H1021 0.950 . S
C1041 C1037 1.385 . S
C1041 C1040 1.374 . S
C1042 C1039 1.499 . S
C1042 C1043 1.373 . S
C1042 C1044 1.389 . S
C1043 H1022 0.950 . S
C1043 C1042 1.373 . S
C1043 C1059 1.377 . S
C1044 C1042 1.389 . S
C1044 C1045 1.524 . S
C1044 C1058 1.377 . S
C1045 C1044 1.524 . S
C1045 C1046 1.397 . S
C1045 C1050 1.363 . S
C1046 H1023 0.950 . S
C1046 C1045 1.397 . S
C1046 C1047 1.334 . S
C1047 H1024 0.950 . S
C1047 C1046 1.334 . S
C1047 C1048 1.287 . S
C1048 C1047 1.287 . S
C1048 C1049 1.524 . S
C1048 H1067 0.913 . S
C1049 H1025 0.950 . S
C1049 C1048 1.524 . S
C1049 C1050 1.415 . S
C1050 H1026 0.950 . S
C1050 C1045 1.363 . S
C1050 C1049 1.415 . S
C1051 H1027 0.951 . S
C1051 C1052 1.366 . S
C1051 C1053 1.388 . S
C1052 C1051 1.366 . S
C1052 C1056 1.385 . S
C1053 H1028 0.951 . S
C1053 C1051 1.388 . S
C1053 C1054 1.366 . S
C1054 C1053 1.366 . S
C1054 C1055 1.414 . S
C1054 C1057 1.499 . S
C1055 H1029 0.950 . S
C1055 C1054 1.414 . S
C1055 C1056 1.374 . S
C1056 H1030 0.950 . S
C1056 C1052 1.385 . S
C1056 C1055 1.374 . S
C1057 C1054 1.499 . S
C1057 C1058 1.373 . S
C1057 C1059 1.389 . S
C1058 H1031 0.950 . S
C1058 C1044 1.377 . S
C1058 C1057 1.373 . S
C1059 C1043 1.377 . S
C1059 C1057 1.389 . S
C1059 C1060 1.524 . S
C1060 C1059 1.524 . S
C1060 C1061 1.397 . S
C1060 C1065 1.363 . S
C1061 H1032 0.950 . S
C1061 C1060 1.397 . S
C1061 C1062 1.334 . S
C1062 H1033 0.950 . S
C1062 C1061 1.334 . S
C1062 C1063 1.287 . S
C1063 C1062 1.287 . S
C1063 C1064 1.524 . S
C1063 H1066 0.999 . S
C1064 H1034 0.950 . S
C1064 C1063 1.524 . S
C1064 C1065 1.415 . S
C1065 H1035 0.950 . S
C1065 C1060 1.363 . S
C1065 C1064 1.415 . S
H1066 C1063 0.999 . S
H1067 C1048 0.913 . S
H1068 C1086 0.951 . S
H1069 C1088 0.951 . S
H1070 C1090 0.950 . S
H1071 C1091 0.950 . S
H1072 C1093 0.950 . S
H1073 C1096 0.950 . S
H1074 C1097 0.950 . S
H1075 C1099 0.950 . S
H1076 C1100 0.950 . S
H1077 C1101 0.951 . S
H1078 C1103 0.951 . S
H1079 C1105 0.950 . S
H1080 C1106 0.950 . S
H1081 C1108 0.950 . S
H1082 C1111 0.950 . S
H1083 C1112 0.950 . S
H1084 C1114 0.950 . S
H1085 C1115 0.950 . S
C1086 H1068 0.951 . S
C1086 C1087 1.366 . S
C1086 C1088 1.388 . S
C1087 C1086 1.366 . S
C1087 C1091 1.385 . S
C1088 H1069 0.951 . S
C1088 C1086 1.388 . S
C1088 C1089 1.366 . S
C1089 C1088 1.366 . S
C1089 C1090 1.414 . S
C1089 C1092 1.499 . S
C1090 H1070 0.950 . S
C1090 C1089 1.414 . S
C1090 C1091 1.374 . S
C1091 H1071 0.950 . S
C1091 C1087 1.385 . S
C1091 C1090 1.374 . S
C1092 C1089 1.499 . S
C1092 C1093 1.373 . S
C1092 C1094 1.389 . S
C1093 H1072 0.950 . S
C1093 C1092 1.373 . S
C1093 C1109 1.377 . S
C1094 C1092 1.389 . S
C1094 C1095 1.524 . S
C1094 C1108 1.377 . S
C1095 C1094 1.524 . S
C1095 C1096 1.397 . S
C1095 C1100 1.363 . S
C1096 H1073 0.950 . S
C1096 C1095 1.397 . S
C1096 C1097 1.334 . S
C1097 H1074 0.950 . S
C1097 C1096 1.334 . S
C1097 C1098 1.287 . S
C1098 C1097 1.287 . S
C1098 C1099 1.524 . S
C1098 H1117 0.913 . S
C1099 H1075 0.950 . S
C1099 C1098 1.524 . S
C1099 C1100 1.415 . S
C1100 H1076 0.950 . S
C1100 C1095 1.363 . S
C1100 C1099 1.415 . S
C1101 H1077 0.951 . S
C1101 C1102 1.366 . S
C1101 C1103 1.388 . S
C1102 C1101 1.366 . S
C1102 C1106 1.385 . S
C1103 H1078 0.951 . S
C1103 C1101 1.388 . S
C1103 C1104 1.366 . S
C1104 C1103 1.366 . S
C1104 C1105 1.414 . S
C1104 C1107 1.499 . S
C1105 H1079 0.950 . S
C1105 C1104 1.414 . S
C1105 C1106 1.374 . S
C1106 H1080 0.950 . S
C1106 C1102 1.385 . S
C1106 C1105 1.374 . S
C1107 C1104 1.499 . S
C1107 C1108 1.373 . S
C1107 C1109 1.389 . S
C1108 H1081 0.950 . S
C1108 C1094 1.377 . S
C1108 C1107 1.373 . S
C1109 C1093 1.377 . S
C1109 C1107 1.389 . S
C1109 C1110 1.524 . S
C1110 C1109 1.524 . S
C1110 C1111 1.397 . S
C1110 C1115 1.363 . S
C1111 H1082 0.950 . S
C1111 C1110 1.397 . S
C1111 C1112 1.334 . S
C1112 H1083 0.950 . S
C1112 C1111 1.334 . S
C1112 C1113 1.287 . S
C1113 C1112 1.287 . S
C1113 C1114 1.524 . S
C1113 H1116 0.999 . S
C1114 H1084 0.950 . S
C1114 C1113 1.524 . S
C1114 C1115 1.415 . S
C1115 H1085 0.950 . S
C1115 C1110 1.363 . S
C1115 C1114 1.415 . S
H1116 C1113 0.999 . S
H1117 C1098 0.913 . S
H1118 C1136 0.951 . S
H1119 C1138 0.951 . S
H1120 C1140 0.950 . S
H1121 C1141 0.950 . S
H1122 C1143 0.950 . S
H1123 C1146 0.950 . S
H1124 C1147 0.950 . S
H1125 C1149 0.950 . S
H1126 C1150 0.950 . S
H1127 C1151 0.951 . S
H1128 C1153 0.951 . S
H1129 C1155 0.950 . S
H1130 C1156 0.950 . S
H1131 C1158 0.950 . S
H1132 C1161 0.950 . S
H1133 C1162 0.950 . S
H1134 C1164 0.950 . S
H1135 C1165 0.950 . S
C1136 H1118 0.951 . S
C1136 C1137 1.366 . S
C1136 C1138 1.388 . S
C1137 C1136 1.366 . S
C1137 C1141 1.385 . S
C1138 H1119 0.951 . S
C1138 C1136 1.388 . S
C1138 C1139 1.366 . S
C1139 C1138 1.366 . S
C1139 C1140 1.414 . S
C1139 C1142 1.499 . S
C1140 H1120 0.950 . S
C1140 C1139 1.414 . S
C1140 C1141 1.374 . S
C1141 H1121 0.950 . S
C1141 C1137 1.385 . S
C1141 C1140 1.374 . S
C1142 C1139 1.499 . S
C1142 C1143 1.373 . S
C1142 C1144 1.389 . S
C1143 H1122 0.950 . S
C1143 C1142 1.373 . S
C1143 C1159 1.377 . S
C1144 C1142 1.389 . S
C1144 C1145 1.524 . S
C1144 C1158 1.377 . S
C1145 C1144 1.524 . S
C1145 C1146 1.397 . S
C1145 C1150 1.363 . S
C1146 H1123 0.950 . S
C1146 C1145 1.397 . S
C1146 C1147 1.334 . S
C1147 H1124 0.950 . S
C1147 C1146 1.334 . S
C1147 C1148 1.287 . S
C1148 C1147 1.287 . S
C1148 C1149 1.524 . S
C1148 H1167 0.913 . S
C1149 H1125 0.950 . S
C1149 C1148 1.524 . S
C1149 C1150 1.415 . S
C1150 H1126 0.950 . S
C1150 C1145 1.363 . S
C1150 C1149 1.415 . S
C1151 H1127 0.951 . S
C1151 C1152 1.366 . S
C1151 C1153 1.388 . S
C1152 C1151 1.366 . S
C1152 C1156 1.385 . S
C1153 H1128 0.951 . S
C1153 C1151 1.388 . S
C1153 C1154 1.366 . S
C1154 C1153 1.366 . S
C1154 C1155 1.414 . S
C1154 C1157 1.499 . S
C1155 H1129 0.950 . S
C1155 C1154 1.414 . S
C1155 C1156 1.374 . S
C1156 H1130 0.950 . S
C1156 C1152 1.385 . S
C1156 C1155 1.374 . S
C1157 C1154 1.499 . S
C1157 C1158 1.373 . S
C1157 C1159 1.389 . S
C1158 H1131 0.950 . S
C1158 C1144 1.377 . S
C1158 C1157 1.373 . S
C1159 C1143 1.377 . S
C1159 C1157 1.389 . S
C1159 C1160 1.524 . S
C1160 C1159 1.524 . S
C1160 C1161 1.397 . S
C1160 C1165 1.363 . S
C1161 H1132 0.950 . S
C1161 C1160 1.397 . S
C1161 C1162 1.334 . S
C1162 H1133 0.950 . S
C1162 C1161 1.334 . S
C1162 C1163 1.287 . S
C1163 C1162 1.287 . S
C1163 C1164 1.524 . S
C1163 H1166 0.999 . S
C1164 H1134 0.950 . S
C1164 C1163 1.524 . S
C1164 C1165 1.415 . S
C1165 H1135 0.950 . S
C1165 C1160 1.363 . S
C1165 C1164 1.415 . S
H1166 C1163 0.999 . S
H1167 C1148 0.913 . S
H1168 C1186 0.951 . S
H1169 C1188 0.951 . S
H1170 C1190 0.950 . S
H1171 C1191 0.950 . S
H1172 C1193 0.950 . S
H1173 C1196 0.950 1_556 S
H1174 C1197 0.950 . S
H1175 C1199 0.950 . S
H1176 C1200 0.950 . S
H1177 C1201 0.951 . S
H1178 C1203 0.951 . S
H1179 C1205 0.950 . S
H1180 C1206 0.950 . S
H1181 C1208 0.950 . S
H1182 C1211 0.950 1_554 S
H1183 C1212 0.950 . S
H1184 C1214 0.950 . S
H1185 C1215 0.950 . S
C1186 H1168 0.951 . S
C1186 C1187 1.366 1_554 S
C1186 C1188 1.388 . S
C1187 C1186 1.366 1_556 S
C1187 C1191 1.385 . S
C1188 H1169 0.951 . S
C1188 C1186 1.388 . S
C1188 C1189 1.366 1_554 S
C1189 C1188 1.366 1_556 S
C1189 C1190 1.414 . S
C1189 C1192 1.499 . S
C1190 H1170 0.950 . S
C1190 C1189 1.414 . S
C1190 C1191 1.374 . S
C1191 H1171 0.950 . S
C1191 C1187 1.385 . S
C1191 C1190 1.374 . S
C1192 C1189 1.499 . S
C1192 C1193 1.373 . S
C1192 C1194 1.389 1_556 S
C1193 H1172 0.950 . S
C1193 C1192 1.373 . S
C1193 C1209 1.377 . S
C1194 C1192 1.389 1_554 S
C1194 C1195 1.524 . S
C1194 C1208 1.377 . S
C1195 C1194 1.524 . S
C1195 C1196 1.397 . S
C1195 C1200 1.363 . S
C1196 H1173 0.950 1_554 S
C1196 C1195 1.397 . S
C1196 C1197 1.334 . S
C1197 H1174 0.950 . S
C1197 C1196 1.334 . S
C1197 C1198 1.287 . S
C1198 C1197 1.287 . S
C1198 C1199 1.524 . S
C1198 H1217 0.913 . S
C1199 H1175 0.950 . S
C1199 C1198 1.524 . S
C1199 C1200 1.415 . S
C1200 H1176 0.950 . S
C1200 C1195 1.363 . S
C1200 C1199 1.415 . S
C1201 H1177 0.951 . S
C1201 C1202 1.366 1_556 S
C1201 C1203 1.388 . S
C1202 C1201 1.366 1_554 S
C1202 C1206 1.385 . S
C1203 H1178 0.951 . S
C1203 C1201 1.388 . S
C1203 C1204 1.366 1_556 S
C1204 C1203 1.366 1_554 S
C1204 C1205 1.414 . S
C1204 C1207 1.499 . S
C1205 H1179 0.950 . S
C1205 C1204 1.414 . S
C1205 C1206 1.374 . S
C1206 H1180 0.950 . S
C1206 C1202 1.385 . S
C1206 C1205 1.374 . S
C1207 C1204 1.499 . S
C1207 C1208 1.373 . S
C1207 C1209 1.389 1_554 S
C1208 H1181 0.950 . S
C1208 C1194 1.377 . S
C1208 C1207 1.373 . S
C1209 C1193 1.377 . S
C1209 C1207 1.389 1_556 S
C1209 C1210 1.524 . S
C1210 C1209 1.524 . S
C1210 C1211 1.397 . S
C1210 C1215 1.363 . S
C1211 H1182 0.950 1_556 S
C1211 C1210 1.397 . S
C1211 C1212 1.334 . S
C1212 H1183 0.950 . S
C1212 C1211 1.334 . S
C1212 C1213 1.287 . S
C1213 C1212 1.287 . S
C1213 C1214 1.524 . S
C1213 H1216 0.999 . S
C1214 H1184 0.950 . S
C1214 C1213 1.524 . S
C1214 C1215 1.415 . S
C1215 H1185 0.950 . S
C1215 C1210 1.363 . S
C1215 C1214 1.415 . S
H1216 C1213 0.999 . S
H1217 C1198 0.913 . S
H1218 C1236 0.951 . S
H1219 C1238 0.951 . S
H1220 C1240 0.950 . S
H1221 C1241 0.950 . S
H1222 C1243 0.950 . S
H1223 C1246 0.950 . S
H1224 C1247 0.950 . S
H1225 C1249 0.950 . S
H1226 C1250 0.950 . S
H1227 C1251 0.951 . S
H1228 C1253 0.951 . S
H1229 C1255 0.950 . S
H1230 C1256 0.950 . S
H1231 C1258 0.950 . S
H1232 C1261 0.950 . S
H1233 C1262 0.950 . S
H1234 C1264 0.950 . S
H1235 C1265 0.950 . S
C1236 H1218 0.951 . S
C1236 C1237 1.366 . S
C1236 C1238 1.388 . S
C1237 C1236 1.366 . S
C1237 C1241 1.385 . S
C1238 H1219 0.951 . S
C1238 C1236 1.388 . S
C1238 C1239 1.366 . S
C1239 C1238 1.366 . S
C1239 C1240 1.414 . S
C1239 C1242 1.499 . S
C1240 H1220 0.950 . S
C1240 C1239 1.414 . S
C1240 C1241 1.374 . S
C1241 H1221 0.950 . S
C1241 C1237 1.385 . S
C1241 C1240 1.374 . S
C1242 C1239 1.499 . S
C1242 C1243 1.373 . S
C1242 C1244 1.389 . S
C1243 H1222 0.950 . S
C1243 C1242 1.373 . S
C1243 C1259 1.377 . S
C1244 C1242 1.389 . S
C1244 C1245 1.524 . S
C1244 C1258 1.377 . S
C1245 C1244 1.524 . S
C1245 C1246 1.397 . S
C1245 C1250 1.363 . S
C1246 H1223 0.950 . S
C1246 C1245 1.397 . S
C1246 C1247 1.334 . S
C1247 H1224 0.950 . S
C1247 C1246 1.334 . S
C1247 C1248 1.287 . S
C1248 C1247 1.287 . S
C1248 C1249 1.524 . S
C1248 H1267 0.913 . S
C1249 H1225 0.950 . S
C1249 C1248 1.524 . S
C1249 C1250 1.415 . S
C1250 H1226 0.950 . S
C1250 C1245 1.363 . S
C1250 C1249 1.415 . S
C1251 H1227 0.951 . S
C1251 C1252 1.366 . S
C1251 C1253 1.388 . S
C1252 C1251 1.366 . S
C1252 C1256 1.385 . S
C1253 H1228 0.951 . S
C1253 C1251 1.388 . S
C1253 C1254 1.366 . S
C1254 C1253 1.366 . S
C1254 C1255 1.414 . S
C1254 C1257 1.499 . S
C1255 H1229 0.950 . S
C1255 C1254 1.414 . S
C1255 C1256 1.374 . S
C1256 H1230 0.950 . S
C1256 C1252 1.385 . S
C1256 C1255 1.374 . S
C1257 C1254 1.499 . S
C1257 C1258 1.373 . S
C1257 C1259 1.389 . S
C1258 H1231 0.950 . S
C1258 C1244 1.377 . S
C1258 C1257 1.373 . S
C1259 C1243 1.377 . S
C1259 C1257 1.389 . S
C1259 C1260 1.524 . S
C1260 C1259 1.524 . S
C1260 C1261 1.397 . S
C1260 C1265 1.363 . S
C1261 H1232 0.950 . S
C1261 C1260 1.397 . S
C1261 C1262 1.334 . S
C1262 H1233 0.950 . S
C1262 C1261 1.334 . S
C1262 C1263 1.287 . S
C1263 C1262 1.287 . S
C1263 C1264 1.524 . S
C1263 H1266 0.999 . S
C1264 H1234 0.950 . S
C1264 C1263 1.524 . S
C1264 C1265 1.415 . S
C1265 H1235 0.950 . S
C1265 C1260 1.363 . S
C1265 C1264 1.415 . S
H1266 C1263 0.999 . S
H1267 C1248 0.913 . S
H1268 C1286 0.951 . S
H1269 C1288 0.951 . S
H1270 C1290 0.950 . S
H1271 C1291 0.950 . S
H1272 C1293 0.950 . S
H1273 C1296 0.950 . S
H1274 C1297 0.950 . S
H1275 C1299 0.950 . S
H1276 C1300 0.950 . S
H1277 C1301 0.951 . S
H1278 C1303 0.951 . S
H1279 C1305 0.950 . S
H1280 C1306 0.950 . S
H1281 C1308 0.950 . S
H1282 C1311 0.950 . S
H1283 C1312 0.950 . S
H1284 C1314 0.950 . S
H1285 C1315 0.950 . S
C1286 H1268 0.951 . S
C1286 C1287 1.366 . S
C1286 C1288 1.388 . S
C1287 C1286 1.366 . S
C1287 C1291 1.385 . S
C1288 H1269 0.951 . S
C1288 C1286 1.388 . S
C1288 C1289 1.366 . S
C1289 C1288 1.366 . S
C1289 C1290 1.414 . S
C1289 C1292 1.499 . S
C1290 H1270 0.950 . S
C1290 C1289 1.414 . S
C1290 C1291 1.374 . S
C1291 H1271 0.950 . S
C1291 C1287 1.385 . S
C1291 C1290 1.374 . S
C1292 C1289 1.499 . S
C1292 C1293 1.373 . S
C1292 C1294 1.389 . S
C1293 H1272 0.950 . S
C1293 C1292 1.373 . S
C1293 C1309 1.377 . S
C1294 C1292 1.389 . S
C1294 C1295 1.524 . S
C1294 C1308 1.377 . S
C1295 C1294 1.524 . S
C1295 C1296 1.397 . S
C1295 C1300 1.363 . S
C1296 H1273 0.950 . S
C1296 C1295 1.397 . S
C1296 C1297 1.334 . S
C1297 H1274 0.950 . S
C1297 C1296 1.334 . S
C1297 C1298 1.287 . S
C1298 C1297 1.287 . S
C1298 C1299 1.524 . S
C1298 H1317 0.913 . S
C1299 H1275 0.950 . S
C1299 C1298 1.524 . S
C1299 C1300 1.415 . S
C1300 H1276 0.950 . S
C1300 C1295 1.363 . S
C1300 C1299 1.415 . S
C1301 H1277 0.951 . S
C1301 C1302 1.366 . S
C1301 C1303 1.388 . S
C1302 C1301 1.366 . S
C1302 C1306 1.385 . S
C1303 H1278 0.951 . S
C1303 C1301 1.388 . S
C1303 C1304 1.366 . S
C1304 C1303 1.366 . S
C1304 C1305 1.414 . S
C1304 C1307 1.499 . S
C1305 H1279 0.950 . S
C1305 C1304 1.414 . S
C1305 C1306 1.374 . S
C1306 H1280 0.950 . S
C1306 C1302 1.385 . S
C1306 C1305 1.374 . S
C1307 C1304 1.499 . S
C1307 C1308 1.373 . S
C1307 C1309 1.389 . S
C1308 H1281 0.950 . S
C1308 C1294 1.377 . S
C1308 C1307 1.373 . S
C1309 C1293 1.377 . S
C1309 C1307 1.389 . S
C1309 C1310 1.524 . S
C1310 C1309 1.524 . S
C1310 C1311 1.397 . S
C1310 C1315 1.363 . S
C1311 H1282 0.950 . S
C1311 C1310 1.397 . S
C1311 C1312 1.334 . S
C1312 H1283 0.950 . S
C1312 C1311 1.334 . S
C1312 C1313 1.287 . S
C1313 C1312 1.287 . S
C1313 C1314 1.524 . S
C1313 H1316 0.999 . S
C1314 H1284 0.950 . S
C1314 C1313 1.524 . S
C1314 C1315 1.415 . S
C1315 H1285 0.950 . S
C1315 C1310 1.363 . S
C1315 C1314 1.415 . S
H1316 C1313 0.999 . S
H1317 C1298 0.913 . S
H1318 C1336 0.951 1_556 S
H1319 C1338 0.951 1_556 S
H1320 C1340 0.950 . S
H1321 C1341 0.950 . S
H1322 C1343 0.950 . S
H1323 C1346 0.950 . S
H1324 C1347 0.950 . S
H1325 C1349 0.950 . S
H1326 C1350 0.950 . S
H1327 C1351 0.951 1_554 S
H1328 C1353 0.951 1_554 S
H1329 C1355 0.950 . S
H1330 C1356 0.950 . S
H1331 C1358 0.950 . S
H1332 C1361 0.950 . S
H1333 C1362 0.950 . S
H1334 C1364 0.950 . S
H1335 C1365 0.950 . S
C1336 H1318 0.951 1_554 S
C1336 C1337 1.366 . S
C1336 C1338 1.388 . S
C1337 C1336 1.366 . S
C1337 C1341 1.385 . S
C1338 H1319 0.951 1_554 S
C1338 C1336 1.388 . S
C1338 C1339 1.366 . S
C1339 C1338 1.366 . S
C1339 C1340 1.414 . S
C1339 C1342 1.499 . S
C1340 H1320 0.950 . S
C1340 C1339 1.414 . S
C1340 C1341 1.374 . S
C1341 H1321 0.950 . S
C1341 C1337 1.385 . S
C1341 C1340 1.374 . S
C1342 C1339 1.499 . S
C1342 C1343 1.373 . S
C1342 C1344 1.389 1_554 S
C1343 H1322 0.950 . S
C1343 C1342 1.373 . S
C1343 C1359 1.377 . S
C1344 C1342 1.389 1_556 S
C1344 C1345 1.524 . S
C1344 C1358 1.377 . S
C1345 C1344 1.524 . S
C1345 C1346 1.397 . S
C1345 C1350 1.363 . S
C1346 H1323 0.950 . S
C1346 C1345 1.397 . S
C1346 C1347 1.334 . S
C1347 H1324 0.950 . S
C1347 C1346 1.334 . S
C1347 C1348 1.287 . S
C1348 C1347 1.287 . S
C1348 C1349 1.524 . S
C1348 H1367 0.913 . S
C1349 H1325 0.950 . S
C1349 C1348 1.524 . S
C1349 C1350 1.415 . S
C1350 H1326 0.950 . S
C1350 C1345 1.363 . S
C1350 C1349 1.415 . S
C1351 H1327 0.951 1_556 S
C1351 C1352 1.366 . S
C1351 C1353 1.388 . S
C1352 C1351 1.366 . S
C1352 C1356 1.385 . S
C1353 H1328 0.951 1_556 S
C1353 C1351 1.388 . S
C1353 C1354 1.366 . S
C1354 C1353 1.366 . S
C1354 C1355 1.414 . S
C1354 C1357 1.499 . S
C1355 H1329 0.950 . S
C1355 C1354 1.414 . S
C1355 C1356 1.374 . S
C1356 H1330 0.950 . S
C1356 C1352 1.385 . S
C1356 C1355 1.374 . S
C1357 C1354 1.499 . S
C1357 C1358 1.373 . S
C1357 C1359 1.389 1_556 S
C1358 H1331 0.950 . S
C1358 C1344 1.377 . S
C1358 C1357 1.373 . S
C1359 C1343 1.377 . S
C1359 C1357 1.389 1_554 S
C1359 C1360 1.524 . S
C1360 C1359 1.524 . S
C1360 C1361 1.397 . S
C1360 C1365 1.363 . S
C1361 H1332 0.950 . S
C1361 C1360 1.397 . S
C1361 C1362 1.334 . S
C1362 H1333 0.950 . S
C1362 C1361 1.334 . S
C1362 C1363 1.287 . S
C1363 C1362 1.287 . S
C1363 C1364 1.524 . S
C1363 H1366 0.999 . S
C1364 H1334 0.950 . S
C1364 C1363 1.524 . S
C1364 C1365 1.415 . S
C1365 H1335 0.950 . S
C1365 C1360 1.363 . S
C1365 C1364 1.415 . S
H1366 C1363 0.999 . S
H1367 C1348 0.913 . S
C187 C7 1.311 . S
C202 C133 1.311 . S
C237 C21 1.311 . S
C252 C147 1.311 . S
C287 C35 1.311 . S
C302 C161 1.311 . S
C337 C49 1.311 . S
C352 C91 1.311 . S
C387 C105 1.312 . S
C402 C63 1.312 . S
C437 C119 1.312 . S
C452 C77 1.312 . S
C487 C151 1.846 . S
C502 C11 1.847 . S
C537 C25 1.846 . S
C552 C165 1.846 . S
C587 C39 1.846 . S
C602 C95 1.846 . S
C637 C53 1.846 . S
C652 C109 1.846 . S
C687 C67 1.846 . S
C702 C123 1.846 . S
C737 C81 1.846 . S
C752 C137 1.847 . S
C787 C153 0.636 . S
C802 C13 0.636 . S
C837 C27 0.637 . S
C852 C167 0.637 . S
C887 C41 0.638 . S
C902 C97 0.638 . S
C937 C55 0.637 . S
C952 C111 0.637 . S
C987 C69 0.638 . S
C1002 C125 0.638 . S
C1037 C83 0.639 . S
C1052 C139 0.639 . S
C1087 C8 1.543 . S
C1102 C92 1.543 . S
C1137 C106 1.543 . S
C1152 C22 1.543 . S
C1187 C36 1.543 . S
C1202 C120 1.543 . S
C1237 C50 1.542 . S
C1252 C134 1.542 . S
C1287 C64 1.543 . S
C1302 C148 1.543 . S
C1337 C162 1.543 . S
C1352 C78 1.543 . S
