# Generated by pormake.
# Topology sra, (4)-cn, num edge types: 1
# Building blocks:
#     Node 0, Type 0, BuildingBlock: QUQFOY_clean_sbu_1, # of connection points: 4
#     Node 1, Type 0, BuildingBlock: QUQFOY_clean_sbu_1, # of connection points: 4
#     Node 2, Type 0, BuildingBlock: QUQFOY_clean_sbu_1, # of connection points: 4
#     Node 3, Type 0, BuildingBlock: QUQFOY_clean_sbu_1, # of connection points: 4
#     Node 4, Type 0, BuildingBlock: QUQFOY_clean_sbu_1, # of connection points: 4
#     Node 5, Type 0, BuildingBlock: QUQFOY_clean_sbu_1, # of connection points: 4
#     Node 6, Type 0, BuildingBlock: QUQFOY_clean_sbu_1, # of connection points: 4
#     Node 7, Type 0, BuildingBlock: QUQFOY_clean_sbu_1, # of connection points: 4
#     Edge 8, Type (0, 0), BuildingBlock: AJUNOK_clean_linker_0, # of connection points: 2
#     Edge 9, Type (0, 0), BuildingBlock: AJUNOK_clean_linker_0, # of connection points: 2
#     Edge 10, Type (0, 0), BuildingBlock: AJUNOK_clean_linker_0, # of connection points: 2
#     Edge 11, Type (0, 0), BuildingBlock: AJUNOK_clean_linker_0, # of connection points: 2
#     Edge 12, Type (0, 0), BuildingBlock: AJUNOK_clean_linker_0, # of connection points: 2
#     Edge 13, Type (0, 0), BuildingBlock: AJUNOK_clean_linker_0, # of connection points: 2
#     Edge 14, Type (0, 0), BuildingBlock: AJUNOK_clean_linker_0, # of connection points: 2
#     Edge 15, Type (0, 0), BuildingBlock: AJUNOK_clean_linker_0, # of connection points: 2
#     Edge 16, Type (0, 0), BuildingBlock: AJUNOK_clean_linker_0, # of connection points: 2
#     Edge 17, Type (0, 0), BuildingBlock: AJUNOK_clean_linker_0, # of connection points: 2
#     Edge 18, Type (0, 0), BuildingBlock: AJUNOK_clean_linker_0, # of connection points: 2
#     Edge 19, Type (0, 0), BuildingBlock: AJUNOK_clean_linker_0, # of connection points: 2
#     Edge 20, Type (0, 0), BuildingBlock: AJUNOK_clean_linker_0, # of connection points: 2
#     Edge 21, Type (0, 0), BuildingBlock: AJUNOK_clean_linker_0, # of connection points: 2
#     Edge 22, Type (0, 0), BuildingBlock: AJUNOK_clean_linker_0, # of connection points: 2
#     Edge 23, Type (0, 0), BuildingBlock: AJUNOK_clean_linker_0, # of connection points: 2
# Relax obj value: 0.049
# Max RMSD: 0.075
# Mean RMSD: 0.075
data_MOF--net-sra--node1-QUQFOY_clean_sbu_1--edge1-AJUNOK_clean_linker_0
_symmetry_space_group_name_H-M    P1
_symmetry_Int_Tables_number       1
_symmetry_cell_setting            triclinic
loop_
_symmetry_equiv_pos_as_xyz
'x, y, z'
_cell_length_a     20.738332
_cell_length_b     39.302862
_cell_length_c     25.958796
_cell_angle_alpha  89.832694
_cell_angle_beta   89.972146
_cell_angle_gamma 90.120994
loop_
_atom_site_label
_atom_site_type_symbol
_atom_site_fract_x
_atom_site_fract_y
_atom_site_fract_z
_atom_type_partial_charge
O0 O 0.96123 0.11373 0.14713 0.0
Cd1 Cd 0.04504 0.12178 0.10646 0.0
Cd2 Cd 0.09711 0.12111 0.19958 0.0
O3 O 1.00893 0.10025 0.22029 0.0
O4 O 0.03777 0.1001 0.03711 0.0
O5 O 0.10005 0.08049 0.09989 0.0
C6 C 0.07662 0.07701 0.05418 0.0
C7 C 0.19806 0.09981 0.22375 0.0
C8 C 0.95791 0.10285 0.19323 0.0
C9 C 0.09291 0.18813 0.14249 0.0
O10 O 0.09802 0.17262 0.18532 0.0
O11 O 0.07765 0.17166 0.10214 0.0
O12 O 0.16073 0.11421 0.25693 0.0
O13 O 0.17594 0.09542 0.17784 0.0
O14 O 0.20855 0.41606 0.16008 0.0
Cd15 Cd 0.12925 0.40557 0.115 0.0
Cd16 Cd 0.07664 0.40096 0.20546 0.0
O17 O 0.15741 0.42574 0.23274 0.0
O18 O 0.15399 0.42594 0.04782 0.0
O19 O 0.0728 0.44505 0.09505 0.0
C20 C 0.11028 0.44865 0.05565 0.0
C21 C 0.97135 0.41764 0.2241 0.0
C22 C 0.20922 0.42598 0.20658 0.0
C23 C 0.09781 0.33615 0.14595 0.0
O24 O 0.08889 0.35003 0.18956 0.0
O25 O 0.10693 0.35446 0.10611 0.0
O26 O 1.00748 0.40372 0.25867 0.0
O27 O 0.99632 0.42362 0.17937 0.0
O28 O 0.96054 0.91292 0.85298 0.0
Cd29 Cd 0.04498 0.9047 0.89248 0.0
Cd30 Cd 0.09408 0.90338 0.79918 0.0
O31 O 1.00776 0.9265 0.77969 0.0
O32 O 0.03915 0.92764 0.96091 0.0
O33 O 0.10125 0.94573 0.89683 0.0
C34 C 0.07777 0.95041 0.94229 0.0
C35 C 0.19595 0.92256 0.77299 0.0
C36 C 0.957 0.92425 0.80716 0.0
C37 C 0.08514 0.83708 0.85747 0.0
O38 O 0.08929 0.85191 0.81398 0.0
O39 O 0.0751 0.85451 0.89791 0.0
O40 O 0.15657 0.90883 0.74064 0.0
O41 O 0.176 0.92704 0.81953 0.0
O42 O 0.20919 0.6102 0.83799 0.0
Cd43 Cd 0.12958 0.61947 0.88306 0.0
Cd44 Cd 0.07468 0.62354 0.79296 0.0
O45 O 0.15792 0.60138 0.76514 0.0
O46 O 0.15361 0.59822 0.94967 0.0
O47 O 0.07328 0.57943 0.90099 0.0
C48 C 0.11016 0.57546 0.94062 0.0
C49 C 0.97195 0.60446 0.77025 0.0
C50 C 0.20985 0.60114 0.79112 0.0
C51 C 0.09053 0.68848 0.85412 0.0
O52 O 0.08055 0.67463 0.8106 0.0
O53 O 0.10508 0.67012 0.89283 0.0
O54 O 1.0085 0.62002 0.73757 0.0
O55 O 0.99487 0.59842 0.81562 0.0
O56 O 0.46281 0.61156 0.64717 0.0
Cd57 Cd 0.54603 0.62062 0.60602 0.0
Cd58 Cd 0.5973 0.62257 0.69851 0.0
O59 O 0.51189 0.59928 0.72009 0.0
O60 O 0.53818 0.59893 0.53674 0.0
O61 O 0.60285 0.58001 0.59843 0.0
C62 C 0.57848 0.57632 0.55307 0.0
C63 C 0.7003 0.60356 0.72125 0.0
C64 C 0.46046 0.60088 0.69344 0.0
C65 C 0.586 0.68867 0.64034 0.0
O66 O 0.5918 0.67399 0.6838 0.0
O67 O 0.57482 0.67109 0.60024 0.0
O68 O 0.66266 0.61724 0.75491 0.0
O69 O 0.67773 0.59888 0.67554 0.0
O70 O 0.7078 0.9156 0.66139 0.0
Cd71 Cd 0.62994 0.9062 0.61443 0.0
Cd72 Cd 0.57131 0.90228 0.70321 0.0
O73 O 0.65385 0.92424 0.73302 0.0
O74 O 0.65431 0.92846 0.54846 0.0
O75 O 0.57203 0.94537 0.59655 0.0
C76 C 0.60892 0.95014 0.55708 0.0
C77 C 0.46757 0.9211 0.72345 0.0
C78 C 0.70688 0.92427 0.70846 0.0
C79 C 0.58955 0.83724 0.64249 0.0
O80 O 0.57744 0.85121 0.68558 0.0
O81 O 0.60615 0.85549 0.60414 0.0
O82 O 0.5028 0.90556 0.75697 0.0
O83 O 0.49267 0.92755 0.67895 0.0
O84 O 0.46219 0.41441 0.34888 0.0
Cd85 Cd 0.54568 0.40514 0.38949 0.0
Cd86 Cd 0.59469 0.40212 0.29709 0.0
O87 O 0.51145 0.42751 0.27635 0.0
O88 O 0.53915 0.42813 0.45778 0.0
O89 O 0.60386 0.44544 0.39484 0.0
C90 C 0.57938 0.45038 0.43991 0.0
C91 C 0.69854 0.41866 0.27192 0.0
C92 C 0.46001 0.42582 0.30302 0.0
C93 C 0.57839 0.33657 0.35573 0.0
O94 O 0.58325 0.35096 0.31198 0.0
O95 O 0.57235 0.35443 0.39624 0.0
O96 O 0.6586 0.40567 0.23931 0.0
O97 O 0.67835 0.42365 0.3183 0.0
O98 O 0.70887 0.11304 0.3401 0.0
Cd99 Cd 0.63031 0.12144 0.38669 0.0
Cd100 Cd 0.57001 0.1219 0.2981 0.0
O101 O 0.65483 0.10183 0.26932 0.0
O102 O 0.65338 0.09936 0.45301 0.0
O103 O 0.57321 0.08161 0.40317 0.0
C104 C 0.60894 0.07721 0.44338 0.0
C105 C 0.46869 0.10091 0.27448 0.0
C106 C 0.70809 0.10348 0.29342 0.0
C107 C 0.58203 0.18845 0.35677 0.0
O108 O 0.57053 0.17323 0.31459 0.0
O109 O 0.60254 0.17165 0.39538 0.0
O110 O 0.50472 0.11708 0.24214 0.0
O111 O 0.49148 0.09518 0.31994 0.0
C112 C 0.07853 0.28081 0.0998 0.0
C113 C 0.10125 0.29857 0.14313 0.0
C114 C 0.07787 0.24499 0.09892 0.0
C115 C 0.10057 0.22577 0.14113 0.0
H116 H 0.05917 0.29462 0.06713 0.0
H117 H 0.05767 0.23236 0.06558 0.0
S118 S 0.17472 0.26063 0.26026 0.0
N119 N 0.15322 0.29449 0.2268 0.0
N120 N 0.1531 0.22766 0.22501 0.0
C121 C 0.12677 0.24347 0.18339 0.0
C122 C 0.12678 0.27972 0.18442 0.0
C123 C 0.08411 0.78102 0.81281 0.0
C124 C 0.08785 0.79925 0.8593 0.0
C125 C 0.08418 0.7455 0.81207 0.0
C126 C 0.08853 0.72626 0.85776 0.0
H127 H 0.08042 0.79423 0.77624 0.0
H128 H 0.08127 0.7331 0.77493 0.0
S129 S 0.10003 0.76136 0.99014 0.0
N130 N 0.09615 0.79531 0.95263 0.0
N131 N 0.09699 0.72822 0.95123 0.0
C132 C 0.09262 0.74402 0.90475 0.0
C133 C 0.09205 0.7805 0.90552 0.0
C134 C 0.58357 0.74485 0.68453 0.0
C135 C 0.58806 0.72649 0.63821 0.0
C136 C 0.58319 0.78037 0.68496 0.0
C137 C 0.58788 0.79945 0.63914 0.0
H138 H 0.57962 0.73174 0.72116 0.0
H139 H 0.57976 0.79289 0.72198 0.0
S140 S 0.60119 0.76396 0.50714 0.0
N141 N 0.59729 0.73012 0.5449 0.0
N142 N 0.59737 0.79723 0.54575 0.0
C143 C 0.59268 0.78156 0.59233 0.0
C144 C 0.5925 0.74508 0.59185 0.0
C145 C 0.60226 0.28074 0.3995 0.0
C146 C 0.57525 0.29896 0.35812 0.0
C147 C 0.60264 0.24492 0.39981 0.0
C148 C 0.57532 0.22613 0.35902 0.0
H149 H 0.62504 0.29422 0.43099 0.0
H150 H 0.62605 0.23194 0.43153 0.0
S151 S 0.4895 0.26228 0.2457 0.0
N152 N 0.51479 0.29578 0.27812 0.0
N153 N 0.51431 0.22894 0.2789 0.0
C154 C 0.54506 0.24429 0.31888 0.0
C155 C 0.54537 0.28055 0.31837 0.0
C156 C 0.35339 0.09379 0.30031 0.0
C157 C 0.40074 0.09313 0.26151 0.0
C158 C 0.28751 0.09386 0.28795 0.0
C159 C 0.26655 0.09267 0.23638 0.0
H160 H 0.36719 0.09652 0.34034 0.0
H161 H 0.25289 0.0964 0.31895 0.0
S162 S 0.37175 0.08514 0.12109 0.0
N163 N 0.42243 0.08747 0.16998 0.0
N164 N 0.29891 0.08682 0.14663 0.0
C165 C 0.31353 0.08913 0.19754 0.0
C166 C 0.38055 0.08961 0.21013 0.0
C167 C 0.814 0.42486 0.29755 0.0
C168 C 0.76727 0.42415 0.25828 0.0
C169 C 0.88002 0.42434 0.28601 0.0
C170 C 0.90203 0.4237 0.23474 0.0
H171 H 0.79966 0.42404 0.33767 0.0
H172 H 0.91402 0.42337 0.31765 0.0
S173 S 0.79941 0.42589 0.11763 0.0
N174 N 0.7476 0.4257 0.16595 0.0
N175 N 0.87171 0.42535 0.14422 0.0
C176 C 0.8559 0.42526 0.19503 0.0
C177 C 0.78854 0.42529 0.20681 0.0
C178 C 0.31144 0.92891 0.79811 0.0
C179 C 0.26433 0.92887 0.75911 0.0
C180 C 0.37731 0.92825 0.78614 0.0
C181 C 0.39878 0.92814 0.73472 0.0
H182 H 0.29747 0.92745 0.83827 0.0
H183 H 0.4116 0.92652 0.81751 0.0
S184 S 0.2951 0.93288 0.61838 0.0
N185 N 0.24374 0.93209 0.66702 0.0
N186 N 0.36766 0.93157 0.64448 0.0
C187 C 0.35233 0.93072 0.69537 0.0
C188 C 0.28509 0.93085 0.70758 0.0
C189 C 0.79067 0.59838 0.78477 0.0
C190 C 0.76917 0.59707 0.73336 0.0
C191 C 0.85667 0.59824 0.79671 0.0
C192 C 0.90362 0.59738 0.75762 0.0
H193 H 0.75638 0.6009 0.81602 0.0
H194 H 0.87088 0.60092 0.83665 0.0
S195 S 0.87313 0.58929 0.6174 0.0
N196 N 0.80057 0.59114 0.64341 0.0
N197 N 0.92433 0.59162 0.66594 0.0
C198 C 0.88289 0.59392 0.70636 0.0
C199 C 0.81573 0.59353 0.69421 0.0
C200 C 0.82635 0.93258 0.7061 0.0
C201 C 0.76905 0.93077 0.73517 0.0
C202 C 0.88692 0.93268 0.72988 0.0
C203 C 0.89285 0.93079 0.78377 0.0
H204 H 0.82473 0.93249 0.66439 0.0
H205 H 0.92934 0.93244 0.70551 0.0
S206 S 0.75788 0.93123 0.87795 0.0
N207 N 0.72215 0.93122 0.82115 0.0
N208 N 0.83603 0.93139 0.86588 0.0
C209 C 0.83598 0.93157 0.81351 0.0
C210 C 0.77412 0.9316 0.78923 0.0
C211 C 0.33987 0.59923 0.68878 0.0
C212 C 0.39664 0.59427 0.71769 0.0
C213 C 0.27903 0.59917 0.71229 0.0
C214 C 0.27249 0.5943 0.7657 0.0
H215 H 0.34238 0.60482 0.64794 0.0
H216 H 0.23727 0.60491 0.68878 0.0
S217 S 0.40428 0.57394 0.85745 0.0
N218 N 0.44116 0.57969 0.80172 0.0
N219 N 0.32684 0.57971 0.84577 0.0
C220 C 0.32818 0.58663 0.79443 0.0
C221 C 0.3902 0.58654 0.77048 0.0
C222 C 0.82786 0.09647 0.29539 0.0
C223 C 0.77032 0.09743 0.26658 0.0
C224 C 0.88826 0.09614 0.27128 0.0
C225 C 0.8938 0.097 0.21729 0.0
H226 H 0.82652 0.09723 0.33709 0.0
H227 H 0.93087 0.09691 0.29537 0.0
S228 S 0.75814 0.09473 0.12392 0.0
N229 N 0.72282 0.09553 0.1809 0.0
N230 N 0.83638 0.095 0.13556 0.0
C231 C 0.83671 0.09567 0.18792 0.0
C232 C 0.77503 0.09583 0.21254 0.0
C233 C 0.27862 0.42898 0.28514 0.0
C234 C 0.27193 0.4333 0.23164 0.0
C235 C 0.3396 0.42876 0.30837 0.0
C236 C 0.39633 0.433 0.27907 0.0
H237 H 0.23686 0.42368 0.30895 0.0
H238 H 0.34221 0.42353 0.3493 0.0
S239 S 0.40377 0.45182 0.13883 0.0
N240 N 0.32622 0.44673 0.15099 0.0
N241 N 0.4408 0.44644 0.19452 0.0
C242 C 0.38981 0.44031 0.22617 0.0
C243 C 0.32765 0.44039 0.2025 0.0
C244 C 0.08955 0.01409 0.05104 0.0
C245 C 0.08769 0.04546 0.0248 0.0
C246 C 0.08892 0.98323 0.02406 0.0
C247 C 0.08856 0.98272 0.96994 0.0
H248 H 0.08774 1.01332 0.09275 0.0
H249 H 0.087 0.95963 0.04569 0.0
S250 S 0.08989 0.05801 0.8833 0.0
N251 N 0.08902 0.07423 0.94193 0.0
N252 N 0.09059 0.01628 0.89103 0.0
C253 C 0.09073 1.01394 0.94328 0.0
C254 C 0.08951 0.04533 0.97078 0.0
C255 C 0.05117 0.52783 0.98532 0.0
C256 C 0.10939 0.54348 0.9705 0.0
C257 C 0.05124 0.49693 0.01294 0.0
C258 C 0.10942 0.48017 0.0245 0.0
H259 H 1.00554 0.53979 0.97628 0.0
H260 H 1.00565 0.48596 0.02488 0.0
S261 S 0.27444 0.5102 0.99228 0.0
N262 N 0.22633 0.53984 0.96883 0.0
N263 N 0.22646 0.4815 0.01872 0.0
C264 C 0.16768 0.49534 0.00886 0.0
C265 C 0.16766 0.52708 0.98233 0.0
C266 C 0.59149 0.48275 0.52197 0.0
C267 C 0.59076 0.4825 0.46785 0.0
C268 C 0.59222 0.51349 0.54928 0.0
C269 C 0.59003 0.54496 0.52337 0.0
H270 H 0.58967 0.45905 0.54333 0.0
H271 H 0.59059 0.51253 0.59099 0.0
S272 S 0.59119 0.55816 0.382 0.0
N273 N 0.59218 0.5164 0.38929 0.0
N274 N 0.59065 0.57412 0.4408 0.0
C275 C 0.59154 0.54508 0.46934 0.0
C276 C 0.59272 0.51383 0.44151 0.0
C277 C 0.6637 0.99789 0.51251 0.0
C278 C 0.6057 0.98189 0.52677 0.0
C279 C 0.66371 0.02927 0.48701 0.0
C280 C 0.60573 0.04537 0.47344 0.0
H281 H 0.70965 0.98646 0.52217 0.0
H282 H 0.70965 0.04065 0.47686 0.0
S283 S 0.44076 1.0138 0.50106 0.0
N284 N 0.48864 0.98455 0.52616 0.0
N285 N 0.48866 0.04294 0.47538 0.0
C286 C 0.54725 0.02947 0.48664 0.0
C287 C 0.54724 0.99789 0.51418 0.0
loop_
_geom_bond_atom_site_label_1
_geom_bond_atom_site_label_2
_geom_bond_distance
_geom_bond_site_symmetry_2
_ccdc_geom_bond_type
O0 Cd1 2.223 1_655 S
O0 C8 1.315 . S
Cd1 O0 2.223 1_455 S
Cd1 O4 2.297 1_455 S
Cd1 O5 2.439 . S
Cd1 O11 2.240 . S
Cd2 O3 2.240 1_455 S
Cd2 O10 2.223 . S
Cd2 O12 2.297 . S
Cd2 O13 2.439 . S
O3 Cd2 2.240 1_655 S
O3 C8 1.279 . S
O4 Cd1 2.297 1_655 S
O4 C6 1.247 1_655 S
O5 Cd1 2.439 . S
O5 C6 1.208 . S
C6 O4 1.247 1_455 S
C6 O5 1.208 . S
C7 O12 1.247 . S
C7 O13 1.208 . S
C8 O0 1.315 . S
C8 O3 1.279 . S
C9 O10 1.315 . S
C9 O11 1.279 . S
O10 Cd2 2.223 . S
O10 C9 1.315 . S
O11 Cd1 2.240 . S
O11 C9 1.279 . S
O12 Cd2 2.297 . S
O12 C7 1.247 . S
O13 Cd2 2.439 . S
O13 C7 1.208 . S
O14 Cd15 2.223 . S
O14 C22 1.315 . S
Cd15 O14 2.223 . S
Cd15 O18 2.297 . S
Cd15 O19 2.439 . S
Cd15 O25 2.240 . S
Cd16 O17 2.240 . S
Cd16 O24 2.223 . S
Cd16 O26 2.297 1_455 S
Cd16 O27 2.439 1_455 S
O17 Cd16 2.240 . S
O17 C22 1.279 . S
O18 Cd15 2.297 . S
O18 C20 1.247 . S
O19 Cd15 2.439 . S
O19 C20 1.208 . S
C20 O18 1.247 . S
C20 O19 1.208 . S
C21 O26 1.247 . S
C21 O27 1.208 . S
C22 O14 1.315 . S
C22 O17 1.279 . S
C23 O24 1.315 . S
C23 O25 1.279 . S
O24 Cd16 2.223 . S
O24 C23 1.315 . S
O25 Cd15 2.240 . S
O25 C23 1.279 . S
O26 Cd16 2.297 1_655 S
O26 C21 1.247 . S
O27 Cd16 2.439 1_655 S
O27 C21 1.208 . S
O28 Cd29 2.223 1_655 S
O28 C36 1.315 . S
Cd29 O28 2.223 1_455 S
Cd29 O32 2.297 1_455 S
Cd29 O33 2.439 . S
Cd29 O39 2.240 . S
Cd30 O31 2.240 1_455 S
Cd30 O38 2.223 . S
Cd30 O40 2.297 . S
Cd30 O41 2.439 . S
O31 Cd30 2.240 1_655 S
O31 C36 1.279 . S
O32 Cd29 2.297 1_655 S
O32 C34 1.247 1_655 S
O33 Cd29 2.439 . S
O33 C34 1.208 . S
C34 O32 1.247 1_455 S
C34 O33 1.208 . S
C35 O40 1.247 . S
C35 O41 1.208 . S
C36 O28 1.315 . S
C36 O31 1.279 . S
C37 O38 1.315 . S
C37 O39 1.279 . S
O38 Cd30 2.223 . S
O38 C37 1.315 . S
O39 Cd29 2.240 . S
O39 C37 1.279 . S
O40 Cd30 2.297 . S
O40 C35 1.247 . S
O41 Cd30 2.439 . S
O41 C35 1.208 . S
O42 Cd43 2.223 . S
O42 C50 1.315 . S
Cd43 O42 2.223 . S
Cd43 O46 2.297 . S
Cd43 O47 2.439 . S
Cd43 O53 2.240 . S
Cd44 O45 2.240 . S
Cd44 O52 2.223 . S
Cd44 O54 2.297 1_455 S
Cd44 O55 2.439 1_455 S
O45 Cd44 2.240 . S
O45 C50 1.279 . S
O46 Cd43 2.297 . S
O46 C48 1.247 . S
O47 Cd43 2.439 . S
O47 C48 1.208 . S
C48 O46 1.247 . S
C48 O47 1.208 . S
C49 O54 1.247 . S
C49 O55 1.208 . S
C50 O42 1.315 . S
C50 O45 1.279 . S
C51 O52 1.315 . S
C51 O53 1.279 . S
O52 Cd44 2.223 . S
O52 C51 1.315 . S
O53 Cd43 2.240 . S
O53 C51 1.279 . S
O54 Cd44 2.297 1_655 S
O54 C49 1.247 . S
O55 Cd44 2.439 1_655 S
O55 C49 1.208 . S
O56 Cd57 2.223 . S
O56 C64 1.315 . S
Cd57 O56 2.223 . S
Cd57 O60 2.297 . S
Cd57 O61 2.439 . S
Cd57 O67 2.240 . S
Cd58 O59 2.240 . S
Cd58 O66 2.223 . S
Cd58 O68 2.297 . S
Cd58 O69 2.439 . S
O59 Cd58 2.240 . S
O59 C64 1.279 . S
O60 Cd57 2.297 . S
O60 C62 1.247 . S
O61 Cd57 2.439 . S
O61 C62 1.208 . S
C62 O60 1.247 . S
C62 O61 1.208 . S
C63 O68 1.247 . S
C63 O69 1.208 . S
C64 O56 1.315 . S
C64 O59 1.279 . S
C65 O66 1.315 . S
C65 O67 1.279 . S
O66 Cd58 2.223 . S
O66 C65 1.315 . S
O67 Cd57 2.240 . S
O67 C65 1.279 . S
O68 Cd58 2.297 . S
O68 C63 1.247 . S
O69 Cd58 2.439 . S
O69 C63 1.208 . S
O70 Cd71 2.223 . S
O70 C78 1.315 . S
Cd71 O70 2.223 . S
Cd71 O74 2.297 . S
Cd71 O75 2.439 . S
Cd71 O81 2.240 . S
Cd72 O73 2.240 . S
Cd72 O80 2.223 . S
Cd72 O82 2.297 . S
Cd72 O83 2.439 . S
O73 Cd72 2.240 . S
O73 C78 1.279 . S
O74 Cd71 2.297 . S
O74 C76 1.247 . S
O75 Cd71 2.439 . S
O75 C76 1.208 . S
C76 O74 1.247 . S
C76 O75 1.208 . S
C77 O82 1.247 . S
C77 O83 1.208 . S
C78 O70 1.315 . S
C78 O73 1.279 . S
C79 O80 1.315 . S
C79 O81 1.279 . S
O80 Cd72 2.223 . S
O80 C79 1.315 . S
O81 Cd71 2.240 . S
O81 C79 1.279 . S
O82 Cd72 2.297 . S
O82 C77 1.247 . S
O83 Cd72 2.439 . S
O83 C77 1.208 . S
O84 Cd85 2.223 . S
O84 C92 1.315 . S
Cd85 O84 2.223 . S
Cd85 O88 2.297 . S
Cd85 O89 2.439 . S
Cd85 O95 2.240 . S
Cd86 O87 2.240 . S
Cd86 O94 2.223 . S
Cd86 O96 2.297 . S
Cd86 O97 2.439 . S
O87 Cd86 2.240 . S
O87 C92 1.279 . S
O88 Cd85 2.297 . S
O88 C90 1.247 . S
O89 Cd85 2.439 . S
O89 C90 1.208 . S
C90 O88 1.247 . S
C90 O89 1.208 . S
C91 O96 1.247 . S
C91 O97 1.208 . S
C92 O84 1.315 . S
C92 O87 1.279 . S
C93 O94 1.315 . S
C93 O95 1.279 . S
O94 Cd86 2.223 . S
O94 C93 1.315 . S
O95 Cd85 2.240 . S
O95 C93 1.279 . S
O96 Cd86 2.297 . S
O96 C91 1.247 . S
O97 Cd86 2.439 . S
O97 C91 1.208 . S
O98 Cd99 2.223 . S
O98 C106 1.315 . S
Cd99 O98 2.223 . S
Cd99 O102 2.297 . S
Cd99 O103 2.439 . S
Cd99 O109 2.240 . S
Cd100 O101 2.240 . S
Cd100 O108 2.223 . S
Cd100 O110 2.297 . S
Cd100 O111 2.439 . S
O101 Cd100 2.240 . S
O101 C106 1.279 . S
O102 Cd99 2.297 . S
O102 C104 1.247 . S
O103 Cd99 2.439 . S
O103 C104 1.208 . S
C104 O102 1.247 . S
C104 O103 1.208 . S
C105 O110 1.247 . S
C105 O111 1.208 . S
C106 O98 1.315 . S
C106 O101 1.279 . S
C107 O108 1.315 . S
C107 O109 1.279 . S
O108 Cd100 2.223 . S
O108 C107 1.315 . S
O109 Cd99 2.240 . S
O109 C107 1.279 . S
O110 Cd100 2.297 . S
O110 C105 1.247 . S
O111 Cd100 2.439 . S
O111 C105 1.208 . S
C112 C113 1.369 . S
C112 C114 1.419 . S
C112 H116 0.930 1_455 S
C113 C112 1.369 . S
C113 C122 1.429 . S
C114 C112 1.419 . S
C114 C115 1.363 . S
C114 H117 0.929 1_455 S
C115 C114 1.363 . S
C115 C121 1.428 . S
H116 C112 0.930 1_655 S
H117 C114 0.929 1_655 S
S118 N119 1.613 . S
S118 N120 1.610 . S
N119 S118 1.613 . S
N119 C122 1.350 . S
N120 S118 1.610 . S
N120 C121 1.351 . S
C121 C115 1.428 . S
C121 N120 1.351 . S
C121 C122 1.434 . S
C122 C113 1.429 . S
C122 N119 1.350 . S
C122 C121 1.434 . S
C123 C124 1.369 . S
C123 C125 1.419 . S
C123 H127 0.930 1_455 S
C124 C123 1.369 . S
C124 C133 1.429 . S
C125 C123 1.419 . S
C125 C126 1.363 . S
C125 H128 0.929 . S
C126 C125 1.363 . S
C126 C132 1.428 . S
H127 C123 0.930 1_655 S
H128 C125 0.929 . S
S129 N130 1.613 . S
S129 N131 1.610 . S
N130 S129 1.613 . S
N130 C133 1.350 . S
N131 S129 1.610 . S
N131 C132 1.351 . S
C132 C126 1.428 . S
C132 N131 1.351 . S
C132 C133 1.434 . S
C133 C124 1.429 . S
C133 N130 1.350 . S
C133 C132 1.434 . S
C134 C135 1.369 . S
C134 C136 1.419 . S
C134 H138 0.930 . S
C135 C134 1.369 . S
C135 C144 1.429 . S
C136 C134 1.419 . S
C136 C137 1.363 . S
C136 H139 0.929 . S
C137 C136 1.363 . S
C137 C143 1.428 . S
H138 C134 0.930 . S
H139 C136 0.929 . S
S140 N141 1.613 . S
S140 N142 1.610 . S
N141 S140 1.613 . S
N141 C144 1.350 . S
N142 S140 1.610 . S
N142 C143 1.351 . S
C143 C137 1.428 . S
C143 N142 1.351 . S
C143 C144 1.434 . S
C144 C135 1.429 . S
C144 N141 1.350 . S
C144 C143 1.434 . S
C145 C146 1.369 . S
C145 C147 1.419 . S
C145 H149 0.930 . S
C146 C145 1.369 . S
C146 C155 1.429 . S
C147 C145 1.419 . S
C147 C148 1.363 . S
C147 H150 0.929 . S
C148 C147 1.363 . S
C148 C154 1.428 . S
H149 C145 0.930 . S
H150 C147 0.929 . S
S151 N152 1.613 . S
S151 N153 1.610 . S
N152 S151 1.613 . S
N152 C155 1.350 . S
N153 S151 1.610 . S
N153 C154 1.351 . S
C154 C148 1.428 . S
C154 N153 1.351 . S
C154 C155 1.434 . S
C155 C146 1.429 . S
C155 N152 1.350 . S
C155 C154 1.434 . S
C156 C157 1.369 . S
C156 C158 1.419 . S
C156 H160 0.930 . S
C157 C156 1.369 . S
C157 C166 1.429 . S
C158 C156 1.419 . S
C158 C159 1.363 . S
C158 H161 0.929 . S
C159 C158 1.363 . S
C159 C165 1.428 . S
H160 C156 0.930 . S
H161 C158 0.929 . S
S162 N163 1.613 . S
S162 N164 1.610 . S
N163 S162 1.613 . S
N163 C166 1.350 . S
N164 S162 1.610 . S
N164 C165 1.351 . S
C165 C159 1.428 . S
C165 N164 1.351 . S
C165 C166 1.434 . S
C166 C157 1.429 . S
C166 N163 1.350 . S
C166 C165 1.434 . S
C167 C168 1.369 . S
C167 C169 1.419 . S
C167 H171 0.930 . S
C168 C167 1.369 . S
C168 C177 1.429 . S
C169 C167 1.419 . S
C169 C170 1.363 . S
C169 H172 0.929 . S
C170 C169 1.363 . S
C170 C176 1.428 . S
H171 C167 0.930 . S
H172 C169 0.929 . S
S173 N174 1.613 . S
S173 N175 1.610 . S
N174 S173 1.613 . S
N174 C177 1.350 . S
N175 S173 1.610 . S
N175 C176 1.351 . S
C176 C170 1.428 . S
C176 N175 1.351 . S
C176 C177 1.434 . S
C177 C168 1.429 . S
C177 N174 1.350 . S
C177 C176 1.434 . S
C178 C179 1.369 . S
C178 C180 1.419 . S
C178 H182 0.930 . S
C179 C178 1.369 . S
C179 C188 1.429 . S
C180 C178 1.419 . S
C180 C181 1.363 . S
C180 H183 0.929 . S
C181 C180 1.363 . S
C181 C187 1.428 . S
H182 C178 0.930 . S
H183 C180 0.929 . S
S184 N185 1.613 . S
S184 N186 1.610 . S
N185 S184 1.613 . S
N185 C188 1.350 . S
N186 S184 1.610 . S
N186 C187 1.351 . S
C187 C181 1.428 . S
C187 N186 1.351 . S
C187 C188 1.434 . S
C188 C179 1.429 . S
C188 N185 1.350 . S
C188 C187 1.434 . S
C189 C190 1.369 . S
C189 C191 1.419 . S
C189 H193 0.930 . S
C190 C189 1.369 . S
C190 C199 1.429 . S
C191 C189 1.419 . S
C191 C192 1.363 . S
C191 H194 0.929 . S
C192 C191 1.363 . S
C192 C198 1.428 . S
H193 C189 0.930 . S
H194 C191 0.929 . S
S195 N196 1.613 . S
S195 N197 1.610 . S
N196 S195 1.613 . S
N196 C199 1.350 . S
N197 S195 1.610 . S
N197 C198 1.351 . S
C198 C192 1.428 . S
C198 N197 1.351 . S
C198 C199 1.434 . S
C199 C190 1.429 . S
C199 N196 1.350 . S
C199 C198 1.434 . S
C200 C201 1.369 . S
C200 C202 1.419 . S
C200 H204 0.930 . S
C201 C200 1.369 . S
C201 C210 1.429 . S
C202 C200 1.419 . S
C202 C203 1.363 . S
C202 H205 0.929 . S
C203 C202 1.363 . S
C203 C209 1.428 . S
H204 C200 0.930 . S
H205 C202 0.929 . S
S206 N207 1.613 . S
S206 N208 1.610 . S
N207 S206 1.613 . S
N207 C210 1.350 . S
N208 S206 1.610 . S
N208 C209 1.351 . S
C209 C203 1.428 . S
C209 N208 1.351 . S
C209 C210 1.434 . S
C210 C201 1.429 . S
C210 N207 1.350 . S
C210 C209 1.434 . S
C211 C212 1.369 . S
C211 C213 1.419 . S
C211 H215 0.930 . S
C212 C211 1.369 . S
C212 C221 1.429 . S
C213 C211 1.419 . S
C213 C214 1.363 . S
C213 H216 0.929 . S
C214 C213 1.363 . S
C214 C220 1.428 . S
H215 C211 0.930 . S
H216 C213 0.929 . S
S217 N218 1.613 . S
S217 N219 1.610 . S
N218 S217 1.613 . S
N218 C221 1.350 . S
N219 S217 1.610 . S
N219 C220 1.351 . S
C220 C214 1.428 . S
C220 N219 1.351 . S
C220 C221 1.434 . S
C221 C212 1.429 . S
C221 N218 1.350 . S
C221 C220 1.434 . S
C222 C223 1.369 . S
C222 C224 1.419 . S
C222 H226 0.930 . S
C223 C222 1.369 . S
C223 C232 1.429 . S
C224 C222 1.419 . S
C224 C225 1.363 . S
C224 H227 0.929 . S
C225 C224 1.363 . S
C225 C231 1.428 . S
H226 C222 0.930 . S
H227 C224 0.929 . S
S228 N229 1.613 . S
S228 N230 1.610 . S
N229 S228 1.613 . S
N229 C232 1.350 . S
N230 S228 1.610 . S
N230 C231 1.351 . S
C231 C225 1.428 . S
C231 N230 1.351 . S
C231 C232 1.434 . S
C232 C223 1.429 . S
C232 N229 1.350 . S
C232 C231 1.434 . S
C233 C234 1.369 . S
C233 C235 1.419 . S
C233 H237 0.930 . S
C234 C233 1.369 . S
C234 C243 1.429 . S
C235 C233 1.419 . S
C235 C236 1.363 . S
C235 H238 0.929 . S
C236 C235 1.363 . S
C236 C242 1.428 . S
H237 C233 0.930 . S
H238 C235 0.929 . S
S239 N240 1.613 . S
S239 N241 1.610 . S
N240 S239 1.613 . S
N240 C243 1.350 . S
N241 S239 1.610 . S
N241 C242 1.351 . S
C242 C236 1.428 . S
C242 N241 1.351 . S
C242 C243 1.434 . S
C243 C234 1.429 . S
C243 N240 1.350 . S
C243 C242 1.434 . S
C244 C245 1.369 1_665 S
C244 C246 1.419 . S
C244 H248 0.930 . S
C245 C244 1.369 1_445 S
C245 C254 1.429 1_554 S
C246 C244 1.419 . S
C246 C247 1.363 1_654 S
C246 H249 0.929 . S
C247 C246 1.363 1_456 S
C247 C253 1.428 1_565 S
H248 C244 0.930 . S
H249 C246 0.929 . S
S250 N251 1.613 . S
S250 N252 1.610 . S
N251 S250 1.613 . S
N251 C254 1.350 . S
N252 S250 1.610 . S
N252 C253 1.351 . S
C253 C247 1.428 1_545 S
C253 N252 1.351 . S
C253 C254 1.434 . S
C254 C245 1.429 1_556 S
C254 N251 1.350 . S
C254 C253 1.434 . S
C255 C256 1.369 . S
C255 C257 1.419 1_556 S
C255 H259 0.930 . S
C256 C255 1.369 . S
C256 C265 1.429 . S
C257 C255 1.419 1_554 S
C257 C258 1.363 . S
C257 H260 0.929 . S
C258 C257 1.363 . S
C258 C264 1.440 . S
H259 C255 0.930 . S
H260 C257 0.929 . S
S261 N262 1.613 . S
S261 N263 1.610 . S
N262 S261 1.613 . S
N262 C265 1.350 . S
N263 S261 1.610 . S
N263 C264 1.349 1_556 S
C264 C258 1.440 . S
C264 N263 1.349 1_554 S
C264 C265 1.422 1_554 S
C265 C256 1.429 . S
C265 N262 1.350 . S
C265 C264 1.422 1_556 S
C266 C267 1.369 . S
C266 C268 1.419 . S
C266 H270 0.930 . S
C267 C266 1.369 . S
C267 C276 1.429 . S
C268 C266 1.419 . S
C268 C269 1.363 . S
C268 H271 0.929 . S
C269 C268 1.363 . S
C269 C275 1.428 . S
H270 C266 0.930 . S
H271 C268 0.929 . S
S272 N273 1.613 . S
S272 N274 1.610 . S
N273 S272 1.613 . S
N273 C276 1.350 . S
N274 S272 1.610 . S
N274 C275 1.351 . S
C275 C269 1.428 . S
C275 N274 1.351 . S
C275 C276 1.434 . S
C276 C267 1.429 . S
C276 N273 1.350 . S
C276 C275 1.434 . S
C277 C278 1.369 . S
C277 C279 1.419 1_565 S
C277 H281 0.930 . S
C278 C277 1.369 . S
C278 C287 1.429 . S
C279 C277 1.419 1_545 S
C279 C280 1.363 . S
C279 H282 0.929 . S
C280 C279 1.363 . S
C280 C286 1.428 . S
H281 C277 0.930 . S
H282 C279 0.929 . S
S283 N284 1.589 1_545 S
S283 N285 1.610 . S
N284 S283 1.589 1_565 S
N284 C287 1.351 . S
N285 S283 1.610 . S
N285 C286 1.351 . S
C286 C280 1.428 . S
C286 N285 1.351 . S
C286 C287 1.434 1_545 S
C287 C278 1.429 . S
C287 N284 1.351 . S
C287 C286 1.434 1_565 S
C113 C23 1.506 . S
C115 C9 1.500 . S
C124 C37 1.501 . S
C126 C51 1.507 . S
C135 C65 1.501 . S
C137 C79 1.506 . S
C146 C93 1.505 . S
C148 C107 1.499 . S
C157 C105 1.333 . S
C159 C7 1.337 . S
C168 C91 1.334 . S
C170 C21 1.334 . S
C179 C35 1.333 . S
C181 C77 1.337 . S
C190 C63 1.336 . S
C192 C49 1.336 . S
C201 C78 1.683 . S
C203 C36 1.680 . S
C212 C64 1.681 . S
C214 C50 1.681 . S
C223 C106 1.683 . S
C225 C8 1.680 . S
C234 C22 1.679 . S
C236 C92 1.682 . S
C245 C6 1.512 . S
C247 C34 1.517 . S
C256 C48 1.517 . S
C258 C20 1.513 . S
C267 C90 1.518 . S
C269 C62 1.512 . S
C278 C76 1.516 . S
C280 C104 1.515 . S
