# Generated by pormake.
# Topology whz, (6)-cn, num edge types: 1
# Building blocks:
#     Node 0, Type 0, BuildingBlock: CUKXOW_clean_sbu_0, # of connection points: 6
#     Node 1, Type 0, BuildingBlock: CUKXOW_clean_sbu_0, # of connection points: 6
#     Node 2, Type 0, BuildingBlock: CUKXOW_clean_sbu_0, # of connection points: 6
#     Node 3, Type 0, BuildingBlock: CUKXOW_clean_sbu_0, # of connection points: 6
#     Node 4, Type 0, BuildingBlock: CUKXOW_clean_sbu_0, # of connection points: 6
#     Node 5, Type 0, BuildingBlock: CUKXOW_clean_sbu_0, # of connection points: 6
#     Node 6, Type 0, BuildingBlock: CUKXOW_clean_sbu_0, # of connection points: 6
#     Node 7, Type 0, BuildingBlock: CUKXOW_clean_sbu_0, # of connection points: 6
#     Node 8, Type 0, BuildingBlock: CUKXOW_clean_sbu_0, # of connection points: 6
#     Node 9, Type 0, BuildingBlock: CUKXOW_clean_sbu_0, # of connection points: 6
#     Node 10, Type 0, BuildingBlock: CUKXOW_clean_sbu_0, # of connection points: 6
#     Node 11, Type 0, BuildingBlock: CUKXOW_clean_sbu_0, # of connection points: 6
#     Node 12, Type 0, BuildingBlock: CUKXOW_clean_sbu_0, # of connection points: 6
#     Node 13, Type 0, BuildingBlock: CUKXOW_clean_sbu_0, # of connection points: 6
#     Node 14, Type 0, BuildingBlock: CUKXOW_clean_sbu_0, # of connection points: 6
#     Node 15, Type 0, BuildingBlock: CUKXOW_clean_sbu_0, # of connection points: 6
#     Edge 16, Type (0, 0), BuildingBlock: CIFDUS_clean_linker_0, # of connection points: 2
#     Edge 17, Type (0, 0), BuildingBlock: CIFDUS_clean_linker_0, # of connection points: 2
#     Edge 18, Type (0, 0), BuildingBlock: CIFDUS_clean_linker_0, # of connection points: 2
#     Edge 19, Type (0, 0), BuildingBlock: CIFDUS_clean_linker_0, # of connection points: 2
#     Edge 20, Type (0, 0), BuildingBlock: CIFDUS_clean_linker_0, # of connection points: 2
#     Edge 21, Type (0, 0), BuildingBlock: CIFDUS_clean_linker_0, # of connection points: 2
#     Edge 22, Type (0, 0), BuildingBlock: CIFDUS_clean_linker_0, # of connection points: 2
#     Edge 23, Type (0, 0), BuildingBlock: CIFDUS_clean_linker_0, # of connection points: 2
#     Edge 24, Type (0, 0), BuildingBlock: CIFDUS_clean_linker_0, # of connection points: 2
#     Edge 25, Type (0, 0), BuildingBlock: CIFDUS_clean_linker_0, # of connection points: 2
#     Edge 26, Type (0, 0), BuildingBlock: CIFDUS_clean_linker_0, # of connection points: 2
#     Edge 27, Type (0, 0), BuildingBlock: CIFDUS_clean_linker_0, # of connection points: 2
#     Edge 28, Type (0, 0), BuildingBlock: CIFDUS_clean_linker_0, # of connection points: 2
#     Edge 29, Type (0, 0), BuildingBlock: CIFDUS_clean_linker_0, # of connection points: 2
#     Edge 30, Type (0, 0), BuildingBlock: CIFDUS_clean_linker_0, # of connection points: 2
#     Edge 31, Type (0, 0), BuildingBlock: CIFDUS_clean_linker_0, # of connection points: 2
#     Edge 32, Type (0, 0), BuildingBlock: CIFDUS_clean_linker_0, # of connection points: 2
#     Edge 33, Type (0, 0), BuildingBlock: CIFDUS_clean_linker_0, # of connection points: 2
#     Edge 34, Type (0, 0), BuildingBlock: CIFDUS_clean_linker_0, # of connection points: 2
#     Edge 35, Type (0, 0), BuildingBlock: CIFDUS_clean_linker_0, # of connection points: 2
#     Edge 36, Type (0, 0), BuildingBlock: CIFDUS_clean_linker_0, # of connection points: 2
#     Edge 37, Type (0, 0), BuildingBlock: CIFDUS_clean_linker_0, # of connection points: 2
#     Edge 38, Type (0, 0), BuildingBlock: CIFDUS_clean_linker_0, # of connection points: 2
#     Edge 39, Type (0, 0), BuildingBlock: CIFDUS_clean_linker_0, # of connection points: 2
#     Edge 40, Type (0, 0), BuildingBlock: CIFDUS_clean_linker_0, # of connection points: 2
#     Edge 41, Type (0, 0), BuildingBlock: CIFDUS_clean_linker_0, # of connection points: 2
#     Edge 42, Type (0, 0), BuildingBlock: CIFDUS_clean_linker_0, # of connection points: 2
#     Edge 43, Type (0, 0), BuildingBlock: CIFDUS_clean_linker_0, # of connection points: 2
#     Edge 44, Type (0, 0), BuildingBlock: CIFDUS_clean_linker_0, # of connection points: 2
#     Edge 45, Type (0, 0), BuildingBlock: CIFDUS_clean_linker_0, # of connection points: 2
#     Edge 46, Type (0, 0), BuildingBlock: CIFDUS_clean_linker_0, # of connection points: 2
#     Edge 47, Type (0, 0), BuildingBlock: CIFDUS_clean_linker_0, # of connection points: 2
#     Edge 48, Type (0, 0), BuildingBlock: CIFDUS_clean_linker_0, # of connection points: 2
#     Edge 49, Type (0, 0), BuildingBlock: CIFDUS_clean_linker_0, # of connection points: 2
#     Edge 50, Type (0, 0), BuildingBlock: CIFDUS_clean_linker_0, # of connection points: 2
#     Edge 51, Type (0, 0), BuildingBlock: CIFDUS_clean_linker_0, # of connection points: 2
#     Edge 52, Type (0, 0), BuildingBlock: CIFDUS_clean_linker_0, # of connection points: 2
#     Edge 53, Type (0, 0), BuildingBlock: CIFDUS_clean_linker_0, # of connection points: 2
#     Edge 54, Type (0, 0), BuildingBlock: CIFDUS_clean_linker_0, # of connection points: 2
#     Edge 55, Type (0, 0), BuildingBlock: CIFDUS_clean_linker_0, # of connection points: 2
#     Edge 56, Type (0, 0), BuildingBlock: CIFDUS_clean_linker_0, # of connection points: 2
#     Edge 57, Type (0, 0), BuildingBlock: CIFDUS_clean_linker_0, # of connection points: 2
#     Edge 58, Type (0, 0), BuildingBlock: CIFDUS_clean_linker_0, # of connection points: 2
#     Edge 59, Type (0, 0), BuildingBlock: CIFDUS_clean_linker_0, # of connection points: 2
#     Edge 60, Type (0, 0), BuildingBlock: CIFDUS_clean_linker_0, # of connection points: 2
#     Edge 61, Type (0, 0), BuildingBlock: CIFDUS_clean_linker_0, # of connection points: 2
#     Edge 62, Type (0, 0), BuildingBlock: CIFDUS_clean_linker_0, # of connection points: 2
#     Edge 63, Type (0, 0), BuildingBlock: CIFDUS_clean_linker_0, # of connection points: 2
# Relax obj value: 0.226
# Max RMSD: 0.248
# Mean RMSD: 0.248
data_MOF--net-whz--node1-CUKXOW_clean_sbu_0--edge1-CIFDUS_clean_linker_0
_symmetry_space_group_name_H-M    P1
_symmetry_Int_Tables_number       1
_symmetry_cell_setting            triclinic
loop_
_symmetry_equiv_pos_as_xyz
'x, y, z'
_cell_length_a     33.251052
_cell_length_b     33.19129
_cell_length_c     42.866208
_cell_angle_alpha  89.979958
_cell_angle_beta   90.352433
_cell_angle_gamma 89.972547
loop_
_atom_site_label
_atom_site_type_symbol
_atom_site_fract_x
_atom_site_fract_y
_atom_site_fract_z
_atom_type_partial_charge
Tb0 Tb 0.33179 0.16391 0.18138 0.0
C1 C 0.25923 0.21417 0.15544 0.0
Tb2 Tb 0.24798 0.12633 0.18376 0.0
O3 O 0.33215 0.15918 0.13049 0.0
O4 O 0.30019 0.11769 0.15656 0.0
O5 O 0.29578 0.21554 0.16797 0.0
C6 C 0.175 0.0957 0.17224 0.0
O7 O 0.23742 0.18054 0.15516 0.0
C8 C 0.26917 0.1665 0.23427 0.0
C9 C 0.3165 0.08444 0.2215 0.0
O10 O 0.18294 0.12505 0.19115 0.0
O11 O 0.20831 0.08335 0.15966 0.0
O12 O 0.24502 0.13575 0.2342 0.0
O13 O 0.278 0.17435 0.20643 0.0
O14 O 0.2824 0.07802 0.20596 0.0
O15 O 0.33817 0.11782 0.21794 0.0
C16 C 0.40381 0.1994 0.18951 0.0
O17 O 0.398 0.16225 0.18098 0.0
O18 O 0.3691 0.21619 0.194 0.0
C19 C 0.30712 0.12937 0.12907 0.0
Tb20 Tb 0.60797 0.59467 0.43123 0.0
C21 C 0.55863 0.5212 0.40537 0.0
Tb22 Tb 0.64754 0.51127 0.43119 0.0
O23 O 0.60927 0.59666 0.38017 0.0
O24 O 0.65259 0.56431 0.40428 0.0
O25 O 0.55733 0.55741 0.41832 0.0
C26 C 0.67979 0.43929 0.41967 0.0
O27 O 0.59249 0.49993 0.40375 0.0
C28 C 0.60972 0.53021 0.48319 0.0
C29 C 0.69057 0.58011 0.46775 0.0
O30 O 0.64926 0.44609 0.43748 0.0
O31 O 0.69219 0.47315 0.40787 0.0
O32 O 0.64117 0.50709 0.48192 0.0
O33 O 0.60057 0.53968 0.45564 0.0
O34 O 0.69627 0.5464 0.4517 0.0
O35 O 0.65695 0.6018 0.46551 0.0
C36 C 0.56517 0.66189 0.44213 0.0
O37 O 0.60079 0.66085 0.42963 0.0
O38 O 0.55468 0.62545 0.4492 0.0
C39 C 0.63887 0.57155 0.37733 0.0
Tb40 Tb 0.18653 0.85574 0.68128 0.0
C41 C 0.26174 0.80869 0.65628 0.0
Tb42 Tb 0.26989 0.89668 0.68167 0.0
O43 O 0.18544 0.85653 0.63015 0.0
O44 O 0.21692 0.90041 0.65419 0.0
O45 O 0.22689 0.80636 0.67098 0.0
C46 C 0.33536 0.94211 0.67664 0.0
O47 O 0.28115 0.84344 0.65265 0.0
C48 C 0.25965 0.84147 0.72413 0.0
C49 C 0.19812 0.93717 0.71967 0.0
O50 O 0.32319 0.92461 0.70184 0.0
O51 O 0.3102 0.9348 0.65395 0.0
O52 O 0.29434 0.84986 0.71214 0.0
O53 O 0.23358 0.86547 0.71374 0.0
O54 O 0.23472 0.94166 0.70758 0.0
O55 O 0.17461 0.90558 0.7135 0.0
C56 C 0.12071 0.81182 0.69177 0.0
O57 O 0.12083 0.8483 0.68039 0.0
O58 O 0.15742 0.80093 0.69794 0.0
C59 C 0.2099 0.88656 0.62733 0.0
Tb60 Tb 0.90136 0.4157 0.92748 0.0
C61 C 0.95387 0.48721 0.90201 0.0
Tb62 Tb 0.8682 0.50219 0.93235 0.0
O63 O 0.89333 0.41746 0.87663 0.0
O64 O 0.85545 0.45048 0.90528 0.0
O65 O 0.95377 0.4503 0.91394 0.0
C66 C 0.83494 0.57436 0.92262 0.0
O67 O 0.92146 0.51089 0.90243 0.0
C68 C 0.91126 0.47845 0.98078 0.0
C69 C 0.82693 0.43476 0.97237 0.0
O70 O 0.86847 0.56782 0.93736 0.0
O71 O 0.82043 0.54025 0.9128 0.0
O72 O 0.88314 0.50564 0.98195 0.0
O73 O 0.9152 0.46868 0.95266 0.0
O74 O 0.82271 0.47104 0.95965 0.0
O75 O 0.85634 0.4094 0.96467 0.0
C76 C 0.937 0.34343 0.93415 0.0
O77 O 0.89978 0.34924 0.92566 0.0
O78 O 0.95358 0.37812 0.93918 0.0
C79 C 0.8649 0.44417 0.87727 0.0
Tb80 Tb 0.76308 0.88469 0.88914 0.0
C81 C 0.69257 0.92632 0.85236 0.0
Tb82 Tb 0.67782 0.84999 0.89658 0.0
O83 O 0.76369 0.87102 0.83937 0.0
O84 O 0.72921 0.83743 0.86944 0.0
O85 O 0.72945 0.93095 0.86406 0.0
C86 C 0.60991 0.80655 0.89049 0.0
O87 O 0.66842 0.89589 0.86015 0.0
C88 C 0.70725 0.88757 0.94593 0.0
C89 C 0.75178 0.79964 0.92078 0.0
O90 O 0.6112 0.84516 0.896 0.0
O91 O 0.64632 0.79337 0.88824 0.0
O92 O 0.68021 0.85948 0.94731 0.0
O93 O 0.71274 0.89663 0.91775 0.0
O94 O 0.71479 0.79867 0.90922 0.0
O95 O 0.77352 0.83323 0.92066 0.0
C96 C 0.83899 0.91002 0.89464 0.0
O97 O 0.82761 0.87457 0.88575 0.0
O98 O 0.80742 0.93173 0.90096 0.0
C99 C 0.73699 0.8426 0.84109 0.0
Tb100 Tb 0.37556 0.51127 0.63261 0.0
C101 C 0.33408 0.44017 0.59667 0.0
Tb102 Tb 0.41045 0.42599 0.64109 0.0
O103 O 0.38712 0.51073 0.5828 0.0
O104 O 0.42311 0.47737 0.61278 0.0
O105 O 0.32944 0.47698 0.60817 0.0
C106 C 0.44628 0.35345 0.63635 0.0
O107 O 0.36467 0.41629 0.60457 0.0
C108 C 0.3738 0.45608 0.69066 0.0
C109 C 0.46164 0.50004 0.66407 0.0
O110 O 0.40862 0.35959 0.64289 0.0
O111 O 0.46344 0.38808 0.63218 0.0
O112 O 0.40071 0.42785 0.692 0.0
O113 O 0.36529 0.46187 0.6623 0.0
O114 O 0.46216 0.46202 0.65448 0.0
O115 O 0.42911 0.5232 0.66154 0.0
C116 C 0.34016 0.58291 0.63955 0.0
O117 O 0.37585 0.57711 0.62833 0.0
O118 O 0.32461 0.54844 0.64719 0.0
C119 C 0.41644 0.48491 0.58437 0.0
Tb120 Tb 0.75326 0.12526 0.39222 0.0
C121 C 0.82482 0.08578 0.35557 0.0
Tb122 Tb 0.83764 0.16381 0.39804 0.0
O123 O 0.74994 0.13726 0.34189 0.0
O124 O 0.78546 0.17185 0.3708 0.0
O125 O 0.78847 0.07996 0.36759 0.0
C126 C 0.90404 0.20827 0.39106 0.0
O127 O 0.84796 0.11726 0.36269 0.0
C128 C 0.81099 0.1291 0.44927 0.0
C129 C 0.76143 0.21383 0.41833 0.0
O130 O 0.90368 0.16923 0.39417 0.0
O131 O 0.86753 0.22148 0.39175 0.0
O132 O 0.83754 0.15762 0.44885 0.0
O133 O 0.80448 0.11816 0.4215 0.0
O134 O 0.79848 0.2147 0.4071 0.0
O135 O 0.74005 0.17997 0.4194 0.0
C136 C 0.68235 0.09005 0.40121 0.0
O137 O 0.68822 0.12313 0.38586 0.0
O138 O 0.71652 0.07683 0.41206 0.0
C139 C 0.77706 0.16546 0.34269 0.0
Tb140 Tb 0.13863 0.50875 0.13616 0.0
C141 C 0.17907 0.57987 0.09886 0.0
Tb142 Tb 0.10563 0.59563 0.14501 0.0
O143 O 0.12352 0.50867 0.08677 0.0
O144 O 0.09158 0.54406 0.11765 0.0
O145 O 0.18306 0.54259 0.10977 0.0
C146 C 0.06261 0.66362 0.13976 0.0
O147 O 0.1501 0.60494 0.10795 0.0
C148 C 0.14418 0.56507 0.19375 0.0
C149 C 0.05362 0.52183 0.16891 0.0
O150 O 0.101 0.66218 0.14609 0.0
O151 O 0.04943 0.62731 0.1361 0.0
O152 O 0.11929 0.5951 0.19553 0.0
O153 O 0.1503 0.55838 0.16525 0.0
O154 O 0.0549 0.56051 0.16122 0.0
O155 O 0.08423 0.4967 0.16396 0.0
C156 C 0.17596 0.43821 0.14305 0.0
O157 O 0.13995 0.44305 0.13182 0.0
O158 O 0.19075 0.473 0.15086 0.0
C159 C 0.09539 0.53577 0.08913 0.0
Tb160 Tb 0.84443 0.64898 0.677 0.0
C161 C 0.77073 0.70255 0.65468 0.0
Tb162 Tb 0.75751 0.61587 0.68513 0.0
O163 O 0.84368 0.63815 0.62616 0.0
O164 O 0.80655 0.60579 0.65527 0.0
O165 O 0.80925 0.7008 0.66271 0.0
C166 C 0.68664 0.57953 0.67762 0.0
O167 O 0.74557 0.6717 0.65856 0.0
C168 C 0.78541 0.65648 0.73322 0.0
C169 C 0.82875 0.57369 0.72183 0.0
O170 O 0.69189 0.61556 0.68868 0.0
O171 O 0.72125 0.56414 0.67033 0.0
O172 O 0.75759 0.62901 0.73487 0.0
O173 O 0.79334 0.66146 0.7048 0.0
O174 O 0.79136 0.57028 0.71096 0.0
O175 O 0.85387 0.60278 0.71305 0.0
C176 C 0.91183 0.69254 0.6836 0.0
O177 O 0.9109 0.65403 0.67756 0.0
O178 O 0.87536 0.70554 0.6861 0.0
C179 C 0.81317 0.6138 0.62699 0.0
Tb180 Tb 0.11497 0.07752 0.93191 0.0
C181 C 0.05533 0.01171 0.90611 0.0
Tb182 Tb 0.13842 0.98732 0.93817 0.0
O183 O 0.12612 0.07713 0.88123 0.0
O184 O 0.15549 0.03652 0.9101 0.0
O185 O 0.05966 0.04892 0.91678 0.0
C186 C 0.15934 0.91014 0.93129 0.0
O187 O 0.0847 0.98449 0.90788 0.0
C188 C 0.10167 0.0173 0.98667 0.0
C189 C 0.187 0.05188 0.97742 0.0
O190 O 0.12329 0.92323 0.93639 0.0
O191 O 0.1838 0.9406 0.92938 0.0
O192 O 0.12445 0.98557 0.98763 0.0
O193 O 0.09672 0.02687 0.95852 0.0
O194 O 0.18762 0.01531 0.96456 0.0
O195 O 0.16034 0.08003 0.96925 0.0
C196 C 0.08187 0.15078 0.93866 0.0
O197 O 0.11908 0.14396 0.93079 0.0
O198 O 0.06416 0.11658 0.94323 0.0
C199 C 0.14849 0.04511 0.88193 0.0
Tb200 Tb 0.67353 0.37127 0.18092 0.0
C201 C 0.73728 0.31425 0.15042 0.0
Tb202 Tb 0.76265 0.39496 0.18409 0.0
O203 O 0.67327 0.38154 0.13025 0.0
O204 O 0.71156 0.41454 0.15879 0.0
O205 O 0.70195 0.31662 0.16443 0.0
C206 C 0.83884 0.41715 0.17463 0.0
O207 O 0.76316 0.34481 0.15042 0.0
C208 C 0.73775 0.35204 0.23205 0.0
C209 C 0.70226 0.44126 0.22732 0.0
O210 O 0.82687 0.3811 0.18145 0.0
O211 O 0.80777 0.4408 0.17247 0.0
O212 O 0.76761 0.37722 0.23295 0.0
O213 O 0.72594 0.3502 0.20419 0.0
O214 O 0.73753 0.44265 0.21293 0.0
O215 O 0.67375 0.41468 0.21982 0.0
C216 C 0.5995 0.34007 0.18844 0.0
O217 O 0.60719 0.3771 0.18036 0.0
O218 O 0.63328 0.32143 0.19263 0.0
C219 C 0.70276 0.40706 0.13074 0.0
Tb220 Tb 0.4042 0.94086 0.43222 0.0
C221 C 0.45675 0.01144 0.4056 0.0
Tb222 Tb 0.3741 0.02822 0.43874 0.0
O223 O 0.39273 0.94094 0.38134 0.0
O224 O 0.36014 0.97833 0.41033 0.0
O225 O 0.45638 0.97446 0.41712 0.0
C226 C 0.35212 0.1052 0.43436 0.0
O227 O 0.42465 0.03519 0.40649 0.0
C228 C 0.41386 1.0006 0.4873 0.0
C229 C 0.32907 0.96064 0.47565 0.0
O230 O 0.38858 0.09227 0.43768 0.0
O231 O 0.32762 0.07472 0.43285 0.0
O232 O 0.38659 0.02838 0.4886 0.0
O233 O 0.41976 0.99258 0.45903 0.0
O234 O 0.32547 0.99633 0.46178 0.0
O235 O 0.35857 0.93484 0.46896 0.0
C236 C 0.44637 0.87239 0.43992 0.0
O237 O 0.40884 0.87417 0.4309 0.0
O238 O 0.45901 0.90863 0.44504 0.0
C239 C 0.36749 0.97078 0.38212 0.0
Tb240 Tb 0.26389 0.40366 0.38915 0.0
C241 C 0.19575 0.44595 0.35117 0.0
Tb242 Tb 0.18038 0.36634 0.39073 0.0
O243 O 0.26777 0.3929 0.33908 0.0
O244 O 0.23506 0.35425 0.36734 0.0
O245 O 0.23009 0.45174 0.36645 0.0
C246 C 0.11289 0.32508 0.37965 0.0
O247 O 0.17346 0.41303 0.35482 0.0
C248 C 0.20332 0.40427 0.44184 0.0
C249 C 0.25065 0.31893 0.42247 0.0
O250 O 0.11473 0.35985 0.39364 0.0
O251 O 0.14873 0.31441 0.37133 0.0
O252 O 0.17853 0.37412 0.44162 0.0
O253 O 0.21056 0.41402 0.41405 0.0
O254 O 0.21433 0.3169 0.40986 0.0
O255 O 0.27405 0.35132 0.41993 0.0
C256 C 0.33523 0.43711 0.40017 0.0
O257 O 0.30147 0.44911 0.41209 0.0
O258 O 0.3288 0.40618 0.38246 0.0
C259 C 0.24438 0.3616 0.33949 0.0
Tb260 Tb 0.85933 0.02335 0.14009 0.0
C261 C 0.8212 0.94812 0.10384 0.0
Tb262 Tb 0.90099 0.94056 0.14494 0.0
O263 O 0.90502 0.04757 0.10961 0.0
O264 O 0.89256 0.98549 0.1102 0.0
O265 O 0.81762 0.98673 0.11205 0.0
C266 C 0.94556 0.87422 0.13763 0.0
O267 O 0.85096 0.92439 0.11386 0.0
C268 C 0.86807 0.96813 0.19668 0.0
C269 C 0.94808 0.01809 0.16533 0.0
O270 O 0.90862 0.87472 0.14769 0.0
O271 O 0.95666 0.91072 0.13128 0.0
O272 O 0.89878 0.94419 0.19612 0.0
O273 O 0.85502 0.97223 0.16926 0.0
O274 O 0.9502 0.98147 0.15335 0.0
O275 O 0.9133 0.03772 0.16819 0.0
C276 C 0.81204 0.08774 0.14468 0.0
O277 O 0.82895 0.07511 0.11938 0.0
O278 O 0.82104 0.06362 0.16761 0.0
C279 C 0.91553 0.01234 0.09939 0.0
Tb280 Tb 0.24674 0.60909 0.88948 0.0
C281 C 0.31686 0.56703 0.85044 0.0
Tb282 Tb 0.33266 0.64592 0.89115 0.0
O283 O 0.22419 0.65826 0.86068 0.0
O284 O 0.28461 0.64092 0.85869 0.0
O285 O 0.27981 0.56396 0.86204 0.0
C286 C 0.39966 0.6887 0.8816 0.0
O287 O 0.34203 0.597 0.85758 0.0
C288 C 0.30708 0.61165 0.94323 0.0
C289 C 0.26055 0.69492 0.91869 0.0
O290 O 0.39868 0.65194 0.89247 0.0
O291 O 0.36321 0.70037 0.87538 0.0
O292 O 0.33297 0.64074 0.94246 0.0
O293 O 0.30001 0.60087 0.91566 0.0
O294 O 0.29556 0.6964 0.90428 0.0
O295 O 0.23832 0.6616 0.92006 0.0
C296 C 0.17954 0.56637 0.89627 0.0
O297 O 0.20539 0.57393 0.91841 0.0
O298 O 0.19205 0.582 0.87036 0.0
C299 C 0.25934 0.66658 0.84943 0.0
Tb300 Tb 0.64662 0.99541 0.64179 0.0
C301 C 0.69328 0.05937 0.60246 0.0
Tb302 Tb 0.61843 0.08274 0.64511 0.0
O303 O 0.63624 0.99222 0.59172 0.0
O304 O 0.60213 0.03045 0.6191 0.0
O305 O 0.69595 0.02409 0.61706 0.0
C306 C 0.58656 0.15678 0.63776 0.0
O307 O 0.66423 0.08586 0.60847 0.0
C308 C 0.65256 0.05325 0.69628 0.0
C309 C 0.56198 0.01629 0.67138 0.0
O310 O 0.62289 0.14912 0.64762 0.0
O311 O 0.5689 0.12292 0.63156 0.0
O312 O 0.62484 0.0807 0.69633 0.0
O313 O 0.66226 0.04639 0.66849 0.0
O314 O 0.56378 0.05221 0.65812 0.0
O315 O 0.59367 0.99181 0.67253 0.0
C316 C 0.66832 0.91887 0.65115 0.0
O317 O 0.63305 0.93102 0.64237 0.0
O318 O 0.69161 0.94993 0.6552 0.0
C319 C 0.60911 0.02028 0.59132 0.0
H320 H 0.28073 0.2466 0.2268 0.0
H321 H 0.25033 0.15664 0.29538 0.0
H322 H 0.23724 0.20963 0.3338 0.0
H323 H 0.23322 0.28142 0.34728 0.0
H324 H 0.26327 0.3712 0.27846 0.0
H325 H 0.27647 0.31821 0.24014 0.0
C326 C 0.27171 0.23856 0.25026 0.0
C327 C 0.26665 0.19787 0.25842 0.0
C328 C 0.2633 0.26909 0.27182 0.0
C329 C 0.25455 0.18786 0.28874 0.0
C330 C 0.24678 0.21809 0.31056 0.0
C331 C 0.24218 0.28937 0.32378 0.0
C332 C 0.24715 0.33004 0.31553 0.0
C333 C 0.25056 0.25879 0.30221 0.0
C334 C 0.25917 0.34 0.28517 0.0
C335 C 0.267 0.30977 0.2634 0.0
H336 H 0.49717 0.48125 0.59466 0.0
H337 H 0.40737 0.49565 0.52239 0.0
H338 H 0.45957 0.51381 0.48506 0.0
H339 H 0.52958 0.52895 0.47387 0.0
H340 H 0.62049 0.51363 0.54504 0.0
H341 H 0.56858 0.49381 0.58258 0.0
C342 C 0.4892 0.4875 0.57057 0.0
C343 C 0.44861 0.48697 0.5611 0.0
C344 C 0.51925 0.49895 0.54948 0.0
C345 C 0.43852 0.49566 0.53 0.0
C346 C 0.46823 0.50646 0.5088 0.0
C347 C 0.53808 0.5217 0.49765 0.0
C348 C 0.57865 0.52322 0.50688 0.0
C349 C 0.50848 0.50909 0.5185 0.0
C350 C 0.58929 0.51305 0.53763 0.0
C351 C 0.55973 0.50136 0.55891 0.0
H352 H 0.31328 0.78711 0.74493 0.0
H353 H 0.19095 0.82763 0.75645 0.0
H354 H 0.18052 0.77707 0.79715 0.0
H355 H 0.20643 0.72181 0.82928 0.0
H356 H 0.32848 0.68063 0.81745 0.0
H357 H 0.33922 0.7317 0.77713 0.0
C358 C 0.28437 0.78478 0.7564 0.0
C359 C 0.25285 0.8107 0.7479 0.0
C360 C 0.27876 0.75593 0.77971 0.0
C361 C 0.21548 0.80763 0.76267 0.0
C362 C 0.20959 0.77893 0.78594 0.0
C363 C 0.23538 0.72412 0.81787 0.0
C364 C 0.26671 0.69788 0.82617 0.0
C365 C 0.24105 0.75303 0.79463 0.0
C366 C 0.30411 0.70093 0.81143 0.0
C367 C 0.31016 0.72989 0.78835 0.0
H368 H 0.924 0.53122 1.02789 0.0
H369 H 0.97814 0.43187 0.97872 0.0
H370 H 0.04203 0.44417 1.0053 0.0
H371 H 0.08253 0.48398 0.04156 0.0
H372 H 0.02842 0.58271 0.09145 0.0
H373 H 0.96462 0.57098 0.06448 0.0
C374 C 0.94958 0.51181 1.02343 0.0
C375 C 0.94645 0.48053 1.00152 0.0
C376 C 0.98639 0.51975 0.03818 0.0
C377 C 0.97986 0.45586 0.99572 0.0
C378 C 0.01647 0.46321 1.0106 0.0
C379 C 0.05699 0.50338 0.04619 0.0
C380 C 0.06011 0.53431 0.06841 0.0
C381 C 0.0202 0.49547 1.03147 0.0
C382 C 0.02671 0.55893 0.07432 0.0
C383 C 0.99015 0.55189 0.05919 0.0
H384 H 0.79571 0.8235 0.8005 0.0
H385 H 0.68087 0.78406 0.83526 0.0
H386 H 0.68798 0.72014 0.80749 0.0
H387 H 0.72736 0.67564 0.77418 0.0
H388 H 0.84208 0.71492 0.73909 0.0
H389 H 0.83522 0.77879 0.76706 0.0
C390 C 0.7719 0.80122 0.80148 0.0
C391 C 0.73765 0.80828 0.81969 0.0
C392 C 0.77673 0.76438 0.78613 0.0
C393 C 0.70736 0.77903 0.82129 0.0
C394 C 0.7116 0.74249 0.80566 0.0
C395 C 0.75122 0.69787 0.77309 0.0
C396 C 0.78529 0.6908 0.75469 0.0
C397 C 0.74645 0.73466 0.78845 0.0
C398 C 0.81566 0.71997 0.75311 0.0
C399 C 0.81156 0.75648 0.76888 0.0
H400 H 0.79497 0.32976 0.27345 0.0
H401 H 0.68075 0.29336 0.23459 0.0
H402 H 0.68475 0.22946 0.26287 0.0
H403 H 0.72084 0.18445 0.29911 0.0
H404 H 0.83588 0.22067 0.3365 0.0
H405 H 0.8322 0.28392 0.30748 0.0
C406 C 0.77067 0.30809 0.27147 0.0
C407 C 0.73729 0.31635 0.25231 0.0
C408 C 0.77387 0.27113 0.28695 0.0
C409 C 0.70645 0.28773 0.24951 0.0
C410 C 0.70895 0.25109 0.26541 0.0
C411 C 0.74547 0.20583 0.30029 0.0
C412 C 0.77861 0.19826 0.31987 0.0
C413 C 0.74271 0.24236 0.284 0.0
C414 C 0.8101 0.22623 0.32161 0.0
C415 C 0.80784 0.26241 0.30524 0.0
H416 H 0.96422 0.06935 0.0769 0.0
H417 H 0.94346 0.94105 0.07642 0.0
H418 H 1.0029 0.93122 0.04385 0.0
H419 H 0.05856 0.95973 1.01396 0.0
H420 H 0.07441 0.08845 1.00924 0.0
H421 H 0.01849 0.09801 0.04569 0.0
C422 C 0.97276 0.03923 0.06966 0.0
C423 C 0.95024 1.00579 0.07931 0.0
C424 C 1.00579 0.03415 0.05017 0.0
C425 C 0.9611 0.967 0.06968 0.0
C426 C 0.9948 0.96147 0.05099 0.0
C427 C 0.04997 0.98979 1.02133 0.0
C428 C 0.07041 0.02346 1.0097 0.0
C429 C 0.01716 0.99487 0.04104 0.0
C430 C 0.05887 0.06236 1.01841 0.0
C431 C 0.02704 0.0677 0.03904 0.0
H432 H 0.49347 0.98965 0.47783 0.0
H433 H 0.40505 0.01121 0.54918 0.0
H434 H 0.45857 0.02314 0.58742 0.0
H435 H 0.52976 0.02976 0.59991 0.0
H436 H 0.61876 1.00713 0.52937 0.0
H437 H 0.56541 0.99489 0.49075 0.0
C438 C 0.48602 0.99615 0.50191 0.0
C439 C 0.44565 0.99937 0.51095 0.0
C440 C 0.51679 1.00406 0.52346 0.0
C441 C 0.43612 0.00836 0.54198 0.0
C442 C 0.46656 0.01561 0.56369 0.0
C443 C 0.53743 0.02278 0.57599 0.0
C444 C 0.57782 0.01978 0.56721 0.0
C445 C 0.50687 0.01434 0.55451 0.0
C446 C 0.58762 0.00998 0.53634 0.0
C447 C 0.55725 1.00255 0.51446 0.0
H448 H 0.20839 0.12457 1.00255 0.0
H449 H 0.22331 0.99658 1.01572 0.0
H450 H 0.25898 0.0086 0.06485 0.0
H451 H 0.28549 0.05583 0.10506 0.0
H452 H 0.27507 0.18361 0.08917 0.0
H453 H 0.23775 0.17143 0.04084 0.0
C454 C 0.21978 0.09928 1.01598 0.0
C455 C 0.21319 0.05972 1.00518 0.0
C456 C 0.24068 0.1064 0.04418 0.0
C457 C 0.22828 0.0274 1.02307 0.0
C458 C 0.24843 0.03422 0.05143 0.0
C459 C 0.2747 0.08086 0.09105 0.0
C460 C 0.28252 0.12056 0.10088 0.0
C461 C 0.25457 0.0736 0.06242 0.0
C462 C 0.26917 0.15278 0.08221 0.0
C463 C 0.24795 0.14585 0.05448 0.0
H464 H 0.70913 0.54152 0.35361 0.0
H465 H 0.58119 0.54555 0.33737 0.0
H466 H 0.58877 0.5053 0.29007 0.0
H467 H 0.63191 0.46923 0.25256 0.0
H468 H 0.76054 0.47067 0.26598 0.0
H469 H 0.75272 0.5085 0.31439 0.0
C470 C 0.68302 0.53341 0.33969 0.0
C471 C 0.64466 0.54626 0.34911 0.0
C472 C 0.68776 0.51146 0.31167 0.0
C473 C 0.61108 0.53604 0.33064 0.0
C474 C 0.61538 0.51301 0.30352 0.0
C475 C 0.65822 0.47807 0.26597 0.0
C476 C 0.69674 0.46717 0.25542 0.0
C477 C 0.65359 0.5007 0.29364 0.0
C478 C 0.7305 0.47902 0.27319 0.0
C479 C 0.72607 0.50047 0.3011 0.0
H480 H 0.23148 0.95894 0.60229 0.0
H481 H 0.2404 0.83082 0.58799 0.0
H482 H 0.27796 0.84167 0.53985 0.0
H483 H 0.30832 0.88785 0.50135 0.0
H484 H 0.29324 0.01605 0.51304 0.0
H485 H 0.25778 1.00505 0.56188 0.0
C486 C 0.24187 0.93354 0.58862 0.0
C487 C 0.23369 0.89419 0.59882 0.0
C488 C 0.26198 0.94003 0.56014 0.0
C489 C 0.24657 0.86143 0.58066 0.0
C490 C 0.26796 0.8676 0.55307 0.0
C491 C 0.29688 0.91332 0.51442 0.0
C492 C 0.30334 0.95268 0.50329 0.0
C493 C 0.27572 0.90679 0.54243 0.0
C494 C 0.28827 0.98534 0.52065 0.0
C495 C 0.26824 0.97914 0.54885 0.0
H496 H 0.78407 0.55028 0.77124 0.0
H497 H 0.902 0.53801 0.73121 0.0
H498 H 0.92311 0.4955 0.77523 0.0
H499 H 0.90816 0.46263 0.82567 0.0
H500 H 0.79246 0.48088 0.86815 0.0
H501 H 0.77029 0.52042 0.82286 0.0
C502 C 0.81425 0.53788 0.77202 0.0
C503 C 0.84125 0.54657 0.74769 0.0
C504 C 0.82656 0.5148 0.79799 0.0
C505 C 0.88061 0.53138 0.74947 0.0
C506 C 0.89266 0.50716 0.77466 0.0
C507 C 0.87802 0.47514 0.82488 0.0
C508 C 0.85176 0.46854 0.85004 0.0
C509 C 0.86594 0.49876 0.79911 0.0
C510 C 0.81313 0.48555 0.84905 0.0
C511 C 0.80045 0.50805 0.82312 0.0
H512 H 0.80331 0.98484 0.04926 0.0
H513 H 0.78237 0.87572 0.10109 0.0
H514 H 0.74352 0.84806 0.05719 0.0
H515 H 0.71748 0.85417 1.00322 0.0
H516 H 0.74523 0.96022 0.94946 0.0
H517 H 0.77965 0.98984 0.99468 0.0
C518 C 0.78964 0.95526 0.05105 0.0
C519 C 0.79483 0.93263 0.07859 0.0
C520 C 0.76898 0.93893 1.0252 0.0
C521 C 0.77823 0.89383 0.08029 0.0
C522 C 0.75621 0.878 0.05515 0.0
C523 C 0.73094 0.88385 1.00152 0.0
C524 C 0.72852 0.90521 0.97317 0.0
C525 C 0.75168 0.90013 1.02737 0.0
C526 C 0.74666 0.94328 0.97105 0.0
C527 C 0.76624 0.96023 0.99692 0.0
H528 H 0.3386 0.58919 0.7927 0.0
H529 H 0.31794 0.48438 0.84955 0.0
H530 H 0.33442 0.44041 0.80521 0.0
H531 H 0.35475 0.4322 0.74966 0.0
H532 H 0.36861 0.53803 0.69272 0.0
H533 H 0.35435 0.58107 0.7371 0.0
C534 C 0.33807 0.55668 0.79539 0.0
C535 C 0.32798 0.53992 0.82443 0.0
C536 C 0.34587 0.53181 0.76953 0.0
C537 C 0.32616 0.49785 0.82747 0.0
C538 C 0.33546 0.47279 0.8021 0.0
C539 C 0.35429 0.4647 0.74702 0.0
C540 C 0.36223 0.48183 0.71757 0.0
C541 C 0.34529 0.48944 0.77292 0.0
C542 C 0.36159 0.52392 0.71459 0.0
C543 C 0.35389 0.54866 0.74023 0.0
H544 H 0.79571 0.05743 0.47799 0.0
H545 H 0.77063 0.18459 0.4827 0.0
H546 H 0.73245 0.17482 0.53063 0.0
H547 H 0.70717 0.13032 0.57198 0.0
H548 H 0.73716 1.00384 0.57005 0.0
H549 H 0.77301 0.0132 0.52109 0.0
C550 C 0.78135 0.08276 0.48939 0.0
C551 C 0.78502 0.12149 0.4765 0.0
C552 C 0.76099 0.07717 0.51789 0.0
C553 C 0.76744 0.15437 0.4919 0.0
C554 C 0.74591 0.14885 0.51946 0.0
C555 C 0.72186 0.10485 0.56104 0.0
C556 C 0.71948 0.06649 0.57493 0.0
C557 C 0.74277 0.11045 0.53287 0.0
C558 C 0.7388 0.03387 0.56026 0.0
C559 C 0.75905 0.03908 0.532 0.0
H560 H 0.17254 0.42683 0.2929 0.0
H561 H 0.19722 0.52844 0.35243 0.0
H562 H 0.18274 0.57478 0.30904 0.0
H563 H 0.16357 0.58597 0.25344 0.0
H564 H 0.14505 0.48303 0.19415 0.0
H565 H 0.15707 0.43774 0.23758 0.0
C566 C 0.17424 0.45917 0.29643 0.0
C567 C 0.18502 0.47435 0.32588 0.0
C568 C 0.16757 0.48534 0.27115 0.0
C569 C 0.18845 0.51619 0.32998 0.0
C570 C 0.18032 0.54261 0.30516 0.0
C571 C 0.16248 0.5536 0.25011 0.0
C572 C 0.15405 0.53791 0.22024 0.0
C573 C 0.17002 0.52751 0.27552 0.0
C574 C 0.15261 0.49599 0.21635 0.0
C575 C 0.15898 0.46997 0.24145 0.0
H576 H 0.83251 0.60361 0.5657 0.0
H577 H 0.73128 0.61066 0.62742 0.0
H578 H 0.68499 0.60378 0.58378 0.0
H579 H 0.67273 0.59574 0.52762 0.0
H580 H 0.77289 0.58244 0.46527 0.0
H581 H 0.82006 0.59236 0.50899 0.0
C582 C 0.8003 0.60333 0.56952 0.0
C583 C 0.78541 0.60694 0.60013 0.0
C584 C 0.77365 0.59888 0.54392 0.0
C585 C 0.74367 0.60668 0.60458 0.0
C586 C 0.71706 0.60332 0.57939 0.0
C587 C 0.70491 0.59568 0.52357 0.0
C588 C 0.7194 0.58944 0.49321 0.0
C589 C 0.73166 0.59952 0.54895 0.0
C590 C 0.76112 0.58789 0.4884 0.0
C591 C 0.78803 0.59333 0.51342 0.0
H592 H 0.16445 0.07004 0.82268 0.0
H593 H 0.15181 0.96338 0.87885 0.0
H594 H 0.163 0.92093 0.83329 0.0
H595 H 0.17672 0.91391 0.77723 0.0
H596 H 0.19665 0.0198 0.72137 0.0
H597 H 0.18195 0.06289 0.76658 0.0
C598 C 0.16438 0.03749 0.82487 0.0
C599 C 0.15767 0.0198 0.8543 0.0
C600 C 0.17172 0.01323 0.79842 0.0
C601 C 0.15775 0.97767 0.85679 0.0
C602 C 0.16373 0.95339 0.83058 0.0
C603 C 0.17729 0.94647 0.77491 0.0
C604 C 0.18673 0.9638 0.7459 0.0
C605 C 0.17068 0.9708 0.80127 0.0
C606 C 0.1888 1.00591 0.74338 0.0
C607 C 0.18059 0.03045 0.76925 0.0
H608 H 0.71352 0.364 0.07745 0.0
H609 H 0.74768 0.47488 0.12263 0.0
H610 H 0.78704 0.4943 0.07682 0.0
H611 H 0.812 0.47956 1.02376 0.0
H612 H 0.78438 0.3653 0.98114 0.0
H613 H 0.74214 0.34729 1.02583 0.0
C614 C 0.72945 0.3925 0.07714 0.0
C615 C 0.72719 0.41834 0.10318 0.0
C616 C 0.75309 0.40281 0.05109 0.0
C617 C 0.74875 0.45468 0.10281 0.0
C618 C 0.77121 0.46577 0.07659 0.0
C619 C 0.79638 0.45088 1.02421 0.0
C620 C 0.80055 0.42407 0.99893 0.0
C621 C 0.77352 0.44014 0.05055 0.0
C622 C 0.78122 0.38653 1.00016 0.0
C623 C 0.75715 0.37626 1.02573 0.0
H624 H 0.32784 0.10504 0.28154 0.0
H625 H 0.32711 1.00246 0.22012 0.0
H626 H 0.34385 0.95789 0.26423 0.0
H627 H 0.35883 0.94849 0.32088 0.0
H628 H 0.35225 0.05102 0.38195 0.0
H629 H 0.33803 0.09516 0.33787 0.0
C630 C 0.33166 0.07292 0.27783 0.0
C631 C 0.3271 0.05705 0.24761 0.0
C632 C 0.33966 0.04749 0.30342 0.0
C633 C 0.33093 0.01532 0.24317 0.0
C634 C 0.34042 0.9899 0.2684 0.0
C635 C 0.35407 0.98047 0.32445 0.0
C636 C 0.35654 0.9965 0.35488 0.0
C637 C 0.34486 1.00564 0.29872 0.0
C638 C 0.35001 0.03789 0.35908 0.0
C639 C 0.34217 0.06321 0.33372 0.0
H640 H 0.30687 0.48586 0.54875 0.0
H641 H 0.302 0.36548 0.5862 0.0
H642 H 0.25923 0.34421 0.54233 0.0
H643 H 0.22437 0.35974 0.49257 0.0
H644 H 0.23555 0.4783 0.45255 0.0
H645 H 0.2748 0.50052 0.49799 0.0
C646 C 0.296 0.45508 0.54746 0.0
C647 C 0.30686 0.42741 0.57098 0.0
C648 C 0.27278 0.4428 0.52158 0.0
C649 C 0.29367 0.38735 0.56855 0.0
C650 C 0.2693 0.37523 0.54345 0.0
C651 C 0.23519 0.39052 0.49399 0.0
C652 C 0.22673 0.41758 0.46948 0.0
C653 C 0.25878 0.40265 0.51975 0.0
C654 C 0.24161 0.45707 0.4712 0.0
C655 C 0.26398 0.46974 0.49718 0.0
H656 H 0.90988 0.98531 0.24944 0.0
H657 H 0.79297 0.99849 0.20669 0.0
H658 H 0.76828 0.03294 0.25341 0.0
H659 H 0.78054 0.06081 0.30607 0.0
H660 H 0.89929 0.05365 0.34649 0.0
H661 H 0.92269 0.01494 0.30137 0.0
C662 C 0.87894 0.99558 0.25047 0.0
C663 C 0.85316 0.98925 0.22477 0.0
C664 C 0.86532 0.01619 0.27712 0.0
C665 C 0.81335 1.00316 0.22617 0.0
C666 C 0.79922 0.02271 0.25292 0.0
C667 C 0.81135 0.05013 0.30516 0.0
C668 C 0.83801 0.05923 0.32983 0.0
C669 C 0.82495 0.02945 0.27853 0.0
C670 C 0.87817 0.04648 0.32796 0.0
C671 C 0.89155 0.02455 0.30211 0.0
H672 H 0.20451 0.53334 0.05112 0.0
H673 H 0.21148 0.65425 0.08736 0.0
H674 H 0.25347 0.67435 0.04309 0.0
H675 H 0.28728 0.65756 0.99338 0.0
H676 H 0.27411 0.53836 0.95485 0.0
H677 H 0.2354 0.51745 1.00054 0.0
C678 C 0.21561 0.564 0.04948 0.0
C679 C 0.20554 0.59214 0.07277 0.0
C680 C 0.23844 0.57559 1.02343 0.0
C681 C 0.21912 0.63201 0.06988 0.0
C682 C 0.24307 0.64348 0.04456 0.0
C683 C 0.27612 0.62695 0.99519 0.0
C684 C 0.28385 0.59931 0.97101 0.0
C685 C 0.25284 0.61555 1.02113 0.0
C686 C 0.2686 0.56003 0.97324 0.0
C687 C 0.24652 0.5481 0.99936 0.0
H688 H 0.61124 0.0378 0.74964 0.0
H689 H 0.72428 0.01522 0.7042 0.0
H690 H 0.7477 0.97657 0.7495 0.0
H691 H 0.73564 0.94814 0.80181 0.0
H692 H 0.61988 0.96367 0.84473 0.0
H693 H 0.59785 1.00619 0.80095 0.0
C694 C 0.64108 0.02459 0.74982 0.0
C695 C 0.66629 0.02981 0.72383 0.0
C696 C 0.6538 1.00121 0.77557 0.0
C697 C 0.70449 0.01179 0.72401 0.0
C698 C 0.71788 0.98973 0.74992 0.0
C699 C 0.70575 0.96128 0.80169 0.0
C700 C 0.67964 0.95353 0.82673 0.0
C701 C 0.69281 0.98422 0.77583 0.0
C702 C 0.6406 0.96962 0.82588 0.0
C703 C 0.62802 0.99383 0.80082 0.0
H704 H 0.41833 0.28025 0.1912 0.0
H705 H 0.47795 0.16486 0.19153 0.0
H706 H 0.5435 0.19833 0.19271 0.0
H707 H 0.58398 0.26027 0.19215 0.0
H708 H 0.52515 0.37592 0.18831 0.0
H709 H 0.45924 0.34269 0.19003 0.0
C710 C 0.44572 0.2625 0.19174 0.0
C711 C 0.44332 0.22008 0.19145 0.0
C712 C 0.48341 0.28205 0.19167 0.0
C713 C 0.47901 0.19748 0.19178 0.0
C714 C 0.51649 0.21663 0.19244 0.0
C715 C 0.55672 0.27824 0.19184 0.0
C716 C 0.55941 0.32054 0.19024 0.0
C717 C 0.51907 0.25886 0.19217 0.0
C718 C 0.52385 0.34336 0.18956 0.0
C719 C 0.48619 0.32433 0.19054 0.0
H720 H 0.58496 0.74158 0.438 0.0
H721 H 0.48426 0.66155 0.45018 0.0
H722 H 0.43797 0.71882 0.44984 0.0
H723 H 0.4257 0.79236 0.445 0.0
H724 H 0.52733 0.87223 0.43689 0.0
H725 H 0.57321 0.81492 0.43671 0.0
C726 C 0.55291 0.73679 0.44075 0.0
C727 C 0.5381 0.69739 0.44399 0.0
C728 C 0.52643 0.77001 0.44114 0.0
C729 C 0.49649 0.69163 0.44774 0.0
C730 C 0.46992 0.72438 0.44743 0.0
C731 C 0.45787 0.79706 0.44323 0.0
C732 C 0.473 0.83648 0.44074 0.0
C733 C 0.48445 0.76379 0.44394 0.0
C734 C 0.51484 0.84219 0.43884 0.0
C735 C 0.54121 0.8094 0.43869 0.0
H736 H 0.9911 0.672 0.69273 0.0
H737 H 0.91197 0.77341 0.6784 0.0
H738 H 0.96897 0.81946 0.68013 0.0
H739 H 0.04172 0.83132 0.68471 0.0
H740 H 0.12111 0.73098 0.70201 0.0
H741 H 0.06408 0.68449 0.70045 0.0
C742 C 0.98652 0.70416 0.68999 0.0
C743 C 0.94745 0.71922 0.68521 0.0
C744 C 0.01954 0.73082 0.69167 0.0
C745 C 0.94179 0.76102 0.68207 0.0
C746 C 0.97438 0.78747 0.68305 0.0
C747 C 0.04642 0.79931 0.68835 0.0
C748 C 0.08551 0.78462 0.69336 0.0
C749 C 0.01342 0.77277 0.68774 0.0
C750 C 0.09121 0.74307 0.69818 0.0
C751 C 0.05862 0.71641 0.69716 0.0
H752 H 0.01756 0.3305 0.93782 0.0
H753 H 0.9038 0.26829 0.93468 0.0
H754 H 0.93873 0.20335 0.93733 0.0
H755 H 1.00164 0.16425 0.93945 0.0
H756 H 0.11565 0.22602 0.93901 0.0
H757 H 0.08075 0.29118 0.93892 0.0
C758 C 1.00045 0.30269 0.93784 0.0
C759 C 0.95811 0.30414 0.9362 0.0
C760 C 0.02083 0.26546 0.93869 0.0
C761 C 0.93635 0.26793 0.93594 0.0
C762 C 0.95633 0.23082 0.93746 0.0
C763 C 0.01886 0.192 0.9395 0.0
C764 C 0.06121 0.19038 0.93943 0.0
C765 C 0.99855 0.22922 0.93871 0.0
C766 C 0.08308 0.22653 0.93913 0.0
C767 C 0.0631 0.26374 0.93906 0.0
H768 H 0.53068 0.82749 0.88124 0.0
H769 H 0.60904 0.72561 0.89599 0.0
H770 H 0.55169 0.67995 0.89426 0.0
H771 H 0.47871 0.6685 0.88937 0.0
H772 H 0.40033 0.7695 0.87157 0.0
H773 H 0.45768 0.81549 0.87339 0.0
C774 C 0.53504 0.79532 0.88408 0.0
C775 C 0.57403 0.78006 0.88898 0.0
C776 C 0.5018 0.76887 0.88239 0.0
C777 C 0.57933 0.7382 0.89225 0.0
C778 C 0.54651 0.71196 0.89126 0.0
C779 C 0.4743 0.70054 0.88569 0.0
C780 C 0.43533 0.71551 0.88044 0.0
C781 C 0.50756 0.72688 0.88642 0.0
C782 C 0.43007 0.75713 0.8756 0.0
C783 C 0.46286 0.78354 0.87675 0.0
H784 H 0.52688 0.3384 0.63715 0.0
H785 H 0.41158 0.27923 0.63305 0.0
H786 H 0.44486 0.21344 0.63162 0.0
H787 H 0.50674 0.17252 0.63259 0.0
H788 H 0.62202 0.23111 0.64027 0.0
H789 H 0.58898 0.2972 0.63919 0.0
C790 C 0.5091 0.31107 0.63582 0.0
C791 C 0.46677 0.31369 0.63506 0.0
C792 C 0.52851 0.27323 0.63569 0.0
C793 C 0.44413 0.27803 0.63365 0.0
C794 C 0.46318 0.2404 0.63282 0.0
C795 C 0.52464 0.19978 0.63386 0.0
C796 C 0.56683 0.19693 0.63631 0.0
C797 C 0.50533 0.2376 0.63396 0.0
C798 C 0.58956 0.2325 0.63831 0.0
C799 C 0.57064 0.27029 0.63771 0.0
H800 H 0.0353 0.34519 0.39107 0.0
H801 H 0.11102 0.24574 0.36431 0.0
H802 H 0.0534 0.20005 0.36577 0.0
H803 H 0.98136 0.18789 0.37648 0.0
H804 H 0.90553 0.28852 0.4005 0.0
H805 H 0.96297 0.334 0.39835 0.0
C806 C 0.03902 0.31358 0.38531 0.0
C807 C 0.07722 0.29879 0.37773 0.0
C808 C 1.00571 0.28757 0.38593 0.0
C809 C 0.08176 0.25783 0.37016 0.0
C810 C 0.04888 0.23163 0.37113 0.0
C811 C 0.97759 0.21976 0.38121 0.0
C812 C 0.93947 0.2348 0.38891 0.0
C813 C 0.01074 0.24605 0.37933 0.0
C814 C 0.93471 0.27623 0.39461 0.0
C815 C 0.96752 0.30231 0.39339 0.0
H816 H 0.08395 0.74319 0.13484 0.0
H817 H 0.98171 0.66413 0.14334 0.0
H818 H 0.93629 0.72177 0.14358 0.0
H819 H 0.9252 0.79502 0.14199 0.0
H820 H 0.02657 0.87436 0.13027 0.0
H821 H 0.07241 0.81675 0.13051 0.0
C822 C 0.05175 0.73875 0.13673 0.0
C823 C 0.03625 0.69953 0.13924 0.0
C824 C 0.02551 0.77217 0.13623 0.0
C825 C 0.99441 0.69408 0.14137 0.0
C826 C 0.96834 0.72703 0.14155 0.0
C827 C 0.95731 0.79958 0.13939 0.0
C828 C 0.97249 0.83879 0.13627 0.0
C829 C 0.98349 0.76624 0.13906 0.0
C830 C 0.01414 0.84436 0.13269 0.0
C831 C 0.04042 0.81144 0.1329 0.0
H832 H 0.28758 0.28891 0.16735 0.0
H833 H 0.1873 0.2264 0.12501 0.0
H834 H 0.15267 0.29075 0.11693 0.0
H835 H 0.14975 0.36454 0.12442 0.0
H836 H 0.24974 0.42551 0.16828 0.0
H837 H 0.28557 0.36163 0.17358 0.0
C838 C 0.25838 0.28918 0.15593 0.0
C839 C 0.24009 0.25282 0.14674 0.0
C840 C 0.23841 0.32596 0.15205 0.0
C841 C 0.20206 0.25395 0.13228 0.0
C842 C 0.18219 0.2907 0.12779 0.0
C843 C 0.17941 0.36371 0.13507 0.0
C844 C 0.19715 0.39949 0.14604 0.0
C845 C 0.19982 0.32683 0.13805 0.0
C846 C 0.23556 0.39826 0.15973 0.0
C847 C 0.25605 0.36181 0.1627 0.0
H848 H 0.40671 0.41335 0.37656 0.0
H849 H 0.35058 0.50618 0.43176 0.0
H850 H 0.41464 0.54183 0.43584 0.0
H851 H 0.48573 0.54608 0.42438 0.0
H852 H 0.54415 0.45212 0.37167 0.0
H853 H 0.47942 0.41748 0.36541 0.0
C854 C 0.40866 0.44134 0.38954 0.0
C855 C 0.3742 0.4573 0.40385 0.0
C856 C 0.44562 0.46149 0.39191 0.0
C857 C 0.37684 0.49343 0.42064 0.0
C858 C 0.41334 0.51384 0.42285 0.0
C859 C 0.4845 0.51825 0.41115 0.0
C860 C 0.51972 0.50179 0.3983 0.0
C861 C 0.44778 0.49815 0.40854 0.0
C862 C 0.51742 0.46543 0.38167 0.0
C863 C 0.48051 0.44559 0.37824 0.0
H864 H 0.23177 0.7339 0.66478 0.0
H865 H 0.3354 0.79636 0.62856 0.0
H866 H 0.36885 0.73156 0.61952 0.0
H867 H 0.36945 0.65702 0.62434 0.0
H868 H 0.26576 0.59662 0.66229 0.0
H869 H 0.23161 0.66111 0.66854 0.0
C870 C 0.2616 0.73365 0.65467 0.0
C871 C 0.28107 0.77012 0.64744 0.0
C872 C 0.28076 0.69661 0.65017 0.0
C873 C 0.31968 0.76881 0.63433 0.0
C874 C 0.33888 0.73176 0.6293 0.0
C875 C 0.33936 0.65812 0.63391 0.0
C876 C 0.3201 0.62223 0.64293 0.0
C877 C 0.31989 0.69548 0.63756 0.0
C878 C 0.28116 0.62388 0.65526 0.0
C879 C 0.26161 0.66071 0.65878 0.0
H880 H 0.02195 0.47439 0.934 0.0
H881 H 0.97422 0.54009 0.85529 0.0
H882 H 0.04121 0.56874 0.84542 0.0
H883 H 0.11308 0.57551 0.86013 0.0
H884 H 0.15784 0.51458 0.94218 0.0
H885 H 0.09198 0.4833 0.94995 0.0
C886 C 0.02627 0.49471 0.91448 0.0
C887 C 0.99354 0.5047 0.895 0.0
C888 C 0.0642 0.5118 0.90971 0.0
C889 C 0.99916 0.53188 0.87038 0.0
C890 C 0.03737 0.54814 0.8648 0.0
C891 C 0.10836 0.55511 0.87954 0.0
C892 C 0.1402 0.54679 0.90038 0.0
C893 C 0.07008 0.53834 0.88438 0.0
C894 C 0.13374 0.52109 0.92581 0.0
C895 C 0.09617 0.50329 0.93023 0.0
H896 H 0.7243 0.72603 0.90448 0.0
H897 H 0.8242 0.78499 0.95027 0.0
H898 H 0.85902 0.72004 0.95489 0.0
H899 H 0.86169 0.64674 0.94408 0.0
H900 H 0.76247 0.58997 0.89592 0.0
H901 H 0.72687 0.65428 0.89365 0.0
C902 C 0.75346 0.72486 0.91593 0.0
C903 C 0.77143 0.76041 0.92733 0.0
C904 C 0.77363 0.68788 0.91761 0.0
C905 C 0.80955 0.75809 0.94153 0.0
C906 C 0.82954 0.72101 0.94399 0.0
C907 C 0.83231 0.64859 0.93303 0.0
C908 C 0.81465 0.61376 0.92013 0.0
C909 C 0.81205 0.68579 0.93173 0.0
C910 C 0.77665 0.61641 0.90591 0.0
C911 C 0.75624 0.65311 0.90473 0.0
H912 H 0.61326 0.60792 0.69408 0.0
H913 H 0.67305 0.50503 0.65396 0.0
H914 H 0.60869 0.47023 0.64854 0.0
H915 H 0.53587 0.46979 0.6538 0.0
H916 H 0.47474 0.57315 0.69221 0.0
H917 H 0.53947 0.60688 0.70023 0.0
C918 C 0.61208 0.57786 0.68421 0.0
C919 C 0.64767 0.55898 0.67438 0.0
C920 C 0.57494 0.55808 0.68112 0.0
C921 C 0.64595 0.52009 0.66165 0.0
C922 C 0.60922 0.50018 0.65861 0.0
C923 C 0.53655 0.49946 0.66439 0.0
C924 C 0.50048 0.51884 0.67256 0.0
C925 C 0.57358 0.51893 0.66821 0.0
C926 C 0.50208 0.55753 0.68579 0.0
C927 C 0.53905 0.57689 0.69025 0.0
H928 H 0.78494 0.28558 0.39551 0.0
H929 H 0.69274 0.23012 0.45153 0.0
H930 H 0.65884 0.29553 0.45648 0.0
H931 H 0.65559 0.36826 0.44429 0.0
H932 H 0.74716 0.4219 0.38673 0.0
H933 H 0.7812 0.3568 0.38267 0.0
C934 C 0.75768 0.28767 0.40919 0.0
C935 C 0.74161 0.25309 0.42353 0.0
C936 C 0.73815 0.32488 0.41131 0.0
C937 C 0.70579 0.25636 0.44047 0.0
C938 C 0.68641 0.29367 0.4432 0.0
C939 C 0.68294 0.36557 0.43078 0.0
C940 C 0.69902 0.39969 0.41584 0.0
C941 C 0.70226 0.32807 0.42857 0.0
C942 C 0.73433 0.39599 0.39838 0.0
C943 C 0.75381 0.35887 0.39616 0.0
H944 H 0.8688 0.49128 0.18619 0.0
H945 H 0.90383 0.3705 0.16155 0.0
H946 H 0.97468 0.39086 0.16071 0.0
H947 H 0.02629 0.44421 0.1646 0.0
H948 H 0.99043 0.56421 0.19167 0.0
H949 H 0.92064 0.54271 0.19479 0.0
C950 C 0.89201 0.46954 0.18051 0.0
C951 C 0.88129 0.42974 0.17337 0.0
C952 C 0.93261 0.48118 0.18095 0.0
C953 C 0.91153 0.40149 0.16678 0.0
C954 C 0.95199 0.41306 0.16645 0.0
C955 C 1.00336 0.46538 0.17191 0.0
C956 C 0.01366 0.50584 0.17766 0.0
C957 C 0.96292 0.45293 0.17337 0.0
C958 C 0.98341 0.53293 0.18691 0.0
C959 C 0.94335 0.52077 0.18851 0.0
H960 H 0.69353 0.73063 0.65925 0.0
H961 H 0.81365 0.7661 0.63316 0.0
H962 H 0.79302 0.83635 0.63118 0.0
H963 H 0.74224 0.88858 0.64027 0.0
H964 H 0.62119 0.85406 0.66341 0.0
H965 H 0.6408 0.78284 0.66361 0.0
C966 C 0.7149 0.75361 0.6524 0.0
C967 C 0.75513 0.74304 0.64661 0.0
C968 C 0.70293 0.79432 0.65154 0.0
C969 C 0.78251 0.77334 0.63796 0.0
C970 C 0.77087 0.81366 0.63702 0.0
C971 C 0.72031 0.86539 0.64553 0.0
C972 C 0.68064 0.8763 0.65242 0.0
C973 C 0.73148 0.82461 0.64457 0.0
C974 C 0.6521 0.84614 0.65841 0.0
C975 C 0.66324 0.80549 0.65835 0.0
H976 H 0.86815 0.98661 0.89361 0.0
H977 H 0.90464 0.86205 0.89712 0.0
H978 H 0.97533 0.88203 0.89776 0.0
H979 H 0.0268 0.93502 0.89965 0.0
H980 H 0.99033 0.05976 0.89468 0.0
H981 H 0.92003 0.03959 0.89148 0.0
C982 C 0.89167 0.96398 0.89462 0.0
C983 C 0.88136 0.92303 0.89574 0.0
C984 C 0.93234 0.97566 0.89432 0.0
C985 C 0.91197 0.89384 0.89647 0.0
C986 C 0.95239 0.90521 0.89671 0.0
C987 C 1.00358 0.95779 0.89721 0.0
C988 C 0.014 0.99884 0.89761 0.0
C989 C 0.96298 0.94605 0.89578 0.0
C990 C 0.98332 0.02789 0.89458 0.0
C991 C 0.94296 0.01644 0.89295 0.0
H992 H 0.82278 0.1536 0.10896 0.0
H993 H 0.75551 0.10854 0.18725 0.0
H994 H 0.72322 0.17442 0.19345 0.0
H995 H 0.71737 0.24509 0.17856 0.0
H996 H 0.79035 0.29303 0.10444 0.0
H997 H 0.81746 0.22539 0.0944 0.0
C998 C 0.80068 0.15822 0.12713 0.0
C999 C 0.79105 0.12647 0.1475 0.0
C1000 C 0.78358 0.19649 0.13124 0.0
C1001 C 0.76312 0.13271 0.17135 0.0
C1002 C 0.74476 0.17025 0.17485 0.0
C1003 C 0.73866 0.24067 0.15978 0.0
C1004 C 0.75142 0.27373 0.14182 0.0
C1005 C 0.75514 0.20238 0.15516 0.0
C1006 C 0.77993 0.26785 0.11829 0.0
C1007 C 0.79541 0.2293 0.11266 0.0
H1008 H 0.52968 0.98225 0.42206 0.0
H1009 H 0.47261 0.08099 0.37328 0.0
H1010 H 0.53808 0.11388 0.36734 0.0
H1011 H 0.61087 0.11585 0.3784 0.0
H1012 H 0.6665 0.0185 0.42958 0.0
H1013 H 0.60172 0.98384 0.43265 0.0
C1014 C 0.53145 0.01066 0.40963 0.0
C1015 C 0.49628 0.02901 0.39786 0.0
C1016 C 0.56877 0.02987 0.40726 0.0
C1017 C 0.49925 0.06615 0.38236 0.0
C1018 C 0.5366 0.08505 0.37915 0.0
C1019 C 0.60873 0.08704 0.39022 0.0
C1020 C 0.64323 0.06966 0.40382 0.0
C1021 C 0.57142 0.06746 0.39197 0.0
C1022 C 0.64024 0.03241 0.41905 0.0
C1023 C 0.6033 0.01257 0.42069 0.0
H1024 H 0.32786 0.29233 0.42044 0.0
H1025 H 0.20879 0.25968 0.45079 0.0
H1026 H 0.22995 0.18989 0.45759 0.0
H1027 H 0.28002 0.13682 0.44909 0.0
H1028 H 0.39948 0.16882 0.41962 0.0
H1029 H 0.38048 0.24008 0.4179 0.0
C1030 C 0.30701 0.27016 0.4295 0.0
C1031 C 0.26684 0.28093 0.43492 0.0
C1032 C 0.31912 0.22979 0.43263 0.0
C1033 C 0.23989 0.2519 0.44632 0.0
C1034 C 0.25182 0.21194 0.44995 0.0
C1035 C 0.30179 0.15951 0.44235 0.0
C1036 C 0.3407 0.14789 0.43392 0.0
C1037 C 0.29089 0.2003 0.44201 0.0
C1038 C 0.36912 0.17733 0.42587 0.0
C1039 C 0.35834 0.218 0.42501 0.0
H1040 H 0.01821 0.99988 0.13796 0.0
H1041 H 0.96537 0.08363 0.20293 0.0
H1042 H 0.03138 0.11587 0.21033 0.0
H1043 H 0.10453 0.11859 0.19894 0.0
H1044 H 0.15519 0.03433 0.13332 0.0
H1045 H 0.08909 1.00376 0.12546 0.0
C1046 C 0.02094 0.02496 0.15407 0.0
C1047 C 0.987 0.03886 0.17041 0.0
C1048 C 0.05853 0.0432 0.15793 0.0
C1049 C 0.99108 0.07218 0.19033 0.0
C1050 C 0.02879 0.09052 0.19452 0.0
C1051 C 0.10097 0.09357 0.1829 0.0
C1052 C 0.13466 0.07846 0.16685 0.0
C1053 C 0.06278 0.07607 0.17856 0.0
C1054 C 0.12975 0.04627 0.14601 0.0
C1055 C 0.09201 0.0288 0.14155 0.0
H1056 H 0.23261 0.87842 0.94279 0.0
H1057 H 0.1111 0.84615 0.91797 0.0
H1058 H 0.13017 0.77485 0.91561 0.0
H1059 H 0.18307 0.72222 0.91721 0.0
H1060 H 0.30396 0.75562 0.94347 0.0
H1061 H 0.28333 0.82559 0.9496 0.0
C1062 C 0.21039 0.85571 0.93687 0.0
C1063 C 0.17079 0.86732 0.93003 0.0
C1064 C 0.22136 0.81489 0.93626 0.0
C1065 C 0.14194 0.83773 0.92302 0.0
C1066 C 0.15278 0.79701 0.92179 0.0
C1067 C 0.20448 0.74466 0.92518 0.0
C1068 C 0.24493 0.73387 0.92984 0.0
C1069 C 0.19255 0.78522 0.9281 0.0
C1070 C 0.27262 0.76331 0.93969 0.0
C1071 C 0.26096 0.80339 0.94296 0.0
H1072 H 0.40315 0.92449 0.70831 0.0
H1073 H 0.35442 1.00469 0.63854 0.0
H1074 H 0.41983 0.03812 0.63405 0.0
H1075 H 0.49115 0.04146 0.64756 0.0
H1076 H 0.54252 0.95585 0.71235 0.0
H1077 H 0.47552 0.92721 0.7213 0.0
C1078 C 0.407 0.9494 0.6922 0.0
C1079 C 0.3743 0.96251 0.67387 0.0
C1080 C 0.44504 0.96704 0.68874 0.0
C1081 C 0.37939 0.99425 0.65275 0.0
C1082 C 0.41671 0.01321 0.65018 0.0
C1083 C 0.4878 0.01676 0.6639 0.0
C1084 C 0.52173 1.00087 0.67945 0.0
C1085 C 0.44979 0.99947 0.66776 0.0
C1086 C 0.51682 0.96858 0.7002 0.0
C1087 C 0.47861 0.9522 0.70521 0.0
loop_
_geom_bond_atom_site_label_1
_geom_bond_atom_site_label_2
_geom_bond_distance
_geom_bond_site_symmetry_2
_ccdc_geom_bond_type
Tb0 O3 2.453 . S
Tb0 O4 2.596 . S
Tb0 O5 2.374 . S
Tb0 O13 2.343 . S
Tb0 O15 2.353 . S
Tb0 O17 2.427 . S
Tb0 O18 2.513 . S
C1 O5 1.251 . S
C1 O7 1.263 . S
Tb2 O4 2.343 . S
Tb2 O7 2.353 . S
Tb2 O10 2.427 . S
Tb2 O11 2.513 . S
Tb2 O12 2.453 . S
Tb2 O13 2.596 . S
Tb2 O14 2.374 . S
O3 Tb0 2.453 . S
O3 C19 1.245 . S
O4 Tb0 2.596 . S
O4 Tb2 2.343 . S
O4 C19 1.259 . S
O5 Tb0 2.374 . S
O5 C1 1.251 . S
C6 O10 1.275 . S
C6 O11 1.246 . S
O7 C1 1.263 . S
O7 Tb2 2.353 . S
C8 O12 1.245 . S
C8 O13 1.259 . S
C9 O14 1.250 . S
C9 O15 1.263 . S
O10 Tb2 2.427 . S
O10 C6 1.275 . S
O11 Tb2 2.513 . S
O11 C6 1.246 . S
O12 Tb2 2.453 . S
O12 C8 1.245 . S
O13 Tb0 2.343 . S
O13 Tb2 2.596 . S
O13 C8 1.259 . S
O14 Tb2 2.374 . S
O14 C9 1.250 . S
O15 Tb0 2.353 . S
O15 C9 1.263 . S
C16 O17 1.275 . S
C16 O18 1.246 . S
O17 Tb0 2.427 . S
O17 C16 1.275 . S
O18 Tb0 2.513 . S
O18 C16 1.246 . S
C19 O3 1.245 . S
C19 O4 1.259 . S
Tb20 O23 2.453 . S
Tb20 O24 2.596 . S
Tb20 O25 2.374 . S
Tb20 O33 2.343 . S
Tb20 O35 2.353 . S
Tb20 O37 2.427 . S
Tb20 O38 2.513 . S
C21 O25 1.251 . S
C21 O27 1.263 . S
Tb22 O24 2.343 . S
Tb22 O27 2.353 . S
Tb22 O30 2.427 . S
Tb22 O31 2.513 . S
Tb22 O32 2.453 . S
Tb22 O33 2.596 . S
Tb22 O34 2.374 . S
O23 Tb20 2.453 . S
O23 C39 1.245 . S
O24 Tb20 2.596 . S
O24 Tb22 2.343 . S
O24 C39 1.259 . S
O25 Tb20 2.374 . S
O25 C21 1.251 . S
C26 O30 1.275 . S
C26 O31 1.246 . S
O27 C21 1.263 . S
O27 Tb22 2.353 . S
C28 O32 1.245 . S
C28 O33 1.259 . S
C29 O34 1.250 . S
C29 O35 1.263 . S
O30 Tb22 2.427 . S
O30 C26 1.275 . S
O31 Tb22 2.513 . S
O31 C26 1.246 . S
O32 Tb22 2.453 . S
O32 C28 1.245 . S
O33 Tb20 2.343 . S
O33 Tb22 2.596 . S
O33 C28 1.259 . S
O34 Tb22 2.374 . S
O34 C29 1.250 . S
O35 Tb20 2.353 . S
O35 C29 1.263 . S
C36 O37 1.275 . S
C36 O38 1.246 . S
O37 Tb20 2.427 . S
O37 C36 1.275 . S
O38 Tb20 2.513 . S
O38 C36 1.246 . S
C39 O23 1.245 . S
C39 O24 1.259 . S
Tb40 O43 2.453 . S
Tb40 O44 2.596 . S
Tb40 O45 2.374 . S
Tb40 O53 2.343 . S
Tb40 O55 2.353 . S
Tb40 O57 2.427 . S
Tb40 O58 2.513 . S
C41 O45 1.251 . S
C41 O47 1.263 . S
Tb42 O44 2.343 . S
Tb42 O47 2.353 . S
Tb42 O50 2.427 . S
Tb42 O51 2.513 . S
Tb42 O52 2.453 . S
Tb42 O53 2.596 . S
Tb42 O54 2.374 . S
O43 Tb40 2.453 . S
O43 C59 1.245 . S
O44 Tb40 2.596 . S
O44 Tb42 2.343 . S
O44 C59 1.259 . S
O45 Tb40 2.374 . S
O45 C41 1.251 . S
C46 O50 1.275 . S
C46 O51 1.246 . S
O47 C41 1.263 . S
O47 Tb42 2.353 . S
C48 O52 1.245 . S
C48 O53 1.259 . S
C49 O54 1.250 . S
C49 O55 1.263 . S
O50 Tb42 2.427 . S
O50 C46 1.275 . S
O51 Tb42 2.513 . S
O51 C46 1.246 . S
O52 Tb42 2.453 . S
O52 C48 1.245 . S
O53 Tb40 2.343 . S
O53 Tb42 2.596 . S
O53 C48 1.259 . S
O54 Tb42 2.374 . S
O54 C49 1.250 . S
O55 Tb40 2.353 . S
O55 C49 1.263 . S
C56 O57 1.275 . S
C56 O58 1.246 . S
O57 Tb40 2.427 . S
O57 C56 1.275 . S
O58 Tb40 2.513 . S
O58 C56 1.246 . S
C59 O43 1.245 . S
C59 O44 1.259 . S
Tb60 O63 2.453 . S
Tb60 O64 2.596 . S
Tb60 O65 2.374 . S
Tb60 O73 2.343 . S
Tb60 O75 2.353 . S
Tb60 O77 2.427 . S
Tb60 O78 2.513 . S
C61 O65 1.251 . S
C61 O67 1.263 . S
Tb62 O64 2.343 . S
Tb62 O67 2.353 . S
Tb62 O70 2.427 . S
Tb62 O71 2.513 . S
Tb62 O72 2.453 . S
Tb62 O73 2.596 . S
Tb62 O74 2.374 . S
O63 Tb60 2.453 . S
O63 C79 1.245 . S
O64 Tb60 2.596 . S
O64 Tb62 2.343 . S
O64 C79 1.259 . S
O65 Tb60 2.374 . S
O65 C61 1.251 . S
C66 O70 1.275 . S
C66 O71 1.246 . S
O67 C61 1.263 . S
O67 Tb62 2.353 . S
C68 O72 1.245 . S
C68 O73 1.259 . S
C69 O74 1.250 . S
C69 O75 1.263 . S
O70 Tb62 2.427 . S
O70 C66 1.275 . S
O71 Tb62 2.513 . S
O71 C66 1.246 . S
O72 Tb62 2.453 . S
O72 C68 1.245 . S
O73 Tb60 2.343 . S
O73 Tb62 2.596 . S
O73 C68 1.259 . S
O74 Tb62 2.374 . S
O74 C69 1.250 . S
O75 Tb60 2.353 . S
O75 C69 1.263 . S
C76 O77 1.275 . S
C76 O78 1.246 . S
O77 Tb60 2.427 . S
O77 C76 1.275 . S
O78 Tb60 2.513 . S
O78 C76 1.246 . S
C79 O63 1.245 . S
C79 O64 1.259 . S
Tb80 O83 2.453 . S
Tb80 O84 2.596 . S
Tb80 O85 2.374 . S
Tb80 O93 2.343 . S
Tb80 O95 2.353 . S
Tb80 O97 2.427 . S
Tb80 O98 2.513 . S
C81 O85 1.251 . S
C81 O87 1.263 . S
Tb82 O84 2.343 . S
Tb82 O87 2.353 . S
Tb82 O90 2.427 . S
Tb82 O91 2.513 . S
Tb82 O92 2.453 . S
Tb82 O93 2.596 . S
Tb82 O94 2.374 . S
O83 Tb80 2.453 . S
O83 C99 1.245 . S
O84 Tb80 2.596 . S
O84 Tb82 2.343 . S
O84 C99 1.259 . S
O85 Tb80 2.374 . S
O85 C81 1.251 . S
C86 O90 1.275 . S
C86 O91 1.246 . S
O87 C81 1.263 . S
O87 Tb82 2.353 . S
C88 O92 1.245 . S
C88 O93 1.259 . S
C89 O94 1.250 . S
C89 O95 1.263 . S
O90 Tb82 2.427 . S
O90 C86 1.275 . S
O91 Tb82 2.513 . S
O91 C86 1.246 . S
O92 Tb82 2.453 . S
O92 C88 1.245 . S
O93 Tb80 2.343 . S
O93 Tb82 2.596 . S
O93 C88 1.259 . S
O94 Tb82 2.374 . S
O94 C89 1.250 . S
O95 Tb80 2.353 . S
O95 C89 1.263 . S
C96 O97 1.275 . S
C96 O98 1.246 . S
O97 Tb80 2.427 . S
O97 C96 1.275 . S
O98 Tb80 2.513 . S
O98 C96 1.246 . S
C99 O83 1.245 . S
C99 O84 1.259 . S
Tb100 O103 2.453 . S
Tb100 O104 2.596 . S
Tb100 O105 2.374 . S
Tb100 O113 2.343 . S
Tb100 O115 2.353 . S
Tb100 O117 2.427 . S
Tb100 O118 2.513 . S
C101 O105 1.251 . S
C101 O107 1.263 . S
Tb102 O104 2.343 . S
Tb102 O107 2.353 . S
Tb102 O110 2.427 . S
Tb102 O111 2.513 . S
Tb102 O112 2.453 . S
Tb102 O113 2.596 . S
Tb102 O114 2.374 . S
O103 Tb100 2.453 . S
O103 C119 1.245 . S
O104 Tb100 2.596 . S
O104 Tb102 2.343 . S
O104 C119 1.259 . S
O105 Tb100 2.374 . S
O105 C101 1.251 . S
C106 O110 1.275 . S
C106 O111 1.246 . S
O107 C101 1.263 . S
O107 Tb102 2.353 . S
C108 O112 1.245 . S
C108 O113 1.259 . S
C109 O114 1.250 . S
C109 O115 1.263 . S
O110 Tb102 2.427 . S
O110 C106 1.275 . S
O111 Tb102 2.513 . S
O111 C106 1.246 . S
O112 Tb102 2.453 . S
O112 C108 1.245 . S
O113 Tb100 2.343 . S
O113 Tb102 2.596 . S
O113 C108 1.259 . S
O114 Tb102 2.374 . S
O114 C109 1.250 . S
O115 Tb100 2.353 . S
O115 C109 1.263 . S
C116 O117 1.275 . S
C116 O118 1.246 . S
O117 Tb100 2.427 . S
O117 C116 1.275 . S
O118 Tb100 2.513 . S
O118 C116 1.246 . S
C119 O103 1.245 . S
C119 O104 1.259 . S
Tb120 O123 2.453 . S
Tb120 O124 2.596 . S
Tb120 O125 2.374 . S
Tb120 O133 2.343 . S
Tb120 O135 2.353 . S
Tb120 O137 2.427 . S
Tb120 O138 2.513 . S
C121 O125 1.251 . S
C121 O127 1.263 . S
Tb122 O124 2.343 . S
Tb122 O127 2.353 . S
Tb122 O130 2.427 . S
Tb122 O131 2.513 . S
Tb122 O132 2.453 . S
Tb122 O133 2.596 . S
Tb122 O134 2.374 . S
O123 Tb120 2.453 . S
O123 C139 1.245 . S
O124 Tb120 2.596 . S
O124 Tb122 2.343 . S
O124 C139 1.259 . S
O125 Tb120 2.374 . S
O125 C121 1.251 . S
C126 O130 1.275 . S
C126 O131 1.246 . S
O127 C121 1.263 . S
O127 Tb122 2.353 . S
C128 O132 1.245 . S
C128 O133 1.259 . S
C129 O134 1.250 . S
C129 O135 1.263 . S
O130 Tb122 2.427 . S
O130 C126 1.275 . S
O131 Tb122 2.513 . S
O131 C126 1.246 . S
O132 Tb122 2.453 . S
O132 C128 1.245 . S
O133 Tb120 2.343 . S
O133 Tb122 2.596 . S
O133 C128 1.259 . S
O134 Tb122 2.374 . S
O134 C129 1.250 . S
O135 Tb120 2.353 . S
O135 C129 1.263 . S
C136 O137 1.275 . S
C136 O138 1.246 . S
O137 Tb120 2.427 . S
O137 C136 1.275 . S
O138 Tb120 2.513 . S
O138 C136 1.246 . S
C139 O123 1.245 . S
C139 O124 1.259 . S
Tb140 O143 2.453 . S
Tb140 O144 2.596 . S
Tb140 O145 2.374 . S
Tb140 O153 2.343 . S
Tb140 O155 2.353 . S
Tb140 O157 2.427 . S
Tb140 O158 2.513 . S
C141 O145 1.251 . S
C141 O147 1.263 . S
Tb142 O144 2.343 . S
Tb142 O147 2.353 . S
Tb142 O150 2.427 . S
Tb142 O151 2.513 . S
Tb142 O152 2.453 . S
Tb142 O153 2.596 . S
Tb142 O154 2.374 . S
O143 Tb140 2.453 . S
O143 C159 1.245 . S
O144 Tb140 2.596 . S
O144 Tb142 2.343 . S
O144 C159 1.259 . S
O145 Tb140 2.374 . S
O145 C141 1.251 . S
C146 O150 1.275 . S
C146 O151 1.246 . S
O147 C141 1.263 . S
O147 Tb142 2.353 . S
C148 O152 1.245 . S
C148 O153 1.259 . S
C149 O154 1.250 . S
C149 O155 1.263 . S
O150 Tb142 2.427 . S
O150 C146 1.275 . S
O151 Tb142 2.513 . S
O151 C146 1.246 . S
O152 Tb142 2.453 . S
O152 C148 1.245 . S
O153 Tb140 2.343 . S
O153 Tb142 2.596 . S
O153 C148 1.259 . S
O154 Tb142 2.374 . S
O154 C149 1.250 . S
O155 Tb140 2.353 . S
O155 C149 1.263 . S
C156 O157 1.275 . S
C156 O158 1.246 . S
O157 Tb140 2.427 . S
O157 C156 1.275 . S
O158 Tb140 2.513 . S
O158 C156 1.246 . S
C159 O143 1.245 . S
C159 O144 1.259 . S
Tb160 O163 2.453 . S
Tb160 O164 2.596 . S
Tb160 O165 2.374 . S
Tb160 O173 2.343 . S
Tb160 O175 2.353 . S
Tb160 O177 2.427 . S
Tb160 O178 2.513 . S
C161 O165 1.251 . S
C161 O167 1.263 . S
Tb162 O164 2.343 . S
Tb162 O167 2.353 . S
Tb162 O170 2.427 . S
Tb162 O171 2.513 . S
Tb162 O172 2.453 . S
Tb162 O173 2.596 . S
Tb162 O174 2.374 . S
O163 Tb160 2.453 . S
O163 C179 1.245 . S
O164 Tb160 2.596 . S
O164 Tb162 2.343 . S
O164 C179 1.259 . S
O165 Tb160 2.374 . S
O165 C161 1.251 . S
C166 O170 1.275 . S
C166 O171 1.246 . S
O167 C161 1.263 . S
O167 Tb162 2.353 . S
C168 O172 1.245 . S
C168 O173 1.259 . S
C169 O174 1.250 . S
C169 O175 1.263 . S
O170 Tb162 2.427 . S
O170 C166 1.275 . S
O171 Tb162 2.513 . S
O171 C166 1.246 . S
O172 Tb162 2.453 . S
O172 C168 1.245 . S
O173 Tb160 2.343 . S
O173 Tb162 2.596 . S
O173 C168 1.259 . S
O174 Tb162 2.374 . S
O174 C169 1.250 . S
O175 Tb160 2.353 . S
O175 C169 1.263 . S
C176 O177 1.275 . S
C176 O178 1.246 . S
O177 Tb160 2.427 . S
O177 C176 1.275 . S
O178 Tb160 2.513 . S
O178 C176 1.246 . S
C179 O163 1.245 . S
C179 O164 1.259 . S
Tb180 O183 2.453 . S
Tb180 O184 2.596 1_545 S
Tb180 O185 2.374 . S
Tb180 O193 2.343 . S
Tb180 O195 2.353 . S
Tb180 O197 2.427 . S
Tb180 O198 2.513 . S
C181 O185 1.251 1_565 S
C181 O187 1.263 . S
Tb182 O184 2.343 . S
Tb182 O187 2.353 . S
Tb182 O190 2.427 . S
Tb182 O191 2.513 . S
Tb182 O192 2.453 . S
Tb182 O193 2.596 1_565 S
Tb182 O194 2.374 1_565 S
O183 Tb180 2.453 . S
O183 C199 1.245 . S
O184 Tb180 2.596 1_565 S
O184 Tb182 2.343 . S
O184 C199 1.259 1_565 S
O185 Tb180 2.374 . S
O185 C181 1.251 1_545 S
C186 O190 1.275 . S
C186 O191 1.246 . S
O187 C181 1.263 . S
O187 Tb182 2.353 . S
C188 O192 1.245 1_545 S
C188 O193 1.259 . S
C189 O194 1.250 . S
C189 O195 1.263 . S
O190 Tb182 2.427 . S
O190 C186 1.275 . S
O191 Tb182 2.513 . S
O191 C186 1.246 . S
O192 Tb182 2.453 . S
O192 C188 1.245 1_565 S
O193 Tb180 2.343 . S
O193 Tb182 2.596 1_545 S
O193 C188 1.259 . S
O194 Tb182 2.374 1_545 S
O194 C189 1.250 . S
O195 Tb180 2.353 . S
O195 C189 1.263 . S
C196 O197 1.275 . S
C196 O198 1.246 . S
O197 Tb180 2.427 . S
O197 C196 1.275 . S
O198 Tb180 2.513 . S
O198 C196 1.246 . S
C199 O183 1.245 . S
C199 O184 1.259 1_545 S
Tb200 O203 2.453 . S
Tb200 O204 2.596 . S
Tb200 O205 2.374 . S
Tb200 O213 2.343 . S
Tb200 O215 2.353 . S
Tb200 O217 2.427 . S
Tb200 O218 2.513 . S
C201 O205 1.251 . S
C201 O207 1.263 . S
Tb202 O204 2.343 . S
Tb202 O207 2.353 . S
Tb202 O210 2.427 . S
Tb202 O211 2.513 . S
Tb202 O212 2.453 . S
Tb202 O213 2.596 . S
Tb202 O214 2.374 . S
O203 Tb200 2.453 . S
O203 C219 1.245 . S
O204 Tb200 2.596 . S
O204 Tb202 2.343 . S
O204 C219 1.259 . S
O205 Tb200 2.374 . S
O205 C201 1.251 . S
C206 O210 1.275 . S
C206 O211 1.246 . S
O207 C201 1.263 . S
O207 Tb202 2.353 . S
C208 O212 1.245 . S
C208 O213 1.259 . S
C209 O214 1.250 . S
C209 O215 1.263 . S
O210 Tb202 2.427 . S
O210 C206 1.275 . S
O211 Tb202 2.513 . S
O211 C206 1.246 . S
O212 Tb202 2.453 . S
O212 C208 1.245 . S
O213 Tb200 2.343 . S
O213 Tb202 2.596 . S
O213 C208 1.259 . S
O214 Tb202 2.374 . S
O214 C209 1.250 . S
O215 Tb200 2.353 . S
O215 C209 1.263 . S
C216 O217 1.275 . S
C216 O218 1.246 . S
O217 Tb200 2.427 . S
O217 C216 1.275 . S
O218 Tb200 2.513 . S
O218 C216 1.246 . S
C219 O203 1.245 . S
C219 O204 1.259 . S
Tb220 O223 2.453 . S
Tb220 O224 2.596 1_565 S
Tb220 O225 2.374 . S
Tb220 O233 2.343 . S
Tb220 O235 2.353 . S
Tb220 O237 2.427 . S
Tb220 O238 2.513 . S
C221 O225 1.251 1_545 S
C221 O227 1.263 . S
Tb222 O224 2.343 . S
Tb222 O227 2.353 . S
Tb222 O230 2.427 . S
Tb222 O231 2.513 . S
Tb222 O232 2.453 . S
Tb222 O233 2.596 1_545 S
Tb222 O234 2.374 1_545 S
O223 Tb220 2.453 . S
O223 C239 1.245 . S
O224 Tb220 2.596 1_545 S
O224 Tb222 2.343 . S
O224 C239 1.259 1_545 S
O225 Tb220 2.374 . S
O225 C221 1.251 1_565 S
C226 O230 1.275 . S
C226 O231 1.246 . S
O227 C221 1.263 . S
O227 Tb222 2.353 . S
C228 O232 1.245 1_565 S
C228 O233 1.259 . S
C229 O234 1.250 . S
C229 O235 1.263 . S
O230 Tb222 2.427 . S
O230 C226 1.275 . S
O231 Tb222 2.513 . S
O231 C226 1.246 . S
O232 Tb222 2.453 . S
O232 C228 1.245 1_545 S
O233 Tb220 2.343 . S
O233 Tb222 2.596 1_565 S
O233 C228 1.259 . S
O234 Tb222 2.374 1_565 S
O234 C229 1.250 . S
O235 Tb220 2.353 . S
O235 C229 1.263 . S
C236 O237 1.275 . S
C236 O238 1.246 . S
O237 Tb220 2.427 . S
O237 C236 1.275 . S
O238 Tb220 2.513 . S
O238 C236 1.246 . S
C239 O223 1.245 . S
C239 O224 1.259 1_565 S
Tb240 O243 2.453 . S
Tb240 O244 2.596 . S
Tb240 O245 2.374 . S
Tb240 O253 2.343 . S
Tb240 O255 2.353 . S
Tb240 O257 2.427 . S
Tb240 O258 2.513 . S
C241 O245 1.251 . S
C241 O247 1.263 . S
Tb242 O244 2.343 . S
Tb242 O247 2.353 . S
Tb242 O250 2.427 . S
Tb242 O251 2.513 . S
Tb242 O252 2.453 . S
Tb242 O253 2.596 . S
Tb242 O254 2.374 . S
O243 Tb240 2.453 . S
O243 C259 1.245 . S
O244 Tb240 2.596 . S
O244 Tb242 2.343 . S
O244 C259 1.259 . S
O245 Tb240 2.374 . S
O245 C241 1.251 . S
C246 O250 1.275 . S
C246 O251 1.246 . S
O247 C241 1.263 . S
O247 Tb242 2.353 . S
C248 O252 1.245 . S
C248 O253 1.259 . S
C249 O254 1.250 . S
C249 O255 1.263 . S
O250 Tb242 2.427 . S
O250 C246 1.275 . S
O251 Tb242 2.513 . S
O251 C246 1.246 . S
O252 Tb242 2.453 . S
O252 C248 1.245 . S
O253 Tb240 2.343 . S
O253 Tb242 2.596 . S
O253 C248 1.259 . S
O254 Tb242 2.374 . S
O254 C249 1.250 . S
O255 Tb240 2.353 . S
O255 C249 1.263 . S
C256 O257 1.275 . S
C256 O258 1.246 . S
O257 Tb240 2.427 . S
O257 C256 1.275 . S
O258 Tb240 2.513 . S
O258 C256 1.246 . S
C259 O243 1.245 . S
C259 O244 1.259 . S
Tb260 O263 2.453 . S
Tb260 O264 2.596 1_545 S
Tb260 O265 2.374 1_545 S
Tb260 O273 2.343 . S
Tb260 O275 2.353 . S
Tb260 O277 2.427 . S
Tb260 O278 2.513 . S
C261 O265 1.251 . S
C261 O267 1.263 . S
Tb262 O264 2.343 . S
Tb262 O267 2.353 . S
Tb262 O270 2.427 . S
Tb262 O271 2.513 . S
Tb262 O272 2.453 . S
Tb262 O273 2.596 1_565 S
Tb262 O274 2.374 . S
O263 Tb260 2.453 . S
O263 C279 1.245 1_545 S
O264 Tb260 2.596 1_565 S
O264 Tb262 2.343 . S
O264 C279 1.259 . S
O265 Tb260 2.374 1_565 S
O265 C261 1.251 . S
C266 O270 1.275 . S
C266 O271 1.246 . S
O267 C261 1.263 . S
O267 Tb262 2.353 . S
C268 O272 1.245 . S
C268 O273 1.259 1_565 S
C269 O274 1.250 1_545 S
C269 O275 1.263 . S
O270 Tb262 2.427 . S
O270 C266 1.275 . S
O271 Tb262 2.513 . S
O271 C266 1.246 . S
O272 Tb262 2.453 . S
O272 C268 1.245 . S
O273 Tb260 2.343 . S
O273 Tb262 2.596 1_545 S
O273 C268 1.259 1_545 S
O274 Tb262 2.374 . S
O274 C269 1.250 1_565 S
O275 Tb260 2.353 . S
O275 C269 1.263 . S
C276 O277 1.275 . S
C276 O278 1.246 . S
O277 Tb260 2.427 . S
O277 C276 1.275 . S
O278 Tb260 2.513 . S
O278 C276 1.246 . S
C279 O263 1.245 1_565 S
C279 O264 1.259 . S
Tb280 O283 2.453 . S
Tb280 O284 2.596 . S
Tb280 O285 2.374 . S
Tb280 O293 2.343 . S
Tb280 O295 2.353 . S
Tb280 O297 2.427 . S
Tb280 O298 2.513 . S
C281 O285 1.251 . S
C281 O287 1.263 . S
Tb282 O284 2.343 . S
Tb282 O287 2.353 . S
Tb282 O290 2.427 . S
Tb282 O291 2.513 . S
Tb282 O292 2.453 . S
Tb282 O293 2.596 . S
Tb282 O294 2.374 . S
O283 Tb280 2.453 . S
O283 C299 1.245 . S
O284 Tb280 2.596 . S
O284 Tb282 2.343 . S
O284 C299 1.259 . S
O285 Tb280 2.374 . S
O285 C281 1.251 . S
C286 O290 1.275 . S
C286 O291 1.246 . S
O287 C281 1.263 . S
O287 Tb282 2.353 . S
C288 O292 1.245 . S
C288 O293 1.259 . S
C289 O294 1.250 . S
C289 O295 1.263 . S
O290 Tb282 2.427 . S
O290 C286 1.275 . S
O291 Tb282 2.513 . S
O291 C286 1.246 . S
O292 Tb282 2.453 . S
O292 C288 1.245 . S
O293 Tb280 2.343 . S
O293 Tb282 2.596 . S
O293 C288 1.259 . S
O294 Tb282 2.374 . S
O294 C289 1.250 . S
O295 Tb280 2.353 . S
O295 C289 1.263 . S
C296 O297 1.275 . S
C296 O298 1.246 . S
O297 Tb280 2.427 . S
O297 C296 1.275 . S
O298 Tb280 2.513 . S
O298 C296 1.246 . S
C299 O283 1.245 . S
C299 O284 1.259 . S
Tb300 O303 2.453 . S
Tb300 O304 2.596 1_565 S
Tb300 O305 2.374 1_565 S
Tb300 O313 2.343 . S
Tb300 O315 2.353 . S
Tb300 O317 2.427 . S
Tb300 O318 2.513 . S
C301 O305 1.251 . S
C301 O307 1.263 . S
Tb302 O304 2.343 . S
Tb302 O307 2.353 . S
Tb302 O310 2.427 . S
Tb302 O311 2.513 . S
Tb302 O312 2.453 . S
Tb302 O313 2.596 1_545 S
Tb302 O314 2.374 . S
O303 Tb300 2.453 . S
O303 C319 1.245 1_565 S
O304 Tb300 2.596 1_545 S
O304 Tb302 2.343 . S
O304 C319 1.259 . S
O305 Tb300 2.374 1_545 S
O305 C301 1.251 . S
C306 O310 1.275 . S
C306 O311 1.246 . S
O307 C301 1.263 . S
O307 Tb302 2.353 . S
C308 O312 1.245 . S
C308 O313 1.259 1_545 S
C309 O314 1.250 1_565 S
C309 O315 1.263 . S
O310 Tb302 2.427 . S
O310 C306 1.275 . S
O311 Tb302 2.513 . S
O311 C306 1.246 . S
O312 Tb302 2.453 . S
O312 C308 1.245 . S
O313 Tb300 2.343 . S
O313 Tb302 2.596 1_565 S
O313 C308 1.259 1_565 S
O314 Tb302 2.374 . S
O314 C309 1.250 1_545 S
O315 Tb300 2.353 . S
O315 C309 1.263 . S
C316 O317 1.275 . S
C316 O318 1.246 . S
O317 Tb300 2.427 . S
O317 C316 1.275 . S
O318 Tb300 2.513 . S
O318 C316 1.246 . S
C319 O303 1.245 1_545 S
C319 O304 1.259 . S
H320 C326 0.930 . S
H321 C329 0.930 . S
H322 C330 0.930 . S
H323 C331 0.930 . S
H324 C334 0.930 . S
H325 C335 0.930 . S
C326 H320 0.930 . S
C326 C327 1.355 . S
C326 C328 1.415 . S
C327 C326 1.355 . S
C327 C329 1.419 . S
C328 C326 1.415 . S
C328 C333 1.425 . S
C328 C335 1.409 . S
C329 H321 0.930 . S
C329 C327 1.419 . S
C329 C330 1.362 . S
C330 H322 0.930 . S
C330 C329 1.362 . S
C330 C333 1.409 . S
C331 H323 0.930 . S
C331 C332 1.355 . S
C331 C333 1.415 . S
C332 C331 1.355 . S
C332 C334 1.419 . S
C333 C328 1.425 . S
C333 C330 1.409 . S
C333 C331 1.415 . S
C334 H324 0.930 . S
C334 C332 1.419 . S
C334 C335 1.362 . S
C335 H325 0.930 . S
C335 C328 1.409 . S
C335 C334 1.362 . S
H336 C342 0.930 . S
H337 C345 0.930 . S
H338 C346 0.930 . S
H339 C347 0.930 . S
H340 C350 0.930 . S
H341 C351 0.930 . S
C342 H336 0.930 . S
C342 C343 1.355 . S
C342 C344 1.415 . S
C343 C342 1.355 . S
C343 C345 1.419 . S
C344 C342 1.415 . S
C344 C349 1.425 . S
C344 C351 1.409 . S
C345 H337 0.930 . S
C345 C343 1.419 . S
C345 C346 1.362 . S
C346 H338 0.930 . S
C346 C345 1.362 . S
C346 C349 1.409 . S
C347 H339 0.930 . S
C347 C348 1.355 . S
C347 C349 1.415 . S
C348 C347 1.355 . S
C348 C350 1.419 . S
C349 C344 1.425 . S
C349 C346 1.409 . S
C349 C347 1.415 . S
C350 H340 0.930 . S
C350 C348 1.419 . S
C350 C351 1.362 . S
C351 H341 0.930 . S
C351 C344 1.409 . S
C351 C350 1.362 . S
H352 C358 0.930 . S
H353 C361 0.930 . S
H354 C362 0.930 . S
H355 C363 0.930 . S
H356 C366 0.930 . S
H357 C367 0.930 . S
C358 H352 0.930 . S
C358 C359 1.355 . S
C358 C360 1.415 . S
C359 C358 1.355 . S
C359 C361 1.419 . S
C360 C358 1.415 . S
C360 C365 1.425 . S
C360 C367 1.409 . S
C361 H353 0.930 . S
C361 C359 1.419 . S
C361 C362 1.362 . S
C362 H354 0.930 . S
C362 C361 1.362 . S
C362 C365 1.409 . S
C363 H355 0.930 . S
C363 C364 1.355 . S
C363 C365 1.415 . S
C364 C363 1.355 . S
C364 C366 1.419 . S
C365 C360 1.425 . S
C365 C362 1.409 . S
C365 C363 1.415 . S
C366 H356 0.930 . S
C366 C364 1.419 . S
C366 C367 1.362 . S
C367 H357 0.930 . S
C367 C360 1.409 . S
C367 C366 1.362 . S
H368 C374 0.930 . S
H369 C377 0.930 . S
H370 C378 0.930 . S
H371 C379 0.930 . S
H372 C382 0.930 . S
H373 C383 0.930 . S
C374 H368 0.930 . S
C374 C375 1.355 . S
C374 C376 1.415 1_556 S
C375 C374 1.355 . S
C375 C377 1.419 . S
C376 C374 1.415 1_554 S
C376 C381 1.425 1_654 S
C376 C383 1.409 . S
C377 H369 0.930 . S
C377 C375 1.419 . S
C377 C378 1.362 1_655 S
C378 H370 0.930 . S
C378 C377 1.362 1_455 S
C378 C381 1.409 . S
C379 H371 0.930 . S
C379 C380 1.355 . S
C379 C381 1.415 1_554 S
C380 C379 1.355 . S
C380 C382 1.419 . S
C381 C376 1.425 1_456 S
C381 C378 1.409 . S
C381 C379 1.415 1_556 S
C382 H372 0.930 . S
C382 C380 1.419 . S
C382 C383 1.362 1_455 S
C383 H373 0.930 . S
C383 C376 1.409 . S
C383 C382 1.362 1_655 S
H384 C390 0.930 . S
H385 C393 0.930 . S
H386 C394 0.930 . S
H387 C395 0.930 . S
H388 C398 0.930 . S
H389 C399 0.930 . S
C390 H384 0.930 . S
C390 C391 1.355 . S
C390 C392 1.415 . S
C391 C390 1.355 . S
C391 C393 1.419 . S
C392 C390 1.415 . S
C392 C397 1.425 . S
C392 C399 1.409 . S
C393 H385 0.930 . S
C393 C391 1.419 . S
C393 C394 1.362 . S
C394 H386 0.930 . S
C394 C393 1.362 . S
C394 C397 1.409 . S
C395 H387 0.930 . S
C395 C396 1.355 . S
C395 C397 1.415 . S
C396 C395 1.355 . S
C396 C398 1.419 . S
C397 C392 1.425 . S
C397 C394 1.409 . S
C397 C395 1.415 . S
C398 H388 0.930 . S
C398 C396 1.419 . S
C398 C399 1.362 . S
C399 H389 0.930 . S
C399 C392 1.409 . S
C399 C398 1.362 . S
H400 C406 0.930 . S
H401 C409 0.930 . S
H402 C410 0.930 . S
H403 C411 0.930 . S
H404 C414 0.930 . S
H405 C415 0.930 . S
C406 H400 0.930 . S
C406 C407 1.355 . S
C406 C408 1.415 . S
C407 C406 1.355 . S
C407 C409 1.419 . S
C408 C406 1.415 . S
C408 C413 1.425 . S
C408 C415 1.409 . S
C409 H401 0.930 . S
C409 C407 1.419 . S
C409 C410 1.362 . S
C410 H402 0.930 . S
C410 C409 1.362 . S
C410 C413 1.409 . S
C411 H403 0.930 . S
C411 C412 1.355 . S
C411 C413 1.415 . S
C412 C411 1.355 . S
C412 C414 1.419 . S
C413 C408 1.425 . S
C413 C410 1.409 . S
C413 C411 1.415 . S
C414 H404 0.930 . S
C414 C412 1.419 . S
C414 C415 1.362 . S
C415 H405 0.930 . S
C415 C408 1.409 . S
C415 C414 1.362 . S
H416 C422 0.939 . S
H417 C425 0.930 . S
H418 C426 0.930 . S
H419 C427 0.939 . S
H420 C430 0.930 . S
H421 C431 0.930 . S
C422 H416 0.939 . S
C422 C423 1.355 . S
C422 C424 1.415 1_564 S
C423 C422 1.355 . S
C423 C425 1.419 . S
C424 C422 1.415 1_546 S
C424 C429 1.425 1_646 S
C424 C431 1.409 . S
C425 H417 0.930 . S
C425 C423 1.419 . S
C425 C426 1.362 1_655 S
C426 H418 0.930 . S
C426 C425 1.362 1_455 S
C426 C429 1.409 . S
C427 H419 0.939 . S
C427 C428 1.355 . S
C427 C429 1.415 1_546 S
C428 C427 1.355 . S
C428 C430 1.419 . S
C429 C424 1.425 1_464 S
C429 C426 1.409 . S
C429 C427 1.415 1_564 S
C430 H420 0.930 . S
C430 C428 1.419 . S
C430 C431 1.362 1_455 S
C431 H421 0.930 . S
C431 C424 1.409 . S
C431 C430 1.362 1_655 S
H432 C438 0.930 1_545 S
H433 C441 0.930 . S
H434 C442 0.930 . S
H435 C443 0.930 1_565 S
H436 C446 0.930 . S
H437 C447 0.930 . S
C438 H432 0.930 1_565 S
C438 C439 1.355 . S
C438 C440 1.415 1_565 S
C439 C438 1.355 . S
C439 C441 1.419 . S
C440 C438 1.415 1_545 S
C440 C445 1.425 1_545 S
C440 C447 1.409 . S
C441 H433 0.930 . S
C441 C439 1.419 . S
C441 C442 1.362 . S
C442 H434 0.930 . S
C442 C441 1.362 . S
C442 C445 1.409 . S
C443 H435 0.930 1_545 S
C443 C444 1.355 . S
C443 C445 1.415 1_545 S
C444 C443 1.355 . S
C444 C446 1.419 . S
C445 C440 1.425 1_565 S
C445 C442 1.409 . S
C445 C443 1.415 1_565 S
C446 H436 0.930 . S
C446 C444 1.419 . S
C446 C447 1.362 . S
C447 H437 0.930 . S
C447 C440 1.409 . S
C447 C446 1.362 . S
H448 C454 0.929 1_556 S
H449 C457 0.930 . S
H450 C458 0.930 . S
H451 C459 0.930 . S
H452 C462 0.930 . S
H453 C463 0.930 . S
C454 H448 0.929 1_554 S
C454 C455 1.353 1_554 S
C454 C456 1.417 . S
C455 C454 1.353 1_556 S
C455 C457 1.419 . S
C456 C454 1.417 . S
C456 C461 1.425 . S
C456 C463 1.409 . S
C457 H449 0.930 . S
C457 C455 1.419 . S
C457 C458 1.362 1_556 S
C458 H450 0.930 . S
C458 C457 1.362 1_554 S
C458 C461 1.409 . S
C459 H451 0.930 . S
C459 C460 1.355 . S
C459 C461 1.415 . S
C460 C459 1.355 . S
C460 C462 1.419 . S
C461 C456 1.425 . S
C461 C458 1.409 . S
C461 C459 1.415 . S
C462 H452 0.930 . S
C462 C460 1.419 . S
C462 C463 1.362 . S
C463 H453 0.930 . S
C463 C456 1.409 . S
C463 C462 1.362 . S
H464 C470 0.930 . S
H465 C473 0.930 . S
H466 C474 0.930 . S
H467 C475 0.930 . S
H468 C478 0.930 . S
H469 C479 0.930 . S
C470 H464 0.930 . S
C470 C471 1.355 . S
C470 C472 1.415 . S
C471 C470 1.355 . S
C471 C473 1.419 . S
C472 C470 1.415 . S
C472 C477 1.425 . S
C472 C479 1.409 . S
C473 H465 0.930 . S
C473 C471 1.419 . S
C473 C474 1.362 . S
C474 H466 0.930 . S
C474 C473 1.362 . S
C474 C477 1.409 . S
C475 H467 0.930 . S
C475 C476 1.355 . S
C475 C477 1.415 . S
C476 C475 1.355 . S
C476 C478 1.419 . S
C477 C472 1.425 . S
C477 C474 1.409 . S
C477 C475 1.415 . S
C478 H468 0.930 . S
C478 C476 1.419 . S
C478 C479 1.362 . S
C479 H469 0.930 . S
C479 C472 1.409 . S
C479 C478 1.362 . S
H480 C486 0.930 . S
H481 C489 0.930 . S
H482 C490 0.930 . S
H483 C491 0.930 . S
H484 C494 0.930 1_545 S
H485 C495 0.930 . S
C486 H480 0.930 . S
C486 C487 1.355 . S
C486 C488 1.415 . S
C487 C486 1.355 . S
C487 C489 1.419 . S
C488 C486 1.415 . S
C488 C493 1.425 . S
C488 C495 1.409 . S
C489 H481 0.930 . S
C489 C487 1.419 . S
C489 C490 1.362 . S
C490 H482 0.930 . S
C490 C489 1.362 . S
C490 C493 1.409 . S
C491 H483 0.930 . S
C491 C492 1.355 . S
C491 C493 1.415 . S
C492 C491 1.355 . S
C492 C494 1.419 . S
C493 C488 1.425 . S
C493 C490 1.409 . S
C493 C491 1.415 . S
C494 H484 0.930 1_565 S
C494 C492 1.419 . S
C494 C495 1.362 . S
C495 H485 0.930 . S
C495 C488 1.409 . S
C495 C494 1.362 . S
H496 C502 0.930 . S
H497 C505 0.930 . S
H498 C506 0.930 . S
H499 C507 0.930 . S
H500 C510 0.930 . S
H501 C511 0.930 . S
C502 H496 0.930 . S
C502 C503 1.355 . S
C502 C504 1.415 . S
C503 C502 1.355 . S
C503 C505 1.419 . S
C504 C502 1.415 . S
C504 C509 1.425 . S
C504 C511 1.409 . S
C505 H497 0.930 . S
C505 C503 1.419 . S
C505 C506 1.362 . S
C506 H498 0.930 . S
C506 C505 1.362 . S
C506 C509 1.409 . S
C507 H499 0.930 . S
C507 C508 1.355 . S
C507 C509 1.415 . S
C508 C507 1.355 . S
C508 C510 1.419 . S
C509 C504 1.425 . S
C509 C506 1.409 . S
C509 C507 1.415 . S
C510 H500 0.930 . S
C510 C508 1.419 . S
C510 C511 1.362 . S
C511 H501 0.930 . S
C511 C504 1.409 . S
C511 C510 1.362 . S
H512 C518 0.930 . S
H513 C521 0.930 . S
H514 C522 0.930 . S
H515 C523 0.930 . S
H516 C526 0.930 . S
H517 C527 0.930 . S
C518 H512 0.930 . S
C518 C519 1.355 1_556 S
C518 C520 1.415 . S
C519 C518 1.355 1_554 S
C519 C521 1.419 . S
C520 C518 1.415 . S
C520 C525 1.425 . S
C520 C527 1.409 . S
C521 H513 0.930 . S
C521 C519 1.419 . S
C521 C522 1.362 1_554 S
C522 H514 0.930 . S
C522 C521 1.362 1_556 S
C522 C525 1.409 . S
C523 H515 0.930 . S
C523 C524 1.355 . S
C523 C525 1.415 . S
C524 C523 1.355 . S
C524 C526 1.419 . S
C525 C520 1.425 . S
C525 C522 1.409 . S
C525 C523 1.415 . S
C526 H516 0.930 . S
C526 C524 1.419 . S
C526 C527 1.362 . S
C527 H517 0.930 . S
C527 C520 1.409 . S
C527 C526 1.362 . S
H528 C534 0.930 . S
H529 C537 0.930 . S
H530 C538 0.930 . S
H531 C539 0.930 . S
H532 C542 0.930 . S
H533 C543 0.930 . S
C534 H528 0.930 . S
C534 C535 1.355 . S
C534 C536 1.415 . S
C535 C534 1.355 . S
C535 C537 1.419 . S
C536 C534 1.415 . S
C536 C541 1.425 . S
C536 C543 1.409 . S
C537 H529 0.930 . S
C537 C535 1.419 . S
C537 C538 1.362 . S
C538 H530 0.930 . S
C538 C537 1.362 . S
C538 C541 1.409 . S
C539 H531 0.930 . S
C539 C540 1.355 . S
C539 C541 1.415 . S
C540 C539 1.355 . S
C540 C542 1.419 . S
C541 C536 1.425 . S
C541 C538 1.409 . S
C541 C539 1.415 . S
C542 H532 0.930 . S
C542 C540 1.419 . S
C542 C543 1.362 . S
C543 H533 0.930 . S
C543 C536 1.409 . S
C543 C542 1.362 . S
H544 C550 0.930 . S
H545 C553 0.930 . S
H546 C554 0.930 . S
H547 C555 0.930 . S
H548 C558 0.929 . S
H549 C559 0.930 . S
C550 H544 0.930 . S
C550 C551 1.355 . S
C550 C552 1.415 . S
C551 C550 1.355 . S
C551 C553 1.419 . S
C552 C550 1.415 . S
C552 C557 1.425 . S
C552 C559 1.409 . S
C553 H545 0.930 . S
C553 C551 1.419 . S
C553 C554 1.362 . S
C554 H546 0.930 . S
C554 C553 1.362 . S
C554 C557 1.409 . S
C555 H547 0.930 . S
C555 C556 1.355 . S
C555 C557 1.415 . S
C556 C555 1.355 . S
C556 C558 1.419 . S
C557 C552 1.425 . S
C557 C554 1.409 . S
C557 C555 1.415 . S
C558 H548 0.929 . S
C558 C556 1.419 . S
C558 C559 1.362 . S
C559 H549 0.930 . S
C559 C552 1.409 . S
C559 C558 1.362 . S
H560 C566 0.930 . S
H561 C569 0.930 . S
H562 C570 0.930 . S
H563 C571 0.930 . S
H564 C574 0.930 . S
H565 C575 0.930 . S
C566 H560 0.930 . S
C566 C567 1.355 . S
C566 C568 1.415 . S
C567 C566 1.355 . S
C567 C569 1.419 . S
C568 C566 1.415 . S
C568 C573 1.425 . S
C568 C575 1.409 . S
C569 H561 0.930 . S
C569 C567 1.419 . S
C569 C570 1.362 . S
C570 H562 0.930 . S
C570 C569 1.362 . S
C570 C573 1.409 . S
C571 H563 0.930 . S
C571 C572 1.355 . S
C571 C573 1.415 . S
C572 C571 1.355 . S
C572 C574 1.419 . S
C573 C568 1.425 . S
C573 C570 1.409 . S
C573 C571 1.415 . S
C574 H564 0.930 . S
C574 C572 1.419 . S
C574 C575 1.362 . S
C575 H565 0.930 . S
C575 C568 1.409 . S
C575 C574 1.362 . S
H576 C582 0.930 . S
H577 C585 0.930 . S
H578 C586 0.930 . S
H579 C587 0.930 . S
H580 C590 0.930 . S
H581 C591 0.930 . S
C582 H576 0.930 . S
C582 C583 1.355 . S
C582 C584 1.415 . S
C583 C582 1.355 . S
C583 C585 1.419 . S
C584 C582 1.415 . S
C584 C589 1.425 . S
C584 C591 1.409 . S
C585 H577 0.930 . S
C585 C583 1.419 . S
C585 C586 1.362 . S
C586 H578 0.930 . S
C586 C585 1.362 . S
C586 C589 1.409 . S
C587 H579 0.930 . S
C587 C588 1.355 . S
C587 C589 1.415 . S
C588 C587 1.355 . S
C588 C590 1.419 . S
C589 C584 1.425 . S
C589 C586 1.409 . S
C589 C587 1.415 . S
C590 H580 0.930 . S
C590 C588 1.419 . S
C590 C591 1.362 . S
C591 H581 0.930 . S
C591 C584 1.409 . S
C591 C590 1.362 . S
H592 C598 0.930 1_545 S
H593 C601 0.930 . S
H594 C602 0.930 . S
H595 C603 0.930 . S
H596 C606 0.930 . S
H597 C607 0.930 1_545 S
C598 H592 0.930 1_565 S
C598 C599 1.355 . S
C598 C600 1.415 . S
C599 C598 1.355 . S
C599 C601 1.419 . S
C600 C598 1.415 . S
C600 C605 1.425 . S
C600 C607 1.409 . S
C601 H593 0.930 . S
C601 C599 1.419 . S
C601 C602 1.362 . S
C602 H594 0.930 . S
C602 C601 1.362 . S
C602 C605 1.409 . S
C603 H595 0.930 . S
C603 C604 1.355 . S
C603 C605 1.415 . S
C604 C603 1.355 . S
C604 C606 1.419 . S
C605 C600 1.425 . S
C605 C602 1.409 . S
C605 C603 1.415 . S
C606 H596 0.930 . S
C606 C604 1.419 . S
C606 C607 1.362 . S
C607 H597 0.930 1_565 S
C607 C600 1.409 . S
C607 C606 1.362 . S
H608 C614 0.930 . S
H609 C617 0.930 . S
H610 C618 0.930 . S
H611 C619 0.930 . S
H612 C622 0.930 . S
H613 C623 0.930 . S
C614 H608 0.930 . S
C614 C615 1.355 . S
C614 C616 1.415 . S
C615 C614 1.355 . S
C615 C617 1.419 . S
C616 C614 1.415 . S
C616 C621 1.425 . S
C616 C623 1.409 . S
C617 H609 0.930 . S
C617 C615 1.419 . S
C617 C618 1.362 . S
C618 H610 0.930 . S
C618 C617 1.362 . S
C618 C621 1.409 . S
C619 H611 0.930 . S
C619 C620 1.355 1_554 S
C619 C621 1.415 . S
C620 C619 1.355 1_556 S
C620 C622 1.419 . S
C621 C616 1.425 . S
C621 C618 1.409 . S
C621 C619 1.415 . S
C622 H612 0.930 . S
C622 C620 1.419 . S
C622 C623 1.362 1_556 S
C623 H613 0.930 . S
C623 C616 1.409 . S
C623 C622 1.362 1_554 S
H624 C630 0.930 . S
H625 C633 0.930 . S
H626 C634 0.930 . S
H627 C635 0.930 1_565 S
H628 C638 0.930 . S
H629 C639 0.930 . S
C630 H624 0.930 . S
C630 C631 1.355 . S
C630 C632 1.415 . S
C631 C630 1.355 . S
C631 C633 1.419 . S
C632 C630 1.415 . S
C632 C637 1.425 . S
C632 C639 1.409 . S
C633 H625 0.930 . S
C633 C631 1.419 . S
C633 C634 1.362 . S
C634 H626 0.930 . S
C634 C633 1.362 . S
C634 C637 1.409 . S
C635 H627 0.930 1_545 S
C635 C636 1.355 . S
C635 C637 1.415 . S
C636 C635 1.355 . S
C636 C638 1.419 . S
C637 C632 1.425 . S
C637 C634 1.409 . S
C637 C635 1.415 . S
C638 H628 0.930 . S
C638 C636 1.419 . S
C638 C639 1.362 . S
C639 H629 0.930 . S
C639 C632 1.409 . S
C639 C638 1.362 . S
H640 C646 0.930 . S
H641 C649 0.930 . S
H642 C650 0.930 . S
H643 C651 0.930 . S
H644 C654 0.930 . S
H645 C655 0.930 . S
C646 H640 0.930 . S
C646 C647 1.355 . S
C646 C648 1.415 . S
C647 C646 1.355 . S
C647 C649 1.419 . S
C648 C646 1.415 . S
C648 C653 1.425 . S
C648 C655 1.409 . S
C649 H641 0.930 . S
C649 C647 1.419 . S
C649 C650 1.362 . S
C650 H642 0.930 . S
C650 C649 1.362 . S
C650 C653 1.409 . S
C651 H643 0.930 . S
C651 C652 1.355 . S
C651 C653 1.415 . S
C652 C651 1.355 . S
C652 C654 1.419 . S
C653 C648 1.425 . S
C653 C650 1.409 . S
C653 C651 1.415 . S
C654 H644 0.930 . S
C654 C652 1.419 . S
C654 C655 1.362 . S
C655 H645 0.930 . S
C655 C648 1.409 . S
C655 C654 1.362 . S
H656 C662 0.930 . S
H657 C665 0.930 . S
H658 C666 0.930 . S
H659 C667 0.930 . S
H660 C670 0.930 . S
H661 C671 0.930 . S
C662 H656 0.930 . S
C662 C663 1.355 . S
C662 C664 1.415 . S
C663 C662 1.355 . S
C663 C665 1.419 1_545 S
C664 C662 1.415 . S
C664 C669 1.425 . S
C664 C671 1.409 . S
C665 H657 0.930 . S
C665 C663 1.419 1_565 S
C665 C666 1.362 . S
C666 H658 0.930 . S
C666 C665 1.362 . S
C666 C669 1.409 1_565 S
C667 H659 0.930 . S
C667 C668 1.355 . S
C667 C669 1.415 . S
C668 C667 1.355 . S
C668 C670 1.419 . S
C669 C664 1.425 . S
C669 C666 1.409 1_545 S
C669 C667 1.415 . S
C670 H660 0.930 . S
C670 C668 1.419 . S
C670 C671 1.362 . S
C671 H661 0.930 . S
C671 C664 1.409 . S
C671 C670 1.362 . S
H672 C678 0.930 . S
H673 C681 0.930 . S
H674 C682 0.930 . S
H675 C683 0.930 . S
H676 C686 0.930 . S
H677 C687 0.930 . S
C678 H672 0.930 . S
C678 C679 1.355 1_556 S
C678 C680 1.415 . S
C679 C678 1.355 1_554 S
C679 C681 1.419 . S
C680 C678 1.415 . S
C680 C685 1.425 . S
C680 C687 1.409 . S
C681 H673 0.930 . S
C681 C679 1.419 . S
C681 C682 1.362 1_554 S
C682 H674 0.930 . S
C682 C681 1.362 1_556 S
C682 C685 1.409 . S
C683 H675 0.930 . S
C683 C684 1.355 . S
C683 C685 1.415 . S
C684 C683 1.355 . S
C684 C686 1.419 . S
C685 C680 1.425 . S
C685 C682 1.409 . S
C685 C683 1.415 . S
C686 H676 0.930 . S
C686 C684 1.419 . S
C686 C687 1.362 . S
C687 H677 0.930 . S
C687 C680 1.409 . S
C687 C686 1.362 . S
H688 C694 0.930 . S
H689 C697 0.930 . S
H690 C698 0.930 . S
H691 C699 0.930 . S
H692 C702 0.930 . S
H693 C703 0.930 . S
C694 H688 0.930 . S
C694 C695 1.355 . S
C694 C696 1.415 . S
C695 C694 1.355 . S
C695 C697 1.419 . S
C696 C694 1.415 . S
C696 C701 1.425 . S
C696 C703 1.409 . S
C697 H689 0.930 . S
C697 C695 1.419 . S
C697 C698 1.362 . S
C698 H690 0.930 . S
C698 C697 1.362 . S
C698 C701 1.409 . S
C699 H691 0.930 . S
C699 C700 1.355 . S
C699 C701 1.415 . S
C700 C699 1.355 . S
C700 C702 1.419 . S
C701 C696 1.425 . S
C701 C698 1.409 . S
C701 C699 1.415 . S
C702 H692 0.930 . S
C702 C700 1.419 . S
C702 C703 1.362 . S
C703 H693 0.930 . S
C703 C696 1.409 . S
C703 C702 1.362 . S
H704 C710 0.930 . S
H705 C713 0.930 . S
H706 C714 0.930 . S
H707 C715 0.930 . S
H708 C718 0.930 . S
H709 C719 0.930 . S
C710 H704 0.930 . S
C710 C711 1.355 . S
C710 C712 1.415 . S
C711 C710 1.355 . S
C711 C713 1.419 . S
C712 C710 1.415 . S
C712 C717 1.425 . S
C712 C719 1.409 . S
C713 H705 0.930 . S
C713 C711 1.419 . S
C713 C714 1.362 . S
C714 H706 0.930 . S
C714 C713 1.362 . S
C714 C717 1.409 . S
C715 H707 0.930 . S
C715 C716 1.355 . S
C715 C717 1.415 . S
C716 C715 1.355 . S
C716 C718 1.419 . S
C717 C712 1.425 . S
C717 C714 1.409 . S
C717 C715 1.415 . S
C718 H708 0.930 . S
C718 C716 1.419 . S
C718 C719 1.362 . S
C719 H709 0.930 . S
C719 C712 1.409 . S
C719 C718 1.362 . S
H720 C726 0.930 . S
H721 C729 0.930 . S
H722 C730 0.930 . S
H723 C731 0.930 . S
H724 C734 0.930 . S
H725 C735 0.930 . S
C726 H720 0.930 . S
C726 C727 1.355 . S
C726 C728 1.415 . S
C727 C726 1.355 . S
C727 C729 1.419 . S
C728 C726 1.415 . S
C728 C733 1.425 . S
C728 C735 1.409 . S
C729 H721 0.930 . S
C729 C727 1.419 . S
C729 C730 1.362 . S
C730 H722 0.930 . S
C730 C729 1.362 . S
C730 C733 1.409 . S
C731 H723 0.930 . S
C731 C732 1.355 . S
C731 C733 1.415 . S
C732 C731 1.355 . S
C732 C734 1.419 . S
C733 C728 1.425 . S
C733 C730 1.409 . S
C733 C731 1.415 . S
C734 H724 0.930 . S
C734 C732 1.419 . S
C734 C735 1.362 . S
C735 H725 0.930 . S
C735 C728 1.409 . S
C735 C734 1.362 . S
H736 C742 0.930 . S
H737 C745 0.930 . S
H738 C746 0.930 . S
H739 C747 0.930 . S
H740 C750 0.930 . S
H741 C751 0.930 . S
C742 H736 0.930 . S
C742 C743 1.355 . S
C742 C744 1.415 . S
C743 C742 1.355 . S
C743 C745 1.419 . S
C744 C742 1.415 . S
C744 C749 1.425 1_655 S
C744 C751 1.409 1_655 S
C745 H737 0.930 . S
C745 C743 1.419 . S
C745 C746 1.362 . S
C746 H738 0.930 . S
C746 C745 1.362 . S
C746 C749 1.409 1_655 S
C747 H739 0.930 . S
C747 C748 1.355 . S
C747 C749 1.415 . S
C748 C747 1.355 . S
C748 C750 1.419 . S
C749 C744 1.425 1_455 S
C749 C746 1.409 1_455 S
C749 C747 1.415 . S
C750 H740 0.930 . S
C750 C748 1.419 . S
C750 C751 1.362 . S
C751 H741 0.930 . S
C751 C744 1.409 1_455 S
C751 C750 1.362 . S
H752 C758 0.930 . S
H753 C761 0.930 . S
H754 C762 0.930 . S
H755 C763 0.930 . S
H756 C766 0.930 . S
H757 C767 0.930 . S
C758 H752 0.930 . S
C758 C759 1.355 1_455 S
C758 C760 1.415 . S
C759 C758 1.355 1_655 S
C759 C761 1.419 . S
C760 C758 1.415 . S
C760 C765 1.425 1_455 S
C760 C767 1.409 . S
C761 H753 0.930 . S
C761 C759 1.419 . S
C761 C762 1.362 . S
C762 H754 0.930 . S
C762 C761 1.362 . S
C762 C765 1.409 . S
C763 H755 0.930 . S
C763 C764 1.355 1_655 S
C763 C765 1.415 . S
C764 C763 1.355 1_455 S
C764 C766 1.419 . S
C765 C760 1.425 1_655 S
C765 C762 1.409 . S
C765 C763 1.415 . S
C766 H756 0.930 . S
C766 C764 1.419 . S
C766 C767 1.362 . S
C767 H757 0.930 . S
C767 C760 1.409 . S
C767 C766 1.362 . S
H768 C774 0.930 . S
H769 C777 0.930 . S
H770 C778 0.930 . S
H771 C779 0.930 . S
H772 C782 0.930 . S
H773 C783 0.930 . S
C774 H768 0.930 . S
C774 C775 1.355 . S
C774 C776 1.415 . S
C775 C774 1.355 . S
C775 C777 1.419 . S
C776 C774 1.415 . S
C776 C781 1.425 . S
C776 C783 1.409 . S
C777 H769 0.930 . S
C777 C775 1.419 . S
C777 C778 1.362 . S
C778 H770 0.930 . S
C778 C777 1.362 . S
C778 C781 1.409 . S
C779 H771 0.930 . S
C779 C780 1.355 . S
C779 C781 1.415 . S
C780 C779 1.355 . S
C780 C782 1.419 . S
C781 C776 1.425 . S
C781 C778 1.409 . S
C781 C779 1.415 . S
C782 H772 0.930 . S
C782 C780 1.419 . S
C782 C783 1.362 . S
C783 H773 0.930 . S
C783 C776 1.409 . S
C783 C782 1.362 . S
H784 C790 0.930 . S
H785 C793 0.930 . S
H786 C794 0.930 . S
H787 C795 0.930 . S
H788 C798 0.930 . S
H789 C799 0.930 . S
C790 H784 0.930 . S
C790 C791 1.355 . S
C790 C792 1.415 . S
C791 C790 1.355 . S
C791 C793 1.419 . S
C792 C790 1.415 . S
C792 C797 1.425 . S
C792 C799 1.409 . S
C793 H785 0.930 . S
C793 C791 1.419 . S
C793 C794 1.362 . S
C794 H786 0.930 . S
C794 C793 1.362 . S
C794 C797 1.409 . S
C795 H787 0.930 . S
C795 C796 1.355 . S
C795 C797 1.415 . S
C796 C795 1.355 . S
C796 C798 1.419 . S
C797 C792 1.425 . S
C797 C794 1.409 . S
C797 C795 1.415 . S
C798 H788 0.930 . S
C798 C796 1.419 . S
C798 C799 1.362 . S
C799 H789 0.930 . S
C799 C792 1.409 . S
C799 C798 1.362 . S
H800 C806 0.930 . S
H801 C809 0.930 . S
H802 C810 0.930 . S
H803 C811 0.930 . S
H804 C814 0.930 . S
H805 C815 0.930 . S
C806 H800 0.930 . S
C806 C807 1.355 . S
C806 C808 1.415 . S
C807 C806 1.355 . S
C807 C809 1.419 . S
C808 C806 1.415 . S
C808 C813 1.425 1_455 S
C808 C815 1.409 1_455 S
C809 H801 0.930 . S
C809 C807 1.419 . S
C809 C810 1.362 . S
C810 H802 0.930 . S
C810 C809 1.362 . S
C810 C813 1.409 1_455 S
C811 H803 0.930 . S
C811 C812 1.355 . S
C811 C813 1.415 . S
C812 C811 1.355 . S
C812 C814 1.419 . S
C813 C808 1.425 1_655 S
C813 C810 1.409 1_655 S
C813 C811 1.415 . S
C814 H804 0.930 . S
C814 C812 1.419 . S
C814 C815 1.362 . S
C815 H805 0.930 . S
C815 C808 1.409 1_655 S
C815 C814 1.362 . S
H816 C822 0.930 . S
H817 C825 0.930 1_655 S
H818 C826 0.930 . S
H819 C827 0.930 . S
H820 C830 0.930 1_455 S
H821 C831 0.930 . S
C822 H816 0.930 . S
C822 C823 1.355 . S
C822 C824 1.415 . S
C823 C822 1.355 . S
C823 C825 1.419 . S
C824 C822 1.415 . S
C824 C829 1.425 1_455 S
C824 C831 1.409 . S
C825 H817 0.930 1_455 S
C825 C823 1.419 . S
C825 C826 1.362 1_455 S
C826 H818 0.930 . S
C826 C825 1.362 1_655 S
C826 C829 1.409 . S
C827 H819 0.930 . S
C827 C828 1.355 . S
C827 C829 1.415 . S
C828 C827 1.355 . S
C828 C830 1.419 . S
C829 C824 1.425 1_655 S
C829 C826 1.409 . S
C829 C827 1.415 . S
C830 H820 0.930 1_655 S
C830 C828 1.419 . S
C830 C831 1.362 1_655 S
C831 H821 0.930 . S
C831 C824 1.409 . S
C831 C830 1.362 1_455 S
H832 C838 0.930 . S
H833 C841 0.930 . S
H834 C842 0.930 . S
H835 C843 0.930 . S
H836 C846 0.930 . S
H837 C847 0.930 . S
C838 H832 0.930 . S
C838 C839 1.355 . S
C838 C840 1.415 . S
C839 C838 1.355 . S
C839 C841 1.419 . S
C840 C838 1.415 . S
C840 C845 1.425 . S
C840 C847 1.409 . S
C841 H833 0.930 . S
C841 C839 1.419 . S
C841 C842 1.362 . S
C842 H834 0.930 . S
C842 C841 1.362 . S
C842 C845 1.409 . S
C843 H835 0.930 . S
C843 C844 1.355 . S
C843 C845 1.415 . S
C844 C843 1.355 . S
C844 C846 1.419 . S
C845 C840 1.425 . S
C845 C842 1.409 . S
C845 C843 1.415 . S
C846 H836 0.930 . S
C846 C844 1.419 . S
C846 C847 1.362 . S
C847 H837 0.930 . S
C847 C840 1.409 . S
C847 C846 1.362 . S
H848 C854 0.930 . S
H849 C857 0.930 . S
H850 C858 0.930 . S
H851 C859 0.930 . S
H852 C862 0.930 . S
H853 C863 0.930 . S
C854 H848 0.930 . S
C854 C855 1.355 . S
C854 C856 1.415 . S
C855 C854 1.355 . S
C855 C857 1.419 . S
C856 C854 1.415 . S
C856 C861 1.425 . S
C856 C863 1.409 . S
C857 H849 0.930 . S
C857 C855 1.419 . S
C857 C858 1.362 . S
C858 H850 0.930 . S
C858 C857 1.362 . S
C858 C861 1.409 . S
C859 H851 0.930 . S
C859 C860 1.355 . S
C859 C861 1.415 . S
C860 C859 1.355 . S
C860 C862 1.419 . S
C861 C856 1.425 . S
C861 C858 1.409 . S
C861 C859 1.415 . S
C862 H852 0.930 . S
C862 C860 1.419 . S
C862 C863 1.362 . S
C863 H853 0.930 . S
C863 C856 1.409 . S
C863 C862 1.362 . S
H864 C870 0.930 . S
H865 C873 0.930 . S
H866 C874 0.930 . S
H867 C875 0.930 . S
H868 C878 0.930 . S
H869 C879 0.930 . S
C870 H864 0.930 . S
C870 C871 1.355 . S
C870 C872 1.415 . S
C871 C870 1.355 . S
C871 C873 1.419 . S
C872 C870 1.415 . S
C872 C877 1.425 . S
C872 C879 1.409 . S
C873 H865 0.930 . S
C873 C871 1.419 . S
C873 C874 1.362 . S
C874 H866 0.930 . S
C874 C873 1.362 . S
C874 C877 1.409 . S
C875 H867 0.930 . S
C875 C876 1.355 . S
C875 C877 1.415 . S
C876 C875 1.355 . S
C876 C878 1.419 . S
C877 C872 1.425 . S
C877 C874 1.409 . S
C877 C875 1.415 . S
C878 H868 0.930 . S
C878 C876 1.419 . S
C878 C879 1.362 . S
C879 H869 0.930 . S
C879 C872 1.409 . S
C879 C878 1.362 . S
H880 C886 0.930 1_655 S
H881 C889 0.930 . S
H882 C890 0.930 . S
H883 C891 0.930 . S
H884 C894 0.930 . S
H885 C895 0.930 . S
C886 H880 0.930 1_455 S
C886 C887 1.355 1_455 S
C886 C888 1.415 . S
C887 C886 1.355 1_655 S
C887 C889 1.419 1_655 S
C888 C886 1.415 . S
C888 C893 1.425 . S
C888 C895 1.409 . S
C889 H881 0.930 . S
C889 C887 1.419 1_455 S
C889 C890 1.362 . S
C890 H882 0.930 . S
C890 C889 1.362 . S
C890 C893 1.409 . S
C891 H883 0.930 . S
C891 C892 1.355 . S
C891 C893 1.415 . S
C892 C891 1.355 . S
C892 C894 1.419 . S
C893 C888 1.425 . S
C893 C890 1.409 . S
C893 C891 1.415 . S
C894 H884 0.930 . S
C894 C892 1.419 . S
C894 C895 1.362 . S
C895 H885 0.930 . S
C895 C888 1.409 . S
C895 C894 1.362 . S
H896 C902 0.930 . S
H897 C905 0.930 . S
H898 C906 0.930 . S
H899 C907 0.930 . S
H900 C910 0.930 . S
H901 C911 0.930 . S
C902 H896 0.930 . S
C902 C903 1.355 . S
C902 C904 1.415 . S
C903 C902 1.355 . S
C903 C905 1.419 . S
C904 C902 1.415 . S
C904 C909 1.425 . S
C904 C911 1.409 . S
C905 H897 0.930 . S
C905 C903 1.419 . S
C905 C906 1.362 . S
C906 H898 0.930 . S
C906 C905 1.362 . S
C906 C909 1.409 . S
C907 H899 0.930 . S
C907 C908 1.355 . S
C907 C909 1.415 . S
C908 C907 1.355 . S
C908 C910 1.419 . S
C909 C904 1.425 . S
C909 C906 1.409 . S
C909 C907 1.415 . S
C910 H900 0.930 . S
C910 C908 1.419 . S
C910 C911 1.362 . S
C911 H901 0.930 . S
C911 C904 1.409 . S
C911 C910 1.362 . S
H912 C918 0.930 . S
H913 C921 0.930 . S
H914 C922 0.930 . S
H915 C923 0.930 . S
H916 C926 0.930 . S
H917 C927 0.930 . S
C918 H912 0.930 . S
C918 C919 1.355 . S
C918 C920 1.415 . S
C919 C918 1.355 . S
C919 C921 1.419 . S
C920 C918 1.415 . S
C920 C925 1.425 . S
C920 C927 1.409 . S
C921 H913 0.930 . S
C921 C919 1.419 . S
C921 C922 1.362 . S
C922 H914 0.930 . S
C922 C921 1.362 . S
C922 C925 1.409 . S
C923 H915 0.930 . S
C923 C924 1.355 . S
C923 C925 1.415 . S
C924 C923 1.355 . S
C924 C926 1.419 . S
C925 C920 1.425 . S
C925 C922 1.409 . S
C925 C923 1.415 . S
C926 H916 0.930 . S
C926 C924 1.419 . S
C926 C927 1.362 . S
C927 H917 0.930 . S
C927 C920 1.409 . S
C927 C926 1.362 . S
H928 C934 0.930 . S
H929 C937 0.930 . S
H930 C938 0.930 . S
H931 C939 0.930 . S
H932 C942 0.930 . S
H933 C943 0.930 . S
C934 H928 0.930 . S
C934 C935 1.355 . S
C934 C936 1.415 . S
C935 C934 1.355 . S
C935 C937 1.419 . S
C936 C934 1.415 . S
C936 C941 1.425 . S
C936 C943 1.409 . S
C937 H929 0.930 . S
C937 C935 1.419 . S
C937 C938 1.362 . S
C938 H930 0.930 . S
C938 C937 1.362 . S
C938 C941 1.409 . S
C939 H931 0.930 . S
C939 C940 1.355 . S
C939 C941 1.415 . S
C940 C939 1.355 . S
C940 C942 1.419 . S
C941 C936 1.425 . S
C941 C938 1.409 . S
C941 C939 1.415 . S
C942 H932 0.930 . S
C942 C940 1.419 . S
C942 C943 1.362 . S
C943 H933 0.930 . S
C943 C936 1.409 . S
C943 C942 1.362 . S
H944 C950 0.930 . S
H945 C953 0.930 . S
H946 C954 0.930 . S
H947 C955 0.930 1_455 S
H948 C958 0.929 . S
H949 C959 0.930 . S
C950 H944 0.930 . S
C950 C951 1.355 . S
C950 C952 1.415 . S
C951 C950 1.355 . S
C951 C953 1.419 . S
C952 C950 1.415 . S
C952 C957 1.425 . S
C952 C959 1.409 . S
C953 H945 0.930 . S
C953 C951 1.419 . S
C953 C954 1.362 . S
C954 H946 0.930 . S
C954 C953 1.362 . S
C954 C957 1.409 . S
C955 H947 0.930 1_655 S
C955 C956 1.355 1_655 S
C955 C957 1.415 . S
C956 C955 1.355 1_455 S
C956 C958 1.419 1_455 S
C957 C952 1.425 . S
C957 C954 1.409 . S
C957 C955 1.415 . S
C958 H948 0.929 . S
C958 C956 1.419 1_655 S
C958 C959 1.362 . S
C959 H949 0.930 . S
C959 C952 1.409 . S
C959 C958 1.362 . S
H960 C966 0.930 . S
H961 C969 0.930 . S
H962 C970 0.930 . S
H963 C971 0.930 . S
H964 C974 0.930 . S
H965 C975 0.930 . S
C966 H960 0.930 . S
C966 C967 1.355 . S
C966 C968 1.415 . S
C967 C966 1.355 . S
C967 C969 1.419 . S
C968 C966 1.415 . S
C968 C973 1.425 . S
C968 C975 1.409 . S
C969 H961 0.930 . S
C969 C967 1.419 . S
C969 C970 1.362 . S
C970 H962 0.930 . S
C970 C969 1.362 . S
C970 C973 1.409 . S
C971 H963 0.930 . S
C971 C972 1.355 . S
C971 C973 1.415 . S
C972 C971 1.355 . S
C972 C974 1.419 . S
C973 C968 1.425 . S
C973 C970 1.409 . S
C973 C971 1.415 . S
C974 H964 0.930 . S
C974 C972 1.419 . S
C974 C975 1.362 . S
C975 H965 0.930 . S
C975 C968 1.409 . S
C975 C974 1.362 . S
H976 C982 0.930 . S
H977 C985 0.930 . S
H978 C986 0.930 . S
H979 C987 0.913 1_455 S
H980 C990 0.930 . S
H981 C991 0.930 1_545 S
C982 H976 0.930 . S
C982 C983 1.355 . S
C982 C984 1.415 . S
C983 C982 1.355 . S
C983 C985 1.419 . S
C984 C982 1.415 . S
C984 C989 1.425 . S
C984 C991 1.409 . S
C985 H977 0.930 . S
C985 C983 1.419 . S
C985 C986 1.362 . S
C986 H978 0.930 . S
C986 C985 1.362 . S
C986 C989 1.409 . S
C987 H979 0.913 1_655 S
C987 C988 1.346 1_655 S
C987 C989 1.440 . S
C988 C987 1.346 1_455 S
C988 C990 1.419 1_465 S
C989 C984 1.425 . S
C989 C986 1.409 . S
C989 C987 1.440 . S
C990 H980 0.930 . S
C990 C988 1.419 1_645 S
C990 C991 1.362 1_545 S
C991 H981 0.930 1_565 S
C991 C984 1.409 . S
C991 C990 1.362 1_565 S
H992 C998 0.930 . S
H993 C1001 0.930 . S
H994 C1002 0.930 . S
H995 C1003 0.930 . S
H996 C1006 0.930 . S
H997 C1007 0.930 . S
C998 H992 0.930 . S
C998 C999 1.355 . S
C998 C1000 1.415 . S
C999 C998 1.355 . S
C999 C1001 1.419 . S
C1000 C998 1.415 . S
C1000 C1005 1.425 . S
C1000 C1007 1.409 . S
C1001 H993 0.930 . S
C1001 C999 1.419 . S
C1001 C1002 1.362 . S
C1002 H994 0.930 . S
C1002 C1001 1.362 . S
C1002 C1005 1.409 . S
C1003 H995 0.930 . S
C1003 C1004 1.355 . S
C1003 C1005 1.415 . S
C1004 C1003 1.355 . S
C1004 C1006 1.419 . S
C1005 C1000 1.425 . S
C1005 C1002 1.409 . S
C1005 C1003 1.415 . S
C1006 H996 0.930 . S
C1006 C1004 1.419 . S
C1006 C1007 1.362 . S
C1007 H997 0.930 . S
C1007 C1000 1.409 . S
C1007 C1006 1.362 . S
H1008 C1014 0.930 . S
H1009 C1017 0.930 . S
H1010 C1018 0.930 . S
H1011 C1019 0.930 . S
H1012 C1022 0.930 . S
H1013 C1023 0.930 . S
C1014 H1008 0.930 . S
C1014 C1015 1.355 . S
C1014 C1016 1.415 . S
C1015 C1014 1.355 . S
C1015 C1017 1.419 . S
C1016 C1014 1.415 . S
C1016 C1021 1.425 . S
C1016 C1023 1.409 . S
C1017 H1009 0.930 . S
C1017 C1015 1.419 . S
C1017 C1018 1.362 . S
C1018 H1010 0.930 . S
C1018 C1017 1.362 . S
C1018 C1021 1.409 . S
C1019 H1011 0.930 . S
C1019 C1020 1.355 . S
C1019 C1021 1.415 . S
C1020 C1019 1.355 . S
C1020 C1022 1.419 . S
C1021 C1016 1.425 . S
C1021 C1018 1.409 . S
C1021 C1019 1.415 . S
C1022 H1012 0.930 . S
C1022 C1020 1.419 . S
C1022 C1023 1.362 . S
C1023 H1013 0.930 . S
C1023 C1016 1.409 . S
C1023 C1022 1.362 . S
H1024 C1030 0.930 . S
H1025 C1033 0.930 . S
H1026 C1034 0.930 . S
H1027 C1035 0.930 . S
H1028 C1038 0.930 . S
H1029 C1039 0.930 . S
C1030 H1024 0.930 . S
C1030 C1031 1.355 . S
C1030 C1032 1.415 . S
C1031 C1030 1.355 . S
C1031 C1033 1.419 . S
C1032 C1030 1.415 . S
C1032 C1037 1.425 . S
C1032 C1039 1.409 . S
C1033 H1025 0.930 . S
C1033 C1031 1.419 . S
C1033 C1034 1.362 . S
C1034 H1026 0.930 . S
C1034 C1033 1.362 . S
C1034 C1037 1.409 . S
C1035 H1027 0.930 . S
C1035 C1036 1.355 . S
C1035 C1037 1.415 . S
C1036 C1035 1.355 . S
C1036 C1038 1.419 . S
C1037 C1032 1.425 . S
C1037 C1034 1.409 . S
C1037 C1035 1.415 . S
C1038 H1028 0.930 . S
C1038 C1036 1.419 . S
C1038 C1039 1.362 . S
C1039 H1029 0.930 . S
C1039 C1032 1.409 . S
C1039 C1038 1.362 . S
H1040 C1046 0.930 1_565 S
H1041 C1049 0.930 . S
H1042 C1050 0.930 . S
H1043 C1051 0.930 . S
H1044 C1054 0.930 . S
H1045 C1055 0.932 1_565 S
C1046 H1040 0.930 1_545 S
C1046 C1047 1.355 1_455 S
C1046 C1048 1.415 . S
C1047 C1046 1.355 1_655 S
C1047 C1049 1.419 . S
C1048 C1046 1.415 . S
C1048 C1053 1.425 . S
C1048 C1055 1.409 . S
C1049 H1041 0.930 . S
C1049 C1047 1.419 . S
C1049 C1050 1.362 1_655 S
C1050 H1042 0.930 . S
C1050 C1049 1.362 1_455 S
C1050 C1053 1.409 . S
C1051 H1043 0.930 . S
C1051 C1052 1.355 . S
C1051 C1053 1.415 . S
C1052 C1051 1.355 . S
C1052 C1054 1.419 . S
C1053 C1048 1.425 . S
C1053 C1050 1.409 . S
C1053 C1051 1.415 . S
C1054 H1044 0.930 . S
C1054 C1052 1.419 . S
C1054 C1055 1.362 . S
C1055 H1045 0.932 1_545 S
C1055 C1048 1.409 . S
C1055 C1054 1.362 . S
H1056 C1062 0.930 . S
H1057 C1065 0.930 . S
H1058 C1066 0.930 . S
H1059 C1067 0.930 . S
H1060 C1070 0.930 . S
H1061 C1071 0.930 . S
C1062 H1056 0.930 . S
C1062 C1063 1.355 . S
C1062 C1064 1.415 . S
C1063 C1062 1.355 . S
C1063 C1065 1.419 . S
C1064 C1062 1.415 . S
C1064 C1069 1.425 . S
C1064 C1071 1.409 . S
C1065 H1057 0.930 . S
C1065 C1063 1.419 . S
C1065 C1066 1.362 . S
C1066 H1058 0.930 . S
C1066 C1065 1.362 . S
C1066 C1069 1.409 . S
C1067 H1059 0.930 . S
C1067 C1068 1.355 . S
C1067 C1069 1.415 . S
C1068 C1067 1.355 . S
C1068 C1070 1.419 . S
C1069 C1064 1.425 . S
C1069 C1066 1.409 . S
C1069 C1067 1.415 . S
C1070 H1060 0.930 . S
C1070 C1068 1.419 . S
C1070 C1071 1.362 . S
C1071 H1061 0.930 . S
C1071 C1064 1.409 . S
C1071 C1070 1.362 . S
H1072 C1078 0.930 . S
H1073 C1081 0.930 . S
H1074 C1082 0.930 1_545 S
H1075 C1083 0.930 1_545 S
H1076 C1086 0.930 . S
H1077 C1087 0.930 . S
C1078 H1072 0.930 . S
C1078 C1079 1.355 . S
C1078 C1080 1.415 . S
C1079 C1078 1.355 . S
C1079 C1081 1.419 . S
C1080 C1078 1.415 . S
C1080 C1085 1.425 . S
C1080 C1087 1.409 . S
C1081 H1073 0.930 . S
C1081 C1079 1.419 . S
C1081 C1082 1.362 . S
C1082 H1074 0.930 1_565 S
C1082 C1081 1.362 . S
C1082 C1085 1.409 . S
C1083 H1075 0.930 1_565 S
C1083 C1084 1.355 . S
C1083 C1085 1.415 . S
C1084 C1083 1.355 . S
C1084 C1086 1.419 . S
C1085 C1080 1.425 . S
C1085 C1082 1.409 . S
C1085 C1083 1.415 . S
C1086 H1076 0.930 . S
C1086 C1084 1.419 . S
C1086 C1087 1.362 . S
C1087 H1077 0.930 . S
C1087 C1080 1.409 . S
C1087 C1086 1.362 . S
C327 C8 0.886 . S
C332 C259 0.886 . S
C343 C119 0.819 . S
C348 C28 0.819 . S
C359 C48 0.747 . S
C364 C299 0.747 . S
C375 C68 0.766 . S
C380 C159 0.766 . S
C391 C99 0.802 . S
C396 C168 0.802 . S
C407 C208 0.773 . S
C412 C139 0.773 . S
C423 C279 0.851 . S
C428 C188 0.851 . S
C439 C228 0.886 . S
C444 C319 0.886 . S
C455 C189 1.900 . S
C460 C19 1.881 . S
C471 C39 1.853 . S
C476 C209 1.883 . S
C487 C59 1.845 . S
C492 C229 1.880 . S
C503 C169 1.908 . S
C508 C79 1.871 . S
C519 C261 1.909 . S
C524 C88 1.888 . S
C535 C281 1.902 . S
C540 C108 1.883 . S
C551 C128 1.872 . S
C556 C301 1.894 . S
C567 C241 1.899 . S
C572 C148 1.880 . S
C583 C179 1.856 . S
C588 C29 1.884 . S
C599 C199 1.870 1_565 S
C604 C49 1.892 . S
C615 C219 1.875 . S
C620 C69 1.909 . S
C631 C9 1.898 . S
C636 C239 1.878 1_545 S
C647 C101 1.912 . S
C652 C248 1.882 . S
C663 C268 1.840 1_545 S
C668 C121 1.879 . S
C679 C141 1.912 . S
C684 C288 1.886 . S
C695 C308 1.855 1_565 S
C700 C81 1.900 . S
C711 C16 1.991 . S
C716 C216 2.030 . S
C727 C36 2.047 . S
C732 C236 2.001 . S
C743 C176 2.017 . S
C748 C56 2.046 . S
C759 C76 1.999 . S
C764 C196 2.011 . S
C775 C86 2.028 . S
C780 C286 2.040 . S
C791 C106 1.998 . S
C796 C306 2.013 . S
C807 C246 2.020 . S
C812 C126 2.045 . S
C823 C146 1.997 . S
C828 C266 2.045 . S
C839 C1 1.178 . S
C844 C156 1.231 . S
C855 C256 1.184 . S
C860 C21 1.098 . S
C871 C41 1.147 . S
C876 C116 1.214 . S
C887 C61 1.149 . S
C892 C296 1.198 . S
C903 C89 1.191 . S
C908 C66 1.237 . S
C919 C166 1.241 . S
C924 C109 1.202 . S
C935 C129 1.166 . S
C940 C26 1.225 . S
C951 C206 1.210 . S
C956 C149 1.168 . S
C967 C161 1.182 . S
C972 C316 1.219 . S
C983 C96 1.167 . S
C988 C181 1.088 . S
C999 C276 1.168 . S
C1004 C201 1.089 . S
C1015 C221 1.188 . S
C1020 C136 1.236 . S
C1031 C249 1.080 . S
C1036 C226 1.166 . S
C1047 C269 1.204 . S
C1052 C6 1.242 . S
C1063 C186 1.173 . S
C1068 C289 1.102 . S
C1079 C46 1.216 . S
C1084 C309 1.150 . S
