# Generated by pormake.
# Topology ulh, (4)-cn, num edge types: 1
# Building blocks:
#     Node 0, Type 0, BuildingBlock: CEKHIL_clean_sbu_0, # of connection points: 4
#     Node 1, Type 0, BuildingBlock: CEKHIL_clean_sbu_0, # of connection points: 4
#     Node 2, Type 0, BuildingBlock: CEKHIL_clean_sbu_0, # of connection points: 4
#     Node 3, Type 0, BuildingBlock: CEKHIL_clean_sbu_0, # of connection points: 4
#     Node 4, Type 0, BuildingBlock: CEKHIL_clean_sbu_0, # of connection points: 4
#     Node 5, Type 0, BuildingBlock: CEKHIL_clean_sbu_0, # of connection points: 4
#     Node 6, Type 0, BuildingBlock: CEKHIL_clean_sbu_0, # of connection points: 4
#     Node 7, Type 0, BuildingBlock: CEKHIL_clean_sbu_0, # of connection points: 4
#     Node 8, Type 0, BuildingBlock: CEKHIL_clean_sbu_0, # of connection points: 4
#     Node 9, Type 0, BuildingBlock: CEKHIL_clean_sbu_0, # of connection points: 4
#     Node 10, Type 0, BuildingBlock: CEKHIL_clean_sbu_0, # of connection points: 4
#     Node 11, Type 0, BuildingBlock: CEKHIL_clean_sbu_0, # of connection points: 4
#     Node 12, Type 0, BuildingBlock: CEKHIL_clean_sbu_0, # of connection points: 4
#     Node 13, Type 0, BuildingBlock: CEKHIL_clean_sbu_0, # of connection points: 4
#     Node 14, Type 0, BuildingBlock: CEKHIL_clean_sbu_0, # of connection points: 4
#     Node 15, Type 0, BuildingBlock: CEKHIL_clean_sbu_0, # of connection points: 4
#     Node 16, Type 0, BuildingBlock: CEKHIL_clean_sbu_0, # of connection points: 4
#     Node 17, Type 0, BuildingBlock: CEKHIL_clean_sbu_0, # of connection points: 4
#     Node 18, Type 0, BuildingBlock: CEKHIL_clean_sbu_0, # of connection points: 4
#     Node 19, Type 0, BuildingBlock: CEKHIL_clean_sbu_0, # of connection points: 4
#     Node 20, Type 0, BuildingBlock: CEKHIL_clean_sbu_0, # of connection points: 4
#     Node 21, Type 0, BuildingBlock: CEKHIL_clean_sbu_0, # of connection points: 4
#     Node 22, Type 0, BuildingBlock: CEKHIL_clean_sbu_0, # of connection points: 4
#     Node 23, Type 0, BuildingBlock: CEKHIL_clean_sbu_0, # of connection points: 4
#     Node 24, Type 0, BuildingBlock: CEKHIL_clean_sbu_0, # of connection points: 4
#     Node 25, Type 0, BuildingBlock: CEKHIL_clean_sbu_0, # of connection points: 4
#     Node 26, Type 0, BuildingBlock: CEKHIL_clean_sbu_0, # of connection points: 4
#     Node 27, Type 0, BuildingBlock: CEKHIL_clean_sbu_0, # of connection points: 4
#     Node 28, Type 0, BuildingBlock: CEKHIL_clean_sbu_0, # of connection points: 4
#     Node 29, Type 0, BuildingBlock: CEKHIL_clean_sbu_0, # of connection points: 4
#     Node 30, Type 0, BuildingBlock: CEKHIL_clean_sbu_0, # of connection points: 4
#     Node 31, Type 0, BuildingBlock: CEKHIL_clean_sbu_0, # of connection points: 4
#     Node 32, Type 0, BuildingBlock: CEKHIL_clean_sbu_0, # of connection points: 4
#     Node 33, Type 0, BuildingBlock: CEKHIL_clean_sbu_0, # of connection points: 4
#     Node 34, Type 0, BuildingBlock: CEKHIL_clean_sbu_0, # of connection points: 4
#     Node 35, Type 0, BuildingBlock: CEKHIL_clean_sbu_0, # of connection points: 4
#     Node 36, Type 0, BuildingBlock: CEKHIL_clean_sbu_0, # of connection points: 4
#     Node 37, Type 0, BuildingBlock: CEKHIL_clean_sbu_0, # of connection points: 4
#     Node 38, Type 0, BuildingBlock: CEKHIL_clean_sbu_0, # of connection points: 4
#     Node 39, Type 0, BuildingBlock: CEKHIL_clean_sbu_0, # of connection points: 4
#     Node 40, Type 0, BuildingBlock: CEKHIL_clean_sbu_0, # of connection points: 4
#     Node 41, Type 0, BuildingBlock: CEKHIL_clean_sbu_0, # of connection points: 4
#     Node 42, Type 0, BuildingBlock: CEKHIL_clean_sbu_0, # of connection points: 4
#     Node 43, Type 0, BuildingBlock: CEKHIL_clean_sbu_0, # of connection points: 4
#     Node 44, Type 0, BuildingBlock: CEKHIL_clean_sbu_0, # of connection points: 4
#     Node 45, Type 0, BuildingBlock: CEKHIL_clean_sbu_0, # of connection points: 4
#     Node 46, Type 0, BuildingBlock: CEKHIL_clean_sbu_0, # of connection points: 4
#     Node 47, Type 0, BuildingBlock: CEKHIL_clean_sbu_0, # of connection points: 4
#     Node 48, Type 0, BuildingBlock: CEKHIL_clean_sbu_0, # of connection points: 4
#     Node 49, Type 0, BuildingBlock: CEKHIL_clean_sbu_0, # of connection points: 4
#     Node 50, Type 0, BuildingBlock: CEKHIL_clean_sbu_0, # of connection points: 4
#     Node 51, Type 0, BuildingBlock: CEKHIL_clean_sbu_0, # of connection points: 4
#     Node 52, Type 0, BuildingBlock: CEKHIL_clean_sbu_0, # of connection points: 4
#     Node 53, Type 0, BuildingBlock: CEKHIL_clean_sbu_0, # of connection points: 4
#     Node 54, Type 0, BuildingBlock: CEKHIL_clean_sbu_0, # of connection points: 4
#     Node 55, Type 0, BuildingBlock: CEKHIL_clean_sbu_0, # of connection points: 4
#     Node 56, Type 0, BuildingBlock: CEKHIL_clean_sbu_0, # of connection points: 4
#     Node 57, Type 0, BuildingBlock: CEKHIL_clean_sbu_0, # of connection points: 4
#     Node 58, Type 0, BuildingBlock: CEKHIL_clean_sbu_0, # of connection points: 4
#     Node 59, Type 0, BuildingBlock: CEKHIL_clean_sbu_0, # of connection points: 4
#     Node 60, Type 0, BuildingBlock: CEKHIL_clean_sbu_0, # of connection points: 4
#     Node 61, Type 0, BuildingBlock: CEKHIL_clean_sbu_0, # of connection points: 4
#     Node 62, Type 0, BuildingBlock: CEKHIL_clean_sbu_0, # of connection points: 4
#     Node 63, Type 0, BuildingBlock: CEKHIL_clean_sbu_0, # of connection points: 4
#     Node 64, Type 0, BuildingBlock: CEKHIL_clean_sbu_0, # of connection points: 4
#     Node 65, Type 0, BuildingBlock: CEKHIL_clean_sbu_0, # of connection points: 4
#     Node 66, Type 0, BuildingBlock: CEKHIL_clean_sbu_0, # of connection points: 4
#     Node 67, Type 0, BuildingBlock: CEKHIL_clean_sbu_0, # of connection points: 4
#     Node 68, Type 0, BuildingBlock: CEKHIL_clean_sbu_0, # of connection points: 4
#     Node 69, Type 0, BuildingBlock: CEKHIL_clean_sbu_0, # of connection points: 4
#     Node 70, Type 0, BuildingBlock: CEKHIL_clean_sbu_0, # of connection points: 4
#     Node 71, Type 0, BuildingBlock: CEKHIL_clean_sbu_0, # of connection points: 4
#     Node 72, Type 0, BuildingBlock: CEKHIL_clean_sbu_0, # of connection points: 4
#     Node 73, Type 0, BuildingBlock: CEKHIL_clean_sbu_0, # of connection points: 4
#     Node 74, Type 0, BuildingBlock: CEKHIL_clean_sbu_0, # of connection points: 4
#     Node 75, Type 0, BuildingBlock: CEKHIL_clean_sbu_0, # of connection points: 4
#     Node 76, Type 0, BuildingBlock: CEKHIL_clean_sbu_0, # of connection points: 4
#     Node 77, Type 0, BuildingBlock: CEKHIL_clean_sbu_0, # of connection points: 4
#     Node 78, Type 0, BuildingBlock: CEKHIL_clean_sbu_0, # of connection points: 4
#     Node 79, Type 0, BuildingBlock: CEKHIL_clean_sbu_0, # of connection points: 4
#     Node 80, Type 0, BuildingBlock: CEKHIL_clean_sbu_0, # of connection points: 4
#     Node 81, Type 0, BuildingBlock: CEKHIL_clean_sbu_0, # of connection points: 4
#     Node 82, Type 0, BuildingBlock: CEKHIL_clean_sbu_0, # of connection points: 4
#     Node 83, Type 0, BuildingBlock: CEKHIL_clean_sbu_0, # of connection points: 4
#     Node 84, Type 0, BuildingBlock: CEKHIL_clean_sbu_0, # of connection points: 4
#     Node 85, Type 0, BuildingBlock: CEKHIL_clean_sbu_0, # of connection points: 4
#     Node 86, Type 0, BuildingBlock: CEKHIL_clean_sbu_0, # of connection points: 4
#     Node 87, Type 0, BuildingBlock: CEKHIL_clean_sbu_0, # of connection points: 4
#     Node 88, Type 0, BuildingBlock: CEKHIL_clean_sbu_0, # of connection points: 4
#     Node 89, Type 0, BuildingBlock: CEKHIL_clean_sbu_0, # of connection points: 4
#     Node 90, Type 0, BuildingBlock: CEKHIL_clean_sbu_0, # of connection points: 4
#     Node 91, Type 0, BuildingBlock: CEKHIL_clean_sbu_0, # of connection points: 4
#     Node 92, Type 0, BuildingBlock: CEKHIL_clean_sbu_0, # of connection points: 4
#     Node 93, Type 0, BuildingBlock: CEKHIL_clean_sbu_0, # of connection points: 4
#     Node 94, Type 0, BuildingBlock: CEKHIL_clean_sbu_0, # of connection points: 4
#     Node 95, Type 0, BuildingBlock: CEKHIL_clean_sbu_0, # of connection points: 4
#     Edge 96, Type (0, 0), BuildingBlock: UVAHIK_clean_linker_0, # of connection points: 2
#     Edge 97, Type (0, 0), BuildingBlock: UVAHIK_clean_linker_0, # of connection points: 2
#     Edge 98, Type (0, 0), BuildingBlock: UVAHIK_clean_linker_0, # of connection points: 2
#     Edge 99, Type (0, 0), BuildingBlock: UVAHIK_clean_linker_0, # of connection points: 2
#     Edge 100, Type (0, 0), BuildingBlock: UVAHIK_clean_linker_0, # of connection points: 2
#     Edge 101, Type (0, 0), BuildingBlock: UVAHIK_clean_linker_0, # of connection points: 2
#     Edge 102, Type (0, 0), BuildingBlock: UVAHIK_clean_linker_0, # of connection points: 2
#     Edge 103, Type (0, 0), BuildingBlock: UVAHIK_clean_linker_0, # of connection points: 2
#     Edge 104, Type (0, 0), BuildingBlock: UVAHIK_clean_linker_0, # of connection points: 2
#     Edge 105, Type (0, 0), BuildingBlock: UVAHIK_clean_linker_0, # of connection points: 2
#     Edge 106, Type (0, 0), BuildingBlock: UVAHIK_clean_linker_0, # of connection points: 2
#     Edge 107, Type (0, 0), BuildingBlock: UVAHIK_clean_linker_0, # of connection points: 2
#     Edge 108, Type (0, 0), BuildingBlock: UVAHIK_clean_linker_0, # of connection points: 2
#     Edge 109, Type (0, 0), BuildingBlock: UVAHIK_clean_linker_0, # of connection points: 2
#     Edge 110, Type (0, 0), BuildingBlock: UVAHIK_clean_linker_0, # of connection points: 2
#     Edge 111, Type (0, 0), BuildingBlock: UVAHIK_clean_linker_0, # of connection points: 2
#     Edge 112, Type (0, 0), BuildingBlock: UVAHIK_clean_linker_0, # of connection points: 2
#     Edge 113, Type (0, 0), BuildingBlock: UVAHIK_clean_linker_0, # of connection points: 2
#     Edge 114, Type (0, 0), BuildingBlock: UVAHIK_clean_linker_0, # of connection points: 2
#     Edge 115, Type (0, 0), BuildingBlock: UVAHIK_clean_linker_0, # of connection points: 2
#     Edge 116, Type (0, 0), BuildingBlock: UVAHIK_clean_linker_0, # of connection points: 2
#     Edge 117, Type (0, 0), BuildingBlock: UVAHIK_clean_linker_0, # of connection points: 2
#     Edge 118, Type (0, 0), BuildingBlock: UVAHIK_clean_linker_0, # of connection points: 2
#     Edge 119, Type (0, 0), BuildingBlock: UVAHIK_clean_linker_0, # of connection points: 2
#     Edge 120, Type (0, 0), BuildingBlock: UVAHIK_clean_linker_0, # of connection points: 2
#     Edge 121, Type (0, 0), BuildingBlock: UVAHIK_clean_linker_0, # of connection points: 2
#     Edge 122, Type (0, 0), BuildingBlock: UVAHIK_clean_linker_0, # of connection points: 2
#     Edge 123, Type (0, 0), BuildingBlock: UVAHIK_clean_linker_0, # of connection points: 2
#     Edge 124, Type (0, 0), BuildingBlock: UVAHIK_clean_linker_0, # of connection points: 2
#     Edge 125, Type (0, 0), BuildingBlock: UVAHIK_clean_linker_0, # of connection points: 2
#     Edge 126, Type (0, 0), BuildingBlock: UVAHIK_clean_linker_0, # of connection points: 2
#     Edge 127, Type (0, 0), BuildingBlock: UVAHIK_clean_linker_0, # of connection points: 2
#     Edge 128, Type (0, 0), BuildingBlock: UVAHIK_clean_linker_0, # of connection points: 2
#     Edge 129, Type (0, 0), BuildingBlock: UVAHIK_clean_linker_0, # of connection points: 2
#     Edge 130, Type (0, 0), BuildingBlock: UVAHIK_clean_linker_0, # of connection points: 2
#     Edge 131, Type (0, 0), BuildingBlock: UVAHIK_clean_linker_0, # of connection points: 2
#     Edge 132, Type (0, 0), BuildingBlock: UVAHIK_clean_linker_0, # of connection points: 2
#     Edge 133, Type (0, 0), BuildingBlock: UVAHIK_clean_linker_0, # of connection points: 2
#     Edge 134, Type (0, 0), BuildingBlock: UVAHIK_clean_linker_0, # of connection points: 2
#     Edge 135, Type (0, 0), BuildingBlock: UVAHIK_clean_linker_0, # of connection points: 2
#     Edge 136, Type (0, 0), BuildingBlock: UVAHIK_clean_linker_0, # of connection points: 2
#     Edge 137, Type (0, 0), BuildingBlock: UVAHIK_clean_linker_0, # of connection points: 2
#     Edge 138, Type (0, 0), BuildingBlock: UVAHIK_clean_linker_0, # of connection points: 2
#     Edge 139, Type (0, 0), BuildingBlock: UVAHIK_clean_linker_0, # of connection points: 2
#     Edge 140, Type (0, 0), BuildingBlock: UVAHIK_clean_linker_0, # of connection points: 2
#     Edge 141, Type (0, 0), BuildingBlock: UVAHIK_clean_linker_0, # of connection points: 2
#     Edge 142, Type (0, 0), BuildingBlock: UVAHIK_clean_linker_0, # of connection points: 2
#     Edge 143, Type (0, 0), BuildingBlock: UVAHIK_clean_linker_0, # of connection points: 2
#     Edge 144, Type (0, 0), BuildingBlock: UVAHIK_clean_linker_0, # of connection points: 2
#     Edge 145, Type (0, 0), BuildingBlock: UVAHIK_clean_linker_0, # of connection points: 2
#     Edge 146, Type (0, 0), BuildingBlock: UVAHIK_clean_linker_0, # of connection points: 2
#     Edge 147, Type (0, 0), BuildingBlock: UVAHIK_clean_linker_0, # of connection points: 2
#     Edge 148, Type (0, 0), BuildingBlock: UVAHIK_clean_linker_0, # of connection points: 2
#     Edge 149, Type (0, 0), BuildingBlock: UVAHIK_clean_linker_0, # of connection points: 2
#     Edge 150, Type (0, 0), BuildingBlock: UVAHIK_clean_linker_0, # of connection points: 2
#     Edge 151, Type (0, 0), BuildingBlock: UVAHIK_clean_linker_0, # of connection points: 2
#     Edge 152, Type (0, 0), BuildingBlock: UVAHIK_clean_linker_0, # of connection points: 2
#     Edge 153, Type (0, 0), BuildingBlock: UVAHIK_clean_linker_0, # of connection points: 2
#     Edge 154, Type (0, 0), BuildingBlock: UVAHIK_clean_linker_0, # of connection points: 2
#     Edge 155, Type (0, 0), BuildingBlock: UVAHIK_clean_linker_0, # of connection points: 2
#     Edge 156, Type (0, 0), BuildingBlock: UVAHIK_clean_linker_0, # of connection points: 2
#     Edge 157, Type (0, 0), BuildingBlock: UVAHIK_clean_linker_0, # of connection points: 2
#     Edge 158, Type (0, 0), BuildingBlock: UVAHIK_clean_linker_0, # of connection points: 2
#     Edge 159, Type (0, 0), BuildingBlock: UVAHIK_clean_linker_0, # of connection points: 2
#     Edge 160, Type (0, 0), BuildingBlock: UVAHIK_clean_linker_0, # of connection points: 2
#     Edge 161, Type (0, 0), BuildingBlock: UVAHIK_clean_linker_0, # of connection points: 2
#     Edge 162, Type (0, 0), BuildingBlock: UVAHIK_clean_linker_0, # of connection points: 2
#     Edge 163, Type (0, 0), BuildingBlock: UVAHIK_clean_linker_0, # of connection points: 2
#     Edge 164, Type (0, 0), BuildingBlock: UVAHIK_clean_linker_0, # of connection points: 2
#     Edge 165, Type (0, 0), BuildingBlock: UVAHIK_clean_linker_0, # of connection points: 2
#     Edge 166, Type (0, 0), BuildingBlock: UVAHIK_clean_linker_0, # of connection points: 2
#     Edge 167, Type (0, 0), BuildingBlock: UVAHIK_clean_linker_0, # of connection points: 2
#     Edge 168, Type (0, 0), BuildingBlock: UVAHIK_clean_linker_0, # of connection points: 2
#     Edge 169, Type (0, 0), BuildingBlock: UVAHIK_clean_linker_0, # of connection points: 2
#     Edge 170, Type (0, 0), BuildingBlock: UVAHIK_clean_linker_0, # of connection points: 2
#     Edge 171, Type (0, 0), BuildingBlock: UVAHIK_clean_linker_0, # of connection points: 2
#     Edge 172, Type (0, 0), BuildingBlock: UVAHIK_clean_linker_0, # of connection points: 2
#     Edge 173, Type (0, 0), BuildingBlock: UVAHIK_clean_linker_0, # of connection points: 2
#     Edge 174, Type (0, 0), BuildingBlock: UVAHIK_clean_linker_0, # of connection points: 2
#     Edge 175, Type (0, 0), BuildingBlock: UVAHIK_clean_linker_0, # of connection points: 2
#     Edge 176, Type (0, 0), BuildingBlock: UVAHIK_clean_linker_0, # of connection points: 2
#     Edge 177, Type (0, 0), BuildingBlock: UVAHIK_clean_linker_0, # of connection points: 2
#     Edge 178, Type (0, 0), BuildingBlock: UVAHIK_clean_linker_0, # of connection points: 2
#     Edge 179, Type (0, 0), BuildingBlock: UVAHIK_clean_linker_0, # of connection points: 2
#     Edge 180, Type (0, 0), BuildingBlock: UVAHIK_clean_linker_0, # of connection points: 2
#     Edge 181, Type (0, 0), BuildingBlock: UVAHIK_clean_linker_0, # of connection points: 2
#     Edge 182, Type (0, 0), BuildingBlock: UVAHIK_clean_linker_0, # of connection points: 2
#     Edge 183, Type (0, 0), BuildingBlock: UVAHIK_clean_linker_0, # of connection points: 2
#     Edge 184, Type (0, 0), BuildingBlock: UVAHIK_clean_linker_0, # of connection points: 2
#     Edge 185, Type (0, 0), BuildingBlock: UVAHIK_clean_linker_0, # of connection points: 2
#     Edge 186, Type (0, 0), BuildingBlock: UVAHIK_clean_linker_0, # of connection points: 2
#     Edge 187, Type (0, 0), BuildingBlock: UVAHIK_clean_linker_0, # of connection points: 2
#     Edge 188, Type (0, 0), BuildingBlock: UVAHIK_clean_linker_0, # of connection points: 2
#     Edge 189, Type (0, 0), BuildingBlock: UVAHIK_clean_linker_0, # of connection points: 2
#     Edge 190, Type (0, 0), BuildingBlock: UVAHIK_clean_linker_0, # of connection points: 2
#     Edge 191, Type (0, 0), BuildingBlock: UVAHIK_clean_linker_0, # of connection points: 2
#     Edge 192, Type (0, 0), BuildingBlock: UVAHIK_clean_linker_0, # of connection points: 2
#     Edge 193, Type (0, 0), BuildingBlock: UVAHIK_clean_linker_0, # of connection points: 2
#     Edge 194, Type (0, 0), BuildingBlock: UVAHIK_clean_linker_0, # of connection points: 2
#     Edge 195, Type (0, 0), BuildingBlock: UVAHIK_clean_linker_0, # of connection points: 2
#     Edge 196, Type (0, 0), BuildingBlock: UVAHIK_clean_linker_0, # of connection points: 2
#     Edge 197, Type (0, 0), BuildingBlock: UVAHIK_clean_linker_0, # of connection points: 2
#     Edge 198, Type (0, 0), BuildingBlock: UVAHIK_clean_linker_0, # of connection points: 2
#     Edge 199, Type (0, 0), BuildingBlock: UVAHIK_clean_linker_0, # of connection points: 2
#     Edge 200, Type (0, 0), BuildingBlock: UVAHIK_clean_linker_0, # of connection points: 2
#     Edge 201, Type (0, 0), BuildingBlock: UVAHIK_clean_linker_0, # of connection points: 2
#     Edge 202, Type (0, 0), BuildingBlock: UVAHIK_clean_linker_0, # of connection points: 2
#     Edge 203, Type (0, 0), BuildingBlock: UVAHIK_clean_linker_0, # of connection points: 2
#     Edge 204, Type (0, 0), BuildingBlock: UVAHIK_clean_linker_0, # of connection points: 2
#     Edge 205, Type (0, 0), BuildingBlock: UVAHIK_clean_linker_0, # of connection points: 2
#     Edge 206, Type (0, 0), BuildingBlock: UVAHIK_clean_linker_0, # of connection points: 2
#     Edge 207, Type (0, 0), BuildingBlock: UVAHIK_clean_linker_0, # of connection points: 2
#     Edge 208, Type (0, 0), BuildingBlock: UVAHIK_clean_linker_0, # of connection points: 2
#     Edge 209, Type (0, 0), BuildingBlock: UVAHIK_clean_linker_0, # of connection points: 2
#     Edge 210, Type (0, 0), BuildingBlock: UVAHIK_clean_linker_0, # of connection points: 2
#     Edge 211, Type (0, 0), BuildingBlock: UVAHIK_clean_linker_0, # of connection points: 2
#     Edge 212, Type (0, 0), BuildingBlock: UVAHIK_clean_linker_0, # of connection points: 2
#     Edge 213, Type (0, 0), BuildingBlock: UVAHIK_clean_linker_0, # of connection points: 2
#     Edge 214, Type (0, 0), BuildingBlock: UVAHIK_clean_linker_0, # of connection points: 2
#     Edge 215, Type (0, 0), BuildingBlock: UVAHIK_clean_linker_0, # of connection points: 2
#     Edge 216, Type (0, 0), BuildingBlock: UVAHIK_clean_linker_0, # of connection points: 2
#     Edge 217, Type (0, 0), BuildingBlock: UVAHIK_clean_linker_0, # of connection points: 2
#     Edge 218, Type (0, 0), BuildingBlock: UVAHIK_clean_linker_0, # of connection points: 2
#     Edge 219, Type (0, 0), BuildingBlock: UVAHIK_clean_linker_0, # of connection points: 2
#     Edge 220, Type (0, 0), BuildingBlock: UVAHIK_clean_linker_0, # of connection points: 2
#     Edge 221, Type (0, 0), BuildingBlock: UVAHIK_clean_linker_0, # of connection points: 2
#     Edge 222, Type (0, 0), BuildingBlock: UVAHIK_clean_linker_0, # of connection points: 2
#     Edge 223, Type (0, 0), BuildingBlock: UVAHIK_clean_linker_0, # of connection points: 2
#     Edge 224, Type (0, 0), BuildingBlock: UVAHIK_clean_linker_0, # of connection points: 2
#     Edge 225, Type (0, 0), BuildingBlock: UVAHIK_clean_linker_0, # of connection points: 2
#     Edge 226, Type (0, 0), BuildingBlock: UVAHIK_clean_linker_0, # of connection points: 2
#     Edge 227, Type (0, 0), BuildingBlock: UVAHIK_clean_linker_0, # of connection points: 2
#     Edge 228, Type (0, 0), BuildingBlock: UVAHIK_clean_linker_0, # of connection points: 2
#     Edge 229, Type (0, 0), BuildingBlock: UVAHIK_clean_linker_0, # of connection points: 2
#     Edge 230, Type (0, 0), BuildingBlock: UVAHIK_clean_linker_0, # of connection points: 2
#     Edge 231, Type (0, 0), BuildingBlock: UVAHIK_clean_linker_0, # of connection points: 2
#     Edge 232, Type (0, 0), BuildingBlock: UVAHIK_clean_linker_0, # of connection points: 2
#     Edge 233, Type (0, 0), BuildingBlock: UVAHIK_clean_linker_0, # of connection points: 2
#     Edge 234, Type (0, 0), BuildingBlock: UVAHIK_clean_linker_0, # of connection points: 2
#     Edge 235, Type (0, 0), BuildingBlock: UVAHIK_clean_linker_0, # of connection points: 2
#     Edge 236, Type (0, 0), BuildingBlock: UVAHIK_clean_linker_0, # of connection points: 2
#     Edge 237, Type (0, 0), BuildingBlock: UVAHIK_clean_linker_0, # of connection points: 2
#     Edge 238, Type (0, 0), BuildingBlock: UVAHIK_clean_linker_0, # of connection points: 2
#     Edge 239, Type (0, 0), BuildingBlock: UVAHIK_clean_linker_0, # of connection points: 2
#     Edge 240, Type (0, 0), BuildingBlock: UVAHIK_clean_linker_0, # of connection points: 2
#     Edge 241, Type (0, 0), BuildingBlock: UVAHIK_clean_linker_0, # of connection points: 2
#     Edge 242, Type (0, 0), BuildingBlock: UVAHIK_clean_linker_0, # of connection points: 2
#     Edge 243, Type (0, 0), BuildingBlock: UVAHIK_clean_linker_0, # of connection points: 2
#     Edge 244, Type (0, 0), BuildingBlock: UVAHIK_clean_linker_0, # of connection points: 2
#     Edge 245, Type (0, 0), BuildingBlock: UVAHIK_clean_linker_0, # of connection points: 2
#     Edge 246, Type (0, 0), BuildingBlock: UVAHIK_clean_linker_0, # of connection points: 2
#     Edge 247, Type (0, 0), BuildingBlock: UVAHIK_clean_linker_0, # of connection points: 2
#     Edge 248, Type (0, 0), BuildingBlock: UVAHIK_clean_linker_0, # of connection points: 2
#     Edge 249, Type (0, 0), BuildingBlock: UVAHIK_clean_linker_0, # of connection points: 2
#     Edge 250, Type (0, 0), BuildingBlock: UVAHIK_clean_linker_0, # of connection points: 2
#     Edge 251, Type (0, 0), BuildingBlock: UVAHIK_clean_linker_0, # of connection points: 2
#     Edge 252, Type (0, 0), BuildingBlock: UVAHIK_clean_linker_0, # of connection points: 2
#     Edge 253, Type (0, 0), BuildingBlock: UVAHIK_clean_linker_0, # of connection points: 2
#     Edge 254, Type (0, 0), BuildingBlock: UVAHIK_clean_linker_0, # of connection points: 2
#     Edge 255, Type (0, 0), BuildingBlock: UVAHIK_clean_linker_0, # of connection points: 2
#     Edge 256, Type (0, 0), BuildingBlock: UVAHIK_clean_linker_0, # of connection points: 2
#     Edge 257, Type (0, 0), BuildingBlock: UVAHIK_clean_linker_0, # of connection points: 2
#     Edge 258, Type (0, 0), BuildingBlock: UVAHIK_clean_linker_0, # of connection points: 2
#     Edge 259, Type (0, 0), BuildingBlock: UVAHIK_clean_linker_0, # of connection points: 2
#     Edge 260, Type (0, 0), BuildingBlock: UVAHIK_clean_linker_0, # of connection points: 2
#     Edge 261, Type (0, 0), BuildingBlock: UVAHIK_clean_linker_0, # of connection points: 2
#     Edge 262, Type (0, 0), BuildingBlock: UVAHIK_clean_linker_0, # of connection points: 2
#     Edge 263, Type (0, 0), BuildingBlock: UVAHIK_clean_linker_0, # of connection points: 2
#     Edge 264, Type (0, 0), BuildingBlock: UVAHIK_clean_linker_0, # of connection points: 2
#     Edge 265, Type (0, 0), BuildingBlock: UVAHIK_clean_linker_0, # of connection points: 2
#     Edge 266, Type (0, 0), BuildingBlock: UVAHIK_clean_linker_0, # of connection points: 2
#     Edge 267, Type (0, 0), BuildingBlock: UVAHIK_clean_linker_0, # of connection points: 2
#     Edge 268, Type (0, 0), BuildingBlock: UVAHIK_clean_linker_0, # of connection points: 2
#     Edge 269, Type (0, 0), BuildingBlock: UVAHIK_clean_linker_0, # of connection points: 2
#     Edge 270, Type (0, 0), BuildingBlock: UVAHIK_clean_linker_0, # of connection points: 2
#     Edge 271, Type (0, 0), BuildingBlock: UVAHIK_clean_linker_0, # of connection points: 2
#     Edge 272, Type (0, 0), BuildingBlock: UVAHIK_clean_linker_0, # of connection points: 2
#     Edge 273, Type (0, 0), BuildingBlock: UVAHIK_clean_linker_0, # of connection points: 2
#     Edge 274, Type (0, 0), BuildingBlock: UVAHIK_clean_linker_0, # of connection points: 2
#     Edge 275, Type (0, 0), BuildingBlock: UVAHIK_clean_linker_0, # of connection points: 2
#     Edge 276, Type (0, 0), BuildingBlock: UVAHIK_clean_linker_0, # of connection points: 2
#     Edge 277, Type (0, 0), BuildingBlock: UVAHIK_clean_linker_0, # of connection points: 2
#     Edge 278, Type (0, 0), BuildingBlock: UVAHIK_clean_linker_0, # of connection points: 2
#     Edge 279, Type (0, 0), BuildingBlock: UVAHIK_clean_linker_0, # of connection points: 2
#     Edge 280, Type (0, 0), BuildingBlock: UVAHIK_clean_linker_0, # of connection points: 2
#     Edge 281, Type (0, 0), BuildingBlock: UVAHIK_clean_linker_0, # of connection points: 2
#     Edge 282, Type (0, 0), BuildingBlock: UVAHIK_clean_linker_0, # of connection points: 2
#     Edge 283, Type (0, 0), BuildingBlock: UVAHIK_clean_linker_0, # of connection points: 2
#     Edge 284, Type (0, 0), BuildingBlock: UVAHIK_clean_linker_0, # of connection points: 2
#     Edge 285, Type (0, 0), BuildingBlock: UVAHIK_clean_linker_0, # of connection points: 2
#     Edge 286, Type (0, 0), BuildingBlock: UVAHIK_clean_linker_0, # of connection points: 2
#     Edge 287, Type (0, 0), BuildingBlock: UVAHIK_clean_linker_0, # of connection points: 2
# Relax obj value: 0.199
# Max RMSD: 0.230
# Mean RMSD: 0.230
data_MOF--net-ulh--node1-CEKHIL_clean_sbu_0--edge1-UVAHIK_clean_linker_0
_symmetry_space_group_name_H-M    P1
_symmetry_Int_Tables_number       1
_symmetry_cell_setting            triclinic
loop_
_symmetry_equiv_pos_as_xyz
'x, y, z'
_cell_length_a     103.08459
_cell_length_b     103.08073
_cell_length_c     103.07556
_cell_angle_alpha  90.003018
_cell_angle_beta   89.998319
_cell_angle_gamma 90.00625
loop_
_atom_site_label
_atom_site_type_symbol
_atom_site_fract_x
_atom_site_fract_y
_atom_site_fract_z
_atom_type_partial_charge
Co0 Co 0.04152 0.30996 0.08531 0.0
O1 O 0.02924 0.29811 0.0927 0.0
O2 O 0.04799 0.29234 0.08387 0.0
C3 C 0.04159 0.32444 0.10174 0.0
O4 O 0.0567 0.31971 0.07716 0.0
Co5 Co 0.03222 0.33784 0.07836 0.0
O6 O 0.05086 0.34063 0.07455 0.0
C7 C 0.02447 0.31593 0.06182 0.0
C8 C 0.03734 0.28896 0.08973 0.0
C9 C 0.05922 0.33154 0.07396 0.0
O10 O 0.03247 0.30853 0.06793 0.0
O11 O 0.02202 0.32759 0.06533 0.0
O12 O 0.04852 0.31395 0.10245 0.0
O13 O 0.03377 0.32502 0.09196 0.0
Co14 Co 0.93871 0.29065 0.33678 0.0
O15 O 0.9509 0.27864 0.34402 0.0
O16 O 0.95616 0.29757 0.3352 0.0
C17 C 0.92429 0.29034 0.35325 0.0
O18 O 0.92845 0.30557 0.32875 0.0
Co19 Co 0.91109 0.28035 0.33002 0.0
O20 O 0.90775 0.29889 0.32623 0.0
C21 C 0.93309 0.27343 0.31328 0.0
C22 C 0.95984 0.28694 0.34095 0.0
C23 C 0.91652 0.30761 0.32562 0.0
O24 O 0.94024 0.2817 0.31934 0.0
O25 O 0.92157 0.27053 0.31691 0.0
O26 O 0.93462 0.29751 0.35398 0.0
O27 O 0.92394 0.28249 0.34349 0.0
Co28 Co 0.95867 0.19028 0.58682 0.0
O29 O 0.97096 0.20175 0.59475 0.0
O30 O 0.95224 0.20795 0.58612 0.0
C31 C 0.9585 0.1751 0.60258 0.0
O32 O 0.9435 0.18091 0.57822 0.0
Co33 Co 0.96797 0.16268 0.57875 0.0
O34 O 0.94934 0.16011 0.57474 0.0
C35 C 0.97595 0.18528 0.56332 0.0
C36 C 0.9629 0.21104 0.59216 0.0
C37 C 0.94098 0.16923 0.57451 0.0
O38 O 0.9678 0.1924 0.56955 0.0
O39 O 0.97842 0.17351 0.56643 0.0
O40 O 0.9516 0.18557 0.60376 0.0
O41 O 0.96635 0.17495 0.59281 0.0
Co42 Co 0.06096 0.20844 0.83914 0.0
O43 O 0.05018 0.22034 0.8484 0.0
O44 O 0.04286 0.20323 0.83763 0.0
C45 C 0.07573 0.20607 0.85513 0.0
O46 O 0.06962 0.19372 0.82915 0.0
Co47 Co 0.08916 0.21695 0.83249 0.0
O48 O 0.09083 0.19861 0.8269 0.0
C49 C 0.06745 0.22711 0.81703 0.0
C50 C 0.04045 0.2131 0.84515 0.0
C51 C 0.08127 0.19087 0.82557 0.0
O52 O 0.05963 0.21926 0.8228 0.0
O53 O 0.07932 0.22858 0.82039 0.0
O54 O 0.06503 0.19943 0.85531 0.0
O55 O 0.0765 0.21475 0.84613 0.0
Co56 Co 0.04034 0.69275 0.91134 0.0
O57 O 0.02896 0.7056 0.90427 0.0
O58 O 0.04741 0.70994 0.91447 0.0
C59 C 0.04092 0.67953 0.89392 0.0
O60 O 0.05456 0.68163 0.91947 0.0
Co61 Co 0.02897 0.66506 0.91556 0.0
O62 O 0.04719 0.66101 0.9201 0.0
C63 C 0.02207 0.68586 0.93376 0.0
C64 C 0.0372 0.71417 0.90836 0.0
C65 C 0.05609 0.66944 0.92186 0.0
O66 O 0.03051 0.69329 0.92832 0.0
O67 O 0.01911 0.67464 0.92935 0.0
O68 O 0.04818 0.6898 0.8944 0.0
O69 O 0.03238 0.67861 0.90307 0.0
Co70 Co 0.5591 0.29313 0.16262 0.0
O71 O 0.54661 0.28148 0.15534 0.0
O72 O 0.54169 0.29956 0.16596 0.0
C73 C 0.57221 0.29435 0.14513 0.0
O74 O 0.56974 0.30757 0.17106 0.0
Co75 Co 0.5873 0.28287 0.16641 0.0
O76 O 0.59065 0.30109 0.17155 0.0
C77 C 0.56678 0.27446 0.18437 0.0
C78 C 0.5378 0.28935 0.15964 0.0
C79 C 0.58184 0.30956 0.17353 0.0
O80 O 0.55898 0.28287 0.17939 0.0
O81 O 0.57804 0.2721 0.1797 0.0
O82 O 0.56179 0.30139 0.14579 0.0
O83 O 0.57343 0.28577 0.15419 0.0
Co84 Co 0.95995 0.80992 0.41323 0.0
O85 O 0.97213 0.79815 0.40556 0.0
O86 O 0.95342 0.79231 0.41444 0.0
C87 C 0.9598 0.82472 0.3971 0.0
O88 O 0.94485 0.81961 0.42163 0.0
Co89 Co 0.96941 0.83769 0.42055 0.0
O90 O 0.9508 0.84047 0.42453 0.0
C91 C 0.97736 0.81547 0.43653 0.0
C92 C 0.96403 0.78898 0.40845 0.0
C93 C 0.94239 0.8314 0.42501 0.0
O94 O 0.96913 0.80822 0.43054 0.0
O95 O 0.97988 0.82713 0.43307 0.0
O96 O 0.95284 0.81426 0.39618 0.0
O97 O 0.96769 0.82505 0.40683 0.0
Co98 Co 0.4394 0.21009 0.66386 0.0
O99 O 0.45093 0.22361 0.6583 0.0
O100 O 0.45718 0.20413 0.66494 0.0
C101 C 0.4253 0.21153 0.64715 0.0
O102 O 0.43023 0.19355 0.6698 0.0
Co103 Co 0.41073 0.21631 0.67087 0.0
O104 O 0.40874 0.19729 0.66891 0.0
C105 C 0.4315 0.22218 0.68977 0.0
C106 C 0.4603 0.21548 0.6604 0.0
C107 C 0.41836 0.1896 0.66997 0.0
O108 O 0.44002 0.21697 0.68225 0.0
O109 O 0.41953 0.22342 0.6867 0.0
O110 O 0.43607 0.20515 0.64586 0.0
O111 O 0.42413 0.21796 0.65786 0.0
Co112 Co 0.08828 0.04212 0.30961 0.0
O113 O 0.09569 0.03079 0.29689 0.0
O114 O 0.08636 0.04968 0.29245 0.0
C115 C 0.10492 0.04159 0.32383 0.0
O116 O 0.07999 0.0564 0.32057 0.0
Co117 Co 0.08211 0.03054 0.33686 0.0
O118 O 0.07797 0.04884 0.34102 0.0
C119 C 0.0653 0.0241 0.31477 0.0
C120 C 0.09232 0.03934 0.28833 0.0
C121 C 0.07698 0.05789 0.33263 0.0
O122 O 0.07104 0.03282 0.30789 0.0
O123 O 0.06916 0.02082 0.32611 0.0
O124 O 0.10536 0.04922 0.31381 0.0
O125 O 0.09534 0.03352 0.32394 0.0
Co126 Co 0.2084 0.33787 0.5612 0.0
O127 O 0.22145 0.34372 0.54933 0.0
O128 O 0.20288 0.33458 0.54349 0.0
C129 C 0.20784 0.35593 0.57358 0.0
O130 O 0.1925 0.33113 0.57101 0.0
Co131 Co 0.21565 0.33444 0.59031 0.0
O132 O 0.19653 0.33427 0.59226 0.0
C133 C 0.22382 0.31461 0.57128 0.0
C134 C 0.21377 0.34001 0.54011 0.0
C135 C 0.18881 0.33158 0.58296 0.0
O136 O 0.2172 0.32033 0.56235 0.0
O137 O 0.22511 0.31922 0.58275 0.0
O138 O 0.20149 0.35543 0.56272 0.0
O139 O 0.21545 0.34621 0.57577 0.0
Co140 Co 0.91228 0.46147 0.81113 0.0
O141 O 0.90479 0.47288 0.79852 0.0
O142 O 0.91488 0.45446 0.79385 0.0
C143 C 0.89522 0.46106 0.82488 0.0
O144 O 0.92078 0.44712 0.82184 0.0
Co145 Co 0.91717 0.47203 0.83908 0.0
O146 O 0.9219 0.45376 0.84266 0.0
C147 C 0.93439 0.48004 0.81771 0.0
C148 C 0.90862 0.46465 0.78982 0.0
C149 C 0.92348 0.44517 0.8339 0.0
O150 O 0.92918 0.4715 0.81019 0.0
O151 O 0.93008 0.48254 0.82909 0.0
O152 O 0.89533 0.45366 0.81469 0.0
O153 O 0.90455 0.46939 0.82552 0.0
Co154 Co 0.79112 0.16203 0.06205 0.0
O155 O 0.77855 0.15612 0.0497 0.0
O156 O 0.79694 0.16605 0.04458 0.0
C157 C 0.79196 0.14363 0.07389 0.0
O158 O 0.80655 0.16901 0.07241 0.0
Co159 Co 0.78318 0.16428 0.09111 0.0
O160 O 0.80221 0.16545 0.09353 0.0
C161 C 0.77467 0.18438 0.07251 0.0
C162 C 0.78632 0.16037 0.04078 0.0
C163 C 0.80999 0.16861 0.08444 0.0
O164 O 0.78171 0.17922 0.06355 0.0
O165 O 0.77328 0.17931 0.08377 0.0
O166 O 0.79858 0.14467 0.06323 0.0
O167 O 0.78401 0.15305 0.07618 0.0
Co168 Co 0.0878 0.95985 0.68945 0.0
O169 O 0.09537 0.97191 0.70137 0.0
O170 O 0.08546 0.95368 0.7071 0.0
C171 C 0.10468 0.95868 0.67558 0.0
O172 O 0.07924 0.94502 0.67948 0.0
Co173 Co 0.08238 0.96959 0.66137 0.0
O174 O 0.07753 0.95121 0.65854 0.0
C175 C 0.06511 0.97772 0.68253 0.0
C176 C 0.09174 0.9641 0.71052 0.0
C177 C 0.07622 0.94281 0.66754 0.0
O178 O 0.07083 0.96967 0.69018 0.0
O179 O 0.06907 0.98005 0.67099 0.0
O180 O 0.10463 0.95191 0.6862 0.0
O181 O 0.09543 0.96709 0.67458 0.0
Co182 Co 0.28933 0.33679 0.93866 0.0
O183 O 0.27694 0.34381 0.95062 0.0
O184 O 0.29594 0.33541 0.95622 0.0
C185 C 0.28895 0.35323 0.92419 0.0
O186 O 0.30467 0.32909 0.92881 0.0
Co187 Co 0.28015 0.32977 0.91072 0.0
O188 O 0.29888 0.32647 0.90787 0.0
C189 C 0.27275 0.31302 0.93256 0.0
C190 C 0.28517 0.341 0.9597 0.0
C191 C 0.30727 0.32605 0.91696 0.0
O192 O 0.28074 0.31914 0.93998 0.0
O193 O 0.27012 0.31664 0.92098 0.0
O194 O 0.29588 0.35414 0.93467 0.0
O195 O 0.28137 0.34326 0.92366 0.0
Co196 Co 0.91249 0.54204 0.19095 0.0
O197 O 0.90514 0.53046 0.20347 0.0
O198 O 0.91465 0.54916 0.20828 0.0
C199 C 0.89562 0.54199 0.17699 0.0
O200 O 0.9208 0.5565 0.18021 0.0
Co201 Co 0.91816 0.53098 0.16336 0.0
O202 O 0.9227 0.54928 0.15962 0.0
C203 C 0.93526 0.52399 0.18507 0.0
C204 C 0.90862 0.53878 0.21222 0.0
C205 C 0.92384 0.55815 0.16818 0.0
O206 O 0.92965 0.53257 0.19222 0.0
O207 O 0.93124 0.52097 0.17371 0.0
O208 O 0.89543 0.5494 0.18717 0.0
O209 O 0.90513 0.53384 0.1765 0.0
Co210 Co 0.7088 0.16386 0.44134 0.0
O211 O 0.72066 0.15631 0.45349 0.0
O212 O 0.7019 0.16539 0.45881 0.0
C213 C 0.7089 0.14739 0.42689 0.0
O214 O 0.69406 0.17225 0.4311 0.0
Co215 Co 0.71931 0.17053 0.41379 0.0
O216 O 0.70091 0.17498 0.41048 0.0
C217 C 0.7264 0.1871 0.43588 0.0
C218 C 0.7124 0.1594 0.46244 0.0
C219 C 0.69217 0.17567 0.41921 0.0
O220 O 0.71805 0.18112 0.443 0.0
O221 O 0.72928 0.18348 0.42435 0.0
O222 O 0.70164 0.14681 0.43717 0.0
O223 O 0.7169 0.15703 0.42655 0.0
Co224 Co 0.31164 0.08557 0.0408 0.0
O225 O 0.29882 0.09282 0.02949 0.0
O226 O 0.29456 0.08376 0.04855 0.0
C227 C 0.32572 0.1023 0.03991 0.0
O228 O 0.3227 0.07748 0.05511 0.0
Co229 Co 0.33887 0.07937 0.02926 0.0
O230 O 0.34316 0.07556 0.04761 0.0
C231 C 0.31681 0.06233 0.02314 0.0
C232 C 0.29033 0.08965 0.0382 0.0
C233 C 0.33478 0.07461 0.05666 0.0
O234 O 0.30989 0.06824 0.03171 0.0
O235 O 0.32817 0.06612 0.01984 0.0
O236 O 0.31581 0.10272 0.04767 0.0
O237 O 0.32589 0.0926 0.03197 0.0
Co238 Co 0.8118 0.91412 0.45766 0.0
O239 O 0.80008 0.90646 0.46989 0.0
O240 O 0.79407 0.91612 0.45163 0.0
C241 C 0.82594 0.89743 0.45678 0.0
O242 O 0.82139 0.92272 0.4426 0.0
Co243 Co 0.84007 0.92011 0.46651 0.0
O244 O 0.84249 0.92474 0.44802 0.0
C245 C 0.81866 0.93673 0.4755 0.0
C246 C 0.79081 0.90992 0.46213 0.0
C247 C 0.8332 0.92586 0.43992 0.0
O248 O 0.81089 0.93113 0.46746 0.0
O249 O 0.83031 0.93289 0.47743 0.0
O250 O 0.81537 0.89718 0.44993 0.0
O251 O 0.82684 0.90694 0.46488 0.0
Co252 Co 0.33817 0.06131 0.70881 0.0
O253 O 0.34422 0.04962 0.72194 0.0
O254 O 0.33481 0.04355 0.70357 0.0
C255 C 0.35617 0.07374 0.7079 0.0
O256 O 0.33121 0.07081 0.69284 0.0
Co257 Co 0.33469 0.09056 0.71538 0.0
O258 O 0.33432 0.09216 0.69622 0.0
C259 C 0.31535 0.07154 0.72468 0.0
C260 C 0.34037 0.0403 0.71442 0.0
C261 C 0.3316 0.08264 0.6888 0.0
O262 O 0.32078 0.06256 0.71788 0.0
O263 O 0.32001 0.08302 0.72568 0.0
O264 O 0.35564 0.06281 0.70166 0.0
O265 O 0.3465 0.07602 0.71553 0.0
Co266 Co 0.18748 0.58566 0.95871 0.0
O267 O 0.19714 0.59428 0.97195 0.0
O268 O 0.20584 0.58579 0.95424 0.0
C269 C 0.17179 0.60081 0.95692 0.0
O270 O 0.17996 0.57645 0.94284 0.0
Co271 Co 0.1595 0.57658 0.96578 0.0
O272 O 0.15889 0.57219 0.94708 0.0
C273 C 0.18191 0.56204 0.97572 0.0
C274 C 0.20742 0.59219 0.96504 0.0
C275 C 0.16867 0.5722 0.93949 0.0
O276 O 0.18946 0.56859 0.96822 0.0
O277 O 0.16985 0.56466 0.97715 0.0
O278 O 0.18277 0.6023 0.95095 0.0
O279 O 0.17128 0.5911 0.96482 0.0
Co280 Co 0.16273 0.93821 0.20896 0.0
O281 O 0.15285 0.9488 0.22053 0.0
O282 O 0.16314 0.95621 0.20318 0.0
C283 C 0.14768 0.92243 0.20701 0.0
O284 O 0.1732 0.92958 0.19451 0.0
Co285 Co 0.17104 0.91083 0.21872 0.0
O286 O 0.17685 0.90882 0.20051 0.0
C287 C 0.18505 0.93383 0.22805 0.0
C288 C 0.1555 0.95849 0.21299 0.0
C289 C 0.17752 0.91804 0.19228 0.0
O290 O 0.17895 0.94091 0.21974 0.0
O291 O 0.18234 0.92188 0.23005 0.0
O292 O 0.14683 0.93294 0.20013 0.0
O293 O 0.15667 0.92246 0.21574 0.0
Co294 Co 0.68978 0.9115 0.0394 0.0
O295 O 0.70233 0.90406 0.02789 0.0
O296 O 0.70709 0.91371 0.04653 0.0
C297 C 0.67577 0.89466 0.03948 0.0
O298 O 0.67905 0.91987 0.05381 0.0
Co299 Co 0.66212 0.91701 0.02841 0.0
O300 O 0.65839 0.92147 0.04674 0.0
C301 C 0.68389 0.93381 0.02089 0.0
C302 C 0.71105 0.90758 0.03622 0.0
C303 C 0.66698 0.92272 0.05555 0.0
O304 O 0.69102 0.92861 0.02974 0.0
O305 O 0.67261 0.92955 0.01791 0.0
O306 O 0.68597 0.89447 0.04688 0.0
O307 O 0.67535 0.9041 0.03127 0.0
Co308 Co 0.33526 0.43995 0.7895 0.0
O309 O 0.34231 0.45265 0.77791 0.0
O310 O 0.33249 0.45721 0.79652 0.0
C311 C 0.35258 0.42654 0.78959 0.0
O312 O 0.32722 0.42911 0.80403 0.0
Co313 Co 0.33073 0.4119 0.77905 0.0
O314 O 0.32652 0.40826 0.79743 0.0
C315 C 0.31295 0.43293 0.77135 0.0
C316 C 0.3385 0.46131 0.78619 0.0
C317 C 0.32487 0.41699 0.80604 0.0
O318 O 0.31816 0.44056 0.77978 0.0
O319 O 0.31743 0.42162 0.76879 0.0
O320 O 0.35241 0.43673 0.797 0.0
O321 O 0.34311 0.42571 0.78145 0.0
Co322 Co 0.66586 0.0624 0.29096 0.0
O323 O 0.658 0.05105 0.27851 0.0
O324 O 0.66665 0.04461 0.29713 0.0
C325 C 0.65006 0.07754 0.2913 0.0
O326 O 0.67444 0.07166 0.30625 0.0
Co327 Co 0.67384 0.09011 0.28187 0.0
O328 O 0.67787 0.09251 0.30052 0.0
C329 C 0.68931 0.06764 0.27366 0.0
C330 C 0.66068 0.04164 0.2864 0.0
C331 C 0.67813 0.08335 0.30883 0.0
O332 O 0.68315 0.06045 0.28182 0.0
O333 O 0.68614 0.0794 0.27127 0.0
O334 O 0.64889 0.06698 0.29808 0.0
O335 O 0.65982 0.07779 0.28345 0.0
Co336 Co 0.04178 0.81051 0.58781 0.0
O337 O 0.02945 0.79818 0.59424 0.0
O338 O 0.04878 0.79309 0.58628 0.0
C339 C 0.04059 0.82453 0.6046 0.0
O340 O 0.05711 0.82092 0.58073 0.0
Co341 Co 0.03232 0.83845 0.5813 0.0
O342 O 0.05124 0.84197 0.58106 0.0
C343 C 0.02588 0.81689 0.56366 0.0
C344 C 0.03792 0.78931 0.5915 0.0
C345 C 0.05978 0.83311 0.57978 0.0
O346 O 0.03364 0.80938 0.56997 0.0
O347 O 0.02318 0.82846 0.56732 0.0
O348 O 0.04778 0.81422 0.60542 0.0
O349 O 0.0333 0.82513 0.59442 0.0
Co350 Co 0.93972 0.79043 0.83689 0.0
O351 O 0.95243 0.77893 0.84404 0.0
O352 O 0.95689 0.79793 0.83497 0.0
C353 C 0.92561 0.78983 0.85362 0.0
O354 O 0.92881 0.80491 0.8289 0.0
Co355 Co 0.91232 0.77917 0.83077 0.0
O356 O 0.90826 0.79759 0.82701 0.0
C357 C 0.93423 0.77277 0.81372 0.0
C358 C 0.96102 0.78752 0.8408 0.0
C359 C 0.91673 0.80657 0.82608 0.0
O360 O 0.94122 0.78136 0.81951 0.0
O361 O 0.9229 0.76951 0.81763 0.0
O362 O 0.93571 0.79733 0.85409 0.0
O363 O 0.92534 0.78186 0.84395 0.0
Co364 Co 0.96038 0.68938 0.08639 0.0
O365 O 0.97196 0.70199 0.09361 0.0
O366 O 0.953 0.70661 0.08452 0.0
C367 C 0.96085 0.67519 0.10305 0.0
O368 O 0.94586 0.6786 0.07831 0.0
Co369 Co 0.97156 0.66199 0.08012 0.0
O370 O 0.95316 0.65807 0.07615 0.0
C371 C 0.97789 0.68392 0.06307 0.0
C372 C 0.96345 0.71065 0.09035 0.0
C373 C 0.9442 0.66657 0.0753 0.0
O374 O 0.96944 0.69093 0.06903 0.0
O375 O 0.98111 0.67253 0.06686 0.0
O376 O 0.95343 0.68535 0.10356 0.0
O377 O 0.96885 0.67492 0.0934 0.0
Co378 Co 0.05839 0.70823 0.33652 0.0
O379 O 0.04559 0.71936 0.34406 0.0
O380 O 0.04121 0.70101 0.33369 0.0
C381 C 0.07198 0.70782 0.35369 0.0
O382 O 0.06945 0.69424 0.32788 0.0
Co383 Co 0.08605 0.71964 0.33201 0.0
O384 O 0.09006 0.70156 0.32683 0.0
C385 C 0.06466 0.72727 0.31473 0.0
C386 C 0.03703 0.7111 0.34003 0.0
C387 C 0.08156 0.69273 0.32511 0.0
O388 O 0.05741 0.71841 0.31974 0.0
O389 O 0.07588 0.73016 0.31922 0.0
O390 O 0.06194 0.70022 0.35337 0.0
O391 O 0.07254 0.71632 0.34451 0.0
Co392 Co 0.04218 0.19091 0.41362 0.0
O393 O 0.02979 0.20243 0.40594 0.0
O394 O 0.04857 0.2086 0.41446 0.0
C395 C 0.04222 0.17585 0.39773 0.0
O396 O 0.05744 0.18148 0.422 0.0
Co397 Co 0.03296 0.16322 0.42153 0.0
O398 O 0.05161 0.16066 0.42542 0.0
C399 C 0.02511 0.18567 0.43724 0.0
C400 C 0.03783 0.21173 0.4086 0.0
C401 C 0.05998 0.16978 0.42563 0.0
O402 O 0.03323 0.19285 0.43101 0.0
O403 O 0.02261 0.17394 0.43403 0.0
O404 O 0.04909 0.18634 0.39656 0.0
O405 O 0.03446 0.17562 0.40757 0.0
Co406 Co 0.56356 0.78997 0.66359 0.0
O407 O 0.55148 0.77724 0.65746 0.0
O408 O 0.54601 0.79645 0.66547 0.0
C409 C 0.57725 0.78918 0.64652 0.0
O410 O 0.57355 0.80567 0.67036 0.0
Co411 Co 0.59199 0.7817 0.66956 0.0
O412 O 0.59483 0.80075 0.66939 0.0
C413 C 0.57109 0.77461 0.68775 0.0
C414 C 0.54243 0.7855 0.66031 0.0
C415 C 0.58563 0.80889 0.67088 0.0
O416 O 0.5631 0.7819 0.68148 0.0
O417 O 0.5827 0.77239 0.68392 0.0
O418 O 0.56668 0.79599 0.64589 0.0
O419 O 0.57835 0.78196 0.65671 0.0
Co420 Co 0.95811 0.3112 0.91193 0.0
O421 O 0.9691 0.29849 0.90399 0.0
O422 O 0.95023 0.29416 0.91344 0.0
C423 C 0.95867 0.32589 0.89573 0.0
O424 O 0.94411 0.32212 0.9207 0.0
Co425 Co 0.97013 0.33808 0.9188 0.0
O426 O 0.95194 0.3424 0.92328 0.0
C427 C 0.97645 0.3154 0.93485 0.0
C428 C 0.96038 0.29002 0.90718 0.0
C429 C 0.9428 0.33409 0.92409 0.0
O430 O 0.96758 0.30881 0.92901 0.0
O431 O 0.97986 0.3268 0.93129 0.0
O432 O 0.95089 0.31601 0.89508 0.0
O433 O 0.96686 0.32562 0.90521 0.0
Co434 Co 0.44253 0.7075 0.16504 0.0
O435 O 0.45467 0.71933 0.15741 0.0
O436 O 0.45996 0.70043 0.16624 0.0
C437 C 0.42778 0.70793 0.14886 0.0
O438 O 0.43233 0.69273 0.17344 0.0
Co439 Co 0.41507 0.7179 0.17228 0.0
O440 O 0.41168 0.6994 0.17629 0.0
C441 C 0.43755 0.72509 0.18829 0.0
C442 C 0.4636 0.71097 0.16032 0.0
C443 C 0.42046 0.69069 0.17683 0.0
O444 O 0.44452 0.7166 0.18234 0.0
O445 O 0.42599 0.728 0.18481 0.0
O446 O 0.43797 0.70058 0.14797 0.0
O447 O 0.42771 0.71577 0.15863 0.0
Co448 Co 0.0866 0.54317 0.81024 0.0
O449 O 0.09208 0.53016 0.79812 0.0
O450 O 0.08456 0.54957 0.79267 0.0
C451 C 0.10403 0.54184 0.82343 0.0
O452 O 0.08048 0.55919 0.82019 0.0
Co453 Co 0.08115 0.53577 0.83896 0.0
O454 O 0.08226 0.55479 0.8415 0.0
C455 C 0.06151 0.52994 0.81886 0.0
C456 C 0.08935 0.53846 0.78908 0.0
C457 C 0.08049 0.56273 0.83218 0.0
O458 O 0.06846 0.53568 0.81021 0.0
O459 O 0.06516 0.5284 0.83064 0.0
O460 O 0.10452 0.54866 0.81286 0.0
O461 O 0.0936 0.53503 0.82496 0.0
Co462 Co 0.20935 0.83669 0.05995 0.0
O463 O 0.22094 0.84423 0.04754 0.0
O464 O 0.20201 0.83523 0.04265 0.0
C465 C 0.20988 0.85305 0.07451 0.0
O466 O 0.19479 0.82834 0.07048 0.0
Co467 Co 0.22031 0.82982 0.08728 0.0
O468 O 0.2019 0.8257 0.09101 0.0
C469 C 0.22701 0.81342 0.06493 0.0
C470 C 0.21246 0.84117 0.03878 0.0
C471 C 0.19302 0.82504 0.08242 0.0
O472 O 0.21849 0.81939 0.05801 0.0
O473 O 0.2301 0.817 0.07642 0.0
O474 O 0.20238 0.85376 0.06442 0.0
O475 O 0.21782 0.84335 0.07458 0.0
Co476 Co 0.91445 0.95928 0.30973 0.0
O477 O 0.90758 0.97078 0.29688 0.0
O478 O 0.91678 0.9518 0.2926 0.0
C479 C 0.89734 0.9599 0.32337 0.0
O480 O 0.92222 0.9448 0.32081 0.0
Co481 Co 0.91995 0.97052 0.33723 0.0
O482 O 0.92362 0.95212 0.34139 0.0
C483 C 0.93752 0.97692 0.31571 0.0
C484 C 0.91104 0.96222 0.28836 0.0
C485 C 0.92477 0.94314 0.33295 0.0
O486 O 0.93182 0.96838 0.30859 0.0
O487 O 0.93344 0.98011 0.327 0.0
O488 O 0.89719 0.95235 0.31329 0.0
O489 O 0.90702 0.96786 0.32394 0.0
Co490 Co 0.78973 0.66328 0.56201 0.0
O491 O 0.77696 0.65719 0.54994 0.0
O492 O 0.7963 0.66487 0.54445 0.0
C493 C 0.78863 0.64639 0.57589 0.0
O494 O 0.80549 0.66995 0.57199 0.0
Co495 Co 0.78143 0.66973 0.59032 0.0
O496 O 0.80045 0.66928 0.59325 0.0
C497 C 0.77465 0.68773 0.56915 0.0
C498 C 0.78529 0.65984 0.54089 0.0
C499 C 0.80866 0.67055 0.58408 0.0
O500 O 0.78191 0.68127 0.56129 0.0
O501 O 0.77234 0.68408 0.5808 0.0
O502 O 0.79549 0.64554 0.56536 0.0
O503 O 0.78156 0.6567 0.57684 0.0
Co504 Co 0.08582 0.4581 0.19029 0.0
O505 O 0.09301 0.47019 0.20243 0.0
O506 O 0.08382 0.4515 0.20784 0.0
C507 C 0.10268 0.45801 0.17632 0.0
O508 O 0.07774 0.44315 0.18006 0.0
Co509 Co 0.07986 0.46801 0.16237 0.0
O510 O 0.07584 0.44948 0.15919 0.0
C511 C 0.06274 0.47554 0.18389 0.0
C512 C 0.08968 0.4621 0.21144 0.0
C513 C 0.07483 0.44094 0.16809 0.0
O514 O 0.06853 0.46733 0.19132 0.0
O515 O 0.06663 0.47817 0.17239 0.0
O516 O 0.10299 0.45092 0.18673 0.0
O517 O 0.09301 0.46596 0.17556 0.0
Co518 Co 0.29084 0.83721 0.44185 0.0
O519 O 0.27947 0.84438 0.45466 0.0
O520 O 0.29827 0.83484 0.459 0.0
C521 C 0.29058 0.85428 0.42814 0.0
O522 O 0.30514 0.8291 0.43079 0.0
Co523 Co 0.27944 0.83187 0.41436 0.0
O524 O 0.29772 0.82761 0.41025 0.0
C525 C 0.27276 0.81446 0.43593 0.0
C526 C 0.28798 0.84083 0.4632 0.0
C527 C 0.30669 0.82635 0.41868 0.0
O528 O 0.28141 0.82002 0.44304 0.0
O529 O 0.2696 0.8186 0.42465 0.0
O530 O 0.29812 0.85431 0.43822 0.0
O531 O 0.28242 0.84477 0.42762 0.0
Co532 Co 0.91294 0.04069 0.69005 0.0
O533 O 0.90625 0.0291 0.70292 0.0
O534 O 0.91555 0.04803 0.70721 0.0
C535 C 0.89563 0.04024 0.67667 0.0
O536 O 0.92059 0.05519 0.67892 0.0
Co537 Co 0.91793 0.02947 0.66241 0.0
O538 O 0.92176 0.04786 0.65832 0.0
C539 C 0.936 0.02318 0.68353 0.0
C540 C 0.90985 0.03759 0.71146 0.0
C541 C 0.92306 0.05682 0.66676 0.0
O542 O 0.93033 0.0316 0.69082 0.0
O543 O 0.93172 0.01998 0.67232 0.0
O544 O 0.89564 0.04768 0.68682 0.0
O545 O 0.90525 0.03223 0.67591 0.0
Co546 Co 0.70854 0.66283 0.94036 0.0
O547 O 0.72157 0.6571 0.95231 0.0
O548 O 0.70293 0.66621 0.95799 0.0
C549 C 0.70818 0.64477 0.92799 0.0
O550 O 0.69263 0.66947 0.93058 0.0
Co551 Co 0.71549 0.66632 0.91119 0.0
O552 O 0.69636 0.66642 0.90927 0.0
C553 C 0.72388 0.68606 0.93023 0.0
C554 C 0.71384 0.6609 0.96147 0.0
C555 C 0.68878 0.66906 0.91868 0.0
O556 O 0.71726 0.68038 0.93918 0.0
O557 O 0.72511 0.68146 0.91875 0.0
O558 O 0.70176 0.64522 0.93881 0.0
O559 O 0.71567 0.65458 0.92579 0.0
Co560 Co 0.31182 0.58741 0.54107 0.0
O561 O 0.29955 0.59395 0.52876 0.0
O562 O 0.2943 0.58412 0.54717 0.0
C563 C 0.32457 0.60519 0.54195 0.0
O564 O 0.32217 0.57981 0.5562 0.0
Co565 Co 0.34042 0.58373 0.5319 0.0
O566 O 0.3433 0.57969 0.55044 0.0
C567 C 0.32071 0.56438 0.52449 0.0
C568 C 0.29058 0.58996 0.53661 0.0
C569 C 0.33427 0.57779 0.55868 0.0
O570 O 0.31226 0.57019 0.53162 0.0
O571 O 0.33216 0.56881 0.52256 0.0
O572 O 0.31393 0.60461 0.54865 0.0
O573 O 0.32625 0.59582 0.53378 0.0
Co574 Co 0.8094 0.41393 0.95967 0.0
O575 O 0.79772 0.40592 0.97169 0.0
O576 O 0.79183 0.41465 0.95291 0.0
C577 C 0.8246 0.39818 0.95968 0.0
O578 O 0.8191 0.42265 0.94475 0.0
Co579 Co 0.83677 0.42191 0.9698 0.0
O580 O 0.83966 0.42635 0.95132 0.0
C581 C 0.81399 0.43732 0.97726 0.0
C582 C 0.78858 0.40855 0.96348 0.0
C583 C 0.8308 0.42655 0.94268 0.0
O584 O 0.80708 0.43115 0.96886 0.0
O585 O 0.82567 0.43415 0.98004 0.0
O586 O 0.81427 0.39705 0.95256 0.0
O587 O 0.82456 0.40788 0.96762 0.0
Co588 Co 0.3379 0.55977 0.20957 0.0
O589 O 0.34513 0.54729 0.22127 0.0
O590 O 0.33604 0.54245 0.20237 0.0
C591 C 0.35462 0.5739 0.20992 0.0
O592 O 0.32982 0.57042 0.19494 0.0
Co593 Co 0.33168 0.58728 0.22047 0.0
O594 O 0.32756 0.591 0.20207 0.0
C595 C 0.31464 0.56541 0.2271 0.0
C596 C 0.3419 0.53853 0.21285 0.0
C597 C 0.32673 0.58242 0.19319 0.0
O598 O 0.32056 0.55831 0.21869 0.0
O599 O 0.31844 0.57683 0.23017 0.0
O600 O 0.35505 0.5637 0.20255 0.0
O601 O 0.34496 0.57432 0.2179 0.0
Co602 Co 0.18987 0.0873 0.45969 0.0
O603 O 0.20188 0.09476 0.47176 0.0
O604 O 0.20751 0.08491 0.45347 0.0
C605 C 0.17614 0.10436 0.45884 0.0
O606 O 0.17988 0.07887 0.44478 0.0
Co607 Co 0.16154 0.08221 0.46903 0.0
O608 O 0.15883 0.07736 0.45065 0.0
C609 C 0.18259 0.06487 0.47763 0.0
C610 C 0.21099 0.09114 0.46389 0.0
C611 C 0.16794 0.07597 0.44239 0.0
O612 O 0.19046 0.07029 0.46956 0.0
O613 O 0.17108 0.06907 0.47969 0.0
O614 O 0.18664 0.10429 0.45189 0.0
O615 O 0.17511 0.09494 0.46703 0.0
Co616 Co 0.16065 0.44087 0.70815 0.0
O617 O 0.15499 0.45273 0.72132 0.0
O618 O 0.16299 0.45855 0.70221 0.0
C619 C 0.14314 0.42775 0.70867 0.0
O620 O 0.16699 0.43125 0.69201 0.0
Co621 Co 0.16574 0.41194 0.715 0.0
O622 O 0.16481 0.40988 0.69591 0.0
C623 C 0.18541 0.43173 0.72168 0.0
C624 C 0.15799 0.46194 0.71329 0.0
C625 C 0.1668 0.41934 0.6882 0.0
O626 O 0.17862 0.44055 0.716 0.0
O627 O 0.18163 0.41995 0.72289 0.0
O628 O 0.14286 0.43855 0.70221 0.0
O629 O 0.15335 0.42599 0.71575 0.0
Co630 Co 0.69007 0.41387 0.5413 0.0
O631 O 0.70269 0.40749 0.52925 0.0
O632 O 0.70741 0.41638 0.54826 0.0
C633 C 0.67681 0.39643 0.5407 0.0
O634 O 0.67927 0.42119 0.55626 0.0
Co635 Co 0.66193 0.41865 0.53113 0.0
O636 O 0.65841 0.42214 0.54967 0.0
C637 C 0.68248 0.43768 0.52524 0.0
C638 C 0.71143 0.4109 0.53761 0.0
C639 C 0.66715 0.42352 0.55832 0.0
O640 O 0.69049 0.43148 0.53256 0.0
O641 O 0.67106 0.43354 0.52263 0.0
O642 O 0.68708 0.39637 0.54798 0.0
O643 O 0.6758 0.40625 0.53299 0.0
Co644 Co 0.33518 0.94029 0.29354 0.0
O645 O 0.34252 0.95202 0.28113 0.0
O646 O 0.33386 0.95797 0.29991 0.0
C647 C 0.35157 0.92577 0.29353 0.0
O648 O 0.32707 0.93061 0.30879 0.0
Co649 Co 0.32811 0.91241 0.28427 0.0
O650 O 0.32423 0.90972 0.30291 0.0
C651 C 0.31154 0.93434 0.27669 0.0
C652 C 0.33963 0.96125 0.28917 0.0
C653 C 0.32373 0.91881 0.31129 0.0
O654 O 0.31773 0.94173 0.28463 0.0
O655 O 0.31501 0.92268 0.27419 0.0
O656 O 0.35235 0.93627 0.30044 0.0
O657 O 0.34173 0.92519 0.28579 0.0
Co658 Co 0.66383 0.56109 0.79198 0.0
O659 O 0.65766 0.5494 0.77889 0.0
O660 O 0.66538 0.54336 0.79804 0.0
C661 C 0.64701 0.57509 0.79128 0.0
O662 O 0.67057 0.57056 0.80802 0.0
Co663 Co 0.67038 0.58963 0.78459 0.0
O664 O 0.66996 0.59197 0.8037 0.0
C665 C 0.68823 0.56859 0.777 0.0
C666 C 0.66031 0.54011 0.78694 0.0
C667 C 0.67121 0.58253 0.81159 0.0
O668 O 0.6818 0.56053 0.78408 0.0
O669 O 0.68459 0.58032 0.77508 0.0
O670 O 0.6461 0.56439 0.79786 0.0
O671 O 0.65733 0.57618 0.78425 0.0
Co672 Co 0.54192 0.31179 0.58558 0.0
O673 O 0.52954 0.30034 0.59338 0.0
O674 O 0.54819 0.29408 0.58464 0.0
C675 C 0.54222 0.32677 0.60154 0.0
O676 O 0.55717 0.3211 0.57706 0.0
Co677 Co 0.53295 0.3396 0.57786 0.0
O678 O 0.55159 0.342 0.57378 0.0
C679 C 0.52465 0.31726 0.56219 0.0
C680 C 0.53751 0.29101 0.59064 0.0
C681 C 0.55983 0.33278 0.57345 0.0
O682 O 0.53275 0.30997 0.5683 0.0
O683 O 0.52234 0.32902 0.56545 0.0
O684 O 0.54906 0.31625 0.60257 0.0
O685 O 0.53438 0.32711 0.59177 0.0
Co686 Co 0.4399 0.29322 0.83759 0.0
O687 O 0.45191 0.28144 0.84551 0.0
O688 O 0.45747 0.29966 0.83546 0.0
C689 C 0.42572 0.29411 0.85426 0.0
O690 O 0.42994 0.30786 0.82872 0.0
Co691 Co 0.41182 0.28346 0.8319 0.0
O692 O 0.40902 0.30171 0.82665 0.0
C693 C 0.43346 0.27461 0.81547 0.0
C694 C 0.46096 0.28938 0.8419 0.0
C695 C 0.41807 0.31006 0.82543 0.0
O696 O 0.44103 0.28306 0.82075 0.0
O697 O 0.42192 0.27244 0.8195 0.0
O698 O 0.43612 0.30121 0.85439 0.0
O699 O 0.42505 0.28579 0.84493 0.0
Co700 Co 0.45903 0.18869 0.08693 0.0
O701 O 0.47112 0.19883 0.09662 0.0
O702 O 0.45373 0.20685 0.08693 0.0
C703 C 0.45697 0.17279 0.10187 0.0
O704 O 0.44418 0.18055 0.07664 0.0
Co705 Co 0.46807 0.16121 0.07815 0.0
O706 O 0.44983 0.15983 0.07227 0.0
C707 C 0.47744 0.18414 0.06407 0.0
C708 C 0.46382 0.20878 0.0943 0.0
C709 C 0.44176 0.16921 0.07196 0.0
O710 O 0.46947 0.19132 0.07049 0.0
O711 O 0.47929 0.17213 0.06661 0.0
O712 O 0.45039 0.18346 0.10296 0.0
O713 O 0.46553 0.17271 0.09271 0.0
Co714 Co 0.56135 0.21101 0.33711 0.0
O715 O 0.54833 0.22224 0.34414 0.0
O716 O 0.5443 0.20344 0.33447 0.0
C717 C 0.57489 0.21134 0.35433 0.0
O718 O 0.57264 0.19682 0.32912 0.0
Co719 Co 0.5889 0.22258 0.33228 0.0
O720 O 0.59319 0.20431 0.32811 0.0
C721 C 0.56751 0.2293 0.31464 0.0
C722 C 0.53992 0.21368 0.34042 0.0
C723 C 0.58481 0.19531 0.32664 0.0
O724 O 0.56034 0.22052 0.31992 0.0
O725 O 0.57866 0.2325 0.31908 0.0
O726 O 0.56487 0.20371 0.35427 0.0
O727 O 0.57539 0.21952 0.34486 0.0
Co728 Co 0.53924 0.68931 0.41335 0.0
O729 O 0.5265 0.7015 0.40743 0.0
O730 O 0.54553 0.70686 0.41593 0.0
C731 C 0.53872 0.67621 0.3958 0.0
O732 O 0.55497 0.67925 0.42002 0.0
Co733 Co 0.53146 0.66049 0.41803 0.0
O734 O 0.55052 0.65797 0.41786 0.0
C735 C 0.52363 0.68061 0.43691 0.0
C736 C 0.53463 0.71052 0.41072 0.0
C737 C 0.55845 0.66724 0.41995 0.0
O738 O 0.53079 0.68907 0.43111 0.0
O739 O 0.5219 0.6691 0.43258 0.0
O740 O 0.54554 0.68679 0.39561 0.0
O741 O 0.53145 0.67473 0.40589 0.0
Co742 Co 0.06105 0.29044 0.66464 0.0
O743 O 0.04909 0.27733 0.65906 0.0
O744 O 0.04342 0.29646 0.66711 0.0
C745 C 0.07409 0.28977 0.64706 0.0
O746 O 0.07078 0.30649 0.67094 0.0
Co747 Co 0.08995 0.28332 0.66958 0.0
O748 O 0.09216 0.30244 0.66909 0.0
C749 C 0.07005 0.27589 0.68882 0.0
C750 C 0.03994 0.28538 0.66215 0.0
C751 C 0.08271 0.31021 0.67097 0.0
O752 O 0.06148 0.28254 0.6826 0.0
O753 O 0.08164 0.27421 0.68467 0.0
O754 O 0.06337 0.29638 0.6468 0.0
O755 O 0.0758 0.28274 0.6573 0.0
Co756 Co 0.45755 0.80963 0.91448 0.0
O757 O 0.4698 0.79797 0.90678 0.0
O758 O 0.451 0.792 0.91538 0.0
C759 C 0.45764 0.8246 0.89849 0.0
O760 O 0.44239 0.81922 0.92288 0.0
Co761 Co 0.46693 0.83731 0.9222 0.0
O762 O 0.4483 0.84005 0.92607 0.0
C763 C 0.47467 0.81488 0.93805 0.0
C764 C 0.46167 0.78876 0.90946 0.0
C765 C 0.4399 0.83097 0.9264 0.0
O766 O 0.46656 0.80769 0.93184 0.0
O767 O 0.47719 0.82661 0.9348 0.0
O768 O 0.45062 0.8142 0.89742 0.0
O769 O 0.4654 0.82481 0.90833 0.0
Co770 Co 0.94124 0.2095 0.16208 0.0
O771 O 0.95381 0.22115 0.15493 0.0
O772 O 0.95852 0.2023 0.16418 0.0
C773 C 0.92729 0.20979 0.14521 0.0
O774 O 0.9305 0.19491 0.17012 0.0
Co775 Co 0.91362 0.22033 0.16788 0.0
O776 O 0.90982 0.20189 0.17176 0.0
C777 C 0.93527 0.22715 0.18514 0.0
C778 C 0.96252 0.21274 0.15831 0.0
C779 C 0.91844 0.19306 0.17286 0.0
O780 O 0.94248 0.21873 0.17938 0.0
O781 O 0.92389 0.23015 0.18117 0.0
O782 O 0.93747 0.20238 0.14493 0.0
O783 O 0.92681 0.21783 0.15481 0.0
Co784 Co 0.58858 0.0405 0.81116 0.0
O785 O 0.59579 0.02847 0.79897 0.0
O786 O 0.58618 0.04698 0.79365 0.0
C787 C 0.60557 0.04116 0.82494 0.0
O788 O 0.58044 0.05538 0.82135 0.0
Co789 Co 0.58308 0.03073 0.8392 0.0
O790 O 0.57893 0.04924 0.8423 0.0
C791 C 0.56553 0.02309 0.81807 0.0
C792 C 0.5922 0.03651 0.78999 0.0
C793 C 0.5777 0.05768 0.83334 0.0
O794 O 0.57139 0.03105 0.81044 0.0
O795 O 0.56947 0.02064 0.82959 0.0
O796 O 0.6056 0.04804 0.81439 0.0
O797 O 0.59615 0.03293 0.82592 0.0
Co798 Co 0.70977 0.33704 0.06241 0.0
O799 O 0.72308 0.34221 0.05048 0.0
O800 O 0.70424 0.33354 0.04478 0.0
C801 C 0.70969 0.35533 0.07444 0.0
O802 O 0.69354 0.33104 0.07209 0.0
Co803 Co 0.71619 0.33387 0.09172 0.0
O804 O 0.69704 0.33444 0.09337 0.0
C805 C 0.72367 0.3132 0.07329 0.0
C806 C 0.71529 0.33855 0.04131 0.0
C807 C 0.68953 0.33181 0.08391 0.0
O808 O 0.7179 0.31924 0.064 0.0
O809 O 0.7247 0.3178 0.08479 0.0
O810 O 0.70347 0.35483 0.06351 0.0
O811 O 0.71692 0.34538 0.07695 0.0
Co812 Co 0.41275 0.45857 0.30934 0.0
O813 O 0.40573 0.4704 0.29686 0.0
O814 O 0.41497 0.45159 0.29197 0.0
C815 C 0.39574 0.45878 0.32313 0.0
O816 O 0.4207 0.44384 0.31997 0.0
Co817 Co 0.41836 0.46913 0.33712 0.0
O818 O 0.4224 0.45068 0.3407 0.0
C819 C 0.43577 0.47615 0.31566 0.0
C820 C 0.40916 0.4621 0.28807 0.0
C821 C 0.4235 0.44193 0.33201 0.0
O822 O 0.43008 0.46777 0.30834 0.0
O823 O 0.4317 0.47907 0.32703 0.0
O824 O 0.39553 0.45148 0.31287 0.0
O825 O 0.4054 0.46674 0.32382 0.0
Co826 Co 0.29084 0.16328 0.56077 0.0
O827 O 0.27864 0.15653 0.54848 0.0
O828 O 0.29682 0.16676 0.54323 0.0
C829 C 0.29203 0.14541 0.5734 0.0
O830 O 0.30583 0.17117 0.57111 0.0
Co831 Co 0.28176 0.16648 0.58947 0.0
O832 O 0.30019 0.17106 0.59227 0.0
C833 C 0.27364 0.18573 0.56991 0.0
C834 C 0.28639 0.16069 0.53951 0.0
C835 C 0.30833 0.17322 0.5832 0.0
O836 O 0.281 0.18031 0.56137 0.0
O837 O 0.27183 0.18102 0.58126 0.0
O838 O 0.29877 0.1462 0.5628 0.0
O839 O 0.28373 0.15463 0.57514 0.0
Co840 Co 0.58758 0.95808 0.18943 0.0
O841 O 0.59549 0.97038 0.2009 0.0
O842 O 0.58681 0.9517 0.20716 0.0
C843 C 0.60335 0.95787 0.17423 0.0
O844 O 0.57892 0.94298 0.17993 0.0
Co845 Co 0.57961 0.96789 0.16193 0.0
O846 O 0.57518 0.94937 0.15931 0.0
C847 C 0.56407 0.97548 0.18456 0.0
C848 C 0.59278 0.96241 0.21023 0.0
C849 C 0.57499 0.94081 0.16824 0.0
O850 O 0.57031 0.96722 0.19156 0.0
O851 O 0.56722 0.97816 0.17285 0.0
O852 O 0.60452 0.95096 0.1847 0.0
O853 O 0.59364 0.96579 0.17415 0.0
Co854 Co 0.79036 0.33808 0.44033 0.0
O855 O 0.77866 0.34586 0.45248 0.0
O856 O 0.79746 0.33682 0.45775 0.0
C857 C 0.79016 0.35425 0.42554 0.0
O858 O 0.80496 0.32948 0.43002 0.0
Co859 Co 0.77944 0.33096 0.41302 0.0
O860 O 0.79782 0.32657 0.40952 0.0
C861 C 0.77261 0.31481 0.43549 0.0
C862 C 0.787 0.34288 0.4614 0.0
C863 C 0.80669 0.32596 0.41813 0.0
O864 O 0.7811 0.32086 0.44239 0.0
O865 O 0.76955 0.31828 0.42396 0.0
O866 O 0.79751 0.35505 0.43574 0.0
O867 O 0.78213 0.34464 0.42552 0.0
Co868 Co 0.41324 0.54252 0.69242 0.0
O869 O 0.40544 0.53024 0.70398 0.0
O870 O 0.41418 0.54893 0.7101 0.0
C871 C 0.39729 0.54271 0.67742 0.0
O872 O 0.42179 0.55767 0.68296 0.0
Co873 Co 0.42092 0.53322 0.66469 0.0
O874 O 0.42499 0.55184 0.66211 0.0
C875 C 0.43675 0.52531 0.68706 0.0
C876 C 0.40817 0.53829 0.71325 0.0
C877 C 0.42539 0.56018 0.67124 0.0
O878 O 0.43054 0.53338 0.69431 0.0
O879 O 0.43349 0.52287 0.67532 0.0
O880 O 0.39625 0.54962 0.68789 0.0
O881 O 0.40705 0.53485 0.67716 0.0
Co882 Co 0.21026 0.16042 0.94205 0.0
O883 O 0.22295 0.15455 0.95428 0.0
O884 O 0.20409 0.16344 0.95959 0.0
C885 C 0.21018 0.14265 0.92927 0.0
O886 O 0.19468 0.16712 0.93178 0.0
Co887 Co 0.21888 0.16466 0.91343 0.0
O888 O 0.19984 0.16493 0.91066 0.0
C889 C 0.22614 0.18392 0.93322 0.0
C890 C 0.21495 0.15814 0.96328 0.0
C891 C 0.19162 0.16709 0.91965 0.0
O892 O 0.21884 0.17808 0.94152 0.0
O893 O 0.22829 0.17951 0.92181 0.0
O894 O 0.20358 0.14284 0.93999 0.0
O895 O 0.21786 0.15242 0.92758 0.0
Co896 Co 0.81075 0.08698 0.54206 0.0
O897 O 0.79888 0.0938 0.52947 0.0
O898 O 0.79306 0.08496 0.5482 0.0
C899 C 0.82454 0.104 0.54214 0.0
O900 O 0.82049 0.07928 0.55751 0.0
Co901 Co 0.83921 0.08126 0.53356 0.0
O902 O 0.84167 0.07763 0.55225 0.0
C903 C 0.81836 0.06309 0.52618 0.0
C904 C 0.78968 0.09061 0.53742 0.0
C905 C 0.83237 0.07655 0.56034 0.0
O906 O 0.8102 0.06944 0.5332 0.0
O907 O 0.83004 0.06687 0.52426 0.0
O908 O 0.81396 0.10435 0.54895 0.0
O909 O 0.82566 0.09414 0.53449 0.0
Co910 Co 0.30843 0.91141 0.95891 0.0
O911 O 0.29567 0.90428 0.97037 0.0
O912 O 0.29123 0.91378 0.95158 0.0
C913 C 0.32219 0.89437 0.95918 0.0
O914 O 0.31944 0.91951 0.94456 0.0
Co915 Co 0.33594 0.91678 0.97028 0.0
O916 O 0.33999 0.92104 0.95198 0.0
C917 C 0.31439 0.93422 0.97691 0.0
C918 C 0.28708 0.90787 0.96194 0.0
C919 C 0.33155 0.92229 0.94301 0.0
O920 O 0.30727 0.92862 0.96831 0.0
O921 O 0.32567 0.93009 0.98007 0.0
O922 O 0.31208 0.89427 0.95167 0.0
O923 O 0.32269 0.9039 0.96731 0.0
Co924 Co 0.83987 0.0596 0.20836 0.0
O925 O 0.84649 0.04777 0.22109 0.0
O926 O 0.83865 0.04198 0.2019 0.0
C927 C 0.85634 0.07403 0.20913 0.0
O928 O 0.83267 0.06926 0.19265 0.0
Co929 Co 0.83272 0.08779 0.21655 0.0
O930 O 0.83261 0.09057 0.19749 0.0
C931 C 0.8156 0.06612 0.22395 0.0
C932 C 0.84392 0.03861 0.21286 0.0
C933 C 0.83155 0.08128 0.18939 0.0
O934 O 0.82202 0.05842 0.21648 0.0
O935 O 0.81903 0.07785 0.22617 0.0
O936 O 0.85743 0.06348 0.20232 0.0
O937 O 0.8461 0.07468 0.21633 0.0
Co938 Co 0.68906 0.58741 0.45875 0.0
O939 O 0.70068 0.59518 0.47099 0.0
O940 O 0.70684 0.58493 0.45309 0.0
C941 C 0.67525 0.6043 0.45704 0.0
O942 O 0.67958 0.57861 0.44373 0.0
Co943 Co 0.66057 0.58215 0.46727 0.0
O944 O 0.65835 0.57718 0.44884 0.0
C945 C 0.68146 0.56517 0.47681 0.0
C946 C 0.71001 0.59137 0.46348 0.0
C947 C 0.66775 0.57568 0.44093 0.0
O948 O 0.68949 0.57064 0.46896 0.0
O949 O 0.6698 0.56916 0.47841 0.0
O950 O 0.68599 0.60414 0.45047 0.0
O951 O 0.67399 0.59511 0.46547 0.0
Co952 Co 0.66415 0.94109 0.70745 0.0
O953 O 0.65658 0.95279 0.71974 0.0
O954 O 0.66613 0.95881 0.70141 0.0
C955 C 0.64749 0.92694 0.70648 0.0
O956 O 0.67262 0.93149 0.69235 0.0
Co957 Co 0.67028 0.91294 0.71645 0.0
O958 O 0.67469 0.91042 0.6979 0.0
C959 C 0.68705 0.93434 0.72503 0.0
C960 C 0.65999 0.96206 0.71196 0.0
C961 C 0.67571 0.91966 0.68972 0.0
O962 O 0.68123 0.94201 0.71706 0.0
O963 O 0.68331 0.92269 0.72714 0.0
O964 O 0.64723 0.93759 0.69977 0.0
O965 O 0.65695 0.92601 0.71467 0.0
Co966 Co 0.19039 0.91244 0.54057 0.0
O967 O 0.20275 0.90663 0.52794 0.0
O968 O 0.20784 0.91473 0.54721 0.0
C969 C 0.17714 0.89502 0.53962 0.0
O970 O 0.18012 0.91897 0.55623 0.0
Co971 Co 0.16177 0.91758 0.53242 0.0
O972 O 0.15891 0.91696 0.55143 0.0
C973 C 0.18191 0.93714 0.52647 0.0
C974 C 0.21165 0.90966 0.53629 0.0
C975 C 0.16805 0.91895 0.55951 0.0
O976 O 0.19048 0.9304 0.53259 0.0
O977 O 0.17021 0.93333 0.52473 0.0
O978 O 0.18765 0.89468 0.54655 0.0
O979 O 0.17582 0.90519 0.5324 0.0
Co980 Co 0.83681 0.44083 0.29096 0.0
O981 O 0.84472 0.45299 0.27934 0.0
O982 O 0.83472 0.45833 0.29764 0.0
C983 C 0.85341 0.42655 0.29165 0.0
O984 O 0.82793 0.43057 0.30545 0.0
Co985 Co 0.83106 0.41296 0.28061 0.0
O986 O 0.82609 0.40976 0.29888 0.0
C987 C 0.81472 0.4348 0.2722 0.0
C988 C 0.8411 0.46197 0.28736 0.0
C989 C 0.8248 0.41862 0.30743 0.0
O990 O 0.81998 0.44215 0.28084 0.0
O991 O 0.81873 0.42331 0.26976 0.0
O992 O 0.85362 0.43687 0.29888 0.0
O993 O 0.8441 0.4261 0.2833 0.0
Co994 Co 0.16341 0.06298 0.79122 0.0
O995 O 0.15831 0.05133 0.77762 0.0
O996 O 0.16549 0.04519 0.79694 0.0
C997 C 0.14587 0.07606 0.78999 0.0
O998 O 0.16909 0.07227 0.8078 0.0
Co999 Co 0.16855 0.09214 0.78538 0.0
O1000 O 0.16709 0.09375 0.80448 0.0
C1001 C 0.18854 0.07256 0.7788 0.0
C1002 C 0.16091 0.04198 0.78563 0.0
C1003 C 0.16885 0.08406 0.81196 0.0
O1004 O 0.18172 0.06351 0.78411 0.0
O1005 O 0.18462 0.0843 0.77771 0.0
O1006 O 0.14531 0.06523 0.79639 0.0
O1007 O 0.15646 0.07796 0.78356 0.0
Co1008 Co 0.54183 0.808 0.08752 0.0
O1009 O 0.53025 0.79562 0.09513 0.0
O1010 O 0.54898 0.79065 0.08577 0.0
C1011 C 0.54172 0.82242 0.10401 0.0
O1012 O 0.55632 0.81851 0.07903 0.0
Co1013 Co 0.53087 0.83544 0.08109 0.0
O1014 O 0.54922 0.83908 0.07664 0.0
C1015 C 0.52379 0.81329 0.0646 0.0
C1016 C 0.53859 0.78682 0.09184 0.0
C1017 C 0.55806 0.83046 0.07577 0.0
O1018 O 0.53239 0.80629 0.07036 0.0
O1019 O 0.52078 0.82475 0.06835 0.0
O1020 O 0.54912 0.81225 0.10451 0.0
O1021 O 0.5336 0.82262 0.09447 0.0
Co1022 Co 0.43951 0.79197 0.33751 0.0
O1023 O 0.4514 0.78004 0.34536 0.0
O1024 O 0.45701 0.79885 0.3365 0.0
C1025 C 0.42455 0.79184 0.35348 0.0
O1026 O 0.42957 0.8068 0.32891 0.0
Co1027 Co 0.4121 0.78176 0.32989 0.0
O1028 O 0.4089 0.80029 0.32587 0.0
C1029 C 0.43471 0.77436 0.31419 0.0
C1030 C 0.46045 0.7883 0.34253 0.0
C1031 C 0.41775 0.80893 0.32541 0.0
O1032 O 0.44166 0.78276 0.3203 0.0
O1033 O 0.42305 0.77158 0.31745 0.0
O1034 O 0.43484 0.79905 0.35446 0.0
O1035 O 0.42449 0.7839 0.34378 0.0
Co1036 Co 0.45971 0.68915 0.58935 0.0
O1037 O 0.47302 0.70095 0.59479 0.0
O1038 O 0.45376 0.70685 0.58722 0.0
C1039 C 0.46069 0.67596 0.60681 0.0
O1040 O 0.44345 0.6796 0.58326 0.0
Co1041 Co 0.46634 0.66016 0.5841 0.0
O1042 O 0.44725 0.65818 0.58517 0.0
C1043 C 0.47286 0.68002 0.56441 0.0
C1044 C 0.46495 0.71019 0.59201 0.0
C1045 C 0.43958 0.6677 0.58334 0.0
O1046 O 0.46722 0.68886 0.57121 0.0
O1047 O 0.47414 0.66826 0.56822 0.0
O1048 O 0.45416 0.68672 0.6073 0.0
O1049 O 0.46745 0.67425 0.59639 0.0
Co1050 Co 0.55958 0.70895 0.83877 0.0
O1051 O 0.54709 0.72087 0.84563 0.0
O1052 O 0.54216 0.70246 0.83562 0.0
C1053 C 0.57264 0.70821 0.85631 0.0
O1054 O 0.5702 0.69422 0.83084 0.0
Co1055 Co 0.58774 0.71913 0.83464 0.0
O1056 O 0.5911 0.70073 0.83018 0.0
C1057 C 0.56727 0.72688 0.8164 0.0
C1058 C 0.53826 0.71288 0.8416 0.0
C1059 C 0.58232 0.69217 0.82847 0.0
O1060 O 0.55952 0.71862 0.82169 0.0
O1061 O 0.57853 0.72947 0.82096 0.0
O1062 O 0.56217 0.70123 0.85585 0.0
O1063 O 0.57392 0.71652 0.84702 0.0
Co1064 Co 0.5434 0.19017 0.91454 0.0
O1065 O 0.53106 0.20017 0.90502 0.0
O1066 O 0.54842 0.2084 0.91463 0.0
C1067 C 0.54547 0.17443 0.89945 0.0
O1068 O 0.55854 0.18226 0.92457 0.0
Co1069 Co 0.53526 0.16242 0.92327 0.0
O1070 O 0.55377 0.16122 0.92831 0.0
C1071 C 0.52541 0.18505 0.93758 0.0
C1072 C 0.53828 0.21019 0.9073 0.0
C1073 C 0.56153 0.17085 0.92876 0.0
O1074 O 0.53309 0.19249 0.93111 0.0
O1075 O 0.52391 0.17298 0.93502 0.0
O1076 O 0.55191 0.1852 0.89837 0.0
O1077 O 0.53709 0.17412 0.90876 0.0
Co1078 Co 0.06022 0.78857 0.16156 0.0
O1079 O 0.0477 0.77694 0.15425 0.0
O1080 O 0.04293 0.79573 0.16362 0.0
C1081 C 0.07433 0.78844 0.1448 0.0
O1082 O 0.07083 0.80312 0.16977 0.0
Co1083 Co 0.08795 0.77796 0.16742 0.0
O1084 O 0.09157 0.79638 0.17157 0.0
C1085 C 0.06621 0.77079 0.18446 0.0
C1086 C 0.03897 0.78533 0.15766 0.0
C1087 C 0.08285 0.80508 0.17266 0.0
O1088 O 0.05892 0.77923 0.17881 0.0
O1089 O 0.07761 0.76792 0.18045 0.0
O1090 O 0.06411 0.79578 0.14443 0.0
O1091 O 0.07475 0.78037 0.15438 0.0
Co1092 Co 0.45966 0.3095 0.41131 0.0
O1093 O 0.47221 0.29734 0.40496 0.0
O1094 O 0.45293 0.292 0.41289 0.0
C1095 C 0.46066 0.32354 0.39453 0.0
O1096 O 0.44413 0.31963 0.41828 0.0
Co1097 Co 0.46847 0.33765 0.41785 0.0
O1098 O 0.44948 0.34082 0.41778 0.0
C1099 C 0.47534 0.31623 0.43549 0.0
C1100 C 0.46385 0.28835 0.4077 0.0
C1101 C 0.44115 0.33175 0.41905 0.0
O1102 O 0.46775 0.30856 0.42919 0.0
O1103 O 0.47781 0.32785 0.43183 0.0
O1104 O 0.45369 0.31308 0.39367 0.0
O1105 O 0.4679 0.32429 0.40473 0.0
Co1106 Co 0.94066 0.70699 0.66311 0.0
O1107 O 0.9522 0.71949 0.65561 0.0
O1108 O 0.95848 0.70122 0.66509 0.0
C1109 C 0.92655 0.70589 0.64643 0.0
O1110 O 0.93125 0.69171 0.6715 0.0
Co1111 Co 0.91237 0.71559 0.66921 0.0
O1112 O 0.91012 0.697 0.67358 0.0
C1113 C 0.9336 0.72434 0.68611 0.0
C1114 C 0.96158 0.71184 0.659 0.0
C1115 C 0.91945 0.68893 0.67457 0.0
O1116 O 0.9414 0.71654 0.68025 0.0
O1117 O 0.92193 0.72631 0.68235 0.0
O1118 O 0.9373 0.69933 0.64615 0.0
O1119 O 0.92549 0.71403 0.65591 0.0
Co1120 Co 0.58677 0.54153 0.31049 0.0
O1121 O 0.59385 0.52959 0.29815 0.0
O1122 O 0.58477 0.54844 0.2931 0.0
C1123 C 0.60363 0.5413 0.32445 0.0
O1124 O 0.57883 0.55639 0.3209 0.0
Co1125 Co 0.58077 0.5313 0.3383 0.0
O1126 O 0.57682 0.5498 0.34168 0.0
C1127 C 0.56359 0.52413 0.3167 0.0
C1128 C 0.59058 0.53789 0.2893 0.0
C1129 C 0.57591 0.55846 0.33288 0.0
O1130 O 0.5694 0.53242 0.30937 0.0
O1131 O 0.5675 0.52132 0.32815 0.0
O1132 O 0.60399 0.54853 0.31414 0.0
O1133 O 0.59391 0.53341 0.32511 0.0
Co1134 Co 0.71008 0.83895 0.55899 0.0
O1135 O 0.72179 0.84611 0.54648 0.0
O1136 O 0.70309 0.83662 0.54164 0.0
C1137 C 0.71008 0.85597 0.57276 0.0
O1138 O 0.6955 0.83082 0.56966 0.0
Co1139 Co 0.72084 0.83356 0.58675 0.0
O1140 O 0.70248 0.82917 0.59035 0.0
C1141 C 0.72798 0.81618 0.56532 0.0
C1142 C 0.71352 0.84258 0.53771 0.0
C1143 C 0.6937 0.82795 0.58171 0.0
O1144 O 0.7195 0.82173 0.55801 0.0
O1145 O 0.73092 0.82035 0.57664 0.0
O1146 O 0.70276 0.85608 0.56251 0.0
O1147 O 0.71818 0.84644 0.57343 0.0
Co1148 Co 0.41356 0.95994 0.81176 0.0
O1149 O 0.40601 0.97193 0.79974 0.0
O1150 O 0.41506 0.9532 0.79422 0.0
C1151 C 0.39716 0.95983 0.82627 0.0
O1152 O 0.42192 0.94508 0.82187 0.0
Co1153 Co 0.42025 0.97024 0.83942 0.0
O1154 O 0.4246 0.95178 0.84255 0.0
C1155 C 0.43682 0.97747 0.8174 0.0
C1156 C 0.40905 0.96374 0.79071 0.0
C1157 C 0.42528 0.9431 0.83376 0.0
O1158 O 0.43085 0.96916 0.81021 0.0
O1159 O 0.43316 0.98031 0.82892 0.0
O1160 O 0.39651 0.95275 0.81587 0.0
O1161 O 0.40678 0.96785 0.82664 0.0
Co1162 Co 0.29424 0.66421 0.06019 0.0
O1163 O 0.28341 0.65545 0.04791 0.0
O1164 O 0.3015 0.66601 0.04289 0.0
C1165 C 0.29472 0.64811 0.07502 0.0
O1166 O 0.30813 0.67368 0.07066 0.0
Co1167 Co 0.28268 0.67085 0.08732 0.0
O1168 O 0.30086 0.67573 0.0912 0.0
C1169 C 0.27527 0.68661 0.06475 0.0
C1170 C 0.2917 0.65898 0.03916 0.0
C1171 C 0.30971 0.67692 0.08264 0.0
O1172 O 0.28395 0.68082 0.05788 0.0
O1173 O 0.2724 0.68317 0.07634 0.0
O1174 O 0.30235 0.64775 0.065 0.0
O1175 O 0.28615 0.65725 0.07489 0.0
Co1176 Co 0.58709 0.46027 0.6907 0.0
O1177 O 0.59471 0.4718 0.7031 0.0
O1178 O 0.58551 0.45296 0.708 0.0
C1179 C 0.60348 0.46051 0.67619 0.0
O1180 O 0.57864 0.44582 0.68009 0.0
Co1181 Co 0.5804 0.47155 0.66345 0.0
O1182 O 0.57618 0.4532 0.65962 0.0
C1183 C 0.56395 0.47817 0.68575 0.0
C1184 C 0.59156 0.46335 0.71186 0.0
C1185 C 0.57539 0.44422 0.66811 0.0
O1186 O 0.56988 0.46957 0.69261 0.0
O1187 O 0.56756 0.48134 0.67429 0.0
O1188 O 0.60408 0.4531 0.68635 0.0
O1189 O 0.59392 0.46863 0.67608 0.0
Co1190 Co 0.79041 0.83748 0.93884 0.0
O1191 O 0.77835 0.8441 0.95133 0.0
O1192 O 0.79692 0.83443 0.95626 0.0
C1193 C 0.79073 0.85514 0.92586 0.0
O1194 O 0.80534 0.8298 0.92828 0.0
Co1195 Co 0.7808 0.83352 0.91039 0.0
O1196 O 0.79924 0.8292 0.90725 0.0
C1197 C 0.77345 0.81458 0.93054 0.0
C1198 C 0.78641 0.84023 0.96016 0.0
C1199 C 0.80762 0.82748 0.91619 0.0
O1200 O 0.781 0.82021 0.93876 0.0
O1201 O 0.77123 0.8191 0.91918 0.0
O1202 O 0.7978 0.85478 0.93627 0.0
O1203 O 0.78271 0.84561 0.92453 0.0
Co1204 Co 0.41339 0.03899 0.19055 0.0
O1205 O 0.40578 0.02715 0.20268 0.0
O1206 O 0.41454 0.04609 0.20796 0.0
C1207 C 0.3973 0.03862 0.17571 0.0
O1208 O 0.42176 0.05376 0.18032 0.0
Co1209 Co 0.4208 0.02842 0.16319 0.0
O1210 O 0.42465 0.04694 0.15972 0.0
C1211 C 0.4369 0.02161 0.1857 0.0
C1212 C 0.40864 0.03554 0.21161 0.0
C1213 C 0.42513 0.05572 0.16843 0.0
O1214 O 0.43074 0.03 0.19262 0.0
O1215 O 0.43353 0.0186 0.17413 0.0
O1216 O 0.39634 0.04588 0.18596 0.0
O1217 O 0.40703 0.03072 0.17568 0.0
Co1218 Co 0.20794 0.66326 0.439 0.0
O1219 O 0.22081 0.65547 0.44993 0.0
O1220 O 0.20223 0.66378 0.45693 0.0
C1221 C 0.20741 0.6476 0.4237 0.0
O1222 O 0.19228 0.67168 0.43028 0.0
Co1223 Co 0.2162 0.67161 0.41111 0.0
O1224 O 0.19756 0.67598 0.40945 0.0
C1225 C 0.22467 0.6871 0.43348 0.0
C1226 C 0.2131 0.65791 0.45956 0.0
C1227 C 0.18947 0.6758 0.41881 0.0
O1228 O 0.21687 0.6807 0.44086 0.0
O1229 O 0.22681 0.68404 0.42163 0.0
O1230 O 0.20095 0.64623 0.43442 0.0
O1231 O 0.21511 0.65748 0.42335 0.0
Co1232 Co 0.80992 0.58716 0.04241 0.0
O1233 O 0.7982 0.59506 0.03034 0.0
O1234 O 0.79238 0.5865 0.04922 0.0
C1235 C 0.82511 0.60291 0.04218 0.0
O1236 O 0.8196 0.57858 0.0574 0.0
Co1237 Co 0.83733 0.57905 0.03258 0.0
O1238 O 0.84029 0.5751 0.05116 0.0
C1239 C 0.81455 0.56358 0.02513 0.0
C1240 C 0.78908 0.5925 0.03861 0.0
C1241 C 0.83133 0.57488 0.0597 0.0
O1242 O 0.80758 0.56986 0.03339 0.0
O1243 O 0.82627 0.56667 0.02243 0.0
O1244 O 0.81481 0.60412 0.04932 0.0
O1245 O 0.82508 0.59311 0.03437 0.0
Co1246 Co 0.31187 0.41344 0.45861 0.0
O1247 O 0.30057 0.40588 0.4713 0.0
O1248 O 0.29392 0.41595 0.45348 0.0
C1249 C 0.32544 0.39637 0.45667 0.0
O1250 O 0.32094 0.422 0.4432 0.0
Co1251 Co 0.34073 0.41838 0.4661 0.0
O1252 O 0.34235 0.42321 0.44758 0.0
C1253 C 0.3204 0.43589 0.476 0.0
C1254 C 0.29103 0.40959 0.464 0.0
C1255 C 0.33271 0.42478 0.43999 0.0
O1256 O 0.31195 0.43035 0.46864 0.0
O1257 O 0.33205 0.43176 0.47721 0.0
O1258 O 0.31452 0.39658 0.45042 0.0
O1259 O 0.32705 0.40565 0.46494 0.0
Co1260 Co 0.83796 0.55872 0.70869 0.0
O1261 O 0.84522 0.54615 0.72027 0.0
O1262 O 0.83538 0.54139 0.70173 0.0
C1263 C 0.85509 0.57237 0.70843 0.0
O1264 O 0.82967 0.56946 0.69426 0.0
Co1265 Co 0.83294 0.5865 0.71956 0.0
O1266 O 0.82824 0.59015 0.70127 0.0
C1267 C 0.81557 0.56517 0.72702 0.0
C1268 C 0.84147 0.53741 0.71205 0.0
C1269 C 0.82684 0.58152 0.69251 0.0
O1270 O 0.8209 0.55785 0.7184 0.0
O1271 O 0.81986 0.57646 0.7299 0.0
O1272 O 0.855 0.56213 0.7011 0.0
O1273 O 0.84569 0.57309 0.71668 0.0
Co1274 Co 0.69002 0.08792 0.96063 0.0
O1275 O 0.70222 0.09393 0.97331 0.0
O1276 O 0.70757 0.08556 0.95423 0.0
C1277 C 0.67691 0.10546 0.96128 0.0
O1278 O 0.67987 0.08115 0.94499 0.0
Co1279 Co 0.66135 0.08304 0.96879 0.0
O1280 O 0.65861 0.08288 0.94974 0.0
C1281 C 0.68165 0.06415 0.97614 0.0
C1282 C 0.71123 0.09084 0.9651 0.0
C1283 C 0.6678 0.08087 0.94171 0.0
O1284 O 0.68997 0.07012 0.96896 0.0
O1285 O 0.67014 0.06839 0.97812 0.0
O1286 O 0.68742 0.10562 0.95436 0.0
O1287 O 0.67544 0.09536 0.96856 0.0
Co1288 Co 0.66314 0.44083 0.20863 0.0
O1289 O 0.6575 0.45254 0.22195 0.0
O1290 O 0.66408 0.45851 0.20235 0.0
C1291 C 0.64654 0.42663 0.21037 0.0
O1292 O 0.66918 0.4314 0.19226 0.0
Co1293 Co 0.67033 0.41229 0.21534 0.0
O1294 O 0.66846 0.40997 0.19635 0.0
C1295 C 0.68911 0.4333 0.22077 0.0
C1296 C 0.65953 0.46179 0.21366 0.0
C1297 C 0.6695 0.41947 0.18852 0.0
O1298 O 0.68152 0.4417 0.21548 0.0
O1299 O 0.68612 0.42133 0.2222 0.0
O1300 O 0.64517 0.43727 0.20377 0.0
O1301 O 0.65727 0.42565 0.21679 0.0
Co1302 Co 0.19101 0.41283 0.04333 0.0
O1303 O 0.20304 0.40552 0.03122 0.0
O1304 O 0.20856 0.41454 0.04997 0.0
C1305 C 0.17677 0.3962 0.0433 0.0
O1306 O 0.18094 0.421 0.0583 0.0
Co1307 Co 0.16315 0.41925 0.03352 0.0
O1308 O 0.16011 0.42339 0.05205 0.0
C1309 C 0.18496 0.43597 0.02591 0.0
C1310 C 0.21209 0.40868 0.03936 0.0
C1311 C 0.16906 0.42417 0.06056 0.0
O1312 O 0.19229 0.43015 0.03418 0.0
O1313 O 0.17343 0.4322 0.02325 0.0
O1314 O 0.18715 0.39568 0.05042 0.0
O1315 O 0.17618 0.40593 0.03543 0.0
Co1316 Co 0.83727 0.9406 0.79192 0.0
O1317 O 0.8449 0.9521 0.77947 0.0
O1318 O 0.83638 0.95831 0.79823 0.0
C1319 C 0.85319 0.92558 0.792 0.0
O1320 O 0.82894 0.93124 0.80725 0.0
Co1321 Co 0.82946 0.91278 0.78295 0.0
O1322 O 0.82553 0.91037 0.80162 0.0
C1323 C 0.81367 0.93512 0.77493 0.0
C1324 C 0.84224 0.96142 0.78749 0.0
C1325 C 0.82531 0.91957 0.8099 0.0
O1326 O 0.81985 0.94241 0.78299 0.0
O1327 O 0.81696 0.9234 0.7725 0.0
O1328 O 0.85436 0.9361 0.79882 0.0
O1329 O 0.84333 0.92529 0.78427 0.0
Co1330 Co 0.16239 0.56099 0.28838 0.0
O1331 O 0.15514 0.5485 0.27668 0.0
O1332 O 0.16371 0.54373 0.29583 0.0
C1333 C 0.14602 0.57552 0.2875 0.0
O1334 O 0.17038 0.57168 0.30305 0.0
Co1335 Co 0.16941 0.58823 0.27725 0.0
O1336 O 0.17281 0.59218 0.29575 0.0
C1337 C 0.18606 0.56591 0.2712 0.0
C1338 C 0.15799 0.53979 0.28528 0.0
C1339 C 0.17341 0.5837 0.30476 0.0
O1340 O 0.1799 0.55905 0.27964 0.0
O1341 O 0.18253 0.57734 0.26789 0.0
O1342 O 0.14517 0.5654 0.29496 0.0
O1343 O 0.15585 0.57556 0.27972 0.0
C1344 C 0.00772 0.31783 0.04433 0.0
C1345 C 0.01835 0.31118 0.04968 0.0
C1346 C 0.00275 0.31433 0.03223 0.0
C1347 C 0.01314 0.30022 0.00156 0.0
H1348 H 0.97652 0.30262 0.99324 0.0
C1349 C 0.97595 0.30071 0.95434 0.0
C1350 C 0.98236 0.31018 0.94689 0.0
C1351 C 0.98062 0.29731 0.96665 0.0
C1352 C 0.98676 0.30167 0.99539 0.0
H1353 H 0.03177 0.29524 0.04668 0.0
H1354 H 0.02311 0.28919 0.0254 0.0
H1355 H 0.98344 0.30292 0.01588 0.0
H1356 H 0.99918 0.32281 0.94615 0.0
H1357 H 0.00731 0.31686 0.96746 0.0
H1358 H 0.01648 0.29942 0.98106 0.0
C1359 C 0.01867 0.29715 0.03063 0.0
C1360 C 0.99073 0.30197 0.00836 0.0
C1361 C 0.02358 0.30058 0.04284 0.0
C1362 C 0.99395 0.31556 0.95167 0.0
C1363 C 0.99868 0.31207 0.96386 0.0
C1364 C 0.00917 0.3 0.98858 0.0
C1365 C 0.00833 0.30414 0.0251 0.0
C1366 C 0.00399 0.30163 0.01158 0.0
C1367 C 0.99189 0.30317 0.97166 0.0
C1368 C 0.99596 0.3011 0.98534 0.0
H1369 H 0.0034 0.326 0.04934 0.0
H1370 H 0.99488 0.32001 0.0282 0.0
H1371 H 0.02342 0.3 0.0037 0.0
H1372 H 0.967 0.29638 0.95095 0.0
H1373 H 0.97524 0.29035 0.9724 0.0
C1374 C 0.94956 0.22706 0.20492 0.0
C1375 C 0.93979 0.23302 0.19748 0.0
C1376 C 0.95253 0.23168 0.21736 0.0
C1377 C 0.9478 0.23712 0.24618 0.0
H1378 H 0.9477 0.27372 0.25492 0.0
C1379 C 0.9316 0.25675 0.2957 0.0
C1380 C 0.9379 0.26761 0.30103 0.0
C1381 C 0.93506 0.25207 0.28347 0.0
C1382 C 0.94798 0.26346 0.25265 0.0
H1383 H 0.92606 0.24896 0.19697 0.0
H1384 H 0.93128 0.257 0.21852 0.0
H1385 H 0.9483 0.26708 0.23218 0.0
H1386 H 0.95317 0.28175 0.29786 0.0
H1387 H 0.95912 0.27361 0.27636 0.0
H1388 H 0.94704 0.2335 0.26664 0.0
C1389 C 0.93664 0.24877 0.2148 0.0
C1390 C 0.9482 0.25967 0.23963 0.0
C1391 C 0.93358 0.24409 0.20246 0.0
C1392 C 0.94811 0.27337 0.29404 0.0
C1393 C 0.95148 0.26876 0.2817 0.0
C1394 C 0.94749 0.24092 0.2592 0.0
C1395 C 0.94592 0.24244 0.22252 0.0
C1396 C 0.94777 0.24646 0.23624 0.0
C1397 C 0.94483 0.25819 0.2762 0.0
C1398 C 0.94722 0.25413 0.26257 0.0
H1399 H 0.95454 0.21851 0.20138 0.0
H1400 H 0.9598 0.22666 0.22305 0.0
H1401 H 0.94737 0.22687 0.2439 0.0
H1402 H 0.92374 0.25203 0.30083 0.0
H1403 H 0.92965 0.244 0.27946 0.0
C1404 C 0.99327 0.18435 0.54635 0.0
C1405 C 0.98217 0.19045 0.55142 0.0
C1406 C 0.99829 0.18804 0.53433 0.0
C1407 C 0.98743 0.20081 0.50337 0.0
H1408 H 0.02419 0.2003 0.49533 0.0
C1409 C 0.02471 0.20093 0.45629 0.0
C1410 C 0.01899 0.19074 0.44923 0.0
C1411 C 0.01983 0.20443 0.46848 0.0
C1412 C 0.0139 0.20071 0.49741 0.0
H1413 H 0.96799 0.20563 0.54808 0.0
H1414 H 0.97672 0.21198 0.52691 0.0
H1415 H 0.01712 0.20036 0.51794 0.0
H1416 H 0.00319 0.17683 0.44907 0.0
H1417 H 0.99468 0.18299 0.47018 0.0
H1418 H 0.98421 0.20064 0.48283 0.0
C1419 C 0.9815 0.20433 0.5323 0.0
C1420 C 0.00985 0.20064 0.51036 0.0
C1421 C 0.97655 0.20074 0.54444 0.0
C1422 C 0.00788 0.18466 0.45428 0.0
C1423 C 0.00293 0.18826 0.46636 0.0
C1424 C 0.99148 0.20079 0.49042 0.0
C1425 C 0.99228 0.19784 0.52701 0.0
C1426 C 0.99658 0.20029 0.51347 0.0
C1427 C 0.00902 0.19797 0.47374 0.0
C1428 C 0.00475 0.20035 0.4873 0.0
H1429 H 0.99789 0.17645 0.55151 0.0
H1430 H 0.00651 0.18275 0.53049 0.0
H1431 H 0.97714 0.20047 0.50544 0.0
H1432 H 0.03328 0.2058 0.45266 0.0
H1433 H 0.02467 0.212 0.47393 0.0
C1434 C 0.06956 0.24498 0.80073 0.0
C1435 C 0.06313 0.23375 0.80504 0.0
C1436 C 0.06706 0.25005 0.78841 0.0
C1437 C 0.05551 0.26113 0.76311 0.0
H1438 H 0.06226 0.23592 0.73599 0.0
C1439 C 0.05525 0.2741 0.7082 0.0
C1440 C 0.06661 0.27029 0.70164 0.0
C1441 C 0.05259 0.26943 0.72068 0.0
C1442 C 0.06023 0.24304 0.74345 0.0
H1443 H 0.04864 0.21935 0.80001 0.0
H1444 H 0.04452 0.22808 0.7783 0.0
H1445 H 0.06095 0.22882 0.75859 0.0
H1446 H 0.08385 0.25824 0.70298 0.0
H1447 H 0.07911 0.25005 0.7246 0.0
H1448 H 0.05509 0.27541 0.74797 0.0
C1449 C 0.05139 0.23299 0.78456 0.0
C1450 C 0.05939 0.23897 0.75635 0.0
C1451 C 0.05369 0.22805 0.797 0.0
C1452 C 0.07502 0.26142 0.70772 0.0
C1453 C 0.07228 0.25665 0.72009 0.0
C1454 C 0.05613 0.26518 0.75016 0.0
C1455 C 0.05826 0.24387 0.78006 0.0
C1456 C 0.05731 0.24801 0.76633 0.0
C1457 C 0.06112 0.26071 0.72677 0.0
C1458 C 0.05882 0.25622 0.74024 0.0
H1459 H 0.07686 0.2496 0.80671 0.0
H1460 H 0.07255 0.2584 0.78514 0.0
H1461 H 0.0539 0.26829 0.77064 0.0
H1462 H 0.04856 0.28091 0.70382 0.0
H1463 H 0.04389 0.27266 0.72561 0.0
C1464 C 0.97724 0.69842 0.04347 0.0
C1465 C 0.98347 0.68866 0.05068 0.0
C1466 C 0.98155 0.70157 0.03097 0.0
C1467 C 0.00913 0.698 0.00814 0.0
H1468 H 0.98251 0.69678 0.98159 0.0
C1469 C 0.00568 0.68312 0.95152 0.0
C1470 C 0.01625 0.68997 0.94627 0.0
C1471 C 0.00111 0.68594 0.96396 0.0
C1472 C 0.99004 0.69723 0.9889 0.0
H1473 H 0.99961 0.67514 0.05073 0.0
H1474 H 0.00713 0.68068 0.02907 0.0
H1475 H 0.97629 0.69651 0.00445 0.0
H1476 H 0.02996 0.70555 0.94985 0.0
H1477 H 0.02201 0.71039 0.97166 0.0
H1478 H 0.0229 0.69818 0.9926 0.0
C1479 C 0.9989 0.68589 0.03302 0.0
C1480 C 0.98648 0.6972 0.00199 0.0
C1481 C 0.99452 0.68264 0.04542 0.0
C1482 C 0.0218 0.70007 0.95359 0.0
C1483 C 0.01731 0.70281 0.96611 0.0
C1484 C 0.01269 0.69814 0.99505 0.0
C1485 C 0.99229 0.69515 0.02553 0.0
C1486 C 0.996 0.69722 0.01175 0.0
C1487 C 0.00706 0.69562 0.97151 0.0
C1488 C 0.00319 0.6974 0.98529 0.0
H1489 H 0.96869 0.70324 0.04723 0.0
H1490 H 0.97632 0.70883 0.02546 0.0
H1491 H 0.01668 0.69814 0.01545 0.0
H1492 H 0.00112 0.67532 0.94616 0.0
H1493 H 0.99328 0.68014 0.96789 0.0
C1494 C 0.5531 0.27278 0.20458 0.0
C1495 C 0.56323 0.268 0.19675 0.0
C1496 C 0.55124 0.26795 0.21717 0.0
C1497 C 0.57074 0.25361 0.24305 0.0
H1498 H 0.53808 0.24706 0.26056 0.0
C1499 C 0.55424 0.22924 0.2941 0.0
C1500 C 0.56342 0.23529 0.3022 0.0
C1501 C 0.5522 0.23377 0.28142 0.0
C1502 C 0.54725 0.24884 0.25576 0.0
H1503 H 0.57858 0.25363 0.19564 0.0
H1504 H 0.57526 0.24522 0.21741 0.0
H1505 H 0.53816 0.25287 0.23741 0.0
H1506 H 0.57674 0.25153 0.30374 0.0
H1507 H 0.57308 0.25942 0.28184 0.0
H1508 H 0.5799 0.24958 0.26116 0.0
C1509 C 0.56896 0.25289 0.21396 0.0
C1510 C 0.5473 0.25222 0.24256 0.0
C1511 C 0.57083 0.2577 0.20146 0.0
C1512 C 0.56977 0.24648 0.2977 0.0
C1513 C 0.56771 0.251 0.28512 0.0
C1514 C 0.57069 0.25036 0.25616 0.0
C1515 C 0.55947 0.25826 0.22213 0.0
C1516 C 0.55907 0.25457 0.23606 0.0
C1517 C 0.55929 0.24442 0.27667 0.0
C1518 C 0.55897 0.24797 0.2627 0.0
H1519 H 0.54703 0.28068 0.20125 0.0
H1520 H 0.54384 0.27228 0.22324 0.0
H1521 H 0.57996 0.25554 0.2384 0.0
H1522 H 0.54916 0.22061 0.29728 0.0
H1523 H 0.54564 0.2285 0.27513 0.0
C1524 C 0.02582 0.80204 0.54427 0.0
C1525 C 0.02019 0.81232 0.55126 0.0
C1526 C 0.02111 0.79868 0.53196 0.0
C1527 C 0.99297 0.80258 0.5099 0.0
H1528 H 0.01855 0.80163 0.48234 0.0
C1529 C 0.99483 0.81675 0.45331 0.0
C1530 C 0.9836 0.81064 0.44855 0.0
C1531 C 0.99985 0.81349 0.46545 0.0
C1532 C 0.0113 0.80175 0.48994 0.0
H1533 H 0.00481 0.82669 0.55106 0.0
H1534 H 0.99661 0.8208 0.52975 0.0
H1535 H 0.02567 0.80232 0.50494 0.0
H1536 H 0.96919 0.79585 0.45259 0.0
H1537 H 0.97793 0.79025 0.47397 0.0
H1538 H 0.9786 0.80263 0.4949 0.0
C1539 C 0.00465 0.81532 0.53374 0.0
C1540 C 0.01537 0.80204 0.50288 0.0
C1541 C 0.00943 0.81877 0.54592 0.0
C1542 C 0.97786 0.80074 0.45598 0.0
C1543 C 0.98281 0.79758 0.46824 0.0
C1544 C 0.98889 0.80219 0.49697 0.0
C1545 C 0.01057 0.8054 0.52651 0.0
C1546 C 0.00625 0.80287 0.51298 0.0
C1547 C 0.99371 0.80412 0.47321 0.0
C1548 C 0.99802 0.80219 0.48683 0.0
H1549 H 0.03413 0.79687 0.5481 0.0
H1550 H 0.02583 0.79095 0.52662 0.0
H1551 H 0.98571 0.80309 0.51749 0.0
H1552 H 0.99955 0.82436 0.44781 0.0
H1553 H 0.00818 0.81881 0.46903 0.0
C1554 C 0.42631 0.22627 0.71302 0.0
C1555 C 0.43543 0.22651 0.70289 0.0
C1556 C 0.42972 0.2303 0.72547 0.0
C1557 C 0.44903 0.25244 0.74347 0.0
H1558 H 0.44147 0.22981 0.77256 0.0
C1559 C 0.44879 0.27133 0.79661 0.0
C1560 C 0.43778 0.26748 0.80371 0.0
C1561 C 0.45184 0.26529 0.78478 0.0
C1562 C 0.44363 0.23628 0.76457 0.0
H1563 H 0.4553 0.23124 0.69786 0.0
H1564 H 0.46116 0.2388 0.71977 0.0
H1565 H 0.4404 0.22131 0.75051 0.0
H1566 H 0.42171 0.25385 0.80417 0.0
H1567 H 0.42685 0.24361 0.78375 0.0
H1568 H 0.45133 0.26766 0.75744 0.0
C1569 C 0.45143 0.23527 0.71797 0.0
C1570 C 0.44311 0.23137 0.75196 0.0
C1571 C 0.44809 0.23092 0.7055 0.0
C1572 C 0.43024 0.25714 0.79898 0.0
C1573 C 0.43328 0.25114 0.78726 0.0
C1574 C 0.44938 0.25743 0.75612 0.0
C1575 C 0.44226 0.23489 0.72806 0.0
C1576 C 0.44539 0.2395 0.74129 0.0
C1577 C 0.44399 0.25523 0.77989 0.0
C1578 C 0.4462 0.2495 0.76679 0.0
H1579 H 0.41651 0.22285 0.71136 0.0
H1580 H 0.42246 0.23002 0.73306 0.0
H1581 H 0.45076 0.2589 0.73536 0.0
H1582 H 0.45482 0.27925 0.79997 0.0
H1583 H 0.46022 0.26861 0.77939 0.0
C1584 C 0.95693 0.97717 0.30088 0.0
C1585 C 0.94984 0.98279 0.31111 0.0
C1586 C 0.96923 0.98192 0.29758 0.0
C1587 C 0.99147 0.00996 0.30194 0.0
H1588 H 0.0187 0.98405 0.3005 0.0
C1589 C 0.0482 0.0069 0.31578 0.0
C1590 C 0.05308 0.01823 0.30995 0.0
C1591 C 0.03593 0.00218 0.31254 0.0
C1592 C 0.0112 0.9914 0.30078 0.0
H1593 H 0.94988 0.99826 0.3254 0.0
H1594 H 0.9712 0.00649 0.31965 0.0
H1595 H 0.99604 0.9772 0.30107 0.0
H1596 H 0.04908 0.03314 0.29565 0.0
H1597 H 0.02751 0.02491 0.29005 0.0
H1598 H 0.00664 0.02413 0.30228 0.0
C1599 C 0.96728 0.99844 0.31416 0.0
C1600 C 0.99821 0.98748 0.30098 0.0
C1601 C 0.95508 0.99363 0.31753 0.0
C1602 C 0.04561 0.02439 0.30033 0.0
C1603 C 0.03324 0.01973 0.29718 0.0
C1604 C 0.00445 0.01387 0.30166 0.0
C1605 C 0.97462 0.99248 0.30433 0.0
C1606 C 0.98821 0.99671 0.30197 0.0
C1607 C 0.02817 0.00871 0.30344 0.0
C1608 C 0.01447 0.00463 0.30148 0.0
H1609 H 0.95318 0.96882 0.29572 0.0
H1610 H 0.97461 0.9772 0.2899 0.0
H1611 H 0.98397 0.0173 0.30255 0.0
H1612 H 0.05372 0.00185 0.32317 0.0
H1613 H 0.03229 0.99375 0.31764 0.0
C1614 C 0.23598 0.2949 0.57854 0.0
C1615 C 0.22992 0.30183 0.56848 0.0
C1616 C 0.2414 0.28272 0.57627 0.0
C1617 C 0.24027 0.25459 0.55416 0.0
H1618 H 0.27083 0.24484 0.57384 0.0
C1619 C 0.26813 0.20404 0.55451 0.0
C1620 C 0.26783 0.19862 0.56707 0.0
C1621 C 0.26368 0.21674 0.55237 0.0
C1622 C 0.26236 0.24748 0.56819 0.0
H1623 H 0.22494 0.30132 0.54803 0.0
H1624 H 0.23464 0.28 0.54402 0.0
H1625 H 0.26344 0.26729 0.57411 0.0
H1626 H 0.26227 0.20229 0.58709 0.0
H1627 H 0.25488 0.22433 0.58332 0.0
H1628 H 0.23931 0.23455 0.54836 0.0
C1629 C 0.23503 0.28401 0.55373 0.0
C1630 C 0.25805 0.2603 0.56841 0.0
C1631 C 0.22952 0.29626 0.55602 0.0
C1632 C 0.26267 0.20606 0.57729 0.0
C1633 C 0.25846 0.21872 0.57518 0.0
C1634 C 0.24472 0.24173 0.5538 0.0
C1635 C 0.24105 0.27711 0.56385 0.0
C1636 C 0.24668 0.26394 0.5618 0.0
C1637 C 0.25909 0.22424 0.56277 0.0
C1638 C 0.25557 0.23804 0.56115 0.0
H1639 H 0.23641 0.29876 0.5883 0.0
H1640 H 0.24565 0.27759 0.5844 0.0
H1641 H 0.23146 0.25703 0.54899 0.0
H1642 H 0.27202 0.19858 0.54642 0.0
H1643 H 0.26424 0.22085 0.54271 0.0
C1644 C 0.95334 0.48304 0.80244 0.0
C1645 C 0.94638 0.48687 0.81354 0.0
C1646 C 0.96533 0.48879 0.79948 0.0
C1647 C 0.98643 0.51699 0.80831 0.0
H1648 H 0.01487 0.49377 0.80008 0.0
C1649 C 0.03868 0.52475 0.82494 0.0
C1650 C 0.04833 0.52543 0.81534 0.0
C1651 C 0.02611 0.52086 0.82179 0.0
C1652 C 0.00697 0.50039 0.80214 0.0
H1653 H 0.94639 0.50016 0.82991 0.0
H1654 H 0.9671 0.50985 0.82495 0.0
H1655 H 0.99254 0.48564 0.7996 0.0
H1656 H 0.05243 0.52237 0.79492 0.0
H1657 H 0.03033 0.51505 0.78952 0.0
H1658 H 0.00098 0.53143 0.81178 0.0
C1659 C 0.96334 0.50259 0.81836 0.0
C1660 C 0.99419 0.49578 0.80183 0.0
C1661 C 0.95144 0.49689 0.8213 0.0
C1662 C 0.04517 0.52197 0.80251 0.0
C1663 C 0.03259 0.51777 0.79942 0.0
C1664 C 0.99918 0.52151 0.8088 0.0
C1665 C 0.97055 0.49852 0.80753 0.0
C1666 C 0.98379 0.50391 0.80537 0.0
C1667 C 0.02296 0.51733 0.80904 0.0
C1668 C 0.00956 0.51315 0.8061 0.0
H1669 H 0.94973 0.47537 0.79624 0.0
H1670 H 0.97058 0.4855 0.79099 0.0
H1671 H 0.97867 0.52362 0.81076 0.0
H1672 H 0.04076 0.52743 0.83488 0.0
H1673 H 0.01884 0.52051 0.82938 0.0
C1674 C 0.76134 0.20318 0.08011 0.0
C1675 C 0.76822 0.19704 0.07006 0.0
C1676 C 0.7557 0.21532 0.07825 0.0
C1677 C 0.75755 0.24476 0.05801 0.0
H1678 H 0.72555 0.25272 0.07615 0.0
C1679 C 0.73109 0.29536 0.05824 0.0
C1680 C 0.72879 0.29996 0.0709 0.0
C1681 C 0.73549 0.28264 0.05622 0.0
C1682 C 0.73446 0.25061 0.07099 0.0
H1683 H 0.77439 0.19893 0.05001 0.0
H1684 H 0.7643 0.22018 0.0467 0.0
H1685 H 0.73348 0.23047 0.07568 0.0
H1686 H 0.72933 0.29476 0.09132 0.0
H1687 H 0.7367 0.27265 0.08773 0.0
H1688 H 0.75841 0.26509 0.0534 0.0
C1689 C 0.76345 0.21557 0.0561 0.0
C1690 C 0.73906 0.23789 0.07077 0.0
C1691 C 0.76917 0.20336 0.05798 0.0
C1692 C 0.73104 0.2916 0.08144 0.0
C1693 C 0.73518 0.27889 0.07941 0.0
C1694 C 0.75284 0.25753 0.0581 0.0
C1695 C 0.75666 0.2217 0.06624 0.0
C1696 C 0.75089 0.23486 0.06467 0.0
C1697 C 0.73738 0.27425 0.0668 0.0
C1698 C 0.74146 0.2606 0.06494 0.0
H1699 H 0.76045 0.19872 0.08959 0.0
H1700 H 0.75083 0.21983 0.08639 0.0
H1701 H 0.76672 0.2428 0.05327 0.0
H1702 H 0.72949 0.30157 0.04992 0.0
H1703 H 0.73713 0.27926 0.04641 0.0
C1704 C 0.04748 0.99424 0.67976 0.0
C1705 C 0.05279 0.98382 0.68679 0.0
C1706 C 0.03516 0.99902 0.68274 0.0
C1707 C 0.00426 0.98809 0.69586 0.0
H1708 H 0.99517 0.02455 0.69382 0.0
C1709 C 0.95617 0.02387 0.69722 0.0
C1710 C 0.94858 0.01762 0.68775 0.0
C1711 C 0.96875 0.01953 0.69993 0.0
C1712 C 0.99756 0.01434 0.69462 0.0
H1713 H 0.04946 0.97062 0.70285 0.0
H1714 H 0.02784 0.97892 0.70797 0.0
H1715 H 0.01799 0.0181 0.69364 0.0
H1716 H 0.948 0.00147 0.67426 0.0
H1717 H 0.96983 0.99387 0.67907 0.0
H1718 H 0.98382 0.98431 0.6964 0.0
C1719 C 0.03326 0.98335 0.70012 0.0
C1720 C 0.01061 0.01065 0.6944 0.0
C1721 C 0.04567 0.97865 0.69723 0.0
C1722 C 0.9536 0.00656 0.68156 0.0
C1723 C 0.96609 0.00214 0.68438 0.0
C1724 C 0.9912 0.99177 0.69596 0.0
C1725 C 0.02779 0.99343 0.69276 0.0
C1726 C 0.01409 0.99747 0.69474 0.0
C1727 C 0.97392 0.00875 0.69337 0.0
C1728 C 0.98771 0.00492 0.69506 0.0
H1729 H 0.0527 0.99851 0.6717 0.0
H1730 H 0.03117 0.00672 0.67681 0.0
H1731 H 0.00662 0.97785 0.69604 0.0
H1732 H 0.9526 0.03243 0.70216 0.0
H1733 H 0.97454 0.02476 0.70698 0.0
C1734 C 0.2417 0.20214 0.929 0.0
C1735 C 0.23185 0.19668 0.93672 0.0
C1736 C 0.24647 0.21455 0.93163 0.0
C1737 C 0.23663 0.24545 0.94566 0.0
H1738 H 0.27312 0.25396 0.94215 0.0
C1739 C 0.27337 0.29289 0.9463 0.0
C1740 C 0.26699 0.30065 0.93708 0.0
C1741 C 0.26885 0.28037 0.94907 0.0
C1742 C 0.26292 0.25173 0.94337 0.0
H1743 H 0.21952 0.19995 0.95347 0.0
H1744 H 0.2278 0.22174 0.95795 0.0
H1745 H 0.26626 0.23127 0.94179 0.0
H1746 H 0.25041 0.30169 0.92416 0.0
H1747 H 0.24245 0.28001 0.92913 0.0
H1748 H 0.23326 0.26595 0.94679 0.0
C1749 C 0.2318 0.21635 0.94987 0.0
C1750 C 0.25899 0.23875 0.94303 0.0
C1751 C 0.22711 0.20384 0.94733 0.0
C1752 C 0.25559 0.29593 0.93126 0.0
C1753 C 0.25098 0.28353 0.93417 0.0
C1754 C 0.24056 0.25844 0.94586 0.0
C1755 C 0.24144 0.22187 0.94196 0.0
C1756 C 0.24577 0.23549 0.94391 0.0
C1757 C 0.25773 0.27548 0.94284 0.0
C1758 C 0.25372 0.26173 0.94446 0.0
H1759 H 0.24562 0.1969 0.92078 0.0
H1760 H 0.2538 0.21858 0.92527 0.0
H1761 H 0.22638 0.24325 0.94629 0.0
H1762 H 0.2822 0.29623 0.95092 0.0
H1763 H 0.2742 0.2744 0.95586 0.0
C1764 C 0.04536 0.49238 0.18176 0.0
C1765 C 0.05051 0.48164 0.1884 0.0
C1766 C 0.03319 0.49734 0.18504 0.0
C1767 C 0.00218 0.48681 0.1982 0.0
H1768 H 0.99404 0.52352 0.19685 0.0
C1769 C 0.95507 0.52396 0.19931 0.0
C1770 C 0.94751 0.51799 0.18963 0.0
C1771 C 0.96744 0.5192 0.20229 0.0
C1772 C 0.99616 0.51325 0.19748 0.0
H1773 H 0.04707 0.46801 0.20407 0.0
H1774 H 0.02569 0.47663 0.2097 0.0
H1775 H 0.01667 0.51651 0.19659 0.0
H1776 H 0.94672 0.50188 0.1761 0.0
H1777 H 0.96816 0.49358 0.18137 0.0
H1778 H 0.98166 0.48354 0.19864 0.0
C1779 C 0.03113 0.48117 0.20194 0.0
C1780 C 0.00911 0.50923 0.19721 0.0
C1781 C 0.0434 0.47628 0.19875 0.0
C1782 C 0.9523 0.50677 0.18354 0.0
C1783 C 0.96457 0.50194 0.18663 0.0
C1784 C 0.98923 0.49083 0.19836 0.0
C1785 C 0.02581 0.49162 0.19497 0.0
C1786 C 0.01225 0.49596 0.19723 0.0
C1787 C 0.97241 0.50828 0.19581 0.0
C1788 C 0.98607 0.50408 0.19768 0.0
H1789 H 0.05059 0.4968 0.17379 0.0
H1790 H 0.02932 0.50531 0.17939 0.0
H1791 H 0.00428 0.47652 0.19815 0.0
H1792 H 0.95167 0.53263 0.20418 0.0
H1793 H 0.97323 0.52422 0.20948 0.0
C1794 C 0.74325 0.20454 0.43447 0.0
C1795 C 0.73232 0.1993 0.44072 0.0
C1796 C 0.74796 0.21678 0.43787 0.0
C1797 C 0.73648 0.24771 0.45044 0.0
H1798 H 0.77304 0.25656 0.44952 0.0
C1799 C 0.77282 0.29556 0.4505 0.0
C1800 C 0.76674 0.30269 0.44057 0.0
C1801 C 0.76823 0.28322 0.45391 0.0
C1802 C 0.7628 0.25426 0.45004 0.0
H1803 H 0.71812 0.20262 0.4559 0.0
H1804 H 0.72632 0.22411 0.46178 0.0
H1805 H 0.76648 0.23381 0.44963 0.0
H1806 H 0.75061 0.30279 0.42705 0.0
H1807 H 0.74263 0.28142 0.43303 0.0
H1808 H 0.73279 0.26817 0.45041 0.0
C1809 C 0.73119 0.21871 0.4542 0.0
C1810 C 0.75904 0.24123 0.44998 0.0
C1811 C 0.72655 0.20637 0.45088 0.0
C1812 C 0.75557 0.29753 0.43468 0.0
C1813 C 0.75093 0.28531 0.43818 0.0
C1814 C 0.74024 0.26075 0.45042 0.0
C1815 C 0.74181 0.22414 0.44756 0.0
C1816 C 0.74583 0.23781 0.44981 0.0
C1817 C 0.75738 0.27786 0.4476 0.0
C1818 C 0.75343 0.26417 0.44985 0.0
H1819 H 0.74798 0.19935 0.42665 0.0
H1820 H 0.75606 0.22072 0.43247 0.0
H1821 H 0.72623 0.24541 0.45024 0.0
H1822 H 0.78144 0.29924 0.45523 0.0
H1823 H 0.77335 0.27775 0.46128 0.0
C1824 C 0.30008 0.95398 0.97691 0.0
C1825 C 0.3099 0.94655 0.9828 0.0
C1826 C 0.2971 0.9664 0.98156 0.0
C1827 C 0.3017 0.99522 0.98701 0.0
H1828 H 0.30228 0.00394 0.02361 0.0
C1829 C 0.31799 0.04479 0.00638 0.0
C1830 C 0.31192 0.05007 0.0174 0.0
C1831 C 0.31449 0.03256 0.00175 0.0
C1832 C 0.30186 0.00168 0.01336 0.0
H1833 H 0.32371 0.94606 0.99868 0.0
H1834 H 0.3185 0.96759 0.00676 0.0
H1835 H 0.30165 0.98121 0.01697 0.0
H1836 H 0.29698 0.0468 0.03186 0.0
H1837 H 0.29092 0.02531 0.02378 0.0
H1838 H 0.30232 0.01568 0.98339 0.0
C1839 C 0.3131 0.96386 0.99856 0.0
C1840 C 0.30163 0.98866 0.00956 0.0
C1841 C 0.31616 0.95154 0.99385 0.0
C1842 C 0.30186 0.04302 0.02336 0.0
C1843 C 0.29844 0.03069 0.01878 0.0
C1844 C 0.30201 0.00824 0.99081 0.0
C1845 C 0.30376 0.97156 0.99229 0.0
C1846 C 0.3019 0.98528 0.99634 0.0
C1847 C 0.30487 0.02524 0.00805 0.0
C1848 C 0.30245 0.01161 0.00402 0.0
H1849 H 0.29506 0.95044 0.96839 0.0
H1850 H 0.28978 0.97207 0.9766 0.0
H1851 H 0.30199 0.99295 0.97675 0.0
H1852 H 0.32573 0.04997 0.0015 0.0
H1853 H 0.31974 0.0286 0.99355 0.0
C1854 C 0.824 0.04217 0.51524 0.0
C1855 C 0.8145 0.05033 0.5207 0.0
C1856 C 0.82079 0.02976 0.51094 0.0
C1857 C 0.80182 0.00895 0.49513 0.0
H1858 H 0.81043 0.98116 0.51901 0.0
C1859 C 0.80289 0.95516 0.47879 0.0
C1860 C 0.81434 0.94863 0.48238 0.0
C1861 C 0.79968 0.96709 0.48449 0.0
C1862 C 0.80789 0.98879 0.51224 0.0
H1863 H 0.79406 0.05186 0.52555 0.0
H1864 H 0.78848 0.02997 0.51783 0.0
H1865 H 0.81064 0.00367 0.52654 0.0
H1866 H 0.83102 0.9493 0.49523 0.0
H1867 H 0.8255 0.96994 0.50498 0.0
H1868 H 0.79992 0.99424 0.48057 0.0
C1869 C 0.79839 0.03335 0.51703 0.0
C1870 C 0.8079 0.00162 0.5166 0.0
C1871 C 0.80161 0.04583 0.52143 0.0
C1872 C 0.82216 0.95404 0.49216 0.0
C1873 C 0.81893 0.96587 0.49787 0.0
C1874 C 0.80183 0.99609 0.49074 0.0
C1875 C 0.80803 0.02523 0.5119 0.0
C1876 C 0.8052 0.01179 0.50799 0.0
C1877 C 0.80777 0.97266 0.49397 0.0
C1878 C 0.80531 0.98591 0.49914 0.0
H1879 H 0.83403 0.04521 0.51456 0.0
H1880 H 0.82835 0.02357 0.50705 0.0
H1881 H 0.79988 0.01672 0.48832 0.0
H1882 H 0.79662 0.95127 0.47131 0.0
H1883 H 0.79096 0.97204 0.48135 0.0
C1884 C 0.29715 0.07836 0.73923 0.0
C1885 C 0.30295 0.06873 0.7315 0.0
C1886 C 0.28533 0.07611 0.74539 0.0
C1887 C 0.25575 0.0563 0.74369 0.0
H1888 H 0.24969 0.07198 0.77736 0.0
C1889 C 0.20565 0.05689 0.77091 0.0
C1890 C 0.20183 0.06959 0.77418 0.0
C1891 C 0.21829 0.05442 0.76647 0.0
C1892 C 0.25126 0.06747 0.768 0.0
H1893 H 0.3008 0.04905 0.72434 0.0
H1894 H 0.28005 0.0451 0.73523 0.0
H1895 H 0.27155 0.07167 0.76838 0.0
H1896 H 0.20837 0.08957 0.77557 0.0
H1897 H 0.23029 0.08521 0.76813 0.0
H1898 H 0.23528 0.05234 0.74333 0.0
C1899 C 0.28471 0.05444 0.7364 0.0
C1900 C 0.26376 0.06734 0.76281 0.0
C1901 C 0.29663 0.05669 0.73021 0.0
C1902 C 0.21093 0.07969 0.77307 0.0
C1903 C 0.22354 0.07719 0.76889 0.0
C1904 C 0.24321 0.05632 0.74896 0.0
C1905 C 0.27894 0.06415 0.74407 0.0
C1906 C 0.26609 0.06221 0.75039 0.0
C1907 C 0.22736 0.06457 0.76555 0.0
C1908 C 0.2408 0.06232 0.76096 0.0
H1909 H 0.30166 0.08778 0.74046 0.0
H1910 H 0.28106 0.08392 0.75098 0.0
H1911 H 0.2572 0.0523 0.73408 0.0
H1912 H 0.19884 0.04892 0.77163 0.0
H1913 H 0.22103 0.0446 0.76393 0.0
C1914 C 0.18348 0.45288 0.00857 0.0
C1915 C 0.18956 0.44816 0.01982 0.0
C1916 C 0.18663 0.46509 0.00363 0.0
C1917 C 0.19855 0.48962 0.99236 0.0
H1918 H 0.19599 0.51724 0.01778 0.0
C1919 C 0.19782 0.54364 0.97734 0.0
C1920 C 0.18698 0.55031 0.98229 0.0
C1921 C 0.20141 0.53159 0.98249 0.0
C1922 C 0.19686 0.50963 0.01059 0.0
H1923 H 0.20414 0.45235 0.03441 0.0
H1924 H 0.20951 0.47385 0.02584 0.0
H1925 H 0.19653 0.49467 0.02499 0.0
H1926 H 0.17195 0.54994 0.99702 0.0
H1927 H 0.17831 0.52908 0.00604 0.0
H1928 H 0.19829 0.50456 0.97792 0.0
C1929 C 0.20231 0.46803 0.02086 0.0
C1930 C 0.19728 0.49672 0.01471 0.0
C1931 C 0.19928 0.45571 0.02572 0.0
C1932 C 0.1803 0.54503 0.99294 0.0
C1933 C 0.184 0.5331 0.99818 0.0
C1934 C 0.19826 0.50254 0.98824 0.0
C1935 C 0.19584 0.47293 0.0099 0.0
C1936 C 0.19771 0.48656 0.00562 0.0
C1937 C 0.19439 0.5261 0.99281 0.0
C1938 C 0.197 0.51266 0.99729 0.0
H1939 H 0.17601 0.44728 0.00374 0.0
H1940 H 0.18138 0.46864 0.99525 0.0
H1941 H 0.19899 0.48199 0.98514 0.0
H1942 H 0.20315 0.54744 0.96913 0.0
H1943 H 0.20951 0.52643 0.97822 0.0
C1944 C 0.29404 0.93274 0.25993 0.0
C1945 C 0.2993 0.93908 0.2708 0.0
C1946 C 0.28183 0.93614 0.25518 0.0
C1947 C 0.25087 0.94868 0.26638 0.0
H1948 H 0.24248 0.94858 0.2297 0.0
C1949 C 0.20367 0.94952 0.22924 0.0
C1950 C 0.1966 0.93921 0.23472 0.0
C1951 C 0.2158 0.953 0.23429 0.0
C1952 C 0.24465 0.94887 0.23998 0.0
H1953 H 0.296 0.95433 0.28492 0.0
H1954 H 0.27449 0.96017 0.27669 0.0
H1955 H 0.26515 0.94844 0.23655 0.0
H1956 H 0.1963 0.92512 0.25035 0.0
H1957 H 0.2173 0.93126 0.25919 0.0
H1958 H 0.23036 0.94858 0.26981 0.0
C1959 C 0.2799 0.95256 0.27186 0.0
C1960 C 0.25764 0.94868 0.24389 0.0
C1961 C 0.29224 0.94926 0.27652 0.0
C1962 C 0.20152 0.93306 0.24586 0.0
C1963 C 0.21354 0.93664 0.25098 0.0
C1964 C 0.23788 0.94876 0.26247 0.0
C1965 C 0.27449 0.94589 0.26126 0.0
C1966 C 0.26088 0.94822 0.25713 0.0
C1967 C 0.221 0.94636 0.24502 0.0
C1968 C 0.23463 0.94851 0.24922 0.0
H1969 H 0.29924 0.92489 0.25524 0.0
H1970 H 0.27788 0.93073 0.24708 0.0
H1971 H 0.25305 0.94826 0.27665 0.0
H1972 H 0.20017 0.95444 0.22064 0.0
H1973 H 0.22129 0.9606 0.22956 0.0
C1974 C 0.68262 0.94966 0.00264 0.0
C1975 C 0.68815 0.94599 0.01455 0.0
C1976 C 0.68455 0.96209 0.99769 0.0
C1977 C 0.67997 0.99077 0.99671 0.0
H1978 H 0.71112 0.01185 0.99783 0.0
C1979 C 0.67675 0.04556 0.99094 0.0
C1980 C 0.68508 0.05135 0.98182 0.0
C1981 C 0.6789 0.03291 0.9952 0.0
C1982 C 0.70238 0.00603 0.99741 0.0
H1983 H 0.70087 0.9522 0.03011 0.0
H1984 H 0.70408 0.97412 0.02151 0.0
H1985 H 0.71222 0.98876 0.00375 0.0
H1986 H 0.7027 0.04857 0.97064 0.0
H1987 H 0.70641 0.0263 0.97811 0.0
H1988 H 0.67008 0.00784 0.99043 0.0
C1989 C 0.69832 0.96729 0.01598 0.0
C1990 C 0.70299 0.99287 0.00087 0.0
C1991 C 0.69646 0.95474 0.02091 0.0
C1992 C 0.69606 0.04439 0.97763 0.0
C1993 C 0.69821 0.03165 0.98192 0.0
C1994 C 0.67935 0.00385 0.99336 0.0
C1995 C 0.69195 0.97124 0.00456 0.0
C1996 C 0.69176 0.9851 0.00054 0.0
C1997 C 0.68942 0.02567 0.99047 0.0
C1998 C 0.69049 0.01167 0.99377 0.0
H1999 H 0.67634 0.94307 0.99738 0.0
H2000 H 0.67978 0.96472 0.98869 0.0
H2001 H 0.67109 0.98516 0.99655 0.0
H2002 H 0.66831 0.05066 0.99456 0.0
H2003 H 0.67211 0.02867 0.00202 0.0
C2004 C 0.29384 0.44801 0.76843 0.0
C2005 C 0.30079 0.43686 0.76469 0.0
C2006 C 0.28176 0.45082 0.7628 0.0
C2007 C 0.26043 0.44152 0.73496 0.0
H2008 H 0.23216 0.45026 0.7582 0.0
C2009 C 0.20803 0.42533 0.7274 0.0
C2010 C 0.19853 0.43507 0.72647 0.0
C2011 C 0.2206 0.42833 0.73139 0.0
C2012 C 0.24002 0.44805 0.75158 0.0
H2013 H 0.30063 0.42023 0.75174 0.0
H2014 H 0.27977 0.42495 0.74226 0.0
H2015 H 0.25455 0.45075 0.7662 0.0
H2016 H 0.19472 0.45558 0.72926 0.0
H2017 H 0.21681 0.46073 0.73674 0.0
H2018 H 0.2458 0.43792 0.72064 0.0
C2019 C 0.28361 0.43168 0.74935 0.0
C2020 C 0.25283 0.44836 0.75611 0.0
C2021 C 0.29559 0.42889 0.75492 0.0
C2022 C 0.20185 0.44788 0.72985 0.0
C2023 C 0.21443 0.45083 0.73415 0.0
C2024 C 0.24766 0.44102 0.73051 0.0
C2025 C 0.27644 0.44258 0.75329 0.0
C2026 C 0.26316 0.44465 0.74797 0.0
C2027 C 0.22391 0.44108 0.73478 0.0
C2028 C 0.23734 0.44392 0.73888 0.0
H2029 H 0.29756 0.45438 0.77591 0.0
H2030 H 0.27654 0.45936 0.76599 0.0
H2031 H 0.26815 0.43894 0.72831 0.0
H2032 H 0.20583 0.41539 0.72479 0.0
H2033 H 0.22775 0.42065 0.73189 0.0
C2034 C 0.70822 0.05223 0.27288 0.0
C2035 C 0.70118 0.06253 0.26735 0.0
C2036 C 0.72032 0.04867 0.26782 0.0
C2037 C 0.742 0.05236 0.23928 0.0
H2038 H 0.76975 0.05243 0.26467 0.0
C2039 C 0.79821 0.06801 0.24074 0.0
C2040 C 0.80331 0.06156 0.22986 0.0
C2041 C 0.78606 0.06467 0.24568 0.0
C2042 C 0.76209 0.05226 0.25747 0.0
H2043 H 0.70095 0.07658 0.25167 0.0
H2044 H 0.7219 0.07032 0.24284 0.0
H2045 H 0.74721 0.05266 0.27195 0.0
H2046 H 0.7998 0.04621 0.21589 0.0
H2047 H 0.77836 0.04051 0.22445 0.0
H2048 H 0.75691 0.05258 0.2248 0.0
C2049 C 0.71813 0.06501 0.25109 0.0
C2050 C 0.74919 0.05227 0.26164 0.0
C2051 C 0.70615 0.06867 0.25623 0.0
C2052 C 0.79615 0.05136 0.22429 0.0
C2053 C 0.78386 0.04814 0.22914 0.0
C2054 C 0.75491 0.05223 0.23511 0.0
C2055 C 0.7255 0.05519 0.25701 0.0
C2056 C 0.739 0.05276 0.25258 0.0
C2057 C 0.77863 0.05489 0.23978 0.0
C2058 C 0.76509 0.05262 0.24417 0.0
H2059 H 0.70466 0.04731 0.28145 0.0
H2060 H 0.72576 0.04101 0.27253 0.0
H2061 H 0.73434 0.05261 0.23208 0.0
H2062 H 0.8035 0.07585 0.24531 0.0
H2063 H 0.78225 0.07016 0.25379 0.0
C2064 C 0.93329 0.75551 0.79669 0.0
C2065 C 0.93891 0.76701 0.8014 0.0
C2066 C 0.9364 0.75086 0.78436 0.0
C2067 C 0.94827 0.74038 0.75947 0.0
H2068 H 0.94452 0.76592 0.73211 0.0
C2069 C 0.94865 0.72595 0.70526 0.0
C2070 C 0.9379 0.73069 0.6983 0.0
C2071 C 0.9517 0.73099 0.7175 0.0
C2072 C 0.94569 0.75869 0.73964 0.0
H2073 H 0.95264 0.78235 0.79704 0.0
H2074 H 0.95796 0.77425 0.77534 0.0
H2075 H 0.94484 0.77294 0.75474 0.0
H2076 H 0.9224 0.74494 0.69846 0.0
H2077 H 0.92778 0.75373 0.71969 0.0
H2078 H 0.94857 0.72608 0.7444 0.0
C2079 C 0.95114 0.76887 0.78125 0.0
C2080 C 0.946 0.76272 0.7526 0.0
C2081 C 0.94815 0.77345 0.7937 0.0
C2082 C 0.9307 0.741 0.70357 0.0
C2083 C 0.93384 0.74612 0.71572 0.0
C2084 C 0.94807 0.73636 0.74651 0.0
C2085 C 0.9451 0.75765 0.77637 0.0
C2086 C 0.94692 0.75357 0.76266 0.0
C2087 C 0.9442 0.741 0.72294 0.0
C2088 C 0.94641 0.74545 0.73648 0.0
H2089 H 0.9262 0.75027 0.80239 0.0
H2090 H 0.93149 0.74226 0.78084 0.0
H2091 H 0.94909 0.73311 0.76702 0.0
H2092 H 0.9544 0.71801 0.70148 0.0
H2093 H 0.9598 0.72691 0.72281 0.0
C2094 C 0.0511 0.7281 0.29442 0.0
C2095 C 0.0606 0.73367 0.3025 0.0
C2096 C 0.04908 0.73289 0.28184 0.0
C2097 C 0.06814 0.74871 0.25666 0.0
H2098 H 0.03576 0.75237 0.23784 0.0
C2099 C 0.05216 0.77066 0.20447 0.0
C2100 C 0.06192 0.76489 0.19687 0.0
C2101 C 0.04987 0.76635 0.21718 0.0
C2102 C 0.04485 0.7514 0.24302 0.0
H2103 H 0.07449 0.74941 0.30414 0.0
H2104 H 0.07089 0.75775 0.28239 0.0
H2105 H 0.03542 0.74694 0.26109 0.0
H2106 H 0.07607 0.74929 0.19623 0.0
H2107 H 0.07202 0.74181 0.2182 0.0
H2108 H 0.07763 0.7531 0.23879 0.0
C2109 C 0.06524 0.7495 0.28562 0.0
C2110 C 0.04466 0.74825 0.25627 0.0
C2111 C 0.06727 0.74473 0.29811 0.0
C2112 C 0.06864 0.75413 0.20188 0.0
C2113 C 0.06635 0.74984 0.21449 0.0
C2114 C 0.06833 0.75171 0.24349 0.0
C2115 C 0.05651 0.74333 0.27717 0.0
C2116 C 0.05633 0.74693 0.26322 0.0
C2117 C 0.05731 0.75621 0.22245 0.0
C2118 C 0.05672 0.75303 0.23649 0.0
H2119 H 0.04576 0.71959 0.29751 0.0
H2120 H 0.04229 0.72793 0.27554 0.0
H2121 H 0.07731 0.74758 0.26167 0.0
H2122 H 0.04679 0.77895 0.2009 0.0
H2123 H 0.04284 0.77143 0.22311 0.0
C2124 C 0.57407 0.75861 0.70577 0.0
C2125 C 0.567 0.76892 0.70032 0.0
C2126 C 0.57099 0.75385 0.71807 0.0
C2127 C 0.55736 0.76422 0.74888 0.0
H2128 H 0.55858 0.72751 0.75708 0.0
C2129 C 0.55404 0.72722 0.79593 0.0
C2130 C 0.56352 0.73295 0.80391 0.0
C2131 C 0.55176 0.732 0.78342 0.0
C2132 C 0.55801 0.73778 0.75494 0.0
H2133 H 0.55087 0.78208 0.70342 0.0
H2134 H 0.5456 0.77384 0.72508 0.0
H2135 H 0.55939 0.73452 0.73445 0.0
H2136 H 0.57748 0.74865 0.80527 0.0
H2137 H 0.57338 0.75704 0.78356 0.0
H2138 H 0.55646 0.76749 0.7694 0.0
C2139 C 0.55353 0.76946 0.71975 0.0
C2140 C 0.55859 0.74179 0.742 0.0
C2141 C 0.55651 0.77412 0.70734 0.0
C2142 C 0.57016 0.74396 0.79936 0.0
C2143 C 0.56775 0.74883 0.78694 0.0
C2144 C 0.55693 0.76021 0.76184 0.0
C2145 C 0.56084 0.75936 0.72529 0.0
C2146 C 0.55853 0.75506 0.73885 0.0
C2147 C 0.55875 0.74273 0.77873 0.0
C2148 C 0.55751 0.74696 0.76501 0.0
H2149 H 0.58217 0.75432 0.70062 0.0
H2150 H 0.57689 0.74616 0.72213 0.0
H2151 H 0.55739 0.77451 0.74675 0.0
H2152 H 0.54877 0.71871 0.79913 0.0
H2153 H 0.5447 0.72716 0.77733 0.0
C2154 C 0.43681 0.74257 0.20508 0.0
C2155 C 0.44259 0.73118 0.2003 0.0
C2156 C 0.44025 0.74749 0.21721 0.0
C2157 C 0.45224 0.7586 0.24166 0.0
H2158 H 0.45016 0.73304 0.26918 0.0
C2159 C 0.45054 0.77364 0.29563 0.0
C2160 C 0.43999 0.76816 0.30233 0.0
C2161 C 0.4544 0.76864 0.28359 0.0
C2162 C 0.45088 0.74029 0.2616 0.0
H2163 H 0.457 0.71637 0.20427 0.0
H2164 H 0.46293 0.72495 0.22563 0.0
H2165 H 0.45071 0.72593 0.2466 0.0
H2166 H 0.42576 0.75264 0.302 0.0
H2167 H 0.43249 0.74396 0.28115 0.0
H2168 H 0.45171 0.77298 0.25663 0.0
C2169 C 0.45571 0.73003 0.21993 0.0
C2170 C 0.45133 0.73621 0.24867 0.0
C2171 C 0.45237 0.72516 0.20768 0.0
C2172 C 0.43386 0.75717 0.29707 0.0
C2173 C 0.4378 0.75211 0.28515 0.0
C2174 C 0.45187 0.76268 0.25459 0.0
C2175 C 0.44949 0.7411 0.22492 0.0
C2176 C 0.45155 0.74534 0.23855 0.0
C2177 C 0.44791 0.75796 0.27812 0.0
C2178 C 0.45074 0.75357 0.26468 0.0
H2179 H 0.42931 0.74749 0.19961 0.0
H2180 H 0.43517 0.75595 0.22081 0.0
H2181 H 0.45255 0.76586 0.23406 0.0
H2182 H 0.45548 0.78211 0.29941 0.0
H2183 H 0.46229 0.7733 0.27843 0.0
C2184 C 0.25781 0.70347 0.06566 0.0
C2185 C 0.26899 0.69851 0.05962 0.0
C2186 C 0.25286 0.71558 0.06216 0.0
C2187 C 0.26398 0.74678 0.04989 0.0
H2188 H 0.22728 0.75505 0.05064 0.0
C2189 C 0.22696 0.79411 0.04997 0.0
C2190 C 0.23294 0.80129 0.05992 0.0
C2191 C 0.23169 0.78184 0.04653 0.0
C2192 C 0.23756 0.75292 0.05017 0.0
H2193 H 0.28336 0.70217 0.04468 0.0
H2194 H 0.27472 0.72344 0.03863 0.0
H2195 H 0.2342 0.7324 0.05038 0.0
H2196 H 0.24904 0.80153 0.07348 0.0
H2197 H 0.25726 0.78027 0.06747 0.0
H2198 H 0.26734 0.76729 0.0501 0.0
C2199 C 0.26984 0.71791 0.04612 0.0
C2200 C 0.24152 0.73994 0.05014 0.0
C2201 C 0.27474 0.7057 0.04953 0.0
C2202 C 0.24414 0.79624 0.06584 0.0
C2203 C 0.24893 0.78407 0.06231 0.0
C2204 C 0.26002 0.75976 0.04999 0.0
C2205 C 0.25901 0.7231 0.0526 0.0
C2206 C 0.25478 0.73672 0.05038 0.0
C2207 C 0.24259 0.77659 0.05284 0.0
C2208 C 0.24677 0.76297 0.05051 0.0
H2209 H 0.25309 0.69818 0.07341 0.0
H2210 H 0.24459 0.71933 0.06745 0.0
H2211 H 0.27426 0.74465 0.05015 0.0
H2212 H 0.21832 0.79772 0.04521 0.0
H2213 H 0.22666 0.77633 0.03912 0.0
C2214 C 0.77426 0.70701 0.55416 0.0
C2215 C 0.76907 0.70028 0.56484 0.0
C2216 C 0.76966 0.71938 0.55091 0.0
C2217 C 0.74219 0.74197 0.55579 0.0
H2218 H 0.76807 0.76908 0.55264 0.0
C2219 C 0.74525 0.79922 0.56709 0.0
C2220 C 0.73394 0.80382 0.56102 0.0
C2221 C 0.74999 0.78683 0.56437 0.0
C2222 C 0.76073 0.7616 0.55339 0.0
H2223 H 0.75459 0.70106 0.58011 0.0
H2224 H 0.74656 0.72249 0.57438 0.0
H2225 H 0.77491 0.7464 0.55383 0.0
H2226 H 0.71905 0.79919 0.54688 0.0
H2227 H 0.7273 0.77741 0.54224 0.0
H2228 H 0.72804 0.75717 0.55587 0.0
C2229 C 0.75418 0.71824 0.56852 0.0
C2230 C 0.76464 0.74862 0.55397 0.0
C2231 C 0.75886 0.70598 0.57187 0.0
C2232 C 0.7278 0.79595 0.55171 0.0
C2233 C 0.73247 0.78345 0.54911 0.0
C2234 C 0.73828 0.75493 0.55509 0.0
C2235 C 0.75965 0.72516 0.55815 0.0
C2236 C 0.75542 0.73869 0.55555 0.0
C2237 C 0.74347 0.77868 0.55561 0.0
C2238 C 0.74753 0.76491 0.55425 0.0
H2239 H 0.78214 0.7029 0.54855 0.0
H2240 H 0.77402 0.72448 0.54282 0.0
H2241 H 0.73486 0.73451 0.55688 0.0
H2242 H 0.75026 0.80506 0.57425 0.0
H2243 H 0.75842 0.7834 0.56963 0.0
C2244 C 0.22539 0.70603 0.44888 0.0
C2245 C 0.23081 0.69913 0.43842 0.0
C2246 C 0.23023 0.71827 0.4523 0.0
C2247 C 0.25822 0.7405 0.4479 0.0
H2248 H 0.23244 0.76785 0.44937 0.0
C2249 C 0.25557 0.79737 0.43439 0.0
C2250 C 0.26682 0.80216 0.44044 0.0
C2251 C 0.25077 0.78508 0.43746 0.0
C2252 C 0.23975 0.76031 0.44909 0.0
H2253 H 0.24603 0.69935 0.42388 0.0
H2254 H 0.25446 0.72053 0.42988 0.0
H2255 H 0.22549 0.7452 0.4488 0.0
H2256 H 0.28152 0.79796 0.45491 0.0
H2257 H 0.27317 0.77637 0.46017 0.0
H2258 H 0.27246 0.75562 0.44759 0.0
C2259 C 0.24649 0.71654 0.43544 0.0
C2260 C 0.23578 0.74733 0.44888 0.0
C2261 C 0.24158 0.70442 0.43193 0.0
C2262 C 0.27284 0.79457 0.45006 0.0
C2263 C 0.26811 0.78218 0.45303 0.0
C2264 C 0.26219 0.75347 0.44821 0.0
C2265 C 0.24069 0.72375 0.44545 0.0
C2266 C 0.24496 0.7373 0.44789 0.0
C2267 C 0.25716 0.77721 0.44658 0.0
C2268 C 0.25299 0.76353 0.44842 0.0
H2269 H 0.21708 0.70223 0.45406 0.0
H2270 H 0.22563 0.72357 0.46011 0.0
H2271 H 0.26553 0.73298 0.44726 0.0
H2272 H 0.25064 0.80298 0.427 0.0
H2273 H 0.24239 0.7815 0.43222 0.0
C2274 C 0.72957 0.70436 0.94552 0.0
C2275 C 0.73011 0.69875 0.93307 0.0
C2276 C 0.73518 0.71654 0.94787 0.0
C2277 C 0.75867 0.74001 0.93361 0.0
H2278 H 0.73934 0.76602 0.95276 0.0
C2279 C 0.76222 0.79417 0.92384 0.0
C2280 C 0.76785 0.80169 0.93375 0.0
C2281 C 0.75814 0.78152 0.92625 0.0
C2282 C 0.74492 0.75876 0.9476 0.0
H2283 H 0.73703 0.70165 0.91337 0.0
H2284 H 0.74648 0.72272 0.91739 0.0
H2285 H 0.73152 0.74353 0.95221 0.0
H2286 H 0.77304 0.80191 0.95416 0.0
H2287 H 0.76552 0.77964 0.9584 0.0
H2288 H 0.77157 0.75541 0.92833 0.0
C2289 C 0.74201 0.71766 0.92544 0.0
C2290 C 0.74049 0.7459 0.94729 0.0
C2291 C 0.73647 0.70556 0.92311 0.0
C2292 C 0.76878 0.79637 0.94631 0.0
C2293 C 0.76448 0.78368 0.94876 0.0
C2294 C 0.76298 0.75282 0.93381 0.0
C2295 C 0.74146 0.72333 0.93783 0.0
C2296 C 0.7471 0.73647 0.93993 0.0
C2297 C 0.75939 0.77612 0.93865 0.0
C2298 C 0.75598 0.76235 0.94052 0.0
H2299 H 0.72477 0.69939 0.95343 0.0
H2300 H 0.73464 0.72059 0.95754 0.0
H2301 H 0.76418 0.73294 0.92813 0.0
H2302 H 0.76134 0.79786 0.91404 0.0
H2303 H 0.75419 0.77584 0.91833 0.0
C2304 C 0.32764 0.54314 0.51508 0.0
C2305 C 0.31755 0.55141 0.51909 0.0
C2306 C 0.32502 0.53047 0.51115 0.0
C2307 C 0.30423 0.50874 0.49564 0.0
H2308 H 0.3187 0.48212 0.51796 0.0
C2309 C 0.30499 0.45438 0.48063 0.0
C2310 C 0.31693 0.44811 0.48282 0.0
C2311 C 0.30244 0.46654 0.48621 0.0
C2312 C 0.31462 0.4894 0.51159 0.0
H2313 H 0.2967 0.55294 0.52161 0.0
H2314 H 0.29213 0.53067 0.51432 0.0
H2315 H 0.31921 0.50476 0.52483 0.0
H2316 H 0.33533 0.44961 0.49299 0.0
H2317 H 0.33102 0.47062 0.50239 0.0
H2318 H 0.30043 0.49354 0.48196 0.0
C2319 C 0.30205 0.53412 0.51444 0.0
C2320 C 0.31482 0.50233 0.51559 0.0
C2321 C 0.30469 0.54681 0.51861 0.0
C2322 C 0.32603 0.45409 0.49105 0.0
C2323 C 0.3235 0.46616 0.49657 0.0
C2324 C 0.30418 0.49577 0.49152 0.0
C2325 C 0.31225 0.52582 0.51092 0.0
C2326 C 0.30993 0.51211 0.50752 0.0
C2327 C 0.31175 0.47264 0.49413 0.0
C2328 C 0.30975 0.486 0.49929 0.0
H2329 H 0.33766 0.54629 0.51536 0.0
H2330 H 0.33301 0.5242 0.50843 0.0
H2331 H 0.30049 0.51619 0.48924 0.0
H2332 H 0.29774 0.45007 0.47437 0.0
H2333 H 0.29324 0.4712 0.48423 0.0
C2334 C 0.79858 0.45624 0.97747 0.0
C2335 C 0.80871 0.44923 0.98334 0.0
C2336 C 0.79497 0.46844 0.98227 0.0
C2337 C 0.79844 0.49063 0.01049 0.0
H2338 H 0.79899 0.51786 0.98455 0.0
C2339 C 0.81521 0.54645 0.00797 0.0
C2340 C 0.80925 0.55166 0.01908 0.0
C2341 C 0.81141 0.5344 0.00311 0.0
C2342 C 0.79868 0.51036 0.9919 0.0
H2343 H 0.82238 0.44916 0.99935 0.0
H2344 H 0.81606 0.47027 0.0077 0.0
H2345 H 0.79898 0.49519 0.97773 0.0
H2346 H 0.79418 0.54854 0.03343 0.0
H2347 H 0.78762 0.52733 0.02497 0.0
H2348 H 0.79885 0.50581 0.02467 0.0
C2349 C 0.8109 0.46641 0.9994 0.0
C2350 C 0.79856 0.49737 0.988 0.0
C2351 C 0.8146 0.45433 0.99454 0.0
C2352 C 0.79897 0.54479 0.02486 0.0
C2353 C 0.79526 0.53263 0.02007 0.0
C2354 C 0.79849 0.50363 0.0144 0.0
C2355 C 0.80128 0.47376 0.99313 0.0
C2356 C 0.79889 0.48737 0.99726 0.0
C2357 C 0.80162 0.5272 0.00928 0.0
C2358 C 0.79907 0.51362 0.00514 0.0
H2359 H 0.79385 0.45259 0.96883 0.0
H2360 H 0.78746 0.47385 0.97729 0.0
H2361 H 0.79856 0.48313 0.01785 0.0
H2362 H 0.8231 0.55151 0.00322 0.0
H2363 H 0.81661 0.53045 0.99488 0.0
C2364 C 0.29533 0.55047 0.2271 0.0
C2365 C 0.30232 0.56067 0.23286 0.0
C2366 C 0.28293 0.54719 0.23161 0.0
C2367 C 0.26003 0.55171 0.2591 0.0
H2368 H 0.23347 0.5508 0.23247 0.0
C2369 C 0.20369 0.56667 0.25453 0.0
C2370 C 0.19837 0.56089 0.26568 0.0
C2371 C 0.21602 0.56319 0.25015 0.0
C2372 C 0.24078 0.55092 0.24002 0.0
H2373 H 0.30207 0.57489 0.2484 0.0
H2374 H 0.28058 0.56917 0.25623 0.0
H2375 H 0.25631 0.55097 0.22624 0.0
H2376 H 0.20165 0.54647 0.28065 0.0
H2377 H 0.22333 0.54047 0.27303 0.0
H2378 H 0.24448 0.55231 0.27287 0.0
C2379 C 0.28463 0.56368 0.24823 0.0
C2380 C 0.25387 0.55091 0.23646 0.0
C2381 C 0.29693 0.56704 0.24366 0.0
C2382 C 0.20546 0.55111 0.27203 0.0
C2383 C 0.21791 0.54772 0.26772 0.0
C2384 C 0.24694 0.55165 0.26267 0.0
C2385 C 0.27736 0.55393 0.24208 0.0
C2386 C 0.26364 0.55171 0.24594 0.0
C2387 C 0.22341 0.55391 0.25687 0.0
C2388 C 0.23717 0.55167 0.25315 0.0
H2389 H 0.29919 0.54535 0.21877 0.0
H2390 H 0.2776 0.53956 0.22674 0.0
H2391 H 0.26733 0.55219 0.26664 0.0
H2392 H 0.19847 0.57418 0.24935 0.0
H2393 H 0.22001 0.56825 0.24185 0.0
C2394 C 0.17551 0.95956 0.52003 0.0
C2395 C 0.18536 0.9503 0.52183 0.0
C2396 C 0.17852 0.97218 0.51624 0.0
C2397 C 0.19886 0.99222 0.49764 0.0
H2398 H 0.18783 0.0199 0.52061 0.0
C2399 C 0.19805 0.04617 0.48118 0.0
C2400 C 0.18653 0.05277 0.48439 0.0
C2401 C 0.20094 0.03413 0.48685 0.0
C2402 C 0.19096 0.01231 0.51405 0.0
H2403 H 0.20612 0.947 0.5208 0.0
H2404 H 0.21134 0.96922 0.51368 0.0
H2405 H 0.1871 0.99747 0.52808 0.0
H2406 H 0.16927 0.05199 0.49647 0.0
H2407 H 0.17413 0.03118 0.50603 0.0
H2408 H 0.20181 0.00693 0.48325 0.0
C2409 C 0.20132 0.96658 0.51543 0.0
C2410 C 0.19064 0.9995 0.51839 0.0
C2411 C 0.19833 0.95393 0.51951 0.0
C2412 C 0.17823 0.04724 0.4937 0.0
C2413 C 0.18109 0.03529 0.49932 0.0
C2414 C 0.19901 0.00507 0.4932 0.0
C2415 C 0.19142 0.97581 0.51393 0.0
C2416 C 0.19422 0.98933 0.51011 0.0
C2417 C 0.19239 0.02848 0.49589 0.0
C2418 C 0.19461 0.01523 0.50122 0.0
H2419 H 0.16544 0.95715 0.52181 0.0
H2420 H 0.17073 0.97915 0.51507 0.0
H2421 H 0.20158 0.98448 0.49107 0.0
H2422 H 0.20468 0.05014 0.47406 0.0
H2423 H 0.20978 0.02919 0.48405 0.0
C2424 C 0.69742 0.54713 0.48116 0.0
C2425 C 0.68548 0.55322 0.4838 0.0
C2426 C 0.70052 0.53521 0.48693 0.0
C2427 C 0.69032 0.5127 0.51341 0.0
H2428 H 0.70266 0.48564 0.49035 0.0
C2429 C 0.67635 0.45909 0.51568 0.0
C2430 C 0.68609 0.45072 0.52032 0.0
C2431 C 0.6793 0.47174 0.51198 0.0
C2432 C 0.69948 0.49318 0.49695 0.0
H2433 H 0.6677 0.55171 0.495 0.0
H2434 H 0.67299 0.53107 0.50481 0.0
H2435 H 0.70232 0.50821 0.48289 0.0
H2436 H 0.7067 0.44908 0.52434 0.0
H2437 H 0.71188 0.47138 0.51749 0.0
H2438 H 0.68661 0.49746 0.52709 0.0
C2439 C 0.68007 0.5355 0.49844 0.0
C2440 C 0.6993 0.50609 0.49272 0.0
C2441 C 0.67697 0.54735 0.49269 0.0
C2442 C 0.69897 0.45528 0.52082 0.0
C2443 C 0.70196 0.46798 0.51692 0.0
C2444 C 0.69041 0.49981 0.51757 0.0
C2445 C 0.69179 0.52917 0.49551 0.0
C2446 C 0.69428 0.51594 0.50076 0.0
C2447 C 0.69207 0.4763 0.51265 0.0
C2448 C 0.69466 0.48994 0.50925 0.0
H2449 H 0.70424 0.55139 0.47439 0.0
H2450 H 0.70968 0.53065 0.48456 0.0
H2451 H 0.68664 0.52006 0.51994 0.0
H2452 H 0.66631 0.456 0.51522 0.0
H2453 H 0.67156 0.47805 0.5087 0.0
C2454 C 0.70618 0.57165 0.76094 0.0
C2455 C 0.70068 0.56441 0.77112 0.0
C2456 C 0.71832 0.5684 0.75593 0.0
C2457 C 0.74893 0.55366 0.76534 0.0
H2458 H 0.75651 0.55605 0.72856 0.0
C2459 C 0.79525 0.55169 0.72723 0.0
C2460 C 0.80332 0.56091 0.73324 0.0
C2461 C 0.78287 0.5491 0.7322 0.0
C2462 C 0.75454 0.55514 0.73884 0.0
H2463 H 0.70356 0.54786 0.7838 0.0
H2464 H 0.72497 0.5423 0.77511 0.0
H2465 H 0.73404 0.557 0.736 0.0
H2466 H 0.80504 0.57401 0.74962 0.0
H2467 H 0.78358 0.5694 0.75832 0.0
H2468 H 0.76949 0.55227 0.76821 0.0
C2469 C 0.71979 0.55048 0.77103 0.0
C2470 C 0.74169 0.55579 0.7431 0.0
C2471 C 0.70751 0.55363 0.77595 0.0
C2472 C 0.79904 0.56691 0.74471 0.0
C2473 C 0.78677 0.5642 0.74976 0.0
C2474 C 0.76181 0.55313 0.76108 0.0
C2475 C 0.72536 0.55791 0.76104 0.0
C2476 C 0.73877 0.55537 0.75642 0.0
C2477 C 0.77842 0.55552 0.74339 0.0
C2478 C 0.76477 0.55415 0.74781 0.0
H2479 H 0.70117 0.57997 0.75694 0.0
H2480 H 0.72241 0.57441 0.74834 0.0
H2481 H 0.74699 0.55338 0.77567 0.0
H2482 H 0.79825 0.5469 0.71837 0.0
H2483 H 0.77667 0.54229 0.72714 0.0
C2484 C 0.52379 0.30202 0.54315 0.0
C2485 C 0.51831 0.3123 0.55027 0.0
C2486 C 0.51873 0.29859 0.53101 0.0
C2487 C 0.49026 0.30265 0.50931 0.0
H2488 H 0.51572 0.30269 0.48161 0.0
C2489 C 0.49199 0.31823 0.45302 0.0
C2490 C 0.48112 0.31179 0.44789 0.0
C2491 C 0.49683 0.31495 0.46522 0.0
C2492 C 0.5085 0.30253 0.48925 0.0
H2493 H 0.50274 0.32645 0.5506 0.0
H2494 H 0.49391 0.32042 0.52957 0.0
H2495 H 0.52295 0.30277 0.50417 0.0
H2496 H 0.46707 0.29653 0.45141 0.0
H2497 H 0.47547 0.29093 0.47294 0.0
H2498 H 0.47582 0.30301 0.49437 0.0
C2499 C 0.50211 0.31503 0.53331 0.0
C2500 C 0.51264 0.30246 0.50217 0.0
C2501 C 0.50725 0.31855 0.54533 0.0
C2502 C 0.47546 0.30167 0.45509 0.0
C2503 C 0.48022 0.2985 0.46743 0.0
C2504 C 0.48613 0.3026 0.49639 0.0
C2505 C 0.50798 0.30524 0.52586 0.0
C2506 C 0.50356 0.30294 0.51233 0.0
C2507 C 0.49087 0.30523 0.47268 0.0
C2508 C 0.49521 0.30297 0.48623 0.0
H2509 H 0.53232 0.29701 0.54669 0.0
H2510 H 0.5234 0.29095 0.52551 0.0
H2511 H 0.48305 0.3029 0.51695 0.0
H2512 H 0.49663 0.32602 0.4477 0.0
H2513 H 0.50495 0.32042 0.46905 0.0
C2514 C 0.5243 0.20063 0.95629 0.0
C2515 C 0.51893 0.19017 0.94935 0.0
C2516 C 0.51947 0.20395 0.96856 0.0
C2517 C 0.49184 0.19932 0.99111 0.0
H2518 H 0.51812 0.19938 0.01804 0.0
C2519 C 0.4948 0.18332 0.04712 0.0
C2520 C 0.48382 0.1895 0.05234 0.0
C2521 C 0.49964 0.18694 0.03499 0.0
C2522 C 0.51068 0.19952 0.01063 0.0
H2523 H 0.50372 0.17562 0.94944 0.0
H2524 H 0.49523 0.18154 0.97067 0.0
H2525 H 0.52466 0.19946 0.99525 0.0
H2526 H 0.46968 0.20476 0.04917 0.0
H2527 H 0.47808 0.21097 0.02784 0.0
H2528 H 0.47787 0.19882 0.00648 0.0
C2529 C 0.50319 0.18713 0.9667 0.0
C2530 C 0.51441 0.19967 0.99758 0.0
C2531 C 0.50812 0.18369 0.95456 0.0
C2532 C 0.47818 0.19983 0.04544 0.0
C2533 C 0.48293 0.20333 0.03319 0.0
C2534 C 0.4881 0.19931 0.00416 0.0
C2535 C 0.50905 0.19704 0.97401 0.0
C2536 C 0.50503 0.19917 0.98769 0.0
C2537 C 0.49353 0.19672 0.02772 0.0
C2538 C 0.49749 0.19901 0.01405 0.0
H2539 H 0.53265 0.20579 0.95257 0.0
H2540 H 0.52412 0.21169 0.97394 0.0
H2541 H 0.4844 0.19902 0.9837 0.0
H2542 H 0.4994 0.17536 0.05221 0.0
H2543 H 0.50776 0.18158 0.03101 0.0
C2544 C 0.51961 0.69589 0.45571 0.0
C2545 C 0.51723 0.68402 0.44938 0.0
C2546 C 0.51384 0.69858 0.46775 0.0
C2547 C 0.487 0.68751 0.48925 0.0
H2548 H 0.5085 0.70001 0.51749 0.0
C2549 C 0.47875 0.67335 0.54192 0.0
C2550 C 0.47754 0.68326 0.55121 0.0
C2551 C 0.48276 0.67616 0.52933 0.0
C2552 C 0.50233 0.69674 0.50963 0.0
H2553 H 0.50673 0.66578 0.45077 0.0
H2554 H 0.49696 0.67036 0.47154 0.0
H2555 H 0.517 0.70012 0.49525 0.0
H2556 H 0.47982 0.7039 0.5546 0.0
H2557 H 0.48728 0.70876 0.53243 0.0
H2558 H 0.47268 0.68336 0.50372 0.0
C2559 C 0.50308 0.67772 0.4672 0.0
C2560 C 0.50716 0.69683 0.49691 0.0
C2561 C 0.50881 0.67504 0.45527 0.0
C2562 C 0.48063 0.69607 0.54764 0.0
C2563 C 0.48492 0.69886 0.53501 0.0
C2564 C 0.48226 0.6873 0.50192 0.0
C2565 C 0.50551 0.68949 0.47363 0.0
C2566 C 0.4997 0.69175 0.48665 0.0
C2567 C 0.48585 0.68891 0.52574 0.0
C2568 C 0.49003 0.69152 0.51226 0.0
H2569 H 0.52604 0.70303 0.45145 0.0
H2570 H 0.51588 0.70775 0.47245 0.0
H2571 H 0.48087 0.68385 0.48154 0.0
H2572 H 0.47639 0.66339 0.54431 0.0
H2573 H 0.48352 0.66832 0.52237 0.0
C2574 C 0.47527 0.79951 0.95701 0.0
C2575 C 0.48082 0.80985 0.95004 0.0
C2576 C 0.48019 0.79598 0.96918 0.0
C2577 C 0.50851 0.79989 0.99113 0.0
H2578 H 0.48293 0.79899 0.0187 0.0
C2579 C 0.5064 0.81439 0.0477 0.0
C2580 C 0.51768 0.80843 0.05251 0.0
C2581 C 0.50147 0.81105 0.03554 0.0
C2582 C 0.49019 0.7991 0.0111 0.0
H2583 H 0.49637 0.82405 0.95006 0.0
H2584 H 0.50494 0.81786 0.97113 0.0
H2585 H 0.47581 0.79948 0.99611 0.0
H2586 H 0.5323 0.79383 0.04852 0.0
H2587 H 0.52371 0.78808 0.02714 0.0
H2588 H 0.52288 0.80016 0.00613 0.0
C2589 C 0.49679 0.81247 0.96725 0.0
C2590 C 0.48611 0.79926 0.99816 0.0
C2591 C 0.4918 0.81609 0.95519 0.0
C2592 C 0.52359 0.79861 0.0451 0.0
C2593 C 0.51872 0.79536 0.03283 0.0
C2594 C 0.51259 0.79964 0.00407 0.0
C2595 C 0.49087 0.80258 0.97452 0.0
C2596 C 0.49523 0.80008 0.98804 0.0
C2597 C 0.50774 0.80174 0.02782 0.0
C2598 C 0.50346 0.79966 0.0142 0.0
H2599 H 0.4668 0.79451 0.95332 0.0
H2600 H 0.47548 0.78826 0.97454 0.0
H2601 H 0.51576 0.80038 0.98354 0.0
H2602 H 0.50155 0.82194 0.05318 0.0
H2603 H 0.49308 0.81624 0.03193 0.0
C2604 C 0.4541 0.99446 0.81876 0.0
C2605 C 0.44911 0.98329 0.81272 0.0
C2606 C 0.46649 0.99901 0.81571 0.0
C2607 C 0.49789 0.98687 0.80529 0.0
H2608 H 0.50694 0.02338 0.80421 0.0
C2609 C 0.54608 0.02252 0.80336 0.0
C2610 C 0.55311 0.0172 0.81378 0.0
C2611 C 0.53366 0.01792 0.80035 0.0
C2612 C 0.50458 0.01314 0.80429 0.0
H2613 H 0.45303 0.96849 0.79828 0.0
H2614 H 0.4748 0.9764 0.79305 0.0
H2615 H 0.48414 0.01691 0.80366 0.0
H2616 H 0.55284 0.0024 0.82876 0.0
H2617 H 0.53129 0.99436 0.82345 0.0
H2618 H 0.51831 0.98312 0.80638 0.0
C2619 C 0.46907 0.9816 0.80016 0.0
C2620 C 0.49153 0.00945 0.80408 0.0
C2621 C 0.45658 0.97712 0.8031 0.0
C2622 C 0.54769 0.00677 0.82071 0.0
C2623 C 0.53536 0.00209 0.81761 0.0
C2624 C 0.51094 0.99057 0.80562 0.0
C2625 C 0.47425 0.99244 0.80663 0.0
C2626 C 0.48803 0.99629 0.80488 0.0
C2627 C 0.52809 0.00779 0.80758 0.0
C2628 C 0.51441 0.00376 0.80543 0.0
H2629 H 0.44858 0.99948 0.82616 0.0
H2630 H 0.47023 0.00732 0.82095 0.0
H2631 H 0.49551 0.97666 0.80602 0.0
H2632 H 0.54996 0.03056 0.79782 0.0
H2633 H 0.52831 0.02243 0.79251 0.0
C2634 C 0.54408 0.52375 0.30204 0.0
C2635 C 0.55131 0.51814 0.31217 0.0
C2636 C 0.53175 0.51895 0.2989 0.0
C2637 C 0.50973 0.49082 0.30331 0.0
H2638 H 0.48232 0.51657 0.30278 0.0
C2639 C 0.45301 0.49316 0.31756 0.0
C2640 C 0.4481 0.4821 0.31124 0.0
C2641 C 0.46529 0.49797 0.31452 0.0
C2642 C 0.48988 0.50927 0.3028 0.0
H2643 H 0.55155 0.50265 0.32642 0.0
H2644 H 0.5302 0.4943 0.32091 0.0
H2645 H 0.50496 0.52355 0.30312 0.0
H2646 H 0.45211 0.46776 0.29637 0.0
H2647 H 0.4737 0.47614 0.29115 0.0
H2648 H 0.49464 0.47654 0.30356 0.0
C2649 C 0.534 0.50239 0.31539 0.0
C2650 C 0.50284 0.51326 0.30288 0.0
C2651 C 0.54622 0.50725 0.31862 0.0
C2652 C 0.45559 0.47629 0.30142 0.0
C2653 C 0.46798 0.48103 0.29848 0.0
C2654 C 0.49677 0.48682 0.30312 0.0
C2655 C 0.52651 0.50835 0.30569 0.0
C2656 C 0.51291 0.50408 0.30352 0.0
C2657 C 0.47304 0.4918 0.30516 0.0
C2658 C 0.4867 0.49602 0.30325 0.0
H2659 H 0.5477 0.53214 0.29687 0.0
H2660 H 0.52623 0.52368 0.29131 0.0
H2661 H 0.51728 0.48352 0.30367 0.0
H2662 H 0.44748 0.49792 0.32512 0.0
H2663 H 0.46895 0.5062 0.31994 0.0
C2664 C 0.54671 0.99241 0.18364 0.0
C2665 C 0.55209 0.98149 0.18978 0.0
C2666 C 0.53461 0.99718 0.18739 0.0
C2667 C 0.50404 0.98573 0.20071 0.0
H2668 H 0.49509 0.02226 0.19964 0.0
C2669 C 0.45612 0.02194 0.20072 0.0
C2670 C 0.44903 0.01581 0.19081 0.0
C2671 C 0.46846 0.0174 0.20418 0.0
C2672 C 0.49742 0.01204 0.20021 0.0
H2673 H 0.5492 0.96738 0.20513 0.0
H2674 H 0.52791 0.97569 0.21161 0.0
H2675 H 0.51786 0.01576 0.19951 0.0
H2676 H 0.44897 0.99961 0.17737 0.0
H2677 H 0.47033 0.9917 0.18343 0.0
H2678 H 0.48359 0.982 0.20093 0.0
C2679 C 0.53311 0.98051 0.20386 0.0
C2680 C 0.51046 0.00831 0.20002 0.0
C2681 C 0.54533 0.97581 0.20019 0.0
C2682 C 0.4542 0.00462 0.18498 0.0
C2683 C 0.46643 1.00001 0.18853 0.0
C2684 C 0.49099 0.98946 0.20082 0.0
C2685 C 0.52752 0.9911 0.19732 0.0
C2686 C 0.5139 0.99511 0.19986 0.0
C2687 C 0.47384 0.00653 0.19793 0.0
C2688 C 0.48754 0.00264 0.20017 0.0
H2689 H 0.55168 0.99708 0.17564 0.0
H2690 H 0.53053 0.00526 0.18205 0.0
H2691 H 0.50635 0.97549 0.20052 0.0
H2692 H 0.45241 0.03059 0.2054 0.0
H2693 H 0.47392 0.02257 0.21152 0.0
C2694 C 0.54662 0.49517 0.68487 0.0
C2695 C 0.55182 0.48405 0.69081 0.0
C2696 C 0.53446 0.49989 0.68849 0.0
C2697 C 0.50354 0.48833 0.70098 0.0
H2698 H 0.49495 0.52496 0.70107 0.0
C2699 C 0.45594 0.52494 0.70213 0.0
C2700 C 0.44881 0.51922 0.69199 0.0
C2701 C 0.46824 0.52018 0.70542 0.0
C2702 C 0.49718 0.51469 0.70131 0.0
H2703 H 0.54851 0.46951 0.70567 0.0
H2704 H 0.52714 0.47773 0.71192 0.0
H2705 H 0.51766 0.51824 0.70089 0.0
H2706 H 0.44864 0.50353 0.67796 0.0
H2707 H 0.46994 0.49523 0.68374 0.0
H2708 H 0.48306 0.48479 0.70094 0.0
C2709 C 0.53252 0.48275 0.70442 0.0
C2710 C 0.51019 0.51085 0.70108 0.0
C2711 C 0.54479 0.47809 0.70088 0.0
C2712 C 0.45391 0.50822 0.68576 0.0
C2713 C 0.46609 0.50339 0.68914 0.0
C2714 C 0.49054 0.49217 0.70112 0.0
C2715 C 0.52713 0.49356 0.69809 0.0
C2716 C 0.51351 0.49763 0.70054 0.0
C2717 C 0.47355 0.5095 0.69878 0.0
C2718 C 0.48721 0.5054 0.70091 0.0
H2719 H 0.55179 0.50005 0.67713 0.0
H2720 H 0.53054 0.50816 0.68332 0.0
H2721 H 0.50577 0.47807 0.70049 0.0
H2722 H 0.45229 0.53344 0.70711 0.0
H2723 H 0.47374 0.52503 0.71295 0.0
C2724 C 0.70611 0.94949 0.72655 0.0
C2725 C 0.69914 0.93881 0.73143 0.0
C2726 C 0.71827 0.9527 0.73168 0.0
C2727 C 0.74013 0.94738 0.75972 0.0
H2728 H 0.76777 0.94999 0.73433 0.0
C2729 C 0.79688 0.93411 0.75748 0.0
C2730 C 0.8016 0.93999 0.76885 0.0
C2731 C 0.78468 0.93735 0.75259 0.0
C2732 C 0.76014 0.94941 0.74153 0.0
H2733 H 0.6992 0.92359 0.74598 0.0
H2734 H 0.7203 0.92925 0.75492 0.0
H2735 H 0.74522 0.94941 0.72709 0.0
H2736 H 0.79742 0.9543 0.78369 0.0
H2737 H 0.77592 0.95984 0.7752 0.0
H2738 H 0.75509 0.94681 0.77412 0.0
C2739 C 0.71639 0.93513 0.74714 0.0
C2740 C 0.74723 0.94917 0.7374 0.0
C2741 C 0.70432 0.93183 0.74194 0.0
C2742 C 0.79407 0.94962 0.7749 0.0
C2743 C 0.78174 0.95274 0.7701 0.0
C2744 C 0.75304 0.94773 0.76386 0.0
C2745 C 0.72362 0.94542 0.74189 0.0
C2746 C 0.7371 0.94776 0.74643 0.0
C2747 C 0.77683 0.94645 0.75903 0.0
C2748 C 0.7632 0.94835 0.75478 0.0
H2749 H 0.70241 0.95507 0.71846 0.0
H2750 H 0.7236 0.96074 0.7275 0.0
H2751 H 0.73252 0.9464 0.7669 0.0
H2752 H 0.80247 0.92671 0.75255 0.0
H2753 H 0.78114 0.93225 0.74412 0.0
C2754 C 0.79825 0.43206 0.25464 0.0
C2755 C 0.80301 0.43934 0.26514 0.0
C2756 C 0.78656 0.43531 0.24869 0.0
C2757 C 0.75554 0.45136 0.25544 0.0
H2758 H 0.74974 0.44309 0.21919 0.0
C2759 C 0.70475 0.45004 0.22932 0.0
C2760 C 0.70223 0.43737 0.22492 0.0
C2761 C 0.71723 0.45351 0.23353 0.0
C2762 C 0.75125 0.44561 0.22928 0.0
H2763 H 0.79939 0.45617 0.27726 0.0
H2764 H 0.77887 0.46194 0.26673 0.0
H2765 H 0.77184 0.44406 0.22757 0.0
H2766 H 0.71084 0.41855 0.22111 0.0
H2767 H 0.73257 0.42471 0.22803 0.0
H2768 H 0.73479 0.45261 0.25708 0.0
C2769 C 0.7842 0.45359 0.26323 0.0
C2770 C 0.76388 0.44608 0.23412 0.0
C2771 C 0.79599 0.45033 0.26921 0.0
C2772 C 0.71244 0.42835 0.22453 0.0
C2773 C 0.7249 0.43189 0.22841 0.0
C2774 C 0.74286 0.45106 0.25053 0.0
C2775 C 0.77926 0.44599 0.25301 0.0
C2776 C 0.76616 0.44837 0.24739 0.0
C2777 C 0.7274 0.44445 0.233 0.0
C2778 C 0.74063 0.44767 0.23753 0.0
H2779 H 0.80337 0.42357 0.25117 0.0
H2780 H 0.783 0.42907 0.24103 0.0
H2781 H 0.75691 0.45309 0.26571 0.0
H2782 H 0.69704 0.45717 0.22975 0.0
H2783 H 0.71897 0.46324 0.23708 0.0
C2784 C 0.04422 0.2679 0.09963 0.0
C2785 C 0.03461 0.27553 0.09371 0.0
C2786 C 0.04081 0.25637 0.10601 0.0
C2787 C 0.01453 0.23233 0.11054 0.0
H2788 H 0.02072 0.2364 0.14743 0.0
C2789 C 0.98139 0.22738 0.15616 0.0
C2790 C 0.97613 0.21493 0.1547 0.0
C2791 C 0.99295 0.2307 0.14997 0.0
C2792 C 0.01916 0.23491 0.13714 0.0
H2793 H 0.01422 0.27676 0.08888 0.0
H2794 H 0.00835 0.2565 0.09954 0.0
H2795 H 0.03299 0.24952 0.13194 0.0
H2796 H 0.97902 0.19592 0.14625 0.0
H2797 H 0.99917 0.20189 0.13495 0.0
H2798 H 1.00004 0.21841 0.11577 0.0
C2799 C 0.01845 0.25938 0.09941 0.0
C2800 C 0.02622 0.24237 0.12827 0.0
C2801 C 0.02179 0.27101 0.09336 0.0
C2802 C 0.98303 0.20555 0.14763 0.0
C2803 C 0.99448 0.20897 0.14113 0.0
C2804 C 0.0076 0.22475 0.1194 0.0
C2805 C 0.02782 0.25219 0.10621 0.0
C2806 C 0.02346 0.24164 0.11494 0.0
C2807 C 0.9993 0.22172 0.14192 0.0
C2808 C 0.00936 0.22649 0.13281 0.0
H2809 H 0.05415 0.27129 0.10013 0.0
H2810 H 0.04819 0.25102 0.11124 0.0
H2811 H 0.01226 0.23157 0.10031 0.0
H2812 H 0.97617 0.23477 0.1615 0.0
H2813 H 0.99632 0.24063 0.15063 0.0
C2814 C 0.97819 0.2717 0.34358 0.0
C2815 C 0.97339 0.28438 0.34461 0.0
C2816 C 0.98989 0.26832 0.34945 0.0
C2817 C 0.00643 0.27507 0.37882 0.0
H2818 H 0.03092 0.24975 0.3656 0.0
C2819 C 0.04412 0.23249 0.39774 0.0
C2820 C 0.03488 0.22504 0.40441 0.0
C2821 C 0.04034 0.24383 0.39124 0.0
C2822 C 0.02441 0.25706 0.36943 0.0
H2823 H 0.9772 0.30367 0.35198 0.0
H2824 H 0.99762 0.2976 0.36277 0.0
H2825 H 0.01777 0.26241 0.35045 0.0
H2826 H 0.0148 0.22392 0.41043 0.0
H2827 H 0.00829 0.24388 0.39955 0.0
H2828 H 0.01221 0.26886 0.39781 0.0
C2829 C 0.99243 0.29038 0.35716 0.0
C2830 C 0.01685 0.26425 0.36076 0.0
C2831 C 0.98082 0.29386 0.35097 0.0
C2832 C 0.02209 0.22956 0.40536 0.0
C2833 C 0.0184 0.24101 0.39919 0.0
C2834 C 0.01386 0.26775 0.38749 0.0
C2835 C 0.99687 0.27748 0.35673 0.0
C2836 C 0.00738 0.27289 0.3654 0.0
C2837 C 0.02735 0.24799 0.39167 0.0
C2838 C 0.02248 0.25826 0.38287 0.0
H2839 H 0.97257 0.26424 0.33876 0.0
H2840 H 0.99297 0.25828 0.34909 0.0
H2841 H 0.99914 0.28159 0.38267 0.0
H2842 H 0.05402 0.22908 0.39678 0.0
H2843 H 0.04739 0.24902 0.38543 0.0
C2844 C 0.95631 0.23121 0.60385 0.0
C2845 C 0.96563 0.22424 0.59678 0.0
C2846 C 0.95995 0.24225 0.61091 0.0
C2847 C 0.97598 0.25439 0.63332 0.0
H2848 H 1.00022 0.28049 0.62119 0.0
C2849 C 0.02218 0.26942 0.65923 0.0
C2850 C 0.02639 0.28235 0.65882 0.0
C2851 C 0.0105 0.26583 0.65343 0.0
C2852 C 0.99321 0.27351 0.62475 0.0
H2853 H 0.98569 0.22373 0.59063 0.0
H2854 H 0.99194 0.24326 0.60244 0.0
H2855 H 0.98732 0.26823 0.60551 0.0
H2856 H 0.02148 0.30182 0.65268 0.0
H2857 H 0.00114 0.29544 0.64202 0.0
H2858 H 0.98277 0.25882 0.65248 0.0
C2859 C 0.98188 0.2402 0.6027 0.0
C2860 C 0.98589 0.26647 0.61577 0.0
C2861 C 0.97834 0.22901 0.59598 0.0
C2862 C 0.01835 0.29181 0.65322 0.0
C2863 C 0.00678 0.28816 0.64709 0.0
C2864 C 0.98346 0.26129 0.64229 0.0
C2865 C 0.97286 0.24663 0.61063 0.0
C2866 C 0.97763 0.25647 0.61995 0.0
C2867 C 0.00296 0.27507 0.64682 0.0
C2868 C 0.99254 0.27052 0.63803 0.0
H2869 H 0.94648 0.22757 0.60472 0.0
H2870 H 0.95285 0.24702 0.61701 0.0
H2871 H 0.96976 0.24666 0.63679 0.0
H2872 H 0.02825 0.26196 0.66348 0.0
H2873 H 0.00789 0.25565 0.65324 0.0
C2874 C 0.97352 0.27002 0.90703 0.0
C2875 C 0.96211 0.27642 0.90339 0.0
C2876 C 0.97693 0.25831 0.90121 0.0
C2877 C 0.97566 0.24375 0.86986 0.0
H2878 H 0.99502 0.21672 0.88743 0.0
C2879 C 0.01594 0.21306 0.84459 0.0
C2880 C 0.02767 0.21546 0.85111 0.0
C2881 C 0.00407 0.21637 0.85045 0.0
C2882 C 0.98942 0.22402 0.88233 0.0
H2883 H 0.94508 0.27562 0.89115 0.0
H2884 H 0.95129 0.25513 0.88055 0.0
H2885 H 0.98006 0.23032 0.89977 0.0
H2886 H 0.03624 0.22248 0.86899 0.0
H2887 H 0.01579 0.2279 0.8792 0.0
H2888 H 0.98593 0.23815 0.85264 0.0
C2889 C 0.9574 0.25904 0.88815 0.0
C2890 C 0.98089 0.2318 0.88939 0.0
C2891 C 0.95382 0.27067 0.89425 0.0
C2892 C 0.02734 0.22063 0.86369 0.0
C2893 C 0.01561 0.2236 0.86961 0.0
C2894 C 0.98425 0.23596 0.86278 0.0
C2895 C 0.96917 0.25294 0.89136 0.0
C2896 C 0.97453 0.24223 0.88338 0.0
C2897 C 0.00385 0.22168 0.86304 0.0
C2898 C 0.99179 0.22656 0.86914 0.0
H2899 H 0.98012 0.27442 0.91393 0.0
H2900 H 0.98616 0.25397 0.90375 0.0
H2901 H 0.97092 0.25175 0.86498 0.0
H2902 H 0.01598 0.20909 0.83486 0.0
H2903 H 0.99511 0.21491 0.84516 0.0
C2904 C 0.02262 0.7331 0.90659 0.0
C2905 C 0.03511 0.72791 0.90522 0.0
C2906 C 0.01937 0.74479 0.90063 0.0
C2907 C 0.02599 0.76016 0.87048 0.0
H2908 H 1.0002 0.78459 0.88285 0.0
C2909 C 0.98165 0.7954 0.85082 0.0
C2910 C 0.97466 0.78557 0.84449 0.0
C2911 C 0.99331 0.79246 0.85719 0.0
C2912 C 0.00764 0.77811 0.87923 0.0
H2913 H 0.05425 0.73107 0.89722 0.0
H2914 H 0.04845 0.75149 0.88633 0.0
H2915 H 0.01323 0.77239 0.89843 0.0
H2916 H 0.97471 0.76536 0.83885 0.0
H2917 H 0.99519 0.76031 0.84949 0.0
H2918 H 0.0196 0.76504 0.85131 0.0
C2919 C 0.04126 0.74662 0.89226 0.0
C2920 C 0.01505 0.77108 0.88816 0.0
C2921 C 0.0446 0.73501 0.89853 0.0
C2922 C 0.97998 0.77309 0.84365 0.0
C2923 C 0.99174 0.77024 0.84969 0.0
C2924 C 0.01849 0.76708 0.86156 0.0
C2925 C 0.02848 0.75136 0.89289 0.0
C2926 C 0.02382 0.76156 0.88387 0.0
C2927 C 0.99825 0.77974 0.85698 0.0
C2928 C 0.00879 0.77563 0.86587 0.0
H2929 H 0.01513 0.7277 0.91163 0.0
H2930 H 0.00941 0.74808 0.90117 0.0
H2931 H 0.03262 0.75284 0.86688 0.0
H2932 H 0.97763 0.80507 0.8517 0.0
H2933 H 0.99814 0.79994 0.86278 0.0
C2934 C 0.5166 0.29538 0.14959 0.0
C2935 C 0.5241 0.28664 0.15686 0.0
C2936 C 0.50488 0.29129 0.14399 0.0
C2937 C 0.49 0.27415 0.12436 0.0
H2938 H 0.46795 0.24836 0.14056 0.0
C2939 C 0.47519 0.22117 0.11145 0.0
C2940 C 0.46653 0.22122 0.10093 0.0
C2941 C 0.47769 0.23245 0.11838 0.0
C2942 C 0.47375 0.2558 0.13592 0.0
H2943 H 0.52505 0.26724 0.16477 0.0
H2944 H 0.50453 0.26023 0.15548 0.0
H2945 H 0.48038 0.2633 0.1541 0.0
H2946 H 0.45378 0.23325 0.08932 0.0
H2947 H 0.45866 0.25343 0.10135 0.0
H2948 H 0.48415 0.26581 0.10618 0.0
C2949 C 0.50754 0.27019 0.15401 0.0
C2950 C 0.48091 0.2643 0.14365 0.0
C2951 C 0.51932 0.27417 0.15931 0.0
C2952 C 0.4605 0.23295 0.09738 0.0
C2953 C 0.46325 0.24443 0.10425 0.0
C2954 C 0.48279 0.26563 0.1166 0.0
C2955 C 0.50044 0.27852 0.14586 0.0
C2956 C 0.48973 0.27299 0.13797 0.0
C2957 C 0.47175 0.24416 0.11491 0.0
C2958 C 0.47522 0.2559 0.12237 0.0
H2959 H 0.52026 0.30499 0.14743 0.0
H2960 H 0.49962 0.29788 0.13772 0.0
H2961 H 0.49676 0.28071 0.1197 0.0
H2962 H 0.47998 0.21234 0.11451 0.0
H2963 H 0.48445 0.23205 0.12643 0.0
C2964 C 0.95693 0.76783 0.39884 0.0
C2965 C 0.96671 0.77557 0.40433 0.0
C2966 C 0.96015 0.75622 0.39251 0.0
C2967 C 0.98623 0.73205 0.3878 0.0
H2968 H 0.97884 0.7349 0.35103 0.0
C2969 C 0.01785 0.72537 0.34136 0.0
C2970 C 0.02333 0.71311 0.34339 0.0
C2971 C 0.00638 0.72887 0.34763 0.0
C2972 C 0.98074 0.73376 0.3613 0.0
H2973 H 0.98726 0.77695 0.4084 0.0
H2974 H 0.99282 0.75656 0.39783 0.0
H2975 H 0.96715 0.74862 0.36647 0.0
H2976 H 0.02094 0.69456 0.35291 0.0
H2977 H 0.00093 0.70081 0.36429 0.0
H2978 H 0.00047 0.71789 0.38259 0.0
C2979 C 0.98272 0.75942 0.39826 0.0
C2980 C 0.97401 0.74156 0.37014 0.0
C2981 C 0.97956 0.77112 0.40425 0.0
C2982 C 0.01673 0.70401 0.35107 0.0
C2983 C 0.00536 0.70761 0.35762 0.0
C2984 C 0.99283 0.72414 0.37899 0.0
C2985 C 0.97314 0.75207 0.39194 0.0
C2986 C 0.97721 0.74125 0.38339 0.0
C2987 C 0.00037 0.72026 0.35633 0.0
C2988 C 0.99064 0.72542 0.36559 0.0
H2989 H 0.94696 0.77116 0.39868 0.0
H2990 H 0.95261 0.75074 0.38766 0.0
H2991 H 0.98882 0.73161 0.39798 0.0
H2992 H 0.02289 0.73257 0.33558 0.0
H2993 H 0.00289 0.73872 0.34656 0.0
C2994 C 0.52187 0.27314 0.59409 0.0
C2995 C 0.53462 0.27776 0.59501 0.0
C2996 C 0.51819 0.26186 0.60058 0.0
C2997 C 0.52388 0.24711 0.63095 0.0
H2998 H 0.49942 0.22143 0.61838 0.0
C2999 C 0.48165 0.20945 0.65062 0.0
C3000 C 0.47364 0.21877 0.6565 0.0
C3001 C 0.49307 0.21326 0.6443 0.0
C3002 C 0.50648 0.2283 0.62205 0.0
H3003 H 0.55373 0.27407 0.6029 0.0
H3004 H 0.54712 0.25445 0.61481 0.0
H3005 H 0.51243 0.23384 0.6029 0.0
H3006 H 0.47169 0.23911 0.66137 0.0
H3007 H 0.49179 0.24569 0.65079 0.0
H3008 H 0.51703 0.24243 0.65003 0.0
C3009 C 0.54009 0.25942 0.60878 0.0
C3010 C 0.51387 0.23542 0.61319 0.0
C3011 C 0.54386 0.27056 0.60195 0.0
C3012 C 0.47772 0.23175 0.6569 0.0
C3013 C 0.48925 0.23549 0.6509 0.0
C3014 C 0.51633 0.24014 0.6398 0.0
C3015 C 0.52713 0.25518 0.6084 0.0
C3016 C 0.52223 0.24526 0.61755 0.0
C3017 C 0.49678 0.22638 0.64412 0.0
C3018 C 0.50717 0.23106 0.63538 0.0
H3019 H 0.51458 0.2786 0.58883 0.0
H3020 H 0.50811 0.25892 0.60025 0.0
H3021 H 0.53017 0.25472 0.63456 0.0
H3022 H 0.47863 0.19939 0.65009 0.0
H3023 H 0.4987 0.20607 0.6391 0.0
C3024 C 0.09213 0.02526 0.26899 0.0
C3025 C 0.09553 0.03714 0.27463 0.0
C3026 C 0.09756 0.02148 0.2572 0.0
C3027 C 0.12818 0.02357 0.24109 0.0
H3028 H 0.1106 0.00131 0.21639 0.0
C3029 C 0.15446 0.98296 0.21162 0.0
C3030 C 0.14887 0.97101 0.21506 0.0
C3031 C 0.14801 0.99463 0.21456 0.0
C3032 C 0.11567 0.0077 0.22302 0.0
H3033 H 0.10683 0.05467 0.27233 0.0
H3034 H 0.11674 0.04787 0.25168 0.0
H3035 H 0.098 0.01644 0.22956 0.0
H3036 H 0.13199 0.96181 0.2236 0.0
H3037 H 0.12077 0.98187 0.22841 0.0
H3038 H 0.14573 0.01401 0.23528 0.0
C3039 C 0.10965 0.04162 0.25627 0.0
C3040 C 0.10847 0.01634 0.23056 0.0
C3041 C 0.10394 0.04555 0.26799 0.0
C3042 C 0.1366 0.97087 0.22094 0.0
C3043 C 0.13009 0.98238 0.22356 0.0
C3044 C 0.1354 0.0149 0.23353 0.0
C3045 C 0.10676 0.02938 0.25096 0.0
C3046 C 0.11455 0.02378 0.24022 0.0
C3047 C 0.13574 0.99439 0.22057 0.0
C3048 C 0.12909 0.00634 0.22501 0.0
H3049 H 0.08577 0.01858 0.27405 0.0
H3050 H 0.09528 0.01192 0.25349 0.0
H3051 H 0.13313 0.02915 0.24849 0.0
H3052 H 0.16393 0.98329 0.20708 0.0
H3053 H 0.15261 0.00379 0.21226 0.0
C3054 C 0.20786 0.34995 0.51886 0.0
C3055 C 0.21693 0.34336 0.5266 0.0
C3056 C 0.21194 0.35649 0.50765 0.0
C3057 C 0.22807 0.37869 0.49553 0.0
H3058 H 0.25365 0.3664 0.47083 0.0
C3059 C 0.2737 0.4059 0.48023 0.0
C3060 C 0.27772 0.40558 0.46724 0.0
C3061 C 0.2624 0.39951 0.48405 0.0
C3062 C 0.24629 0.36997 0.47743 0.0
H3063 H 0.23699 0.33744 0.52829 0.0
H3064 H 0.244 0.34832 0.50847 0.0
H3065 H 0.24083 0.35075 0.48327 0.0
H3066 H 0.27298 0.39882 0.44793 0.0
H3067 H 0.25333 0.38711 0.45475 0.0
H3068 H 0.23439 0.39789 0.49057 0.0
C3069 C 0.23382 0.3486 0.51105 0.0
C3070 C 0.23901 0.36102 0.48458 0.0
C3071 C 0.22982 0.34238 0.52239 0.0
C3072 C 0.26993 0.39934 0.45798 0.0
C3073 C 0.25877 0.3926 0.46188 0.0
C3074 C 0.23552 0.38763 0.48856 0.0
C3075 C 0.22505 0.35619 0.5039 0.0
C3076 C 0.23018 0.36531 0.49403 0.0
C3077 C 0.25511 0.39238 0.47501 0.0
C3078 C 0.24502 0.38334 0.4798 0.0
H3079 H 0.1979 0.35098 0.52205 0.0
H3080 H 0.20502 0.36232 0.50231 0.0
H3081 H 0.22143 0.38226 0.50286 0.0
H3082 H 0.27963 0.41058 0.48754 0.0
H3083 H 0.25989 0.39936 0.49426 0.0
C3084 C 0.84337 0.51865 0.72685 0.0
C3085 C 0.84486 0.52376 0.71434 0.0
C3086 C 0.84945 0.50707 0.73028 0.0
C3087 C 0.87989 0.49207 0.72438 0.0
H3088 H 0.86728 0.46742 0.74984 0.0
C3089 C 0.90577 0.4793 0.77102 0.0
C3090 C 0.90513 0.46672 0.77614 0.0
C3091 C 0.89992 0.48217 0.75918 0.0
C3092 C 0.87096 0.47396 0.74249 0.0
H3093 H 0.85324 0.52058 0.69535 0.0
H3094 H 0.86434 0.50037 0.70151 0.0
H3095 H 0.85182 0.47944 0.73648 0.0
H3096 H 0.89846 0.4471 0.77276 0.0
H3097 H 0.88769 0.45226 0.75209 0.0
H3098 H 0.89897 0.48744 0.73122 0.0
C3099 C 0.85822 0.50521 0.70855 0.0
C3100 C 0.86211 0.48089 0.7349 0.0
C3101 C 0.85183 0.51669 0.70502 0.0
C3102 C 0.89918 0.45685 0.76889 0.0
C3103 C 0.893 0.4598 0.75713 0.0
C3104 C 0.88873 0.48526 0.73208 0.0
C3105 C 0.85743 0.50054 0.72136 0.0
C3106 C 0.86648 0.49047 0.72624 0.0
C3107 C 0.89302 0.47259 0.75236 0.0
C3108 C 0.88431 0.47662 0.74166 0.0
H3109 H 0.83812 0.52402 0.7342 0.0
H3110 H 0.84879 0.50384 0.74026 0.0
H3111 H 0.88354 0.49945 0.71784 0.0
H3112 H 0.91025 0.48707 0.77651 0.0
H3113 H 0.89996 0.49214 0.75585 0.0
C3114 C 0.79302 0.15122 0.01942 0.0
C3115 C 0.78359 0.15734 0.02711 0.0
C3116 C 0.78939 0.14484 0.00796 0.0
C3117 C 0.76268 0.13981 0.98446 0.0
H3118 H 0.76872 0.10306 0.98982 0.0
C3119 C 0.7295 0.0939 0.98041 0.0
C3120 C 0.72472 0.09469 0.9677 0.0
C3121 C 0.74086 0.10039 0.98387 0.0
C3122 C 0.7672 0.11329 0.98798 0.0
H3123 H 0.76333 0.16262 0.02848 0.0
H3124 H 0.75708 0.15201 0.00828 0.0
H3125 H 0.78116 0.11895 0.00227 0.0
H3126 H 0.7283 0.10228 0.94845 0.0
H3127 H 0.74807 0.11409 0.95464 0.0
H3128 H 0.74811 0.13412 0.97078 0.0
C3129 C 0.76722 0.15199 0.01106 0.0
C3130 C 0.77435 0.12239 0.99505 0.0
C3131 C 0.77077 0.15805 0.02263 0.0
C3132 C 0.73192 0.1014 0.95827 0.0
C3133 C 0.74315 0.1082 0.96183 0.0
C3134 C 0.75567 0.13071 0.97724 0.0
C3135 C 0.77636 0.14482 0.00393 0.0
C3136 C 0.7717 0.13571 0.99382 0.0
C3137 C 0.74748 0.10806 0.97476 0.0
C3138 C 0.75741 0.11736 0.97941 0.0
H3139 H 0.80293 0.1504 0.02281 0.0
H3140 H 0.7966 0.13935 0.00265 0.0
H3141 H 0.76045 0.15002 0.98334 0.0
H3142 H 0.72404 0.08886 0.98785 0.0
H3143 H 0.74387 0.10022 0.99394 0.0
C3144 C 0.1576 0.02455 0.76933 0.0
C3145 C 0.15729 0.02855 0.78233 0.0
C3146 C 0.15163 0.013 0.76557 0.0
C3147 C 0.1406 0.98588 0.76086 0.0
H3148 H 0.10378 0.98924 0.76785 0.0
C3149 C 0.10297 0.95772 0.73096 0.0
C3150 C 0.09562 0.9668 0.72396 0.0
C3151 C 0.10981 0.96161 0.74206 0.0
C3152 C 0.11406 0.98795 0.76606 0.0
H3153 H 0.1511 0.0234 0.80173 0.0
H3154 H 0.14018 0.00329 0.79504 0.0
H3155 H 0.11931 0.00246 0.77999 0.0
H3156 H 0.08874 0.98661 0.72343 0.0
H3157 H 0.10015 0.99325 0.74306 0.0
H3158 H 0.13529 0.97197 0.74637 0.0
C3159 C 0.14528 0.009 0.78784 0.0
C3160 C 0.12295 0.99547 0.77303 0.0
C3161 C 0.15157 0.02044 0.79166 0.0
C3162 C 0.09426 0.97943 0.72878 0.0
C3163 C 0.10078 0.98321 0.74002 0.0
C3164 C 0.13173 0.97821 0.75404 0.0
C3165 C 0.14497 0.00538 0.7747 0.0
C3166 C 0.13624 0.99495 0.77004 0.0
C3167 C 0.10906 0.97451 0.74644 0.0
C3168 C 0.11834 0.97964 0.75615 0.0
H3169 H 0.16193 0.03067 0.76195 0.0
H3170 H 0.15142 0.01052 0.75535 0.0
H3171 H 0.1508 0.9853 0.75839 0.0
H3172 H 0.1043 0.94797 0.72727 0.0
H3173 H 0.11618 0.95474 0.74683 0.0
C3174 C 0.23263 0.39752 0.04565 0.0
C3175 C 0.22556 0.4049 0.03666 0.0
C3176 C 0.24388 0.39096 0.04172 0.0
C3177 C 0.26786 0.38744 0.01512 0.0
H3178 H 0.26063 0.35059 0.01746 0.0
C3179 C 0.26969 0.34463 0.97774 0.0
C3180 C 0.2825 0.34488 0.97318 0.0
C3181 C 0.26649 0.35046 0.98952 0.0
C3182 C 0.26299 0.36082 0.01697 0.0
H3183 H 0.22508 0.41218 0.01698 0.0
H3184 H 0.24491 0.40122 0.01026 0.0
H3185 H 0.24881 0.36577 0.0313 0.0
H3186 H 0.30216 0.35091 0.9775 0.0
H3187 H 0.29643 0.36165 0.99803 0.0
H3188 H 0.2814 0.38254 1.00013 0.0
C3189 C 0.24182 0.40035 0.02027 0.0
C3190 C 0.25629 0.36951 0.02494 0.0
C3191 C 0.23045 0.40659 0.02409 0.0
C3192 C 0.29222 0.3505 0.9809 0.0
C3193 C 0.28895 0.35667 0.99258 0.0
C3194 C 0.2747 0.37873 0.00728 0.0
C3195 C 0.24834 0.39201 0.02886 0.0
C3196 C 0.25817 0.38294 0.02359 0.0
C3197 C 0.27599 0.35694 0.99683 0.0
C3198 C 0.27182 0.36541 0.00766 0.0
H3199 H 0.2289 0.39596 0.05535 0.0
H3200 H 0.24871 0.38454 0.0485 0.0
H3201 H 0.2695 0.39775 0.01391 0.0
H3202 H 0.26204 0.34037 0.97193 0.0
H3203 H 0.2564 0.35066 0.99246 0.0
C3204 C 0.89798 0.54581 0.23282 0.0
C3205 C 0.90505 0.5365 0.22584 0.0
C3206 C 0.89155 0.54229 0.24429 0.0
C3207 C 0.87002 0.52647 0.25773 0.0
H3208 H 0.88295 0.50151 0.28273 0.0
C3209 C 0.84397 0.4803 0.27215 0.0
C3210 C 0.84478 0.47552 0.28486 0.0
C3211 C 0.84992 0.49198 0.26883 0.0
C3212 C 0.87917 0.50871 0.27608 0.0
H3213 H 0.91191 0.51667 0.22571 0.0
H3214 H 0.90117 0.51065 0.24587 0.0
H3215 H 0.89824 0.51464 0.27025 0.0
H3216 H 0.85192 0.47933 0.30423 0.0
H3217 H 0.86284 0.49972 0.29828 0.0
H3218 H 0.85099 0.51972 0.26274 0.0
C3219 C 0.90045 0.5206 0.24257 0.0
C3220 C 0.88794 0.51617 0.26889 0.0
C3221 C 0.90657 0.52402 0.231 0.0
C3222 C 0.85105 0.48295 0.2944 0.0
C3223 C 0.85733 0.49454 0.29099 0.0
C3224 C 0.86127 0.51889 0.2648 0.0
C3225 C 0.89241 0.52951 0.24904 0.0
C3226 C 0.88345 0.52467 0.25921 0.0
C3227 C 0.85709 0.49897 0.27808 0.0
C3228 C 0.86579 0.50951 0.27359 0.0
H3229 H 0.89655 0.55545 0.22889 0.0
H3230 H 0.88539 0.54932 0.24907 0.0
H3231 H 0.86627 0.53287 0.25028 0.0
H3232 H 0.83924 0.47468 0.26463 0.0
H3233 H 0.84971 0.49504 0.25878 0.0
C3234 C 0.7719 0.09384 0.52158 0.0
C3235 C 0.7762 0.09428 0.53447 0.0
C3236 C 0.76027 0.09976 0.51802 0.0
C3237 C 0.74285 0.1285 0.52554 0.0
H3238 H 0.71934 0.1159 0.49901 0.0
C3239 C 0.72736 0.15685 0.48102 0.0
C3240 C 0.71484 0.15539 0.4759 0.0
C3241 C 0.73091 0.15042 0.49238 0.0
C3242 C 0.72557 0.11954 0.50665 0.0
H3243 H 0.77155 0.1007 0.55392 0.0
H3244 H 0.75127 0.11157 0.54758 0.0
H3245 H 0.7326 0.10051 0.51122 0.0
H3246 H 0.69599 0.14663 0.47883 0.0
H3247 H 0.70237 0.1349 0.49862 0.0
H3248 H 0.73667 0.14762 0.52015 0.0
C3249 C 0.7568 0.10638 0.54031 0.0
C3250 C 0.7332 0.11073 0.51358 0.0
C3251 C 0.76833 0.10013 0.54393 0.0
C3252 C 0.70565 0.14801 0.48273 0.0
C3253 C 0.70931 0.14127 0.49397 0.0
C3254 C 0.73535 0.13733 0.51848 0.0
C3255 C 0.75286 0.10652 0.52724 0.0
C3256 C 0.74232 0.11518 0.52268 0.0
C3257 C 0.7221 0.14212 0.49866 0.0
C3258 C 0.72707 0.13296 0.50857 0.0
H3259 H 0.77785 0.08942 0.51412 0.0
H3260 H 0.75758 0.09984 0.50786 0.0
H3261 H 0.74987 0.13221 0.53244 0.0
H3262 H 0.73462 0.16241 0.47583 0.0
H3263 H 0.74087 0.15113 0.49565 0.0
C3264 C 0.23079 0.1556 0.98116 0.0
C3265 C 0.21788 0.1551 0.97692 0.0
C3266 C 0.23438 0.14991 0.99289 0.0
C3267 C 0.22653 0.12139 0.01063 0.0
H3268 H 0.25418 0.13341 0.03313 0.0
C3269 C 0.27052 0.10115 0.04599 0.0
C3270 C 0.27676 0.09363 0.0365 0.0
C3271 C 0.2592 0.10802 0.04288 0.0
C3272 C 0.24623 0.12993 0.02721 0.0
H3273 H 0.19841 0.14893 0.98183 0.0
H3274 H 0.20479 0.13851 0.00232 0.0
H3275 H 0.24188 0.14905 0.02027 0.0
H3276 H 0.27569 0.08647 0.01681 0.0
H3277 H 0.25574 0.09799 0.01152 0.0
H3278 H 0.23166 0.10217 0.0167 0.0
C3279 C 0.21207 0.14354 0.99664 0.0
C3280 C 0.23925 0.13889 0.01979 0.0
C3281 C 0.20842 0.14954 0.98499 0.0
C3282 C 0.27096 0.09214 0.0243 0.0
C3283 C 0.25953 0.09871 0.0213 0.0
C3284 C 0.23363 0.11242 0.01792 0.0
C3285 C 0.22516 0.14333 0.00048 0.0
C3286 C 0.22975 0.13464 0.01098 0.0
C3287 C 0.25386 0.10718 0.03035 0.0
C3288 C 0.24394 0.11656 0.02581 0.0
H3289 H 0.23825 0.1598 0.97505 0.0
H3290 H 0.24456 0.14978 0.99549 0.0
H3291 H 0.21933 0.11782 0.00386 0.0
H3292 H 0.27496 0.10257 0.05541 0.0
H3293 H 0.25504 0.11452 0.05001 0.0
C3294 C 0.70662 0.85335 0.51716 0.0
C3295 C 0.71583 0.84611 0.5241 0.0
C3296 C 0.71023 0.85982 0.50575 0.0
C3297 C 0.73628 0.86335 0.48114 0.0
H3298 H 0.73362 0.90025 0.488 0.0
C3299 C 0.77307 0.90654 0.47796 0.0
C3300 C 0.77736 0.90616 0.46507 0.0
C3301 C 0.76142 0.90066 0.48149 0.0
C3302 C 0.73419 0.89 0.48574 0.0
H3303 H 0.73556 0.83898 0.52419 0.0
H3304 H 0.74173 0.84978 0.50408 0.0
H3305 H 0.72025 0.88503 0.50031 0.0
H3306 H 0.77271 0.89985 0.44558 0.0
H3307 H 0.75238 0.88901 0.45187 0.0
H3308 H 0.75089 0.86828 0.4672 0.0
C3309 C 0.73179 0.8506 0.50739 0.0
C3310 C 0.72649 0.88129 0.49272 0.0
C3311 C 0.72829 0.84445 0.51892 0.0
C3312 C 0.76949 0.90037 0.45558 0.0
C3313 C 0.75793 0.89415 0.45917 0.0
C3314 C 0.74384 0.87208 0.47402 0.0
C3315 C 0.72299 0.85882 0.501 0.0
C3316 C 0.72797 0.86785 0.49097 0.0
C3317 C 0.75397 0.89399 0.47222 0.0
C3318 C 0.74334 0.88542 0.47674 0.0
H3319 H 0.697 0.85489 0.52111 0.0
H3320 H 0.70329 0.86613 0.50102 0.0
H3321 H 0.73757 0.85303 0.47959 0.0
H3322 H 0.77903 0.91091 0.48544 0.0
H3323 H 0.7587 0.90055 0.49164 0.0
C3324 C 0.34921 0.01854 0.7085 0.0
C3325 C 0.34356 0.02679 0.71775 0.0
C3326 C 0.35535 0.00706 0.71243 0.0
C3327 C 0.3776 0.9937 0.72753 0.0
H3328 H 0.36517 0.97067 0.75456 0.0
C3329 C 0.4061 0.9788 0.77227 0.0
C3330 C 0.40489 0.96623 0.7773 0.0
C3331 C 0.39955 0.98231 0.76096 0.0
C3332 C 0.36875 0.97677 0.74678 0.0
H3333 H 0.33889 0.02915 0.73808 0.0
H3334 H 0.3491 0.00892 0.74489 0.0
H3335 H 0.34968 0.98368 0.74216 0.0
H3336 H 0.39642 0.94726 0.77431 0.0
H3337 H 0.38447 0.95356 0.75463 0.0
H3338 H 0.39675 0.98769 0.73298 0.0
C3339 C 0.34894 0.0113 0.73465 0.0
C3340 C 0.3599 0.98425 0.73975 0.0
C3341 C 0.34314 0.02289 0.73077 0.0
C3342 C 0.39762 0.95696 0.77046 0.0
C3343 C 0.39075 0.96058 0.75929 0.0
C3344 C 0.38647 0.98638 0.73471 0.0
C3345 C 0.35558 0.00355 0.72561 0.0
C3346 C 0.36429 0.99318 0.73043 0.0
C3347 C 0.39138 0.9734 0.75467 0.0
C3348 C 0.38216 0.97825 0.74477 0.0
H3349 H 0.34979 0.02146 0.69841 0.0
H3350 H 0.36045 0.00126 0.7053 0.0
H3351 H 0.38126 0.00058 0.72048 0.0
H3352 H 0.41158 0.98612 0.77746 0.0
H3353 H 0.40009 0.9923 0.75773 0.0
C3354 C 0.23019 0.59995 0.9604 0.0
C3355 C 0.21994 0.59782 0.96917 0.0
C3356 C 0.24104 0.6073 0.9642 0.0
C3357 C 0.26512 0.61779 0.98079 0.0
H3358 H 0.2547 0.64994 0.99738 0.0
C3359 C 0.29142 0.64098 0.02345 0.0
C3360 C 0.29012 0.6543 0.02583 0.0
C3361 C 0.28628 0.63549 0.0122 0.0
C3362 C 0.25792 0.64121 0.99248 0.0
H3363 H 0.21347 0.60081 0.98898 0.0
H3364 H 0.23219 0.6135 0.99547 0.0
H3365 H 0.23866 0.63687 0.98614 0.0
H3366 H 0.28324 0.67255 0.01814 0.0
H3367 H 0.27423 0.663 0.99829 0.0
H3368 H 0.28431 0.62182 0.98781 0.0
C3369 C 0.23178 0.60976 0.98565 0.0
C3370 C 0.24867 0.63366 0.98615 0.0
C3371 C 0.22109 0.60245 0.98193 0.0
C3372 C 0.2845 0.66227 0.01636 0.0
C3373 C 0.27927 0.65677 0.00509 0.0
C3374 C 0.27443 0.62535 0.98723 0.0
C3375 C 0.24166 0.61261 0.97675 0.0
C3376 C 0.25207 0.62164 0.98073 0.0
C3377 C 0.27953 0.64322 0.00321 0.0
C3378 C 0.2708 0.6369 0.9936 0.0
H3379 H 0.22954 0.5965 0.9505 0.0
H3380 H 0.24861 0.60932 0.9572 0.0
H3381 H 0.26796 0.60856 0.97664 0.0
H3382 H 0.29558 0.63467 0.03076 0.0
H3383 H 0.28655 0.62504 0.01118 0.0
C3384 C 0.72996 0.9052 0.02166 0.0
C3385 C 0.72465 0.90386 0.0341 0.0
C3386 C 0.74151 0.89894 0.01843 0.0
C3387 C 0.76783 0.88625 0.01453 0.0
H3388 H 0.76121 0.84937 0.01795 0.0
C3389 C 0.79338 0.84945 0.98147 0.0
C3390 C 0.78386 0.84338 0.97385 0.0
C3391 C 0.78991 0.85554 0.99314 0.0
C3392 C 0.7634 0.85962 0.01716 0.0
H3393 H 0.72741 0.8955 0.05316 0.0
H3394 H 0.74755 0.88408 0.04735 0.0
H3395 H 0.74869 0.86479 0.03088 0.0
H3396 H 0.76363 0.83792 0.97277 0.0
H3397 H 0.75766 0.84807 0.99326 0.0
H3398 H 0.78188 0.88112 1.00011 0.0
C3399 C 0.7429 0.89023 0.04021 0.0
C3400 C 0.75629 0.86845 0.02462 0.0
C3401 C 0.73146 0.8968 0.04355 0.0
C3402 C 0.77113 0.84249 0.97854 0.0
C3403 C 0.76775 0.84826 0.9903 0.0
C3404 C 0.77506 0.87741 0.0072 0.0
C3405 C 0.7478 0.89094 0.02749 0.0
C3406 C 0.75796 0.88186 0.02284 0.0
C3407 C 0.77696 0.85533 0.99744 0.0
C3408 C 0.77241 0.86405 0.00794 0.0
H3409 H 0.72479 0.91052 0.01421 0.0
H3410 H 0.74493 0.89955 0.00851 0.0
H3411 H 0.76933 0.89654 0.01302 0.0
H3412 H 0.80323 0.85038 0.97793 0.0
H3413 H 0.79719 0.86096 0.99845 0.0
C3414 C 0.34101 0.48012 0.77151 0.0
C3415 C 0.34188 0.47501 0.78408 0.0
C3416 C 0.34699 0.49186 0.76847 0.0
C3417 C 0.3766 0.50767 0.77605 0.0
H3418 H 0.36451 0.53258 0.75058 0.0
C3419 C 0.39722 0.54491 0.73386 0.0
C3420 C 0.40381 0.53549 0.72655 0.0
C3421 C 0.39044 0.54131 0.7451 0.0
C3422 C 0.36802 0.52595 0.75794 0.0
H3423 H 0.34906 0.47832 0.80353 0.0
H3424 H 0.36003 0.4988 0.79807 0.0
H3425 H 0.34879 0.51974 0.76285 0.0
H3426 H 0.4094 0.51529 0.72561 0.0
H3427 H 0.39805 0.5091 0.7454 0.0
H3428 H 0.39585 0.51302 0.77027 0.0
C3429 C 0.35445 0.49384 0.79067 0.0
C3430 C 0.35903 0.51857 0.76491 0.0
C3431 C 0.34814 0.4822 0.7938 0.0
C3432 C 0.40442 0.52271 0.73114 0.0
C3433 C 0.39797 0.5192 0.74249 0.0
C3434 C 0.38559 0.51492 0.76896 0.0
C3435 C 0.35426 0.49855 0.77787 0.0
C3436 C 0.36325 0.50893 0.77357 0.0
C3437 C 0.39051 0.52834 0.74931 0.0
C3438 C 0.38139 0.52368 0.7594 0.0
H3439 H 0.33628 0.47468 0.76386 0.0
H3440 H 0.34681 0.49515 0.75849 0.0
H3441 H 0.38014 0.50025 0.7826 0.0
H3442 H 0.39652 0.55481 0.73039 0.0
H3443 H 0.3847 0.54851 0.75016 0.0
C3444 C 0.59539 0.97826 0.22804 0.0
C3445 C 0.59688 0.96552 0.22353 0.0
C3446 C 0.60158 0.98229 0.23938 0.0
C3447 C 0.61364 0.98758 0.26585 0.0
H3448 H 0.65073 0.98476 0.26017 0.0
C3449 C 0.65024 0.02058 0.29253 0.0
C3450 C 0.65651 0.02835 0.28326 0.0
C3451 C 0.64389 0.00916 0.28869 0.0
C3452 C 0.64041 0.98539 0.26209 0.0
H3453 H 0.60549 0.94679 0.22748 0.0
H3454 H 0.61682 0.95401 0.24723 0.0
H3455 H 0.63586 0.97118 0.24763 0.0
H3456 H 0.66191 0.02999 0.26303 0.0
H3457 H 0.65131 0.0099 0.25644 0.0
H3458 H 0.61818 0.00239 0.27972 0.0
C3459 C 0.61061 0.96076 0.24212 0.0
C3460 C 0.63191 0.97758 0.25497 0.0
C3461 C 0.6041 0.95663 0.2309 0.0
C3462 C 0.65716 0.02412 0.27035 0.0
C3463 C 0.65115 0.01259 0.2666 0.0
C3464 C 0.62216 0.99524 0.27312 0.0
C3465 C 0.60965 0.97374 0.24625 0.0
C3466 C 0.61843 0.97907 0.25633 0.0
C3467 C 0.64408 0.00523 0.27562 0.0
C3468 C 0.63559 0.99467 0.27083 0.0
H3469 H 0.58992 0.98529 0.22246 0.0
H3470 H 0.60079 0.99238 0.24222 0.0
H3471 H 0.60329 0.98889 0.26708 0.0
H3472 H 0.64951 0.02375 0.30252 0.0
H3473 H 0.63845 0.00367 0.29581 0.0
C3474 C 0.04468 0.76864 0.60218 0.0
C3475 C 0.03539 0.77578 0.59524 0.0
C3476 C 0.04108 0.75721 0.60862 0.0
C3477 C 0.01507 0.73266 0.61218 0.0
H3478 H 0.01837 0.73864 0.64918 0.0
C3479 C 0.97911 0.72795 0.65592 0.0
C3480 C 0.97497 0.71502 0.65525 0.0
C3481 C 0.99063 0.73177 0.64996 0.0
C3482 C 0.01763 0.73663 0.63889 0.0
H3483 H 0.01548 0.7762 0.58861 0.0
H3484 H 0.00931 0.75606 0.59936 0.0
H3485 H 0.03138 0.75141 0.63402 0.0
H3486 H 0.97976 0.69577 0.64836 0.0
H3487 H 0.99984 0.70259 0.6374 0.0
H3488 H 0.00067 0.71848 0.61704 0.0
C3489 C 0.01931 0.75925 0.59999 0.0
C3490 C 0.02511 0.74388 0.63021 0.0
C3491 C 0.02281 0.7708 0.59387 0.0
C3492 C 0.98287 0.70578 0.64911 0.0
C3493 C 0.99429 0.70968 0.64281 0.0
C3494 C 0.00773 0.72526 0.62087 0.0
C3495 C 0.02824 0.75263 0.60787 0.0
C3496 C 0.02341 0.74242 0.61677 0.0
C3497 C 0.99808 0.72278 0.64293 0.0
C3498 C 0.00847 0.72766 0.63427 0.0
H3499 H 0.05441 0.7724 0.60349 0.0
H3500 H 0.04812 0.75229 0.61468 0.0
H3501 H 0.0136 0.73134 0.60186 0.0
H3502 H 0.97311 0.73524 0.66055 0.0
H3503 H 0.99322 0.74196 0.65007 0.0
C3504 C 0.01815 0.79289 0.1478 0.0
C3505 C 0.02534 0.78317 0.15407 0.0
C3506 C 0.00647 0.78977 0.14156 0.0
C3507 C 0.98161 0.76404 0.13745 0.0
H3508 H 0.98678 0.76903 0.10052 0.0
C3509 C 0.97808 0.7295 0.0928 0.0
C3510 C 0.96558 0.72429 0.09394 0.0
C3511 C 0.98119 0.74122 0.09878 0.0
C3512 C 0.98497 0.76782 0.11081 0.0
H3513 H 0.02563 0.76296 0.15974 0.0
H3514 H 0.00512 0.75761 0.14933 0.0
H3515 H 0.99962 0.78161 0.11596 0.0
H3516 H 0.94628 0.72742 0.1016 0.0
H3517 H 0.95186 0.74787 0.11257 0.0
H3518 H 0.9677 0.74952 0.13228 0.0
C3519 C 0.00843 0.76758 0.14908 0.0
C3520 C 0.99227 0.77506 0.11965 0.0
C3521 C 0.02021 0.77061 0.15499 0.0
C3522 C 0.95596 0.73137 0.10049 0.0
C3523 C 0.95916 0.743 0.10679 0.0
C3524 C 0.97421 0.75691 0.12861 0.0
C3525 C 0.00171 0.77698 0.14185 0.0
C3526 C 0.99118 0.77269 0.13303 0.0
C3527 C 0.97192 0.74781 0.1063 0.0
C3528 C 0.97637 0.7582 0.11521 0.0
H3529 H 0.02203 0.80261 0.14687 0.0
H3530 H 0.00149 0.79716 0.136 0.0
H3531 H 0.98056 0.76208 0.14772 0.0
H3532 H 0.98565 0.72416 0.08784 0.0
H3533 H 0.99114 0.74457 0.09837 0.0
C3534 C 0.45885 0.73142 0.60192 0.0
C3535 C 0.46808 0.72364 0.5956 0.0
C3536 C 0.46273 0.74277 0.60832 0.0
C3537 C 0.48957 0.76612 0.61271 0.0
H3538 H 0.4847 0.76071 0.64964 0.0
C3539 C 0.52429 0.77001 0.65733 0.0
C3540 C 0.52894 0.78277 0.65658 0.0
C3541 C 0.51274 0.76655 0.65121 0.0
C3542 C 0.48588 0.76258 0.63936 0.0
H3543 H 0.48825 0.72204 0.59 0.0
H3544 H 0.49493 0.74206 0.60069 0.0
H3545 H 0.47177 0.74826 0.63413 0.0
H3546 H 0.52494 0.80211 0.64944 0.0
H3547 H 0.50483 0.79593 0.63821 0.0
H3548 H 0.50429 0.77982 0.61795 0.0
C3549 C 0.48476 0.7394 0.60086 0.0
C3550 C 0.47845 0.75551 0.63049 0.0
C3551 C 0.48097 0.72792 0.59478 0.0
C3552 C 0.52145 0.79223 0.65026 0.0
C3553 C 0.51002 0.7887 0.6438 0.0
C3554 C 0.49685 0.77335 0.62159 0.0
C3555 C 0.47581 0.74664 0.60815 0.0
C3556 C 0.48071 0.75675 0.6171 0.0
C3557 C 0.50578 0.77574 0.64393 0.0
C3558 C 0.49552 0.77115 0.63498 0.0
H3559 H 0.44888 0.72822 0.60279 0.0
H3560 H 0.45567 0.74818 0.61392 0.0
H3561 H 0.49148 0.76724 0.60244 0.0
H3562 H 0.52995 0.76254 0.66211 0.0
H3563 H 0.50979 0.75647 0.65134 0.0
C3564 C 0.48205 0.72601 0.1573 0.0
C3565 C 0.47708 0.7134 0.15632 0.0
C3566 C 0.49363 0.72931 0.15113 0.0
C3567 C 0.52022 0.73331 0.13909 0.0
H3568 H 0.5147 0.72874 0.10216 0.0
C3569 C 0.54587 0.76606 0.10207 0.0
C3570 C 0.53631 0.77323 0.09555 0.0
C3571 C 0.54257 0.75449 0.10842 0.0
C3572 C 0.51659 0.72985 0.11244 0.0
H3573 H 0.48046 0.69413 0.1487 0.0
H3574 H 0.50064 0.70004 0.13739 0.0
H3575 H 0.50203 0.71596 0.11759 0.0
H3576 H 0.51619 0.77359 0.08957 0.0
H3577 H 0.51053 0.75326 0.10017 0.0
H3578 H 0.53408 0.7479 0.13395 0.0
C3579 C 0.4957 0.70728 0.14319 0.0
C3580 C 0.5094 0.72249 0.12127 0.0
C3581 C 0.48422 0.70389 0.14968 0.0
C3582 C 0.52373 0.76818 0.09451 0.0
C3583 C 0.52052 0.7565 0.10053 0.0
C3584 C 0.52753 0.74056 0.13026 0.0
C3585 C 0.5003 0.72012 0.14359 0.0
C3586 C 0.51064 0.72468 0.13467 0.0
C3587 C 0.52975 0.74981 0.108 0.0
C3588 C 0.52526 0.73941 0.11686 0.0
H3589 H 0.47666 0.7335 0.16233 0.0
H3590 H 0.49682 0.73932 0.15147 0.0
H3591 H 0.52139 0.73514 0.14938 0.0
H3592 H 0.5556 0.76989 0.1031 0.0
H3593 H 0.54984 0.74952 0.11415 0.0
C3594 C 0.09961 0.545 0.76815 0.0
C3595 C 0.09302 0.53566 0.77558 0.0
C3596 C 0.10615 0.54131 0.75681 0.0
C3597 C 0.11069 0.51496 0.73292 0.0
H3598 H 0.14753 0.51919 0.73931 0.0
C3599 C 0.15492 0.47971 0.72921 0.0
C3600 C 0.1544 0.47542 0.71631 0.0
C3601 C 0.14887 0.49126 0.73282 0.0
C3602 C 0.13729 0.51819 0.73718 0.0
H3603 H 0.08709 0.51555 0.77656 0.0
H3604 H 0.09802 0.50923 0.75655 0.0
H3605 H 0.13191 0.53206 0.75168 0.0
H3606 H 0.14777 0.48002 0.69692 0.0
H3607 H 0.13668 0.50011 0.70337 0.0
H3608 H 0.11605 0.50048 0.71902 0.0
C3609 C 0.09829 0.51932 0.75948 0.0
C3610 C 0.12835 0.52559 0.7442 0.0
C3611 C 0.09207 0.52291 0.77094 0.0
C3612 C 0.14841 0.48324 0.7069 0.0
C3613 C 0.14203 0.49466 0.71059 0.0
C3614 C 0.11963 0.50773 0.72574 0.0
C3615 C 0.10586 0.52834 0.75261 0.0
C3616 C 0.11497 0.52355 0.74259 0.0
C3617 C 0.14191 0.49856 0.72365 0.0
C3618 C 0.13298 0.50881 0.72829 0.0
H3619 H 0.10059 0.55486 0.77164 0.0
H3620 H 0.11196 0.54842 0.7517 0.0
H3621 H 0.10042 0.51323 0.73152 0.0
H3622 H 0.15945 0.4738 0.73663 0.0
H3623 H 0.1488 0.49395 0.74298 0.0
C3624 C 0.20498 0.85138 0.01806 0.0
C3625 C 0.21466 0.84499 0.02521 0.0
C3626 C 0.20814 0.85767 0.00641 0.0
C3627 C 0.23378 0.86143 0.98142 0.0
H3628 H 0.22882 0.89844 0.98597 0.0
C3629 C 0.26815 0.9062 0.97655 0.0
C3630 C 0.27337 0.90459 0.96411 0.0
C3631 C 0.25644 0.90032 0.97989 0.0
C3632 C 0.23004 0.88813 0.98435 0.0
H3633 H 0.23484 0.83924 0.02547 0.0
H3634 H 0.24025 0.84974 0.00501 0.0
H3635 H 0.21638 0.88321 0.99922 0.0
H3636 H 0.27026 0.8962 0.94512 0.0
H3637 H 0.24981 0.88545 0.95109 0.0
H3638 H 0.24816 0.86634 0.96728 0.0
C3639 C 0.23029 0.85004 0.00834 0.0
C3640 C 0.22287 0.8794 0.99188 0.0
C3641 C 0.22722 0.84408 0.02008 0.0
C3642 C 0.2663 0.89769 0.95474 0.0
C3643 C 0.25467 0.8915 0.95817 0.0
C3644 C 0.24085 0.87014 0.9738 0.0
C3645 C 0.22092 0.85732 0.00163 0.0
C3646 C 0.22522 0.866 0.99099 0.0
C3647 C 0.24987 0.89242 0.97092 0.0
C3648 C 0.23957 0.88358 0.97572 0.0
H3649 H 0.19526 0.85232 0.02193 0.0
H3650 H 0.20076 0.86327 0.00144 0.0
H3651 H 0.23572 0.85114 0.98051 0.0
H3652 H 0.27351 0.91142 0.98394 0.0
H3653 H 0.25311 0.90108 0.98983 0.0
C3654 C 0.90044 0.95483 0.26789 0.0
C3655 C 0.90763 0.9642 0.27466 0.0
C3656 C 0.89405 0.95818 0.25636 0.0
C3657 C 0.89049 0.98386 0.23133 0.0
H3658 H 0.85363 0.98129 0.23841 0.0
C3659 C 0.8474 0.02076 0.2286 0.0
C3660 C 0.84778 0.02517 0.21574 0.0
C3661 C 0.85325 0.00905 0.23201 0.0
C3662 C 0.86387 0.98183 0.23609 0.0
H3663 H 0.9148 0.98392 0.27433 0.0
H3664 H 0.90413 0.98963 0.25404 0.0
H3665 H 0.86889 0.96796 0.25069 0.0
H3666 H 0.85403 0.02063 0.1962 0.0
H3667 H 0.8648 1.00022 0.20229 0.0
H3668 H 0.88551 0.99844 0.21739 0.0
C3669 C 0.90328 0.97977 0.25756 0.0
C3670 C 0.8726 0.97415 0.24305 0.0
C3671 C 0.90936 0.97653 0.2692 0.0
C3672 C 0.85353 0.01734 0.20617 0.0
C3673 C 0.85971 0.00574 0.20965 0.0
C3674 C 0.88174 0.99142 0.22424 0.0
C3675 C 0.89508 0.97083 0.25134 0.0
C3676 C 0.88603 0.97562 0.24124 0.0
C3677 C 0.85987 0.00166 0.22267 0.0
C3678 C 0.86841 0.99098 0.22707 0.0
H3679 H 0.89885 0.94531 0.27206 0.0
H3680 H 0.88775 0.95114 0.25176 0.0
H3681 H 0.9008 0.98515 0.22972 0.0
H3682 H 0.84304 0.02665 0.23614 0.0
H3683 H 0.85336 0.00625 0.24214 0.0
C3684 C 0.76975 0.65684 0.52279 0.0
C3685 C 0.78252 0.65607 0.5274 0.0
C3686 C 0.76628 0.65077 0.51121 0.0
C3687 C 0.77314 0.62127 0.49504 0.0
H3688 H 0.74781 0.63389 0.47025 0.0
C3689 C 0.73106 0.60155 0.45722 0.0
C3690 C 0.72342 0.59513 0.46649 0.0
C3691 C 0.74238 0.60805 0.46104 0.0
C3692 C 0.75512 0.63023 0.47685 0.0
H3693 H 0.80186 0.64896 0.52334 0.0
H3694 H 0.79564 0.63782 0.50318 0.0
H3695 H 0.76026 0.64935 0.48325 0.0
H3696 H 0.72194 0.58954 0.48666 0.0
H3697 H 0.74192 0.60037 0.49324 0.0
H3698 H 0.76711 0.60214 0.48952 0.0
C3699 C 0.78841 0.64338 0.50841 0.0
C3700 C 0.76219 0.63908 0.48432 0.0
C3701 C 0.79197 0.64978 0.51987 0.0
C3702 C 0.72776 0.59437 0.47935 0.0
C3703 C 0.7392 0.60053 0.48309 0.0
C3704 C 0.76592 0.61242 0.48772 0.0
C3705 C 0.77545 0.64354 0.50418 0.0
C3706 C 0.77085 0.63466 0.49387 0.0
C3707 C 0.74634 0.60787 0.4741 0.0
C3708 C 0.75646 0.61683 0.47896 0.0
H3709 H 0.7623 0.66161 0.52847 0.0
H3710 H 0.75618 0.65092 0.50827 0.0
H3711 H 0.77967 0.6176 0.5024 0.0
H3712 H 0.72777 0.60239 0.44727 0.0
H3713 H 0.7477 0.61371 0.45396 0.0
C3714 C 0.09998 0.45559 0.2324 0.0
C3715 C 0.09326 0.46482 0.22498 0.0
C3716 C 0.10635 0.45935 0.24383 0.0
C3717 C 0.1102 0.48618 0.26759 0.0
H3718 H 0.14715 0.4815 0.26231 0.0
C3719 C 0.14738 0.5193 0.29278 0.0
C3720 C 0.15405 0.52624 0.28314 0.0
C3721 C 0.14088 0.50776 0.28961 0.0
C3722 C 0.13687 0.48266 0.26413 0.0
H3723 H 0.08695 0.48481 0.22404 0.0
H3724 H 0.09758 0.49128 0.24413 0.0
H3725 H 0.13178 0.46834 0.24997 0.0
H3726 H 0.1601 0.52623 0.26304 0.0
H3727 H 0.14924 0.50595 0.25763 0.0
H3728 H 0.1153 0.50116 0.28105 0.0
C3729 C 0.09808 0.4812 0.24119 0.0
C3730 C 0.12806 0.47508 0.25713 0.0
C3731 C 0.09203 0.47752 0.22967 0.0
C3732 C 0.15505 0.521 0.27063 0.0
C3733 C 0.14888 0.50936 0.26756 0.0
C3734 C 0.11902 0.49365 0.27471 0.0
C3735 C 0.10576 0.47231 0.24811 0.0
C3736 C 0.11465 0.47726 0.25828 0.0
C3737 C 0.1413 0.50289 0.27687 0.0
C3738 C 0.13242 0.49243 0.27252 0.0
H3739 H 0.10118 0.44577 0.22886 0.0
H3740 H 0.11224 0.45233 0.24897 0.0
H3741 H 0.09992 0.48802 0.26869 0.0
H3742 H 0.14636 0.52327 0.30245 0.0
H3743 H 0.13507 0.50297 0.29694 0.0
C3744 C 0.23299 0.90066 0.54349 0.0
C3745 C 0.22527 0.9062 0.53373 0.0
C3746 C 0.24468 0.8945 0.54027 0.0
C3747 C 0.25909 0.87217 0.52643 0.0
H3748 H 0.2826 0.88404 0.49957 0.0
C3749 C 0.27382 0.84297 0.48242 0.0
C3750 C 0.28612 0.84452 0.47684 0.0
C3751 C 0.27064 0.84943 0.49387 0.0
C3752 C 0.27639 0.88061 0.50732 0.0
H3753 H 0.22408 0.91068 0.51325 0.0
H3754 H 0.24462 0.90039 0.5077 0.0
H3755 H 0.26937 0.89976 0.51136 0.0
H3756 H 0.30501 0.85339 0.47906 0.0
H3757 H 0.2993 0.86513 0.49902 0.0
H3758 H 0.26526 0.85292 0.52157 0.0
C3759 C 0.24168 0.90065 0.51779 0.0
C3760 C 0.26876 0.8896 0.51401 0.0
C3761 C 0.22989 0.90649 0.52094 0.0
C3762 C 0.29552 0.85192 0.48333 0.0
C3763 C 0.29223 0.85869 0.49467 0.0
C3764 C 0.2666 0.86316 0.51963 0.0
C3765 C 0.24894 0.89414 0.52732 0.0
C3766 C 0.25959 0.8854 0.52317 0.0
C3767 C 0.2796 0.85784 0.49977 0.0
C3768 C 0.27485 0.86724 0.50957 0.0
H3769 H 0.22954 0.90022 0.55341 0.0
H3770 H 0.25009 0.88952 0.54778 0.0
H3771 H 0.25205 0.86865 0.53339 0.0
H3772 H 0.2664 0.83739 0.47749 0.0
H3773 H 0.26078 0.84871 0.49745 0.0
C3774 C 0.85238 0.98249 0.79404 0.0
C3775 C 0.84644 0.97474 0.78453 0.0
C3776 C 0.85877 0.99397 0.79047 0.0
C3777 C 0.88091 0.00797 0.77561 0.0
H3778 H 0.868 0.03171 0.74943 0.0
C3779 C 0.90831 0.02313 0.73052 0.0
C3780 C 0.90658 0.03551 0.72517 0.0
C3781 C 0.9023 0.0198 0.74217 0.0
C3782 C 0.87174 0.02544 0.75699 0.0
H3783 H 0.84161 0.97322 0.76416 0.0
H3784 H 0.85228 0.9934 0.75801 0.0
H3785 H 0.85275 0.01844 0.7618 0.0
H3786 H 0.89788 0.0544 0.72802 0.0
H3787 H 0.88691 0.04842 0.74834 0.0
H3788 H 0.89997 0.01411 0.76996 0.0
C3789 C 0.85217 0.99064 0.76815 0.0
C3790 C 0.86301 0.01779 0.764 0.0
C3791 C 0.84611 0.97907 0.77165 0.0
C3792 C 0.89947 0.04484 0.73208 0.0
C3793 C 0.89315 0.0414 0.74364 0.0
C3794 C 0.88966 0.01549 0.76846 0.0
C3795 C 0.85894 0.99798 0.77743 0.0
C3796 C 0.86756 0.00857 0.77294 0.0
C3797 C 0.89417 0.0287 0.74853 0.0
C3798 C 0.88518 0.02384 0.75866 0.0
H3799 H 0.85284 0.97926 0.80402 0.0
H3800 H 0.86398 0.99943 0.79777 0.0
H3801 H 0.88468 0.00088 0.78238 0.0
H3802 H 0.91369 0.01577 0.72527 0.0
H3803 H 0.90314 0.0099 0.74559 0.0
C3804 C 0.76914 0.60444 0.04542 0.0
C3805 C 0.77582 0.59708 0.03611 0.0
C3806 C 0.75804 0.61146 0.04187 0.0
C3807 C 0.74565 0.63354 0.02561 0.0
H3808 H 0.719 0.62103 0.00219 0.0
C3809 C 0.73001 0.65842 0.97908 0.0
C3810 C 0.71702 0.65799 0.97508 0.0
C3811 C 0.73373 0.65289 0.99085 0.0
C3812 C 0.72613 0.6247 0.00897 0.0
H3813 H 0.77579 0.59041 0.01621 0.0
H3814 H 0.75618 0.60216 0.01015 0.0
H3815 H 0.7314 0.60557 0.01521 0.0
H3816 H 0.69758 0.6521 0.98042 0.0
H3817 H 0.7042 0.64193 0.00095 0.0
H3818 H 0.74122 0.65257 0.01845 0.0
C3819 C 0.75949 0.60266 0.02012 0.0
C3820 C 0.73326 0.61585 0.01637 0.0
C3821 C 0.77073 0.59597 0.02356 0.0
C3822 C 0.70764 0.65266 0.9834 0.0
C3823 C 0.71143 0.6468 0.99507 0.0
C3824 C 0.73866 0.64238 0.01806 0.0
C3825 C 0.75333 0.61087 0.02908 0.0
C3826 C 0.74345 0.62015 0.02432 0.0
C3827 C 0.72458 0.64654 0.9987 0.0
C3828 C 0.72924 0.63798 0.00926 0.0
H3829 H 0.77303 0.60555 0.05512 0.0
H3830 H 0.75349 0.61779 0.04892 0.0
H3831 H 0.75353 0.6371 0.03158 0.0
H3832 H 0.73741 0.66244 0.97278 0.0
H3833 H 0.74395 0.6527 0.99331 0.0
C3834 C 0.22957 0.65373 0.47657 0.0
C3835 C 0.21654 0.65347 0.47269 0.0
C3836 C 0.23348 0.6475 0.48791 0.0
C3837 C 0.22691 0.61851 0.50506 0.0
H3838 H 0.25276 0.63166 0.52904 0.0
C3839 C 0.26953 0.60002 0.54296 0.0
C3840 C 0.27696 0.59314 0.53386 0.0
C3841 C 0.25813 0.60632 0.53907 0.0
C3842 C 0.24531 0.62786 0.52267 0.0
H3843 H 0.19723 0.64693 0.47777 0.0
H3844 H 0.20421 0.63546 0.49752 0.0
H3845 H 0.24023 0.64682 0.51579 0.0
H3846 H 0.27794 0.58647 0.51399 0.0
H3847 H 0.25781 0.59695 0.50733 0.0
H3848 H 0.23286 0.59949 0.51107 0.0
C3849 C 0.21131 0.64078 0.49189 0.0
C3850 C 0.2382 0.63653 0.51505 0.0
C3851 C 0.20733 0.64736 0.48066 0.0
C3852 C 0.27228 0.59164 0.52118 0.0
C3853 C 0.26075 0.59762 0.51739 0.0
C3854 C 0.23418 0.60982 0.51252 0.0
C3855 C 0.22447 0.64059 0.49545 0.0
C3856 C 0.22932 0.63191 0.50581 0.0
C3857 C 0.25388 0.60551 0.52613 0.0
C3858 C 0.24381 0.61441 0.52101 0.0
H3859 H 0.23684 0.65836 0.47054 0.0
H3860 H 0.24371 0.64737 0.49034 0.0
H3861 H 0.2202 0.61469 0.49793 0.0
H3862 H 0.2731 0.60145 0.55275 0.0
H3863 H 0.25301 0.61239 0.54597 0.0
C3864 C 0.76883 0.39623 0.95682 0.0
C3865 C 0.77535 0.4039 0.966 0.0
C3866 C 0.75792 0.38899 0.9605 0.0
C3867 C 0.73345 0.38415 0.98629 0.0
H3868 H 0.74248 0.34767 0.98435 0.0
C3869 C 0.73144 0.34148 0.02371 0.0
C3870 C 0.71844 0.34156 0.02771 0.0
C3871 C 0.73503 0.34715 0.01196 0.0
C3872 C 0.73963 0.35778 0.98471 0.0
H3873 H 0.77518 0.41089 0.98579 0.0
H3874 H 0.75588 0.39874 0.99208 0.0
H3875 H 0.75422 0.36341 0.97103 0.0
H3876 H 0.69886 0.34695 0.02234 0.0
H3877 H 0.70523 0.35734 0.00186 0.0
H3878 H 0.71945 0.37863 0.0006 0.0
C3879 C 0.75917 0.39818 0.98211 0.0
C3880 C 0.74629 0.36678 0.97705 0.0
C3881 C 0.77023 0.4051 0.97854 0.0
C3882 C 0.70894 0.34666 0.01938 0.0
C3883 C 0.71258 0.35265 0.00773 0.0
C3884 C 0.72666 0.37513 0.99379 0.0
C3885 C 0.75323 0.38964 0.9733 0.0
C3886 C 0.7437 0.38011 0.97826 0.0
C3887 C 0.72571 0.35328 0.00412 0.0
C3888 C 0.73013 0.36195 0.99355 0.0
H3889 H 0.77275 0.39504 0.94714 0.0
H3890 H 0.75353 0.38243 0.95357 0.0
H3891 H 0.73129 0.39438 0.98739 0.0
H3892 H 0.73894 0.33764 0.03 0.0
H3893 H 0.74524 0.34761 0.0095 0.0
C3894 C 0.34447 0.51981 0.22763 0.0
C3895 C 0.34559 0.52494 0.21509 0.0
C3896 C 0.35051 0.50815 0.23083 0.0
C3897 C 0.36242 0.48147 0.23465 0.0
H3898 H 0.39939 0.48675 0.23017 0.0
C3899 C 0.39908 0.4551 0.26716 0.0
C3900 C 0.40571 0.46451 0.27444 0.0
C3901 C 0.39282 0.4586 0.25559 0.0
C3902 C 0.3891 0.48493 0.23126 0.0
H3903 H 0.35333 0.52173 0.19584 0.0
H3904 H 0.3644 0.50137 0.20158 0.0
H3905 H 0.38408 0.49968 0.21752 0.0
H3906 H 0.412 0.48452 0.27499 0.0
H3907 H 0.40156 0.49052 0.25467 0.0
H3908 H 0.36743 0.46741 0.24908 0.0
C3909 C 0.35859 0.50627 0.20883 0.0
C3910 C 0.38033 0.49227 0.22397 0.0
C3911 C 0.35222 0.51784 0.20554 0.0
C3912 C 0.40698 0.4771 0.26948 0.0
C3913 C 0.40104 0.48051 0.25782 0.0
C3914 C 0.37119 0.47401 0.24182 0.0
C3915 C 0.35808 0.50153 0.22162 0.0
C3916 C 0.36692 0.4911 0.22612 0.0
C3917 C 0.39343 0.47146 0.25104 0.0
C3918 C 0.3846 0.47618 0.2407 0.0
H3919 H 0.33945 0.52517 0.23516 0.0
H3920 H 0.35008 0.50484 0.2408 0.0
H3921 H 0.35212 0.48035 0.23645 0.0
H3922 H 0.39785 0.44536 0.27091 0.0
H3923 H 0.38698 0.45146 0.25056 0.0
C3924 C 0.23174 0.10161 0.45709 0.0
C3925 C 0.22447 0.09501 0.46652 0.0
C3926 C 0.24303 0.10832 0.46065 0.0
C3927 C 0.26704 0.11318 0.48692 0.0
H3928 H 0.26093 0.14998 0.48202 0.0
C3929 C 0.29315 0.15096 0.5184 0.0
C3930 C 0.28375 0.15737 0.52589 0.0
C3931 C 0.28953 0.14449 0.50699 0.0
C3932 C 0.26298 0.13974 0.48322 0.0
H3933 H 0.22363 0.0893 0.4867 0.0
H3934 H 0.24355 0.1005 0.49282 0.0
H3935 H 0.24843 0.13421 0.46945 0.0
H3936 H 0.26357 0.163 0.52696 0.0
H3937 H 0.25735 0.15222 0.50685 0.0
H3938 H 0.28097 0.11869 0.50131 0.0
C3939 C 0.24057 0.10065 0.48273 0.0
C3940 C 0.25588 0.13072 0.47599 0.0
C3941 C 0.22916 0.09426 0.47926 0.0
C3942 C 0.27099 0.15821 0.52127 0.0
C3943 C 0.26745 0.15206 0.50974 0.0
C3944 C 0.27428 0.1222 0.494 0.0
C3945 C 0.24732 0.10819 0.47361 0.0
C3946 C 0.25739 0.11736 0.47826 0.0
C3947 C 0.27655 0.14465 0.5028 0.0
C3948 C 0.27184 0.13556 0.49269 0.0
H3949 H 0.22817 0.10245 0.44724 0.0
H3950 H 0.24805 0.11411 0.45346 0.0
H3951 H 0.26839 0.10293 0.48883 0.0
H3952 H 0.30301 0.15004 0.52191 0.0
H3953 H 0.29671 0.13881 0.50183 0.0
C3954 C 0.77202 0.34592 0.4799 0.0
C3955 C 0.78461 0.34693 0.47488 0.0
C3956 C 0.76871 0.35216 0.49143 0.0
C3957 C 0.76477 0.36425 0.51803 0.0
H3958 H 0.76925 0.40122 0.51265 0.0
C3959 C 0.73239 0.4009 0.54453 0.0
C3960 C 0.7251 0.40761 0.53519 0.0
C3961 C 0.74394 0.39464 0.54096 0.0
C3962 C 0.76816 0.39093 0.51449 0.0
H3963 H 0.80383 0.35473 0.47813 0.0
H3964 H 0.7979 0.36614 0.49825 0.0
H3965 H 0.78188 0.38586 0.49973 0.0
H3966 H 0.72453 0.41405 0.51522 0.0
H3967 H 0.74482 0.40361 0.5091 0.0
H3968 H 0.75037 0.3693 0.53211 0.0
C3969 C 0.79069 0.36027 0.49337 0.0
C3970 C 0.77544 0.38213 0.50715 0.0
C3971 C 0.79409 0.3537 0.48194 0.0
C3972 C 0.73005 0.40898 0.52259 0.0
C3973 C 0.74169 0.40303 0.51912 0.0
C3974 C 0.75761 0.37305 0.52547 0.0
C3975 C 0.77786 0.35982 0.49803 0.0
C3976 C 0.7733 0.36872 0.50837 0.0
C3977 C 0.74846 0.39532 0.52809 0.0
C3978 C 0.75874 0.38646 0.52328 0.0
H3979 H 0.76454 0.3408 0.47456 0.0
H3980 H 0.75872 0.35177 0.49467 0.0
H3981 H 0.76298 0.35396 0.51919 0.0
H3982 H 0.72864 0.39959 0.55426 0.0
H3983 H 0.74896 0.38874 0.54805 0.0
C3984 C 0.39801 0.04274 0.2322 0.0
C3985 C 0.40458 0.03317 0.22508 0.0
C3986 C 0.39151 0.03943 0.24369 0.0
C3987 C 0.36955 0.02434 0.25751 0.0
H3988 H 0.3823 0.99946 0.28269 0.0
C3989 C 0.34266 0.97912 0.27343 0.0
C3990 C 0.34359 0.97464 0.28624 0.0
C3991 C 0.34882 0.99057 0.26972 0.0
C3992 C 0.3786 0.00665 0.27598 0.0
H3993 H 0.41045 0.01302 0.22472 0.0
H3994 H 0.39958 0.00735 0.24493 0.0
H3995 H 0.39769 0.0119 0.26962 0.0
H3996 H 0.35113 0.97878 0.30539 0.0
H3997 H 0.36241 0.99874 0.29875 0.0
H3998 H 0.35045 0.01822 0.26304 0.0
C3999 C 0.3993 0.01735 0.24169 0.0
C4000 C 0.3874 0.01371 0.26846 0.0
C4001 C 0.40547 0.02056 0.23009 0.0
C4002 C 0.35018 0.98216 0.29549 0.0
C4003 C 0.35666 0.99351 0.29169 0.0
C4004 C 0.36074 0.01714 0.2649 0.0
C4005 C 0.39183 0.02661 0.24834 0.0
C4006 C 0.38295 0.02217 0.25875 0.0
C4007 C 0.35631 0.99761 0.27867 0.0
C4008 C 0.36519 0.0078 0.27378 0.0
H4009 H 0.3971 0.0525 0.22841 0.0
H4010 H 0.38578 0.04673 0.24862 0.0
H4011 H 0.36584 0.03072 0.25003 0.0
H4012 H 0.33768 0.97342 0.26614 0.0
H4013 H 0.34851 0.99339 0.2596 0.0
C4014 C 0.60321 0.45622 0.73183 0.0
C4015 C 0.59558 0.46546 0.72536 0.0
C4016 C 0.61003 0.4597 0.74308 0.0
C4017 C 0.63169 0.47605 0.75568 0.0
H4018 H 0.61917 0.49961 0.78221 0.0
C4019 C 0.65684 0.5226 0.7708 0.0
C4020 C 0.65662 0.52668 0.78378 0.0
C4021 C 0.65105 0.51093 0.76718 0.0
C4022 C 0.62285 0.49279 0.7751 0.0
H4023 H 0.58819 0.48509 0.72592 0.0
H4024 H 0.59962 0.49101 0.74575 0.0
H4025 H 0.60374 0.48632 0.77005 0.0
H4026 H 0.65075 0.52155 0.80329 0.0
H4027 H 0.64011 0.5012 0.79685 0.0
H4028 H 0.65069 0.48338 0.75993 0.0
C4029 C 0.60046 0.48115 0.74221 0.0
C4030 C 0.61401 0.48524 0.76811 0.0
C4031 C 0.59394 0.47779 0.73084 0.0
C4032 C 0.65113 0.51854 0.79323 0.0
C4033 C 0.64501 0.50696 0.78955 0.0
C4034 C 0.64051 0.48373 0.76255 0.0
C4035 C 0.60902 0.47234 0.74812 0.0
C4036 C 0.6183 0.47724 0.75794 0.0
C4037 C 0.64465 0.50323 0.77643 0.0
C4038 C 0.6361 0.4926 0.77191 0.0
H4039 H 0.60473 0.44671 0.72764 0.0
H4040 H 0.6166 0.45276 0.74744 0.0
H4041 H 0.63527 0.47004 0.74783 0.0
H4042 H 0.66101 0.52873 0.76335 0.0
H4043 H 0.65078 0.5084 0.75699 0.0
C4044 C 0.48153 0.29547 0.85317 0.0
C4045 C 0.47448 0.2867 0.84548 0.0
C4046 C 0.49314 0.29154 0.85909 0.0
C4047 C 0.51839 0.26607 0.85891 0.0
H4048 H 0.51439 0.26513 0.89633 0.0
C4049 C 0.52932 0.22184 0.8884 0.0
C4050 C 0.53558 0.22248 0.90047 0.0
C4051 C 0.52625 0.23307 0.88163 0.0
C4052 C 0.51594 0.26564 0.88594 0.0
H4053 H 0.47419 0.2674 0.83727 0.0
H4054 H 0.49463 0.26072 0.84709 0.0
H4055 H 0.50082 0.2797 0.88339 0.0
H4056 H 0.54372 0.23539 0.91491 0.0
H4057 H 0.53775 0.25542 0.90312 0.0
H4058 H 0.53277 0.2513 0.86135 0.0
C4059 C 0.49127 0.27056 0.84866 0.0
C4060 C 0.50817 0.27397 0.87853 0.0
C4061 C 0.47957 0.27434 0.84306 0.0
C4062 C 0.53888 0.23467 0.9056 0.0
C4063 C 0.5355 0.24606 0.89889 0.0
C4064 C 0.52616 0.25781 0.8663 0.0
C4065 C 0.49796 0.27894 0.85708 0.0
C4066 C 0.50881 0.27367 0.8649 0.0
C4067 C 0.52917 0.24531 0.8868 0.0
C4068 C 0.52445 0.25694 0.8798 0.0
H4069 H 0.47762 0.30498 0.85531 0.0
H4070 H 0.49808 0.29815 0.86561 0.0
H4071 H 0.51917 0.26576 0.84843 0.0
H4072 H 0.52675 0.21258 0.88413 0.0
H4073 H 0.52116 0.23217 0.87247 0.0
C4074 C 0.52061 0.22775 0.34233 0.0
C4075 C 0.52619 0.21544 0.3438 0.0
C4076 C 0.50889 0.23071 0.34839 0.0
C4077 C 0.49408 0.22418 0.37878 0.0
H4078 H 0.46842 0.24861 0.36614 0.0
C4079 C 0.457 0.26719 0.39801 0.0
C4080 C 0.46654 0.27482 0.40405 0.0
C4081 C 0.46046 0.25558 0.3918 0.0
C4082 C 0.47525 0.24154 0.36983 0.0
H4083 H 0.52372 0.19632 0.35211 0.0
H4084 H 0.50327 0.20166 0.36319 0.0
H4085 H 0.481 0.23576 0.3507 0.0
H4086 H 0.48682 0.27593 0.40935 0.0
H4087 H 0.49278 0.25556 0.39898 0.0
H4088 H 0.48915 0.23082 0.39786 0.0
C4089 C 0.50784 0.2089 0.3571 0.0
C4090 C 0.4825 0.23424 0.36099 0.0
C4091 C 0.51946 0.20583 0.35072 0.0
C4092 C 0.4793 0.27019 0.40476 0.0
C4093 C 0.48269 0.25849 0.39888 0.0
C4094 C 0.48695 0.2316 0.38761 0.0
C4095 C 0.50269 0.22152 0.35633 0.0
C4096 C 0.49242 0.22598 0.36536 0.0
C4097 C 0.47343 0.25133 0.39189 0.0
C4098 C 0.47793 0.24081 0.38318 0.0
H4099 H 0.5257 0.23532 0.33711 0.0
H4100 H 0.50527 0.24056 0.34775 0.0
H4101 H 0.50171 0.21796 0.38244 0.0
H4102 H 0.44711 0.27065 0.39724 0.0
H4103 H 0.45316 0.25025 0.38645 0.0
C4104 C 0.47887 0.77324 0.34551 0.0
C4105 C 0.47382 0.78579 0.34679 0.0
C4106 C 0.49021 0.76973 0.352 0.0
C4107 C 0.50447 0.77522 0.38276 0.0
H4108 H 0.53032 0.75098 0.37012 0.0
C4109 C 0.51898 0.72855 0.40797 0.0
C4110 C 0.53183 0.72413 0.40746 0.0
C4111 C 0.51557 0.74035 0.40229 0.0
C4112 C 0.52342 0.75799 0.37383 0.0
H4113 H 0.47681 0.80475 0.35529 0.0
H4114 H 0.49655 0.79845 0.36716 0.0
H4115 H 0.5181 0.76422 0.35471 0.0
H4116 H 0.55135 0.72875 0.40125 0.0
H4117 H 0.54527 0.74932 0.39082 0.0
H4118 H 0.50894 0.76811 0.40179 0.0
C4119 C 0.49187 0.79144 0.36087 0.0
C4120 C 0.51639 0.76551 0.365 0.0
C4121 C 0.48066 0.79505 0.35406 0.0
C4122 C 0.5414 0.73205 0.40187 0.0
C4123 C 0.53792 0.74375 0.39587 0.0
C4124 C 0.51136 0.76756 0.39157 0.0
C4125 C 0.49652 0.77863 0.36017 0.0
C4126 C 0.50645 0.77375 0.36935 0.0
C4127 C 0.52489 0.74781 0.39572 0.0
C4128 C 0.52047 0.75845 0.38713 0.0
H4129 H 0.47369 0.76593 0.34001 0.0
H4130 H 0.49346 0.75975 0.35141 0.0
H4131 H 0.49679 0.78142 0.38638 0.0
H4132 H 0.51143 0.72258 0.4122 0.0
H4133 H 0.50543 0.74314 0.4022 0.0
C4134 C 0.51705 0.70607 0.85108 0.0
C4135 C 0.52458 0.71544 0.84469 0.0
C4136 C 0.50545 0.70967 0.85721 0.0
C4137 C 0.49186 0.72514 0.87892 0.0
H4138 H 0.46768 0.75095 0.86608 0.0
C4139 C 0.47716 0.77075 0.90593 0.0
C4140 C 0.46441 0.77543 0.90516 0.0
C4141 C 0.48064 0.75931 0.89961 0.0
C4142 C 0.47411 0.74351 0.8698 0.0
H4143 H 0.52557 0.73552 0.83869 0.0
H4144 H 0.50517 0.74172 0.8489 0.0
H4145 H 0.48043 0.73812 0.85073 0.0
H4146 H 0.44515 0.77169 0.8977 0.0
H4147 H 0.4514 0.75177 0.88611 0.0
H4148 H 0.4864 0.73138 0.898 0.0
C4149 C 0.50815 0.73165 0.84931 0.0
C4150 C 0.48144 0.73622 0.86102 0.0
C4151 C 0.51985 0.72813 0.8435 0.0
C4152 C 0.45501 0.76815 0.89853 0.0
C4153 C 0.45858 0.75683 0.89188 0.0
C4154 C 0.48467 0.73256 0.8877 0.0
C4155 C 0.50113 0.72261 0.85671 0.0
C4156 C 0.4908 0.72739 0.86551 0.0
C4157 C 0.47152 0.7525 0.89213 0.0
C4158 C 0.47616 0.74222 0.88321 0.0
H4159 H 0.52063 0.69626 0.85225 0.0
H4160 H 0.50022 0.70254 0.86289 0.0
H4161 H 0.49907 0.71848 0.88267 0.0
H4162 H 0.48457 0.77626 0.91095 0.0
H4163 H 0.49071 0.75631 0.89984 0.0
C4164 C 0.65709 0.97993 0.72771 0.0
C4165 C 0.65617 0.97547 0.71489 0.0
C4166 C 0.65094 0.99139 0.73142 0.0
C4167 C 0.62112 0.00719 0.72535 0.0
H4168 H 0.63391 0.03171 0.75087 0.0
C4169 C 0.60186 0.04356 0.76891 0.0
C4170 C 0.59576 0.03396 0.77642 0.0
C4171 C 0.60813 0.04018 0.75732 0.0
C4172 C 0.63019 0.02519 0.74351 0.0
H4173 H 0.64867 0.97963 0.69573 0.0
H4174 H 0.63738 0.99959 0.70239 0.0
H4175 H 0.64929 0.01925 0.7378 0.0
H4176 H 0.59045 0.01368 0.77737 0.0
H4177 H 0.60089 0.00788 0.75695 0.0
H4178 H 0.60205 0.01223 0.73195 0.0
C4179 C 0.64314 0.99435 0.70944 0.0
C4180 C 0.63899 0.01803 0.73608 0.0
C4181 C 0.64962 0.98301 0.70564 0.0
C4182 C 0.59506 0.02124 0.77169 0.0
C4183 C 0.60098 0.01795 0.75998 0.0
C4184 C 0.61232 0.0142 0.73292 0.0
C4185 C 0.64347 0.99843 0.72246 0.0
C4186 C 0.63454 0.00856 0.72736 0.0
C4187 C 0.60802 0.02726 0.75295 0.0
C4188 C 0.6168 0.02284 0.74247 0.0
H4189 H 0.66203 0.9742 0.73501 0.0
H4190 H 0.65122 0.99419 0.74155 0.0
H4191 H 0.61743 0.99987 0.71877 0.0
H4192 H 0.60264 0.05341 0.77249 0.0
H4193 H 0.61355 0.04751 0.75209 0.0
C4194 C 0.65598 0.47944 0.22965 0.0
C4195 C 0.65555 0.47516 0.21674 0.0
C4196 C 0.64993 0.49099 0.23324 0.0
C4197 C 0.6387 0.51799 0.23764 0.0
H4198 H 0.60183 0.51399 0.23128 0.0
C4199 C 0.6013 0.5449 0.26877 0.0
C4200 C 0.59432 0.53553 0.27576 0.0
C4201 C 0.6079 0.5414 0.2574 0.0
C4202 C 0.61211 0.51546 0.23288 0.0
H4203 H 0.64906 0.47982 0.19731 0.0
H4204 H 0.63799 0.49993 0.20371 0.0
H4205 H 0.61735 0.50098 0.21894 0.0
H4206 H 0.58776 0.5156 0.27597 0.0
H4207 H 0.59878 0.50961 0.25593 0.0
H4208 H 0.63341 0.53181 0.25221 0.0
C4209 C 0.64324 0.49444 0.21097 0.0
C4210 C 0.621 0.50807 0.22579 0.0
C4211 C 0.6496 0.48299 0.20731 0.0
C4212 C 0.59304 0.52299 0.27067 0.0
C4213 C 0.59931 0.51959 0.25918 0.0
C4214 C 0.62982 0.52552 0.24459 0.0
C4215 C 0.64308 0.49835 0.22403 0.0
C4216 C 0.63432 0.50878 0.2286 0.0
C4217 C 0.60727 0.52859 0.25275 0.0
C4218 C 0.61642 0.52382 0.24275 0.0
H4219 H 0.6605 0.47354 0.23709 0.0
H4220 H 0.64984 0.49368 0.2434 0.0
H4221 H 0.64892 0.51873 0.23994 0.0
H4222 H 0.60254 0.5546 0.27264 0.0
H4223 H 0.61402 0.54849 0.25263 0.0
C4224 C 0.07385 0.34565 0.0609 0.0
C4225 C 0.07232 0.33496 0.06922 0.0
C4226 C 0.08615 0.34959 0.05693 0.0
C4227 C 0.11946 0.35057 0.06764 0.0
H4228 H 0.12623 0.36143 0.03225 0.0
C4229 C 0.16722 0.37629 0.05338 0.0
C4230 C 0.16594 0.38697 0.045 0.0
C4231 C 0.15678 0.36788 0.05545 0.0
C4232 C 0.12448 0.35853 0.0422 0.0
H4233 H 0.08248 0.31985 0.07972 0.0
H4234 H 0.10421 0.327 0.07296 0.0
H4235 H 0.10612 0.35007 0.03739 0.0
H4236 H 0.15282 0.39712 0.03209 0.0
H4237 H 0.13454 0.38269 0.03592 0.0
H4238 H 0.13749 0.35957 0.07262 0.0
C4239 C 0.09578 0.33221 0.06947 0.0
C4240 C 0.113 0.35195 0.04511 0.0
C4241 C 0.08338 0.3281 0.07328 0.0
C4242 C 0.15411 0.38896 0.03857 0.0
C4243 C 0.14365 0.3806 0.0407 0.0
C4244 C 0.13091 0.35727 0.06476 0.0
C4245 C 0.09725 0.34305 0.06131 0.0
C4246 C 0.11024 0.34818 0.05791 0.0
C4247 C 0.14482 0.37 0.04924 0.0
C4248 C 0.13341 0.36161 0.05205 0.0
H4249 H 0.06551 0.35109 0.05754 0.0
H4250 H 0.08699 0.35806 0.05076 0.0
H4251 H 0.11752 0.34789 0.07762 0.0
H4252 H 0.17626 0.37448 0.05842 0.0
H4253 H 0.15809 0.35972 0.06195 0.0
C4254 C 0.91821 0.33198 0.32567 0.0
C4255 C 0.91248 0.32055 0.32095 0.0
C4256 C 0.91313 0.34413 0.3222 0.0
C4257 C 0.88238 0.35832 0.31011 0.0
H4258 H 0.90287 0.38923 0.30381 0.0
C4259 C 0.85996 0.40363 0.28746 0.0
C4260 C 0.86199 0.41534 0.29411 0.0
C4261 C 0.86721 0.39264 0.29056 0.0
C4262 C 0.89706 0.38066 0.30562 0.0
H4263 H 0.89763 0.31283 0.30821 0.0
H4264 H 0.88915 0.33381 0.30183 0.0
H4265 H 0.91375 0.36882 0.30945 0.0
H4266 H 0.87363 0.4249 0.30881 0.0
H4267 H 0.88646 0.40561 0.31413 0.0
H4268 H 0.86575 0.37001 0.30607 0.0
C4269 C 0.89718 0.33352 0.30861 0.0
C4270 C 0.90327 0.369 0.30889 0.0
C4271 C 0.90209 0.32148 0.3122 0.0
C4272 C 0.87182 0.41598 0.30355 0.0
C4273 C 0.87919 0.40498 0.30657 0.0
C4274 C 0.87624 0.36986 0.30673 0.0
C4275 C 0.90234 0.345 0.31386 0.0
C4276 C 0.89598 0.35764 0.31098 0.0
C4277 C 0.87675 0.39314 0.30029 0.0
C4278 C 0.8835 0.38111 0.3043 0.0
H4279 H 0.92623 0.33152 0.33245 0.0
H4280 H 0.91733 0.35277 0.32644 0.0
H4281 H 0.87641 0.34989 0.31205 0.0
H4282 H 0.85253 0.40284 0.28007 0.0
H4283 H 0.86525 0.38366 0.28546 0.0
C4284 C 0.84702 0.11191 0.53763 0.0
C4285 C 0.83511 0.1135 0.54403 0.0
C4286 C 0.85725 0.12048 0.53994 0.0
C4287 C 0.86945 0.14349 0.56448 0.0
H4288 H 0.89411 0.15182 0.53732 0.0
C4289 C 0.91681 0.17264 0.57398 0.0
C4290 C 0.92789 0.166 0.56962 0.0
C4291 C 0.90442 0.16863 0.57002 0.0
C4292 C 0.88726 0.14963 0.54498 0.0
H4293 H 0.82443 0.12553 0.55758 0.0
H4294 H 0.84225 0.14065 0.56146 0.0
H4295 H 0.87416 0.14032 0.53187 0.0
H4296 H 0.93475 0.1504 0.55725 0.0
H4297 H 0.91329 0.14361 0.55026 0.0
H4298 H 0.88275 0.15265 0.57761 0.0
C4299 C 0.84376 0.13264 0.55483 0.0
C4300 C 0.87587 0.14298 0.54189 0.0
C4301 C 0.83353 0.12402 0.55255 0.0
C4302 C 0.9264 0.15566 0.56086 0.0
C4303 C 0.9141 0.15183 0.55676 0.0
C4304 C 0.88082 0.15025 0.56756 0.0
C4305 C 0.85579 0.1309 0.54864 0.0
C4306 C 0.86701 0.13948 0.55166 0.0
C4307 C 0.90298 0.15812 0.56143 0.0
C4308 C 0.89 0.15304 0.55789 0.0
H4309 H 0.84854 0.10388 0.53103 0.0
H4310 H 0.86644 0.11869 0.53517 0.0
H4311 H 0.86292 0.14087 0.57228 0.0
H4312 H 0.91769 0.18062 0.58076 0.0
H4313 H 0.89598 0.17366 0.57375 0.0
C4314 C 0.13772 0.09847 0.78568 0.0
C4315 C 0.13595 0.0863 0.79152 0.0
C4316 C 0.12888 0.1085 0.78788 0.0
C4317 C 0.10474 0.11947 0.81183 0.0
H4318 H 0.09802 0.14567 0.78568 0.0
C4319 C 0.07674 0.16702 0.82307 0.0
C4320 C 0.08395 0.17808 0.81966 0.0
C4321 C 0.08035 0.15477 0.81839 0.0
C4322 C 0.09974 0.13838 0.79305 0.0
H4323 H 0.12329 0.07491 0.80387 0.0
H4324 H 0.10772 0.09239 0.80756 0.0
H4325 H 0.10941 0.12581 0.77968 0.0
H4326 H 0.10012 0.18511 0.80817 0.0
H4327 H 0.10624 0.1639 0.7999 0.0
H4328 H 0.09529 0.13224 0.82524 0.0
C4329 C 0.11606 0.09425 0.80146 0.0
C4330 C 0.10633 0.12704 0.78965 0.0
C4331 C 0.12494 0.08422 0.79928 0.0
C4332 C 0.09442 0.17676 0.81104 0.0
C4333 C 0.09787 0.16461 0.80621 0.0
C4334 C 0.09806 0.13079 0.81521 0.0
C4335 C 0.11802 0.10657 0.79592 0.0
C4336 C 0.1093 0.11764 0.79908 0.0
C4337 C 0.09105 0.15346 0.81001 0.0
C4338 C 0.09587 0.14053 0.80594 0.0
H4339 H 0.14611 0.10038 0.77965 0.0
H4340 H 0.13084 0.1179 0.78362 0.0
H4341 H 0.10694 0.11251 0.81938 0.0
H4342 H 0.06864 0.16776 0.82973 0.0
H4343 H 0.07492 0.14631 0.82144 0.0
C4344 C 0.06862 0.65364 0.93501 0.0
C4345 C 0.06857 0.66465 0.92699 0.0
C4346 C 0.08025 0.64798 0.93885 0.0
C4347 C 0.11581 0.65254 0.941 0.0
H4348 H 0.11541 0.6149 0.94021 0.0
C4349 C 0.16171 0.62001 0.94605 0.0
C4350 C 0.16048 0.60914 0.95419 0.0
C4351 C 0.15091 0.62764 0.94307 0.0
C4352 C 0.11565 0.6254 0.9406 0.0
H4353 H 0.08067 0.67872 0.91713 0.0
H4354 H 0.10121 0.66855 0.92361 0.0
H4355 H 0.096 0.62686 0.93431 0.0
H4356 H 0.14704 0.59787 0.9658 0.0
H4357 H 0.12816 0.61113 0.96052 0.0
H4358 H 0.13566 0.65091 0.9471 0.0
C4359 C 0.09218 0.66442 0.92706 0.0
C4360 C 0.10451 0.63228 0.93725 0.0
C4361 C 0.08045 0.67024 0.92333 0.0
C4362 C 0.14828 0.60615 0.95945 0.0
C4363 C 0.13747 0.61371 0.95639 0.0
C4364 C 0.12703 0.64561 0.94428 0.0
C4365 C 0.09217 0.65302 0.93459 0.0
C4366 C 0.10437 0.64592 0.9376 0.0
C4367 C 0.13865 0.62446 0.94808 0.0
C4368 C 0.12698 0.63197 0.94428 0.0
H4369 H 0.05961 0.64926 0.93819 0.0
H4370 H 0.07987 0.63946 0.945 0.0
H4371 H 0.116 0.66303 0.94142 0.0
H4372 H 0.17101 0.62256 0.94187 0.0
H4373 H 0.15207 0.63582 0.93656 0.0
C4374 C 0.57993 0.33381 0.17584 0.0
C4375 C 0.58605 0.32208 0.1791 0.0
C4376 C 0.58512 0.34566 0.18009 0.0
C4377 C 0.61651 0.35913 0.19133 0.0
H4378 H 0.59628 0.3892 0.20139 0.0
C4379 C 0.64065 0.40345 0.21429 0.0
C4380 C 0.6377 0.41547 0.20861 0.0
C4381 C 0.6332 0.39251 0.21145 0.0
C4382 C 0.60202 0.38087 0.19854 0.0
H4383 H 0.60175 0.31345 0.19012 0.0
H4384 H 0.61046 0.33388 0.19785 0.0
H4385 H 0.58519 0.36913 0.19502 0.0
H4386 H 0.62423 0.42562 0.19602 0.0
H4387 H 0.61112 0.40643 0.19112 0.0
H4388 H 0.6333 0.37073 0.19494 0.0
C4389 C 0.60201 0.33409 0.19161 0.0
C4390 C 0.59568 0.3694 0.19486 0.0
C4391 C 0.59697 0.32236 0.18723 0.0
C4392 C 0.62676 0.41647 0.20052 0.0
C4393 C 0.61923 0.40551 0.19775 0.0
C4394 C 0.62279 0.37048 0.19511 0.0
C4395 C 0.59643 0.34593 0.18777 0.0
C4396 C 0.60288 0.35835 0.19134 0.0
C4397 C 0.62258 0.39336 0.20294 0.0
C4398 C 0.61564 0.38144 0.19886 0.0
H4399 H 0.5715 0.33385 0.16957 0.0
H4400 H 0.58059 0.3546 0.17694 0.0
H4401 H 0.62239 0.35097 0.1883 0.0
H4402 H 0.64895 0.40239 0.22064 0.0
H4403 H 0.63589 0.3833 0.21573 0.0
C4404 C 0.83512 0.8777 0.44597 0.0
C4405 C 0.8366 0.88809 0.45468 0.0
C4406 C 0.84538 0.86912 0.44367 0.0
C4407 C 0.87112 0.85812 0.43426 0.0
H4408 H 0.89543 0.84962 0.46167 0.0
C4409 C 0.91819 0.82827 0.42543 0.0
C4410 C 0.92932 0.83483 0.42979 0.0
C4411 C 0.90582 0.83248 0.42923 0.0
C4412 C 0.88868 0.85186 0.45394 0.0
H4413 H 0.84994 0.89758 0.46787 0.0
H4414 H 0.8679 0.88288 0.46365 0.0
H4415 H 0.87553 0.86129 0.46691 0.0
H4416 H 0.93628 0.85051 0.44199 0.0
H4417 H 0.91485 0.85765 0.44874 0.0
H4418 H 0.88444 0.8488 0.42128 0.0
C4419 C 0.85875 0.88113 0.45879 0.0
C4420 C 0.87732 0.85862 0.45691 0.0
C4421 C 0.84848 0.88965 0.46114 0.0
C4422 C 0.92788 0.84531 0.43839 0.0
C4423 C 0.91561 0.84934 0.44235 0.0
C4424 C 0.88244 0.85125 0.43131 0.0
C4425 C 0.85736 0.87079 0.44998 0.0
C4426 C 0.86858 0.86218 0.44705 0.0
C4427 C 0.90444 0.84312 0.43767 0.0
C4428 C 0.8915 0.84839 0.44107 0.0
H4429 H 0.82604 0.87622 0.44089 0.0
H4430 H 0.84392 0.86119 0.43694 0.0
H4431 H 0.86467 0.86079 0.4264 0.0
H4432 H 0.91902 0.82019 0.41876 0.0
H4433 H 0.89734 0.82752 0.4255 0.0
C4434 C 0.37472 0.08181 0.69449 0.0
C4435 C 0.36594 0.08373 0.70475 0.0
C4436 C 0.38313 0.09173 0.69069 0.0
C4437 C 0.39746 0.12302 0.70094 0.0
H4438 H 0.39707 0.13099 0.66416 0.0
C4439 C 0.40375 0.17052 0.66759 0.0
C4440 C 0.41548 0.17573 0.67215 0.0
C4441 C 0.40015 0.15787 0.67075 0.0
C4442 C 0.39737 0.12881 0.67444 0.0
H4443 H 0.35944 0.09736 0.71939 0.0
H4444 H 0.37415 0.11469 0.71275 0.0
H4445 H 0.38622 0.11147 0.67203 0.0
H4446 H 0.43288 0.17166 0.68323 0.0
H4447 H 0.42644 0.14946 0.68898 0.0
H4448 H 0.40818 0.14066 0.70337 0.0
C4449 C 0.37457 0.10549 0.70769 0.0
C4450 C 0.39124 0.1176 0.67894 0.0
C4451 C 0.3661 0.0956 0.71145 0.0
C4452 C 0.4238 0.16787 0.67956 0.0
C4453 C 0.42008 0.15522 0.68291 0.0
C4454 C 0.40369 0.13419 0.69642 0.0
C4455 C 0.38301 0.10375 0.69712 0.0
C4456 C 0.39093 0.11475 0.69227 0.0
C4457 C 0.40814 0.15018 0.67866 0.0
C4458 C 0.40341 0.13737 0.68316 0.0
H4459 H 0.37485 0.07275 0.68916 0.0
H4460 H 0.38961 0.09007 0.68258 0.0
H4461 H 0.39748 0.121 0.71125 0.0
H4462 H 0.39718 0.17632 0.66179 0.0
H4463 H 0.39084 0.15431 0.66744 0.0
C4464 C 0.05281 0.16515 0.37867 0.0
C4465 C 0.04441 0.1644 0.38939 0.0
C4466 C 0.05562 0.15408 0.37133 0.0
C4467 C 0.05738 0.11893 0.37476 0.0
H4468 H 0.05774 0.11796 0.33714 0.0
C4469 C 0.06396 0.07089 0.34823 0.0
C4470 C 0.07203 0.07053 0.33726 0.0
C4471 C 0.06004 0.08268 0.35353 0.0
C4472 C 0.05784 0.11813 0.34764 0.0
H4473 H 0.03205 0.15159 0.40058 0.0
H4474 H 0.03705 0.13226 0.38787 0.0
H4475 H 0.05183 0.13807 0.34838 0.0
H4476 H 0.08198 0.08227 0.32294 0.0
H4477 H 0.0754 0.10306 0.33248 0.0
H4478 H 0.06364 0.09923 0.3742 0.0
C4479 C 0.04151 0.14139 0.38518 0.0
C4480 C 0.05441 0.12962 0.35406 0.0
C4481 C 0.03861 0.15246 0.39242 0.0
C4482 C 0.07574 0.08227 0.3314 0.0
C4483 C 0.07194 0.09416 0.33685 0.0
C4484 C 0.0609 0.10754 0.36839 0.0
C4485 C 0.05018 0.14205 0.37467 0.0
C4486 C 0.054 0.13006 0.36769 0.0
C4487 C 0.06426 0.09447 0.34816 0.0
C4488 C 0.061 0.10691 0.35475 0.0
H4489 H 0.05741 0.17424 0.37608 0.0
H4490 H 0.06238 0.15485 0.36332 0.0
H4491 H 0.05744 0.11907 0.38527 0.0
H4492 H 0.06072 0.06201 0.35282 0.0
H4493 H 0.0538 0.08252 0.36198 0.0
C4494 C 0.17041 0.33244 0.59853 0.0
C4495 C 0.17532 0.32821 0.58654 0.0
C4496 C 0.15856 0.32789 0.60312 0.0
C4497 C 0.14035 0.3084 0.61468 0.0
H4498 H 0.10787 0.30615 0.59585 0.0
C4499 C 0.0961 0.28478 0.63824 0.0
C4500 C 0.08455 0.29195 0.63751 0.0
C4501 C 0.10658 0.2878 0.6302 0.0
C4502 C 0.11689 0.30671 0.60121 0.0
H4503 H 0.1712 0.31657 0.56952 0.0
H4504 H 0.15028 0.30848 0.57765 0.0
H4505 H 0.12717 0.31508 0.58509 0.0
H4506 H 0.07465 0.30747 0.62732 0.0
H4507 H 0.09304 0.31291 0.61343 0.0
H4508 H 0.13022 0.30044 0.63086 0.0
C4509 C 0.15573 0.31534 0.58346 0.0
C4510 C 0.12793 0.31173 0.59502 0.0
C4511 C 0.16767 0.31996 0.57882 0.0
C4512 C 0.08345 0.30179 0.62813 0.0
C4513 C 0.09396 0.30485 0.62011 0.0
C4514 C 0.12941 0.30336 0.6208 0.0
C4515 C 0.1513 0.31894 0.59587 0.0
C4516 C 0.1397 0.31284 0.60181 0.0
C4517 C 0.10576 0.29811 0.62129 0.0
C4518 C 0.11751 0.30257 0.61422 0.0
H4519 H 0.17592 0.33902 0.60461 0.0
H4520 H 0.15523 0.3311 0.61256 0.0
H4521 H 0.14934 0.30895 0.6201 0.0
H4522 H 0.09719 0.27705 0.64528 0.0
H4523 H 0.11545 0.28226 0.63119 0.0
C4524 C 0.92515 0.4209 0.83195 0.0
C4525 C 0.92877 0.43253 0.83806 0.0
C4526 C 0.92923 0.40894 0.83701 0.0
C4527 C 0.94122 0.39493 0.86797 0.0
H4528 H 0.94929 0.36477 0.84699 0.0
C4529 C 0.96336 0.34906 0.89029 0.0
C4530 C 0.95687 0.33743 0.88743 0.0
C4531 C 0.96067 0.36032 0.88325 0.0
C4532 C 0.94702 0.37313 0.85294 0.0
H4533 H 0.94021 0.44084 0.85363 0.0
H4534 H 0.9477 0.42021 0.86207 0.0
H4535 H 0.94329 0.38519 0.8364 0.0
H4536 H 0.94294 0.32831 0.87456 0.0
H4537 H 0.93837 0.34801 0.86215 0.0
H4538 H 0.94511 0.38297 0.88446 0.0
C4539 C 0.94128 0.42016 0.85375 0.0
C4540 C 0.94353 0.3848 0.8469 0.0
C4541 C 0.93706 0.43202 0.84886 0.0
C4542 C 0.94806 0.33715 0.87702 0.0
C4543 C 0.94548 0.34839 0.86987 0.0
C4544 C 0.94485 0.38337 0.87396 0.0
C4545 C 0.93713 0.40844 0.84815 0.0
C4546 C 0.94067 0.39588 0.85435 0.0
C4547 C 0.95156 0.36015 0.87311 0.0
C4548 C 0.94784 0.37237 0.86653 0.0
H4549 H 0.91874 0.42103 0.82362 0.0
H4550 H 0.9258 0.40011 0.83247 0.0
H4551 H 0.93872 0.40311 0.87406 0.0
H4552 H 0.97025 0.34958 0.89821 0.0
H4553 H 0.96559 0.36924 0.88586 0.0
C4554 C 0.83117 0.18013 0.08014 0.0
C4555 C 0.82327 0.17255 0.08829 0.0
C4556 C 0.84307 0.18498 0.08466 0.0
C4557 C 0.87081 0.18858 0.09586 0.0
H4558 H 0.86968 0.20156 0.13118 0.0
C4559 C 0.91646 0.19753 0.12728 0.0
C4560 C 0.91623 0.20773 0.13633 0.0
C4561 C 0.90552 0.19473 0.11978 0.0
C4562 C 0.87017 0.19818 0.12124 0.0
H4563 H 0.82212 0.16336 0.10722 0.0
H4564 H 0.84271 0.17166 0.11495 0.0
H4565 H 0.84999 0.19351 0.1211 0.0
H4566 H 0.90462 0.22344 0.14411 0.0
H4567 H 0.88557 0.21866 0.1309 0.0
H4568 H 0.89109 0.19326 0.09609 0.0
C4569 C 0.83962 0.17418 0.10523 0.0
C4570 C 0.85889 0.19339 0.11552 0.0
C4571 C 0.82782 0.16938 0.10075 0.0
C4572 C 0.90505 0.21544 0.1373 0.0
C4573 C 0.89412 0.21267 0.12977 0.0
C4574 C 0.88216 0.19337 0.10162 0.0
C4575 C 0.84722 0.18232 0.09739 0.0
C4576 C 0.85912 0.18831 0.10287 0.0
C4577 C 0.89412 0.20209 0.12114 0.0
C4578 C 0.88198 0.19806 0.11445 0.0
H4579 H 0.82796 0.18271 0.07047 0.0
H4580 H 0.84876 0.1912 0.07839 0.0
H4581 H 0.87127 0.18473 0.0861 0.0
H4582 H 0.92496 0.19143 0.12629 0.0
H4583 H 0.90582 0.18644 0.11333 0.0
C4584 C 0.05123 0.83509 0.62373 0.0
C4585 C 0.04239 0.83573 0.61336 0.0
C4586 C 0.05393 0.84613 0.63117 0.0
C4587 C 0.0545 0.88127 0.6278 0.0
H4588 H 0.05712 0.88233 0.66533 0.0
C4589 C 0.06188 0.92952 0.65349 0.0
C4590 C 0.0708 0.9301 0.66376 0.0
C4591 C 0.05766 0.91762 0.6487 0.0
C4592 C 0.05656 0.88215 0.65484 0.0
H4593 H 0.02899 0.84824 0.60305 0.0
H4594 H 0.03377 0.86748 0.61594 0.0
H4595 H 0.05103 0.86205 0.65447 0.0
H4596 H 0.0819 0.9187 0.67748 0.0
H4597 H 0.07478 0.89769 0.6688 0.0
H4598 H 0.06032 0.90111 0.62796 0.0
C4599 C 0.03869 0.85849 0.61825 0.0
C4600 C 0.05304 0.87056 0.64864 0.0
C4601 C 0.03593 0.84746 0.6109 0.0
C4602 C 0.075 0.9185 0.66955 0.0
C4603 C 0.0709 0.9065 0.66459 0.0
C4604 C 0.05812 0.89275 0.63394 0.0
C4605 C 0.04792 0.85801 0.62829 0.0
C4606 C 0.05182 0.87008 0.63506 0.0
C4607 C 0.06243 0.90595 0.65387 0.0
C4608 C 0.05902 0.89342 0.64754 0.0
H4609 H 0.05635 0.82617 0.62588 0.0
H4610 H 0.06112 0.8455 0.63881 0.0
H4611 H 0.05396 0.88111 0.6173 0.0
H4612 H 0.05829 0.93832 0.64899 0.0
H4613 H 0.05081 0.9176 0.64073 0.0
C4614 C 0.33142 0.32591 0.92048 0.0
C4615 C 0.32048 0.32166 0.91353 0.0
C4616 C 0.34391 0.32226 0.91651 0.0
C4617 C 0.36158 0.29768 0.89773 0.0
H4618 H 0.38596 0.32505 0.88931 0.0
C4619 C 0.40305 0.28974 0.86158 0.0
C4620 C 0.41484 0.29632 0.86332 0.0
C4621 C 0.39252 0.29225 0.86973 0.0
C4622 C 0.37941 0.31724 0.89185 0.0
H4623 H 0.31399 0.30988 0.89733 0.0
H4624 H 0.33566 0.30335 0.89063 0.0
H4625 H 0.36578 0.33036 0.90053 0.0
H4626 H 0.42499 0.31043 0.87515 0.0
H4627 H 0.40668 0.31462 0.88958 0.0
H4628 H 0.37504 0.28455 0.88901 0.0
C4629 C 0.33463 0.30956 0.89905 0.0
C4630 C 0.36785 0.32031 0.89827 0.0
C4631 C 0.32223 0.31339 0.90284 0.0
C4632 C 0.41599 0.30526 0.87354 0.0
C4633 C 0.40547 0.30771 0.88177 0.0
C4634 C 0.37318 0.29459 0.89146 0.0
C4635 C 0.34559 0.31406 0.90574 0.0
C4636 C 0.35868 0.3106 0.90092 0.0
C4637 C 0.39356 0.3013 0.87989 0.0
C4638 C 0.38206 0.30438 0.88808 0.0
H4639 H 0.33035 0.33233 0.92873 0.0
H4640 H 0.35224 0.32585 0.92182 0.0
H4641 H 0.35472 0.29 0.89983 0.0
H4642 H 0.40184 0.28283 0.85377 0.0
H4643 H 0.38345 0.28731 0.8678 0.0
C4644 C 0.95 0.66476 0.1221 0.0
C4645 C 0.9588 0.66395 0.11171 0.0
C4646 C 0.94713 0.6538 0.12958 0.0
C4647 C 0.94592 0.61864 0.12659 0.0
H4648 H 0.94362 0.61817 0.16415 0.0
C4649 C 0.93777 0.57094 0.15325 0.0
C4650 C 0.92915 0.57072 0.16379 0.0
C4651 C 0.94205 0.58265 0.14807 0.0
C4652 C 0.94407 0.61819 0.15366 0.0
H4653 H 0.97188 0.65117 0.10133 0.0
H4654 H 0.96678 0.63202 0.11429 0.0
H4655 H 0.95004 0.63814 0.15296 0.0
H4656 H 0.91861 0.58263 0.17752 0.0
H4657 H 0.92581 0.60331 0.16816 0.0
H4658 H 0.93964 0.59894 0.12709 0.0
C4659 C 0.96205 0.64112 0.1166 0.0
C4660 C 0.9478 0.6296 0.14727 0.0
C4661 C 0.96501 0.65209 0.10922 0.0
C4662 C 0.92526 0.58253 0.16939 0.0
C4663 C 0.92942 0.59435 0.16404 0.0
C4664 C 0.94208 0.60733 0.13293 0.0
C4665 C 0.95292 0.64181 0.12672 0.0
C4666 C 0.9489 0.62987 0.13367 0.0
C4667 C 0.93764 0.59452 0.15312 0.0
C4668 C 0.94128 0.60687 0.14655 0.0
H4669 H 0.94509 0.67379 0.12428 0.0
H4670 H 0.94001 0.6546 0.13727 0.0
H4671 H 0.94638 0.61864 0.11609 0.0
H4672 H 0.94115 0.56199 0.14888 0.0
H4673 H 0.94871 0.58237 0.13995 0.0
C4674 C 0.66778 0.17615 0.42045 0.0
C4675 C 0.67944 0.18088 0.41521 0.0
C4676 C 0.65584 0.18016 0.41528 0.0
C4677 C 0.64269 0.19406 0.38482 0.0
H4678 H 0.61119 0.19926 0.4047 0.0
C4679 C 0.59748 0.21626 0.36159 0.0
C4680 C 0.58589 0.20931 0.36329 0.0
C4681 C 0.60836 0.2134 0.36913 0.0
C4682 C 0.61993 0.19778 0.39906 0.0
H4683 H 0.68778 0.19422 0.40125 0.0
H4684 H 0.66715 0.20154 0.39267 0.0
H4685 H 0.6313 0.19318 0.41588 0.0
H4686 H 0.5764 0.19436 0.37466 0.0
H4687 H 0.59546 0.18943 0.38793 0.0
H4688 H 0.63144 0.19877 0.36806 0.0
C4689 C 0.6671 0.19434 0.40033 0.0
C4690 C 0.63142 0.19426 0.40543 0.0
C4691 C 0.67895 0.19021 0.40531 0.0
C4692 C 0.58522 0.19985 0.3731 0.0
C4693 C 0.5961 0.19706 0.38073 0.0
C4694 C 0.6313 0.19769 0.37852 0.0
C4695 C 0.6554 0.18907 0.40493 0.0
C4696 C 0.64297 0.19248 0.39838 0.0
C4697 C 0.60786 0.2036 0.3786 0.0
C4698 C 0.61983 0.19969 0.38555 0.0
H4699 H 0.66792 0.16894 0.42809 0.0
H4700 H 0.64701 0.17589 0.41905 0.0
H4701 H 0.65127 0.19238 0.379 0.0
H4702 H 0.59828 0.22367 0.35418 0.0
H4703 H 0.61726 0.21871 0.3674 0.0
C4704 C 0.33319 0.07321 0.08102 0.0
C4705 C 0.33939 0.06979 0.06937 0.0
C4706 C 0.33842 0.06936 0.09298 0.0
C4707 C 0.3697 0.05829 0.1071 0.0
H4708 H 0.34877 0.04859 0.13681 0.0
C4709 C 0.39225 0.03494 0.15227 0.0
C4710 C 0.38909 0.04078 0.16416 0.0
C4711 C 0.38528 0.038 0.14106 0.0
C4712 C 0.3547 0.05134 0.12859 0.0
H4713 H 0.35544 0.05899 0.06108 0.0
H4714 H 0.36422 0.05195 0.08171 0.0
H4715 H 0.33815 0.05488 0.11649 0.0
H4716 H 0.37579 0.05395 0.17378 0.0
H4717 H 0.36348 0.05915 0.15417 0.0
H4718 H 0.38622 0.05455 0.11908 0.0
C4719 C 0.35565 0.05802 0.08175 0.0
C4720 C 0.34864 0.05499 0.11698 0.0
C4721 C 0.35056 0.062 0.06989 0.0
C4722 C 0.37847 0.04932 0.16473 0.0
C4723 C 0.37139 0.05226 0.15354 0.0
C4724 C 0.37572 0.0545 0.11861 0.0
C4725 C 0.34986 0.06189 0.09348 0.0
C4726 C 0.35609 0.0584 0.10605 0.0
C4727 C 0.37491 0.04684 0.14155 0.0
C4728 C 0.3683 0.0509 0.12943 0.0
H4729 H 0.32457 0.07922 0.0809 0.0
H4730 H 0.33373 0.07256 0.10182 0.0
H4731 H 0.37577 0.06121 0.09904 0.0
H4732 H 0.40033 0.02828 0.15152 0.0
H4733 H 0.38809 0.03356 0.13196 0.0
C4734 C 0.87716 0.95011 0.33258 0.0
C4735 C 0.8879 0.95837 0.33405 0.0
C4736 C 0.86867 0.94794 0.34292 0.0
C4737 C 0.85945 0.96029 0.37568 0.0
H4738 H 0.84873 0.92468 0.38145 0.0
C4739 C 0.84703 0.93963 0.42569 0.0
C4740 C 0.83638 0.93122 0.427 0.0
C4741 C 0.85079 0.94415 0.41352 0.0
C4742 C 0.85143 0.93471 0.37984 0.0
H4743 H 0.89803 0.97106 0.3474 0.0
H4744 H 0.88347 0.96703 0.36555 0.0
H4745 H 0.8603 0.93033 0.36162 0.0
H4746 H 0.82113 0.92116 0.41661 0.0
H4747 H 0.82797 0.92887 0.3951 0.0
H4748 H 0.85114 0.96446 0.39427 0.0
C4749 C 0.88139 0.96242 0.35635 0.0
C4750 C 0.85807 0.93798 0.36847 0.0
C4751 C 0.88981 0.96467 0.34596 0.0
C4752 C 0.82935 0.92765 0.41587 0.0
C4753 C 0.83329 0.93201 0.4036 0.0
C4754 C 0.85293 0.95699 0.3871 0.0
C4755 C 0.87078 0.9539 0.35501 0.0
C4756 C 0.86244 0.95075 0.36638 0.0
C4757 C 0.84411 0.94024 0.40233 0.0
C4758 C 0.84912 0.94411 0.38942 0.0
H4759 H 0.87538 0.94519 0.32346 0.0
H4760 H 0.86049 0.9415 0.34146 0.0
H4761 H 0.86239 0.97028 0.37427 0.0
H4762 H 0.85258 0.94263 0.4341 0.0
H4763 H 0.85924 0.95036 0.41284 0.0
C4764 C 0.32012 0.07775 0.66781 0.0
C4765 C 0.32848 0.08566 0.67513 0.0
C4766 C 0.31629 0.08154 0.65531 0.0
C4767 C 0.30291 0.09824 0.63435 0.0
H4768 H 0.32742 0.11421 0.61069 0.0
C4769 C 0.28834 0.13573 0.59539 0.0
C4770 C 0.295 0.13567 0.5835 0.0
C4771 C 0.29195 0.12721 0.60532 0.0
C4772 C 0.32045 0.10961 0.61707 0.0
H4773 H 0.3399 0.10334 0.67488 0.0
H4774 H 0.33336 0.10982 0.65319 0.0
H4775 H 0.33533 0.10322 0.63006 0.0
H4776 H 0.31029 0.1263 0.57249 0.0
H4777 H 0.31654 0.11144 0.5898 0.0
H4778 H 0.288 0.10493 0.62149 0.0
C4779 C 0.3297 0.10076 0.65705 0.0
C4780 C 0.32498 0.10341 0.62822 0.0
C4781 C 0.33336 0.09709 0.66953 0.0
C4782 C 0.30502 0.12663 0.58157 0.0
C4783 C 0.30864 0.11815 0.5915 0.0
C4784 C 0.29836 0.10452 0.62321 0.0
C4785 C 0.32096 0.09316 0.64988 0.0
C4786 C 0.31625 0.09793 0.63713 0.0
C4787 C 0.3023 0.11849 0.60357 0.0
C4788 C 0.30707 0.11052 0.61459 0.0
H4789 H 0.31619 0.0689 0.6719 0.0
H4790 H 0.30958 0.07548 0.64996 0.0
H4791 H 0.29595 0.09416 0.64109 0.0
H4792 H 0.28057 0.14257 0.59715 0.0
H4793 H 0.28696 0.12783 0.61454 0.0
C4794 C 0.1246 0.55149 0.83199 0.0
C4795 C 0.11394 0.54317 0.83371 0.0
C4796 C 0.13354 0.55341 0.84201 0.0
C4797 C 0.14471 0.5398 0.87347 0.0
H4798 H 0.15386 0.57545 0.88133 0.0
C4799 C 0.15709 0.55736 0.92443 0.0
C4800 C 0.16657 0.56697 0.9263 0.0
C4801 C 0.15377 0.55328 0.91199 0.0
C4802 C 0.15166 0.56542 0.87911 0.0
H4803 H 0.10443 0.5301 0.84716 0.0
H4804 H 0.1199 0.53354 0.86469 0.0
H4805 H 0.14187 0.57053 0.86153 0.0
H4806 H 0.18038 0.57952 0.91663 0.0
H4807 H 0.17437 0.57247 0.89464 0.0
H4808 H 0.15401 0.53478 0.89135 0.0
C4809 C 0.12149 0.53847 0.85555 0.0
C4810 C 0.14476 0.56259 0.86777 0.0
C4811 C 0.11256 0.53656 0.84553 0.0
C4812 C 0.17306 0.57207 0.91545 0.0
C4813 C 0.16958 0.56809 0.9029 0.0
C4814 C 0.15157 0.54264 0.88481 0.0
C4815 C 0.13201 0.54703 0.85397 0.0
C4816 C 0.14086 0.54979 0.86503 0.0
C4817 C 0.15975 0.55878 0.90107 0.0
C4818 C 0.15477 0.55552 0.88795 0.0
H4819 H 0.12595 0.5567 0.82296 0.0
H4820 H 0.1416 0.55996 0.84043 0.0
H4821 H 0.14212 0.52981 0.8715 0.0
H4822 H 0.15198 0.55318 0.93261 0.0
H4823 H 0.14606 0.54622 0.91093 0.0
C4824 C 0.17803 0.91961 0.16796 0.0
C4825 C 0.18334 0.91489 0.17959 0.0
C4826 C 0.18216 0.91457 0.15601 0.0
C4827 C 0.19696 0.88451 0.14328 0.0
H4828 H 0.1995 0.9034 0.11087 0.0
C4829 C 0.21566 0.85984 0.09707 0.0
C4830 C 0.20831 0.86178 0.08577 0.0
C4831 C 0.2135 0.86748 0.10806 0.0
C4832 C 0.19876 0.89801 0.11986 0.0
H4833 H 0.19785 0.90212 0.18785 0.0
H4834 H 0.20537 0.89376 0.16714 0.0
H4835 H 0.19437 0.91509 0.13094 0.0
H4836 H 0.19326 0.87355 0.07695 0.0
H4837 H 0.18947 0.88687 0.0962 0.0
H4838 H 0.20127 0.86746 0.13232 0.0
C4839 C 0.19769 0.90092 0.16716 0.0
C4840 C 0.19581 0.90469 0.13133 0.0
C4841 C 0.19345 0.90579 0.17903 0.0
C4842 C 0.19906 0.8718 0.08554 0.0
C4843 C 0.19694 0.87949 0.09653 0.0
C4844 C 0.19996 0.87788 0.13189 0.0
C4845 C 0.19175 0.90484 0.15553 0.0
C4846 C 0.19495 0.89801 0.1432 0.0
C4847 C 0.20398 0.87725 0.10799 0.0
C4848 C 0.20095 0.88454 0.12005 0.0
H4849 H 0.17018 0.92659 0.16815 0.0
H4850 H 0.17737 0.91779 0.14724 0.0
H4851 H 0.196 0.87896 0.15215 0.0
H4852 H 0.22291 0.85225 0.09753 0.0
H4853 H 0.21922 0.86564 0.11669 0.0
C4854 C 0.62221 0.94711 0.16335 0.0
C4855 C 0.61153 0.95557 0.16269 0.0
C4856 C 0.62941 0.94421 0.15221 0.0
C4857 C 0.62563 0.94235 0.11709 0.0
H4858 H 0.66323 0.94201 0.11571 0.0
C4859 C 0.65159 0.9358 0.06874 0.0
C4860 C 0.66257 0.92775 0.06825 0.0
C4861 C 0.64643 0.93971 0.0806 0.0
C4862 C 0.65273 0.9419 0.11599 0.0
H4863 H 0.60027 0.96794 0.14995 0.0
H4864 H 0.61273 0.96278 0.1305 0.0
H4865 H 0.65221 0.94792 0.13594 0.0
H4866 H 0.67707 0.91786 0.0798 0.0
H4867 H 0.66779 0.92443 0.10071 0.0
H4868 H 0.62598 0.93607 0.09739 0.0
C4869 C 0.6155 0.95835 0.13961 0.0
C4870 C 0.64644 0.94533 0.12755 0.0
C4871 C 0.6084 0.96134 0.15076 0.0
C4872 C 0.6686 0.92408 0.07991 0.0
C4873 C 0.66329 0.92787 0.09187 0.0
C4874 C 0.63188 0.93882 0.10564 0.0
C4875 C 0.62597 0.94963 0.14019 0.0
C4876 C 0.63281 0.94575 0.12814 0.0
C4877 C 0.65196 0.9355 0.09233 0.0
C4878 C 0.64551 0.93874 0.10485 0.0
H4879 H 0.62487 0.94253 0.17242 0.0
H4880 H 0.63738 0.93741 0.15291 0.0
H4881 H 0.61512 0.94229 0.11735 0.0
H4882 H 0.64686 0.939 0.05992 0.0
H4883 H 0.63796 0.94592 0.08054 0.0
C4884 C 0.2996 0.37246 0.91381 0.0
C4885 C 0.29116 0.36178 0.9129 0.0
C4886 C 0.30258 0.37985 0.90281 0.0
C4887 C 0.30522 0.37615 0.86785 0.0
H4888 H 0.30502 0.41374 0.8661 0.0
C4889 C 0.31198 0.40156 0.81934 0.0
C4890 C 0.31983 0.41267 0.81876 0.0
C4891 C 0.30804 0.39652 0.83122 0.0
C4892 C 0.30529 0.40325 0.86649 0.0
H4893 H 0.27883 0.35078 0.89988 0.0
H4894 H 0.28418 0.36353 0.88068 0.0
H4895 H 0.29886 0.40282 0.88633 0.0
H4896 H 0.32932 0.42754 0.83018 0.0
H4897 H 0.3227 0.41846 0.85118 0.0
H4898 H 0.31191 0.37639 0.84829 0.0
C4899 C 0.28852 0.36616 0.88989 0.0
C4900 C 0.30172 0.39701 0.87804 0.0
C4901 C 0.28543 0.35889 0.90089 0.0
C4902 C 0.32326 0.41896 0.83036 0.0
C4903 C 0.31945 0.41377 0.84236 0.0
C4904 C 0.30891 0.38234 0.85642 0.0
C4905 C 0.29729 0.37657 0.89069 0.0
C4906 C 0.30145 0.38339 0.87874 0.0
C4907 C 0.31202 0.4023 0.84291 0.0
C4908 C 0.30876 0.39596 0.85548 0.0
H4909 H 0.30413 0.37495 0.92296 0.0
H4910 H 0.30941 0.38779 0.90368 0.0
H4911 H 0.30541 0.36565 0.86821 0.0
H4912 H 0.30897 0.39664 0.81055 0.0
H4913 H 0.30197 0.38794 0.83123 0.0
C4914 C 0.71375 0.14033 0.40416 0.0
C4915 C 0.70721 0.1383 0.41593 0.0
C4916 C 0.7116 0.1321 0.3936 0.0
C4917 C 0.68735 0.10914 0.38047 0.0
H4918 H 0.71484 0.1015 0.35596 0.0
C4919 C 0.67857 0.07997 0.33303 0.0
C4920 C 0.68299 0.08657 0.32195 0.0
C4921 C 0.6824 0.08407 0.34543 0.0
C4922 C 0.70708 0.10351 0.36276 0.0
H4923 H 0.69355 0.12587 0.42599 0.0
H4924 H 0.68998 0.11136 0.40765 0.0
H4925 H 0.71993 0.11291 0.37606 0.0
H4926 H 0.69536 0.10218 0.31512 0.0
H4927 H 0.70212 0.10914 0.33659 0.0
H4928 H 0.67449 0.09987 0.36701 0.0
C4929 C 0.69658 0.11944 0.40648 0.0
C4930 C 0.70997 0.11012 0.37423 0.0
C4931 C 0.69868 0.12772 0.41702 0.0
C4932 C 0.69171 0.09694 0.32347 0.0
C4933 C 0.69568 0.10087 0.33578 0.0
C4934 C 0.68448 0.10244 0.36902 0.0
C4935 C 0.70291 0.1216 0.39459 0.0
C4936 C 0.70009 0.11332 0.38308 0.0
C4937 C 0.69091 0.09464 0.3469 0.0
C4938 C 0.69426 0.09986 0.3599 0.0
H4939 H 0.72035 0.14843 0.40302 0.0
H4940 H 0.71649 0.1342 0.38454 0.0
H4941 H 0.67946 0.11154 0.38698 0.0
H4942 H 0.67182 0.07197 0.33214 0.0
H4943 H 0.67861 0.07907 0.35387 0.0
C4944 C 0.15503 0.88661 0.53434 0.0
C4945 C 0.16632 0.88591 0.54192 0.0
C4946 C 0.14419 0.8791 0.53746 0.0
C4947 C 0.13255 0.85149 0.55774 0.0
H4948 H 0.10013 0.87049 0.55641 0.0
C4949 C 0.08183 0.82912 0.56997 0.0
C4950 C 0.07313 0.83732 0.57654 0.0
C4951 C 0.09383 0.83388 0.56565 0.0
C4952 C 0.1091 0.86505 0.55693 0.0
H4953 H 0.17533 0.87637 0.55836 0.0
H4954 H 0.15633 0.86344 0.56397 0.0
H4955 H 0.11982 0.88062 0.5485 0.0
H4956 H 0.07061 0.8566 0.58461 0.0
H4957 H 0.09147 0.86474 0.57737 0.0
H4958 H 0.12173 0.83607 0.56663 0.0
C4959 C 0.15588 0.86965 0.5555 0.0
C4960 C 0.12039 0.8708 0.55219 0.0
C4961 C 0.16676 0.87711 0.55233 0.0
C4962 C 0.07696 0.8501 0.57934 0.0
C4963 C 0.08891 0.85479 0.57513 0.0
C4964 C 0.12119 0.84572 0.56251 0.0
C4965 C 0.14436 0.87078 0.54829 0.0
C4966 C 0.13228 0.86415 0.55262 0.0
C4967 C 0.09734 0.84688 0.56791 0.0
C4968 C 0.10938 0.85253 0.56232 0.0
H4969 H 0.15444 0.89322 0.52619 0.0
H4970 H 0.13556 0.88001 0.53153 0.0
H4971 H 0.14153 0.84606 0.55811 0.0
H4972 H 0.07915 0.81922 0.56769 0.0
H4973 H 0.10012 0.82754 0.56012 0.0
C4974 C 0.901 0.82002 0.81366 0.0
C4975 C 0.91218 0.81936 0.82143 0.0
C4976 C 0.89585 0.83195 0.81 0.0
C4977 C 0.90253 0.86725 0.80779 0.0
H4978 H 0.86493 0.86901 0.80802 0.0
C4979 C 0.87215 0.9148 0.80273 0.0
C4980 C 0.86146 0.9141 0.79429 0.0
C4981 C 0.87936 0.90367 0.80564 0.0
C4982 C 0.87543 0.86864 0.8078 0.0
H4983 H 0.92698 0.83071 0.83111 0.0
H4984 H 0.91772 0.85175 0.82496 0.0
H4985 H 0.87567 0.84896 0.81415 0.0
H4986 H 0.8502 0.9013 0.78195 0.0
H4987 H 0.86266 0.88189 0.78717 0.0
H4988 H 0.90212 0.88717 0.8017 0.0
C4989 C 0.91307 0.84297 0.82156 0.0
C4990 C 0.88161 0.85713 0.81128 0.0
C4991 C 0.91836 0.83094 0.8251 0.0
C4992 C 0.85833 0.90215 0.78855 0.0
C4993 C 0.86544 0.89102 0.79157 0.0
C4994 C 0.8963 0.87886 0.80443 0.0
C4995 C 0.90159 0.84359 0.81417 0.0
C4996 C 0.89523 0.85619 0.8111 0.0
C4997 C 0.8759 0.89163 0.80028 0.0
C4998 C 0.88269 0.87958 0.80422 0.0
H4999 H 0.89614 0.81127 0.81046 0.0
H5000 H 0.88725 0.83202 0.80397 0.0
H5001 H 0.91302 0.86685 0.80749 0.0
H5002 H 0.87481 0.92389 0.80727 0.0
H5003 H 0.88735 0.90439 0.81243 0.0
C5004 C 0.8362 0.62181 0.05263 0.0
C5005 C 0.83666 0.61115 0.04413 0.0
C5006 C 0.84739 0.62904 0.05522 0.0
C5007 C 0.88251 0.62528 0.05614 0.0
H5008 H 0.88383 0.66288 0.05692 0.0
C5009 C 0.93088 0.65127 0.06226 0.0
C5010 C 0.93146 0.66212 0.07048 0.0
C5011 C 0.91899 0.64614 0.05844 0.0
C5012 C 0.88357 0.65238 0.05689 0.0
H5013 H 0.84908 0.59998 0.03134 0.0
H5014 H 0.86861 0.61252 0.03596 0.0
H5015 H 0.86351 0.6519 0.05127 0.0
H5016 H 0.92001 0.67641 0.08079 0.0
H5017 H 0.89904 0.66716 0.07439 0.0
H5018 H 0.90232 0.62559 0.06204 0.0
C5019 C 0.85962 0.61524 0.04066 0.0
C5020 C 0.87196 0.64611 0.05362 0.0
C5021 C 0.84843 0.60809 0.03799 0.0
C5022 C 0.91984 0.66804 0.07444 0.0
C5023 C 0.90785 0.66276 0.07074 0.0
C5024 C 0.89402 0.6315 0.05952 0.0
C5025 C 0.85926 0.62567 0.04945 0.0
C5026 C 0.87139 0.63249 0.05307 0.0
C5027 C 0.90731 0.65157 0.06291 0.0
C5028 C 0.89478 0.64513 0.05977 0.0
H5029 H 0.82725 0.62442 0.05748 0.0
H5030 H 0.84685 0.63699 0.06208 0.0
H5031 H 0.88227 0.61477 0.05609 0.0
H5032 H 0.93967 0.64664 0.05883 0.0
H5033 H 0.91897 0.63778 0.05207 0.0
C5034 C 0.09701 0.68033 0.31133 0.0
C5035 C 0.0861 0.68034 0.3195 0.0
C5036 C 0.10219 0.66873 0.30675 0.0
C5037 C 0.09605 0.63334 0.30314 0.0
H5038 H 0.13365 0.63222 0.30203 0.0
C5039 C 0.12684 0.58628 0.29776 0.0
C5040 C 0.13754 0.58693 0.28933 0.0
C5041 C 0.1195 0.59737 0.30044 0.0
C5042 C 0.12315 0.63242 0.30214 0.0
H5043 H 0.07179 0.66819 0.32893 0.0
H5044 H 0.08115 0.64772 0.32125 0.0
H5045 H 0.12281 0.65196 0.30889 0.0
H5046 H 0.14864 0.59957 0.2767 0.0
H5047 H 0.13592 0.61896 0.2815 0.0
H5048 H 0.09657 0.61351 0.29675 0.0
C5049 C 0.08555 0.65676 0.3182 0.0
C5050 C 0.1169 0.64376 0.30604 0.0
C5051 C 0.0802 0.66846 0.32264 0.0
C5052 C 0.1405 0.59877 0.28329 0.0
C5053 C 0.13325 0.60988 0.28607 0.0
C5054 C 0.10235 0.6219 0.29936 0.0
C5055 C 0.09678 0.65676 0.3104 0.0
C5056 C 0.10326 0.64444 0.30647 0.0
C5057 C 0.12281 0.60934 0.29484 0.0
C5058 C 0.11596 0.62138 0.29872 0.0
H5059 H 0.10163 0.68935 0.30853 0.0
H5060 H 0.11058 0.66917 0.30043 0.0
H5061 H 0.08555 0.63353 0.30326 0.0
H5062 H 0.12431 0.57727 0.30253 0.0
H5063 H 0.11155 0.59669 0.30728 0.0
C5064 C 0.16717 0.12398 0.44768 0.0
C5065 C 0.16561 0.11382 0.45664 0.0
C5066 C 0.15699 0.1326 0.4452 0.0
C5067 C 0.12516 0.14372 0.45821 0.0
H5068 H 0.11796 0.1524 0.42231 0.0
C5069 C 0.07457 0.15632 0.43937 0.0
C5070 C 0.07308 0.16653 0.43046 0.0
C5071 C 0.08686 0.15246 0.44343 0.0
C5072 C 0.11999 0.15028 0.4324 0.0
H5073 H 0.15225 0.10482 0.47015 0.0
H5074 H 0.13443 0.11961 0.46564 0.0
H5075 H 0.13772 0.14054 0.42775 0.0
H5076 H 0.0833 0.18086 0.41896 0.0
H5077 H 0.10502 0.17382 0.42589 0.0
H5078 H 0.10707 0.1529 0.46273 0.0
C5079 C 0.14357 0.12114 0.4607 0.0
C5080 C 0.13131 0.14348 0.43554 0.0
C5081 C 0.15376 0.11257 0.46322 0.0
C5082 C 0.08418 0.17299 0.42587 0.0
C5083 C 0.09657 0.16894 0.42978 0.0
C5084 C 0.11381 0.15041 0.45505 0.0
C5085 C 0.14502 0.13122 0.45161 0.0
C5086 C 0.13385 0.13982 0.44845 0.0
C5087 C 0.098 0.15858 0.43855 0.0
C5088 C 0.11095 0.15346 0.44208 0.0
H5089 H 0.17623 0.12522 0.4425 0.0
H5090 H 0.1585 0.14034 0.43826 0.0
H5091 H 0.12696 0.14135 0.46828 0.0
H5092 H 0.0662 0.1512 0.44314 0.0
H5093 H 0.08767 0.14436 0.45008 0.0
C5094 C 0.62938 0.91724 0.69366 0.0
C5095 C 0.63849 0.91614 0.70374 0.0
C5096 C 0.62147 0.90676 0.69035 0.0
C5097 C 0.60884 0.87526 0.70184 0.0
H5098 H 0.60823 0.86652 0.66523 0.0
C5099 C 0.60118 0.82728 0.66914 0.0
C5100 C 0.58924 0.82248 0.67362 0.0
C5101 C 0.60524 0.83976 0.67239 0.0
C5102 C 0.60824 0.86891 0.67547 0.0
H5103 H 0.64615 0.90335 0.71857 0.0
H5104 H 0.63229 0.88498 0.71277 0.0
H5105 H 0.61898 0.88637 0.67235 0.0
H5106 H 0.57205 0.82707 0.68482 0.0
H5107 H 0.57933 0.84897 0.69078 0.0
H5108 H 0.59838 0.85754 0.70493 0.0
C5109 C 0.63124 0.89399 0.70748 0.0
C5110 C 0.61431 0.8803 0.67954 0.0
C5111 C 0.63923 0.90447 0.71074 0.0
C5112 C 0.58128 0.83054 0.68121 0.0
C5113 C 0.58547 0.84301 0.68467 0.0
C5114 C 0.60263 0.86391 0.69773 0.0
C5115 C 0.62244 0.89496 0.6971 0.0
C5116 C 0.61491 0.88348 0.69279 0.0
C5117 C 0.59754 0.84768 0.68035 0.0
C5118 C 0.60252 0.86049 0.68454 0.0
H5119 H 0.62854 0.92613 0.68812 0.0
H5120 H 0.61468 0.90784 0.6824 0.0
H5121 H 0.60906 0.87753 0.71209 0.0
H5122 H 0.60749 0.82132 0.6632 0.0
H5123 H 0.61463 0.84306 0.66902 0.0
C5124 C 0.91844 0.33295 0.92548 0.0
C5125 C 0.93022 0.3387 0.92923 0.0
C5126 C 0.90661 0.33833 0.92951 0.0
C5127 C 0.89332 0.36957 0.94144 0.0
H5128 H 0.8628 0.34928 0.94986 0.0
C5129 C 0.84797 0.39302 0.9636 0.0
C5130 C 0.83615 0.38998 0.95757 0.0
C5131 C 0.85914 0.3859 0.96076 0.0
C5132 C 0.87125 0.35505 0.94747 0.0
H5133 H 0.93889 0.35399 0.9408 0.0
H5134 H 0.91845 0.36302 0.94812 0.0
H5135 H 0.88294 0.33824 0.94379 0.0
H5136 H 0.82661 0.37678 0.94423 0.0
H5137 H 0.84615 0.36426 0.93936 0.0
H5138 H 0.88173 0.38635 0.94523 0.0
C5139 C 0.91822 0.35472 0.94169 0.0
C5140 C 0.88276 0.34874 0.94395 0.0
C5141 C 0.92996 0.34949 0.93755 0.0
C5142 C 0.8356 0.37938 0.949 0.0
C5143 C 0.84676 0.37217 0.94626 0.0
C5144 C 0.8819 0.37584 0.94506 0.0
C5145 C 0.90638 0.34945 0.93745 0.0
C5146 C 0.89397 0.35595 0.94098 0.0
C5147 C 0.85869 0.37551 0.95193 0.0
C5148 C 0.87076 0.36866 0.94817 0.0
H5149 H 0.91837 0.32464 0.91906 0.0
H5150 H 0.89767 0.33405 0.92602 0.0
H5151 H 0.90163 0.37547 0.93886 0.0
H5152 H 0.84868 0.4011 0.97028 0.0
H5153 H 0.86818 0.38859 0.96539 0.0
C5154 C 0.40574 0.67673 0.18999 0.0
C5155 C 0.41659 0.67778 0.18179 0.0
C5156 C 0.40143 0.66464 0.19422 0.0
C5157 C 0.40001 0.63094 0.18452 0.0
H5158 H 0.38852 0.62544 0.21993 0.0
C5159 C 0.37454 0.58349 0.19994 0.0
C5160 C 0.36377 0.58481 0.2082 0.0
C5161 C 0.38281 0.59399 0.19767 0.0
C5162 C 0.39158 0.62684 0.20998 0.0
H5163 H 0.43156 0.66696 0.17175 0.0
H5164 H 0.42377 0.64561 0.17898 0.0
H5165 H 0.40002 0.64534 0.21428 0.0
H5166 H 0.35334 0.59808 0.22071 0.0
H5167 H 0.36754 0.6165 0.21651 0.0
H5168 H 0.39108 0.61276 0.18003 0.0
C5169 C 0.41872 0.65425 0.18217 0.0
C5170 C 0.39824 0.6382 0.20678 0.0
C5171 C 0.42319 0.66644 0.17809 0.0
C5172 C 0.36158 0.59676 0.21434 0.0
C5173 C 0.3698 0.60729 0.21198 0.0
C5174 C 0.39324 0.61961 0.18769 0.0
C5175 C 0.40774 0.65326 0.19023 0.0
C5176 C 0.40229 0.64048 0.19396 0.0
C5177 C 0.38046 0.60608 0.20352 0.0
C5178 C 0.38871 0.61754 0.20042 0.0
H5179 H 0.40048 0.68529 0.19309 0.0
H5180 H 0.39286 0.66418 0.20029 0.0
H5181 H 0.40289 0.63251 0.17453 0.0
H5182 H 0.37652 0.57436 0.19513 0.0
H5183 H 0.39103 0.59262 0.19127 0.0
C5184 C 0.06962 0.58408 0.82773 0.0
C5185 C 0.07761 0.57634 0.83562 0.0
C5186 C 0.06571 0.59641 0.83193 0.0
C5187 C 0.05186 0.61674 0.84906 0.0
H5188 H 0.07618 0.64015 0.86567 0.0
C5189 C 0.03695 0.65708 0.88533 0.0
C5190 C 0.04374 0.66888 0.88473 0.0
C5191 C 0.04059 0.64667 0.87739 0.0
C5192 C 0.06927 0.63381 0.86093 0.0
H5193 H 0.08831 0.57567 0.85372 0.0
H5194 H 0.0817 0.59716 0.8609 0.0
H5195 H 0.08418 0.62066 0.85492 0.0
H5196 H 0.05927 0.67923 0.87499 0.0
H5197 H 0.06556 0.66112 0.86119 0.0
H5198 H 0.03691 0.62978 0.85536 0.0
C5199 C 0.07836 0.59372 0.85155 0.0
C5200 C 0.07385 0.62261 0.85486 0.0
C5201 C 0.08209 0.58138 0.84746 0.0
C5202 C 0.0539 0.67023 0.87574 0.0
C5203 C 0.05755 0.65984 0.86786 0.0
C5204 C 0.04725 0.62791 0.85525 0.0
C5205 C 0.06995 0.60127 0.84396 0.0
C5206 C 0.06519 0.61386 0.84903 0.0
C5207 C 0.0511 0.64788 0.86877 0.0
C5208 C 0.05591 0.63648 0.86138 0.0
H5209 H 0.06598 0.58042 0.81858 0.0
H5210 H 0.05927 0.60208 0.82587 0.0
H5211 H 0.04496 0.6101 0.84473 0.0
H5212 H 0.02909 0.65577 0.89217 0.0
H5213 H 0.0355 0.63753 0.87838 0.0
C5214 C 0.17961 0.81141 0.09713 0.0
C5215 C 0.18024 0.82006 0.08663 0.0
C5216 C 0.16769 0.80737 0.10202 0.0
C5217 C 0.13225 0.80612 0.09551 0.0
H5218 H 0.13087 0.80316 0.13301 0.0
C5219 C 0.085 0.79996 0.12623 0.0
C5220 C 0.08561 0.79072 0.13625 0.0
C5221 C 0.09607 0.80301 0.11898 0.0
C5222 C 0.13113 0.80383 0.12252 0.0
H5223 H 0.16887 0.83094 0.07271 0.0
H5224 H 0.14785 0.82417 0.08157 0.0
H5225 H 0.15092 0.80981 0.12261 0.0
H5226 H 0.09815 0.77703 0.14614 0.0
H5227 H 0.11746 0.78246 0.13362 0.0
H5228 H 0.11219 0.80043 0.09564 0.0
C5229 C 0.15663 0.82034 0.08587 0.0
C5230 C 0.14264 0.8076 0.11653 0.0
C5231 C 0.16865 0.82426 0.08081 0.0
C5232 C 0.09737 0.78426 0.13856 0.0
C5233 C 0.10844 0.78739 0.13142 0.0
C5234 C 0.12063 0.80247 0.10157 0.0
C5235 C 0.15603 0.81205 0.09672 0.0
C5236 C 0.14345 0.80859 0.10294 0.0
C5237 C 0.10796 0.79696 0.12172 0.0
C5238 C 0.12004 0.80112 0.11512 0.0
H5239 H 0.18838 0.8078 0.10166 0.0
H5240 H 0.16764 0.80065 0.1101 0.0
H5241 H 0.13253 0.80672 0.08503 0.0
H5242 H 0.07605 0.80508 0.12421 0.0
H5243 H 0.09545 0.81045 0.11159 0.0
C5244 C 0.94895 0.83529 0.37809 0.0
C5245 C 0.95742 0.83613 0.38875 0.0
C5246 C 0.94591 0.84634 0.37082 0.0
C5247 C 0.94329 0.88131 0.37457 0.0
H5248 H 0.94379 0.88304 0.33697 0.0
C5249 C 0.93704 0.92982 0.34888 0.0
C5250 C 0.92942 0.93039 0.3376 0.0
C5251 C 0.94076 0.91793 0.3541 0.0
C5252 C 0.94343 0.88266 0.34747 0.0
H5253 H 0.96968 0.84911 0.39988 0.0
H5254 H 0.96423 0.8684 0.38732 0.0
H5255 H 0.94981 0.86281 0.34795 0.0
H5256 H 0.92005 0.91893 0.32268 0.0
H5257 H 0.92626 0.89796 0.33206 0.0
H5258 H 0.93665 0.90089 0.37426 0.0
C5259 C 0.95992 0.8592 0.38461 0.0
C5260 C 0.94692 0.8711 0.35373 0.0
C5261 C 0.96307 0.84815 0.39177 0.0
C5262 C 0.92594 0.91877 0.33139 0.0
C5263 C 0.92952 0.90678 0.33675 0.0
C5264 C 0.93968 0.89275 0.36834 0.0
C5265 C 0.95117 0.85845 0.37419 0.0
C5266 C 0.94708 0.87041 0.36735 0.0
C5267 C 0.93677 0.90624 0.34832 0.0
C5268 C 0.93993 0.89368 0.35472 0.0
H5269 H 0.94447 0.82613 0.37551 0.0
H5270 H 0.9391 0.84551 0.36285 0.0
H5271 H 0.94303 0.88095 0.38507 0.0
H5272 H 0.94011 0.93861 0.35377 0.0
H5273 H 0.94669 0.91793 0.36277 0.0
C5274 C 0.83049 0.68051 0.57975 0.0
C5275 C 0.82228 0.67312 0.58774 0.0
C5276 C 0.84297 0.68386 0.58399 0.0
C5277 C 0.86385 0.69691 0.60117 0.0
H5278 H 0.88592 0.67155 0.61808 0.0
C5279 C 0.90413 0.71008 0.638 0.0
C5280 C 0.91578 0.70304 0.63741 0.0
C5281 C 0.89369 0.70675 0.62998 0.0
C5282 C 0.87995 0.67873 0.61325 0.0
H5283 H 0.82086 0.66291 0.60609 0.0
H5284 H 0.84261 0.66854 0.61333 0.0
H5285 H 0.8661 0.66447 0.60722 0.0
H5286 H 0.92578 0.68725 0.62772 0.0
H5287 H 0.90755 0.68143 0.61381 0.0
H5288 H 0.87754 0.71123 0.60755 0.0
C5289 C 0.83943 0.67185 0.60388 0.0
C5290 C 0.86858 0.67468 0.60712 0.0
C5291 C 0.82694 0.66871 0.59976 0.0
C5292 C 0.91691 0.69283 0.62844 0.0
C5293 C 0.90646 0.68946 0.6205 0.0
C5294 C 0.87518 0.70099 0.60744 0.0
C5295 C 0.8475 0.67962 0.59614 0.0
C5296 C 0.86031 0.68375 0.6012 0.0
C5297 C 0.89469 0.69627 0.6213 0.0
C5298 C 0.88324 0.69196 0.61371 0.0
H5299 H 0.82713 0.68407 0.57045 0.0
H5300 H 0.84905 0.68983 0.57783 0.0
H5301 H 0.85759 0.70411 0.59677 0.0
H5302 H 0.90299 0.71799 0.64482 0.0
H5303 H 0.8847 0.7121 0.63091 0.0
C5304 C 0.0376 0.34742 0.10852 0.0
C5305 C 0.04348 0.33536 0.11084 0.0
C5306 C 0.03999 0.35792 0.11677 0.0
C5307 C 0.06392 0.36991 0.14075 0.0
H5308 H 0.03741 0.39583 0.14711 0.0
C5309 C 0.0733 0.4167 0.17093 0.0
C5310 C 0.06983 0.42805 0.16422 0.0
C5311 C 0.06922 0.40453 0.1664 0.0
C5312 C 0.0449 0.38864 0.14546 0.0
H5313 H 0.05617 0.32472 0.1238 0.0
H5314 H 0.0601 0.34294 0.13836 0.0
H5315 H 0.03183 0.37603 0.13543 0.0
H5316 H 0.0589 0.43559 0.14787 0.0
H5317 H 0.05169 0.41452 0.14017 0.0
H5318 H 0.07699 0.38267 0.15071 0.0
C5319 C 0.05387 0.3444 0.13003 0.0
C5320 C 0.04173 0.37733 0.13869 0.0
C5321 C 0.05156 0.33393 0.12172 0.0
C5322 C 0.06183 0.42703 0.15322 0.0
C5323 C 0.0576 0.41496 0.14885 0.0
C5324 C 0.06705 0.38119 0.14763 0.0
C5325 C 0.04822 0.35657 0.12759 0.0
C5326 C 0.05127 0.36797 0.13596 0.0
C5327 C 0.06138 0.40357 0.15527 0.0
C5328 C 0.05765 0.3908 0.14976 0.0
H5329 H 0.03137 0.34884 0.10018 0.0
H5330 H 0.03563 0.36719 0.11445 0.0
H5331 H 0.07156 0.363 0.13872 0.0
H5332 H 0.07948 0.4172 0.17942 0.0
H5333 H 0.07224 0.39588 0.17154 0.0
C5334 C 0.33105 0.82499 0.41992 0.0
C5335 C 0.3193 0.82134 0.41405 0.0
C5336 C 0.34292 0.82113 0.41447 0.0
C5337 C 0.35623 0.80995 0.38294 0.0
H5338 H 0.38679 0.80105 0.40296 0.0
C5339 C 0.40126 0.78784 0.35894 0.0
C5340 C 0.41312 0.79386 0.36188 0.0
C5341 C 0.39018 0.79062 0.36622 0.0
C5342 C 0.37833 0.80357 0.39727 0.0
H5343 H 0.31071 0.81008 0.39849 0.0
H5344 H 0.33118 0.80302 0.38936 0.0
H5345 H 0.36669 0.80695 0.41419 0.0
H5346 H 0.42282 0.80707 0.37507 0.0
H5347 H 0.40343 0.81182 0.38789 0.0
H5348 H 0.36775 0.80644 0.36606 0.0
C5349 C 0.33138 0.80928 0.39779 0.0
C5350 C 0.36684 0.80699 0.40369 0.0
C5351 C 0.31961 0.81326 0.40309 0.0
C5352 C 0.4138 0.80232 0.37256 0.0
C5353 C 0.40273 0.805 0.37993 0.0
C5354 C 0.36762 0.80642 0.37657 0.0
C5355 C 0.34319 0.81344 0.40317 0.0
C5356 C 0.35561 0.81012 0.39658 0.0
C5357 C 0.39076 0.79936 0.37667 0.0
C5358 C 0.37875 0.80311 0.38365 0.0
H5359 H 0.33108 0.83123 0.42837 0.0
H5360 H 0.35184 0.82455 0.41884 0.0
H5361 H 0.34791 0.81267 0.37712 0.0
H5362 H 0.40045 0.78123 0.35081 0.0
H5363 H 0.3811 0.78603 0.36359 0.0
C5364 C 0.96177 0.15159 0.60758 0.0
C5365 C 0.95621 0.1636 0.61081 0.0
C5366 C 0.95872 0.14049 0.61472 0.0
C5367 C 0.94607 0.12852 0.64579 0.0
H5368 H 0.93557 0.09876 0.62534 0.0
C5369 C 0.92452 0.08118 0.66824 0.0
C5370 C 0.92787 0.0695 0.66208 0.0
C5371 C 0.92829 0.09311 0.66286 0.0
C5372 C 0.93866 0.10689 0.63123 0.0
H5373 H 0.94354 0.17351 0.62437 0.0
H5374 H 0.93833 0.15407 0.63695 0.0
H5375 H 0.94203 0.11864 0.61448 0.0
H5376 H 0.9385 0.06109 0.64597 0.0
H5377 H 0.94538 0.08164 0.63692 0.0
H5378 H 0.94288 0.11664 0.66258 0.0
C5379 C 0.945 0.15327 0.62886 0.0
C5380 C 0.94233 0.1183 0.62498 0.0
C5381 C 0.94794 0.16437 0.62163 0.0
C5382 C 0.93554 0.06993 0.65082 0.0
C5383 C 0.93943 0.08175 0.64558 0.0
C5384 C 0.94251 0.11701 0.65209 0.0
C5385 C 0.95017 0.14118 0.62532 0.0
C5386 C 0.94617 0.12919 0.63217 0.0
C5387 C 0.93558 0.09351 0.6513 0.0
C5388 C 0.9389 0.106 0.64486 0.0
H5389 H 0.96822 0.15069 0.59934 0.0
H5390 H 0.96296 0.1313 0.61186 0.0
H5391 H 0.949 0.1368 0.65156 0.0
H5392 H 0.91861 0.08112 0.67693 0.0
H5393 H 0.92513 0.10198 0.6675 0.0
C5394 C 0.58135 0.6956 0.87506 0.0
C5395 C 0.58303 0.70545 0.8658 0.0
C5396 C 0.59151 0.6921 0.8833 0.0
C5397 C 0.6235 0.70244 0.89601 0.0
H5398 H 0.63024 0.66546 0.89766 0.0
C5399 C 0.66969 0.66731 0.90398 0.0
C5400 C 0.67516 0.6722 0.91547 0.0
C5401 C 0.65728 0.67104 0.90014 0.0
C5402 C 0.62843 0.67581 0.89737 0.0
H5403 H 0.59649 0.71974 0.85824 0.0
H5404 H 0.61431 0.71356 0.87261 0.0
H5405 H 0.61079 0.67331 0.88676 0.0
H5406 H 0.67178 0.68456 0.93214 0.0
H5407 H 0.64998 0.69128 0.92526 0.0
H5408 H 0.64146 0.70489 0.90623 0.0
C5409 C 0.60509 0.7086 0.87356 0.0
C5410 C 0.61725 0.68031 0.89121 0.0
C5411 C 0.59492 0.71209 0.86528 0.0
C5412 C 0.66779 0.68062 0.92326 0.0
C5413 C 0.65538 0.68452 0.91929 0.0
C5414 C 0.63467 0.69792 0.90226 0.0
C5415 C 0.60357 0.69839 0.88249 0.0
C5416 C 0.61479 0.69369 0.89022 0.0
C5417 C 0.65007 0.67985 0.90762 0.0
C5418 C 0.63739 0.68457 0.90272 0.0
H5419 H 0.57227 0.69035 0.87576 0.0
H5420 H 0.58999 0.68431 0.8902 0.0
H5421 H 0.62179 0.7128 0.89551 0.0
H5422 H 0.67509 0.66073 0.89782 0.0
H5423 H 0.65351 0.66736 0.89104 0.0
C5424 C 0.349 0.56434 0.57213 0.0
C5425 C 0.33824 0.57266 0.57146 0.0
C5426 C 0.35394 0.56041 0.58406 0.0
C5427 C 0.34755 0.55878 0.61944 0.0
H5428 H 0.38517 0.55798 0.62075 0.0
C5429 C 0.37836 0.55355 0.6667 0.0
C5430 C 0.38894 0.54496 0.66598 0.0
C5431 C 0.37106 0.55642 0.65562 0.0
C5432 C 0.37466 0.55804 0.62051 0.0
H5433 H 0.32383 0.58297 0.58273 0.0
H5434 H 0.33275 0.57637 0.60383 0.0
H5435 H 0.37436 0.56417 0.60077 0.0
H5436 H 0.39988 0.53231 0.65323 0.0
H5437 H 0.38723 0.53743 0.63389 0.0
H5438 H 0.34804 0.55291 0.63943 0.0
C5439 C 0.33724 0.57274 0.59506 0.0
C5440 C 0.36844 0.56155 0.60904 0.0
C5441 C 0.33214 0.57654 0.58301 0.0
C5442 C 0.39184 0.53902 0.65408 0.0
C5443 C 0.38463 0.54198 0.643 0.0
C5444 C 0.35383 0.55537 0.63102 0.0
C5445 C 0.34842 0.56489 0.59569 0.0
C5446 C 0.35481 0.56175 0.60826 0.0
C5447 C 0.37429 0.55086 0.64361 0.0
C5448 C 0.36745 0.55478 0.63158 0.0
H5449 H 0.35375 0.56098 0.56337 0.0
H5450 H 0.36227 0.55401 0.58414 0.0
H5451 H 0.33705 0.5588 0.61916 0.0
H5452 H 0.37588 0.55825 0.67576 0.0
H5453 H 0.36318 0.56334 0.65635 0.0
C5454 C 0.84384 0.44146 0.929 0.0
C5455 C 0.83446 0.43163 0.9298 0.0
C5456 C 0.8487 0.44537 0.91703 0.0
C5457 C 0.84416 0.44351 0.88133 0.0
H5458 H 0.88133 0.44941 0.88168 0.0
C5459 C 0.87686 0.44896 0.83531 0.0
C5460 C 0.88629 0.45881 0.83586 0.0
C5461 C 0.86922 0.44613 0.84618 0.0
C5462 C 0.87092 0.44793 0.88144 0.0
H5463 H 0.82234 0.41856 0.91868 0.0
H5464 H 0.83117 0.42515 0.89757 0.0
H5465 H 0.87033 0.44347 0.90161 0.0
H5466 H 0.8947 0.47378 0.84802 0.0
H5467 H 0.88146 0.4688 0.86694 0.0
H5468 H 0.845 0.44772 0.86092 0.0
C5469 C 0.83461 0.42998 0.90624 0.0
C5470 C 0.86458 0.44455 0.89288 0.0
C5471 C 0.82957 0.42618 0.91831 0.0
C5472 C 0.8876 0.46607 0.84731 0.0
C5473 C 0.88005 0.46319 0.85817 0.0
C5474 C 0.85057 0.44679 0.86979 0.0
C5475 C 0.84451 0.43938 0.90552 0.0
C5476 C 0.85109 0.4425 0.89305 0.0
C5477 C 0.87096 0.45303 0.8578 0.0
C5478 C 0.86399 0.44921 0.86979 0.0
H5479 H 0.84762 0.44599 0.9377 0.0
H5480 H 0.85599 0.45294 0.91683 0.0
H5481 H 0.83376 0.44202 0.88112 0.0
H5482 H 0.87561 0.44322 0.82659 0.0
H5483 H 0.86232 0.43822 0.84565 0.0
C5484 C 0.30584 0.62949 0.08594 0.0
C5485 C 0.29671 0.63961 0.08637 0.0
C5486 C 0.30833 0.62197 0.09696 0.0
C5487 C 0.30741 0.62438 0.13219 0.0
H5488 H 0.31009 0.58684 0.13222 0.0
C5489 C 0.31307 0.59713 0.17989 0.0
C5490 C 0.32187 0.58676 0.18043 0.0
C5491 C 0.30933 0.60238 0.16802 0.0
C5492 C 0.30952 0.59733 0.13233 0.0
H5493 H 0.28272 0.64953 0.09855 0.0
H5494 H 0.28716 0.63652 0.11782 0.0
H5495 H 0.30481 0.59829 0.11205 0.0
H5496 H 0.33328 0.57336 0.16896 0.0
H5497 H 0.32703 0.58284 0.14803 0.0
H5498 H 0.31243 0.62363 0.15223 0.0
C5499 C 0.29243 0.63444 0.10897 0.0
C5500 C 0.30646 0.60386 0.1208 0.0
C5501 C 0.28986 0.64185 0.09793 0.0
C5502 C 0.32647 0.58136 0.16879 0.0
C5503 C 0.32286 0.58677 0.15683 0.0
C5504 C 0.31058 0.6179 0.14362 0.0
C5505 C 0.30181 0.62454 0.10865 0.0
C5506 C 0.30523 0.61745 0.12068 0.0
C5507 C 0.31448 0.59757 0.15635 0.0
C5508 C 0.31151 0.60429 0.14391 0.0
H5509 H 0.31124 0.62751 0.07714 0.0
H5510 H 0.31565 0.61446 0.09647 0.0
H5511 H 0.30683 0.63487 0.13231 0.0
H5512 H 0.30917 0.60134 0.1887 0.0
H5513 H 0.30253 0.61039 0.16803 0.0
C5514 C 0.15431 0.06132 0.42903 0.0
C5515 C 0.1643 0.07055 0.42965 0.0
C5516 C 0.14953 0.05715 0.41711 0.0
C5517 C 0.15519 0.05711 0.3815 0.0
H5518 H 0.11774 0.05338 0.38093 0.0
C5519 C 0.12366 0.05258 0.33471 0.0
C5520 C 0.11358 0.04339 0.3351 0.0
C5521 C 0.13111 0.0551 0.34577 0.0
C5522 C 0.12822 0.05423 0.38095 0.0
H5523 H 0.17756 0.08225 0.41832 0.0
H5524 H 0.16887 0.07524 0.39728 0.0
H5525 H 0.1285 0.05941 0.40096 0.0
H5526 H 0.10376 0.02926 0.3472 0.0
H5527 H 0.11668 0.03374 0.36651 0.0
H5528 H 0.15467 0.05224 0.36123 0.0
C5529 C 0.16488 0.07107 0.40605 0.0
C5530 C 0.13442 0.05766 0.39246 0.0
C5531 C 0.16985 0.0751 0.41808 0.0
C5532 C 0.1114 0.03645 0.34661 0.0
C5533 C 0.11876 0.03905 0.35768 0.0
C5534 C 0.14892 0.05378 0.36989 0.0
C5535 C 0.15441 0.06229 0.40547 0.0
C5536 C 0.148 0.05898 0.39295 0.0
C5537 C 0.12854 0.04855 0.35744 0.0
C5538 C 0.13538 0.05217 0.36957 0.0
H5539 H 0.15001 0.05747 0.43782 0.0
H5540 H 0.14177 0.05006 0.41706 0.0
H5541 H 0.16566 0.05799 0.38154 0.0
H5542 H 0.12559 0.05805 0.32595 0.0
H5543 H 0.13854 0.06252 0.34533 0.0
C5544 C 0.21107 0.3655 0.59568 0.0
C5545 C 0.20473 0.36567 0.58363 0.0
C5546 C 0.20721 0.37391 0.6056 0.0
C5547 C 0.17843 0.39119 0.61694 0.0
H5548 H 0.20239 0.40734 0.64105 0.0
C5549 C 0.17782 0.42408 0.66698 0.0
C5550 C 0.16966 0.41617 0.67451 0.0
C5551 C 0.1817 0.42007 0.65458 0.0
C5552 C 0.19558 0.40306 0.63428 0.0
H5553 H 0.18969 0.37512 0.57233 0.0
H5554 H 0.18296 0.38978 0.58964 0.0
H5555 H 0.21075 0.39643 0.62169 0.0
H5556 H 0.15858 0.39828 0.67474 0.0
H5557 H 0.16518 0.39142 0.65315 0.0
H5558 H 0.1633 0.39748 0.6297 0.0
C5559 C 0.19085 0.38308 0.59146 0.0
C5560 C 0.20037 0.3967 0.62329 0.0
C5561 C 0.19475 0.37472 0.58153 0.0
C5562 C 0.16495 0.40454 0.66919 0.0
C5563 C 0.16866 0.40065 0.65678 0.0
C5564 C 0.17366 0.39744 0.62797 0.0
C5565 C 0.19689 0.38262 0.60367 0.0
C5566 C 0.19185 0.3905 0.61463 0.0
C5567 C 0.17728 0.40823 0.64945 0.0
C5568 C 0.1822 0.40321 0.63689 0.0
H5569 H 0.21879 0.35863 0.59758 0.0
H5570 H 0.21197 0.37323 0.61494 0.0
H5571 H 0.17162 0.38642 0.61051 0.0
H5572 H 0.18162 0.43308 0.67086 0.0
H5573 H 0.18831 0.42612 0.64908 0.0
C5574 C 0.66878 0.4248 0.58271 0.0
C5575 C 0.66284 0.42857 0.57103 0.0
C5576 C 0.66357 0.42882 0.59464 0.0
C5577 C 0.63245 0.44085 0.60823 0.0
H5578 H 0.65291 0.44976 0.6385 0.0
C5579 C 0.60924 0.46436 0.65293 0.0
C5580 C 0.61197 0.45837 0.66484 0.0
C5581 C 0.61648 0.46129 0.64189 0.0
C5582 C 0.6471 0.44724 0.63011 0.0
H5583 H 0.64749 0.44023 0.56262 0.0
H5584 H 0.6388 0.44755 0.58317 0.0
H5585 H 0.66384 0.44321 0.61841 0.0
H5586 H 0.62481 0.44493 0.67471 0.0
H5587 H 0.63756 0.43967 0.65541 0.0
H5588 H 0.61575 0.44504 0.61979 0.0
C5589 C 0.64706 0.44107 0.58328 0.0
C5590 C 0.65334 0.44344 0.61864 0.0
C5591 C 0.6521 0.43693 0.57147 0.0
C5592 C 0.62245 0.44967 0.66564 0.0
C5593 C 0.62979 0.4467 0.65462 0.0
C5594 C 0.62626 0.44477 0.61959 0.0
C5595 C 0.65246 0.43679 0.59504 0.0
C5596 C 0.64607 0.44034 0.60751 0.0
C5597 C 0.62669 0.45227 0.64258 0.0
C5598 C 0.6335 0.44811 0.63061 0.0
H5599 H 0.67708 0.41836 0.58262 0.0
H5600 H 0.66796 0.42533 0.60352 0.0
H5601 H 0.6265 0.43816 0.6 0.0
H5602 H 0.60127 0.47114 0.65202 0.0
H5603 H 0.61398 0.46584 0.63275 0.0
C5604 C 0.2858 0.86193 0.4056 0.0
C5605 C 0.29228 0.86366 0.41744 0.0
C5606 C 0.28815 0.87032 0.3952 0.0
C5607 C 0.31295 0.89309 0.38278 0.0
H5608 H 0.28614 0.90097 0.35761 0.0
C5609 C 0.32284 0.92219 0.33547 0.0
C5610 C 0.3188 0.91543 0.32433 0.0
C5611 C 0.31875 0.91814 0.3478 0.0
C5612 C 0.2937 0.8989 0.36461 0.0
H5613 H 0.30593 0.87579 0.42788 0.0
H5614 H 0.3098 0.89061 0.40986 0.0
H5615 H 0.28043 0.88967 0.37761 0.0
H5616 H 0.30688 0.89956 0.31732 0.0
H5617 H 0.29965 0.89269 0.33868 0.0
H5618 H 0.32622 0.90221 0.36962 0.0
C5619 C 0.30313 0.88262 0.40847 0.0
C5620 C 0.29046 0.89236 0.37602 0.0
C5621 C 0.30086 0.87416 0.41882 0.0
C5622 C 0.31024 0.90491 0.32572 0.0
C5623 C 0.30601 0.90103 0.33795 0.0
C5624 C 0.31616 0.89975 0.37141 0.0
C5625 C 0.29694 0.8807 0.39646 0.0
C5626 C 0.3001 0.88904 0.38509 0.0
C5627 C 0.31034 0.90747 0.34913 0.0
C5628 C 0.30662 0.90239 0.36205 0.0
H5629 H 0.27917 0.8539 0.40423 0.0
H5630 H 0.28335 0.8684 0.38606 0.0
H5631 H 0.32066 0.89059 0.38946 0.0
H5632 H 0.32945 0.93032 0.33468 0.0
H5633 H 0.32222 0.92326 0.35629 0.0
C5634 C 0.66956 0.59763 0.83038 0.0
C5635 C 0.67382 0.58571 0.82533 0.0
C5636 C 0.67276 0.60128 0.843 0.0
C5637 C 0.6759 0.60384 0.87217 0.0
H5638 H 0.71256 0.60353 0.88062 0.0
C5639 C 0.69512 0.62609 0.91968 0.0
C5640 C 0.70533 0.63495 0.91795 0.0
C5641 C 0.69154 0.61768 0.90965 0.0
C5642 C 0.70229 0.6036 0.87842 0.0
H5643 H 0.6845 0.56811 0.82962 0.0
H5644 H 0.69036 0.57469 0.85176 0.0
H5645 H 0.70498 0.59299 0.86073 0.0
H5646 H 0.72017 0.64159 0.9046 0.0
H5647 H 0.71393 0.6269 0.88711 0.0
H5648 H 0.67322 0.61483 0.88956 0.0
C5649 C 0.68448 0.58112 0.8459 0.0
C5650 C 0.69794 0.59747 0.86712 0.0
C5651 C 0.68107 0.57735 0.83328 0.0
C5652 C 0.71225 0.63487 0.90621 0.0
C5653 C 0.70873 0.6264 0.89622 0.0
C5654 C 0.68022 0.60985 0.88352 0.0
C5655 C 0.68042 0.59319 0.85082 0.0
C5656 C 0.68475 0.59784 0.86372 0.0
C5657 C 0.69817 0.6179 0.89774 0.0
C5658 C 0.6935 0.61008 0.8866 0.0
H5659 H 0.66387 0.60423 0.82451 0.0
H5660 H 0.6696 0.61069 0.84648 0.0
H5661 H 0.66566 0.60419 0.86981 0.0
H5662 H 0.68962 0.62589 0.92863 0.0
H5663 H 0.68344 0.61116 0.91114 0.0
C5664 C 0.65447 0.38838 0.53578 0.0
C5665 C 0.66629 0.38684 0.54235 0.0
C5666 C 0.64418 0.37987 0.53806 0.0
C5667 C 0.63172 0.35727 0.56289 0.0
H5668 H 0.60677 0.34919 0.53592 0.0
C5669 C 0.58393 0.32896 0.57274 0.0
C5670 C 0.57294 0.33585 0.56851 0.0
C5671 C 0.59636 0.33274 0.56869 0.0
C5672 C 0.6137 0.35131 0.54353 0.0
H5673 H 0.6768 0.37489 0.55611 0.0
H5674 H 0.65891 0.35985 0.55991 0.0
H5675 H 0.62692 0.36025 0.53027 0.0
H5676 H 0.56628 0.35165 0.55631 0.0
H5677 H 0.58782 0.35804 0.54913 0.0
H5678 H 0.61833 0.34847 0.57615 0.0
C5679 C 0.65749 0.36779 0.55319 0.0
C5680 C 0.6252 0.35771 0.54032 0.0
C5681 C 0.66776 0.37637 0.55096 0.0
C5682 C 0.57457 0.34621 0.55981 0.0
C5683 C 0.5869 0.34981 0.55561 0.0
C5684 C 0.62025 0.35075 0.56607 0.0
C5685 C 0.6455 0.36954 0.5469 0.0
C5686 C 0.63417 0.36114 0.55002 0.0
C5687 C 0.59793 0.34325 0.56013 0.0
C5688 C 0.61097 0.34806 0.55647 0.0
H5689 H 0.65303 0.39637 0.52911 0.0
H5690 H 0.63505 0.38166 0.5332 0.0
H5691 H 0.63833 0.35985 0.57064 0.0
H5692 H 0.58295 0.32096 0.57947 0.0
H5693 H 0.60473 0.32752 0.5723 0.0
C5694 C 0.41951 0.33439 0.82478 0.0
C5695 C 0.41445 0.32273 0.81987 0.0
C5696 C 0.41443 0.34632 0.82063 0.0
C5697 C 0.38417 0.35916 0.80619 0.0
H5698 H 0.40356 0.39113 0.80207 0.0
C5699 C 0.36049 0.40425 0.78448 0.0
C5700 C 0.36175 0.41573 0.79168 0.0
C5701 C 0.36824 0.39351 0.78726 0.0
C5702 C 0.39805 0.38226 0.80325 0.0
H5703 H 0.40102 0.31432 0.80606 0.0
H5704 H 0.39262 0.33496 0.79845 0.0
H5705 H 0.41499 0.37108 0.80794 0.0
H5706 H 0.37258 0.42522 0.80704 0.0
H5707 H 0.38622 0.40638 0.81188 0.0
H5708 H 0.3673 0.3702 0.80142 0.0
C5709 C 0.40004 0.33502 0.80589 0.0
C5710 C 0.40457 0.3708 0.80664 0.0
C5711 C 0.40491 0.32318 0.81017 0.0
C5712 C 0.37135 0.41647 0.80135 0.0
C5713 C 0.3792 0.40572 0.80409 0.0
C5714 C 0.37773 0.37051 0.8027 0.0
C5715 C 0.40436 0.34673 0.8114 0.0
C5716 C 0.39769 0.35909 0.80802 0.0
C5717 C 0.37749 0.39405 0.79727 0.0
C5718 C 0.38459 0.38215 0.80109 0.0
H5719 H 0.42686 0.33426 0.83229 0.0
H5720 H 0.41797 0.35515 0.82509 0.0
H5721 H 0.37847 0.35045 0.80757 0.0
H5722 H 0.35327 0.40341 0.77689 0.0
H5723 H 0.36685 0.38469 0.78173 0.0
C5724 C 0.42858 0.15839 0.05502 0.0
C5725 C 0.42907 0.16647 0.06596 0.0
C5726 C 0.41678 0.15359 0.05055 0.0
C5727 C 0.38092 0.15569 0.0536 0.0
H5728 H 0.38323 0.11894 0.04581 0.0
C5729 C 0.33646 0.12122 0.05067 0.0
C5730 C 0.33668 0.11144 0.04117 0.0
C5731 C 0.3472 0.1293 0.0525 0.0
C5732 C 0.38242 0.12924 0.04774 0.0
H5733 H 0.41761 0.17654 0.08038 0.0
H5734 H 0.39679 0.16784 0.07274 0.0
H5735 H 0.40276 0.13095 0.05102 0.0
H5736 H 0.34811 0.10278 0.02579 0.0
H5737 H 0.36683 0.11692 0.02892 0.0
H5738 H 0.36041 0.15376 0.05058 0.0
C5739 C 0.40556 0.16538 0.0675 0.0
C5740 C 0.39363 0.13616 0.05072 0.0
C5741 C 0.41744 0.17036 0.07188 0.0
C5742 C 0.34769 0.11016 0.03325 0.0
C5743 C 0.35843 0.11823 0.03508 0.0
C5744 C 0.36963 0.14872 0.05063 0.0
C5745 C 0.40518 0.15655 0.05706 0.0
C5746 C 0.39307 0.14948 0.05365 0.0
C5747 C 0.35839 0.12774 0.04488 0.0
C5748 C 0.37028 0.13541 0.04765 0.0
H5749 H 0.43742 0.15539 0.05019 0.0
H5750 H 0.4168 0.14715 0.04225 0.0
H5751 H 0.38016 0.16595 0.05575 0.0
H5752 H 0.32809 0.12245 0.05691 0.0
H5753 H 0.34691 0.13645 0.0602 0.0
C5754 C 0.58352 0.17096 0.32503 0.0
C5755 C 0.5896 0.18271 0.32174 0.0
C5756 C 0.58903 0.15909 0.32127 0.0
C5757 C 0.62085 0.14561 0.31109 0.0
H5758 H 0.60086 0.11546 0.30078 0.0
C5759 C 0.64497 0.10104 0.28817 0.0
C5760 C 0.64179 0.089 0.29367 0.0
C5761 C 0.63777 0.1121 0.29122 0.0
C5762 C 0.60654 0.12381 0.30371 0.0
H5763 H 0.60568 0.19129 0.31123 0.0
H5764 H 0.61496 0.17083 0.30435 0.0
H5765 H 0.58962 0.13554 0.30676 0.0
H5766 H 0.62827 0.07898 0.3063 0.0
H5767 H 0.61556 0.09834 0.31152 0.0
H5768 H 0.63773 0.13401 0.30786 0.0
C5769 C 0.60627 0.17063 0.31025 0.0
C5770 C 0.60012 0.13528 0.30718 0.0
C5771 C 0.60089 0.1824 0.31413 0.0
C5772 C 0.63097 0.08815 0.30194 0.0
C5773 C 0.62366 0.0992 0.30488 0.0
C5774 C 0.62723 0.13424 0.3075 0.0
C5775 C 0.60064 0.15881 0.31405 0.0
C5776 C 0.60722 0.14637 0.31078 0.0
C5777 C 0.62714 0.11132 0.29973 0.0
C5778 C 0.62016 0.12326 0.30368 0.0
H5779 H 0.5748 0.17093 0.3309 0.0
H5780 H 0.58445 0.15017 0.3244 0.0
H5781 H 0.62665 0.15381 0.31417 0.0
H5782 H 0.65322 0.102 0.28172 0.0
H5783 H 0.64057 0.12131 0.287 0.0
C5784 C 0.57705 0.65195 0.41801 0.0
C5785 C 0.57207 0.66373 0.42273 0.0
C5786 C 0.58951 0.64792 0.42134 0.0
C5787 C 0.61851 0.64468 0.42494 0.0
H5788 H 0.62664 0.64374 0.46167 0.0
C5789 C 0.66613 0.62242 0.44378 0.0
C5790 C 0.66471 0.61351 0.454 0.0
C5791 C 0.65589 0.63056 0.44026 0.0
C5792 C 0.62451 0.64398 0.45138 0.0
H5793 H 0.57637 0.6807 0.43438 0.0
H5794 H 0.59826 0.67349 0.44042 0.0
H5795 H 0.60687 0.65462 0.45427 0.0
H5796 H 0.65159 0.60641 0.46882 0.0
H5797 H 0.63364 0.62061 0.46265 0.0
H5798 H 0.63585 0.63368 0.42204 0.0
C5799 C 0.59244 0.66744 0.4341 0.0
C5800 C 0.61328 0.65032 0.44714 0.0
C5801 C 0.57997 0.67159 0.43059 0.0
C5802 C 0.65296 0.61318 0.4609 0.0
C5803 C 0.64272 0.62137 0.45742 0.0
C5804 C 0.62976 0.63844 0.42916 0.0
C5805 C 0.59727 0.6555 0.42958 0.0
C5806 C 0.61002 0.65046 0.43391 0.0
C5807 C 0.64401 0.63 0.44693 0.0
C5808 C 0.63275 0.63778 0.44245 0.0
H5809 H 0.57123 0.64573 0.41185 0.0
H5810 H 0.59292 0.63863 0.41781 0.0
H5811 H 0.61627 0.64471 0.41467 0.0
H5812 H 0.67509 0.62295 0.43831 0.0
H5813 H 0.65721 0.6372 0.43223 0.0
C5814 C 0.12426 0.4188 0.69638 0.0
C5815 C 0.13371 0.41727 0.70609 0.0
C5816 C 0.11622 0.40846 0.69291 0.0
C5817 C 0.10416 0.37634 0.70329 0.0
H5818 H 0.10329 0.36892 0.6664 0.0
C5819 C 0.0975 0.32925 0.6692 0.0
C5820 C 0.08585 0.3239 0.67381 0.0
C5821 C 0.10116 0.3418 0.67267 0.0
C5822 C 0.10336 0.37093 0.67672 0.0
H5823 H 0.14176 0.4039 0.72018 0.0
H5824 H 0.12768 0.38581 0.71413 0.0
H5825 H 0.11365 0.38877 0.67412 0.0
H5826 H 0.06873 0.3276 0.68545 0.0
H5827 H 0.07531 0.34959 0.69178 0.0
H5828 H 0.0942 0.35826 0.70587 0.0
C5829 C 0.12647 0.39503 0.70923 0.0
C5830 C 0.1092 0.38233 0.68113 0.0
C5831 C 0.13458 0.40536 0.71265 0.0
C5832 C 0.07775 0.3315 0.68172 0.0
C5833 C 0.08153 0.34402 0.6854 0.0
C5834 C 0.09818 0.365 0.69885 0.0
C5835 C 0.1174 0.3964 0.69914 0.0
C5836 C 0.10992 0.38502 0.69448 0.0
C5837 C 0.09334 0.34923 0.68099 0.0
C5838 C 0.098 0.36205 0.68554 0.0
H5839 H 0.12331 0.42788 0.69117 0.0
H5840 H 0.10923 0.40983 0.68518 0.0
H5841 H 0.10449 0.37823 0.71362 0.0
H5842 H 0.10391 0.32366 0.66301 0.0
H5843 H 0.11037 0.34552 0.66922 0.0
C5844 C 0.33177 0.87466 0.94876 0.0
C5845 C 0.33298 0.88511 0.95743 0.0
C5846 C 0.34224 0.86635 0.94647 0.0
C5847 C 0.37474 0.85692 0.95928 0.0
H5848 H 0.38147 0.84731 0.92352 0.0
C5849 C 0.42531 0.84481 0.93981 0.0
C5850 C 0.42681 0.83429 0.93125 0.0
C5851 C 0.41303 0.84862 0.94395 0.0
C5852 C 0.37959 0.84971 0.93358 0.0
H5853 H 0.34602 0.8949 0.9707 0.0
H5854 H 0.36437 0.88067 0.96649 0.0
H5855 H 0.36146 0.85867 0.92901 0.0
H5856 H 0.4166 0.8194 0.92048 0.0
H5857 H 0.39491 0.82634 0.92755 0.0
H5858 H 0.39322 0.8485 0.96368 0.0
C5859 C 0.35528 0.87868 0.96163 0.0
C5860 C 0.36812 0.85622 0.93675 0.0
C5861 C 0.34477 0.88692 0.96399 0.0
C5862 C 0.41573 0.82751 0.92711 0.0
C5863 C 0.40335 0.8315 0.93109 0.0
C5864 C 0.38625 0.85053 0.95608 0.0
C5865 C 0.35419 0.86835 0.95274 0.0
C5866 C 0.36568 0.86017 0.94961 0.0
C5867 C 0.40191 0.84214 0.93951 0.0
C5868 C 0.38892 0.84712 0.94316 0.0
H5869 H 0.32276 0.87298 0.94362 0.0
H5870 H 0.34098 0.8584 0.93972 0.0
H5871 H 0.37305 0.85952 0.96932 0.0
H5872 H 0.43366 0.85018 0.94325 0.0
H5873 H 0.41221 0.85695 0.95032 0.0
C5874 C 0.92047 0.16873 0.17421 0.0
C5875 C 0.91408 0.18027 0.17769 0.0
C5876 C 0.9154 0.15667 0.17799 0.0
C5877 C 0.88423 0.14213 0.18873 0.0
H5878 H 0.90531 0.11263 0.19873 0.0
C5879 C 0.8618 0.09737 0.21263 0.0
C5880 C 0.8648 0.08539 0.20689 0.0
C5881 C 0.86886 0.10847 0.20942 0.0
C5882 C 0.89934 0.12079 0.19588 0.0
H5883 H 0.89792 0.18826 0.18853 0.0
H5884 H 0.88942 0.16747 0.19544 0.0
H5885 H 0.91582 0.13302 0.19242 0.0
H5886 H 0.87797 0.07549 0.1938 0.0
H5887 H 0.89046 0.09496 0.18833 0.0
H5888 H 0.86778 0.13005 0.1924 0.0
C5889 C 0.898 0.16759 0.18938 0.0
C5890 C 0.90534 0.13244 0.19223 0.0
C5891 C 0.90293 0.17954 0.18548 0.0
C5892 C 0.87541 0.08461 0.19835 0.0
C5893 C 0.88258 0.09572 0.19525 0.0
C5894 C 0.87827 0.1306 0.1925 0.0
C5895 C 0.90394 0.15597 0.18542 0.0
C5896 C 0.89783 0.14331 0.18876 0.0
C5897 C 0.87917 0.10781 0.20053 0.0
C5898 C 0.88574 0.11986 0.19625 0.0
H5899 H 0.92908 0.16901 0.1682 0.0
H5900 H 0.92021 0.14792 0.17474 0.0
H5901 H 0.87812 0.15014 0.18574 0.0
H5902 H 0.85375 0.09828 0.21932 0.0
H5903 H 0.86613 0.11765 0.21377 0.0
C5904 C 0.54184 0.15131 0.89304 0.0
C5905 C 0.54779 0.16333 0.89072 0.0
C5906 C 0.54419 0.14079 0.88481 0.0
C5907 C 0.56789 0.12857 0.86079 0.0
H5908 H 0.54077 0.10339 0.854 0.0
C5909 C 0.57636 0.08187 0.83038 0.0
C5910 C 0.57275 0.07059 0.83713 0.0
C5911 C 0.57243 0.09409 0.83486 0.0
C5912 C 0.54842 0.11039 0.85577 0.0
H5913 H 0.56069 0.17386 0.87786 0.0
H5914 H 0.5646 0.1556 0.86336 0.0
H5915 H 0.53562 0.1232 0.86588 0.0
H5916 H 0.56173 0.06318 0.85346 0.0
H5917 H 0.55474 0.08437 0.8611 0.0
H5918 H 0.58069 0.1156 0.85075 0.0
C5919 C 0.55831 0.15419 0.87166 0.0
C5920 C 0.5455 0.12168 0.86265 0.0
C5921 C 0.55603 0.16468 0.87994 0.0
C5922 C 0.56474 0.07171 0.8481 0.0
C5923 C 0.56065 0.08383 0.85243 0.0
C5924 C 0.57077 0.1173 0.8538 0.0
C5925 C 0.55247 0.1421 0.87402 0.0
C5926 C 0.55527 0.13075 0.86555 0.0
C5927 C 0.5646 0.09516 0.84599 0.0
C5928 C 0.56113 0.10796 0.85152 0.0
H5929 H 0.53549 0.14997 0.9013 0.0
H5930 H 0.53971 0.13157 0.88708 0.0
H5931 H 0.57569 0.13527 0.86293 0.0
H5932 H 0.58256 0.08127 0.82191 0.0
H5933 H 0.57558 0.10269 0.82973 0.0
C5934 C 0.58125 0.30747 0.12687 0.0
C5935 C 0.58266 0.29723 0.13575 0.0
C5936 C 0.5915 0.31097 0.11872 0.0
C5937 C 0.62315 0.29999 0.1056 0.0
H5938 H 0.63101 0.33678 0.10488 0.0
C5939 C 0.67036 0.334 0.09847 0.0
C5940 C 0.67579 0.32905 0.08699 0.0
C5941 C 0.65782 0.33058 0.10219 0.0
C5942 C 0.62889 0.32649 0.10492 0.0
H5943 H 0.59572 0.28231 0.14275 0.0
H5944 H 0.61367 0.28848 0.12858 0.0
H5945 H 0.61133 0.32925 0.11558 0.0
H5946 H 0.67218 0.31692 0.07019 0.0
H5947 H 0.65016 0.31078 0.07683 0.0
H5948 H 0.64104 0.29725 0.09535 0.0
C5949 C 0.60461 0.29374 0.12783 0.0
C5950 C 0.61756 0.32218 0.11095 0.0
C5951 C 0.59435 0.29025 0.136 0.0
C5952 C 0.66824 0.3209 0.07908 0.0
C5953 C 0.65569 0.31733 0.08291 0.0
C5954 C 0.63446 0.30433 0.09948 0.0
C5955 C 0.60337 0.30429 0.11926 0.0
C5956 C 0.6147 0.30886 0.11161 0.0
C5957 C 0.65042 0.32204 0.09459 0.0
C5958 C 0.63759 0.3176 0.09936 0.0
H5959 H 0.57232 0.31299 0.12639 0.0
H5960 H 0.59019 0.31903 0.11211 0.0
H5961 H 0.62113 0.28969 0.10583 0.0
H5962 H 0.6759 0.34037 0.10474 0.0
H5963 H 0.6541 0.33427 0.1113 0.0
C5964 C 0.46439 0.34674 0.38861 0.0
C5965 C 0.45849 0.33477 0.38589 0.0
C5966 C 0.46117 0.35777 0.38144 0.0
C5967 C 0.44705 0.36982 0.35109 0.0
H5968 H 0.43748 0.39942 0.37221 0.0
C5969 C 0.42485 0.41759 0.33005 0.0
C5970 C 0.42849 0.42917 0.33626 0.0
C5971 C 0.42878 0.40556 0.3351 0.0
C5972 C 0.4403 0.39134 0.36612 0.0
H5973 H 0.44511 0.32481 0.37306 0.0
H5974 H 0.43961 0.34413 0.36038 0.0
H5975 H 0.44434 0.37944 0.38262 0.0
H5976 H 0.43982 0.43729 0.35202 0.0
H5977 H 0.44699 0.41658 0.36046 0.0
H5978 H 0.4432 0.38186 0.33455 0.0
C5979 C 0.44667 0.34495 0.36813 0.0
C5980 C 0.4442 0.37987 0.37212 0.0
C5981 C 0.44979 0.33392 0.37541 0.0
C5982 C 0.43663 0.42853 0.34717 0.0
C5983 C 0.44068 0.41662 0.35207 0.0
C5984 C 0.44327 0.3814 0.34504 0.0
C5985 C 0.45209 0.35704 0.3713 0.0
C5986 C 0.44774 0.36904 0.36468 0.0
C5987 C 0.43653 0.40496 0.34635 0.0
C5988 C 0.44001 0.39236 0.35251 0.0
H5989 H 0.4712 0.34771 0.39655 0.0
H5990 H 0.46563 0.36694 0.38397 0.0
H5991 H 0.44972 0.36157 0.34514 0.0
H5992 H 0.41858 0.4178 0.32162 0.0
H5993 H 0.42539 0.39677 0.33047 0.0
C5994 C 0.32139 0.18709 0.59788 0.0
C5995 C 0.32095 0.17877 0.58711 0.0
C5996 C 0.3332 0.19143 0.60275 0.0
C5997 C 0.36845 0.19445 0.59629 0.0
H5998 H 0.36982 0.19486 0.63391 0.0
C5999 C 0.41542 0.20128 0.62742 0.0
C6000 C 0.41422 0.20947 0.63827 0.0
C6001 C 0.40455 0.1982 0.61987 0.0
C6002 C 0.36956 0.19493 0.6234 0.0
H6003 H 0.3325 0.16892 0.57259 0.0
H6004 H 0.35342 0.17627 0.58141 0.0
H6005 H 0.35011 0.18795 0.62307 0.0
H6006 H 0.40085 0.22137 0.64932 0.0
H6007 H 0.38192 0.21594 0.63623 0.0
H6008 H 0.38818 0.2012 0.59681 0.0
C6009 C 0.34454 0.17955 0.58596 0.0
C6010 C 0.35824 0.19099 0.61716 0.0
C6011 C 0.3326 0.17533 0.58092 0.0
C6012 C 0.40208 0.21495 0.64109 0.0
C6013 C 0.39123 0.2118 0.63363 0.0
C6014 C 0.37989 0.1983 0.60258 0.0
C6015 C 0.34495 0.18739 0.59716 0.0
C6016 C 0.35743 0.19092 0.60353 0.0
C6017 C 0.39229 0.20318 0.62312 0.0
C6018 C 0.38045 0.19878 0.61621 0.0
H6019 H 0.31255 0.19012 0.60269 0.0
H6020 H 0.33311 0.19781 0.61111 0.0
H6021 H 0.36814 0.19453 0.58579 0.0
H6022 H 0.42466 0.19693 0.62498 0.0
H6023 H 0.40563 0.1915 0.61185 0.0
C6024 C 0.5366 0.84514 0.11077 0.0
C6025 C 0.54369 0.83368 0.11267 0.0
C6026 C 0.5392 0.85614 0.11824 0.0
C6027 C 0.55468 0.86796 0.14832 0.0
H6028 H 0.55813 0.89984 0.12869 0.0
C6029 C 0.5753 0.91642 0.16952 0.0
C6030 C 0.56985 0.92792 0.16466 0.0
C6031 C 0.57148 0.90436 0.16444 0.0
C6032 C 0.55701 0.89109 0.13439 0.0
H6033 H 0.55874 0.82457 0.12422 0.0
H6034 H 0.56329 0.84384 0.13729 0.0
H6035 H 0.55241 0.87992 0.11756 0.0
H6036 H 0.55544 0.93585 0.15156 0.0
H6037 H 0.54849 0.915 0.14313 0.0
H6038 H 0.55928 0.87926 0.16521 0.0
C6039 C 0.5557 0.84429 0.13004 0.0
C6040 C 0.55374 0.87965 0.12798 0.0
C6041 C 0.55313 0.83329 0.12251 0.0
C6042 C 0.55998 0.92714 0.15531 0.0
C6043 C 0.55606 0.91518 0.15042 0.0
C6044 C 0.55788 0.87949 0.1548 0.0
C6045 C 0.54893 0.85591 0.12781 0.0
C6046 C 0.55244 0.86797 0.13486 0.0
C6047 C 0.56207 0.90367 0.15455 0.0
C6048 C 0.55896 0.89122 0.1479 0.0
H6049 H 0.52921 0.84572 0.10332 0.0
H6050 H 0.53369 0.8649 0.11642 0.0
H6051 H 0.55373 0.85909 0.15387 0.0
H6052 H 0.58295 0.91677 0.17671 0.0
H6053 H 0.57631 0.89567 0.16784 0.0
C6054 C 0.8311 0.32523 0.41933 0.0
C6055 C 0.81939 0.32077 0.41396 0.0
C6056 C 0.84301 0.32126 0.41405 0.0
C6057 C 0.85613 0.30823 0.38321 0.0
H6058 H 0.88735 0.30159 0.40309 0.0
C6059 C 0.90122 0.28611 0.35944 0.0
C6060 C 0.91302 0.29246 0.36186 0.0
C6061 C 0.89024 0.289 0.36683 0.0
C6062 C 0.8787 0.30349 0.39743 0.0
H6063 H 0.81096 0.30795 0.39957 0.0
H6064 H 0.83152 0.30074 0.39075 0.0
H6065 H 0.8673 0.30769 0.41435 0.0
H6066 H 0.92273 0.3064 0.37428 0.0
H6067 H 0.90351 0.3114 0.38725 0.0
H6068 H 0.8674 0.30396 0.36634 0.0
C6069 C 0.83163 0.30768 0.39864 0.0
C6070 C 0.86724 0.30701 0.40386 0.0
C6071 C 0.81982 0.31176 0.40375 0.0
C6072 C 0.91375 0.30138 0.37216 0.0
C6073 C 0.90277 0.3042 0.37963 0.0
C6074 C 0.86749 0.30463 0.37683 0.0
C6075 C 0.84338 0.31267 0.40342 0.0
C6076 C 0.85577 0.3093 0.39681 0.0
C6077 C 0.89084 0.29823 0.37686 0.0
C6078 C 0.87887 0.30211 0.38386 0.0
H6079 H 0.83104 0.3322 0.4272 0.0
H6080 H 0.85188 0.32531 0.41796 0.0
H6081 H 0.84761 0.31029 0.37741 0.0
H6082 H 0.90036 0.27914 0.35163 0.0
H6083 H 0.8812 0.28412 0.36459 0.0
C6084 C 0.46483 0.65346 0.61481 0.0
C6085 C 0.45887 0.66558 0.61652 0.0
C6086 C 0.46233 0.6433 0.62341 0.0
C6087 C 0.45991 0.62457 0.64575 0.0
H6088 H 0.42402 0.61896 0.65559 0.0
C6089 C 0.43908 0.57461 0.65753 0.0
C6090 C 0.43049 0.5732 0.66802 0.0
C6091 C 0.44353 0.58682 0.65386 0.0
C6092 C 0.43412 0.62053 0.65314 0.0
H6093 H 0.44597 0.67673 0.62885 0.0
H6094 H 0.44176 0.65902 0.64403 0.0
H6095 H 0.43007 0.63878 0.64413 0.0
H6096 H 0.41998 0.5835 0.68304 0.0
H6097 H 0.4276 0.60509 0.67636 0.0
H6098 H 0.4638 0.60599 0.6542 0.0
C6099 C 0.4482 0.6573 0.6359 0.0
C6100 C 0.43761 0.63189 0.64658 0.0
C6101 C 0.45067 0.66746 0.62725 0.0
C6102 C 0.42661 0.5843 0.67494 0.0
C6103 C 0.43093 0.59662 0.67109 0.0
C6104 C 0.45641 0.61319 0.65221 0.0
C6105 C 0.45387 0.64504 0.63399 0.0
C6106 C 0.45049 0.63387 0.64248 0.0
C6107 C 0.4394 0.59797 0.66048 0.0
C6108 C 0.44342 0.6109 0.65566 0.0
H6109 H 0.47118 0.6517 0.60663 0.0
H6110 H 0.46671 0.63395 0.6215 0.0
H6111 H 0.46997 0.62592 0.64303 0.0
H6112 H 0.44232 0.56624 0.65206 0.0
H6113 H 0.44992 0.58757 0.64555 0.0
C6114 C 0.09746 0.21147 0.86436 0.0
C6115 C 0.08652 0.20337 0.86413 0.0
C6116 C 0.10797 0.20857 0.8724 0.0
C6117 C 0.11885 0.18802 0.90004 0.0
H6118 H 0.15218 0.19092 0.88287 0.0
C6119 C 0.17416 0.16684 0.90299 0.0
C6120 C 0.17819 0.17016 0.91559 0.0
C6121 C 0.16222 0.17098 0.89827 0.0
C6122 C 0.14294 0.19004 0.88781 0.0
H6123 H 0.0778 0.18611 0.8724 0.0
H6124 H 0.0963 0.18083 0.88619 0.0
H6125 H 0.13282 0.19857 0.87193 0.0
H6126 H 0.17243 0.1797 0.93343 0.0
H6127 H 0.15135 0.18705 0.92504 0.0
H6128 H 0.12917 0.17906 0.9158 0.0
C6129 C 0.09668 0.18956 0.88035 0.0
C6130 C 0.13185 0.19458 0.8816 0.0
C6131 C 0.08612 0.19252 0.87237 0.0
C6132 C 0.16962 0.17706 0.92366 0.0
C6133 C 0.15757 0.18125 0.91887 0.0
C6134 C 0.13004 0.18349 0.90631 0.0
C6135 C 0.10782 0.19742 0.88028 0.0
C6136 C 0.11964 0.19348 0.88754 0.0
C6137 C 0.15398 0.17857 0.90598 0.0
C6138 C 0.14215 0.18424 0.90011 0.0
H6139 H 0.09797 0.21999 0.85823 0.0
H6140 H 0.11631 0.21496 0.87228 0.0
H6141 H 0.10958 0.18714 0.90492 0.0
H6142 H 0.18038 0.16128 0.8966 0.0
H6143 H 0.15956 0.16848 0.88841 0.0
C6144 C 0.88795 0.03592 0.65404 0.0
C6145 C 0.88616 0.04204 0.66606 0.0
C6146 C 0.87956 0.03851 0.64371 0.0
C6147 C 0.8567 0.06358 0.63202 0.0
H6148 H 0.84946 0.03772 0.60569 0.0
C6149 C 0.82842 0.07485 0.58441 0.0
C6150 C 0.83559 0.0714 0.57333 0.0
C6151 C 0.83222 0.0704 0.59669 0.0
C6152 C 0.85133 0.04501 0.61302 0.0
H6153 H 0.87386 0.05523 0.6769 0.0
H6154 H 0.85903 0.0595 0.65898 0.0
H6155 H 0.86044 0.03131 0.62565 0.0
H6156 H 0.85197 0.06017 0.56635 0.0
H6157 H 0.8584 0.05229 0.58762 0.0
H6158 H 0.8477 0.07729 0.61922 0.0
C6159 C 0.86709 0.05295 0.6574 0.0
C6160 C 0.8577 0.04138 0.62441 0.0
C6161 C 0.87555 0.05044 0.6677 0.0
C6162 C 0.84631 0.06309 0.57471 0.0
C6163 C 0.84993 0.05848 0.58688 0.0
C6164 C 0.8502 0.06718 0.62067 0.0
C6165 C 0.8691 0.04717 0.6452 0.0
C6166 C 0.86083 0.05069 0.63389 0.0
C6167 C 0.84304 0.06219 0.59801 0.0
C6168 C 0.8478 0.058 0.61091 0.0
H6169 H 0.89606 0.02943 0.65247 0.0
H6170 H 0.88156 0.03403 0.63441 0.0
H6171 H 0.85905 0.07105 0.63902 0.0
H6172 H 0.82013 0.08126 0.58361 0.0
H6173 H 0.82677 0.0734 0.60516 0.0
C6174 C 0.34706 0.9356 0.93024 0.0
C6175 C 0.33618 0.92741 0.93044 0.0
C6176 C 0.35237 0.93973 0.91854 0.0
C6177 C 0.34663 0.94242 0.88311 0.0
H6178 H 0.38425 0.94348 0.88244 0.0
C6179 C 0.37809 0.94883 0.83651 0.0
C6180 C 0.38861 0.95745 0.83753 0.0
C6181 C 0.37065 0.94573 0.84742 0.0
C6182 C 0.37374 0.94336 0.8825 0.0
H6183 H 0.32201 0.91749 0.91852 0.0
H6184 H 0.33157 0.92444 0.89785 0.0
H6185 H 0.37315 0.93666 0.90206 0.0
H6186 H 0.39931 0.96993 0.85065 0.0
H6187 H 0.38642 0.96439 0.86973 0.0
H6188 H 0.3474 0.94885 0.86329 0.0
C6189 C 0.33587 0.92781 0.90682 0.0
C6190 C 0.36735 0.93948 0.89377 0.0
C6191 C 0.3304 0.9238 0.91863 0.0
C6192 C 0.39131 0.96321 0.84957 0.0
C6193 C 0.38396 0.96 0.8605 0.0
C6194 C 0.35307 0.9462 0.87174 0.0
C6195 C 0.3471 0.93561 0.90666 0.0
C6196 C 0.35371 0.93916 0.89431 0.0
C6197 C 0.37369 0.95108 0.85957 0.0
C6198 C 0.36669 0.94687 0.87141 0.0
H6199 H 0.35158 0.93877 0.93919 0.0
H6200 H 0.36074 0.94607 0.91882 0.0
H6201 H 0.33612 0.94235 0.8832 0.0
H6202 H 0.37576 0.94427 0.82733 0.0
H6203 H 0.36282 0.93878 0.84645 0.0
C6204 C 0.83215 0.09695 0.171 0.0
C6205 C 0.82863 0.08468 0.17577 0.0
C6206 C 0.82873 0.1007 0.15847 0.0
C6207 C 0.82566 0.10358 0.12933 0.0
H6208 H 0.78915 0.10133 0.12052 0.0
C6209 C 0.80576 0.1254 0.08199 0.0
C6210 C 0.79511 0.13373 0.08375 0.0
C6211 C 0.80964 0.11702 0.0919 0.0
C6212 C 0.79939 0.10194 0.12282 0.0
H6213 H 0.819 0.06658 0.17105 0.0
H6214 H 0.81276 0.07331 0.14907 0.0
H6215 H 0.79714 0.09093 0.14033 0.0
H6216 H 0.77981 0.13939 0.09702 0.0
H6217 H 0.78657 0.12472 0.11434 0.0
H6218 H 0.82788 0.11496 0.11213 0.0
C6219 C 0.81824 0.07995 0.15509 0.0
C6220 C 0.80397 0.0959 0.13408 0.0
C6221 C 0.82186 0.07609 0.16762 0.0
C6222 C 0.78806 0.13309 0.09539 0.0
C6223 C 0.79189 0.12464 0.10528 0.0
C6224 C 0.82112 0.1095 0.11803 0.0
C6225 C 0.82158 0.09233 0.15045 0.0
C6226 C 0.81709 0.09697 0.13761 0.0
C6227 C 0.80288 0.11672 0.10374 0.0
C6228 C 0.80787 0.10901 0.11482 0.0
H6229 H 0.83745 0.10375 0.17702 0.0
H6230 H 0.83133 0.11035 0.1552 0.0
H6231 H 0.83584 0.10448 0.13179 0.0
H6232 H 0.81136 0.12565 0.0731 0.0
H6233 H 0.81807 0.11094 0.0904 0.0
C6234 C 0.61098 0.53685 0.34715 0.0
C6235 C 0.61297 0.54302 0.33519 0.0
C6236 C 0.61938 0.53915 0.35755 0.0
C6237 C 0.64286 0.56346 0.3696 0.0
H6238 H 0.64972 0.53694 0.39537 0.0
C6239 C 0.6717 0.57367 0.41693 0.0
C6240 C 0.66464 0.57018 0.42806 0.0
C6241 C 0.66775 0.56929 0.40467 0.0
C6242 C 0.64794 0.54442 0.38821 0.0
H6243 H 0.62556 0.55609 0.32455 0.0
H6244 H 0.64039 0.55989 0.34258 0.0
H6245 H 0.63838 0.53119 0.37541 0.0
H6246 H 0.64838 0.55888 0.43519 0.0
H6247 H 0.6417 0.5511 0.41395 0.0
H6248 H 0.6523 0.57671 0.38256 0.0
C6249 C 0.63219 0.55349 0.34406 0.0
C6250 C 0.64137 0.54116 0.37681 0.0
C6251 C 0.62373 0.55126 0.3337 0.0
C6252 C 0.65396 0.56181 0.42678 0.0
C6253 C 0.65019 0.55726 0.41462 0.0
C6254 C 0.64955 0.56669 0.38095 0.0
C6255 C 0.63003 0.5476 0.35617 0.0
C6256 C 0.63841 0.55071 0.36753 0.0
C6257 C 0.65689 0.56112 0.40342 0.0
C6258 C 0.65183 0.55728 0.39052 0.0
H6259 H 0.60276 0.53048 0.34861 0.0
H6260 H 0.61727 0.5346 0.36678 0.0
H6261 H 0.64065 0.57112 0.36275 0.0
H6262 H 0.67995 0.58014 0.41765 0.0
H6263 H 0.67309 0.57238 0.39616 0.0
C6264 C 0.67707 0.92332 0.66563 0.0
C6265 C 0.68085 0.91639 0.67674 0.0
C6266 C 0.68127 0.91935 0.65331 0.0
C6267 C 0.70629 0.90008 0.63659 0.0
H6268 H 0.67954 0.89211 0.61139 0.0
C6269 C 0.71453 0.86348 0.5954 0.0
C6270 C 0.70818 0.86528 0.5835 0.0
C6271 C 0.71207 0.87179 0.60582 0.0
C6272 C 0.6872 0.89452 0.61817 0.0
H6273 H 0.69242 0.90027 0.68376 0.0
H6274 H 0.69988 0.89354 0.66241 0.0
H6275 H 0.67384 0.90357 0.63129 0.0
H6276 H 0.69462 0.87745 0.573 0.0
H6277 H 0.69054 0.89215 0.59109 0.0
H6278 H 0.71965 0.89095 0.62362 0.0
C6279 C 0.69363 0.90196 0.66315 0.0
C6280 C 0.6839 0.90108 0.62958 0.0
C6281 C 0.68927 0.90576 0.67537 0.0
C6282 C 0.6996 0.87577 0.5821 0.0
C6283 C 0.69721 0.88415 0.59249 0.0
C6284 C 0.70961 0.89365 0.62514 0.0
C6285 C 0.68954 0.90858 0.65198 0.0
C6286 C 0.69336 0.9036 0.63905 0.0
C6287 C 0.70329 0.88217 0.60455 0.0
C6288 C 0.70005 0.89044 0.61595 0.0
H6289 H 0.67056 0.93153 0.66642 0.0
H6290 H 0.67799 0.92461 0.64483 0.0
H6291 H 0.71379 0.90205 0.64369 0.0
H6292 H 0.72117 0.85546 0.59679 0.0
H6293 H 0.71677 0.8698 0.61501 0.0
C6294 C 0.12285 0.94565 0.66635 0.0
C6295 C 0.11374 0.95568 0.66489 0.0
C6296 C 0.13078 0.94199 0.656 0.0
C6297 C 0.14347 0.9523 0.62413 0.0
H6298 H 0.14453 0.91534 0.61709 0.0
C6299 C 0.15248 0.91733 0.57791 0.0
C6300 C 0.16433 0.92196 0.57302 0.0
C6301 C 0.14815 0.92108 0.59015 0.0
C6302 C 0.14439 0.92568 0.61898 0.0
H6303 H 0.10611 0.97007 0.6516 0.0
H6304 H 0.11999 0.96365 0.63345 0.0
H6305 H 0.13342 0.92325 0.63641 0.0
H6306 H 0.18112 0.93389 0.57727 0.0
H6307 H 0.17339 0.94064 0.59877 0.0
H6308 H 0.15415 0.95469 0.60643 0.0
C6309 C 0.12103 0.95867 0.64264 0.0
C6310 C 0.13811 0.93021 0.63008 0.0
C6311 C 0.11303 0.9623 0.653 0.0
C6312 C 0.17197 0.93014 0.58082 0.0
C6313 C 0.16751 0.93407 0.59305 0.0
C6314 C 0.14987 0.94774 0.61306 0.0
C6315 C 0.12982 0.94831 0.64398 0.0
C6316 C 0.13738 0.94358 0.63267 0.0
C6317 C 0.15549 0.92966 0.59776 0.0
C6318 C 0.15017 0.9344 0.61025 0.0
H6319 H 0.12369 0.9404 0.67541 0.0
H6320 H 0.13758 0.93409 0.65738 0.0
H6321 H 0.14315 0.96264 0.62594 0.0
H6322 H 0.14642 0.91096 0.57215 0.0
H6323 H 0.1388 0.91761 0.59348 0.0
C6324 C 0.78567 0.36011 0.40243 0.0
C6325 C 0.79213 0.36271 0.41413 0.0
C6326 C 0.78835 0.36744 0.39134 0.0
C6327 C 0.80225 0.39817 0.37946 0.0
H6328 H 0.80907 0.37812 0.34839 0.0
C6329 C 0.82364 0.42015 0.33178 0.0
C6330 C 0.81938 0.41461 0.32008 0.0
C6331 C 0.81963 0.41491 0.3437 0.0
C6332 C 0.80699 0.38393 0.3569 0.0
H6333 H 0.80607 0.37534 0.42356 0.0
H6334 H 0.81068 0.3882 0.40417 0.0
H6335 H 0.80304 0.36705 0.36827 0.0
H6336 H 0.80686 0.39998 0.31162 0.0
H6337 H 0.79954 0.39124 0.3322 0.0
H6338 H 0.80612 0.4151 0.36797 0.0
C6339 C 0.80356 0.3805 0.40359 0.0
C6340 C 0.80356 0.37755 0.36831 0.0
C6341 C 0.80096 0.37309 0.41466 0.0
C6342 C 0.81049 0.4043 0.32049 0.0
C6343 C 0.80637 0.39923 0.33231 0.0
C6344 C 0.80558 0.40461 0.36795 0.0
C6345 C 0.79746 0.37758 0.39175 0.0
C6346 C 0.80107 0.38458 0.3797 0.0
C6347 C 0.8112 0.40415 0.34407 0.0
C6348 C 0.80789 0.39755 0.35649 0.0
H6349 H 0.77877 0.35222 0.40173 0.0
H6350 H 0.78338 0.36508 0.38239 0.0
H6351 H 0.80036 0.40384 0.38811 0.0
H6352 H 0.83052 0.42809 0.33172 0.0
H6353 H 0.82356 0.41894 0.35257 0.0
C6354 C 0.17945 0.07853 0.8332 0.0
C6355 C 0.17156 0.08681 0.82578 0.0
C6356 C 0.18331 0.08215 0.84573 0.0
C6357 C 0.19745 0.0983 0.86653 0.0
H6358 H 0.17372 0.11475 0.89066 0.0
C6359 C 0.21351 0.13396 0.9068 0.0
C6360 C 0.20705 0.13337 0.91878 0.0
C6361 C 0.20954 0.12609 0.89647 0.0
C6362 C 0.18046 0.11004 0.88412 0.0
H6363 H 0.16094 0.10497 0.82589 0.0
H6364 H 0.16748 0.11114 0.84771 0.0
H6365 H 0.16528 0.10456 0.87103 0.0
H6366 H 0.19172 0.12373 0.92951 0.0
H6367 H 0.18481 0.11005 0.91149 0.0
H6368 H 0.21267 0.10411 0.87947 0.0
C6369 C 0.17077 0.10192 0.84388 0.0
C6370 C 0.17563 0.10428 0.87284 0.0
C6371 C 0.16709 0.09842 0.83134 0.0
C6372 C 0.19687 0.12444 0.92038 0.0
C6373 C 0.19286 0.11665 0.91005 0.0
C6374 C 0.2023 0.10417 0.87777 0.0
C6375 C 0.17914 0.09397 0.85111 0.0
C6376 C 0.18409 0.09856 0.86382 0.0
C6377 C 0.199 0.11754 0.89791 0.0
C6378 C 0.19387 0.11028 0.88658 0.0
H6379 H 0.18308 0.06954 0.82914 0.0
H6380 H 0.18971 0.0758 0.85113 0.0
H6381 H 0.20421 0.09405 0.8597 0.0
H6382 H 0.22138 0.14075 0.90527 0.0
H6383 H 0.21439 0.12709 0.8872 0.0
C6384 C 0.57123 0.84507 0.06184 0.0
C6385 C 0.57076 0.83469 0.07064 0.0
C6386 C 0.58308 0.85011 0.05777 0.0
C6387 C 0.61865 0.84435 0.05682 0.0
H6388 H 0.61927 0.88185 0.05373 0.0
C6389 C 0.66533 0.87597 0.05101 0.0
C6390 C 0.6646 0.88596 0.04175 0.0
C6391 C 0.65437 0.86852 0.05397 0.0
C6392 C 0.61922 0.87136 0.05443 0.0
H6393 H 0.58233 0.8211 0.08173 0.0
H6394 H 0.60322 0.83022 0.07488 0.0
H6395 H 0.59938 0.87105 0.06022 0.0
H6396 H 0.65201 0.89562 0.02794 0.0
H6397 H 0.63288 0.88274 0.03323 0.0
H6398 H 0.63875 0.84488 0.05132 0.0
C6399 C 0.59438 0.83431 0.07097 0.0
C6400 C 0.6078 0.86514 0.05811 0.0
C6401 C 0.58243 0.8291 0.07492 0.0
C6402 C 0.65286 0.88806 0.03519 0.0
C6403 C 0.64189 0.88072 0.03824 0.0
C6404 C 0.63018 0.85063 0.05326 0.0
C6405 C 0.59481 0.84508 0.06256 0.0
C6406 C 0.60728 0.85154 0.05916 0.0
C6407 C 0.64248 0.87103 0.04781 0.0
C6408 C 0.63049 0.86419 0.05186 0.0
H6409 H 0.56239 0.84942 0.05818 0.0
H6410 H 0.58301 0.85811 0.05095 0.0
H6411 H 0.61858 0.83386 0.05747 0.0
H6412 H 0.67427 0.87411 0.0562 0.0
H6413 H 0.65506 0.86115 0.06143 0.0
C6414 C 0.35844 0.90287 0.28925 0.0
C6415 C 0.36068 0.91484 0.29533 0.0
C6416 C 0.36673 0.89237 0.29149 0.0
C6417 C 0.39053 0.88004 0.31536 0.0
H6418 H 0.39734 0.85473 0.28839 0.0
C6419 C 0.42056 0.83318 0.32437 0.0
C6420 C 0.41399 0.82188 0.32048 0.0
C6421 C 0.4161 0.84541 0.32042 0.0
C6422 C 0.39555 0.86175 0.29601 0.0
H6423 H 0.37354 0.92534 0.30825 0.0
H6424 H 0.38815 0.90712 0.31196 0.0
H6425 H 0.38563 0.8746 0.28309 0.0
H6426 H 0.39799 0.8145 0.30896 0.0
H6427 H 0.39039 0.83568 0.30199 0.0
H6428 H 0.40034 0.86704 0.3283 0.0
C6429 C 0.37986 0.90573 0.30566 0.0
C6430 C 0.38878 0.87309 0.293 0.0
C6431 C 0.37153 0.9162 0.30348 0.0
C6432 C 0.40322 0.82302 0.3122 0.0
C6433 C 0.39892 0.83516 0.30811 0.0
C6434 C 0.39739 0.86873 0.31835 0.0
C6435 C 0.3775 0.89364 0.2998 0.0
C6436 C 0.38589 0.88224 0.3027 0.0
C6437 C 0.40517 0.8465 0.31231 0.0
C6438 C 0.39968 0.85932 0.30877 0.0
H6439 H 0.35014 0.90152 0.28295 0.0
H6440 H 0.36447 0.88316 0.28697 0.0
H6441 H 0.38837 0.88679 0.32312 0.0
H6442 H 0.42887 0.83259 0.33078 0.0
H6443 H 0.42112 0.85402 0.32376 0.0
C6444 C 0.33279 0.62391 0.55493 0.0
C6445 C 0.33478 0.61478 0.545 0.0
C6446 C 0.34279 0.63219 0.55877 0.0
C6447 C 0.37479 0.64543 0.54932 0.0
H6448 H 0.38094 0.64629 0.58644 0.0
C6449 C 0.42048 0.65301 0.58504 0.0
C6450 C 0.42588 0.66464 0.58044 0.0
C6451 C 0.40809 0.64919 0.58123 0.0
C6452 C 0.37928 0.64623 0.57606 0.0
H6453 H 0.34862 0.60755 0.53092 0.0
H6454 H 0.36616 0.62202 0.53768 0.0
H6455 H 0.36174 0.63536 0.57802 0.0
H6456 H 0.42239 0.68161 0.56853 0.0
H6457 H 0.40063 0.67478 0.56164 0.0
H6458 H 0.39265 0.65593 0.5474 0.0
C6459 C 0.35682 0.62281 0.54244 0.0
C6460 C 0.36825 0.64005 0.57124 0.0
C6461 C 0.34681 0.61447 0.53862 0.0
C6462 C 0.41844 0.67262 0.57226 0.0
C6463 C 0.40606 0.66868 0.56826 0.0
C6464 C 0.3858 0.65172 0.55417 0.0
C6465 C 0.35499 0.63157 0.55274 0.0
C6466 C 0.36602 0.63933 0.5578 0.0
C6467 C 0.40085 0.65683 0.57259 0.0
C6468 C 0.3883 0.6519 0.56757 0.0
H6469 H 0.32359 0.62444 0.55999 0.0
H6470 H 0.34103 0.63896 0.56662 0.0
H6471 H 0.37326 0.64513 0.53893 0.0
H6472 H 0.42596 0.64669 0.59141 0.0
H6473 H 0.40439 0.63996 0.58463 0.0
C6474 C 0.58045 0.66785 0.82688 0.0
C6475 C 0.58657 0.67949 0.82331 0.0
C6476 C 0.58565 0.65589 0.82295 0.0
C6477 C 0.61702 0.64215 0.81193 0.0
H6478 H 0.59675 0.61204 0.80203 0.0
C6479 C 0.64077 0.59825 0.78789 0.0
C6480 C 0.63816 0.58615 0.79356 0.0
C6481 C 0.63333 0.60908 0.79113 0.0
C6482 C 0.6025 0.62038 0.80485 0.0
H6483 H 0.60228 0.68783 0.81208 0.0
H6484 H 0.61099 0.66722 0.8049 0.0
H6485 H 0.58568 0.63212 0.80844 0.0
H6486 H 0.6253 0.57574 0.80657 0.0
H6487 H 0.61217 0.59475 0.81213 0.0
H6488 H 0.63379 0.63057 0.80816 0.0
C6489 C 0.60255 0.66716 0.81116 0.0
C6490 C 0.59618 0.63184 0.80855 0.0
C6491 C 0.5975 0.679 0.81521 0.0
C6492 C 0.62756 0.58497 0.80207 0.0
C6493 C 0.62002 0.59581 0.80522 0.0
C6494 C 0.62328 0.6308 0.80812 0.0
C6495 C 0.59696 0.65543 0.81529 0.0
C6496 C 0.60339 0.64293 0.81195 0.0
C6497 C 0.62304 0.60803 0.80001 0.0
C6498 C 0.61612 0.61985 0.80439 0.0
H6499 H 0.572 0.66797 0.83313 0.0
H6500 H 0.58111 0.64703 0.82631 0.0
H6501 H 0.62291 0.65034 0.81487 0.0
H6502 H 0.64879 0.59946 0.78122 0.0
H6503 H 0.63575 0.61837 0.78683 0.0
C6504 C 0.58557 0.17494 0.92964 0.0
C6505 C 0.57453 0.16844 0.9343 0.0
C6506 C 0.59797 0.17122 0.93382 0.0
C6507 C 0.61534 0.15271 0.95928 0.0
H6508 H 0.63911 0.14314 0.93176 0.0
C6509 C 0.65475 0.11401 0.96622 0.0
C6510 C 0.66662 0.11531 0.95967 0.0
C6511 C 0.64472 0.12286 0.96408 0.0
C6512 C 0.63274 0.14599 0.93961 0.0
H6513 H 0.56772 0.15354 0.9475 0.0
H6514 H 0.58919 0.14723 0.95487 0.0
H6515 H 0.61943 0.15519 0.92656 0.0
H6516 H 0.67743 0.12711 0.94601 0.0
H6517 H 0.65996 0.14268 0.9424 0.0
H6518 H 0.62844 0.14325 0.97231 0.0
C6519 C 0.58836 0.15513 0.94799 0.0
C6520 C 0.62146 0.15292 0.93662 0.0
C6521 C 0.57605 0.15868 0.94368 0.0
C6522 C 0.66836 0.12582 0.95117 0.0
C6523 C 0.65833 0.13471 0.94905 0.0
C6524 C 0.62664 0.14586 0.96229 0.0
C6525 C 0.59947 0.16114 0.94291 0.0
C6526 C 0.61246 0.156 0.94637 0.0
C6527 C 0.64633 0.13326 0.95537 0.0
C6528 C 0.63528 0.14206 0.95244 0.0
H6529 H 0.58465 0.18247 0.92236 0.0
H6530 H 0.60639 0.17604 0.92978 0.0
H6531 H 0.60865 0.15511 0.96703 0.0
H6532 H 0.6531 0.106 0.97281 0.0
H6533 H 0.63555 0.12131 0.96896 0.0
C6534 C 0.14182 0.89913 0.21046 0.0
C6535 C 0.13921 0.91114 0.20461 0.0
C6536 C 0.13396 0.88839 0.20786 0.0
C6537 C 0.11042 0.87593 0.18368 0.0
H6538 H 0.10431 0.84987 0.21011 0.0
C6539 C 0.08018 0.82928 0.1744 0.0
C6540 C 0.08693 0.81789 0.17765 0.0
C6541 C 0.08479 0.84139 0.17851 0.0
C6542 C 0.10591 0.85711 0.20265 0.0
H6543 H 0.12617 0.92145 0.19173 0.0
H6544 H 0.11225 0.90284 0.18747 0.0
H6545 H 0.11576 0.86979 0.21577 0.0
H6546 H 0.10346 0.81021 0.1882 0.0
H6547 H 0.11132 0.83122 0.19548 0.0
H6548 H 0.10057 0.86314 0.17058 0.0
C6549 C 0.12053 0.90158 0.19381 0.0
C6550 C 0.11254 0.86847 0.20586 0.0
C6551 C 0.12847 0.91228 0.1963 0.0
C6552 C 0.09808 0.81881 0.18545 0.0
C6553 C 0.10254 0.83083 0.18971 0.0
C6554 C 0.10366 0.86461 0.18052 0.0
C6555 C 0.12323 0.88947 0.19947 0.0
C6556 C 0.11515 0.87791 0.19635 0.0
C6557 C 0.09606 0.84226 0.18616 0.0
C6558 C 0.10159 0.85497 0.18991 0.0
H6559 H 0.15007 0.89796 0.21686 0.0
H6560 H 0.13648 0.87917 0.21222 0.0
H6561 H 0.11237 0.88289 0.17606 0.0
H6562 H 0.07157 0.82886 0.16838 0.0
H6563 H 0.07961 0.85008 0.17566 0.0
C6564 C 0.34754 0.387 0.46035 0.0
C6565 C 0.33581 0.38704 0.45342 0.0
C6566 C 0.35763 0.37868 0.45673 0.0
C6567 C 0.37051 0.36216 0.42821 0.0
H6568 H 0.39256 0.34449 0.45306 0.0
C6569 C 0.41929 0.32759 0.42905 0.0
C6570 C 0.42761 0.33559 0.42178 0.0
C6571 C 0.40689 0.33197 0.43252 0.0
C6572 C 0.38638 0.34922 0.446 0.0
H6573 H 0.3253 0.37817 0.43749 0.0
H6574 H 0.34295 0.36373 0.43112 0.0
H6575 H 0.37296 0.35562 0.46055 0.0
H6576 H 0.42929 0.3541 0.41191 0.0
H6577 H 0.40769 0.36159 0.41777 0.0
H6578 H 0.38412 0.3561 0.41372 0.0
C6579 C 0.34436 0.37015 0.43932 0.0
C6580 C 0.37525 0.35569 0.45029 0.0
C6581 C 0.33425 0.37839 0.44299 0.0
C6582 C 0.42313 0.34776 0.41761 0.0
C6583 C 0.41073 0.35202 0.42088 0.0
C6584 C 0.38169 0.35581 0.42394 0.0
C6585 C 0.3562 0.37031 0.44605 0.0
C6586 C 0.36732 0.36241 0.44146 0.0
C6587 C 0.40255 0.34427 0.42853 0.0
C6588 C 0.38986 0.34948 0.43282 0.0
H6589 H 0.34902 0.39355 0.46843 0.0
H6590 H 0.3667 0.37913 0.46201 0.0
H6591 H 0.36465 0.36733 0.42118 0.0
H6592 H 0.42251 0.31818 0.43241 0.0
H6593 H 0.40074 0.3258 0.43839 0.0
C6594 C 0.86302 0.59483 0.71302 0.0
C6595 C 0.86451 0.58299 0.70648 0.0
C6596 C 0.87147 0.60515 0.71057 0.0
C6597 C 0.894 0.6175 0.68552 0.0
H6598 H 0.90244 0.64241 0.71242 0.0
C6599 C 0.9231 0.66482 0.67559 0.0
C6600 C 0.91631 0.67591 0.67968 0.0
C6601 C 0.91915 0.65246 0.67969 0.0
C6602 C 0.90022 0.63548 0.70483 0.0
H6603 H 0.87627 0.57249 0.69255 0.0
H6604 H 0.8912 0.59039 0.68848 0.0
H6605 H 0.89112 0.62242 0.71813 0.0
H6606 H 0.90051 0.68285 0.69173 0.0
H6607 H 0.89383 0.66144 0.69904 0.0
H6608 H 0.903 0.63072 0.67223 0.0
C6609 C 0.88335 0.59183 0.6953 0.0
C6610 C 0.89366 0.62408 0.70807 0.0
C6611 C 0.87483 0.58154 0.69769 0.0
C6612 C 0.90588 0.67448 0.68834 0.0
C6613 C 0.90212 0.66222 0.69261 0.0
C6614 C 0.90069 0.62886 0.68231 0.0
C6615 C 0.88169 0.60382 0.7016 0.0
C6616 C 0.89012 0.61512 0.6984 0.0
C6617 C 0.90856 0.65108 0.68819 0.0
C6618 C 0.90353 0.63812 0.69188 0.0
H6619 H 0.85514 0.59626 0.71982 0.0
H6620 H 0.86973 0.61429 0.71544 0.0
H6621 H 0.89133 0.6109 0.67779 0.0
H6622 H 0.93115 0.66566 0.66888 0.0
H6623 H 0.92427 0.644 0.67615 0.0
C6624 C 0.53475 0.65352 0.38843 0.0
C6625 C 0.54113 0.66543 0.38666 0.0
C6626 C 0.53816 0.64275 0.38101 0.0
C6627 C 0.55363 0.63112 0.35138 0.0
H6628 H 0.56202 0.60118 0.37255 0.0
C6629 C 0.57521 0.5828 0.3308 0.0
C6630 C 0.57106 0.57133 0.3369 0.0
C6631 C 0.57145 0.59493 0.33572 0.0
C6632 C 0.55954 0.60936 0.36645 0.0
H6633 H 0.55553 0.6756 0.37518 0.0
H6634 H 0.56139 0.65666 0.36202 0.0
H6635 H 0.55523 0.6212 0.3829 0.0
H6636 H 0.55901 0.56351 0.35227 0.0
H6637 H 0.55212 0.58443 0.36047 0.0
H6638 H 0.55769 0.61909 0.33487 0.0
C6639 C 0.55382 0.65573 0.36924 0.0
C6640 C 0.5557 0.62085 0.37241 0.0
C6641 C 0.55048 0.66653 0.37679 0.0
C6642 C 0.56258 0.57218 0.34752 0.0
C6643 C 0.5587 0.5842 0.35228 0.0
C6644 C 0.55735 0.61949 0.34536 0.0
C6645 C 0.54793 0.64366 0.37156 0.0
C6646 C 0.55253 0.63178 0.36496 0.0
C6647 C 0.56337 0.59574 0.34672 0.0
C6648 C 0.56013 0.60841 0.35284 0.0
H6649 H 0.52741 0.65238 0.39587 0.0
H6650 H 0.53336 0.63358 0.38286 0.0
H6651 H 0.55126 0.63945 0.34545 0.0
H6652 H 0.58175 0.5824 0.32259 0.0
H6653 H 0.57523 0.60363 0.33121 0.0
C6654 C 0.68071 0.81429 0.59671 0.0
C6655 C 0.68107 0.82271 0.58601 0.0
C6656 C 0.66894 0.81006 0.60176 0.0
C6657 C 0.63359 0.80746 0.5956 0.0
H6658 H 0.63262 0.80594 0.6332 0.0
C6659 C 0.58699 0.8002 0.62715 0.0
C6660 C 0.58822 0.79147 0.63757 0.0
C6661 C 0.59778 0.80345 0.61958 0.0
C6662 C 0.63277 0.8062 0.6227 0.0
H6663 H 0.66936 0.83291 0.57185 0.0
H6664 H 0.64854 0.82576 0.58098 0.0
H6665 H 0.65227 0.81305 0.62237 0.0
H6666 H 0.60154 0.77882 0.64782 0.0
H6667 H 0.62037 0.7846 0.63472 0.0
H6668 H 0.61382 0.80085 0.59614 0.0
C6669 C 0.65745 0.8223 0.58533 0.0
C6670 C 0.64405 0.81024 0.61646 0.0
C6671 C 0.66935 0.82642 0.58012 0.0
C6672 C 0.6003 0.78565 0.63993 0.0
C6673 C 0.61109 0.78899 0.63246 0.0
C6674 C 0.62219 0.80351 0.6019 0.0
C6675 C 0.65714 0.81429 0.59641 0.0
C6676 C 0.64472 0.81069 0.60283 0.0
C6677 C 0.61 0.79812 0.62239 0.0
C6678 C 0.62178 0.80265 0.61551 0.0
H6679 H 0.68959 0.81104 0.6013 0.0
H6680 H 0.6691 0.80355 0.61001 0.0
H6681 H 0.63378 0.80766 0.5851 0.0
H6682 H 0.57778 0.80481 0.62508 0.0
H6683 H 0.59669 0.81054 0.6119 0.0
C6684 C 0.42551 0.91871 0.83236 0.0
C6685 C 0.4303 0.93028 0.83774 0.0
C6686 C 0.42921 0.90669 0.83758 0.0
C6687 C 0.44179 0.8933 0.86843 0.0
H6688 H 0.44748 0.86179 0.84871 0.0
C6689 C 0.46226 0.84763 0.89251 0.0
C6690 C 0.45569 0.83598 0.89 0.0
C6691 C 0.45971 0.85868 0.8851 0.0
C6692 C 0.44585 0.87052 0.85432 0.0
H6693 H 0.44346 0.93837 0.85202 0.0
H6694 H 0.45021 0.91759 0.86074 0.0
H6695 H 0.44212 0.88198 0.83734 0.0
H6696 H 0.44165 0.8266 0.87744 0.0
H6697 H 0.43721 0.84596 0.86446 0.0
H6698 H 0.44555 0.88197 0.88536 0.0
C6699 C 0.44322 0.91769 0.8529 0.0
C6700 C 0.44275 0.88206 0.84782 0.0
C6701 C 0.43941 0.92961 0.84784 0.0
C6702 C 0.44684 0.83547 0.87963 0.0
C6703 C 0.44435 0.84652 0.87215 0.0
C6704 C 0.44496 0.88185 0.87487 0.0
C6705 C 0.43785 0.90609 0.84816 0.0
C6706 C 0.44082 0.89362 0.85482 0.0
C6707 C 0.45058 0.8583 0.87498 0.0
C6708 C 0.44712 0.87036 0.86791 0.0
H6709 H 0.41847 0.91898 0.82457 0.0
H6710 H 0.42489 0.89793 0.83371 0.0
H6711 H 0.43999 0.90191 0.87417 0.0
H6712 H 0.4692 0.84832 0.90038 0.0
H6713 H 0.46481 0.86759 0.88739 0.0
C6714 C 0.33405 0.67786 0.08143 0.0
C6715 C 0.32235 0.68207 0.08701 0.0
C6716 C 0.34596 0.68151 0.0869 0.0
C6717 C 0.35911 0.6929 0.11837 0.0
H6718 H 0.39056 0.69955 0.09884 0.0
C6719 C 0.40481 0.71286 0.14292 0.0
C6720 C 0.41642 0.70623 0.1403 0.0
C6721 C 0.39375 0.71052 0.13547 0.0
C6722 C 0.38184 0.69765 0.10439 0.0
H6723 H 0.31391 0.69414 0.10202 0.0
H6724 H 0.33452 0.70088 0.1112 0.0
H6725 H 0.37038 0.69458 0.0873 0.0
H6726 H 0.4257 0.69234 0.12751 0.0
H6727 H 0.40632 0.68831 0.11441 0.0
H6728 H 0.37047 0.69608 0.13542 0.0
C6729 C 0.3346 0.69435 0.10296 0.0
C6730 C 0.3703 0.69477 0.0978 0.0
C6731 C 0.32278 0.69057 0.09764 0.0
C6732 C 0.41687 0.69756 0.12978 0.0
C6733 C 0.40581 0.6953 0.12224 0.0
C6734 C 0.37056 0.69589 0.12491 0.0
C6735 C 0.34634 0.68955 0.09795 0.0
C6736 C 0.35876 0.69246 0.10473 0.0
C6737 C 0.39408 0.70158 0.12517 0.0
C6738 C 0.38202 0.69837 0.11801 0.0
H6739 H 0.33399 0.67127 0.07325 0.0
H6740 H 0.35481 0.6776 0.08281 0.0
H6741 H 0.35053 0.6908 0.12406 0.0
H6742 H 0.40417 0.71965 0.15091 0.0
H6743 H 0.38487 0.71562 0.13784 0.0
C6744 C 0.55301 0.33729 0.62059 0.0
C6745 C 0.54441 0.3381 0.61004 0.0
C6746 C 0.55572 0.34825 0.62813 0.0
C6747 C 0.55641 0.38356 0.62555 0.0
H6748 H 0.5577 0.38356 0.66317 0.0
C6749 C 0.56189 0.43109 0.65307 0.0
C6750 C 0.57046 0.43152 0.66365 0.0
C6751 C 0.55816 0.41928 0.6477 0.0
C6752 C 0.55752 0.38367 0.65267 0.0
H6753 H 0.53159 0.3509 0.59935 0.0
H6754 H 0.53637 0.37002 0.61244 0.0
H6755 H 0.55219 0.36356 0.65153 0.0
H6756 H 0.58143 0.41988 0.67728 0.0
H6757 H 0.57513 0.39905 0.66762 0.0
H6758 H 0.56197 0.40346 0.62651 0.0
C6759 C 0.54109 0.36094 0.61483 0.0
C6760 C 0.55434 0.37224 0.64602 0.0
C6761 C 0.53831 0.34998 0.60737 0.0
C6762 C 0.5748 0.41982 0.66913 0.0
C6763 C 0.57117 0.40791 0.66361 0.0
C6764 C 0.55968 0.3949 0.63215 0.0
C6765 C 0.54995 0.36024 0.62518 0.0
C6766 C 0.55359 0.37214 0.63239 0.0
C6767 C 0.56305 0.40755 0.65261 0.0
C6768 C 0.56009 0.39518 0.64579 0.0
H6769 H 0.55783 0.32825 0.6229 0.0
H6770 H 0.56264 0.34745 0.636 0.0
H6771 H 0.55623 0.38371 0.61504 0.0
H6772 H 0.55818 0.43995 0.64879 0.0
H6773 H 0.55156 0.41937 0.63952 0.0
C6774 C 0.82071 0.81345 0.90168 0.0
C6775 C 0.82027 0.82209 0.9122 0.0
C6776 C 0.83253 0.80905 0.89687 0.0
C6777 C 0.86792 0.80687 0.90339 0.0
H6778 H 0.86922 0.80436 0.86585 0.0
C6779 C 0.91503 0.80076 0.87256 0.0
C6780 C 0.91435 0.79183 0.86226 0.0
C6781 C 0.904 0.80364 0.87992 0.0
C6782 C 0.86898 0.80488 0.87635 0.0
H6783 H 0.83183 0.83253 0.92629 0.0
H6784 H 0.85273 0.82516 0.91754 0.0
H6785 H 0.84933 0.81128 0.87635 0.0
H6786 H 0.90174 0.77849 0.85198 0.0
H6787 H 0.88247 0.78364 0.86472 0.0
H6788 H 0.88786 0.8008 0.90317 0.0
C6789 C 0.84386 0.82162 0.91316 0.0
C6790 C 0.85755 0.80881 0.8824 0.0
C6791 C 0.83192 0.82587 0.91816 0.0
C6792 C 0.90256 0.78548 0.85979 0.0
C6793 C 0.89152 0.78845 0.86705 0.0
C6794 C 0.87946 0.80306 0.89728 0.0
C6795 C 0.84428 0.81338 0.90225 0.0
C6796 C 0.85678 0.80967 0.896 0.0
C6797 C 0.89207 0.79774 0.87702 0.0
C6798 C 0.88002 0.80187 0.8837 0.0
H6799 H 0.81186 0.81015 0.89706 0.0
H6800 H 0.83243 0.80237 0.88876 0.0
H6801 H 0.86766 0.80737 0.91388 0.0
H6802 H 0.924 0.80578 0.87472 0.0
H6803 H 0.90467 0.81088 0.88751 0.0
C6804 C 0.42585 0.08003 0.17074 0.0
C6805 C 0.42989 0.06864 0.16442 0.0
C6806 C 0.42963 0.09221 0.166 0.0
C6807 C 0.45383 0.10843 0.14516 0.0
H6808 H 0.42639 0.13293 0.1374 0.0
C6809 C 0.46068 0.1496 0.10808 0.0
C6810 C 0.45459 0.16155 0.11042 0.0
C6811 C 0.45825 0.13897 0.11615 0.0
C6812 C 0.43422 0.12633 0.1397 0.0
H6813 H 0.44153 0.06106 0.14859 0.0
H6814 H 0.44821 0.08217 0.14051 0.0
H6815 H 0.42143 0.11331 0.14967 0.0
H6816 H 0.44133 0.17182 0.12312 0.0
H6817 H 0.43728 0.15337 0.13733 0.0
H6818 H 0.46662 0.12131 0.13512 0.0
C6819 C 0.44209 0.08175 0.14905 0.0
C6820 C 0.43137 0.11509 0.14674 0.0
C6821 C 0.43817 0.06965 0.15363 0.0
C6822 C 0.44611 0.1627 0.12103 0.0
C6823 C 0.44374 0.1521 0.12914 0.0
C6824 C 0.45671 0.1197 0.13821 0.0
C6825 C 0.43772 0.09316 0.15505 0.0
C6826 C 0.44108 0.10589 0.14928 0.0
C6827 C 0.44973 0.14008 0.12678 0.0
C6828 C 0.44689 0.12865 0.13513 0.0
H6829 H 0.41944 0.07953 0.17905 0.0
H6830 H 0.42616 0.10088 0.17082 0.0
H6831 H 0.46154 0.10156 0.14712 0.0
H6832 H 0.46722 0.14842 0.09994 0.0
H6833 H 0.46286 0.12981 0.11388 0.0
C6834 C 0.17512 0.6922 0.40876 0.0
C6835 C 0.17639 0.68079 0.41605 0.0
C6836 C 0.16304 0.69609 0.40415 0.0
C6837 C 0.12748 0.69017 0.40571 0.0
H6838 H 0.12931 0.70201 0.37004 0.0
C6839 C 0.08286 0.69512 0.37134 0.0
C6840 C 0.0828 0.70581 0.36287 0.0
C6841 C 0.09363 0.69268 0.37926 0.0
C6842 C 0.12861 0.69891 0.38005 0.0
H6843 H 0.16604 0.66478 0.42484 0.0
H6844 H 0.14476 0.67135 0.41637 0.0
H6845 H 0.14911 0.69671 0.38152 0.0
H6846 H 0.09364 0.72266 0.35648 0.0
H6847 H 0.11232 0.71849 0.37034 0.0
H6848 H 0.10681 0.69214 0.40397 0.0
C6849 C 0.15309 0.67744 0.41443 0.0
C6850 C 0.13999 0.69588 0.38667 0.0
C6851 C 0.16524 0.67367 0.41928 0.0
C6852 C 0.09346 0.71427 0.36281 0.0
C6853 C 0.10418 0.71186 0.37071 0.0
C6854 C 0.11602 0.69317 0.39902 0.0
C6855 C 0.15195 0.68848 0.40645 0.0
C6856 C 0.13961 0.69159 0.39962 0.0
C6857 C 0.10451 0.70089 0.37883 0.0
C6858 C 0.1165 0.69767 0.38614 0.0
H6859 H 0.18358 0.69794 0.4063 0.0
H6860 H 0.16246 0.70486 0.3984 0.0
H6861 H 0.12685 0.68692 0.41568 0.0
H6862 H 0.07477 0.68843 0.3716 0.0
H6863 H 0.09362 0.68411 0.38533 0.0
C6864 C 0.87589 0.55238 0.16745 0.0
C6865 C 0.88639 0.54378 0.16618 0.0
C6866 C 0.86756 0.55467 0.157 0.0
C6867 C 0.8581 0.54192 0.1245 0.0
H6868 H 0.8482 0.57763 0.11796 0.0
C6869 C 0.84531 0.56141 0.07409 0.0
C6870 C 0.8348 0.56998 0.07273 0.0
C6871 C 0.84928 0.55724 0.08632 0.0
C6872 C 0.85068 0.56758 0.11978 0.0
H6873 H 0.89627 0.53067 0.15306 0.0
H6874 H 0.88199 0.53488 0.13473 0.0
H6875 H 0.85974 0.57216 0.13786 0.0
H6876 H 0.82004 0.58074 0.08314 0.0
H6877 H 0.82722 0.57362 0.10473 0.0
H6878 H 0.84956 0.53751 0.10607 0.0
C6879 C 0.87998 0.53968 0.14386 0.0
C6880 C 0.85729 0.56442 0.13119 0.0
C6881 C 0.88825 0.53732 0.15434 0.0
C6882 C 0.82815 0.57411 0.0839 0.0
C6883 C 0.83228 0.57009 0.09622 0.0
C6884 C 0.8516 0.54511 0.11305 0.0
C6885 C 0.86959 0.54847 0.14501 0.0
C6886 C 0.86135 0.55159 0.13356 0.0
C6887 C 0.84294 0.56166 0.09752 0.0
C6888 C 0.84808 0.55801 0.11045 0.0
H6889 H 0.87417 0.55745 0.17649 0.0
H6890 H 0.85955 0.56134 0.1583 0.0
H6891 H 0.86079 0.5319 0.12614 0.0
H6892 H 0.85059 0.55798 0.06567 0.0
H6893 H 0.85761 0.55087 0.08703 0.0
C6894 C 0.32828 0.42653 0.41605 0.0
C6895 C 0.33545 0.43025 0.42703 0.0
C6896 C 0.33197 0.43087 0.40368 0.0
C6897 C 0.35114 0.45588 0.38668 0.0
H6898 H 0.35888 0.42898 0.36159 0.0
C6899 C 0.38813 0.46345 0.3457 0.0
C6900 C 0.38633 0.45708 0.33381 0.0
C6901 C 0.37969 0.46118 0.35606 0.0
C6902 C 0.35654 0.43668 0.36833 0.0
H6903 H 0.3516 0.44192 0.43381 0.0
H6904 H 0.35781 0.44962 0.4124 0.0
H6905 H 0.34736 0.42345 0.38149 0.0
H6906 H 0.37401 0.44369 0.32326 0.0
H6907 H 0.35909 0.43993 0.34124 0.0
H6908 H 0.36045 0.46911 0.37369 0.0
C6909 C 0.34944 0.44332 0.41326 0.0
C6910 C 0.34992 0.43349 0.37974 0.0
C6911 C 0.34594 0.43881 0.42551 0.0
C6912 C 0.37569 0.44868 0.33235 0.0
C6913 C 0.36718 0.44647 0.34268 0.0
C6914 C 0.35763 0.45911 0.37523 0.0
C6915 C 0.34266 0.43922 0.40219 0.0
C6916 C 0.34751 0.44299 0.38919 0.0
C6917 C 0.36917 0.45257 0.35473 0.0
C6918 C 0.36077 0.44948 0.36608 0.0
H6919 H 0.32018 0.41991 0.41696 0.0
H6920 H 0.32658 0.42758 0.39528 0.0
H6921 H 0.34926 0.46343 0.39376 0.0
H6922 H 0.39626 0.46996 0.34713 0.0
H6923 H 0.38167 0.46589 0.36524 0.0
C6924 C 0.82502 0.57996 0.66818 0.0
C6925 C 0.82147 0.58586 0.67995 0.0
C6926 C 0.82081 0.58519 0.65634 0.0
C6927 C 0.80878 0.61638 0.64305 0.0
H6928 H 0.79937 0.59611 0.6128 0.0
C6929 C 0.78488 0.64008 0.59899 0.0
C6930 C 0.79071 0.63751 0.58696 0.0
C6931 C 0.78801 0.63263 0.60986 0.0
C6932 C 0.80203 0.60186 0.62118 0.0
H6933 H 0.80997 0.6012 0.68861 0.0
H6934 H 0.80231 0.60996 0.66819 0.0
H6935 H 0.80606 0.58505 0.63278 0.0
H6936 H 0.80387 0.6247 0.57669 0.0
H6937 H 0.80925 0.61157 0.59573 0.0
H6938 H 0.80463 0.63315 0.6316 0.0
C6939 C 0.80876 0.60167 0.66795 0.0
C6940 C 0.80591 0.59555 0.63259 0.0
C6941 C 0.8131 0.5966 0.67969 0.0
C6942 C 0.79925 0.62693 0.58586 0.0
C6943 C 0.8023 0.61939 0.59673 0.0
C6944 C 0.80481 0.62264 0.63176 0.0
C6945 C 0.81285 0.5963 0.65611 0.0
C6946 C 0.80918 0.60276 0.64372 0.0
C6947 C 0.79695 0.62238 0.6089 0.0
C6948 C 0.80127 0.61547 0.62075 0.0
H6949 H 0.83147 0.57166 0.66812 0.0
H6950 H 0.82415 0.58082 0.64739 0.0
H6951 H 0.81162 0.62228 0.65127 0.0
H6952 H 0.77819 0.6481 0.60013 0.0
H6953 H 0.7836 0.63503 0.61909 0.0
C6954 C 0.67193 0.06954 0.9205 0.0
C6955 C 0.66415 0.07764 0.92822 0.0
C6956 C 0.66761 0.06551 0.90824 0.0
C6957 C 0.65022 0.05172 0.88798 0.0
H6958 H 0.63406 0.07625 0.86448 0.0
C6959 C 0.61379 0.03734 0.84755 0.0
C6960 C 0.61462 0.044 0.83569 0.0
C6961 C 0.62172 0.04089 0.858 0.0
C6962 C 0.63866 0.06928 0.87085 0.0
H6963 H 0.64606 0.08837 0.92894 0.0
H6964 H 0.63869 0.08158 0.90757 0.0
H6965 H 0.64487 0.08412 0.88399 0.0
H6966 H 0.62475 0.05927 0.82532 0.0
H6967 H 0.63851 0.06545 0.84351 0.0
H6968 H 0.6437 0.03684 0.87495 0.0
C6969 C 0.64805 0.07824 0.91098 0.0
C6970 C 0.64478 0.07379 0.88206 0.0
C6971 C 0.65225 0.08206 0.92325 0.0
C6972 C 0.62381 0.05399 0.83436 0.0
C6973 C 0.63167 0.05757 0.84479 0.0
C6974 C 0.64397 0.04718 0.8768 0.0
C6975 C 0.65558 0.06977 0.90342 0.0
C6976 C 0.65045 0.06505 0.89084 0.0
C6977 C 0.63057 0.05121 0.85679 0.0
C6978 C 0.63799 0.05592 0.8682 0.0
H6979 H 0.68113 0.06594 0.9241 0.0
H6980 H 0.67362 0.05902 0.90256 0.0
H6981 H 0.65443 0.04476 0.89464 0.0
H6982 H 0.6068 0.0296 0.84886 0.0
H6983 H 0.62057 0.03588 0.86716 0.0
C6984 C 0.66746 0.40461 0.1696 0.0
C6985 C 0.67198 0.41638 0.17475 0.0
C6986 C 0.67099 0.40075 0.15713 0.0
C6987 C 0.67563 0.39753 0.12821 0.0
H6988 H 0.7127 0.39683 0.12176 0.0
C6989 C 0.69678 0.3744 0.08201 0.0
C6990 C 0.70667 0.3653 0.08429 0.0
C6991 C 0.6929 0.38293 0.0918 0.0
C6992 C 0.70232 0.39703 0.1234 0.0
H6993 H 0.68338 0.43358 0.17075 0.0
H6994 H 0.6898 0.42668 0.14887 0.0
H6995 H 0.70431 0.4079 0.14102 0.0
H6996 H 0.72065 0.35838 0.09839 0.0
H6997 H 0.71389 0.37333 0.1155 0.0
H6998 H 0.67363 0.38628 0.11088 0.0
C6999 C 0.68346 0.4205 0.15453 0.0
C7000 C 0.69752 0.40347 0.13434 0.0
C7001 C 0.67973 0.42448 0.16699 0.0
C7002 C 0.71299 0.36528 0.09636 0.0
C7003 C 0.70917 0.37388 0.10613 0.0
C7004 C 0.68041 0.39121 0.11722 0.0
C7005 C 0.67926 0.4085 0.14957 0.0
C7006 C 0.68415 0.40349 0.13701 0.0
C7007 C 0.6989 0.38262 0.10403 0.0
C7008 C 0.69383 0.39063 0.11486 0.0
H7009 H 0.66141 0.3982 0.17534 0.0
H7010 H 0.66769 0.39141 0.15361 0.0
H7011 H 0.66527 0.39745 0.13001 0.0
H7012 H 0.69175 0.37468 0.07279 0.0
H7013 H 0.68505 0.38964 0.08986 0.0
C7014 C 0.12278 0.4479 0.16728 0.0
C7015 C 0.11206 0.45616 0.16565 0.0
C7016 C 0.13132 0.44559 0.15701 0.0
C7017 C 0.14093 0.45785 0.12438 0.0
H7018 H 0.15187 0.42228 0.11877 0.0
C7019 C 0.15462 0.43753 0.07458 0.0
C7020 C 0.16538 0.42923 0.07348 0.0
C7021 C 0.15049 0.44188 0.08669 0.0
C7022 C 0.14911 0.4323 0.12034 0.0
H7023 H 0.102 0.46867 0.15208 0.0
H7024 H 0.11667 0.46441 0.13406 0.0
H7025 H 0.13991 0.42789 0.1384 0.0
H7026 H 0.1804 0.41915 0.08419 0.0
H7027 H 0.1729 0.42657 0.10558 0.0
H7028 H 0.1496 0.46207 0.10597 0.0
C7029 C 0.11868 0.4599 0.14333 0.0
C7030 C 0.14225 0.43553 0.13159 0.0
C7031 C 0.11019 0.46227 0.15364 0.0
C7032 C 0.1721 0.42556 0.08476 0.0
C7033 C 0.16779 0.42975 0.09697 0.0
C7034 C 0.14768 0.45458 0.11309 0.0
C7035 C 0.1293 0.45144 0.14485 0.0
C7036 C 0.13781 0.4483 0.13361 0.0
C7037 C 0.15689 0.43791 0.09802 0.0
C7038 C 0.15157 0.44172 0.11082 0.0
H7039 H 0.12452 0.44311 0.17647 0.0
H7040 H 0.13949 0.43918 0.15859 0.0
H7041 H 0.13795 0.46783 0.12575 0.0
H7042 H 0.1493 0.44062 0.06606 0.0
H7043 H 0.14198 0.44803 0.08721 0.0
C7044 C 0.80191 0.87491 0.91722 0.0
C7045 C 0.79286 0.86485 0.91554 0.0
C7046 C 0.80449 0.88361 0.90713 0.0
C7047 C 0.79188 0.89496 0.87518 0.0
H7048 H 0.82801 0.90284 0.86817 0.0
C7049 C 0.81148 0.90633 0.8246 0.0
C7050 C 0.82044 0.91647 0.82302 0.0
C7051 C 0.80727 0.90271 0.83692 0.0
C7052 C 0.81786 0.90094 0.87014 0.0
H7053 H 0.77922 0.85618 0.90209 0.0
H7054 H 0.78391 0.87108 0.88443 0.0
H7055 H 0.82217 0.8913 0.888 0.0
H7056 H 0.83189 0.93094 0.8331 0.0
H7057 H 0.82473 0.92431 0.85488 0.0
H7058 H 0.7877 0.90399 0.85694 0.0
C7059 C 0.78886 0.87247 0.8936 0.0
C7060 C 0.8145 0.89433 0.88151 0.0
C7061 C 0.78624 0.86384 0.90369 0.0
C7062 C 0.82495 0.92311 0.83405 0.0
C7063 C 0.8209 0.9193 0.84647 0.0
C7064 C 0.79526 0.90145 0.86378 0.0
C7065 C 0.79811 0.8824 0.89513 0.0
C7066 C 0.8015 0.89094 0.88399 0.0
C7067 C 0.81206 0.90902 0.84799 0.0
C7068 C 0.80831 0.90419 0.86099 0.0
H7069 H 0.80713 0.87596 0.92628 0.0
H7070 H 0.81155 0.89123 0.90871 0.0
H7071 H 0.78175 0.8928 0.87692 0.0
H7072 H 0.80776 0.90108 0.81628 0.0
H7073 H 0.80057 0.89466 0.83781 0.0
C7074 C 0.21024 0.64269 0.40012 0.0
C7075 C 0.20486 0.63942 0.4122 0.0
C7076 C 0.20705 0.63557 0.38905 0.0
C7077 C 0.19442 0.60443 0.3772 0.0
H7078 H 0.18438 0.6248 0.34723 0.0
C7079 C 0.17404 0.58207 0.32917 0.0
C7080 C 0.1779 0.58822 0.31763 0.0
C7081 C 0.17742 0.5874 0.34125 0.0
C7082 C 0.18732 0.61894 0.35543 0.0
H7083 H 0.19232 0.62584 0.42226 0.0
H7084 H 0.18686 0.61329 0.40285 0.0
H7085 H 0.19042 0.63571 0.36722 0.0
H7086 H 0.18904 0.60422 0.30968 0.0
H7087 H 0.19519 0.61318 0.3305 0.0
H7088 H 0.19149 0.58762 0.36527 0.0
C7089 C 0.1935 0.62139 0.40198 0.0
C7090 C 0.19075 0.62521 0.3669 0.0
C7091 C 0.19658 0.62861 0.41306 0.0
C7092 C 0.18569 0.59938 0.31839 0.0
C7093 C 0.18916 0.60457 0.33035 0.0
C7094 C 0.19107 0.59811 0.36563 0.0
C7095 C 0.19853 0.62495 0.38983 0.0
C7096 C 0.19449 0.61806 0.37786 0.0
C7097 C 0.1848 0.59889 0.34194 0.0
C7098 C 0.18767 0.60532 0.35455 0.0
H7099 H 0.21669 0.65092 0.39915 0.0
H7100 H 0.2112 0.63843 0.37982 0.0
H7101 H 0.19727 0.59868 0.38552 0.0
H7102 H 0.16803 0.57346 0.32887 0.0
H7103 H 0.1739 0.58278 0.35 0.0
loop_
_geom_bond_atom_site_label_1
_geom_bond_atom_site_label_2
_geom_bond_distance
_geom_bond_site_symmetry_2
_ccdc_geom_bond_type
Co0 O1 2.216 . S
Co0 O2 2.091 . S
Co0 O4 2.004 . S
Co0 O10 2.021 . S
Co0 O12 2.137 . S
Co0 O13 2.244 . S
O1 Co0 2.216 . S
O1 C8 1.247 . S
O2 Co0 2.091 . S
O2 C8 1.261 . S
C3 O12 1.247 . S
C3 O13 1.272 . S
O4 Co0 2.004 . S
O4 C9 1.259 . S
Co5 O6 2.061 . S
Co5 O11 2.052 . S
Co5 O13 2.135 . S
O6 Co5 2.061 . S
O6 C9 1.235 . S
C7 O10 1.238 . S
C7 O11 1.241 . S
C8 O1 1.247 . S
C8 O2 1.261 . S
C9 O4 1.259 . S
C9 O6 1.235 . S
O10 Co0 2.021 . S
O10 C7 1.238 . S
O11 Co5 2.052 . S
O11 C7 1.241 . S
O12 Co0 2.137 . S
O12 C3 1.247 . S
O13 Co0 2.244 . S
O13 C3 1.272 . S
O13 Co5 2.135 . S
Co14 O15 2.216 . S
Co14 O16 2.091 . S
Co14 O18 2.004 . S
Co14 O24 2.021 . S
Co14 O26 2.137 . S
Co14 O27 2.244 . S
O15 Co14 2.216 . S
O15 C22 1.247 . S
O16 Co14 2.091 . S
O16 C22 1.261 . S
C17 O26 1.247 . S
C17 O27 1.272 . S
O18 Co14 2.004 . S
O18 C23 1.259 . S
Co19 O20 2.061 . S
Co19 O25 2.052 . S
Co19 O27 2.135 . S
O20 Co19 2.061 . S
O20 C23 1.235 . S
C21 O24 1.238 . S
C21 O25 1.241 . S
C22 O15 1.247 . S
C22 O16 1.261 . S
C23 O18 1.259 . S
C23 O20 1.235 . S
O24 Co14 2.021 . S
O24 C21 1.238 . S
O25 Co19 2.052 . S
O25 C21 1.241 . S
O26 Co14 2.137 . S
O26 C17 1.247 . S
O27 Co14 2.244 . S
O27 C17 1.272 . S
O27 Co19 2.135 . S
Co28 O29 2.216 . S
Co28 O30 2.091 . S
Co28 O32 2.004 . S
Co28 O38 2.021 . S
Co28 O40 2.137 . S
Co28 O41 2.244 . S
O29 Co28 2.216 . S
O29 C36 1.247 . S
O30 Co28 2.091 . S
O30 C36 1.261 . S
C31 O40 1.247 . S
C31 O41 1.272 . S
O32 Co28 2.004 . S
O32 C37 1.259 . S
Co33 O34 2.061 . S
Co33 O39 2.052 . S
Co33 O41 2.135 . S
O34 Co33 2.061 . S
O34 C37 1.235 . S
C35 O38 1.238 . S
C35 O39 1.241 . S
C36 O29 1.247 . S
C36 O30 1.261 . S
C37 O32 1.259 . S
C37 O34 1.235 . S
O38 Co28 2.021 . S
O38 C35 1.238 . S
O39 Co33 2.052 . S
O39 C35 1.241 . S
O40 Co28 2.137 . S
O40 C31 1.247 . S
O41 Co28 2.244 . S
O41 C31 1.272 . S
O41 Co33 2.135 . S
Co42 O43 2.216 . S
Co42 O44 2.091 . S
Co42 O46 2.004 . S
Co42 O52 2.021 . S
Co42 O54 2.137 . S
Co42 O55 2.244 . S
O43 Co42 2.216 . S
O43 C50 1.247 . S
O44 Co42 2.091 . S
O44 C50 1.261 . S
C45 O54 1.247 . S
C45 O55 1.272 . S
O46 Co42 2.004 . S
O46 C51 1.259 . S
Co47 O48 2.061 . S
Co47 O53 2.052 . S
Co47 O55 2.135 . S
O48 Co47 2.061 . S
O48 C51 1.235 . S
C49 O52 1.238 . S
C49 O53 1.241 . S
C50 O43 1.247 . S
C50 O44 1.261 . S
C51 O46 1.259 . S
C51 O48 1.235 . S
O52 Co42 2.021 . S
O52 C49 1.238 . S
O53 Co47 2.052 . S
O53 C49 1.241 . S
O54 Co42 2.137 . S
O54 C45 1.247 . S
O55 Co42 2.244 . S
O55 C45 1.272 . S
O55 Co47 2.135 . S
Co56 O57 2.216 . S
Co56 O58 2.091 . S
Co56 O60 2.004 . S
Co56 O66 2.021 . S
Co56 O68 2.137 . S
Co56 O69 2.244 . S
O57 Co56 2.216 . S
O57 C64 1.247 . S
O58 Co56 2.091 . S
O58 C64 1.261 . S
C59 O68 1.247 . S
C59 O69 1.272 . S
O60 Co56 2.004 . S
O60 C65 1.259 . S
Co61 O62 2.061 . S
Co61 O67 2.052 . S
Co61 O69 2.135 . S
O62 Co61 2.061 . S
O62 C65 1.235 . S
C63 O66 1.238 . S
C63 O67 1.241 . S
C64 O57 1.247 . S
C64 O58 1.261 . S
C65 O60 1.259 . S
C65 O62 1.235 . S
O66 Co56 2.021 . S
O66 C63 1.238 . S
O67 Co61 2.052 . S
O67 C63 1.241 . S
O68 Co56 2.137 . S
O68 C59 1.247 . S
O69 Co56 2.244 . S
O69 C59 1.272 . S
O69 Co61 2.135 . S
Co70 O71 2.216 . S
Co70 O72 2.091 . S
Co70 O74 2.004 . S
Co70 O80 2.021 . S
Co70 O82 2.137 . S
Co70 O83 2.244 . S
O71 Co70 2.216 . S
O71 C78 1.247 . S
O72 Co70 2.091 . S
O72 C78 1.261 . S
C73 O82 1.247 . S
C73 O83 1.272 . S
O74 Co70 2.004 . S
O74 C79 1.259 . S
Co75 O76 2.061 . S
Co75 O81 2.052 . S
Co75 O83 2.135 . S
O76 Co75 2.061 . S
O76 C79 1.235 . S
C77 O80 1.238 . S
C77 O81 1.241 . S
C78 O71 1.247 . S
C78 O72 1.261 . S
C79 O74 1.259 . S
C79 O76 1.235 . S
O80 Co70 2.021 . S
O80 C77 1.238 . S
O81 Co75 2.052 . S
O81 C77 1.241 . S
O82 Co70 2.137 . S
O82 C73 1.247 . S
O83 Co70 2.244 . S
O83 C73 1.272 . S
O83 Co75 2.135 . S
Co84 O85 2.216 . S
Co84 O86 2.091 . S
Co84 O88 2.004 . S
Co84 O94 2.021 . S
Co84 O96 2.137 . S
Co84 O97 2.244 . S
O85 Co84 2.216 . S
O85 C92 1.247 . S
O86 Co84 2.091 . S
O86 C92 1.261 . S
C87 O96 1.247 . S
C87 O97 1.272 . S
O88 Co84 2.004 . S
O88 C93 1.259 . S
Co89 O90 2.061 . S
Co89 O95 2.052 . S
Co89 O97 2.135 . S
O90 Co89 2.061 . S
O90 C93 1.235 . S
C91 O94 1.238 . S
C91 O95 1.241 . S
C92 O85 1.247 . S
C92 O86 1.261 . S
C93 O88 1.259 . S
C93 O90 1.235 . S
O94 Co84 2.021 . S
O94 C91 1.238 . S
O95 Co89 2.052 . S
O95 C91 1.241 . S
O96 Co84 2.137 . S
O96 C87 1.247 . S
O97 Co84 2.244 . S
O97 C87 1.272 . S
O97 Co89 2.135 . S
Co98 O99 2.216 . S
Co98 O100 2.091 . S
Co98 O102 2.004 . S
Co98 O108 2.021 . S
Co98 O110 2.137 . S
Co98 O111 2.244 . S
O99 Co98 2.216 . S
O99 C106 1.247 . S
O100 Co98 2.091 . S
O100 C106 1.261 . S
C101 O110 1.247 . S
C101 O111 1.272 . S
O102 Co98 2.004 . S
O102 C107 1.259 . S
Co103 O104 2.061 . S
Co103 O109 2.052 . S
Co103 O111 2.135 . S
O104 Co103 2.061 . S
O104 C107 1.235 . S
C105 O108 1.238 . S
C105 O109 1.241 . S
C106 O99 1.247 . S
C106 O100 1.261 . S
C107 O102 1.259 . S
C107 O104 1.235 . S
O108 Co98 2.021 . S
O108 C105 1.238 . S
O109 Co103 2.052 . S
O109 C105 1.241 . S
O110 Co98 2.137 . S
O110 C101 1.247 . S
O111 Co98 2.244 . S
O111 C101 1.272 . S
O111 Co103 2.135 . S
Co112 O113 2.216 . S
Co112 O114 2.091 . S
Co112 O116 2.004 . S
Co112 O122 2.021 . S
Co112 O124 2.137 . S
Co112 O125 2.244 . S
O113 Co112 2.216 . S
O113 C120 1.247 . S
O114 Co112 2.091 . S
O114 C120 1.261 . S
C115 O124 1.247 . S
C115 O125 1.272 . S
O116 Co112 2.004 . S
O116 C121 1.259 . S
Co117 O118 2.061 . S
Co117 O123 2.052 . S
Co117 O125 2.135 . S
O118 Co117 2.061 . S
O118 C121 1.235 . S
C119 O122 1.238 . S
C119 O123 1.241 . S
C120 O113 1.247 . S
C120 O114 1.261 . S
C121 O116 1.259 . S
C121 O118 1.235 . S
O122 Co112 2.021 . S
O122 C119 1.238 . S
O123 Co117 2.052 . S
O123 C119 1.241 . S
O124 Co112 2.137 . S
O124 C115 1.247 . S
O125 Co112 2.244 . S
O125 C115 1.272 . S
O125 Co117 2.135 . S
Co126 O127 2.216 . S
Co126 O128 2.091 . S
Co126 O130 2.004 . S
Co126 O136 2.021 . S
Co126 O138 2.137 . S
Co126 O139 2.244 . S
O127 Co126 2.216 . S
O127 C134 1.247 . S
O128 Co126 2.091 . S
O128 C134 1.261 . S
C129 O138 1.247 . S
C129 O139 1.272 . S
O130 Co126 2.004 . S
O130 C135 1.259 . S
Co131 O132 2.061 . S
Co131 O137 2.052 . S
Co131 O139 2.135 . S
O132 Co131 2.061 . S
O132 C135 1.235 . S
C133 O136 1.238 . S
C133 O137 1.241 . S
C134 O127 1.247 . S
C134 O128 1.261 . S
C135 O130 1.259 . S
C135 O132 1.235 . S
O136 Co126 2.021 . S
O136 C133 1.238 . S
O137 Co131 2.052 . S
O137 C133 1.241 . S
O138 Co126 2.137 . S
O138 C129 1.247 . S
O139 Co126 2.244 . S
O139 C129 1.272 . S
O139 Co131 2.135 . S
Co140 O141 2.216 . S
Co140 O142 2.091 . S
Co140 O144 2.004 . S
Co140 O150 2.021 . S
Co140 O152 2.137 . S
Co140 O153 2.244 . S
O141 Co140 2.216 . S
O141 C148 1.247 . S
O142 Co140 2.091 . S
O142 C148 1.261 . S
C143 O152 1.247 . S
C143 O153 1.272 . S
O144 Co140 2.004 . S
O144 C149 1.259 . S
Co145 O146 2.061 . S
Co145 O151 2.052 . S
Co145 O153 2.135 . S
O146 Co145 2.061 . S
O146 C149 1.235 . S
C147 O150 1.238 . S
C147 O151 1.241 . S
C148 O141 1.247 . S
C148 O142 1.261 . S
C149 O144 1.259 . S
C149 O146 1.235 . S
O150 Co140 2.021 . S
O150 C147 1.238 . S
O151 Co145 2.052 . S
O151 C147 1.241 . S
O152 Co140 2.137 . S
O152 C143 1.247 . S
O153 Co140 2.244 . S
O153 C143 1.272 . S
O153 Co145 2.135 . S
Co154 O155 2.216 . S
Co154 O156 2.091 . S
Co154 O158 2.004 . S
Co154 O164 2.021 . S
Co154 O166 2.137 . S
Co154 O167 2.244 . S
O155 Co154 2.216 . S
O155 C162 1.247 . S
O156 Co154 2.091 . S
O156 C162 1.261 . S
C157 O166 1.247 . S
C157 O167 1.272 . S
O158 Co154 2.004 . S
O158 C163 1.259 . S
Co159 O160 2.061 . S
Co159 O165 2.052 . S
Co159 O167 2.135 . S
O160 Co159 2.061 . S
O160 C163 1.235 . S
C161 O164 1.238 . S
C161 O165 1.241 . S
C162 O155 1.247 . S
C162 O156 1.261 . S
C163 O158 1.259 . S
C163 O160 1.235 . S
O164 Co154 2.021 . S
O164 C161 1.238 . S
O165 Co159 2.052 . S
O165 C161 1.241 . S
O166 Co154 2.137 . S
O166 C157 1.247 . S
O167 Co154 2.244 . S
O167 C157 1.272 . S
O167 Co159 2.135 . S
Co168 O169 2.216 . S
Co168 O170 2.091 . S
Co168 O172 2.004 . S
Co168 O178 2.021 . S
Co168 O180 2.137 . S
Co168 O181 2.244 . S
O169 Co168 2.216 . S
O169 C176 1.247 . S
O170 Co168 2.091 . S
O170 C176 1.261 . S
C171 O180 1.247 . S
C171 O181 1.272 . S
O172 Co168 2.004 . S
O172 C177 1.259 . S
Co173 O174 2.061 . S
Co173 O179 2.052 . S
Co173 O181 2.135 . S
O174 Co173 2.061 . S
O174 C177 1.235 . S
C175 O178 1.238 . S
C175 O179 1.241 . S
C176 O169 1.247 . S
C176 O170 1.261 . S
C177 O172 1.259 . S
C177 O174 1.235 . S
O178 Co168 2.021 . S
O178 C175 1.238 . S
O179 Co173 2.052 . S
O179 C175 1.241 . S
O180 Co168 2.137 . S
O180 C171 1.247 . S
O181 Co168 2.244 . S
O181 C171 1.272 . S
O181 Co173 2.135 . S
Co182 O183 2.216 . S
Co182 O184 2.091 . S
Co182 O186 2.004 . S
Co182 O192 2.021 . S
Co182 O194 2.137 . S
Co182 O195 2.244 . S
O183 Co182 2.216 . S
O183 C190 1.247 . S
O184 Co182 2.091 . S
O184 C190 1.261 . S
C185 O194 1.247 . S
C185 O195 1.272 . S
O186 Co182 2.004 . S
O186 C191 1.259 . S
Co187 O188 2.061 . S
Co187 O193 2.052 . S
Co187 O195 2.135 . S
O188 Co187 2.061 . S
O188 C191 1.235 . S
C189 O192 1.238 . S
C189 O193 1.241 . S
C190 O183 1.247 . S
C190 O184 1.261 . S
C191 O186 1.259 . S
C191 O188 1.235 . S
O192 Co182 2.021 . S
O192 C189 1.238 . S
O193 Co187 2.052 . S
O193 C189 1.241 . S
O194 Co182 2.137 . S
O194 C185 1.247 . S
O195 Co182 2.244 . S
O195 C185 1.272 . S
O195 Co187 2.135 . S
Co196 O197 2.216 . S
Co196 O198 2.091 . S
Co196 O200 2.004 . S
Co196 O206 2.021 . S
Co196 O208 2.137 . S
Co196 O209 2.244 . S
O197 Co196 2.216 . S
O197 C204 1.247 . S
O198 Co196 2.091 . S
O198 C204 1.261 . S
C199 O208 1.247 . S
C199 O209 1.272 . S
O200 Co196 2.004 . S
O200 C205 1.259 . S
Co201 O202 2.061 . S
Co201 O207 2.052 . S
Co201 O209 2.135 . S
O202 Co201 2.061 . S
O202 C205 1.235 . S
C203 O206 1.238 . S
C203 O207 1.241 . S
C204 O197 1.247 . S
C204 O198 1.261 . S
C205 O200 1.259 . S
C205 O202 1.235 . S
O206 Co196 2.021 . S
O206 C203 1.238 . S
O207 Co201 2.052 . S
O207 C203 1.241 . S
O208 Co196 2.137 . S
O208 C199 1.247 . S
O209 Co196 2.244 . S
O209 C199 1.272 . S
O209 Co201 2.135 . S
Co210 O211 2.216 . S
Co210 O212 2.091 . S
Co210 O214 2.004 . S
Co210 O220 2.021 . S
Co210 O222 2.137 . S
Co210 O223 2.244 . S
O211 Co210 2.216 . S
O211 C218 1.247 . S
O212 Co210 2.091 . S
O212 C218 1.261 . S
C213 O222 1.247 . S
C213 O223 1.272 . S
O214 Co210 2.004 . S
O214 C219 1.259 . S
Co215 O216 2.061 . S
Co215 O221 2.052 . S
Co215 O223 2.135 . S
O216 Co215 2.061 . S
O216 C219 1.235 . S
C217 O220 1.238 . S
C217 O221 1.241 . S
C218 O211 1.247 . S
C218 O212 1.261 . S
C219 O214 1.259 . S
C219 O216 1.235 . S
O220 Co210 2.021 . S
O220 C217 1.238 . S
O221 Co215 2.052 . S
O221 C217 1.241 . S
O222 Co210 2.137 . S
O222 C213 1.247 . S
O223 Co210 2.244 . S
O223 C213 1.272 . S
O223 Co215 2.135 . S
Co224 O225 2.216 . S
Co224 O226 2.091 . S
Co224 O228 2.004 . S
Co224 O234 2.021 . S
Co224 O236 2.137 . S
Co224 O237 2.244 . S
O225 Co224 2.216 . S
O225 C232 1.247 . S
O226 Co224 2.091 . S
O226 C232 1.261 . S
C227 O236 1.247 . S
C227 O237 1.272 . S
O228 Co224 2.004 . S
O228 C233 1.259 . S
Co229 O230 2.061 . S
Co229 O235 2.052 . S
Co229 O237 2.135 . S
O230 Co229 2.061 . S
O230 C233 1.235 . S
C231 O234 1.238 . S
C231 O235 1.241 . S
C232 O225 1.247 . S
C232 O226 1.261 . S
C233 O228 1.259 . S
C233 O230 1.235 . S
O234 Co224 2.021 . S
O234 C231 1.238 . S
O235 Co229 2.052 . S
O235 C231 1.241 . S
O236 Co224 2.137 . S
O236 C227 1.247 . S
O237 Co224 2.244 . S
O237 C227 1.272 . S
O237 Co229 2.135 . S
Co238 O239 2.216 . S
Co238 O240 2.091 . S
Co238 O242 2.004 . S
Co238 O248 2.021 . S
Co238 O250 2.137 . S
Co238 O251 2.244 . S
O239 Co238 2.216 . S
O239 C246 1.247 . S
O240 Co238 2.091 . S
O240 C246 1.261 . S
C241 O250 1.247 . S
C241 O251 1.272 . S
O242 Co238 2.004 . S
O242 C247 1.259 . S
Co243 O244 2.061 . S
Co243 O249 2.052 . S
Co243 O251 2.135 . S
O244 Co243 2.061 . S
O244 C247 1.235 . S
C245 O248 1.238 . S
C245 O249 1.241 . S
C246 O239 1.247 . S
C246 O240 1.261 . S
C247 O242 1.259 . S
C247 O244 1.235 . S
O248 Co238 2.021 . S
O248 C245 1.238 . S
O249 Co243 2.052 . S
O249 C245 1.241 . S
O250 Co238 2.137 . S
O250 C241 1.247 . S
O251 Co238 2.244 . S
O251 C241 1.272 . S
O251 Co243 2.135 . S
Co252 O253 2.216 . S
Co252 O254 2.091 . S
Co252 O256 2.004 . S
Co252 O262 2.021 . S
Co252 O264 2.137 . S
Co252 O265 2.244 . S
O253 Co252 2.216 . S
O253 C260 1.247 . S
O254 Co252 2.091 . S
O254 C260 1.261 . S
C255 O264 1.247 . S
C255 O265 1.272 . S
O256 Co252 2.004 . S
O256 C261 1.259 . S
Co257 O258 2.061 . S
Co257 O263 2.052 . S
Co257 O265 2.135 . S
O258 Co257 2.061 . S
O258 C261 1.235 . S
C259 O262 1.238 . S
C259 O263 1.241 . S
C260 O253 1.247 . S
C260 O254 1.261 . S
C261 O256 1.259 . S
C261 O258 1.235 . S
O262 Co252 2.021 . S
O262 C259 1.238 . S
O263 Co257 2.052 . S
O263 C259 1.241 . S
O264 Co252 2.137 . S
O264 C255 1.247 . S
O265 Co252 2.244 . S
O265 C255 1.272 . S
O265 Co257 2.135 . S
Co266 O267 2.216 . S
Co266 O268 2.091 . S
Co266 O270 2.004 . S
Co266 O276 2.021 . S
Co266 O278 2.137 . S
Co266 O279 2.244 . S
O267 Co266 2.216 . S
O267 C274 1.247 . S
O268 Co266 2.091 . S
O268 C274 1.261 . S
C269 O278 1.247 . S
C269 O279 1.272 . S
O270 Co266 2.004 . S
O270 C275 1.259 . S
Co271 O272 2.061 . S
Co271 O277 2.052 . S
Co271 O279 2.135 . S
O272 Co271 2.061 . S
O272 C275 1.235 . S
C273 O276 1.238 . S
C273 O277 1.241 . S
C274 O267 1.247 . S
C274 O268 1.261 . S
C275 O270 1.259 . S
C275 O272 1.235 . S
O276 Co266 2.021 . S
O276 C273 1.238 . S
O277 Co271 2.052 . S
O277 C273 1.241 . S
O278 Co266 2.137 . S
O278 C269 1.247 . S
O279 Co266 2.244 . S
O279 C269 1.272 . S
O279 Co271 2.135 . S
Co280 O281 2.216 . S
Co280 O282 2.091 . S
Co280 O284 2.004 . S
Co280 O290 2.021 . S
Co280 O292 2.137 . S
Co280 O293 2.244 . S
O281 Co280 2.216 . S
O281 C288 1.247 . S
O282 Co280 2.091 . S
O282 C288 1.261 . S
C283 O292 1.247 . S
C283 O293 1.272 . S
O284 Co280 2.004 . S
O284 C289 1.259 . S
Co285 O286 2.061 . S
Co285 O291 2.052 . S
Co285 O293 2.135 . S
O286 Co285 2.061 . S
O286 C289 1.235 . S
C287 O290 1.238 . S
C287 O291 1.241 . S
C288 O281 1.247 . S
C288 O282 1.261 . S
C289 O284 1.259 . S
C289 O286 1.235 . S
O290 Co280 2.021 . S
O290 C287 1.238 . S
O291 Co285 2.052 . S
O291 C287 1.241 . S
O292 Co280 2.137 . S
O292 C283 1.247 . S
O293 Co280 2.244 . S
O293 C283 1.272 . S
O293 Co285 2.135 . S
Co294 O295 2.216 . S
Co294 O296 2.091 . S
Co294 O298 2.004 . S
Co294 O304 2.021 . S
Co294 O306 2.137 . S
Co294 O307 2.244 . S
O295 Co294 2.216 . S
O295 C302 1.247 . S
O296 Co294 2.091 . S
O296 C302 1.261 . S
C297 O306 1.247 . S
C297 O307 1.272 . S
O298 Co294 2.004 . S
O298 C303 1.259 . S
Co299 O300 2.061 . S
Co299 O305 2.052 . S
Co299 O307 2.135 . S
O300 Co299 2.061 . S
O300 C303 1.235 . S
C301 O304 1.238 . S
C301 O305 1.241 . S
C302 O295 1.247 . S
C302 O296 1.261 . S
C303 O298 1.259 . S
C303 O300 1.235 . S
O304 Co294 2.021 . S
O304 C301 1.238 . S
O305 Co299 2.052 . S
O305 C301 1.241 . S
O306 Co294 2.137 . S
O306 C297 1.247 . S
O307 Co294 2.244 . S
O307 C297 1.272 . S
O307 Co299 2.135 . S
Co308 O309 2.216 . S
Co308 O310 2.091 . S
Co308 O312 2.004 . S
Co308 O318 2.021 . S
Co308 O320 2.137 . S
Co308 O321 2.244 . S
O309 Co308 2.216 . S
O309 C316 1.247 . S
O310 Co308 2.091 . S
O310 C316 1.261 . S
C311 O320 1.247 . S
C311 O321 1.272 . S
O312 Co308 2.004 . S
O312 C317 1.259 . S
Co313 O314 2.061 . S
Co313 O319 2.052 . S
Co313 O321 2.135 . S
O314 Co313 2.061 . S
O314 C317 1.235 . S
C315 O318 1.238 . S
C315 O319 1.241 . S
C316 O309 1.247 . S
C316 O310 1.261 . S
C317 O312 1.259 . S
C317 O314 1.235 . S
O318 Co308 2.021 . S
O318 C315 1.238 . S
O319 Co313 2.052 . S
O319 C315 1.241 . S
O320 Co308 2.137 . S
O320 C311 1.247 . S
O321 Co308 2.244 . S
O321 C311 1.272 . S
O321 Co313 2.135 . S
Co322 O323 2.216 . S
Co322 O324 2.091 . S
Co322 O326 2.004 . S
Co322 O332 2.021 . S
Co322 O334 2.137 . S
Co322 O335 2.244 . S
O323 Co322 2.216 . S
O323 C330 1.247 . S
O324 Co322 2.091 . S
O324 C330 1.261 . S
C325 O334 1.247 . S
C325 O335 1.272 . S
O326 Co322 2.004 . S
O326 C331 1.259 . S
Co327 O328 2.061 . S
Co327 O333 2.052 . S
Co327 O335 2.135 . S
O328 Co327 2.061 . S
O328 C331 1.235 . S
C329 O332 1.238 . S
C329 O333 1.241 . S
C330 O323 1.247 . S
C330 O324 1.261 . S
C331 O326 1.259 . S
C331 O328 1.235 . S
O332 Co322 2.021 . S
O332 C329 1.238 . S
O333 Co327 2.052 . S
O333 C329 1.241 . S
O334 Co322 2.137 . S
O334 C325 1.247 . S
O335 Co322 2.244 . S
O335 C325 1.272 . S
O335 Co327 2.135 . S
Co336 O337 2.216 . S
Co336 O338 2.091 . S
Co336 O340 2.004 . S
Co336 O346 2.021 . S
Co336 O348 2.137 . S
Co336 O349 2.244 . S
O337 Co336 2.216 . S
O337 C344 1.247 . S
O338 Co336 2.091 . S
O338 C344 1.261 . S
C339 O348 1.247 . S
C339 O349 1.272 . S
O340 Co336 2.004 . S
O340 C345 1.259 . S
Co341 O342 2.061 . S
Co341 O347 2.052 . S
Co341 O349 2.135 . S
O342 Co341 2.061 . S
O342 C345 1.235 . S
C343 O346 1.238 . S
C343 O347 1.241 . S
C344 O337 1.247 . S
C344 O338 1.261 . S
C345 O340 1.259 . S
C345 O342 1.235 . S
O346 Co336 2.021 . S
O346 C343 1.238 . S
O347 Co341 2.052 . S
O347 C343 1.241 . S
O348 Co336 2.137 . S
O348 C339 1.247 . S
O349 Co336 2.244 . S
O349 C339 1.272 . S
O349 Co341 2.135 . S
Co350 O351 2.216 . S
Co350 O352 2.091 . S
Co350 O354 2.004 . S
Co350 O360 2.021 . S
Co350 O362 2.137 . S
Co350 O363 2.244 . S
O351 Co350 2.216 . S
O351 C358 1.247 . S
O352 Co350 2.091 . S
O352 C358 1.261 . S
C353 O362 1.247 . S
C353 O363 1.272 . S
O354 Co350 2.004 . S
O354 C359 1.259 . S
Co355 O356 2.061 . S
Co355 O361 2.052 . S
Co355 O363 2.135 . S
O356 Co355 2.061 . S
O356 C359 1.235 . S
C357 O360 1.238 . S
C357 O361 1.241 . S
C358 O351 1.247 . S
C358 O352 1.261 . S
C359 O354 1.259 . S
C359 O356 1.235 . S
O360 Co350 2.021 . S
O360 C357 1.238 . S
O361 Co355 2.052 . S
O361 C357 1.241 . S
O362 Co350 2.137 . S
O362 C353 1.247 . S
O363 Co350 2.244 . S
O363 C353 1.272 . S
O363 Co355 2.135 . S
Co364 O365 2.216 . S
Co364 O366 2.091 . S
Co364 O368 2.004 . S
Co364 O374 2.021 . S
Co364 O376 2.137 . S
Co364 O377 2.244 . S
O365 Co364 2.216 . S
O365 C372 1.247 . S
O366 Co364 2.091 . S
O366 C372 1.261 . S
C367 O376 1.247 . S
C367 O377 1.272 . S
O368 Co364 2.004 . S
O368 C373 1.259 . S
Co369 O370 2.061 . S
Co369 O375 2.052 . S
Co369 O377 2.135 . S
O370 Co369 2.061 . S
O370 C373 1.235 . S
C371 O374 1.238 . S
C371 O375 1.241 . S
C372 O365 1.247 . S
C372 O366 1.261 . S
C373 O368 1.259 . S
C373 O370 1.235 . S
O374 Co364 2.021 . S
O374 C371 1.238 . S
O375 Co369 2.052 . S
O375 C371 1.241 . S
O376 Co364 2.137 . S
O376 C367 1.247 . S
O377 Co364 2.244 . S
O377 C367 1.272 . S
O377 Co369 2.135 . S
Co378 O379 2.216 . S
Co378 O380 2.091 . S
Co378 O382 2.004 . S
Co378 O388 2.021 . S
Co378 O390 2.137 . S
Co378 O391 2.244 . S
O379 Co378 2.216 . S
O379 C386 1.247 . S
O380 Co378 2.091 . S
O380 C386 1.261 . S
C381 O390 1.247 . S
C381 O391 1.272 . S
O382 Co378 2.004 . S
O382 C387 1.259 . S
Co383 O384 2.061 . S
Co383 O389 2.052 . S
Co383 O391 2.135 . S
O384 Co383 2.061 . S
O384 C387 1.235 . S
C385 O388 1.238 . S
C385 O389 1.241 . S
C386 O379 1.247 . S
C386 O380 1.261 . S
C387 O382 1.259 . S
C387 O384 1.235 . S
O388 Co378 2.021 . S
O388 C385 1.238 . S
O389 Co383 2.052 . S
O389 C385 1.241 . S
O390 Co378 2.137 . S
O390 C381 1.247 . S
O391 Co378 2.244 . S
O391 C381 1.272 . S
O391 Co383 2.135 . S
Co392 O393 2.216 . S
Co392 O394 2.091 . S
Co392 O396 2.004 . S
Co392 O402 2.021 . S
Co392 O404 2.137 . S
Co392 O405 2.244 . S
O393 Co392 2.216 . S
O393 C400 1.247 . S
O394 Co392 2.091 . S
O394 C400 1.261 . S
C395 O404 1.247 . S
C395 O405 1.272 . S
O396 Co392 2.004 . S
O396 C401 1.259 . S
Co397 O398 2.061 . S
Co397 O403 2.052 . S
Co397 O405 2.135 . S
O398 Co397 2.061 . S
O398 C401 1.235 . S
C399 O402 1.238 . S
C399 O403 1.241 . S
C400 O393 1.247 . S
C400 O394 1.261 . S
C401 O396 1.259 . S
C401 O398 1.235 . S
O402 Co392 2.021 . S
O402 C399 1.238 . S
O403 Co397 2.052 . S
O403 C399 1.241 . S
O404 Co392 2.137 . S
O404 C395 1.247 . S
O405 Co392 2.244 . S
O405 C395 1.272 . S
O405 Co397 2.135 . S
Co406 O407 2.216 . S
Co406 O408 2.091 . S
Co406 O410 2.004 . S
Co406 O416 2.021 . S
Co406 O418 2.137 . S
Co406 O419 2.244 . S
O407 Co406 2.216 . S
O407 C414 1.247 . S
O408 Co406 2.091 . S
O408 C414 1.261 . S
C409 O418 1.247 . S
C409 O419 1.272 . S
O410 Co406 2.004 . S
O410 C415 1.259 . S
Co411 O412 2.061 . S
Co411 O417 2.052 . S
Co411 O419 2.135 . S
O412 Co411 2.061 . S
O412 C415 1.235 . S
C413 O416 1.238 . S
C413 O417 1.241 . S
C414 O407 1.247 . S
C414 O408 1.261 . S
C415 O410 1.259 . S
C415 O412 1.235 . S
O416 Co406 2.021 . S
O416 C413 1.238 . S
O417 Co411 2.052 . S
O417 C413 1.241 . S
O418 Co406 2.137 . S
O418 C409 1.247 . S
O419 Co406 2.244 . S
O419 C409 1.272 . S
O419 Co411 2.135 . S
Co420 O421 2.216 . S
Co420 O422 2.091 . S
Co420 O424 2.004 . S
Co420 O430 2.021 . S
Co420 O432 2.137 . S
Co420 O433 2.244 . S
O421 Co420 2.216 . S
O421 C428 1.247 . S
O422 Co420 2.091 . S
O422 C428 1.261 . S
C423 O432 1.247 . S
C423 O433 1.272 . S
O424 Co420 2.004 . S
O424 C429 1.259 . S
Co425 O426 2.061 . S
Co425 O431 2.052 . S
Co425 O433 2.135 . S
O426 Co425 2.061 . S
O426 C429 1.235 . S
C427 O430 1.238 . S
C427 O431 1.241 . S
C428 O421 1.247 . S
C428 O422 1.261 . S
C429 O424 1.259 . S
C429 O426 1.235 . S
O430 Co420 2.021 . S
O430 C427 1.238 . S
O431 Co425 2.052 . S
O431 C427 1.241 . S
O432 Co420 2.137 . S
O432 C423 1.247 . S
O433 Co420 2.244 . S
O433 C423 1.272 . S
O433 Co425 2.135 . S
Co434 O435 2.216 . S
Co434 O436 2.091 . S
Co434 O438 2.004 . S
Co434 O444 2.021 . S
Co434 O446 2.137 . S
Co434 O447 2.244 . S
O435 Co434 2.216 . S
O435 C442 1.247 . S
O436 Co434 2.091 . S
O436 C442 1.261 . S
C437 O446 1.247 . S
C437 O447 1.272 . S
O438 Co434 2.004 . S
O438 C443 1.259 . S
Co439 O440 2.061 . S
Co439 O445 2.052 . S
Co439 O447 2.135 . S
O440 Co439 2.061 . S
O440 C443 1.235 . S
C441 O444 1.238 . S
C441 O445 1.241 . S
C442 O435 1.247 . S
C442 O436 1.261 . S
C443 O438 1.259 . S
C443 O440 1.235 . S
O444 Co434 2.021 . S
O444 C441 1.238 . S
O445 Co439 2.052 . S
O445 C441 1.241 . S
O446 Co434 2.137 . S
O446 C437 1.247 . S
O447 Co434 2.244 . S
O447 C437 1.272 . S
O447 Co439 2.135 . S
Co448 O449 2.216 . S
Co448 O450 2.091 . S
Co448 O452 2.004 . S
Co448 O458 2.021 . S
Co448 O460 2.137 . S
Co448 O461 2.244 . S
O449 Co448 2.216 . S
O449 C456 1.247 . S
O450 Co448 2.091 . S
O450 C456 1.261 . S
C451 O460 1.247 . S
C451 O461 1.272 . S
O452 Co448 2.004 . S
O452 C457 1.259 . S
Co453 O454 2.061 . S
Co453 O459 2.052 . S
Co453 O461 2.135 . S
O454 Co453 2.061 . S
O454 C457 1.235 . S
C455 O458 1.238 . S
C455 O459 1.241 . S
C456 O449 1.247 . S
C456 O450 1.261 . S
C457 O452 1.259 . S
C457 O454 1.235 . S
O458 Co448 2.021 . S
O458 C455 1.238 . S
O459 Co453 2.052 . S
O459 C455 1.241 . S
O460 Co448 2.137 . S
O460 C451 1.247 . S
O461 Co448 2.244 . S
O461 C451 1.272 . S
O461 Co453 2.135 . S
Co462 O463 2.216 . S
Co462 O464 2.091 . S
Co462 O466 2.004 . S
Co462 O472 2.021 . S
Co462 O474 2.137 . S
Co462 O475 2.244 . S
O463 Co462 2.216 . S
O463 C470 1.247 . S
O464 Co462 2.091 . S
O464 C470 1.261 . S
C465 O474 1.247 . S
C465 O475 1.272 . S
O466 Co462 2.004 . S
O466 C471 1.259 . S
Co467 O468 2.061 . S
Co467 O473 2.052 . S
Co467 O475 2.135 . S
O468 Co467 2.061 . S
O468 C471 1.235 . S
C469 O472 1.238 . S
C469 O473 1.241 . S
C470 O463 1.247 . S
C470 O464 1.261 . S
C471 O466 1.259 . S
C471 O468 1.235 . S
O472 Co462 2.021 . S
O472 C469 1.238 . S
O473 Co467 2.052 . S
O473 C469 1.241 . S
O474 Co462 2.137 . S
O474 C465 1.247 . S
O475 Co462 2.244 . S
O475 C465 1.272 . S
O475 Co467 2.135 . S
Co476 O477 2.216 . S
Co476 O478 2.091 . S
Co476 O480 2.004 . S
Co476 O486 2.021 . S
Co476 O488 2.137 . S
Co476 O489 2.244 . S
O477 Co476 2.216 . S
O477 C484 1.247 . S
O478 Co476 2.091 . S
O478 C484 1.261 . S
C479 O488 1.247 . S
C479 O489 1.272 . S
O480 Co476 2.004 . S
O480 C485 1.259 . S
Co481 O482 2.061 . S
Co481 O487 2.052 . S
Co481 O489 2.135 . S
O482 Co481 2.061 . S
O482 C485 1.235 . S
C483 O486 1.238 . S
C483 O487 1.241 . S
C484 O477 1.247 . S
C484 O478 1.261 . S
C485 O480 1.259 . S
C485 O482 1.235 . S
O486 Co476 2.021 . S
O486 C483 1.238 . S
O487 Co481 2.052 . S
O487 C483 1.241 . S
O488 Co476 2.137 . S
O488 C479 1.247 . S
O489 Co476 2.244 . S
O489 C479 1.272 . S
O489 Co481 2.135 . S
Co490 O491 2.216 . S
Co490 O492 2.091 . S
Co490 O494 2.004 . S
Co490 O500 2.021 . S
Co490 O502 2.137 . S
Co490 O503 2.244 . S
O491 Co490 2.216 . S
O491 C498 1.247 . S
O492 Co490 2.091 . S
O492 C498 1.261 . S
C493 O502 1.247 . S
C493 O503 1.272 . S
O494 Co490 2.004 . S
O494 C499 1.259 . S
Co495 O496 2.061 . S
Co495 O501 2.052 . S
Co495 O503 2.135 . S
O496 Co495 2.061 . S
O496 C499 1.235 . S
C497 O500 1.238 . S
C497 O501 1.241 . S
C498 O491 1.247 . S
C498 O492 1.261 . S
C499 O494 1.259 . S
C499 O496 1.235 . S
O500 Co490 2.021 . S
O500 C497 1.238 . S
O501 Co495 2.052 . S
O501 C497 1.241 . S
O502 Co490 2.137 . S
O502 C493 1.247 . S
O503 Co490 2.244 . S
O503 C493 1.272 . S
O503 Co495 2.135 . S
Co504 O505 2.216 . S
Co504 O506 2.091 . S
Co504 O508 2.004 . S
Co504 O514 2.021 . S
Co504 O516 2.137 . S
Co504 O517 2.244 . S
O505 Co504 2.216 . S
O505 C512 1.247 . S
O506 Co504 2.091 . S
O506 C512 1.261 . S
C507 O516 1.247 . S
C507 O517 1.272 . S
O508 Co504 2.004 . S
O508 C513 1.259 . S
Co509 O510 2.061 . S
Co509 O515 2.052 . S
Co509 O517 2.135 . S
O510 Co509 2.061 . S
O510 C513 1.235 . S
C511 O514 1.238 . S
C511 O515 1.241 . S
C512 O505 1.247 . S
C512 O506 1.261 . S
C513 O508 1.259 . S
C513 O510 1.235 . S
O514 Co504 2.021 . S
O514 C511 1.238 . S
O515 Co509 2.052 . S
O515 C511 1.241 . S
O516 Co504 2.137 . S
O516 C507 1.247 . S
O517 Co504 2.244 . S
O517 C507 1.272 . S
O517 Co509 2.135 . S
Co518 O519 2.216 . S
Co518 O520 2.091 . S
Co518 O522 2.004 . S
Co518 O528 2.021 . S
Co518 O530 2.137 . S
Co518 O531 2.244 . S
O519 Co518 2.216 . S
O519 C526 1.247 . S
O520 Co518 2.091 . S
O520 C526 1.261 . S
C521 O530 1.247 . S
C521 O531 1.272 . S
O522 Co518 2.004 . S
O522 C527 1.259 . S
Co523 O524 2.061 . S
Co523 O529 2.052 . S
Co523 O531 2.135 . S
O524 Co523 2.061 . S
O524 C527 1.235 . S
C525 O528 1.238 . S
C525 O529 1.241 . S
C526 O519 1.247 . S
C526 O520 1.261 . S
C527 O522 1.259 . S
C527 O524 1.235 . S
O528 Co518 2.021 . S
O528 C525 1.238 . S
O529 Co523 2.052 . S
O529 C525 1.241 . S
O530 Co518 2.137 . S
O530 C521 1.247 . S
O531 Co518 2.244 . S
O531 C521 1.272 . S
O531 Co523 2.135 . S
Co532 O533 2.216 . S
Co532 O534 2.091 . S
Co532 O536 2.004 . S
Co532 O542 2.021 . S
Co532 O544 2.137 . S
Co532 O545 2.244 . S
O533 Co532 2.216 . S
O533 C540 1.247 . S
O534 Co532 2.091 . S
O534 C540 1.261 . S
C535 O544 1.247 . S
C535 O545 1.272 . S
O536 Co532 2.004 . S
O536 C541 1.259 . S
Co537 O538 2.061 . S
Co537 O543 2.052 . S
Co537 O545 2.135 . S
O538 Co537 2.061 . S
O538 C541 1.235 . S
C539 O542 1.238 . S
C539 O543 1.241 . S
C540 O533 1.247 . S
C540 O534 1.261 . S
C541 O536 1.259 . S
C541 O538 1.235 . S
O542 Co532 2.021 . S
O542 C539 1.238 . S
O543 Co537 2.052 . S
O543 C539 1.241 . S
O544 Co532 2.137 . S
O544 C535 1.247 . S
O545 Co532 2.244 . S
O545 C535 1.272 . S
O545 Co537 2.135 . S
Co546 O547 2.216 . S
Co546 O548 2.091 . S
Co546 O550 2.004 . S
Co546 O556 2.021 . S
Co546 O558 2.137 . S
Co546 O559 2.244 . S
O547 Co546 2.216 . S
O547 C554 1.247 . S
O548 Co546 2.091 . S
O548 C554 1.261 . S
C549 O558 1.247 . S
C549 O559 1.272 . S
O550 Co546 2.004 . S
O550 C555 1.259 . S
Co551 O552 2.061 . S
Co551 O557 2.052 . S
Co551 O559 2.135 . S
O552 Co551 2.061 . S
O552 C555 1.235 . S
C553 O556 1.238 . S
C553 O557 1.241 . S
C554 O547 1.247 . S
C554 O548 1.261 . S
C555 O550 1.259 . S
C555 O552 1.235 . S
O556 Co546 2.021 . S
O556 C553 1.238 . S
O557 Co551 2.052 . S
O557 C553 1.241 . S
O558 Co546 2.137 . S
O558 C549 1.247 . S
O559 Co546 2.244 . S
O559 C549 1.272 . S
O559 Co551 2.135 . S
Co560 O561 2.216 . S
Co560 O562 2.091 . S
Co560 O564 2.004 . S
Co560 O570 2.021 . S
Co560 O572 2.137 . S
Co560 O573 2.244 . S
O561 Co560 2.216 . S
O561 C568 1.247 . S
O562 Co560 2.091 . S
O562 C568 1.261 . S
C563 O572 1.247 . S
C563 O573 1.272 . S
O564 Co560 2.004 . S
O564 C569 1.259 . S
Co565 O566 2.061 . S
Co565 O571 2.052 . S
Co565 O573 2.135 . S
O566 Co565 2.061 . S
O566 C569 1.235 . S
C567 O570 1.238 . S
C567 O571 1.241 . S
C568 O561 1.247 . S
C568 O562 1.261 . S
C569 O564 1.259 . S
C569 O566 1.235 . S
O570 Co560 2.021 . S
O570 C567 1.238 . S
O571 Co565 2.052 . S
O571 C567 1.241 . S
O572 Co560 2.137 . S
O572 C563 1.247 . S
O573 Co560 2.244 . S
O573 C563 1.272 . S
O573 Co565 2.135 . S
Co574 O575 2.216 . S
Co574 O576 2.091 . S
Co574 O578 2.004 . S
Co574 O584 2.021 . S
Co574 O586 2.137 . S
Co574 O587 2.244 . S
O575 Co574 2.216 . S
O575 C582 1.247 . S
O576 Co574 2.091 . S
O576 C582 1.261 . S
C577 O586 1.247 . S
C577 O587 1.272 . S
O578 Co574 2.004 . S
O578 C583 1.259 . S
Co579 O580 2.061 . S
Co579 O585 2.052 . S
Co579 O587 2.135 . S
O580 Co579 2.061 . S
O580 C583 1.235 . S
C581 O584 1.238 . S
C581 O585 1.241 . S
C582 O575 1.247 . S
C582 O576 1.261 . S
C583 O578 1.259 . S
C583 O580 1.235 . S
O584 Co574 2.021 . S
O584 C581 1.238 . S
O585 Co579 2.052 . S
O585 C581 1.241 . S
O586 Co574 2.137 . S
O586 C577 1.247 . S
O587 Co574 2.244 . S
O587 C577 1.272 . S
O587 Co579 2.135 . S
Co588 O589 2.216 . S
Co588 O590 2.091 . S
Co588 O592 2.004 . S
Co588 O598 2.021 . S
Co588 O600 2.137 . S
Co588 O601 2.244 . S
O589 Co588 2.216 . S
O589 C596 1.247 . S
O590 Co588 2.091 . S
O590 C596 1.261 . S
C591 O600 1.247 . S
C591 O601 1.272 . S
O592 Co588 2.004 . S
O592 C597 1.259 . S
Co593 O594 2.061 . S
Co593 O599 2.052 . S
Co593 O601 2.135 . S
O594 Co593 2.061 . S
O594 C597 1.235 . S
C595 O598 1.238 . S
C595 O599 1.241 . S
C596 O589 1.247 . S
C596 O590 1.261 . S
C597 O592 1.259 . S
C597 O594 1.235 . S
O598 Co588 2.021 . S
O598 C595 1.238 . S
O599 Co593 2.052 . S
O599 C595 1.241 . S
O600 Co588 2.137 . S
O600 C591 1.247 . S
O601 Co588 2.244 . S
O601 C591 1.272 . S
O601 Co593 2.135 . S
Co602 O603 2.216 . S
Co602 O604 2.091 . S
Co602 O606 2.004 . S
Co602 O612 2.021 . S
Co602 O614 2.137 . S
Co602 O615 2.244 . S
O603 Co602 2.216 . S
O603 C610 1.247 . S
O604 Co602 2.091 . S
O604 C610 1.261 . S
C605 O614 1.247 . S
C605 O615 1.272 . S
O606 Co602 2.004 . S
O606 C611 1.259 . S
Co607 O608 2.061 . S
Co607 O613 2.052 . S
Co607 O615 2.135 . S
O608 Co607 2.061 . S
O608 C611 1.235 . S
C609 O612 1.238 . S
C609 O613 1.241 . S
C610 O603 1.247 . S
C610 O604 1.261 . S
C611 O606 1.259 . S
C611 O608 1.235 . S
O612 Co602 2.021 . S
O612 C609 1.238 . S
O613 Co607 2.052 . S
O613 C609 1.241 . S
O614 Co602 2.137 . S
O614 C605 1.247 . S
O615 Co602 2.244 . S
O615 C605 1.272 . S
O615 Co607 2.135 . S
Co616 O617 2.216 . S
Co616 O618 2.091 . S
Co616 O620 2.004 . S
Co616 O626 2.021 . S
Co616 O628 2.137 . S
Co616 O629 2.244 . S
O617 Co616 2.216 . S
O617 C624 1.247 . S
O618 Co616 2.091 . S
O618 C624 1.261 . S
C619 O628 1.247 . S
C619 O629 1.272 . S
O620 Co616 2.004 . S
O620 C625 1.259 . S
Co621 O622 2.061 . S
Co621 O627 2.052 . S
Co621 O629 2.135 . S
O622 Co621 2.061 . S
O622 C625 1.235 . S
C623 O626 1.238 . S
C623 O627 1.241 . S
C624 O617 1.247 . S
C624 O618 1.261 . S
C625 O620 1.259 . S
C625 O622 1.235 . S
O626 Co616 2.021 . S
O626 C623 1.238 . S
O627 Co621 2.052 . S
O627 C623 1.241 . S
O628 Co616 2.137 . S
O628 C619 1.247 . S
O629 Co616 2.244 . S
O629 C619 1.272 . S
O629 Co621 2.135 . S
Co630 O631 2.216 . S
Co630 O632 2.091 . S
Co630 O634 2.004 . S
Co630 O640 2.021 . S
Co630 O642 2.137 . S
Co630 O643 2.244 . S
O631 Co630 2.216 . S
O631 C638 1.247 . S
O632 Co630 2.091 . S
O632 C638 1.261 . S
C633 O642 1.247 . S
C633 O643 1.272 . S
O634 Co630 2.004 . S
O634 C639 1.259 . S
Co635 O636 2.061 . S
Co635 O641 2.052 . S
Co635 O643 2.135 . S
O636 Co635 2.061 . S
O636 C639 1.235 . S
C637 O640 1.238 . S
C637 O641 1.241 . S
C638 O631 1.247 . S
C638 O632 1.261 . S
C639 O634 1.259 . S
C639 O636 1.235 . S
O640 Co630 2.021 . S
O640 C637 1.238 . S
O641 Co635 2.052 . S
O641 C637 1.241 . S
O642 Co630 2.137 . S
O642 C633 1.247 . S
O643 Co630 2.244 . S
O643 C633 1.272 . S
O643 Co635 2.135 . S
Co644 O645 2.216 . S
Co644 O646 2.091 . S
Co644 O648 2.004 . S
Co644 O654 2.021 . S
Co644 O656 2.137 . S
Co644 O657 2.244 . S
O645 Co644 2.216 . S
O645 C652 1.247 . S
O646 Co644 2.091 . S
O646 C652 1.261 . S
C647 O656 1.247 . S
C647 O657 1.272 . S
O648 Co644 2.004 . S
O648 C653 1.259 . S
Co649 O650 2.061 . S
Co649 O655 2.052 . S
Co649 O657 2.135 . S
O650 Co649 2.061 . S
O650 C653 1.235 . S
C651 O654 1.238 . S
C651 O655 1.241 . S
C652 O645 1.247 . S
C652 O646 1.261 . S
C653 O648 1.259 . S
C653 O650 1.235 . S
O654 Co644 2.021 . S
O654 C651 1.238 . S
O655 Co649 2.052 . S
O655 C651 1.241 . S
O656 Co644 2.137 . S
O656 C647 1.247 . S
O657 Co644 2.244 . S
O657 C647 1.272 . S
O657 Co649 2.135 . S
Co658 O659 2.216 . S
Co658 O660 2.091 . S
Co658 O662 2.004 . S
Co658 O668 2.021 . S
Co658 O670 2.137 . S
Co658 O671 2.244 . S
O659 Co658 2.216 . S
O659 C666 1.247 . S
O660 Co658 2.091 . S
O660 C666 1.261 . S
C661 O670 1.247 . S
C661 O671 1.272 . S
O662 Co658 2.004 . S
O662 C667 1.259 . S
Co663 O664 2.061 . S
Co663 O669 2.052 . S
Co663 O671 2.135 . S
O664 Co663 2.061 . S
O664 C667 1.235 . S
C665 O668 1.238 . S
C665 O669 1.241 . S
C666 O659 1.247 . S
C666 O660 1.261 . S
C667 O662 1.259 . S
C667 O664 1.235 . S
O668 Co658 2.021 . S
O668 C665 1.238 . S
O669 Co663 2.052 . S
O669 C665 1.241 . S
O670 Co658 2.137 . S
O670 C661 1.247 . S
O671 Co658 2.244 . S
O671 C661 1.272 . S
O671 Co663 2.135 . S
Co672 O673 2.216 . S
Co672 O674 2.091 . S
Co672 O676 2.004 . S
Co672 O682 2.021 . S
Co672 O684 2.137 . S
Co672 O685 2.244 . S
O673 Co672 2.216 . S
O673 C680 1.247 . S
O674 Co672 2.091 . S
O674 C680 1.261 . S
C675 O684 1.247 . S
C675 O685 1.272 . S
O676 Co672 2.004 . S
O676 C681 1.259 . S
Co677 O678 2.061 . S
Co677 O683 2.052 . S
Co677 O685 2.135 . S
O678 Co677 2.061 . S
O678 C681 1.235 . S
C679 O682 1.238 . S
C679 O683 1.241 . S
C680 O673 1.247 . S
C680 O674 1.261 . S
C681 O676 1.259 . S
C681 O678 1.235 . S
O682 Co672 2.021 . S
O682 C679 1.238 . S
O683 Co677 2.052 . S
O683 C679 1.241 . S
O684 Co672 2.137 . S
O684 C675 1.247 . S
O685 Co672 2.244 . S
O685 C675 1.272 . S
O685 Co677 2.135 . S
Co686 O687 2.216 . S
Co686 O688 2.091 . S
Co686 O690 2.004 . S
Co686 O696 2.021 . S
Co686 O698 2.137 . S
Co686 O699 2.244 . S
O687 Co686 2.216 . S
O687 C694 1.247 . S
O688 Co686 2.091 . S
O688 C694 1.261 . S
C689 O698 1.247 . S
C689 O699 1.272 . S
O690 Co686 2.004 . S
O690 C695 1.259 . S
Co691 O692 2.061 . S
Co691 O697 2.052 . S
Co691 O699 2.135 . S
O692 Co691 2.061 . S
O692 C695 1.235 . S
C693 O696 1.238 . S
C693 O697 1.241 . S
C694 O687 1.247 . S
C694 O688 1.261 . S
C695 O690 1.259 . S
C695 O692 1.235 . S
O696 Co686 2.021 . S
O696 C693 1.238 . S
O697 Co691 2.052 . S
O697 C693 1.241 . S
O698 Co686 2.137 . S
O698 C689 1.247 . S
O699 Co686 2.244 . S
O699 C689 1.272 . S
O699 Co691 2.135 . S
Co700 O701 2.216 . S
Co700 O702 2.091 . S
Co700 O704 2.004 . S
Co700 O710 2.021 . S
Co700 O712 2.137 . S
Co700 O713 2.244 . S
O701 Co700 2.216 . S
O701 C708 1.247 . S
O702 Co700 2.091 . S
O702 C708 1.261 . S
C703 O712 1.247 . S
C703 O713 1.272 . S
O704 Co700 2.004 . S
O704 C709 1.259 . S
Co705 O706 2.061 . S
Co705 O711 2.052 . S
Co705 O713 2.135 . S
O706 Co705 2.061 . S
O706 C709 1.235 . S
C707 O710 1.238 . S
C707 O711 1.241 . S
C708 O701 1.247 . S
C708 O702 1.261 . S
C709 O704 1.259 . S
C709 O706 1.235 . S
O710 Co700 2.021 . S
O710 C707 1.238 . S
O711 Co705 2.052 . S
O711 C707 1.241 . S
O712 Co700 2.137 . S
O712 C703 1.247 . S
O713 Co700 2.244 . S
O713 C703 1.272 . S
O713 Co705 2.135 . S
Co714 O715 2.216 . S
Co714 O716 2.091 . S
Co714 O718 2.004 . S
Co714 O724 2.021 . S
Co714 O726 2.137 . S
Co714 O727 2.244 . S
O715 Co714 2.216 . S
O715 C722 1.247 . S
O716 Co714 2.091 . S
O716 C722 1.261 . S
C717 O726 1.247 . S
C717 O727 1.272 . S
O718 Co714 2.004 . S
O718 C723 1.259 . S
Co719 O720 2.061 . S
Co719 O725 2.052 . S
Co719 O727 2.135 . S
O720 Co719 2.061 . S
O720 C723 1.235 . S
C721 O724 1.238 . S
C721 O725 1.241 . S
C722 O715 1.247 . S
C722 O716 1.261 . S
C723 O718 1.259 . S
C723 O720 1.235 . S
O724 Co714 2.021 . S
O724 C721 1.238 . S
O725 Co719 2.052 . S
O725 C721 1.241 . S
O726 Co714 2.137 . S
O726 C717 1.247 . S
O727 Co714 2.244 . S
O727 C717 1.272 . S
O727 Co719 2.135 . S
Co728 O729 2.216 . S
Co728 O730 2.091 . S
Co728 O732 2.004 . S
Co728 O738 2.021 . S
Co728 O740 2.137 . S
Co728 O741 2.244 . S
O729 Co728 2.216 . S
O729 C736 1.247 . S
O730 Co728 2.091 . S
O730 C736 1.261 . S
C731 O740 1.247 . S
C731 O741 1.272 . S
O732 Co728 2.004 . S
O732 C737 1.259 . S
Co733 O734 2.061 . S
Co733 O739 2.052 . S
Co733 O741 2.135 . S
O734 Co733 2.061 . S
O734 C737 1.235 . S
C735 O738 1.238 . S
C735 O739 1.241 . S
C736 O729 1.247 . S
C736 O730 1.261 . S
C737 O732 1.259 . S
C737 O734 1.235 . S
O738 Co728 2.021 . S
O738 C735 1.238 . S
O739 Co733 2.052 . S
O739 C735 1.241 . S
O740 Co728 2.137 . S
O740 C731 1.247 . S
O741 Co728 2.244 . S
O741 C731 1.272 . S
O741 Co733 2.135 . S
Co742 O743 2.216 . S
Co742 O744 2.091 . S
Co742 O746 2.004 . S
Co742 O752 2.021 . S
Co742 O754 2.137 . S
Co742 O755 2.244 . S
O743 Co742 2.216 . S
O743 C750 1.247 . S
O744 Co742 2.091 . S
O744 C750 1.261 . S
C745 O754 1.247 . S
C745 O755 1.272 . S
O746 Co742 2.004 . S
O746 C751 1.259 . S
Co747 O748 2.061 . S
Co747 O753 2.052 . S
Co747 O755 2.135 . S
O748 Co747 2.061 . S
O748 C751 1.235 . S
C749 O752 1.238 . S
C749 O753 1.241 . S
C750 O743 1.247 . S
C750 O744 1.261 . S
C751 O746 1.259 . S
C751 O748 1.235 . S
O752 Co742 2.021 . S
O752 C749 1.238 . S
O753 Co747 2.052 . S
O753 C749 1.241 . S
O754 Co742 2.137 . S
O754 C745 1.247 . S
O755 Co742 2.244 . S
O755 C745 1.272 . S
O755 Co747 2.135 . S
Co756 O757 2.216 . S
Co756 O758 2.091 . S
Co756 O760 2.004 . S
Co756 O766 2.021 . S
Co756 O768 2.137 . S
Co756 O769 2.244 . S
O757 Co756 2.216 . S
O757 C764 1.247 . S
O758 Co756 2.091 . S
O758 C764 1.261 . S
C759 O768 1.247 . S
C759 O769 1.272 . S
O760 Co756 2.004 . S
O760 C765 1.259 . S
Co761 O762 2.061 . S
Co761 O767 2.052 . S
Co761 O769 2.135 . S
O762 Co761 2.061 . S
O762 C765 1.235 . S
C763 O766 1.238 . S
C763 O767 1.241 . S
C764 O757 1.247 . S
C764 O758 1.261 . S
C765 O760 1.259 . S
C765 O762 1.235 . S
O766 Co756 2.021 . S
O766 C763 1.238 . S
O767 Co761 2.052 . S
O767 C763 1.241 . S
O768 Co756 2.137 . S
O768 C759 1.247 . S
O769 Co756 2.244 . S
O769 C759 1.272 . S
O769 Co761 2.135 . S
Co770 O771 2.216 . S
Co770 O772 2.091 . S
Co770 O774 2.004 . S
Co770 O780 2.021 . S
Co770 O782 2.137 . S
Co770 O783 2.244 . S
O771 Co770 2.216 . S
O771 C778 1.247 . S
O772 Co770 2.091 . S
O772 C778 1.261 . S
C773 O782 1.247 . S
C773 O783 1.272 . S
O774 Co770 2.004 . S
O774 C779 1.259 . S
Co775 O776 2.061 . S
Co775 O781 2.052 . S
Co775 O783 2.135 . S
O776 Co775 2.061 . S
O776 C779 1.235 . S
C777 O780 1.238 . S
C777 O781 1.241 . S
C778 O771 1.247 . S
C778 O772 1.261 . S
C779 O774 1.259 . S
C779 O776 1.235 . S
O780 Co770 2.021 . S
O780 C777 1.238 . S
O781 Co775 2.052 . S
O781 C777 1.241 . S
O782 Co770 2.137 . S
O782 C773 1.247 . S
O783 Co770 2.244 . S
O783 C773 1.272 . S
O783 Co775 2.135 . S
Co784 O785 2.216 . S
Co784 O786 2.091 . S
Co784 O788 2.004 . S
Co784 O794 2.021 . S
Co784 O796 2.137 . S
Co784 O797 2.244 . S
O785 Co784 2.216 . S
O785 C792 1.247 . S
O786 Co784 2.091 . S
O786 C792 1.261 . S
C787 O796 1.247 . S
C787 O797 1.272 . S
O788 Co784 2.004 . S
O788 C793 1.259 . S
Co789 O790 2.061 . S
Co789 O795 2.052 . S
Co789 O797 2.135 . S
O790 Co789 2.061 . S
O790 C793 1.235 . S
C791 O794 1.238 . S
C791 O795 1.241 . S
C792 O785 1.247 . S
C792 O786 1.261 . S
C793 O788 1.259 . S
C793 O790 1.235 . S
O794 Co784 2.021 . S
O794 C791 1.238 . S
O795 Co789 2.052 . S
O795 C791 1.241 . S
O796 Co784 2.137 . S
O796 C787 1.247 . S
O797 Co784 2.244 . S
O797 C787 1.272 . S
O797 Co789 2.135 . S
Co798 O799 2.216 . S
Co798 O800 2.091 . S
Co798 O802 2.004 . S
Co798 O808 2.021 . S
Co798 O810 2.137 . S
Co798 O811 2.244 . S
O799 Co798 2.216 . S
O799 C806 1.247 . S
O800 Co798 2.091 . S
O800 C806 1.261 . S
C801 O810 1.247 . S
C801 O811 1.272 . S
O802 Co798 2.004 . S
O802 C807 1.259 . S
Co803 O804 2.061 . S
Co803 O809 2.052 . S
Co803 O811 2.135 . S
O804 Co803 2.061 . S
O804 C807 1.235 . S
C805 O808 1.238 . S
C805 O809 1.241 . S
C806 O799 1.247 . S
C806 O800 1.261 . S
C807 O802 1.259 . S
C807 O804 1.235 . S
O808 Co798 2.021 . S
O808 C805 1.238 . S
O809 Co803 2.052 . S
O809 C805 1.241 . S
O810 Co798 2.137 . S
O810 C801 1.247 . S
O811 Co798 2.244 . S
O811 C801 1.272 . S
O811 Co803 2.135 . S
Co812 O813 2.216 . S
Co812 O814 2.091 . S
Co812 O816 2.004 . S
Co812 O822 2.021 . S
Co812 O824 2.137 . S
Co812 O825 2.244 . S
O813 Co812 2.216 . S
O813 C820 1.247 . S
O814 Co812 2.091 . S
O814 C820 1.261 . S
C815 O824 1.247 . S
C815 O825 1.272 . S
O816 Co812 2.004 . S
O816 C821 1.259 . S
Co817 O818 2.061 . S
Co817 O823 2.052 . S
Co817 O825 2.135 . S
O818 Co817 2.061 . S
O818 C821 1.235 . S
C819 O822 1.238 . S
C819 O823 1.241 . S
C820 O813 1.247 . S
C820 O814 1.261 . S
C821 O816 1.259 . S
C821 O818 1.235 . S
O822 Co812 2.021 . S
O822 C819 1.238 . S
O823 Co817 2.052 . S
O823 C819 1.241 . S
O824 Co812 2.137 . S
O824 C815 1.247 . S
O825 Co812 2.244 . S
O825 C815 1.272 . S
O825 Co817 2.135 . S
Co826 O827 2.216 . S
Co826 O828 2.091 . S
Co826 O830 2.004 . S
Co826 O836 2.021 . S
Co826 O838 2.137 . S
Co826 O839 2.244 . S
O827 Co826 2.216 . S
O827 C834 1.247 . S
O828 Co826 2.091 . S
O828 C834 1.261 . S
C829 O838 1.247 . S
C829 O839 1.272 . S
O830 Co826 2.004 . S
O830 C835 1.259 . S
Co831 O832 2.061 . S
Co831 O837 2.052 . S
Co831 O839 2.135 . S
O832 Co831 2.061 . S
O832 C835 1.235 . S
C833 O836 1.238 . S
C833 O837 1.241 . S
C834 O827 1.247 . S
C834 O828 1.261 . S
C835 O830 1.259 . S
C835 O832 1.235 . S
O836 Co826 2.021 . S
O836 C833 1.238 . S
O837 Co831 2.052 . S
O837 C833 1.241 . S
O838 Co826 2.137 . S
O838 C829 1.247 . S
O839 Co826 2.244 . S
O839 C829 1.272 . S
O839 Co831 2.135 . S
Co840 O841 2.216 . S
Co840 O842 2.091 . S
Co840 O844 2.004 . S
Co840 O850 2.021 . S
Co840 O852 2.137 . S
Co840 O853 2.244 . S
O841 Co840 2.216 . S
O841 C848 1.247 . S
O842 Co840 2.091 . S
O842 C848 1.261 . S
C843 O852 1.247 . S
C843 O853 1.272 . S
O844 Co840 2.004 . S
O844 C849 1.259 . S
Co845 O846 2.061 . S
Co845 O851 2.052 . S
Co845 O853 2.135 . S
O846 Co845 2.061 . S
O846 C849 1.235 . S
C847 O850 1.238 . S
C847 O851 1.241 . S
C848 O841 1.247 . S
C848 O842 1.261 . S
C849 O844 1.259 . S
C849 O846 1.235 . S
O850 Co840 2.021 . S
O850 C847 1.238 . S
O851 Co845 2.052 . S
O851 C847 1.241 . S
O852 Co840 2.137 . S
O852 C843 1.247 . S
O853 Co840 2.244 . S
O853 C843 1.272 . S
O853 Co845 2.135 . S
Co854 O855 2.216 . S
Co854 O856 2.091 . S
Co854 O858 2.004 . S
Co854 O864 2.021 . S
Co854 O866 2.137 . S
Co854 O867 2.244 . S
O855 Co854 2.216 . S
O855 C862 1.247 . S
O856 Co854 2.091 . S
O856 C862 1.261 . S
C857 O866 1.247 . S
C857 O867 1.272 . S
O858 Co854 2.004 . S
O858 C863 1.259 . S
Co859 O860 2.061 . S
Co859 O865 2.052 . S
Co859 O867 2.135 . S
O860 Co859 2.061 . S
O860 C863 1.235 . S
C861 O864 1.238 . S
C861 O865 1.241 . S
C862 O855 1.247 . S
C862 O856 1.261 . S
C863 O858 1.259 . S
C863 O860 1.235 . S
O864 Co854 2.021 . S
O864 C861 1.238 . S
O865 Co859 2.052 . S
O865 C861 1.241 . S
O866 Co854 2.137 . S
O866 C857 1.247 . S
O867 Co854 2.244 . S
O867 C857 1.272 . S
O867 Co859 2.135 . S
Co868 O869 2.216 . S
Co868 O870 2.091 . S
Co868 O872 2.004 . S
Co868 O878 2.021 . S
Co868 O880 2.137 . S
Co868 O881 2.244 . S
O869 Co868 2.216 . S
O869 C876 1.247 . S
O870 Co868 2.091 . S
O870 C876 1.261 . S
C871 O880 1.247 . S
C871 O881 1.272 . S
O872 Co868 2.004 . S
O872 C877 1.259 . S
Co873 O874 2.061 . S
Co873 O879 2.052 . S
Co873 O881 2.135 . S
O874 Co873 2.061 . S
O874 C877 1.235 . S
C875 O878 1.238 . S
C875 O879 1.241 . S
C876 O869 1.247 . S
C876 O870 1.261 . S
C877 O872 1.259 . S
C877 O874 1.235 . S
O878 Co868 2.021 . S
O878 C875 1.238 . S
O879 Co873 2.052 . S
O879 C875 1.241 . S
O880 Co868 2.137 . S
O880 C871 1.247 . S
O881 Co868 2.244 . S
O881 C871 1.272 . S
O881 Co873 2.135 . S
Co882 O883 2.216 . S
Co882 O884 2.091 . S
Co882 O886 2.004 . S
Co882 O892 2.021 . S
Co882 O894 2.137 . S
Co882 O895 2.244 . S
O883 Co882 2.216 . S
O883 C890 1.247 . S
O884 Co882 2.091 . S
O884 C890 1.261 . S
C885 O894 1.247 . S
C885 O895 1.272 . S
O886 Co882 2.004 . S
O886 C891 1.259 . S
Co887 O888 2.061 . S
Co887 O893 2.052 . S
Co887 O895 2.135 . S
O888 Co887 2.061 . S
O888 C891 1.235 . S
C889 O892 1.238 . S
C889 O893 1.241 . S
C890 O883 1.247 . S
C890 O884 1.261 . S
C891 O886 1.259 . S
C891 O888 1.235 . S
O892 Co882 2.021 . S
O892 C889 1.238 . S
O893 Co887 2.052 . S
O893 C889 1.241 . S
O894 Co882 2.137 . S
O894 C885 1.247 . S
O895 Co882 2.244 . S
O895 C885 1.272 . S
O895 Co887 2.135 . S
Co896 O897 2.216 . S
Co896 O898 2.091 . S
Co896 O900 2.004 . S
Co896 O906 2.021 . S
Co896 O908 2.137 . S
Co896 O909 2.244 . S
O897 Co896 2.216 . S
O897 C904 1.247 . S
O898 Co896 2.091 . S
O898 C904 1.261 . S
C899 O908 1.247 . S
C899 O909 1.272 . S
O900 Co896 2.004 . S
O900 C905 1.259 . S
Co901 O902 2.061 . S
Co901 O907 2.052 . S
Co901 O909 2.135 . S
O902 Co901 2.061 . S
O902 C905 1.235 . S
C903 O906 1.238 . S
C903 O907 1.241 . S
C904 O897 1.247 . S
C904 O898 1.261 . S
C905 O900 1.259 . S
C905 O902 1.235 . S
O906 Co896 2.021 . S
O906 C903 1.238 . S
O907 Co901 2.052 . S
O907 C903 1.241 . S
O908 Co896 2.137 . S
O908 C899 1.247 . S
O909 Co896 2.244 . S
O909 C899 1.272 . S
O909 Co901 2.135 . S
Co910 O911 2.216 . S
Co910 O912 2.091 . S
Co910 O914 2.004 . S
Co910 O920 2.021 . S
Co910 O922 2.137 . S
Co910 O923 2.244 . S
O911 Co910 2.216 . S
O911 C918 1.247 . S
O912 Co910 2.091 . S
O912 C918 1.261 . S
C913 O922 1.247 . S
C913 O923 1.272 . S
O914 Co910 2.004 . S
O914 C919 1.259 . S
Co915 O916 2.061 . S
Co915 O921 2.052 . S
Co915 O923 2.135 . S
O916 Co915 2.061 . S
O916 C919 1.235 . S
C917 O920 1.238 . S
C917 O921 1.241 . S
C918 O911 1.247 . S
C918 O912 1.261 . S
C919 O914 1.259 . S
C919 O916 1.235 . S
O920 Co910 2.021 . S
O920 C917 1.238 . S
O921 Co915 2.052 . S
O921 C917 1.241 . S
O922 Co910 2.137 . S
O922 C913 1.247 . S
O923 Co910 2.244 . S
O923 C913 1.272 . S
O923 Co915 2.135 . S
Co924 O925 2.216 . S
Co924 O926 2.091 . S
Co924 O928 2.004 . S
Co924 O934 2.021 . S
Co924 O936 2.137 . S
Co924 O937 2.244 . S
O925 Co924 2.216 . S
O925 C932 1.247 . S
O926 Co924 2.091 . S
O926 C932 1.261 . S
C927 O936 1.247 . S
C927 O937 1.272 . S
O928 Co924 2.004 . S
O928 C933 1.259 . S
Co929 O930 2.061 . S
Co929 O935 2.052 . S
Co929 O937 2.135 . S
O930 Co929 2.061 . S
O930 C933 1.235 . S
C931 O934 1.238 . S
C931 O935 1.241 . S
C932 O925 1.247 . S
C932 O926 1.261 . S
C933 O928 1.259 . S
C933 O930 1.235 . S
O934 Co924 2.021 . S
O934 C931 1.238 . S
O935 Co929 2.052 . S
O935 C931 1.241 . S
O936 Co924 2.137 . S
O936 C927 1.247 . S
O937 Co924 2.244 . S
O937 C927 1.272 . S
O937 Co929 2.135 . S
Co938 O939 2.216 . S
Co938 O940 2.091 . S
Co938 O942 2.004 . S
Co938 O948 2.021 . S
Co938 O950 2.137 . S
Co938 O951 2.244 . S
O939 Co938 2.216 . S
O939 C946 1.247 . S
O940 Co938 2.091 . S
O940 C946 1.261 . S
C941 O950 1.247 . S
C941 O951 1.272 . S
O942 Co938 2.004 . S
O942 C947 1.259 . S
Co943 O944 2.061 . S
Co943 O949 2.052 . S
Co943 O951 2.135 . S
O944 Co943 2.061 . S
O944 C947 1.235 . S
C945 O948 1.238 . S
C945 O949 1.241 . S
C946 O939 1.247 . S
C946 O940 1.261 . S
C947 O942 1.259 . S
C947 O944 1.235 . S
O948 Co938 2.021 . S
O948 C945 1.238 . S
O949 Co943 2.052 . S
O949 C945 1.241 . S
O950 Co938 2.137 . S
O950 C941 1.247 . S
O951 Co938 2.244 . S
O951 C941 1.272 . S
O951 Co943 2.135 . S
Co952 O953 2.216 . S
Co952 O954 2.091 . S
Co952 O956 2.004 . S
Co952 O962 2.021 . S
Co952 O964 2.137 . S
Co952 O965 2.244 . S
O953 Co952 2.216 . S
O953 C960 1.247 . S
O954 Co952 2.091 . S
O954 C960 1.261 . S
C955 O964 1.247 . S
C955 O965 1.272 . S
O956 Co952 2.004 . S
O956 C961 1.259 . S
Co957 O958 2.061 . S
Co957 O963 2.052 . S
Co957 O965 2.135 . S
O958 Co957 2.061 . S
O958 C961 1.235 . S
C959 O962 1.238 . S
C959 O963 1.241 . S
C960 O953 1.247 . S
C960 O954 1.261 . S
C961 O956 1.259 . S
C961 O958 1.235 . S
O962 Co952 2.021 . S
O962 C959 1.238 . S
O963 Co957 2.052 . S
O963 C959 1.241 . S
O964 Co952 2.137 . S
O964 C955 1.247 . S
O965 Co952 2.244 . S
O965 C955 1.272 . S
O965 Co957 2.135 . S
Co966 O967 2.216 . S
Co966 O968 2.091 . S
Co966 O970 2.004 . S
Co966 O976 2.021 . S
Co966 O978 2.137 . S
Co966 O979 2.244 . S
O967 Co966 2.216 . S
O967 C974 1.247 . S
O968 Co966 2.091 . S
O968 C974 1.261 . S
C969 O978 1.247 . S
C969 O979 1.272 . S
O970 Co966 2.004 . S
O970 C975 1.259 . S
Co971 O972 2.061 . S
Co971 O977 2.052 . S
Co971 O979 2.135 . S
O972 Co971 2.061 . S
O972 C975 1.235 . S
C973 O976 1.238 . S
C973 O977 1.241 . S
C974 O967 1.247 . S
C974 O968 1.261 . S
C975 O970 1.259 . S
C975 O972 1.235 . S
O976 Co966 2.021 . S
O976 C973 1.238 . S
O977 Co971 2.052 . S
O977 C973 1.241 . S
O978 Co966 2.137 . S
O978 C969 1.247 . S
O979 Co966 2.244 . S
O979 C969 1.272 . S
O979 Co971 2.135 . S
Co980 O981 2.216 . S
Co980 O982 2.091 . S
Co980 O984 2.004 . S
Co980 O990 2.021 . S
Co980 O992 2.137 . S
Co980 O993 2.244 . S
O981 Co980 2.216 . S
O981 C988 1.247 . S
O982 Co980 2.091 . S
O982 C988 1.261 . S
C983 O992 1.247 . S
C983 O993 1.272 . S
O984 Co980 2.004 . S
O984 C989 1.259 . S
Co985 O986 2.061 . S
Co985 O991 2.052 . S
Co985 O993 2.135 . S
O986 Co985 2.061 . S
O986 C989 1.235 . S
C987 O990 1.238 . S
C987 O991 1.241 . S
C988 O981 1.247 . S
C988 O982 1.261 . S
C989 O984 1.259 . S
C989 O986 1.235 . S
O990 Co980 2.021 . S
O990 C987 1.238 . S
O991 Co985 2.052 . S
O991 C987 1.241 . S
O992 Co980 2.137 . S
O992 C983 1.247 . S
O993 Co980 2.244 . S
O993 C983 1.272 . S
O993 Co985 2.135 . S
Co994 O995 2.216 . S
Co994 O996 2.091 . S
Co994 O998 2.004 . S
Co994 O1004 2.021 . S
Co994 O1006 2.137 . S
Co994 O1007 2.244 . S
O995 Co994 2.216 . S
O995 C1002 1.247 . S
O996 Co994 2.091 . S
O996 C1002 1.261 . S
C997 O1006 1.247 . S
C997 O1007 1.272 . S
O998 Co994 2.004 . S
O998 C1003 1.259 . S
Co999 O1000 2.061 . S
Co999 O1005 2.052 . S
Co999 O1007 2.135 . S
O1000 Co999 2.061 . S
O1000 C1003 1.235 . S
C1001 O1004 1.238 . S
C1001 O1005 1.241 . S
C1002 O995 1.247 . S
C1002 O996 1.261 . S
C1003 O998 1.259 . S
C1003 O1000 1.235 . S
O1004 Co994 2.021 . S
O1004 C1001 1.238 . S
O1005 Co999 2.052 . S
O1005 C1001 1.241 . S
O1006 Co994 2.137 . S
O1006 C997 1.247 . S
O1007 Co994 2.244 . S
O1007 C997 1.272 . S
O1007 Co999 2.135 . S
Co1008 O1009 2.216 . S
Co1008 O1010 2.091 . S
Co1008 O1012 2.004 . S
Co1008 O1018 2.021 . S
Co1008 O1020 2.137 . S
Co1008 O1021 2.244 . S
O1009 Co1008 2.216 . S
O1009 C1016 1.247 . S
O1010 Co1008 2.091 . S
O1010 C1016 1.261 . S
C1011 O1020 1.247 . S
C1011 O1021 1.272 . S
O1012 Co1008 2.004 . S
O1012 C1017 1.259 . S
Co1013 O1014 2.061 . S
Co1013 O1019 2.052 . S
Co1013 O1021 2.135 . S
O1014 Co1013 2.061 . S
O1014 C1017 1.235 . S
C1015 O1018 1.238 . S
C1015 O1019 1.241 . S
C1016 O1009 1.247 . S
C1016 O1010 1.261 . S
C1017 O1012 1.259 . S
C1017 O1014 1.235 . S
O1018 Co1008 2.021 . S
O1018 C1015 1.238 . S
O1019 Co1013 2.052 . S
O1019 C1015 1.241 . S
O1020 Co1008 2.137 . S
O1020 C1011 1.247 . S
O1021 Co1008 2.244 . S
O1021 C1011 1.272 . S
O1021 Co1013 2.135 . S
Co1022 O1023 2.216 . S
Co1022 O1024 2.091 . S
Co1022 O1026 2.004 . S
Co1022 O1032 2.021 . S
Co1022 O1034 2.137 . S
Co1022 O1035 2.244 . S
O1023 Co1022 2.216 . S
O1023 C1030 1.247 . S
O1024 Co1022 2.091 . S
O1024 C1030 1.261 . S
C1025 O1034 1.247 . S
C1025 O1035 1.272 . S
O1026 Co1022 2.004 . S
O1026 C1031 1.259 . S
Co1027 O1028 2.061 . S
Co1027 O1033 2.052 . S
Co1027 O1035 2.135 . S
O1028 Co1027 2.061 . S
O1028 C1031 1.235 . S
C1029 O1032 1.238 . S
C1029 O1033 1.241 . S
C1030 O1023 1.247 . S
C1030 O1024 1.261 . S
C1031 O1026 1.259 . S
C1031 O1028 1.235 . S
O1032 Co1022 2.021 . S
O1032 C1029 1.238 . S
O1033 Co1027 2.052 . S
O1033 C1029 1.241 . S
O1034 Co1022 2.137 . S
O1034 C1025 1.247 . S
O1035 Co1022 2.244 . S
O1035 C1025 1.272 . S
O1035 Co1027 2.135 . S
Co1036 O1037 2.216 . S
Co1036 O1038 2.091 . S
Co1036 O1040 2.004 . S
Co1036 O1046 2.021 . S
Co1036 O1048 2.137 . S
Co1036 O1049 2.244 . S
O1037 Co1036 2.216 . S
O1037 C1044 1.247 . S
O1038 Co1036 2.091 . S
O1038 C1044 1.261 . S
C1039 O1048 1.247 . S
C1039 O1049 1.272 . S
O1040 Co1036 2.004 . S
O1040 C1045 1.259 . S
Co1041 O1042 2.061 . S
Co1041 O1047 2.052 . S
Co1041 O1049 2.135 . S
O1042 Co1041 2.061 . S
O1042 C1045 1.235 . S
C1043 O1046 1.238 . S
C1043 O1047 1.241 . S
C1044 O1037 1.247 . S
C1044 O1038 1.261 . S
C1045 O1040 1.259 . S
C1045 O1042 1.235 . S
O1046 Co1036 2.021 . S
O1046 C1043 1.238 . S
O1047 Co1041 2.052 . S
O1047 C1043 1.241 . S
O1048 Co1036 2.137 . S
O1048 C1039 1.247 . S
O1049 Co1036 2.244 . S
O1049 C1039 1.272 . S
O1049 Co1041 2.135 . S
Co1050 O1051 2.216 . S
Co1050 O1052 2.091 . S
Co1050 O1054 2.004 . S
Co1050 O1060 2.021 . S
Co1050 O1062 2.137 . S
Co1050 O1063 2.244 . S
O1051 Co1050 2.216 . S
O1051 C1058 1.247 . S
O1052 Co1050 2.091 . S
O1052 C1058 1.261 . S
C1053 O1062 1.247 . S
C1053 O1063 1.272 . S
O1054 Co1050 2.004 . S
O1054 C1059 1.259 . S
Co1055 O1056 2.061 . S
Co1055 O1061 2.052 . S
Co1055 O1063 2.135 . S
O1056 Co1055 2.061 . S
O1056 C1059 1.235 . S
C1057 O1060 1.238 . S
C1057 O1061 1.241 . S
C1058 O1051 1.247 . S
C1058 O1052 1.261 . S
C1059 O1054 1.259 . S
C1059 O1056 1.235 . S
O1060 Co1050 2.021 . S
O1060 C1057 1.238 . S
O1061 Co1055 2.052 . S
O1061 C1057 1.241 . S
O1062 Co1050 2.137 . S
O1062 C1053 1.247 . S
O1063 Co1050 2.244 . S
O1063 C1053 1.272 . S
O1063 Co1055 2.135 . S
Co1064 O1065 2.216 . S
Co1064 O1066 2.091 . S
Co1064 O1068 2.004 . S
Co1064 O1074 2.021 . S
Co1064 O1076 2.137 . S
Co1064 O1077 2.244 . S
O1065 Co1064 2.216 . S
O1065 C1072 1.247 . S
O1066 Co1064 2.091 . S
O1066 C1072 1.261 . S
C1067 O1076 1.247 . S
C1067 O1077 1.272 . S
O1068 Co1064 2.004 . S
O1068 C1073 1.259 . S
Co1069 O1070 2.061 . S
Co1069 O1075 2.052 . S
Co1069 O1077 2.135 . S
O1070 Co1069 2.061 . S
O1070 C1073 1.235 . S
C1071 O1074 1.238 . S
C1071 O1075 1.241 . S
C1072 O1065 1.247 . S
C1072 O1066 1.261 . S
C1073 O1068 1.259 . S
C1073 O1070 1.235 . S
O1074 Co1064 2.021 . S
O1074 C1071 1.238 . S
O1075 Co1069 2.052 . S
O1075 C1071 1.241 . S
O1076 Co1064 2.137 . S
O1076 C1067 1.247 . S
O1077 Co1064 2.244 . S
O1077 C1067 1.272 . S
O1077 Co1069 2.135 . S
Co1078 O1079 2.216 . S
Co1078 O1080 2.091 . S
Co1078 O1082 2.004 . S
Co1078 O1088 2.021 . S
Co1078 O1090 2.137 . S
Co1078 O1091 2.244 . S
O1079 Co1078 2.216 . S
O1079 C1086 1.247 . S
O1080 Co1078 2.091 . S
O1080 C1086 1.261 . S
C1081 O1090 1.247 . S
C1081 O1091 1.272 . S
O1082 Co1078 2.004 . S
O1082 C1087 1.259 . S
Co1083 O1084 2.061 . S
Co1083 O1089 2.052 . S
Co1083 O1091 2.135 . S
O1084 Co1083 2.061 . S
O1084 C1087 1.235 . S
C1085 O1088 1.238 . S
C1085 O1089 1.241 . S
C1086 O1079 1.247 . S
C1086 O1080 1.261 . S
C1087 O1082 1.259 . S
C1087 O1084 1.235 . S
O1088 Co1078 2.021 . S
O1088 C1085 1.238 . S
O1089 Co1083 2.052 . S
O1089 C1085 1.241 . S
O1090 Co1078 2.137 . S
O1090 C1081 1.247 . S
O1091 Co1078 2.244 . S
O1091 C1081 1.272 . S
O1091 Co1083 2.135 . S
Co1092 O1093 2.216 . S
Co1092 O1094 2.091 . S
Co1092 O1096 2.004 . S
Co1092 O1102 2.021 . S
Co1092 O1104 2.137 . S
Co1092 O1105 2.244 . S
O1093 Co1092 2.216 . S
O1093 C1100 1.247 . S
O1094 Co1092 2.091 . S
O1094 C1100 1.261 . S
C1095 O1104 1.247 . S
C1095 O1105 1.272 . S
O1096 Co1092 2.004 . S
O1096 C1101 1.259 . S
Co1097 O1098 2.061 . S
Co1097 O1103 2.052 . S
Co1097 O1105 2.135 . S
O1098 Co1097 2.061 . S
O1098 C1101 1.235 . S
C1099 O1102 1.238 . S
C1099 O1103 1.241 . S
C1100 O1093 1.247 . S
C1100 O1094 1.261 . S
C1101 O1096 1.259 . S
C1101 O1098 1.235 . S
O1102 Co1092 2.021 . S
O1102 C1099 1.238 . S
O1103 Co1097 2.052 . S
O1103 C1099 1.241 . S
O1104 Co1092 2.137 . S
O1104 C1095 1.247 . S
O1105 Co1092 2.244 . S
O1105 C1095 1.272 . S
O1105 Co1097 2.135 . S
Co1106 O1107 2.216 . S
Co1106 O1108 2.091 . S
Co1106 O1110 2.004 . S
Co1106 O1116 2.021 . S
Co1106 O1118 2.137 . S
Co1106 O1119 2.244 . S
O1107 Co1106 2.216 . S
O1107 C1114 1.247 . S
O1108 Co1106 2.091 . S
O1108 C1114 1.261 . S
C1109 O1118 1.247 . S
C1109 O1119 1.272 . S
O1110 Co1106 2.004 . S
O1110 C1115 1.259 . S
Co1111 O1112 2.061 . S
Co1111 O1117 2.052 . S
Co1111 O1119 2.135 . S
O1112 Co1111 2.061 . S
O1112 C1115 1.235 . S
C1113 O1116 1.238 . S
C1113 O1117 1.241 . S
C1114 O1107 1.247 . S
C1114 O1108 1.261 . S
C1115 O1110 1.259 . S
C1115 O1112 1.235 . S
O1116 Co1106 2.021 . S
O1116 C1113 1.238 . S
O1117 Co1111 2.052 . S
O1117 C1113 1.241 . S
O1118 Co1106 2.137 . S
O1118 C1109 1.247 . S
O1119 Co1106 2.244 . S
O1119 C1109 1.272 . S
O1119 Co1111 2.135 . S
Co1120 O1121 2.216 . S
Co1120 O1122 2.091 . S
Co1120 O1124 2.004 . S
Co1120 O1130 2.021 . S
Co1120 O1132 2.137 . S
Co1120 O1133 2.244 . S
O1121 Co1120 2.216 . S
O1121 C1128 1.247 . S
O1122 Co1120 2.091 . S
O1122 C1128 1.261 . S
C1123 O1132 1.247 . S
C1123 O1133 1.272 . S
O1124 Co1120 2.004 . S
O1124 C1129 1.259 . S
Co1125 O1126 2.061 . S
Co1125 O1131 2.052 . S
Co1125 O1133 2.135 . S
O1126 Co1125 2.061 . S
O1126 C1129 1.235 . S
C1127 O1130 1.238 . S
C1127 O1131 1.241 . S
C1128 O1121 1.247 . S
C1128 O1122 1.261 . S
C1129 O1124 1.259 . S
C1129 O1126 1.235 . S
O1130 Co1120 2.021 . S
O1130 C1127 1.238 . S
O1131 Co1125 2.052 . S
O1131 C1127 1.241 . S
O1132 Co1120 2.137 . S
O1132 C1123 1.247 . S
O1133 Co1120 2.244 . S
O1133 C1123 1.272 . S
O1133 Co1125 2.135 . S
Co1134 O1135 2.216 . S
Co1134 O1136 2.091 . S
Co1134 O1138 2.004 . S
Co1134 O1144 2.021 . S
Co1134 O1146 2.137 . S
Co1134 O1147 2.244 . S
O1135 Co1134 2.216 . S
O1135 C1142 1.247 . S
O1136 Co1134 2.091 . S
O1136 C1142 1.261 . S
C1137 O1146 1.247 . S
C1137 O1147 1.272 . S
O1138 Co1134 2.004 . S
O1138 C1143 1.259 . S
Co1139 O1140 2.061 . S
Co1139 O1145 2.052 . S
Co1139 O1147 2.135 . S
O1140 Co1139 2.061 . S
O1140 C1143 1.235 . S
C1141 O1144 1.238 . S
C1141 O1145 1.241 . S
C1142 O1135 1.247 . S
C1142 O1136 1.261 . S
C1143 O1138 1.259 . S
C1143 O1140 1.235 . S
O1144 Co1134 2.021 . S
O1144 C1141 1.238 . S
O1145 Co1139 2.052 . S
O1145 C1141 1.241 . S
O1146 Co1134 2.137 . S
O1146 C1137 1.247 . S
O1147 Co1134 2.244 . S
O1147 C1137 1.272 . S
O1147 Co1139 2.135 . S
Co1148 O1149 2.216 . S
Co1148 O1150 2.091 . S
Co1148 O1152 2.004 . S
Co1148 O1158 2.021 . S
Co1148 O1160 2.137 . S
Co1148 O1161 2.244 . S
O1149 Co1148 2.216 . S
O1149 C1156 1.247 . S
O1150 Co1148 2.091 . S
O1150 C1156 1.261 . S
C1151 O1160 1.247 . S
C1151 O1161 1.272 . S
O1152 Co1148 2.004 . S
O1152 C1157 1.259 . S
Co1153 O1154 2.061 . S
Co1153 O1159 2.052 . S
Co1153 O1161 2.135 . S
O1154 Co1153 2.061 . S
O1154 C1157 1.235 . S
C1155 O1158 1.238 . S
C1155 O1159 1.241 . S
C1156 O1149 1.247 . S
C1156 O1150 1.261 . S
C1157 O1152 1.259 . S
C1157 O1154 1.235 . S
O1158 Co1148 2.021 . S
O1158 C1155 1.238 . S
O1159 Co1153 2.052 . S
O1159 C1155 1.241 . S
O1160 Co1148 2.137 . S
O1160 C1151 1.247 . S
O1161 Co1148 2.244 . S
O1161 C1151 1.272 . S
O1161 Co1153 2.135 . S
Co1162 O1163 2.216 . S
Co1162 O1164 2.091 . S
Co1162 O1166 2.004 . S
Co1162 O1172 2.021 . S
Co1162 O1174 2.137 . S
Co1162 O1175 2.244 . S
O1163 Co1162 2.216 . S
O1163 C1170 1.247 . S
O1164 Co1162 2.091 . S
O1164 C1170 1.261 . S
C1165 O1174 1.247 . S
C1165 O1175 1.272 . S
O1166 Co1162 2.004 . S
O1166 C1171 1.259 . S
Co1167 O1168 2.061 . S
Co1167 O1173 2.052 . S
Co1167 O1175 2.135 . S
O1168 Co1167 2.061 . S
O1168 C1171 1.235 . S
C1169 O1172 1.238 . S
C1169 O1173 1.241 . S
C1170 O1163 1.247 . S
C1170 O1164 1.261 . S
C1171 O1166 1.259 . S
C1171 O1168 1.235 . S
O1172 Co1162 2.021 . S
O1172 C1169 1.238 . S
O1173 Co1167 2.052 . S
O1173 C1169 1.241 . S
O1174 Co1162 2.137 . S
O1174 C1165 1.247 . S
O1175 Co1162 2.244 . S
O1175 C1165 1.272 . S
O1175 Co1167 2.135 . S
Co1176 O1177 2.216 . S
Co1176 O1178 2.091 . S
Co1176 O1180 2.004 . S
Co1176 O1186 2.021 . S
Co1176 O1188 2.137 . S
Co1176 O1189 2.244 . S
O1177 Co1176 2.216 . S
O1177 C1184 1.247 . S
O1178 Co1176 2.091 . S
O1178 C1184 1.261 . S
C1179 O1188 1.247 . S
C1179 O1189 1.272 . S
O1180 Co1176 2.004 . S
O1180 C1185 1.259 . S
Co1181 O1182 2.061 . S
Co1181 O1187 2.052 . S
Co1181 O1189 2.135 . S
O1182 Co1181 2.061 . S
O1182 C1185 1.235 . S
C1183 O1186 1.238 . S
C1183 O1187 1.241 . S
C1184 O1177 1.247 . S
C1184 O1178 1.261 . S
C1185 O1180 1.259 . S
C1185 O1182 1.235 . S
O1186 Co1176 2.021 . S
O1186 C1183 1.238 . S
O1187 Co1181 2.052 . S
O1187 C1183 1.241 . S
O1188 Co1176 2.137 . S
O1188 C1179 1.247 . S
O1189 Co1176 2.244 . S
O1189 C1179 1.272 . S
O1189 Co1181 2.135 . S
Co1190 O1191 2.216 . S
Co1190 O1192 2.091 . S
Co1190 O1194 2.004 . S
Co1190 O1200 2.021 . S
Co1190 O1202 2.137 . S
Co1190 O1203 2.244 . S
O1191 Co1190 2.216 . S
O1191 C1198 1.247 . S
O1192 Co1190 2.091 . S
O1192 C1198 1.261 . S
C1193 O1202 1.247 . S
C1193 O1203 1.272 . S
O1194 Co1190 2.004 . S
O1194 C1199 1.259 . S
Co1195 O1196 2.061 . S
Co1195 O1201 2.052 . S
Co1195 O1203 2.135 . S
O1196 Co1195 2.061 . S
O1196 C1199 1.235 . S
C1197 O1200 1.238 . S
C1197 O1201 1.241 . S
C1198 O1191 1.247 . S
C1198 O1192 1.261 . S
C1199 O1194 1.259 . S
C1199 O1196 1.235 . S
O1200 Co1190 2.021 . S
O1200 C1197 1.238 . S
O1201 Co1195 2.052 . S
O1201 C1197 1.241 . S
O1202 Co1190 2.137 . S
O1202 C1193 1.247 . S
O1203 Co1190 2.244 . S
O1203 C1193 1.272 . S
O1203 Co1195 2.135 . S
Co1204 O1205 2.216 . S
Co1204 O1206 2.091 . S
Co1204 O1208 2.004 . S
Co1204 O1214 2.021 . S
Co1204 O1216 2.137 . S
Co1204 O1217 2.244 . S
O1205 Co1204 2.216 . S
O1205 C1212 1.247 . S
O1206 Co1204 2.091 . S
O1206 C1212 1.261 . S
C1207 O1216 1.247 . S
C1207 O1217 1.272 . S
O1208 Co1204 2.004 . S
O1208 C1213 1.259 . S
Co1209 O1210 2.061 . S
Co1209 O1215 2.052 . S
Co1209 O1217 2.135 . S
O1210 Co1209 2.061 . S
O1210 C1213 1.235 . S
C1211 O1214 1.238 . S
C1211 O1215 1.241 . S
C1212 O1205 1.247 . S
C1212 O1206 1.261 . S
C1213 O1208 1.259 . S
C1213 O1210 1.235 . S
O1214 Co1204 2.021 . S
O1214 C1211 1.238 . S
O1215 Co1209 2.052 . S
O1215 C1211 1.241 . S
O1216 Co1204 2.137 . S
O1216 C1207 1.247 . S
O1217 Co1204 2.244 . S
O1217 C1207 1.272 . S
O1217 Co1209 2.135 . S
Co1218 O1219 2.216 . S
Co1218 O1220 2.091 . S
Co1218 O1222 2.004 . S
Co1218 O1228 2.021 . S
Co1218 O1230 2.137 . S
Co1218 O1231 2.244 . S
O1219 Co1218 2.216 . S
O1219 C1226 1.247 . S
O1220 Co1218 2.091 . S
O1220 C1226 1.261 . S
C1221 O1230 1.247 . S
C1221 O1231 1.272 . S
O1222 Co1218 2.004 . S
O1222 C1227 1.259 . S
Co1223 O1224 2.061 . S
Co1223 O1229 2.052 . S
Co1223 O1231 2.135 . S
O1224 Co1223 2.061 . S
O1224 C1227 1.235 . S
C1225 O1228 1.238 . S
C1225 O1229 1.241 . S
C1226 O1219 1.247 . S
C1226 O1220 1.261 . S
C1227 O1222 1.259 . S
C1227 O1224 1.235 . S
O1228 Co1218 2.021 . S
O1228 C1225 1.238 . S
O1229 Co1223 2.052 . S
O1229 C1225 1.241 . S
O1230 Co1218 2.137 . S
O1230 C1221 1.247 . S
O1231 Co1218 2.244 . S
O1231 C1221 1.272 . S
O1231 Co1223 2.135 . S
Co1232 O1233 2.216 . S
Co1232 O1234 2.091 . S
Co1232 O1236 2.004 . S
Co1232 O1242 2.021 . S
Co1232 O1244 2.137 . S
Co1232 O1245 2.244 . S
O1233 Co1232 2.216 . S
O1233 C1240 1.247 . S
O1234 Co1232 2.091 . S
O1234 C1240 1.261 . S
C1235 O1244 1.247 . S
C1235 O1245 1.272 . S
O1236 Co1232 2.004 . S
O1236 C1241 1.259 . S
Co1237 O1238 2.061 . S
Co1237 O1243 2.052 . S
Co1237 O1245 2.135 . S
O1238 Co1237 2.061 . S
O1238 C1241 1.235 . S
C1239 O1242 1.238 . S
C1239 O1243 1.241 . S
C1240 O1233 1.247 . S
C1240 O1234 1.261 . S
C1241 O1236 1.259 . S
C1241 O1238 1.235 . S
O1242 Co1232 2.021 . S
O1242 C1239 1.238 . S
O1243 Co1237 2.052 . S
O1243 C1239 1.241 . S
O1244 Co1232 2.137 . S
O1244 C1235 1.247 . S
O1245 Co1232 2.244 . S
O1245 C1235 1.272 . S
O1245 Co1237 2.135 . S
Co1246 O1247 2.216 . S
Co1246 O1248 2.091 . S
Co1246 O1250 2.004 . S
Co1246 O1256 2.021 . S
Co1246 O1258 2.137 . S
Co1246 O1259 2.244 . S
O1247 Co1246 2.216 . S
O1247 C1254 1.247 . S
O1248 Co1246 2.091 . S
O1248 C1254 1.261 . S
C1249 O1258 1.247 . S
C1249 O1259 1.272 . S
O1250 Co1246 2.004 . S
O1250 C1255 1.259 . S
Co1251 O1252 2.061 . S
Co1251 O1257 2.052 . S
Co1251 O1259 2.135 . S
O1252 Co1251 2.061 . S
O1252 C1255 1.235 . S
C1253 O1256 1.238 . S
C1253 O1257 1.241 . S
C1254 O1247 1.247 . S
C1254 O1248 1.261 . S
C1255 O1250 1.259 . S
C1255 O1252 1.235 . S
O1256 Co1246 2.021 . S
O1256 C1253 1.238 . S
O1257 Co1251 2.052 . S
O1257 C1253 1.241 . S
O1258 Co1246 2.137 . S
O1258 C1249 1.247 . S
O1259 Co1246 2.244 . S
O1259 C1249 1.272 . S
O1259 Co1251 2.135 . S
Co1260 O1261 2.216 . S
Co1260 O1262 2.091 . S
Co1260 O1264 2.004 . S
Co1260 O1270 2.021 . S
Co1260 O1272 2.137 . S
Co1260 O1273 2.244 . S
O1261 Co1260 2.216 . S
O1261 C1268 1.247 . S
O1262 Co1260 2.091 . S
O1262 C1268 1.261 . S
C1263 O1272 1.247 . S
C1263 O1273 1.272 . S
O1264 Co1260 2.004 . S
O1264 C1269 1.259 . S
Co1265 O1266 2.061 . S
Co1265 O1271 2.052 . S
Co1265 O1273 2.135 . S
O1266 Co1265 2.061 . S
O1266 C1269 1.235 . S
C1267 O1270 1.238 . S
C1267 O1271 1.241 . S
C1268 O1261 1.247 . S
C1268 O1262 1.261 . S
C1269 O1264 1.259 . S
C1269 O1266 1.235 . S
O1270 Co1260 2.021 . S
O1270 C1267 1.238 . S
O1271 Co1265 2.052 . S
O1271 C1267 1.241 . S
O1272 Co1260 2.137 . S
O1272 C1263 1.247 . S
O1273 Co1260 2.244 . S
O1273 C1263 1.272 . S
O1273 Co1265 2.135 . S
Co1274 O1275 2.216 . S
Co1274 O1276 2.091 . S
Co1274 O1278 2.004 . S
Co1274 O1284 2.021 . S
Co1274 O1286 2.137 . S
Co1274 O1287 2.244 . S
O1275 Co1274 2.216 . S
O1275 C1282 1.247 . S
O1276 Co1274 2.091 . S
O1276 C1282 1.261 . S
C1277 O1286 1.247 . S
C1277 O1287 1.272 . S
O1278 Co1274 2.004 . S
O1278 C1283 1.259 . S
Co1279 O1280 2.061 . S
Co1279 O1285 2.052 . S
Co1279 O1287 2.135 . S
O1280 Co1279 2.061 . S
O1280 C1283 1.235 . S
C1281 O1284 1.238 . S
C1281 O1285 1.241 . S
C1282 O1275 1.247 . S
C1282 O1276 1.261 . S
C1283 O1278 1.259 . S
C1283 O1280 1.235 . S
O1284 Co1274 2.021 . S
O1284 C1281 1.238 . S
O1285 Co1279 2.052 . S
O1285 C1281 1.241 . S
O1286 Co1274 2.137 . S
O1286 C1277 1.247 . S
O1287 Co1274 2.244 . S
O1287 C1277 1.272 . S
O1287 Co1279 2.135 . S
Co1288 O1289 2.216 . S
Co1288 O1290 2.091 . S
Co1288 O1292 2.004 . S
Co1288 O1298 2.021 . S
Co1288 O1300 2.137 . S
Co1288 O1301 2.244 . S
O1289 Co1288 2.216 . S
O1289 C1296 1.247 . S
O1290 Co1288 2.091 . S
O1290 C1296 1.261 . S
C1291 O1300 1.247 . S
C1291 O1301 1.272 . S
O1292 Co1288 2.004 . S
O1292 C1297 1.259 . S
Co1293 O1294 2.061 . S
Co1293 O1299 2.052 . S
Co1293 O1301 2.135 . S
O1294 Co1293 2.061 . S
O1294 C1297 1.235 . S
C1295 O1298 1.238 . S
C1295 O1299 1.241 . S
C1296 O1289 1.247 . S
C1296 O1290 1.261 . S
C1297 O1292 1.259 . S
C1297 O1294 1.235 . S
O1298 Co1288 2.021 . S
O1298 C1295 1.238 . S
O1299 Co1293 2.052 . S
O1299 C1295 1.241 . S
O1300 Co1288 2.137 . S
O1300 C1291 1.247 . S
O1301 Co1288 2.244 . S
O1301 C1291 1.272 . S
O1301 Co1293 2.135 . S
Co1302 O1303 2.216 . S
Co1302 O1304 2.091 . S
Co1302 O1306 2.004 . S
Co1302 O1312 2.021 . S
Co1302 O1314 2.137 . S
Co1302 O1315 2.244 . S
O1303 Co1302 2.216 . S
O1303 C1310 1.247 . S
O1304 Co1302 2.091 . S
O1304 C1310 1.261 . S
C1305 O1314 1.247 . S
C1305 O1315 1.272 . S
O1306 Co1302 2.004 . S
O1306 C1311 1.259 . S
Co1307 O1308 2.061 . S
Co1307 O1313 2.052 . S
Co1307 O1315 2.135 . S
O1308 Co1307 2.061 . S
O1308 C1311 1.235 . S
C1309 O1312 1.238 . S
C1309 O1313 1.241 . S
C1310 O1303 1.247 . S
C1310 O1304 1.261 . S
C1311 O1306 1.259 . S
C1311 O1308 1.235 . S
O1312 Co1302 2.021 . S
O1312 C1309 1.238 . S
O1313 Co1307 2.052 . S
O1313 C1309 1.241 . S
O1314 Co1302 2.137 . S
O1314 C1305 1.247 . S
O1315 Co1302 2.244 . S
O1315 C1305 1.272 . S
O1315 Co1307 2.135 . S
Co1316 O1317 2.216 . S
Co1316 O1318 2.091 . S
Co1316 O1320 2.004 . S
Co1316 O1326 2.021 . S
Co1316 O1328 2.137 . S
Co1316 O1329 2.244 . S
O1317 Co1316 2.216 . S
O1317 C1324 1.247 . S
O1318 Co1316 2.091 . S
O1318 C1324 1.261 . S
C1319 O1328 1.247 . S
C1319 O1329 1.272 . S
O1320 Co1316 2.004 . S
O1320 C1325 1.259 . S
Co1321 O1322 2.061 . S
Co1321 O1327 2.052 . S
Co1321 O1329 2.135 . S
O1322 Co1321 2.061 . S
O1322 C1325 1.235 . S
C1323 O1326 1.238 . S
C1323 O1327 1.241 . S
C1324 O1317 1.247 . S
C1324 O1318 1.261 . S
C1325 O1320 1.259 . S
C1325 O1322 1.235 . S
O1326 Co1316 2.021 . S
O1326 C1323 1.238 . S
O1327 Co1321 2.052 . S
O1327 C1323 1.241 . S
O1328 Co1316 2.137 . S
O1328 C1319 1.247 . S
O1329 Co1316 2.244 . S
O1329 C1319 1.272 . S
O1329 Co1321 2.135 . S
Co1330 O1331 2.216 . S
Co1330 O1332 2.091 . S
Co1330 O1334 2.004 . S
Co1330 O1340 2.021 . S
Co1330 O1342 2.137 . S
Co1330 O1343 2.244 . S
O1331 Co1330 2.216 . S
O1331 C1338 1.247 . S
O1332 Co1330 2.091 . S
O1332 C1338 1.261 . S
C1333 O1342 1.247 . S
C1333 O1343 1.272 . S
O1334 Co1330 2.004 . S
O1334 C1339 1.259 . S
Co1335 O1336 2.061 . S
Co1335 O1341 2.052 . S
Co1335 O1343 2.135 . S
O1336 Co1335 2.061 . S
O1336 C1339 1.235 . S
C1337 O1340 1.238 . S
C1337 O1341 1.241 . S
C1338 O1331 1.247 . S
C1338 O1332 1.261 . S
C1339 O1334 1.259 . S
C1339 O1336 1.235 . S
O1340 Co1330 2.021 . S
O1340 C1337 1.238 . S
O1341 Co1335 2.052 . S
O1341 C1337 1.241 . S
O1342 Co1330 2.137 . S
O1342 C1333 1.247 . S
O1343 Co1330 2.244 . S
O1343 C1333 1.272 . S
O1343 Co1335 2.135 . S
C1344 C1345 1.349 . S
C1344 C1346 1.327 . S
C1344 H1369 0.950 . S
C1345 C1344 1.349 . S
C1345 C1361 1.349 . S
C1346 C1344 1.327 . S
C1346 C1365 1.429 . S
C1346 H1370 0.950 . S
C1347 C1364 1.574 1_554 S
C1347 C1366 1.368 1_655 S
C1347 H1371 0.949 . S
H1348 C1352 0.949 . S
C1349 C1350 1.349 . S
C1349 C1351 1.327 . S
C1349 H1372 0.950 . S
C1350 C1349 1.349 . S
C1350 C1362 1.349 . S
C1351 C1349 1.327 . S
C1351 C1367 1.429 . S
C1351 H1373 0.950 . S
C1352 H1348 0.949 . S
C1352 C1360 1.574 1_556 S
C1352 C1368 1.368 1_455 S
H1353 C1361 0.950 . S
H1354 C1359 0.950 . S
H1355 C1360 0.949 . S
H1356 C1362 0.950 . S
H1357 C1363 0.950 . S
H1358 C1364 0.949 . S
C1359 H1354 0.950 . S
C1359 C1361 1.327 . S
C1359 C1365 1.429 . S
C1360 C1352 1.574 1_554 S
C1360 H1355 0.949 . S
C1360 C1366 1.368 . S
C1361 C1345 1.349 . S
C1361 H1353 0.950 . S
C1361 C1359 1.327 . S
C1362 C1350 1.349 . S
C1362 H1356 0.950 . S
C1362 C1363 1.327 . S
C1363 H1357 0.950 . S
C1363 C1362 1.327 . S
C1363 C1367 1.429 . S
C1364 C1347 1.574 1_556 S
C1364 H1358 0.949 . S
C1364 C1368 1.368 . S
C1365 C1346 1.429 . S
C1365 C1359 1.429 . S
C1365 C1366 1.523 . S
C1366 C1347 1.368 1_455 S
C1366 C1360 1.368 . S
C1366 C1365 1.523 . S
C1367 C1351 1.429 . S
C1367 C1363 1.429 . S
C1367 C1368 1.523 . S
C1368 C1352 1.368 1_655 S
C1368 C1364 1.368 . S
C1368 C1367 1.523 . S
H1369 C1344 0.950 . S
H1370 C1346 0.950 . S
H1371 C1347 0.949 . S
H1372 C1349 0.950 . S
H1373 C1351 0.950 . S
C1374 C1375 1.349 . S
C1374 C1376 1.327 . S
C1374 H1399 0.950 . S
C1375 C1374 1.349 . S
C1375 C1391 1.349 . S
C1376 C1374 1.327 . S
C1376 C1395 1.429 . S
C1376 H1400 0.950 . S
C1377 C1394 1.574 . S
C1377 C1396 1.368 . S
C1377 H1401 0.949 . S
H1378 C1382 0.949 . S
C1379 C1380 1.349 . S
C1379 C1381 1.327 . S
C1379 H1402 0.950 . S
C1380 C1379 1.349 . S
C1380 C1392 1.349 . S
C1381 C1379 1.327 . S
C1381 C1397 1.429 . S
C1381 H1403 0.950 . S
C1382 H1378 0.949 . S
C1382 C1390 1.574 . S
C1382 C1398 1.368 . S
H1383 C1391 0.950 . S
H1384 C1389 0.950 . S
H1385 C1390 0.949 . S
H1386 C1392 0.950 . S
H1387 C1393 0.950 . S
H1388 C1394 0.949 . S
C1389 H1384 0.950 . S
C1389 C1391 1.327 . S
C1389 C1395 1.429 . S
C1390 C1382 1.574 . S
C1390 H1385 0.949 . S
C1390 C1396 1.368 . S
C1391 C1375 1.349 . S
C1391 H1383 0.950 . S
C1391 C1389 1.327 . S
C1392 C1380 1.349 . S
C1392 H1386 0.950 . S
C1392 C1393 1.327 . S
C1393 H1387 0.950 . S
C1393 C1392 1.327 . S
C1393 C1397 1.429 . S
C1394 C1377 1.574 . S
C1394 H1388 0.949 . S
C1394 C1398 1.368 . S
C1395 C1376 1.429 . S
C1395 C1389 1.429 . S
C1395 C1396 1.523 . S
C1396 C1377 1.368 . S
C1396 C1390 1.368 . S
C1396 C1395 1.523 . S
C1397 C1381 1.429 . S
C1397 C1393 1.429 . S
C1397 C1398 1.523 . S
C1398 C1382 1.368 . S
C1398 C1394 1.368 . S
C1398 C1397 1.523 . S
H1399 C1374 0.950 . S
H1400 C1376 0.950 . S
H1401 C1377 0.949 . S
H1402 C1379 0.950 . S
H1403 C1381 0.950 . S
C1404 C1405 1.349 . S
C1404 C1406 1.327 . S
C1404 H1429 0.950 . S
C1405 C1404 1.349 . S
C1405 C1421 1.349 . S
C1406 C1404 1.327 . S
C1406 C1425 1.429 . S
C1406 H1430 0.950 . S
C1407 C1424 1.574 . S
C1407 C1426 1.368 1_455 S
C1407 H1431 0.949 . S
H1408 C1412 0.949 . S
C1409 C1410 1.349 . S
C1409 C1411 1.327 . S
C1409 H1432 0.950 . S
C1410 C1409 1.349 . S
C1410 C1422 1.349 . S
C1411 C1409 1.327 . S
C1411 C1427 1.429 . S
C1411 H1433 0.950 . S
C1412 H1408 0.949 . S
C1412 C1420 1.574 . S
C1412 C1428 1.368 1_655 S
H1413 C1421 0.950 . S
H1414 C1419 0.950 . S
H1415 C1420 0.949 . S
H1416 C1422 0.950 . S
H1417 C1423 0.950 . S
H1418 C1424 0.949 . S
C1419 H1414 0.950 . S
C1419 C1421 1.327 . S
C1419 C1425 1.429 . S
C1420 C1412 1.574 . S
C1420 H1415 0.949 . S
C1420 C1426 1.368 . S
C1421 C1405 1.349 . S
C1421 H1413 0.950 . S
C1421 C1419 1.327 . S
C1422 C1410 1.349 . S
C1422 H1416 0.950 . S
C1422 C1423 1.327 . S
C1423 H1417 0.950 . S
C1423 C1422 1.327 . S
C1423 C1427 1.429 . S
C1424 C1407 1.574 . S
C1424 H1418 0.949 . S
C1424 C1428 1.368 . S
C1425 C1406 1.429 . S
C1425 C1419 1.429 . S
C1425 C1426 1.523 . S
C1426 C1407 1.368 1_655 S
C1426 C1420 1.368 . S
C1426 C1425 1.523 . S
C1427 C1411 1.429 . S
C1427 C1423 1.429 . S
C1427 C1428 1.523 . S
C1428 C1412 1.368 1_455 S
C1428 C1424 1.368 . S
C1428 C1427 1.523 . S
H1429 C1404 0.950 . S
H1430 C1406 0.950 . S
H1431 C1407 0.949 . S
H1432 C1409 0.950 . S
H1433 C1411 0.950 . S
C1434 C1435 1.349 . S
C1434 C1436 1.327 . S
C1434 H1459 0.950 . S
C1435 C1434 1.349 . S
C1435 C1451 1.349 . S
C1436 C1434 1.327 . S
C1436 C1455 1.429 . S
C1436 H1460 0.950 . S
C1437 C1454 1.574 . S
C1437 C1456 1.368 . S
C1437 H1461 0.949 . S
H1438 C1442 0.949 . S
C1439 C1440 1.349 . S
C1439 C1441 1.327 . S
C1439 H1462 0.950 . S
C1440 C1439 1.349 . S
C1440 C1452 1.349 . S
C1441 C1439 1.327 . S
C1441 C1457 1.429 . S
C1441 H1463 0.950 . S
C1442 H1438 0.949 . S
C1442 C1450 1.574 . S
C1442 C1458 1.368 . S
H1443 C1451 0.950 . S
H1444 C1449 0.950 . S
H1445 C1450 0.949 . S
H1446 C1452 0.950 . S
H1447 C1453 0.950 . S
H1448 C1454 0.949 . S
C1449 H1444 0.950 . S
C1449 C1451 1.327 . S
C1449 C1455 1.429 . S
C1450 C1442 1.574 . S
C1450 H1445 0.949 . S
C1450 C1456 1.368 . S
C1451 C1435 1.349 . S
C1451 H1443 0.950 . S
C1451 C1449 1.327 . S
C1452 C1440 1.349 . S
C1452 H1446 0.950 . S
C1452 C1453 1.327 . S
C1453 H1447 0.950 . S
C1453 C1452 1.327 . S
C1453 C1457 1.429 . S
C1454 C1437 1.574 . S
C1454 H1448 0.949 . S
C1454 C1458 1.368 . S
C1455 C1436 1.429 . S
C1455 C1449 1.429 . S
C1455 C1456 1.523 . S
C1456 C1437 1.368 . S
C1456 C1450 1.368 . S
C1456 C1455 1.523 . S
C1457 C1441 1.429 . S
C1457 C1453 1.429 . S
C1457 C1458 1.523 . S
C1458 C1442 1.368 . S
C1458 C1454 1.368 . S
C1458 C1457 1.523 . S
H1459 C1434 0.950 . S
H1460 C1436 0.950 . S
H1461 C1437 0.949 . S
H1462 C1439 0.950 . S
H1463 C1441 0.950 . S
C1464 C1465 1.349 . S
C1464 C1466 1.327 . S
C1464 H1489 0.950 . S
C1465 C1464 1.349 . S
C1465 C1481 1.349 . S
C1466 C1464 1.327 . S
C1466 C1485 1.429 . S
C1466 H1490 0.950 . S
C1467 C1484 1.574 1_554 S
C1467 C1486 1.368 . S
C1467 H1491 0.949 . S
H1468 C1472 0.949 . S
C1469 C1470 1.349 . S
C1469 C1471 1.327 . S
C1469 H1492 0.950 . S
C1470 C1469 1.349 . S
C1470 C1482 1.349 . S
C1471 C1469 1.327 . S
C1471 C1487 1.429 . S
C1471 H1493 0.950 . S
C1472 H1468 0.949 . S
C1472 C1480 1.574 1_556 S
C1472 C1488 1.368 . S
H1473 C1481 0.950 . S
H1474 C1479 0.950 . S
H1475 C1480 0.949 . S
H1476 C1482 0.950 . S
H1477 C1483 0.950 . S
H1478 C1484 0.949 . S
C1479 H1474 0.950 . S
C1479 C1481 1.327 . S
C1479 C1485 1.429 . S
C1480 C1472 1.574 1_554 S
C1480 H1475 0.949 . S
C1480 C1486 1.368 1_455 S
C1481 C1465 1.349 . S
C1481 H1473 0.950 . S
C1481 C1479 1.327 . S
C1482 C1470 1.349 . S
C1482 H1476 0.950 . S
C1482 C1483 1.327 . S
C1483 H1477 0.950 . S
C1483 C1482 1.327 . S
C1483 C1487 1.429 . S
C1484 C1467 1.574 1_556 S
C1484 H1478 0.949 . S
C1484 C1488 1.368 1_655 S
C1485 C1466 1.429 . S
C1485 C1479 1.429 . S
C1485 C1486 1.523 . S
C1486 C1467 1.368 . S
C1486 C1480 1.368 1_655 S
C1486 C1485 1.523 . S
C1487 C1471 1.429 . S
C1487 C1483 1.429 . S
C1487 C1488 1.523 . S
C1488 C1472 1.368 . S
C1488 C1484 1.368 1_455 S
C1488 C1487 1.523 . S
H1489 C1464 0.950 . S
H1490 C1466 0.950 . S
H1491 C1467 0.949 . S
H1492 C1469 0.950 . S
H1493 C1471 0.950 . S
C1494 C1495 1.349 . S
C1494 C1496 1.327 . S
C1494 H1519 0.950 . S
C1495 C1494 1.349 . S
C1495 C1511 1.349 . S
C1496 C1494 1.327 . S
C1496 C1515 1.429 . S
C1496 H1520 0.950 . S
C1497 C1514 1.574 . S
C1497 C1516 1.368 . S
C1497 H1521 0.949 . S
H1498 C1502 0.949 . S
C1499 C1500 1.349 . S
C1499 C1501 1.327 . S
C1499 H1522 0.950 . S
C1500 C1499 1.349 . S
C1500 C1512 1.349 . S
C1501 C1499 1.327 . S
C1501 C1517 1.429 . S
C1501 H1523 0.950 . S
C1502 H1498 0.949 . S
C1502 C1510 1.574 . S
C1502 C1518 1.368 . S
H1503 C1511 0.950 . S
H1504 C1509 0.950 . S
H1505 C1510 0.949 . S
H1506 C1512 0.950 . S
H1507 C1513 0.950 . S
H1508 C1514 0.949 . S
C1509 H1504 0.950 . S
C1509 C1511 1.327 . S
C1509 C1515 1.429 . S
C1510 C1502 1.574 . S
C1510 H1505 0.949 . S
C1510 C1516 1.368 . S
C1511 C1495 1.349 . S
C1511 H1503 0.950 . S
C1511 C1509 1.327 . S
C1512 C1500 1.349 . S
C1512 H1506 0.950 . S
C1512 C1513 1.327 . S
C1513 H1507 0.950 . S
C1513 C1512 1.327 . S
C1513 C1517 1.429 . S
C1514 C1497 1.574 . S
C1514 H1508 0.949 . S
C1514 C1518 1.368 . S
C1515 C1496 1.429 . S
C1515 C1509 1.429 . S
C1515 C1516 1.523 . S
C1516 C1497 1.368 . S
C1516 C1510 1.368 . S
C1516 C1515 1.523 . S
C1517 C1501 1.429 . S
C1517 C1513 1.429 . S
C1517 C1518 1.523 . S
C1518 C1502 1.368 . S
C1518 C1514 1.368 . S
C1518 C1517 1.523 . S
H1519 C1494 0.950 . S
H1520 C1496 0.950 . S
H1521 C1497 0.949 . S
H1522 C1499 0.950 . S
H1523 C1501 0.950 . S
C1524 C1525 1.349 . S
C1524 C1526 1.327 . S
C1524 H1549 0.950 . S
C1525 C1524 1.349 . S
C1525 C1541 1.349 . S
C1526 C1524 1.327 . S
C1526 C1545 1.429 . S
C1526 H1550 0.950 . S
C1527 C1544 1.574 . S
C1527 C1546 1.368 . S
C1527 H1551 0.949 . S
H1528 C1532 0.949 . S
C1529 C1530 1.349 . S
C1529 C1531 1.327 . S
C1529 H1552 0.950 . S
C1530 C1529 1.349 . S
C1530 C1542 1.349 . S
C1531 C1529 1.327 . S
C1531 C1547 1.429 . S
C1531 H1553 0.950 . S
C1532 H1528 0.949 . S
C1532 C1540 1.574 . S
C1532 C1548 1.368 . S
H1533 C1541 0.950 . S
H1534 C1539 0.950 . S
H1535 C1540 0.949 . S
H1536 C1542 0.950 . S
H1537 C1543 0.950 . S
H1538 C1544 0.949 . S
C1539 H1534 0.950 . S
C1539 C1541 1.327 . S
C1539 C1545 1.429 . S
C1540 C1532 1.574 . S
C1540 H1535 0.949 . S
C1540 C1546 1.368 1_655 S
C1541 C1525 1.349 . S
C1541 H1533 0.950 . S
C1541 C1539 1.327 . S
C1542 C1530 1.349 . S
C1542 H1536 0.950 . S
C1542 C1543 1.327 . S
C1543 H1537 0.950 . S
C1543 C1542 1.327 . S
C1543 C1547 1.429 . S
C1544 C1527 1.574 . S
C1544 H1538 0.949 . S
C1544 C1548 1.368 1_455 S
C1545 C1526 1.429 . S
C1545 C1539 1.429 . S
C1545 C1546 1.523 . S
C1546 C1527 1.368 . S
C1546 C1540 1.368 1_455 S
C1546 C1545 1.523 . S
C1547 C1531 1.429 . S
C1547 C1543 1.429 . S
C1547 C1548 1.523 . S
C1548 C1532 1.368 . S
C1548 C1544 1.368 1_655 S
C1548 C1547 1.523 . S
H1549 C1524 0.950 . S
H1550 C1526 0.950 . S
H1551 C1527 0.949 . S
H1552 C1529 0.950 . S
H1553 C1531 0.950 . S
C1554 C1555 1.349 . S
C1554 C1556 1.327 . S
C1554 H1579 0.950 . S
C1555 C1554 1.349 . S
C1555 C1571 1.349 . S
C1556 C1554 1.327 . S
C1556 C1575 1.429 . S
C1556 H1580 0.950 . S
C1557 C1574 1.574 . S
C1557 C1576 1.368 . S
C1557 H1581 0.949 . S
H1558 C1562 0.949 . S
C1559 C1560 1.349 . S
C1559 C1561 1.327 . S
C1559 H1582 0.950 . S
C1560 C1559 1.349 . S
C1560 C1572 1.349 . S
C1561 C1559 1.327 . S
C1561 C1577 1.429 . S
C1561 H1583 0.950 . S
C1562 H1558 0.949 . S
C1562 C1570 1.574 . S
C1562 C1578 1.368 . S
H1563 C1571 0.950 . S
H1564 C1569 0.950 . S
H1565 C1570 0.949 . S
H1566 C1572 0.950 . S
H1567 C1573 0.950 . S
H1568 C1574 0.949 . S
C1569 H1564 0.950 . S
C1569 C1571 1.327 . S
C1569 C1575 1.429 . S
C1570 C1562 1.574 . S
C1570 H1565 0.949 . S
C1570 C1576 1.368 . S
C1571 C1555 1.349 . S
C1571 H1563 0.950 . S
C1571 C1569 1.327 . S
C1572 C1560 1.349 . S
C1572 H1566 0.950 . S
C1572 C1573 1.327 . S
C1573 H1567 0.950 . S
C1573 C1572 1.327 . S
C1573 C1577 1.429 . S
C1574 C1557 1.574 . S
C1574 H1568 0.949 . S
C1574 C1578 1.368 . S
C1575 C1556 1.429 . S
C1575 C1569 1.429 . S
C1575 C1576 1.523 . S
C1576 C1557 1.368 . S
C1576 C1570 1.368 . S
C1576 C1575 1.523 . S
C1577 C1561 1.429 . S
C1577 C1573 1.429 . S
C1577 C1578 1.523 . S
C1578 C1562 1.368 . S
C1578 C1574 1.368 . S
C1578 C1577 1.523 . S
H1579 C1554 0.950 . S
H1580 C1556 0.950 . S
H1581 C1557 0.949 . S
H1582 C1559 0.950 . S
H1583 C1561 0.950 . S
C1584 C1585 1.349 . S
C1584 C1586 1.327 . S
C1584 H1609 0.950 . S
C1585 C1584 1.349 . S
C1585 C1601 1.349 . S
C1586 C1584 1.327 . S
C1586 C1605 1.429 . S
C1586 H1610 0.950 . S
C1587 C1604 1.574 1_655 S
C1587 C1606 1.368 . S
C1587 H1611 0.949 . S
H1588 C1592 0.949 . S
C1589 C1590 1.349 . S
C1589 C1591 1.327 . S
C1589 H1612 0.950 . S
C1590 C1589 1.349 . S
C1590 C1602 1.349 . S
C1591 C1589 1.327 . S
C1591 C1607 1.429 . S
C1591 H1613 0.950 . S
C1592 H1588 0.949 . S
C1592 C1600 1.574 1_455 S
C1592 C1608 1.368 . S
H1593 C1601 0.950 . S
H1594 C1599 0.950 . S
H1595 C1600 0.949 . S
H1596 C1602 0.950 . S
H1597 C1603 0.950 . S
H1598 C1604 0.949 . S
C1599 H1594 0.950 . S
C1599 C1601 1.327 . S
C1599 C1605 1.429 . S
C1600 C1592 1.574 1_655 S
C1600 H1595 0.949 . S
C1600 C1606 1.368 1_545 S
C1601 C1585 1.349 . S
C1601 H1593 0.950 . S
C1601 C1599 1.327 . S
C1602 C1590 1.349 . S
C1602 H1596 0.950 . S
C1602 C1603 1.327 . S
C1603 H1597 0.950 . S
C1603 C1602 1.327 . S
C1603 C1607 1.429 . S
C1604 C1587 1.574 1_455 S
C1604 H1598 0.949 . S
C1604 C1608 1.368 1_565 S
C1605 C1586 1.429 . S
C1605 C1599 1.429 . S
C1605 C1606 1.523 . S
C1606 C1587 1.368 . S
C1606 C1600 1.368 1_565 S
C1606 C1605 1.523 . S
C1607 C1591 1.429 . S
C1607 C1603 1.429 . S
C1607 C1608 1.523 . S
C1608 C1592 1.368 . S
C1608 C1604 1.368 1_545 S
C1608 C1607 1.523 . S
H1609 C1584 0.950 . S
H1610 C1586 0.950 . S
H1611 C1587 0.949 . S
H1612 C1589 0.950 . S
H1613 C1591 0.950 . S
C1614 C1615 1.349 . S
C1614 C1616 1.327 . S
C1614 H1639 0.950 . S
C1615 C1614 1.349 . S
C1615 C1631 1.349 . S
C1616 C1614 1.327 . S
C1616 C1635 1.429 . S
C1616 H1640 0.950 . S
C1617 C1634 1.574 . S
C1617 C1636 1.368 . S
C1617 H1641 0.949 . S
H1618 C1622 0.949 . S
C1619 C1620 1.349 . S
C1619 C1621 1.327 . S
C1619 H1642 0.950 . S
C1620 C1619 1.349 . S
C1620 C1632 1.349 . S
C1621 C1619 1.327 . S
C1621 C1637 1.429 . S
C1621 H1643 0.950 . S
C1622 H1618 0.949 . S
C1622 C1630 1.574 . S
C1622 C1638 1.368 . S
H1623 C1631 0.950 . S
H1624 C1629 0.950 . S
H1625 C1630 0.949 . S
H1626 C1632 0.950 . S
H1627 C1633 0.950 . S
H1628 C1634 0.949 . S
C1629 H1624 0.950 . S
C1629 C1631 1.327 . S
C1629 C1635 1.429 . S
C1630 C1622 1.574 . S
C1630 H1625 0.949 . S
C1630 C1636 1.368 . S
C1631 C1615 1.349 . S
C1631 H1623 0.950 . S
C1631 C1629 1.327 . S
C1632 C1620 1.349 . S
C1632 H1626 0.950 . S
C1632 C1633 1.327 . S
C1633 H1627 0.950 . S
C1633 C1632 1.327 . S
C1633 C1637 1.429 . S
C1634 C1617 1.574 . S
C1634 H1628 0.949 . S
C1634 C1638 1.368 . S
C1635 C1616 1.429 . S
C1635 C1629 1.429 . S
C1635 C1636 1.523 . S
C1636 C1617 1.368 . S
C1636 C1630 1.368 . S
C1636 C1635 1.523 . S
C1637 C1621 1.429 . S
C1637 C1633 1.429 . S
C1637 C1638 1.523 . S
C1638 C1622 1.368 . S
C1638 C1634 1.368 . S
C1638 C1637 1.523 . S
H1639 C1614 0.950 . S
H1640 C1616 0.950 . S
H1641 C1617 0.949 . S
H1642 C1619 0.950 . S
H1643 C1621 0.950 . S
C1644 C1645 1.349 . S
C1644 C1646 1.327 . S
C1644 H1669 0.950 . S
C1645 C1644 1.349 . S
C1645 C1661 1.349 . S
C1646 C1644 1.327 . S
C1646 C1665 1.429 . S
C1646 H1670 0.950 . S
C1647 C1664 1.574 1_655 S
C1647 C1666 1.368 . S
C1647 H1671 0.949 . S
H1648 C1652 0.949 . S
C1649 C1650 1.349 . S
C1649 C1651 1.327 . S
C1649 H1672 0.950 . S
C1650 C1649 1.349 . S
C1650 C1662 1.349 . S
C1651 C1649 1.327 . S
C1651 C1667 1.429 . S
C1651 H1673 0.950 . S
C1652 H1648 0.949 . S
C1652 C1660 1.574 1_455 S
C1652 C1668 1.368 . S
H1653 C1661 0.950 . S
H1654 C1659 0.950 . S
H1655 C1660 0.949 . S
H1656 C1662 0.950 . S
H1657 C1663 0.950 . S
H1658 C1664 0.949 . S
C1659 H1654 0.950 . S
C1659 C1661 1.327 . S
C1659 C1665 1.429 . S
C1660 C1652 1.574 1_655 S
C1660 H1655 0.949 . S
C1660 C1666 1.368 . S
C1661 C1645 1.349 . S
C1661 H1653 0.950 . S
C1661 C1659 1.327 . S
C1662 C1650 1.349 . S
C1662 H1656 0.950 . S
C1662 C1663 1.327 . S
C1663 H1657 0.950 . S
C1663 C1662 1.327 . S
C1663 C1667 1.429 . S
C1664 C1647 1.574 1_455 S
C1664 H1658 0.949 . S
C1664 C1668 1.368 . S
C1665 C1646 1.429 . S
C1665 C1659 1.429 . S
C1665 C1666 1.523 . S
C1666 C1647 1.368 . S
C1666 C1660 1.368 . S
C1666 C1665 1.523 . S
C1667 C1651 1.429 . S
C1667 C1663 1.429 . S
C1667 C1668 1.523 . S
C1668 C1652 1.368 . S
C1668 C1664 1.368 . S
C1668 C1667 1.523 . S
H1669 C1644 0.950 . S
H1670 C1646 0.950 . S
H1671 C1647 0.949 . S
H1672 C1649 0.950 . S
H1673 C1651 0.950 . S
C1674 C1675 1.349 . S
C1674 C1676 1.327 . S
C1674 H1699 0.950 . S
C1675 C1674 1.349 . S
C1675 C1691 1.349 . S
C1676 C1674 1.327 . S
C1676 C1695 1.429 . S
C1676 H1700 0.950 . S
C1677 C1694 1.574 . S
C1677 C1696 1.368 . S
C1677 H1701 0.949 . S
H1678 C1682 0.949 . S
C1679 C1680 1.349 . S
C1679 C1681 1.327 . S
C1679 H1702 0.950 . S
C1680 C1679 1.349 . S
C1680 C1692 1.349 . S
C1681 C1679 1.327 . S
C1681 C1697 1.429 . S
C1681 H1703 0.950 . S
C1682 H1678 0.949 . S
C1682 C1690 1.574 . S
C1682 C1698 1.368 . S
H1683 C1691 0.950 . S
H1684 C1689 0.950 . S
H1685 C1690 0.949 . S
H1686 C1692 0.950 . S
H1687 C1693 0.950 . S
H1688 C1694 0.949 . S
C1689 H1684 0.950 . S
C1689 C1691 1.327 . S
C1689 C1695 1.429 . S
C1690 C1682 1.574 . S
C1690 H1685 0.949 . S
C1690 C1696 1.368 . S
C1691 C1675 1.349 . S
C1691 H1683 0.950 . S
C1691 C1689 1.327 . S
C1692 C1680 1.349 . S
C1692 H1686 0.950 . S
C1692 C1693 1.327 . S
C1693 H1687 0.950 . S
C1693 C1692 1.327 . S
C1693 C1697 1.429 . S
C1694 C1677 1.574 . S
C1694 H1688 0.949 . S
C1694 C1698 1.368 . S
C1695 C1676 1.429 . S
C1695 C1689 1.429 . S
C1695 C1696 1.523 . S
C1696 C1677 1.368 . S
C1696 C1690 1.368 . S
C1696 C1695 1.523 . S
C1697 C1681 1.429 . S
C1697 C1693 1.429 . S
C1697 C1698 1.523 . S
C1698 C1682 1.368 . S
C1698 C1694 1.368 . S
C1698 C1697 1.523 . S
H1699 C1674 0.950 . S
H1700 C1676 0.950 . S
H1701 C1677 0.949 . S
H1702 C1679 0.950 . S
H1703 C1681 0.950 . S
C1704 C1705 1.349 . S
C1704 C1706 1.327 . S
C1704 H1729 0.950 . S
C1705 C1704 1.349 . S
C1705 C1721 1.349 . S
C1706 C1704 1.327 . S
C1706 C1725 1.429 . S
C1706 H1730 0.950 . S
C1707 C1724 1.574 1_455 S
C1707 C1726 1.368 1_545 S
C1707 H1731 0.949 . S
H1708 C1712 0.949 . S
C1709 C1710 1.349 . S
C1709 C1711 1.327 . S
C1709 H1732 0.950 . S
C1710 C1709 1.349 . S
C1710 C1722 1.349 . S
C1711 C1709 1.327 . S
C1711 C1727 1.429 . S
C1711 H1733 0.950 . S
C1712 H1708 0.949 . S
C1712 C1720 1.574 1_655 S
C1712 C1728 1.368 1_565 S
H1713 C1721 0.950 . S
H1714 C1719 0.950 . S
H1715 C1720 0.949 . S
H1716 C1722 0.950 . S
H1717 C1723 0.950 . S
H1718 C1724 0.949 . S
C1719 H1714 0.950 . S
C1719 C1721 1.327 . S
C1719 C1725 1.429 . S
C1720 C1712 1.574 1_455 S
C1720 H1715 0.949 . S
C1720 C1726 1.368 . S
C1721 C1705 1.349 . S
C1721 H1713 0.950 . S
C1721 C1719 1.327 . S
C1722 C1710 1.349 . S
C1722 H1716 0.950 . S
C1722 C1723 1.327 . S
C1723 H1717 0.950 . S
C1723 C1722 1.327 . S
C1723 C1727 1.429 . S
C1724 C1707 1.574 1_655 S
C1724 H1718 0.949 . S
C1724 C1728 1.368 . S
C1725 C1706 1.429 . S
C1725 C1719 1.429 . S
C1725 C1726 1.523 . S
C1726 C1707 1.368 1_565 S
C1726 C1720 1.368 . S
C1726 C1725 1.523 . S
C1727 C1711 1.429 . S
C1727 C1723 1.429 . S
C1727 C1728 1.523 . S
C1728 C1712 1.368 1_545 S
C1728 C1724 1.368 . S
C1728 C1727 1.523 . S
H1729 C1704 0.950 . S
H1730 C1706 0.950 . S
H1731 C1707 0.949 . S
H1732 C1709 0.950 . S
H1733 C1711 0.950 . S
C1734 C1735 1.349 . S
C1734 C1736 1.327 . S
C1734 H1759 0.950 . S
C1735 C1734 1.349 . S
C1735 C1751 1.349 . S
C1736 C1734 1.327 . S
C1736 C1755 1.429 . S
C1736 H1760 0.950 . S
C1737 C1754 1.574 . S
C1737 C1756 1.368 . S
C1737 H1761 0.949 . S
H1738 C1742 0.949 . S
C1739 C1740 1.349 . S
C1739 C1741 1.327 . S
C1739 H1762 0.950 . S
C1740 C1739 1.349 . S
C1740 C1752 1.349 . S
C1741 C1739 1.327 . S
C1741 C1757 1.429 . S
C1741 H1763 0.950 . S
C1742 H1738 0.949 . S
C1742 C1750 1.574 . S
C1742 C1758 1.368 . S
H1743 C1751 0.950 . S
H1744 C1749 0.950 . S
H1745 C1750 0.949 . S
H1746 C1752 0.950 . S
H1747 C1753 0.950 . S
H1748 C1754 0.949 . S
C1749 H1744 0.950 . S
C1749 C1751 1.327 . S
C1749 C1755 1.429 . S
C1750 C1742 1.574 . S
C1750 H1745 0.949 . S
C1750 C1756 1.368 . S
C1751 C1735 1.349 . S
C1751 H1743 0.950 . S
C1751 C1749 1.327 . S
C1752 C1740 1.349 . S
C1752 H1746 0.950 . S
C1752 C1753 1.327 . S
C1753 H1747 0.950 . S
C1753 C1752 1.327 . S
C1753 C1757 1.429 . S
C1754 C1737 1.574 . S
C1754 H1748 0.949 . S
C1754 C1758 1.368 . S
C1755 C1736 1.429 . S
C1755 C1749 1.429 . S
C1755 C1756 1.523 . S
C1756 C1737 1.368 . S
C1756 C1750 1.368 . S
C1756 C1755 1.523 . S
C1757 C1741 1.429 . S
C1757 C1753 1.429 . S
C1757 C1758 1.523 . S
C1758 C1742 1.368 . S
C1758 C1754 1.368 . S
C1758 C1757 1.523 . S
H1759 C1734 0.950 . S
H1760 C1736 0.950 . S
H1761 C1737 0.949 . S
H1762 C1739 0.950 . S
H1763 C1741 0.950 . S
C1764 C1765 1.349 . S
C1764 C1766 1.327 . S
C1764 H1789 0.950 . S
C1765 C1764 1.349 . S
C1765 C1781 1.349 . S
C1766 C1764 1.327 . S
C1766 C1785 1.429 . S
C1766 H1790 0.950 . S
C1767 C1784 1.574 1_455 S
C1767 C1786 1.368 . S
C1767 H1791 0.949 . S
H1768 C1772 0.949 . S
C1769 C1770 1.349 . S
C1769 C1771 1.327 . S
C1769 H1792 0.950 . S
C1770 C1769 1.349 . S
C1770 C1782 1.349 . S
C1771 C1769 1.327 . S
C1771 C1787 1.429 . S
C1771 H1793 0.950 . S
C1772 H1768 0.949 . S
C1772 C1780 1.574 1_655 S
C1772 C1788 1.368 . S
H1773 C1781 0.950 . S
H1774 C1779 0.950 . S
H1775 C1780 0.949 . S
H1776 C1782 0.950 . S
H1777 C1783 0.950 . S
H1778 C1784 0.949 . S
C1779 H1774 0.950 . S
C1779 C1781 1.327 . S
C1779 C1785 1.429 . S
C1780 C1772 1.574 1_455 S
C1780 H1775 0.949 . S
C1780 C1786 1.368 . S
C1781 C1765 1.349 . S
C1781 H1773 0.950 . S
C1781 C1779 1.327 . S
C1782 C1770 1.349 . S
C1782 H1776 0.950 . S
C1782 C1783 1.327 . S
C1783 H1777 0.950 . S
C1783 C1782 1.327 . S
C1783 C1787 1.429 . S
C1784 C1767 1.574 1_655 S
C1784 H1778 0.949 . S
C1784 C1788 1.368 . S
C1785 C1766 1.429 . S
C1785 C1779 1.429 . S
C1785 C1786 1.523 . S
C1786 C1767 1.368 . S
C1786 C1780 1.368 . S
C1786 C1785 1.523 . S
C1787 C1771 1.429 . S
C1787 C1783 1.429 . S
C1787 C1788 1.523 . S
C1788 C1772 1.368 . S
C1788 C1784 1.368 . S
C1788 C1787 1.523 . S
H1789 C1764 0.950 . S
H1790 C1766 0.950 . S
H1791 C1767 0.949 . S
H1792 C1769 0.950 . S
H1793 C1771 0.950 . S
C1794 C1795 1.349 . S
C1794 C1796 1.327 . S
C1794 H1819 0.950 . S
C1795 C1794 1.349 . S
C1795 C1811 1.349 . S
C1796 C1794 1.327 . S
C1796 C1815 1.429 . S
C1796 H1820 0.950 . S
C1797 C1814 1.574 . S
C1797 C1816 1.368 . S
C1797 H1821 0.949 . S
H1798 C1802 0.949 . S
C1799 C1800 1.349 . S
C1799 C1801 1.327 . S
C1799 H1822 0.950 . S
C1800 C1799 1.349 . S
C1800 C1812 1.349 . S
C1801 C1799 1.327 . S
C1801 C1817 1.429 . S
C1801 H1823 0.950 . S
C1802 H1798 0.949 . S
C1802 C1810 1.574 . S
C1802 C1818 1.368 . S
H1803 C1811 0.950 . S
H1804 C1809 0.950 . S
H1805 C1810 0.949 . S
H1806 C1812 0.950 . S
H1807 C1813 0.950 . S
H1808 C1814 0.949 . S
C1809 H1804 0.950 . S
C1809 C1811 1.327 . S
C1809 C1815 1.429 . S
C1810 C1802 1.574 . S
C1810 H1805 0.949 . S
C1810 C1816 1.368 . S
C1811 C1795 1.349 . S
C1811 H1803 0.950 . S
C1811 C1809 1.327 . S
C1812 C1800 1.349 . S
C1812 H1806 0.950 . S
C1812 C1813 1.327 . S
C1813 H1807 0.950 . S
C1813 C1812 1.327 . S
C1813 C1817 1.429 . S
C1814 C1797 1.574 . S
C1814 H1808 0.949 . S
C1814 C1818 1.368 . S
C1815 C1796 1.429 . S
C1815 C1809 1.429 . S
C1815 C1816 1.523 . S
C1816 C1797 1.368 . S
C1816 C1810 1.368 . S
C1816 C1815 1.523 . S
C1817 C1801 1.429 . S
C1817 C1813 1.429 . S
C1817 C1818 1.523 . S
C1818 C1802 1.368 . S
C1818 C1814 1.368 . S
C1818 C1817 1.523 . S
H1819 C1794 0.950 . S
H1820 C1796 0.950 . S
H1821 C1797 0.949 . S
H1822 C1799 0.950 . S
H1823 C1801 0.950 . S
C1824 C1825 1.349 . S
C1824 C1826 1.327 . S
C1824 H1849 0.950 . S
C1825 C1824 1.349 . S
C1825 C1841 1.349 . S
C1826 C1824 1.327 . S
C1826 C1845 1.429 . S
C1826 H1850 0.950 . S
C1827 C1844 1.574 1_565 S
C1827 C1846 1.368 1_554 S
C1827 H1851 0.949 . S
H1828 C1832 0.949 . S
C1829 C1830 1.349 . S
C1829 C1831 1.327 . S
C1829 H1852 0.950 . S
C1830 C1829 1.349 . S
C1830 C1842 1.349 . S
C1831 C1829 1.327 . S
C1831 C1847 1.429 . S
C1831 H1853 0.950 . S
C1832 H1828 0.949 . S
C1832 C1840 1.574 1_545 S
C1832 C1848 1.368 1_556 S
H1833 C1841 0.950 . S
H1834 C1839 0.950 . S
H1835 C1840 0.949 . S
H1836 C1842 0.950 . S
H1837 C1843 0.950 . S
H1838 C1844 0.949 . S
C1839 H1834 0.950 . S
C1839 C1841 1.327 . S
C1839 C1845 1.429 . S
C1840 C1832 1.574 1_565 S
C1840 H1835 0.949 . S
C1840 C1846 1.368 . S
C1841 C1825 1.349 . S
C1841 H1833 0.950 . S
C1841 C1839 1.327 . S
C1842 C1830 1.349 . S
C1842 H1836 0.950 . S
C1842 C1843 1.327 . S
C1843 H1837 0.950 . S
C1843 C1842 1.327 . S
C1843 C1847 1.429 . S
C1844 C1827 1.574 1_545 S
C1844 H1838 0.949 . S
C1844 C1848 1.368 . S
C1845 C1826 1.429 . S
C1845 C1839 1.429 . S
C1845 C1846 1.523 . S
C1846 C1827 1.368 1_556 S
C1846 C1840 1.368 . S
C1846 C1845 1.523 . S
C1847 C1831 1.429 . S
C1847 C1843 1.429 . S
C1847 C1848 1.523 . S
C1848 C1832 1.368 1_554 S
C1848 C1844 1.368 . S
C1848 C1847 1.523 . S
H1849 C1824 0.950 . S
H1850 C1826 0.950 . S
H1851 C1827 0.949 . S
H1852 C1829 0.950 . S
H1853 C1831 0.950 . S
C1854 C1855 1.349 . S
C1854 C1856 1.327 . S
C1854 H1879 0.950 . S
C1855 C1854 1.349 . S
C1855 C1871 1.349 . S
C1856 C1854 1.327 . S
C1856 C1875 1.429 . S
C1856 H1880 0.950 . S
C1857 C1874 1.574 1_545 S
C1857 C1876 1.368 . S
C1857 H1881 0.949 . S
H1858 C1862 0.949 . S
C1859 C1860 1.349 . S
C1859 C1861 1.327 . S
C1859 H1882 0.950 . S
C1860 C1859 1.349 . S
C1860 C1872 1.349 . S
C1861 C1859 1.327 . S
C1861 C1877 1.429 . S
C1861 H1883 0.950 . S
C1862 H1858 0.949 . S
C1862 C1870 1.574 1_565 S
C1862 C1878 1.368 . S
H1863 C1871 0.950 . S
H1864 C1869 0.950 . S
H1865 C1870 0.949 . S
H1866 C1872 0.950 . S
H1867 C1873 0.950 . S
H1868 C1874 0.949 . S
C1869 H1864 0.950 . S
C1869 C1871 1.327 . S
C1869 C1875 1.429 . S
C1870 C1862 1.574 1_545 S
C1870 H1865 0.949 . S
C1870 C1876 1.368 . S
C1871 C1855 1.349 . S
C1871 H1863 0.950 . S
C1871 C1869 1.327 . S
C1872 C1860 1.349 . S
C1872 H1866 0.950 . S
C1872 C1873 1.327 . S
C1873 H1867 0.950 . S
C1873 C1872 1.327 . S
C1873 C1877 1.429 . S
C1874 C1857 1.574 1_565 S
C1874 H1868 0.949 . S
C1874 C1878 1.368 . S
C1875 C1856 1.429 . S
C1875 C1869 1.429 . S
C1875 C1876 1.523 . S
C1876 C1857 1.368 . S
C1876 C1870 1.368 . S
C1876 C1875 1.523 . S
C1877 C1861 1.429 . S
C1877 C1873 1.429 . S
C1877 C1878 1.523 . S
C1878 C1862 1.368 . S
C1878 C1874 1.368 . S
C1878 C1877 1.523 . S
H1879 C1854 0.950 . S
H1880 C1856 0.950 . S
H1881 C1857 0.949 . S
H1882 C1859 0.950 . S
H1883 C1861 0.950 . S
C1884 C1885 1.349 . S
C1884 C1886 1.327 . S
C1884 H1909 0.950 . S
C1885 C1884 1.349 . S
C1885 C1901 1.349 . S
C1886 C1884 1.327 . S
C1886 C1905 1.429 . S
C1886 H1910 0.950 . S
C1887 C1904 1.574 . S
C1887 C1906 1.368 . S
C1887 H1911 0.949 . S
H1888 C1892 0.949 . S
C1889 C1890 1.349 . S
C1889 C1891 1.327 . S
C1889 H1912 0.950 . S
C1890 C1889 1.349 . S
C1890 C1902 1.349 . S
C1891 C1889 1.327 . S
C1891 C1907 1.429 . S
C1891 H1913 0.950 . S
C1892 H1888 0.949 . S
C1892 C1900 1.574 . S
C1892 C1908 1.368 . S
H1893 C1901 0.950 . S
H1894 C1899 0.950 . S
H1895 C1900 0.949 . S
H1896 C1902 0.950 . S
H1897 C1903 0.950 . S
H1898 C1904 0.949 . S
C1899 H1894 0.950 . S
C1899 C1901 1.327 . S
C1899 C1905 1.429 . S
C1900 C1892 1.574 . S
C1900 H1895 0.949 . S
C1900 C1906 1.368 . S
C1901 C1885 1.349 . S
C1901 H1893 0.950 . S
C1901 C1899 1.327 . S
C1902 C1890 1.349 . S
C1902 H1896 0.950 . S
C1902 C1903 1.327 . S
C1903 H1897 0.950 . S
C1903 C1902 1.327 . S
C1903 C1907 1.429 . S
C1904 C1887 1.574 . S
C1904 H1898 0.949 . S
C1904 C1908 1.368 . S
C1905 C1886 1.429 . S
C1905 C1899 1.429 . S
C1905 C1906 1.523 . S
C1906 C1887 1.368 . S
C1906 C1900 1.368 . S
C1906 C1905 1.523 . S
C1907 C1891 1.429 . S
C1907 C1903 1.429 . S
C1907 C1908 1.523 . S
C1908 C1892 1.368 . S
C1908 C1904 1.368 . S
C1908 C1907 1.523 . S
H1909 C1884 0.950 . S
H1910 C1886 0.950 . S
H1911 C1887 0.949 . S
H1912 C1889 0.950 . S
H1913 C1891 0.950 . S
C1914 C1915 1.349 . S
C1914 C1916 1.327 . S
C1914 H1939 0.950 . S
C1915 C1914 1.349 . S
C1915 C1931 1.349 . S
C1916 C1914 1.327 . S
C1916 C1935 1.429 . S
C1916 H1940 0.950 . S
C1917 C1934 1.574 . S
C1917 C1936 1.368 . S
C1917 H1941 0.949 . S
H1918 C1922 0.949 . S
C1919 C1920 1.349 . S
C1919 C1921 1.327 . S
C1919 H1942 0.950 . S
C1920 C1919 1.349 . S
C1920 C1932 1.349 . S
C1921 C1919 1.327 . S
C1921 C1937 1.429 . S
C1921 H1943 0.950 . S
C1922 H1918 0.949 . S
C1922 C1930 1.574 . S
C1922 C1938 1.368 . S
H1923 C1931 0.950 . S
H1924 C1929 0.950 . S
H1925 C1930 0.949 . S
H1926 C1932 0.950 . S
H1927 C1933 0.950 . S
H1928 C1934 0.949 . S
C1929 H1924 0.950 . S
C1929 C1931 1.327 . S
C1929 C1935 1.429 . S
C1930 C1922 1.574 . S
C1930 H1925 0.949 . S
C1930 C1936 1.368 1_556 S
C1931 C1915 1.349 . S
C1931 H1923 0.950 . S
C1931 C1929 1.327 . S
C1932 C1920 1.349 . S
C1932 H1926 0.950 . S
C1932 C1933 1.327 . S
C1933 H1927 0.950 . S
C1933 C1932 1.327 . S
C1933 C1937 1.429 . S
C1934 C1917 1.574 . S
C1934 H1928 0.949 . S
C1934 C1938 1.368 1_554 S
C1935 C1916 1.429 . S
C1935 C1929 1.429 . S
C1935 C1936 1.523 . S
C1936 C1917 1.368 . S
C1936 C1930 1.368 1_554 S
C1936 C1935 1.523 . S
C1937 C1921 1.429 . S
C1937 C1933 1.429 . S
C1937 C1938 1.523 . S
C1938 C1922 1.368 . S
C1938 C1934 1.368 1_556 S
C1938 C1937 1.523 . S
H1939 C1914 0.950 . S
H1940 C1916 0.950 . S
H1941 C1917 0.949 . S
H1942 C1919 0.950 . S
H1943 C1921 0.950 . S
C1944 C1945 1.349 . S
C1944 C1946 1.327 . S
C1944 H1969 0.950 . S
C1945 C1944 1.349 . S
C1945 C1961 1.349 . S
C1946 C1944 1.327 . S
C1946 C1965 1.429 . S
C1946 H1970 0.950 . S
C1947 C1964 1.574 . S
C1947 C1966 1.368 . S
C1947 H1971 0.949 . S
H1948 C1952 0.949 . S
C1949 C1950 1.349 . S
C1949 C1951 1.327 . S
C1949 H1972 0.950 . S
C1950 C1949 1.349 . S
C1950 C1962 1.349 . S
C1951 C1949 1.327 . S
C1951 C1967 1.429 . S
C1951 H1973 0.950 . S
C1952 H1948 0.949 . S
C1952 C1960 1.574 . S
C1952 C1968 1.368 . S
H1953 C1961 0.950 . S
H1954 C1959 0.950 . S
H1955 C1960 0.949 . S
H1956 C1962 0.950 . S
H1957 C1963 0.950 . S
H1958 C1964 0.949 . S
C1959 H1954 0.950 . S
C1959 C1961 1.327 . S
C1959 C1965 1.429 . S
C1960 C1952 1.574 . S
C1960 H1955 0.949 . S
C1960 C1966 1.368 . S
C1961 C1945 1.349 . S
C1961 H1953 0.950 . S
C1961 C1959 1.327 . S
C1962 C1950 1.349 . S
C1962 H1956 0.950 . S
C1962 C1963 1.327 . S
C1963 H1957 0.950 . S
C1963 C1962 1.327 . S
C1963 C1967 1.429 . S
C1964 C1947 1.574 . S
C1964 H1958 0.949 . S
C1964 C1968 1.368 . S
C1965 C1946 1.429 . S
C1965 C1959 1.429 . S
C1965 C1966 1.523 . S
C1966 C1947 1.368 . S
C1966 C1960 1.368 . S
C1966 C1965 1.523 . S
C1967 C1951 1.429 . S
C1967 C1963 1.429 . S
C1967 C1968 1.523 . S
C1968 C1952 1.368 . S
C1968 C1964 1.368 . S
C1968 C1967 1.523 . S
H1969 C1944 0.950 . S
H1970 C1946 0.950 . S
H1971 C1947 0.949 . S
H1972 C1949 0.950 . S
H1973 C1951 0.950 . S
C1974 C1975 1.349 . S
C1974 C1976 1.327 . S
C1974 H1999 0.950 . S
C1975 C1974 1.349 . S
C1975 C1991 1.349 . S
C1976 C1974 1.327 . S
C1976 C1995 1.429 . S
C1976 H2000 1.009 . S
C1977 C1994 1.514 1_565 S
C1977 C1996 1.422 . S
C1977 H2001 0.957 . S
H1978 C1982 0.957 . S
C1979 C1980 1.349 . S
C1979 C1981 1.327 . S
C1979 H2002 0.950 . S
C1980 C1979 1.349 . S
C1980 C1992 1.349 . S
C1981 C1979 1.327 . S
C1981 C1997 1.429 . S
C1981 H2003 1.009 . S
C1982 H1978 0.957 . S
C1982 C1990 1.514 1_545 S
C1982 C1998 1.422 . S
H1983 C1991 0.950 . S
H1984 C1989 0.950 . S
H1985 C1990 0.949 . S
H1986 C1992 0.950 . S
H1987 C1993 0.950 . S
H1988 C1994 0.949 . S
C1989 H1984 0.950 . S
C1989 C1991 1.327 . S
C1989 C1995 1.429 . S
C1990 C1982 1.514 1_565 S
C1990 H1985 0.949 . S
C1990 C1996 1.368 1_556 S
C1991 C1975 1.349 . S
C1991 H1983 0.950 . S
C1991 C1989 1.327 . S
C1992 C1980 1.349 . S
C1992 H1986 0.950 . S
C1992 C1993 1.327 . S
C1993 H1987 0.950 . S
C1993 C1992 1.327 . S
C1993 C1997 1.429 . S
C1994 C1977 1.514 1_545 S
C1994 H1988 0.949 . S
C1994 C1998 1.368 1_554 S
C1995 C1976 1.429 . S
C1995 C1989 1.429 . S
C1995 C1996 1.523 . S
C1996 C1977 1.422 . S
C1996 C1990 1.368 1_554 S
C1996 C1995 1.523 . S
C1997 C1981 1.429 . S
C1997 C1993 1.429 . S
C1997 C1998 1.523 . S
C1998 C1982 1.422 . S
C1998 C1994 1.368 1_556 S
C1998 C1997 1.523 . S
H1999 C1974 0.950 . S
H2000 C1976 1.009 . S
H2001 C1977 0.957 . S
H2002 C1979 0.950 . S
H2003 C1981 1.009 . S
C2004 C2005 1.349 . S
C2004 C2006 1.327 . S
C2004 H2029 0.950 . S
C2005 C2004 1.349 . S
C2005 C2021 1.349 . S
C2006 C2004 1.327 . S
C2006 C2025 1.429 . S
C2006 H2030 0.950 . S
C2007 C2024 1.574 . S
C2007 C2026 1.368 . S
C2007 H2031 0.949 . S
H2008 C2012 0.949 . S
C2009 C2010 1.349 . S
C2009 C2011 1.327 . S
C2009 H2032 0.950 . S
C2010 C2009 1.349 . S
C2010 C2022 1.349 . S
C2011 C2009 1.327 . S
C2011 C2027 1.429 . S
C2011 H2033 0.950 . S
C2012 H2008 0.949 . S
C2012 C2020 1.574 . S
C2012 C2028 1.368 . S
H2013 C2021 0.950 . S
H2014 C2019 0.950 . S
H2015 C2020 0.949 . S
H2016 C2022 0.950 . S
H2017 C2023 0.950 . S
H2018 C2024 0.949 . S
C2019 H2014 0.950 . S
C2019 C2021 1.327 . S
C2019 C2025 1.429 . S
C2020 C2012 1.574 . S
C2020 H2015 0.949 . S
C2020 C2026 1.368 . S
C2021 C2005 1.349 . S
C2021 H2013 0.950 . S
C2021 C2019 1.327 . S
C2022 C2010 1.349 . S
C2022 H2016 0.950 . S
C2022 C2023 1.327 . S
C2023 H2017 0.950 . S
C2023 C2022 1.327 . S
C2023 C2027 1.429 . S
C2024 C2007 1.574 . S
C2024 H2018 0.949 . S
C2024 C2028 1.368 . S
C2025 C2006 1.429 . S
C2025 C2019 1.429 . S
C2025 C2026 1.523 . S
C2026 C2007 1.368 . S
C2026 C2020 1.368 . S
C2026 C2025 1.523 . S
C2027 C2011 1.429 . S
C2027 C2023 1.429 . S
C2027 C2028 1.523 . S
C2028 C2012 1.368 . S
C2028 C2024 1.368 . S
C2028 C2027 1.523 . S
H2029 C2004 0.950 . S
H2030 C2006 0.950 . S
H2031 C2007 0.949 . S
H2032 C2009 0.950 . S
H2033 C2011 0.950 . S
C2034 C2035 1.349 . S
C2034 C2036 1.327 . S
C2034 H2059 0.950 . S
C2035 C2034 1.349 . S
C2035 C2051 1.349 . S
C2036 C2034 1.327 . S
C2036 C2055 1.429 . S
C2036 H2060 0.950 . S
C2037 C2054 1.574 . S
C2037 C2056 1.368 . S
C2037 H2061 0.949 . S
H2038 C2042 0.949 . S
C2039 C2040 1.349 . S
C2039 C2041 1.327 . S
C2039 H2062 0.950 . S
C2040 C2039 1.349 . S
C2040 C2052 1.349 . S
C2041 C2039 1.327 . S
C2041 C2057 1.429 . S
C2041 H2063 0.950 . S
C2042 H2038 0.949 . S
C2042 C2050 1.574 . S
C2042 C2058 1.368 . S
H2043 C2051 0.950 . S
H2044 C2049 0.950 . S
H2045 C2050 0.949 . S
H2046 C2052 0.950 . S
H2047 C2053 0.950 . S
H2048 C2054 0.949 . S
C2049 H2044 0.950 . S
C2049 C2051 1.327 . S
C2049 C2055 1.429 . S
C2050 C2042 1.574 . S
C2050 H2045 0.949 . S
C2050 C2056 1.368 . S
C2051 C2035 1.349 . S
C2051 H2043 0.950 . S
C2051 C2049 1.327 . S
C2052 C2040 1.349 . S
C2052 H2046 0.950 . S
C2052 C2053 1.327 . S
C2053 H2047 0.950 . S
C2053 C2052 1.327 . S
C2053 C2057 1.429 . S
C2054 C2037 1.574 . S
C2054 H2048 0.949 . S
C2054 C2058 1.368 . S
C2055 C2036 1.429 . S
C2055 C2049 1.429 . S
C2055 C2056 1.523 . S
C2056 C2037 1.368 . S
C2056 C2050 1.368 . S
C2056 C2055 1.523 . S
C2057 C2041 1.429 . S
C2057 C2053 1.429 . S
C2057 C2058 1.523 . S
C2058 C2042 1.368 . S
C2058 C2054 1.368 . S
C2058 C2057 1.523 . S
H2059 C2034 0.950 . S
H2060 C2036 0.950 . S
H2061 C2037 0.949 . S
H2062 C2039 0.950 . S
H2063 C2041 0.950 . S
C2064 C2065 1.349 . S
C2064 C2066 1.327 . S
C2064 H2089 0.950 . S
C2065 C2064 1.349 . S
C2065 C2081 1.349 . S
C2066 C2064 1.327 . S
C2066 C2085 1.429 . S
C2066 H2090 0.950 . S
C2067 C2084 1.574 . S
C2067 C2086 1.368 . S
C2067 H2091 0.949 . S
H2068 C2072 0.949 . S
C2069 C2070 1.349 . S
C2069 C2071 1.327 . S
C2069 H2092 0.950 . S
C2070 C2069 1.349 . S
C2070 C2082 1.349 . S
C2071 C2069 1.327 . S
C2071 C2087 1.429 . S
C2071 H2093 0.950 . S
C2072 H2068 0.949 . S
C2072 C2080 1.574 . S
C2072 C2088 1.368 . S
H2073 C2081 0.950 . S
H2074 C2079 0.950 . S
H2075 C2080 0.949 . S
H2076 C2082 0.950 . S
H2077 C2083 0.950 . S
H2078 C2084 0.949 . S
C2079 H2074 0.950 . S
C2079 C2081 1.327 . S
C2079 C2085 1.429 . S
C2080 C2072 1.574 . S
C2080 H2075 0.949 . S
C2080 C2086 1.368 . S
C2081 C2065 1.349 . S
C2081 H2073 0.950 . S
C2081 C2079 1.327 . S
C2082 C2070 1.349 . S
C2082 H2076 0.950 . S
C2082 C2083 1.327 . S
C2083 H2077 0.950 . S
C2083 C2082 1.327 . S
C2083 C2087 1.429 . S
C2084 C2067 1.574 . S
C2084 H2078 0.949 . S
C2084 C2088 1.368 . S
C2085 C2066 1.429 . S
C2085 C2079 1.429 . S
C2085 C2086 1.523 . S
C2086 C2067 1.368 . S
C2086 C2080 1.368 . S
C2086 C2085 1.523 . S
C2087 C2071 1.429 . S
C2087 C2083 1.429 . S
C2087 C2088 1.523 . S
C2088 C2072 1.368 . S
C2088 C2084 1.368 . S
C2088 C2087 1.523 . S
H2089 C2064 0.950 . S
H2090 C2066 0.950 . S
H2091 C2067 0.949 . S
H2092 C2069 0.950 . S
H2093 C2071 0.950 . S
C2094 C2095 1.349 . S
C2094 C2096 1.327 . S
C2094 H2119 0.950 . S
C2095 C2094 1.349 . S
C2095 C2111 1.349 . S
C2096 C2094 1.327 . S
C2096 C2115 1.429 . S
C2096 H2120 0.950 . S
C2097 C2114 1.574 . S
C2097 C2116 1.368 . S
C2097 H2121 0.949 . S
H2098 C2102 0.949 . S
C2099 C2100 1.349 . S
C2099 C2101 1.327 . S
C2099 H2122 0.950 . S
C2100 C2099 1.349 . S
C2100 C2112 1.349 . S
C2101 C2099 1.327 . S
C2101 C2117 1.429 . S
C2101 H2123 0.950 . S
C2102 H2098 0.949 . S
C2102 C2110 1.574 . S
C2102 C2118 1.368 . S
H2103 C2111 0.950 . S
H2104 C2109 0.950 . S
H2105 C2110 0.949 . S
H2106 C2112 0.950 . S
H2107 C2113 0.950 . S
H2108 C2114 0.949 . S
C2109 H2104 0.950 . S
C2109 C2111 1.327 . S
C2109 C2115 1.429 . S
C2110 C2102 1.574 . S
C2110 H2105 0.949 . S
C2110 C2116 1.368 . S
C2111 C2095 1.349 . S
C2111 H2103 0.950 . S
C2111 C2109 1.327 . S
C2112 C2100 1.349 . S
C2112 H2106 0.950 . S
C2112 C2113 1.327 . S
C2113 H2107 0.950 . S
C2113 C2112 1.327 . S
C2113 C2117 1.429 . S
C2114 C2097 1.574 . S
C2114 H2108 0.949 . S
C2114 C2118 1.368 . S
C2115 C2096 1.429 . S
C2115 C2109 1.429 . S
C2115 C2116 1.523 . S
C2116 C2097 1.368 . S
C2116 C2110 1.368 . S
C2116 C2115 1.523 . S
C2117 C2101 1.429 . S
C2117 C2113 1.429 . S
C2117 C2118 1.523 . S
C2118 C2102 1.368 . S
C2118 C2114 1.368 . S
C2118 C2117 1.523 . S
H2119 C2094 0.950 . S
H2120 C2096 0.950 . S
H2121 C2097 0.949 . S
H2122 C2099 0.950 . S
H2123 C2101 0.950 . S
C2124 C2125 1.349 . S
C2124 C2126 1.327 . S
C2124 H2149 0.950 . S
C2125 C2124 1.349 . S
C2125 C2141 1.349 . S
C2126 C2124 1.327 . S
C2126 C2145 1.429 . S
C2126 H2150 0.950 . S
C2127 C2144 1.574 . S
C2127 C2146 1.368 . S
C2127 H2151 0.949 . S
H2128 C2132 0.949 . S
C2129 C2130 1.349 . S
C2129 C2131 1.327 . S
C2129 H2152 0.950 . S
C2130 C2129 1.349 . S
C2130 C2142 1.349 . S
C2131 C2129 1.327 . S
C2131 C2147 1.429 . S
C2131 H2153 0.950 . S
C2132 H2128 0.949 . S
C2132 C2140 1.574 . S
C2132 C2148 1.368 . S
H2133 C2141 0.950 . S
H2134 C2139 0.950 . S
H2135 C2140 0.949 . S
H2136 C2142 0.950 . S
H2137 C2143 0.950 . S
H2138 C2144 0.949 . S
C2139 H2134 0.950 . S
C2139 C2141 1.327 . S
C2139 C2145 1.429 . S
C2140 C2132 1.574 . S
C2140 H2135 0.949 . S
C2140 C2146 1.368 . S
C2141 C2125 1.349 . S
C2141 H2133 0.950 . S
C2141 C2139 1.327 . S
C2142 C2130 1.349 . S
C2142 H2136 0.950 . S
C2142 C2143 1.327 . S
C2143 H2137 0.950 . S
C2143 C2142 1.327 . S
C2143 C2147 1.429 . S
C2144 C2127 1.574 . S
C2144 H2138 0.949 . S
C2144 C2148 1.368 . S
C2145 C2126 1.429 . S
C2145 C2139 1.429 . S
C2145 C2146 1.523 . S
C2146 C2127 1.368 . S
C2146 C2140 1.368 . S
C2146 C2145 1.523 . S
C2147 C2131 1.429 . S
C2147 C2143 1.429 . S
C2147 C2148 1.523 . S
C2148 C2132 1.368 . S
C2148 C2144 1.368 . S
C2148 C2147 1.523 . S
H2149 C2124 0.950 . S
H2150 C2126 0.950 . S
H2151 C2127 0.949 . S
H2152 C2129 0.950 . S
H2153 C2131 0.950 . S
C2154 C2155 1.349 . S
C2154 C2156 1.327 . S
C2154 H2179 0.950 . S
C2155 C2154 1.349 . S
C2155 C2171 1.349 . S
C2156 C2154 1.327 . S
C2156 C2175 1.429 . S
C2156 H2180 0.950 . S
C2157 C2174 1.574 . S
C2157 C2176 1.368 . S
C2157 H2181 0.949 . S
H2158 C2162 0.949 . S
C2159 C2160 1.349 . S
C2159 C2161 1.327 . S
C2159 H2182 0.950 . S
C2160 C2159 1.349 . S
C2160 C2172 1.349 . S
C2161 C2159 1.327 . S
C2161 C2177 1.429 . S
C2161 H2183 0.950 . S
C2162 H2158 0.949 . S
C2162 C2170 1.574 . S
C2162 C2178 1.368 . S
H2163 C2171 0.950 . S
H2164 C2169 0.950 . S
H2165 C2170 0.949 . S
H2166 C2172 0.950 . S
H2167 C2173 0.950 . S
H2168 C2174 0.949 . S
C2169 H2164 0.950 . S
C2169 C2171 1.327 . S
C2169 C2175 1.429 . S
C2170 C2162 1.574 . S
C2170 H2165 0.949 . S
C2170 C2176 1.368 . S
C2171 C2155 1.349 . S
C2171 H2163 0.950 . S
C2171 C2169 1.327 . S
C2172 C2160 1.349 . S
C2172 H2166 0.950 . S
C2172 C2173 1.327 . S
C2173 H2167 0.950 . S
C2173 C2172 1.327 . S
C2173 C2177 1.429 . S
C2174 C2157 1.574 . S
C2174 H2168 0.949 . S
C2174 C2178 1.368 . S
C2175 C2156 1.429 . S
C2175 C2169 1.429 . S
C2175 C2176 1.523 . S
C2176 C2157 1.368 . S
C2176 C2170 1.368 . S
C2176 C2175 1.523 . S
C2177 C2161 1.429 . S
C2177 C2173 1.429 . S
C2177 C2178 1.523 . S
C2178 C2162 1.368 . S
C2178 C2174 1.368 . S
C2178 C2177 1.523 . S
H2179 C2154 0.950 . S
H2180 C2156 0.950 . S
H2181 C2157 0.949 . S
H2182 C2159 0.950 . S
H2183 C2161 0.950 . S
C2184 C2185 1.349 . S
C2184 C2186 1.327 . S
C2184 H2209 0.950 . S
C2185 C2184 1.349 . S
C2185 C2201 1.349 . S
C2186 C2184 1.327 . S
C2186 C2205 1.429 . S
C2186 H2210 0.950 . S
C2187 C2204 1.574 . S
C2187 C2206 1.368 . S
C2187 H2211 0.949 . S
H2188 C2192 0.949 . S
C2189 C2190 1.349 . S
C2189 C2191 1.327 . S
C2189 H2212 0.950 . S
C2190 C2189 1.349 . S
C2190 C2202 1.349 . S
C2191 C2189 1.327 . S
C2191 C2207 1.429 . S
C2191 H2213 0.950 . S
C2192 H2188 0.949 . S
C2192 C2200 1.574 . S
C2192 C2208 1.368 . S
H2193 C2201 0.950 . S
H2194 C2199 0.950 . S
H2195 C2200 0.949 . S
H2196 C2202 0.950 . S
H2197 C2203 0.950 . S
H2198 C2204 0.949 . S
C2199 H2194 0.950 . S
C2199 C2201 1.327 . S
C2199 C2205 1.429 . S
C2200 C2192 1.574 . S
C2200 H2195 0.949 . S
C2200 C2206 1.368 . S
C2201 C2185 1.349 . S
C2201 H2193 0.950 . S
C2201 C2199 1.327 . S
C2202 C2190 1.349 . S
C2202 H2196 0.950 . S
C2202 C2203 1.327 . S
C2203 H2197 0.950 . S
C2203 C2202 1.327 . S
C2203 C2207 1.429 . S
C2204 C2187 1.574 . S
C2204 H2198 0.949 . S
C2204 C2208 1.368 . S
C2205 C2186 1.429 . S
C2205 C2199 1.429 . S
C2205 C2206 1.523 . S
C2206 C2187 1.368 . S
C2206 C2200 1.368 . S
C2206 C2205 1.523 . S
C2207 C2191 1.429 . S
C2207 C2203 1.429 . S
C2207 C2208 1.523 . S
C2208 C2192 1.368 . S
C2208 C2204 1.368 . S
C2208 C2207 1.523 . S
H2209 C2184 0.950 . S
H2210 C2186 0.950 . S
H2211 C2187 0.949 . S
H2212 C2189 0.950 . S
H2213 C2191 0.950 . S
C2214 C2215 1.349 . S
C2214 C2216 1.327 . S
C2214 H2239 0.950 . S
C2215 C2214 1.349 . S
C2215 C2231 1.349 . S
C2216 C2214 1.327 . S
C2216 C2235 1.429 . S
C2216 H2240 0.950 . S
C2217 C2234 1.574 . S
C2217 C2236 1.368 . S
C2217 H2241 0.949 . S
H2218 C2222 0.949 . S
C2219 C2220 1.349 . S
C2219 C2221 1.327 . S
C2219 H2242 0.950 . S
C2220 C2219 1.349 . S
C2220 C2232 1.349 . S
C2221 C2219 1.327 . S
C2221 C2237 1.429 . S
C2221 H2243 0.950 . S
C2222 H2218 0.949 . S
C2222 C2230 1.574 . S
C2222 C2238 1.368 . S
H2223 C2231 0.950 . S
H2224 C2229 0.950 . S
H2225 C2230 0.949 . S
H2226 C2232 0.950 . S
H2227 C2233 0.950 . S
H2228 C2234 0.949 . S
C2229 H2224 0.950 . S
C2229 C2231 1.327 . S
C2229 C2235 1.429 . S
C2230 C2222 1.574 . S
C2230 H2225 0.949 . S
C2230 C2236 1.368 . S
C2231 C2215 1.349 . S
C2231 H2223 0.950 . S
C2231 C2229 1.327 . S
C2232 C2220 1.349 . S
C2232 H2226 0.950 . S
C2232 C2233 1.327 . S
C2233 H2227 0.950 . S
C2233 C2232 1.327 . S
C2233 C2237 1.429 . S
C2234 C2217 1.574 . S
C2234 H2228 0.949 . S
C2234 C2238 1.368 . S
C2235 C2216 1.429 . S
C2235 C2229 1.429 . S
C2235 C2236 1.523 . S
C2236 C2217 1.368 . S
C2236 C2230 1.368 . S
C2236 C2235 1.523 . S
C2237 C2221 1.429 . S
C2237 C2233 1.429 . S
C2237 C2238 1.523 . S
C2238 C2222 1.368 . S
C2238 C2234 1.368 . S
C2238 C2237 1.523 . S
H2239 C2214 0.950 . S
H2240 C2216 0.950 . S
H2241 C2217 0.949 . S
H2242 C2219 0.950 . S
H2243 C2221 0.950 . S
C2244 C2245 1.349 . S
C2244 C2246 1.327 . S
C2244 H2269 0.950 . S
C2245 C2244 1.349 . S
C2245 C2261 1.349 . S
C2246 C2244 1.327 . S
C2246 C2265 1.429 . S
C2246 H2270 0.950 . S
C2247 C2264 1.574 . S
C2247 C2266 1.368 . S
C2247 H2271 0.949 . S
H2248 C2252 0.949 . S
C2249 C2250 1.349 . S
C2249 C2251 1.327 . S
C2249 H2272 0.950 . S
C2250 C2249 1.349 . S
C2250 C2262 1.349 . S
C2251 C2249 1.327 . S
C2251 C2267 1.429 . S
C2251 H2273 0.950 . S
C2252 H2248 0.949 . S
C2252 C2260 1.574 . S
C2252 C2268 1.368 . S
H2253 C2261 0.950 . S
H2254 C2259 0.950 . S
H2255 C2260 0.949 . S
H2256 C2262 0.950 . S
H2257 C2263 0.950 . S
H2258 C2264 0.949 . S
C2259 H2254 0.950 . S
C2259 C2261 1.327 . S
C2259 C2265 1.429 . S
C2260 C2252 1.574 . S
C2260 H2255 0.949 . S
C2260 C2266 1.368 . S
C2261 C2245 1.349 . S
C2261 H2253 0.950 . S
C2261 C2259 1.327 . S
C2262 C2250 1.349 . S
C2262 H2256 0.950 . S
C2262 C2263 1.327 . S
C2263 H2257 0.950 . S
C2263 C2262 1.327 . S
C2263 C2267 1.429 . S
C2264 C2247 1.574 . S
C2264 H2258 0.949 . S
C2264 C2268 1.368 . S
C2265 C2246 1.429 . S
C2265 C2259 1.429 . S
C2265 C2266 1.523 . S
C2266 C2247 1.368 . S
C2266 C2260 1.368 . S
C2266 C2265 1.523 . S
C2267 C2251 1.429 . S
C2267 C2263 1.429 . S
C2267 C2268 1.523 . S
C2268 C2252 1.368 . S
C2268 C2264 1.368 . S
C2268 C2267 1.523 . S
H2269 C2244 0.950 . S
H2270 C2246 0.950 . S
H2271 C2247 0.949 . S
H2272 C2249 0.950 . S
H2273 C2251 0.950 . S
C2274 C2275 1.349 . S
C2274 C2276 1.327 . S
C2274 H2299 0.950 . S
C2275 C2274 1.349 . S
C2275 C2291 1.349 . S
C2276 C2274 1.327 . S
C2276 C2295 1.429 . S
C2276 H2300 0.950 . S
C2277 C2294 1.574 . S
C2277 C2296 1.368 . S
C2277 H2301 0.949 . S
H2278 C2282 0.949 . S
C2279 C2280 1.349 . S
C2279 C2281 1.327 . S
C2279 H2302 0.950 . S
C2280 C2279 1.349 . S
C2280 C2292 1.349 . S
C2281 C2279 1.327 . S
C2281 C2297 1.429 . S
C2281 H2303 0.950 . S
C2282 H2278 0.949 . S
C2282 C2290 1.574 . S
C2282 C2298 1.368 . S
H2283 C2291 0.950 . S
H2284 C2289 0.950 . S
H2285 C2290 0.949 . S
H2286 C2292 0.950 . S
H2287 C2293 0.950 . S
H2288 C2294 0.949 . S
C2289 H2284 0.950 . S
C2289 C2291 1.327 . S
C2289 C2295 1.429 . S
C2290 C2282 1.574 . S
C2290 H2285 0.949 . S
C2290 C2296 1.368 . S
C2291 C2275 1.349 . S
C2291 H2283 0.950 . S
C2291 C2289 1.327 . S
C2292 C2280 1.349 . S
C2292 H2286 0.950 . S
C2292 C2293 1.327 . S
C2293 H2287 0.950 . S
C2293 C2292 1.327 . S
C2293 C2297 1.429 . S
C2294 C2277 1.574 . S
C2294 H2288 0.949 . S
C2294 C2298 1.368 . S
C2295 C2276 1.429 . S
C2295 C2289 1.429 . S
C2295 C2296 1.523 . S
C2296 C2277 1.368 . S
C2296 C2290 1.368 . S
C2296 C2295 1.523 . S
C2297 C2281 1.429 . S
C2297 C2293 1.429 . S
C2297 C2298 1.523 . S
C2298 C2282 1.368 . S
C2298 C2294 1.368 . S
C2298 C2297 1.523 . S
H2299 C2274 0.950 . S
H2300 C2276 0.950 . S
H2301 C2277 0.949 . S
H2302 C2279 0.950 . S
H2303 C2281 0.950 . S
C2304 C2305 1.349 . S
C2304 C2306 1.327 . S
C2304 H2329 0.950 . S
C2305 C2304 1.349 . S
C2305 C2321 1.349 . S
C2306 C2304 1.327 . S
C2306 C2325 1.429 . S
C2306 H2330 0.950 . S
C2307 C2324 1.574 . S
C2307 C2326 1.368 . S
C2307 H2331 0.949 . S
H2308 C2312 0.949 . S
C2309 C2310 1.349 . S
C2309 C2311 1.327 . S
C2309 H2332 0.950 . S
C2310 C2309 1.349 . S
C2310 C2322 1.349 . S
C2311 C2309 1.327 . S
C2311 C2327 1.429 . S
C2311 H2333 0.950 . S
C2312 H2308 0.949 . S
C2312 C2320 1.574 . S
C2312 C2328 1.368 . S
H2313 C2321 0.950 . S
H2314 C2319 0.950 . S
H2315 C2320 0.949 . S
H2316 C2322 0.950 . S
H2317 C2323 0.950 . S
H2318 C2324 0.949 . S
C2319 H2314 0.950 . S
C2319 C2321 1.327 . S
C2319 C2325 1.429 . S
C2320 C2312 1.574 . S
C2320 H2315 0.949 . S
C2320 C2326 1.368 . S
C2321 C2305 1.349 . S
C2321 H2313 0.950 . S
C2321 C2319 1.327 . S
C2322 C2310 1.349 . S
C2322 H2316 0.950 . S
C2322 C2323 1.327 . S
C2323 H2317 0.950 . S
C2323 C2322 1.327 . S
C2323 C2327 1.429 . S
C2324 C2307 1.574 . S
C2324 H2318 0.949 . S
C2324 C2328 1.368 . S
C2325 C2306 1.429 . S
C2325 C2319 1.429 . S
C2325 C2326 1.523 . S
C2326 C2307 1.368 . S
C2326 C2320 1.368 . S
C2326 C2325 1.523 . S
C2327 C2311 1.429 . S
C2327 C2323 1.429 . S
C2327 C2328 1.523 . S
C2328 C2312 1.368 . S
C2328 C2324 1.368 . S
C2328 C2327 1.523 . S
H2329 C2304 0.950 . S
H2330 C2306 0.950 . S
H2331 C2307 0.949 . S
H2332 C2309 0.950 . S
H2333 C2311 0.950 . S
C2334 C2335 1.349 . S
C2334 C2336 1.327 . S
C2334 H2359 0.950 . S
C2335 C2334 1.349 . S
C2335 C2351 1.349 . S
C2336 C2334 1.327 . S
C2336 C2355 1.429 . S
C2336 H2360 0.950 . S
C2337 C2354 1.574 . S
C2337 C2356 1.368 . S
C2337 H2361 0.949 . S
H2338 C2342 0.949 . S
C2339 C2340 1.349 . S
C2339 C2341 1.327 . S
C2339 H2362 0.950 . S
C2340 C2339 1.349 . S
C2340 C2352 1.349 . S
C2341 C2339 1.327 . S
C2341 C2357 1.429 . S
C2341 H2363 0.950 . S
C2342 H2338 0.949 . S
C2342 C2350 1.574 . S
C2342 C2358 1.368 . S
H2343 C2351 0.950 . S
H2344 C2349 0.950 . S
H2345 C2350 0.949 . S
H2346 C2352 0.950 . S
H2347 C2353 0.950 . S
H2348 C2354 0.949 . S
C2349 H2344 0.950 . S
C2349 C2351 1.327 . S
C2349 C2355 1.429 . S
C2350 C2342 1.574 . S
C2350 H2345 0.949 . S
C2350 C2356 1.368 1_554 S
C2351 C2335 1.349 . S
C2351 H2343 0.950 . S
C2351 C2349 1.327 . S
C2352 C2340 1.349 . S
C2352 H2346 0.950 . S
C2352 C2353 1.327 . S
C2353 H2347 0.950 . S
C2353 C2352 1.327 . S
C2353 C2357 1.429 . S
C2354 C2337 1.574 . S
C2354 H2348 0.949 . S
C2354 C2358 1.368 1_556 S
C2355 C2336 1.429 . S
C2355 C2349 1.429 . S
C2355 C2356 1.523 . S
C2356 C2337 1.368 . S
C2356 C2350 1.368 1_556 S
C2356 C2355 1.523 . S
C2357 C2341 1.429 . S
C2357 C2353 1.429 . S
C2357 C2358 1.523 . S
C2358 C2342 1.368 . S
C2358 C2354 1.368 1_554 S
C2358 C2357 1.523 . S
H2359 C2334 0.950 . S
H2360 C2336 0.950 . S
H2361 C2337 0.949 . S
H2362 C2339 0.950 . S
H2363 C2341 0.950 . S
C2364 C2365 1.349 . S
C2364 C2366 1.327 . S
C2364 H2389 0.950 . S
C2365 C2364 1.349 . S
C2365 C2381 1.349 . S
C2366 C2364 1.327 . S
C2366 C2385 1.429 . S
C2366 H2390 0.950 . S
C2367 C2384 1.574 . S
C2367 C2386 1.368 . S
C2367 H2391 0.949 . S
H2368 C2372 0.949 . S
C2369 C2370 1.349 . S
C2369 C2371 1.327 . S
C2369 H2392 0.950 . S
C2370 C2369 1.349 . S
C2370 C2382 1.349 . S
C2371 C2369 1.327 . S
C2371 C2387 1.429 . S
C2371 H2393 0.950 . S
C2372 H2368 0.949 . S
C2372 C2380 1.574 . S
C2372 C2388 1.368 . S
H2373 C2381 0.950 . S
H2374 C2379 0.950 . S
H2375 C2380 0.949 . S
H2376 C2382 0.950 . S
H2377 C2383 0.950 . S
H2378 C2384 0.949 . S
C2379 H2374 0.950 . S
C2379 C2381 1.327 . S
C2379 C2385 1.429 . S
C2380 C2372 1.574 . S
C2380 H2375 0.949 . S
C2380 C2386 1.368 . S
C2381 C2365 1.349 . S
C2381 H2373 0.950 . S
C2381 C2379 1.327 . S
C2382 C2370 1.349 . S
C2382 H2376 0.950 . S
C2382 C2383 1.327 . S
C2383 H2377 0.950 . S
C2383 C2382 1.327 . S
C2383 C2387 1.429 . S
C2384 C2367 1.574 . S
C2384 H2378 0.949 . S
C2384 C2388 1.368 . S
C2385 C2366 1.429 . S
C2385 C2379 1.429 . S
C2385 C2386 1.523 . S
C2386 C2367 1.368 . S
C2386 C2380 1.368 . S
C2386 C2385 1.523 . S
C2387 C2371 1.429 . S
C2387 C2383 1.429 . S
C2387 C2388 1.523 . S
C2388 C2372 1.368 . S
C2388 C2384 1.368 . S
C2388 C2387 1.523 . S
H2389 C2364 0.950 . S
H2390 C2366 0.950 . S
H2391 C2367 0.949 . S
H2392 C2369 0.950 . S
H2393 C2371 0.950 . S
C2394 C2395 1.349 . S
C2394 C2396 1.327 . S
C2394 H2419 0.950 . S
C2395 C2394 1.349 . S
C2395 C2411 1.349 . S
C2396 C2394 1.327 . S
C2396 C2415 1.429 . S
C2396 H2420 0.950 . S
C2397 C2414 1.574 1_565 S
C2397 C2416 1.368 . S
C2397 H2421 0.949 . S
H2398 C2402 0.949 . S
C2399 C2400 1.349 . S
C2399 C2401 1.327 . S
C2399 H2422 0.950 . S
C2400 C2399 1.349 . S
C2400 C2412 1.349 . S
C2401 C2399 1.327 . S
C2401 C2417 1.429 . S
C2401 H2423 0.950 . S
C2402 H2398 0.949 . S
C2402 C2410 1.574 1_545 S
C2402 C2418 1.368 . S
H2403 C2411 0.950 . S
H2404 C2409 0.950 . S
H2405 C2410 0.949 . S
H2406 C2412 0.950 . S
H2407 C2413 0.950 . S
H2408 C2414 0.949 . S
C2409 H2404 0.950 . S
C2409 C2411 1.327 . S
C2409 C2415 1.429 . S
C2410 C2402 1.574 1_565 S
C2410 H2405 0.949 . S
C2410 C2416 1.368 . S
C2411 C2395 1.349 . S
C2411 H2403 0.950 . S
C2411 C2409 1.327 . S
C2412 C2400 1.349 . S
C2412 H2406 0.950 . S
C2412 C2413 1.327 . S
C2413 H2407 0.950 . S
C2413 C2412 1.327 . S
C2413 C2417 1.429 . S
C2414 C2397 1.574 1_545 S
C2414 H2408 0.949 . S
C2414 C2418 1.368 . S
C2415 C2396 1.429 . S
C2415 C2409 1.429 . S
C2415 C2416 1.523 . S
C2416 C2397 1.368 . S
C2416 C2410 1.368 . S
C2416 C2415 1.523 . S
C2417 C2401 1.429 . S
C2417 C2413 1.429 . S
C2417 C2418 1.523 . S
C2418 C2402 1.368 . S
C2418 C2414 1.368 . S
C2418 C2417 1.523 . S
H2419 C2394 0.950 . S
H2420 C2396 0.950 . S
H2421 C2397 0.949 . S
H2422 C2399 0.950 . S
H2423 C2401 0.950 . S
C2424 C2425 1.349 . S
C2424 C2426 1.327 . S
C2424 H2449 0.950 . S
C2425 C2424 1.349 . S
C2425 C2441 1.349 . S
C2426 C2424 1.327 . S
C2426 C2445 1.429 . S
C2426 H2450 0.950 . S
C2427 C2444 1.574 . S
C2427 C2446 1.368 . S
C2427 H2451 0.949 . S
H2428 C2432 0.949 . S
C2429 C2430 1.349 . S
C2429 C2431 1.327 . S
C2429 H2452 0.950 . S
C2430 C2429 1.349 . S
C2430 C2442 1.349 . S
C2431 C2429 1.327 . S
C2431 C2447 1.429 . S
C2431 H2453 0.950 . S
C2432 H2428 0.949 . S
C2432 C2440 1.574 . S
C2432 C2448 1.368 . S
H2433 C2441 0.950 . S
H2434 C2439 0.950 . S
H2435 C2440 0.949 . S
H2436 C2442 0.950 . S
H2437 C2443 0.950 . S
H2438 C2444 0.949 . S
C2439 H2434 0.950 . S
C2439 C2441 1.327 . S
C2439 C2445 1.429 . S
C2440 C2432 1.574 . S
C2440 H2435 0.949 . S
C2440 C2446 1.368 . S
C2441 C2425 1.349 . S
C2441 H2433 0.950 . S
C2441 C2439 1.327 . S
C2442 C2430 1.349 . S
C2442 H2436 0.950 . S
C2442 C2443 1.327 . S
C2443 H2437 0.950 . S
C2443 C2442 1.327 . S
C2443 C2447 1.429 . S
C2444 C2427 1.574 . S
C2444 H2438 0.949 . S
C2444 C2448 1.368 . S
C2445 C2426 1.429 . S
C2445 C2439 1.429 . S
C2445 C2446 1.523 . S
C2446 C2427 1.368 . S
C2446 C2440 1.368 . S
C2446 C2445 1.523 . S
C2447 C2431 1.429 . S
C2447 C2443 1.429 . S
C2447 C2448 1.523 . S
C2448 C2432 1.368 . S
C2448 C2444 1.368 . S
C2448 C2447 1.523 . S
H2449 C2424 0.950 . S
H2450 C2426 0.950 . S
H2451 C2427 0.949 . S
H2452 C2429 0.950 . S
H2453 C2431 0.950 . S
C2454 C2455 1.349 . S
C2454 C2456 1.327 . S
C2454 H2479 0.950 . S
C2455 C2454 1.349 . S
C2455 C2471 1.349 . S
C2456 C2454 1.327 . S
C2456 C2475 1.429 . S
C2456 H2480 0.950 . S
C2457 C2474 1.574 . S
C2457 C2476 1.368 . S
C2457 H2481 0.949 . S
H2458 C2462 0.949 . S
C2459 C2460 1.349 . S
C2459 C2461 1.327 . S
C2459 H2482 0.950 . S
C2460 C2459 1.349 . S
C2460 C2472 1.349 . S
C2461 C2459 1.327 . S
C2461 C2477 1.429 . S
C2461 H2483 0.950 . S
C2462 H2458 0.949 . S
C2462 C2470 1.574 . S
C2462 C2478 1.368 . S
H2463 C2471 0.950 . S
H2464 C2469 0.950 . S
H2465 C2470 0.949 . S
H2466 C2472 0.950 . S
H2467 C2473 0.950 . S
H2468 C2474 0.949 . S
C2469 H2464 0.950 . S
C2469 C2471 1.327 . S
C2469 C2475 1.429 . S
C2470 C2462 1.574 . S
C2470 H2465 0.949 . S
C2470 C2476 1.368 . S
C2471 C2455 1.349 . S
C2471 H2463 0.950 . S
C2471 C2469 1.327 . S
C2472 C2460 1.349 . S
C2472 H2466 0.950 . S
C2472 C2473 1.327 . S
C2473 H2467 0.950 . S
C2473 C2472 1.327 . S
C2473 C2477 1.429 . S
C2474 C2457 1.574 . S
C2474 H2468 0.949 . S
C2474 C2478 1.368 . S
C2475 C2456 1.429 . S
C2475 C2469 1.429 . S
C2475 C2476 1.523 . S
C2476 C2457 1.368 . S
C2476 C2470 1.368 . S
C2476 C2475 1.523 . S
C2477 C2461 1.429 . S
C2477 C2473 1.429 . S
C2477 C2478 1.523 . S
C2478 C2462 1.368 . S
C2478 C2474 1.368 . S
C2478 C2477 1.523 . S
H2479 C2454 0.950 . S
H2480 C2456 0.950 . S
H2481 C2457 0.949 . S
H2482 C2459 0.950 . S
H2483 C2461 0.950 . S
C2484 C2485 1.349 . S
C2484 C2486 1.327 . S
C2484 H2509 0.950 . S
C2485 C2484 1.349 . S
C2485 C2501 1.349 . S
C2486 C2484 1.327 . S
C2486 C2505 1.429 . S
C2486 H2510 0.950 . S
C2487 C2504 1.574 . S
C2487 C2506 1.368 . S
C2487 H2511 0.949 . S
H2488 C2492 0.949 . S
C2489 C2490 1.349 . S
C2489 C2491 1.327 . S
C2489 H2512 0.950 . S
C2490 C2489 1.349 . S
C2490 C2502 1.349 . S
C2491 C2489 1.327 . S
C2491 C2507 1.429 . S
C2491 H2513 0.950 . S
C2492 H2488 0.949 . S
C2492 C2500 1.574 . S
C2492 C2508 1.368 . S
H2493 C2501 0.950 . S
H2494 C2499 0.950 . S
H2495 C2500 0.949 . S
H2496 C2502 0.950 . S
H2497 C2503 0.950 . S
H2498 C2504 0.949 . S
C2499 H2494 0.950 . S
C2499 C2501 1.327 . S
C2499 C2505 1.429 . S
C2500 C2492 1.574 . S
C2500 H2495 0.949 . S
C2500 C2506 1.368 . S
C2501 C2485 1.349 . S
C2501 H2493 0.950 . S
C2501 C2499 1.327 . S
C2502 C2490 1.349 . S
C2502 H2496 0.950 . S
C2502 C2503 1.327 . S
C2503 H2497 0.950 . S
C2503 C2502 1.327 . S
C2503 C2507 1.429 . S
C2504 C2487 1.574 . S
C2504 H2498 0.949 . S
C2504 C2508 1.368 . S
C2505 C2486 1.429 . S
C2505 C2499 1.429 . S
C2505 C2506 1.523 . S
C2506 C2487 1.368 . S
C2506 C2500 1.368 . S
C2506 C2505 1.523 . S
C2507 C2491 1.429 . S
C2507 C2503 1.429 . S
C2507 C2508 1.523 . S
C2508 C2492 1.368 . S
C2508 C2504 1.368 . S
C2508 C2507 1.523 . S
H2509 C2484 0.950 . S
H2510 C2486 0.950 . S
H2511 C2487 0.949 . S
H2512 C2489 0.950 . S
H2513 C2491 0.950 . S
C2514 C2515 1.349 . S
C2514 C2516 1.327 . S
C2514 H2539 0.950 . S
C2515 C2514 1.349 . S
C2515 C2531 1.349 . S
C2516 C2514 1.327 . S
C2516 C2535 1.429 . S
C2516 H2540 0.950 . S
C2517 C2534 1.574 1_556 S
C2517 C2536 1.368 . S
C2517 H2541 0.949 . S
H2518 C2522 0.949 . S
C2519 C2520 1.349 . S
C2519 C2521 1.327 . S
C2519 H2542 0.950 . S
C2520 C2519 1.349 . S
C2520 C2532 1.349 . S
C2521 C2519 1.327 . S
C2521 C2537 1.429 . S
C2521 H2543 0.950 . S
C2522 H2518 0.949 . S
C2522 C2530 1.574 1_554 S
C2522 C2538 1.368 . S
H2523 C2531 0.950 . S
H2524 C2529 0.950 . S
H2525 C2530 0.949 . S
H2526 C2532 0.950 . S
H2527 C2533 0.950 . S
H2528 C2534 0.949 . S
C2529 H2524 0.950 . S
C2529 C2531 1.327 . S
C2529 C2535 1.429 . S
C2530 C2522 1.574 1_556 S
C2530 H2525 0.949 . S
C2530 C2536 1.368 . S
C2531 C2515 1.349 . S
C2531 H2523 0.950 . S
C2531 C2529 1.327 . S
C2532 C2520 1.349 . S
C2532 H2526 0.950 . S
C2532 C2533 1.327 . S
C2533 H2527 0.950 . S
C2533 C2532 1.327 . S
C2533 C2537 1.429 . S
C2534 C2517 1.574 1_554 S
C2534 H2528 0.949 . S
C2534 C2538 1.368 . S
C2535 C2516 1.429 . S
C2535 C2529 1.429 . S
C2535 C2536 1.523 . S
C2536 C2517 1.368 . S
C2536 C2530 1.368 . S
C2536 C2535 1.523 . S
C2537 C2521 1.429 . S
C2537 C2533 1.429 . S
C2537 C2538 1.523 . S
C2538 C2522 1.368 . S
C2538 C2534 1.368 . S
C2538 C2537 1.523 . S
H2539 C2514 0.950 . S
H2540 C2516 0.950 . S
H2541 C2517 0.949 . S
H2542 C2519 0.950 . S
H2543 C2521 0.950 . S
C2544 C2545 1.349 . S
C2544 C2546 1.327 . S
C2544 H2569 0.950 . S
C2545 C2544 1.349 . S
C2545 C2561 1.349 . S
C2546 C2544 1.327 . S
C2546 C2565 1.429 . S
C2546 H2570 0.950 . S
C2547 C2564 1.574 . S
C2547 C2566 1.368 . S
C2547 H2571 0.949 . S
H2548 C2552 0.949 . S
C2549 C2550 1.349 . S
C2549 C2551 1.327 . S
C2549 H2572 0.950 . S
C2550 C2549 1.349 . S
C2550 C2562 1.349 . S
C2551 C2549 1.327 . S
C2551 C2567 1.429 . S
C2551 H2573 0.950 . S
C2552 H2548 0.949 . S
C2552 C2560 1.574 . S
C2552 C2568 1.368 . S
H2553 C2561 0.950 . S
H2554 C2559 0.950 . S
H2555 C2560 0.949 . S
H2556 C2562 0.950 . S
H2557 C2563 0.950 . S
H2558 C2564 0.949 . S
C2559 H2554 0.950 . S
C2559 C2561 1.327 . S
C2559 C2565 1.429 . S
C2560 C2552 1.574 . S
C2560 H2555 0.949 . S
C2560 C2566 1.368 . S
C2561 C2545 1.349 . S
C2561 H2553 0.950 . S
C2561 C2559 1.327 . S
C2562 C2550 1.349 . S
C2562 H2556 0.950 . S
C2562 C2563 1.327 . S
C2563 H2557 0.950 . S
C2563 C2562 1.327 . S
C2563 C2567 1.429 . S
C2564 C2547 1.574 . S
C2564 H2558 0.949 . S
C2564 C2568 1.368 . S
C2565 C2546 1.429 . S
C2565 C2559 1.429 . S
C2565 C2566 1.523 . S
C2566 C2547 1.368 . S
C2566 C2560 1.368 . S
C2566 C2565 1.523 . S
C2567 C2551 1.429 . S
C2567 C2563 1.429 . S
C2567 C2568 1.523 . S
C2568 C2552 1.368 . S
C2568 C2564 1.368 . S
C2568 C2567 1.523 . S
H2569 C2544 0.950 . S
H2570 C2546 0.950 . S
H2571 C2547 0.949 . S
H2572 C2549 0.950 . S
H2573 C2551 0.950 . S
C2574 C2575 1.349 . S
C2574 C2576 1.327 . S
C2574 H2599 0.950 . S
C2575 C2574 1.349 . S
C2575 C2591 1.349 . S
C2576 C2574 1.327 . S
C2576 C2595 1.429 . S
C2576 H2600 0.950 . S
C2577 C2594 1.574 1_556 S
C2577 C2596 1.368 . S
C2577 H2601 0.949 . S
H2578 C2582 0.949 . S
C2579 C2580 1.349 . S
C2579 C2581 1.327 . S
C2579 H2602 0.950 . S
C2580 C2579 1.349 . S
C2580 C2592 1.349 . S
C2581 C2579 1.327 . S
C2581 C2597 1.429 . S
C2581 H2603 0.950 . S
C2582 H2578 0.949 . S
C2582 C2590 1.574 1_554 S
C2582 C2598 1.368 . S
H2583 C2591 0.950 . S
H2584 C2589 0.950 . S
H2585 C2590 0.949 . S
H2586 C2592 0.950 . S
H2587 C2593 0.950 . S
H2588 C2594 0.949 . S
C2589 H2584 0.950 . S
C2589 C2591 1.327 . S
C2589 C2595 1.429 . S
C2590 C2582 1.574 1_556 S
C2590 H2585 0.949 . S
C2590 C2596 1.368 . S
C2591 C2575 1.349 . S
C2591 H2583 0.950 . S
C2591 C2589 1.327 . S
C2592 C2580 1.349 . S
C2592 H2586 0.950 . S
C2592 C2593 1.327 . S
C2593 H2587 0.950 . S
C2593 C2592 1.327 . S
C2593 C2597 1.429 . S
C2594 C2577 1.574 1_554 S
C2594 H2588 0.949 . S
C2594 C2598 1.368 . S
C2595 C2576 1.429 . S
C2595 C2589 1.429 . S
C2595 C2596 1.523 . S
C2596 C2577 1.368 . S
C2596 C2590 1.368 . S
C2596 C2595 1.523 . S
C2597 C2581 1.429 . S
C2597 C2593 1.429 . S
C2597 C2598 1.523 . S
C2598 C2582 1.368 . S
C2598 C2594 1.368 . S
C2598 C2597 1.523 . S
H2599 C2574 0.950 . S
H2600 C2576 0.950 . S
H2601 C2577 0.949 . S
H2602 C2579 0.950 . S
H2603 C2581 0.950 . S
C2604 C2605 1.349 . S
C2604 C2606 1.327 . S
C2604 H2629 0.950 . S
C2605 C2604 1.349 . S
C2605 C2621 1.349 . S
C2606 C2604 1.327 . S
C2606 C2625 1.429 . S
C2606 H2630 0.950 . S
C2607 C2624 1.574 . S
C2607 C2626 1.368 1_545 S
C2607 H2631 0.949 . S
H2608 C2612 0.949 . S
C2609 C2610 1.349 . S
C2609 C2611 1.327 . S
C2609 H2632 0.950 . S
C2610 C2609 1.349 . S
C2610 C2622 1.349 . S
C2611 C2609 1.327 . S
C2611 C2627 1.429 . S
C2611 H2633 0.950 . S
C2612 H2608 0.949 . S
C2612 C2620 1.574 . S
C2612 C2628 1.368 1_565 S
H2613 C2621 0.950 . S
H2614 C2619 0.950 . S
H2615 C2620 0.949 . S
H2616 C2622 0.950 . S
H2617 C2623 0.950 . S
H2618 C2624 0.949 . S
C2619 H2614 0.950 . S
C2619 C2621 1.327 . S
C2619 C2625 1.429 . S
C2620 C2612 1.574 . S
C2620 H2615 0.949 . S
C2620 C2626 1.368 . S
C2621 C2605 1.349 . S
C2621 H2613 0.950 . S
C2621 C2619 1.327 . S
C2622 C2610 1.349 . S
C2622 H2616 0.950 . S
C2622 C2623 1.327 . S
C2623 H2617 0.950 . S
C2623 C2622 1.327 . S
C2623 C2627 1.429 . S
C2624 C2607 1.574 . S
C2624 H2618 0.949 . S
C2624 C2628 1.368 . S
C2625 C2606 1.429 . S
C2625 C2619 1.429 . S
C2625 C2626 1.523 . S
C2626 C2607 1.368 1_565 S
C2626 C2620 1.368 . S
C2626 C2625 1.523 . S
C2627 C2611 1.429 . S
C2627 C2623 1.429 . S
C2627 C2628 1.523 . S
C2628 C2612 1.368 1_545 S
C2628 C2624 1.368 . S
C2628 C2627 1.523 . S
H2629 C2604 0.950 . S
H2630 C2606 0.950 . S
H2631 C2607 0.949 . S
H2632 C2609 0.950 . S
H2633 C2611 0.950 . S
C2634 C2635 1.349 . S
C2634 C2636 1.327 . S
C2634 H2659 0.950 . S
C2635 C2634 1.349 . S
C2635 C2651 1.349 . S
C2636 C2634 1.327 . S
C2636 C2655 1.429 . S
C2636 H2660 0.950 . S
C2637 C2654 1.574 . S
C2637 C2656 1.368 . S
C2637 H2661 0.949 . S
H2638 C2642 0.949 . S
C2639 C2640 1.349 . S
C2639 C2641 1.327 . S
C2639 H2662 0.950 . S
C2640 C2639 1.349 . S
C2640 C2652 1.349 . S
C2641 C2639 1.327 . S
C2641 C2657 1.429 . S
C2641 H2663 0.950 . S
C2642 H2638 0.949 . S
C2642 C2650 1.574 . S
C2642 C2658 1.368 . S
H2643 C2651 0.950 . S
H2644 C2649 0.950 . S
H2645 C2650 0.949 . S
H2646 C2652 0.950 . S
H2647 C2653 0.950 . S
H2648 C2654 0.949 . S
C2649 H2644 0.950 . S
C2649 C2651 1.327 . S
C2649 C2655 1.429 . S
C2650 C2642 1.574 . S
C2650 H2645 0.949 . S
C2650 C2656 1.368 . S
C2651 C2635 1.349 . S
C2651 H2643 0.950 . S
C2651 C2649 1.327 . S
C2652 C2640 1.349 . S
C2652 H2646 0.950 . S
C2652 C2653 1.327 . S
C2653 H2647 0.950 . S
C2653 C2652 1.327 . S
C2653 C2657 1.429 . S
C2654 C2637 1.574 . S
C2654 H2648 0.949 . S
C2654 C2658 1.368 . S
C2655 C2636 1.429 . S
C2655 C2649 1.429 . S
C2655 C2656 1.523 . S
C2656 C2637 1.368 . S
C2656 C2650 1.368 . S
C2656 C2655 1.523 . S
C2657 C2641 1.429 . S
C2657 C2653 1.429 . S
C2657 C2658 1.523 . S
C2658 C2642 1.368 . S
C2658 C2654 1.368 . S
C2658 C2657 1.523 . S
H2659 C2634 0.950 . S
H2660 C2636 0.950 . S
H2661 C2637 0.949 . S
H2662 C2639 0.950 . S
H2663 C2641 0.950 . S
C2664 C2665 1.349 . S
C2664 C2666 1.327 . S
C2664 H2689 0.950 . S
C2665 C2664 1.349 . S
C2665 C2681 1.349 . S
C2666 C2664 1.327 . S
C2666 C2685 1.429 . S
C2666 H2690 0.950 . S
C2667 C2684 1.574 . S
C2667 C2686 1.368 1_545 S
C2667 H2691 0.949 . S
H2668 C2672 0.949 . S
C2669 C2670 1.349 . S
C2669 C2671 1.327 . S
C2669 H2692 0.950 . S
C2670 C2669 1.349 . S
C2670 C2682 1.349 . S
C2671 C2669 1.327 . S
C2671 C2687 1.429 . S
C2671 H2693 0.950 . S
C2672 H2668 0.949 . S
C2672 C2680 1.574 . S
C2672 C2688 1.368 1_565 S
H2673 C2681 0.950 . S
H2674 C2679 0.950 . S
H2675 C2680 0.949 . S
H2676 C2682 0.950 . S
H2677 C2683 0.950 . S
H2678 C2684 0.949 . S
C2679 H2674 0.950 . S
C2679 C2681 1.327 . S
C2679 C2685 1.429 . S
C2680 C2672 1.574 . S
C2680 H2675 0.949 . S
C2680 C2686 1.368 . S
C2681 C2665 1.349 . S
C2681 H2673 0.950 . S
C2681 C2679 1.327 . S
C2682 C2670 1.349 . S
C2682 H2676 0.950 . S
C2682 C2683 1.327 . S
C2683 H2677 0.950 . S
C2683 C2682 1.327 . S
C2683 C2687 1.429 . S
C2684 C2667 1.574 . S
C2684 H2678 0.949 . S
C2684 C2688 1.368 . S
C2685 C2666 1.429 . S
C2685 C2679 1.429 . S
C2685 C2686 1.523 . S
C2686 C2667 1.368 1_565 S
C2686 C2680 1.368 . S
C2686 C2685 1.523 . S
C2687 C2671 1.429 . S
C2687 C2683 1.429 . S
C2687 C2688 1.523 . S
C2688 C2672 1.368 1_545 S
C2688 C2684 1.368 . S
C2688 C2687 1.523 . S
H2689 C2664 0.950 . S
H2690 C2666 0.950 . S
H2691 C2667 0.949 . S
H2692 C2669 0.950 . S
H2693 C2671 0.950 . S
C2694 C2695 1.349 . S
C2694 C2696 1.327 . S
C2694 H2719 0.950 . S
C2695 C2694 1.349 . S
C2695 C2711 1.349 . S
C2696 C2694 1.327 . S
C2696 C2715 1.429 . S
C2696 H2720 0.950 . S
C2697 C2714 1.574 . S
C2697 C2716 1.368 . S
C2697 H2721 0.949 . S
H2698 C2702 0.949 . S
C2699 C2700 1.349 . S
C2699 C2701 1.327 . S
C2699 H2722 0.950 . S
C2700 C2699 1.349 . S
C2700 C2712 1.349 . S
C2701 C2699 1.327 . S
C2701 C2717 1.429 . S
C2701 H2723 0.950 . S
C2702 H2698 0.949 . S
C2702 C2710 1.574 . S
C2702 C2718 1.368 . S
H2703 C2711 0.950 . S
H2704 C2709 0.950 . S
H2705 C2710 0.949 . S
H2706 C2712 0.950 . S
H2707 C2713 0.950 . S
H2708 C2714 0.949 . S
C2709 H2704 0.950 . S
C2709 C2711 1.327 . S
C2709 C2715 1.429 . S
C2710 C2702 1.574 . S
C2710 H2705 0.949 . S
C2710 C2716 1.368 . S
C2711 C2695 1.349 . S
C2711 H2703 0.950 . S
C2711 C2709 1.327 . S
C2712 C2700 1.349 . S
C2712 H2706 0.950 . S
C2712 C2713 1.327 . S
C2713 H2707 0.950 . S
C2713 C2712 1.327 . S
C2713 C2717 1.429 . S
C2714 C2697 1.574 . S
C2714 H2708 0.949 . S
C2714 C2718 1.368 . S
C2715 C2696 1.429 . S
C2715 C2709 1.429 . S
C2715 C2716 1.523 . S
C2716 C2697 1.368 . S
C2716 C2710 1.368 . S
C2716 C2715 1.523 . S
C2717 C2701 1.429 . S
C2717 C2713 1.429 . S
C2717 C2718 1.523 . S
C2718 C2702 1.368 . S
C2718 C2714 1.368 . S
C2718 C2717 1.523 . S
H2719 C2694 0.950 . S
H2720 C2696 0.950 . S
H2721 C2697 0.949 . S
H2722 C2699 0.950 . S
H2723 C2701 0.950 . S
C2724 C2725 1.349 . S
C2724 C2726 1.327 . S
C2724 H2749 0.950 . S
C2725 C2724 1.349 . S
C2725 C2741 1.349 . S
C2726 C2724 1.327 . S
C2726 C2745 1.429 . S
C2726 H2750 0.950 . S
C2727 C2744 1.574 . S
C2727 C2746 1.368 . S
C2727 H2751 0.949 . S
H2728 C2732 0.949 . S
C2729 C2730 1.349 . S
C2729 C2731 1.327 . S
C2729 H2752 0.950 . S
C2730 C2729 1.349 . S
C2730 C2742 1.349 . S
C2731 C2729 1.327 . S
C2731 C2747 1.429 . S
C2731 H2753 0.950 . S
C2732 H2728 0.949 . S
C2732 C2740 1.574 . S
C2732 C2748 1.368 . S
H2733 C2741 0.950 . S
H2734 C2739 0.950 . S
H2735 C2740 0.949 . S
H2736 C2742 0.950 . S
H2737 C2743 0.950 . S
H2738 C2744 0.949 . S
C2739 H2734 0.950 . S
C2739 C2741 1.327 . S
C2739 C2745 1.429 . S
C2740 C2732 1.574 . S
C2740 H2735 0.949 . S
C2740 C2746 1.368 . S
C2741 C2725 1.349 . S
C2741 H2733 0.950 . S
C2741 C2739 1.327 . S
C2742 C2730 1.349 . S
C2742 H2736 0.950 . S
C2742 C2743 1.327 . S
C2743 H2737 0.950 . S
C2743 C2742 1.327 . S
C2743 C2747 1.429 . S
C2744 C2727 1.574 . S
C2744 H2738 0.949 . S
C2744 C2748 1.368 . S
C2745 C2726 1.429 . S
C2745 C2739 1.429 . S
C2745 C2746 1.523 . S
C2746 C2727 1.368 . S
C2746 C2740 1.368 . S
C2746 C2745 1.523 . S
C2747 C2731 1.429 . S
C2747 C2743 1.429 . S
C2747 C2748 1.523 . S
C2748 C2732 1.368 . S
C2748 C2744 1.368 . S
C2748 C2747 1.523 . S
H2749 C2724 0.950 . S
H2750 C2726 0.950 . S
H2751 C2727 0.949 . S
H2752 C2729 0.950 . S
H2753 C2731 0.950 . S
C2754 C2755 1.349 . S
C2754 C2756 1.327 . S
C2754 H2779 0.950 . S
C2755 C2754 1.349 . S
C2755 C2771 1.349 . S
C2756 C2754 1.327 . S
C2756 C2775 1.429 . S
C2756 H2780 0.950 . S
C2757 C2774 1.574 . S
C2757 C2776 1.368 . S
C2757 H2781 0.949 . S
H2758 C2762 0.949 . S
C2759 C2760 1.349 . S
C2759 C2761 1.327 . S
C2759 H2782 0.950 . S
C2760 C2759 1.349 . S
C2760 C2772 1.349 . S
C2761 C2759 1.327 . S
C2761 C2777 1.429 . S
C2761 H2783 0.950 . S
C2762 H2758 0.949 . S
C2762 C2770 1.574 . S
C2762 C2778 1.368 . S
H2763 C2771 0.950 . S
H2764 C2769 0.950 . S
H2765 C2770 0.949 . S
H2766 C2772 0.950 . S
H2767 C2773 0.950 . S
H2768 C2774 0.949 . S
C2769 H2764 0.950 . S
C2769 C2771 1.327 . S
C2769 C2775 1.429 . S
C2770 C2762 1.574 . S
C2770 H2765 0.949 . S
C2770 C2776 1.368 . S
C2771 C2755 1.349 . S
C2771 H2763 0.950 . S
C2771 C2769 1.327 . S
C2772 C2760 1.349 . S
C2772 H2766 0.950 . S
C2772 C2773 1.327 . S
C2773 H2767 0.950 . S
C2773 C2772 1.327 . S
C2773 C2777 1.429 . S
C2774 C2757 1.574 . S
C2774 H2768 0.949 . S
C2774 C2778 1.368 . S
C2775 C2756 1.429 . S
C2775 C2769 1.429 . S
C2775 C2776 1.523 . S
C2776 C2757 1.368 . S
C2776 C2770 1.368 . S
C2776 C2775 1.523 . S
C2777 C2761 1.429 . S
C2777 C2773 1.429 . S
C2777 C2778 1.523 . S
C2778 C2762 1.368 . S
C2778 C2774 1.368 . S
C2778 C2777 1.523 . S
H2779 C2754 0.950 . S
H2780 C2756 0.950 . S
H2781 C2757 0.949 . S
H2782 C2759 0.950 . S
H2783 C2761 0.950 . S
C2784 C2785 1.349 . S
C2784 C2786 1.327 . S
C2784 H2809 0.950 . S
C2785 C2784 1.349 . S
C2785 C2801 1.349 . S
C2786 C2784 1.327 . S
C2786 C2805 1.429 . S
C2786 H2810 0.950 . S
C2787 C2804 1.574 . S
C2787 C2806 1.368 1_655 S
C2787 H2811 0.949 . S
H2788 C2792 0.949 . S
C2789 C2790 1.349 . S
C2789 C2791 1.327 . S
C2789 H2812 0.950 . S
C2790 C2789 1.349 . S
C2790 C2802 1.349 . S
C2791 C2789 1.327 . S
C2791 C2807 1.429 . S
C2791 H2813 0.950 . S
C2792 H2788 0.949 . S
C2792 C2800 1.574 1_655 S
C2792 C2808 1.368 . S
H2793 C2801 0.950 . S
H2794 C2799 0.950 . S
H2795 C2800 0.949 . S
H2796 C2802 0.950 . S
H2797 C2803 0.950 . S
H2798 C2804 0.949 . S
C2799 H2794 0.950 . S
C2799 C2801 1.327 . S
C2799 C2805 1.429 . S
C2800 C2792 1.574 1_455 S
C2800 H2795 0.949 . S
C2800 C2806 1.368 . S
C2801 C2785 1.349 . S
C2801 H2793 0.950 . S
C2801 C2799 1.327 . S
C2802 C2790 1.349 . S
C2802 H2796 0.950 . S
C2802 C2803 1.327 . S
C2803 H2797 0.950 . S
C2803 C2802 1.327 . S
C2803 C2807 1.429 . S
C2804 C2787 1.574 . S
C2804 H2798 0.949 . S
C2804 C2808 1.368 . S
C2805 C2786 1.429 . S
C2805 C2799 1.429 . S
C2805 C2806 1.523 . S
C2806 C2787 1.368 1_455 S
C2806 C2800 1.368 . S
C2806 C2805 1.523 . S
C2807 C2791 1.429 . S
C2807 C2803 1.429 . S
C2807 C2808 1.523 . S
C2808 C2792 1.368 . S
C2808 C2804 1.368 . S
C2808 C2807 1.523 . S
H2809 C2784 0.950 . S
H2810 C2786 0.950 . S
H2811 C2787 0.949 . S
H2812 C2789 0.950 . S
H2813 C2791 0.950 . S
C2814 C2815 1.349 . S
C2814 C2816 1.327 . S
C2814 H2839 0.950 . S
C2815 C2814 1.349 . S
C2815 C2831 1.349 . S
C2816 C2814 1.327 . S
C2816 C2835 1.429 . S
C2816 H2840 0.950 . S
C2817 C2834 1.576 . S
C2817 C2836 1.365 1_455 S
C2817 H2841 0.950 . S
H2818 C2822 0.949 . S
C2819 C2820 1.349 . S
C2819 C2821 1.327 . S
C2819 H2842 0.950 . S
C2820 C2819 1.349 . S
C2820 C2832 1.349 . S
C2821 C2819 1.327 . S
C2821 C2837 1.429 . S
C2821 H2843 0.950 . S
C2822 H2818 0.949 . S
C2822 C2830 1.574 . S
C2822 C2838 1.368 1_655 S
H2823 C2831 0.950 . S
H2824 C2829 0.950 . S
H2825 C2830 0.949 . S
H2826 C2832 0.950 . S
H2827 C2833 0.985 . S
H2828 C2834 0.949 . S
C2829 H2824 0.950 . S
C2829 C2831 1.327 . S
C2829 C2835 1.429 . S
C2830 C2822 1.574 . S
C2830 H2825 0.949 . S
C2830 C2836 1.368 . S
C2831 C2815 1.349 . S
C2831 H2823 0.950 . S
C2831 C2829 1.327 . S
C2832 C2820 1.349 . S
C2832 H2826 0.950 . S
C2832 C2833 1.327 . S
C2833 H2827 0.985 . S
C2833 C2832 1.327 . S
C2833 C2837 1.429 . S
C2834 C2817 1.576 . S
C2834 H2828 0.949 . S
C2834 C2838 1.368 . S
C2835 C2816 1.429 . S
C2835 C2829 1.429 . S
C2835 C2836 1.523 . S
C2836 C2817 1.365 1_655 S
C2836 C2830 1.368 . S
C2836 C2835 1.523 . S
C2837 C2821 1.429 . S
C2837 C2833 1.429 . S
C2837 C2838 1.523 . S
C2838 C2822 1.368 1_455 S
C2838 C2834 1.368 . S
C2838 C2837 1.523 . S
H2839 C2814 0.950 . S
H2840 C2816 0.950 . S
H2841 C2817 0.950 . S
H2842 C2819 0.950 . S
H2843 C2821 0.950 . S
C2844 C2845 1.349 . S
C2844 C2846 1.327 . S
C2844 H2869 0.950 . S
C2845 C2844 1.349 . S
C2845 C2861 1.349 . S
C2846 C2844 1.327 . S
C2846 C2865 1.429 . S
C2846 H2870 0.950 . S
C2847 C2864 1.574 . S
C2847 C2866 1.368 1_455 S
C2847 H2871 0.949 . S
H2848 C2852 0.957 . S
C2849 C2850 1.349 . S
C2849 C2851 1.327 . S
C2849 H2872 0.950 . S
C2850 C2849 1.349 . S
C2850 C2862 1.349 . S
C2851 C2849 1.327 . S
C2851 C2867 1.429 . S
C2851 H2873 0.950 . S
C2852 H2848 0.957 . S
C2852 C2860 1.591 . S
C2852 C2868 1.343 1_655 S
H2853 C2861 0.950 . S
H2854 C2859 0.948 . S
H2855 C2860 0.949 . S
H2856 C2862 0.950 . S
H2857 C2863 0.950 . S
H2858 C2864 0.949 . S
C2859 H2854 0.948 . S
C2859 C2861 1.327 . S
C2859 C2865 1.429 . S
C2860 C2852 1.591 . S
C2860 H2855 0.949 . S
C2860 C2866 1.368 . S
C2861 C2845 1.349 . S
C2861 H2853 0.950 . S
C2861 C2859 1.327 . S
C2862 C2850 1.349 . S
C2862 H2856 0.950 . S
C2862 C2863 1.327 . S
C2863 H2857 0.950 . S
C2863 C2862 1.327 . S
C2863 C2867 1.429 . S
C2864 C2847 1.574 . S
C2864 H2858 0.949 . S
C2864 C2868 1.368 . S
C2865 C2846 1.429 . S
C2865 C2859 1.429 . S
C2865 C2866 1.523 . S
C2866 C2847 1.368 1_655 S
C2866 C2860 1.368 . S
C2866 C2865 1.523 . S
C2867 C2851 1.429 . S
C2867 C2863 1.429 . S
C2867 C2868 1.523 . S
C2868 C2852 1.343 1_455 S
C2868 C2864 1.368 . S
C2868 C2867 1.523 . S
H2869 C2844 0.950 . S
H2870 C2846 0.950 . S
H2871 C2847 0.949 . S
H2872 C2849 0.950 . S
H2873 C2851 0.950 . S
C2874 C2875 1.349 . S
C2874 C2876 1.327 . S
C2874 H2899 0.950 . S
C2875 C2874 1.349 . S
C2875 C2891 1.349 . S
C2876 C2874 1.327 . S
C2876 C2895 1.429 . S
C2876 H2900 0.950 . S
C2877 C2894 1.575 1_655 S
C2877 C2896 1.368 . S
C2877 H2901 0.949 . S
H2878 C2882 0.949 . S
C2879 C2880 1.349 . S
C2879 C2881 1.327 . S
C2879 H2902 0.950 . S
C2880 C2879 1.349 . S
C2880 C2892 1.349 . S
C2881 C2879 1.327 . S
C2881 C2897 1.429 . S
C2881 H2903 0.950 . S
C2882 H2878 0.949 . S
C2882 C2890 1.574 1_455 S
C2882 C2898 1.368 . S
H2883 C2891 0.950 . S
H2884 C2889 0.950 . S
H2885 C2890 0.949 . S
H2886 C2892 0.950 . S
H2887 C2893 0.950 . S
H2888 C2894 0.949 . S
C2889 H2884 0.950 . S
C2889 C2891 1.327 . S
C2889 C2895 1.429 . S
C2890 C2882 1.574 1_655 S
C2890 H2885 0.949 . S
C2890 C2896 1.368 . S
C2891 C2875 1.349 . S
C2891 H2883 0.950 . S
C2891 C2889 1.327 . S
C2892 C2880 1.349 . S
C2892 H2886 0.950 . S
C2892 C2893 1.327 . S
C2893 H2887 0.950 . S
C2893 C2892 1.327 . S
C2893 C2897 1.429 . S
C2894 C2877 1.575 1_455 S
C2894 H2888 0.949 . S
C2894 C2898 1.368 . S
C2895 C2876 1.429 . S
C2895 C2889 1.429 . S
C2895 C2896 1.523 . S
C2896 C2877 1.368 . S
C2896 C2890 1.368 . S
C2896 C2895 1.523 . S
C2897 C2881 1.429 . S
C2897 C2893 1.429 . S
C2897 C2898 1.523 . S
C2898 C2882 1.368 . S
C2898 C2894 1.368 . S
C2898 C2897 1.523 . S
H2899 C2874 0.950 . S
H2900 C2876 0.950 . S
H2901 C2877 0.949 . S
H2902 C2879 0.950 . S
H2903 C2881 0.950 . S
C2904 C2905 1.349 . S
C2904 C2906 1.327 . S
C2904 H2929 0.950 . S
C2905 C2904 1.349 . S
C2905 C2921 1.349 . S
C2906 C2904 1.327 . S
C2906 C2925 1.429 . S
C2906 H2930 0.950 . S
C2907 C2924 1.574 1_455 S
C2907 C2926 1.368 . S
C2907 H2931 0.949 . S
H2908 C2912 0.949 . S
C2909 C2910 1.349 . S
C2909 C2911 1.327 . S
C2909 H2932 0.950 . S
C2910 C2909 1.349 . S
C2910 C2922 1.349 . S
C2911 C2909 1.327 . S
C2911 C2927 1.429 . S
C2911 H2933 0.950 . S
C2912 H2908 0.949 . S
C2912 C2920 1.574 . S
C2912 C2928 1.368 . S
H2913 C2921 0.950 . S
H2914 C2919 0.950 . S
H2915 C2920 0.949 . S
H2916 C2922 0.950 . S
H2917 C2923 0.950 . S
H2918 C2924 0.949 . S
C2919 H2914 0.950 . S
C2919 C2921 1.327 . S
C2919 C2925 1.429 . S
C2920 C2912 1.574 . S
C2920 H2915 0.949 . S
C2920 C2926 1.368 1_655 S
C2921 C2905 1.349 . S
C2921 H2913 0.950 . S
C2921 C2919 1.327 . S
C2922 C2910 1.349 . S
C2922 H2916 0.950 . S
C2922 C2923 1.327 . S
C2923 H2917 0.950 . S
C2923 C2922 1.327 . S
C2923 C2927 1.429 . S
C2924 C2907 1.574 1_655 S
C2924 H2918 0.949 . S
C2924 C2928 1.368 . S
C2925 C2906 1.429 . S
C2925 C2919 1.429 . S
C2925 C2926 1.523 . S
C2926 C2907 1.368 . S
C2926 C2920 1.368 1_455 S
C2926 C2925 1.523 . S
C2927 C2911 1.429 . S
C2927 C2923 1.429 . S
C2927 C2928 1.523 . S
C2928 C2912 1.368 . S
C2928 C2924 1.368 . S
C2928 C2927 1.523 . S
H2929 C2904 0.950 . S
H2930 C2906 0.950 . S
H2931 C2907 0.949 . S
H2932 C2909 0.950 . S
H2933 C2911 0.950 . S
C2934 C2935 1.349 . S
C2934 C2936 1.327 . S
C2934 H2959 0.950 . S
C2935 C2934 1.349 . S
C2935 C2951 1.349 . S
C2936 C2934 1.327 . S
C2936 C2955 1.429 . S
C2936 H2960 0.950 . S
C2937 C2954 1.574 . S
C2937 C2956 1.368 . S
C2937 H2961 0.949 . S
H2938 C2942 0.949 . S
C2939 C2940 1.349 . S
C2939 C2941 1.327 . S
C2939 H2962 0.950 . S
C2940 C2939 1.349 . S
C2940 C2952 1.349 . S
C2941 C2939 1.327 . S
C2941 C2957 1.429 . S
C2941 H2963 0.950 . S
C2942 H2938 0.949 . S
C2942 C2950 1.574 . S
C2942 C2958 1.368 . S
H2943 C2951 0.950 . S
H2944 C2949 0.950 . S
H2945 C2950 0.949 . S
H2946 C2952 0.950 . S
H2947 C2953 0.950 . S
H2948 C2954 0.949 . S
C2949 H2944 0.950 . S
C2949 C2951 1.327 . S
C2949 C2955 1.429 . S
C2950 C2942 1.574 . S
C2950 H2945 0.949 . S
C2950 C2956 1.368 . S
C2951 C2935 1.349 . S
C2951 H2943 0.950 . S
C2951 C2949 1.327 . S
C2952 C2940 1.349 . S
C2952 H2946 0.950 . S
C2952 C2953 1.327 . S
C2953 H2947 0.950 . S
C2953 C2952 1.327 . S
C2953 C2957 1.429 . S
C2954 C2937 1.574 . S
C2954 H2948 0.949 . S
C2954 C2958 1.368 . S
C2955 C2936 1.429 . S
C2955 C2949 1.429 . S
C2955 C2956 1.523 . S
C2956 C2937 1.368 . S
C2956 C2950 1.368 . S
C2956 C2955 1.523 . S
C2957 C2941 1.429 . S
C2957 C2953 1.429 . S
C2957 C2958 1.523 . S
C2958 C2942 1.368 . S
C2958 C2954 1.368 . S
C2958 C2957 1.523 . S
H2959 C2934 0.950 . S
H2960 C2936 0.950 . S
H2961 C2937 0.949 . S
H2962 C2939 0.950 . S
H2963 C2941 0.950 . S
C2964 C2965 1.349 . S
C2964 C2966 1.327 . S
C2964 H2989 0.950 . S
C2965 C2964 1.349 . S
C2965 C2981 1.349 . S
C2966 C2964 1.327 . S
C2966 C2985 1.429 . S
C2966 H2990 0.950 . S
C2967 C2984 1.574 . S
C2967 C2986 1.368 1_455 S
C2967 H2991 0.949 . S
H2968 C2972 0.949 . S
C2969 C2970 1.349 . S
C2969 C2971 1.327 . S
C2969 H2992 0.950 . S
C2970 C2969 1.349 . S
C2970 C2982 1.349 . S
C2971 C2969 1.327 . S
C2971 C2987 1.429 . S
C2971 H2993 0.950 . S
C2972 H2968 0.949 . S
C2972 C2980 1.574 1_455 S
C2972 C2988 1.368 . S
H2973 C2981 0.950 . S
H2974 C2979 0.950 . S
H2975 C2980 0.949 . S
H2976 C2982 0.950 . S
H2977 C2983 0.950 . S
H2978 C2984 0.949 . S
C2979 H2974 0.950 . S
C2979 C2981 1.327 . S
C2979 C2985 1.429 . S
C2980 C2972 1.574 1_655 S
C2980 H2975 0.949 . S
C2980 C2986 1.368 . S
C2981 C2965 1.349 . S
C2981 H2973 0.950 . S
C2981 C2979 1.327 . S
C2982 C2970 1.349 . S
C2982 H2976 0.950 . S
C2982 C2983 1.327 . S
C2983 H2977 0.950 . S
C2983 C2982 1.327 . S
C2983 C2987 1.429 . S
C2984 C2967 1.574 . S
C2984 H2978 0.949 . S
C2984 C2988 1.368 . S
C2985 C2966 1.429 . S
C2985 C2979 1.429 . S
C2985 C2986 1.523 . S
C2986 C2967 1.368 1_655 S
C2986 C2980 1.368 . S
C2986 C2985 1.523 . S
C2987 C2971 1.429 . S
C2987 C2983 1.429 . S
C2987 C2988 1.523 . S
C2988 C2972 1.368 . S
C2988 C2984 1.368 . S
C2988 C2987 1.523 . S
H2989 C2964 0.950 . S
H2990 C2966 0.950 . S
H2991 C2967 0.949 . S
H2992 C2969 0.950 . S
H2993 C2971 0.950 . S
C2994 C2995 1.349 . S
C2994 C2996 1.327 . S
C2994 H3019 0.950 . S
C2995 C2994 1.349 . S
C2995 C3011 1.349 . S
C2996 C2994 1.327 . S
C2996 C3015 1.429 . S
C2996 H3020 0.950 . S
C2997 C3014 1.574 . S
C2997 C3016 1.368 . S
C2997 H3021 0.949 . S
H2998 C3002 0.949 . S
C2999 C3000 1.349 . S
C2999 C3001 1.327 . S
C2999 H3022 0.950 . S
C3000 C2999 1.349 . S
C3000 C3012 1.349 . S
C3001 C2999 1.327 . S
C3001 C3017 1.429 . S
C3001 H3023 0.950 . S
C3002 H2998 0.949 . S
C3002 C3010 1.574 . S
C3002 C3018 1.368 . S
H3003 C3011 0.950 . S
H3004 C3009 0.950 . S
H3005 C3010 0.949 . S
H3006 C3012 0.950 . S
H3007 C3013 0.950 . S
H3008 C3014 0.949 . S
C3009 H3004 0.950 . S
C3009 C3011 1.327 . S
C3009 C3015 1.429 . S
C3010 C3002 1.574 . S
C3010 H3005 0.949 . S
C3010 C3016 1.368 . S
C3011 C2995 1.349 . S
C3011 H3003 0.950 . S
C3011 C3009 1.327 . S
C3012 C3000 1.349 . S
C3012 H3006 0.950 . S
C3012 C3013 1.327 . S
C3013 H3007 0.950 . S
C3013 C3012 1.327 . S
C3013 C3017 1.429 . S
C3014 C2997 1.574 . S
C3014 H3008 0.949 . S
C3014 C3018 1.368 . S
C3015 C2996 1.429 . S
C3015 C3009 1.429 . S
C3015 C3016 1.523 . S
C3016 C2997 1.368 . S
C3016 C3010 1.368 . S
C3016 C3015 1.523 . S
C3017 C3001 1.429 . S
C3017 C3013 1.429 . S
C3017 C3018 1.523 . S
C3018 C3002 1.368 . S
C3018 C3014 1.368 . S
C3018 C3017 1.523 . S
H3019 C2994 0.950 . S
H3020 C2996 0.950 . S
H3021 C2997 0.949 . S
H3022 C2999 0.950 . S
H3023 C3001 0.950 . S
C3024 C3025 1.349 . S
C3024 C3026 1.327 . S
C3024 H3049 0.950 . S
C3025 C3024 1.349 . S
C3025 C3041 1.349 . S
C3026 C3024 1.327 . S
C3026 C3045 1.429 . S
C3026 H3050 1.021 . S
C3027 C3044 1.573 1_545 S
C3027 C3046 1.368 . S
C3027 H3051 0.949 . S
H3028 C3032 0.949 . S
C3029 C3030 1.349 . S
C3029 C3031 1.327 . S
C3029 H3052 0.950 . S
C3030 C3029 1.349 . S
C3030 C3042 1.349 . S
C3031 C3029 1.327 . S
C3031 C3047 1.429 . S
C3031 H3053 0.950 . S
C3032 H3028 0.949 . S
C3032 C3040 1.574 . S
C3032 C3048 1.368 . S
H3033 C3041 0.950 . S
H3034 C3039 0.950 . S
H3035 C3040 0.949 . S
H3036 C3042 0.950 . S
H3037 C3043 0.950 . S
H3038 C3044 0.949 1_545 S
C3039 H3034 0.950 . S
C3039 C3041 1.327 . S
C3039 C3045 1.429 . S
C3040 C3032 1.574 . S
C3040 H3035 0.949 . S
C3040 C3046 1.368 1_565 S
C3041 C3025 1.349 . S
C3041 H3033 0.950 . S
C3041 C3039 1.327 . S
C3042 C3030 1.349 . S
C3042 H3036 0.950 . S
C3042 C3043 1.327 . S
C3043 H3037 0.950 . S
C3043 C3042 1.327 . S
C3043 C3047 1.429 . S
C3044 C3027 1.573 1_565 S
C3044 H3038 0.949 1_565 S
C3044 C3048 1.369 . S
C3045 C3026 1.429 . S
C3045 C3039 1.429 . S
C3045 C3046 1.523 . S
C3046 C3027 1.368 . S
C3046 C3040 1.368 1_545 S
C3046 C3045 1.523 . S
C3047 C3031 1.429 . S
C3047 C3043 1.429 . S
C3047 C3048 1.523 . S
C3048 C3032 1.368 . S
C3048 C3044 1.369 . S
C3048 C3047 1.523 . S
H3049 C3024 0.950 . S
H3050 C3026 1.021 . S
H3051 C3027 0.949 . S
H3052 C3029 0.950 . S
H3053 C3031 0.950 . S
C3054 C3055 1.349 . S
C3054 C3056 1.327 . S
C3054 H3079 0.950 . S
C3055 C3054 1.349 . S
C3055 C3071 1.349 . S
C3056 C3054 1.327 . S
C3056 C3075 1.429 . S
C3056 H3080 0.950 . S
C3057 C3074 1.574 . S
C3057 C3076 1.368 . S
C3057 H3081 0.949 . S
H3058 C3062 0.949 . S
C3059 C3060 1.349 . S
C3059 C3061 1.327 . S
C3059 H3082 0.950 . S
C3060 C3059 1.349 . S
C3060 C3072 1.349 . S
C3061 C3059 1.327 . S
C3061 C3077 1.429 . S
C3061 H3083 0.950 . S
C3062 H3058 0.949 . S
C3062 C3070 1.574 . S
C3062 C3078 1.368 . S
H3063 C3071 0.950 . S
H3064 C3069 0.950 . S
H3065 C3070 0.949 . S
H3066 C3072 0.950 . S
H3067 C3073 0.950 . S
H3068 C3074 0.949 . S
C3069 H3064 0.950 . S
C3069 C3071 1.327 . S
C3069 C3075 1.429 . S
C3070 C3062 1.574 . S
C3070 H3065 0.949 . S
C3070 C3076 1.368 . S
C3071 C3055 1.349 . S
C3071 H3063 0.950 . S
C3071 C3069 1.327 . S
C3072 C3060 1.349 . S
C3072 H3066 0.950 . S
C3072 C3073 1.327 . S
C3073 H3067 0.950 . S
C3073 C3072 1.327 . S
C3073 C3077 1.429 . S
C3074 C3057 1.574 . S
C3074 H3068 0.949 . S
C3074 C3078 1.368 . S
C3075 C3056 1.429 . S
C3075 C3069 1.429 . S
C3075 C3076 1.523 . S
C3076 C3057 1.368 . S
C3076 C3070 1.368 . S
C3076 C3075 1.523 . S
C3077 C3061 1.429 . S
C3077 C3073 1.429 . S
C3077 C3078 1.523 . S
C3078 C3062 1.368 . S
C3078 C3074 1.368 . S
C3078 C3077 1.523 . S
H3079 C3054 0.950 . S
H3080 C3056 0.950 . S
H3081 C3057 0.949 . S
H3082 C3059 0.950 . S
H3083 C3061 0.950 . S
C3084 C3085 1.349 . S
C3084 C3086 1.327 . S
C3084 H3109 0.950 . S
C3085 C3084 1.349 . S
C3085 C3101 1.349 . S
C3086 C3084 1.327 . S
C3086 C3105 1.429 . S
C3086 H3110 0.950 . S
C3087 C3104 1.574 . S
C3087 C3106 1.368 . S
C3087 H3111 0.949 . S
H3088 C3092 0.949 . S
C3089 C3090 1.349 . S
C3089 C3091 1.327 . S
C3089 H3112 0.950 . S
C3090 C3089 1.349 . S
C3090 C3102 1.349 . S
C3091 C3089 1.327 . S
C3091 C3107 1.429 . S
C3091 H3113 0.950 . S
C3092 H3088 0.949 . S
C3092 C3100 1.574 . S
C3092 C3108 1.368 . S
H3093 C3101 0.950 . S
H3094 C3099 0.950 . S
H3095 C3100 0.949 . S
H3096 C3102 0.950 . S
H3097 C3103 0.950 . S
H3098 C3104 0.949 . S
C3099 H3094 0.950 . S
C3099 C3101 1.327 . S
C3099 C3105 1.429 . S
C3100 C3092 1.574 . S
C3100 H3095 0.949 . S
C3100 C3106 1.368 . S
C3101 C3085 1.349 . S
C3101 H3093 0.950 . S
C3101 C3099 1.327 . S
C3102 C3090 1.349 . S
C3102 H3096 0.950 . S
C3102 C3103 1.327 . S
C3103 H3097 0.950 . S
C3103 C3102 1.327 . S
C3103 C3107 1.429 . S
C3104 C3087 1.574 . S
C3104 H3098 0.949 . S
C3104 C3108 1.368 . S
C3105 C3086 1.429 . S
C3105 C3099 1.429 . S
C3105 C3106 1.523 . S
C3106 C3087 1.368 . S
C3106 C3100 1.368 . S
C3106 C3105 1.523 . S
C3107 C3091 1.429 . S
C3107 C3103 1.429 . S
C3107 C3108 1.523 . S
C3108 C3092 1.368 . S
C3108 C3104 1.368 . S
C3108 C3107 1.523 . S
H3109 C3084 0.950 . S
H3110 C3086 0.950 . S
H3111 C3087 0.949 . S
H3112 C3089 0.950 . S
H3113 C3091 0.950 . S
C3114 C3115 1.349 . S
C3114 C3116 1.327 . S
C3114 H3139 0.950 . S
C3115 C3114 1.349 . S
C3115 C3131 1.349 . S
C3116 C3114 1.327 . S
C3116 C3135 1.429 . S
C3116 H3140 0.950 . S
C3117 C3134 1.574 . S
C3117 C3136 1.368 . S
C3117 H3141 0.949 . S
H3118 C3122 0.949 . S
C3119 C3120 1.349 . S
C3119 C3121 1.327 . S
C3119 H3142 0.950 . S
C3120 C3119 1.349 . S
C3120 C3132 1.349 . S
C3121 C3119 1.327 . S
C3121 C3137 1.429 . S
C3121 H3143 0.987 . S
C3122 H3118 0.949 . S
C3122 C3130 1.575 . S
C3122 C3138 1.368 . S
H3123 C3131 0.950 . S
H3124 C3129 0.950 . S
H3125 C3130 0.950 . S
H3126 C3132 0.950 . S
H3127 C3133 0.950 . S
H3128 C3134 0.949 . S
C3129 H3124 0.950 . S
C3129 C3131 1.327 . S
C3129 C3135 1.429 . S
C3130 C3122 1.575 . S
C3130 H3125 0.950 . S
C3130 C3136 1.366 1_556 S
C3131 C3115 1.349 . S
C3131 H3123 0.950 . S
C3131 C3129 1.327 . S
C3132 C3120 1.349 . S
C3132 H3126 0.950 . S
C3132 C3133 1.327 . S
C3133 H3127 0.950 . S
C3133 C3132 1.327 . S
C3133 C3137 1.429 . S
C3134 C3117 1.574 . S
C3134 H3128 0.949 . S
C3134 C3138 1.368 1_554 S
C3135 C3116 1.429 . S
C3135 C3129 1.429 . S
C3135 C3136 1.523 . S
C3136 C3117 1.368 . S
C3136 C3130 1.366 1_554 S
C3136 C3135 1.523 . S
C3137 C3121 1.429 . S
C3137 C3133 1.429 . S
C3137 C3138 1.523 . S
C3138 C3122 1.368 . S
C3138 C3134 1.368 1_556 S
C3138 C3137 1.523 . S
H3139 C3114 0.950 . S
H3140 C3116 0.950 . S
H3141 C3117 0.949 . S
H3142 C3119 0.950 . S
H3143 C3121 0.987 . S
C3144 C3145 1.349 . S
C3144 C3146 1.327 . S
C3144 H3169 0.950 . S
C3145 C3144 1.349 . S
C3145 C3161 1.349 . S
C3146 C3144 1.327 . S
C3146 C3165 1.429 . S
C3146 H3170 0.950 . S
C3147 C3164 1.574 1_545 S
C3147 C3166 1.368 . S
C3147 H3171 0.949 . S
H3148 C3152 0.949 . S
C3149 C3150 1.349 . S
C3149 C3151 1.327 . S
C3149 H3172 0.950 . S
C3150 C3149 1.349 . S
C3150 C3162 1.349 . S
C3151 C3149 1.327 . S
C3151 C3167 1.429 . S
C3151 H3173 0.950 . S
C3152 H3148 0.949 . S
C3152 C3160 1.574 . S
C3152 C3168 1.368 1_545 S
H3153 C3161 0.950 . S
H3154 C3159 0.950 . S
H3155 C3160 0.949 . S
H3156 C3162 0.950 . S
H3157 C3163 0.950 . S
H3158 C3164 0.949 . S
C3159 H3154 0.950 . S
C3159 C3161 1.327 . S
C3159 C3165 1.429 . S
C3160 C3152 1.574 . S
C3160 H3155 0.949 . S
C3160 C3166 1.368 . S
C3161 C3145 1.349 . S
C3161 H3153 0.950 . S
C3161 C3159 1.327 . S
C3162 C3150 1.349 . S
C3162 H3156 0.950 . S
C3162 C3163 1.327 . S
C3163 H3157 0.950 . S
C3163 C3162 1.327 . S
C3163 C3167 1.429 . S
C3164 C3147 1.574 1_565 S
C3164 H3158 0.949 . S
C3164 C3168 1.368 . S
C3165 C3146 1.429 . S
C3165 C3159 1.429 . S
C3165 C3166 1.523 . S
C3166 C3147 1.368 . S
C3166 C3160 1.368 . S
C3166 C3165 1.523 . S
C3167 C3151 1.429 . S
C3167 C3163 1.429 . S
C3167 C3168 1.523 . S
C3168 C3152 1.368 1_565 S
C3168 C3164 1.368 . S
C3168 C3167 1.523 . S
H3169 C3144 0.950 . S
H3170 C3146 0.950 . S
H3171 C3147 0.949 . S
H3172 C3149 0.950 . S
H3173 C3151 0.950 . S
C3174 C3175 1.349 . S
C3174 C3176 1.327 . S
C3174 H3199 0.950 . S
C3175 C3174 1.349 . S
C3175 C3191 1.349 . S
C3176 C3174 1.327 . S
C3176 C3195 1.429 . S
C3176 H3200 0.950 . S
C3177 C3194 1.574 . S
C3177 C3196 1.368 1_556 S
C3177 H3201 0.949 . S
H3178 C3182 0.949 . S
C3179 C3180 1.349 . S
C3179 C3181 1.327 . S
C3179 H3202 0.950 . S
C3180 C3179 1.349 . S
C3180 C3192 1.349 . S
C3181 C3179 1.327 . S
C3181 C3197 1.429 . S
C3181 H3203 0.950 . S
C3182 H3178 0.949 . S
C3182 C3190 1.574 1_556 S
C3182 C3198 1.368 . S
H3183 C3191 0.950 . S
H3184 C3189 0.950 . S
H3185 C3190 0.949 . S
H3186 C3192 0.950 . S
H3187 C3193 0.950 . S
H3188 C3194 0.949 . S
C3189 H3184 0.950 . S
C3189 C3191 1.327 . S
C3189 C3195 1.429 . S
C3190 C3182 1.574 1_554 S
C3190 H3185 0.949 . S
C3190 C3196 1.368 . S
C3191 C3175 1.349 . S
C3191 H3183 0.950 . S
C3191 C3189 1.327 . S
C3192 C3180 1.349 . S
C3192 H3186 0.950 . S
C3192 C3193 1.327 . S
C3193 H3187 0.950 . S
C3193 C3192 1.327 . S
C3193 C3197 1.429 . S
C3194 C3177 1.574 . S
C3194 H3188 0.949 . S
C3194 C3198 1.368 . S
C3195 C3176 1.429 . S
C3195 C3189 1.429 . S
C3195 C3196 1.523 . S
C3196 C3177 1.368 1_554 S
C3196 C3190 1.368 . S
C3196 C3195 1.523 . S
C3197 C3181 1.429 . S
C3197 C3193 1.429 . S
C3197 C3198 1.523 . S
C3198 C3182 1.368 . S
C3198 C3194 1.368 . S
C3198 C3197 1.523 . S
H3199 C3174 0.950 . S
H3200 C3176 0.950 . S
H3201 C3177 0.949 . S
H3202 C3179 0.950 . S
H3203 C3181 0.950 . S
C3204 C3205 1.349 . S
C3204 C3206 1.327 . S
C3204 H3229 0.950 . S
C3205 C3204 1.349 . S
C3205 C3221 1.349 . S
C3206 C3204 1.327 . S
C3206 C3225 1.429 . S
C3206 H3230 0.950 . S
C3207 C3224 1.574 . S
C3207 C3226 1.368 . S
C3207 H3231 0.949 . S
H3208 C3212 0.949 . S
C3209 C3210 1.349 . S
C3209 C3211 1.327 . S
C3209 H3232 0.950 . S
C3210 C3209 1.349 . S
C3210 C3222 1.349 . S
C3211 C3209 1.327 . S
C3211 C3227 1.429 . S
C3211 H3233 0.950 . S
C3212 H3208 0.949 . S
C3212 C3220 1.574 . S
C3212 C3228 1.368 . S
H3213 C3221 0.950 . S
H3214 C3219 0.950 . S
H3215 C3220 0.949 . S
H3216 C3222 0.950 . S
H3217 C3223 0.950 . S
H3218 C3224 0.949 . S
C3219 H3214 0.950 . S
C3219 C3221 1.327 . S
C3219 C3225 1.429 . S
C3220 C3212 1.574 . S
C3220 H3215 0.949 . S
C3220 C3226 1.368 . S
C3221 C3205 1.349 . S
C3221 H3213 0.950 . S
C3221 C3219 1.327 . S
C3222 C3210 1.349 . S
C3222 H3216 0.950 . S
C3222 C3223 1.327 . S
C3223 H3217 0.950 . S
C3223 C3222 1.327 . S
C3223 C3227 1.429 . S
C3224 C3207 1.574 . S
C3224 H3218 0.949 . S
C3224 C3228 1.368 . S
C3225 C3206 1.429 . S
C3225 C3219 1.429 . S
C3225 C3226 1.523 . S
C3226 C3207 1.368 . S
C3226 C3220 1.368 . S
C3226 C3225 1.523 . S
C3227 C3211 1.429 . S
C3227 C3223 1.429 . S
C3227 C3228 1.523 . S
C3228 C3212 1.368 . S
C3228 C3224 1.368 . S
C3228 C3227 1.523 . S
H3229 C3204 0.950 . S
H3230 C3206 0.950 . S
H3231 C3207 0.949 . S
H3232 C3209 0.950 . S
H3233 C3211 0.950 . S
C3234 C3235 1.349 . S
C3234 C3236 1.327 . S
C3234 H3259 0.950 . S
C3235 C3234 1.349 . S
C3235 C3251 1.349 . S
C3236 C3234 1.327 . S
C3236 C3255 1.429 . S
C3236 H3260 0.950 . S
C3237 C3254 1.574 . S
C3237 C3256 1.368 . S
C3237 H3261 0.949 . S
H3238 C3242 0.949 . S
C3239 C3240 1.349 . S
C3239 C3241 1.327 . S
C3239 H3262 0.950 . S
C3240 C3239 1.349 . S
C3240 C3252 1.349 . S
C3241 C3239 1.327 . S
C3241 C3257 1.429 . S
C3241 H3263 0.950 . S
C3242 H3238 0.949 . S
C3242 C3250 1.574 . S
C3242 C3258 1.368 . S
H3243 C3251 0.950 . S
H3244 C3249 0.950 . S
H3245 C3250 0.949 . S
H3246 C3252 0.950 . S
H3247 C3253 0.950 . S
H3248 C3254 0.949 . S
C3249 H3244 0.950 . S
C3249 C3251 1.327 . S
C3249 C3255 1.429 . S
C3250 C3242 1.574 . S
C3250 H3245 0.949 . S
C3250 C3256 1.368 . S
C3251 C3235 1.349 . S
C3251 H3243 0.950 . S
C3251 C3249 1.327 . S
C3252 C3240 1.349 . S
C3252 H3246 0.950 . S
C3252 C3253 1.327 . S
C3253 H3247 0.950 . S
C3253 C3252 1.327 . S
C3253 C3257 1.429 . S
C3254 C3237 1.574 . S
C3254 H3248 0.949 . S
C3254 C3258 1.368 . S
C3255 C3236 1.429 . S
C3255 C3249 1.429 . S
C3255 C3256 1.523 . S
C3256 C3237 1.368 . S
C3256 C3250 1.368 . S
C3256 C3255 1.523 . S
C3257 C3241 1.429 . S
C3257 C3253 1.429 . S
C3257 C3258 1.523 . S
C3258 C3242 1.368 . S
C3258 C3254 1.368 . S
C3258 C3257 1.523 . S
H3259 C3234 0.950 . S
H3260 C3236 0.950 . S
H3261 C3237 0.949 . S
H3262 C3239 0.950 . S
H3263 C3241 0.950 . S
C3264 C3265 1.349 . S
C3264 C3266 1.327 . S
C3264 H3289 0.950 . S
C3265 C3264 1.349 . S
C3265 C3281 1.349 . S
C3266 C3264 1.327 . S
C3266 C3285 1.429 . S
C3266 H3290 0.950 . S
C3267 C3284 1.614 . S
C3267 C3286 1.307 1_554 S
C3267 H3291 0.971 . S
H3268 C3272 0.949 . S
C3269 C3270 1.349 . S
C3269 C3271 1.327 . S
C3269 H3292 0.950 . S
C3270 C3269 1.349 . S
C3270 C3282 1.349 . S
C3271 C3269 1.327 . S
C3271 C3287 1.429 . S
C3271 H3293 0.950 . S
C3272 H3268 0.949 . S
C3272 C3280 1.574 . S
C3272 C3288 1.368 1_556 S
H3273 C3281 0.950 . S
H3274 C3279 0.950 . S
H3275 C3280 0.949 . S
H3276 C3282 0.950 . S
H3277 C3283 0.911 1_556 S
H3278 C3284 0.949 . S
C3279 H3274 0.950 . S
C3279 C3281 1.327 . S
C3279 C3285 1.429 . S
C3280 C3272 1.574 . S
C3280 H3275 0.949 . S
C3280 C3286 1.368 . S
C3281 C3265 1.349 . S
C3281 H3273 0.950 . S
C3281 C3279 1.327 . S
C3282 C3270 1.349 . S
C3282 H3276 0.950 . S
C3282 C3283 1.327 . S
C3283 H3277 0.911 1_554 S
C3283 C3282 1.327 . S
C3283 C3287 1.429 . S
C3284 C3267 1.614 . S
C3284 H3278 0.949 . S
C3284 C3288 1.368 . S
C3285 C3266 1.429 . S
C3285 C3279 1.429 . S
C3285 C3286 1.523 . S
C3286 C3267 1.307 1_556 S
C3286 C3280 1.368 . S
C3286 C3285 1.523 . S
C3287 C3271 1.429 . S
C3287 C3283 1.429 . S
C3287 C3288 1.523 . S
C3288 C3272 1.368 1_554 S
C3288 C3284 1.368 . S
C3288 C3287 1.523 . S
H3289 C3264 0.950 . S
H3290 C3266 0.950 . S
H3291 C3267 0.971 . S
H3292 C3269 0.950 . S
H3293 C3271 0.950 . S
C3294 C3295 1.349 . S
C3294 C3296 1.327 . S
C3294 H3319 0.950 . S
C3295 C3294 1.349 . S
C3295 C3311 1.349 . S
C3296 C3294 1.327 . S
C3296 C3315 1.429 . S
C3296 H3320 0.950 . S
C3297 C3314 1.574 . S
C3297 C3316 1.368 . S
C3297 H3321 0.949 . S
H3298 C3302 0.949 . S
C3299 C3300 1.349 . S
C3299 C3301 1.327 . S
C3299 H3322 0.950 . S
C3300 C3299 1.349 . S
C3300 C3312 1.349 . S
C3301 C3299 1.327 . S
C3301 C3317 1.429 . S
C3301 H3323 0.950 . S
C3302 H3298 0.949 . S
C3302 C3310 1.574 . S
C3302 C3318 1.368 . S
H3303 C3311 0.950 . S
H3304 C3309 0.950 . S
H3305 C3310 0.949 . S
H3306 C3312 0.950 . S
H3307 C3313 0.950 . S
H3308 C3314 0.949 . S
C3309 H3304 0.950 . S
C3309 C3311 1.327 . S
C3309 C3315 1.429 . S
C3310 C3302 1.574 . S
C3310 H3305 0.949 . S
C3310 C3316 1.368 . S
C3311 C3295 1.349 . S
C3311 H3303 0.950 . S
C3311 C3309 1.327 . S
C3312 C3300 1.349 . S
C3312 H3306 0.950 . S
C3312 C3313 1.327 . S
C3313 H3307 0.950 . S
C3313 C3312 1.327 . S
C3313 C3317 1.429 . S
C3314 C3297 1.574 . S
C3314 H3308 0.949 . S
C3314 C3318 1.368 . S
C3315 C3296 1.429 . S
C3315 C3309 1.429 . S
C3315 C3316 1.523 . S
C3316 C3297 1.368 . S
C3316 C3310 1.368 . S
C3316 C3315 1.523 . S
C3317 C3301 1.429 . S
C3317 C3313 1.429 . S
C3317 C3318 1.523 . S
C3318 C3302 1.368 . S
C3318 C3314 1.368 . S
C3318 C3317 1.523 . S
H3319 C3294 0.950 . S
H3320 C3296 0.950 . S
H3321 C3297 0.949 . S
H3322 C3299 0.950 . S
H3323 C3301 0.950 . S
C3324 C3325 1.349 . S
C3324 C3326 1.327 . S
C3324 H3349 0.950 . S
C3325 C3324 1.349 . S
C3325 C3341 1.349 . S
C3326 C3324 1.327 . S
C3326 C3345 1.429 . S
C3326 H3350 0.950 . S
C3327 C3344 1.574 . S
C3327 C3346 1.368 . S
C3327 H3351 0.949 . S
H3328 C3332 0.949 . S
C3329 C3330 1.349 . S
C3329 C3331 1.327 . S
C3329 H3352 0.950 . S
C3330 C3329 1.349 . S
C3330 C3342 1.349 . S
C3331 C3329 1.327 . S
C3331 C3347 1.429 . S
C3331 H3353 0.950 . S
C3332 H3328 0.949 . S
C3332 C3340 1.574 1_565 S
C3332 C3348 1.368 . S
H3333 C3341 0.950 . S
H3334 C3339 0.950 . S
H3335 C3340 0.949 . S
H3336 C3342 0.950 . S
H3337 C3343 0.950 . S
H3338 C3344 0.950 . S
C3339 H3334 0.950 . S
C3339 C3341 1.327 . S
C3339 C3345 1.429 . S
C3340 C3332 1.574 1_545 S
C3340 H3335 0.949 . S
C3340 C3346 1.368 . S
C3341 C3325 1.349 . S
C3341 H3333 0.950 . S
C3341 C3339 1.327 . S
C3342 C3330 1.349 . S
C3342 H3336 0.950 . S
C3342 C3343 1.327 . S
C3343 H3337 0.950 . S
C3343 C3342 1.327 . S
C3343 C3347 1.429 . S
C3344 C3327 1.574 . S
C3344 H3338 0.950 . S
C3344 C3348 1.368 1_545 S
C3345 C3326 1.429 . S
C3345 C3339 1.429 . S
C3345 C3346 1.523 . S
C3346 C3327 1.368 . S
C3346 C3340 1.368 . S
C3346 C3345 1.523 . S
C3347 C3331 1.429 . S
C3347 C3343 1.429 . S
C3347 C3348 1.523 . S
C3348 C3332 1.368 . S
C3348 C3344 1.368 1_565 S
C3348 C3347 1.523 . S
H3349 C3324 0.950 . S
H3350 C3326 0.950 . S
H3351 C3327 0.949 . S
H3352 C3329 0.950 . S
H3353 C3331 0.950 . S
C3354 C3355 1.349 . S
C3354 C3356 1.327 . S
C3354 H3379 0.950 . S
C3355 C3354 1.349 . S
C3355 C3371 1.349 . S
C3356 C3354 1.327 . S
C3356 C3375 1.429 . S
C3356 H3380 0.950 . S
C3357 C3374 1.525 1_556 S
C3357 C3376 1.388 . S
C3357 H3381 0.981 . S
H3358 C3362 0.949 . S
C3359 C3360 1.349 . S
C3359 C3361 1.327 . S
C3359 H3382 0.950 . S
C3360 C3359 1.349 . S
C3360 C3372 1.349 . S
C3361 C3359 1.327 . S
C3361 C3377 1.429 . S
C3361 H3383 0.950 . S
C3362 H3358 0.949 . S
C3362 C3370 1.558 1_554 S
C3362 C3378 1.368 . S
H3363 C3371 0.950 . S
H3364 C3369 0.950 . S
H3365 C3370 0.958 . S
H3366 C3372 0.950 . S
H3367 C3373 0.950 . S
H3368 C3374 0.949 . S
C3369 H3364 0.950 . S
C3369 C3371 1.327 . S
C3369 C3375 1.429 . S
C3370 C3362 1.558 1_556 S
C3370 H3365 0.958 . S
C3370 C3376 1.375 . S
C3371 C3355 1.349 . S
C3371 H3363 0.950 . S
C3371 C3369 1.327 . S
C3372 C3360 1.349 . S
C3372 H3366 0.950 . S
C3372 C3373 1.327 . S
C3373 H3367 0.950 . S
C3373 C3372 1.327 . S
C3373 C3377 1.429 . S
C3374 C3357 1.525 1_554 S
C3374 H3368 0.949 . S
C3374 C3378 1.368 . S
C3375 C3356 1.429 . S
C3375 C3369 1.429 . S
C3375 C3376 1.523 . S
C3376 C3357 1.388 . S
C3376 C3370 1.375 . S
C3376 C3375 1.523 . S
C3377 C3361 1.429 . S
C3377 C3373 1.429 . S
C3377 C3378 1.523 . S
C3378 C3362 1.368 . S
C3378 C3374 1.368 . S
C3378 C3377 1.523 . S
H3379 C3354 0.950 . S
H3380 C3356 0.950 . S
H3381 C3357 0.981 . S
H3382 C3359 0.950 . S
H3383 C3361 0.950 . S
C3384 C3385 1.349 . S
C3384 C3386 1.327 . S
C3384 H3409 0.950 . S
C3385 C3384 1.349 . S
C3385 C3401 1.349 . S
C3386 C3384 1.327 . S
C3386 C3405 1.429 . S
C3386 H3410 0.945 . S
C3387 C3404 1.592 . S
C3387 C3406 1.368 . S
C3387 H3411 0.949 . S
H3388 C3392 0.949 . S
C3389 C3390 1.349 . S
C3389 C3391 1.327 . S
C3389 H3412 0.950 . S
C3390 C3389 1.349 . S
C3390 C3402 1.349 . S
C3391 C3389 1.327 . S
C3391 C3407 1.429 . S
C3391 H3413 0.950 . S
C3392 H3388 0.949 . S
C3392 C3400 1.574 . S
C3392 C3408 1.368 . S
H3393 C3401 0.950 . S
H3394 C3399 0.950 . S
H3395 C3400 0.949 . S
H3396 C3402 0.950 . S
H3397 C3403 0.950 . S
H3398 C3404 0.958 . S
C3399 H3394 0.950 . S
C3399 C3401 1.327 . S
C3399 C3405 1.429 . S
C3400 C3392 1.574 . S
C3400 H3395 0.949 . S
C3400 C3406 1.368 1_556 S
C3401 C3385 1.349 . S
C3401 H3393 0.950 . S
C3401 C3399 1.327 . S
C3402 C3390 1.349 . S
C3402 H3396 0.950 . S
C3402 C3403 1.327 . S
C3403 H3397 0.950 . S
C3403 C3402 1.327 . S
C3403 C3407 1.429 . S
C3404 C3387 1.592 . S
C3404 H3398 0.958 . S
C3404 C3408 1.341 1_554 S
C3405 C3386 1.429 . S
C3405 C3399 1.429 . S
C3405 C3406 1.523 . S
C3406 C3387 1.368 . S
C3406 C3400 1.368 1_554 S
C3406 C3405 1.523 . S
C3407 C3391 1.429 . S
C3407 C3403 1.429 . S
C3407 C3408 1.523 . S
C3408 C3392 1.368 . S
C3408 C3404 1.341 1_556 S
C3408 C3407 1.523 . S
H3409 C3384 0.950 . S
H3410 C3386 0.945 . S
H3411 C3387 0.949 . S
H3412 C3389 0.950 . S
H3413 C3391 0.950 . S
C3414 C3415 1.349 . S
C3414 C3416 1.327 . S
C3414 H3439 0.950 . S
C3415 C3414 1.349 . S
C3415 C3431 1.349 . S
C3416 C3414 1.327 . S
C3416 C3435 1.429 . S
C3416 H3440 0.950 . S
C3417 C3434 1.574 . S
C3417 C3436 1.368 . S
C3417 H3441 0.949 . S
H3418 C3422 0.949 . S
C3419 C3420 1.349 . S
C3419 C3421 1.327 . S
C3419 H3442 0.950 . S
C3420 C3419 1.349 . S
C3420 C3432 1.349 . S
C3421 C3419 1.327 . S
C3421 C3437 1.429 . S
C3421 H3443 0.950 . S
C3422 H3418 0.949 . S
C3422 C3430 1.574 . S
C3422 C3438 1.368 . S
H3423 C3431 0.950 . S
H3424 C3429 0.950 . S
H3425 C3430 0.949 . S
H3426 C3432 0.950 . S
H3427 C3433 0.950 . S
H3428 C3434 0.949 . S
C3429 H3424 0.950 . S
C3429 C3431 1.327 . S
C3429 C3435 1.429 . S
C3430 C3422 1.574 . S
C3430 H3425 0.949 . S
C3430 C3436 1.368 . S
C3431 C3415 1.349 . S
C3431 H3423 0.950 . S
C3431 C3429 1.327 . S
C3432 C3420 1.349 . S
C3432 H3426 0.950 . S
C3432 C3433 1.327 . S
C3433 H3427 0.950 . S
C3433 C3432 1.327 . S
C3433 C3437 1.429 . S
C3434 C3417 1.574 . S
C3434 H3428 0.949 . S
C3434 C3438 1.368 . S
C3435 C3416 1.429 . S
C3435 C3429 1.429 . S
C3435 C3436 1.523 . S
C3436 C3417 1.368 . S
C3436 C3430 1.368 . S
C3436 C3435 1.523 . S
C3437 C3421 1.429 . S
C3437 C3433 1.429 . S
C3437 C3438 1.523 . S
C3438 C3422 1.368 . S
C3438 C3434 1.368 . S
C3438 C3437 1.523 . S
H3439 C3414 0.950 . S
H3440 C3416 0.950 . S
H3441 C3417 0.949 . S
H3442 C3419 0.950 . S
H3443 C3421 0.950 . S
C3444 C3445 1.349 . S
C3444 C3446 1.327 . S
C3444 H3469 0.950 . S
C3445 C3444 1.349 . S
C3445 C3461 1.349 . S
C3446 C3444 1.327 . S
C3446 C3465 1.429 . S
C3446 H3470 0.950 . S
C3447 C3464 1.552 1_565 S
C3447 C3466 1.368 . S
C3447 H3471 0.949 . S
H3448 C3452 0.949 . S
C3449 C3450 1.349 . S
C3449 C3451 1.327 . S
C3449 H3472 0.950 . S
C3450 C3449 1.349 . S
C3450 C3462 1.349 . S
C3451 C3449 1.327 . S
C3451 C3467 1.429 . S
C3451 H3473 0.950 . S
C3452 H3448 0.949 . S
C3452 C3460 1.574 . S
C3452 C3468 1.368 . S
H3453 C3461 0.950 . S
H3454 C3459 0.950 . S
H3455 C3460 0.949 . S
H3456 C3462 0.950 . S
H3457 C3463 0.950 . S
H3458 C3464 0.942 1_565 S
C3459 H3454 0.950 . S
C3459 C3461 1.327 . S
C3459 C3465 1.429 . S
C3460 C3452 1.574 . S
C3460 H3455 0.949 . S
C3460 C3466 1.368 1_545 S
C3461 C3445 1.349 . S
C3461 H3453 0.950 . S
C3461 C3459 1.327 . S
C3462 C3450 1.349 . S
C3462 H3456 0.950 . S
C3462 C3463 1.327 . S
C3463 H3457 0.950 . S
C3463 C3462 1.327 . S
C3463 C3467 1.429 . S
C3464 C3447 1.552 1_545 S
C3464 H3458 0.942 1_545 S
C3464 C3468 1.400 . S
C3465 C3446 1.429 . S
C3465 C3459 1.429 . S
C3465 C3466 1.523 . S
C3466 C3447 1.368 . S
C3466 C3460 1.368 1_565 S
C3466 C3465 1.523 . S
C3467 C3451 1.429 . S
C3467 C3463 1.429 . S
C3467 C3468 1.523 . S
C3468 C3452 1.368 . S
C3468 C3464 1.400 . S
C3468 C3467 1.523 . S
H3469 C3444 0.950 . S
H3470 C3446 0.950 . S
H3471 C3447 0.949 . S
H3472 C3449 0.950 . S
H3473 C3451 0.950 . S
C3474 C3475 1.349 . S
C3474 C3476 1.327 . S
C3474 H3499 0.950 . S
C3475 C3474 1.349 . S
C3475 C3491 1.349 . S
C3476 C3474 1.327 . S
C3476 C3495 1.429 . S
C3476 H3500 0.950 . S
C3477 C3494 1.574 . S
C3477 C3496 1.368 1_655 S
C3477 H3501 0.949 . S
H3478 C3482 0.945 1_455 S
C3479 C3480 1.349 . S
C3479 C3481 1.327 . S
C3479 H3502 0.950 . S
C3480 C3479 1.349 . S
C3480 C3492 1.349 . S
C3481 C3479 1.327 . S
C3481 C3497 1.429 . S
C3481 H3503 0.950 . S
C3482 H3478 0.945 1_655 S
C3482 C3490 1.574 1_655 S
C3482 C3498 1.368 . S
H3483 C3491 0.950 . S
H3484 C3489 0.950 . S
H3485 C3490 0.949 . S
H3486 C3492 0.950 . S
H3487 C3493 0.950 . S
H3488 C3494 0.949 . S
C3489 H3484 0.950 . S
C3489 C3491 1.327 . S
C3489 C3495 1.429 . S
C3490 C3482 1.574 1_455 S
C3490 H3485 0.949 . S
C3490 C3496 1.368 . S
C3491 C3475 1.349 . S
C3491 H3483 0.950 . S
C3491 C3489 1.327 . S
C3492 C3480 1.349 . S
C3492 H3486 0.950 . S
C3492 C3493 1.327 . S
C3493 H3487 0.950 . S
C3493 C3492 1.327 . S
C3493 C3497 1.429 . S
C3494 C3477 1.574 . S
C3494 H3488 0.949 . S
C3494 C3498 1.368 . S
C3495 C3476 1.429 . S
C3495 C3489 1.429 . S
C3495 C3496 1.523 . S
C3496 C3477 1.368 1_455 S
C3496 C3490 1.368 . S
C3496 C3495 1.523 . S
C3497 C3481 1.429 . S
C3497 C3493 1.429 . S
C3497 C3498 1.523 . S
C3498 C3482 1.368 . S
C3498 C3494 1.368 . S
C3498 C3497 1.523 . S
H3499 C3474 0.950 . S
H3500 C3476 0.950 . S
H3501 C3477 0.949 . S
H3502 C3479 0.950 . S
H3503 C3481 0.950 . S
C3504 C3505 1.349 . S
C3504 C3506 1.327 . S
C3504 H3529 0.950 . S
C3505 C3504 1.349 . S
C3505 C3521 1.349 . S
C3506 C3504 1.327 . S
C3506 C3525 1.429 . S
C3506 H3530 0.950 . S
C3507 C3524 1.574 1_455 S
C3507 C3526 1.368 . S
C3507 H3531 0.949 . S
H3508 C3512 0.949 . S
C3509 C3510 1.349 . S
C3509 C3511 1.327 . S
C3509 H3532 0.950 . S
C3510 C3509 1.349 . S
C3510 C3522 1.349 . S
C3511 C3509 1.327 . S
C3511 C3527 1.429 . S
C3511 H3533 0.950 . S
C3512 H3508 0.949 . S
C3512 C3520 1.574 . S
C3512 C3528 1.368 1_455 S
H3513 C3521 0.950 . S
H3514 C3519 0.950 . S
H3515 C3520 0.949 . S
H3516 C3522 0.950 . S
H3517 C3523 0.950 . S
H3518 C3524 0.949 . S
C3519 H3514 0.950 . S
C3519 C3521 1.327 . S
C3519 C3525 1.429 . S
C3520 C3512 1.574 . S
C3520 H3515 0.949 . S
C3520 C3526 1.368 . S
C3521 C3505 1.349 . S
C3521 H3513 0.950 . S
C3521 C3519 1.327 . S
C3522 C3510 1.349 . S
C3522 H3516 0.950 . S
C3522 C3523 1.327 . S
C3523 H3517 0.950 . S
C3523 C3522 1.327 . S
C3523 C3527 1.429 . S
C3524 C3507 1.574 1_655 S
C3524 H3518 0.949 . S
C3524 C3528 1.368 . S
C3525 C3506 1.429 . S
C3525 C3519 1.429 . S
C3525 C3526 1.523 . S
C3526 C3507 1.368 . S
C3526 C3520 1.368 . S
C3526 C3525 1.523 . S
C3527 C3511 1.429 . S
C3527 C3523 1.429 . S
C3527 C3528 1.523 . S
C3528 C3512 1.368 1_655 S
C3528 C3524 1.368 . S
C3528 C3527 1.523 . S
H3529 C3504 0.950 . S
H3530 C3506 0.950 . S
H3531 C3507 0.949 . S
H3532 C3509 0.950 . S
H3533 C3511 0.950 . S
C3534 C3535 1.349 . S
C3534 C3536 1.327 . S
C3534 H3559 0.950 . S
C3535 C3534 1.349 . S
C3535 C3551 1.349 . S
C3536 C3534 1.327 . S
C3536 C3555 1.429 . S
C3536 H3560 0.950 . S
C3537 C3554 1.574 . S
C3537 C3556 1.368 . S
C3537 H3561 0.949 . S
H3538 C3542 0.949 . S
C3539 C3540 1.349 . S
C3539 C3541 1.327 . S
C3539 H3562 0.950 . S
C3540 C3539 1.349 . S
C3540 C3552 1.349 . S
C3541 C3539 1.327 . S
C3541 C3557 1.429 . S
C3541 H3563 0.950 . S
C3542 H3538 0.949 . S
C3542 C3550 1.574 . S
C3542 C3558 1.368 . S
H3543 C3551 0.950 . S
H3544 C3549 0.950 . S
H3545 C3550 0.949 . S
H3546 C3552 0.950 . S
H3547 C3553 0.950 . S
H3548 C3554 0.949 . S
C3549 H3544 0.950 . S
C3549 C3551 1.327 . S
C3549 C3555 1.429 . S
C3550 C3542 1.574 . S
C3550 H3545 0.949 . S
C3550 C3556 1.368 . S
C3551 C3535 1.349 . S
C3551 H3543 0.950 . S
C3551 C3549 1.327 . S
C3552 C3540 1.349 . S
C3552 H3546 0.950 . S
C3552 C3553 1.327 . S
C3553 H3547 0.950 . S
C3553 C3552 1.327 . S
C3553 C3557 1.429 . S
C3554 C3537 1.574 . S
C3554 H3548 0.949 . S
C3554 C3558 1.368 . S
C3555 C3536 1.429 . S
C3555 C3549 1.429 . S
C3555 C3556 1.523 . S
C3556 C3537 1.368 . S
C3556 C3550 1.368 . S
C3556 C3555 1.523 . S
C3557 C3541 1.429 . S
C3557 C3553 1.429 . S
C3557 C3558 1.523 . S
C3558 C3542 1.368 . S
C3558 C3554 1.368 . S
C3558 C3557 1.523 . S
H3559 C3534 0.950 . S
H3560 C3536 0.950 . S
H3561 C3537 0.949 . S
H3562 C3539 0.950 . S
H3563 C3541 0.950 . S
C3564 C3565 1.349 . S
C3564 C3566 1.327 . S
C3564 H3589 0.950 . S
C3565 C3564 1.349 . S
C3565 C3581 1.349 . S
C3566 C3564 1.327 . S
C3566 C3585 1.429 . S
C3566 H3590 0.950 . S
C3567 C3584 1.574 . S
C3567 C3586 1.368 . S
C3567 H3591 0.949 . S
H3568 C3572 0.949 . S
C3569 C3570 1.349 . S
C3569 C3571 1.327 . S
C3569 H3592 0.950 . S
C3570 C3569 1.349 . S
C3570 C3582 1.349 . S
C3571 C3569 1.327 . S
C3571 C3587 1.429 . S
C3571 H3593 0.950 . S
C3572 H3568 0.949 . S
C3572 C3580 1.574 . S
C3572 C3588 1.368 . S
H3573 C3581 0.950 . S
H3574 C3579 0.950 . S
H3575 C3580 0.949 . S
H3576 C3582 0.950 . S
H3577 C3583 0.950 . S
H3578 C3584 0.949 . S
C3579 H3574 0.950 . S
C3579 C3581 1.327 . S
C3579 C3585 1.429 . S
C3580 C3572 1.574 . S
C3580 H3575 0.949 . S
C3580 C3586 1.368 . S
C3581 C3565 1.349 . S
C3581 H3573 0.950 . S
C3581 C3579 1.327 . S
C3582 C3570 1.349 . S
C3582 H3576 0.950 . S
C3582 C3583 1.327 . S
C3583 H3577 0.950 . S
C3583 C3582 1.327 . S
C3583 C3587 1.429 . S
C3584 C3567 1.574 . S
C3584 H3578 0.949 . S
C3584 C3588 1.368 . S
C3585 C3566 1.429 . S
C3585 C3579 1.429 . S
C3585 C3586 1.523 . S
C3586 C3567 1.368 . S
C3586 C3580 1.368 . S
C3586 C3585 1.523 . S
C3587 C3571 1.429 . S
C3587 C3583 1.429 . S
C3587 C3588 1.523 . S
C3588 C3572 1.368 . S
C3588 C3584 1.368 . S
C3588 C3587 1.523 . S
H3589 C3564 0.950 . S
H3590 C3566 0.950 . S
H3591 C3567 0.949 . S
H3592 C3569 0.950 . S
H3593 C3571 0.950 . S
C3594 C3595 1.349 . S
C3594 C3596 1.327 . S
C3594 H3619 0.950 . S
C3595 C3594 1.349 . S
C3595 C3611 1.349 . S
C3596 C3594 1.327 . S
C3596 C3615 1.429 . S
C3596 H3620 0.950 . S
C3597 C3614 1.574 . S
C3597 C3616 1.368 . S
C3597 H3621 0.949 . S
H3598 C3602 0.949 . S
C3599 C3600 1.349 . S
C3599 C3601 1.327 . S
C3599 H3622 0.950 . S
C3600 C3599 1.349 . S
C3600 C3612 1.349 . S
C3601 C3599 1.327 . S
C3601 C3617 1.429 . S
C3601 H3623 0.950 . S
C3602 H3598 0.949 . S
C3602 C3610 1.574 . S
C3602 C3618 1.368 . S
H3603 C3611 0.950 . S
H3604 C3609 0.950 . S
H3605 C3610 0.949 . S
H3606 C3612 0.950 . S
H3607 C3613 0.950 . S
H3608 C3614 0.949 . S
C3609 H3604 0.950 . S
C3609 C3611 1.327 . S
C3609 C3615 1.429 . S
C3610 C3602 1.574 . S
C3610 H3605 0.949 . S
C3610 C3616 1.368 . S
C3611 C3595 1.349 . S
C3611 H3603 0.950 . S
C3611 C3609 1.327 . S
C3612 C3600 1.349 . S
C3612 H3606 0.950 . S
C3612 C3613 1.327 . S
C3613 H3607 0.950 . S
C3613 C3612 1.327 . S
C3613 C3617 1.429 . S
C3614 C3597 1.574 . S
C3614 H3608 0.949 . S
C3614 C3618 1.368 . S
C3615 C3596 1.429 . S
C3615 C3609 1.429 . S
C3615 C3616 1.523 . S
C3616 C3597 1.368 . S
C3616 C3610 1.368 . S
C3616 C3615 1.523 . S
C3617 C3601 1.429 . S
C3617 C3613 1.429 . S
C3617 C3618 1.523 . S
C3618 C3602 1.368 . S
C3618 C3614 1.368 . S
C3618 C3617 1.523 . S
H3619 C3594 0.950 . S
H3620 C3596 0.950 . S
H3621 C3597 0.949 . S
H3622 C3599 0.950 . S
H3623 C3601 0.950 . S
C3624 C3625 1.349 . S
C3624 C3626 1.327 . S
C3624 H3649 0.950 . S
C3625 C3624 1.349 . S
C3625 C3641 1.349 . S
C3626 C3624 1.327 . S
C3626 C3645 1.429 . S
C3626 H3650 0.950 . S
C3627 C3644 1.574 . S
C3627 C3646 1.368 . S
C3627 H3651 0.949 . S
H3628 C3632 0.949 . S
C3629 C3630 1.349 . S
C3629 C3631 1.327 . S
C3629 H3652 0.950 . S
C3630 C3629 1.349 . S
C3630 C3642 1.349 . S
C3631 C3629 1.327 . S
C3631 C3647 1.429 . S
C3631 H3653 0.916 1_556 S
C3632 H3628 0.949 . S
C3632 C3640 1.612 . S
C3632 C3648 1.368 . S
H3633 C3641 0.950 . S
H3634 C3639 0.950 . S
H3635 C3640 0.969 . S
H3636 C3642 0.950 . S
H3637 C3643 0.950 . S
H3638 C3644 0.949 . S
C3639 H3634 0.950 . S
C3639 C3641 1.327 . S
C3639 C3645 1.429 . S
C3640 C3632 1.612 . S
C3640 H3635 0.969 . S
C3640 C3646 1.311 1_556 S
C3641 C3625 1.349 . S
C3641 H3633 0.950 . S
C3641 C3639 1.327 . S
C3642 C3630 1.349 . S
C3642 H3636 0.950 . S
C3642 C3643 1.327 . S
C3643 H3637 0.950 . S
C3643 C3642 1.327 . S
C3643 C3647 1.429 . S
C3644 C3627 1.574 . S
C3644 H3638 0.949 . S
C3644 C3648 1.368 1_554 S
C3645 C3626 1.429 . S
C3645 C3639 1.429 . S
C3645 C3646 1.523 . S
C3646 C3627 1.368 . S
C3646 C3640 1.311 1_554 S
C3646 C3645 1.523 . S
C3647 C3631 1.429 . S
C3647 C3643 1.429 . S
C3647 C3648 1.523 . S
C3648 C3632 1.368 . S
C3648 C3644 1.368 1_556 S
C3648 C3647 1.523 . S
H3649 C3624 0.950 . S
H3650 C3626 0.950 . S
H3651 C3627 0.949 . S
H3652 C3629 0.950 . S
H3653 C3631 0.916 1_554 S
C3654 C3655 1.349 . S
C3654 C3656 1.327 . S
C3654 H3679 0.950 . S
C3655 C3654 1.349 . S
C3655 C3671 1.349 . S
C3656 C3654 1.327 . S
C3656 C3675 1.429 . S
C3656 H3680 0.950 . S
C3657 C3674 1.574 . S
C3657 C3676 1.368 1_545 S
C3657 H3681 0.949 . S
H3658 C3662 0.949 . S
C3659 C3660 1.349 . S
C3659 C3661 1.327 . S
C3659 H3682 0.950 . S
C3660 C3659 1.349 . S
C3660 C3672 1.349 . S
C3661 C3659 1.327 . S
C3661 C3677 1.429 . S
C3661 H3683 0.950 . S
C3662 H3658 0.949 . S
C3662 C3670 1.574 1_545 S
C3662 C3678 1.368 . S
H3663 C3671 0.950 . S
H3664 C3669 0.950 . S
H3665 C3670 0.949 . S
H3666 C3672 0.950 . S
H3667 C3673 0.950 . S
H3668 C3674 0.949 . S
C3669 H3664 0.950 . S
C3669 C3671 1.327 . S
C3669 C3675 1.429 . S
C3670 C3662 1.574 1_565 S
C3670 H3665 0.949 . S
C3670 C3676 1.368 . S
C3671 C3655 1.349 . S
C3671 H3663 0.950 . S
C3671 C3669 1.327 . S
C3672 C3660 1.349 . S
C3672 H3666 0.950 . S
C3672 C3673 1.327 . S
C3673 H3667 0.950 . S
C3673 C3672 1.327 . S
C3673 C3677 1.429 . S
C3674 C3657 1.574 . S
C3674 H3668 0.949 . S
C3674 C3678 1.368 . S
C3675 C3656 1.429 . S
C3675 C3669 1.429 . S
C3675 C3676 1.523 . S
C3676 C3657 1.368 1_565 S
C3676 C3670 1.368 . S
C3676 C3675 1.523 . S
C3677 C3661 1.429 . S
C3677 C3673 1.429 . S
C3677 C3678 1.523 . S
C3678 C3662 1.368 . S
C3678 C3674 1.368 . S
C3678 C3677 1.523 . S
H3679 C3654 0.950 . S
H3680 C3656 0.950 . S
H3681 C3657 0.949 . S
H3682 C3659 0.950 . S
H3683 C3661 0.950 . S
C3684 C3685 1.349 . S
C3684 C3686 1.327 . S
C3684 H3709 0.950 . S
C3685 C3684 1.349 . S
C3685 C3701 1.349 . S
C3686 C3684 1.327 . S
C3686 C3705 1.429 . S
C3686 H3710 0.950 . S
C3687 C3704 1.574 . S
C3687 C3706 1.368 . S
C3687 H3711 0.949 . S
H3688 C3692 0.949 . S
C3689 C3690 1.349 . S
C3689 C3691 1.327 . S
C3689 H3712 0.950 . S
C3690 C3689 1.349 . S
C3690 C3702 1.349 . S
C3691 C3689 1.327 . S
C3691 C3707 1.429 . S
C3691 H3713 0.950 . S
C3692 H3688 0.949 . S
C3692 C3700 1.574 . S
C3692 C3708 1.368 . S
H3693 C3701 0.950 . S
H3694 C3699 0.950 . S
H3695 C3700 0.949 . S
H3696 C3702 0.950 . S
H3697 C3703 0.950 . S
H3698 C3704 0.949 . S
C3699 H3694 0.950 . S
C3699 C3701 1.327 . S
C3699 C3705 1.429 . S
C3700 C3692 1.574 . S
C3700 H3695 0.949 . S
C3700 C3706 1.368 . S
C3701 C3685 1.349 . S
C3701 H3693 0.950 . S
C3701 C3699 1.327 . S
C3702 C3690 1.349 . S
C3702 H3696 0.950 . S
C3702 C3703 1.327 . S
C3703 H3697 0.950 . S
C3703 C3702 1.327 . S
C3703 C3707 1.429 . S
C3704 C3687 1.574 . S
C3704 H3698 0.949 . S
C3704 C3708 1.368 . S
C3705 C3686 1.429 . S
C3705 C3699 1.429 . S
C3705 C3706 1.523 . S
C3706 C3687 1.368 . S
C3706 C3700 1.368 . S
C3706 C3705 1.523 . S
C3707 C3691 1.429 . S
C3707 C3703 1.429 . S
C3707 C3708 1.523 . S
C3708 C3692 1.368 . S
C3708 C3704 1.368 . S
C3708 C3707 1.523 . S
H3709 C3684 0.950 . S
H3710 C3686 0.950 . S
H3711 C3687 0.949 . S
H3712 C3689 0.950 . S
H3713 C3691 0.950 . S
C3714 C3715 1.349 . S
C3714 C3716 1.327 . S
C3714 H3739 0.950 . S
C3715 C3714 1.349 . S
C3715 C3731 1.349 . S
C3716 C3714 1.327 . S
C3716 C3735 1.429 . S
C3716 H3740 0.950 . S
C3717 C3734 1.574 . S
C3717 C3736 1.368 . S
C3717 H3741 0.949 . S
H3718 C3722 0.949 . S
C3719 C3720 1.349 . S
C3719 C3721 1.327 . S
C3719 H3742 0.950 . S
C3720 C3719 1.349 . S
C3720 C3732 1.349 . S
C3721 C3719 1.327 . S
C3721 C3737 1.429 . S
C3721 H3743 0.950 . S
C3722 H3718 0.949 . S
C3722 C3730 1.574 . S
C3722 C3738 1.368 . S
H3723 C3731 0.950 . S
H3724 C3729 0.950 . S
H3725 C3730 0.949 . S
H3726 C3732 0.950 . S
H3727 C3733 0.950 . S
H3728 C3734 0.949 . S
C3729 H3724 0.950 . S
C3729 C3731 1.327 . S
C3729 C3735 1.429 . S
C3730 C3722 1.574 . S
C3730 H3725 0.949 . S
C3730 C3736 1.368 . S
C3731 C3715 1.349 . S
C3731 H3723 0.950 . S
C3731 C3729 1.327 . S
C3732 C3720 1.349 . S
C3732 H3726 0.950 . S
C3732 C3733 1.327 . S
C3733 H3727 0.950 . S
C3733 C3732 1.327 . S
C3733 C3737 1.429 . S
C3734 C3717 1.574 . S
C3734 H3728 0.949 . S
C3734 C3738 1.368 . S
C3735 C3716 1.429 . S
C3735 C3729 1.429 . S
C3735 C3736 1.523 . S
C3736 C3717 1.368 . S
C3736 C3730 1.368 . S
C3736 C3735 1.523 . S
C3737 C3721 1.429 . S
C3737 C3733 1.429 . S
C3737 C3738 1.523 . S
C3738 C3722 1.368 . S
C3738 C3734 1.368 . S
C3738 C3737 1.523 . S
H3739 C3714 0.950 . S
H3740 C3716 0.950 . S
H3741 C3717 0.949 . S
H3742 C3719 0.950 . S
H3743 C3721 0.950 . S
C3744 C3745 1.349 . S
C3744 C3746 1.327 . S
C3744 H3769 0.950 . S
C3745 C3744 1.349 . S
C3745 C3761 1.349 . S
C3746 C3744 1.327 . S
C3746 C3765 1.429 . S
C3746 H3770 0.950 . S
C3747 C3764 1.574 . S
C3747 C3766 1.368 . S
C3747 H3771 0.949 . S
H3748 C3752 0.949 . S
C3749 C3750 1.349 . S
C3749 C3751 1.327 . S
C3749 H3772 0.950 . S
C3750 C3749 1.349 . S
C3750 C3762 1.349 . S
C3751 C3749 1.327 . S
C3751 C3767 1.429 . S
C3751 H3773 0.950 . S
C3752 H3748 0.949 . S
C3752 C3760 1.574 . S
C3752 C3768 1.368 . S
H3753 C3761 0.950 . S
H3754 C3759 0.950 . S
H3755 C3760 0.949 . S
H3756 C3762 0.950 . S
H3757 C3763 0.950 . S
H3758 C3764 0.949 . S
C3759 H3754 0.950 . S
C3759 C3761 1.327 . S
C3759 C3765 1.429 . S
C3760 C3752 1.574 . S
C3760 H3755 0.949 . S
C3760 C3766 1.368 . S
C3761 C3745 1.349 . S
C3761 H3753 0.950 . S
C3761 C3759 1.327 . S
C3762 C3750 1.349 . S
C3762 H3756 0.950 . S
C3762 C3763 1.327 . S
C3763 H3757 0.950 . S
C3763 C3762 1.327 . S
C3763 C3767 1.429 . S
C3764 C3747 1.574 . S
C3764 H3758 0.949 . S
C3764 C3768 1.368 . S
C3765 C3746 1.429 . S
C3765 C3759 1.429 . S
C3765 C3766 1.523 . S
C3766 C3747 1.368 . S
C3766 C3760 1.368 . S
C3766 C3765 1.523 . S
C3767 C3751 1.429 . S
C3767 C3763 1.429 . S
C3767 C3768 1.523 . S
C3768 C3752 1.368 . S
C3768 C3764 1.368 . S
C3768 C3767 1.523 . S
H3769 C3744 0.950 . S
H3770 C3746 0.950 . S
H3771 C3747 0.949 . S
H3772 C3749 0.950 . S
H3773 C3751 0.950 . S
C3774 C3775 1.349 . S
C3774 C3776 1.327 . S
C3774 H3799 0.950 . S
C3775 C3774 1.349 . S
C3775 C3791 1.349 . S
C3776 C3774 1.327 . S
C3776 C3795 1.429 . S
C3776 H3800 0.950 . S
C3777 C3794 1.574 . S
C3777 C3796 1.368 . S
C3777 H3801 0.949 . S
H3778 C3782 0.949 . S
C3779 C3780 1.349 . S
C3779 C3781 1.327 . S
C3779 H3802 0.950 . S
C3780 C3779 1.349 . S
C3780 C3792 1.349 . S
C3781 C3779 1.327 . S
C3781 C3797 1.429 . S
C3781 H3803 0.950 . S
C3782 H3778 0.949 . S
C3782 C3790 1.536 1_545 S
C3782 C3798 1.368 . S
H3783 C3791 0.950 . S
H3784 C3789 0.950 . S
H3785 C3790 0.938 1_545 S
H3786 C3792 0.950 . S
H3787 C3793 0.950 . S
H3788 C3794 0.949 . S
C3789 H3784 0.950 . S
C3789 C3791 1.327 . S
C3789 C3795 1.429 . S
C3790 C3782 1.536 1_565 S
C3790 H3785 0.938 1_565 S
C3790 C3796 1.422 . S
C3791 C3775 1.349 . S
C3791 H3783 0.950 . S
C3791 C3789 1.327 . S
C3792 C3780 1.349 . S
C3792 H3786 0.950 . S
C3792 C3793 1.327 . S
C3793 H3787 0.950 . S
C3793 C3792 1.327 . S
C3793 C3797 1.429 . S
C3794 C3777 1.574 . S
C3794 H3788 0.949 . S
C3794 C3798 1.368 1_565 S
C3795 C3776 1.429 . S
C3795 C3789 1.429 . S
C3795 C3796 1.523 . S
C3796 C3777 1.368 . S
C3796 C3790 1.422 . S
C3796 C3795 1.523 . S
C3797 C3781 1.429 . S
C3797 C3793 1.429 . S
C3797 C3798 1.523 . S
C3798 C3782 1.368 . S
C3798 C3794 1.368 1_545 S
C3798 C3797 1.523 . S
H3799 C3774 0.950 . S
H3800 C3776 0.950 . S
H3801 C3777 0.949 . S
H3802 C3779 0.950 . S
H3803 C3781 0.950 . S
C3804 C3805 1.349 . S
C3804 C3806 1.327 . S
C3804 H3829 0.950 . S
C3805 C3804 1.349 . S
C3805 C3821 1.349 . S
C3806 C3804 1.327 . S
C3806 C3825 1.429 . S
C3806 H3830 0.950 . S
C3807 C3824 1.574 . S
C3807 C3826 1.368 1_556 S
C3807 H3831 0.949 . S
H3808 C3812 0.952 . S
C3809 C3810 1.349 . S
C3809 C3811 1.327 . S
C3809 H3832 0.950 . S
C3810 C3809 1.349 . S
C3810 C3822 1.349 . S
C3811 C3809 1.327 . S
C3811 C3827 1.429 . S
C3811 H3833 0.950 . S
C3812 H3808 0.952 . S
C3812 C3820 1.581 . S
C3812 C3828 1.358 1_554 S
H3813 C3821 0.950 . S
H3814 C3819 0.973 . S
H3815 C3820 0.949 . S
H3816 C3822 0.950 . S
H3817 C3823 0.950 . S
H3818 C3824 0.949 . S
C3819 H3814 0.973 . S
C3819 C3821 1.327 . S
C3819 C3825 1.429 . S
C3820 C3812 1.581 . S
C3820 H3815 0.949 . S
C3820 C3826 1.368 . S
C3821 C3805 1.349 . S
C3821 H3813 0.950 . S
C3821 C3819 1.327 . S
C3822 C3810 1.349 . S
C3822 H3816 0.950 . S
C3822 C3823 1.327 . S
C3823 H3817 0.950 . S
C3823 C3822 1.327 . S
C3823 C3827 1.429 . S
C3824 C3807 1.574 . S
C3824 H3818 0.949 . S
C3824 C3828 1.368 . S
C3825 C3806 1.429 . S
C3825 C3819 1.429 . S
C3825 C3826 1.523 . S
C3826 C3807 1.368 1_554 S
C3826 C3820 1.368 . S
C3826 C3825 1.523 . S
C3827 C3811 1.429 . S
C3827 C3823 1.429 . S
C3827 C3828 1.523 . S
C3828 C3812 1.358 1_556 S
C3828 C3824 1.368 . S
C3828 C3827 1.523 . S
H3829 C3804 0.950 . S
H3830 C3806 0.950 . S
H3831 C3807 0.949 . S
H3832 C3809 0.950 . S
H3833 C3811 0.950 . S
C3834 C3835 1.349 . S
C3834 C3836 1.327 . S
C3834 H3859 0.950 . S
C3835 C3834 1.349 . S
C3835 C3851 1.349 . S
C3836 C3834 1.327 . S
C3836 C3855 1.429 . S
C3836 H3860 0.950 . S
C3837 C3854 1.574 . S
C3837 C3856 1.368 . S
C3837 H3861 0.949 . S
H3838 C3842 0.949 . S
C3839 C3840 1.349 . S
C3839 C3841 1.327 . S
C3839 H3862 0.950 . S
C3840 C3839 1.349 . S
C3840 C3852 1.349 . S
C3841 C3839 1.327 . S
C3841 C3857 1.429 . S
C3841 H3863 0.950 . S
C3842 H3838 0.949 . S
C3842 C3850 1.574 . S
C3842 C3858 1.368 . S
H3843 C3851 0.950 . S
H3844 C3849 0.950 . S
H3845 C3850 0.949 . S
H3846 C3852 0.950 . S
H3847 C3853 0.950 . S
H3848 C3854 0.949 . S
C3849 H3844 0.950 . S
C3849 C3851 1.327 . S
C3849 C3855 1.429 . S
C3850 C3842 1.574 . S
C3850 H3845 0.949 . S
C3850 C3856 1.368 . S
C3851 C3835 1.349 . S
C3851 H3843 0.950 . S
C3851 C3849 1.327 . S
C3852 C3840 1.349 . S
C3852 H3846 0.950 . S
C3852 C3853 1.327 . S
C3853 H3847 0.950 . S
C3853 C3852 1.327 . S
C3853 C3857 1.429 . S
C3854 C3837 1.574 . S
C3854 H3848 0.949 . S
C3854 C3858 1.368 . S
C3855 C3836 1.429 . S
C3855 C3849 1.429 . S
C3855 C3856 1.523 . S
C3856 C3837 1.368 . S
C3856 C3850 1.368 . S
C3856 C3855 1.523 . S
C3857 C3841 1.429 . S
C3857 C3853 1.429 . S
C3857 C3858 1.523 . S
C3858 C3842 1.368 . S
C3858 C3854 1.368 . S
C3858 C3857 1.523 . S
H3859 C3834 0.950 . S
H3860 C3836 0.950 . S
H3861 C3837 0.949 . S
H3862 C3839 0.950 . S
H3863 C3841 0.950 . S
C3864 C3865 1.349 . S
C3864 C3866 1.327 . S
C3864 H3889 0.950 . S
C3865 C3864 1.349 . S
C3865 C3881 1.349 . S
C3866 C3864 1.327 . S
C3866 C3885 1.429 . S
C3866 H3890 0.950 . S
C3867 C3884 1.574 . S
C3867 C3886 1.368 1_554 S
C3867 H3891 0.949 . S
H3868 C3872 0.948 1_556 S
C3869 C3870 1.349 . S
C3869 C3871 1.327 . S
C3869 H3892 0.950 . S
C3870 C3869 1.349 . S
C3870 C3882 1.349 . S
C3871 C3869 1.327 . S
C3871 C3887 1.429 . S
C3871 H3893 0.950 . S
C3872 H3868 0.948 1_554 S
C3872 C3880 1.574 1_554 S
C3872 C3888 1.368 . S
H3873 C3881 0.950 . S
H3874 C3879 0.950 . S
H3875 C3880 0.949 . S
H3876 C3882 0.950 . S
H3877 C3883 0.950 . S
H3878 C3884 0.949 . S
C3879 H3874 0.950 . S
C3879 C3881 1.327 . S
C3879 C3885 1.429 . S
C3880 C3872 1.574 1_556 S
C3880 H3875 0.949 . S
C3880 C3886 1.368 . S
C3881 C3865 1.349 . S
C3881 H3873 0.950 . S
C3881 C3879 1.327 . S
C3882 C3870 1.349 . S
C3882 H3876 0.950 . S
C3882 C3883 1.327 . S
C3883 H3877 0.950 . S
C3883 C3882 1.327 . S
C3883 C3887 1.429 . S
C3884 C3867 1.574 . S
C3884 H3878 0.949 . S
C3884 C3888 1.368 . S
C3885 C3866 1.429 . S
C3885 C3879 1.429 . S
C3885 C3886 1.523 . S
C3886 C3867 1.368 1_556 S
C3886 C3880 1.368 . S
C3886 C3885 1.523 . S
C3887 C3871 1.429 . S
C3887 C3883 1.429 . S
C3887 C3888 1.523 . S
C3888 C3872 1.368 . S
C3888 C3884 1.368 . S
C3888 C3887 1.523 . S
H3889 C3864 0.950 . S
H3890 C3866 0.950 . S
H3891 C3867 0.949 . S
H3892 C3869 0.950 . S
H3893 C3871 0.950 . S
C3894 C3895 1.349 . S
C3894 C3896 1.327 . S
C3894 H3919 0.950 . S
C3895 C3894 1.349 . S
C3895 C3911 1.349 . S
C3896 C3894 1.327 . S
C3896 C3915 1.429 . S
C3896 H3920 0.950 . S
C3897 C3914 1.574 . S
C3897 C3916 1.368 . S
C3897 H3921 0.949 . S
H3898 C3902 0.949 . S
C3899 C3900 1.349 . S
C3899 C3901 1.327 . S
C3899 H3922 0.950 . S
C3900 C3899 1.349 . S
C3900 C3912 1.349 . S
C3901 C3899 1.327 . S
C3901 C3917 1.429 . S
C3901 H3923 0.950 . S
C3902 H3898 0.949 . S
C3902 C3910 1.574 . S
C3902 C3918 1.368 . S
H3903 C3911 0.950 . S
H3904 C3909 0.950 . S
H3905 C3910 0.949 . S
H3906 C3912 0.950 . S
H3907 C3913 0.950 . S
H3908 C3914 0.949 . S
C3909 H3904 0.950 . S
C3909 C3911 1.327 . S
C3909 C3915 1.429 . S
C3910 C3902 1.574 . S
C3910 H3905 0.949 . S
C3910 C3916 1.368 . S
C3911 C3895 1.349 . S
C3911 H3903 0.950 . S
C3911 C3909 1.327 . S
C3912 C3900 1.349 . S
C3912 H3906 0.950 . S
C3912 C3913 1.327 . S
C3913 H3907 0.950 . S
C3913 C3912 1.327 . S
C3913 C3917 1.429 . S
C3914 C3897 1.574 . S
C3914 H3908 0.949 . S
C3914 C3918 1.368 . S
C3915 C3896 1.429 . S
C3915 C3909 1.429 . S
C3915 C3916 1.523 . S
C3916 C3897 1.368 . S
C3916 C3910 1.368 . S
C3916 C3915 1.523 . S
C3917 C3901 1.429 . S
C3917 C3913 1.429 . S
C3917 C3918 1.523 . S
C3918 C3902 1.368 . S
C3918 C3914 1.368 . S
C3918 C3917 1.523 . S
H3919 C3894 0.950 . S
H3920 C3896 0.950 . S
H3921 C3897 0.949 . S
H3922 C3899 0.950 . S
H3923 C3901 0.950 . S
C3924 C3925 1.349 . S
C3924 C3926 1.327 . S
C3924 H3949 0.950 . S
C3925 C3924 1.349 . S
C3925 C3941 1.349 . S
C3926 C3924 1.327 . S
C3926 C3945 1.429 . S
C3926 H3950 0.950 . S
C3927 C3944 1.574 . S
C3927 C3946 1.368 . S
C3927 H3951 0.949 . S
H3928 C3932 0.949 . S
C3929 C3930 1.349 . S
C3929 C3931 1.327 . S
C3929 H3952 0.950 . S
C3930 C3929 1.349 . S
C3930 C3942 1.349 . S
C3931 C3929 1.327 . S
C3931 C3947 1.429 . S
C3931 H3953 0.950 . S
C3932 H3928 0.949 . S
C3932 C3940 1.574 . S
C3932 C3948 1.368 . S
H3933 C3941 0.950 . S
H3934 C3939 0.950 . S
H3935 C3940 0.949 . S
H3936 C3942 0.950 . S
H3937 C3943 0.950 . S
H3938 C3944 0.949 . S
C3939 H3934 0.950 . S
C3939 C3941 1.327 . S
C3939 C3945 1.429 . S
C3940 C3932 1.574 . S
C3940 H3935 0.949 . S
C3940 C3946 1.368 . S
C3941 C3925 1.349 . S
C3941 H3933 0.950 . S
C3941 C3939 1.327 . S
C3942 C3930 1.349 . S
C3942 H3936 0.950 . S
C3942 C3943 1.327 . S
C3943 H3937 0.950 . S
C3943 C3942 1.327 . S
C3943 C3947 1.429 . S
C3944 C3927 1.574 . S
C3944 H3938 0.949 . S
C3944 C3948 1.368 . S
C3945 C3926 1.429 . S
C3945 C3939 1.429 . S
C3945 C3946 1.523 . S
C3946 C3927 1.368 . S
C3946 C3940 1.368 . S
C3946 C3945 1.523 . S
C3947 C3931 1.429 . S
C3947 C3943 1.429 . S
C3947 C3948 1.523 . S
C3948 C3932 1.368 . S
C3948 C3944 1.368 . S
C3948 C3947 1.523 . S
H3949 C3924 0.950 . S
H3950 C3926 0.950 . S
H3951 C3927 0.949 . S
H3952 C3929 0.950 . S
H3953 C3931 0.950 . S
C3954 C3955 1.349 . S
C3954 C3956 1.327 . S
C3954 H3979 0.950 . S
C3955 C3954 1.349 . S
C3955 C3971 1.349 . S
C3956 C3954 1.327 . S
C3956 C3975 1.429 . S
C3956 H3980 0.950 . S
C3957 C3974 1.574 . S
C3957 C3976 1.368 . S
C3957 H3981 0.949 . S
H3958 C3962 0.949 . S
C3959 C3960 1.349 . S
C3959 C3961 1.327 . S
C3959 H3982 0.950 . S
C3960 C3959 1.349 . S
C3960 C3972 1.349 . S
C3961 C3959 1.327 . S
C3961 C3977 1.429 . S
C3961 H3983 0.950 . S
C3962 H3958 0.949 . S
C3962 C3970 1.574 . S
C3962 C3978 1.368 . S
H3963 C3971 0.950 . S
H3964 C3969 0.950 . S
H3965 C3970 0.949 . S
H3966 C3972 0.950 . S
H3967 C3973 0.950 . S
H3968 C3974 0.949 . S
C3969 H3964 0.950 . S
C3969 C3971 1.327 . S
C3969 C3975 1.429 . S
C3970 C3962 1.574 . S
C3970 H3965 0.949 . S
C3970 C3976 1.368 . S
C3971 C3955 1.349 . S
C3971 H3963 0.950 . S
C3971 C3969 1.327 . S
C3972 C3960 1.349 . S
C3972 H3966 0.950 . S
C3972 C3973 1.327 . S
C3973 H3967 0.950 . S
C3973 C3972 1.327 . S
C3973 C3977 1.429 . S
C3974 C3957 1.574 . S
C3974 H3968 0.949 . S
C3974 C3978 1.368 . S
C3975 C3956 1.429 . S
C3975 C3969 1.429 . S
C3975 C3976 1.523 . S
C3976 C3957 1.368 . S
C3976 C3970 1.368 . S
C3976 C3975 1.523 . S
C3977 C3961 1.429 . S
C3977 C3973 1.429 . S
C3977 C3978 1.523 . S
C3978 C3962 1.368 . S
C3978 C3974 1.368 . S
C3978 C3977 1.523 . S
H3979 C3954 0.950 . S
H3980 C3956 0.950 . S
H3981 C3957 0.949 . S
H3982 C3959 0.950 . S
H3983 C3961 0.950 . S
C3984 C3985 1.349 . S
C3984 C3986 1.327 . S
C3984 H4009 0.950 . S
C3985 C3984 1.349 . S
C3985 C4001 1.349 . S
C3986 C3984 1.327 . S
C3986 C4005 1.429 . S
C3986 H4010 0.950 . S
C3987 C4004 1.574 . S
C3987 C4006 1.368 1_565 S
C3987 H4011 0.949 . S
H3988 C3992 0.951 . S
C3989 C3990 1.349 . S
C3989 C3991 1.327 . S
C3989 H4012 0.950 . S
C3990 C3989 1.349 . S
C3990 C4002 1.349 . S
C3991 C3989 1.327 . S
C3991 C4007 1.429 . S
C3991 H4013 0.950 . S
C3992 H3988 0.951 . S
C3992 C4000 1.579 . S
C3992 C4008 1.361 1_545 S
H3993 C4001 0.950 . S
H3994 C3999 0.978 . S
H3995 C4000 0.949 . S
H3996 C4002 0.950 . S
H3997 C4003 0.950 . S
H3998 C4004 0.949 . S
C3999 H3994 0.978 . S
C3999 C4001 1.327 . S
C3999 C4005 1.429 . S
C4000 C3992 1.579 . S
C4000 H3995 0.949 . S
C4000 C4006 1.368 . S
C4001 C3985 1.349 . S
C4001 H3993 0.950 . S
C4001 C3999 1.327 . S
C4002 C3990 1.349 . S
C4002 H3996 0.950 . S
C4002 C4003 1.327 . S
C4003 H3997 0.950 . S
C4003 C4002 1.327 . S
C4003 C4007 1.429 . S
C4004 C3987 1.574 . S
C4004 H3998 0.949 . S
C4004 C4008 1.368 . S
C4005 C3986 1.429 . S
C4005 C3999 1.429 . S
C4005 C4006 1.523 . S
C4006 C3987 1.368 1_545 S
C4006 C4000 1.368 . S
C4006 C4005 1.523 . S
C4007 C3991 1.429 . S
C4007 C4003 1.429 . S
C4007 C4008 1.523 . S
C4008 C3992 1.361 1_565 S
C4008 C4004 1.368 . S
C4008 C4007 1.523 . S
H4009 C3984 0.950 . S
H4010 C3986 0.950 . S
H4011 C3987 0.949 . S
H4012 C3989 0.950 . S
H4013 C3991 0.950 . S
C4014 C4015 1.349 . S
C4014 C4016 1.327 . S
C4014 H4039 0.950 . S
C4015 C4014 1.349 . S
C4015 C4031 1.349 . S
C4016 C4014 1.327 . S
C4016 C4035 1.429 . S
C4016 H4040 0.950 . S
C4017 C4034 1.574 . S
C4017 C4036 1.368 . S
C4017 H4041 0.949 . S
H4018 C4022 0.949 . S
C4019 C4020 1.349 . S
C4019 C4021 1.327 . S
C4019 H4042 0.950 . S
C4020 C4019 1.349 . S
C4020 C4032 1.349 . S
C4021 C4019 1.327 . S
C4021 C4037 1.429 . S
C4021 H4043 0.950 . S
C4022 H4018 0.949 . S
C4022 C4030 1.574 . S
C4022 C4038 1.368 . S
H4023 C4031 0.950 . S
H4024 C4029 0.950 . S
H4025 C4030 0.949 . S
H4026 C4032 0.950 . S
H4027 C4033 0.950 . S
H4028 C4034 0.949 . S
C4029 H4024 0.950 . S
C4029 C4031 1.327 . S
C4029 C4035 1.429 . S
C4030 C4022 1.574 . S
C4030 H4025 0.949 . S
C4030 C4036 1.368 . S
C4031 C4015 1.349 . S
C4031 H4023 0.950 . S
C4031 C4029 1.327 . S
C4032 C4020 1.349 . S
C4032 H4026 0.950 . S
C4032 C4033 1.327 . S
C4033 H4027 0.950 . S
C4033 C4032 1.327 . S
C4033 C4037 1.429 . S
C4034 C4017 1.574 . S
C4034 H4028 0.949 . S
C4034 C4038 1.368 . S
C4035 C4016 1.429 . S
C4035 C4029 1.429 . S
C4035 C4036 1.523 . S
C4036 C4017 1.368 . S
C4036 C4030 1.368 . S
C4036 C4035 1.523 . S
C4037 C4021 1.429 . S
C4037 C4033 1.429 . S
C4037 C4038 1.523 . S
C4038 C4022 1.368 . S
C4038 C4034 1.368 . S
C4038 C4037 1.523 . S
H4039 C4014 0.950 . S
H4040 C4016 0.950 . S
H4041 C4017 0.949 . S
H4042 C4019 0.950 . S
H4043 C4021 0.950 . S
C4044 C4045 1.349 . S
C4044 C4046 1.327 . S
C4044 H4069 0.950 . S
C4045 C4044 1.349 . S
C4045 C4061 1.349 . S
C4046 C4044 1.327 . S
C4046 C4065 1.429 . S
C4046 H4070 0.950 . S
C4047 C4064 1.574 . S
C4047 C4066 1.368 . S
C4047 H4071 0.949 . S
H4048 C4052 0.949 . S
C4049 C4050 1.349 . S
C4049 C4051 1.327 . S
C4049 H4072 0.950 . S
C4050 C4049 1.349 . S
C4050 C4062 1.349 . S
C4051 C4049 1.327 . S
C4051 C4067 1.429 . S
C4051 H4073 0.950 . S
C4052 H4048 0.949 . S
C4052 C4060 1.574 . S
C4052 C4068 1.368 . S
H4053 C4061 0.950 . S
H4054 C4059 0.950 . S
H4055 C4060 0.949 . S
H4056 C4062 0.950 . S
H4057 C4063 0.950 . S
H4058 C4064 0.949 . S
C4059 H4054 0.950 . S
C4059 C4061 1.327 . S
C4059 C4065 1.429 . S
C4060 C4052 1.574 . S
C4060 H4055 0.949 . S
C4060 C4066 1.368 . S
C4061 C4045 1.349 . S
C4061 H4053 0.950 . S
C4061 C4059 1.327 . S
C4062 C4050 1.349 . S
C4062 H4056 0.950 . S
C4062 C4063 1.327 . S
C4063 H4057 0.950 . S
C4063 C4062 1.327 . S
C4063 C4067 1.429 . S
C4064 C4047 1.574 . S
C4064 H4058 0.949 . S
C4064 C4068 1.368 . S
C4065 C4046 1.429 . S
C4065 C4059 1.429 . S
C4065 C4066 1.523 . S
C4066 C4047 1.368 . S
C4066 C4060 1.368 . S
C4066 C4065 1.523 . S
C4067 C4051 1.429 . S
C4067 C4063 1.429 . S
C4067 C4068 1.523 . S
C4068 C4052 1.368 . S
C4068 C4064 1.368 . S
C4068 C4067 1.523 . S
H4069 C4044 0.950 . S
H4070 C4046 0.950 . S
H4071 C4047 0.949 . S
H4072 C4049 0.950 . S
H4073 C4051 0.950 . S
C4074 C4075 1.349 . S
C4074 C4076 1.327 . S
C4074 H4099 0.950 . S
C4075 C4074 1.349 . S
C4075 C4091 1.349 . S
C4076 C4074 1.327 . S
C4076 C4095 1.429 . S
C4076 H4100 0.950 . S
C4077 C4094 1.574 . S
C4077 C4096 1.368 . S
C4077 H4101 0.949 . S
H4078 C4082 0.949 . S
C4079 C4080 1.349 . S
C4079 C4081 1.327 . S
C4079 H4102 0.950 . S
C4080 C4079 1.349 . S
C4080 C4092 1.349 . S
C4081 C4079 1.327 . S
C4081 C4097 1.429 . S
C4081 H4103 0.950 . S
C4082 H4078 0.949 . S
C4082 C4090 1.574 . S
C4082 C4098 1.368 . S
H4083 C4091 0.950 . S
H4084 C4089 0.950 . S
H4085 C4090 0.949 . S
H4086 C4092 0.950 . S
H4087 C4093 0.950 . S
H4088 C4094 0.949 . S
C4089 H4084 0.950 . S
C4089 C4091 1.327 . S
C4089 C4095 1.429 . S
C4090 C4082 1.574 . S
C4090 H4085 0.949 . S
C4090 C4096 1.368 . S
C4091 C4075 1.349 . S
C4091 H4083 0.950 . S
C4091 C4089 1.327 . S
C4092 C4080 1.349 . S
C4092 H4086 0.950 . S
C4092 C4093 1.327 . S
C4093 H4087 0.950 . S
C4093 C4092 1.327 . S
C4093 C4097 1.429 . S
C4094 C4077 1.574 . S
C4094 H4088 0.949 . S
C4094 C4098 1.368 . S
C4095 C4076 1.429 . S
C4095 C4089 1.429 . S
C4095 C4096 1.523 . S
C4096 C4077 1.368 . S
C4096 C4090 1.368 . S
C4096 C4095 1.523 . S
C4097 C4081 1.429 . S
C4097 C4093 1.429 . S
C4097 C4098 1.523 . S
C4098 C4082 1.368 . S
C4098 C4094 1.368 . S
C4098 C4097 1.523 . S
H4099 C4074 0.950 . S
H4100 C4076 0.950 . S
H4101 C4077 0.949 . S
H4102 C4079 0.950 . S
H4103 C4081 0.950 . S
C4104 C4105 1.349 . S
C4104 C4106 1.327 . S
C4104 H4129 0.950 . S
C4105 C4104 1.349 . S
C4105 C4121 1.349 . S
C4106 C4104 1.327 . S
C4106 C4125 1.429 . S
C4106 H4130 0.950 . S
C4107 C4124 1.574 . S
C4107 C4126 1.368 . S
C4107 H4131 0.949 . S
H4108 C4112 0.949 . S
C4109 C4110 1.349 . S
C4109 C4111 1.327 . S
C4109 H4132 0.950 . S
C4110 C4109 1.349 . S
C4110 C4122 1.349 . S
C4111 C4109 1.327 . S
C4111 C4127 1.429 . S
C4111 H4133 0.950 . S
C4112 H4108 0.949 . S
C4112 C4120 1.574 . S
C4112 C4128 1.368 . S
H4113 C4121 0.950 . S
H4114 C4119 0.950 . S
H4115 C4120 0.949 . S
H4116 C4122 0.950 . S
H4117 C4123 0.950 . S
H4118 C4124 0.949 . S
C4119 H4114 0.950 . S
C4119 C4121 1.327 . S
C4119 C4125 1.429 . S
C4120 C4112 1.574 . S
C4120 H4115 0.949 . S
C4120 C4126 1.368 . S
C4121 C4105 1.349 . S
C4121 H4113 0.950 . S
C4121 C4119 1.327 . S
C4122 C4110 1.349 . S
C4122 H4116 0.950 . S
C4122 C4123 1.327 . S
C4123 H4117 0.950 . S
C4123 C4122 1.327 . S
C4123 C4127 1.429 . S
C4124 C4107 1.574 . S
C4124 H4118 0.949 . S
C4124 C4128 1.368 . S
C4125 C4106 1.429 . S
C4125 C4119 1.429 . S
C4125 C4126 1.523 . S
C4126 C4107 1.368 . S
C4126 C4120 1.368 . S
C4126 C4125 1.523 . S
C4127 C4111 1.429 . S
C4127 C4123 1.429 . S
C4127 C4128 1.523 . S
C4128 C4112 1.368 . S
C4128 C4124 1.368 . S
C4128 C4127 1.523 . S
H4129 C4104 0.950 . S
H4130 C4106 0.950 . S
H4131 C4107 0.949 . S
H4132 C4109 0.950 . S
H4133 C4111 0.950 . S
C4134 C4135 1.349 . S
C4134 C4136 1.327 . S
C4134 H4159 0.950 . S
C4135 C4134 1.349 . S
C4135 C4151 1.349 . S
C4136 C4134 1.327 . S
C4136 C4155 1.429 . S
C4136 H4160 0.950 . S
C4137 C4154 1.574 . S
C4137 C4156 1.368 . S
C4137 H4161 0.949 . S
H4138 C4142 0.949 . S
C4139 C4140 1.349 . S
C4139 C4141 1.327 . S
C4139 H4162 0.950 . S
C4140 C4139 1.349 . S
C4140 C4152 1.349 . S
C4141 C4139 1.327 . S
C4141 C4157 1.429 . S
C4141 H4163 0.950 . S
C4142 H4138 0.949 . S
C4142 C4150 1.574 . S
C4142 C4158 1.368 . S
H4143 C4151 0.950 . S
H4144 C4149 0.950 . S
H4145 C4150 0.949 . S
H4146 C4152 0.950 . S
H4147 C4153 0.950 . S
H4148 C4154 0.949 . S
C4149 H4144 0.950 . S
C4149 C4151 1.327 . S
C4149 C4155 1.429 . S
C4150 C4142 1.574 . S
C4150 H4145 0.949 . S
C4150 C4156 1.368 . S
C4151 C4135 1.349 . S
C4151 H4143 0.950 . S
C4151 C4149 1.327 . S
C4152 C4140 1.349 . S
C4152 H4146 0.950 . S
C4152 C4153 1.327 . S
C4153 H4147 0.950 . S
C4153 C4152 1.327 . S
C4153 C4157 1.429 . S
C4154 C4137 1.574 . S
C4154 H4148 0.949 . S
C4154 C4158 1.368 . S
C4155 C4136 1.429 . S
C4155 C4149 1.429 . S
C4155 C4156 1.523 . S
C4156 C4137 1.368 . S
C4156 C4150 1.368 . S
C4156 C4155 1.523 . S
C4157 C4141 1.429 . S
C4157 C4153 1.429 . S
C4157 C4158 1.523 . S
C4158 C4142 1.368 . S
C4158 C4154 1.368 . S
C4158 C4157 1.523 . S
H4159 C4134 0.950 . S
H4160 C4136 0.950 . S
H4161 C4137 0.949 . S
H4162 C4139 0.950 . S
H4163 C4141 0.950 . S
C4164 C4165 1.349 . S
C4164 C4166 1.327 . S
C4164 H4189 0.950 . S
C4165 C4164 1.349 . S
C4165 C4181 1.349 . S
C4166 C4164 1.327 . S
C4166 C4185 1.429 . S
C4166 H4190 0.950 . S
C4167 C4184 1.620 . S
C4167 C4186 1.298 1_545 S
C4167 H4191 0.975 . S
H4168 C4172 0.949 . S
C4169 C4170 1.349 . S
C4169 C4171 1.327 . S
C4169 H4192 0.950 . S
C4170 C4169 1.349 . S
C4170 C4182 1.349 . S
C4171 C4169 1.327 . S
C4171 C4187 1.429 . S
C4171 H4193 0.950 . S
C4172 H4168 0.949 . S
C4172 C4180 1.574 . S
C4172 C4188 1.368 1_565 S
H4173 C4181 0.950 . S
H4174 C4179 0.950 . S
H4175 C4180 0.949 . S
H4176 C4182 0.950 . S
H4177 C4183 0.896 1_565 S
H4178 C4184 0.949 . S
C4179 H4174 0.950 . S
C4179 C4181 1.327 . S
C4179 C4185 1.429 . S
C4180 C4172 1.574 . S
C4180 H4175 0.949 . S
C4180 C4186 1.368 . S
C4181 C4165 1.349 . S
C4181 H4173 0.950 . S
C4181 C4179 1.327 . S
C4182 C4170 1.349 . S
C4182 H4176 0.950 . S
C4182 C4183 1.327 . S
C4183 H4177 0.896 1_545 S
C4183 C4182 1.327 . S
C4183 C4187 1.429 . S
C4184 C4167 1.620 . S
C4184 H4178 0.949 . S
C4184 C4188 1.368 . S
C4185 C4166 1.429 . S
C4185 C4179 1.429 . S
C4185 C4186 1.523 . S
C4186 C4167 1.298 1_565 S
C4186 C4180 1.368 . S
C4186 C4185 1.523 . S
C4187 C4171 1.429 . S
C4187 C4183 1.429 . S
C4187 C4188 1.523 . S
C4188 C4172 1.368 1_545 S
C4188 C4184 1.368 . S
C4188 C4187 1.523 . S
H4189 C4164 0.950 . S
H4190 C4166 0.950 . S
H4191 C4167 0.975 . S
H4192 C4169 0.950 . S
H4193 C4171 0.950 . S
C4194 C4195 1.349 . S
C4194 C4196 1.327 . S
C4194 H4219 0.950 . S
C4195 C4194 1.349 . S
C4195 C4211 1.349 . S
C4196 C4194 1.327 . S
C4196 C4215 1.429 . S
C4196 H4220 0.950 . S
C4197 C4214 1.574 . S
C4197 C4216 1.368 . S
C4197 H4221 0.949 . S
H4198 C4202 0.949 . S
C4199 C4200 1.349 . S
C4199 C4201 1.327 . S
C4199 H4222 0.950 . S
C4200 C4199 1.349 . S
C4200 C4212 1.349 . S
C4201 C4199 1.327 . S
C4201 C4217 1.429 . S
C4201 H4223 0.950 . S
C4202 H4198 0.949 . S
C4202 C4210 1.574 . S
C4202 C4218 1.368 . S
H4203 C4211 0.950 . S
H4204 C4209 0.950 . S
H4205 C4210 0.949 . S
H4206 C4212 0.950 . S
H4207 C4213 0.950 . S
H4208 C4214 0.949 . S
C4209 H4204 0.950 . S
C4209 C4211 1.327 . S
C4209 C4215 1.429 . S
C4210 C4202 1.574 . S
C4210 H4205 0.949 . S
C4210 C4216 1.368 . S
C4211 C4195 1.349 . S
C4211 H4203 0.950 . S
C4211 C4209 1.327 . S
C4212 C4200 1.349 . S
C4212 H4206 0.950 . S
C4212 C4213 1.327 . S
C4213 H4207 0.950 . S
C4213 C4212 1.327 . S
C4213 C4217 1.429 . S
C4214 C4197 1.574 . S
C4214 H4208 0.949 . S
C4214 C4218 1.368 . S
C4215 C4196 1.429 . S
C4215 C4209 1.429 . S
C4215 C4216 1.523 . S
C4216 C4197 1.368 . S
C4216 C4210 1.368 . S
C4216 C4215 1.523 . S
C4217 C4201 1.429 . S
C4217 C4213 1.429 . S
C4217 C4218 1.523 . S
C4218 C4202 1.368 . S
C4218 C4214 1.368 . S
C4218 C4217 1.523 . S
H4219 C4194 0.950 . S
H4220 C4196 0.950 . S
H4221 C4197 0.949 . S
H4222 C4199 0.950 . S
H4223 C4201 0.950 . S
C4224 C4225 1.349 . S
C4224 C4226 1.327 . S
C4224 H4249 0.950 . S
C4225 C4224 1.349 . S
C4225 C4241 1.349 . S
C4226 C4224 1.327 . S
C4226 C4245 1.429 . S
C4226 H4250 0.950 . S
C4227 C4244 1.574 . S
C4227 C4246 1.368 . S
C4227 H4251 0.949 . S
H4228 C4232 0.949 . S
C4229 C4230 1.349 . S
C4229 C4231 1.327 . S
C4229 H4252 0.950 . S
C4230 C4229 1.349 . S
C4230 C4242 1.349 . S
C4231 C4229 1.327 . S
C4231 C4247 1.429 . S
C4231 H4253 0.950 . S
C4232 H4228 0.949 . S
C4232 C4240 1.574 . S
C4232 C4248 1.368 . S
H4233 C4241 0.950 . S
H4234 C4239 0.950 . S
H4235 C4240 0.949 . S
H4236 C4242 0.950 . S
H4237 C4243 0.950 . S
H4238 C4244 0.949 . S
C4239 H4234 0.950 . S
C4239 C4241 1.327 . S
C4239 C4245 1.429 . S
C4240 C4232 1.574 . S
C4240 H4235 0.949 . S
C4240 C4246 1.368 . S
C4241 C4225 1.349 . S
C4241 H4233 0.950 . S
C4241 C4239 1.327 . S
C4242 C4230 1.349 . S
C4242 H4236 0.950 . S
C4242 C4243 1.327 . S
C4243 H4237 0.950 . S
C4243 C4242 1.327 . S
C4243 C4247 1.429 . S
C4244 C4227 1.574 . S
C4244 H4238 0.949 . S
C4244 C4248 1.368 . S
C4245 C4226 1.429 . S
C4245 C4239 1.429 . S
C4245 C4246 1.523 . S
C4246 C4227 1.368 . S
C4246 C4240 1.368 . S
C4246 C4245 1.523 . S
C4247 C4231 1.429 . S
C4247 C4243 1.429 . S
C4247 C4248 1.523 . S
C4248 C4232 1.368 . S
C4248 C4244 1.368 . S
C4248 C4247 1.523 . S
H4249 C4224 0.950 . S
H4250 C4226 0.950 . S
H4251 C4227 0.949 . S
H4252 C4229 0.950 . S
H4253 C4231 0.950 . S
C4254 C4255 1.349 . S
C4254 C4256 1.327 . S
C4254 H4279 0.950 . S
C4255 C4254 1.349 . S
C4255 C4271 1.349 . S
C4256 C4254 1.327 . S
C4256 C4275 1.429 . S
C4256 H4280 0.950 . S
C4257 C4274 1.574 . S
C4257 C4276 1.368 . S
C4257 H4281 0.949 . S
H4258 C4262 0.949 . S
C4259 C4260 1.349 . S
C4259 C4261 1.327 . S
C4259 H4282 0.950 . S
C4260 C4259 1.349 . S
C4260 C4272 1.349 . S
C4261 C4259 1.327 . S
C4261 C4277 1.429 . S
C4261 H4283 0.950 . S
C4262 H4258 0.949 . S
C4262 C4270 1.574 . S
C4262 C4278 1.368 . S
H4263 C4271 0.950 . S
H4264 C4269 0.950 . S
H4265 C4270 0.949 . S
H4266 C4272 0.950 . S
H4267 C4273 0.950 . S
H4268 C4274 0.949 . S
C4269 H4264 0.950 . S
C4269 C4271 1.327 . S
C4269 C4275 1.429 . S
C4270 C4262 1.574 . S
C4270 H4265 0.949 . S
C4270 C4276 1.368 . S
C4271 C4255 1.349 . S
C4271 H4263 0.950 . S
C4271 C4269 1.327 . S
C4272 C4260 1.349 . S
C4272 H4266 0.950 . S
C4272 C4273 1.327 . S
C4273 H4267 0.950 . S
C4273 C4272 1.327 . S
C4273 C4277 1.429 . S
C4274 C4257 1.574 . S
C4274 H4268 0.949 . S
C4274 C4278 1.368 . S
C4275 C4256 1.429 . S
C4275 C4269 1.429 . S
C4275 C4276 1.523 . S
C4276 C4257 1.368 . S
C4276 C4270 1.368 . S
C4276 C4275 1.523 . S
C4277 C4261 1.429 . S
C4277 C4273 1.429 . S
C4277 C4278 1.523 . S
C4278 C4262 1.368 . S
C4278 C4274 1.368 . S
C4278 C4277 1.523 . S
H4279 C4254 0.950 . S
H4280 C4256 0.950 . S
H4281 C4257 0.949 . S
H4282 C4259 0.950 . S
H4283 C4261 0.950 . S
C4284 C4285 1.349 . S
C4284 C4286 1.327 . S
C4284 H4309 0.950 . S
C4285 C4284 1.349 . S
C4285 C4301 1.349 . S
C4286 C4284 1.327 . S
C4286 C4305 1.429 . S
C4286 H4310 0.950 . S
C4287 C4304 1.574 . S
C4287 C4306 1.368 . S
C4287 H4311 0.949 . S
H4288 C4292 0.949 . S
C4289 C4290 1.349 . S
C4289 C4291 1.327 . S
C4289 H4312 0.950 . S
C4290 C4289 1.349 . S
C4290 C4302 1.349 . S
C4291 C4289 1.327 . S
C4291 C4307 1.429 . S
C4291 H4313 0.950 . S
C4292 H4288 0.949 . S
C4292 C4300 1.574 . S
C4292 C4308 1.368 . S
H4293 C4301 0.950 . S
H4294 C4299 0.950 . S
H4295 C4300 0.949 . S
H4296 C4302 0.950 . S
H4297 C4303 0.950 . S
H4298 C4304 0.949 . S
C4299 H4294 0.950 . S
C4299 C4301 1.327 . S
C4299 C4305 1.429 . S
C4300 C4292 1.574 . S
C4300 H4295 0.949 . S
C4300 C4306 1.368 . S
C4301 C4285 1.349 . S
C4301 H4293 0.950 . S
C4301 C4299 1.327 . S
C4302 C4290 1.349 . S
C4302 H4296 0.950 . S
C4302 C4303 1.327 . S
C4303 H4297 0.950 . S
C4303 C4302 1.327 . S
C4303 C4307 1.429 . S
C4304 C4287 1.574 . S
C4304 H4298 0.949 . S
C4304 C4308 1.368 . S
C4305 C4286 1.429 . S
C4305 C4299 1.429 . S
C4305 C4306 1.523 . S
C4306 C4287 1.368 . S
C4306 C4300 1.368 . S
C4306 C4305 1.523 . S
C4307 C4291 1.429 . S
C4307 C4303 1.429 . S
C4307 C4308 1.523 . S
C4308 C4292 1.368 . S
C4308 C4304 1.368 . S
C4308 C4307 1.523 . S
H4309 C4284 0.950 . S
H4310 C4286 0.950 . S
H4311 C4287 0.949 . S
H4312 C4289 0.950 . S
H4313 C4291 0.950 . S
C4314 C4315 1.349 . S
C4314 C4316 1.327 . S
C4314 H4339 0.950 . S
C4315 C4314 1.349 . S
C4315 C4331 1.349 . S
C4316 C4314 1.327 . S
C4316 C4335 1.429 . S
C4316 H4340 0.950 . S
C4317 C4334 1.574 . S
C4317 C4336 1.368 . S
C4317 H4341 0.949 . S
H4318 C4322 0.949 . S
C4319 C4320 1.349 . S
C4319 C4321 1.327 . S
C4319 H4342 0.950 . S
C4320 C4319 1.349 . S
C4320 C4332 1.349 . S
C4321 C4319 1.327 . S
C4321 C4337 1.429 . S
C4321 H4343 0.950 . S
C4322 H4318 0.949 . S
C4322 C4330 1.574 . S
C4322 C4338 1.368 . S
H4323 C4331 0.950 . S
H4324 C4329 0.950 . S
H4325 C4330 0.949 . S
H4326 C4332 0.950 . S
H4327 C4333 0.950 . S
H4328 C4334 0.949 . S
C4329 H4324 0.950 . S
C4329 C4331 1.327 . S
C4329 C4335 1.429 . S
C4330 C4322 1.574 . S
C4330 H4325 0.949 . S
C4330 C4336 1.368 . S
C4331 C4315 1.349 . S
C4331 H4323 0.950 . S
C4331 C4329 1.327 . S
C4332 C4320 1.349 . S
C4332 H4326 0.950 . S
C4332 C4333 1.327 . S
C4333 H4327 0.950 . S
C4333 C4332 1.327 . S
C4333 C4337 1.429 . S
C4334 C4317 1.574 . S
C4334 H4328 0.949 . S
C4334 C4338 1.368 . S
C4335 C4316 1.429 . S
C4335 C4329 1.429 . S
C4335 C4336 1.523 . S
C4336 C4317 1.368 . S
C4336 C4330 1.368 . S
C4336 C4335 1.523 . S
C4337 C4321 1.429 . S
C4337 C4333 1.429 . S
C4337 C4338 1.523 . S
C4338 C4322 1.368 . S
C4338 C4334 1.368 . S
C4338 C4337 1.523 . S
H4339 C4314 0.950 . S
H4340 C4316 0.950 . S
H4341 C4317 0.949 . S
H4342 C4319 0.950 . S
H4343 C4321 0.950 . S
C4344 C4345 1.349 . S
C4344 C4346 1.327 . S
C4344 H4369 0.950 . S
C4345 C4344 1.349 . S
C4345 C4361 1.349 . S
C4346 C4344 1.327 . S
C4346 C4365 1.429 . S
C4346 H4370 0.950 . S
C4347 C4364 1.574 . S
C4347 C4366 1.368 . S
C4347 H4371 0.949 . S
H4348 C4352 0.949 . S
C4349 C4350 1.349 . S
C4349 C4351 1.327 . S
C4349 H4372 0.950 . S
C4350 C4349 1.349 . S
C4350 C4362 1.349 . S
C4351 C4349 1.327 . S
C4351 C4367 1.429 . S
C4351 H4373 0.950 . S
C4352 H4348 0.949 . S
C4352 C4360 1.574 . S
C4352 C4368 1.368 . S
H4353 C4361 0.950 . S
H4354 C4359 0.950 . S
H4355 C4360 0.949 . S
H4356 C4362 0.950 . S
H4357 C4363 0.950 . S
H4358 C4364 0.949 . S
C4359 H4354 0.950 . S
C4359 C4361 1.327 . S
C4359 C4365 1.429 . S
C4360 C4352 1.574 . S
C4360 H4355 0.949 . S
C4360 C4366 1.368 . S
C4361 C4345 1.349 . S
C4361 H4353 0.950 . S
C4361 C4359 1.327 . S
C4362 C4350 1.349 . S
C4362 H4356 0.950 . S
C4362 C4363 1.327 . S
C4363 H4357 0.950 . S
C4363 C4362 1.327 . S
C4363 C4367 1.429 . S
C4364 C4347 1.574 . S
C4364 H4358 0.949 . S
C4364 C4368 1.368 . S
C4365 C4346 1.429 . S
C4365 C4359 1.429 . S
C4365 C4366 1.523 . S
C4366 C4347 1.368 . S
C4366 C4360 1.368 . S
C4366 C4365 1.523 . S
C4367 C4351 1.429 . S
C4367 C4363 1.429 . S
C4367 C4368 1.523 . S
C4368 C4352 1.368 . S
C4368 C4364 1.368 . S
C4368 C4367 1.523 . S
H4369 C4344 0.950 . S
H4370 C4346 0.950 . S
H4371 C4347 0.949 . S
H4372 C4349 0.950 . S
H4373 C4351 0.950 . S
C4374 C4375 1.349 . S
C4374 C4376 1.327 . S
C4374 H4399 0.950 . S
C4375 C4374 1.349 . S
C4375 C4391 1.349 . S
C4376 C4374 1.327 . S
C4376 C4395 1.429 . S
C4376 H4400 0.950 . S
C4377 C4394 1.574 . S
C4377 C4396 1.368 . S
C4377 H4401 0.949 . S
H4378 C4382 0.949 . S
C4379 C4380 1.349 . S
C4379 C4381 1.327 . S
C4379 H4402 0.950 . S
C4380 C4379 1.349 . S
C4380 C4392 1.349 . S
C4381 C4379 1.327 . S
C4381 C4397 1.429 . S
C4381 H4403 0.950 . S
C4382 H4378 0.949 . S
C4382 C4390 1.574 . S
C4382 C4398 1.368 . S
H4383 C4391 0.950 . S
H4384 C4389 0.950 . S
H4385 C4390 0.949 . S
H4386 C4392 0.950 . S
H4387 C4393 0.950 . S
H4388 C4394 0.949 . S
C4389 H4384 0.950 . S
C4389 C4391 1.327 . S
C4389 C4395 1.429 . S
C4390 C4382 1.574 . S
C4390 H4385 0.949 . S
C4390 C4396 1.368 . S
C4391 C4375 1.349 . S
C4391 H4383 0.950 . S
C4391 C4389 1.327 . S
C4392 C4380 1.349 . S
C4392 H4386 0.950 . S
C4392 C4393 1.327 . S
C4393 H4387 0.950 . S
C4393 C4392 1.327 . S
C4393 C4397 1.429 . S
C4394 C4377 1.574 . S
C4394 H4388 0.949 . S
C4394 C4398 1.368 . S
C4395 C4376 1.429 . S
C4395 C4389 1.429 . S
C4395 C4396 1.523 . S
C4396 C4377 1.368 . S
C4396 C4390 1.368 . S
C4396 C4395 1.523 . S
C4397 C4381 1.429 . S
C4397 C4393 1.429 . S
C4397 C4398 1.523 . S
C4398 C4382 1.368 . S
C4398 C4394 1.368 . S
C4398 C4397 1.523 . S
H4399 C4374 0.950 . S
H4400 C4376 0.950 . S
H4401 C4377 0.949 . S
H4402 C4379 0.950 . S
H4403 C4381 0.950 . S
C4404 C4405 1.349 . S
C4404 C4406 1.327 . S
C4404 H4429 0.950 . S
C4405 C4404 1.349 . S
C4405 C4421 1.349 . S
C4406 C4404 1.327 . S
C4406 C4425 1.429 . S
C4406 H4430 0.950 . S
C4407 C4424 1.574 . S
C4407 C4426 1.368 . S
C4407 H4431 0.949 . S
H4408 C4412 0.949 . S
C4409 C4410 1.349 . S
C4409 C4411 1.327 . S
C4409 H4432 0.950 . S
C4410 C4409 1.349 . S
C4410 C4422 1.349 . S
C4411 C4409 1.327 . S
C4411 C4427 1.429 . S
C4411 H4433 0.950 . S
C4412 H4408 0.949 . S
C4412 C4420 1.574 . S
C4412 C4428 1.368 . S
H4413 C4421 0.950 . S
H4414 C4419 0.950 . S
H4415 C4420 0.949 . S
H4416 C4422 0.950 . S
H4417 C4423 0.950 . S
H4418 C4424 0.949 . S
C4419 H4414 0.950 . S
C4419 C4421 1.327 . S
C4419 C4425 1.429 . S
C4420 C4412 1.574 . S
C4420 H4415 0.949 . S
C4420 C4426 1.368 . S
C4421 C4405 1.349 . S
C4421 H4413 0.950 . S
C4421 C4419 1.327 . S
C4422 C4410 1.349 . S
C4422 H4416 0.950 . S
C4422 C4423 1.327 . S
C4423 H4417 0.950 . S
C4423 C4422 1.327 . S
C4423 C4427 1.429 . S
C4424 C4407 1.574 . S
C4424 H4418 0.949 . S
C4424 C4428 1.368 . S
C4425 C4406 1.429 . S
C4425 C4419 1.429 . S
C4425 C4426 1.523 . S
C4426 C4407 1.368 . S
C4426 C4420 1.368 . S
C4426 C4425 1.523 . S
C4427 C4411 1.429 . S
C4427 C4423 1.429 . S
C4427 C4428 1.523 . S
C4428 C4412 1.368 . S
C4428 C4424 1.368 . S
C4428 C4427 1.523 . S
H4429 C4404 0.950 . S
H4430 C4406 0.950 . S
H4431 C4407 0.949 . S
H4432 C4409 0.950 . S
H4433 C4411 0.950 . S
C4434 C4435 1.349 . S
C4434 C4436 1.327 . S
C4434 H4459 0.950 . S
C4435 C4434 1.349 . S
C4435 C4451 1.349 . S
C4436 C4434 1.327 . S
C4436 C4455 1.429 . S
C4436 H4460 0.950 . S
C4437 C4454 1.574 . S
C4437 C4456 1.368 . S
C4437 H4461 0.949 . S
H4438 C4442 0.949 . S
C4439 C4440 1.349 . S
C4439 C4441 1.327 . S
C4439 H4462 0.950 . S
C4440 C4439 1.349 . S
C4440 C4452 1.349 . S
C4441 C4439 1.327 . S
C4441 C4457 1.429 . S
C4441 H4463 0.950 . S
C4442 H4438 0.949 . S
C4442 C4450 1.574 . S
C4442 C4458 1.368 . S
H4443 C4451 0.950 . S
H4444 C4449 0.950 . S
H4445 C4450 0.949 . S
H4446 C4452 0.950 . S
H4447 C4453 0.950 . S
H4448 C4454 0.949 . S
C4449 H4444 0.950 . S
C4449 C4451 1.327 . S
C4449 C4455 1.429 . S
C4450 C4442 1.574 . S
C4450 H4445 0.949 . S
C4450 C4456 1.368 . S
C4451 C4435 1.349 . S
C4451 H4443 0.950 . S
C4451 C4449 1.327 . S
C4452 C4440 1.349 . S
C4452 H4446 0.950 . S
C4452 C4453 1.327 . S
C4453 H4447 0.950 . S
C4453 C4452 1.327 . S
C4453 C4457 1.429 . S
C4454 C4437 1.574 . S
C4454 H4448 0.949 . S
C4454 C4458 1.368 . S
C4455 C4436 1.429 . S
C4455 C4449 1.429 . S
C4455 C4456 1.523 . S
C4456 C4437 1.368 . S
C4456 C4450 1.368 . S
C4456 C4455 1.523 . S
C4457 C4441 1.429 . S
C4457 C4453 1.429 . S
C4457 C4458 1.523 . S
C4458 C4442 1.368 . S
C4458 C4454 1.368 . S
C4458 C4457 1.523 . S
H4459 C4434 0.950 . S
H4460 C4436 0.950 . S
H4461 C4437 0.949 . S
H4462 C4439 0.950 . S
H4463 C4441 0.950 . S
C4464 C4465 1.349 . S
C4464 C4466 1.327 . S
C4464 H4489 0.950 . S
C4465 C4464 1.349 . S
C4465 C4481 1.349 . S
C4466 C4464 1.327 . S
C4466 C4485 1.429 . S
C4466 H4490 0.950 . S
C4467 C4484 1.574 . S
C4467 C4486 1.368 . S
C4467 H4491 0.949 . S
H4468 C4472 0.949 . S
C4469 C4470 1.349 . S
C4469 C4471 1.327 . S
C4469 H4492 0.950 . S
C4470 C4469 1.349 . S
C4470 C4482 1.349 . S
C4471 C4469 1.327 . S
C4471 C4487 1.429 . S
C4471 H4493 0.950 . S
C4472 H4468 0.949 . S
C4472 C4480 1.574 . S
C4472 C4488 1.368 . S
H4473 C4481 0.950 . S
H4474 C4479 0.950 . S
H4475 C4480 0.949 . S
H4476 C4482 0.950 . S
H4477 C4483 0.950 . S
H4478 C4484 0.949 . S
C4479 H4474 0.950 . S
C4479 C4481 1.327 . S
C4479 C4485 1.429 . S
C4480 C4472 1.574 . S
C4480 H4475 0.949 . S
C4480 C4486 1.368 . S
C4481 C4465 1.349 . S
C4481 H4473 0.950 . S
C4481 C4479 1.327 . S
C4482 C4470 1.349 . S
C4482 H4476 0.950 . S
C4482 C4483 1.327 . S
C4483 H4477 0.950 . S
C4483 C4482 1.327 . S
C4483 C4487 1.429 . S
C4484 C4467 1.574 . S
C4484 H4478 0.949 . S
C4484 C4488 1.368 . S
C4485 C4466 1.429 . S
C4485 C4479 1.429 . S
C4485 C4486 1.523 . S
C4486 C4467 1.368 . S
C4486 C4480 1.368 . S
C4486 C4485 1.523 . S
C4487 C4471 1.429 . S
C4487 C4483 1.429 . S
C4487 C4488 1.523 . S
C4488 C4472 1.368 . S
C4488 C4484 1.368 . S
C4488 C4487 1.523 . S
H4489 C4464 0.950 . S
H4490 C4466 0.950 . S
H4491 C4467 0.949 . S
H4492 C4469 0.950 . S
H4493 C4471 0.950 . S
C4494 C4495 1.349 . S
C4494 C4496 1.327 . S
C4494 H4519 0.950 . S
C4495 C4494 1.349 . S
C4495 C4511 1.349 . S
C4496 C4494 1.327 . S
C4496 C4515 1.429 . S
C4496 H4520 0.950 . S
C4497 C4514 1.574 . S
C4497 C4516 1.368 . S
C4497 H4521 0.949 . S
H4498 C4502 0.949 . S
C4499 C4500 1.349 . S
C4499 C4501 1.327 . S
C4499 H4522 0.950 . S
C4500 C4499 1.349 . S
C4500 C4512 1.349 . S
C4501 C4499 1.327 . S
C4501 C4517 1.429 . S
C4501 H4523 0.950 . S
C4502 H4498 0.949 . S
C4502 C4510 1.574 . S
C4502 C4518 1.368 . S
H4503 C4511 0.950 . S
H4504 C4509 0.950 . S
H4505 C4510 0.949 . S
H4506 C4512 0.950 . S
H4507 C4513 0.950 . S
H4508 C4514 0.949 . S
C4509 H4504 0.950 . S
C4509 C4511 1.327 . S
C4509 C4515 1.429 . S
C4510 C4502 1.574 . S
C4510 H4505 0.949 . S
C4510 C4516 1.368 . S
C4511 C4495 1.349 . S
C4511 H4503 0.950 . S
C4511 C4509 1.327 . S
C4512 C4500 1.349 . S
C4512 H4506 0.950 . S
C4512 C4513 1.327 . S
C4513 H4507 0.950 . S
C4513 C4512 1.327 . S
C4513 C4517 1.429 . S
C4514 C4497 1.574 . S
C4514 H4508 0.949 . S
C4514 C4518 1.368 . S
C4515 C4496 1.429 . S
C4515 C4509 1.429 . S
C4515 C4516 1.523 . S
C4516 C4497 1.368 . S
C4516 C4510 1.368 . S
C4516 C4515 1.523 . S
C4517 C4501 1.429 . S
C4517 C4513 1.429 . S
C4517 C4518 1.523 . S
C4518 C4502 1.368 . S
C4518 C4514 1.368 . S
C4518 C4517 1.523 . S
H4519 C4494 0.950 . S
H4520 C4496 0.950 . S
H4521 C4497 0.949 . S
H4522 C4499 0.950 . S
H4523 C4501 0.950 . S
C4524 C4525 1.349 . S
C4524 C4526 1.327 . S
C4524 H4549 0.950 . S
C4525 C4524 1.349 . S
C4525 C4541 1.349 . S
C4526 C4524 1.327 . S
C4526 C4545 1.429 . S
C4526 H4550 0.950 . S
C4527 C4544 1.574 . S
C4527 C4546 1.368 . S
C4527 H4551 0.949 . S
H4528 C4532 0.949 . S
C4529 C4530 1.349 . S
C4529 C4531 1.327 . S
C4529 H4552 0.950 . S
C4530 C4529 1.349 . S
C4530 C4542 1.349 . S
C4531 C4529 1.327 . S
C4531 C4547 1.429 . S
C4531 H4553 0.950 . S
C4532 H4528 0.949 . S
C4532 C4540 1.574 . S
C4532 C4548 1.368 . S
H4533 C4541 0.950 . S
H4534 C4539 0.950 . S
H4535 C4540 0.949 . S
H4536 C4542 0.950 . S
H4537 C4543 0.950 . S
H4538 C4544 0.949 . S
C4539 H4534 0.950 . S
C4539 C4541 1.327 . S
C4539 C4545 1.429 . S
C4540 C4532 1.574 . S
C4540 H4535 0.949 . S
C4540 C4546 1.368 . S
C4541 C4525 1.349 . S
C4541 H4533 0.950 . S
C4541 C4539 1.327 . S
C4542 C4530 1.349 . S
C4542 H4536 0.950 . S
C4542 C4543 1.327 . S
C4543 H4537 0.950 . S
C4543 C4542 1.327 . S
C4543 C4547 1.429 . S
C4544 C4527 1.574 . S
C4544 H4538 0.949 . S
C4544 C4548 1.368 . S
C4545 C4526 1.429 . S
C4545 C4539 1.429 . S
C4545 C4546 1.523 . S
C4546 C4527 1.368 . S
C4546 C4540 1.368 . S
C4546 C4545 1.523 . S
C4547 C4531 1.429 . S
C4547 C4543 1.429 . S
C4547 C4548 1.523 . S
C4548 C4532 1.368 . S
C4548 C4544 1.368 . S
C4548 C4547 1.523 . S
H4549 C4524 0.950 . S
H4550 C4526 0.950 . S
H4551 C4527 0.949 . S
H4552 C4529 0.950 . S
H4553 C4531 0.950 . S
C4554 C4555 1.349 . S
C4554 C4556 1.327 . S
C4554 H4579 0.950 . S
C4555 C4554 1.349 . S
C4555 C4571 1.349 . S
C4556 C4554 1.327 . S
C4556 C4575 1.429 . S
C4556 H4580 0.950 . S
C4557 C4574 1.574 . S
C4557 C4576 1.368 . S
C4557 H4581 0.949 . S
H4558 C4562 0.949 . S
C4559 C4560 1.349 . S
C4559 C4561 1.327 . S
C4559 H4582 0.950 . S
C4560 C4559 1.349 . S
C4560 C4572 1.349 . S
C4561 C4559 1.327 . S
C4561 C4577 1.429 . S
C4561 H4583 0.950 . S
C4562 H4558 0.949 . S
C4562 C4570 1.574 . S
C4562 C4578 1.368 . S
H4563 C4571 0.950 . S
H4564 C4569 0.950 . S
H4565 C4570 0.949 . S
H4566 C4572 0.950 . S
H4567 C4573 0.950 . S
H4568 C4574 0.949 . S
C4569 H4564 0.950 . S
C4569 C4571 1.327 . S
C4569 C4575 1.429 . S
C4570 C4562 1.574 . S
C4570 H4565 0.949 . S
C4570 C4576 1.368 . S
C4571 C4555 1.349 . S
C4571 H4563 0.950 . S
C4571 C4569 1.327 . S
C4572 C4560 1.349 . S
C4572 H4566 0.950 . S
C4572 C4573 1.327 . S
C4573 H4567 0.950 . S
C4573 C4572 1.327 . S
C4573 C4577 1.429 . S
C4574 C4557 1.574 . S
C4574 H4568 0.949 . S
C4574 C4578 1.368 . S
C4575 C4556 1.429 . S
C4575 C4569 1.429 . S
C4575 C4576 1.523 . S
C4576 C4557 1.368 . S
C4576 C4570 1.368 . S
C4576 C4575 1.523 . S
C4577 C4561 1.429 . S
C4577 C4573 1.429 . S
C4577 C4578 1.523 . S
C4578 C4562 1.368 . S
C4578 C4574 1.368 . S
C4578 C4577 1.523 . S
H4579 C4554 0.950 . S
H4580 C4556 0.950 . S
H4581 C4557 0.949 . S
H4582 C4559 0.950 . S
H4583 C4561 0.950 . S
C4584 C4585 1.349 . S
C4584 C4586 1.327 . S
C4584 H4609 0.950 . S
C4585 C4584 1.349 . S
C4585 C4601 1.349 . S
C4586 C4584 1.327 . S
C4586 C4605 1.429 . S
C4586 H4610 0.950 . S
C4587 C4604 1.574 . S
C4587 C4606 1.368 . S
C4587 H4611 0.949 . S
H4588 C4592 0.949 . S
C4589 C4590 1.349 . S
C4589 C4591 1.327 . S
C4589 H4612 0.950 . S
C4590 C4589 1.349 . S
C4590 C4602 1.349 . S
C4591 C4589 1.327 . S
C4591 C4607 1.429 . S
C4591 H4613 0.950 . S
C4592 H4588 0.949 . S
C4592 C4600 1.574 . S
C4592 C4608 1.368 . S
H4593 C4601 0.950 . S
H4594 C4599 0.950 . S
H4595 C4600 0.949 . S
H4596 C4602 0.950 . S
H4597 C4603 0.950 . S
H4598 C4604 0.949 . S
C4599 H4594 0.950 . S
C4599 C4601 1.327 . S
C4599 C4605 1.429 . S
C4600 C4592 1.574 . S
C4600 H4595 0.949 . S
C4600 C4606 1.368 . S
C4601 C4585 1.349 . S
C4601 H4593 0.950 . S
C4601 C4599 1.327 . S
C4602 C4590 1.349 . S
C4602 H4596 0.950 . S
C4602 C4603 1.327 . S
C4603 H4597 0.950 . S
C4603 C4602 1.327 . S
C4603 C4607 1.429 . S
C4604 C4587 1.574 . S
C4604 H4598 0.949 . S
C4604 C4608 1.368 . S
C4605 C4586 1.429 . S
C4605 C4599 1.429 . S
C4605 C4606 1.523 . S
C4606 C4587 1.368 . S
C4606 C4600 1.368 . S
C4606 C4605 1.523 . S
C4607 C4591 1.429 . S
C4607 C4603 1.429 . S
C4607 C4608 1.523 . S
C4608 C4592 1.368 . S
C4608 C4604 1.368 . S
C4608 C4607 1.523 . S
H4609 C4584 0.950 . S
H4610 C4586 0.950 . S
H4611 C4587 0.949 . S
H4612 C4589 0.950 . S
H4613 C4591 0.950 . S
C4614 C4615 1.349 . S
C4614 C4616 1.327 . S
C4614 H4639 0.950 . S
C4615 C4614 1.349 . S
C4615 C4631 1.349 . S
C4616 C4614 1.327 . S
C4616 C4635 1.429 . S
C4616 H4640 0.950 . S
C4617 C4634 1.574 . S
C4617 C4636 1.368 . S
C4617 H4641 0.949 . S
H4618 C4622 0.949 . S
C4619 C4620 1.349 . S
C4619 C4621 1.327 . S
C4619 H4642 0.950 . S
C4620 C4619 1.349 . S
C4620 C4632 1.349 . S
C4621 C4619 1.327 . S
C4621 C4637 1.429 . S
C4621 H4643 0.950 . S
C4622 H4618 0.949 . S
C4622 C4630 1.574 . S
C4622 C4638 1.368 . S
H4623 C4631 0.950 . S
H4624 C4629 0.950 . S
H4625 C4630 0.949 . S
H4626 C4632 0.950 . S
H4627 C4633 0.950 . S
H4628 C4634 0.949 . S
C4629 H4624 0.950 . S
C4629 C4631 1.327 . S
C4629 C4635 1.429 . S
C4630 C4622 1.574 . S
C4630 H4625 0.949 . S
C4630 C4636 1.368 . S
C4631 C4615 1.349 . S
C4631 H4623 0.950 . S
C4631 C4629 1.327 . S
C4632 C4620 1.349 . S
C4632 H4626 0.950 . S
C4632 C4633 1.327 . S
C4633 H4627 0.950 . S
C4633 C4632 1.327 . S
C4633 C4637 1.429 . S
C4634 C4617 1.574 . S
C4634 H4628 0.949 . S
C4634 C4638 1.368 . S
C4635 C4616 1.429 . S
C4635 C4629 1.429 . S
C4635 C4636 1.523 . S
C4636 C4617 1.368 . S
C4636 C4630 1.368 . S
C4636 C4635 1.523 . S
C4637 C4621 1.429 . S
C4637 C4633 1.429 . S
C4637 C4638 1.523 . S
C4638 C4622 1.368 . S
C4638 C4634 1.368 . S
C4638 C4637 1.523 . S
H4639 C4614 0.950 . S
H4640 C4616 0.950 . S
H4641 C4617 0.949 . S
H4642 C4619 0.950 . S
H4643 C4621 0.950 . S
C4644 C4645 1.349 . S
C4644 C4646 1.327 . S
C4644 H4669 0.950 . S
C4645 C4644 1.349 . S
C4645 C4661 1.349 . S
C4646 C4644 1.327 . S
C4646 C4665 1.429 . S
C4646 H4670 0.950 . S
C4647 C4664 1.574 . S
C4647 C4666 1.368 . S
C4647 H4671 0.949 . S
H4648 C4652 0.949 . S
C4649 C4650 1.349 . S
C4649 C4651 1.327 . S
C4649 H4672 0.950 . S
C4650 C4649 1.349 . S
C4650 C4662 1.349 . S
C4651 C4649 1.327 . S
C4651 C4667 1.429 . S
C4651 H4673 0.950 . S
C4652 H4648 0.949 . S
C4652 C4660 1.574 . S
C4652 C4668 1.368 . S
H4653 C4661 0.950 . S
H4654 C4659 0.950 . S
H4655 C4660 0.949 . S
H4656 C4662 0.950 . S
H4657 C4663 0.950 . S
H4658 C4664 0.949 . S
C4659 H4654 0.950 . S
C4659 C4661 1.327 . S
C4659 C4665 1.429 . S
C4660 C4652 1.574 . S
C4660 H4655 0.949 . S
C4660 C4666 1.368 . S
C4661 C4645 1.349 . S
C4661 H4653 0.950 . S
C4661 C4659 1.327 . S
C4662 C4650 1.349 . S
C4662 H4656 0.950 . S
C4662 C4663 1.327 . S
C4663 H4657 0.950 . S
C4663 C4662 1.327 . S
C4663 C4667 1.429 . S
C4664 C4647 1.574 . S
C4664 H4658 0.949 . S
C4664 C4668 1.368 . S
C4665 C4646 1.429 . S
C4665 C4659 1.429 . S
C4665 C4666 1.523 . S
C4666 C4647 1.368 . S
C4666 C4660 1.368 . S
C4666 C4665 1.523 . S
C4667 C4651 1.429 . S
C4667 C4663 1.429 . S
C4667 C4668 1.523 . S
C4668 C4652 1.368 . S
C4668 C4664 1.368 . S
C4668 C4667 1.523 . S
H4669 C4644 0.950 . S
H4670 C4646 0.950 . S
H4671 C4647 0.949 . S
H4672 C4649 0.950 . S
H4673 C4651 0.950 . S
C4674 C4675 1.349 . S
C4674 C4676 1.327 . S
C4674 H4699 0.950 . S
C4675 C4674 1.349 . S
C4675 C4691 1.349 . S
C4676 C4674 1.327 . S
C4676 C4695 1.429 . S
C4676 H4700 0.950 . S
C4677 C4694 1.574 . S
C4677 C4696 1.368 . S
C4677 H4701 0.949 . S
H4678 C4682 0.949 . S
C4679 C4680 1.349 . S
C4679 C4681 1.327 . S
C4679 H4702 0.950 . S
C4680 C4679 1.349 . S
C4680 C4692 1.349 . S
C4681 C4679 1.327 . S
C4681 C4697 1.429 . S
C4681 H4703 0.950 . S
C4682 H4678 0.949 . S
C4682 C4690 1.574 . S
C4682 C4698 1.368 . S
H4683 C4691 0.950 . S
H4684 C4689 0.950 . S
H4685 C4690 0.949 . S
H4686 C4692 0.950 . S
H4687 C4693 0.950 . S
H4688 C4694 0.949 . S
C4689 H4684 0.950 . S
C4689 C4691 1.327 . S
C4689 C4695 1.429 . S
C4690 C4682 1.574 . S
C4690 H4685 0.949 . S
C4690 C4696 1.368 . S
C4691 C4675 1.349 . S
C4691 H4683 0.950 . S
C4691 C4689 1.327 . S
C4692 C4680 1.349 . S
C4692 H4686 0.950 . S
C4692 C4693 1.327 . S
C4693 H4687 0.950 . S
C4693 C4692 1.327 . S
C4693 C4697 1.429 . S
C4694 C4677 1.574 . S
C4694 H4688 0.949 . S
C4694 C4698 1.368 . S
C4695 C4676 1.429 . S
C4695 C4689 1.429 . S
C4695 C4696 1.523 . S
C4696 C4677 1.368 . S
C4696 C4690 1.368 . S
C4696 C4695 1.523 . S
C4697 C4681 1.429 . S
C4697 C4693 1.429 . S
C4697 C4698 1.523 . S
C4698 C4682 1.368 . S
C4698 C4694 1.368 . S
C4698 C4697 1.523 . S
H4699 C4674 0.950 . S
H4700 C4676 0.950 . S
H4701 C4677 0.949 . S
H4702 C4679 0.950 . S
H4703 C4681 0.950 . S
C4704 C4705 1.349 . S
C4704 C4706 1.327 . S
C4704 H4729 0.950 . S
C4705 C4704 1.349 . S
C4705 C4721 1.349 . S
C4706 C4704 1.327 . S
C4706 C4725 1.429 . S
C4706 H4730 0.950 . S
C4707 C4724 1.574 . S
C4707 C4726 1.368 . S
C4707 H4731 0.949 . S
H4708 C4712 0.949 . S
C4709 C4710 1.349 . S
C4709 C4711 1.327 . S
C4709 H4732 0.950 . S
C4710 C4709 1.349 . S
C4710 C4722 1.349 . S
C4711 C4709 1.327 . S
C4711 C4727 1.429 . S
C4711 H4733 0.950 . S
C4712 H4708 0.949 . S
C4712 C4720 1.574 . S
C4712 C4728 1.368 . S
H4713 C4721 0.950 . S
H4714 C4719 0.950 . S
H4715 C4720 0.949 . S
H4716 C4722 0.950 . S
H4717 C4723 0.950 . S
H4718 C4724 0.949 . S
C4719 H4714 0.950 . S
C4719 C4721 1.327 . S
C4719 C4725 1.429 . S
C4720 C4712 1.574 . S
C4720 H4715 0.949 . S
C4720 C4726 1.368 . S
C4721 C4705 1.349 . S
C4721 H4713 0.950 . S
C4721 C4719 1.327 . S
C4722 C4710 1.349 . S
C4722 H4716 0.950 . S
C4722 C4723 1.327 . S
C4723 H4717 0.950 . S
C4723 C4722 1.327 . S
C4723 C4727 1.429 . S
C4724 C4707 1.574 . S
C4724 H4718 0.949 . S
C4724 C4728 1.368 . S
C4725 C4706 1.429 . S
C4725 C4719 1.429 . S
C4725 C4726 1.523 . S
C4726 C4707 1.368 . S
C4726 C4720 1.368 . S
C4726 C4725 1.523 . S
C4727 C4711 1.429 . S
C4727 C4723 1.429 . S
C4727 C4728 1.523 . S
C4728 C4712 1.368 . S
C4728 C4724 1.368 . S
C4728 C4727 1.523 . S
H4729 C4704 0.950 . S
H4730 C4706 0.950 . S
H4731 C4707 0.949 . S
H4732 C4709 0.950 . S
H4733 C4711 0.950 . S
C4734 C4735 1.349 . S
C4734 C4736 1.327 . S
C4734 H4759 0.950 . S
C4735 C4734 1.349 . S
C4735 C4751 1.349 . S
C4736 C4734 1.327 . S
C4736 C4755 1.429 . S
C4736 H4760 0.950 . S
C4737 C4754 1.574 . S
C4737 C4756 1.368 . S
C4737 H4761 0.949 . S
H4738 C4742 0.949 . S
C4739 C4740 1.349 . S
C4739 C4741 1.327 . S
C4739 H4762 0.950 . S
C4740 C4739 1.349 . S
C4740 C4752 1.349 . S
C4741 C4739 1.327 . S
C4741 C4757 1.429 . S
C4741 H4763 0.950 . S
C4742 H4738 0.949 . S
C4742 C4750 1.574 . S
C4742 C4758 1.368 . S
H4743 C4751 0.950 . S
H4744 C4749 0.950 . S
H4745 C4750 0.949 . S
H4746 C4752 0.950 . S
H4747 C4753 0.950 . S
H4748 C4754 0.949 . S
C4749 H4744 0.950 . S
C4749 C4751 1.327 . S
C4749 C4755 1.429 . S
C4750 C4742 1.574 . S
C4750 H4745 0.949 . S
C4750 C4756 1.368 . S
C4751 C4735 1.349 . S
C4751 H4743 0.950 . S
C4751 C4749 1.327 . S
C4752 C4740 1.349 . S
C4752 H4746 0.950 . S
C4752 C4753 1.327 . S
C4753 H4747 0.950 . S
C4753 C4752 1.327 . S
C4753 C4757 1.429 . S
C4754 C4737 1.574 . S
C4754 H4748 0.949 . S
C4754 C4758 1.368 . S
C4755 C4736 1.429 . S
C4755 C4749 1.429 . S
C4755 C4756 1.523 . S
C4756 C4737 1.368 . S
C4756 C4750 1.368 . S
C4756 C4755 1.523 . S
C4757 C4741 1.429 . S
C4757 C4753 1.429 . S
C4757 C4758 1.523 . S
C4758 C4742 1.368 . S
C4758 C4754 1.368 . S
C4758 C4757 1.523 . S
H4759 C4734 0.950 . S
H4760 C4736 0.950 . S
H4761 C4737 0.949 . S
H4762 C4739 0.950 . S
H4763 C4741 0.950 . S
C4764 C4765 1.349 . S
C4764 C4766 1.327 . S
C4764 H4789 0.950 . S
C4765 C4764 1.349 . S
C4765 C4781 1.349 . S
C4766 C4764 1.327 . S
C4766 C4785 1.429 . S
C4766 H4790 0.950 . S
C4767 C4784 1.574 . S
C4767 C4786 1.368 . S
C4767 H4791 0.949 . S
H4768 C4772 0.949 . S
C4769 C4770 1.349 . S
C4769 C4771 1.327 . S
C4769 H4792 0.950 . S
C4770 C4769 1.349 . S
C4770 C4782 1.349 . S
C4771 C4769 1.327 . S
C4771 C4787 1.429 . S
C4771 H4793 0.950 . S
C4772 H4768 0.949 . S
C4772 C4780 1.574 . S
C4772 C4788 1.368 . S
H4773 C4781 0.950 . S
H4774 C4779 0.950 . S
H4775 C4780 0.949 . S
H4776 C4782 0.950 . S
H4777 C4783 0.950 . S
H4778 C4784 0.949 . S
C4779 H4774 0.950 . S
C4779 C4781 1.327 . S
C4779 C4785 1.429 . S
C4780 C4772 1.574 . S
C4780 H4775 0.949 . S
C4780 C4786 1.368 . S
C4781 C4765 1.349 . S
C4781 H4773 0.950 . S
C4781 C4779 1.327 . S
C4782 C4770 1.349 . S
C4782 H4776 0.950 . S
C4782 C4783 1.327 . S
C4783 H4777 0.950 . S
C4783 C4782 1.327 . S
C4783 C4787 1.429 . S
C4784 C4767 1.574 . S
C4784 H4778 0.949 . S
C4784 C4788 1.368 . S
C4785 C4766 1.429 . S
C4785 C4779 1.429 . S
C4785 C4786 1.523 . S
C4786 C4767 1.368 . S
C4786 C4780 1.368 . S
C4786 C4785 1.523 . S
C4787 C4771 1.429 . S
C4787 C4783 1.429 . S
C4787 C4788 1.523 . S
C4788 C4772 1.368 . S
C4788 C4784 1.368 . S
C4788 C4787 1.523 . S
H4789 C4764 0.950 . S
H4790 C4766 0.950 . S
H4791 C4767 0.949 . S
H4792 C4769 0.950 . S
H4793 C4771 0.950 . S
C4794 C4795 1.349 . S
C4794 C4796 1.327 . S
C4794 H4819 0.950 . S
C4795 C4794 1.349 . S
C4795 C4811 1.349 . S
C4796 C4794 1.327 . S
C4796 C4815 1.429 . S
C4796 H4820 0.950 . S
C4797 C4814 1.574 . S
C4797 C4816 1.368 . S
C4797 H4821 0.949 . S
H4798 C4802 0.949 . S
C4799 C4800 1.349 . S
C4799 C4801 1.327 . S
C4799 H4822 0.950 . S
C4800 C4799 1.349 . S
C4800 C4812 1.349 . S
C4801 C4799 1.327 . S
C4801 C4817 1.429 . S
C4801 H4823 0.950 . S
C4802 H4798 0.949 . S
C4802 C4810 1.574 . S
C4802 C4818 1.368 . S
H4803 C4811 0.950 . S
H4804 C4809 0.950 . S
H4805 C4810 0.949 . S
H4806 C4812 0.950 . S
H4807 C4813 0.950 . S
H4808 C4814 0.949 . S
C4809 H4804 0.950 . S
C4809 C4811 1.327 . S
C4809 C4815 1.429 . S
C4810 C4802 1.574 . S
C4810 H4805 0.949 . S
C4810 C4816 1.368 . S
C4811 C4795 1.349 . S
C4811 H4803 0.950 . S
C4811 C4809 1.327 . S
C4812 C4800 1.349 . S
C4812 H4806 0.950 . S
C4812 C4813 1.327 . S
C4813 H4807 0.950 . S
C4813 C4812 1.327 . S
C4813 C4817 1.429 . S
C4814 C4797 1.574 . S
C4814 H4808 0.949 . S
C4814 C4818 1.368 . S
C4815 C4796 1.429 . S
C4815 C4809 1.429 . S
C4815 C4816 1.523 . S
C4816 C4797 1.368 . S
C4816 C4810 1.368 . S
C4816 C4815 1.523 . S
C4817 C4801 1.429 . S
C4817 C4813 1.429 . S
C4817 C4818 1.523 . S
C4818 C4802 1.368 . S
C4818 C4814 1.368 . S
C4818 C4817 1.523 . S
H4819 C4794 0.950 . S
H4820 C4796 0.950 . S
H4821 C4797 0.949 . S
H4822 C4799 0.950 . S
H4823 C4801 0.950 . S
C4824 C4825 1.349 . S
C4824 C4826 1.327 . S
C4824 H4849 0.950 . S
C4825 C4824 1.349 . S
C4825 C4841 1.349 . S
C4826 C4824 1.327 . S
C4826 C4845 1.429 . S
C4826 H4850 0.950 . S
C4827 C4844 1.574 . S
C4827 C4846 1.368 . S
C4827 H4851 0.949 . S
H4828 C4832 0.949 . S
C4829 C4830 1.349 . S
C4829 C4831 1.327 . S
C4829 H4852 0.950 . S
C4830 C4829 1.349 . S
C4830 C4842 1.349 . S
C4831 C4829 1.327 . S
C4831 C4847 1.429 . S
C4831 H4853 0.950 . S
C4832 H4828 0.949 . S
C4832 C4840 1.574 . S
C4832 C4848 1.368 . S
H4833 C4841 0.950 . S
H4834 C4839 0.950 . S
H4835 C4840 0.949 . S
H4836 C4842 0.950 . S
H4837 C4843 0.950 . S
H4838 C4844 0.949 . S
C4839 H4834 0.950 . S
C4839 C4841 1.327 . S
C4839 C4845 1.429 . S
C4840 C4832 1.574 . S
C4840 H4835 0.949 . S
C4840 C4846 1.368 . S
C4841 C4825 1.349 . S
C4841 H4833 0.950 . S
C4841 C4839 1.327 . S
C4842 C4830 1.349 . S
C4842 H4836 0.950 . S
C4842 C4843 1.327 . S
C4843 H4837 0.950 . S
C4843 C4842 1.327 . S
C4843 C4847 1.429 . S
C4844 C4827 1.574 . S
C4844 H4838 0.949 . S
C4844 C4848 1.368 . S
C4845 C4826 1.429 . S
C4845 C4839 1.429 . S
C4845 C4846 1.523 . S
C4846 C4827 1.368 . S
C4846 C4840 1.368 . S
C4846 C4845 1.523 . S
C4847 C4831 1.429 . S
C4847 C4843 1.429 . S
C4847 C4848 1.523 . S
C4848 C4832 1.368 . S
C4848 C4844 1.368 . S
C4848 C4847 1.523 . S
H4849 C4824 0.950 . S
H4850 C4826 0.950 . S
H4851 C4827 0.949 . S
H4852 C4829 0.950 . S
H4853 C4831 0.950 . S
C4854 C4855 1.349 . S
C4854 C4856 1.327 . S
C4854 H4879 0.950 . S
C4855 C4854 1.349 . S
C4855 C4871 1.349 . S
C4856 C4854 1.327 . S
C4856 C4875 1.429 . S
C4856 H4880 0.950 . S
C4857 C4874 1.574 . S
C4857 C4876 1.368 . S
C4857 H4881 0.949 . S
H4858 C4862 0.949 . S
C4859 C4860 1.349 . S
C4859 C4861 1.327 . S
C4859 H4882 0.950 . S
C4860 C4859 1.349 . S
C4860 C4872 1.349 . S
C4861 C4859 1.327 . S
C4861 C4877 1.429 . S
C4861 H4883 0.950 . S
C4862 H4858 0.949 . S
C4862 C4870 1.574 . S
C4862 C4878 1.368 . S
H4863 C4871 0.950 . S
H4864 C4869 0.950 . S
H4865 C4870 0.949 . S
H4866 C4872 0.950 . S
H4867 C4873 0.950 . S
H4868 C4874 0.949 . S
C4869 H4864 0.950 . S
C4869 C4871 1.327 . S
C4869 C4875 1.429 . S
C4870 C4862 1.574 . S
C4870 H4865 0.949 . S
C4870 C4876 1.368 . S
C4871 C4855 1.349 . S
C4871 H4863 0.950 . S
C4871 C4869 1.327 . S
C4872 C4860 1.349 . S
C4872 H4866 0.950 . S
C4872 C4873 1.327 . S
C4873 H4867 0.950 . S
C4873 C4872 1.327 . S
C4873 C4877 1.429 . S
C4874 C4857 1.574 . S
C4874 H4868 0.949 . S
C4874 C4878 1.368 . S
C4875 C4856 1.429 . S
C4875 C4869 1.429 . S
C4875 C4876 1.523 . S
C4876 C4857 1.368 . S
C4876 C4870 1.368 . S
C4876 C4875 1.523 . S
C4877 C4861 1.429 . S
C4877 C4873 1.429 . S
C4877 C4878 1.523 . S
C4878 C4862 1.368 . S
C4878 C4874 1.368 . S
C4878 C4877 1.523 . S
H4879 C4854 0.950 . S
H4880 C4856 0.950 . S
H4881 C4857 0.949 . S
H4882 C4859 0.950 . S
H4883 C4861 0.950 . S
C4884 C4885 1.349 . S
C4884 C4886 1.327 . S
C4884 H4909 0.950 . S
C4885 C4884 1.349 . S
C4885 C4901 1.349 . S
C4886 C4884 1.327 . S
C4886 C4905 1.429 . S
C4886 H4910 0.950 . S
C4887 C4904 1.574 . S
C4887 C4906 1.368 . S
C4887 H4911 0.949 . S
H4888 C4892 0.949 . S
C4889 C4890 1.349 . S
C4889 C4891 1.327 . S
C4889 H4912 0.950 . S
C4890 C4889 1.349 . S
C4890 C4902 1.349 . S
C4891 C4889 1.327 . S
C4891 C4907 1.429 . S
C4891 H4913 0.950 . S
C4892 H4888 0.949 . S
C4892 C4900 1.574 . S
C4892 C4908 1.368 . S
H4893 C4901 0.950 . S
H4894 C4899 0.950 . S
H4895 C4900 0.949 . S
H4896 C4902 0.950 . S
H4897 C4903 0.950 . S
H4898 C4904 0.949 . S
C4899 H4894 0.950 . S
C4899 C4901 1.327 . S
C4899 C4905 1.429 . S
C4900 C4892 1.574 . S
C4900 H4895 0.949 . S
C4900 C4906 1.368 . S
C4901 C4885 1.349 . S
C4901 H4893 0.950 . S
C4901 C4899 1.327 . S
C4902 C4890 1.349 . S
C4902 H4896 0.950 . S
C4902 C4903 1.327 . S
C4903 H4897 0.950 . S
C4903 C4902 1.327 . S
C4903 C4907 1.429 . S
C4904 C4887 1.574 . S
C4904 H4898 0.949 . S
C4904 C4908 1.368 . S
C4905 C4886 1.429 . S
C4905 C4899 1.429 . S
C4905 C4906 1.523 . S
C4906 C4887 1.368 . S
C4906 C4900 1.368 . S
C4906 C4905 1.523 . S
C4907 C4891 1.429 . S
C4907 C4903 1.429 . S
C4907 C4908 1.523 . S
C4908 C4892 1.368 . S
C4908 C4904 1.368 . S
C4908 C4907 1.523 . S
H4909 C4884 0.950 . S
H4910 C4886 0.950 . S
H4911 C4887 0.949 . S
H4912 C4889 0.950 . S
H4913 C4891 0.950 . S
C4914 C4915 1.349 . S
C4914 C4916 1.327 . S
C4914 H4939 0.950 . S
C4915 C4914 1.349 . S
C4915 C4931 1.349 . S
C4916 C4914 1.327 . S
C4916 C4935 1.429 . S
C4916 H4940 0.950 . S
C4917 C4934 1.574 . S
C4917 C4936 1.368 . S
C4917 H4941 0.949 . S
H4918 C4922 0.949 . S
C4919 C4920 1.349 . S
C4919 C4921 1.327 . S
C4919 H4942 0.950 . S
C4920 C4919 1.349 . S
C4920 C4932 1.349 . S
C4921 C4919 1.327 . S
C4921 C4937 1.429 . S
C4921 H4943 0.950 . S
C4922 H4918 0.949 . S
C4922 C4930 1.574 . S
C4922 C4938 1.368 . S
H4923 C4931 0.950 . S
H4924 C4929 0.950 . S
H4925 C4930 0.949 . S
H4926 C4932 0.950 . S
H4927 C4933 0.950 . S
H4928 C4934 0.949 . S
C4929 H4924 0.950 . S
C4929 C4931 1.327 . S
C4929 C4935 1.429 . S
C4930 C4922 1.574 . S
C4930 H4925 0.949 . S
C4930 C4936 1.368 . S
C4931 C4915 1.349 . S
C4931 H4923 0.950 . S
C4931 C4929 1.327 . S
C4932 C4920 1.349 . S
C4932 H4926 0.950 . S
C4932 C4933 1.327 . S
C4933 H4927 0.950 . S
C4933 C4932 1.327 . S
C4933 C4937 1.429 . S
C4934 C4917 1.574 . S
C4934 H4928 0.949 . S
C4934 C4938 1.368 . S
C4935 C4916 1.429 . S
C4935 C4929 1.429 . S
C4935 C4936 1.523 . S
C4936 C4917 1.368 . S
C4936 C4930 1.368 . S
C4936 C4935 1.523 . S
C4937 C4921 1.429 . S
C4937 C4933 1.429 . S
C4937 C4938 1.523 . S
C4938 C4922 1.368 . S
C4938 C4934 1.368 . S
C4938 C4937 1.523 . S
H4939 C4914 0.950 . S
H4940 C4916 0.950 . S
H4941 C4917 0.949 . S
H4942 C4919 0.950 . S
H4943 C4921 0.950 . S
C4944 C4945 1.349 . S
C4944 C4946 1.327 . S
C4944 H4969 0.950 . S
C4945 C4944 1.349 . S
C4945 C4961 1.349 . S
C4946 C4944 1.327 . S
C4946 C4965 1.429 . S
C4946 H4970 0.950 . S
C4947 C4964 1.574 . S
C4947 C4966 1.368 . S
C4947 H4971 0.949 . S
H4948 C4952 0.949 . S
C4949 C4950 1.349 . S
C4949 C4951 1.327 . S
C4949 H4972 0.950 . S
C4950 C4949 1.349 . S
C4950 C4962 1.349 . S
C4951 C4949 1.327 . S
C4951 C4967 1.429 . S
C4951 H4973 0.950 . S
C4952 H4948 0.949 . S
C4952 C4960 1.574 . S
C4952 C4968 1.368 . S
H4953 C4961 0.950 . S
H4954 C4959 0.950 . S
H4955 C4960 0.949 . S
H4956 C4962 0.950 . S
H4957 C4963 0.950 . S
H4958 C4964 0.949 . S
C4959 H4954 0.950 . S
C4959 C4961 1.327 . S
C4959 C4965 1.429 . S
C4960 C4952 1.574 . S
C4960 H4955 0.949 . S
C4960 C4966 1.368 . S
C4961 C4945 1.349 . S
C4961 H4953 0.950 . S
C4961 C4959 1.327 . S
C4962 C4950 1.349 . S
C4962 H4956 0.950 . S
C4962 C4963 1.327 . S
C4963 H4957 0.950 . S
C4963 C4962 1.327 . S
C4963 C4967 1.429 . S
C4964 C4947 1.574 . S
C4964 H4958 0.949 . S
C4964 C4968 1.368 . S
C4965 C4946 1.429 . S
C4965 C4959 1.429 . S
C4965 C4966 1.523 . S
C4966 C4947 1.368 . S
C4966 C4960 1.368 . S
C4966 C4965 1.523 . S
C4967 C4951 1.429 . S
C4967 C4963 1.429 . S
C4967 C4968 1.523 . S
C4968 C4952 1.368 . S
C4968 C4964 1.368 . S
C4968 C4967 1.523 . S
H4969 C4944 0.950 . S
H4970 C4946 0.950 . S
H4971 C4947 0.949 . S
H4972 C4949 0.950 . S
H4973 C4951 0.950 . S
C4974 C4975 1.349 . S
C4974 C4976 1.327 . S
C4974 H4999 0.950 . S
C4975 C4974 1.349 . S
C4975 C4991 1.349 . S
C4976 C4974 1.327 . S
C4976 C4995 1.429 . S
C4976 H5000 0.950 . S
C4977 C4994 1.574 . S
C4977 C4996 1.368 . S
C4977 H5001 0.949 . S
H4978 C4982 0.949 . S
C4979 C4980 1.349 . S
C4979 C4981 1.327 . S
C4979 H5002 0.950 . S
C4980 C4979 1.349 . S
C4980 C4992 1.349 . S
C4981 C4979 1.327 . S
C4981 C4997 1.429 . S
C4981 H5003 0.950 . S
C4982 H4978 0.949 . S
C4982 C4990 1.574 . S
C4982 C4998 1.368 . S
H4983 C4991 0.950 . S
H4984 C4989 0.950 . S
H4985 C4990 0.949 . S
H4986 C4992 0.950 . S
H4987 C4993 0.950 . S
H4988 C4994 0.949 . S
C4989 H4984 0.950 . S
C4989 C4991 1.327 . S
C4989 C4995 1.429 . S
C4990 C4982 1.574 . S
C4990 H4985 0.949 . S
C4990 C4996 1.368 . S
C4991 C4975 1.349 . S
C4991 H4983 0.950 . S
C4991 C4989 1.327 . S
C4992 C4980 1.349 . S
C4992 H4986 0.950 . S
C4992 C4993 1.327 . S
C4993 H4987 0.950 . S
C4993 C4992 1.327 . S
C4993 C4997 1.429 . S
C4994 C4977 1.574 . S
C4994 H4988 0.949 . S
C4994 C4998 1.368 . S
C4995 C4976 1.429 . S
C4995 C4989 1.429 . S
C4995 C4996 1.523 . S
C4996 C4977 1.368 . S
C4996 C4990 1.368 . S
C4996 C4995 1.523 . S
C4997 C4981 1.429 . S
C4997 C4993 1.429 . S
C4997 C4998 1.523 . S
C4998 C4982 1.368 . S
C4998 C4994 1.368 . S
C4998 C4997 1.523 . S
H4999 C4974 0.950 . S
H5000 C4976 0.950 . S
H5001 C4977 0.949 . S
H5002 C4979 0.950 . S
H5003 C4981 0.950 . S
C5004 C5005 1.349 . S
C5004 C5006 1.327 . S
C5004 H5029 0.950 . S
C5005 C5004 1.349 . S
C5005 C5021 1.349 . S
C5006 C5004 1.327 . S
C5006 C5025 1.429 . S
C5006 H5030 0.950 . S
C5007 C5024 1.574 . S
C5007 C5026 1.368 . S
C5007 H5031 0.949 . S
H5008 C5012 0.949 . S
C5009 C5010 1.349 . S
C5009 C5011 1.327 . S
C5009 H5032 0.950 . S
C5010 C5009 1.349 . S
C5010 C5022 1.349 . S
C5011 C5009 1.327 . S
C5011 C5027 1.429 . S
C5011 H5033 0.950 . S
C5012 H5008 0.949 . S
C5012 C5020 1.574 . S
C5012 C5028 1.368 . S
H5013 C5021 0.950 . S
H5014 C5019 0.950 . S
H5015 C5020 0.949 . S
H5016 C5022 0.950 . S
H5017 C5023 0.950 . S
H5018 C5024 0.949 . S
C5019 H5014 0.950 . S
C5019 C5021 1.327 . S
C5019 C5025 1.429 . S
C5020 C5012 1.574 . S
C5020 H5015 0.949 . S
C5020 C5026 1.368 . S
C5021 C5005 1.349 . S
C5021 H5013 0.950 . S
C5021 C5019 1.327 . S
C5022 C5010 1.349 . S
C5022 H5016 0.950 . S
C5022 C5023 1.327 . S
C5023 H5017 0.950 . S
C5023 C5022 1.327 . S
C5023 C5027 1.429 . S
C5024 C5007 1.574 . S
C5024 H5018 0.949 . S
C5024 C5028 1.368 . S
C5025 C5006 1.429 . S
C5025 C5019 1.429 . S
C5025 C5026 1.523 . S
C5026 C5007 1.368 . S
C5026 C5020 1.368 . S
C5026 C5025 1.523 . S
C5027 C5011 1.429 . S
C5027 C5023 1.429 . S
C5027 C5028 1.523 . S
C5028 C5012 1.368 . S
C5028 C5024 1.368 . S
C5028 C5027 1.523 . S
H5029 C5004 0.950 . S
H5030 C5006 0.950 . S
H5031 C5007 0.949 . S
H5032 C5009 0.950 . S
H5033 C5011 0.950 . S
C5034 C5035 1.349 . S
C5034 C5036 1.327 . S
C5034 H5059 0.950 . S
C5035 C5034 1.349 . S
C5035 C5051 1.349 . S
C5036 C5034 1.327 . S
C5036 C5055 1.429 . S
C5036 H5060 0.950 . S
C5037 C5054 1.574 . S
C5037 C5056 1.368 . S
C5037 H5061 0.949 . S
H5038 C5042 0.949 . S
C5039 C5040 1.349 . S
C5039 C5041 1.327 . S
C5039 H5062 0.950 . S
C5040 C5039 1.349 . S
C5040 C5052 1.349 . S
C5041 C5039 1.327 . S
C5041 C5057 1.429 . S
C5041 H5063 0.950 . S
C5042 H5038 0.949 . S
C5042 C5050 1.574 . S
C5042 C5058 1.368 . S
H5043 C5051 0.950 . S
H5044 C5049 0.950 . S
H5045 C5050 0.949 . S
H5046 C5052 0.950 . S
H5047 C5053 0.950 . S
H5048 C5054 0.949 . S
C5049 H5044 0.950 . S
C5049 C5051 1.327 . S
C5049 C5055 1.429 . S
C5050 C5042 1.574 . S
C5050 H5045 0.949 . S
C5050 C5056 1.368 . S
C5051 C5035 1.349 . S
C5051 H5043 0.950 . S
C5051 C5049 1.327 . S
C5052 C5040 1.349 . S
C5052 H5046 0.950 . S
C5052 C5053 1.327 . S
C5053 H5047 0.950 . S
C5053 C5052 1.327 . S
C5053 C5057 1.429 . S
C5054 C5037 1.574 . S
C5054 H5048 0.949 . S
C5054 C5058 1.368 . S
C5055 C5036 1.429 . S
C5055 C5049 1.429 . S
C5055 C5056 1.523 . S
C5056 C5037 1.368 . S
C5056 C5050 1.368 . S
C5056 C5055 1.523 . S
C5057 C5041 1.429 . S
C5057 C5053 1.429 . S
C5057 C5058 1.523 . S
C5058 C5042 1.368 . S
C5058 C5054 1.368 . S
C5058 C5057 1.523 . S
H5059 C5034 0.950 . S
H5060 C5036 0.950 . S
H5061 C5037 0.949 . S
H5062 C5039 0.950 . S
H5063 C5041 0.950 . S
C5064 C5065 1.349 . S
C5064 C5066 1.327 . S
C5064 H5089 0.950 . S
C5065 C5064 1.349 . S
C5065 C5081 1.349 . S
C5066 C5064 1.327 . S
C5066 C5085 1.429 . S
C5066 H5090 0.950 . S
C5067 C5084 1.574 . S
C5067 C5086 1.368 . S
C5067 H5091 0.949 . S
H5068 C5072 0.949 . S
C5069 C5070 1.349 . S
C5069 C5071 1.327 . S
C5069 H5092 0.950 . S
C5070 C5069 1.349 . S
C5070 C5082 1.349 . S
C5071 C5069 1.327 . S
C5071 C5087 1.429 . S
C5071 H5093 0.950 . S
C5072 H5068 0.949 . S
C5072 C5080 1.574 . S
C5072 C5088 1.368 . S
H5073 C5081 0.950 . S
H5074 C5079 0.950 . S
H5075 C5080 0.949 . S
H5076 C5082 0.950 . S
H5077 C5083 0.950 . S
H5078 C5084 0.949 . S
C5079 H5074 0.950 . S
C5079 C5081 1.327 . S
C5079 C5085 1.429 . S
C5080 C5072 1.574 . S
C5080 H5075 0.949 . S
C5080 C5086 1.368 . S
C5081 C5065 1.349 . S
C5081 H5073 0.950 . S
C5081 C5079 1.327 . S
C5082 C5070 1.349 . S
C5082 H5076 0.950 . S
C5082 C5083 1.327 . S
C5083 H5077 0.950 . S
C5083 C5082 1.327 . S
C5083 C5087 1.429 . S
C5084 C5067 1.574 . S
C5084 H5078 0.949 . S
C5084 C5088 1.368 . S
C5085 C5066 1.429 . S
C5085 C5079 1.429 . S
C5085 C5086 1.523 . S
C5086 C5067 1.368 . S
C5086 C5080 1.368 . S
C5086 C5085 1.523 . S
C5087 C5071 1.429 . S
C5087 C5083 1.429 . S
C5087 C5088 1.523 . S
C5088 C5072 1.368 . S
C5088 C5084 1.368 . S
C5088 C5087 1.523 . S
H5089 C5064 0.950 . S
H5090 C5066 0.950 . S
H5091 C5067 0.949 . S
H5092 C5069 0.950 . S
H5093 C5071 0.950 . S
C5094 C5095 1.349 . S
C5094 C5096 1.327 . S
C5094 H5119 0.950 . S
C5095 C5094 1.349 . S
C5095 C5111 1.349 . S
C5096 C5094 1.327 . S
C5096 C5115 1.429 . S
C5096 H5120 0.950 . S
C5097 C5114 1.574 . S
C5097 C5116 1.368 . S
C5097 H5121 0.949 . S
H5098 C5102 0.949 . S
C5099 C5100 1.349 . S
C5099 C5101 1.327 . S
C5099 H5122 0.950 . S
C5100 C5099 1.349 . S
C5100 C5112 1.349 . S
C5101 C5099 1.327 . S
C5101 C5117 1.429 . S
C5101 H5123 0.950 . S
C5102 H5098 0.949 . S
C5102 C5110 1.574 . S
C5102 C5118 1.368 . S
H5103 C5111 0.950 . S
H5104 C5109 0.950 . S
H5105 C5110 0.949 . S
H5106 C5112 0.950 . S
H5107 C5113 0.950 . S
H5108 C5114 0.949 . S
C5109 H5104 0.950 . S
C5109 C5111 1.327 . S
C5109 C5115 1.429 . S
C5110 C5102 1.574 . S
C5110 H5105 0.949 . S
C5110 C5116 1.368 . S
C5111 C5095 1.349 . S
C5111 H5103 0.950 . S
C5111 C5109 1.327 . S
C5112 C5100 1.349 . S
C5112 H5106 0.950 . S
C5112 C5113 1.327 . S
C5113 H5107 0.950 . S
C5113 C5112 1.327 . S
C5113 C5117 1.429 . S
C5114 C5097 1.574 . S
C5114 H5108 0.949 . S
C5114 C5118 1.368 . S
C5115 C5096 1.429 . S
C5115 C5109 1.429 . S
C5115 C5116 1.523 . S
C5116 C5097 1.368 . S
C5116 C5110 1.368 . S
C5116 C5115 1.523 . S
C5117 C5101 1.429 . S
C5117 C5113 1.429 . S
C5117 C5118 1.523 . S
C5118 C5102 1.368 . S
C5118 C5114 1.368 . S
C5118 C5117 1.523 . S
H5119 C5094 0.950 . S
H5120 C5096 0.950 . S
H5121 C5097 0.949 . S
H5122 C5099 0.950 . S
H5123 C5101 0.950 . S
C5124 C5125 1.349 . S
C5124 C5126 1.327 . S
C5124 H5149 0.950 . S
C5125 C5124 1.349 . S
C5125 C5141 1.349 . S
C5126 C5124 1.327 . S
C5126 C5145 1.429 . S
C5126 H5150 0.950 . S
C5127 C5144 1.574 . S
C5127 C5146 1.368 . S
C5127 H5151 0.949 . S
H5128 C5132 0.949 . S
C5129 C5130 1.349 . S
C5129 C5131 1.327 . S
C5129 H5152 0.950 . S
C5130 C5129 1.349 . S
C5130 C5142 1.349 . S
C5131 C5129 1.327 . S
C5131 C5147 1.429 . S
C5131 H5153 0.950 . S
C5132 H5128 0.949 . S
C5132 C5140 1.574 . S
C5132 C5148 1.368 . S
H5133 C5141 0.950 . S
H5134 C5139 0.950 . S
H5135 C5140 0.949 . S
H5136 C5142 0.950 . S
H5137 C5143 0.950 . S
H5138 C5144 0.949 . S
C5139 H5134 0.950 . S
C5139 C5141 1.327 . S
C5139 C5145 1.429 . S
C5140 C5132 1.574 . S
C5140 H5135 0.949 . S
C5140 C5146 1.368 . S
C5141 C5125 1.349 . S
C5141 H5133 0.950 . S
C5141 C5139 1.327 . S
C5142 C5130 1.349 . S
C5142 H5136 0.950 . S
C5142 C5143 1.327 . S
C5143 H5137 0.950 . S
C5143 C5142 1.327 . S
C5143 C5147 1.429 . S
C5144 C5127 1.574 . S
C5144 H5138 0.949 . S
C5144 C5148 1.368 . S
C5145 C5126 1.429 . S
C5145 C5139 1.429 . S
C5145 C5146 1.523 . S
C5146 C5127 1.368 . S
C5146 C5140 1.368 . S
C5146 C5145 1.523 . S
C5147 C5131 1.429 . S
C5147 C5143 1.429 . S
C5147 C5148 1.523 . S
C5148 C5132 1.368 . S
C5148 C5144 1.368 . S
C5148 C5147 1.523 . S
H5149 C5124 0.950 . S
H5150 C5126 0.950 . S
H5151 C5127 0.949 . S
H5152 C5129 0.950 . S
H5153 C5131 0.950 . S
C5154 C5155 1.349 . S
C5154 C5156 1.327 . S
C5154 H5179 0.950 . S
C5155 C5154 1.349 . S
C5155 C5171 1.349 . S
C5156 C5154 1.327 . S
C5156 C5175 1.429 . S
C5156 H5180 0.950 . S
C5157 C5174 1.574 . S
C5157 C5176 1.368 . S
C5157 H5181 0.949 . S
H5158 C5162 0.949 . S
C5159 C5160 1.349 . S
C5159 C5161 1.327 . S
C5159 H5182 0.950 . S
C5160 C5159 1.349 . S
C5160 C5172 1.349 . S
C5161 C5159 1.327 . S
C5161 C5177 1.429 . S
C5161 H5183 0.950 . S
C5162 H5158 0.949 . S
C5162 C5170 1.574 . S
C5162 C5178 1.368 . S
H5163 C5171 0.950 . S
H5164 C5169 0.950 . S
H5165 C5170 0.949 . S
H5166 C5172 0.950 . S
H5167 C5173 0.950 . S
H5168 C5174 0.949 . S
C5169 H5164 0.950 . S
C5169 C5171 1.327 . S
C5169 C5175 1.429 . S
C5170 C5162 1.574 . S
C5170 H5165 0.949 . S
C5170 C5176 1.368 . S
C5171 C5155 1.349 . S
C5171 H5163 0.950 . S
C5171 C5169 1.327 . S
C5172 C5160 1.349 . S
C5172 H5166 0.950 . S
C5172 C5173 1.327 . S
C5173 H5167 0.950 . S
C5173 C5172 1.327 . S
C5173 C5177 1.429 . S
C5174 C5157 1.574 . S
C5174 H5168 0.949 . S
C5174 C5178 1.368 . S
C5175 C5156 1.429 . S
C5175 C5169 1.429 . S
C5175 C5176 1.523 . S
C5176 C5157 1.368 . S
C5176 C5170 1.368 . S
C5176 C5175 1.523 . S
C5177 C5161 1.429 . S
C5177 C5173 1.429 . S
C5177 C5178 1.523 . S
C5178 C5162 1.368 . S
C5178 C5174 1.368 . S
C5178 C5177 1.523 . S
H5179 C5154 0.950 . S
H5180 C5156 0.950 . S
H5181 C5157 0.949 . S
H5182 C5159 0.950 . S
H5183 C5161 0.950 . S
C5184 C5185 1.349 . S
C5184 C5186 1.327 . S
C5184 H5209 0.950 . S
C5185 C5184 1.349 . S
C5185 C5201 1.349 . S
C5186 C5184 1.327 . S
C5186 C5205 1.429 . S
C5186 H5210 0.950 . S
C5187 C5204 1.574 . S
C5187 C5206 1.368 . S
C5187 H5211 0.949 . S
H5188 C5192 0.949 . S
C5189 C5190 1.349 . S
C5189 C5191 1.327 . S
C5189 H5212 0.950 . S
C5190 C5189 1.349 . S
C5190 C5202 1.349 . S
C5191 C5189 1.327 . S
C5191 C5207 1.429 . S
C5191 H5213 0.950 . S
C5192 H5188 0.949 . S
C5192 C5200 1.574 . S
C5192 C5208 1.368 . S
H5193 C5201 0.950 . S
H5194 C5199 0.950 . S
H5195 C5200 0.949 . S
H5196 C5202 0.950 . S
H5197 C5203 0.950 . S
H5198 C5204 0.949 . S
C5199 H5194 0.950 . S
C5199 C5201 1.327 . S
C5199 C5205 1.429 . S
C5200 C5192 1.574 . S
C5200 H5195 0.949 . S
C5200 C5206 1.368 . S
C5201 C5185 1.349 . S
C5201 H5193 0.950 . S
C5201 C5199 1.327 . S
C5202 C5190 1.349 . S
C5202 H5196 0.950 . S
C5202 C5203 1.327 . S
C5203 H5197 0.950 . S
C5203 C5202 1.327 . S
C5203 C5207 1.429 . S
C5204 C5187 1.574 . S
C5204 H5198 0.949 . S
C5204 C5208 1.368 . S
C5205 C5186 1.429 . S
C5205 C5199 1.429 . S
C5205 C5206 1.523 . S
C5206 C5187 1.368 . S
C5206 C5200 1.368 . S
C5206 C5205 1.523 . S
C5207 C5191 1.429 . S
C5207 C5203 1.429 . S
C5207 C5208 1.523 . S
C5208 C5192 1.368 . S
C5208 C5204 1.368 . S
C5208 C5207 1.523 . S
H5209 C5184 0.950 . S
H5210 C5186 0.950 . S
H5211 C5187 0.949 . S
H5212 C5189 0.950 . S
H5213 C5191 0.950 . S
C5214 C5215 1.349 . S
C5214 C5216 1.327 . S
C5214 H5239 0.950 . S
C5215 C5214 1.349 . S
C5215 C5231 1.349 . S
C5216 C5214 1.327 . S
C5216 C5235 1.429 . S
C5216 H5240 0.950 . S
C5217 C5234 1.574 . S
C5217 C5236 1.368 . S
C5217 H5241 0.949 . S
H5218 C5222 0.949 . S
C5219 C5220 1.349 . S
C5219 C5221 1.327 . S
C5219 H5242 0.950 . S
C5220 C5219 1.349 . S
C5220 C5232 1.349 . S
C5221 C5219 1.327 . S
C5221 C5237 1.429 . S
C5221 H5243 0.950 . S
C5222 H5218 0.949 . S
C5222 C5230 1.574 . S
C5222 C5238 1.368 . S
H5223 C5231 0.950 . S
H5224 C5229 0.950 . S
H5225 C5230 0.949 . S
H5226 C5232 0.950 . S
H5227 C5233 0.950 . S
H5228 C5234 0.949 . S
C5229 H5224 0.950 . S
C5229 C5231 1.327 . S
C5229 C5235 1.429 . S
C5230 C5222 1.574 . S
C5230 H5225 0.949 . S
C5230 C5236 1.368 . S
C5231 C5215 1.349 . S
C5231 H5223 0.950 . S
C5231 C5229 1.327 . S
C5232 C5220 1.349 . S
C5232 H5226 0.950 . S
C5232 C5233 1.327 . S
C5233 H5227 0.950 . S
C5233 C5232 1.327 . S
C5233 C5237 1.429 . S
C5234 C5217 1.574 . S
C5234 H5228 0.949 . S
C5234 C5238 1.368 . S
C5235 C5216 1.429 . S
C5235 C5229 1.429 . S
C5235 C5236 1.523 . S
C5236 C5217 1.368 . S
C5236 C5230 1.368 . S
C5236 C5235 1.523 . S
C5237 C5221 1.429 . S
C5237 C5233 1.429 . S
C5237 C5238 1.523 . S
C5238 C5222 1.368 . S
C5238 C5234 1.368 . S
C5238 C5237 1.523 . S
H5239 C5214 0.950 . S
H5240 C5216 0.950 . S
H5241 C5217 0.949 . S
H5242 C5219 0.950 . S
H5243 C5221 0.950 . S
C5244 C5245 1.349 . S
C5244 C5246 1.327 . S
C5244 H5269 0.950 . S
C5245 C5244 1.349 . S
C5245 C5261 1.349 . S
C5246 C5244 1.327 . S
C5246 C5265 1.429 . S
C5246 H5270 0.950 . S
C5247 C5264 1.574 . S
C5247 C5266 1.368 . S
C5247 H5271 0.949 . S
H5248 C5252 0.949 . S
C5249 C5250 1.349 . S
C5249 C5251 1.327 . S
C5249 H5272 0.950 . S
C5250 C5249 1.349 . S
C5250 C5262 1.349 . S
C5251 C5249 1.327 . S
C5251 C5267 1.429 . S
C5251 H5273 0.950 . S
C5252 H5248 0.949 . S
C5252 C5260 1.574 . S
C5252 C5268 1.368 . S
H5253 C5261 0.950 . S
H5254 C5259 0.950 . S
H5255 C5260 0.949 . S
H5256 C5262 0.950 . S
H5257 C5263 0.950 . S
H5258 C5264 0.949 . S
C5259 H5254 0.950 . S
C5259 C5261 1.327 . S
C5259 C5265 1.429 . S
C5260 C5252 1.574 . S
C5260 H5255 0.949 . S
C5260 C5266 1.368 . S
C5261 C5245 1.349 . S
C5261 H5253 0.950 . S
C5261 C5259 1.327 . S
C5262 C5250 1.349 . S
C5262 H5256 0.950 . S
C5262 C5263 1.327 . S
C5263 H5257 0.950 . S
C5263 C5262 1.327 . S
C5263 C5267 1.429 . S
C5264 C5247 1.574 . S
C5264 H5258 0.949 . S
C5264 C5268 1.368 . S
C5265 C5246 1.429 . S
C5265 C5259 1.429 . S
C5265 C5266 1.523 . S
C5266 C5247 1.368 . S
C5266 C5260 1.368 . S
C5266 C5265 1.523 . S
C5267 C5251 1.429 . S
C5267 C5263 1.429 . S
C5267 C5268 1.523 . S
C5268 C5252 1.368 . S
C5268 C5264 1.368 . S
C5268 C5267 1.523 . S
H5269 C5244 0.950 . S
H5270 C5246 0.950 . S
H5271 C5247 0.949 . S
H5272 C5249 0.950 . S
H5273 C5251 0.950 . S
C5274 C5275 1.349 . S
C5274 C5276 1.327 . S
C5274 H5299 0.950 . S
C5275 C5274 1.349 . S
C5275 C5291 1.349 . S
C5276 C5274 1.327 . S
C5276 C5295 1.429 . S
C5276 H5300 0.950 . S
C5277 C5294 1.574 . S
C5277 C5296 1.368 . S
C5277 H5301 0.949 . S
H5278 C5282 0.949 . S
C5279 C5280 1.349 . S
C5279 C5281 1.327 . S
C5279 H5302 0.950 . S
C5280 C5279 1.349 . S
C5280 C5292 1.349 . S
C5281 C5279 1.327 . S
C5281 C5297 1.429 . S
C5281 H5303 0.950 . S
C5282 H5278 0.949 . S
C5282 C5290 1.574 . S
C5282 C5298 1.368 . S
H5283 C5291 0.950 . S
H5284 C5289 0.950 . S
H5285 C5290 0.949 . S
H5286 C5292 0.950 . S
H5287 C5293 0.950 . S
H5288 C5294 0.949 . S
C5289 H5284 0.950 . S
C5289 C5291 1.327 . S
C5289 C5295 1.429 . S
C5290 C5282 1.574 . S
C5290 H5285 0.949 . S
C5290 C5296 1.368 . S
C5291 C5275 1.349 . S
C5291 H5283 0.950 . S
C5291 C5289 1.327 . S
C5292 C5280 1.349 . S
C5292 H5286 0.950 . S
C5292 C5293 1.327 . S
C5293 H5287 0.950 . S
C5293 C5292 1.327 . S
C5293 C5297 1.429 . S
C5294 C5277 1.574 . S
C5294 H5288 0.949 . S
C5294 C5298 1.368 . S
C5295 C5276 1.429 . S
C5295 C5289 1.429 . S
C5295 C5296 1.523 . S
C5296 C5277 1.368 . S
C5296 C5290 1.368 . S
C5296 C5295 1.523 . S
C5297 C5281 1.429 . S
C5297 C5293 1.429 . S
C5297 C5298 1.523 . S
C5298 C5282 1.368 . S
C5298 C5294 1.368 . S
C5298 C5297 1.523 . S
H5299 C5274 0.950 . S
H5300 C5276 0.950 . S
H5301 C5277 0.949 . S
H5302 C5279 0.950 . S
H5303 C5281 0.950 . S
C5304 C5305 1.349 . S
C5304 C5306 1.327 . S
C5304 H5329 0.950 . S
C5305 C5304 1.349 . S
C5305 C5321 1.349 . S
C5306 C5304 1.327 . S
C5306 C5325 1.429 . S
C5306 H5330 0.950 . S
C5307 C5324 1.574 . S
C5307 C5326 1.368 . S
C5307 H5331 0.949 . S
H5308 C5312 0.949 . S
C5309 C5310 1.349 . S
C5309 C5311 1.327 . S
C5309 H5332 0.950 . S
C5310 C5309 1.349 . S
C5310 C5322 1.349 . S
C5311 C5309 1.327 . S
C5311 C5327 1.429 . S
C5311 H5333 0.950 . S
C5312 H5308 0.949 . S
C5312 C5320 1.574 . S
C5312 C5328 1.368 . S
H5313 C5321 0.950 . S
H5314 C5319 0.950 . S
H5315 C5320 0.949 . S
H5316 C5322 0.950 . S
H5317 C5323 0.950 . S
H5318 C5324 0.949 . S
C5319 H5314 0.950 . S
C5319 C5321 1.327 . S
C5319 C5325 1.429 . S
C5320 C5312 1.574 . S
C5320 H5315 0.949 . S
C5320 C5326 1.368 . S
C5321 C5305 1.349 . S
C5321 H5313 0.950 . S
C5321 C5319 1.327 . S
C5322 C5310 1.349 . S
C5322 H5316 0.950 . S
C5322 C5323 1.327 . S
C5323 H5317 0.950 . S
C5323 C5322 1.327 . S
C5323 C5327 1.429 . S
C5324 C5307 1.574 . S
C5324 H5318 0.949 . S
C5324 C5328 1.368 . S
C5325 C5306 1.429 . S
C5325 C5319 1.429 . S
C5325 C5326 1.523 . S
C5326 C5307 1.368 . S
C5326 C5320 1.368 . S
C5326 C5325 1.523 . S
C5327 C5311 1.429 . S
C5327 C5323 1.429 . S
C5327 C5328 1.523 . S
C5328 C5312 1.368 . S
C5328 C5324 1.368 . S
C5328 C5327 1.523 . S
H5329 C5304 0.950 . S
H5330 C5306 0.950 . S
H5331 C5307 0.949 . S
H5332 C5309 0.950 . S
H5333 C5311 0.950 . S
C5334 C5335 1.349 . S
C5334 C5336 1.327 . S
C5334 H5359 0.950 . S
C5335 C5334 1.349 . S
C5335 C5351 1.349 . S
C5336 C5334 1.327 . S
C5336 C5355 1.429 . S
C5336 H5360 0.950 . S
C5337 C5354 1.574 . S
C5337 C5356 1.368 . S
C5337 H5361 0.949 . S
H5338 C5342 0.949 . S
C5339 C5340 1.349 . S
C5339 C5341 1.327 . S
C5339 H5362 0.950 . S
C5340 C5339 1.349 . S
C5340 C5352 1.349 . S
C5341 C5339 1.327 . S
C5341 C5357 1.429 . S
C5341 H5363 0.950 . S
C5342 H5338 0.949 . S
C5342 C5350 1.574 . S
C5342 C5358 1.368 . S
H5343 C5351 0.950 . S
H5344 C5349 0.950 . S
H5345 C5350 0.949 . S
H5346 C5352 0.950 . S
H5347 C5353 0.950 . S
H5348 C5354 0.949 . S
C5349 H5344 0.950 . S
C5349 C5351 1.327 . S
C5349 C5355 1.429 . S
C5350 C5342 1.574 . S
C5350 H5345 0.949 . S
C5350 C5356 1.368 . S
C5351 C5335 1.349 . S
C5351 H5343 0.950 . S
C5351 C5349 1.327 . S
C5352 C5340 1.349 . S
C5352 H5346 0.950 . S
C5352 C5353 1.327 . S
C5353 H5347 0.950 . S
C5353 C5352 1.327 . S
C5353 C5357 1.429 . S
C5354 C5337 1.574 . S
C5354 H5348 0.949 . S
C5354 C5358 1.368 . S
C5355 C5336 1.429 . S
C5355 C5349 1.429 . S
C5355 C5356 1.523 . S
C5356 C5337 1.368 . S
C5356 C5350 1.368 . S
C5356 C5355 1.523 . S
C5357 C5341 1.429 . S
C5357 C5353 1.429 . S
C5357 C5358 1.523 . S
C5358 C5342 1.368 . S
C5358 C5354 1.368 . S
C5358 C5357 1.523 . S
H5359 C5334 0.950 . S
H5360 C5336 0.950 . S
H5361 C5337 0.949 . S
H5362 C5339 0.950 . S
H5363 C5341 0.950 . S
C5364 C5365 1.349 . S
C5364 C5366 1.327 . S
C5364 H5389 0.950 . S
C5365 C5364 1.349 . S
C5365 C5381 1.349 . S
C5366 C5364 1.327 . S
C5366 C5385 1.429 . S
C5366 H5390 0.950 . S
C5367 C5384 1.574 . S
C5367 C5386 1.368 . S
C5367 H5391 0.949 . S
H5368 C5372 0.949 . S
C5369 C5370 1.349 . S
C5369 C5371 1.327 . S
C5369 H5392 0.950 . S
C5370 C5369 1.349 . S
C5370 C5382 1.349 . S
C5371 C5369 1.327 . S
C5371 C5387 1.429 . S
C5371 H5393 0.950 . S
C5372 H5368 0.949 . S
C5372 C5380 1.574 . S
C5372 C5388 1.368 . S
H5373 C5381 0.950 . S
H5374 C5379 0.950 . S
H5375 C5380 0.949 . S
H5376 C5382 0.950 . S
H5377 C5383 0.950 . S
H5378 C5384 0.949 . S
C5379 H5374 0.950 . S
C5379 C5381 1.327 . S
C5379 C5385 1.429 . S
C5380 C5372 1.574 . S
C5380 H5375 0.949 . S
C5380 C5386 1.368 . S
C5381 C5365 1.349 . S
C5381 H5373 0.950 . S
C5381 C5379 1.327 . S
C5382 C5370 1.349 . S
C5382 H5376 0.950 . S
C5382 C5383 1.327 . S
C5383 H5377 0.950 . S
C5383 C5382 1.327 . S
C5383 C5387 1.429 . S
C5384 C5367 1.574 . S
C5384 H5378 0.949 . S
C5384 C5388 1.368 . S
C5385 C5366 1.429 . S
C5385 C5379 1.429 . S
C5385 C5386 1.523 . S
C5386 C5367 1.368 . S
C5386 C5380 1.368 . S
C5386 C5385 1.523 . S
C5387 C5371 1.429 . S
C5387 C5383 1.429 . S
C5387 C5388 1.523 . S
C5388 C5372 1.368 . S
C5388 C5384 1.368 . S
C5388 C5387 1.523 . S
H5389 C5364 0.950 . S
H5390 C5366 0.950 . S
H5391 C5367 0.949 . S
H5392 C5369 0.950 . S
H5393 C5371 0.950 . S
C5394 C5395 1.349 . S
C5394 C5396 1.327 . S
C5394 H5419 0.950 . S
C5395 C5394 1.349 . S
C5395 C5411 1.349 . S
C5396 C5394 1.327 . S
C5396 C5415 1.429 . S
C5396 H5420 0.950 . S
C5397 C5414 1.574 . S
C5397 C5416 1.368 . S
C5397 H5421 0.949 . S
H5398 C5402 0.949 . S
C5399 C5400 1.349 . S
C5399 C5401 1.327 . S
C5399 H5422 0.950 . S
C5400 C5399 1.349 . S
C5400 C5412 1.349 . S
C5401 C5399 1.327 . S
C5401 C5417 1.429 . S
C5401 H5423 0.950 . S
C5402 H5398 0.949 . S
C5402 C5410 1.574 . S
C5402 C5418 1.368 . S
H5403 C5411 0.950 . S
H5404 C5409 0.950 . S
H5405 C5410 0.949 . S
H5406 C5412 0.950 . S
H5407 C5413 0.950 . S
H5408 C5414 0.949 . S
C5409 H5404 0.950 . S
C5409 C5411 1.327 . S
C5409 C5415 1.429 . S
C5410 C5402 1.574 . S
C5410 H5405 0.949 . S
C5410 C5416 1.368 . S
C5411 C5395 1.349 . S
C5411 H5403 0.950 . S
C5411 C5409 1.327 . S
C5412 C5400 1.349 . S
C5412 H5406 0.950 . S
C5412 C5413 1.327 . S
C5413 H5407 0.950 . S
C5413 C5412 1.327 . S
C5413 C5417 1.429 . S
C5414 C5397 1.574 . S
C5414 H5408 0.949 . S
C5414 C5418 1.368 . S
C5415 C5396 1.429 . S
C5415 C5409 1.429 . S
C5415 C5416 1.523 . S
C5416 C5397 1.368 . S
C5416 C5410 1.368 . S
C5416 C5415 1.523 . S
C5417 C5401 1.429 . S
C5417 C5413 1.429 . S
C5417 C5418 1.523 . S
C5418 C5402 1.368 . S
C5418 C5414 1.368 . S
C5418 C5417 1.523 . S
H5419 C5394 0.950 . S
H5420 C5396 0.950 . S
H5421 C5397 0.949 . S
H5422 C5399 0.950 . S
H5423 C5401 0.950 . S
C5424 C5425 1.349 . S
C5424 C5426 1.327 . S
C5424 H5449 0.950 . S
C5425 C5424 1.349 . S
C5425 C5441 1.349 . S
C5426 C5424 1.327 . S
C5426 C5445 1.429 . S
C5426 H5450 0.950 . S
C5427 C5444 1.574 . S
C5427 C5446 1.368 . S
C5427 H5451 0.949 . S
H5428 C5432 0.949 . S
C5429 C5430 1.349 . S
C5429 C5431 1.327 . S
C5429 H5452 0.950 . S
C5430 C5429 1.349 . S
C5430 C5442 1.349 . S
C5431 C5429 1.327 . S
C5431 C5447 1.429 . S
C5431 H5453 0.950 . S
C5432 H5428 0.949 . S
C5432 C5440 1.574 . S
C5432 C5448 1.368 . S
H5433 C5441 0.950 . S
H5434 C5439 0.950 . S
H5435 C5440 0.949 . S
H5436 C5442 0.950 . S
H5437 C5443 0.950 . S
H5438 C5444 0.949 . S
C5439 H5434 0.950 . S
C5439 C5441 1.327 . S
C5439 C5445 1.429 . S
C5440 C5432 1.574 . S
C5440 H5435 0.949 . S
C5440 C5446 1.368 . S
C5441 C5425 1.349 . S
C5441 H5433 0.950 . S
C5441 C5439 1.327 . S
C5442 C5430 1.349 . S
C5442 H5436 0.950 . S
C5442 C5443 1.327 . S
C5443 H5437 0.950 . S
C5443 C5442 1.327 . S
C5443 C5447 1.429 . S
C5444 C5427 1.574 . S
C5444 H5438 0.949 . S
C5444 C5448 1.368 . S
C5445 C5426 1.429 . S
C5445 C5439 1.429 . S
C5445 C5446 1.523 . S
C5446 C5427 1.368 . S
C5446 C5440 1.368 . S
C5446 C5445 1.523 . S
C5447 C5431 1.429 . S
C5447 C5443 1.429 . S
C5447 C5448 1.523 . S
C5448 C5432 1.368 . S
C5448 C5444 1.368 . S
C5448 C5447 1.523 . S
H5449 C5424 0.950 . S
H5450 C5426 0.950 . S
H5451 C5427 0.949 . S
H5452 C5429 0.950 . S
H5453 C5431 0.950 . S
C5454 C5455 1.349 . S
C5454 C5456 1.327 . S
C5454 H5479 0.950 . S
C5455 C5454 1.349 . S
C5455 C5471 1.349 . S
C5456 C5454 1.327 . S
C5456 C5475 1.429 . S
C5456 H5480 0.950 . S
C5457 C5474 1.574 . S
C5457 C5476 1.368 . S
C5457 H5481 0.949 . S
H5458 C5462 0.949 . S
C5459 C5460 1.349 . S
C5459 C5461 1.327 . S
C5459 H5482 0.950 . S
C5460 C5459 1.349 . S
C5460 C5472 1.349 . S
C5461 C5459 1.327 . S
C5461 C5477 1.429 . S
C5461 H5483 0.950 . S
C5462 H5458 0.949 . S
C5462 C5470 1.574 . S
C5462 C5478 1.368 . S
H5463 C5471 0.950 . S
H5464 C5469 0.950 . S
H5465 C5470 0.949 . S
H5466 C5472 0.950 . S
H5467 C5473 0.950 . S
H5468 C5474 0.949 . S
C5469 H5464 0.950 . S
C5469 C5471 1.327 . S
C5469 C5475 1.429 . S
C5470 C5462 1.574 . S
C5470 H5465 0.949 . S
C5470 C5476 1.368 . S
C5471 C5455 1.349 . S
C5471 H5463 0.950 . S
C5471 C5469 1.327 . S
C5472 C5460 1.349 . S
C5472 H5466 0.950 . S
C5472 C5473 1.327 . S
C5473 H5467 0.950 . S
C5473 C5472 1.327 . S
C5473 C5477 1.429 . S
C5474 C5457 1.574 . S
C5474 H5468 0.949 . S
C5474 C5478 1.368 . S
C5475 C5456 1.429 . S
C5475 C5469 1.429 . S
C5475 C5476 1.523 . S
C5476 C5457 1.368 . S
C5476 C5470 1.368 . S
C5476 C5475 1.523 . S
C5477 C5461 1.429 . S
C5477 C5473 1.429 . S
C5477 C5478 1.523 . S
C5478 C5462 1.368 . S
C5478 C5474 1.368 . S
C5478 C5477 1.523 . S
H5479 C5454 0.950 . S
H5480 C5456 0.950 . S
H5481 C5457 0.949 . S
H5482 C5459 0.950 . S
H5483 C5461 0.950 . S
C5484 C5485 1.349 . S
C5484 C5486 1.327 . S
C5484 H5509 0.950 . S
C5485 C5484 1.349 . S
C5485 C5501 1.349 . S
C5486 C5484 1.327 . S
C5486 C5505 1.429 . S
C5486 H5510 0.950 . S
C5487 C5504 1.574 . S
C5487 C5506 1.368 . S
C5487 H5511 0.949 . S
H5488 C5492 0.949 . S
C5489 C5490 1.349 . S
C5489 C5491 1.327 . S
C5489 H5512 0.950 . S
C5490 C5489 1.349 . S
C5490 C5502 1.349 . S
C5491 C5489 1.327 . S
C5491 C5507 1.429 . S
C5491 H5513 0.950 . S
C5492 H5488 0.949 . S
C5492 C5500 1.574 . S
C5492 C5508 1.368 . S
H5493 C5501 0.950 . S
H5494 C5499 0.950 . S
H5495 C5500 0.949 . S
H5496 C5502 0.950 . S
H5497 C5503 0.950 . S
H5498 C5504 0.949 . S
C5499 H5494 0.950 . S
C5499 C5501 1.327 . S
C5499 C5505 1.429 . S
C5500 C5492 1.574 . S
C5500 H5495 0.949 . S
C5500 C5506 1.368 . S
C5501 C5485 1.349 . S
C5501 H5493 0.950 . S
C5501 C5499 1.327 . S
C5502 C5490 1.349 . S
C5502 H5496 0.950 . S
C5502 C5503 1.327 . S
C5503 H5497 0.950 . S
C5503 C5502 1.327 . S
C5503 C5507 1.429 . S
C5504 C5487 1.574 . S
C5504 H5498 0.949 . S
C5504 C5508 1.368 . S
C5505 C5486 1.429 . S
C5505 C5499 1.429 . S
C5505 C5506 1.523 . S
C5506 C5487 1.368 . S
C5506 C5500 1.368 . S
C5506 C5505 1.523 . S
C5507 C5491 1.429 . S
C5507 C5503 1.429 . S
C5507 C5508 1.523 . S
C5508 C5492 1.368 . S
C5508 C5504 1.368 . S
C5508 C5507 1.523 . S
H5509 C5484 0.950 . S
H5510 C5486 0.950 . S
H5511 C5487 0.949 . S
H5512 C5489 0.950 . S
H5513 C5491 0.950 . S
C5514 C5515 1.349 . S
C5514 C5516 1.327 . S
C5514 H5539 0.950 . S
C5515 C5514 1.349 . S
C5515 C5531 1.349 . S
C5516 C5514 1.327 . S
C5516 C5535 1.429 . S
C5516 H5540 0.950 . S
C5517 C5534 1.574 . S
C5517 C5536 1.368 . S
C5517 H5541 0.949 . S
H5518 C5522 0.949 . S
C5519 C5520 1.349 . S
C5519 C5521 1.327 . S
C5519 H5542 0.950 . S
C5520 C5519 1.349 . S
C5520 C5532 1.349 . S
C5521 C5519 1.327 . S
C5521 C5537 1.429 . S
C5521 H5543 0.950 . S
C5522 H5518 0.949 . S
C5522 C5530 1.574 . S
C5522 C5538 1.368 . S
H5523 C5531 0.950 . S
H5524 C5529 0.950 . S
H5525 C5530 0.949 . S
H5526 C5532 0.950 . S
H5527 C5533 0.950 . S
H5528 C5534 0.949 . S
C5529 H5524 0.950 . S
C5529 C5531 1.327 . S
C5529 C5535 1.429 . S
C5530 C5522 1.574 . S
C5530 H5525 0.949 . S
C5530 C5536 1.368 . S
C5531 C5515 1.349 . S
C5531 H5523 0.950 . S
C5531 C5529 1.327 . S
C5532 C5520 1.349 . S
C5532 H5526 0.950 . S
C5532 C5533 1.327 . S
C5533 H5527 0.950 . S
C5533 C5532 1.327 . S
C5533 C5537 1.429 . S
C5534 C5517 1.574 . S
C5534 H5528 0.949 . S
C5534 C5538 1.368 . S
C5535 C5516 1.429 . S
C5535 C5529 1.429 . S
C5535 C5536 1.523 . S
C5536 C5517 1.368 . S
C5536 C5530 1.368 . S
C5536 C5535 1.523 . S
C5537 C5521 1.429 . S
C5537 C5533 1.429 . S
C5537 C5538 1.523 . S
C5538 C5522 1.368 . S
C5538 C5534 1.368 . S
C5538 C5537 1.523 . S
H5539 C5514 0.950 . S
H5540 C5516 0.950 . S
H5541 C5517 0.949 . S
H5542 C5519 0.950 . S
H5543 C5521 0.950 . S
C5544 C5545 1.349 . S
C5544 C5546 1.327 . S
C5544 H5569 0.950 . S
C5545 C5544 1.349 . S
C5545 C5561 1.349 . S
C5546 C5544 1.327 . S
C5546 C5565 1.429 . S
C5546 H5570 0.950 . S
C5547 C5564 1.574 . S
C5547 C5566 1.368 . S
C5547 H5571 0.949 . S
H5548 C5552 0.949 . S
C5549 C5550 1.349 . S
C5549 C5551 1.327 . S
C5549 H5572 0.950 . S
C5550 C5549 1.349 . S
C5550 C5562 1.349 . S
C5551 C5549 1.327 . S
C5551 C5567 1.429 . S
C5551 H5573 0.950 . S
C5552 H5548 0.949 . S
C5552 C5560 1.574 . S
C5552 C5568 1.368 . S
H5553 C5561 0.950 . S
H5554 C5559 0.950 . S
H5555 C5560 0.949 . S
H5556 C5562 0.950 . S
H5557 C5563 0.950 . S
H5558 C5564 0.949 . S
C5559 H5554 0.950 . S
C5559 C5561 1.327 . S
C5559 C5565 1.429 . S
C5560 C5552 1.574 . S
C5560 H5555 0.949 . S
C5560 C5566 1.368 . S
C5561 C5545 1.349 . S
C5561 H5553 0.950 . S
C5561 C5559 1.327 . S
C5562 C5550 1.349 . S
C5562 H5556 0.950 . S
C5562 C5563 1.327 . S
C5563 H5557 0.950 . S
C5563 C5562 1.327 . S
C5563 C5567 1.429 . S
C5564 C5547 1.574 . S
C5564 H5558 0.949 . S
C5564 C5568 1.368 . S
C5565 C5546 1.429 . S
C5565 C5559 1.429 . S
C5565 C5566 1.523 . S
C5566 C5547 1.368 . S
C5566 C5560 1.368 . S
C5566 C5565 1.523 . S
C5567 C5551 1.429 . S
C5567 C5563 1.429 . S
C5567 C5568 1.523 . S
C5568 C5552 1.368 . S
C5568 C5564 1.368 . S
C5568 C5567 1.523 . S
H5569 C5544 0.950 . S
H5570 C5546 0.950 . S
H5571 C5547 0.949 . S
H5572 C5549 0.950 . S
H5573 C5551 0.950 . S
C5574 C5575 1.349 . S
C5574 C5576 1.327 . S
C5574 H5599 0.950 . S
C5575 C5574 1.349 . S
C5575 C5591 1.349 . S
C5576 C5574 1.327 . S
C5576 C5595 1.429 . S
C5576 H5600 0.950 . S
C5577 C5594 1.574 . S
C5577 C5596 1.368 . S
C5577 H5601 0.949 . S
H5578 C5582 0.949 . S
C5579 C5580 1.349 . S
C5579 C5581 1.327 . S
C5579 H5602 0.950 . S
C5580 C5579 1.349 . S
C5580 C5592 1.349 . S
C5581 C5579 1.327 . S
C5581 C5597 1.429 . S
C5581 H5603 0.950 . S
C5582 H5578 0.949 . S
C5582 C5590 1.574 . S
C5582 C5598 1.368 . S
H5583 C5591 0.950 . S
H5584 C5589 0.950 . S
H5585 C5590 0.949 . S
H5586 C5592 0.950 . S
H5587 C5593 0.950 . S
H5588 C5594 0.949 . S
C5589 H5584 0.950 . S
C5589 C5591 1.327 . S
C5589 C5595 1.429 . S
C5590 C5582 1.574 . S
C5590 H5585 0.949 . S
C5590 C5596 1.368 . S
C5591 C5575 1.349 . S
C5591 H5583 0.950 . S
C5591 C5589 1.327 . S
C5592 C5580 1.349 . S
C5592 H5586 0.950 . S
C5592 C5593 1.327 . S
C5593 H5587 0.950 . S
C5593 C5592 1.327 . S
C5593 C5597 1.429 . S
C5594 C5577 1.574 . S
C5594 H5588 0.949 . S
C5594 C5598 1.368 . S
C5595 C5576 1.429 . S
C5595 C5589 1.429 . S
C5595 C5596 1.523 . S
C5596 C5577 1.368 . S
C5596 C5590 1.368 . S
C5596 C5595 1.523 . S
C5597 C5581 1.429 . S
C5597 C5593 1.429 . S
C5597 C5598 1.523 . S
C5598 C5582 1.368 . S
C5598 C5594 1.368 . S
C5598 C5597 1.523 . S
H5599 C5574 0.950 . S
H5600 C5576 0.950 . S
H5601 C5577 0.949 . S
H5602 C5579 0.950 . S
H5603 C5581 0.950 . S
C5604 C5605 1.349 . S
C5604 C5606 1.327 . S
C5604 H5629 0.950 . S
C5605 C5604 1.349 . S
C5605 C5621 1.349 . S
C5606 C5604 1.327 . S
C5606 C5625 1.429 . S
C5606 H5630 0.950 . S
C5607 C5624 1.574 . S
C5607 C5626 1.368 . S
C5607 H5631 0.949 . S
H5608 C5612 0.949 . S
C5609 C5610 1.349 . S
C5609 C5611 1.327 . S
C5609 H5632 0.950 . S
C5610 C5609 1.349 . S
C5610 C5622 1.349 . S
C5611 C5609 1.327 . S
C5611 C5627 1.429 . S
C5611 H5633 0.950 . S
C5612 H5608 0.949 . S
C5612 C5620 1.574 . S
C5612 C5628 1.368 . S
H5613 C5621 0.950 . S
H5614 C5619 0.950 . S
H5615 C5620 0.949 . S
H5616 C5622 0.950 . S
H5617 C5623 0.950 . S
H5618 C5624 0.949 . S
C5619 H5614 0.950 . S
C5619 C5621 1.327 . S
C5619 C5625 1.429 . S
C5620 C5612 1.574 . S
C5620 H5615 0.949 . S
C5620 C5626 1.368 . S
C5621 C5605 1.349 . S
C5621 H5613 0.950 . S
C5621 C5619 1.327 . S
C5622 C5610 1.349 . S
C5622 H5616 0.950 . S
C5622 C5623 1.327 . S
C5623 H5617 0.950 . S
C5623 C5622 1.327 . S
C5623 C5627 1.429 . S
C5624 C5607 1.574 . S
C5624 H5618 0.949 . S
C5624 C5628 1.368 . S
C5625 C5606 1.429 . S
C5625 C5619 1.429 . S
C5625 C5626 1.523 . S
C5626 C5607 1.368 . S
C5626 C5620 1.368 . S
C5626 C5625 1.523 . S
C5627 C5611 1.429 . S
C5627 C5623 1.429 . S
C5627 C5628 1.523 . S
C5628 C5612 1.368 . S
C5628 C5624 1.368 . S
C5628 C5627 1.523 . S
H5629 C5604 0.950 . S
H5630 C5606 0.950 . S
H5631 C5607 0.949 . S
H5632 C5609 0.950 . S
H5633 C5611 0.950 . S
C5634 C5635 1.349 . S
C5634 C5636 1.327 . S
C5634 H5659 0.950 . S
C5635 C5634 1.349 . S
C5635 C5651 1.349 . S
C5636 C5634 1.327 . S
C5636 C5655 1.429 . S
C5636 H5660 0.950 . S
C5637 C5654 1.574 . S
C5637 C5656 1.368 . S
C5637 H5661 0.949 . S
H5638 C5642 0.949 . S
C5639 C5640 1.349 . S
C5639 C5641 1.327 . S
C5639 H5662 0.950 . S
C5640 C5639 1.349 . S
C5640 C5652 1.349 . S
C5641 C5639 1.327 . S
C5641 C5657 1.429 . S
C5641 H5663 0.950 . S
C5642 H5638 0.949 . S
C5642 C5650 1.574 . S
C5642 C5658 1.368 . S
H5643 C5651 0.950 . S
H5644 C5649 0.950 . S
H5645 C5650 0.949 . S
H5646 C5652 0.950 . S
H5647 C5653 0.950 . S
H5648 C5654 0.949 . S
C5649 H5644 0.950 . S
C5649 C5651 1.327 . S
C5649 C5655 1.429 . S
C5650 C5642 1.574 . S
C5650 H5645 0.949 . S
C5650 C5656 1.368 . S
C5651 C5635 1.349 . S
C5651 H5643 0.950 . S
C5651 C5649 1.327 . S
C5652 C5640 1.349 . S
C5652 H5646 0.950 . S
C5652 C5653 1.327 . S
C5653 H5647 0.950 . S
C5653 C5652 1.327 . S
C5653 C5657 1.429 . S
C5654 C5637 1.574 . S
C5654 H5648 0.949 . S
C5654 C5658 1.368 . S
C5655 C5636 1.429 . S
C5655 C5649 1.429 . S
C5655 C5656 1.523 . S
C5656 C5637 1.368 . S
C5656 C5650 1.368 . S
C5656 C5655 1.523 . S
C5657 C5641 1.429 . S
C5657 C5653 1.429 . S
C5657 C5658 1.523 . S
C5658 C5642 1.368 . S
C5658 C5654 1.368 . S
C5658 C5657 1.523 . S
H5659 C5634 0.950 . S
H5660 C5636 0.950 . S
H5661 C5637 0.949 . S
H5662 C5639 0.950 . S
H5663 C5641 0.950 . S
C5664 C5665 1.349 . S
C5664 C5666 1.327 . S
C5664 H5689 0.950 . S
C5665 C5664 1.349 . S
C5665 C5681 1.349 . S
C5666 C5664 1.327 . S
C5666 C5685 1.429 . S
C5666 H5690 0.950 . S
C5667 C5684 1.574 . S
C5667 C5686 1.368 . S
C5667 H5691 0.949 . S
H5668 C5672 0.949 . S
C5669 C5670 1.349 . S
C5669 C5671 1.327 . S
C5669 H5692 0.950 . S
C5670 C5669 1.349 . S
C5670 C5682 1.349 . S
C5671 C5669 1.327 . S
C5671 C5687 1.429 . S
C5671 H5693 0.950 . S
C5672 H5668 0.949 . S
C5672 C5680 1.574 . S
C5672 C5688 1.368 . S
H5673 C5681 0.950 . S
H5674 C5679 0.950 . S
H5675 C5680 0.949 . S
H5676 C5682 0.950 . S
H5677 C5683 0.950 . S
H5678 C5684 0.949 . S
C5679 H5674 0.950 . S
C5679 C5681 1.327 . S
C5679 C5685 1.429 . S
C5680 C5672 1.574 . S
C5680 H5675 0.949 . S
C5680 C5686 1.368 . S
C5681 C5665 1.349 . S
C5681 H5673 0.950 . S
C5681 C5679 1.327 . S
C5682 C5670 1.349 . S
C5682 H5676 0.950 . S
C5682 C5683 1.327 . S
C5683 H5677 0.950 . S
C5683 C5682 1.327 . S
C5683 C5687 1.429 . S
C5684 C5667 1.574 . S
C5684 H5678 0.949 . S
C5684 C5688 1.368 . S
C5685 C5666 1.429 . S
C5685 C5679 1.429 . S
C5685 C5686 1.523 . S
C5686 C5667 1.368 . S
C5686 C5680 1.368 . S
C5686 C5685 1.523 . S
C5687 C5671 1.429 . S
C5687 C5683 1.429 . S
C5687 C5688 1.523 . S
C5688 C5672 1.368 . S
C5688 C5684 1.368 . S
C5688 C5687 1.523 . S
H5689 C5664 0.950 . S
H5690 C5666 0.950 . S
H5691 C5667 0.949 . S
H5692 C5669 0.950 . S
H5693 C5671 0.950 . S
C5694 C5695 1.349 . S
C5694 C5696 1.327 . S
C5694 H5719 0.950 . S
C5695 C5694 1.349 . S
C5695 C5711 1.349 . S
C5696 C5694 1.327 . S
C5696 C5715 1.429 . S
C5696 H5720 0.950 . S
C5697 C5714 1.574 . S
C5697 C5716 1.368 . S
C5697 H5721 0.949 . S
H5698 C5702 0.949 . S
C5699 C5700 1.349 . S
C5699 C5701 1.327 . S
C5699 H5722 0.950 . S
C5700 C5699 1.349 . S
C5700 C5712 1.349 . S
C5701 C5699 1.327 . S
C5701 C5717 1.429 . S
C5701 H5723 0.950 . S
C5702 H5698 0.949 . S
C5702 C5710 1.574 . S
C5702 C5718 1.368 . S
H5703 C5711 0.950 . S
H5704 C5709 0.950 . S
H5705 C5710 0.949 . S
H5706 C5712 0.950 . S
H5707 C5713 0.950 . S
H5708 C5714 0.949 . S
C5709 H5704 0.950 . S
C5709 C5711 1.327 . S
C5709 C5715 1.429 . S
C5710 C5702 1.574 . S
C5710 H5705 0.949 . S
C5710 C5716 1.368 . S
C5711 C5695 1.349 . S
C5711 H5703 0.950 . S
C5711 C5709 1.327 . S
C5712 C5700 1.349 . S
C5712 H5706 0.950 . S
C5712 C5713 1.327 . S
C5713 H5707 0.950 . S
C5713 C5712 1.327 . S
C5713 C5717 1.429 . S
C5714 C5697 1.574 . S
C5714 H5708 0.949 . S
C5714 C5718 1.368 . S
C5715 C5696 1.429 . S
C5715 C5709 1.429 . S
C5715 C5716 1.523 . S
C5716 C5697 1.368 . S
C5716 C5710 1.368 . S
C5716 C5715 1.523 . S
C5717 C5701 1.429 . S
C5717 C5713 1.429 . S
C5717 C5718 1.523 . S
C5718 C5702 1.368 . S
C5718 C5714 1.368 . S
C5718 C5717 1.523 . S
H5719 C5694 0.950 . S
H5720 C5696 0.950 . S
H5721 C5697 0.949 . S
H5722 C5699 0.950 . S
H5723 C5701 0.950 . S
C5724 C5725 1.349 . S
C5724 C5726 1.327 . S
C5724 H5749 0.950 . S
C5725 C5724 1.349 . S
C5725 C5741 1.349 . S
C5726 C5724 1.327 . S
C5726 C5745 1.429 . S
C5726 H5750 0.950 . S
C5727 C5744 1.574 . S
C5727 C5746 1.368 . S
C5727 H5751 0.949 . S
H5728 C5732 0.949 . S
C5729 C5730 1.349 . S
C5729 C5731 1.327 . S
C5729 H5752 0.950 . S
C5730 C5729 1.349 . S
C5730 C5742 1.349 . S
C5731 C5729 1.327 . S
C5731 C5747 1.429 . S
C5731 H5753 0.950 . S
C5732 H5728 0.949 . S
C5732 C5740 1.574 . S
C5732 C5748 1.368 . S
H5733 C5741 0.950 . S
H5734 C5739 0.950 . S
H5735 C5740 0.949 . S
H5736 C5742 0.950 . S
H5737 C5743 0.950 . S
H5738 C5744 0.949 . S
C5739 H5734 0.950 . S
C5739 C5741 1.327 . S
C5739 C5745 1.429 . S
C5740 C5732 1.574 . S
C5740 H5735 0.949 . S
C5740 C5746 1.368 . S
C5741 C5725 1.349 . S
C5741 H5733 0.950 . S
C5741 C5739 1.327 . S
C5742 C5730 1.349 . S
C5742 H5736 0.950 . S
C5742 C5743 1.327 . S
C5743 H5737 0.950 . S
C5743 C5742 1.327 . S
C5743 C5747 1.429 . S
C5744 C5727 1.574 . S
C5744 H5738 0.949 . S
C5744 C5748 1.368 . S
C5745 C5726 1.429 . S
C5745 C5739 1.429 . S
C5745 C5746 1.523 . S
C5746 C5727 1.368 . S
C5746 C5740 1.368 . S
C5746 C5745 1.523 . S
C5747 C5731 1.429 . S
C5747 C5743 1.429 . S
C5747 C5748 1.523 . S
C5748 C5732 1.368 . S
C5748 C5744 1.368 . S
C5748 C5747 1.523 . S
H5749 C5724 0.950 . S
H5750 C5726 0.950 . S
H5751 C5727 0.949 . S
H5752 C5729 0.950 . S
H5753 C5731 0.950 . S
C5754 C5755 1.349 . S
C5754 C5756 1.327 . S
C5754 H5779 0.950 . S
C5755 C5754 1.349 . S
C5755 C5771 1.349 . S
C5756 C5754 1.327 . S
C5756 C5775 1.429 . S
C5756 H5780 0.950 . S
C5757 C5774 1.574 . S
C5757 C5776 1.368 . S
C5757 H5781 0.949 . S
H5758 C5762 0.949 . S
C5759 C5760 1.349 . S
C5759 C5761 1.327 . S
C5759 H5782 0.950 . S
C5760 C5759 1.349 . S
C5760 C5772 1.349 . S
C5761 C5759 1.327 . S
C5761 C5777 1.429 . S
C5761 H5783 0.950 . S
C5762 H5758 0.949 . S
C5762 C5770 1.574 . S
C5762 C5778 1.368 . S
H5763 C5771 0.950 . S
H5764 C5769 0.950 . S
H5765 C5770 0.949 . S
H5766 C5772 0.950 . S
H5767 C5773 0.950 . S
H5768 C5774 0.949 . S
C5769 H5764 0.950 . S
C5769 C5771 1.327 . S
C5769 C5775 1.429 . S
C5770 C5762 1.574 . S
C5770 H5765 0.949 . S
C5770 C5776 1.368 . S
C5771 C5755 1.349 . S
C5771 H5763 0.950 . S
C5771 C5769 1.327 . S
C5772 C5760 1.349 . S
C5772 H5766 0.950 . S
C5772 C5773 1.327 . S
C5773 H5767 0.950 . S
C5773 C5772 1.327 . S
C5773 C5777 1.429 . S
C5774 C5757 1.574 . S
C5774 H5768 0.949 . S
C5774 C5778 1.368 . S
C5775 C5756 1.429 . S
C5775 C5769 1.429 . S
C5775 C5776 1.523 . S
C5776 C5757 1.368 . S
C5776 C5770 1.368 . S
C5776 C5775 1.523 . S
C5777 C5761 1.429 . S
C5777 C5773 1.429 . S
C5777 C5778 1.523 . S
C5778 C5762 1.368 . S
C5778 C5774 1.368 . S
C5778 C5777 1.523 . S
H5779 C5754 0.950 . S
H5780 C5756 0.950 . S
H5781 C5757 0.949 . S
H5782 C5759 0.950 . S
H5783 C5761 0.950 . S
C5784 C5785 1.349 . S
C5784 C5786 1.327 . S
C5784 H5809 0.950 . S
C5785 C5784 1.349 . S
C5785 C5801 1.349 . S
C5786 C5784 1.327 . S
C5786 C5805 1.429 . S
C5786 H5810 0.950 . S
C5787 C5804 1.574 . S
C5787 C5806 1.368 . S
C5787 H5811 0.949 . S
H5788 C5792 0.949 . S
C5789 C5790 1.349 . S
C5789 C5791 1.327 . S
C5789 H5812 0.950 . S
C5790 C5789 1.349 . S
C5790 C5802 1.349 . S
C5791 C5789 1.327 . S
C5791 C5807 1.429 . S
C5791 H5813 0.950 . S
C5792 H5788 0.949 . S
C5792 C5800 1.574 . S
C5792 C5808 1.368 . S
H5793 C5801 0.950 . S
H5794 C5799 0.950 . S
H5795 C5800 0.949 . S
H5796 C5802 0.950 . S
H5797 C5803 0.950 . S
H5798 C5804 0.949 . S
C5799 H5794 0.950 . S
C5799 C5801 1.327 . S
C5799 C5805 1.429 . S
C5800 C5792 1.574 . S
C5800 H5795 0.949 . S
C5800 C5806 1.368 . S
C5801 C5785 1.349 . S
C5801 H5793 0.950 . S
C5801 C5799 1.327 . S
C5802 C5790 1.349 . S
C5802 H5796 0.950 . S
C5802 C5803 1.327 . S
C5803 H5797 0.950 . S
C5803 C5802 1.327 . S
C5803 C5807 1.429 . S
C5804 C5787 1.574 . S
C5804 H5798 0.949 . S
C5804 C5808 1.368 . S
C5805 C5786 1.429 . S
C5805 C5799 1.429 . S
C5805 C5806 1.523 . S
C5806 C5787 1.368 . S
C5806 C5800 1.368 . S
C5806 C5805 1.523 . S
C5807 C5791 1.429 . S
C5807 C5803 1.429 . S
C5807 C5808 1.523 . S
C5808 C5792 1.368 . S
C5808 C5804 1.368 . S
C5808 C5807 1.523 . S
H5809 C5784 0.950 . S
H5810 C5786 0.950 . S
H5811 C5787 0.949 . S
H5812 C5789 0.950 . S
H5813 C5791 0.950 . S
C5814 C5815 1.349 . S
C5814 C5816 1.327 . S
C5814 H5839 0.950 . S
C5815 C5814 1.349 . S
C5815 C5831 1.349 . S
C5816 C5814 1.327 . S
C5816 C5835 1.429 . S
C5816 H5840 0.950 . S
C5817 C5834 1.574 . S
C5817 C5836 1.368 . S
C5817 H5841 0.949 . S
H5818 C5822 0.949 . S
C5819 C5820 1.349 . S
C5819 C5821 1.327 . S
C5819 H5842 0.950 . S
C5820 C5819 1.349 . S
C5820 C5832 1.349 . S
C5821 C5819 1.327 . S
C5821 C5837 1.429 . S
C5821 H5843 0.950 . S
C5822 H5818 0.949 . S
C5822 C5830 1.574 . S
C5822 C5838 1.368 . S
H5823 C5831 0.950 . S
H5824 C5829 0.950 . S
H5825 C5830 0.949 . S
H5826 C5832 0.950 . S
H5827 C5833 0.950 . S
H5828 C5834 0.949 . S
C5829 H5824 0.950 . S
C5829 C5831 1.327 . S
C5829 C5835 1.429 . S
C5830 C5822 1.574 . S
C5830 H5825 0.949 . S
C5830 C5836 1.368 . S
C5831 C5815 1.349 . S
C5831 H5823 0.950 . S
C5831 C5829 1.327 . S
C5832 C5820 1.349 . S
C5832 H5826 0.950 . S
C5832 C5833 1.327 . S
C5833 H5827 0.950 . S
C5833 C5832 1.327 . S
C5833 C5837 1.429 . S
C5834 C5817 1.574 . S
C5834 H5828 0.949 . S
C5834 C5838 1.368 . S
C5835 C5816 1.429 . S
C5835 C5829 1.429 . S
C5835 C5836 1.523 . S
C5836 C5817 1.368 . S
C5836 C5830 1.368 . S
C5836 C5835 1.523 . S
C5837 C5821 1.429 . S
C5837 C5833 1.429 . S
C5837 C5838 1.523 . S
C5838 C5822 1.368 . S
C5838 C5834 1.368 . S
C5838 C5837 1.523 . S
H5839 C5814 0.950 . S
H5840 C5816 0.950 . S
H5841 C5817 0.949 . S
H5842 C5819 0.950 . S
H5843 C5821 0.950 . S
C5844 C5845 1.349 . S
C5844 C5846 1.327 . S
C5844 H5869 0.950 . S
C5845 C5844 1.349 . S
C5845 C5861 1.349 . S
C5846 C5844 1.327 . S
C5846 C5865 1.429 . S
C5846 H5870 0.950 . S
C5847 C5864 1.574 . S
C5847 C5866 1.368 . S
C5847 H5871 0.949 . S
H5848 C5852 0.949 . S
C5849 C5850 1.349 . S
C5849 C5851 1.327 . S
C5849 H5872 0.950 . S
C5850 C5849 1.349 . S
C5850 C5862 1.349 . S
C5851 C5849 1.327 . S
C5851 C5867 1.429 . S
C5851 H5873 0.950 . S
C5852 H5848 0.949 . S
C5852 C5860 1.574 . S
C5852 C5868 1.368 . S
H5853 C5861 0.950 . S
H5854 C5859 0.950 . S
H5855 C5860 0.949 . S
H5856 C5862 0.950 . S
H5857 C5863 0.950 . S
H5858 C5864 0.949 . S
C5859 H5854 0.950 . S
C5859 C5861 1.327 . S
C5859 C5865 1.429 . S
C5860 C5852 1.574 . S
C5860 H5855 0.949 . S
C5860 C5866 1.368 . S
C5861 C5845 1.349 . S
C5861 H5853 0.950 . S
C5861 C5859 1.327 . S
C5862 C5850 1.349 . S
C5862 H5856 0.950 . S
C5862 C5863 1.327 . S
C5863 H5857 0.950 . S
C5863 C5862 1.327 . S
C5863 C5867 1.429 . S
C5864 C5847 1.574 . S
C5864 H5858 0.949 . S
C5864 C5868 1.368 . S
C5865 C5846 1.429 . S
C5865 C5859 1.429 . S
C5865 C5866 1.523 . S
C5866 C5847 1.368 . S
C5866 C5860 1.368 . S
C5866 C5865 1.523 . S
C5867 C5851 1.429 . S
C5867 C5863 1.429 . S
C5867 C5868 1.523 . S
C5868 C5852 1.368 . S
C5868 C5864 1.368 . S
C5868 C5867 1.523 . S
H5869 C5844 0.950 . S
H5870 C5846 0.950 . S
H5871 C5847 0.949 . S
H5872 C5849 0.950 . S
H5873 C5851 0.950 . S
C5874 C5875 1.349 . S
C5874 C5876 1.327 . S
C5874 H5899 0.950 . S
C5875 C5874 1.349 . S
C5875 C5891 1.349 . S
C5876 C5874 1.327 . S
C5876 C5895 1.429 . S
C5876 H5900 0.950 . S
C5877 C5894 1.574 . S
C5877 C5896 1.368 . S
C5877 H5901 0.949 . S
H5878 C5882 0.949 . S
C5879 C5880 1.349 . S
C5879 C5881 1.327 . S
C5879 H5902 0.950 . S
C5880 C5879 1.349 . S
C5880 C5892 1.349 . S
C5881 C5879 1.327 . S
C5881 C5897 1.429 . S
C5881 H5903 0.950 . S
C5882 H5878 0.949 . S
C5882 C5890 1.574 . S
C5882 C5898 1.368 . S
H5883 C5891 0.950 . S
H5884 C5889 0.950 . S
H5885 C5890 0.949 . S
H5886 C5892 0.950 . S
H5887 C5893 0.950 . S
H5888 C5894 0.949 . S
C5889 H5884 0.950 . S
C5889 C5891 1.327 . S
C5889 C5895 1.429 . S
C5890 C5882 1.574 . S
C5890 H5885 0.949 . S
C5890 C5896 1.368 . S
C5891 C5875 1.349 . S
C5891 H5883 0.950 . S
C5891 C5889 1.327 . S
C5892 C5880 1.349 . S
C5892 H5886 0.950 . S
C5892 C5893 1.327 . S
C5893 H5887 0.950 . S
C5893 C5892 1.327 . S
C5893 C5897 1.429 . S
C5894 C5877 1.574 . S
C5894 H5888 0.949 . S
C5894 C5898 1.368 . S
C5895 C5876 1.429 . S
C5895 C5889 1.429 . S
C5895 C5896 1.523 . S
C5896 C5877 1.368 . S
C5896 C5890 1.368 . S
C5896 C5895 1.523 . S
C5897 C5881 1.429 . S
C5897 C5893 1.429 . S
C5897 C5898 1.523 . S
C5898 C5882 1.368 . S
C5898 C5894 1.368 . S
C5898 C5897 1.523 . S
H5899 C5874 0.950 . S
H5900 C5876 0.950 . S
H5901 C5877 0.949 . S
H5902 C5879 0.950 . S
H5903 C5881 0.950 . S
C5904 C5905 1.349 . S
C5904 C5906 1.327 . S
C5904 H5929 0.950 . S
C5905 C5904 1.349 . S
C5905 C5921 1.349 . S
C5906 C5904 1.327 . S
C5906 C5925 1.429 . S
C5906 H5930 0.950 . S
C5907 C5924 1.574 . S
C5907 C5926 1.368 . S
C5907 H5931 0.949 . S
H5908 C5912 0.949 . S
C5909 C5910 1.349 . S
C5909 C5911 1.327 . S
C5909 H5932 0.950 . S
C5910 C5909 1.349 . S
C5910 C5922 1.349 . S
C5911 C5909 1.327 . S
C5911 C5927 1.429 . S
C5911 H5933 0.950 . S
C5912 H5908 0.949 . S
C5912 C5920 1.574 . S
C5912 C5928 1.368 . S
H5913 C5921 0.950 . S
H5914 C5919 0.950 . S
H5915 C5920 0.949 . S
H5916 C5922 0.950 . S
H5917 C5923 0.950 . S
H5918 C5924 0.949 . S
C5919 H5914 0.950 . S
C5919 C5921 1.327 . S
C5919 C5925 1.429 . S
C5920 C5912 1.574 . S
C5920 H5915 0.949 . S
C5920 C5926 1.368 . S
C5921 C5905 1.349 . S
C5921 H5913 0.950 . S
C5921 C5919 1.327 . S
C5922 C5910 1.349 . S
C5922 H5916 0.950 . S
C5922 C5923 1.327 . S
C5923 H5917 0.950 . S
C5923 C5922 1.327 . S
C5923 C5927 1.429 . S
C5924 C5907 1.574 . S
C5924 H5918 0.949 . S
C5924 C5928 1.368 . S
C5925 C5906 1.429 . S
C5925 C5919 1.429 . S
C5925 C5926 1.523 . S
C5926 C5907 1.368 . S
C5926 C5920 1.368 . S
C5926 C5925 1.523 . S
C5927 C5911 1.429 . S
C5927 C5923 1.429 . S
C5927 C5928 1.523 . S
C5928 C5912 1.368 . S
C5928 C5924 1.368 . S
C5928 C5927 1.523 . S
H5929 C5904 0.950 . S
H5930 C5906 0.950 . S
H5931 C5907 0.949 . S
H5932 C5909 0.950 . S
H5933 C5911 0.950 . S
C5934 C5935 1.349 . S
C5934 C5936 1.327 . S
C5934 H5959 0.950 . S
C5935 C5934 1.349 . S
C5935 C5951 1.349 . S
C5936 C5934 1.327 . S
C5936 C5955 1.429 . S
C5936 H5960 0.950 . S
C5937 C5954 1.574 . S
C5937 C5956 1.368 . S
C5937 H5961 0.949 . S
H5938 C5942 0.949 . S
C5939 C5940 1.349 . S
C5939 C5941 1.327 . S
C5939 H5962 0.950 . S
C5940 C5939 1.349 . S
C5940 C5952 1.349 . S
C5941 C5939 1.327 . S
C5941 C5957 1.429 . S
C5941 H5963 0.950 . S
C5942 H5938 0.949 . S
C5942 C5950 1.574 . S
C5942 C5958 1.368 . S
H5943 C5951 0.950 . S
H5944 C5949 0.950 . S
H5945 C5950 0.949 . S
H5946 C5952 0.950 . S
H5947 C5953 0.950 . S
H5948 C5954 0.949 . S
C5949 H5944 0.950 . S
C5949 C5951 1.327 . S
C5949 C5955 1.429 . S
C5950 C5942 1.574 . S
C5950 H5945 0.949 . S
C5950 C5956 1.368 . S
C5951 C5935 1.349 . S
C5951 H5943 0.950 . S
C5951 C5949 1.327 . S
C5952 C5940 1.349 . S
C5952 H5946 0.950 . S
C5952 C5953 1.327 . S
C5953 H5947 0.950 . S
C5953 C5952 1.327 . S
C5953 C5957 1.429 . S
C5954 C5937 1.574 . S
C5954 H5948 0.949 . S
C5954 C5958 1.368 . S
C5955 C5936 1.429 . S
C5955 C5949 1.429 . S
C5955 C5956 1.523 . S
C5956 C5937 1.368 . S
C5956 C5950 1.368 . S
C5956 C5955 1.523 . S
C5957 C5941 1.429 . S
C5957 C5953 1.429 . S
C5957 C5958 1.523 . S
C5958 C5942 1.368 . S
C5958 C5954 1.368 . S
C5958 C5957 1.523 . S
H5959 C5934 0.950 . S
H5960 C5936 0.950 . S
H5961 C5937 0.949 . S
H5962 C5939 0.950 . S
H5963 C5941 0.950 . S
C5964 C5965 1.349 . S
C5964 C5966 1.327 . S
C5964 H5989 0.950 . S
C5965 C5964 1.349 . S
C5965 C5981 1.349 . S
C5966 C5964 1.327 . S
C5966 C5985 1.429 . S
C5966 H5990 0.950 . S
C5967 C5984 1.574 . S
C5967 C5986 1.368 . S
C5967 H5991 0.949 . S
H5968 C5972 0.949 . S
C5969 C5970 1.349 . S
C5969 C5971 1.327 . S
C5969 H5992 0.950 . S
C5970 C5969 1.349 . S
C5970 C5982 1.349 . S
C5971 C5969 1.327 . S
C5971 C5987 1.429 . S
C5971 H5993 0.950 . S
C5972 H5968 0.949 . S
C5972 C5980 1.574 . S
C5972 C5988 1.368 . S
H5973 C5981 0.950 . S
H5974 C5979 0.950 . S
H5975 C5980 0.949 . S
H5976 C5982 0.950 . S
H5977 C5983 0.950 . S
H5978 C5984 0.949 . S
C5979 H5974 0.950 . S
C5979 C5981 1.327 . S
C5979 C5985 1.429 . S
C5980 C5972 1.574 . S
C5980 H5975 0.949 . S
C5980 C5986 1.368 . S
C5981 C5965 1.349 . S
C5981 H5973 0.950 . S
C5981 C5979 1.327 . S
C5982 C5970 1.349 . S
C5982 H5976 0.950 . S
C5982 C5983 1.327 . S
C5983 H5977 0.950 . S
C5983 C5982 1.327 . S
C5983 C5987 1.429 . S
C5984 C5967 1.574 . S
C5984 H5978 0.949 . S
C5984 C5988 1.368 . S
C5985 C5966 1.429 . S
C5985 C5979 1.429 . S
C5985 C5986 1.523 . S
C5986 C5967 1.368 . S
C5986 C5980 1.368 . S
C5986 C5985 1.523 . S
C5987 C5971 1.429 . S
C5987 C5983 1.429 . S
C5987 C5988 1.523 . S
C5988 C5972 1.368 . S
C5988 C5984 1.368 . S
C5988 C5987 1.523 . S
H5989 C5964 0.950 . S
H5990 C5966 0.950 . S
H5991 C5967 0.949 . S
H5992 C5969 0.950 . S
H5993 C5971 0.950 . S
C5994 C5995 1.349 . S
C5994 C5996 1.327 . S
C5994 H6019 0.950 . S
C5995 C5994 1.349 . S
C5995 C6011 1.349 . S
C5996 C5994 1.327 . S
C5996 C6015 1.429 . S
C5996 H6020 0.950 . S
C5997 C6014 1.574 . S
C5997 C6016 1.368 . S
C5997 H6021 0.949 . S
H5998 C6002 0.949 . S
C5999 C6000 1.349 . S
C5999 C6001 1.327 . S
C5999 H6022 0.950 . S
C6000 C5999 1.349 . S
C6000 C6012 1.349 . S
C6001 C5999 1.327 . S
C6001 C6017 1.429 . S
C6001 H6023 0.950 . S
C6002 H5998 0.949 . S
C6002 C6010 1.574 . S
C6002 C6018 1.368 . S
H6003 C6011 0.950 . S
H6004 C6009 0.950 . S
H6005 C6010 0.949 . S
H6006 C6012 0.950 . S
H6007 C6013 0.950 . S
H6008 C6014 0.949 . S
C6009 H6004 0.950 . S
C6009 C6011 1.327 . S
C6009 C6015 1.429 . S
C6010 C6002 1.574 . S
C6010 H6005 0.949 . S
C6010 C6016 1.368 . S
C6011 C5995 1.349 . S
C6011 H6003 0.950 . S
C6011 C6009 1.327 . S
C6012 C6000 1.349 . S
C6012 H6006 0.950 . S
C6012 C6013 1.327 . S
C6013 H6007 0.950 . S
C6013 C6012 1.327 . S
C6013 C6017 1.429 . S
C6014 C5997 1.574 . S
C6014 H6008 0.949 . S
C6014 C6018 1.368 . S
C6015 C5996 1.429 . S
C6015 C6009 1.429 . S
C6015 C6016 1.523 . S
C6016 C5997 1.368 . S
C6016 C6010 1.368 . S
C6016 C6015 1.523 . S
C6017 C6001 1.429 . S
C6017 C6013 1.429 . S
C6017 C6018 1.523 . S
C6018 C6002 1.368 . S
C6018 C6014 1.368 . S
C6018 C6017 1.523 . S
H6019 C5994 0.950 . S
H6020 C5996 0.950 . S
H6021 C5997 0.949 . S
H6022 C5999 0.950 . S
H6023 C6001 0.950 . S
C6024 C6025 1.349 . S
C6024 C6026 1.327 . S
C6024 H6049 0.950 . S
C6025 C6024 1.349 . S
C6025 C6041 1.349 . S
C6026 C6024 1.327 . S
C6026 C6045 1.429 . S
C6026 H6050 0.950 . S
C6027 C6044 1.574 . S
C6027 C6046 1.368 . S
C6027 H6051 0.949 . S
H6028 C6032 0.949 . S
C6029 C6030 1.349 . S
C6029 C6031 1.327 . S
C6029 H6052 0.950 . S
C6030 C6029 1.349 . S
C6030 C6042 1.349 . S
C6031 C6029 1.327 . S
C6031 C6047 1.429 . S
C6031 H6053 0.950 . S
C6032 H6028 0.949 . S
C6032 C6040 1.574 . S
C6032 C6048 1.368 . S
H6033 C6041 0.950 . S
H6034 C6039 0.950 . S
H6035 C6040 0.949 . S
H6036 C6042 0.950 . S
H6037 C6043 0.950 . S
H6038 C6044 0.949 . S
C6039 H6034 0.950 . S
C6039 C6041 1.327 . S
C6039 C6045 1.429 . S
C6040 C6032 1.574 . S
C6040 H6035 0.949 . S
C6040 C6046 1.368 . S
C6041 C6025 1.349 . S
C6041 H6033 0.950 . S
C6041 C6039 1.327 . S
C6042 C6030 1.349 . S
C6042 H6036 0.950 . S
C6042 C6043 1.327 . S
C6043 H6037 0.950 . S
C6043 C6042 1.327 . S
C6043 C6047 1.429 . S
C6044 C6027 1.574 . S
C6044 H6038 0.949 . S
C6044 C6048 1.368 . S
C6045 C6026 1.429 . S
C6045 C6039 1.429 . S
C6045 C6046 1.523 . S
C6046 C6027 1.368 . S
C6046 C6040 1.368 . S
C6046 C6045 1.523 . S
C6047 C6031 1.429 . S
C6047 C6043 1.429 . S
C6047 C6048 1.523 . S
C6048 C6032 1.368 . S
C6048 C6044 1.368 . S
C6048 C6047 1.523 . S
H6049 C6024 0.950 . S
H6050 C6026 0.950 . S
H6051 C6027 0.949 . S
H6052 C6029 0.950 . S
H6053 C6031 0.950 . S
C6054 C6055 1.349 . S
C6054 C6056 1.327 . S
C6054 H6079 0.950 . S
C6055 C6054 1.349 . S
C6055 C6071 1.349 . S
C6056 C6054 1.327 . S
C6056 C6075 1.429 . S
C6056 H6080 0.950 . S
C6057 C6074 1.574 . S
C6057 C6076 1.368 . S
C6057 H6081 0.949 . S
H6058 C6062 0.949 . S
C6059 C6060 1.349 . S
C6059 C6061 1.327 . S
C6059 H6082 0.950 . S
C6060 C6059 1.349 . S
C6060 C6072 1.349 . S
C6061 C6059 1.327 . S
C6061 C6077 1.429 . S
C6061 H6083 0.950 . S
C6062 H6058 0.949 . S
C6062 C6070 1.574 . S
C6062 C6078 1.368 . S
H6063 C6071 0.950 . S
H6064 C6069 0.950 . S
H6065 C6070 0.949 . S
H6066 C6072 0.950 . S
H6067 C6073 0.950 . S
H6068 C6074 0.949 . S
C6069 H6064 0.950 . S
C6069 C6071 1.327 . S
C6069 C6075 1.429 . S
C6070 C6062 1.574 . S
C6070 H6065 0.949 . S
C6070 C6076 1.368 . S
C6071 C6055 1.349 . S
C6071 H6063 0.950 . S
C6071 C6069 1.327 . S
C6072 C6060 1.349 . S
C6072 H6066 0.950 . S
C6072 C6073 1.327 . S
C6073 H6067 0.950 . S
C6073 C6072 1.327 . S
C6073 C6077 1.429 . S
C6074 C6057 1.574 . S
C6074 H6068 0.949 . S
C6074 C6078 1.368 . S
C6075 C6056 1.429 . S
C6075 C6069 1.429 . S
C6075 C6076 1.523 . S
C6076 C6057 1.368 . S
C6076 C6070 1.368 . S
C6076 C6075 1.523 . S
C6077 C6061 1.429 . S
C6077 C6073 1.429 . S
C6077 C6078 1.523 . S
C6078 C6062 1.368 . S
C6078 C6074 1.368 . S
C6078 C6077 1.523 . S
H6079 C6054 0.950 . S
H6080 C6056 0.950 . S
H6081 C6057 0.949 . S
H6082 C6059 0.950 . S
H6083 C6061 0.950 . S
C6084 C6085 1.349 . S
C6084 C6086 1.327 . S
C6084 H6109 0.950 . S
C6085 C6084 1.349 . S
C6085 C6101 1.349 . S
C6086 C6084 1.327 . S
C6086 C6105 1.429 . S
C6086 H6110 0.950 . S
C6087 C6104 1.574 . S
C6087 C6106 1.368 . S
C6087 H6111 0.949 . S
H6088 C6092 0.949 . S
C6089 C6090 1.349 . S
C6089 C6091 1.327 . S
C6089 H6112 0.950 . S
C6090 C6089 1.349 . S
C6090 C6102 1.349 . S
C6091 C6089 1.327 . S
C6091 C6107 1.429 . S
C6091 H6113 0.950 . S
C6092 H6088 0.949 . S
C6092 C6100 1.574 . S
C6092 C6108 1.368 . S
H6093 C6101 0.950 . S
H6094 C6099 0.950 . S
H6095 C6100 0.949 . S
H6096 C6102 0.950 . S
H6097 C6103 0.950 . S
H6098 C6104 0.949 . S
C6099 H6094 0.950 . S
C6099 C6101 1.327 . S
C6099 C6105 1.429 . S
C6100 C6092 1.574 . S
C6100 H6095 0.949 . S
C6100 C6106 1.368 . S
C6101 C6085 1.349 . S
C6101 H6093 0.950 . S
C6101 C6099 1.327 . S
C6102 C6090 1.349 . S
C6102 H6096 0.950 . S
C6102 C6103 1.327 . S
C6103 H6097 0.950 . S
C6103 C6102 1.327 . S
C6103 C6107 1.429 . S
C6104 C6087 1.574 . S
C6104 H6098 0.949 . S
C6104 C6108 1.368 . S
C6105 C6086 1.429 . S
C6105 C6099 1.429 . S
C6105 C6106 1.523 . S
C6106 C6087 1.368 . S
C6106 C6100 1.368 . S
C6106 C6105 1.523 . S
C6107 C6091 1.429 . S
C6107 C6103 1.429 . S
C6107 C6108 1.523 . S
C6108 C6092 1.368 . S
C6108 C6104 1.368 . S
C6108 C6107 1.523 . S
H6109 C6084 0.950 . S
H6110 C6086 0.950 . S
H6111 C6087 0.949 . S
H6112 C6089 0.950 . S
H6113 C6091 0.950 . S
C6114 C6115 1.349 . S
C6114 C6116 1.327 . S
C6114 H6139 0.950 . S
C6115 C6114 1.349 . S
C6115 C6131 1.349 . S
C6116 C6114 1.327 . S
C6116 C6135 1.429 . S
C6116 H6140 0.950 . S
C6117 C6134 1.574 . S
C6117 C6136 1.368 . S
C6117 H6141 0.949 . S
H6118 C6122 0.949 . S
C6119 C6120 1.349 . S
C6119 C6121 1.327 . S
C6119 H6142 0.950 . S
C6120 C6119 1.349 . S
C6120 C6132 1.349 . S
C6121 C6119 1.327 . S
C6121 C6137 1.429 . S
C6121 H6143 0.950 . S
C6122 H6118 0.949 . S
C6122 C6130 1.574 . S
C6122 C6138 1.368 . S
H6123 C6131 0.950 . S
H6124 C6129 0.950 . S
H6125 C6130 0.949 . S
H6126 C6132 0.950 . S
H6127 C6133 0.950 . S
H6128 C6134 0.949 . S
C6129 H6124 0.950 . S
C6129 C6131 1.327 . S
C6129 C6135 1.429 . S
C6130 C6122 1.574 . S
C6130 H6125 0.949 . S
C6130 C6136 1.368 . S
C6131 C6115 1.349 . S
C6131 H6123 0.950 . S
C6131 C6129 1.327 . S
C6132 C6120 1.349 . S
C6132 H6126 0.950 . S
C6132 C6133 1.327 . S
C6133 H6127 0.950 . S
C6133 C6132 1.327 . S
C6133 C6137 1.429 . S
C6134 C6117 1.574 . S
C6134 H6128 0.949 . S
C6134 C6138 1.368 . S
C6135 C6116 1.429 . S
C6135 C6129 1.429 . S
C6135 C6136 1.523 . S
C6136 C6117 1.368 . S
C6136 C6130 1.368 . S
C6136 C6135 1.523 . S
C6137 C6121 1.429 . S
C6137 C6133 1.429 . S
C6137 C6138 1.523 . S
C6138 C6122 1.368 . S
C6138 C6134 1.368 . S
C6138 C6137 1.523 . S
H6139 C6114 0.950 . S
H6140 C6116 0.950 . S
H6141 C6117 0.949 . S
H6142 C6119 0.950 . S
H6143 C6121 0.950 . S
C6144 C6145 1.349 . S
C6144 C6146 1.327 . S
C6144 H6169 0.950 . S
C6145 C6144 1.349 . S
C6145 C6161 1.349 . S
C6146 C6144 1.327 . S
C6146 C6165 1.429 . S
C6146 H6170 0.950 . S
C6147 C6164 1.574 . S
C6147 C6166 1.368 . S
C6147 H6171 0.949 . S
H6148 C6152 0.949 . S
C6149 C6150 1.349 . S
C6149 C6151 1.327 . S
C6149 H6172 0.950 . S
C6150 C6149 1.349 . S
C6150 C6162 1.349 . S
C6151 C6149 1.327 . S
C6151 C6167 1.429 . S
C6151 H6173 0.950 . S
C6152 H6148 0.949 . S
C6152 C6160 1.574 . S
C6152 C6168 1.368 . S
H6153 C6161 0.950 . S
H6154 C6159 0.950 . S
H6155 C6160 0.949 . S
H6156 C6162 0.950 . S
H6157 C6163 0.950 . S
H6158 C6164 0.949 . S
C6159 H6154 0.950 . S
C6159 C6161 1.327 . S
C6159 C6165 1.429 . S
C6160 C6152 1.574 . S
C6160 H6155 0.949 . S
C6160 C6166 1.368 . S
C6161 C6145 1.349 . S
C6161 H6153 0.950 . S
C6161 C6159 1.327 . S
C6162 C6150 1.349 . S
C6162 H6156 0.950 . S
C6162 C6163 1.327 . S
C6163 H6157 0.950 . S
C6163 C6162 1.327 . S
C6163 C6167 1.429 . S
C6164 C6147 1.574 . S
C6164 H6158 0.949 . S
C6164 C6168 1.368 . S
C6165 C6146 1.429 . S
C6165 C6159 1.429 . S
C6165 C6166 1.523 . S
C6166 C6147 1.368 . S
C6166 C6160 1.368 . S
C6166 C6165 1.523 . S
C6167 C6151 1.429 . S
C6167 C6163 1.429 . S
C6167 C6168 1.523 . S
C6168 C6152 1.368 . S
C6168 C6164 1.368 . S
C6168 C6167 1.523 . S
H6169 C6144 0.950 . S
H6170 C6146 0.950 . S
H6171 C6147 0.949 . S
H6172 C6149 0.950 . S
H6173 C6151 0.950 . S
C6174 C6175 1.349 . S
C6174 C6176 1.327 . S
C6174 H6199 0.950 . S
C6175 C6174 1.349 . S
C6175 C6191 1.349 . S
C6176 C6174 1.327 . S
C6176 C6195 1.429 . S
C6176 H6200 0.950 . S
C6177 C6194 1.574 . S
C6177 C6196 1.368 . S
C6177 H6201 0.949 . S
H6178 C6182 0.949 . S
C6179 C6180 1.349 . S
C6179 C6181 1.327 . S
C6179 H6202 0.950 . S
C6180 C6179 1.349 . S
C6180 C6192 1.349 . S
C6181 C6179 1.327 . S
C6181 C6197 1.429 . S
C6181 H6203 0.950 . S
C6182 H6178 0.949 . S
C6182 C6190 1.574 . S
C6182 C6198 1.368 . S
H6183 C6191 0.950 . S
H6184 C6189 0.950 . S
H6185 C6190 0.949 . S
H6186 C6192 0.950 . S
H6187 C6193 0.950 . S
H6188 C6194 0.949 . S
C6189 H6184 0.950 . S
C6189 C6191 1.327 . S
C6189 C6195 1.429 . S
C6190 C6182 1.574 . S
C6190 H6185 0.949 . S
C6190 C6196 1.368 . S
C6191 C6175 1.349 . S
C6191 H6183 0.950 . S
C6191 C6189 1.327 . S
C6192 C6180 1.349 . S
C6192 H6186 0.950 . S
C6192 C6193 1.327 . S
C6193 H6187 0.950 . S
C6193 C6192 1.327 . S
C6193 C6197 1.429 . S
C6194 C6177 1.574 . S
C6194 H6188 0.949 . S
C6194 C6198 1.368 . S
C6195 C6176 1.429 . S
C6195 C6189 1.429 . S
C6195 C6196 1.523 . S
C6196 C6177 1.368 . S
C6196 C6190 1.368 . S
C6196 C6195 1.523 . S
C6197 C6181 1.429 . S
C6197 C6193 1.429 . S
C6197 C6198 1.523 . S
C6198 C6182 1.368 . S
C6198 C6194 1.368 . S
C6198 C6197 1.523 . S
H6199 C6174 0.950 . S
H6200 C6176 0.950 . S
H6201 C6177 0.949 . S
H6202 C6179 0.950 . S
H6203 C6181 0.950 . S
C6204 C6205 1.349 . S
C6204 C6206 1.327 . S
C6204 H6229 0.950 . S
C6205 C6204 1.349 . S
C6205 C6221 1.349 . S
C6206 C6204 1.327 . S
C6206 C6225 1.429 . S
C6206 H6230 0.950 . S
C6207 C6224 1.574 . S
C6207 C6226 1.368 . S
C6207 H6231 0.949 . S
H6208 C6212 0.949 . S
C6209 C6210 1.349 . S
C6209 C6211 1.327 . S
C6209 H6232 0.950 . S
C6210 C6209 1.349 . S
C6210 C6222 1.349 . S
C6211 C6209 1.327 . S
C6211 C6227 1.429 . S
C6211 H6233 0.950 . S
C6212 H6208 0.949 . S
C6212 C6220 1.574 . S
C6212 C6228 1.368 . S
H6213 C6221 0.950 . S
H6214 C6219 0.950 . S
H6215 C6220 0.949 . S
H6216 C6222 0.950 . S
H6217 C6223 0.950 . S
H6218 C6224 0.949 . S
C6219 H6214 0.950 . S
C6219 C6221 1.327 . S
C6219 C6225 1.429 . S
C6220 C6212 1.574 . S
C6220 H6215 0.949 . S
C6220 C6226 1.368 . S
C6221 C6205 1.349 . S
C6221 H6213 0.950 . S
C6221 C6219 1.327 . S
C6222 C6210 1.349 . S
C6222 H6216 0.950 . S
C6222 C6223 1.327 . S
C6223 H6217 0.950 . S
C6223 C6222 1.327 . S
C6223 C6227 1.429 . S
C6224 C6207 1.574 . S
C6224 H6218 0.949 . S
C6224 C6228 1.368 . S
C6225 C6206 1.429 . S
C6225 C6219 1.429 . S
C6225 C6226 1.523 . S
C6226 C6207 1.368 . S
C6226 C6220 1.368 . S
C6226 C6225 1.523 . S
C6227 C6211 1.429 . S
C6227 C6223 1.429 . S
C6227 C6228 1.523 . S
C6228 C6212 1.368 . S
C6228 C6224 1.368 . S
C6228 C6227 1.523 . S
H6229 C6204 0.950 . S
H6230 C6206 0.950 . S
H6231 C6207 0.949 . S
H6232 C6209 0.950 . S
H6233 C6211 0.950 . S
C6234 C6235 1.349 . S
C6234 C6236 1.327 . S
C6234 H6259 0.950 . S
C6235 C6234 1.349 . S
C6235 C6251 1.349 . S
C6236 C6234 1.327 . S
C6236 C6255 1.429 . S
C6236 H6260 0.950 . S
C6237 C6254 1.574 . S
C6237 C6256 1.368 . S
C6237 H6261 0.949 . S
H6238 C6242 0.949 . S
C6239 C6240 1.349 . S
C6239 C6241 1.327 . S
C6239 H6262 0.950 . S
C6240 C6239 1.349 . S
C6240 C6252 1.349 . S
C6241 C6239 1.327 . S
C6241 C6257 1.429 . S
C6241 H6263 0.950 . S
C6242 H6238 0.949 . S
C6242 C6250 1.574 . S
C6242 C6258 1.368 . S
H6243 C6251 0.950 . S
H6244 C6249 0.950 . S
H6245 C6250 0.949 . S
H6246 C6252 0.950 . S
H6247 C6253 0.950 . S
H6248 C6254 0.949 . S
C6249 H6244 0.950 . S
C6249 C6251 1.327 . S
C6249 C6255 1.429 . S
C6250 C6242 1.574 . S
C6250 H6245 0.949 . S
C6250 C6256 1.368 . S
C6251 C6235 1.349 . S
C6251 H6243 0.950 . S
C6251 C6249 1.327 . S
C6252 C6240 1.349 . S
C6252 H6246 0.950 . S
C6252 C6253 1.327 . S
C6253 H6247 0.950 . S
C6253 C6252 1.327 . S
C6253 C6257 1.429 . S
C6254 C6237 1.574 . S
C6254 H6248 0.949 . S
C6254 C6258 1.368 . S
C6255 C6236 1.429 . S
C6255 C6249 1.429 . S
C6255 C6256 1.523 . S
C6256 C6237 1.368 . S
C6256 C6250 1.368 . S
C6256 C6255 1.523 . S
C6257 C6241 1.429 . S
C6257 C6253 1.429 . S
C6257 C6258 1.523 . S
C6258 C6242 1.368 . S
C6258 C6254 1.368 . S
C6258 C6257 1.523 . S
H6259 C6234 0.950 . S
H6260 C6236 0.950 . S
H6261 C6237 0.949 . S
H6262 C6239 0.950 . S
H6263 C6241 0.950 . S
C6264 C6265 1.349 . S
C6264 C6266 1.327 . S
C6264 H6289 0.950 . S
C6265 C6264 1.349 . S
C6265 C6281 1.349 . S
C6266 C6264 1.327 . S
C6266 C6285 1.429 . S
C6266 H6290 0.950 . S
C6267 C6284 1.574 . S
C6267 C6286 1.368 . S
C6267 H6291 0.949 . S
H6268 C6272 0.949 . S
C6269 C6270 1.349 . S
C6269 C6271 1.327 . S
C6269 H6292 0.950 . S
C6270 C6269 1.349 . S
C6270 C6282 1.349 . S
C6271 C6269 1.327 . S
C6271 C6287 1.429 . S
C6271 H6293 0.950 . S
C6272 H6268 0.949 . S
C6272 C6280 1.574 . S
C6272 C6288 1.368 . S
H6273 C6281 0.950 . S
H6274 C6279 0.950 . S
H6275 C6280 0.949 . S
H6276 C6282 0.950 . S
H6277 C6283 0.950 . S
H6278 C6284 0.949 . S
C6279 H6274 0.950 . S
C6279 C6281 1.327 . S
C6279 C6285 1.429 . S
C6280 C6272 1.574 . S
C6280 H6275 0.949 . S
C6280 C6286 1.368 . S
C6281 C6265 1.349 . S
C6281 H6273 0.950 . S
C6281 C6279 1.327 . S
C6282 C6270 1.349 . S
C6282 H6276 0.950 . S
C6282 C6283 1.327 . S
C6283 H6277 0.950 . S
C6283 C6282 1.327 . S
C6283 C6287 1.429 . S
C6284 C6267 1.574 . S
C6284 H6278 0.949 . S
C6284 C6288 1.368 . S
C6285 C6266 1.429 . S
C6285 C6279 1.429 . S
C6285 C6286 1.523 . S
C6286 C6267 1.368 . S
C6286 C6280 1.368 . S
C6286 C6285 1.523 . S
C6287 C6271 1.429 . S
C6287 C6283 1.429 . S
C6287 C6288 1.523 . S
C6288 C6272 1.368 . S
C6288 C6284 1.368 . S
C6288 C6287 1.523 . S
H6289 C6264 0.950 . S
H6290 C6266 0.950 . S
H6291 C6267 0.949 . S
H6292 C6269 0.950 . S
H6293 C6271 0.950 . S
C6294 C6295 1.349 . S
C6294 C6296 1.327 . S
C6294 H6319 0.950 . S
C6295 C6294 1.349 . S
C6295 C6311 1.349 . S
C6296 C6294 1.327 . S
C6296 C6315 1.429 . S
C6296 H6320 0.950 . S
C6297 C6314 1.574 . S
C6297 C6316 1.368 . S
C6297 H6321 0.949 . S
H6298 C6302 0.949 . S
C6299 C6300 1.349 . S
C6299 C6301 1.327 . S
C6299 H6322 0.950 . S
C6300 C6299 1.349 . S
C6300 C6312 1.349 . S
C6301 C6299 1.327 . S
C6301 C6317 1.429 . S
C6301 H6323 0.950 . S
C6302 H6298 0.949 . S
C6302 C6310 1.574 . S
C6302 C6318 1.368 . S
H6303 C6311 0.950 . S
H6304 C6309 0.950 . S
H6305 C6310 0.949 . S
H6306 C6312 0.950 . S
H6307 C6313 0.950 . S
H6308 C6314 0.949 . S
C6309 H6304 0.950 . S
C6309 C6311 1.327 . S
C6309 C6315 1.429 . S
C6310 C6302 1.574 . S
C6310 H6305 0.949 . S
C6310 C6316 1.368 . S
C6311 C6295 1.349 . S
C6311 H6303 0.950 . S
C6311 C6309 1.327 . S
C6312 C6300 1.349 . S
C6312 H6306 0.950 . S
C6312 C6313 1.327 . S
C6313 H6307 0.950 . S
C6313 C6312 1.327 . S
C6313 C6317 1.429 . S
C6314 C6297 1.574 . S
C6314 H6308 0.949 . S
C6314 C6318 1.368 . S
C6315 C6296 1.429 . S
C6315 C6309 1.429 . S
C6315 C6316 1.523 . S
C6316 C6297 1.368 . S
C6316 C6310 1.368 . S
C6316 C6315 1.523 . S
C6317 C6301 1.429 . S
C6317 C6313 1.429 . S
C6317 C6318 1.523 . S
C6318 C6302 1.368 . S
C6318 C6314 1.368 . S
C6318 C6317 1.523 . S
H6319 C6294 0.950 . S
H6320 C6296 0.950 . S
H6321 C6297 0.949 . S
H6322 C6299 0.950 . S
H6323 C6301 0.950 . S
C6324 C6325 1.349 . S
C6324 C6326 1.327 . S
C6324 H6349 0.950 . S
C6325 C6324 1.349 . S
C6325 C6341 1.349 . S
C6326 C6324 1.327 . S
C6326 C6345 1.429 . S
C6326 H6350 0.950 . S
C6327 C6344 1.574 . S
C6327 C6346 1.368 . S
C6327 H6351 0.949 . S
H6328 C6332 0.949 . S
C6329 C6330 1.349 . S
C6329 C6331 1.327 . S
C6329 H6352 0.950 . S
C6330 C6329 1.349 . S
C6330 C6342 1.349 . S
C6331 C6329 1.327 . S
C6331 C6347 1.429 . S
C6331 H6353 0.950 . S
C6332 H6328 0.949 . S
C6332 C6340 1.574 . S
C6332 C6348 1.368 . S
H6333 C6341 0.950 . S
H6334 C6339 0.950 . S
H6335 C6340 0.949 . S
H6336 C6342 0.950 . S
H6337 C6343 0.950 . S
H6338 C6344 0.949 . S
C6339 H6334 0.950 . S
C6339 C6341 1.327 . S
C6339 C6345 1.429 . S
C6340 C6332 1.574 . S
C6340 H6335 0.949 . S
C6340 C6346 1.368 . S
C6341 C6325 1.349 . S
C6341 H6333 0.950 . S
C6341 C6339 1.327 . S
C6342 C6330 1.349 . S
C6342 H6336 0.950 . S
C6342 C6343 1.327 . S
C6343 H6337 0.950 . S
C6343 C6342 1.327 . S
C6343 C6347 1.429 . S
C6344 C6327 1.574 . S
C6344 H6338 0.949 . S
C6344 C6348 1.368 . S
C6345 C6326 1.429 . S
C6345 C6339 1.429 . S
C6345 C6346 1.523 . S
C6346 C6327 1.368 . S
C6346 C6340 1.368 . S
C6346 C6345 1.523 . S
C6347 C6331 1.429 . S
C6347 C6343 1.429 . S
C6347 C6348 1.523 . S
C6348 C6332 1.368 . S
C6348 C6344 1.368 . S
C6348 C6347 1.523 . S
H6349 C6324 0.950 . S
H6350 C6326 0.950 . S
H6351 C6327 0.949 . S
H6352 C6329 0.950 . S
H6353 C6331 0.950 . S
C6354 C6355 1.349 . S
C6354 C6356 1.327 . S
C6354 H6379 0.950 . S
C6355 C6354 1.349 . S
C6355 C6371 1.349 . S
C6356 C6354 1.327 . S
C6356 C6375 1.429 . S
C6356 H6380 0.950 . S
C6357 C6374 1.574 . S
C6357 C6376 1.368 . S
C6357 H6381 0.949 . S
H6358 C6362 0.949 . S
C6359 C6360 1.349 . S
C6359 C6361 1.327 . S
C6359 H6382 0.950 . S
C6360 C6359 1.349 . S
C6360 C6372 1.349 . S
C6361 C6359 1.327 . S
C6361 C6377 1.429 . S
C6361 H6383 0.950 . S
C6362 H6358 0.949 . S
C6362 C6370 1.574 . S
C6362 C6378 1.368 . S
H6363 C6371 0.950 . S
H6364 C6369 0.950 . S
H6365 C6370 0.949 . S
H6366 C6372 0.950 . S
H6367 C6373 0.950 . S
H6368 C6374 0.949 . S
C6369 H6364 0.950 . S
C6369 C6371 1.327 . S
C6369 C6375 1.429 . S
C6370 C6362 1.574 . S
C6370 H6365 0.949 . S
C6370 C6376 1.368 . S
C6371 C6355 1.349 . S
C6371 H6363 0.950 . S
C6371 C6369 1.327 . S
C6372 C6360 1.349 . S
C6372 H6366 0.950 . S
C6372 C6373 1.327 . S
C6373 H6367 0.950 . S
C6373 C6372 1.327 . S
C6373 C6377 1.429 . S
C6374 C6357 1.574 . S
C6374 H6368 0.949 . S
C6374 C6378 1.368 . S
C6375 C6356 1.429 . S
C6375 C6369 1.429 . S
C6375 C6376 1.523 . S
C6376 C6357 1.368 . S
C6376 C6370 1.368 . S
C6376 C6375 1.523 . S
C6377 C6361 1.429 . S
C6377 C6373 1.429 . S
C6377 C6378 1.523 . S
C6378 C6362 1.368 . S
C6378 C6374 1.368 . S
C6378 C6377 1.523 . S
H6379 C6354 0.950 . S
H6380 C6356 0.950 . S
H6381 C6357 0.949 . S
H6382 C6359 0.950 . S
H6383 C6361 0.950 . S
C6384 C6385 1.349 . S
C6384 C6386 1.327 . S
C6384 H6409 0.950 . S
C6385 C6384 1.349 . S
C6385 C6401 1.349 . S
C6386 C6384 1.327 . S
C6386 C6405 1.429 . S
C6386 H6410 0.950 . S
C6387 C6404 1.574 . S
C6387 C6406 1.368 . S
C6387 H6411 0.949 . S
H6388 C6392 0.949 . S
C6389 C6390 1.349 . S
C6389 C6391 1.327 . S
C6389 H6412 0.950 . S
C6390 C6389 1.349 . S
C6390 C6402 1.349 . S
C6391 C6389 1.327 . S
C6391 C6407 1.429 . S
C6391 H6413 0.950 . S
C6392 H6388 0.949 . S
C6392 C6400 1.574 . S
C6392 C6408 1.368 . S
H6393 C6401 0.950 . S
H6394 C6399 0.950 . S
H6395 C6400 0.949 . S
H6396 C6402 0.950 . S
H6397 C6403 0.950 . S
H6398 C6404 0.949 . S
C6399 H6394 0.950 . S
C6399 C6401 1.327 . S
C6399 C6405 1.429 . S
C6400 C6392 1.574 . S
C6400 H6395 0.949 . S
C6400 C6406 1.368 . S
C6401 C6385 1.349 . S
C6401 H6393 0.950 . S
C6401 C6399 1.327 . S
C6402 C6390 1.349 . S
C6402 H6396 0.950 . S
C6402 C6403 1.327 . S
C6403 H6397 0.950 . S
C6403 C6402 1.327 . S
C6403 C6407 1.429 . S
C6404 C6387 1.574 . S
C6404 H6398 0.949 . S
C6404 C6408 1.368 . S
C6405 C6386 1.429 . S
C6405 C6399 1.429 . S
C6405 C6406 1.523 . S
C6406 C6387 1.368 . S
C6406 C6400 1.368 . S
C6406 C6405 1.523 . S
C6407 C6391 1.429 . S
C6407 C6403 1.429 . S
C6407 C6408 1.523 . S
C6408 C6392 1.368 . S
C6408 C6404 1.368 . S
C6408 C6407 1.523 . S
H6409 C6384 0.950 . S
H6410 C6386 0.950 . S
H6411 C6387 0.949 . S
H6412 C6389 0.950 . S
H6413 C6391 0.950 . S
C6414 C6415 1.349 . S
C6414 C6416 1.327 . S
C6414 H6439 0.950 . S
C6415 C6414 1.349 . S
C6415 C6431 1.349 . S
C6416 C6414 1.327 . S
C6416 C6435 1.429 . S
C6416 H6440 0.950 . S
C6417 C6434 1.574 . S
C6417 C6436 1.368 . S
C6417 H6441 0.949 . S
H6418 C6422 0.949 . S
C6419 C6420 1.349 . S
C6419 C6421 1.327 . S
C6419 H6442 0.950 . S
C6420 C6419 1.349 . S
C6420 C6432 1.349 . S
C6421 C6419 1.327 . S
C6421 C6437 1.429 . S
C6421 H6443 0.950 . S
C6422 H6418 0.949 . S
C6422 C6430 1.574 . S
C6422 C6438 1.368 . S
H6423 C6431 0.950 . S
H6424 C6429 0.950 . S
H6425 C6430 0.949 . S
H6426 C6432 0.950 . S
H6427 C6433 0.950 . S
H6428 C6434 0.949 . S
C6429 H6424 0.950 . S
C6429 C6431 1.327 . S
C6429 C6435 1.429 . S
C6430 C6422 1.574 . S
C6430 H6425 0.949 . S
C6430 C6436 1.368 . S
C6431 C6415 1.349 . S
C6431 H6423 0.950 . S
C6431 C6429 1.327 . S
C6432 C6420 1.349 . S
C6432 H6426 0.950 . S
C6432 C6433 1.327 . S
C6433 H6427 0.950 . S
C6433 C6432 1.327 . S
C6433 C6437 1.429 . S
C6434 C6417 1.574 . S
C6434 H6428 0.949 . S
C6434 C6438 1.368 . S
C6435 C6416 1.429 . S
C6435 C6429 1.429 . S
C6435 C6436 1.523 . S
C6436 C6417 1.368 . S
C6436 C6430 1.368 . S
C6436 C6435 1.523 . S
C6437 C6421 1.429 . S
C6437 C6433 1.429 . S
C6437 C6438 1.523 . S
C6438 C6422 1.368 . S
C6438 C6434 1.368 . S
C6438 C6437 1.523 . S
H6439 C6414 0.950 . S
H6440 C6416 0.950 . S
H6441 C6417 0.949 . S
H6442 C6419 0.950 . S
H6443 C6421 0.950 . S
C6444 C6445 1.349 . S
C6444 C6446 1.327 . S
C6444 H6469 0.950 . S
C6445 C6444 1.349 . S
C6445 C6461 1.349 . S
C6446 C6444 1.327 . S
C6446 C6465 1.429 . S
C6446 H6470 0.950 . S
C6447 C6464 1.574 . S
C6447 C6466 1.368 . S
C6447 H6471 0.949 . S
H6448 C6452 0.949 . S
C6449 C6450 1.349 . S
C6449 C6451 1.327 . S
C6449 H6472 0.950 . S
C6450 C6449 1.349 . S
C6450 C6462 1.349 . S
C6451 C6449 1.327 . S
C6451 C6467 1.429 . S
C6451 H6473 0.950 . S
C6452 H6448 0.949 . S
C6452 C6460 1.574 . S
C6452 C6468 1.368 . S
H6453 C6461 0.950 . S
H6454 C6459 0.950 . S
H6455 C6460 0.949 . S
H6456 C6462 0.950 . S
H6457 C6463 0.950 . S
H6458 C6464 0.949 . S
C6459 H6454 0.950 . S
C6459 C6461 1.327 . S
C6459 C6465 1.429 . S
C6460 C6452 1.574 . S
C6460 H6455 0.949 . S
C6460 C6466 1.368 . S
C6461 C6445 1.349 . S
C6461 H6453 0.950 . S
C6461 C6459 1.327 . S
C6462 C6450 1.349 . S
C6462 H6456 0.950 . S
C6462 C6463 1.327 . S
C6463 H6457 0.950 . S
C6463 C6462 1.327 . S
C6463 C6467 1.429 . S
C6464 C6447 1.574 . S
C6464 H6458 0.949 . S
C6464 C6468 1.368 . S
C6465 C6446 1.429 . S
C6465 C6459 1.429 . S
C6465 C6466 1.523 . S
C6466 C6447 1.368 . S
C6466 C6460 1.368 . S
C6466 C6465 1.523 . S
C6467 C6451 1.429 . S
C6467 C6463 1.429 . S
C6467 C6468 1.523 . S
C6468 C6452 1.368 . S
C6468 C6464 1.368 . S
C6468 C6467 1.523 . S
H6469 C6444 0.950 . S
H6470 C6446 0.950 . S
H6471 C6447 0.949 . S
H6472 C6449 0.950 . S
H6473 C6451 0.950 . S
C6474 C6475 1.349 . S
C6474 C6476 1.327 . S
C6474 H6499 0.950 . S
C6475 C6474 1.349 . S
C6475 C6491 1.349 . S
C6476 C6474 1.327 . S
C6476 C6495 1.429 . S
C6476 H6500 0.950 . S
C6477 C6494 1.574 . S
C6477 C6496 1.368 . S
C6477 H6501 0.949 . S
H6478 C6482 0.949 . S
C6479 C6480 1.349 . S
C6479 C6481 1.327 . S
C6479 H6502 0.950 . S
C6480 C6479 1.349 . S
C6480 C6492 1.349 . S
C6481 C6479 1.327 . S
C6481 C6497 1.429 . S
C6481 H6503 0.950 . S
C6482 H6478 0.949 . S
C6482 C6490 1.574 . S
C6482 C6498 1.368 . S
H6483 C6491 0.950 . S
H6484 C6489 0.950 . S
H6485 C6490 0.949 . S
H6486 C6492 0.950 . S
H6487 C6493 0.950 . S
H6488 C6494 0.949 . S
C6489 H6484 0.950 . S
C6489 C6491 1.327 . S
C6489 C6495 1.429 . S
C6490 C6482 1.574 . S
C6490 H6485 0.949 . S
C6490 C6496 1.368 . S
C6491 C6475 1.349 . S
C6491 H6483 0.950 . S
C6491 C6489 1.327 . S
C6492 C6480 1.349 . S
C6492 H6486 0.950 . S
C6492 C6493 1.327 . S
C6493 H6487 0.950 . S
C6493 C6492 1.327 . S
C6493 C6497 1.429 . S
C6494 C6477 1.574 . S
C6494 H6488 0.949 . S
C6494 C6498 1.368 . S
C6495 C6476 1.429 . S
C6495 C6489 1.429 . S
C6495 C6496 1.523 . S
C6496 C6477 1.368 . S
C6496 C6490 1.368 . S
C6496 C6495 1.523 . S
C6497 C6481 1.429 . S
C6497 C6493 1.429 . S
C6497 C6498 1.523 . S
C6498 C6482 1.368 . S
C6498 C6494 1.368 . S
C6498 C6497 1.523 . S
H6499 C6474 0.950 . S
H6500 C6476 0.950 . S
H6501 C6477 0.949 . S
H6502 C6479 0.950 . S
H6503 C6481 0.950 . S
C6504 C6505 1.349 . S
C6504 C6506 1.327 . S
C6504 H6529 0.950 . S
C6505 C6504 1.349 . S
C6505 C6521 1.349 . S
C6506 C6504 1.327 . S
C6506 C6525 1.429 . S
C6506 H6530 0.950 . S
C6507 C6524 1.574 . S
C6507 C6526 1.368 . S
C6507 H6531 0.949 . S
H6508 C6512 0.949 . S
C6509 C6510 1.349 . S
C6509 C6511 1.327 . S
C6509 H6532 0.950 . S
C6510 C6509 1.349 . S
C6510 C6522 1.349 . S
C6511 C6509 1.327 . S
C6511 C6527 1.429 . S
C6511 H6533 0.950 . S
C6512 H6508 0.949 . S
C6512 C6520 1.574 . S
C6512 C6528 1.368 . S
H6513 C6521 0.950 . S
H6514 C6519 0.950 . S
H6515 C6520 0.949 . S
H6516 C6522 0.950 . S
H6517 C6523 0.950 . S
H6518 C6524 0.949 . S
C6519 H6514 0.950 . S
C6519 C6521 1.327 . S
C6519 C6525 1.429 . S
C6520 C6512 1.574 . S
C6520 H6515 0.949 . S
C6520 C6526 1.368 . S
C6521 C6505 1.349 . S
C6521 H6513 0.950 . S
C6521 C6519 1.327 . S
C6522 C6510 1.349 . S
C6522 H6516 0.950 . S
C6522 C6523 1.327 . S
C6523 H6517 0.950 . S
C6523 C6522 1.327 . S
C6523 C6527 1.429 . S
C6524 C6507 1.574 . S
C6524 H6518 0.949 . S
C6524 C6528 1.368 . S
C6525 C6506 1.429 . S
C6525 C6519 1.429 . S
C6525 C6526 1.523 . S
C6526 C6507 1.368 . S
C6526 C6520 1.368 . S
C6526 C6525 1.523 . S
C6527 C6511 1.429 . S
C6527 C6523 1.429 . S
C6527 C6528 1.523 . S
C6528 C6512 1.368 . S
C6528 C6524 1.368 . S
C6528 C6527 1.523 . S
H6529 C6504 0.950 . S
H6530 C6506 0.950 . S
H6531 C6507 0.949 . S
H6532 C6509 0.950 . S
H6533 C6511 0.950 . S
C6534 C6535 1.349 . S
C6534 C6536 1.327 . S
C6534 H6559 0.950 . S
C6535 C6534 1.349 . S
C6535 C6551 1.349 . S
C6536 C6534 1.327 . S
C6536 C6555 1.429 . S
C6536 H6560 0.950 . S
C6537 C6554 1.574 . S
C6537 C6556 1.368 . S
C6537 H6561 0.949 . S
H6538 C6542 0.949 . S
C6539 C6540 1.349 . S
C6539 C6541 1.327 . S
C6539 H6562 0.950 . S
C6540 C6539 1.349 . S
C6540 C6552 1.349 . S
C6541 C6539 1.327 . S
C6541 C6557 1.429 . S
C6541 H6563 0.950 . S
C6542 H6538 0.949 . S
C6542 C6550 1.574 . S
C6542 C6558 1.368 . S
H6543 C6551 0.950 . S
H6544 C6549 0.950 . S
H6545 C6550 0.949 . S
H6546 C6552 0.950 . S
H6547 C6553 0.950 . S
H6548 C6554 0.949 . S
C6549 H6544 0.950 . S
C6549 C6551 1.327 . S
C6549 C6555 1.429 . S
C6550 C6542 1.574 . S
C6550 H6545 0.949 . S
C6550 C6556 1.368 . S
C6551 C6535 1.349 . S
C6551 H6543 0.950 . S
C6551 C6549 1.327 . S
C6552 C6540 1.349 . S
C6552 H6546 0.950 . S
C6552 C6553 1.327 . S
C6553 H6547 0.950 . S
C6553 C6552 1.327 . S
C6553 C6557 1.429 . S
C6554 C6537 1.574 . S
C6554 H6548 0.949 . S
C6554 C6558 1.368 . S
C6555 C6536 1.429 . S
C6555 C6549 1.429 . S
C6555 C6556 1.523 . S
C6556 C6537 1.368 . S
C6556 C6550 1.368 . S
C6556 C6555 1.523 . S
C6557 C6541 1.429 . S
C6557 C6553 1.429 . S
C6557 C6558 1.523 . S
C6558 C6542 1.368 . S
C6558 C6554 1.368 . S
C6558 C6557 1.523 . S
H6559 C6534 0.950 . S
H6560 C6536 0.950 . S
H6561 C6537 0.949 . S
H6562 C6539 0.950 . S
H6563 C6541 0.950 . S
C6564 C6565 1.349 . S
C6564 C6566 1.327 . S
C6564 H6589 0.950 . S
C6565 C6564 1.349 . S
C6565 C6581 1.349 . S
C6566 C6564 1.327 . S
C6566 C6585 1.429 . S
C6566 H6590 0.950 . S
C6567 C6584 1.574 . S
C6567 C6586 1.368 . S
C6567 H6591 0.949 . S
H6568 C6572 0.949 . S
C6569 C6570 1.349 . S
C6569 C6571 1.327 . S
C6569 H6592 0.950 . S
C6570 C6569 1.349 . S
C6570 C6582 1.349 . S
C6571 C6569 1.327 . S
C6571 C6587 1.429 . S
C6571 H6593 0.950 . S
C6572 H6568 0.949 . S
C6572 C6580 1.574 . S
C6572 C6588 1.368 . S
H6573 C6581 0.950 . S
H6574 C6579 0.950 . S
H6575 C6580 0.949 . S
H6576 C6582 0.950 . S
H6577 C6583 0.950 . S
H6578 C6584 0.949 . S
C6579 H6574 0.950 . S
C6579 C6581 1.327 . S
C6579 C6585 1.429 . S
C6580 C6572 1.574 . S
C6580 H6575 0.949 . S
C6580 C6586 1.368 . S
C6581 C6565 1.349 . S
C6581 H6573 0.950 . S
C6581 C6579 1.327 . S
C6582 C6570 1.349 . S
C6582 H6576 0.950 . S
C6582 C6583 1.327 . S
C6583 H6577 0.950 . S
C6583 C6582 1.327 . S
C6583 C6587 1.429 . S
C6584 C6567 1.574 . S
C6584 H6578 0.949 . S
C6584 C6588 1.368 . S
C6585 C6566 1.429 . S
C6585 C6579 1.429 . S
C6585 C6586 1.523 . S
C6586 C6567 1.368 . S
C6586 C6580 1.368 . S
C6586 C6585 1.523 . S
C6587 C6571 1.429 . S
C6587 C6583 1.429 . S
C6587 C6588 1.523 . S
C6588 C6572 1.368 . S
C6588 C6584 1.368 . S
C6588 C6587 1.523 . S
H6589 C6564 0.950 . S
H6590 C6566 0.950 . S
H6591 C6567 0.949 . S
H6592 C6569 0.950 . S
H6593 C6571 0.950 . S
C6594 C6595 1.349 . S
C6594 C6596 1.327 . S
C6594 H6619 0.950 . S
C6595 C6594 1.349 . S
C6595 C6611 1.349 . S
C6596 C6594 1.327 . S
C6596 C6615 1.429 . S
C6596 H6620 0.950 . S
C6597 C6614 1.574 . S
C6597 C6616 1.368 . S
C6597 H6621 0.949 . S
H6598 C6602 0.949 . S
C6599 C6600 1.349 . S
C6599 C6601 1.327 . S
C6599 H6622 0.950 . S
C6600 C6599 1.349 . S
C6600 C6612 1.349 . S
C6601 C6599 1.327 . S
C6601 C6617 1.429 . S
C6601 H6623 0.950 . S
C6602 H6598 0.949 . S
C6602 C6610 1.574 . S
C6602 C6618 1.368 . S
H6603 C6611 0.950 . S
H6604 C6609 0.950 . S
H6605 C6610 0.949 . S
H6606 C6612 0.950 . S
H6607 C6613 0.950 . S
H6608 C6614 0.949 . S
C6609 H6604 0.950 . S
C6609 C6611 1.327 . S
C6609 C6615 1.429 . S
C6610 C6602 1.574 . S
C6610 H6605 0.949 . S
C6610 C6616 1.368 . S
C6611 C6595 1.349 . S
C6611 H6603 0.950 . S
C6611 C6609 1.327 . S
C6612 C6600 1.349 . S
C6612 H6606 0.950 . S
C6612 C6613 1.327 . S
C6613 H6607 0.950 . S
C6613 C6612 1.327 . S
C6613 C6617 1.429 . S
C6614 C6597 1.574 . S
C6614 H6608 0.949 . S
C6614 C6618 1.368 . S
C6615 C6596 1.429 . S
C6615 C6609 1.429 . S
C6615 C6616 1.523 . S
C6616 C6597 1.368 . S
C6616 C6610 1.368 . S
C6616 C6615 1.523 . S
C6617 C6601 1.429 . S
C6617 C6613 1.429 . S
C6617 C6618 1.523 . S
C6618 C6602 1.368 . S
C6618 C6614 1.368 . S
C6618 C6617 1.523 . S
H6619 C6594 0.950 . S
H6620 C6596 0.950 . S
H6621 C6597 0.949 . S
H6622 C6599 0.950 . S
H6623 C6601 0.950 . S
C6624 C6625 1.349 . S
C6624 C6626 1.327 . S
C6624 H6649 0.950 . S
C6625 C6624 1.349 . S
C6625 C6641 1.349 . S
C6626 C6624 1.327 . S
C6626 C6645 1.429 . S
C6626 H6650 0.950 . S
C6627 C6644 1.574 . S
C6627 C6646 1.368 . S
C6627 H6651 0.949 . S
H6628 C6632 0.949 . S
C6629 C6630 1.349 . S
C6629 C6631 1.327 . S
C6629 H6652 0.950 . S
C6630 C6629 1.349 . S
C6630 C6642 1.349 . S
C6631 C6629 1.327 . S
C6631 C6647 1.429 . S
C6631 H6653 0.950 . S
C6632 H6628 0.949 . S
C6632 C6640 1.574 . S
C6632 C6648 1.368 . S
H6633 C6641 0.950 . S
H6634 C6639 0.950 . S
H6635 C6640 0.949 . S
H6636 C6642 0.950 . S
H6637 C6643 0.950 . S
H6638 C6644 0.949 . S
C6639 H6634 0.950 . S
C6639 C6641 1.327 . S
C6639 C6645 1.429 . S
C6640 C6632 1.574 . S
C6640 H6635 0.949 . S
C6640 C6646 1.368 . S
C6641 C6625 1.349 . S
C6641 H6633 0.950 . S
C6641 C6639 1.327 . S
C6642 C6630 1.349 . S
C6642 H6636 0.950 . S
C6642 C6643 1.327 . S
C6643 H6637 0.950 . S
C6643 C6642 1.327 . S
C6643 C6647 1.429 . S
C6644 C6627 1.574 . S
C6644 H6638 0.949 . S
C6644 C6648 1.368 . S
C6645 C6626 1.429 . S
C6645 C6639 1.429 . S
C6645 C6646 1.523 . S
C6646 C6627 1.368 . S
C6646 C6640 1.368 . S
C6646 C6645 1.523 . S
C6647 C6631 1.429 . S
C6647 C6643 1.429 . S
C6647 C6648 1.523 . S
C6648 C6632 1.368 . S
C6648 C6644 1.368 . S
C6648 C6647 1.523 . S
H6649 C6624 0.950 . S
H6650 C6626 0.950 . S
H6651 C6627 0.949 . S
H6652 C6629 0.950 . S
H6653 C6631 0.950 . S
C6654 C6655 1.349 . S
C6654 C6656 1.327 . S
C6654 H6679 0.950 . S
C6655 C6654 1.349 . S
C6655 C6671 1.349 . S
C6656 C6654 1.327 . S
C6656 C6675 1.429 . S
C6656 H6680 0.950 . S
C6657 C6674 1.574 . S
C6657 C6676 1.368 . S
C6657 H6681 0.949 . S
H6658 C6662 0.949 . S
C6659 C6660 1.349 . S
C6659 C6661 1.327 . S
C6659 H6682 0.950 . S
C6660 C6659 1.349 . S
C6660 C6672 1.349 . S
C6661 C6659 1.327 . S
C6661 C6677 1.429 . S
C6661 H6683 0.950 . S
C6662 H6658 0.949 . S
C6662 C6670 1.574 . S
C6662 C6678 1.368 . S
H6663 C6671 0.950 . S
H6664 C6669 0.950 . S
H6665 C6670 0.949 . S
H6666 C6672 0.950 . S
H6667 C6673 0.950 . S
H6668 C6674 0.949 . S
C6669 H6664 0.950 . S
C6669 C6671 1.327 . S
C6669 C6675 1.429 . S
C6670 C6662 1.574 . S
C6670 H6665 0.949 . S
C6670 C6676 1.368 . S
C6671 C6655 1.349 . S
C6671 H6663 0.950 . S
C6671 C6669 1.327 . S
C6672 C6660 1.349 . S
C6672 H6666 0.950 . S
C6672 C6673 1.327 . S
C6673 H6667 0.950 . S
C6673 C6672 1.327 . S
C6673 C6677 1.429 . S
C6674 C6657 1.574 . S
C6674 H6668 0.949 . S
C6674 C6678 1.368 . S
C6675 C6656 1.429 . S
C6675 C6669 1.429 . S
C6675 C6676 1.523 . S
C6676 C6657 1.368 . S
C6676 C6670 1.368 . S
C6676 C6675 1.523 . S
C6677 C6661 1.429 . S
C6677 C6673 1.429 . S
C6677 C6678 1.523 . S
C6678 C6662 1.368 . S
C6678 C6674 1.368 . S
C6678 C6677 1.523 . S
H6679 C6654 0.950 . S
H6680 C6656 0.950 . S
H6681 C6657 0.949 . S
H6682 C6659 0.950 . S
H6683 C6661 0.950 . S
C6684 C6685 1.349 . S
C6684 C6686 1.327 . S
C6684 H6709 0.950 . S
C6685 C6684 1.349 . S
C6685 C6701 1.349 . S
C6686 C6684 1.327 . S
C6686 C6705 1.429 . S
C6686 H6710 0.950 . S
C6687 C6704 1.574 . S
C6687 C6706 1.368 . S
C6687 H6711 0.949 . S
H6688 C6692 0.949 . S
C6689 C6690 1.349 . S
C6689 C6691 1.327 . S
C6689 H6712 0.950 . S
C6690 C6689 1.349 . S
C6690 C6702 1.349 . S
C6691 C6689 1.327 . S
C6691 C6707 1.429 . S
C6691 H6713 0.950 . S
C6692 H6688 0.949 . S
C6692 C6700 1.574 . S
C6692 C6708 1.368 . S
H6693 C6701 0.950 . S
H6694 C6699 0.950 . S
H6695 C6700 0.949 . S
H6696 C6702 0.950 . S
H6697 C6703 0.950 . S
H6698 C6704 0.949 . S
C6699 H6694 0.950 . S
C6699 C6701 1.327 . S
C6699 C6705 1.429 . S
C6700 C6692 1.574 . S
C6700 H6695 0.949 . S
C6700 C6706 1.368 . S
C6701 C6685 1.349 . S
C6701 H6693 0.950 . S
C6701 C6699 1.327 . S
C6702 C6690 1.349 . S
C6702 H6696 0.950 . S
C6702 C6703 1.327 . S
C6703 H6697 0.950 . S
C6703 C6702 1.327 . S
C6703 C6707 1.429 . S
C6704 C6687 1.574 . S
C6704 H6698 0.949 . S
C6704 C6708 1.368 . S
C6705 C6686 1.429 . S
C6705 C6699 1.429 . S
C6705 C6706 1.523 . S
C6706 C6687 1.368 . S
C6706 C6700 1.368 . S
C6706 C6705 1.523 . S
C6707 C6691 1.429 . S
C6707 C6703 1.429 . S
C6707 C6708 1.523 . S
C6708 C6692 1.368 . S
C6708 C6704 1.368 . S
C6708 C6707 1.523 . S
H6709 C6684 0.950 . S
H6710 C6686 0.950 . S
H6711 C6687 0.949 . S
H6712 C6689 0.950 . S
H6713 C6691 0.950 . S
C6714 C6715 1.349 . S
C6714 C6716 1.327 . S
C6714 H6739 0.950 . S
C6715 C6714 1.349 . S
C6715 C6731 1.349 . S
C6716 C6714 1.327 . S
C6716 C6735 1.429 . S
C6716 H6740 0.950 . S
C6717 C6734 1.574 . S
C6717 C6736 1.368 . S
C6717 H6741 0.949 . S
H6718 C6722 0.949 . S
C6719 C6720 1.349 . S
C6719 C6721 1.327 . S
C6719 H6742 0.950 . S
C6720 C6719 1.349 . S
C6720 C6732 1.349 . S
C6721 C6719 1.327 . S
C6721 C6737 1.429 . S
C6721 H6743 0.950 . S
C6722 H6718 0.949 . S
C6722 C6730 1.574 . S
C6722 C6738 1.368 . S
H6723 C6731 0.950 . S
H6724 C6729 0.950 . S
H6725 C6730 0.949 . S
H6726 C6732 0.950 . S
H6727 C6733 0.950 . S
H6728 C6734 0.949 . S
C6729 H6724 0.950 . S
C6729 C6731 1.327 . S
C6729 C6735 1.429 . S
C6730 C6722 1.574 . S
C6730 H6725 0.949 . S
C6730 C6736 1.368 . S
C6731 C6715 1.349 . S
C6731 H6723 0.950 . S
C6731 C6729 1.327 . S
C6732 C6720 1.349 . S
C6732 H6726 0.950 . S
C6732 C6733 1.327 . S
C6733 H6727 0.950 . S
C6733 C6732 1.327 . S
C6733 C6737 1.429 . S
C6734 C6717 1.574 . S
C6734 H6728 0.949 . S
C6734 C6738 1.368 . S
C6735 C6716 1.429 . S
C6735 C6729 1.429 . S
C6735 C6736 1.523 . S
C6736 C6717 1.368 . S
C6736 C6730 1.368 . S
C6736 C6735 1.523 . S
C6737 C6721 1.429 . S
C6737 C6733 1.429 . S
C6737 C6738 1.523 . S
C6738 C6722 1.368 . S
C6738 C6734 1.368 . S
C6738 C6737 1.523 . S
H6739 C6714 0.950 . S
H6740 C6716 0.950 . S
H6741 C6717 0.949 . S
H6742 C6719 0.950 . S
H6743 C6721 0.950 . S
C6744 C6745 1.349 . S
C6744 C6746 1.327 . S
C6744 H6769 0.950 . S
C6745 C6744 1.349 . S
C6745 C6761 1.349 . S
C6746 C6744 1.327 . S
C6746 C6765 1.429 . S
C6746 H6770 0.950 . S
C6747 C6764 1.574 . S
C6747 C6766 1.368 . S
C6747 H6771 0.949 . S
H6748 C6752 0.949 . S
C6749 C6750 1.349 . S
C6749 C6751 1.327 . S
C6749 H6772 0.950 . S
C6750 C6749 1.349 . S
C6750 C6762 1.349 . S
C6751 C6749 1.327 . S
C6751 C6767 1.429 . S
C6751 H6773 0.950 . S
C6752 H6748 0.949 . S
C6752 C6760 1.574 . S
C6752 C6768 1.368 . S
H6753 C6761 0.950 . S
H6754 C6759 0.950 . S
H6755 C6760 0.949 . S
H6756 C6762 0.950 . S
H6757 C6763 0.950 . S
H6758 C6764 0.949 . S
C6759 H6754 0.950 . S
C6759 C6761 1.327 . S
C6759 C6765 1.429 . S
C6760 C6752 1.574 . S
C6760 H6755 0.949 . S
C6760 C6766 1.368 . S
C6761 C6745 1.349 . S
C6761 H6753 0.950 . S
C6761 C6759 1.327 . S
C6762 C6750 1.349 . S
C6762 H6756 0.950 . S
C6762 C6763 1.327 . S
C6763 H6757 0.950 . S
C6763 C6762 1.327 . S
C6763 C6767 1.429 . S
C6764 C6747 1.574 . S
C6764 H6758 0.949 . S
C6764 C6768 1.368 . S
C6765 C6746 1.429 . S
C6765 C6759 1.429 . S
C6765 C6766 1.523 . S
C6766 C6747 1.368 . S
C6766 C6760 1.368 . S
C6766 C6765 1.523 . S
C6767 C6751 1.429 . S
C6767 C6763 1.429 . S
C6767 C6768 1.523 . S
C6768 C6752 1.368 . S
C6768 C6764 1.368 . S
C6768 C6767 1.523 . S
H6769 C6744 0.950 . S
H6770 C6746 0.950 . S
H6771 C6747 0.949 . S
H6772 C6749 0.950 . S
H6773 C6751 0.950 . S
C6774 C6775 1.349 . S
C6774 C6776 1.327 . S
C6774 H6799 0.950 . S
C6775 C6774 1.349 . S
C6775 C6791 1.349 . S
C6776 C6774 1.327 . S
C6776 C6795 1.429 . S
C6776 H6800 0.950 . S
C6777 C6794 1.574 . S
C6777 C6796 1.368 . S
C6777 H6801 0.949 . S
H6778 C6782 0.949 . S
C6779 C6780 1.349 . S
C6779 C6781 1.327 . S
C6779 H6802 0.950 . S
C6780 C6779 1.349 . S
C6780 C6792 1.349 . S
C6781 C6779 1.327 . S
C6781 C6797 1.429 . S
C6781 H6803 0.950 . S
C6782 H6778 0.949 . S
C6782 C6790 1.574 . S
C6782 C6798 1.368 . S
H6783 C6791 0.950 . S
H6784 C6789 0.950 . S
H6785 C6790 0.949 . S
H6786 C6792 0.950 . S
H6787 C6793 0.950 . S
H6788 C6794 0.949 . S
C6789 H6784 0.950 . S
C6789 C6791 1.327 . S
C6789 C6795 1.429 . S
C6790 C6782 1.574 . S
C6790 H6785 0.949 . S
C6790 C6796 1.368 . S
C6791 C6775 1.349 . S
C6791 H6783 0.950 . S
C6791 C6789 1.327 . S
C6792 C6780 1.349 . S
C6792 H6786 0.950 . S
C6792 C6793 1.327 . S
C6793 H6787 0.950 . S
C6793 C6792 1.327 . S
C6793 C6797 1.429 . S
C6794 C6777 1.574 . S
C6794 H6788 0.949 . S
C6794 C6798 1.368 . S
C6795 C6776 1.429 . S
C6795 C6789 1.429 . S
C6795 C6796 1.523 . S
C6796 C6777 1.368 . S
C6796 C6790 1.368 . S
C6796 C6795 1.523 . S
C6797 C6781 1.429 . S
C6797 C6793 1.429 . S
C6797 C6798 1.523 . S
C6798 C6782 1.368 . S
C6798 C6794 1.368 . S
C6798 C6797 1.523 . S
H6799 C6774 0.950 . S
H6800 C6776 0.950 . S
H6801 C6777 0.949 . S
H6802 C6779 0.950 . S
H6803 C6781 0.950 . S
C6804 C6805 1.349 . S
C6804 C6806 1.327 . S
C6804 H6829 0.950 . S
C6805 C6804 1.349 . S
C6805 C6821 1.349 . S
C6806 C6804 1.327 . S
C6806 C6825 1.429 . S
C6806 H6830 0.950 . S
C6807 C6824 1.574 . S
C6807 C6826 1.368 . S
C6807 H6831 0.949 . S
H6808 C6812 0.949 . S
C6809 C6810 1.349 . S
C6809 C6811 1.327 . S
C6809 H6832 0.950 . S
C6810 C6809 1.349 . S
C6810 C6822 1.349 . S
C6811 C6809 1.327 . S
C6811 C6827 1.429 . S
C6811 H6833 0.950 . S
C6812 H6808 0.949 . S
C6812 C6820 1.574 . S
C6812 C6828 1.368 . S
H6813 C6821 0.950 . S
H6814 C6819 0.950 . S
H6815 C6820 0.949 . S
H6816 C6822 0.950 . S
H6817 C6823 0.950 . S
H6818 C6824 0.949 . S
C6819 H6814 0.950 . S
C6819 C6821 1.327 . S
C6819 C6825 1.429 . S
C6820 C6812 1.574 . S
C6820 H6815 0.949 . S
C6820 C6826 1.368 . S
C6821 C6805 1.349 . S
C6821 H6813 0.950 . S
C6821 C6819 1.327 . S
C6822 C6810 1.349 . S
C6822 H6816 0.950 . S
C6822 C6823 1.327 . S
C6823 H6817 0.950 . S
C6823 C6822 1.327 . S
C6823 C6827 1.429 . S
C6824 C6807 1.574 . S
C6824 H6818 0.949 . S
C6824 C6828 1.368 . S
C6825 C6806 1.429 . S
C6825 C6819 1.429 . S
C6825 C6826 1.523 . S
C6826 C6807 1.368 . S
C6826 C6820 1.368 . S
C6826 C6825 1.523 . S
C6827 C6811 1.429 . S
C6827 C6823 1.429 . S
C6827 C6828 1.523 . S
C6828 C6812 1.368 . S
C6828 C6824 1.368 . S
C6828 C6827 1.523 . S
H6829 C6804 0.950 . S
H6830 C6806 0.950 . S
H6831 C6807 0.949 . S
H6832 C6809 0.950 . S
H6833 C6811 0.950 . S
C6834 C6835 1.349 . S
C6834 C6836 1.327 . S
C6834 H6859 0.950 . S
C6835 C6834 1.349 . S
C6835 C6851 1.349 . S
C6836 C6834 1.327 . S
C6836 C6855 1.429 . S
C6836 H6860 0.950 . S
C6837 C6854 1.574 . S
C6837 C6856 1.368 . S
C6837 H6861 0.949 . S
H6838 C6842 0.949 . S
C6839 C6840 1.349 . S
C6839 C6841 1.327 . S
C6839 H6862 0.950 . S
C6840 C6839 1.349 . S
C6840 C6852 1.349 . S
C6841 C6839 1.327 . S
C6841 C6857 1.429 . S
C6841 H6863 0.950 . S
C6842 H6838 0.949 . S
C6842 C6850 1.574 . S
C6842 C6858 1.368 . S
H6843 C6851 0.950 . S
H6844 C6849 0.950 . S
H6845 C6850 0.949 . S
H6846 C6852 0.950 . S
H6847 C6853 0.950 . S
H6848 C6854 0.949 . S
C6849 H6844 0.950 . S
C6849 C6851 1.327 . S
C6849 C6855 1.429 . S
C6850 C6842 1.574 . S
C6850 H6845 0.949 . S
C6850 C6856 1.368 . S
C6851 C6835 1.349 . S
C6851 H6843 0.950 . S
C6851 C6849 1.327 . S
C6852 C6840 1.349 . S
C6852 H6846 0.950 . S
C6852 C6853 1.327 . S
C6853 H6847 0.950 . S
C6853 C6852 1.327 . S
C6853 C6857 1.429 . S
C6854 C6837 1.574 . S
C6854 H6848 0.949 . S
C6854 C6858 1.368 . S
C6855 C6836 1.429 . S
C6855 C6849 1.429 . S
C6855 C6856 1.523 . S
C6856 C6837 1.368 . S
C6856 C6850 1.368 . S
C6856 C6855 1.523 . S
C6857 C6841 1.429 . S
C6857 C6853 1.429 . S
C6857 C6858 1.523 . S
C6858 C6842 1.368 . S
C6858 C6854 1.368 . S
C6858 C6857 1.523 . S
H6859 C6834 0.950 . S
H6860 C6836 0.950 . S
H6861 C6837 0.949 . S
H6862 C6839 0.950 . S
H6863 C6841 0.950 . S
C6864 C6865 1.349 . S
C6864 C6866 1.327 . S
C6864 H6889 0.950 . S
C6865 C6864 1.349 . S
C6865 C6881 1.349 . S
C6866 C6864 1.327 . S
C6866 C6885 1.429 . S
C6866 H6890 0.950 . S
C6867 C6884 1.574 . S
C6867 C6886 1.368 . S
C6867 H6891 0.949 . S
H6868 C6872 0.949 . S
C6869 C6870 1.349 . S
C6869 C6871 1.327 . S
C6869 H6892 0.950 . S
C6870 C6869 1.349 . S
C6870 C6882 1.349 . S
C6871 C6869 1.327 . S
C6871 C6887 1.429 . S
C6871 H6893 0.950 . S
C6872 H6868 0.949 . S
C6872 C6880 1.574 . S
C6872 C6888 1.368 . S
H6873 C6881 0.950 . S
H6874 C6879 0.950 . S
H6875 C6880 0.949 . S
H6876 C6882 0.950 . S
H6877 C6883 0.950 . S
H6878 C6884 0.949 . S
C6879 H6874 0.950 . S
C6879 C6881 1.327 . S
C6879 C6885 1.429 . S
C6880 C6872 1.574 . S
C6880 H6875 0.949 . S
C6880 C6886 1.368 . S
C6881 C6865 1.349 . S
C6881 H6873 0.950 . S
C6881 C6879 1.327 . S
C6882 C6870 1.349 . S
C6882 H6876 0.950 . S
C6882 C6883 1.327 . S
C6883 H6877 0.950 . S
C6883 C6882 1.327 . S
C6883 C6887 1.429 . S
C6884 C6867 1.574 . S
C6884 H6878 0.949 . S
C6884 C6888 1.368 . S
C6885 C6866 1.429 . S
C6885 C6879 1.429 . S
C6885 C6886 1.523 . S
C6886 C6867 1.368 . S
C6886 C6880 1.368 . S
C6886 C6885 1.523 . S
C6887 C6871 1.429 . S
C6887 C6883 1.429 . S
C6887 C6888 1.523 . S
C6888 C6872 1.368 . S
C6888 C6884 1.368 . S
C6888 C6887 1.523 . S
H6889 C6864 0.950 . S
H6890 C6866 0.950 . S
H6891 C6867 0.949 . S
H6892 C6869 0.950 . S
H6893 C6871 0.950 . S
C6894 C6895 1.349 . S
C6894 C6896 1.327 . S
C6894 H6919 0.950 . S
C6895 C6894 1.349 . S
C6895 C6911 1.349 . S
C6896 C6894 1.327 . S
C6896 C6915 1.429 . S
C6896 H6920 0.950 . S
C6897 C6914 1.574 . S
C6897 C6916 1.368 . S
C6897 H6921 0.949 . S
H6898 C6902 0.949 . S
C6899 C6900 1.349 . S
C6899 C6901 1.327 . S
C6899 H6922 0.950 . S
C6900 C6899 1.349 . S
C6900 C6912 1.349 . S
C6901 C6899 1.327 . S
C6901 C6917 1.429 . S
C6901 H6923 0.950 . S
C6902 H6898 0.949 . S
C6902 C6910 1.574 . S
C6902 C6918 1.368 . S
H6903 C6911 0.950 . S
H6904 C6909 0.950 . S
H6905 C6910 0.949 . S
H6906 C6912 0.950 . S
H6907 C6913 0.950 . S
H6908 C6914 0.949 . S
C6909 H6904 0.950 . S
C6909 C6911 1.327 . S
C6909 C6915 1.429 . S
C6910 C6902 1.574 . S
C6910 H6905 0.949 . S
C6910 C6916 1.368 . S
C6911 C6895 1.349 . S
C6911 H6903 0.950 . S
C6911 C6909 1.327 . S
C6912 C6900 1.349 . S
C6912 H6906 0.950 . S
C6912 C6913 1.327 . S
C6913 H6907 0.950 . S
C6913 C6912 1.327 . S
C6913 C6917 1.429 . S
C6914 C6897 1.574 . S
C6914 H6908 0.949 . S
C6914 C6918 1.368 . S
C6915 C6896 1.429 . S
C6915 C6909 1.429 . S
C6915 C6916 1.523 . S
C6916 C6897 1.368 . S
C6916 C6910 1.368 . S
C6916 C6915 1.523 . S
C6917 C6901 1.429 . S
C6917 C6913 1.429 . S
C6917 C6918 1.523 . S
C6918 C6902 1.368 . S
C6918 C6914 1.368 . S
C6918 C6917 1.523 . S
H6919 C6894 0.950 . S
H6920 C6896 0.950 . S
H6921 C6897 0.949 . S
H6922 C6899 0.950 . S
H6923 C6901 0.950 . S
C6924 C6925 1.349 . S
C6924 C6926 1.327 . S
C6924 H6949 0.950 . S
C6925 C6924 1.349 . S
C6925 C6941 1.349 . S
C6926 C6924 1.327 . S
C6926 C6945 1.429 . S
C6926 H6950 0.950 . S
C6927 C6944 1.574 . S
C6927 C6946 1.368 . S
C6927 H6951 0.949 . S
H6928 C6932 0.949 . S
C6929 C6930 1.349 . S
C6929 C6931 1.327 . S
C6929 H6952 0.950 . S
C6930 C6929 1.349 . S
C6930 C6942 1.349 . S
C6931 C6929 1.327 . S
C6931 C6947 1.429 . S
C6931 H6953 0.950 . S
C6932 H6928 0.949 . S
C6932 C6940 1.574 . S
C6932 C6948 1.368 . S
H6933 C6941 0.950 . S
H6934 C6939 0.950 . S
H6935 C6940 0.949 . S
H6936 C6942 0.950 . S
H6937 C6943 0.950 . S
H6938 C6944 0.949 . S
C6939 H6934 0.950 . S
C6939 C6941 1.327 . S
C6939 C6945 1.429 . S
C6940 C6932 1.574 . S
C6940 H6935 0.949 . S
C6940 C6946 1.368 . S
C6941 C6925 1.349 . S
C6941 H6933 0.950 . S
C6941 C6939 1.327 . S
C6942 C6930 1.349 . S
C6942 H6936 0.950 . S
C6942 C6943 1.327 . S
C6943 H6937 0.950 . S
C6943 C6942 1.327 . S
C6943 C6947 1.429 . S
C6944 C6927 1.574 . S
C6944 H6938 0.949 . S
C6944 C6948 1.368 . S
C6945 C6926 1.429 . S
C6945 C6939 1.429 . S
C6945 C6946 1.523 . S
C6946 C6927 1.368 . S
C6946 C6940 1.368 . S
C6946 C6945 1.523 . S
C6947 C6931 1.429 . S
C6947 C6943 1.429 . S
C6947 C6948 1.523 . S
C6948 C6932 1.368 . S
C6948 C6944 1.368 . S
C6948 C6947 1.523 . S
H6949 C6924 0.950 . S
H6950 C6926 0.950 . S
H6951 C6927 0.949 . S
H6952 C6929 0.950 . S
H6953 C6931 0.950 . S
C6954 C6955 1.349 . S
C6954 C6956 1.327 . S
C6954 H6979 0.950 . S
C6955 C6954 1.349 . S
C6955 C6971 1.349 . S
C6956 C6954 1.327 . S
C6956 C6975 1.429 . S
C6956 H6980 0.950 . S
C6957 C6974 1.574 . S
C6957 C6976 1.368 . S
C6957 H6981 0.949 . S
H6958 C6962 0.949 . S
C6959 C6960 1.349 . S
C6959 C6961 1.327 . S
C6959 H6982 0.950 . S
C6960 C6959 1.349 . S
C6960 C6972 1.349 . S
C6961 C6959 1.327 . S
C6961 C6977 1.429 . S
C6961 H6983 0.950 . S
C6962 H6958 0.949 . S
C6962 C6970 1.574 . S
C6962 C6978 1.368 . S
H6963 C6971 0.950 . S
H6964 C6969 0.950 . S
H6965 C6970 0.949 . S
H6966 C6972 0.950 . S
H6967 C6973 0.950 . S
H6968 C6974 0.949 . S
C6969 H6964 0.950 . S
C6969 C6971 1.327 . S
C6969 C6975 1.429 . S
C6970 C6962 1.574 . S
C6970 H6965 0.949 . S
C6970 C6976 1.368 . S
C6971 C6955 1.349 . S
C6971 H6963 0.950 . S
C6971 C6969 1.327 . S
C6972 C6960 1.349 . S
C6972 H6966 0.950 . S
C6972 C6973 1.327 . S
C6973 H6967 0.950 . S
C6973 C6972 1.327 . S
C6973 C6977 1.429 . S
C6974 C6957 1.574 . S
C6974 H6968 0.949 . S
C6974 C6978 1.368 . S
C6975 C6956 1.429 . S
C6975 C6969 1.429 . S
C6975 C6976 1.523 . S
C6976 C6957 1.368 . S
C6976 C6970 1.368 . S
C6976 C6975 1.523 . S
C6977 C6961 1.429 . S
C6977 C6973 1.429 . S
C6977 C6978 1.523 . S
C6978 C6962 1.368 . S
C6978 C6974 1.368 . S
C6978 C6977 1.523 . S
H6979 C6954 0.950 . S
H6980 C6956 0.950 . S
H6981 C6957 0.949 . S
H6982 C6959 0.950 . S
H6983 C6961 0.950 . S
C6984 C6985 1.349 . S
C6984 C6986 1.327 . S
C6984 H7009 0.950 . S
C6985 C6984 1.349 . S
C6985 C7001 1.349 . S
C6986 C6984 1.327 . S
C6986 C7005 1.429 . S
C6986 H7010 0.950 . S
C6987 C7004 1.574 . S
C6987 C7006 1.368 . S
C6987 H7011 0.949 . S
H6988 C6992 0.949 . S
C6989 C6990 1.349 . S
C6989 C6991 1.327 . S
C6989 H7012 0.950 . S
C6990 C6989 1.349 . S
C6990 C7002 1.349 . S
C6991 C6989 1.327 . S
C6991 C7007 1.429 . S
C6991 H7013 0.950 . S
C6992 H6988 0.949 . S
C6992 C7000 1.574 . S
C6992 C7008 1.368 . S
H6993 C7001 0.950 . S
H6994 C6999 0.950 . S
H6995 C7000 0.949 . S
H6996 C7002 0.950 . S
H6997 C7003 0.950 . S
H6998 C7004 0.949 . S
C6999 H6994 0.950 . S
C6999 C7001 1.327 . S
C6999 C7005 1.429 . S
C7000 C6992 1.574 . S
C7000 H6995 0.949 . S
C7000 C7006 1.368 . S
C7001 C6985 1.349 . S
C7001 H6993 0.950 . S
C7001 C6999 1.327 . S
C7002 C6990 1.349 . S
C7002 H6996 0.950 . S
C7002 C7003 1.327 . S
C7003 H6997 0.950 . S
C7003 C7002 1.327 . S
C7003 C7007 1.429 . S
C7004 C6987 1.574 . S
C7004 H6998 0.949 . S
C7004 C7008 1.368 . S
C7005 C6986 1.429 . S
C7005 C6999 1.429 . S
C7005 C7006 1.523 . S
C7006 C6987 1.368 . S
C7006 C7000 1.368 . S
C7006 C7005 1.523 . S
C7007 C6991 1.429 . S
C7007 C7003 1.429 . S
C7007 C7008 1.523 . S
C7008 C6992 1.368 . S
C7008 C7004 1.368 . S
C7008 C7007 1.523 . S
H7009 C6984 0.950 . S
H7010 C6986 0.950 . S
H7011 C6987 0.949 . S
H7012 C6989 0.950 . S
H7013 C6991 0.950 . S
C7014 C7015 1.349 . S
C7014 C7016 1.327 . S
C7014 H7039 0.950 . S
C7015 C7014 1.349 . S
C7015 C7031 1.349 . S
C7016 C7014 1.327 . S
C7016 C7035 1.429 . S
C7016 H7040 0.950 . S
C7017 C7034 1.574 . S
C7017 C7036 1.368 . S
C7017 H7041 0.949 . S
H7018 C7022 0.949 . S
C7019 C7020 1.349 . S
C7019 C7021 1.327 . S
C7019 H7042 0.950 . S
C7020 C7019 1.349 . S
C7020 C7032 1.349 . S
C7021 C7019 1.327 . S
C7021 C7037 1.429 . S
C7021 H7043 0.950 . S
C7022 H7018 0.949 . S
C7022 C7030 1.574 . S
C7022 C7038 1.368 . S
H7023 C7031 0.950 . S
H7024 C7029 0.950 . S
H7025 C7030 0.949 . S
H7026 C7032 0.950 . S
H7027 C7033 0.950 . S
H7028 C7034 0.949 . S
C7029 H7024 0.950 . S
C7029 C7031 1.327 . S
C7029 C7035 1.429 . S
C7030 C7022 1.574 . S
C7030 H7025 0.949 . S
C7030 C7036 1.368 . S
C7031 C7015 1.349 . S
C7031 H7023 0.950 . S
C7031 C7029 1.327 . S
C7032 C7020 1.349 . S
C7032 H7026 0.950 . S
C7032 C7033 1.327 . S
C7033 H7027 0.950 . S
C7033 C7032 1.327 . S
C7033 C7037 1.429 . S
C7034 C7017 1.574 . S
C7034 H7028 0.949 . S
C7034 C7038 1.368 . S
C7035 C7016 1.429 . S
C7035 C7029 1.429 . S
C7035 C7036 1.523 . S
C7036 C7017 1.368 . S
C7036 C7030 1.368 . S
C7036 C7035 1.523 . S
C7037 C7021 1.429 . S
C7037 C7033 1.429 . S
C7037 C7038 1.523 . S
C7038 C7022 1.368 . S
C7038 C7034 1.368 . S
C7038 C7037 1.523 . S
H7039 C7014 0.950 . S
H7040 C7016 0.950 . S
H7041 C7017 0.949 . S
H7042 C7019 0.950 . S
H7043 C7021 0.950 . S
C7044 C7045 1.349 . S
C7044 C7046 1.327 . S
C7044 H7069 0.950 . S
C7045 C7044 1.349 . S
C7045 C7061 1.349 . S
C7046 C7044 1.327 . S
C7046 C7065 1.429 . S
C7046 H7070 0.950 . S
C7047 C7064 1.574 . S
C7047 C7066 1.368 . S
C7047 H7071 0.949 . S
H7048 C7052 0.949 . S
C7049 C7050 1.349 . S
C7049 C7051 1.327 . S
C7049 H7072 0.950 . S
C7050 C7049 1.349 . S
C7050 C7062 1.349 . S
C7051 C7049 1.327 . S
C7051 C7067 1.429 . S
C7051 H7073 0.950 . S
C7052 H7048 0.949 . S
C7052 C7060 1.574 . S
C7052 C7068 1.368 . S
H7053 C7061 0.950 . S
H7054 C7059 0.950 . S
H7055 C7060 0.949 . S
H7056 C7062 0.950 . S
H7057 C7063 0.950 . S
H7058 C7064 0.949 . S
C7059 H7054 0.950 . S
C7059 C7061 1.327 . S
C7059 C7065 1.429 . S
C7060 C7052 1.574 . S
C7060 H7055 0.949 . S
C7060 C7066 1.368 . S
C7061 C7045 1.349 . S
C7061 H7053 0.950 . S
C7061 C7059 1.327 . S
C7062 C7050 1.349 . S
C7062 H7056 0.950 . S
C7062 C7063 1.327 . S
C7063 H7057 0.950 . S
C7063 C7062 1.327 . S
C7063 C7067 1.429 . S
C7064 C7047 1.574 . S
C7064 H7058 0.949 . S
C7064 C7068 1.368 . S
C7065 C7046 1.429 . S
C7065 C7059 1.429 . S
C7065 C7066 1.523 . S
C7066 C7047 1.368 . S
C7066 C7060 1.368 . S
C7066 C7065 1.523 . S
C7067 C7051 1.429 . S
C7067 C7063 1.429 . S
C7067 C7068 1.523 . S
C7068 C7052 1.368 . S
C7068 C7064 1.368 . S
C7068 C7067 1.523 . S
H7069 C7044 0.950 . S
H7070 C7046 0.950 . S
H7071 C7047 0.949 . S
H7072 C7049 0.950 . S
H7073 C7051 0.950 . S
C7074 C7075 1.349 . S
C7074 C7076 1.327 . S
C7074 H7099 0.950 . S
C7075 C7074 1.349 . S
C7075 C7091 1.349 . S
C7076 C7074 1.327 . S
C7076 C7095 1.429 . S
C7076 H7100 0.950 . S
C7077 C7094 1.574 . S
C7077 C7096 1.368 . S
C7077 H7101 0.949 . S
H7078 C7082 0.949 . S
C7079 C7080 1.349 . S
C7079 C7081 1.327 . S
C7079 H7102 0.950 . S
C7080 C7079 1.349 . S
C7080 C7092 1.349 . S
C7081 C7079 1.327 . S
C7081 C7097 1.429 . S
C7081 H7103 0.950 . S
C7082 H7078 0.949 . S
C7082 C7090 1.574 . S
C7082 C7098 1.368 . S
H7083 C7091 0.950 . S
H7084 C7089 0.950 . S
H7085 C7090 0.949 . S
H7086 C7092 0.950 . S
H7087 C7093 0.950 . S
H7088 C7094 0.949 . S
C7089 H7084 0.950 . S
C7089 C7091 1.327 . S
C7089 C7095 1.429 . S
C7090 C7082 1.574 . S
C7090 H7085 0.949 . S
C7090 C7096 1.368 . S
C7091 C7075 1.349 . S
C7091 H7083 0.950 . S
C7091 C7089 1.327 . S
C7092 C7080 1.349 . S
C7092 H7086 0.950 . S
C7092 C7093 1.327 . S
C7093 H7087 0.950 . S
C7093 C7092 1.327 . S
C7093 C7097 1.429 . S
C7094 C7077 1.574 . S
C7094 H7088 0.949 . S
C7094 C7098 1.368 . S
C7095 C7076 1.429 . S
C7095 C7089 1.429 . S
C7095 C7096 1.523 . S
C7096 C7077 1.368 . S
C7096 C7090 1.368 . S
C7096 C7095 1.523 . S
C7097 C7081 1.429 . S
C7097 C7093 1.429 . S
C7097 C7098 1.523 . S
C7098 C7082 1.368 . S
C7098 C7094 1.368 . S
C7098 C7097 1.523 . S
H7099 C7074 0.950 . S
H7100 C7076 0.950 . S
H7101 C7077 0.949 . S
H7102 C7079 0.950 . S
H7103 C7081 0.950 . S
C1345 C7 1.316 . S
C1350 C427 1.316 . S
C1375 C777 1.316 . S
C1380 C21 1.316 . S
C1405 C35 1.316 . S
C1410 C399 1.316 . S
C1435 C49 1.316 . S
C1440 C749 1.316 . S
C1465 C371 1.316 . S
C1470 C63 1.316 . S
C1495 C77 1.316 . S
C1500 C721 1.316 . S
C1525 C343 1.316 . S
C1530 C91 1.316 . S
C1555 C105 1.316 . S
C1560 C693 1.316 . S
C1585 C483 1.316 . S
C1590 C119 1.316 . S
C1615 C133 1.316 . S
C1620 C833 1.316 . S
C1645 C147 1.316 . S
C1650 C455 1.316 . S
C1675 C161 1.316 . S
C1680 C805 1.316 . S
C1705 C175 1.316 . S
C1710 C539 1.316 . S
C1735 C889 1.316 . S
C1740 C189 1.316 . S
C1765 C511 1.316 . S
C1770 C203 1.316 . S
C1795 C217 1.316 . S
C1800 C861 1.316 . S
C1825 C917 1.316 . S
C1830 C231 1.316 . S
C1855 C903 1.316 . S
C1860 C245 1.316 . S
C1885 C259 1.316 . S
C1890 C1001 1.316 . S
C1915 C1309 1.316 . S
C1920 C273 1.316 . S
C1945 C651 1.316 . S
C1950 C287 1.316 . S
C1975 C301 1.316 . S
C1980 C1281 1.316 . S
C2005 C315 1.316 . S
C2010 C623 1.316 . S
C2035 C329 1.316 . S
C2040 C931 1.316 . S
C2065 C357 1.316 . S
C2070 C1113 1.316 . S
C2095 C385 1.316 . S
C2100 C1085 1.316 . S
C2125 C413 1.316 . S
C2130 C1057 1.316 . S
C2155 C441 1.316 . S
C2160 C1029 1.316 . S
C2185 C1169 1.316 . S
C2190 C469 1.316 . S
C2215 C497 1.316 . S
C2220 C1141 1.316 . S
C2245 C1225 1.316 . S
C2250 C525 1.316 . S
C2275 C553 1.316 . S
C2280 C1197 1.316 . S
C2305 C567 1.316 . S
C2310 C1253 1.316 . S
C2335 C581 1.316 . S
C2340 C1239 1.316 . S
C2365 C595 1.316 . S
C2370 C1337 1.316 . S
C2395 C973 1.316 . S
C2400 C609 1.316 . S
C2425 C945 1.316 . S
C2430 C637 1.316 . S
C2455 C665 1.316 . S
C2460 C1267 1.316 . S
C2485 C679 1.316 . S
C2490 C1099 1.316 . S
C2515 C1071 1.316 . S
C2520 C707 1.316 . S
C2545 C735 1.316 . S
C2550 C1043 1.316 . S
C2575 C763 1.316 . S
C2580 C1015 1.316 . S
C2605 C1155 1.316 . S
C2610 C791 1.316 . S
C2635 C1127 1.316 . S
C2640 C819 1.316 . S
C2665 C847 1.316 . S
C2670 C1211 1.316 . S
C2695 C1183 1.316 . S
C2700 C875 1.316 . S
C2725 C959 1.316 . S
C2730 C1323 1.316 . S
C2755 C987 1.316 . S
C2760 C1295 1.316 . S
C2785 C8 1.296 . S
C2790 C778 1.296 . S
C2815 C22 1.296 . S
C2820 C400 1.296 . S
C2845 C36 1.296 . S
C2850 C750 1.296 . S
C2875 C428 1.296 . S
C2880 C50 1.296 . S
C2905 C64 1.296 . S
C2910 C358 1.296 . S
C2935 C78 1.296 . S
C2940 C708 1.296 . S
C2965 C92 1.296 . S
C2970 C386 1.296 . S
C2995 C680 1.296 . S
C3000 C106 1.296 . S
C3025 C120 1.296 . S
C3030 C288 1.296 . S
C3055 C134 1.296 . S
C3060 C1254 1.296 . S
C3085 C1268 1.296 . S
C3090 C148 1.296 . S
C3115 C162 1.296 . S
C3120 C1282 1.296 . S
C3145 C1002 1.296 . S
C3150 C176 1.296 . S
C3175 C1310 1.296 . S
C3180 C190 1.296 . S
C3205 C204 1.296 . S
C3210 C988 1.296 . S
C3235 C904 1.296 . S
C3240 C218 1.296 . S
C3265 C890 1.296 . S
C3270 C232 1.296 . S
C3295 C1142 1.296 . S
C3300 C246 1.296 . S
C3325 C260 1.296 . S
C3330 C1156 1.296 . S
C3355 C274 1.296 . S
C3360 C1170 1.296 . S
C3385 C302 1.296 . S
C3390 C1198 1.296 . S
C3415 C316 1.296 . S
C3420 C876 1.296 . S
C3445 C848 1.296 . S
C3450 C330 1.296 . S
C3475 C344 1.296 . S
C3480 C1114 1.296 . S
C3505 C1086 1.296 . S
C3510 C372 1.296 . S
C3535 C1044 1.296 . S
C3540 C414 1.296 . S
C3565 C442 1.296 . S
C3570 C1016 1.296 . S
C3595 C456 1.296 . S
C3600 C624 1.296 . S
C3625 C470 1.296 . S
C3630 C918 1.296 . S
C3655 C484 1.296 . S
C3660 C932 1.296 . S
C3685 C498 1.296 . S
C3690 C946 1.296 . S
C3715 C512 1.296 . S
C3720 C1338 1.296 . S
C3745 C974 1.296 . S
C3750 C526 1.296 . S
C3775 C1324 1.296 . S
C3780 C540 1.296 . S
C3805 C1240 1.296 . S
C3810 C554 1.296 . S
C3835 C1226 1.296 . S
C3840 C568 1.296 . S
C3865 C582 1.296 . S
C3870 C806 1.296 . S
C3895 C596 1.296 . S
C3900 C820 1.296 . S
C3925 C610 1.296 . S
C3930 C834 1.296 . S
C3955 C862 1.296 . S
C3960 C638 1.296 . S
C3985 C1212 1.296 . S
C3990 C652 1.296 . S
C4015 C1184 1.296 . S
C4020 C666 1.296 . S
C4045 C694 1.296 . S
C4050 C1072 1.296 . S
C4075 C722 1.296 . S
C4080 C1100 1.296 . S
C4105 C1030 1.296 . S
C4110 C736 1.296 . S
C4135 C1058 1.296 . S
C4140 C764 1.296 . S
C4165 C960 1.296 . S
C4170 C792 1.296 . S
C4195 C1296 1.296 . S
C4200 C1128 1.296 . S
C4225 C9 0.948 . S
C4230 C1305 1.006 . S
C4255 C23 0.948 . S
C4260 C983 1.006 . S
C4285 C899 1.006 . S
C4290 C37 0.948 . S
C4315 C997 1.006 . S
C4320 C51 0.948 . S
C4345 C65 0.948 . S
C4350 C269 1.006 . S
C4375 C79 0.948 . S
C4380 C1291 1.006 . S
C4405 C241 1.006 . S
C4410 C93 0.948 . S
C4435 C255 1.006 . S
C4440 C107 0.948 . S
C4465 C395 1.006 . S
C4470 C121 0.948 . S
C4495 C135 0.948 . S
C4500 C745 1.006 . S
C4525 C149 0.948 . S
C4530 C423 1.006 . S
C4555 C163 0.948 . S
C4560 C773 1.006 . S
C4585 C339 1.006 . S
C4590 C177 0.948 . S
C4615 C191 0.948 . S
C4620 C689 1.006 . S
C4645 C367 1.006 . S
C4650 C205 0.948 . S
C4675 C219 0.948 . S
C4680 C717 1.006 . S
C4705 C233 0.948 . S
C4710 C1207 1.006 . S
C4735 C479 1.006 . S
C4740 C247 0.948 . S
C4765 C261 0.948 . S
C4770 C829 1.006 . S
C4795 C451 1.006 . S
C4800 C275 0.948 . S
C4825 C289 0.948 . S
C4830 C465 1.006 . S
C4855 C843 1.006 . S
C4860 C303 0.948 . S
C4885 C185 1.006 . S
C4890 C317 0.948 . S
C4915 C213 1.006 . S
C4920 C331 0.948 . S
C4945 C969 1.006 . S
C4950 C345 0.948 . S
C4975 C359 0.948 . S
C4980 C1319 1.006 . S
C5005 C1235 1.006 . S
C5010 C373 0.948 . S
C5035 C387 0.948 . S
C5040 C1333 1.006 . S
C5065 C605 1.006 . S
C5070 C401 0.948 . S
C5095 C955 1.006 . S
C5100 C415 0.948 . S
C5125 C429 0.948 . S
C5130 C577 1.006 . S
C5155 C443 0.948 . S
C5160 C591 1.006 . S
C5185 C457 0.948 . S
C5190 C59 1.006 . S
C5215 C471 0.948 . S
C5220 C1081 1.006 . S
C5245 C87 1.006 . S
C5250 C485 0.948 . S
C5275 C499 0.948 . S
C5280 C1109 1.006 . S
C5305 C3 1.006 . S
C5310 C513 0.948 . S
C5335 C527 0.948 . S
C5340 C1025 1.006 . S
C5365 C31 1.006 . S
C5370 C541 0.948 . S
C5395 C1053 1.006 . S
C5400 C555 0.948 . S
C5425 C569 0.948 . S
C5430 C871 1.006 . S
C5455 C583 0.948 . S
C5460 C143 1.006 . S
C5485 C1165 1.006 . S
C5490 C597 0.948 . S
C5515 C611 0.948 . S
C5520 C115 1.006 . S
C5545 C129 1.006 . S
C5550 C625 0.948 . S
C5575 C639 0.948 . S
C5580 C1179 1.006 . S
C5605 C521 1.006 . S
C5610 C653 0.948 . S
C5635 C667 0.948 . S
C5640 C549 1.006 . S
C5665 C633 1.006 . S
C5670 C681 0.948 . S
C5695 C695 0.948 . S
C5700 C311 1.006 . S
C5725 C709 0.948 . S
C5730 C227 1.006 . S
C5755 C723 0.948 . S
C5760 C325 1.006 . S
C5785 C737 0.948 . S
C5790 C941 1.006 . S
C5815 C619 1.006 . S
C5820 C751 0.948 . S
C5845 C913 1.006 . S
C5850 C765 0.948 . S
C5875 C779 0.948 . S
C5880 C927 1.006 . S
C5905 C1067 1.006 . S
C5910 C793 0.948 . S
C5935 C73 1.006 . S
C5940 C807 0.948 . S
C5965 C1095 1.006 . S
C5970 C821 0.948 . S
C5995 C835 0.948 . S
C6000 C101 1.006 . S
C6025 C1011 1.006 . S
C6030 C849 0.948 . S
C6055 C863 0.948 . S
C6060 C17 1.006 . S
C6085 C1039 1.006 . S
C6090 C877 0.948 . S
C6115 C45 1.006 . S
C6120 C891 0.948 . S
C6145 C535 1.006 . S
C6150 C905 0.948 . S
C6175 C919 0.948 . S
C6180 C1151 1.006 . S
C6205 C933 0.948 . S
C6210 C157 1.006 . S
C6235 C1123 1.006 . S
C6240 C947 0.948 . S
C6265 C961 0.948 . S
C6270 C1137 1.006 . S
C6295 C171 1.006 . S
C6300 C975 0.948 . S
C6325 C857 1.006 . S
C6330 C989 0.948 . S
C6355 C1003 0.948 . S
C6360 C885 1.006 . S
C6385 C1017 0.948 . S
C6390 C297 1.006 . S
C6415 C647 1.006 . S
C6420 C1031 0.948 . S
C6445 C563 1.006 . S
C6450 C1045 0.948 . S
C6475 C1059 0.948 . S
C6480 C661 1.006 . S
C6505 C1073 0.948 . S
C6510 C1277 1.006 . S
C6535 C283 1.006 . S
C6540 C1087 0.948 . S
C6565 C1249 1.006 . S
C6570 C1101 0.948 . S
C6595 C1263 1.006 . S
C6600 C1115 0.948 . S
C6625 C731 1.006 . S
C6630 C1129 0.948 . S
C6655 C1143 0.948 . S
C6660 C409 1.006 . S
C6685 C1157 0.948 . S
C6690 C759 1.006 . S
C6715 C1171 0.948 . S
C6720 C437 1.006 . S
C6745 C675 1.006 . S
C6750 C1185 0.948 . S
C6775 C1199 0.948 . S
C6780 C353 1.006 . S
C6805 C1213 0.948 . S
C6810 C703 1.006 . S
C6835 C1227 0.948 . S
C6840 C381 1.006 . S
C6865 C199 1.006 . S
C6870 C1241 0.948 . S
C6895 C1255 0.948 . S
C6900 C815 1.006 . S
C6925 C1269 0.948 . S
C6930 C493 1.006 . S
C6955 C1283 0.948 . S
C6960 C787 1.006 . S
C6985 C1297 0.948 . S
C6990 C801 1.006 . S
C7015 C507 1.006 . S
C7020 C1311 0.948 . S
C7045 C1193 1.006 . S
C7050 C1325 0.948 . S
C7075 C1221 1.006 . S
C7080 C1339 0.948 . S
