# Generated by pormake.
# Topology sml, (6)-cn, num edge types: 1
# Building blocks:
#     Node 0, Type 0, BuildingBlock: LEVNOQ01_clean_sbu_1, # of connection points: 6
#     Node 1, Type 0, BuildingBlock: LEVNOQ01_clean_sbu_1, # of connection points: 6
#     Node 2, Type 0, BuildingBlock: LEVNOQ01_clean_sbu_1, # of connection points: 6
#     Node 3, Type 0, BuildingBlock: LEVNOQ01_clean_sbu_1, # of connection points: 6
#     Node 4, Type 0, BuildingBlock: LEVNOQ01_clean_sbu_1, # of connection points: 6
#     Node 5, Type 0, BuildingBlock: LEVNOQ01_clean_sbu_1, # of connection points: 6
#     Edge 6, Type (0, 0), BuildingBlock: AJUNOK_clean_linker_0, # of connection points: 2
#     Edge 7, Type (0, 0), BuildingBlock: AJUNOK_clean_linker_0, # of connection points: 2
#     Edge 8, Type (0, 0), BuildingBlock: AJUNOK_clean_linker_0, # of connection points: 2
#     Edge 9, Type (0, 0), BuildingBlock: AJUNOK_clean_linker_0, # of connection points: 2
#     Edge 10, Type (0, 0), BuildingBlock: AJUNOK_clean_linker_0, # of connection points: 2
#     Edge 11, Type (0, 0), BuildingBlock: AJUNOK_clean_linker_0, # of connection points: 2
#     Edge 12, Type (0, 0), BuildingBlock: AJUNOK_clean_linker_0, # of connection points: 2
#     Edge 13, Type (0, 0), BuildingBlock: AJUNOK_clean_linker_0, # of connection points: 2
#     Edge 14, Type (0, 0), BuildingBlock: AJUNOK_clean_linker_0, # of connection points: 2
#     Edge 15, Type (0, 0), BuildingBlock: AJUNOK_clean_linker_0, # of connection points: 2
#     Edge 16, Type (0, 0), BuildingBlock: AJUNOK_clean_linker_0, # of connection points: 2
#     Edge 17, Type (0, 0), BuildingBlock: AJUNOK_clean_linker_0, # of connection points: 2
#     Edge 18, Type (0, 0), BuildingBlock: AJUNOK_clean_linker_0, # of connection points: 2
#     Edge 19, Type (0, 0), BuildingBlock: AJUNOK_clean_linker_0, # of connection points: 2
#     Edge 20, Type (0, 0), BuildingBlock: AJUNOK_clean_linker_0, # of connection points: 2
#     Edge 21, Type (0, 0), BuildingBlock: AJUNOK_clean_linker_0, # of connection points: 2
#     Edge 22, Type (0, 0), BuildingBlock: AJUNOK_clean_linker_0, # of connection points: 2
#     Edge 23, Type (0, 0), BuildingBlock: AJUNOK_clean_linker_0, # of connection points: 2
# Relax obj value: 0.143
# Max RMSD: 0.171
# Mean RMSD: 0.171
data_MOF--net-sml--node1-LEVNOQ01_clean_sbu_1--edge1-AJUNOK_clean_linker_0
_symmetry_space_group_name_H-M    P1
_symmetry_Int_Tables_number       1
_symmetry_cell_setting            triclinic
loop_
_symmetry_equiv_pos_as_xyz
'x, y, z'
_cell_length_a     29.954457
_cell_length_b     30.126481
_cell_length_c     11.813125
_cell_angle_alpha  90.206452
_cell_angle_beta   89.884839
_cell_angle_gamma 120.07213
loop_
_atom_site_label
_atom_site_type_symbol
_atom_site_fract_x
_atom_site_fract_y
_atom_site_fract_z
_atom_type_partial_charge
O0 O 0.16123 0.3358 0.73737 0.0
Mg1 Mg 0.14848 0.30037 0.90066 0.0
O2 O 0.20614 0.41799 0.79043 0.0
Mg3 Mg 0.21983 0.42033 -0.01793 0.0
O4 O 0.14325 0.34961 0.00877 0.0
O5 O 0.07857 0.27062 -0.00958 0.0
O6 O 0.22981 0.41837 0.17385 0.0
O7 O 0.17266 0.46258 0.01361 0.0
Mg8 Mg 0.27554 0.52681 0.05639 0.0
O9 O 0.30128 0.49153 0.94818 0.0
O10 O 0.25457 0.49794 0.22425 0.0
O11 O 0.22388 0.54283 0.96998 0.0
O12 O 0.35171 0.57063 0.01809 0.0
C13 C 0.25634 0.33041 0.95908 0.0
C14 C 0.18494 0.38349 0.71405 0.0
C15 C 0.0977 0.31486 0.03853 0.0
C16 C 0.23776 0.45144 0.25011 0.0
C17 C 0.17922 0.50715 -0.00484 0.0
C18 C 0.34483 0.53473 0.9481 0.0
O19 O 0.21069 0.2924 0.96106 0.0
O20 O 0.26463 0.37628 0.95472 0.0
O21 O 0.8352 0.1765 0.09076 0.0
Mg22 Mg 0.84848 0.16498 0.26048 0.0
O23 O 0.7929 0.21668 0.1385 0.0
Mg24 Mg 0.80146 0.22622 0.32922 0.0
O25 O 0.78767 0.14355 0.36703 0.0
O26 O 0.81841 0.09224 0.31221 0.0
O27 O 0.81166 0.2343 0.52092 0.0
O28 O 0.71133 0.18644 0.35002 0.0
Mg29 Mg 0.77307 0.30252 0.43824 0.0
O30 O 0.81324 0.30759 0.29499 0.0
O31 O 0.80477 0.29817 0.59268 0.0
O32 O 0.69506 0.24711 0.40851 0.0
O33 O 0.80362 0.37193 0.36217 0.0
C34 C 0.92956 0.2615 0.3146 0.0
C35 C 0.81073 0.19909 0.06415 0.0
C36 C 0.78705 0.10004 0.37276 0.0
C37 C 0.81305 0.26128 0.60499 0.0
C38 C 0.67954 0.20145 0.37607 0.0
C39 C 0.81882 0.35304 0.28271 0.0
O40 O 0.92025 0.21636 0.33165 0.0
O41 O 0.8919 0.26964 0.3031 0.0
O42 O 0.64233 0.77968 0.37884 0.0
Mg43 Mg 0.68385 0.81155 0.53034 0.0
O44 O 0.57164 0.77916 0.43976 0.0
Mg45 Mg 0.57296 0.79147 0.63249 0.0
O46 O 0.63717 0.77405 0.66185 0.0
O47 O 0.71 0.7737 0.63385 0.0
O48 O 0.57823 0.80598 0.82429 0.0
O49 O 0.52174 0.70112 0.66239 0.0
Mg50 Mg 0.47623 0.74961 0.69699 0.0
O51 O 0.50725 0.81301 0.59565 0.0
O52 O 0.49881 0.74701 0.8658 0.0
O53 O 0.44526 0.68096 0.60364 0.0
O54 O 0.43292 0.78316 0.69256 0.0
C55 C 0.67734 0.90791 0.58074 0.0
C56 C 0.59818 0.77444 0.36104 0.0
C57 C 0.66921 0.75986 0.69403 0.0
C58 C 0.54435 0.77822 0.8965 0.0
C59 C 0.47596 0.66649 0.63622 0.0
C60 C 0.46454 0.81329 0.61675 0.0
O61 O 0.70602 0.88923 0.55695 0.0
O62 O 0.62943 0.87937 0.60412 0.0
O63 O 0.82599 0.65075 0.74442 0.0
Mg64 Mg 0.8416 0.68279 0.91055 0.0
O65 O 0.77294 0.56891 0.79168 0.0
Mg66 Mg 0.76084 0.56502 -0.01602 0.0
O67 O 0.84248 0.62955 0.01427 0.0
O68 O 0.91133 0.70643 -0.00616 0.0
O69 O 0.75548 0.56871 0.17749 0.0
O70 O 0.79557 0.50936 -0.00296 0.0
Mg71 Mg 0.68765 0.46367 0.07627 0.0
O72 O 0.67505 0.50058 0.94721 0.0
O73 O 0.70555 0.4908 0.24314 0.0
O74 O 0.72896 0.43099 0.01069 0.0
O75 O 0.61269 0.43016 0.03307 0.0
C76 C 0.73901 0.66627 0.97273 0.0
C77 C 0.79744 0.60377 0.71798 0.0
C78 C 0.88947 0.66207 0.04162 0.0
C79 C 0.73591 0.53797 0.2598 0.0
C80 C 0.77687 0.46067 -0.00292 0.0
C81 C 0.62774 0.46213 0.94978 0.0
O82 O 0.78621 0.70096 0.97326 0.0
O83 O 0.72614 0.61897 0.96804 0.0
O84 O 0.13474 0.78331 0.11522 0.0
Mg85 Mg 0.13076 0.79826 0.2908 0.0
O86 O 0.19998 0.77133 0.14882 0.0
Mg87 Mg 0.18191 0.7562 0.33831 0.0
O88 O 0.19796 0.84121 0.37834 0.0
O89 O 0.1478 0.87084 0.31146 0.0
O90 O 0.16252 0.74256 0.52799 0.0
O91 O 0.27233 0.8013 0.37853 0.0
Mg92 Mg 0.22638 0.70112 0.41013 0.0
O93 O 0.16668 0.67303 0.29797 0.0
O94 O 0.21933 0.72075 0.57952 0.0
O95 O 0.29665 0.74704 0.32759 0.0
O96 O 0.19446 0.62485 0.38321 0.0
C97 C 0.05334 0.70909 0.33039 0.0
C98 C 0.17025 0.77586 0.07882 0.0
C99 C 0.18792 0.87839 0.36731 0.0
C100 C 0.18706 0.73452 0.60526 0.0
C101 C 0.30858 0.79219 0.3543 0.0
C102 C 0.16605 0.62968 0.30783 0.0
O103 O 0.06178 0.74974 0.37941 0.0
O104 O 0.09233 0.70678 0.29533 0.0
O105 O 0.33011 0.17557 0.39401 0.0
Mg106 Mg 0.2965 0.1634 0.5587 0.0
O107 O 0.41231 0.20476 0.44136 0.0
Mg108 Mg 0.41083 0.18979 0.63164 0.0
O109 O 0.35146 0.21366 0.66385 0.0
O110 O 0.27803 0.21327 0.64032 0.0
O111 O 0.40315 0.17204 0.82299 0.0
O112 O 0.46612 0.27881 0.66564 0.0
Mg113 Mg 0.5069 0.22236 0.70716 0.0
O114 O 0.47333 0.16509 0.5889 0.0
O115 O 0.48365 0.21942 0.87622 0.0
O116 O 0.54478 0.29542 0.63463 0.0
O117 O 0.54404 0.18285 0.68975 0.0
C118 C 0.30245 0.07318 0.6036 0.0
C119 C 0.37713 0.19293 0.36717 0.0
C120 C 0.32159 0.23118 0.69186 0.0
C121 C 0.43652 0.19276 0.90109 0.0
C122 C 0.51375 0.31157 0.65111 0.0
C123 C 0.51318 0.15935 0.60658 0.0
O124 O 0.27419 0.09163 0.63145 0.0
O125 O 0.35106 0.10277 0.59144 0.0
C126 C 0.34263 0.3172 0.75577 0.0
C127 C 0.33329 0.26803 0.78404 0.0
C128 C 0.3255 0.34311 0.82651 0.0
C129 C 0.29733 0.31958 0.9254 0.0
H130 H 0.35698 0.33263 0.6723 0.0
H131 H 0.32746 0.37776 0.79482 0.0
S132 S 0.27644 0.19826 0.05057 0.0
N133 N 0.30554 0.20258 0.92874 0.0
N134 N 0.27201 0.25061 0.06066 0.0
C135 C 0.29567 0.27465 0.963 0.0
C136 C 0.31395 0.24883 0.89201 0.0
C137 C 0.06684 0.30965 0.23485 0.0
C138 C 0.06667 0.3238 0.12186 0.0
C139 C 0.02428 0.29652 0.30547 0.0
C140 C 0.98049 0.2973 0.26494 0.0
H141 H 0.09741 0.30343 0.26505 0.0
H142 H 0.02333 0.2804 0.3879 0.0
S143 S 0.96603 0.34035 0.9803 0.0
N144 N 0.02312 0.34454 0.97687 0.0
N145 N 0.94336 0.32086 0.10925 0.0
C146 C 0.98307 0.3178 0.1565 0.0
C147 C 0.02615 0.33056 0.08458 0.0
C148 C 0.70169 0.03021 0.44237 0.0
C149 C 0.75539 0.06046 0.45573 0.0
C150 C 0.67416 0.98215 0.49595 0.0
C151 C 0.69995 0.96356 0.5635 0.0
H152 H 0.68183 0.04138 0.38237 0.0
H153 H 0.63382 0.95746 0.47501 0.0
S154 S 0.83821 0.03387 0.64291 0.0
N155 N 0.83167 0.07246 0.55417 0.0
N156 N 0.78013 0.98304 0.65599 0.0
C157 C 0.75242 -0.00361 0.58727 0.0
C158 C 0.78021 0.04462 0.53247 0.0
C159 C 0.64659 0.67758 0.7823 0.0
C160 C 0.66223 0.72966 0.79621 0.0
C161 C 0.66524 0.65363 0.85431 0.0
C162 C 0.70104 0.68169 0.94032 0.0
H163 H 0.62529 0.65717 0.70734 0.0
H164 H 0.65715 0.61535 0.83229 0.0
S165 S 0.74021 0.81405 0.03156 0.0
N166 N 0.70454 0.80454 0.91766 0.0
N167 N 0.74061 0.76002 0.05235 0.0
C168 C 0.70997 0.7311 0.96569 0.0
C169 C 0.69034 0.75509 0.89329 0.0
C170 C 0.00078 0.65722 0.16645 0.0
C171 C 0.00244 0.6769 0.27585 0.0
C172 C 0.9596 0.6456 0.09306 0.0
C173 C 0.9182 0.65172 0.12789 0.0
H174 H 0.03399 0.65646 0.1323 0.0
H175 H 0.96262 0.63662 0.00544 0.0
S176 S 0.89807 0.6897 0.41323 0.0
N177 N 0.9547 0.69298 0.42133 0.0
N178 N 0.87684 0.67004 0.28331 0.0
C179 C 0.916 0.66445 0.24121 0.0
C180 C 0.95823 0.67709 0.31559 0.0
C181 C 0.28544 0.98358 0.56315 0.0
C182 C 0.27653 0.02425 0.54067 0.0
C183 C 0.25771 0.93653 0.50471 0.0
C184 C 0.22086 0.92924 0.42135 0.0
H185 H 0.31273 0.98765 0.62807 0.0
H186 H 0.26428 0.90541 0.52691 0.0
S187 S 0.18958 0.02751 0.32143 0.0
N188 N 0.23237 0.05622 0.42293 0.0
N189 N 0.1814 0.96927 0.31256 0.0
C190 C 0.21406 0.97102 0.39464 0.0
C191 C 0.24164 0.01815 0.4544 0.0
C192 C 0.20408 0.37069 0.51564 0.0
C193 C 0.19347 0.39925 0.59452 0.0
C194 C 0.21859 0.38798 0.40453 0.0
C195 C 0.22294 0.43441 0.36833 0.0
H196 H 0.20292 0.33559 0.54095 0.0
H197 H 0.22731 0.36518 0.34723 0.0
S198 S 0.19312 0.52006 0.5396 0.0
N199 N 0.18426 0.47384 0.62749 0.0
N200 N 0.21069 0.50622 0.41796 0.0
C201 C 0.21005 0.46211 0.44525 0.0
C202 C 0.19557 0.44457 0.5586 0.0
C203 C 0.83164 0.26525 0.91994 0.0
C204 C 0.8111 0.21331 0.94662 0.0
C205 C 0.834 0.28084 0.80815 0.0
C206 C 0.81642 0.24483 0.71965 0.0
H207 H 0.84642 0.29411 -0.01398 0.0
H208 H 0.84919 0.32122 0.79113 0.0
S209 S 0.7583 0.10376 0.74829 0.0
N210 N 0.77305 0.12588 0.87894 0.0
N211 N 0.77694 0.1545 0.66676 0.0
C212 C 0.79663 0.1926 0.74552 0.0
C213 C 0.79421 0.17696 0.8598 0.0
C214 C 0.57346 0.81192 0.20471 0.0
C215 C 0.58212 0.77285 0.24385 0.0
C216 C 0.5622 0.8143 0.09074 0.0
C217 C 0.55913 0.77748 0.0137 0.0
H218 H 0.57642 0.84139 0.26221 0.0
H219 H 0.55545 0.84468 0.06301 0.0
S220 S 0.57971 0.66843 0.07379 0.0
N221 N 0.58826 0.69761 0.19715 0.0
N222 N 0.56633 0.7016 -0.01735 0.0
C223 C 0.56815 0.73858 0.0516 0.0
C224 C 0.58005 0.73644 0.1671 0.0
C225 C 0.77113 0.61654 0.52794 0.0
C226 C 0.78754 0.58993 0.59833 0.0
C227 C 0.75494 0.59998 0.41695 0.0
C228 C 0.75439 0.5562 0.37444 0.0
H229 H 0.76916 0.64925 0.5601 0.0
H230 H 0.74151 0.6206 0.3653 0.0
S231 S 0.80184 0.47874 0.51913 0.0
N232 N 0.80785 0.52169 0.61447 0.0
N233 N 0.7776 0.4905 0.40513 0.0
C234 C 0.77352 0.53114 0.44186 0.0
C235 C 0.79002 0.54802 0.55447 0.0
C236 C 0.22343 0.76087 0.79925 0.0
C237 C 0.18159 0.74553 0.72469 0.0
C238 C 0.21999 0.77216 0.91283 0.0
C239 C 0.17449 0.76838 0.95629 0.0
H240 H 0.25929 0.76428 0.76971 0.0
H241 H 0.25301 0.78321 0.96726 0.0
S242 S 0.05373 0.72953 0.79574 0.0
N243 N 0.09348 0.72753 0.70153 0.0
N244 N 0.08649 0.7481 0.91545 0.0
C245 C 0.13254 0.7538 0.88209 0.0
C246 C 0.13621 0.74252 0.76619 0.0
C247 C 0.43871 0.23107 0.20702 0.0
C248 C 0.39036 0.19339 0.24715 0.0
C249 C 0.45342 0.22999 0.09516 0.0
C250 C 0.42045 0.19089 0.0198 0.0
H251 H 0.46536 0.26162 0.26245 0.0
H252 H 0.49082 0.2604 0.06746 0.0
S253 S 0.29125 0.08088 0.08674 0.0
N254 N 0.31043 0.11442 0.20538 0.0
N255 N 0.3382 0.11242 -0.00534 0.0
C256 C 0.37218 0.15262 0.05933 0.0
C257 C 0.3571 0.15386 0.1732 0.0
C258 C 0.13196 0.50618 0.16697 0.0
C259 C 0.14611 0.52306 0.05478 0.0
C260 C 0.13034 0.53896 0.24919 0.0
C261 C 0.14169 0.5889 0.22096 0.0
H262 H 0.1301 0.47111 0.19541 0.0
H263 H 0.12643 0.52747 0.3371 0.0
S264 S 0.15834 0.6411 0.93077 0.0
N265 N 0.15553 0.58536 0.91371 0.0
N266 N 0.15108 0.64676 0.06779 0.0
C267 C 0.14467 0.60141 0.10561 0.0
C268 C 0.14705 0.56826 0.02217 0.0
C269 C 0.61044 0.13262 0.48795 0.0
C270 C 0.62433 0.16455 0.39257 0.0
C271 C 0.56567 0.12081 0.54935 0.0
C272 C 0.53381 0.14053 0.51637 0.0
H273 H 0.63795 0.12357 0.52528 0.0
H274 H 0.56051 0.10318 0.63176 0.0
S275 S 0.54441 0.20939 0.24978 0.0
N276 N 0.59632 0.20347 0.25131 0.0
N277 N 0.51137 0.18009 0.3647 0.0
C278 C 0.54177 0.16283 0.40856 0.0
C279 C 0.58774 0.17557 0.34722 0.0
C280 C 0.43588 0.58079 0.88354 0.0
C281 C 0.38354 0.54779 0.85761 0.0
C282 C 0.47031 0.61339 0.80103 0.0
C283 C 0.45271 0.61576 0.6922 0.0
H284 H 0.449 0.58553 0.97051 0.0
H285 H 0.50871 0.64178 0.82726 0.0
S286 S 0.32493 0.52474 0.5726 0.0
N287 N 0.31992 0.50893 0.70769 0.0
N288 N 0.38441 0.5724 0.55425 0.0
C289 C 0.40335 0.57661 0.66048 0.0
C290 C 0.36857 0.54223 0.74348 0.0
C291 C 0.86066 0.43361 0.17389 0.0
C292 C 0.83144 0.37964 0.17312 0.0
C293 C 0.85024 0.46255 0.09666 0.0
C294 C 0.80986 0.43792 0.01802 0.0
H295 H 0.88622 0.45343 0.24425 0.0
H296 H 0.86792 0.50347 0.11128 0.0
S297 S 0.73394 0.29851 0.95952 0.0
N298 N 0.76908 0.30352 0.07156 0.0
N299 N 0.75163 0.35789 0.92263 0.0
C300 C 0.78855 0.38478 0.00156 0.0
C301 C 0.79849 0.35533 0.08116 0.0
C302 C 0.36701 0.84402 0.50986 0.0
C303 C 0.36136 0.82517 0.39861 0.0
C304 C 0.40764 0.84929 0.57837 0.0
C305 C 0.44392 0.83643 0.53711 0.0
H306 H 0.33617 0.84738 0.54949 0.0
H307 H 0.40655 0.85673 0.66787 0.0
S308 S 0.45468 0.80218 0.24092 0.0
N309 N 0.40197 0.80661 0.24219 0.0
N310 N 0.47862 0.8169 0.37034 0.0
C311 C 0.44401 0.82731 0.4204 0.0
C312 C 0.40242 0.82154 0.35104 0.0
C313 C 0.54116 0.41365 0.86276 0.0
C314 C 0.59477 0.4453 0.84772 0.0
C315 C 0.51165 0.37399 0.78604 0.0
C316 C 0.53521 0.36483 0.69271 0.0
H317 H 0.52333 0.41494 0.9417 0.0
H318 H 0.47221 0.34648 0.80886 0.0
S319 S 0.66931 0.44777 0.5954 0.0
N320 N 0.66658 0.47351 0.71697 0.0
N321 N 0.61098 0.39876 0.57294 0.0
C322 C 0.58609 0.40211 0.66593 0.0
C323 C 0.61605 0.44271 0.74357 0.0
loop_
_geom_bond_atom_site_label_1
_geom_bond_atom_site_label_2
_geom_bond_distance
_geom_bond_site_symmetry_2
_ccdc_geom_bond_type
O0 Mg1 1.990 . S
O0 C14 1.253 . S
Mg1 O0 1.990 . S
Mg1 O4 2.180 1_556 S
Mg1 O5 2.117 . S
Mg1 O19 2.030 . S
O2 Mg3 2.072 1_556 S
O2 C14 1.260 . S
Mg3 O2 2.072 1_554 S
Mg3 O4 2.099 . S
Mg3 O6 2.079 . S
Mg3 O7 2.072 . S
Mg3 O9 2.099 . S
Mg3 O20 2.079 1_554 S
O4 Mg1 2.180 1_554 S
O4 Mg3 2.099 . S
O4 C15 1.279 . S
O5 Mg1 2.117 . S
O5 C15 1.250 1_556 S
O6 Mg3 2.079 . S
O6 C16 1.264 . S
O7 Mg3 2.072 . S
O7 C17 1.260 . S
Mg8 O9 2.180 . S
Mg8 O10 2.030 . S
Mg8 O11 1.990 . S
Mg8 O12 2.113 1_554 S
O9 Mg3 2.099 . S
O9 Mg8 2.180 . S
O9 C18 1.279 1_554 S
O10 Mg8 2.030 . S
O10 C16 1.248 . S
O11 Mg8 1.990 . S
O11 C17 1.253 . S
O12 Mg8 2.113 1_556 S
O12 C18 1.252 . S
C13 O19 1.248 . S
C13 O20 1.264 . S
C14 O0 1.253 . S
C14 O2 1.260 . S
C15 O4 1.279 . S
C15 O5 1.250 1_554 S
C16 O6 1.264 . S
C16 O10 1.248 . S
C17 O7 1.260 . S
C17 O11 1.253 . S
C18 O9 1.279 1_556 S
C18 O12 1.252 . S
O19 Mg1 2.030 . S
O19 C13 1.248 . S
O20 Mg3 2.079 1_556 S
O20 C13 1.264 . S
O21 Mg22 1.990 . S
O21 C35 1.253 . S
Mg22 O21 1.990 . S
Mg22 O25 2.180 . S
Mg22 O26 2.117 . S
Mg22 O40 2.030 . S
O23 Mg24 2.072 . S
O23 C35 1.260 . S
Mg24 O23 2.072 . S
Mg24 O25 2.099 . S
Mg24 O27 2.079 . S
Mg24 O28 2.072 . S
Mg24 O30 2.099 . S
Mg24 O41 2.079 . S
O25 Mg22 2.180 . S
O25 Mg24 2.099 . S
O25 C36 1.279 . S
O26 Mg22 2.117 . S
O26 C36 1.250 . S
O27 Mg24 2.079 . S
O27 C37 1.264 . S
O28 Mg24 2.072 . S
O28 C38 1.260 . S
Mg29 O30 2.180 . S
Mg29 O31 2.030 . S
Mg29 O32 1.990 . S
Mg29 O33 2.117 . S
O30 Mg24 2.099 . S
O30 Mg29 2.180 . S
O30 C39 1.279 . S
O31 Mg29 2.030 . S
O31 C37 1.248 . S
O32 Mg29 1.990 . S
O32 C38 1.253 . S
O33 Mg29 2.117 . S
O33 C39 1.250 . S
C34 O40 1.248 . S
C34 O41 1.264 . S
C35 O21 1.253 . S
C35 O23 1.260 . S
C36 O25 1.279 . S
C36 O26 1.250 . S
C37 O27 1.264 . S
C37 O31 1.248 . S
C38 O28 1.260 . S
C38 O32 1.253 . S
C39 O30 1.279 . S
C39 O33 1.250 . S
O40 Mg22 2.030 . S
O40 C34 1.248 . S
O41 Mg24 2.079 . S
O41 C34 1.264 . S
O42 Mg43 1.990 . S
O42 C56 1.253 . S
Mg43 O42 1.990 . S
Mg43 O46 2.180 . S
Mg43 O47 2.117 . S
Mg43 O61 2.030 . S
O44 Mg45 2.072 . S
O44 C56 1.260 . S
Mg45 O44 2.072 . S
Mg45 O46 2.099 . S
Mg45 O48 2.079 . S
Mg45 O49 2.072 . S
Mg45 O51 2.099 . S
Mg45 O62 2.079 . S
O46 Mg43 2.180 . S
O46 Mg45 2.099 . S
O46 C57 1.279 . S
O47 Mg43 2.117 . S
O47 C57 1.250 . S
O48 Mg45 2.079 . S
O48 C58 1.264 . S
O49 Mg45 2.072 . S
O49 C59 1.260 . S
Mg50 O51 2.180 . S
Mg50 O52 2.030 . S
Mg50 O53 1.990 . S
Mg50 O54 2.117 . S
O51 Mg45 2.099 . S
O51 Mg50 2.180 . S
O51 C60 1.279 . S
O52 Mg50 2.030 . S
O52 C58 1.248 . S
O53 Mg50 1.990 . S
O53 C59 1.253 . S
O54 Mg50 2.117 . S
O54 C60 1.250 . S
C55 O61 1.248 . S
C55 O62 1.264 . S
C56 O42 1.253 . S
C56 O44 1.260 . S
C57 O46 1.279 . S
C57 O47 1.250 . S
C58 O48 1.264 . S
C58 O52 1.248 . S
C59 O49 1.260 . S
C59 O53 1.253 . S
C60 O51 1.279 . S
C60 O54 1.250 . S
O61 Mg43 2.030 . S
O61 C55 1.248 . S
O62 Mg45 2.079 . S
O62 C55 1.264 . S
O63 Mg64 1.990 . S
O63 C77 1.253 . S
Mg64 O63 1.990 . S
Mg64 O67 2.180 1_556 S
Mg64 O68 2.117 . S
Mg64 O82 2.030 . S
O65 Mg66 2.072 1_556 S
O65 C77 1.260 . S
Mg66 O65 2.072 1_554 S
Mg66 O67 2.099 . S
Mg66 O69 2.079 . S
Mg66 O70 2.072 . S
Mg66 O72 2.099 . S
Mg66 O83 2.079 1_554 S
O67 Mg64 2.180 1_554 S
O67 Mg66 2.099 . S
O67 C78 1.279 . S
O68 Mg64 2.117 . S
O68 C78 1.250 1_556 S
O69 Mg66 2.079 . S
O69 C79 1.264 . S
O70 Mg66 2.072 . S
O70 C80 1.260 . S
Mg71 O72 2.180 . S
Mg71 O73 2.030 . S
Mg71 O74 1.990 . S
Mg71 O75 2.113 1_554 S
O72 Mg66 2.099 . S
O72 Mg71 2.180 . S
O72 C81 1.279 1_554 S
O73 Mg71 2.030 . S
O73 C79 1.248 . S
O74 Mg71 1.990 . S
O74 C80 1.253 . S
O75 Mg71 2.113 1_556 S
O75 C81 1.252 . S
C76 O82 1.248 . S
C76 O83 1.264 . S
C77 O63 1.253 . S
C77 O65 1.260 . S
C78 O67 1.279 . S
C78 O68 1.250 1_554 S
C79 O69 1.264 . S
C79 O73 1.248 . S
C80 O70 1.260 . S
C80 O74 1.253 . S
C81 O72 1.279 1_556 S
C81 O75 1.252 . S
O82 Mg64 2.030 . S
O82 C76 1.248 . S
O83 Mg66 2.079 1_556 S
O83 C76 1.264 . S
O84 Mg85 1.990 . S
O84 C98 1.253 . S
Mg85 O84 1.990 . S
Mg85 O88 2.180 . S
Mg85 O89 2.117 . S
Mg85 O103 2.030 . S
O86 Mg87 2.072 . S
O86 C98 1.260 . S
Mg87 O86 2.072 . S
Mg87 O88 2.099 . S
Mg87 O90 2.079 . S
Mg87 O91 2.072 . S
Mg87 O93 2.099 . S
Mg87 O104 2.079 . S
O88 Mg85 2.180 . S
O88 Mg87 2.099 . S
O88 C99 1.279 . S
O89 Mg85 2.117 . S
O89 C99 1.250 . S
O90 Mg87 2.079 . S
O90 C100 1.264 . S
O91 Mg87 2.072 . S
O91 C101 1.260 . S
Mg92 O93 2.180 . S
Mg92 O94 2.030 . S
Mg92 O95 1.990 . S
Mg92 O96 2.117 . S
O93 Mg87 2.099 . S
O93 Mg92 2.180 . S
O93 C102 1.279 . S
O94 Mg92 2.030 . S
O94 C100 1.248 . S
O95 Mg92 1.990 . S
O95 C101 1.253 . S
O96 Mg92 2.117 . S
O96 C102 1.250 . S
C97 O103 1.248 . S
C97 O104 1.264 . S
C98 O84 1.253 . S
C98 O86 1.260 . S
C99 O88 1.279 . S
C99 O89 1.250 . S
C100 O90 1.264 . S
C100 O94 1.248 . S
C101 O91 1.260 . S
C101 O95 1.253 . S
C102 O93 1.279 . S
C102 O96 1.250 . S
O103 Mg85 2.030 . S
O103 C97 1.248 . S
O104 Mg87 2.079 . S
O104 C97 1.264 . S
O105 Mg106 1.990 . S
O105 C119 1.253 . S
Mg106 O105 1.990 . S
Mg106 O109 2.180 . S
Mg106 O110 2.117 . S
Mg106 O124 2.030 . S
O107 Mg108 2.072 . S
O107 C119 1.260 . S
Mg108 O107 2.072 . S
Mg108 O109 2.099 . S
Mg108 O111 2.079 . S
Mg108 O112 2.072 . S
Mg108 O114 2.099 . S
Mg108 O125 2.079 . S
O109 Mg106 2.180 . S
O109 Mg108 2.099 . S
O109 C120 1.279 . S
O110 Mg106 2.117 . S
O110 C120 1.250 . S
O111 Mg108 2.079 . S
O111 C121 1.264 . S
O112 Mg108 2.072 . S
O112 C122 1.260 . S
Mg113 O114 2.180 . S
Mg113 O115 2.030 . S
Mg113 O116 1.990 . S
Mg113 O117 2.117 . S
O114 Mg108 2.099 . S
O114 Mg113 2.180 . S
O114 C123 1.279 . S
O115 Mg113 2.030 . S
O115 C121 1.248 . S
O116 Mg113 1.990 . S
O116 C122 1.253 . S
O117 Mg113 2.117 . S
O117 C123 1.250 . S
C118 O124 1.248 . S
C118 O125 1.264 . S
C119 O105 1.253 . S
C119 O107 1.260 . S
C120 O109 1.279 . S
C120 O110 1.250 . S
C121 O111 1.264 . S
C121 O115 1.248 . S
C122 O112 1.260 . S
C122 O116 1.253 . S
C123 O114 1.279 . S
C123 O117 1.250 . S
O124 Mg106 2.030 . S
O124 C118 1.248 . S
O125 Mg108 2.079 . S
O125 C118 1.264 . S
C126 C127 1.369 . S
C126 C128 1.419 . S
C126 H130 0.930 . S
C127 C126 1.369 . S
C127 C136 1.429 . S
C128 C126 1.419 . S
C128 C129 1.363 . S
C128 H131 0.929 . S
C129 C128 1.363 . S
C129 C135 1.428 . S
H130 C126 0.930 . S
H131 C128 0.929 . S
S132 N133 1.613 1_554 S
S132 N134 1.610 . S
N133 S132 1.613 1_556 S
N133 C136 1.350 . S
N134 S132 1.610 . S
N134 C135 1.351 1_554 S
C135 C129 1.428 . S
C135 N134 1.351 1_556 S
C135 C136 1.434 . S
C136 C127 1.429 . S
C136 N133 1.350 . S
C136 C135 1.434 . S
C137 C138 1.369 . S
C137 C139 1.419 . S
C137 H141 0.930 . S
C138 C137 1.369 . S
C138 C147 1.429 . S
C139 C137 1.419 . S
C139 C140 1.363 1_455 S
C139 H142 0.929 . S
C140 C139 1.363 1_655 S
C140 C146 1.428 . S
H141 C137 0.930 . S
H142 C139 0.929 . S
S143 N144 1.613 1_655 S
S143 N145 1.610 1_556 S
N144 S143 1.613 1_455 S
N144 C147 1.350 1_556 S
N145 S143 1.610 1_554 S
N145 C146 1.351 . S
C146 C140 1.428 . S
C146 N145 1.351 . S
C146 C147 1.434 1_655 S
C147 C138 1.429 . S
C147 N144 1.350 1_554 S
C147 C146 1.434 1_455 S
C148 C149 1.369 . S
C148 C150 1.411 1_545 S
C148 H152 0.930 . S
C149 C148 1.369 . S
C149 C158 1.429 . S
C150 C148 1.411 1_565 S
C150 C151 1.372 . S
C150 H153 0.928 . S
C151 C150 1.372 . S
C151 C157 1.428 . S
H152 C148 0.930 . S
H153 C150 0.928 . S
S154 N155 1.613 1_565 S
S154 N156 1.610 . S
N155 S154 1.613 1_545 S
N155 C158 1.350 . S
N156 S154 1.610 . S
N156 C157 1.351 . S
C157 C151 1.428 . S
C157 N156 1.351 . S
C157 C158 1.434 1_565 S
C158 C149 1.429 . S
C158 N155 1.350 . S
C158 C157 1.434 1_545 S
C159 C160 1.369 . S
C159 C161 1.419 . S
C159 H163 0.930 . S
C160 C159 1.369 . S
C160 C169 1.429 . S
C161 C159 1.419 . S
C161 C162 1.363 . S
C161 H164 0.929 . S
C162 C161 1.363 . S
C162 C168 1.428 . S
H163 C159 0.930 . S
H164 C161 0.929 . S
S165 N166 1.613 . S
S165 N167 1.610 . S
N166 S165 1.613 . S
N166 C169 1.350 . S
N167 S165 1.610 . S
N167 C168 1.351 . S
C168 C162 1.428 . S
C168 N167 1.351 . S
C168 C169 1.434 . S
C169 C160 1.429 . S
C169 N166 1.350 . S
C169 C168 1.434 . S
C170 C171 1.369 . S
C170 C172 1.419 1_455 S
C170 H174 0.930 . S
C171 C170 1.369 . S
C171 C180 1.429 . S
C172 C170 1.419 1_655 S
C172 C173 1.363 . S
C172 H175 0.929 . S
C173 C172 1.363 . S
C173 C179 1.428 . S
H174 C170 0.930 . S
H175 C172 0.929 . S
S176 N177 1.613 1_655 S
S176 N178 1.610 . S
N177 S176 1.613 1_455 S
N177 C180 1.350 . S
N178 S176 1.610 . S
N178 C179 1.351 . S
C179 C173 1.428 . S
C179 N178 1.351 . S
C179 C180 1.434 1_655 S
C180 C171 1.429 . S
C180 N177 1.350 . S
C180 C179 1.434 1_455 S
C181 C182 1.369 1_565 S
C181 C183 1.419 . S
C181 H185 0.930 1_565 S
C182 C181 1.369 1_545 S
C182 C191 1.429 . S
C183 C181 1.419 . S
C183 C184 1.363 . S
C183 H186 0.929 . S
C184 C183 1.363 . S
C184 C190 1.428 . S
H185 C181 0.930 1_545 S
H186 C183 0.929 . S
S187 N188 1.613 . S
S187 N189 1.610 1_545 S
N188 S187 1.613 . S
N188 C191 1.350 . S
N189 S187 1.610 1_565 S
N189 C190 1.351 . S
C190 C184 1.428 . S
C190 N189 1.351 . S
C190 C191 1.434 1_565 S
C191 C182 1.429 . S
C191 N188 1.350 . S
C191 C190 1.434 1_545 S
C192 C193 1.369 . S
C192 C194 1.419 . S
C192 H196 0.930 . S
C193 C192 1.369 . S
C193 C202 1.429 . S
C194 C192 1.419 . S
C194 C195 1.363 . S
C194 H197 0.929 . S
C195 C194 1.363 . S
C195 C201 1.428 . S
H196 C192 0.930 . S
H197 C194 0.929 . S
S198 N199 1.613 . S
S198 N200 1.610 . S
N199 S198 1.613 . S
N199 C202 1.350 . S
N200 S198 1.610 . S
N200 C201 1.351 . S
C201 C195 1.428 . S
C201 N200 1.351 . S
C201 C202 1.434 . S
C202 C193 1.429 . S
C202 N199 1.350 . S
C202 C201 1.434 . S
C203 C204 1.369 . S
C203 C205 1.419 . S
C203 H207 0.930 . S
C204 C203 1.369 . S
C204 C213 1.429 . S
C205 C203 1.419 . S
C205 C206 1.363 . S
C205 H208 0.929 . S
C206 C205 1.363 . S
C206 C212 1.428 . S
H207 C203 0.930 . S
H208 C205 0.929 . S
S209 N210 1.613 . S
S209 N211 1.610 . S
N210 S209 1.613 . S
N210 C213 1.350 . S
N211 S209 1.610 . S
N211 C212 1.351 . S
C212 C206 1.428 . S
C212 N211 1.351 . S
C212 C213 1.434 . S
C213 C204 1.429 . S
C213 N210 1.350 . S
C213 C212 1.434 . S
C214 C215 1.369 . S
C214 C216 1.419 . S
C214 H218 0.930 . S
C215 C214 1.369 . S
C215 C224 1.429 . S
C216 C214 1.419 . S
C216 C217 1.363 . S
C216 H219 0.929 . S
C217 C216 1.363 . S
C217 C223 1.428 . S
H218 C214 0.930 . S
H219 C216 0.929 . S
S220 N221 1.613 . S
S220 N222 1.610 . S
N221 S220 1.613 . S
N221 C224 1.350 . S
N222 S220 1.610 . S
N222 C223 1.351 . S
C223 C217 1.428 . S
C223 N222 1.351 . S
C223 C224 1.434 . S
C224 C215 1.429 . S
C224 N221 1.350 . S
C224 C223 1.434 . S
C225 C226 1.369 . S
C225 C227 1.419 . S
C225 H229 0.930 . S
C226 C225 1.369 . S
C226 C235 1.429 . S
C227 C225 1.419 . S
C227 C228 1.363 . S
C227 H230 0.929 . S
C228 C227 1.363 . S
C228 C234 1.428 . S
H229 C225 0.930 . S
H230 C227 0.929 . S
S231 N232 1.613 . S
S231 N233 1.610 . S
N232 S231 1.613 . S
N232 C235 1.350 . S
N233 S231 1.610 . S
N233 C234 1.351 . S
C234 C228 1.428 . S
C234 N233 1.351 . S
C234 C235 1.434 . S
C235 C226 1.429 . S
C235 N232 1.350 . S
C235 C234 1.434 . S
C236 C237 1.369 . S
C236 C238 1.419 . S
C236 H240 0.930 . S
C237 C236 1.369 . S
C237 C246 1.429 . S
C238 C236 1.419 . S
C238 C239 1.363 . S
C238 H241 0.929 . S
C239 C238 1.363 . S
C239 C245 1.428 . S
H240 C236 0.930 . S
H241 C238 0.929 . S
S242 N243 1.613 . S
S242 N244 1.610 1_556 S
N243 S242 1.613 . S
N243 C246 1.350 . S
N244 S242 1.610 1_554 S
N244 C245 1.351 1_554 S
C245 C239 1.428 . S
C245 N244 1.351 1_556 S
C245 C246 1.434 . S
C246 C237 1.429 . S
C246 N243 1.350 . S
C246 C245 1.434 . S
C247 C248 1.369 . S
C247 C249 1.419 . S
C247 H251 0.930 . S
C248 C247 1.369 . S
C248 C257 1.429 . S
C249 C247 1.419 . S
C249 C250 1.363 . S
C249 H252 0.929 . S
C250 C249 1.363 . S
C250 C256 1.428 . S
H251 C247 0.930 . S
H252 C249 0.929 . S
S253 N254 1.613 . S
S253 N255 1.610 . S
N254 S253 1.613 . S
N254 C257 1.350 . S
N255 S253 1.610 . S
N255 C256 1.351 . S
C256 C250 1.428 . S
C256 N255 1.351 . S
C256 C257 1.434 . S
C257 C248 1.429 . S
C257 N254 1.350 . S
C257 C256 1.434 . S
C258 C259 1.369 . S
C258 C260 1.419 . S
C258 H262 0.930 . S
C259 C258 1.369 . S
C259 C268 1.429 . S
C260 C258 1.419 . S
C260 C261 1.363 . S
C260 H263 0.929 . S
C261 C260 1.363 . S
C261 C267 1.428 . S
H262 C258 0.930 . S
H263 C260 0.929 . S
S264 N265 1.613 . S
S264 N266 1.610 1_556 S
N265 S264 1.613 . S
N265 C268 1.350 1_556 S
N266 S264 1.610 1_554 S
N266 C267 1.351 . S
C267 C261 1.428 . S
C267 N266 1.351 . S
C267 C268 1.434 . S
C268 C259 1.429 . S
C268 N265 1.350 1_554 S
C268 C267 1.434 . S
C269 C270 1.369 . S
C269 C271 1.419 . S
C269 H273 0.930 . S
C270 C269 1.369 . S
C270 C279 1.429 . S
C271 C269 1.419 . S
C271 C272 1.363 . S
C271 H274 0.929 . S
C272 C271 1.363 . S
C272 C278 1.428 . S
H273 C269 0.930 . S
H274 C271 0.929 . S
S275 N276 1.613 . S
S275 N277 1.610 . S
N276 S275 1.613 . S
N276 C279 1.350 . S
N277 S275 1.610 . S
N277 C278 1.351 . S
C278 C272 1.428 . S
C278 N277 1.351 . S
C278 C279 1.434 . S
C279 C270 1.429 . S
C279 N276 1.350 . S
C279 C278 1.434 . S
C280 C281 1.369 . S
C280 C282 1.419 . S
C280 H284 0.930 1_556 S
C281 C280 1.369 . S
C281 C290 1.429 . S
C282 C280 1.419 . S
C282 C283 1.363 . S
C282 H285 0.929 . S
C283 C282 1.363 . S
C283 C289 1.428 . S
H284 C280 0.930 1_554 S
H285 C282 0.929 . S
S286 N287 1.613 . S
S286 N288 1.610 . S
N287 S286 1.613 . S
N287 C290 1.350 . S
N288 S286 1.610 . S
N288 C289 1.351 . S
C289 C283 1.428 . S
C289 N288 1.351 . S
C289 C290 1.434 . S
C290 C281 1.429 . S
C290 N287 1.350 . S
C290 C289 1.434 . S
C291 C292 1.369 . S
C291 C293 1.419 . S
C291 H295 0.930 . S
C292 C291 1.369 . S
C292 C301 1.429 . S
C293 C291 1.419 . S
C293 C294 1.363 . S
C293 H296 0.929 . S
C294 C293 1.363 . S
C294 C300 1.428 . S
H295 C291 0.930 . S
H296 C293 0.929 . S
S297 N298 1.613 . S
S297 N299 1.610 . S
N298 S297 1.613 . S
N298 C301 1.350 . S
N299 S297 1.610 . S
N299 C300 1.351 . S
C300 C294 1.428 . S
C300 N299 1.351 . S
C300 C301 1.434 . S
C301 C292 1.429 . S
C301 N298 1.350 . S
C301 C300 1.434 . S
C302 C303 1.369 . S
C302 C304 1.419 . S
C302 H306 0.930 . S
C303 C302 1.369 . S
C303 C312 1.429 . S
C304 C302 1.419 . S
C304 C305 1.363 . S
C304 H307 0.929 . S
C305 C304 1.363 . S
C305 C311 1.428 . S
H306 C302 0.930 . S
H307 C304 0.929 . S
S308 N309 1.613 . S
S308 N310 1.610 . S
N309 S308 1.613 . S
N309 C312 1.350 . S
N310 S308 1.610 . S
N310 C311 1.351 . S
C311 C305 1.428 . S
C311 N310 1.351 . S
C311 C312 1.434 . S
C312 C303 1.429 . S
C312 N309 1.350 . S
C312 C311 1.434 . S
C313 C314 1.369 . S
C313 C315 1.419 . S
C313 H317 0.930 . S
C314 C313 1.369 . S
C314 C323 1.429 . S
C315 C313 1.419 . S
C315 C316 1.363 . S
C315 H318 0.929 . S
C316 C315 1.363 . S
C316 C322 1.428 . S
H317 C313 0.930 . S
H318 C315 0.929 . S
S319 N320 1.613 . S
S319 N321 1.610 . S
N320 S319 1.613 . S
N320 C323 1.350 . S
N321 S319 1.610 . S
N321 C322 1.351 . S
C322 C316 1.428 . S
C322 N321 1.351 . S
C322 C323 1.434 . S
C323 C314 1.429 . S
C323 N320 1.350 . S
C323 C322 1.434 . S
C127 C120 1.407 . S
C129 C13 1.474 . S
C138 C15 1.400 . S
C140 C34 1.469 . S
C149 C36 1.399 . S
C151 C55 1.469 . S
C160 C57 1.400 . S
C162 C76 1.470 . S
C171 C97 1.473 . S
C173 C78 1.405 . S
C182 C118 1.468 . S
C184 C99 1.400 . S
C193 C14 1.299 . S
C195 C16 1.273 . S
C204 C35 1.293 1_556 S
C206 C37 1.279 . S
C215 C56 1.297 . S
C217 C58 1.274 1_554 S
C226 C77 1.299 . S
C228 C79 1.273 . S
C237 C100 1.282 . S
C239 C98 1.294 1_556 S
C248 C119 1.292 . S
C250 C121 1.281 1_554 S
C259 C17 1.374 . S
C261 C102 1.271 . S
C270 C38 1.372 . S
C272 C123 1.270 . S
C281 C18 1.273 . S
C283 C59 1.375 . S
C292 C39 1.257 . S
C294 C80 1.367 . S
C303 C101 1.374 . S
C305 C60 1.271 . S
C314 C81 1.258 . S
C316 C122 1.367 . S
