# Generated by pormake.
# Topology whz, (6)-cn, num edge types: 1
# Building blocks:
#     Node 0, Type 0, BuildingBlock: FUNLAD_clean_sbu_0, # of connection points: 6
#     Node 1, Type 0, BuildingBlock: FUNLAD_clean_sbu_0, # of connection points: 6
#     Node 2, Type 0, BuildingBlock: FUNLAD_clean_sbu_0, # of connection points: 6
#     Node 3, Type 0, BuildingBlock: FUNLAD_clean_sbu_0, # of connection points: 6
#     Node 4, Type 0, BuildingBlock: FUNLAD_clean_sbu_0, # of connection points: 6
#     Node 5, Type 0, BuildingBlock: FUNLAD_clean_sbu_0, # of connection points: 6
#     Node 6, Type 0, BuildingBlock: FUNLAD_clean_sbu_0, # of connection points: 6
#     Node 7, Type 0, BuildingBlock: FUNLAD_clean_sbu_0, # of connection points: 6
#     Node 8, Type 0, BuildingBlock: FUNLAD_clean_sbu_0, # of connection points: 6
#     Node 9, Type 0, BuildingBlock: FUNLAD_clean_sbu_0, # of connection points: 6
#     Node 10, Type 0, BuildingBlock: FUNLAD_clean_sbu_0, # of connection points: 6
#     Node 11, Type 0, BuildingBlock: FUNLAD_clean_sbu_0, # of connection points: 6
#     Node 12, Type 0, BuildingBlock: FUNLAD_clean_sbu_0, # of connection points: 6
#     Node 13, Type 0, BuildingBlock: FUNLAD_clean_sbu_0, # of connection points: 6
#     Node 14, Type 0, BuildingBlock: FUNLAD_clean_sbu_0, # of connection points: 6
#     Node 15, Type 0, BuildingBlock: FUNLAD_clean_sbu_0, # of connection points: 6
#     Edge 16, Type (0, 0), BuildingBlock: UVAHIK_clean_linker_0, # of connection points: 2
#     Edge 17, Type (0, 0), BuildingBlock: UVAHIK_clean_linker_0, # of connection points: 2
#     Edge 18, Type (0, 0), BuildingBlock: UVAHIK_clean_linker_0, # of connection points: 2
#     Edge 19, Type (0, 0), BuildingBlock: UVAHIK_clean_linker_0, # of connection points: 2
#     Edge 20, Type (0, 0), BuildingBlock: UVAHIK_clean_linker_0, # of connection points: 2
#     Edge 21, Type (0, 0), BuildingBlock: UVAHIK_clean_linker_0, # of connection points: 2
#     Edge 22, Type (0, 0), BuildingBlock: UVAHIK_clean_linker_0, # of connection points: 2
#     Edge 23, Type (0, 0), BuildingBlock: UVAHIK_clean_linker_0, # of connection points: 2
#     Edge 24, Type (0, 0), BuildingBlock: UVAHIK_clean_linker_0, # of connection points: 2
#     Edge 25, Type (0, 0), BuildingBlock: UVAHIK_clean_linker_0, # of connection points: 2
#     Edge 26, Type (0, 0), BuildingBlock: UVAHIK_clean_linker_0, # of connection points: 2
#     Edge 27, Type (0, 0), BuildingBlock: UVAHIK_clean_linker_0, # of connection points: 2
#     Edge 28, Type (0, 0), BuildingBlock: UVAHIK_clean_linker_0, # of connection points: 2
#     Edge 29, Type (0, 0), BuildingBlock: UVAHIK_clean_linker_0, # of connection points: 2
#     Edge 30, Type (0, 0), BuildingBlock: UVAHIK_clean_linker_0, # of connection points: 2
#     Edge 31, Type (0, 0), BuildingBlock: UVAHIK_clean_linker_0, # of connection points: 2
#     Edge 32, Type (0, 0), BuildingBlock: UVAHIK_clean_linker_0, # of connection points: 2
#     Edge 33, Type (0, 0), BuildingBlock: UVAHIK_clean_linker_0, # of connection points: 2
#     Edge 34, Type (0, 0), BuildingBlock: UVAHIK_clean_linker_0, # of connection points: 2
#     Edge 35, Type (0, 0), BuildingBlock: UVAHIK_clean_linker_0, # of connection points: 2
#     Edge 36, Type (0, 0), BuildingBlock: UVAHIK_clean_linker_0, # of connection points: 2
#     Edge 37, Type (0, 0), BuildingBlock: UVAHIK_clean_linker_0, # of connection points: 2
#     Edge 38, Type (0, 0), BuildingBlock: UVAHIK_clean_linker_0, # of connection points: 2
#     Edge 39, Type (0, 0), BuildingBlock: UVAHIK_clean_linker_0, # of connection points: 2
#     Edge 40, Type (0, 0), BuildingBlock: UVAHIK_clean_linker_0, # of connection points: 2
#     Edge 41, Type (0, 0), BuildingBlock: UVAHIK_clean_linker_0, # of connection points: 2
#     Edge 42, Type (0, 0), BuildingBlock: UVAHIK_clean_linker_0, # of connection points: 2
#     Edge 43, Type (0, 0), BuildingBlock: UVAHIK_clean_linker_0, # of connection points: 2
#     Edge 44, Type (0, 0), BuildingBlock: UVAHIK_clean_linker_0, # of connection points: 2
#     Edge 45, Type (0, 0), BuildingBlock: UVAHIK_clean_linker_0, # of connection points: 2
#     Edge 46, Type (0, 0), BuildingBlock: UVAHIK_clean_linker_0, # of connection points: 2
#     Edge 47, Type (0, 0), BuildingBlock: UVAHIK_clean_linker_0, # of connection points: 2
#     Edge 48, Type (0, 0), BuildingBlock: UVAHIK_clean_linker_0, # of connection points: 2
#     Edge 49, Type (0, 0), BuildingBlock: UVAHIK_clean_linker_0, # of connection points: 2
#     Edge 50, Type (0, 0), BuildingBlock: UVAHIK_clean_linker_0, # of connection points: 2
#     Edge 51, Type (0, 0), BuildingBlock: UVAHIK_clean_linker_0, # of connection points: 2
#     Edge 52, Type (0, 0), BuildingBlock: UVAHIK_clean_linker_0, # of connection points: 2
#     Edge 53, Type (0, 0), BuildingBlock: UVAHIK_clean_linker_0, # of connection points: 2
#     Edge 54, Type (0, 0), BuildingBlock: UVAHIK_clean_linker_0, # of connection points: 2
#     Edge 55, Type (0, 0), BuildingBlock: UVAHIK_clean_linker_0, # of connection points: 2
#     Edge 56, Type (0, 0), BuildingBlock: UVAHIK_clean_linker_0, # of connection points: 2
#     Edge 57, Type (0, 0), BuildingBlock: UVAHIK_clean_linker_0, # of connection points: 2
#     Edge 58, Type (0, 0), BuildingBlock: UVAHIK_clean_linker_0, # of connection points: 2
#     Edge 59, Type (0, 0), BuildingBlock: UVAHIK_clean_linker_0, # of connection points: 2
#     Edge 60, Type (0, 0), BuildingBlock: UVAHIK_clean_linker_0, # of connection points: 2
#     Edge 61, Type (0, 0), BuildingBlock: UVAHIK_clean_linker_0, # of connection points: 2
#     Edge 62, Type (0, 0), BuildingBlock: UVAHIK_clean_linker_0, # of connection points: 2
#     Edge 63, Type (0, 0), BuildingBlock: UVAHIK_clean_linker_0, # of connection points: 2
# Relax obj value: 0.634
# Max RMSD: 0.286
# Mean RMSD: 0.286
data_MOF--net-whz--node1-FUNLAD_clean_sbu_0--edge1-UVAHIK_clean_linker_0
_symmetry_space_group_name_H-M    P1
_symmetry_Int_Tables_number       1
_symmetry_cell_setting            triclinic
loop_
_symmetry_equiv_pos_as_xyz
'x, y, z'
_cell_length_a     47.591427
_cell_length_b     47.607546
_cell_length_c     70.733842
_cell_angle_alpha  89.992554
_cell_angle_beta   90.009082
_cell_angle_gamma 90.01607
loop_
_atom_site_label
_atom_site_type_symbol
_atom_site_fract_x
_atom_site_fract_y
_atom_site_fract_z
_atom_type_partial_charge
C0 C 0.32207 0.12526 0.09913 0.0
N1 N 0.28412 0.20188 0.11272 0.0
C2 C 0.29711 0.21583 0.09837 0.0
C3 C 0.2847 0.23984 0.09054 0.0
C4 C 0.25866 0.2492 0.0975 0.0
C5 C 0.24564 0.23397 0.11202 0.0
C6 C 0.25876 0.21043 0.11946 0.0
Zn7 Zn 0.30144 0.16827 0.1262 0.0
C8 C 0.2588 0.12444 0.1342 0.0
N9 N 0.33459 0.09737 0.15608 0.0
C10 C 0.35972 0.08422 0.15341 0.0
C11 C 0.31652 0.08866 0.16981 0.0
C12 C 0.32287 0.06571 0.18111 0.0
C13 C 0.34845 0.05178 0.17875 0.0
C14 C 0.3673 0.06132 0.16488 0.0
Zn15 Zn 0.32024 0.1313 0.14082 0.0
O16 O 0.31048 0.14915 0.1006 0.0
C17 C 0.36305 0.17498 0.13321 0.0
O18 O 0.3288 0.11148 0.11393 0.0
H19 H 0.297 0.09966 0.17223 0.0
H20 H 0.3173 0.20867 0.09327 0.0
H21 H 0.37391 0.09159 0.14254 0.0
O22 O 0.3417 0.18726 0.12619 0.0
O23 O 0.36037 0.15062 0.14046 0.0
H24 H 0.2489 0.19941 0.13105 0.0
O25 O 0.31059 0.15229 0.16735 0.0
O26 O 0.29285 0.18761 0.1516 0.0
O27 O 0.28049 0.11253 0.14068 0.0
O28 O 0.26106 0.14859 0.12679 0.0
C29 C 0.29875 0.17626 0.16725 0.0
H30 H 0.29543 0.25111 0.07937 0.0
H31 H 0.22597 0.24082 0.11819 0.0
H32 H 0.30815 0.0593 0.19199 0.0
H33 H 0.38745 0.05117 0.16293 0.0
C34 C 0.61906 0.56802 0.35225 0.0
N35 N 0.54017 0.53539 0.3659 0.0
C36 C 0.52731 0.5478 0.35086 0.0
C37 C 0.50393 0.53501 0.34241 0.0
C38 C 0.49432 0.50911 0.3494 0.0
C39 C 0.50805 0.49697 0.36488 0.0
C40 C 0.53081 0.51054 0.37299 0.0
Zn41 Zn 0.57422 0.5519 0.3794 0.0
C42 C 0.61521 0.50773 0.38952 0.0
N43 N 0.64664 0.5825 0.40911 0.0
C44 C 0.66592 0.60214 0.40376 0.0
C45 C 0.6509 0.56648 0.42481 0.0
C46 C 0.67521 0.56915 0.43545 0.0
C47 C 0.69593 0.58838 0.43004 0.0
C48 C 0.69087 0.60562 0.41422 0.0
Zn49 Zn 0.61173 0.57005 0.39386 0.0
O50 O 0.59427 0.55854 0.35384 0.0
C51 C 0.57072 0.61432 0.38434 0.0
O52 O 0.63311 0.57451 0.36699 0.0
H53 H 0.63593 0.55053 0.42883 0.0
H54 H 0.53507 0.56762 0.3455 0.0
H55 H 0.6624 0.61446 0.39113 0.0
O56 O 0.55745 0.59288 0.37828 0.0
O57 O 0.59517 0.61136 0.39148 0.0
H58 H 0.54086 0.50118 0.38515 0.0
O59 O 0.58879 0.56458 0.42016 0.0
O60 O 0.55378 0.54562 0.40476 0.0
O61 O 0.62762 0.52917 0.39595 0.0
O62 O 0.59188 0.51074 0.38112 0.0
C63 C 0.56464 0.55315 0.42025 0.0
H64 H 0.49359 0.54508 0.33057 0.0
H65 H 0.50078 0.47742 0.37102 0.0
H66 H 0.6779 0.55587 0.44776 0.0
H67 H 0.70636 0.62084 0.40966 0.0
C68 C 0.17223 0.86933 0.60083 0.0
N69 N 0.21157 0.79352 0.61431 0.0
C70 C 0.19843 0.77921 0.60019 0.0
C71 C 0.21091 0.75521 0.59242 0.0
C72 C 0.23715 0.74617 0.59924 0.0
C73 C 0.25038 0.76185 0.61347 0.0
C74 C 0.23719 0.78542 0.62083 0.0
Zn75 Zn 0.19381 0.82685 0.6278 0.0
C76 C 0.23539 0.87148 0.63575 0.0
N77 N 0.15929 0.89698 0.65763 0.0
C78 C 0.13505 0.91111 0.6538 0.0
C79 C 0.17669 0.90548 0.67181 0.0
C80 C 0.17068 0.92936 0.6823 0.0
C81 C 0.14619 0.94456 0.67857 0.0
C82 C 0.12785 0.93506 0.66437 0.0
Zn83 Zn 0.1741 0.86309 0.64262 0.0
O84 O 0.18395 0.8455 0.60219 0.0
C85 C 0.13219 0.8189 0.63496 0.0
O86 O 0.16564 0.88298 0.61571 0.0
H87 H 0.19567 0.89393 0.67492 0.0
H88 H 0.17804 0.78604 0.59524 0.0
H89 H 0.12148 0.90401 0.6425 0.0
O90 O 0.15388 0.80692 0.62816 0.0
O91 O 0.1343 0.84342 0.64202 0.0
H92 H 0.24718 0.79676 0.63223 0.0
O93 O 0.18365 0.84202 0.66915 0.0
O94 O 0.20335 0.80794 0.65325 0.0
O95 O 0.21352 0.88234 0.64276 0.0
O96 O 0.23375 0.84755 0.62794 0.0
C97 C 0.19666 0.81866 0.66896 0.0
H98 H 0.20002 0.74364 0.58146 0.0
H99 H 0.27023 0.7553 0.61952 0.0
H100 H 0.18501 0.93579 0.6934 0.0
H101 H 0.1086 0.94628 0.66129 0.0
C102 C 0.87583 0.42139 0.84934 0.0
N103 N 0.95384 0.4569 0.86245 0.0
C104 C 0.96795 0.44288 0.84861 0.0
C105 C 0.99236 0.45449 0.84074 0.0
C106 C 0.00189 0.48079 0.84709 0.0
C107 C 0.98653 0.49484 0.86109 0.0
C108 C 0.96266 0.48247 0.86863 0.0
Zn109 Zn 0.91967 0.44097 0.87613 0.0
C110 C 0.87754 0.4847 0.88419 0.0
N111 N 0.84771 0.41087 0.90652 0.0
C112 C 0.82939 0.38989 0.90201 0.0
C113 C 0.84268 0.42808 0.92152 0.0
C114 C 0.81858 0.42515 0.93234 0.0
C115 C 0.79884 0.40442 0.92782 0.0
C116 C 0.80468 0.38613 0.91267 0.0
Zn117 Zn 0.88251 0.42294 0.89105 0.0
O118 O 0.90037 0.43159 0.85067 0.0
C119 C 0.92447 0.37902 0.88349 0.0
O120 O 0.86173 0.41582 0.86423 0.0
H121 H 0.85697 0.44496 0.92489 0.0
H122 H 0.96061 0.42252 0.84396 0.0
H123 H 0.83355 0.37658 0.88994 0.0
O124 O 0.9374 0.40026 0.87683 0.0
O125 O 0.89985 0.38196 0.89031 0.0
H126 H 0.95162 0.49311 0.87989 0.0
O127 O 0.90487 0.43101 0.91731 0.0
O128 O 0.93931 0.45005 0.90141 0.0
O129 O 0.86575 0.4635 0.89146 0.0
O130 O 0.90103 0.48171 0.876 0.0
C131 C 0.92857 0.44335 0.9171 0.0
H132 H 0.00379 0.44295 0.83002 0.0
H133 H 0.99353 0.51476 0.86681 0.0
H134 H 0.81536 0.43929 0.94414 0.0
H135 H 0.78999 0.36974 0.90879 0.0
C136 C 0.69223 0.8191 0.83014 0.0
N137 N 0.65857 0.89821 0.84439 0.0
C138 C 0.67599 0.90699 0.83029 0.0
C139 C 0.67011 0.93112 0.82005 0.0
C140 C 0.64568 0.94634 0.82389 0.0
C141 C 0.62734 0.93666 0.83804 0.0
C142 C 0.63443 0.91243 0.84839 0.0
Zn143 Zn 0.67304 0.86308 0.85836 0.0
C144 C 0.63003 0.81942 0.86569 0.0
N145 N 0.70975 0.79054 0.88356 0.0
C146 C 0.73464 0.78222 0.87596 0.0
C147 C 0.69821 0.77679 0.89855 0.0
C148 C 0.71198 0.75356 0.90645 0.0
C149 C 0.7379 0.74496 0.89893 0.0
C150 C 0.74911 0.75956 0.88348 0.0
Zn151 Zn 0.69198 0.82484 0.87124 0.0
O152 O 0.68126 0.84346 0.83094 0.0
C153 C 0.73487 0.86866 0.86356 0.0
O154 O 0.69857 0.80668 0.84532 0.0
H155 H 0.67839 0.7838 0.90435 0.0
H156 H 0.69479 0.89531 0.82693 0.0
H157 H 0.74337 0.79311 0.86392 0.0
O158 O 0.71305 0.88148 0.85818 0.0
O159 O 0.73257 0.84393 0.87003 0.0
H160 H 0.62077 0.90507 0.85956 0.0
O161 O 0.68494 0.84258 0.89739 0.0
O162 O 0.66581 0.88121 0.88618 0.0
O163 O 0.65153 0.80647 0.87193 0.0
O164 O 0.63271 0.84413 0.859 0.0
C165 C 0.67349 0.86625 0.90026 0.0
H166 H 0.68441 0.93764 0.80896 0.0
H167 H 0.6081 0.94786 0.84119 0.0
H168 H 0.70263 0.7426 0.9183 0.0
H169 H 0.76866 0.75312 0.87693 0.0
C170 C 0.42455 0.44447 0.58404 0.0
N171 N 0.34674 0.40711 0.59595 0.0
C172 C 0.33737 0.42525 0.58246 0.0
C173 C 0.31424 0.41869 0.57138 0.0
C174 C 0.30081 0.39284 0.5737 0.0
C175 C 0.31101 0.37393 0.58732 0.0
C176 C 0.33407 0.38173 0.5986 0.0
Zn177 Zn 0.38089 0.42177 0.61084 0.0
C178 C 0.42546 0.37969 0.6175 0.0
N179 N 0.45176 0.45867 0.63824 0.0
C180 C 0.45947 0.48437 0.63162 0.0
C181 C 0.46682 0.44553 0.65201 0.0
C182 C 0.49112 0.45812 0.65931 0.0
C183 C 0.49966 0.48448 0.65241 0.0
C184 C 0.48328 0.49767 0.63854 0.0
Zn185 Zn 0.4179 0.44097 0.6252 0.0
O186 O 0.40091 0.43198 0.58414 0.0
C187 C 0.37302 0.48286 0.61824 0.0
O188 O 0.4361 0.45058 0.59958 0.0
H189 H 0.46033 0.42506 0.65702 0.0
H190 H 0.348 0.44497 0.58004 0.0
H191 H 0.44761 0.49435 0.62046 0.0
O192 O 0.3616 0.46113 0.61145 0.0
O193 O 0.39733 0.48097 0.62547 0.0
H194 H 0.34197 0.36748 0.60926 0.0
O195 O 0.39988 0.43089 0.65097 0.0
O196 O 0.36192 0.41274 0.63788 0.0
O197 O 0.43766 0.40116 0.62442 0.0
O198 O 0.40077 0.38201 0.61074 0.0
C199 C 0.37604 0.41916 0.65261 0.0
H200 H 0.30734 0.43345 0.56067 0.0
H201 H 0.30126 0.35357 0.58922 0.0
H202 H 0.50327 0.44724 0.66999 0.0
H203 H 0.48943 0.5176 0.63242 0.0
C204 C 0.79936 0.18096 0.33233 0.0
N205 N 0.83621 0.10202 0.34266 0.0
C206 C 0.8195 0.09479 0.3278 0.0
C207 C 0.82546 0.07131 0.31691 0.0
C208 C 0.84914 0.0551 0.321 0.0
C209 C 0.86688 0.06331 0.33589 0.0
C210 C 0.85978 0.08696 0.34681 0.0
Zn211 Zn 0.82068 0.13513 0.35821 0.0
C212 C 0.86193 0.17918 0.36764 0.0
N213 N 0.78116 0.20314 0.38711 0.0
C214 C 0.75566 0.21092 0.3802 0.0
C215 C 0.7928 0.21645 0.40225 0.0
C216 C 0.77861 0.23879 0.41092 0.0
C217 C 0.75217 0.24701 0.40401 0.0
C218 C 0.74076 0.23271 0.38849 0.0
Zn219 Zn 0.80012 0.17082 0.37319 0.0
O220 O 0.81215 0.1575 0.33202 0.0
C221 C 0.75926 0.12618 0.36332 0.0
O222 O 0.79193 0.19116 0.34804 0.0
H223 H 0.81313 0.20991 0.40748 0.0
H224 H 0.80096 0.10692 0.32451 0.0
H225 H 0.74688 0.20046 0.368 0.0
O226 O 0.7816 0.11563 0.35681 0.0
O227 O 0.76031 0.14985 0.37152 0.0
H228 H 0.87277 0.093 0.35868 0.0
O229 O 0.8087 0.15082 0.39855 0.0
O230 O 0.82821 0.11407 0.38485 0.0
O231 O 0.83998 0.19091 0.37429 0.0
O232 O 0.86012 0.155 0.36003 0.0
C233 C 0.82065 0.12709 0.39978 0.0
H234 H 0.81159 0.06584 0.30532 0.0
H235 H 0.8855 0.05125 0.33929 0.0
H236 H 0.78813 0.24951 0.4228 0.0
H237 H 0.72081 0.23887 0.38238 0.0
C238 C 0.06873 0.54999 0.08207 0.0
N239 N 0.14692 0.5872 0.09374 0.0
C240 C 0.15539 0.56956 0.07969 0.0
C241 C 0.17931 0.57532 0.06918 0.0
C242 C 0.19463 0.59979 0.07274 0.0
C243 C 0.18519 0.61836 0.08681 0.0
C244 C 0.16117 0.61143 0.09741 0.0
Zn245 Zn 0.11276 0.57266 0.10866 0.0
C246 C 0.06841 0.61455 0.11579 0.0
N247 N 0.04251 0.53546 0.1365 0.0
C248 C 0.03457 0.50973 0.13009 0.0
C249 C 0.02777 0.54886 0.1503 0.0
C250 C 0.00349 0.53655 0.15782 0.0
C251 C 0.99464 0.51019 0.15111 0.0
C252 C 0.01075 0.49669 0.13723 0.0
Zn253 Zn 0.07617 0.55304 0.12321 0.0
O254 O 0.09208 0.56302 0.08206 0.0
C255 C 0.12085 0.51139 0.11577 0.0
O256 O 0.05768 0.5433 0.09767 0.0
H257 H 0.03446 0.56934 0.15516 0.0
H258 H 0.14376 0.5506 0.07668 0.0
H259 H 0.04622 0.49955 0.11891 0.0
O260 O 0.13187 0.5332 0.10878 0.0
O261 O 0.09681 0.51311 0.12341 0.0
H262 H 0.15409 0.6252 0.1086 0.0
O263 O 0.09442 0.56317 0.1489 0.0
O264 O 0.13228 0.58117 0.13565 0.0
O265 O 0.05634 0.59286 0.12251 0.0
O266 O 0.09312 0.61252 0.10901 0.0
C267 C 0.11832 0.57477 0.15044 0.0
H268 H 0.18568 0.5608 0.05818 0.0
H269 H 0.19649 0.63762 0.08976 0.0
H270 H 0.99157 0.54765 0.1685 0.0
H271 H 0.00436 0.47673 0.13126 0.0
C272 C 0.8252 0.62733 0.5984 0.0
N273 N 0.78623 0.70281 0.61275 0.0
C274 C 0.79949 0.71699 0.59862 0.0
C275 C 0.78718 0.74104 0.59081 0.0
C276 C 0.76096 0.75022 0.59757 0.0
C277 C 0.74764 0.73471 0.61184 0.0
C278 C 0.76068 0.71111 0.61927 0.0
Zn279 Zn 0.80353 0.66916 0.62611 0.0
C280 C 0.76157 0.6245 0.63311 0.0
N281 N 0.83714 0.59785 0.65522 0.0
C282 C 0.86177 0.58393 0.65223 0.0
C283 C 0.81898 0.58938 0.66897 0.0
C284 C 0.82462 0.56585 0.67989 0.0
C285 C 0.84954 0.55092 0.67709 0.0
C286 C 0.8686 0.56032 0.66328 0.0
Zn287 Zn 0.82296 0.63212 0.64018 0.0
O288 O 0.813 0.65081 0.60051 0.0
C289 C 0.8652 0.67633 0.63348 0.0
O290 O 0.83231 0.61307 0.61294 0.0
H291 H 0.79976 0.60082 0.67154 0.0
H292 H 0.81982 0.70997 0.59368 0.0
H293 H 0.87602 0.59105 0.64133 0.0
O294 O 0.84371 0.68852 0.62655 0.0
O295 O 0.86282 0.65174 0.64039 0.0
H296 H 0.7506 0.69987 0.63067 0.0
O297 O 0.81261 0.65259 0.66696 0.0
O298 O 0.79447 0.68799 0.65151 0.0
O299 O 0.7835 0.61292 0.63948 0.0
O300 O 0.76326 0.64902 0.6262 0.0
C301 C 0.80055 0.67647 0.66705 0.0
H302 H 0.79814 0.75253 0.57985 0.0
H303 H 0.72781 0.74141 0.61786 0.0
H304 H 0.80972 0.55959 0.69069 0.0
H305 H 0.88822 0.54935 0.66092 0.0
C306 C 0.11808 0.07537 0.84834 0.0
N307 N 0.04317 0.0339 0.86198 0.0
C308 C 0.02796 0.04729 0.84839 0.0
C309 C 0.00431 0.03426 0.84049 0.0
C310 C 0.9967 0.00718 0.84653 0.0
C311 C 0.01311 0.99386 0.86032 0.0
C312 C 0.03617 0.00764 0.86792 0.0
Zn313 Zn 0.07661 0.05177 0.87542 0.0
C314 C 0.1222 0.01067 0.88185 0.0
N315 N 0.14714 0.08606 0.90516 0.0
C316 C 0.16063 0.11095 0.90226 0.0
C317 C 0.15603 0.06787 0.91877 0.0
C318 C 0.17957 0.07376 0.92962 0.0
C319 C 0.19409 0.09895 0.92689 0.0
C320 C 0.18424 0.11803 0.91324 0.0
Zn321 Zn 0.11317 0.07147 0.89001 0.0
O322 O 0.09445 0.06321 0.8498 0.0
C323 C 0.06787 0.11279 0.88388 0.0
O324 O 0.13215 0.08151 0.86313 0.0
H325 H 0.14493 0.04842 0.92125 0.0
H326 H 0.03386 0.0682 0.84393 0.0
H327 H 0.1532 0.1252 0.89144 0.0
O328 O 0.05603 0.09118 0.87685 0.0
O329 O 0.0927 0.11089 0.89048 0.0
H330 H 0.04811 0.99748 0.87897 0.0
O331 O 0.09302 0.06039 0.9165 0.0
O332 O 0.0586 0.04071 0.90089 0.0
O333 O 0.1331 0.03239 0.88905 0.0
O334 O 0.09797 0.01232 0.87449 0.0
C335 C 0.06989 0.04699 0.9165 0.0
H336 H 0.99202 0.04524 0.82993 0.0
H337 H 0.00757 0.97332 0.86577 0.0
H338 H 0.18618 0.05883 0.94031 0.0
H339 H 0.19488 0.13785 0.91094 0.0
C340 C 0.66897 0.3658 0.09672 0.0
N341 N 0.71016 0.29187 0.11227 0.0
C342 C 0.6979 0.27713 0.09797 0.0
C343 C 0.71174 0.25398 0.09005 0.0
C344 C 0.73845 0.24641 0.09682 0.0
C345 C 0.7505 0.26219 0.11145 0.0
C346 C 0.73595 0.28477 0.11901 0.0
Zn347 Zn 0.69169 0.32537 0.12512 0.0
C348 C 0.73266 0.37145 0.13119 0.0
N349 N 0.65641 0.39682 0.15328 0.0
C350 C 0.63029 0.40829 0.15149 0.0
C351 C 0.67492 0.40687 0.16633 0.0
C352 C 0.66799 0.42944 0.17779 0.0
C353 C 0.64136 0.44157 0.17643 0.0
C354 C 0.62212 0.43072 0.16322 0.0
Zn355 Zn 0.67162 0.3627 0.13847 0.0
O356 O 0.68172 0.3427 0.09924 0.0
C357 C 0.63042 0.31695 0.13262 0.0
O358 O 0.66149 0.38045 0.111 0.0
H359 H 0.69516 0.39705 0.16826 0.0
H360 H 0.67735 0.28316 0.09285 0.0
H361 H 0.61569 0.39978 0.14126 0.0
O362 O 0.65208 0.30492 0.12582 0.0
O363 O 0.63239 0.3418 0.13915 0.0
H364 H 0.74525 0.29641 0.13054 0.0
O365 O 0.68286 0.34366 0.16552 0.0
O366 O 0.70129 0.30775 0.15081 0.0
O367 O 0.71052 0.38304 0.1372 0.0
O368 O 0.73138 0.34654 0.12492 0.0
C369 C 0.69537 0.32004 0.16612 0.0
H370 H 0.70173 0.24215 0.07884 0.0
H371 H 0.77069 0.25661 0.11746 0.0
H372 H 0.68307 0.43674 0.18818 0.0
H373 H 0.60117 0.43941 0.16206 0.0
C374 C 0.37737 0.92189 0.35143 0.0
N375 N 0.45401 0.96026 0.36373 0.0
C376 C 0.46685 0.94739 0.34888 0.0
C377 C 0.48997 0.96005 0.34009 0.0
C378 C 0.49963 0.9862 0.34665 0.0
C379 C 0.48561 -0.00097 0.36179 0.0
C380 C 0.46286 0.98568 0.37014 0.0
Zn381 Zn 0.42116 0.94287 0.37791 0.0
C382 C 0.37734 0.98512 0.38634 0.0
N383 N 0.35129 0.90934 0.40858 0.0
C384 C 0.3366 0.88532 0.40505 0.0
C385 C 0.34363 0.92691 0.42287 0.0
C386 C 0.32006 0.92134 0.43379 0.0
C387 C 0.30427 0.89712 0.43036 0.0
C388 C 0.31292 0.87858 0.41604 0.0
Zn389 Zn 0.38485 0.92369 0.39298 0.0
O390 O 0.40146 0.93315 0.3526 0.0
C391 C 0.42871 0.88138 0.38489 0.0
O392 O 0.36392 0.91551 0.36643 0.0
H393 H 0.3556 0.94571 0.42574 0.0
H394 H 0.45939 0.92717 0.34401 0.0
H395 H 0.34303 0.87161 0.39365 0.0
O396 O 0.44065 0.90301 0.37799 0.0
O397 O 0.40427 0.88355 0.39211 0.0
H398 H 0.45261 0.99551 0.38205 0.0
O399 O 0.40685 0.93299 0.41913 0.0
O400 O 0.44108 0.95225 0.40309 0.0
O401 O 0.36604 0.9635 0.3934 0.0
O402 O 0.40107 0.98291 0.37833 0.0
C403 C 0.43041 0.94565 0.41883 0.0
H404 H 0.50029 0.94945 0.32846 0.0
H405 H 0.49277 0.01879 0.36767 0.0
H406 H 0.3143 0.93582 0.44496 0.0
H407 H 0.30123 0.85953 0.41318 0.0
C408 C 0.19326 0.31811 0.33198 0.0
N409 N 0.15784 0.39701 0.3439 0.0
C410 C 0.17524 0.40564 0.32976 0.0
C411 C 0.16865 0.42892 0.31884 0.0
C412 C 0.14353 0.44329 0.32205 0.0
C413 C 0.12533 0.43384 0.33632 0.0
C414 C 0.13314 0.41056 0.34737 0.0
Zn415 Zn 0.17266 0.36294 0.35875 0.0
C416 C 0.12991 0.31928 0.36682 0.0
N417 N 0.20935 0.29212 0.38628 0.0
C418 C 0.23479 0.28419 0.37934 0.0
C419 C 0.19696 0.27784 0.40073 0.0
C420 C 0.21027 0.25432 0.40861 0.0
C421 C 0.23661 0.24593 0.40164 0.0
C422 C 0.24883 0.26127 0.38687 0.0
Zn423 Zn 0.19148 0.32579 0.37314 0.0
O424 O 0.18133 0.34203 0.33204 0.0
C425 C 0.23407 0.36975 0.36478 0.0
O426 O 0.19965 0.30679 0.34755 0.0
H427 H 0.17667 0.28447 0.40598 0.0
H428 H 0.19446 0.39441 0.32681 0.0
H429 H 0.24415 0.29537 0.36763 0.0
O430 O 0.2124 0.38163 0.35824 0.0
O431 O 0.23175 0.34572 0.37235 0.0
H432 H 0.1195 0.40328 0.35858 0.0
O433 O 0.18285 0.34457 0.39889 0.0
O434 O 0.16516 0.38269 0.38579 0.0
O435 O 0.15138 0.3067 0.37343 0.0
O436 O 0.13253 0.34374 0.35974 0.0
C437 C 0.17176 0.36868 0.40052 0.0
H438 H 0.18285 0.43533 0.30766 0.0
H439 H 0.10555 0.44438 0.33893 0.0
H440 H 0.20012 0.24282 0.41992 0.0
H441 H 0.26873 0.25506 0.38072 0.0
C442 C 0.9305 0.94505 0.08318 0.0
N443 N 0.84958 0.91217 0.09288 0.0
C444 C 0.84502 0.92911 0.07768 0.0
C445 C 0.82127 0.926 0.06653 0.0
C446 C 0.8014 0.90535 0.07094 0.0
C447 C 0.80676 0.8873 0.0863 0.0
C448 C 0.83113 0.89125 0.09728 0.0
Zn449 Zn 0.88374 0.92474 0.10882 0.0
C450 C 0.92589 0.88126 0.11722 0.0
N451 N 0.95389 0.95984 0.13815 0.0
C452 C 0.96236 0.98557 0.13204 0.0
C453 C 0.96746 0.94646 0.15252 0.0
C454 C 0.99079 0.95905 0.16117 0.0
C455 C -0.00036 0.98572 0.1551 0.0
C456 C 0.98504 -0.00104 0.1404 0.0
Zn457 Zn 0.92046 0.94325 0.12396 0.0
O458 O 0.90688 0.93255 0.0829 0.0
C459 C 0.87808 0.98653 0.11505 0.0
O460 O 0.94091 0.95216 0.0989 0.0
H461 H 0.96042 0.92595 0.1571 0.0
H462 H 0.85936 0.94599 0.07439 0.0
H463 H 0.95182 0.9957 0.12035 0.0
O464 O 0.86658 0.96514 0.10784 0.0
O465 O 0.90141 0.98383 0.1235 0.0
H466 H 0.83489 0.87816 0.10953 0.0
O467 O 0.90034 0.93403 0.1492 0.0
O468 O 0.86216 0.9178 0.1353 0.0
O469 O 0.9386 0.90267 0.12384 0.0
O470 O 0.90142 0.88398 0.11012 0.0
C471 C 0.87584 0.92366 0.15031 0.0
H472 H 0.81841 0.93995 0.05459 0.0
H473 H 0.79194 0.87099 0.09009 0.0
H474 H 0.00182 0.94812 0.17237 0.0
H475 H 0.99169 0.01916 0.13493 0.0
C476 C 0.29749 0.67519 0.83484 0.0
N477 N 0.33713 0.59802 0.84583 0.0
C478 C 0.31913 0.58868 0.83224 0.0
C479 C 0.32582 0.56556 0.8212 0.0
C480 C 0.35161 0.5521 0.8237 0.0
C481 C 0.3704 0.56232 0.83739 0.0
C482 C 0.36251 0.5854 0.84859 0.0
Zn483 Zn 0.32205 0.63154 0.86107 0.0
C484 C 0.36317 0.67678 0.86774 0.0
N485 N 0.28408 0.70066 0.88954 0.0
C486 C 0.25809 0.70825 0.88343 0.0
C487 C 0.29766 0.71555 0.9032 0.0
C488 C 0.28532 0.73973 0.91079 0.0
C489 C 0.25877 0.74837 0.90428 0.0
C490 C 0.24502 0.73199 0.89064 0.0
Zn491 Zn 0.30198 0.66755 0.87592 0.0
O492 O 0.31086 0.65204 0.83461 0.0
C493 C 0.26121 0.62183 0.86893 0.0
O494 O 0.29121 0.68609 0.85057 0.0
H495 H 0.31835 0.70911 0.90782 0.0
H496 H 0.29934 0.5992 0.82984 0.0
H497 H 0.24777 0.69646 0.87238 0.0
O498 O 0.28318 0.6113 0.86184 0.0
O499 O 0.26243 0.64603 0.87639 0.0
H500 H 0.37659 0.59323 0.85938 0.0
O501 O 0.31307 0.64927 0.90144 0.0
O502 O 0.33215 0.61219 0.88786 0.0
O503 O 0.34151 0.68833 0.8749 0.0
O504 O 0.36129 0.65218 0.86079 0.0
C505 C 0.32556 0.62582 0.90275 0.0
H506 H 0.31113 0.55857 0.81047 0.0
H507 H 0.3907 0.55251 0.83944 0.0
H508 H 0.2966 0.75182 0.92131 0.0
H509 H 0.2249 0.73819 0.88482 0.0
C510 C 0.57115 0.04894 0.58482 0.0
N511 N 0.64907 0.08688 0.59587 0.0
C512 C 0.65748 0.06857 0.5822 0.0
C513 C 0.68073 0.07429 0.57102 0.0
C514 C 0.69545 0.09942 0.57348 0.0
C515 C 0.68611 0.1186 0.58723 0.0
C516 C 0.66279 0.11171 0.59854 0.0
Zn517 Zn 0.61511 0.07266 0.61123 0.0
C518 C 0.5705 0.11437 0.61777 0.0
N519 N 0.54503 0.03559 0.6394 0.0
C520 C 0.53714 0.00975 0.63317 0.0
C521 C 0.53039 0.04908 0.65322 0.0
C522 C 0.50628 0.03671 0.66095 0.0
C523 C 0.49748 0.01023 0.65443 0.0
C524 C 0.51348 0.99667 0.64051 0.0
Zn525 Zn 0.57856 0.05303 0.62588 0.0
O526 O 0.59446 0.06202 0.58476 0.0
C527 C 0.6235 0.01158 0.61903 0.0
O528 O 0.56 0.04261 0.60046 0.0
H529 H 0.53705 0.06964 0.65794 0.0
H530 H 0.64617 0.04922 0.57986 0.0
H531 H 0.54872 -0.00052 0.622 0.0
O532 O 0.63449 0.03336 0.612 0.0
O533 O 0.5993 0.01322 0.62645 0.0
H534 H 0.65571 0.12608 0.60938 0.0
O535 O 0.59689 0.06379 0.65145 0.0
O536 O 0.63452 0.08225 0.63813 0.0
O537 O 0.55858 0.0928 0.62479 0.0
O538 O 0.59519 0.11231 0.61097 0.0
C539 C 0.62058 0.07583 0.65293 0.0
H540 H 0.6869 0.05928 0.56028 0.0
H541 H 0.6969 0.13839 0.58933 0.0
H542 H 0.49446 0.04786 0.67166 0.0
H543 H 0.50713 0.97662 0.63466 0.0
C544 C 0.28127 0.21892 0.18379 0.0
C545 C 0.29057 0.19092 0.18483 0.0
C546 C 0.27103 0.23261 0.19974 0.0
C547 C 0.26984 0.2309 0.2517 0.0
H548 H 0.2025 0.27595 0.24533 0.0
C549 C 0.21013 0.27541 0.31524 0.0
C550 C 0.20104 0.30349 0.31431 0.0
C551 C 0.22021 0.26177 0.29923 0.0
C552 C 0.22147 0.26373 0.24729 0.0
H553 H 0.29716 0.15557 0.20361 0.0
H554 H 0.27899 0.17962 0.23172 0.0
H555 H 0.22254 0.25144 0.21822 0.0
H556 H 0.19455 0.33901 0.29566 0.0
H557 H 0.21243 0.31503 0.26742 0.0
H558 H 0.26878 0.24318 0.28077 0.0
C559 C 0.27984 0.19094 0.21846 0.0
C560 C 0.23296 0.24965 0.23178 0.0
C561 C 0.29022 0.17716 0.20239 0.0
C562 C 0.20135 0.31736 0.29679 0.0
C563 C 0.21156 0.30362 0.28066 0.0
C564 C 0.25836 0.24497 0.26721 0.0
C565 C 0.2697 0.21868 0.21719 0.0
C566 C 0.2573 0.23312 0.23381 0.0
C567 C 0.22158 0.27583 0.28183 0.0
C568 C 0.234 0.26148 0.26518 0.0
H569 H 0.28151 0.23029 0.17052 0.0
H570 H 0.26402 0.25416 0.19837 0.0
H571 H 0.28882 0.21869 0.25367 0.0
H572 H 0.20989 0.26395 0.32848 0.0
H573 H 0.22711 0.24017 0.30052 0.0
C574 C 0.46679 0.46194 0.56708 0.0
C575 C 0.43865 0.45301 0.56635 0.0
C576 C 0.48004 0.47251 0.55106 0.0
C577 C 0.4652 0.50708 0.50602 0.0
H578 H 0.5431 0.4891 0.49528 0.0
C579 C 0.52109 0.5389 0.43713 0.0
C580 C 0.54954 0.5468 0.43796 0.0
C581 C 0.50721 0.52932 0.45321 0.0
C582 C 0.52148 0.49467 0.49827 0.0
H583 H 0.4025 0.44746 0.54809 0.0
H584 H 0.42591 0.46598 0.51978 0.0
H585 H 0.51923 0.46602 0.52151 0.0
H586 H 0.58544 0.55201 0.45647 0.0
H587 H 0.56098 0.53532 0.48483 0.0
H588 H 0.46748 0.53572 0.48274 0.0
C589 C 0.43753 0.46494 0.53293 0.0
C590 C 0.50775 0.48132 0.51321 0.0
C591 C 0.42422 0.45415 0.54905 0.0
C592 C 0.56352 0.54608 0.45543 0.0
C593 C 0.54959 0.5363 0.47158 0.0
C594 C 0.47894 0.52045 0.49106 0.0
C595 C 0.46551 0.47447 0.53386 0.0
C596 C 0.47949 0.48743 0.51728 0.0
C597 C 0.52143 0.52734 0.47053 0.0
C598 C 0.50724 0.51439 0.48704 0.0
H599 H 0.47857 0.4613 0.58019 0.0
H600 H 0.50146 0.47997 0.55233 0.0
H601 H 0.44357 0.51259 0.50902 0.0
H602 H 0.50967 0.53932 0.42388 0.0
H603 H 0.48563 0.52236 0.45187 0.0
C604 C 0.20186 0.81625 0.7044 0.0
C605 C 0.20498 0.80389 0.6865 0.0
C606 C 0.21154 0.80228 0.7206 0.0
C607 C 0.26176 0.74702 0.73515 0.0
H608 H 0.21827 0.74536 0.78143 0.0
C609 C 0.29155 0.67717 0.79943 0.0
C610 C 0.28844 0.68959 0.81732 0.0
C611 C 0.2815 0.6909 0.78325 0.0
C612 C 0.2308 0.74585 0.76865 0.0
H613 H 0.21993 0.76681 0.67163 0.0
H614 H 0.23629 0.74266 0.69966 0.0
H615 H 0.20015 0.77057 0.75399 0.0
H616 H 0.27297 0.72647 0.83217 0.0
H617 H 0.256 0.75023 0.80416 0.0
H618 H 0.29243 0.72235 0.74981 0.0
C619 C 0.22697 0.76328 0.70125 0.0
C620 C 0.22042 0.76035 0.75296 0.0
C621 C 0.21737 0.77713 0.68518 0.0
C622 C 0.27556 0.71612 0.81864 0.0
C623 C 0.2656 0.72974 0.80257 0.0
C624 C 0.27215 0.73254 0.75084 0.0
C625 C 0.22452 0.77577 0.71913 0.0
C626 C 0.23576 0.76106 0.73602 0.0
C627 C 0.26816 0.71723 0.78471 0.0
C628 C 0.25681 0.73183 0.76779 0.0
H629 H 0.19247 0.83686 0.70586 0.0
H630 H 0.20947 0.8125 0.73421 0.0
H631 H 0.27429 0.74752 0.72237 0.0
H632 H 0.30131 0.65674 0.79798 0.0
H633 H 0.28365 0.68066 0.76965 0.0
C634 C 0.97095 0.46195 0.93349 0.0
C635 C 0.94344 0.45126 0.93466 0.0
C636 C 0.98467 0.47186 0.94954 0.0
C637 C 0.97059 0.50097 0.9965 0.0
H638 H 0.0502 0.48779 0.0044 0.0
C639 C 0.02704 0.53048 0.0654 0.0
C640 C 0.05439 0.54159 0.06441 0.0
C641 C 0.01364 0.52049 0.04927 0.0
C642 C 0.02806 0.49199 0.00223 0.0
H643 H 0.90904 0.44188 0.95371 0.0
H644 H 0.93328 0.45911 0.98201 0.0
H645 H 0.02643 0.46594 0.9776 0.0
H646 H 0.08892 0.55147 0.04558 0.0
H647 H 0.06524 0.53401 0.01709 0.0
H648 H 0.97221 0.52699 0.02112 0.0
C649 C 0.94401 0.46004 0.96852 0.0
C650 C 0.0144 0.47936 0.98695 0.0
C651 C 0.93022 0.44998 0.95238 0.0
C652 C 0.06785 0.54306 0.04677 0.0
C653 C 0.05438 0.53289 0.03053 0.0
C654 C 0.98424 0.51358 0.01177 0.0
C655 C 0.97128 0.47137 0.9672 0.0
C656 C 0.98551 0.48371 0.98392 0.0
C657 C 0.02719 0.52131 0.03167 0.0
C658 C 0.01311 0.50918 0.01483 0.0
H659 H 0.9818 0.46324 0.92005 0.0
H660 H 0.0055 0.48075 0.94797 0.0
H661 H 0.94846 0.50518 0.99435 0.0
H662 H 0.016 0.52903 0.07877 0.0
H663 H 0.99289 0.51138 0.0507 0.0
C664 C 0.70213 0.81997 0.79514 0.0
C665 C 0.69888 0.80497 0.81208 0.0
C666 C 0.712 0.80631 0.77886 0.0
C667 C 0.72321 0.73541 0.75803 0.0
H668 H 0.78279 0.77209 0.72999 0.0
C669 C 0.78935 0.67664 0.70186 0.0
C670 C 0.79261 0.69107 0.68469 0.0
C671 C 0.77865 0.69062 0.71777 0.0
C672 C 0.76606 0.76163 0.73762 0.0
H673 H 0.70199 0.76371 0.82504 0.0
H674 H 0.71908 0.74023 0.79699 0.0
H675 H 0.75972 0.79699 0.75583 0.0
H676 H 0.78848 0.73166 0.67093 0.0
H677 H 0.77007 0.75574 0.69844 0.0
H678 H 0.72968 0.69999 0.73989 0.0
C679 C 0.71404 0.76238 0.79607 0.0
C680 C 0.7527 0.77598 0.75232 0.0
C681 C 0.7044 0.77595 0.81223 0.0
C682 C 0.7861 0.71987 0.68394 0.0
C683 C 0.77569 0.73379 0.69976 0.0
C684 C 0.73661 0.72104 0.74336 0.0
C685 C 0.71846 0.77741 0.77928 0.0
C686 C 0.73119 0.763 0.76274 0.0
C687 C 0.77139 0.71928 0.71676 0.0
C688 C 0.7582 0.73398 0.733 0.0
H689 H 0.69808 0.84235 0.79464 0.0
H690 H 0.71492 0.81839 0.76604 0.0
H691 H 0.70648 0.72492 0.76564 0.0
H692 H 0.79414 0.65444 0.70283 0.0
H693 H 0.7758 0.67898 0.73078 0.0
C694 C 0.70387 0.32142 0.2013 0.0
C695 C 0.70416 0.30677 0.18407 0.0
C696 C 0.7146 0.30883 0.21772 0.0
C697 C 0.76335 0.25248 0.23251 0.0
H698 H 0.72517 0.25741 0.28076 0.0
C699 C 0.79317 0.18348 0.29703 0.0
C700 C 0.79199 0.19635 0.31487 0.0
C701 C 0.7836 0.19783 0.28097 0.0
C702 C 0.73629 0.25611 0.26743 0.0
H703 H 0.71481 0.26703 0.17072 0.0
H704 H 0.73296 0.2453 0.19913 0.0
H705 H 0.70564 0.28157 0.25333 0.0
H706 H 0.7811 0.23477 0.32974 0.0
H707 H 0.76504 0.25969 0.30188 0.0
H708 H 0.79393 0.22694 0.24655 0.0
C709 C 0.72516 0.26663 0.19998 0.0
C710 C 0.72508 0.26999 0.25174 0.0
C711 C 0.71454 0.27911 0.18371 0.0
C712 C 0.78201 0.22408 0.31623 0.0
C713 C 0.77261 0.23837 0.30027 0.0
C714 C 0.77456 0.23863 0.24819 0.0
C715 C 0.72579 0.28145 0.2171 0.0
C716 C 0.73836 0.26811 0.23407 0.0
C717 C 0.77279 0.22529 0.2825 0.0
C718 C 0.7611 0.24017 0.26581 0.0
H719 H 0.69606 0.34277 0.202 0.0
H720 H 0.71485 0.32077 0.23075 0.0
H721 H 0.77433 0.25101 0.21913 0.0
H722 H 0.80066 0.16211 0.29556 0.0
H723 H 0.78387 0.18713 0.26746 0.0
C724 C 0.97258 0.96448 0.06682 0.0
C725 C 0.94558 0.95258 0.06564 0.0
C726 C 0.98643 0.97372 0.05064 0.0
C727 C 0.9727 -0.00163 0.00246 0.0
H728 H 0.05296 0.98774 0.99599 0.0
C729 C 0.02945 0.02509 0.93324 0.0
C730 C 0.05603 0.03794 0.93418 0.0
C731 C 0.01632 0.01524 0.94952 0.0
C732 C 0.03062 0.99119 0.99774 0.0
H733 H 0.91223 0.94038 0.04645 0.0
H734 H 0.93668 0.95642 0.01795 0.0
H735 H 0.02932 0.96732 0.02336 0.0
H736 H 0.08958 0.05077 0.95303 0.0
H737 H 0.06635 0.03356 0.98175 0.0
H738 H 0.97397 0.02223 0.97686 0.0
C739 C 0.94691 0.95883 0.03153 0.0
C740 C 0.01705 0.97941 0.01336 0.0
C741 C 0.933 0.94947 0.0478 0.0
C742 C 0.06909 0.041 0.95188 0.0
C743 C 0.05589 0.031 0.96826 0.0
C744 C 0.98625 0.01014 0.98686 0.0
C745 C 0.97367 0.97132 0.03283 0.0
C746 C 0.98793 0.98285 0.01587 0.0
C747 C 0.02937 0.01796 0.9672 0.0
C748 C 0.01534 0.00661 0.98429 0.0
H749 H 0.98292 0.96719 0.08035 0.0
H750 H 0.00684 0.98354 0.05217 0.0
H751 H 0.95036 0.00188 0.00419 0.0
H752 H 0.01876 0.02231 0.91985 0.0
H753 H 0.99613 0.00493 0.94817 0.0
C754 C 0.43257 0.95124 0.4542 0.0
C755 C 0.44526 0.95382 0.43636 0.0
C756 C 0.44642 0.961 0.4704 0.0
C757 C 0.51673 0.98139 0.48841 0.0
H758 H 0.47417 0.02512 0.52468 0.0
C759 C 0.56989 0.04295 0.54944 0.0
C760 C 0.55691 0.04024 0.56718 0.0
C761 C 0.55638 0.03308 0.53312 0.0
C762 C 0.48631 0.01278 0.51475 0.0
H763 H 0.4827 0.96806 0.42159 0.0
H764 H 0.50649 0.98507 0.44962 0.0
H765 H 0.45026 0.00453 0.49753 0.0
H766 H 0.51941 0.0255 0.58166 0.0
H767 H 0.49626 0.00833 0.55347 0.0
H768 H 0.55278 0.98967 0.50565 0.0
C769 C 0.48605 0.97534 0.45122 0.0
C770 C 0.47258 0.00087 0.49925 0.0
C771 C 0.47226 0.96571 0.43511 0.0
C772 C 0.53006 0.02797 0.56822 0.0
C773 C 0.51663 0.01826 0.55202 0.0
C774 C 0.53047 0.99331 0.50392 0.0
C775 C 0.47324 0.97336 0.46902 0.0
C776 C 0.48762 0.98504 0.48591 0.0
C777 C 0.52964 0.02052 0.53429 0.0
C778 C 0.5154 0.00906 0.51729 0.0
H779 H 0.41179 0.94219 0.4556 0.0
H780 H 0.43614 0.95893 0.48398 0.0
H781 H 0.52886 0.96905 0.47848 0.0
H782 H 0.59057 0.05228 0.54819 0.0
H783 H 0.56683 0.03531 0.5196 0.0
C784 C 0.21819 0.12755 0.95168 0.0
C785 C 0.21864 0.10485 0.93907 0.0
C786 C 0.23787 0.12913 0.96635 0.0
C787 C 0.2819 0.08135 0.99493 0.0
H788 H 0.30529 0.15098 0.01843 0.0
C789 C 0.33925 0.13007 0.0664 0.0
C790 C 0.3253 0.1138 0.08 0.0
C791 C 0.33437 0.12566 0.04717 0.0
C792 C 0.29955 0.13121 0.01192 0.0
H793 H 0.2411 0.06727 0.93082 0.0
H794 H 0.27612 0.07051 0.95593 0.0
H795 H 0.28242 0.15217 0.98778 0.0
H796 H 0.29669 0.07917 0.08442 0.0
H797 H 0.28753 0.07166 0.05085 0.0
H798 H 0.29905 0.0604 0.01911 0.0
C799 C 0.26015 0.08665 0.95496 0.0
C800 C 0.28598 0.13198 0.99441 0.0
C801 C 0.24033 0.08495 0.94045 0.0
C802 C 0.30816 0.09153 0.07412 0.0
C803 C 0.30284 0.08739 0.05484 0.0
C804 C 0.29567 0.08056 0.0124 0.0
C805 C 0.2585 0.10812 0.96857 0.0
C806 C 0.27631 0.10714 0.9859 0.0
C807 C 0.31481 0.10537 0.04118 0.0
C808 C 0.30406 0.10554 0.02136 0.0
H809 H 0.20144 0.14293 0.95102 0.0
H810 H 0.23574 0.14584 0.97663 0.0
H811 H 0.27453 0.06175 0.98895 0.0
H812 H 0.35235 0.14757 0.07069 0.0
H813 H 0.34456 0.13938 0.03706 0.0
C814 C 0.61506 0.58039 0.31848 0.0
C815 C 0.63113 0.56869 0.33314 0.0
C816 C 0.62005 0.57286 0.29971 0.0
C817 C 0.64045 0.50998 0.27517 0.0
H818 H 0.63368 0.55475 0.22956 0.0
C819 C 0.61423 0.45828 0.20435 0.0
C820 C 0.63399 0.46381 0.19012 0.0
C821 C 0.61321 0.47518 0.22052 0.0
C822 C 0.63556 0.54204 0.2422 0.0
H823 H 0.66617 0.54153 0.33978 0.0
H824 H 0.67496 0.5281 0.30682 0.0
H825 H 0.63862 0.5781 0.26035 0.0
H826 H 0.66665 0.49227 0.18082 0.0
H827 H 0.66433 0.52233 0.20884 0.0
H828 H 0.63683 0.47399 0.25723 0.0
C829 C 0.65861 0.54327 0.30985 0.0
C830 C 0.63847 0.55536 0.25976 0.0
C831 C 0.65387 0.55121 0.32866 0.0
C832 C 0.65104 0.48782 0.19156 0.0
C833 C 0.64977 0.50493 0.2076 0.0
C834 C 0.63712 0.49673 0.25771 0.0
C835 C 0.64087 0.55302 0.29532 0.0
C836 C 0.6409 0.53943 0.27643 0.0
C837 C 0.63173 0.49802 0.2226 0.0
C838 C 0.63444 0.51258 0.24106 0.0
H839 H 0.59713 0.59359 0.32169 0.0
H840 H 0.60595 0.5806 0.28887 0.0
H841 H 0.64177 0.49713 0.28778 0.0
H842 H 0.60115 0.43967 0.20365 0.0
H843 H 0.59887 0.4696 0.23181 0.0
C844 C 0.15547 0.86506 0.56795 0.0
C845 C 0.16914 0.88112 0.58179 0.0
C846 C 0.16061 0.86988 0.54879 0.0
C847 C 0.20029 0.91562 0.5148 0.0
H848 H 0.21335 0.84448 0.48957 0.0
C849 C 0.25833 0.91227 0.44377 0.0
C850 C 0.27939 0.89174 0.44232 0.0
C851 C 0.23802 0.91064 0.45797 0.0
C852 C 0.20989 0.86455 0.49638 0.0
H853 H 0.19751 0.91581 0.5867 0.0
H854 H 0.20721 0.92396 0.55329 0.0
H855 H 0.18968 0.84518 0.51991 0.0
H856 H 0.29515 0.85278 0.45389 0.0
H857 H 0.26011 0.85005 0.47903 0.0
H858 H 0.22244 0.93474 0.49191 0.0
C859 C 0.19187 0.90811 0.55702 0.0
C860 C 0.19582 0.86505 0.51371 0.0
C861 C 0.18625 0.90359 0.57621 0.0
C862 C 0.27886 0.86865 0.4546 0.0
C863 C 0.25873 0.86717 0.469 0.0
C864 C 0.21462 0.91509 0.49754 0.0
C865 C 0.18021 0.89034 0.54311 0.0
C866 C 0.19137 0.89054 0.52339 0.0
C867 C 0.23861 0.88866 0.47125 0.0
C868 C 0.22019 0.88947 0.48831 0.0
H869 H 0.14238 0.84742 0.572 0.0
H870 H 0.15059 0.85634 0.5385 0.0
H871 H 0.19695 0.93567 0.52167 0.0
H872 H 0.25836 0.93027 0.43439 0.0
H873 H 0.22248 0.92719 0.45895 0.0
C874 C 0.83498 0.50504 0.69093 0.0
C875 C 0.8552 0.52641 0.68937 0.0
C876 C 0.83652 0.48534 0.70552 0.0
C877 C 0.83133 0.46385 0.74557 0.0
H878 H 0.90088 0.43928 0.76865 0.0
C879 C 0.84199 0.43634 0.82462 0.0
C880 C 0.86403 0.41871 0.83025 0.0
C881 C 0.83773 0.44209 0.8054 0.0
C882 C 0.88112 0.44537 0.76227 0.0
H883 H 0.89365 0.54317 0.7011 0.0
H884 H 0.89629 0.50907 0.72684 0.0
H885 H 0.90208 0.46233 0.73806 0.0
H886 H 0.89717 0.39122 0.82051 0.0
H887 H 0.88875 0.3998 0.787 0.0
H888 H 0.81038 0.44687 0.7698 0.0
C889 C 0.87944 0.5071 0.71665 0.0
C890 C 0.88191 0.45904 0.74479 0.0
C891 C 0.87802 0.52666 0.70189 0.0
C892 C 0.87987 0.40472 0.81643 0.0
C893 C 0.87533 0.41005 0.79726 0.0
C894 C 0.83053 0.45 0.76301 0.0
C895 C 0.85814 0.48679 0.71903 0.0
C896 C 0.8571 0.46907 0.73641 0.0
C897 C 0.85534 0.43008 0.79155 0.0
C898 C 0.85547 0.44115 0.77181 0.0
H899 H 0.8172 0.50443 0.68137 0.0
H900 H 0.82015 0.46962 0.70662 0.0
H901 H 0.81178 0.47152 0.73969 0.0
H902 H 0.82996 0.44782 0.83507 0.0
H903 H 0.82222 0.45774 0.80161 0.0
C904 C 0.76194 0.92812 0.05334 0.0
C905 C 0.77562 0.90336 0.05914 0.0
C906 C 0.74161 0.92743 0.03914 0.0
C907 C 0.69462 0.88279 0.01088 0.0
H908 H 0.71782 0.93003 0.96901 0.0
C909 C 0.67048 0.85513 0.93438 0.0
C910 C 0.67088 0.87565 0.9201 0.0
C911 C 0.67452 0.86243 0.95322 0.0
C912 C 0.71034 0.91728 0.98064 0.0
H913 H 0.77686 0.85817 0.0558 0.0
H914 H 0.74073 0.85686 0.03107 0.0
H915 H 0.7411 0.93449 0.99942 0.0
H916 H 0.67323 0.92028 0.91453 0.0
H917 H 0.67965 0.93341 0.94782 0.0
H918 H 0.66393 0.86541 0.99214 0.0
C919 C 0.74604 0.87684 0.03748 0.0
C920 C 0.7239 0.91971 0.99808 0.0
C921 C 0.76667 0.87755 0.05164 0.0
C922 C 0.67291 0.90404 0.92525 0.0
C923 C 0.67692 0.91145 0.9443 0.0
C924 C 0.68066 0.88069 0.99352 0.0
C925 C 0.73418 0.90192 0.0306 0.0
C926 C 0.7168 0.90187 0.01318 0.0
C927 C 0.67891 0.89057 0.95843 0.0
C928 C 0.6891 0.89712 0.97791 0.0
H929 H 0.76794 0.94829 0.05917 0.0
H930 H 0.73249 0.94701 0.03431 0.0
H931 H 0.68849 0.86906 0.02238 0.0
H932 H 0.66866 0.83304 0.93087 0.0
H933 H 0.67617 0.84561 0.96346 0.0
C934 C 0.37803 0.53295 0.7963 0.0
C935 C 0.35864 0.52868 0.81093 0.0
C936 C 0.37882 0.51452 0.78092 0.0
C937 C 0.35889 0.44579 0.76215 0.0
H938 H 0.34619 0.48676 0.7155 0.0
C939 C 0.38225 0.40755 0.68638 0.0
C940 C 0.36446 0.41665 0.67177 0.0
C941 C 0.37639 0.41443 0.70514 0.0
C942 C 0.34929 0.47497 0.72844 0.0
H943 H 0.32625 0.50114 0.82179 0.0
H944 H 0.32832 0.46825 0.79515 0.0
H945 H 0.35061 0.51234 0.7452 0.0
H946 H 0.32549 0.43791 0.66526 0.0
H947 H 0.3153 0.45036 0.69819 0.0
H948 H 0.35859 0.40841 0.74511 0.0
C949 C 0.34274 0.48586 0.79551 0.0
C950 C 0.35227 0.48964 0.74537 0.0
C951 C 0.34163 0.50455 0.81073 0.0
C952 C 0.33927 0.43033 0.67633 0.0
C953 C 0.33364 0.43768 0.69512 0.0
C954 C 0.35644 0.43106 0.74507 0.0
C955 C 0.36046 0.49139 0.7801 0.0
C956 C 0.35742 0.47526 0.76234 0.0
C957 C 0.35292 0.43103 0.70953 0.0
C958 C 0.35174 0.44557 0.72804 0.0
H959 H 0.39099 0.55166 0.79605 0.0
H960 H 0.39278 0.51908 0.76922 0.0
H961 H 0.36266 0.43426 0.77511 0.0
H962 H 0.40195 0.39721 0.68311 0.0
H963 H 0.39168 0.40915 0.71592 0.0
C964 C 0.83816 0.13066 0.43249 0.0
C965 C 0.8237 0.11507 0.41877 0.0
C966 C 0.83319 0.12603 0.45169 0.0
C967 C 0.79869 0.1317 0.48711 0.0
H968 H 0.77286 0.06223 0.50966 0.0
C969 C 0.71898 0.12809 0.54845 0.0
C970 C 0.7196 0.10518 0.56089 0.0
C971 C 0.73813 0.12964 0.53345 0.0
C972 C 0.78045 0.08181 0.50379 0.0
H973 H 0.79398 0.08147 0.4141 0.0
H974 H 0.78479 0.0735 0.44763 0.0
H975 H 0.79667 0.06108 0.47924 0.0
H976 H 0.74186 0.06717 0.56849 0.0
H977 H 0.77592 0.07033 0.54279 0.0
H978 H 0.78245 0.15245 0.51161 0.0
C979 C 0.80053 0.08886 0.44374 0.0
C980 C 0.79382 0.08115 0.48618 0.0
C981 C 0.80587 0.09325 0.42449 0.0
C982 C 0.74095 0.08501 0.55899 0.0
C983 C 0.76022 0.08668 0.54415 0.0
C984 C 0.78548 0.13235 0.50475 0.0
C985 C 0.8131 0.10618 0.45754 0.0
C986 C 0.80256 0.10615 0.4774 0.0
C987 C 0.75837 0.10839 0.53074 0.0
C988 C 0.77558 0.10749 0.51313 0.0
H989 H 0.85174 0.14787 0.42833 0.0
H990 H 0.84381 0.13925 0.4619 0.0
H991 H 0.80471 0.15149 0.48074 0.0
H992 H 0.70248 0.14369 0.5495 0.0
H993 H 0.73587 0.14657 0.52334 0.0
C994 C 0.11665 0.4628 0.29497 0.0
C995 C 0.13649 0.46683 0.30936 0.0
C996 C 0.1158 0.48113 0.27954 0.0
C997 C 0.13636 0.54925 0.26014 0.0
H998 H 0.14786 0.50744 0.21369 0.0
C999 C 0.1125 0.58673 0.18419 0.0
C1000 C 0.13007 0.57728 0.16957 0.0
C1001 C 0.11844 0.57998 0.20297 0.0
C1002 C 0.14509 0.51946 0.22656 0.0
H1003 H 0.16966 0.49384 0.31974 0.0
H1004 H 0.16748 0.52658 0.29301 0.0
H1005 H 0.14359 0.48235 0.24359 0.0
H1006 H 0.16872 0.55546 0.16303 0.0
H1007 H 0.17904 0.54324 0.19599 0.0
H1008 H 0.13682 0.58637 0.24283 0.0
C1009 C 0.15274 0.50925 0.29361 0.0
C1010 C 0.1422 0.50507 0.24362 0.0
C1011 C 0.15391 0.49065 0.30889 0.0
C1012 C 0.15512 0.56333 0.17411 0.0
C1013 C 0.16082 0.5561 0.19292 0.0
C1014 C 0.13871 0.56369 0.24294 0.0
C1015 C 0.13454 0.50391 0.27842 0.0
C1016 C 0.1375 0.51976 0.26052 0.0
C1017 C 0.14175 0.56316 0.20737 0.0
C1018 C 0.14298 0.54887 0.22598 0.0
H1019 H 0.10338 0.4443 0.29492 0.0
H1020 H 0.10148 0.47671 0.26801 0.0
H1021 H 0.13293 0.561 0.27305 0.0
H1022 H 0.0929 0.59727 0.18094 0.0
H1023 H 0.10331 0.58557 0.21378 0.0
C1024 C 0.83071 0.63716 0.56427 0.0
C1025 C 0.82906 0.61717 0.57884 0.0
C1026 C 0.82697 0.62936 0.54548 0.0
C1027 C 0.78912 0.57498 0.51891 0.0
H1028 H 0.81202 0.62136 0.47649 0.0
C1029 C 0.73517 0.56445 0.4471 0.0
C1030 C 0.72234 0.58961 0.44121 0.0
C1031 C 0.75607 0.56466 0.46092 0.0
C1032 C 0.8056 0.60813 0.48818 0.0
H1033 H 0.82504 0.57286 0.58505 0.0
H1034 H 0.81922 0.5588 0.5519 0.0
H1035 H 0.83716 0.62487 0.50653 0.0
H1036 H 0.7232 0.6349 0.44392 0.0
H1037 H 0.76029 0.63534 0.46802 0.0
H1038 H 0.75746 0.55843 0.50056 0.0
C1039 C 0.82265 0.58077 0.55511 0.0
C1040 C 0.81989 0.61015 0.50543 0.0
C1041 C 0.82634 0.58869 0.57409 0.0
C1042 C 0.73272 0.61522 0.44817 0.0
C1043 C 0.7539 0.61544 0.46196 0.0
C1044 C 0.77522 0.5726 0.50159 0.0
C1045 C 0.82161 0.60123 0.54066 0.0
C1046 C 0.81109 0.59444 0.52128 0.0
C1047 C 0.76491 0.59006 0.46901 0.0
C1048 C 0.78269 0.58982 0.48625 0.0
H1049 H 0.83307 0.6593 0.5675 0.0
H1050 H 0.82612 0.64588 0.53499 0.0
H1051 H 0.78133 0.5628 0.53072 0.0
H1052 H 0.72799 0.5444 0.44169 0.0
H1053 H 0.7645 0.54484 0.46587 0.0
C1054 C 0.11242 0.0927 0.81567 0.0
C1055 C 0.12929 0.07933 0.82921 0.0
C1056 C 0.11703 0.08821 0.79641 0.0
C1057 C 0.16334 0.05065 0.76166 0.0
H1058 H 0.09201 0.03536 0.73718 0.0
C1059 C 0.1602 0.99135 0.69115 0.0
C1060 C 0.14024 0.96968 0.69014 0.0
C1061 C 0.15822 0.01201 0.7051 0.0
C1062 C 0.11214 0.03946 0.74378 0.0
H1063 H 0.1652 0.05232 0.83349 0.0
H1064 H 0.17297 0.04368 0.79993 0.0
H1065 H 0.0927 0.05899 0.76752 0.0
H1066 H 0.10193 0.95315 0.70219 0.0
H1067 H 0.09863 0.98875 0.72691 0.0
H1068 H 0.18259 0.02908 0.73859 0.0
C1069 C 0.15662 0.0583 0.80396 0.0
C1070 C 0.11261 0.05352 0.76111 0.0
C1071 C 0.15232 0.0633 0.82325 0.0
C1072 C 0.11733 0.96991 0.70257 0.0
C1073 C 0.11552 0.99037 0.71672 0.0
C1074 C 0.16284 0.0363 0.74441 0.0
C1075 C 0.1381 0.06954 0.79034 0.0
C1076 C 0.13818 0.05871 0.77054 0.0
C1077 C 0.13649 0.01114 0.71857 0.0
C1078 C 0.13716 0.02987 0.73547 0.0
H1079 H 0.09437 0.10498 0.82002 0.0
H1080 H 0.10288 0.09792 0.78637 0.0
H1081 H 0.18344 0.05461 0.76831 0.0
H1082 H 0.17806 0.99154 0.68165 0.0
H1083 H 0.17435 0.02802 0.70577 0.0
C1084 C 0.66719 0.40363 0.07185 0.0
C1085 C 0.66515 0.37524 0.07698 0.0
C1086 C 0.67107 0.41108 0.05281 0.0
C1087 C 0.67565 0.38028 0.00358 0.0
H1088 H 0.73641 0.43389 0.99842 0.0
C1089 C 0.7635 0.37676 0.94672 0.0
C1090 C 0.77273 0.40253 0.93929 0.0
C1091 C 0.74241 0.37613 0.96056 0.0
C1092 C 0.71913 0.41917 0.99954 0.0
H1093 H 0.66253 0.33268 0.06621 0.0
H1094 H 0.66982 0.34529 0.03359 0.0
H1095 H 0.71227 0.42957 0.0285 0.0
H1096 H 0.7651 0.44747 0.93905 0.0
H1097 H 0.72885 0.44633 0.96339 0.0
H1098 H 0.6843 0.36855 0.97485 0.0
C1099 C 0.66829 0.3621 0.04383 0.0
C1100 C 0.70506 0.41681 0.0168 0.0
C1101 C 0.66434 0.35477 0.06269 0.0
C1102 C 0.75889 0.42733 0.94484 0.0
C1103 C 0.73811 0.42673 0.95873 0.0
C1104 C 0.69012 0.38229 0.98641 0.0
C1105 C 0.67299 0.39022 0.03866 0.0
C1106 C 0.68368 0.39673 0.01928 0.0
C1107 C 0.73035 0.40126 0.96721 0.0
C1108 C 0.71243 0.40131 0.98438 0.0
H1109 H 0.66784 0.41983 0.0826 0.0
H1110 H 0.67396 0.43303 0.04932 0.0
H1111 H 0.65884 0.36506 0.00475 0.0
H1112 H 0.77378 0.35735 0.94275 0.0
H1113 H 0.73686 0.35619 0.96693 0.0
C1114 C 0.33763 0.00515 0.19296 0.0
C1115 C 0.35529 0.02876 0.19194 0.0
C1116 C 0.33899 0.98701 0.20849 0.0
C1117 C 0.35576 0.94754 0.24197 0.0
H1118 H 0.34716 0.99006 0.28841 0.0
C1119 C 0.38166 0.90985 0.3176 0.0
C1120 C 0.36486 0.91972 0.3325 0.0
C1121 C 0.37525 0.91679 0.29892 0.0
C1122 C 0.34913 0.97785 0.27555 0.0
H1123 H 0.389 0.05136 0.20569 0.0
H1124 H 0.39122 0.01979 0.23304 0.0
H1125 H 0.35064 0.01475 0.2583 0.0
H1126 H 0.32711 0.94264 0.33966 0.0
H1127 H 0.31596 0.95518 0.30687 0.0
H1128 H 0.35526 0.91062 0.25947 0.0
C1129 C 0.37654 0.01519 0.22176 0.0
C1130 C 0.35157 0.99201 0.25837 0.0
C1131 C 0.3755 0.03304 0.20607 0.0
C1132 C 0.34008 0.93441 0.32836 0.0
C1133 C 0.33393 0.94183 0.30965 0.0
C1134 C 0.35386 0.93333 0.25929 0.0
C1135 C 0.35763 0.9926 0.22339 0.0
C1136 C 0.3552 0.97705 0.24145 0.0
C1137 C 0.35226 0.93424 0.29489 0.0
C1138 C 0.35063 0.9484 0.27625 0.0
H1139 H 0.32165 0.00172 0.1823 0.0
H1140 H 0.32414 0.96982 0.20946 0.0
H1141 H 0.35837 0.93557 0.22907 0.0
H1142 H 0.40107 0.89876 0.32053 0.0
H1143 H 0.38983 0.91078 0.28787 0.0
C1144 C 0.28217 0.36595 0.54631 0.0
C1145 C 0.27769 0.38578 0.56064 0.0
C1146 C 0.26432 0.3651 0.53062 0.0
C1147 C 0.24134 0.39096 0.49429 0.0
H1148 H 0.15994 0.3874 0.49275 0.0
C1149 C 0.18448 0.40497 0.42424 0.0
C1150 C 0.1697 0.38042 0.41966 0.0
C1151 C 0.19175 0.41044 0.44307 0.0
C1152 C 0.18265 0.38876 0.49307 0.0
H1153 H 0.25026 0.41884 0.57067 0.0
H1154 H 0.2184 0.41668 0.54348 0.0
H1155 H 0.18457 0.3832 0.52321 0.0
H1156 H 0.14846 0.3439 0.43097 0.0
H1157 H 0.16026 0.35393 0.46384 0.0
H1158 H 0.23971 0.39642 0.46432 0.0
C1159 C 0.23573 0.40197 0.5443 0.0
C1160 C 0.19668 0.38623 0.51041 0.0
C1161 C 0.25384 0.40314 0.55985 0.0
C1162 C 0.15963 0.36314 0.43425 0.0
C1163 C 0.16643 0.36885 0.45305 0.0
C1164 C 0.22737 0.39401 0.47709 0.0
C1165 C 0.24156 0.38382 0.52917 0.0
C1166 C 0.22619 0.38676 0.51108 0.0
C1167 C 0.18394 0.39163 0.45751 0.0
C1168 C 0.19792 0.39257 0.47623 0.0
H1169 H 0.30067 0.3527 0.54652 0.0
H1170 H 0.2691 0.35078 0.51916 0.0
H1171 H 0.26409 0.3919 0.49448 0.0
H1172 H 0.19283 0.41832 0.41318 0.0
H1173 H 0.20515 0.42825 0.44619 0.0
C1174 C 0.84181 0.93898 0.17476 0.0
C1175 C 0.86363 0.92099 0.16927 0.0
C1176 C 0.83729 0.94467 0.19395 0.0
C1177 C 0.88001 0.94696 0.2374 0.0
H1178 H 0.81089 0.97487 0.25929 0.0
C1179 C 0.83394 0.00915 0.30775 0.0
C1180 C 0.85461 0.03007 0.30922 0.0
C1181 C 0.83534 0.98897 0.29346 0.0
C1182 C 0.83037 0.9667 0.25362 0.0
H1183 H 0.89608 0.89283 0.17919 0.0
H1184 H 0.88717 0.90131 0.21265 0.0
H1185 H 0.80945 0.94994 0.2293 0.0
H1186 H 0.89363 0.04568 0.29765 0.0
H1187 H 0.89605 0.01077 0.27239 0.0
H1188 H 0.90094 0.96371 0.26168 0.0
C1189 C 0.87414 0.91187 0.20231 0.0
C1190 C 0.82955 0.95268 0.23625 0.0
C1191 C 0.87894 0.9066 0.18317 0.0
C1192 C 0.87768 0.02948 0.29693 0.0
C1193 C 0.87896 0.00945 0.28246 0.0
C1194 C 0.88081 0.96078 0.25482 0.0
C1195 C 0.85442 0.93224 0.20791 0.0
C1196 C 0.85444 0.94325 0.22766 0.0
C1197 C 0.85726 0.98956 0.28013 0.0
C1198 C 0.8561 0.97149 0.26293 0.0
H1199 H 0.8302 0.95077 0.16424 0.0
H1200 H 0.82202 0.96059 0.19765 0.0
H1201 H 0.89974 0.9404 0.23119 0.0
H1202 H 0.81592 0.00928 0.31712 0.0
H1203 H 0.81863 0.97361 0.2924 0.0
C1204 C 0.22017 0.62825 0.04859 0.0
C1205 C 0.21978 0.60544 0.0611 0.0
C1206 C 0.24055 0.62973 0.03435 0.0
C1207 C 0.28559 0.5817 0.00662 0.0
H1208 H 0.30951 0.65135 0.98339 0.0
C1209 C 0.31284 0.59171 0.92775 0.0
C1210 C 0.32947 0.61433 0.92181 0.0
C1211 C 0.30769 0.5875 0.94703 0.0
C1212 C 0.30367 0.63156 0.98983 0.0
H1213 H 0.24129 0.56746 0.06964 0.0
H1214 H 0.2776 0.57057 0.04535 0.0
H1215 H 0.28586 0.65253 0.01373 0.0
H1216 H 0.35591 0.64863 0.93104 0.0
H1217 H 0.34853 0.64026 0.96469 0.0
H1218 H 0.3035 0.56073 0.98272 0.0
C1219 C 0.26178 0.58689 0.04603 0.0
C1220 C 0.28962 0.63233 0.00716 0.0
C1221 C 0.24123 0.58526 0.06008 0.0
C1222 C 0.34321 0.63085 0.93537 0.0
C1223 C 0.33854 0.62634 0.95462 0.0
C1224 C 0.2999 0.58091 0.98936 0.0
C1225 C 0.26105 0.60851 0.03249 0.0
C1226 C 0.27964 0.60749 0.01553 0.0
C1227 C 0.31933 0.60573 0.96066 0.0
C1228 C 0.30843 0.60589 0.98044 0.0
H1229 H 0.20359 0.64383 0.04897 0.0
H1230 H 0.23906 0.64656 0.02411 0.0
H1231 H 0.27804 0.5621 0.01248 0.0
H1232 H 0.30153 0.57914 0.91749 0.0
H1233 H 0.29265 0.5715 0.95103 0.0
C1234 C 0.65427 0.06279 0.67816 0.0
C1235 C 0.63181 0.07954 0.67209 0.0
C1236 C 0.65822 0.0576 0.69747 0.0
C1237 C 0.61378 0.05388 0.74015 0.0
H1238 H 0.68312 0.02885 0.7633 0.0
C1239 C 0.65976 0.99304 0.81117 0.0
C1240 C 0.63971 0.97146 0.81228 0.0
C1241 C 0.6581 0.01334 0.79695 0.0
C1242 C 0.66355 0.03623 0.75729 0.0
H1243 H 0.5975 0.10607 0.68114 0.0
H1244 H 0.60538 0.09858 0.71484 0.0
H1245 H 0.68469 0.05372 0.73331 0.0
H1246 H 0.60149 0.95483 0.80016 0.0
H1247 H 0.59868 0.98988 0.77503 0.0
H1248 H 0.59264 0.03646 0.76413 0.0
C1249 C 0.61939 0.08855 0.70484 0.0
C1250 C 0.66446 0.0502 0.7399 0.0
C1251 C 0.61516 0.09329 0.68557 0.0
C1252 C 0.61695 0.97153 0.79972 0.0
C1253 C 0.61544 0.99165 0.78532 0.0
C1254 C 0.61289 0.04014 0.75761 0.0
C1255 C 0.63987 0.06931 0.711 0.0
C1256 C 0.63954 0.05855 0.73083 0.0
C1257 C 0.63658 0.01222 0.78333 0.0
C1258 C 0.63769 0.03041 0.76617 0.0
H1259 H 0.66694 0.05146 0.66796 0.0
H1260 H 0.67412 0.04253 0.70157 0.0
H1261 H 0.59405 0.05958 0.73359 0.0
H1262 H 0.67753 0.99334 0.82074 0.0
H1263 H 0.67435 0.02921 0.79617 0.0
C1264 C 0.41555 0.17378 0.13588 0.0
C1265 C 0.3907 0.18913 0.13308 0.0
C1266 C 0.44165 0.18727 0.13563 0.0
C1267 C 0.47603 0.25427 0.12086 0.0
H1268 H 0.5356 0.22839 0.15397 0.0
C1269 C 0.57793 0.31717 0.13512 0.0
C1270 C 0.60312 0.30213 0.13286 0.0
C1271 C 0.55211 0.30319 0.13501 0.0
C1272 C 0.51916 0.23571 0.14459 0.0
H1273 H 0.37364 0.23072 0.12815 0.0
H1274 H 0.41889 0.2544 0.12847 0.0
H1275 H 0.49023 0.20455 0.15428 0.0
H1276 H 0.62103 0.26063 0.12898 0.0
H1277 H 0.57584 0.23616 0.12923 0.0
H1278 H 0.50492 0.28603 0.11169 0.0
C1279 C 0.41848 0.23182 0.13023 0.0
C1280 C 0.49319 0.22198 0.14466 0.0
C1281 C 0.39245 0.21826 0.13018 0.0
C1282 C 0.60197 0.27279 0.1307 0.0
C1283 C 0.57617 0.25877 0.13093 0.0
C1284 C 0.50184 0.26826 0.12103 0.0
C1285 C 0.44348 0.21652 0.13286 0.0
C1286 C 0.47125 0.23104 0.13277 0.0
C1287 C 0.55101 0.27386 0.13297 0.0
C1288 C 0.52364 0.25907 0.13287 0.0
H1289 H 0.41487 0.15126 0.13802 0.0
H1290 H 0.46039 0.17466 0.13736 0.0
H1291 H 0.45996 0.26154 0.1112 0.0
H1292 H 0.57814 0.3398 0.13676 0.0
H1293 H 0.53298 0.31526 0.13671 0.0
C1294 C 0.57278 0.66697 0.38596 0.0
C1295 C 0.55711 0.64221 0.38365 0.0
C1296 C 0.55949 0.69319 0.38553 0.0
C1297 C 0.49205 0.7276 0.37149 0.0
H1298 H 0.5185 0.78718 0.40436 0.0
C1299 C 0.42868 0.82882 0.38714 0.0
C1300 C 0.4435 0.85409 0.38467 0.0
C1301 C 0.44284 0.80309 0.38671 0.0
C1302 C 0.51101 0.77073 0.39505 0.0
H1303 H 0.51519 0.62547 0.37939 0.0
H1304 H 0.49197 0.67079 0.3794 0.0
H1305 H 0.54281 0.74207 0.40416 0.0
H1306 H 0.48478 0.87226 0.3801 0.0
H1307 H 0.50949 0.8273 0.37978 0.0
H1308 H 0.45967 0.75619 0.36292 0.0
C1309 C 0.51461 0.67027 0.38088 0.0
C1310 C 0.52502 0.74493 0.39482 0.0
C1311 C 0.52793 0.64418 0.38101 0.0
C1312 C 0.47276 0.85313 0.38198 0.0
C1313 C 0.48695 0.82746 0.38189 0.0
C1314 C 0.4778 0.75324 0.37197 0.0
C1315 C 0.53017 0.69518 0.38308 0.0
C1316 C 0.51571 0.72297 0.38304 0.0
C1317 C 0.4721 0.80221 0.38415 0.0
C1318 C 0.48715 0.77502 0.38374 0.0
H1319 H 0.59534 0.66612 0.38793 0.0
H1320 H 0.57227 0.71189 0.38697 0.0
H1321 H 0.48458 0.71151 0.36191 0.0
H1322 H 0.40613 0.82891 0.38921 0.0
H1323 H 0.43097 0.78387 0.38859 0.0
C1324 C 0.91767 0.6756 0.63613 0.0
C1325 C 0.89268 0.6908 0.63356 0.0
C1326 C 0.94364 0.68934 0.63606 0.0
C1327 C 0.97747 0.75706 0.62227 0.0
H1328 H 0.03729 0.73032 0.65486 0.0
C1329 C 0.07967 0.81939 0.63718 0.0
C1330 C 0.10479 0.8043 0.63473 0.0
C1331 C 0.05378 0.80554 0.63683 0.0
C1332 C 0.02078 0.73788 0.64563 0.0
H1333 H 0.8752 0.73236 0.62924 0.0
H1334 H 0.92024 0.75647 0.6299 0.0
H1335 H 0.992 0.70637 0.65497 0.0
H1336 H 0.1225 0.76285 0.63019 0.0
H1337 H 0.0772 0.73862 0.63001 0.0
H1338 H 0.00624 0.78915 0.61346 0.0
C1339 C 0.92004 0.73384 0.63134 0.0
C1340 C 0.99485 0.7241 0.64558 0.0
C1341 C 0.89414 0.72003 0.63109 0.0
C1342 C 0.1035 0.77506 0.63207 0.0
C1343 C 0.07763 0.76117 0.63206 0.0
C1344 C 0.00325 0.7711 0.62257 0.0
C1345 C 0.94519 0.71868 0.63374 0.0
C1346 C 0.97284 0.73343 0.63385 0.0
C1347 C 0.05255 0.77629 0.63436 0.0
C1348 C 0.02516 0.76157 0.63419 0.0
H1349 H 0.91722 0.65301 0.63792 0.0
H1350 H 0.9625 0.67684 0.63759 0.0
H1351 H 0.96131 0.76457 0.61276 0.0
H1352 H 0.08 0.84195 0.63921 0.0
H1353 H 0.0347 0.81763 0.63874 0.0
C1354 C 0.96769 0.34955 0.88122 0.0
C1355 C 0.93844 0.3513 0.88358 0.0
C1356 C 0.98122 0.32356 0.88146 0.0
C1357 C 0.97113 0.24886 0.89549 0.0
H1358 H 0.03623 0.23775 0.86335 0.0
C1359 C 0.02346 0.14074 0.88192 0.0
C1360 C 0.05279 0.1399 0.88427 0.0
C1361 C 0.00915 0.16635 0.88218 0.0
C1362 C 0.01818 0.24066 0.87247 0.0
H1363 H 0.90035 0.32718 0.88783 0.0
H1364 H 0.92378 0.28161 0.88751 0.0
H1365 H 0.01136 0.28244 0.86254 0.0
H1366 H 0.09012 0.16521 0.88867 0.0
H1367 H 0.06508 0.21008 0.88869 0.0
H1368 H 0.97769 0.20653 0.9049 0.0
C1369 C 0.93645 0.30037 0.88601 0.0
C1370 C 0.00396 0.2663 0.87211 0.0
C1371 C 0.92295 0.32648 0.88608 0.0
C1372 C 0.06752 0.16519 0.88685 0.0
C1373 C 0.05325 0.19085 0.88679 0.0
C1374 C 0.98512 0.22304 0.89562 0.0
C1375 C 0.96579 0.29857 0.88373 0.0
C1376 C 0.98038 0.27087 0.88374 0.0
C1377 C 0.02394 0.19163 0.88448 0.0
C1378 C 0.00888 0.21881 0.88421 0.0
H1379 H 0.98028 0.36834 0.87947 0.0
H1380 H 0.00387 0.32317 0.8801 0.0
H1381 H 0.95339 0.25167 0.90488 0.0
H1382 H 0.01152 0.12158 0.87996 0.0
H1383 H 0.98657 0.16645 0.88027 0.0
C1384 C 0.60036 0.77623 0.86805 0.0
C1385 C 0.60226 0.80553 0.86593 0.0
C1386 C 0.57423 0.76289 0.86792 0.0
C1387 C 0.50012 0.7735 0.87781 0.0
H1388 H 0.48828 0.70986 0.84453 0.0
C1389 C 0.39123 0.7211 0.87018 0.0
C1390 C 0.39029 0.69189 0.86744 0.0
C1391 C 0.41685 0.73544 0.86967 0.0
C1392 C 0.49129 0.72729 0.85415 0.0
H1393 H 0.57825 0.84387 0.8623 0.0
H1394 H 0.5324 0.82047 0.86252 0.0
H1395 H 0.53351 0.73385 0.84459 0.0
H1396 H 0.41547 0.65471 0.86239 0.0
H1397 H 0.4602 0.67944 0.86226 0.0
H1398 H 0.45839 0.76653 0.88792 0.0
C1399 C 0.55125 0.80793 0.86412 0.0
C1400 C 0.51718 0.74112 0.85407 0.0
C1401 C 0.57744 0.82126 0.86391 0.0
C1402 C 0.4155 0.67727 0.86438 0.0
C1403 C 0.44116 0.69154 0.86417 0.0
C1404 C 0.47435 0.75941 0.87813 0.0
C1405 C 0.54945 0.77861 0.86599 0.0
C1406 C 0.52182 0.76432 0.86589 0.0
C1407 C 0.4422 0.72085 0.86672 0.0
C1408 C 0.46957 0.73608 0.8663 0.0
H1409 H 0.61911 0.76353 0.86958 0.0
H1410 H 0.57337 0.74027 0.86952 0.0
H1411 H 0.50331 0.7912 0.88719 0.0
H1412 H 0.37211 0.73298 0.87243 0.0
H1413 H 0.41667 0.75805 0.87135 0.0
C1414 C 0.46936 0.35103 0.61959 0.0
C1415 C 0.44006 0.35232 0.61723 0.0
C1416 C 0.48329 0.32522 0.61921 0.0
C1417 C 0.47371 0.25082 0.6283 0.0
H1418 H 0.53826 0.24036 0.59561 0.0
C1419 C 0.5263 0.14253 0.61985 0.0
C1420 C 0.55557 0.14157 0.61747 0.0
C1421 C 0.51206 0.16817 0.61946 0.0
C1422 C 0.52057 0.243 0.60506 0.0
H1423 H 0.40233 0.32759 0.61282 0.0
H1424 H 0.42673 0.28233 0.6126 0.0
H1425 H 0.51383 0.28538 0.59587 0.0
H1426 H 0.59299 0.1667 0.61307 0.0
H1427 H 0.56837 0.21154 0.61314 0.0
H1428 H 0.4808 0.20897 0.63805 0.0
C1429 C 0.43883 0.30139 0.61458 0.0
C1430 C 0.50651 0.26876 0.6051 0.0
C1431 C 0.42493 0.32725 0.61463 0.0
C1432 C 0.57037 0.16678 0.6148 0.0
C1433 C 0.55619 0.19248 0.61472 0.0
C1434 C 0.48803 0.22521 0.62851 0.0
C1435 C 0.46814 0.30018 0.61679 0.0
C1436 C 0.48292 0.27285 0.61668 0.0
C1437 C 0.52681 0.19353 0.617 0.0
C1438 C 0.51162 0.2209 0.61685 0.0
H1439 H 0.48159 0.37 0.62157 0.0
H1440 H 0.50588 0.3248 0.62106 0.0
H1441 H 0.45575 0.25361 0.63752 0.0
H1442 H 0.51428 0.12341 0.62177 0.0
H1443 H 0.48941 0.168 0.62087 0.0
C1444 C 0.10029 0.27617 0.36994 0.0
C1445 C 0.10218 0.30537 0.36727 0.0
C1446 C 0.07416 0.26285 0.3701 0.0
C1447 C 7e-05 0.27389 0.37981 0.0
H1448 H 0.98797 0.20965 0.34712 0.0
C1449 C 0.89063 0.2229 0.37125 0.0
C1450 C 0.88931 0.19373 0.36844 0.0
C1451 C 0.91651 0.23678 0.37129 0.0
C1452 C 0.99106 0.22723 0.3566 0.0
H1453 H 0.07818 0.34357 0.36298 0.0
H1454 H 0.03234 0.32023 0.3637 0.0
H1455 H 0.03339 0.23324 0.34711 0.0
H1456 H 0.91404 0.15607 0.36404 0.0
H1457 H 0.95919 0.17998 0.36489 0.0
H1458 H 0.95817 0.26752 0.38981 0.0
C1459 C 0.05118 0.30774 0.3655 0.0
C1460 C 0.01706 0.24083 0.35648 0.0
C1461 C 0.07737 0.32103 0.365 0.0
C1462 C 0.91439 0.17862 0.36605 0.0
C1463 C 0.94028 0.19241 0.3664 0.0
C1464 C 0.97418 0.26002 0.38018 0.0
C1465 C 0.04938 0.27852 0.36792 0.0
C1466 C 0.02176 0.26428 0.36805 0.0
C1467 C 0.9417 0.22173 0.36882 0.0
C1468 C 0.9693 0.23651 0.36855 0.0
H1469 H 0.11904 0.26353 0.37169 0.0
H1470 H 0.07327 0.24031 0.37211 0.0
H1471 H 0.00332 0.2918 0.389 0.0
H1472 H 0.87162 0.23513 0.37301 0.0
H1473 H 0.91666 0.25939 0.37289 0.0
C1474 C 0.02434 0.64289 0.11828 0.0
C1475 C 0.05364 0.64184 0.11585 0.0
C1476 C 0.01026 0.66862 0.1183 0.0
C1477 C 0.01967 0.74277 0.12847 0.0
H1478 H 0.95513 0.75436 0.09592 0.0
C1479 C 0.96914 0.85187 0.12005 0.0
C1480 C 0.93994 0.85358 0.11743 0.0
C1481 C 0.98271 0.82589 0.1199 0.0
C1482 C 0.9728 0.75138 0.10536 0.0
H1483 H 0.0912 0.6669 0.11171 0.0
H1484 H 0.06656 0.71202 0.11219 0.0
H1485 H 0.9793 0.70918 0.09572 0.0
H1486 H 0.90195 0.82939 0.11291 0.0
H1487 H 0.92543 0.78388 0.11338 0.0
H1488 H 0.01287 0.78445 0.13863 0.0
C1489 C 0.05457 0.69284 0.11392 0.0
C1490 C 0.98672 0.72554 0.10513 0.0
C1491 C 0.06861 0.66706 0.11357 0.0
C1492 C 0.92452 0.82873 0.11484 0.0
C1493 C 0.93805 0.80265 0.11498 0.0
C1494 C 0.0055 0.76845 0.12895 0.0
C1495 C 0.02527 0.69382 0.11623 0.0
C1496 C 0.01037 0.72109 0.11659 0.0
C1497 C 0.96737 0.80089 0.11743 0.0
C1498 C 0.98198 0.7732 0.11729 0.0
H1499 H 0.01222 0.62379 0.12002 0.0
H1500 H 0.98768 0.66887 0.12022 0.0
H1501 H 0.03766 0.73968 0.13763 0.0
H1502 H 0.98166 0.87068 0.12191 0.0
H1503 H 0.00534 0.82552 0.12141 0.0
C1504 C 0.21661 0.27832 0.08953 0.0
C1505 C 0.24594 0.27604 0.09128 0.0
C1506 C 0.20384 0.30461 0.08855 0.0
C1507 C 0.21837 0.37627 0.10479 0.0
H1508 H 0.14624 0.39238 0.08168 0.0
C1509 C 0.16438 0.48418 0.10936 0.0
C1510 C 0.13559 0.48434 0.11379 0.0
C1511 C 0.17819 0.45903 0.10557 0.0
C1512 C 0.1663 0.388 0.08831 0.0
H1513 H 0.28508 0.29935 0.09129 0.0
H1514 H 0.26283 0.34532 0.08875 0.0
H1515 H 0.1708 0.34887 0.07374 0.0
H1516 H 0.09873 0.45834 0.11801 0.0
H1517 H 0.12305 0.41403 0.11126 0.0
H1518 H 0.21388 0.41546 0.11926 0.0
C1519 C 0.24963 0.32678 0.08884 0.0
C1520 C 0.1804 0.36318 0.08373 0.0
C1521 C 0.26242 0.30043 0.09001 0.0
C1522 C 0.12097 0.45876 0.11474 0.0
C1523 C 0.13477 0.43353 0.1107 0.0
C1524 C 0.20441 0.40115 0.1092 0.0
C1525 C 0.22016 0.3292 0.08906 0.0
C1526 C 0.20648 0.35687 0.09209 0.0
C1527 C 0.16346 0.43352 0.10594 0.0
C1528 C 0.17813 0.40711 0.10116 0.0
H1529 H 0.20341 0.2598 0.09011 0.0
H1530 H 0.18111 0.30559 0.08873 0.0
H1531 H 0.23805 0.37185 0.11187 0.0
H1532 H 0.17621 0.50359 0.10851 0.0
H1533 H 0.20026 0.45962 0.10184 0.0
C1534 C 0.2865 0.36738 0.36275 0.0
C1535 C 0.26167 0.38323 0.36221 0.0
C1536 C 0.31224 0.37986 0.35825 0.0
C1537 C 0.34227 0.44274 0.33429 0.0
H1538 H 0.40922 0.42254 0.36234 0.0
C1539 C 0.4434 0.50971 0.34083 0.0
C1540 C 0.46898 0.49513 0.34186 0.0
C1541 C 0.41818 0.49492 0.33884 0.0
C1542 C 0.39079 0.42806 0.35415 0.0
H1543 H 0.24429 0.42472 0.35726 0.0
H1544 H 0.28915 0.44669 0.35023 0.0
H1545 H 0.36513 0.39895 0.36929 0.0
H1546 H 0.48878 0.4543 0.33945 0.0
H1547 H 0.44477 0.42851 0.33596 0.0
H1548 H 0.36801 0.47284 0.31979 0.0
C1549 C 0.2888 0.42445 0.35343 0.0
C1550 C 0.3655 0.41453 0.35813 0.0
C1551 C 0.26311 0.41192 0.35768 0.0
C1552 C 0.46923 0.46594 0.33896 0.0
C1553 C 0.44411 0.4512 0.33704 0.0
C1554 C 0.36756 0.45653 0.33047 0.0
C1555 C 0.31364 0.4085 0.35336 0.0
C1556 C 0.34085 0.42189 0.3484 0.0
C1557 C 0.41833 0.46542 0.33789 0.0
C1558 C 0.39199 0.44941 0.34046 0.0
H1559 H 0.28594 0.34515 0.366 0.0
H1560 H 0.33092 0.36687 0.35817 0.0
H1561 H 0.32381 0.44853 0.32624 0.0
H1562 H 0.44269 0.5322 0.34313 0.0
H1563 H 0.39854 0.50637 0.33956 0.0
C1564 C 0.27909 0.7167 0.59149 0.0
C1565 C 0.24978 0.71916 0.59326 0.0
C1566 C 0.29173 0.69032 0.59066 0.0
C1567 C 0.27686 0.61897 0.60737 0.0
H1568 H 0.34857 0.60192 0.58401 0.0
C1569 C 0.32967 0.51053 0.61216 0.0
C1570 C 0.35853 0.51005 0.61635 0.0
C1571 C 0.31611 0.53581 0.60836 0.0
C1572 C 0.32864 0.60656 0.59071 0.0
H1573 H 0.21054 0.696 0.59349 0.0
H1574 H 0.23254 0.64993 0.59121 0.0
H1575 H 0.32438 0.64561 0.57599 0.0
H1576 H 0.39578 0.53565 0.62015 0.0
H1577 H 0.37189 0.58018 0.61341 0.0
H1578 H 0.28109 0.57988 0.622 0.0
C1579 C 0.24583 0.66839 0.59117 0.0
C1580 C 0.31474 0.63149 0.58609 0.0
C1581 C 0.23318 0.69482 0.59219 0.0
C1582 C 0.37348 0.53546 0.61708 0.0
C1583 C 0.35992 0.56083 0.61304 0.0
C1584 C 0.29061 0.59399 0.61182 0.0
C1585 C 0.27528 0.66583 0.59136 0.0
C1586 C 0.2888 0.63811 0.59452 0.0
C1587 C 0.33116 0.56114 0.60849 0.0
C1588 C 0.31673 0.58768 0.60369 0.0
H1589 H 0.2924 0.73516 0.5919 0.0
H1590 H 0.31446 0.68922 0.5908 0.0
H1591 H 0.25729 0.62365 0.61451 0.0
H1592 H 0.31759 0.49126 0.61149 0.0
H1593 H 0.29397 0.53546 0.6048 0.0
C1594 C 0.03148 0.52198 0.8381 0.0
C1595 C 0.02903 0.49286 0.84088 0.0
C1596 C 0.05784 0.53468 0.83744 0.0
C1597 C 0.12814 0.52154 0.85667 0.0
H1598 H 0.14567 0.59231 0.83219 0.0
C1599 C 0.23508 0.57737 0.86355 0.0
C1600 C 0.23453 0.60642 0.86707 0.0
C1601 C 0.2104 0.56289 0.85944 0.0
C1602 C 0.14089 0.57264 0.8392 0.0
H1603 H 0.05219 0.4538 0.84298 0.0
H1604 H 0.09839 0.47584 0.84103 0.0
H1605 H 0.10314 0.5668 0.82324 0.0
H1606 H 0.20772 0.64304 0.86944 0.0
H1607 H 0.16425 0.61754 0.8621 0.0
H1608 H 0.16599 0.52737 0.87252 0.0
C1609 C 0.07988 0.489 0.84007 0.0
C1610 C 0.11663 0.55798 0.83405 0.0
C1611 C 0.05343 0.47631 0.84089 0.0
C1612 C 0.20868 0.62062 0.86691 0.0
C1613 C 0.18394 0.60613 0.86252 0.0
C1614 C 0.1525 0.53604 0.86165 0.0
C1615 C 0.08235 0.51846 0.83934 0.0
C1616 C 0.10976 0.53242 0.84291 0.0
C1617 C 0.18469 0.5772 0.85855 0.0
C1618 C 0.15891 0.56187 0.85314 0.0
H1619 H 0.01295 0.53519 0.83772 0.0
H1620 H 0.05883 0.55738 0.83686 0.0
H1621 H 0.12325 0.50229 0.86414 0.0
H1622 H 0.25473 0.56588 0.86358 0.0
H1623 H 0.21157 0.54062 0.85637 0.0
C1624 C 0.73878 0.69412 0.9077 0.0
C1625 C 0.75288 0.71989 0.90597 0.0
C1626 C 0.75406 0.66922 0.90965 0.0
C1627 C 0.82051 0.64198 0.89339 0.0
H1628 H 0.80184 0.57615 0.92305 0.0
C1629 C 0.88056 0.53716 0.88524 0.0
C1630 C 0.86449 0.51251 0.88652 0.0
C1631 C 0.86851 0.56315 0.88957 0.0
C1632 C 0.80714 0.59429 0.91453 0.0
H1633 H 0.79354 0.74036 0.90707 0.0
H1634 H 0.8202 0.69687 0.91039 0.0
H1635 H 0.77767 0.62046 0.92922 0.0
H1636 H 0.82307 0.4957 0.89255 0.0
H1637 H 0.80184 0.54095 0.89931 0.0
H1638 H 0.84896 0.61582 0.87808 0.0
C1639 C 0.79747 0.69584 0.9099 0.0
C1640 C 0.79343 0.61964 0.91818 0.0
C1641 C 0.78224 0.72066 0.90803 0.0
C1642 C 0.83602 0.51437 0.89158 0.0
C1643 C 0.82393 0.54029 0.89567 0.0
C1644 C 0.83397 0.61661 0.88959 0.0
C1645 C 0.78359 0.66985 0.90986 0.0
C1646 C 0.79982 0.64363 0.90752 0.0
C1647 C 0.84012 0.56495 0.89505 0.0
C1648 C 0.82718 0.59236 0.89993 0.0
H1649 H 0.71617 0.69297 0.90607 0.0
H1650 H 0.74288 0.6494 0.90955 0.0
H1651 H 0.82548 0.66008 0.88472 0.0
H1652 H 0.90263 0.53626 0.88155 0.0
H1653 H 0.88163 0.58172 0.88908 0.0
C1654 C 0.70892 0.62449 0.63454 0.0
C1655 C 0.73447 0.60976 0.63496 0.0
C1656 C 0.68367 0.61055 0.63841 0.0
C1657 C 0.65114 0.54085 0.63862 0.0
H1658 H 0.59946 0.57274 0.67516 0.0
C1659 C 0.55139 0.48121 0.65844 0.0
C1660 C 0.52676 0.49742 0.65797 0.0
C1661 C 0.57766 0.49428 0.65917 0.0
C1662 C 0.61359 0.56363 0.66485 0.0
H1663 H 0.75363 0.56884 0.63915 0.0
H1664 H 0.70967 0.5446 0.64556 0.0
H1665 H 0.64275 0.59778 0.6673 0.0
H1666 H 0.51014 0.53971 0.66 0.0
H1667 H 0.55576 0.56251 0.66063 0.0
H1668 H 0.62189 0.5072 0.63561 0.0
C1669 C 0.7091 0.56684 0.64235 0.0
C1670 C 0.63829 0.57801 0.66033 0.0
C1671 C 0.73425 0.58077 0.63872 0.0
C1672 C 0.52882 0.52672 0.65997 0.0
C1673 C 0.55503 0.53978 0.66052 0.0
C1674 C 0.62637 0.52661 0.64299 0.0
C1675 C 0.68362 0.58164 0.64249 0.0
C1676 C 0.65722 0.56677 0.64712 0.0
C1677 C 0.57977 0.52378 0.65931 0.0
C1678 C 0.60722 0.53786 0.6561 0.0
H1679 H 0.70852 0.64687 0.63179 0.0
H1680 H 0.66421 0.62234 0.63827 0.0
H1681 H 0.66528 0.53184 0.62827 0.0
H1682 H 0.5505 0.45859 0.65694 0.0
H1683 H 0.59634 0.48131 0.65872 0.0
C1684 C 0.70766 0.27064 0.41373 0.0
C1685 C 0.73701 0.27167 0.4116 0.0
C1686 C 0.69228 0.29529 0.41609 0.0
C1687 C 0.69606 0.37134 0.4255 0.0
H1688 H 0.64083 0.37632 0.38527 0.0
C1689 C 0.65557 0.47739 0.3986 0.0
C1690 C 0.62741 0.47973 0.39289 0.0
C1691 C 0.66693 0.45131 0.4032 0.0
C1692 C 0.65569 0.37521 0.39684 0.0
H1693 H 0.77352 0.29885 0.41213 0.0
H1694 H 0.74659 0.34205 0.41651 0.0
H1695 H 0.66394 0.33179 0.3916 0.0
H1696 H 0.58898 0.45665 0.38749 0.0
H1697 H 0.60866 0.41095 0.3959 0.0
H1698 H 0.68795 0.41482 0.43069 0.0
C1699 C 0.73552 0.32217 0.41626 0.0
C1700 C 0.66896 0.34966 0.40046 0.0
C1701 C 0.75094 0.29746 0.4138 0.0
C1702 C 0.61084 0.4554 0.39167 0.0
C1703 C 0.62214 0.42925 0.39649 0.0
C1704 C 0.68254 0.39686 0.42203 0.0
C1705 C 0.70599 0.32137 0.41652 0.0
C1706 C 0.68963 0.34761 0.41458 0.0
C1707 C 0.6503 0.42694 0.40242 0.0
C1708 C 0.66266 0.39925 0.40736 0.0
H1709 H 0.69646 0.25092 0.41243 0.0
H1710 H 0.66956 0.2941 0.4166 0.0
H1711 H 0.71179 0.37022 0.43654 0.0
H1712 H 0.66891 0.49578 0.39959 0.0
H1713 H 0.68886 0.45027 0.40721 0.0
C1714 C 0.75968 0.41547 0.13656 0.0
C1715 C 0.75963 0.38641 0.13305 0.0
C1716 C 0.78471 0.42951 0.14042 0.0
C1717 C 0.85505 0.41844 0.15939 0.0
H1718 H 0.87237 0.4889 0.1345 0.0
C1719 C 0.96501 0.46842 0.15898 0.0
C1720 C 0.96744 0.49766 0.15683 0.0
C1721 C 0.93864 0.45571 0.15966 0.0
C1722 C 0.86761 0.46959 0.14193 0.0
H1723 H 0.78577 0.34931 0.1305 0.0
H1724 H 0.8298 0.37404 0.13732 0.0
H1725 H 0.82893 0.4645 0.12691 0.0
H1726 H 0.94419 0.53679 0.15567 0.0
H1727 H 0.89808 0.51469 0.15764 0.0
H1728 H 0.89369 0.42354 0.17448 0.0
C1729 C 0.81032 0.3858 0.13713 0.0
C1730 C 0.84282 0.4555 0.13743 0.0
C1731 C 0.78523 0.37175 0.13304 0.0
C1732 C 0.94302 0.5142 0.1573 0.0
C1733 C 0.91659 0.50149 0.15814 0.0
C1734 C 0.87978 0.43268 0.16404 0.0
C1735 C 0.8102 0.41476 0.14103 0.0
C1736 C 0.83645 0.42966 0.14596 0.0
C1737 C 0.91411 0.47203 0.15841 0.0
C1738 C 0.8865 0.45828 0.1552 0.0
H1739 H 0.74025 0.42734 0.13668 0.0
H1740 H 0.784 0.4518 0.14347 0.0
H1741 H 0.85035 0.39875 0.1664 0.0
H1742 H 0.98353 0.45518 0.15902 0.0
H1743 H 0.9376 0.43299 0.15987 0.0
C1744 C 0.76502 0.80158 0.59073 0.0
C1745 C 0.74844 0.77722 0.59152 0.0
C1746 C 0.75233 0.828 0.58988 0.0
C1747 C 0.68332 0.86484 0.58512 0.0
H1748 H 0.71638 0.91511 0.62212 0.0
C1749 C 0.62362 0.95902 0.6176 0.0
C1750 C 0.63832 0.98459 0.61716 0.0
C1751 C 0.63747 0.93391 0.61332 0.0
C1752 C 0.70703 0.90136 0.61166 0.0
H1753 H 0.7059 0.76113 0.58976 0.0
H1754 H 0.68375 0.80703 0.58893 0.0
H1755 H 0.74055 0.87184 0.61386 0.0
H1756 H 0.6791 0.00393 0.61267 0.0
H1757 H 0.70323 0.96014 0.60559 0.0
H1758 H 0.64929 0.89422 0.58352 0.0
C1759 C 0.70648 0.80599 0.58889 0.0
C1760 C 0.72099 0.87669 0.60675 0.0
C1761 C 0.71916 0.77963 0.58955 0.0
C1762 C 0.66723 0.98451 0.61311 0.0
C1763 C 0.68107 0.95947 0.60908 0.0
C1764 C 0.66922 0.88944 0.59019 0.0
C1765 C 0.72287 0.83049 0.58996 0.0
C1766 C 0.70925 0.85803 0.59351 0.0
C1767 C 0.66625 0.93402 0.60883 0.0
C1768 C 0.6809 0.90781 0.60358 0.0
H1769 H 0.78765 0.8004 0.59218 0.0
H1770 H 0.76557 0.8465 0.5902 0.0
H1771 H 0.67384 0.85107 0.57474 0.0
H1772 H 0.6013 0.95855 0.62056 0.0
H1773 H 0.62569 0.91443 0.6134 0.0
C1774 C 0.78719 0.86575 0.8605 0.0
C1775 C 0.76257 0.88196 0.86094 0.0
C1776 C 0.81295 0.87822 0.85605 0.0
C1777 C 0.84303 0.94245 0.83384 0.0
H1778 H 0.91072 0.91936 0.86002 0.0
C1779 C 0.94498 0.00801 0.84023 0.0
C1780 C 0.97057 0.99333 0.84005 0.0
C1781 C 0.91957 0.99345 0.83866 0.0
C1782 C 0.89206 0.92571 0.85236 0.0
H1783 H 0.74565 0.92401 0.85777 0.0
H1784 H 0.79058 0.9459 0.85081 0.0
H1785 H 0.86657 0.89576 0.86687 0.0
H1786 H 0.98989 0.95253 0.836 0.0
H1787 H 0.94552 0.92712 0.83339 0.0
H1788 H 0.86862 0.9733 0.81997 0.0
C1789 C 0.79001 0.92344 0.85321 0.0
C1790 C 0.86674 0.91218 0.85628 0.0
C1791 C 0.76428 0.91094 0.85742 0.0
C1792 C 0.97041 0.96427 0.83654 0.0
C1793 C 0.94508 0.94974 0.83508 0.0
C1794 C 0.86835 0.95621 0.83008 0.0
C1795 C 0.81461 0.90719 0.85218 0.0
C1796 C 0.84184 0.92058 0.84723 0.0
C1797 C 0.91945 0.96403 0.83693 0.0
C1798 C 0.89304 0.94809 0.83942 0.0
H1799 H 0.78642 0.84331 0.86297 0.0
H1800 H 0.83143 0.86502 0.85521 0.0
H1801 H 0.82436 0.94907 0.82631 0.0
H1802 H 0.94448 0.03037 0.84302 0.0
H1803 H 0.90007 0.00495 0.84018 0.0
C1804 C 0.83651 0.01589 0.10724 0.0
C1805 C 0.86497 0.01424 0.11234 0.0
C1806 C 0.82437 0.04167 0.1028 0.0
C1807 C 0.83448 0.11827 0.10769 0.0
H1808 H 0.77766 0.12072 0.06834 0.0
C1809 C 0.78254 0.22165 0.08754 0.0
C1810 C 0.75325 0.221 0.09009 0.0
C1811 C 0.79772 0.19673 0.08602 0.0
C1812 C 0.79357 0.12029 0.07929 0.0
H1813 H 0.90306 0.0382 0.11701 0.0
H1814 H 0.88201 0.08338 0.10882 0.0
H1815 H 0.8019 0.07663 0.07509 0.0
H1816 H 0.71659 0.19404 0.09118 0.0
H1817 H 0.74318 0.15036 0.0882 0.0
H1818 H 0.82611 0.16194 0.11184 0.0
C1819 C 0.8689 0.06479 0.10859 0.0
C1820 C 0.80732 0.09507 0.08329 0.0
C1821 C 0.88099 0.03895 0.11329 0.0
C1822 C 0.73913 0.19514 0.08916 0.0
C1823 C 0.75435 0.17016 0.08751 0.0
C1824 C 0.82101 0.14352 0.10352 0.0
C1825 C 0.84051 0.06638 0.10308 0.0
C1826 C 0.82753 0.09364 0.09781 0.0
C1827 C 0.78385 0.17077 0.08683 0.0
C1828 C 0.80013 0.14466 0.0895 0.0
H1829 H 0.82359 0.99717 0.10652 0.0
H1830 H 0.80228 0.04217 0.09915 0.0
H1831 H 0.8496 0.1179 0.11913 0.0
H1832 H 0.79388 0.24138 0.08786 0.0
H1833 H 0.82043 0.19772 0.08517 0.0
C1834 C 0.52755 0.0286 0.33762 0.0
C1835 C 0.52567 -0.00076 0.33927 0.0
C1836 C 0.55361 0.04161 0.33563 0.0
C1837 C 0.62626 0.02708 0.34943 0.0
H1838 H 0.64012 0.10061 0.32773 0.0
C1839 C 0.73297 0.08293 0.35472 0.0
C1840 C 0.73251 0.11128 0.36027 0.0
C1841 C 0.70816 0.06897 0.35026 0.0
C1842 C 0.63639 0.08013 0.33392 0.0
H1843 H 0.54922 0.96032 0.33784 0.0
H1844 H 0.59467 0.98299 0.33351 0.0
H1845 H 0.59665 0.07567 0.32007 0.0
H1846 H 0.70573 0.14724 0.3656 0.0
H1847 H 0.66197 0.12259 0.35773 0.0
H1848 H 0.66593 0.03157 0.36327 0.0
C1849 C 0.57608 0.99602 0.33451 0.0
C1850 C 0.6116 0.06581 0.32951 0.0
C1851 C 0.54999 0.98299 0.33672 0.0
C1852 C 0.70664 0.12534 0.36149 0.0
C1853 C 0.68172 0.11137 0.35681 0.0
C1854 C 0.65108 0.04125 0.35366 0.0
C1855 C 0.57831 0.02549 0.33499 0.0
C1856 C 0.60607 0.03927 0.33744 0.0
C1857 C 0.68234 0.08309 0.35109 0.0
C1858 C 0.65621 0.06804 0.34616 0.0
H1859 H 0.50902 0.04163 0.33912 0.0
H1860 H 0.55443 0.06433 0.33602 0.0
H1861 H 0.62247 0.00703 0.35619 0.0
H1862 H 0.75261 0.07153 0.35361 0.0
H1863 H 0.70922 0.04722 0.3458 0.0
C1864 C 0.28015 0.22024 0.4109 0.0
C1865 C 0.25087 0.22019 0.40834 0.0
C1866 C 0.29484 0.19504 0.41238 0.0
C1867 C 0.2895 0.11873 0.41921 0.0
H1868 H 0.34639 0.11561 0.37996 0.0
C1869 C 0.33492 0.01379 0.39346 0.0
C1870 C 0.36352 0.01259 0.38866 0.0
C1871 C 0.32209 0.03946 0.39732 0.0
C1872 C 0.33101 0.11617 0.39123 0.0
H1873 H 0.21369 0.19396 0.40715 0.0
H1874 H 0.23944 0.14971 0.41005 0.0
H1875 H 0.32273 0.15976 0.38662 0.0
H1876 H 0.40116 0.03726 0.38401 0.0
H1877 H 0.37896 0.08219 0.39121 0.0
H1878 H 0.29784 0.07517 0.42393 0.0
C1879 C 0.25098 0.1693 0.41078 0.0
C1880 C 0.31742 0.14148 0.39503 0.0
C1881 C 0.23624 0.1946 0.40919 0.0
C1882 C 0.379 0.03762 0.38749 0.0
C1883 C 0.36623 0.06334 0.39161 0.0
C1884 C 0.30337 0.09343 0.41559 0.0
C1885 C 0.28049 0.16933 0.4115 0.0
C1886 C 0.29635 0.14293 0.4089 0.0
C1887 C 0.33766 0.06453 0.39674 0.0
C1888 C 0.32401 0.09175 0.40135 0.0
H1889 H 0.29187 0.23976 0.41062 0.0
H1890 H 0.31757 0.19559 0.41327 0.0
H1891 H 0.27341 0.11938 0.43003 0.0
H1892 H 0.32241 0.99481 0.39436 0.0
H1893 H 0.29991 0.03961 0.40072 0.0
C1894 C 0.05097 0.98471 0.16239 0.0
C1895 C 0.02533 -0.00072 0.16249 0.0
C1896 C 0.07629 -0.00056 0.16399 0.0
C1897 C 0.10242 0.06697 0.14919 0.0
H1898 H 0.17163 0.04492 0.17391 0.0
C1899 C 0.20653 0.12705 0.13745 0.0
C1900 C 0.23123 0.11099 0.13694 0.0
C1901 C 0.18102 0.11462 0.14258 0.0
C1902 C 0.15252 0.05117 0.16674 0.0
H1903 H 0.00569 0.03988 0.16662 0.0
H1904 H 0.04989 0.06557 0.16939 0.0
H1905 H 0.1279 0.02064 0.18171 0.0
H1906 H 0.24854 0.06918 0.14054 0.0
H1907 H 0.20403 0.04729 0.14862 0.0
H1908 H 0.12691 0.09649 0.13354 0.0
C1909 C 0.05048 0.04295 0.16773 0.0
C1910 C 0.12751 0.0374 0.17135 0.0
C1911 C 0.02526 0.02826 0.16621 0.0
C1912 C 0.22982 0.08212 0.14093 0.0
C1913 C 0.20435 0.06965 0.1458 0.0
C1914 C 0.12742 0.08048 0.14441 0.0
C1915 C 0.07619 0.02887 0.16567 0.0
C1916 C 0.10229 0.04504 0.16249 0.0
C1917 C 0.17972 0.08581 0.14706 0.0
C1918 C 0.15286 0.07252 0.15294 0.0
H1919 H 0.05158 0.96239 0.15944 0.0
H1920 H 0.09586 0.98809 0.16234 0.0
H1921 H 0.08333 0.07293 0.14187 0.0
H1922 H 0.2071 0.14942 0.13465 0.0
H1923 H 0.16252 0.12776 0.14356 0.0
C1924 C 0.12232 0.95814 0.88309 0.0
C1925 C 0.13707 0.98368 0.88356 0.0
C1926 C 0.13614 0.93297 0.88727 0.0
C1927 C 0.20544 0.89999 0.88867 0.0
H1928 H 0.17245 0.85032 0.92605 0.0
C1929 C 0.26311 0.80004 0.91002 0.0
C1930 C 0.24641 0.77572 0.90981 0.0
C1931 C 0.25057 0.82655 0.91052 0.0
C1932 C 0.18187 0.86388 0.91552 0.0
H1933 H 0.1779 0.00292 0.88795 0.0
H1934 H 0.20202 0.95899 0.89482 0.0
H1935 H 0.1481 0.89356 0.91724 0.0
H1936 H 0.2038 0.75995 0.91218 0.0
H1937 H 0.18191 0.80599 0.91235 0.0
H1938 H 0.23866 0.87016 0.88633 0.0
C1939 C 0.17984 0.95841 0.8914 0.0
C1940 C 0.16788 0.88855 0.91045 0.0
C1941 C 0.16601 0.98352 0.88749 0.0
C1942 C 0.21717 0.77837 0.91192 0.0
C1943 C 0.20463 0.80483 0.91222 0.0
C1944 C 0.21926 0.87523 0.89356 0.0
C1945 C 0.16495 0.93299 0.89167 0.0
C1946 C 0.1795 0.90672 0.89691 0.0
C1947 C 0.22112 0.82921 0.91065 0.0
C1948 C 0.2076 0.85677 0.90697 0.0
H1949 H 0.09997 0.95772 0.88022 0.0
H1950 H 0.1243 0.91353 0.88721 0.0
H1951 H 0.21473 0.91359 0.8781 0.0
H1952 H 0.2857 0.79871 0.90843 0.0
H1953 H 0.26392 0.84495 0.90982 0.0
C1954 C 0.28802 0.87175 0.63699 0.0
C1955 C 0.26239 0.8863 0.63782 0.0
C1956 C 0.31321 0.88567 0.64104 0.0
C1957 C 0.3455 0.95527 0.64204 0.0
H1958 H 0.39748 0.92269 0.67813 0.0
C1959 C 0.44597 0.014 0.66111 0.0
C1960 C 0.47045 0.99757 0.66039 0.0
C1961 C 0.41961 0.00117 0.66217 0.0
C1962 C 0.38327 0.932 0.66795 0.0
H1963 H 0.243 0.92688 0.64288 0.0
H1964 H 0.28692 0.95115 0.64952 0.0
H1965 H 0.35407 0.89786 0.67027 0.0
H1966 H 0.48675 0.95515 0.6624 0.0
H1967 H 0.44096 0.93276 0.66353 0.0
H1968 H 0.37482 0.98885 0.63908 0.0
C1969 C 0.28757 0.92904 0.64591 0.0
C1970 C 0.35849 0.91774 0.66343 0.0
C1971 C 0.26246 0.91511 0.64214 0.0
C1972 C 0.46818 0.96831 0.66253 0.0
C1973 C 0.44188 0.95549 0.66338 0.0
C1974 C 0.37035 0.96936 0.64638 0.0
C1975 C 0.31312 0.91439 0.64565 0.0
C1976 C 0.33949 0.92921 0.65037 0.0
C1977 C 0.41726 0.9717 0.66236 0.0
C1978 C 0.38964 0.95786 0.65931 0.0
H1979 H 0.28852 0.84949 0.63381 0.0
H1980 H 0.33275 0.87401 0.64058 0.0
H1981 H 0.33126 0.96446 0.63181 0.0
H1982 H 0.44701 0.0366 0.65953 0.0
H1983 H 0.40105 0.01432 0.66188 0.0
loop_
_geom_bond_atom_site_label_1
_geom_bond_atom_site_label_2
_geom_bond_distance
_geom_bond_site_symmetry_2
_ccdc_geom_bond_type
C0 O16 1.251 . S
C0 O18 1.254 . S
N1 C2 1.333 . S
N1 C6 1.307 . S
N1 Zn7 2.020 . S
C2 N1 1.333 . S
C2 C3 1.379 . S
C2 H20 0.952 . S
C3 C2 1.379 . S
C3 C4 1.390 . S
C3 H30 0.949 . S
C4 C3 1.390 . S
C4 C5 1.357 . S
C5 C4 1.357 . S
C5 C6 1.370 . S
C5 H31 0.950 . S
C6 N1 1.307 . S
C6 C5 1.370 . S
C6 H24 0.948 . S
Zn7 N1 2.020 . S
Zn7 O16 2.039 . S
Zn7 O22 2.034 . S
Zn7 O26 2.025 . S
Zn7 O28 2.024 . S
C8 O27 1.246 . S
C8 O28 1.249 . S
N9 C10 1.307 . S
N9 C11 1.333 . S
N9 Zn15 2.020 . S
C10 N9 1.307 . S
C10 C14 1.370 . S
C10 H21 0.948 . S
C11 N9 1.333 . S
C11 C12 1.379 . S
C11 H19 0.952 . S
C12 C11 1.379 . S
C12 C13 1.390 . S
C12 H32 0.949 . S
C13 C12 1.390 . S
C13 C14 1.357 . S
C14 C10 1.370 . S
C14 C13 1.357 . S
C14 H33 0.950 . S
Zn15 N9 2.020 . S
Zn15 O18 2.025 . S
Zn15 O23 2.024 . S
Zn15 O25 2.039 . S
Zn15 O27 2.034 . S
O16 C0 1.251 . S
O16 Zn7 2.039 . S
C17 O22 1.246 . S
C17 O23 1.249 . S
O18 C0 1.254 . S
O18 Zn15 2.025 . S
H19 C11 0.952 . S
H20 C2 0.952 . S
H21 C10 0.948 . S
O22 Zn7 2.034 . S
O22 C17 1.246 . S
O23 Zn15 2.024 . S
O23 C17 1.249 . S
H24 C6 0.948 . S
O25 Zn15 2.039 . S
O25 C29 1.251 . S
O26 Zn7 2.025 . S
O26 C29 1.254 . S
O27 C8 1.246 . S
O27 Zn15 2.034 . S
O28 Zn7 2.024 . S
O28 C8 1.249 . S
C29 O25 1.251 . S
C29 O26 1.254 . S
H30 C3 0.949 . S
H31 C5 0.950 . S
H32 C12 0.949 . S
H33 C14 0.950 . S
C34 O50 1.251 . S
C34 O52 1.254 . S
N35 C36 1.333 . S
N35 C40 1.307 . S
N35 Zn41 2.020 . S
C36 N35 1.333 . S
C36 C37 1.379 . S
C36 H54 0.952 . S
C37 C36 1.379 . S
C37 C38 1.390 . S
C37 H64 0.949 . S
C38 C37 1.390 . S
C38 C39 1.357 . S
C39 C38 1.357 . S
C39 C40 1.370 . S
C39 H65 0.950 . S
C40 N35 1.307 . S
C40 C39 1.370 . S
C40 H58 0.948 . S
Zn41 N35 2.020 . S
Zn41 O50 2.039 . S
Zn41 O56 2.034 . S
Zn41 O60 2.025 . S
Zn41 O62 2.024 . S
C42 O61 1.246 . S
C42 O62 1.249 . S
N43 C44 1.307 . S
N43 C45 1.333 . S
N43 Zn49 2.020 . S
C44 N43 1.307 . S
C44 C48 1.370 . S
C44 H55 0.948 . S
C45 N43 1.333 . S
C45 C46 1.379 . S
C45 H53 0.952 . S
C46 C45 1.379 . S
C46 C47 1.390 . S
C46 H66 0.949 . S
C47 C46 1.390 . S
C47 C48 1.357 . S
C48 C44 1.370 . S
C48 C47 1.357 . S
C48 H67 0.950 . S
Zn49 N43 2.020 . S
Zn49 O52 2.025 . S
Zn49 O57 2.024 . S
Zn49 O59 2.039 . S
Zn49 O61 2.034 . S
O50 C34 1.251 . S
O50 Zn41 2.039 . S
C51 O56 1.246 . S
C51 O57 1.249 . S
O52 C34 1.254 . S
O52 Zn49 2.025 . S
H53 C45 0.952 . S
H54 C36 0.952 . S
H55 C44 0.948 . S
O56 Zn41 2.034 . S
O56 C51 1.246 . S
O57 Zn49 2.024 . S
O57 C51 1.249 . S
H58 C40 0.948 . S
O59 Zn49 2.039 . S
O59 C63 1.251 . S
O60 Zn41 2.025 . S
O60 C63 1.254 . S
O61 C42 1.246 . S
O61 Zn49 2.034 . S
O62 Zn41 2.024 . S
O62 C42 1.249 . S
C63 O59 1.251 . S
C63 O60 1.254 . S
H64 C37 0.949 . S
H65 C39 0.950 . S
H66 C46 0.949 . S
H67 C48 0.950 . S
C68 O84 1.251 . S
C68 O86 1.254 . S
N69 C70 1.333 . S
N69 C74 1.307 . S
N69 Zn75 2.020 . S
C70 N69 1.333 . S
C70 C71 1.379 . S
C70 H88 0.952 . S
C71 C70 1.379 . S
C71 C72 1.390 . S
C71 H98 0.949 . S
C72 C71 1.390 . S
C72 C73 1.357 . S
C73 C72 1.357 . S
C73 C74 1.370 . S
C73 H99 0.950 . S
C74 N69 1.307 . S
C74 C73 1.370 . S
C74 H92 0.948 . S
Zn75 N69 2.020 . S
Zn75 O84 2.039 . S
Zn75 O90 2.034 . S
Zn75 O94 2.025 . S
Zn75 O96 2.024 . S
C76 O95 1.246 . S
C76 O96 1.249 . S
N77 C78 1.307 . S
N77 C79 1.333 . S
N77 Zn83 2.020 . S
C78 N77 1.307 . S
C78 C82 1.370 . S
C78 H89 0.948 . S
C79 N77 1.333 . S
C79 C80 1.379 . S
C79 H87 0.952 . S
C80 C79 1.379 . S
C80 C81 1.390 . S
C80 H100 0.949 . S
C81 C80 1.390 . S
C81 C82 1.357 . S
C82 C78 1.370 . S
C82 C81 1.357 . S
C82 H101 0.950 . S
Zn83 N77 2.020 . S
Zn83 O86 2.025 . S
Zn83 O91 2.024 . S
Zn83 O93 2.039 . S
Zn83 O95 2.034 . S
O84 C68 1.251 . S
O84 Zn75 2.039 . S
C85 O90 1.246 . S
C85 O91 1.249 . S
O86 C68 1.254 . S
O86 Zn83 2.025 . S
H87 C79 0.952 . S
H88 C70 0.952 . S
H89 C78 0.948 . S
O90 Zn75 2.034 . S
O90 C85 1.246 . S
O91 Zn83 2.024 . S
O91 C85 1.249 . S
H92 C74 0.948 . S
O93 Zn83 2.039 . S
O93 C97 1.251 . S
O94 Zn75 2.025 . S
O94 C97 1.254 . S
O95 C76 1.246 . S
O95 Zn83 2.034 . S
O96 Zn75 2.024 . S
O96 C76 1.249 . S
C97 O93 1.251 . S
C97 O94 1.254 . S
H98 C71 0.949 . S
H99 C73 0.950 . S
H100 C80 0.949 . S
H101 C82 0.950 . S
C102 O118 1.251 . S
C102 O120 1.254 . S
N103 C104 1.333 . S
N103 C108 1.307 . S
N103 Zn109 2.020 . S
C104 N103 1.333 . S
C104 C105 1.366 1_655 S
C104 H122 0.952 . S
C105 C104 1.366 1_455 S
C105 C106 1.400 . S
C105 H132 0.952 . S
C106 C105 1.400 . S
C106 C107 1.357 . S
C107 C106 1.357 . S
C107 C108 1.370 1_455 S
C107 H133 0.950 . S
C108 N103 1.307 . S
C108 C107 1.370 1_655 S
C108 H126 0.948 . S
Zn109 N103 2.020 . S
Zn109 O118 2.039 . S
Zn109 O124 2.034 . S
Zn109 O128 2.025 . S
Zn109 O130 2.024 . S
C110 O129 1.246 . S
C110 O130 1.249 . S
N111 C112 1.307 . S
N111 C113 1.333 . S
N111 Zn117 2.020 . S
C112 N111 1.307 . S
C112 C116 1.370 . S
C112 H123 0.948 . S
C113 N111 1.333 . S
C113 C114 1.379 . S
C113 H121 0.952 . S
C114 C113 1.379 . S
C114 C115 1.390 . S
C114 H134 0.949 . S
C115 C114 1.390 . S
C115 C116 1.357 . S
C116 C112 1.370 . S
C116 C115 1.357 . S
C116 H135 0.950 . S
Zn117 N111 2.020 . S
Zn117 O120 2.025 . S
Zn117 O125 2.024 . S
Zn117 O127 2.039 . S
Zn117 O129 2.034 . S
O118 C102 1.251 . S
O118 Zn109 2.039 . S
C119 O124 1.246 . S
C119 O125 1.249 . S
O120 C102 1.254 . S
O120 Zn117 2.025 . S
H121 C113 0.952 . S
H122 C104 0.952 . S
H123 C112 0.948 . S
O124 Zn109 2.034 . S
O124 C119 1.246 . S
O125 Zn117 2.024 . S
O125 C119 1.249 . S
H126 C108 0.948 . S
O127 Zn117 2.039 . S
O127 C131 1.251 . S
O128 Zn109 2.025 . S
O128 C131 1.254 . S
O129 C110 1.246 . S
O129 Zn117 2.034 . S
O130 Zn109 2.024 . S
O130 C110 1.249 . S
C131 O127 1.251 . S
C131 O128 1.254 . S
H132 C105 0.952 . S
H133 C107 0.950 . S
H134 C114 0.949 . S
H135 C116 0.950 . S
C136 O152 1.251 . S
C136 O154 1.254 . S
N137 C138 1.333 . S
N137 C142 1.307 . S
N137 Zn143 2.020 . S
C138 N137 1.333 . S
C138 C139 1.379 . S
C138 H156 0.952 . S
C139 C138 1.379 . S
C139 C140 1.390 . S
C139 H166 0.949 . S
C140 C139 1.390 . S
C140 C141 1.357 . S
C141 C140 1.357 . S
C141 C142 1.370 . S
C141 H167 0.950 . S
C142 N137 1.307 . S
C142 C141 1.370 . S
C142 H160 0.948 . S
Zn143 N137 2.020 . S
Zn143 O152 2.039 . S
Zn143 O158 2.034 . S
Zn143 O162 2.025 . S
Zn143 O164 2.024 . S
C144 O163 1.246 . S
C144 O164 1.249 . S
N145 C146 1.307 . S
N145 C147 1.333 . S
N145 Zn151 2.020 . S
C146 N145 1.307 . S
C146 C150 1.370 . S
C146 H157 0.948 . S
C147 N145 1.333 . S
C147 C148 1.379 . S
C147 H155 0.952 . S
C148 C147 1.379 . S
C148 C149 1.390 . S
C148 H168 0.949 . S
C149 C148 1.390 . S
C149 C150 1.357 . S
C150 C146 1.370 . S
C150 C149 1.357 . S
C150 H169 0.950 . S
Zn151 N145 2.020 . S
Zn151 O154 2.025 . S
Zn151 O159 2.024 . S
Zn151 O161 2.039 . S
Zn151 O163 2.034 . S
O152 C136 1.251 . S
O152 Zn143 2.039 . S
C153 O158 1.246 . S
C153 O159 1.249 . S
O154 C136 1.254 . S
O154 Zn151 2.025 . S
H155 C147 0.952 . S
H156 C138 0.952 . S
H157 C146 0.948 . S
O158 Zn143 2.034 . S
O158 C153 1.246 . S
O159 Zn151 2.024 . S
O159 C153 1.249 . S
H160 C142 0.948 . S
O161 Zn151 2.039 . S
O161 C165 1.251 . S
O162 Zn143 2.025 . S
O162 C165 1.254 . S
O163 C144 1.246 . S
O163 Zn151 2.034 . S
O164 Zn143 2.024 . S
O164 C144 1.249 . S
C165 O161 1.251 . S
C165 O162 1.254 . S
H166 C139 0.949 . S
H167 C141 0.950 . S
H168 C148 0.949 . S
H169 C150 0.950 . S
C170 O186 1.251 . S
C170 O188 1.254 . S
N171 C172 1.333 . S
N171 C176 1.307 . S
N171 Zn177 2.020 . S
C172 N171 1.333 . S
C172 C173 1.379 . S
C172 H190 0.952 . S
C173 C172 1.379 . S
C173 C174 1.390 . S
C173 H200 0.949 . S
C174 C173 1.390 . S
C174 C175 1.357 . S
C175 C174 1.357 . S
C175 C176 1.370 . S
C175 H201 0.950 . S
C176 N171 1.307 . S
C176 C175 1.370 . S
C176 H194 0.948 . S
Zn177 N171 2.020 . S
Zn177 O186 2.039 . S
Zn177 O192 2.034 . S
Zn177 O196 2.025 . S
Zn177 O198 2.024 . S
C178 O197 1.246 . S
C178 O198 1.249 . S
N179 C180 1.307 . S
N179 C181 1.333 . S
N179 Zn185 2.020 . S
C180 N179 1.307 . S
C180 C184 1.370 . S
C180 H191 0.948 . S
C181 N179 1.333 . S
C181 C182 1.379 . S
C181 H189 0.952 . S
C182 C181 1.379 . S
C182 C183 1.390 . S
C182 H202 0.949 . S
C183 C182 1.390 . S
C183 C184 1.357 . S
C184 C180 1.370 . S
C184 C183 1.357 . S
C184 H203 0.950 . S
Zn185 N179 2.020 . S
Zn185 O188 2.025 . S
Zn185 O193 2.024 . S
Zn185 O195 2.039 . S
Zn185 O197 2.034 . S
O186 C170 1.251 . S
O186 Zn177 2.039 . S
C187 O192 1.246 . S
C187 O193 1.249 . S
O188 C170 1.254 . S
O188 Zn185 2.025 . S
H189 C181 0.952 . S
H190 C172 0.952 . S
H191 C180 0.948 . S
O192 Zn177 2.034 . S
O192 C187 1.246 . S
O193 Zn185 2.024 . S
O193 C187 1.249 . S
H194 C176 0.948 . S
O195 Zn185 2.039 . S
O195 C199 1.251 . S
O196 Zn177 2.025 . S
O196 C199 1.254 . S
O197 C178 1.246 . S
O197 Zn185 2.034 . S
O198 Zn177 2.024 . S
O198 C178 1.249 . S
C199 O195 1.251 . S
C199 O196 1.254 . S
H200 C173 0.949 . S
H201 C175 0.950 . S
H202 C182 0.949 . S
H203 C184 0.950 . S
C204 O220 1.251 . S
C204 O222 1.254 . S
N205 C206 1.333 . S
N205 C210 1.307 . S
N205 Zn211 2.020 . S
C206 N205 1.333 . S
C206 C207 1.379 . S
C206 H224 0.952 . S
C207 C206 1.379 . S
C207 C208 1.390 . S
C207 H234 0.949 . S
C208 C207 1.390 . S
C208 C209 1.357 . S
C209 C208 1.357 . S
C209 C210 1.370 . S
C209 H235 0.950 . S
C210 N205 1.307 . S
C210 C209 1.370 . S
C210 H228 0.948 . S
Zn211 N205 2.020 . S
Zn211 O220 2.039 . S
Zn211 O226 2.034 . S
Zn211 O230 2.025 . S
Zn211 O232 2.024 . S
C212 O231 1.246 . S
C212 O232 1.249 . S
N213 C214 1.307 . S
N213 C215 1.333 . S
N213 Zn219 2.020 . S
C214 N213 1.307 . S
C214 C218 1.370 . S
C214 H225 0.948 . S
C215 N213 1.333 . S
C215 C216 1.379 . S
C215 H223 0.952 . S
C216 C215 1.379 . S
C216 C217 1.390 . S
C216 H236 0.949 . S
C217 C216 1.390 . S
C217 C218 1.357 . S
C218 C214 1.370 . S
C218 C217 1.357 . S
C218 H237 0.950 . S
Zn219 N213 2.020 . S
Zn219 O222 2.025 . S
Zn219 O227 2.024 . S
Zn219 O229 2.039 . S
Zn219 O231 2.034 . S
O220 C204 1.251 . S
O220 Zn211 2.039 . S
C221 O226 1.246 . S
C221 O227 1.249 . S
O222 C204 1.254 . S
O222 Zn219 2.025 . S
H223 C215 0.952 . S
H224 C206 0.952 . S
H225 C214 0.948 . S
O226 Zn211 2.034 . S
O226 C221 1.246 . S
O227 Zn219 2.024 . S
O227 C221 1.249 . S
H228 C210 0.948 . S
O229 Zn219 2.039 . S
O229 C233 1.251 . S
O230 Zn211 2.025 . S
O230 C233 1.254 . S
O231 C212 1.246 . S
O231 Zn219 2.034 . S
O232 Zn211 2.024 . S
O232 C212 1.249 . S
C233 O229 1.251 . S
C233 O230 1.254 . S
H234 C207 0.949 . S
H235 C209 0.950 . S
H236 C216 0.949 . S
H237 C218 0.950 . S
C238 O254 1.251 . S
C238 O256 1.254 . S
N239 C240 1.333 . S
N239 C244 1.307 . S
N239 Zn245 2.020 . S
C240 N239 1.333 . S
C240 C241 1.379 . S
C240 H258 0.952 . S
C241 C240 1.379 . S
C241 C242 1.390 . S
C241 H268 0.949 . S
C242 C241 1.390 . S
C242 C243 1.357 . S
C243 C242 1.357 . S
C243 C244 1.370 . S
C243 H269 0.950 . S
C244 N239 1.307 . S
C244 C243 1.370 . S
C244 H262 0.948 . S
Zn245 N239 2.020 . S
Zn245 O254 2.039 . S
Zn245 O260 2.034 . S
Zn245 O264 2.025 . S
Zn245 O266 2.024 . S
C246 O265 1.246 . S
C246 O266 1.249 . S
N247 C248 1.307 . S
N247 C249 1.333 . S
N247 Zn253 2.020 . S
C248 N247 1.307 . S
C248 C252 1.370 1_455 S
C248 H259 0.948 . S
C249 N247 1.333 . S
C249 C250 1.366 1_455 S
C249 H257 0.952 . S
C250 C249 1.366 1_655 S
C250 C251 1.400 . S
C250 H270 0.952 . S
C251 C250 1.400 . S
C251 C252 1.357 . S
C252 C248 1.370 1_655 S
C252 C251 1.357 . S
C252 H271 0.950 . S
Zn253 N247 2.020 . S
Zn253 O256 2.025 . S
Zn253 O261 2.024 . S
Zn253 O263 2.039 . S
Zn253 O265 2.034 . S
O254 C238 1.251 . S
O254 Zn245 2.039 . S
C255 O260 1.246 . S
C255 O261 1.249 . S
O256 C238 1.254 . S
O256 Zn253 2.025 . S
H257 C249 0.952 . S
H258 C240 0.952 . S
H259 C248 0.948 . S
O260 Zn245 2.034 . S
O260 C255 1.246 . S
O261 Zn253 2.024 . S
O261 C255 1.249 . S
H262 C244 0.948 . S
O263 Zn253 2.039 . S
O263 C267 1.251 . S
O264 Zn245 2.025 . S
O264 C267 1.254 . S
O265 C246 1.246 . S
O265 Zn253 2.034 . S
O266 Zn245 2.024 . S
O266 C246 1.249 . S
C267 O263 1.251 . S
C267 O264 1.254 . S
H268 C241 0.949 . S
H269 C243 0.950 . S
H270 C250 0.952 . S
H271 C252 0.950 . S
C272 O288 1.251 . S
C272 O290 1.254 . S
N273 C274 1.333 . S
N273 C278 1.307 . S
N273 Zn279 2.020 . S
C274 N273 1.333 . S
C274 C275 1.379 . S
C274 H292 0.952 . S
C275 C274 1.379 . S
C275 C276 1.390 . S
C275 H302 0.949 . S
C276 C275 1.390 . S
C276 C277 1.357 . S
C277 C276 1.357 . S
C277 C278 1.370 . S
C277 H303 0.950 . S
C278 N273 1.307 . S
C278 C277 1.370 . S
C278 H296 0.948 . S
Zn279 N273 2.020 . S
Zn279 O288 2.039 . S
Zn279 O294 2.034 . S
Zn279 O298 2.025 . S
Zn279 O300 2.024 . S
C280 O299 1.246 . S
C280 O300 1.249 . S
N281 C282 1.307 . S
N281 C283 1.333 . S
N281 Zn287 2.020 . S
C282 N281 1.307 . S
C282 C286 1.370 . S
C282 H293 0.948 . S
C283 N281 1.333 . S
C283 C284 1.379 . S
C283 H291 0.952 . S
C284 C283 1.379 . S
C284 C285 1.390 . S
C284 H304 0.949 . S
C285 C284 1.390 . S
C285 C286 1.357 . S
C286 C282 1.370 . S
C286 C285 1.357 . S
C286 H305 0.950 . S
Zn287 N281 2.020 . S
Zn287 O290 2.025 . S
Zn287 O295 2.024 . S
Zn287 O297 2.039 . S
Zn287 O299 2.034 . S
O288 C272 1.251 . S
O288 Zn279 2.039 . S
C289 O294 1.246 . S
C289 O295 1.249 . S
O290 C272 1.254 . S
O290 Zn287 2.025 . S
H291 C283 0.952 . S
H292 C274 0.952 . S
H293 C282 0.948 . S
O294 Zn279 2.034 . S
O294 C289 1.246 . S
O295 Zn287 2.024 . S
O295 C289 1.249 . S
H296 C278 0.948 . S
O297 Zn287 2.039 . S
O297 C301 1.251 . S
O298 Zn279 2.025 . S
O298 C301 1.254 . S
O299 C280 1.246 . S
O299 Zn287 2.034 . S
O300 Zn279 2.024 . S
O300 C280 1.249 . S
C301 O297 1.251 . S
C301 O298 1.254 . S
H302 C275 0.949 . S
H303 C277 0.950 . S
H304 C284 0.949 . S
H305 C286 0.950 . S
C306 O322 1.251 . S
C306 O324 1.254 . S
N307 C308 1.333 . S
N307 C312 1.307 . S
N307 Zn313 2.020 . S
C308 N307 1.333 . S
C308 C309 1.366 1_455 S
C308 H326 0.952 . S
C309 C308 1.366 1_655 S
C309 C310 1.401 . S
C309 H336 0.952 . S
C310 C309 1.401 . S
C310 C311 1.350 1_545 S
C311 C310 1.350 1_565 S
C311 C312 1.360 1_665 S
C311 H337 0.967 . S
C312 N307 1.307 . S
C312 C311 1.360 1_445 S
C312 H330 0.948 . S
Zn313 N307 2.020 . S
Zn313 O322 2.039 . S
Zn313 O328 2.034 . S
Zn313 O332 2.025 . S
Zn313 O334 2.024 . S
C314 O333 1.246 . S
C314 O334 1.249 . S
N315 C316 1.307 . S
N315 C317 1.333 . S
N315 Zn321 2.020 . S
C316 N315 1.307 . S
C316 C320 1.370 . S
C316 H327 0.948 . S
C317 N315 1.333 . S
C317 C318 1.379 . S
C317 H325 0.952 . S
C318 C317 1.379 . S
C318 C319 1.390 . S
C318 H338 0.949 . S
C319 C318 1.390 . S
C319 C320 1.357 . S
C320 C316 1.370 . S
C320 C319 1.357 . S
C320 H339 0.950 . S
Zn321 N315 2.020 . S
Zn321 O324 2.025 . S
Zn321 O329 2.024 . S
Zn321 O331 2.039 . S
Zn321 O333 2.034 . S
O322 C306 1.251 . S
O322 Zn313 2.039 . S
C323 O328 1.246 . S
C323 O329 1.249 . S
O324 C306 1.254 . S
O324 Zn321 2.025 . S
H325 C317 0.952 . S
H326 C308 0.952 . S
H327 C316 0.948 . S
O328 Zn313 2.034 . S
O328 C323 1.246 . S
O329 Zn321 2.024 . S
O329 C323 1.249 . S
H330 C312 0.948 . S
O331 Zn321 2.039 . S
O331 C335 1.251 . S
O332 Zn313 2.025 . S
O332 C335 1.254 . S
O333 C314 1.246 . S
O333 Zn321 2.034 . S
O334 Zn313 2.024 . S
O334 C314 1.249 . S
C335 O331 1.251 . S
C335 O332 1.254 . S
H336 C309 0.952 . S
H337 C311 0.967 . S
H338 C318 0.949 . S
H339 C320 0.950 . S
C340 O356 1.251 . S
C340 O358 1.254 . S
N341 C342 1.333 . S
N341 C346 1.307 . S
N341 Zn347 2.020 . S
C342 N341 1.333 . S
C342 C343 1.379 . S
C342 H360 0.952 . S
C343 C342 1.379 . S
C343 C344 1.390 . S
C343 H370 0.949 . S
C344 C343 1.390 . S
C344 C345 1.357 . S
C345 C344 1.357 . S
C345 C346 1.370 . S
C345 H371 0.950 . S
C346 N341 1.307 . S
C346 C345 1.370 . S
C346 H364 0.948 . S
Zn347 N341 2.020 . S
Zn347 O356 2.039 . S
Zn347 O362 2.034 . S
Zn347 O366 2.025 . S
Zn347 O368 2.024 . S
C348 O367 1.246 . S
C348 O368 1.249 . S
N349 C350 1.307 . S
N349 C351 1.333 . S
N349 Zn355 2.020 . S
C350 N349 1.307 . S
C350 C354 1.370 . S
C350 H361 0.948 . S
C351 N349 1.333 . S
C351 C352 1.379 . S
C351 H359 0.952 . S
C352 C351 1.379 . S
C352 C353 1.390 . S
C352 H372 0.949 . S
C353 C352 1.390 . S
C353 C354 1.357 . S
C354 C350 1.370 . S
C354 C353 1.357 . S
C354 H373 0.950 . S
Zn355 N349 2.020 . S
Zn355 O358 2.025 . S
Zn355 O363 2.024 . S
Zn355 O365 2.039 . S
Zn355 O367 2.034 . S
O356 C340 1.251 . S
O356 Zn347 2.039 . S
C357 O362 1.246 . S
C357 O363 1.249 . S
O358 C340 1.254 . S
O358 Zn355 2.025 . S
H359 C351 0.952 . S
H360 C342 0.952 . S
H361 C350 0.948 . S
O362 Zn347 2.034 . S
O362 C357 1.246 . S
O363 Zn355 2.024 . S
O363 C357 1.249 . S
H364 C346 0.948 . S
O365 Zn355 2.039 . S
O365 C369 1.251 . S
O366 Zn347 2.025 . S
O366 C369 1.254 . S
O367 C348 1.246 . S
O367 Zn355 2.034 . S
O368 Zn347 2.024 . S
O368 C348 1.249 . S
C369 O365 1.251 . S
C369 O366 1.254 . S
H370 C343 0.949 . S
H371 C345 0.950 . S
H372 C352 0.949 . S
H373 C354 0.950 . S
C374 O390 1.251 . S
C374 O392 1.254 . S
N375 C376 1.333 . S
N375 C380 1.307 . S
N375 Zn381 2.020 . S
C376 N375 1.333 . S
C376 C377 1.379 . S
C376 H394 0.952 . S
C377 C376 1.379 . S
C377 C378 1.390 . S
C377 H404 0.949 . S
C378 C377 1.390 . S
C378 C379 1.350 1_565 S
C379 C378 1.350 1_545 S
C379 C380 1.360 1_545 S
C379 H405 0.967 . S
C380 N375 1.307 . S
C380 C379 1.360 1_565 S
C380 H398 0.948 . S
Zn381 N375 2.020 . S
Zn381 O390 2.039 . S
Zn381 O396 2.034 . S
Zn381 O400 2.025 . S
Zn381 O402 2.024 . S
C382 O401 1.246 . S
C382 O402 1.249 . S
N383 C384 1.307 . S
N383 C385 1.333 . S
N383 Zn389 2.020 . S
C384 N383 1.307 . S
C384 C388 1.370 . S
C384 H395 0.948 . S
C385 N383 1.333 . S
C385 C386 1.379 . S
C385 H393 0.952 . S
C386 C385 1.379 . S
C386 C387 1.390 . S
C386 H406 0.949 . S
C387 C386 1.390 . S
C387 C388 1.357 . S
C388 C384 1.370 . S
C388 C387 1.357 . S
C388 H407 0.950 . S
Zn389 N383 2.020 . S
Zn389 O392 2.025 . S
Zn389 O397 2.024 . S
Zn389 O399 2.039 . S
Zn389 O401 2.034 . S
O390 C374 1.251 . S
O390 Zn381 2.039 . S
C391 O396 1.246 . S
C391 O397 1.249 . S
O392 C374 1.254 . S
O392 Zn389 2.025 . S
H393 C385 0.952 . S
H394 C376 0.952 . S
H395 C384 0.948 . S
O396 Zn381 2.034 . S
O396 C391 1.246 . S
O397 Zn389 2.024 . S
O397 C391 1.249 . S
H398 C380 0.948 . S
O399 Zn389 2.039 . S
O399 C403 1.251 . S
O400 Zn381 2.025 . S
O400 C403 1.254 . S
O401 C382 1.246 . S
O401 Zn389 2.034 . S
O402 Zn381 2.024 . S
O402 C382 1.249 . S
C403 O399 1.251 . S
C403 O400 1.254 . S
H404 C377 0.949 . S
H405 C379 0.967 . S
H406 C386 0.949 . S
H407 C388 0.950 . S
C408 O424 1.251 . S
C408 O426 1.254 . S
N409 C410 1.333 . S
N409 C414 1.307 . S
N409 Zn415 2.020 . S
C410 N409 1.333 . S
C410 C411 1.379 . S
C410 H428 0.952 . S
C411 C410 1.379 . S
C411 C412 1.390 . S
C411 H438 0.949 . S
C412 C411 1.390 . S
C412 C413 1.357 . S
C413 C412 1.357 . S
C413 C414 1.370 . S
C413 H439 0.950 . S
C414 N409 1.307 . S
C414 C413 1.370 . S
C414 H432 0.948 . S
Zn415 N409 2.020 . S
Zn415 O424 2.039 . S
Zn415 O430 2.034 . S
Zn415 O434 2.025 . S
Zn415 O436 2.024 . S
C416 O435 1.246 . S
C416 O436 1.249 . S
N417 C418 1.307 . S
N417 C419 1.333 . S
N417 Zn423 2.020 . S
C418 N417 1.307 . S
C418 C422 1.370 . S
C418 H429 0.948 . S
C419 N417 1.333 . S
C419 C420 1.379 . S
C419 H427 0.952 . S
C420 C419 1.379 . S
C420 C421 1.390 . S
C420 H440 0.949 . S
C421 C420 1.390 . S
C421 C422 1.357 . S
C422 C418 1.370 . S
C422 C421 1.357 . S
C422 H441 0.950 . S
Zn423 N417 2.020 . S
Zn423 O426 2.025 . S
Zn423 O431 2.024 . S
Zn423 O433 2.039 . S
Zn423 O435 2.034 . S
O424 C408 1.251 . S
O424 Zn415 2.039 . S
C425 O430 1.246 . S
C425 O431 1.249 . S
O426 C408 1.254 . S
O426 Zn423 2.025 . S
H427 C419 0.952 . S
H428 C410 0.952 . S
H429 C418 0.948 . S
O430 Zn415 2.034 . S
O430 C425 1.246 . S
O431 Zn423 2.024 . S
O431 C425 1.249 . S
H432 C414 0.948 . S
O433 Zn423 2.039 . S
O433 C437 1.251 . S
O434 Zn415 2.025 . S
O434 C437 1.254 . S
O435 C416 1.246 . S
O435 Zn423 2.034 . S
O436 Zn415 2.024 . S
O436 C416 1.249 . S
C437 O433 1.251 . S
C437 O434 1.254 . S
H438 C411 0.949 . S
H439 C413 0.950 . S
H440 C420 0.949 . S
H441 C422 0.950 . S
C442 O458 1.251 . S
C442 O460 1.254 . S
N443 C444 1.333 . S
N443 C448 1.307 . S
N443 Zn449 2.020 . S
C444 N443 1.333 . S
C444 C445 1.379 . S
C444 H462 0.952 . S
C445 C444 1.379 . S
C445 C446 1.390 . S
C445 H472 0.949 . S
C446 C445 1.390 . S
C446 C447 1.357 . S
C447 C446 1.357 . S
C447 C448 1.370 . S
C447 H473 0.950 . S
C448 N443 1.307 . S
C448 C447 1.370 . S
C448 H466 0.948 . S
Zn449 N443 2.020 . S
Zn449 O458 2.039 . S
Zn449 O464 2.034 . S
Zn449 O468 2.025 . S
Zn449 O470 2.024 . S
C450 O469 1.246 . S
C450 O470 1.249 . S
N451 C452 1.307 . S
N451 C453 1.333 . S
N451 Zn457 2.020 . S
C452 N451 1.307 . S
C452 C456 1.360 1_665 S
C452 H463 0.948 . S
C453 N451 1.333 . S
C453 C454 1.366 1_655 S
C453 H461 0.952 . S
C454 C453 1.366 1_455 S
C454 C455 1.401 . S
C454 H474 0.952 . S
C455 C454 1.401 . S
C455 C456 1.350 1_565 S
C456 C452 1.360 1_445 S
C456 C455 1.350 1_545 S
C456 H475 0.967 . S
Zn457 N451 2.020 . S
Zn457 O460 2.025 . S
Zn457 O465 2.024 . S
Zn457 O467 2.039 . S
Zn457 O469 2.034 . S
O458 C442 1.251 . S
O458 Zn449 2.039 . S
C459 O464 1.246 . S
C459 O465 1.249 . S
O460 C442 1.254 . S
O460 Zn457 2.025 . S
H461 C453 0.952 . S
H462 C444 0.952 . S
H463 C452 0.948 . S
O464 Zn449 2.034 . S
O464 C459 1.246 . S
O465 Zn457 2.024 . S
O465 C459 1.249 . S
H466 C448 0.948 . S
O467 Zn457 2.039 . S
O467 C471 1.251 . S
O468 Zn449 2.025 . S
O468 C471 1.254 . S
O469 C450 1.246 . S
O469 Zn457 2.034 . S
O470 Zn449 2.024 . S
O470 C450 1.249 . S
C471 O467 1.251 . S
C471 O468 1.254 . S
H472 C445 0.949 . S
H473 C447 0.950 . S
H474 C454 0.952 . S
H475 C456 0.967 . S
C476 O492 1.251 . S
C476 O494 1.254 . S
N477 C478 1.333 . S
N477 C482 1.307 . S
N477 Zn483 2.020 . S
C478 N477 1.333 . S
C478 C479 1.379 . S
C478 H496 0.952 . S
C479 C478 1.379 . S
C479 C480 1.390 . S
C479 H506 0.949 . S
C480 C479 1.390 . S
C480 C481 1.357 . S
C481 C480 1.357 . S
C481 C482 1.370 . S
C481 H507 0.950 . S
C482 N477 1.307 . S
C482 C481 1.370 . S
C482 H500 0.948 . S
Zn483 N477 2.020 . S
Zn483 O492 2.039 . S
Zn483 O498 2.034 . S
Zn483 O502 2.025 . S
Zn483 O504 2.024 . S
C484 O503 1.246 . S
C484 O504 1.249 . S
N485 C486 1.307 . S
N485 C487 1.333 . S
N485 Zn491 2.020 . S
C486 N485 1.307 . S
C486 C490 1.370 . S
C486 H497 0.948 . S
C487 N485 1.333 . S
C487 C488 1.379 . S
C487 H495 0.952 . S
C488 C487 1.379 . S
C488 C489 1.390 . S
C488 H508 0.949 . S
C489 C488 1.390 . S
C489 C490 1.357 . S
C490 C486 1.370 . S
C490 C489 1.357 . S
C490 H509 0.950 . S
Zn491 N485 2.020 . S
Zn491 O494 2.025 . S
Zn491 O499 2.024 . S
Zn491 O501 2.039 . S
Zn491 O503 2.034 . S
O492 C476 1.251 . S
O492 Zn483 2.039 . S
C493 O498 1.246 . S
C493 O499 1.249 . S
O494 C476 1.254 . S
O494 Zn491 2.025 . S
H495 C487 0.952 . S
H496 C478 0.952 . S
H497 C486 0.948 . S
O498 Zn483 2.034 . S
O498 C493 1.246 . S
O499 Zn491 2.024 . S
O499 C493 1.249 . S
H500 C482 0.948 . S
O501 Zn491 2.039 . S
O501 C505 1.251 . S
O502 Zn483 2.025 . S
O502 C505 1.254 . S
O503 C484 1.246 . S
O503 Zn491 2.034 . S
O504 Zn483 2.024 . S
O504 C484 1.249 . S
C505 O501 1.251 . S
C505 O502 1.254 . S
H506 C479 0.949 . S
H507 C481 0.950 . S
H508 C488 0.949 . S
H509 C490 0.950 . S
C510 O526 1.251 . S
C510 O528 1.254 . S
N511 C512 1.333 . S
N511 C516 1.307 . S
N511 Zn517 2.020 . S
C512 N511 1.333 . S
C512 C513 1.379 . S
C512 H530 0.952 . S
C513 C512 1.379 . S
C513 C514 1.390 . S
C513 H540 0.949 . S
C514 C513 1.390 . S
C514 C515 1.357 . S
C515 C514 1.357 . S
C515 C516 1.370 . S
C515 H541 0.950 . S
C516 N511 1.307 . S
C516 C515 1.370 . S
C516 H534 0.948 . S
Zn517 N511 2.020 . S
Zn517 O526 2.039 . S
Zn517 O532 2.034 . S
Zn517 O536 2.025 . S
Zn517 O538 2.024 . S
C518 O537 1.246 . S
C518 O538 1.249 . S
N519 C520 1.307 . S
N519 C521 1.333 . S
N519 Zn525 2.020 . S
C520 N519 1.307 . S
C520 C524 1.360 1_545 S
C520 H531 0.948 . S
C521 N519 1.333 . S
C521 C522 1.379 . S
C521 H529 0.952 . S
C522 C521 1.379 . S
C522 C523 1.390 . S
C522 H542 0.949 . S
C523 C522 1.390 . S
C523 C524 1.350 1_545 S
C524 C520 1.360 1_565 S
C524 C523 1.350 1_565 S
C524 H543 0.967 . S
Zn525 N519 2.020 . S
Zn525 O528 2.025 . S
Zn525 O533 2.024 . S
Zn525 O535 2.039 . S
Zn525 O537 2.034 . S
O526 C510 1.251 . S
O526 Zn517 2.039 . S
C527 O532 1.246 . S
C527 O533 1.249 . S
O528 C510 1.254 . S
O528 Zn525 2.025 . S
H529 C521 0.952 . S
H530 C512 0.952 . S
H531 C520 0.948 . S
O532 Zn517 2.034 . S
O532 C527 1.246 . S
O533 Zn525 2.024 . S
O533 C527 1.249 . S
H534 C516 0.948 . S
O535 Zn525 2.039 . S
O535 C539 1.251 . S
O536 Zn517 2.025 . S
O536 C539 1.254 . S
O537 C518 1.246 . S
O537 Zn525 2.034 . S
O538 Zn517 2.024 . S
O538 C518 1.249 . S
C539 O535 1.251 . S
C539 O536 1.254 . S
H540 C513 0.949 . S
H541 C515 0.950 . S
H542 C522 0.949 . S
H543 C524 0.967 . S
C544 C545 1.349 . S
C544 C546 1.327 . S
C544 H569 0.950 . S
C545 C544 1.349 . S
C545 C561 1.349 . S
C546 C544 1.327 . S
C546 C565 1.429 . S
C546 H570 0.950 . S
C547 C564 1.574 . S
C547 C566 1.368 . S
C547 H571 0.949 . S
H548 C552 0.949 . S
C549 C550 1.349 . S
C549 C551 1.327 . S
C549 H572 0.950 . S
C550 C549 1.349 . S
C550 C562 1.349 . S
C551 C549 1.327 . S
C551 C567 1.429 . S
C551 H573 0.950 . S
C552 H548 0.949 . S
C552 C560 1.574 . S
C552 C568 1.368 . S
H553 C561 0.950 . S
H554 C559 0.950 . S
H555 C560 0.949 . S
H556 C562 0.950 . S
H557 C563 0.950 . S
H558 C564 0.949 . S
C559 H554 0.950 . S
C559 C561 1.327 . S
C559 C565 1.429 . S
C560 C552 1.574 . S
C560 H555 0.949 . S
C560 C566 1.368 . S
C561 C545 1.349 . S
C561 H553 0.950 . S
C561 C559 1.327 . S
C562 C550 1.349 . S
C562 H556 0.950 . S
C562 C563 1.327 . S
C563 H557 0.950 . S
C563 C562 1.327 . S
C563 C567 1.429 . S
C564 C547 1.574 . S
C564 H558 0.949 . S
C564 C568 1.368 . S
C565 C546 1.429 . S
C565 C559 1.429 . S
C565 C566 1.523 . S
C566 C547 1.368 . S
C566 C560 1.368 . S
C566 C565 1.523 . S
C567 C551 1.429 . S
C567 C563 1.429 . S
C567 C568 1.523 . S
C568 C552 1.368 . S
C568 C564 1.368 . S
C568 C567 1.523 . S
H569 C544 0.950 . S
H570 C546 0.950 . S
H571 C547 0.949 . S
H572 C549 0.950 . S
H573 C551 0.950 . S
C574 C575 1.349 . S
C574 C576 1.327 . S
C574 H599 0.950 . S
C575 C574 1.349 . S
C575 C591 1.349 . S
C576 C574 1.327 . S
C576 C595 1.429 . S
C576 H600 0.950 . S
C577 C594 1.574 . S
C577 C596 1.368 . S
C577 H601 0.949 . S
H578 C582 0.949 . S
C579 C580 1.349 . S
C579 C581 1.327 . S
C579 H602 0.950 . S
C580 C579 1.349 . S
C580 C592 1.349 . S
C581 C579 1.327 . S
C581 C597 1.429 . S
C581 H603 0.950 . S
C582 H578 0.949 . S
C582 C590 1.574 . S
C582 C598 1.368 . S
H583 C591 0.950 . S
H584 C589 0.950 . S
H585 C590 0.949 . S
H586 C592 0.950 . S
H587 C593 0.950 . S
H588 C594 0.949 . S
C589 H584 0.950 . S
C589 C591 1.327 . S
C589 C595 1.429 . S
C590 C582 1.574 . S
C590 H585 0.949 . S
C590 C596 1.368 . S
C591 C575 1.349 . S
C591 H583 0.950 . S
C591 C589 1.327 . S
C592 C580 1.349 . S
C592 H586 0.950 . S
C592 C593 1.327 . S
C593 H587 0.950 . S
C593 C592 1.327 . S
C593 C597 1.429 . S
C594 C577 1.574 . S
C594 H588 0.949 . S
C594 C598 1.368 . S
C595 C576 1.429 . S
C595 C589 1.429 . S
C595 C596 1.523 . S
C596 C577 1.368 . S
C596 C590 1.368 . S
C596 C595 1.523 . S
C597 C581 1.429 . S
C597 C593 1.429 . S
C597 C598 1.523 . S
C598 C582 1.368 . S
C598 C594 1.368 . S
C598 C597 1.523 . S
H599 C574 0.950 . S
H600 C576 0.950 . S
H601 C577 0.949 . S
H602 C579 0.950 . S
H603 C581 0.950 . S
C604 C605 1.349 . S
C604 C606 1.327 . S
C604 H629 0.950 . S
C605 C604 1.349 . S
C605 C621 1.349 . S
C606 C604 1.327 . S
C606 C625 1.429 . S
C606 H630 0.950 . S
C607 C624 1.574 . S
C607 C626 1.368 . S
C607 H631 0.949 . S
H608 C612 0.949 . S
C609 C610 1.349 . S
C609 C611 1.327 . S
C609 H632 0.950 . S
C610 C609 1.349 . S
C610 C622 1.349 . S
C611 C609 1.327 . S
C611 C627 1.429 . S
C611 H633 0.950 . S
C612 H608 0.949 . S
C612 C620 1.574 . S
C612 C628 1.368 . S
H613 C621 0.950 . S
H614 C619 0.950 . S
H615 C620 0.949 . S
H616 C622 0.950 . S
H617 C623 0.950 . S
H618 C624 0.949 . S
C619 H614 0.950 . S
C619 C621 1.327 . S
C619 C625 1.429 . S
C620 C612 1.574 . S
C620 H615 0.949 . S
C620 C626 1.368 . S
C621 C605 1.349 . S
C621 H613 0.950 . S
C621 C619 1.327 . S
C622 C610 1.349 . S
C622 H616 0.950 . S
C622 C623 1.327 . S
C623 H617 0.950 . S
C623 C622 1.327 . S
C623 C627 1.429 . S
C624 C607 1.574 . S
C624 H618 0.949 . S
C624 C628 1.368 . S
C625 C606 1.429 . S
C625 C619 1.429 . S
C625 C626 1.523 . S
C626 C607 1.368 . S
C626 C620 1.368 . S
C626 C625 1.523 . S
C627 C611 1.429 . S
C627 C623 1.429 . S
C627 C628 1.523 . S
C628 C612 1.368 . S
C628 C624 1.368 . S
C628 C627 1.523 . S
H629 C604 0.950 . S
H630 C606 0.950 . S
H631 C607 0.949 . S
H632 C609 0.950 . S
H633 C611 0.950 . S
C634 C635 1.349 . S
C634 C636 1.327 . S
C634 H659 0.950 . S
C635 C634 1.349 . S
C635 C651 1.349 . S
C636 C634 1.327 . S
C636 C655 1.429 . S
C636 H660 0.950 . S
C637 C654 1.555 1_655 S
C637 C656 1.368 1_554 S
C637 H661 0.949 . S
H638 C642 0.949 . S
C639 C640 1.349 . S
C639 C641 1.327 . S
C639 H662 0.950 . S
C640 C639 1.349 . S
C640 C652 1.349 . S
C641 C639 1.327 . S
C641 C657 1.429 . S
C641 H663 0.950 . S
C642 H638 0.949 . S
C642 C650 1.555 1_455 S
C642 C658 1.368 1_556 S
H643 C651 0.950 . S
H644 C649 0.950 . S
H645 C650 0.952 . S
H646 C652 0.950 . S
H647 C653 0.950 . S
H648 C654 0.952 . S
C649 H644 0.950 . S
C649 C651 1.327 . S
C649 C655 1.429 . S
C650 C642 1.555 1_655 S
C650 H645 0.952 . S
C650 C656 1.386 . S
C651 C635 1.349 . S
C651 H643 0.950 . S
C651 C649 1.327 . S
C652 C640 1.349 . S
C652 H646 0.950 . S
C652 C653 1.327 . S
C653 H647 0.950 . S
C653 C652 1.327 . S
C653 C657 1.429 . S
C654 C637 1.555 1_455 S
C654 H648 0.952 . S
C654 C658 1.386 . S
C655 C636 1.429 . S
C655 C649 1.429 . S
C655 C656 1.523 . S
C656 C637 1.368 1_556 S
C656 C650 1.386 . S
C656 C655 1.523 . S
C657 C641 1.429 . S
C657 C653 1.429 . S
C657 C658 1.523 . S
C658 C642 1.368 1_554 S
C658 C654 1.386 . S
C658 C657 1.523 . S
H659 C634 0.950 . S
H660 C636 0.950 . S
H661 C637 0.949 . S
H662 C639 0.950 . S
H663 C641 0.950 . S
C664 C665 1.349 . S
C664 C666 1.327 . S
C664 H689 0.950 . S
C665 C664 1.349 . S
C665 C681 1.349 . S
C666 C664 1.327 . S
C666 C685 1.429 . S
C666 H690 0.950 . S
C667 C684 1.574 . S
C667 C686 1.368 . S
C667 H691 0.949 . S
H668 C672 0.949 . S
C669 C670 1.349 . S
C669 C671 1.327 . S
C669 H692 0.950 . S
C670 C669 1.349 . S
C670 C682 1.349 . S
C671 C669 1.327 . S
C671 C687 1.429 . S
C671 H693 0.950 . S
C672 H668 0.949 . S
C672 C680 1.574 . S
C672 C688 1.368 . S
H673 C681 0.950 . S
H674 C679 0.950 . S
H675 C680 0.949 . S
H676 C682 0.950 . S
H677 C683 0.950 . S
H678 C684 0.949 . S
C679 H674 0.950 . S
C679 C681 1.327 . S
C679 C685 1.429 . S
C680 C672 1.574 . S
C680 H675 0.949 . S
C680 C686 1.368 . S
C681 C665 1.349 . S
C681 H673 0.950 . S
C681 C679 1.327 . S
C682 C670 1.349 . S
C682 H676 0.950 . S
C682 C683 1.327 . S
C683 H677 0.950 . S
C683 C682 1.327 . S
C683 C687 1.429 . S
C684 C667 1.574 . S
C684 H678 0.949 . S
C684 C688 1.368 . S
C685 C666 1.429 . S
C685 C679 1.429 . S
C685 C686 1.523 . S
C686 C667 1.368 . S
C686 C680 1.368 . S
C686 C685 1.523 . S
C687 C671 1.429 . S
C687 C683 1.429 . S
C687 C688 1.523 . S
C688 C672 1.368 . S
C688 C684 1.368 . S
C688 C687 1.523 . S
H689 C664 0.950 . S
H690 C666 0.950 . S
H691 C667 0.949 . S
H692 C669 0.950 . S
H693 C671 0.950 . S
C694 C695 1.349 . S
C694 C696 1.327 . S
C694 H719 0.950 . S
C695 C694 1.349 . S
C695 C711 1.349 . S
C696 C694 1.327 . S
C696 C715 1.429 . S
C696 H720 0.950 . S
C697 C714 1.574 . S
C697 C716 1.368 . S
C697 H721 0.949 . S
H698 C702 0.949 . S
C699 C700 1.349 . S
C699 C701 1.327 . S
C699 H722 0.950 . S
C700 C699 1.349 . S
C700 C712 1.349 . S
C701 C699 1.327 . S
C701 C717 1.429 . S
C701 H723 0.950 . S
C702 H698 0.949 . S
C702 C710 1.574 . S
C702 C718 1.368 . S
H703 C711 0.950 . S
H704 C709 0.950 . S
H705 C710 0.949 . S
H706 C712 0.950 . S
H707 C713 0.950 . S
H708 C714 0.949 . S
C709 H704 0.950 . S
C709 C711 1.327 . S
C709 C715 1.429 . S
C710 C702 1.574 . S
C710 H705 0.949 . S
C710 C716 1.368 . S
C711 C695 1.349 . S
C711 H703 0.950 . S
C711 C709 1.327 . S
C712 C700 1.349 . S
C712 H706 0.950 . S
C712 C713 1.327 . S
C713 H707 0.950 . S
C713 C712 1.327 . S
C713 C717 1.429 . S
C714 C697 1.574 . S
C714 H708 0.949 . S
C714 C718 1.368 . S
C715 C696 1.429 . S
C715 C709 1.429 . S
C715 C716 1.523 . S
C716 C697 1.368 . S
C716 C710 1.368 . S
C716 C715 1.523 . S
C717 C701 1.429 . S
C717 C713 1.429 . S
C717 C718 1.523 . S
C718 C702 1.368 . S
C718 C714 1.368 . S
C718 C717 1.523 . S
H719 C694 0.950 . S
H720 C696 0.950 . S
H721 C697 0.949 . S
H722 C699 0.950 . S
H723 C701 0.950 . S
C724 C725 1.349 . S
C724 C726 1.327 . S
C724 H749 0.950 . S
C725 C724 1.349 . S
C725 C741 1.349 . S
C726 C724 1.327 . S
C726 C745 1.429 . S
C726 H750 0.952 . S
C727 C744 1.574 . S
C727 C746 1.368 1_556 S
C727 H751 0.949 . S
H728 C732 0.949 . S
C729 C730 1.349 . S
C729 C731 1.327 . S
C729 H752 0.950 . S
C730 C729 1.349 . S
C730 C742 1.349 . S
C731 C729 1.327 . S
C731 C747 1.429 . S
C731 H753 0.952 . S
C732 H728 0.949 . S
C732 C740 1.574 . S
C732 C748 1.368 1_554 S
H733 C741 0.950 . S
H734 C739 0.950 . S
H735 C740 0.949 . S
H736 C742 0.950 . S
H737 C743 0.950 . S
H738 C744 0.949 . S
C739 H734 0.950 . S
C739 C741 1.327 . S
C739 C745 1.429 . S
C740 C732 1.574 . S
C740 H735 0.949 . S
C740 C746 1.368 1_445 S
C741 C725 1.349 . S
C741 H733 0.950 . S
C741 C739 1.327 . S
C742 C730 1.349 . S
C742 H736 0.950 . S
C742 C743 1.327 . S
C743 H737 0.950 . S
C743 C742 1.327 . S
C743 C747 1.429 . S
C744 C727 1.574 . S
C744 H738 0.949 . S
C744 C748 1.368 1_665 S
C745 C726 1.429 . S
C745 C739 1.429 . S
C745 C746 1.523 . S
C746 C727 1.368 1_554 S
C746 C740 1.368 1_665 S
C746 C745 1.523 . S
C747 C731 1.429 . S
C747 C743 1.429 . S
C747 C748 1.523 . S
C748 C732 1.368 1_556 S
C748 C744 1.368 1_445 S
C748 C747 1.523 . S
H749 C724 0.950 . S
H750 C726 0.952 . S
H751 C727 0.949 . S
H752 C729 0.950 . S
H753 C731 0.952 . S
C754 C755 1.349 . S
C754 C756 1.327 . S
C754 H779 0.950 . S
C755 C754 1.349 . S
C755 C771 1.349 . S
C756 C754 1.327 . S
C756 C775 1.429 . S
C756 H780 0.950 . S
C757 C774 1.574 . S
C757 C776 1.368 1_545 S
C757 H781 0.949 . S
H758 C762 0.949 . S
C759 C760 1.349 . S
C759 C761 1.327 . S
C759 H782 0.950 . S
C760 C759 1.349 . S
C760 C772 1.349 . S
C761 C759 1.327 . S
C761 C777 1.429 . S
C761 H783 0.950 . S
C762 H758 0.949 . S
C762 C770 1.574 . S
C762 C778 1.368 1_565 S
H763 C771 0.950 . S
H764 C769 0.950 . S
H765 C770 0.949 . S
H766 C772 0.950 . S
H767 C773 0.950 . S
H768 C774 0.949 . S
C769 H764 0.950 . S
C769 C771 1.327 . S
C769 C775 1.429 . S
C770 C762 1.574 . S
C770 H765 0.949 . S
C770 C776 1.368 . S
C771 C755 1.349 . S
C771 H763 0.950 . S
C771 C769 1.327 . S
C772 C760 1.349 . S
C772 H766 0.950 . S
C772 C773 1.327 . S
C773 H767 0.950 . S
C773 C772 1.327 . S
C773 C777 1.429 . S
C774 C757 1.574 . S
C774 H768 0.949 . S
C774 C778 1.368 . S
C775 C756 1.429 . S
C775 C769 1.429 . S
C775 C776 1.523 . S
C776 C757 1.368 1_565 S
C776 C770 1.368 . S
C776 C775 1.523 . S
C777 C761 1.429 . S
C777 C773 1.429 . S
C777 C778 1.523 . S
C778 C762 1.368 1_545 S
C778 C774 1.368 . S
C778 C777 1.523 . S
H779 C754 0.950 . S
H780 C756 0.950 . S
H781 C757 0.949 . S
H782 C759 0.950 . S
H783 C761 0.950 . S
C784 C785 1.349 . S
C784 C786 1.327 . S
C784 H809 0.950 . S
C785 C784 1.349 . S
C785 C801 1.349 . S
C786 C784 1.327 . S
C786 C805 1.429 . S
C786 H810 0.950 . S
C787 C804 1.574 . S
C787 C806 1.369 1_554 S
C787 H811 0.949 1_554 S
H788 C792 0.949 . S
C789 C790 1.349 . S
C789 C791 1.327 . S
C789 H812 0.950 . S
C790 C789 1.349 . S
C790 C802 1.349 . S
C791 C789 1.327 . S
C791 C807 1.429 . S
C791 H813 0.950 . S
C792 H788 0.949 . S
C792 C800 1.574 . S
C792 C808 1.368 . S
H793 C801 0.950 . S
H794 C799 0.950 . S
H795 C800 0.949 . S
H796 C802 0.950 . S
H797 C803 0.950 . S
H798 C804 0.949 . S
C799 H794 0.950 . S
C799 C801 1.327 . S
C799 C805 1.429 . S
C800 C792 1.574 . S
C800 H795 0.949 . S
C800 C806 1.370 1_554 S
C801 C785 1.349 . S
C801 H793 0.950 . S
C801 C799 1.327 . S
C802 C790 1.349 . S
C802 H796 0.950 . S
C802 C803 1.327 . S
C803 H797 0.950 . S
C803 C802 1.327 . S
C803 C807 1.429 . S
C804 C787 1.574 . S
C804 H798 0.949 . S
C804 C808 1.368 . S
C805 C786 1.429 . S
C805 C799 1.429 . S
C805 C806 1.519 . S
C806 C787 1.369 1_556 S
C806 C800 1.370 1_556 S
C806 C805 1.519 . S
C807 C791 1.429 . S
C807 C803 1.429 . S
C807 C808 1.523 . S
C808 C792 1.368 . S
C808 C804 1.368 . S
C808 C807 1.523 . S
H809 C784 0.950 . S
H810 C786 0.950 . S
H811 C787 0.949 1_556 S
H812 C789 0.950 . S
H813 C791 0.950 . S
C814 C815 1.349 . S
C814 C816 1.327 . S
C814 H839 0.950 . S
C815 C814 1.349 . S
C815 C831 1.349 . S
C816 C814 1.327 . S
C816 C835 1.429 . S
C816 H840 0.950 . S
C817 C834 1.574 . S
C817 C836 1.368 . S
C817 H841 0.949 . S
H818 C822 0.949 . S
C819 C820 1.349 . S
C819 C821 1.327 . S
C819 H842 0.950 . S
C820 C819 1.349 . S
C820 C832 1.349 . S
C821 C819 1.327 . S
C821 C837 1.429 . S
C821 H843 0.950 . S
C822 H818 0.949 . S
C822 C830 1.574 . S
C822 C838 1.368 . S
H823 C831 0.950 . S
H824 C829 0.950 . S
H825 C830 0.949 . S
H826 C832 0.950 . S
H827 C833 0.950 . S
H828 C834 0.949 . S
C829 H824 0.950 . S
C829 C831 1.327 . S
C829 C835 1.429 . S
C830 C822 1.574 . S
C830 H825 0.949 . S
C830 C836 1.368 . S
C831 C815 1.349 . S
C831 H823 0.950 . S
C831 C829 1.327 . S
C832 C820 1.349 . S
C832 H826 0.950 . S
C832 C833 1.327 . S
C833 H827 0.950 . S
C833 C832 1.327 . S
C833 C837 1.429 . S
C834 C817 1.574 . S
C834 H828 0.949 . S
C834 C838 1.368 . S
C835 C816 1.429 . S
C835 C829 1.429 . S
C835 C836 1.523 . S
C836 C817 1.368 . S
C836 C830 1.368 . S
C836 C835 1.523 . S
C837 C821 1.429 . S
C837 C833 1.429 . S
C837 C838 1.523 . S
C838 C822 1.368 . S
C838 C834 1.368 . S
C838 C837 1.523 . S
H839 C814 0.950 . S
H840 C816 0.950 . S
H841 C817 0.949 . S
H842 C819 0.950 . S
H843 C821 0.950 . S
C844 C845 1.349 . S
C844 C846 1.327 . S
C844 H869 0.950 . S
C845 C844 1.349 . S
C845 C861 1.349 . S
C846 C844 1.327 . S
C846 C865 1.429 . S
C846 H870 0.950 . S
C847 C864 1.574 . S
C847 C866 1.368 . S
C847 H871 0.949 . S
H848 C852 0.949 . S
C849 C850 1.349 . S
C849 C851 1.327 . S
C849 H872 0.950 . S
C850 C849 1.349 . S
C850 C862 1.349 . S
C851 C849 1.327 . S
C851 C867 1.429 . S
C851 H873 0.950 . S
C852 H848 0.949 . S
C852 C860 1.574 . S
C852 C868 1.368 . S
H853 C861 0.950 . S
H854 C859 0.950 . S
H855 C860 0.949 . S
H856 C862 0.950 . S
H857 C863 0.950 . S
H858 C864 0.949 . S
C859 H854 0.950 . S
C859 C861 1.327 . S
C859 C865 1.429 . S
C860 C852 1.574 . S
C860 H855 0.949 . S
C860 C866 1.368 . S
C861 C845 1.349 . S
C861 H853 0.950 . S
C861 C859 1.327 . S
C862 C850 1.349 . S
C862 H856 0.950 . S
C862 C863 1.327 . S
C863 H857 0.950 . S
C863 C862 1.327 . S
C863 C867 1.429 . S
C864 C847 1.574 . S
C864 H858 0.949 . S
C864 C868 1.368 . S
C865 C846 1.429 . S
C865 C859 1.429 . S
C865 C866 1.523 . S
C866 C847 1.368 . S
C866 C860 1.368 . S
C866 C865 1.523 . S
C867 C851 1.429 . S
C867 C863 1.429 . S
C867 C868 1.523 . S
C868 C852 1.368 . S
C868 C864 1.368 . S
C868 C867 1.523 . S
H869 C844 0.950 . S
H870 C846 0.950 . S
H871 C847 0.949 . S
H872 C849 0.950 . S
H873 C851 0.950 . S
C874 C875 1.349 . S
C874 C876 1.327 . S
C874 H899 0.950 . S
C875 C874 1.349 . S
C875 C891 1.349 . S
C876 C874 1.327 . S
C876 C895 1.429 . S
C876 H900 0.950 . S
C877 C894 1.574 . S
C877 C896 1.368 . S
C877 H901 0.949 . S
H878 C882 0.949 . S
C879 C880 1.349 . S
C879 C881 1.327 . S
C879 H902 0.950 . S
C880 C879 1.349 . S
C880 C892 1.349 . S
C881 C879 1.327 . S
C881 C897 1.429 . S
C881 H903 0.950 . S
C882 H878 0.949 . S
C882 C890 1.574 . S
C882 C898 1.368 . S
H883 C891 0.950 . S
H884 C889 0.950 . S
H885 C890 0.949 . S
H886 C892 0.950 . S
H887 C893 0.950 . S
H888 C894 0.949 . S
C889 H884 0.950 . S
C889 C891 1.327 . S
C889 C895 1.429 . S
C890 C882 1.574 . S
C890 H885 0.949 . S
C890 C896 1.368 . S
C891 C875 1.349 . S
C891 H883 0.950 . S
C891 C889 1.327 . S
C892 C880 1.349 . S
C892 H886 0.950 . S
C892 C893 1.327 . S
C893 H887 0.950 . S
C893 C892 1.327 . S
C893 C897 1.429 . S
C894 C877 1.574 . S
C894 H888 0.949 . S
C894 C898 1.368 . S
C895 C876 1.429 . S
C895 C889 1.429 . S
C895 C896 1.523 . S
C896 C877 1.368 . S
C896 C890 1.368 . S
C896 C895 1.523 . S
C897 C881 1.429 . S
C897 C893 1.429 . S
C897 C898 1.523 . S
C898 C882 1.368 . S
C898 C894 1.368 . S
C898 C897 1.523 . S
H899 C874 0.950 . S
H900 C876 0.950 . S
H901 C877 0.949 . S
H902 C879 0.950 . S
H903 C881 0.950 . S
C904 C905 1.349 . S
C904 C906 1.327 . S
C904 H929 0.950 . S
C905 C904 1.349 . S
C905 C921 1.349 . S
C906 C904 1.327 . S
C906 C925 1.429 . S
C906 H930 0.950 . S
C907 C924 1.574 . S
C907 C926 1.369 1_556 S
C907 H931 0.949 1_556 S
H908 C912 0.949 . S
C909 C910 1.349 . S
C909 C911 1.327 . S
C909 H932 0.950 . S
C910 C909 1.349 . S
C910 C922 1.349 . S
C911 C909 1.327 . S
C911 C927 1.429 . S
C911 H933 0.950 . S
C912 H908 0.949 . S
C912 C920 1.574 . S
C912 C928 1.368 . S
H913 C921 0.950 . S
H914 C919 0.950 . S
H915 C920 0.949 . S
H916 C922 0.950 . S
H917 C923 0.950 . S
H918 C924 0.949 . S
C919 H914 0.950 . S
C919 C921 1.327 . S
C919 C925 1.429 . S
C920 C912 1.574 . S
C920 H915 0.949 . S
C920 C926 1.371 1_556 S
C921 C905 1.349 . S
C921 H913 0.950 . S
C921 C919 1.327 . S
C922 C910 1.349 . S
C922 H916 0.950 . S
C922 C923 1.327 . S
C923 H917 0.950 . S
C923 C922 1.327 . S
C923 C927 1.429 . S
C924 C907 1.574 . S
C924 H918 0.949 . S
C924 C928 1.368 . S
C925 C906 1.429 . S
C925 C919 1.429 . S
C925 C926 1.519 . S
C926 C907 1.369 1_554 S
C926 C920 1.371 1_554 S
C926 C925 1.519 . S
C927 C911 1.429 . S
C927 C923 1.429 . S
C927 C928 1.523 . S
C928 C912 1.368 . S
C928 C924 1.368 . S
C928 C927 1.523 . S
H929 C904 0.950 . S
H930 C906 0.950 . S
H931 C907 0.949 1_554 S
H932 C909 0.950 . S
H933 C911 0.950 . S
C934 C935 1.349 . S
C934 C936 1.327 . S
C934 H959 0.950 . S
C935 C934 1.349 . S
C935 C951 1.349 . S
C936 C934 1.327 . S
C936 C955 1.429 . S
C936 H960 0.950 . S
C937 C954 1.574 . S
C937 C956 1.368 . S
C937 H961 0.949 . S
H938 C942 0.949 . S
C939 C940 1.349 . S
C939 C941 1.327 . S
C939 H962 0.950 . S
C940 C939 1.349 . S
C940 C952 1.349 . S
C941 C939 1.327 . S
C941 C957 1.429 . S
C941 H963 0.950 . S
C942 H938 0.949 . S
C942 C950 1.574 . S
C942 C958 1.368 . S
H943 C951 0.950 . S
H944 C949 0.950 . S
H945 C950 0.949 . S
H946 C952 0.950 . S
H947 C953 0.950 . S
H948 C954 0.949 . S
C949 H944 0.950 . S
C949 C951 1.327 . S
C949 C955 1.429 . S
C950 C942 1.574 . S
C950 H945 0.949 . S
C950 C956 1.368 . S
C951 C935 1.349 . S
C951 H943 0.950 . S
C951 C949 1.327 . S
C952 C940 1.349 . S
C952 H946 0.950 . S
C952 C953 1.327 . S
C953 H947 0.950 . S
C953 C952 1.327 . S
C953 C957 1.429 . S
C954 C937 1.574 . S
C954 H948 0.949 . S
C954 C958 1.368 . S
C955 C936 1.429 . S
C955 C949 1.429 . S
C955 C956 1.523 . S
C956 C937 1.368 . S
C956 C950 1.368 . S
C956 C955 1.523 . S
C957 C941 1.429 . S
C957 C953 1.429 . S
C957 C958 1.523 . S
C958 C942 1.368 . S
C958 C954 1.368 . S
C958 C957 1.523 . S
H959 C934 0.950 . S
H960 C936 0.950 . S
H961 C937 0.949 . S
H962 C939 0.950 . S
H963 C941 0.950 . S
C964 C965 1.349 . S
C964 C966 1.327 . S
C964 H989 0.950 . S
C965 C964 1.349 . S
C965 C981 1.349 . S
C966 C964 1.327 . S
C966 C985 1.429 . S
C966 H990 0.950 . S
C967 C984 1.574 . S
C967 C986 1.368 . S
C967 H991 0.949 . S
H968 C972 0.949 . S
C969 C970 1.349 . S
C969 C971 1.327 . S
C969 H992 0.950 . S
C970 C969 1.349 . S
C970 C982 1.349 . S
C971 C969 1.327 . S
C971 C987 1.429 . S
C971 H993 0.950 . S
C972 H968 0.949 . S
C972 C980 1.574 . S
C972 C988 1.368 . S
H973 C981 0.950 . S
H974 C979 0.950 . S
H975 C980 0.949 . S
H976 C982 0.950 . S
H977 C983 0.950 . S
H978 C984 0.949 . S
C979 H974 0.950 . S
C979 C981 1.327 . S
C979 C985 1.429 . S
C980 C972 1.574 . S
C980 H975 0.949 . S
C980 C986 1.368 . S
C981 C965 1.349 . S
C981 H973 0.950 . S
C981 C979 1.327 . S
C982 C970 1.349 . S
C982 H976 0.950 . S
C982 C983 1.327 . S
C983 H977 0.950 . S
C983 C982 1.327 . S
C983 C987 1.429 . S
C984 C967 1.574 . S
C984 H978 0.949 . S
C984 C988 1.368 . S
C985 C966 1.429 . S
C985 C979 1.429 . S
C985 C986 1.523 . S
C986 C967 1.368 . S
C986 C980 1.368 . S
C986 C985 1.523 . S
C987 C971 1.429 . S
C987 C983 1.429 . S
C987 C988 1.523 . S
C988 C972 1.368 . S
C988 C984 1.368 . S
C988 C987 1.523 . S
H989 C964 0.950 . S
H990 C966 0.950 . S
H991 C967 0.949 . S
H992 C969 0.950 . S
H993 C971 0.950 . S
C994 C995 1.349 . S
C994 C996 1.327 . S
C994 H1019 0.950 . S
C995 C994 1.349 . S
C995 C1011 1.349 . S
C996 C994 1.327 . S
C996 C1015 1.429 . S
C996 H1020 0.950 . S
C997 C1014 1.574 . S
C997 C1016 1.368 . S
C997 H1021 0.949 . S
H998 C1002 0.949 . S
C999 C1000 1.349 . S
C999 C1001 1.327 . S
C999 H1022 0.950 . S
C1000 C999 1.349 . S
C1000 C1012 1.349 . S
C1001 C999 1.327 . S
C1001 C1017 1.429 . S
C1001 H1023 0.950 . S
C1002 H998 0.949 . S
C1002 C1010 1.574 . S
C1002 C1018 1.368 . S
H1003 C1011 0.950 . S
H1004 C1009 0.950 . S
H1005 C1010 0.949 . S
H1006 C1012 0.950 . S
H1007 C1013 0.950 . S
H1008 C1014 0.949 . S
C1009 H1004 0.950 . S
C1009 C1011 1.327 . S
C1009 C1015 1.429 . S
C1010 C1002 1.574 . S
C1010 H1005 0.949 . S
C1010 C1016 1.368 . S
C1011 C995 1.349 . S
C1011 H1003 0.950 . S
C1011 C1009 1.327 . S
C1012 C1000 1.349 . S
C1012 H1006 0.950 . S
C1012 C1013 1.327 . S
C1013 H1007 0.950 . S
C1013 C1012 1.327 . S
C1013 C1017 1.429 . S
C1014 C997 1.574 . S
C1014 H1008 0.949 . S
C1014 C1018 1.368 . S
C1015 C996 1.429 . S
C1015 C1009 1.429 . S
C1015 C1016 1.523 . S
C1016 C997 1.368 . S
C1016 C1010 1.368 . S
C1016 C1015 1.523 . S
C1017 C1001 1.429 . S
C1017 C1013 1.429 . S
C1017 C1018 1.523 . S
C1018 C1002 1.368 . S
C1018 C1014 1.368 . S
C1018 C1017 1.523 . S
H1019 C994 0.950 . S
H1020 C996 0.950 . S
H1021 C997 0.949 . S
H1022 C999 0.950 . S
H1023 C1001 0.950 . S
C1024 C1025 1.349 . S
C1024 C1026 1.327 . S
C1024 H1049 0.950 . S
C1025 C1024 1.349 . S
C1025 C1041 1.349 . S
C1026 C1024 1.327 . S
C1026 C1045 1.429 . S
C1026 H1050 0.950 . S
C1027 C1044 1.574 . S
C1027 C1046 1.368 . S
C1027 H1051 0.949 . S
H1028 C1032 0.949 . S
C1029 C1030 1.349 . S
C1029 C1031 1.327 . S
C1029 H1052 0.950 . S
C1030 C1029 1.349 . S
C1030 C1042 1.349 . S
C1031 C1029 1.327 . S
C1031 C1047 1.429 . S
C1031 H1053 0.950 . S
C1032 H1028 0.949 . S
C1032 C1040 1.574 . S
C1032 C1048 1.368 . S
H1033 C1041 0.950 . S
H1034 C1039 0.950 . S
H1035 C1040 0.949 . S
H1036 C1042 0.950 . S
H1037 C1043 0.950 . S
H1038 C1044 0.949 . S
C1039 H1034 0.950 . S
C1039 C1041 1.327 . S
C1039 C1045 1.429 . S
C1040 C1032 1.574 . S
C1040 H1035 0.949 . S
C1040 C1046 1.368 . S
C1041 C1025 1.349 . S
C1041 H1033 0.950 . S
C1041 C1039 1.327 . S
C1042 C1030 1.349 . S
C1042 H1036 0.950 . S
C1042 C1043 1.327 . S
C1043 H1037 0.950 . S
C1043 C1042 1.327 . S
C1043 C1047 1.429 . S
C1044 C1027 1.574 . S
C1044 H1038 0.949 . S
C1044 C1048 1.368 . S
C1045 C1026 1.429 . S
C1045 C1039 1.429 . S
C1045 C1046 1.523 . S
C1046 C1027 1.368 . S
C1046 C1040 1.368 . S
C1046 C1045 1.523 . S
C1047 C1031 1.429 . S
C1047 C1043 1.429 . S
C1047 C1048 1.523 . S
C1048 C1032 1.368 . S
C1048 C1044 1.368 . S
C1048 C1047 1.523 . S
H1049 C1024 0.950 . S
H1050 C1026 0.950 . S
H1051 C1027 0.949 . S
H1052 C1029 0.950 . S
H1053 C1031 0.950 . S
C1054 C1055 1.349 . S
C1054 C1056 1.327 . S
C1054 H1079 0.950 . S
C1055 C1054 1.349 . S
C1055 C1071 1.349 . S
C1056 C1054 1.327 . S
C1056 C1075 1.429 . S
C1056 H1080 0.950 . S
C1057 C1074 1.574 1_545 S
C1057 C1076 1.368 . S
C1057 H1081 0.949 . S
H1058 C1062 0.949 . S
C1059 C1060 1.349 . S
C1059 C1061 1.327 . S
C1059 H1082 0.950 . S
C1060 C1059 1.349 . S
C1060 C1072 1.349 . S
C1061 C1059 1.327 . S
C1061 C1077 1.429 . S
C1061 H1083 0.950 . S
C1062 H1058 0.949 . S
C1062 C1070 1.574 . S
C1062 C1078 1.347 1_545 S
H1063 C1071 0.950 . S
H1064 C1069 0.950 . S
H1065 C1070 0.949 . S
H1066 C1072 0.950 . S
H1067 C1073 0.930 1_545 S
H1068 C1074 0.949 . S
C1069 H1064 0.950 . S
C1069 C1071 1.327 . S
C1069 C1075 1.429 . S
C1070 C1062 1.574 . S
C1070 H1065 0.949 . S
C1070 C1076 1.368 . S
C1071 C1055 1.349 . S
C1071 H1063 0.950 . S
C1071 C1069 1.327 . S
C1072 C1060 1.349 . S
C1072 H1066 0.950 . S
C1072 C1073 1.327 . S
C1073 H1067 0.930 1_565 S
C1073 C1072 1.327 . S
C1073 C1077 1.429 . S
C1074 C1057 1.574 1_565 S
C1074 H1068 0.949 . S
C1074 C1078 1.378 . S
C1075 C1056 1.429 . S
C1075 C1069 1.429 . S
C1075 C1076 1.523 . S
C1076 C1057 1.368 . S
C1076 C1070 1.368 . S
C1076 C1075 1.523 . S
C1077 C1061 1.429 . S
C1077 C1073 1.429 . S
C1077 C1078 1.540 . S
C1078 C1062 1.347 1_565 S
C1078 C1074 1.378 . S
C1078 C1077 1.540 . S
H1079 C1054 0.950 . S
H1080 C1056 0.950 . S
H1081 C1057 0.949 . S
H1082 C1059 0.950 . S
H1083 C1061 0.950 . S
C1084 C1085 1.349 . S
C1084 C1086 1.327 . S
C1084 H1109 0.950 . S
C1085 C1084 1.349 . S
C1085 C1101 1.349 . S
C1086 C1084 1.327 . S
C1086 C1105 1.429 . S
C1086 H1110 0.950 . S
C1087 C1104 1.574 . S
C1087 C1106 1.368 . S
C1087 H1111 0.949 . S
H1088 C1092 0.949 . S
C1089 C1090 1.349 . S
C1089 C1091 1.327 . S
C1089 H1112 0.950 . S
C1090 C1089 1.349 . S
C1090 C1102 1.349 . S
C1091 C1089 1.327 . S
C1091 C1107 1.429 . S
C1091 H1113 0.950 . S
C1092 H1088 0.949 . S
C1092 C1100 1.574 . S
C1092 C1108 1.371 1_554 S
H1093 C1101 0.950 . S
H1094 C1099 0.950 . S
H1095 C1100 0.949 . S
H1096 C1102 0.950 . S
H1097 C1103 0.950 . S
H1098 C1104 0.949 1_556 S
C1099 H1094 0.950 . S
C1099 C1101 1.327 . S
C1099 C1105 1.429 . S
C1100 C1092 1.574 . S
C1100 H1095 0.949 . S
C1100 C1106 1.368 . S
C1101 C1085 1.349 . S
C1101 H1093 0.950 . S
C1101 C1099 1.327 . S
C1102 C1090 1.349 . S
C1102 H1096 0.950 . S
C1102 C1103 1.327 . S
C1103 H1097 0.950 . S
C1103 C1102 1.327 . S
C1103 C1107 1.429 . S
C1104 C1087 1.574 . S
C1104 H1098 0.949 1_554 S
C1104 C1108 1.369 1_554 S
C1105 C1086 1.429 . S
C1105 C1099 1.429 . S
C1105 C1106 1.523 . S
C1106 C1087 1.368 . S
C1106 C1100 1.368 . S
C1106 C1105 1.523 . S
C1107 C1091 1.429 . S
C1107 C1103 1.429 . S
C1107 C1108 1.519 . S
C1108 C1092 1.371 1_556 S
C1108 C1104 1.369 1_556 S
C1108 C1107 1.519 . S
H1109 C1084 0.950 . S
H1110 C1086 0.950 . S
H1111 C1087 0.949 . S
H1112 C1089 0.950 . S
H1113 C1091 0.950 . S
C1114 C1115 1.349 . S
C1114 C1116 1.327 . S
C1114 H1139 0.950 . S
C1115 C1114 1.349 . S
C1115 C1131 1.349 . S
C1116 C1114 1.327 . S
C1116 C1135 1.429 . S
C1116 H1140 0.950 . S
C1117 C1134 1.574 . S
C1117 C1136 1.337 1_565 S
C1117 H1141 0.949 . S
H1118 C1122 0.949 . S
C1119 C1120 1.349 . S
C1119 C1121 1.327 . S
C1119 H1142 0.950 . S
C1120 C1119 1.349 . S
C1120 C1132 1.349 . S
C1121 C1119 1.327 . S
C1121 C1137 1.429 . S
C1121 H1143 0.950 . S
C1122 H1118 0.949 . S
C1122 C1130 1.574 . S
C1122 C1138 1.368 1_545 S
H1123 C1131 0.950 . S
H1124 C1129 0.950 1_565 S
H1125 C1130 0.949 . S
H1126 C1132 0.950 . S
H1127 C1133 0.950 . S
H1128 C1134 0.949 . S
C1129 H1124 0.950 1_545 S
C1129 C1131 1.327 . S
C1129 C1135 1.429 . S
C1130 C1122 1.574 . S
C1130 H1125 0.949 . S
C1130 C1136 1.388 . S
C1131 C1115 1.349 . S
C1131 H1123 0.950 . S
C1131 C1129 1.327 . S
C1132 C1120 1.349 . S
C1132 H1126 0.950 . S
C1132 C1133 1.327 . S
C1133 H1127 0.950 . S
C1133 C1132 1.327 . S
C1133 C1137 1.429 . S
C1134 C1117 1.574 . S
C1134 H1128 0.949 . S
C1134 C1138 1.368 . S
C1135 C1116 1.429 . S
C1135 C1129 1.429 . S
C1135 C1136 1.540 . S
C1136 C1117 1.337 1_545 S
C1136 C1130 1.388 . S
C1136 C1135 1.540 . S
C1137 C1121 1.429 . S
C1137 C1133 1.429 . S
C1137 C1138 1.523 . S
C1138 C1122 1.368 1_565 S
C1138 C1134 1.368 . S
C1138 C1137 1.523 . S
H1139 C1114 0.950 . S
H1140 C1116 0.950 . S
H1141 C1117 0.949 . S
H1142 C1119 0.950 . S
H1143 C1121 0.950 . S
C1144 C1145 1.349 . S
C1144 C1146 1.327 . S
C1144 H1169 0.950 . S
C1145 C1144 1.349 . S
C1145 C1161 1.349 . S
C1146 C1144 1.327 . S
C1146 C1165 1.429 . S
C1146 H1170 0.950 . S
C1147 C1164 1.574 . S
C1147 C1166 1.368 . S
C1147 H1171 0.949 . S
H1148 C1152 0.949 . S
C1149 C1150 1.349 . S
C1149 C1151 1.327 . S
C1149 H1172 0.950 . S
C1150 C1149 1.349 . S
C1150 C1162 1.349 . S
C1151 C1149 1.327 . S
C1151 C1167 1.429 . S
C1151 H1173 0.950 . S
C1152 H1148 0.949 . S
C1152 C1160 1.574 . S
C1152 C1168 1.368 . S
H1153 C1161 0.950 . S
H1154 C1159 0.950 . S
H1155 C1160 0.949 . S
H1156 C1162 0.950 . S
H1157 C1163 0.950 . S
H1158 C1164 0.949 . S
C1159 H1154 0.950 . S
C1159 C1161 1.327 . S
C1159 C1165 1.429 . S
C1160 C1152 1.574 . S
C1160 H1155 0.949 . S
C1160 C1166 1.368 . S
C1161 C1145 1.349 . S
C1161 H1153 0.950 . S
C1161 C1159 1.327 . S
C1162 C1150 1.349 . S
C1162 H1156 0.950 . S
C1162 C1163 1.327 . S
C1163 H1157 0.950 . S
C1163 C1162 1.327 . S
C1163 C1167 1.429 . S
C1164 C1147 1.574 . S
C1164 H1158 0.949 . S
C1164 C1168 1.368 . S
C1165 C1146 1.429 . S
C1165 C1159 1.429 . S
C1165 C1166 1.523 . S
C1166 C1147 1.368 . S
C1166 C1160 1.368 . S
C1166 C1165 1.523 . S
C1167 C1151 1.429 . S
C1167 C1163 1.429 . S
C1167 C1168 1.523 . S
C1168 C1152 1.368 . S
C1168 C1164 1.368 . S
C1168 C1167 1.523 . S
H1169 C1144 0.950 . S
H1170 C1146 0.950 . S
H1171 C1147 0.949 . S
H1172 C1149 0.950 . S
H1173 C1151 0.950 . S
C1174 C1175 1.349 . S
C1174 C1176 1.327 . S
C1174 H1199 0.950 . S
C1175 C1174 1.349 . S
C1175 C1191 1.349 . S
C1176 C1174 1.327 . S
C1176 C1195 1.429 . S
C1176 H1200 0.950 . S
C1177 C1194 1.574 . S
C1177 C1196 1.368 . S
C1177 H1201 0.949 . S
H1178 C1182 0.949 . S
C1179 C1180 1.349 . S
C1179 C1181 1.327 1_545 S
C1179 H1202 0.950 . S
C1180 C1179 1.349 . S
C1180 C1192 1.349 . S
C1181 C1179 1.327 1_565 S
C1181 C1197 1.428 1_565 S
C1181 H1203 0.950 . S
C1182 H1178 0.949 . S
C1182 C1190 1.574 . S
C1182 C1198 1.393 . S
H1183 C1191 0.950 . S
H1184 C1189 0.950 . S
H1185 C1190 0.949 . S
H1186 C1192 0.950 . S
H1187 C1193 0.950 . S
H1188 C1194 0.949 . S
C1189 H1184 0.950 . S
C1189 C1191 1.327 . S
C1189 C1195 1.429 . S
C1190 C1182 1.574 . S
C1190 H1185 0.949 . S
C1190 C1196 1.368 1_545 S
C1191 C1175 1.349 . S
C1191 H1183 0.950 . S
C1191 C1189 1.327 . S
C1192 C1180 1.349 . S
C1192 H1186 0.950 . S
C1192 C1193 1.327 . S
C1193 H1187 0.950 . S
C1193 C1192 1.327 . S
C1193 C1197 1.429 . S
C1194 C1177 1.574 . S
C1194 H1188 0.949 . S
C1194 C1198 1.332 1_565 S
C1195 C1176 1.429 . S
C1195 C1189 1.429 . S
C1195 C1196 1.523 . S
C1196 C1177 1.368 . S
C1196 C1190 1.368 1_565 S
C1196 C1195 1.523 . S
C1197 C1181 1.428 1_545 S
C1197 C1193 1.429 . S
C1197 C1198 1.540 . S
C1198 C1182 1.393 . S
C1198 C1194 1.332 1_545 S
C1198 C1197 1.540 . S
H1199 C1174 0.950 . S
H1200 C1176 0.950 . S
H1201 C1177 0.949 . S
H1202 C1179 0.950 . S
H1203 C1181 0.950 . S
C1204 C1205 1.349 . S
C1204 C1206 1.327 . S
C1204 H1229 0.950 . S
C1205 C1204 1.349 . S
C1205 C1221 1.349 . S
C1206 C1204 1.327 . S
C1206 C1225 1.429 . S
C1206 H1230 0.950 . S
C1207 C1224 1.574 . S
C1207 C1226 1.371 1_556 S
C1207 H1231 0.949 . S
H1208 C1212 0.949 . S
C1209 C1210 1.349 . S
C1209 C1211 1.327 . S
C1209 H1232 0.950 . S
C1210 C1209 1.349 . S
C1210 C1222 1.349 . S
C1211 C1209 1.327 . S
C1211 C1227 1.429 . S
C1211 H1233 0.950 . S
C1212 H1208 0.949 . S
C1212 C1220 1.574 . S
C1212 C1228 1.368 . S
H1213 C1221 0.950 . S
H1214 C1219 0.950 . S
H1215 C1220 0.949 1_554 S
H1216 C1222 0.950 . S
H1217 C1223 0.950 . S
H1218 C1224 0.949 . S
C1219 H1214 0.950 . S
C1219 C1221 1.327 . S
C1219 C1225 1.429 . S
C1220 C1212 1.574 . S
C1220 H1215 0.949 1_556 S
C1220 C1226 1.369 1_556 S
C1221 C1205 1.349 . S
C1221 H1213 0.950 . S
C1221 C1219 1.327 . S
C1222 C1210 1.349 . S
C1222 H1216 0.950 . S
C1222 C1223 1.327 . S
C1223 H1217 0.950 . S
C1223 C1222 1.327 . S
C1223 C1227 1.429 . S
C1224 C1207 1.574 . S
C1224 H1218 0.949 . S
C1224 C1228 1.368 . S
C1225 C1206 1.429 . S
C1225 C1219 1.429 . S
C1225 C1226 1.519 . S
C1226 C1207 1.371 1_554 S
C1226 C1220 1.369 1_554 S
C1226 C1225 1.519 . S
C1227 C1211 1.429 . S
C1227 C1223 1.429 . S
C1227 C1228 1.523 . S
C1228 C1212 1.368 . S
C1228 C1224 1.368 . S
C1228 C1227 1.523 . S
H1229 C1204 0.950 . S
H1230 C1206 0.950 . S
H1231 C1207 0.949 . S
H1232 C1209 0.950 . S
H1233 C1211 0.950 . S
C1234 C1235 1.349 . S
C1234 C1236 1.327 . S
C1234 H1259 0.950 . S
C1235 C1234 1.349 . S
C1235 C1251 1.349 . S
C1236 C1234 1.327 . S
C1236 C1255 1.429 . S
C1236 H1260 0.950 . S
C1237 C1254 1.574 . S
C1237 C1256 1.368 . S
C1237 H1261 0.949 . S
H1238 C1242 0.949 . S
C1239 C1240 1.349 . S
C1239 C1241 1.321 1_565 S
C1239 H1262 0.950 . S
C1240 C1239 1.349 . S
C1240 C1252 1.349 . S
C1241 C1239 1.321 1_545 S
C1241 C1257 1.421 1_545 S
C1241 H1263 0.963 . S
C1242 H1238 0.949 . S
C1242 C1250 1.574 . S
C1242 C1258 1.393 . S
H1243 C1251 0.950 . S
H1244 C1249 0.950 . S
H1245 C1250 0.949 . S
H1246 C1252 0.950 . S
H1247 C1253 0.950 . S
H1248 C1254 0.949 . S
C1249 H1244 0.950 . S
C1249 C1251 1.327 . S
C1249 C1255 1.429 . S
C1250 C1242 1.574 . S
C1250 H1245 0.949 . S
C1250 C1256 1.368 1_565 S
C1251 C1235 1.349 . S
C1251 H1243 0.950 . S
C1251 C1249 1.327 . S
C1252 C1240 1.349 . S
C1252 H1246 0.950 . S
C1252 C1253 1.327 . S
C1253 H1247 0.950 . S
C1253 C1252 1.327 . S
C1253 C1257 1.429 . S
C1254 C1237 1.574 . S
C1254 H1248 0.949 . S
C1254 C1258 1.331 1_545 S
C1255 C1236 1.429 . S
C1255 C1249 1.429 . S
C1255 C1256 1.523 . S
C1256 C1237 1.368 . S
C1256 C1250 1.368 1_545 S
C1256 C1255 1.523 . S
C1257 C1241 1.421 1_565 S
C1257 C1253 1.429 . S
C1257 C1258 1.540 . S
C1258 C1242 1.393 . S
C1258 C1254 1.331 1_565 S
C1258 C1257 1.540 . S
H1259 C1234 0.950 . S
H1260 C1236 0.950 . S
H1261 C1237 0.949 . S
H1262 C1239 0.950 . S
H1263 C1241 0.963 . S
C1264 C1265 1.349 . S
C1264 C1266 1.327 . S
C1264 H1289 0.950 . S
C1265 C1264 1.349 . S
C1265 C1281 1.349 . S
C1266 C1264 1.327 . S
C1266 C1285 1.429 . S
C1266 H1290 0.950 . S
C1267 C1284 1.574 . S
C1267 C1286 1.368 . S
C1267 H1291 0.949 . S
H1268 C1272 0.949 . S
C1269 C1270 1.349 . S
C1269 C1271 1.327 . S
C1269 H1292 0.950 . S
C1270 C1269 1.349 . S
C1270 C1282 1.349 . S
C1271 C1269 1.327 . S
C1271 C1287 1.429 . S
C1271 H1293 0.950 . S
C1272 H1268 0.949 . S
C1272 C1280 1.574 . S
C1272 C1288 1.368 . S
H1273 C1281 0.950 . S
H1274 C1279 0.950 . S
H1275 C1280 0.949 . S
H1276 C1282 0.950 . S
H1277 C1283 0.950 . S
H1278 C1284 0.949 . S
C1279 H1274 0.950 . S
C1279 C1281 1.327 . S
C1279 C1285 1.429 . S
C1280 C1272 1.574 . S
C1280 H1275 0.949 . S
C1280 C1286 1.368 . S
C1281 C1265 1.349 . S
C1281 H1273 0.950 . S
C1281 C1279 1.327 . S
C1282 C1270 1.349 . S
C1282 H1276 0.950 . S
C1282 C1283 1.327 . S
C1283 H1277 0.950 . S
C1283 C1282 1.327 . S
C1283 C1287 1.429 . S
C1284 C1267 1.574 . S
C1284 H1278 0.949 . S
C1284 C1288 1.368 . S
C1285 C1266 1.429 . S
C1285 C1279 1.429 . S
C1285 C1286 1.523 . S
C1286 C1267 1.368 . S
C1286 C1280 1.368 . S
C1286 C1285 1.523 . S
C1287 C1271 1.429 . S
C1287 C1283 1.429 . S
C1287 C1288 1.523 . S
C1288 C1272 1.368 . S
C1288 C1284 1.368 . S
C1288 C1287 1.523 . S
H1289 C1264 0.950 . S
H1290 C1266 0.950 . S
H1291 C1267 0.949 . S
H1292 C1269 0.950 . S
H1293 C1271 0.950 . S
C1294 C1295 1.349 . S
C1294 C1296 1.327 . S
C1294 H1319 0.950 . S
C1295 C1294 1.349 . S
C1295 C1311 1.349 . S
C1296 C1294 1.327 . S
C1296 C1315 1.429 . S
C1296 H1320 0.950 . S
C1297 C1314 1.574 . S
C1297 C1316 1.368 . S
C1297 H1321 0.949 . S
H1298 C1302 0.949 . S
C1299 C1300 1.349 . S
C1299 C1301 1.327 . S
C1299 H1322 0.950 . S
C1300 C1299 1.349 . S
C1300 C1312 1.349 . S
C1301 C1299 1.327 . S
C1301 C1317 1.429 . S
C1301 H1323 0.950 . S
C1302 H1298 0.949 . S
C1302 C1310 1.574 . S
C1302 C1318 1.368 . S
H1303 C1311 0.950 . S
H1304 C1309 0.950 . S
H1305 C1310 0.949 . S
H1306 C1312 0.950 . S
H1307 C1313 0.950 . S
H1308 C1314 0.949 . S
C1309 H1304 0.950 . S
C1309 C1311 1.327 . S
C1309 C1315 1.429 . S
C1310 C1302 1.574 . S
C1310 H1305 0.949 . S
C1310 C1316 1.368 . S
C1311 C1295 1.349 . S
C1311 H1303 0.950 . S
C1311 C1309 1.327 . S
C1312 C1300 1.349 . S
C1312 H1306 0.950 . S
C1312 C1313 1.327 . S
C1313 H1307 0.950 . S
C1313 C1312 1.327 . S
C1313 C1317 1.429 . S
C1314 C1297 1.574 . S
C1314 H1308 0.949 . S
C1314 C1318 1.368 . S
C1315 C1296 1.429 . S
C1315 C1309 1.429 . S
C1315 C1316 1.523 . S
C1316 C1297 1.368 . S
C1316 C1310 1.368 . S
C1316 C1315 1.523 . S
C1317 C1301 1.429 . S
C1317 C1313 1.429 . S
C1317 C1318 1.523 . S
C1318 C1302 1.368 . S
C1318 C1314 1.368 . S
C1318 C1317 1.523 . S
H1319 C1294 0.950 . S
H1320 C1296 0.950 . S
H1321 C1297 0.949 . S
H1322 C1299 0.950 . S
H1323 C1301 0.950 . S
C1324 C1325 1.349 . S
C1324 C1326 1.327 . S
C1324 H1349 0.950 . S
C1325 C1324 1.349 . S
C1325 C1341 1.349 . S
C1326 C1324 1.327 . S
C1326 C1345 1.429 . S
C1326 H1350 0.950 . S
C1327 C1344 1.574 1_655 S
C1327 C1346 1.368 . S
C1327 H1351 0.949 . S
H1328 C1332 0.949 . S
C1329 C1330 1.349 . S
C1329 C1331 1.327 . S
C1329 H1352 0.950 . S
C1330 C1329 1.349 . S
C1330 C1342 1.349 . S
C1331 C1329 1.327 . S
C1331 C1347 1.429 . S
C1331 H1353 0.950 . S
C1332 H1328 0.949 . S
C1332 C1340 1.574 1_455 S
C1332 C1348 1.368 . S
H1333 C1341 0.950 . S
H1334 C1339 0.950 . S
H1335 C1340 0.949 . S
H1336 C1342 0.950 . S
H1337 C1343 0.950 . S
H1338 C1344 0.949 . S
C1339 H1334 0.950 . S
C1339 C1341 1.327 . S
C1339 C1345 1.429 . S
C1340 C1332 1.574 1_655 S
C1340 H1335 0.949 . S
C1340 C1346 1.368 . S
C1341 C1325 1.349 . S
C1341 H1333 0.950 . S
C1341 C1339 1.327 . S
C1342 C1330 1.349 . S
C1342 H1336 0.950 . S
C1342 C1343 1.327 . S
C1343 H1337 0.950 . S
C1343 C1342 1.327 . S
C1343 C1347 1.429 . S
C1344 C1327 1.574 1_455 S
C1344 H1338 0.949 . S
C1344 C1348 1.368 . S
C1345 C1326 1.429 . S
C1345 C1339 1.429 . S
C1345 C1346 1.523 . S
C1346 C1327 1.368 . S
C1346 C1340 1.368 . S
C1346 C1345 1.523 . S
C1347 C1331 1.429 . S
C1347 C1343 1.429 . S
C1347 C1348 1.523 . S
C1348 C1332 1.368 . S
C1348 C1344 1.368 . S
C1348 C1347 1.523 . S
H1349 C1324 0.950 . S
H1350 C1326 0.950 . S
H1351 C1327 0.949 . S
H1352 C1329 0.950 . S
H1353 C1331 0.950 . S
C1354 C1355 1.349 . S
C1354 C1356 1.327 . S
C1354 H1379 0.950 . S
C1355 C1354 1.349 . S
C1355 C1371 1.349 . S
C1356 C1354 1.327 . S
C1356 C1375 1.429 . S
C1356 H1380 0.950 . S
C1357 C1374 1.574 . S
C1357 C1376 1.368 . S
C1357 H1381 0.949 . S
H1358 C1362 0.949 . S
C1359 C1360 1.349 . S
C1359 C1361 1.327 . S
C1359 H1382 0.950 . S
C1360 C1359 1.349 . S
C1360 C1372 1.349 . S
C1361 C1359 1.327 . S
C1361 C1377 1.429 . S
C1361 H1383 0.950 . S
C1362 H1358 0.949 . S
C1362 C1370 1.574 . S
C1362 C1378 1.368 . S
H1363 C1371 0.950 . S
H1364 C1369 0.950 . S
H1365 C1370 0.949 . S
H1366 C1372 0.950 . S
H1367 C1373 0.950 . S
H1368 C1374 0.949 . S
C1369 H1364 0.950 . S
C1369 C1371 1.327 . S
C1369 C1375 1.429 . S
C1370 C1362 1.574 . S
C1370 H1365 0.949 . S
C1370 C1376 1.368 1_455 S
C1371 C1355 1.349 . S
C1371 H1363 0.950 . S
C1371 C1369 1.327 . S
C1372 C1360 1.349 . S
C1372 H1366 0.950 . S
C1372 C1373 1.327 . S
C1373 H1367 0.950 . S
C1373 C1372 1.327 . S
C1373 C1377 1.429 . S
C1374 C1357 1.574 . S
C1374 H1368 0.949 . S
C1374 C1378 1.368 1_655 S
C1375 C1356 1.429 . S
C1375 C1369 1.429 . S
C1375 C1376 1.523 . S
C1376 C1357 1.368 . S
C1376 C1370 1.368 1_655 S
C1376 C1375 1.523 . S
C1377 C1361 1.429 . S
C1377 C1373 1.429 . S
C1377 C1378 1.523 . S
C1378 C1362 1.368 . S
C1378 C1374 1.368 1_455 S
C1378 C1377 1.523 . S
H1379 C1354 0.950 . S
H1380 C1356 0.950 . S
H1381 C1357 0.949 . S
H1382 C1359 0.950 . S
H1383 C1361 0.950 . S
C1384 C1385 1.349 . S
C1384 C1386 1.327 . S
C1384 H1409 0.950 . S
C1385 C1384 1.349 . S
C1385 C1401 1.349 . S
C1386 C1384 1.327 . S
C1386 C1405 1.429 . S
C1386 H1410 0.950 . S
C1387 C1404 1.574 . S
C1387 C1406 1.368 . S
C1387 H1411 0.949 . S
H1388 C1392 0.949 . S
C1389 C1390 1.349 . S
C1389 C1391 1.327 . S
C1389 H1412 0.950 . S
C1390 C1389 1.349 . S
C1390 C1402 1.349 . S
C1391 C1389 1.327 . S
C1391 C1407 1.429 . S
C1391 H1413 0.950 . S
C1392 H1388 0.949 . S
C1392 C1400 1.574 . S
C1392 C1408 1.368 . S
H1393 C1401 0.950 . S
H1394 C1399 0.950 . S
H1395 C1400 0.949 . S
H1396 C1402 0.950 . S
H1397 C1403 0.950 . S
H1398 C1404 0.949 . S
C1399 H1394 0.950 . S
C1399 C1401 1.327 . S
C1399 C1405 1.429 . S
C1400 C1392 1.574 . S
C1400 H1395 0.949 . S
C1400 C1406 1.368 . S
C1401 C1385 1.349 . S
C1401 H1393 0.950 . S
C1401 C1399 1.327 . S
C1402 C1390 1.349 . S
C1402 H1396 0.950 . S
C1402 C1403 1.327 . S
C1403 H1397 0.950 . S
C1403 C1402 1.327 . S
C1403 C1407 1.429 . S
C1404 C1387 1.574 . S
C1404 H1398 0.949 . S
C1404 C1408 1.368 . S
C1405 C1386 1.429 . S
C1405 C1399 1.429 . S
C1405 C1406 1.523 . S
C1406 C1387 1.368 . S
C1406 C1400 1.368 . S
C1406 C1405 1.523 . S
C1407 C1391 1.429 . S
C1407 C1403 1.429 . S
C1407 C1408 1.523 . S
C1408 C1392 1.368 . S
C1408 C1404 1.368 . S
C1408 C1407 1.523 . S
H1409 C1384 0.950 . S
H1410 C1386 0.950 . S
H1411 C1387 0.949 . S
H1412 C1389 0.950 . S
H1413 C1391 0.950 . S
C1414 C1415 1.349 . S
C1414 C1416 1.327 . S
C1414 H1439 0.950 . S
C1415 C1414 1.349 . S
C1415 C1431 1.349 . S
C1416 C1414 1.327 . S
C1416 C1435 1.429 . S
C1416 H1440 0.950 . S
C1417 C1434 1.574 . S
C1417 C1436 1.368 . S
C1417 H1441 0.949 . S
H1418 C1422 0.949 . S
C1419 C1420 1.349 . S
C1419 C1421 1.327 . S
C1419 H1442 0.950 . S
C1420 C1419 1.349 . S
C1420 C1432 1.349 . S
C1421 C1419 1.327 . S
C1421 C1437 1.429 . S
C1421 H1443 0.950 . S
C1422 H1418 0.949 . S
C1422 C1430 1.574 . S
C1422 C1438 1.368 . S
H1423 C1431 0.950 . S
H1424 C1429 0.950 . S
H1425 C1430 0.949 . S
H1426 C1432 0.950 . S
H1427 C1433 0.950 . S
H1428 C1434 0.949 . S
C1429 H1424 0.950 . S
C1429 C1431 1.327 . S
C1429 C1435 1.429 . S
C1430 C1422 1.574 . S
C1430 H1425 0.949 . S
C1430 C1436 1.368 . S
C1431 C1415 1.349 . S
C1431 H1423 0.950 . S
C1431 C1429 1.327 . S
C1432 C1420 1.349 . S
C1432 H1426 0.950 . S
C1432 C1433 1.327 . S
C1433 H1427 0.950 . S
C1433 C1432 1.327 . S
C1433 C1437 1.429 . S
C1434 C1417 1.574 . S
C1434 H1428 0.949 . S
C1434 C1438 1.368 . S
C1435 C1416 1.429 . S
C1435 C1429 1.429 . S
C1435 C1436 1.523 . S
C1436 C1417 1.368 . S
C1436 C1430 1.368 . S
C1436 C1435 1.523 . S
C1437 C1421 1.429 . S
C1437 C1433 1.429 . S
C1437 C1438 1.523 . S
C1438 C1422 1.368 . S
C1438 C1434 1.368 . S
C1438 C1437 1.523 . S
H1439 C1414 0.950 . S
H1440 C1416 0.950 . S
H1441 C1417 0.949 . S
H1442 C1419 0.950 . S
H1443 C1421 0.950 . S
C1444 C1445 1.349 . S
C1444 C1446 1.327 . S
C1444 H1469 0.950 . S
C1445 C1444 1.349 . S
C1445 C1461 1.349 . S
C1446 C1444 1.327 . S
C1446 C1465 1.429 . S
C1446 H1470 0.950 . S
C1447 C1464 1.574 1_455 S
C1447 C1466 1.368 . S
C1447 H1471 0.949 . S
H1448 C1452 0.949 . S
C1449 C1450 1.349 . S
C1449 C1451 1.327 . S
C1449 H1472 0.950 . S
C1450 C1449 1.349 . S
C1450 C1462 1.349 . S
C1451 C1449 1.327 . S
C1451 C1467 1.429 . S
C1451 H1473 0.950 . S
C1452 H1448 0.949 . S
C1452 C1460 1.574 1_655 S
C1452 C1468 1.368 . S
H1453 C1461 0.950 . S
H1454 C1459 0.950 . S
H1455 C1460 0.949 . S
H1456 C1462 0.950 . S
H1457 C1463 0.950 . S
H1458 C1464 0.949 . S
C1459 H1454 0.950 . S
C1459 C1461 1.327 . S
C1459 C1465 1.429 . S
C1460 C1452 1.574 1_455 S
C1460 H1455 0.949 . S
C1460 C1466 1.368 . S
C1461 C1445 1.349 . S
C1461 H1453 0.950 . S
C1461 C1459 1.327 . S
C1462 C1450 1.349 . S
C1462 H1456 0.950 . S
C1462 C1463 1.327 . S
C1463 H1457 0.950 . S
C1463 C1462 1.327 . S
C1463 C1467 1.429 . S
C1464 C1447 1.574 1_655 S
C1464 H1458 0.949 . S
C1464 C1468 1.368 . S
C1465 C1446 1.429 . S
C1465 C1459 1.429 . S
C1465 C1466 1.523 . S
C1466 C1447 1.368 . S
C1466 C1460 1.368 . S
C1466 C1465 1.523 . S
C1467 C1451 1.429 . S
C1467 C1463 1.429 . S
C1467 C1468 1.523 . S
C1468 C1452 1.368 . S
C1468 C1464 1.368 . S
C1468 C1467 1.523 . S
H1469 C1444 0.950 . S
H1470 C1446 0.950 . S
H1471 C1447 0.949 . S
H1472 C1449 0.950 . S
H1473 C1451 0.950 . S
C1474 C1475 1.349 . S
C1474 C1476 1.327 . S
C1474 H1499 0.950 . S
C1475 C1474 1.349 . S
C1475 C1491 1.349 . S
C1476 C1474 1.327 . S
C1476 C1495 1.429 . S
C1476 H1500 0.950 . S
C1477 C1494 1.574 . S
C1477 C1496 1.368 . S
C1477 H1501 0.949 . S
H1478 C1482 0.949 . S
C1479 C1480 1.349 . S
C1479 C1481 1.327 . S
C1479 H1502 0.950 . S
C1480 C1479 1.349 . S
C1480 C1492 1.349 . S
C1481 C1479 1.327 . S
C1481 C1497 1.429 . S
C1481 H1503 0.950 . S
C1482 H1478 0.949 . S
C1482 C1490 1.574 . S
C1482 C1498 1.368 . S
H1483 C1491 0.950 . S
H1484 C1489 0.950 . S
H1485 C1490 0.949 . S
H1486 C1492 0.950 . S
H1487 C1493 0.950 . S
H1488 C1494 0.949 . S
C1489 H1484 0.950 . S
C1489 C1491 1.327 . S
C1489 C1495 1.429 . S
C1490 C1482 1.574 . S
C1490 H1485 0.949 . S
C1490 C1496 1.368 1_655 S
C1491 C1475 1.349 . S
C1491 H1483 0.950 . S
C1491 C1489 1.327 . S
C1492 C1480 1.349 . S
C1492 H1486 0.950 . S
C1492 C1493 1.327 . S
C1493 H1487 0.950 . S
C1493 C1492 1.327 . S
C1493 C1497 1.429 . S
C1494 C1477 1.574 . S
C1494 H1488 0.949 . S
C1494 C1498 1.368 1_455 S
C1495 C1476 1.429 . S
C1495 C1489 1.429 . S
C1495 C1496 1.523 . S
C1496 C1477 1.368 . S
C1496 C1490 1.368 1_455 S
C1496 C1495 1.523 . S
C1497 C1481 1.429 . S
C1497 C1493 1.429 . S
C1497 C1498 1.523 . S
C1498 C1482 1.368 . S
C1498 C1494 1.368 1_655 S
C1498 C1497 1.523 . S
H1499 C1474 0.950 . S
H1500 C1476 0.950 . S
H1501 C1477 0.949 . S
H1502 C1479 0.950 . S
H1503 C1481 0.950 . S
C1504 C1505 1.349 . S
C1504 C1506 1.327 . S
C1504 H1529 0.950 . S
C1505 C1504 1.349 . S
C1505 C1521 1.349 . S
C1506 C1504 1.327 . S
C1506 C1525 1.429 . S
C1506 H1530 0.950 . S
C1507 C1524 1.574 . S
C1507 C1526 1.368 . S
C1507 H1531 0.949 . S
H1508 C1512 0.949 . S
C1509 C1510 1.349 . S
C1509 C1511 1.327 . S
C1509 H1532 0.950 . S
C1510 C1509 1.349 . S
C1510 C1522 1.349 . S
C1511 C1509 1.327 . S
C1511 C1527 1.429 . S
C1511 H1533 0.950 . S
C1512 H1508 0.949 . S
C1512 C1520 1.574 . S
C1512 C1528 1.368 . S
H1513 C1521 0.950 . S
H1514 C1519 0.950 . S
H1515 C1520 0.949 . S
H1516 C1522 0.950 . S
H1517 C1523 0.950 . S
H1518 C1524 0.949 . S
C1519 H1514 0.950 . S
C1519 C1521 1.327 . S
C1519 C1525 1.429 . S
C1520 C1512 1.574 . S
C1520 H1515 0.949 . S
C1520 C1526 1.368 . S
C1521 C1505 1.349 . S
C1521 H1513 0.950 . S
C1521 C1519 1.327 . S
C1522 C1510 1.349 . S
C1522 H1516 0.950 . S
C1522 C1523 1.327 . S
C1523 H1517 0.950 . S
C1523 C1522 1.327 . S
C1523 C1527 1.429 . S
C1524 C1507 1.574 . S
C1524 H1518 0.949 . S
C1524 C1528 1.368 . S
C1525 C1506 1.429 . S
C1525 C1519 1.429 . S
C1525 C1526 1.523 . S
C1526 C1507 1.368 . S
C1526 C1520 1.368 . S
C1526 C1525 1.523 . S
C1527 C1511 1.429 . S
C1527 C1523 1.429 . S
C1527 C1528 1.523 . S
C1528 C1512 1.368 . S
C1528 C1524 1.368 . S
C1528 C1527 1.523 . S
H1529 C1504 0.950 . S
H1530 C1506 0.950 . S
H1531 C1507 0.949 . S
H1532 C1509 0.950 . S
H1533 C1511 0.950 . S
C1534 C1535 1.349 . S
C1534 C1536 1.327 . S
C1534 H1559 0.950 . S
C1535 C1534 1.349 . S
C1535 C1551 1.349 . S
C1536 C1534 1.327 . S
C1536 C1555 1.429 . S
C1536 H1560 0.950 . S
C1537 C1554 1.574 . S
C1537 C1556 1.368 . S
C1537 H1561 0.949 . S
H1538 C1542 0.949 . S
C1539 C1540 1.349 . S
C1539 C1541 1.327 . S
C1539 H1562 0.950 . S
C1540 C1539 1.349 . S
C1540 C1552 1.349 . S
C1541 C1539 1.327 . S
C1541 C1557 1.429 . S
C1541 H1563 0.950 . S
C1542 H1538 0.949 . S
C1542 C1550 1.574 . S
C1542 C1558 1.368 . S
H1543 C1551 0.950 . S
H1544 C1549 0.950 . S
H1545 C1550 0.949 . S
H1546 C1552 0.950 . S
H1547 C1553 0.950 . S
H1548 C1554 0.949 . S
C1549 H1544 0.950 . S
C1549 C1551 1.327 . S
C1549 C1555 1.429 . S
C1550 C1542 1.574 . S
C1550 H1545 0.949 . S
C1550 C1556 1.368 . S
C1551 C1535 1.349 . S
C1551 H1543 0.950 . S
C1551 C1549 1.327 . S
C1552 C1540 1.349 . S
C1552 H1546 0.950 . S
C1552 C1553 1.327 . S
C1553 H1547 0.950 . S
C1553 C1552 1.327 . S
C1553 C1557 1.429 . S
C1554 C1537 1.574 . S
C1554 H1548 0.949 . S
C1554 C1558 1.368 . S
C1555 C1536 1.429 . S
C1555 C1549 1.429 . S
C1555 C1556 1.523 . S
C1556 C1537 1.368 . S
C1556 C1550 1.368 . S
C1556 C1555 1.523 . S
C1557 C1541 1.429 . S
C1557 C1553 1.429 . S
C1557 C1558 1.523 . S
C1558 C1542 1.368 . S
C1558 C1554 1.368 . S
C1558 C1557 1.523 . S
H1559 C1534 0.950 . S
H1560 C1536 0.950 . S
H1561 C1537 0.949 . S
H1562 C1539 0.950 . S
H1563 C1541 0.950 . S
C1564 C1565 1.349 . S
C1564 C1566 1.327 . S
C1564 H1589 0.950 . S
C1565 C1564 1.349 . S
C1565 C1581 1.349 . S
C1566 C1564 1.327 . S
C1566 C1585 1.429 . S
C1566 H1590 0.950 . S
C1567 C1584 1.574 . S
C1567 C1586 1.368 . S
C1567 H1591 0.949 . S
H1568 C1572 0.949 . S
C1569 C1570 1.349 . S
C1569 C1571 1.327 . S
C1569 H1592 0.950 . S
C1570 C1569 1.349 . S
C1570 C1582 1.349 . S
C1571 C1569 1.327 . S
C1571 C1587 1.429 . S
C1571 H1593 0.950 . S
C1572 H1568 0.949 . S
C1572 C1580 1.574 . S
C1572 C1588 1.368 . S
H1573 C1581 0.950 . S
H1574 C1579 0.950 . S
H1575 C1580 0.949 . S
H1576 C1582 0.950 . S
H1577 C1583 0.950 . S
H1578 C1584 0.949 . S
C1579 H1574 0.950 . S
C1579 C1581 1.327 . S
C1579 C1585 1.429 . S
C1580 C1572 1.574 . S
C1580 H1575 0.949 . S
C1580 C1586 1.368 . S
C1581 C1565 1.349 . S
C1581 H1573 0.950 . S
C1581 C1579 1.327 . S
C1582 C1570 1.349 . S
C1582 H1576 0.950 . S
C1582 C1583 1.327 . S
C1583 H1577 0.950 . S
C1583 C1582 1.327 . S
C1583 C1587 1.429 . S
C1584 C1567 1.574 . S
C1584 H1578 0.949 . S
C1584 C1588 1.368 . S
C1585 C1566 1.429 . S
C1585 C1579 1.429 . S
C1585 C1586 1.523 . S
C1586 C1567 1.368 . S
C1586 C1580 1.368 . S
C1586 C1585 1.523 . S
C1587 C1571 1.429 . S
C1587 C1583 1.429 . S
C1587 C1588 1.523 . S
C1588 C1572 1.368 . S
C1588 C1584 1.368 . S
C1588 C1587 1.523 . S
H1589 C1564 0.950 . S
H1590 C1566 0.950 . S
H1591 C1567 0.949 . S
H1592 C1569 0.950 . S
H1593 C1571 0.950 . S
C1594 C1595 1.349 . S
C1594 C1596 1.327 . S
C1594 H1619 0.950 . S
C1595 C1594 1.349 . S
C1595 C1611 1.349 . S
C1596 C1594 1.327 . S
C1596 C1615 1.429 . S
C1596 H1620 0.950 . S
C1597 C1614 1.574 . S
C1597 C1616 1.368 . S
C1597 H1621 0.949 . S
H1598 C1602 0.949 . S
C1599 C1600 1.349 . S
C1599 C1601 1.327 . S
C1599 H1622 0.950 . S
C1600 C1599 1.349 . S
C1600 C1612 1.349 . S
C1601 C1599 1.327 . S
C1601 C1617 1.429 . S
C1601 H1623 0.950 . S
C1602 H1598 0.949 . S
C1602 C1610 1.574 . S
C1602 C1618 1.368 . S
H1603 C1611 0.950 . S
H1604 C1609 0.950 . S
H1605 C1610 0.949 . S
H1606 C1612 0.950 . S
H1607 C1613 0.950 . S
H1608 C1614 0.949 . S
C1609 H1604 0.950 . S
C1609 C1611 1.327 . S
C1609 C1615 1.429 . S
C1610 C1602 1.574 . S
C1610 H1605 0.949 . S
C1610 C1616 1.368 . S
C1611 C1595 1.349 . S
C1611 H1603 0.950 . S
C1611 C1609 1.327 . S
C1612 C1600 1.349 . S
C1612 H1606 0.950 . S
C1612 C1613 1.327 . S
C1613 H1607 0.950 . S
C1613 C1612 1.327 . S
C1613 C1617 1.429 . S
C1614 C1597 1.574 . S
C1614 H1608 0.949 . S
C1614 C1618 1.368 . S
C1615 C1596 1.429 . S
C1615 C1609 1.429 . S
C1615 C1616 1.523 . S
C1616 C1597 1.368 . S
C1616 C1610 1.368 . S
C1616 C1615 1.523 . S
C1617 C1601 1.429 . S
C1617 C1613 1.429 . S
C1617 C1618 1.523 . S
C1618 C1602 1.368 . S
C1618 C1614 1.368 . S
C1618 C1617 1.523 . S
H1619 C1594 0.950 . S
H1620 C1596 0.950 . S
H1621 C1597 0.949 . S
H1622 C1599 0.950 . S
H1623 C1601 0.950 . S
C1624 C1625 1.349 . S
C1624 C1626 1.327 . S
C1624 H1649 0.950 . S
C1625 C1624 1.349 . S
C1625 C1641 1.349 . S
C1626 C1624 1.327 . S
C1626 C1645 1.429 . S
C1626 H1650 0.950 . S
C1627 C1644 1.574 . S
C1627 C1646 1.368 . S
C1627 H1651 0.949 . S
H1628 C1632 0.949 . S
C1629 C1630 1.349 . S
C1629 C1631 1.327 . S
C1629 H1652 0.950 . S
C1630 C1629 1.349 . S
C1630 C1642 1.349 . S
C1631 C1629 1.327 . S
C1631 C1647 1.429 . S
C1631 H1653 0.950 . S
C1632 H1628 0.949 . S
C1632 C1640 1.574 . S
C1632 C1648 1.368 . S
H1633 C1641 0.950 . S
H1634 C1639 0.950 . S
H1635 C1640 0.949 . S
H1636 C1642 0.950 . S
H1637 C1643 0.950 . S
H1638 C1644 0.949 . S
C1639 H1634 0.950 . S
C1639 C1641 1.327 . S
C1639 C1645 1.429 . S
C1640 C1632 1.574 . S
C1640 H1635 0.949 . S
C1640 C1646 1.368 . S
C1641 C1625 1.349 . S
C1641 H1633 0.950 . S
C1641 C1639 1.327 . S
C1642 C1630 1.349 . S
C1642 H1636 0.950 . S
C1642 C1643 1.327 . S
C1643 H1637 0.950 . S
C1643 C1642 1.327 . S
C1643 C1647 1.429 . S
C1644 C1627 1.574 . S
C1644 H1638 0.949 . S
C1644 C1648 1.368 . S
C1645 C1626 1.429 . S
C1645 C1639 1.429 . S
C1645 C1646 1.523 . S
C1646 C1627 1.368 . S
C1646 C1640 1.368 . S
C1646 C1645 1.523 . S
C1647 C1631 1.429 . S
C1647 C1643 1.429 . S
C1647 C1648 1.523 . S
C1648 C1632 1.368 . S
C1648 C1644 1.368 . S
C1648 C1647 1.523 . S
H1649 C1624 0.950 . S
H1650 C1626 0.950 . S
H1651 C1627 0.949 . S
H1652 C1629 0.950 . S
H1653 C1631 0.950 . S
C1654 C1655 1.349 . S
C1654 C1656 1.327 . S
C1654 H1679 0.950 . S
C1655 C1654 1.349 . S
C1655 C1671 1.349 . S
C1656 C1654 1.327 . S
C1656 C1675 1.429 . S
C1656 H1680 0.950 . S
C1657 C1674 1.574 . S
C1657 C1676 1.368 . S
C1657 H1681 0.949 . S
H1658 C1662 0.949 . S
C1659 C1660 1.349 . S
C1659 C1661 1.327 . S
C1659 H1682 0.950 . S
C1660 C1659 1.349 . S
C1660 C1672 1.349 . S
C1661 C1659 1.327 . S
C1661 C1677 1.429 . S
C1661 H1683 0.950 . S
C1662 H1658 0.949 . S
C1662 C1670 1.574 . S
C1662 C1678 1.368 . S
H1663 C1671 0.950 . S
H1664 C1669 0.950 . S
H1665 C1670 0.949 . S
H1666 C1672 0.950 . S
H1667 C1673 0.950 . S
H1668 C1674 0.949 . S
C1669 H1664 0.950 . S
C1669 C1671 1.327 . S
C1669 C1675 1.429 . S
C1670 C1662 1.574 . S
C1670 H1665 0.949 . S
C1670 C1676 1.368 . S
C1671 C1655 1.349 . S
C1671 H1663 0.950 . S
C1671 C1669 1.327 . S
C1672 C1660 1.349 . S
C1672 H1666 0.950 . S
C1672 C1673 1.327 . S
C1673 H1667 0.950 . S
C1673 C1672 1.327 . S
C1673 C1677 1.429 . S
C1674 C1657 1.574 . S
C1674 H1668 0.949 . S
C1674 C1678 1.368 . S
C1675 C1656 1.429 . S
C1675 C1669 1.429 . S
C1675 C1676 1.523 . S
C1676 C1657 1.368 . S
C1676 C1670 1.368 . S
C1676 C1675 1.523 . S
C1677 C1661 1.429 . S
C1677 C1673 1.429 . S
C1677 C1678 1.523 . S
C1678 C1662 1.368 . S
C1678 C1674 1.368 . S
C1678 C1677 1.523 . S
H1679 C1654 0.950 . S
H1680 C1656 0.950 . S
H1681 C1657 0.949 . S
H1682 C1659 0.950 . S
H1683 C1661 0.950 . S
C1684 C1685 1.349 . S
C1684 C1686 1.327 . S
C1684 H1709 0.950 . S
C1685 C1684 1.349 . S
C1685 C1701 1.349 . S
C1686 C1684 1.327 . S
C1686 C1705 1.429 . S
C1686 H1710 0.950 . S
C1687 C1704 1.574 . S
C1687 C1706 1.368 . S
C1687 H1711 0.949 . S
H1688 C1692 0.949 . S
C1689 C1690 1.349 . S
C1689 C1691 1.327 . S
C1689 H1712 0.950 . S
C1690 C1689 1.349 . S
C1690 C1702 1.349 . S
C1691 C1689 1.327 . S
C1691 C1707 1.429 . S
C1691 H1713 0.950 . S
C1692 H1688 0.949 . S
C1692 C1700 1.574 . S
C1692 C1708 1.368 . S
H1693 C1701 0.950 . S
H1694 C1699 0.950 . S
H1695 C1700 0.949 . S
H1696 C1702 0.950 . S
H1697 C1703 0.950 . S
H1698 C1704 0.949 . S
C1699 H1694 0.950 . S
C1699 C1701 1.327 . S
C1699 C1705 1.429 . S
C1700 C1692 1.574 . S
C1700 H1695 0.949 . S
C1700 C1706 1.368 . S
C1701 C1685 1.349 . S
C1701 H1693 0.950 . S
C1701 C1699 1.327 . S
C1702 C1690 1.349 . S
C1702 H1696 0.950 . S
C1702 C1703 1.327 . S
C1703 H1697 0.950 . S
C1703 C1702 1.327 . S
C1703 C1707 1.429 . S
C1704 C1687 1.574 . S
C1704 H1698 0.949 . S
C1704 C1708 1.368 . S
C1705 C1686 1.429 . S
C1705 C1699 1.429 . S
C1705 C1706 1.523 . S
C1706 C1687 1.368 . S
C1706 C1700 1.368 . S
C1706 C1705 1.523 . S
C1707 C1691 1.429 . S
C1707 C1703 1.429 . S
C1707 C1708 1.523 . S
C1708 C1692 1.368 . S
C1708 C1704 1.368 . S
C1708 C1707 1.523 . S
H1709 C1684 0.950 . S
H1710 C1686 0.950 . S
H1711 C1687 0.949 . S
H1712 C1689 0.950 . S
H1713 C1691 0.950 . S
C1714 C1715 1.349 . S
C1714 C1716 1.327 . S
C1714 H1739 0.950 . S
C1715 C1714 1.349 . S
C1715 C1731 1.349 . S
C1716 C1714 1.327 . S
C1716 C1735 1.429 . S
C1716 H1740 0.950 . S
C1717 C1734 1.574 . S
C1717 C1736 1.368 . S
C1717 H1741 0.949 . S
H1718 C1722 0.949 . S
C1719 C1720 1.349 . S
C1719 C1721 1.327 . S
C1719 H1742 0.950 . S
C1720 C1719 1.349 . S
C1720 C1732 1.349 . S
C1721 C1719 1.327 . S
C1721 C1737 1.429 . S
C1721 H1743 0.950 . S
C1722 H1718 0.949 . S
C1722 C1730 1.574 . S
C1722 C1738 1.368 . S
H1723 C1731 0.950 . S
H1724 C1729 0.950 . S
H1725 C1730 0.949 . S
H1726 C1732 0.950 . S
H1727 C1733 0.950 . S
H1728 C1734 0.949 . S
C1729 H1724 0.950 . S
C1729 C1731 1.327 . S
C1729 C1735 1.429 . S
C1730 C1722 1.574 . S
C1730 H1725 0.949 . S
C1730 C1736 1.368 . S
C1731 C1715 1.349 . S
C1731 H1723 0.950 . S
C1731 C1729 1.327 . S
C1732 C1720 1.349 . S
C1732 H1726 0.950 . S
C1732 C1733 1.327 . S
C1733 H1727 0.950 . S
C1733 C1732 1.327 . S
C1733 C1737 1.429 . S
C1734 C1717 1.574 . S
C1734 H1728 0.949 . S
C1734 C1738 1.368 . S
C1735 C1716 1.429 . S
C1735 C1729 1.429 . S
C1735 C1736 1.523 . S
C1736 C1717 1.368 . S
C1736 C1730 1.368 . S
C1736 C1735 1.523 . S
C1737 C1721 1.429 . S
C1737 C1733 1.429 . S
C1737 C1738 1.523 . S
C1738 C1722 1.368 . S
C1738 C1734 1.368 . S
C1738 C1737 1.523 . S
H1739 C1714 0.950 . S
H1740 C1716 0.950 . S
H1741 C1717 0.949 . S
H1742 C1719 0.950 . S
H1743 C1721 0.950 . S
C1744 C1745 1.349 . S
C1744 C1746 1.327 . S
C1744 H1769 0.950 . S
C1745 C1744 1.349 . S
C1745 C1761 1.349 . S
C1746 C1744 1.327 . S
C1746 C1765 1.429 . S
C1746 H1770 0.950 . S
C1747 C1764 1.574 . S
C1747 C1766 1.368 . S
C1747 H1771 0.949 . S
H1748 C1752 0.949 . S
C1749 C1750 1.349 . S
C1749 C1751 1.327 . S
C1749 H1772 0.950 . S
C1750 C1749 1.349 . S
C1750 C1762 1.349 . S
C1751 C1749 1.327 . S
C1751 C1767 1.429 . S
C1751 H1773 0.950 . S
C1752 H1748 0.949 . S
C1752 C1760 1.574 . S
C1752 C1768 1.368 . S
H1753 C1761 0.950 . S
H1754 C1759 0.950 . S
H1755 C1760 0.949 . S
H1756 C1762 0.950 . S
H1757 C1763 0.950 . S
H1758 C1764 0.949 . S
C1759 H1754 0.950 . S
C1759 C1761 1.327 . S
C1759 C1765 1.429 . S
C1760 C1752 1.574 . S
C1760 H1755 0.949 . S
C1760 C1766 1.368 . S
C1761 C1745 1.349 . S
C1761 H1753 0.950 . S
C1761 C1759 1.327 . S
C1762 C1750 1.349 . S
C1762 H1756 0.950 . S
C1762 C1763 1.327 . S
C1763 H1757 0.950 . S
C1763 C1762 1.327 . S
C1763 C1767 1.429 . S
C1764 C1747 1.574 . S
C1764 H1758 0.949 . S
C1764 C1768 1.368 . S
C1765 C1746 1.429 . S
C1765 C1759 1.429 . S
C1765 C1766 1.523 . S
C1766 C1747 1.368 . S
C1766 C1760 1.368 . S
C1766 C1765 1.523 . S
C1767 C1751 1.429 . S
C1767 C1763 1.429 . S
C1767 C1768 1.523 . S
C1768 C1752 1.368 . S
C1768 C1764 1.368 . S
C1768 C1767 1.523 . S
H1769 C1744 0.950 . S
H1770 C1746 0.950 . S
H1771 C1747 0.949 . S
H1772 C1749 0.950 . S
H1773 C1751 0.950 . S
C1774 C1775 1.349 . S
C1774 C1776 1.327 . S
C1774 H1799 0.950 . S
C1775 C1774 1.349 . S
C1775 C1791 1.349 . S
C1776 C1774 1.327 . S
C1776 C1795 1.429 . S
C1776 H1800 0.950 . S
C1777 C1794 1.574 . S
C1777 C1796 1.368 . S
C1777 H1801 0.949 . S
H1778 C1782 0.949 . S
C1779 C1780 1.349 1_545 S
C1779 C1781 1.327 1_545 S
C1779 H1802 0.950 . S
C1780 C1779 1.349 1_565 S
C1780 C1792 1.349 . S
C1781 C1779 1.327 1_565 S
C1781 C1797 1.429 . S
C1781 H1803 0.950 . S
C1782 H1778 0.949 . S
C1782 C1790 1.574 . S
C1782 C1798 1.368 . S
H1783 C1791 0.950 . S
H1784 C1789 0.950 . S
H1785 C1790 0.949 . S
H1786 C1792 0.950 . S
H1787 C1793 0.950 . S
H1788 C1794 0.949 . S
C1789 H1784 0.950 . S
C1789 C1791 1.327 . S
C1789 C1795 1.429 . S
C1790 C1782 1.574 . S
C1790 H1785 0.949 . S
C1790 C1796 1.368 . S
C1791 C1775 1.349 . S
C1791 H1783 0.950 . S
C1791 C1789 1.327 . S
C1792 C1780 1.349 . S
C1792 H1786 0.950 . S
C1792 C1793 1.327 . S
C1793 H1787 0.950 . S
C1793 C1792 1.327 . S
C1793 C1797 1.429 . S
C1794 C1777 1.574 . S
C1794 H1788 0.949 . S
C1794 C1798 1.368 . S
C1795 C1776 1.429 . S
C1795 C1789 1.429 . S
C1795 C1796 1.523 . S
C1796 C1777 1.368 . S
C1796 C1790 1.368 . S
C1796 C1795 1.523 . S
C1797 C1781 1.429 . S
C1797 C1793 1.429 . S
C1797 C1798 1.523 . S
C1798 C1782 1.368 . S
C1798 C1794 1.368 . S
C1798 C1797 1.523 . S
H1799 C1774 0.950 . S
H1800 C1776 0.950 . S
H1801 C1777 0.949 . S
H1802 C1779 0.950 . S
H1803 C1781 0.950 . S
C1804 C1805 1.349 . S
C1804 C1806 1.327 . S
C1804 H1829 0.977 . S
C1805 C1804 1.349 . S
C1805 C1821 1.349 . S
C1806 C1804 1.327 . S
C1806 C1825 1.429 . S
C1806 H1830 0.950 . S
C1807 C1824 1.574 . S
C1807 C1826 1.368 . S
C1807 H1831 0.949 . S
H1808 C1812 0.949 . S
C1809 C1810 1.349 . S
C1809 C1811 1.327 . S
C1809 H1832 0.950 . S
C1810 C1809 1.349 . S
C1810 C1822 1.349 . S
C1811 C1809 1.327 . S
C1811 C1827 1.429 . S
C1811 H1833 0.950 . S
C1812 H1808 0.949 . S
C1812 C1820 1.574 . S
C1812 C1828 1.368 . S
H1813 C1821 0.950 . S
H1814 C1819 0.950 . S
H1815 C1820 0.949 . S
H1816 C1822 0.950 . S
H1817 C1823 0.950 . S
H1818 C1824 0.949 . S
C1819 H1814 0.950 . S
C1819 C1821 1.327 . S
C1819 C1825 1.429 . S
C1820 C1812 1.574 . S
C1820 H1815 0.949 . S
C1820 C1826 1.368 . S
C1821 C1805 1.349 . S
C1821 H1813 0.950 . S
C1821 C1819 1.327 . S
C1822 C1810 1.349 . S
C1822 H1816 0.950 . S
C1822 C1823 1.327 . S
C1823 H1817 0.950 . S
C1823 C1822 1.327 . S
C1823 C1827 1.429 . S
C1824 C1807 1.574 . S
C1824 H1818 0.949 . S
C1824 C1828 1.368 . S
C1825 C1806 1.429 . S
C1825 C1819 1.429 . S
C1825 C1826 1.523 . S
C1826 C1807 1.368 . S
C1826 C1820 1.368 . S
C1826 C1825 1.523 . S
C1827 C1811 1.429 . S
C1827 C1823 1.429 . S
C1827 C1828 1.523 . S
C1828 C1812 1.368 . S
C1828 C1824 1.368 . S
C1828 C1827 1.523 . S
H1829 C1804 0.977 . S
H1830 C1806 0.950 . S
H1831 C1807 0.949 . S
H1832 C1809 0.950 . S
H1833 C1811 0.950 . S
C1834 C1835 1.349 . S
C1834 C1836 1.327 . S
C1834 H1859 0.950 . S
C1835 C1834 1.349 . S
C1835 C1851 1.349 1_545 S
C1836 C1834 1.327 . S
C1836 C1855 1.429 . S
C1836 H1860 0.950 . S
C1837 C1854 1.574 . S
C1837 C1856 1.368 . S
C1837 H1861 0.949 . S
H1838 C1842 0.949 . S
C1839 C1840 1.349 . S
C1839 C1841 1.327 . S
C1839 H1862 0.950 . S
C1840 C1839 1.349 . S
C1840 C1852 1.349 . S
C1841 C1839 1.327 . S
C1841 C1857 1.429 . S
C1841 H1863 0.950 . S
C1842 H1838 0.949 . S
C1842 C1850 1.574 . S
C1842 C1858 1.368 . S
H1843 C1851 0.950 . S
H1844 C1849 0.950 . S
H1845 C1850 0.949 . S
H1846 C1852 0.950 . S
H1847 C1853 0.950 . S
H1848 C1854 0.949 . S
C1849 H1844 0.950 . S
C1849 C1851 1.327 1_545 S
C1849 C1855 1.429 . S
C1850 C1842 1.574 . S
C1850 H1845 0.949 . S
C1850 C1856 1.368 . S
C1851 C1835 1.349 1_565 S
C1851 H1843 0.950 . S
C1851 C1849 1.327 1_565 S
C1852 C1840 1.349 . S
C1852 H1846 0.950 . S
C1852 C1853 1.327 . S
C1853 H1847 0.950 . S
C1853 C1852 1.327 . S
C1853 C1857 1.429 . S
C1854 C1837 1.574 . S
C1854 H1848 0.949 . S
C1854 C1858 1.368 . S
C1855 C1836 1.429 . S
C1855 C1849 1.429 . S
C1855 C1856 1.523 . S
C1856 C1837 1.368 . S
C1856 C1850 1.368 . S
C1856 C1855 1.523 . S
C1857 C1841 1.429 . S
C1857 C1853 1.429 . S
C1857 C1858 1.523 . S
C1858 C1842 1.368 . S
C1858 C1854 1.368 . S
C1858 C1857 1.523 . S
H1859 C1834 0.950 . S
H1860 C1836 0.950 . S
H1861 C1837 0.949 . S
H1862 C1839 0.950 . S
H1863 C1841 0.950 . S
C1864 C1865 1.349 . S
C1864 C1866 1.327 . S
C1864 H1889 0.950 . S
C1865 C1864 1.349 . S
C1865 C1881 1.349 . S
C1866 C1864 1.327 . S
C1866 C1885 1.429 . S
C1866 H1890 0.950 . S
C1867 C1884 1.574 . S
C1867 C1886 1.368 . S
C1867 H1891 0.949 . S
H1868 C1872 0.949 . S
C1869 C1870 1.349 . S
C1869 C1871 1.327 . S
C1869 H1892 0.924 1_545 S
C1870 C1869 1.349 . S
C1870 C1882 1.349 . S
C1871 C1869 1.327 . S
C1871 C1887 1.429 . S
C1871 H1893 0.950 . S
C1872 H1868 0.949 . S
C1872 C1880 1.574 . S
C1872 C1888 1.368 . S
H1873 C1881 0.950 . S
H1874 C1879 0.950 . S
H1875 C1880 0.949 . S
H1876 C1882 0.950 . S
H1877 C1883 0.950 . S
H1878 C1884 0.949 . S
C1879 H1874 0.950 . S
C1879 C1881 1.327 . S
C1879 C1885 1.429 . S
C1880 C1872 1.574 . S
C1880 H1875 0.949 . S
C1880 C1886 1.368 . S
C1881 C1865 1.349 . S
C1881 H1873 0.950 . S
C1881 C1879 1.327 . S
C1882 C1870 1.349 . S
C1882 H1876 0.950 . S
C1882 C1883 1.327 . S
C1883 H1877 0.950 . S
C1883 C1882 1.327 . S
C1883 C1887 1.429 . S
C1884 C1867 1.574 . S
C1884 H1878 0.949 . S
C1884 C1888 1.368 . S
C1885 C1866 1.429 . S
C1885 C1879 1.429 . S
C1885 C1886 1.523 . S
C1886 C1867 1.368 . S
C1886 C1880 1.368 . S
C1886 C1885 1.523 . S
C1887 C1871 1.429 . S
C1887 C1883 1.429 . S
C1887 C1888 1.523 . S
C1888 C1872 1.368 . S
C1888 C1884 1.368 . S
C1888 C1887 1.523 . S
H1889 C1864 0.950 . S
H1890 C1866 0.950 . S
H1891 C1867 0.949 . S
H1892 C1869 0.924 1_565 S
H1893 C1871 0.950 . S
C1894 C1895 1.349 1_565 S
C1894 C1896 1.327 1_565 S
C1894 H1919 0.950 . S
C1895 C1894 1.349 1_545 S
C1895 C1911 1.349 . S
C1896 C1894 1.327 1_545 S
C1896 C1915 1.429 . S
C1896 H1920 0.950 . S
C1897 C1914 1.574 . S
C1897 C1916 1.368 . S
C1897 H1921 0.949 . S
H1898 C1902 0.949 . S
C1899 C1900 1.349 . S
C1899 C1901 1.327 . S
C1899 H1922 0.950 . S
C1900 C1899 1.349 . S
C1900 C1912 1.349 . S
C1901 C1899 1.327 . S
C1901 C1917 1.429 . S
C1901 H1923 0.950 . S
C1902 H1898 0.949 . S
C1902 C1910 1.574 . S
C1902 C1918 1.368 . S
H1903 C1911 0.950 . S
H1904 C1909 0.950 . S
H1905 C1910 0.949 . S
H1906 C1912 0.950 . S
H1907 C1913 0.950 . S
H1908 C1914 0.949 . S
C1909 H1904 0.950 . S
C1909 C1911 1.327 . S
C1909 C1915 1.429 . S
C1910 C1902 1.574 . S
C1910 H1905 0.949 . S
C1910 C1916 1.368 . S
C1911 C1895 1.349 . S
C1911 H1903 0.950 . S
C1911 C1909 1.327 . S
C1912 C1900 1.349 . S
C1912 H1906 0.950 . S
C1912 C1913 1.327 . S
C1913 H1907 0.950 . S
C1913 C1912 1.327 . S
C1913 C1917 1.429 . S
C1914 C1897 1.574 . S
C1914 H1908 0.949 . S
C1914 C1918 1.368 . S
C1915 C1896 1.429 . S
C1915 C1909 1.429 . S
C1915 C1916 1.523 . S
C1916 C1897 1.368 . S
C1916 C1910 1.368 . S
C1916 C1915 1.523 . S
C1917 C1901 1.429 . S
C1917 C1913 1.429 . S
C1917 C1918 1.523 . S
C1918 C1902 1.368 . S
C1918 C1914 1.368 . S
C1918 C1917 1.523 . S
H1919 C1894 0.950 . S
H1920 C1896 0.950 . S
H1921 C1897 0.949 . S
H1922 C1899 0.950 . S
H1923 C1901 0.950 . S
C1924 C1925 1.349 . S
C1924 C1926 1.327 . S
C1924 H1949 0.950 . S
C1925 C1924 1.349 . S
C1925 C1941 1.349 . S
C1926 C1924 1.327 . S
C1926 C1945 1.429 . S
C1926 H1950 0.950 . S
C1927 C1944 1.574 . S
C1927 C1946 1.368 . S
C1927 H1951 0.949 . S
H1928 C1932 0.949 . S
C1929 C1930 1.349 . S
C1929 C1931 1.327 . S
C1929 H1952 0.950 . S
C1930 C1929 1.349 . S
C1930 C1942 1.349 . S
C1931 C1929 1.327 . S
C1931 C1947 1.429 . S
C1931 H1953 0.950 . S
C1932 H1928 0.949 . S
C1932 C1940 1.574 . S
C1932 C1948 1.368 . S
H1933 C1941 0.950 . S
H1934 C1939 0.950 . S
H1935 C1940 0.949 . S
H1936 C1942 0.950 . S
H1937 C1943 0.950 . S
H1938 C1944 0.949 . S
C1939 H1934 0.950 . S
C1939 C1941 1.327 . S
C1939 C1945 1.429 . S
C1940 C1932 1.574 . S
C1940 H1935 0.949 . S
C1940 C1946 1.368 . S
C1941 C1925 1.349 . S
C1941 H1933 0.950 . S
C1941 C1939 1.327 . S
C1942 C1930 1.349 . S
C1942 H1936 0.950 . S
C1942 C1943 1.327 . S
C1943 H1937 0.950 . S
C1943 C1942 1.327 . S
C1943 C1947 1.429 . S
C1944 C1927 1.574 . S
C1944 H1938 0.949 . S
C1944 C1948 1.368 . S
C1945 C1926 1.429 . S
C1945 C1939 1.429 . S
C1945 C1946 1.523 . S
C1946 C1927 1.368 . S
C1946 C1940 1.368 . S
C1946 C1945 1.523 . S
C1947 C1931 1.429 . S
C1947 C1943 1.429 . S
C1947 C1948 1.523 . S
C1948 C1932 1.368 . S
C1948 C1944 1.368 . S
C1948 C1947 1.523 . S
H1949 C1924 0.950 . S
H1950 C1926 0.950 . S
H1951 C1927 0.949 . S
H1952 C1929 0.950 . S
H1953 C1931 0.950 . S
C1954 C1955 1.349 . S
C1954 C1956 1.327 . S
C1954 H1979 0.950 . S
C1955 C1954 1.349 . S
C1955 C1971 1.349 . S
C1956 C1954 1.327 . S
C1956 C1975 1.429 . S
C1956 H1980 0.950 . S
C1957 C1974 1.574 . S
C1957 C1976 1.368 . S
C1957 H1981 0.949 . S
H1958 C1962 0.949 . S
C1959 C1960 1.349 1_545 S
C1959 C1961 1.327 1_545 S
C1959 H1982 0.950 . S
C1960 C1959 1.349 1_565 S
C1960 C1972 1.349 . S
C1961 C1959 1.327 1_565 S
C1961 C1977 1.429 . S
C1961 H1983 0.950 . S
C1962 H1958 0.949 . S
C1962 C1970 1.574 . S
C1962 C1978 1.368 . S
H1963 C1971 0.950 . S
H1964 C1969 0.950 . S
H1965 C1970 0.949 . S
H1966 C1972 0.950 . S
H1967 C1973 0.950 . S
H1968 C1974 0.949 . S
C1969 H1964 0.950 . S
C1969 C1971 1.327 . S
C1969 C1975 1.429 . S
C1970 C1962 1.574 . S
C1970 H1965 0.949 . S
C1970 C1976 1.368 . S
C1971 C1955 1.349 . S
C1971 H1963 0.950 . S
C1971 C1969 1.327 . S
C1972 C1960 1.349 . S
C1972 H1966 0.950 . S
C1972 C1973 1.327 . S
C1973 H1967 0.950 . S
C1973 C1972 1.327 . S
C1973 C1977 1.429 . S
C1974 C1957 1.574 . S
C1974 H1968 0.949 . S
C1974 C1978 1.368 . S
C1975 C1956 1.429 . S
C1975 C1969 1.429 . S
C1975 C1976 1.523 . S
C1976 C1957 1.368 . S
C1976 C1970 1.368 . S
C1976 C1975 1.523 . S
C1977 C1961 1.429 . S
C1977 C1973 1.429 . S
C1977 C1978 1.523 . S
C1978 C1962 1.368 . S
C1978 C1974 1.368 . S
C1978 C1977 1.523 . S
H1979 C1954 0.950 . S
H1980 C1956 0.950 . S
H1981 C1957 0.949 . S
H1982 C1959 0.950 . S
H1983 C1961 0.950 . S
C545 C29 1.148 . S
C550 C408 1.148 . S
C575 C170 1.148 . S
C580 C63 1.148 . S
C605 C97 1.148 . S
C610 C476 1.148 . S
C635 C131 1.148 . S
C640 C238 1.148 . S
C665 C136 1.148 . S
C670 C301 1.148 . S
C695 C369 1.148 . S
C700 C204 1.148 . S
C725 C442 1.147 . S
C730 C335 1.147 . S
C755 C403 1.147 . S
C760 C510 1.147 . S
C785 C319 1.367 . S
C790 C0 1.390 . S
C815 C34 1.390 . S
C820 C353 1.367 . S
C845 C68 1.390 . S
C850 C387 1.367 . S
C875 C285 1.367 . S
C880 C102 1.390 . S
C905 C446 1.367 . S
C910 C165 1.390 . S
C935 C480 1.367 . S
C940 C199 1.390 . S
C965 C233 1.390 . S
C970 C514 1.367 . S
C995 C412 1.367 . S
C1000 C267 1.390 . S
C1025 C272 1.390 . S
C1030 C47 1.367 . S
C1055 C306 1.390 . S
C1060 C81 1.367 . S
C1085 C340 1.390 . S
C1090 C115 1.367 . S
C1115 C13 1.367 . S
C1120 C374 1.390 . S
C1145 C174 1.367 . S
C1150 C437 1.390 . S
C1175 C471 1.390 . S
C1180 C208 1.367 . S
C1205 C242 1.367 . S
C1210 C505 1.390 . S
C1235 C539 1.390 . S
C1240 C140 1.367 . S
C1265 C17 1.812 . S
C1270 C357 1.812 . S
C1295 C51 1.812 . S
C1300 C391 1.812 . S
C1325 C289 1.812 . S
C1330 C85 1.812 . S
C1355 C119 1.812 . S
C1360 C323 1.812 . S
C1385 C144 1.812 . S
C1390 C484 1.812 . S
C1415 C178 1.812 . S
C1420 C518 1.812 . S
C1445 C416 1.812 . S
C1450 C212 1.812 . S
C1475 C246 1.812 . S
C1480 C450 1.812 . S
C1505 C4 1.081 . S
C1510 C255 1.125 . S
C1535 C425 1.125 . S
C1540 C38 1.081 . S
C1565 C72 1.081 . S
C1570 C187 1.125 . S
C1595 C106 1.081 . S
C1600 C493 1.125 . S
C1625 C149 1.081 . S
C1630 C110 1.125 . S
C1655 C280 1.125 . S
C1660 C183 1.081 . S
C1685 C217 1.081 . S
C1690 C42 1.125 . S
C1715 C348 1.125 . S
C1720 C251 1.081 . S
C1745 C276 1.081 . S
C1750 C527 1.125 1_565 S
C1775 C153 1.125 . S
C1780 C310 1.081 1_565 S
C1805 C459 1.125 1_545 S
C1810 C344 1.081 . S
C1835 C378 1.081 1_545 S
C1840 C221 1.125 . S
C1865 C421 1.081 . S
C1870 C382 1.125 1_545 S
C1895 C455 1.081 1_545 S
C1900 C8 1.125 . S
C1925 C314 1.125 1_565 S
C1930 C489 1.081 . S
C1955 C76 1.125 . S
C1960 C523 1.081 1_565 S
