# Generated by pormake.
# Topology smk, (6)-cn, num edge types: 1
# Building blocks:
#     Node 0, Type 0, BuildingBlock: UKALOJ_clean_sbu_0, # of connection points: 6
#     Node 1, Type 0, BuildingBlock: UKALOJ_clean_sbu_0, # of connection points: 6
#     Node 2, Type 0, BuildingBlock: UKALOJ_clean_sbu_0, # of connection points: 6
#     Node 3, Type 0, BuildingBlock: UKALOJ_clean_sbu_0, # of connection points: 6
#     Node 4, Type 0, BuildingBlock: UKALOJ_clean_sbu_0, # of connection points: 6
#     Node 5, Type 0, BuildingBlock: UKALOJ_clean_sbu_0, # of connection points: 6
#     Edge 6, Type (0, 0), BuildingBlock: KIFKEQ_clean_linker_1, # of connection points: 2
#     Edge 7, Type (0, 0), BuildingBlock: KIFKEQ_clean_linker_1, # of connection points: 2
#     Edge 8, Type (0, 0), BuildingBlock: KIFKEQ_clean_linker_1, # of connection points: 2
#     Edge 9, Type (0, 0), BuildingBlock: KIFKEQ_clean_linker_1, # of connection points: 2
#     Edge 10, Type (0, 0), BuildingBlock: KIFKEQ_clean_linker_1, # of connection points: 2
#     Edge 11, Type (0, 0), BuildingBlock: KIFKEQ_clean_linker_1, # of connection points: 2
#     Edge 12, Type (0, 0), BuildingBlock: KIFKEQ_clean_linker_1, # of connection points: 2
#     Edge 13, Type (0, 0), BuildingBlock: KIFKEQ_clean_linker_1, # of connection points: 2
#     Edge 14, Type (0, 0), BuildingBlock: KIFKEQ_clean_linker_1, # of connection points: 2
#     Edge 15, Type (0, 0), BuildingBlock: KIFKEQ_clean_linker_1, # of connection points: 2
#     Edge 16, Type (0, 0), BuildingBlock: KIFKEQ_clean_linker_1, # of connection points: 2
#     Edge 17, Type (0, 0), BuildingBlock: KIFKEQ_clean_linker_1, # of connection points: 2
#     Edge 18, Type (0, 0), BuildingBlock: KIFKEQ_clean_linker_1, # of connection points: 2
#     Edge 19, Type (0, 0), BuildingBlock: KIFKEQ_clean_linker_1, # of connection points: 2
#     Edge 20, Type (0, 0), BuildingBlock: KIFKEQ_clean_linker_1, # of connection points: 2
#     Edge 21, Type (0, 0), BuildingBlock: KIFKEQ_clean_linker_1, # of connection points: 2
#     Edge 22, Type (0, 0), BuildingBlock: KIFKEQ_clean_linker_1, # of connection points: 2
#     Edge 23, Type (0, 0), BuildingBlock: KIFKEQ_clean_linker_1, # of connection points: 2
# Relax obj value: 0.276
# Max RMSD: 0.210
# Mean RMSD: 0.210
data_MOF--net-smk--node1-UKALOJ_clean_sbu_0--edge1-KIFKEQ_clean_linker_1
_symmetry_space_group_name_H-M    P1
_symmetry_Int_Tables_number       1
_symmetry_cell_setting            triclinic
loop_
_symmetry_equiv_pos_as_xyz
'x, y, z'
_cell_length_a     46.99219
_cell_length_b     46.933063
_cell_length_c     15.495677
_cell_angle_alpha  90.478904
_cell_angle_beta   89.731829
_cell_angle_gamma 120.03558
loop_
_atom_site_label
_atom_site_type_symbol
_atom_site_fract_x
_atom_site_fract_y
_atom_site_fract_z
_atom_type_partial_charge
Zn0 Zn 0.43618 0.22656 0.49443 0.0
O1 O 0.39909 0.17636 0.50597 0.0
C2 C 0.4583 0.22583 0.67144 0.0
Zn3 Zn 0.47565 0.21311 0.49601 0.0
C4 C 0.40762 0.15458 0.50973 0.0
O5 O 0.43801 0.16337 0.50785 0.0
C6 C 0.50398 0.2847 0.47291 0.0
O7 O 0.47367 0.20812 0.35998 0.0
O8 O 0.43485 0.22127 0.36042 0.0
N9 N 0.51076 0.19932 0.50422 0.0
C10 C 0.53997 0.2136 0.54563 0.0
C11 C 0.53125 0.16717 0.49809 0.0
N12 N 0.50547 0.17051 0.47457 0.0
N13 N 0.55333 0.19397 0.54236 0.0
C14 C 0.38029 0.24165 0.54429 0.0
C15 C 0.37851 0.26678 0.43252 0.0
N16 N 0.40177 0.24133 0.48672 0.0
N17 N 0.40038 0.25676 0.41709 0.0
N18 N 0.36561 0.25776 0.51216 0.0
H19 H 0.37512 0.2026 0.62642 0.0
H20 H 0.34714 0.21759 0.65027 0.0
H21 H 0.38988 0.24199 0.67877 0.0
C22 C 0.37252 0.2248 0.62983 0.0
C23 C 0.55445 0.24565 0.5943 0.0
H24 H 0.57282 0.26552 0.55266 0.0
H25 H 0.56712 0.24464 0.65344 0.0
H26 H 0.5357 0.25215 0.61284 0.0
O27 O 0.51226 0.26294 0.48121 0.0
O28 O 0.47381 0.27647 0.47869 0.0
C29 C 0.45363 0.2138 0.31909 0.0
O30 O 0.43861 0.23173 0.62993 0.0
O31 O 0.47676 0.21786 0.6308 0.0
Zn32 Zn 0.22728 0.42257 0.6982 0.0
O33 O 0.23814 0.38383 0.70509 0.0
C34 C 0.24943 0.44292 0.87571 0.0
Zn35 Zn 0.28047 0.46153 0.70104 0.0
C36 C 0.2683 0.3918 0.70706 0.0
O37 O 0.29024 0.42209 0.70746 0.0
C38 C 0.2392 0.49179 0.68333 0.0
O39 O 0.28463 0.46154 0.56507 0.0
O40 O 0.23237 0.42312 0.56433 0.0
N41 N 0.32982 0.49397 0.71905 0.0
C42 C 0.34876 0.52708 0.71674 0.0
C43 C 0.3764 0.50872 0.77988 0.0
N44 N 0.34727 0.48274 0.75764 0.0
N45 N 0.37804 0.53705 0.75606 0.0
C46 C 0.15471 0.36804 0.73979 0.0
C47 C 0.13031 0.3675 0.62381 0.0
N48 N 0.17786 0.38955 0.68528 0.0
N49 N 0.16258 0.38895 0.6131 0.0
N50 N 0.12463 0.35406 0.70294 0.0
H51 H 0.18598 0.36053 0.82624 0.0
H52 H 0.14243 0.33435 0.84583 0.0
H53 H 0.16258 0.3773 0.87518 0.0
C54 C 0.16183 0.3594 0.82675 0.0
C55 C 0.33929 0.54903 0.67072 0.0
H56 H 0.32373 0.53599 0.61398 0.0
H57 H 0.36143 0.5718 0.64862 0.0
H58 H 0.32504 0.55585 0.71505 0.0
O59 O 0.26911 0.49965 0.69245 0.0
O60 O 0.21697 0.46162 0.68639 0.0
C61 C 0.25866 0.44192 0.5236 0.0
O62 O 0.2237 0.42338 0.83381 0.0
O63 O 0.27583 0.46135 0.83539 0.0
Zn64 Zn 0.81804 0.21964 0.84259 0.0
O65 O 0.86723 0.22945 0.85467 0.0
C66 C 0.82002 0.24213 0.02 0.0
Zn67 Zn 0.83336 0.27305 0.84546 0.0
C68 C 0.88985 0.2595 0.85516 0.0
O69 O 0.88214 0.28186 0.85173 0.0
C70 C 0.76162 0.23288 0.82558 0.0
O71 O 0.83693 0.27716 0.7105 0.0
O72 O 0.82449 0.22525 0.70806 0.0
N73 N 0.85143 0.32261 0.86462 0.0
C74 C 0.83815 0.34228 0.86116 0.0
C75 C 0.88358 0.36875 0.92839 0.0
N76 N 0.8798 0.33935 0.9057 0.0
N77 N 0.85762 0.37128 0.90234 0.0
C78 C 0.79782 0.14622 0.88159 0.0
C79 C 0.77239 0.12275 0.76569 0.0
N80 N 0.80073 0.17008 0.82796 0.0
N81 N 0.78523 0.15537 0.75568 0.0
N82 N 0.78007 0.11629 0.84397 0.0
H83 H 0.83325 0.17592 -0.02182 0.0
H84 H 0.81418 0.13218 -0.00448 0.0
H85 H 0.79119 0.15266 0.01515 0.0
C86 C 0.80997 0.15207 -0.02722 0.0
C87 C 0.80737 0.33371 0.81283 0.0
H88 H 0.80441 0.31748 0.75701 0.0
H89 H 0.80794 0.35626 0.78934 0.0
H90 H 0.78603 0.32046 0.85647 0.0
O91 O 0.78408 0.26262 0.83722 0.0
O92 O 0.7691 0.21032 0.82675 0.0
C93 C 0.83167 0.2516 0.66824 0.0
O94 O 0.81181 0.2157 -0.02161 0.0
O95 O 0.82969 0.26867 -0.02085 0.0
Zn96 Zn 0.61942 0.81243 0.02257 0.0
O97 O 0.65762 0.86243 0.0312 0.0
C98 C 0.59861 0.81359 0.2005 0.0
Zn99 Zn 0.57977 0.82556 0.02664 0.0
C100 C 0.64889 0.88403 0.03562 0.0
O101 O 0.61847 0.87494 0.03612 0.0
C102 C 0.55064 0.75419 0.00578 0.0
O103 O 0.58 0.82994 0.8907 0.0
O104 O 0.61892 0.81684 0.889 0.0
N105 N 0.54692 0.84191 0.04507 0.0
C106 C 0.51379 0.82711 0.04599 0.0
C107 C 0.53231 0.87405 0.10615 0.0
N108 N 0.55823 0.87117 0.08178 0.0
N109 N 0.50394 0.8466 0.08564 0.0
C110 C 0.67524 0.79674 0.06428 0.0
C111 C 0.67539 0.77114 0.95032 0.0
N112 N 0.65298 0.79683 0.00978 0.0
N113 N 0.65333 0.7811 0.9388 0.0
N114 N 0.68945 0.78053 0.02874 0.0
H115 H 0.68195 0.83636 0.14833 0.0
H116 H 0.70979 0.82099 0.16784 0.0
H117 H 0.66736 0.79718 0.19995 0.0
C118 C 0.68425 0.81398 0.14997 0.0
C119 C 0.49157 0.79486 0.00252 0.0
H120 H 0.5037 0.79197 0.94418 0.0
H121 H 0.46812 0.7933 -0.01684 0.0
H122 H 0.48616 0.77451 0.04751 0.0
O123 O 0.54235 0.77595 0.01558 0.0
O124 O 0.5809 0.76259 0.00898 0.0
C125 C 0.59987 0.82401 0.84876 0.0
O126 O 0.61862 0.80814 0.15819 0.0
O127 O 0.57968 0.82091 0.16065 0.0
Zn128 Zn 0.77523 0.57591 0.17937 0.0
O129 O 0.77169 0.57682 0.04355 0.0
C130 C 0.81587 0.54511 0.15757 0.0
Zn131 Zn 0.82847 0.61453 0.17702 0.0
C132 C 0.79769 0.59632 0.00228 0.0
O133 O 0.82409 0.61485 0.04316 0.0
C134 C 0.8056 0.59342 0.35415 0.0
O135 O 0.81818 0.65359 0.18748 0.0
O136 O 0.76599 0.61562 0.18986 0.0
N137 N 0.87803 0.64709 0.16723 0.0
C138 C 0.90041 0.66833 0.2241 0.0
C139 C 0.92658 0.66811 0.11178 0.0
N140 N 0.89439 0.64724 0.09724 0.0
N141 N 0.93107 0.6816 0.19117 0.0
C142 C 0.70643 0.5109 0.18871 0.0
C143 C 0.67892 0.52917 0.25472 0.0
N144 N 0.72574 0.5439 0.19486 0.0
N145 N 0.70838 0.5551 0.23516 0.0
N146 N 0.67697 0.50091 0.22733 0.0
H147 H 0.73175 0.50269 0.08424 0.0
H148 H 0.69355 0.46682 0.11529 0.0
H149 H 0.72952 0.48157 0.18269 0.0
C150 C 0.71574 0.48915 0.13966 0.0
C151 C 0.89214 0.67728 0.30981 0.0
H152 H 0.86794 0.67599 0.30701 0.0
H153 H 0.91125 0.70246 0.32961 0.0
H154 H 0.89102 0.65973 0.35898 0.0
O155 O 0.83134 0.61289 0.31248 0.0
O156 O 0.77916 0.57512 0.3137 0.0
C157 C 0.78811 0.64583 0.19099 0.0
O158 O 0.78602 0.53746 0.16717 0.0
O159 O 0.83827 0.57519 0.16196 0.0
Zn160 Zn 0.23305 0.81455 0.37257 0.0
O161 O 0.18379 0.8039 0.38508 0.0
C162 C 0.23128 0.79259 0.54921 0.0
Zn163 Zn 0.21887 0.76148 0.37374 0.0
C164 C 0.16148 0.77375 0.38303 0.0
O165 O 0.1696 0.75169 0.37862 0.0
C166 C 0.29019 0.80275 0.35385 0.0
O167 O 0.21591 0.75721 0.23846 0.0
O168 O 0.22655 0.80855 0.23822 0.0
N169 N 0.20184 0.71212 0.39172 0.0
C170 C 0.21612 0.69329 0.39078 0.0
C171 C 0.16971 0.66573 0.45293 0.0
N172 N 0.17291 0.69471 0.42971 0.0
N173 N 0.19663 0.66414 0.43043 0.0
C174 C 0.252 0.88755 0.4139 0.0
C175 C 0.27367 0.91078 0.29477 0.0
N176 N 0.24938 0.86385 0.3591 0.0
N177 N 0.26269 0.87839 0.28502 0.0
N178 N 0.26738 0.91726 0.3752 0.0
H179 H 0.21476 0.85716 0.50547 0.0
H180 H 0.23267 0.90097 0.52365 0.0
H181 H 0.25573 0.8809 0.54873 0.0
C182 C 0.23783 0.88129 0.50308 0.0
C183 C 0.24784 0.70269 0.34566 0.0
H184 H 0.25071 0.71805 0.2886 0.0
H185 H 0.24862 0.68049 0.32416 0.0
H186 H 0.26862 0.71718 0.39036 0.0
O187 O 0.26845 0.77291 0.36654 0.0
O188 O 0.28198 0.82477 0.35519 0.0
C189 C 0.22031 0.78247 0.1973 0.0
O190 O 0.23934 0.81896 0.50853 0.0
O191 O 0.22192 0.76607 0.50744 0.0
H192 H 0.48223 0.19004 0.20715 0.0
H193 H 0.42518 0.23912 0.2167 0.0
H194 H 0.48328 0.19298 0.04978 0.0
H195 H 0.42742 0.24335 0.06088 0.0
H196 H 0.40812 0.21563 0.77845 0.0
H197 H 0.40642 0.21125 0.93463 0.0
H198 H 0.50693 0.23155 0.93489 0.0
H199 H 0.50806 0.23474 0.77777 0.0
C200 C 0.46998 0.20147 0.17564 0.0
C201 C 0.45347 0.21415 0.22409 0.0
C202 C 0.4708 0.20342 0.08565 0.0
C203 C 0.45545 0.21844 0.04272 0.0
C204 C 0.43896 0.23107 0.09159 0.0
C205 C 0.43779 0.22874 0.18112 0.0
C206 C 0.42998 0.21967 0.81196 0.0
C207 C 0.45831 0.22589 0.76625 0.0
C208 C 0.42903 0.21709 0.90154 0.0
C209 C 0.45657 0.22109 0.94739 0.0
C210 C 0.48511 0.22778 0.90149 0.0
C211 C 0.48588 0.22992 0.81168 0.0
H212 H 0.20454 0.41585 0.42189 0.0
H213 H 0.31072 0.46811 0.41121 0.0
H214 H 0.20205 0.41699 0.26604 0.0
H215 H 0.30825 0.46798 0.25371 0.0
H216 H 0.29236 0.49221 -0.01901 0.0
H217 H 0.29482 0.49211 0.13785 0.0
H218 H 0.21066 0.3936 0.14056 0.0
H219 H 0.2075 0.39437 -0.01603 0.0
C220 C 0.22741 0.42721 0.38603 0.0
C221 C 0.25787 0.44182 0.42866 0.0
C222 C 0.22595 0.4277 0.29648 0.0
C223 C 0.25491 0.44242 0.24723 0.0
C224 C 0.28546 0.45685 0.28985 0.0
C225 C 0.28693 0.45674 0.37991 0.0
C226 C 0.27424 0.47066 0.01536 0.0
C227 C 0.24957 0.44338 -0.02944 0.0
C228 C 0.27584 0.47047 0.10512 0.0
C229 C 0.25306 0.4428 0.15183 0.0
C230 C 0.22828 0.41555 0.10674 0.0
C231 C 0.22642 0.41594 0.017 0.0
H232 H 0.79196 0.1902 0.13205 0.0
H233 H 0.84945 0.29639 0.12251 0.0
H234 H 0.79454 0.1928 0.28949 0.0
H235 H 0.85315 0.29894 0.27845 0.0
H236 H 0.82666 0.2947 0.56128 0.0
H237 H 0.82189 0.29148 0.40464 0.0
H238 H 0.83262 0.20517 0.40453 0.0
H239 H 0.83599 0.20766 0.5613 0.0
C240 C 0.80522 0.21402 0.16352 0.0
C241 C 0.82042 0.24303 0.11503 0.0
C242 C 0.80689 0.21555 0.2536 0.0
C243 C 0.82411 0.24611 0.2966 0.0
C244 C 0.83919 0.27505 0.24769 0.0
C245 C 0.83719 0.27354 0.15808 0.0
C246 C 0.82825 0.27523 0.52761 0.0
C247 C 0.83174 0.25148 0.5733 0.0
C248 C 0.82556 0.27336 0.43787 0.0
C249 C 0.82676 0.24797 0.392 0.0
C250 C 0.83091 0.22462 0.4379 0.0
C251 C 0.83318 0.22625 0.52765 0.0
H252 H 0.54881 0.80556 0.30593 0.0
H253 H 0.64786 0.82207 0.30859 0.0
H254 H 0.54901 0.80828 0.46292 0.0
H255 H 0.64867 0.82609 0.46528 0.0
H256 H 0.62726 0.79734 0.74555 0.0
H257 H 0.62609 0.79371 0.58958 0.0
H258 H 0.57241 0.84627 0.58006 0.0
H259 H 0.57237 0.84863 0.73767 0.0
C260 C 0.57064 0.80978 0.34025 0.0
C261 C 0.59824 0.81331 0.29533 0.0
C262 C 0.57087 0.81166 0.43009 0.0
C263 C 0.59889 0.81755 0.47672 0.0
C264 C 0.62646 0.82096 0.43149 0.0
C265 C 0.62604 0.81864 0.34169 0.0
C266 C 0.61531 0.80829 0.71031 0.0
C267 C 0.59998 0.82339 0.75377 0.0
C268 C 0.61479 0.80633 0.6207 0.0
C269 C 0.59931 0.81982 0.57219 0.0
C270 C 0.58416 0.8352 0.61562 0.0
C271 C 0.58431 0.83679 0.70575 0.0
H272 H 0.76357 0.5439 0.4592 0.0
H273 H 0.84667 0.64281 0.46251 0.0
H274 H 0.76139 0.54451 0.61633 0.0
H275 H 0.84387 0.64401 0.61906 0.0
H276 H 0.85161 0.62326 0.89935 0.0
H277 H 0.85371 0.62155 0.74334 0.0
H278 H 0.74746 0.56862 0.73339 0.0
H279 H 0.7454 0.56913 0.89093 0.0
C280 C 0.78138 0.56576 0.49369 0.0
C281 C 0.80555 0.59319 0.44896 0.0
C282 C 0.77995 0.56623 0.58356 0.0
C283 C 0.80238 0.59433 0.63031 0.0
C284 C 0.82659 0.62173 0.58521 0.0
C285 C 0.82828 0.62107 0.49546 0.0
C286 C 0.82864 0.61138 0.86399 0.0
C287 C 0.79829 0.5964 0.9073 0.0
C288 C 0.82987 0.61053 0.77437 0.0
C289 C 0.80078 0.59507 0.72576 0.0
C290 C 0.77034 0.58032 0.76905 0.0
C291 C 0.76912 0.58081 0.85913 0.0
H292 H 0.2267 0.74028 0.08749 0.0
H293 H 0.21456 0.82567 0.09324 0.0
H294 H 0.23132 0.74375 0.93079 0.0
H295 H 0.21784 0.82841 0.93658 0.0
H296 H 0.25845 0.84455 0.66328 0.0
H297 H 0.25614 0.84182 0.82073 0.0
H298 H 0.1994 0.73558 0.80561 0.0
H299 H 0.20279 0.73828 0.64971 0.0
C300 C 0.22448 0.75944 0.05508 0.0
C301 C 0.22023 0.78266 0.10237 0.0
C302 C 0.22709 0.76145 -0.03466 0.0
C303 C 0.22507 0.78646 0.92114 0.0
C304 C 0.22019 0.80928 -0.03135 0.0
C305 C 0.21798 0.8075 0.05835 0.0
C306 C 0.24565 0.82069 0.69386 0.0
C307 C 0.23089 0.79169 0.64423 0.0
C308 C 0.24414 0.81908 0.78393 0.0
C309 C 0.22755 0.78845 0.82576 0.0
C310 C 0.21289 0.75953 0.77572 0.0
C311 C 0.21469 0.76113 0.68613 0.0
H312 H 0.41735 0.10298 0.54027 0.0
H313 H 0.34154 0.12588 0.47757 0.0
H314 H 0.37821 0.04463 0.5218 0.0
H315 H 0.30215 0.06715 0.45952 0.0
H316 H 0.26689 0.96848 0.30071 0.0
H317 H 0.29681 0.02593 0.34878 0.0
H318 H 0.32777 0.997 0.5778 0.0
H319 H 0.29848 0.93981 0.52828 0.0
C320 C 0.39217 0.09553 0.52388 0.0
C321 C 0.38264 0.11911 0.50968 0.0
C322 C 0.36965 0.06202 0.51391 0.0
C323 C 0.33708 0.05126 0.48895 0.0
C324 C 0.32716 0.07473 0.4781 0.0
C325 C 0.34967 0.10833 0.48885 0.0
C326 C 0.27949 0.97445 0.36224 0.0
C327 C 0.28 0.94971 0.4113 0.0
C328 C 0.29647 1.00725 0.39005 0.0
C329 C 0.31471 1.01602 0.46708 0.0
C330 C 0.31405 0.99102 0.518 0.0
C331 C 0.2969 0.95821 0.49032 0.0
H332 H 0.31404 0.25997 0.44529 0.0
H333 H 0.37404 0.28344 0.67344 0.0
H334 H 0.28617 0.28752 0.50791 0.0
H335 H 0.34565 0.30993 0.73746 0.0
H336 H 0.32896 0.39987 0.73661 0.0
H337 H 0.34817 0.36175 0.70176 0.0
H338 H 0.24998 0.28853 0.62412 0.0
H339 H 0.23064 0.32701 0.65856 0.0
C340 C 0.32053 0.2702 0.50986 0.0
C341 C 0.34577 0.26905 0.555 0.0
C342 C 0.3045 0.28579 0.546 0.0
C343 C 0.31371 0.30094 0.62774 0.0
C344 C 0.33807 0.29861 0.67427 0.0
C345 C 0.354 0.28295 0.63816 0.0
C346 C 0.31128 0.37544 0.71359 0.0
C347 C 0.27832 0.36657 0.69973 0.0
C348 C 0.32228 0.35348 0.69407 0.0
C349 C 0.30064 0.32213 0.65972 0.0
C350 C 0.2673 0.31263 0.6497 0.0
C351 C 0.25619 0.33458 0.67001 0.0
H352 H 0.91662 0.22091 0.81334 0.0
H353 H 0.94256 0.31972 0.88994 0.0
H354 H 0.97488 0.23921 0.79 0.0
H355 H 1.00031 0.33788 0.86637 0.0
H356 H 0.10414 0.36146 0.86082 0.0
H357 H 0.04773 0.33351 0.9144 0.0
H358 H 1.0154 0.27578 0.67958 0.0
H359 H 0.07217 0.30328 0.62735 0.0
C360 C 0.93476 0.24634 0.82673 0.0
C361 C 0.92499 0.26892 0.85287 0.0
C362 C 0.96807 0.25684 0.81288 0.0
C363 C 0.9922 0.29 0.82607 0.0
C364 C 0.98243 0.3121 0.85652 0.0
C365 C 0.94926 0.30172 0.86945 0.0
C366 C 0.08521 0.3419 0.82225 0.0
C367 C 0.09258 0.33412 0.74048 0.0
C368 C 0.0528 0.3262 0.85234 0.0
C369 C 0.02705 0.30251 0.80112 0.0
C370 C 0.03468 0.29361 0.72111 0.0
C371 C 0.06709 0.30943 0.69092 0.0
H372 H 0.64063 0.93487 0.08705 0.0
H373 H 0.71168 0.91343 -0.02858 0.0
H374 H 0.67576 0.9929 0.05431 0.0
H375 H 0.74657 0.97164 0.93592 0.0
H376 H 0.80889 0.08472 0.91681 0.0
H377 H 0.7806 0.02952 -0.01875 0.0
H378 H 0.687 0.02085 0.91855 0.0
H379 H 0.71536 0.07589 0.85751 0.0
C380 C 0.66401 0.94266 0.05562 0.0
C381 C 0.67321 0.91956 0.03075 0.0
C382 C 0.68407 0.9759 0.03633 0.0
C383 C 0.71361 0.98682 -0.00938 0.0
C384 C 0.72399 0.96407 -0.02874 0.0
C385 C 0.70399 0.93071 -0.00852 0.0
C386 C 0.7823 0.07101 0.91863 0.0
C387 C 0.76414 0.08447 0.88369 0.0
C388 C 0.7661 0.03941 0.95462 0.0
C389 C 0.73151 0.0209 0.9561 0.0
C390 C 0.71361 0.03463 0.92058 0.0
C391 C 0.72975 0.06598 0.88479 0.0
H392 H 0.82572 0.71071 0.14564 0.0
H393 H 0.72807 0.63816 0.22836 0.0
H394 H 0.80655 0.74977 0.11993 0.0
H395 H 0.70904 0.67685 0.20232 0.0
H396 H 0.68366 0.75557 0.18889 0.0
H397 H 0.71289 0.72906 0.24549 0.0
H398 H 0.76885 0.75105 0.00906 0.0
H399 H 0.74012 0.77852 0.95382 0.0
C400 C 0.80038 0.70333 0.15996 0.0
C401 C 0.77834 0.67128 0.18836 0.0
C402 C 0.78937 0.72561 0.14473 0.0
C403 C 0.75626 0.71636 0.15872 0.0
C404 C 0.73477 0.68492 0.19175 0.0
C405 C 0.74565 0.66263 0.20613 0.0
C406 C 0.70313 0.75596 0.15054 0.0
C407 C 0.71007 0.76961 0.06751 0.0
C408 C 0.71955 0.74033 0.1824 0.0
C409 C 0.74311 0.73784 0.13167 0.0
C410 C 0.75116 0.75291 0.05024 0.0
C411 C 0.73463 0.76844 0.01833 0.0
H412 H 0.98581 0.73234 0.12472 0.0
H413 H 0.94746 0.67174 0.35072 0.0
H414 H 0.04112 0.75879 0.18695 0.0
H415 H 1.00231 0.69854 0.41411 0.0
H416 H 0.10829 0.71291 0.40766 0.0
H417 H 0.0512 0.69473 0.37366 0.0
H418 H 0.07789 0.79422 0.30692 0.0
H419 H 0.13537 0.81255 0.34085 0.0
C420 C 0.98917 0.72539 0.1887 0.0
C421 C 0.96234 0.70046 0.2335 0.0
C422 C 1.0207 0.74059 0.22459 0.0
C423 C 1.02606 0.73075 0.30554 0.0
C424 C 0.99897 0.7066 0.3516 0.0
C425 C 0.96746 0.69157 0.31587 0.0
C426 C 0.10194 0.73106 0.38728 0.0
C427 C 0.12638 0.76412 0.37638 0.0
C428 C 0.06916 0.72066 0.36823 0.0
C429 C 0.06006 0.74302 0.33717 0.0
C430 C 0.08425 0.7764 0.33002 0.0
C431 C 0.11709 0.78691 0.35003 0.0
H432 H 0.49359 0.3258 0.37255 0.0
H433 H 0.5699 0.31814 0.50555 0.0
H434 H 0.53464 0.37669 0.30615 0.0
H435 H 0.61113 0.37041 0.44452 0.0
H436 H 0.68231 0.44697 0.26568 0.0
H437 H 0.63976 0.39501 0.3217 0.0
H438 H 0.57153 0.43153 0.31922 0.0
H439 H 0.61342 0.4822 0.25385 0.0
C440 C 0.51918 0.33559 0.38953 0.0
C441 C 0.52858 0.31809 0.44438 0.0
C442 C 0.54285 0.3649 0.35146 0.0
C443 C 0.57654 0.3779 0.36892 0.0
C444 C 0.58567 0.36091 0.42705 0.0
C445 C 0.56201 0.33113 0.4633 0.0
C446 C 0.65789 0.44344 0.27275 0.0
C447 C 0.65112 0.46856 0.25209 0.0
C448 C 0.63353 0.41379 0.30789 0.0
C449 C 0.60197 0.4088 0.32633 0.0
C450 C 0.59517 0.43388 0.3049 0.0
C451 C 0.61931 0.46317 0.26775 0.0
H452 H 0.27211 0.55802 0.71764 0.0
H453 H 0.18813 0.48182 0.58194 0.0
H454 H 0.26136 0.59944 0.6567 0.0
H455 H 0.17864 0.52291 0.51581 0.0
H456 H 0.15198 0.60066 0.45873 0.0
H457 H 0.16071 0.55948 0.52761 0.0
H458 H 0.26529 0.62851 0.53542 0.0
H459 H 0.25582 0.67051 0.47594 0.0
C460 C 0.25131 0.55018 0.67484 0.0
C461 C 0.23082 0.51671 0.65519 0.0
C462 C 0.24533 0.57395 0.63869 0.0
C463 C 0.21925 0.56487 0.58002 0.0
C464 C 0.19855 0.53115 0.56172 0.0
C465 C 0.20402 0.50742 0.59965 0.0
C466 C 0.17686 0.60692 0.47466 0.0
C467 C 0.20321 0.63876 0.45904 0.0
C468 C 0.18199 0.58316 0.51381 0.0
C469 C 0.21382 0.59027 0.53728 0.0
C470 C 0.24032 0.62197 0.5198 0.0
C471 C 0.23502 0.64601 0.48268 0.0
H472 H 0.73554 0.27366 0.82546 0.0
H473 H 0.71207 0.17439 0.76289 0.0
H474 H 0.68414 0.26323 0.76035 0.0
H475 H 0.66093 0.16413 0.69629 0.0
H476 H 0.55859 0.14962 0.63981 0.0
H477 H 0.60723 0.15773 0.71832 0.0
H478 H 0.66272 0.25611 0.61556 0.0
H479 H 0.61395 0.24779 0.53822 0.0
C480 C 0.71935 0.24955 0.79848 0.0
C481 C 0.72817 0.22503 0.79884 0.0
C482 C 0.68993 0.24361 0.76048 0.0
C483 C 0.6686 0.213 0.72172 0.0
C484 C 0.67665 0.18794 0.72585 0.0
C485 C 0.70605 0.19386 0.7641 0.0
C486 C 0.58132 0.17285 0.63404 0.0
C487 C 0.58249 0.1983 0.5844 0.0
C488 C 0.60915 0.17755 0.67885 0.0
C489 C 0.63883 0.20775 0.67427 0.0
C490 C 0.64008 0.23287 0.62255 0.0
C491 C 0.61223 0.22816 0.57804 0.0
H492 H 0.48481 0.72032 0.04173 0.0
H493 H 0.5607 0.71295 0.90301 0.0
H494 H 0.44349 0.66769 -0.01908 0.0
H495 H 0.51958 0.66171 0.83719 0.0
H496 H 0.44166 0.55622 0.78245 0.0
H497 H 0.48323 0.60689 0.84987 0.0
H498 H 0.41414 0.64231 0.85896 0.0
H499 H 0.3719 0.59029 0.80067 0.0
C500 C 0.4926 0.70735 -0.00175 0.0
C501 C 0.52595 0.7206 -0.02238 0.0
C502 C 0.46888 0.67733 -0.03778 0.0
C503 C 0.47786 0.66027 0.90275 0.0
C504 C 0.51147 0.6735 0.8836 0.0
C505 C 0.5352 0.70304 0.92135 0.0
C506 C 0.43549 0.575 0.79831 0.0
C507 C 0.40357 0.56933 0.7835 0.0
C508 C 0.45945 0.60429 0.83663 0.0
C509 C 0.45239 0.62914 0.8602 0.0
C510 C 0.42063 0.62377 0.84331 0.0
C511 C 0.39643 0.59409 0.80691 0.0
H512 H 0.86745 0.55483 0.05755 0.0
H513 H 0.78209 0.47881 0.18786 0.0
H514 H 0.87693 0.51352 -0.00991 0.0
H515 H 0.79272 0.43721 0.12541 0.0
H516 H 0.79844 0.36617 0.94246 0.0
H517 H 0.78926 0.40867 0.00167 0.0
H518 H 0.8942 0.47625 0.00243 0.0
H519 H 0.90282 0.43448 0.93391 0.0
C520 C 0.85122 0.52922 0.0737 0.0
C521 C 0.82406 0.52004 0.12814 0.0
C522 C 0.85667 0.50539 0.03501 0.0
C523 C 0.83555 0.47169 0.05137 0.0
C524 C 0.80907 0.4627 0.1089 0.0
C525 C 0.80316 0.48657 0.14587 0.0
C526 C 0.81945 0.39046 0.95094 0.0
C527 C 0.85135 0.39711 0.93001 0.0
C528 C 0.81428 0.41478 -0.01206 0.0
C529 C 0.84094 0.44616 0.00797 0.0
C530 C 0.87284 0.45278 -0.01322 0.0
C531 C 0.87789 0.4287 0.94782 0.0
H532 H 0.4842 0.89058 0.11425 0.0
H533 H 0.45232 0.78727 0.13591 0.0
H534 H 0.43459 0.88148 0.1869 0.0
H535 H 0.401 0.77727 0.19906 0.0
H536 H 0.32438 0.77077 0.38636 0.0
H537 H 0.37631 0.78176 0.32169 0.0
H538 H 0.37996 0.86235 0.17845 0.0
H539 H 0.32983 0.85281 0.24822 0.0
C540 C 0.46606 0.86569 0.13194 0.0
C541 C 0.47203 0.83961 0.11645 0.0
C542 C 0.43733 0.86033 0.17326 0.0
C543 C 0.41326 0.8285 0.19897 0.0
C544 C 0.41894 0.80224 0.18168 0.0
C545 C 0.44815 0.80781 0.14245 0.0
C546 C 0.33677 0.79119 0.34225 0.0
C547 C 0.32326 0.81112 0.32307 0.0
C548 C 0.36635 0.79728 0.30399 0.0
C549 C 0.38258 0.82286 0.24368 0.0
C550 C 0.36895 0.84291 0.22565 0.0
C551 C 0.33998 0.83739 0.26567 0.0
loop_
_geom_bond_atom_site_label_1
_geom_bond_atom_site_label_2
_geom_bond_distance
_geom_bond_site_symmetry_2
_ccdc_geom_bond_type
Zn0 O1 2.055 . S
Zn0 O8 2.046 . S
Zn0 N16 2.036 . S
Zn0 O28 2.053 . S
Zn0 O30 2.066 . S
O1 Zn0 2.055 . S
O1 C4 1.259 . S
C2 O30 1.256 . S
C2 O31 1.244 . S
Zn3 O5 2.046 . S
Zn3 O7 2.055 . S
Zn3 N9 2.036 . S
Zn3 O27 2.066 . S
Zn3 O31 2.053 . S
C4 O1 1.259 . S
C4 O5 1.254 . S
O5 Zn3 2.046 . S
O5 C4 1.254 . S
C6 O27 1.256 . S
C6 O28 1.244 . S
O7 Zn3 2.055 . S
O7 C29 1.259 . S
O8 Zn0 2.046 . S
O8 C29 1.254 . S
N9 Zn3 2.036 . S
N9 C10 1.298 . S
N9 N12 1.398 . S
C10 N9 1.298 . S
C10 N13 1.367 . S
C10 C23 1.481 . S
C11 N12 1.299 . S
C11 N13 1.379 . S
N12 N9 1.398 . S
N12 C11 1.299 . S
N13 C10 1.367 . S
N13 C11 1.379 . S
C14 N16 1.298 . S
C14 N18 1.367 . S
C14 C22 1.481 . S
C15 N17 1.299 . S
C15 N18 1.379 . S
N16 Zn0 2.036 . S
N16 C14 1.298 . S
N16 N17 1.398 . S
N17 C15 1.299 . S
N17 N16 1.398 . S
N18 C14 1.367 . S
N18 C15 1.379 . S
H19 C22 0.980 . S
H20 C22 0.981 . S
H21 C22 0.981 . S
C22 C14 1.481 . S
C22 H19 0.980 . S
C22 H20 0.981 . S
C22 H21 0.981 . S
C23 C10 1.481 . S
C23 H24 0.980 . S
C23 H25 0.981 . S
C23 H26 0.981 . S
H24 C23 0.980 . S
H25 C23 0.981 . S
H26 C23 0.981 . S
O27 Zn3 2.066 . S
O27 C6 1.256 . S
O28 Zn0 2.053 . S
O28 C6 1.244 . S
C29 O7 1.259 . S
C29 O8 1.254 . S
O30 Zn0 2.066 . S
O30 C2 1.256 . S
O31 C2 1.244 . S
O31 Zn3 2.053 . S
Zn32 O33 2.055 . S
Zn32 O40 2.046 . S
Zn32 N48 2.036 . S
Zn32 O60 2.053 . S
Zn32 O62 2.066 . S
O33 Zn32 2.055 . S
O33 C36 1.259 . S
C34 O62 1.256 . S
C34 O63 1.244 . S
Zn35 O37 2.046 . S
Zn35 O39 2.055 . S
Zn35 N41 2.036 . S
Zn35 O59 2.066 . S
Zn35 O63 2.053 . S
C36 O33 1.259 . S
C36 O37 1.254 . S
O37 Zn35 2.046 . S
O37 C36 1.254 . S
C38 O59 1.256 . S
C38 O60 1.244 . S
O39 Zn35 2.055 . S
O39 C61 1.259 . S
O40 Zn32 2.046 . S
O40 C61 1.254 . S
N41 Zn35 2.036 . S
N41 C42 1.298 . S
N41 N44 1.398 . S
C42 N41 1.298 . S
C42 N45 1.367 . S
C42 C55 1.481 . S
C43 N44 1.299 . S
C43 N45 1.379 . S
N44 N41 1.398 . S
N44 C43 1.299 . S
N45 C42 1.367 . S
N45 C43 1.379 . S
C46 N48 1.298 . S
C46 N50 1.367 . S
C46 C54 1.481 . S
C47 N49 1.299 . S
C47 N50 1.379 . S
N48 Zn32 2.036 . S
N48 C46 1.298 . S
N48 N49 1.398 . S
N49 C47 1.299 . S
N49 N48 1.398 . S
N50 C46 1.367 . S
N50 C47 1.379 . S
H51 C54 0.980 . S
H52 C54 0.981 . S
H53 C54 0.981 . S
C54 C46 1.481 . S
C54 H51 0.980 . S
C54 H52 0.981 . S
C54 H53 0.981 . S
C55 C42 1.481 . S
C55 H56 0.980 . S
C55 H57 0.981 . S
C55 H58 0.981 . S
H56 C55 0.980 . S
H57 C55 0.981 . S
H58 C55 0.981 . S
O59 Zn35 2.066 . S
O59 C38 1.256 . S
O60 Zn32 2.053 . S
O60 C38 1.244 . S
C61 O39 1.259 . S
C61 O40 1.254 . S
O62 Zn32 2.066 . S
O62 C34 1.256 . S
O63 C34 1.244 . S
O63 Zn35 2.053 . S
Zn64 O65 2.055 . S
Zn64 O72 2.046 . S
Zn64 N80 2.036 . S
Zn64 O92 2.053 . S
Zn64 O94 2.066 1_556 S
O65 Zn64 2.055 . S
O65 C68 1.259 . S
C66 O94 1.256 . S
C66 O95 1.244 . S
Zn67 O69 2.046 . S
Zn67 O71 2.055 . S
Zn67 N73 2.036 . S
Zn67 O91 2.066 . S
Zn67 O95 2.053 1_556 S
C68 O65 1.259 . S
C68 O69 1.254 . S
O69 Zn67 2.046 . S
O69 C68 1.254 . S
C70 O91 1.256 . S
C70 O92 1.244 . S
O71 Zn67 2.055 . S
O71 C93 1.259 . S
O72 Zn64 2.046 . S
O72 C93 1.254 . S
N73 Zn67 2.036 . S
N73 C74 1.298 . S
N73 N76 1.398 1_556 S
C74 N73 1.298 . S
C74 N77 1.367 . S
C74 C87 1.481 . S
C75 N76 1.299 . S
C75 N77 1.379 1_554 S
N76 N73 1.398 1_554 S
N76 C75 1.299 . S
N77 C74 1.367 . S
N77 C75 1.379 1_556 S
C78 N80 1.298 . S
C78 N82 1.367 . S
C78 C86 1.481 . S
C79 N81 1.299 . S
C79 N82 1.379 . S
N80 Zn64 2.036 . S
N80 C78 1.298 . S
N80 N81 1.398 . S
N81 C79 1.299 . S
N81 N80 1.398 . S
N82 C78 1.367 . S
N82 C79 1.379 . S
H83 C86 0.980 . S
H84 C86 0.981 . S
H85 C86 0.981 1_554 S
C86 C78 1.481 . S
C86 H83 0.980 . S
C86 H84 0.981 . S
C86 H85 0.981 1_556 S
C87 C74 1.481 . S
C87 H88 0.980 . S
C87 H89 0.981 . S
C87 H90 0.981 . S
H88 C87 0.980 . S
H89 C87 0.981 . S
H90 C87 0.981 . S
O91 Zn67 2.066 . S
O91 C70 1.256 . S
O92 Zn64 2.053 . S
O92 C70 1.244 . S
C93 O71 1.259 . S
C93 O72 1.254 . S
O94 Zn64 2.066 1_554 S
O94 C66 1.256 . S
O95 C66 1.244 . S
O95 Zn67 2.053 1_554 S
Zn96 O97 2.055 . S
Zn96 O104 2.046 1_554 S
Zn96 N112 2.036 . S
Zn96 O124 2.053 . S
Zn96 O126 2.066 . S
O97 Zn96 2.055 . S
O97 C100 1.259 . S
C98 O126 1.256 . S
C98 O127 1.244 . S
Zn99 O101 2.046 . S
Zn99 O103 2.055 1_554 S
Zn99 N105 2.036 . S
Zn99 O123 2.066 . S
Zn99 O127 2.053 . S
C100 O97 1.259 . S
C100 O101 1.254 . S
O101 Zn99 2.046 . S
O101 C100 1.254 . S
C102 O123 1.256 . S
C102 O124 1.244 . S
O103 Zn99 2.055 1_556 S
O103 C125 1.259 . S
O104 Zn96 2.046 1_556 S
O104 C125 1.254 . S
N105 Zn99 2.036 . S
N105 C106 1.298 . S
N105 N108 1.398 . S
C106 N105 1.298 . S
C106 N109 1.367 . S
C106 C119 1.481 1_554 S
C107 N108 1.299 . S
C107 N109 1.379 . S
N108 N105 1.398 . S
N108 C107 1.299 . S
N109 C106 1.367 . S
N109 C107 1.379 . S
C110 N112 1.298 . S
C110 N114 1.367 . S
C110 C118 1.481 . S
C111 N113 1.299 . S
C111 N114 1.379 . S
N112 Zn96 2.036 . S
N112 C110 1.298 . S
N112 N113 1.398 . S
N113 C111 1.299 . S
N113 N112 1.398 . S
N114 C110 1.367 . S
N114 C111 1.379 . S
H115 C118 0.980 . S
H116 C118 0.981 . S
H117 C118 0.981 . S
C118 C110 1.481 . S
C118 H115 0.980 . S
C118 H116 0.981 . S
C118 H117 0.981 . S
C119 C106 1.481 1_556 S
C119 H120 0.980 . S
C119 H121 0.981 . S
C119 H122 0.981 . S
H120 C119 0.980 . S
H121 C119 0.981 . S
H122 C119 0.981 . S
O123 Zn99 2.066 . S
O123 C102 1.256 . S
O124 Zn96 2.053 . S
O124 C102 1.244 . S
C125 O103 1.259 . S
C125 O104 1.254 . S
O126 Zn96 2.066 . S
O126 C98 1.256 . S
O127 C98 1.244 . S
O127 Zn99 2.053 . S
Zn128 O129 2.055 . S
Zn128 O136 2.046 . S
Zn128 N144 2.036 . S
Zn128 O156 2.053 . S
Zn128 O158 2.066 . S
O129 Zn128 2.055 . S
O129 C132 1.259 . S
C130 O158 1.256 . S
C130 O159 1.244 . S
Zn131 O133 2.046 . S
Zn131 O135 2.055 . S
Zn131 N137 2.036 . S
Zn131 O155 2.066 . S
Zn131 O159 2.053 . S
C132 O129 1.259 . S
C132 O133 1.254 . S
O133 Zn131 2.046 . S
O133 C132 1.254 . S
C134 O155 1.256 . S
C134 O156 1.244 . S
O135 Zn131 2.055 . S
O135 C157 1.259 . S
O136 Zn128 2.046 . S
O136 C157 1.254 . S
N137 Zn131 2.036 . S
N137 C138 1.298 . S
N137 N140 1.398 . S
C138 N137 1.298 . S
C138 N141 1.367 . S
C138 C151 1.481 . S
C139 N140 1.299 . S
C139 N141 1.379 . S
N140 N137 1.398 . S
N140 C139 1.299 . S
N141 C138 1.367 . S
N141 C139 1.379 . S
C142 N144 1.298 . S
C142 N146 1.367 . S
C142 C150 1.481 . S
C143 N145 1.299 . S
C143 N146 1.379 . S
N144 Zn128 2.036 . S
N144 C142 1.298 . S
N144 N145 1.398 . S
N145 C143 1.299 . S
N145 N144 1.398 . S
N146 C142 1.367 . S
N146 C143 1.379 . S
H147 C150 0.980 . S
H148 C150 0.981 . S
H149 C150 0.981 . S
C150 C142 1.481 . S
C150 H147 0.980 . S
C150 H148 0.981 . S
C150 H149 0.981 . S
C151 C138 1.481 . S
C151 H152 0.980 . S
C151 H153 0.981 . S
C151 H154 0.981 . S
H152 C151 0.980 . S
H153 C151 0.981 . S
H154 C151 0.981 . S
O155 Zn131 2.066 . S
O155 C134 1.256 . S
O156 Zn128 2.053 . S
O156 C134 1.244 . S
C157 O135 1.259 . S
C157 O136 1.254 . S
O158 Zn128 2.066 . S
O158 C130 1.256 . S
O159 C130 1.244 . S
O159 Zn131 2.053 . S
Zn160 O161 2.055 . S
Zn160 O168 2.046 . S
Zn160 N176 2.036 . S
Zn160 O188 2.053 . S
Zn160 O190 2.066 . S
O161 Zn160 2.055 . S
O161 C164 1.259 . S
C162 O190 1.256 . S
C162 O191 1.244 . S
Zn163 O165 2.046 . S
Zn163 O167 2.055 . S
Zn163 N169 2.036 . S
Zn163 O187 2.066 . S
Zn163 O191 2.053 . S
C164 O161 1.259 . S
C164 O165 1.254 . S
O165 Zn163 2.046 . S
O165 C164 1.254 . S
C166 O187 1.256 . S
C166 O188 1.244 . S
O167 Zn163 2.055 . S
O167 C189 1.259 . S
O168 Zn160 2.046 . S
O168 C189 1.254 . S
N169 Zn163 2.036 . S
N169 C170 1.298 . S
N169 N172 1.398 . S
C170 N169 1.298 . S
C170 N173 1.367 . S
C170 C183 1.481 . S
C171 N172 1.299 . S
C171 N173 1.379 . S
N172 N169 1.398 . S
N172 C171 1.299 . S
N173 C170 1.367 . S
N173 C171 1.379 . S
C174 N176 1.298 . S
C174 N178 1.367 . S
C174 C182 1.481 . S
C175 N177 1.299 . S
C175 N178 1.379 . S
N176 Zn160 2.036 . S
N176 C174 1.298 . S
N176 N177 1.398 . S
N177 C175 1.299 . S
N177 N176 1.398 . S
N178 C174 1.367 . S
N178 C175 1.379 . S
H179 C182 0.980 . S
H180 C182 0.981 . S
H181 C182 0.981 . S
C182 C174 1.481 . S
C182 H179 0.980 . S
C182 H180 0.981 . S
C182 H181 0.981 . S
C183 C170 1.481 . S
C183 H184 0.980 . S
C183 H185 0.981 . S
C183 H186 0.981 . S
H184 C183 0.980 . S
H185 C183 0.981 . S
H186 C183 0.981 . S
O187 Zn163 2.066 . S
O187 C166 1.256 . S
O188 Zn160 2.053 . S
O188 C166 1.244 . S
C189 O167 1.259 . S
C189 O168 1.254 . S
O190 Zn160 2.066 . S
O190 C162 1.256 . S
O191 C162 1.244 . S
O191 Zn163 2.053 . S
H192 C200 0.950 . S
H193 C205 0.950 . S
H194 C202 0.950 . S
H195 C204 0.950 . S
H196 C206 0.950 . S
H197 C208 0.950 1_554 S
H198 C210 0.950 . S
H199 C211 0.950 . S
C200 H192 0.950 . S
C200 C201 1.386 . S
C200 C202 1.391 . S
C201 C200 1.386 . S
C201 C205 1.393 . S
C202 H194 0.950 . S
C202 C200 1.391 . S
C202 C203 1.400 . S
C203 C202 1.400 . S
C203 C204 1.398 . S
C203 C209 1.491 . S
C204 H195 0.950 . S
C204 C203 1.398 . S
C204 C205 1.391 . S
C205 H193 0.950 . S
C205 C201 1.393 . S
C205 C204 1.391 . S
C206 H196 0.950 . S
C206 C207 1.386 . S
C206 C208 1.391 . S
C207 C206 1.386 . S
C207 C211 1.393 . S
C208 H197 0.950 1_556 S
C208 C206 1.391 . S
C208 C209 1.400 1_556 S
C209 C203 1.491 . S
C209 C208 1.400 1_554 S
C209 C210 1.398 1_554 S
C210 H198 0.950 . S
C210 C209 1.398 1_556 S
C210 C211 1.391 . S
C211 H199 0.950 . S
C211 C207 1.393 . S
C211 C210 1.391 . S
H212 C220 0.950 . S
H213 C225 0.950 . S
H214 C222 0.950 . S
H215 C224 0.950 . S
H216 C226 0.950 1_556 S
H217 C228 0.950 . S
H218 C230 0.950 . S
H219 C231 0.950 . S
C220 H212 0.950 . S
C220 C221 1.386 . S
C220 C222 1.391 . S
C221 C220 1.386 . S
C221 C225 1.393 . S
C222 H214 0.950 . S
C222 C220 1.391 . S
C222 C223 1.400 . S
C223 C222 1.400 . S
C223 C224 1.398 . S
C223 C229 1.491 . S
C224 H215 0.950 . S
C224 C223 1.398 . S
C224 C225 1.391 . S
C225 H213 0.950 . S
C225 C221 1.393 . S
C225 C224 1.391 . S
C226 H216 0.950 1_554 S
C226 C227 1.386 1_554 S
C226 C228 1.391 . S
C227 C226 1.386 1_556 S
C227 C231 1.393 1_556 S
C228 H217 0.950 . S
C228 C226 1.391 . S
C228 C229 1.400 . S
C229 C223 1.491 . S
C229 C228 1.400 . S
C229 C230 1.398 . S
C230 H218 0.950 . S
C230 C229 1.398 . S
C230 C231 1.391 . S
C231 H219 0.950 . S
C231 C227 1.393 1_554 S
C231 C230 1.391 . S
H232 C240 0.950 . S
H233 C245 0.950 . S
H234 C242 0.950 . S
H235 C244 0.950 . S
H236 C246 0.950 . S
H237 C248 0.950 . S
H238 C250 0.950 . S
H239 C251 0.950 . S
C240 H232 0.950 . S
C240 C241 1.386 . S
C240 C242 1.391 . S
C241 C240 1.386 . S
C241 C245 1.393 . S
C242 H234 0.950 . S
C242 C240 1.391 . S
C242 C243 1.400 . S
C243 C242 1.400 . S
C243 C244 1.398 . S
C243 C249 1.491 . S
C244 H235 0.950 . S
C244 C243 1.398 . S
C244 C245 1.391 . S
C245 H233 0.950 . S
C245 C241 1.393 . S
C245 C244 1.391 . S
C246 H236 0.950 . S
C246 C247 1.386 . S
C246 C248 1.391 . S
C247 C246 1.386 . S
C247 C251 1.393 . S
C248 H237 0.950 . S
C248 C246 1.391 . S
C248 C249 1.400 . S
C249 C243 1.491 . S
C249 C248 1.400 . S
C249 C250 1.398 . S
C250 H238 0.950 . S
C250 C249 1.398 . S
C250 C251 1.391 . S
C251 H239 0.950 . S
C251 C247 1.393 . S
C251 C250 1.391 . S
H252 C260 0.950 . S
H253 C265 0.950 . S
H254 C262 0.950 . S
H255 C264 0.950 . S
H256 C266 0.950 . S
H257 C268 0.950 . S
H258 C270 0.950 . S
H259 C271 0.950 . S
C260 H252 0.950 . S
C260 C261 1.386 . S
C260 C262 1.391 . S
C261 C260 1.386 . S
C261 C265 1.393 . S
C262 H254 0.950 . S
C262 C260 1.391 . S
C262 C263 1.400 . S
C263 C262 1.400 . S
C263 C264 1.398 . S
C263 C269 1.491 . S
C264 H255 0.950 . S
C264 C263 1.398 . S
C264 C265 1.391 . S
C265 H253 0.950 . S
C265 C261 1.393 . S
C265 C264 1.391 . S
C266 H256 0.950 . S
C266 C267 1.386 . S
C266 C268 1.391 . S
C267 C266 1.386 . S
C267 C271 1.393 . S
C268 H257 0.950 . S
C268 C266 1.391 . S
C268 C269 1.400 . S
C269 C263 1.491 . S
C269 C268 1.400 . S
C269 C270 1.398 . S
C270 H258 0.950 . S
C270 C269 1.398 . S
C270 C271 1.391 . S
C271 H259 0.950 . S
C271 C267 1.393 . S
C271 C270 1.391 . S
H272 C280 0.950 . S
H273 C285 0.950 . S
H274 C282 0.950 . S
H275 C284 0.950 . S
H276 C286 0.950 . S
H277 C288 0.950 . S
H278 C290 0.950 . S
H279 C291 0.950 . S
C280 H272 0.950 . S
C280 C281 1.386 . S
C280 C282 1.391 . S
C281 C280 1.386 . S
C281 C285 1.393 . S
C282 H274 0.950 . S
C282 C280 1.391 . S
C282 C283 1.400 . S
C283 C282 1.400 . S
C283 C284 1.398 . S
C283 C289 1.491 . S
C284 H275 0.950 . S
C284 C283 1.398 . S
C284 C285 1.391 . S
C285 H273 0.950 . S
C285 C281 1.393 . S
C285 C284 1.391 . S
C286 H276 0.950 . S
C286 C287 1.386 . S
C286 C288 1.391 . S
C287 C286 1.386 . S
C287 C291 1.393 . S
C288 H277 0.950 . S
C288 C286 1.391 . S
C288 C289 1.400 . S
C289 C283 1.491 . S
C289 C288 1.400 . S
C289 C290 1.398 . S
C290 H278 0.950 . S
C290 C289 1.398 . S
C290 C291 1.391 . S
C291 H279 0.950 . S
C291 C287 1.393 . S
C291 C290 1.391 . S
H292 C300 0.950 . S
H293 C305 0.950 . S
H294 C302 0.950 1_556 S
H295 C304 0.950 1_556 S
H296 C306 0.950 . S
H297 C308 0.950 . S
H298 C310 0.950 . S
H299 C311 0.950 . S
C300 H292 0.950 . S
C300 C301 1.386 . S
C300 C302 1.391 . S
C301 C300 1.386 . S
C301 C305 1.393 . S
C302 H294 0.950 1_554 S
C302 C300 1.391 . S
C302 C303 1.400 1_554 S
C303 C302 1.400 1_556 S
C303 C304 1.398 1_556 S
C303 C309 1.491 . S
C304 H295 0.950 1_554 S
C304 C303 1.398 1_554 S
C304 C305 1.391 . S
C305 H293 0.950 . S
C305 C301 1.393 . S
C305 C304 1.391 . S
C306 H296 0.950 . S
C306 C307 1.386 . S
C306 C308 1.391 . S
C307 C306 1.386 . S
C307 C311 1.393 . S
C308 H297 0.950 . S
C308 C306 1.391 . S
C308 C309 1.400 . S
C309 C303 1.491 . S
C309 C308 1.400 . S
C309 C310 1.398 . S
C310 H298 0.950 . S
C310 C309 1.398 . S
C310 C311 1.391 . S
C311 H299 0.950 . S
C311 C307 1.393 . S
C311 C310 1.391 . S
H312 C320 0.950 . S
H313 C325 0.950 . S
H314 C322 0.950 . S
H315 C324 0.950 . S
H316 C326 0.950 . S
H317 C328 0.950 . S
H318 C330 0.950 . S
H319 C331 0.950 . S
C320 H312 0.950 . S
C320 C321 1.386 . S
C320 C322 1.391 . S
C321 C320 1.386 . S
C321 C325 1.393 . S
C322 H314 0.950 . S
C322 C320 1.391 . S
C322 C323 1.400 . S
C323 C322 1.400 . S
C323 C324 1.398 . S
C323 C329 1.491 . S
C324 H315 0.950 . S
C324 C323 1.398 . S
C324 C325 1.391 . S
C325 H313 0.950 . S
C325 C321 1.393 . S
C325 C324 1.391 . S
C326 H316 0.950 . S
C326 C327 1.386 . S
C326 C328 1.391 1_565 S
C327 C326 1.386 . S
C327 C331 1.393 . S
C328 H317 0.950 . S
C328 C326 1.391 1_545 S
C328 C329 1.400 . S
C329 C323 1.491 . S
C329 C328 1.400 . S
C329 C330 1.398 1_545 S
C330 H318 0.950 . S
C330 C329 1.398 1_565 S
C330 C331 1.391 . S
C331 H319 0.950 . S
C331 C327 1.393 . S
C331 C330 1.391 . S
H332 C340 0.950 . S
H333 C345 0.950 . S
H334 C342 0.950 . S
H335 C344 0.950 . S
H336 C346 0.950 . S
H337 C348 0.950 . S
H338 C350 0.950 . S
H339 C351 0.950 . S
C340 H332 0.950 . S
C340 C341 1.386 . S
C340 C342 1.391 . S
C341 C340 1.386 . S
C341 C345 1.393 . S
C342 H334 0.950 . S
C342 C340 1.391 . S
C342 C343 1.400 . S
C343 C342 1.400 . S
C343 C344 1.398 . S
C343 C349 1.491 . S
C344 H335 0.950 . S
C344 C343 1.398 . S
C344 C345 1.391 . S
C345 H333 0.950 . S
C345 C341 1.393 . S
C345 C344 1.391 . S
C346 H336 0.950 . S
C346 C347 1.386 . S
C346 C348 1.391 . S
C347 C346 1.386 . S
C347 C351 1.393 . S
C348 H337 0.950 . S
C348 C346 1.391 . S
C348 C349 1.400 . S
C349 C343 1.491 . S
C349 C348 1.400 . S
C349 C350 1.398 . S
C350 H338 0.950 . S
C350 C349 1.398 . S
C350 C351 1.391 . S
C351 H339 0.950 . S
C351 C347 1.393 . S
C351 C350 1.391 . S
H352 C360 0.950 . S
H353 C365 0.950 . S
H354 C362 0.950 . S
H355 C364 0.950 . S
H356 C366 0.950 . S
H357 C368 0.950 1_655 S
H358 C370 0.954 . S
H359 C371 0.950 . S
C360 H352 0.950 . S
C360 C361 1.386 . S
C360 C362 1.391 . S
C361 C360 1.386 . S
C361 C365 1.393 . S
C362 H354 0.950 . S
C362 C360 1.391 . S
C362 C363 1.400 . S
C363 C362 1.400 . S
C363 C364 1.398 . S
C363 C369 1.491 . S
C364 H355 0.950 . S
C364 C363 1.398 . S
C364 C365 1.391 . S
C365 H353 0.950 . S
C365 C361 1.393 . S
C365 C364 1.391 . S
C366 H356 0.950 . S
C366 C367 1.386 . S
C366 C368 1.391 . S
C367 C366 1.386 . S
C367 C371 1.393 . S
C368 H357 0.950 1_455 S
C368 C366 1.391 . S
C368 C369 1.400 1_455 S
C369 C363 1.491 . S
C369 C368 1.400 1_655 S
C369 C370 1.432 . S
C370 H358 0.954 . S
C370 C369 1.432 . S
C370 C371 1.354 1_655 S
C371 H359 0.950 . S
C371 C367 1.393 . S
C371 C370 1.354 1_455 S
H372 C380 0.950 . S
H373 C385 0.950 . S
H374 C382 0.950 . S
H375 C384 0.950 . S
H376 C386 0.950 1_554 S
H377 C388 0.950 1_565 S
H378 C390 0.950 1_565 S
H379 C391 0.950 . S
C380 H372 0.950 . S
C380 C381 1.386 . S
C380 C382 1.391 . S
C381 C380 1.386 . S
C381 C385 1.393 . S
C382 H374 0.950 . S
C382 C380 1.391 . S
C382 C383 1.400 . S
C383 C382 1.400 . S
C383 C384 1.398 . S
C383 C389 1.491 . S
C384 H375 0.950 . S
C384 C383 1.398 . S
C384 C385 1.391 . S
C385 H373 0.950 . S
C385 C381 1.393 . S
C385 C384 1.391 . S
C386 H376 0.950 1_556 S
C386 C387 1.386 . S
C386 C388 1.391 1_556 S
C387 C386 1.386 . S
C387 C391 1.393 . S
C388 H377 0.950 1_545 S
C388 C386 1.391 1_554 S
C388 C389 1.400 1_545 S
C389 C383 1.491 . S
C389 C388 1.400 1_565 S
C389 C390 1.398 1_564 S
C390 H378 0.950 1_545 S
C390 C389 1.398 1_546 S
C390 C391 1.391 . S
C391 H379 0.950 . S
C391 C387 1.393 . S
C391 C390 1.391 . S
H392 C400 0.950 . S
H393 C405 0.950 . S
H394 C402 0.950 . S
H395 C404 0.950 . S
H396 C406 0.950 . S
H397 C408 0.950 . S
H398 C410 0.950 . S
H399 C411 0.950 . S
C400 H392 0.950 . S
C400 C401 1.386 . S
C400 C402 1.391 . S
C401 C400 1.386 . S
C401 C405 1.393 . S
C402 H394 0.950 . S
C402 C400 1.391 . S
C402 C403 1.400 . S
C403 C402 1.400 . S
C403 C404 1.398 . S
C403 C409 1.491 . S
C404 H395 0.950 . S
C404 C403 1.398 . S
C404 C405 1.391 . S
C405 H393 0.950 . S
C405 C401 1.393 . S
C405 C404 1.391 . S
C406 H396 0.950 . S
C406 C407 1.386 . S
C406 C408 1.391 . S
C407 C406 1.386 . S
C407 C411 1.393 . S
C408 H397 0.950 . S
C408 C406 1.391 . S
C408 C409 1.400 . S
C409 C403 1.491 . S
C409 C408 1.400 . S
C409 C410 1.398 . S
C410 H398 0.950 . S
C410 C409 1.398 . S
C410 C411 1.391 . S
C411 H399 0.950 . S
C411 C407 1.393 . S
C411 C410 1.391 . S
H412 C420 0.950 . S
H413 C425 0.950 . S
H414 C422 0.949 1_455 S
H415 C424 0.950 1_455 S
H416 C426 0.950 . S
H417 C428 0.950 . S
H418 C430 0.950 . S
H419 C431 0.950 . S
C420 H412 0.950 . S
C420 C421 1.386 . S
C420 C422 1.411 . S
C421 C420 1.386 . S
C421 C425 1.393 . S
C422 H414 0.949 1_655 S
C422 C420 1.411 . S
C422 C423 1.382 1_655 S
C423 C422 1.382 1_455 S
C423 C424 1.398 1_455 S
C423 C429 1.491 . S
C424 H415 0.950 1_655 S
C424 C423 1.398 1_655 S
C424 C425 1.391 . S
C425 H413 0.950 . S
C425 C421 1.393 . S
C425 C424 1.391 . S
C426 H416 0.950 . S
C426 C427 1.386 . S
C426 C428 1.391 . S
C427 C426 1.386 . S
C427 C431 1.393 . S
C428 H417 0.950 . S
C428 C426 1.391 . S
C428 C429 1.400 . S
C429 C423 1.491 . S
C429 C428 1.400 . S
C429 C430 1.398 . S
C430 H418 0.950 . S
C430 C429 1.398 . S
C430 C431 1.391 . S
C431 H419 0.950 . S
C431 C427 1.393 . S
C431 C430 1.391 . S
H432 C440 0.950 . S
H433 C445 0.950 . S
H434 C442 0.950 . S
H435 C444 0.950 . S
H436 C446 0.950 . S
H437 C448 0.950 . S
H438 C450 0.950 . S
H439 C451 0.950 . S
C440 H432 0.950 . S
C440 C441 1.386 . S
C440 C442 1.391 . S
C441 C440 1.386 . S
C441 C445 1.393 . S
C442 H434 0.950 . S
C442 C440 1.391 . S
C442 C443 1.400 . S
C443 C442 1.400 . S
C443 C444 1.398 . S
C443 C449 1.491 . S
C444 H435 0.950 . S
C444 C443 1.398 . S
C444 C445 1.391 . S
C445 H433 0.950 . S
C445 C441 1.393 . S
C445 C444 1.391 . S
C446 H436 0.950 . S
C446 C447 1.386 . S
C446 C448 1.391 . S
C447 C446 1.386 . S
C447 C451 1.393 . S
C448 H437 0.950 . S
C448 C446 1.391 . S
C448 C449 1.400 . S
C449 C443 1.491 . S
C449 C448 1.400 . S
C449 C450 1.398 . S
C450 H438 0.950 . S
C450 C449 1.398 . S
C450 C451 1.391 . S
C451 H439 0.950 . S
C451 C447 1.393 . S
C451 C450 1.391 . S
H452 C460 0.950 . S
H453 C465 0.950 . S
H454 C462 0.950 . S
H455 C464 0.950 . S
H456 C466 0.950 . S
H457 C468 0.950 . S
H458 C470 0.950 . S
H459 C471 0.950 . S
C460 H452 0.950 . S
C460 C461 1.386 . S
C460 C462 1.391 . S
C461 C460 1.386 . S
C461 C465 1.393 . S
C462 H454 0.950 . S
C462 C460 1.391 . S
C462 C463 1.400 . S
C463 C462 1.400 . S
C463 C464 1.398 . S
C463 C469 1.491 . S
C464 H455 0.950 . S
C464 C463 1.398 . S
C464 C465 1.391 . S
C465 H453 0.950 . S
C465 C461 1.393 . S
C465 C464 1.391 . S
C466 H456 0.950 . S
C466 C467 1.386 . S
C466 C468 1.391 . S
C467 C466 1.386 . S
C467 C471 1.393 . S
C468 H457 0.950 . S
C468 C466 1.391 . S
C468 C469 1.400 . S
C469 C463 1.491 . S
C469 C468 1.400 . S
C469 C470 1.398 . S
C470 H458 0.950 . S
C470 C469 1.398 . S
C470 C471 1.391 . S
C471 H459 0.950 . S
C471 C467 1.393 . S
C471 C470 1.391 . S
H472 C480 0.950 . S
H473 C485 0.950 . S
H474 C482 0.950 . S
H475 C484 0.950 . S
H476 C486 0.950 . S
H477 C488 0.950 . S
H478 C490 0.950 . S
H479 C491 0.950 . S
C480 H472 0.950 . S
C480 C481 1.386 . S
C480 C482 1.391 . S
C481 C480 1.386 . S
C481 C485 1.393 . S
C482 H474 0.950 . S
C482 C480 1.391 . S
C482 C483 1.400 . S
C483 C482 1.400 . S
C483 C484 1.398 . S
C483 C489 1.491 . S
C484 H475 0.950 . S
C484 C483 1.398 . S
C484 C485 1.391 . S
C485 H473 0.950 . S
C485 C481 1.393 . S
C485 C484 1.391 . S
C486 H476 0.950 . S
C486 C487 1.386 . S
C486 C488 1.391 . S
C487 C486 1.386 . S
C487 C491 1.393 . S
C488 H477 0.950 . S
C488 C486 1.391 . S
C488 C489 1.400 . S
C489 C483 1.491 . S
C489 C488 1.400 . S
C489 C490 1.398 . S
C490 H478 0.950 . S
C490 C489 1.398 . S
C490 C491 1.391 . S
C491 H479 0.950 . S
C491 C487 1.393 . S
C491 C490 1.391 . S
H492 C500 0.952 . S
H493 C505 0.950 . S
H494 C502 0.950 . S
H495 C504 0.950 . S
H496 C506 0.950 . S
H497 C508 0.950 . S
H498 C510 0.950 . S
H499 C511 0.950 . S
C500 H492 0.952 . S
C500 C501 1.387 . S
C500 C502 1.388 1_554 S
C501 C500 1.387 . S
C501 C505 1.393 1_554 S
C502 H494 0.950 . S
C502 C500 1.388 1_556 S
C502 C503 1.400 . S
C503 C502 1.400 . S
C503 C504 1.398 . S
C503 C509 1.491 . S
C504 H495 0.950 . S
C504 C503 1.398 . S
C504 C505 1.391 . S
C505 H493 0.950 . S
C505 C501 1.393 1_556 S
C505 C504 1.391 . S
C506 H496 0.950 . S
C506 C507 1.386 . S
C506 C508 1.391 . S
C507 C506 1.386 . S
C507 C511 1.393 . S
C508 H497 0.950 . S
C508 C506 1.391 . S
C508 C509 1.400 . S
C509 C503 1.491 . S
C509 C508 1.400 . S
C509 C510 1.398 . S
C510 H498 0.950 . S
C510 C509 1.398 . S
C510 C511 1.391 . S
C511 H499 0.950 . S
C511 C507 1.393 . S
C511 C510 1.391 . S
H512 C520 0.950 . S
H513 C525 0.950 . S
H514 C522 0.950 . S
H515 C524 0.950 . S
H516 C526 0.950 . S
H517 C528 0.950 . S
H518 C530 0.950 . S
H519 C531 0.950 . S
C520 H512 0.950 . S
C520 C521 1.386 . S
C520 C522 1.391 . S
C521 C520 1.386 . S
C521 C525 1.393 . S
C522 H514 0.950 . S
C522 C520 1.391 . S
C522 C523 1.400 . S
C523 C522 1.400 . S
C523 C524 1.398 . S
C523 C529 1.491 . S
C524 H515 0.950 . S
C524 C523 1.398 . S
C524 C525 1.391 . S
C525 H513 0.950 . S
C525 C521 1.393 . S
C525 C524 1.391 . S
C526 H516 0.950 . S
C526 C527 1.386 1_554 S
C526 C528 1.391 . S
C527 C526 1.386 1_556 S
C527 C531 1.393 . S
C528 H517 0.950 . S
C528 C526 1.391 . S
C528 C529 1.400 . S
C529 C523 1.491 . S
C529 C528 1.400 . S
C529 C530 1.398 1_554 S
C530 H518 0.950 . S
C530 C529 1.398 1_556 S
C530 C531 1.391 . S
C531 H519 0.950 . S
C531 C527 1.393 . S
C531 C530 1.391 . S
H532 C540 0.950 . S
H533 C545 0.950 . S
H534 C542 0.950 . S
H535 C544 0.950 . S
H536 C546 0.950 . S
H537 C548 0.950 . S
H538 C550 0.950 . S
H539 C551 0.950 . S
C540 H532 0.950 . S
C540 C541 1.386 . S
C540 C542 1.391 . S
C541 C540 1.386 . S
C541 C545 1.393 . S
C542 H534 0.950 . S
C542 C540 1.391 . S
C542 C543 1.400 . S
C543 C542 1.400 . S
C543 C544 1.398 . S
C543 C549 1.491 . S
C544 H535 0.950 . S
C544 C543 1.398 . S
C544 C545 1.391 . S
C545 H533 0.950 . S
C545 C541 1.393 . S
C545 C544 1.391 . S
C546 H536 0.950 . S
C546 C547 1.386 . S
C546 C548 1.391 . S
C547 C546 1.386 . S
C547 C551 1.393 . S
C548 H537 0.950 . S
C548 C546 1.391 . S
C548 C549 1.400 . S
C549 C543 1.491 . S
C549 C548 1.400 . S
C549 C550 1.398 . S
C550 H538 0.950 . S
C550 C549 1.398 . S
C550 C551 1.391 . S
C551 H539 0.950 . S
C551 C547 1.393 . S
C551 C550 1.391 . S
C201 C29 1.011 . S
C207 C2 1.017 . S
C221 C61 1.020 . S
C227 C34 1.021 . S
C241 C66 1.015 . S
C247 C93 1.013 . S
C261 C98 1.010 . S
C267 C125 1.002 . S
C281 C134 1.010 . S
C287 C132 1.002 1_556 S
C301 C189 1.002 . S
C307 C162 1.009 . S
C321 C4 1.514 . S
C327 N178 1.475 . S
C341 N18 1.500 . S
C347 C36 1.493 . S
C361 C68 1.493 . S
C367 N50 1.498 . S
C381 C100 1.517 . S
C387 N82 1.487 . S
C401 C157 1.497 . S
C407 N114 1.505 . S
C421 N141 1.492 . S
C427 C164 1.496 . S
C441 C6 1.890 . S
C447 N146 1.800 . S
C461 C38 1.881 . S
C467 N173 1.774 . S
C481 C70 1.890 . S
C487 N13 1.791 . S
C501 C102 1.881 . S
C507 N45 1.773 . S
C521 C130 1.892 . S
C527 N77 1.801 . S
C541 N109 1.791 . S
C547 C166 1.890 . S
