# Generated by pormake.
# Topology smm, (6)-cn, num edge types: 1
# Building blocks:
#     Node 0, Type 0, BuildingBlock: INOVEN_clean_sbu_0, # of connection points: 6
#     Node 1, Type 0, BuildingBlock: INOVEN_clean_sbu_0, # of connection points: 6
#     Node 2, Type 0, BuildingBlock: INOVEN_clean_sbu_0, # of connection points: 6
#     Node 3, Type 0, BuildingBlock: INOVEN_clean_sbu_0, # of connection points: 6
#     Node 4, Type 0, BuildingBlock: INOVEN_clean_sbu_0, # of connection points: 6
#     Node 5, Type 0, BuildingBlock: INOVEN_clean_sbu_0, # of connection points: 6
#     Node 6, Type 0, BuildingBlock: INOVEN_clean_sbu_0, # of connection points: 6
#     Node 7, Type 0, BuildingBlock: INOVEN_clean_sbu_0, # of connection points: 6
#     Node 8, Type 0, BuildingBlock: INOVEN_clean_sbu_0, # of connection points: 6
#     Edge 9, Type (0, 0), BuildingBlock: AJUNOK_clean_linker_0, # of connection points: 2
#     Edge 10, Type (0, 0), BuildingBlock: AJUNOK_clean_linker_0, # of connection points: 2
#     Edge 11, Type (0, 0), BuildingBlock: AJUNOK_clean_linker_0, # of connection points: 2
#     Edge 12, Type (0, 0), BuildingBlock: AJUNOK_clean_linker_0, # of connection points: 2
#     Edge 13, Type (0, 0), BuildingBlock: AJUNOK_clean_linker_0, # of connection points: 2
#     Edge 14, Type (0, 0), BuildingBlock: AJUNOK_clean_linker_0, # of connection points: 2
#     Edge 15, Type (0, 0), BuildingBlock: AJUNOK_clean_linker_0, # of connection points: 2
#     Edge 16, Type (0, 0), BuildingBlock: AJUNOK_clean_linker_0, # of connection points: 2
#     Edge 17, Type (0, 0), BuildingBlock: AJUNOK_clean_linker_0, # of connection points: 2
#     Edge 18, Type (0, 0), BuildingBlock: AJUNOK_clean_linker_0, # of connection points: 2
#     Edge 19, Type (0, 0), BuildingBlock: AJUNOK_clean_linker_0, # of connection points: 2
#     Edge 20, Type (0, 0), BuildingBlock: AJUNOK_clean_linker_0, # of connection points: 2
#     Edge 21, Type (0, 0), BuildingBlock: AJUNOK_clean_linker_0, # of connection points: 2
#     Edge 22, Type (0, 0), BuildingBlock: AJUNOK_clean_linker_0, # of connection points: 2
#     Edge 23, Type (0, 0), BuildingBlock: AJUNOK_clean_linker_0, # of connection points: 2
#     Edge 24, Type (0, 0), BuildingBlock: AJUNOK_clean_linker_0, # of connection points: 2
#     Edge 25, Type (0, 0), BuildingBlock: AJUNOK_clean_linker_0, # of connection points: 2
#     Edge 26, Type (0, 0), BuildingBlock: AJUNOK_clean_linker_0, # of connection points: 2
#     Edge 27, Type (0, 0), BuildingBlock: AJUNOK_clean_linker_0, # of connection points: 2
#     Edge 28, Type (0, 0), BuildingBlock: AJUNOK_clean_linker_0, # of connection points: 2
#     Edge 29, Type (0, 0), BuildingBlock: AJUNOK_clean_linker_0, # of connection points: 2
#     Edge 30, Type (0, 0), BuildingBlock: AJUNOK_clean_linker_0, # of connection points: 2
#     Edge 31, Type (0, 0), BuildingBlock: AJUNOK_clean_linker_0, # of connection points: 2
#     Edge 32, Type (0, 0), BuildingBlock: AJUNOK_clean_linker_0, # of connection points: 2
#     Edge 33, Type (0, 0), BuildingBlock: AJUNOK_clean_linker_0, # of connection points: 2
#     Edge 34, Type (0, 0), BuildingBlock: AJUNOK_clean_linker_0, # of connection points: 2
#     Edge 35, Type (0, 0), BuildingBlock: AJUNOK_clean_linker_0, # of connection points: 2
# Relax obj value: 0.039
# Max RMSD: 0.118
# Mean RMSD: 0.118
data_MOF--net-smm--node1-INOVEN_clean_sbu_0--edge1-AJUNOK_clean_linker_0
_symmetry_space_group_name_H-M    P1
_symmetry_Int_Tables_number       1
_symmetry_cell_setting            triclinic
loop_
_symmetry_equiv_pos_as_xyz
'x, y, z'
_cell_length_a     56.857268
_cell_length_b     56.849555
_cell_length_c     10.356228
_cell_angle_alpha  90.045411
_cell_angle_beta   89.905798
_cell_angle_gamma 119.94928
loop_
_atom_site_label
_atom_site_type_symbol
_atom_site_fract_x
_atom_site_fract_y
_atom_site_fract_z
_atom_type_partial_charge
Gd0 Gd 0.07764 0.23277 -0.01106 0.0
Gd1 Gd 1.02627 0.17823 0.03373 0.0
C2 C 1.01971 0.23093 0.03017 0.0
C3 C 0.11372 0.27878 0.89093 0.0
C4 C 0.12028 0.30726 0.86942 0.0
C5 C 0.13346 0.32716 0.96509 0.0
C6 C 0.11616 0.31538 0.74717 0.0
C7 C 0.13961 0.36276 0.81447 0.0
C8 C 0.12565 0.34281 0.72008 0.0
C9 C 0.14299 0.35458 0.93788 0.0
C10 C 0.06593 0.21791 0.23956 0.0
C11 C 0.08527 0.18118 0.01487 0.0
C12 C 0.98957 0.13094 0.11622 0.0
C13 C 0.98059 0.1019 0.09483 0.0
C14 C 0.97302 0.09001 0.97163 0.0
C15 C 0.9782 0.08542 0.20067 0.0
C16 C 0.95931 0.04544 0.06229 0.0
C17 C 0.96779 0.05749 0.18453 0.0
C18 C 0.96247 0.06207 0.95565 0.0
C19 C 1.03817 0.19254 0.78303 0.0
O20 O 0.04448 0.24407 0.98032 0.0
O21 O 1.00948 0.20586 0.07427 0.0
O22 O 0.11503 0.27121 0.00894 0.0
O23 O 0.09362 0.25978 0.82443 0.0
O24 O 0.09055 0.23186 0.19525 0.0
O25 O 0.04923 0.21456 0.1521 0.0
O26 O 0.05966 0.16766 0.05358 0.0
O27 O 0.09621 0.20621 0.96947 0.0
O28 O 0.98555 0.14393 0.02234 0.0
O29 O 1.0129 0.14561 0.17437 0.0
O30 O 1.01371 0.17873 0.828 0.0
O31 O 0.05494 0.19608 0.87056 0.0
H32 H 0.13724 0.32173 0.0599 0.0
H33 H 0.10647 0.30063 0.67065 0.0
H34 H 0.12316 0.3485 0.62345 0.0
H35 H 0.1536 0.36951 0.01267 0.0
H36 H 0.97483 0.10219 0.8878 0.0
H37 H 0.98387 0.09407 0.29657 0.0
H38 H 0.9656 0.04517 0.26837 0.0
H39 H 0.95661 0.0534 0.8599 0.0
Gd40 Gd 0.85836 0.86754 -0.00627 0.0
Gd41 Gd 0.91381 0.87263 0.0388 0.0
C42 C 0.86209 0.81251 0.0353 0.0
C43 C 0.81318 0.85888 0.89152 0.0
C44 C 0.78414 0.83967 0.87054 0.0
C45 C 0.76731 0.85025 0.83905 0.0
C46 C 0.77313 0.81139 0.8751 0.0
C47 C 0.72861 0.80466 0.81559 0.0
C48 C 0.7455 0.79398 0.84801 0.0
C49 C 0.7399 0.83299 0.81183 0.0
C50 C 0.8731 0.87098 0.24484 0.0
C51 C 0.9091 0.92746 0.02023 0.0
C52 C 0.96143 0.88393 0.11951 0.0
C53 C 0.99044 0.90416 0.097 0.0
C54 C 1.00365 0.90436 0.98156 0.0
C55 C 1.00565 0.92254 0.1953 0.0
C56 C 0.04669 0.94057 0.0643 0.0
C57 C 1.03346 0.94059 0.17907 0.0
C58 C 1.03147 0.92233 0.96563 0.0
C59 C 0.89944 0.8699 0.78786 0.0
O60 O 0.84783 0.82322 -0.0119 0.0
O61 O 0.8871 0.82812 0.07839 0.0
O62 O 0.8209 0.86886 0.00772 0.0
O63 O 0.83066 0.85402 0.83196 0.0
O64 O 0.8582 0.88061 0.20091 0.0
O65 O 0.87723 0.85822 0.15694 0.0
O66 O 0.92307 0.9161 0.06232 0.0
O67 O 0.88455 0.91266 0.971 0.0
O68 O 0.94843 0.86667 0.02656 0.0
O69 O 0.94657 0.8924 0.17795 0.0
O70 O 0.91394 0.86001 0.83246 0.0
O71 O 0.89529 0.88266 0.87584 0.0
H72 H 0.77549 0.87202 0.83405 0.0
H73 H 0.78585 0.80283 0.89913 0.0
H74 H 0.7373 0.77225 0.85393 0.0
H75 H 0.72753 0.84187 0.78639 0.0
H76 H 0.99263 0.8904 0.90394 0.0
H77 H 0.99613 0.92261 0.28589 0.0
H78 H 0.04476 0.95405 0.25781 0.0
H79 H 1.04114 0.92189 0.87614 0.0
Gd80 Gd 0.22351 1.01566 -0.00901 0.0
Gd81 Gd 0.22084 0.06726 0.03621 0.0
C82 C 0.27973 0.07329 0.03624 0.0
C83 C 0.23304 0.97955 0.88924 0.0
C84 C 0.25432 0.97202 0.86956 0.0
C85 C 0.26204 0.96059 0.96973 0.0
C86 C 0.26502 0.9736 0.74521 0.0
C87 C 0.28894 0.95061 0.81923 0.0
C88 C 0.28228 0.96316 0.72046 0.0
C89 C 0.27922 0.95007 0.9448 0.0
C90 C 0.21985 1.02656 0.24164 0.0
C91 C 0.16453 1.00872 0.02058 0.0
C92 C 0.21166 0.10506 0.11774 0.0
C93 C 0.19173 0.11415 0.1016 0.0
C94 C 0.16921 0.10042 0.01982 0.0
C95 C 0.19576 0.13743 0.16714 0.0
C96 C 0.15513 0.13359 0.06852 0.0
C97 C 0.17768 0.1471 0.15063 0.0
C98 C 0.15099 0.11005 0.00354 0.0
C99 C 0.22244 0.05446 0.7851 0.0
O100 O 0.2681 0.04859 0.98547 0.0
O101 O 0.2649 0.08353 0.0804 0.0
O102 O 0.22308 0.97742 0.00563 0.0
O103 O 0.23568 1.00069 0.82606 0.0
O104 O 0.20949 1.00212 0.19537 0.0
O105 O 0.23356 0.04375 0.15601 0.0
O106 O 0.17689 0.03432 0.05961 0.0
O107 O 0.17837 0.99763 0.9733 0.0
O108 O 0.22676 0.10779 0.01716 0.0
O109 O 0.20338 0.08209 0.17875 0.0
O110 O 0.23417 0.07914 0.82828 0.0
O111 O 0.20934 0.03831 0.87467 0.0
H112 H 0.25418 0.95899 0.06662 0.0
H113 H 0.25925 0.98206 0.66577 0.0
H114 H 0.28945 0.96382 0.62281 0.0
H115 H 0.28442 0.94092 0.02328 0.0
H116 H 0.16591 0.0825 0.96771 0.0
H117 H 0.21305 0.14828 0.23056 0.0
H118 H 0.1813 0.16517 0.20245 0.0
H119 H 0.13402 0.09943 0.93823 0.0
Gd120 Gd 0.74377 0.56768 0.33804 0.0
Gd121 Gd 0.69242 0.51296 0.38237 0.0
C122 C 0.68573 0.56556 0.37698 0.0
C123 C 0.78125 0.61298 0.24019 0.0
C124 C 0.789 0.64085 0.20068 0.0
C125 C 0.77998 0.65653 0.26653 0.0
C126 C 0.80731 0.65249 0.09789 0.0
C127 C 0.80954 0.69585 0.1337 0.0
C128 C 0.81746 0.67966 0.06459 0.0
C129 C 0.79012 0.68386 0.23278 0.0
C130 C 0.73204 0.55239 0.58811 0.0
C131 C 0.75143 0.51593 0.36683 0.0
C132 C 0.65551 0.46578 0.46494 0.0
C133 C 0.64646 0.43674 0.444 0.0
C134 C 0.64134 0.42536 0.31945 0.0
C135 C 0.64167 0.4198 0.55108 0.0
C136 C 0.62527 0.38034 0.41045 0.0
C137 C 0.6313 0.3919 0.53452 0.0
C138 C 0.63081 0.39742 0.30294 0.0
C139 C 0.70437 0.52735 0.13188 0.0
O140 O 0.71039 0.57877 0.32547 0.0
O141 O 0.67588 0.5407 0.42302 0.0
O142 O 0.77917 0.60748 0.36384 0.0
O143 O 0.76297 0.59304 0.17045 0.0
O144 O 0.75668 0.5661 0.54357 0.0
O145 O 0.71535 0.54925 0.50095 0.0
O146 O 0.7256 0.5022 0.40182 0.0
O147 O 0.76267 0.54123 0.3247 0.0
O148 O 0.65166 0.47874 0.37032 0.0
O149 O 0.67881 0.4804 0.52344 0.0
O150 O 0.67989 0.51347 0.17665 0.0
O151 O 0.72113 0.53095 0.21961 0.0
H152 H 0.7657 0.64788 0.34574 0.0
H153 H 0.81438 0.6407 0.04533 0.0
H154 H 0.83202 0.68824 0.98642 0.0
H155 H 0.78363 0.6959 0.28725 0.0
H156 H 0.64509 0.43795 0.23486 0.0
H157 H 0.64548 0.4281 0.64797 0.0
H158 H 0.62725 0.37923 0.61906 0.0
H159 H 0.62689 0.38915 0.20605 0.0
Gd160 Gd 0.52547 0.20247 0.33631 0.0
Gd161 Gd 0.58091 0.20784 0.38099 0.0
C162 C 0.52977 0.14782 0.38032 0.0
C163 C 0.47954 0.19179 0.23479 0.0
C164 C 0.45106 0.17015 0.21198 0.0
C165 C 0.43101 0.16327 0.30722 0.0
C166 C 0.44312 0.15846 0.08856 0.0
C167 C 0.39564 0.1346 0.15416 0.0
C168 C 0.41573 0.14082 0.06005 0.0
C169 C 0.40362 0.14569 0.27855 0.0
C170 C 0.54029 0.2069 0.58678 0.0
C171 C 0.57567 0.26252 0.36527 0.0
C172 C 0.62871 0.21938 0.45985 0.0
C173 C 0.65767 0.23927 0.43592 0.0
C174 C 0.66915 0.2432 0.31183 0.0
C175 C 0.67452 0.25348 0.54045 0.0
C176 C 0.71405 0.27399 0.39898 0.0
C177 C 0.70241 0.27077 0.52213 0.0
C178 C 0.69706 0.26038 0.29366 0.0
C179 C 0.56647 0.20578 0.12973 0.0
O180 O 0.51565 0.1584 0.33029 0.0
O181 O 0.55453 0.16354 0.42575 0.0
O182 O 0.48677 0.20105 0.35254 0.0
O183 O 0.49863 0.19023 0.17099 0.0
O184 O 0.52544 0.21638 0.54047 0.0
O185 O 0.54449 0.19363 0.50135 0.0
O186 O 0.58984 0.25122 0.40573 0.0
O187 O 0.55101 0.24771 0.31716 0.0
O188 O 0.6155 0.20185 0.36811 0.0
O189 O 0.61414 0.22828 0.51745 0.0
O190 O 0.58059 0.19529 0.17248 0.0
O191 O 0.56248 0.21818 0.21962 0.0
H192 H 0.43631 0.1721 0.40285 0.0
H193 H 0.45801 0.16373 0.01235 0.0
H194 H 0.41018 0.13301 0.96272 0.0
H195 H 0.38856 0.14121 0.35305 0.0
H196 H 0.65668 0.23269 0.22904 0.0
H197 H 0.66618 0.25075 0.63702 0.0
H198 H 0.71502 0.281 0.60499 0.0
H199 H 0.70542 0.26288 0.19729 0.0
Gd200 Gd 0.8915 0.34938 0.32382 0.0
Gd201 Gd 0.88725 0.40023 0.3688 0.0
C202 C 0.94693 0.40769 0.36424 0.0
C203 C 0.90164 0.31337 0.22596 0.0
C204 C 0.92322 0.30632 0.20432 0.0
C205 C 0.92903 0.29214 0.29846 0.0
C206 C 0.93588 0.31083 0.0828 0.0
C207 C 0.95851 0.28593 0.14779 0.0
C208 C 0.95336 0.3008 0.05494 0.0
C209 C 0.94649 0.28209 0.27049 0.0
C210 C 0.88808 0.36092 0.57458 0.0
C211 C 0.83193 0.34075 0.35036 0.0
C212 C 0.87623 0.43684 0.4497 0.0
C213 C 0.856 0.44578 0.42964 0.0
C214 C 0.85636 0.45993 0.31747 0.0
C215 C 0.8372 0.44178 0.52752 0.0
C216 C 0.8198 0.46612 0.40246 0.0
C217 C 0.81927 0.45177 0.51402 0.0
C218 C 0.83849 0.47001 0.30424 0.0
C219 C 0.88994 0.38843 0.11805 0.0
O220 O 0.93568 0.38297 0.31419 0.0
O221 O 0.93176 0.41754 0.40885 0.0
O222 O 0.89256 0.31195 0.34375 0.0
O223 O 0.90311 0.33371 0.15994 0.0
O224 O 0.87779 0.33634 0.53034 0.0
O225 O 0.9012 0.37771 0.48696 0.0
O226 O 0.84357 0.36624 0.3909 0.0
O227 O 0.84646 0.3305 0.30258 0.0
O228 O 0.89305 0.44075 0.35493 0.0
O229 O 0.86801 0.41369 0.50922 0.0
O230 O 0.90027 0.41286 0.1629 0.0
O231 O 0.8769 0.3716 0.20577 0.0
H232 H 0.91943 0.288 0.39255 0.0
H233 H 0.93148 0.32124 0.0073 0.0
H234 H 0.96188 0.30366 0.95878 0.0
H235 H 0.95015 0.27078 0.34414 0.0
H236 H 0.87069 0.46361 0.24041 0.0
H237 H 0.83671 0.43134 0.61587 0.0
H238 H 0.80548 0.44893 0.59254 0.0
H239 H 0.83935 0.48096 0.21717 0.0
Gd240 Gd 0.41051 0.90147 0.6602 0.0
Gd241 Gd 0.36086 0.84561 0.7047 0.0
C242 C 0.35151 0.89667 0.70795 0.0
C243 C 0.44669 0.94687 0.55789 0.0
C244 C 0.45535 0.97529 0.52578 0.0
C245 C 0.44737 0.99099 0.59867 0.0
C246 C 0.47338 0.9873 0.42231 0.0
C247 C 0.47711 0.03093 0.46981 0.0
C248 C 0.48415 1.01482 0.39451 0.0
C249 C 0.45812 1.01866 0.57037 0.0
C250 C 0.40034 0.88616 0.91032 0.0
C251 C 0.42097 0.85142 0.6887 0.0
C252 C 0.32475 0.79761 0.78242 0.0
C253 C 0.31604 0.76863 0.75921 0.0
C254 C 0.30297 0.75551 0.64393 0.0
C255 C 0.31913 0.75331 0.85722 0.0
C256 C 0.29584 0.7123 0.72656 0.0
C257 C 0.3092 0.72547 0.84103 0.0
C258 C 0.29294 0.72764 0.62803 0.0
C259 C 0.37316 0.86044 0.45381 0.0
O260 O 0.37591 0.91087 0.65451 0.0
O261 O 0.34299 0.87194 0.75307 0.0
O262 O 0.44699 0.94065 0.67938 0.0
O263 O 0.42633 0.92785 0.49295 0.0
O264 O 0.4246 0.90124 0.86369 0.0
O265 O 0.38283 0.88194 0.82543 0.0
O266 O 0.3954 0.83675 0.727 0.0
O267 O 0.43063 0.87625 0.64278 0.0
O268 O 0.32049 0.81077 0.69015 0.0
O269 O 0.34799 0.81241 0.84129 0.0
O270 O 0.34857 0.8462 0.49679 0.0
O271 O 0.38957 0.86447 0.54339 0.0
H272 H 0.43337 0.98204 0.6787 0.0
H273 H 0.47966 0.97548 0.36454 0.0
H274 H 0.49838 1.02365 0.31519 0.0
H275 H 0.45232 0.03066 0.62961 0.0
H276 H 0.30007 0.76661 0.56659 0.0
H277 H 0.32875 0.76277 0.94773 0.0
H278 H 0.31126 0.71409 0.91969 0.0
H279 H 0.28276 0.71802 0.53877 0.0
Gd280 Gd 0.19284 0.53545 0.65991 0.0
Gd281 Gd 0.24702 0.53782 0.70336 0.0
C282 C 0.19411 0.47895 0.70018 0.0
C283 C 0.14707 0.52647 0.56287 0.0
C284 C 0.11846 0.5051 0.53969 0.0
C285 C 0.09835 0.49887 0.63395 0.0
C286 C 0.11049 0.49297 0.4171 0.0
C287 C 0.06293 0.46989 0.48172 0.0
C288 C 0.08306 0.47553 0.38853 0.0
C289 C 0.07092 0.48145 0.60526 0.0
C290 C 0.20773 0.53847 0.9101 0.0
C291 C 0.24498 0.59429 0.68603 0.0
C292 C 0.29441 0.54811 0.78264 0.0
C293 C 0.3234 0.56865 0.76136 0.0
C294 C 0.33737 0.56775 0.65082 0.0
C295 C 0.33782 0.58849 0.8557 0.0
C296 C 0.37957 0.60577 0.73055 0.0
C297 C 0.36558 0.60687 0.84042 0.0
C298 C 0.36511 0.58609 0.63572 0.0
C299 C 0.23258 0.53547 0.4532 0.0
O300 O 0.18106 0.49078 0.65126 0.0
O301 O 0.21922 0.49358 0.74367 0.0
O302 O 0.15457 0.5348 0.68159 0.0
O303 O 0.16595 0.52523 0.49561 0.0
O304 O 0.19411 0.54952 0.8661 0.0
O305 O 0.21082 0.52492 0.82253 0.0
O306 O 0.25811 0.58181 0.72448 0.0
O307 O 0.21993 0.58055 0.64073 0.0
O308 O 0.28146 0.5316 0.68709 0.0
O309 O 0.27946 0.556 0.84476 0.0
O310 O 0.24596 0.52435 0.49788 0.0
O311 O 0.2294 0.54898 0.54079 0.0
H312 H 0.10368 0.50806 0.72885 0.0
H313 H 0.12539 0.49771 0.3415 0.0
H314 H 0.07754 0.46738 0.29175 0.0
H315 H 0.05586 0.47741 0.67918 0.0
H316 H 0.327 0.55264 0.57648 0.0
H317 H 0.32775 0.58949 0.94268 0.0
H318 H 0.37626 0.62142 0.9165 0.0
H319 H 0.37533 0.58479 0.54992 0.0
Gd320 Gd 0.55658 0.6823 0.65987 0.0
Gd321 Gd 0.55338 0.73375 0.70561 0.0
C322 C 0.61246 0.73985 0.70736 0.0
C323 C 0.56431 0.64526 0.55506 0.0
C324 C 0.58379 0.63594 0.52858 0.0
C325 C 0.57411 0.61055 0.47004 0.0
C326 C 0.61153 0.65169 0.55791 0.0
C327 C 0.61948 0.61621 0.47178 0.0
C328 C 0.62929 0.64189 0.5296 0.0
C329 C 0.59171 0.60077 0.44205 0.0
C330 C 0.55262 0.69306 0.91068 0.0
C331 C 0.49736 0.67512 0.69052 0.0
C332 C 0.54458 0.77176 0.78798 0.0
C333 C 0.52555 0.78199 0.77143 0.0
C334 C 0.50194 0.76806 0.69657 0.0
C335 C 0.53153 0.80655 0.83032 0.0
C336 C 0.49087 0.80371 0.73752 0.0
C337 C 0.51437 0.81731 0.81365 0.0
C338 C 0.48459 0.77876 0.68048 0.0
C339 C 0.55504 0.72099 0.4543 0.0
O340 O 0.60121 0.71531 0.65487 0.0
O341 O 0.59731 0.7497 0.75203 0.0
O342 O 0.55606 0.64394 0.67434 0.0
O343 O 0.56795 0.66698 0.49389 0.0
O344 O 0.54259 0.66866 0.86442 0.0
O345 O 0.56621 0.71029 0.82506 0.0
O346 O 0.50947 0.70074 0.72913 0.0
O347 O 0.5114 0.66421 0.64359 0.0
O348 O 0.56019 0.77467 0.68929 0.0
O349 O 0.53528 0.74831 0.84599 0.0
O350 O 0.56647 0.74567 0.49733 0.0
O351 O 0.54214 0.70482 0.54412 0.0
H352 H 0.5528 0.59818 0.44594 0.0
H353 H 0.61933 0.67135 0.60337 0.0
H354 H 0.6505 0.65409 0.55547 0.0
H355 H 0.58355 0.58103 0.39686 0.0
H356 H 0.49709 0.74912 0.64985 0.0
H357 H 0.54961 0.81753 0.8888 0.0
H358 H 0.51944 0.83629 0.86072 0.0
H359 H 0.46658 0.76784 0.62153 0.0
C360 C 0.18015 0.40946 0.8127 0.0
C361 C 0.15268 0.39217 0.7819 0.0
C362 C 0.19332 0.4372 0.78312 0.0
C363 C 0.17961 0.44901 0.72172 0.0
H364 H 0.19171 0.40145 0.85944 0.0
H365 H 0.21446 0.44946 0.81014 0.0
S366 S 0.10716 0.41243 0.62179 0.0
N367 N 0.11198 0.38869 0.68726 0.0
N368 N 0.13665 0.44086 0.63101 0.0
C369 C 0.15207 0.43186 0.68943 0.0
C370 C 0.13866 0.40347 0.71948 0.0
C371 C 0.68028 0.79265 0.84727 0.0
C372 C 0.69911 0.78678 0.78889 0.0
C373 C 0.65254 0.77743 0.81947 0.0
C374 C 0.64222 0.7555 0.73215 0.0
H375 H 0.68705 0.80923 0.91554 0.0
H376 H 0.63908 0.78293 0.86804 0.0
S377 S 0.68306 0.73189 0.55128 0.0
N378 N 0.70561 0.75768 0.63822 0.0
N379 N 0.65329 0.72878 0.58663 0.0
C380 C 0.66078 0.74918 0.67366 0.0
C381 C 0.68921 0.76483 0.702 0.0
C382 C 0.32942 0.95005 0.72317 0.0
C383 C 0.30452 0.93657 0.78968 0.0
C384 C 0.34431 0.93696 0.69545 0.0
C385 C 0.33474 0.90976 0.73196 0.0
H386 H 0.33766 0.97103 0.69413 0.0
H387 H 0.3636 0.9484 0.64608 0.0
S388 S 0.2693 0.86488 0.89903 0.0
N389 N 0.27016 0.8942 0.88477 0.0
N390 N 0.29775 0.86951 0.8332 0.0
C391 C 0.30943 0.89591 0.79583 0.0
C392 C 0.29446 0.90932 0.82459 0.0
C393 C 0.34898 0.12858 0.15154 0.0
C394 C 0.36632 0.11843 0.12054 0.0
C395 C 0.3213 0.1141 0.12111 0.0
C396 C 0.30961 0.08868 0.0588 0.0
H397 H 0.35693 0.14807 0.1991 0.0
H398 H 0.30898 0.12294 0.14815 0.0
S399 S 0.34638 0.05295 0.95774 0.0
N400 N 0.37 0.08139 0.02446 0.0
N401 N 0.31792 0.05402 0.96681 0.0
C402 C 0.32682 0.07833 0.02622 0.0
C403 C 0.35514 0.09323 0.05704 0.0
C404 C 0.96414 0.24498 0.1426 0.0
C405 C 0.97464 0.27264 0.11434 0.0
C406 C 0.97859 0.23169 0.11216 0.0
C407 C 1.00429 0.24546 0.05234 0.0
H408 H 0.94442 0.23339 0.18805 0.0
H409 H 0.96951 0.21042 0.13722 0.0
S410 S 1.04105 0.3184 0.95963 0.0
N411 N 1.01238 0.31357 0.02417 0.0
N412 N 1.03962 0.28869 0.96604 0.0
C413 C 1.01498 0.27319 0.02255 0.0
C414 C 1.00015 0.28672 0.05361 0.0
C415 C 0.82044 0.76607 0.05168 0.0
C416 C 0.84895 0.7826 0.05479 0.0
C417 C 0.8077 0.73808 0.0784 0.0
C418 C 0.823 0.7255 0.10724 0.0
H419 H 0.80779 0.77487 0.03079 0.0
H420 H 0.78574 0.72615 0.07553 0.0
S421 S 0.89804 0.7593 0.12851 0.0
N422 N 0.89196 0.7839 0.08942 0.0
N423 N 0.868 0.73161 0.13932 0.0
C424 C 0.85143 0.74169 0.10996 0.0
C425 C 0.86439 0.77011 0.08379 0.0
C426 C 1.01609 0.46361 0.47821 0.0
C427 C 1.03358 0.45358 0.44811 0.0
C428 C 0.98838 0.44893 0.44782 0.0
C429 C 0.97684 0.42344 0.38625 0.0
H430 H 1.02391 0.48315 0.52513 0.0
H431 H 0.97592 0.45764 0.47438 0.0
S432 S 1.014 0.38788 0.28833 0.0
N433 N 1.03748 0.41648 0.35436 0.0
N434 N 0.98547 0.38882 0.29625 0.0
C435 C 0.99422 0.41322 0.35461 0.0
C436 C 1.02252 0.42828 0.38563 0.0
C437 C 0.62891 0.57782 0.48743 0.0
C438 C 0.63745 0.60453 0.44755 0.0
C439 C 0.64457 0.56557 0.46287 0.0
C440 C 0.66958 0.57943 0.397 0.0
H441 H 0.60992 0.56622 0.53904 0.0
H442 H 0.63687 0.545 0.49688 0.0
S443 S 0.70102 0.64987 0.27004 0.0
N444 N 0.6724 0.64452 0.33738 0.0
N445 N 0.7021 0.62163 0.29161 0.0
C446 C 0.67847 0.60628 0.35657 0.0
C447 C 0.66241 0.6188 0.38201 0.0
C448 C 0.48812 0.10157 0.39915 0.0
C449 C 0.51665 0.11791 0.39874 0.0
C450 C 0.47537 0.07351 0.42372 0.0
C451 C 0.49068 0.06069 0.4466 0.0
H452 H 0.47548 0.11055 0.38265 0.0
H453 H 0.4534 0.06171 0.4236 0.0
S454 S 0.56579 0.09398 0.45555 0.0
N455 N 0.5597 0.11887 0.4231 0.0
N456 N 0.53574 0.06636 0.46854 0.0
C457 C 0.51913 0.0767 0.4456 0.0
C458 C 0.5321 0.10522 0.42187 0.0
C459 C 0.14738 0.17239 0.02099 0.0
C460 C 0.13656 0.14468 0.04932 0.0
C461 C 0.1306 0.18379 0.00762 0.0
C462 C 0.10225 0.16801 0.02313 0.0
H463 H 0.16908 0.18545 0.00916 0.0
H464 H 0.1401 0.2053 0.98708 0.0
S465 S 0.06372 0.09412 0.09649 0.0
N466 N 0.09574 0.10157 0.09131 0.0
N467 N 0.06407 0.1228 0.06598 0.0
C468 C 0.0911 0.1401 0.04994 0.0
C469 C 0.10826 0.12848 0.0628 0.0
C470 C 0.94712 0.97335 0.08672 0.0
C471 C 0.92168 0.9576 0.02653 0.0
C472 C 0.95919 1.00167 0.09734 0.0
C473 C 0.94649 1.01549 0.04718 0.0
H474 H 0.9578 0.96377 0.12724 0.0
H475 H 0.97871 1.01288 0.14476 0.0
S476 S 0.87968 0.98421 0.88284 0.0
N477 N 0.88416 0.95836 0.91696 0.0
N478 N 0.90692 1.01145 0.93753 0.0
C479 C 0.92118 1.00015 0.98642 0.0
C480 C 0.90877 0.97129 0.97605 0.0
C481 C 0.09286 0.9478 0.01045 0.0
C482 C 0.07654 0.95867 0.04963 0.0
C483 C 0.12115 0.96416 0.00029 0.0
C484 C 0.13435 0.99213 0.02859 0.0
H485 H 0.08374 0.92632 -0.01018 0.0
H486 H 0.13273 0.95462 0.97141 0.0
S487 S 0.10036 0.03091 0.12539 0.0
N488 N 0.0753 0.99933 0.10975 0.0
N489 N 0.12837 0.03016 0.09165 0.0
C490 C 0.1181 1.00336 0.0654 0.0
C491 C 0.08927 0.98663 0.0758 0.0
C492 C 0.79626 0.51741 0.34816 0.0
C493 C 0.76816 0.50242 0.3736 0.0
C494 C 0.81265 0.50545 0.35629 0.0
C495 C 0.80171 0.478 0.39066 0.0
H496 H 0.80585 0.53871 0.32285 0.0
H497 H 0.8342 0.51797 0.33771 0.0
S498 S 0.72923 0.42906 0.45856 0.0
N499 N 0.73 0.45798 0.42935 0.0
N500 N 0.76089 0.43572 0.444 0.0
C501 C 0.77366 0.4626 0.41439 0.0
C502 C 0.75689 0.47472 0.40591 0.0
C503 C 0.62415 0.33637 0.45455 0.0
C504 C 0.61269 0.35043 0.39412 0.0
C505 C 0.61223 0.30808 0.44326 0.0
C506 C 0.58816 0.29261 0.37222 0.0
H507 H 0.64257 0.34736 0.51073 0.0
H508 H 0.62188 0.29829 0.49213 0.0
S509 S 0.54988 0.31987 0.19689 0.0
N510 N 0.57583 0.34689 0.26172 0.0
N511 N 0.55339 0.29384 0.23992 0.0
C512 C 0.57652 0.30652 0.31105 0.0
C513 C 0.5888 0.33536 0.32199 0.0
C514 C 0.75802 0.3175 0.43063 0.0
C515 C 0.74395 0.29089 0.38166 0.0
C516 C 0.78633 0.33351 0.41839 0.0
C517 C 0.8018 0.3235 0.35775 0.0
H518 H 0.74704 0.32604 0.47852 0.0
H519 H 0.79612 0.35384 0.45819 0.0
S520 S 0.77443 0.25457 0.21628 0.0
N521 N 0.74743 0.25495 0.27231 0.0
N522 N 0.80049 0.28484 0.24869 0.0
C523 C 0.78784 0.29682 0.30825 0.0
C524 C 0.759 0.28061 0.32025 0.0
C525 C 0.44522 0.80058 0.74522 0.0
C526 C 0.47315 0.81574 0.71798 0.0
C527 C 0.42852 0.8122 0.73466 0.0
C528 C 0.43904 0.83939 0.69516 0.0
H529 H 0.43632 0.77976 0.77789 0.0
H530 H 0.40722 0.79973 0.75871 0.0
S531 S 0.51074 0.88702 0.60293 0.0
N532 N 0.5104 0.85877 0.64328 0.0
N533 N 0.47931 0.88069 0.62297 0.0
C534 C 0.46691 0.85451 0.66433 0.0
C535 C 0.48386 0.84269 0.67591 0.0
C536 C 0.24433 0.63798 0.66481 0.0
C537 C 0.25884 0.6245 0.69293 0.0
C538 C 0.25656 0.66632 0.67409 0.0
C539 C 0.2838 0.68241 0.71232 0.0
H540 H 0.22318 0.62658 0.63677 0.0
H541 H 0.24439 0.67567 0.65367 0.0
S542 S 0.3316 0.65777 0.78766 0.0
N543 N 0.30268 0.62995 0.75479 0.0
N544 N 0.32545 0.6831 0.77169 0.0
C545 C 0.29877 0.66938 0.73839 0.0
C546 C 0.28638 0.64051 0.72872 0.0
C547 C 0.45447 0.63004 0.67592 0.0
C548 C 0.46721 0.65822 0.69824 0.0
C549 C 0.42622 0.6134 0.68537 0.0
C550 C 0.40942 0.62417 0.71748 0.0
H551 H 0.4664 0.62057 0.65242 0.0
H552 H 0.41749 0.59178 0.66959 0.0
S553 S 0.43201 0.69678 0.77608 0.0
N554 N 0.46036 0.69627 0.74865 0.0
N555 N 0.40731 0.66493 0.76469 0.0
C556 C 0.42171 0.65232 0.7378 0.0
C557 C 0.45053 0.66933 0.72849 0.0
C558 C 0.07208 0.21118 0.60198 0.0
C559 C 0.04496 0.19885 0.64451 0.0
C560 C 0.07873 0.21718 0.47073 0.0
C561 C 0.05851 0.21097 0.37733 0.0
H562 H 0.08829 0.21621 0.67038 0.0
H563 H 0.09989 0.22678 0.44239 0.0
S564 S 0.98434 0.17823 0.4387 0.0
N565 N 0.99776 0.18051 0.58254 0.0
N566 N 1.01016 0.19146 0.33714 0.0
C567 C 1.03131 0.19845 0.4188 0.0
C568 C 1.02457 0.19248 0.55206 0.0
C569 C 0.87951 0.88387 0.60751 0.0
C570 C 0.89287 0.87005 0.64947 0.0
C571 C 0.87326 0.88421 0.4764 0.0
C572 C 0.88025 0.87082 0.38254 0.0
H573 H 0.87383 0.89454 0.67632 0.0
H574 H 0.86288 0.89503 0.44852 0.0
S575 S 0.91573 0.83191 0.44237 0.0
N576 N 0.91296 0.84272 0.58645 0.0
N577 N 0.90153 0.84355 0.34139 0.0
C578 C 0.89377 0.85709 0.42347 0.0
C579 C 0.9 0.85664 0.55657 0.0
C580 C 0.23679 0.0667 0.5548 0.0
C581 C 0.22122 0.0468 0.64725 0.0
C582 C 0.23603 0.06003 0.4237 0.0
C583 C 0.21977 0.03317 0.38011 0.0
H584 H 0.24975 0.08763 0.58387 0.0
H585 H 0.24847 0.07605 0.35626 0.0
S586 S 0.17432 0.97364 0.58219 0.0
N587 N 0.18833 0.9992 0.68497 0.0
N588 N 0.18719 0.98665 0.43945 0.0
C589 C 0.20392 1.01311 0.47128 0.0
C590 C 0.20458 1.01992 0.60461 0.0
C591 C 0.7448 0.55101 0.81875 0.0
C592 C 0.72463 0.54543 0.72588 0.0
C593 C 0.73817 0.54509 0.95008 0.0
C594 C 0.71115 0.53353 -0.00674 0.0
H595 H 0.76589 0.56004 0.78992 0.0
H596 H 0.75432 0.54954 0.01798 0.0
S597 S 0.6507 0.51467 0.78896 0.0
N598 N 0.67642 0.52724 0.68684 0.0
N599 N 0.6641 0.51653 0.93242 0.0
C600 C 0.69082 0.52775 0.90131 0.0
C601 C 0.69751 0.5336 0.76795 0.0
C602 C 0.55879 0.19201 0.76866 0.0
C603 C 0.54722 0.20742 0.72509 0.0
C604 C 0.56493 0.19161 0.89963 0.0
C605 C 0.55985 0.2067 -0.00803 0.0
H606 H 0.56295 0.17994 0.70132 0.0
H607 H 0.57362 0.17927 0.92871 0.0
S608 S 0.53111 0.25155 0.92677 0.0
N609 N 0.53169 0.23882 0.78421 0.0
N610 N 0.54351 0.23836 0.02953 0.0
C611 C 0.54869 0.22255 0.94933 0.0
C612 C 0.54232 0.22285 0.81611 0.0
C613 C 0.87464 0.34796 0.80591 0.0
C614 C 0.88842 0.36827 0.71237 0.0
C615 C 0.87518 0.35456 0.93717 0.0
C616 C 0.88962 0.3817 0.97956 0.0
H617 H 0.86336 0.3268 0.77767 0.0
H618 H 0.86418 0.33828 0.00572 0.0
S619 S 0.92893 0.44249 0.77343 0.0
N620 N 0.91669 0.4167 0.67196 0.0
N621 N 0.91793 0.42899 0.91736 0.0
C622 C 0.90342 0.40216 0.887 0.0
C623 C 0.90276 0.39548 0.75374 0.0
C624 C 0.36053 0.86194 0.22396 0.0
C625 C 0.38067 0.86694 0.31592 0.0
C626 C 0.36703 0.86794 0.09282 0.0
C627 C 0.39397 0.87929 0.04874 0.0
H628 H 0.33953 0.85342 0.25347 0.0
H629 H 0.35083 0.86386 0.02585 0.0
S630 S 0.45411 0.89505 0.24926 0.0
N631 N 0.42857 0.88287 0.35257 0.0
N632 N 0.44082 0.89452 0.10691 0.0
C633 C 0.41427 0.8841 0.13935 0.0
C634 C 0.40763 0.87785 0.27274 0.0
C635 C 0.20878 0.55224 0.14119 0.0
C636 C 0.21452 0.53781 0.04778 0.0
C637 C 0.21463 0.55142 0.27239 0.0
C638 C 0.22634 0.53606 0.31482 0.0
H639 H 0.19967 0.56424 0.11289 0.0
H640 H 0.20999 0.56294 0.34086 0.0
S641 S 0.24549 0.49474 0.10901 0.0
N642 N 0.23287 0.5079 0.00749 0.0
N643 N 0.24355 0.50616 0.25285 0.0
C644 C 0.23222 0.5216 0.22239 0.0
C645 C 0.2264 0.52253 0.08918 0.0
C646 C 0.56935 0.73323 0.22387 0.0
C647 C 0.55383 0.71332 0.31638 0.0
C648 C 0.56863 0.72655 0.09276 0.0
C649 C 0.55245 0.69967 0.04918 0.0
H650 H 0.58226 0.75416 0.25289 0.0
H651 H 0.58104 0.74258 0.02534 0.0
S652 S 0.50706 0.64012 0.25128 0.0
N653 N 0.52099 0.6657 0.35404 0.0
N654 N 0.51996 0.65314 0.10857 0.0
C655 C 0.53662 0.67961 0.14038 0.0
C656 C 0.53723 0.68643 0.27371 0.0
loop_
_geom_bond_atom_site_label_1
_geom_bond_atom_site_label_2
_geom_bond_distance
_geom_bond_site_symmetry_2
_ccdc_geom_bond_type
Gd0 C3 2.818 1_554 S
Gd0 O20 2.377 . S
Gd0 O22 2.448 . S
Gd0 O23 2.506 1_554 S
Gd0 O24 2.435 . S
Gd0 O25 2.717 . S
Gd0 O27 2.395 . S
Gd0 O31 2.327 1_554 S
Gd1 C12 2.818 1_556 S
Gd1 O21 2.395 . S
Gd1 O25 2.327 1_656 S
Gd1 O26 2.377 1_655 S
Gd1 O28 2.448 . S
Gd1 O29 2.506 1_556 S
Gd1 O30 2.435 . S
Gd1 O31 2.717 1_655 S
C2 O20 1.240 1_655 S
C2 O21 1.240 1_554 S
C3 Gd0 2.818 1_556 S
C3 C4 1.510 . S
C3 O22 1.249 1_556 S
C3 O23 1.252 . S
C4 C3 1.510 . S
C4 C5 1.404 1_556 S
C4 C6 1.352 . S
C5 C4 1.404 1_554 S
C5 C9 1.389 . S
C5 H32 0.930 . S
C6 C4 1.352 . S
C6 C8 1.374 . S
C6 H33 0.931 . S
C7 C8 1.359 . S
C7 C9 1.364 1_556 S
C8 C6 1.374 . S
C8 C7 1.359 . S
C8 H34 0.931 . S
C9 C5 1.389 . S
C9 C7 1.364 1_554 S
C9 H35 0.931 . S
C10 O24 1.256 . S
C10 O25 1.257 . S
C11 O26 1.240 . S
C11 O27 1.240 1_556 S
C12 Gd1 2.818 1_554 S
C12 C13 1.510 . S
C12 O28 1.249 1_554 S
C12 O29 1.252 . S
C13 C12 1.510 . S
C13 C14 1.404 1_554 S
C13 C15 1.352 . S
C14 C13 1.404 1_556 S
C14 C18 1.389 . S
C14 H36 0.930 . S
C15 C13 1.352 . S
C15 C17 1.374 . S
C15 H37 0.931 . S
C16 C17 1.359 . S
C16 C18 1.364 1_554 S
C17 C15 1.374 . S
C17 C16 1.359 . S
C17 H38 0.931 . S
C18 C14 1.389 . S
C18 C16 1.364 1_556 S
C18 H39 0.931 . S
C19 O30 1.256 1_455 S
C19 O31 1.257 . S
O20 Gd0 2.377 . S
O20 C2 1.240 1_455 S
O21 Gd1 2.395 . S
O21 C2 1.240 1_556 S
O22 Gd0 2.448 . S
O22 C3 1.249 1_554 S
O23 Gd0 2.506 1_556 S
O23 C3 1.252 . S
O24 Gd0 2.435 . S
O24 C10 1.256 . S
O25 Gd0 2.717 . S
O25 Gd1 2.327 1_454 S
O25 C10 1.257 . S
O26 Gd1 2.377 1_455 S
O26 C11 1.240 . S
O27 Gd0 2.395 . S
O27 C11 1.240 1_554 S
O28 Gd1 2.448 . S
O28 C12 1.249 1_556 S
O29 Gd1 2.506 1_554 S
O29 C12 1.252 . S
O30 Gd1 2.435 . S
O30 C19 1.256 1_655 S
O31 Gd0 2.327 1_556 S
O31 Gd1 2.717 1_455 S
O31 C19 1.257 . S
H32 C5 0.930 . S
H33 C6 0.931 . S
H34 C8 0.931 . S
H35 C9 0.931 . S
H36 C14 0.930 . S
H37 C15 0.931 . S
H38 C17 0.931 . S
H39 C18 0.931 . S
Gd40 C43 2.818 1_554 S
Gd40 O60 2.377 . S
Gd40 O62 2.448 . S
Gd40 O63 2.506 1_554 S
Gd40 O64 2.435 . S
Gd40 O65 2.717 . S
Gd40 O67 2.395 . S
Gd40 O71 2.327 1_554 S
Gd41 C52 2.818 1_556 S
Gd41 O61 2.395 . S
Gd41 O65 2.327 1_556 S
Gd41 O66 2.377 . S
Gd41 O68 2.448 . S
Gd41 O69 2.506 1_556 S
Gd41 O70 2.435 . S
Gd41 O71 2.717 . S
C42 O60 1.240 . S
C42 O61 1.240 1_554 S
C43 Gd40 2.818 1_556 S
C43 C44 1.510 . S
C43 O62 1.249 1_556 S
C43 O63 1.252 . S
C44 C43 1.510 . S
C44 C45 1.404 1_556 S
C44 C46 1.352 . S
C45 C44 1.404 1_554 S
C45 C49 1.389 . S
C45 H72 0.930 . S
C46 C44 1.352 . S
C46 C48 1.374 . S
C46 H73 0.931 . S
C47 C48 1.359 . S
C47 C49 1.364 1_556 S
C48 C46 1.374 . S
C48 C47 1.359 . S
C48 H74 0.931 . S
C49 C45 1.389 . S
C49 C47 1.364 1_554 S
C49 H75 0.931 . S
C50 O64 1.256 . S
C50 O65 1.257 . S
C51 O66 1.240 . S
C51 O67 1.240 1_556 S
C52 Gd41 2.818 1_554 S
C52 C53 1.510 . S
C52 O68 1.249 1_554 S
C52 O69 1.252 . S
C53 C52 1.510 . S
C53 C54 1.404 1_554 S
C53 C55 1.352 . S
C54 C53 1.404 1_556 S
C54 C58 1.389 . S
C54 H76 0.930 . S
C55 C53 1.352 . S
C55 C57 1.374 . S
C55 H77 0.931 . S
C56 C57 1.359 1_455 S
C56 C58 1.364 1_454 S
C57 C55 1.374 . S
C57 C56 1.359 1_655 S
C57 H78 0.931 . S
C58 C54 1.389 . S
C58 C56 1.364 1_656 S
C58 H79 0.931 1_655 S
C59 O70 1.256 . S
C59 O71 1.257 . S
O60 Gd40 2.377 . S
O60 C42 1.240 . S
O61 Gd41 2.395 . S
O61 C42 1.240 1_556 S
O62 Gd40 2.448 . S
O62 C43 1.249 1_554 S
O63 Gd40 2.506 1_556 S
O63 C43 1.252 . S
O64 Gd40 2.435 . S
O64 C50 1.256 . S
O65 Gd40 2.717 . S
O65 Gd41 2.327 1_554 S
O65 C50 1.257 . S
O66 Gd41 2.377 . S
O66 C51 1.240 . S
O67 Gd40 2.395 . S
O67 C51 1.240 1_554 S
O68 Gd41 2.448 . S
O68 C52 1.249 1_556 S
O69 Gd41 2.506 1_554 S
O69 C52 1.252 . S
O70 Gd41 2.435 . S
O70 C59 1.256 . S
O71 Gd40 2.327 1_556 S
O71 Gd41 2.717 . S
O71 C59 1.257 . S
H72 C45 0.930 . S
H73 C46 0.931 . S
H74 C48 0.931 . S
H75 C49 0.931 . S
H76 C54 0.930 . S
H77 C55 0.931 . S
H78 C57 0.931 . S
H79 C58 0.931 1_455 S
Gd80 C83 2.818 1_554 S
Gd80 O100 2.377 1_565 S
Gd80 O102 2.448 . S
Gd80 O103 2.506 1_554 S
Gd80 O104 2.435 . S
Gd80 O105 2.717 1_565 S
Gd80 O107 2.395 . S
Gd80 O111 2.327 1_564 S
Gd81 C92 2.818 1_556 S
Gd81 O101 2.395 . S
Gd81 O105 2.327 1_556 S
Gd81 O106 2.377 . S
Gd81 O108 2.448 . S
Gd81 O109 2.506 1_556 S
Gd81 O110 2.435 . S
Gd81 O111 2.717 . S
C82 O100 1.240 . S
C82 O101 1.240 1_554 S
C83 Gd80 2.818 1_556 S
C83 C84 1.510 . S
C83 O102 1.249 1_556 S
C83 O103 1.252 . S
C84 C83 1.510 . S
C84 C85 1.404 1_556 S
C84 C86 1.352 . S
C85 C84 1.404 1_554 S
C85 C89 1.389 . S
C85 H112 0.930 . S
C86 C84 1.352 . S
C86 C88 1.374 . S
C86 H113 0.931 . S
C87 C88 1.359 . S
C87 C89 1.364 1_556 S
C88 C86 1.374 . S
C88 C87 1.359 . S
C88 H114 0.931 . S
C89 C85 1.389 . S
C89 C87 1.364 1_554 S
C89 H115 0.931 . S
C90 O104 1.256 1_545 S
C90 O105 1.257 . S
C91 O106 1.240 1_565 S
C91 O107 1.240 1_556 S
C92 Gd81 2.818 1_554 S
C92 C93 1.510 . S
C92 O108 1.249 1_554 S
C92 O109 1.252 . S
C93 C92 1.510 . S
C93 C94 1.404 1_554 S
C93 C95 1.352 . S
C94 C93 1.404 1_556 S
C94 C98 1.389 . S
C94 H116 0.930 . S
C95 C93 1.352 . S
C95 C97 1.374 . S
C95 H117 0.931 . S
C96 C97 1.359 . S
C96 C98 1.364 1_554 S
C97 C95 1.374 . S
C97 C96 1.359 . S
C97 H118 0.931 . S
C98 C94 1.389 . S
C98 C96 1.364 1_556 S
C98 H119 0.931 . S
C99 O110 1.256 . S
C99 O111 1.257 . S
O100 Gd80 2.377 1_545 S
O100 C82 1.240 . S
O101 Gd81 2.395 . S
O101 C82 1.240 1_556 S
O102 Gd80 2.448 . S
O102 C83 1.249 1_554 S
O103 Gd80 2.506 1_556 S
O103 C83 1.252 . S
O104 Gd80 2.435 . S
O104 C90 1.256 1_565 S
O105 Gd80 2.717 1_545 S
O105 Gd81 2.327 1_554 S
O105 C90 1.257 . S
O106 Gd81 2.377 . S
O106 C91 1.240 1_545 S
O107 Gd80 2.395 . S
O107 C91 1.240 1_554 S
O108 Gd81 2.448 . S
O108 C92 1.249 1_556 S
O109 Gd81 2.506 1_554 S
O109 C92 1.252 . S
O110 Gd81 2.435 . S
O110 C99 1.256 . S
O111 Gd80 2.327 1_546 S
O111 Gd81 2.717 . S
O111 C99 1.257 . S
H112 C85 0.930 . S
H113 C86 0.931 . S
H114 C88 0.931 . S
H115 C89 0.931 . S
H116 C94 0.930 . S
H117 C95 0.931 . S
H118 C97 0.931 . S
H119 C98 0.931 . S
Gd120 C123 2.818 . S
Gd120 O140 2.377 . S
Gd120 O142 2.448 . S
Gd120 O143 2.506 . S
Gd120 O144 2.435 . S
Gd120 O145 2.717 . S
Gd120 O147 2.395 . S
Gd120 O151 2.327 . S
Gd121 C132 2.818 . S
Gd121 O141 2.395 . S
Gd121 O145 2.327 . S
Gd121 O146 2.377 . S
Gd121 O148 2.448 . S
Gd121 O149 2.506 . S
Gd121 O150 2.435 . S
Gd121 O151 2.717 . S
C122 O140 1.240 . S
C122 O141 1.240 . S
C123 Gd120 2.818 . S
C123 C124 1.510 . S
C123 O142 1.249 . S
C123 O143 1.252 . S
C124 C123 1.510 . S
C124 C125 1.404 . S
C124 C126 1.352 . S
C125 C124 1.404 . S
C125 C129 1.389 . S
C125 H152 0.930 . S
C126 C124 1.352 . S
C126 C128 1.374 . S
C126 H153 0.931 . S
C127 C128 1.359 . S
C127 C129 1.364 . S
C128 C126 1.374 . S
C128 C127 1.359 . S
C128 H154 0.931 . S
C129 C125 1.389 . S
C129 C127 1.364 . S
C129 H155 0.931 . S
C130 O144 1.256 . S
C130 O145 1.257 . S
C131 O146 1.240 . S
C131 O147 1.240 . S
C132 Gd121 2.818 . S
C132 C133 1.510 . S
C132 O148 1.249 . S
C132 O149 1.252 . S
C133 C132 1.510 . S
C133 C134 1.404 . S
C133 C135 1.352 . S
C134 C133 1.404 . S
C134 C138 1.389 . S
C134 H156 0.930 . S
C135 C133 1.352 . S
C135 C137 1.374 . S
C135 H157 0.931 . S
C136 C137 1.359 . S
C136 C138 1.364 . S
C137 C135 1.374 . S
C137 C136 1.359 . S
C137 H158 0.931 . S
C138 C134 1.389 . S
C138 C136 1.364 . S
C138 H159 0.931 . S
C139 O150 1.256 . S
C139 O151 1.257 . S
O140 Gd120 2.377 . S
O140 C122 1.240 . S
O141 Gd121 2.395 . S
O141 C122 1.240 . S
O142 Gd120 2.448 . S
O142 C123 1.249 . S
O143 Gd120 2.506 . S
O143 C123 1.252 . S
O144 Gd120 2.435 . S
O144 C130 1.256 . S
O145 Gd120 2.717 . S
O145 Gd121 2.327 . S
O145 C130 1.257 . S
O146 Gd121 2.377 . S
O146 C131 1.240 . S
O147 Gd120 2.395 . S
O147 C131 1.240 . S
O148 Gd121 2.448 . S
O148 C132 1.249 . S
O149 Gd121 2.506 . S
O149 C132 1.252 . S
O150 Gd121 2.435 . S
O150 C139 1.256 . S
O151 Gd120 2.327 . S
O151 Gd121 2.717 . S
O151 C139 1.257 . S
H152 C125 0.930 . S
H153 C126 0.931 . S
H154 C128 0.931 . S
H155 C129 0.931 . S
H156 C134 0.930 . S
H157 C135 0.931 . S
H158 C137 0.931 . S
H159 C138 0.931 . S
Gd160 C163 2.818 . S
Gd160 O180 2.377 . S
Gd160 O182 2.448 . S
Gd160 O183 2.506 . S
Gd160 O184 2.435 . S
Gd160 O185 2.717 . S
Gd160 O187 2.395 . S
Gd160 O191 2.327 . S
Gd161 C172 2.818 . S
Gd161 O181 2.395 . S
Gd161 O185 2.327 . S
Gd161 O186 2.377 . S
Gd161 O188 2.448 . S
Gd161 O189 2.506 . S
Gd161 O190 2.435 . S
Gd161 O191 2.717 . S
C162 O180 1.240 . S
C162 O181 1.240 . S
C163 Gd160 2.818 . S
C163 C164 1.510 . S
C163 O182 1.249 . S
C163 O183 1.252 . S
C164 C163 1.510 . S
C164 C165 1.404 . S
C164 C166 1.352 . S
C165 C164 1.404 . S
C165 C169 1.389 . S
C165 H192 0.930 . S
C166 C164 1.352 . S
C166 C168 1.374 . S
C166 H193 0.931 . S
C167 C168 1.359 . S
C167 C169 1.364 . S
C168 C166 1.374 . S
C168 C167 1.359 . S
C168 H194 0.931 . S
C169 C165 1.389 . S
C169 C167 1.364 . S
C169 H195 0.931 . S
C170 O184 1.256 . S
C170 O185 1.257 . S
C171 O186 1.240 . S
C171 O187 1.240 . S
C172 Gd161 2.818 . S
C172 C173 1.510 . S
C172 O188 1.249 . S
C172 O189 1.252 . S
C173 C172 1.510 . S
C173 C174 1.404 . S
C173 C175 1.352 . S
C174 C173 1.404 . S
C174 C178 1.389 . S
C174 H196 0.930 . S
C175 C173 1.352 . S
C175 C177 1.374 . S
C175 H197 0.931 . S
C176 C177 1.359 . S
C176 C178 1.364 . S
C177 C175 1.374 . S
C177 C176 1.359 . S
C177 H198 0.931 . S
C178 C174 1.389 . S
C178 C176 1.364 . S
C178 H199 0.931 . S
C179 O190 1.256 . S
C179 O191 1.257 . S
O180 Gd160 2.377 . S
O180 C162 1.240 . S
O181 Gd161 2.395 . S
O181 C162 1.240 . S
O182 Gd160 2.448 . S
O182 C163 1.249 . S
O183 Gd160 2.506 . S
O183 C163 1.252 . S
O184 Gd160 2.435 . S
O184 C170 1.256 . S
O185 Gd160 2.717 . S
O185 Gd161 2.327 . S
O185 C170 1.257 . S
O186 Gd161 2.377 . S
O186 C171 1.240 . S
O187 Gd160 2.395 . S
O187 C171 1.240 . S
O188 Gd161 2.448 . S
O188 C172 1.249 . S
O189 Gd161 2.506 . S
O189 C172 1.252 . S
O190 Gd161 2.435 . S
O190 C179 1.256 . S
O191 Gd160 2.327 . S
O191 Gd161 2.717 . S
O191 C179 1.257 . S
H192 C165 0.930 . S
H193 C166 0.931 . S
H194 C168 0.931 . S
H195 C169 0.931 . S
H196 C174 0.930 . S
H197 C175 0.931 . S
H198 C177 0.931 . S
H199 C178 0.931 . S
Gd200 C203 2.818 . S
Gd200 O220 2.377 . S
Gd200 O222 2.448 . S
Gd200 O223 2.506 . S
Gd200 O224 2.435 . S
Gd200 O225 2.717 . S
Gd200 O227 2.395 . S
Gd200 O231 2.327 . S
Gd201 C212 2.818 . S
Gd201 O221 2.395 . S
Gd201 O225 2.327 . S
Gd201 O226 2.377 . S
Gd201 O228 2.448 . S
Gd201 O229 2.506 . S
Gd201 O230 2.435 . S
Gd201 O231 2.717 . S
C202 O220 1.240 . S
C202 O221 1.240 . S
C203 Gd200 2.818 . S
C203 C204 1.510 . S
C203 O222 1.249 . S
C203 O223 1.252 . S
C204 C203 1.510 . S
C204 C205 1.404 . S
C204 C206 1.352 . S
C205 C204 1.404 . S
C205 C209 1.389 . S
C205 H232 0.930 . S
C206 C204 1.352 . S
C206 C208 1.374 . S
C206 H233 0.931 . S
C207 C208 1.359 . S
C207 C209 1.364 . S
C208 C206 1.374 . S
C208 C207 1.359 . S
C208 H234 0.931 . S
C209 C205 1.389 . S
C209 C207 1.364 . S
C209 H235 0.931 . S
C210 O224 1.256 . S
C210 O225 1.257 . S
C211 O226 1.240 . S
C211 O227 1.240 . S
C212 Gd201 2.818 . S
C212 C213 1.510 . S
C212 O228 1.249 . S
C212 O229 1.252 . S
C213 C212 1.510 . S
C213 C214 1.404 . S
C213 C215 1.352 . S
C214 C213 1.404 . S
C214 C218 1.389 . S
C214 H236 0.930 . S
C215 C213 1.352 . S
C215 C217 1.374 . S
C215 H237 0.931 . S
C216 C217 1.359 . S
C216 C218 1.364 . S
C217 C215 1.374 . S
C217 C216 1.359 . S
C217 H238 0.931 . S
C218 C214 1.389 . S
C218 C216 1.364 . S
C218 H239 0.931 . S
C219 O230 1.256 . S
C219 O231 1.257 . S
O220 Gd200 2.377 . S
O220 C202 1.240 . S
O221 Gd201 2.395 . S
O221 C202 1.240 . S
O222 Gd200 2.448 . S
O222 C203 1.249 . S
O223 Gd200 2.506 . S
O223 C203 1.252 . S
O224 Gd200 2.435 . S
O224 C210 1.256 . S
O225 Gd200 2.717 . S
O225 Gd201 2.327 . S
O225 C210 1.257 . S
O226 Gd201 2.377 . S
O226 C211 1.240 . S
O227 Gd200 2.395 . S
O227 C211 1.240 . S
O228 Gd201 2.448 . S
O228 C212 1.249 . S
O229 Gd201 2.506 . S
O229 C212 1.252 . S
O230 Gd201 2.435 . S
O230 C219 1.256 . S
O231 Gd200 2.327 . S
O231 Gd201 2.717 . S
O231 C219 1.257 . S
H232 C205 0.930 . S
H233 C206 0.931 . S
H234 C208 0.931 . S
H235 C209 0.931 . S
H236 C214 0.930 . S
H237 C215 0.931 . S
H238 C217 0.931 . S
H239 C218 0.931 . S
Gd240 C243 2.818 . S
Gd240 O260 2.377 . S
Gd240 O262 2.448 . S
Gd240 O263 2.506 . S
Gd240 O264 2.435 . S
Gd240 O265 2.717 . S
Gd240 O267 2.395 . S
Gd240 O271 2.327 . S
Gd241 C252 2.818 . S
Gd241 O261 2.395 . S
Gd241 O265 2.327 . S
Gd241 O266 2.377 . S
Gd241 O268 2.448 . S
Gd241 O269 2.506 . S
Gd241 O270 2.435 . S
Gd241 O271 2.717 . S
C242 O260 1.240 . S
C242 O261 1.240 . S
C243 Gd240 2.818 . S
C243 C244 1.510 . S
C243 O262 1.249 . S
C243 O263 1.252 . S
C244 C243 1.510 . S
C244 C245 1.404 . S
C244 C246 1.352 . S
C245 C244 1.404 . S
C245 C249 1.384 . S
C245 H272 0.930 . S
C246 C244 1.352 . S
C246 C248 1.374 . S
C246 H273 0.931 . S
C247 C248 1.359 1_545 S
C247 C249 1.367 1_545 S
C248 C246 1.374 . S
C248 C247 1.359 1_565 S
C248 H274 0.931 . S
C249 C245 1.384 . S
C249 C247 1.367 1_565 S
C249 H275 0.934 1_565 S
C250 O264 1.256 . S
C250 O265 1.257 . S
C251 O266 1.240 . S
C251 O267 1.240 . S
C252 Gd241 2.818 . S
C252 C253 1.510 . S
C252 O268 1.249 . S
C252 O269 1.252 . S
C253 C252 1.510 . S
C253 C254 1.404 . S
C253 C255 1.352 . S
C254 C253 1.404 . S
C254 C258 1.389 . S
C254 H276 0.930 . S
C255 C253 1.352 . S
C255 C257 1.374 . S
C255 H277 0.931 . S
C256 C257 1.359 . S
C256 C258 1.364 . S
C257 C255 1.374 . S
C257 C256 1.359 . S
C257 H278 0.931 . S
C258 C254 1.389 . S
C258 C256 1.364 . S
C258 H279 0.931 . S
C259 O270 1.256 . S
C259 O271 1.257 . S
O260 Gd240 2.377 . S
O260 C242 1.240 . S
O261 Gd241 2.395 . S
O261 C242 1.240 . S
O262 Gd240 2.448 . S
O262 C243 1.249 . S
O263 Gd240 2.506 . S
O263 C243 1.252 . S
O264 Gd240 2.435 . S
O264 C250 1.256 . S
O265 Gd240 2.717 . S
O265 Gd241 2.327 . S
O265 C250 1.257 . S
O266 Gd241 2.377 . S
O266 C251 1.240 . S
O267 Gd240 2.395 . S
O267 C251 1.240 . S
O268 Gd241 2.448 . S
O268 C252 1.249 . S
O269 Gd241 2.506 . S
O269 C252 1.252 . S
O270 Gd241 2.435 . S
O270 C259 1.256 . S
O271 Gd240 2.327 . S
O271 Gd241 2.717 . S
O271 C259 1.257 . S
H272 C245 0.930 . S
H273 C246 0.931 . S
H274 C248 0.931 . S
H275 C249 0.934 1_545 S
H276 C254 0.930 . S
H277 C255 0.931 . S
H278 C257 0.931 . S
H279 C258 0.931 . S
Gd280 C283 2.818 . S
Gd280 O300 2.377 . S
Gd280 O302 2.448 . S
Gd280 O303 2.506 . S
Gd280 O304 2.435 . S
Gd280 O305 2.717 . S
Gd280 O307 2.395 . S
Gd280 O311 2.327 . S
Gd281 C292 2.818 . S
Gd281 O301 2.395 . S
Gd281 O305 2.327 . S
Gd281 O306 2.377 . S
Gd281 O308 2.448 . S
Gd281 O309 2.506 . S
Gd281 O310 2.435 . S
Gd281 O311 2.717 . S
C282 O300 1.240 . S
C282 O301 1.240 . S
C283 Gd280 2.818 . S
C283 C284 1.510 . S
C283 O302 1.249 . S
C283 O303 1.252 . S
C284 C283 1.510 . S
C284 C285 1.404 . S
C284 C286 1.352 . S
C285 C284 1.404 . S
C285 C289 1.389 . S
C285 H312 0.930 . S
C286 C284 1.352 . S
C286 C288 1.374 . S
C286 H313 0.931 . S
C287 C288 1.359 . S
C287 C289 1.364 . S
C288 C286 1.374 . S
C288 C287 1.359 . S
C288 H314 0.931 . S
C289 C285 1.389 . S
C289 C287 1.364 . S
C289 H315 0.931 . S
C290 O304 1.256 . S
C290 O305 1.257 . S
C291 O306 1.240 . S
C291 O307 1.240 . S
C292 Gd281 2.818 . S
C292 C293 1.510 . S
C292 O308 1.249 . S
C292 O309 1.252 . S
C293 C292 1.510 . S
C293 C294 1.404 . S
C293 C295 1.352 . S
C294 C293 1.404 . S
C294 C298 1.389 . S
C294 H316 0.930 . S
C295 C293 1.352 . S
C295 C297 1.374 . S
C295 H317 0.931 . S
C296 C297 1.359 . S
C296 C298 1.364 . S
C297 C295 1.374 . S
C297 C296 1.359 . S
C297 H318 0.931 . S
C298 C294 1.389 . S
C298 C296 1.364 . S
C298 H319 0.931 . S
C299 O310 1.256 . S
C299 O311 1.257 . S
O300 Gd280 2.377 . S
O300 C282 1.240 . S
O301 Gd281 2.395 . S
O301 C282 1.240 . S
O302 Gd280 2.448 . S
O302 C283 1.249 . S
O303 Gd280 2.506 . S
O303 C283 1.252 . S
O304 Gd280 2.435 . S
O304 C290 1.256 . S
O305 Gd280 2.717 . S
O305 Gd281 2.327 . S
O305 C290 1.257 . S
O306 Gd281 2.377 . S
O306 C291 1.240 . S
O307 Gd280 2.395 . S
O307 C291 1.240 . S
O308 Gd281 2.448 . S
O308 C292 1.249 . S
O309 Gd281 2.506 . S
O309 C292 1.252 . S
O310 Gd281 2.435 . S
O310 C299 1.256 . S
O311 Gd280 2.327 . S
O311 Gd281 2.717 . S
O311 C299 1.257 . S
H312 C285 0.930 . S
H313 C286 0.931 . S
H314 C288 0.931 . S
H315 C289 0.931 . S
H316 C294 0.930 . S
H317 C295 0.931 . S
H318 C297 0.931 . S
H319 C298 0.931 . S
Gd320 C323 2.818 . S
Gd320 O340 2.377 . S
Gd320 O342 2.448 . S
Gd320 O343 2.506 . S
Gd320 O344 2.435 . S
Gd320 O345 2.717 . S
Gd320 O347 2.395 . S
Gd320 O351 2.327 . S
Gd321 C332 2.818 . S
Gd321 O341 2.395 . S
Gd321 O345 2.327 . S
Gd321 O346 2.377 . S
Gd321 O348 2.448 . S
Gd321 O349 2.506 . S
Gd321 O350 2.435 . S
Gd321 O351 2.717 . S
C322 O340 1.240 . S
C322 O341 1.240 . S
C323 Gd320 2.818 . S
C323 C324 1.510 . S
C323 O342 1.249 . S
C323 O343 1.252 . S
C324 C323 1.510 . S
C324 C325 1.404 . S
C324 C326 1.352 . S
C325 C324 1.404 . S
C325 C329 1.389 . S
C325 H352 0.930 . S
C326 C324 1.352 . S
C326 C328 1.374 . S
C326 H353 0.931 . S
C327 C328 1.359 . S
C327 C329 1.364 . S
C328 C326 1.374 . S
C328 C327 1.359 . S
C328 H354 0.931 . S
C329 C325 1.389 . S
C329 C327 1.364 . S
C329 H355 0.931 . S
C330 O344 1.256 . S
C330 O345 1.257 . S
C331 O346 1.240 . S
C331 O347 1.240 . S
C332 Gd321 2.818 . S
C332 C333 1.510 . S
C332 O348 1.249 . S
C332 O349 1.252 . S
C333 C332 1.510 . S
C333 C334 1.404 . S
C333 C335 1.352 . S
C334 C333 1.404 . S
C334 C338 1.389 . S
C334 H356 0.930 . S
C335 C333 1.352 . S
C335 C337 1.374 . S
C335 H357 0.931 . S
C336 C337 1.359 . S
C336 C338 1.364 . S
C337 C335 1.374 . S
C337 C336 1.359 . S
C337 H358 0.931 . S
C338 C334 1.389 . S
C338 C336 1.364 . S
C338 H359 0.931 . S
C339 O350 1.256 . S
C339 O351 1.257 . S
O340 Gd320 2.377 . S
O340 C322 1.240 . S
O341 Gd321 2.395 . S
O341 C322 1.240 . S
O342 Gd320 2.448 . S
O342 C323 1.249 . S
O343 Gd320 2.506 . S
O343 C323 1.252 . S
O344 Gd320 2.435 . S
O344 C330 1.256 . S
O345 Gd320 2.717 . S
O345 Gd321 2.327 . S
O345 C330 1.257 . S
O346 Gd321 2.377 . S
O346 C331 1.240 . S
O347 Gd320 2.395 . S
O347 C331 1.240 . S
O348 Gd321 2.448 . S
O348 C332 1.249 . S
O349 Gd321 2.506 . S
O349 C332 1.252 . S
O350 Gd321 2.435 . S
O350 C339 1.256 . S
O351 Gd320 2.327 . S
O351 Gd321 2.717 . S
O351 C339 1.257 . S
H352 C325 0.930 . S
H353 C326 0.931 . S
H354 C328 0.931 . S
H355 C329 0.931 . S
H356 C334 0.930 . S
H357 C335 0.931 . S
H358 C337 0.931 . S
H359 C338 0.931 . S
C360 C361 1.369 . S
C360 C362 1.419 . S
C360 H364 0.930 . S
C361 C360 1.369 . S
C361 C370 1.429 . S
C362 C360 1.419 . S
C362 C363 1.363 . S
C362 H365 0.929 . S
C363 C362 1.363 . S
C363 C369 1.428 . S
H364 C360 0.930 . S
H365 C362 0.929 . S
S366 N367 1.613 . S
S366 N368 1.610 . S
N367 S366 1.613 . S
N367 C370 1.350 . S
N368 S366 1.610 . S
N368 C369 1.351 . S
C369 C363 1.428 . S
C369 N368 1.351 . S
C369 C370 1.434 . S
C370 C361 1.429 . S
C370 N367 1.350 . S
C370 C369 1.434 . S
C371 C372 1.369 . S
C371 C373 1.419 . S
C371 H375 0.930 1_556 S
C372 C371 1.369 . S
C372 C381 1.429 . S
C373 C371 1.419 . S
C373 C374 1.363 . S
C373 H376 0.929 . S
C374 C373 1.363 . S
C374 C380 1.428 . S
H375 C371 0.930 1_554 S
H376 C373 0.929 . S
S377 N378 1.613 . S
S377 N379 1.610 . S
N378 S377 1.613 . S
N378 C381 1.350 . S
N379 S377 1.610 . S
N379 C380 1.351 . S
C380 C374 1.428 . S
C380 N379 1.351 . S
C380 C381 1.434 . S
C381 C372 1.429 . S
C381 N378 1.350 . S
C381 C380 1.434 . S
C382 C383 1.369 . S
C382 C384 1.419 . S
C382 H386 0.930 . S
C383 C382 1.369 . S
C383 C392 1.429 . S
C384 C382 1.419 . S
C384 C385 1.363 . S
C384 H387 0.929 . S
C385 C384 1.363 . S
C385 C391 1.428 . S
H386 C382 0.930 . S
H387 C384 0.929 . S
S388 N389 1.613 . S
S388 N390 1.610 1_554 S
N389 S388 1.613 . S
N389 C392 1.350 1_554 S
N390 S388 1.610 1_556 S
N390 C391 1.351 . S
C391 C385 1.428 . S
C391 N390 1.351 . S
C391 C392 1.434 . S
C392 C383 1.429 . S
C392 N389 1.350 1_556 S
C392 C391 1.434 . S
C393 C394 1.369 . S
C393 C395 1.419 . S
C393 H397 0.930 . S
C394 C393 1.369 . S
C394 C403 1.429 . S
C395 C393 1.419 . S
C395 C396 1.363 . S
C395 H398 0.929 . S
C396 C395 1.363 . S
C396 C402 1.428 . S
H397 C393 0.930 . S
H398 C395 0.929 . S
S399 N400 1.613 1_556 S
S399 N401 1.610 . S
N400 S399 1.613 1_554 S
N400 C403 1.350 . S
N401 S399 1.610 . S
N401 C402 1.351 1_556 S
C402 C396 1.428 . S
C402 N401 1.351 1_554 S
C402 C403 1.434 . S
C403 C394 1.429 . S
C403 N400 1.350 . S
C403 C402 1.434 . S
C404 C405 1.369 . S
C404 C406 1.419 . S
C404 H408 0.930 . S
C405 C404 1.369 . S
C405 C414 1.429 . S
C406 C404 1.419 . S
C406 C407 1.363 . S
C406 H409 0.929 . S
C407 C406 1.363 . S
C407 C413 1.428 . S
H408 C404 0.930 . S
H409 C406 0.929 . S
S410 N411 1.613 1_455 S
S410 N412 1.610 . S
N411 S410 1.613 1_655 S
N411 C414 1.350 . S
N412 S410 1.610 . S
N412 C413 1.351 1_455 S
C413 C407 1.428 . S
C413 N412 1.351 1_655 S
C413 C414 1.434 . S
C414 C405 1.429 . S
C414 N411 1.350 . S
C414 C413 1.434 . S
C415 C416 1.369 . S
C415 C417 1.419 . S
C415 H419 0.930 . S
C416 C415 1.369 . S
C416 C425 1.429 . S
C417 C415 1.419 . S
C417 C418 1.363 . S
C417 H420 0.929 . S
C418 C417 1.363 . S
C418 C424 1.428 . S
H419 C415 0.930 . S
H420 C417 0.929 . S
S421 N422 1.613 . S
S421 N423 1.610 1_556 S
N422 S421 1.613 . S
N422 C425 1.350 1_556 S
N423 S421 1.610 1_554 S
N423 C424 1.351 . S
C424 C418 1.428 . S
C424 N423 1.351 . S
C424 C425 1.434 . S
C425 C416 1.429 . S
C425 N422 1.350 1_554 S
C425 C424 1.434 . S
C426 C427 1.369 . S
C426 C428 1.419 . S
C426 H430 0.930 . S
C427 C426 1.369 . S
C427 C436 1.429 . S
C428 C426 1.419 . S
C428 C429 1.363 . S
C428 H431 0.929 . S
C429 C428 1.363 . S
C429 C435 1.428 . S
H430 C426 0.930 . S
H431 C428 0.929 . S
S432 N433 1.613 . S
S432 N434 1.610 . S
N433 S432 1.613 . S
N433 C436 1.350 . S
N434 S432 1.610 . S
N434 C435 1.351 . S
C435 C429 1.428 . S
C435 N434 1.351 . S
C435 C436 1.434 . S
C436 C427 1.429 . S
C436 N433 1.350 . S
C436 C435 1.434 . S
C437 C438 1.369 . S
C437 C439 1.419 . S
C437 H441 0.930 . S
C438 C437 1.369 . S
C438 C447 1.429 . S
C439 C437 1.419 . S
C439 C440 1.363 . S
C439 H442 0.929 . S
C440 C439 1.363 . S
C440 C446 1.428 . S
H441 C437 0.930 . S
H442 C439 0.929 . S
S443 N444 1.613 . S
S443 N445 1.610 . S
N444 S443 1.613 . S
N444 C447 1.350 . S
N445 S443 1.610 . S
N445 C446 1.351 . S
C446 C440 1.428 . S
C446 N445 1.351 . S
C446 C447 1.434 . S
C447 C438 1.429 . S
C447 N444 1.350 . S
C447 C446 1.434 . S
C448 C449 1.369 . S
C448 C450 1.419 . S
C448 H452 0.930 . S
C449 C448 1.369 . S
C449 C458 1.429 . S
C450 C448 1.419 . S
C450 C451 1.363 . S
C450 H453 0.929 . S
C451 C450 1.363 . S
C451 C457 1.428 . S
H452 C448 0.930 . S
H453 C450 0.929 . S
S454 N455 1.613 . S
S454 N456 1.610 . S
N455 S454 1.613 . S
N455 C458 1.350 . S
N456 S454 1.610 . S
N456 C457 1.351 . S
C457 C451 1.428 . S
C457 N456 1.351 . S
C457 C458 1.434 . S
C458 C449 1.429 . S
C458 N455 1.350 . S
C458 C457 1.434 . S
C459 C460 1.369 . S
C459 C461 1.419 . S
C459 H463 0.930 . S
C460 C459 1.369 . S
C460 C469 1.429 1_554 S
C461 C459 1.419 . S
C461 C462 1.363 . S
C461 H464 0.929 . S
C462 C461 1.363 . S
C462 C468 1.428 1_554 S
H463 C459 0.930 . S
H464 C461 0.929 . S
S465 N466 1.613 . S
S465 N467 1.610 . S
N466 S465 1.613 . S
N466 C469 1.350 . S
N467 S465 1.610 . S
N467 C468 1.351 . S
C468 C462 1.428 1_556 S
C468 N467 1.351 . S
C468 C469 1.434 . S
C469 C460 1.429 1_556 S
C469 N466 1.350 . S
C469 C468 1.434 . S
C470 C471 1.369 . S
C470 C472 1.419 . S
C470 H474 0.930 . S
C471 C470 1.369 . S
C471 C480 1.429 1_554 S
C472 C470 1.419 . S
C472 C473 1.363 . S
C472 H475 0.929 . S
C473 C472 1.363 . S
C473 C479 1.428 1_554 S
H474 C470 0.930 . S
H475 C472 0.929 . S
S476 N477 1.613 . S
S476 N478 1.610 . S
N477 S476 1.613 . S
N477 C480 1.350 . S
N478 S476 1.610 . S
N478 C479 1.351 . S
C479 C473 1.428 1_556 S
C479 N478 1.351 . S
C479 C480 1.434 . S
C480 C471 1.429 1_556 S
C480 N477 1.350 . S
C480 C479 1.434 . S
C481 C482 1.369 . S
C481 C483 1.419 1_554 S
C481 H485 0.930 1_554 S
C482 C481 1.369 . S
C482 C491 1.429 . S
C483 C481 1.419 1_556 S
C483 C484 1.363 1_556 S
C483 H486 0.929 . S
C484 C483 1.363 1_554 S
C484 C490 1.428 . S
H485 C481 0.930 1_556 S
H486 C483 0.929 . S
S487 N488 1.613 1_545 S
S487 N489 1.610 . S
N488 S487 1.613 1_565 S
N488 C491 1.350 . S
N489 S487 1.610 . S
N489 C490 1.351 1_545 S
C490 C484 1.428 . S
C490 N489 1.351 1_565 S
C490 C491 1.434 . S
C491 C482 1.429 . S
C491 N488 1.350 . S
C491 C490 1.434 . S
C492 C493 1.369 . S
C492 C494 1.419 . S
C492 H496 0.930 . S
C493 C492 1.369 . S
C493 C502 1.429 . S
C494 C492 1.419 . S
C494 C495 1.363 . S
C494 H497 0.929 . S
C495 C494 1.363 . S
C495 C501 1.428 . S
H496 C492 0.930 . S
H497 C494 0.929 . S
S498 N499 1.613 . S
S498 N500 1.610 . S
N499 S498 1.613 . S
N499 C502 1.350 . S
N500 S498 1.610 . S
N500 C501 1.351 . S
C501 C495 1.428 . S
C501 N500 1.351 . S
C501 C502 1.434 . S
C502 C493 1.429 . S
C502 N499 1.350 . S
C502 C501 1.434 . S
C503 C504 1.369 . S
C503 C505 1.419 . S
C503 H507 0.930 . S
C504 C503 1.369 . S
C504 C513 1.429 . S
C505 C503 1.419 . S
C505 C506 1.363 . S
C505 H508 0.929 . S
C506 C505 1.363 . S
C506 C512 1.428 . S
H507 C503 0.930 . S
H508 C505 0.929 . S
S509 N510 1.613 . S
S509 N511 1.610 . S
N510 S509 1.613 . S
N510 C513 1.350 . S
N511 S509 1.610 . S
N511 C512 1.351 . S
C512 C506 1.428 . S
C512 N511 1.351 . S
C512 C513 1.434 . S
C513 C504 1.429 . S
C513 N510 1.350 . S
C513 C512 1.434 . S
C514 C515 1.369 . S
C514 C516 1.419 . S
C514 H518 0.930 . S
C515 C514 1.369 . S
C515 C524 1.429 . S
C516 C514 1.419 . S
C516 C517 1.363 . S
C516 H519 0.929 . S
C517 C516 1.363 . S
C517 C523 1.428 . S
H518 C514 0.930 . S
H519 C516 0.929 . S
S520 N521 1.613 . S
S520 N522 1.610 . S
N521 S520 1.613 . S
N521 C524 1.350 . S
N522 S520 1.610 . S
N522 C523 1.351 . S
C523 C517 1.428 . S
C523 N522 1.351 . S
C523 C524 1.434 . S
C524 C515 1.429 . S
C524 N521 1.350 . S
C524 C523 1.434 . S
C525 C526 1.369 . S
C525 C527 1.419 . S
C525 H529 0.930 . S
C526 C525 1.369 . S
C526 C535 1.429 . S
C527 C525 1.419 . S
C527 C528 1.363 . S
C527 H530 0.929 . S
C528 C527 1.363 . S
C528 C534 1.428 . S
H529 C525 0.930 . S
H530 C527 0.929 . S
S531 N532 1.613 . S
S531 N533 1.610 . S
N532 S531 1.613 . S
N532 C535 1.350 . S
N533 S531 1.610 . S
N533 C534 1.351 . S
C534 C528 1.428 . S
C534 N533 1.351 . S
C534 C535 1.434 . S
C535 C526 1.429 . S
C535 N532 1.350 . S
C535 C534 1.434 . S
C536 C537 1.369 . S
C536 C538 1.419 . S
C536 H540 0.930 . S
C537 C536 1.369 . S
C537 C546 1.429 . S
C538 C536 1.419 . S
C538 C539 1.363 . S
C538 H541 0.929 . S
C539 C538 1.363 . S
C539 C545 1.428 . S
H540 C536 0.930 . S
H541 C538 0.929 . S
S542 N543 1.613 . S
S542 N544 1.610 . S
N543 S542 1.613 . S
N543 C546 1.350 . S
N544 S542 1.610 . S
N544 C545 1.351 . S
C545 C539 1.428 . S
C545 N544 1.351 . S
C545 C546 1.434 . S
C546 C537 1.429 . S
C546 N543 1.350 . S
C546 C545 1.434 . S
C547 C548 1.369 . S
C547 C549 1.419 . S
C547 H551 0.930 . S
C548 C547 1.369 . S
C548 C557 1.429 . S
C549 C547 1.419 . S
C549 C550 1.363 . S
C549 H552 0.929 . S
C550 C549 1.363 . S
C550 C556 1.428 . S
H551 C547 0.930 . S
H552 C549 0.929 . S
S553 N554 1.613 . S
S553 N555 1.610 . S
N554 S553 1.613 . S
N554 C557 1.350 . S
N555 S553 1.610 . S
N555 C556 1.351 . S
C556 C550 1.428 . S
C556 N555 1.351 . S
C556 C557 1.434 . S
C557 C548 1.429 . S
C557 N554 1.350 . S
C557 C556 1.434 . S
C558 C559 1.369 . S
C558 C560 1.419 . S
C558 H562 0.930 . S
C559 C558 1.369 . S
C559 C568 1.429 1_455 S
C560 C558 1.419 . S
C560 C561 1.363 . S
C560 H563 0.929 . S
C561 C560 1.363 . S
C561 C567 1.428 1_455 S
H562 C558 0.930 . S
H563 C560 0.929 . S
S564 N565 1.613 . S
S564 N566 1.610 . S
N565 S564 1.613 . S
N565 C568 1.350 . S
N566 S564 1.610 . S
N566 C567 1.351 . S
C567 C561 1.428 1_655 S
C567 N566 1.351 . S
C567 C568 1.434 . S
C568 C559 1.429 1_655 S
C568 N565 1.350 . S
C568 C567 1.434 . S
C569 C570 1.369 . S
C569 C571 1.419 . S
C569 H573 0.930 . S
C570 C569 1.369 . S
C570 C579 1.429 . S
C571 C569 1.419 . S
C571 C572 1.363 . S
C571 H574 0.929 . S
C572 C571 1.363 . S
C572 C578 1.428 . S
H573 C569 0.930 . S
H574 C571 0.929 . S
S575 N576 1.613 . S
S575 N577 1.610 . S
N576 S575 1.613 . S
N576 C579 1.350 . S
N577 S575 1.610 . S
N577 C578 1.351 . S
C578 C572 1.428 . S
C578 N577 1.351 . S
C578 C579 1.434 . S
C579 C570 1.429 . S
C579 N576 1.350 . S
C579 C578 1.434 . S
C580 C581 1.369 . S
C580 C582 1.419 . S
C580 H584 0.930 . S
C581 C580 1.369 . S
C581 C590 1.429 . S
C582 C580 1.419 . S
C582 C583 1.363 . S
C582 H585 0.929 . S
C583 C582 1.363 . S
C583 C589 1.428 . S
H584 C580 0.930 . S
H585 C582 0.929 . S
S586 N587 1.613 . S
S586 N588 1.610 . S
N587 S586 1.613 . S
N587 C590 1.350 . S
N588 S586 1.610 . S
N588 C589 1.351 . S
C589 C583 1.428 . S
C589 N588 1.351 . S
C589 C590 1.434 . S
C590 C581 1.429 . S
C590 N587 1.350 . S
C590 C589 1.434 . S
C591 C592 1.369 . S
C591 C593 1.419 . S
C591 H595 0.930 . S
C592 C591 1.369 . S
C592 C601 1.429 . S
C593 C591 1.419 . S
C593 C594 1.363 . S
C593 H596 0.929 . S
C594 C593 1.363 . S
C594 C600 1.428 . S
H595 C591 0.930 . S
H596 C593 0.929 . S
S597 N598 1.613 . S
S597 N599 1.610 . S
N598 S597 1.613 . S
N598 C601 1.350 . S
N599 S597 1.610 . S
N599 C600 1.351 . S
C600 C594 1.428 . S
C600 N599 1.351 . S
C600 C601 1.434 . S
C601 C592 1.429 . S
C601 N598 1.350 . S
C601 C600 1.434 . S
C602 C603 1.369 . S
C602 C604 1.419 . S
C602 H606 0.930 . S
C603 C602 1.369 . S
C603 C612 1.429 . S
C604 C602 1.419 . S
C604 C605 1.363 . S
C604 H607 0.929 . S
C605 C604 1.363 . S
C605 C611 1.428 . S
H606 C602 0.930 . S
H607 C604 0.929 . S
S608 N609 1.613 . S
S608 N610 1.610 . S
N609 S608 1.613 . S
N609 C612 1.350 . S
N610 S608 1.610 . S
N610 C611 1.351 . S
C611 C605 1.428 . S
C611 N610 1.351 . S
C611 C612 1.434 . S
C612 C603 1.429 . S
C612 N609 1.350 . S
C612 C611 1.434 . S
C613 C614 1.369 . S
C613 C615 1.419 . S
C613 H617 0.930 . S
C614 C613 1.369 . S
C614 C623 1.429 . S
C615 C613 1.419 . S
C615 C616 1.363 . S
C615 H618 0.929 . S
C616 C615 1.363 . S
C616 C622 1.428 . S
H617 C613 0.930 . S
H618 C615 0.929 . S
S619 N620 1.613 . S
S619 N621 1.610 . S
N620 S619 1.613 . S
N620 C623 1.350 . S
N621 S619 1.610 . S
N621 C622 1.351 . S
C622 C616 1.428 . S
C622 N621 1.351 . S
C622 C623 1.434 . S
C623 C614 1.429 . S
C623 N620 1.350 . S
C623 C622 1.434 . S
C624 C625 1.369 . S
C624 C626 1.419 . S
C624 H628 0.930 . S
C625 C624 1.369 . S
C625 C634 1.429 . S
C626 C624 1.419 . S
C626 C627 1.363 . S
C626 H629 0.929 . S
C627 C626 1.363 . S
C627 C633 1.428 . S
H628 C624 0.930 . S
H629 C626 0.929 . S
S630 N631 1.613 . S
S630 N632 1.610 . S
N631 S630 1.613 . S
N631 C634 1.350 . S
N632 S630 1.610 . S
N632 C633 1.351 . S
C633 C627 1.428 . S
C633 N632 1.351 . S
C633 C634 1.434 . S
C634 C625 1.429 . S
C634 N631 1.350 . S
C634 C633 1.434 . S
C635 C636 1.369 . S
C635 C637 1.419 . S
C635 H639 0.930 . S
C636 C635 1.369 . S
C636 C645 1.429 . S
C637 C635 1.419 . S
C637 C638 1.363 . S
C637 H640 0.929 . S
C638 C637 1.363 . S
C638 C644 1.428 . S
H639 C635 0.930 . S
H640 C637 0.929 . S
S641 N642 1.613 . S
S641 N643 1.610 . S
N642 S641 1.613 . S
N642 C645 1.350 . S
N643 S641 1.610 . S
N643 C644 1.351 . S
C644 C638 1.428 . S
C644 N643 1.351 . S
C644 C645 1.434 . S
C645 C636 1.429 . S
C645 N642 1.350 . S
C645 C644 1.434 . S
C646 C647 1.369 . S
C646 C648 1.419 . S
C646 H650 0.930 . S
C647 C646 1.369 . S
C647 C656 1.429 . S
C648 C646 1.419 . S
C648 C649 1.363 . S
C648 H651 0.929 . S
C649 C648 1.363 . S
C649 C655 1.428 . S
H650 C646 0.930 . S
H651 C648 0.929 . S
S652 N653 1.613 . S
S652 N654 1.610 . S
N653 S652 1.613 . S
N653 C656 1.350 . S
N654 S652 1.610 . S
N654 C655 1.351 . S
C655 C649 1.428 . S
C655 N654 1.351 . S
C655 C656 1.434 . S
C656 C647 1.429 . S
C656 N653 1.350 . S
C656 C655 1.434 . S
C361 C7 1.838 . S
C363 C282 1.803 . S
C372 C47 1.837 . S
C374 C322 1.803 . S
C383 C87 1.843 . S
C385 C242 1.797 . S
C394 C167 1.839 . S
C396 C82 1.803 . S
C405 C207 1.841 . S
C407 C2 1.802 . S
C416 C42 1.804 . S
C418 C127 1.838 . S
C427 C287 1.839 1_655 S
C429 C202 1.802 . S
C438 C327 1.838 . S
C440 C122 1.802 . S
C449 C162 1.804 . S
C451 C247 1.837 . S
C460 C96 1.677 . S
C462 C11 1.694 1_554 S
C471 C51 1.694 1_554 S
C473 C16 1.677 1_565 S
C482 C56 1.680 . S
C484 C91 1.694 1_554 S
C493 C131 1.695 . S
C495 C216 1.680 . S
C504 C136 1.676 . S
C506 C171 1.694 . S
C515 C176 1.678 . S
C517 C211 1.694 . S
C526 C336 1.679 . S
C528 C251 1.694 . S
C537 C291 1.694 . S
C539 C256 1.680 . S
C548 C331 1.694 . S
C550 C296 1.680 . S
C559 C19 1.115 . S
C561 C10 1.125 . S
C570 C59 1.125 . S
C572 C50 1.117 . S
C581 C99 1.117 . S
C583 C90 1.124 . S
C592 C130 1.115 . S
C594 C139 1.125 1_556 S
C603 C170 1.122 . S
C605 C179 1.120 1_556 S
C614 C210 1.116 . S
C616 C219 1.124 1_556 S
C625 C259 1.127 . S
C627 C250 1.116 1_554 S
C636 C290 1.123 1_554 S
C638 C299 1.119 . S
C647 C339 1.120 . S
C649 C330 1.121 1_554 S
