# Generated by pormake.
# Topology fce, (5)-cn, num edge types: 1
# Building blocks:
#     Node 0, Type 0, BuildingBlock: BEQFEK_clean_sbu_0, # of connection points: 5
#     Node 1, Type 0, BuildingBlock: BEQFEK_clean_sbu_0, # of connection points: 5
#     Node 2, Type 0, BuildingBlock: BEQFEK_clean_sbu_0, # of connection points: 5
#     Node 3, Type 0, BuildingBlock: BEQFEK_clean_sbu_0, # of connection points: 5
#     Node 4, Type 0, BuildingBlock: BEQFEK_clean_sbu_0, # of connection points: 5
#     Node 5, Type 0, BuildingBlock: BEQFEK_clean_sbu_0, # of connection points: 5
#     Node 6, Type 0, BuildingBlock: BEQFEK_clean_sbu_0, # of connection points: 5
#     Node 7, Type 0, BuildingBlock: BEQFEK_clean_sbu_0, # of connection points: 5
#     Node 8, Type 0, BuildingBlock: BEQFEK_clean_sbu_0, # of connection points: 5
#     Node 9, Type 0, BuildingBlock: BEQFEK_clean_sbu_0, # of connection points: 5
#     Node 10, Type 0, BuildingBlock: BEQFEK_clean_sbu_0, # of connection points: 5
#     Node 11, Type 0, BuildingBlock: BEQFEK_clean_sbu_0, # of connection points: 5
#     Node 12, Type 0, BuildingBlock: BEQFEK_clean_sbu_0, # of connection points: 5
#     Node 13, Type 0, BuildingBlock: BEQFEK_clean_sbu_0, # of connection points: 5
#     Node 14, Type 0, BuildingBlock: BEQFEK_clean_sbu_0, # of connection points: 5
#     Node 15, Type 0, BuildingBlock: BEQFEK_clean_sbu_0, # of connection points: 5
#     Node 16, Type 0, BuildingBlock: BEQFEK_clean_sbu_0, # of connection points: 5
#     Node 17, Type 0, BuildingBlock: BEQFEK_clean_sbu_0, # of connection points: 5
#     Node 18, Type 0, BuildingBlock: BEQFEK_clean_sbu_0, # of connection points: 5
#     Node 19, Type 0, BuildingBlock: BEQFEK_clean_sbu_0, # of connection points: 5
#     Node 20, Type 0, BuildingBlock: BEQFEK_clean_sbu_0, # of connection points: 5
#     Node 21, Type 0, BuildingBlock: BEQFEK_clean_sbu_0, # of connection points: 5
#     Node 22, Type 0, BuildingBlock: BEQFEK_clean_sbu_0, # of connection points: 5
#     Node 23, Type 0, BuildingBlock: BEQFEK_clean_sbu_0, # of connection points: 5
#     Edge 24, Type (0, 0), BuildingBlock: CIFDUS_clean_linker_0, # of connection points: 2
#     Edge 25, Type (0, 0), BuildingBlock: CIFDUS_clean_linker_0, # of connection points: 2
#     Edge 26, Type (0, 0), BuildingBlock: CIFDUS_clean_linker_0, # of connection points: 2
#     Edge 27, Type (0, 0), BuildingBlock: CIFDUS_clean_linker_0, # of connection points: 2
#     Edge 28, Type (0, 0), BuildingBlock: CIFDUS_clean_linker_0, # of connection points: 2
#     Edge 29, Type (0, 0), BuildingBlock: CIFDUS_clean_linker_0, # of connection points: 2
#     Edge 30, Type (0, 0), BuildingBlock: CIFDUS_clean_linker_0, # of connection points: 2
#     Edge 31, Type (0, 0), BuildingBlock: CIFDUS_clean_linker_0, # of connection points: 2
#     Edge 32, Type (0, 0), BuildingBlock: CIFDUS_clean_linker_0, # of connection points: 2
#     Edge 33, Type (0, 0), BuildingBlock: CIFDUS_clean_linker_0, # of connection points: 2
#     Edge 34, Type (0, 0), BuildingBlock: CIFDUS_clean_linker_0, # of connection points: 2
#     Edge 35, Type (0, 0), BuildingBlock: CIFDUS_clean_linker_0, # of connection points: 2
#     Edge 36, Type (0, 0), BuildingBlock: CIFDUS_clean_linker_0, # of connection points: 2
#     Edge 37, Type (0, 0), BuildingBlock: CIFDUS_clean_linker_0, # of connection points: 2
#     Edge 38, Type (0, 0), BuildingBlock: CIFDUS_clean_linker_0, # of connection points: 2
#     Edge 39, Type (0, 0), BuildingBlock: CIFDUS_clean_linker_0, # of connection points: 2
#     Edge 40, Type (0, 0), BuildingBlock: CIFDUS_clean_linker_0, # of connection points: 2
#     Edge 41, Type (0, 0), BuildingBlock: CIFDUS_clean_linker_0, # of connection points: 2
#     Edge 42, Type (0, 0), BuildingBlock: CIFDUS_clean_linker_0, # of connection points: 2
#     Edge 43, Type (0, 0), BuildingBlock: CIFDUS_clean_linker_0, # of connection points: 2
#     Edge 44, Type (0, 0), BuildingBlock: CIFDUS_clean_linker_0, # of connection points: 2
#     Edge 45, Type (0, 0), BuildingBlock: CIFDUS_clean_linker_0, # of connection points: 2
#     Edge 46, Type (0, 0), BuildingBlock: CIFDUS_clean_linker_0, # of connection points: 2
#     Edge 47, Type (0, 0), BuildingBlock: CIFDUS_clean_linker_0, # of connection points: 2
#     Edge 48, Type (0, 0), BuildingBlock: CIFDUS_clean_linker_0, # of connection points: 2
#     Edge 49, Type (0, 0), BuildingBlock: CIFDUS_clean_linker_0, # of connection points: 2
#     Edge 50, Type (0, 0), BuildingBlock: CIFDUS_clean_linker_0, # of connection points: 2
#     Edge 51, Type (0, 0), BuildingBlock: CIFDUS_clean_linker_0, # of connection points: 2
#     Edge 52, Type (0, 0), BuildingBlock: CIFDUS_clean_linker_0, # of connection points: 2
#     Edge 53, Type (0, 0), BuildingBlock: CIFDUS_clean_linker_0, # of connection points: 2
#     Edge 54, Type (0, 0), BuildingBlock: CIFDUS_clean_linker_0, # of connection points: 2
#     Edge 55, Type (0, 0), BuildingBlock: CIFDUS_clean_linker_0, # of connection points: 2
#     Edge 56, Type (0, 0), BuildingBlock: CIFDUS_clean_linker_0, # of connection points: 2
#     Edge 57, Type (0, 0), BuildingBlock: CIFDUS_clean_linker_0, # of connection points: 2
#     Edge 58, Type (0, 0), BuildingBlock: CIFDUS_clean_linker_0, # of connection points: 2
#     Edge 59, Type (0, 0), BuildingBlock: CIFDUS_clean_linker_0, # of connection points: 2
#     Edge 60, Type (0, 0), BuildingBlock: CIFDUS_clean_linker_0, # of connection points: 2
#     Edge 61, Type (0, 0), BuildingBlock: CIFDUS_clean_linker_0, # of connection points: 2
#     Edge 62, Type (0, 0), BuildingBlock: CIFDUS_clean_linker_0, # of connection points: 2
#     Edge 63, Type (0, 0), BuildingBlock: CIFDUS_clean_linker_0, # of connection points: 2
#     Edge 64, Type (0, 0), BuildingBlock: CIFDUS_clean_linker_0, # of connection points: 2
#     Edge 65, Type (0, 0), BuildingBlock: CIFDUS_clean_linker_0, # of connection points: 2
#     Edge 66, Type (0, 0), BuildingBlock: CIFDUS_clean_linker_0, # of connection points: 2
#     Edge 67, Type (0, 0), BuildingBlock: CIFDUS_clean_linker_0, # of connection points: 2
#     Edge 68, Type (0, 0), BuildingBlock: CIFDUS_clean_linker_0, # of connection points: 2
#     Edge 69, Type (0, 0), BuildingBlock: CIFDUS_clean_linker_0, # of connection points: 2
#     Edge 70, Type (0, 0), BuildingBlock: CIFDUS_clean_linker_0, # of connection points: 2
#     Edge 71, Type (0, 0), BuildingBlock: CIFDUS_clean_linker_0, # of connection points: 2
#     Edge 72, Type (0, 0), BuildingBlock: CIFDUS_clean_linker_0, # of connection points: 2
#     Edge 73, Type (0, 0), BuildingBlock: CIFDUS_clean_linker_0, # of connection points: 2
#     Edge 74, Type (0, 0), BuildingBlock: CIFDUS_clean_linker_0, # of connection points: 2
#     Edge 75, Type (0, 0), BuildingBlock: CIFDUS_clean_linker_0, # of connection points: 2
#     Edge 76, Type (0, 0), BuildingBlock: CIFDUS_clean_linker_0, # of connection points: 2
#     Edge 77, Type (0, 0), BuildingBlock: CIFDUS_clean_linker_0, # of connection points: 2
#     Edge 78, Type (0, 0), BuildingBlock: CIFDUS_clean_linker_0, # of connection points: 2
#     Edge 79, Type (0, 0), BuildingBlock: CIFDUS_clean_linker_0, # of connection points: 2
#     Edge 80, Type (0, 0), BuildingBlock: CIFDUS_clean_linker_0, # of connection points: 2
#     Edge 81, Type (0, 0), BuildingBlock: CIFDUS_clean_linker_0, # of connection points: 2
#     Edge 82, Type (0, 0), BuildingBlock: CIFDUS_clean_linker_0, # of connection points: 2
#     Edge 83, Type (0, 0), BuildingBlock: CIFDUS_clean_linker_0, # of connection points: 2
# Relax obj value: 0.922
# Max RMSD: 0.237
# Mean RMSD: 0.237
data_MOF--net-fce--node1-BEQFEK_clean_sbu_0--edge1-CIFDUS_clean_linker_0
_symmetry_space_group_name_H-M    P1
_symmetry_Int_Tables_number       1
_symmetry_cell_setting            triclinic
loop_
_symmetry_equiv_pos_as_xyz
'x, y, z'
_cell_length_a     43.187604
_cell_length_b     43.146346
_cell_length_c     43.121933
_cell_angle_alpha  89.977053
_cell_angle_beta   89.919884
_cell_angle_gamma 90.090197
loop_
_atom_site_label
_atom_site_type_symbol
_atom_site_fract_x
_atom_site_fract_y
_atom_site_fract_z
_atom_type_partial_charge
Co0 Co 0.14435 0.41792 0.23481 0.0
Co1 Co 0.18228 0.38854 0.28919 0.0
C2 C 0.16796 0.45531 0.28942 0.0
O3 O 0.15686 0.45334 0.26207 0.0
O4 O 0.17644 0.43134 0.30444 0.0
C5 C 0.11202 0.46057 0.19641 0.0
O6 O 0.12943 0.48078 0.21103 0.0
C7 C 0.19132 0.36564 0.35167 0.0
C8 C 0.22309 0.32617 0.34471 0.0
C9 C 0.20517 0.34097 0.36695 0.0
N10 N 0.2003 0.36508 0.32184 0.0
N11 N 0.21988 0.34192 0.31794 0.0
C12 C 0.16656 0.38673 0.36382 0.0
H13 H 0.15188 0.3954 0.34463 0.0
H14 H 0.15167 0.3747 0.38101 0.0
H15 H 0.17763 0.40689 0.37534 0.0
C16 C 0.09535 0.37809 0.2597 0.0
N17 N 0.12491 0.38774 0.25872 0.0
N18 N 0.14163 0.37194 0.27872 0.0
C19 C 0.1228 0.35095 0.29265 0.0
C20 C 0.0928 0.35462 0.28147 0.0
C21 C 0.06995 0.39178 0.24052 0.0
H22 H 0.07517 0.38767 0.21568 0.0
H23 H 0.0691 0.41721 0.24428 0.0
H24 H 0.04709 0.38133 0.24593 0.0
O25 O 0.1802 0.39672 0.2178 0.0
O26 O 0.2136 0.39603 0.25505 0.0
H27 H 0.15716 0.32314 0.31551 0.0
H28 H 0.11864 0.30749 0.31693 0.0
C29 C 0.1324 0.32917 0.31786 0.0
H30 H 0.12802 0.34001 0.34072 0.0
H31 H 0.22952 0.33571 0.29662 0.0
O32 O 0.11574 0.43193 0.20197 0.0
C33 C 0.20588 0.40596 0.22838 0.0
Co34 Co 0.5771 0.13124 0.22964 0.0
Co35 Co 0.5976 0.17233 0.28599 0.0
C36 C 0.53186 0.15907 0.27627 0.0
O37 O 0.5386 0.14674 0.25035 0.0
O38 O 0.55298 0.16779 0.29484 0.0
C39 C 0.54324 0.08314 0.21288 0.0
O40 O 0.53902 0.08691 0.2428 0.0
C41 C 0.60837 0.18362 0.35101 0.0
C42 C 0.6465 0.21774 0.35151 0.0
C43 C 0.62828 0.19936 0.37064 0.0
N44 N 0.61489 0.19177 0.32166 0.0
N45 N 0.63733 0.21262 0.32206 0.0
C46 C 0.58308 0.16139 0.35968 0.0
H47 H 0.58438 0.1404 0.34489 0.0
H48 H 0.58375 0.15485 0.3845 0.0
H49 H 0.56043 0.17258 0.35517 0.0
C50 C 0.61792 0.0854 0.26018 0.0
N51 N 0.60462 0.11356 0.25825 0.0
N52 N 0.616 0.13174 0.28001 0.0
C53 C 0.63715 0.11538 0.29637 0.0
C54 C 0.63871 0.08553 0.28451 0.0
C55 C 0.61163 0.0589 0.23871 0.0
H56 H 0.6097 0.0674 0.21454 0.0
H57 H 0.58948 0.04767 0.24538 0.0
H58 H 0.6303 0.04129 0.23997 0.0
O59 O 0.60002 0.16628 0.21259 0.0
O60 O 0.59692 0.2011 0.24897 0.0
H61 H 0.66104 0.15184 0.32033 0.0
H62 H 0.67576 0.11351 0.3281 0.0
C63 C 0.65451 0.12727 0.32388 0.0
H64 H 0.6396 0.12531 0.34468 0.0
H65 H 0.64724 0.22235 0.30222 0.0
O66 O 0.56259 0.10032 0.1988 0.0
C67 C 0.59034 0.19256 0.22142 0.0
Co68 Co 0.92007 0.56943 0.24059 0.0
Co69 Co 0.87003 0.59428 0.28673 0.0
C70 C 0.9032 0.53202 0.29357 0.0
O71 O 0.9222 0.53562 0.27129 0.0
O72 O 0.88354 0.55286 0.30027 0.0
C73 C 0.9543 0.53973 0.19175 0.0
O74 O 0.93158 0.51943 0.19181 0.0
C75 C 0.86152 0.61066 0.35021 0.0
C76 C 0.81626 0.63433 0.35222 0.0
C77 C 0.84141 0.62557 0.37018 0.0
N78 N 0.84919 0.61094 0.32169 0.0
N79 N 0.82202 0.62493 0.32292 0.0
C80 C 0.89127 0.59455 0.35797 0.0
H81 H 0.90852 0.59846 0.33928 0.0
H82 H 0.901 0.60196 0.38049 0.0
H83 H 0.88679 0.56927 0.3594 0.0
C84 C 0.95099 0.62685 0.2597 0.0
N85 N 0.92595 0.60832 0.25896 0.0
N86 N 0.90389 0.62034 0.27603 0.0
C87 C 0.91373 0.64783 0.28723 0.0
C88 C 0.94413 0.65281 0.27754 0.0
C89 C 0.98213 0.61719 0.24774 0.0
H90 H 0.98432 0.62431 0.22311 0.0
H91 H 0.98459 0.59166 0.24914 0.0
H92 H 0.00121 0.62791 0.26118 0.0
O93 O 0.87913 0.56475 0.22093 0.0
O94 O 0.8425 0.58402 0.25189 0.0
H95 H 0.86986 0.66694 0.30075 0.0
H96 H 0.90245 0.69313 0.30496 0.0
C97 C 0.89463 0.66871 0.30727 0.0
H98 H 0.8971 0.66171 0.33187 0.0
H99 H 0.80762 0.62835 0.30379 0.0
O100 O 0.95272 0.56302 0.20961 0.0
C101 C 0.85078 0.5701 0.22715 0.0
Co102 Co 0.41302 0.89115 0.2455 0.0
Co103 Co 0.38136 0.84158 0.28898 0.0
C104 C 0.4416 0.87328 0.30484 0.0
O105 O 0.44079 0.89176 0.28194 0.0
O106 O 0.42045 0.8533 0.30898 0.0
C107 C 0.43385 0.94941 0.23208 0.0
O108 O 0.4265 0.95146 0.26158 0.0
C109 C 0.35874 0.83161 0.35095 0.0
C110 C 0.32599 0.79253 0.34713 0.0
C111 C 0.33791 0.81402 0.36791 0.0
N112 N 0.35927 0.82108 0.3216 0.0
N113 N 0.33997 0.79736 0.3195 0.0
C114 C 0.37455 0.86081 0.36126 0.0
H115 H 0.37741 0.877 0.34147 0.0
H116 H 0.36117 0.87264 0.37976 0.0
H117 H 0.3978 0.85498 0.37048 0.0
C118 C 0.35243 0.92187 0.2528 0.0
N119 N 0.37113 0.89714 0.25621 0.0
N120 N 0.35808 0.87722 0.27528 0.0
C121 C 0.33107 0.88954 0.2852 0.0
C122 C 0.3274 0.91908 0.27272 0.0
C123 C 0.35938 0.94937 0.23282 0.0
H124 H 0.37483 0.94289 0.21344 0.0
H125 H 0.36985 0.96794 0.24714 0.0
H126 H 0.33775 0.95865 0.22264 0.0
O127 O 0.41915 0.85065 0.22695 0.0
O128 O 0.39629 0.81357 0.2547 0.0
H129 H 0.30746 0.84956 0.30312 0.0
H130 H 0.28629 0.88549 0.30686 0.0
C131 C 0.30957 0.87467 0.30805 0.0
H132 H 0.3185 0.87784 0.33188 0.0
H133 H 0.33536 0.78538 0.29899 0.0
O134 O 0.42946 0.92402 0.21791 0.0
C135 C 0.41311 0.82214 0.23176 0.0
Co136 Co 0.11958 0.57663 0.75831 0.0
Co137 Co 0.14538 0.60129 0.69487 0.0
C138 C 0.11495 0.54221 0.69638 0.0
O139 O 0.11316 0.54483 0.72564 0.0
O140 O 0.12428 0.56448 0.67961 0.0
C141 C 0.06589 0.5562 0.78389 0.0
O142 O 0.05704 0.56819 0.75735 0.0
C143 C 0.15335 0.61907 0.62959 0.0
C144 C 0.18143 0.66174 0.63288 0.0
C145 C 0.16615 0.64267 0.61211 0.0
N146 N 0.1607 0.62375 0.65957 0.0
N147 N 0.17791 0.64908 0.66129 0.0
C148 C 0.13213 0.59411 0.61816 0.0
H149 H 0.10978 0.59538 0.6308 0.0
H150 H 0.1276 0.59621 0.59293 0.0
H151 H 0.14272 0.57116 0.62281 0.0
C152 C 0.08639 0.63668 0.75647 0.0
N153 N 0.10808 0.61694 0.74582 0.0
N154 N 0.11768 0.62647 0.71849 0.0
C155 C 0.10111 0.65161 0.7103 0.0
C156 C 0.08052 0.65888 0.73404 0.0
C157 C 0.06883 0.63287 0.78616 0.0
H158 H 0.08186 0.61816 0.80267 0.0
H159 H 0.04585 0.62241 0.78138 0.0
H160 H 0.06462 0.65595 0.79673 0.0
O161 O 0.16366 0.57412 0.76717 0.0
O162 O 0.1802 0.58172 0.71887 0.0
H163 H 0.12304 0.67695 0.67383 0.0
H164 H 0.08168 0.68168 0.67496 0.0
C165 C 0.10081 0.66484 0.67819 0.0
H166 H 0.09852 0.64586 0.66101 0.0
H167 H 0.18614 0.65845 0.68201 0.0
O168 O 0.09394 0.55936 0.79214 0.0
C169 C 0.18466 0.57211 0.74652 0.0
Co170 Co 0.43191 0.11389 0.76969 0.0
Co171 Co 0.40826 0.15214 0.71269 0.0
C172 C 0.4754 0.1386 0.72157 0.0
O173 O 0.47081 0.12663 0.74823 0.0
O174 O 0.45288 0.14673 0.70436 0.0
C175 C 0.46692 0.08551 0.81804 0.0
O176 O 0.48595 0.10883 0.81335 0.0
C177 C 0.39501 0.15159 0.64739 0.0
C178 C 0.36195 0.18989 0.64057 0.0
C179 C 0.3766 0.16569 0.62532 0.0
N180 N 0.39126 0.16642 0.67452 0.0
N181 N 0.37181 0.18965 0.67027 0.0
C182 C 0.41605 0.12436 0.64295 0.0
H183 H 0.44002 0.13303 0.63957 0.0
H184 H 0.41604 0.1095 0.66392 0.0
H185 H 0.40959 0.11047 0.62233 0.0
C186 C 0.39361 0.06541 0.74 0.0
N187 N 0.40494 0.09442 0.74223 0.0
N188 N 0.39015 0.11271 0.72292 0.0
C189 C 0.36788 0.09608 0.70874 0.0
C190 C 0.3698 0.06541 0.71838 0.0
C191 C 0.40671 0.03812 0.7569 0.0
H192 H 0.43166 0.04185 0.76175 0.0
H193 H 0.40378 0.01652 0.74327 0.0
H194 H 0.39434 0.03538 0.77931 0.0
O195 O 0.40815 0.15016 0.78335 0.0
O196 O 0.40995 0.18427 0.74622 0.0
H197 H 0.32167 0.0968 0.69024 0.0
H198 H 0.35163 0.10711 0.66349 0.0
C199 C 0.3439 0.10952 0.68774 0.0
H200 H 0.34028 0.13442 0.69296 0.0
H201 H 0.36436 0.20452 0.68783 0.0
O202 O 0.44133 0.08493 0.8036 0.0
C203 C 0.41676 0.17665 0.77393 0.0
Co204 Co 0.87766 0.4145 0.75676 0.0
Co205 Co 0.83779 0.38483 0.70366 0.0
C206 C 0.86542 0.44687 0.69582 0.0
O207 O 0.87721 0.44522 0.72274 0.0
O208 O 0.85028 0.42437 0.68437 0.0
C209 C 0.93287 0.44065 0.77546 0.0
O210 O 0.93929 0.43315 0.74666 0.0
C211 C 0.82756 0.35931 0.6427 0.0
C212 C 0.79072 0.32454 0.65028 0.0
C213 C 0.81082 0.3362 0.62803 0.0
N214 N 0.81794 0.36118 0.67224 0.0
N215 N 0.79544 0.34082 0.67654 0.0
C216 C 0.85529 0.37629 0.63035 0.0
H217 H 0.87144 0.38218 0.64942 0.0
H218 H 0.86784 0.36222 0.61287 0.0
H219 H 0.84753 0.39812 0.6192 0.0
C220 C 0.91421 0.35676 0.74776 0.0
N221 N 0.88903 0.37457 0.74272 0.0
N222 N 0.87227 0.36209 0.72049 0.0
C223 C 0.88658 0.33603 0.71077 0.0
C224 C 0.91411 0.33232 0.7269 0.0
C225 C 0.93958 0.36431 0.77012 0.0
H226 H 0.93061 0.37855 0.78949 0.0
H227 H 0.95838 0.37687 0.75786 0.0
H228 H 0.94963 0.3428 0.77987 0.0
O229 O 0.83573 0.41548 0.77408 0.0
O230 O 0.80703 0.39914 0.73448 0.0
H231 H 0.85018 0.31146 0.68753 0.0
H232 H 0.88734 0.2926 0.68601 0.0
C233 C 0.8754 0.31536 0.68525 0.0
H234 H 0.88039 0.32619 0.66252 0.0
H235 H 0.78454 0.33687 0.6978 0.0
O236 O 0.90677 0.43318 0.78679 0.0
C237 C 0.80953 0.41148 0.76118 0.0
Co238 Co 0.56754 0.88963 0.77721 0.0
Co239 Co 0.60349 0.85406 0.72684 0.0
C240 C 0.53894 0.86424 0.71733 0.0
O241 O 0.53715 0.87375 0.74537 0.0
O242 O 0.56495 0.85949 0.70424 0.0
C243 C 0.51815 0.91498 0.81415 0.0
O244 O 0.50238 0.89049 0.80524 0.0
C245 C 0.63061 0.82962 0.6701 0.0
C246 C 0.68045 0.83023 0.6812 0.0
C247 C 0.65983 0.82732 0.65672 0.0
N248 N 0.63393 0.83534 0.70055 0.0
N249 N 0.66376 0.83458 0.70725 0.0
C250 C 0.59986 0.82638 0.65446 0.0
H251 H 0.58335 0.81432 0.67009 0.0
H252 H 0.59049 0.84973 0.64922 0.0
H253 H 0.60195 0.81298 0.63259 0.0
C254 C 0.60827 0.94068 0.75823 0.0
N255 N 0.59991 0.91065 0.75812 0.0
N256 N 0.61644 0.8954 0.73761 0.0
C257 C 0.63532 0.91579 0.72307 0.0
C258 C 0.63097 0.94509 0.73591 0.0
C259 C 0.59327 0.96488 0.77803 0.0
H260 H 0.59275 0.95685 0.80246 0.0
H261 H 0.56899 0.96826 0.77033 0.0
H262 H 0.60586 0.98729 0.7768 0.0
O263 O 0.58594 0.85552 0.79969 0.0
O264 O 0.58767 0.8245 0.75987 0.0
H265 H 0.67429 0.89669 0.69938 0.0
H266 H 0.65821 0.9302 0.68057 0.0
C267 C 0.65243 0.90883 0.69366 0.0
H268 H 0.63819 0.89365 0.67865 0.0
H269 H 0.67286 0.83973 0.72908 0.0
O270 O 0.54618 0.91789 0.80575 0.0
C271 C 0.57982 0.8294 0.78793 0.0
Co272 Co 0.25735 0.11141 0.42943 0.0
Co273 Co 0.29524 0.16209 0.39294 0.0
C274 C 0.31606 0.13654 0.45465 0.0
O275 O 0.2941 0.11686 0.45647 0.0
O276 O 0.31852 0.15455 0.43146 0.0
C277 C 0.2183 0.07332 0.47012 0.0
O278 O 0.21793 0.0966 0.48975 0.0
C279 C 0.3531 0.18181 0.3659 0.0
C280 C 0.33986 0.21458 0.32893 0.0
C281 C 0.36502 0.19992 0.34236 0.0
N282 N 0.32227 0.18565 0.36685 0.0
N283 N 0.31444 0.20555 0.34489 0.0
C284 C 0.3704 0.15849 0.3849 0.0
H285 H 0.35601 0.13745 0.38841 0.0
H286 H 0.39255 0.15183 0.37368 0.0
H287 H 0.37564 0.16869 0.40792 0.0
C288 C 0.26286 0.07868 0.37096 0.0
N289 N 0.26748 0.10422 0.38804 0.0
N290 N 0.28442 0.12413 0.37237 0.0
C291 C 0.29209 0.11098 0.34487 0.0
C292 C 0.27868 0.08166 0.34327 0.0
C293 C 0.24491 0.05097 0.38169 0.0
H294 H 0.2217 0.05857 0.38963 0.0
H295 H 0.25715 0.03995 0.40141 0.0
H296 H 0.24183 0.03369 0.36288 0.0
O297 O 0.2334 0.14891 0.43314 0.0
O298 O 0.25861 0.18668 0.40833 0.0
H299 H 0.3073 0.14863 0.31636 0.0
H300 H 0.3154 0.11071 0.30045 0.0
C301 C 0.31438 0.12463 0.32207 0.0
H302 H 0.3378 0.12545 0.33252 0.0
H303 H 0.29167 0.21205 0.34001 0.0
O304 O 0.23312 0.07587 0.44482 0.0
C305 C 0.23602 0.17712 0.42502 0.0
Co306 Co 0.89253 0.2332 0.42553 0.0
Co307 Co 0.8566 0.28629 0.39079 0.0
C308 C 0.86665 0.28818 0.4591 0.0
O309 O 0.87929 0.26155 0.45914 0.0
O310 O 0.85868 0.3014 0.43399 0.0
C311 C 0.92153 0.19561 0.4715 0.0
O312 O 0.90144 0.20916 0.48987 0.0
C313 C 0.85554 0.34896 0.36929 0.0
C314 C 0.81806 0.35018 0.33451 0.0
C315 C 0.84072 0.36816 0.34849 0.0
N316 N 0.84268 0.32071 0.36748 0.0
N317 N 0.82014 0.32149 0.34679 0.0
C318 C 0.88053 0.35746 0.39184 0.0
H319 H 0.89435 0.33677 0.39816 0.0
H320 H 0.89605 0.37563 0.38242 0.0
H321 H 0.86961 0.36671 0.41321 0.0
C322 C 0.94274 0.25417 0.38381 0.0
N323 N 0.91331 0.25508 0.39413 0.0
N324 N 0.89711 0.27424 0.37685 0.0
C325 C 0.91578 0.28559 0.35439 0.0
C326 C 0.94534 0.27356 0.35827 0.0
C327 C 0.9682 0.23686 0.39966 0.0
H328 H 0.96689 0.21209 0.39289 0.0
H329 H 0.96526 0.23842 0.42517 0.0
H330 H 0.99132 0.24606 0.3932 0.0
O331 O 0.85587 0.21518 0.40575 0.0
O332 O 0.82455 0.25288 0.39371 0.0
H333 H 0.91985 0.30317 0.30781 0.0
H334 H 0.90892 0.33125 0.33637 0.0
C335 C 0.90564 0.30689 0.32896 0.0
H336 H 0.88093 0.30293 0.32331 0.0
H337 H 0.80643 0.30245 0.34088 0.0
O338 O 0.92046 0.20119 0.44258 0.0
C339 C 0.82969 0.22817 0.40902 0.0
Co340 Co 0.73947 0.88385 0.43459 0.0
Co341 Co 0.68245 0.8459 0.4141 0.0
C342 C 0.68814 0.86593 0.47828 0.0
O343 O 0.71577 0.87464 0.4729 0.0
O344 O 0.67005 0.85759 0.45659 0.0
C345 C 0.78454 0.91255 0.47239 0.0
O346 O 0.77704 0.88986 0.49128 0.0
C347 C 0.61842 0.83724 0.39859 0.0
C348 C 0.61844 0.79721 0.36669 0.0
C349 C 0.59942 0.81942 0.37998 0.0
N350 N 0.64744 0.82647 0.39613 0.0
N351 N 0.64735 0.80225 0.37738 0.0
C352 C 0.60939 0.86386 0.41902 0.0
H353 H 0.60952 0.8559 0.44348 0.0
H354 H 0.62663 0.88285 0.41693 0.0
H355 H 0.58592 0.87269 0.41376 0.0
C356 C 0.71263 0.92908 0.39063 0.0
N357 N 0.71426 0.90074 0.40362 0.0
N358 N 0.69313 0.8826 0.39141 0.0
C359 C 0.67815 0.89851 0.36907 0.0
C360 C 0.6895 0.92875 0.3682 0.0
C361 C 0.73026 0.95659 0.40239 0.0
H362 H 0.75333 0.95725 0.39107 0.0
H363 H 0.73373 0.95462 0.42779 0.0
H364 H 0.71796 0.97858 0.39743 0.0
O365 O 0.75772 0.84528 0.41965 0.0
O366 O 0.71626 0.81566 0.42315 0.0
H367 H 0.65826 0.85991 0.34463 0.0
H368 H 0.65369 0.89701 0.3256 0.0
C369 C 0.6539 0.88495 0.34834 0.0
H370 H 0.63084 0.88783 0.35914 0.0
H371 H 0.66711 0.78983 0.37112 0.0
O372 O 0.77234 0.91342 0.44562 0.0
C373 C 0.74537 0.81933 0.42613 0.0
Co374 Co 0.13037 0.76662 0.40797 0.0
Co375 Co 0.16317 0.7063 0.38548 0.0
C376 C 0.13005 0.70396 0.44282 0.0
O377 O 0.12587 0.73288 0.439 0.0
O378 O 0.14203 0.68754 0.42146 0.0
C379 C 0.07358 0.78693 0.42546 0.0
O380 O 0.06786 0.75957 0.41341 0.0
C381 C 0.17741 0.64473 0.36041 0.0
C382 C 0.2147 0.65525 0.32688 0.0
C383 C 0.19596 0.63149 0.33772 0.0
N384 N 0.18482 0.67494 0.36285 0.0
N385 N 0.20748 0.68095 0.34308 0.0
C386 C 0.15058 0.62988 0.37677 0.0
H387 H 0.15872 0.62015 0.39914 0.0
H388 H 0.13232 0.64716 0.38172 0.0
H389 H 0.14047 0.61087 0.36273 0.0
C390 C 0.10022 0.76195 0.34674 0.0
N391 N 0.12183 0.75326 0.36747 0.0
N392 N 0.13443 0.72707 0.35843 0.0
C393 C 0.12022 0.71783 0.33211 0.0
C394 C 0.09756 0.7393 0.32417 0.0
C395 C 0.08037 0.79023 0.34942 0.0
H396 H 0.09163 0.80789 0.36431 0.0
H397 H 0.05747 0.78392 0.35923 0.0
H398 H 0.0762 0.80012 0.32603 0.0
O399 O 0.17285 0.78052 0.41179 0.0
O400 O 0.1934 0.73361 0.40821 0.0
H401 H 0.14932 0.68266 0.31281 0.0
H402 H 0.11151 0.68456 0.2955 0.0
C403 C 0.12446 0.68662 0.31759 0.0
H404 H 0.11609 0.6685 0.33376 0.0
H405 H 0.21696 0.70294 0.33959 0.0
O406 O 0.10092 0.79765 0.4239 0.0
C407 C 0.19445 0.7615 0.41798 0.0
Co408 Co 0.24869 0.87297 0.58429 0.0
Co409 Co 0.303 0.83217 0.60782 0.0
C410 C 0.30482 0.85665 0.5448 0.0
O411 O 0.27745 0.86698 0.54863 0.0
O412 O 0.32024 0.84552 0.56735 0.0
C413 C 0.20895 0.90994 0.54598 0.0
O414 O 0.21424 0.88857 0.52492 0.0
C415 C 0.36364 0.81841 0.6317 0.0
C416 C 0.35439 0.78158 0.6661 0.0
C417 C 0.37732 0.80141 0.65529 0.0
N418 N 0.334 0.8094 0.62911 0.0
N419 N 0.32877 0.78677 0.64909 0.0
C420 C 0.37666 0.84631 0.61545 0.0
H421 H 0.3888 0.83867 0.5941 0.0
H422 H 0.35787 0.86244 0.60878 0.0
H423 H 0.39341 0.85892 0.63029 0.0
C424 C 0.2668 0.91098 0.63769 0.0
N425 N 0.26887 0.88479 0.6209 0.0
N426 N 0.29047 0.86691 0.63261 0.0
C427 C 0.3023 0.88116 0.65797 0.0
C428 C 0.28811 0.90978 0.66161 0.0
C429 C 0.24645 0.9378 0.62954 0.0
H430 H 0.22209 0.92977 0.62818 0.0
H431 H 0.25325 0.947 0.60647 0.0
H432 H 0.24801 0.95661 0.64703 0.0
O433 O 0.22708 0.83355 0.58928 0.0
O434 O 0.26907 0.8043 0.59344 0.0
H435 H 0.327 0.84376 0.67942 0.0
H436 H 0.32802 0.87948 0.70078 0.0
C437 C 0.32851 0.86924 0.67721 0.0
H438 H 0.35078 0.87586 0.66632 0.0
H439 H 0.30714 0.77659 0.65277 0.0
O440 O 0.21974 0.90627 0.57306 0.0
C441 C 0.24059 0.80752 0.58635 0.0
Co442 Co 0.1192 0.24067 0.56874 0.0
Co443 Co 0.15386 0.29417 0.60391 0.0
C444 C 0.14501 0.2968 0.53598 0.0
O445 O 0.13347 0.26964 0.536 0.0
O446 O 0.15151 0.31073 0.56115 0.0
C447 C 0.09023 0.20513 0.52125 0.0
O448 O 0.10814 0.22196 0.50328 0.0
C449 C 0.15538 0.35634 0.62694 0.0
C450 C 0.19326 0.35673 0.66129 0.0
C451 C 0.17075 0.3751 0.64771 0.0
N452 N 0.16779 0.32791 0.62829 0.0
N453 N 0.19051 0.32817 0.64881 0.0
C454 C 0.13036 0.36562 0.60479 0.0
H455 H 0.14119 0.37589 0.58381 0.0
H456 H 0.11651 0.34516 0.59768 0.0
H457 H 0.11491 0.3833 0.61518 0.0
C458 C 0.06816 0.26014 0.60921 0.0
N459 N 0.09773 0.26187 0.59962 0.0
N460 N 0.11324 0.28105 0.61755 0.0
C461 C 0.0938 0.29151 0.63982 0.0
C462 C 0.06466 0.27878 0.63506 0.0
C463 C 0.0437 0.2413 0.59346 0.0
H464 H 0.04889 0.21638 0.59696 0.0
H465 H 0.04412 0.24602 0.56817 0.0
H466 H 0.0203 0.2462 0.60291 0.0
O467 O 0.15486 0.22319 0.59018 0.0
O468 O 0.18661 0.26145 0.59869 0.0
H469 H 0.1268 0.31282 0.6705 0.0
H470 H 0.08769 0.31111 0.68531 0.0
C471 C 0.10202 0.31473 0.66423 0.0
H472 H 0.09716 0.33839 0.65549 0.0
H473 H 0.2041 0.30893 0.65426 0.0
O474 O 0.09212 0.20841 0.55047 0.0
C475 C 0.18102 0.23569 0.58537 0.0
Co476 Co 0.74221 0.11255 0.56236 0.0
Co477 Co 0.70517 0.16466 0.5963 0.0
C478 C 0.68705 0.1385 0.53324 0.0
O479 O 0.70763 0.11745 0.53342 0.0
O480 O 0.68447 0.1577 0.55551 0.0
C481 C 0.78393 0.08236 0.52209 0.0
O482 O 0.7819 0.10849 0.50657 0.0
C483 C 0.6462 0.18069 0.6219 0.0
C484 C 0.65658 0.21457 0.6588 0.0
C485 C 0.63285 0.19734 0.64573 0.0
N486 N 0.67644 0.18767 0.62065 0.0
N487 N 0.68253 0.2084 0.6424 0.0
C488 C 0.63148 0.15514 0.60353 0.0
H489 H 0.64829 0.13609 0.59977 0.0
H490 H 0.6106 0.14581 0.61534 0.0
H491 H 0.62452 0.16436 0.58055 0.0
C492 C 0.72843 0.07796 0.61859 0.0
N493 N 0.72836 0.10444 0.60222 0.0
N494 N 0.71369 0.1262 0.61765 0.0
C495 C 0.7043 0.11404 0.64504 0.0
C496 C 0.71327 0.08309 0.64646 0.0
C497 C 0.73924 0.04759 0.6057 0.0
H498 H 0.76488 0.04661 0.607 0.0
H499 H 0.73249 0.04572 0.58096 0.0
H500 H 0.72938 0.0276 0.61852 0.0
O501 O 0.76625 0.15037 0.56041 0.0
O502 O 0.74283 0.1893 0.58458 0.0
H503 H 0.68846 0.11954 0.69221 0.0
H504 H 0.66183 0.1322 0.6628 0.0
C505 C 0.68662 0.13127 0.66937 0.0
H506 H 0.69566 0.15519 0.67145 0.0
H507 H 0.70464 0.21688 0.64727 0.0
O508 O 0.76895 0.07928 0.54728 0.0
C509 C 0.76533 0.17858 0.56865 0.0
Co510 Co 0.90286 0.74068 0.57431 0.0
Co511 Co 0.85185 0.69398 0.59719 0.0
C512 C 0.88763 0.68487 0.5379 0.0
O513 O 0.90548 0.70777 0.5426 0.0
O514 O 0.86662 0.67792 0.55724 0.0
C515 C 0.96293 0.75723 0.55908 0.0
O516 O 0.96673 0.7279 0.56631 0.0
C517 C 0.84027 0.63109 0.61478 0.0
C518 C 0.79511 0.63167 0.63882 0.0
C519 C 0.81943 0.61242 0.63045 0.0
N520 N 0.82921 0.66013 0.61432 0.0
N521 N 0.80203 0.6604 0.62843 0.0
C522 C 0.8699 0.62164 0.59925 0.0
H523 H 0.88784 0.63974 0.60276 0.0
H524 H 0.87862 0.59901 0.6075 0.0
H525 H 0.86568 0.61952 0.57398 0.0
C526 C 0.92779 0.72847 0.63744 0.0
N527 N 0.90589 0.72553 0.61537 0.0
N528 N 0.88477 0.70564 0.62483 0.0
C529 C 0.8931 0.69493 0.65303 0.0
C530 C 0.9212 0.70817 0.66162 0.0
C531 C 0.95566 0.74897 0.63467 0.0
H532 H 0.951 0.76841 0.61868 0.0
H533 H 0.97573 0.73522 0.62642 0.0
H534 H 0.9618 0.75924 0.65733 0.0
O535 O 0.86279 0.7606 0.56736 0.0
O536 O 0.82525 0.72922 0.58418 0.0
H537 H 0.84999 0.67685 0.67002 0.0
H538 H 0.88228 0.67218 0.69626 0.0
C539 C 0.87507 0.67175 0.67156 0.0
H540 H 0.87931 0.64818 0.66235 0.0
H541 H 0.78851 0.68021 0.63148 0.0
O542 O 0.93639 0.76944 0.56224 0.0
C543 C 0.83421 0.75425 0.5711 0.0
Co544 Co 0.41854 0.24608 0.12373 0.0
Co545 Co 0.38709 0.29311 0.16873 0.0
C546 C 0.45124 0.30189 0.15269 0.0
O547 O 0.45044 0.27562 0.13932 0.0
O548 O 0.42662 0.31495 0.16212 0.0
C549 C 0.44827 0.24378 0.06891 0.0
O550 O 0.44316 0.27335 0.07403 0.0
C551 C 0.36006 0.35117 0.18763 0.0
C552 C 0.32091 0.33721 0.21751 0.0
C553 C 0.33437 0.36264 0.20309 0.0
N554 N 0.36163 0.32044 0.19248 0.0
N555 N 0.33864 0.31229 0.21105 0.0
C556 C 0.37975 0.36802 0.16438 0.0
H557 H 0.40146 0.37566 0.1758 0.0
H558 H 0.38589 0.35245 0.14489 0.0
H559 H 0.36783 0.38866 0.15484 0.0
C560 C 0.36604 0.26504 0.08304 0.0
N561 N 0.38156 0.26538 0.11022 0.0
N562 N 0.36761 0.28437 0.12955 0.0
C563 C 0.3432 0.29722 0.11476 0.0
C564 C 0.34192 0.2862 0.08452 0.0
C565 C 0.37473 0.24573 0.05557 0.0
H566 H 0.38818 0.22519 0.0628 0.0
H567 H 0.38826 0.26002 0.03905 0.0
H568 H 0.35389 0.23724 0.04334 0.0
O569 O 0.40814 0.2195 0.1586 0.0
O570 O 0.40283 0.25658 0.1934 0.0
H571 H 0.31508 0.31271 0.15271 0.0
H572 H 0.29936 0.32114 0.11499 0.0
C573 C 0.32101 0.31986 0.12879 0.0
H574 H 0.33154 0.34325 0.12922 0.0
H575 H 0.3337 0.28946 0.21738 0.0
O576 O 0.43923 0.22416 0.08896 0.0
C577 C 0.41341 0.23002 0.18564 0.0
Co578 Co 0.41126 0.76873 0.87686 0.0
Co579 Co 0.38282 0.71701 0.83401 0.0
C580 C 0.44849 0.71446 0.85451 0.0
O581 O 0.44672 0.74059 0.86811 0.0
O582 O 0.42491 0.70189 0.84212 0.0
C583 C 0.45183 0.80547 0.91359 0.0
O584 O 0.47305 0.79088 0.89741 0.0
C585 C 0.36356 0.65389 0.82575 0.0
C586 C 0.32764 0.65633 0.78946 0.0
C587 C 0.34182 0.63617 0.81014 0.0
N588 N 0.36217 0.68307 0.81499 0.0
N589 N 0.34112 0.68434 0.79283 0.0
C590 C 0.3822 0.64458 0.85356 0.0
H591 H 0.3872 0.66495 0.86839 0.0
H592 H 0.36982 0.62696 0.86765 0.0
H593 H 0.40451 0.63457 0.84566 0.0
C594 C 0.36466 0.74489 0.92032 0.0
N595 N 0.3777 0.74602 0.89203 0.0
N596 N 0.36297 0.72718 0.87311 0.0
C597 C 0.33935 0.7139 0.88902 0.0
C598 C 0.34008 0.72421 0.91961 0.0
C599 C 0.37602 0.76309 0.94758 0.0
H600 H 0.37416 0.78815 0.94219 0.0
H601 H 0.40082 0.75778 0.9517 0.0
H602 H 0.36237 0.75824 0.96884 0.0
O603 O 0.3963 0.78791 0.83864 0.0
O604 O 0.39279 0.75136 0.80398 0.0
H605 H 0.31511 0.69294 0.85086 0.0
H606 H 0.29468 0.69155 0.88705 0.0
C607 C 0.31785 0.68989 0.87617 0.0
H608 H 0.32702 0.66648 0.88128 0.0
H609 H 0.33476 0.70462 0.78128 0.0
O610 O 0.42348 0.8003 0.90777 0.0
C611 C 0.40472 0.77695 0.81268 0.0
Co612 Co 0.24904 0.42629 0.87749 0.0
Co613 Co 0.30766 0.39949 0.84475 0.0
C614 C 0.30797 0.4634 0.86518 0.0
O615 O 0.27963 0.46026 0.87271 0.0
O616 O 0.32421 0.44024 0.85702 0.0
C617 C 0.20886 0.46976 0.9068 0.0
O618 O 0.21689 0.48755 0.88338 0.0
C619 C 0.37049 0.37778 0.83483 0.0
C620 C 0.36424 0.33883 0.80219 0.0
C621 C 0.38627 0.35441 0.81959 0.0
N622 N 0.3405 0.37624 0.82677 0.0
N623 N 0.33694 0.35322 0.80686 0.0
C624 C 0.38291 0.39883 0.8595 0.0
H625 H 0.36504 0.40302 0.8775 0.0
H626 H 0.40382 0.38893 0.87063 0.0
H627 H 0.38915 0.42141 0.84885 0.0
C628 C 0.26055 0.37398 0.91951 0.0
N629 N 0.26658 0.38981 0.8933 0.0
N630 N 0.29071 0.37759 0.87936 0.0
C631 C 0.30065 0.35323 0.89637 0.0
C632 C 0.28185 0.35024 0.92237 0.0
C633 C 0.23666 0.38323 0.94288 0.0
H634 H 0.21402 0.38635 0.93118 0.0
H635 H 0.24342 0.40572 0.9534 0.0
H636 H 0.23422 0.3656 0.96148 0.0
O637 O 0.23198 0.42024 0.83595 0.0
O638 O 0.277 0.41187 0.81232 0.0
H639 H 0.32983 0.32766 0.86546 0.0
H640 H 0.3314 0.31469 0.90524 0.0
C641 C 0.32959 0.33531 0.88997 0.0
H642 H 0.34998 0.35037 0.89401 0.0
H643 H 0.31568 0.34646 0.79759 0.0
O644 O 0.21791 0.44177 0.90715 0.0
C645 C 0.24842 0.41927 0.81143 0.0
Co646 Co 0.58678 0.21903 0.87847 0.0
Co647 Co 0.61143 0.27805 0.84471 0.0
C648 C 0.54749 0.27586 0.86201 0.0
O649 O 0.55193 0.24761 0.8688 0.0
O650 O 0.57017 0.29362 0.85612 0.0
C651 C 0.55739 0.2104 0.9306 0.0
O652 O 0.56537 0.23973 0.92861 0.0
C653 C 0.62998 0.34211 0.83893 0.0
C654 C 0.65905 0.34358 0.79682 0.0
C655 C 0.6472 0.36187 0.82045 0.0
N656 N 0.63183 0.31331 0.82716 0.0
N657 N 0.64925 0.31428 0.80195 0.0
C658 C 0.60997 0.35077 0.86598 0.0
H659 H 0.58655 0.3568 0.85732 0.0
H660 H 0.60771 0.33101 0.88228 0.0
H661 H 0.6192 0.37116 0.87854 0.0
C662 C 0.63851 0.23294 0.92056 0.0
N663 N 0.62203 0.23858 0.89474 0.0
N664 N 0.63327 0.26313 0.88059 0.0
C665 C 0.65715 0.27424 0.89759 0.0
C666 C 0.66084 0.25571 0.92379 0.0
C667 C 0.63294 0.20632 0.94217 0.0
H668 H 0.62417 0.18597 0.92916 0.0
H669 H 0.61552 0.21301 0.95985 0.0
H670 H 0.65462 0.20004 0.95446 0.0
O671 O 0.59855 0.20098 0.83895 0.0
O672 O 0.59891 0.24534 0.81311 0.0
H673 H 0.67788 0.30596 0.86527 0.0
H674 H 0.69713 0.30424 0.9021 0.0
C675 C 0.67426 0.30363 0.89058 0.0
H676 H 0.66066 0.32365 0.8991 0.0
H677 H 0.65428 0.29504 0.78816 0.0
O678 O 0.56701 0.19162 0.91 0.0
C679 C 0.5917 0.21656 0.81481 0.0
Co680 Co 0.74072 0.57879 0.87268 0.0
Co681 Co 0.68427 0.59647 0.83149 0.0
C682 C 0.68573 0.53647 0.86474 0.0
O683 O 0.71246 0.54257 0.87556 0.0
O684 O 0.67072 0.55631 0.84894 0.0
C685 C 0.78789 0.54677 0.90475 0.0
O686 O 0.78527 0.52739 0.88141 0.0
C687 C 0.62082 0.61333 0.82033 0.0
C688 C 0.62279 0.6404 0.77691 0.0
C689 C 0.60297 0.63067 0.80025 0.0
N690 N 0.64997 0.61291 0.8096 0.0
N691 N 0.651 0.62867 0.78333 0.0
C692 C 0.61062 0.59791 0.84976 0.0
H693 H 0.62962 0.59816 0.86705 0.0
H694 H 0.5897 0.60907 0.85962 0.0
H695 H 0.60494 0.57334 0.84466 0.0
C696 C 0.7224 0.63473 0.90587 0.0
N697 N 0.72047 0.61604 0.88101 0.0
N698 N 0.69745 0.62492 0.86326 0.0
C699 C 0.68439 0.65031 0.87628 0.0
C700 C 0.69936 0.65692 0.90402 0.0
C701 C 0.74349 0.62907 0.93281 0.0
H702 H 0.76778 0.62811 0.92449 0.0
H703 H 0.73777 0.60637 0.94353 0.0
H704 H 0.74149 0.64761 0.95053 0.0
O705 O 0.7587 0.57777 0.83111 0.0
O706 O 0.71648 0.5815 0.8021 0.0
H707 H 0.65514 0.66581 0.83915 0.0
H708 H 0.65496 0.6904 0.8729 0.0
C709 C 0.65578 0.66602 0.8648 0.0
H710 H 0.63515 0.65396 0.8742 0.0
H711 H 0.67118 0.63254 0.77052 0.0
O712 O 0.77285 0.57197 0.90399 0.0
C713 C 0.74439 0.57276 0.80581 0.0
Co714 Co 0.55752 0.7682 0.10689 0.0
Co715 Co 0.57882 0.71109 0.14718 0.0
C716 C 0.51147 0.72506 0.13507 0.0
O717 O 0.51699 0.75016 0.12042 0.0
O718 O 0.53337 0.70787 0.14471 0.0
C719 C 0.52581 0.81578 0.07385 0.0
O720 O 0.50345 0.80958 0.09358 0.0
C721 C 0.58773 0.64522 0.14422 0.0
C722 C 0.61783 0.63462 0.18411 0.0
C723 C 0.60384 0.62148 0.15831 0.0
N724 N 0.59235 0.67139 0.16046 0.0
N725 N 0.60999 0.66488 0.18461 0.0
C726 C 0.56835 0.64303 0.11546 0.0
H727 H 0.5509 0.66174 0.11473 0.0
H728 H 0.5832 0.64537 0.09464 0.0
H729 H 0.55667 0.62012 0.11432 0.0
C730 C 0.59242 0.73442 0.05873 0.0
N731 N 0.58128 0.73774 0.0877 0.0
N732 N 0.59568 0.71861 0.10649 0.0
C733 C 0.6176 0.70345 0.09026 0.0
C734 C 0.61579 0.71231 0.05928 0.0
C735 C 0.58013 0.75149 0.03117 0.0
H736 H 0.59421 0.7727 0.02743 0.0
H737 H 0.55572 0.75842 0.03519 0.0
H738 H 0.58152 0.73695 0.01 0.0
O739 O 0.58441 0.77887 0.14217 0.0
O740 O 0.58358 0.74487 0.17878 0.0
H741 H 0.64487 0.6896 0.12968 0.0
H742 H 0.66483 0.68795 0.09269 0.0
C743 C 0.64241 0.684 0.1047 0.0
H744 H 0.63666 0.65917 0.10233 0.0
H745 H 0.61758 0.68125 0.20073 0.0
O746 O 0.55183 0.80261 0.0774 0.0
C747 C 0.57502 0.77131 0.16896 0.0
Co748 Co 0.23844 0.56646 0.11568 0.0
Co749 Co 0.28134 0.60191 0.1627 0.0
C750 C 0.28738 0.53406 0.15402 0.0
O751 O 0.26367 0.53363 0.13637 0.0
O752 O 0.29868 0.55944 0.1641 0.0
C753 C 0.20658 0.5199 0.08061 0.0
O754 O 0.21397 0.50194 0.10405 0.0
C755 C 0.33984 0.62791 0.18125 0.0
C756 C 0.32688 0.67087 0.20588 0.0
C757 C 0.35202 0.65448 0.19448 0.0
N758 N 0.30896 0.62852 0.18451 0.0
N759 N 0.30131 0.65388 0.19991 0.0
C760 C 0.3566 0.60486 0.1614 0.0
H761 H 0.34115 0.59599 0.14289 0.0
H762 H 0.37753 0.61521 0.15059 0.0
H763 H 0.36388 0.58503 0.17606 0.0
C764 C 0.26901 0.60766 0.07076 0.0
N765 N 0.2642 0.5973 0.09981 0.0
N766 N 0.27906 0.61501 0.11973 0.0
C767 C 0.29378 0.63755 0.1036 0.0
C768 C 0.28802 0.63351 0.07217 0.0
C769 C 0.2567 0.5921 0.04231 0.0
H770 H 0.25848 0.56658 0.04487 0.0
H771 H 0.26944 0.59947 0.02119 0.0
H772 H 0.23188 0.59809 0.03961 0.0
O773 O 0.21308 0.58881 0.14567 0.0
O774 O 0.24156 0.59557 0.18639 0.0
H775 H 0.31341 0.68355 0.1018 0.0
H776 H 0.33622 0.65528 0.12194 0.0
C777 C 0.31225 0.66331 0.11767 0.0
H778 H 0.30165 0.67072 0.13982 0.0
H779 H 0.27854 0.66066 0.20441 0.0
O780 O 0.2135 0.5485 0.08173 0.0
C781 C 0.21818 0.58267 0.17389 0.0
Co782 Co 0.7213 0.42928 0.0988 0.0
Co783 Co 0.69401 0.39467 0.15638 0.0
C784 C 0.66564 0.45289 0.1264 0.0
O785 O 0.68334 0.45396 0.10279 0.0
O786 O 0.66903 0.43211 0.14703 0.0
C787 C 0.76316 0.46586 0.06183 0.0
O788 O 0.76476 0.48412 0.08614 0.0
C789 C 0.63746 0.36641 0.17467 0.0
C790 C 0.64836 0.33712 0.21514 0.0
C791 C 0.62453 0.34567 0.19535 0.0
N792 N 0.66737 0.37049 0.18195 0.0
N793 N 0.67384 0.35318 0.2064 0.0
C794 C 0.62277 0.3789 0.14576 0.0
H795 H 0.64049 0.38337 0.1277 0.0
H796 H 0.60536 0.36244 0.1364 0.0
H797 H 0.61092 0.40102 0.15129 0.0
C798 C 0.71294 0.36886 0.07032 0.0
N799 N 0.71293 0.38718 0.09545 0.0
N800 N 0.70324 0.37153 0.1197 0.0
C801 C 0.69726 0.34212 0.1107 0.0
C802 C 0.70327 0.33947 0.07907 0.0
C803 C 0.7174 0.38081 0.03796 0.0
H804 H 0.74244 0.38038 0.03221 0.0
H805 H 0.70908 0.40505 0.03625 0.0
H806 H 0.70473 0.36662 0.02069 0.0
O807 O 0.74563 0.43854 0.13568 0.0
O808 O 0.73118 0.41232 0.17759 0.0
H809 H 0.68998 0.29401 0.12204 0.0
H810 H 0.65913 0.31972 0.13305 0.0
C811 C 0.68464 0.31734 0.13144 0.0
H812 H 0.69458 0.31965 0.15501 0.0
H813 H 0.69578 0.35142 0.21635 0.0
O814 O 0.74568 0.44221 0.06258 0.0
C815 C 0.74875 0.43216 0.16428 0.0
H816 H 0.96572 0.33191 0.34961 0.0
H817 H 0.98907 0.23664 0.33132 0.0
H818 H 0.03705 0.25308 0.30543 0.0
H819 H 0.07228 0.29507 0.28798 0.0
H820 H 0.04871 0.39002 0.30796 0.0
H821 H 0.00053 0.37339 0.33264 0.0
C822 C 0.98116 0.31481 0.33958 0.0
C823 C 0.97393 0.2832 0.34202 0.0
C824 C 0.00857 0.32444 0.32503 0.0
C825 C 0.99434 0.26114 0.32963 0.0
C826 C 0.02167 0.27053 0.31485 0.0
C827 C 0.05662 0.31196 0.29797 0.0
C828 C 0.06384 0.34367 0.29617 0.0
C829 C 0.02908 0.30216 0.31247 0.0
C830 C 0.04335 0.36549 0.30888 0.0
C831 C 0.01592 0.35601 0.32307 0.0
H832 H 0.71944 0.97603 0.33845 0.0
H833 H 0.62836 0.94275 0.36289 0.0
H834 H 0.60487 0.98738 0.33779 0.0
H835 H 0.60999 0.03696 0.31048 0.0
H836 H 0.70053 0.07323 0.28952 0.0
H837 H 0.72463 0.02693 0.3123 0.0
C838 C 0.69447 0.97867 0.33831 0.0
C839 C 0.67569 0.95576 0.35201 0.0
C840 C 0.68108 0.00515 0.32482 0.0
C841 C 0.64336 0.95943 0.35163 0.0
C842 C 0.62987 0.98521 0.33765 0.0
C843 C 0.635 0.03458 0.31095 0.0
C844 C 0.65361 0.05817 0.29853 0.0
C845 C 0.64848 0.00827 0.32435 0.0
C846 C 0.68593 0.05522 0.29922 0.0
C847 C 0.69961 0.02879 0.31211 0.0
H848 H 0.04482 0.72483 0.35296 0.0
H849 H 0.08536 0.73357 0.26211 0.0
H850 H 0.03831 0.71149 0.23873 0.0
H851 H 0.98816 0.68447 0.24531 0.0
H852 H 0.95161 0.67096 0.33752 0.0
H853 H 0.99377 0.70136 0.35919 0.0
C854 C 0.04293 0.72263 0.32796 0.0
C855 C 0.0681 0.73094 0.30909 0.0
C856 C 0.01646 0.70915 0.31505 0.0
C857 C 0.06597 0.72745 0.27686 0.0
C858 C 0.03921 0.71475 0.26363 0.0
C859 C 0.98931 0.6886 0.27009 0.0
C860 C 0.9667 0.67561 0.28973 0.0
C861 C 0.01466 0.70472 0.28262 0.0
C862 C 0.96823 0.68123 0.32177 0.0
C863 C 0.99266 0.69823 0.33427 0.0
H864 H 0.29363 0.9687 0.25157 0.0
H865 H 0.33724 0.93095 0.33331 0.0
H866 H 0.32779 0.97876 0.36121 0.0
H867 H 0.30976 0.032 0.36207 0.0
H868 H 0.26652 0.07181 0.28154 0.0
H869 H 0.275 0.02326 0.25265 0.0
C870 C 0.30083 0.97097 0.27552 0.0
C871 C 0.31566 0.94605 0.29042 0.0
C872 C 0.29644 -0.00077 0.29123 0.0
C873 C 0.3248 0.94926 0.32154 0.0
C874 C 0.32003 0.97688 0.33738 0.0
C875 C 0.30246 0.03006 0.33806 0.0
C876 C 0.28776 0.05517 0.32372 0.0
C877 C 0.30642 0.00209 0.32231 0.0
C878 C 0.27826 0.05269 0.29275 0.0
C879 C 0.28273 0.02488 0.27649 0.0
H880 H 0.96068 0.73576 0.70329 0.0
H881 H 0.93561 0.64722 0.66401 0.0
H882 H 0.98087 0.62351 0.68729 0.0
H883 H 0.03153 0.62929 0.71154 0.0
H884 H 0.06148 0.71855 0.74446 0.0
H885 H 0.01121 0.74113 0.7299 0.0
C886 C 0.96527 0.71137 0.69969 0.0
C887 C 0.94493 0.69345 0.68157 0.0
C888 C 0.99264 0.69822 0.71141 0.0
C889 C 0.95048 0.66153 0.67825 0.0
C890 C 0.97671 0.64799 0.69113 0.0
C891 C 0.02672 0.6536 0.71588 0.0
C892 C 0.04973 0.67243 0.72887 0.0
C893 C -0.00154 0.66633 0.70665 0.0
C894 C 0.04379 0.70385 0.73442 0.0
C895 C 0.01518 0.71663 0.72608 0.0
H896 H 0.3419 0.01618 0.74701 0.0
H897 H 0.36466 0.05367 0.65705 0.0
H898 H 0.34038 0.00942 0.63185 0.0
H899 H 0.31398 0.95948 0.63511 0.0
H900 H 0.29194 0.9201 0.7242 0.0
H901 H 0.31512 0.96526 0.75021 0.0
C902 C 0.34148 0.01451 0.72192 0.0
C903 C 0.35454 0.03836 0.70388 0.0
C904 C 0.32788 0.9886 0.70751 0.0
C905 C 0.35397 0.03605 0.6714 0.0
C906 C 0.34039 0.01059 0.65696 0.0
C907 C 0.31407 0.96099 0.66024 0.0
C908 C 0.30126 0.93686 0.67786 0.0
C909 C 0.32735 0.98677 0.67476 0.0
C910 C 0.30178 0.9386 0.71033 0.0
C911 C 0.31495 0.96436 0.7251 0.0
H912 H 0.93731 0.33931 0.66973 0.0
H913 H 0.95412 0.29248 0.75633 0.0
H914 H 0.003 0.27179 0.73574 0.0
H915 H 0.0414 0.26811 0.69279 0.0
H916 H 0.02249 0.31409 0.60617 0.0
H917 H 0.97358 0.33381 0.6268 0.0
C918 C 0.95136 0.32404 0.6839 0.0
C919 C 0.94219 0.3172 0.71438 0.0
C920 C 0.97902 0.31226 0.67187 0.0
C921 C 0.96091 0.2981 0.73281 0.0
C922 C 0.98875 0.28629 0.72102 0.0
C923 C 0.02639 0.28241 0.67862 0.0
C924 C 0.0352 0.28983 0.64815 0.0
C925 C 0.99817 0.29344 0.69062 0.0
C926 C 0.01586 0.30821 0.6297 0.0
C927 C 0.98801 0.31943 0.64146 0.0
H928 H 0.69028 0.96319 0.72646 0.0
H929 H 0.59577 0.99316 0.71585 0.0
H930 H 0.61318 0.04057 0.69007 0.0
H931 H 0.65504 0.07102 0.66625 0.0
H932 H 0.74961 0.04095 0.67586 0.0
H933 H 0.73264 0.99609 0.70638 0.0
C934 C 0.67366 0.98039 0.71878 0.0
C935 C 0.6419 0.97494 0.72307 0.0
C936 C 0.68386 0.0074 0.70367 0.0
C937 C 0.62039 0.99715 0.71307 0.0
C938 C 0.63031 0.02413 0.69818 0.0
C939 C 0.67194 0.05506 0.67575 0.0
C940 C 0.70347 0.05911 0.66894 0.0
C941 C 0.66195 0.02923 0.69287 0.0
C942 C 0.72518 0.03808 0.68085 0.0
C943 C 0.71549 0.01244 0.69816 0.0
H944 H 0.30881 0.26183 0.03585 0.0
H945 H 0.34457 0.34766 0.07271 0.0
H946 H 0.32733 0.37523 0.02664 0.0
H947 H 0.3056 0.37456 0.97421 0.0
H948 H 0.27465 0.28855 0.9343 0.0
H949 H 0.28757 0.26103 0.98255 0.0
C950 C 0.31319 0.28645 0.03359 0.0
C951 C 0.32808 0.3026 0.05766 0.0
C952 C 0.30449 0.30199 0.00626 0.0
C953 C 0.33263 0.33474 0.05481 0.0
C954 C 0.32315 0.3505 0.02828 0.0
C955 C 0.30164 0.34979 0.97628 0.0
C956 C 0.28927 0.3334 0.95114 0.0
C957 C 0.30958 0.3343 0.00368 0.0
C958 C 0.28425 0.3014 0.95361 0.0
C959 C 0.29156 0.28579 0.98113 0.0
H960 H 0.25836 0.6618 0.0244 0.0
H961 H 0.349 0.64329 0.06166 0.0
H962 H 0.37306 0.6701 0.01781 0.0
H963 H 0.36833 0.69737 0.96818 0.0
H964 H 0.278 0.71848 0.93164 0.0
H965 H 0.25361 0.69166 0.97554 0.0
C966 C 0.28335 0.66375 0.02277 0.0
C967 C 0.302 0.65067 0.04601 0.0
C968 C 0.29697 0.67938 0.99758 0.0
C969 C 0.33431 0.65342 0.04403 0.0
C970 C 0.34803 0.66861 0.01896 0.0
C971 C 0.34329 0.69637 0.97007 0.0
C972 C 0.32491 0.70957 0.94672 0.0
C973 C 0.3296 0.68153 0.99556 0.0
C974 C 0.29255 0.70795 0.94914 0.0
C975 C 0.27865 0.69283 0.9743 0.0
H976 H 0.6326 0.26445 0.97855 0.0
H977 H 0.7223 0.26716 0.93476 0.0
H978 H 0.74491 0.28919 0.98208 0.0
H979 H 0.7373 0.31341 0.0334 0.0
H980 H 0.64681 0.31191 0.07567 0.0
H981 H 0.62654 0.28201 0.03213 0.0
C982 C 0.65727 0.26906 0.97968 0.0
C983 C 0.67579 0.26468 0.95324 0.0
C984 C 0.6699 0.28164 0.00678 0.0
C985 C 0.7076 0.27104 0.95474 0.0
C986 C 0.72048 0.28343 0.98178 0.0
C987 C 0.71337 0.30571 0.03333 0.0
C988 C 0.69351 0.31478 0.05752 0.0
C989 C 0.70163 0.28967 0.0076 0.0
C990 C 0.66257 0.30484 0.05745 0.0
C991 C 0.65088 0.28817 0.03234 0.0
H992 H 0.64233 0.7413 0.0094 0.0
H993 H 0.62485 0.65111 0.04905 0.0
H994 H 0.65014 0.6264 0.0051 0.0
H995 H 0.67561 0.63006 0.95462 0.0
H996 H 0.69161 0.7193 0.91284 0.0
H997 H 0.66779 0.74491 0.95792 0.0
C998 C 0.64398 0.71626 0.00827 0.0
C999 C 0.63207 0.69807 0.03262 0.0
C1000 C 0.65799 0.70209 0.98243 0.0
C1001 C 0.63456 0.66566 0.03104 0.0
C1002 C 0.6487 0.65147 0.00573 0.0
C1003 C 0.67403 0.65514 0.95558 0.0
C1004 C 0.68542 0.67294 0.93085 0.0
C1005 C 0.66034 0.66942 0.98129 0.0
C1006 C 0.68296 0.70532 0.93185 0.0
C1007 C 0.66943 0.71985 0.95757 0.0
H1008 H 0.2456 0.54715 0.21957 0.0
H1009 H 0.17396 0.54532 0.14969 0.0
H1010 H 0.16709 0.49004 0.15762 0.0
H1011 H 0.18139 0.44223 0.1834 0.0
H1012 H 0.25022 0.44313 0.25588 0.0
H1013 H 0.25877 0.49859 0.2472 0.0
C1014 C 0.22808 0.53481 0.20648 0.0
C1015 C 0.21056 0.55052 0.18376 0.0
C1016 C 0.22405 0.50273 0.21122 0.0
C1017 C 0.18795 0.53395 0.16715 0.0
C1018 C 0.18412 0.50222 0.1715 0.0
C1019 C 0.19834 0.45439 0.1974 0.0
C1020 C 0.21482 0.4384 0.22054 0.0
C1021 C 0.20223 0.48635 0.19318 0.0
C1022 C 0.23701 0.45474 0.23801 0.0
C1023 C 0.24171 0.48656 0.23326 0.0
H1024 H 0.45952 0.19667 0.15903 0.0
H1025 H 0.43617 0.24561 0.24319 0.0
H1026 H 0.49008 0.24183 0.26038 0.0
H1027 H 0.54413 0.22578 0.25057 0.0
H1028 H 0.56636 0.17834 0.16517 0.0
H1029 H 0.51262 0.18198 0.14877 0.0
C1030 C 0.46584 0.20606 0.18147 0.0
C1031 C 0.44352 0.22125 0.19985 0.0
C1032 C 0.49695 0.20503 0.19053 0.0
C1033 C 0.45269 0.23359 0.22862 0.0
C1034 C 0.48364 0.23188 0.23823 0.0
C1035 C 0.53738 0.21668 0.22814 0.0
C1036 C 0.55937 0.20139 0.20931 0.0
C1037 C 0.5061 0.21814 0.21908 0.0
C1038 C 0.55 0.18993 0.18027 0.0
C1039 C 0.51917 0.19168 0.17101 0.0
H1040 H 0.79126 0.47158 0.14113 0.0
H1041 H 0.75045 0.44168 0.22758 0.0
H1042 H 0.77528 0.48537 0.25425 0.0
H1043 H 0.80759 0.53276 0.25226 0.0
H1044 H 0.84672 0.56223 0.16502 0.0
H1045 H 0.82132 0.51897 0.13868 0.0
C1046 C 0.78768 0.47445 0.16585 0.0
C1047 C 0.76883 0.4534 0.18227 0.0
C1048 C 0.80055 0.50028 0.1805 0.0
C1049 C 0.76508 0.45729 0.2144 0.0
C1050 C 0.77879 0.48259 0.22952 0.0
C1051 C 0.80952 0.53032 0.22729 0.0
C1052 C 0.82822 0.55107 0.21031 0.0
C1053 C 0.79599 0.5046 0.21262 0.0
C1054 C 0.83174 0.54698 0.17825 0.0
C1055 C 0.81777 0.52195 0.16339 0.0
H1056 H 0.44381 0.83245 0.17873 0.0
H1057 H 0.43094 0.76306 0.24955 0.0
H1058 H 0.4809 0.73973 0.23566 0.0
H1059 H 0.53224 0.74515 0.20943 0.0
H1060 H 0.54645 0.82219 0.14678 0.0
H1061 H 0.49311 0.838 0.15354 0.0
C1062 C 0.45158 0.81183 0.19088 0.0
C1063 C 0.43395 0.80006 0.21565 0.0
C1064 C 0.48155 0.80103 0.18546 0.0
C1065 C 0.44402 0.7728 0.23044 0.0
C1066 C 0.47302 0.75996 0.22306 0.0
C1067 C 0.52371 0.7655 0.19745 0.0
C1068 C 0.54342 0.78215 0.17719 0.0
C1069 C 0.49277 0.77506 0.20188 0.0
C1070 C 0.53189 0.80864 0.16215 0.0
C1071 C 0.50123 0.81759 0.16574 0.0
H1072 H 0.27637 0.47149 0.79453 0.0
H1073 H 0.19664 0.41451 0.77522 0.0
H1074 H 0.17259 0.45759 0.74701 0.0
H1075 H 0.1702 0.51347 0.73763 0.0
H1076 H 0.24576 0.57256 0.7653 0.0
H1077 H 0.27605 0.52665 0.78037 0.0
C1078 C 0.25429 0.46819 0.78298 0.0
C1079 C 0.23842 0.43981 0.78624 0.0
C1080 C 0.23971 0.49373 0.76923 0.0
C1081 C 0.20937 0.43598 0.77236 0.0
C1082 C 0.19553 0.46072 0.7567 0.0
C1083 C 0.19362 0.51614 0.74635 0.0
C1084 C 0.20598 0.54602 0.75044 0.0
C1085 C 0.20984 0.49001 0.75647 0.0
C1086 C 0.23605 0.54964 0.76195 0.0
C1087 C 0.25313 0.52347 0.7707 0.0
H1088 H 0.54355 0.18805 0.84204 0.0
H1089 H 0.57193 0.22912 0.75529 0.0
H1090 H 0.51884 0.22346 0.7354 0.0
H1091 H 0.46426 0.20702 0.74353 0.0
H1092 H 0.43714 0.16979 0.83258 0.0
H1093 H 0.48992 0.17554 0.85137 0.0
C1094 C 0.53848 0.19529 0.8185 0.0
C1095 C 0.56195 0.20826 0.79986 0.0
C1096 C 0.50791 0.1937 0.80811 0.0
C1097 C 0.55444 0.21847 0.76985 0.0
C1098 C 0.52402 0.21569 0.75872 0.0
C1099 C 0.46973 0.20078 0.76725 0.0
C1100 C 0.44674 0.18761 0.78655 0.0
C1101 C 0.50045 0.20365 0.77785 0.0
C1102 C 0.45437 0.17975 0.81722 0.0
C1103 C 0.48461 0.18268 0.82786 0.0
H1104 H 0.74789 0.5179 0.83276 0.0
H1105 H 0.75723 0.56237 0.74379 0.0
H1106 H 0.77135 0.51221 0.72029 0.0
H1107 H 0.78684 0.45759 0.72724 0.0
H1108 H 0.78178 0.41556 0.81784 0.0
H1109 H 0.75827 0.46283 0.83871 0.0
C1110 C 0.7532 0.51666 0.80824 0.0
C1111 C 0.75284 0.54376 0.79013 0.0
C1112 C 0.76107 0.48812 0.79531 0.0
C1113 C 0.75833 0.54182 0.75818 0.0
C1114 C 0.76609 0.5132 0.74486 0.0
C1115 C 0.77929 0.4584 0.75125 0.0
C1116 C 0.78534 0.43308 0.77101 0.0
C1117 C 0.76813 0.48636 0.76341 0.0
C1118 C 0.77664 0.43458 0.80226 0.0
C1119 C 0.76382 0.46174 0.81421 0.0
H1120 H 0.44836 0.80959 0.84396 0.0
H1121 H 0.43449 0.75825 0.7593 0.0
H1122 H 0.48901 0.76641 0.74537 0.0
H1123 H 0.54015 0.79 0.75685 0.0
H1124 H 0.55361 0.83642 0.84463 0.0
H1125 H 0.49987 0.82745 0.85804 0.0
C1126 C 0.45714 0.79985 0.82255 0.0
C1127 C 0.43714 0.78339 0.80271 0.0
C1128 C 0.48867 0.80316 0.81556 0.0
C1129 C 0.44924 0.77111 0.77501 0.0
C1130 C 0.4805 0.77553 0.76717 0.0
C1131 C 0.5317 0.79711 0.77944 0.0
C1132 C 0.55108 0.81426 0.79953 0.0
C1133 C 0.50049 0.79148 0.78736 0.0
C1134 C 0.53941 0.82328 0.82862 0.0
C1135 C 0.50848 0.8183 0.8363 0.0
H1136 H 0.25623 0.22532 0.4597 0.0
H1137 H 0.17449 0.17406 0.43405 0.0
H1138 H 0.151 0.18562 0.48384 0.0
H1139 H 0.15686 0.2035 0.53706 0.0
H1140 H 0.23645 0.25806 0.56309 0.0
H1141 H 0.25799 0.25165 0.51082 0.0
C1142 C 0.23248 0.21846 0.46429 0.0
C1143 C 0.21713 0.19867 0.44335 0.0
C1144 C 0.21928 0.22478 0.49349 0.0
C1145 C 0.18657 0.18954 0.44972 0.0
C1146 C 0.17337 0.19565 0.47853 0.0
C1147 C 0.17873 0.21441 0.53137 0.0
C1148 C 0.19507 0.23104 0.55419 0.0
C1149 C 0.19016 0.21189 0.50108 0.0
C1150 C 0.22348 0.24488 0.54612 0.0
C1151 C 0.23563 0.24152 0.51614 0.0
H1152 H 0.74898 0.22624 0.53158 0.0
H1153 H 0.82715 0.17307 0.56319 0.0
H1154 H 0.85367 0.18211 0.5143 0.0
H1155 H 0.85089 0.19774 0.4599 0.0
H1156 H 0.77441 0.25331 0.42793 0.0
H1157 H 0.75049 0.25012 0.47938 0.0
C1158 C 0.77264 0.21838 0.52846 0.0
C1159 C 0.78611 0.19892 0.55091 0.0
C1160 C 0.78741 0.22293 0.49968 0.0
C1161 C 0.81652 0.18839 0.54637 0.0
C1162 C 0.83139 0.19297 0.51805 0.0
C1163 C 0.82925 0.20961 0.46419 0.0
C1164 C 0.81448 0.22561 0.43991 0.0
C1165 C 0.81635 0.20878 0.49403 0.0
C1166 C 0.78623 0.24063 0.44606 0.0
C1167 C 0.7727 0.23909 0.47558 0.0
H1168 H 0.78631 0.73252 0.53663 0.0
H1169 H 0.836 0.81593 0.56078 0.0
H1170 H 0.81581 0.84179 0.51488 0.0
H1171 H 0.7893 0.83879 0.4656 0.0
H1172 H 0.73437 0.75852 0.44263 0.0
H1173 H 0.75319 0.73224 0.48955 0.0
C1174 C 0.79161 0.75676 0.53251 0.0
C1175 C 0.81261 0.77238 0.55204 0.0
C1176 C 0.78046 0.77131 0.50555 0.0
C1177 C 0.81973 0.80359 0.54616 0.0
C1178 C 0.80868 0.81816 0.51963 0.0
C1179 C 0.78126 0.81558 0.47071 0.0
C1180 C 0.76074 0.80054 0.45036 0.0
C1181 C 0.79013 0.80181 0.49861 0.0
C1182 C 0.75067 0.77039 0.45758 0.0
C1183 C 0.76096 0.75563 0.48466 0.0
H1184 H 0.27252 0.78155 0.53935 0.0
H1185 H 0.18041 0.79093 0.57716 0.0
H1186 H 0.15831 0.77616 0.5271 0.0
H1187 H 0.16527 0.76936 0.47141 0.0
H1188 H 0.25675 0.76102 0.43231 0.0
H1189 H 0.27944 0.76785 0.48428 0.0
C1190 C 0.24762 0.77908 0.53705 0.0
C1191 C 0.22802 0.78714 0.56201 0.0
C1192 C 0.23517 0.7724 0.50776 0.0
C1193 C 0.19585 0.78451 0.55842 0.0
C1194 C 0.18327 0.77666 0.52967 0.0
C1195 C 0.19023 0.76911 0.47427 0.0
C1196 C 0.20953 0.76599 0.44816 0.0
C1197 C 0.20272 0.77222 0.50396 0.0
C1198 C 0.24166 0.76437 0.4521 0.0
C1199 C 0.25448 0.76794 0.48177 0.0
H1200 H 0.15596 0.26661 0.48223 0.0
H1201 H 0.15744 0.35776 0.52332 0.0
H1202 H 0.17787 0.37946 0.47496 0.0
H1203 H 0.19571 0.37221 0.42109 0.0
H1204 H 0.19536 0.28055 0.38117 0.0
H1205 H 0.17531 0.25908 0.42958 0.0
C1206 C 0.16051 0.29126 0.48059 0.0
C1207 C 0.15486 0.3106 0.5062 0.0
C1208 C 0.17304 0.30334 0.45316 0.0
C1209 C 0.16137 0.34244 0.50382 0.0
C1210 C 0.17321 0.35481 0.47626 0.0
C1211 C 0.1911 0.34758 0.42302 0.0
C1212 C 0.19649 0.32806 0.3975 0.0
C1213 C 0.17924 0.33544 0.45083 0.0
C1214 C 0.19137 0.29604 0.40052 0.0
C1215 C 0.17964 0.28378 0.42808 0.0
H1216 H 0.6368 0.1434 0.39722 0.0
H1217 H 0.63543 0.24116 0.41736 0.0
H1218 H 0.64958 0.23045 0.47142 0.0
H1219 H 0.66595 0.19337 0.5115 0.0
H1220 H 0.67061 0.09589 0.48965 0.0
H1221 H 0.65036 0.10622 0.43776 0.0
C1222 C 0.63876 0.16228 0.41364 0.0
C1223 C 0.63438 0.19296 0.40367 0.0
C1224 C 0.64734 0.15592 0.44429 0.0
C1225 C 0.63835 0.21735 0.42478 0.0
C1226 C 0.64639 0.21121 0.45559 0.0
C1227 C 0.66179 0.17431 0.49563 0.0
C1228 C 0.66955 0.14387 0.50439 0.0
C1229 C 0.65133 0.18059 0.46548 0.0
C1230 C 0.6647 0.11947 0.48341 0.0
C1231 C 0.65332 0.1254 0.45372 0.0
H1232 H 0.84198 0.64896 0.51406 0.0
H1233 H 0.93085 0.68926 0.49155 0.0
H1234 H 0.92433 0.67393 0.43738 0.0
H1235 H 0.89126 0.65344 0.3958 0.0
H1236 H 0.8019 0.61474 0.41799 0.0
H1237 H 0.81018 0.62623 0.47305 0.0
C1238 C 0.86028 0.65387 0.4975 0.0
C1239 C 0.88691 0.67024 0.50689 0.0
C1240 C 0.8559 0.64598 0.46629 0.0
C1241 C 0.91017 0.67663 0.48497 0.0
C1242 C 0.90634 0.66812 0.45396 0.0
C1243 C 0.87394 0.64694 0.41285 0.0
C1244 C 0.84632 0.63268 0.40321 0.0
C1245 C 0.87897 0.65349 0.44427 0.0
C1246 C 0.8234 0.62555 0.42512 0.0
C1247 C 0.82823 0.63194 0.45651 0.0
H1248 H 0.27059 0.84713 0.49331 0.0
H1249 H 0.36503 0.85401 0.52507 0.0
H1250 H 0.38369 0.8406 0.47307 0.0
H1251 H 0.37293 0.82565 0.4189 0.0
H1252 H 0.2784 0.81636 0.38826 0.0
H1253 H 0.25988 0.83158 0.43972 0.0
C1254 C 0.29528 0.84631 0.48872 0.0
C1255 C 0.31646 0.85219 0.51284 0.0
C1256 C 0.30574 0.8376 0.45916 0.0
C1257 C 0.34833 0.84998 0.50678 0.0
C1258 C 0.35897 0.84211 0.47714 0.0
C1259 C 0.34829 0.82698 0.42359 0.0
C1260 C 0.32701 0.8202 0.39985 0.0
C1261 C 0.33787 0.83559 0.45325 0.0
C1262 C 0.29517 0.82138 0.40624 0.0
C1263 C 0.2846 0.83031 0.43555 0.0
H1264 H 0.1572 0.6522 0.46667 0.0
H1265 H 0.09832 0.72918 0.49124 0.0
H1266 H 0.10476 0.71724 0.54609 0.0
H1267 H 0.13074 0.68761 0.58739 0.0
H1268 H 0.18886 0.61031 0.56328 0.0
H1269 H 0.17948 0.61979 0.50795 0.0
C1270 C 0.14509 0.66584 0.48396 0.0
C1271 C 0.12741 0.69164 0.47478 0.0
C1272 C 0.14942 0.65925 0.51559 0.0
C1273 C 0.11213 0.70924 0.49761 0.0
C1274 C 0.11601 0.70261 0.52904 0.0
C1275 C 0.14134 0.67301 0.56987 0.0
C1276 C 0.16088 0.64874 0.57896 0.0
C1277 C 0.13534 0.67827 0.53831 0.0
C1278 C 0.17409 0.62939 0.55645 0.0
C1279 C 0.16857 0.6347 0.52496 0.0
H1280 H 0.38276 0.19497 0.57011 0.0
H1281 H 0.35156 0.10961 0.61158 0.0
H1282 H 0.33297 0.09126 0.56159 0.0
H1283 H 0.32137 0.10146 0.50692 0.0
H1284 H 0.35407 0.18616 0.46462 0.0
H1285 H 0.37694 0.20229 0.5136 0.0
C1286 C 0.37222 0.17224 0.56795 0.0
C1287 C 0.36838 0.15372 0.5944 0.0
C1288 C 0.36191 0.16163 0.53892 0.0
C1289 C 0.35481 0.12426 0.59154 0.0
C1290 C 0.34414 0.11374 0.56292 0.0
C1291 C 0.33401 0.12316 0.50823 0.0
C1292 C 0.33557 0.14266 0.48219 0.0
C1293 C 0.34701 0.13248 0.53655 0.0
C1294 C 0.35235 0.17062 0.48428 0.0
C1295 C 0.36528 0.18007 0.51239 0.0
H1296 H 0.8559 0.25873 0.51339 0.0
H1297 H 0.85578 0.34932 0.47102 0.0
H1298 H 0.83659 0.37209 0.51929 0.0
H1299 H 0.8199 0.36608 0.57356 0.0
H1300 H 0.81774 0.27511 0.61488 0.0
H1301 H 0.83661 0.25232 0.56648 0.0
C1302 C 0.85179 0.28346 0.51475 0.0
C1303 C 0.85751 0.30237 0.48882 0.0
C1304 C 0.83978 0.29615 0.54213 0.0
C1305 C 0.85174 0.33434 0.49079 0.0
C1306 C 0.84061 0.34732 0.51828 0.0
C1307 C 0.82346 0.34126 0.57179 0.0
C1308 C 0.81785 0.32227 0.59764 0.0
C1309 C 0.83445 0.32842 0.54403 0.0
C1310 C 0.82187 0.2901 0.59513 0.0
C1311 C 0.83292 0.27713 0.56762 0.0
H1312 H 0.72017 0.83772 0.52356 0.0
H1313 H 0.63371 0.8837 0.50448 0.0
H1314 H 0.6172 0.87569 0.55833 0.0
H1315 H 0.62849 0.85741 0.61053 0.0
H1316 H 0.7122 0.80605 0.6287 0.0
H1317 H 0.72926 0.81503 0.57526 0.0
C1318 C 0.69779 0.8461 0.53139 0.0
C1319 C 0.67828 0.86178 0.51058 0.0
C1320 C 0.68808 0.84034 0.5619 0.0
C1321 C 0.64907 0.87188 0.52041 0.0
C1322 C 0.63968 0.86722 0.55106 0.0
C1323 C 0.64975 0.84679 0.60273 0.0
C1324 C 0.66846 0.82999 0.6235 0.0
C1325 C 0.65899 0.85143 0.57193 0.0
C1326 C 0.69712 0.81861 0.61308 0.0
C1327 C 0.70691 0.82381 0.58259 0.0
H1328 H 0.38694 0.17645 0.28866 0.0
H1329 H 0.41501 0.2212 0.37332 0.0
H1330 H 0.46958 0.21302 0.36011 0.0
H1331 H 0.50891 0.19017 0.32615 0.0
H1332 H 0.48076 0.14289 0.24252 0.0
H1333 H 0.42669 0.15477 0.25369 0.0
C1334 C 0.40515 0.18499 0.30372 0.0
C1335 C 0.39734 0.19982 0.33159 0.0
C1336 C 0.43634 0.17916 0.29649 0.0
C1337 C 0.42081 0.21014 0.35152 0.0
C1338 C 0.45188 0.2052 0.34411 0.0
C1339 C 0.49098 0.18231 0.31042 0.0
C1340 C 0.49896 0.16536 0.28374 0.0
C1341 C 0.45989 0.18915 0.31699 0.0
C1342 C 0.47533 0.15567 0.26345 0.0
C1343 C 0.44436 0.16259 0.26971 0.0
H1344 H 0.85199 0.51063 0.32222 0.0
H1345 H 0.94424 0.48343 0.29483 0.0
H1346 H 0.93309 0.42995 0.31055 0.0
H1347 H 0.8956 0.39048 0.3283 0.0
H1348 H 0.80253 0.41769 0.35183 0.0
H1349 H 0.81523 0.47191 0.34049 0.0
C1350 C 0.86997 0.49322 0.32021 0.0
C1351 C 0.89905 0.50106 0.30761 0.0
C1352 C 0.86296 0.46252 0.32796 0.0
C1353 C 0.92178 0.478 0.30465 0.0
C1354 C 0.91532 0.44743 0.3134 0.0
C1355 C 0.87833 0.40846 0.33131 0.0
C1356 C 0.84836 0.40054 0.34129 0.0
C1357 C 0.88577 0.43936 0.32445 0.0
C1358 C 0.82575 0.42356 0.34426 0.0
C1359 C 0.83306 0.45444 0.33795 0.0
H1360 H 0.57682 0.87318 0.35766 0.0
H1361 H 0.55071 0.77963 0.38107 0.0
H1362 H 0.49763 0.78976 0.36365 0.0
H1363 H 0.46024 0.82407 0.3387 0.0
H1364 H 0.48756 0.91653 0.31158 0.0
H1365 H 0.53863 0.9084 0.33467 0.0
C1366 C 0.55929 0.85526 0.35952 0.0
C1367 C 0.56723 0.8259 0.37109 0.0
C1368 C 0.52921 0.86116 0.34901 0.0
C1369 C 0.54481 0.80245 0.37243 0.0
C1370 C 0.51458 0.80828 0.36257 0.0
C1371 C 0.4771 0.84274 0.33838 0.0
C1372 C 0.47012 0.87092 0.32349 0.0
C1373 C 0.50668 0.83744 0.35049 0.0
C1374 C 0.49239 0.89466 0.32293 0.0
C1375 C 0.52161 0.88995 0.33594 0.0
H1376 H 0.17457 0.51015 0.25931 0.0
H1377 H 0.17293 0.4696 0.35081 0.0
H1378 H 0.18238 0.52048 0.37387 0.0
H1379 H 0.19087 0.57658 0.36802 0.0
H1380 H 0.19461 0.61672 0.27654 0.0
H1381 H 0.18528 0.56579 0.25337 0.0
C1382 C 0.17615 0.51248 0.2843 0.0
C1383 C 0.17277 0.48622 0.30335 0.0
C1384 C 0.1823 0.54164 0.29734 0.0
C1385 C 0.17535 0.4895 0.33566 0.0
C1386 C 0.18081 0.51855 0.34886 0.0
C1387 C 0.18957 0.57408 0.34303 0.0
C1388 C 0.19295 0.60028 0.32398 0.0
C1389 C 0.18431 0.54477 0.32993 0.0
C1390 C 0.19204 0.59679 0.29162 0.0
C1391 C 0.18654 0.56775 0.27839 0.0
H1392 H 0.43347 0.81373 0.63001 0.0
H1393 H 0.38522 0.80783 0.7174 0.0
H1394 H 0.43041 0.82883 0.74427 0.0
H1395 H 0.48333 0.84952 0.74275 0.0
H1396 H 0.5314 0.85596 0.65512 0.0
H1397 H 0.48643 0.83448 0.62845 0.0
C1398 C 0.43304 0.81686 0.65497 0.0
C1399 C 0.40616 0.80947 0.67172 0.0
C1400 C 0.45891 0.8293 0.67015 0.0
C1401 C 0.40584 0.81315 0.70408 0.0
C1402 C 0.43154 0.8254 0.7194 0.0
C1403 C 0.48381 0.84666 0.71776 0.0
C1404 C 0.51057 0.85458 0.70091 0.0
C1405 C 0.45807 0.83386 0.70263 0.0
C1406 C 0.51104 0.85013 0.66861 0.0
C1407 C 0.48541 0.83771 0.65336 0.0
H1408 H 0.16149 0.51937 0.66317 0.0
H1409 H 0.07412 0.49438 0.70462 0.0
H1410 H 0.08359 0.43959 0.69228 0.0
H1411 H 0.11868 0.39878 0.67266 0.0
H1412 H 0.20852 0.424 0.63711 0.0
H1413 H 0.19669 0.47902 0.64489 0.0
C1414 C 0.14412 0.50198 0.66862 0.0
C1415 C 0.11666 0.51073 0.68372 0.0
C1416 C 0.15068 0.47069 0.66332 0.0
C1417 C 0.09497 0.48803 0.69216 0.0
C1418 C 0.1006 0.45681 0.68549 0.0
C1419 C 0.13551 0.41649 0.66663 0.0
C1420 C 0.16428 0.40782 0.65419 0.0
C1421 C 0.12866 0.44786 0.67163 0.0
C1422 C 0.18628 0.4305 0.64678 0.0
C1423 C 0.17943 0.4618 0.65101 0.0
H1424 H 0.49259 0.16872 0.66907 0.0
H1425 H 0.52987 0.12813 0.75261 0.0
H1426 H 0.58176 0.14562 0.738 0.0
H1427 H 0.61682 0.17161 0.70063 0.0
H1428 H 0.57916 0.21054 0.61681 0.0
H1429 H 0.5269 0.19517 0.63271 0.0
C1430 C 0.51203 0.16344 0.68407 0.0
C1431 C 0.50729 0.14681 0.71175 0.0
C1432 C 0.54165 0.17378 0.6757 0.0
C1433 C 0.53284 0.1405 0.73094 0.0
C1434 C 0.56251 0.15071 0.72273 0.0
C1435 C 0.59696 0.17725 0.68633 0.0
C1436 C 0.6014 0.19261 0.65794 0.0
C1437 C 0.56718 0.16743 0.69519 0.0
C1438 C 0.57591 0.19915 0.63899 0.0
C1439 C 0.54619 0.19011 0.64793 0.0
H1440 H 0.86827 0.58789 0.66052 0.0
H1441 H 0.77939 0.56441 0.62182 0.0
H1442 H 0.78736 0.5098 0.6357 0.0
H1443 H 0.81936 0.46929 0.65982 0.0
H1444 H 0.90758 0.49361 0.69997 0.0
H1445 H 0.90085 0.54733 0.68321 0.0
C1446 C 0.85094 0.57065 0.65462 0.0
C1447 C 0.82365 0.57976 0.63952 0.0
C1448 C 0.85584 0.53953 0.66245 0.0
C1449 C 0.80069 0.55766 0.63319 0.0
C1450 C 0.80535 0.52653 0.64094 0.0
C1451 C 0.83746 0.48619 0.66417 0.0
C1452 C 0.86417 0.47747 0.68067 0.0
C1453 C 0.83291 0.5172 0.65547 0.0
C1454 C 0.88702 0.49977 0.68699 0.0
C1455 C 0.88304 0.53049 0.67768 0.0
H1456 H 0.36008 0.4196 0.2091 0.0
H1457 H 0.27585 0.37287 0.18291 0.0
H1458 H 0.25417 0.42175 0.16413 0.0
H1459 H 0.26018 0.47722 0.15308 0.0
H1460 H 0.34391 0.52448 0.18068 0.0
H1461 H 0.36489 0.47593 0.20079 0.0
C1462 C 0.33677 0.42038 0.19977 0.0
C1463 C 0.31954 0.39287 0.19728 0.0
C1464 C 0.32457 0.4485 0.18892 0.0
C1465 C 0.28938 0.3939 0.18526 0.0
C1466 C 0.27713 0.42175 0.17424 0.0
C1467 C 0.28309 0.47691 0.16334 0.0
C1468 C 0.30058 0.5044 0.16505 0.0
C1469 C 0.29473 0.44908 0.17549 0.0
C1470 C 0.33001 0.50363 0.17892 0.0
C1471 C 0.34198 0.47591 0.19055 0.0
H1472 H 0.37684 0.58572 0.8244 0.0
H1473 H 0.28236 0.61651 0.81486 0.0
H1474 H 0.26371 0.56657 0.83404 0.0
H1475 H 0.2742 0.51457 0.85346 0.0
H1476 H 0.36845 0.48248 0.86164 0.0
H1477 H 0.3874 0.5331 0.84406 0.0
C1478 C 0.35219 0.58148 0.82672 0.0
C1479 C 0.33098 0.60482 0.81864 0.0
C1480 C 0.34168 0.55281 0.83801 0.0
C1481 C 0.2991 0.59884 0.82089 0.0
C1482 C 0.28845 0.57045 0.83216 0.0
C1483 C 0.29894 0.51878 0.85209 0.0
C1484 C 0.31994 0.49496 0.85937 0.0
C1485 C 0.30954 0.54741 0.84102 0.0
C1486 C 0.35187 0.50057 0.85652 0.0
C1487 C 0.36267 0.52939 0.84623 0.0
H1488 H 0.40554 0.29739 0.83579 0.0
H1489 H 0.43841 0.3897 0.81641 0.0
H1490 H 0.49146 0.37398 0.82901 0.0
H1491 H 0.52824 0.33386 0.84574 0.0
H1492 H 0.49442 0.24196 0.86701 0.0
H1493 H 0.44202 0.25767 0.85375 0.0
C1494 C 0.42445 0.31389 0.83407 0.0
C1495 C 0.4184 0.34452 0.82509 0.0
C1496 C 0.45459 0.30486 0.84203 0.0
C1497 C 0.44279 0.36596 0.82332 0.0
C1498 C 0.473 0.35701 0.83059 0.0
C1499 C 0.50937 0.31737 0.8478 0.0
C1500 C 0.51537 0.28679 0.85736 0.0
C1501 C 0.47914 0.32655 0.84019 0.0
C1502 C 0.49057 0.26569 0.8598 0.0
C1503 C 0.46054 0.27458 0.85207 0.0
H1504 H 0.65523 0.50761 0.81855 0.0
H1505 H 0.69619 0.49161 0.90828 0.0
H1506 H 0.68757 0.43575 0.90252 0.0
H1507 H 0.67109 0.3913 0.87045 0.0
H1508 H 0.63379 0.40738 0.77927 0.0
H1509 H 0.63899 0.46349 0.78664 0.0
C1510 C 0.66152 0.49198 0.83721 0.0
C1511 C 0.67563 0.50375 0.86416 0.0
C1512 C 0.65781 0.45992 0.83309 0.0
C1513 C 0.68476 0.4831 0.88761 0.0
C1514 C 0.68012 0.45119 0.88417 0.0
C1515 C 0.66384 0.40723 0.8524 0.0
C1516 C 0.65162 0.39552 0.82456 0.0
C1517 C 0.66713 0.43932 0.85679 0.0
C1518 C 0.64314 0.41608 0.80089 0.0
C1519 C 0.64594 0.44806 0.8052 0.0
H1520 H 0.46392 0.67182 0.81121 0.0
H1521 H 0.50178 0.72516 0.88696 0.0
H1522 H 0.55306 0.70337 0.87685 0.0
H1523 H 0.58722 0.67017 0.84559 0.0
H1524 H 0.55005 0.6191 0.76833 0.0
H1525 H 0.4981 0.63926 0.77966 0.0
C1526 C 0.4833 0.67842 0.82577 0.0
C1527 C 0.47902 0.69982 0.85003 0.0
C1528 C 0.51274 0.66645 0.81933 0.0
C1529 C 0.50448 0.7086 0.86827 0.0
C1530 C 0.53378 0.69624 0.86245 0.0
C1531 C 0.56761 0.66343 0.83142 0.0
C1532 C 0.57197 0.64306 0.80645 0.0
C1533 C 0.53817 0.67535 0.83792 0.0
C1534 C 0.54685 0.63472 0.78773 0.0
C1535 C 0.51731 0.64616 0.79427 0.0
H1536 H 0.65383 0.5033 0.09024 0.0
H1537 H 0.63094 0.46194 0.1786 0.0
H1538 H 0.60781 0.51037 0.1958 0.0
H1539 H 0.6005 0.56655 0.18835 0.0
H1540 H 0.62256 0.60725 0.09972 0.0
H1541 H 0.63949 0.55724 0.08015 0.0
C1542 C 0.64318 0.50463 0.11299 0.0
C1543 C 0.6448 0.47921 0.13327 0.0
C1544 C 0.63015 0.53267 0.12296 0.0
C1545 C 0.63044 0.48125 0.16255 0.0
C1546 C 0.61734 0.50904 0.17257 0.0
C1547 C 0.6086 0.56423 0.16464 0.0
C1548 C 0.61037 0.59048 0.14557 0.0
C1549 C 0.61819 0.53524 0.15343 0.0
C1550 C 0.62069 0.58735 0.11481 0.0
C1551 C 0.63055 0.55873 0.1036 0.0
H1552 H 0.36947 0.70853 0.16778 0.0
H1553 H 0.40521 0.62558 0.2103 0.0
H1554 H 0.45793 0.64038 0.19561 0.0
H1555 H 0.49302 0.67489 0.16798 0.0
H1556 H 0.45796 0.7577 0.12414 0.0
H1557 H 0.40562 0.74487 0.14186 0.0
C1558 C 0.38898 0.69415 0.17435 0.0
C1559 C 0.38378 0.66613 0.19017 0.0
C1560 C 0.41908 0.70243 0.16506 0.0
C1561 C 0.40893 0.64729 0.1982 0.0
C1562 C 0.43894 0.65564 0.18962 0.0
C1563 C 0.47399 0.69017 0.1621 0.0
C1564 C 0.4794 0.71699 0.14429 0.0
C1565 C 0.44416 0.68277 0.17246 0.0
C1566 C 0.4544 0.73662 0.13733 0.0
C1567 C 0.4245 0.72943 0.14767 0.0
H1568 H 0.50419 0.27062 0.16374 0.0
H1569 H 0.46571 0.36284 0.16188 0.0
H1570 H 0.5157 0.38435 0.178 0.0
H1571 H 0.57069 0.37688 0.19083 0.0
H1572 H 0.60872 0.28465 0.1938 0.0
H1573 H 0.55819 0.26296 0.17963 0.0
C1574 C 0.50683 0.29546 0.16659 0.0
C1575 C 0.48155 0.31525 0.16101 0.0
C1576 C 0.53529 0.30749 0.17657 0.0
C1577 C 0.485 0.34726 0.16568 0.0
C1578 C 0.51347 0.35951 0.17503 0.0
C1579 C 0.56767 0.352 0.18881 0.0
C1580 C 0.59319 0.3323 0.19311 0.0
C1581 C 0.53876 0.33984 0.18042 0.0
C1582 C 0.58921 0.30013 0.19081 0.0
C1583 C 0.56047 0.2878 0.18245 0.0
H1584 H 0.09518 0.51974 0.1838 0.0
H1585 H 0.06479 0.42498 0.17333 0.0
H1586 H 0.01211 0.44252 0.16349 0.0
H1587 H 0.97347 0.48361 0.17041 0.0
H1588 H 0.00386 0.57803 0.18375 0.0
H1589 H 0.05767 0.56187 0.17906 0.0
C1590 C 0.07721 0.50294 0.17857 0.0
C1591 C 0.08357 0.4711 0.18064 0.0
C1592 C 0.0468 0.51313 0.17381 0.0
C1593 C 0.0603 0.44965 0.17283 0.0
C1594 C 0.03009 0.45965 0.16726 0.0
C1595 C 0.9918 0.5008 0.17126 0.0
C1596 C 0.98478 0.53176 0.17847 0.0
C1597 C 0.02278 0.49119 0.16967 0.0
C1598 C 0.00874 0.55387 0.17897 0.0
C1599 C 0.03956 0.54465 0.17643 0.0
H1600 H 0.48226 0.08149 0.20952 0.0
H1601 H 0.56416 0.03053 0.18478 0.0
H1602 H 0.53377 0.98253 0.1814 0.0
H1603 H 0.48695 0.95419 0.19901 0.0
H1604 H 0.40796 0.00603 0.23115 0.0
H1605 H 0.43352 0.05456 0.21764 0.0
C1606 C 0.49303 0.06004 0.20193 0.0
C1607 C 0.52509 0.05916 0.1974 0.0
C1608 C 0.47588 0.0326 0.20215 0.0
C1609 C 0.5393 0.03153 0.18797 0.0
C1610 C 0.522 0.00408 0.1866 0.0
C1611 C 0.4751 0.97616 0.2019 0.0
C1612 C 0.44586 0.97687 0.21616 0.0
C1613 C 0.49072 0.00408 0.19567 0.0
C1614 C 0.43058 0.00519 0.22032 0.0
C1615 C 0.44521 0.03289 0.2127 0.0
H1616 H 0.0058 0.56089 0.79976 0.0
H1617 H 0.08228 0.49704 0.79606 0.0
H1618 H 0.04646 0.45319 0.79838 0.0
H1619 H 0.9933 0.43415 0.78933 0.0
H1620 H 0.91682 0.49785 0.79472 0.0
H1621 H 0.95256 0.54079 0.80451 0.0
C1622 C 0.01454 0.53735 0.80092 0.0
C1623 C 0.04638 0.53197 0.79755 0.0
C1624 C 0.9938 0.51235 0.80198 0.0
C1625 C 0.05777 0.50156 0.79892 0.0
C1626 C 0.03728 0.47651 0.7998 0.0
C1627 C 0.98456 0.45727 0.79391 0.0
C1628 C 0.95278 0.46317 0.79113 0.0
C1629 C 0.00523 0.48171 0.79955 0.0
C1630 C 0.94133 0.493 0.79698 0.0
C1631 C 0.96174 0.51753 0.80228 0.0
H1632 H 0.54449 0.9668 0.83791 0.0
H1633 H 0.45573 0.92489 0.81875 0.0
H1634 H 0.43044 0.975 0.82557 0.0
H1635 H 0.4353 0.03155 0.82591 0.0
H1636 H 0.52484 0.07368 0.84068 0.0
H1637 H 0.5479 0.02258 0.8475 0.0
C1638 C 0.51951 0.96847 0.83591 0.0
C1639 C 0.50212 0.94238 0.82693 0.0
C1640 C 0.50531 0.99749 0.83876 0.0
C1641 C 0.46972 0.94472 0.82521 0.0
C1642 C 0.45525 0.97342 0.82893 0.0
C1643 C 0.45973 0.02964 0.83137 0.0
C1644 C 0.47851 0.05635 0.83178 0.0
C1645 C 0.47307 0.00017 0.83399 0.0
C1646 C 0.50994 0.05349 0.83967 0.0
C1647 C 0.52321 0.02424 0.84337 0.0
H1648 H 0.19886 0.93128 0.4876 0.0
H1649 H 0.19592 0.95921 0.58365 0.0
H1650 H 0.19365 0.0135 0.56822 0.0
H1651 H 0.2023 0.05286 0.5278 0.0
H1652 H 0.20673 0.02441 0.43197 0.0
H1653 H 0.19822 0.97075 0.44694 0.0
C1654 C 0.1969 0.94916 0.50517 0.0
C1655 C 0.19853 0.94123 0.53671 0.0
C1656 C 0.1964 0.98039 0.49618 0.0
C1657 C 0.19546 0.96471 0.55916 0.0
C1658 C 0.19425 0.99582 0.55038 0.0
C1659 C 0.20066 0.03502 0.51016 0.0
C1660 C 0.20609 0.04252 0.47891 0.0
C1661 C 0.19631 0.00397 0.51899 0.0
C1662 C 0.20351 0.01918 0.45628 0.0
C1663 C 0.19857 0.98842 0.46481 0.0
H1664 H 0.03912 0.18381 0.55125 0.0
H1665 H 0.08073 0.19061 0.46045 0.0
H1666 H 0.03085 0.17939 0.43642 0.0
H1667 H 0.97452 0.18015 0.44128 0.0
H1668 H 0.93242 0.18089 0.53211 0.0
H1669 H 0.98329 0.17568 0.55607 0.0
C1670 C 0.03747 0.18212 0.52624 0.0
C1671 C 0.06329 0.1891 0.50762 0.0
C1672 C 0.00844 0.17737 0.51258 0.0
C1673 C 0.06096 0.18603 0.47527 0.0
C1674 C 0.03243 0.17973 0.4615 0.0
C1675 C 0.97636 0.17846 0.46628 0.0
C1676 C 0.94989 0.18211 0.48493 0.0
C1677 C 0.00575 0.17735 0.47991 0.0
C1678 C 0.95257 0.17889 0.51725 0.0
C1679 C 0.98167 0.17609 0.53099 0.0
H1680 H 0.80253 0.03019 0.55106 0.0
H1681 H 0.7952 0.07232 0.46061 0.0
H1682 H 0.80242 0.02185 0.4361 0.0
H1683 H 0.79863 0.96541 0.44113 0.0
H1684 H 0.80304 0.92335 0.53193 0.0
H1685 H 0.81017 0.97416 0.55547 0.0
C1686 C 0.80336 0.0284 0.52597 0.0
C1687 C 0.79742 0.05461 0.50764 0.0
C1688 C 0.80666 -0.00072 0.51212 0.0
C1689 C 0.7993 0.05231 0.4752 0.0
C1690 C 0.80322 0.02342 0.46118 0.0
C1691 C 0.80202 0.96725 0.46599 0.0
C1692 C 0.79912 0.94083 0.48488 0.0
C1693 C 0.80505 0.99661 0.47948 0.0
C1694 C 0.80444 0.94344 0.51692 0.0
C1695 C 0.80834 0.97252 0.53046 0.0
H1696 H 0.9572 0.79149 0.50737 0.0
H1697 H 0.02401 0.75762 0.57325 0.0
H1698 H 0.0664 0.77334 0.53893 0.0
H1699 H 0.08325 0.78609 0.48628 0.0
H1700 H 0.01563 0.80945 0.41693 0.0
H1701 H 0.97472 0.80976 0.45638 0.0
C1702 C 0.9811 0.78864 0.51455 0.0
C1703 C 0.98775 0.77357 0.54259 0.0
C1704 C 0.00511 0.79579 0.49382 0.0
C1705 C 0.01862 0.76924 0.55163 0.0
C1706 C 0.04275 0.77809 0.532 0.0
C1707 C 0.05973 0.79253 0.48024 0.0
C1708 C 0.05221 0.79819 0.44914 0.0
C1709 C 0.03618 0.78994 0.50244 0.0
C1710 C 0.02172 0.80557 0.44098 0.0
C1711 C -0.00162 0.80531 0.46343 0.0
H1712 H 0.50291 0.23706 0.93548 0.0
H1713 H 0.56037 0.16751 0.97769 0.0
H1714 H 0.52746 0.16817 0.0244 0.0
H1715 H 0.48795 0.19602 0.05613 0.0
H1716 H 0.43667 0.27079 0.01403 0.0
H1717 H 0.46115 0.26062 0.96439 0.0
C1718 C 0.50756 0.22133 0.9546 0.0
C1719 C 0.53369 0.20225 0.95347 0.0
C1720 C 0.4899 0.22334 0.98162 0.0
C1721 C 0.53995 0.18206 0.97814 0.0
C1722 C 0.52145 0.18285 0.00493 0.0
C1723 C 0.48183 0.20954 0.03584 0.0
C1724 C 0.46068 0.23417 0.03864 0.0
C1725 C 0.49723 0.20452 0.00746 0.0
C1726 C 0.45298 0.25181 0.01243 0.0
C1727 C 0.46697 0.24604 0.98402 0.0
H1728 H 0.46939 0.83398 0.05286 0.0
H1729 H 0.56527 0.82655 0.02537 0.0
H1730 H 0.55039 0.82926 0.97099 0.0
H1731 H 0.50969 0.82107 0.93229 0.0
H1732 H 0.41374 0.82606 0.95997 0.0
H1733 H 0.42915 0.8376 0.01305 0.0
C1734 C 0.48714 0.83393 0.03503 0.0
C1735 C 0.51824 0.82879 0.04309 0.0
C1736 C 0.47835 0.83443 0.00376 0.0
C1737 C 0.54103 0.82963 0.01975 0.0
C1738 C 0.53254 0.831 0.98859 0.0
C1739 C 0.49214 0.82543 0.94977 0.0
C1740 C 0.46067 0.82147 0.94251 0.0
C1741 C 0.50116 0.83131 0.98041 0.0
C1742 C 0.43817 0.82814 0.96513 0.0
C1743 C 0.44696 0.83468 0.99556 0.0
H1744 H 0.19427 0.4401 0.96052 0.0
H1745 H 0.19778 0.53101 0.91876 0.0
H1746 H 0.1921 0.55486 0.96974 0.0
H1747 H 0.1954 0.54984 0.02625 0.0
H1748 H 0.19538 0.45884 0.068 0.0
H1749 H 0.19011 0.43515 0.01691 0.0
C1750 C 0.1932 0.46513 0.96245 0.0
C1751 C 0.19724 0.48373 0.93591 0.0
C1752 C 0.191 0.47871 0.99191 0.0
C1753 C 0.19513 0.51611 0.93881 0.0
C1754 C 0.19207 0.5298 0.96801 0.0
C1755 C 0.19365 0.52484 0.02428 0.0
C1756 C 0.19651 0.50613 0.05086 0.0
C1757 C 0.19147 0.51132 0.99478 0.0
C1758 C 0.19369 0.4738 0.04789 0.0
C1759 C 0.19077 0.4602 0.01866 0.0
H1760 H 0.78685 0.52197 0.04564 0.0
H1761 H 0.77329 0.42877 0.01189 0.0
H1762 H 0.78818 0.44497 0.95984 0.0
H1763 H 0.79458 0.48715 0.92275 0.0
H1764 H 0.80307 0.58124 0.95554 0.0
H1765 H 0.80185 0.56305 0.00916 0.0
C1766 C 0.78786 0.50509 0.02704 0.0
C1767 C 0.77823 0.47445 0.03237 0.0
C1768 C 0.79546 0.51478 0.99692 0.0
C1769 C 0.77994 0.4527 0.00816 0.0
C1770 C 0.78851 0.46191 0.97839 0.0
C1771 C 0.79725 0.5036 0.94159 0.0
C1772 C 0.79823 0.5355 0.93528 0.0
C1773 C 0.7948 0.49317 0.97225 0.0
C1774 C 0.80186 0.55653 0.95991 0.0
C1775 C 0.80088 0.54618 0.99056 0.0
loop_
_geom_bond_atom_site_label_1
_geom_bond_atom_site_label_2
_geom_bond_distance
_geom_bond_site_symmetry_2
_ccdc_geom_bond_type
Co0 O3 1.970 . S
Co0 N17 1.989 . S
Co0 O25 1.967 . S
Co0 O32 1.920 . S
Co1 O4 1.966 . S
Co1 N10 2.022 . S
Co1 N18 1.993 . S
Co1 O26 1.941 . S
C2 O3 1.258 . S
C2 O4 1.263 . S
O3 Co0 1.970 . S
O3 C2 1.258 . S
O4 Co1 1.966 . S
O4 C2 1.263 . S
C5 O6 1.235 . S
C5 O32 1.289 . S
O6 C5 1.235 . S
C7 C9 1.400 . S
C7 N10 1.351 . S
C7 C12 1.501 . S
C8 C9 1.387 . S
C8 N11 1.341 . S
C9 C7 1.400 . S
C9 C8 1.387 . S
N10 Co1 2.022 . S
N10 C7 1.351 . S
N10 N11 1.365 . S
N11 C8 1.341 . S
N11 N10 1.365 . S
N11 H31 0.862 . S
C12 C7 1.501 . S
C12 H13 0.961 . S
C12 H14 0.961 . S
C12 H15 0.960 . S
H13 C12 0.961 . S
H14 C12 0.961 . S
H15 C12 0.960 . S
C16 N17 1.342 . S
C16 C20 1.401 . S
C16 C21 1.499 . S
N17 Co0 1.989 . S
N17 C16 1.342 . S
N17 N18 1.388 . S
N18 Co1 1.993 . S
N18 N17 1.388 . S
N18 C19 1.346 . S
C19 N18 1.346 . S
C19 C20 1.396 . S
C19 C29 1.510 . S
C20 C16 1.401 . S
C20 C19 1.396 . S
C21 C16 1.499 . S
C21 H22 0.959 . S
C21 H23 0.960 . S
C21 H24 0.961 . S
H22 C21 0.959 . S
H23 C21 0.960 . S
H24 C21 0.961 . S
O25 Co0 1.967 . S
O25 C33 1.258 . S
O26 Co1 1.941 . S
O26 C33 1.266 . S
H27 C29 0.959 . S
H28 C29 0.961 . S
C29 C19 1.510 . S
C29 H27 0.959 . S
C29 H28 0.961 . S
C29 H30 0.960 . S
H30 C29 0.960 . S
H31 N11 0.862 . S
O32 Co0 1.920 . S
O32 C5 1.289 . S
C33 O25 1.258 . S
C33 O26 1.266 . S
Co34 O37 1.970 . S
Co34 N51 1.989 . S
Co34 O59 1.967 . S
Co34 O66 1.920 . S
Co35 O38 1.966 . S
Co35 N44 2.022 . S
Co35 N52 1.993 . S
Co35 O60 1.941 . S
C36 O37 1.258 . S
C36 O38 1.263 . S
O37 Co34 1.970 . S
O37 C36 1.258 . S
O38 Co35 1.966 . S
O38 C36 1.263 . S
C39 O40 1.235 . S
C39 O66 1.289 . S
O40 C39 1.235 . S
C41 C43 1.400 . S
C41 N44 1.351 . S
C41 C46 1.501 . S
C42 C43 1.387 . S
C42 N45 1.341 . S
C43 C41 1.400 . S
C43 C42 1.387 . S
N44 Co35 2.022 . S
N44 C41 1.351 . S
N44 N45 1.365 . S
N45 C42 1.341 . S
N45 N44 1.365 . S
N45 H65 0.862 . S
C46 C41 1.501 . S
C46 H47 0.961 . S
C46 H48 0.961 . S
C46 H49 0.960 . S
H47 C46 0.961 . S
H48 C46 0.961 . S
H49 C46 0.960 . S
C50 N51 1.342 . S
C50 C54 1.401 . S
C50 C55 1.499 . S
N51 Co34 1.989 . S
N51 C50 1.342 . S
N51 N52 1.388 . S
N52 Co35 1.993 . S
N52 N51 1.388 . S
N52 C53 1.346 . S
C53 N52 1.346 . S
C53 C54 1.396 . S
C53 C63 1.510 . S
C54 C50 1.401 . S
C54 C53 1.396 . S
C55 C50 1.499 . S
C55 H56 0.959 . S
C55 H57 0.960 . S
C55 H58 0.961 . S
H56 C55 0.959 . S
H57 C55 0.960 . S
H58 C55 0.961 . S
O59 Co34 1.967 . S
O59 C67 1.258 . S
O60 Co35 1.941 . S
O60 C67 1.266 . S
H61 C63 0.959 . S
H62 C63 0.961 . S
C63 C53 1.510 . S
C63 H61 0.959 . S
C63 H62 0.961 . S
C63 H64 0.960 . S
H64 C63 0.960 . S
H65 N45 0.862 . S
O66 Co34 1.920 . S
O66 C39 1.289 . S
C67 O59 1.258 . S
C67 O60 1.266 . S
Co68 O71 1.970 . S
Co68 N85 1.989 . S
Co68 O93 1.967 . S
Co68 O100 1.920 . S
Co69 O72 1.966 . S
Co69 N78 2.022 . S
Co69 N86 1.993 . S
Co69 O94 1.941 . S
C70 O71 1.258 . S
C70 O72 1.263 . S
O71 Co68 1.970 . S
O71 C70 1.258 . S
O72 Co69 1.966 . S
O72 C70 1.263 . S
C73 O74 1.235 . S
C73 O100 1.289 . S
O74 C73 1.235 . S
C75 C77 1.400 . S
C75 N78 1.351 . S
C75 C80 1.501 . S
C76 C77 1.387 . S
C76 N79 1.341 . S
C77 C75 1.400 . S
C77 C76 1.387 . S
N78 Co69 2.022 . S
N78 C75 1.351 . S
N78 N79 1.365 . S
N79 C76 1.341 . S
N79 N78 1.365 . S
N79 H99 0.862 . S
C80 C75 1.501 . S
C80 H81 0.961 . S
C80 H82 0.961 . S
C80 H83 0.960 . S
H81 C80 0.961 . S
H82 C80 0.961 . S
H83 C80 0.960 . S
C84 N85 1.342 . S
C84 C88 1.401 . S
C84 C89 1.499 . S
N85 Co68 1.989 . S
N85 C84 1.342 . S
N85 N86 1.388 . S
N86 Co69 1.993 . S
N86 N85 1.388 . S
N86 C87 1.346 . S
C87 N86 1.346 . S
C87 C88 1.396 . S
C87 C97 1.510 . S
C88 C84 1.401 . S
C88 C87 1.396 . S
C89 C84 1.499 . S
C89 H90 0.959 . S
C89 H91 0.960 . S
C89 H92 0.961 . S
H90 C89 0.959 . S
H91 C89 0.960 . S
H92 C89 0.961 . S
O93 Co68 1.967 . S
O93 C101 1.258 . S
O94 Co69 1.941 . S
O94 C101 1.266 . S
H95 C97 0.959 . S
H96 C97 0.961 . S
C97 C87 1.510 . S
C97 H95 0.959 . S
C97 H96 0.961 . S
C97 H98 0.960 . S
H98 C97 0.960 . S
H99 N79 0.862 . S
O100 Co68 1.920 . S
O100 C73 1.289 . S
C101 O93 1.258 . S
C101 O94 1.266 . S
Co102 O105 1.970 . S
Co102 N119 1.989 . S
Co102 O127 1.967 . S
Co102 O134 1.920 . S
Co103 O106 1.966 . S
Co103 N112 2.022 . S
Co103 N120 1.993 . S
Co103 O128 1.941 . S
C104 O105 1.258 . S
C104 O106 1.263 . S
O105 Co102 1.970 . S
O105 C104 1.258 . S
O106 Co103 1.966 . S
O106 C104 1.263 . S
C107 O108 1.235 . S
C107 O134 1.289 . S
O108 C107 1.235 . S
C109 C111 1.400 . S
C109 N112 1.351 . S
C109 C114 1.501 . S
C110 C111 1.387 . S
C110 N113 1.341 . S
C111 C109 1.400 . S
C111 C110 1.387 . S
N112 Co103 2.022 . S
N112 C109 1.351 . S
N112 N113 1.365 . S
N113 C110 1.341 . S
N113 N112 1.365 . S
N113 H133 0.862 . S
C114 C109 1.501 . S
C114 H115 0.961 . S
C114 H116 0.961 . S
C114 H117 0.960 . S
H115 C114 0.961 . S
H116 C114 0.961 . S
H117 C114 0.960 . S
C118 N119 1.342 . S
C118 C122 1.401 . S
C118 C123 1.499 . S
N119 Co102 1.989 . S
N119 C118 1.342 . S
N119 N120 1.388 . S
N120 Co103 1.993 . S
N120 N119 1.388 . S
N120 C121 1.346 . S
C121 N120 1.346 . S
C121 C122 1.396 . S
C121 C131 1.510 . S
C122 C118 1.401 . S
C122 C121 1.396 . S
C123 C118 1.499 . S
C123 H124 0.959 . S
C123 H125 0.960 . S
C123 H126 0.961 . S
H124 C123 0.959 . S
H125 C123 0.960 . S
H126 C123 0.961 . S
O127 Co102 1.967 . S
O127 C135 1.258 . S
O128 Co103 1.941 . S
O128 C135 1.266 . S
H129 C131 0.959 . S
H130 C131 0.961 . S
C131 C121 1.510 . S
C131 H129 0.959 . S
C131 H130 0.961 . S
C131 H132 0.960 . S
H132 C131 0.960 . S
H133 N113 0.862 . S
O134 Co102 1.920 . S
O134 C107 1.289 . S
C135 O127 1.258 . S
C135 O128 1.266 . S
Co136 O139 1.970 . S
Co136 N153 1.989 . S
Co136 O161 1.967 . S
Co136 O168 1.920 . S
Co137 O140 1.966 . S
Co137 N146 2.022 . S
Co137 N154 1.993 . S
Co137 O162 1.941 . S
C138 O139 1.258 . S
C138 O140 1.263 . S
O139 Co136 1.970 . S
O139 C138 1.258 . S
O140 Co137 1.966 . S
O140 C138 1.263 . S
C141 O142 1.235 . S
C141 O168 1.289 . S
O142 C141 1.235 . S
C143 C145 1.400 . S
C143 N146 1.351 . S
C143 C148 1.501 . S
C144 C145 1.387 . S
C144 N147 1.341 . S
C145 C143 1.400 . S
C145 C144 1.387 . S
N146 Co137 2.022 . S
N146 C143 1.351 . S
N146 N147 1.365 . S
N147 C144 1.341 . S
N147 N146 1.365 . S
N147 H167 0.862 . S
C148 C143 1.501 . S
C148 H149 0.961 . S
C148 H150 0.961 . S
C148 H151 0.960 . S
H149 C148 0.961 . S
H150 C148 0.961 . S
H151 C148 0.960 . S
C152 N153 1.342 . S
C152 C156 1.401 . S
C152 C157 1.499 . S
N153 Co136 1.989 . S
N153 C152 1.342 . S
N153 N154 1.388 . S
N154 Co137 1.993 . S
N154 N153 1.388 . S
N154 C155 1.346 . S
C155 N154 1.346 . S
C155 C156 1.396 . S
C155 C165 1.510 . S
C156 C152 1.401 . S
C156 C155 1.396 . S
C157 C152 1.499 . S
C157 H158 0.959 . S
C157 H159 0.960 . S
C157 H160 0.961 . S
H158 C157 0.959 . S
H159 C157 0.960 . S
H160 C157 0.961 . S
O161 Co136 1.967 . S
O161 C169 1.258 . S
O162 Co137 1.941 . S
O162 C169 1.266 . S
H163 C165 0.959 . S
H164 C165 0.961 . S
C165 C155 1.510 . S
C165 H163 0.959 . S
C165 H164 0.961 . S
C165 H166 0.960 . S
H166 C165 0.960 . S
H167 N147 0.862 . S
O168 Co136 1.920 . S
O168 C141 1.289 . S
C169 O161 1.258 . S
C169 O162 1.266 . S
Co170 O173 1.970 . S
Co170 N187 1.989 . S
Co170 O195 1.967 . S
Co170 O202 1.920 . S
Co171 O174 1.966 . S
Co171 N180 2.022 . S
Co171 N188 1.993 . S
Co171 O196 1.941 . S
C172 O173 1.258 . S
C172 O174 1.263 . S
O173 Co170 1.970 . S
O173 C172 1.258 . S
O174 Co171 1.966 . S
O174 C172 1.263 . S
C175 O176 1.235 . S
C175 O202 1.289 . S
O176 C175 1.235 . S
C177 C179 1.400 . S
C177 N180 1.351 . S
C177 C182 1.501 . S
C178 C179 1.387 . S
C178 N181 1.341 . S
C179 C177 1.400 . S
C179 C178 1.387 . S
N180 Co171 2.022 . S
N180 C177 1.351 . S
N180 N181 1.365 . S
N181 C178 1.341 . S
N181 N180 1.365 . S
N181 H201 0.862 . S
C182 C177 1.501 . S
C182 H183 0.961 . S
C182 H184 0.961 . S
C182 H185 0.960 . S
H183 C182 0.961 . S
H184 C182 0.961 . S
H185 C182 0.960 . S
C186 N187 1.342 . S
C186 C190 1.401 . S
C186 C191 1.499 . S
N187 Co170 1.989 . S
N187 C186 1.342 . S
N187 N188 1.388 . S
N188 Co171 1.993 . S
N188 N187 1.388 . S
N188 C189 1.346 . S
C189 N188 1.346 . S
C189 C190 1.396 . S
C189 C199 1.510 . S
C190 C186 1.401 . S
C190 C189 1.396 . S
C191 C186 1.499 . S
C191 H192 0.959 . S
C191 H193 0.960 . S
C191 H194 0.961 . S
H192 C191 0.959 . S
H193 C191 0.960 . S
H194 C191 0.961 . S
O195 Co170 1.967 . S
O195 C203 1.258 . S
O196 Co171 1.941 . S
O196 C203 1.266 . S
H197 C199 0.959 . S
H198 C199 0.961 . S
C199 C189 1.510 . S
C199 H197 0.959 . S
C199 H198 0.961 . S
C199 H200 0.960 . S
H200 C199 0.960 . S
H201 N181 0.862 . S
O202 Co170 1.920 . S
O202 C175 1.289 . S
C203 O195 1.258 . S
C203 O196 1.266 . S
Co204 O207 1.970 . S
Co204 N221 1.989 . S
Co204 O229 1.967 . S
Co204 O236 1.920 . S
Co205 O208 1.966 . S
Co205 N214 2.022 . S
Co205 N222 1.993 . S
Co205 O230 1.941 . S
C206 O207 1.258 . S
C206 O208 1.263 . S
O207 Co204 1.970 . S
O207 C206 1.258 . S
O208 Co205 1.966 . S
O208 C206 1.263 . S
C209 O210 1.235 . S
C209 O236 1.289 . S
O210 C209 1.235 . S
C211 C213 1.400 . S
C211 N214 1.351 . S
C211 C216 1.501 . S
C212 C213 1.387 . S
C212 N215 1.341 . S
C213 C211 1.400 . S
C213 C212 1.387 . S
N214 Co205 2.022 . S
N214 C211 1.351 . S
N214 N215 1.365 . S
N215 C212 1.341 . S
N215 N214 1.365 . S
N215 H235 0.862 . S
C216 C211 1.501 . S
C216 H217 0.961 . S
C216 H218 0.961 . S
C216 H219 0.960 . S
H217 C216 0.961 . S
H218 C216 0.961 . S
H219 C216 0.960 . S
C220 N221 1.342 . S
C220 C224 1.401 . S
C220 C225 1.499 . S
N221 Co204 1.989 . S
N221 C220 1.342 . S
N221 N222 1.388 . S
N222 Co205 1.993 . S
N222 N221 1.388 . S
N222 C223 1.346 . S
C223 N222 1.346 . S
C223 C224 1.396 . S
C223 C233 1.510 . S
C224 C220 1.401 . S
C224 C223 1.396 . S
C225 C220 1.499 . S
C225 H226 0.959 . S
C225 H227 0.960 . S
C225 H228 0.961 . S
H226 C225 0.959 . S
H227 C225 0.960 . S
H228 C225 0.961 . S
O229 Co204 1.967 . S
O229 C237 1.258 . S
O230 Co205 1.941 . S
O230 C237 1.266 . S
H231 C233 0.959 . S
H232 C233 0.961 . S
C233 C223 1.510 . S
C233 H231 0.959 . S
C233 H232 0.961 . S
C233 H234 0.960 . S
H234 C233 0.960 . S
H235 N215 0.862 . S
O236 Co204 1.920 . S
O236 C209 1.289 . S
C237 O229 1.258 . S
C237 O230 1.266 . S
Co238 O241 1.970 . S
Co238 N255 1.989 . S
Co238 O263 1.967 . S
Co238 O270 1.920 . S
Co239 O242 1.966 . S
Co239 N248 2.022 . S
Co239 N256 1.993 . S
Co239 O264 1.941 . S
C240 O241 1.258 . S
C240 O242 1.263 . S
O241 Co238 1.970 . S
O241 C240 1.258 . S
O242 Co239 1.966 . S
O242 C240 1.263 . S
C243 O244 1.235 . S
C243 O270 1.289 . S
O244 C243 1.235 . S
C245 C247 1.400 . S
C245 N248 1.351 . S
C245 C250 1.501 . S
C246 C247 1.387 . S
C246 N249 1.341 . S
C247 C245 1.400 . S
C247 C246 1.387 . S
N248 Co239 2.022 . S
N248 C245 1.351 . S
N248 N249 1.365 . S
N249 C246 1.341 . S
N249 N248 1.365 . S
N249 H269 0.862 . S
C250 C245 1.501 . S
C250 H251 0.961 . S
C250 H252 0.961 . S
C250 H253 0.960 . S
H251 C250 0.961 . S
H252 C250 0.961 . S
H253 C250 0.960 . S
C254 N255 1.342 . S
C254 C258 1.401 . S
C254 C259 1.499 . S
N255 Co238 1.989 . S
N255 C254 1.342 . S
N255 N256 1.388 . S
N256 Co239 1.993 . S
N256 N255 1.388 . S
N256 C257 1.346 . S
C257 N256 1.346 . S
C257 C258 1.396 . S
C257 C267 1.510 . S
C258 C254 1.401 . S
C258 C257 1.396 . S
C259 C254 1.499 . S
C259 H260 0.959 . S
C259 H261 0.960 . S
C259 H262 0.961 . S
H260 C259 0.959 . S
H261 C259 0.960 . S
H262 C259 0.961 . S
O263 Co238 1.967 . S
O263 C271 1.258 . S
O264 Co239 1.941 . S
O264 C271 1.266 . S
H265 C267 0.959 . S
H266 C267 0.961 . S
C267 C257 1.510 . S
C267 H265 0.959 . S
C267 H266 0.961 . S
C267 H268 0.960 . S
H268 C267 0.960 . S
H269 N249 0.862 . S
O270 Co238 1.920 . S
O270 C243 1.289 . S
C271 O263 1.258 . S
C271 O264 1.266 . S
Co272 O275 1.970 . S
Co272 N289 1.989 . S
Co272 O297 1.967 . S
Co272 O304 1.920 . S
Co273 O276 1.966 . S
Co273 N282 2.022 . S
Co273 N290 1.993 . S
Co273 O298 1.941 . S
C274 O275 1.258 . S
C274 O276 1.263 . S
O275 Co272 1.970 . S
O275 C274 1.258 . S
O276 Co273 1.966 . S
O276 C274 1.263 . S
C277 O278 1.235 . S
C277 O304 1.289 . S
O278 C277 1.235 . S
C279 C281 1.400 . S
C279 N282 1.351 . S
C279 C284 1.501 . S
C280 C281 1.387 . S
C280 N283 1.341 . S
C281 C279 1.400 . S
C281 C280 1.387 . S
N282 Co273 2.022 . S
N282 C279 1.351 . S
N282 N283 1.365 . S
N283 C280 1.341 . S
N283 N282 1.365 . S
N283 H303 0.862 . S
C284 C279 1.501 . S
C284 H285 0.961 . S
C284 H286 0.961 . S
C284 H287 0.960 . S
H285 C284 0.961 . S
H286 C284 0.961 . S
H287 C284 0.960 . S
C288 N289 1.342 . S
C288 C292 1.401 . S
C288 C293 1.499 . S
N289 Co272 1.989 . S
N289 C288 1.342 . S
N289 N290 1.388 . S
N290 Co273 1.993 . S
N290 N289 1.388 . S
N290 C291 1.346 . S
C291 N290 1.346 . S
C291 C292 1.396 . S
C291 C301 1.510 . S
C292 C288 1.401 . S
C292 C291 1.396 . S
C293 C288 1.499 . S
C293 H294 0.959 . S
C293 H295 0.960 . S
C293 H296 0.961 . S
H294 C293 0.959 . S
H295 C293 0.960 . S
H296 C293 0.961 . S
O297 Co272 1.967 . S
O297 C305 1.258 . S
O298 Co273 1.941 . S
O298 C305 1.266 . S
H299 C301 0.959 . S
H300 C301 0.961 . S
C301 C291 1.510 . S
C301 H299 0.959 . S
C301 H300 0.961 . S
C301 H302 0.960 . S
H302 C301 0.960 . S
H303 N283 0.862 . S
O304 Co272 1.920 . S
O304 C277 1.289 . S
C305 O297 1.258 . S
C305 O298 1.266 . S
Co306 O309 1.970 . S
Co306 N323 1.989 . S
Co306 O331 1.967 . S
Co306 O338 1.920 . S
Co307 O310 1.966 . S
Co307 N316 2.022 . S
Co307 N324 1.993 . S
Co307 O332 1.941 . S
C308 O309 1.258 . S
C308 O310 1.263 . S
O309 Co306 1.970 . S
O309 C308 1.258 . S
O310 Co307 1.966 . S
O310 C308 1.263 . S
C311 O312 1.235 . S
C311 O338 1.289 . S
O312 C311 1.235 . S
C313 C315 1.400 . S
C313 N316 1.351 . S
C313 C318 1.501 . S
C314 C315 1.387 . S
C314 N317 1.341 . S
C315 C313 1.400 . S
C315 C314 1.387 . S
N316 Co307 2.022 . S
N316 C313 1.351 . S
N316 N317 1.365 . S
N317 C314 1.341 . S
N317 N316 1.365 . S
N317 H337 0.862 . S
C318 C313 1.501 . S
C318 H319 0.961 . S
C318 H320 0.961 . S
C318 H321 0.960 . S
H319 C318 0.961 . S
H320 C318 0.961 . S
H321 C318 0.960 . S
C322 N323 1.342 . S
C322 C326 1.401 . S
C322 C327 1.499 . S
N323 Co306 1.989 . S
N323 C322 1.342 . S
N323 N324 1.388 . S
N324 Co307 1.993 . S
N324 N323 1.388 . S
N324 C325 1.346 . S
C325 N324 1.346 . S
C325 C326 1.396 . S
C325 C335 1.510 . S
C326 C322 1.401 . S
C326 C325 1.396 . S
C327 C322 1.499 . S
C327 H328 0.959 . S
C327 H329 0.960 . S
C327 H330 0.961 . S
H328 C327 0.959 . S
H329 C327 0.960 . S
H330 C327 0.961 . S
O331 Co306 1.967 . S
O331 C339 1.258 . S
O332 Co307 1.941 . S
O332 C339 1.266 . S
H333 C335 0.959 . S
H334 C335 0.961 . S
C335 C325 1.510 . S
C335 H333 0.959 . S
C335 H334 0.961 . S
C335 H336 0.960 . S
H336 C335 0.960 . S
H337 N317 0.862 . S
O338 Co306 1.920 . S
O338 C311 1.289 . S
C339 O331 1.258 . S
C339 O332 1.266 . S
Co340 O343 1.970 . S
Co340 N357 1.989 . S
Co340 O365 1.967 . S
Co340 O372 1.920 . S
Co341 O344 1.966 . S
Co341 N350 2.022 . S
Co341 N358 1.993 . S
Co341 O366 1.941 . S
C342 O343 1.258 . S
C342 O344 1.263 . S
O343 Co340 1.970 . S
O343 C342 1.258 . S
O344 Co341 1.966 . S
O344 C342 1.263 . S
C345 O346 1.235 . S
C345 O372 1.289 . S
O346 C345 1.235 . S
C347 C349 1.400 . S
C347 N350 1.351 . S
C347 C352 1.501 . S
C348 C349 1.387 . S
C348 N351 1.341 . S
C349 C347 1.400 . S
C349 C348 1.387 . S
N350 Co341 2.022 . S
N350 C347 1.351 . S
N350 N351 1.365 . S
N351 C348 1.341 . S
N351 N350 1.365 . S
N351 H371 0.862 . S
C352 C347 1.501 . S
C352 H353 0.961 . S
C352 H354 0.961 . S
C352 H355 0.960 . S
H353 C352 0.961 . S
H354 C352 0.961 . S
H355 C352 0.960 . S
C356 N357 1.342 . S
C356 C360 1.401 . S
C356 C361 1.499 . S
N357 Co340 1.989 . S
N357 C356 1.342 . S
N357 N358 1.388 . S
N358 Co341 1.993 . S
N358 N357 1.388 . S
N358 C359 1.346 . S
C359 N358 1.346 . S
C359 C360 1.396 . S
C359 C369 1.510 . S
C360 C356 1.401 . S
C360 C359 1.396 . S
C361 C356 1.499 . S
C361 H362 0.959 . S
C361 H363 0.960 . S
C361 H364 0.961 . S
H362 C361 0.959 . S
H363 C361 0.960 . S
H364 C361 0.961 . S
O365 Co340 1.967 . S
O365 C373 1.258 . S
O366 Co341 1.941 . S
O366 C373 1.266 . S
H367 C369 0.959 . S
H368 C369 0.961 . S
C369 C359 1.510 . S
C369 H367 0.959 . S
C369 H368 0.961 . S
C369 H370 0.960 . S
H370 C369 0.960 . S
H371 N351 0.862 . S
O372 Co340 1.920 . S
O372 C345 1.289 . S
C373 O365 1.258 . S
C373 O366 1.266 . S
Co374 O377 1.970 . S
Co374 N391 1.989 . S
Co374 O399 1.967 . S
Co374 O406 1.920 . S
Co375 O378 1.966 . S
Co375 N384 2.022 . S
Co375 N392 1.993 . S
Co375 O400 1.941 . S
C376 O377 1.258 . S
C376 O378 1.263 . S
O377 Co374 1.970 . S
O377 C376 1.258 . S
O378 Co375 1.966 . S
O378 C376 1.263 . S
C379 O380 1.235 . S
C379 O406 1.289 . S
O380 C379 1.235 . S
C381 C383 1.400 . S
C381 N384 1.351 . S
C381 C386 1.501 . S
C382 C383 1.387 . S
C382 N385 1.341 . S
C383 C381 1.400 . S
C383 C382 1.387 . S
N384 Co375 2.022 . S
N384 C381 1.351 . S
N384 N385 1.365 . S
N385 C382 1.341 . S
N385 N384 1.365 . S
N385 H405 0.862 . S
C386 C381 1.501 . S
C386 H387 0.961 . S
C386 H388 0.961 . S
C386 H389 0.960 . S
H387 C386 0.961 . S
H388 C386 0.961 . S
H389 C386 0.960 . S
C390 N391 1.342 . S
C390 C394 1.401 . S
C390 C395 1.499 . S
N391 Co374 1.989 . S
N391 C390 1.342 . S
N391 N392 1.388 . S
N392 Co375 1.993 . S
N392 N391 1.388 . S
N392 C393 1.346 . S
C393 N392 1.346 . S
C393 C394 1.396 . S
C393 C403 1.510 . S
C394 C390 1.401 . S
C394 C393 1.396 . S
C395 C390 1.499 . S
C395 H396 0.959 . S
C395 H397 0.960 . S
C395 H398 0.961 . S
H396 C395 0.959 . S
H397 C395 0.960 . S
H398 C395 0.961 . S
O399 Co374 1.967 . S
O399 C407 1.258 . S
O400 Co375 1.941 . S
O400 C407 1.266 . S
H401 C403 0.959 . S
H402 C403 0.961 . S
C403 C393 1.510 . S
C403 H401 0.959 . S
C403 H402 0.961 . S
C403 H404 0.960 . S
H404 C403 0.960 . S
H405 N385 0.862 . S
O406 Co374 1.920 . S
O406 C379 1.289 . S
C407 O399 1.258 . S
C407 O400 1.266 . S
Co408 O411 1.970 . S
Co408 N425 1.989 . S
Co408 O433 1.967 . S
Co408 O440 1.920 . S
Co409 O412 1.966 . S
Co409 N418 2.022 . S
Co409 N426 1.993 . S
Co409 O434 1.941 . S
C410 O411 1.258 . S
C410 O412 1.263 . S
O411 Co408 1.970 . S
O411 C410 1.258 . S
O412 Co409 1.966 . S
O412 C410 1.263 . S
C413 O414 1.235 . S
C413 O440 1.289 . S
O414 C413 1.235 . S
C415 C417 1.400 . S
C415 N418 1.351 . S
C415 C420 1.501 . S
C416 C417 1.387 . S
C416 N419 1.341 . S
C417 C415 1.400 . S
C417 C416 1.387 . S
N418 Co409 2.022 . S
N418 C415 1.351 . S
N418 N419 1.365 . S
N419 C416 1.341 . S
N419 N418 1.365 . S
N419 H439 0.862 . S
C420 C415 1.501 . S
C420 H421 0.961 . S
C420 H422 0.961 . S
C420 H423 0.960 . S
H421 C420 0.961 . S
H422 C420 0.961 . S
H423 C420 0.960 . S
C424 N425 1.342 . S
C424 C428 1.401 . S
C424 C429 1.499 . S
N425 Co408 1.989 . S
N425 C424 1.342 . S
N425 N426 1.388 . S
N426 Co409 1.993 . S
N426 N425 1.388 . S
N426 C427 1.346 . S
C427 N426 1.346 . S
C427 C428 1.396 . S
C427 C437 1.510 . S
C428 C424 1.401 . S
C428 C427 1.396 . S
C429 C424 1.499 . S
C429 H430 0.959 . S
C429 H431 0.960 . S
C429 H432 0.961 . S
H430 C429 0.959 . S
H431 C429 0.960 . S
H432 C429 0.961 . S
O433 Co408 1.967 . S
O433 C441 1.258 . S
O434 Co409 1.941 . S
O434 C441 1.266 . S
H435 C437 0.959 . S
H436 C437 0.961 . S
C437 C427 1.510 . S
C437 H435 0.959 . S
C437 H436 0.961 . S
C437 H438 0.960 . S
H438 C437 0.960 . S
H439 N419 0.862 . S
O440 Co408 1.920 . S
O440 C413 1.289 . S
C441 O433 1.258 . S
C441 O434 1.266 . S
Co442 O445 1.970 . S
Co442 N459 1.989 . S
Co442 O467 1.967 . S
Co442 O474 1.920 . S
Co443 O446 1.966 . S
Co443 N452 2.022 . S
Co443 N460 1.993 . S
Co443 O468 1.941 . S
C444 O445 1.258 . S
C444 O446 1.263 . S
O445 Co442 1.970 . S
O445 C444 1.258 . S
O446 Co443 1.966 . S
O446 C444 1.263 . S
C447 O448 1.235 . S
C447 O474 1.289 . S
O448 C447 1.235 . S
C449 C451 1.400 . S
C449 N452 1.351 . S
C449 C454 1.501 . S
C450 C451 1.387 . S
C450 N453 1.341 . S
C451 C449 1.400 . S
C451 C450 1.387 . S
N452 Co443 2.022 . S
N452 C449 1.351 . S
N452 N453 1.365 . S
N453 C450 1.341 . S
N453 N452 1.365 . S
N453 H473 0.862 . S
C454 C449 1.501 . S
C454 H455 0.961 . S
C454 H456 0.961 . S
C454 H457 0.960 . S
H455 C454 0.961 . S
H456 C454 0.961 . S
H457 C454 0.960 . S
C458 N459 1.342 . S
C458 C462 1.401 . S
C458 C463 1.499 . S
N459 Co442 1.989 . S
N459 C458 1.342 . S
N459 N460 1.388 . S
N460 Co443 1.993 . S
N460 N459 1.388 . S
N460 C461 1.346 . S
C461 N460 1.346 . S
C461 C462 1.396 . S
C461 C471 1.510 . S
C462 C458 1.401 . S
C462 C461 1.396 . S
C463 C458 1.499 . S
C463 H464 0.959 . S
C463 H465 0.960 . S
C463 H466 0.961 . S
H464 C463 0.959 . S
H465 C463 0.960 . S
H466 C463 0.961 . S
O467 Co442 1.967 . S
O467 C475 1.258 . S
O468 Co443 1.941 . S
O468 C475 1.266 . S
H469 C471 0.959 . S
H470 C471 0.961 . S
C471 C461 1.510 . S
C471 H469 0.959 . S
C471 H470 0.961 . S
C471 H472 0.960 . S
H472 C471 0.960 . S
H473 N453 0.862 . S
O474 Co442 1.920 . S
O474 C447 1.289 . S
C475 O467 1.258 . S
C475 O468 1.266 . S
Co476 O479 1.970 . S
Co476 N493 1.989 . S
Co476 O501 1.967 . S
Co476 O508 1.920 . S
Co477 O480 1.966 . S
Co477 N486 2.022 . S
Co477 N494 1.993 . S
Co477 O502 1.941 . S
C478 O479 1.258 . S
C478 O480 1.263 . S
O479 Co476 1.970 . S
O479 C478 1.258 . S
O480 Co477 1.966 . S
O480 C478 1.263 . S
C481 O482 1.235 . S
C481 O508 1.289 . S
O482 C481 1.235 . S
C483 C485 1.400 . S
C483 N486 1.351 . S
C483 C488 1.501 . S
C484 C485 1.387 . S
C484 N487 1.341 . S
C485 C483 1.400 . S
C485 C484 1.387 . S
N486 Co477 2.022 . S
N486 C483 1.351 . S
N486 N487 1.365 . S
N487 C484 1.341 . S
N487 N486 1.365 . S
N487 H507 0.862 . S
C488 C483 1.501 . S
C488 H489 0.961 . S
C488 H490 0.961 . S
C488 H491 0.960 . S
H489 C488 0.961 . S
H490 C488 0.961 . S
H491 C488 0.960 . S
C492 N493 1.342 . S
C492 C496 1.401 . S
C492 C497 1.499 . S
N493 Co476 1.989 . S
N493 C492 1.342 . S
N493 N494 1.388 . S
N494 Co477 1.993 . S
N494 N493 1.388 . S
N494 C495 1.346 . S
C495 N494 1.346 . S
C495 C496 1.396 . S
C495 C505 1.510 . S
C496 C492 1.401 . S
C496 C495 1.396 . S
C497 C492 1.499 . S
C497 H498 0.959 . S
C497 H499 0.960 . S
C497 H500 0.961 . S
H498 C497 0.959 . S
H499 C497 0.960 . S
H500 C497 0.961 . S
O501 Co476 1.967 . S
O501 C509 1.258 . S
O502 Co477 1.941 . S
O502 C509 1.266 . S
H503 C505 0.959 . S
H504 C505 0.961 . S
C505 C495 1.510 . S
C505 H503 0.959 . S
C505 H504 0.961 . S
C505 H506 0.960 . S
H506 C505 0.960 . S
H507 N487 0.862 . S
O508 Co476 1.920 . S
O508 C481 1.289 . S
C509 O501 1.258 . S
C509 O502 1.266 . S
Co510 O513 1.970 . S
Co510 N527 1.989 . S
Co510 O535 1.967 . S
Co510 O542 1.920 . S
Co511 O514 1.966 . S
Co511 N520 2.022 . S
Co511 N528 1.993 . S
Co511 O536 1.941 . S
C512 O513 1.258 . S
C512 O514 1.263 . S
O513 Co510 1.970 . S
O513 C512 1.258 . S
O514 Co511 1.966 . S
O514 C512 1.263 . S
C515 O516 1.235 . S
C515 O542 1.289 . S
O516 C515 1.235 . S
C517 C519 1.400 . S
C517 N520 1.351 . S
C517 C522 1.501 . S
C518 C519 1.387 . S
C518 N521 1.341 . S
C519 C517 1.400 . S
C519 C518 1.387 . S
N520 Co511 2.022 . S
N520 C517 1.351 . S
N520 N521 1.365 . S
N521 C518 1.341 . S
N521 N520 1.365 . S
N521 H541 0.862 . S
C522 C517 1.501 . S
C522 H523 0.961 . S
C522 H524 0.961 . S
C522 H525 0.960 . S
H523 C522 0.961 . S
H524 C522 0.961 . S
H525 C522 0.960 . S
C526 N527 1.342 . S
C526 C530 1.401 . S
C526 C531 1.499 . S
N527 Co510 1.989 . S
N527 C526 1.342 . S
N527 N528 1.388 . S
N528 Co511 1.993 . S
N528 N527 1.388 . S
N528 C529 1.346 . S
C529 N528 1.346 . S
C529 C530 1.396 . S
C529 C539 1.510 . S
C530 C526 1.401 . S
C530 C529 1.396 . S
C531 C526 1.499 . S
C531 H532 0.959 . S
C531 H533 0.960 . S
C531 H534 0.961 . S
H532 C531 0.959 . S
H533 C531 0.960 . S
H534 C531 0.961 . S
O535 Co510 1.967 . S
O535 C543 1.258 . S
O536 Co511 1.941 . S
O536 C543 1.266 . S
H537 C539 0.959 . S
H538 C539 0.961 . S
C539 C529 1.510 . S
C539 H537 0.959 . S
C539 H538 0.961 . S
C539 H540 0.960 . S
H540 C539 0.960 . S
H541 N521 0.862 . S
O542 Co510 1.920 . S
O542 C515 1.289 . S
C543 O535 1.258 . S
C543 O536 1.266 . S
Co544 O547 1.970 . S
Co544 N561 1.989 . S
Co544 O569 1.967 . S
Co544 O576 1.920 . S
Co545 O548 1.966 . S
Co545 N554 2.022 . S
Co545 N562 1.993 . S
Co545 O570 1.941 . S
C546 O547 1.258 . S
C546 O548 1.263 . S
O547 Co544 1.970 . S
O547 C546 1.258 . S
O548 Co545 1.966 . S
O548 C546 1.263 . S
C549 O550 1.235 . S
C549 O576 1.289 . S
O550 C549 1.235 . S
C551 C553 1.400 . S
C551 N554 1.351 . S
C551 C556 1.501 . S
C552 C553 1.387 . S
C552 N555 1.341 . S
C553 C551 1.400 . S
C553 C552 1.387 . S
N554 Co545 2.022 . S
N554 C551 1.351 . S
N554 N555 1.365 . S
N555 C552 1.341 . S
N555 N554 1.365 . S
N555 H575 0.862 . S
C556 C551 1.501 . S
C556 H557 0.961 . S
C556 H558 0.961 . S
C556 H559 0.960 . S
H557 C556 0.961 . S
H558 C556 0.961 . S
H559 C556 0.960 . S
C560 N561 1.342 . S
C560 C564 1.401 . S
C560 C565 1.499 . S
N561 Co544 1.989 . S
N561 C560 1.342 . S
N561 N562 1.388 . S
N562 Co545 1.993 . S
N562 N561 1.388 . S
N562 C563 1.346 . S
C563 N562 1.346 . S
C563 C564 1.396 . S
C563 C573 1.510 . S
C564 C560 1.401 . S
C564 C563 1.396 . S
C565 C560 1.499 . S
C565 H566 0.959 . S
C565 H567 0.960 . S
C565 H568 0.961 . S
H566 C565 0.959 . S
H567 C565 0.960 . S
H568 C565 0.961 . S
O569 Co544 1.967 . S
O569 C577 1.258 . S
O570 Co545 1.941 . S
O570 C577 1.266 . S
H571 C573 0.959 . S
H572 C573 0.961 . S
C573 C563 1.510 . S
C573 H571 0.959 . S
C573 H572 0.961 . S
C573 H574 0.960 . S
H574 C573 0.960 . S
H575 N555 0.862 . S
O576 Co544 1.920 . S
O576 C549 1.289 . S
C577 O569 1.258 . S
C577 O570 1.266 . S
Co578 O581 1.970 . S
Co578 N595 1.989 . S
Co578 O603 1.967 . S
Co578 O610 1.920 . S
Co579 O582 1.966 . S
Co579 N588 2.022 . S
Co579 N596 1.993 . S
Co579 O604 1.941 . S
C580 O581 1.258 . S
C580 O582 1.263 . S
O581 Co578 1.970 . S
O581 C580 1.258 . S
O582 Co579 1.966 . S
O582 C580 1.263 . S
C583 O584 1.235 . S
C583 O610 1.289 . S
O584 C583 1.235 . S
C585 C587 1.400 . S
C585 N588 1.351 . S
C585 C590 1.501 . S
C586 C587 1.387 . S
C586 N589 1.341 . S
C587 C585 1.400 . S
C587 C586 1.387 . S
N588 Co579 2.022 . S
N588 C585 1.351 . S
N588 N589 1.365 . S
N589 C586 1.341 . S
N589 N588 1.365 . S
N589 H609 0.862 . S
C590 C585 1.501 . S
C590 H591 0.961 . S
C590 H592 0.961 . S
C590 H593 0.960 . S
H591 C590 0.961 . S
H592 C590 0.961 . S
H593 C590 0.960 . S
C594 N595 1.342 . S
C594 C598 1.401 . S
C594 C599 1.499 . S
N595 Co578 1.989 . S
N595 C594 1.342 . S
N595 N596 1.388 . S
N596 Co579 1.993 . S
N596 N595 1.388 . S
N596 C597 1.346 . S
C597 N596 1.346 . S
C597 C598 1.396 . S
C597 C607 1.510 . S
C598 C594 1.401 . S
C598 C597 1.396 . S
C599 C594 1.499 . S
C599 H600 0.959 . S
C599 H601 0.960 . S
C599 H602 0.961 . S
H600 C599 0.959 . S
H601 C599 0.960 . S
H602 C599 0.961 . S
O603 Co578 1.967 . S
O603 C611 1.258 . S
O604 Co579 1.941 . S
O604 C611 1.266 . S
H605 C607 0.959 . S
H606 C607 0.961 . S
C607 C597 1.510 . S
C607 H605 0.959 . S
C607 H606 0.961 . S
C607 H608 0.960 . S
H608 C607 0.960 . S
H609 N589 0.862 . S
O610 Co578 1.920 . S
O610 C583 1.289 . S
C611 O603 1.258 . S
C611 O604 1.266 . S
Co612 O615 1.970 . S
Co612 N629 1.989 . S
Co612 O637 1.967 . S
Co612 O644 1.920 . S
Co613 O616 1.966 . S
Co613 N622 2.022 . S
Co613 N630 1.993 . S
Co613 O638 1.941 . S
C614 O615 1.258 . S
C614 O616 1.263 . S
O615 Co612 1.970 . S
O615 C614 1.258 . S
O616 Co613 1.966 . S
O616 C614 1.263 . S
C617 O618 1.235 . S
C617 O644 1.289 . S
O618 C617 1.235 . S
C619 C621 1.400 . S
C619 N622 1.351 . S
C619 C624 1.501 . S
C620 C621 1.387 . S
C620 N623 1.341 . S
C621 C619 1.400 . S
C621 C620 1.387 . S
N622 Co613 2.022 . S
N622 C619 1.351 . S
N622 N623 1.365 . S
N623 C620 1.341 . S
N623 N622 1.365 . S
N623 H643 0.862 . S
C624 C619 1.501 . S
C624 H625 0.961 . S
C624 H626 0.961 . S
C624 H627 0.960 . S
H625 C624 0.961 . S
H626 C624 0.961 . S
H627 C624 0.960 . S
C628 N629 1.342 . S
C628 C632 1.401 . S
C628 C633 1.499 . S
N629 Co612 1.989 . S
N629 C628 1.342 . S
N629 N630 1.388 . S
N630 Co613 1.993 . S
N630 N629 1.388 . S
N630 C631 1.346 . S
C631 N630 1.346 . S
C631 C632 1.396 . S
C631 C641 1.510 . S
C632 C628 1.401 . S
C632 C631 1.396 . S
C633 C628 1.499 . S
C633 H634 0.959 . S
C633 H635 0.960 . S
C633 H636 0.961 . S
H634 C633 0.959 . S
H635 C633 0.960 . S
H636 C633 0.961 . S
O637 Co612 1.967 . S
O637 C645 1.258 . S
O638 Co613 1.941 . S
O638 C645 1.266 . S
H639 C641 0.959 . S
H640 C641 0.961 . S
C641 C631 1.510 . S
C641 H639 0.959 . S
C641 H640 0.961 . S
C641 H642 0.960 . S
H642 C641 0.960 . S
H643 N623 0.862 . S
O644 Co612 1.920 . S
O644 C617 1.289 . S
C645 O637 1.258 . S
C645 O638 1.266 . S
Co646 O649 1.970 . S
Co646 N663 1.989 . S
Co646 O671 1.967 . S
Co646 O678 1.920 . S
Co647 O650 1.966 . S
Co647 N656 2.022 . S
Co647 N664 1.993 . S
Co647 O672 1.941 . S
C648 O649 1.258 . S
C648 O650 1.263 . S
O649 Co646 1.970 . S
O649 C648 1.258 . S
O650 Co647 1.966 . S
O650 C648 1.263 . S
C651 O652 1.235 . S
C651 O678 1.289 . S
O652 C651 1.235 . S
C653 C655 1.400 . S
C653 N656 1.351 . S
C653 C658 1.501 . S
C654 C655 1.387 . S
C654 N657 1.341 . S
C655 C653 1.400 . S
C655 C654 1.387 . S
N656 Co647 2.022 . S
N656 C653 1.351 . S
N656 N657 1.365 . S
N657 C654 1.341 . S
N657 N656 1.365 . S
N657 H677 0.862 . S
C658 C653 1.501 . S
C658 H659 0.961 . S
C658 H660 0.961 . S
C658 H661 0.960 . S
H659 C658 0.961 . S
H660 C658 0.961 . S
H661 C658 0.960 . S
C662 N663 1.342 . S
C662 C666 1.401 . S
C662 C667 1.499 . S
N663 Co646 1.989 . S
N663 C662 1.342 . S
N663 N664 1.388 . S
N664 Co647 1.993 . S
N664 N663 1.388 . S
N664 C665 1.346 . S
C665 N664 1.346 . S
C665 C666 1.396 . S
C665 C675 1.510 . S
C666 C662 1.401 . S
C666 C665 1.396 . S
C667 C662 1.499 . S
C667 H668 0.959 . S
C667 H669 0.960 . S
C667 H670 0.961 . S
H668 C667 0.959 . S
H669 C667 0.960 . S
H670 C667 0.961 . S
O671 Co646 1.967 . S
O671 C679 1.258 . S
O672 Co647 1.941 . S
O672 C679 1.266 . S
H673 C675 0.959 . S
H674 C675 0.961 . S
C675 C665 1.510 . S
C675 H673 0.959 . S
C675 H674 0.961 . S
C675 H676 0.960 . S
H676 C675 0.960 . S
H677 N657 0.862 . S
O678 Co646 1.920 . S
O678 C651 1.289 . S
C679 O671 1.258 . S
C679 O672 1.266 . S
Co680 O683 1.970 . S
Co680 N697 1.989 . S
Co680 O705 1.967 . S
Co680 O712 1.920 . S
Co681 O684 1.966 . S
Co681 N690 2.022 . S
Co681 N698 1.993 . S
Co681 O706 1.941 . S
C682 O683 1.258 . S
C682 O684 1.263 . S
O683 Co680 1.970 . S
O683 C682 1.258 . S
O684 Co681 1.966 . S
O684 C682 1.263 . S
C685 O686 1.235 . S
C685 O712 1.289 . S
O686 C685 1.235 . S
C687 C689 1.400 . S
C687 N690 1.351 . S
C687 C692 1.501 . S
C688 C689 1.387 . S
C688 N691 1.341 . S
C689 C687 1.400 . S
C689 C688 1.387 . S
N690 Co681 2.022 . S
N690 C687 1.351 . S
N690 N691 1.365 . S
N691 C688 1.341 . S
N691 N690 1.365 . S
N691 H711 0.862 . S
C692 C687 1.501 . S
C692 H693 0.961 . S
C692 H694 0.961 . S
C692 H695 0.960 . S
H693 C692 0.961 . S
H694 C692 0.961 . S
H695 C692 0.960 . S
C696 N697 1.342 . S
C696 C700 1.401 . S
C696 C701 1.499 . S
N697 Co680 1.989 . S
N697 C696 1.342 . S
N697 N698 1.388 . S
N698 Co681 1.993 . S
N698 N697 1.388 . S
N698 C699 1.346 . S
C699 N698 1.346 . S
C699 C700 1.396 . S
C699 C709 1.510 . S
C700 C696 1.401 . S
C700 C699 1.396 . S
C701 C696 1.499 . S
C701 H702 0.959 . S
C701 H703 0.960 . S
C701 H704 0.961 . S
H702 C701 0.959 . S
H703 C701 0.960 . S
H704 C701 0.961 . S
O705 Co680 1.967 . S
O705 C713 1.258 . S
O706 Co681 1.941 . S
O706 C713 1.266 . S
H707 C709 0.959 . S
H708 C709 0.961 . S
C709 C699 1.510 . S
C709 H707 0.959 . S
C709 H708 0.961 . S
C709 H710 0.960 . S
H710 C709 0.960 . S
H711 N691 0.862 . S
O712 Co680 1.920 . S
O712 C685 1.289 . S
C713 O705 1.258 . S
C713 O706 1.266 . S
Co714 O717 1.970 . S
Co714 N731 1.989 . S
Co714 O739 1.967 . S
Co714 O746 1.920 . S
Co715 O718 1.966 . S
Co715 N724 2.022 . S
Co715 N732 1.993 . S
Co715 O740 1.941 . S
C716 O717 1.258 . S
C716 O718 1.263 . S
O717 Co714 1.970 . S
O717 C716 1.258 . S
O718 Co715 1.966 . S
O718 C716 1.263 . S
C719 O720 1.235 . S
C719 O746 1.289 . S
O720 C719 1.235 . S
C721 C723 1.400 . S
C721 N724 1.351 . S
C721 C726 1.501 . S
C722 C723 1.387 . S
C722 N725 1.341 . S
C723 C721 1.400 . S
C723 C722 1.387 . S
N724 Co715 2.022 . S
N724 C721 1.351 . S
N724 N725 1.365 . S
N725 C722 1.341 . S
N725 N724 1.365 . S
N725 H745 0.862 . S
C726 C721 1.501 . S
C726 H727 0.961 . S
C726 H728 0.961 . S
C726 H729 0.960 . S
H727 C726 0.961 . S
H728 C726 0.961 . S
H729 C726 0.960 . S
C730 N731 1.342 . S
C730 C734 1.401 . S
C730 C735 1.499 . S
N731 Co714 1.989 . S
N731 C730 1.342 . S
N731 N732 1.388 . S
N732 Co715 1.993 . S
N732 N731 1.388 . S
N732 C733 1.346 . S
C733 N732 1.346 . S
C733 C734 1.396 . S
C733 C743 1.510 . S
C734 C730 1.401 . S
C734 C733 1.396 . S
C735 C730 1.499 . S
C735 H736 0.959 . S
C735 H737 0.960 . S
C735 H738 0.961 . S
H736 C735 0.959 . S
H737 C735 0.960 . S
H738 C735 0.961 . S
O739 Co714 1.967 . S
O739 C747 1.258 . S
O740 Co715 1.941 . S
O740 C747 1.266 . S
H741 C743 0.959 . S
H742 C743 0.961 . S
C743 C733 1.510 . S
C743 H741 0.959 . S
C743 H742 0.961 . S
C743 H744 0.960 . S
H744 C743 0.960 . S
H745 N725 0.862 . S
O746 Co714 1.920 . S
O746 C719 1.289 . S
C747 O739 1.258 . S
C747 O740 1.266 . S
Co748 O751 1.970 . S
Co748 N765 1.989 . S
Co748 O773 1.967 . S
Co748 O780 1.920 . S
Co749 O752 1.966 . S
Co749 N758 2.022 . S
Co749 N766 1.993 . S
Co749 O774 1.941 . S
C750 O751 1.258 . S
C750 O752 1.263 . S
O751 Co748 1.970 . S
O751 C750 1.258 . S
O752 Co749 1.966 . S
O752 C750 1.263 . S
C753 O754 1.235 . S
C753 O780 1.289 . S
O754 C753 1.235 . S
C755 C757 1.400 . S
C755 N758 1.351 . S
C755 C760 1.501 . S
C756 C757 1.387 . S
C756 N759 1.341 . S
C757 C755 1.400 . S
C757 C756 1.387 . S
N758 Co749 2.022 . S
N758 C755 1.351 . S
N758 N759 1.365 . S
N759 C756 1.341 . S
N759 N758 1.365 . S
N759 H779 0.862 . S
C760 C755 1.501 . S
C760 H761 0.961 . S
C760 H762 0.961 . S
C760 H763 0.960 . S
H761 C760 0.961 . S
H762 C760 0.961 . S
H763 C760 0.960 . S
C764 N765 1.342 . S
C764 C768 1.401 . S
C764 C769 1.499 . S
N765 Co748 1.989 . S
N765 C764 1.342 . S
N765 N766 1.388 . S
N766 Co749 1.993 . S
N766 N765 1.388 . S
N766 C767 1.346 . S
C767 N766 1.346 . S
C767 C768 1.396 . S
C767 C777 1.510 . S
C768 C764 1.401 . S
C768 C767 1.396 . S
C769 C764 1.499 . S
C769 H770 0.959 . S
C769 H771 0.960 . S
C769 H772 0.961 . S
H770 C769 0.959 . S
H771 C769 0.960 . S
H772 C769 0.961 . S
O773 Co748 1.967 . S
O773 C781 1.258 . S
O774 Co749 1.941 . S
O774 C781 1.266 . S
H775 C777 0.959 . S
H776 C777 0.961 . S
C777 C767 1.510 . S
C777 H775 0.959 . S
C777 H776 0.961 . S
C777 H778 0.960 . S
H778 C777 0.960 . S
H779 N759 0.862 . S
O780 Co748 1.920 . S
O780 C753 1.289 . S
C781 O773 1.258 . S
C781 O774 1.266 . S
Co782 O785 1.970 . S
Co782 N799 1.989 . S
Co782 O807 1.967 . S
Co782 O814 1.920 . S
Co783 O786 1.966 . S
Co783 N792 2.022 . S
Co783 N800 1.993 . S
Co783 O808 1.941 . S
C784 O785 1.258 . S
C784 O786 1.263 . S
O785 Co782 1.970 . S
O785 C784 1.258 . S
O786 Co783 1.966 . S
O786 C784 1.263 . S
C787 O788 1.235 . S
C787 O814 1.289 . S
O788 C787 1.235 . S
C789 C791 1.400 . S
C789 N792 1.351 . S
C789 C794 1.501 . S
C790 C791 1.387 . S
C790 N793 1.341 . S
C791 C789 1.400 . S
C791 C790 1.387 . S
N792 Co783 2.022 . S
N792 C789 1.351 . S
N792 N793 1.365 . S
N793 C790 1.341 . S
N793 N792 1.365 . S
N793 H813 0.862 . S
C794 C789 1.501 . S
C794 H795 0.961 . S
C794 H796 0.961 . S
C794 H797 0.960 . S
H795 C794 0.961 . S
H796 C794 0.961 . S
H797 C794 0.960 . S
C798 N799 1.342 . S
C798 C802 1.401 . S
C798 C803 1.499 . S
N799 Co782 1.989 . S
N799 C798 1.342 . S
N799 N800 1.388 . S
N800 Co783 1.993 . S
N800 N799 1.388 . S
N800 C801 1.346 . S
C801 N800 1.346 . S
C801 C802 1.396 . S
C801 C811 1.510 . S
C802 C798 1.401 . S
C802 C801 1.396 . S
C803 C798 1.499 . S
C803 H804 0.959 . S
C803 H805 0.960 . S
C803 H806 0.961 . S
H804 C803 0.959 . S
H805 C803 0.960 . S
H806 C803 0.961 . S
O807 Co782 1.967 . S
O807 C815 1.258 . S
O808 Co783 1.941 . S
O808 C815 1.266 . S
H809 C811 0.959 . S
H810 C811 0.961 . S
C811 C801 1.510 . S
C811 H809 0.959 . S
C811 H810 0.961 . S
C811 H812 0.960 . S
H812 C811 0.960 . S
H813 N793 0.862 . S
O814 Co782 1.920 . S
O814 C787 1.289 . S
C815 O807 1.258 . S
C815 O808 1.266 . S
H816 C822 0.930 . S
H817 C825 0.930 . S
H818 C826 0.930 . S
H819 C827 0.930 . S
H820 C830 0.930 . S
H821 C831 0.930 . S
C822 H816 0.930 . S
C822 C823 1.355 . S
C822 C824 1.415 . S
C823 C822 1.355 . S
C823 C825 1.419 . S
C824 C822 1.415 . S
C824 C829 1.425 1_655 S
C824 C831 1.409 . S
C825 H817 0.930 . S
C825 C823 1.419 . S
C825 C826 1.362 1_655 S
C826 H818 0.930 . S
C826 C825 1.362 1_455 S
C826 C829 1.409 . S
C827 H819 0.930 . S
C827 C828 1.355 . S
C827 C829 1.415 . S
C828 C827 1.355 . S
C828 C830 1.419 . S
C829 C824 1.425 1_455 S
C829 C826 1.409 . S
C829 C827 1.415 . S
C830 H820 0.930 . S
C830 C828 1.419 . S
C830 C831 1.362 1_455 S
C831 H821 0.930 . S
C831 C824 1.409 . S
C831 C830 1.362 1_655 S
H832 C838 0.930 . S
H833 C841 0.930 . S
H834 C842 0.930 . S
H835 C843 0.930 . S
H836 C846 0.930 . S
H837 C847 0.930 . S
C838 H832 0.930 . S
C838 C839 1.355 . S
C838 C840 1.415 . S
C839 C838 1.355 . S
C839 C841 1.419 . S
C840 C838 1.415 . S
C840 C845 1.425 1_565 S
C840 C847 1.409 1_565 S
C841 H833 0.930 . S
C841 C839 1.419 . S
C841 C842 1.362 . S
C842 H834 0.930 . S
C842 C841 1.362 . S
C842 C845 1.409 1_565 S
C843 H835 0.930 . S
C843 C844 1.355 . S
C843 C845 1.415 . S
C844 C843 1.355 . S
C844 C846 1.419 . S
C845 C840 1.425 1_545 S
C845 C842 1.409 1_545 S
C845 C843 1.415 . S
C846 H836 0.930 . S
C846 C844 1.419 . S
C846 C847 1.362 . S
C847 H837 0.930 . S
C847 C840 1.409 1_545 S
C847 C846 1.362 . S
H848 C854 0.930 . S
H849 C857 0.930 . S
H850 C858 0.930 1_655 S
H851 C859 0.930 . S
H852 C862 0.930 . S
H853 C863 0.930 1_455 S
C854 H848 0.930 . S
C854 C855 1.355 . S
C854 C856 1.415 . S
C855 C854 1.355 . S
C855 C857 1.419 . S
C856 C854 1.415 . S
C856 C861 1.425 1_455 S
C856 C863 1.409 1_455 S
C857 H849 0.930 . S
C857 C855 1.419 . S
C857 C858 1.362 . S
C858 H850 0.930 1_455 S
C858 C857 1.362 . S
C858 C861 1.409 1_455 S
C859 H851 0.930 . S
C859 C860 1.355 . S
C859 C861 1.415 . S
C860 C859 1.355 . S
C860 C862 1.419 . S
C861 C856 1.425 1_655 S
C861 C858 1.409 1_655 S
C861 C859 1.415 . S
C862 H852 0.930 . S
C862 C860 1.419 . S
C862 C863 1.362 . S
C863 H853 0.930 1_655 S
C863 C856 1.409 1_655 S
C863 C862 1.362 . S
H864 C870 0.930 . S
H865 C873 0.930 . S
H866 C874 0.930 1_545 S
H867 C875 0.930 . S
H868 C878 0.930 . S
H869 C879 0.930 1_565 S
C870 H864 0.930 . S
C870 C871 1.355 . S
C870 C872 1.415 . S
C871 C870 1.355 . S
C871 C873 1.419 . S
C872 C870 1.415 . S
C872 C877 1.425 1_565 S
C872 C879 1.409 1_565 S
C873 H865 0.930 . S
C873 C871 1.419 . S
C873 C874 1.362 . S
C874 H866 0.930 1_565 S
C874 C873 1.362 . S
C874 C877 1.409 1_565 S
C875 H867 0.930 . S
C875 C876 1.355 . S
C875 C877 1.415 . S
C876 C875 1.355 . S
C876 C878 1.419 . S
C877 C872 1.425 1_545 S
C877 C874 1.409 1_545 S
C877 C875 1.415 . S
C878 H868 0.930 . S
C878 C876 1.419 . S
C878 C879 1.362 . S
C879 H869 0.930 1_545 S
C879 C872 1.409 1_545 S
C879 C878 1.362 . S
H880 C886 0.930 . S
H881 C889 0.930 . S
H882 C890 0.930 1_455 S
H883 C891 0.930 . S
H884 C894 0.930 . S
H885 C895 0.930 1_655 S
C886 H880 0.930 . S
C886 C887 1.355 . S
C886 C888 1.415 . S
C887 C886 1.355 . S
C887 C889 1.419 . S
C888 C886 1.415 . S
C888 C893 1.425 1_655 S
C888 C895 1.409 1_655 S
C889 H881 0.930 . S
C889 C887 1.419 . S
C889 C890 1.362 . S
C890 H882 0.930 1_655 S
C890 C889 1.362 . S
C890 C893 1.409 1_655 S
C891 H883 0.930 . S
C891 C892 1.355 . S
C891 C893 1.415 . S
C892 C891 1.355 . S
C892 C894 1.419 . S
C893 C888 1.425 1_455 S
C893 C890 1.409 1_455 S
C893 C891 1.415 . S
C894 H884 0.930 . S
C894 C892 1.419 . S
C894 C895 1.362 . S
C895 H885 0.930 1_455 S
C895 C888 1.409 1_455 S
C895 C894 1.362 . S
H896 C902 0.930 . S
H897 C905 0.930 . S
H898 C906 0.930 . S
H899 C907 0.930 . S
H900 C910 0.930 . S
H901 C911 0.930 . S
C902 H896 0.930 . S
C902 C903 1.355 . S
C902 C904 1.387 1_545 S
C903 C902 1.355 . S
C903 C905 1.419 . S
C904 C902 1.387 1_565 S
C904 C909 1.423 1_565 S
C904 C911 1.439 . S
C905 H897 0.930 . S
C905 C903 1.419 . S
C905 C906 1.362 . S
C906 H898 0.930 . S
C906 C905 1.362 . S
C906 C909 1.439 . S
C907 H899 0.930 . S
C907 C908 1.355 . S
C907 C909 1.387 1_565 S
C908 C907 1.355 . S
C908 C910 1.419 . S
C909 C904 1.423 1_545 S
C909 C906 1.439 . S
C909 C907 1.387 1_545 S
C910 H900 0.930 . S
C910 C908 1.419 . S
C910 C911 1.362 . S
C911 H901 0.930 . S
C911 C904 1.439 . S
C911 C910 1.362 . S
H912 C918 0.930 . S
H913 C921 0.930 . S
H914 C922 0.930 1_455 S
H915 C923 0.930 . S
H916 C926 0.930 . S
H917 C927 0.930 1_655 S
C918 H912 0.930 . S
C918 C919 1.355 . S
C918 C920 1.415 . S
C919 C918 1.355 . S
C919 C921 1.419 . S
C920 C918 1.415 . S
C920 C925 1.425 1_655 S
C920 C927 1.409 1_655 S
C921 H913 0.930 . S
C921 C919 1.419 . S
C921 C922 1.362 . S
C922 H914 0.930 1_655 S
C922 C921 1.362 . S
C922 C925 1.409 1_655 S
C923 H915 0.930 . S
C923 C924 1.355 . S
C923 C925 1.415 . S
C924 C923 1.355 . S
C924 C926 1.419 . S
C925 C920 1.425 1_455 S
C925 C922 1.409 1_455 S
C925 C923 1.415 . S
C926 H916 0.930 . S
C926 C924 1.419 . S
C926 C927 1.362 . S
C927 H917 0.930 1_455 S
C927 C920 1.409 1_455 S
C927 C926 1.362 . S
H928 C934 0.930 . S
H929 C937 0.930 . S
H930 C938 0.930 . S
H931 C939 0.930 . S
H932 C942 0.930 . S
H933 C943 0.930 . S
C934 H928 0.930 . S
C934 C935 1.355 . S
C934 C936 1.415 . S
C935 C934 1.355 . S
C935 C937 1.419 . S
C936 C934 1.415 . S
C936 C941 1.425 1_565 S
C936 C943 1.409 . S
C937 H929 0.930 . S
C937 C935 1.419 . S
C937 C938 1.362 1_565 S
C938 H930 0.930 . S
C938 C937 1.362 1_545 S
C938 C941 1.409 . S
C939 H931 0.930 . S
C939 C940 1.355 . S
C939 C941 1.415 . S
C940 C939 1.355 . S
C940 C942 1.419 . S
C941 C936 1.425 1_545 S
C941 C938 1.409 . S
C941 C939 1.415 . S
C942 H932 0.930 . S
C942 C940 1.419 . S
C942 C943 1.362 1_545 S
C943 H933 0.930 . S
C943 C936 1.409 . S
C943 C942 1.362 1_565 S
H944 C950 0.930 . S
H945 C953 0.930 . S
H946 C954 0.930 1_556 S
H947 C955 0.930 . S
H948 C958 0.930 . S
H949 C959 0.930 1_554 S
C950 H944 0.930 . S
C950 C951 1.355 . S
C950 C952 1.415 . S
C951 C950 1.355 . S
C951 C953 1.419 . S
C952 C950 1.415 . S
C952 C957 1.425 1_554 S
C952 C959 1.409 1_554 S
C953 H945 0.930 . S
C953 C951 1.419 . S
C953 C954 1.362 . S
C954 H946 0.930 1_554 S
C954 C953 1.362 . S
C954 C957 1.409 1_554 S
C955 H947 0.930 . S
C955 C956 1.355 . S
C955 C957 1.415 . S
C956 C955 1.355 . S
C956 C958 1.419 . S
C957 C952 1.425 1_556 S
C957 C954 1.409 1_556 S
C957 C955 1.415 . S
C958 H948 0.930 . S
C958 C956 1.419 . S
C958 C959 1.362 . S
C959 H949 0.930 1_556 S
C959 C952 1.409 1_556 S
C959 C958 1.362 . S
H960 C966 0.930 . S
H961 C969 0.930 . S
H962 C970 0.930 . S
H963 C971 0.930 . S
H964 C974 0.930 . S
H965 C975 0.930 . S
C966 H960 0.930 . S
C966 C967 1.355 . S
C966 C968 1.415 1_554 S
C967 C966 1.355 . S
C967 C969 1.419 . S
C968 C966 1.415 1_556 S
C968 C973 1.425 1_556 S
C968 C975 1.409 . S
C969 H961 0.930 . S
C969 C967 1.419 . S
C969 C970 1.362 . S
C970 H962 0.930 . S
C970 C969 1.362 . S
C970 C973 1.409 . S
C971 H963 0.930 . S
C971 C972 1.355 . S
C971 C973 1.415 1_556 S
C972 C971 1.355 . S
C972 C974 1.419 . S
C973 C968 1.425 1_554 S
C973 C970 1.409 . S
C973 C971 1.415 1_554 S
C974 H964 0.930 . S
C974 C972 1.419 . S
C974 C975 1.362 . S
C975 H965 0.930 . S
C975 C968 1.409 . S
C975 C974 1.362 . S
H976 C982 0.930 . S
H977 C985 0.930 . S
H978 C986 0.930 . S
H979 C987 0.930 . S
H980 C990 0.930 . S
H981 C991 0.930 . S
C982 H976 0.930 . S
C982 C983 1.355 . S
C982 C984 1.415 1_556 S
C983 C982 1.355 . S
C983 C985 1.419 . S
C984 C982 1.415 1_554 S
C984 C989 1.425 1_554 S
C984 C991 1.409 . S
C985 H977 0.930 . S
C985 C983 1.419 . S
C985 C986 1.362 . S
C986 H978 0.930 . S
C986 C985 1.362 . S
C986 C989 1.409 . S
C987 H979 0.930 . S
C987 C988 1.355 . S
C987 C989 1.415 1_554 S
C988 C987 1.355 . S
C988 C990 1.419 . S
C989 C984 1.425 1_556 S
C989 C986 1.409 . S
C989 C987 1.415 1_556 S
C990 H980 0.930 . S
C990 C988 1.419 . S
C990 C991 1.362 . S
C991 H981 0.930 . S
C991 C984 1.409 . S
C991 C990 1.362 . S
H992 C998 0.930 . S
H993 C1001 0.930 . S
H994 C1002 0.930 . S
H995 C1003 0.930 . S
H996 C1006 0.930 . S
H997 C1007 0.930 . S
C998 H992 0.930 . S
C998 C999 1.355 . S
C998 C1000 1.415 . S
C999 C998 1.355 . S
C999 C1001 1.419 . S
C1000 C998 1.415 . S
C1000 C1005 1.425 1_554 S
C1000 C1007 1.409 1_554 S
C1001 H993 0.930 . S
C1001 C999 1.419 . S
C1001 C1002 1.362 . S
C1002 H994 0.930 . S
C1002 C1001 1.362 . S
C1002 C1005 1.409 1_554 S
C1003 H995 0.930 . S
C1003 C1004 1.355 . S
C1003 C1005 1.415 . S
C1004 C1003 1.355 . S
C1004 C1006 1.419 . S
C1005 C1000 1.425 1_556 S
C1005 C1002 1.409 1_556 S
C1005 C1003 1.415 . S
C1006 H996 0.930 . S
C1006 C1004 1.419 . S
C1006 C1007 1.362 . S
C1007 H997 0.930 . S
C1007 C1000 1.409 1_556 S
C1007 C1006 1.362 . S
H1008 C1014 0.930 . S
H1009 C1017 0.930 . S
H1010 C1018 0.930 . S
H1011 C1019 0.930 . S
H1012 C1022 0.930 . S
H1013 C1023 0.930 . S
C1014 H1008 0.930 . S
C1014 C1015 1.355 . S
C1014 C1016 1.415 . S
C1015 C1014 1.355 . S
C1015 C1017 1.419 . S
C1016 C1014 1.415 . S
C1016 C1021 1.425 . S
C1016 C1023 1.409 . S
C1017 H1009 0.930 . S
C1017 C1015 1.419 . S
C1017 C1018 1.362 . S
C1018 H1010 0.930 . S
C1018 C1017 1.362 . S
C1018 C1021 1.409 . S
C1019 H1011 0.930 . S
C1019 C1020 1.355 . S
C1019 C1021 1.415 . S
C1020 C1019 1.355 . S
C1020 C1022 1.419 . S
C1021 C1016 1.425 . S
C1021 C1018 1.409 . S
C1021 C1019 1.415 . S
C1022 H1012 0.930 . S
C1022 C1020 1.419 . S
C1022 C1023 1.362 . S
C1023 H1013 0.930 . S
C1023 C1016 1.409 . S
C1023 C1022 1.362 . S
H1024 C1030 0.930 . S
H1025 C1033 0.930 . S
H1026 C1034 0.930 . S
H1027 C1035 0.930 . S
H1028 C1038 0.930 . S
H1029 C1039 0.930 . S
C1030 H1024 0.930 . S
C1030 C1031 1.355 . S
C1030 C1032 1.415 . S
C1031 C1030 1.355 . S
C1031 C1033 1.419 . S
C1032 C1030 1.415 . S
C1032 C1037 1.425 . S
C1032 C1039 1.409 . S
C1033 H1025 0.930 . S
C1033 C1031 1.419 . S
C1033 C1034 1.362 . S
C1034 H1026 0.930 . S
C1034 C1033 1.362 . S
C1034 C1037 1.409 . S
C1035 H1027 0.930 . S
C1035 C1036 1.355 . S
C1035 C1037 1.415 . S
C1036 C1035 1.355 . S
C1036 C1038 1.419 . S
C1037 C1032 1.425 . S
C1037 C1034 1.409 . S
C1037 C1035 1.415 . S
C1038 H1028 0.930 . S
C1038 C1036 1.419 . S
C1038 C1039 1.362 . S
C1039 H1029 0.930 . S
C1039 C1032 1.409 . S
C1039 C1038 1.362 . S
H1040 C1046 0.930 . S
H1041 C1049 0.930 . S
H1042 C1050 0.930 . S
H1043 C1051 0.930 . S
H1044 C1054 0.930 . S
H1045 C1055 0.930 . S
C1046 H1040 0.930 . S
C1046 C1047 1.355 . S
C1046 C1048 1.415 . S
C1047 C1046 1.355 . S
C1047 C1049 1.419 . S
C1048 C1046 1.415 . S
C1048 C1053 1.425 . S
C1048 C1055 1.409 . S
C1049 H1041 0.930 . S
C1049 C1047 1.419 . S
C1049 C1050 1.362 . S
C1050 H1042 0.930 . S
C1050 C1049 1.362 . S
C1050 C1053 1.409 . S
C1051 H1043 0.930 . S
C1051 C1052 1.355 . S
C1051 C1053 1.415 . S
C1052 C1051 1.355 . S
C1052 C1054 1.419 . S
C1053 C1048 1.425 . S
C1053 C1050 1.409 . S
C1053 C1051 1.415 . S
C1054 H1044 0.930 . S
C1054 C1052 1.419 . S
C1054 C1055 1.362 . S
C1055 H1045 0.930 . S
C1055 C1048 1.409 . S
C1055 C1054 1.362 . S
H1056 C1062 0.930 . S
H1057 C1065 0.930 . S
H1058 C1066 0.930 . S
H1059 C1067 0.930 . S
H1060 C1070 0.930 . S
H1061 C1071 0.930 . S
C1062 H1056 0.930 . S
C1062 C1063 1.355 . S
C1062 C1064 1.415 . S
C1063 C1062 1.355 . S
C1063 C1065 1.419 . S
C1064 C1062 1.415 . S
C1064 C1069 1.425 . S
C1064 C1071 1.409 . S
C1065 H1057 0.930 . S
C1065 C1063 1.419 . S
C1065 C1066 1.362 . S
C1066 H1058 0.930 . S
C1066 C1065 1.362 . S
C1066 C1069 1.409 . S
C1067 H1059 0.930 . S
C1067 C1068 1.355 . S
C1067 C1069 1.415 . S
C1068 C1067 1.355 . S
C1068 C1070 1.419 . S
C1069 C1064 1.425 . S
C1069 C1066 1.409 . S
C1069 C1067 1.415 . S
C1070 H1060 0.930 . S
C1070 C1068 1.419 . S
C1070 C1071 1.362 . S
C1071 H1061 0.930 . S
C1071 C1064 1.409 . S
C1071 C1070 1.362 . S
H1072 C1078 0.930 . S
H1073 C1081 0.930 . S
H1074 C1082 0.930 . S
H1075 C1083 0.930 . S
H1076 C1086 0.930 . S
H1077 C1087 0.930 . S
C1078 H1072 0.930 . S
C1078 C1079 1.355 . S
C1078 C1080 1.415 . S
C1079 C1078 1.355 . S
C1079 C1081 1.419 . S
C1080 C1078 1.415 . S
C1080 C1085 1.425 . S
C1080 C1087 1.409 . S
C1081 H1073 0.930 . S
C1081 C1079 1.419 . S
C1081 C1082 1.362 . S
C1082 H1074 0.930 . S
C1082 C1081 1.362 . S
C1082 C1085 1.409 . S
C1083 H1075 0.930 . S
C1083 C1084 1.355 . S
C1083 C1085 1.415 . S
C1084 C1083 1.355 . S
C1084 C1086 1.419 . S
C1085 C1080 1.425 . S
C1085 C1082 1.409 . S
C1085 C1083 1.415 . S
C1086 H1076 0.930 . S
C1086 C1084 1.419 . S
C1086 C1087 1.362 . S
C1087 H1077 0.930 . S
C1087 C1080 1.409 . S
C1087 C1086 1.362 . S
H1088 C1094 0.930 . S
H1089 C1097 0.930 . S
H1090 C1098 0.930 . S
H1091 C1099 0.930 . S
H1092 C1102 0.930 . S
H1093 C1103 0.930 . S
C1094 H1088 0.930 . S
C1094 C1095 1.355 . S
C1094 C1096 1.415 . S
C1095 C1094 1.355 . S
C1095 C1097 1.419 . S
C1096 C1094 1.415 . S
C1096 C1101 1.425 . S
C1096 C1103 1.409 . S
C1097 H1089 0.930 . S
C1097 C1095 1.419 . S
C1097 C1098 1.362 . S
C1098 H1090 0.930 . S
C1098 C1097 1.362 . S
C1098 C1101 1.409 . S
C1099 H1091 0.930 . S
C1099 C1100 1.355 . S
C1099 C1101 1.415 . S
C1100 C1099 1.355 . S
C1100 C1102 1.419 . S
C1101 C1096 1.425 . S
C1101 C1098 1.409 . S
C1101 C1099 1.415 . S
C1102 H1092 0.930 . S
C1102 C1100 1.419 . S
C1102 C1103 1.362 . S
C1103 H1093 0.930 . S
C1103 C1096 1.409 . S
C1103 C1102 1.362 . S
H1104 C1110 0.930 . S
H1105 C1113 0.930 . S
H1106 C1114 0.930 . S
H1107 C1115 0.930 . S
H1108 C1118 0.930 . S
H1109 C1119 0.930 . S
C1110 H1104 0.930 . S
C1110 C1111 1.355 . S
C1110 C1112 1.415 . S
C1111 C1110 1.355 . S
C1111 C1113 1.419 . S
C1112 C1110 1.415 . S
C1112 C1117 1.425 . S
C1112 C1119 1.409 . S
C1113 H1105 0.930 . S
C1113 C1111 1.419 . S
C1113 C1114 1.362 . S
C1114 H1106 0.930 . S
C1114 C1113 1.362 . S
C1114 C1117 1.409 . S
C1115 H1107 0.930 . S
C1115 C1116 1.355 . S
C1115 C1117 1.415 . S
C1116 C1115 1.355 . S
C1116 C1118 1.419 . S
C1117 C1112 1.425 . S
C1117 C1114 1.409 . S
C1117 C1115 1.415 . S
C1118 H1108 0.930 . S
C1118 C1116 1.419 . S
C1118 C1119 1.362 . S
C1119 H1109 0.930 . S
C1119 C1112 1.409 . S
C1119 C1118 1.362 . S
H1120 C1126 0.930 . S
H1121 C1129 0.930 . S
H1122 C1130 0.930 . S
H1123 C1131 0.930 . S
H1124 C1134 0.930 . S
H1125 C1135 0.930 . S
C1126 H1120 0.930 . S
C1126 C1127 1.355 . S
C1126 C1128 1.415 . S
C1127 C1126 1.355 . S
C1127 C1129 1.419 . S
C1128 C1126 1.415 . S
C1128 C1133 1.425 . S
C1128 C1135 1.409 . S
C1129 H1121 0.930 . S
C1129 C1127 1.419 . S
C1129 C1130 1.362 . S
C1130 H1122 0.930 . S
C1130 C1129 1.362 . S
C1130 C1133 1.409 . S
C1131 H1123 0.930 . S
C1131 C1132 1.355 . S
C1131 C1133 1.415 . S
C1132 C1131 1.355 . S
C1132 C1134 1.419 . S
C1133 C1128 1.425 . S
C1133 C1130 1.409 . S
C1133 C1131 1.415 . S
C1134 H1124 0.930 . S
C1134 C1132 1.419 . S
C1134 C1135 1.362 . S
C1135 H1125 0.930 . S
C1135 C1128 1.409 . S
C1135 C1134 1.362 . S
H1136 C1142 0.930 . S
H1137 C1145 0.930 . S
H1138 C1146 0.930 . S
H1139 C1147 0.930 . S
H1140 C1150 0.930 . S
H1141 C1151 0.930 . S
C1142 H1136 0.930 . S
C1142 C1143 1.355 . S
C1142 C1144 1.415 . S
C1143 C1142 1.355 . S
C1143 C1145 1.419 . S
C1144 C1142 1.415 . S
C1144 C1149 1.425 . S
C1144 C1151 1.409 . S
C1145 H1137 0.930 . S
C1145 C1143 1.419 . S
C1145 C1146 1.362 . S
C1146 H1138 0.930 . S
C1146 C1145 1.362 . S
C1146 C1149 1.409 . S
C1147 H1139 0.930 . S
C1147 C1148 1.355 . S
C1147 C1149 1.415 . S
C1148 C1147 1.355 . S
C1148 C1150 1.419 . S
C1149 C1144 1.425 . S
C1149 C1146 1.409 . S
C1149 C1147 1.415 . S
C1150 H1140 0.930 . S
C1150 C1148 1.419 . S
C1150 C1151 1.362 . S
C1151 H1141 0.930 . S
C1151 C1144 1.409 . S
C1151 C1150 1.362 . S
H1152 C1158 0.930 . S
H1153 C1161 0.930 . S
H1154 C1162 0.930 . S
H1155 C1163 0.930 . S
H1156 C1166 0.930 . S
H1157 C1167 0.930 . S
C1158 H1152 0.930 . S
C1158 C1159 1.355 . S
C1158 C1160 1.415 . S
C1159 C1158 1.355 . S
C1159 C1161 1.419 . S
C1160 C1158 1.415 . S
C1160 C1165 1.425 . S
C1160 C1167 1.409 . S
C1161 H1153 0.930 . S
C1161 C1159 1.419 . S
C1161 C1162 1.362 . S
C1162 H1154 0.930 . S
C1162 C1161 1.362 . S
C1162 C1165 1.409 . S
C1163 H1155 0.930 . S
C1163 C1164 1.355 . S
C1163 C1165 1.415 . S
C1164 C1163 1.355 . S
C1164 C1166 1.419 . S
C1165 C1160 1.425 . S
C1165 C1162 1.409 . S
C1165 C1163 1.415 . S
C1166 H1156 0.930 . S
C1166 C1164 1.419 . S
C1166 C1167 1.362 . S
C1167 H1157 0.930 . S
C1167 C1160 1.409 . S
C1167 C1166 1.362 . S
H1168 C1174 0.930 . S
H1169 C1177 0.930 . S
H1170 C1178 0.930 . S
H1171 C1179 0.930 . S
H1172 C1182 0.930 . S
H1173 C1183 0.930 . S
C1174 H1168 0.930 . S
C1174 C1175 1.355 . S
C1174 C1176 1.415 . S
C1175 C1174 1.355 . S
C1175 C1177 1.419 . S
C1176 C1174 1.415 . S
C1176 C1181 1.425 . S
C1176 C1183 1.409 . S
C1177 H1169 0.930 . S
C1177 C1175 1.419 . S
C1177 C1178 1.362 . S
C1178 H1170 0.930 . S
C1178 C1177 1.362 . S
C1178 C1181 1.409 . S
C1179 H1171 0.930 . S
C1179 C1180 1.355 . S
C1179 C1181 1.415 . S
C1180 C1179 1.355 . S
C1180 C1182 1.419 . S
C1181 C1176 1.425 . S
C1181 C1178 1.409 . S
C1181 C1179 1.415 . S
C1182 H1172 0.930 . S
C1182 C1180 1.419 . S
C1182 C1183 1.362 . S
C1183 H1173 0.930 . S
C1183 C1176 1.409 . S
C1183 C1182 1.362 . S
H1184 C1190 0.930 . S
H1185 C1193 0.930 . S
H1186 C1194 0.930 . S
H1187 C1195 0.930 . S
H1188 C1198 0.930 . S
H1189 C1199 0.930 . S
C1190 H1184 0.930 . S
C1190 C1191 1.355 . S
C1190 C1192 1.415 . S
C1191 C1190 1.355 . S
C1191 C1193 1.419 . S
C1192 C1190 1.415 . S
C1192 C1197 1.425 . S
C1192 C1199 1.409 . S
C1193 H1185 0.930 . S
C1193 C1191 1.419 . S
C1193 C1194 1.362 . S
C1194 H1186 0.930 . S
C1194 C1193 1.362 . S
C1194 C1197 1.409 . S
C1195 H1187 0.930 . S
C1195 C1196 1.355 . S
C1195 C1197 1.415 . S
C1196 C1195 1.355 . S
C1196 C1198 1.419 . S
C1197 C1192 1.425 . S
C1197 C1194 1.409 . S
C1197 C1195 1.415 . S
C1198 H1188 0.930 . S
C1198 C1196 1.419 . S
C1198 C1199 1.362 . S
C1199 H1189 0.930 . S
C1199 C1192 1.409 . S
C1199 C1198 1.362 . S
H1200 C1206 0.930 . S
H1201 C1209 0.930 . S
H1202 C1210 0.930 . S
H1203 C1211 0.930 . S
H1204 C1214 0.930 . S
H1205 C1215 0.930 . S
C1206 H1200 0.930 . S
C1206 C1207 1.355 . S
C1206 C1208 1.415 . S
C1207 C1206 1.355 . S
C1207 C1209 1.419 . S
C1208 C1206 1.415 . S
C1208 C1213 1.425 . S
C1208 C1215 1.409 . S
C1209 H1201 0.930 . S
C1209 C1207 1.419 . S
C1209 C1210 1.362 . S
C1210 H1202 0.930 . S
C1210 C1209 1.362 . S
C1210 C1213 1.409 . S
C1211 H1203 0.930 . S
C1211 C1212 1.355 . S
C1211 C1213 1.415 . S
C1212 C1211 1.355 . S
C1212 C1214 1.419 . S
C1213 C1208 1.425 . S
C1213 C1210 1.409 . S
C1213 C1211 1.415 . S
C1214 H1204 0.930 . S
C1214 C1212 1.419 . S
C1214 C1215 1.362 . S
C1215 H1205 0.930 . S
C1215 C1208 1.409 . S
C1215 C1214 1.362 . S
H1216 C1222 0.930 . S
H1217 C1225 0.930 . S
H1218 C1226 0.930 . S
H1219 C1227 0.930 . S
H1220 C1230 0.930 . S
H1221 C1231 0.930 . S
C1222 H1216 0.930 . S
C1222 C1223 1.355 . S
C1222 C1224 1.415 . S
C1223 C1222 1.355 . S
C1223 C1225 1.419 . S
C1224 C1222 1.415 . S
C1224 C1229 1.425 . S
C1224 C1231 1.409 . S
C1225 H1217 0.930 . S
C1225 C1223 1.419 . S
C1225 C1226 1.362 . S
C1226 H1218 0.930 . S
C1226 C1225 1.362 . S
C1226 C1229 1.409 . S
C1227 H1219 0.930 . S
C1227 C1228 1.355 . S
C1227 C1229 1.415 . S
C1228 C1227 1.355 . S
C1228 C1230 1.419 . S
C1229 C1224 1.425 . S
C1229 C1226 1.409 . S
C1229 C1227 1.415 . S
C1230 H1220 0.930 . S
C1230 C1228 1.419 . S
C1230 C1231 1.362 . S
C1231 H1221 0.930 . S
C1231 C1224 1.409 . S
C1231 C1230 1.362 . S
H1232 C1238 0.930 . S
H1233 C1241 0.930 . S
H1234 C1242 0.930 . S
H1235 C1243 0.930 . S
H1236 C1246 0.930 . S
H1237 C1247 0.930 . S
C1238 H1232 0.930 . S
C1238 C1239 1.355 . S
C1238 C1240 1.415 . S
C1239 C1238 1.355 . S
C1239 C1241 1.419 . S
C1240 C1238 1.415 . S
C1240 C1245 1.425 . S
C1240 C1247 1.409 . S
C1241 H1233 0.930 . S
C1241 C1239 1.419 . S
C1241 C1242 1.362 . S
C1242 H1234 0.930 . S
C1242 C1241 1.362 . S
C1242 C1245 1.409 . S
C1243 H1235 0.930 . S
C1243 C1244 1.355 . S
C1243 C1245 1.415 . S
C1244 C1243 1.355 . S
C1244 C1246 1.419 . S
C1245 C1240 1.425 . S
C1245 C1242 1.409 . S
C1245 C1243 1.415 . S
C1246 H1236 0.930 . S
C1246 C1244 1.419 . S
C1246 C1247 1.362 . S
C1247 H1237 0.930 . S
C1247 C1240 1.409 . S
C1247 C1246 1.362 . S
H1248 C1254 0.930 . S
H1249 C1257 0.930 . S
H1250 C1258 0.930 . S
H1251 C1259 0.930 . S
H1252 C1262 0.930 . S
H1253 C1263 0.930 . S
C1254 H1248 0.930 . S
C1254 C1255 1.355 . S
C1254 C1256 1.415 . S
C1255 C1254 1.355 . S
C1255 C1257 1.419 . S
C1256 C1254 1.415 . S
C1256 C1261 1.425 . S
C1256 C1263 1.409 . S
C1257 H1249 0.930 . S
C1257 C1255 1.419 . S
C1257 C1258 1.362 . S
C1258 H1250 0.930 . S
C1258 C1257 1.362 . S
C1258 C1261 1.409 . S
C1259 H1251 0.930 . S
C1259 C1260 1.355 . S
C1259 C1261 1.415 . S
C1260 C1259 1.355 . S
C1260 C1262 1.419 . S
C1261 C1256 1.425 . S
C1261 C1258 1.409 . S
C1261 C1259 1.415 . S
C1262 H1252 0.930 . S
C1262 C1260 1.419 . S
C1262 C1263 1.362 . S
C1263 H1253 0.930 . S
C1263 C1256 1.409 . S
C1263 C1262 1.362 . S
H1264 C1270 0.930 . S
H1265 C1273 0.930 . S
H1266 C1274 0.930 . S
H1267 C1275 0.930 . S
H1268 C1278 0.930 . S
H1269 C1279 0.930 . S
C1270 H1264 0.930 . S
C1270 C1271 1.355 . S
C1270 C1272 1.415 . S
C1271 C1270 1.355 . S
C1271 C1273 1.419 . S
C1272 C1270 1.415 . S
C1272 C1277 1.425 . S
C1272 C1279 1.409 . S
C1273 H1265 0.930 . S
C1273 C1271 1.419 . S
C1273 C1274 1.362 . S
C1274 H1266 0.930 . S
C1274 C1273 1.362 . S
C1274 C1277 1.409 . S
C1275 H1267 0.930 . S
C1275 C1276 1.355 . S
C1275 C1277 1.415 . S
C1276 C1275 1.355 . S
C1276 C1278 1.419 . S
C1277 C1272 1.425 . S
C1277 C1274 1.409 . S
C1277 C1275 1.415 . S
C1278 H1268 0.930 . S
C1278 C1276 1.419 . S
C1278 C1279 1.362 . S
C1279 H1269 0.930 . S
C1279 C1272 1.409 . S
C1279 C1278 1.362 . S
H1280 C1286 0.930 . S
H1281 C1289 0.930 . S
H1282 C1290 0.930 . S
H1283 C1291 0.930 . S
H1284 C1294 0.930 . S
H1285 C1295 0.930 . S
C1286 H1280 0.930 . S
C1286 C1287 1.355 . S
C1286 C1288 1.415 . S
C1287 C1286 1.355 . S
C1287 C1289 1.419 . S
C1288 C1286 1.415 . S
C1288 C1293 1.425 . S
C1288 C1295 1.409 . S
C1289 H1281 0.930 . S
C1289 C1287 1.419 . S
C1289 C1290 1.362 . S
C1290 H1282 0.930 . S
C1290 C1289 1.362 . S
C1290 C1293 1.409 . S
C1291 H1283 0.930 . S
C1291 C1292 1.355 . S
C1291 C1293 1.415 . S
C1292 C1291 1.355 . S
C1292 C1294 1.419 . S
C1293 C1288 1.425 . S
C1293 C1290 1.409 . S
C1293 C1291 1.415 . S
C1294 H1284 0.930 . S
C1294 C1292 1.419 . S
C1294 C1295 1.362 . S
C1295 H1285 0.930 . S
C1295 C1288 1.409 . S
C1295 C1294 1.362 . S
H1296 C1302 0.930 . S
H1297 C1305 0.930 . S
H1298 C1306 0.930 . S
H1299 C1307 0.930 . S
H1300 C1310 0.930 . S
H1301 C1311 0.930 . S
C1302 H1296 0.930 . S
C1302 C1303 1.355 . S
C1302 C1304 1.415 . S
C1303 C1302 1.355 . S
C1303 C1305 1.419 . S
C1304 C1302 1.415 . S
C1304 C1309 1.425 . S
C1304 C1311 1.409 . S
C1305 H1297 0.930 . S
C1305 C1303 1.419 . S
C1305 C1306 1.362 . S
C1306 H1298 0.930 . S
C1306 C1305 1.362 . S
C1306 C1309 1.409 . S
C1307 H1299 0.930 . S
C1307 C1308 1.355 . S
C1307 C1309 1.415 . S
C1308 C1307 1.355 . S
C1308 C1310 1.419 . S
C1309 C1304 1.425 . S
C1309 C1306 1.409 . S
C1309 C1307 1.415 . S
C1310 H1300 0.930 . S
C1310 C1308 1.419 . S
C1310 C1311 1.362 . S
C1311 H1301 0.930 . S
C1311 C1304 1.409 . S
C1311 C1310 1.362 . S
H1312 C1318 0.930 . S
H1313 C1321 0.930 . S
H1314 C1322 0.930 . S
H1315 C1323 0.930 . S
H1316 C1326 0.930 . S
H1317 C1327 0.930 . S
C1318 H1312 0.930 . S
C1318 C1319 1.355 . S
C1318 C1320 1.415 . S
C1319 C1318 1.355 . S
C1319 C1321 1.419 . S
C1320 C1318 1.415 . S
C1320 C1325 1.425 . S
C1320 C1327 1.409 . S
C1321 H1313 0.930 . S
C1321 C1319 1.419 . S
C1321 C1322 1.362 . S
C1322 H1314 0.930 . S
C1322 C1321 1.362 . S
C1322 C1325 1.409 . S
C1323 H1315 0.930 . S
C1323 C1324 1.355 . S
C1323 C1325 1.415 . S
C1324 C1323 1.355 . S
C1324 C1326 1.419 . S
C1325 C1320 1.425 . S
C1325 C1322 1.409 . S
C1325 C1323 1.415 . S
C1326 H1316 0.930 . S
C1326 C1324 1.419 . S
C1326 C1327 1.362 . S
C1327 H1317 0.930 . S
C1327 C1320 1.409 . S
C1327 C1326 1.362 . S
H1328 C1334 0.930 . S
H1329 C1337 0.930 . S
H1330 C1338 0.930 . S
H1331 C1339 0.930 . S
H1332 C1342 0.930 . S
H1333 C1343 0.930 . S
C1334 H1328 0.930 . S
C1334 C1335 1.355 . S
C1334 C1336 1.415 . S
C1335 C1334 1.355 . S
C1335 C1337 1.419 . S
C1336 C1334 1.415 . S
C1336 C1341 1.425 . S
C1336 C1343 1.409 . S
C1337 H1329 0.930 . S
C1337 C1335 1.419 . S
C1337 C1338 1.362 . S
C1338 H1330 0.930 . S
C1338 C1337 1.362 . S
C1338 C1341 1.409 . S
C1339 H1331 0.930 . S
C1339 C1340 1.355 . S
C1339 C1341 1.415 . S
C1340 C1339 1.355 . S
C1340 C1342 1.419 . S
C1341 C1336 1.425 . S
C1341 C1338 1.409 . S
C1341 C1339 1.415 . S
C1342 H1332 0.930 . S
C1342 C1340 1.419 . S
C1342 C1343 1.362 . S
C1343 H1333 0.930 . S
C1343 C1336 1.409 . S
C1343 C1342 1.362 . S
H1344 C1350 0.930 . S
H1345 C1353 0.930 . S
H1346 C1354 0.930 . S
H1347 C1355 0.930 . S
H1348 C1358 0.930 . S
H1349 C1359 0.930 . S
C1350 H1344 0.930 . S
C1350 C1351 1.355 . S
C1350 C1352 1.415 . S
C1351 C1350 1.355 . S
C1351 C1353 1.419 . S
C1352 C1350 1.415 . S
C1352 C1357 1.425 . S
C1352 C1359 1.409 . S
C1353 H1345 0.930 . S
C1353 C1351 1.419 . S
C1353 C1354 1.362 . S
C1354 H1346 0.930 . S
C1354 C1353 1.362 . S
C1354 C1357 1.409 . S
C1355 H1347 0.930 . S
C1355 C1356 1.355 . S
C1355 C1357 1.415 . S
C1356 C1355 1.355 . S
C1356 C1358 1.419 . S
C1357 C1352 1.425 . S
C1357 C1354 1.409 . S
C1357 C1355 1.415 . S
C1358 H1348 0.930 . S
C1358 C1356 1.419 . S
C1358 C1359 1.362 . S
C1359 H1349 0.930 . S
C1359 C1352 1.409 . S
C1359 C1358 1.362 . S
H1360 C1366 0.930 . S
H1361 C1369 0.930 . S
H1362 C1370 0.930 . S
H1363 C1371 0.930 . S
H1364 C1374 0.930 . S
H1365 C1375 0.930 . S
C1366 H1360 0.930 . S
C1366 C1367 1.355 . S
C1366 C1368 1.415 . S
C1367 C1366 1.355 . S
C1367 C1369 1.419 . S
C1368 C1366 1.415 . S
C1368 C1373 1.425 . S
C1368 C1375 1.409 . S
C1369 H1361 0.930 . S
C1369 C1367 1.419 . S
C1369 C1370 1.362 . S
C1370 H1362 0.930 . S
C1370 C1369 1.362 . S
C1370 C1373 1.409 . S
C1371 H1363 0.930 . S
C1371 C1372 1.355 . S
C1371 C1373 1.415 . S
C1372 C1371 1.355 . S
C1372 C1374 1.419 . S
C1373 C1368 1.425 . S
C1373 C1370 1.409 . S
C1373 C1371 1.415 . S
C1374 H1364 0.930 . S
C1374 C1372 1.419 . S
C1374 C1375 1.362 . S
C1375 H1365 0.930 . S
C1375 C1368 1.409 . S
C1375 C1374 1.362 . S
H1376 C1382 0.930 . S
H1377 C1385 0.930 . S
H1378 C1386 0.930 . S
H1379 C1387 0.930 . S
H1380 C1390 0.930 . S
H1381 C1391 0.930 . S
C1382 H1376 0.930 . S
C1382 C1383 1.355 . S
C1382 C1384 1.415 . S
C1383 C1382 1.355 . S
C1383 C1385 1.419 . S
C1384 C1382 1.415 . S
C1384 C1389 1.425 . S
C1384 C1391 1.409 . S
C1385 H1377 0.930 . S
C1385 C1383 1.419 . S
C1385 C1386 1.362 . S
C1386 H1378 0.930 . S
C1386 C1385 1.362 . S
C1386 C1389 1.409 . S
C1387 H1379 0.930 . S
C1387 C1388 1.355 . S
C1387 C1389 1.415 . S
C1388 C1387 1.355 . S
C1388 C1390 1.419 . S
C1389 C1384 1.425 . S
C1389 C1386 1.409 . S
C1389 C1387 1.415 . S
C1390 H1380 0.930 . S
C1390 C1388 1.419 . S
C1390 C1391 1.362 . S
C1391 H1381 0.930 . S
C1391 C1384 1.409 . S
C1391 C1390 1.362 . S
H1392 C1398 0.930 . S
H1393 C1401 0.930 . S
H1394 C1402 0.930 . S
H1395 C1403 0.930 . S
H1396 C1406 0.930 . S
H1397 C1407 0.930 . S
C1398 H1392 0.930 . S
C1398 C1399 1.355 . S
C1398 C1400 1.415 . S
C1399 C1398 1.355 . S
C1399 C1401 1.419 . S
C1400 C1398 1.415 . S
C1400 C1405 1.425 . S
C1400 C1407 1.409 . S
C1401 H1393 0.930 . S
C1401 C1399 1.419 . S
C1401 C1402 1.362 . S
C1402 H1394 0.930 . S
C1402 C1401 1.362 . S
C1402 C1405 1.409 . S
C1403 H1395 0.930 . S
C1403 C1404 1.355 . S
C1403 C1405 1.415 . S
C1404 C1403 1.355 . S
C1404 C1406 1.419 . S
C1405 C1400 1.425 . S
C1405 C1402 1.409 . S
C1405 C1403 1.415 . S
C1406 H1396 0.930 . S
C1406 C1404 1.419 . S
C1406 C1407 1.362 . S
C1407 H1397 0.930 . S
C1407 C1400 1.409 . S
C1407 C1406 1.362 . S
H1408 C1414 0.930 . S
H1409 C1417 0.930 . S
H1410 C1418 0.930 . S
H1411 C1419 0.930 . S
H1412 C1422 0.930 . S
H1413 C1423 0.930 . S
C1414 H1408 0.930 . S
C1414 C1415 1.355 . S
C1414 C1416 1.415 . S
C1415 C1414 1.355 . S
C1415 C1417 1.419 . S
C1416 C1414 1.415 . S
C1416 C1421 1.425 . S
C1416 C1423 1.409 . S
C1417 H1409 0.930 . S
C1417 C1415 1.419 . S
C1417 C1418 1.362 . S
C1418 H1410 0.930 . S
C1418 C1417 1.362 . S
C1418 C1421 1.409 . S
C1419 H1411 0.930 . S
C1419 C1420 1.355 . S
C1419 C1421 1.415 . S
C1420 C1419 1.355 . S
C1420 C1422 1.419 . S
C1421 C1416 1.425 . S
C1421 C1418 1.409 . S
C1421 C1419 1.415 . S
C1422 H1412 0.930 . S
C1422 C1420 1.419 . S
C1422 C1423 1.362 . S
C1423 H1413 0.930 . S
C1423 C1416 1.409 . S
C1423 C1422 1.362 . S
H1424 C1430 0.930 . S
H1425 C1433 0.930 . S
H1426 C1434 0.930 . S
H1427 C1435 0.930 . S
H1428 C1438 0.930 . S
H1429 C1439 0.930 . S
C1430 H1424 0.930 . S
C1430 C1431 1.355 . S
C1430 C1432 1.415 . S
C1431 C1430 1.355 . S
C1431 C1433 1.419 . S
C1432 C1430 1.415 . S
C1432 C1437 1.425 . S
C1432 C1439 1.409 . S
C1433 H1425 0.930 . S
C1433 C1431 1.419 . S
C1433 C1434 1.362 . S
C1434 H1426 0.930 . S
C1434 C1433 1.362 . S
C1434 C1437 1.409 . S
C1435 H1427 0.930 . S
C1435 C1436 1.355 . S
C1435 C1437 1.415 . S
C1436 C1435 1.355 . S
C1436 C1438 1.419 . S
C1437 C1432 1.425 . S
C1437 C1434 1.409 . S
C1437 C1435 1.415 . S
C1438 H1428 0.930 . S
C1438 C1436 1.419 . S
C1438 C1439 1.362 . S
C1439 H1429 0.930 . S
C1439 C1432 1.409 . S
C1439 C1438 1.362 . S
H1440 C1446 0.930 . S
H1441 C1449 0.930 . S
H1442 C1450 0.930 . S
H1443 C1451 0.930 . S
H1444 C1454 0.930 . S
H1445 C1455 0.930 . S
C1446 H1440 0.930 . S
C1446 C1447 1.355 . S
C1446 C1448 1.415 . S
C1447 C1446 1.355 . S
C1447 C1449 1.419 . S
C1448 C1446 1.415 . S
C1448 C1453 1.425 . S
C1448 C1455 1.409 . S
C1449 H1441 0.930 . S
C1449 C1447 1.419 . S
C1449 C1450 1.362 . S
C1450 H1442 0.930 . S
C1450 C1449 1.362 . S
C1450 C1453 1.409 . S
C1451 H1443 0.930 . S
C1451 C1452 1.355 . S
C1451 C1453 1.415 . S
C1452 C1451 1.355 . S
C1452 C1454 1.419 . S
C1453 C1448 1.425 . S
C1453 C1450 1.409 . S
C1453 C1451 1.415 . S
C1454 H1444 0.930 . S
C1454 C1452 1.419 . S
C1454 C1455 1.362 . S
C1455 H1445 0.930 . S
C1455 C1448 1.409 . S
C1455 C1454 1.362 . S
H1456 C1462 0.930 . S
H1457 C1465 0.930 . S
H1458 C1466 0.930 . S
H1459 C1467 0.930 . S
H1460 C1470 0.930 . S
H1461 C1471 0.930 . S
C1462 H1456 0.930 . S
C1462 C1463 1.355 . S
C1462 C1464 1.415 . S
C1463 C1462 1.355 . S
C1463 C1465 1.419 . S
C1464 C1462 1.415 . S
C1464 C1469 1.425 . S
C1464 C1471 1.409 . S
C1465 H1457 0.930 . S
C1465 C1463 1.419 . S
C1465 C1466 1.362 . S
C1466 H1458 0.930 . S
C1466 C1465 1.362 . S
C1466 C1469 1.409 . S
C1467 H1459 0.930 . S
C1467 C1468 1.355 . S
C1467 C1469 1.415 . S
C1468 C1467 1.355 . S
C1468 C1470 1.419 . S
C1469 C1464 1.425 . S
C1469 C1466 1.409 . S
C1469 C1467 1.415 . S
C1470 H1460 0.930 . S
C1470 C1468 1.419 . S
C1470 C1471 1.362 . S
C1471 H1461 0.930 . S
C1471 C1464 1.409 . S
C1471 C1470 1.362 . S
H1472 C1478 0.930 . S
H1473 C1481 0.930 . S
H1474 C1482 0.930 . S
H1475 C1483 0.930 . S
H1476 C1486 0.930 . S
H1477 C1487 0.930 . S
C1478 H1472 0.930 . S
C1478 C1479 1.355 . S
C1478 C1480 1.415 . S
C1479 C1478 1.355 . S
C1479 C1481 1.419 . S
C1480 C1478 1.415 . S
C1480 C1485 1.425 . S
C1480 C1487 1.409 . S
C1481 H1473 0.930 . S
C1481 C1479 1.419 . S
C1481 C1482 1.362 . S
C1482 H1474 0.930 . S
C1482 C1481 1.362 . S
C1482 C1485 1.409 . S
C1483 H1475 0.930 . S
C1483 C1484 1.355 . S
C1483 C1485 1.415 . S
C1484 C1483 1.355 . S
C1484 C1486 1.419 . S
C1485 C1480 1.425 . S
C1485 C1482 1.409 . S
C1485 C1483 1.415 . S
C1486 H1476 0.930 . S
C1486 C1484 1.419 . S
C1486 C1487 1.362 . S
C1487 H1477 0.930 . S
C1487 C1480 1.409 . S
C1487 C1486 1.362 . S
H1488 C1494 0.930 . S
H1489 C1497 0.930 . S
H1490 C1498 0.930 . S
H1491 C1499 0.930 . S
H1492 C1502 0.930 . S
H1493 C1503 0.930 . S
C1494 H1488 0.930 . S
C1494 C1495 1.355 . S
C1494 C1496 1.415 . S
C1495 C1494 1.355 . S
C1495 C1497 1.419 . S
C1496 C1494 1.415 . S
C1496 C1501 1.425 . S
C1496 C1503 1.409 . S
C1497 H1489 0.930 . S
C1497 C1495 1.419 . S
C1497 C1498 1.362 . S
C1498 H1490 0.930 . S
C1498 C1497 1.362 . S
C1498 C1501 1.409 . S
C1499 H1491 0.930 . S
C1499 C1500 1.355 . S
C1499 C1501 1.415 . S
C1500 C1499 1.355 . S
C1500 C1502 1.419 . S
C1501 C1496 1.425 . S
C1501 C1498 1.409 . S
C1501 C1499 1.415 . S
C1502 H1492 0.930 . S
C1502 C1500 1.419 . S
C1502 C1503 1.362 . S
C1503 H1493 0.930 . S
C1503 C1496 1.409 . S
C1503 C1502 1.362 . S
H1504 C1510 0.930 . S
H1505 C1513 0.930 . S
H1506 C1514 0.930 . S
H1507 C1515 0.930 . S
H1508 C1518 0.930 . S
H1509 C1519 0.930 . S
C1510 H1504 0.930 . S
C1510 C1511 1.355 . S
C1510 C1512 1.415 . S
C1511 C1510 1.355 . S
C1511 C1513 1.419 . S
C1512 C1510 1.415 . S
C1512 C1517 1.425 . S
C1512 C1519 1.409 . S
C1513 H1505 0.930 . S
C1513 C1511 1.419 . S
C1513 C1514 1.362 . S
C1514 H1506 0.930 . S
C1514 C1513 1.362 . S
C1514 C1517 1.409 . S
C1515 H1507 0.930 . S
C1515 C1516 1.355 . S
C1515 C1517 1.415 . S
C1516 C1515 1.355 . S
C1516 C1518 1.419 . S
C1517 C1512 1.425 . S
C1517 C1514 1.409 . S
C1517 C1515 1.415 . S
C1518 H1508 0.930 . S
C1518 C1516 1.419 . S
C1518 C1519 1.362 . S
C1519 H1509 0.930 . S
C1519 C1512 1.409 . S
C1519 C1518 1.362 . S
H1520 C1526 0.930 . S
H1521 C1529 0.930 . S
H1522 C1530 0.930 . S
H1523 C1531 0.930 . S
H1524 C1534 0.930 . S
H1525 C1535 0.930 . S
C1526 H1520 0.930 . S
C1526 C1527 1.355 . S
C1526 C1528 1.415 . S
C1527 C1526 1.355 . S
C1527 C1529 1.419 . S
C1528 C1526 1.415 . S
C1528 C1533 1.425 . S
C1528 C1535 1.409 . S
C1529 H1521 0.930 . S
C1529 C1527 1.419 . S
C1529 C1530 1.362 . S
C1530 H1522 0.930 . S
C1530 C1529 1.362 . S
C1530 C1533 1.409 . S
C1531 H1523 0.930 . S
C1531 C1532 1.355 . S
C1531 C1533 1.415 . S
C1532 C1531 1.355 . S
C1532 C1534 1.419 . S
C1533 C1528 1.425 . S
C1533 C1530 1.409 . S
C1533 C1531 1.415 . S
C1534 H1524 0.930 . S
C1534 C1532 1.419 . S
C1534 C1535 1.362 . S
C1535 H1525 0.930 . S
C1535 C1528 1.409 . S
C1535 C1534 1.362 . S
H1536 C1542 0.930 . S
H1537 C1545 0.930 . S
H1538 C1546 0.930 . S
H1539 C1547 0.930 . S
H1540 C1550 0.930 . S
H1541 C1551 0.930 . S
C1542 H1536 0.930 . S
C1542 C1543 1.355 . S
C1542 C1544 1.415 . S
C1543 C1542 1.355 . S
C1543 C1545 1.419 . S
C1544 C1542 1.415 . S
C1544 C1549 1.425 . S
C1544 C1551 1.409 . S
C1545 H1537 0.930 . S
C1545 C1543 1.419 . S
C1545 C1546 1.362 . S
C1546 H1538 0.930 . S
C1546 C1545 1.362 . S
C1546 C1549 1.409 . S
C1547 H1539 0.930 . S
C1547 C1548 1.355 . S
C1547 C1549 1.415 . S
C1548 C1547 1.355 . S
C1548 C1550 1.419 . S
C1549 C1544 1.425 . S
C1549 C1546 1.409 . S
C1549 C1547 1.415 . S
C1550 H1540 0.930 . S
C1550 C1548 1.419 . S
C1550 C1551 1.362 . S
C1551 H1541 0.930 . S
C1551 C1544 1.409 . S
C1551 C1550 1.362 . S
H1552 C1558 0.930 . S
H1553 C1561 0.930 . S
H1554 C1562 0.930 . S
H1555 C1563 0.930 . S
H1556 C1566 0.930 . S
H1557 C1567 0.930 . S
C1558 H1552 0.930 . S
C1558 C1559 1.355 . S
C1558 C1560 1.415 . S
C1559 C1558 1.355 . S
C1559 C1561 1.419 . S
C1560 C1558 1.415 . S
C1560 C1565 1.425 . S
C1560 C1567 1.409 . S
C1561 H1553 0.930 . S
C1561 C1559 1.419 . S
C1561 C1562 1.362 . S
C1562 H1554 0.930 . S
C1562 C1561 1.362 . S
C1562 C1565 1.409 . S
C1563 H1555 0.930 . S
C1563 C1564 1.355 . S
C1563 C1565 1.415 . S
C1564 C1563 1.355 . S
C1564 C1566 1.419 . S
C1565 C1560 1.425 . S
C1565 C1562 1.409 . S
C1565 C1563 1.415 . S
C1566 H1556 0.930 . S
C1566 C1564 1.419 . S
C1566 C1567 1.362 . S
C1567 H1557 0.930 . S
C1567 C1560 1.409 . S
C1567 C1566 1.362 . S
H1568 C1574 0.930 . S
H1569 C1577 0.930 . S
H1570 C1578 0.930 . S
H1571 C1579 0.930 . S
H1572 C1582 0.930 . S
H1573 C1583 0.930 . S
C1574 H1568 0.930 . S
C1574 C1575 1.355 . S
C1574 C1576 1.415 . S
C1575 C1574 1.355 . S
C1575 C1577 1.419 . S
C1576 C1574 1.415 . S
C1576 C1581 1.425 . S
C1576 C1583 1.409 . S
C1577 H1569 0.930 . S
C1577 C1575 1.419 . S
C1577 C1578 1.362 . S
C1578 H1570 0.930 . S
C1578 C1577 1.362 . S
C1578 C1581 1.409 . S
C1579 H1571 0.930 . S
C1579 C1580 1.355 . S
C1579 C1581 1.415 . S
C1580 C1579 1.355 . S
C1580 C1582 1.419 . S
C1581 C1576 1.425 . S
C1581 C1578 1.409 . S
C1581 C1579 1.415 . S
C1582 H1572 0.930 . S
C1582 C1580 1.419 . S
C1582 C1583 1.362 . S
C1583 H1573 0.930 . S
C1583 C1576 1.409 . S
C1583 C1582 1.362 . S
H1584 C1590 0.930 . S
H1585 C1593 0.930 . S
H1586 C1594 0.945 . S
H1587 C1595 0.930 . S
H1588 C1598 0.930 . S
H1589 C1599 0.945 . S
C1590 H1584 0.930 . S
C1590 C1591 1.355 . S
C1590 C1592 1.415 . S
C1591 C1590 1.355 . S
C1591 C1593 1.419 . S
C1592 C1590 1.415 . S
C1592 C1597 1.425 1_455 S
C1592 C1599 1.416 . S
C1593 H1585 0.930 . S
C1593 C1591 1.419 . S
C1593 C1594 1.341 1_455 S
C1594 H1586 0.945 . S
C1594 C1593 1.341 1_655 S
C1594 C1597 1.416 . S
C1595 H1587 0.930 . S
C1595 C1596 1.355 . S
C1595 C1597 1.415 . S
C1596 C1595 1.355 . S
C1596 C1598 1.419 . S
C1597 C1592 1.425 1_655 S
C1597 C1594 1.416 . S
C1597 C1595 1.415 . S
C1598 H1588 0.930 . S
C1598 C1596 1.419 . S
C1598 C1599 1.341 1_655 S
C1599 H1589 0.945 . S
C1599 C1592 1.416 . S
C1599 C1598 1.341 1_455 S
H1600 C1606 0.930 . S
H1601 C1609 0.930 . S
H1602 C1610 0.930 . S
H1603 C1611 0.930 . S
H1604 C1614 0.930 . S
H1605 C1615 0.930 . S
C1606 H1600 0.930 . S
C1606 C1607 1.355 . S
C1606 C1608 1.415 . S
C1607 C1606 1.355 . S
C1607 C1609 1.419 . S
C1608 C1606 1.415 . S
C1608 C1613 1.425 1_545 S
C1608 C1615 1.409 . S
C1609 H1601 0.930 . S
C1609 C1607 1.419 . S
C1609 C1610 1.362 1_545 S
C1610 H1602 0.930 . S
C1610 C1609 1.362 1_565 S
C1610 C1613 1.409 . S
C1611 H1603 0.930 . S
C1611 C1612 1.355 . S
C1611 C1613 1.415 . S
C1612 C1611 1.355 . S
C1612 C1614 1.419 . S
C1613 C1608 1.425 1_565 S
C1613 C1610 1.409 . S
C1613 C1611 1.415 . S
C1614 H1604 0.930 . S
C1614 C1612 1.419 . S
C1614 C1615 1.362 1_565 S
C1615 H1605 0.930 . S
C1615 C1608 1.409 . S
C1615 C1614 1.362 1_545 S
H1616 C1622 0.930 . S
H1617 C1625 0.930 . S
H1618 C1626 0.930 . S
H1619 C1627 0.930 . S
H1620 C1630 0.930 . S
H1621 C1631 0.930 . S
C1622 H1616 0.930 . S
C1622 C1623 1.355 . S
C1622 C1624 1.415 1_455 S
C1623 C1622 1.355 . S
C1623 C1625 1.419 . S
C1624 C1622 1.415 1_655 S
C1624 C1629 1.425 1_655 S
C1624 C1631 1.409 . S
C1625 H1617 0.930 . S
C1625 C1623 1.419 . S
C1625 C1626 1.362 . S
C1626 H1618 0.930 . S
C1626 C1625 1.362 . S
C1626 C1629 1.409 . S
C1627 H1619 0.930 . S
C1627 C1628 1.355 . S
C1627 C1629 1.415 1_655 S
C1628 C1627 1.355 . S
C1628 C1630 1.419 . S
C1629 C1624 1.425 1_455 S
C1629 C1626 1.409 . S
C1629 C1627 1.415 1_455 S
C1630 H1620 0.930 . S
C1630 C1628 1.419 . S
C1630 C1631 1.362 . S
C1631 H1621 0.930 . S
C1631 C1624 1.409 . S
C1631 C1630 1.362 . S
H1632 C1638 0.930 . S
H1633 C1641 0.930 . S
H1634 C1642 0.930 . S
H1635 C1643 0.930 . S
H1636 C1646 0.930 . S
H1637 C1647 0.930 . S
C1638 H1632 0.930 . S
C1638 C1639 1.355 . S
C1638 C1640 1.415 1_565 S
C1639 C1638 1.355 . S
C1639 C1641 1.419 . S
C1640 C1638 1.415 1_545 S
C1640 C1645 1.425 1_545 S
C1640 C1647 1.409 . S
C1641 H1633 0.930 . S
C1641 C1639 1.419 . S
C1641 C1642 1.362 . S
C1642 H1634 0.930 . S
C1642 C1641 1.362 . S
C1642 C1645 1.409 . S
C1643 H1635 0.930 . S
C1643 C1644 1.355 . S
C1643 C1645 1.415 1_545 S
C1644 C1643 1.355 . S
C1644 C1646 1.419 . S
C1645 C1640 1.425 1_565 S
C1645 C1642 1.409 . S
C1645 C1643 1.415 1_565 S
C1646 H1636 0.930 . S
C1646 C1644 1.419 . S
C1646 C1647 1.362 . S
C1647 H1637 0.930 . S
C1647 C1640 1.409 . S
C1647 C1646 1.362 . S
H1648 C1654 0.930 . S
H1649 C1657 0.930 . S
H1650 C1658 0.930 . S
H1651 C1659 0.930 . S
H1652 C1662 0.930 . S
H1653 C1663 0.930 . S
C1654 H1648 0.930 . S
C1654 C1655 1.355 . S
C1654 C1656 1.415 . S
C1655 C1654 1.355 . S
C1655 C1657 1.419 . S
C1656 C1654 1.415 . S
C1656 C1661 1.425 1_565 S
C1656 C1663 1.409 . S
C1657 H1649 0.930 . S
C1657 C1655 1.419 . S
C1657 C1658 1.362 1_565 S
C1658 H1650 0.930 . S
C1658 C1657 1.362 1_545 S
C1658 C1661 1.409 . S
C1659 H1651 0.930 . S
C1659 C1660 1.355 . S
C1659 C1661 1.415 . S
C1660 C1659 1.355 . S
C1660 C1662 1.419 . S
C1661 C1656 1.425 1_545 S
C1661 C1658 1.409 . S
C1661 C1659 1.415 . S
C1662 H1652 0.930 . S
C1662 C1660 1.419 . S
C1662 C1663 1.362 1_545 S
C1663 H1653 0.930 . S
C1663 C1656 1.409 . S
C1663 C1662 1.362 1_565 S
H1664 C1670 0.930 . S
H1665 C1673 0.930 . S
H1666 C1674 0.930 . S
H1667 C1675 0.930 . S
H1668 C1678 0.930 . S
H1669 C1679 0.930 . S
C1670 H1664 0.930 . S
C1670 C1671 1.355 . S
C1670 C1672 1.415 1_455 S
C1671 C1670 1.355 . S
C1671 C1673 1.419 . S
C1672 C1670 1.415 1_655 S
C1672 C1677 1.425 1_655 S
C1672 C1679 1.409 . S
C1673 H1665 0.930 . S
C1673 C1671 1.419 . S
C1673 C1674 1.362 . S
C1674 H1666 0.930 . S
C1674 C1673 1.362 . S
C1674 C1677 1.409 . S
C1675 H1667 0.930 . S
C1675 C1676 1.355 . S
C1675 C1677 1.415 1_655 S
C1676 C1675 1.355 . S
C1676 C1678 1.419 . S
C1677 C1672 1.425 1_455 S
C1677 C1674 1.409 . S
C1677 C1675 1.415 1_455 S
C1678 H1668 0.930 . S
C1678 C1676 1.419 . S
C1678 C1679 1.362 . S
C1679 H1669 0.930 . S
C1679 C1672 1.409 . S
C1679 C1678 1.362 . S
H1680 C1686 0.930 . S
H1681 C1689 0.930 . S
H1682 C1690 0.930 . S
H1683 C1691 0.930 . S
H1684 C1694 0.930 . S
H1685 C1695 0.930 . S
C1686 H1680 0.930 . S
C1686 C1687 1.355 . S
C1686 C1688 1.429 . S
C1687 C1686 1.355 . S
C1687 C1689 1.419 . S
C1688 C1686 1.429 . S
C1688 C1693 1.425 1_545 S
C1688 C1695 1.395 1_545 S
C1689 H1681 0.930 . S
C1689 C1687 1.419 . S
C1689 C1690 1.362 . S
C1690 H1682 0.930 . S
C1690 C1689 1.362 . S
C1690 C1693 1.395 1_545 S
C1691 H1683 0.930 . S
C1691 C1692 1.355 . S
C1691 C1693 1.429 . S
C1692 C1691 1.355 . S
C1692 C1694 1.419 . S
C1693 C1688 1.425 1_565 S
C1693 C1690 1.395 1_565 S
C1693 C1691 1.429 . S
C1694 H1684 0.930 . S
C1694 C1692 1.419 . S
C1694 C1695 1.362 . S
C1695 H1685 0.930 . S
C1695 C1688 1.395 1_565 S
C1695 C1694 1.362 . S
H1696 C1702 0.930 . S
H1697 C1705 0.930 . S
H1698 C1706 0.930 . S
H1699 C1707 0.930 . S
H1700 C1710 0.930 . S
H1701 C1711 0.930 . S
C1702 H1696 0.930 . S
C1702 C1703 1.355 . S
C1702 C1704 1.415 . S
C1703 C1702 1.355 . S
C1703 C1705 1.419 . S
C1704 C1702 1.415 . S
C1704 C1709 1.425 1_655 S
C1704 C1711 1.409 . S
C1705 H1697 0.930 . S
C1705 C1703 1.419 . S
C1705 C1706 1.362 1_655 S
C1706 H1698 0.930 . S
C1706 C1705 1.362 1_455 S
C1706 C1709 1.409 . S
C1707 H1699 0.930 . S
C1707 C1708 1.355 . S
C1707 C1709 1.415 . S
C1708 C1707 1.355 . S
C1708 C1710 1.419 . S
C1709 C1704 1.425 1_455 S
C1709 C1706 1.409 . S
C1709 C1707 1.415 . S
C1710 H1700 0.930 . S
C1710 C1708 1.419 . S
C1710 C1711 1.362 1_455 S
C1711 H1701 0.930 . S
C1711 C1704 1.409 . S
C1711 C1710 1.362 1_655 S
H1712 C1718 0.930 . S
H1713 C1721 0.930 . S
H1714 C1722 0.930 . S
H1715 C1723 0.930 . S
H1716 C1726 0.930 . S
H1717 C1727 0.930 . S
C1718 H1712 0.930 . S
C1718 C1719 1.355 . S
C1718 C1720 1.415 . S
C1719 C1718 1.355 . S
C1719 C1721 1.419 . S
C1720 C1718 1.415 . S
C1720 C1725 1.425 1_556 S
C1720 C1727 1.409 . S
C1721 H1713 0.930 . S
C1721 C1719 1.419 . S
C1721 C1722 1.362 1_556 S
C1722 H1714 0.930 . S
C1722 C1721 1.362 1_554 S
C1722 C1725 1.409 . S
C1723 H1715 0.930 . S
C1723 C1724 1.355 . S
C1723 C1725 1.415 . S
C1724 C1723 1.355 . S
C1724 C1726 1.419 . S
C1725 C1720 1.425 1_554 S
C1725 C1722 1.409 . S
C1725 C1723 1.415 . S
C1726 H1716 0.930 . S
C1726 C1724 1.419 . S
C1726 C1727 1.362 1_554 S
C1727 H1717 0.930 . S
C1727 C1720 1.409 . S
C1727 C1726 1.362 1_556 S
H1728 C1734 0.930 . S
H1729 C1737 0.930 . S
H1730 C1738 0.937 . S
H1731 C1739 0.930 . S
H1732 C1742 0.930 . S
H1733 C1743 0.937 . S
C1734 H1728 0.930 . S
C1734 C1735 1.355 . S
C1734 C1736 1.415 . S
C1735 C1734 1.355 . S
C1735 C1737 1.419 . S
C1736 C1734 1.415 . S
C1736 C1741 1.425 1_554 S
C1736 C1743 1.412 . S
C1737 H1729 0.930 . S
C1737 C1735 1.419 . S
C1737 C1738 1.353 1_554 S
C1738 H1730 0.937 . S
C1738 C1737 1.353 1_556 S
C1738 C1741 1.412 . S
C1739 H1731 0.930 . S
C1739 C1740 1.355 . S
C1739 C1741 1.415 . S
C1740 C1739 1.355 . S
C1740 C1742 1.419 . S
C1741 C1736 1.425 1_556 S
C1741 C1738 1.412 . S
C1741 C1739 1.415 . S
C1742 H1732 0.930 . S
C1742 C1740 1.419 . S
C1742 C1743 1.353 1_556 S
C1743 H1733 0.937 . S
C1743 C1736 1.412 . S
C1743 C1742 1.353 1_554 S
H1744 C1750 0.930 . S
H1745 C1753 0.930 . S
H1746 C1754 0.930 . S
H1747 C1755 0.930 . S
H1748 C1758 0.930 . S
H1749 C1759 0.930 . S
C1750 H1744 0.930 . S
C1750 C1751 1.355 . S
C1750 C1752 1.415 . S
C1751 C1750 1.355 . S
C1751 C1753 1.419 . S
C1752 C1750 1.415 . S
C1752 C1757 1.425 1_556 S
C1752 C1759 1.409 1_556 S
C1753 H1745 0.930 . S
C1753 C1751 1.419 . S
C1753 C1754 1.362 . S
C1754 H1746 0.930 . S
C1754 C1753 1.362 . S
C1754 C1757 1.409 1_556 S
C1755 H1747 0.930 . S
C1755 C1756 1.355 . S
C1755 C1757 1.415 . S
C1756 C1755 1.355 . S
C1756 C1758 1.419 . S
C1757 C1752 1.425 1_554 S
C1757 C1754 1.409 1_554 S
C1757 C1755 1.415 . S
C1758 H1748 0.930 . S
C1758 C1756 1.419 . S
C1758 C1759 1.362 . S
C1759 H1749 0.930 . S
C1759 C1752 1.409 1_554 S
C1759 C1758 1.362 . S
H1760 C1766 0.930 . S
H1761 C1769 0.930 . S
H1762 C1770 0.930 . S
H1763 C1771 0.930 . S
H1764 C1774 0.930 . S
H1765 C1775 0.930 . S
C1766 H1760 0.930 . S
C1766 C1767 1.355 . S
C1766 C1768 1.415 . S
C1767 C1766 1.355 . S
C1767 C1769 1.419 . S
C1768 C1766 1.415 . S
C1768 C1773 1.425 1_554 S
C1768 C1775 1.409 . S
C1769 H1761 0.930 . S
C1769 C1767 1.419 . S
C1769 C1770 1.362 1_554 S
C1770 H1762 0.930 . S
C1770 C1769 1.362 1_556 S
C1770 C1773 1.409 . S
C1771 H1763 0.930 . S
C1771 C1772 1.355 . S
C1771 C1773 1.415 . S
C1772 C1771 1.355 . S
C1772 C1774 1.419 . S
C1773 C1768 1.425 1_556 S
C1773 C1770 1.409 . S
C1773 C1771 1.415 . S
C1774 H1764 0.930 . S
C1774 C1772 1.419 . S
C1774 C1775 1.362 1_556 S
C1775 H1765 0.930 . S
C1775 C1768 1.409 . S
C1775 C1774 1.362 1_554 S
C823 C326 1.733 . S
C828 C20 1.707 . S
C839 C360 1.701 . S
C844 C54 1.767 . S
C855 C394 1.761 . S
C860 C88 1.697 . S
C871 C122 1.704 . S
C876 C292 1.738 . S
C887 C530 1.700 . S
C892 C156 1.745 . S
C903 C190 1.713 . S
C908 C428 1.768 . S
C919 C224 1.763 . S
C924 C462 1.697 . S
C935 C258 1.719 . S
C940 C496 1.719 . S
C951 C564 1.699 . S
C956 C632 1.748 . S
C967 C768 1.722 . S
C972 C598 1.765 . S
C983 C666 1.745 . S
C988 C802 1.749 . S
C999 C734 1.699 . S
C1004 C700 1.765 . S
C1015 C781 1.674 . S
C1020 C33 1.654 . S
C1031 C577 1.715 . S
C1036 C67 1.732 . S
C1047 C815 1.737 . S
C1052 C101 1.724 . S
C1063 C135 1.628 . S
C1068 C747 1.637 . S
C1079 C645 1.731 . S
C1084 C169 1.714 . S
C1095 C679 1.660 . S
C1100 C203 1.681 . S
C1111 C713 1.692 . S
C1116 C237 1.713 . S
C1127 C611 1.627 . S
C1132 C271 1.636 . S
C1143 C305 1.688 . S
C1148 C475 1.667 . S
C1159 C509 1.738 . S
C1164 C339 1.724 . S
C1175 C543 1.713 . S
C1180 C373 1.692 . S
C1191 C441 1.736 . S
C1196 C407 1.722 . S
C1207 C444 1.971 . S
C1212 C9 1.908 . S
C1223 C43 1.945 . S
C1228 C478 1.947 . S
C1239 C512 1.956 . S
C1244 C77 1.949 . S
C1255 C410 1.972 . S
C1260 C111 1.910 . S
C1271 C376 1.942 . S
C1276 C145 1.935 . S
C1287 C179 1.903 . S
C1292 C274 1.949 . S
C1303 C308 1.967 . S
C1308 C213 1.902 . S
C1319 C342 1.971 . S
C1324 C247 1.935 . S
C1335 C281 1.934 . S
C1340 C36 1.941 . S
C1351 C70 1.961 . S
C1356 C315 1.948 . S
C1367 C349 1.943 . S
C1372 C104 1.945 . S
C1383 C2 1.950 . S
C1388 C383 1.903 . S
C1399 C417 1.899 . S
C1404 C240 1.960 . S
C1415 C138 1.965 . S
C1420 C451 1.944 . S
C1431 C172 1.942 . S
C1436 C485 1.938 . S
C1447 C519 1.947 . S
C1452 C206 1.949 . S
C1463 C553 1.901 . S
C1468 C750 1.953 . S
C1479 C587 1.922 . S
C1484 C614 1.974 . S
C1495 C621 1.926 . S
C1500 C648 1.941 . S
C1511 C682 1.973 . S
C1516 C655 1.927 . S
C1527 C580 1.944 . S
C1532 C689 1.941 . S
C1543 C784 1.941 . S
C1548 C723 1.922 . S
C1559 C757 1.920 . S
C1564 C716 1.941 . S
C1575 C546 1.951 . S
C1580 C791 1.902 . S
C1591 C5 0.971 . S
C1596 C73 0.901 . S
C1607 C39 0.958 . S
C1612 C107 0.913 . S
C1623 C141 0.930 . S
C1628 C209 0.980 . S
C1639 C243 0.945 . S
C1644 C175 0.966 . S
C1655 C413 0.915 . S
C1660 C277 0.956 . S
C1671 C447 0.955 . S
C1676 C311 0.957 . S
C1687 C481 0.904 . S
C1692 C345 1.000 . S
C1703 C515 0.874 . S
C1708 C379 1.002 . S
C1719 C651 0.941 . S
C1724 C549 0.930 . S
C1735 C719 0.972 . S
C1740 C583 0.900 . S
C1751 C617 0.897 . S
C1756 C753 1.005 . S
C1767 C787 0.895 . S
C1772 C685 0.978 . S
