# Generated by pormake.
# Topology sow, (4)-cn, num edge types: 1
# Building blocks:
#     Node 0, Type 0, BuildingBlock: KOZSID_clean_sbu_0, # of connection points: 4
#     Node 1, Type 0, BuildingBlock: KOZSID_clean_sbu_0, # of connection points: 4
#     Node 2, Type 0, BuildingBlock: KOZSID_clean_sbu_0, # of connection points: 4
#     Node 3, Type 0, BuildingBlock: KOZSID_clean_sbu_0, # of connection points: 4
#     Node 4, Type 0, BuildingBlock: KOZSID_clean_sbu_0, # of connection points: 4
#     Node 5, Type 0, BuildingBlock: KOZSID_clean_sbu_0, # of connection points: 4
#     Node 6, Type 0, BuildingBlock: KOZSID_clean_sbu_0, # of connection points: 4
#     Node 7, Type 0, BuildingBlock: KOZSID_clean_sbu_0, # of connection points: 4
#     Edge 8, Type (0, 0), BuildingBlock: ZUJKAS_clean_linker_0, # of connection points: 2
#     Edge 9, Type (0, 0), BuildingBlock: ZUJKAS_clean_linker_0, # of connection points: 2
#     Edge 10, Type (0, 0), BuildingBlock: ZUJKAS_clean_linker_0, # of connection points: 2
#     Edge 11, Type (0, 0), BuildingBlock: ZUJKAS_clean_linker_0, # of connection points: 2
#     Edge 12, Type (0, 0), BuildingBlock: ZUJKAS_clean_linker_0, # of connection points: 2
#     Edge 13, Type (0, 0), BuildingBlock: ZUJKAS_clean_linker_0, # of connection points: 2
#     Edge 14, Type (0, 0), BuildingBlock: ZUJKAS_clean_linker_0, # of connection points: 2
#     Edge 15, Type (0, 0), BuildingBlock: ZUJKAS_clean_linker_0, # of connection points: 2
#     Edge 16, Type (0, 0), BuildingBlock: ZUJKAS_clean_linker_0, # of connection points: 2
#     Edge 17, Type (0, 0), BuildingBlock: ZUJKAS_clean_linker_0, # of connection points: 2
#     Edge 18, Type (0, 0), BuildingBlock: ZUJKAS_clean_linker_0, # of connection points: 2
#     Edge 19, Type (0, 0), BuildingBlock: ZUJKAS_clean_linker_0, # of connection points: 2
#     Edge 20, Type (0, 0), BuildingBlock: ZUJKAS_clean_linker_0, # of connection points: 2
#     Edge 21, Type (0, 0), BuildingBlock: ZUJKAS_clean_linker_0, # of connection points: 2
#     Edge 22, Type (0, 0), BuildingBlock: ZUJKAS_clean_linker_0, # of connection points: 2
#     Edge 23, Type (0, 0), BuildingBlock: ZUJKAS_clean_linker_0, # of connection points: 2
# Relax obj value: 0.060
# Max RMSD: 0.245
# Mean RMSD: 0.220
data_MOF--net-sow--node1-KOZSID_clean_sbu_0--edge1-ZUJKAS_clean_linker_0
_symmetry_space_group_name_H-M    P1
_symmetry_Int_Tables_number       1
_symmetry_cell_setting            triclinic
loop_
_symmetry_equiv_pos_as_xyz
'x, y, z'
_cell_length_a     70.76075
_cell_length_b     27.275685
_cell_length_c     31.145529
_cell_angle_alpha  89.984636
_cell_angle_beta   89.999958
_cell_angle_gamma 89.989765
loop_
_atom_site_label
_atom_site_type_symbol
_atom_site_fract_x
_atom_site_fract_y
_atom_site_fract_z
_atom_type_partial_charge
C0 C 0.12104 0.11629 0.20826 0.0
C1 C 0.11897 0.07165 0.22903 0.0
C2 C 0.13306 0.04194 0.21409 0.0
C3 C 0.14288 0.07015 0.18525 0.0
N4 N 0.13636 0.1166 0.18208 0.0
Co5 Co 0.14466 0.16801 0.14013 0.0
N6 N 0.16276 0.12172 0.11138 0.0
C7 C 0.1667 0.07522 0.12365 0.0
C8 C 0.18048 0.05323 0.09948 0.0
C9 C 0.18587 0.08791 0.07035 0.0
C10 C 0.17494 0.1292 0.07825 0.0
N11 N 0.15225 0.21891 0.09697 0.0
C12 C 0.16485 0.21674 0.06417 0.0
C13 C 0.16538 0.26041 0.04125 0.0
C14 C 0.15302 0.29159 0.06084 0.0
C15 C 0.14555 0.26522 0.0942 0.0
N16 N 0.127 0.21461 0.16972 0.0
C17 C 0.12501 0.26302 0.16156 0.0
C18 C 0.11075 0.28461 0.18444 0.0
C19 C 0.10277 0.24757 0.20759 0.0
C20 C 0.11278 0.20517 0.19779 0.0
N21 N 0.16552 0.18935 0.17937 0.0
C22 C 0.19472 0.2188 0.23634 0.0
C23 C 0.18479 0.25315 0.21173 0.0
C24 C 0.17045 0.2378 0.18367 0.0
C25 C 0.18979 0.1695 0.2316 0.0
C26 C 0.1754 0.15579 0.20331 0.0
N27 N 0.12369 0.14646 0.10215 0.0
C28 C 0.09193 0.16133 0.07655 0.0
C29 C 0.08889 0.11105 0.07113 0.0
C30 C 0.10419 0.07942 0.07733 0.0
C31 C 0.12137 0.09778 0.09258 0.0
C32 C 0.10949 0.17825 0.09106 0.0
H33 H 0.13223 0.07155 0.09867 0.0
H34 H 0.11098 0.21696 0.09527 0.0
H35 H 0.1636 0.26592 0.1658 0.0
H36 H 0.17255 0.11767 0.20169 0.0
C37 C 0.15696 0.05296 0.15757 0.0
C38 C 0.10721 0.15587 0.21155 0.0
C39 C 0.17717 0.17516 0.05453 0.0
C40 C 0.13346 0.28404 0.1255 0.0
H41 H 0.10788 0.06109 0.25113 0.0
H42 H 0.13522 0.00359 0.22155 0.0
H43 H 0.18606 0.01649 0.10287 0.0
H44 H 0.19681 0.08347 0.04639 0.0
H45 H 0.17409 0.26918 0.01374 0.0
H46 H 0.1502 0.32941 0.05245 0.0
H47 H 0.1056 0.32185 0.18159 0.0
H48 H 0.09028 0.25156 0.22711 0.0
H49 H 0.18818 0.29181 0.21366 0.0
H50 H 0.19678 0.1413 0.25025 0.0
H51 H 0.08067 0.18739 0.0707 0.0
H52 H 0.10261 0.04024 0.07295 0.0
C53 C 0.39441 0.39315 0.70371 0.0
C54 C 0.39683 0.43949 0.72122 0.0
C55 C 0.382 0.46732 0.70722 0.0
C56 C 0.37153 0.43668 0.68172 0.0
N57 N 0.37838 0.39046 0.67978 0.0
Co58 Co 0.36988 0.33688 0.63995 0.0
N59 N 0.35096 0.3808 0.61137 0.0
C60 C 0.34645 0.42705 0.62322 0.0
C61 C 0.33242 0.44759 0.59878 0.0
C62 C 0.3275 0.41216 0.56992 0.0
C63 C 0.33886 0.37181 0.57845 0.0
N64 N 0.36241 0.28403 0.59852 0.0
C65 C 0.34992 0.28476 0.56544 0.0
C66 C 0.34927 0.23985 0.54447 0.0
C67 C 0.36175 0.20975 0.56502 0.0
C68 C 0.36932 0.23779 0.59722 0.0
N69 N 0.38818 0.29253 0.66967 0.0
C70 C 0.39022 0.24377 0.66388 0.0
C71 C 0.4045 0.22381 0.68806 0.0
C72 C 0.41232 0.26245 0.70962 0.0
C73 C 0.40238 0.30383 0.69704 0.0
N74 N 0.3497 0.31569 0.68122 0.0
C75 C 0.32149 0.28622 0.74079 0.0
C76 C 0.33038 0.25218 0.71396 0.0
C77 C 0.34429 0.26749 0.68481 0.0
C78 C 0.32686 0.3353 0.73685 0.0
C79 C 0.34076 0.34905 0.70723 0.0
N80 N 0.39009 0.35821 0.59996 0.0
C81 C 0.42157 0.34439 0.57227 0.0
C82 C 0.42426 0.39486 0.56634 0.0
C83 C 0.40863 0.42557 0.5725 0.0
C84 C 0.39177 0.4066 0.58889 0.0
C85 C 0.40438 0.32689 0.58859 0.0
H86 H 0.38064 0.43219 0.59465 0.0
H87 H 0.40333 0.28827 0.59433 0.0
H88 H 0.35043 0.23939 0.66572 0.0
H89 H 0.34391 0.38706 0.70615 0.0
C90 C 0.35656 0.45133 0.65539 0.0
C91 C 0.40825 0.35359 0.70762 0.0
C92 C 0.3376 0.32592 0.55431 0.0
C93 C 0.38163 0.22062 0.62899 0.0
H94 H 0.40845 0.45264 0.74053 0.0
H95 H 0.37979 0.50606 0.71281 0.0
H96 H 0.32662 0.48421 0.60129 0.0
H97 H 0.31681 0.41569 0.54526 0.0
H98 H 0.34036 0.22943 0.51777 0.0
H99 H 0.36457 0.17156 0.55808 0.0
H100 H 0.40965 0.18644 0.68735 0.0
H101 H 0.42468 0.26099 0.73009 0.0
H102 H 0.32688 0.21359 0.71586 0.0
H103 H 0.32021 0.3634 0.75622 0.0
H104 H 0.43301 0.31868 0.56722 0.0
H105 H 0.40956 0.46456 0.56624 0.0
C106 C 0.62103 0.39224 0.79809 0.0
C107 C 0.61882 0.43812 0.77964 0.0
C108 C 0.6333 0.46645 0.79473 0.0
C109 C 0.64341 0.43628 0.8215 0.0
N110 N 0.63666 0.38997 0.82325 0.0
Co111 Co 0.64486 0.33645 0.86331 0.0
N112 N 0.66352 0.38057 0.89268 0.0
C113 C 0.66801 0.42693 0.88104 0.0
C114 C 0.68211 0.44725 0.90539 0.0
C115 C 0.68709 0.41161 0.934 0.0
C116 C 0.6756 0.37146 0.92566 0.0
N117 N 0.65216 0.28363 0.90492 0.0
C118 C 0.66463 0.28423 0.93804 0.0
C119 C 0.66475 0.23985 0.95992 0.0
C120 C 0.65223 0.20989 0.93939 0.0
C121 C 0.64505 0.23764 0.90655 0.0
N122 N 0.6268 0.2919 0.83282 0.0
C123 C 0.62458 0.24325 0.83919 0.0
C124 C 0.61041 0.22315 0.81486 0.0
C125 C 0.60283 0.26151 0.79252 0.0
C126 C 0.61288 0.30295 0.80456 0.0
N127 N 0.66532 0.31539 0.82281 0.0
C128 C 0.69353 0.28585 0.76337 0.0
C129 C 0.68437 0.25168 0.7896 0.0
C130 C 0.67045 0.26704 0.81873 0.0
C131 C 0.68852 0.33511 0.76805 0.0
C132 C 0.67461 0.34889 0.79762 0.0
N133 N 0.62431 0.35767 0.90257 0.0
C134 C 0.59263 0.34405 0.92925 0.0
C135 C 0.59016 0.39434 0.93655 0.0
C136 C 0.60587 0.42486 0.93088 0.0
C137 C 0.62269 0.40592 0.9142 0.0
C138 C 0.60982 0.32652 0.91298 0.0
H139 H 0.63388 0.43146 0.90892 0.0
H140 H 0.61076 0.28801 0.9068 0.0
H141 H 0.66402 0.23891 0.83734 0.0
H142 H 0.6717 0.38702 0.7993 0.0
C143 C 0.6581 0.4512 0.84849 0.0
C144 C 0.60737 0.35273 0.7929 0.0
C145 C 0.67711 0.32508 0.94905 0.0
C146 C 0.63286 0.22043 0.87463 0.0
H147 H 0.6075 0.45015 0.75875 0.0
H148 H 0.63559 0.50507 0.78869 0.0
H149 H 0.68805 0.4837 0.90269 0.0
H150 H 0.69806 0.41474 0.95803 0.0
H151 H 0.67326 0.22984 0.98743 0.0
H152 H 0.64908 0.17202 0.94691 0.0
H153 H 0.60514 0.18591 0.81598 0.0
H154 H 0.59059 0.25952 0.77182 0.0
H155 H 0.68764 0.21298 0.78718 0.0
H156 H 0.69542 0.36329 0.74922 0.0
H157 H 0.58109 0.31851 0.9337 0.0
H158 H 0.60505 0.46369 0.93788 0.0
C159 C 0.89414 0.11654 0.29578 0.0
C160 C 0.89624 0.07194 0.27497 0.0
C161 C 0.88202 0.04237 0.28944 0.0
C162 C 0.87209 0.07059 0.31807 0.0
N163 N 0.87868 0.11695 0.32154 0.0
Co164 Co 0.87029 0.16829 0.36346 0.0
N165 N 0.85204 0.12205 0.39177 0.0
C166 C 0.84807 0.07566 0.37929 0.0
C167 C 0.83422 0.05366 0.40326 0.0
C168 C 0.82882 0.08822 0.43249 0.0
C169 C 0.83981 0.12945 0.42484 0.0
N170 N 0.86261 0.2191 0.40659 0.0
C171 C 0.84996 0.21685 0.43929 0.0
C172 C 0.84942 0.26045 0.4623 0.0
C173 C 0.8618 0.29168 0.44287 0.0
C174 C 0.86932 0.26539 0.40952 0.0
N175 N 0.88813 0.21481 0.33436 0.0
C176 C 0.89012 0.26319 0.3426 0.0
C177 C 0.90451 0.28471 0.32007 0.0
C178 C 0.91255 0.24765 0.29707 0.0
C179 C 0.90246 0.20531 0.30662 0.0
N180 N 0.84962 0.18998 0.3238 0.0
C181 C 0.82128 0.21999 0.26489 0.0
C182 C 0.83071 0.25409 0.2907 0.0
C183 C 0.8447 0.23847 0.3196 0.0
C184 C 0.826 0.17062 0.26993 0.0
C185 C 0.83995 0.15662 0.29924 0.0
N186 N 0.89109 0.14639 0.40176 0.0
C187 C 0.92272 0.16109 0.42824 0.0
C188 C 0.92589 0.11071 0.43277 0.0
C189 C 0.91066 0.07906 0.42572 0.0
C190 C 0.89347 0.09758 0.41066 0.0
C191 C 0.90519 0.17812 0.41358 0.0
H192 H 0.88265 0.07138 0.40406 0.0
H193 H 0.90364 0.21688 0.40984 0.0
H194 H 0.85137 0.26644 0.33796 0.0
H195 H 0.84258 0.11842 0.30121 0.0
C196 C 0.85787 0.05344 0.34544 0.0
C197 C 0.90803 0.156 0.29293 0.0
C198 C 0.83762 0.17527 0.44875 0.0
C199 C 0.88153 0.28422 0.37846 0.0
H200 H 0.90743 0.06133 0.25316 0.0
H201 H 0.87984 0.00407 0.28185 0.0
H202 H 0.82861 0.01698 0.3997 0.0
H203 H 0.81785 0.08375 0.45638 0.0
H204 H 0.84068 0.26916 0.48978 0.0
H205 H 0.86464 0.32945 0.45139 0.0
H206 H 0.90968 0.32192 0.32306 0.0
H207 H 0.92513 0.25155 0.27785 0.0
H208 H 0.82761 0.29287 0.28807 0.0
H209 H 0.81883 0.1425 0.25155 0.0
H210 H 0.93387 0.18724 0.43486 0.0
H211 H 0.91226 0.03979 0.42931 0.0
C212 C 0.88814 0.93581 0.99594 0.0
C213 C 0.88787 0.98582 0.00405 0.0
C214 C 0.87082 0.00291 0.98919 0.0
C215 C 0.8617 0.96259 0.97272 0.0
N216 N 0.87197 0.92138 0.97658 0.0
Co217 Co 0.86506 0.85552 0.95495 0.0
N218 N 0.84651 0.88338 0.91398 0.0
C219 C 0.83922 0.92901 0.9156 0.0
C220 C 0.82659 0.93814 0.88315 0.0
C221 C 0.82565 0.8954 0.86013 0.0
C222 C 0.8377 0.86222 0.88011 0.0
N223 N 0.85812 0.78928 0.93399 0.0
C224 C 0.84811 0.77573 0.89883 0.0
C225 C 0.84574 0.72518 0.89776 0.0
C226 C 0.85436 0.70678 0.93378 0.0
C227 C 0.86149 0.74688 0.9549 0.0
N228 N 0.88371 0.82834 0.99581 0.0
C229 C 0.88442 0.7821 0.01054 0.0
C230 C 0.89974 0.77422 0.03689 0.0
C231 C 0.90919 0.8183 0.03848 0.0
C232 C 0.89907 0.8505 0.01288 0.0
N233 N 0.8452 0.85067 0.99875 0.0
C234 C 0.81721 0.83837 0.06188 0.0
C235 C 0.83505 0.85741 0.07243 0.0
C236 C 0.8488 0.86338 0.04045 0.0
C237 C 0.81369 0.82645 0.01886 0.0
C238 C 0.82776 0.83294 0.98799 0.0
N239 N 0.88499 0.86002 0.9116 0.0
C240 C 0.91291 0.82542 0.87953 0.0
C241 C 0.91701 0.8701 0.85945 0.0
C242 C 0.90425 0.90902 0.86449 0.0
C243 C 0.88823 0.90305 0.89031 0.0
C244 C 0.8969 0.82117 0.90541 0.0
H245 H 0.87881 0.93379 0.89425 0.0
H246 H 0.89459 0.78694 0.92183 0.0
H247 H 0.86243 0.87778 0.04954 0.0
H248 H 0.82453 0.82269 0.95546 0.0
C249 C 0.84628 0.96382 0.94458 0.0
C250 C 0.90367 0.90238 0.00667 0.0
C251 C 0.83866 0.80978 0.86912 0.0
C252 C 0.87332 0.74572 0.99115 0.0
H253 H 0.89892 0.00792 0.01818 0.0
H254 H 0.86625 0.04075 0.98779 0.0
H255 H 0.81923 0.97208 0.87648 0.0
H256 H 0.81676 0.88908 0.83241 0.0
H257 H 0.83815 0.70392 0.87404 0.0
H258 H 0.85552 0.66866 0.94306 0.0
H259 H 0.90419 0.73989 0.0511 0.0
H260 H 0.92208 0.82583 0.05597 0.0
H261 H 0.83839 0.86777 0.10512 0.0
H262 H 0.80028 0.81094 0.00905 0.0
H263 H 0.92242 0.79446 0.8768 0.0
H264 H 0.90674 0.94398 0.84898 0.0
C265 C 0.62583 0.56537 0.49581 0.0
C266 C 0.62571 0.51565 0.50495 0.0
C267 C 0.64276 0.4975 0.49093 0.0
C268 C 0.65227 0.53714 0.47418 0.0
N269 N 0.64225 0.57883 0.47718 0.0
Co270 Co 0.64967 0.64408 0.45536 0.0
N271 N 0.66819 0.615 0.41502 0.0
C272 C 0.67524 0.56915 0.41731 0.0
C273 C 0.68795 0.55919 0.38522 0.0
C274 C 0.68919 0.60159 0.36174 0.0
C275 C 0.67723 0.63543 0.38109 0.0
N276 N 0.65709 0.70977 0.43402 0.0
C277 C 0.66724 0.72252 0.39883 0.0
C278 C 0.66992 0.77295 0.39736 0.0
C279 C 0.66135 0.79208 0.43315 0.0
C280 C 0.65394 0.75251 0.45454 0.0
N281 N 0.63106 0.67239 0.49581 0.0
C282 C 0.6306 0.71883 0.5101 0.0
C283 C 0.61514 0.72777 0.53571 0.0
C284 C 0.60534 0.68422 0.53731 0.0
C285 C 0.61546 0.65106 0.51263 0.0
N286 N 0.66942 0.64846 0.49947 0.0
C287 C 0.69736 0.65992 0.56286 0.0
C288 C 0.67937 0.64167 0.5733 0.0
C289 C 0.66565 0.63612 0.54118 0.0
C290 C 0.70103 0.67152 0.51983 0.0
C291 C 0.68699 0.66546 0.48884 0.0
N292 N 0.62989 0.64001 0.41166 0.0
C293 C 0.60214 0.67503 0.37928 0.0
C294 C 0.59795 0.63038 0.35923 0.0
C295 C 0.61064 0.59132 0.36431 0.0
C296 C 0.62661 0.59703 0.39033 0.0
C297 C 0.61813 0.67907 0.40525 0.0
H298 H 0.63592 0.5661 0.39448 0.0
H299 H 0.62051 0.7133 0.4216 0.0
H300 H 0.65191 0.62232 0.55015 0.0
H301 H 0.69036 0.67541 0.45631 0.0
C302 C 0.66786 0.5349 0.44651 0.0
C303 C 0.61047 0.59943 0.50578 0.0
C304 C 0.67648 0.68773 0.36945 0.0
C305 C 0.642 0.75451 0.49057 0.0
H306 H 0.61437 0.49475 0.51943 0.0
H307 H 0.64711 0.45946 0.49035 0.0
H308 H 0.69517 0.52492 0.37905 0.0
H309 H 0.69821 0.60723 0.33412 0.0
H310 H 0.67767 0.79366 0.37351 0.0
H311 H 0.66039 0.83035 0.44208 0.0
H312 H 0.61078 0.76255 0.5492 0.0
H313 H 0.59215 0.67804 0.55397 0.0
H314 H 0.67591 0.63161 0.60599 0.0
H315 H 0.71455 0.68646 0.51009 0.0
H316 H 0.5927 0.70613 0.3765 0.0
H317 H 0.6081 0.55637 0.34884 0.0
C318 C 0.38903 0.5672 0.01317 0.0
C319 C 0.38883 0.5173 0.00485 0.0
C320 C 0.37163 0.50024 0.01903 0.0
C321 C 0.36236 0.54065 0.03507 0.0
N322 N 0.37268 0.58178 0.0315 0.0
Co323 Co 0.36568 0.64777 0.05227 0.0
N324 N 0.347 0.62031 0.09307 0.0
C325 C 0.3395 0.57492 0.09114 0.0
C326 C 0.32643 0.56644 0.12283 0.0
C327 C 0.32546 0.60934 0.14567 0.0
C328 C 0.33803 0.64185 0.12655 0.0
N329 N 0.35867 0.7142 0.07253 0.0
C330 C 0.3486 0.72806 0.10748 0.0
C331 C 0.34646 0.77868 0.10852 0.0
C332 C 0.35517 0.79676 0.07249 0.0
C333 C 0.3622 0.75643 0.05151 0.0
N334 N 0.38445 0.67444 0.01136 0.0
C335 C 0.38524 0.72057 0.99637 0.0
C336 C 0.40073 0.72825 0.97053 0.0
C337 C 0.41022 0.6842 0.96957 0.0
C338 C 0.3999 0.65206 0.99484 0.0
N339 N 0.34594 0.65213 0.00811 0.0
C340 C 0.31799 0.66328 0.94469 0.0
C341 C 0.33587 0.64418 0.93445 0.0
C342 C 0.3496 0.63879 0.96658 0.0
C343 C 0.31444 0.67598 0.98753 0.0
C344 C 0.32849 0.67007 0.01852 0.0
N345 N 0.38543 0.64368 0.09602 0.0
C346 C 0.41345 0.67793 0.12783 0.0
C347 C 0.4173 0.63348 0.1486 0.0
C348 C 0.40432 0.59499 0.14416 0.0
C349 C 0.38839 0.60099 0.11805 0.0
C350 C 0.39749 0.68226 0.1018 0.0
H351 H 0.37884 0.57047 0.11441 0.0
H352 H 0.39536 0.71626 0.08489 0.0
H353 H 0.36325 0.62425 0.95779 0.0
H354 H 0.32521 0.68086 0.05089 0.0
C355 C 0.34667 0.53976 0.06251 0.0
C356 C 0.40458 0.60041 1.00259 0.0
C357 C 0.33914 0.69427 0.13742 0.0
C358 C 0.37414 0.75718 0.01545 0.0
H359 H 0.40003 0.4956 0.99074 0.0
H360 H 0.36701 0.46243 0.02013 0.0
H361 H 0.31872 0.53291 0.12901 0.0
H362 H 0.31614 0.61632 0.17255 0.0
H363 H 0.33902 0.80019 0.13233 0.0
H364 H 0.35653 0.83484 0.06321 0.0
H365 H 0.40533 0.76254 0.9565 0.0
H366 H 0.42334 0.677 0.95294 0.0
H367 H 0.33924 0.6333 0.90191 0.0
H368 H 0.30102 0.69162 0.99708 0.0
H369 H 0.42312 0.70858 0.13012 0.0
H370 H 0.40659 0.56025 0.16019 0.0
C371 C 0.1254 0.92941 0.50997 0.0
C372 C 0.12551 0.97888 0.49981 0.0
C373 C 0.14261 0.99691 0.5136 0.0
C374 C 0.15192 0.95746 0.53123 0.0
N375 N 0.14174 0.91598 0.52902 0.0
Co376 Co 0.14892 0.85108 0.55212 0.0
N377 N 0.16759 0.88067 0.59182 0.0
C378 C 0.17477 0.92632 0.58869 0.0
C379 C 0.18755 0.93678 0.62051 0.0
C380 C 0.18871 0.8949 0.64471 0.0
C381 C 0.17663 0.86085 0.62602 0.0
N382 N 0.15611 0.78572 0.57474 0.0
C383 C 0.16631 0.77358 0.61002 0.0
C384 C 0.16879 0.72312 0.61246 0.0
C385 C 0.16004 0.70333 0.57718 0.0
C386 C 0.15274 0.74255 0.55512 0.0
N387 N 0.13016 0.82224 0.51229 0.0
C388 C 0.12949 0.77543 0.49899 0.0
C389 C 0.11403 0.76625 0.47347 0.0
C390 C 0.10444 0.81005 0.47086 0.0
C391 C 0.11468 0.84357 0.49488 0.0
N392 N 0.1686 0.84497 0.50802 0.0
C393 C 0.19609 0.82895 0.44451 0.0
C394 C 0.17839 0.84877 0.4339 0.0
C395 C 0.16485 0.85639 0.46608 0.0
C396 C 0.19988 0.81892 0.48775 0.0
C397 C 0.18606 0.8273 0.51883 0.0
N398 N 0.12919 0.8568 0.59581 0.0
C399 C 0.10148 0.82305 0.62942 0.0
C400 C 0.09746 0.86826 0.64865 0.0
C401 C 0.11017 0.90705 0.64241 0.0
C402 C 0.12604 0.90041 0.61623 0.0
C403 C 0.11735 0.81811 0.6032 0.0
H404 H 0.1354 0.93108 0.6113 0.0
H405 H 0.1196 0.78342 0.58751 0.0
H406 H 0.15119 0.87065 0.45695 0.0
H407 H 0.18949 0.81858 0.5516 0.0
C408 C 0.16751 0.96 0.55886 0.0
C409 C 0.10992 0.89556 0.50046 0.0
C410 C 0.17584 0.80881 0.63851 0.0
C411 C 0.14075 0.73996 0.51922 0.0
H412 H 0.1143 0.99973 0.48478 0.0
H413 H 0.14712 0.03482 0.5134 0.0
H414 H 0.19489 0.97102 0.62601 0.0
H415 H 0.19776 0.8897 0.67234 0.0
H416 H 0.17654 0.70281 0.63656 0.0
H417 H 0.15892 0.66487 0.56899 0.0
H418 H 0.10954 0.73125 0.46068 0.0
H419 H 0.0913 0.81618 0.45395 0.0
H420 H 0.17482 0.857 0.40087 0.0
H421 H 0.21347 0.80452 0.49763 0.0
H422 H 0.092 0.79214 0.63309 0.0
H423 H 0.10775 0.94243 0.6572 0.0
H424 H 0.29322 0.21777 0.73104 0.0
H425 H 0.26906 0.19378 0.7833 0.0
H426 H 0.29201 0.29644 0.87464 0.0
H427 H 0.3165 0.31969 0.82312 0.0
H428 H 0.28398 0.20403 0.91024 0.0
H429 H 0.22269 0.27519 0.81774 0.0
H430 H 0.23763 0.23318 0.78908 0.0
H431 H 0.24676 0.29181 0.80521 0.0
C432 C 0.29324 0.23502 0.76234 0.0
C433 C 0.3068 0.27095 0.77265 0.0
C434 C 0.27926 0.22162 0.79206 0.0
C435 C 0.2785 0.24386 0.83271 0.0
C436 C 0.2922 0.27903 0.84338 0.0
H437 H 0.20869 0.23168 0.0619 0.0
H438 H 0.23346 0.24573 0.00812 0.0
C439 C 0.30613 0.29255 0.8137 0.0
C440 C 0.26359 0.2303 0.8644 0.0
H441 H 0.21587 0.23225 0.88179 0.0
C442 C 0.26909 0.21021 0.90401 0.0
C443 C 0.24414 0.23814 0.85626 0.0
C444 C 0.23738 0.26113 0.81495 0.0
C445 C 0.2557 0.19753 0.93554 0.0
C446 C 0.23626 0.20613 0.92771 0.0
C447 C 0.23075 0.22562 0.88786 0.0
C448 C 0.22147 0.19653 0.96084 0.0
C449 C 0.26252 0.1743 0.9767 0.0
C450 C 0.20621 0.16507 0.95199 0.0
C451 C 0.19199 0.15735 0.98263 0.0
C452 C 0.19274 0.18112 0.02258 0.0
C453 C 0.20795 0.21259 0.03144 0.0
C454 C 0.22213 0.22037 1.00083 0.0
H455 H 0.27659 0.15683 0.97254 0.0
H456 H 0.26391 0.20304 1.00171 0.0
H457 H 0.2524 0.14621 0.98841 0.0
H458 H 0.20529 0.14654 0.9213 0.0
H459 H 0.18028 0.13331 0.975 0.0
H460 H 0.22831 0.17214 0.25316 0.0
H461 H 0.25221 0.1937 0.30653 0.0
H462 H 0.2199 0.32125 0.34229 0.0
H463 H 0.19571 0.29964 0.28926 0.0
H464 H 0.25925 0.33934 0.33359 0.0
H465 H 0.24527 0.17768 0.43704 0.0
H466 H 0.25011 0.16295 0.38191 0.0
H467 H 0.2292 0.1971 0.39535 0.0
C468 C 0.22615 0.2046 0.27255 0.0
C469 C 0.2099 0.23379 0.2671 0.0
C470 C 0.23988 0.21692 0.30306 0.0
C471 C 0.23771 0.25863 0.32898 0.0
C472 C 0.22184 0.28877 0.32278 0.0
H473 H 0.29967 0.31576 0.5662 0.0
H474 H 0.27521 0.30236 0.51139 0.0
C475 C 0.20806 0.27645 0.29226 0.0
C476 C 0.25191 0.2704 0.36278 0.0
H477 H 0.27226 0.22542 0.45423 0.0
C478 C 0.26207 0.31453 0.36005 0.0
C479 C 0.25541 0.23834 0.39765 0.0
C480 C 0.24432 0.19156 0.40356 0.0
C481 C 0.2759 0.32693 0.39071 0.0
C482 C 0.27983 0.29407 0.42478 0.0
C483 C 0.26939 0.25043 0.42795 0.0
C484 C 0.29463 0.30423 0.45769 0.0
C485 C 0.28598 0.37544 0.38668 0.0
C486 C 0.3137 0.30953 0.44586 0.0
C487 C 0.32763 0.31726 0.47714 0.0
C488 C 0.32274 0.31957 0.52079 0.0
C489 C 0.30371 0.31436 0.53267 0.0
C490 C 0.28979 0.30661 0.50143 0.0
H491 H 0.278 0.40156 0.36617 0.0
H492 H 0.28822 0.39241 0.41868 0.0
H493 H 0.30001 0.36941 0.37169 0.0
H494 H 0.31786 0.30682 0.41249 0.0
H495 H 0.34225 0.32086 0.46738 0.0
H496 H 0.81609 0.18464 0.18344 0.0
H497 H 0.79159 0.20678 0.13172 0.0
H498 H 0.76878 0.31162 0.22142 0.0
H499 H 0.79335 0.28967 0.27347 0.0
H500 H 0.75331 0.19832 0.13987 0.0
H501 H 0.77242 0.39326 0.11268 0.0
H502 H 0.78805 0.35074 0.13938 0.0
H503 H 0.76853 0.3775 0.16796 0.0
C504 C 0.80587 0.2124 0.19229 0.0
C505 C 0.80672 0.23527 0.23277 0.0
C506 C 0.79189 0.22518 0.16254 0.0
C507 C 0.77842 0.2613 0.17233 0.0
C508 C 0.77924 0.28444 0.21263 0.0
H509 H 0.67978 0.36712 0.0286 0.0
H510 H 0.70409 0.35247 0.08374 0.0
C511 C 0.7933 0.27178 0.24243 0.0
C512 C 0.76316 0.27299 0.14087 0.0
H513 H 0.74405 0.36533 0.08041 0.0
C514 C 0.75134 0.23484 0.12683 0.0
C515 C 0.76047 0.32071 0.12393 0.0
C516 C 0.77313 0.36287 0.1364 0.0
C517 C 0.73693 0.24303 0.09657 0.0
C518 C 0.7344 0.29054 0.07921 0.0
C519 C 0.74601 0.32891 0.09367 0.0
C520 C 0.72001 0.30074 0.04543 0.0
C521 C 0.72435 0.20077 0.08385 0.0
C522 C 0.72107 0.27731 0.00532 0.0
C523 C 0.70728 0.28578 0.97393 0.0
C524 C 0.69221 0.31798 0.98199 0.0
C525 C 0.69131 0.34218 0.02174 0.0
C526 C 0.70515 0.33381 0.05314 0.0
H527 H 0.72477 0.17072 0.10792 0.0
H528 H 0.70948 0.21297 0.07991 0.0
H529 H 0.72926 0.18568 0.0527 0.0
H530 H 0.73257 0.25236 0.99829 0.0
H531 H 0.70829 0.26693 0.9434 0.0
H532 H 0.69864 0.32073 0.68159 0.0
H533 H 0.72288 0.29752 0.62956 0.0
H534 H 0.74583 0.19352 0.71985 0.0
H535 H 0.72157 0.21655 0.77219 0.0
H536 H 0.76126 0.30487 0.63619 0.0
H537 H 0.74116 0.11007 0.61251 0.0
H538 H 0.72589 0.15352 0.6391 0.0
H539 H 0.74543 0.12656 0.66746 0.0
C540 C 0.70885 0.29298 0.69053 0.0
C541 C 0.7081 0.27056 0.73123 0.0
C542 C 0.72268 0.27957 0.66059 0.0
C543 C 0.73607 0.24325 0.67042 0.0
C544 C 0.7354 0.22077 0.71101 0.0
H545 H 0.83436 0.13313 0.52821 0.0
H546 H 0.80979 0.14842 0.58263 0.0
C547 C 0.72151 0.23407 0.74099 0.0
C548 C 0.7511 0.23052 0.63866 0.0
H549 H 0.76966 0.13629 0.57956 0.0
C550 C 0.76303 0.26801 0.62375 0.0
C551 C 0.75353 0.18237 0.62248 0.0
C552 C 0.74073 0.14085 0.63585 0.0
C553 C 0.77732 0.25873 0.59344 0.0
C554 C 0.77962 0.21075 0.57692 0.0
C555 C 0.76788 0.17306 0.59218 0.0
C556 C 0.79396 0.19937 0.5433 0.0
C557 C 0.79005 0.30032 0.57983 0.0
C558 C 0.79299 0.22193 0.50279 0.0
C559 C 0.80691 0.21307 0.47182 0.0
C560 C 0.82204 0.18129 0.48066 0.0
C561 C 0.82278 0.15764 0.5207 0.0
C562 C 0.80879 0.16642 0.5517 0.0
H563 H 0.78976 0.331 0.60328 0.0
H564 H 0.80487 0.28763 0.5761 0.0
H565 H 0.78518 0.31472 0.54839 0.0
H566 H 0.78152 0.24678 0.49525 0.0
H567 H 0.80606 0.23161 0.44111 0.0
H568 H 0.77888 0.85257 0.05558 0.0
H569 H 0.75456 0.83199 0.10834 0.0
H570 H 0.79757 0.78368 0.19673 0.0
H571 H 0.82202 0.80336 0.14391 0.0
H572 H 0.74793 0.73819 0.14409 0.0
H573 H 0.76442 0.87523 0.27039 0.0
H574 H 0.77304 0.88069 0.216 0.0
H575 H 0.78424 0.83922 0.2529 0.0
C576 C 0.78322 0.83754 0.08622 0.0
C577 C 0.80247 0.82953 0.09535 0.0
C578 C 0.76927 0.82604 0.11643 0.0
C579 C 0.77424 0.80674 0.15664 0.0
C580 C 0.79342 0.79941 0.16623 0.0
H581 H 0.71463 0.69297 0.37771 0.0
H582 H 0.7377 0.72286 0.32509 0.0
C583 C 0.8074 0.81079 0.13596 0.0
C584 C 0.75929 0.79191 0.18759 0.0
H585 H 0.74238 0.813 0.28867 0.0
C586 C 0.7466 0.75477 0.1756 0.0
C587 C 0.75764 0.81348 0.22872 0.0
C588 C 0.77044 0.85467 0.24279 0.0
C589 C 0.73264 0.73767 0.20401 0.0
C590 C 0.731 0.75911 0.24525 0.0
C591 C 0.74359 0.79661 0.25707 0.0
C592 C 0.7168 0.74196 0.27717 0.0
C593 C 0.7202 0.69563 0.19008 0.0
C594 C 0.69732 0.74348 0.26811 0.0
C595 C 0.68415 0.72597 0.29806 0.0
C596 C 0.69027 0.70696 0.33752 0.0
C597 C 0.70966 0.70683 0.34712 0.0
C598 C 0.7228 0.72407 0.31719 0.0
H599 H 0.72641 0.67524 0.16261 0.0
H600 H 0.71781 0.66955 0.21692 0.0
H601 H 0.70629 0.7102 0.17974 0.0
H602 H 0.6923 0.75828 0.23793 0.0
H603 H 0.66922 0.72707 0.29041 0.0
H604 H 0.73561 0.64424 0.5568 0.0
H605 H 0.76 0.66431 0.6095 0.0
H606 H 0.71719 0.71431 0.69766 0.0
H607 H 0.69267 0.69522 0.64485 0.0
H608 H 0.76683 0.75864 0.64492 0.0
H609 H 0.75019 0.62193 0.77151 0.0
H610 H 0.74164 0.61633 0.71708 0.0
H611 H 0.73045 0.65809 0.75373 0.0
C612 C 0.73132 0.65954 0.58737 0.0
C613 C 0.7121 0.66825 0.5964 0.0
C614 C 0.74531 0.67074 0.61756 0.0
C615 C 0.74043 0.69039 0.65766 0.0
C616 C 0.72128 0.69832 0.66721 0.0
H617 H 0.80058 0.80348 0.87817 0.0
H618 H 0.7774 0.77326 0.82594 0.0
C619 C 0.70725 0.68728 0.63696 0.0
C620 C 0.75545 0.70503 0.68851 0.0
H621 H 0.77251 0.68359 0.78941 0.0
C622 C 0.76818 0.74202 0.67641 0.0
C623 C 0.75713 0.68341 0.72961 0.0
C624 C 0.74424 0.64243 0.74379 0.0
C625 C 0.78223 0.75892 0.70469 0.0
C626 C 0.78391 0.73738 0.7459 0.0
C627 C 0.77127 0.70003 0.75783 0.0
C628 C 0.7982 0.75437 0.77771 0.0
C629 C 0.79469 0.80088 0.69067 0.0
C630 C 0.81766 0.753 0.7684 0.0
C631 C 0.83088 0.77071 0.79812 0.0
C632 C 0.82484 0.78973 0.83763 0.0
C633 C 0.80548 0.78956 0.84754 0.0
C634 C 0.79228 0.77215 0.81784 0.0
H635 H 0.78843 0.82143 0.66334 0.0
H636 H 0.7972 0.82685 0.71752 0.0
H637 H 0.80855 0.7862 0.68008 0.0
H638 H 0.82261 0.73828 0.73815 0.0
H639 H 0.84579 0.76988 0.79021 0.0
H640 H 0.27972 0.64863 0.95135 0.0
H641 H 0.25528 0.66837 0.89865 0.0
H642 H 0.29808 0.71574 0.80933 0.0
H643 H 0.32266 0.69689 0.86214 0.0
H644 H 0.24863 0.76199 0.86223 0.0
H645 H 0.26465 0.6233 0.73693 0.0
H646 H 0.27337 0.61837 0.79126 0.0
H647 H 0.28451 0.65945 0.75394 0.0
C648 C 0.28399 0.66326 0.92052 0.0
C649 C 0.30322 0.67132 0.91116 0.0
C650 C 0.26998 0.67429 0.89034 0.0
C651 C 0.27484 0.69313 0.84991 0.0
C652 C 0.29401 0.70038 0.84004 0.0
H653 H 0.21392 0.80315 0.62895 0.0
H654 H 0.23735 0.77417 0.68117 0.0
C655 C 0.30806 0.68949 0.87029 0.0
C656 C 0.2598 0.70763 0.81906 0.0
H657 H 0.24238 0.68497 0.71869 0.0
C658 C 0.24716 0.74495 0.83094 0.0
C659 C 0.25796 0.68548 0.77823 0.0
C660 C 0.27072 0.64413 0.7643 0.0
C661 C 0.23305 0.7616 0.8027 0.0
C662 C 0.23119 0.73948 0.76178 0.0
C663 C 0.24375 0.70186 0.75006 0.0
C664 C 0.21677 0.75602 0.73009 0.0
C665 C 0.22067 0.80385 0.81647 0.0
C666 C 0.19735 0.75472 0.73984 0.0
C667 C 0.18398 0.77174 0.71013 0.0
C668 C 0.18983 0.79001 0.67019 0.0
C669 C 0.20916 0.78987 0.65991 0.0
C670 C 0.2225 0.77314 0.6896 0.0
H671 H 0.22706 0.82477 0.84341 0.0
H672 H 0.21807 0.82942 0.78936 0.0
H673 H 0.20685 0.78942 0.82753 0.0
H674 H 0.19254 0.7405 0.7704 0.0
H675 H 0.16911 0.77085 0.71833 0.0
H676 H 0.30431 0.73024 0.11959 0.0
H677 H 0.28007 0.75804 0.17051 0.0
H678 H 0.31801 0.72873 0.27584 0.0
H679 H 0.34232 0.70102 0.22467 0.0
H680 H 0.26409 0.7013 0.23721 0.0
H681 H 0.29858 0.86956 0.30004 0.0
H682 H 0.30583 0.84044 0.25062 0.0
H683 H 0.31294 0.81521 0.30137 0.0
C684 C 0.30749 0.73051 0.15362 0.0
C685 C 0.32515 0.71425 0.16844 0.0
C686 C 0.29367 0.74617 0.18262 0.0
C687 C 0.2973 0.74607 0.22694 0.0
C688 C 0.31503 0.73001 0.24176 0.0
H689 H 0.21808 0.74692 0.4381 0.0
H690 H 0.24218 0.72833 0.3843 0.0
C691 C 0.32886 0.71411 0.21267 0.0
C692 C 0.28217 0.76035 0.25759 0.0
H693 H 0.27071 0.8431 0.33582 0.0
C694 C 0.26551 0.7324 0.25867 0.0
C695 C 0.28395 0.80127 0.28521 0.0
C696 C 0.3012 0.83372 0.28418 0.0
C697 C 0.25078 0.7436 0.28728 0.0
C698 C 0.25279 0.7836 0.3158 0.0
C699 C 0.26925 0.81227 0.31408 0.0
C700 C 0.23813 0.79535 0.34835 0.0
C701 C 0.2331 0.71268 0.28665 0.0
C702 C 0.22799 0.83956 0.34633 0.0
C703 C 0.21416 0.85038 0.37717 0.0
C704 C 0.21043 0.81746 0.41092 0.0
C705 C 0.22072 0.77333 0.41282 0.0
C706 C 0.2344 0.76243 0.38189 0.0
H707 H 0.23189 0.69103 0.25656 0.0
H708 H 0.23345 0.68668 0.31404 0.0
H709 H 0.22031 0.73594 0.29008 0.0
H710 H 0.23071 0.86556 0.32077 0.0
H711 H 0.20662 0.88485 0.37501 0.0
H712 H 0.08598 0.19222 0.27829 0.0
H713 H 0.05228 0.1809 0.29067 0.0
H714 H 0.05037 0.07457 0.18789 0.0
H715 H 0.08351 0.09184 0.17157 0.0
H716 H 0.02174 0.11956 0.17987 0.0
H717 H 0.0231 0.08694 0.35341 0.0
H718 H 0.03348 0.14579 0.34478 0.0
H719 H 0.04466 0.09151 0.32299 0.0
C720 C 0.07822 0.16734 0.25774 0.0
C721 C 0.08718 0.14439 0.22295 0.0
C722 C 0.05899 0.1596 0.26568 0.0
C723 C 0.04852 0.12595 0.24097 0.0
C724 C 0.05786 0.10096 0.20752 0.0
H725 H 0.93167 0.09214 0.33339 0.0
H726 H 0.96486 0.07493 0.31749 0.0
C727 C 0.07689 0.11049 0.19834 0.0
C728 C 0.02767 0.1197 0.24788 0.0
H729 H 0.99355 0.1198 0.32537 0.0
C730 C 0.01569 0.11845 0.21182 0.0
C731 C 0.01937 0.1165 0.28929 0.0
C732 C 0.03091 0.10959 0.32962 0.0
C733 C 0.99592 0.11632 0.21596 0.0
C734 C 0.98762 0.11968 0.25735 0.0
C735 C 0.9996 0.11859 0.29342 0.0
C736 C 0.96677 0.12603 0.26419 0.0
C737 C 0.98439 0.10917 0.17564 0.0
C738 C 0.95634 0.15959 0.23928 0.0
C739 C 0.9371 0.16734 0.24702 0.0
C740 C 0.92808 0.14447 0.28178 0.0
C741 C 0.93834 0.11071 0.30663 0.0
C742 C 0.95739 0.1012 0.29768 0.0
H743 H 0.9922 0.08636 0.15197 0.0
H744 H 0.97064 0.09115 0.18234 0.0
H745 H 0.98182 0.14528 0.16028 0.0
H746 H 0.96308 0.1808 0.21428 0.0
H747 H 0.92936 0.19218 0.22636 0.0
H748 H 0.438 0.33802 0.65459 0.0
H749 H 0.47169 0.34737 0.67015 0.0
H750 H 0.45805 0.40068 0.79688 0.0
H751 H 0.42429 0.3891 0.78178 0.0
H752 H 0.49371 0.42327 0.69026 0.0
H753 H 0.49356 0.29185 0.82629 0.0
H754 H 0.47348 0.29944 0.79134 0.0
H755 H 0.47782 0.3426 0.83395 0.0
C756 C 0.44223 0.35208 0.6856 0.0
C757 C 0.42857 0.36351 0.71674 0.0
C758 C 0.46148 0.35742 0.69452 0.0
C759 C 0.46751 0.37404 0.73495 0.0
C760 C 0.45382 0.38679 0.76577 0.0
H761 H 0.58128 0.39669 0.8438 0.0
H762 H 0.54743 0.40815 0.82943 0.0
C763 C 0.43453 0.38093 0.75694 0.0
C764 C 0.4881 0.3768 0.74475 0.0
H765 H 0.52217 0.33363 0.81281 0.0
C766 C 0.49992 0.40373 0.71713 0.0
C767 C 0.49628 0.35118 0.77973 0.0
C768 C 0.48467 0.31926 0.80929 0.0
C769 C 0.51958 0.40576 0.7235 0.0
C770 C 0.52773 0.37986 0.75827 0.0
C771 C 0.51591 0.35369 0.78631 0.0
C772 C 0.54851 0.37746 0.76533 0.0
C773 C 0.53144 0.43576 0.693 0.0
C774 C 0.56042 0.35673 0.73408 0.0
C775 C 0.57971 0.35025 0.74235 0.0
C776 C 0.58736 0.36387 0.78216 0.0
C777 C 0.57561 0.38581 0.81296 0.0
C778 C 0.55633 0.3923 0.80474 0.0
H779 H 0.52287 0.46385 0.67601 0.0
H780 H 0.54318 0.45435 0.71017 0.0
H781 H 0.53766 0.41115 0.66842 0.0
H782 H 0.55469 0.34404 0.70382 0.0
H783 H 0.58857 0.3333 0.71818 0.0
H784 H 0.07264 0.94506 0.64423 0.0
H785 H 0.04223 0.95352 0.68125 0.0
H786 H 0.05127 0.81466 0.7442 0.0
H787 H 0.08178 0.80636 0.70795 0.0
H788 H 0.01138 0.88853 0.67523 0.0
H789 H 0.03614 0.90616 0.84348 0.0
H790 H 0.05156 0.91526 0.79795 0.0
H791 H 0.04581 0.85429 0.81557 0.0
C792 C 0.06831 0.91681 0.66663 0.0
C793 C 0.07966 0.87514 0.67335 0.0
C794 C 0.05089 0.92154 0.68751 0.0
C795 C 0.04458 0.885 0.71586 0.0
C796 C 0.05599 0.84369 0.72302 0.0
H797 H 0.93291 0.80682 0.80163 0.0
H798 H 0.96352 0.81443 0.76562 0.0
C799 C 0.07335 0.8388 0.70201 0.0
C800 C 0.02567 0.88867 0.73627 0.0
H801 H 1.0033 0.88977 0.83347 0.0
C802 C 0.0096 0.88924 0.70982 0.0
C803 C 0.02339 0.89012 0.78138 0.0
C804 C 0.04013 0.8919 0.81131 0.0
C805 C 0.9913 0.88955 0.72732 0.0
C806 C 0.98901 0.88879 0.77244 0.0
C807 C 1.00508 0.88992 0.79888 0.0
C808 C 0.9701 0.88537 0.79287 0.0
C809 C 0.97455 0.89071 0.69737 0.0
C810 C 0.96372 0.92245 0.82057 0.0
C811 C 0.94625 0.91814 0.84129 0.0
C812 C 0.93492 0.87635 0.83506 0.0
C813 C 0.94133 0.83938 0.80715 0.0
C814 C 0.95874 0.84386 0.78628 0.0
H815 H 0.97853 0.90438 0.66499 0.0
H816 H 0.96889 0.853 0.69368 0.0
H817 H 0.96311 0.91428 0.7104 0.0
H818 H 0.97235 0.95459 0.82638 0.0
H819 H 0.94185 0.94684 0.86315 0.0
H820 H 0.43382 0.6974 0.20495 0.0
H821 H 0.46457 0.6894 0.24031 0.0
H822 H 0.47204 0.54692 0.18282 0.0
H823 H 0.44143 0.55502 0.14668 0.0
H824 H 0.47823 0.6155 0.29774 0.0
H825 H 0.5197 0.62476 0.14617 0.0
H826 H 0.49518 0.64277 0.14904 0.0
H827 H 0.50144 0.579 0.14801 0.0
C828 C 0.44201 0.66436 0.19983 0.0
C829 C 0.43522 0.62693 0.17289 0.0
C830 C 0.45953 0.65975 0.2202 0.0
C831 C 0.47068 0.61785 0.21377 0.0
C832 C 0.46376 0.57983 0.18779 0.0
H833 H 0.57321 0.55327 0.36231 0.0
H834 H 0.54253 0.54618 0.3263 0.0
C835 C 0.44618 0.58431 0.16753 0.0
C836 C 0.48968 0.61463 0.23374 0.0
H837 H 0.53687 0.61343 0.21038 0.0
C838 C 0.49106 0.61473 0.2787 0.0
C839 C 0.50638 0.61407 0.20874 0.0
C840 C 0.50573 0.61551 0.16031 0.0
C841 C 0.50872 0.61455 0.29939 0.0
C842 C 0.52542 0.61392 0.27439 0.0
C843 C 0.52403 0.61356 0.22943 0.0
C844 C 0.54444 0.61644 0.29432 0.0
C845 C 0.50937 0.61654 0.3478 0.0
C846 C 0.55594 0.65757 0.28723 0.0
C847 C 0.57349 0.66159 0.30751 0.0
C848 C 0.57999 0.62431 0.33501 0.0
C849 C 0.56869 0.58241 0.34102 0.0
C850 C 0.55107 0.57853 0.32084 0.0
H851 H 0.49549 0.62681 0.36184 0.0
H852 H 0.51333 0.57991 0.36047 0.0
H853 H 0.52017 0.64327 0.35883 0.0
H854 H 0.55113 0.68711 0.26669 0.0
H855 H 0.58195 0.69406 0.30188 0.0
H856 H 0.05558 0.13608 0.10966 0.0
H857 H 0.02443 0.09897 0.09903 0.0
H858 H 0.04757 0.00486 1.00092 0.0
H859 H 0.07886 0.04088 0.01239 0.0
H860 H 1.00116 0.09437 0.03257 0.0
H861 H 0.02228 0.90501 0.07521 0.0
H862 H 0.03755 0.95695 0.08402 0.0
H863 H 0.03593 0.92928 0.03164 0.0
C864 C 0.05399 0.1077 0.08561 0.0
C865 C 0.0697 0.09126 0.06195 0.0
C866 C 0.03619 0.08633 0.0797 0.0
C867 C 0.03367 0.04822 0.04988 0.0
C868 C 0.04922 0.03301 0.02512 0.0
H869 H 0.93472 0.88983 0.95667 0.0
H870 H 0.96647 0.92466 0.96744 0.0
C871 C 0.06708 0.0539 0.03144 0.0
C872 C 0.01474 0.02497 0.04436 0.0
H873 H 0.9917 0.91463 0.04427 0.0
C874 C 0.99911 0.0551 0.03538 0.0
C875 C 0.01196 0.97366 0.04824 0.0
C876 C 0.02778 0.9394 0.06075 0.0
C877 C 0.98095 0.03533 0.02935 0.0
C878 C 0.97828 0.98408 0.03251 0.0
C879 C 0.99383 0.95389 0.04155 0.0
C880 C 0.95937 0.9613 0.02693 0.0
C881 C 0.96475 0.0693 0.01901 0.0
C882 C 0.94504 0.96942 0.05729 0.0
C883 C 0.92703 0.94931 0.05132 0.0
C884 C 0.92305 0.92109 0.01473 0.0
C885 C 0.93751 0.91171 0.985 0.0
C886 C 0.95557 0.93161 0.9911 0.0
H887 H 0.96973 0.10637 0.0095 0.0
H888 H 0.95596 0.054 0.99268 0.0
H889 H 0.95562 0.0732 0.04778 0.0
H890 H 0.94776 0.99155 0.08549 0.0
H891 H 0.91613 0.95629 0.07495 0.0
H892 H 0.59004 0.59065 0.58007 0.0
H893 H 0.5583 0.55539 0.58856 0.0
H894 H 0.55576 0.52821 0.4522 0.0
H895 H 0.58734 0.5643 0.44375 0.0
H896 H 0.52258 0.56823 0.48422 0.0
H897 H 0.54529 0.40985 0.58354 0.0
H898 H 0.55231 0.46832 0.60466 0.0
H899 H 0.56183 0.44761 0.55431 0.0
C900 C 0.58253 0.57772 0.55195 0.0
C901 C 0.5909 0.58074 0.51118 0.0
C902 C 0.56454 0.55702 0.55684 0.0
C903 C 0.55473 0.53844 0.5211 0.0
C904 C 0.56305 0.54209 0.48026 0.0
H905 H 0.45278 0.35629 0.51583 0.0
H906 H 0.48447 0.39003 0.50383 0.0
C907 C 0.58104 0.56272 0.47541 0.0
C908 C 0.53575 0.51558 0.52617 0.0
H909 H 0.51214 0.42251 0.5767 0.0
C910 C 0.52033 0.53625 0.50429 0.0
C911 C 0.53283 0.47347 0.55201 0.0
C912 C 0.54895 0.44815 0.57468 0.0
C913 C 0.50202 0.51672 0.50838 0.0
C914 C 0.49905 0.47553 0.53509 0.0
C915 C 0.51448 0.45421 0.55633 0.0
C916 C 0.47988 0.45497 0.54219 0.0
C917 C 0.48592 0.54015 0.48417 0.0
C918 C 0.46689 0.48011 0.56804 0.0
C919 C 0.44889 0.46073 0.57544 0.0
C920 C 0.44335 0.41583 0.55685 0.0
C921 C 0.45649 0.39071 0.53092 0.0
C922 C 0.4746 0.41002 0.52384 0.0
H923 H 0.49098 0.56673 0.45969 0.0
H924 H 0.47725 0.51167 0.46802 0.0
H925 H 0.47665 0.55986 0.50713 0.0
H926 H 0.47078 0.51453 0.58296 0.0
H927 H 0.43946 0.48059 0.59658 0.0
H928 H 0.42421 0.58712 0.92782 0.0
H929 H 0.45582 0.55101 0.91921 0.0
H930 H 0.45974 0.53157 0.05642 0.0
H931 H 0.42823 0.56824 0.06492 0.0
H932 H 0.49263 0.57069 0.01994 0.0
H933 H 0.46897 0.40528 0.93122 0.0
H934 H 0.46144 0.46208 0.90763 0.0
H935 H 0.45276 0.44472 0.95972 0.0
C936 C 0.43197 0.57555 0.95604 0.0
C937 C 0.42402 0.58088 0.99705 0.0
C938 C 0.44989 0.55446 0.95113 0.0
C939 C 0.46006 0.53792 0.98712 0.0
C940 C 0.45215 0.54385 0.02818 0.0
H941 H 0.56195 0.35496 0.98734 0.0
H942 H 0.53044 0.38886 1.00126 0.0
C943 C 0.43421 0.56479 0.03305 0.0
C944 C 0.47902 0.51494 0.98202 0.0
H945 H 0.50216 0.41899 0.93468 0.0
C946 C 0.49469 0.53742 1.00145 0.0
C947 C 0.48169 0.47115 0.95833 0.0
C948 C 0.46532 0.44405 0.93834 0.0
C949 C 0.51301 0.51805 0.99683 0.0
C950 C 0.51574 0.47521 0.97202 0.0
C951 C 0.50003 0.452 0.95349 0.0
C952 C 0.53488 0.45474 0.964 0.0
C953 C 0.52934 0.54345 0.01857 0.0
C954 C 0.54772 0.48027 0.93804 0.0
C955 C 0.56562 0.4608 0.92956 0.0
C956 C 0.57119 0.41537 0.94709 0.0
C957 C 0.5582 0.38982 0.97307 0.0
C958 C 0.54019 0.40923 0.98125 0.0
H959 H 0.52449 0.56978 0.04346 0.0
H960 H 0.53893 0.51626 0.03375 0.0
H961 H 0.5376 0.564 0.9942 0.0
H962 H 0.54379 0.51503 0.92377 0.0
H963 H 0.57494 0.48099 0.9084 0.0
H964 H 0.09051 0.90293 0.42469 0.0
H965 H 0.05931 0.94034 0.41311 0.0
H966 H 0.05505 0.97079 0.5487 0.0
H967 H 0.08626 0.93361 0.56012 0.0
H968 H 0.02396 0.91686 0.44727 0.0
H969 H 0.04547 0.10501 0.49381 0.0
H970 H 0.06237 0.05706 0.48272 0.0
H971 H 0.05053 0.05937 0.53377 0.0
C972 C 0.08273 0.91704 0.45198 0.0
C973 C 0.09055 0.91489 0.49335 0.0
C974 C 0.065 0.93861 0.44536 0.0
C975 C 0.05492 0.95896 0.47994 0.0
C976 C 0.06268 0.95617 0.52141 0.0
H977 H 0.93559 0.03534 0.48693 0.0
H978 H 0.96688 0.99905 0.49767 0.0
C979 C 0.0804 0.93463 0.52799 0.0
C980 C 0.03629 0.98292 0.47261 0.0
H981 H 0.01256 0.0914 0.48387 0.0
C982 C 0.02148 0.95504 0.4552 0.0
C983 C 0.03313 0.03299 0.48226 0.0
C984 C 0.04875 0.06558 0.49879 0.0
C985 C 1.00351 0.97552 0.4481 0.0
C986 C 1.00014 0.02507 0.45934 0.0
C987 C 0.01507 0.05328 0.47578 0.0
C988 C 0.98123 0.04829 0.45402 0.0
C989 C 0.98836 0.94411 0.42797 0.0
C990 C 0.97897 0.08914 0.42705 0.0
C991 C 0.9611 0.11018 0.42106 0.0
C992 C 0.94511 0.09089 0.44205 0.0
C993 C 0.94754 0.05071 0.46986 0.0
C994 C 0.96541 0.02981 0.47592 0.0
H995 H 0.99446 0.912 0.41095 0.0
H996 H 0.97883 0.93015 0.45349 0.0
H997 H 0.97975 0.96562 0.40486 0.0
H998 H 0.99097 0.1041 0.40988 0.0
H999 H 0.95971 0.14061 0.39893 0.0
loop_
_geom_bond_atom_site_label_1
_geom_bond_atom_site_label_2
_geom_bond_distance
_geom_bond_site_symmetry_2
_ccdc_geom_bond_type
C0 C1 1.443 . S
C0 N4 1.376 . S
C0 C38 1.389 . S
C1 C0 1.443 . S
C1 C2 1.340 . S
C1 H41 0.951 . S
C2 C1 1.340 . S
C2 C3 1.439 . S
C2 H42 0.950 . S
C3 C2 1.439 . S
C3 N4 1.374 . S
C3 C37 1.395 . S
N4 C0 1.376 . S
N4 C3 1.374 . S
N4 Co5 2.008 . S
Co5 N4 2.008 . S
Co5 N6 1.995 . S
Co5 N11 2.008 . S
Co5 N16 1.995 . S
Co5 N21 2.282 . S
Co5 N27 2.282 . S
N6 Co5 1.995 . S
N6 C7 1.376 . S
N6 C10 1.383 . S
C7 N6 1.376 . S
C7 C8 1.446 . S
C7 C37 1.391 . S
C8 C7 1.446 . S
C8 C9 1.339 . S
C8 H43 0.949 . S
C9 C8 1.339 . S
C9 C10 1.439 . S
C9 H44 0.950 . S
C10 N6 1.383 . S
C10 C9 1.439 . S
C10 C39 1.392 . S
N11 Co5 2.008 . S
N11 C12 1.376 . S
N11 C15 1.374 . S
C12 N11 1.376 . S
C12 C13 1.443 . S
C12 C39 1.389 . S
C13 C12 1.443 . S
C13 C14 1.340 . S
C13 H45 0.951 . S
C14 C13 1.340 . S
C14 C15 1.439 . S
C14 H46 0.950 . S
C15 N11 1.374 . S
C15 C14 1.439 . S
C15 C40 1.395 . S
N16 Co5 1.995 . S
N16 C17 1.376 . S
N16 C20 1.383 . S
C17 N16 1.376 . S
C17 C18 1.446 . S
C17 C40 1.391 . S
C18 C17 1.446 . S
C18 C19 1.339 . S
C18 H47 0.949 . S
C19 C18 1.339 . S
C19 C20 1.439 . S
C19 H48 0.950 . S
C20 N16 1.383 . S
C20 C19 1.439 . S
C20 C38 1.392 . S
N21 Co5 2.282 . S
N21 C24 1.332 . S
N21 C26 1.332 . S
C22 C23 1.386 . S
C22 C25 1.388 . S
C23 C22 1.386 . S
C23 C24 1.382 . S
C23 H49 0.950 . S
C24 N21 1.332 . S
C24 C23 1.382 . S
C24 H35 0.952 . S
C25 C22 1.388 . S
C25 C26 1.382 . S
C25 H50 0.950 . S
C26 N21 1.332 . S
C26 C25 1.382 . S
C26 H36 0.948 . S
N27 Co5 2.282 . S
N27 C31 1.332 . S
N27 C32 1.332 . S
C28 C29 1.388 . S
C28 C32 1.382 . S
C28 H51 0.950 . S
C29 C28 1.388 . S
C29 C30 1.386 . S
C30 C29 1.386 . S
C30 C31 1.382 . S
C30 H52 0.950 . S
C31 N27 1.332 . S
C31 C30 1.382 . S
C31 H33 0.952 . S
C32 N27 1.332 . S
C32 C28 1.382 . S
C32 H34 0.948 . S
H33 C31 0.952 . S
H34 C32 0.948 . S
H35 C24 0.952 . S
H36 C26 0.948 . S
C37 C3 1.395 . S
C37 C7 1.391 . S
C38 C0 1.389 . S
C38 C20 1.392 . S
C39 C10 1.392 . S
C39 C12 1.389 . S
C40 C15 1.395 . S
C40 C17 1.391 . S
H41 C1 0.951 . S
H42 C2 0.950 . S
H43 C8 0.949 . S
H44 C9 0.950 . S
H45 C13 0.951 . S
H46 C14 0.950 . S
H47 C18 0.949 . S
H48 C19 0.950 . S
H49 C23 0.950 . S
H50 C25 0.950 . S
H51 C28 0.950 . S
H52 C30 0.950 . S
C53 C54 1.443 . S
C53 N57 1.376 . S
C53 C91 1.389 . S
C54 C53 1.443 . S
C54 C55 1.340 . S
C54 H94 0.951 . S
C55 C54 1.340 . S
C55 C56 1.439 . S
C55 H95 0.950 . S
C56 C55 1.439 . S
C56 N57 1.374 . S
C56 C90 1.395 . S
N57 C53 1.376 . S
N57 C56 1.374 . S
N57 Co58 2.008 . S
Co58 N57 2.008 . S
Co58 N59 1.995 . S
Co58 N64 2.008 . S
Co58 N69 1.995 . S
Co58 N74 2.282 . S
Co58 N80 2.282 . S
N59 Co58 1.995 . S
N59 C60 1.376 . S
N59 C63 1.383 . S
C60 N59 1.376 . S
C60 C61 1.446 . S
C60 C90 1.391 . S
C61 C60 1.446 . S
C61 C62 1.339 . S
C61 H96 0.949 . S
C62 C61 1.339 . S
C62 C63 1.439 . S
C62 H97 0.950 . S
C63 N59 1.383 . S
C63 C62 1.439 . S
C63 C92 1.392 . S
N64 Co58 2.008 . S
N64 C65 1.376 . S
N64 C68 1.374 . S
C65 N64 1.376 . S
C65 C66 1.443 . S
C65 C92 1.389 . S
C66 C65 1.443 . S
C66 C67 1.340 . S
C66 H98 0.951 . S
C67 C66 1.340 . S
C67 C68 1.439 . S
C67 H99 0.950 . S
C68 N64 1.374 . S
C68 C67 1.439 . S
C68 C93 1.395 . S
N69 Co58 1.995 . S
N69 C70 1.376 . S
N69 C73 1.383 . S
C70 N69 1.376 . S
C70 C71 1.446 . S
C70 C93 1.391 . S
C71 C70 1.446 . S
C71 C72 1.339 . S
C71 H100 0.949 . S
C72 C71 1.339 . S
C72 C73 1.439 . S
C72 H101 0.950 . S
C73 N69 1.383 . S
C73 C72 1.439 . S
C73 C91 1.392 . S
N74 Co58 2.282 . S
N74 C77 1.332 . S
N74 C79 1.332 . S
C75 C76 1.386 . S
C75 C78 1.388 . S
C76 C75 1.386 . S
C76 C77 1.382 . S
C76 H102 0.950 . S
C77 N74 1.332 . S
C77 C76 1.382 . S
C77 H88 0.952 . S
C78 C75 1.388 . S
C78 C79 1.382 . S
C78 H103 0.950 . S
C79 N74 1.332 . S
C79 C78 1.382 . S
C79 H89 0.948 . S
N80 Co58 2.282 . S
N80 C84 1.332 . S
N80 C85 1.332 . S
C81 C82 1.388 . S
C81 C85 1.382 . S
C81 H104 0.950 . S
C82 C81 1.388 . S
C82 C83 1.386 . S
C83 C82 1.386 . S
C83 C84 1.382 . S
C83 H105 0.950 . S
C84 N80 1.332 . S
C84 C83 1.382 . S
C84 H86 0.952 . S
C85 N80 1.332 . S
C85 C81 1.382 . S
C85 H87 0.948 . S
H86 C84 0.952 . S
H87 C85 0.948 . S
H88 C77 0.952 . S
H89 C79 0.948 . S
C90 C56 1.395 . S
C90 C60 1.391 . S
C91 C53 1.389 . S
C91 C73 1.392 . S
C92 C63 1.392 . S
C92 C65 1.389 . S
C93 C68 1.395 . S
C93 C70 1.391 . S
H94 C54 0.951 . S
H95 C55 0.950 . S
H96 C61 0.949 . S
H97 C62 0.950 . S
H98 C66 0.951 . S
H99 C67 0.950 . S
H100 C71 0.949 . S
H101 C72 0.950 . S
H102 C76 0.950 . S
H103 C78 0.950 . S
H104 C81 0.950 . S
H105 C83 0.950 . S
C106 C107 1.443 . S
C106 N110 1.376 . S
C106 C144 1.389 . S
C107 C106 1.443 . S
C107 C108 1.340 . S
C107 H147 0.951 . S
C108 C107 1.340 . S
C108 C109 1.439 . S
C108 H148 0.950 . S
C109 C108 1.439 . S
C109 N110 1.374 . S
C109 C143 1.395 . S
N110 C106 1.376 . S
N110 C109 1.374 . S
N110 Co111 2.008 . S
Co111 N110 2.008 . S
Co111 N112 1.995 . S
Co111 N117 2.008 . S
Co111 N122 1.995 . S
Co111 N127 2.282 . S
Co111 N133 2.282 . S
N112 Co111 1.995 . S
N112 C113 1.376 . S
N112 C116 1.383 . S
C113 N112 1.376 . S
C113 C114 1.446 . S
C113 C143 1.391 . S
C114 C113 1.446 . S
C114 C115 1.339 . S
C114 H149 0.949 . S
C115 C114 1.339 . S
C115 C116 1.439 . S
C115 H150 0.950 . S
C116 N112 1.383 . S
C116 C115 1.439 . S
C116 C145 1.392 . S
N117 Co111 2.008 . S
N117 C118 1.376 . S
N117 C121 1.374 . S
C118 N117 1.376 . S
C118 C119 1.443 . S
C118 C145 1.389 . S
C119 C118 1.443 . S
C119 C120 1.340 . S
C119 H151 0.951 . S
C120 C119 1.340 . S
C120 C121 1.439 . S
C120 H152 0.950 . S
C121 N117 1.374 . S
C121 C120 1.439 . S
C121 C146 1.395 . S
N122 Co111 1.995 . S
N122 C123 1.376 . S
N122 C126 1.383 . S
C123 N122 1.376 . S
C123 C124 1.446 . S
C123 C146 1.391 . S
C124 C123 1.446 . S
C124 C125 1.339 . S
C124 H153 0.949 . S
C125 C124 1.339 . S
C125 C126 1.439 . S
C125 H154 0.950 . S
C126 N122 1.383 . S
C126 C125 1.439 . S
C126 C144 1.392 . S
N127 Co111 2.282 . S
N127 C130 1.332 . S
N127 C132 1.332 . S
C128 C129 1.386 . S
C128 C131 1.388 . S
C129 C128 1.386 . S
C129 C130 1.382 . S
C129 H155 0.950 . S
C130 N127 1.332 . S
C130 C129 1.382 . S
C130 H141 0.952 . S
C131 C128 1.388 . S
C131 C132 1.382 . S
C131 H156 0.950 . S
C132 N127 1.332 . S
C132 C131 1.382 . S
C132 H142 0.948 . S
N133 Co111 2.282 . S
N133 C137 1.332 . S
N133 C138 1.332 . S
C134 C135 1.388 . S
C134 C138 1.382 . S
C134 H157 0.950 . S
C135 C134 1.388 . S
C135 C136 1.386 . S
C136 C135 1.386 . S
C136 C137 1.382 . S
C136 H158 0.950 . S
C137 N133 1.332 . S
C137 C136 1.382 . S
C137 H139 0.952 . S
C138 N133 1.332 . S
C138 C134 1.382 . S
C138 H140 0.948 . S
H139 C137 0.952 . S
H140 C138 0.948 . S
H141 C130 0.952 . S
H142 C132 0.948 . S
C143 C109 1.395 . S
C143 C113 1.391 . S
C144 C106 1.389 . S
C144 C126 1.392 . S
C145 C116 1.392 . S
C145 C118 1.389 . S
C146 C121 1.395 . S
C146 C123 1.391 . S
H147 C107 0.951 . S
H148 C108 0.950 . S
H149 C114 0.949 . S
H150 C115 0.950 . S
H151 C119 0.951 . S
H152 C120 0.950 . S
H153 C124 0.949 . S
H154 C125 0.950 . S
H155 C129 0.950 . S
H156 C131 0.950 . S
H157 C134 0.950 . S
H158 C136 0.950 . S
C159 C160 1.443 . S
C159 N163 1.376 . S
C159 C197 1.389 . S
C160 C159 1.443 . S
C160 C161 1.340 . S
C160 H200 0.951 . S
C161 C160 1.340 . S
C161 C162 1.439 . S
C161 H201 0.950 . S
C162 C161 1.439 . S
C162 N163 1.374 . S
C162 C196 1.395 . S
N163 C159 1.376 . S
N163 C162 1.374 . S
N163 Co164 2.008 . S
Co164 N163 2.008 . S
Co164 N165 1.995 . S
Co164 N170 2.008 . S
Co164 N175 1.995 . S
Co164 N180 2.282 . S
Co164 N186 2.282 . S
N165 Co164 1.995 . S
N165 C166 1.376 . S
N165 C169 1.383 . S
C166 N165 1.376 . S
C166 C167 1.446 . S
C166 C196 1.391 . S
C167 C166 1.446 . S
C167 C168 1.339 . S
C167 H202 0.949 . S
C168 C167 1.339 . S
C168 C169 1.439 . S
C168 H203 0.950 . S
C169 N165 1.383 . S
C169 C168 1.439 . S
C169 C198 1.392 . S
N170 Co164 2.008 . S
N170 C171 1.376 . S
N170 C174 1.374 . S
C171 N170 1.376 . S
C171 C172 1.443 . S
C171 C198 1.389 . S
C172 C171 1.443 . S
C172 C173 1.340 . S
C172 H204 0.951 . S
C173 C172 1.340 . S
C173 C174 1.439 . S
C173 H205 0.950 . S
C174 N170 1.374 . S
C174 C173 1.439 . S
C174 C199 1.395 . S
N175 Co164 1.995 . S
N175 C176 1.376 . S
N175 C179 1.383 . S
C176 N175 1.376 . S
C176 C177 1.446 . S
C176 C199 1.391 . S
C177 C176 1.446 . S
C177 C178 1.339 . S
C177 H206 0.949 . S
C178 C177 1.339 . S
C178 C179 1.439 . S
C178 H207 0.950 . S
C179 N175 1.383 . S
C179 C178 1.439 . S
C179 C197 1.392 . S
N180 Co164 2.282 . S
N180 C183 1.332 . S
N180 C185 1.332 . S
C181 C182 1.386 . S
C181 C184 1.388 . S
C182 C181 1.386 . S
C182 C183 1.382 . S
C182 H208 0.950 . S
C183 N180 1.332 . S
C183 C182 1.382 . S
C183 H194 0.952 . S
C184 C181 1.388 . S
C184 C185 1.382 . S
C184 H209 0.950 . S
C185 N180 1.332 . S
C185 C184 1.382 . S
C185 H195 0.948 . S
N186 Co164 2.282 . S
N186 C190 1.332 . S
N186 C191 1.332 . S
C187 C188 1.388 . S
C187 C191 1.382 . S
C187 H210 0.950 . S
C188 C187 1.388 . S
C188 C189 1.386 . S
C189 C188 1.386 . S
C189 C190 1.382 . S
C189 H211 0.950 . S
C190 N186 1.332 . S
C190 C189 1.382 . S
C190 H192 0.952 . S
C191 N186 1.332 . S
C191 C187 1.382 . S
C191 H193 0.948 . S
H192 C190 0.952 . S
H193 C191 0.948 . S
H194 C183 0.952 . S
H195 C185 0.948 . S
C196 C162 1.395 . S
C196 C166 1.391 . S
C197 C159 1.389 . S
C197 C179 1.392 . S
C198 C169 1.392 . S
C198 C171 1.389 . S
C199 C174 1.395 . S
C199 C176 1.391 . S
H200 C160 0.951 . S
H201 C161 0.950 . S
H202 C167 0.949 . S
H203 C168 0.950 . S
H204 C172 0.951 . S
H205 C173 0.950 . S
H206 C177 0.949 . S
H207 C178 0.950 . S
H208 C182 0.950 . S
H209 C184 0.950 . S
H210 C187 0.950 . S
H211 C189 0.950 . S
C212 C213 1.443 . S
C212 N216 1.376 . S
C212 C250 1.389 . S
C213 C212 1.443 . S
C213 C214 1.340 . S
C213 H253 0.951 . S
C214 C213 1.340 . S
C214 C215 1.439 . S
C214 H254 0.950 . S
C215 C214 1.439 . S
C215 N216 1.374 . S
C215 C249 1.395 . S
N216 C212 1.376 . S
N216 C215 1.374 . S
N216 Co217 2.008 . S
Co217 N216 2.008 . S
Co217 N218 1.995 . S
Co217 N223 2.008 . S
Co217 N228 1.995 . S
Co217 N233 2.282 . S
Co217 N239 2.282 . S
N218 Co217 1.995 . S
N218 C219 1.376 . S
N218 C222 1.383 . S
C219 N218 1.376 . S
C219 C220 1.446 . S
C219 C249 1.391 . S
C220 C219 1.446 . S
C220 C221 1.339 . S
C220 H255 0.949 . S
C221 C220 1.339 . S
C221 C222 1.439 . S
C221 H256 0.950 . S
C222 N218 1.383 . S
C222 C221 1.439 . S
C222 C251 1.392 . S
N223 Co217 2.008 . S
N223 C224 1.376 . S
N223 C227 1.374 . S
C224 N223 1.376 . S
C224 C225 1.443 . S
C224 C251 1.389 . S
C225 C224 1.443 . S
C225 C226 1.340 . S
C225 H257 0.951 . S
C226 C225 1.340 . S
C226 C227 1.439 . S
C226 H258 0.950 . S
C227 N223 1.374 . S
C227 C226 1.439 . S
C227 C252 1.395 . S
N228 Co217 1.995 . S
N228 C229 1.376 . S
N228 C232 1.390 . S
C229 N228 1.376 . S
C229 C230 1.446 1_556 S
C229 C252 1.391 . S
C230 C229 1.446 1_554 S
C230 C231 1.339 . S
C230 H259 0.949 . S
C231 C230 1.339 . S
C231 C232 1.430 1_554 S
C231 H260 0.950 . S
C232 N228 1.390 . S
C232 C231 1.430 1_556 S
C232 C250 1.393 . S
N233 Co217 2.282 . S
N233 C236 1.332 1_556 S
N233 C238 1.332 . S
C234 C235 1.386 . S
C234 C237 1.388 . S
C235 C234 1.386 . S
C235 C236 1.382 . S
C235 H261 0.950 . S
C236 N233 1.332 1_554 S
C236 C235 1.382 . S
C236 H247 0.952 . S
C237 C234 1.388 . S
C237 C238 1.382 1_554 S
C237 H262 0.950 . S
C238 N233 1.332 . S
C238 C237 1.382 1_556 S
C238 H248 0.948 . S
N239 Co217 2.282 . S
N239 C243 1.332 . S
N239 C244 1.332 . S
C240 C241 1.388 . S
C240 C244 1.382 . S
C240 H263 0.950 . S
C241 C240 1.388 . S
C241 C242 1.386 . S
C242 C241 1.386 . S
C242 C243 1.382 . S
C242 H264 0.950 . S
C243 N239 1.332 . S
C243 C242 1.382 . S
C243 H245 0.952 . S
C244 N239 1.332 . S
C244 C240 1.382 . S
C244 H246 0.948 . S
H245 C243 0.952 . S
H246 C244 0.948 . S
H247 C236 0.952 . S
H248 C238 0.948 . S
C249 C215 1.395 . S
C249 C219 1.391 . S
C250 C212 1.389 . S
C250 C232 1.393 . S
C251 C222 1.392 . S
C251 C224 1.389 . S
C252 C227 1.395 . S
C252 C229 1.391 . S
H253 C213 0.951 . S
H254 C214 0.950 . S
H255 C220 0.949 . S
H256 C221 0.950 . S
H257 C225 0.951 . S
H258 C226 0.950 . S
H259 C230 0.949 . S
H260 C231 0.950 . S
H261 C235 0.950 . S
H262 C237 0.950 . S
H263 C240 0.950 . S
H264 C242 0.950 . S
C265 C266 1.443 . S
C265 N269 1.376 . S
C265 C303 1.389 . S
C266 C265 1.443 . S
C266 C267 1.340 . S
C266 H306 0.951 . S
C267 C266 1.340 . S
C267 C268 1.439 . S
C267 H307 0.950 . S
C268 C267 1.439 . S
C268 N269 1.374 . S
C268 C302 1.395 . S
N269 C265 1.376 . S
N269 C268 1.374 . S
N269 Co270 2.008 . S
Co270 N269 2.008 . S
Co270 N271 1.995 . S
Co270 N276 2.008 . S
Co270 N281 1.995 . S
Co270 N286 2.282 . S
Co270 N292 2.282 . S
N271 Co270 1.995 . S
N271 C272 1.376 . S
N271 C275 1.383 . S
C272 N271 1.376 . S
C272 C273 1.446 . S
C272 C302 1.391 . S
C273 C272 1.446 . S
C273 C274 1.339 . S
C273 H308 0.949 . S
C274 C273 1.339 . S
C274 C275 1.439 . S
C274 H309 0.950 . S
C275 N271 1.383 . S
C275 C274 1.439 . S
C275 C304 1.392 . S
N276 Co270 2.008 . S
N276 C277 1.376 . S
N276 C280 1.374 . S
C277 N276 1.376 . S
C277 C278 1.443 . S
C277 C304 1.389 . S
C278 C277 1.443 . S
C278 C279 1.340 . S
C278 H310 0.951 . S
C279 C278 1.340 . S
C279 C280 1.439 . S
C279 H311 0.950 . S
C280 N276 1.374 . S
C280 C279 1.439 . S
C280 C305 1.395 . S
N281 Co270 1.995 . S
N281 C282 1.376 . S
N281 C285 1.383 . S
C282 N281 1.376 . S
C282 C283 1.446 . S
C282 C305 1.391 . S
C283 C282 1.446 . S
C283 C284 1.339 . S
C283 H312 0.949 . S
C284 C283 1.339 . S
C284 C285 1.439 . S
C284 H313 0.950 . S
C285 N281 1.383 . S
C285 C284 1.439 . S
C285 C303 1.392 . S
N286 Co270 2.282 . S
N286 C289 1.332 . S
N286 C291 1.332 . S
C287 C288 1.386 . S
C287 C290 1.388 . S
C288 C287 1.386 . S
C288 C289 1.382 . S
C288 H314 0.950 . S
C289 N286 1.332 . S
C289 C288 1.382 . S
C289 H300 0.952 . S
C290 C287 1.388 . S
C290 C291 1.382 . S
C290 H315 0.950 . S
C291 N286 1.332 . S
C291 C290 1.382 . S
C291 H301 0.948 . S
N292 Co270 2.282 . S
N292 C296 1.332 . S
N292 C297 1.332 . S
C293 C294 1.388 . S
C293 C297 1.382 . S
C293 H316 0.950 . S
C294 C293 1.388 . S
C294 C295 1.386 . S
C295 C294 1.386 . S
C295 C296 1.382 . S
C295 H317 0.950 . S
C296 N292 1.332 . S
C296 C295 1.382 . S
C296 H298 0.952 . S
C297 N292 1.332 . S
C297 C293 1.382 . S
C297 H299 0.948 . S
H298 C296 0.952 . S
H299 C297 0.948 . S
H300 C289 0.952 . S
H301 C291 0.948 . S
C302 C268 1.395 . S
C302 C272 1.391 . S
C303 C265 1.389 . S
C303 C285 1.392 . S
C304 C275 1.392 . S
C304 C277 1.389 . S
C305 C280 1.395 . S
C305 C282 1.391 . S
H306 C266 0.951 . S
H307 C267 0.950 . S
H308 C273 0.949 . S
H309 C274 0.950 . S
H310 C278 0.951 . S
H311 C279 0.950 . S
H312 C283 0.949 . S
H313 C284 0.950 . S
H314 C288 0.950 . S
H315 C290 0.950 . S
H316 C293 0.950 . S
H317 C295 0.950 . S
C318 C319 1.443 . S
C318 N322 1.376 . S
C318 C356 1.389 . S
C319 C318 1.443 . S
C319 C320 1.340 . S
C319 H359 0.951 . S
C320 C319 1.340 . S
C320 C321 1.439 . S
C320 H360 0.950 . S
C321 C320 1.439 . S
C321 N322 1.374 . S
C321 C355 1.395 . S
N322 C318 1.376 . S
N322 C321 1.374 . S
N322 Co323 2.008 . S
Co323 N322 2.008 . S
Co323 N324 1.995 . S
Co323 N329 2.008 . S
Co323 N334 1.995 . S
Co323 N339 2.282 . S
Co323 N345 2.282 . S
N324 Co323 1.995 . S
N324 C325 1.376 . S
N324 C328 1.383 . S
C325 N324 1.376 . S
C325 C326 1.446 . S
C325 C355 1.391 . S
C326 C325 1.446 . S
C326 C327 1.339 . S
C326 H361 0.949 . S
C327 C326 1.339 . S
C327 C328 1.439 . S
C327 H362 0.950 . S
C328 N324 1.383 . S
C328 C327 1.439 . S
C328 C357 1.392 . S
N329 Co323 2.008 . S
N329 C330 1.376 . S
N329 C333 1.374 . S
C330 N329 1.376 . S
C330 C331 1.443 . S
C330 C357 1.389 . S
C331 C330 1.443 . S
C331 C332 1.340 . S
C331 H363 0.951 . S
C332 C331 1.340 . S
C332 C333 1.439 . S
C332 H364 0.950 . S
C333 N329 1.374 . S
C333 C332 1.439 . S
C333 C358 1.395 . S
N334 Co323 1.995 . S
N334 C335 1.376 . S
N334 C338 1.390 . S
C335 N334 1.376 . S
C335 C336 1.446 1_554 S
C335 C358 1.391 . S
C336 C335 1.446 1_556 S
C336 C337 1.339 . S
C336 H365 0.949 . S
C337 C336 1.339 . S
C337 C338 1.430 1_556 S
C337 H366 0.950 . S
C338 N334 1.390 . S
C338 C337 1.430 1_554 S
C338 C356 1.393 . S
N339 Co323 2.282 . S
N339 C342 1.332 1_554 S
N339 C344 1.332 . S
C340 C341 1.386 . S
C340 C343 1.388 . S
C341 C340 1.386 . S
C341 C342 1.382 . S
C341 H367 0.950 . S
C342 N339 1.332 1_556 S
C342 C341 1.382 . S
C342 H353 0.952 . S
C343 C340 1.388 . S
C343 C344 1.382 1_556 S
C343 H368 0.950 . S
C344 N339 1.332 . S
C344 C343 1.382 1_554 S
C344 H354 0.948 . S
N345 Co323 2.282 . S
N345 C349 1.332 . S
N345 C350 1.332 . S
C346 C347 1.388 . S
C346 C350 1.382 . S
C346 H369 0.950 . S
C347 C346 1.388 . S
C347 C348 1.386 . S
C348 C347 1.386 . S
C348 C349 1.382 . S
C348 H370 0.950 . S
C349 N345 1.332 . S
C349 C348 1.382 . S
C349 H351 0.952 . S
C350 N345 1.332 . S
C350 C346 1.382 . S
C350 H352 0.948 . S
H351 C349 0.952 . S
H352 C350 0.948 . S
H353 C342 0.952 . S
H354 C344 0.948 . S
C355 C321 1.395 . S
C355 C325 1.391 . S
C356 C318 1.389 . S
C356 C338 1.393 . S
C357 C328 1.392 . S
C357 C330 1.389 . S
C358 C333 1.395 . S
C358 C335 1.391 . S
H359 C319 0.951 . S
H360 C320 0.950 . S
H361 C326 0.949 . S
H362 C327 0.950 . S
H363 C331 0.951 . S
H364 C332 0.950 . S
H365 C336 0.949 . S
H366 C337 0.950 . S
H367 C341 0.950 . S
H368 C343 0.950 . S
H369 C346 0.950 . S
H370 C348 0.950 . S
C371 C372 1.443 . S
C371 N375 1.376 . S
C371 C409 1.389 . S
C372 C371 1.443 . S
C372 C373 1.340 . S
C372 H412 0.951 . S
C373 C372 1.340 . S
C373 C374 1.439 . S
C373 H413 0.950 . S
C374 C373 1.439 . S
C374 N375 1.374 . S
C374 C408 1.395 . S
N375 C371 1.376 . S
N375 C374 1.374 . S
N375 Co376 2.008 . S
Co376 N375 2.008 . S
Co376 N377 1.995 . S
Co376 N382 2.008 . S
Co376 N387 1.995 . S
Co376 N392 2.282 . S
Co376 N398 2.282 . S
N377 Co376 1.995 . S
N377 C378 1.376 . S
N377 C381 1.383 . S
C378 N377 1.376 . S
C378 C379 1.446 . S
C378 C408 1.391 . S
C379 C378 1.446 . S
C379 C380 1.339 . S
C379 H414 0.949 . S
C380 C379 1.339 . S
C380 C381 1.439 . S
C380 H415 0.950 . S
C381 N377 1.383 . S
C381 C380 1.439 . S
C381 C410 1.392 . S
N382 Co376 2.008 . S
N382 C383 1.376 . S
N382 C386 1.374 . S
C383 N382 1.376 . S
C383 C384 1.443 . S
C383 C410 1.389 . S
C384 C383 1.443 . S
C384 C385 1.340 . S
C384 H416 0.951 . S
C385 C384 1.340 . S
C385 C386 1.439 . S
C385 H417 0.950 . S
C386 N382 1.374 . S
C386 C385 1.439 . S
C386 C411 1.395 . S
N387 Co376 1.995 . S
N387 C388 1.376 . S
N387 C391 1.383 . S
C388 N387 1.376 . S
C388 C389 1.446 . S
C388 C411 1.391 . S
C389 C388 1.446 . S
C389 C390 1.339 . S
C389 H418 0.949 . S
C390 C389 1.339 . S
C390 C391 1.439 . S
C390 H419 0.950 . S
C391 N387 1.383 . S
C391 C390 1.439 . S
C391 C409 1.392 . S
N392 Co376 2.282 . S
N392 C395 1.332 . S
N392 C397 1.332 . S
C393 C394 1.386 . S
C393 C396 1.388 . S
C394 C393 1.386 . S
C394 C395 1.382 . S
C394 H420 0.950 . S
C395 N392 1.332 . S
C395 C394 1.382 . S
C395 H406 0.952 . S
C396 C393 1.388 . S
C396 C397 1.382 . S
C396 H421 0.950 . S
C397 N392 1.332 . S
C397 C396 1.382 . S
C397 H407 0.948 . S
N398 Co376 2.282 . S
N398 C402 1.332 . S
N398 C403 1.332 . S
C399 C400 1.388 . S
C399 C403 1.382 . S
C399 H422 0.950 . S
C400 C399 1.388 . S
C400 C401 1.386 . S
C401 C400 1.386 . S
C401 C402 1.382 . S
C401 H423 0.950 . S
C402 N398 1.332 . S
C402 C401 1.382 . S
C402 H404 0.952 . S
C403 N398 1.332 . S
C403 C399 1.382 . S
C403 H405 0.948 . S
H404 C402 0.952 . S
H405 C403 0.948 . S
H406 C395 0.952 . S
H407 C397 0.948 . S
C408 C374 1.395 . S
C408 C378 1.391 . S
C409 C371 1.389 . S
C409 C391 1.392 . S
C410 C381 1.392 . S
C410 C383 1.389 . S
C411 C386 1.395 . S
C411 C388 1.391 . S
H412 C372 0.951 . S
H413 C373 0.950 . S
H414 C379 0.949 . S
H415 C380 0.950 . S
H416 C384 0.951 . S
H417 C385 0.950 . S
H418 C389 0.949 . S
H419 C390 0.950 . S
H420 C394 0.950 . S
H421 C396 0.950 . S
H422 C399 0.950 . S
H423 C401 0.950 . S
H424 C432 0.929 . S
H425 C434 0.930 . S
H426 C436 0.930 . S
H427 C439 0.929 . S
H428 C442 0.930 . S
H429 C444 0.960 . S
H430 C444 0.960 . S
H431 C444 0.960 . S
C432 H424 0.929 . S
C432 C433 1.377 . S
C432 C434 1.384 . S
C433 C432 1.377 . S
C433 C439 1.390 . S
C434 H425 0.930 . S
C434 C432 1.384 . S
C434 C435 1.372 . S
C435 C434 1.372 . S
C435 C436 1.400 . S
C435 C440 1.490 . S
C436 H426 0.930 . S
C436 C435 1.400 . S
C436 C439 1.386 . S
H437 C453 0.930 . S
H438 C454 0.931 . S
C439 H427 0.929 . S
C439 C433 1.390 . S
C439 C436 1.386 . S
C440 C435 1.490 . S
C440 C442 1.395 . S
C440 C443 1.403 . S
H441 C447 0.930 . S
C442 H428 0.930 . S
C442 C440 1.395 . S
C442 C445 1.403 . S
C443 C440 1.403 . S
C443 C444 1.524 . S
C443 C447 1.400 . S
C444 H429 0.960 . S
C444 H430 0.960 . S
C444 H431 0.960 . S
C444 C443 1.524 . S
C445 C442 1.403 . S
C445 C446 1.392 . S
C445 C449 1.495 . S
C446 C445 1.392 . S
C446 C447 1.385 . S
C446 C448 1.478 . S
C447 H441 0.930 . S
C447 C443 1.400 . S
C447 C446 1.385 . S
C448 C446 1.478 . S
C448 C450 1.381 . S
C448 C454 1.383 . S
C449 C445 1.495 . S
C449 H455 0.959 . S
C449 H456 0.961 1_556 S
C449 H457 0.960 . S
C450 C448 1.381 . S
C450 C451 1.394 1_556 S
C450 H458 0.930 . S
C451 C450 1.394 1_554 S
C451 C452 1.383 . S
C451 H459 0.929 . S
C452 C451 1.383 . S
C452 C453 1.377 . S
C453 H437 0.930 . S
C453 C452 1.377 . S
C453 C454 1.379 1_554 S
C454 H438 0.931 . S
C454 C448 1.383 . S
C454 C453 1.379 1_556 S
H455 C449 0.959 . S
H456 C449 0.961 1_554 S
H457 C449 0.960 . S
H458 C450 0.930 . S
H459 C451 0.929 . S
H460 C468 0.929 . S
H461 C470 0.930 . S
H462 C472 0.930 . S
H463 C475 0.929 . S
H464 C478 0.930 . S
H465 C480 0.960 . S
H466 C480 0.960 . S
H467 C480 0.960 . S
C468 H460 0.929 . S
C468 C469 1.377 . S
C468 C470 1.384 . S
C469 C468 1.377 . S
C469 C475 1.390 . S
C470 H461 0.930 . S
C470 C468 1.384 . S
C470 C471 1.372 . S
C471 C470 1.372 . S
C471 C472 1.400 . S
C471 C476 1.490 . S
C472 H462 0.930 . S
C472 C471 1.400 . S
C472 C475 1.386 . S
H473 C489 0.930 . S
H474 C490 0.931 . S
C475 H463 0.929 . S
C475 C469 1.390 . S
C475 C472 1.386 . S
C476 C471 1.490 . S
C476 C478 1.395 . S
C476 C479 1.403 . S
H477 C483 0.930 . S
C478 H464 0.930 . S
C478 C476 1.395 . S
C478 C481 1.403 . S
C479 C476 1.403 . S
C479 C480 1.524 . S
C479 C483 1.400 . S
C480 H465 0.960 . S
C480 H466 0.960 . S
C480 H467 0.960 . S
C480 C479 1.524 . S
C481 C478 1.403 . S
C481 C482 1.392 . S
C481 C485 1.495 . S
C482 C481 1.392 . S
C482 C483 1.385 . S
C482 C484 1.478 . S
C483 H477 0.930 . S
C483 C479 1.400 . S
C483 C482 1.385 . S
C484 C482 1.478 . S
C484 C486 1.381 . S
C484 C490 1.383 . S
C485 C481 1.495 . S
C485 H491 0.959 . S
C485 H492 0.961 . S
C485 H493 0.960 . S
C486 C484 1.381 . S
C486 C487 1.394 . S
C486 H494 0.930 . S
C487 C486 1.394 . S
C487 C488 1.383 . S
C487 H495 0.929 . S
C488 C487 1.383 . S
C488 C489 1.377 . S
C489 H473 0.930 . S
C489 C488 1.377 . S
C489 C490 1.379 . S
C490 H474 0.931 . S
C490 C484 1.383 . S
C490 C489 1.379 . S
H491 C485 0.959 . S
H492 C485 0.961 . S
H493 C485 0.960 . S
H494 C486 0.930 . S
H495 C487 0.929 . S
H496 C504 0.929 . S
H497 C506 0.930 . S
H498 C508 0.930 . S
H499 C511 0.929 . S
H500 C514 0.930 . S
H501 C516 0.960 . S
H502 C516 0.960 . S
H503 C516 0.960 . S
C504 H496 0.929 . S
C504 C505 1.377 . S
C504 C506 1.384 . S
C505 C504 1.377 . S
C505 C511 1.390 . S
C506 H497 0.930 . S
C506 C504 1.384 . S
C506 C507 1.372 . S
C507 C506 1.372 . S
C507 C508 1.400 . S
C507 C512 1.490 . S
C508 H498 0.930 . S
C508 C507 1.400 . S
C508 C511 1.386 . S
H509 C525 0.930 . S
H510 C526 0.931 . S
C511 H499 0.929 . S
C511 C505 1.390 . S
C511 C508 1.386 . S
C512 C507 1.490 . S
C512 C514 1.395 . S
C512 C515 1.403 . S
H513 C519 0.930 . S
C514 H500 0.930 . S
C514 C512 1.395 . S
C514 C517 1.403 . S
C515 C512 1.403 . S
C515 C516 1.524 . S
C515 C519 1.400 . S
C516 H501 0.960 . S
C516 H502 0.960 . S
C516 H503 0.960 . S
C516 C515 1.524 . S
C517 C514 1.403 . S
C517 C518 1.392 . S
C517 C521 1.495 . S
C518 C517 1.392 . S
C518 C519 1.385 . S
C518 C520 1.478 . S
C519 H513 0.930 . S
C519 C515 1.400 . S
C519 C518 1.385 . S
C520 C518 1.478 . S
C520 C522 1.381 . S
C520 C526 1.383 . S
C521 C517 1.495 . S
C521 H527 0.959 . S
C521 H528 0.961 . S
C521 H529 0.960 . S
C522 C520 1.381 . S
C522 C523 1.394 1_554 S
C522 H530 0.930 . S
C523 C522 1.394 1_556 S
C523 C524 1.383 . S
C523 H531 0.929 . S
C524 C523 1.383 . S
C524 C525 1.377 1_556 S
C525 H509 0.930 . S
C525 C524 1.377 1_554 S
C525 C526 1.379 . S
C526 H510 0.931 . S
C526 C520 1.383 . S
C526 C525 1.379 . S
H527 C521 0.959 . S
H528 C521 0.961 . S
H529 C521 0.960 . S
H530 C522 0.930 . S
H531 C523 0.929 . S
H532 C540 0.929 . S
H533 C542 0.930 . S
H534 C544 0.930 . S
H535 C547 0.929 . S
H536 C550 0.930 . S
H537 C552 0.960 . S
H538 C552 0.960 . S
H539 C552 0.960 . S
C540 H532 0.929 . S
C540 C541 1.377 . S
C540 C542 1.384 . S
C541 C540 1.377 . S
C541 C547 1.390 . S
C542 H533 0.930 . S
C542 C540 1.384 . S
C542 C543 1.372 . S
C543 C542 1.372 . S
C543 C544 1.400 . S
C543 C548 1.490 . S
C544 H534 0.930 . S
C544 C543 1.400 . S
C544 C547 1.386 . S
H545 C561 0.930 . S
H546 C562 0.931 . S
C547 H535 0.929 . S
C547 C541 1.390 . S
C547 C544 1.386 . S
C548 C543 1.490 . S
C548 C550 1.395 . S
C548 C551 1.403 . S
H549 C555 0.930 . S
C550 H536 0.930 . S
C550 C548 1.395 . S
C550 C553 1.403 . S
C551 C548 1.403 . S
C551 C552 1.524 . S
C551 C555 1.400 . S
C552 H537 0.960 . S
C552 H538 0.960 . S
C552 H539 0.960 . S
C552 C551 1.524 . S
C553 C550 1.403 . S
C553 C554 1.392 . S
C553 C557 1.495 . S
C554 C553 1.392 . S
C554 C555 1.385 . S
C554 C556 1.478 . S
C555 H549 0.930 . S
C555 C551 1.400 . S
C555 C554 1.385 . S
C556 C554 1.478 . S
C556 C558 1.381 . S
C556 C562 1.383 . S
C557 C553 1.495 . S
C557 H563 0.959 . S
C557 H564 0.961 . S
C557 H565 0.960 . S
C558 C556 1.381 . S
C558 C559 1.394 . S
C558 H566 0.930 . S
C559 C558 1.394 . S
C559 C560 1.383 . S
C559 H567 0.929 . S
C560 C559 1.383 . S
C560 C561 1.377 . S
C561 H545 0.930 . S
C561 C560 1.377 . S
C561 C562 1.379 . S
C562 H546 0.931 . S
C562 C556 1.383 . S
C562 C561 1.379 . S
H563 C557 0.959 . S
H564 C557 0.961 . S
H565 C557 0.960 . S
H566 C558 0.930 . S
H567 C559 0.929 . S
H568 C576 0.929 . S
H569 C578 0.930 . S
H570 C580 0.930 . S
H571 C583 0.929 . S
H572 C586 0.930 . S
H573 C588 0.960 . S
H574 C588 0.960 . S
H575 C588 0.960 . S
C576 H568 0.929 . S
C576 C577 1.377 . S
C576 C578 1.384 . S
C577 C576 1.377 . S
C577 C583 1.390 . S
C578 H569 0.930 . S
C578 C576 1.384 . S
C578 C579 1.372 . S
C579 C578 1.372 . S
C579 C580 1.400 . S
C579 C584 1.490 . S
C580 H570 0.930 . S
C580 C579 1.400 . S
C580 C583 1.386 . S
H581 C597 0.930 . S
H582 C598 0.931 . S
C583 H571 0.929 . S
C583 C577 1.390 . S
C583 C580 1.386 . S
C584 C579 1.490 . S
C584 C586 1.395 . S
C584 C587 1.403 . S
H585 C591 0.930 . S
C586 H572 0.930 . S
C586 C584 1.395 . S
C586 C589 1.403 . S
C587 C584 1.403 . S
C587 C588 1.524 . S
C587 C591 1.400 . S
C588 H573 0.960 . S
C588 H574 0.960 . S
C588 H575 0.960 . S
C588 C587 1.524 . S
C589 C586 1.403 . S
C589 C590 1.392 . S
C589 C593 1.495 . S
C590 C589 1.392 . S
C590 C591 1.385 . S
C590 C592 1.478 . S
C591 H585 0.930 . S
C591 C587 1.400 . S
C591 C590 1.385 . S
C592 C590 1.478 . S
C592 C594 1.381 . S
C592 C598 1.383 . S
C593 C589 1.495 . S
C593 H599 0.959 . S
C593 H600 0.961 . S
C593 H601 0.960 . S
C594 C592 1.381 . S
C594 C595 1.394 . S
C594 H602 0.930 . S
C595 C594 1.394 . S
C595 C596 1.383 . S
C595 H603 0.929 . S
C596 C595 1.383 . S
C596 C597 1.377 . S
C597 H581 0.930 . S
C597 C596 1.377 . S
C597 C598 1.379 . S
C598 H582 0.931 . S
C598 C592 1.383 . S
C598 C597 1.379 . S
H599 C593 0.959 . S
H600 C593 0.961 . S
H601 C593 0.960 . S
H602 C594 0.930 . S
H603 C595 0.929 . S
H604 C612 0.929 . S
H605 C614 0.930 . S
H606 C616 0.930 . S
H607 C619 0.929 . S
H608 C622 0.930 . S
H609 C624 0.960 . S
H610 C624 0.960 . S
H611 C624 0.960 . S
C612 H604 0.929 . S
C612 C613 1.377 . S
C612 C614 1.384 . S
C613 C612 1.377 . S
C613 C619 1.390 . S
C614 H605 0.930 . S
C614 C612 1.384 . S
C614 C615 1.372 . S
C615 C614 1.372 . S
C615 C616 1.400 . S
C615 C620 1.490 . S
C616 H606 0.930 . S
C616 C615 1.400 . S
C616 C619 1.386 . S
H617 C633 0.930 . S
H618 C634 0.931 . S
C619 H607 0.929 . S
C619 C613 1.390 . S
C619 C616 1.386 . S
C620 C615 1.490 . S
C620 C622 1.395 . S
C620 C623 1.403 . S
H621 C627 0.930 . S
C622 H608 0.930 . S
C622 C620 1.395 . S
C622 C625 1.403 . S
C623 C620 1.403 . S
C623 C624 1.524 . S
C623 C627 1.400 . S
C624 H609 0.960 . S
C624 H610 0.960 . S
C624 H611 0.960 . S
C624 C623 1.524 . S
C625 C622 1.403 . S
C625 C626 1.392 . S
C625 C629 1.495 . S
C626 C625 1.392 . S
C626 C627 1.385 . S
C626 C628 1.478 . S
C627 H621 0.930 . S
C627 C623 1.400 . S
C627 C626 1.385 . S
C628 C626 1.478 . S
C628 C630 1.381 . S
C628 C634 1.383 . S
C629 C625 1.495 . S
C629 H635 0.959 . S
C629 H636 0.961 . S
C629 H637 0.960 . S
C630 C628 1.381 . S
C630 C631 1.394 . S
C630 H638 0.930 . S
C631 C630 1.394 . S
C631 C632 1.383 . S
C631 H639 0.929 . S
C632 C631 1.383 . S
C632 C633 1.377 . S
C633 H617 0.930 . S
C633 C632 1.377 . S
C633 C634 1.379 . S
C634 H618 0.931 . S
C634 C628 1.383 . S
C634 C633 1.379 . S
H635 C629 0.959 . S
H636 C629 0.961 . S
H637 C629 0.960 . S
H638 C630 0.930 . S
H639 C631 0.929 . S
H640 C648 0.929 . S
H641 C650 0.930 . S
H642 C652 0.930 . S
H643 C655 0.929 . S
H644 C658 0.930 . S
H645 C660 0.960 . S
H646 C660 0.960 . S
H647 C660 0.960 . S
C648 H640 0.929 . S
C648 C649 1.377 . S
C648 C650 1.384 . S
C649 C648 1.377 . S
C649 C655 1.390 . S
C650 H641 0.930 . S
C650 C648 1.384 . S
C650 C651 1.372 . S
C651 C650 1.372 . S
C651 C652 1.400 . S
C651 C656 1.490 . S
C652 H642 0.930 . S
C652 C651 1.400 . S
C652 C655 1.386 . S
H653 C669 0.930 . S
H654 C670 0.931 . S
C655 H643 0.929 . S
C655 C649 1.390 . S
C655 C652 1.386 . S
C656 C651 1.490 . S
C656 C658 1.395 . S
C656 C659 1.403 . S
H657 C663 0.930 . S
C658 H644 0.930 . S
C658 C656 1.395 . S
C658 C661 1.403 . S
C659 C656 1.403 . S
C659 C660 1.524 . S
C659 C663 1.400 . S
C660 H645 0.960 . S
C660 H646 0.960 . S
C660 H647 0.960 . S
C660 C659 1.524 . S
C661 C658 1.403 . S
C661 C662 1.392 . S
C661 C665 1.495 . S
C662 C661 1.392 . S
C662 C663 1.385 . S
C662 C664 1.478 . S
C663 H657 0.930 . S
C663 C659 1.400 . S
C663 C662 1.385 . S
C664 C662 1.478 . S
C664 C666 1.381 . S
C664 C670 1.383 . S
C665 C661 1.495 . S
C665 H671 0.959 . S
C665 H672 0.961 . S
C665 H673 0.960 . S
C666 C664 1.381 . S
C666 C667 1.394 . S
C666 H674 0.930 . S
C667 C666 1.394 . S
C667 C668 1.383 . S
C667 H675 0.929 . S
C668 C667 1.383 . S
C668 C669 1.377 . S
C669 H653 0.930 . S
C669 C668 1.377 . S
C669 C670 1.379 . S
C670 H654 0.931 . S
C670 C664 1.383 . S
C670 C669 1.379 . S
H671 C665 0.959 . S
H672 C665 0.961 . S
H673 C665 0.960 . S
H674 C666 0.930 . S
H675 C667 0.929 . S
H676 C684 0.929 . S
H677 C686 0.930 . S
H678 C688 0.930 . S
H679 C691 0.929 . S
H680 C694 0.930 . S
H681 C696 0.960 . S
H682 C696 0.960 . S
H683 C696 0.960 . S
C684 H676 0.929 . S
C684 C685 1.377 . S
C684 C686 1.384 . S
C685 C684 1.377 . S
C685 C691 1.390 . S
C686 H677 0.930 . S
C686 C684 1.384 . S
C686 C687 1.372 . S
C687 C686 1.372 . S
C687 C688 1.400 . S
C687 C692 1.490 . S
C688 H678 0.930 . S
C688 C687 1.400 . S
C688 C691 1.386 . S
H689 C705 0.930 . S
H690 C706 0.931 . S
C691 H679 0.929 . S
C691 C685 1.390 . S
C691 C688 1.386 . S
C692 C687 1.490 . S
C692 C694 1.395 . S
C692 C695 1.403 . S
H693 C699 0.930 . S
C694 H680 0.930 . S
C694 C692 1.395 . S
C694 C697 1.403 . S
C695 C692 1.403 . S
C695 C696 1.524 . S
C695 C699 1.400 . S
C696 H681 0.960 . S
C696 H682 0.960 . S
C696 H683 0.960 . S
C696 C695 1.524 . S
C697 C694 1.403 . S
C697 C698 1.392 . S
C697 C701 1.495 . S
C698 C697 1.392 . S
C698 C699 1.385 . S
C698 C700 1.478 . S
C699 H693 0.930 . S
C699 C695 1.400 . S
C699 C698 1.385 . S
C700 C698 1.478 . S
C700 C702 1.381 . S
C700 C706 1.383 . S
C701 C697 1.495 . S
C701 H707 0.959 . S
C701 H708 0.961 . S
C701 H709 0.960 . S
C702 C700 1.381 . S
C702 C703 1.394 . S
C702 H710 0.930 . S
C703 C702 1.394 . S
C703 C704 1.383 . S
C703 H711 0.929 . S
C704 C703 1.383 . S
C704 C705 1.377 . S
C705 H689 0.930 . S
C705 C704 1.377 . S
C705 C706 1.379 . S
C706 H690 0.931 . S
C706 C700 1.383 . S
C706 C705 1.379 . S
H707 C701 0.959 . S
H708 C701 0.961 . S
H709 C701 0.960 . S
H710 C702 0.930 . S
H711 C703 0.929 . S
H712 C720 0.929 . S
H713 C722 0.930 . S
H714 C724 0.930 . S
H715 C727 0.929 . S
H716 C730 0.930 . S
H717 C732 0.960 . S
H718 C732 0.960 . S
H719 C732 0.960 . S
C720 H712 0.929 . S
C720 C721 1.377 . S
C720 C722 1.384 . S
C721 C720 1.377 . S
C721 C727 1.390 . S
C722 H713 0.930 . S
C722 C720 1.384 . S
C722 C723 1.372 . S
C723 C722 1.372 . S
C723 C724 1.400 . S
C723 C728 1.490 . S
C724 H714 0.930 . S
C724 C723 1.400 . S
C724 C727 1.386 . S
H725 C741 0.930 . S
H726 C742 0.931 . S
C727 H715 0.929 . S
C727 C721 1.390 . S
C727 C724 1.386 . S
C728 C723 1.490 . S
C728 C730 1.395 . S
C728 C731 1.403 . S
H729 C735 0.930 . S
C730 H716 0.930 . S
C730 C728 1.395 . S
C730 C733 1.403 1_455 S
C731 C728 1.403 . S
C731 C732 1.524 . S
C731 C735 1.400 1_455 S
C732 H717 0.960 . S
C732 H718 0.960 . S
C732 H719 0.960 . S
C732 C731 1.524 . S
C733 C730 1.403 1_655 S
C733 C734 1.392 . S
C733 C737 1.495 . S
C734 C733 1.392 . S
C734 C735 1.385 . S
C734 C736 1.478 . S
C735 H729 0.930 . S
C735 C731 1.400 1_655 S
C735 C734 1.385 . S
C736 C734 1.478 . S
C736 C738 1.381 . S
C736 C742 1.383 . S
C737 C733 1.495 . S
C737 H743 0.959 . S
C737 H744 0.961 . S
C737 H745 0.960 . S
C738 C736 1.381 . S
C738 C739 1.394 . S
C738 H746 0.930 . S
C739 C738 1.394 . S
C739 C740 1.383 . S
C739 H747 0.929 . S
C740 C739 1.383 . S
C740 C741 1.377 . S
C741 H725 0.930 . S
C741 C740 1.377 . S
C741 C742 1.379 . S
C742 H726 0.931 . S
C742 C736 1.383 . S
C742 C741 1.379 . S
H743 C737 0.959 . S
H744 C737 0.961 . S
H745 C737 0.960 . S
H746 C738 0.930 . S
H747 C739 0.929 . S
H748 C756 0.929 . S
H749 C758 0.930 . S
H750 C760 0.930 . S
H751 C763 0.929 . S
H752 C766 0.930 . S
H753 C768 0.960 . S
H754 C768 0.960 . S
H755 C768 0.960 . S
C756 H748 0.929 . S
C756 C757 1.377 . S
C756 C758 1.384 . S
C757 C756 1.377 . S
C757 C763 1.390 . S
C758 H749 0.930 . S
C758 C756 1.384 . S
C758 C759 1.372 . S
C759 C758 1.372 . S
C759 C760 1.400 . S
C759 C764 1.490 . S
C760 H750 0.930 . S
C760 C759 1.400 . S
C760 C763 1.386 . S
H761 C777 0.930 . S
H762 C778 0.931 . S
C763 H751 0.929 . S
C763 C757 1.390 . S
C763 C760 1.386 . S
C764 C759 1.490 . S
C764 C766 1.395 . S
C764 C767 1.403 . S
H765 C771 0.930 . S
C766 H752 0.930 . S
C766 C764 1.395 . S
C766 C769 1.403 . S
C767 C764 1.403 . S
C767 C768 1.524 . S
C767 C771 1.400 . S
C768 H753 0.960 . S
C768 H754 0.960 . S
C768 H755 0.960 . S
C768 C767 1.524 . S
C769 C766 1.403 . S
C769 C770 1.392 . S
C769 C773 1.495 . S
C770 C769 1.392 . S
C770 C771 1.385 . S
C770 C772 1.478 . S
C771 H765 0.930 . S
C771 C767 1.400 . S
C771 C770 1.385 . S
C772 C770 1.478 . S
C772 C774 1.381 . S
C772 C778 1.383 . S
C773 C769 1.495 . S
C773 H779 0.959 . S
C773 H780 0.961 . S
C773 H781 0.960 . S
C774 C772 1.381 . S
C774 C775 1.394 . S
C774 H782 0.930 . S
C775 C774 1.394 . S
C775 C776 1.383 . S
C775 H783 0.929 . S
C776 C775 1.383 . S
C776 C777 1.377 . S
C777 H761 0.930 . S
C777 C776 1.377 . S
C777 C778 1.379 . S
C778 H762 0.931 . S
C778 C772 1.383 . S
C778 C777 1.379 . S
H779 C773 0.959 . S
H780 C773 0.961 . S
H781 C773 0.960 . S
H782 C774 0.930 . S
H783 C775 0.929 . S
H784 C792 0.929 . S
H785 C794 0.930 . S
H786 C796 0.930 . S
H787 C799 0.929 . S
H788 C802 0.930 . S
H789 C804 0.960 . S
H790 C804 0.960 . S
H791 C804 0.960 . S
C792 H784 0.929 . S
C792 C793 1.377 . S
C792 C794 1.384 . S
C793 C792 1.377 . S
C793 C799 1.390 . S
C794 H785 0.930 . S
C794 C792 1.384 . S
C794 C795 1.372 . S
C795 C794 1.372 . S
C795 C796 1.400 . S
C795 C800 1.490 . S
C796 H786 0.930 . S
C796 C795 1.400 . S
C796 C799 1.386 . S
H797 C813 0.930 . S
H798 C814 0.931 . S
C799 H787 0.929 . S
C799 C793 1.390 . S
C799 C796 1.386 . S
C800 C795 1.490 . S
C800 C802 1.395 . S
C800 C803 1.403 . S
H801 C807 0.930 . S
C802 H788 0.930 . S
C802 C800 1.395 . S
C802 C805 1.403 1_455 S
C803 C800 1.403 . S
C803 C804 1.524 . S
C803 C807 1.400 1_455 S
C804 H789 0.960 . S
C804 H790 0.960 . S
C804 H791 0.960 . S
C804 C803 1.524 . S
C805 C802 1.403 1_655 S
C805 C806 1.392 . S
C805 C809 1.495 . S
C806 C805 1.392 . S
C806 C807 1.385 . S
C806 C808 1.478 . S
C807 H801 0.930 . S
C807 C803 1.400 1_655 S
C807 C806 1.385 . S
C808 C806 1.478 . S
C808 C810 1.381 . S
C808 C814 1.383 . S
C809 C805 1.495 . S
C809 H815 0.959 . S
C809 H816 0.961 . S
C809 H817 0.960 . S
C810 C808 1.381 . S
C810 C811 1.394 . S
C810 H818 0.930 . S
C811 C810 1.394 . S
C811 C812 1.383 . S
C811 H819 0.929 . S
C812 C811 1.383 . S
C812 C813 1.377 . S
C813 H797 0.930 . S
C813 C812 1.377 . S
C813 C814 1.379 . S
C814 H798 0.931 . S
C814 C808 1.383 . S
C814 C813 1.379 . S
H815 C809 0.959 . S
H816 C809 0.961 . S
H817 C809 0.960 . S
H818 C810 0.930 . S
H819 C811 0.929 . S
H820 C828 0.929 . S
H821 C830 0.930 . S
H822 C832 0.930 . S
H823 C835 0.929 . S
H824 C838 0.930 . S
H825 C840 0.960 . S
H826 C840 0.960 . S
H827 C840 0.960 . S
C828 H820 0.929 . S
C828 C829 1.377 . S
C828 C830 1.384 . S
C829 C828 1.377 . S
C829 C835 1.390 . S
C830 H821 0.930 . S
C830 C828 1.384 . S
C830 C831 1.372 . S
C831 C830 1.372 . S
C831 C832 1.400 . S
C831 C836 1.490 . S
C832 H822 0.930 . S
C832 C831 1.400 . S
C832 C835 1.386 . S
H833 C849 0.930 . S
H834 C850 0.931 . S
C835 H823 0.929 . S
C835 C829 1.390 . S
C835 C832 1.386 . S
C836 C831 1.490 . S
C836 C838 1.395 . S
C836 C839 1.403 . S
H837 C843 0.930 . S
C838 H824 0.930 . S
C838 C836 1.395 . S
C838 C841 1.403 . S
C839 C836 1.403 . S
C839 C840 1.524 . S
C839 C843 1.400 . S
C840 H825 0.960 . S
C840 H826 0.960 . S
C840 H827 0.960 . S
C840 C839 1.524 . S
C841 C838 1.403 . S
C841 C842 1.392 . S
C841 C845 1.495 . S
C842 C841 1.392 . S
C842 C843 1.385 . S
C842 C844 1.478 . S
C843 H837 0.930 . S
C843 C839 1.400 . S
C843 C842 1.385 . S
C844 C842 1.478 . S
C844 C846 1.381 . S
C844 C850 1.383 . S
C845 C841 1.495 . S
C845 H851 0.959 . S
C845 H852 0.961 . S
C845 H853 0.960 . S
C846 C844 1.381 . S
C846 C847 1.394 . S
C846 H854 0.930 . S
C847 C846 1.394 . S
C847 C848 1.383 . S
C847 H855 0.929 . S
C848 C847 1.383 . S
C848 C849 1.377 . S
C849 H833 0.930 . S
C849 C848 1.377 . S
C849 C850 1.379 . S
C850 H834 0.931 . S
C850 C844 1.383 . S
C850 C849 1.379 . S
H851 C845 0.959 . S
H852 C845 0.961 . S
H853 C845 0.960 . S
H854 C846 0.930 . S
H855 C847 0.929 . S
H856 C864 0.929 . S
H857 C866 0.930 . S
H858 C868 0.930 1_556 S
H859 C871 0.929 1_556 S
H860 C874 0.930 1_556 S
H861 C876 0.960 . S
H862 C876 0.960 . S
H863 C876 0.960 . S
C864 H856 0.929 . S
C864 C865 1.377 . S
C864 C866 1.384 . S
C865 C864 1.377 . S
C865 C871 1.390 . S
C866 H857 0.930 . S
C866 C864 1.384 . S
C866 C867 1.372 . S
C867 C866 1.372 . S
C867 C868 1.400 . S
C867 C872 1.490 . S
C868 H858 0.930 1_554 S
C868 C867 1.400 . S
C868 C871 1.386 . S
H869 C885 0.930 . S
H870 C886 0.931 . S
C871 H859 0.929 1_554 S
C871 C865 1.390 . S
C871 C868 1.386 . S
C872 C867 1.490 . S
C872 C874 1.395 1_455 S
C872 C875 1.403 1_545 S
H873 C879 0.930 . S
C874 H860 0.930 1_554 S
C874 C872 1.395 1_655 S
C874 C877 1.403 1_554 S
C875 C872 1.403 1_565 S
C875 C876 1.524 . S
C875 C879 1.400 1_455 S
C876 H861 0.960 . S
C876 H862 0.960 . S
C876 H863 0.960 . S
C876 C875 1.524 . S
C877 C874 1.403 1_556 S
C877 C878 1.392 1_546 S
C877 C881 1.495 . S
C878 C877 1.392 1_564 S
C878 C879 1.385 . S
C878 C880 1.478 . S
C879 H873 0.930 . S
C879 C875 1.400 1_655 S
C879 C878 1.385 . S
C880 C878 1.478 . S
C880 C882 1.381 . S
C880 C886 1.383 1_554 S
C881 C877 1.495 . S
C881 H887 0.959 . S
C881 H888 0.961 . S
C881 H889 0.960 . S
C882 C880 1.381 . S
C882 C883 1.394 . S
C882 H890 0.930 . S
C883 C882 1.394 . S
C883 C884 1.383 . S
C883 H891 0.929 . S
C884 C883 1.383 . S
C884 C885 1.377 1_554 S
C885 H869 0.930 . S
C885 C884 1.377 1_556 S
C885 C886 1.379 . S
C886 H870 0.931 . S
C886 C880 1.383 1_556 S
C886 C885 1.379 . S
H887 C881 0.959 . S
H888 C881 0.961 . S
H889 C881 0.960 . S
H890 C882 0.930 . S
H891 C883 0.929 . S
H892 C900 0.929 . S
H893 C902 0.930 . S
H894 C904 0.930 . S
H895 C907 0.929 . S
H896 C910 0.930 . S
H897 C912 0.960 . S
H898 C912 0.960 . S
H899 C912 0.960 . S
C900 H892 0.929 . S
C900 C901 1.377 . S
C900 C902 1.384 . S
C901 C900 1.377 . S
C901 C907 1.390 . S
C902 H893 0.930 . S
C902 C900 1.384 . S
C902 C903 1.372 . S
C903 C902 1.372 . S
C903 C904 1.400 . S
C903 C908 1.490 . S
C904 H894 0.930 . S
C904 C903 1.400 . S
C904 C907 1.386 . S
H905 C921 0.930 . S
H906 C922 0.931 . S
C907 H895 0.929 . S
C907 C901 1.390 . S
C907 C904 1.386 . S
C908 C903 1.490 . S
C908 C910 1.395 . S
C908 C911 1.403 . S
H909 C915 0.930 . S
C910 H896 0.930 . S
C910 C908 1.395 . S
C910 C913 1.403 . S
C911 C908 1.403 . S
C911 C912 1.524 . S
C911 C915 1.400 . S
C912 H897 0.960 . S
C912 H898 0.960 . S
C912 H899 0.960 . S
C912 C911 1.524 . S
C913 C910 1.403 . S
C913 C914 1.392 . S
C913 C917 1.495 . S
C914 C913 1.392 . S
C914 C915 1.385 . S
C914 C916 1.478 . S
C915 H909 0.930 . S
C915 C911 1.400 . S
C915 C914 1.385 . S
C916 C914 1.478 . S
C916 C918 1.381 . S
C916 C922 1.383 . S
C917 C913 1.495 . S
C917 H923 0.959 . S
C917 H924 0.961 . S
C917 H925 0.960 . S
C918 C916 1.381 . S
C918 C919 1.394 . S
C918 H926 0.930 . S
C919 C918 1.394 . S
C919 C920 1.383 . S
C919 H927 0.929 . S
C920 C919 1.383 . S
C920 C921 1.377 . S
C921 H905 0.930 . S
C921 C920 1.377 . S
C921 C922 1.379 . S
C922 H906 0.931 . S
C922 C916 1.383 . S
C922 C921 1.379 . S
H923 C917 0.959 . S
H924 C917 0.961 . S
H925 C917 0.960 . S
H926 C918 0.930 . S
H927 C919 0.929 . S
H928 C936 0.929 . S
H929 C938 0.930 . S
H930 C940 0.930 . S
H931 C943 0.929 . S
H932 C946 0.921 1_554 S
H933 C948 0.960 . S
H934 C948 0.960 . S
H935 C948 0.960 . S
C936 H928 0.929 . S
C936 C937 1.377 . S
C936 C938 1.384 . S
C937 C936 1.377 . S
C937 C943 1.390 1_556 S
C938 H929 0.930 . S
C938 C936 1.384 . S
C938 C939 1.372 . S
C939 C938 1.372 . S
C939 C940 1.400 1_556 S
C939 C944 1.490 . S
C940 H930 0.930 . S
C940 C939 1.400 1_554 S
C940 C943 1.386 . S
H941 C957 0.930 1_554 S
H942 C958 0.935 . S
C943 H931 0.929 . S
C943 C937 1.390 1_554 S
C943 C940 1.386 . S
C944 C939 1.490 . S
C944 C946 1.403 . S
C944 C947 1.403 . S
H945 C951 0.930 . S
C946 H932 0.921 1_556 S
C946 C944 1.403 . S
C946 C949 1.404 . S
C947 C944 1.403 . S
C947 C948 1.524 . S
C947 C951 1.400 . S
C948 H933 0.960 . S
C948 H934 0.960 . S
C948 H935 0.960 . S
C948 C947 1.524 . S
C949 C946 1.404 . S
C949 C950 1.392 . S
C949 C953 1.495 1_556 S
C950 C949 1.392 . S
C950 C951 1.385 . S
C950 C952 1.478 . S
C951 H945 0.930 . S
C951 C947 1.400 . S
C951 C950 1.385 . S
C952 C950 1.478 . S
C952 C954 1.381 . S
C952 C958 1.379 1_556 S
C953 C949 1.495 1_554 S
C953 H959 0.959 . S
C953 H960 0.961 . S
C953 H961 0.960 1_554 S
C954 C952 1.381 . S
C954 C955 1.394 . S
C954 H962 0.930 . S
C955 C954 1.394 . S
C955 C956 1.383 . S
C955 H963 0.929 . S
C956 C955 1.383 . S
C956 C957 1.377 . S
C957 H941 0.930 1_556 S
C957 C956 1.377 . S
C957 C958 1.379 1_556 S
C958 H942 0.935 . S
C958 C952 1.379 1_554 S
C958 C957 1.379 1_554 S
H959 C953 0.959 . S
H960 C953 0.961 . S
H961 C953 0.960 1_556 S
H962 C954 0.930 . S
H963 C955 0.929 . S
H964 C972 0.929 . S
H965 C974 0.930 . S
H966 C976 0.930 . S
H967 C979 0.929 . S
H968 C982 0.930 . S
H969 C984 0.960 . S
H970 C984 0.960 . S
H971 C984 0.960 . S
C972 H964 0.929 . S
C972 C973 1.377 . S
C972 C974 1.384 . S
C973 C972 1.377 . S
C973 C979 1.390 . S
C974 H965 0.930 . S
C974 C972 1.384 . S
C974 C975 1.372 . S
C975 C974 1.372 . S
C975 C976 1.400 . S
C975 C980 1.490 . S
C976 H966 0.930 . S
C976 C975 1.400 . S
C976 C979 1.386 . S
H977 C993 0.930 . S
H978 C994 0.931 . S
C979 H967 0.929 . S
C979 C973 1.390 . S
C979 C976 1.386 . S
C980 C975 1.490 . S
C980 C982 1.395 . S
C980 C983 1.403 1_565 S
H981 C987 0.930 . S
C982 H968 0.930 . S
C982 C980 1.395 . S
C982 C985 1.403 1_455 S
C983 C980 1.403 1_545 S
C983 C984 1.524 . S
C983 C987 1.400 . S
C984 H969 0.960 . S
C984 H970 0.960 . S
C984 H971 0.960 . S
C984 C983 1.524 . S
C985 C982 1.403 1_655 S
C985 C986 1.392 1_565 S
C985 C989 1.495 . S
C986 C985 1.392 1_545 S
C986 C987 1.385 1_655 S
C986 C988 1.478 . S
C987 H981 0.930 . S
C987 C983 1.400 . S
C987 C986 1.385 1_455 S
C988 C986 1.478 . S
C988 C990 1.381 . S
C988 C994 1.383 . S
C989 C985 1.495 . S
C989 H995 0.959 . S
C989 H996 0.961 . S
C989 H997 0.960 . S
C990 C988 1.381 . S
C990 C991 1.394 . S
C990 H998 0.930 . S
C991 C990 1.394 . S
C991 C992 1.383 . S
C991 H999 0.929 . S
C992 C991 1.383 . S
C992 C993 1.377 . S
C993 H977 0.930 . S
C993 C992 1.377 . S
C993 C994 1.379 . S
C994 H978 0.931 . S
C994 C988 1.383 . S
C994 C993 1.379 . S
H995 C989 0.959 . S
H996 C989 0.961 . S
H997 C989 0.960 . S
H998 C990 0.930 . S
H999 C991 0.929 . S
C433 C75 2.261 . S
C452 C39 2.301 . S
C469 C22 2.256 . S
C488 C92 2.289 . S
C505 C181 2.257 . S
C524 C145 2.292 . S
C541 C128 2.258 . S
C560 C198 2.293 . S
C577 C234 2.000 . S
C596 C304 1.958 . S
C613 C287 2.001 . S
C632 C251 1.961 . S
C649 C340 2.000 . S
C668 C410 1.960 . S
C685 C357 1.974 . S
C704 C393 1.993 . S
C721 C38 0.712 . S
C740 C197 0.743 . S
C757 C91 0.707 . S
C776 C144 0.737 . S
C793 C400 0.311 . S
C812 C241 0.356 . S
C829 C347 0.295 . S
C848 C294 0.262 . S
C865 C29 1.937 . S
C884 C250 1.920 1_554 S
C901 C303 1.945 . S
C920 C82 1.928 . S
C937 C356 1.948 1_556 S
C956 C135 1.937 . S
C973 C409 1.943 . S
C992 C188 1.918 . S
