# Generated by pormake.
# Topology uko, (4)-cn, num edge types: 1
# Building blocks:
#     Node 0, Type 0, BuildingBlock: CEKHIL_clean_sbu_0, # of connection points: 4
#     Node 1, Type 0, BuildingBlock: CEKHIL_clean_sbu_0, # of connection points: 4
#     Node 2, Type 0, BuildingBlock: CEKHIL_clean_sbu_0, # of connection points: 4
#     Node 3, Type 0, BuildingBlock: CEKHIL_clean_sbu_0, # of connection points: 4
#     Node 4, Type 0, BuildingBlock: CEKHIL_clean_sbu_0, # of connection points: 4
#     Node 5, Type 0, BuildingBlock: CEKHIL_clean_sbu_0, # of connection points: 4
#     Node 6, Type 0, BuildingBlock: CEKHIL_clean_sbu_0, # of connection points: 4
#     Node 7, Type 0, BuildingBlock: CEKHIL_clean_sbu_0, # of connection points: 4
#     Node 8, Type 0, BuildingBlock: CEKHIL_clean_sbu_0, # of connection points: 4
#     Node 9, Type 0, BuildingBlock: CEKHIL_clean_sbu_0, # of connection points: 4
#     Node 10, Type 0, BuildingBlock: CEKHIL_clean_sbu_0, # of connection points: 4
#     Node 11, Type 0, BuildingBlock: CEKHIL_clean_sbu_0, # of connection points: 4
#     Node 12, Type 0, BuildingBlock: CEKHIL_clean_sbu_0, # of connection points: 4
#     Node 13, Type 0, BuildingBlock: CEKHIL_clean_sbu_0, # of connection points: 4
#     Node 14, Type 0, BuildingBlock: CEKHIL_clean_sbu_0, # of connection points: 4
#     Node 15, Type 0, BuildingBlock: CEKHIL_clean_sbu_0, # of connection points: 4
#     Node 16, Type 0, BuildingBlock: CEKHIL_clean_sbu_0, # of connection points: 4
#     Node 17, Type 0, BuildingBlock: CEKHIL_clean_sbu_0, # of connection points: 4
#     Node 18, Type 0, BuildingBlock: CEKHIL_clean_sbu_0, # of connection points: 4
#     Node 19, Type 0, BuildingBlock: CEKHIL_clean_sbu_0, # of connection points: 4
#     Node 20, Type 0, BuildingBlock: CEKHIL_clean_sbu_0, # of connection points: 4
#     Node 21, Type 0, BuildingBlock: CEKHIL_clean_sbu_0, # of connection points: 4
#     Node 22, Type 0, BuildingBlock: CEKHIL_clean_sbu_0, # of connection points: 4
#     Node 23, Type 0, BuildingBlock: CEKHIL_clean_sbu_0, # of connection points: 4
#     Node 24, Type 0, BuildingBlock: CEKHIL_clean_sbu_0, # of connection points: 4
#     Node 25, Type 0, BuildingBlock: CEKHIL_clean_sbu_0, # of connection points: 4
#     Node 26, Type 0, BuildingBlock: CEKHIL_clean_sbu_0, # of connection points: 4
#     Node 27, Type 0, BuildingBlock: CEKHIL_clean_sbu_0, # of connection points: 4
#     Node 28, Type 0, BuildingBlock: CEKHIL_clean_sbu_0, # of connection points: 4
#     Node 29, Type 0, BuildingBlock: CEKHIL_clean_sbu_0, # of connection points: 4
#     Node 30, Type 0, BuildingBlock: CEKHIL_clean_sbu_0, # of connection points: 4
#     Node 31, Type 0, BuildingBlock: CEKHIL_clean_sbu_0, # of connection points: 4
#     Node 32, Type 0, BuildingBlock: CEKHIL_clean_sbu_0, # of connection points: 4
#     Node 33, Type 0, BuildingBlock: CEKHIL_clean_sbu_0, # of connection points: 4
#     Node 34, Type 0, BuildingBlock: CEKHIL_clean_sbu_0, # of connection points: 4
#     Node 35, Type 0, BuildingBlock: CEKHIL_clean_sbu_0, # of connection points: 4
#     Node 36, Type 0, BuildingBlock: CEKHIL_clean_sbu_0, # of connection points: 4
#     Node 37, Type 0, BuildingBlock: CEKHIL_clean_sbu_0, # of connection points: 4
#     Node 38, Type 0, BuildingBlock: CEKHIL_clean_sbu_0, # of connection points: 4
#     Node 39, Type 0, BuildingBlock: CEKHIL_clean_sbu_0, # of connection points: 4
#     Node 40, Type 0, BuildingBlock: CEKHIL_clean_sbu_0, # of connection points: 4
#     Node 41, Type 0, BuildingBlock: CEKHIL_clean_sbu_0, # of connection points: 4
#     Node 42, Type 0, BuildingBlock: CEKHIL_clean_sbu_0, # of connection points: 4
#     Node 43, Type 0, BuildingBlock: CEKHIL_clean_sbu_0, # of connection points: 4
#     Node 44, Type 0, BuildingBlock: CEKHIL_clean_sbu_0, # of connection points: 4
#     Node 45, Type 0, BuildingBlock: CEKHIL_clean_sbu_0, # of connection points: 4
#     Node 46, Type 0, BuildingBlock: CEKHIL_clean_sbu_0, # of connection points: 4
#     Node 47, Type 0, BuildingBlock: CEKHIL_clean_sbu_0, # of connection points: 4
#     Edge 48, Type (0, 0), BuildingBlock: MIFKUJ_clean_linker_0, # of connection points: 2
#     Edge 49, Type (0, 0), BuildingBlock: MIFKUJ_clean_linker_0, # of connection points: 2
#     Edge 50, Type (0, 0), BuildingBlock: MIFKUJ_clean_linker_0, # of connection points: 2
#     Edge 51, Type (0, 0), BuildingBlock: MIFKUJ_clean_linker_0, # of connection points: 2
#     Edge 52, Type (0, 0), BuildingBlock: MIFKUJ_clean_linker_0, # of connection points: 2
#     Edge 53, Type (0, 0), BuildingBlock: MIFKUJ_clean_linker_0, # of connection points: 2
#     Edge 54, Type (0, 0), BuildingBlock: MIFKUJ_clean_linker_0, # of connection points: 2
#     Edge 55, Type (0, 0), BuildingBlock: MIFKUJ_clean_linker_0, # of connection points: 2
#     Edge 56, Type (0, 0), BuildingBlock: MIFKUJ_clean_linker_0, # of connection points: 2
#     Edge 57, Type (0, 0), BuildingBlock: MIFKUJ_clean_linker_0, # of connection points: 2
#     Edge 58, Type (0, 0), BuildingBlock: MIFKUJ_clean_linker_0, # of connection points: 2
#     Edge 59, Type (0, 0), BuildingBlock: MIFKUJ_clean_linker_0, # of connection points: 2
#     Edge 60, Type (0, 0), BuildingBlock: MIFKUJ_clean_linker_0, # of connection points: 2
#     Edge 61, Type (0, 0), BuildingBlock: MIFKUJ_clean_linker_0, # of connection points: 2
#     Edge 62, Type (0, 0), BuildingBlock: MIFKUJ_clean_linker_0, # of connection points: 2
#     Edge 63, Type (0, 0), BuildingBlock: MIFKUJ_clean_linker_0, # of connection points: 2
#     Edge 64, Type (0, 0), BuildingBlock: MIFKUJ_clean_linker_0, # of connection points: 2
#     Edge 65, Type (0, 0), BuildingBlock: MIFKUJ_clean_linker_0, # of connection points: 2
#     Edge 66, Type (0, 0), BuildingBlock: MIFKUJ_clean_linker_0, # of connection points: 2
#     Edge 67, Type (0, 0), BuildingBlock: MIFKUJ_clean_linker_0, # of connection points: 2
#     Edge 68, Type (0, 0), BuildingBlock: MIFKUJ_clean_linker_0, # of connection points: 2
#     Edge 69, Type (0, 0), BuildingBlock: MIFKUJ_clean_linker_0, # of connection points: 2
#     Edge 70, Type (0, 0), BuildingBlock: MIFKUJ_clean_linker_0, # of connection points: 2
#     Edge 71, Type (0, 0), BuildingBlock: MIFKUJ_clean_linker_0, # of connection points: 2
#     Edge 72, Type (0, 0), BuildingBlock: MIFKUJ_clean_linker_0, # of connection points: 2
#     Edge 73, Type (0, 0), BuildingBlock: MIFKUJ_clean_linker_0, # of connection points: 2
#     Edge 74, Type (0, 0), BuildingBlock: MIFKUJ_clean_linker_0, # of connection points: 2
#     Edge 75, Type (0, 0), BuildingBlock: MIFKUJ_clean_linker_0, # of connection points: 2
#     Edge 76, Type (0, 0), BuildingBlock: MIFKUJ_clean_linker_0, # of connection points: 2
#     Edge 77, Type (0, 0), BuildingBlock: MIFKUJ_clean_linker_0, # of connection points: 2
#     Edge 78, Type (0, 0), BuildingBlock: MIFKUJ_clean_linker_0, # of connection points: 2
#     Edge 79, Type (0, 0), BuildingBlock: MIFKUJ_clean_linker_0, # of connection points: 2
#     Edge 80, Type (0, 0), BuildingBlock: MIFKUJ_clean_linker_0, # of connection points: 2
#     Edge 81, Type (0, 0), BuildingBlock: MIFKUJ_clean_linker_0, # of connection points: 2
#     Edge 82, Type (0, 0), BuildingBlock: MIFKUJ_clean_linker_0, # of connection points: 2
#     Edge 83, Type (0, 0), BuildingBlock: MIFKUJ_clean_linker_0, # of connection points: 2
#     Edge 84, Type (0, 0), BuildingBlock: MIFKUJ_clean_linker_0, # of connection points: 2
#     Edge 85, Type (0, 0), BuildingBlock: MIFKUJ_clean_linker_0, # of connection points: 2
#     Edge 86, Type (0, 0), BuildingBlock: MIFKUJ_clean_linker_0, # of connection points: 2
#     Edge 87, Type (0, 0), BuildingBlock: MIFKUJ_clean_linker_0, # of connection points: 2
#     Edge 88, Type (0, 0), BuildingBlock: MIFKUJ_clean_linker_0, # of connection points: 2
#     Edge 89, Type (0, 0), BuildingBlock: MIFKUJ_clean_linker_0, # of connection points: 2
#     Edge 90, Type (0, 0), BuildingBlock: MIFKUJ_clean_linker_0, # of connection points: 2
#     Edge 91, Type (0, 0), BuildingBlock: MIFKUJ_clean_linker_0, # of connection points: 2
#     Edge 92, Type (0, 0), BuildingBlock: MIFKUJ_clean_linker_0, # of connection points: 2
#     Edge 93, Type (0, 0), BuildingBlock: MIFKUJ_clean_linker_0, # of connection points: 2
#     Edge 94, Type (0, 0), BuildingBlock: MIFKUJ_clean_linker_0, # of connection points: 2
#     Edge 95, Type (0, 0), BuildingBlock: MIFKUJ_clean_linker_0, # of connection points: 2
#     Edge 96, Type (0, 0), BuildingBlock: MIFKUJ_clean_linker_0, # of connection points: 2
#     Edge 97, Type (0, 0), BuildingBlock: MIFKUJ_clean_linker_0, # of connection points: 2
#     Edge 98, Type (0, 0), BuildingBlock: MIFKUJ_clean_linker_0, # of connection points: 2
#     Edge 99, Type (0, 0), BuildingBlock: MIFKUJ_clean_linker_0, # of connection points: 2
#     Edge 100, Type (0, 0), BuildingBlock: MIFKUJ_clean_linker_0, # of connection points: 2
#     Edge 101, Type (0, 0), BuildingBlock: MIFKUJ_clean_linker_0, # of connection points: 2
#     Edge 102, Type (0, 0), BuildingBlock: MIFKUJ_clean_linker_0, # of connection points: 2
#     Edge 103, Type (0, 0), BuildingBlock: MIFKUJ_clean_linker_0, # of connection points: 2
#     Edge 104, Type (0, 0), BuildingBlock: MIFKUJ_clean_linker_0, # of connection points: 2
#     Edge 105, Type (0, 0), BuildingBlock: MIFKUJ_clean_linker_0, # of connection points: 2
#     Edge 106, Type (0, 0), BuildingBlock: MIFKUJ_clean_linker_0, # of connection points: 2
#     Edge 107, Type (0, 0), BuildingBlock: MIFKUJ_clean_linker_0, # of connection points: 2
#     Edge 108, Type (0, 0), BuildingBlock: MIFKUJ_clean_linker_0, # of connection points: 2
#     Edge 109, Type (0, 0), BuildingBlock: MIFKUJ_clean_linker_0, # of connection points: 2
#     Edge 110, Type (0, 0), BuildingBlock: MIFKUJ_clean_linker_0, # of connection points: 2
#     Edge 111, Type (0, 0), BuildingBlock: MIFKUJ_clean_linker_0, # of connection points: 2
#     Edge 112, Type (0, 0), BuildingBlock: MIFKUJ_clean_linker_0, # of connection points: 2
#     Edge 113, Type (0, 0), BuildingBlock: MIFKUJ_clean_linker_0, # of connection points: 2
#     Edge 114, Type (0, 0), BuildingBlock: MIFKUJ_clean_linker_0, # of connection points: 2
#     Edge 115, Type (0, 0), BuildingBlock: MIFKUJ_clean_linker_0, # of connection points: 2
#     Edge 116, Type (0, 0), BuildingBlock: MIFKUJ_clean_linker_0, # of connection points: 2
#     Edge 117, Type (0, 0), BuildingBlock: MIFKUJ_clean_linker_0, # of connection points: 2
#     Edge 118, Type (0, 0), BuildingBlock: MIFKUJ_clean_linker_0, # of connection points: 2
#     Edge 119, Type (0, 0), BuildingBlock: MIFKUJ_clean_linker_0, # of connection points: 2
#     Edge 120, Type (0, 0), BuildingBlock: MIFKUJ_clean_linker_0, # of connection points: 2
#     Edge 121, Type (0, 0), BuildingBlock: MIFKUJ_clean_linker_0, # of connection points: 2
#     Edge 122, Type (0, 0), BuildingBlock: MIFKUJ_clean_linker_0, # of connection points: 2
#     Edge 123, Type (0, 0), BuildingBlock: MIFKUJ_clean_linker_0, # of connection points: 2
#     Edge 124, Type (0, 0), BuildingBlock: MIFKUJ_clean_linker_0, # of connection points: 2
#     Edge 125, Type (0, 0), BuildingBlock: MIFKUJ_clean_linker_0, # of connection points: 2
#     Edge 126, Type (0, 0), BuildingBlock: MIFKUJ_clean_linker_0, # of connection points: 2
#     Edge 127, Type (0, 0), BuildingBlock: MIFKUJ_clean_linker_0, # of connection points: 2
#     Edge 128, Type (0, 0), BuildingBlock: MIFKUJ_clean_linker_0, # of connection points: 2
#     Edge 129, Type (0, 0), BuildingBlock: MIFKUJ_clean_linker_0, # of connection points: 2
#     Edge 130, Type (0, 0), BuildingBlock: MIFKUJ_clean_linker_0, # of connection points: 2
#     Edge 131, Type (0, 0), BuildingBlock: MIFKUJ_clean_linker_0, # of connection points: 2
#     Edge 132, Type (0, 0), BuildingBlock: MIFKUJ_clean_linker_0, # of connection points: 2
#     Edge 133, Type (0, 0), BuildingBlock: MIFKUJ_clean_linker_0, # of connection points: 2
#     Edge 134, Type (0, 0), BuildingBlock: MIFKUJ_clean_linker_0, # of connection points: 2
#     Edge 135, Type (0, 0), BuildingBlock: MIFKUJ_clean_linker_0, # of connection points: 2
#     Edge 136, Type (0, 0), BuildingBlock: MIFKUJ_clean_linker_0, # of connection points: 2
#     Edge 137, Type (0, 0), BuildingBlock: MIFKUJ_clean_linker_0, # of connection points: 2
#     Edge 138, Type (0, 0), BuildingBlock: MIFKUJ_clean_linker_0, # of connection points: 2
#     Edge 139, Type (0, 0), BuildingBlock: MIFKUJ_clean_linker_0, # of connection points: 2
#     Edge 140, Type (0, 0), BuildingBlock: MIFKUJ_clean_linker_0, # of connection points: 2
#     Edge 141, Type (0, 0), BuildingBlock: MIFKUJ_clean_linker_0, # of connection points: 2
#     Edge 142, Type (0, 0), BuildingBlock: MIFKUJ_clean_linker_0, # of connection points: 2
#     Edge 143, Type (0, 0), BuildingBlock: MIFKUJ_clean_linker_0, # of connection points: 2
# Relax obj value: 0.303
# Max RMSD: 0.162
# Mean RMSD: 0.162
data_MOF--net-uko--node1-CEKHIL_clean_sbu_0--edge1-MIFKUJ_clean_linker_0
_symmetry_space_group_name_H-M    P1
_symmetry_Int_Tables_number       1
_symmetry_cell_setting            triclinic
loop_
_symmetry_equiv_pos_as_xyz
'x, y, z'
_cell_length_a     71.188264
_cell_length_b     71.201037
_cell_length_c     71.181314
_cell_angle_alpha  89.977538
_cell_angle_beta   89.980594
_cell_angle_gamma 90.006398
loop_
_atom_site_label
_atom_site_type_symbol
_atom_site_fract_x
_atom_site_fract_y
_atom_site_fract_z
_atom_type_partial_charge
Co0 Co 0.04722 0.36755 0.2174 0.0
O1 O 0.04744 0.34104 0.21304 0.0
O2 O 0.02215 0.35738 0.22085 0.0
C3 C 0.06437 0.37545 0.19207 0.0
O4 O 0.04193 0.39529 0.22219 0.0
Co5 Co 0.08523 0.38823 0.22441 0.0
O6 O 0.06946 0.41042 0.21847 0.0
C7 C 0.06816 0.36556 0.25469 0.0
C8 C 0.02963 0.34118 0.21682 0.0
C9 C 0.05161 0.41041 0.22001 0.0
O10 O 0.05313 0.36326 0.24488 0.0
O11 O 0.08289 0.37373 0.24837 0.0
O12 O 0.0464 0.37275 0.19029 0.0
O13 O 0.07134 0.37156 0.20828 0.0
Co14 Co 0.93952 0.12682 0.23119 0.0
O15 O 0.93206 0.15283 0.2302 0.0
O16 O 0.96147 0.14269 0.23068 0.0
C17 C 0.91914 0.11668 0.20911 0.0
O18 O 0.95286 0.10153 0.23162 0.0
Co19 Co 0.91169 0.09468 0.24193 0.0
O20 O 0.9315 0.0783 0.23126 0.0
C21 C 0.92651 0.12049 0.27104 0.0
C22 C 0.94987 0.15678 0.22998 0.0
C23 C 0.94837 0.08411 0.23 0.0
O24 O 0.93876 0.12736 0.2596 0.0
O25 O 0.91373 0.10882 0.26611 0.0
O26 O 0.93496 0.12428 0.20398 0.0
O27 O 0.91585 0.11675 0.22686 0.0
Co28 Co 0.05791 0.63615 0.2698 0.0
O29 O 0.05885 0.6614 0.27895 0.0
O30 O 0.03262 0.64554 0.27363 0.0
C31 C 0.08014 0.62406 0.2888 0.0
O32 O 0.05205 0.60968 0.26073 0.0
Co33 Co 0.09416 0.62017 0.25063 0.0
O34 O 0.07894 0.59685 0.24988 0.0
C35 C 0.06982 0.6463 0.22993 0.0
C36 C 0.04065 0.66112 0.2789 0.0
C37 C 0.06145 0.59589 0.25373 0.0
O38 O 0.05736 0.64541 0.24299 0.0
O39 O 0.08621 0.63904 0.23141 0.0
O40 O 0.06307 0.62608 0.29497 0.0
O41 O 0.08345 0.63152 0.27266 0.0
Co42 Co 0.94924 0.87432 0.28859 0.0
O43 O 0.94255 0.84845 0.29256 0.0
O44 O 0.97111 0.85856 0.28537 0.0
C45 C 0.93412 0.88562 0.31386 0.0
O46 O 0.96151 0.89974 0.28386 0.0
Co47 Co 0.91873 0.90485 0.28173 0.0
O48 O 0.93969 0.92237 0.287 0.0
C49 C 0.93084 0.88033 0.2504 0.0
C50 C 0.96002 0.84451 0.28913 0.0
C51 C 0.95667 0.91707 0.28532 0.0
O52 O 0.94289 0.87205 0.26105 0.0
O53 O 0.91951 0.89305 0.25619 0.0
O54 O 0.9509 0.87868 0.31574 0.0
O55 O 0.92665 0.88423 0.29745 0.0
Co56 Co 0.21442 0.05688 0.36976 0.0
O57 O 0.20705 0.05775 0.34394 0.0
O58 O 0.21779 0.03235 0.35836 0.0
C59 C 0.18943 0.07263 0.38079 0.0
O60 O 0.22286 0.05102 0.39653 0.0
Co61 Co 0.22216 0.09456 0.39074 0.0
O62 O 0.22164 0.07793 0.41308 0.0
C63 C 0.25009 0.07969 0.36397 0.0
C64 C 0.21167 0.04018 0.34297 0.0
C65 C 0.22366 0.06017 0.41212 0.0
O66 O 0.24085 0.06421 0.36257 0.0
O67 O 0.2441 0.09395 0.37315 0.0
O68 O 0.18809 0.05466 0.37787 0.0
O69 O 0.20486 0.08042 0.37555 0.0
Co70 Co 0.77332 0.43861 0.37036 0.0
O71 O 0.77574 0.43222 0.34423 0.0
O72 O 0.77413 0.46122 0.35543 0.0
C73 C 0.79534 0.41833 0.38051 0.0
O74 O 0.7712 0.45079 0.3961 0.0
Co75 Co 0.76171 0.40929 0.40065 0.0
O76 O 0.77167 0.4284 0.41831 0.0
C77 C 0.73282 0.42645 0.37587 0.0
C78 C 0.77567 0.45016 0.34097 0.0
C79 C 0.77239 0.44557 0.41334 0.0
O80 O 0.74509 0.43745 0.36836 0.0
O81 O 0.73696 0.41378 0.38797 0.0
O82 O 0.80039 0.43473 0.37424 0.0
O83 O 0.77771 0.41451 0.37944 0.0
Co84 Co 0.21971 0.9383 0.13319 0.0
O85 O 0.21734 0.93481 0.15976 0.0
O86 O 0.21668 0.96242 0.14542 0.0
C87 C 0.19975 0.91519 0.12526 0.0
O88 O 0.2213 0.94706 0.10601 0.0
Co89 Co 0.23533 0.90578 0.10832 0.0
O90 O 0.22607 0.92188 0.08753 0.0
C91 C 0.26096 0.92804 0.13215 0.0
C92 C 0.21597 0.95291 0.16104 0.0
C93 C 0.22252 0.9393 0.08973 0.0
O94 O 0.24789 0.94001 0.13571 0.0
O95 O 0.25824 0.91271 0.12315 0.0
O96 O 0.19316 0.93171 0.12938 0.0
O97 O 0.21754 0.91297 0.12738 0.0
Co98 Co 0.78517 0.54711 0.12948 0.0
O99 O 0.79142 0.54799 0.15562 0.0
O100 O 0.77991 0.52303 0.14101 0.0
C101 C 0.81146 0.56116 0.11908 0.0
O102 O 0.77763 0.54111 0.1026 0.0
Co103 Co 0.7806 0.58466 0.10726 0.0
O104 O 0.78044 0.56745 0.08532 0.0
C105 C 0.75099 0.57226 0.13337 0.0
C106 C 0.78582 0.53068 0.15655 0.0
C107 C 0.77761 0.54982 0.08676 0.0
O108 O 0.75887 0.55609 0.13517 0.0
O109 O 0.75843 0.58604 0.12452 0.0
O110 O 0.81166 0.54323 0.12253 0.0
O111 O 0.79633 0.56992 0.12356 0.0
Co112 Co 0.38075 0.2241 0.04232 0.0
O113 O 0.35506 0.22297 0.05066 0.0
O114 O 0.36413 0.22306 0.02089 0.0
C115 C 0.39174 0.20255 0.06264 0.0
O116 O 0.40586 0.22461 0.02838 0.0
Co117 Co 0.41281 0.23681 0.06921 0.0
O118 O 0.42878 0.22452 0.05008 0.0
C119 C 0.38711 0.26502 0.05284 0.0
C120 C 0.35045 0.22264 0.03302 0.0
C121 C 0.42321 0.22278 0.03318 0.0
O122 O 0.37948 0.25238 0.04242 0.0
O123 O 0.39984 0.26146 0.06505 0.0
O124 O 0.38367 0.19713 0.04718 0.0
O125 O 0.39152 0.22035 0.06588 0.0
Co126 Co 0.36702 0.78258 0.45511 0.0
O127 O 0.34139 0.78914 0.44981 0.0
O128 O 0.35436 0.78928 0.47812 0.0
C129 C 0.37988 0.79888 0.43118 0.0
O130 O 0.39289 0.77707 0.46596 0.0
Co131 Co 0.39086 0.76 0.426 0.0
O132 O 0.41194 0.76751 0.44257 0.0
C133 C 0.36151 0.74101 0.44826 0.0
C134 C 0.3395 0.79172 0.46776 0.0
C135 C 0.40917 0.77272 0.45946 0.0
O136 O 0.3594 0.75556 0.45871 0.0
O137 O 0.37203 0.74052 0.43369 0.0
O138 O 0.37548 0.8075 0.44669 0.0
O139 O 0.37494 0.78152 0.4302 0.0
Co140 Co 0.62248 0.71601 0.44883 0.0
O141 O 0.64824 0.70956 0.44383 0.0
O142 O 0.63641 0.71518 0.47208 0.0
C143 C 0.60912 0.69425 0.4301 0.0
O144 O 0.59676 0.72257 0.45955 0.0
Co145 Co 0.59681 0.73068 0.41633 0.0
O146 O 0.57712 0.73021 0.43588 0.0
C147 C 0.62485 0.75592 0.43328 0.0
C148 C 0.65098 0.71116 0.4618 0.0
C149 C 0.58053 0.7274 0.45322 0.0
O150 O 0.62889 0.74352 0.44582 0.0
O151 O 0.61347 0.75297 0.41969 0.0
O152 O 0.61483 0.68955 0.44681 0.0
O153 O 0.61344 0.711 0.42479 0.0
Co154 Co 0.1203 0.76852 0.53968 0.0
O155 O 0.14584 0.76943 0.54865 0.0
O156 O 0.13728 0.77128 0.51878 0.0
C157 C 0.10864 0.78863 0.56115 0.0
O158 O 0.09579 0.76882 0.52488 0.0
Co159 Co 0.08671 0.75494 0.5641 0.0
O160 O 0.07184 0.76914 0.54538 0.0
C161 C 0.11262 0.72718 0.54694 0.0
C162 C 0.1507 0.77139 0.53116 0.0
C163 C 0.07838 0.77139 0.52891 0.0
O164 O 0.12162 0.74022 0.53815 0.0
O165 O 0.09907 0.73036 0.55834 0.0
O166 O 0.11694 0.79511 0.54622 0.0
O167 O 0.10878 0.77065 0.56309 0.0
Co168 Co 0.94544 0.62693 0.77272 0.0
O169 O 0.94167 0.65366 0.77421 0.0
O170 O 0.96941 0.63966 0.77276 0.0
C171 C 0.92453 0.61947 0.79528 0.0
O172 O 0.9551 0.6 0.77183 0.0
Co173 Co 0.91333 0.59925 0.76218 0.0
O174 O 0.9305 0.58033 0.77314 0.0
C175 C 0.93259 0.62105 0.73238 0.0
C176 C 0.95984 0.65518 0.7739 0.0
C177 C 0.9481 0.58347 0.77393 0.0
O178 O 0.94414 0.62814 0.74439 0.0
O179 O 0.91907 0.61006 0.73685 0.0
O180 O 0.94148 0.62453 0.7999 0.0
O181 O 0.9206 0.6203 0.77764 0.0
Co182 Co 0.05219 0.8696 0.77355 0.0
O183 O 0.05831 0.84332 0.77557 0.0
O184 O 0.02944 0.85491 0.77445 0.0
C185 C 0.07264 0.87984 0.79539 0.0
O186 O 0.04024 0.89555 0.7721 0.0
Co187 Co 0.08158 0.89958 0.76122 0.0
O188 O 0.06328 0.91712 0.77271 0.0
C189 C 0.06369 0.87514 0.73275 0.0
C190 C 0.04031 0.84028 0.77562 0.0
C191 C 0.04603 0.91256 0.77395 0.0
O192 O 0.05291 0.86777 0.74529 0.0
O193 O 0.07649 0.88721 0.73648 0.0
O194 O 0.05648 0.87306 0.80056 0.0
O195 O 0.07636 0.87867 0.77771 0.0
Co196 Co 0.94871 0.37293 0.71396 0.0
O197 O 0.94488 0.34653 0.71036 0.0
O198 O 0.97216 0.35966 0.71766 0.0
C199 C 0.93276 0.38231 0.68845 0.0
O200 O 0.95788 0.39963 0.71829 0.0
Co201 Co 0.91429 0.39933 0.72011 0.0
O202 O 0.93326 0.41924 0.71553 0.0
C203 C 0.928 0.37564 0.75129 0.0
C204 C 0.96259 0.34448 0.71409 0.0
C205 C 0.95085 0.41624 0.71714 0.0
O206 O 0.94227 0.37039 0.74146 0.0
O207 O 0.91468 0.3858 0.74476 0.0
O208 O 0.9502 0.37721 0.68673 0.0
O209 O 0.92537 0.38002 0.70478 0.0
Co210 Co 0.04724 0.12827 0.73243 0.0
O211 O 0.05336 0.15311 0.72382 0.0
O212 O 0.0247 0.14328 0.73097 0.0
C213 C 0.06448 0.11202 0.71147 0.0
O214 O 0.03569 0.10366 0.74117 0.0
Co215 Co 0.07963 0.10312 0.74849 0.0
O216 O 0.05881 0.08505 0.75237 0.0
C217 C 0.06573 0.13507 0.77017 0.0
C218 C 0.03558 0.15686 0.72538 0.0
C219 C 0.04159 0.08831 0.74865 0.0
O220 O 0.05125 0.13636 0.75941 0.0
O221 O 0.07984 0.1246 0.76646 0.0
O222 O 0.04812 0.11847 0.70653 0.0
O223 O 0.07052 0.1176 0.72755 0.0
Co224 Co 0.77786 0.95227 0.63395 0.0
O225 O 0.78231 0.94943 0.66032 0.0
O226 O 0.77829 0.97675 0.646 0.0
C227 C 0.80037 0.93223 0.62453 0.0
O228 O 0.7735 0.96019 0.60679 0.0
Co229 Co 0.76522 0.91719 0.61082 0.0
O230 O 0.77195 0.93379 0.58942 0.0
C231 C 0.73835 0.93645 0.63573 0.0
C232 C 0.78128 0.96755 0.66155 0.0
C233 C 0.77311 0.95161 0.59087 0.0
O234 O 0.7499 0.95012 0.63822 0.0
O235 O 0.74249 0.92134 0.62691 0.0
O236 O 0.80476 0.94952 0.62838 0.0
O237 O 0.78333 0.92742 0.62809 0.0
Co238 Co 0.22668 0.55034 0.62593 0.0
O239 O 0.22616 0.55722 0.6521 0.0
O240 O 0.22598 0.52803 0.64137 0.0
C241 C 0.20475 0.57106 0.61627 0.0
O242 O 0.22663 0.53772 0.60019 0.0
Co243 Co 0.23778 0.57895 0.59461 0.0
O244 O 0.2257 0.56018 0.57804 0.0
C245 C 0.26732 0.56053 0.61747 0.0
C246 C 0.22578 0.53935 0.65571 0.0
C247 C 0.22449 0.54304 0.58303 0.0
O248 O 0.25506 0.55048 0.62622 0.0
O249 O 0.26309 0.57305 0.60526 0.0
O250 O 0.19959 0.55516 0.62365 0.0
O251 O 0.22252 0.57439 0.61651 0.0
Co252 Co 0.78322 0.05179 0.87847 0.0
O253 O 0.78715 0.05904 0.85271 0.0
O254 O 0.78654 0.0297 0.86308 0.0
C255 C 0.80288 0.07308 0.89112 0.0
O256 O 0.78013 0.0389 0.90394 0.0
Co257 Co 0.76611 0.07968 0.90748 0.0
O258 O 0.77597 0.06128 0.92581 0.0
C259 C 0.74158 0.06149 0.87945 0.0
C260 C 0.78819 0.04123 0.84898 0.0
C261 C 0.77914 0.04429 0.92119 0.0
O262 O 0.75527 0.05109 0.87387 0.0
O263 O 0.74331 0.07436 0.89189 0.0
O264 O 0.80956 0.05747 0.88438 0.0
O265 O 0.78518 0.07584 0.88855 0.0
Co266 Co 0.2196 0.45172 0.87268 0.0
O267 O 0.21641 0.44811 0.84614 0.0
O268 O 0.22363 0.47523 0.8595 0.0
C269 C 0.19379 0.43562 0.8814 0.0
O270 O 0.22348 0.46073 0.89962 0.0
Co271 Co 0.22541 0.41677 0.89876 0.0
O272 O 0.22221 0.43565 0.91893 0.0
C273 C 0.25632 0.43013 0.87455 0.0
C274 C 0.22012 0.46584 0.84421 0.0
C275 C 0.22309 0.45332 0.91613 0.0
O276 O 0.24716 0.44521 0.87053 0.0
O277 O 0.2493 0.41647 0.88391 0.0
O278 O 0.19213 0.453 0.87607 0.0
O279 O 0.21022 0.42836 0.87965 0.0
Co280 Co 0.62987 0.78272 0.95037 0.0
O281 O 0.65521 0.79172 0.952 0.0
O282 O 0.63915 0.77926 0.97568 0.0
C283 C 0.61859 0.80719 0.93394 0.0
O284 O 0.60342 0.77264 0.95397 0.0
Co285 Co 0.61241 0.77426 0.91098 0.0
O286 O 0.58938 0.76908 0.92583 0.0
C287 C 0.63901 0.7475 0.92794 0.0
C288 C 0.65471 0.78661 0.96948 0.0
C289 C 0.58919 0.76827 0.94373 0.0
O290 O 0.63887 0.75671 0.9435 0.0
O291 O 0.63111 0.75338 0.91289 0.0
O292 O 0.62005 0.80853 0.9521 0.0
O293 O 0.62538 0.79223 0.9265 0.0
Co294 Co 0.62562 0.21974 0.54729 0.0
O295 O 0.65126 0.21582 0.55499 0.0
O296 O 0.64192 0.21988 0.52557 0.0
C297 C 0.61308 0.19724 0.56569 0.0
O298 O 0.60058 0.22346 0.53387 0.0
Co299 Co 0.59429 0.23136 0.57562 0.0
O300 O 0.57762 0.22173 0.55548 0.0
C301 C 0.6212 0.2598 0.56146 0.0
C302 C 0.65565 0.21722 0.53734 0.0
C303 C 0.58321 0.22164 0.53849 0.0
O304 O 0.62874 0.24775 0.55024 0.0
O305 O 0.60814 0.25569 0.57314 0.0
O306 O 0.62035 0.19266 0.54955 0.0
O307 O 0.6149 0.21456 0.57045 0.0
Co308 Co 0.37745 0.28392 0.54929 0.0
O309 O 0.35189 0.28542 0.55817 0.0
O310 O 0.36038 0.28353 0.52828 0.0
C311 C 0.38882 0.30679 0.56782 0.0
O312 O 0.402 0.28261 0.53455 0.0
Co313 Co 0.41072 0.27356 0.57572 0.0
O314 O 0.42622 0.28318 0.55476 0.0
C315 C 0.3851 0.24384 0.56196 0.0
C316 C 0.34695 0.28473 0.54062 0.0
C317 C 0.41966 0.28404 0.53815 0.0
O318 O 0.37653 0.25567 0.55129 0.0
O319 O 0.39827 0.24842 0.57333 0.0
O320 O 0.38029 0.31119 0.55229 0.0
O321 O 0.38889 0.28926 0.57225 0.0
Co322 Co 0.87345 0.21537 0.45797 0.0
O323 O 0.84658 0.21593 0.45685 0.0
O324 O 0.86322 0.22095 0.4827 0.0
C325 C 0.87712 0.18866 0.44157 0.0
O326 O 0.9015 0.21561 0.46393 0.0
Co327 Co 0.89595 0.21783 0.42037 0.0
O328 O 0.91697 0.2101 0.43687 0.0
C329 C 0.87896 0.25202 0.43655 0.0
C330 C 0.84685 0.21991 0.47459 0.0
C331 C 0.91666 0.21198 0.45469 0.0
O332 O 0.87427 0.24294 0.45148 0.0
O333 O 0.88636 0.24421 0.42213 0.0
O334 O 0.87369 0.18783 0.45948 0.0
O335 O 0.87644 0.20511 0.43413 0.0
Co336 Co 0.55098 0.86706 0.71785 0.0
O337 O 0.55443 0.84089 0.71263 0.0
O338 O 0.52709 0.85411 0.71945 0.0
C339 C 0.56874 0.87751 0.6939 0.0
O340 O 0.54214 0.89366 0.72347 0.0
Co341 Co 0.58549 0.89213 0.72775 0.0
O342 O 0.56733 0.91274 0.72301 0.0
C343 C 0.56977 0.86623 0.75618 0.0
C344 C 0.53652 0.83897 0.71537 0.0
C345 C 0.54962 0.91012 0.72354 0.0
O346 O 0.55573 0.86242 0.74543 0.0
O347 O 0.58369 0.87643 0.75104 0.0
O348 O 0.55127 0.87312 0.69088 0.0
O349 O 0.57501 0.87412 0.7105 0.0
Co350 Co 0.45467 0.62052 0.72495 0.0
O351 O 0.44783 0.64662 0.72481 0.0
O352 O 0.47704 0.63591 0.724 0.0
C353 C 0.43355 0.61139 0.70327 0.0
O354 O 0.46699 0.5946 0.72432 0.0
Co355 Co 0.426 0.58954 0.73651 0.0
O356 O 0.44373 0.5734 0.72246 0.0
C357 C 0.44502 0.6121 0.76578 0.0
C358 C 0.46568 0.65024 0.72409 0.0
C359 C 0.46102 0.57781 0.72118 0.0
O360 O 0.455 0.62063 0.75332 0.0
O361 O 0.43234 0.59997 0.76181 0.0
O362 O 0.44943 0.6187 0.69796 0.0
O363 O 0.43048 0.61136 0.72111 0.0
Co364 Co 0.55257 0.12431 0.76481 0.0
O365 O 0.55824 0.1507 0.7645 0.0
O366 O 0.5302 0.13863 0.77053 0.0
C367 C 0.5778 0.11563 0.78175 0.0
O368 O 0.54157 0.09789 0.76701 0.0
Co369 Co 0.57952 0.09482 0.74704 0.0
O370 O 0.56539 0.07751 0.76357 0.0
C371 C 0.55398 0.11686 0.72274 0.0
C372 C 0.54073 0.15347 0.76874 0.0
C373 C 0.54856 0.08126 0.76835 0.0
O374 O 0.54673 0.12513 0.73709 0.0
O375 O 0.56742 0.10496 0.72375 0.0
O376 O 0.56291 0.12203 0.79018 0.0
O377 O 0.57744 0.11615 0.76365 0.0
Co378 Co 0.44856 0.36639 0.78768 0.0
O379 O 0.44654 0.33987 0.79196 0.0
O380 O 0.47294 0.35466 0.78469 0.0
C381 C 0.43126 0.37503 0.8126 0.0
O382 O 0.45601 0.39358 0.78288 0.0
Co383 Co 0.4126 0.39016 0.77989 0.0
O384 O 0.43006 0.41159 0.78339 0.0
C385 C 0.42814 0.36569 0.75026 0.0
C386 C 0.46441 0.33894 0.78855 0.0
C387 C 0.44787 0.40973 0.78271 0.0
O388 O 0.44299 0.36266 0.76013 0.0
O389 O 0.41384 0.37473 0.75638 0.0
O390 O 0.44898 0.37126 0.81486 0.0
O391 O 0.4245 0.37206 0.79612 0.0
Co392 Co 0.71751 0.55297 0.87169 0.0
O393 O 0.71741 0.55534 0.84486 0.0
O394 O 0.72092 0.52852 0.86027 0.0
C395 C 0.6923 0.57128 0.87647 0.0
O396 O 0.71772 0.54508 0.89921 0.0
Co397 Co 0.72253 0.58793 0.89741 0.0
O398 O 0.71327 0.57065 0.91713 0.0
C399 C 0.75574 0.5706 0.87927 0.0
C400 C 0.71974 0.53728 0.84425 0.0
C401 C 0.7144 0.55291 0.91517 0.0
O402 O 0.74556 0.55739 0.87221 0.0
O403 O 0.74903 0.58432 0.88876 0.0
O404 O 0.68994 0.55367 0.87233 0.0
O405 O 0.70931 0.57736 0.8763 0.0
Co406 Co 0.2748 0.95154 0.87624 0.0
O407 O 0.27655 0.94636 0.84979 0.0
O408 O 0.2756 0.97484 0.86227 0.0
C409 C 0.29672 0.93058 0.88532 0.0
O410 O 0.27369 0.9623 0.90281 0.0
Co411 Co 0.26288 0.92063 0.90491 0.0
O412 O 0.2752 0.93794 0.92281 0.0
C413 C 0.23391 0.94063 0.88274 0.0
C414 C 0.27668 0.96442 0.84729 0.0
C415 C 0.2761 0.95548 0.91939 0.0
O416 O 0.24644 0.95103 0.8748 0.0
O417 O 0.23775 0.9275 0.89442 0.0
O418 O 0.30187 0.94703 0.87926 0.0
O419 O 0.27904 0.92699 0.88413 0.0
Co420 Co 0.73106 0.45025 0.62846 0.0
O421 O 0.73116 0.44272 0.65443 0.0
O422 O 0.728 0.47199 0.6443 0.0
C423 C 0.71155 0.42737 0.61848 0.0
O424 O 0.72973 0.46342 0.6031 0.0
Co425 Co 0.74493 0.42386 0.59636 0.0
O426 O 0.73047 0.44149 0.58043 0.0
C427 C 0.77248 0.4443 0.62012 0.0
C428 C 0.72883 0.46037 0.65838 0.0
C429 C 0.7276 0.45825 0.58594 0.0
O430 O 0.75929 0.45322 0.62875 0.0
O431 O 0.76938 0.43152 0.60785 0.0
O432 O 0.70463 0.44246 0.6261 0.0
O433 O 0.72958 0.42615 0.61849 0.0
Co434 Co 0.27212 0.05939 0.63375 0.0
O435 O 0.27288 0.06299 0.66047 0.0
O436 O 0.27412 0.03533 0.64629 0.0
C437 C 0.293 0.08198 0.62635 0.0
O438 O 0.27228 0.05052 0.60648 0.0
Co439 Co 0.25808 0.09169 0.60771 0.0
O440 O 0.27087 0.07638 0.58837 0.0
C441 C 0.23054 0.06854 0.62839 0.0
C442 C 0.27412 0.04487 0.66189 0.0
C443 C 0.27362 0.05881 0.59044 0.0
O444 O 0.2438 0.05792 0.63459 0.0
O445 O 0.23348 0.08323 0.61842 0.0
O446 O 0.29887 0.06554 0.63172 0.0
O447 O 0.27513 0.08466 0.62756 0.0
Co448 Co 0.86942 0.72866 0.54218 0.0
O449 O 0.84332 0.72837 0.54945 0.0
O450 O 0.85375 0.72723 0.52015 0.0
C451 C 0.87897 0.70754 0.56384 0.0
O452 O 0.89474 0.72804 0.52894 0.0
Co453 Co 0.90185 0.74 0.56925 0.0
O454 O 0.91775 0.72709 0.55043 0.0
C455 C 0.87792 0.76934 0.55154 0.0
C456 C 0.83954 0.72727 0.53162 0.0
C457 C 0.91203 0.72564 0.53355 0.0
O458 O 0.86926 0.75705 0.54143 0.0
O459 O 0.8903 0.76505 0.56388 0.0
O460 O 0.87157 0.70173 0.54817 0.0
O461 O 0.87925 0.72544 0.56618 0.0
Co462 Co 0.87959 0.28789 0.94901 0.0
O463 O 0.85361 0.2901 0.94194 0.0
O464 O 0.86385 0.28622 0.97107 0.0
C465 C 0.89008 0.31188 0.93138 0.0
O466 O 0.90518 0.28553 0.9617 0.0
Co467 Co 0.90998 0.27854 0.91881 0.0
O468 O 0.92746 0.2854 0.93926 0.0
C469 C 0.8854 0.24845 0.93331 0.0
C470 C 0.84971 0.28825 0.95966 0.0
C471 C 0.92248 0.28609 0.95644 0.0
O472 O 0.87825 0.25982 0.94542 0.0
O473 O 0.89732 0.25349 0.92081 0.0
O474 O 0.8826 0.31528 0.94768 0.0
O475 O 0.88937 0.29473 0.9257 0.0
Co476 Co 0.1324 0.2212 0.95086 0.0
O477 O 0.15899 0.21855 0.94774 0.0
O478 O 0.14516 0.22766 0.97408 0.0
C479 C 0.1247 0.19378 0.9373 0.0
O480 O 0.10519 0.22483 0.95914 0.0
Co481 Co 0.10681 0.22281 0.91528 0.0
O482 O 0.08659 0.21958 0.93412 0.0
C483 C 0.12875 0.25622 0.92641 0.0
C484 C 0.16063 0.22384 0.96508 0.0
C485 C 0.08887 0.22249 0.95165 0.0
O486 O 0.13383 0.24813 0.94181 0.0
O487 O 0.11935 0.24787 0.91355 0.0
O488 O 0.12951 0.19403 0.9549 0.0
O489 O 0.12629 0.20942 0.9284 0.0
Co490 Co 0.63376 0.27943 0.04779 0.0
O491 O 0.66008 0.28406 0.05106 0.0
O492 O 0.64651 0.27782 0.02377 0.0
C493 C 0.62372 0.30348 0.06555 0.0
O494 O 0.60693 0.2745 0.03921 0.0
Co495 Co 0.60936 0.26943 0.08287 0.0
O496 O 0.58839 0.27248 0.06477 0.0
C497 C 0.63508 0.24132 0.06687 0.0
C498 C 0.66179 0.28159 0.03309 0.0
C499 C 0.59065 0.27313 0.047 0.0
O500 O 0.63781 0.25173 0.05234 0.0
O501 O 0.6259 0.2467 0.08137 0.0
O502 O 0.62839 0.30649 0.04816 0.0
O503 O 0.62693 0.28687 0.0719 0.0
Co504 Co 0.44804 0.12949 0.27976 0.0
O505 O 0.44447 0.15596 0.28366 0.0
O506 O 0.47162 0.14254 0.2764 0.0
C507 C 0.43145 0.12029 0.30498 0.0
O508 O 0.45736 0.10277 0.27554 0.0
Co509 Co 0.41397 0.10275 0.27301 0.0
O510 O 0.43285 0.08294 0.27778 0.0
C511 C 0.42743 0.1275 0.24243 0.0
C512 C 0.4623 0.15777 0.2803 0.0
C513 C 0.45043 0.08613 0.27671 0.0
O514 O 0.44189 0.13239 0.25218 0.0
O515 O 0.41426 0.1171 0.24887 0.0
O516 O 0.44885 0.12537 0.30713 0.0
O517 O 0.42451 0.1223 0.28844 0.0
Co518 Co 0.5443 0.37529 0.27472 0.0
O519 O 0.55074 0.3501 0.28201 0.0
O520 O 0.52236 0.35944 0.27324 0.0
C521 C 0.55943 0.38986 0.29842 0.0
O522 O 0.5322 0.4 0.26685 0.0
Co523 Co 0.57605 0.40381 0.26397 0.0
O524 O 0.55494 0.42193 0.26469 0.0
C525 C 0.56549 0.37352 0.23771 0.0
C526 C 0.53326 0.34591 0.27891 0.0
C527 C 0.53773 0.41707 0.26476 0.0
O528 O 0.55093 0.36946 0.24769 0.0
O529 O 0.57801 0.38537 0.24286 0.0
O530 O 0.54282 0.38285 0.30135 0.0
O531 O 0.56674 0.38627 0.2823 0.0
Co532 Co 0.44421 0.8737 0.2135 0.0
O533 O 0.44113 0.84807 0.20564 0.0
O534 O 0.46731 0.86009 0.21747 0.0
C535 C 0.43058 0.88723 0.18847 0.0
O536 O 0.45282 0.89937 0.22256 0.0
Co537 Co 0.40883 0.89848 0.22123 0.0
O538 O 0.42769 0.91827 0.22626 0.0
C539 C 0.42108 0.87107 0.24968 0.0
C540 C 0.4584 0.84553 0.21093 0.0
C541 C 0.44533 0.91525 0.22674 0.0
O542 O 0.43561 0.86693 0.23972 0.0
O543 O 0.40817 0.88228 0.24416 0.0
O544 O 0.44803 0.88196 0.18744 0.0
O545 O 0.42168 0.88247 0.20348 0.0
Co546 Co 0.55353 0.63318 0.22097 0.0
O547 O 0.55644 0.6598 0.22393 0.0
O548 O 0.52912 0.64509 0.2213 0.0
C549 C 0.5757 0.63031 0.19878 0.0
O550 O 0.54505 0.60612 0.21716 0.0
Co551 Co 0.58608 0.60532 0.2288 0.0
O552 O 0.57069 0.58824 0.21312 0.0
C553 C 0.56405 0.62096 0.26053 0.0
C554 C 0.53827 0.66082 0.2231 0.0
C555 C 0.553 0.59066 0.21222 0.0
O556 O 0.55319 0.62987 0.24912 0.0
O557 O 0.57815 0.61112 0.25522 0.0
O558 O 0.55877 0.63519 0.19406 0.0
O559 O 0.57892 0.62841 0.2165 0.0
Co560 Co 0.27297 0.44554 0.13412 0.0
O561 O 0.27694 0.44192 0.16051 0.0
O562 O 0.27621 0.46963 0.14638 0.0
C563 C 0.29296 0.42299 0.12439 0.0
O564 O 0.26997 0.45436 0.107 0.0
Co565 Co 0.25649 0.41271 0.11001 0.0
O566 O 0.26554 0.42868 0.08905 0.0
C567 C 0.23217 0.43391 0.136 0.0
C568 C 0.2782 0.46004 0.16184 0.0
C569 C 0.2689 0.44619 0.09088 0.0
O570 O 0.24486 0.44659 0.13825 0.0
O571 O 0.23487 0.41861 0.12696 0.0
O572 O 0.29943 0.43947 0.1289 0.0
O573 O 0.27539 0.4204 0.12771 0.0
Co574 Co 0.7134 0.04526 0.1226 0.0
O575 O 0.71045 0.05158 0.1487 0.0
O576 O 0.71582 0.02292 0.13791 0.0
C577 C 0.68882 0.06222 0.11248 0.0
O578 O 0.71662 0.03325 0.09675 0.0
Co579 Co 0.72123 0.07599 0.0925 0.0
O580 O 0.71439 0.05578 0.07475 0.0
C581 C 0.75209 0.06268 0.11691 0.0
C582 C 0.71295 0.03389 0.15226 0.0
C583 C 0.71521 0.03855 0.07951 0.0
O584 O 0.7413 0.05018 0.12434 0.0
O585 O 0.74643 0.07477 0.10486 0.0
O586 O 0.686 0.04547 0.11915 0.0
O587 O 0.70574 0.0685 0.11341 0.0
Co588 Co 0.28162 0.54861 0.37481 0.0
O589 O 0.28786 0.55448 0.34927 0.0
O590 O 0.28844 0.52589 0.36158 0.0
C591 C 0.29784 0.57241 0.38773 0.0
O592 O 0.27665 0.53737 0.40073 0.0
Co593 Co 0.25947 0.57701 0.39968 0.0
O594 O 0.26955 0.56119 0.4202 0.0
C595 C 0.23941 0.55406 0.37148 0.0
C596 C 0.2906 0.53662 0.34692 0.0
C597 C 0.27415 0.54414 0.41732 0.0
O598 O 0.25453 0.54512 0.36727 0.0
O599 O 0.23868 0.56759 0.38329 0.0
O600 O 0.30649 0.5569 0.38341 0.0
O601 O 0.28045 0.5734 0.38289 0.0
Co602 Co 0.73112 0.94948 0.36913 0.0
O603 O 0.72923 0.94486 0.34264 0.0
O604 O 0.72478 0.97254 0.3561 0.0
C605 C 0.71441 0.92421 0.37842 0.0
O606 O 0.73137 0.95915 0.39613 0.0
Co607 Co 0.75142 0.9202 0.39485 0.0
O608 O 0.73827 0.93451 0.41477 0.0
C609 C 0.77349 0.94529 0.3704 0.0
C610 C 0.72529 0.96255 0.34079 0.0
C611 C 0.73259 0.95134 0.41242 0.0
O612 O 0.75882 0.95502 0.36632 0.0
O613 O 0.77316 0.93016 0.38008 0.0
O614 O 0.70574 0.93938 0.37311 0.0
O615 O 0.73235 0.92432 0.37612 0.0
Co616 Co 0.13542 0.28617 0.44632 0.0
O617 O 0.16119 0.29376 0.44687 0.0
O618 O 0.14529 0.28364 0.47163 0.0
C619 C 0.12488 0.31046 0.42913 0.0
O620 O 0.10852 0.27751 0.45068 0.0
Co621 Co 0.11746 0.27685 0.40735 0.0
O622 O 0.0943 0.27404 0.42259 0.0
C623 C 0.14206 0.24913 0.42581 0.0
C624 C 0.16113 0.28954 0.46458 0.0
C625 C 0.09405 0.27368 0.4405 0.0
O626 O 0.14302 0.25948 0.4406 0.0
O627 O 0.13411 0.25443 0.41057 0.0
O628 O 0.12686 0.31241 0.44717 0.0
O629 O 0.13099 0.29498 0.42212 0.0
Co630 Co 0.1265 0.70391 0.04604 0.0
O631 O 0.15257 0.69772 0.04853 0.0
O632 O 0.13919 0.7077 0.02226 0.0
C633 C 0.1153 0.67869 0.06143 0.0
O634 O 0.09994 0.71113 0.03834 0.0
Co635 Co 0.10265 0.71118 0.08214 0.0
O636 O 0.08165 0.70837 0.064 0.0
C637 C 0.12879 0.74025 0.06846 0.0
C638 C 0.15438 0.70248 0.03104 0.0
C639 C 0.08376 0.71057 0.04635 0.0
O640 O 0.13194 0.73072 0.05342 0.0
O641 O 0.11888 0.73416 0.08219 0.0
O642 O 0.11953 0.67724 0.04371 0.0
O643 O 0.11952 0.69438 0.06929 0.0
Co644 Co 0.86718 0.773 0.06325 0.0
O645 O 0.84129 0.77877 0.06803 0.0
O646 O 0.85345 0.7739 0.03978 0.0
C647 C 0.87938 0.79499 0.08252 0.0
O648 O 0.89335 0.76734 0.0531 0.0
Co649 Co 0.89212 0.75881 0.09661 0.0
O650 O 0.9122 0.75954 0.0774 0.0
C651 C 0.86561 0.73287 0.07825 0.0
C652 C 0.8388 0.77783 0.05001 0.0
C653 C 0.90938 0.76257 0.05997 0.0
O654 O 0.86192 0.74516 0.06549 0.0
O655 O 0.87571 0.7364 0.0927 0.0
O656 O 0.8739 0.79968 0.06575 0.0
O657 O 0.87548 0.77806 0.08751 0.0
Co658 Co 0.37044 0.72466 0.94508 0.0
O659 O 0.34401 0.72494 0.93967 0.0
O660 O 0.35625 0.7233 0.96823 0.0
C661 C 0.37853 0.70329 0.92324 0.0
O662 O 0.39702 0.72339 0.95585 0.0
Co663 Co 0.39949 0.73712 0.91475 0.0
O664 O 0.41667 0.7227 0.93112 0.0
C665 C 0.37904 0.76581 0.93659 0.0
C666 C 0.34134 0.72376 0.95766 0.0
C667 C 0.41334 0.7205 0.94857 0.0
O668 O 0.37066 0.75301 0.94624 0.0
O669 O 0.39042 0.76235 0.9231 0.0
O670 O 0.37175 0.69783 0.9393 0.0
O671 O 0.37827 0.72117 0.92031 0.0
H672 H 0.92882 0.18888 0.22976 0.0
H673 H 0.94 0.22129 0.22762 0.0
H674 H 0.9972 0.20143 0.22494 0.0
H675 H 0.98614 0.16903 0.22743 0.0
H676 H 0.99468 0.22995 0.24841 0.0
H677 H 0.97374 0.21725 0.18568 0.0
H678 H 0.95145 0.20767 0.16096 0.0
H679 H 0.91421 0.25239 0.17677 0.0
H680 H 0.93618 0.26208 0.20177 0.0
H681 H 0.0433 0.30618 0.21064 0.0
H682 H 0.02682 0.27637 0.21315 0.0
H683 H 0.97538 0.30552 0.22627 0.0
H684 H 0.99195 0.3358 0.22387 0.0
H685 H 0.97234 0.27409 0.19927 0.0
H686 H 0.9961 0.28775 0.26099 0.0
H687 H 0.02053 0.29741 0.28357 0.0
H688 H 0.05447 0.25021 0.26753 0.0
H689 H 0.03038 0.24045 0.24461 0.0
C690 C 0.94378 0.19142 0.22872 0.0
C691 C 0.95661 0.1764 0.22876 0.0
C692 C 0.95014 0.20996 0.2274 0.0
C693 C 0.96943 0.2138 0.22593 0.0
C694 C 0.98225 0.19881 0.22608 0.0
C695 C 0.97591 0.18029 0.22746 0.0
C696 C 0.97636 0.23343 0.22456 0.0
C697 C 0.98986 0.23952 0.23757 0.0
C698 C 0.96979 0.24612 0.21068 0.0
C699 C 0.95649 0.24024 0.19575 0.0
C700 C 0.96071 0.22492 0.18401 0.0
C701 C 0.94816 0.2195 0.16992 0.0
C702 C 0.93139 0.22937 0.16735 0.0
C703 C 0.92718 0.24472 0.17882 0.0
C704 C 0.93968 0.2502 0.19294 0.0
C705 C 0.02845 0.30637 0.21396 0.0
C706 C 0.01894 0.32337 0.21721 0.0
C707 C 0.01907 0.28927 0.21539 0.0
C708 C -3e-05 0.28877 0.22008 0.0
C709 C 0.99017 0.30569 0.22268 0.0
C710 C -0.00037 0.32292 0.22136 0.0
C711 C 0.99072 0.27037 0.22296 0.0
C712 C 0.97687 0.26454 0.21025 0.0
C713 C 0.99712 0.25781 0.23696 0.0
C714 C 0.01148 0.26344 0.251 0.0
C715 C 0.00883 0.2795 0.26219 0.0
C716 C 0.0226 0.28499 0.27506 0.0
C717 C 0.03905 0.27445 0.27696 0.0
C718 C 0.04172 0.25837 0.26604 0.0
C719 C 0.028 0.25284 0.25312 0.0
H720 H 0.04971 0.27873 0.28692 0.0
H721 H 0.9217 0.22516 0.15642 0.0
H722 H 0.00236 0.66647 0.27835 0.0
H723 H 0.98551 0.69617 0.2832 0.0
H724 H 0.03815 0.72425 0.29392 0.0
H725 H 0.05486 0.6948 0.28965 0.0
H726 H 0.01263 0.73726 0.31684 0.0
H727 H 0.01641 0.72496 0.25015 0.0
H728 H 0.0112 0.7064 0.22137 0.0
H729 H 0.95161 0.70825 0.23062 0.0
H730 H 0.9565 0.72662 0.25962 0.0
H731 H 0.99635 0.83204 0.28989 0.0
H732 H 0.00721 0.79937 0.29093 0.0
H733 H 0.94979 0.78009 0.28989 0.0
H734 H 0.93882 0.81266 0.2891 0.0
H735 H 0.97389 0.76138 0.26416 0.0
H736 H 0.97112 0.77756 0.32944 0.0
H737 H 0.97756 0.79687 0.35745 0.0
H738 H 0.03683 0.78863 0.34987 0.0
H739 H 0.03075 0.7695 0.32163 0.0
C740 C 0.01026 0.67894 0.28199 0.0
C741 C 0.02994 0.67832 0.28346 0.0
C742 C 0.00065 0.69591 0.28467 0.0
C743 C 0.0106 0.71251 0.28864 0.0
C744 C 0.03015 0.71167 0.29086 0.0
C745 C 0.0397 0.69478 0.28832 0.0
C746 C 0.00106 0.73104 0.28957 0.0
C747 C 0.00423 0.74255 0.30528 0.0
C748 C 0.9898 0.73786 0.27464 0.0
C749 C 0.98683 0.72696 0.25715 0.0
C750 C 0.0022 0.7213 0.24611 0.0
C751 C 0.99931 0.71083 0.22975 0.0
C752 C 0.98109 0.7061 0.2242 0.0
C753 C 0.96572 0.71189 0.23496 0.0
C754 C 0.96854 0.72233 0.25136 0.0
C755 C 0.98606 0.82084 0.28989 0.0
C756 C 0.96675 0.82489 0.28946 0.0
C757 C 0.99226 0.80221 0.29055 0.0
C758 C 0.97927 0.78736 0.29061 0.0
C759 C 0.96001 0.79137 0.2899 0.0
C760 C 0.95379 0.80998 0.28949 0.0
C761 C 0.98584 0.76764 0.29122 0.0
C762 C 0.98209 0.75597 0.27581 0.0
C763 C 0.99676 0.76075 0.30631 0.0
C764 C 0.00048 0.77223 0.32331 0.0
C765 C 0.98553 0.78 0.33364 0.0
C766 C 0.98912 0.79089 0.34958 0.0
C767 C 0.0076 0.79401 0.35541 0.0
C768 C 0.02253 0.78621 0.34533 0.0
C769 C 0.01902 0.77533 0.32936 0.0
H770 H 0.01035 0.80243 0.36776 0.0
H771 H 0.97887 0.69799 0.21153 0.0
H772 H 0.20992 0.99017 0.16899 0.0
H773 H 0.20791 0.00471 0.20016 0.0
H774 H 0.21676 0.95061 0.22605 0.0
H775 H 0.21823 0.93601 0.19517 0.0
H776 H 0.19058 0.96876 0.24437 0.0
H777 H 0.25231 0.9834 0.22141 0.0
H778 H 0.2754 0.99602 0.19885 0.0
H779 H 0.25173 0.05113 0.20492 0.0
H780 H 0.22823 0.03879 0.22721 0.0
H781 H 0.21851 0.00283 0.33568 0.0
H782 H 0.21808 0.98728 0.30484 0.0
H783 H 0.20259 0.03964 0.27858 0.0
H784 H 0.20289 0.05513 0.30905 0.0
H785 H 0.23223 0.02213 0.2608 0.0
H786 H 0.17041 0.00693 0.28383 0.0
H787 H 0.14752 0.99396 0.30637 0.0
H788 H 0.17241 0.93932 0.30069 0.0
H789 H 0.19563 0.95204 0.2783 0.0
C790 C 0.21136 0.98141 0.18135 0.0
C791 C 0.21429 0.96198 0.17963 0.0
C792 C 0.21028 0.98972 0.19914 0.0
C793 C 0.21242 0.97877 0.21546 0.0
C794 C 0.21504 0.95934 0.2137 0.0
C795 C 0.21595 0.95103 0.196 0.0
C796 C 0.21224 0.98746 0.23441 0.0
C797 C 0.19986 0.98028 0.24802 0.0
C798 C 0.22416 0.00266 0.23912 0.0
C799 C 0.23839 0.01013 0.22583 0.0
C800 C 0.25194 0.99819 0.21783 0.0
C801 C 0.26511 0.00529 0.20511 0.0
C802 C 0.26503 0.02435 0.20045 0.0
C803 C 0.25177 0.03636 0.20852 0.0
C804 C 0.23851 0.02932 0.22119 0.0
C805 C 0.21491 0.01095 0.32333 0.0
C806 C 0.21075 0.03019 0.3248 0.0
C807 C 0.21463 0.00207 0.30576 0.0
C808 C 0.21029 0.01235 0.28946 0.0
C809 C 0.20603 0.03149 0.29097 0.0
C810 C 0.20615 0.04029 0.30844 0.0
C811 C 0.21058 0.00344 0.27067 0.0
C812 C 0.223 0.01057 0.25712 0.0
C813 C 0.19882 0.98814 0.26607 0.0
C814 C 0.1849 0.98048 0.27956 0.0
C815 C 0.17112 0.99219 0.28753 0.0
C816 C 0.15806 0.98488 0.30024 0.0
C817 C 0.15855 0.96584 0.30501 0.0
C818 C 0.17207 0.95407 0.29702 0.0
C819 C 0.18518 0.96132 0.28431 0.0
H820 H 0.14841 0.9602 0.31485 0.0
H821 H 0.27525 0.02982 0.1906 0.0
H822 H 0.79279 0.54548 0.19096 0.0
H823 H 0.79213 0.52967 0.22122 0.0
H824 H 0.77839 0.47737 0.19385 0.0
H825 H 0.77848 0.49338 0.16328 0.0
H826 H 0.75727 0.48202 0.22403 0.0
H827 H 0.82291 0.48576 0.21176 0.0
H828 H 0.85287 0.50072 0.20292 0.0
H829 H 0.84864 0.53786 0.25024 0.0
H830 H 0.81851 0.52331 0.25922 0.0
H831 H 0.77445 0.43024 0.30831 0.0
H832 H 0.77706 0.44228 0.27625 0.0
H833 H 0.78325 0.49857 0.29776 0.0
H834 H 0.78057 0.48663 0.32994 0.0
H835 H 0.80949 0.48916 0.26966 0.0
H836 H 0.74257 0.486 0.28035 0.0
H837 H 0.71305 0.47014 0.28915 0.0
H838 H 0.72067 0.43048 0.24436 0.0
H839 H 0.75041 0.44594 0.23547 0.0
C840 C 0.78971 0.53058 0.1913 0.0
C841 C 0.78577 0.52064 0.17471 0.0
C842 C 0.78944 0.52153 0.20865 0.0
C843 C 0.78557 0.50225 0.2098 0.0
C844 C 0.78152 0.49225 0.19327 0.0
C845 C 0.78161 0.50138 0.17583 0.0
C846 C 0.7852 0.49287 0.22842 0.0
C847 C 0.76885 0.48327 0.23386 0.0
C848 C 0.80018 0.49475 0.24139 0.0
C849 C 0.81836 0.50352 0.23608 0.0
C850 C 0.82829 0.49721 0.22021 0.0
C851 C 0.84532 0.5056 0.21518 0.0
C852 C 0.85264 0.52025 0.22599 0.0
C853 C 0.84296 0.52651 0.24187 0.0
C854 C 0.82591 0.51818 0.24695 0.0
C855 C 0.77636 0.44519 0.30623 0.0
C856 C 0.77725 0.45751 0.32163 0.0
C857 C 0.77781 0.45203 0.28791 0.0
C858 C 0.78023 0.4713 0.28467 0.0
C859 C 0.78137 0.48363 0.30001 0.0
C860 C 0.77977 0.47681 0.31835 0.0
C861 C 0.78151 0.47863 0.26525 0.0
C862 C 0.79803 0.4878 0.25971 0.0
C863 C 0.76677 0.4762 0.25215 0.0
C864 C 0.74882 0.467 0.25737 0.0
C865 C 0.73803 0.4738 0.27247 0.0
C866 C 0.72125 0.4649 0.27746 0.0
C867 C 0.71502 0.44928 0.26735 0.0
C868 C 0.72553 0.44256 0.2522 0.0
C869 C 0.74235 0.45139 0.24717 0.0
H870 H 0.70202 0.44241 0.27124 0.0
H871 H 0.86582 0.52673 0.22207 0.0
H872 H 0.33634 0.22252 0.99727 0.0
H873 H 0.3033 0.22338 0.98785 0.0
H874 H 0.28649 0.22328 0.04608 0.0
H875 H 0.31947 0.22218 0.05561 0.0
H876 H 0.26453 0.20012 0.02546 0.0
H877 H 0.28592 0.26356 0.02159 0.0
H878 H 0.30713 0.28922 0.01203 0.0
H879 H 0.29536 0.27778 0.95399 0.0
H880 H 0.2743 0.25183 0.9632 0.0
H881 H 0.16954 0.22711 0.00256 0.0
H882 H 0.20119 0.22777 0.01642 0.0
H883 H 0.22553 0.22427 0.96103 0.0
H884 H 0.19425 0.22352 0.9472 0.0
H885 H 0.24273 0.25101 0.9831 0.0
H886 H 0.22316 0.18608 0.98734 0.0
H887 H 0.2023 0.16019 0.99708 0.0
H888 H 0.21055 0.1749 0.055 0.0
H889 H 0.23127 0.20106 0.04556 0.0
C890 C 0.32561 0.2226 0.00807 0.0
C891 C 0.33051 0.22239 0.02718 0.0
C892 C 0.30674 0.22316 0.00267 0.0
C893 C 0.29244 0.22366 0.01628 0.0
C894 C 0.29729 0.22296 0.03536 0.0
C895 C 0.31615 0.22238 0.04077 0.0
C896 C 0.27245 0.22525 0.01056 0.0
C897 C 0.25969 0.21142 0.01645 0.0
C898 C 0.26617 0.23991 0.99869 0.0
C899 C 0.27865 0.25565 0.99308 0.0
C900 C 0.28795 0.26643 0.00678 0.0
C901 C 0.29993 0.28104 0.00143 0.0
C902 C 0.30261 0.28511 0.98241 0.0
C903 C 0.29328 0.2746 0.96871 0.0
C904 C 0.2813 0.25995 0.97399 0.0
C905 C 0.18167 0.22659 0.99338 0.0
C906 C 0.17942 0.2252 0.97382 0.0
C907 C 0.1997 0.2269 0.0013 0.0
C908 C 0.21568 0.22598 0.98973 0.0
C909 C 0.2134 0.22502 0.9702 0.0
C910 C 0.19549 0.22452 0.96234 0.0
C911 C 0.23491 0.22571 0.99772 0.0
C912 C 0.24754 0.23983 0.99228 0.0
C913 C 0.24102 0.21137 0.01006 0.0
C914 C 0.22856 0.19567 0.01573 0.0
C915 C 0.22038 0.18391 0.00214 0.0
C916 C 0.20862 0.16916 0.00761 0.0
C917 C 0.20505 0.16594 0.02664 0.0
C918 C 0.21329 0.17744 0.04025 0.0
C919 C 0.22504 0.19222 0.03485 0.0
H920 H 0.19595 0.15451 0.03085 0.0
H921 H 0.3119 0.29642 0.97829 0.0
H922 H 0.3297 0.79079 0.50489 0.0
H923 H 0.29783 0.79095 0.51782 0.0
H924 H 0.27525 0.80008 0.46234 0.0
H925 H 0.30701 0.8 0.44932 0.0
H926 H 0.25559 0.81962 0.49054 0.0
H927 H 0.27788 0.7569 0.47697 0.0
H928 H 0.30173 0.73186 0.47916 0.0
H929 H 0.2956 0.73091 0.53918 0.0
H930 H 0.27189 0.75616 0.53734 0.0
H931 H 0.16435 0.78058 0.49652 0.0
H932 H 0.19701 0.7868 0.48783 0.0
H933 H 0.21449 0.77515 0.54466 0.0
H934 H 0.18182 0.76892 0.55349 0.0
H935 H 0.23732 0.75816 0.51804 0.0
H936 H 0.21227 0.81923 0.53089 0.0
H937 H 0.18973 0.84539 0.52829 0.0
H938 H 0.20127 0.84988 0.46924 0.0
H939 H 0.22369 0.82355 0.47144 0.0
C940 C 0.31798 0.79326 0.49551 0.0
C941 C 0.32082 0.79514 0.47606 0.0
C942 C 0.29979 0.7933 0.50291 0.0
C943 C 0.28422 0.79526 0.49097 0.0
C944 C 0.2871 0.79851 0.47176 0.0
C945 C 0.30525 0.79838 0.46435 0.0
C946 C 0.26497 0.79189 0.49807 0.0
C947 C 0.25152 0.80618 0.49645 0.0
C948 C 0.25982 0.7744 0.50598 0.0
C949 C 0.27327 0.75853 0.50704 0.0
C950 C 0.28166 0.75138 0.49064 0.0
C951 C 0.29518 0.7372 0.49181 0.0
C952 C 0.30029 0.72993 0.50932 0.0
C953 C 0.2917 0.73664 0.52564 0.0
C954 C 0.2782 0.75087 0.52454 0.0
C955 C 0.17515 0.77927 0.50715 0.0
C956 C 0.17052 0.77431 0.5257 0.0
C957 C 0.19378 0.78291 0.50219 0.0
C958 C 0.20812 0.78163 0.51566 0.0
C959 C 0.20361 0.77627 0.53409 0.0
C960 C 0.18495 0.77275 0.5391 0.0
C961 C 0.22781 0.78589 0.51045 0.0
C962 C 0.24137 0.7717 0.51232 0.0
C963 C 0.23301 0.80345 0.50268 0.0
C964 C 0.21953 0.81929 0.5013 0.0
C965 C 0.20988 0.82568 0.51732 0.0
C966 C 0.19715 0.84057 0.51592 0.0
C967 C 0.19404 0.84926 0.4986 0.0
C968 C 0.20368 0.84312 0.48265 0.0
C969 C 0.21642 0.82823 0.48396 0.0
H970 H 0.18418 0.86079 0.49755 0.0
H971 H 0.31082 0.719 0.51021 0.0
H972 H 0.80734 0.72613 0.55249 0.0
H973 H 0.77512 0.7225 0.54115 0.0
H974 H 0.7953 0.72097 0.48402 0.0
H975 H 0.82756 0.72478 0.49524 0.0
H976 H 0.76462 0.74312 0.48731 0.0
H977 H 0.78255 0.68094 0.50607 0.0
H978 H 0.79465 0.65667 0.52762 0.0
H979 H 0.74973 0.66807 0.56624 0.0
H980 H 0.7375 0.69261 0.54503 0.0
H981 H 0.684 0.70714 0.44286 0.0
H982 H 0.71578 0.70881 0.45564 0.0
H983 H 0.69319 0.71468 0.51155 0.0
H984 H 0.66121 0.71306 0.49885 0.0
H985 H 0.72465 0.69043 0.50946 0.0
H986 H 0.70667 0.75248 0.49041 0.0
H987 H 0.69426 0.77618 0.46846 0.0
H988 H 0.73932 0.76468 0.43003 0.0
H989 H 0.75185 0.74065 0.45167 0.0
C990 C 0.80492 0.72507 0.53751 0.0
C991 C 0.82 0.72567 0.52476 0.0
C992 C 0.78651 0.72291 0.53106 0.0
C993 C 0.78283 0.72124 0.51175 0.0
C994 C 0.79783 0.7222 0.49898 0.0
C995 C 0.81625 0.72434 0.50542 0.0
C996 C 0.76335 0.71849 0.50487 0.0
C997 C 0.75598 0.73146 0.49198 0.0
C998 C 0.75192 0.70351 0.51128 0.0
C999 C 0.75923 0.68875 0.52405 0.0
C1000 C 0.77534 0.67838 0.51924 0.0
C1001 C 0.7822 0.66456 0.53137 0.0
C1002 C 0.77299 0.66086 0.54831 0.0
C1003 C 0.75687 0.67097 0.55313 0.0
C1004 C 0.74996 0.68483 0.54105 0.0
C1005 C 0.68575 0.70856 0.4579 0.0
C1006 C 0.67009 0.71009 0.46984 0.0
C1007 C 0.70393 0.70957 0.46517 0.0
C1008 C 0.7068 0.71211 0.48449 0.0
C1009 C 0.69124 0.71277 0.49658 0.0
C1010 C 0.673 0.71188 0.4893 0.0
C1011 C 0.72604 0.71499 0.49188 0.0
C1012 C 0.73333 0.70208 0.50484 0.0
C1013 C 0.73742 0.73 0.48553 0.0
C1014 C 0.73009 0.74463 0.47259 0.0
C1015 C 0.71385 0.7549 0.47722 0.0
C1016 C 0.7068 0.76841 0.46483 0.0
C1017 C 0.71596 0.7719 0.44782 0.0
C1018 C 0.73223 0.76193 0.4432 0.0
C1019 C 0.73932 0.74837 0.45553 0.0
H1020 H 0.71048 0.78237 0.43825 0.0
H1021 H 0.77833 0.65015 0.55769 0.0
H1022 H 0.05982 0.80728 0.77545 0.0
H1023 H 0.04711 0.77538 0.77636 0.0
H1024 H 0.99086 0.79774 0.77902 0.0
H1025 H 0.00347 0.82972 0.77819 0.0
H1026 H 0.99648 0.76854 0.80398 0.0
H1027 H 0.00733 0.78149 0.73848 0.0
H1028 H 0.02635 0.79116 0.71118 0.0
H1029 H 0.0644 0.74543 0.72111 0.0
H1030 H 0.04576 0.73567 0.74868 0.0
H1031 H 0.94299 0.68934 0.77764 0.0
H1032 H 0.958 0.72011 0.77929 0.0
H1033 H 0.01246 0.69404 0.77421 0.0
H1034 H 0.99748 0.66308 0.77238 0.0
H1035 H 0.00932 0.72447 0.75152 0.0
H1036 H 0.99806 0.71057 0.81612 0.0
H1037 H 0.97963 0.70105 0.84387 0.0
H1038 H 0.94299 0.74833 0.83615 0.0
H1039 H 0.96105 0.75799 0.80818 0.0
C1040 C 0.04475 0.80542 0.77628 0.0
C1041 C 0.03263 0.82101 0.77666 0.0
C1042 C 0.03751 0.78718 0.77676 0.0
C1043 C 0.01804 0.78421 0.77759 0.0
C1044 C 0.00593 0.79974 0.77836 0.0
C1045 C 0.01315 0.818 0.77781 0.0
C1046 C 0.01027 0.76489 0.77731 0.0
C1047 C 0.9991 0.75896 0.79242 0.0
C1048 C 0.01416 0.75225 0.76247 0.0
C1049 C 0.02526 0.75797 0.74576 0.0
C1050 C 0.01983 0.77358 0.73493 0.0
C1051 C 0.03053 0.77907 0.7194 0.0
C1052 C 0.0466 0.76894 0.71444 0.0
C1053 C 0.05197 0.75328 0.72499 0.0
C1054 C 0.04134 0.74776 0.74056 0.0
C1055 C 0.95817 0.69012 0.7769 0.0
C1056 C 0.96906 0.67377 0.77491 0.0
C1057 C 0.96673 0.70772 0.77794 0.0
C1058 C 0.98636 0.70936 0.7771 0.0
C1059 C 0.99729 0.69308 0.77494 0.0
C1060 C 0.98872 0.67542 0.77393 0.0
C1061 C 0.99535 0.72813 0.77812 0.0
C1062 C 0.00677 0.73399 0.76314 0.0
C1063 C 0.99173 0.74068 0.79313 0.0
C1064 C 0.98081 0.73491 0.80994 0.0
C1065 C 0.98598 0.71885 0.82024 0.0
C1066 C 0.97561 0.71345 0.83603 0.0
C1067 C 0.96012 0.72405 0.84174 0.0
C1068 C 0.95498 0.74011 0.83169 0.0
C1069 C 0.96529 0.74557 0.81588 0.0
H1070 H 0.95212 0.71985 0.85397 0.0
H1071 H 0.05487 0.77322 0.70241 0.0
H1072 H 0.99912 0.16901 0.72679 0.0
H1073 H 0.98768 0.2012 0.72276 0.0
H1074 H 0.04427 0.22011 0.71214 0.0
H1075 H 0.05581 0.18804 0.71618 0.0
H1076 H 0.02611 0.24181 0.73829 0.0
H1077 H 0.01361 0.21728 0.67654 0.0
H1078 H 0.00046 0.19489 0.65362 0.0
H1079 H 0.94478 0.20659 0.67366 0.0
H1080 H 0.95762 0.22886 0.69688 0.0
H1081 H -3e-05 0.33515 0.71323 0.0
H1082 H 0.0135 0.30348 0.71319 0.0
H1083 H 0.95781 0.27969 0.71646 0.0
H1084 H 0.9443 0.31111 0.71575 0.0
H1085 H 0.97707 0.26066 0.69254 0.0
H1086 H 0.9883 0.28254 0.7555 0.0
H1087 H 0.00019 0.30428 0.7797 0.0
H1088 H 0.05643 0.29688 0.75914 0.0
H1089 H 0.04483 0.27522 0.73469 0.0
C1090 C 0.00909 0.18 0.72344 0.0
C1091 C 0.02836 0.176 0.72182 0.0
C1092 C 0.00254 0.19836 0.72108 0.0
C1093 C 0.01514 0.21301 0.71707 0.0
C1094 C 0.03433 0.209 0.71524 0.0
C1095 C 0.04088 0.19066 0.71751 0.0
C1096 C 0.00841 0.23265 0.71553 0.0
C1097 C 0.01559 0.24603 0.72809 0.0
C1098 C 0.99435 0.23798 0.70256 0.0
C1099 C 0.98661 0.22462 0.68857 0.0
C1100 C 0.99858 0.21496 0.67617 0.0
C1101 C 0.99118 0.20232 0.6631 0.0
C1102 C 0.9718 0.19929 0.66222 0.0
C1103 C 0.95979 0.20893 0.67437 0.0
C1104 C 0.96712 0.22158 0.68748 0.0
C1105 C 0.99067 0.32314 0.71396 0.0
C1106 C 0.9711 0.32558 0.71449 0.0
C1107 C 0.99839 0.30505 0.71401 0.0
C1108 C 0.98668 0.28917 0.71502 0.0
C1109 C 0.96714 0.29168 0.71559 0.0
C1110 C 0.95944 0.30968 0.71524 0.0
C1111 C 0.99459 0.26986 0.71546 0.0
C1112 C 0.98765 0.25652 0.70268 0.0
C1113 C 0.00867 0.26448 0.72844 0.0
C1114 C 0.01568 0.27742 0.74316 0.0
C1115 C 0.00319 0.28565 0.75607 0.0
C1116 C 0.00988 0.29794 0.76984 0.0
C1117 C 0.02905 0.30201 0.77092 0.0
C1118 C 0.04158 0.29374 0.75827 0.0
C1119 C 0.03496 0.28144 0.74447 0.0
H1120 H 0.03421 0.31153 0.78158 0.0
H1121 H 0.9661 0.18949 0.65209 0.0
H1122 H 0.79328 0.06234 0.81739 0.0
H1123 H 0.79444 0.05149 0.78485 0.0
H1124 H 0.7882 0.99422 0.80367 0.0
H1125 H 0.78736 0.00496 0.83632 0.0
H1126 H 0.81372 0.99664 0.77605 0.0
H1127 H 0.75094 0.01908 0.78668 0.0
H1128 H 0.72671 0.04211 0.79579 0.0
H1129 H 0.7458 0.0797 0.75263 0.0
H1130 H 0.77036 0.05701 0.74346 0.0
H1131 H 0.78108 0.95071 0.69569 0.0
H1132 H 0.78438 0.96517 0.72642 0.0
H1133 H 0.78937 0.01971 0.70045 0.0
H1134 H 0.78549 0.00522 0.66932 0.0
H1135 H 0.76686 0.02107 0.7306 0.0
H1136 H 0.82833 0.99644 0.71847 0.0
H1137 H 0.85144 0.97228 0.70941 0.0
H1138 H 0.8339 0.93772 0.75564 0.0
H1139 H 0.81052 0.96155 0.76484 0.0
C1140 C 0.79229 0.04742 0.81463 0.0
C1141 C 0.79013 0.0345 0.82942 0.0
C1142 C 0.79287 0.04125 0.79601 0.0
C1143 C 0.79112 0.02207 0.79181 0.0
C1144 C 0.78954 0.00909 0.80659 0.0
C1145 C 0.78903 0.01525 0.82524 0.0
C1146 C 0.79048 0.01555 0.77201 0.0
C1147 C 0.80339 0.00187 0.76615 0.0
C1148 C 0.7773 0.02273 0.75895 0.0
C1149 C 0.7626 0.03643 0.76451 0.0
C1150 C 0.75008 0.03233 0.77924 0.0
C1151 C 0.73627 0.0453 0.7844 0.0
C1152 C 0.73473 0.06234 0.77479 0.0
C1153 C 0.74702 0.06648 0.76006 0.0
C1154 C 0.76089 0.05358 0.75487 0.0
C1155 C 0.78293 0.96579 0.69643 0.0
C1156 C 0.78317 0.97682 0.68005 0.0
C1157 C 0.78493 0.97403 0.71406 0.0
C1158 C 0.78757 0.99348 0.71576 0.0
C1159 C 0.7875 0.00464 0.69945 0.0
C1160 C 0.7853 0.99637 0.6817 0.0
C1161 C 0.78995 0.00196 0.73468 0.0
C1162 C 0.77737 0.01601 0.7404 0.0
C1163 C 0.80336 0.99503 0.74766 0.0
C1164 C 0.81759 0.98076 0.74228 0.0
C1165 C 0.82933 0.98365 0.72665 0.0
C1166 C 0.84249 0.97001 0.72149 0.0
C1167 C 0.84412 0.95346 0.73193 0.0
C1168 C 0.83263 0.95054 0.74757 0.0
C1169 C 0.81944 0.96412 0.75278 0.0
H1170 H 0.8543 0.94292 0.7279 0.0
H1171 H 0.72394 0.07229 0.7787 0.0
H1172 H 0.22943 0.50211 0.83475 0.0
H1173 H 0.2305 0.51583 0.80312 0.0
H1174 H 0.21228 0.46304 0.77961 0.0
H1175 H 0.21146 0.44926 0.81093 0.0
H1176 H 0.24112 0.47669 0.76033 0.0
H1177 H 0.18233 0.5009 0.7839 0.0
H1178 H 0.16199 0.51798 0.80615 0.0
H1179 H 0.19354 0.5685 0.79668 0.0
H1180 H 0.21423 0.55166 0.77454 0.0
H1181 H 0.21784 0.50376 0.66777 0.0
H1182 H 0.21674 0.49237 0.70017 0.0
H1183 H 0.23192 0.54754 0.72017 0.0
H1184 H 0.23232 0.55915 0.68784 0.0
H1185 H 0.20585 0.53382 0.74177 0.0
H1186 H 0.26421 0.51005 0.71775 0.0
H1187 H 0.28468 0.49316 0.69548 0.0
H1188 H 0.25448 0.44203 0.70606 0.0
H1189 H 0.23368 0.45867 0.72822 0.0
C1190 C 0.2256 0.49348 0.82282 0.0
C1191 C 0.2204 0.4746 0.82534 0.0
C1192 C 0.22615 0.50134 0.80477 0.0
C1193 C 0.22136 0.49048 0.78898 0.0
C1194 C 0.21608 0.47168 0.79155 0.0
C1195 C 0.21559 0.46383 0.8095 0.0
C1196 C 0.22223 0.49839 0.76967 0.0
C1197 C 0.23324 0.48907 0.75623 0.0
C1198 C 0.21238 0.51484 0.76443 0.0
C1199 C 0.19995 0.52497 0.77772 0.0
C1200 C 0.18503 0.51561 0.78668 0.0
C1201 C 0.17341 0.52526 0.79925 0.0
C1202 C 0.1765 0.5443 0.80287 0.0
C1203 C 0.19119 0.55375 0.79388 0.0
C1204 C 0.20285 0.54416 0.78132 0.0
C1205 C 0.22096 0.51345 0.67908 0.0
C1206 C 0.22525 0.53232 0.67526 0.0
C1207 C 0.22041 0.50691 0.6976 0.0
C1208 C 0.22457 0.51901 0.71265 0.0
C1209 C 0.22868 0.53792 0.70883 0.0
C1210 C 0.22896 0.54452 0.69034 0.0
C1211 C 0.22459 0.51198 0.73235 0.0
C1212 C 0.21379 0.52148 0.74588 0.0
C1213 C 0.2347 0.49571 0.73773 0.0
C1214 C 0.24729 0.48565 0.72452 0.0
C1215 C 0.26187 0.49523 0.71524 0.0
C1216 C 0.27354 0.4857 0.70265 0.0
C1217 C 0.27086 0.46654 0.69933 0.0
C1218 C 0.25654 0.45687 0.70863 0.0
C1219 C 0.24481 0.46634 0.72122 0.0
H1220 H 0.27991 0.45919 0.68957 0.0
H1221 H 0.1675 0.55174 0.81259 0.0
H1222 H 0.66888 0.76045 0.99342 0.0
H1223 H 0.69978 0.76089 0.00844 0.0
H1224 H 0.70926 0.81694 0.98712 0.0
H1225 H 0.67903 0.81576 0.97089 0.0
H1226 H 0.73843 0.79968 0.98151 0.0
H1227 H 0.70063 0.80509 0.03641 0.0
H1228 H 0.67538 0.79711 0.05876 0.0
H1229 H 0.7004 0.74307 0.06827 0.0
H1230 H 0.72569 0.75064 0.04579 0.0
H1231 H 0.80915 0.79532 0.06639 0.0
H1232 H 0.77759 0.79952 0.05377 0.0
H1233 H 0.79399 0.77053 0.00308 0.0
H1234 H 0.82593 0.76705 0.01539 0.0
H1235 H 0.75176 0.7768 0.04591 0.0
H1236 H 0.76841 0.78456 0.96605 0.0
H1237 H 0.79305 0.79807 0.94574 0.0
H1238 H 0.80927 0.83574 0.98995 0.0
H1239 H 0.78458 0.82264 0.01042 0.0
C1240 C 0.67748 0.77295 0.99228 0.0
C1241 C 0.67166 0.78811 0.98114 0.0
C1242 C 0.69513 0.77326 0.00092 0.0
C1243 C 0.70692 0.78905 0.99915 0.0
C1244 C 0.7006 0.80452 0.98863 0.0
C1245 C 0.68327 0.80393 0.97949 0.0
C1246 C 0.72626 0.78902 0.00717 0.0
C1247 C 0.74126 0.79477 0.99565 0.0
C1248 C 0.73012 0.78298 0.02573 0.0
C1249 C 0.71497 0.77838 0.0393 0.0
C1250 C 0.70068 0.79146 0.04318 0.0
C1251 C 0.68637 0.78702 0.05588 0.0
C1252 C 0.68626 0.76958 0.0649 0.0
C1253 C 0.7005 0.75657 0.06126 0.0
C1254 C 0.71483 0.76093 0.04856 0.0
C1255 C 0.80607 0.78997 0.05247 0.0
C1256 C 0.82 0.78089 0.04184 0.0
C1257 C 0.78799 0.79233 0.0453 0.0
C1258 C 0.78335 0.78545 0.02742 0.0
C1259 C 0.79728 0.77631 0.01676 0.0
C1260 C 0.81551 0.77426 0.02382 0.0
C1261 C 0.76382 0.78741 0.02023 0.0
C1262 C 0.74884 0.78188 0.03185 0.0
C1263 C 0.75989 0.79449 0.00208 0.0
C1264 C 0.77478 0.80245 0.98983 0.0
C1265 C 0.77721 0.79576 0.97141 0.0
C1266 C 0.79118 0.80334 0.95988 0.0
C1267 C 0.80276 0.81771 0.96657 0.0
C1268 C 0.80035 0.82456 0.9848 0.0
C1269 C 0.78638 0.81703 0.99639 0.0
H1270 H 0.81357 0.82356 0.95762 0.0
H1271 H 0.67517 0.76617 0.07472 0.0
H1272 H 0.6853 0.2013 0.55554 0.0
H1273 H 0.71838 0.20193 0.54631 0.0
H1274 H 0.70392 0.23374 0.49673 0.0
H1275 H 0.67071 0.23221 0.50544 0.0
H1276 H 0.72896 0.2098 0.48778 0.0
H1277 H 0.72334 0.25363 0.53871 0.0
H1278 H 0.71456 0.26346 0.57069 0.0
H1279 H 0.75305 0.22327 0.59398 0.0
H1280 H 0.76177 0.2129 0.56207 0.0
H1281 H 0.81784 0.24099 0.46253 0.0
H1282 H 0.78612 0.24222 0.47555 0.0
H1283 H 0.8034 0.20627 0.52122 0.0
H1284 H 0.8356 0.20584 0.5086 0.0
H1285 H 0.77747 0.23145 0.53292 0.0
H1286 H 0.78272 0.18806 0.4809 0.0
H1287 H 0.79103 0.17914 0.44845 0.0
H1288 H 0.75277 0.22051 0.42694 0.0
H1289 H 0.74441 0.22982 0.45926 0.0
C1290 C 0.6892 0.20831 0.54261 0.0
C1291 C 0.67547 0.21676 0.53122 0.0
C1292 C 0.70813 0.2088 0.53741 0.0
C1293 C 0.71379 0.21829 0.52104 0.0
C1294 C 0.69998 0.22639 0.50946 0.0
C1295 C 0.68099 0.22552 0.51443 0.0
C1296 C 0.73404 0.21978 0.51589 0.0
C1297 C 0.73948 0.21478 0.49762 0.0
C1298 C 0.74795 0.22586 0.52881 0.0
C1299 C 0.74309 0.23238 0.548 0.0
C1300 C 0.72987 0.24683 0.55065 0.0
C1301 C 0.72491 0.2525 0.56877 0.0
C1302 C 0.73324 0.24401 0.58438 0.0
C1303 C 0.7466 0.22984 0.58188 0.0
C1304 C 0.75156 0.22405 0.56377 0.0
C1305 C 0.81494 0.2337 0.47558 0.0
C1306 C 0.82902 0.22319 0.48453 0.0
C1307 C 0.7968 0.2343 0.48295 0.0
C1308 C 0.79221 0.22383 0.49903 0.0
C1309 C 0.80658 0.21432 0.5087 0.0
C1310 C 0.82495 0.21409 0.50154 0.0
C1311 C 0.77222 0.22173 0.50478 0.0
C1312 C 0.76688 0.2265 0.52315 0.0
C1313 C 0.75831 0.21561 0.49192 0.0
C1314 C 0.76303 0.2097 0.47249 0.0
C1315 C 0.77613 0.19528 0.46924 0.0
C1316 C 0.78085 0.19017 0.45088 0.0
C1317 C 0.77246 0.19927 0.43564 0.0
C1318 C 0.75927 0.21347 0.43875 0.0
C1319 C 0.75451 0.21865 0.45708 0.0
H1320 H 0.77615 0.19531 0.42144 0.0
H1321 H 0.72936 0.24842 0.59841 0.0
H1322 H 0.16659 0.28267 0.50234 0.0
H1323 H 0.19688 0.28158 0.51904 0.0
H1324 H 0.22565 0.29628 0.4678 0.0
H1325 H 0.19583 0.29767 0.45123 0.0
H1326 H 0.23956 0.26346 0.48639 0.0
H1327 H 0.22179 0.32821 0.49905 0.0
H1328 H 0.20101 0.35284 0.51174 0.0
H1329 H 0.20586 0.32895 0.56692 0.0
H1330 H 0.22649 0.30401 0.55449 0.0
H1331 H 0.33275 0.28723 0.50513 0.0
H1332 H 0.29978 0.28751 0.49573 0.0
H1333 H 0.28295 0.28306 0.5538 0.0
H1334 H 0.316 0.28326 0.56336 0.0
H1335 H 0.26102 0.30747 0.53597 0.0
H1336 H 0.28108 0.2448 0.52482 0.0
H1337 H 0.3016 0.21957 0.51291 0.0
H1338 H 0.29163 0.23775 0.45627 0.0
H1339 H 0.27127 0.26328 0.46784 0.0
C1340 C 0.17938 0.28586 0.49474 0.0
C1341 C 0.17882 0.29019 0.47546 0.0
C1342 C 0.19662 0.28524 0.50427 0.0
C1343 C 0.21345 0.28876 0.49458 0.0
C1344 C 0.21282 0.29343 0.47548 0.0
C1345 C 0.19571 0.29427 0.46606 0.0
C1346 C 0.23198 0.28695 0.50384 0.0
C1347 C 0.24431 0.27311 0.49719 0.0
C1348 C 0.23786 0.29913 0.51836 0.0
C1349 C 0.22546 0.3141 0.5258 0.0
C1350 C 0.21826 0.32809 0.51385 0.0
C1351 C 0.20655 0.34213 0.521 0.0
C1352 C 0.20206 0.34242 0.54011 0.0
C1353 C 0.20932 0.32869 0.55212 0.0
C1354 C 0.22102 0.3146 0.54503 0.0
C1355 C 0.32205 0.28632 0.51591 0.0
C1356 C 0.32697 0.2851 0.53497 0.0
C1357 C 0.30319 0.2864 0.51052 0.0
C1358 C 0.28887 0.28497 0.52404 0.0
C1359 C 0.29375 0.2841 0.54312 0.0
C1360 C 0.31264 0.28417 0.54855 0.0
C1361 C 0.26888 0.28431 0.5181 0.0
C1362 C 0.25624 0.29761 0.52539 0.0
C1363 C 0.2626 0.27146 0.50429 0.0
C1364 C 0.27474 0.25604 0.49722 0.0
C1365 C 0.28336 0.2435 0.50983 0.0
C1366 C 0.29495 0.22913 0.50314 0.0
C1367 C 0.29794 0.22708 0.48385 0.0
C1368 C 0.28931 0.23937 0.47121 0.0
C1369 C 0.27772 0.25377 0.47782 0.0
H1370 H 0.30692 0.21595 0.47869 0.0
H1371 H 0.193 0.35331 0.54563 0.0
H1372 H 0.49972 0.82946 0.72204 0.0
H1373 H 0.48616 0.79778 0.72239 0.0
H1374 H 0.54016 0.77448 0.70775 0.0
H1375 H 0.55364 0.8059 0.70704 0.0
H1376 H 0.51316 0.75749 0.6885 0.0
H1377 H 0.52437 0.77399 0.75305 0.0
H1378 H 0.52167 0.79375 0.78138 0.0
H1379 H 0.46174 0.78689 0.78082 0.0
H1380 H 0.46407 0.76729 0.75232 0.0
H1381 H 0.50159 0.66255 0.71771 0.0
H1382 H 0.51236 0.69517 0.7153 0.0
H1383 H 0.456 0.71468 0.72596 0.0
H1384 H 0.44514 0.68221 0.72837 0.0
H1385 H 0.48255 0.73397 0.74657 0.0
H1386 H 0.4723 0.7156 0.6824 0.0
H1387 H 0.476 0.6956 0.65436 0.0
H1388 H 0.5355 0.70554 0.65471 0.0
H1389 H 0.53218 0.7254 0.68292 0.0
C1390 C 0.50863 0.81758 0.71876 0.0
C1391 C 0.52775 0.82017 0.71461 0.0
C1392 C 0.5009 0.79949 0.71904 0.0
C1393 C 0.51221 0.78374 0.71531 0.0
C1394 C 0.53116 0.7864 0.71066 0.0
C1395 C 0.53886 0.8044 0.71034 0.0
C1396 C 0.50461 0.76439 0.71671 0.0
C1397 C 0.50661 0.7523 0.70125 0.0
C1398 C 0.49581 0.7577 0.73324 0.0
C1399 C 0.49438 0.76935 0.75045 0.0
C1400 C 0.5106 0.77681 0.75889 0.0
C1401 C 0.50914 0.78796 0.77499 0.0
C1402 C 0.49154 0.79162 0.78286 0.0
C1403 C 0.47536 0.78407 0.77469 0.0
C1404 C 0.47674 0.77293 0.75857 0.0
C1405 C 0.49152 0.67379 0.71959 0.0
C1406 C 0.47252 0.66982 0.72317 0.0
C1407 C 0.49767 0.6924 0.71813 0.0
C1408 C 0.48493 0.70732 0.72029 0.0
C1409 C 0.46604 0.70337 0.72422 0.0
C1410 C 0.45987 0.68481 0.72554 0.0
C1411 C 0.49126 0.72706 0.71842 0.0
C1412 C 0.48901 0.7392 0.73378 0.0
C1413 C 0.49999 0.73375 0.70186 0.0
C1414 C 0.50201 0.72184 0.68488 0.0
C1415 C 0.4862 0.71339 0.67659 0.0
C1416 C 0.48822 0.70211 0.66065 0.0
C1417 C 0.50598 0.69926 0.65279 0.0
C1418 C 0.52175 0.70774 0.66083 0.0
C1419 C 0.51981 0.71902 0.67678 0.0
H1420 H 0.50752 0.69053 0.64045 0.0
H1421 H 0.49043 0.80026 0.79532 0.0
H1422 H 0.4502 0.30524 0.79949 0.0
H1423 H 0.46509 0.27451 0.79756 0.0
H1424 H 0.51538 0.30004 0.77536 0.0
H1425 H 0.50041 0.33107 0.77714 0.0
H1426 H 0.50435 0.26963 0.75481 0.0
H1427 H 0.51513 0.28323 0.81953 0.0
H1428 H 0.50697 0.29293 0.85176 0.0
H1429 H 0.4688 0.24648 0.85647 0.0
H1430 H 0.47652 0.23664 0.82415 0.0
H1431 H 0.55887 0.18644 0.76193 0.0
H1432 H 0.54699 0.2183 0.7664 0.0
H1433 H 0.49422 0.19603 0.78618 0.0
H1434 H 0.50603 0.16397 0.78172 0.0
H1435 H 0.50816 0.22529 0.8085 0.0
H1436 H 0.49629 0.21277 0.74323 0.0
H1437 H 0.50469 0.2029 0.71109 0.0
H1438 H 0.54524 0.24742 0.70767 0.0
H1439 H 0.53726 0.2574 0.73989 0.0
C1440 C 0.46449 0.30439 0.79433 0.0
C1441 C 0.47414 0.32059 0.78845 0.0
C1442 C 0.47302 0.28679 0.79332 0.0
C1443 C 0.4914 0.28499 0.78647 0.0
C1444 C 0.50118 0.30115 0.78074 0.0
C1445 C 0.49266 0.31885 0.78182 0.0
C1446 C 0.49992 0.26607 0.78454 0.0
C1447 C 0.50552 0.26006 0.76662 0.0
C1448 C 0.50098 0.25343 0.79987 0.0
C1449 C 0.49629 0.25929 0.81933 0.0
C1450 C 0.50487 0.27517 0.82737 0.0
C1451 C 0.50035 0.28068 0.84567 0.0
C1452 C 0.48734 0.27035 0.85614 0.0
C1453 C 0.47886 0.25447 0.84834 0.0
C1454 C 0.48332 0.24891 0.83003 0.0
C1455 C 0.54472 0.18829 0.76722 0.0
C1456 C 0.53335 0.17269 0.77141 0.0
C1457 C 0.53796 0.20651 0.76973 0.0
C1458 C 0.5197 0.20951 0.77649 0.0
C1459 C 0.50836 0.19399 0.78093 0.0
C1460 C 0.51509 0.17571 0.7783 0.0
C1461 C 0.51246 0.22889 0.77878 0.0
C1462 C 0.50709 0.23494 0.79674 0.0
C1463 C 0.51162 0.24158 0.7635 0.0
C1464 C 0.51632 0.23572 0.74405 0.0
C1465 C 0.50711 0.22037 0.73568 0.0
C1466 C 0.51177 0.21477 0.71744 0.0
C1467 C 0.52553 0.22449 0.70737 0.0
C1468 C 0.5346 0.23988 0.7155 0.0
C1469 C 0.53 0.24553 0.73374 0.0
H1470 H 0.52915 0.22012 0.69327 0.0
H1471 H 0.48387 0.27464 0.87031 0.0
H1472 H 0.72137 0.55312 0.8096 0.0
H1473 H 0.72162 0.5374 0.77926 0.0
H1474 H 0.72001 0.4835 0.80693 0.0
H1475 H 0.72013 0.49926 0.83763 0.0
H1476 H 0.74456 0.48347 0.77801 0.0
H1477 H 0.68059 0.50108 0.78653 0.0
H1478 H 0.65414 0.52218 0.79393 0.0
H1479 H 0.66919 0.5578 0.74763 0.0
H1480 H 0.6959 0.53707 0.7401 0.0
H1481 H 0.72654 0.43881 0.69002 0.0
H1482 H 0.72359 0.44948 0.72252 0.0
H1483 H 0.72456 0.50709 0.7037 0.0
H1484 H 0.72707 0.4965 0.67112 0.0
H1485 H 0.69791 0.50187 0.72958 0.0
H1486 H 0.76363 0.48536 0.72315 0.0
H1487 H 0.78989 0.46397 0.71586 0.0
H1488 H 0.7709 0.42567 0.75844 0.0
H1489 H 0.74438 0.44674 0.76582 0.0
C1490 C 0.72109 0.53791 0.8093 0.0
C1491 C 0.72061 0.52742 0.82602 0.0
C1492 C 0.72113 0.52895 0.79191 0.0
C1493 C 0.72044 0.50929 0.79082 0.0
C1494 C 0.72041 0.4987 0.80747 0.0
C1495 C 0.72047 0.5077 0.82497 0.0
C1496 C 0.71992 0.50003 0.77216 0.0
C1497 C 0.73415 0.48721 0.76752 0.0
C1498 C 0.70647 0.5051 0.75841 0.0
C1499 C 0.69034 0.51757 0.76283 0.0
C1500 C 0.67834 0.51348 0.778 0.0
C1501 C 0.66329 0.52537 0.78221 0.0
C1502 C 0.66001 0.54134 0.77128 0.0
C1503 C 0.67175 0.54543 0.75609 0.0
C1504 C 0.68684 0.5336 0.75183 0.0
C1505 C 0.72614 0.45375 0.6928 0.0
C1506 C 0.72712 0.46683 0.67802 0.0
C1507 C 0.72451 0.45983 0.71139 0.0
C1508 C 0.72409 0.47909 0.71556 0.0
C1509 C 0.72487 0.49216 0.7008 0.0
C1510 C 0.72637 0.4861 0.6822 0.0
C1511 C 0.72284 0.48572 0.73527 0.0
C1512 C 0.70821 0.49799 0.74013 0.0
C1513 C 0.73588 0.48009 0.74921 0.0
C1514 C 0.75192 0.46753 0.7449 0.0
C1515 C 0.76499 0.47232 0.73087 0.0
C1516 C 0.77993 0.46026 0.72674 0.0
C1517 C 0.78203 0.44345 0.73665 0.0
C1518 C 0.76924 0.43869 0.75076 0.0
C1519 C 0.75426 0.45069 0.75493 0.0
H1520 H 0.7936 0.43413 0.73342 0.0
H1521 H 0.64835 0.55053 0.77456 0.0
H1522 H 0.28007 0.00764 0.66995 0.0
H1523 H 0.28222 0.99312 0.70113 0.0
H1524 H 0.27278 0.04711 0.72697 0.0
H1525 H 0.27104 0.06169 0.69604 0.0
H1526 H 0.30018 0.02896 0.7446 0.0
H1527 H 0.23755 0.01392 0.72319 0.0
H1528 H 0.21432 0.00078 0.7011 0.0
H1529 H 0.23927 0.94617 0.70688 0.0
H1530 H 0.26281 0.95905 0.72882 0.0
H1531 H 0.27393 0.00141 0.83697 0.0
H1532 H 0.27505 0.01436 0.80511 0.0
H1533 H 0.28352 0.9587 0.78269 0.0
H1534 H 0.28199 0.94566 0.81437 0.0
H1535 H 0.25805 0.97652 0.76279 0.0
H1536 H 0.31975 0.99106 0.78537 0.0
H1537 H 0.34327 0.00411 0.80718 0.0
H1538 H 0.32057 0.05939 0.79908 0.0
H1539 H 0.29674 0.04664 0.7774 0.0
C1540 C 0.27846 0.01638 0.6823 0.0
C1541 C 0.27534 0.03579 0.68054 0.0
C1542 C 0.27964 0.00807 0.70009 0.0
C1543 C 0.27749 0.01901 0.7164 0.0
C1544 C 0.27453 0.0384 0.71462 0.0
C1545 C 0.27347 0.0467 0.6969 0.0
C1546 C 0.27814 0.01038 0.73539 0.0
C1547 C 0.29084 0.01761 0.74864 0.0
C1548 C 0.2663 0.99526 0.74054 0.0
C1549 C 0.25204 0.98748 0.7275 0.0
C1550 C 0.23815 0.99914 0.71965 0.0
C1551 C 0.22493 0.99173 0.70717 0.0
C1552 C 0.22535 0.97267 0.70255 0.0
C1553 C 0.23897 0.96095 0.71045 0.0
C1554 C 0.25225 0.96828 0.72292 0.0
C1555 C 0.2761 0.99195 0.82525 0.0
C1556 C 0.27786 0.97252 0.82818 0.0
C1557 C 0.27683 0.99937 0.80705 0.0
C1558 C 0.27956 0.98752 0.7915 0.0
C1559 C 0.28138 0.96812 0.79445 0.0
C1560 C 0.28055 0.9607 0.81259 0.0
C1561 C 0.27997 0.99521 0.77209 0.0
C1562 C 0.26747 0.9878 0.75875 0.0
C1563 C 0.29202 0.01014 0.76686 0.0
C1564 C 0.30634 0.01786 0.7799 0.0
C1565 C 0.31967 0.00598 0.78835 0.0
C1566 C 0.33308 0.01333 0.80067 0.0
C1567 C 0.33338 0.03256 0.80455 0.0
C1568 C 0.3203 0.04449 0.79608 0.0
C1569 C 0.30686 0.03721 0.78376 0.0
H1570 H 0.34378 0.03823 0.81409 0.0
H1571 H 0.2151 0.96696 0.69288 0.0
H1572 H 0.67027 0.28076 0.99542 0.0
H1573 H 0.70152 0.28311 0.98104 0.0
H1574 H 0.72653 0.28721 0.03611 0.0
H1575 H 0.69554 0.28538 0.05043 0.0
H1576 H 0.74199 0.3119 0.0137 0.0
H1577 H 0.72698 0.24586 0.00987 0.0
H1578 H 0.70785 0.21847 0.00073 0.0
H1579 H 0.71361 0.23348 0.94258 0.0
H1580 H 0.73259 0.26112 0.9514 0.0
H1581 H 0.83703 0.28762 0.99597 0.0
H1582 H 0.80434 0.28762 0.0067 0.0
H1583 H 0.78532 0.28882 0.94919 0.0
H1584 H 0.81791 0.28878 0.93835 0.0
H1585 H 0.76611 0.26295 0.97037 0.0
H1586 H 0.78318 0.32789 0.97454 0.0
H1587 H 0.80266 0.35489 0.98406 0.0
H1588 H 0.79334 0.3415 0.04215 0.0
H1589 H 0.77402 0.31425 0.03296 0.0
C1590 C 0.68245 0.28217 0.00441 0.0
C1591 C 0.68044 0.28286 0.02404 0.0
C1592 C 0.7003 0.28345 0.9962 0.0
C1593 C 0.71641 0.28517 0.00751 0.0
C1594 C 0.71434 0.28595 0.02709 0.0
C1595 C 0.69658 0.28484 0.03525 0.0
C1596 C 0.73553 0.28613 0.99919 0.0
C1597 C 0.74731 0.30109 0.00436 0.0
C1598 C 0.74235 0.2723 0.98663 0.0
C1599 C 0.73102 0.25566 0.98131 0.0
C1600 C 0.72405 0.2434 0.99514 0.0
C1601 C 0.71325 0.22781 0.99002 0.0
C1602 C 0.70947 0.22427 0.97109 0.0
C1603 C 0.71652 0.23626 0.95724 0.0
C1604 C 0.72731 0.25188 0.96229 0.0
C1605 C 0.82589 0.2879 0.98562 0.0
C1606 C 0.83004 0.28826 0.96633 0.0
C1607 C 0.80723 0.28797 0.99176 0.0
C1608 C 0.79242 0.28838 0.97873 0.0
C1609 C 0.79654 0.28852 0.95947 0.0
C1610 C 0.81517 0.28857 0.95332 0.0
C1611 C 0.77262 0.2885 0.9852 0.0
C1612 C 0.76073 0.2738 0.97963 0.0
C1613 C 0.76572 0.3025 0.99748 0.0
C1614 C 0.77729 0.31892 0.00305 0.0
C1615 C 0.78541 0.33061 0.98934 0.0
C1616 C 0.7964 0.34598 0.99468 0.0
C1617 C 0.79927 0.34989 0.0137 0.0
C1618 C 0.79112 0.33845 0.02742 0.0
C1619 C 0.78013 0.32305 0.02215 0.0
H1620 H 0.80778 0.36179 0.0178 0.0
H1621 H 0.70111 0.2122 0.96715 0.0
H1622 H 0.55246 0.31583 0.29282 0.0
H1623 H 0.54185 0.28321 0.29459 0.0
H1624 H 0.48798 0.29939 0.2721 0.0
H1625 H 0.4985 0.33209 0.27021 0.0
H1626 H 0.51205 0.26534 0.3125 0.0
H1627 H 0.47574 0.26448 0.23973 0.0
H1628 H 0.47705 0.2825 0.21014 0.0
H1629 H 0.53459 0.29688 0.22109 0.0
H1630 H 0.53392 0.27822 0.25019 0.0
H1631 H 0.44905 0.18922 0.29735 0.0
H1632 H 0.46365 0.22028 0.29845 0.0
H1633 H 0.5104 0.19968 0.2659 0.0
H1634 H 0.49601 0.16831 0.26506 0.0
H1635 H 0.49348 0.23457 0.25274 0.0
H1636 H 0.51937 0.20665 0.30814 0.0
H1637 H 0.51859 0.1896 0.33828 0.0
H1638 H 0.48397 0.23279 0.36221 0.0
H1639 H 0.4843 0.24998 0.3321 0.0
C1640 C 0.5383 0.31248 0.28838 0.0
C1641 C 0.52636 0.32648 0.2812 0.0
C1642 C 0.53224 0.29386 0.28951 0.0
C1643 C 0.51422 0.2889 0.28332 0.0
C1644 C 0.50202 0.30295 0.27678 0.0
C1645 C 0.50804 0.3216 0.27571 0.0
C1646 C 0.5086 0.26888 0.28266 0.0
C1647 C 0.50797 0.25861 0.29946 0.0
C1648 C 0.50369 0.26004 0.26553 0.0
C1649 C 0.50469 0.27013 0.24729 0.0
C1650 C 0.48875 0.27126 0.23568 0.0
C1651 C 0.4894 0.28156 0.21896 0.0
C1652 C 0.50589 0.29084 0.21373 0.0
C1653 C 0.52184 0.28964 0.22509 0.0
C1654 C 0.52136 0.27914 0.24166 0.0
C1655 C 0.46247 0.19127 0.29047 0.0
C1656 C 0.4714 0.17637 0.28109 0.0
C1657 C 0.4708 0.20899 0.29117 0.0
C1658 C 0.48809 0.2122 0.2823 0.0
C1659 C 0.49704 0.19741 0.27284 0.0
C1660 C 0.48885 0.17954 0.27241 0.0
C1661 C 0.49648 0.23119 0.28265 0.0
C1662 C 0.49762 0.24129 0.26577 0.0
C1663 C 0.50199 0.23983 0.29967 0.0
C1664 C 0.50171 0.22951 0.31779 0.0
C1665 C 0.51143 0.21243 0.31976 0.0
C1666 C 0.51111 0.20276 0.33686 0.0
C1667 C 0.5012 0.21008 0.35213 0.0
C1668 C 0.49162 0.22712 0.35035 0.0
C1669 C 0.49189 0.23684 0.33328 0.0
H1670 H 0.50098 0.20258 0.36536 0.0
H1671 H 0.50631 0.29895 0.20087 0.0
H1672 H 0.4931 0.83517 0.22376 0.0
H1673 H 0.5062 0.80343 0.22509 0.0
H1674 H 0.45628 0.78159 0.19858 0.0
H1675 H 0.44298 0.81319 0.19745 0.0
H1676 H 0.46571 0.76107 0.22872 0.0
H1677 H 0.49743 0.78522 0.1743 0.0
H1678 H 0.51662 0.80779 0.15632 0.0
H1679 H 0.5628 0.79914 0.19414 0.0
H1680 H 0.54379 0.7767 0.2125 0.0
H1681 H 0.50244 0.66909 0.21188 0.0
H1682 H 0.48819 0.70031 0.20934 0.0
H1683 H 0.53845 0.72515 0.23242 0.0
H1684 H 0.55292 0.69416 0.23437 0.0
H1685 H 0.52812 0.74394 0.20291 0.0
H1686 H 0.49637 0.72065 0.25796 0.0
H1687 H 0.4773 0.69823 0.27625 0.0
H1688 H 0.43141 0.70541 0.23779 0.0
H1689 H 0.4503 0.7277 0.21912 0.0
C1690 C 0.48499 0.82363 0.21806 0.0
C1691 C 0.46702 0.82667 0.2105 0.0
C1692 C 0.49251 0.80551 0.21878 0.0
C1693 C 0.48225 0.79016 0.21183 0.0
C1694 C 0.46441 0.79322 0.20406 0.0
C1695 C 0.45688 0.81131 0.20336 0.0
C1696 C 0.48983 0.77082 0.21323 0.0
C1697 C 0.47925 0.75723 0.22285 0.0
C1698 C 0.50765 0.76595 0.20593 0.0
C1699 C 0.51912 0.77941 0.19487 0.0
C1700 C 0.51163 0.78824 0.17887 0.0
C1701 C 0.52248 0.80099 0.16859 0.0
C1702 C 0.5409 0.80493 0.17411 0.0
C1703 C 0.54852 0.79609 0.18989 0.0
C1704 C 0.53772 0.78334 0.20023 0.0
C1705 C 0.51032 0.68121 0.2166 0.0
C1706 C 0.52878 0.67923 0.22329 0.0
C1707 C 0.50217 0.69904 0.21518 0.0
C1708 C 0.51221 0.7151 0.22079 0.0
C1709 C 0.53047 0.713 0.22792 0.0
C1710 C 0.53869 0.69527 0.22909 0.0
C1711 C 0.50411 0.73419 0.2186 0.0
C1712 C 0.51458 0.74774 0.20878 0.0
C1713 C 0.48622 0.73903 0.22579 0.0
C1714 C 0.47482 0.7257 0.23705 0.0
C1715 C 0.48226 0.71734 0.25333 0.0
C1716 C 0.47148 0.70468 0.26378 0.0
C1717 C 0.45317 0.70036 0.25816 0.0
C1718 C 0.4456 0.70875 0.24211 0.0
C1719 C 0.45633 0.72141 0.2316 0.0
H1720 H 0.44485 0.69055 0.26626 0.0
H1721 H 0.54928 0.8148 0.16613 0.0
H1722 H 0.29471 0.55628 0.31441 0.0
H1723 H 0.29584 0.54385 0.28251 0.0
H1724 H 0.29524 0.48734 0.30432 0.0
H1725 H 0.29407 0.49969 0.33648 0.0
H1726 H 0.31974 0.4927 0.27293 0.0
H1727 H 0.25577 0.50475 0.29123 0.0
H1728 H 0.23039 0.52448 0.30416 0.0
H1729 H 0.238 0.56413 0.25935 0.0
H1730 H 0.26371 0.54483 0.24636 0.0
H1731 H 0.2846 0.44256 0.19516 0.0
H1732 H 0.28979 0.45683 0.2258 0.0
H1733 H 0.285 0.51197 0.20115 0.0
H1734 H 0.27959 0.4977 0.17021 0.0
H1735 H 0.2645 0.5087 0.23347 0.0
H1736 H 0.32746 0.49569 0.21415 0.0
H1737 H 0.35362 0.47654 0.20197 0.0
H1738 H 0.34816 0.43879 0.24871 0.0
H1739 H 0.32178 0.45757 0.26104 0.0
C1740 C 0.2951 0.54119 0.31249 0.0
C1741 C 0.29409 0.52894 0.32796 0.0
C1742 C 0.29573 0.53413 0.29423 0.0
C1743 C 0.29534 0.51471 0.2911 0.0
C1744 C 0.29549 0.50239 0.3065 0.0
C1745 C 0.29479 0.50946 0.32484 0.0
C1746 C 0.29336 0.50738 0.27175 0.0
C1747 C 0.3076 0.496 0.26433 0.0
C1748 C 0.27767 0.51211 0.26048 0.0
C1749 C 0.26182 0.52345 0.26794 0.0
C1750 C 0.25213 0.51774 0.2842 0.0
C1751 C 0.23769 0.52885 0.29155 0.0
C1752 C 0.23266 0.54559 0.28264 0.0
C1753 C 0.24196 0.55118 0.26627 0.0
C1754 C 0.25647 0.54017 0.25891 0.0
C1755 C 0.2847 0.45774 0.19618 0.0
C1756 C 0.28169 0.46902 0.18024 0.0
C1757 C 0.28778 0.46587 0.21372 0.0
C1758 C 0.28801 0.48546 0.21573 0.0
C1759 C 0.28494 0.49681 0.19987 0.0
C1760 C 0.28189 0.48866 0.18223 0.0
C1761 C 0.29088 0.49389 0.23456 0.0
C1762 C 0.27674 0.50547 0.24195 0.0
C1763 C 0.30665 0.4893 0.24581 0.0
C1764 C 0.32252 0.47796 0.23843 0.0
C1765 C 0.33173 0.48322 0.22175 0.0
C1766 C 0.34662 0.47244 0.21483 0.0
C1767 C 0.35252 0.45644 0.22453 0.0
C1768 C 0.34356 0.45119 0.2412 0.0
C1769 C 0.32865 0.4619 0.24817 0.0
H1770 H 0.36405 0.44812 0.21916 0.0
H1771 H 0.22152 0.55419 0.28837 0.0
H1772 H 0.71951 0.99801 0.16463 0.0
H1773 H 0.71942 0.98677 0.19716 0.0
H1774 H 0.70528 0.04244 0.21646 0.0
H1775 H 0.70569 0.05381 0.18411 0.0
H1776 H 0.73231 0.02812 0.23744 0.0
H1777 H 0.67238 0.00701 0.21551 0.0
H1778 H 0.65026 0.99088 0.1943 0.0
H1779 H 0.67769 0.93828 0.20517 0.0
H1780 H 0.70015 0.95414 0.22626 0.0
H1781 H 0.71494 0.99864 0.3318 0.0
H1782 H 0.71034 0.01177 0.30026 0.0
H1783 H 0.72406 0.95803 0.27585 0.0
H1784 H 0.72822 0.94479 0.30712 0.0
H1785 H 0.69511 0.97294 0.25811 0.0
H1786 H 0.7563 0.99463 0.27829 0.0
H1787 H 0.7783 0.01081 0.2996 0.0
H1788 H 0.74813 0.06248 0.29201 0.0
H1789 H 0.7258 0.04654 0.27084 0.0
C1790 C 0.71633 0.00783 0.17581 0.0
C1791 C 0.7126 0.02679 0.1718 0.0
C1792 C 0.71619 0.00138 0.19439 0.0
C1793 C 0.71213 0.01373 0.20926 0.0
C1794 C 0.70843 0.03266 0.20524 0.0
C1795 C 0.70864 0.03912 0.18672 0.0
C1796 C 0.71225 0.00706 0.22905 0.0
C1797 C 0.72395 0.01623 0.24202 0.0
C1798 C 0.70156 0.99139 0.23499 0.0
C1799 C 0.68806 0.9818 0.22233 0.0
C1800 C 0.67379 0.99203 0.21326 0.0
C1801 C 0.66118 0.98293 0.20128 0.0
C1802 C 0.6626 0.96358 0.19835 0.0
C1803 C 0.67662 0.95327 0.20744 0.0
C1804 C 0.68928 0.96231 0.21942 0.0
C1805 C 0.7169 0.98964 0.31969 0.0
C1806 C 0.72202 0.97071 0.32195 0.0
C1807 C 0.71433 0.99716 0.30169 0.0
C1808 C 0.71706 0.98593 0.28566 0.0
C1809 C 0.72185 0.96697 0.28797 0.0
C1810 C 0.72429 0.95944 0.30589 0.0
C1811 C 0.71537 0.99383 0.26641 0.0
C1812 C 0.70337 0.98491 0.25354 0.0
C1813 C 0.72577 0.00974 0.26055 0.0
C1814 C 0.73928 0.01935 0.27315 0.0
C1815 C 0.75429 0.00942 0.28127 0.0
C1816 C 0.76683 0.01855 0.29331 0.0
C1817 C 0.76459 0.03765 0.2972 0.0
C1818 C 0.74983 0.04768 0.28901 0.0
C1819 C 0.73724 0.03861 0.27698 0.0
H1820 H 0.77431 0.04469 0.30653 0.0
H1821 H 0.65282 0.95656 0.18908 0.0
H1822 H 0.16365 0.71341 0.99519 0.0
H1823 H 0.19536 0.71684 0.98205 0.0
H1824 H 0.21914 0.69686 0.03408 0.0
H1825 H 0.18773 0.69343 0.04725 0.0
H1826 H 0.23593 0.72912 0.02198 0.0
H1827 H 0.21863 0.66895 0.9963 0.0
H1828 H 0.1986 0.64691 0.97863 0.0
H1829 H 0.20544 0.6802 0.92878 0.0
H1830 H 0.22532 0.70259 0.94624 0.0
H1831 H 0.33079 0.71511 0.99367 0.0
H1832 H 0.29876 0.71157 0.00574 0.0
H1833 H 0.27657 0.72645 0.95132 0.0
H1834 H 0.30844 0.72949 0.9391 0.0
H1835 H 0.25852 0.69733 0.96425 0.0
H1836 H 0.27601 0.75732 0.98925 0.0
H1837 H 0.29559 0.77997 0.00666 0.0
H1838 H 0.28787 0.74815 0.05734 0.0
H1839 H 0.26846 0.72516 0.04017 0.0
C1840 C 0.17564 0.70956 0.00373 0.0
C1841 C 0.17319 0.70316 0.02225 0.0
C1842 C 0.19373 0.71152 0.99622 0.0
C1843 C 0.20958 0.7071 0.00712 0.0
C1844 C 0.2071 0.70043 0.02547 0.0
C1845 C 0.18911 0.6984 0.03294 0.0
C1846 C 0.22885 0.70991 -0.00028 0.0
C1847 C 0.24097 0.72202 0.00947 0.0
C1848 C 0.2352 0.70101 0.98315 0.0
C1849 C 0.22329 0.68755 0.97263 0.0
C1850 C 0.21573 0.67165 0.98161 0.0
C1851 C 0.20443 0.65908 0.97163 0.0
C1852 C 0.2007 0.66218 0.9526 0.0
C1853 C 0.20831 0.67784 0.94352 0.0
C1854 C 0.21961 0.69046 0.95345 0.0
C1855 C 0.31907 0.71774 0.98434 0.0
C1856 C 0.32212 0.72258 0.96545 0.0
C1857 C 0.30077 0.71578 0.99125 0.0
C1858 C 0.28522 0.71891 0.97947 0.0
C1859 C 0.28831 0.72391 0.96066 0.0
C1860 C 0.30655 0.7257 0.95371 0.0
C1861 C 0.26572 0.71653 0.98654 0.0
C1862 C 0.25352 0.7045 0.97673 0.0
C1863 C 0.25925 0.72561 0.00301 0.0
C1864 C 0.27094 0.73941 0.01337 0.0
C1865 C 0.27862 0.75507 0.00407 0.0
C1866 C 0.28966 0.76799 0.01391 0.0
C1867 C 0.29302 0.76547 0.03308 0.0
C1868 C 0.28529 0.75006 0.04248 0.0
C1869 C 0.27425 0.73709 0.0327 0.0
H1870 H 0.30157 0.77549 0.04067 0.0
H1871 H 0.19195 0.65243 0.94489 0.0
H1872 H 0.08751 0.31808 0.43094 0.0
H1873 H 0.06867 0.33231 0.40565 0.0
H1874 H 0.1195 0.34491 0.37511 0.0
H1875 H 0.13813 0.33039 0.40002 0.0
H1876 H 0.09117 0.37312 0.37173 0.0
H1877 H 0.09934 0.30388 0.36695 0.0
H1878 H 0.09501 0.27193 0.37972 0.0
H1879 H 0.03564 0.28154 0.38443 0.0
H1880 H 0.03967 0.31357 0.37166 0.0
H1881 H 0.09866 0.36281 0.27749 0.0
H1882 H 0.09924 0.35711 0.31108 0.0
H1883 H 0.03918 0.34925 0.31128 0.0
H1884 H 0.03838 0.355 0.27719 0.0
H1885 H 0.06007 0.32307 0.33441 0.0
H1886 H 0.05275 0.3884 0.32693 0.0
H1887 H 0.05839 0.4193 0.31248 0.0
H1888 H 0.11562 0.41815 0.33143 0.0
H1889 H 0.11051 0.38694 0.34553 0.0
C1890 C 0.09458 0.32462 0.41915 0.0
C1891 C 0.11419 0.32347 0.41737 0.0
C1892 C 0.08385 0.33259 0.40471 0.0
C1893 C 0.09272 0.3396 0.38853 0.0
C1894 C 0.11241 0.33972 0.38754 0.0
C1895 C 0.12304 0.33148 0.40175 0.0
C1896 C 0.08198 0.34435 0.37139 0.0
C1897 C 0.08409 0.36232 0.36365 0.0
C1898 C 0.07225 0.33037 0.36114 0.0
C1899 C 0.06981 0.3111 0.36854 0.0
C1900 C 0.08538 0.29917 0.37077 0.0
C1901 C 0.08298 0.28106 0.37798 0.0
C1902 C 0.06507 0.27474 0.38295 0.0
C1903 C 0.04951 0.28647 0.38061 0.0
C1904 C 0.05183 0.30458 0.37335 0.0
C1905 C 0.08551 0.35977 0.28453 0.0
C1906 C 0.06842 0.35966 0.27465 0.0
C1907 C 0.08589 0.35654 0.30379 0.0
C1908 C 0.06921 0.35322 0.31369 0.0
C1909 C 0.05217 0.352 0.30385 0.0
C1910 C 0.05176 0.35526 0.28441 0.0
C1911 C 0.07008 0.35162 0.3344 0.0
C1912 C 0.06624 0.33422 0.34277 0.0
C1913 C 0.07812 0.36621 0.34528 0.0
C1914 C 0.08122 0.38526 0.3373 0.0
C1915 C 0.06657 0.39468 0.32796 0.0
C1916 C 0.06968 0.41227 0.31981 0.0
C1917 C 0.08733 0.42073 0.32107 0.0
C1918 C 0.10193 0.4116 0.33049 0.0
C1919 C 0.09893 0.39394 0.33858 0.0
H1920 H 0.0897 0.43435 0.31474 0.0
H1921 H 0.06325 0.26073 0.38857 0.0
H1922 H 0.86138 0.17298 0.41115 0.0
H1923 H 0.87723 0.15327 0.38792 0.0
H1924 H 0.92655 0.15126 0.42306 0.0
H1925 H 0.91026 0.17041 0.44683 0.0
H1926 H 0.93101 0.1672 0.38515 0.0
H1927 H 0.91034 0.11132 0.41459 0.0
H1928 H 0.88817 0.09004 0.43056 0.0
H1929 H 0.85278 0.08976 0.38173 0.0
H1930 H 0.87457 0.11126 0.36556 0.0
H1931 H 0.9569 0.12751 0.29392 0.0
H1932 H 0.95607 0.13269 0.32817 0.0
H1933 H 0.89545 0.13112 0.32671 0.0
H1934 H 0.89627 0.12549 0.2931 0.0
H1935 H 0.90792 0.10943 0.35392 0.0
H1936 H 0.92209 0.17278 0.33011 0.0
H1937 H 0.94209 0.196 0.31388 0.0
H1938 H 0.98748 0.18371 0.35167 0.0
H1939 H 0.96778 0.16026 0.36797 0.0
C1940 C 0.87527 0.16758 0.41426 0.0
C1941 C 0.88457 0.17288 0.43074 0.0
C1942 C 0.88434 0.15642 0.40101 0.0
C1943 C 0.90303 0.15081 0.40384 0.0
C1944 C 0.91208 0.15534 0.42075 0.0
C1945 C 0.90276 0.16612 0.43431 0.0
C1946 C 0.91343 0.14271 0.38782 0.0
C1947 C 0.92648 0.15424 0.37854 0.0
C1948 C 0.90734 0.12593 0.37923 0.0
C1949 C 0.89413 0.11294 0.38886 0.0
C1950 C 0.89778 0.10682 0.40729 0.0
C1951 C 0.88528 0.09469 0.41638 0.0
C1952 C 0.86908 0.08855 0.40717 0.0
C1953 C 0.86535 0.0945 0.38884 0.0
C1954 C 0.8778 0.10663 0.37969 0.0
C1955 C 0.94347 0.12852 0.301 0.0
C1956 C 0.92665 0.12601 0.29097 0.0
C1957 C 0.943 0.13138 0.32051 0.0
C1958 C 0.92569 0.13207 0.33004 0.0
C1959 C 0.90898 0.13028 0.31977 0.0
C1960 C 0.90945 0.12719 0.30052 0.0
C1961 C 0.92433 0.13466 0.35066 0.0
C1962 C 0.91308 0.122 0.36081 0.0
C1963 C 0.93179 0.15058 0.35991 0.0
C1964 C 0.94359 0.1646 0.35006 0.0
C1965 C 0.93639 0.17492 0.33484 0.0
C1966 C 0.94766 0.18814 0.32565 0.0
C1967 C 0.96607 0.19127 0.33169 0.0
C1968 C 0.97324 0.18123 0.34697 0.0
C1969 C 0.96204 0.16798 0.35618 0.0
H1970 H 0.97477 0.20152 0.32457 0.0
H1971 H 0.85942 0.07916 0.41423 0.0
H1972 H 0.07923 0.66852 0.05334 0.0
H1973 H 0.05649 0.65714 0.0768 0.0
H1974 H 0.10172 0.64916 0.11636 0.0
H1975 H 0.12411 0.6608 0.09325 0.0
H1976 H 0.07192 0.62202 0.11977 0.0
H1977 H 0.07806 0.69758 0.1232 0.0
H1978 H 0.07409 0.72745 0.10592 0.0
H1979 H 0.02473 0.70559 0.07899 0.0
H1980 H 0.02845 0.67565 0.09618 0.0
H1981 H 0.09285 0.65956 0.20259 0.0
H1982 H 0.08562 0.66131 0.16921 0.0
H1983 H 0.02736 0.64955 0.18081 0.0
H1984 H 0.03452 0.64755 0.21453 0.0
H1985 H 0.04527 0.6804 0.14694 0.0
H1986 H 0.03458 0.61668 0.16683 0.0
H1987 H 0.04053 0.58991 0.18798 0.0
H1988 H 0.09795 0.58785 0.16967 0.0
H1989 H 0.09253 0.61508 0.14893 0.0
C1990 C 0.08431 0.66345 0.06676 0.0
C1991 C 0.10335 0.66537 0.07159 0.0
C1992 C 0.07132 0.65717 0.08019 0.0
C1993 C 0.0774 0.65253 0.09838 0.0
C1994 C 0.09671 0.65258 0.10239 0.0
C1995 C 0.10954 0.65912 0.08917 0.0
C1996 C 0.06426 0.65078 0.11441 0.0
C1997 C 0.06528 0.63449 0.12547 0.0
C1998 C 0.05533 0.66694 0.12178 0.0
C1999 C 0.05359 0.68446 0.11081 0.0
C2000 C 0.06642 0.69919 0.11353 0.0
C2001 C 0.06417 0.71612 0.10383 0.0
C2002 C 0.04913 0.71842 0.09141 0.0
C2003 C 0.03635 0.70379 0.08863 0.0
C2004 C 0.03853 0.68684 0.09831 0.0
C2005 C 0.07839 0.65791 0.19816 0.0
C2006 C 0.06432 0.65311 0.21113 0.0
C2007 C 0.07428 0.65891 0.17909 0.0
C2008 C 0.05606 0.65519 0.17265 0.0
C2009 C 0.04153 0.65233 0.18562 0.0
C2010 C 0.04564 0.6513 0.20484 0.0
C2011 C 0.05351 0.65186 0.15237 0.0
C2012 C 0.05016 0.66735 0.14077 0.0
C2013 C 0.05989 0.63481 0.14443 0.0
C2014 C 0.06314 0.61798 0.15635 0.0
C2015 C 0.04851 0.6106 0.1674 0.0
C2016 C 0.05178 0.59534 0.17932 0.0
C2017 C 0.06958 0.58712 0.18011 0.0
C2018 C 0.08415 0.5942 0.16901 0.0
C2019 C 0.08099 0.60957 0.15718 0.0
H2020 H 0.07207 0.57529 0.18933 0.0
H2021 H 0.04745 0.7315 0.08387 0.0
H2022 H 0.92032 0.90263 0.22121 0.0
H2023 H 0.91729 0.89394 0.18817 0.0
H2024 H 0.93593 0.83775 0.20126 0.0
H2025 H 0.93983 0.84667 0.23425 0.0
H2026 H 0.94955 0.84796 0.1685 0.0
H2027 H 0.88787 0.85063 0.19796 0.0
H2028 H 0.86205 0.86622 0.21505 0.0
H2029 H 0.85819 0.90796 0.17165 0.0
H2030 H 0.88413 0.89271 0.15442 0.0
H2031 H 0.89978 0.78516 0.11309 0.0
H2032 H 0.91431 0.80569 0.13605 0.0
H2033 H 0.89693 0.85417 0.1041 0.0
H2034 H 0.8823 0.83339 0.08064 0.0
H2035 H 0.88579 0.85515 0.14129 0.0
H2036 H 0.94276 0.84621 0.10835 0.0
H2037 H 0.96736 0.82865 0.09147 0.0
H2038 H 0.97931 0.79685 0.14131 0.0
H2039 H 0.95459 0.814 0.15844 0.0
C2040 C 0.92387 0.88844 0.21701 0.0
C2041 C 0.93002 0.87521 0.23033 0.0
C2042 C 0.92214 0.88351 0.19813 0.0
C2043 C 0.92598 0.86508 0.19229 0.0
C2044 C 0.93285 0.85205 0.20544 0.0
C2045 C 0.93498 0.85711 0.2243 0.0
C2046 C 0.9217 0.85896 0.17283 0.0
C2047 C 0.93561 0.84949 0.16254 0.0
C2048 C 0.9037 0.86158 0.16473 0.0
C2049 C 0.88806 0.87068 0.17504 0.0
C2050 C 0.88158 0.8632 0.19214 0.0
C2051 C 0.86692 0.87196 0.20183 0.0
C2052 C 0.85853 0.88811 0.19447 0.0
C2053 C 0.86473 0.89548 0.17736 0.0
C2054 C 0.8794 0.88678 0.16762 0.0
C2055 C 0.89928 0.80015 0.11069 0.0
C2056 C 0.8898 0.80768 0.09512 0.0
C2057 C 0.90776 0.8119 0.12379 0.0
C2058 C 0.90688 0.83144 0.12168 0.0
C2059 C 0.89788 0.83909 0.10586 0.0
C2060 C 0.88955 0.82725 0.09252 0.0
C2061 C 0.9134 0.84347 0.13731 0.0
C2062 C 0.89991 0.85407 0.14695 0.0
C2063 C 0.9317 0.84169 0.14486 0.0
C2064 C 0.94675 0.8314 0.13468 0.0
C2065 C 0.95055 0.8354 0.1157 0.0
C2066 C 0.96454 0.82552 0.10608 0.0
C2067 C 0.97489 0.81163 0.11531 0.0
C2068 C 0.9713 0.80762 0.13419 0.0
C2069 C 0.95732 0.81745 0.14387 0.0
H2070 H 0.9857 0.80399 0.10783 0.0
H2071 H 0.84718 0.89487 0.202 0.0
H2072 H 0.27238 0.05098 0.35089 0.0
H2073 H 0.30536 0.05317 0.34109 0.0
H2074 H 0.30376 0.1132 0.34917 0.0
H2075 H 0.27103 0.11123 0.35865 0.0
H2076 H 0.32267 0.10313 0.31722 0.0
H2077 H 0.31885 0.08286 0.38298 0.0
H2078 H 0.30806 0.05985 0.40643 0.0
H2079 H 0.34109 0.01687 0.37995 0.0
H2080 H 0.35151 0.03953 0.35585 0.0
H2081 H 0.40903 0.13991 0.32801 0.0
H2082 H 0.37959 0.12781 0.34088 0.0
H2083 H 0.39616 0.07147 0.32611 0.0
H2084 H 0.42594 0.08357 0.31372 0.0
H2085 H 0.37072 0.07395 0.35858 0.0
H2086 H 0.37329 0.08999 0.2932 0.0
H2087 H 0.38143 0.10907 0.26547 0.0
H2088 H 0.35127 0.15595 0.28844 0.0
H2089 H 0.34258 0.13695 0.31618 0.0
C2090 C 0.27898 0.06467 0.35027 0.0
C2091 C 0.26914 0.08091 0.35577 0.0
C2092 C 0.29783 0.06587 0.34476 0.0
C2093 C 0.30703 0.08332 0.3447 0.0
C2094 C 0.29693 0.09959 0.34921 0.0
C2095 C 0.27821 0.09842 0.35472 0.0
C2096 C 0.32739 0.08493 0.34092 0.0
C2097 C 0.33313 0.09679 0.32632 0.0
C2098 C 0.34109 0.07605 0.35233 0.0
C2099 C 0.33579 0.06283 0.3675 0.0
C2100 C 0.32377 0.06849 0.38212 0.0
C2101 C 0.31768 0.05549 0.3955 0.0
C2102 C 0.32388 0.03688 0.39469 0.0
C2103 C 0.33627 0.03127 0.38054 0.0
C2104 C 0.34222 0.04418 0.36697 0.0
C2105 C 0.40689 0.12485 0.32861 0.0
C2106 C 0.41962 0.11264 0.31993 0.0
C2107 C 0.39 0.11796 0.33576 0.0
C2108 C 0.38559 0.09881 0.33402 0.0
C2109 C 0.39931 0.08629 0.32751 0.0
C2110 C 0.4163 0.09321 0.32046 0.0
C2111 C 0.36576 0.09284 0.33547 0.0
C2112 C 0.36021 0.08013 0.34945 0.0
C2113 C 0.35214 0.10054 0.32324 0.0
C2114 C 0.35746 0.11214 0.30679 0.0
C2115 C 0.36851 0.10441 0.29238 0.0
C2116 C 0.37319 0.11519 0.27665 0.0
C2117 C 0.36706 0.13378 0.27528 0.0
C2118 C 0.35606 0.14156 0.28956 0.0
C2119 C 0.35115 0.13077 0.30523 0.0
H2120 H 0.37075 0.14211 0.2631 0.0
H2121 H 0.31908 0.02679 0.405 0.0
H2122 H 0.575 0.42402 0.29282 0.0
H2123 H 0.60043 0.43773 0.31089 0.0
H2124 H 0.59456 0.39403 0.35243 0.0
H2125 H 0.56835 0.38049 0.33445 0.0
H2126 H 0.60936 0.43068 0.36647 0.0
H2127 H 0.62017 0.38346 0.31812 0.0
H2128 H 0.61556 0.37076 0.28622 0.0
H2129 H 0.63999 0.42057 0.26252 0.0
H2130 H 0.64441 0.43371 0.29431 0.0
H2131 H 0.70254 0.41006 0.39268 0.0
H2132 H 0.66991 0.41119 0.3828 0.0
H2133 H 0.68476 0.4482 0.33715 0.0
H2134 H 0.71777 0.44699 0.34683 0.0
H2135 H 0.66448 0.41906 0.32526 0.0
H2136 H 0.65853 0.4643 0.37371 0.0
H2137 H 0.66237 0.47782 0.40535 0.0
H2138 H 0.62921 0.43324 0.42883 0.0
H2139 H 0.62539 0.41927 0.39736 0.0
C2140 C 0.57847 0.4178 0.3062 0.0
C2141 C 0.56983 0.40113 0.31219 0.0
C2142 C 0.59302 0.42569 0.31655 0.0
C2143 C 0.59958 0.41666 0.33276 0.0
C2144 C 0.58964 0.40119 0.33994 0.0
C2145 C 0.57472 0.39346 0.32968 0.0
C2146 C 0.61876 0.42084 0.3395 0.0
C2147 C 0.62147 0.42805 0.3576 0.0
C2148 C 0.63444 0.41781 0.32763 0.0
C2149 C 0.63244 0.40964 0.30856 0.0
C2150 C 0.62446 0.39174 0.3061 0.0
C2151 C 0.62188 0.38447 0.28804 0.0
C2152 C 0.62743 0.39488 0.27235 0.0
C2153 C 0.63567 0.41254 0.27469 0.0
C2154 C 0.63822 0.41991 0.29272 0.0
C2155 C 0.69894 0.41859 0.3806 0.0
C2156 C 0.71284 0.42831 0.37044 0.0
C2157 C 0.68018 0.41937 0.3751 0.0
C2158 C 0.67486 0.42995 0.35938 0.0
C2159 C 0.68859 0.44004 0.34941 0.0
C2160 C 0.70743 0.43931 0.35494 0.0
C2161 C 0.6553 0.42884 0.35241 0.0
C2162 C 0.65246 0.42203 0.33417 0.0
C2163 C 0.63961 0.43229 0.36418 0.0
C2164 C 0.64179 0.44066 0.38316 0.0
C2165 C 0.65217 0.45729 0.38563 0.0
C2166 C 0.65433 0.46505 0.40354 0.0
C2167 C 0.64607 0.45638 0.41909 0.0
C2168 C 0.6356 0.43994 0.41676 0.0
C2169 C 0.63342 0.4321 0.39889 0.0
H2170 H 0.64775 0.46241 0.43294 0.0
H2171 H 0.62539 0.38924 0.25838 0.0
H2172 H 0.28683 0.90311 0.14436 0.0
H2173 H 0.31995 0.90893 0.15109 0.0
H2174 H 0.31241 0.96778 0.13894 0.0
H2175 H 0.27882 0.96212 0.13266 0.0
H2176 H 0.34492 0.93927 0.11892 0.0
H2177 H 0.32285 0.97043 0.17499 0.0
H2178 H 0.30205 0.97361 0.20253 0.0
H2179 H 0.3214 0.92057 0.22371 0.0
H2180 H 0.34216 0.91697 0.19619 0.0
H2181 H 0.43106 0.92523 0.18889 0.0
H2182 H 0.40726 0.9454 0.17429 0.0
H2183 H 0.3857 0.89763 0.14387 0.0
H2184 H 0.40911 0.87747 0.15887 0.0
H2185 H 0.37088 0.93608 0.18349 0.0
H2186 H 0.36263 0.91232 0.10525 0.0
H2187 H 0.38286 0.90692 0.07768 0.0
H2188 H 0.42459 0.94393 0.10057 0.0
H2189 H 0.40451 0.94981 0.12816 0.0
C2190 C 0.29215 0.91733 0.14336 0.0
C2191 C 0.28033 0.93218 0.13804 0.0
C2192 C 0.31103 0.92062 0.14717 0.0
C2193 C 0.3185 0.93874 0.14543 0.0
C2194 C 0.30677 0.95372 0.14037 0.0
C2195 C 0.28766 0.95049 0.13692 0.0
C2196 C 0.33881 0.94126 0.14844 0.0
C2197 C 0.35081 0.93903 0.13298 0.0
C2198 C 0.34628 0.94122 0.16679 0.0
C2199 C 0.334 0.94341 0.18349 0.0
C2200 C 0.32257 0.95938 0.18546 0.0
C2201 C 0.3108 0.96127 0.20107 0.0
C2202 C 0.31037 0.94729 0.21484 0.0
C2203 C 0.32175 0.9314 0.21304 0.0
C2204 C 0.33356 0.92945 0.19746 0.0
C2205 C 0.42171 0.91928 0.17849 0.0
C2206 C 0.42178 0.8999 0.17491 0.0
C2207 C 0.40816 0.93079 0.17016 0.0
C2208 C 0.39474 0.92302 0.15799 0.0
C2209 C 0.39611 0.90398 0.15298 0.0
C2210 C 0.40946 0.89245 0.16152 0.0
C2211 C 0.37705 0.93318 0.15397 0.0
C2212 C 0.3654 0.93737 0.16932 0.0
C2213 C 0.36994 0.93489 0.1355 0.0
C2214 C 0.38203 0.93149 0.11883 0.0
C2215 C 0.37605 0.91944 0.10436 0.0
C2216 C 0.38752 0.91625 0.08873 0.0
C2217 C 0.405 0.92506 0.08738 0.0
C2218 C 0.41106 0.93708 0.10166 0.0
C2219 C 0.39965 0.94032 0.11731 0.0
H2220 H 0.41386 0.92257 0.07527 0.0
H2221 H 0.30124 0.94877 0.2269 0.0
H2222 H 0.57349 0.60543 0.16974 0.0
H2223 H 0.60029 0.59284 0.15174 0.0
H2224 H 0.63728 0.63175 0.17985 0.0
H2225 H 0.61083 0.64378 0.19814 0.0
H2226 H 0.64414 0.62547 0.13893 0.0
H2227 H 0.63304 0.59231 0.19968 0.0
H2228 H 0.61154 0.57405 0.21985 0.0
H2229 H 0.60529 0.53281 0.1763 0.0
H2230 H 0.62662 0.55098 0.1558 0.0
H2231 H 0.73673 0.60344 0.14974 0.0
H2232 H 0.70376 0.61025 0.15609 0.0
H2233 H 0.68849 0.5546 0.1375 0.0
H2234 H 0.72181 0.54741 0.13202 0.0
H2235 H 0.66623 0.56469 0.16512 0.0
H2236 H 0.68403 0.59259 0.10775 0.0
H2237 H 0.70379 0.61061 0.08574 0.0
H2238 H 0.69508 0.66058 0.11834 0.0
H2239 H 0.67553 0.6428 0.14075 0.0
C2240 C 0.58728 0.6116 0.17155 0.0
C2241 C 0.59029 0.62556 0.18513 0.0
C2242 C 0.60251 0.60441 0.16137 0.0
C2243 C 0.62067 0.61144 0.16451 0.0
C2244 C 0.62333 0.62629 0.17716 0.0
C2245 C 0.60828 0.6331 0.18759 0.0
C2246 C 0.63743 0.60206 0.15678 0.0
C2247 C 0.64899 0.61212 0.14446 0.0
C2248 C 0.64331 0.58435 0.16355 0.0
C2249 C 0.63128 0.57303 0.1762 0.0
C2250 C 0.62705 0.57936 0.19442 0.0
C2251 C 0.6149 0.56904 0.2059 0.0
C2252 C 0.60701 0.5523 0.19934 0.0
C2253 C 0.61139 0.54578 0.18135 0.0
C2254 C 0.62352 0.55607 0.16981 0.0
C2255 C 0.72637 0.59254 0.14738 0.0
C2256 C 0.73171 0.57497 0.14029 0.0
C2257 C 0.70753 0.59649 0.15082 0.0
C2258 C 0.69359 0.58317 0.1466 0.0
C2259 C 0.69899 0.56516 0.14063 0.0
C2260 C 0.71799 0.56104 0.13759 0.0
C2261 C 0.6735 0.58856 0.14788 0.0
C2262 C 0.6613 0.57774 0.159 0.0
C2263 C 0.66684 0.60542 0.13959 0.0
C2264 C 0.67834 0.61632 0.12598 0.0
C2265 C 0.68639 0.6074 0.11028 0.0
C2266 C 0.69756 0.61758 0.09773 0.0
C2267 C 0.70069 0.63673 0.10064 0.0
C2268 C 0.69262 0.64575 0.11609 0.0
C2269 C 0.68147 0.63563 0.12871 0.0
H2270 H 0.70936 0.64458 0.09092 0.0
H2271 H 0.59753 0.54438 0.20821 0.0
H2272 H 0.33021 0.42419 0.11398 0.0
H2273 H 0.34771 0.39986 0.09681 0.0
H2274 H 0.29747 0.36608 0.09365 0.0
H2275 H 0.28031 0.3897 0.11115 0.0
H2276 H 0.32491 0.34555 0.10483 0.0
H2277 H 0.31517 0.38966 0.05539 0.0
H2278 H 0.31627 0.42042 0.0395 0.0
H2279 H 0.37655 0.41971 0.04162 0.0
H2280 H 0.37581 0.38908 0.05783 0.0
H2281 H 0.35217 0.27624 0.04176 0.0
H2282 H 0.33765 0.30674 0.04797 0.0
H2283 H 0.39045 0.32792 0.06867 0.0
H2284 H 0.40506 0.29738 0.06282 0.0
H2285 H 0.36279 0.35545 0.0471 0.0
H2286 H 0.36974 0.31143 0.10047 0.0
H2287 H 0.36642 0.27972 0.11408 0.0
H2288 H 0.30745 0.28014 0.10139 0.0
H2289 H 0.31052 0.31175 0.08742 0.0
C2290 C 0.32298 0.41155 0.10959 0.0
C2291 C 0.30392 0.40883 0.11396 0.0
C2292 C 0.33292 0.39775 0.09967 0.0
C2293 C 0.32385 0.3812 0.09385 0.0
C2294 C 0.30478 0.37869 0.09804 0.0
C2295 C 0.29497 0.39227 0.10804 0.0
C2296 C 0.3342 0.36587 0.08431 0.0
C2297 C 0.33302 0.3478 0.09211 0.0
C2298 C 0.34492 0.36873 0.06777 0.0
C2299 C 0.34543 0.38716 0.05804 0.0
C2300 C 0.32867 0.39614 0.05264 0.0
C2301 C 0.32922 0.41354 0.04354 0.0
C2302 C 0.34647 0.42203 0.0396 0.0
C2303 C 0.3632 0.41313 0.04472 0.0
C2304 C 0.36272 0.39574 0.05386 0.0
C2305 C 0.36087 0.28757 0.04702 0.0
C2306 C 0.37967 0.28436 0.05212 0.0
C2307 C 0.35256 0.30499 0.05049 0.0
C2308 C 0.36302 0.31946 0.05882 0.0
C2309 C 0.38224 0.31691 0.06213 0.0
C2310 C 0.39049 0.29942 0.05894 0.0
C2311 C 0.35322 0.33544 0.06764 0.0
C2312 C 0.35462 0.35346 0.0598 0.0
C2313 C 0.34232 0.3326 0.08396 0.0
C2314 C 0.3404 0.31383 0.09276 0.0
C2315 C 0.3561 0.30469 0.10047 0.0
C2316 C 0.35426 0.28675 0.10826 0.0
C2317 C 0.33674 0.2779 0.10855 0.0
C2318 C 0.32102 0.287 0.10112 0.0
C2319 C 0.32279 0.30492 0.09328 0.0
H2320 H 0.33535 0.26401 0.11458 0.0
H2321 H 0.34688 0.43549 0.03255 0.0
H2322 H 0.32976 0.72833 0.43223 0.0
H2323 H 0.31748 0.69636 0.43397 0.0
H2324 H 0.35924 0.68247 0.4757 0.0
H2325 H 0.37155 0.7147 0.47386 0.0
H2326 H 0.36169 0.6603 0.44541 0.0
H2327 H 0.31179 0.67491 0.48766 0.0
H2328 H 0.28559 0.69317 0.50112 0.0
H2329 H 0.25588 0.6898 0.44877 0.0
H2330 H 0.28167 0.6711 0.43514 0.0
H2331 H 0.32569 0.56989 0.41444 0.0
H2332 H 0.33628 0.59524 0.43549 0.0
H2333 H 0.29913 0.63395 0.40717 0.0
H2334 H 0.28821 0.6088 0.38689 0.0
H2335 H 0.29569 0.63825 0.44335 0.0
H2336 H 0.34861 0.63127 0.39939 0.0
H2337 H 0.37482 0.61383 0.38486 0.0
H2338 H 0.39928 0.6047 0.43924 0.0
H2339 H 0.3731 0.62194 0.45409 0.0
C2340 C 0.33577 0.71862 0.4423 0.0
C2341 C 0.35142 0.72378 0.453 0.0
C2342 C 0.32872 0.7004 0.44339 0.0
C2343 C 0.33734 0.68704 0.4551 0.0
C2344 C 0.35229 0.69259 0.46671 0.0
C2345 C 0.35927 0.71093 0.4657 0.0
C2346 C 0.33294 0.66691 0.4523 0.0
C2347 C 0.34732 0.65522 0.44555 0.0
C2348 C 0.31423 0.66034 0.45232 0.0
C2349 C 0.29868 0.67163 0.46039 0.0
C2350 C 0.29969 0.67811 0.47901 0.0
C2351 C 0.2849 0.68851 0.48668 0.0
C2352 C 0.26917 0.6928 0.47576 0.0
C2353 C 0.26808 0.68649 0.45721 0.0
C2354 C 0.28271 0.67585 0.44956 0.0
C2355 C 0.32003 0.5839 0.41268 0.0
C2356 C 0.30619 0.58748 0.39909 0.0
C2357 C 0.32599 0.59832 0.42472 0.0
C2358 C 0.31841 0.61649 0.42298 0.0
C2359 C 0.30498 0.62001 0.40901 0.0
C2360 C 0.29885 0.60567 0.3973 0.0
C2361 C 0.32426 0.63225 0.43527 0.0
C2362 C 0.31015 0.64303 0.4439 0.0
C2363 C 0.3432 0.63807 0.43678 0.0
C2364 C 0.3588 0.62762 0.42785 0.0
C2365 C 0.35951 0.62539 0.40824 0.0
C2366 C 0.37436 0.61558 0.39995 0.0
C2367 C 0.38866 0.6081 0.41112 0.0
C2368 C 0.38816 0.61045 0.43061 0.0
C2369 C 0.37333 0.62024 0.43897 0.0
H2370 H 0.40016 0.60052 0.40468 0.0
H2371 H 0.2578 0.70097 0.4817 0.0
H2372 H 0.73096 0.89559 0.39745 0.0
H2373 H 0.71597 0.86892 0.41255 0.0
H2374 H 0.66157 0.88984 0.39592 0.0
H2375 H 0.67659 0.91731 0.38138 0.0
H2376 H 0.65994 0.87471 0.43043 0.0
H2377 H 0.68418 0.85567 0.37048 0.0
H2378 H 0.70813 0.85176 0.34576 0.0
H2379 H 0.74162 0.81823 0.38308 0.0
H2380 H 0.71797 0.82216 0.40813 0.0
H2381 H 0.61008 0.78896 0.42153 0.0
H2382 H 0.62594 0.81921 0.41904 0.0
H2383 H 0.67566 0.7954 0.44414 0.0
H2384 H 0.65971 0.7649 0.44691 0.0
H2385 H 0.68128 0.81196 0.40888 0.0
H2386 H 0.6537 0.82816 0.46761 0.0
H2387 H 0.62821 0.83134 0.49083 0.0
H2388 H 0.59907 0.8693 0.45412 0.0
H2389 H 0.62426 0.86614 0.43053 0.0
C2390 C 0.71579 0.89469 0.39712 0.0
C2391 C 0.70495 0.90848 0.38807 0.0
C2392 C 0.70724 0.87936 0.40573 0.0
C2393 C 0.68769 0.87718 0.40503 0.0
C2394 C 0.67671 0.89123 0.39656 0.0
C2395 C 0.68529 0.90684 0.38818 0.0
C2396 C 0.67894 0.85972 0.41226 0.0
C2397 C 0.66447 0.86099 0.42561 0.0
C2398 C 0.68517 0.84179 0.40628 0.0
C2399 C 0.69941 0.8394 0.39124 0.0
C2400 C 0.69672 0.84759 0.37346 0.0
C2401 C 0.71023 0.84535 0.35938 0.0
C2402 C 0.72641 0.83481 0.36286 0.0
C2403 C 0.72909 0.82643 0.38042 0.0
C2404 C 0.71564 0.82865 0.39456 0.0
C2405 C 0.62429 0.79023 0.42682 0.0
C2406 C 0.63376 0.77457 0.43423 0.0
C2407 C 0.63326 0.80756 0.42554 0.0
C2408 C 0.65191 0.80952 0.43149 0.0
C2409 C 0.6612 0.79411 0.43959 0.0
C2410 C 0.6521 0.77676 0.44117 0.0
C2411 C 0.66222 0.82694 0.42693 0.0
C2412 C 0.67695 0.82566 0.41395 0.0
C2413 C 0.656 0.84479 0.43304 0.0
C2414 C 0.64083 0.8468 0.44723 0.0
C2415 C 0.64179 0.83707 0.46441 0.0
C2416 C 0.6274 0.83889 0.47766 0.0
C2417 C 0.61202 0.85049 0.47394 0.0
C2418 C 0.611 0.86032 0.45698 0.0
C2419 C 0.62535 0.85854 0.44367 0.0
H2420 H 0.60089 0.85188 0.48421 0.0
H2421 H 0.73685 0.83308 0.35194 0.0
H2422 H 0.14825 0.71437 0.54089 0.0
H2423 H 0.15942 0.6823 0.54577 0.0
H2424 H 0.10234 0.66354 0.5541 0.0
H2425 H 0.09122 0.69571 0.54992 0.0
H2426 H 0.12206 0.65361 0.58237 0.0
H2427 H 0.13041 0.64712 0.51671 0.0
H2428 H 0.14029 0.65588 0.48469 0.0
H2429 H 0.19799 0.65627 0.50221 0.0
H2430 H 0.18847 0.64778 0.53441 0.0
H2431 H 0.16684 0.56668 0.60954 0.0
H2432 H 0.14645 0.58791 0.59138 0.0
H2433 H 0.19369 0.62451 0.58122 0.0
H2434 H 0.21387 0.60369 0.59911 0.0
H2435 H 0.17287 0.61923 0.54942 0.0
H2436 H 0.16267 0.63375 0.61594 0.0
H2437 H 0.15283 0.62597 0.64826 0.0
H2438 H 0.09804 0.61065 0.62822 0.0
H2439 H 0.10766 0.61814 0.59574 0.0
C2440 C 0.13806 0.7033 0.54318 0.0
C2441 C 0.11892 0.70753 0.54525 0.0
C2442 C 0.14443 0.68492 0.54591 0.0
C2443 C 0.13171 0.67044 0.55031 0.0
C2444 C 0.11242 0.67447 0.55084 0.0
C2445 C 0.1061 0.69285 0.54843 0.0
C2446 C 0.13871 0.65199 0.55706 0.0
C2447 C 0.13278 0.6458 0.57485 0.0
C2448 C 0.15284 0.64186 0.54743 0.0
C2449 C 0.15869 0.64687 0.52803 0.0
C2450 C 0.1452 0.64918 0.51378 0.0
C2451 C 0.15074 0.65409 0.49558 0.0
C2452 C 0.16975 0.65665 0.49142 0.0
C2453 C 0.18327 0.65427 0.50545 0.0
C2454 C 0.17781 0.64937 0.52367 0.0
C2455 C 0.1728 0.57926 0.6034 0.0
C2456 C 0.19193 0.58354 0.60578 0.0
C2457 C 0.16119 0.59131 0.593 0.0
C2458 C 0.16862 0.60773 0.58488 0.0
C2459 C 0.18772 0.61182 0.58716 0.0
C2460 C 0.19921 0.59993 0.59753 0.0
C2461 C 0.15665 0.62147 0.57486 0.0
C2462 C 0.16168 0.62675 0.55652 0.0
C2463 C 0.14167 0.63079 0.58393 0.0
C2464 C 0.13596 0.62624 0.60342 0.0
C2465 C 0.14858 0.62856 0.61842 0.0
C2466 C 0.14304 0.62424 0.63676 0.0
C2467 C 0.12485 0.61775 0.64028 0.0
C2468 C 0.11214 0.61562 0.62547 0.0
C2469 C 0.11763 0.6199 0.6071 0.0
H2470 H 0.12057 0.61442 0.6545 0.0
H2471 H 0.17401 0.66046 0.47733 0.0
H2472 H 0.92444 0.59976 0.70177 0.0
H2473 H 0.92034 0.61077 0.66943 0.0
H2474 H 0.93839 0.66614 0.68594 0.0
H2475 H 0.94304 0.6551 0.71827 0.0
H2476 H 0.89748 0.65774 0.6705 0.0
H2477 H 0.96433 0.65251 0.6591 0.0
H2478 H 0.99451 0.63559 0.65783 0.0
H2479 H 0.97136 0.59667 0.61802 0.0
H2480 H 0.94092 0.6132 0.61928 0.0
H2481 H 0.8961 0.71839 0.59587 0.0
H2482 H 0.90845 0.6989 0.62088 0.0
H2483 H 0.89397 0.64904 0.58975 0.0
H2484 H 0.88133 0.66874 0.56414 0.0
H2485 H 0.9322 0.65007 0.61049 0.0
H2486 H 0.86602 0.65591 0.6202 0.0
H2487 H 0.83561 0.67241 0.62142 0.0
H2488 H 0.85671 0.70875 0.66467 0.0
H2489 H 0.88737 0.69266 0.66348 0.0
C2490 C 0.92806 0.61414 0.69837 0.0
C2491 C 0.93392 0.62665 0.7125 0.0
C2492 C 0.9258 0.62036 0.67991 0.0
C2493 C 0.92911 0.6392 0.6754 0.0
C2494 C 0.93596 0.65148 0.68922 0.0
C2495 C 0.93862 0.64517 0.70763 0.0
C2496 C 0.92236 0.64673 0.65733 0.0
C2497 C 0.90512 0.65618 0.65739 0.0
C2498 C 0.93202 0.64392 0.64021 0.0
C2499 C 0.95026 0.63392 0.6395 0.0
C2500 C 0.96559 0.64019 0.65027 0.0
C2501 C 0.98277 0.63072 0.64949 0.0
C2502 C 0.98484 0.61502 0.63791 0.0
C2503 C 0.96973 0.6088 0.62702 0.0
C2504 C 0.95251 0.61823 0.62775 0.0
C2505 C 0.89565 0.70329 0.5941 0.0
C2506 C 0.88756 0.6951 0.57805 0.0
C2507 C 0.90279 0.69218 0.60844 0.0
C2508 C 0.90202 0.6726 0.60717 0.0
C2509 C 0.8947 0.66419 0.59089 0.0
C2510 C 0.88742 0.67541 0.57638 0.0
C2511 C 0.90752 0.66147 0.62379 0.0
C2512 C 0.92443 0.65134 0.62354 0.0
C2513 C 0.89749 0.66344 0.64082 0.0
C2514 C 0.87905 0.67317 0.64163 0.0
C2515 C 0.86424 0.66754 0.62985 0.0
C2516 C 0.84694 0.67679 0.63056 0.0
C2517 C 0.84424 0.69165 0.64309 0.0
C2518 C 0.85883 0.69725 0.65496 0.0
C2519 C 0.87617 0.68805 0.65429 0.0
H2520 H 0.83083 0.69879 0.64363 0.0
H2521 H 0.99815 0.60771 0.63732 0.0
H2522 H 0.0746 0.89397 0.70127 0.0
H2523 H 0.07643 0.88171 0.66929 0.0
H2524 H 0.05133 0.82973 0.68771 0.0
H2525 H 0.04933 0.84194 0.71982 0.0
H2526 H 0.08644 0.82584 0.67076 0.0
H2527 H 0.02775 0.85607 0.65829 0.0
H2528 H 0.00532 0.88242 0.65754 0.0
H2529 H 0.04207 0.91308 0.62081 0.0
H2530 H 0.06488 0.887 0.62156 0.0
H2531 H 0.08383 0.7773 0.58761 0.0
H2532 H 0.07151 0.79532 0.61378 0.0
H2533 H 0.09974 0.84487 0.59332 0.0
H2534 H 0.11208 0.82676 0.56653 0.0
H2535 H 0.06258 0.85136 0.61039 0.0
H2536 H 0.12184 0.82254 0.62409 0.0
H2537 H 0.14492 0.79675 0.62502 0.0
H2538 H 0.10792 0.76452 0.66013 0.0
H2539 H 0.08447 0.79002 0.65915 0.0
C2540 C 0.06915 0.88005 0.69846 0.0
C2541 C 0.06204 0.86881 0.71308 0.0
C2542 C 0.07007 0.87314 0.68015 0.0
C2543 C 0.064 0.85485 0.67619 0.0
C2544 C 0.05602 0.84392 0.69055 0.0
C2545 C 0.05487 0.85091 0.70885 0.0
C2546 C 0.06837 0.84634 0.65779 0.0
C2547 C 0.08095 0.83122 0.65759 0.0
C2548 C 0.0618 0.85393 0.64063 0.0
C2549 C 0.04812 0.86964 0.64014 0.0
C2550 C 0.03115 0.8685 0.6502 0.0
C2551 C 0.01834 0.88337 0.64974 0.0
C2552 C 0.02229 0.89943 0.63917 0.0
C2553 C 0.03904 0.90063 0.629 0.0
C2554 C 0.05191 0.8858 0.62943 0.0
C2555 C 0.0872 0.79211 0.58838 0.0
C2556 C 0.09916 0.80058 0.57516 0.0
C2557 C 0.08007 0.80239 0.60336 0.0
C2558 C 0.08495 0.8213 0.60559 0.0
C2559 C 0.09585 0.83024 0.59178 0.0
C2560 C 0.10294 0.8199 0.57657 0.0
C2561 C 0.08039 0.83073 0.6235 0.0
C2562 C 0.06797 0.84602 0.6236 0.0
C2563 C 0.08723 0.82347 0.64069 0.0
C2564 C 0.10132 0.80811 0.64138 0.0
C2565 C 0.11855 0.80988 0.63186 0.0
C2566 C 0.13171 0.79533 0.63243 0.0
C2567 C 0.12787 0.77898 0.64259 0.0
C2568 C 0.11087 0.77718 0.65224 0.0
C2569 C 0.09764 0.79168 0.6517 0.0
H2570 H 0.13808 0.76773 0.64302 0.0
H2571 H 0.01235 0.91093 0.63883 0.0
H2572 H 0.95656 0.36261 0.77365 0.0
H2573 H 0.95545 0.35675 0.80753 0.0
H2574 H 0.8967 0.37165 0.80825 0.0
H2575 H 0.89776 0.37794 0.77466 0.0
H2576 H 0.91469 0.38743 0.8372 0.0
H2577 H 0.91174 0.32529 0.80845 0.0
H2578 H 0.92396 0.30005 0.78808 0.0
H2579 H 0.97478 0.29807 0.82051 0.0
H2580 H 0.9629 0.32343 0.84096 0.0
H2581 H 0.87126 0.33795 0.91132 0.0
H2582 H 0.88347 0.35477 0.88393 0.0
H2583 H 0.93925 0.33438 0.89627 0.0
H2584 H 0.92689 0.31733 0.92339 0.0
H2585 H 0.92941 0.3243 0.86264 0.0
H2586 H 0.92926 0.38217 0.89541 0.0
H2587 H 0.91711 0.40752 0.91562 0.0
H2588 H 0.87266 0.41806 0.87625 0.0
H2589 H 0.88436 0.39258 0.85592 0.0
C2590 C 0.94338 0.36451 0.78102 0.0
C2591 C 0.92724 0.37068 0.77144 0.0
C2592 C 0.94279 0.36122 0.80037 0.0
C2593 C 0.92597 0.36375 0.81039 0.0
C2594 C 0.90985 0.36977 0.80083 0.0
C2595 C 0.91047 0.37323 0.78158 0.0
C2596 C 0.92478 0.35965 0.83075 0.0
C2597 C 0.91784 0.37362 0.84283 0.0
C2598 C 0.92957 0.34186 0.83814 0.0
C2599 C 0.93653 0.32637 0.82609 0.0
C2600 C 0.92555 0.31952 0.81117 0.0
C2601 C 0.93241 0.30519 0.79963 0.0
C2602 C 0.95016 0.2975 0.80296 0.0
C2603 C 0.96105 0.30406 0.81792 0.0
C2604 C 0.95425 0.31839 0.82951 0.0
C2605 C 0.88624 0.33777 0.90859 0.0
C2606 C 0.89818 0.32642 0.91932 0.0
C2607 C 0.89324 0.34736 0.89295 0.0
C2608 C 0.91231 0.3458 0.888 0.0
C2609 C 0.92449 0.33572 0.89977 0.0
C2610 C 0.91745 0.32601 0.91527 0.0
C2611 C 0.9187 0.35191 0.86914 0.0
C2612 C 0.92664 0.33829 0.85726 0.0
C2613 C 0.9148 0.37002 0.86198 0.0
C2614 C 0.90765 0.38536 0.87418 0.0
C2615 C 0.9168 0.38978 0.89112 0.0
C2616 C 0.91001 0.4042 0.90259 0.0
C2617 C 0.89411 0.41437 0.89723 0.0
C2618 C 0.88498 0.41017 0.88038 0.0
C2619 C 0.89171 0.39575 0.86886 0.0
H2620 H 0.88887 0.42553 0.90613 0.0
H2621 H 0.95547 0.28644 0.79398 0.0
H2622 H 0.0354 0.14177 0.79304 0.0
H2623 H 0.03677 0.1478 0.82709 0.0
H2624 H 0.09703 0.15298 0.82359 0.0
H2625 H 0.09579 0.14715 0.78992 0.0
H2626 H 0.08223 0.12355 0.84854 0.0
H2627 H 0.07424 0.1901 0.83131 0.0
H2628 H 0.05609 0.21642 0.81797 0.0
H2629 H 0.01083 0.20496 0.85619 0.0
H2630 H 0.02866 0.17839 0.86959 0.0
H2631 H 0.13793 0.17286 0.909 0.0
H2632 H 0.11877 0.15575 0.88641 0.0
H2633 H 0.06984 0.16436 0.92119 0.0
H2634 H 0.08937 0.18107 0.94425 0.0
H2635 H 0.06638 0.18002 0.88604 0.0
H2636 H 0.07994 0.12002 0.90962 0.0
H2637 H 0.09856 0.09416 0.92316 0.0
H2638 H 0.13296 0.09256 0.87364 0.0
H2639 H 0.11477 0.11858 0.85989 0.0
C2640 C 0.04883 0.14485 0.79948 0.0
C2641 C 0.06553 0.14378 0.78894 0.0
C2642 C 0.0496 0.14812 0.8189 0.0
C2643 C 0.06704 0.15041 0.82778 0.0
C2644 C 0.08348 0.15094 0.81697 0.0
C2645 C 0.08273 0.14771 0.79773 0.0
C2646 C 0.06889 0.15067 0.84842 0.0
C2647 C 0.07866 0.13579 0.85688 0.0
C2648 C 0.06331 0.16621 0.85936 0.0
C2649 C 0.05264 0.1821 0.85124 0.0
C2650 C 0.06033 0.19306 0.83671 0.0
C2651 C 0.05013 0.20806 0.82918 0.0
C2652 C 0.03228 0.21231 0.83617 0.0
C2653 C 0.02463 0.20161 0.85075 0.0
C2654 C 0.03478 0.18659 0.85832 0.0
C2655 C 0.12332 0.17015 0.9123 0.0
C2656 C 0.11509 0.17803 0.92831 0.0
C2657 C 0.11232 0.16044 0.89939 0.0
C2658 C 0.09285 0.15878 0.90212 0.0
C2659 C 0.08485 0.16539 0.9189 0.0
C2660 C 0.096 0.1748 0.93208 0.0
C2661 C 0.08103 0.15347 0.88587 0.0
C2662 C 0.06928 0.16734 0.87811 0.0
C2663 C 0.0848 0.13697 0.87554 0.0
C2664 C 0.09593 0.12129 0.88371 0.0
C2665 C 0.09154 0.11424 0.90164 0.0
C2666 C 0.10202 0.09953 0.90936 0.0
C2667 C 0.11692 0.09172 0.89926 0.0
C2668 C 0.12138 0.09859 0.88143 0.0
C2669 C 0.11095 0.1133 0.87365 0.0
H2670 H 0.12502 0.08033 0.90526 0.0
H2671 H 0.02441 0.22393 0.83033 0.0
H2672 H 0.60355 0.86778 0.68386 0.0
H2673 H 0.62699 0.88796 0.66914 0.0
H2674 H 0.58505 0.93079 0.66048 0.0
H2675 H 0.56122 0.91024 0.6751 0.0
H2676 H 0.62128 0.9205 0.62979 0.0
H2677 H 0.60343 0.94756 0.68982 0.0
H2678 H 0.59205 0.94545 0.7225 0.0
H2679 H 0.63836 0.90949 0.73663 0.0
H2680 H 0.65005 0.91146 0.70403 0.0
H2681 H 0.71401 0.96544 0.62985 0.0
H2682 H 0.68005 0.96552 0.63674 0.0
H2683 H 0.68552 0.91145 0.66354 0.0
H2684 H 0.71906 0.91103 0.65611 0.0
H2685 H 0.66165 0.94074 0.68296 0.0
H2686 H 0.6741 0.90892 0.62178 0.0
H2687 H 0.68614 0.91015 0.58928 0.0
H2688 H 0.64958 0.95658 0.57719 0.0
H2689 H 0.63751 0.95574 0.60973 0.0
C2690 C 0.59916 0.88117 0.6781 0.0
C2691 C 0.58067 0.88747 0.6804 0.0
C2692 C 0.61253 0.89268 0.66973 0.0
C2693 C 0.60771 0.91082 0.66381 0.0
C2694 C 0.58892 0.91673 0.66481 0.0
C2695 C 0.57536 0.905 0.67305 0.0
C2696 C 0.6232 0.924 0.65979 0.0
C2697 C 0.62978 0.92572 0.64131 0.0
C2698 C 0.63431 0.93066 0.67483 0.0
C2699 C 0.62757 0.92963 0.69451 0.0
C2700 C 0.61114 0.93916 0.6999 0.0
C2701 C 0.60466 0.93802 0.7184 0.0
C2702 C 0.61443 0.92729 0.73162 0.0
C2703 C 0.6308 0.9178 0.72638 0.0
C2704 C 0.63741 0.919 0.70792 0.0
C2705 C 0.70794 0.95383 0.63759 0.0
C2706 C 0.71899 0.93824 0.64256 0.0
C2707 C 0.68863 0.95386 0.64143 0.0
C2708 C 0.68041 0.93851 0.65066 0.0
C2709 C 0.69169 0.92346 0.65651 0.0
C2710 C 0.71078 0.92321 0.65226 0.0
C2711 C 0.65989 0.9369 0.65303 0.0
C2712 C 0.65263 0.93687 0.6713 0.0
C2713 C 0.64809 0.93218 0.63776 0.0
C2714 C 0.65506 0.93239 0.61817 0.0
C2715 C 0.66873 0.91945 0.6122 0.0
C2716 C 0.67553 0.92007 0.59379 0.0
C2717 C 0.66864 0.93345 0.58118 0.0
C2718 C 0.6549 0.94622 0.58697 0.0
C2719 C 0.64808 0.94569 0.60539 0.0
H2720 H 0.67393 0.93391 0.56693 0.0
H2721 H 0.60933 0.92634 0.74591 0.0
H2722 H 0.40329 0.59036 0.71269 0.0
H2723 H 0.38065 0.57564 0.69195 0.0
H2724 H 0.41092 0.59636 0.64369 0.0
H2725 H 0.4341 0.61117 0.66465 0.0
H2726 H 0.37283 0.60479 0.64344 0.0
H2727 H 0.41044 0.55059 0.65073 0.0
H2728 H 0.42948 0.52729 0.66784 0.0
H2729 H 0.3809 0.51012 0.69921 0.0
H2730 H 0.36162 0.53357 0.68257 0.0
H2731 H 0.297 0.56701 0.59438 0.0
H2732 H 0.33006 0.56902 0.60317 0.0
H2733 H 0.31616 0.55177 0.6596 0.0
H2734 H 0.28298 0.54923 0.65073 0.0
H2735 H 0.35092 0.5388 0.64884 0.0
H2736 H 0.31668 0.59776 0.64833 0.0
H2737 H 0.2972 0.62241 0.63373 0.0
H2738 H 0.3395 0.63134 0.59164 0.0
H2739 H 0.35913 0.60653 0.60588 0.0
C2740 C 0.40537 0.59163 0.69769 0.0
C2741 C 0.42049 0.60194 0.69029 0.0
C2742 C 0.39245 0.58306 0.68583 0.0
C2743 C 0.39429 0.58466 0.66631 0.0
C2744 C 0.40943 0.59481 0.65876 0.0
C2745 C 0.42259 0.60328 0.6707 0.0
C2746 C 0.37912 0.57725 0.65423 0.0
C2747 C 0.36837 0.59022 0.64409 0.0
C2748 C 0.37312 0.55833 0.65553 0.0
C2749 C 0.38457 0.54393 0.6654 0.0
C2750 C 0.40382 0.54193 0.66135 0.0
C2751 C 0.41466 0.52868 0.67097 0.0
C2752 C 0.4064 0.51724 0.68461 0.0
C2753 C 0.38727 0.51899 0.68862 0.0
C2754 C 0.37637 0.53224 0.67908 0.0
C2755 C 0.30103 0.56327 0.60858 0.0
C2756 C 0.28741 0.55833 0.62201 0.0
C2757 C 0.31993 0.56438 0.61354 0.0
C2758 C 0.32547 0.56096 0.63212 0.0
C2759 C 0.31213 0.55453 0.64519 0.0
C2760 C 0.29319 0.55315 0.64014 0.0
C2761 C 0.34445 0.56647 0.63854 0.0
C2762 C 0.35578 0.55319 0.64766 0.0
C2763 C 0.35096 0.58517 0.63651 0.0
C2764 C 0.33924 0.60015 0.62801 0.0
C2765 C 0.32175 0.60489 0.63588 0.0
C2766 C 0.3107 0.6189 0.62769 0.0
C2767 C 0.31708 0.62839 0.61173 0.0
C2768 C 0.33456 0.62394 0.60397 0.0
C2769 C 0.34566 0.60991 0.6121 0.0
H2770 H 0.30851 0.63923 0.6054 0.0
H2771 H 0.41483 0.507 0.69205 0.0
H2772 H 0.73455 0.05016 0.8435 0.0
H2773 H 0.70487 0.05346 0.8264 0.0
H2774 H 0.67753 0.07205 0.87717 0.0
H2775 H 0.70717 0.06911 0.89428 0.0
H2776 H 0.65433 0.04869 0.85221 0.0
H2777 H 0.69431 0.10383 0.85299 0.0
H2778 H 0.72412 0.12076 0.84807 0.0
H2779 H 0.72289 0.10656 0.78947 0.0
H2780 H 0.69327 0.08909 0.79416 0.0
H2781 H 0.58148 0.10973 0.81965 0.0
H2782 H 0.60812 0.09512 0.8359 0.0
H2783 H 0.63589 0.08648 0.78271 0.0
H2784 H 0.60958 0.10117 0.76649 0.0
H2785 H 0.65891 0.10219 0.80769 0.0
H2786 H 0.61689 0.05012 0.80588 0.0
H2787 H 0.58693 0.03342 0.81065 0.0
H2788 H 0.59142 0.04169 0.87023 0.0
H2789 H 0.62126 0.05877 0.86579 0.0
C2790 C 0.72209 0.05443 0.85113 0.0
C2791 C 0.72318 0.05964 0.87014 0.0
C2792 C 0.70518 0.0563 0.84136 0.0
C2793 C 0.68912 0.06312 0.85055 0.0
C2794 C 0.68979 0.06673 0.86989 0.0
C2795 C 0.70674 0.06518 0.87958 0.0
C2796 C 0.6726 0.06927 0.83964 0.0
C2797 C 0.65523 0.06041 0.8425 0.0
C2798 C 0.67396 0.0844 0.82685 0.0
C2799 C 0.69174 0.0949 0.82399 0.0
C2800 C 0.70052 0.1041 0.83911 0.0
C2801 C 0.71737 0.11381 0.83635 0.0
C2802 C 0.72545 0.11463 0.81848 0.0
C2803 C 0.71666 0.1058 0.80332 0.0
C2804 C 0.69986 0.09598 0.80602 0.0
C2805 C 0.59325 0.10466 0.81146 0.0
C2806 C 0.59349 0.10664 0.79183 0.0
C2807 C 0.60838 0.09621 0.82072 0.0
C2808 C 0.6239 0.08959 0.81046 0.0
C2809 C 0.62405 0.09147 0.79087 0.0
C2810 C 0.60899 0.09987 0.78164 0.0
C2811 C 0.64048 0.08164 0.82014 0.0
C2812 C 0.65793 0.09027 0.81715 0.0
C2813 C 0.63912 0.06629 0.83272 0.0
C2814 C 0.62124 0.0559 0.83548 0.0
C2815 C 0.61142 0.04853 0.81999 0.0
C2816 C 0.59447 0.03897 0.82263 0.0
C2817 C 0.58726 0.03653 0.84073 0.0
C2818 C 0.59702 0.04361 0.85622 0.0
C2819 C 0.61395 0.05323 0.85364 0.0
H2820 H 0.57413 0.02912 0.84275 0.0
H2821 H 0.73847 0.12219 0.81636 0.0
H2822 H 0.28187 0.45846 0.86866 0.0
H2823 H 0.31584 0.45498 0.86358 0.0
H2824 H 0.30944 0.39469 0.86305 0.0
H2825 H 0.2759 0.39806 0.86858 0.0
H2826 H 0.33741 0.40432 0.88532 0.0
H2827 H 0.3161 0.42199 0.82234 0.0
H2828 H 0.30126 0.44346 0.79953 0.0
H2829 H 0.34088 0.4866 0.81391 0.0
H2830 H 0.35581 0.46543 0.83696 0.0
H2831 H 0.40166 0.35834 0.82865 0.0
H2832 H 0.37644 0.37375 0.84598 0.0
H2833 H 0.40741 0.42586 0.84491 0.0
H2834 H 0.43294 0.41018 0.82756 0.0
H2835 H 0.37186 0.42904 0.83004 0.0
H2836 H 0.39788 0.40663 0.88701 0.0
H2837 H 0.41257 0.38383 0.90855 0.0
H2838 H 0.36393 0.34838 0.90476 0.0
H2839 H 0.34904 0.3708 0.88299 0.0
C2840 C 0.28774 0.4445 0.86721 0.0
C2841 C 0.27628 0.42852 0.86911 0.0
C2842 C 0.30713 0.44253 0.86437 0.0
C2843 C 0.3152 0.42456 0.86307 0.0
C2844 C 0.30359 0.40869 0.86429 0.0
C2845 C 0.28439 0.41063 0.86735 0.0
C2846 C 0.33572 0.42181 0.86067 0.0
C2847 C 0.34497 0.40974 0.87324 0.0
C2848 C 0.34584 0.42958 0.84543 0.0
C2849 C 0.3369 0.44223 0.83152 0.0
C2850 C 0.32155 0.4361 0.82072 0.0
C2851 C 0.31314 0.4482 0.80774 0.0
C2852 C 0.32008 0.46641 0.80532 0.0
C2853 C 0.33549 0.47252 0.81583 0.0
C2854 C 0.34393 0.46048 0.82885 0.0
C2855 C 0.40341 0.37287 0.83284 0.0
C2856 C 0.41926 0.38304 0.82722 0.0
C2857 C 0.38901 0.38169 0.84271 0.0
C2858 C 0.39012 0.40093 0.84689 0.0
C2859 C 0.40639 0.41097 0.84198 0.0
C2860 C 0.42099 0.40201 0.83227 0.0
C2861 C 0.37314 0.4106 0.85404 0.0
C2862 C 0.36454 0.42407 0.84245 0.0
C2863 C 0.36353 0.40396 0.8701 0.0
C2864 C 0.37235 0.39044 0.88333 0.0
C2865 C 0.39035 0.39393 0.89069 0.0
C2866 C 0.39871 0.38107 0.90295 0.0
C2867 C 0.38919 0.36467 0.90802 0.0
C2868 C 0.37128 0.3611 0.90085 0.0
C2869 C 0.36285 0.37391 0.88858 0.0
H2870 H 0.39569 0.35472 0.9175 0.0
H2871 H 0.31355 0.47576 0.79526 0.0
H2872 H 0.65126 0.72777 0.89768 0.0
H2873 H 0.65504 0.69384 0.8956 0.0
H2874 H 0.64574 0.68878 0.95525 0.0
H2875 H 0.64202 0.723 0.95753 0.0
H2876 H 0.67328 0.66332 0.94049 0.0
H2877 H 0.60994 0.68023 0.93004 0.0
H2878 H 0.58391 0.69913 0.91723 0.0
H2879 H 0.59953 0.68324 0.86118 0.0
H2880 H 0.62588 0.66452 0.87362 0.0
H2881 H 0.67302 0.56851 0.90936 0.0
H2882 H 0.65671 0.5947 0.92493 0.0
H2883 H 0.6631 0.6282 0.87479 0.0
H2884 H 0.67959 0.60233 0.85952 0.0
H2885 H 0.62915 0.63536 0.89424 0.0
H2886 H 0.69883 0.63151 0.90722 0.0
H2887 H 0.72599 0.61375 0.91953 0.0
H2888 H 0.69641 0.60379 0.97118 0.0
H2889 H 0.66921 0.62178 0.95923 0.0
C2890 C 0.65045 0.71953 0.91046 0.0
C2891 C 0.64609 0.72802 0.92772 0.0
C2892 C 0.65251 0.70014 0.90923 0.0
C2893 C 0.6501 0.68883 0.92518 0.0
C2894 C 0.64742 0.69731 0.94276 0.0
C2895 C 0.64542 0.71685 0.94404 0.0
C2896 C 0.64919 0.66822 0.92285 0.0
C2897 C 0.66327 0.65705 0.93086 0.0
C2898 C 0.636 0.66004 0.91041 0.0
C2899 C 0.61994 0.67098 0.90279 0.0
C2900 C 0.60789 0.68083 0.91498 0.0
C2901 C 0.59307 0.69152 0.90778 0.0
C2902 C 0.59007 0.69239 0.88841 0.0
C2903 C 0.60186 0.68254 0.87619 0.0
C2904 C 0.61673 0.67186 0.88331 0.0
C2905 C 0.67012 0.5812 0.90148 0.0
C2906 C 0.6773 0.58352 0.88326 0.0
C2907 C 0.66098 0.59616 0.91039 0.0
C2908 C 0.65886 0.61341 0.90103 0.0
C2909 C 0.66449 0.61498 0.88221 0.0
C2910 C 0.67384 0.60021 0.87347 0.0
C2911 C 0.65373 0.63076 0.9112 0.0
C2912 C 0.63856 0.64141 0.90459 0.0
C2913 C 0.66572 0.63839 0.92509 0.0
C2914 C 0.68207 0.62787 0.93235 0.0
C2915 C 0.69818 0.62555 0.92121 0.0
C2916 C 0.71356 0.61548 0.92812 0.0
C2917 C 0.71289 0.6076 0.9461 0.0
C2918 C 0.6969 0.60991 0.95726 0.0
C2919 C 0.68155 0.62011 0.95047 0.0
H2920 H 0.72476 0.5997 0.95138 0.0
H2921 H 0.5786 0.70068 0.88286 0.0
H2922 H 0.65509 0.27273 0.54857 0.0
H2923 H 0.66847 0.30402 0.55362 0.0
H2924 H 0.61695 0.32198 0.57997 0.0
H2925 H 0.60345 0.29089 0.57496 0.0
H2926 H 0.63417 0.35043 0.55812 0.0
H2927 H 0.64933 0.30518 0.60645 0.0
H2928 H 0.66182 0.27521 0.61847 0.0
H2929 H 0.71635 0.28878 0.59653 0.0
H2930 H 0.70404 0.3186 0.58388 0.0
H2931 H 0.67308 0.42279 0.61881 0.0
H2932 H 0.65533 0.39659 0.60483 0.0
H2933 H 0.70682 0.37376 0.58244 0.0
H2934 H 0.72443 0.39917 0.59656 0.0
H2935 H 0.68833 0.34823 0.60191 0.0
H2936 H 0.67415 0.3938 0.55429 0.0
H2937 H 0.66205 0.42374 0.54175 0.0
H2938 H 0.60683 0.41021 0.56188 0.0
H2939 H 0.61866 0.38034 0.57486 0.0
C2940 C 0.64647 0.28346 0.55505 0.0
C2941 C 0.62835 0.27926 0.56167 0.0
C2942 C 0.65412 0.30131 0.55792 0.0
C2943 C 0.64373 0.31517 0.56737 0.0
C2944 C 0.62516 0.31144 0.57268 0.0
C2945 C 0.61756 0.29361 0.56995 0.0
C2946 C 0.65289 0.33261 0.57385 0.0
C2947 C 0.64595 0.35004 0.56777 0.0
C2948 C 0.66829 0.33196 0.58636 0.0
C2949 C 0.67569 0.31402 0.594 0.0
C2950 C 0.66393 0.30168 0.60399 0.0
C2951 C 0.67098 0.28471 0.61091 0.0
C2952 C 0.68984 0.28003 0.60816 0.0
C2953 C 0.70171 0.29236 0.59854 0.0
C2954 C 0.6947 0.30928 0.59146 0.0
C2955 C 0.6805 0.41225 0.61073 0.0
C2956 C 0.70014 0.41295 0.60893 0.0
C2957 C 0.67038 0.39738 0.60269 0.0
C2958 C 0.67981 0.38323 0.59264 0.0
C2959 C 0.69928 0.38445 0.59023 0.0
C2960 C 0.70933 0.39906 0.59833 0.0
C2961 C 0.66998 0.36621 0.58588 0.0
C2962 C 0.67665 0.34875 0.59212 0.0
C2963 C 0.65446 0.36692 0.57348 0.0
C2964 C 0.64734 0.38492 0.56575 0.0
C2965 C 0.65947 0.39729 0.55622 0.0
C2966 C 0.65265 0.41423 0.54899 0.0
C2967 C 0.6337 0.41889 0.55105 0.0
C2968 C 0.62152 0.4066 0.56032 0.0
C2969 C 0.62827 0.38966 0.56762 0.0
H2970 H 0.62845 0.432 0.54543 0.0
H2971 H 0.69528 0.2669 0.61355 0.0
H2972 H 0.28253 0.11456 0.60949 0.0
H2973 H 0.30245 0.13736 0.59362 0.0
H2974 H 0.35135 0.10396 0.60639 0.0
H2975 H 0.3313 0.08069 0.62222 0.0
H2976 H 0.35464 0.14244 0.6156 0.0
H2977 H 0.33855 0.10506 0.56268 0.0
H2978 H 0.31737 0.08728 0.54185 0.0
H2979 H 0.28688 0.13776 0.52923 0.0
H2980 H 0.30777 0.15583 0.55015 0.0
H2981 H 0.40596 0.21282 0.57009 0.0
H2982 H 0.3945 0.18094 0.57546 0.0
H2983 H 0.3384 0.19862 0.56076 0.0
H2984 H 0.34999 0.23036 0.55453 0.0
H2985 H 0.34361 0.16346 0.55001 0.0
H2986 H 0.35486 0.19891 0.60718 0.0
H2987 H 0.37428 0.21718 0.62931 0.0
H2988 H 0.41213 0.17057 0.63505 0.0
H2989 H 0.39303 0.1521 0.61277 0.0
C2990 C 0.29749 0.11193 0.60886 0.0
C2991 C 0.30536 0.0958 0.61707 0.0
C2992 C 0.30885 0.12494 0.59967 0.0
C2993 C 0.3283 0.12218 0.59861 0.0
C2994 C 0.33631 0.10621 0.60695 0.0
C2995 C 0.32487 0.09299 0.616 0.0
C2996 C 0.34014 0.13673 0.5897 0.0
C2997 C 0.35265 0.14674 0.6011 0.0
C2998 C 0.33714 0.14252 0.57093 0.0
C2999 C 0.32469 0.13179 0.55808 0.0
C3000 C 0.32727 0.11236 0.55555 0.0
C3001 C 0.31532 0.10223 0.54372 0.0
C3002 C 0.30075 0.11137 0.53427 0.0
C3003 C 0.29817 0.13069 0.53657 0.0
C3004 C 0.31009 0.1409 0.54838 0.0
C3005 C 0.39126 0.2098 0.56763 0.0
C3006 C 0.37879 0.22411 0.56217 0.0
C3007 C 0.38472 0.19159 0.57074 0.0
C3008 C 0.3655 0.18752 0.56902 0.0
C3009 C 0.35327 0.20146 0.56228 0.0
C3010 C 0.35989 0.21961 0.55876 0.0
C3011 C 0.3578 0.16947 0.57606 0.0
C3012 C 0.34601 0.15887 0.56434 0.0
C3013 C 0.36128 0.1632 0.59465 0.0
C3014 C 0.37266 0.17422 0.60816 0.0
C3015 C 0.36739 0.19261 0.61309 0.0
C3016 C 0.37833 0.20299 0.62566 0.0
C3017 C 0.39446 0.19506 0.63354 0.0
C3018 C 0.39965 0.1767 0.62891 0.0
C3019 C 0.38878 0.16627 0.61632 0.0
H3020 H 0.40292 0.20312 0.64326 0.0
H3021 H 0.29149 0.10349 0.52515 0.0
H3022 H 0.82863 0.42516 0.39919 0.0
H3023 H 0.84782 0.4018 0.41614 0.0
H3024 H 0.80997 0.35798 0.39804 0.0
H3025 H 0.79074 0.38102 0.38197 0.0
H3026 H 0.81684 0.35356 0.43335 0.0
H3027 H 0.85445 0.36741 0.37703 0.0
H3028 H 0.8732 0.38822 0.35657 0.0
H3029 H 0.91019 0.40059 0.40258 0.0
H3030 H 0.89153 0.37998 0.42334 0.0
H3031 H 0.88064 0.27467 0.40574 0.0
H3032 H 0.87237 0.30767 0.40358 0.0
H3033 H 0.86194 0.30923 0.46329 0.0
H3034 H 0.86965 0.27578 0.46551 0.0
H3035 H 0.88323 0.34037 0.41692 0.0
H3036 H 0.8239 0.33702 0.47058 0.0
H3037 H 0.80422 0.31357 0.48694 0.0
H3038 H 0.80839 0.27656 0.4395 0.0
H3039 H 0.82786 0.2999 0.42279 0.0
C3040 C 0.8246 0.41049 0.39882 0.0
C3041 C 0.80823 0.40483 0.38937 0.0
C3042 C 0.83549 0.3972 0.40852 0.0
C3043 C 0.83024 0.37814 0.4085 0.0
C3044 C 0.81414 0.37261 0.39858 0.0
C3045 C 0.80322 0.38579 0.38927 0.0
C3046 C 0.84125 0.36343 0.41833 0.0
C3047 C 0.83148 0.35088 0.43004 0.0
C3048 C 0.86037 0.35997 0.4142 0.0
C3049 C 0.87147 0.3724 0.40177 0.0
C3050 C 0.8665 0.3747 0.38279 0.0
C3051 C 0.87712 0.38642 0.37115 0.0
C3052 C 0.89283 0.39578 0.37829 0.0
C3053 C 0.89799 0.39338 0.39708 0.0
C3054 C 0.8874 0.38168 0.40879 0.0
C3055 C 0.87677 0.282 0.41849 0.0
C3056 C 0.87547 0.27248 0.43575 0.0
C3057 C 0.87222 0.30097 0.41725 0.0
C3058 C 0.86639 0.3109 0.43323 0.0
C3059 C 0.86618 0.30177 0.45073 0.0
C3060 C 0.87051 0.28264 0.45195 0.0
C3061 C 0.85841 0.32996 0.4308 0.0
C3062 C 0.86881 0.34343 0.42079 0.0
C3063 C 0.83962 0.33398 0.43589 0.0
C3064 C 0.82751 0.32008 0.44558 0.0
C3065 C 0.82054 0.3239 0.46364 0.0
C3066 C 0.80944 0.31063 0.47297 0.0
C3067 C 0.80513 0.29355 0.4643 0.0
C3068 C 0.81179 0.28976 0.44622 0.0
C3069 C 0.82284 0.30301 0.43682 0.0
H3070 H 0.79659 0.28327 0.47156 0.0
H3071 H 0.90104 0.40484 0.36925 0.0
H3072 H 0.60006 0.8618 0.77891 0.0
H3073 H 0.6005 0.85202 0.81165 0.0
H3074 H 0.54032 0.84521 0.81089 0.0
H3075 H 0.5397 0.85494 0.7777 0.0
H3076 H 0.55658 0.86644 0.84349 0.0
H3077 H 0.56055 0.80758 0.81277 0.0
H3078 H 0.57119 0.78487 0.78891 0.0
H3079 H 0.6279 0.79005 0.80878 0.0
H3080 H 0.61766 0.81304 0.83257 0.0
H3081 H 0.58082 0.8123 0.93148 0.0
H3082 H 0.56462 0.82462 0.9035 0.0
H3083 H 0.61786 0.84243 0.88073 0.0
H3084 H 0.63393 0.83012 0.90844 0.0
H3085 H 0.59586 0.81172 0.86133 0.0
H3086 H 0.59123 0.87465 0.88864 0.0
H3087 H 0.57993 0.89737 0.91221 0.0
H3088 H 0.52282 0.88309 0.89906 0.0
H3089 H 0.53381 0.86008 0.87558 0.0
C3090 C 0.58688 0.85818 0.78561 0.0
C3091 C 0.56984 0.85913 0.7757 0.0
C3092 C 0.58717 0.85259 0.80433 0.0
C3093 C 0.57045 0.84793 0.81363 0.0
C3094 C 0.55334 0.84882 0.8039 0.0
C3095 C 0.55305 0.85422 0.78495 0.0
C3096 C 0.57143 0.84202 0.8335 0.0
C3097 C 0.56473 0.8542 0.84749 0.0
C3098 C 0.58204 0.82606 0.83862 0.0
C3099 C 0.58833 0.81211 0.82442 0.0
C3100 C 0.57531 0.80398 0.81197 0.0
C3101 C 0.58127 0.79104 0.79847 0.0
C3102 C 0.60021 0.78603 0.79732 0.0
C3103 C 0.61323 0.79394 0.80969 0.0
C3104 C 0.60734 0.80691 0.82322 0.0
C3105 C 0.58884 0.81981 0.92094 0.0
C3106 C 0.60852 0.8206 0.92209 0.0
C3107 C 0.57963 0.82668 0.90495 0.0
C3108 C 0.59012 0.83432 0.8901 0.0
C3109 C 0.60957 0.83664 0.89212 0.0
C3110 C 0.61871 0.82977 0.90798 0.0
C3111 C 0.58185 0.83663 0.87122 0.0
C3112 C 0.58721 0.82364 0.85742 0.0
C3113 C 0.56988 0.85169 0.86641 0.0
C3114 C 0.56334 0.86544 0.88057 0.0
C3115 C 0.57627 0.87618 0.89094 0.0
C3116 C 0.56992 0.88916 0.90424 0.0
C3117 C 0.55067 0.89161 0.90719 0.0
C3118 C 0.53773 0.88114 0.8968 0.0
C3119 C 0.54401 0.86813 0.88349 0.0
H3120 H 0.54578 0.90168 0.91748 0.0
H3121 H 0.6048 0.77601 0.78685 0.0
H3122 H 0.43916 0.59003 0.79642 0.0
H3123 H 0.43501 0.60057 0.82879 0.0
H3124 H 0.44986 0.65698 0.81232 0.0
H3125 H 0.45474 0.64634 0.78 0.0
H3126 H 0.46003 0.65014 0.84862 0.0
H3127 H 0.40451 0.64216 0.80964 0.0
H3128 H 0.38302 0.62401 0.78941 0.0
H3129 H 0.37375 0.58459 0.83414 0.0
H3130 H 0.39541 0.6024 0.85455 0.0
H3131 H 0.39856 0.71282 0.8922 0.0
H3132 H 0.4162 0.69221 0.87145 0.0
H3133 H 0.39921 0.64419 0.90426 0.0
H3134 H 0.38167 0.66496 0.92558 0.0
H3135 H 0.39285 0.64107 0.86511 0.0
H3136 H 0.44364 0.6541 0.90621 0.0
H3137 H 0.4643 0.67368 0.92594 0.0
H3138 H 0.4813 0.7052 0.87739 0.0
H3139 H 0.46074 0.6858 0.85735 0.0
C3140 C 0.44209 0.60457 0.79982 0.0
C3141 C 0.44692 0.61747 0.78568 0.0
C3142 C 0.43972 0.61056 0.81832 0.0
C3143 C 0.44162 0.62964 0.82283 0.0
C3144 C 0.44823 0.6422 0.80911 0.0
C3145 C 0.45096 0.63613 0.79063 0.0
C3146 C 0.43394 0.63701 0.84071 0.0
C3147 C 0.44537 0.64813 0.85228 0.0
C3148 C 0.41489 0.63405 0.8457 0.0
C3149 C 0.40173 0.62346 0.83352 0.0
C3150 C 0.39797 0.62956 0.81511 0.0
C3151 C 0.38576 0.61934 0.80362 0.0
C3152 C 0.37707 0.60312 0.81047 0.0
C3153 C 0.38053 0.59713 0.82884 0.0
C3154 C 0.39276 0.60727 0.84038 0.0
C3155 C 0.39866 0.69791 0.89517 0.0
C3156 C 0.38875 0.6905 0.91055 0.0
C3157 C 0.40888 0.68617 0.88336 0.0
C3158 C 0.40925 0.66675 0.88654 0.0
C3159 C 0.39924 0.6592 0.90176 0.0
C3160 C 0.38918 0.67103 0.91382 0.0
C3161 C 0.41881 0.6545 0.87281 0.0
C3162 C 0.40767 0.64257 0.86186 0.0
C3163 C 0.43804 0.65688 0.86837 0.0
C3164 C 0.45057 0.66854 0.88029 0.0
C3165 C 0.45171 0.66527 0.89975 0.0
C3166 C 0.46343 0.67631 0.91098 0.0
C3167 C 0.47404 0.69073 0.90294 0.0
C3168 C 0.47306 0.69404 0.88361 0.0
C3169 C 0.46144 0.68296 0.87229 0.0
H3170 H 0.48305 0.69931 0.91168 0.0
H3171 H 0.36762 0.59523 0.80155 0.0
H3172 H 0.55065 0.15215 0.70919 0.0
H3173 H 0.54923 0.16106 0.67624 0.0
H3174 H 0.54157 0.10287 0.6607 0.0
H3175 H 0.54468 0.09389 0.69377 0.0
H3176 H 0.56773 0.11454 0.6418 0.0
H3177 H 0.50751 0.14077 0.65032 0.0
H3178 H 0.48224 0.15846 0.66607 0.0
H3179 H 0.51414 0.20936 0.66084 0.0
H3180 H 0.53973 0.19199 0.64534 0.0
H3181 H 0.59724 0.16291 0.55641 0.0
H3182 H 0.57589 0.14406 0.57627 0.0
H3183 H 0.58124 0.18509 0.62057 0.0
H3184 H 0.60206 0.20363 0.60118 0.0
H3185 H 0.5447 0.17472 0.61552 0.0
H3186 H 0.6077 0.14385 0.6194 0.0
H3187 H 0.63369 0.12588 0.60511 0.0
H3188 H 0.59477 0.08349 0.58703 0.0
H3189 H 0.56855 0.10133 0.6011 0.0
C3190 C 0.54805 0.14137 0.69876 0.0
C3191 C 0.54786 0.12238 0.70386 0.0
C3192 C 0.54704 0.14646 0.67985 0.0
C3193 C 0.54507 0.13268 0.66578 0.0
C3194 C 0.54316 0.11378 0.67119 0.0
C3195 C 0.54485 0.10865 0.69005 0.0
C3196 C 0.54846 0.1377 0.64576 0.0
C3197 C 0.56211 0.12739 0.63584 0.0
C3198 C 0.54115 0.15434 0.63766 0.0
C3199 C 0.52556 0.16502 0.64658 0.0
C3200 C 0.50916 0.15573 0.65255 0.0
C3201 C 0.49478 0.16571 0.66146 0.0
C3202 C 0.49659 0.18502 0.66446 0.0
C3203 C 0.51275 0.19441 0.65848 0.0
C3204 C 0.52717 0.1845 0.64957 0.0
C3205 C 0.59385 0.16775 0.57042 0.0
C3206 C 0.60128 0.18472 0.57725 0.0
C3207 C 0.58159 0.15709 0.58167 0.0
C3208 C 0.57679 0.16334 0.5998 0.0
C3209 C 0.58443 0.18017 0.60652 0.0
C3210 C 0.59649 0.19069 0.59542 0.0
C3211 C 0.56482 0.15233 0.61278 0.0
C3212 C 0.54947 0.16142 0.62122 0.0
C3213 C 0.57046 0.13458 0.61953 0.0
C3214 C 0.5862 0.12401 0.61104 0.0
C3215 C 0.6047 0.13077 0.61225 0.0
C3216 C 0.61946 0.1206 0.60422 0.0
C3217 C 0.61587 0.10359 0.5951 0.0
C3218 C 0.59752 0.09669 0.59404 0.0
C3219 C 0.58272 0.10682 0.60203 0.0
H3220 H 0.62731 0.09573 0.58891 0.0
H3221 H 0.48547 0.19271 0.67141 0.0
H3222 H 0.39725 0.35651 0.72996 0.0
H3223 H 0.39568 0.34838 0.69672 0.0
H3224 H 0.45595 0.35284 0.69246 0.0
H3225 H 0.4577 0.36078 0.72605 0.0
H3226 H 0.4346 0.37274 0.66347 0.0
H3227 H 0.44135 0.31209 0.68983 0.0
H3228 H 0.43562 0.28597 0.71182 0.0
H3229 H 0.37824 0.28274 0.69355 0.0
H3230 H 0.38353 0.30908 0.67165 0.0
H3231 H 0.42534 0.31203 0.5771 0.0
H3232 H 0.43663 0.32666 0.60612 0.0
H3233 H 0.38035 0.34522 0.61857 0.0
H3234 H 0.36912 0.33101 0.58925 0.0
H3235 H 0.40511 0.31324 0.64234 0.0
H3236 H 0.39926 0.37747 0.61824 0.0
H3237 H 0.40685 0.40287 0.59594 0.0
H3238 H 0.46541 0.3976 0.6094 0.0
H3239 H 0.45816 0.37193 0.63158 0.0
C3240 C 0.4102 0.35563 0.72201 0.0
C3241 C 0.4276 0.35925 0.73058 0.0
C3242 C 0.40928 0.35097 0.70305 0.0
C3243 C 0.42569 0.35005 0.69221 0.0
C3244 C 0.44315 0.35353 0.70066 0.0
C3245 C 0.44412 0.3579 0.71982 0.0
C3246 C 0.42418 0.34561 0.67201 0.0
C3247 C 0.42847 0.3596 0.65878 0.0
C3248 C 0.41615 0.3285 0.66598 0.0
C3249 C 0.41281 0.31269 0.6792 0.0
C3250 C 0.42745 0.30595 0.69062 0.0
C3251 C 0.4243 0.29107 0.70305 0.0
C3252 C 0.40656 0.28273 0.70411 0.0
C3253 C 0.39196 0.28924 0.69272 0.0
C3254 C 0.39504 0.30413 0.68028 0.0
C3255 C 0.41559 0.32003 0.58557 0.0
C3256 C 0.39644 0.32063 0.58096 0.0
C3257 C 0.42204 0.32836 0.60212 0.0
C3258 C 0.40932 0.33707 0.61433 0.0
C3259 C 0.3904 0.33882 0.60909 0.0
C3260 C 0.38402 0.3308 0.59235 0.0
C3261 C 0.41483 0.34062 0.63396 0.0
C3262 C 0.4114 0.3263 0.64703 0.0
C3263 C 0.42385 0.35729 0.63973 0.0
C3264 C 0.4282 0.37258 0.62631 0.0
C3265 C 0.41378 0.38153 0.61623 0.0
C3266 C 0.41801 0.39603 0.60368 0.0
C3267 C 0.43661 0.40179 0.60119 0.0
C3268 C 0.45101 0.39309 0.6113 0.0
C3269 C 0.44685 0.37857 0.62386 0.0
H3270 H 0.43986 0.41303 0.59148 0.0
H3271 H 0.40415 0.2712 0.71373 0.0
H3272 H 0.88737 0.61534 0.78925 0.0
H3273 H 0.86365 0.60352 0.81084 0.0
H3274 H 0.90599 0.5949 0.85325 0.0
H3275 H 0.93014 0.60718 0.83159 0.0
H3276 H 0.87426 0.56286 0.84236 0.0
H3277 H 0.8855 0.62499 0.86706 0.0
H3278 H 0.89141 0.659 0.86416 0.0
H3279 H 0.83903 0.66591 0.83506 0.0
H3280 H 0.83297 0.63188 0.83753 0.0
H3281 H 0.7825 0.58643 0.90135 0.0
H3282 H 0.81586 0.58997 0.89451 0.0
H3283 H 0.80871 0.55863 0.84312 0.0
H3284 H 0.77529 0.55455 0.85021 0.0
H3285 H 0.82843 0.60934 0.86676 0.0
H3286 H 0.84985 0.54029 0.82838 0.0
H3287 H 0.8439 0.50627 0.83097 0.0
H3288 H 0.83138 0.51255 0.88964 0.0
H3289 H 0.83752 0.54656 0.88748 0.0
C3290 C 0.89174 0.61091 0.80314 0.0
C3291 C 0.9106 0.61223 0.80878 0.0
C3292 C 0.87815 0.60412 0.81542 0.0
C3293 C 0.88314 0.59832 0.83352 0.0
C3294 C 0.90199 0.59928 0.83924 0.0
C3295 C 0.91567 0.60638 0.82695 0.0
C3296 C 0.86809 0.59216 0.84634 0.0
C3297 C 0.86434 0.57291 0.84807 0.0
C3298 C 0.85536 0.60538 0.8538 0.0
C3299 C 0.85886 0.62587 0.85238 0.0
C3300 C 0.87533 0.63374 0.8599 0.0
C3301 C 0.87869 0.65302 0.85836 0.0
C3302 C 0.86562 0.6646 0.8494 0.0
C3303 C 0.84915 0.65692 0.84199 0.0
C3304 C 0.84573 0.63764 0.84348 0.0
C3305 C 0.78809 0.58001 0.88874 0.0
C3306 C 0.77625 0.57042 0.87616 0.0
C3307 C 0.80718 0.582 0.88489 0.0
C3308 C 0.81483 0.57459 0.86832 0.0
C3309 C 0.80322 0.56421 0.85616 0.0
C3310 C 0.78409 0.56198 0.86015 0.0
C3311 C 0.83417 0.57986 0.8626 0.0
C3312 C 0.83856 0.59908 0.86182 0.0
C3313 C 0.8475 0.56654 0.85624 0.0
C3314 C 0.84406 0.54603 0.85773 0.0
C3315 C 0.84595 0.53441 0.84186 0.0
C3316 C 0.84252 0.51512 0.84325 0.0
C3317 C 0.83723 0.50726 0.86044 0.0
C3318 C 0.83542 0.51867 0.87631 0.0
C3319 C 0.83885 0.53796 0.87501 0.0
H3320 H 0.83456 0.49233 0.86148 0.0
H3321 H 0.86824 0.67953 0.84823 0.0
H3322 H 0.20371 0.93668 0.90562 0.0
H3323 H 0.17084 0.93405 0.89616 0.0
H3324 H 0.18644 0.94604 0.83879 0.0
H3325 H 0.21931 0.94956 0.84842 0.0
H3326 H 0.1515 0.95877 0.84599 0.0
H3327 H 0.18613 0.9007 0.85576 0.0
H3328 H 0.20501 0.87852 0.87454 0.0
H3329 H 0.16064 0.87476 0.91526 0.0
H3330 H 0.14159 0.89712 0.89681 0.0
H3331 H 0.10409 0.89894 0.78573 0.0
H3332 H 0.1255 0.9159 0.80606 0.0
H3333 H 0.09177 0.90137 0.85427 0.0
H3334 H 0.06981 0.88428 0.83371 0.0
H3335 H 0.13011 0.89353 0.85827 0.0
H3336 H 0.09241 0.94562 0.84148 0.0
H3337 H 0.0744 0.96599 0.82005 0.0
H3338 H 0.12494 0.97986 0.79019 0.0
H3339 H 0.14323 0.95928 0.81118 0.0
C3340 C 0.20002 0.93928 0.89108 0.0
C3341 C 0.21401 0.94301 0.87766 0.0
C3342 C 0.18126 0.93776 0.8857 0.0
C3343 C 0.17628 0.93932 0.8667 0.0
C3344 C 0.19 0.94468 0.85353 0.0
C3345 C 0.20877 0.94664 0.85901 0.0
C3346 C 0.15764 0.93276 0.86013 0.0
C3347 C 0.14675 0.94455 0.8487 0.0
C3348 C 0.15123 0.91432 0.86407 0.0
C3349 C 0.16255 0.90072 0.87504 0.0
C3350 C 0.18046 0.89521 0.86878 0.0
C3351 C 0.19118 0.88261 0.87935 0.0
C3352 C 0.18405 0.87528 0.89612 0.0
C3353 C 0.16616 0.88048 0.9023 0.0
C3354 C 0.15539 0.89311 0.89179 0.0
C3355 C 0.101 0.89946 0.80062 0.0
C3356 C 0.08521 0.89029 0.80812 0.0
C3357 C 0.11323 0.90931 0.81221 0.0
C3358 C 0.11003 0.91017 0.8316 0.0
C3359 C 0.09431 0.90102 0.83927 0.0
C3360 C 0.08185 0.89125 0.82756 0.0
C3361 C 0.12423 0.91934 0.84366 0.0
C3362 C 0.13442 0.90799 0.85608 0.0
C3363 C 0.13006 0.93807 0.84039 0.0
C3364 C 0.1192 0.95084 0.82792 0.0
C3365 C 0.09969 0.95293 0.83029 0.0
C3366 C 0.08942 0.96452 0.81821 0.0
C3367 C 0.09852 0.97421 0.80377 0.0
C3368 C 0.11791 0.97236 0.8014 0.0
C3369 C 0.12825 0.96075 0.81341 0.0
H3370 H 0.09054 0.98316 0.79442 0.0
H3371 H 0.19237 0.86553 0.90429 0.0
H3372 H 0.94325 0.41574 0.67289 0.0
H3373 H 0.92132 0.43874 0.65912 0.0
H3374 H 0.87733 0.39708 0.66026 0.0
H3375 H 0.89889 0.37449 0.67433 0.0
H3376 H 0.89412 0.44021 0.62752 0.0
H3377 H 0.84371 0.41403 0.68646 0.0
H3378 H 0.84608 0.40281 0.71915 0.0
H3379 H 0.89767 0.43321 0.72619 0.0
H3380 H 0.89563 0.44465 0.69355 0.0
H3381 H 0.80341 0.42996 0.6029 0.0
H3382 H 0.83575 0.43276 0.6124 0.0
H3383 H 0.81984 0.47115 0.65658 0.0
H3384 H 0.78678 0.46776 0.6475 0.0
H3385 H 0.83975 0.44593 0.67083 0.0
H3386 H 0.85179 0.48472 0.62011 0.0
H3387 H 0.85003 0.49781 0.58811 0.0
H3388 H 0.87623 0.44821 0.56599 0.0
H3389 H 0.87788 0.43465 0.59778 0.0
C3390 C 0.92912 0.41135 0.66935 0.0
C3391 C 0.92264 0.39341 0.67445 0.0
C3392 C 0.91661 0.4245 0.66168 0.0
C3393 C 0.89768 0.41964 0.65907 0.0
C3394 C 0.89184 0.40113 0.66243 0.0
C3395 C 0.90417 0.38818 0.67026 0.0
C3396 C 0.8832 0.4339 0.65495 0.0
C3397 C 0.88229 0.44184 0.63698 0.0
C3398 C 0.86834 0.43689 0.66779 0.0
C3399 C 0.8695 0.4302 0.68754 0.0
C3400 C 0.85551 0.41842 0.69501 0.0
C3401 C 0.85683 0.41196 0.71351 0.0
C3402 C 0.87205 0.41725 0.72472 0.0
C3403 C 0.88595 0.42904 0.71746 0.0
C3404 C 0.88474 0.43548 0.69894 0.0
C3405 C 0.80666 0.43926 0.6145 0.0
C3406 C 0.79237 0.44838 0.62464 0.0
C3407 C 0.82536 0.44113 0.61973 0.0
C3408 C 0.83042 0.45244 0.63504 0.0
C3409 C 0.81632 0.46243 0.64463 0.0
C3410 C 0.79742 0.46044 0.63946 0.0
C3411 C 0.84978 0.45085 0.64266 0.0
C3412 C 0.85172 0.44523 0.66144 0.0
C3413 C 0.86573 0.4506 0.6307 0.0
C3414 C 0.86501 0.45867 0.61143 0.0
C3415 C 0.85712 0.47655 0.60843 0.0
C3416 C 0.85614 0.48406 0.59031 0.0
C3417 C 0.86303 0.47386 0.57503 0.0
C3418 C 0.87094 0.45613 0.57785 0.0
C3419 C 0.87196 0.44854 0.59594 0.0
H3420 H 0.86224 0.47969 0.56101 0.0
H3421 H 0.87306 0.41222 0.73904 0.0
H3422 H 0.07059 0.11204 0.67356 0.0
H3423 H 0.09489 0.09402 0.65701 0.0
H3424 H 0.10669 0.06326 0.70793 0.0
H3425 H 0.08311 0.08164 0.72447 0.0
H3426 H 0.1366 0.08019 0.69655 0.0
H3427 H 0.09158 0.04082 0.66784 0.0
H3428 H 0.06288 0.0322 0.65052 0.0
H3429 H 0.08328 0.06112 0.60166 0.0
H3430 H 0.112 0.07018 0.61876 0.0
H3431 H 0.21793 0.04398 0.65532 0.0
H3432 H 0.1857 0.04074 0.66685 0.0
H3433 H 0.16658 0.07995 0.62482 0.0
H3434 H 0.19856 0.08314 0.61306 0.0
H3435 H 0.13968 0.0519 0.63296 0.0
H3436 H 0.18028 0.09689 0.66552 0.0
H3437 H 0.20904 0.10538 0.6829 0.0
H3438 H 0.19585 0.06445 0.72524 0.0
H3439 H 0.16711 0.05558 0.70795 0.0
C3440 C 0.07802 0.10103 0.68098 0.0
C3441 C 0.07531 0.09843 0.70032 0.0
C3442 C 0.09183 0.09067 0.67153 0.0
C3443 C 0.10273 0.07737 0.68129 0.0
C3444 C 0.0986 0.07356 0.70017 0.0
C3445 C 0.08515 0.08412 0.70963 0.0
C3446 C 0.12039 0.07002 0.67302 0.0
C3447 C 0.13713 0.0735 0.68287 0.0
C3448 C 0.12121 0.06164 0.65502 0.0
C3449 C 0.10392 0.05631 0.64465 0.0
C3450 C 0.08989 0.0455 0.65345 0.0
C3451 C 0.07362 0.0405 0.64366 0.0
C3452 C 0.07124 0.04615 0.62501 0.0
C3453 C 0.08514 0.05677 0.61611 0.0
C3454 C 0.10144 0.06182 0.62584 0.0
C3455 C 0.20681 0.05157 0.64824 0.0
C3456 C 0.21088 0.06417 0.63357 0.0
C3457 C 0.1884 0.04964 0.6548 0.0
C3458 C 0.17384 0.06029 0.64681 0.0
C3459 C 0.17762 0.07161 0.63116 0.0
C3460 C 0.19598 0.07359 0.62463 0.0
C3461 C 0.15557 0.06226 0.6565 0.0
C3462 C 0.13887 0.05802 0.64688 0.0
C3463 C 0.15464 0.06988 0.6748 0.0
C3464 C 0.1717 0.07544 0.68536 0.0
C3465 C 0.18358 0.08965 0.67849 0.0
C3466 C 0.19986 0.09453 0.68832 0.0
C3467 C 0.2043 0.08542 0.70513 0.0
C3468 C 0.19242 0.07147 0.71219 0.0
C3469 C 0.17613 0.06651 0.70239 0.0
H3470 H 0.21692 0.0892 0.71272 0.0
H3471 H 0.05864 0.04225 0.61746 0.0
H3472 H 0.80903 0.89702 0.63459 0.0
H3473 H 0.82431 0.87312 0.61537 0.0
H3474 H 0.83257 0.91389 0.57116 0.0
H3475 H 0.81813 0.93816 0.59106 0.0
H3476 H 0.81178 0.8594 0.58498 0.0
H3477 H 0.86788 0.89771 0.54149 0.0
H3478 H 0.88905 0.92508 0.54361 0.0
H3479 H 0.88997 0.92005 0.60372 0.0
H3480 H 0.86898 0.89254 0.60193 0.0
H3481 H 0.84834 0.78527 0.53222 0.0
H3482 H 0.83684 0.81756 0.53542 0.0
H3483 H 0.8838 0.83068 0.57145 0.0
H3484 H 0.89577 0.7991 0.56759 0.0
H3485 H 0.87423 0.86102 0.55417 0.0
H3486 H 0.8409 0.81184 0.58875 0.0
H3487 H 0.82218 0.78274 0.59091 0.0
H3488 H 0.7793 0.80744 0.5564 0.0
H3489 H 0.7979 0.83663 0.55389 0.0
C3490 C 0.81467 0.90096 0.621 0.0
C3491 C 0.81275 0.91934 0.61434 0.0
C3492 C 0.82319 0.88729 0.60992 0.0
C3493 C 0.82948 0.89162 0.59171 0.0
C3494 C 0.82807 0.91024 0.58522 0.0
C3495 C 0.81992 0.9241 0.59659 0.0
C3496 C 0.83642 0.87618 0.5795 0.0
C3497 C 0.82539 0.85987 0.57813 0.0
C3498 C 0.85403 0.87677 0.57029 0.0
C3499 C 0.86666 0.89326 0.57157 0.0
C3500 C 0.87262 0.90245 0.55515 0.0
C3501 C 0.88459 0.91798 0.55629 0.0
C3502 C 0.89079 0.92435 0.57379 0.0
C3503 C 0.88508 0.91516 0.59018 0.0
C3504 C 0.87313 0.89962 0.58911 0.0
C3505 C 0.85647 0.79521 0.54037 0.0
C3506 C 0.87266 0.78943 0.55012 0.0
C3507 C 0.84987 0.81365 0.54223 0.0
C3508 C 0.85917 0.82641 0.55412 0.0
C3509 C 0.87627 0.82112 0.5623 0.0
C3510 C 0.88299 0.80288 0.56026 0.0
C3511 C 0.85003 0.844 0.5606 0.0
C3512 C 0.86045 0.86078 0.56067 0.0
C3513 C 0.83214 0.84369 0.56928 0.0
C3514 C 0.82086 0.82628 0.57095 0.0
C3515 C 0.82751 0.81101 0.58157 0.0
C3516 C 0.81693 0.79452 0.58285 0.0
C3517 C 0.79959 0.79322 0.57374 0.0
C3518 C 0.79276 0.80845 0.5634 0.0
C3519 C 0.80331 0.82496 0.56204 0.0
H3520 H 0.79143 0.78043 0.57473 0.0
H3521 H 0.90005 0.93638 0.57465 0.0
H3522 H 0.7911 0.09867 0.91661 0.0
H3523 H 0.80831 0.12577 0.9283 0.0
H3524 H 0.85779 0.1075 0.89845 0.0
H3525 H 0.84061 0.07975 0.88707 0.0
H3526 H 0.86631 0.12561 0.93268 0.0
H3527 H 0.83 0.1371 0.87727 0.0
H3528 H 0.80167 0.13631 0.85738 0.0
H3529 H 0.77208 0.1701 0.89763 0.0
H3530 H 0.80016 0.17083 0.91793 0.0
H3531 H 0.90339 0.21836 0.91778 0.0
H3532 H 0.89183 0.18616 0.91524 0.0
H3533 H 0.84204 0.20143 0.9462 0.0
H3534 H 0.85349 0.23374 0.94886 0.0
H3535 H 0.83495 0.18427 0.91169 0.0
H3536 H 0.87302 0.1738 0.9664 0.0
H3537 H 0.90237 0.17533 0.9847 0.0
H3538 H 0.93002 0.14061 0.94387 0.0
H3539 H 0.90088 0.13909 0.92516 0.0
C3540 C 0.80576 0.10015 0.91284 0.0
C3541 C 0.81446 0.0873 0.90069 0.0
C3542 C 0.81558 0.11565 0.91956 0.0
C3543 C 0.83417 0.11885 0.91388 0.0
C3544 C 0.84341 0.10529 0.90292 0.0
C3545 C 0.8336 0.08951 0.8964 0.0
C3546 C 0.84287 0.13737 0.91757 0.0
C3547 C 0.8596 0.13844 0.92794 0.0
C3548 C 0.834 0.1541 0.91147 0.0
C3549 C 0.81713 0.15386 0.89921 0.0
C3550 C 0.81741 0.14425 0.88195 0.0
C3551 C 0.8014 0.14382 0.87059 0.0
C3552 C 0.78507 0.15311 0.87626 0.0
C3553 C 0.78473 0.16289 0.89327 0.0
C3554 C 0.80069 0.16332 0.90471 0.0
C3555 C 0.89006 0.21484 0.92422 0.0
C3556 C 0.87926 0.22863 0.93337 0.0
C3557 C 0.88356 0.19641 0.92287 0.0
C3558 C 0.86613 0.19146 0.93058 0.0
C3559 C 0.85556 0.20503 0.9402 0.0
C3560 C 0.86214 0.22344 0.94173 0.0
C3561 C 0.85818 0.17259 0.92712 0.0
C3562 C 0.84162 0.17146 0.91657 0.0
C3563 C 0.86737 0.15593 0.93286 0.0
C3564 C 0.8848 0.15646 0.94429 0.0
C3565 C 0.88538 0.16658 0.96125 0.0
C3566 C 0.90197 0.16742 0.97172 0.0
C3567 C 0.91806 0.15811 0.96543 0.0
C3568 C 0.91755 0.14784 0.94871 0.0
C3569 C 0.90099 0.14695 0.93819 0.0
H3570 H 0.93091 0.15883 0.97353 0.0
H3571 H 0.77269 0.15277 0.86744 0.0
H3572 H 0.12138 0.2772 0.89521 0.0
H3573 H 0.12808 0.31021 0.88995 0.0
H3574 H 0.15295 0.3143 0.94502 0.0
H3575 H 0.14608 0.28096 0.95065 0.0
H3576 H 0.12964 0.34503 0.93611 0.0
H3577 H 0.18112 0.31156 0.90897 0.0
H3578 H 0.19644 0.28739 0.88947 0.0
H3579 H 0.17051 0.31033 0.84008 0.0
H3580 H 0.1548 0.33448 0.85933 0.0
H3581 H 0.18791 0.42492 0.91741 0.0
H3582 H 0.1706 0.39695 0.92706 0.0
H3583 H 0.14837 0.39148 0.87093 0.0
H3584 H 0.16609 0.41938 0.86122 0.0
H3585 H 0.16902 0.36173 0.88107 0.0
H3586 H 0.11911 0.39703 0.90889 0.0
H3587 H 0.10473 0.42123 0.92905 0.0
H3588 H 0.12897 0.39544 0.97789 0.0
H3589 H 0.14373 0.37122 0.958 0.0
C3590 C 0.12828 0.285 0.9063 0.0
C3591 C 0.13331 0.27631 0.92335 0.0
C3592 C 0.13208 0.30393 0.90323 0.0
C3593 C 0.14112 0.31464 0.91703 0.0
C3594 C 0.14593 0.30622 0.9342 0.0
C3595 C 0.14213 0.28716 0.93732 0.0
C3596 C 0.14603 0.33444 0.913 0.0
C3597 C 0.13844 0.34875 0.92423 0.0
C3598 C 0.15718 0.33921 0.89727 0.0
C3599 C 0.16663 0.32472 0.88563 0.0
C3600 C 0.17855 0.31135 0.89397 0.0
C3601 C 0.18733 0.29767 0.88296 0.0
C3602 C 0.18441 0.29729 0.86356 0.0
C3603 C 0.17273 0.31062 0.85512 0.0
C3604 C 0.1639 0.32432 0.86607 0.0
C3605 C 0.17873 0.41819 0.90737 0.0
C3606 C 0.17827 0.4242 0.88861 0.0
C3607 C 0.16876 0.40223 0.9129 0.0
C3608 C 0.15826 0.39205 0.89969 0.0
C3609 C 0.15639 0.39914 0.88135 0.0
C3610 C 0.16635 0.41515 0.87584 0.0
C3611 C 0.15242 0.37252 0.90399 0.0
C3612 C 0.16003 0.35815 0.89286 0.0
C3613 C 0.14146 0.3678 0.91991 0.0
C3614 C 0.13267 0.38239 0.93191 0.0
C3615 C 0.12153 0.39661 0.92391 0.0
C3616 C 0.11327 0.41032 0.93529 0.0
C3617 C 0.11597 0.4099 0.95473 0.0
C3618 C 0.12691 0.39576 0.96283 0.0
C3619 C 0.1352 0.38202 0.9515 0.0
H3620 H 0.10956 0.42052 0.96352 0.0
H3621 H 0.19123 0.28669 0.85505 0.0
H3622 H 0.63471 0.21687 0.03735 0.0
H3623 H 0.64103 0.1829 0.03859 0.0
H3624 H 0.65629 0.18789 0.097 0.0
H3625 H 0.64944 0.22155 0.09602 0.0
H3626 H 0.68133 0.16476 0.07228 0.0
H3627 H 0.61597 0.17508 0.09138 0.0
H3628 H 0.58389 0.18689 0.08578 0.0
H3629 H 0.57948 0.15238 0.03651 0.0
H3630 H 0.61169 0.14058 0.04169 0.0
H3631 H 0.67024 0.0896 0.13032 0.0
H3632 H 0.65639 0.11706 0.11507 0.0
H3633 H 0.66247 0.09035 0.06107 0.0
H3634 H 0.67636 0.0627 0.07642 0.0
H3635 H 0.62635 0.12188 0.07536 0.0
H3636 H 0.69257 0.11146 0.05613 0.0
H3637 H 0.72471 0.10021 0.06267 0.0
H3638 H 0.72714 0.13497 0.1119 0.0
H3639 H 0.69493 0.14629 0.10568 0.0
C3640 C 0.63974 0.21071 0.05033 0.0
C3641 C 0.6416 0.22172 0.06661 0.0
C3642 C 0.64323 0.19138 0.05103 0.0
C3643 C 0.64903 0.18301 0.0679 0.0
C3644 C 0.65183 0.19417 0.08387 0.0
C3645 C 0.64791 0.21333 0.0833 0.0
C3646 C 0.6513 0.16248 0.06951 0.0
C3647 C 0.66935 0.15534 0.0726 0.0
C3648 C 0.63566 0.15021 0.06977 0.0
C3649 C 0.61629 0.15715 0.06677 0.0
C3650 C 0.60822 0.17015 0.07925 0.0
C3651 C 0.59001 0.17681 0.07618 0.0
C3652 C 0.57968 0.17044 0.06075 0.0
C3653 C 0.58752 0.15734 0.04842 0.0
C3654 C 0.60575 0.15066 0.05142 0.0
C3655 C 0.66761 0.08917 0.11533 0.0
C3656 C 0.6741 0.0741 0.10451 0.0
C3657 C 0.65979 0.10486 0.10662 0.0
C3658 C 0.65852 0.10568 0.08699 0.0
C3659 C 0.66322 0.08984 0.07626 0.0
C3660 C 0.67108 0.07408 0.08502 0.0
C3661 C 0.65638 0.12426 0.07809 0.0
C3662 C 0.63838 0.13114 0.07406 0.0
C3663 C 0.67207 0.13633 0.07671 0.0
C3664 C 0.69137 0.12958 0.08052 0.0
C3665 C 0.69994 0.11659 0.06841 0.0
C3666 C 0.71817 0.11025 0.07202 0.0
C3667 C 0.72796 0.11688 0.08769 0.0
C3668 C 0.71954 0.12986 0.09977 0.0
C3669 C 0.70132 0.13626 0.09619 0.0
H3670 H 0.74209 0.11198 0.09045 0.0
H3671 H 0.56558 0.17561 0.0584 0.0
H3672 H 0.42259 0.20801 0.08416 0.0
H3673 H 0.43182 0.19001 0.11187 0.0
H3674 H 0.38697 0.15069 0.10139 0.0
H3675 H 0.37811 0.16833 0.07302 0.0
H3676 H 0.38776 0.17502 0.13753 0.0
H3677 H 0.42285 0.13095 0.10067 0.0
H3678 H 0.44624 0.12098 0.07716 0.0
H3679 H 0.4901 0.14712 0.10925 0.0
H3680 H 0.46691 0.15751 0.13282 0.0
H3681 H 0.39848 0.1206 0.21837 0.0
H3682 H 0.3953 0.1304 0.1859 0.0
H3683 H 0.44897 0.15837 0.18869 0.0
H3684 H 0.4525 0.14835 0.22151 0.0
H3685 H 0.44426 0.13836 0.15553 0.0
H3686 H 0.41069 0.18403 0.19102 0.0
H3687 H 0.3883 0.19592 0.21461 0.0
H3688 H 0.34275 0.16962 0.1851 0.0
H3689 H 0.36493 0.15733 0.16146 0.0
C3690 C 0.41512 0.19516 0.08737 0.0
C3691 C 0.39964 0.18951 0.07654 0.0
C3692 C 0.42044 0.18488 0.10316 0.0
C3693 C 0.41008 0.16908 0.10857 0.0
C3694 C 0.39522 0.16279 0.09724 0.0
C3695 C 0.39021 0.17281 0.08108 0.0
C3696 C 0.41282 0.16135 0.12758 0.0
C3697 C 0.39988 0.16663 0.14143 0.0
C3698 C 0.42913 0.15124 0.13264 0.0
C3699 C 0.44309 0.1452 0.1184 0.0
C3700 C 0.43744 0.13478 0.1026 0.0
C3701 C 0.45068 0.129 0.08929 0.0
C3702 C 0.46964 0.13347 0.09168 0.0
C3703 C 0.4754 0.1437 0.1074 0.0
C3704 C 0.46222 0.14952 0.12075 0.0
C3705 C 0.4097 0.12881 0.2122 0.0
C3706 C 0.42575 0.13376 0.22265 0.0
C3707 C 0.40781 0.13442 0.19358 0.0
C3708 C 0.4218 0.14524 0.18497 0.0
C3709 C 0.43801 0.15001 0.19515 0.0
C3710 C 0.43995 0.14437 0.2139 0.0
C3711 C 0.41905 0.15185 0.16546 0.0
C3712 C 0.43204 0.14657 0.1516 0.0
C3713 C 0.40292 0.16228 0.16036 0.0
C3714 C 0.38951 0.16959 0.17458 0.0
C3715 C 0.39593 0.18063 0.18965 0.0
C3716 C 0.38327 0.18747 0.20301 0.0
C3717 C 0.36412 0.18348 0.20138 0.0
C3718 C 0.35759 0.17267 0.18636 0.0
C3719 C 0.3702 0.16577 0.17297 0.0
H3720 H 0.35434 0.1888 0.21173 0.0
H3721 H 0.47986 0.12896 0.08137 0.0
H3722 H 0.53831 0.35808 0.2149 0.0
H3723 H 0.542 0.34865 0.18188 0.0
H3724 H 0.60131 0.36075 0.18512 0.0
H3725 H 0.59774 0.37033 0.21767 0.0
H3726 H 0.58594 0.37777 0.1556 0.0
H3727 H 0.58385 0.31546 0.1839 0.0
H3728 H 0.57016 0.28852 0.20087 0.0
H3729 H 0.52366 0.28757 0.16249 0.0
H3730 H 0.53701 0.31462 0.14538 0.0
H3731 H 0.63927 0.32499 0.09238 0.0
H3732 H 0.62256 0.3415 0.11745 0.0
H3733 H 0.5696 0.32779 0.09132 0.0
H3734 H 0.58648 0.31156 0.06592 0.0
H3735 H 0.57259 0.31526 0.12804 0.0
H3736 H 0.58 0.37275 0.09563 0.0
H3737 H 0.5963 0.39728 0.07742 0.0
H3738 H 0.63443 0.40642 0.12323 0.0
H3739 H 0.61856 0.38175 0.14164 0.0
C3740 C 0.55216 0.35843 0.2086 0.0
C3741 C 0.5677 0.36517 0.21881 0.0
C3742 C 0.55424 0.35308 0.18975 0.0
C3743 C 0.5719 0.35422 0.18099 0.0
C3744 C 0.5875 0.36004 0.1915 0.0
C3745 C 0.58543 0.36547 0.21015 0.0
C3746 C 0.57444 0.35023 0.16071 0.0
C3747 C 0.58303 0.36409 0.14956 0.0
C3748 C 0.56984 0.33271 0.15258 0.0
C3749 C 0.56129 0.31721 0.16353 0.0
C3750 C 0.57058 0.30968 0.17925 0.0
C3751 C 0.56294 0.29432 0.18881 0.0
C3752 C 0.54609 0.2863 0.18271 0.0
C3753 C 0.53673 0.29376 0.16716 0.0
C3754 C 0.54432 0.30911 0.15754 0.0
C3755 C 0.62411 0.32623 0.09162 0.0
C3756 C 0.61409 0.31732 0.07725 0.0
C3757 C 0.61456 0.3356 0.10593 0.0
C3758 C 0.59484 0.33593 0.10619 0.0
C3759 C 0.58482 0.32778 0.09129 0.0
C3760 C 0.59443 0.31862 0.0768 0.0
C3761 C 0.58506 0.34243 0.12335 0.0
C3762 C 0.575 0.32913 0.13388 0.0
C3763 C 0.58847 0.36041 0.13099 0.0
C3764 C 0.59809 0.37532 0.12001 0.0
C3765 C 0.59194 0.37989 0.10179 0.0
C3766 C 0.6011 0.39385 0.09143 0.0
C3767 C 0.6164 0.4034 0.09916 0.0
C3768 C 0.62256 0.39902 0.11727 0.0
C3769 C 0.61347 0.38507 0.12769 0.0
H3770 H 0.62347 0.41419 0.09112 0.0
H3771 H 0.54029 0.27431 0.19003 0.0
H3772 H 0.40226 0.88647 0.27909 0.0
H3773 H 0.40008 0.87467 0.31121 0.0
H3774 H 0.4342 0.82695 0.29623 0.0
H3775 H 0.43684 0.8389 0.26392 0.0
H3776 H 0.39818 0.8195 0.31571 0.0
H3777 H 0.4545 0.85603 0.3213 0.0
H3778 H 0.47395 0.88444 0.31759 0.0
H3779 H 0.43605 0.91536 0.35287 0.0
H3780 H 0.41619 0.8872 0.35656 0.0
H3781 H 0.40214 0.78214 0.40531 0.0
H3782 H 0.41372 0.79546 0.37604 0.0
H3783 H 0.39025 0.84927 0.39108 0.0
H3784 H 0.37912 0.83601 0.421 0.0
H3785 H 0.42285 0.85342 0.37143 0.0
H3786 H 0.36536 0.81945 0.36408 0.0
H3787 H 0.34391 0.79243 0.36724 0.0
H3788 H 0.38146 0.75843 0.3345 0.0
H3789 H 0.40329 0.78519 0.33138 0.0
C3790 C 0.4093 0.87344 0.28258 0.0
C3791 C 0.41963 0.86352 0.26896 0.0
C3792 C 0.40815 0.86682 0.30097 0.0
C3793 C 0.4171 0.85006 0.30605 0.0
C3794 C 0.42731 0.83999 0.29252 0.0
C3795 C 0.42878 0.84681 0.27413 0.0
C3796 C 0.41489 0.84274 0.32533 0.0
C3797 C 0.4039 0.82665 0.32789 0.0
C3798 C 0.42178 0.8526 0.34115 0.0
C3799 C 0.43376 0.86953 0.33907 0.0
C3800 C 0.45021 0.86893 0.32814 0.0
C3801 C 0.46133 0.88498 0.32606 0.0
C3802 C 0.45622 0.9017 0.33495 0.0
C3803 C 0.43999 0.9024 0.34598 0.0
C3804 C 0.4288 0.88638 0.34809 0.0
C3805 C 0.39973 0.7969 0.40259 0.0
C3806 C 0.38949 0.808 0.41527 0.0
C3807 C 0.40635 0.80449 0.38582 0.0
C3808 C 0.4024 0.82321 0.38115 0.0
C3809 C 0.39333 0.83474 0.39437 0.0
C3810 C 0.38697 0.82718 0.41142 0.0
C3811 C 0.40622 0.83004 0.36184 0.0
C3812 C 0.41734 0.84611 0.35926 0.0
C3813 C 0.39918 0.82036 0.34593 0.0
C3814 C 0.38605 0.80426 0.34767 0.0
C3815 C 0.36911 0.80617 0.35768 0.0
C3816 C 0.35688 0.79091 0.35944 0.0
C3817 C 0.36135 0.77371 0.35112 0.0
C3818 C 0.37804 0.77176 0.34097 0.0
C3819 C 0.39034 0.78696 0.33919 0.0
H3820 H 0.35186 0.76192 0.3525 0.0
H3821 H 0.46485 0.91412 0.33333 0.0
H3822 H 0.60451 0.65597 0.43256 0.0
H3823 H 0.5889 0.63556 0.40942 0.0
H3824 H 0.57296 0.68438 0.37724 0.0
H3825 H 0.58841 0.70455 0.39992 0.0
H3826 H 0.54515 0.65717 0.37714 0.0
H3827 H 0.61392 0.6621 0.36822 0.0
H3828 H 0.6466 0.65721 0.3787 0.0
H3829 H 0.63576 0.59831 0.38594 0.0
H3830 H 0.60293 0.60294 0.37569 0.0
H3831 H 0.54987 0.65104 0.27952 0.0
H3832 H 0.5498 0.65579 0.31345 0.0
H3833 H 0.57029 0.59926 0.32154 0.0
H3834 H 0.57133 0.59488 0.28752 0.0
H3835 H 0.5912 0.6208 0.33963 0.0
H3836 H 0.52525 0.61498 0.33821 0.0
H3837 H 0.49283 0.61981 0.32705 0.0
H3838 H 0.49699 0.67869 0.33935 0.0
H3839 H 0.52952 0.6743 0.35033 0.0
C3840 C 0.59736 0.66229 0.42072 0.0
C3841 C 0.5979 0.68182 0.4179 0.0
C3842 C 0.58843 0.65065 0.40756 0.0
C3843 C 0.57985 0.65849 0.39159 0.0
C3844 C 0.5794 0.67804 0.3895 0.0
C3845 C 0.58841 0.68956 0.40243 0.0
C3846 C 0.57348 0.64677 0.37564 0.0
C3847 C 0.55507 0.64902 0.36894 0.0
C3848 C 0.58628 0.63563 0.36535 0.0
C3849 C 0.60597 0.6329 0.37145 0.0
C3850 C 0.61849 0.64814 0.37218 0.0
C3851 C 0.63703 0.64542 0.37806 0.0
C3852 C 0.64323 0.62747 0.38305 0.0
C3853 C 0.63092 0.61221 0.38213 0.0
C3854 C 0.61236 0.61487 0.37629 0.0
C3855 C 0.55395 0.63951 0.28857 0.0
C3856 C 0.5608 0.62269 0.28092 0.0
C3857 C 0.55376 0.64215 0.30802 0.0
C3858 C 0.55989 0.62781 0.32019 0.0
C3859 C 0.56556 0.61056 0.31251 0.0
C3860 C 0.56616 0.60808 0.29307 0.0
C3861 C 0.56295 0.63183 0.34046 0.0
C3862 C 0.58083 0.62819 0.348 0.0
C3863 C 0.54955 0.64154 0.35152 0.0
C3864 C 0.52989 0.64429 0.34507 0.0
C3865 C 0.5193 0.62898 0.33845 0.0
C3866 C 0.50089 0.63164 0.33216 0.0
C3867 C 0.49286 0.64954 0.33249 0.0
C3868 C 0.50322 0.66482 0.33914 0.0
C3869 C 0.52164 0.66225 0.34544 0.0
H3870 H 0.47861 0.65157 0.3276 0.0
H3871 H 0.65759 0.62539 0.38759 0.0
H3872 H 0.21114 0.40888 0.15484 0.0
H3873 H 0.17728 0.4101 0.15973 0.0
H3874 H 0.17576 0.46635 0.13729 0.0
H3875 H 0.21011 0.46528 0.13259 0.0
H3876 H 0.14877 0.45327 0.17226 0.0
H3877 H 0.16313 0.44335 0.10703 0.0
H3878 H 0.18272 0.43074 0.08139 0.0
H3879 H 0.17233 0.37456 0.10071 0.0
H3880 H 0.15293 0.38684 0.12664 0.0
H3881 H 0.05674 0.40941 0.17583 0.0
H3882 H 0.07995 0.42997 0.16034 0.0
H3883 H 0.12099 0.38546 0.16337 0.0
H3884 H 0.09821 0.36536 0.1792 0.0
H3885 H 0.12185 0.40556 0.12915 0.0
H3886 H 0.12015 0.41695 0.19874 0.0
H3887 H 0.1047 0.42818 0.22771 0.0
H3888 H 0.09169 0.48056 0.20077 0.0
H3889 H 0.10723 0.46965 0.1717 0.0
C3890 C 0.2037 0.42174 0.15153 0.0
C3891 C 0.2131 0.43694 0.14327 0.0
C3892 C 0.1844 0.42243 0.15432 0.0
C3893 C 0.17409 0.43821 0.14864 0.0
C3894 C 0.18356 0.45408 0.14178 0.0
C3895 C 0.2031 0.45348 0.13916 0.0
C3896 C 0.15346 0.43641 0.14763 0.0
C3897 C 0.14254 0.44349 0.16238 0.0
C3898 C 0.14546 0.42359 0.13475 0.0
C3899 C 0.15654 0.41604 0.11876 0.0
C3900 C 0.16505 0.42831 0.10583 0.0
C3901 C 0.17614 0.42122 0.09125 0.0
C3902 C 0.17876 0.40186 0.08941 0.0
C3903 C 0.17025 0.38955 0.10212 0.0
C3904 C 0.15917 0.39657 0.11674 0.0
C3905 C 0.07053 0.4039 0.1725 0.0
C3906 C 0.07576 0.3858 0.1784 0.0
C3907 C 0.08378 0.41567 0.16386 0.0
C3908 C 0.10216 0.40921 0.16075 0.0
C3909 C 0.10684 0.39067 0.16552 0.0
C3910 C 0.09384 0.37916 0.17447 0.0
C3911 C 0.11741 0.42175 0.15429 0.0
C3912 C 0.12747 0.41643 0.13822 0.0
C3913 C 0.12455 0.43621 0.16592 0.0
C3914 C 0.11464 0.44244 0.18307 0.0
C3915 C 0.11388 0.43081 0.199 0.0
C3916 C 0.10521 0.43715 0.21544 0.0
C3917 C 0.09725 0.45508 0.21609 0.0
C3918 C 0.09791 0.4667 0.20027 0.0
C3919 C 0.10667 0.46046 0.18382 0.0
H3920 H 0.09047 0.45994 0.22881 0.0
H3921 H 0.18738 0.3964 0.07814 0.0
H3922 H 0.76754 0.04994 0.14971 0.0
H3923 H 0.79929 0.0562 0.16136 0.0
H3924 H 0.81311 0.08424 0.10947 0.0
H3925 H 0.78139 0.07823 0.09775 0.0
H3926 H 0.84361 0.06117 0.12634 0.0
H3927 H 0.80006 0.11133 0.14016 0.0
H3928 H 0.77012 0.12426 0.15184 0.0
H3929 H 0.78142 0.10172 0.20665 0.0
H3930 H 0.8113 0.08838 0.19519 0.0
H3931 H 0.91722 0.1192 0.17039 0.0
H3932 H 0.89167 0.10712 0.1503 0.0
H3933 H 0.86555 0.08193 0.19885 0.0
H3934 H 0.89034 0.09394 0.21867 0.0
H3935 H 0.8421 0.1055 0.18009 0.0
H3936 H 0.88536 0.05503 0.16675 0.0
H3937 H 0.91495 0.04115 0.15531 0.0
H3938 H 0.90459 0.06359 0.10028 0.0
H3939 H 0.87505 0.07786 0.11148 0.0
C3940 C 0.77745 0.05707 0.14063 0.0
C3941 C 0.7719 0.06384 0.12294 0.0
C3942 C 0.79557 0.06061 0.14728 0.0
C3943 C 0.80842 0.07076 0.13627 0.0
C3944 C 0.80337 0.07635 0.11811 0.0
C3945 C 0.7852 0.07304 0.11154 0.0
C3946 C 0.82608 0.07766 0.14466 0.0
C3947 C 0.84339 0.07102 0.13795 0.0
C3948 C 0.82565 0.0905 0.15977 0.0
C3949 C 0.80781 0.0987 0.16677 0.0
C3950 C 0.79608 0.109 0.15466 0.0
C3951 C 0.77914 0.11642 0.16124 0.0
C3952 C 0.77385 0.11377 0.17996 0.0
C3953 C 0.78552 0.10374 0.19215 0.0
C3954 C 0.80247 0.09625 0.18562 0.0
C3955 C 0.90615 0.11082 0.17663 0.0
C3956 C 0.90569 0.1077 0.19613 0.0
C3957 C 0.89163 0.10392 0.16518 0.0
C3958 C 0.87668 0.09377 0.17318 0.0
C3959 C 0.87686 0.08986 0.19243 0.0
C3960 C 0.89113 0.09676 0.20376 0.0
C3961 C 0.85979 0.08857 0.16226 0.0
C3962 C 0.84248 0.09573 0.1684 0.0
C3963 C 0.86033 0.07619 0.14673 0.0
C3964 C 0.87813 0.06775 0.14002 0.0
C3965 C 0.8895 0.0572 0.15227 0.0
C3966 C 0.90624 0.04921 0.14581 0.0
C3967 C 0.91168 0.05154 0.1271 0.0
C3968 C 0.90038 0.06184 0.11479 0.0
C3969 C 0.88363 0.06987 0.12118 0.0
H3970 H 0.92464 0.04533 0.12212 0.0
H3971 H 0.76072 0.11953 0.18504 0.0
H3972 H 0.07547 0.60135 0.31964 0.0
H3973 H 0.09894 0.5803 0.33368 0.0
H3974 H 0.13957 0.59807 0.29233 0.0
H3975 H 0.11633 0.6188 0.27823 0.0
H3976 H 0.14112 0.56042 0.29772 0.0
H3977 H 0.1386 0.61712 0.33642 0.0
H3978 H 0.12276 0.6401 0.35696 0.0
H3979 H 0.10785 0.59601 0.39535 0.0
H3980 H 0.12343 0.57274 0.3749 0.0
H3981 H 0.23267 0.55786 0.33431 0.0
H3982 H 0.2017 0.56025 0.31983 0.0
H3983 H 0.17596 0.54256 0.37191 0.0
H3984 H 0.20696 0.5416 0.3867 0.0
H3985 H 0.16177 0.57306 0.36298 0.0
H3986 H 0.17207 0.51763 0.32763 0.0
H3987 H 0.18915 0.49533 0.30738 0.0
H3988 H 0.19002 0.53591 0.26278 0.0
H3989 H 0.17332 0.55862 0.28286 0.0
C3990 C 0.08943 0.60075 0.31361 0.0
C3991 C 0.09412 0.61179 0.29793 0.0
C3992 C 0.10277 0.58868 0.32156 0.0
C3993 C 0.12099 0.58763 0.31401 0.0
C3994 C 0.12555 0.59852 0.29826 0.0
C3995 C 0.11228 0.61049 0.29032 0.0
C3996 C 0.13585 0.57617 0.32299 0.0
C3997 C 0.1457 0.56306 0.31201 0.0
C3998 C 0.14134 0.5792 0.3418 0.0
C3999 C 0.13193 0.59318 0.35402 0.0
C4000 C 0.1318 0.61232 0.34916 0.0
C4001 C 0.1229 0.6254 0.3608 0.0
C4002 C 0.11424 0.61951 0.37741 0.0
C4003 C 0.11451 0.60054 0.38245 0.0
C4004 C 0.12337 0.5874 0.37085 0.0
C4005 C 0.2204 0.55384 0.34239 0.0
C4006 C 0.222 0.5496 0.36154 0.0
C4007 C 0.20266 0.55509 0.3341 0.0
C4008 C 0.18636 0.55156 0.34474 0.0
C4009 C 0.18826 0.54547 0.36343 0.0
C4010 C 0.20593 0.5448 0.37185 0.0
C4011 C 0.16767 0.55752 0.33758 0.0
C4012 C 0.15702 0.56973 0.34889 0.0
C4013 C 0.16152 0.55359 0.31907 0.0
C4014 C 0.17143 0.53988 0.30682 0.0
C4015 C 0.17598 0.52186 0.31354 0.0
C4016 C 0.1856 0.50913 0.30208 0.0
C4017 C 0.19063 0.51419 0.2838 0.0
C4018 C 0.18603 0.53198 0.27692 0.0
C4019 C 0.17649 0.54479 0.28834 0.0
H4020 H 0.19813 0.50434 0.27497 0.0
H4021 H 0.10737 0.62966 0.38641 0.0
H4022 H 0.79341 0.9299 0.34236 0.0
H4023 H 0.8272 0.93327 0.33734 0.0
H4024 H 0.82929 0.9767 0.37953 0.0
H4025 H 0.79524 0.97325 0.3846 0.0
H4026 H 0.85568 0.9654 0.33176 0.0
H4027 H 0.85312 0.96248 0.40406 0.0
H4028 H 0.83371 0.95433 0.43168 0.0
H4029 H 0.82144 0.90047 0.40746 0.0
H4030 H 0.84071 0.90842 0.37968 0.0
H4031 H 0.94457 0.91948 0.3282 0.0
H4032 H 0.92366 0.94141 0.34487 0.0
H4033 H 0.88111 0.89833 0.34777 0.0
H4034 H 0.90169 0.87679 0.33079 0.0
H4035 H 0.88186 0.92244 0.38005 0.0
H4036 H 0.87915 0.92539 0.30912 0.0
H4037 H 0.89545 0.93059 0.27891 0.0
H4038 H 0.91708 0.98307 0.29932 0.0
H4039 H 0.90074 0.97818 0.32958 0.0
C4040 C 0.80097 0.94072 0.34993 0.0
C4041 C 0.79191 0.95143 0.3637 0.0
C4042 C 0.82022 0.94268 0.34706 0.0
C4043 C 0.8307 0.95518 0.35813 0.0
C4044 C 0.8214 0.96702 0.37085 0.0
C4045 C 0.80202 0.96512 0.37366 0.0
C4046 C 0.85126 0.95255 0.35878 0.0
C4047 C 0.86185 0.95682 0.34275 0.0
C4048 C 0.85918 0.94114 0.37298 0.0
C4049 C 0.84832 0.93601 0.38992 0.0
C4050 C 0.84633 0.94888 0.40472 0.0
C4051 C 0.83532 0.94433 0.42035 0.0
C4052 C 0.82634 0.9269 0.42132 0.0
C4053 C 0.82841 0.91396 0.40669 0.0
C4054 C 0.83938 0.91846 0.39103 0.0
C4055 C 0.93105 0.91457 0.33315 0.0
C4056 C 0.92465 0.89651 0.32848 0.0
C4057 C 0.91912 0.92708 0.34257 0.0
C4058 C 0.90086 0.92146 0.34754 0.0
C4059 C 0.89521 0.90287 0.34425 0.0
C4060 C 0.90694 0.89057 0.33457 0.0
C4061 C 0.88631 0.93524 0.35298 0.0
C4062 C 0.87658 0.9325 0.36989 0.0
C4063 C 0.87934 0.9483 0.33972 0.0
C4064 C 0.88883 0.95141 0.32152 0.0
C4065 C 0.88737 0.93803 0.3071 0.0
C4066 C 0.8966 0.94092 0.29 0.0
C4067 C 0.90734 0.95713 0.28722 0.0
C4068 C 0.90877 0.97053 0.30149 0.0
C4069 C 0.89948 0.96774 0.31859 0.0
H4070 H 0.91455 0.9593 0.274 0.0
H4071 H 0.81778 0.92342 0.4334 0.0
H4072 H 0.1469 0.22461 0.39685 0.0
H4073 H 0.15024 0.19068 0.39892 0.0
H4074 H 0.15385 0.19426 0.45927 0.0
H4075 H 0.15043 0.22853 0.45742 0.0
H4076 H 0.17919 0.16731 0.44146 0.0
H4077 H 0.11463 0.18213 0.44468 0.0
H4078 H 0.08591 0.19935 0.43593 0.0
H4079 H 0.08766 0.17499 0.38082 0.0
H4080 H 0.11682 0.15821 0.38892 0.0
H4081 H 0.18042 0.07088 0.41791 0.0
H4082 H 0.16583 0.09655 0.43588 0.0
H4083 H 0.15413 0.12581 0.38406 0.0
H4084 H 0.16868 0.10039 0.36634 0.0
H4085 H 0.12692 0.13267 0.41093 0.0
H4086 H 0.19829 0.13513 0.4063 0.0
H4087 H 0.22905 0.12036 0.41269 0.0
H4088 H 0.213 0.11119 0.47013 0.0
H4089 H 0.18229 0.12624 0.4641 0.0
C4090 C 0.1487 0.21831 0.41059 0.0
C4091 C 0.14812 0.22929 0.42699 0.0
C4092 C 0.15053 0.19889 0.41174 0.0
C4093 C 0.15179 0.19001 0.42927 0.0
C4094 C 0.15268 0.20092 0.44564 0.0
C4095 C 0.15081 0.22047 0.44451 0.0
C4096 C 0.15125 0.16928 0.43005 0.0
C4097 C 0.16751 0.1596 0.43543 0.0
C4098 C 0.13593 0.15927 0.42227 0.0
C4099 C 0.11799 0.16888 0.41744 0.0
C4100 C 0.10897 0.1805 0.43066 0.0
C4101 C 0.0926 0.1902 0.42581 0.0
C4102 C 0.08491 0.18818 0.40788 0.0
C4103 C 0.09361 0.1765 0.39473 0.0
C4104 C 0.11008 0.1669 0.39944 0.0
C4105 C 0.17387 0.08241 0.41044 0.0
C4106 C 0.17539 0.08374 0.39082 0.0
C4107 C 0.16573 0.09712 0.42068 0.0
C4108 C 0.1591 0.11318 0.4113 0.0
C4109 C 0.15905 0.11353 0.39159 0.0
C4110 C 0.16731 0.099 0.38145 0.0
C4111 C 0.15522 0.13095 0.42139 0.0
C4112 C 0.13815 0.14017 0.41797 0.0
C4113 C 0.1697 0.14054 0.43107 0.0
C4114 C 0.1881 0.1317 0.43475 0.0
C4115 C 0.2014 0.12999 0.42028 0.0
C4116 C 0.2188 0.12161 0.42385 0.0
C4117 C 0.22295 0.11479 0.44179 0.0
C4118 C 0.20977 0.11648 0.45625 0.0
C4119 C 0.19241 0.12501 0.45279 0.0
H4120 H 0.23638 0.10818 0.44449 0.0
H4121 H 0.07222 0.19569 0.40417 0.0
H4122 H 0.17316 0.91648 0.09739 0.0
H4123 H 0.15924 0.88915 0.08133 0.0
H4124 H 0.1873 0.85221 0.12045 0.0
H4125 H 0.20168 0.8792 0.13572 0.0
H4126 H 0.19391 0.84096 0.08661 0.0
H4127 H 0.13831 0.86199 0.12092 0.0
H4128 H 0.11336 0.88459 0.12917 0.0
H4129 H 0.09568 0.88656 0.07153 0.0
H4130 H 0.12067 0.86412 0.06292 0.0
H4131 H 0.13662 0.75973 0.10032 0.0
H4132 H 0.14719 0.79225 0.1029 0.0
H4133 H 0.14748 0.79732 0.04256 0.0
H4134 H 0.13733 0.76443 0.03975 0.0
H4135 H 0.12627 0.82724 0.07726 0.0
H4136 H 0.18238 0.80341 0.04427 0.0
H4137 H 0.20641 0.77902 0.03887 0.0
H4138 H 0.22231 0.78145 0.09701 0.0
H4139 H 0.19813 0.80563 0.10278 0.0
C4140 C 0.17592 0.90249 0.10269 0.0
C4141 C 0.18838 0.89978 0.11774 0.0
C4142 C 0.16807 0.88692 0.09351 0.0
C4143 C 0.17236 0.8686 0.0996 0.0
C4144 C 0.18401 0.86615 0.11531 0.0
C4145 C 0.19209 0.88156 0.12414 0.0
C4146 C 0.16568 0.85169 0.08944 0.0
C4147 C 0.1791 0.83811 0.08441 0.0
C4148 C 0.14643 0.84807 0.08605 0.0
C4149 C 0.1315 0.8616 0.09124 0.0
C4150 C 0.1292 0.86738 0.10999 0.0
C4151 C 0.11504 0.88012 0.11473 0.0
C4152 C 0.10299 0.88706 0.10087 0.0
C4153 C 0.10505 0.88122 0.08224 0.0
C4154 C 0.11921 0.86849 0.07743 0.0
C4155 C 0.13903 0.76769 0.08757 0.0
C4156 C 0.13622 0.75953 0.06983 0.0
C4157 C 0.145 0.78625 0.08908 0.0
C4158 C 0.14803 0.79705 0.07292 0.0
C4159 C 0.14524 0.78907 0.05515 0.0
C4160 C 0.13956 0.77032 0.0536 0.0
C4161 C 0.15447 0.81657 0.07513 0.0
C4162 C 0.14107 0.83054 0.07878 0.0
C4163 C 0.17372 0.82056 0.07743 0.0
C4164 C 0.18832 0.80614 0.07398 0.0
C4165 C 0.19086 0.79858 0.05593 0.0
C4166 C 0.20454 0.78484 0.05279 0.0
C4167 C 0.21585 0.77865 0.0676 0.0
C4168 C 0.21353 0.78623 0.08556 0.0
C4169 C 0.19985 0.79995 0.08876 0.0
H4170 H 0.22644 0.76802 0.06514 0.0
H4171 H 0.09203 0.89692 0.10457 0.0
H4172 H 0.86844 0.70421 0.10337 0.0
H4173 H 0.86321 0.67103 0.09787 0.0
H4174 H 0.84422 0.68286 0.04159 0.0
H4175 H 0.84966 0.71658 0.04687 0.0
H4176 H 0.82168 0.65607 0.063 0.0
H4177 H 0.88392 0.66359 0.04234 0.0
H4178 H 0.91617 0.67619 0.04256 0.0
H4179 H 0.92676 0.64894 0.09533 0.0
H4180 H 0.89448 0.63642 0.0956 0.0
H4181 H 0.81922 0.55679 0.08191 0.0
H4182 H 0.83327 0.58125 0.06192 0.0
H4183 H 0.84843 0.61268 0.11143 0.0
H4184 H 0.83403 0.58866 0.13123 0.0
H4185 H 0.87531 0.61369 0.07688 0.0
H4186 H 0.80468 0.63451 0.09663 0.0
H4187 H 0.77168 0.62377 0.09789 0.0
H4188 H 0.7786 0.59561 0.04499 0.0
H4189 H 0.81164 0.60617 0.04351 0.0
C4190 C 0.86305 0.69993 0.0898 0.0
C4191 C 0.85967 0.71312 0.07549 0.0
C4192 C 0.86018 0.68089 0.08666 0.0
C4193 C 0.85382 0.67451 0.06918 0.0
C4194 C 0.84941 0.68757 0.05509 0.0
C4195 C 0.85242 0.70679 0.05819 0.0
C4196 C 0.85168 0.65406 0.06632 0.0
C4197 C 0.83349 0.64668 0.06518 0.0
C4198 C 0.86712 0.64184 0.0691 0.0
C4199 C 0.88673 0.64902 0.06896 0.0
C4200 C 0.89309 0.66033 0.05404 0.0
C4201 C 0.91139 0.66747 0.05407 0.0
C4202 C 0.92351 0.66336 0.06894 0.0
C4203 C 0.91737 0.65208 0.08379 0.0
C4204 C 0.89907 0.64491 0.08383 0.0
C4205 C 0.82638 0.5685 0.08846 0.0
C4206 C 0.82578 0.5709 0.10803 0.0
C4207 C 0.83425 0.58249 0.07706 0.0
C4208 C 0.84175 0.59877 0.08525 0.0
C4209 C 0.84283 0.60014 0.10488 0.0
C4210 C 0.83471 0.58639 0.11618 0.0
C4211 C 0.84531 0.61592 0.07417 0.0
C4212 C 0.86371 0.62285 0.07321 0.0
C4213 C 0.83016 0.62768 0.06903 0.0
C4214 C 0.81051 0.62107 0.06998 0.0
C4215 C 0.7991 0.62603 0.08529 0.0
C4216 C 0.78043 0.61999 0.08604 0.0
C4217 C 0.77304 0.60906 0.07151 0.0
C4218 C 0.78434 0.60408 0.05623 0.0
C4219 C 0.80303 0.61005 0.05544 0.0
H4220 H 0.75858 0.60438 0.07211 0.0
H4221 H 0.93766 0.66891 0.06896 0.0
H4222 H 0.33426 0.93508 0.89389 0.0
H4223 H 0.35442 0.9127 0.91093 0.0
H4224 H 0.30748 0.87474 0.9164 0.0
H4225 H 0.28756 0.89667 0.89967 0.0
H4226 H 0.32765 0.87702 0.94905 0.0
H4227 H 0.33976 0.87015 0.88086 0.0
H4228 H 0.35103 0.88213 0.85032 0.0
H4229 H 0.40465 0.89494 0.8748 0.0
H4230 H 0.39359 0.8832 0.90553 0.0
H4231 H 0.34508 0.7811 0.94499 0.0
H4232 H 0.33705 0.81439 0.94476 0.0
H4233 H 0.39559 0.82857 0.93723 0.0
H4234 H 0.4034 0.79514 0.9362 0.0
H4235 H 0.37772 0.8453 0.91252 0.0
H4236 H 0.36822 0.84225 0.97806 0.0
H4237 H 0.35726 0.82937 0.00829 0.0
H4238 H 0.29996 0.83544 0.99051 0.0
H4239 H 0.31054 0.84811 0.96007 0.0
C4240 C 0.32832 0.92196 0.8988 0.0
C4241 C 0.30937 0.91759 0.89538 0.0
C4242 C 0.33979 0.90927 0.90859 0.0
C4243 C 0.33239 0.89211 0.915 0.0
C4244 C 0.31343 0.88798 0.9118 0.0
C4245 C 0.30208 0.90051 0.90206 0.0
C4246 C 0.34427 0.87749 0.92379 0.0
C4247 C 0.33874 0.87009 0.94123 0.0
C4248 C 0.35923 0.869 0.91392 0.0
C4249 C 0.36579 0.87606 0.89549 0.0
C4250 C 0.3539 0.87566 0.87973 0.0
C4251 C 0.36026 0.88237 0.8624 0.0
C4252 C 0.37852 0.88935 0.86064 0.0
C4253 C 0.39049 0.88958 0.8762 0.0
C4254 C 0.38419 0.8829 0.89357 0.0
C4255 C 0.35625 0.79137 0.94377 0.0
C4256 C 0.37479 0.78566 0.94043 0.0
C4257 C 0.35171 0.81045 0.9438 0.0
C4258 C 0.36574 0.82414 0.94114 0.0
C4259 C 0.3845 0.81835 0.93923 0.0
C4260 C 0.38895 0.79927 0.93865 0.0
C4261 C 0.36043 0.84399 0.93744 0.0
C4262 C 0.36721 0.85245 0.92093 0.0
C4263 C 0.34672 0.85349 0.94829 0.0
C4264 C 0.34021 0.84613 0.96673 0.0
C4265 C 0.35328 0.84078 0.98055 0.0
C4266 C 0.34713 0.83351 0.99774 0.0
C4267 C 0.32792 0.83159 0.00132 0.0
C4268 C 0.31483 0.83697 0.98773 0.0
C4269 C 0.3209 0.84425 0.97052 0.0
H4270 H 0.32319 0.82592 0.01462 0.0
H4271 H 0.38343 0.89454 0.84721 0.0
H4272 H 0.0724 0.56975 0.22834 0.0
H4273 H 0.05774 0.53981 0.22132 0.0
H4274 H 0.01366 0.55158 0.26122 0.0
H4275 H 0.02845 0.582 0.26846 0.0
H4276 H 0.03017 0.51657 0.2661 0.0
H4277 H 0.00138 0.5493 0.216 0.0
H4278 H -0.00039 0.57171 0.18965 0.0
H4279 H 0.04019 0.53937 0.15894 0.0
H4280 H 0.0424 0.51687 0.18517 0.0
H4281 H 0.01972 0.42101 0.23904 0.0
H4282 H 0.00805 0.45327 0.24305 0.0
H4283 H 0.05122 0.47334 0.20542 0.0
H4284 H 0.06224 0.44135 0.20086 0.0
H4285 H 0.02064 0.49362 0.201 0.0
H4286 H 0.05716 0.46957 0.25498 0.0
H4287 H 0.06219 0.44853 0.28211 0.0
H4288 H 0.0093 0.46561 0.30556 0.0
H4289 H 0.00389 0.4866 0.27847 0.0
C4290 C 0.05953 0.56609 0.23561 0.0
C4291 C 0.05167 0.57817 0.2491 0.0
C4292 C 0.05103 0.54904 0.2314 0.0
C4293 C 0.03445 0.5436 0.24054 0.0
C4294 C 0.02636 0.55565 0.25389 0.0
C4295 C 0.03481 0.57296 0.25801 0.0
C4296 C 0.02699 0.5245 0.23709 0.0
C4297 C 0.0274 0.5116 0.25196 0.0
C4298 C 0.02351 0.51806 0.21862 0.0
C4299 C 0.02199 0.53134 0.20257 0.0
C4300 C 0.00995 0.54697 0.20364 0.0
C4301 C 0.00886 0.55968 0.18871 0.0
C4302 C 0.01972 0.55692 0.1726 0.0
C4303 C 0.03171 0.54144 0.17139 0.0
C4304 C 0.03284 0.52866 0.18627 0.0
C4305 C 0.02633 0.4323 0.23128 0.0
C4306 C 0.04219 0.42884 0.22004 0.0
C4307 C 0.01974 0.45071 0.23365 0.0
C4308 C 0.029 0.46579 0.22484 0.0
C4309 C 0.04386 0.46201 0.21245 0.0
C4310 C 0.05033 0.44374 0.21003 0.0
C4311 C 0.02507 0.48563 0.22985 0.0
C4312 C 0.02249 0.49866 0.21526 0.0
C4313 C 0.0268 0.49222 0.24855 0.0
C4314 C 0.03 0.47942 0.26463 0.0
C4315 C 0.04655 0.46871 0.26586 0.0
C4316 C 0.04948 0.45682 0.28123 0.0
C4317 C 0.03604 0.45571 0.29551 0.0
C4318 C 0.01966 0.46646 0.29446 0.0
C4319 C 0.01665 0.47833 0.27911 0.0
H4320 H 0.03833 0.44658 0.30744 0.0
H4321 H 0.01891 0.56682 0.16109 0.0
H4322 H 0.9676 0.92742 0.25097 0.0
H4323 H 0.98247 0.95688 0.24242 0.0
H4324 H 0.99151 0.96937 0.30118 0.0
H4325 H 0.97505 0.94024 0.30963 0.0
H4326 H 0.97559 0.99646 0.28811 0.0
H4327 H 0.02946 0.96665 0.26559 0.0
H4328 H 0.04936 0.94308 0.2499 0.0
H4329 H 0.02519 0.95762 0.1966 0.0
H4330 H 0.00492 0.98107 0.21195 0.0
H4331 H 0.98168 0.08537 0.24871 0.0
H4332 H 0.00053 0.05803 0.25762 0.0
H4333 H 0.96733 0.02316 0.22091 0.0
H4334 H 0.94816 0.05029 0.21234 0.0
H4335 H 0.00868 0.01121 0.22854 0.0
H4336 H 0.94658 0.0283 0.25924 0.0
H4337 H 0.92772 0.05303 0.2746 0.0
H4338 H 0.97245 0.0631 0.31381 0.0
H4339 H 0.99163 0.03857 0.29846 0.0
C4340 C 0.97342 0.93617 0.26199 0.0
C4341 C 0.97042 0.93167 0.28088 0.0
C4342 C 0.98213 0.953 0.25712 0.0
C4343 C 0.98846 0.96546 0.2711 0.0
C4344 C 0.9868 0.96008 0.29009 0.0
C4345 C 0.97754 0.94342 0.29495 0.0
C4346 C 0.99305 0.98521 0.26589 0.0
C4347 C 0.98358 -0.00038 0.27552 0.0
C4348 C 0.00342 0.98974 0.24944 0.0
C4349 C 0.01564 0.97569 0.23998 0.0
C4350 C 0.0283 0.96478 0.25054 0.0
C4351 C 0.03966 0.95143 0.24169 0.0
C4352 C 0.03855 0.94886 0.22227 0.0
C4353 C 0.02608 0.95966 0.21164 0.0
C4354 C 0.01468 0.97303 0.22041 0.0
C4355 C 0.979 0.07206 0.24185 0.0
C4356 C 0.9633 0.06979 0.23009 0.0
C4357 C 0.98983 0.05648 0.24691 0.0
C4358 C 0.98521 0.03862 0.23999 0.0
C4359 C 0.97117 0.03687 0.22629 0.0
C4360 C 0.96012 0.05233 0.22152 0.0
C4361 C 0.99073 0.02158 0.25044 0.0
C4362 C 0.00179 0.00786 0.2417 0.0
C4363 C 0.98232 0.01768 0.26797 0.0
C4364 C 0.9705 0.03172 0.27772 0.0
C4365 C 0.95234 0.03579 0.27116 0.0
C4366 C 0.94163 0.04979 0.27982 0.0
C4367 C 0.94889 0.05965 0.29517 0.0
C4368 C 0.96685 0.05546 0.30192 0.0
C4369 C 0.97764 0.04152 0.29325 0.0
H4370 H 0.9406 0.07052 0.30182 0.0
H4371 H 0.04734 0.93851 0.21545 0.0
H4372 H 0.28843 0.0707 0.55755 0.0
H4373 H 0.28372 0.0566 0.52693 0.0
H4374 H 0.25923 0.00761 0.55302 0.0
H4375 H 0.26353 0.0221 0.58402 0.0
H4376 H 0.29047 0.02743 0.50593 0.0
H4377 H 0.22087 0.99617 0.52703 0.0
H4378 H 0.19803 0.99667 0.55318 0.0
H4379 H 0.21245 0.05404 0.56501 0.0
H4380 H 0.23519 0.05389 0.53881 0.0
H4381 H 0.24289 0.02694 0.41663 0.0
H4382 H 0.25384 0.01325 0.44642 0.0
H4383 H 0.22591 0.0576 0.47688 0.0
H4384 H 0.21495 0.07111 0.44752 0.0
H4385 H 0.22175 0.02523 0.49487 0.0
H4386 H 0.27238 0.06054 0.4652 0.0
H4387 H 0.29754 0.06851 0.44274 0.0
H4388 H 0.32166 0.0137 0.44985 0.0
H4389 H 0.29651 0.00535 0.47225 0.0
C4390 C 0.28253 0.05669 0.55684 0.0
C4391 C 0.27593 0.0477 0.57311 0.0
C4392 C 0.27996 0.04854 0.53929 0.0
C4393 C 0.27072 0.0312 0.53761 0.0
C4394 C 0.26612 0.02114 0.55399 0.0
C4395 C 0.26867 0.02938 0.57169 0.0
C4396 C 0.26322 0.02588 0.5189 0.0
C4397 C 0.27547 0.02632 0.50346 0.0
C4398 C 0.24364 0.02458 0.51566 0.0
C4399 C 0.22982 0.02493 0.53117 0.0
C4400 C 0.2191 0.00888 0.53521 0.0
C4401 C 0.20619 0.00911 0.55003 0.0
C4402 C 0.20384 0.02536 0.56079 0.0
C4403 C 0.21431 0.04145 0.5567 0.0
C4404 C 0.22719 0.04131 0.54187 0.0
C4405 C 0.23879 0.0335 0.42974 0.0
C4406 C 0.22819 0.05018 0.42976 0.0
C4407 C 0.24513 0.02572 0.44671 0.0
C4408 C 0.24076 0.03445 0.46387 0.0
C4409 C 0.22939 0.05054 0.46384 0.0
C4410 C 0.22322 0.05835 0.44701 0.0
C4411 C 0.24898 0.02809 0.48194 0.0
C4412 C 0.23681 0.02521 0.49721 0.0
C4413 C 0.26861 0.02797 0.48506 0.0
C4414 C 0.2824 0.03221 0.4701 0.0
C4415 C 0.28281 0.05005 0.46165 0.0
C4416 C 0.29714 0.05468 0.44905 0.0
C4417 C 0.3112 0.04163 0.44493 0.0
C4418 C 0.31076 0.02378 0.45307 0.0
C4419 C 0.29646 0.01908 0.46568 0.0
H4420 H 0.32258 0.0454 0.43559 0.0
H4421 H 0.19388 0.02549 0.57228 0.0
H4422 H 0.69794 0.46721 0.56346 0.0
H4423 H 0.70093 0.48118 0.53211 0.0
H4424 H 0.75962 0.49219 0.5429 0.0
H4425 H 0.75608 0.4799 0.57459 0.0
H4426 H 0.75045 0.51321 0.5159 0.0
H4427 H 0.74237 0.44702 0.52898 0.0
H4428 H 0.72589 0.41895 0.54094 0.0
H4429 H 0.67939 0.43027 0.50422 0.0
H4430 H 0.69555 0.45856 0.4922 0.0
H4431 H 0.79016 0.44608 0.44713 0.0
H4432 H 0.78017 0.46383 0.47482 0.0
H4433 H 0.73916 0.4932 0.44135 0.0
H4434 H 0.74975 0.47618 0.4134 0.0
H4435 H 0.73308 0.45914 0.47558 0.0
H4436 H 0.75193 0.52228 0.45737 0.0
H4437 H 0.77514 0.54567 0.44667 0.0
H4438 H 0.80937 0.53423 0.49499 0.0
H4439 H 0.78651 0.51053 0.50581 0.0
C4440 C 0.71109 0.47373 0.55944 0.0
C4441 C 0.72682 0.4725 0.5712 0.0
C4442 C 0.71289 0.48152 0.5415 0.0
C4443 C 0.73071 0.48694 0.53483 0.0
C4444 C 0.74576 0.48795 0.54755 0.0
C4445 C 0.74376 0.48089 0.5657 0.0
C4446 C 0.73486 0.48726 0.51436 0.0
C4447 C 0.74644 0.50151 0.50701 0.0
C4448 C 0.72982 0.47191 0.50269 0.0
C4449 C 0.72002 0.45501 0.50991 0.0
C4450 C 0.72858 0.44356 0.52355 0.0
C4451 C 0.71931 0.42763 0.53033 0.0
C4452 C 0.70159 0.42286 0.52337 0.0
C4453 C 0.6931 0.43402 0.50962 0.0
C4454 C 0.70229 0.45001 0.50283 0.0
C4455 C 0.7797 0.45701 0.44552 0.0
C4456 C 0.77067 0.45977 0.42823 0.0
C4457 C 0.77406 0.46719 0.46129 0.0
C4458 C 0.75907 0.47992 0.46003 0.0
C4459 C 0.75105 0.48377 0.44248 0.0
C4460 C 0.75707 0.47399 0.42656 0.0
C4461 C 0.74891 0.48479 0.47739 0.0
C4462 C 0.73634 0.4713 0.4842 0.0
C4463 C 0.75385 0.50025 0.48874 0.0
C4464 C 0.7676 0.51449 0.48228 0.0
C4465 C 0.76452 0.52458 0.46559 0.0
C4466 C 0.77758 0.53795 0.45954 0.0
C4467 C 0.79374 0.5414 0.47012 0.0
C4468 C 0.79685 0.53153 0.4868 0.0
C4469 C 0.78383 0.51815 0.4929 0.0
H4470 H 0.80384 0.55176 0.46541 0.0
H4471 H 0.69448 0.41048 0.52857 0.0
H4472 H 0.29274 0.94891 0.95295 0.0
H4473 H 0.28338 0.96274 0.98267 0.0
H4474 H 0.25048 0.00427 0.9532 0.0
H4475 H 0.25955 0.99004 0.92319 0.0
H4476 H 0.27982 0.99298 0.00404 0.0
H4477 H 0.20787 0.00398 0.97283 0.0
H4478 H 0.18991 0.99693 0.94398 0.0
H4479 H 0.22035 0.94527 0.93734 0.0
H4480 H 0.23827 0.95194 0.96626 0.0
H4481 H 0.22755 0.97749 0.08719 0.0
H4482 H 0.23369 0.99547 0.05845 0.0
H4483 H 0.22329 0.94582 0.0253 0.0
H4484 H 0.21685 0.92801 0.05368 0.0
H4485 H 0.21226 0.97598 0.00652 0.0
H4486 H 0.26766 0.95607 0.04265 0.0
H4487 H 0.28748 0.95621 0.07109 0.0
H4488 H 0.29277 0.01619 0.0674 0.0
H4489 H 0.27276 0.01638 0.03904 0.0
C4490 C 0.2841 0.96144 0.95275 0.0
C4491 C 0.27641 0.96806 0.93584 0.0
C4492 C 0.27884 0.96946 0.96978 0.0
C4493 C 0.26577 0.9842 0.97019 0.0
C4494 C 0.26033 0.99268 0.95319 0.0
C4495 C 0.26559 0.98458 0.93604 0.0
C4496 C 0.25498 0.98716 0.98778 0.0
C4497 C 0.26489 0.98993 0.0046 0.0
C4498 C 0.23554 0.98292 0.98858 0.0
C4499 C 0.22449 0.97856 0.97152 0.0
C4500 C 0.21064 0.9911 0.96522 0.0
C4501 C 0.20048 0.98717 0.94887 0.0
C4502 C 0.20402 0.97069 0.9388 0.0
C4503 C 0.21763 0.95803 0.94513 0.0
C4504 C 0.22776 0.96187 0.9615 0.0
C4505 C 0.22601 0.97058 0.07373 0.0
C4506 C 0.22208 0.95123 0.07271 0.0
C4507 C 0.22957 0.98087 0.05733 0.0
C4508 C 0.22926 0.97192 0.03976 0.0
C4509 C 0.22365 0.95306 0.03869 0.0
C4510 C 0.22011 0.94281 0.05497 0.0
C4511 C 0.23733 0.98084 0.02273 0.0
C4512 C 0.22687 0.98031 0.00605 0.0
C4513 C 0.25643 0.98638 0.02204 0.0
C4514 C 0.26856 0.98627 0.03893 0.0
C4515 C 0.27298 0.96928 0.04799 0.0
C4516 C 0.28424 0.9693 0.06407 0.0
C4517 C 0.29133 0.98621 0.07109 0.0
C4518 C 0.28722 0.00312 0.06198 0.0
C4519 C 0.27592 0.00317 0.04592 0.0
H4520 H 0.30004 0.9862 0.08355 0.0
H4521 H 0.19618 0.96771 0.92612 0.0
H4522 H 0.75904 0.51618 0.08361 0.0
H4523 H 0.74726 0.50172 0.05463 0.0
H4524 H 0.77322 0.54587 0.02217 0.0
H4525 H 0.7852 0.56009 0.05078 0.0
H4526 H 0.72259 0.51716 0.03161 0.0
H4527 H 0.78533 0.53303 0.98042 0.0
H4528 H 0.81981 0.53008 0.98056 0.0
H4529 H 0.81635 0.4877 0.02334 0.0
H4530 H 0.78181 0.49016 0.02327 0.0
H4531 H 0.70301 0.56339 0.95015 0.0
H4532 H 0.71032 0.54783 0.97952 0.0
H4533 H 0.73318 0.5006 0.94915 0.0
H4534 H 0.72632 0.51647 0.91943 0.0
H4535 H 0.75812 0.51316 0.97182 0.0
H4536 H 0.69614 0.49426 0.98119 0.0
H4537 H 0.66155 0.49576 0.98118 0.0
H4538 H 0.66311 0.5402 0.0219 0.0
H4539 H 0.6977 0.5392 0.02197 0.0
C4540 C 0.76261 0.52251 0.07023 0.0
C4541 C 0.77287 0.53939 0.06946 0.0
C4542 C 0.75584 0.51425 0.05372 0.0
C4543 C 0.75948 0.52261 0.03622 0.0
C4544 C 0.7705 0.53894 0.03545 0.0
C4545 C 0.77718 0.5472 0.05186 0.0
C4546 C 0.75001 0.51601 0.01889 0.0
C4547 C 0.7303 0.51592 0.01853 0.0
C4548 C 0.7601 0.51352 0.00197 0.0
C4549 C 0.78092 0.51178 0.00182 0.0
C4550 C 0.79188 0.52294 0.98973 0.0
C4551 C 0.81146 0.52139 0.98984 0.0
C4552 C 0.82026 0.50871 0.00196 0.0
C4553 C 0.80951 0.49754 0.01398 0.0
C4554 C 0.78993 0.49902 0.01393 0.0
C4555 C 0.70915 0.54948 0.94964 0.0
C4556 C 0.71444 0.54135 0.93244 0.0
C4557 C 0.71313 0.54044 0.96652 0.0
C4558 C 0.72227 0.52296 0.96662 0.0
C4559 C 0.72612 0.51407 0.94943 0.0
C4560 C 0.72215 0.52316 0.93245 0.0
C4561 C 0.73072 0.5161 0.9844 0.0
C4562 C 0.75029 0.51362 0.98488 0.0
C4563 C 0.72046 0.51591 0.00143 0.0
C4564 C 0.69959 0.5166 0.0016 0.0
C4565 C 0.68913 0.50441 0.99009 0.0
C4566 C 0.6695 0.50518 0.99007 0.0
C4567 C 0.66014 0.51805 0.00154 0.0
C4568 C 0.67038 0.53019 0.01306 0.0
C4569 C 0.69001 0.52949 0.01313 0.0
H4570 H 0.64495 0.51863 0.0015 0.0
H4571 H 0.83542 0.50755 0.00203 0.0
H4572 H 0.42442 0.24178 -0.00012 0.0
H4573 H 0.45336 0.25025 0.98325 0.0
H4574 H 0.48449 0.21186 0.01841 0.0
H4575 H 0.4558 0.20337 0.03471 0.0
H4576 H 0.47727 0.26873 0.00265 0.0
H4577 H 0.52588 0.20147 0.00438 0.0
H4578 H 0.5249 0.16911 0.99225 0.0
H4579 H 0.48388 0.18535 0.95114 0.0
H4580 H 0.4848 0.21792 0.96279 0.0
H4581 H 0.55414 0.27495 0.05814 0.0
H4582 H 0.5263 0.26846 0.03971 0.0
H4583 H 0.5604 0.26057 0.99021 0.0
H4584 H 0.58875 0.26673 0.00887 0.0
H4585 H 0.53609 0.23246 0.99405 0.0
H4586 H 0.52985 0.29795 0.99172 0.0
H4587 H 0.53089 0.33058 0.00324 0.0
H4588 H 0.48695 0.3184 0.04273 0.0
H4589 H 0.48581 0.28564 0.03169 0.0
C4590 C 0.4373 0.23442 0.00329 0.0
C4591 C 0.43802 0.22215 0.01873 0.0
C4592 C 0.45385 0.23933 0.99384 0.0
C4593 C 0.4712 0.23186 -0.00036 0.0
C4594 C 0.47136 0.21771 0.01341 0.0
C4595 C 0.45492 0.21293 0.02288 0.0
C4596 C 0.48909 0.24179 0.99544 0.0
C4597 C 0.49011 0.26089 0.00028 0.0
C4598 C 0.50587 0.23185 0.99162 0.0
C4599 C 0.50545 0.21223 0.98447 0.0
C4600 C 0.51678 0.19824 0.99262 0.0
C4601 C 0.5162 0.17981 0.98586 0.0
C4602 C 0.50435 0.17517 0.97093 0.0
C4603 C 0.49305 0.18895 0.96273 0.0
C4604 C 0.49357 0.2074 0.96943 0.0
C4605 C 0.55582 0.27207 0.0433 0.0
C4606 C 0.57373 0.27126 0.03503 0.0
C4607 C 0.53981 0.26854 0.03269 0.0
C4608 C 0.5412 0.26433 0.01347 0.0
C4609 C 0.559 0.26395 0.00498 0.0
C4610 C 0.57516 0.26751 0.01565 0.0
C4611 C 0.52401 0.25863 0.00317 0.0
C4612 C 0.52322 0.24045 0.99557 0.0
C4613 C 0.50739 0.26946 0.00424 0.0
C4614 C 0.5077 0.2893 0.01078 0.0
C4615 C 0.52042 0.30221 0.00288 0.0
C4616 C 0.52104 0.32074 0.00935 0.0
C4617 C 0.50897 0.32657 0.02369 0.0
C4618 C 0.49624 0.31388 0.03158 0.0
C4619 C 0.49557 0.29534 0.02518 0.0
H4620 H 0.5095 0.34091 0.0287 0.0
H4621 H 0.50391 0.1609 0.96573 0.0
H4622 H 0.56739 0.70586 0.48246 0.0
H4623 H 0.53852 0.71176 0.50078 0.0
H4624 H 0.53118 0.76449 0.47174 0.0
H4625 H 0.55943 0.75851 0.45346 0.0
H4626 H 0.52023 0.76664 0.50926 0.0
H4627 H 0.51248 0.72569 0.45335 0.0
H4628 H 0.51891 0.69647 0.43584 0.0
H4629 H 0.49948 0.66382 0.48273 0.0
H4630 H 0.49316 0.69291 0.50058 0.0
H4631 H 0.44335 0.78872 0.45544 0.0
H4632 H 0.47198 0.78016 0.47237 0.0
H4633 H 0.43997 0.74318 0.50818 0.0
H4634 H 0.41104 0.75241 0.49166 0.0
H4635 H 0.46909 0.72619 0.48475 0.0
H4636 H 0.46317 0.77198 0.53157 0.0
H4637 H 0.45594 0.80284 0.54547 0.0
H4638 H 0.50042 0.82804 0.51344 0.0
H4639 H 0.50774 0.79742 0.4991 0.0
C4640 C 0.55975 0.71887 0.48043 0.0
C4641 C 0.56532 0.73165 0.46647 0.0
C4642 C 0.54338 0.72224 0.49088 0.0
C4643 C 0.53275 0.73857 0.4876 0.0
C4644 C 0.53923 0.75189 0.47462 0.0
C4645 C 0.55525 0.74838 0.46404 0.0
C4646 C 0.51346 0.74089 0.49496 0.0
C4647 C 0.50896 0.75765 0.50432 0.0
C4648 C 0.49884 0.72883 0.48902 0.0
C4649 C 0.50261 0.71139 0.47836 0.0
C4650 C 0.50971 0.71226 0.45995 0.0
C4651 C 0.51332 0.69575 0.44997 0.0
C4652 C 0.50967 0.6783 0.4582 0.0
C4653 C 0.50236 0.67735 0.47641 0.0
C4654 C 0.49878 0.69383 0.48646 0.0
C4655 C 0.44236 0.7794 0.46744 0.0
C4656 C 0.42513 0.77129 0.47239 0.0
C4657 C 0.45865 0.77454 0.47713 0.0
C4658 C 0.45803 0.76112 0.49158 0.0
C4659 C 0.44065 0.75374 0.49723 0.0
C4660 C 0.42421 0.75904 0.48785 0.0
C4661 C 0.47589 0.75261 0.49784 0.0
C4662 C 0.48016 0.73467 0.49091 0.0
C4663 C 0.49026 0.76377 0.50572 0.0
C4664 C 0.48603 0.78233 0.51427 0.0
C4665 C 0.47136 0.78411 0.5274 0.0
C4666 C 0.46725 0.80157 0.53537 0.0
C4667 C 0.47773 0.81739 0.53035 0.0
C4668 C 0.49234 0.81577 0.51735 0.0
C4669 C 0.49651 0.79834 0.50933 0.0
H4670 H 0.47452 0.8309 0.53654 0.0
H4671 H 0.51245 0.66552 0.45045 0.0
H4672 H 0.06952 0.74414 0.50449 0.0
H4673 H 0.03942 0.74095 0.48882 0.0
H4674 H 0.02573 0.79828 0.5034 0.0
H4675 H 0.05538 0.80071 0.52064 0.0
H4676 H 0.00164 0.77907 0.51744 0.0
H4677 H 0.02263 0.77875 0.45535 0.0
H4678 H 0.04265 0.77231 0.42785 0.0
H4679 H 0.03118 0.71332 0.43292 0.0
H4680 H 0.01132 0.71933 0.46062 0.0
H4681 H 0.9105 0.74193 0.49886 0.0
H4682 H 0.93797 0.75186 0.48075 0.0
H4683 H 0.97365 0.71884 0.51681 0.0
H4684 H 0.94642 0.70916 0.53517 0.0
H4685 H 0.98111 0.73488 0.46761 0.0
H4686 H 0.98586 0.75435 0.54393 0.0
H4687 H 0.96465 0.76032 0.57074 0.0
H4688 H 0.92419 0.78521 0.53358 0.0
H4689 H 0.94531 0.77966 0.50662 0.0
C4690 C 0.06042 0.75631 0.50356 0.0
C4691 C 0.06457 0.77262 0.51374 0.0
C4692 C 0.04317 0.75457 0.49443 0.0
C4693 C 0.03004 0.76934 0.49491 0.0
C4694 C 0.03545 0.78658 0.50297 0.0
C4695 C 0.05243 0.78806 0.51272 0.0
C4696 C 0.00979 0.76516 0.49164 0.0
C4697 C 0.99716 0.77005 0.50602 0.0
C4698 C 0.00351 0.75335 0.47683 0.0
C4699 C 0.01544 0.74952 0.46012 0.0
C4700 C 0.02444 0.76438 0.45068 0.0
C4701 C 0.03576 0.76081 0.43503 0.0
C4702 C 0.03818 0.74242 0.42864 0.0
C4703 C 0.02926 0.72757 0.43786 0.0
C4704 C 0.01792 0.73106 0.45352 0.0
C4705 C 0.92407 0.73597 0.5023 0.0
C4706 C 0.92647 0.7252 0.51871 0.0
C4707 C 0.93974 0.74157 0.49183 0.0
C4708 C 0.95777 0.73626 0.49765 0.0
C4709 C 0.95978 0.72305 0.51214 0.0
C4710 C 0.94423 0.71767 0.52274 0.0
C4711 C 0.97399 0.74848 0.49357 0.0
C4712 C 0.98568 0.74484 0.47818 0.0
C4713 C 0.97932 0.76203 0.50701 0.0
C4714 C 0.96711 0.76654 0.5233 0.0
C4715 C 0.97252 0.76128 0.54154 0.0
C4716 C 0.9605 0.76455 0.55674 0.0
C4717 C 0.94307 0.77311 0.55386 0.0
C4718 C 0.93769 0.77857 0.53579 0.0
C4719 C 0.94968 0.77539 0.52056 0.0
H4720 H 0.93374 0.77553 0.56562 0.0
H4721 H 0.04696 0.73968 0.41653 0.0
H4722 H 0.94365 0.45235 0.7071 0.0
H4723 H 0.96035 0.48024 0.7173 0.0
H4724 H 0.0026 0.4457 0.74371 0.0
H4725 H 0.98563 0.41746 0.73369 0.0
H4726 H 0.98914 0.46946 0.768 0.0
H4727 H 0.01606 0.47722 0.7091 0.0
H4728 H 0.01898 0.47705 0.6746 0.0
H4729 H 0.97766 0.52078 0.67053 0.0
H4730 H 0.97423 0.52103 0.70495 0.0
H4731 H 0.98518 0.58149 0.7635 0.0
H4732 H 0.00319 0.55278 0.75761 0.0
H4733 H 0.95715 0.51972 0.7792 0.0
H4734 H 0.93946 0.54809 0.78545 0.0
H4735 H 0.99303 0.52924 0.73248 0.0
H4736 H 0.96731 0.47841 0.7928 0.0
H4737 H 0.96601 0.47859 0.82737 0.0
H4738 H 0.00901 0.52083 0.82912 0.0
H4739 H 0.01083 0.52072 0.79454 0.0
C4740 C 0.95674 0.45063 0.71468 0.0
C4741 C 0.96318 0.43271 0.71981 0.0
C4742 C 0.96643 0.46663 0.72035 0.0
C4743 C 0.98285 0.46511 0.73118 0.0
C4744 C 0.99002 0.44721 0.73529 0.0
C4745 C 0.98033 0.4311 0.72952 0.0
C4746 C 0.99027 0.48217 0.74056 0.0
C4747 C 0.99039 0.48253 0.76028 0.0
C4748 C 0.99295 0.49909 0.7305 0.0
C4749 C 0.99495 0.49918 0.7097 0.0
C4750 C 0.00753 0.48676 0.70086 0.0
C4751 C 0.00927 0.48665 0.6813 0.0
C4752 C 0.99853 0.49891 0.67038 0.0
C4753 C 0.98602 0.51132 0.67901 0.0
C4754 C 0.98421 0.51149 0.69857 0.0
C4755 C 0.97921 0.56812 0.76762 0.0
C4756 C 0.96076 0.56702 0.77461 0.0
C4757 C 0.98952 0.55172 0.76422 0.0
C4758 C 0.9816 0.53403 0.76797 0.0
C4759 C 0.96382 0.53312 0.77649 0.0
C4760 C 0.95355 0.54942 0.77985 0.0
C4761 C 0.98969 0.51663 0.75981 0.0
C4762 C 0.99261 0.51618 0.7403 0.0
C4763 C 0.99014 0.49963 0.77011 0.0
C4764 C 0.98924 0.49952 0.79099 0.0
C4765 C 0.97666 0.4876 0.80052 0.0
C4766 C 0.97578 0.48773 0.82014 0.0
C4767 C 0.98742 0.4997 0.83043 0.0
C4768 C -2e-05 0.51157 0.82113 0.0
C4769 C 0.00092 0.5115 0.80151 0.0
H4770 H 0.98671 0.49979 0.84562 0.0
H4771 H -0.00011 0.4988 0.65524 0.0
H4772 H 0.04064 0.06713 0.77998 0.0
H4773 H 0.0242 0.03743 0.78412 0.0
H4774 H 0.9964 0.04525 0.73081 0.0
H4775 H 0.01285 0.07536 0.72672 0.0
H4776 H 0.98896 0.02067 0.78357 0.0
H4777 H 0.00502 0.00433 0.70708 0.0
H4778 H 0.0241 0.01659 0.68077 0.0
H4779 H 0.06543 0.03682 0.71977 0.0
H4780 H 0.04676 0.02439 0.74621 0.0
H4781 H 0.01421 0.91648 0.75319 0.0
H4782 H 0.99645 0.94572 0.74864 0.0
H4783 H 0.02949 0.9724 0.79183 0.0
H4784 H 0.04767 0.94356 0.79589 0.0
H4785 H 0.01989 0.97801 0.73797 0.0
H4786 H -5e-05 0.00467 0.8129 0.0
H4787 H 0.98535 0.9921 0.84167 0.0
H4788 H 0.95722 0.94971 0.80931 0.0
H4789 H 0.9714 0.96218 0.78028 0.0
C4790 C 0.03053 0.06281 0.76945 0.0
C4791 C 0.02817 0.07325 0.75291 0.0
C4792 C 0.021 0.04594 0.7719 0.0
C4793 C 0.00924 0.03907 0.75768 0.0
C4794 C 0.00543 0.05036 0.74193 0.0
C4795 C 0.01483 0.06749 0.73959 0.0
C4796 C 0.00469 0.01882 0.75781 0.0
C4797 C 0.99536 0.01125 0.77346 0.0
C4798 C 0.01286 0.0066 0.74442 0.0
C4799 C 0.02436 0.0137 0.72858 0.0
C4800 C 0.0182 0.01136 0.70999 0.0
C4801 C 0.02895 0.01832 0.69507 0.0
C4802 C 0.04592 0.02755 0.6986 0.0
C4803 C 0.05226 0.02972 0.71705 0.0
C4804 C 0.04161 0.02271 0.732 0.0
C4805 C 0.01717 0.92841 0.76216 0.0
C4806 C 0.03229 0.92792 0.77483 0.0
C4807 C 0.00704 0.94504 0.75953 0.0
C4808 C 0.0116 0.9611 0.76999 0.0
C4809 C 0.0256 0.96005 0.78383 0.0
C4810 C 0.03602 0.94364 0.78608 0.0
C4811 C 0.00488 0.97984 0.76419 0.0
C4812 C 0.01236 0.98721 0.74752 0.0
C4813 C 0.99551 0.99182 0.77693 0.0
C4814 C 0.98678 0.98437 0.79437 0.0
C4815 C 0.99053 0.99276 0.81187 0.0
C4816 C 0.98236 0.98562 0.82824 0.0
C4817 C 0.97038 0.97011 0.82732 0.0
C4818 C 0.96653 0.9617 0.81001 0.0
C4819 C 0.97466 0.96878 0.79359 0.0
H4820 H 0.96406 0.9646 0.84001 0.0
H4821 H 0.05419 0.03298 0.68705 0.0
H4822 H 0.7405 0.98856 0.4183 0.0
H4823 H 0.7441 0.00363 0.44912 0.0
H4824 H 0.72215 0.95385 0.47589 0.0
H4825 H 0.71839 0.93899 0.44539 0.0
H4826 H 0.71403 0.98423 0.4966 0.0
H4827 H 0.76929 0.95664 0.4647 0.0
H4828 H 0.79158 0.95534 0.43813 0.0
H4829 H 0.80554 0.0134 0.44667 0.0
H4830 H 0.78319 0.01503 0.4732 0.0
H4831 H 0.78535 0.94077 0.55651 0.0
H4832 H 0.77792 0.95524 0.52646 0.0
H4833 H 0.7514 0.00163 0.55509 0.0
H4834 H 0.75875 0.98698 0.58547 0.0
H4835 H 0.78289 0.98729 0.50703 0.0
H4836 H 0.71011 0.00943 0.53086 0.0
H4837 H 0.68791 0.00422 0.55704 0.0
H4838 H 0.70943 0.94837 0.56458 0.0
H4839 H 0.73154 0.9532 0.5383 0.0
C4840 C 0.73571 0.98121 0.43073 0.0
C4841 C 0.7295 0.9625 0.42957 0.0
C4842 C 0.73784 0.98979 0.44832 0.0
C4843 C 0.73373 0.97972 0.46482 0.0
C4844 C 0.72545 0.9619 0.46339 0.0
C4845 C 0.72343 0.95334 0.44594 0.0
C4846 C 0.74121 0.98556 0.48337 0.0
C4847 C 0.72904 0.98557 0.49889 0.0
C4848 C 0.76082 0.98705 0.4864 0.0
C4849 C 0.77449 0.98601 0.47075 0.0
C4850 C 0.77711 0.96912 0.46086 0.0
C4851 C 0.78972 0.96832 0.44582 0.0
C4852 C 0.79992 0.98429 0.44068 0.0
C4853 C 0.79759 0.00105 0.45064 0.0
C4854 C 0.78496 0.00192 0.46567 0.0
C4855 C 0.77831 0.95427 0.55644 0.0
C4856 C 0.77231 0.96258 0.57329 0.0
C4857 C 0.77421 0.96263 0.53925 0.0
C4858 C 0.7639 0.9794 0.53852 0.0
C4859 C 0.75927 0.98861 0.55536 0.0
C4860 C 0.76351 0.98026 0.57268 0.0
C4861 C 0.75574 0.98517 0.52025 0.0
C4862 C 0.76781 0.98726 0.50479 0.0
C4863 C 0.73607 0.98496 0.51728 0.0
C4864 C 0.72261 0.98178 0.53283 0.0
C4865 C 0.71005 0.99604 0.5381 0.0
C4866 C 0.69749 0.99315 0.55294 0.0
C4867 C 0.69731 0.976 0.56252 0.0
C4868 C 0.70961 0.96166 0.55719 0.0
C4869 C 0.72215 0.96447 0.54233 0.0
H4870 H 0.68763 0.97382 0.57404 0.0
H4871 H 0.80965 0.98367 0.429 0.0
H4872 H 0.28309 0.5536 0.453 0.0
H4873 H 0.27687 0.53558 0.48124 0.0
H4874 H 0.25924 0.48833 0.44759 0.0
H4875 H 0.26534 0.50664 0.41895 0.0
H4876 H 0.23287 0.49725 0.47169 0.0
H4877 H 0.29608 0.48247 0.47908 0.0
H4878 H 0.33045 0.48654 0.47832 0.0
H4879 H 0.32671 0.52905 0.5209 0.0
H4880 H 0.29231 0.5255 0.52174 0.0
H4881 H 0.23905 0.50743 0.58326 0.0
H4882 H 0.24646 0.48861 0.55542 0.0
H4883 H 0.21688 0.52863 0.52076 0.0
H4884 H 0.20928 0.5471 0.54833 0.0
H4885 H 0.26917 0.50196 0.53091 0.0
H4886 H 0.20463 0.5144 0.48032 0.0
H4887 H 0.17041 0.50945 0.48112 0.0
H4888 H 0.17696 0.46856 0.52498 0.0
H4889 H 0.21128 0.47301 0.52426 0.0
C4890 C 0.27838 0.53919 0.45156 0.0
C4891 C 0.27451 0.53159 0.43381 0.0
C4892 C 0.27501 0.52879 0.46776 0.0
C4893 C 0.26772 0.51049 0.4666 0.0
C4894 C 0.26498 0.50237 0.44882 0.0
C4895 C 0.26852 0.51281 0.43249 0.0
C4896 C 0.26018 0.50167 0.48393 0.0
C4897 C 0.24084 0.49785 0.48465 0.0
C4898 C 0.27075 0.50145 0.50074 0.0
C4899 C 0.29154 0.50362 0.50053 0.0
C4900 C 0.30256 0.49273 0.48826 0.0
C4901 C 0.32207 0.49495 0.48781 0.0
C4902 C 0.33076 0.50802 0.49958 0.0
C4903 C 0.31996 0.51889 0.51184 0.0
C4904 C 0.30045 0.51672 0.51235 0.0
C4905 C 0.23343 0.51171 0.56979 0.0
C4906 C 0.22387 0.52889 0.56788 0.0
C4907 C 0.23772 0.50097 0.55387 0.0
C4908 C 0.2323 0.50716 0.53592 0.0
C4909 C 0.22101 0.52328 0.53439 0.0
C4910 C 0.21681 0.534 0.5502 0.0
C4911 C 0.24154 0.4998 0.51872 0.0
C4912 C 0.26125 0.50046 0.51799 0.0
C4913 C 0.23132 0.49688 0.50192 0.0
C4914 C 0.21063 0.494 0.50219 0.0
C4915 C 0.19885 0.50418 0.49 0.0
C4916 C 0.17939 0.50151 0.49048 0.0
C4917 C 0.17152 0.48869 0.50308 0.0
C4918 C 0.18308 0.4785 0.51523 0.0
C4919 C 0.20254 0.48111 0.51481 0.0
H4920 H 0.15645 0.48666 0.50344 0.0
H4921 H 0.34586 0.50973 0.4992 0.0
H4922 H 0.78852 0.05016 0.95757 0.0
H4923 H 0.7806 0.03049 0.98411 0.0
H4924 H 0.76162 0.98685 0.94651 0.0
H4925 H 0.76915 0.00703 0.91957 0.0
H4926 H 0.73522 0.99397 0.96924 0.0
H4927 H 0.7967 0.97723 0.98103 0.0
H4928 H 0.83118 0.97947 0.98321 0.0
H4929 H 0.82608 0.02045 0.02714 0.0
H4930 H 0.79161 0.01874 0.02505 0.0
H4931 H 0.73153 0.00361 0.08104 0.0
H4932 H 0.7421 0.98499 0.05407 0.0
H4933 H 0.71507 0.02435 0.01664 0.0
H4934 H 0.70413 0.04239 0.04325 0.0
H4935 H 0.76653 0.99675 0.03136 0.0
H4936 H 0.70648 0.01086 0.97557 0.0
H4937 H 0.67228 0.00617 0.97354 0.0
H4938 H 0.67491 0.96497 0.0175 0.0
H4939 H 0.7092 0.96914 0.01963 0.0
C4940 C 0.78318 0.03616 0.95488 0.0
C4941 C 0.77918 0.03026 0.9365 0.0
C4942 C 0.77885 0.02474 0.97014 0.0
C4943 C 0.77058 0.00703 0.96743 0.0
C4944 C 0.76803 0.00042 0.94899 0.0
C4945 C 0.77241 0.01193 0.9336 0.0
C4946 C 0.76152 0.99764 0.98377 0.0
C4947 C 0.74212 0.99416 0.98281 0.0
C4948 C 0.77065 0.99662 0.0014 0.0
C4949 C 0.79147 0.99775 0.00293 0.0
C4950 C 0.80291 0.98677 0.99112 0.0
C4951 C 0.82247 0.98795 0.99234 0.0
C4952 C 0.83081 6e-05 0.00533 0.0
C4953 C 0.8196 0.01102 0.01713 0.0
C4954 C 0.80003 0.00989 0.01598 0.0
C4955 C 0.72721 0.0078 0.06706 0.0
C4956 C 0.71727 0.02464 0.06422 0.0
C4957 C 0.73332 0.99718 0.05165 0.0
C4958 C 0.72942 0.00316 0.03323 0.0
C4959 C 0.71801 0.01906 0.0306 0.0
C4960 C 0.71193 0.02959 0.0459 0.0
C4961 C 0.73999 0.99563 0.01685 0.0
C4962 C 0.7597 0.99571 0.01779 0.0
C4963 C 0.73119 0.99301 0.99921 0.0
C4964 C 0.71052 0.99027 0.99771 0.0
C4965 C 0.69985 0.00061 0.98466 0.0
C4966 C 0.6804 0.9981 0.98354 0.0
C4967 C 0.67143 0.98527 0.99537 0.0
C4968 C 0.68188 0.97491 0.00835 0.0
C4969 C 0.70132 0.97737 0.00954 0.0
H4970 H 0.65637 0.98336 0.99449 0.0
H4971 H 0.84596 0.00097 0.00624 0.0
H4972 H 0.20863 0.44731 0.95076 0.0
H4973 H 0.21834 0.4621 0.97993 0.0
H4974 H 0.25329 0.50079 0.94895 0.0
H4975 H 0.24356 0.48577 0.91942 0.0
H4976 H 0.27321 0.48267 0.97451 0.0
H4977 H 0.21838 0.51851 0.97742 0.0
H4978 H 0.18479 0.52628 0.97426 0.0
H4979 H 0.17105 0.48575 0.01677 0.0
H4980 H 0.20449 0.4775 0.02 0.0
H4981 H 0.26207 0.48391 0.08618 0.0
H4982 H 0.25883 0.50063 0.05616 0.0
H4983 H 0.2747 0.45016 0.02656 0.0
H4984 H 0.27831 0.43373 0.05615 0.0
H4985 H 0.23359 0.4926 0.03095 0.0
H4986 H 0.29267 0.45635 0.9863 0.0
H4987 H 0.32628 0.44887 0.9898 0.0
H4988 H 0.33219 0.49282 0.03064 0.0
H4989 H 0.29865 0.50075 0.02725 0.0
C4990 C 0.21795 0.45933 0.9501 0.0
C4991 C 0.22547 0.4653 0.93287 0.0
C4992 C 0.22339 0.46791 0.9668 0.0
C4993 C 0.23648 0.48267 0.96667 0.0
C4994 C 0.24309 0.48951 0.94936 0.0
C4995 C 0.23747 0.48098 0.93252 0.0
C4996 C 0.24528 0.48833 0.9847 0.0
C4997 C 0.26465 0.48528 0.98684 0.0
C4998 C 0.23425 0.49249 0.00071 0.0
C4999 C 0.21403 0.49743 0.99899 0.0
C5000 C 0.20821 0.51119 0.98606 0.0
C5001 C 0.18917 0.51568 0.98425 0.0
C5002 C 0.1758 0.50653 0.99532 0.0
C5003 C 0.18143 0.49287 0.00824 0.0
C5004 C 0.20044 0.48832 0.0101 0.0
C5005 C 0.26541 0.47661 0.07326 0.0
C5006 C 0.2702 0.45745 0.07348 0.0
C5007 C 0.26352 0.48616 0.05613 0.0
C5008 C 0.26667 0.47674 0.03907 0.0
C5009 C 0.27258 0.45793 0.03946 0.0
C5010 C 0.27441 0.44843 0.05645 0.0
C5011 C 0.2611 0.48512 0.0208 0.0
C5012 C 0.24235 0.49085 0.01861 0.0
C5013 C 0.27275 0.48363 0.00475 0.0
C5014 C 0.29309 0.4792 0.00646 0.0
C5015 C 0.30116 0.46459 0.99587 0.0
C5016 C 0.3202 0.46021 0.99789 0.0
C5017 C 0.33136 0.47038 0.01041 0.0
C5018 C 0.32352 0.48495 0.02095 0.0
C5019 C 0.30448 0.48937 0.019 0.0
H5020 H 0.3461 0.46696 0.01195 0.0
H5021 H 0.16107 0.51002 0.99389 0.0
H5022 H 0.44417 0.70044 0.93969 0.0
H5023 H 0.47485 0.70337 0.954 0.0
H5024 H 0.4509 0.73627 0.99901 0.0
H5025 H 0.41989 0.7337 0.98416 0.0
H5026 H 0.47633 0.75561 0.98245 0.0
H5027 H 0.47842 0.69537 0.00857 0.0
H5028 H 0.47338 0.66123 0.01135 0.0
H5029 H 0.50988 0.65168 0.96429 0.0
H5030 H 0.51496 0.68574 0.96103 0.0
H5031 H 0.57639 0.77541 0.97941 0.0
H5032 H 0.54758 0.76313 0.99408 0.0
H5033 H 0.53541 0.73177 0.9437 0.0
H5034 H 0.5637 0.74416 0.92892 0.0
H5035 H 0.52995 0.7113 0.979 0.0
H5036 H 0.51554 0.77167 0.94765 0.0
H5037 H 0.51982 0.80585 0.94386 0.0
H5038 H 0.50592 0.81428 0.00197 0.0
H5039 H 0.5018 0.78007 0.00612 0.0
C5040 C 0.44531 0.70768 0.95302 0.0
C5041 C 0.42978 0.71709 0.96066 0.0
C5042 C 0.46289 0.70921 0.96137 0.0
C5043 C 0.46531 0.72005 0.97768 0.0
C5044 C 0.44939 0.72782 0.98645 0.0
C5045 C 0.43167 0.72627 0.97802 0.0
C5046 C 0.48456 0.72641 0.98264 0.0
C5047 C 0.48803 0.74585 0.98252 0.0
C5048 C 0.49994 0.71379 0.9827 0.0
C5049 C 0.49712 0.69319 0.98461 0.0
C5050 C 0.48534 0.68601 0.99877 0.0
C5051 C 0.48247 0.66665 0.00043 0.0
C5052 C 0.49132 0.6543 0.98802 0.0
C5053 C 0.50308 0.66127 0.97394 0.0
C5054 C 0.50601 0.68061 0.97221 0.0
C5055 C 0.56757 0.76583 0.97154 0.0
C5056 C 0.57214 0.7609 0.95295 0.0
C5057 C 0.55123 0.75878 0.97996 0.0
C5058 C 0.53953 0.74644 0.96999 0.0
C5059 C 0.54439 0.74113 0.95167 0.0
C5060 C 0.56043 0.74841 0.94316 0.0
C5061 C 0.52128 0.74019 0.97761 0.0
C5062 C 0.51816 0.72089 0.98003 0.0
C5063 C 0.5062 0.75287 0.97978 0.0
C5064 C 0.50864 0.77336 0.97726 0.0
C5065 C 0.51357 0.78082 0.95965 0.0
C5066 C 0.51593 0.80018 0.95742 0.0
C5067 C 0.51321 0.81223 0.97268 0.0
C5068 C 0.50807 0.80493 0.99018 0.0
C5069 C 0.50573 0.78556 0.99248 0.0
H5070 H 0.51503 0.82722 0.97093 0.0
H5071 H 0.48907 0.63932 0.98932 0.0
H5072 H 0.41701 0.26338 0.50604 0.0
H5073 H 0.44407 0.251 0.48881 0.0
H5074 H 0.48052 0.28886 0.51879 0.0
H5075 H 0.4537 0.30103 0.53624 0.0
H5076 H 0.48989 0.26827 0.47455 0.0
H5077 H 0.48782 0.25629 0.55044 0.0
H5078 H 0.46527 0.25277 0.57661 0.0
H5079 H 0.42875 0.22044 0.54113 0.0
H5080 H 0.4512 0.22367 0.51484 0.0
H5081 H 0.57709 0.25082 0.51519 0.0
H5082 H 0.54748 0.258 0.49967 0.0
H5083 H 0.52679 0.20265 0.51359 0.0
H5084 H 0.556 0.19619 0.53052 0.0
H5085 H 0.50485 0.22513 0.52724 0.0
H5086 H 0.52883 0.22192 0.4657 0.0
H5087 H 0.55094 0.22651 0.43945 0.0
H5088 H 0.5439 0.28625 0.44348 0.0
H5089 H 0.52196 0.28208 0.46993 0.0
C5090 C 0.43063 0.26985 0.50813 0.0
C5091 C 0.43341 0.28285 0.52273 0.0
C5092 C 0.44607 0.26281 0.49819 0.0
C5093 C 0.46426 0.2689 0.50271 0.0
C5094 C 0.46656 0.28406 0.51506 0.0
C5095 C 0.45124 0.29091 0.52515 0.0
C5096 C 0.4803 0.256 0.50041 0.0
C5097 C 0.49321 0.2585 0.48576 0.0
C5098 C 0.48422 0.243 0.51484 0.0
C5099 C 0.47113 0.24021 0.53077 0.0
C5100 C 0.47504 0.2483 0.54832 0.0
C5101 C 0.46228 0.2464 0.56313 0.0
C5102 C 0.4456 0.23637 0.56054 0.0
C5103 C 0.44168 0.22818 0.54313 0.0
C5104 C 0.45442 0.23001 0.52829 0.0
C5105 C 0.56647 0.23995 0.51422 0.0
C5106 C 0.56866 0.22301 0.524 0.0
C5107 C 0.54952 0.24399 0.50521 0.0
C5108 C 0.53471 0.2309 0.50539 0.0
C5109 C 0.53787 0.21307 0.51335 0.0
C5110 C 0.55458 0.20931 0.52293 0.0
C5111 C 0.51518 0.23723 0.50131 0.0
C5112 C 0.50155 0.23389 0.51521 0.0
C5113 C 0.51058 0.24899 0.48585 0.0
C5114 C 0.52373 0.25166 0.46986 0.0
C5115 C 0.53206 0.23605 0.46107 0.0
C5116 C 0.54457 0.23858 0.44613 0.0
C5117 C 0.54883 0.25666 0.4398 0.0
C5118 C 0.54057 0.27225 0.44838 0.0
C5119 C 0.52805 0.26981 0.46332 0.0
H5120 H 0.55852 0.25858 0.42824 0.0
H5121 H 0.43574 0.23495 0.57201 0.0
H5122 H 0.92578 0.22852 0.48839 0.0
H5123 H 0.95761 0.23594 0.49927 0.0
H5124 H 0.98069 0.20434 0.45295 0.0
H5125 H 0.94925 0.19637 0.44255 0.0
H5126 H 0.00417 0.20284 0.4808 0.0
H5127 H 0.96827 0.25227 0.4491 0.0
H5128 H 0.94152 0.27414 0.44637 0.0
H5129 H 0.95569 0.29855 0.49968 0.0
H5130 H 0.98241 0.27663 0.5028 0.0
H5131 H 0.06684 0.25207 0.42495 0.0
H5132 H 0.03878 0.23952 0.43988 0.0
H5133 H 0.05345 0.26723 0.49168 0.0
H5134 H 0.08215 0.27969 0.47684 0.0
H5135 H 0.01322 0.27167 0.47452 0.0
H5136 H 0.05744 0.22628 0.49686 0.0
H5137 H 0.08437 0.20471 0.49389 0.0
H5138 H 0.05464 0.17278 0.45228 0.0
H5139 H 0.02764 0.19432 0.45476 0.0
C5140 C 0.93766 0.22259 0.48098 0.0
C5141 C 0.93504 0.21228 0.46434 0.0
C5142 C 0.95585 0.22694 0.48714 0.0
C5143 C 0.97155 0.22116 0.47661 0.0
C5144 C 0.96886 0.20911 0.46125 0.0
C5145 C 0.95081 0.20468 0.45521 0.0
C5146 C 0.99038 0.22973 0.47932 0.0
C5147 C 0.00617 0.21791 0.47975 0.0
C5148 C 0.99305 0.24944 0.47822 0.0
C5149 C 0.97713 0.26269 0.4763 0.0
C5150 C 0.9656 0.26225 0.46027 0.0
C5151 C 0.95046 0.27464 0.45865 0.0
C5152 C 0.94686 0.28768 0.47287 0.0
C5153 C 0.95845 0.2884 0.48871 0.0
C5154 C 0.97359 0.27599 0.49042 0.0
C5155 C 0.06414 0.25563 0.43949 0.0
C5156 C 0.07668 0.26697 0.4497 0.0
C5157 C 0.04816 0.24831 0.44804 0.0
C5158 C 0.04422 0.25233 0.46688 0.0
C5159 C 0.05642 0.26391 0.47714 0.0
C5160 C 0.07273 0.271 0.46865 0.0
C5161 C 0.02681 0.2447 0.47519 0.0
C5162 C 0.01129 0.25669 0.47664 0.0
C5163 C 0.02436 0.22513 0.47742 0.0
C5164 C 0.04049 0.21195 0.47602 0.0
C5165 C 0.05667 0.21472 0.48701 0.0
C5166 C 0.07195 0.20248 0.48543 0.0
C5167 C 0.07119 0.18735 0.47296 0.0
C5168 C 0.05516 0.18445 0.46202 0.0
C5169 C 0.03986 0.19666 0.46352 0.0
H5170 H 0.08305 0.17792 0.47172 0.0
H5171 H 0.93513 0.29727 0.4716 0.0
H5172 H 0.51104 0.07753 0.76068 0.0
H5173 H 0.49404 0.04769 0.75815 0.0
H5174 H 0.54198 0.01869 0.7814 0.0
H5175 H 0.55861 0.04824 0.7843 0.0
H5176 H 0.50544 0.02323 0.73451 0.0
H5177 H 0.53464 0.97776 0.79719 0.0
H5178 H 0.5368 0.9803 0.83162 0.0
H5179 H 0.49143 0.02001 0.83191 0.0
H5180 H 0.48877 0.01753 0.79747 0.0
H5181 H 0.55715 0.94596 0.71295 0.0
H5182 H 0.54059 0.97424 0.72253 0.0
H5183 H 0.4984 0.94056 0.75015 0.0
H5184 H 0.51516 0.91196 0.74064 0.0
H5185 H 0.51257 0.966 0.77356 0.0
H5186 H 0.48457 0.96925 0.71439 0.0
H5187 H 0.48171 0.96689 0.67997 0.0
H5188 H 0.52169 0.01154 0.6732 0.0
H5189 H 0.52505 0.01399 0.70755 0.0
C5190 C 0.51755 0.06487 0.76606 0.0
C5191 C 0.53625 0.0651 0.77239 0.0
C5192 C 0.50785 0.04781 0.76453 0.0
C5193 C 0.51669 0.03086 0.76951 0.0
C5194 C 0.53462 0.03149 0.77773 0.0
C5195 C 0.54426 0.04843 0.77922 0.0
C5196 C 0.50954 0.01253 0.76255 0.0
C5197 C 0.50654 0.01072 0.74313 0.0
C5198 C 0.51015 0.99618 0.77385 0.0
C5199 C 0.51146 0.9974 0.79467 0.0
C5200 C 0.52496 0.98687 0.80457 0.0
C5201 C 0.52632 0.98836 0.82411 0.0
C5202 C 0.51425 0.0003 0.83395 0.0
C5203 C 0.50078 0.01078 0.82427 0.0
C5204 C 0.49936 0.00936 0.80473 0.0
C5205 C 0.54414 0.94453 0.72072 0.0
C5206 C 0.53756 0.92677 0.72622 0.0
C5207 C 0.53455 0.96072 0.72604 0.0
C5208 C 0.51814 0.95954 0.73695 0.0
C5209 C 0.51096 0.94178 0.74164 0.0
C5210 C 0.52051 0.92548 0.73615 0.0
C5211 C 0.51046 0.97694 0.74543 0.0
C5212 C 0.51061 0.97851 0.76509 0.0
C5213 C 0.507 0.99307 0.73438 0.0
C5214 C 0.50501 0.99183 0.71363 0.0
C5215 C 0.49282 0.97852 0.70558 0.0
C5216 C 0.4911 0.97717 0.68606 0.0
C5217 C 0.50149 0.98907 0.67441 0.0
C5218 C 0.51361 0.00236 0.68225 0.0
C5219 C 0.51538 0.00377 0.70176 0.0
H5220 H 0.50015 0.98799 0.6593 0.0
H5221 H 0.51535 0.00144 0.84907 0.0
H5222 H 0.45571 0.5446 0.70339 0.0
H5223 H 0.47024 0.51519 0.71258 0.0
H5224 H 0.51114 0.54545 0.74552 0.0
H5225 H 0.49614 0.57513 0.73675 0.0
H5226 H 0.50017 0.49379 0.71727 0.0
H5227 H 0.51043 0.5272 0.78835 0.0
H5228 H 0.50306 0.55656 0.80535 0.0
H5229 H 0.45158 0.56192 0.77435 0.0
H5230 H 0.45857 0.53249 0.7574 0.0
H5231 H 0.48546 0.41234 0.77387 0.0
H5232 H 0.50262 0.44072 0.76455 0.0
H5233 H 0.45309 0.47399 0.77525 0.0
H5234 H 0.43617 0.44608 0.78498 0.0
H5235 H 0.48274 0.49325 0.78477 0.0
H5236 H 0.46344 0.45487 0.73079 0.0
H5237 H 0.46403 0.42599 0.71164 0.0
H5238 H 0.52388 0.43081 0.70571 0.0
H5239 H 0.52363 0.45963 0.72502 0.0
C5240 C 0.4683 0.54507 0.71195 0.0
C5241 C 0.4744 0.56205 0.71991 0.0
C5242 C 0.47672 0.5282 0.71712 0.0
C5243 C 0.49136 0.52808 0.73031 0.0
C5244 C 0.49957 0.54523 0.73565 0.0
C5245 C 0.49103 0.56221 0.73055 0.0
C5246 C 0.49415 0.51075 0.74158 0.0
C5247 C 0.49698 0.49365 0.73218 0.0
C5248 C 0.48971 0.5105 0.761 0.0
C5249 C 0.48513 0.52783 0.77152 0.0
C5250 C 0.49752 0.53463 0.78526 0.0
C5251 C 0.49341 0.55127 0.79487 0.0
C5252 C 0.47689 0.56113 0.79089 0.0
C5253 C 0.46437 0.55429 0.77741 0.0
C5254 C 0.46838 0.53763 0.76783 0.0
C5255 C 0.47838 0.42577 0.77463 0.0
C5256 C 0.45933 0.42688 0.77989 0.0
C5257 C 0.48819 0.44196 0.76924 0.0
C5258 C 0.47907 0.45946 0.76895 0.0
C5259 C 0.46047 0.46068 0.77537 0.0
C5260 C 0.45073 0.44462 0.78081 0.0
C5261 C 0.48773 0.4763 0.7602 0.0
C5262 C 0.4871 0.4933 0.77015 0.0
C5263 C 0.4934 0.47645 0.74112 0.0
C5264 C 0.49355 0.4592 0.72953 0.0
C5265 C 0.47673 0.44968 0.72549 0.0
C5266 C 0.477 0.43335 0.71461 0.0
C5267 C 0.49399 0.42653 0.70752 0.0
C5268 C 0.51074 0.43607 0.71126 0.0
C5269 C 0.51054 0.4524 0.72217 0.0
H5270 H 0.49417 0.41388 0.69909 0.0
H5271 H 0.47379 0.57404 0.79829 0.0
H5272 H 0.05266 0.2177 0.94047 0.0
H5273 H 0.02444 0.22623 0.95719 0.0
H5274 H 0.05719 0.23974 0.00641 0.0
H5275 H 0.08604 0.23197 0.9892 0.0
H5276 H 0.00488 0.21753 0.98564 0.0
H5277 H 0.03638 0.27686 0.02786 0.0
H5278 H 0.06489 0.2966 0.02942 0.0
H5279 H 0.07133 0.29256 0.96956 0.0
H5280 H 0.04279 0.27294 0.96768 0.0
H5281 H 0.92196 0.26812 0.99052 0.0
H5282 H 0.94987 0.25724 0.00755 0.0
H5283 H 0.98503 0.28957 0.97015 0.0
H5284 H 0.95741 0.3007 0.95361 0.0
H5285 H 0.00274 0.28521 0.00192 0.0
H5286 H 0.96802 0.24491 0.95764 0.0
H5287 H 0.9398 0.22743 0.94762 0.0
H5288 H 0.94061 0.19604 0.99915 0.0
H5289 H 0.96871 0.21359 0.00957 0.0
C5290 C 0.054 0.22229 0.95491 0.0
C5291 C 0.07173 0.2246 0.9633 0.0
C5292 C 0.03771 0.22699 0.96459 0.0
C5293 C 0.0386 0.23392 0.98303 0.0
C5294 C 0.05615 0.23475 0.99208 0.0
C5295 C 0.07262 0.23027 0.98223 0.0
C5296 C 0.02133 0.2423 0.99127 0.0
C5297 C 0.00445 0.23219 0.98976 0.0
C5298 C 0.02064 0.26143 0.99673 0.0
C5299 C 0.03767 0.27328 0.99769 0.0
C5300 C 0.04391 0.28021 0.01506 0.0
C5301 C 0.06005 0.29137 0.01599 0.0
C5302 C 0.06996 0.29577 -0.00039 0.0
C5303 C 0.06369 0.28909 0.98224 0.0
C5304 C 0.04754 0.27797 0.98124 0.0
C5305 C 0.9356 0.27358 0.98657 0.0
C5306 C 0.93764 0.28486 0.97048 0.0
C5307 C 0.95155 0.26729 0.99625 0.0
C5308 C 0.96958 0.27215 0.9898 0.0
C5309 C 0.97132 0.28548 0.97537 0.0
C5310 C 0.9555 0.29176 0.96578 0.0
C5311 C 0.9864 0.26081 0.99466 0.0
C5312 C 0.00317 0.27026 0.99895 0.0
C5313 C 0.98704 0.24132 0.99068 0.0
C5314 C 0.97025 0.23071 0.98449 0.0
C5315 C 0.9621 0.23434 0.96686 0.0
C5316 C 0.94615 0.22444 0.96111 0.0
C5317 C 0.93838 0.21068 0.97277 0.0
C5318 C 0.9466 0.20676 0.99017 0.0
C5319 C 0.96252 0.2167 0.99603 0.0
H5320 H 0.92603 0.20304 0.96829 0.0
H5321 H 0.08246 0.30438 0.00036 0.0
H5322 H 0.44518 0.05216 0.29285 0.0
H5323 H 0.46197 0.02328 0.28607 0.0
H5324 H 0.50057 0.0537 0.25052 0.0
H5325 H 0.48359 0.08298 0.25739 0.0
H5326 H 0.48365 0.02553 0.23202 0.0
H5327 H 0.51892 0.02862 0.28725 0.0
H5328 H 0.52613 0.03506 0.32048 0.0
H5329 H 0.48677 0.99271 0.33764 0.0
H5330 H 0.47906 0.98619 0.30456 0.0
H5331 H 0.47998 0.92578 0.21348 0.0
H5332 H 0.498 0.95385 0.2229 0.0
H5333 H 0.45573 0.96676 0.2644 0.0
H5334 H 0.43768 0.93935 0.25481 0.0
H5335 H 0.49413 0.97306 0.27664 0.0
H5336 H 0.45031 0.98504 0.22298 0.0
H5337 H 0.44067 0.97916 0.19019 0.0
H5338 H 0.49606 0.99355 0.17105 0.0
H5339 H 0.50605 0.99927 0.20379 0.0
C5340 C 0.45754 0.05281 0.28399 0.0
C5341 C 0.46298 0.06972 0.27548 0.0
C5342 C 0.4673 0.0363 0.28027 0.0
C5343 C 0.48269 0.03633 0.26792 0.0
C5344 C 0.48886 0.05342 0.26024 0.0
C5345 C 0.47917 0.07009 0.26417 0.0
C5346 C 0.48963 0.01806 0.26078 0.0
C5347 C 0.48682 0.01415 0.24166 0.0
C5348 C 0.49386 0.00319 0.27328 0.0
C5349 C 0.49849 0.00685 0.29332 0.0
C5350 C 0.51175 0.02071 0.29809 0.0
C5351 C 0.51592 0.02438 0.31693 0.0
C5352 C 0.50694 0.01428 0.33116 0.0
C5353 C 0.49376 0.00048 0.32659 0.0
C5354 C 0.48953 0.99675 0.30778 0.0
C5355 C 0.4748 0.93452 0.22481 0.0
C5356 C 0.4574 0.93065 0.2333 0.0
C5357 C 0.48509 0.95042 0.2302 0.0
C5358 C 0.47822 0.96224 0.24442 0.0
C5359 C 0.46137 0.95769 0.25354 0.0
C5360 C 0.45096 0.94218 0.24792 0.0
C5361 C 0.48666 0.98074 0.24841 0.0
C5362 C 0.4923 0.98461 0.26688 0.0
C5363 C 0.48501 0.99561 0.23538 0.0
C5364 C 0.47897 0.99235 0.21576 0.0
C5365 C 0.46044 0.98683 0.21176 0.0
C5366 C 0.45492 0.98354 0.19321 0.0
C5367 C 0.46777 0.98593 0.17855 0.0
C5368 C 0.48615 0.99166 0.18242 0.0
C5369 C 0.49175 0.99491 0.20097 0.0
H5370 H 0.46347 0.98338 0.16419 0.0
H5371 H 0.51017 0.01716 0.34573 0.0
H5372 H 0.51522 0.41884 0.23413 0.0
H5373 H 0.50509 0.44839 0.21964 0.0
H5374 H 0.52084 0.4783 0.26986 0.0
H5375 H 0.53146 0.44898 0.28408 0.0
H5376 H 0.4857 0.4882 0.22895 0.0
H5377 H 0.55934 0.49844 0.25616 0.0
H5378 H 0.58662 0.47957 0.26633 0.0
H5379 H 0.57273 0.43715 0.22577 0.0
H5380 H 0.54549 0.45587 0.2153 0.0
H5381 H 0.51961 0.58175 0.22854 0.0
H5382 H 0.50595 0.55041 0.23041 0.0
H5383 H 0.54628 0.53043 0.18974 0.0
H5384 H 0.56064 0.56156 0.1887 0.0
H5385 H 0.55048 0.51228 0.21962 0.0
H5386 H 0.4965 0.52685 0.18354 0.0
H5387 H 0.46886 0.54486 0.17307 0.0
H5388 H 0.44313 0.53745 0.22712 0.0
H5389 H 0.47073 0.51962 0.23804 0.0
C5390 C 0.51538 0.43157 0.24246 0.0
C5391 C 0.52418 0.43182 0.26011 0.0
C5392 C 0.50956 0.44844 0.23419 0.0
C5393 C 0.51246 0.46548 0.24363 0.0
C5394 C 0.51847 0.46525 0.2624 0.0
C5395 C 0.52457 0.44851 0.27051 0.0
C5396 C 0.51518 0.48291 0.23274 0.0
C5397 C 0.49978 0.49356 0.2267 0.0
C5398 C 0.5336 0.48946 0.22937 0.0
C5399 C 0.55037 0.47848 0.23505 0.0
C5400 C 0.56221 0.48515 0.24935 0.0
C5401 C 0.57763 0.47447 0.25519 0.0
C5402 C 0.5814 0.45716 0.24672 0.0
C5403 C 0.5698 0.45055 0.23233 0.0
C5404 C 0.55435 0.46116 0.22646 0.0
C5405 C 0.52509 0.57083 0.21947 0.0
C5406 C 0.54135 0.57393 0.20872 0.0
C5407 C 0.51718 0.55289 0.22045 0.0
C5408 C 0.52514 0.53794 0.21032 0.0
C5409 C 0.53999 0.54168 0.19783 0.0
C5410 C 0.54819 0.55946 0.19722 0.0
C5411 C 0.52095 0.51824 0.2158 0.0
C5412 C 0.53626 0.50702 0.22115 0.0
C5413 C 0.50243 0.51122 0.2181 0.0
C5414 C 0.48577 0.52196 0.21164 0.0
C5415 C 0.48502 0.52917 0.19325 0.0
C5416 C 0.46934 0.53933 0.18722 0.0
C5417 C 0.45426 0.54232 0.19943 0.0
C5418 C 0.45482 0.53512 0.21768 0.0
C5419 C 0.47047 0.52495 0.22378 0.0
H5420 H 0.44213 0.55019 0.19473 0.0
H5421 H 0.59329 0.44888 0.25131 0.0
H5422 H 0.07926 0.7356 0.01762 0.0
H5423 H 0.04918 0.74641 0.00455 0.0
H5424 H 0.02001 0.70471 0.03751 0.0
H5425 H 0.04985 0.69399 0.05052 0.0
H5426 H 0.00312 0.71108 0.00226 0.0
H5427 H 0.02789 0.74619 0.05672 0.0
H5428 H 0.05212 0.76569 0.07206 0.0
H5429 H 0.04765 0.80649 0.02783 0.0
H5430 H 0.02355 0.78707 0.01214 0.0
H5431 H 0.9303 0.73135 0.06021 0.0
H5432 H 0.95862 0.72489 0.04222 0.0
H5433 H 0.95276 0.77793 0.01342 0.0
H5434 H 0.92377 0.78432 0.03143 0.0
H5435 H 0.98771 0.77252 0.03133 0.0
H5436 H 0.95181 0.74049 0.98616 0.0
H5437 H 0.92652 0.7201 0.97418 0.0
H5438 H 0.95072 0.67277 0.00264 0.0
H5439 H 0.97603 0.69287 0.01501 0.0
C5440 C 0.06645 0.72838 0.02153 0.0
C5441 C 0.06673 0.71417 0.03524 0.0
C5442 C 0.04932 0.73457 0.01411 0.0
C5443 C 0.0324 0.72644 0.02018 0.0
C5444 C 0.03291 0.71113 0.03258 0.0
C5445 C 0.04992 0.70512 0.04014 0.0
C5446 C 0.01406 0.73544 0.01638 0.0
C5447 C -0.00029 0.72466 0.00827 0.0
C5448 C 0.0098 0.75341 0.02372 0.0
C5449 C 0.02416 0.76511 0.03316 0.0
C5450 C 0.0322 0.75926 0.05023 0.0
C5451 C 0.04588 0.77029 0.05898 0.0
C5452 C 0.05147 0.78728 0.05089 0.0
C5453 C 0.04335 0.7933 0.03405 0.0
C5454 C 0.02969 0.78229 0.02522 0.0
C5455 C 0.93485 0.74148 0.04978 0.0
C5456 C 0.92504 0.75835 0.04722 0.0
C5457 C 0.95092 0.73771 0.03937 0.0
C5458 C 0.95767 0.75082 0.02631 0.0
C5459 C 0.94761 0.76755 0.02328 0.0
C5460 C 0.93115 0.77118 0.03352 0.0
C5461 C 0.97653 0.74768 0.01816 0.0
C5462 C 0.9911 0.75949 0.02418 0.0
C5463 C 0.98092 0.73058 0.00906 0.0
C5464 C 0.96589 0.71823 0.00147 0.0
C5465 C 0.95172 0.72574 0.98991 0.0
C5466 C 0.93738 0.71423 0.98305 0.0
C5467 C 0.93703 0.69515 0.98762 0.0
C5468 C 0.95105 0.68754 0.99906 0.0
C5469 C 0.96544 0.69898 0.00595 0.0
H5470 H 0.9259 0.68626 0.98232 0.0
H5471 H 0.06206 0.79581 0.05769 0.0
loop_
_geom_bond_atom_site_label_1
_geom_bond_atom_site_label_2
_geom_bond_distance
_geom_bond_site_symmetry_2
_ccdc_geom_bond_type
Co0 O1 2.216 . S
Co0 O2 2.091 . S
Co0 O4 2.004 . S
Co0 O10 2.021 . S
Co0 O12 2.137 . S
Co0 O13 2.244 . S
O1 Co0 2.216 . S
O1 C8 1.247 . S
O2 Co0 2.091 . S
O2 C8 1.261 . S
C3 O12 1.247 . S
C3 O13 1.272 . S
O4 Co0 2.004 . S
O4 C9 1.259 . S
Co5 O6 2.061 . S
Co5 O11 2.052 . S
Co5 O13 2.135 . S
O6 Co5 2.061 . S
O6 C9 1.235 . S
C7 O10 1.238 . S
C7 O11 1.241 . S
C8 O1 1.247 . S
C8 O2 1.261 . S
C9 O4 1.259 . S
C9 O6 1.235 . S
O10 Co0 2.021 . S
O10 C7 1.238 . S
O11 Co5 2.052 . S
O11 C7 1.241 . S
O12 Co0 2.137 . S
O12 C3 1.247 . S
O13 Co0 2.244 . S
O13 C3 1.272 . S
O13 Co5 2.135 . S
Co14 O15 2.216 . S
Co14 O16 2.091 . S
Co14 O18 2.004 . S
Co14 O24 2.021 . S
Co14 O26 2.137 . S
Co14 O27 2.244 . S
O15 Co14 2.216 . S
O15 C22 1.247 . S
O16 Co14 2.091 . S
O16 C22 1.261 . S
C17 O26 1.247 . S
C17 O27 1.272 . S
O18 Co14 2.004 . S
O18 C23 1.259 . S
Co19 O20 2.061 . S
Co19 O25 2.052 . S
Co19 O27 2.135 . S
O20 Co19 2.061 . S
O20 C23 1.235 . S
C21 O24 1.238 . S
C21 O25 1.241 . S
C22 O15 1.247 . S
C22 O16 1.261 . S
C23 O18 1.259 . S
C23 O20 1.235 . S
O24 Co14 2.021 . S
O24 C21 1.238 . S
O25 Co19 2.052 . S
O25 C21 1.241 . S
O26 Co14 2.137 . S
O26 C17 1.247 . S
O27 Co14 2.244 . S
O27 C17 1.272 . S
O27 Co19 2.135 . S
Co28 O29 2.216 . S
Co28 O30 2.091 . S
Co28 O32 2.004 . S
Co28 O38 2.021 . S
Co28 O40 2.137 . S
Co28 O41 2.244 . S
O29 Co28 2.216 . S
O29 C36 1.247 . S
O30 Co28 2.091 . S
O30 C36 1.261 . S
C31 O40 1.247 . S
C31 O41 1.272 . S
O32 Co28 2.004 . S
O32 C37 1.259 . S
Co33 O34 2.061 . S
Co33 O39 2.052 . S
Co33 O41 2.135 . S
O34 Co33 2.061 . S
O34 C37 1.235 . S
C35 O38 1.238 . S
C35 O39 1.241 . S
C36 O29 1.247 . S
C36 O30 1.261 . S
C37 O32 1.259 . S
C37 O34 1.235 . S
O38 Co28 2.021 . S
O38 C35 1.238 . S
O39 Co33 2.052 . S
O39 C35 1.241 . S
O40 Co28 2.137 . S
O40 C31 1.247 . S
O41 Co28 2.244 . S
O41 C31 1.272 . S
O41 Co33 2.135 . S
Co42 O43 2.216 . S
Co42 O44 2.091 . S
Co42 O46 2.004 . S
Co42 O52 2.021 . S
Co42 O54 2.137 . S
Co42 O55 2.244 . S
O43 Co42 2.216 . S
O43 C50 1.247 . S
O44 Co42 2.091 . S
O44 C50 1.261 . S
C45 O54 1.247 . S
C45 O55 1.272 . S
O46 Co42 2.004 . S
O46 C51 1.259 . S
Co47 O48 2.061 . S
Co47 O53 2.052 . S
Co47 O55 2.135 . S
O48 Co47 2.061 . S
O48 C51 1.235 . S
C49 O52 1.238 . S
C49 O53 1.241 . S
C50 O43 1.247 . S
C50 O44 1.261 . S
C51 O46 1.259 . S
C51 O48 1.235 . S
O52 Co42 2.021 . S
O52 C49 1.238 . S
O53 Co47 2.052 . S
O53 C49 1.241 . S
O54 Co42 2.137 . S
O54 C45 1.247 . S
O55 Co42 2.244 . S
O55 C45 1.272 . S
O55 Co47 2.135 . S
Co56 O57 2.216 . S
Co56 O58 2.091 . S
Co56 O60 2.004 . S
Co56 O66 2.021 . S
Co56 O68 2.137 . S
Co56 O69 2.244 . S
O57 Co56 2.216 . S
O57 C64 1.247 . S
O58 Co56 2.091 . S
O58 C64 1.261 . S
C59 O68 1.247 . S
C59 O69 1.272 . S
O60 Co56 2.004 . S
O60 C65 1.259 . S
Co61 O62 2.061 . S
Co61 O67 2.052 . S
Co61 O69 2.135 . S
O62 Co61 2.061 . S
O62 C65 1.235 . S
C63 O66 1.238 . S
C63 O67 1.241 . S
C64 O57 1.247 . S
C64 O58 1.261 . S
C65 O60 1.259 . S
C65 O62 1.235 . S
O66 Co56 2.021 . S
O66 C63 1.238 . S
O67 Co61 2.052 . S
O67 C63 1.241 . S
O68 Co56 2.137 . S
O68 C59 1.247 . S
O69 Co56 2.244 . S
O69 C59 1.272 . S
O69 Co61 2.135 . S
Co70 O71 2.216 . S
Co70 O72 2.091 . S
Co70 O74 2.004 . S
Co70 O80 2.021 . S
Co70 O82 2.137 . S
Co70 O83 2.244 . S
O71 Co70 2.216 . S
O71 C78 1.247 . S
O72 Co70 2.091 . S
O72 C78 1.261 . S
C73 O82 1.247 . S
C73 O83 1.272 . S
O74 Co70 2.004 . S
O74 C79 1.259 . S
Co75 O76 2.061 . S
Co75 O81 2.052 . S
Co75 O83 2.135 . S
O76 Co75 2.061 . S
O76 C79 1.235 . S
C77 O80 1.238 . S
C77 O81 1.241 . S
C78 O71 1.247 . S
C78 O72 1.261 . S
C79 O74 1.259 . S
C79 O76 1.235 . S
O80 Co70 2.021 . S
O80 C77 1.238 . S
O81 Co75 2.052 . S
O81 C77 1.241 . S
O82 Co70 2.137 . S
O82 C73 1.247 . S
O83 Co70 2.244 . S
O83 C73 1.272 . S
O83 Co75 2.135 . S
Co84 O85 2.216 . S
Co84 O86 2.091 . S
Co84 O88 2.004 . S
Co84 O94 2.021 . S
Co84 O96 2.137 . S
Co84 O97 2.244 . S
O85 Co84 2.216 . S
O85 C92 1.247 . S
O86 Co84 2.091 . S
O86 C92 1.261 . S
C87 O96 1.247 . S
C87 O97 1.272 . S
O88 Co84 2.004 . S
O88 C93 1.259 . S
Co89 O90 2.061 . S
Co89 O95 2.052 . S
Co89 O97 2.135 . S
O90 Co89 2.061 . S
O90 C93 1.235 . S
C91 O94 1.238 . S
C91 O95 1.241 . S
C92 O85 1.247 . S
C92 O86 1.261 . S
C93 O88 1.259 . S
C93 O90 1.235 . S
O94 Co84 2.021 . S
O94 C91 1.238 . S
O95 Co89 2.052 . S
O95 C91 1.241 . S
O96 Co84 2.137 . S
O96 C87 1.247 . S
O97 Co84 2.244 . S
O97 C87 1.272 . S
O97 Co89 2.135 . S
Co98 O99 2.216 . S
Co98 O100 2.091 . S
Co98 O102 2.004 . S
Co98 O108 2.021 . S
Co98 O110 2.137 . S
Co98 O111 2.244 . S
O99 Co98 2.216 . S
O99 C106 1.247 . S
O100 Co98 2.091 . S
O100 C106 1.261 . S
C101 O110 1.247 . S
C101 O111 1.272 . S
O102 Co98 2.004 . S
O102 C107 1.259 . S
Co103 O104 2.061 . S
Co103 O109 2.052 . S
Co103 O111 2.135 . S
O104 Co103 2.061 . S
O104 C107 1.235 . S
C105 O108 1.238 . S
C105 O109 1.241 . S
C106 O99 1.247 . S
C106 O100 1.261 . S
C107 O102 1.259 . S
C107 O104 1.235 . S
O108 Co98 2.021 . S
O108 C105 1.238 . S
O109 Co103 2.052 . S
O109 C105 1.241 . S
O110 Co98 2.137 . S
O110 C101 1.247 . S
O111 Co98 2.244 . S
O111 C101 1.272 . S
O111 Co103 2.135 . S
Co112 O113 2.216 . S
Co112 O114 2.091 . S
Co112 O116 2.004 . S
Co112 O122 2.021 . S
Co112 O124 2.137 . S
Co112 O125 2.244 . S
O113 Co112 2.216 . S
O113 C120 1.247 . S
O114 Co112 2.091 . S
O114 C120 1.261 . S
C115 O124 1.247 . S
C115 O125 1.272 . S
O116 Co112 2.004 . S
O116 C121 1.259 . S
Co117 O118 2.061 . S
Co117 O123 2.052 . S
Co117 O125 2.135 . S
O118 Co117 2.061 . S
O118 C121 1.235 . S
C119 O122 1.238 . S
C119 O123 1.241 . S
C120 O113 1.247 . S
C120 O114 1.261 . S
C121 O116 1.259 . S
C121 O118 1.235 . S
O122 Co112 2.021 . S
O122 C119 1.238 . S
O123 Co117 2.052 . S
O123 C119 1.241 . S
O124 Co112 2.137 . S
O124 C115 1.247 . S
O125 Co112 2.244 . S
O125 C115 1.272 . S
O125 Co117 2.135 . S
Co126 O127 2.216 . S
Co126 O128 2.091 . S
Co126 O130 2.004 . S
Co126 O136 2.021 . S
Co126 O138 2.137 . S
Co126 O139 2.244 . S
O127 Co126 2.216 . S
O127 C134 1.247 . S
O128 Co126 2.091 . S
O128 C134 1.261 . S
C129 O138 1.247 . S
C129 O139 1.272 . S
O130 Co126 2.004 . S
O130 C135 1.259 . S
Co131 O132 2.061 . S
Co131 O137 2.052 . S
Co131 O139 2.135 . S
O132 Co131 2.061 . S
O132 C135 1.235 . S
C133 O136 1.238 . S
C133 O137 1.241 . S
C134 O127 1.247 . S
C134 O128 1.261 . S
C135 O130 1.259 . S
C135 O132 1.235 . S
O136 Co126 2.021 . S
O136 C133 1.238 . S
O137 Co131 2.052 . S
O137 C133 1.241 . S
O138 Co126 2.137 . S
O138 C129 1.247 . S
O139 Co126 2.244 . S
O139 C129 1.272 . S
O139 Co131 2.135 . S
Co140 O141 2.216 . S
Co140 O142 2.091 . S
Co140 O144 2.004 . S
Co140 O150 2.021 . S
Co140 O152 2.137 . S
Co140 O153 2.244 . S
O141 Co140 2.216 . S
O141 C148 1.247 . S
O142 Co140 2.091 . S
O142 C148 1.261 . S
C143 O152 1.247 . S
C143 O153 1.272 . S
O144 Co140 2.004 . S
O144 C149 1.259 . S
Co145 O146 2.061 . S
Co145 O151 2.052 . S
Co145 O153 2.135 . S
O146 Co145 2.061 . S
O146 C149 1.235 . S
C147 O150 1.238 . S
C147 O151 1.241 . S
C148 O141 1.247 . S
C148 O142 1.261 . S
C149 O144 1.259 . S
C149 O146 1.235 . S
O150 Co140 2.021 . S
O150 C147 1.238 . S
O151 Co145 2.052 . S
O151 C147 1.241 . S
O152 Co140 2.137 . S
O152 C143 1.247 . S
O153 Co140 2.244 . S
O153 C143 1.272 . S
O153 Co145 2.135 . S
Co154 O155 2.216 . S
Co154 O156 2.091 . S
Co154 O158 2.004 . S
Co154 O164 2.021 . S
Co154 O166 2.137 . S
Co154 O167 2.244 . S
O155 Co154 2.216 . S
O155 C162 1.247 . S
O156 Co154 2.091 . S
O156 C162 1.261 . S
C157 O166 1.247 . S
C157 O167 1.272 . S
O158 Co154 2.004 . S
O158 C163 1.259 . S
Co159 O160 2.061 . S
Co159 O165 2.052 . S
Co159 O167 2.135 . S
O160 Co159 2.061 . S
O160 C163 1.235 . S
C161 O164 1.238 . S
C161 O165 1.241 . S
C162 O155 1.247 . S
C162 O156 1.261 . S
C163 O158 1.259 . S
C163 O160 1.235 . S
O164 Co154 2.021 . S
O164 C161 1.238 . S
O165 Co159 2.052 . S
O165 C161 1.241 . S
O166 Co154 2.137 . S
O166 C157 1.247 . S
O167 Co154 2.244 . S
O167 C157 1.272 . S
O167 Co159 2.135 . S
Co168 O169 2.216 . S
Co168 O170 2.091 . S
Co168 O172 2.004 . S
Co168 O178 2.021 . S
Co168 O180 2.137 . S
Co168 O181 2.244 . S
O169 Co168 2.216 . S
O169 C176 1.247 . S
O170 Co168 2.091 . S
O170 C176 1.261 . S
C171 O180 1.247 . S
C171 O181 1.272 . S
O172 Co168 2.004 . S
O172 C177 1.259 . S
Co173 O174 2.061 . S
Co173 O179 2.052 . S
Co173 O181 2.135 . S
O174 Co173 2.061 . S
O174 C177 1.235 . S
C175 O178 1.238 . S
C175 O179 1.241 . S
C176 O169 1.247 . S
C176 O170 1.261 . S
C177 O172 1.259 . S
C177 O174 1.235 . S
O178 Co168 2.021 . S
O178 C175 1.238 . S
O179 Co173 2.052 . S
O179 C175 1.241 . S
O180 Co168 2.137 . S
O180 C171 1.247 . S
O181 Co168 2.244 . S
O181 C171 1.272 . S
O181 Co173 2.135 . S
Co182 O183 2.216 . S
Co182 O184 2.091 . S
Co182 O186 2.004 . S
Co182 O192 2.021 . S
Co182 O194 2.137 . S
Co182 O195 2.244 . S
O183 Co182 2.216 . S
O183 C190 1.247 . S
O184 Co182 2.091 . S
O184 C190 1.261 . S
C185 O194 1.247 . S
C185 O195 1.272 . S
O186 Co182 2.004 . S
O186 C191 1.259 . S
Co187 O188 2.061 . S
Co187 O193 2.052 . S
Co187 O195 2.135 . S
O188 Co187 2.061 . S
O188 C191 1.235 . S
C189 O192 1.238 . S
C189 O193 1.241 . S
C190 O183 1.247 . S
C190 O184 1.261 . S
C191 O186 1.259 . S
C191 O188 1.235 . S
O192 Co182 2.021 . S
O192 C189 1.238 . S
O193 Co187 2.052 . S
O193 C189 1.241 . S
O194 Co182 2.137 . S
O194 C185 1.247 . S
O195 Co182 2.244 . S
O195 C185 1.272 . S
O195 Co187 2.135 . S
Co196 O197 2.216 . S
Co196 O198 2.091 . S
Co196 O200 2.004 . S
Co196 O206 2.021 . S
Co196 O208 2.137 . S
Co196 O209 2.244 . S
O197 Co196 2.216 . S
O197 C204 1.247 . S
O198 Co196 2.091 . S
O198 C204 1.261 . S
C199 O208 1.247 . S
C199 O209 1.272 . S
O200 Co196 2.004 . S
O200 C205 1.259 . S
Co201 O202 2.061 . S
Co201 O207 2.052 . S
Co201 O209 2.135 . S
O202 Co201 2.061 . S
O202 C205 1.235 . S
C203 O206 1.238 . S
C203 O207 1.241 . S
C204 O197 1.247 . S
C204 O198 1.261 . S
C205 O200 1.259 . S
C205 O202 1.235 . S
O206 Co196 2.021 . S
O206 C203 1.238 . S
O207 Co201 2.052 . S
O207 C203 1.241 . S
O208 Co196 2.137 . S
O208 C199 1.247 . S
O209 Co196 2.244 . S
O209 C199 1.272 . S
O209 Co201 2.135 . S
Co210 O211 2.216 . S
Co210 O212 2.091 . S
Co210 O214 2.004 . S
Co210 O220 2.021 . S
Co210 O222 2.137 . S
Co210 O223 2.244 . S
O211 Co210 2.216 . S
O211 C218 1.247 . S
O212 Co210 2.091 . S
O212 C218 1.261 . S
C213 O222 1.247 . S
C213 O223 1.272 . S
O214 Co210 2.004 . S
O214 C219 1.259 . S
Co215 O216 2.061 . S
Co215 O221 2.052 . S
Co215 O223 2.135 . S
O216 Co215 2.061 . S
O216 C219 1.235 . S
C217 O220 1.238 . S
C217 O221 1.241 . S
C218 O211 1.247 . S
C218 O212 1.261 . S
C219 O214 1.259 . S
C219 O216 1.235 . S
O220 Co210 2.021 . S
O220 C217 1.238 . S
O221 Co215 2.052 . S
O221 C217 1.241 . S
O222 Co210 2.137 . S
O222 C213 1.247 . S
O223 Co210 2.244 . S
O223 C213 1.272 . S
O223 Co215 2.135 . S
Co224 O225 2.216 . S
Co224 O226 2.091 . S
Co224 O228 2.004 . S
Co224 O234 2.021 . S
Co224 O236 2.137 . S
Co224 O237 2.244 . S
O225 Co224 2.216 . S
O225 C232 1.247 . S
O226 Co224 2.091 . S
O226 C232 1.261 . S
C227 O236 1.247 . S
C227 O237 1.272 . S
O228 Co224 2.004 . S
O228 C233 1.259 . S
Co229 O230 2.061 . S
Co229 O235 2.052 . S
Co229 O237 2.135 . S
O230 Co229 2.061 . S
O230 C233 1.235 . S
C231 O234 1.238 . S
C231 O235 1.241 . S
C232 O225 1.247 . S
C232 O226 1.261 . S
C233 O228 1.259 . S
C233 O230 1.235 . S
O234 Co224 2.021 . S
O234 C231 1.238 . S
O235 Co229 2.052 . S
O235 C231 1.241 . S
O236 Co224 2.137 . S
O236 C227 1.247 . S
O237 Co224 2.244 . S
O237 C227 1.272 . S
O237 Co229 2.135 . S
Co238 O239 2.216 . S
Co238 O240 2.091 . S
Co238 O242 2.004 . S
Co238 O248 2.021 . S
Co238 O250 2.137 . S
Co238 O251 2.244 . S
O239 Co238 2.216 . S
O239 C246 1.247 . S
O240 Co238 2.091 . S
O240 C246 1.261 . S
C241 O250 1.247 . S
C241 O251 1.272 . S
O242 Co238 2.004 . S
O242 C247 1.259 . S
Co243 O244 2.061 . S
Co243 O249 2.052 . S
Co243 O251 2.135 . S
O244 Co243 2.061 . S
O244 C247 1.235 . S
C245 O248 1.238 . S
C245 O249 1.241 . S
C246 O239 1.247 . S
C246 O240 1.261 . S
C247 O242 1.259 . S
C247 O244 1.235 . S
O248 Co238 2.021 . S
O248 C245 1.238 . S
O249 Co243 2.052 . S
O249 C245 1.241 . S
O250 Co238 2.137 . S
O250 C241 1.247 . S
O251 Co238 2.244 . S
O251 C241 1.272 . S
O251 Co243 2.135 . S
Co252 O253 2.216 . S
Co252 O254 2.091 . S
Co252 O256 2.004 . S
Co252 O262 2.021 . S
Co252 O264 2.137 . S
Co252 O265 2.244 . S
O253 Co252 2.216 . S
O253 C260 1.247 . S
O254 Co252 2.091 . S
O254 C260 1.261 . S
C255 O264 1.247 . S
C255 O265 1.272 . S
O256 Co252 2.004 . S
O256 C261 1.259 . S
Co257 O258 2.061 . S
Co257 O263 2.052 . S
Co257 O265 2.135 . S
O258 Co257 2.061 . S
O258 C261 1.235 . S
C259 O262 1.238 . S
C259 O263 1.241 . S
C260 O253 1.247 . S
C260 O254 1.261 . S
C261 O256 1.259 . S
C261 O258 1.235 . S
O262 Co252 2.021 . S
O262 C259 1.238 . S
O263 Co257 2.052 . S
O263 C259 1.241 . S
O264 Co252 2.137 . S
O264 C255 1.247 . S
O265 Co252 2.244 . S
O265 C255 1.272 . S
O265 Co257 2.135 . S
Co266 O267 2.216 . S
Co266 O268 2.091 . S
Co266 O270 2.004 . S
Co266 O276 2.021 . S
Co266 O278 2.137 . S
Co266 O279 2.244 . S
O267 Co266 2.216 . S
O267 C274 1.247 . S
O268 Co266 2.091 . S
O268 C274 1.261 . S
C269 O278 1.247 . S
C269 O279 1.272 . S
O270 Co266 2.004 . S
O270 C275 1.259 . S
Co271 O272 2.061 . S
Co271 O277 2.052 . S
Co271 O279 2.135 . S
O272 Co271 2.061 . S
O272 C275 1.235 . S
C273 O276 1.238 . S
C273 O277 1.241 . S
C274 O267 1.247 . S
C274 O268 1.261 . S
C275 O270 1.259 . S
C275 O272 1.235 . S
O276 Co266 2.021 . S
O276 C273 1.238 . S
O277 Co271 2.052 . S
O277 C273 1.241 . S
O278 Co266 2.137 . S
O278 C269 1.247 . S
O279 Co266 2.244 . S
O279 C269 1.272 . S
O279 Co271 2.135 . S
Co280 O281 2.216 . S
Co280 O282 2.091 . S
Co280 O284 2.004 . S
Co280 O290 2.021 . S
Co280 O292 2.137 . S
Co280 O293 2.244 . S
O281 Co280 2.216 . S
O281 C288 1.247 . S
O282 Co280 2.091 . S
O282 C288 1.261 . S
C283 O292 1.247 . S
C283 O293 1.272 . S
O284 Co280 2.004 . S
O284 C289 1.259 . S
Co285 O286 2.061 . S
Co285 O291 2.052 . S
Co285 O293 2.135 . S
O286 Co285 2.061 . S
O286 C289 1.235 . S
C287 O290 1.238 . S
C287 O291 1.241 . S
C288 O281 1.247 . S
C288 O282 1.261 . S
C289 O284 1.259 . S
C289 O286 1.235 . S
O290 Co280 2.021 . S
O290 C287 1.238 . S
O291 Co285 2.052 . S
O291 C287 1.241 . S
O292 Co280 2.137 . S
O292 C283 1.247 . S
O293 Co280 2.244 . S
O293 C283 1.272 . S
O293 Co285 2.135 . S
Co294 O295 2.216 . S
Co294 O296 2.091 . S
Co294 O298 2.004 . S
Co294 O304 2.021 . S
Co294 O306 2.137 . S
Co294 O307 2.244 . S
O295 Co294 2.216 . S
O295 C302 1.247 . S
O296 Co294 2.091 . S
O296 C302 1.261 . S
C297 O306 1.247 . S
C297 O307 1.272 . S
O298 Co294 2.004 . S
O298 C303 1.259 . S
Co299 O300 2.061 . S
Co299 O305 2.052 . S
Co299 O307 2.135 . S
O300 Co299 2.061 . S
O300 C303 1.235 . S
C301 O304 1.238 . S
C301 O305 1.241 . S
C302 O295 1.247 . S
C302 O296 1.261 . S
C303 O298 1.259 . S
C303 O300 1.235 . S
O304 Co294 2.021 . S
O304 C301 1.238 . S
O305 Co299 2.052 . S
O305 C301 1.241 . S
O306 Co294 2.137 . S
O306 C297 1.247 . S
O307 Co294 2.244 . S
O307 C297 1.272 . S
O307 Co299 2.135 . S
Co308 O309 2.216 . S
Co308 O310 2.091 . S
Co308 O312 2.004 . S
Co308 O318 2.021 . S
Co308 O320 2.137 . S
Co308 O321 2.244 . S
O309 Co308 2.216 . S
O309 C316 1.247 . S
O310 Co308 2.091 . S
O310 C316 1.261 . S
C311 O320 1.247 . S
C311 O321 1.272 . S
O312 Co308 2.004 . S
O312 C317 1.259 . S
Co313 O314 2.061 . S
Co313 O319 2.052 . S
Co313 O321 2.135 . S
O314 Co313 2.061 . S
O314 C317 1.235 . S
C315 O318 1.238 . S
C315 O319 1.241 . S
C316 O309 1.247 . S
C316 O310 1.261 . S
C317 O312 1.259 . S
C317 O314 1.235 . S
O318 Co308 2.021 . S
O318 C315 1.238 . S
O319 Co313 2.052 . S
O319 C315 1.241 . S
O320 Co308 2.137 . S
O320 C311 1.247 . S
O321 Co308 2.244 . S
O321 C311 1.272 . S
O321 Co313 2.135 . S
Co322 O323 2.216 . S
Co322 O324 2.091 . S
Co322 O326 2.004 . S
Co322 O332 2.021 . S
Co322 O334 2.137 . S
Co322 O335 2.244 . S
O323 Co322 2.216 . S
O323 C330 1.247 . S
O324 Co322 2.091 . S
O324 C330 1.261 . S
C325 O334 1.247 . S
C325 O335 1.272 . S
O326 Co322 2.004 . S
O326 C331 1.259 . S
Co327 O328 2.061 . S
Co327 O333 2.052 . S
Co327 O335 2.135 . S
O328 Co327 2.061 . S
O328 C331 1.235 . S
C329 O332 1.238 . S
C329 O333 1.241 . S
C330 O323 1.247 . S
C330 O324 1.261 . S
C331 O326 1.259 . S
C331 O328 1.235 . S
O332 Co322 2.021 . S
O332 C329 1.238 . S
O333 Co327 2.052 . S
O333 C329 1.241 . S
O334 Co322 2.137 . S
O334 C325 1.247 . S
O335 Co322 2.244 . S
O335 C325 1.272 . S
O335 Co327 2.135 . S
Co336 O337 2.216 . S
Co336 O338 2.091 . S
Co336 O340 2.004 . S
Co336 O346 2.021 . S
Co336 O348 2.137 . S
Co336 O349 2.244 . S
O337 Co336 2.216 . S
O337 C344 1.247 . S
O338 Co336 2.091 . S
O338 C344 1.261 . S
C339 O348 1.247 . S
C339 O349 1.272 . S
O340 Co336 2.004 . S
O340 C345 1.259 . S
Co341 O342 2.061 . S
Co341 O347 2.052 . S
Co341 O349 2.135 . S
O342 Co341 2.061 . S
O342 C345 1.235 . S
C343 O346 1.238 . S
C343 O347 1.241 . S
C344 O337 1.247 . S
C344 O338 1.261 . S
C345 O340 1.259 . S
C345 O342 1.235 . S
O346 Co336 2.021 . S
O346 C343 1.238 . S
O347 Co341 2.052 . S
O347 C343 1.241 . S
O348 Co336 2.137 . S
O348 C339 1.247 . S
O349 Co336 2.244 . S
O349 C339 1.272 . S
O349 Co341 2.135 . S
Co350 O351 2.216 . S
Co350 O352 2.091 . S
Co350 O354 2.004 . S
Co350 O360 2.021 . S
Co350 O362 2.137 . S
Co350 O363 2.244 . S
O351 Co350 2.216 . S
O351 C358 1.247 . S
O352 Co350 2.091 . S
O352 C358 1.261 . S
C353 O362 1.247 . S
C353 O363 1.272 . S
O354 Co350 2.004 . S
O354 C359 1.259 . S
Co355 O356 2.061 . S
Co355 O361 2.052 . S
Co355 O363 2.135 . S
O356 Co355 2.061 . S
O356 C359 1.235 . S
C357 O360 1.238 . S
C357 O361 1.241 . S
C358 O351 1.247 . S
C358 O352 1.261 . S
C359 O354 1.259 . S
C359 O356 1.235 . S
O360 Co350 2.021 . S
O360 C357 1.238 . S
O361 Co355 2.052 . S
O361 C357 1.241 . S
O362 Co350 2.137 . S
O362 C353 1.247 . S
O363 Co350 2.244 . S
O363 C353 1.272 . S
O363 Co355 2.135 . S
Co364 O365 2.216 . S
Co364 O366 2.091 . S
Co364 O368 2.004 . S
Co364 O374 2.021 . S
Co364 O376 2.137 . S
Co364 O377 2.244 . S
O365 Co364 2.216 . S
O365 C372 1.247 . S
O366 Co364 2.091 . S
O366 C372 1.261 . S
C367 O376 1.247 . S
C367 O377 1.272 . S
O368 Co364 2.004 . S
O368 C373 1.259 . S
Co369 O370 2.061 . S
Co369 O375 2.052 . S
Co369 O377 2.135 . S
O370 Co369 2.061 . S
O370 C373 1.235 . S
C371 O374 1.238 . S
C371 O375 1.241 . S
C372 O365 1.247 . S
C372 O366 1.261 . S
C373 O368 1.259 . S
C373 O370 1.235 . S
O374 Co364 2.021 . S
O374 C371 1.238 . S
O375 Co369 2.052 . S
O375 C371 1.241 . S
O376 Co364 2.137 . S
O376 C367 1.247 . S
O377 Co364 2.244 . S
O377 C367 1.272 . S
O377 Co369 2.135 . S
Co378 O379 2.216 . S
Co378 O380 2.091 . S
Co378 O382 2.004 . S
Co378 O388 2.021 . S
Co378 O390 2.137 . S
Co378 O391 2.244 . S
O379 Co378 2.216 . S
O379 C386 1.247 . S
O380 Co378 2.091 . S
O380 C386 1.261 . S
C381 O390 1.247 . S
C381 O391 1.272 . S
O382 Co378 2.004 . S
O382 C387 1.259 . S
Co383 O384 2.061 . S
Co383 O389 2.052 . S
Co383 O391 2.135 . S
O384 Co383 2.061 . S
O384 C387 1.235 . S
C385 O388 1.238 . S
C385 O389 1.241 . S
C386 O379 1.247 . S
C386 O380 1.261 . S
C387 O382 1.259 . S
C387 O384 1.235 . S
O388 Co378 2.021 . S
O388 C385 1.238 . S
O389 Co383 2.052 . S
O389 C385 1.241 . S
O390 Co378 2.137 . S
O390 C381 1.247 . S
O391 Co378 2.244 . S
O391 C381 1.272 . S
O391 Co383 2.135 . S
Co392 O393 2.216 . S
Co392 O394 2.091 . S
Co392 O396 2.004 . S
Co392 O402 2.021 . S
Co392 O404 2.137 . S
Co392 O405 2.244 . S
O393 Co392 2.216 . S
O393 C400 1.247 . S
O394 Co392 2.091 . S
O394 C400 1.261 . S
C395 O404 1.247 . S
C395 O405 1.272 . S
O396 Co392 2.004 . S
O396 C401 1.259 . S
Co397 O398 2.061 . S
Co397 O403 2.052 . S
Co397 O405 2.135 . S
O398 Co397 2.061 . S
O398 C401 1.235 . S
C399 O402 1.238 . S
C399 O403 1.241 . S
C400 O393 1.247 . S
C400 O394 1.261 . S
C401 O396 1.259 . S
C401 O398 1.235 . S
O402 Co392 2.021 . S
O402 C399 1.238 . S
O403 Co397 2.052 . S
O403 C399 1.241 . S
O404 Co392 2.137 . S
O404 C395 1.247 . S
O405 Co392 2.244 . S
O405 C395 1.272 . S
O405 Co397 2.135 . S
Co406 O407 2.216 . S
Co406 O408 2.091 . S
Co406 O410 2.004 . S
Co406 O416 2.021 . S
Co406 O418 2.137 . S
Co406 O419 2.244 . S
O407 Co406 2.216 . S
O407 C414 1.247 . S
O408 Co406 2.091 . S
O408 C414 1.261 . S
C409 O418 1.247 . S
C409 O419 1.272 . S
O410 Co406 2.004 . S
O410 C415 1.259 . S
Co411 O412 2.061 . S
Co411 O417 2.052 . S
Co411 O419 2.135 . S
O412 Co411 2.061 . S
O412 C415 1.235 . S
C413 O416 1.238 . S
C413 O417 1.241 . S
C414 O407 1.247 . S
C414 O408 1.261 . S
C415 O410 1.259 . S
C415 O412 1.235 . S
O416 Co406 2.021 . S
O416 C413 1.238 . S
O417 Co411 2.052 . S
O417 C413 1.241 . S
O418 Co406 2.137 . S
O418 C409 1.247 . S
O419 Co406 2.244 . S
O419 C409 1.272 . S
O419 Co411 2.135 . S
Co420 O421 2.216 . S
Co420 O422 2.091 . S
Co420 O424 2.004 . S
Co420 O430 2.021 . S
Co420 O432 2.137 . S
Co420 O433 2.244 . S
O421 Co420 2.216 . S
O421 C428 1.247 . S
O422 Co420 2.091 . S
O422 C428 1.261 . S
C423 O432 1.247 . S
C423 O433 1.272 . S
O424 Co420 2.004 . S
O424 C429 1.259 . S
Co425 O426 2.061 . S
Co425 O431 2.052 . S
Co425 O433 2.135 . S
O426 Co425 2.061 . S
O426 C429 1.235 . S
C427 O430 1.238 . S
C427 O431 1.241 . S
C428 O421 1.247 . S
C428 O422 1.261 . S
C429 O424 1.259 . S
C429 O426 1.235 . S
O430 Co420 2.021 . S
O430 C427 1.238 . S
O431 Co425 2.052 . S
O431 C427 1.241 . S
O432 Co420 2.137 . S
O432 C423 1.247 . S
O433 Co420 2.244 . S
O433 C423 1.272 . S
O433 Co425 2.135 . S
Co434 O435 2.216 . S
Co434 O436 2.091 . S
Co434 O438 2.004 . S
Co434 O444 2.021 . S
Co434 O446 2.137 . S
Co434 O447 2.244 . S
O435 Co434 2.216 . S
O435 C442 1.247 . S
O436 Co434 2.091 . S
O436 C442 1.261 . S
C437 O446 1.247 . S
C437 O447 1.272 . S
O438 Co434 2.004 . S
O438 C443 1.259 . S
Co439 O440 2.061 . S
Co439 O445 2.052 . S
Co439 O447 2.135 . S
O440 Co439 2.061 . S
O440 C443 1.235 . S
C441 O444 1.238 . S
C441 O445 1.241 . S
C442 O435 1.247 . S
C442 O436 1.261 . S
C443 O438 1.259 . S
C443 O440 1.235 . S
O444 Co434 2.021 . S
O444 C441 1.238 . S
O445 Co439 2.052 . S
O445 C441 1.241 . S
O446 Co434 2.137 . S
O446 C437 1.247 . S
O447 Co434 2.244 . S
O447 C437 1.272 . S
O447 Co439 2.135 . S
Co448 O449 2.216 . S
Co448 O450 2.091 . S
Co448 O452 2.004 . S
Co448 O458 2.021 . S
Co448 O460 2.137 . S
Co448 O461 2.244 . S
O449 Co448 2.216 . S
O449 C456 1.247 . S
O450 Co448 2.091 . S
O450 C456 1.261 . S
C451 O460 1.247 . S
C451 O461 1.272 . S
O452 Co448 2.004 . S
O452 C457 1.259 . S
Co453 O454 2.061 . S
Co453 O459 2.052 . S
Co453 O461 2.135 . S
O454 Co453 2.061 . S
O454 C457 1.235 . S
C455 O458 1.238 . S
C455 O459 1.241 . S
C456 O449 1.247 . S
C456 O450 1.261 . S
C457 O452 1.259 . S
C457 O454 1.235 . S
O458 Co448 2.021 . S
O458 C455 1.238 . S
O459 Co453 2.052 . S
O459 C455 1.241 . S
O460 Co448 2.137 . S
O460 C451 1.247 . S
O461 Co448 2.244 . S
O461 C451 1.272 . S
O461 Co453 2.135 . S
Co462 O463 2.216 . S
Co462 O464 2.091 . S
Co462 O466 2.004 . S
Co462 O472 2.021 . S
Co462 O474 2.137 . S
Co462 O475 2.244 . S
O463 Co462 2.216 . S
O463 C470 1.247 . S
O464 Co462 2.091 . S
O464 C470 1.261 . S
C465 O474 1.247 . S
C465 O475 1.272 . S
O466 Co462 2.004 . S
O466 C471 1.259 . S
Co467 O468 2.061 . S
Co467 O473 2.052 . S
Co467 O475 2.135 . S
O468 Co467 2.061 . S
O468 C471 1.235 . S
C469 O472 1.238 . S
C469 O473 1.241 . S
C470 O463 1.247 . S
C470 O464 1.261 . S
C471 O466 1.259 . S
C471 O468 1.235 . S
O472 Co462 2.021 . S
O472 C469 1.238 . S
O473 Co467 2.052 . S
O473 C469 1.241 . S
O474 Co462 2.137 . S
O474 C465 1.247 . S
O475 Co462 2.244 . S
O475 C465 1.272 . S
O475 Co467 2.135 . S
Co476 O477 2.216 . S
Co476 O478 2.091 . S
Co476 O480 2.004 . S
Co476 O486 2.021 . S
Co476 O488 2.137 . S
Co476 O489 2.244 . S
O477 Co476 2.216 . S
O477 C484 1.247 . S
O478 Co476 2.091 . S
O478 C484 1.261 . S
C479 O488 1.247 . S
C479 O489 1.272 . S
O480 Co476 2.004 . S
O480 C485 1.259 . S
Co481 O482 2.061 . S
Co481 O487 2.052 . S
Co481 O489 2.135 . S
O482 Co481 2.061 . S
O482 C485 1.235 . S
C483 O486 1.238 . S
C483 O487 1.241 . S
C484 O477 1.247 . S
C484 O478 1.261 . S
C485 O480 1.259 . S
C485 O482 1.235 . S
O486 Co476 2.021 . S
O486 C483 1.238 . S
O487 Co481 2.052 . S
O487 C483 1.241 . S
O488 Co476 2.137 . S
O488 C479 1.247 . S
O489 Co476 2.244 . S
O489 C479 1.272 . S
O489 Co481 2.135 . S
Co490 O491 2.216 . S
Co490 O492 2.091 . S
Co490 O494 2.004 . S
Co490 O500 2.021 . S
Co490 O502 2.137 . S
Co490 O503 2.244 . S
O491 Co490 2.216 . S
O491 C498 1.247 . S
O492 Co490 2.091 . S
O492 C498 1.261 . S
C493 O502 1.247 . S
C493 O503 1.272 . S
O494 Co490 2.004 . S
O494 C499 1.259 . S
Co495 O496 2.061 . S
Co495 O501 2.052 . S
Co495 O503 2.135 . S
O496 Co495 2.061 . S
O496 C499 1.235 . S
C497 O500 1.238 . S
C497 O501 1.241 . S
C498 O491 1.247 . S
C498 O492 1.261 . S
C499 O494 1.259 . S
C499 O496 1.235 . S
O500 Co490 2.021 . S
O500 C497 1.238 . S
O501 Co495 2.052 . S
O501 C497 1.241 . S
O502 Co490 2.137 . S
O502 C493 1.247 . S
O503 Co490 2.244 . S
O503 C493 1.272 . S
O503 Co495 2.135 . S
Co504 O505 2.216 . S
Co504 O506 2.091 . S
Co504 O508 2.004 . S
Co504 O514 2.021 . S
Co504 O516 2.137 . S
Co504 O517 2.244 . S
O505 Co504 2.216 . S
O505 C512 1.247 . S
O506 Co504 2.091 . S
O506 C512 1.261 . S
C507 O516 1.247 . S
C507 O517 1.272 . S
O508 Co504 2.004 . S
O508 C513 1.259 . S
Co509 O510 2.061 . S
Co509 O515 2.052 . S
Co509 O517 2.135 . S
O510 Co509 2.061 . S
O510 C513 1.235 . S
C511 O514 1.238 . S
C511 O515 1.241 . S
C512 O505 1.247 . S
C512 O506 1.261 . S
C513 O508 1.259 . S
C513 O510 1.235 . S
O514 Co504 2.021 . S
O514 C511 1.238 . S
O515 Co509 2.052 . S
O515 C511 1.241 . S
O516 Co504 2.137 . S
O516 C507 1.247 . S
O517 Co504 2.244 . S
O517 C507 1.272 . S
O517 Co509 2.135 . S
Co518 O519 2.216 . S
Co518 O520 2.091 . S
Co518 O522 2.004 . S
Co518 O528 2.021 . S
Co518 O530 2.137 . S
Co518 O531 2.244 . S
O519 Co518 2.216 . S
O519 C526 1.247 . S
O520 Co518 2.091 . S
O520 C526 1.261 . S
C521 O530 1.247 . S
C521 O531 1.272 . S
O522 Co518 2.004 . S
O522 C527 1.259 . S
Co523 O524 2.061 . S
Co523 O529 2.052 . S
Co523 O531 2.135 . S
O524 Co523 2.061 . S
O524 C527 1.235 . S
C525 O528 1.238 . S
C525 O529 1.241 . S
C526 O519 1.247 . S
C526 O520 1.261 . S
C527 O522 1.259 . S
C527 O524 1.235 . S
O528 Co518 2.021 . S
O528 C525 1.238 . S
O529 Co523 2.052 . S
O529 C525 1.241 . S
O530 Co518 2.137 . S
O530 C521 1.247 . S
O531 Co518 2.244 . S
O531 C521 1.272 . S
O531 Co523 2.135 . S
Co532 O533 2.216 . S
Co532 O534 2.091 . S
Co532 O536 2.004 . S
Co532 O542 2.021 . S
Co532 O544 2.137 . S
Co532 O545 2.244 . S
O533 Co532 2.216 . S
O533 C540 1.247 . S
O534 Co532 2.091 . S
O534 C540 1.261 . S
C535 O544 1.247 . S
C535 O545 1.272 . S
O536 Co532 2.004 . S
O536 C541 1.259 . S
Co537 O538 2.061 . S
Co537 O543 2.052 . S
Co537 O545 2.135 . S
O538 Co537 2.061 . S
O538 C541 1.235 . S
C539 O542 1.238 . S
C539 O543 1.241 . S
C540 O533 1.247 . S
C540 O534 1.261 . S
C541 O536 1.259 . S
C541 O538 1.235 . S
O542 Co532 2.021 . S
O542 C539 1.238 . S
O543 Co537 2.052 . S
O543 C539 1.241 . S
O544 Co532 2.137 . S
O544 C535 1.247 . S
O545 Co532 2.244 . S
O545 C535 1.272 . S
O545 Co537 2.135 . S
Co546 O547 2.216 . S
Co546 O548 2.091 . S
Co546 O550 2.004 . S
Co546 O556 2.021 . S
Co546 O558 2.137 . S
Co546 O559 2.244 . S
O547 Co546 2.216 . S
O547 C554 1.247 . S
O548 Co546 2.091 . S
O548 C554 1.261 . S
C549 O558 1.247 . S
C549 O559 1.272 . S
O550 Co546 2.004 . S
O550 C555 1.259 . S
Co551 O552 2.061 . S
Co551 O557 2.052 . S
Co551 O559 2.135 . S
O552 Co551 2.061 . S
O552 C555 1.235 . S
C553 O556 1.238 . S
C553 O557 1.241 . S
C554 O547 1.247 . S
C554 O548 1.261 . S
C555 O550 1.259 . S
C555 O552 1.235 . S
O556 Co546 2.021 . S
O556 C553 1.238 . S
O557 Co551 2.052 . S
O557 C553 1.241 . S
O558 Co546 2.137 . S
O558 C549 1.247 . S
O559 Co546 2.244 . S
O559 C549 1.272 . S
O559 Co551 2.135 . S
Co560 O561 2.216 . S
Co560 O562 2.091 . S
Co560 O564 2.004 . S
Co560 O570 2.021 . S
Co560 O572 2.137 . S
Co560 O573 2.244 . S
O561 Co560 2.216 . S
O561 C568 1.247 . S
O562 Co560 2.091 . S
O562 C568 1.261 . S
C563 O572 1.247 . S
C563 O573 1.272 . S
O564 Co560 2.004 . S
O564 C569 1.259 . S
Co565 O566 2.061 . S
Co565 O571 2.052 . S
Co565 O573 2.135 . S
O566 Co565 2.061 . S
O566 C569 1.235 . S
C567 O570 1.238 . S
C567 O571 1.241 . S
C568 O561 1.247 . S
C568 O562 1.261 . S
C569 O564 1.259 . S
C569 O566 1.235 . S
O570 Co560 2.021 . S
O570 C567 1.238 . S
O571 Co565 2.052 . S
O571 C567 1.241 . S
O572 Co560 2.137 . S
O572 C563 1.247 . S
O573 Co560 2.244 . S
O573 C563 1.272 . S
O573 Co565 2.135 . S
Co574 O575 2.216 . S
Co574 O576 2.091 . S
Co574 O578 2.004 . S
Co574 O584 2.021 . S
Co574 O586 2.137 . S
Co574 O587 2.244 . S
O575 Co574 2.216 . S
O575 C582 1.247 . S
O576 Co574 2.091 . S
O576 C582 1.261 . S
C577 O586 1.247 . S
C577 O587 1.272 . S
O578 Co574 2.004 . S
O578 C583 1.259 . S
Co579 O580 2.061 . S
Co579 O585 2.052 . S
Co579 O587 2.135 . S
O580 Co579 2.061 . S
O580 C583 1.235 . S
C581 O584 1.238 . S
C581 O585 1.241 . S
C582 O575 1.247 . S
C582 O576 1.261 . S
C583 O578 1.259 . S
C583 O580 1.235 . S
O584 Co574 2.021 . S
O584 C581 1.238 . S
O585 Co579 2.052 . S
O585 C581 1.241 . S
O586 Co574 2.137 . S
O586 C577 1.247 . S
O587 Co574 2.244 . S
O587 C577 1.272 . S
O587 Co579 2.135 . S
Co588 O589 2.216 . S
Co588 O590 2.091 . S
Co588 O592 2.004 . S
Co588 O598 2.021 . S
Co588 O600 2.137 . S
Co588 O601 2.244 . S
O589 Co588 2.216 . S
O589 C596 1.247 . S
O590 Co588 2.091 . S
O590 C596 1.261 . S
C591 O600 1.247 . S
C591 O601 1.272 . S
O592 Co588 2.004 . S
O592 C597 1.259 . S
Co593 O594 2.061 . S
Co593 O599 2.052 . S
Co593 O601 2.135 . S
O594 Co593 2.061 . S
O594 C597 1.235 . S
C595 O598 1.238 . S
C595 O599 1.241 . S
C596 O589 1.247 . S
C596 O590 1.261 . S
C597 O592 1.259 . S
C597 O594 1.235 . S
O598 Co588 2.021 . S
O598 C595 1.238 . S
O599 Co593 2.052 . S
O599 C595 1.241 . S
O600 Co588 2.137 . S
O600 C591 1.247 . S
O601 Co588 2.244 . S
O601 C591 1.272 . S
O601 Co593 2.135 . S
Co602 O603 2.216 . S
Co602 O604 2.091 . S
Co602 O606 2.004 . S
Co602 O612 2.021 . S
Co602 O614 2.137 . S
Co602 O615 2.244 . S
O603 Co602 2.216 . S
O603 C610 1.247 . S
O604 Co602 2.091 . S
O604 C610 1.261 . S
C605 O614 1.247 . S
C605 O615 1.272 . S
O606 Co602 2.004 . S
O606 C611 1.259 . S
Co607 O608 2.061 . S
Co607 O613 2.052 . S
Co607 O615 2.135 . S
O608 Co607 2.061 . S
O608 C611 1.235 . S
C609 O612 1.238 . S
C609 O613 1.241 . S
C610 O603 1.247 . S
C610 O604 1.261 . S
C611 O606 1.259 . S
C611 O608 1.235 . S
O612 Co602 2.021 . S
O612 C609 1.238 . S
O613 Co607 2.052 . S
O613 C609 1.241 . S
O614 Co602 2.137 . S
O614 C605 1.247 . S
O615 Co602 2.244 . S
O615 C605 1.272 . S
O615 Co607 2.135 . S
Co616 O617 2.216 . S
Co616 O618 2.091 . S
Co616 O620 2.004 . S
Co616 O626 2.021 . S
Co616 O628 2.137 . S
Co616 O629 2.244 . S
O617 Co616 2.216 . S
O617 C624 1.247 . S
O618 Co616 2.091 . S
O618 C624 1.261 . S
C619 O628 1.247 . S
C619 O629 1.272 . S
O620 Co616 2.004 . S
O620 C625 1.259 . S
Co621 O622 2.061 . S
Co621 O627 2.052 . S
Co621 O629 2.135 . S
O622 Co621 2.061 . S
O622 C625 1.235 . S
C623 O626 1.238 . S
C623 O627 1.241 . S
C624 O617 1.247 . S
C624 O618 1.261 . S
C625 O620 1.259 . S
C625 O622 1.235 . S
O626 Co616 2.021 . S
O626 C623 1.238 . S
O627 Co621 2.052 . S
O627 C623 1.241 . S
O628 Co616 2.137 . S
O628 C619 1.247 . S
O629 Co616 2.244 . S
O629 C619 1.272 . S
O629 Co621 2.135 . S
Co630 O631 2.216 . S
Co630 O632 2.091 . S
Co630 O634 2.004 . S
Co630 O640 2.021 . S
Co630 O642 2.137 . S
Co630 O643 2.244 . S
O631 Co630 2.216 . S
O631 C638 1.247 . S
O632 Co630 2.091 . S
O632 C638 1.261 . S
C633 O642 1.247 . S
C633 O643 1.272 . S
O634 Co630 2.004 . S
O634 C639 1.259 . S
Co635 O636 2.061 . S
Co635 O641 2.052 . S
Co635 O643 2.135 . S
O636 Co635 2.061 . S
O636 C639 1.235 . S
C637 O640 1.238 . S
C637 O641 1.241 . S
C638 O631 1.247 . S
C638 O632 1.261 . S
C639 O634 1.259 . S
C639 O636 1.235 . S
O640 Co630 2.021 . S
O640 C637 1.238 . S
O641 Co635 2.052 . S
O641 C637 1.241 . S
O642 Co630 2.137 . S
O642 C633 1.247 . S
O643 Co630 2.244 . S
O643 C633 1.272 . S
O643 Co635 2.135 . S
Co644 O645 2.216 . S
Co644 O646 2.091 . S
Co644 O648 2.004 . S
Co644 O654 2.021 . S
Co644 O656 2.137 . S
Co644 O657 2.244 . S
O645 Co644 2.216 . S
O645 C652 1.247 . S
O646 Co644 2.091 . S
O646 C652 1.261 . S
C647 O656 1.247 . S
C647 O657 1.272 . S
O648 Co644 2.004 . S
O648 C653 1.259 . S
Co649 O650 2.061 . S
Co649 O655 2.052 . S
Co649 O657 2.135 . S
O650 Co649 2.061 . S
O650 C653 1.235 . S
C651 O654 1.238 . S
C651 O655 1.241 . S
C652 O645 1.247 . S
C652 O646 1.261 . S
C653 O648 1.259 . S
C653 O650 1.235 . S
O654 Co644 2.021 . S
O654 C651 1.238 . S
O655 Co649 2.052 . S
O655 C651 1.241 . S
O656 Co644 2.137 . S
O656 C647 1.247 . S
O657 Co644 2.244 . S
O657 C647 1.272 . S
O657 Co649 2.135 . S
Co658 O659 2.216 . S
Co658 O660 2.091 . S
Co658 O662 2.004 . S
Co658 O668 2.021 . S
Co658 O670 2.137 . S
Co658 O671 2.244 . S
O659 Co658 2.216 . S
O659 C666 1.247 . S
O660 Co658 2.091 . S
O660 C666 1.261 . S
C661 O670 1.247 . S
C661 O671 1.272 . S
O662 Co658 2.004 . S
O662 C667 1.259 . S
Co663 O664 2.061 . S
Co663 O669 2.052 . S
Co663 O671 2.135 . S
O664 Co663 2.061 . S
O664 C667 1.235 . S
C665 O668 1.238 . S
C665 O669 1.241 . S
C666 O659 1.247 . S
C666 O660 1.261 . S
C667 O662 1.259 . S
C667 O664 1.235 . S
O668 Co658 2.021 . S
O668 C665 1.238 . S
O669 Co663 2.052 . S
O669 C665 1.241 . S
O670 Co658 2.137 . S
O670 C661 1.247 . S
O671 Co658 2.244 . S
O671 C661 1.272 . S
O671 Co663 2.135 . S
H672 C690 0.951 . S
H673 C692 0.951 . S
H674 C694 0.972 . S
H675 C695 0.950 1_455 S
H676 C697 0.950 . S
H677 C700 0.950 . S
H678 C701 0.950 . S
H679 C703 0.950 . S
H680 C704 0.950 . S
H681 C705 0.951 . S
H682 C707 0.951 . S
H683 C709 0.971 . S
H684 C710 0.950 1_655 S
H685 C712 0.950 . S
H686 C715 0.950 . S
H687 C716 0.950 . S
H688 C718 0.950 . S
H689 C719 0.950 . S
C690 H672 0.951 . S
C690 C691 1.366 . S
C690 C692 1.388 . S
C691 C690 1.366 . S
C691 C695 1.385 . S
C692 H673 0.951 . S
C692 C690 1.388 . S
C692 C693 1.366 . S
C693 C692 1.366 . S
C693 C694 1.400 1_655 S
C693 C696 1.499 . S
C694 H674 0.972 . S
C694 C693 1.400 1_455 S
C694 C695 1.367 1_455 S
C695 H675 0.950 1_655 S
C695 C691 1.385 . S
C695 C694 1.367 1_655 S
C696 C693 1.499 . S
C696 C697 1.373 1_655 S
C696 C698 1.389 . S
C697 H676 0.950 . S
C697 C696 1.373 1_455 S
C697 C713 1.377 . S
C698 C696 1.389 . S
C698 C699 1.524 . S
C698 C712 1.377 . S
C699 C698 1.524 . S
C699 C700 1.397 . S
C699 C704 1.363 . S
C700 H677 0.950 . S
C700 C699 1.397 . S
C700 C701 1.334 . S
C701 H678 0.950 . S
C701 C700 1.334 . S
C701 C702 1.287 . S
C702 C701 1.287 . S
C702 C703 1.524 . S
C702 H721 0.913 . S
C703 H679 0.950 . S
C703 C702 1.524 . S
C703 C704 1.415 . S
C704 H680 0.950 . S
C704 C699 1.363 . S
C704 C703 1.415 . S
C705 H681 0.951 . S
C705 C706 1.366 . S
C705 C707 1.388 . S
C706 C705 1.366 . S
C706 C710 1.385 . S
C707 H682 0.951 . S
C707 C705 1.388 . S
C707 C708 1.366 . S
C708 C707 1.366 . S
C708 C709 1.400 1_455 S
C708 C711 1.499 . S
C709 H683 0.971 . S
C709 C708 1.400 1_655 S
C709 C710 1.367 1_655 S
C710 H684 0.950 1_455 S
C710 C706 1.385 . S
C710 C709 1.367 1_455 S
C711 C708 1.499 . S
C711 C712 1.373 1_455 S
C711 C713 1.389 . S
C712 H685 0.950 . S
C712 C698 1.377 . S
C712 C711 1.373 1_655 S
C713 C697 1.377 . S
C713 C711 1.389 . S
C713 C714 1.524 . S
C714 C713 1.524 . S
C714 C715 1.397 . S
C714 C719 1.363 . S
C715 H686 0.950 . S
C715 C714 1.397 . S
C715 C716 1.334 . S
C716 H687 0.950 . S
C716 C715 1.334 . S
C716 C717 1.287 . S
C717 C716 1.287 . S
C717 C718 1.524 . S
C717 H720 0.999 . S
C718 H688 0.950 . S
C718 C717 1.524 . S
C718 C719 1.415 . S
C719 H689 0.950 . S
C719 C714 1.363 . S
C719 C718 1.415 . S
H720 C717 0.999 . S
H721 C702 0.913 . S
H722 C740 0.951 1_655 S
H723 C742 0.944 . S
H724 C744 0.950 . S
H725 C745 0.950 . S
H726 C747 0.950 . S
H727 C750 0.946 1_455 S
H728 C751 0.950 1_455 S
H729 C753 0.950 . S
H730 C754 0.950 . S
H731 C755 0.951 1_455 S
H732 C757 0.945 . S
H733 C759 0.950 . S
H734 C760 0.950 . S
H735 C762 0.950 . S
H736 C765 0.945 1_655 S
H737 C766 0.950 1_655 S
H738 C768 0.950 . S
H739 C769 0.950 . S
C740 H722 0.951 1_455 S
C740 C741 1.366 . S
C740 C742 1.390 1_455 S
C741 C740 1.366 . S
C741 C745 1.385 . S
C742 H723 0.944 . S
C742 C740 1.390 1_655 S
C742 C743 1.370 1_655 S
C743 C742 1.370 1_455 S
C743 C744 1.414 . S
C743 C746 1.499 . S
C744 H724 0.950 . S
C744 C743 1.414 . S
C744 C745 1.374 . S
C745 H725 0.950 . S
C745 C741 1.385 . S
C745 C744 1.374 . S
C746 C743 1.499 . S
C746 C747 1.373 . S
C746 C748 1.389 1_455 S
C747 H726 0.950 . S
C747 C746 1.373 . S
C747 C763 1.377 . S
C748 C746 1.389 1_655 S
C748 C749 1.524 . S
C748 C762 1.377 . S
C749 C748 1.524 . S
C749 C750 1.400 . S
C749 C754 1.363 . S
C750 H727 0.946 1_655 S
C750 C749 1.400 . S
C750 C751 1.335 . S
C751 H728 0.950 1_655 S
C751 C750 1.335 . S
C751 C752 1.287 . S
C752 C751 1.287 . S
C752 C753 1.524 . S
C752 H771 0.913 . S
C753 H729 0.950 . S
C753 C752 1.524 . S
C753 C754 1.415 . S
C754 H730 0.950 . S
C754 C749 1.363 . S
C754 C753 1.415 . S
C755 H731 0.951 1_655 S
C755 C756 1.366 . S
C755 C757 1.390 1_655 S
C756 C755 1.366 . S
C756 C760 1.385 . S
C757 H732 0.945 . S
C757 C755 1.390 1_455 S
C757 C758 1.370 1_455 S
C758 C757 1.370 1_655 S
C758 C759 1.414 . S
C758 C761 1.499 . S
C759 H733 0.950 . S
C759 C758 1.414 . S
C759 C760 1.374 . S
C760 H734 0.950 . S
C760 C756 1.385 . S
C760 C759 1.374 . S
C761 C758 1.499 . S
C761 C762 1.373 . S
C761 C763 1.389 1_655 S
C762 H735 0.950 . S
C762 C748 1.377 . S
C762 C761 1.373 . S
C763 C747 1.377 . S
C763 C761 1.389 1_455 S
C763 C764 1.524 . S
C764 C763 1.524 . S
C764 C765 1.400 . S
C764 C769 1.363 . S
C765 H736 0.945 1_455 S
C765 C764 1.400 . S
C765 C766 1.335 . S
C766 H737 0.950 1_455 S
C766 C765 1.335 . S
C766 C767 1.287 . S
C767 C766 1.287 . S
C767 C768 1.524 . S
C767 H770 0.999 . S
C768 H738 0.950 . S
C768 C767 1.524 . S
C768 C769 1.415 . S
C769 H739 0.950 . S
C769 C764 1.363 . S
C769 C768 1.415 . S
H770 C767 0.999 . S
H771 C752 0.913 . S
H772 C790 0.951 1_545 S
H773 C792 0.907 1_545 S
H774 C794 0.950 . S
H775 C795 0.950 . S
H776 C797 0.950 . S
H777 C800 0.950 . S
H778 C801 0.950 . S
H779 C803 0.950 . S
H780 C804 0.950 . S
H781 C805 0.951 1_565 S
H782 C807 0.906 1_565 S
H783 C809 0.950 . S
H784 C810 0.950 . S
H785 C812 0.950 . S
H786 C815 0.950 . S
H787 C816 0.950 . S
H788 C818 0.950 . S
H789 C819 0.950 . S
C790 H772 0.951 1_565 S
C790 C791 1.366 . S
C790 C792 1.403 . S
C791 C790 1.366 . S
C791 C795 1.385 . S
C792 H773 0.907 1_565 S
C792 C790 1.403 . S
C792 C793 1.395 . S
C793 C792 1.395 . S
C793 C794 1.414 . S
C793 C796 1.499 . S
C794 H774 0.950 . S
C794 C793 1.414 . S
C794 C795 1.374 . S
C795 H775 0.950 . S
C795 C791 1.385 . S
C795 C794 1.374 . S
C796 C793 1.499 . S
C796 C797 1.373 . S
C796 C798 1.389 1_565 S
C797 H776 0.950 . S
C797 C796 1.373 . S
C797 C813 1.377 . S
C798 C796 1.389 1_545 S
C798 C799 1.524 . S
C798 C812 1.377 . S
C799 C798 1.524 . S
C799 C800 1.397 . S
C799 C804 1.363 . S
C800 H777 0.950 . S
C800 C799 1.397 . S
C800 C801 1.334 . S
C801 H778 0.950 . S
C801 C800 1.334 . S
C801 C802 1.287 . S
C802 C801 1.287 . S
C802 C803 1.524 . S
C802 H821 0.913 . S
C803 H779 0.950 . S
C803 C802 1.524 . S
C803 C804 1.415 . S
C804 H780 0.950 . S
C804 C799 1.363 . S
C804 C803 1.415 . S
C805 H781 0.951 1_545 S
C805 C806 1.366 . S
C805 C807 1.404 . S
C806 C805 1.366 . S
C806 C810 1.385 . S
C807 H782 0.906 1_545 S
C807 C805 1.404 . S
C807 C808 1.395 . S
C808 C807 1.395 . S
C808 C809 1.414 . S
C808 C811 1.499 . S
C809 H783 0.950 . S
C809 C808 1.414 . S
C809 C810 1.374 . S
C810 H784 0.950 . S
C810 C806 1.385 . S
C810 C809 1.374 . S
C811 C808 1.499 . S
C811 C812 1.373 . S
C811 C813 1.389 1_545 S
C812 H785 0.950 . S
C812 C798 1.377 . S
C812 C811 1.373 . S
C813 C797 1.377 . S
C813 C811 1.389 1_565 S
C813 C814 1.524 . S
C814 C813 1.524 . S
C814 C815 1.397 . S
C814 C819 1.363 . S
C815 H786 0.950 . S
C815 C814 1.397 . S
C815 C816 1.334 . S
C816 H787 0.950 . S
C816 C815 1.334 . S
C816 C817 1.287 . S
C817 C816 1.287 . S
C817 C818 1.524 . S
C817 H820 0.999 . S
C818 H788 0.950 . S
C818 C817 1.524 . S
C818 C819 1.415 . S
C819 H789 0.950 . S
C819 C814 1.363 . S
C819 C818 1.415 . S
H820 C817 0.999 . S
H821 C802 0.913 . S
H822 C840 0.951 . S
H823 C842 0.951 . S
H824 C844 0.950 . S
H825 C845 0.950 . S
H826 C847 0.950 . S
H827 C850 0.950 . S
H828 C851 0.950 . S
H829 C853 0.950 . S
H830 C854 0.950 . S
H831 C855 0.951 . S
H832 C857 0.951 . S
H833 C859 0.950 . S
H834 C860 0.950 . S
H835 C862 0.950 . S
H836 C865 0.950 . S
H837 C866 0.950 . S
H838 C868 0.950 . S
H839 C869 0.950 . S
C840 H822 0.951 . S
C840 C841 1.366 . S
C840 C842 1.388 . S
C841 C840 1.366 . S
C841 C845 1.385 . S
C842 H823 0.951 . S
C842 C840 1.388 . S
C842 C843 1.366 . S
C843 C842 1.366 . S
C843 C844 1.414 . S
C843 C846 1.499 . S
C844 H824 0.950 . S
C844 C843 1.414 . S
C844 C845 1.374 . S
C845 H825 0.950 . S
C845 C841 1.385 . S
C845 C844 1.374 . S
C846 C843 1.499 . S
C846 C847 1.373 . S
C846 C848 1.389 . S
C847 H826 0.950 . S
C847 C846 1.373 . S
C847 C863 1.377 . S
C848 C846 1.389 . S
C848 C849 1.524 . S
C848 C862 1.377 . S
C849 C848 1.524 . S
C849 C850 1.397 . S
C849 C854 1.363 . S
C850 H827 0.950 . S
C850 C849 1.397 . S
C850 C851 1.334 . S
C851 H828 0.950 . S
C851 C850 1.334 . S
C851 C852 1.287 . S
C852 C851 1.287 . S
C852 C853 1.524 . S
C852 H871 0.913 . S
C853 H829 0.950 . S
C853 C852 1.524 . S
C853 C854 1.415 . S
C854 H830 0.950 . S
C854 C849 1.363 . S
C854 C853 1.415 . S
C855 H831 0.951 . S
C855 C856 1.366 . S
C855 C857 1.388 . S
C856 C855 1.366 . S
C856 C860 1.385 . S
C857 H832 0.951 . S
C857 C855 1.388 . S
C857 C858 1.366 . S
C858 C857 1.366 . S
C858 C859 1.414 . S
C858 C861 1.499 . S
C859 H833 0.950 . S
C859 C858 1.414 . S
C859 C860 1.374 . S
C860 H834 0.950 . S
C860 C856 1.385 . S
C860 C859 1.374 . S
C861 C858 1.499 . S
C861 C862 1.373 . S
C861 C863 1.389 . S
C862 H835 0.950 . S
C862 C848 1.377 . S
C862 C861 1.373 . S
C863 C847 1.377 . S
C863 C861 1.389 . S
C863 C864 1.524 . S
C864 C863 1.524 . S
C864 C865 1.397 . S
C864 C869 1.363 . S
C865 H836 0.950 . S
C865 C864 1.397 . S
C865 C866 1.334 . S
C866 H837 0.950 . S
C866 C865 1.334 . S
C866 C867 1.287 . S
C867 C866 1.287 . S
C867 C868 1.524 . S
C867 H870 0.999 . S
C868 H838 0.950 . S
C868 C867 1.524 . S
C868 C869 1.415 . S
C869 H839 0.950 . S
C869 C864 1.363 . S
C869 C868 1.415 . S
H870 C867 0.999 . S
H871 C852 0.913 . S
H872 C890 0.951 1_556 S
H873 C892 0.944 . S
H874 C894 0.950 . S
H875 C895 0.950 . S
H876 C897 0.950 . S
H877 C900 0.945 1_554 S
H878 C901 0.950 1_554 S
H879 C903 0.950 . S
H880 C904 0.950 . S
H881 C905 0.951 1_554 S
H882 C907 0.945 . S
H883 C909 0.950 . S
H884 C910 0.950 . S
H885 C912 0.950 . S
H886 C915 0.945 1_556 S
H887 C916 0.950 1_556 S
H888 C918 0.950 . S
H889 C919 0.950 . S
C890 H872 0.951 1_554 S
C890 C891 1.366 . S
C890 C892 1.390 1_554 S
C891 C890 1.366 . S
C891 C895 1.385 . S
C892 H873 0.944 . S
C892 C890 1.390 1_556 S
C892 C893 1.370 1_556 S
C893 C892 1.370 1_554 S
C893 C894 1.414 . S
C893 C896 1.499 . S
C894 H874 0.950 . S
C894 C893 1.414 . S
C894 C895 1.374 . S
C895 H875 0.950 . S
C895 C891 1.385 . S
C895 C894 1.374 . S
C896 C893 1.499 . S
C896 C897 1.373 . S
C896 C898 1.389 1_554 S
C897 H876 0.950 . S
C897 C896 1.373 . S
C897 C913 1.377 . S
C898 C896 1.389 1_556 S
C898 C899 1.524 . S
C898 C912 1.377 . S
C899 C898 1.524 . S
C899 C900 1.400 . S
C899 C904 1.363 . S
C900 H877 0.945 1_556 S
C900 C899 1.400 . S
C900 C901 1.335 . S
C901 H878 0.950 1_556 S
C901 C900 1.335 . S
C901 C902 1.287 . S
C902 C901 1.287 . S
C902 C903 1.524 . S
C902 H921 0.913 . S
C903 H879 0.950 . S
C903 C902 1.524 . S
C903 C904 1.415 . S
C904 H880 0.950 . S
C904 C899 1.363 . S
C904 C903 1.415 . S
C905 H881 0.951 1_556 S
C905 C906 1.366 . S
C905 C907 1.390 1_556 S
C906 C905 1.366 . S
C906 C910 1.385 . S
C907 H882 0.945 . S
C907 C905 1.390 1_554 S
C907 C908 1.370 1_554 S
C908 C907 1.370 1_556 S
C908 C909 1.414 . S
C908 C911 1.499 . S
C909 H883 0.950 . S
C909 C908 1.414 . S
C909 C910 1.374 . S
C910 H884 0.950 . S
C910 C906 1.385 . S
C910 C909 1.374 . S
C911 C908 1.499 . S
C911 C912 1.373 . S
C911 C913 1.389 1_556 S
C912 H885 0.950 . S
C912 C898 1.377 . S
C912 C911 1.373 . S
C913 C897 1.377 . S
C913 C911 1.389 1_554 S
C913 C914 1.524 . S
C914 C913 1.524 . S
C914 C915 1.400 . S
C914 C919 1.363 . S
C915 H886 0.945 1_554 S
C915 C914 1.400 . S
C915 C916 1.335 . S
C916 H887 0.950 1_554 S
C916 C915 1.335 . S
C916 C917 1.287 . S
C917 C916 1.287 . S
C917 C918 1.524 . S
C917 H920 0.999 . S
C918 H888 0.950 . S
C918 C917 1.524 . S
C918 C919 1.415 . S
C919 H889 0.950 . S
C919 C914 1.363 . S
C919 C918 1.415 . S
H920 C917 0.999 . S
H921 C902 0.913 . S
H922 C940 0.951 . S
H923 C942 0.951 . S
H924 C944 0.950 . S
H925 C945 0.950 . S
H926 C947 0.950 . S
H927 C950 0.950 . S
H928 C951 0.950 . S
H929 C953 0.950 . S
H930 C954 0.950 . S
H931 C955 0.951 . S
H932 C957 0.951 . S
H933 C959 0.950 . S
H934 C960 0.950 . S
H935 C962 0.950 . S
H936 C965 0.950 . S
H937 C966 0.950 . S
H938 C968 0.950 . S
H939 C969 0.950 . S
C940 H922 0.951 . S
C940 C941 1.366 . S
C940 C942 1.388 . S
C941 C940 1.366 . S
C941 C945 1.385 . S
C942 H923 0.951 . S
C942 C940 1.388 . S
C942 C943 1.366 . S
C943 C942 1.366 . S
C943 C944 1.414 . S
C943 C946 1.499 . S
C944 H924 0.950 . S
C944 C943 1.414 . S
C944 C945 1.374 . S
C945 H925 0.950 . S
C945 C941 1.385 . S
C945 C944 1.374 . S
C946 C943 1.499 . S
C946 C947 1.373 . S
C946 C948 1.389 . S
C947 H926 0.950 . S
C947 C946 1.373 . S
C947 C963 1.377 . S
C948 C946 1.389 . S
C948 C949 1.524 . S
C948 C962 1.377 . S
C949 C948 1.524 . S
C949 C950 1.397 . S
C949 C954 1.363 . S
C950 H927 0.950 . S
C950 C949 1.397 . S
C950 C951 1.334 . S
C951 H928 0.950 . S
C951 C950 1.334 . S
C951 C952 1.287 . S
C952 C951 1.287 . S
C952 C953 1.524 . S
C952 H971 0.913 . S
C953 H929 0.950 . S
C953 C952 1.524 . S
C953 C954 1.415 . S
C954 H930 0.950 . S
C954 C949 1.363 . S
C954 C953 1.415 . S
C955 H931 0.951 . S
C955 C956 1.366 . S
C955 C957 1.388 . S
C956 C955 1.366 . S
C956 C960 1.385 . S
C957 H932 0.951 . S
C957 C955 1.388 . S
C957 C958 1.366 . S
C958 C957 1.366 . S
C958 C959 1.414 . S
C958 C961 1.499 . S
C959 H933 0.950 . S
C959 C958 1.414 . S
C959 C960 1.374 . S
C960 H934 0.950 . S
C960 C956 1.385 . S
C960 C959 1.374 . S
C961 C958 1.499 . S
C961 C962 1.373 . S
C961 C963 1.389 . S
C962 H935 0.950 . S
C962 C948 1.377 . S
C962 C961 1.373 . S
C963 C947 1.377 . S
C963 C961 1.389 . S
C963 C964 1.524 . S
C964 C963 1.524 . S
C964 C965 1.397 . S
C964 C969 1.363 . S
C965 H936 0.950 . S
C965 C964 1.397 . S
C965 C966 1.334 . S
C966 H937 0.950 . S
C966 C965 1.334 . S
C966 C967 1.287 . S
C967 C966 1.287 . S
C967 C968 1.524 . S
C967 H970 0.999 . S
C968 H938 0.950 . S
C968 C967 1.524 . S
C968 C969 1.415 . S
C969 H939 0.950 . S
C969 C964 1.363 . S
C969 C968 1.415 . S
H970 C967 0.999 . S
H971 C952 0.913 . S
H972 C990 0.951 . S
H973 C992 0.951 . S
H974 C994 0.950 . S
H975 C995 0.950 . S
H976 C997 0.950 . S
H977 C1000 0.950 . S
H978 C1001 0.950 . S
H979 C1003 0.950 . S
H980 C1004 0.950 . S
H981 C1005 0.951 . S
H982 C1007 0.951 . S
H983 C1009 0.950 . S
H984 C1010 0.950 . S
H985 C1012 0.950 . S
H986 C1015 0.950 . S
H987 C1016 0.950 . S
H988 C1018 0.950 . S
H989 C1019 0.950 . S
C990 H972 0.951 . S
C990 C991 1.366 . S
C990 C992 1.388 . S
C991 C990 1.366 . S
C991 C995 1.385 . S
C992 H973 0.951 . S
C992 C990 1.388 . S
C992 C993 1.366 . S
C993 C992 1.366 . S
C993 C994 1.414 . S
C993 C996 1.499 . S
C994 H974 0.950 . S
C994 C993 1.414 . S
C994 C995 1.374 . S
C995 H975 0.950 . S
C995 C991 1.385 . S
C995 C994 1.374 . S
C996 C993 1.499 . S
C996 C997 1.373 . S
C996 C998 1.389 . S
C997 H976 0.950 . S
C997 C996 1.373 . S
C997 C1013 1.377 . S
C998 C996 1.389 . S
C998 C999 1.524 . S
C998 C1012 1.377 . S
C999 C998 1.524 . S
C999 C1000 1.397 . S
C999 C1004 1.363 . S
C1000 H977 0.950 . S
C1000 C999 1.397 . S
C1000 C1001 1.334 . S
C1001 H978 0.950 . S
C1001 C1000 1.334 . S
C1001 C1002 1.287 . S
C1002 C1001 1.287 . S
C1002 C1003 1.524 . S
C1002 H1021 0.913 . S
C1003 H979 0.950 . S
C1003 C1002 1.524 . S
C1003 C1004 1.415 . S
C1004 H980 0.950 . S
C1004 C999 1.363 . S
C1004 C1003 1.415 . S
C1005 H981 0.951 . S
C1005 C1006 1.366 . S
C1005 C1007 1.388 . S
C1006 C1005 1.366 . S
C1006 C1010 1.385 . S
C1007 H982 0.951 . S
C1007 C1005 1.388 . S
C1007 C1008 1.366 . S
C1008 C1007 1.366 . S
C1008 C1009 1.414 . S
C1008 C1011 1.499 . S
C1009 H983 0.950 . S
C1009 C1008 1.414 . S
C1009 C1010 1.374 . S
C1010 H984 0.950 . S
C1010 C1006 1.385 . S
C1010 C1009 1.374 . S
C1011 C1008 1.499 . S
C1011 C1012 1.373 . S
C1011 C1013 1.389 . S
C1012 H985 0.950 . S
C1012 C998 1.377 . S
C1012 C1011 1.373 . S
C1013 C997 1.377 . S
C1013 C1011 1.389 . S
C1013 C1014 1.524 . S
C1014 C1013 1.524 . S
C1014 C1015 1.397 . S
C1014 C1019 1.363 . S
C1015 H986 0.950 . S
C1015 C1014 1.397 . S
C1015 C1016 1.334 . S
C1016 H987 0.950 . S
C1016 C1015 1.334 . S
C1016 C1017 1.287 . S
C1017 C1016 1.287 . S
C1017 C1018 1.524 . S
C1017 H1020 0.999 . S
C1018 H988 0.950 . S
C1018 C1017 1.524 . S
C1018 C1019 1.415 . S
C1019 H989 0.950 . S
C1019 C1014 1.363 . S
C1019 C1018 1.415 . S
H1020 C1017 0.999 . S
H1021 C1002 0.913 . S
H1022 C1040 0.951 . S
H1023 C1042 0.951 . S
H1024 C1044 0.962 . S
H1025 C1045 0.950 1_655 S
H1026 C1047 0.950 . S
H1027 C1050 0.954 . S
H1028 C1051 0.950 . S
H1029 C1053 0.950 . S
H1030 C1054 0.950 . S
H1031 C1055 0.951 . S
H1032 C1057 0.951 . S
H1033 C1059 0.962 . S
H1034 C1060 0.950 1_455 S
H1035 C1062 0.950 . S
H1036 C1065 0.955 . S
H1037 C1066 0.950 . S
H1038 C1068 0.950 . S
H1039 C1069 0.950 . S
C1040 H1022 0.951 . S
C1040 C1041 1.366 . S
C1040 C1042 1.388 . S
C1041 C1040 1.366 . S
C1041 C1045 1.385 . S
C1042 H1023 0.951 . S
C1042 C1040 1.388 . S
C1042 C1043 1.366 . S
C1043 C1042 1.366 . S
C1043 C1044 1.406 1_455 S
C1043 C1046 1.499 . S
C1044 H1024 0.962 . S
C1044 C1043 1.406 1_655 S
C1044 C1045 1.370 1_655 S
C1045 H1025 0.950 1_455 S
C1045 C1041 1.385 . S
C1045 C1044 1.370 1_455 S
C1046 C1043 1.499 . S
C1046 C1047 1.373 1_455 S
C1046 C1048 1.389 . S
C1047 H1026 0.950 . S
C1047 C1046 1.373 1_655 S
C1047 C1063 1.377 . S
C1048 C1046 1.389 . S
C1048 C1049 1.524 . S
C1048 C1062 1.377 . S
C1049 C1048 1.524 . S
C1049 C1050 1.397 . S
C1049 C1054 1.363 . S
C1050 H1027 0.954 . S
C1050 C1049 1.397 . S
C1050 C1051 1.334 . S
C1051 H1028 0.950 . S
C1051 C1050 1.334 . S
C1051 C1052 1.287 . S
C1052 C1051 1.287 . S
C1052 C1053 1.524 . S
C1052 H1071 0.913 . S
C1053 H1029 0.950 . S
C1053 C1052 1.524 . S
C1053 C1054 1.415 . S
C1054 H1030 0.950 . S
C1054 C1049 1.363 . S
C1054 C1053 1.415 . S
C1055 H1031 0.951 . S
C1055 C1056 1.366 . S
C1055 C1057 1.388 . S
C1056 C1055 1.366 . S
C1056 C1060 1.385 . S
C1057 H1032 0.951 . S
C1057 C1055 1.388 . S
C1057 C1058 1.366 . S
C1058 C1057 1.366 . S
C1058 C1059 1.406 1_655 S
C1058 C1061 1.499 . S
C1059 H1033 0.962 . S
C1059 C1058 1.406 1_455 S
C1059 C1060 1.370 1_455 S
C1060 H1034 0.950 1_655 S
C1060 C1056 1.385 . S
C1060 C1059 1.370 1_655 S
C1061 C1058 1.499 . S
C1061 C1062 1.373 1_655 S
C1061 C1063 1.389 . S
C1062 H1035 0.950 . S
C1062 C1048 1.377 . S
C1062 C1061 1.373 1_455 S
C1063 C1047 1.377 . S
C1063 C1061 1.389 . S
C1063 C1064 1.524 . S
C1064 C1063 1.524 . S
C1064 C1065 1.397 . S
C1064 C1069 1.363 . S
C1065 H1036 0.955 . S
C1065 C1064 1.397 . S
C1065 C1066 1.334 . S
C1066 H1037 0.950 . S
C1066 C1065 1.334 . S
C1066 C1067 1.287 . S
C1067 C1066 1.287 . S
C1067 C1068 1.524 . S
C1067 H1070 0.999 . S
C1068 H1038 0.950 . S
C1068 C1067 1.524 . S
C1068 C1069 1.415 . S
C1069 H1039 0.950 . S
C1069 C1064 1.363 . S
C1069 C1068 1.415 . S
H1070 C1067 0.999 . S
H1071 C1052 0.913 . S
H1072 C1090 0.951 . S
H1073 C1092 0.951 1_655 S
H1074 C1094 0.950 . S
H1075 C1095 0.950 . S
H1076 C1097 0.950 . S
H1077 C1100 0.950 . S
H1078 C1101 0.950 . S
H1079 C1103 0.950 . S
H1080 C1104 0.950 . S
H1081 C1105 0.951 . S
H1082 C1107 0.951 1_455 S
H1083 C1109 0.950 . S
H1084 C1110 0.950 . S
H1085 C1112 0.950 . S
H1086 C1115 0.950 . S
H1087 C1116 0.950 . S
H1088 C1118 0.950 . S
H1089 C1119 0.950 . S
C1090 H1072 0.951 . S
C1090 C1091 1.366 . S
C1090 C1092 1.388 . S
C1091 C1090 1.366 . S
C1091 C1095 1.385 . S
C1092 H1073 0.951 1_455 S
C1092 C1090 1.388 . S
C1092 C1093 1.366 . S
C1093 C1092 1.366 . S
C1093 C1094 1.414 . S
C1093 C1096 1.499 . S
C1094 H1074 0.950 . S
C1094 C1093 1.414 . S
C1094 C1095 1.374 . S
C1095 H1075 0.950 . S
C1095 C1091 1.385 . S
C1095 C1094 1.374 . S
C1096 C1093 1.499 . S
C1096 C1097 1.373 . S
C1096 C1098 1.389 1_455 S
C1097 H1076 0.950 . S
C1097 C1096 1.373 . S
C1097 C1113 1.377 . S
C1098 C1096 1.389 1_655 S
C1098 C1099 1.524 . S
C1098 C1112 1.377 . S
C1099 C1098 1.524 . S
C1099 C1100 1.397 . S
C1099 C1104 1.363 . S
C1100 H1077 0.950 . S
C1100 C1099 1.397 . S
C1100 C1101 1.334 . S
C1101 H1078 0.950 . S
C1101 C1100 1.334 . S
C1101 C1102 1.287 . S
C1102 C1101 1.287 . S
C1102 C1103 1.524 . S
C1102 H1121 0.913 . S
C1103 H1079 0.950 . S
C1103 C1102 1.524 . S
C1103 C1104 1.415 . S
C1104 H1080 0.950 . S
C1104 C1099 1.363 . S
C1104 C1103 1.415 . S
C1105 H1081 0.951 . S
C1105 C1106 1.366 . S
C1105 C1107 1.388 . S
C1106 C1105 1.366 . S
C1106 C1110 1.385 . S
C1107 H1082 0.951 1_655 S
C1107 C1105 1.388 . S
C1107 C1108 1.366 . S
C1108 C1107 1.366 . S
C1108 C1109 1.414 . S
C1108 C1111 1.499 . S
C1109 H1083 0.950 . S
C1109 C1108 1.414 . S
C1109 C1110 1.374 . S
C1110 H1084 0.950 . S
C1110 C1106 1.385 . S
C1110 C1109 1.374 . S
C1111 C1108 1.499 . S
C1111 C1112 1.373 . S
C1111 C1113 1.389 1_655 S
C1112 H1085 0.950 . S
C1112 C1098 1.377 . S
C1112 C1111 1.373 . S
C1113 C1097 1.377 . S
C1113 C1111 1.389 1_455 S
C1113 C1114 1.524 . S
C1114 C1113 1.524 . S
C1114 C1115 1.397 . S
C1114 C1119 1.363 . S
C1115 H1086 0.950 . S
C1115 C1114 1.397 . S
C1115 C1116 1.334 . S
C1116 H1087 0.950 . S
C1116 C1115 1.334 . S
C1116 C1117 1.287 . S
C1117 C1116 1.287 . S
C1117 C1118 1.524 . S
C1117 H1120 0.999 . S
C1118 H1088 0.950 . S
C1118 C1117 1.524 . S
C1118 C1119 1.415 . S
C1119 H1089 0.950 . S
C1119 C1114 1.363 . S
C1119 C1118 1.415 . S
H1120 C1117 0.999 . S
H1121 C1102 0.913 . S
H1122 C1140 0.951 . S
H1123 C1142 0.951 . S
H1124 C1144 0.950 . S
H1125 C1145 0.950 . S
H1126 C1147 0.950 . S
H1127 C1150 0.950 . S
H1128 C1151 0.950 . S
H1129 C1153 0.950 . S
H1130 C1154 0.950 . S
H1131 C1155 0.951 . S
H1132 C1157 0.951 . S
H1133 C1159 0.950 . S
H1134 C1160 0.950 . S
H1135 C1162 0.950 . S
H1136 C1165 0.950 . S
H1137 C1166 0.950 . S
H1138 C1168 0.950 . S
H1139 C1169 0.950 . S
C1140 H1122 0.951 . S
C1140 C1141 1.366 . S
C1140 C1142 1.388 . S
C1141 C1140 1.366 . S
C1141 C1145 1.385 . S
C1142 H1123 0.951 . S
C1142 C1140 1.388 . S
C1142 C1143 1.366 . S
C1143 C1142 1.366 . S
C1143 C1144 1.414 . S
C1143 C1146 1.499 . S
C1144 H1124 0.950 . S
C1144 C1143 1.414 . S
C1144 C1145 1.374 . S
C1145 H1125 0.950 . S
C1145 C1141 1.385 . S
C1145 C1144 1.374 . S
C1146 C1143 1.499 . S
C1146 C1147 1.373 1_545 S
C1146 C1148 1.389 . S
C1147 H1126 0.950 . S
C1147 C1146 1.373 1_565 S
C1147 C1163 1.377 . S
C1148 C1146 1.389 . S
C1148 C1149 1.524 . S
C1148 C1162 1.377 . S
C1149 C1148 1.524 . S
C1149 C1150 1.397 . S
C1149 C1154 1.363 . S
C1150 H1127 0.950 . S
C1150 C1149 1.397 . S
C1150 C1151 1.334 . S
C1151 H1128 0.950 . S
C1151 C1150 1.334 . S
C1151 C1152 1.287 . S
C1152 C1151 1.287 . S
C1152 C1153 1.524 . S
C1152 H1171 0.913 . S
C1153 H1129 0.950 . S
C1153 C1152 1.524 . S
C1153 C1154 1.415 . S
C1154 H1130 0.950 . S
C1154 C1149 1.363 . S
C1154 C1153 1.415 . S
C1155 H1131 0.951 . S
C1155 C1156 1.366 . S
C1155 C1157 1.388 . S
C1156 C1155 1.366 . S
C1156 C1160 1.385 . S
C1157 H1132 0.951 . S
C1157 C1155 1.388 . S
C1157 C1158 1.366 . S
C1158 C1157 1.366 . S
C1158 C1159 1.414 . S
C1158 C1161 1.499 . S
C1159 H1133 0.950 . S
C1159 C1158 1.414 . S
C1159 C1160 1.374 . S
C1160 H1134 0.950 . S
C1160 C1156 1.385 . S
C1160 C1159 1.374 . S
C1161 C1158 1.499 . S
C1161 C1162 1.373 1_565 S
C1161 C1163 1.389 . S
C1162 H1135 0.950 . S
C1162 C1148 1.377 . S
C1162 C1161 1.373 1_545 S
C1163 C1147 1.377 . S
C1163 C1161 1.389 . S
C1163 C1164 1.524 . S
C1164 C1163 1.524 . S
C1164 C1165 1.397 . S
C1164 C1169 1.363 . S
C1165 H1136 0.950 . S
C1165 C1164 1.397 . S
C1165 C1166 1.334 . S
C1166 H1137 0.950 . S
C1166 C1165 1.334 . S
C1166 C1167 1.287 . S
C1167 C1166 1.287 . S
C1167 C1168 1.524 . S
C1167 H1170 0.999 . S
C1168 H1138 0.950 . S
C1168 C1167 1.524 . S
C1168 C1169 1.415 . S
C1169 H1139 0.950 . S
C1169 C1164 1.363 . S
C1169 C1168 1.415 . S
H1170 C1167 0.999 . S
H1171 C1152 0.913 . S
H1172 C1190 0.951 . S
H1173 C1192 0.951 . S
H1174 C1194 0.950 . S
H1175 C1195 0.950 . S
H1176 C1197 0.950 . S
H1177 C1200 0.950 . S
H1178 C1201 0.950 . S
H1179 C1203 0.950 . S
H1180 C1204 0.950 . S
H1181 C1205 0.951 . S
H1182 C1207 0.951 . S
H1183 C1209 0.950 . S
H1184 C1210 0.950 . S
H1185 C1212 0.950 . S
H1186 C1215 0.950 . S
H1187 C1216 0.950 . S
H1188 C1218 0.950 . S
H1189 C1219 0.950 . S
C1190 H1172 0.951 . S
C1190 C1191 1.366 . S
C1190 C1192 1.388 . S
C1191 C1190 1.366 . S
C1191 C1195 1.385 . S
C1192 H1173 0.951 . S
C1192 C1190 1.388 . S
C1192 C1193 1.366 . S
C1193 C1192 1.366 . S
C1193 C1194 1.414 . S
C1193 C1196 1.499 . S
C1194 H1174 0.950 . S
C1194 C1193 1.414 . S
C1194 C1195 1.374 . S
C1195 H1175 0.950 . S
C1195 C1191 1.385 . S
C1195 C1194 1.374 . S
C1196 C1193 1.499 . S
C1196 C1197 1.373 . S
C1196 C1198 1.389 . S
C1197 H1176 0.950 . S
C1197 C1196 1.373 . S
C1197 C1213 1.377 . S
C1198 C1196 1.389 . S
C1198 C1199 1.524 . S
C1198 C1212 1.377 . S
C1199 C1198 1.524 . S
C1199 C1200 1.397 . S
C1199 C1204 1.363 . S
C1200 H1177 0.950 . S
C1200 C1199 1.397 . S
C1200 C1201 1.334 . S
C1201 H1178 0.950 . S
C1201 C1200 1.334 . S
C1201 C1202 1.287 . S
C1202 C1201 1.287 . S
C1202 C1203 1.524 . S
C1202 H1221 0.913 . S
C1203 H1179 0.950 . S
C1203 C1202 1.524 . S
C1203 C1204 1.415 . S
C1204 H1180 0.950 . S
C1204 C1199 1.363 . S
C1204 C1203 1.415 . S
C1205 H1181 0.951 . S
C1205 C1206 1.366 . S
C1205 C1207 1.388 . S
C1206 C1205 1.366 . S
C1206 C1210 1.385 . S
C1207 H1182 0.951 . S
C1207 C1205 1.388 . S
C1207 C1208 1.366 . S
C1208 C1207 1.366 . S
C1208 C1209 1.414 . S
C1208 C1211 1.499 . S
C1209 H1183 0.950 . S
C1209 C1208 1.414 . S
C1209 C1210 1.374 . S
C1210 H1184 0.950 . S
C1210 C1206 1.385 . S
C1210 C1209 1.374 . S
C1211 C1208 1.499 . S
C1211 C1212 1.373 . S
C1211 C1213 1.389 . S
C1212 H1185 0.950 . S
C1212 C1198 1.377 . S
C1212 C1211 1.373 . S
C1213 C1197 1.377 . S
C1213 C1211 1.389 . S
C1213 C1214 1.524 . S
C1214 C1213 1.524 . S
C1214 C1215 1.397 . S
C1214 C1219 1.363 . S
C1215 H1186 0.950 . S
C1215 C1214 1.397 . S
C1215 C1216 1.334 . S
C1216 H1187 0.950 . S
C1216 C1215 1.334 . S
C1216 C1217 1.287 . S
C1217 C1216 1.287 . S
C1217 C1218 1.524 . S
C1217 H1220 0.999 . S
C1218 H1188 0.950 . S
C1218 C1217 1.524 . S
C1218 C1219 1.415 . S
C1219 H1189 0.950 . S
C1219 C1214 1.363 . S
C1219 C1218 1.415 . S
H1220 C1217 0.999 . S
H1221 C1202 0.913 . S
H1222 C1240 0.951 . S
H1223 C1242 0.951 . S
H1224 C1244 0.950 . S
H1225 C1245 0.950 . S
H1226 C1247 0.950 . S
H1227 C1250 0.950 . S
H1228 C1251 0.950 . S
H1229 C1253 0.950 . S
H1230 C1254 0.950 . S
H1231 C1255 0.951 . S
H1232 C1257 0.951 . S
H1233 C1259 0.950 . S
H1234 C1260 0.950 . S
H1235 C1262 0.950 . S
H1236 C1265 0.950 . S
H1237 C1266 0.950 . S
H1238 C1268 0.950 . S
H1239 C1269 0.950 . S
C1240 H1222 0.951 . S
C1240 C1241 1.366 . S
C1240 C1242 1.388 . S
C1241 C1240 1.366 . S
C1241 C1245 1.385 . S
C1242 H1223 0.951 . S
C1242 C1240 1.388 . S
C1242 C1243 1.366 . S
C1243 C1242 1.366 . S
C1243 C1244 1.414 . S
C1243 C1246 1.499 . S
C1244 H1224 0.950 . S
C1244 C1243 1.414 . S
C1244 C1245 1.374 . S
C1245 H1225 0.950 . S
C1245 C1241 1.385 . S
C1245 C1244 1.374 . S
C1246 C1243 1.499 . S
C1246 C1247 1.373 . S
C1246 C1248 1.389 1_556 S
C1247 H1226 0.950 . S
C1247 C1246 1.373 . S
C1247 C1263 1.377 . S
C1248 C1246 1.389 1_554 S
C1248 C1249 1.524 . S
C1248 C1262 1.377 . S
C1249 C1248 1.524 . S
C1249 C1250 1.397 . S
C1249 C1254 1.363 . S
C1250 H1227 0.950 . S
C1250 C1249 1.397 . S
C1250 C1251 1.334 . S
C1251 H1228 0.950 . S
C1251 C1250 1.334 . S
C1251 C1252 1.287 . S
C1252 C1251 1.287 . S
C1252 C1253 1.524 . S
C1252 H1271 0.913 . S
C1253 H1229 0.950 . S
C1253 C1252 1.524 . S
C1253 C1254 1.415 . S
C1254 H1230 0.950 . S
C1254 C1249 1.363 . S
C1254 C1253 1.415 . S
C1255 H1231 0.951 . S
C1255 C1256 1.366 . S
C1255 C1257 1.388 . S
C1256 C1255 1.366 . S
C1256 C1260 1.385 . S
C1257 H1232 0.951 . S
C1257 C1255 1.388 . S
C1257 C1258 1.366 . S
C1258 C1257 1.366 . S
C1258 C1259 1.414 . S
C1258 C1261 1.499 . S
C1259 H1233 0.950 . S
C1259 C1258 1.414 . S
C1259 C1260 1.374 . S
C1260 H1234 0.950 . S
C1260 C1256 1.385 . S
C1260 C1259 1.374 . S
C1261 C1258 1.499 . S
C1261 C1262 1.373 . S
C1261 C1263 1.389 1_554 S
C1262 H1235 0.950 . S
C1262 C1248 1.377 . S
C1262 C1261 1.373 . S
C1263 C1247 1.377 . S
C1263 C1261 1.389 1_556 S
C1263 C1264 1.524 . S
C1264 C1263 1.524 . S
C1264 C1265 1.397 . S
C1264 C1269 1.363 . S
C1265 H1236 0.950 . S
C1265 C1264 1.397 . S
C1265 C1266 1.334 . S
C1266 H1237 0.950 . S
C1266 C1265 1.334 . S
C1266 C1267 1.287 . S
C1267 C1266 1.287 . S
C1267 C1268 1.524 . S
C1267 H1270 0.999 . S
C1268 H1238 0.950 . S
C1268 C1267 1.524 . S
C1268 C1269 1.415 . S
C1269 H1239 0.950 . S
C1269 C1264 1.363 . S
C1269 C1268 1.415 . S
H1270 C1267 0.999 . S
H1271 C1252 0.913 . S
H1272 C1290 0.951 . S
H1273 C1292 0.951 . S
H1274 C1294 0.950 . S
H1275 C1295 0.950 . S
H1276 C1297 0.950 . S
H1277 C1300 0.950 . S
H1278 C1301 0.950 . S
H1279 C1303 0.950 . S
H1280 C1304 0.950 . S
H1281 C1305 0.951 . S
H1282 C1307 0.951 . S
H1283 C1309 0.950 . S
H1284 C1310 0.950 . S
H1285 C1312 0.950 . S
H1286 C1315 0.950 . S
H1287 C1316 0.950 . S
H1288 C1318 0.950 . S
H1289 C1319 0.950 . S
C1290 H1272 0.951 . S
C1290 C1291 1.366 . S
C1290 C1292 1.388 . S
C1291 C1290 1.366 . S
C1291 C1295 1.385 . S
C1292 H1273 0.951 . S
C1292 C1290 1.388 . S
C1292 C1293 1.366 . S
C1293 C1292 1.366 . S
C1293 C1294 1.414 . S
C1293 C1296 1.499 . S
C1294 H1274 0.950 . S
C1294 C1293 1.414 . S
C1294 C1295 1.374 . S
C1295 H1275 0.950 . S
C1295 C1291 1.385 . S
C1295 C1294 1.374 . S
C1296 C1293 1.499 . S
C1296 C1297 1.373 . S
C1296 C1298 1.389 . S
C1297 H1276 0.950 . S
C1297 C1296 1.373 . S
C1297 C1313 1.377 . S
C1298 C1296 1.389 . S
C1298 C1299 1.524 . S
C1298 C1312 1.377 . S
C1299 C1298 1.524 . S
C1299 C1300 1.397 . S
C1299 C1304 1.363 . S
C1300 H1277 0.950 . S
C1300 C1299 1.397 . S
C1300 C1301 1.334 . S
C1301 H1278 0.950 . S
C1301 C1300 1.334 . S
C1301 C1302 1.287 . S
C1302 C1301 1.287 . S
C1302 C1303 1.524 . S
C1302 H1321 0.913 . S
C1303 H1279 0.950 . S
C1303 C1302 1.524 . S
C1303 C1304 1.415 . S
C1304 H1280 0.950 . S
C1304 C1299 1.363 . S
C1304 C1303 1.415 . S
C1305 H1281 0.951 . S
C1305 C1306 1.366 . S
C1305 C1307 1.388 . S
C1306 C1305 1.366 . S
C1306 C1310 1.385 . S
C1307 H1282 0.951 . S
C1307 C1305 1.388 . S
C1307 C1308 1.366 . S
C1308 C1307 1.366 . S
C1308 C1309 1.414 . S
C1308 C1311 1.499 . S
C1309 H1283 0.950 . S
C1309 C1308 1.414 . S
C1309 C1310 1.374 . S
C1310 H1284 0.950 . S
C1310 C1306 1.385 . S
C1310 C1309 1.374 . S
C1311 C1308 1.499 . S
C1311 C1312 1.373 . S
C1311 C1313 1.389 . S
C1312 H1285 0.950 . S
C1312 C1298 1.377 . S
C1312 C1311 1.373 . S
C1313 C1297 1.377 . S
C1313 C1311 1.389 . S
C1313 C1314 1.524 . S
C1314 C1313 1.524 . S
C1314 C1315 1.397 . S
C1314 C1319 1.363 . S
C1315 H1286 0.950 . S
C1315 C1314 1.397 . S
C1315 C1316 1.334 . S
C1316 H1287 0.950 . S
C1316 C1315 1.334 . S
C1316 C1317 1.287 . S
C1317 C1316 1.287 . S
C1317 C1318 1.524 . S
C1317 H1320 0.999 . S
C1318 H1288 0.950 . S
C1318 C1317 1.524 . S
C1318 C1319 1.415 . S
C1319 H1289 0.950 . S
C1319 C1314 1.363 . S
C1319 C1318 1.415 . S
H1320 C1317 0.999 . S
H1321 C1302 0.913 . S
H1322 C1340 0.951 . S
H1323 C1342 0.951 . S
H1324 C1344 0.950 . S
H1325 C1345 0.950 . S
H1326 C1347 0.950 . S
H1327 C1350 0.950 . S
H1328 C1351 0.950 . S
H1329 C1353 0.950 . S
H1330 C1354 0.950 . S
H1331 C1355 0.951 . S
H1332 C1357 0.951 . S
H1333 C1359 0.950 . S
H1334 C1360 0.950 . S
H1335 C1362 0.950 . S
H1336 C1365 0.950 . S
H1337 C1366 0.950 . S
H1338 C1368 0.950 . S
H1339 C1369 0.950 . S
C1340 H1322 0.951 . S
C1340 C1341 1.366 . S
C1340 C1342 1.388 . S
C1341 C1340 1.366 . S
C1341 C1345 1.385 . S
C1342 H1323 0.951 . S
C1342 C1340 1.388 . S
C1342 C1343 1.366 . S
C1343 C1342 1.366 . S
C1343 C1344 1.414 . S
C1343 C1346 1.499 . S
C1344 H1324 0.950 . S
C1344 C1343 1.414 . S
C1344 C1345 1.374 . S
C1345 H1325 0.950 . S
C1345 C1341 1.385 . S
C1345 C1344 1.374 . S
C1346 C1343 1.499 . S
C1346 C1347 1.373 . S
C1346 C1348 1.389 . S
C1347 H1326 0.950 . S
C1347 C1346 1.373 . S
C1347 C1363 1.377 . S
C1348 C1346 1.389 . S
C1348 C1349 1.524 . S
C1348 C1362 1.377 . S
C1349 C1348 1.524 . S
C1349 C1350 1.397 . S
C1349 C1354 1.363 . S
C1350 H1327 0.950 . S
C1350 C1349 1.397 . S
C1350 C1351 1.334 . S
C1351 H1328 0.950 . S
C1351 C1350 1.334 . S
C1351 C1352 1.287 . S
C1352 C1351 1.287 . S
C1352 C1353 1.524 . S
C1352 H1371 0.913 . S
C1353 H1329 0.950 . S
C1353 C1352 1.524 . S
C1353 C1354 1.415 . S
C1354 H1330 0.950 . S
C1354 C1349 1.363 . S
C1354 C1353 1.415 . S
C1355 H1331 0.951 . S
C1355 C1356 1.366 . S
C1355 C1357 1.388 . S
C1356 C1355 1.366 . S
C1356 C1360 1.385 . S
C1357 H1332 0.951 . S
C1357 C1355 1.388 . S
C1357 C1358 1.366 . S
C1358 C1357 1.366 . S
C1358 C1359 1.414 . S
C1358 C1361 1.499 . S
C1359 H1333 0.950 . S
C1359 C1358 1.414 . S
C1359 C1360 1.374 . S
C1360 H1334 0.950 . S
C1360 C1356 1.385 . S
C1360 C1359 1.374 . S
C1361 C1358 1.499 . S
C1361 C1362 1.373 . S
C1361 C1363 1.389 . S
C1362 H1335 0.950 . S
C1362 C1348 1.377 . S
C1362 C1361 1.373 . S
C1363 C1347 1.377 . S
C1363 C1361 1.389 . S
C1363 C1364 1.524 . S
C1364 C1363 1.524 . S
C1364 C1365 1.397 . S
C1364 C1369 1.363 . S
C1365 H1336 0.950 . S
C1365 C1364 1.397 . S
C1365 C1366 1.334 . S
C1366 H1337 0.950 . S
C1366 C1365 1.334 . S
C1366 C1367 1.287 . S
C1367 C1366 1.287 . S
C1367 C1368 1.524 . S
C1367 H1370 0.999 . S
C1368 H1338 0.950 . S
C1368 C1367 1.524 . S
C1368 C1369 1.415 . S
C1369 H1339 0.950 . S
C1369 C1364 1.363 . S
C1369 C1368 1.415 . S
H1370 C1367 0.999 . S
H1371 C1352 0.913 . S
H1372 C1390 0.951 . S
H1373 C1392 0.951 . S
H1374 C1394 0.950 . S
H1375 C1395 0.950 . S
H1376 C1397 0.950 . S
H1377 C1400 0.950 . S
H1378 C1401 0.950 . S
H1379 C1403 0.950 . S
H1380 C1404 0.950 . S
H1381 C1405 0.951 . S
H1382 C1407 0.951 . S
H1383 C1409 0.950 . S
H1384 C1410 0.950 . S
H1385 C1412 0.950 . S
H1386 C1415 0.950 . S
H1387 C1416 0.950 . S
H1388 C1418 0.950 . S
H1389 C1419 0.950 . S
C1390 H1372 0.951 . S
C1390 C1391 1.366 . S
C1390 C1392 1.388 . S
C1391 C1390 1.366 . S
C1391 C1395 1.385 . S
C1392 H1373 0.951 . S
C1392 C1390 1.388 . S
C1392 C1393 1.366 . S
C1393 C1392 1.366 . S
C1393 C1394 1.414 . S
C1393 C1396 1.499 . S
C1394 H1374 0.950 . S
C1394 C1393 1.414 . S
C1394 C1395 1.374 . S
C1395 H1375 0.950 . S
C1395 C1391 1.385 . S
C1395 C1394 1.374 . S
C1396 C1393 1.499 . S
C1396 C1397 1.373 . S
C1396 C1398 1.389 . S
C1397 H1376 0.950 . S
C1397 C1396 1.373 . S
C1397 C1413 1.377 . S
C1398 C1396 1.389 . S
C1398 C1399 1.524 . S
C1398 C1412 1.377 . S
C1399 C1398 1.524 . S
C1399 C1400 1.397 . S
C1399 C1404 1.363 . S
C1400 H1377 0.950 . S
C1400 C1399 1.397 . S
C1400 C1401 1.334 . S
C1401 H1378 0.950 . S
C1401 C1400 1.334 . S
C1401 C1402 1.287 . S
C1402 C1401 1.287 . S
C1402 C1403 1.524 . S
C1402 H1421 0.913 . S
C1403 H1379 0.950 . S
C1403 C1402 1.524 . S
C1403 C1404 1.415 . S
C1404 H1380 0.950 . S
C1404 C1399 1.363 . S
C1404 C1403 1.415 . S
C1405 H1381 0.951 . S
C1405 C1406 1.366 . S
C1405 C1407 1.388 . S
C1406 C1405 1.366 . S
C1406 C1410 1.385 . S
C1407 H1382 0.951 . S
C1407 C1405 1.388 . S
C1407 C1408 1.366 . S
C1408 C1407 1.366 . S
C1408 C1409 1.414 . S
C1408 C1411 1.499 . S
C1409 H1383 0.950 . S
C1409 C1408 1.414 . S
C1409 C1410 1.374 . S
C1410 H1384 0.950 . S
C1410 C1406 1.385 . S
C1410 C1409 1.374 . S
C1411 C1408 1.499 . S
C1411 C1412 1.373 . S
C1411 C1413 1.389 . S
C1412 H1385 0.950 . S
C1412 C1398 1.377 . S
C1412 C1411 1.373 . S
C1413 C1397 1.377 . S
C1413 C1411 1.389 . S
C1413 C1414 1.524 . S
C1414 C1413 1.524 . S
C1414 C1415 1.397 . S
C1414 C1419 1.363 . S
C1415 H1386 0.950 . S
C1415 C1414 1.397 . S
C1415 C1416 1.334 . S
C1416 H1387 0.950 . S
C1416 C1415 1.334 . S
C1416 C1417 1.287 . S
C1417 C1416 1.287 . S
C1417 C1418 1.524 . S
C1417 H1420 0.999 . S
C1418 H1388 0.950 . S
C1418 C1417 1.524 . S
C1418 C1419 1.415 . S
C1419 H1389 0.950 . S
C1419 C1414 1.363 . S
C1419 C1418 1.415 . S
H1420 C1417 0.999 . S
H1421 C1402 0.913 . S
H1422 C1440 0.951 . S
H1423 C1442 0.951 . S
H1424 C1444 0.950 . S
H1425 C1445 0.950 . S
H1426 C1447 0.950 . S
H1427 C1450 0.950 . S
H1428 C1451 0.950 . S
H1429 C1453 0.950 . S
H1430 C1454 0.950 . S
H1431 C1455 0.951 . S
H1432 C1457 0.951 . S
H1433 C1459 0.950 . S
H1434 C1460 0.950 . S
H1435 C1462 0.950 . S
H1436 C1465 0.950 . S
H1437 C1466 0.950 . S
H1438 C1468 0.950 . S
H1439 C1469 0.950 . S
C1440 H1422 0.951 . S
C1440 C1441 1.366 . S
C1440 C1442 1.388 . S
C1441 C1440 1.366 . S
C1441 C1445 1.385 . S
C1442 H1423 0.951 . S
C1442 C1440 1.388 . S
C1442 C1443 1.366 . S
C1443 C1442 1.366 . S
C1443 C1444 1.414 . S
C1443 C1446 1.499 . S
C1444 H1424 0.950 . S
C1444 C1443 1.414 . S
C1444 C1445 1.374 . S
C1445 H1425 0.950 . S
C1445 C1441 1.385 . S
C1445 C1444 1.374 . S
C1446 C1443 1.499 . S
C1446 C1447 1.373 . S
C1446 C1448 1.389 . S
C1447 H1426 0.950 . S
C1447 C1446 1.373 . S
C1447 C1463 1.377 . S
C1448 C1446 1.389 . S
C1448 C1449 1.524 . S
C1448 C1462 1.377 . S
C1449 C1448 1.524 . S
C1449 C1450 1.397 . S
C1449 C1454 1.363 . S
C1450 H1427 0.950 . S
C1450 C1449 1.397 . S
C1450 C1451 1.334 . S
C1451 H1428 0.950 . S
C1451 C1450 1.334 . S
C1451 C1452 1.287 . S
C1452 C1451 1.287 . S
C1452 C1453 1.524 . S
C1452 H1471 0.913 . S
C1453 H1429 0.950 . S
C1453 C1452 1.524 . S
C1453 C1454 1.415 . S
C1454 H1430 0.950 . S
C1454 C1449 1.363 . S
C1454 C1453 1.415 . S
C1455 H1431 0.951 . S
C1455 C1456 1.366 . S
C1455 C1457 1.388 . S
C1456 C1455 1.366 . S
C1456 C1460 1.385 . S
C1457 H1432 0.951 . S
C1457 C1455 1.388 . S
C1457 C1458 1.366 . S
C1458 C1457 1.366 . S
C1458 C1459 1.414 . S
C1458 C1461 1.499 . S
C1459 H1433 0.950 . S
C1459 C1458 1.414 . S
C1459 C1460 1.374 . S
C1460 H1434 0.950 . S
C1460 C1456 1.385 . S
C1460 C1459 1.374 . S
C1461 C1458 1.499 . S
C1461 C1462 1.373 . S
C1461 C1463 1.389 . S
C1462 H1435 0.950 . S
C1462 C1448 1.377 . S
C1462 C1461 1.373 . S
C1463 C1447 1.377 . S
C1463 C1461 1.389 . S
C1463 C1464 1.524 . S
C1464 C1463 1.524 . S
C1464 C1465 1.397 . S
C1464 C1469 1.363 . S
C1465 H1436 0.950 . S
C1465 C1464 1.397 . S
C1465 C1466 1.334 . S
C1466 H1437 0.950 . S
C1466 C1465 1.334 . S
C1466 C1467 1.287 . S
C1467 C1466 1.287 . S
C1467 C1468 1.524 . S
C1467 H1470 0.999 . S
C1468 H1438 0.950 . S
C1468 C1467 1.524 . S
C1468 C1469 1.415 . S
C1469 H1439 0.950 . S
C1469 C1464 1.363 . S
C1469 C1468 1.415 . S
H1470 C1467 0.999 . S
H1471 C1452 0.913 . S
H1472 C1490 0.951 . S
H1473 C1492 0.951 . S
H1474 C1494 0.950 . S
H1475 C1495 0.950 . S
H1476 C1497 0.950 . S
H1477 C1500 0.950 . S
H1478 C1501 0.950 . S
H1479 C1503 0.950 . S
H1480 C1504 0.950 . S
H1481 C1505 0.951 . S
H1482 C1507 0.951 . S
H1483 C1509 0.950 . S
H1484 C1510 0.950 . S
H1485 C1512 0.950 . S
H1486 C1515 0.950 . S
H1487 C1516 0.950 . S
H1488 C1518 0.950 . S
H1489 C1519 0.950 . S
C1490 H1472 0.951 . S
C1490 C1491 1.366 . S
C1490 C1492 1.388 . S
C1491 C1490 1.366 . S
C1491 C1495 1.385 . S
C1492 H1473 0.951 . S
C1492 C1490 1.388 . S
C1492 C1493 1.366 . S
C1493 C1492 1.366 . S
C1493 C1494 1.414 . S
C1493 C1496 1.499 . S
C1494 H1474 0.950 . S
C1494 C1493 1.414 . S
C1494 C1495 1.374 . S
C1495 H1475 0.950 . S
C1495 C1491 1.385 . S
C1495 C1494 1.374 . S
C1496 C1493 1.499 . S
C1496 C1497 1.373 . S
C1496 C1498 1.389 . S
C1497 H1476 0.950 . S
C1497 C1496 1.373 . S
C1497 C1513 1.377 . S
C1498 C1496 1.389 . S
C1498 C1499 1.524 . S
C1498 C1512 1.377 . S
C1499 C1498 1.524 . S
C1499 C1500 1.397 . S
C1499 C1504 1.363 . S
C1500 H1477 0.950 . S
C1500 C1499 1.397 . S
C1500 C1501 1.334 . S
C1501 H1478 0.950 . S
C1501 C1500 1.334 . S
C1501 C1502 1.287 . S
C1502 C1501 1.287 . S
C1502 C1503 1.524 . S
C1502 H1521 0.913 . S
C1503 H1479 0.950 . S
C1503 C1502 1.524 . S
C1503 C1504 1.415 . S
C1504 H1480 0.950 . S
C1504 C1499 1.363 . S
C1504 C1503 1.415 . S
C1505 H1481 0.951 . S
C1505 C1506 1.366 . S
C1505 C1507 1.388 . S
C1506 C1505 1.366 . S
C1506 C1510 1.385 . S
C1507 H1482 0.951 . S
C1507 C1505 1.388 . S
C1507 C1508 1.366 . S
C1508 C1507 1.366 . S
C1508 C1509 1.414 . S
C1508 C1511 1.499 . S
C1509 H1483 0.950 . S
C1509 C1508 1.414 . S
C1509 C1510 1.374 . S
C1510 H1484 0.950 . S
C1510 C1506 1.385 . S
C1510 C1509 1.374 . S
C1511 C1508 1.499 . S
C1511 C1512 1.373 . S
C1511 C1513 1.389 . S
C1512 H1485 0.950 . S
C1512 C1498 1.377 . S
C1512 C1511 1.373 . S
C1513 C1497 1.377 . S
C1513 C1511 1.389 . S
C1513 C1514 1.524 . S
C1514 C1513 1.524 . S
C1514 C1515 1.397 . S
C1514 C1519 1.363 . S
C1515 H1486 0.950 . S
C1515 C1514 1.397 . S
C1515 C1516 1.334 . S
C1516 H1487 0.950 . S
C1516 C1515 1.334 . S
C1516 C1517 1.287 . S
C1517 C1516 1.287 . S
C1517 C1518 1.524 . S
C1517 H1520 0.999 . S
C1518 H1488 0.950 . S
C1518 C1517 1.524 . S
C1518 C1519 1.415 . S
C1519 H1489 0.950 . S
C1519 C1514 1.363 . S
C1519 C1518 1.415 . S
H1520 C1517 0.999 . S
H1521 C1502 0.913 . S
H1522 C1540 0.951 . S
H1523 C1542 0.951 1_565 S
H1524 C1544 0.950 . S
H1525 C1545 0.950 . S
H1526 C1547 0.950 . S
H1527 C1550 0.950 . S
H1528 C1551 0.950 . S
H1529 C1553 0.950 . S
H1530 C1554 0.950 . S
H1531 C1555 0.951 . S
H1532 C1557 0.951 1_545 S
H1533 C1559 0.950 . S
H1534 C1560 0.950 . S
H1535 C1562 0.950 . S
H1536 C1565 0.950 . S
H1537 C1566 0.950 . S
H1538 C1568 0.950 . S
H1539 C1569 0.950 . S
C1540 H1522 0.951 . S
C1540 C1541 1.366 . S
C1540 C1542 1.388 . S
C1541 C1540 1.366 . S
C1541 C1545 1.385 . S
C1542 H1523 0.951 1_545 S
C1542 C1540 1.388 . S
C1542 C1543 1.366 . S
C1543 C1542 1.366 . S
C1543 C1544 1.414 . S
C1543 C1546 1.499 . S
C1544 H1524 0.950 . S
C1544 C1543 1.414 . S
C1544 C1545 1.374 . S
C1545 H1525 0.950 . S
C1545 C1541 1.385 . S
C1545 C1544 1.374 . S
C1546 C1543 1.499 . S
C1546 C1547 1.373 . S
C1546 C1548 1.389 1_545 S
C1547 H1526 0.950 . S
C1547 C1546 1.373 . S
C1547 C1563 1.377 . S
C1548 C1546 1.389 1_565 S
C1548 C1549 1.524 . S
C1548 C1562 1.377 . S
C1549 C1548 1.524 . S
C1549 C1550 1.397 . S
C1549 C1554 1.363 . S
C1550 H1527 0.950 . S
C1550 C1549 1.397 . S
C1550 C1551 1.334 . S
C1551 H1528 0.950 . S
C1551 C1550 1.334 . S
C1551 C1552 1.287 . S
C1552 C1551 1.287 . S
C1552 C1553 1.524 . S
C1552 H1571 0.913 . S
C1553 H1529 0.950 . S
C1553 C1552 1.524 . S
C1553 C1554 1.415 . S
C1554 H1530 0.950 . S
C1554 C1549 1.363 . S
C1554 C1553 1.415 . S
C1555 H1531 0.951 . S
C1555 C1556 1.366 . S
C1555 C1557 1.388 . S
C1556 C1555 1.366 . S
C1556 C1560 1.385 . S
C1557 H1532 0.951 1_565 S
C1557 C1555 1.388 . S
C1557 C1558 1.366 . S
C1558 C1557 1.366 . S
C1558 C1559 1.414 . S
C1558 C1561 1.499 . S
C1559 H1533 0.950 . S
C1559 C1558 1.414 . S
C1559 C1560 1.374 . S
C1560 H1534 0.950 . S
C1560 C1556 1.385 . S
C1560 C1559 1.374 . S
C1561 C1558 1.499 . S
C1561 C1562 1.373 . S
C1561 C1563 1.389 1_565 S
C1562 H1535 0.950 . S
C1562 C1548 1.377 . S
C1562 C1561 1.373 . S
C1563 C1547 1.377 . S
C1563 C1561 1.389 1_545 S
C1563 C1564 1.524 . S
C1564 C1563 1.524 . S
C1564 C1565 1.397 . S
C1564 C1569 1.363 . S
C1565 H1536 0.950 . S
C1565 C1564 1.397 . S
C1565 C1566 1.334 . S
C1566 H1537 0.950 . S
C1566 C1565 1.334 . S
C1566 C1567 1.287 . S
C1567 C1566 1.287 . S
C1567 C1568 1.524 . S
C1567 H1570 0.999 . S
C1568 H1538 0.950 . S
C1568 C1567 1.524 . S
C1568 C1569 1.415 . S
C1569 H1539 0.950 . S
C1569 C1564 1.363 . S
C1569 C1568 1.415 . S
H1570 C1567 0.999 . S
H1571 C1552 0.913 . S
H1572 C1590 0.951 1_556 S
H1573 C1592 0.943 1_556 S
H1574 C1594 0.950 . S
H1575 C1595 0.950 . S
H1576 C1597 0.950 . S
H1577 C1600 0.950 1_554 S
H1578 C1601 0.950 . S
H1579 C1603 0.950 . S
H1580 C1604 0.950 . S
H1581 C1605 0.951 1_554 S
H1582 C1607 0.944 1_554 S
H1583 C1609 0.950 . S
H1584 C1610 0.950 . S
H1585 C1612 0.950 . S
H1586 C1615 0.950 1_556 S
H1587 C1616 0.950 . S
H1588 C1618 0.950 . S
H1589 C1619 0.950 . S
C1590 H1572 0.951 1_554 S
C1590 C1591 1.366 . S
C1590 C1592 1.390 . S
C1591 C1590 1.366 . S
C1591 C1595 1.385 . S
C1592 H1573 0.943 1_554 S
C1592 C1590 1.390 . S
C1592 C1593 1.371 . S
C1593 C1592 1.371 . S
C1593 C1594 1.414 . S
C1593 C1596 1.499 . S
C1594 H1574 0.950 . S
C1594 C1593 1.414 . S
C1594 C1595 1.374 . S
C1595 H1575 0.950 . S
C1595 C1591 1.385 . S
C1595 C1594 1.374 . S
C1596 C1593 1.499 . S
C1596 C1597 1.373 . S
C1596 C1598 1.389 1_554 S
C1597 H1576 0.950 . S
C1597 C1596 1.373 . S
C1597 C1613 1.377 . S
C1598 C1596 1.389 1_556 S
C1598 C1599 1.524 . S
C1598 C1612 1.377 . S
C1599 C1598 1.524 . S
C1599 C1600 1.397 . S
C1599 C1604 1.363 . S
C1600 H1577 0.950 1_556 S
C1600 C1599 1.397 . S
C1600 C1601 1.334 . S
C1601 H1578 0.950 . S
C1601 C1600 1.334 . S
C1601 C1602 1.287 . S
C1602 C1601 1.287 . S
C1602 C1603 1.524 . S
C1602 H1621 0.913 . S
C1603 H1579 0.950 . S
C1603 C1602 1.524 . S
C1603 C1604 1.415 . S
C1604 H1580 0.950 . S
C1604 C1599 1.363 . S
C1604 C1603 1.415 . S
C1605 H1581 0.951 1_556 S
C1605 C1606 1.366 . S
C1605 C1607 1.390 . S
C1606 C1605 1.366 . S
C1606 C1610 1.385 . S
C1607 H1582 0.944 1_556 S
C1607 C1605 1.390 . S
C1607 C1608 1.370 . S
C1608 C1607 1.370 . S
C1608 C1609 1.414 . S
C1608 C1611 1.499 . S
C1609 H1583 0.950 . S
C1609 C1608 1.414 . S
C1609 C1610 1.374 . S
C1610 H1584 0.950 . S
C1610 C1606 1.385 . S
C1610 C1609 1.374 . S
C1611 C1608 1.499 . S
C1611 C1612 1.373 . S
C1611 C1613 1.389 1_556 S
C1612 H1585 0.950 . S
C1612 C1598 1.377 . S
C1612 C1611 1.373 . S
C1613 C1597 1.377 . S
C1613 C1611 1.389 1_554 S
C1613 C1614 1.524 . S
C1614 C1613 1.524 . S
C1614 C1615 1.397 . S
C1614 C1619 1.363 . S
C1615 H1586 0.950 1_554 S
C1615 C1614 1.397 . S
C1615 C1616 1.334 . S
C1616 H1587 0.950 . S
C1616 C1615 1.334 . S
C1616 C1617 1.287 . S
C1617 C1616 1.287 . S
C1617 C1618 1.524 . S
C1617 H1620 0.999 . S
C1618 H1588 0.950 . S
C1618 C1617 1.524 . S
C1618 C1619 1.415 . S
C1619 H1589 0.950 . S
C1619 C1614 1.363 . S
C1619 C1618 1.415 . S
H1620 C1617 0.999 . S
H1621 C1602 0.913 . S
H1622 C1640 0.951 . S
H1623 C1642 0.951 . S
H1624 C1644 0.950 . S
H1625 C1645 0.950 . S
H1626 C1647 0.950 . S
H1627 C1650 0.950 . S
H1628 C1651 0.950 . S
H1629 C1653 0.950 . S
H1630 C1654 0.950 . S
H1631 C1655 0.951 . S
H1632 C1657 0.951 . S
H1633 C1659 0.950 . S
H1634 C1660 0.950 . S
H1635 C1662 0.950 . S
H1636 C1665 0.950 . S
H1637 C1666 0.950 . S
H1638 C1668 0.950 . S
H1639 C1669 0.950 . S
C1640 H1622 0.951 . S
C1640 C1641 1.366 . S
C1640 C1642 1.388 . S
C1641 C1640 1.366 . S
C1641 C1645 1.385 . S
C1642 H1623 0.951 . S
C1642 C1640 1.388 . S
C1642 C1643 1.366 . S
C1643 C1642 1.366 . S
C1643 C1644 1.414 . S
C1643 C1646 1.499 . S
C1644 H1624 0.950 . S
C1644 C1643 1.414 . S
C1644 C1645 1.374 . S
C1645 H1625 0.950 . S
C1645 C1641 1.385 . S
C1645 C1644 1.374 . S
C1646 C1643 1.499 . S
C1646 C1647 1.373 . S
C1646 C1648 1.389 . S
C1647 H1626 0.950 . S
C1647 C1646 1.373 . S
C1647 C1663 1.377 . S
C1648 C1646 1.389 . S
C1648 C1649 1.524 . S
C1648 C1662 1.377 . S
C1649 C1648 1.524 . S
C1649 C1650 1.397 . S
C1649 C1654 1.363 . S
C1650 H1627 0.950 . S
C1650 C1649 1.397 . S
C1650 C1651 1.334 . S
C1651 H1628 0.950 . S
C1651 C1650 1.334 . S
C1651 C1652 1.287 . S
C1652 C1651 1.287 . S
C1652 C1653 1.524 . S
C1652 H1671 0.913 . S
C1653 H1629 0.950 . S
C1653 C1652 1.524 . S
C1653 C1654 1.415 . S
C1654 H1630 0.950 . S
C1654 C1649 1.363 . S
C1654 C1653 1.415 . S
C1655 H1631 0.951 . S
C1655 C1656 1.366 . S
C1655 C1657 1.388 . S
C1656 C1655 1.366 . S
C1656 C1660 1.385 . S
C1657 H1632 0.951 . S
C1657 C1655 1.388 . S
C1657 C1658 1.366 . S
C1658 C1657 1.366 . S
C1658 C1659 1.414 . S
C1658 C1661 1.499 . S
C1659 H1633 0.950 . S
C1659 C1658 1.414 . S
C1659 C1660 1.374 . S
C1660 H1634 0.950 . S
C1660 C1656 1.385 . S
C1660 C1659 1.374 . S
C1661 C1658 1.499 . S
C1661 C1662 1.373 . S
C1661 C1663 1.389 . S
C1662 H1635 0.950 . S
C1662 C1648 1.377 . S
C1662 C1661 1.373 . S
C1663 C1647 1.377 . S
C1663 C1661 1.389 . S
C1663 C1664 1.524 . S
C1664 C1663 1.524 . S
C1664 C1665 1.397 . S
C1664 C1669 1.363 . S
C1665 H1636 0.950 . S
C1665 C1664 1.397 . S
C1665 C1666 1.334 . S
C1666 H1637 0.950 . S
C1666 C1665 1.334 . S
C1666 C1667 1.287 . S
C1667 C1666 1.287 . S
C1667 C1668 1.524 . S
C1667 H1670 0.999 . S
C1668 H1638 0.950 . S
C1668 C1667 1.524 . S
C1668 C1669 1.415 . S
C1669 H1639 0.950 . S
C1669 C1664 1.363 . S
C1669 C1668 1.415 . S
H1670 C1667 0.999 . S
H1671 C1652 0.913 . S
H1672 C1690 0.951 . S
H1673 C1692 0.951 . S
H1674 C1694 0.950 . S
H1675 C1695 0.950 . S
H1676 C1697 0.950 . S
H1677 C1700 0.950 . S
H1678 C1701 0.950 . S
H1679 C1703 0.950 . S
H1680 C1704 0.950 . S
H1681 C1705 0.951 . S
H1682 C1707 0.951 . S
H1683 C1709 0.950 . S
H1684 C1710 0.950 . S
H1685 C1712 0.950 . S
H1686 C1715 0.950 . S
H1687 C1716 0.950 . S
H1688 C1718 0.950 . S
H1689 C1719 0.950 . S
C1690 H1672 0.951 . S
C1690 C1691 1.366 . S
C1690 C1692 1.388 . S
C1691 C1690 1.366 . S
C1691 C1695 1.385 . S
C1692 H1673 0.951 . S
C1692 C1690 1.388 . S
C1692 C1693 1.366 . S
C1693 C1692 1.366 . S
C1693 C1694 1.414 . S
C1693 C1696 1.499 . S
C1694 H1674 0.950 . S
C1694 C1693 1.414 . S
C1694 C1695 1.374 . S
C1695 H1675 0.950 . S
C1695 C1691 1.385 . S
C1695 C1694 1.374 . S
C1696 C1693 1.499 . S
C1696 C1697 1.373 . S
C1696 C1698 1.389 . S
C1697 H1676 0.950 . S
C1697 C1696 1.373 . S
C1697 C1713 1.377 . S
C1698 C1696 1.389 . S
C1698 C1699 1.524 . S
C1698 C1712 1.377 . S
C1699 C1698 1.524 . S
C1699 C1700 1.397 . S
C1699 C1704 1.363 . S
C1700 H1677 0.950 . S
C1700 C1699 1.397 . S
C1700 C1701 1.334 . S
C1701 H1678 0.950 . S
C1701 C1700 1.334 . S
C1701 C1702 1.287 . S
C1702 C1701 1.287 . S
C1702 C1703 1.524 . S
C1702 H1721 0.913 . S
C1703 H1679 0.950 . S
C1703 C1702 1.524 . S
C1703 C1704 1.415 . S
C1704 H1680 0.950 . S
C1704 C1699 1.363 . S
C1704 C1703 1.415 . S
C1705 H1681 0.951 . S
C1705 C1706 1.366 . S
C1705 C1707 1.388 . S
C1706 C1705 1.366 . S
C1706 C1710 1.385 . S
C1707 H1682 0.951 . S
C1707 C1705 1.388 . S
C1707 C1708 1.366 . S
C1708 C1707 1.366 . S
C1708 C1709 1.414 . S
C1708 C1711 1.499 . S
C1709 H1683 0.950 . S
C1709 C1708 1.414 . S
C1709 C1710 1.374 . S
C1710 H1684 0.950 . S
C1710 C1706 1.385 . S
C1710 C1709 1.374 . S
C1711 C1708 1.499 . S
C1711 C1712 1.373 . S
C1711 C1713 1.389 . S
C1712 H1685 0.950 . S
C1712 C1698 1.377 . S
C1712 C1711 1.373 . S
C1713 C1697 1.377 . S
C1713 C1711 1.389 . S
C1713 C1714 1.524 . S
C1714 C1713 1.524 . S
C1714 C1715 1.397 . S
C1714 C1719 1.363 . S
C1715 H1686 0.950 . S
C1715 C1714 1.397 . S
C1715 C1716 1.334 . S
C1716 H1687 0.950 . S
C1716 C1715 1.334 . S
C1716 C1717 1.287 . S
C1717 C1716 1.287 . S
C1717 C1718 1.524 . S
C1717 H1720 0.999 . S
C1718 H1688 0.950 . S
C1718 C1717 1.524 . S
C1718 C1719 1.415 . S
C1719 H1689 0.950 . S
C1719 C1714 1.363 . S
C1719 C1718 1.415 . S
H1720 C1717 0.999 . S
H1721 C1702 0.913 . S
H1722 C1740 0.951 . S
H1723 C1742 0.951 . S
H1724 C1744 0.950 . S
H1725 C1745 0.950 . S
H1726 C1747 0.950 . S
H1727 C1750 0.950 . S
H1728 C1751 0.950 . S
H1729 C1753 0.950 . S
H1730 C1754 0.950 . S
H1731 C1755 0.951 . S
H1732 C1757 0.951 . S
H1733 C1759 0.950 . S
H1734 C1760 0.950 . S
H1735 C1762 0.950 . S
H1736 C1765 0.950 . S
H1737 C1766 0.950 . S
H1738 C1768 0.950 . S
H1739 C1769 0.950 . S
C1740 H1722 0.951 . S
C1740 C1741 1.366 . S
C1740 C1742 1.388 . S
C1741 C1740 1.366 . S
C1741 C1745 1.385 . S
C1742 H1723 0.951 . S
C1742 C1740 1.388 . S
C1742 C1743 1.366 . S
C1743 C1742 1.366 . S
C1743 C1744 1.414 . S
C1743 C1746 1.499 . S
C1744 H1724 0.950 . S
C1744 C1743 1.414 . S
C1744 C1745 1.374 . S
C1745 H1725 0.950 . S
C1745 C1741 1.385 . S
C1745 C1744 1.374 . S
C1746 C1743 1.499 . S
C1746 C1747 1.373 . S
C1746 C1748 1.389 . S
C1747 H1726 0.950 . S
C1747 C1746 1.373 . S
C1747 C1763 1.377 . S
C1748 C1746 1.389 . S
C1748 C1749 1.524 . S
C1748 C1762 1.377 . S
C1749 C1748 1.524 . S
C1749 C1750 1.397 . S
C1749 C1754 1.363 . S
C1750 H1727 0.950 . S
C1750 C1749 1.397 . S
C1750 C1751 1.334 . S
C1751 H1728 0.950 . S
C1751 C1750 1.334 . S
C1751 C1752 1.287 . S
C1752 C1751 1.287 . S
C1752 C1753 1.524 . S
C1752 H1771 0.913 . S
C1753 H1729 0.950 . S
C1753 C1752 1.524 . S
C1753 C1754 1.415 . S
C1754 H1730 0.950 . S
C1754 C1749 1.363 . S
C1754 C1753 1.415 . S
C1755 H1731 0.951 . S
C1755 C1756 1.366 . S
C1755 C1757 1.388 . S
C1756 C1755 1.366 . S
C1756 C1760 1.385 . S
C1757 H1732 0.951 . S
C1757 C1755 1.388 . S
C1757 C1758 1.366 . S
C1758 C1757 1.366 . S
C1758 C1759 1.414 . S
C1758 C1761 1.499 . S
C1759 H1733 0.950 . S
C1759 C1758 1.414 . S
C1759 C1760 1.374 . S
C1760 H1734 0.950 . S
C1760 C1756 1.385 . S
C1760 C1759 1.374 . S
C1761 C1758 1.499 . S
C1761 C1762 1.373 . S
C1761 C1763 1.389 . S
C1762 H1735 0.950 . S
C1762 C1748 1.377 . S
C1762 C1761 1.373 . S
C1763 C1747 1.377 . S
C1763 C1761 1.389 . S
C1763 C1764 1.524 . S
C1764 C1763 1.524 . S
C1764 C1765 1.397 . S
C1764 C1769 1.363 . S
C1765 H1736 0.950 . S
C1765 C1764 1.397 . S
C1765 C1766 1.334 . S
C1766 H1737 0.950 . S
C1766 C1765 1.334 . S
C1766 C1767 1.287 . S
C1767 C1766 1.287 . S
C1767 C1768 1.524 . S
C1767 H1770 0.999 . S
C1768 H1738 0.950 . S
C1768 C1767 1.524 . S
C1768 C1769 1.415 . S
C1769 H1739 0.950 . S
C1769 C1764 1.363 . S
C1769 C1768 1.415 . S
H1770 C1767 0.999 . S
H1771 C1752 0.913 . S
H1772 C1790 0.951 . S
H1773 C1792 0.951 1_565 S
H1774 C1794 0.950 . S
H1775 C1795 0.950 . S
H1776 C1797 0.950 . S
H1777 C1800 0.950 . S
H1778 C1801 0.950 . S
H1779 C1803 0.950 . S
H1780 C1804 0.950 . S
H1781 C1805 0.951 . S
H1782 C1807 0.951 1_545 S
H1783 C1809 0.950 . S
H1784 C1810 0.950 . S
H1785 C1812 0.950 . S
H1786 C1815 0.950 . S
H1787 C1816 0.950 . S
H1788 C1818 0.950 . S
H1789 C1819 0.950 . S
C1790 H1772 0.951 . S
C1790 C1791 1.366 . S
C1790 C1792 1.388 . S
C1791 C1790 1.366 . S
C1791 C1795 1.385 . S
C1792 H1773 0.951 1_545 S
C1792 C1790 1.388 . S
C1792 C1793 1.366 . S
C1793 C1792 1.366 . S
C1793 C1794 1.414 . S
C1793 C1796 1.499 . S
C1794 H1774 0.950 . S
C1794 C1793 1.414 . S
C1794 C1795 1.374 . S
C1795 H1775 0.950 . S
C1795 C1791 1.385 . S
C1795 C1794 1.374 . S
C1796 C1793 1.499 . S
C1796 C1797 1.373 . S
C1796 C1798 1.389 1_545 S
C1797 H1776 0.950 . S
C1797 C1796 1.373 . S
C1797 C1813 1.377 . S
C1798 C1796 1.389 1_565 S
C1798 C1799 1.524 . S
C1798 C1812 1.377 . S
C1799 C1798 1.524 . S
C1799 C1800 1.397 . S
C1799 C1804 1.363 . S
C1800 H1777 0.950 . S
C1800 C1799 1.397 . S
C1800 C1801 1.334 . S
C1801 H1778 0.950 . S
C1801 C1800 1.334 . S
C1801 C1802 1.287 . S
C1802 C1801 1.287 . S
C1802 C1803 1.524 . S
C1802 H1821 0.913 . S
C1803 H1779 0.950 . S
C1803 C1802 1.524 . S
C1803 C1804 1.415 . S
C1804 H1780 0.950 . S
C1804 C1799 1.363 . S
C1804 C1803 1.415 . S
C1805 H1781 0.951 . S
C1805 C1806 1.366 . S
C1805 C1807 1.388 . S
C1806 C1805 1.366 . S
C1806 C1810 1.385 . S
C1807 H1782 0.951 1_565 S
C1807 C1805 1.388 . S
C1807 C1808 1.366 . S
C1808 C1807 1.366 . S
C1808 C1809 1.414 . S
C1808 C1811 1.499 . S
C1809 H1783 0.950 . S
C1809 C1808 1.414 . S
C1809 C1810 1.374 . S
C1810 H1784 0.950 . S
C1810 C1806 1.385 . S
C1810 C1809 1.374 . S
C1811 C1808 1.499 . S
C1811 C1812 1.373 . S
C1811 C1813 1.389 1_565 S
C1812 H1785 0.950 . S
C1812 C1798 1.377 . S
C1812 C1811 1.373 . S
C1813 C1797 1.377 . S
C1813 C1811 1.389 1_545 S
C1813 C1814 1.524 . S
C1814 C1813 1.524 . S
C1814 C1815 1.397 . S
C1814 C1819 1.363 . S
C1815 H1786 0.950 . S
C1815 C1814 1.397 . S
C1815 C1816 1.334 . S
C1816 H1787 0.950 . S
C1816 C1815 1.334 . S
C1816 C1817 1.287 . S
C1817 C1816 1.287 . S
C1817 C1818 1.524 . S
C1817 H1820 0.999 . S
C1818 H1788 0.950 . S
C1818 C1817 1.524 . S
C1818 C1819 1.415 . S
C1819 H1789 0.950 . S
C1819 C1814 1.363 . S
C1819 C1818 1.415 . S
H1820 C1817 0.999 . S
H1821 C1802 0.913 . S
H1822 C1840 0.951 . S
H1823 C1842 0.951 1_556 S
H1824 C1844 0.950 . S
H1825 C1845 0.950 . S
H1826 C1847 0.950 . S
H1827 C1850 0.950 . S
H1828 C1851 0.950 . S
H1829 C1853 0.950 . S
H1830 C1854 0.950 . S
H1831 C1855 0.951 . S
H1832 C1857 0.951 1_554 S
H1833 C1859 0.950 . S
H1834 C1860 0.950 . S
H1835 C1862 0.950 . S
H1836 C1865 0.950 . S
H1837 C1866 0.950 . S
H1838 C1868 0.950 . S
H1839 C1869 0.950 . S
C1840 H1822 0.951 . S
C1840 C1841 1.366 . S
C1840 C1842 1.388 . S
C1841 C1840 1.366 . S
C1841 C1845 1.385 . S
C1842 H1823 0.951 1_554 S
C1842 C1840 1.388 . S
C1842 C1843 1.366 . S
C1843 C1842 1.366 . S
C1843 C1844 1.414 . S
C1843 C1846 1.499 . S
C1844 H1824 0.950 . S
C1844 C1843 1.414 . S
C1844 C1845 1.374 . S
C1845 H1825 0.950 . S
C1845 C1841 1.385 . S
C1845 C1844 1.374 . S
C1846 C1843 1.499 . S
C1846 C1847 1.373 . S
C1846 C1848 1.389 1_554 S
C1847 H1826 0.950 . S
C1847 C1846 1.373 . S
C1847 C1863 1.377 . S
C1848 C1846 1.389 1_556 S
C1848 C1849 1.524 . S
C1848 C1862 1.377 . S
C1849 C1848 1.524 . S
C1849 C1850 1.397 . S
C1849 C1854 1.363 . S
C1850 H1827 0.950 . S
C1850 C1849 1.397 . S
C1850 C1851 1.334 . S
C1851 H1828 0.950 . S
C1851 C1850 1.334 . S
C1851 C1852 1.287 . S
C1852 C1851 1.287 . S
C1852 C1853 1.524 . S
C1852 H1871 0.913 . S
C1853 H1829 0.950 . S
C1853 C1852 1.524 . S
C1853 C1854 1.415 . S
C1854 H1830 0.950 . S
C1854 C1849 1.363 . S
C1854 C1853 1.415 . S
C1855 H1831 0.951 . S
C1855 C1856 1.366 . S
C1855 C1857 1.388 . S
C1856 C1855 1.366 . S
C1856 C1860 1.385 . S
C1857 H1832 0.951 1_556 S
C1857 C1855 1.388 . S
C1857 C1858 1.366 . S
C1858 C1857 1.366 . S
C1858 C1859 1.414 . S
C1858 C1861 1.499 . S
C1859 H1833 0.950 . S
C1859 C1858 1.414 . S
C1859 C1860 1.374 . S
C1860 H1834 0.950 . S
C1860 C1856 1.385 . S
C1860 C1859 1.374 . S
C1861 C1858 1.499 . S
C1861 C1862 1.373 . S
C1861 C1863 1.389 1_556 S
C1862 H1835 0.950 . S
C1862 C1848 1.377 . S
C1862 C1861 1.373 . S
C1863 C1847 1.377 . S
C1863 C1861 1.389 1_554 S
C1863 C1864 1.524 . S
C1864 C1863 1.524 . S
C1864 C1865 1.397 . S
C1864 C1869 1.363 . S
C1865 H1836 0.950 . S
C1865 C1864 1.397 . S
C1865 C1866 1.334 . S
C1866 H1837 0.950 . S
C1866 C1865 1.334 . S
C1866 C1867 1.287 . S
C1867 C1866 1.287 . S
C1867 C1868 1.524 . S
C1867 H1870 0.999 . S
C1868 H1838 0.950 . S
C1868 C1867 1.524 . S
C1868 C1869 1.415 . S
C1869 H1839 0.950 . S
C1869 C1864 1.363 . S
C1869 C1868 1.415 . S
H1870 C1867 0.999 . S
H1871 C1852 0.913 . S
H1872 C1890 0.951 . S
H1873 C1892 0.951 . S
H1874 C1894 0.950 . S
H1875 C1895 0.950 . S
H1876 C1897 0.950 . S
H1877 C1900 0.950 . S
H1878 C1901 0.950 . S
H1879 C1903 0.950 . S
H1880 C1904 0.950 . S
H1881 C1905 0.951 . S
H1882 C1907 0.951 . S
H1883 C1909 0.950 . S
H1884 C1910 0.950 . S
H1885 C1912 0.950 . S
H1886 C1915 0.950 . S
H1887 C1916 0.950 . S
H1888 C1918 0.950 . S
H1889 C1919 0.950 . S
C1890 H1872 0.951 . S
C1890 C1891 1.366 . S
C1890 C1892 1.388 . S
C1891 C1890 1.366 . S
C1891 C1895 1.385 . S
C1892 H1873 0.951 . S
C1892 C1890 1.388 . S
C1892 C1893 1.366 . S
C1893 C1892 1.366 . S
C1893 C1894 1.414 . S
C1893 C1896 1.499 . S
C1894 H1874 0.950 . S
C1894 C1893 1.414 . S
C1894 C1895 1.374 . S
C1895 H1875 0.950 . S
C1895 C1891 1.385 . S
C1895 C1894 1.374 . S
C1896 C1893 1.499 . S
C1896 C1897 1.373 . S
C1896 C1898 1.389 . S
C1897 H1876 0.950 . S
C1897 C1896 1.373 . S
C1897 C1913 1.377 . S
C1898 C1896 1.389 . S
C1898 C1899 1.524 . S
C1898 C1912 1.377 . S
C1899 C1898 1.524 . S
C1899 C1900 1.397 . S
C1899 C1904 1.363 . S
C1900 H1877 0.950 . S
C1900 C1899 1.397 . S
C1900 C1901 1.334 . S
C1901 H1878 0.950 . S
C1901 C1900 1.334 . S
C1901 C1902 1.287 . S
C1902 C1901 1.287 . S
C1902 C1903 1.524 . S
C1902 H1921 0.913 . S
C1903 H1879 0.950 . S
C1903 C1902 1.524 . S
C1903 C1904 1.415 . S
C1904 H1880 0.950 . S
C1904 C1899 1.363 . S
C1904 C1903 1.415 . S
C1905 H1881 0.951 . S
C1905 C1906 1.366 . S
C1905 C1907 1.388 . S
C1906 C1905 1.366 . S
C1906 C1910 1.385 . S
C1907 H1882 0.951 . S
C1907 C1905 1.388 . S
C1907 C1908 1.366 . S
C1908 C1907 1.366 . S
C1908 C1909 1.414 . S
C1908 C1911 1.499 . S
C1909 H1883 0.950 . S
C1909 C1908 1.414 . S
C1909 C1910 1.374 . S
C1910 H1884 0.950 . S
C1910 C1906 1.385 . S
C1910 C1909 1.374 . S
C1911 C1908 1.499 . S
C1911 C1912 1.373 . S
C1911 C1913 1.389 . S
C1912 H1885 0.950 . S
C1912 C1898 1.377 . S
C1912 C1911 1.373 . S
C1913 C1897 1.377 . S
C1913 C1911 1.389 . S
C1913 C1914 1.524 . S
C1914 C1913 1.524 . S
C1914 C1915 1.397 . S
C1914 C1919 1.363 . S
C1915 H1886 0.950 . S
C1915 C1914 1.397 . S
C1915 C1916 1.334 . S
C1916 H1887 0.950 . S
C1916 C1915 1.334 . S
C1916 C1917 1.287 . S
C1917 C1916 1.287 . S
C1917 C1918 1.524 . S
C1917 H1920 0.999 . S
C1918 H1888 0.950 . S
C1918 C1917 1.524 . S
C1918 C1919 1.415 . S
C1919 H1889 0.950 . S
C1919 C1914 1.363 . S
C1919 C1918 1.415 . S
H1920 C1917 0.999 . S
H1921 C1902 0.913 . S
H1922 C1940 0.951 . S
H1923 C1942 0.951 . S
H1924 C1944 0.950 . S
H1925 C1945 0.950 . S
H1926 C1947 0.950 . S
H1927 C1950 0.950 . S
H1928 C1951 0.950 . S
H1929 C1953 0.950 . S
H1930 C1954 0.950 . S
H1931 C1955 0.951 . S
H1932 C1957 0.951 . S
H1933 C1959 0.950 . S
H1934 C1960 0.950 . S
H1935 C1962 0.950 . S
H1936 C1965 0.950 . S
H1937 C1966 0.950 . S
H1938 C1968 0.950 . S
H1939 C1969 0.950 . S
C1940 H1922 0.951 . S
C1940 C1941 1.366 . S
C1940 C1942 1.388 . S
C1941 C1940 1.366 . S
C1941 C1945 1.385 . S
C1942 H1923 0.951 . S
C1942 C1940 1.388 . S
C1942 C1943 1.366 . S
C1943 C1942 1.366 . S
C1943 C1944 1.414 . S
C1943 C1946 1.499 . S
C1944 H1924 0.950 . S
C1944 C1943 1.414 . S
C1944 C1945 1.374 . S
C1945 H1925 0.950 . S
C1945 C1941 1.385 . S
C1945 C1944 1.374 . S
C1946 C1943 1.499 . S
C1946 C1947 1.373 . S
C1946 C1948 1.389 . S
C1947 H1926 0.950 . S
C1947 C1946 1.373 . S
C1947 C1963 1.377 . S
C1948 C1946 1.389 . S
C1948 C1949 1.524 . S
C1948 C1962 1.377 . S
C1949 C1948 1.524 . S
C1949 C1950 1.397 . S
C1949 C1954 1.363 . S
C1950 H1927 0.950 . S
C1950 C1949 1.397 . S
C1950 C1951 1.334 . S
C1951 H1928 0.950 . S
C1951 C1950 1.334 . S
C1951 C1952 1.287 . S
C1952 C1951 1.287 . S
C1952 C1953 1.524 . S
C1952 H1971 0.913 . S
C1953 H1929 0.950 . S
C1953 C1952 1.524 . S
C1953 C1954 1.415 . S
C1954 H1930 0.950 . S
C1954 C1949 1.363 . S
C1954 C1953 1.415 . S
C1955 H1931 0.951 . S
C1955 C1956 1.366 . S
C1955 C1957 1.388 . S
C1956 C1955 1.366 . S
C1956 C1960 1.385 . S
C1957 H1932 0.951 . S
C1957 C1955 1.388 . S
C1957 C1958 1.366 . S
C1958 C1957 1.366 . S
C1958 C1959 1.414 . S
C1958 C1961 1.499 . S
C1959 H1933 0.950 . S
C1959 C1958 1.414 . S
C1959 C1960 1.374 . S
C1960 H1934 0.950 . S
C1960 C1956 1.385 . S
C1960 C1959 1.374 . S
C1961 C1958 1.499 . S
C1961 C1962 1.373 . S
C1961 C1963 1.389 . S
C1962 H1935 0.950 . S
C1962 C1948 1.377 . S
C1962 C1961 1.373 . S
C1963 C1947 1.377 . S
C1963 C1961 1.389 . S
C1963 C1964 1.524 . S
C1964 C1963 1.524 . S
C1964 C1965 1.397 . S
C1964 C1969 1.363 . S
C1965 H1936 0.950 . S
C1965 C1964 1.397 . S
C1965 C1966 1.334 . S
C1966 H1937 0.950 . S
C1966 C1965 1.334 . S
C1966 C1967 1.287 . S
C1967 C1966 1.287 . S
C1967 C1968 1.524 . S
C1967 H1970 0.999 . S
C1968 H1938 0.950 . S
C1968 C1967 1.524 . S
C1968 C1969 1.415 . S
C1969 H1939 0.950 . S
C1969 C1964 1.363 . S
C1969 C1968 1.415 . S
H1970 C1967 0.999 . S
H1971 C1952 0.913 . S
H1972 C1990 0.951 . S
H1973 C1992 0.951 . S
H1974 C1994 0.950 . S
H1975 C1995 0.950 . S
H1976 C1997 0.950 . S
H1977 C2000 0.950 . S
H1978 C2001 0.950 . S
H1979 C2003 0.950 . S
H1980 C2004 0.950 . S
H1981 C2005 0.951 . S
H1982 C2007 0.951 . S
H1983 C2009 0.950 . S
H1984 C2010 0.950 . S
H1985 C2012 0.950 . S
H1986 C2015 0.950 . S
H1987 C2016 0.950 . S
H1988 C2018 0.950 . S
H1989 C2019 0.950 . S
C1990 H1972 0.951 . S
C1990 C1991 1.366 . S
C1990 C1992 1.388 . S
C1991 C1990 1.366 . S
C1991 C1995 1.385 . S
C1992 H1973 0.951 . S
C1992 C1990 1.388 . S
C1992 C1993 1.366 . S
C1993 C1992 1.366 . S
C1993 C1994 1.414 . S
C1993 C1996 1.499 . S
C1994 H1974 0.950 . S
C1994 C1993 1.414 . S
C1994 C1995 1.374 . S
C1995 H1975 0.950 . S
C1995 C1991 1.385 . S
C1995 C1994 1.374 . S
C1996 C1993 1.499 . S
C1996 C1997 1.373 . S
C1996 C1998 1.389 . S
C1997 H1976 0.950 . S
C1997 C1996 1.373 . S
C1997 C2013 1.377 . S
C1998 C1996 1.389 . S
C1998 C1999 1.524 . S
C1998 C2012 1.377 . S
C1999 C1998 1.524 . S
C1999 C2000 1.397 . S
C1999 C2004 1.363 . S
C2000 H1977 0.950 . S
C2000 C1999 1.397 . S
C2000 C2001 1.334 . S
C2001 H1978 0.950 . S
C2001 C2000 1.334 . S
C2001 C2002 1.287 . S
C2002 C2001 1.287 . S
C2002 C2003 1.524 . S
C2002 H2021 0.913 . S
C2003 H1979 0.950 . S
C2003 C2002 1.524 . S
C2003 C2004 1.415 . S
C2004 H1980 0.950 . S
C2004 C1999 1.363 . S
C2004 C2003 1.415 . S
C2005 H1981 0.951 . S
C2005 C2006 1.366 . S
C2005 C2007 1.388 . S
C2006 C2005 1.366 . S
C2006 C2010 1.385 . S
C2007 H1982 0.951 . S
C2007 C2005 1.388 . S
C2007 C2008 1.366 . S
C2008 C2007 1.366 . S
C2008 C2009 1.414 . S
C2008 C2011 1.499 . S
C2009 H1983 0.950 . S
C2009 C2008 1.414 . S
C2009 C2010 1.374 . S
C2010 H1984 0.950 . S
C2010 C2006 1.385 . S
C2010 C2009 1.374 . S
C2011 C2008 1.499 . S
C2011 C2012 1.373 . S
C2011 C2013 1.389 . S
C2012 H1985 0.950 . S
C2012 C1998 1.377 . S
C2012 C2011 1.373 . S
C2013 C1997 1.377 . S
C2013 C2011 1.389 . S
C2013 C2014 1.524 . S
C2014 C2013 1.524 . S
C2014 C2015 1.397 . S
C2014 C2019 1.363 . S
C2015 H1986 0.950 . S
C2015 C2014 1.397 . S
C2015 C2016 1.334 . S
C2016 H1987 0.950 . S
C2016 C2015 1.334 . S
C2016 C2017 1.287 . S
C2017 C2016 1.287 . S
C2017 C2018 1.524 . S
C2017 H2020 0.999 . S
C2018 H1988 0.950 . S
C2018 C2017 1.524 . S
C2018 C2019 1.415 . S
C2019 H1989 0.950 . S
C2019 C2014 1.363 . S
C2019 C2018 1.415 . S
H2020 C2017 0.999 . S
H2021 C2002 0.913 . S
H2022 C2040 0.951 . S
H2023 C2042 0.951 . S
H2024 C2044 0.950 . S
H2025 C2045 0.950 . S
H2026 C2047 0.950 . S
H2027 C2050 0.950 . S
H2028 C2051 0.950 . S
H2029 C2053 0.950 . S
H2030 C2054 0.950 . S
H2031 C2055 0.951 . S
H2032 C2057 0.951 . S
H2033 C2059 0.950 . S
H2034 C2060 0.950 . S
H2035 C2062 0.950 . S
H2036 C2065 0.950 . S
H2037 C2066 0.950 . S
H2038 C2068 0.950 . S
H2039 C2069 0.950 . S
C2040 H2022 0.951 . S
C2040 C2041 1.366 . S
C2040 C2042 1.388 . S
C2041 C2040 1.366 . S
C2041 C2045 1.385 . S
C2042 H2023 0.951 . S
C2042 C2040 1.388 . S
C2042 C2043 1.366 . S
C2043 C2042 1.366 . S
C2043 C2044 1.414 . S
C2043 C2046 1.499 . S
C2044 H2024 0.950 . S
C2044 C2043 1.414 . S
C2044 C2045 1.374 . S
C2045 H2025 0.950 . S
C2045 C2041 1.385 . S
C2045 C2044 1.374 . S
C2046 C2043 1.499 . S
C2046 C2047 1.373 . S
C2046 C2048 1.389 . S
C2047 H2026 0.950 . S
C2047 C2046 1.373 . S
C2047 C2063 1.377 . S
C2048 C2046 1.389 . S
C2048 C2049 1.524 . S
C2048 C2062 1.377 . S
C2049 C2048 1.524 . S
C2049 C2050 1.397 . S
C2049 C2054 1.363 . S
C2050 H2027 0.950 . S
C2050 C2049 1.397 . S
C2050 C2051 1.334 . S
C2051 H2028 0.950 . S
C2051 C2050 1.334 . S
C2051 C2052 1.287 . S
C2052 C2051 1.287 . S
C2052 C2053 1.524 . S
C2052 H2071 0.913 . S
C2053 H2029 0.950 . S
C2053 C2052 1.524 . S
C2053 C2054 1.415 . S
C2054 H2030 0.950 . S
C2054 C2049 1.363 . S
C2054 C2053 1.415 . S
C2055 H2031 0.951 . S
C2055 C2056 1.366 . S
C2055 C2057 1.388 . S
C2056 C2055 1.366 . S
C2056 C2060 1.385 . S
C2057 H2032 0.951 . S
C2057 C2055 1.388 . S
C2057 C2058 1.366 . S
C2058 C2057 1.366 . S
C2058 C2059 1.414 . S
C2058 C2061 1.499 . S
C2059 H2033 0.950 . S
C2059 C2058 1.414 . S
C2059 C2060 1.374 . S
C2060 H2034 0.950 . S
C2060 C2056 1.385 . S
C2060 C2059 1.374 . S
C2061 C2058 1.499 . S
C2061 C2062 1.373 . S
C2061 C2063 1.389 . S
C2062 H2035 0.950 . S
C2062 C2048 1.377 . S
C2062 C2061 1.373 . S
C2063 C2047 1.377 . S
C2063 C2061 1.389 . S
C2063 C2064 1.524 . S
C2064 C2063 1.524 . S
C2064 C2065 1.397 . S
C2064 C2069 1.363 . S
C2065 H2036 0.950 . S
C2065 C2064 1.397 . S
C2065 C2066 1.334 . S
C2066 H2037 0.950 . S
C2066 C2065 1.334 . S
C2066 C2067 1.287 . S
C2067 C2066 1.287 . S
C2067 C2068 1.524 . S
C2067 H2070 0.999 . S
C2068 H2038 0.950 . S
C2068 C2067 1.524 . S
C2068 C2069 1.415 . S
C2069 H2039 0.950 . S
C2069 C2064 1.363 . S
C2069 C2068 1.415 . S
H2070 C2067 0.999 . S
H2071 C2052 0.913 . S
H2072 C2090 0.951 . S
H2073 C2092 0.951 . S
H2074 C2094 0.950 . S
H2075 C2095 0.950 . S
H2076 C2097 0.950 . S
H2077 C2100 0.950 . S
H2078 C2101 0.950 . S
H2079 C2103 0.950 . S
H2080 C2104 0.950 . S
H2081 C2105 0.951 . S
H2082 C2107 0.951 . S
H2083 C2109 0.950 . S
H2084 C2110 0.950 . S
H2085 C2112 0.950 . S
H2086 C2115 0.950 . S
H2087 C2116 0.950 . S
H2088 C2118 0.950 . S
H2089 C2119 0.950 . S
C2090 H2072 0.951 . S
C2090 C2091 1.366 . S
C2090 C2092 1.388 . S
C2091 C2090 1.366 . S
C2091 C2095 1.385 . S
C2092 H2073 0.951 . S
C2092 C2090 1.388 . S
C2092 C2093 1.366 . S
C2093 C2092 1.366 . S
C2093 C2094 1.414 . S
C2093 C2096 1.499 . S
C2094 H2074 0.950 . S
C2094 C2093 1.414 . S
C2094 C2095 1.374 . S
C2095 H2075 0.950 . S
C2095 C2091 1.385 . S
C2095 C2094 1.374 . S
C2096 C2093 1.499 . S
C2096 C2097 1.373 . S
C2096 C2098 1.389 . S
C2097 H2076 0.950 . S
C2097 C2096 1.373 . S
C2097 C2113 1.377 . S
C2098 C2096 1.389 . S
C2098 C2099 1.524 . S
C2098 C2112 1.377 . S
C2099 C2098 1.524 . S
C2099 C2100 1.397 . S
C2099 C2104 1.363 . S
C2100 H2077 0.950 . S
C2100 C2099 1.397 . S
C2100 C2101 1.334 . S
C2101 H2078 0.950 . S
C2101 C2100 1.334 . S
C2101 C2102 1.287 . S
C2102 C2101 1.287 . S
C2102 C2103 1.524 . S
C2102 H2121 0.913 . S
C2103 H2079 0.950 . S
C2103 C2102 1.524 . S
C2103 C2104 1.415 . S
C2104 H2080 0.950 . S
C2104 C2099 1.363 . S
C2104 C2103 1.415 . S
C2105 H2081 0.951 . S
C2105 C2106 1.366 . S
C2105 C2107 1.388 . S
C2106 C2105 1.366 . S
C2106 C2110 1.385 . S
C2107 H2082 0.951 . S
C2107 C2105 1.388 . S
C2107 C2108 1.366 . S
C2108 C2107 1.366 . S
C2108 C2109 1.414 . S
C2108 C2111 1.499 . S
C2109 H2083 0.950 . S
C2109 C2108 1.414 . S
C2109 C2110 1.374 . S
C2110 H2084 0.950 . S
C2110 C2106 1.385 . S
C2110 C2109 1.374 . S
C2111 C2108 1.499 . S
C2111 C2112 1.373 . S
C2111 C2113 1.389 . S
C2112 H2085 0.950 . S
C2112 C2098 1.377 . S
C2112 C2111 1.373 . S
C2113 C2097 1.377 . S
C2113 C2111 1.389 . S
C2113 C2114 1.524 . S
C2114 C2113 1.524 . S
C2114 C2115 1.397 . S
C2114 C2119 1.363 . S
C2115 H2086 0.950 . S
C2115 C2114 1.397 . S
C2115 C2116 1.334 . S
C2116 H2087 0.950 . S
C2116 C2115 1.334 . S
C2116 C2117 1.287 . S
C2117 C2116 1.287 . S
C2117 C2118 1.524 . S
C2117 H2120 0.999 . S
C2118 H2088 0.950 . S
C2118 C2117 1.524 . S
C2118 C2119 1.415 . S
C2119 H2089 0.950 . S
C2119 C2114 1.363 . S
C2119 C2118 1.415 . S
H2120 C2117 0.999 . S
H2121 C2102 0.913 . S
H2122 C2140 0.951 . S
H2123 C2142 0.951 . S
H2124 C2144 0.950 . S
H2125 C2145 0.950 . S
H2126 C2147 0.950 . S
H2127 C2150 0.950 . S
H2128 C2151 0.950 . S
H2129 C2153 0.950 . S
H2130 C2154 0.950 . S
H2131 C2155 0.951 . S
H2132 C2157 0.951 . S
H2133 C2159 0.950 . S
H2134 C2160 0.950 . S
H2135 C2162 0.950 . S
H2136 C2165 0.950 . S
H2137 C2166 0.950 . S
H2138 C2168 0.950 . S
H2139 C2169 0.950 . S
C2140 H2122 0.951 . S
C2140 C2141 1.366 . S
C2140 C2142 1.388 . S
C2141 C2140 1.366 . S
C2141 C2145 1.385 . S
C2142 H2123 0.951 . S
C2142 C2140 1.388 . S
C2142 C2143 1.366 . S
C2143 C2142 1.366 . S
C2143 C2144 1.414 . S
C2143 C2146 1.499 . S
C2144 H2124 0.950 . S
C2144 C2143 1.414 . S
C2144 C2145 1.374 . S
C2145 H2125 0.950 . S
C2145 C2141 1.385 . S
C2145 C2144 1.374 . S
C2146 C2143 1.499 . S
C2146 C2147 1.373 . S
C2146 C2148 1.389 . S
C2147 H2126 0.950 . S
C2147 C2146 1.373 . S
C2147 C2163 1.377 . S
C2148 C2146 1.389 . S
C2148 C2149 1.524 . S
C2148 C2162 1.377 . S
C2149 C2148 1.524 . S
C2149 C2150 1.397 . S
C2149 C2154 1.363 . S
C2150 H2127 0.950 . S
C2150 C2149 1.397 . S
C2150 C2151 1.334 . S
C2151 H2128 0.950 . S
C2151 C2150 1.334 . S
C2151 C2152 1.287 . S
C2152 C2151 1.287 . S
C2152 C2153 1.524 . S
C2152 H2171 0.913 . S
C2153 H2129 0.950 . S
C2153 C2152 1.524 . S
C2153 C2154 1.415 . S
C2154 H2130 0.950 . S
C2154 C2149 1.363 . S
C2154 C2153 1.415 . S
C2155 H2131 0.951 . S
C2155 C2156 1.366 . S
C2155 C2157 1.388 . S
C2156 C2155 1.366 . S
C2156 C2160 1.385 . S
C2157 H2132 0.951 . S
C2157 C2155 1.388 . S
C2157 C2158 1.366 . S
C2158 C2157 1.366 . S
C2158 C2159 1.414 . S
C2158 C2161 1.499 . S
C2159 H2133 0.950 . S
C2159 C2158 1.414 . S
C2159 C2160 1.374 . S
C2160 H2134 0.950 . S
C2160 C2156 1.385 . S
C2160 C2159 1.374 . S
C2161 C2158 1.499 . S
C2161 C2162 1.373 . S
C2161 C2163 1.389 . S
C2162 H2135 0.950 . S
C2162 C2148 1.377 . S
C2162 C2161 1.373 . S
C2163 C2147 1.377 . S
C2163 C2161 1.389 . S
C2163 C2164 1.524 . S
C2164 C2163 1.524 . S
C2164 C2165 1.397 . S
C2164 C2169 1.363 . S
C2165 H2136 0.950 . S
C2165 C2164 1.397 . S
C2165 C2166 1.334 . S
C2166 H2137 0.950 . S
C2166 C2165 1.334 . S
C2166 C2167 1.287 . S
C2167 C2166 1.287 . S
C2167 C2168 1.524 . S
C2167 H2170 0.999 . S
C2168 H2138 0.950 . S
C2168 C2167 1.524 . S
C2168 C2169 1.415 . S
C2169 H2139 0.950 . S
C2169 C2164 1.363 . S
C2169 C2168 1.415 . S
H2170 C2167 0.999 . S
H2171 C2152 0.913 . S
H2172 C2190 0.951 . S
H2173 C2192 0.951 . S
H2174 C2194 0.950 . S
H2175 C2195 0.950 . S
H2176 C2197 0.950 . S
H2177 C2200 0.950 . S
H2178 C2201 0.950 . S
H2179 C2203 0.950 . S
H2180 C2204 0.950 . S
H2181 C2205 0.951 . S
H2182 C2207 0.951 . S
H2183 C2209 0.950 . S
H2184 C2210 0.950 . S
H2185 C2212 0.950 . S
H2186 C2215 0.950 . S
H2187 C2216 0.950 . S
H2188 C2218 0.950 . S
H2189 C2219 0.950 . S
C2190 H2172 0.951 . S
C2190 C2191 1.366 . S
C2190 C2192 1.388 . S
C2191 C2190 1.366 . S
C2191 C2195 1.385 . S
C2192 H2173 0.951 . S
C2192 C2190 1.388 . S
C2192 C2193 1.366 . S
C2193 C2192 1.366 . S
C2193 C2194 1.414 . S
C2193 C2196 1.499 . S
C2194 H2174 0.950 . S
C2194 C2193 1.414 . S
C2194 C2195 1.374 . S
C2195 H2175 0.950 . S
C2195 C2191 1.385 . S
C2195 C2194 1.374 . S
C2196 C2193 1.499 . S
C2196 C2197 1.373 . S
C2196 C2198 1.389 . S
C2197 H2176 0.950 . S
C2197 C2196 1.373 . S
C2197 C2213 1.377 . S
C2198 C2196 1.389 . S
C2198 C2199 1.524 . S
C2198 C2212 1.377 . S
C2199 C2198 1.524 . S
C2199 C2200 1.397 . S
C2199 C2204 1.363 . S
C2200 H2177 0.950 . S
C2200 C2199 1.397 . S
C2200 C2201 1.334 . S
C2201 H2178 0.950 . S
C2201 C2200 1.334 . S
C2201 C2202 1.287 . S
C2202 C2201 1.287 . S
C2202 C2203 1.524 . S
C2202 H2221 0.913 . S
C2203 H2179 0.950 . S
C2203 C2202 1.524 . S
C2203 C2204 1.415 . S
C2204 H2180 0.950 . S
C2204 C2199 1.363 . S
C2204 C2203 1.415 . S
C2205 H2181 0.951 . S
C2205 C2206 1.366 . S
C2205 C2207 1.388 . S
C2206 C2205 1.366 . S
C2206 C2210 1.385 . S
C2207 H2182 0.951 . S
C2207 C2205 1.388 . S
C2207 C2208 1.366 . S
C2208 C2207 1.366 . S
C2208 C2209 1.414 . S
C2208 C2211 1.499 . S
C2209 H2183 0.950 . S
C2209 C2208 1.414 . S
C2209 C2210 1.374 . S
C2210 H2184 0.950 . S
C2210 C2206 1.385 . S
C2210 C2209 1.374 . S
C2211 C2208 1.499 . S
C2211 C2212 1.373 . S
C2211 C2213 1.389 . S
C2212 H2185 0.950 . S
C2212 C2198 1.377 . S
C2212 C2211 1.373 . S
C2213 C2197 1.377 . S
C2213 C2211 1.389 . S
C2213 C2214 1.524 . S
C2214 C2213 1.524 . S
C2214 C2215 1.397 . S
C2214 C2219 1.363 . S
C2215 H2186 0.950 . S
C2215 C2214 1.397 . S
C2215 C2216 1.334 . S
C2216 H2187 0.950 . S
C2216 C2215 1.334 . S
C2216 C2217 1.287 . S
C2217 C2216 1.287 . S
C2217 C2218 1.524 . S
C2217 H2220 0.999 . S
C2218 H2188 0.950 . S
C2218 C2217 1.524 . S
C2218 C2219 1.415 . S
C2219 H2189 0.950 . S
C2219 C2214 1.363 . S
C2219 C2218 1.415 . S
H2220 C2217 0.999 . S
H2221 C2202 0.913 . S
H2222 C2240 0.951 . S
H2223 C2242 0.951 . S
H2224 C2244 0.950 . S
H2225 C2245 0.950 . S
H2226 C2247 0.950 . S
H2227 C2250 0.950 . S
H2228 C2251 0.950 . S
H2229 C2253 0.950 . S
H2230 C2254 0.950 . S
H2231 C2255 0.951 . S
H2232 C2257 0.951 . S
H2233 C2259 0.950 . S
H2234 C2260 0.950 . S
H2235 C2262 0.950 . S
H2236 C2265 0.950 . S
H2237 C2266 0.950 . S
H2238 C2268 0.950 . S
H2239 C2269 0.950 . S
C2240 H2222 0.951 . S
C2240 C2241 1.366 . S
C2240 C2242 1.388 . S
C2241 C2240 1.366 . S
C2241 C2245 1.385 . S
C2242 H2223 0.951 . S
C2242 C2240 1.388 . S
C2242 C2243 1.366 . S
C2243 C2242 1.366 . S
C2243 C2244 1.414 . S
C2243 C2246 1.499 . S
C2244 H2224 0.950 . S
C2244 C2243 1.414 . S
C2244 C2245 1.374 . S
C2245 H2225 0.950 . S
C2245 C2241 1.385 . S
C2245 C2244 1.374 . S
C2246 C2243 1.499 . S
C2246 C2247 1.373 . S
C2246 C2248 1.389 . S
C2247 H2226 0.950 . S
C2247 C2246 1.373 . S
C2247 C2263 1.377 . S
C2248 C2246 1.389 . S
C2248 C2249 1.524 . S
C2248 C2262 1.377 . S
C2249 C2248 1.524 . S
C2249 C2250 1.397 . S
C2249 C2254 1.363 . S
C2250 H2227 0.950 . S
C2250 C2249 1.397 . S
C2250 C2251 1.334 . S
C2251 H2228 0.950 . S
C2251 C2250 1.334 . S
C2251 C2252 1.287 . S
C2252 C2251 1.287 . S
C2252 C2253 1.524 . S
C2252 H2271 0.913 . S
C2253 H2229 0.950 . S
C2253 C2252 1.524 . S
C2253 C2254 1.415 . S
C2254 H2230 0.950 . S
C2254 C2249 1.363 . S
C2254 C2253 1.415 . S
C2255 H2231 0.951 . S
C2255 C2256 1.366 . S
C2255 C2257 1.388 . S
C2256 C2255 1.366 . S
C2256 C2260 1.385 . S
C2257 H2232 0.951 . S
C2257 C2255 1.388 . S
C2257 C2258 1.366 . S
C2258 C2257 1.366 . S
C2258 C2259 1.414 . S
C2258 C2261 1.499 . S
C2259 H2233 0.950 . S
C2259 C2258 1.414 . S
C2259 C2260 1.374 . S
C2260 H2234 0.950 . S
C2260 C2256 1.385 . S
C2260 C2259 1.374 . S
C2261 C2258 1.499 . S
C2261 C2262 1.373 . S
C2261 C2263 1.389 . S
C2262 H2235 0.950 . S
C2262 C2248 1.377 . S
C2262 C2261 1.373 . S
C2263 C2247 1.377 . S
C2263 C2261 1.389 . S
C2263 C2264 1.524 . S
C2264 C2263 1.524 . S
C2264 C2265 1.397 . S
C2264 C2269 1.363 . S
C2265 H2236 0.950 . S
C2265 C2264 1.397 . S
C2265 C2266 1.334 . S
C2266 H2237 0.950 . S
C2266 C2265 1.334 . S
C2266 C2267 1.287 . S
C2267 C2266 1.287 . S
C2267 C2268 1.524 . S
C2267 H2270 0.999 . S
C2268 H2238 0.950 . S
C2268 C2267 1.524 . S
C2268 C2269 1.415 . S
C2269 H2239 0.950 . S
C2269 C2264 1.363 . S
C2269 C2268 1.415 . S
H2270 C2267 0.999 . S
H2271 C2252 0.913 . S
H2272 C2290 0.951 . S
H2273 C2292 0.951 . S
H2274 C2294 0.950 . S
H2275 C2295 0.950 . S
H2276 C2297 0.950 . S
H2277 C2300 0.950 . S
H2278 C2301 0.950 . S
H2279 C2303 0.950 . S
H2280 C2304 0.950 . S
H2281 C2305 0.951 . S
H2282 C2307 0.951 . S
H2283 C2309 0.950 . S
H2284 C2310 0.950 . S
H2285 C2312 0.950 . S
H2286 C2315 0.950 . S
H2287 C2316 0.950 . S
H2288 C2318 0.950 . S
H2289 C2319 0.950 . S
C2290 H2272 0.951 . S
C2290 C2291 1.366 . S
C2290 C2292 1.388 . S
C2291 C2290 1.366 . S
C2291 C2295 1.385 . S
C2292 H2273 0.951 . S
C2292 C2290 1.388 . S
C2292 C2293 1.366 . S
C2293 C2292 1.366 . S
C2293 C2294 1.414 . S
C2293 C2296 1.499 . S
C2294 H2274 0.950 . S
C2294 C2293 1.414 . S
C2294 C2295 1.374 . S
C2295 H2275 0.950 . S
C2295 C2291 1.385 . S
C2295 C2294 1.374 . S
C2296 C2293 1.499 . S
C2296 C2297 1.373 . S
C2296 C2298 1.389 . S
C2297 H2276 0.950 . S
C2297 C2296 1.373 . S
C2297 C2313 1.377 . S
C2298 C2296 1.389 . S
C2298 C2299 1.524 . S
C2298 C2312 1.377 . S
C2299 C2298 1.524 . S
C2299 C2300 1.397 . S
C2299 C2304 1.363 . S
C2300 H2277 0.950 . S
C2300 C2299 1.397 . S
C2300 C2301 1.334 . S
C2301 H2278 0.950 . S
C2301 C2300 1.334 . S
C2301 C2302 1.287 . S
C2302 C2301 1.287 . S
C2302 C2303 1.524 . S
C2302 H2321 0.913 . S
C2303 H2279 0.950 . S
C2303 C2302 1.524 . S
C2303 C2304 1.415 . S
C2304 H2280 0.950 . S
C2304 C2299 1.363 . S
C2304 C2303 1.415 . S
C2305 H2281 0.951 . S
C2305 C2306 1.366 . S
C2305 C2307 1.388 . S
C2306 C2305 1.366 . S
C2306 C2310 1.385 . S
C2307 H2282 0.951 . S
C2307 C2305 1.388 . S
C2307 C2308 1.366 . S
C2308 C2307 1.366 . S
C2308 C2309 1.414 . S
C2308 C2311 1.499 . S
C2309 H2283 0.950 . S
C2309 C2308 1.414 . S
C2309 C2310 1.374 . S
C2310 H2284 0.950 . S
C2310 C2306 1.385 . S
C2310 C2309 1.374 . S
C2311 C2308 1.499 . S
C2311 C2312 1.373 . S
C2311 C2313 1.389 . S
C2312 H2285 0.950 . S
C2312 C2298 1.377 . S
C2312 C2311 1.373 . S
C2313 C2297 1.377 . S
C2313 C2311 1.389 . S
C2313 C2314 1.524 . S
C2314 C2313 1.524 . S
C2314 C2315 1.397 . S
C2314 C2319 1.363 . S
C2315 H2286 0.950 . S
C2315 C2314 1.397 . S
C2315 C2316 1.334 . S
C2316 H2287 0.950 . S
C2316 C2315 1.334 . S
C2316 C2317 1.287 . S
C2317 C2316 1.287 . S
C2317 C2318 1.524 . S
C2317 H2320 0.999 . S
C2318 H2288 0.950 . S
C2318 C2317 1.524 . S
C2318 C2319 1.415 . S
C2319 H2289 0.950 . S
C2319 C2314 1.363 . S
C2319 C2318 1.415 . S
H2320 C2317 0.999 . S
H2321 C2302 0.913 . S
H2322 C2340 0.951 . S
H2323 C2342 0.951 . S
H2324 C2344 0.950 . S
H2325 C2345 0.950 . S
H2326 C2347 0.950 . S
H2327 C2350 0.950 . S
H2328 C2351 0.950 . S
H2329 C2353 0.950 . S
H2330 C2354 0.950 . S
H2331 C2355 0.951 . S
H2332 C2357 0.951 . S
H2333 C2359 0.950 . S
H2334 C2360 0.950 . S
H2335 C2362 0.950 . S
H2336 C2365 0.950 . S
H2337 C2366 0.950 . S
H2338 C2368 0.950 . S
H2339 C2369 0.950 . S
C2340 H2322 0.951 . S
C2340 C2341 1.366 . S
C2340 C2342 1.388 . S
C2341 C2340 1.366 . S
C2341 C2345 1.385 . S
C2342 H2323 0.951 . S
C2342 C2340 1.388 . S
C2342 C2343 1.366 . S
C2343 C2342 1.366 . S
C2343 C2344 1.414 . S
C2343 C2346 1.499 . S
C2344 H2324 0.950 . S
C2344 C2343 1.414 . S
C2344 C2345 1.374 . S
C2345 H2325 0.950 . S
C2345 C2341 1.385 . S
C2345 C2344 1.374 . S
C2346 C2343 1.499 . S
C2346 C2347 1.373 . S
C2346 C2348 1.389 . S
C2347 H2326 0.950 . S
C2347 C2346 1.373 . S
C2347 C2363 1.377 . S
C2348 C2346 1.389 . S
C2348 C2349 1.524 . S
C2348 C2362 1.377 . S
C2349 C2348 1.524 . S
C2349 C2350 1.397 . S
C2349 C2354 1.363 . S
C2350 H2327 0.950 . S
C2350 C2349 1.397 . S
C2350 C2351 1.334 . S
C2351 H2328 0.950 . S
C2351 C2350 1.334 . S
C2351 C2352 1.287 . S
C2352 C2351 1.287 . S
C2352 C2353 1.524 . S
C2352 H2371 0.913 . S
C2353 H2329 0.950 . S
C2353 C2352 1.524 . S
C2353 C2354 1.415 . S
C2354 H2330 0.950 . S
C2354 C2349 1.363 . S
C2354 C2353 1.415 . S
C2355 H2331 0.951 . S
C2355 C2356 1.366 . S
C2355 C2357 1.388 . S
C2356 C2355 1.366 . S
C2356 C2360 1.385 . S
C2357 H2332 0.951 . S
C2357 C2355 1.388 . S
C2357 C2358 1.366 . S
C2358 C2357 1.366 . S
C2358 C2359 1.414 . S
C2358 C2361 1.499 . S
C2359 H2333 0.950 . S
C2359 C2358 1.414 . S
C2359 C2360 1.374 . S
C2360 H2334 0.950 . S
C2360 C2356 1.385 . S
C2360 C2359 1.374 . S
C2361 C2358 1.499 . S
C2361 C2362 1.373 . S
C2361 C2363 1.389 . S
C2362 H2335 0.950 . S
C2362 C2348 1.377 . S
C2362 C2361 1.373 . S
C2363 C2347 1.377 . S
C2363 C2361 1.389 . S
C2363 C2364 1.524 . S
C2364 C2363 1.524 . S
C2364 C2365 1.397 . S
C2364 C2369 1.363 . S
C2365 H2336 0.950 . S
C2365 C2364 1.397 . S
C2365 C2366 1.334 . S
C2366 H2337 0.950 . S
C2366 C2365 1.334 . S
C2366 C2367 1.287 . S
C2367 C2366 1.287 . S
C2367 C2368 1.524 . S
C2367 H2370 0.999 . S
C2368 H2338 0.950 . S
C2368 C2367 1.524 . S
C2368 C2369 1.415 . S
C2369 H2339 0.950 . S
C2369 C2364 1.363 . S
C2369 C2368 1.415 . S
H2370 C2367 0.999 . S
H2371 C2352 0.913 . S
H2372 C2390 0.951 . S
H2373 C2392 0.951 . S
H2374 C2394 0.950 . S
H2375 C2395 0.950 . S
H2376 C2397 0.950 . S
H2377 C2400 0.950 . S
H2378 C2401 0.950 . S
H2379 C2403 0.950 . S
H2380 C2404 0.950 . S
H2381 C2405 0.951 . S
H2382 C2407 0.951 . S
H2383 C2409 0.950 . S
H2384 C2410 0.950 . S
H2385 C2412 0.950 . S
H2386 C2415 0.950 . S
H2387 C2416 0.950 . S
H2388 C2418 0.950 . S
H2389 C2419 0.950 . S
C2390 H2372 0.951 . S
C2390 C2391 1.366 . S
C2390 C2392 1.388 . S
C2391 C2390 1.366 . S
C2391 C2395 1.385 . S
C2392 H2373 0.951 . S
C2392 C2390 1.388 . S
C2392 C2393 1.366 . S
C2393 C2392 1.366 . S
C2393 C2394 1.414 . S
C2393 C2396 1.499 . S
C2394 H2374 0.950 . S
C2394 C2393 1.414 . S
C2394 C2395 1.374 . S
C2395 H2375 0.950 . S
C2395 C2391 1.385 . S
C2395 C2394 1.374 . S
C2396 C2393 1.499 . S
C2396 C2397 1.373 . S
C2396 C2398 1.389 . S
C2397 H2376 0.950 . S
C2397 C2396 1.373 . S
C2397 C2413 1.377 . S
C2398 C2396 1.389 . S
C2398 C2399 1.524 . S
C2398 C2412 1.377 . S
C2399 C2398 1.524 . S
C2399 C2400 1.397 . S
C2399 C2404 1.363 . S
C2400 H2377 0.950 . S
C2400 C2399 1.397 . S
C2400 C2401 1.334 . S
C2401 H2378 0.950 . S
C2401 C2400 1.334 . S
C2401 C2402 1.287 . S
C2402 C2401 1.287 . S
C2402 C2403 1.524 . S
C2402 H2421 0.913 . S
C2403 H2379 0.950 . S
C2403 C2402 1.524 . S
C2403 C2404 1.415 . S
C2404 H2380 0.950 . S
C2404 C2399 1.363 . S
C2404 C2403 1.415 . S
C2405 H2381 0.951 . S
C2405 C2406 1.366 . S
C2405 C2407 1.388 . S
C2406 C2405 1.366 . S
C2406 C2410 1.385 . S
C2407 H2382 0.951 . S
C2407 C2405 1.388 . S
C2407 C2408 1.366 . S
C2408 C2407 1.366 . S
C2408 C2409 1.414 . S
C2408 C2411 1.499 . S
C2409 H2383 0.950 . S
C2409 C2408 1.414 . S
C2409 C2410 1.374 . S
C2410 H2384 0.950 . S
C2410 C2406 1.385 . S
C2410 C2409 1.374 . S
C2411 C2408 1.499 . S
C2411 C2412 1.373 . S
C2411 C2413 1.389 . S
C2412 H2385 0.950 . S
C2412 C2398 1.377 . S
C2412 C2411 1.373 . S
C2413 C2397 1.377 . S
C2413 C2411 1.389 . S
C2413 C2414 1.524 . S
C2414 C2413 1.524 . S
C2414 C2415 1.397 . S
C2414 C2419 1.363 . S
C2415 H2386 0.950 . S
C2415 C2414 1.397 . S
C2415 C2416 1.334 . S
C2416 H2387 0.950 . S
C2416 C2415 1.334 . S
C2416 C2417 1.287 . S
C2417 C2416 1.287 . S
C2417 C2418 1.524 . S
C2417 H2420 0.999 . S
C2418 H2388 0.950 . S
C2418 C2417 1.524 . S
C2418 C2419 1.415 . S
C2419 H2389 0.950 . S
C2419 C2414 1.363 . S
C2419 C2418 1.415 . S
H2420 C2417 0.999 . S
H2421 C2402 0.913 . S
H2422 C2440 0.951 . S
H2423 C2442 0.951 . S
H2424 C2444 0.950 . S
H2425 C2445 0.950 . S
H2426 C2447 0.950 . S
H2427 C2450 0.950 . S
H2428 C2451 0.950 . S
H2429 C2453 0.950 . S
H2430 C2454 0.950 . S
H2431 C2455 0.951 . S
H2432 C2457 0.951 . S
H2433 C2459 0.950 . S
H2434 C2460 0.950 . S
H2435 C2462 0.950 . S
H2436 C2465 0.950 . S
H2437 C2466 0.950 . S
H2438 C2468 0.950 . S
H2439 C2469 0.950 . S
C2440 H2422 0.951 . S
C2440 C2441 1.366 . S
C2440 C2442 1.388 . S
C2441 C2440 1.366 . S
C2441 C2445 1.385 . S
C2442 H2423 0.951 . S
C2442 C2440 1.388 . S
C2442 C2443 1.366 . S
C2443 C2442 1.366 . S
C2443 C2444 1.414 . S
C2443 C2446 1.499 . S
C2444 H2424 0.950 . S
C2444 C2443 1.414 . S
C2444 C2445 1.374 . S
C2445 H2425 0.950 . S
C2445 C2441 1.385 . S
C2445 C2444 1.374 . S
C2446 C2443 1.499 . S
C2446 C2447 1.373 . S
C2446 C2448 1.389 . S
C2447 H2426 0.950 . S
C2447 C2446 1.373 . S
C2447 C2463 1.377 . S
C2448 C2446 1.389 . S
C2448 C2449 1.524 . S
C2448 C2462 1.377 . S
C2449 C2448 1.524 . S
C2449 C2450 1.397 . S
C2449 C2454 1.363 . S
C2450 H2427 0.950 . S
C2450 C2449 1.397 . S
C2450 C2451 1.334 . S
C2451 H2428 0.950 . S
C2451 C2450 1.334 . S
C2451 C2452 1.287 . S
C2452 C2451 1.287 . S
C2452 C2453 1.524 . S
C2452 H2471 0.913 . S
C2453 H2429 0.950 . S
C2453 C2452 1.524 . S
C2453 C2454 1.415 . S
C2454 H2430 0.950 . S
C2454 C2449 1.363 . S
C2454 C2453 1.415 . S
C2455 H2431 0.951 . S
C2455 C2456 1.366 . S
C2455 C2457 1.388 . S
C2456 C2455 1.366 . S
C2456 C2460 1.385 . S
C2457 H2432 0.951 . S
C2457 C2455 1.388 . S
C2457 C2458 1.366 . S
C2458 C2457 1.366 . S
C2458 C2459 1.414 . S
C2458 C2461 1.499 . S
C2459 H2433 0.950 . S
C2459 C2458 1.414 . S
C2459 C2460 1.374 . S
C2460 H2434 0.950 . S
C2460 C2456 1.385 . S
C2460 C2459 1.374 . S
C2461 C2458 1.499 . S
C2461 C2462 1.373 . S
C2461 C2463 1.389 . S
C2462 H2435 0.950 . S
C2462 C2448 1.377 . S
C2462 C2461 1.373 . S
C2463 C2447 1.377 . S
C2463 C2461 1.389 . S
C2463 C2464 1.524 . S
C2464 C2463 1.524 . S
C2464 C2465 1.397 . S
C2464 C2469 1.363 . S
C2465 H2436 0.950 . S
C2465 C2464 1.397 . S
C2465 C2466 1.334 . S
C2466 H2437 0.950 . S
C2466 C2465 1.334 . S
C2466 C2467 1.287 . S
C2467 C2466 1.287 . S
C2467 C2468 1.524 . S
C2467 H2470 0.999 . S
C2468 H2438 0.950 . S
C2468 C2467 1.524 . S
C2468 C2469 1.415 . S
C2469 H2439 0.950 . S
C2469 C2464 1.363 . S
C2469 C2468 1.415 . S
H2470 C2467 0.999 . S
H2471 C2452 0.913 . S
H2472 C2490 0.951 . S
H2473 C2492 0.951 . S
H2474 C2494 0.950 . S
H2475 C2495 0.950 . S
H2476 C2497 0.950 . S
H2477 C2500 0.950 . S
H2478 C2501 0.950 . S
H2479 C2503 0.950 . S
H2480 C2504 0.950 . S
H2481 C2505 0.951 . S
H2482 C2507 0.951 . S
H2483 C2509 0.950 . S
H2484 C2510 0.950 . S
H2485 C2512 0.950 . S
H2486 C2515 0.950 . S
H2487 C2516 0.950 . S
H2488 C2518 0.950 . S
H2489 C2519 0.950 . S
C2490 H2472 0.951 . S
C2490 C2491 1.366 . S
C2490 C2492 1.388 . S
C2491 C2490 1.366 . S
C2491 C2495 1.385 . S
C2492 H2473 0.951 . S
C2492 C2490 1.388 . S
C2492 C2493 1.366 . S
C2493 C2492 1.366 . S
C2493 C2494 1.414 . S
C2493 C2496 1.499 . S
C2494 H2474 0.950 . S
C2494 C2493 1.414 . S
C2494 C2495 1.374 . S
C2495 H2475 0.950 . S
C2495 C2491 1.385 . S
C2495 C2494 1.374 . S
C2496 C2493 1.499 . S
C2496 C2497 1.373 . S
C2496 C2498 1.389 . S
C2497 H2476 0.950 . S
C2497 C2496 1.373 . S
C2497 C2513 1.377 . S
C2498 C2496 1.389 . S
C2498 C2499 1.524 . S
C2498 C2512 1.377 . S
C2499 C2498 1.524 . S
C2499 C2500 1.397 . S
C2499 C2504 1.363 . S
C2500 H2477 0.950 . S
C2500 C2499 1.397 . S
C2500 C2501 1.334 . S
C2501 H2478 0.950 . S
C2501 C2500 1.334 . S
C2501 C2502 1.287 . S
C2502 C2501 1.287 . S
C2502 C2503 1.524 . S
C2502 H2521 0.890 1_655 S
C2503 H2479 0.950 . S
C2503 C2502 1.524 . S
C2503 C2504 1.415 . S
C2504 H2480 0.950 . S
C2504 C2499 1.363 . S
C2504 C2503 1.415 . S
C2505 H2481 0.951 . S
C2505 C2506 1.366 . S
C2505 C2507 1.388 . S
C2506 C2505 1.366 . S
C2506 C2510 1.385 . S
C2507 H2482 0.951 . S
C2507 C2505 1.388 . S
C2507 C2508 1.366 . S
C2508 C2507 1.366 . S
C2508 C2509 1.414 . S
C2508 C2511 1.499 . S
C2509 H2483 0.950 . S
C2509 C2508 1.414 . S
C2509 C2510 1.374 . S
C2510 H2484 0.950 . S
C2510 C2506 1.385 . S
C2510 C2509 1.374 . S
C2511 C2508 1.499 . S
C2511 C2512 1.373 . S
C2511 C2513 1.389 . S
C2512 H2485 0.950 . S
C2512 C2498 1.377 . S
C2512 C2511 1.373 . S
C2513 C2497 1.377 . S
C2513 C2511 1.389 . S
C2513 C2514 1.524 . S
C2514 C2513 1.524 . S
C2514 C2515 1.397 . S
C2514 C2519 1.363 . S
C2515 H2486 0.950 . S
C2515 C2514 1.397 . S
C2515 C2516 1.334 . S
C2516 H2487 0.950 . S
C2516 C2515 1.334 . S
C2516 C2517 1.287 . S
C2517 C2516 1.287 . S
C2517 C2518 1.524 . S
C2517 H2520 0.999 . S
C2518 H2488 0.950 . S
C2518 C2517 1.524 . S
C2518 C2519 1.415 . S
C2519 H2489 0.950 . S
C2519 C2514 1.363 . S
C2519 C2518 1.415 . S
H2520 C2517 0.999 . S
H2521 C2502 0.890 1_455 S
H2522 C2540 0.951 . S
H2523 C2542 0.951 . S
H2524 C2544 0.950 . S
H2525 C2545 0.950 . S
H2526 C2547 0.950 . S
H2527 C2550 0.950 . S
H2528 C2551 0.950 . S
H2529 C2553 0.950 . S
H2530 C2554 0.950 . S
H2531 C2555 0.951 . S
H2532 C2557 0.951 . S
H2533 C2559 0.950 . S
H2534 C2560 0.950 . S
H2535 C2562 0.950 . S
H2536 C2565 0.950 . S
H2537 C2566 0.950 . S
H2538 C2568 0.950 . S
H2539 C2569 0.950 . S
C2540 H2522 0.951 . S
C2540 C2541 1.366 . S
C2540 C2542 1.388 . S
C2541 C2540 1.366 . S
C2541 C2545 1.385 . S
C2542 H2523 0.951 . S
C2542 C2540 1.388 . S
C2542 C2543 1.366 . S
C2543 C2542 1.366 . S
C2543 C2544 1.414 . S
C2543 C2546 1.499 . S
C2544 H2524 0.950 . S
C2544 C2543 1.414 . S
C2544 C2545 1.374 . S
C2545 H2525 0.950 . S
C2545 C2541 1.385 . S
C2545 C2544 1.374 . S
C2546 C2543 1.499 . S
C2546 C2547 1.373 . S
C2546 C2548 1.389 . S
C2547 H2526 0.950 . S
C2547 C2546 1.373 . S
C2547 C2563 1.377 . S
C2548 C2546 1.389 . S
C2548 C2549 1.524 . S
C2548 C2562 1.377 . S
C2549 C2548 1.524 . S
C2549 C2550 1.397 . S
C2549 C2554 1.363 . S
C2550 H2527 0.950 . S
C2550 C2549 1.397 . S
C2550 C2551 1.334 . S
C2551 H2528 0.950 . S
C2551 C2550 1.334 . S
C2551 C2552 1.287 . S
C2552 C2551 1.287 . S
C2552 C2553 1.524 . S
C2552 H2571 0.913 . S
C2553 H2529 0.950 . S
C2553 C2552 1.524 . S
C2553 C2554 1.415 . S
C2554 H2530 0.950 . S
C2554 C2549 1.363 . S
C2554 C2553 1.415 . S
C2555 H2531 0.951 . S
C2555 C2556 1.366 . S
C2555 C2557 1.388 . S
C2556 C2555 1.366 . S
C2556 C2560 1.385 . S
C2557 H2532 0.951 . S
C2557 C2555 1.388 . S
C2557 C2558 1.366 . S
C2558 C2557 1.366 . S
C2558 C2559 1.414 . S
C2558 C2561 1.499 . S
C2559 H2533 0.950 . S
C2559 C2558 1.414 . S
C2559 C2560 1.374 . S
C2560 H2534 0.950 . S
C2560 C2556 1.385 . S
C2560 C2559 1.374 . S
C2561 C2558 1.499 . S
C2561 C2562 1.373 . S
C2561 C2563 1.389 . S
C2562 H2535 0.950 . S
C2562 C2548 1.377 . S
C2562 C2561 1.373 . S
C2563 C2547 1.377 . S
C2563 C2561 1.389 . S
C2563 C2564 1.524 . S
C2564 C2563 1.524 . S
C2564 C2565 1.397 . S
C2564 C2569 1.363 . S
C2565 H2536 0.950 . S
C2565 C2564 1.397 . S
C2565 C2566 1.334 . S
C2566 H2537 0.950 . S
C2566 C2565 1.334 . S
C2566 C2567 1.287 . S
C2567 C2566 1.287 . S
C2567 C2568 1.524 . S
C2567 H2570 0.999 . S
C2568 H2538 0.950 . S
C2568 C2567 1.524 . S
C2568 C2569 1.415 . S
C2569 H2539 0.950 . S
C2569 C2564 1.363 . S
C2569 C2568 1.415 . S
H2570 C2567 0.999 . S
H2571 C2552 0.913 . S
H2572 C2590 0.951 . S
H2573 C2592 0.951 . S
H2574 C2594 0.950 . S
H2575 C2595 0.950 . S
H2576 C2597 0.950 . S
H2577 C2600 0.950 . S
H2578 C2601 0.950 . S
H2579 C2603 0.950 . S
H2580 C2604 0.950 . S
H2581 C2605 0.951 . S
H2582 C2607 0.951 . S
H2583 C2609 0.950 . S
H2584 C2610 0.950 . S
H2585 C2612 0.950 . S
H2586 C2615 0.950 . S
H2587 C2616 0.950 . S
H2588 C2618 0.950 . S
H2589 C2619 0.950 . S
C2590 H2572 0.951 . S
C2590 C2591 1.366 . S
C2590 C2592 1.388 . S
C2591 C2590 1.366 . S
C2591 C2595 1.385 . S
C2592 H2573 0.951 . S
C2592 C2590 1.388 . S
C2592 C2593 1.366 . S
C2593 C2592 1.366 . S
C2593 C2594 1.414 . S
C2593 C2596 1.499 . S
C2594 H2574 0.950 . S
C2594 C2593 1.414 . S
C2594 C2595 1.374 . S
C2595 H2575 0.950 . S
C2595 C2591 1.385 . S
C2595 C2594 1.374 . S
C2596 C2593 1.499 . S
C2596 C2597 1.373 . S
C2596 C2598 1.389 . S
C2597 H2576 0.950 . S
C2597 C2596 1.373 . S
C2597 C2613 1.377 . S
C2598 C2596 1.389 . S
C2598 C2599 1.524 . S
C2598 C2612 1.377 . S
C2599 C2598 1.524 . S
C2599 C2600 1.397 . S
C2599 C2604 1.363 . S
C2600 H2577 0.950 . S
C2600 C2599 1.397 . S
C2600 C2601 1.334 . S
C2601 H2578 0.950 . S
C2601 C2600 1.334 . S
C2601 C2602 1.287 . S
C2602 C2601 1.287 . S
C2602 C2603 1.524 . S
C2602 H2621 0.913 . S
C2603 H2579 0.950 . S
C2603 C2602 1.524 . S
C2603 C2604 1.415 . S
C2604 H2580 0.950 . S
C2604 C2599 1.363 . S
C2604 C2603 1.415 . S
C2605 H2581 0.951 . S
C2605 C2606 1.366 . S
C2605 C2607 1.388 . S
C2606 C2605 1.366 . S
C2606 C2610 1.385 . S
C2607 H2582 0.951 . S
C2607 C2605 1.388 . S
C2607 C2608 1.366 . S
C2608 C2607 1.366 . S
C2608 C2609 1.414 . S
C2608 C2611 1.499 . S
C2609 H2583 0.950 . S
C2609 C2608 1.414 . S
C2609 C2610 1.374 . S
C2610 H2584 0.950 . S
C2610 C2606 1.385 . S
C2610 C2609 1.374 . S
C2611 C2608 1.499 . S
C2611 C2612 1.373 . S
C2611 C2613 1.389 . S
C2612 H2585 0.950 . S
C2612 C2598 1.377 . S
C2612 C2611 1.373 . S
C2613 C2597 1.377 . S
C2613 C2611 1.389 . S
C2613 C2614 1.524 . S
C2614 C2613 1.524 . S
C2614 C2615 1.397 . S
C2614 C2619 1.363 . S
C2615 H2586 0.950 . S
C2615 C2614 1.397 . S
C2615 C2616 1.334 . S
C2616 H2587 0.950 . S
C2616 C2615 1.334 . S
C2616 C2617 1.287 . S
C2617 C2616 1.287 . S
C2617 C2618 1.524 . S
C2617 H2620 0.999 . S
C2618 H2588 0.950 . S
C2618 C2617 1.524 . S
C2618 C2619 1.415 . S
C2619 H2589 0.950 . S
C2619 C2614 1.363 . S
C2619 C2618 1.415 . S
H2620 C2617 0.999 . S
H2621 C2602 0.913 . S
H2622 C2640 0.951 . S
H2623 C2642 0.951 . S
H2624 C2644 0.950 . S
H2625 C2645 0.950 . S
H2626 C2647 0.950 . S
H2627 C2650 0.950 . S
H2628 C2651 0.950 . S
H2629 C2653 0.950 . S
H2630 C2654 0.950 . S
H2631 C2655 0.951 . S
H2632 C2657 0.951 . S
H2633 C2659 0.950 . S
H2634 C2660 0.950 . S
H2635 C2662 0.950 . S
H2636 C2665 0.950 . S
H2637 C2666 0.950 . S
H2638 C2668 0.950 . S
H2639 C2669 0.950 . S
C2640 H2622 0.951 . S
C2640 C2641 1.366 . S
C2640 C2642 1.388 . S
C2641 C2640 1.366 . S
C2641 C2645 1.385 . S
C2642 H2623 0.951 . S
C2642 C2640 1.388 . S
C2642 C2643 1.366 . S
C2643 C2642 1.366 . S
C2643 C2644 1.414 . S
C2643 C2646 1.499 . S
C2644 H2624 0.950 . S
C2644 C2643 1.414 . S
C2644 C2645 1.374 . S
C2645 H2625 0.950 . S
C2645 C2641 1.385 . S
C2645 C2644 1.374 . S
C2646 C2643 1.499 . S
C2646 C2647 1.373 . S
C2646 C2648 1.389 . S
C2647 H2626 0.950 . S
C2647 C2646 1.373 . S
C2647 C2663 1.377 . S
C2648 C2646 1.389 . S
C2648 C2649 1.524 . S
C2648 C2662 1.377 . S
C2649 C2648 1.524 . S
C2649 C2650 1.397 . S
C2649 C2654 1.363 . S
C2650 H2627 0.950 . S
C2650 C2649 1.397 . S
C2650 C2651 1.334 . S
C2651 H2628 0.950 . S
C2651 C2650 1.334 . S
C2651 C2652 1.287 . S
C2652 C2651 1.287 . S
C2652 C2653 1.524 . S
C2652 H2671 0.913 . S
C2653 H2629 0.950 . S
C2653 C2652 1.524 . S
C2653 C2654 1.415 . S
C2654 H2630 0.950 . S
C2654 C2649 1.363 . S
C2654 C2653 1.415 . S
C2655 H2631 0.951 . S
C2655 C2656 1.366 . S
C2655 C2657 1.388 . S
C2656 C2655 1.366 . S
C2656 C2660 1.385 . S
C2657 H2632 0.951 . S
C2657 C2655 1.388 . S
C2657 C2658 1.366 . S
C2658 C2657 1.366 . S
C2658 C2659 1.414 . S
C2658 C2661 1.499 . S
C2659 H2633 0.950 . S
C2659 C2658 1.414 . S
C2659 C2660 1.374 . S
C2660 H2634 0.950 . S
C2660 C2656 1.385 . S
C2660 C2659 1.374 . S
C2661 C2658 1.499 . S
C2661 C2662 1.373 . S
C2661 C2663 1.389 . S
C2662 H2635 0.950 . S
C2662 C2648 1.377 . S
C2662 C2661 1.373 . S
C2663 C2647 1.377 . S
C2663 C2661 1.389 . S
C2663 C2664 1.524 . S
C2664 C2663 1.524 . S
C2664 C2665 1.397 . S
C2664 C2669 1.363 . S
C2665 H2636 0.950 . S
C2665 C2664 1.397 . S
C2665 C2666 1.334 . S
C2666 H2637 0.950 . S
C2666 C2665 1.334 . S
C2666 C2667 1.287 . S
C2667 C2666 1.287 . S
C2667 C2668 1.524 . S
C2667 H2670 0.999 . S
C2668 H2638 0.950 . S
C2668 C2667 1.524 . S
C2668 C2669 1.415 . S
C2669 H2639 0.950 . S
C2669 C2664 1.363 . S
C2669 C2668 1.415 . S
H2670 C2667 0.999 . S
H2671 C2652 0.913 . S
H2672 C2690 0.951 . S
H2673 C2692 0.951 . S
H2674 C2694 0.950 . S
H2675 C2695 0.950 . S
H2676 C2697 0.950 . S
H2677 C2700 0.950 . S
H2678 C2701 0.950 . S
H2679 C2703 0.950 . S
H2680 C2704 0.950 . S
H2681 C2705 0.951 . S
H2682 C2707 0.951 . S
H2683 C2709 0.950 . S
H2684 C2710 0.950 . S
H2685 C2712 0.950 . S
H2686 C2715 0.950 . S
H2687 C2716 0.950 . S
H2688 C2718 0.950 . S
H2689 C2719 0.950 . S
C2690 H2672 0.951 . S
C2690 C2691 1.366 . S
C2690 C2692 1.388 . S
C2691 C2690 1.366 . S
C2691 C2695 1.385 . S
C2692 H2673 0.951 . S
C2692 C2690 1.388 . S
C2692 C2693 1.366 . S
C2693 C2692 1.366 . S
C2693 C2694 1.414 . S
C2693 C2696 1.499 . S
C2694 H2674 0.950 . S
C2694 C2693 1.414 . S
C2694 C2695 1.374 . S
C2695 H2675 0.950 . S
C2695 C2691 1.385 . S
C2695 C2694 1.374 . S
C2696 C2693 1.499 . S
C2696 C2697 1.373 . S
C2696 C2698 1.389 . S
C2697 H2676 0.950 . S
C2697 C2696 1.373 . S
C2697 C2713 1.377 . S
C2698 C2696 1.389 . S
C2698 C2699 1.524 . S
C2698 C2712 1.377 . S
C2699 C2698 1.524 . S
C2699 C2700 1.397 . S
C2699 C2704 1.363 . S
C2700 H2677 0.950 . S
C2700 C2699 1.397 . S
C2700 C2701 1.334 . S
C2701 H2678 0.950 . S
C2701 C2700 1.334 . S
C2701 C2702 1.287 . S
C2702 C2701 1.287 . S
C2702 C2703 1.524 . S
C2702 H2721 0.913 . S
C2703 H2679 0.950 . S
C2703 C2702 1.524 . S
C2703 C2704 1.415 . S
C2704 H2680 0.950 . S
C2704 C2699 1.363 . S
C2704 C2703 1.415 . S
C2705 H2681 0.951 . S
C2705 C2706 1.366 . S
C2705 C2707 1.388 . S
C2706 C2705 1.366 . S
C2706 C2710 1.385 . S
C2707 H2682 0.951 . S
C2707 C2705 1.388 . S
C2707 C2708 1.366 . S
C2708 C2707 1.366 . S
C2708 C2709 1.414 . S
C2708 C2711 1.499 . S
C2709 H2683 0.950 . S
C2709 C2708 1.414 . S
C2709 C2710 1.374 . S
C2710 H2684 0.950 . S
C2710 C2706 1.385 . S
C2710 C2709 1.374 . S
C2711 C2708 1.499 . S
C2711 C2712 1.373 . S
C2711 C2713 1.389 . S
C2712 H2685 0.950 . S
C2712 C2698 1.377 . S
C2712 C2711 1.373 . S
C2713 C2697 1.377 . S
C2713 C2711 1.389 . S
C2713 C2714 1.524 . S
C2714 C2713 1.524 . S
C2714 C2715 1.397 . S
C2714 C2719 1.363 . S
C2715 H2686 0.950 . S
C2715 C2714 1.397 . S
C2715 C2716 1.334 . S
C2716 H2687 0.950 . S
C2716 C2715 1.334 . S
C2716 C2717 1.287 . S
C2717 C2716 1.287 . S
C2717 C2718 1.524 . S
C2717 H2720 0.999 . S
C2718 H2688 0.950 . S
C2718 C2717 1.524 . S
C2718 C2719 1.415 . S
C2719 H2689 0.950 . S
C2719 C2714 1.363 . S
C2719 C2718 1.415 . S
H2720 C2717 0.999 . S
H2721 C2702 0.913 . S
H2722 C2740 0.951 . S
H2723 C2742 0.951 . S
H2724 C2744 0.950 . S
H2725 C2745 0.950 . S
H2726 C2747 0.950 . S
H2727 C2750 0.950 . S
H2728 C2751 0.950 . S
H2729 C2753 0.950 . S
H2730 C2754 0.950 . S
H2731 C2755 0.951 . S
H2732 C2757 0.951 . S
H2733 C2759 0.950 . S
H2734 C2760 0.950 . S
H2735 C2762 0.950 . S
H2736 C2765 0.950 . S
H2737 C2766 0.950 . S
H2738 C2768 0.950 . S
H2739 C2769 0.950 . S
C2740 H2722 0.951 . S
C2740 C2741 1.366 . S
C2740 C2742 1.388 . S
C2741 C2740 1.366 . S
C2741 C2745 1.385 . S
C2742 H2723 0.951 . S
C2742 C2740 1.388 . S
C2742 C2743 1.366 . S
C2743 C2742 1.366 . S
C2743 C2744 1.414 . S
C2743 C2746 1.499 . S
C2744 H2724 0.950 . S
C2744 C2743 1.414 . S
C2744 C2745 1.374 . S
C2745 H2725 0.950 . S
C2745 C2741 1.385 . S
C2745 C2744 1.374 . S
C2746 C2743 1.499 . S
C2746 C2747 1.373 . S
C2746 C2748 1.389 . S
C2747 H2726 0.950 . S
C2747 C2746 1.373 . S
C2747 C2763 1.377 . S
C2748 C2746 1.389 . S
C2748 C2749 1.524 . S
C2748 C2762 1.377 . S
C2749 C2748 1.524 . S
C2749 C2750 1.397 . S
C2749 C2754 1.363 . S
C2750 H2727 0.950 . S
C2750 C2749 1.397 . S
C2750 C2751 1.334 . S
C2751 H2728 0.950 . S
C2751 C2750 1.334 . S
C2751 C2752 1.287 . S
C2752 C2751 1.287 . S
C2752 C2753 1.524 . S
C2752 H2771 0.913 . S
C2753 H2729 0.950 . S
C2753 C2752 1.524 . S
C2753 C2754 1.415 . S
C2754 H2730 0.950 . S
C2754 C2749 1.363 . S
C2754 C2753 1.415 . S
C2755 H2731 0.951 . S
C2755 C2756 1.366 . S
C2755 C2757 1.388 . S
C2756 C2755 1.366 . S
C2756 C2760 1.385 . S
C2757 H2732 0.951 . S
C2757 C2755 1.388 . S
C2757 C2758 1.366 . S
C2758 C2757 1.366 . S
C2758 C2759 1.414 . S
C2758 C2761 1.499 . S
C2759 H2733 0.950 . S
C2759 C2758 1.414 . S
C2759 C2760 1.374 . S
C2760 H2734 0.950 . S
C2760 C2756 1.385 . S
C2760 C2759 1.374 . S
C2761 C2758 1.499 . S
C2761 C2762 1.373 . S
C2761 C2763 1.389 . S
C2762 H2735 0.950 . S
C2762 C2748 1.377 . S
C2762 C2761 1.373 . S
C2763 C2747 1.377 . S
C2763 C2761 1.389 . S
C2763 C2764 1.524 . S
C2764 C2763 1.524 . S
C2764 C2765 1.397 . S
C2764 C2769 1.363 . S
C2765 H2736 0.950 . S
C2765 C2764 1.397 . S
C2765 C2766 1.334 . S
C2766 H2737 0.950 . S
C2766 C2765 1.334 . S
C2766 C2767 1.287 . S
C2767 C2766 1.287 . S
C2767 C2768 1.524 . S
C2767 H2770 0.999 . S
C2768 H2738 0.950 . S
C2768 C2767 1.524 . S
C2768 C2769 1.415 . S
C2769 H2739 0.950 . S
C2769 C2764 1.363 . S
C2769 C2768 1.415 . S
H2770 C2767 0.999 . S
H2771 C2752 0.913 . S
H2772 C2790 0.951 . S
H2773 C2792 0.951 . S
H2774 C2794 0.950 . S
H2775 C2795 0.950 . S
H2776 C2797 0.950 . S
H2777 C2800 0.950 . S
H2778 C2801 0.950 . S
H2779 C2803 0.950 . S
H2780 C2804 0.950 . S
H2781 C2805 0.951 . S
H2782 C2807 0.951 . S
H2783 C2809 0.950 . S
H2784 C2810 0.950 . S
H2785 C2812 0.950 . S
H2786 C2815 0.950 . S
H2787 C2816 0.950 . S
H2788 C2818 0.950 . S
H2789 C2819 0.950 . S
C2790 H2772 0.951 . S
C2790 C2791 1.366 . S
C2790 C2792 1.388 . S
C2791 C2790 1.366 . S
C2791 C2795 1.385 . S
C2792 H2773 0.951 . S
C2792 C2790 1.388 . S
C2792 C2793 1.366 . S
C2793 C2792 1.366 . S
C2793 C2794 1.414 . S
C2793 C2796 1.499 . S
C2794 H2774 0.950 . S
C2794 C2793 1.414 . S
C2794 C2795 1.374 . S
C2795 H2775 0.950 . S
C2795 C2791 1.385 . S
C2795 C2794 1.374 . S
C2796 C2793 1.499 . S
C2796 C2797 1.373 . S
C2796 C2798 1.389 . S
C2797 H2776 0.950 . S
C2797 C2796 1.373 . S
C2797 C2813 1.377 . S
C2798 C2796 1.389 . S
C2798 C2799 1.524 . S
C2798 C2812 1.377 . S
C2799 C2798 1.524 . S
C2799 C2800 1.397 . S
C2799 C2804 1.363 . S
C2800 H2777 0.950 . S
C2800 C2799 1.397 . S
C2800 C2801 1.334 . S
C2801 H2778 0.950 . S
C2801 C2800 1.334 . S
C2801 C2802 1.287 . S
C2802 C2801 1.287 . S
C2802 C2803 1.524 . S
C2802 H2821 0.913 . S
C2803 H2779 0.950 . S
C2803 C2802 1.524 . S
C2803 C2804 1.415 . S
C2804 H2780 0.950 . S
C2804 C2799 1.363 . S
C2804 C2803 1.415 . S
C2805 H2781 0.951 . S
C2805 C2806 1.366 . S
C2805 C2807 1.388 . S
C2806 C2805 1.366 . S
C2806 C2810 1.385 . S
C2807 H2782 0.951 . S
C2807 C2805 1.388 . S
C2807 C2808 1.366 . S
C2808 C2807 1.366 . S
C2808 C2809 1.414 . S
C2808 C2811 1.499 . S
C2809 H2783 0.950 . S
C2809 C2808 1.414 . S
C2809 C2810 1.374 . S
C2810 H2784 0.950 . S
C2810 C2806 1.385 . S
C2810 C2809 1.374 . S
C2811 C2808 1.499 . S
C2811 C2812 1.373 . S
C2811 C2813 1.389 . S
C2812 H2785 0.950 . S
C2812 C2798 1.377 . S
C2812 C2811 1.373 . S
C2813 C2797 1.377 . S
C2813 C2811 1.389 . S
C2813 C2814 1.524 . S
C2814 C2813 1.524 . S
C2814 C2815 1.397 . S
C2814 C2819 1.363 . S
C2815 H2786 0.950 . S
C2815 C2814 1.397 . S
C2815 C2816 1.334 . S
C2816 H2787 0.950 . S
C2816 C2815 1.334 . S
C2816 C2817 1.287 . S
C2817 C2816 1.287 . S
C2817 C2818 1.524 . S
C2817 H2820 0.999 . S
C2818 H2788 0.950 . S
C2818 C2817 1.524 . S
C2818 C2819 1.415 . S
C2819 H2789 0.950 . S
C2819 C2814 1.363 . S
C2819 C2818 1.415 . S
H2820 C2817 0.999 . S
H2821 C2802 0.913 . S
H2822 C2840 0.951 . S
H2823 C2842 0.951 . S
H2824 C2844 0.950 . S
H2825 C2845 0.950 . S
H2826 C2847 0.950 . S
H2827 C2850 0.950 . S
H2828 C2851 0.950 . S
H2829 C2853 0.950 . S
H2830 C2854 0.950 . S
H2831 C2855 0.951 . S
H2832 C2857 0.951 . S
H2833 C2859 0.950 . S
H2834 C2860 0.950 . S
H2835 C2862 0.950 . S
H2836 C2865 0.950 . S
H2837 C2866 0.950 . S
H2838 C2868 0.950 . S
H2839 C2869 0.950 . S
C2840 H2822 0.951 . S
C2840 C2841 1.366 . S
C2840 C2842 1.388 . S
C2841 C2840 1.366 . S
C2841 C2845 1.385 . S
C2842 H2823 0.951 . S
C2842 C2840 1.388 . S
C2842 C2843 1.366 . S
C2843 C2842 1.366 . S
C2843 C2844 1.414 . S
C2843 C2846 1.499 . S
C2844 H2824 0.950 . S
C2844 C2843 1.414 . S
C2844 C2845 1.374 . S
C2845 H2825 0.950 . S
C2845 C2841 1.385 . S
C2845 C2844 1.374 . S
C2846 C2843 1.499 . S
C2846 C2847 1.373 . S
C2846 C2848 1.389 . S
C2847 H2826 0.950 . S
C2847 C2846 1.373 . S
C2847 C2863 1.377 . S
C2848 C2846 1.389 . S
C2848 C2849 1.524 . S
C2848 C2862 1.377 . S
C2849 C2848 1.524 . S
C2849 C2850 1.397 . S
C2849 C2854 1.363 . S
C2850 H2827 0.950 . S
C2850 C2849 1.397 . S
C2850 C2851 1.334 . S
C2851 H2828 0.950 . S
C2851 C2850 1.334 . S
C2851 C2852 1.287 . S
C2852 C2851 1.287 . S
C2852 C2853 1.524 . S
C2852 H2871 0.913 . S
C2853 H2829 0.950 . S
C2853 C2852 1.524 . S
C2853 C2854 1.415 . S
C2854 H2830 0.950 . S
C2854 C2849 1.363 . S
C2854 C2853 1.415 . S
C2855 H2831 0.951 . S
C2855 C2856 1.366 . S
C2855 C2857 1.388 . S
C2856 C2855 1.366 . S
C2856 C2860 1.385 . S
C2857 H2832 0.951 . S
C2857 C2855 1.388 . S
C2857 C2858 1.366 . S
C2858 C2857 1.366 . S
C2858 C2859 1.414 . S
C2858 C2861 1.499 . S
C2859 H2833 0.950 . S
C2859 C2858 1.414 . S
C2859 C2860 1.374 . S
C2860 H2834 0.950 . S
C2860 C2856 1.385 . S
C2860 C2859 1.374 . S
C2861 C2858 1.499 . S
C2861 C2862 1.373 . S
C2861 C2863 1.389 . S
C2862 H2835 0.950 . S
C2862 C2848 1.377 . S
C2862 C2861 1.373 . S
C2863 C2847 1.377 . S
C2863 C2861 1.389 . S
C2863 C2864 1.524 . S
C2864 C2863 1.524 . S
C2864 C2865 1.397 . S
C2864 C2869 1.363 . S
C2865 H2836 0.950 . S
C2865 C2864 1.397 . S
C2865 C2866 1.334 . S
C2866 H2837 0.950 . S
C2866 C2865 1.334 . S
C2866 C2867 1.287 . S
C2867 C2866 1.287 . S
C2867 C2868 1.524 . S
C2867 H2870 0.999 . S
C2868 H2838 0.950 . S
C2868 C2867 1.524 . S
C2868 C2869 1.415 . S
C2869 H2839 0.950 . S
C2869 C2864 1.363 . S
C2869 C2868 1.415 . S
H2870 C2867 0.999 . S
H2871 C2852 0.913 . S
H2872 C2890 0.951 . S
H2873 C2892 0.951 . S
H2874 C2894 0.950 . S
H2875 C2895 0.950 . S
H2876 C2897 0.950 . S
H2877 C2900 0.950 . S
H2878 C2901 0.950 . S
H2879 C2903 0.950 . S
H2880 C2904 0.950 . S
H2881 C2905 0.951 . S
H2882 C2907 0.951 . S
H2883 C2909 0.950 . S
H2884 C2910 0.950 . S
H2885 C2912 0.950 . S
H2886 C2915 0.950 . S
H2887 C2916 0.950 . S
H2888 C2918 0.950 . S
H2889 C2919 0.950 . S
C2890 H2872 0.951 . S
C2890 C2891 1.366 . S
C2890 C2892 1.388 . S
C2891 C2890 1.366 . S
C2891 C2895 1.385 . S
C2892 H2873 0.951 . S
C2892 C2890 1.388 . S
C2892 C2893 1.366 . S
C2893 C2892 1.366 . S
C2893 C2894 1.414 . S
C2893 C2896 1.499 . S
C2894 H2874 0.950 . S
C2894 C2893 1.414 . S
C2894 C2895 1.374 . S
C2895 H2875 0.950 . S
C2895 C2891 1.385 . S
C2895 C2894 1.374 . S
C2896 C2893 1.499 . S
C2896 C2897 1.373 . S
C2896 C2898 1.389 . S
C2897 H2876 0.950 . S
C2897 C2896 1.373 . S
C2897 C2913 1.377 . S
C2898 C2896 1.389 . S
C2898 C2899 1.524 . S
C2898 C2912 1.377 . S
C2899 C2898 1.524 . S
C2899 C2900 1.397 . S
C2899 C2904 1.363 . S
C2900 H2877 0.950 . S
C2900 C2899 1.397 . S
C2900 C2901 1.334 . S
C2901 H2878 0.950 . S
C2901 C2900 1.334 . S
C2901 C2902 1.287 . S
C2902 C2901 1.287 . S
C2902 C2903 1.524 . S
C2902 H2921 0.913 . S
C2903 H2879 0.950 . S
C2903 C2902 1.524 . S
C2903 C2904 1.415 . S
C2904 H2880 0.950 . S
C2904 C2899 1.363 . S
C2904 C2903 1.415 . S
C2905 H2881 0.951 . S
C2905 C2906 1.366 . S
C2905 C2907 1.388 . S
C2906 C2905 1.366 . S
C2906 C2910 1.385 . S
C2907 H2882 0.951 . S
C2907 C2905 1.388 . S
C2907 C2908 1.366 . S
C2908 C2907 1.366 . S
C2908 C2909 1.414 . S
C2908 C2911 1.499 . S
C2909 H2883 0.950 . S
C2909 C2908 1.414 . S
C2909 C2910 1.374 . S
C2910 H2884 0.950 . S
C2910 C2906 1.385 . S
C2910 C2909 1.374 . S
C2911 C2908 1.499 . S
C2911 C2912 1.373 . S
C2911 C2913 1.389 . S
C2912 H2885 0.950 . S
C2912 C2898 1.377 . S
C2912 C2911 1.373 . S
C2913 C2897 1.377 . S
C2913 C2911 1.389 . S
C2913 C2914 1.524 . S
C2914 C2913 1.524 . S
C2914 C2915 1.397 . S
C2914 C2919 1.363 . S
C2915 H2886 0.950 . S
C2915 C2914 1.397 . S
C2915 C2916 1.334 . S
C2916 H2887 0.950 . S
C2916 C2915 1.334 . S
C2916 C2917 1.287 . S
C2917 C2916 1.287 . S
C2917 C2918 1.524 . S
C2917 H2920 0.999 . S
C2918 H2888 0.950 . S
C2918 C2917 1.524 . S
C2918 C2919 1.415 . S
C2919 H2889 0.950 . S
C2919 C2914 1.363 . S
C2919 C2918 1.415 . S
H2920 C2917 0.999 . S
H2921 C2902 0.913 . S
H2922 C2940 0.951 . S
H2923 C2942 0.951 . S
H2924 C2944 0.950 . S
H2925 C2945 0.950 . S
H2926 C2947 0.950 . S
H2927 C2950 0.950 . S
H2928 C2951 0.950 . S
H2929 C2953 0.950 . S
H2930 C2954 0.950 . S
H2931 C2955 0.951 . S
H2932 C2957 0.951 . S
H2933 C2959 0.950 . S
H2934 C2960 0.950 . S
H2935 C2962 0.950 . S
H2936 C2965 0.950 . S
H2937 C2966 0.950 . S
H2938 C2968 0.950 . S
H2939 C2969 0.950 . S
C2940 H2922 0.951 . S
C2940 C2941 1.366 . S
C2940 C2942 1.388 . S
C2941 C2940 1.366 . S
C2941 C2945 1.385 . S
C2942 H2923 0.951 . S
C2942 C2940 1.388 . S
C2942 C2943 1.366 . S
C2943 C2942 1.366 . S
C2943 C2944 1.414 . S
C2943 C2946 1.499 . S
C2944 H2924 0.950 . S
C2944 C2943 1.414 . S
C2944 C2945 1.374 . S
C2945 H2925 0.950 . S
C2945 C2941 1.385 . S
C2945 C2944 1.374 . S
C2946 C2943 1.499 . S
C2946 C2947 1.373 . S
C2946 C2948 1.389 . S
C2947 H2926 0.950 . S
C2947 C2946 1.373 . S
C2947 C2963 1.377 . S
C2948 C2946 1.389 . S
C2948 C2949 1.524 . S
C2948 C2962 1.377 . S
C2949 C2948 1.524 . S
C2949 C2950 1.397 . S
C2949 C2954 1.363 . S
C2950 H2927 0.950 . S
C2950 C2949 1.397 . S
C2950 C2951 1.334 . S
C2951 H2928 0.950 . S
C2951 C2950 1.334 . S
C2951 C2952 1.287 . S
C2952 C2951 1.287 . S
C2952 C2953 1.524 . S
C2952 H2971 0.913 . S
C2953 H2929 0.950 . S
C2953 C2952 1.524 . S
C2953 C2954 1.415 . S
C2954 H2930 0.950 . S
C2954 C2949 1.363 . S
C2954 C2953 1.415 . S
C2955 H2931 0.951 . S
C2955 C2956 1.366 . S
C2955 C2957 1.388 . S
C2956 C2955 1.366 . S
C2956 C2960 1.385 . S
C2957 H2932 0.951 . S
C2957 C2955 1.388 . S
C2957 C2958 1.366 . S
C2958 C2957 1.366 . S
C2958 C2959 1.414 . S
C2958 C2961 1.499 . S
C2959 H2933 0.950 . S
C2959 C2958 1.414 . S
C2959 C2960 1.374 . S
C2960 H2934 0.950 . S
C2960 C2956 1.385 . S
C2960 C2959 1.374 . S
C2961 C2958 1.499 . S
C2961 C2962 1.373 . S
C2961 C2963 1.389 . S
C2962 H2935 0.950 . S
C2962 C2948 1.377 . S
C2962 C2961 1.373 . S
C2963 C2947 1.377 . S
C2963 C2961 1.389 . S
C2963 C2964 1.524 . S
C2964 C2963 1.524 . S
C2964 C2965 1.397 . S
C2964 C2969 1.363 . S
C2965 H2936 0.950 . S
C2965 C2964 1.397 . S
C2965 C2966 1.334 . S
C2966 H2937 0.950 . S
C2966 C2965 1.334 . S
C2966 C2967 1.287 . S
C2967 C2966 1.287 . S
C2967 C2968 1.524 . S
C2967 H2970 0.999 . S
C2968 H2938 0.950 . S
C2968 C2967 1.524 . S
C2968 C2969 1.415 . S
C2969 H2939 0.950 . S
C2969 C2964 1.363 . S
C2969 C2968 1.415 . S
H2970 C2967 0.999 . S
H2971 C2952 0.913 . S
H2972 C2990 0.951 . S
H2973 C2992 0.951 . S
H2974 C2994 0.950 . S
H2975 C2995 0.950 . S
H2976 C2997 0.950 . S
H2977 C3000 0.950 . S
H2978 C3001 0.950 . S
H2979 C3003 0.950 . S
H2980 C3004 0.950 . S
H2981 C3005 0.951 . S
H2982 C3007 0.951 . S
H2983 C3009 0.950 . S
H2984 C3010 0.950 . S
H2985 C3012 0.950 . S
H2986 C3015 0.950 . S
H2987 C3016 0.950 . S
H2988 C3018 0.950 . S
H2989 C3019 0.950 . S
C2990 H2972 0.951 . S
C2990 C2991 1.366 . S
C2990 C2992 1.388 . S
C2991 C2990 1.366 . S
C2991 C2995 1.385 . S
C2992 H2973 0.951 . S
C2992 C2990 1.388 . S
C2992 C2993 1.366 . S
C2993 C2992 1.366 . S
C2993 C2994 1.414 . S
C2993 C2996 1.499 . S
C2994 H2974 0.950 . S
C2994 C2993 1.414 . S
C2994 C2995 1.374 . S
C2995 H2975 0.950 . S
C2995 C2991 1.385 . S
C2995 C2994 1.374 . S
C2996 C2993 1.499 . S
C2996 C2997 1.373 . S
C2996 C2998 1.389 . S
C2997 H2976 0.950 . S
C2997 C2996 1.373 . S
C2997 C3013 1.377 . S
C2998 C2996 1.389 . S
C2998 C2999 1.524 . S
C2998 C3012 1.377 . S
C2999 C2998 1.524 . S
C2999 C3000 1.397 . S
C2999 C3004 1.363 . S
C3000 H2977 0.950 . S
C3000 C2999 1.397 . S
C3000 C3001 1.334 . S
C3001 H2978 0.950 . S
C3001 C3000 1.334 . S
C3001 C3002 1.287 . S
C3002 C3001 1.287 . S
C3002 C3003 1.524 . S
C3002 H3021 0.913 . S
C3003 H2979 0.950 . S
C3003 C3002 1.524 . S
C3003 C3004 1.415 . S
C3004 H2980 0.950 . S
C3004 C2999 1.363 . S
C3004 C3003 1.415 . S
C3005 H2981 0.951 . S
C3005 C3006 1.366 . S
C3005 C3007 1.388 . S
C3006 C3005 1.366 . S
C3006 C3010 1.385 . S
C3007 H2982 0.951 . S
C3007 C3005 1.388 . S
C3007 C3008 1.366 . S
C3008 C3007 1.366 . S
C3008 C3009 1.414 . S
C3008 C3011 1.499 . S
C3009 H2983 0.950 . S
C3009 C3008 1.414 . S
C3009 C3010 1.374 . S
C3010 H2984 0.950 . S
C3010 C3006 1.385 . S
C3010 C3009 1.374 . S
C3011 C3008 1.499 . S
C3011 C3012 1.373 . S
C3011 C3013 1.389 . S
C3012 H2985 0.950 . S
C3012 C2998 1.377 . S
C3012 C3011 1.373 . S
C3013 C2997 1.377 . S
C3013 C3011 1.389 . S
C3013 C3014 1.524 . S
C3014 C3013 1.524 . S
C3014 C3015 1.397 . S
C3014 C3019 1.363 . S
C3015 H2986 0.950 . S
C3015 C3014 1.397 . S
C3015 C3016 1.334 . S
C3016 H2987 0.950 . S
C3016 C3015 1.334 . S
C3016 C3017 1.287 . S
C3017 C3016 1.287 . S
C3017 C3018 1.524 . S
C3017 H3020 0.999 . S
C3018 H2988 0.950 . S
C3018 C3017 1.524 . S
C3018 C3019 1.415 . S
C3019 H2989 0.950 . S
C3019 C3014 1.363 . S
C3019 C3018 1.415 . S
H3020 C3017 0.999 . S
H3021 C3002 0.913 . S
H3022 C3040 0.951 . S
H3023 C3042 0.951 . S
H3024 C3044 0.950 . S
H3025 C3045 0.950 . S
H3026 C3047 0.950 . S
H3027 C3050 0.950 . S
H3028 C3051 0.950 . S
H3029 C3053 0.950 . S
H3030 C3054 0.950 . S
H3031 C3055 0.951 . S
H3032 C3057 0.951 . S
H3033 C3059 0.950 . S
H3034 C3060 0.950 . S
H3035 C3062 0.950 . S
H3036 C3065 0.950 . S
H3037 C3066 0.950 . S
H3038 C3068 0.950 . S
H3039 C3069 0.950 . S
C3040 H3022 0.951 . S
C3040 C3041 1.366 . S
C3040 C3042 1.388 . S
C3041 C3040 1.366 . S
C3041 C3045 1.385 . S
C3042 H3023 0.951 . S
C3042 C3040 1.388 . S
C3042 C3043 1.366 . S
C3043 C3042 1.366 . S
C3043 C3044 1.414 . S
C3043 C3046 1.499 . S
C3044 H3024 0.950 . S
C3044 C3043 1.414 . S
C3044 C3045 1.374 . S
C3045 H3025 0.950 . S
C3045 C3041 1.385 . S
C3045 C3044 1.374 . S
C3046 C3043 1.499 . S
C3046 C3047 1.373 . S
C3046 C3048 1.389 . S
C3047 H3026 0.950 . S
C3047 C3046 1.373 . S
C3047 C3063 1.377 . S
C3048 C3046 1.389 . S
C3048 C3049 1.524 . S
C3048 C3062 1.377 . S
C3049 C3048 1.524 . S
C3049 C3050 1.397 . S
C3049 C3054 1.363 . S
C3050 H3027 0.950 . S
C3050 C3049 1.397 . S
C3050 C3051 1.334 . S
C3051 H3028 0.950 . S
C3051 C3050 1.334 . S
C3051 C3052 1.287 . S
C3052 C3051 1.287 . S
C3052 C3053 1.524 . S
C3052 H3071 0.913 . S
C3053 H3029 0.950 . S
C3053 C3052 1.524 . S
C3053 C3054 1.415 . S
C3054 H3030 0.950 . S
C3054 C3049 1.363 . S
C3054 C3053 1.415 . S
C3055 H3031 0.951 . S
C3055 C3056 1.366 . S
C3055 C3057 1.388 . S
C3056 C3055 1.366 . S
C3056 C3060 1.385 . S
C3057 H3032 0.951 . S
C3057 C3055 1.388 . S
C3057 C3058 1.366 . S
C3058 C3057 1.366 . S
C3058 C3059 1.414 . S
C3058 C3061 1.499 . S
C3059 H3033 0.950 . S
C3059 C3058 1.414 . S
C3059 C3060 1.374 . S
C3060 H3034 0.950 . S
C3060 C3056 1.385 . S
C3060 C3059 1.374 . S
C3061 C3058 1.499 . S
C3061 C3062 1.373 . S
C3061 C3063 1.389 . S
C3062 H3035 0.950 . S
C3062 C3048 1.377 . S
C3062 C3061 1.373 . S
C3063 C3047 1.377 . S
C3063 C3061 1.389 . S
C3063 C3064 1.524 . S
C3064 C3063 1.524 . S
C3064 C3065 1.397 . S
C3064 C3069 1.363 . S
C3065 H3036 0.950 . S
C3065 C3064 1.397 . S
C3065 C3066 1.334 . S
C3066 H3037 0.950 . S
C3066 C3065 1.334 . S
C3066 C3067 1.287 . S
C3067 C3066 1.287 . S
C3067 C3068 1.524 . S
C3067 H3070 0.999 . S
C3068 H3038 0.950 . S
C3068 C3067 1.524 . S
C3068 C3069 1.415 . S
C3069 H3039 0.950 . S
C3069 C3064 1.363 . S
C3069 C3068 1.415 . S
H3070 C3067 0.999 . S
H3071 C3052 0.913 . S
H3072 C3090 0.951 . S
H3073 C3092 0.951 . S
H3074 C3094 0.950 . S
H3075 C3095 0.950 . S
H3076 C3097 0.950 . S
H3077 C3100 0.950 . S
H3078 C3101 0.950 . S
H3079 C3103 0.950 . S
H3080 C3104 0.950 . S
H3081 C3105 0.951 . S
H3082 C3107 0.951 . S
H3083 C3109 0.950 . S
H3084 C3110 0.950 . S
H3085 C3112 0.950 . S
H3086 C3115 0.950 . S
H3087 C3116 0.950 . S
H3088 C3118 0.950 . S
H3089 C3119 0.950 . S
C3090 H3072 0.951 . S
C3090 C3091 1.366 . S
C3090 C3092 1.388 . S
C3091 C3090 1.366 . S
C3091 C3095 1.385 . S
C3092 H3073 0.951 . S
C3092 C3090 1.388 . S
C3092 C3093 1.366 . S
C3093 C3092 1.366 . S
C3093 C3094 1.414 . S
C3093 C3096 1.499 . S
C3094 H3074 0.950 . S
C3094 C3093 1.414 . S
C3094 C3095 1.374 . S
C3095 H3075 0.950 . S
C3095 C3091 1.385 . S
C3095 C3094 1.374 . S
C3096 C3093 1.499 . S
C3096 C3097 1.373 . S
C3096 C3098 1.389 . S
C3097 H3076 0.950 . S
C3097 C3096 1.373 . S
C3097 C3113 1.377 . S
C3098 C3096 1.389 . S
C3098 C3099 1.524 . S
C3098 C3112 1.377 . S
C3099 C3098 1.524 . S
C3099 C3100 1.397 . S
C3099 C3104 1.363 . S
C3100 H3077 0.950 . S
C3100 C3099 1.397 . S
C3100 C3101 1.334 . S
C3101 H3078 0.950 . S
C3101 C3100 1.334 . S
C3101 C3102 1.287 . S
C3102 C3101 1.287 . S
C3102 C3103 1.524 . S
C3102 H3121 0.913 . S
C3103 H3079 0.950 . S
C3103 C3102 1.524 . S
C3103 C3104 1.415 . S
C3104 H3080 0.950 . S
C3104 C3099 1.363 . S
C3104 C3103 1.415 . S
C3105 H3081 0.951 . S
C3105 C3106 1.366 . S
C3105 C3107 1.388 . S
C3106 C3105 1.366 . S
C3106 C3110 1.385 . S
C3107 H3082 0.951 . S
C3107 C3105 1.388 . S
C3107 C3108 1.366 . S
C3108 C3107 1.366 . S
C3108 C3109 1.414 . S
C3108 C3111 1.499 . S
C3109 H3083 0.950 . S
C3109 C3108 1.414 . S
C3109 C3110 1.374 . S
C3110 H3084 0.950 . S
C3110 C3106 1.385 . S
C3110 C3109 1.374 . S
C3111 C3108 1.499 . S
C3111 C3112 1.373 . S
C3111 C3113 1.389 . S
C3112 H3085 0.950 . S
C3112 C3098 1.377 . S
C3112 C3111 1.373 . S
C3113 C3097 1.377 . S
C3113 C3111 1.389 . S
C3113 C3114 1.524 . S
C3114 C3113 1.524 . S
C3114 C3115 1.397 . S
C3114 C3119 1.363 . S
C3115 H3086 0.950 . S
C3115 C3114 1.397 . S
C3115 C3116 1.334 . S
C3116 H3087 0.950 . S
C3116 C3115 1.334 . S
C3116 C3117 1.287 . S
C3117 C3116 1.287 . S
C3117 C3118 1.524 . S
C3117 H3120 0.999 . S
C3118 H3088 0.950 . S
C3118 C3117 1.524 . S
C3118 C3119 1.415 . S
C3119 H3089 0.950 . S
C3119 C3114 1.363 . S
C3119 C3118 1.415 . S
H3120 C3117 0.999 . S
H3121 C3102 0.913 . S
H3122 C3140 0.951 . S
H3123 C3142 0.951 . S
H3124 C3144 0.950 . S
H3125 C3145 0.950 . S
H3126 C3147 0.950 . S
H3127 C3150 0.950 . S
H3128 C3151 0.950 . S
H3129 C3153 0.950 . S
H3130 C3154 0.950 . S
H3131 C3155 0.951 . S
H3132 C3157 0.951 . S
H3133 C3159 0.950 . S
H3134 C3160 0.950 . S
H3135 C3162 0.950 . S
H3136 C3165 0.950 . S
H3137 C3166 0.950 . S
H3138 C3168 0.950 . S
H3139 C3169 0.950 . S
C3140 H3122 0.951 . S
C3140 C3141 1.366 . S
C3140 C3142 1.388 . S
C3141 C3140 1.366 . S
C3141 C3145 1.385 . S
C3142 H3123 0.951 . S
C3142 C3140 1.388 . S
C3142 C3143 1.366 . S
C3143 C3142 1.366 . S
C3143 C3144 1.414 . S
C3143 C3146 1.499 . S
C3144 H3124 0.950 . S
C3144 C3143 1.414 . S
C3144 C3145 1.374 . S
C3145 H3125 0.950 . S
C3145 C3141 1.385 . S
C3145 C3144 1.374 . S
C3146 C3143 1.499 . S
C3146 C3147 1.373 . S
C3146 C3148 1.389 . S
C3147 H3126 0.950 . S
C3147 C3146 1.373 . S
C3147 C3163 1.377 . S
C3148 C3146 1.389 . S
C3148 C3149 1.524 . S
C3148 C3162 1.377 . S
C3149 C3148 1.524 . S
C3149 C3150 1.397 . S
C3149 C3154 1.363 . S
C3150 H3127 0.950 . S
C3150 C3149 1.397 . S
C3150 C3151 1.334 . S
C3151 H3128 0.950 . S
C3151 C3150 1.334 . S
C3151 C3152 1.287 . S
C3152 C3151 1.287 . S
C3152 C3153 1.524 . S
C3152 H3171 0.913 . S
C3153 H3129 0.950 . S
C3153 C3152 1.524 . S
C3153 C3154 1.415 . S
C3154 H3130 0.950 . S
C3154 C3149 1.363 . S
C3154 C3153 1.415 . S
C3155 H3131 0.951 . S
C3155 C3156 1.366 . S
C3155 C3157 1.388 . S
C3156 C3155 1.366 . S
C3156 C3160 1.385 . S
C3157 H3132 0.951 . S
C3157 C3155 1.388 . S
C3157 C3158 1.366 . S
C3158 C3157 1.366 . S
C3158 C3159 1.414 . S
C3158 C3161 1.499 . S
C3159 H3133 0.950 . S
C3159 C3158 1.414 . S
C3159 C3160 1.374 . S
C3160 H3134 0.950 . S
C3160 C3156 1.385 . S
C3160 C3159 1.374 . S
C3161 C3158 1.499 . S
C3161 C3162 1.373 . S
C3161 C3163 1.389 . S
C3162 H3135 0.950 . S
C3162 C3148 1.377 . S
C3162 C3161 1.373 . S
C3163 C3147 1.377 . S
C3163 C3161 1.389 . S
C3163 C3164 1.524 . S
C3164 C3163 1.524 . S
C3164 C3165 1.397 . S
C3164 C3169 1.363 . S
C3165 H3136 0.950 . S
C3165 C3164 1.397 . S
C3165 C3166 1.334 . S
C3166 H3137 0.950 . S
C3166 C3165 1.334 . S
C3166 C3167 1.287 . S
C3167 C3166 1.287 . S
C3167 C3168 1.524 . S
C3167 H3170 0.999 . S
C3168 H3138 0.950 . S
C3168 C3167 1.524 . S
C3168 C3169 1.415 . S
C3169 H3139 0.950 . S
C3169 C3164 1.363 . S
C3169 C3168 1.415 . S
H3170 C3167 0.999 . S
H3171 C3152 0.913 . S
H3172 C3190 0.951 . S
H3173 C3192 0.951 . S
H3174 C3194 0.950 . S
H3175 C3195 0.950 . S
H3176 C3197 0.950 . S
H3177 C3200 0.950 . S
H3178 C3201 0.950 . S
H3179 C3203 0.950 . S
H3180 C3204 0.950 . S
H3181 C3205 0.951 . S
H3182 C3207 0.951 . S
H3183 C3209 0.950 . S
H3184 C3210 0.950 . S
H3185 C3212 0.950 . S
H3186 C3215 0.950 . S
H3187 C3216 0.950 . S
H3188 C3218 0.950 . S
H3189 C3219 0.950 . S
C3190 H3172 0.951 . S
C3190 C3191 1.366 . S
C3190 C3192 1.388 . S
C3191 C3190 1.366 . S
C3191 C3195 1.385 . S
C3192 H3173 0.951 . S
C3192 C3190 1.388 . S
C3192 C3193 1.366 . S
C3193 C3192 1.366 . S
C3193 C3194 1.414 . S
C3193 C3196 1.499 . S
C3194 H3174 0.950 . S
C3194 C3193 1.414 . S
C3194 C3195 1.374 . S
C3195 H3175 0.950 . S
C3195 C3191 1.385 . S
C3195 C3194 1.374 . S
C3196 C3193 1.499 . S
C3196 C3197 1.373 . S
C3196 C3198 1.389 . S
C3197 H3176 0.950 . S
C3197 C3196 1.373 . S
C3197 C3213 1.377 . S
C3198 C3196 1.389 . S
C3198 C3199 1.524 . S
C3198 C3212 1.377 . S
C3199 C3198 1.524 . S
C3199 C3200 1.397 . S
C3199 C3204 1.363 . S
C3200 H3177 0.950 . S
C3200 C3199 1.397 . S
C3200 C3201 1.334 . S
C3201 H3178 0.950 . S
C3201 C3200 1.334 . S
C3201 C3202 1.287 . S
C3202 C3201 1.287 . S
C3202 C3203 1.524 . S
C3202 H3221 0.913 . S
C3203 H3179 0.950 . S
C3203 C3202 1.524 . S
C3203 C3204 1.415 . S
C3204 H3180 0.950 . S
C3204 C3199 1.363 . S
C3204 C3203 1.415 . S
C3205 H3181 0.951 . S
C3205 C3206 1.366 . S
C3205 C3207 1.388 . S
C3206 C3205 1.366 . S
C3206 C3210 1.385 . S
C3207 H3182 0.951 . S
C3207 C3205 1.388 . S
C3207 C3208 1.366 . S
C3208 C3207 1.366 . S
C3208 C3209 1.414 . S
C3208 C3211 1.499 . S
C3209 H3183 0.950 . S
C3209 C3208 1.414 . S
C3209 C3210 1.374 . S
C3210 H3184 0.950 . S
C3210 C3206 1.385 . S
C3210 C3209 1.374 . S
C3211 C3208 1.499 . S
C3211 C3212 1.373 . S
C3211 C3213 1.389 . S
C3212 H3185 0.950 . S
C3212 C3198 1.377 . S
C3212 C3211 1.373 . S
C3213 C3197 1.377 . S
C3213 C3211 1.389 . S
C3213 C3214 1.524 . S
C3214 C3213 1.524 . S
C3214 C3215 1.397 . S
C3214 C3219 1.363 . S
C3215 H3186 0.950 . S
C3215 C3214 1.397 . S
C3215 C3216 1.334 . S
C3216 H3187 0.950 . S
C3216 C3215 1.334 . S
C3216 C3217 1.287 . S
C3217 C3216 1.287 . S
C3217 C3218 1.524 . S
C3217 H3220 0.999 . S
C3218 H3188 0.950 . S
C3218 C3217 1.524 . S
C3218 C3219 1.415 . S
C3219 H3189 0.950 . S
C3219 C3214 1.363 . S
C3219 C3218 1.415 . S
H3220 C3217 0.999 . S
H3221 C3202 0.913 . S
H3222 C3240 0.951 . S
H3223 C3242 0.951 . S
H3224 C3244 0.950 . S
H3225 C3245 0.950 . S
H3226 C3247 0.950 . S
H3227 C3250 0.950 . S
H3228 C3251 0.950 . S
H3229 C3253 0.950 . S
H3230 C3254 0.950 . S
H3231 C3255 0.951 . S
H3232 C3257 0.951 . S
H3233 C3259 0.950 . S
H3234 C3260 0.950 . S
H3235 C3262 0.950 . S
H3236 C3265 0.950 . S
H3237 C3266 0.950 . S
H3238 C3268 0.950 . S
H3239 C3269 0.950 . S
C3240 H3222 0.951 . S
C3240 C3241 1.366 . S
C3240 C3242 1.388 . S
C3241 C3240 1.366 . S
C3241 C3245 1.385 . S
C3242 H3223 0.951 . S
C3242 C3240 1.388 . S
C3242 C3243 1.366 . S
C3243 C3242 1.366 . S
C3243 C3244 1.414 . S
C3243 C3246 1.499 . S
C3244 H3224 0.950 . S
C3244 C3243 1.414 . S
C3244 C3245 1.374 . S
C3245 H3225 0.950 . S
C3245 C3241 1.385 . S
C3245 C3244 1.374 . S
C3246 C3243 1.499 . S
C3246 C3247 1.373 . S
C3246 C3248 1.389 . S
C3247 H3226 0.950 . S
C3247 C3246 1.373 . S
C3247 C3263 1.377 . S
C3248 C3246 1.389 . S
C3248 C3249 1.524 . S
C3248 C3262 1.377 . S
C3249 C3248 1.524 . S
C3249 C3250 1.397 . S
C3249 C3254 1.363 . S
C3250 H3227 0.950 . S
C3250 C3249 1.397 . S
C3250 C3251 1.334 . S
C3251 H3228 0.950 . S
C3251 C3250 1.334 . S
C3251 C3252 1.287 . S
C3252 C3251 1.287 . S
C3252 C3253 1.524 . S
C3252 H3271 0.913 . S
C3253 H3229 0.950 . S
C3253 C3252 1.524 . S
C3253 C3254 1.415 . S
C3254 H3230 0.950 . S
C3254 C3249 1.363 . S
C3254 C3253 1.415 . S
C3255 H3231 0.951 . S
C3255 C3256 1.366 . S
C3255 C3257 1.388 . S
C3256 C3255 1.366 . S
C3256 C3260 1.385 . S
C3257 H3232 0.951 . S
C3257 C3255 1.388 . S
C3257 C3258 1.366 . S
C3258 C3257 1.366 . S
C3258 C3259 1.414 . S
C3258 C3261 1.499 . S
C3259 H3233 0.950 . S
C3259 C3258 1.414 . S
C3259 C3260 1.374 . S
C3260 H3234 0.950 . S
C3260 C3256 1.385 . S
C3260 C3259 1.374 . S
C3261 C3258 1.499 . S
C3261 C3262 1.373 . S
C3261 C3263 1.389 . S
C3262 H3235 0.950 . S
C3262 C3248 1.377 . S
C3262 C3261 1.373 . S
C3263 C3247 1.377 . S
C3263 C3261 1.389 . S
C3263 C3264 1.524 . S
C3264 C3263 1.524 . S
C3264 C3265 1.397 . S
C3264 C3269 1.363 . S
C3265 H3236 0.950 . S
C3265 C3264 1.397 . S
C3265 C3266 1.334 . S
C3266 H3237 0.950 . S
C3266 C3265 1.334 . S
C3266 C3267 1.287 . S
C3267 C3266 1.287 . S
C3267 C3268 1.524 . S
C3267 H3270 0.999 . S
C3268 H3238 0.950 . S
C3268 C3267 1.524 . S
C3268 C3269 1.415 . S
C3269 H3239 0.950 . S
C3269 C3264 1.363 . S
C3269 C3268 1.415 . S
H3270 C3267 0.999 . S
H3271 C3252 0.913 . S
H3272 C3290 0.951 . S
H3273 C3292 0.951 . S
H3274 C3294 0.950 . S
H3275 C3295 0.950 . S
H3276 C3297 0.950 . S
H3277 C3300 0.950 . S
H3278 C3301 0.950 . S
H3279 C3303 0.950 . S
H3280 C3304 0.950 . S
H3281 C3305 0.951 . S
H3282 C3307 0.951 . S
H3283 C3309 0.950 . S
H3284 C3310 0.950 . S
H3285 C3312 0.950 . S
H3286 C3315 0.950 . S
H3287 C3316 0.950 . S
H3288 C3318 0.950 . S
H3289 C3319 0.950 . S
C3290 H3272 0.951 . S
C3290 C3291 1.366 . S
C3290 C3292 1.388 . S
C3291 C3290 1.366 . S
C3291 C3295 1.385 . S
C3292 H3273 0.951 . S
C3292 C3290 1.388 . S
C3292 C3293 1.366 . S
C3293 C3292 1.366 . S
C3293 C3294 1.414 . S
C3293 C3296 1.499 . S
C3294 H3274 0.950 . S
C3294 C3293 1.414 . S
C3294 C3295 1.374 . S
C3295 H3275 0.950 . S
C3295 C3291 1.385 . S
C3295 C3294 1.374 . S
C3296 C3293 1.499 . S
C3296 C3297 1.373 . S
C3296 C3298 1.389 . S
C3297 H3276 0.950 . S
C3297 C3296 1.373 . S
C3297 C3313 1.377 . S
C3298 C3296 1.389 . S
C3298 C3299 1.524 . S
C3298 C3312 1.377 . S
C3299 C3298 1.524 . S
C3299 C3300 1.397 . S
C3299 C3304 1.363 . S
C3300 H3277 0.950 . S
C3300 C3299 1.397 . S
C3300 C3301 1.334 . S
C3301 H3278 0.950 . S
C3301 C3300 1.334 . S
C3301 C3302 1.287 . S
C3302 C3301 1.287 . S
C3302 C3303 1.524 . S
C3302 H3321 0.913 . S
C3303 H3279 0.950 . S
C3303 C3302 1.524 . S
C3303 C3304 1.415 . S
C3304 H3280 0.950 . S
C3304 C3299 1.363 . S
C3304 C3303 1.415 . S
C3305 H3281 0.951 . S
C3305 C3306 1.366 . S
C3305 C3307 1.388 . S
C3306 C3305 1.366 . S
C3306 C3310 1.385 . S
C3307 H3282 0.951 . S
C3307 C3305 1.388 . S
C3307 C3308 1.366 . S
C3308 C3307 1.366 . S
C3308 C3309 1.414 . S
C3308 C3311 1.499 . S
C3309 H3283 0.950 . S
C3309 C3308 1.414 . S
C3309 C3310 1.374 . S
C3310 H3284 0.950 . S
C3310 C3306 1.385 . S
C3310 C3309 1.374 . S
C3311 C3308 1.499 . S
C3311 C3312 1.373 . S
C3311 C3313 1.389 . S
C3312 H3285 0.950 . S
C3312 C3298 1.377 . S
C3312 C3311 1.373 . S
C3313 C3297 1.377 . S
C3313 C3311 1.389 . S
C3313 C3314 1.524 . S
C3314 C3313 1.524 . S
C3314 C3315 1.397 . S
C3314 C3319 1.363 . S
C3315 H3286 0.950 . S
C3315 C3314 1.397 . S
C3315 C3316 1.334 . S
C3316 H3287 0.950 . S
C3316 C3315 1.334 . S
C3316 C3317 1.287 . S
C3317 C3316 1.287 . S
C3317 C3318 1.524 . S
C3317 H3320 0.999 . S
C3318 H3288 0.950 . S
C3318 C3317 1.524 . S
C3318 C3319 1.415 . S
C3319 H3289 0.950 . S
C3319 C3314 1.363 . S
C3319 C3318 1.415 . S
H3320 C3317 0.999 . S
H3321 C3302 0.913 . S
H3322 C3340 0.951 . S
H3323 C3342 0.951 . S
H3324 C3344 0.950 . S
H3325 C3345 0.950 . S
H3326 C3347 0.950 . S
H3327 C3350 0.950 . S
H3328 C3351 0.950 . S
H3329 C3353 0.950 . S
H3330 C3354 0.950 . S
H3331 C3355 0.951 . S
H3332 C3357 0.951 . S
H3333 C3359 0.950 . S
H3334 C3360 0.950 . S
H3335 C3362 0.950 . S
H3336 C3365 0.950 . S
H3337 C3366 0.950 . S
H3338 C3368 0.950 . S
H3339 C3369 0.950 . S
C3340 H3322 0.951 . S
C3340 C3341 1.366 . S
C3340 C3342 1.388 . S
C3341 C3340 1.366 . S
C3341 C3345 1.385 . S
C3342 H3323 0.951 . S
C3342 C3340 1.388 . S
C3342 C3343 1.366 . S
C3343 C3342 1.366 . S
C3343 C3344 1.414 . S
C3343 C3346 1.499 . S
C3344 H3324 0.950 . S
C3344 C3343 1.414 . S
C3344 C3345 1.374 . S
C3345 H3325 0.950 . S
C3345 C3341 1.385 . S
C3345 C3344 1.374 . S
C3346 C3343 1.499 . S
C3346 C3347 1.373 . S
C3346 C3348 1.389 . S
C3347 H3326 0.950 . S
C3347 C3346 1.373 . S
C3347 C3363 1.377 . S
C3348 C3346 1.389 . S
C3348 C3349 1.524 . S
C3348 C3362 1.377 . S
C3349 C3348 1.524 . S
C3349 C3350 1.397 . S
C3349 C3354 1.363 . S
C3350 H3327 0.950 . S
C3350 C3349 1.397 . S
C3350 C3351 1.334 . S
C3351 H3328 0.950 . S
C3351 C3350 1.334 . S
C3351 C3352 1.287 . S
C3352 C3351 1.287 . S
C3352 C3353 1.524 . S
C3352 H3371 0.913 . S
C3353 H3329 0.950 . S
C3353 C3352 1.524 . S
C3353 C3354 1.415 . S
C3354 H3330 0.950 . S
C3354 C3349 1.363 . S
C3354 C3353 1.415 . S
C3355 H3331 0.951 . S
C3355 C3356 1.366 . S
C3355 C3357 1.388 . S
C3356 C3355 1.366 . S
C3356 C3360 1.385 . S
C3357 H3332 0.951 . S
C3357 C3355 1.388 . S
C3357 C3358 1.366 . S
C3358 C3357 1.366 . S
C3358 C3359 1.414 . S
C3358 C3361 1.499 . S
C3359 H3333 0.950 . S
C3359 C3358 1.414 . S
C3359 C3360 1.374 . S
C3360 H3334 0.950 . S
C3360 C3356 1.385 . S
C3360 C3359 1.374 . S
C3361 C3358 1.499 . S
C3361 C3362 1.373 . S
C3361 C3363 1.389 . S
C3362 H3335 0.950 . S
C3362 C3348 1.377 . S
C3362 C3361 1.373 . S
C3363 C3347 1.377 . S
C3363 C3361 1.389 . S
C3363 C3364 1.524 . S
C3364 C3363 1.524 . S
C3364 C3365 1.397 . S
C3364 C3369 1.363 . S
C3365 H3336 0.950 . S
C3365 C3364 1.397 . S
C3365 C3366 1.334 . S
C3366 H3337 0.950 . S
C3366 C3365 1.334 . S
C3366 C3367 1.287 . S
C3367 C3366 1.287 . S
C3367 C3368 1.524 . S
C3367 H3370 0.999 . S
C3368 H3338 0.950 . S
C3368 C3367 1.524 . S
C3368 C3369 1.415 . S
C3369 H3339 0.950 . S
C3369 C3364 1.363 . S
C3369 C3368 1.415 . S
H3370 C3367 0.999 . S
H3371 C3352 0.913 . S
H3372 C3390 0.951 . S
H3373 C3392 0.951 . S
H3374 C3394 0.950 . S
H3375 C3395 0.950 . S
H3376 C3397 0.950 . S
H3377 C3400 0.950 . S
H3378 C3401 0.950 . S
H3379 C3403 0.950 . S
H3380 C3404 0.950 . S
H3381 C3405 0.951 . S
H3382 C3407 0.951 . S
H3383 C3409 0.950 . S
H3384 C3410 0.950 . S
H3385 C3412 0.950 . S
H3386 C3415 0.950 . S
H3387 C3416 0.950 . S
H3388 C3418 0.950 . S
H3389 C3419 0.950 . S
C3390 H3372 0.951 . S
C3390 C3391 1.366 . S
C3390 C3392 1.388 . S
C3391 C3390 1.366 . S
C3391 C3395 1.385 . S
C3392 H3373 0.951 . S
C3392 C3390 1.388 . S
C3392 C3393 1.366 . S
C3393 C3392 1.366 . S
C3393 C3394 1.414 . S
C3393 C3396 1.499 . S
C3394 H3374 0.950 . S
C3394 C3393 1.414 . S
C3394 C3395 1.374 . S
C3395 H3375 0.950 . S
C3395 C3391 1.385 . S
C3395 C3394 1.374 . S
C3396 C3393 1.499 . S
C3396 C3397 1.373 . S
C3396 C3398 1.389 . S
C3397 H3376 0.950 . S
C3397 C3396 1.373 . S
C3397 C3413 1.377 . S
C3398 C3396 1.389 . S
C3398 C3399 1.524 . S
C3398 C3412 1.377 . S
C3399 C3398 1.524 . S
C3399 C3400 1.397 . S
C3399 C3404 1.363 . S
C3400 H3377 0.950 . S
C3400 C3399 1.397 . S
C3400 C3401 1.334 . S
C3401 H3378 0.950 . S
C3401 C3400 1.334 . S
C3401 C3402 1.287 . S
C3402 C3401 1.287 . S
C3402 C3403 1.524 . S
C3402 H3421 0.913 . S
C3403 H3379 0.950 . S
C3403 C3402 1.524 . S
C3403 C3404 1.415 . S
C3404 H3380 0.950 . S
C3404 C3399 1.363 . S
C3404 C3403 1.415 . S
C3405 H3381 0.951 . S
C3405 C3406 1.366 . S
C3405 C3407 1.388 . S
C3406 C3405 1.366 . S
C3406 C3410 1.385 . S
C3407 H3382 0.951 . S
C3407 C3405 1.388 . S
C3407 C3408 1.366 . S
C3408 C3407 1.366 . S
C3408 C3409 1.414 . S
C3408 C3411 1.499 . S
C3409 H3383 0.950 . S
C3409 C3408 1.414 . S
C3409 C3410 1.374 . S
C3410 H3384 0.950 . S
C3410 C3406 1.385 . S
C3410 C3409 1.374 . S
C3411 C3408 1.499 . S
C3411 C3412 1.373 . S
C3411 C3413 1.389 . S
C3412 H3385 0.950 . S
C3412 C3398 1.377 . S
C3412 C3411 1.373 . S
C3413 C3397 1.377 . S
C3413 C3411 1.389 . S
C3413 C3414 1.524 . S
C3414 C3413 1.524 . S
C3414 C3415 1.397 . S
C3414 C3419 1.363 . S
C3415 H3386 0.950 . S
C3415 C3414 1.397 . S
C3415 C3416 1.334 . S
C3416 H3387 0.950 . S
C3416 C3415 1.334 . S
C3416 C3417 1.287 . S
C3417 C3416 1.287 . S
C3417 C3418 1.524 . S
C3417 H3420 0.999 . S
C3418 H3388 0.950 . S
C3418 C3417 1.524 . S
C3418 C3419 1.415 . S
C3419 H3389 0.950 . S
C3419 C3414 1.363 . S
C3419 C3418 1.415 . S
H3420 C3417 0.999 . S
H3421 C3402 0.913 . S
H3422 C3440 0.951 . S
H3423 C3442 0.951 . S
H3424 C3444 0.950 . S
H3425 C3445 0.950 . S
H3426 C3447 0.950 . S
H3427 C3450 0.950 . S
H3428 C3451 0.950 . S
H3429 C3453 0.950 . S
H3430 C3454 0.950 . S
H3431 C3455 0.951 . S
H3432 C3457 0.951 . S
H3433 C3459 0.950 . S
H3434 C3460 0.950 . S
H3435 C3462 0.950 . S
H3436 C3465 0.950 . S
H3437 C3466 0.950 . S
H3438 C3468 0.950 . S
H3439 C3469 0.950 . S
C3440 H3422 0.951 . S
C3440 C3441 1.366 . S
C3440 C3442 1.388 . S
C3441 C3440 1.366 . S
C3441 C3445 1.385 . S
C3442 H3423 0.951 . S
C3442 C3440 1.388 . S
C3442 C3443 1.366 . S
C3443 C3442 1.366 . S
C3443 C3444 1.414 . S
C3443 C3446 1.499 . S
C3444 H3424 0.950 . S
C3444 C3443 1.414 . S
C3444 C3445 1.374 . S
C3445 H3425 0.950 . S
C3445 C3441 1.385 . S
C3445 C3444 1.374 . S
C3446 C3443 1.499 . S
C3446 C3447 1.373 . S
C3446 C3448 1.389 . S
C3447 H3426 0.950 . S
C3447 C3446 1.373 . S
C3447 C3463 1.377 . S
C3448 C3446 1.389 . S
C3448 C3449 1.524 . S
C3448 C3462 1.377 . S
C3449 C3448 1.524 . S
C3449 C3450 1.397 . S
C3449 C3454 1.363 . S
C3450 H3427 0.950 . S
C3450 C3449 1.397 . S
C3450 C3451 1.334 . S
C3451 H3428 0.950 . S
C3451 C3450 1.334 . S
C3451 C3452 1.287 . S
C3452 C3451 1.287 . S
C3452 C3453 1.524 . S
C3452 H3471 0.913 . S
C3453 H3429 0.950 . S
C3453 C3452 1.524 . S
C3453 C3454 1.415 . S
C3454 H3430 0.950 . S
C3454 C3449 1.363 . S
C3454 C3453 1.415 . S
C3455 H3431 0.951 . S
C3455 C3456 1.366 . S
C3455 C3457 1.388 . S
C3456 C3455 1.366 . S
C3456 C3460 1.385 . S
C3457 H3432 0.951 . S
C3457 C3455 1.388 . S
C3457 C3458 1.366 . S
C3458 C3457 1.366 . S
C3458 C3459 1.414 . S
C3458 C3461 1.499 . S
C3459 H3433 0.950 . S
C3459 C3458 1.414 . S
C3459 C3460 1.374 . S
C3460 H3434 0.950 . S
C3460 C3456 1.385 . S
C3460 C3459 1.374 . S
C3461 C3458 1.499 . S
C3461 C3462 1.373 . S
C3461 C3463 1.389 . S
C3462 H3435 0.950 . S
C3462 C3448 1.377 . S
C3462 C3461 1.373 . S
C3463 C3447 1.377 . S
C3463 C3461 1.389 . S
C3463 C3464 1.524 . S
C3464 C3463 1.524 . S
C3464 C3465 1.397 . S
C3464 C3469 1.363 . S
C3465 H3436 0.950 . S
C3465 C3464 1.397 . S
C3465 C3466 1.334 . S
C3466 H3437 0.950 . S
C3466 C3465 1.334 . S
C3466 C3467 1.287 . S
C3467 C3466 1.287 . S
C3467 C3468 1.524 . S
C3467 H3470 0.999 . S
C3468 H3438 0.950 . S
C3468 C3467 1.524 . S
C3468 C3469 1.415 . S
C3469 H3439 0.950 . S
C3469 C3464 1.363 . S
C3469 C3468 1.415 . S
H3470 C3467 0.999 . S
H3471 C3452 0.913 . S
H3472 C3490 0.951 . S
H3473 C3492 0.951 . S
H3474 C3494 0.950 . S
H3475 C3495 0.950 . S
H3476 C3497 0.950 . S
H3477 C3500 0.950 . S
H3478 C3501 0.950 . S
H3479 C3503 0.950 . S
H3480 C3504 0.950 . S
H3481 C3505 0.951 . S
H3482 C3507 0.951 . S
H3483 C3509 0.950 . S
H3484 C3510 0.950 . S
H3485 C3512 0.950 . S
H3486 C3515 0.950 . S
H3487 C3516 0.950 . S
H3488 C3518 0.950 . S
H3489 C3519 0.950 . S
C3490 H3472 0.951 . S
C3490 C3491 1.366 . S
C3490 C3492 1.388 . S
C3491 C3490 1.366 . S
C3491 C3495 1.385 . S
C3492 H3473 0.951 . S
C3492 C3490 1.388 . S
C3492 C3493 1.366 . S
C3493 C3492 1.366 . S
C3493 C3494 1.414 . S
C3493 C3496 1.499 . S
C3494 H3474 0.950 . S
C3494 C3493 1.414 . S
C3494 C3495 1.374 . S
C3495 H3475 0.950 . S
C3495 C3491 1.385 . S
C3495 C3494 1.374 . S
C3496 C3493 1.499 . S
C3496 C3497 1.373 . S
C3496 C3498 1.389 . S
C3497 H3476 0.950 . S
C3497 C3496 1.373 . S
C3497 C3513 1.377 . S
C3498 C3496 1.389 . S
C3498 C3499 1.524 . S
C3498 C3512 1.377 . S
C3499 C3498 1.524 . S
C3499 C3500 1.397 . S
C3499 C3504 1.363 . S
C3500 H3477 0.950 . S
C3500 C3499 1.397 . S
C3500 C3501 1.334 . S
C3501 H3478 0.950 . S
C3501 C3500 1.334 . S
C3501 C3502 1.287 . S
C3502 C3501 1.287 . S
C3502 C3503 1.524 . S
C3502 H3521 0.913 . S
C3503 H3479 0.950 . S
C3503 C3502 1.524 . S
C3503 C3504 1.415 . S
C3504 H3480 0.950 . S
C3504 C3499 1.363 . S
C3504 C3503 1.415 . S
C3505 H3481 0.951 . S
C3505 C3506 1.366 . S
C3505 C3507 1.388 . S
C3506 C3505 1.366 . S
C3506 C3510 1.385 . S
C3507 H3482 0.951 . S
C3507 C3505 1.388 . S
C3507 C3508 1.366 . S
C3508 C3507 1.366 . S
C3508 C3509 1.414 . S
C3508 C3511 1.499 . S
C3509 H3483 0.950 . S
C3509 C3508 1.414 . S
C3509 C3510 1.374 . S
C3510 H3484 0.950 . S
C3510 C3506 1.385 . S
C3510 C3509 1.374 . S
C3511 C3508 1.499 . S
C3511 C3512 1.373 . S
C3511 C3513 1.389 . S
C3512 H3485 0.950 . S
C3512 C3498 1.377 . S
C3512 C3511 1.373 . S
C3513 C3497 1.377 . S
C3513 C3511 1.389 . S
C3513 C3514 1.524 . S
C3514 C3513 1.524 . S
C3514 C3515 1.397 . S
C3514 C3519 1.363 . S
C3515 H3486 0.950 . S
C3515 C3514 1.397 . S
C3515 C3516 1.334 . S
C3516 H3487 0.950 . S
C3516 C3515 1.334 . S
C3516 C3517 1.287 . S
C3517 C3516 1.287 . S
C3517 C3518 1.524 . S
C3517 H3520 0.999 . S
C3518 H3488 0.950 . S
C3518 C3517 1.524 . S
C3518 C3519 1.415 . S
C3519 H3489 0.950 . S
C3519 C3514 1.363 . S
C3519 C3518 1.415 . S
H3520 C3517 0.999 . S
H3521 C3502 0.913 . S
H3522 C3540 0.951 . S
H3523 C3542 0.951 . S
H3524 C3544 0.950 . S
H3525 C3545 0.950 . S
H3526 C3547 0.950 . S
H3527 C3550 0.950 . S
H3528 C3551 0.950 . S
H3529 C3553 0.950 . S
H3530 C3554 0.950 . S
H3531 C3555 0.951 . S
H3532 C3557 0.951 . S
H3533 C3559 0.950 . S
H3534 C3560 0.950 . S
H3535 C3562 0.950 . S
H3536 C3565 0.950 . S
H3537 C3566 0.950 . S
H3538 C3568 0.950 . S
H3539 C3569 0.950 . S
C3540 H3522 0.951 . S
C3540 C3541 1.366 . S
C3540 C3542 1.388 . S
C3541 C3540 1.366 . S
C3541 C3545 1.385 . S
C3542 H3523 0.951 . S
C3542 C3540 1.388 . S
C3542 C3543 1.366 . S
C3543 C3542 1.366 . S
C3543 C3544 1.414 . S
C3543 C3546 1.499 . S
C3544 H3524 0.950 . S
C3544 C3543 1.414 . S
C3544 C3545 1.374 . S
C3545 H3525 0.950 . S
C3545 C3541 1.385 . S
C3545 C3544 1.374 . S
C3546 C3543 1.499 . S
C3546 C3547 1.373 . S
C3546 C3548 1.389 . S
C3547 H3526 0.950 . S
C3547 C3546 1.373 . S
C3547 C3563 1.377 . S
C3548 C3546 1.389 . S
C3548 C3549 1.524 . S
C3548 C3562 1.377 . S
C3549 C3548 1.524 . S
C3549 C3550 1.397 . S
C3549 C3554 1.363 . S
C3550 H3527 0.950 . S
C3550 C3549 1.397 . S
C3550 C3551 1.334 . S
C3551 H3528 0.950 . S
C3551 C3550 1.334 . S
C3551 C3552 1.287 . S
C3552 C3551 1.287 . S
C3552 C3553 1.524 . S
C3552 H3571 0.913 . S
C3553 H3529 0.950 . S
C3553 C3552 1.524 . S
C3553 C3554 1.415 . S
C3554 H3530 0.950 . S
C3554 C3549 1.363 . S
C3554 C3553 1.415 . S
C3555 H3531 0.951 . S
C3555 C3556 1.366 . S
C3555 C3557 1.388 . S
C3556 C3555 1.366 . S
C3556 C3560 1.385 . S
C3557 H3532 0.951 . S
C3557 C3555 1.388 . S
C3557 C3558 1.366 . S
C3558 C3557 1.366 . S
C3558 C3559 1.414 . S
C3558 C3561 1.499 . S
C3559 H3533 0.950 . S
C3559 C3558 1.414 . S
C3559 C3560 1.374 . S
C3560 H3534 0.950 . S
C3560 C3556 1.385 . S
C3560 C3559 1.374 . S
C3561 C3558 1.499 . S
C3561 C3562 1.373 . S
C3561 C3563 1.389 . S
C3562 H3535 0.950 . S
C3562 C3548 1.377 . S
C3562 C3561 1.373 . S
C3563 C3547 1.377 . S
C3563 C3561 1.389 . S
C3563 C3564 1.524 . S
C3564 C3563 1.524 . S
C3564 C3565 1.397 . S
C3564 C3569 1.363 . S
C3565 H3536 0.950 . S
C3565 C3564 1.397 . S
C3565 C3566 1.334 . S
C3566 H3537 0.950 . S
C3566 C3565 1.334 . S
C3566 C3567 1.287 . S
C3567 C3566 1.287 . S
C3567 C3568 1.524 . S
C3567 H3570 0.999 . S
C3568 H3538 0.950 . S
C3568 C3567 1.524 . S
C3568 C3569 1.415 . S
C3569 H3539 0.950 . S
C3569 C3564 1.363 . S
C3569 C3568 1.415 . S
H3570 C3567 0.999 . S
H3571 C3552 0.913 . S
H3572 C3590 0.951 . S
H3573 C3592 0.951 . S
H3574 C3594 0.950 . S
H3575 C3595 0.950 . S
H3576 C3597 0.950 . S
H3577 C3600 0.950 . S
H3578 C3601 0.950 . S
H3579 C3603 0.950 . S
H3580 C3604 0.950 . S
H3581 C3605 0.951 . S
H3582 C3607 0.951 . S
H3583 C3609 0.950 . S
H3584 C3610 0.950 . S
H3585 C3612 0.950 . S
H3586 C3615 0.950 . S
H3587 C3616 0.950 . S
H3588 C3618 0.950 . S
H3589 C3619 0.950 . S
C3590 H3572 0.951 . S
C3590 C3591 1.366 . S
C3590 C3592 1.388 . S
C3591 C3590 1.366 . S
C3591 C3595 1.385 . S
C3592 H3573 0.951 . S
C3592 C3590 1.388 . S
C3592 C3593 1.366 . S
C3593 C3592 1.366 . S
C3593 C3594 1.414 . S
C3593 C3596 1.499 . S
C3594 H3574 0.950 . S
C3594 C3593 1.414 . S
C3594 C3595 1.374 . S
C3595 H3575 0.950 . S
C3595 C3591 1.385 . S
C3595 C3594 1.374 . S
C3596 C3593 1.499 . S
C3596 C3597 1.373 . S
C3596 C3598 1.389 . S
C3597 H3576 0.950 . S
C3597 C3596 1.373 . S
C3597 C3613 1.377 . S
C3598 C3596 1.389 . S
C3598 C3599 1.524 . S
C3598 C3612 1.377 . S
C3599 C3598 1.524 . S
C3599 C3600 1.397 . S
C3599 C3604 1.363 . S
C3600 H3577 0.950 . S
C3600 C3599 1.397 . S
C3600 C3601 1.334 . S
C3601 H3578 0.950 . S
C3601 C3600 1.334 . S
C3601 C3602 1.287 . S
C3602 C3601 1.287 . S
C3602 C3603 1.524 . S
C3602 H3621 0.913 . S
C3603 H3579 0.950 . S
C3603 C3602 1.524 . S
C3603 C3604 1.415 . S
C3604 H3580 0.950 . S
C3604 C3599 1.363 . S
C3604 C3603 1.415 . S
C3605 H3581 0.951 . S
C3605 C3606 1.366 . S
C3605 C3607 1.388 . S
C3606 C3605 1.366 . S
C3606 C3610 1.385 . S
C3607 H3582 0.951 . S
C3607 C3605 1.388 . S
C3607 C3608 1.366 . S
C3608 C3607 1.366 . S
C3608 C3609 1.414 . S
C3608 C3611 1.499 . S
C3609 H3583 0.950 . S
C3609 C3608 1.414 . S
C3609 C3610 1.374 . S
C3610 H3584 0.950 . S
C3610 C3606 1.385 . S
C3610 C3609 1.374 . S
C3611 C3608 1.499 . S
C3611 C3612 1.373 . S
C3611 C3613 1.389 . S
C3612 H3585 0.950 . S
C3612 C3598 1.377 . S
C3612 C3611 1.373 . S
C3613 C3597 1.377 . S
C3613 C3611 1.389 . S
C3613 C3614 1.524 . S
C3614 C3613 1.524 . S
C3614 C3615 1.397 . S
C3614 C3619 1.363 . S
C3615 H3586 0.950 . S
C3615 C3614 1.397 . S
C3615 C3616 1.334 . S
C3616 H3587 0.950 . S
C3616 C3615 1.334 . S
C3616 C3617 1.287 . S
C3617 C3616 1.287 . S
C3617 C3618 1.524 . S
C3617 H3620 0.999 . S
C3618 H3588 0.950 . S
C3618 C3617 1.524 . S
C3618 C3619 1.415 . S
C3619 H3589 0.950 . S
C3619 C3614 1.363 . S
C3619 C3618 1.415 . S
H3620 C3617 0.999 . S
H3621 C3602 0.913 . S
H3622 C3640 0.951 . S
H3623 C3642 0.951 . S
H3624 C3644 0.950 . S
H3625 C3645 0.950 . S
H3626 C3647 0.950 . S
H3627 C3650 0.950 . S
H3628 C3651 0.950 . S
H3629 C3653 0.950 . S
H3630 C3654 0.950 . S
H3631 C3655 0.951 . S
H3632 C3657 0.951 . S
H3633 C3659 0.950 . S
H3634 C3660 0.950 . S
H3635 C3662 0.950 . S
H3636 C3665 0.950 . S
H3637 C3666 0.950 . S
H3638 C3668 0.950 . S
H3639 C3669 0.950 . S
C3640 H3622 0.951 . S
C3640 C3641 1.366 . S
C3640 C3642 1.388 . S
C3641 C3640 1.366 . S
C3641 C3645 1.385 . S
C3642 H3623 0.951 . S
C3642 C3640 1.388 . S
C3642 C3643 1.366 . S
C3643 C3642 1.366 . S
C3643 C3644 1.414 . S
C3643 C3646 1.499 . S
C3644 H3624 0.950 . S
C3644 C3643 1.414 . S
C3644 C3645 1.374 . S
C3645 H3625 0.950 . S
C3645 C3641 1.385 . S
C3645 C3644 1.374 . S
C3646 C3643 1.499 . S
C3646 C3647 1.373 . S
C3646 C3648 1.389 . S
C3647 H3626 0.950 . S
C3647 C3646 1.373 . S
C3647 C3663 1.377 . S
C3648 C3646 1.389 . S
C3648 C3649 1.524 . S
C3648 C3662 1.377 . S
C3649 C3648 1.524 . S
C3649 C3650 1.397 . S
C3649 C3654 1.363 . S
C3650 H3627 0.950 . S
C3650 C3649 1.397 . S
C3650 C3651 1.334 . S
C3651 H3628 0.950 . S
C3651 C3650 1.334 . S
C3651 C3652 1.287 . S
C3652 C3651 1.287 . S
C3652 C3653 1.524 . S
C3652 H3671 0.913 . S
C3653 H3629 0.950 . S
C3653 C3652 1.524 . S
C3653 C3654 1.415 . S
C3654 H3630 0.950 . S
C3654 C3649 1.363 . S
C3654 C3653 1.415 . S
C3655 H3631 0.951 . S
C3655 C3656 1.366 . S
C3655 C3657 1.388 . S
C3656 C3655 1.366 . S
C3656 C3660 1.385 . S
C3657 H3632 0.951 . S
C3657 C3655 1.388 . S
C3657 C3658 1.366 . S
C3658 C3657 1.366 . S
C3658 C3659 1.414 . S
C3658 C3661 1.499 . S
C3659 H3633 0.950 . S
C3659 C3658 1.414 . S
C3659 C3660 1.374 . S
C3660 H3634 0.950 . S
C3660 C3656 1.385 . S
C3660 C3659 1.374 . S
C3661 C3658 1.499 . S
C3661 C3662 1.373 . S
C3661 C3663 1.389 . S
C3662 H3635 0.950 . S
C3662 C3648 1.377 . S
C3662 C3661 1.373 . S
C3663 C3647 1.377 . S
C3663 C3661 1.389 . S
C3663 C3664 1.524 . S
C3664 C3663 1.524 . S
C3664 C3665 1.397 . S
C3664 C3669 1.363 . S
C3665 H3636 0.950 . S
C3665 C3664 1.397 . S
C3665 C3666 1.334 . S
C3666 H3637 0.950 . S
C3666 C3665 1.334 . S
C3666 C3667 1.287 . S
C3667 C3666 1.287 . S
C3667 C3668 1.524 . S
C3667 H3670 0.999 . S
C3668 H3638 0.950 . S
C3668 C3667 1.524 . S
C3668 C3669 1.415 . S
C3669 H3639 0.950 . S
C3669 C3664 1.363 . S
C3669 C3668 1.415 . S
H3670 C3667 0.999 . S
H3671 C3652 0.913 . S
H3672 C3690 0.951 . S
H3673 C3692 0.951 . S
H3674 C3694 0.950 . S
H3675 C3695 0.950 . S
H3676 C3697 0.950 . S
H3677 C3700 0.950 . S
H3678 C3701 0.950 . S
H3679 C3703 0.950 . S
H3680 C3704 0.950 . S
H3681 C3705 0.951 . S
H3682 C3707 0.951 . S
H3683 C3709 0.950 . S
H3684 C3710 0.950 . S
H3685 C3712 0.950 . S
H3686 C3715 0.950 . S
H3687 C3716 0.950 . S
H3688 C3718 0.950 . S
H3689 C3719 0.950 . S
C3690 H3672 0.951 . S
C3690 C3691 1.366 . S
C3690 C3692 1.388 . S
C3691 C3690 1.366 . S
C3691 C3695 1.385 . S
C3692 H3673 0.951 . S
C3692 C3690 1.388 . S
C3692 C3693 1.366 . S
C3693 C3692 1.366 . S
C3693 C3694 1.414 . S
C3693 C3696 1.499 . S
C3694 H3674 0.950 . S
C3694 C3693 1.414 . S
C3694 C3695 1.374 . S
C3695 H3675 0.950 . S
C3695 C3691 1.385 . S
C3695 C3694 1.374 . S
C3696 C3693 1.499 . S
C3696 C3697 1.373 . S
C3696 C3698 1.389 . S
C3697 H3676 0.950 . S
C3697 C3696 1.373 . S
C3697 C3713 1.377 . S
C3698 C3696 1.389 . S
C3698 C3699 1.524 . S
C3698 C3712 1.377 . S
C3699 C3698 1.524 . S
C3699 C3700 1.397 . S
C3699 C3704 1.363 . S
C3700 H3677 0.950 . S
C3700 C3699 1.397 . S
C3700 C3701 1.334 . S
C3701 H3678 0.950 . S
C3701 C3700 1.334 . S
C3701 C3702 1.287 . S
C3702 C3701 1.287 . S
C3702 C3703 1.524 . S
C3702 H3721 0.913 . S
C3703 H3679 0.950 . S
C3703 C3702 1.524 . S
C3703 C3704 1.415 . S
C3704 H3680 0.950 . S
C3704 C3699 1.363 . S
C3704 C3703 1.415 . S
C3705 H3681 0.951 . S
C3705 C3706 1.366 . S
C3705 C3707 1.388 . S
C3706 C3705 1.366 . S
C3706 C3710 1.385 . S
C3707 H3682 0.951 . S
C3707 C3705 1.388 . S
C3707 C3708 1.366 . S
C3708 C3707 1.366 . S
C3708 C3709 1.414 . S
C3708 C3711 1.499 . S
C3709 H3683 0.950 . S
C3709 C3708 1.414 . S
C3709 C3710 1.374 . S
C3710 H3684 0.950 . S
C3710 C3706 1.385 . S
C3710 C3709 1.374 . S
C3711 C3708 1.499 . S
C3711 C3712 1.373 . S
C3711 C3713 1.389 . S
C3712 H3685 0.950 . S
C3712 C3698 1.377 . S
C3712 C3711 1.373 . S
C3713 C3697 1.377 . S
C3713 C3711 1.389 . S
C3713 C3714 1.524 . S
C3714 C3713 1.524 . S
C3714 C3715 1.397 . S
C3714 C3719 1.363 . S
C3715 H3686 0.950 . S
C3715 C3714 1.397 . S
C3715 C3716 1.334 . S
C3716 H3687 0.950 . S
C3716 C3715 1.334 . S
C3716 C3717 1.287 . S
C3717 C3716 1.287 . S
C3717 C3718 1.524 . S
C3717 H3720 0.999 . S
C3718 H3688 0.950 . S
C3718 C3717 1.524 . S
C3718 C3719 1.415 . S
C3719 H3689 0.950 . S
C3719 C3714 1.363 . S
C3719 C3718 1.415 . S
H3720 C3717 0.999 . S
H3721 C3702 0.913 . S
H3722 C3740 0.951 . S
H3723 C3742 0.951 . S
H3724 C3744 0.950 . S
H3725 C3745 0.950 . S
H3726 C3747 0.950 . S
H3727 C3750 0.950 . S
H3728 C3751 0.950 . S
H3729 C3753 0.950 . S
H3730 C3754 0.950 . S
H3731 C3755 0.951 . S
H3732 C3757 0.951 . S
H3733 C3759 0.950 . S
H3734 C3760 0.950 . S
H3735 C3762 0.950 . S
H3736 C3765 0.950 . S
H3737 C3766 0.950 . S
H3738 C3768 0.950 . S
H3739 C3769 0.950 . S
C3740 H3722 0.951 . S
C3740 C3741 1.366 . S
C3740 C3742 1.388 . S
C3741 C3740 1.366 . S
C3741 C3745 1.385 . S
C3742 H3723 0.951 . S
C3742 C3740 1.388 . S
C3742 C3743 1.366 . S
C3743 C3742 1.366 . S
C3743 C3744 1.414 . S
C3743 C3746 1.499 . S
C3744 H3724 0.950 . S
C3744 C3743 1.414 . S
C3744 C3745 1.374 . S
C3745 H3725 0.950 . S
C3745 C3741 1.385 . S
C3745 C3744 1.374 . S
C3746 C3743 1.499 . S
C3746 C3747 1.373 . S
C3746 C3748 1.389 . S
C3747 H3726 0.950 . S
C3747 C3746 1.373 . S
C3747 C3763 1.377 . S
C3748 C3746 1.389 . S
C3748 C3749 1.524 . S
C3748 C3762 1.377 . S
C3749 C3748 1.524 . S
C3749 C3750 1.397 . S
C3749 C3754 1.363 . S
C3750 H3727 0.950 . S
C3750 C3749 1.397 . S
C3750 C3751 1.334 . S
C3751 H3728 0.950 . S
C3751 C3750 1.334 . S
C3751 C3752 1.287 . S
C3752 C3751 1.287 . S
C3752 C3753 1.524 . S
C3752 H3771 0.913 . S
C3753 H3729 0.950 . S
C3753 C3752 1.524 . S
C3753 C3754 1.415 . S
C3754 H3730 0.950 . S
C3754 C3749 1.363 . S
C3754 C3753 1.415 . S
C3755 H3731 0.951 . S
C3755 C3756 1.366 . S
C3755 C3757 1.388 . S
C3756 C3755 1.366 . S
C3756 C3760 1.385 . S
C3757 H3732 0.951 . S
C3757 C3755 1.388 . S
C3757 C3758 1.366 . S
C3758 C3757 1.366 . S
C3758 C3759 1.414 . S
C3758 C3761 1.499 . S
C3759 H3733 0.950 . S
C3759 C3758 1.414 . S
C3759 C3760 1.374 . S
C3760 H3734 0.950 . S
C3760 C3756 1.385 . S
C3760 C3759 1.374 . S
C3761 C3758 1.499 . S
C3761 C3762 1.373 . S
C3761 C3763 1.389 . S
C3762 H3735 0.950 . S
C3762 C3748 1.377 . S
C3762 C3761 1.373 . S
C3763 C3747 1.377 . S
C3763 C3761 1.389 . S
C3763 C3764 1.524 . S
C3764 C3763 1.524 . S
C3764 C3765 1.397 . S
C3764 C3769 1.363 . S
C3765 H3736 0.950 . S
C3765 C3764 1.397 . S
C3765 C3766 1.334 . S
C3766 H3737 0.950 . S
C3766 C3765 1.334 . S
C3766 C3767 1.287 . S
C3767 C3766 1.287 . S
C3767 C3768 1.524 . S
C3767 H3770 0.999 . S
C3768 H3738 0.950 . S
C3768 C3767 1.524 . S
C3768 C3769 1.415 . S
C3769 H3739 0.950 . S
C3769 C3764 1.363 . S
C3769 C3768 1.415 . S
H3770 C3767 0.999 . S
H3771 C3752 0.913 . S
H3772 C3790 0.951 . S
H3773 C3792 0.951 . S
H3774 C3794 0.950 . S
H3775 C3795 0.950 . S
H3776 C3797 0.950 . S
H3777 C3800 0.950 . S
H3778 C3801 0.950 . S
H3779 C3803 0.950 . S
H3780 C3804 0.950 . S
H3781 C3805 0.951 . S
H3782 C3807 0.951 . S
H3783 C3809 0.950 . S
H3784 C3810 0.950 . S
H3785 C3812 0.950 . S
H3786 C3815 0.950 . S
H3787 C3816 0.950 . S
H3788 C3818 0.950 . S
H3789 C3819 0.950 . S
C3790 H3772 0.951 . S
C3790 C3791 1.366 . S
C3790 C3792 1.388 . S
C3791 C3790 1.366 . S
C3791 C3795 1.385 . S
C3792 H3773 0.951 . S
C3792 C3790 1.388 . S
C3792 C3793 1.366 . S
C3793 C3792 1.366 . S
C3793 C3794 1.414 . S
C3793 C3796 1.499 . S
C3794 H3774 0.950 . S
C3794 C3793 1.414 . S
C3794 C3795 1.374 . S
C3795 H3775 0.950 . S
C3795 C3791 1.385 . S
C3795 C3794 1.374 . S
C3796 C3793 1.499 . S
C3796 C3797 1.373 . S
C3796 C3798 1.389 . S
C3797 H3776 0.950 . S
C3797 C3796 1.373 . S
C3797 C3813 1.377 . S
C3798 C3796 1.389 . S
C3798 C3799 1.524 . S
C3798 C3812 1.377 . S
C3799 C3798 1.524 . S
C3799 C3800 1.397 . S
C3799 C3804 1.363 . S
C3800 H3777 0.950 . S
C3800 C3799 1.397 . S
C3800 C3801 1.334 . S
C3801 H3778 0.950 . S
C3801 C3800 1.334 . S
C3801 C3802 1.287 . S
C3802 C3801 1.287 . S
C3802 C3803 1.524 . S
C3802 H3821 0.913 . S
C3803 H3779 0.950 . S
C3803 C3802 1.524 . S
C3803 C3804 1.415 . S
C3804 H3780 0.950 . S
C3804 C3799 1.363 . S
C3804 C3803 1.415 . S
C3805 H3781 0.951 . S
C3805 C3806 1.366 . S
C3805 C3807 1.388 . S
C3806 C3805 1.366 . S
C3806 C3810 1.385 . S
C3807 H3782 0.951 . S
C3807 C3805 1.388 . S
C3807 C3808 1.366 . S
C3808 C3807 1.366 . S
C3808 C3809 1.414 . S
C3808 C3811 1.499 . S
C3809 H3783 0.950 . S
C3809 C3808 1.414 . S
C3809 C3810 1.374 . S
C3810 H3784 0.950 . S
C3810 C3806 1.385 . S
C3810 C3809 1.374 . S
C3811 C3808 1.499 . S
C3811 C3812 1.373 . S
C3811 C3813 1.389 . S
C3812 H3785 0.950 . S
C3812 C3798 1.377 . S
C3812 C3811 1.373 . S
C3813 C3797 1.377 . S
C3813 C3811 1.389 . S
C3813 C3814 1.524 . S
C3814 C3813 1.524 . S
C3814 C3815 1.397 . S
C3814 C3819 1.363 . S
C3815 H3786 0.950 . S
C3815 C3814 1.397 . S
C3815 C3816 1.334 . S
C3816 H3787 0.950 . S
C3816 C3815 1.334 . S
C3816 C3817 1.287 . S
C3817 C3816 1.287 . S
C3817 C3818 1.524 . S
C3817 H3820 0.999 . S
C3818 H3788 0.950 . S
C3818 C3817 1.524 . S
C3818 C3819 1.415 . S
C3819 H3789 0.950 . S
C3819 C3814 1.363 . S
C3819 C3818 1.415 . S
H3820 C3817 0.999 . S
H3821 C3802 0.913 . S
H3822 C3840 0.951 . S
H3823 C3842 0.951 . S
H3824 C3844 0.950 . S
H3825 C3845 0.950 . S
H3826 C3847 0.950 . S
H3827 C3850 0.950 . S
H3828 C3851 0.950 . S
H3829 C3853 0.950 . S
H3830 C3854 0.950 . S
H3831 C3855 0.951 . S
H3832 C3857 0.951 . S
H3833 C3859 0.950 . S
H3834 C3860 0.950 . S
H3835 C3862 0.950 . S
H3836 C3865 0.950 . S
H3837 C3866 0.950 . S
H3838 C3868 0.950 . S
H3839 C3869 0.950 . S
C3840 H3822 0.951 . S
C3840 C3841 1.366 . S
C3840 C3842 1.388 . S
C3841 C3840 1.366 . S
C3841 C3845 1.385 . S
C3842 H3823 0.951 . S
C3842 C3840 1.388 . S
C3842 C3843 1.366 . S
C3843 C3842 1.366 . S
C3843 C3844 1.414 . S
C3843 C3846 1.499 . S
C3844 H3824 0.950 . S
C3844 C3843 1.414 . S
C3844 C3845 1.374 . S
C3845 H3825 0.950 . S
C3845 C3841 1.385 . S
C3845 C3844 1.374 . S
C3846 C3843 1.499 . S
C3846 C3847 1.373 . S
C3846 C3848 1.389 . S
C3847 H3826 0.950 . S
C3847 C3846 1.373 . S
C3847 C3863 1.377 . S
C3848 C3846 1.389 . S
C3848 C3849 1.524 . S
C3848 C3862 1.377 . S
C3849 C3848 1.524 . S
C3849 C3850 1.397 . S
C3849 C3854 1.363 . S
C3850 H3827 0.950 . S
C3850 C3849 1.397 . S
C3850 C3851 1.334 . S
C3851 H3828 0.950 . S
C3851 C3850 1.334 . S
C3851 C3852 1.287 . S
C3852 C3851 1.287 . S
C3852 C3853 1.524 . S
C3852 H3871 0.913 . S
C3853 H3829 0.950 . S
C3853 C3852 1.524 . S
C3853 C3854 1.415 . S
C3854 H3830 0.950 . S
C3854 C3849 1.363 . S
C3854 C3853 1.415 . S
C3855 H3831 0.951 . S
C3855 C3856 1.366 . S
C3855 C3857 1.388 . S
C3856 C3855 1.366 . S
C3856 C3860 1.385 . S
C3857 H3832 0.951 . S
C3857 C3855 1.388 . S
C3857 C3858 1.366 . S
C3858 C3857 1.366 . S
C3858 C3859 1.414 . S
C3858 C3861 1.499 . S
C3859 H3833 0.950 . S
C3859 C3858 1.414 . S
C3859 C3860 1.374 . S
C3860 H3834 0.950 . S
C3860 C3856 1.385 . S
C3860 C3859 1.374 . S
C3861 C3858 1.499 . S
C3861 C3862 1.373 . S
C3861 C3863 1.389 . S
C3862 H3835 0.950 . S
C3862 C3848 1.377 . S
C3862 C3861 1.373 . S
C3863 C3847 1.377 . S
C3863 C3861 1.389 . S
C3863 C3864 1.524 . S
C3864 C3863 1.524 . S
C3864 C3865 1.397 . S
C3864 C3869 1.363 . S
C3865 H3836 0.950 . S
C3865 C3864 1.397 . S
C3865 C3866 1.334 . S
C3866 H3837 0.950 . S
C3866 C3865 1.334 . S
C3866 C3867 1.287 . S
C3867 C3866 1.287 . S
C3867 C3868 1.524 . S
C3867 H3870 0.999 . S
C3868 H3838 0.950 . S
C3868 C3867 1.524 . S
C3868 C3869 1.415 . S
C3869 H3839 0.950 . S
C3869 C3864 1.363 . S
C3869 C3868 1.415 . S
H3870 C3867 0.999 . S
H3871 C3852 0.913 . S
H3872 C3890 0.951 . S
H3873 C3892 0.951 . S
H3874 C3894 0.950 . S
H3875 C3895 0.950 . S
H3876 C3897 0.950 . S
H3877 C3900 0.950 . S
H3878 C3901 0.950 . S
H3879 C3903 0.950 . S
H3880 C3904 0.950 . S
H3881 C3905 0.951 . S
H3882 C3907 0.951 . S
H3883 C3909 0.950 . S
H3884 C3910 0.950 . S
H3885 C3912 0.950 . S
H3886 C3915 0.950 . S
H3887 C3916 0.950 . S
H3888 C3918 0.950 . S
H3889 C3919 0.950 . S
C3890 H3872 0.951 . S
C3890 C3891 1.366 . S
C3890 C3892 1.388 . S
C3891 C3890 1.366 . S
C3891 C3895 1.385 . S
C3892 H3873 0.951 . S
C3892 C3890 1.388 . S
C3892 C3893 1.366 . S
C3893 C3892 1.366 . S
C3893 C3894 1.414 . S
C3893 C3896 1.499 . S
C3894 H3874 0.950 . S
C3894 C3893 1.414 . S
C3894 C3895 1.374 . S
C3895 H3875 0.950 . S
C3895 C3891 1.385 . S
C3895 C3894 1.374 . S
C3896 C3893 1.499 . S
C3896 C3897 1.373 . S
C3896 C3898 1.389 . S
C3897 H3876 0.950 . S
C3897 C3896 1.373 . S
C3897 C3913 1.377 . S
C3898 C3896 1.389 . S
C3898 C3899 1.524 . S
C3898 C3912 1.377 . S
C3899 C3898 1.524 . S
C3899 C3900 1.397 . S
C3899 C3904 1.363 . S
C3900 H3877 0.950 . S
C3900 C3899 1.397 . S
C3900 C3901 1.334 . S
C3901 H3878 0.950 . S
C3901 C3900 1.334 . S
C3901 C3902 1.287 . S
C3902 C3901 1.287 . S
C3902 C3903 1.524 . S
C3902 H3921 0.913 . S
C3903 H3879 0.950 . S
C3903 C3902 1.524 . S
C3903 C3904 1.415 . S
C3904 H3880 0.950 . S
C3904 C3899 1.363 . S
C3904 C3903 1.415 . S
C3905 H3881 0.951 . S
C3905 C3906 1.366 . S
C3905 C3907 1.388 . S
C3906 C3905 1.366 . S
C3906 C3910 1.385 . S
C3907 H3882 0.951 . S
C3907 C3905 1.388 . S
C3907 C3908 1.366 . S
C3908 C3907 1.366 . S
C3908 C3909 1.414 . S
C3908 C3911 1.499 . S
C3909 H3883 0.950 . S
C3909 C3908 1.414 . S
C3909 C3910 1.374 . S
C3910 H3884 0.950 . S
C3910 C3906 1.385 . S
C3910 C3909 1.374 . S
C3911 C3908 1.499 . S
C3911 C3912 1.373 . S
C3911 C3913 1.389 . S
C3912 H3885 0.950 . S
C3912 C3898 1.377 . S
C3912 C3911 1.373 . S
C3913 C3897 1.377 . S
C3913 C3911 1.389 . S
C3913 C3914 1.524 . S
C3914 C3913 1.524 . S
C3914 C3915 1.397 . S
C3914 C3919 1.363 . S
C3915 H3886 0.950 . S
C3915 C3914 1.397 . S
C3915 C3916 1.334 . S
C3916 H3887 0.950 . S
C3916 C3915 1.334 . S
C3916 C3917 1.287 . S
C3917 C3916 1.287 . S
C3917 C3918 1.524 . S
C3917 H3920 0.999 . S
C3918 H3888 0.950 . S
C3918 C3917 1.524 . S
C3918 C3919 1.415 . S
C3919 H3889 0.950 . S
C3919 C3914 1.363 . S
C3919 C3918 1.415 . S
H3920 C3917 0.999 . S
H3921 C3902 0.913 . S
H3922 C3940 0.951 . S
H3923 C3942 0.951 . S
H3924 C3944 0.950 . S
H3925 C3945 0.950 . S
H3926 C3947 0.950 . S
H3927 C3950 0.950 . S
H3928 C3951 0.950 . S
H3929 C3953 0.950 . S
H3930 C3954 0.950 . S
H3931 C3955 0.951 . S
H3932 C3957 0.951 . S
H3933 C3959 0.950 . S
H3934 C3960 0.950 . S
H3935 C3962 0.950 . S
H3936 C3965 0.950 . S
H3937 C3966 0.950 . S
H3938 C3968 0.950 . S
H3939 C3969 0.950 . S
C3940 H3922 0.951 . S
C3940 C3941 1.366 . S
C3940 C3942 1.388 . S
C3941 C3940 1.366 . S
C3941 C3945 1.385 . S
C3942 H3923 0.951 . S
C3942 C3940 1.388 . S
C3942 C3943 1.366 . S
C3943 C3942 1.366 . S
C3943 C3944 1.414 . S
C3943 C3946 1.499 . S
C3944 H3924 0.950 . S
C3944 C3943 1.414 . S
C3944 C3945 1.374 . S
C3945 H3925 0.950 . S
C3945 C3941 1.385 . S
C3945 C3944 1.374 . S
C3946 C3943 1.499 . S
C3946 C3947 1.373 . S
C3946 C3948 1.389 . S
C3947 H3926 0.950 . S
C3947 C3946 1.373 . S
C3947 C3963 1.377 . S
C3948 C3946 1.389 . S
C3948 C3949 1.524 . S
C3948 C3962 1.377 . S
C3949 C3948 1.524 . S
C3949 C3950 1.397 . S
C3949 C3954 1.363 . S
C3950 H3927 0.950 . S
C3950 C3949 1.397 . S
C3950 C3951 1.334 . S
C3951 H3928 0.950 . S
C3951 C3950 1.334 . S
C3951 C3952 1.287 . S
C3952 C3951 1.287 . S
C3952 C3953 1.524 . S
C3952 H3971 0.913 . S
C3953 H3929 0.950 . S
C3953 C3952 1.524 . S
C3953 C3954 1.415 . S
C3954 H3930 0.950 . S
C3954 C3949 1.363 . S
C3954 C3953 1.415 . S
C3955 H3931 0.951 . S
C3955 C3956 1.366 . S
C3955 C3957 1.388 . S
C3956 C3955 1.366 . S
C3956 C3960 1.385 . S
C3957 H3932 0.951 . S
C3957 C3955 1.388 . S
C3957 C3958 1.366 . S
C3958 C3957 1.366 . S
C3958 C3959 1.414 . S
C3958 C3961 1.499 . S
C3959 H3933 0.950 . S
C3959 C3958 1.414 . S
C3959 C3960 1.374 . S
C3960 H3934 0.950 . S
C3960 C3956 1.385 . S
C3960 C3959 1.374 . S
C3961 C3958 1.499 . S
C3961 C3962 1.373 . S
C3961 C3963 1.389 . S
C3962 H3935 0.950 . S
C3962 C3948 1.377 . S
C3962 C3961 1.373 . S
C3963 C3947 1.377 . S
C3963 C3961 1.389 . S
C3963 C3964 1.524 . S
C3964 C3963 1.524 . S
C3964 C3965 1.397 . S
C3964 C3969 1.363 . S
C3965 H3936 0.950 . S
C3965 C3964 1.397 . S
C3965 C3966 1.334 . S
C3966 H3937 0.950 . S
C3966 C3965 1.334 . S
C3966 C3967 1.287 . S
C3967 C3966 1.287 . S
C3967 C3968 1.524 . S
C3967 H3970 0.999 . S
C3968 H3938 0.950 . S
C3968 C3967 1.524 . S
C3968 C3969 1.415 . S
C3969 H3939 0.950 . S
C3969 C3964 1.363 . S
C3969 C3968 1.415 . S
H3970 C3967 0.999 . S
H3971 C3952 0.913 . S
H3972 C3990 0.951 . S
H3973 C3992 0.951 . S
H3974 C3994 0.950 . S
H3975 C3995 0.950 . S
H3976 C3997 0.950 . S
H3977 C4000 0.950 . S
H3978 C4001 0.950 . S
H3979 C4003 0.950 . S
H3980 C4004 0.950 . S
H3981 C4005 0.951 . S
H3982 C4007 0.951 . S
H3983 C4009 0.950 . S
H3984 C4010 0.950 . S
H3985 C4012 0.950 . S
H3986 C4015 0.950 . S
H3987 C4016 0.950 . S
H3988 C4018 0.950 . S
H3989 C4019 0.950 . S
C3990 H3972 0.951 . S
C3990 C3991 1.366 . S
C3990 C3992 1.388 . S
C3991 C3990 1.366 . S
C3991 C3995 1.385 . S
C3992 H3973 0.951 . S
C3992 C3990 1.388 . S
C3992 C3993 1.366 . S
C3993 C3992 1.366 . S
C3993 C3994 1.414 . S
C3993 C3996 1.499 . S
C3994 H3974 0.950 . S
C3994 C3993 1.414 . S
C3994 C3995 1.374 . S
C3995 H3975 0.950 . S
C3995 C3991 1.385 . S
C3995 C3994 1.374 . S
C3996 C3993 1.499 . S
C3996 C3997 1.373 . S
C3996 C3998 1.389 . S
C3997 H3976 0.950 . S
C3997 C3996 1.373 . S
C3997 C4013 1.377 . S
C3998 C3996 1.389 . S
C3998 C3999 1.524 . S
C3998 C4012 1.377 . S
C3999 C3998 1.524 . S
C3999 C4000 1.397 . S
C3999 C4004 1.363 . S
C4000 H3977 0.950 . S
C4000 C3999 1.397 . S
C4000 C4001 1.334 . S
C4001 H3978 0.950 . S
C4001 C4000 1.334 . S
C4001 C4002 1.287 . S
C4002 C4001 1.287 . S
C4002 C4003 1.524 . S
C4002 H4021 0.913 . S
C4003 H3979 0.950 . S
C4003 C4002 1.524 . S
C4003 C4004 1.415 . S
C4004 H3980 0.950 . S
C4004 C3999 1.363 . S
C4004 C4003 1.415 . S
C4005 H3981 0.951 . S
C4005 C4006 1.366 . S
C4005 C4007 1.388 . S
C4006 C4005 1.366 . S
C4006 C4010 1.385 . S
C4007 H3982 0.951 . S
C4007 C4005 1.388 . S
C4007 C4008 1.366 . S
C4008 C4007 1.366 . S
C4008 C4009 1.414 . S
C4008 C4011 1.499 . S
C4009 H3983 0.950 . S
C4009 C4008 1.414 . S
C4009 C4010 1.374 . S
C4010 H3984 0.950 . S
C4010 C4006 1.385 . S
C4010 C4009 1.374 . S
C4011 C4008 1.499 . S
C4011 C4012 1.373 . S
C4011 C4013 1.389 . S
C4012 H3985 0.950 . S
C4012 C3998 1.377 . S
C4012 C4011 1.373 . S
C4013 C3997 1.377 . S
C4013 C4011 1.389 . S
C4013 C4014 1.524 . S
C4014 C4013 1.524 . S
C4014 C4015 1.397 . S
C4014 C4019 1.363 . S
C4015 H3986 0.950 . S
C4015 C4014 1.397 . S
C4015 C4016 1.334 . S
C4016 H3987 0.950 . S
C4016 C4015 1.334 . S
C4016 C4017 1.287 . S
C4017 C4016 1.287 . S
C4017 C4018 1.524 . S
C4017 H4020 0.999 . S
C4018 H3988 0.950 . S
C4018 C4017 1.524 . S
C4018 C4019 1.415 . S
C4019 H3989 0.950 . S
C4019 C4014 1.363 . S
C4019 C4018 1.415 . S
H4020 C4017 0.999 . S
H4021 C4002 0.913 . S
H4022 C4040 0.951 . S
H4023 C4042 0.951 . S
H4024 C4044 0.950 . S
H4025 C4045 0.950 . S
H4026 C4047 0.950 . S
H4027 C4050 0.950 . S
H4028 C4051 0.950 . S
H4029 C4053 0.950 . S
H4030 C4054 0.950 . S
H4031 C4055 0.951 . S
H4032 C4057 0.951 . S
H4033 C4059 0.950 . S
H4034 C4060 0.950 . S
H4035 C4062 0.950 . S
H4036 C4065 0.950 . S
H4037 C4066 0.950 . S
H4038 C4068 0.950 . S
H4039 C4069 0.950 . S
C4040 H4022 0.951 . S
C4040 C4041 1.366 . S
C4040 C4042 1.388 . S
C4041 C4040 1.366 . S
C4041 C4045 1.385 . S
C4042 H4023 0.951 . S
C4042 C4040 1.388 . S
C4042 C4043 1.366 . S
C4043 C4042 1.366 . S
C4043 C4044 1.414 . S
C4043 C4046 1.499 . S
C4044 H4024 0.950 . S
C4044 C4043 1.414 . S
C4044 C4045 1.374 . S
C4045 H4025 0.950 . S
C4045 C4041 1.385 . S
C4045 C4044 1.374 . S
C4046 C4043 1.499 . S
C4046 C4047 1.373 . S
C4046 C4048 1.389 . S
C4047 H4026 0.950 . S
C4047 C4046 1.373 . S
C4047 C4063 1.377 . S
C4048 C4046 1.389 . S
C4048 C4049 1.524 . S
C4048 C4062 1.377 . S
C4049 C4048 1.524 . S
C4049 C4050 1.397 . S
C4049 C4054 1.363 . S
C4050 H4027 0.950 . S
C4050 C4049 1.397 . S
C4050 C4051 1.334 . S
C4051 H4028 0.950 . S
C4051 C4050 1.334 . S
C4051 C4052 1.287 . S
C4052 C4051 1.287 . S
C4052 C4053 1.524 . S
C4052 H4071 0.913 . S
C4053 H4029 0.950 . S
C4053 C4052 1.524 . S
C4053 C4054 1.415 . S
C4054 H4030 0.950 . S
C4054 C4049 1.363 . S
C4054 C4053 1.415 . S
C4055 H4031 0.951 . S
C4055 C4056 1.366 . S
C4055 C4057 1.388 . S
C4056 C4055 1.366 . S
C4056 C4060 1.385 . S
C4057 H4032 0.951 . S
C4057 C4055 1.388 . S
C4057 C4058 1.366 . S
C4058 C4057 1.366 . S
C4058 C4059 1.414 . S
C4058 C4061 1.499 . S
C4059 H4033 0.950 . S
C4059 C4058 1.414 . S
C4059 C4060 1.374 . S
C4060 H4034 0.950 . S
C4060 C4056 1.385 . S
C4060 C4059 1.374 . S
C4061 C4058 1.499 . S
C4061 C4062 1.373 . S
C4061 C4063 1.389 . S
C4062 H4035 0.950 . S
C4062 C4048 1.377 . S
C4062 C4061 1.373 . S
C4063 C4047 1.377 . S
C4063 C4061 1.389 . S
C4063 C4064 1.524 . S
C4064 C4063 1.524 . S
C4064 C4065 1.397 . S
C4064 C4069 1.363 . S
C4065 H4036 0.950 . S
C4065 C4064 1.397 . S
C4065 C4066 1.334 . S
C4066 H4037 0.950 . S
C4066 C4065 1.334 . S
C4066 C4067 1.287 . S
C4067 C4066 1.287 . S
C4067 C4068 1.524 . S
C4067 H4070 0.999 . S
C4068 H4038 0.950 . S
C4068 C4067 1.524 . S
C4068 C4069 1.415 . S
C4069 H4039 0.950 . S
C4069 C4064 1.363 . S
C4069 C4068 1.415 . S
H4070 C4067 0.999 . S
H4071 C4052 0.913 . S
H4072 C4090 0.951 . S
H4073 C4092 0.951 . S
H4074 C4094 0.950 . S
H4075 C4095 0.950 . S
H4076 C4097 0.950 . S
H4077 C4100 0.950 . S
H4078 C4101 0.950 . S
H4079 C4103 0.950 . S
H4080 C4104 0.950 . S
H4081 C4105 0.951 . S
H4082 C4107 0.951 . S
H4083 C4109 0.950 . S
H4084 C4110 0.950 . S
H4085 C4112 0.950 . S
H4086 C4115 0.950 . S
H4087 C4116 0.950 . S
H4088 C4118 0.950 . S
H4089 C4119 0.950 . S
C4090 H4072 0.951 . S
C4090 C4091 1.366 . S
C4090 C4092 1.388 . S
C4091 C4090 1.366 . S
C4091 C4095 1.385 . S
C4092 H4073 0.951 . S
C4092 C4090 1.388 . S
C4092 C4093 1.366 . S
C4093 C4092 1.366 . S
C4093 C4094 1.414 . S
C4093 C4096 1.499 . S
C4094 H4074 0.950 . S
C4094 C4093 1.414 . S
C4094 C4095 1.374 . S
C4095 H4075 0.950 . S
C4095 C4091 1.385 . S
C4095 C4094 1.374 . S
C4096 C4093 1.499 . S
C4096 C4097 1.373 . S
C4096 C4098 1.389 . S
C4097 H4076 0.950 . S
C4097 C4096 1.373 . S
C4097 C4113 1.377 . S
C4098 C4096 1.389 . S
C4098 C4099 1.524 . S
C4098 C4112 1.377 . S
C4099 C4098 1.524 . S
C4099 C4100 1.397 . S
C4099 C4104 1.363 . S
C4100 H4077 0.950 . S
C4100 C4099 1.397 . S
C4100 C4101 1.334 . S
C4101 H4078 0.950 . S
C4101 C4100 1.334 . S
C4101 C4102 1.287 . S
C4102 C4101 1.287 . S
C4102 C4103 1.524 . S
C4102 H4121 0.913 . S
C4103 H4079 0.950 . S
C4103 C4102 1.524 . S
C4103 C4104 1.415 . S
C4104 H4080 0.950 . S
C4104 C4099 1.363 . S
C4104 C4103 1.415 . S
C4105 H4081 0.951 . S
C4105 C4106 1.366 . S
C4105 C4107 1.388 . S
C4106 C4105 1.366 . S
C4106 C4110 1.385 . S
C4107 H4082 0.951 . S
C4107 C4105 1.388 . S
C4107 C4108 1.366 . S
C4108 C4107 1.366 . S
C4108 C4109 1.414 . S
C4108 C4111 1.499 . S
C4109 H4083 0.950 . S
C4109 C4108 1.414 . S
C4109 C4110 1.374 . S
C4110 H4084 0.950 . S
C4110 C4106 1.385 . S
C4110 C4109 1.374 . S
C4111 C4108 1.499 . S
C4111 C4112 1.373 . S
C4111 C4113 1.389 . S
C4112 H4085 0.950 . S
C4112 C4098 1.377 . S
C4112 C4111 1.373 . S
C4113 C4097 1.377 . S
C4113 C4111 1.389 . S
C4113 C4114 1.524 . S
C4114 C4113 1.524 . S
C4114 C4115 1.397 . S
C4114 C4119 1.363 . S
C4115 H4086 0.950 . S
C4115 C4114 1.397 . S
C4115 C4116 1.334 . S
C4116 H4087 0.950 . S
C4116 C4115 1.334 . S
C4116 C4117 1.287 . S
C4117 C4116 1.287 . S
C4117 C4118 1.524 . S
C4117 H4120 0.999 . S
C4118 H4088 0.950 . S
C4118 C4117 1.524 . S
C4118 C4119 1.415 . S
C4119 H4089 0.950 . S
C4119 C4114 1.363 . S
C4119 C4118 1.415 . S
H4120 C4117 0.999 . S
H4121 C4102 0.913 . S
H4122 C4140 0.951 . S
H4123 C4142 0.951 . S
H4124 C4144 0.950 . S
H4125 C4145 0.950 . S
H4126 C4147 0.950 . S
H4127 C4150 0.950 . S
H4128 C4151 0.950 . S
H4129 C4153 0.950 . S
H4130 C4154 0.950 . S
H4131 C4155 0.951 . S
H4132 C4157 0.951 . S
H4133 C4159 0.950 . S
H4134 C4160 0.950 . S
H4135 C4162 0.950 . S
H4136 C4165 0.950 . S
H4137 C4166 0.950 . S
H4138 C4168 0.950 . S
H4139 C4169 0.950 . S
C4140 H4122 0.951 . S
C4140 C4141 1.366 . S
C4140 C4142 1.388 . S
C4141 C4140 1.366 . S
C4141 C4145 1.385 . S
C4142 H4123 0.951 . S
C4142 C4140 1.388 . S
C4142 C4143 1.366 . S
C4143 C4142 1.366 . S
C4143 C4144 1.414 . S
C4143 C4146 1.499 . S
C4144 H4124 0.950 . S
C4144 C4143 1.414 . S
C4144 C4145 1.374 . S
C4145 H4125 0.950 . S
C4145 C4141 1.385 . S
C4145 C4144 1.374 . S
C4146 C4143 1.499 . S
C4146 C4147 1.373 . S
C4146 C4148 1.389 . S
C4147 H4126 0.950 . S
C4147 C4146 1.373 . S
C4147 C4163 1.377 . S
C4148 C4146 1.389 . S
C4148 C4149 1.524 . S
C4148 C4162 1.377 . S
C4149 C4148 1.524 . S
C4149 C4150 1.397 . S
C4149 C4154 1.363 . S
C4150 H4127 0.950 . S
C4150 C4149 1.397 . S
C4150 C4151 1.334 . S
C4151 H4128 0.950 . S
C4151 C4150 1.334 . S
C4151 C4152 1.287 . S
C4152 C4151 1.287 . S
C4152 C4153 1.524 . S
C4152 H4171 0.913 . S
C4153 H4129 0.950 . S
C4153 C4152 1.524 . S
C4153 C4154 1.415 . S
C4154 H4130 0.950 . S
C4154 C4149 1.363 . S
C4154 C4153 1.415 . S
C4155 H4131 0.951 . S
C4155 C4156 1.366 . S
C4155 C4157 1.388 . S
C4156 C4155 1.366 . S
C4156 C4160 1.385 . S
C4157 H4132 0.951 . S
C4157 C4155 1.388 . S
C4157 C4158 1.366 . S
C4158 C4157 1.366 . S
C4158 C4159 1.414 . S
C4158 C4161 1.499 . S
C4159 H4133 0.950 . S
C4159 C4158 1.414 . S
C4159 C4160 1.374 . S
C4160 H4134 0.950 . S
C4160 C4156 1.385 . S
C4160 C4159 1.374 . S
C4161 C4158 1.499 . S
C4161 C4162 1.373 . S
C4161 C4163 1.389 . S
C4162 H4135 0.950 . S
C4162 C4148 1.377 . S
C4162 C4161 1.373 . S
C4163 C4147 1.377 . S
C4163 C4161 1.389 . S
C4163 C4164 1.524 . S
C4164 C4163 1.524 . S
C4164 C4165 1.397 . S
C4164 C4169 1.363 . S
C4165 H4136 0.950 . S
C4165 C4164 1.397 . S
C4165 C4166 1.334 . S
C4166 H4137 0.950 . S
C4166 C4165 1.334 . S
C4166 C4167 1.287 . S
C4167 C4166 1.287 . S
C4167 C4168 1.524 . S
C4167 H4170 0.999 . S
C4168 H4138 0.950 . S
C4168 C4167 1.524 . S
C4168 C4169 1.415 . S
C4169 H4139 0.950 . S
C4169 C4164 1.363 . S
C4169 C4168 1.415 . S
H4170 C4167 0.999 . S
H4171 C4152 0.913 . S
H4172 C4190 0.951 . S
H4173 C4192 0.951 . S
H4174 C4194 0.950 . S
H4175 C4195 0.950 . S
H4176 C4197 0.950 . S
H4177 C4200 0.950 . S
H4178 C4201 0.950 . S
H4179 C4203 0.950 . S
H4180 C4204 0.950 . S
H4181 C4205 0.951 . S
H4182 C4207 0.951 . S
H4183 C4209 0.950 . S
H4184 C4210 0.950 . S
H4185 C4212 0.950 . S
H4186 C4215 0.950 . S
H4187 C4216 0.950 . S
H4188 C4218 0.950 . S
H4189 C4219 0.950 . S
C4190 H4172 0.951 . S
C4190 C4191 1.366 . S
C4190 C4192 1.388 . S
C4191 C4190 1.366 . S
C4191 C4195 1.385 . S
C4192 H4173 0.951 . S
C4192 C4190 1.388 . S
C4192 C4193 1.366 . S
C4193 C4192 1.366 . S
C4193 C4194 1.414 . S
C4193 C4196 1.499 . S
C4194 H4174 0.950 . S
C4194 C4193 1.414 . S
C4194 C4195 1.374 . S
C4195 H4175 0.950 . S
C4195 C4191 1.385 . S
C4195 C4194 1.374 . S
C4196 C4193 1.499 . S
C4196 C4197 1.373 . S
C4196 C4198 1.389 . S
C4197 H4176 0.950 . S
C4197 C4196 1.373 . S
C4197 C4213 1.377 . S
C4198 C4196 1.389 . S
C4198 C4199 1.524 . S
C4198 C4212 1.377 . S
C4199 C4198 1.524 . S
C4199 C4200 1.397 . S
C4199 C4204 1.363 . S
C4200 H4177 0.950 . S
C4200 C4199 1.397 . S
C4200 C4201 1.334 . S
C4201 H4178 0.950 . S
C4201 C4200 1.334 . S
C4201 C4202 1.287 . S
C4202 C4201 1.287 . S
C4202 C4203 1.524 . S
C4202 H4221 0.913 . S
C4203 H4179 0.950 . S
C4203 C4202 1.524 . S
C4203 C4204 1.415 . S
C4204 H4180 0.950 . S
C4204 C4199 1.363 . S
C4204 C4203 1.415 . S
C4205 H4181 0.951 . S
C4205 C4206 1.366 . S
C4205 C4207 1.388 . S
C4206 C4205 1.366 . S
C4206 C4210 1.385 . S
C4207 H4182 0.951 . S
C4207 C4205 1.388 . S
C4207 C4208 1.366 . S
C4208 C4207 1.366 . S
C4208 C4209 1.414 . S
C4208 C4211 1.499 . S
C4209 H4183 0.950 . S
C4209 C4208 1.414 . S
C4209 C4210 1.374 . S
C4210 H4184 0.950 . S
C4210 C4206 1.385 . S
C4210 C4209 1.374 . S
C4211 C4208 1.499 . S
C4211 C4212 1.373 . S
C4211 C4213 1.389 . S
C4212 H4185 0.950 . S
C4212 C4198 1.377 . S
C4212 C4211 1.373 . S
C4213 C4197 1.377 . S
C4213 C4211 1.389 . S
C4213 C4214 1.524 . S
C4214 C4213 1.524 . S
C4214 C4215 1.397 . S
C4214 C4219 1.363 . S
C4215 H4186 0.950 . S
C4215 C4214 1.397 . S
C4215 C4216 1.334 . S
C4216 H4187 0.950 . S
C4216 C4215 1.334 . S
C4216 C4217 1.287 . S
C4217 C4216 1.287 . S
C4217 C4218 1.524 . S
C4217 H4220 0.999 . S
C4218 H4188 0.950 . S
C4218 C4217 1.524 . S
C4218 C4219 1.415 . S
C4219 H4189 0.950 . S
C4219 C4214 1.363 . S
C4219 C4218 1.415 . S
H4220 C4217 0.999 . S
H4221 C4202 0.913 . S
H4222 C4240 0.951 . S
H4223 C4242 0.951 . S
H4224 C4244 0.950 . S
H4225 C4245 0.950 . S
H4226 C4247 0.950 . S
H4227 C4250 0.950 . S
H4228 C4251 0.950 . S
H4229 C4253 0.950 . S
H4230 C4254 0.950 . S
H4231 C4255 0.951 . S
H4232 C4257 0.951 . S
H4233 C4259 0.950 . S
H4234 C4260 0.950 . S
H4235 C4262 0.950 . S
H4236 C4265 0.950 . S
H4237 C4266 0.950 . S
H4238 C4268 0.950 . S
H4239 C4269 0.950 . S
C4240 H4222 0.951 . S
C4240 C4241 1.366 . S
C4240 C4242 1.388 . S
C4241 C4240 1.366 . S
C4241 C4245 1.385 . S
C4242 H4223 0.951 . S
C4242 C4240 1.388 . S
C4242 C4243 1.366 . S
C4243 C4242 1.366 . S
C4243 C4244 1.414 . S
C4243 C4246 1.499 . S
C4244 H4224 0.950 . S
C4244 C4243 1.414 . S
C4244 C4245 1.374 . S
C4245 H4225 0.950 . S
C4245 C4241 1.385 . S
C4245 C4244 1.374 . S
C4246 C4243 1.499 . S
C4246 C4247 1.373 . S
C4246 C4248 1.389 . S
C4247 H4226 0.950 . S
C4247 C4246 1.373 . S
C4247 C4263 1.377 . S
C4248 C4246 1.389 . S
C4248 C4249 1.524 . S
C4248 C4262 1.377 . S
C4249 C4248 1.524 . S
C4249 C4250 1.397 . S
C4249 C4254 1.363 . S
C4250 H4227 0.950 . S
C4250 C4249 1.397 . S
C4250 C4251 1.334 . S
C4251 H4228 0.950 . S
C4251 C4250 1.334 . S
C4251 C4252 1.287 . S
C4252 C4251 1.287 . S
C4252 C4253 1.524 . S
C4252 H4271 0.913 . S
C4253 H4229 0.950 . S
C4253 C4252 1.524 . S
C4253 C4254 1.415 . S
C4254 H4230 0.950 . S
C4254 C4249 1.363 . S
C4254 C4253 1.415 . S
C4255 H4231 0.951 . S
C4255 C4256 1.366 . S
C4255 C4257 1.388 . S
C4256 C4255 1.366 . S
C4256 C4260 1.385 . S
C4257 H4232 0.951 . S
C4257 C4255 1.388 . S
C4257 C4258 1.366 . S
C4258 C4257 1.366 . S
C4258 C4259 1.414 . S
C4258 C4261 1.499 . S
C4259 H4233 0.950 . S
C4259 C4258 1.414 . S
C4259 C4260 1.374 . S
C4260 H4234 0.950 . S
C4260 C4256 1.385 . S
C4260 C4259 1.374 . S
C4261 C4258 1.499 . S
C4261 C4262 1.373 . S
C4261 C4263 1.389 . S
C4262 H4235 0.950 . S
C4262 C4248 1.377 . S
C4262 C4261 1.373 . S
C4263 C4247 1.377 . S
C4263 C4261 1.389 . S
C4263 C4264 1.524 . S
C4264 C4263 1.524 . S
C4264 C4265 1.397 . S
C4264 C4269 1.363 . S
C4265 H4236 0.950 . S
C4265 C4264 1.397 . S
C4265 C4266 1.334 . S
C4266 H4237 0.950 . S
C4266 C4265 1.334 . S
C4266 C4267 1.287 . S
C4267 C4266 1.287 . S
C4267 C4268 1.524 . S
C4267 H4270 0.999 . S
C4268 H4238 0.950 . S
C4268 C4267 1.524 . S
C4268 C4269 1.415 . S
C4269 H4239 0.950 . S
C4269 C4264 1.363 . S
C4269 C4268 1.415 . S
H4270 C4267 0.999 . S
H4271 C4252 0.913 . S
H4272 C4290 0.951 . S
H4273 C4292 0.951 . S
H4274 C4294 0.950 . S
H4275 C4295 0.950 . S
H4276 C4297 0.950 . S
H4277 C4300 0.950 . S
H4278 C4301 0.950 . S
H4279 C4303 0.950 . S
H4280 C4304 0.950 . S
H4281 C4305 0.951 . S
H4282 C4307 0.951 . S
H4283 C4309 0.950 . S
H4284 C4310 0.950 . S
H4285 C4312 0.950 . S
H4286 C4315 0.950 . S
H4287 C4316 0.950 . S
H4288 C4318 0.950 . S
H4289 C4319 0.950 . S
C4290 H4272 0.951 . S
C4290 C4291 1.366 . S
C4290 C4292 1.388 . S
C4291 C4290 1.366 . S
C4291 C4295 1.385 . S
C4292 H4273 0.951 . S
C4292 C4290 1.388 . S
C4292 C4293 1.366 . S
C4293 C4292 1.366 . S
C4293 C4294 1.414 . S
C4293 C4296 1.499 . S
C4294 H4274 0.950 . S
C4294 C4293 1.414 . S
C4294 C4295 1.374 . S
C4295 H4275 0.950 . S
C4295 C4291 1.385 . S
C4295 C4294 1.374 . S
C4296 C4293 1.499 . S
C4296 C4297 1.373 . S
C4296 C4298 1.389 . S
C4297 H4276 0.950 . S
C4297 C4296 1.373 . S
C4297 C4313 1.377 . S
C4298 C4296 1.389 . S
C4298 C4299 1.524 . S
C4298 C4312 1.377 . S
C4299 C4298 1.524 . S
C4299 C4300 1.397 . S
C4299 C4304 1.363 . S
C4300 H4277 0.950 . S
C4300 C4299 1.397 . S
C4300 C4301 1.334 . S
C4301 H4278 0.950 . S
C4301 C4300 1.334 . S
C4301 C4302 1.287 . S
C4302 C4301 1.287 . S
C4302 C4303 1.524 . S
C4302 H4321 0.913 . S
C4303 H4279 0.950 . S
C4303 C4302 1.524 . S
C4303 C4304 1.415 . S
C4304 H4280 0.950 . S
C4304 C4299 1.363 . S
C4304 C4303 1.415 . S
C4305 H4281 0.951 . S
C4305 C4306 1.366 . S
C4305 C4307 1.388 . S
C4306 C4305 1.366 . S
C4306 C4310 1.385 . S
C4307 H4282 0.951 . S
C4307 C4305 1.388 . S
C4307 C4308 1.366 . S
C4308 C4307 1.366 . S
C4308 C4309 1.414 . S
C4308 C4311 1.499 . S
C4309 H4283 0.950 . S
C4309 C4308 1.414 . S
C4309 C4310 1.374 . S
C4310 H4284 0.950 . S
C4310 C4306 1.385 . S
C4310 C4309 1.374 . S
C4311 C4308 1.499 . S
C4311 C4312 1.373 . S
C4311 C4313 1.389 . S
C4312 H4285 0.950 . S
C4312 C4298 1.377 . S
C4312 C4311 1.373 . S
C4313 C4297 1.377 . S
C4313 C4311 1.389 . S
C4313 C4314 1.524 . S
C4314 C4313 1.524 . S
C4314 C4315 1.397 . S
C4314 C4319 1.363 . S
C4315 H4286 0.950 . S
C4315 C4314 1.397 . S
C4315 C4316 1.334 . S
C4316 H4287 0.950 . S
C4316 C4315 1.334 . S
C4316 C4317 1.287 . S
C4317 C4316 1.287 . S
C4317 C4318 1.524 . S
C4317 H4320 0.999 . S
C4318 H4288 0.950 . S
C4318 C4317 1.524 . S
C4318 C4319 1.415 . S
C4319 H4289 0.950 . S
C4319 C4314 1.363 . S
C4319 C4318 1.415 . S
H4320 C4317 0.999 . S
H4321 C4302 0.913 . S
H4322 C4340 0.951 . S
H4323 C4342 0.951 . S
H4324 C4344 0.950 . S
H4325 C4345 0.950 . S
H4326 C4347 0.950 . S
H4327 C4350 0.950 . S
H4328 C4351 0.950 . S
H4329 C4353 0.950 . S
H4330 C4354 0.950 . S
H4331 C4355 0.951 . S
H4332 C4357 0.951 . S
H4333 C4359 0.950 . S
H4334 C4360 0.950 . S
H4335 C4362 0.950 . S
H4336 C4365 0.950 . S
H4337 C4366 0.950 . S
H4338 C4368 0.950 . S
H4339 C4369 0.950 . S
C4340 H4322 0.951 . S
C4340 C4341 1.366 . S
C4340 C4342 1.388 . S
C4341 C4340 1.366 . S
C4341 C4345 1.385 . S
C4342 H4323 0.951 . S
C4342 C4340 1.388 . S
C4342 C4343 1.366 . S
C4343 C4342 1.366 . S
C4343 C4344 1.414 . S
C4343 C4346 1.499 . S
C4344 H4324 0.950 . S
C4344 C4343 1.414 . S
C4344 C4345 1.374 . S
C4345 H4325 0.950 . S
C4345 C4341 1.385 . S
C4345 C4344 1.374 . S
C4346 C4343 1.499 . S
C4346 C4347 1.373 . S
C4346 C4348 1.389 . S
C4347 H4326 0.950 . S
C4347 C4346 1.373 . S
C4347 C4363 1.377 1_565 S
C4348 C4346 1.389 . S
C4348 C4349 1.524 . S
C4348 C4362 1.377 1_565 S
C4349 C4348 1.524 . S
C4349 C4350 1.397 . S
C4349 C4354 1.363 . S
C4350 H4327 0.950 . S
C4350 C4349 1.397 . S
C4350 C4351 1.334 1_655 S
C4351 H4328 0.950 . S
C4351 C4350 1.334 1_455 S
C4351 C4352 1.287 . S
C4352 C4351 1.287 . S
C4352 C4353 1.524 1_455 S
C4352 H4371 0.913 . S
C4353 H4329 0.950 . S
C4353 C4352 1.524 1_655 S
C4353 C4354 1.415 . S
C4354 H4330 0.950 . S
C4354 C4349 1.363 . S
C4354 C4353 1.415 . S
C4355 H4331 0.951 . S
C4355 C4356 1.366 . S
C4355 C4357 1.388 . S
C4356 C4355 1.366 . S
C4356 C4360 1.385 . S
C4357 H4332 0.951 . S
C4357 C4355 1.388 . S
C4357 C4358 1.366 . S
C4358 C4357 1.366 . S
C4358 C4359 1.414 . S
C4358 C4361 1.499 . S
C4359 H4333 0.950 . S
C4359 C4358 1.414 . S
C4359 C4360 1.374 . S
C4360 H4334 0.950 . S
C4360 C4356 1.385 . S
C4360 C4359 1.374 . S
C4361 C4358 1.499 . S
C4361 C4362 1.373 . S
C4361 C4363 1.389 . S
C4362 H4335 0.950 . S
C4362 C4348 1.377 1_545 S
C4362 C4361 1.373 . S
C4363 C4347 1.377 1_545 S
C4363 C4361 1.389 . S
C4363 C4364 1.524 . S
C4364 C4363 1.524 . S
C4364 C4365 1.397 . S
C4364 C4369 1.363 . S
C4365 H4336 0.950 . S
C4365 C4364 1.397 . S
C4365 C4366 1.334 . S
C4366 H4337 0.950 . S
C4366 C4365 1.334 . S
C4366 C4367 1.287 . S
C4367 C4366 1.287 . S
C4367 C4368 1.524 . S
C4367 H4370 0.999 . S
C4368 H4338 0.950 . S
C4368 C4367 1.524 . S
C4368 C4369 1.415 . S
C4369 H4339 0.950 . S
C4369 C4364 1.363 . S
C4369 C4368 1.415 . S
H4370 C4367 0.999 . S
H4371 C4352 0.913 . S
H4372 C4390 0.951 . S
H4373 C4392 0.951 . S
H4374 C4394 0.950 . S
H4375 C4395 0.950 . S
H4376 C4397 0.950 . S
H4377 C4400 0.950 . S
H4378 C4401 0.950 . S
H4379 C4403 0.950 . S
H4380 C4404 0.950 . S
H4381 C4405 0.951 . S
H4382 C4407 0.951 . S
H4383 C4409 0.950 . S
H4384 C4410 0.950 . S
H4385 C4412 0.950 . S
H4386 C4415 0.950 . S
H4387 C4416 0.950 . S
H4388 C4418 0.950 . S
H4389 C4419 0.950 . S
C4390 H4372 0.951 . S
C4390 C4391 1.366 . S
C4390 C4392 1.388 . S
C4391 C4390 1.366 . S
C4391 C4395 1.385 . S
C4392 H4373 0.951 . S
C4392 C4390 1.388 . S
C4392 C4393 1.366 . S
C4393 C4392 1.366 . S
C4393 C4394 1.414 . S
C4393 C4396 1.499 . S
C4394 H4374 0.950 . S
C4394 C4393 1.414 . S
C4394 C4395 1.374 . S
C4395 H4375 0.950 . S
C4395 C4391 1.385 . S
C4395 C4394 1.374 . S
C4396 C4393 1.499 . S
C4396 C4397 1.373 . S
C4396 C4398 1.389 . S
C4397 H4376 0.950 . S
C4397 C4396 1.373 . S
C4397 C4413 1.377 . S
C4398 C4396 1.389 . S
C4398 C4399 1.524 . S
C4398 C4412 1.377 . S
C4399 C4398 1.524 . S
C4399 C4400 1.397 . S
C4399 C4404 1.363 . S
C4400 H4377 0.950 . S
C4400 C4399 1.397 . S
C4400 C4401 1.334 . S
C4401 H4378 0.950 . S
C4401 C4400 1.334 . S
C4401 C4402 1.287 . S
C4402 C4401 1.287 . S
C4402 C4403 1.524 . S
C4402 H4421 0.913 . S
C4403 H4379 0.950 . S
C4403 C4402 1.524 . S
C4403 C4404 1.415 . S
C4404 H4380 0.950 . S
C4404 C4399 1.363 . S
C4404 C4403 1.415 . S
C4405 H4381 0.951 . S
C4405 C4406 1.366 . S
C4405 C4407 1.388 . S
C4406 C4405 1.366 . S
C4406 C4410 1.385 . S
C4407 H4382 0.951 . S
C4407 C4405 1.388 . S
C4407 C4408 1.366 . S
C4408 C4407 1.366 . S
C4408 C4409 1.414 . S
C4408 C4411 1.499 . S
C4409 H4383 0.950 . S
C4409 C4408 1.414 . S
C4409 C4410 1.374 . S
C4410 H4384 0.950 . S
C4410 C4406 1.385 . S
C4410 C4409 1.374 . S
C4411 C4408 1.499 . S
C4411 C4412 1.373 . S
C4411 C4413 1.389 . S
C4412 H4385 0.950 . S
C4412 C4398 1.377 . S
C4412 C4411 1.373 . S
C4413 C4397 1.377 . S
C4413 C4411 1.389 . S
C4413 C4414 1.524 . S
C4414 C4413 1.524 . S
C4414 C4415 1.397 . S
C4414 C4419 1.363 . S
C4415 H4386 0.950 . S
C4415 C4414 1.397 . S
C4415 C4416 1.334 . S
C4416 H4387 0.950 . S
C4416 C4415 1.334 . S
C4416 C4417 1.287 . S
C4417 C4416 1.287 . S
C4417 C4418 1.524 . S
C4417 H4420 0.999 . S
C4418 H4388 0.950 . S
C4418 C4417 1.524 . S
C4418 C4419 1.415 . S
C4419 H4389 0.950 . S
C4419 C4414 1.363 . S
C4419 C4418 1.415 . S
H4420 C4417 0.999 . S
H4421 C4402 0.913 . S
H4422 C4440 0.951 . S
H4423 C4442 0.951 . S
H4424 C4444 0.950 . S
H4425 C4445 0.950 . S
H4426 C4447 0.950 . S
H4427 C4450 0.950 . S
H4428 C4451 0.950 . S
H4429 C4453 0.950 . S
H4430 C4454 0.950 . S
H4431 C4455 0.951 . S
H4432 C4457 0.951 . S
H4433 C4459 0.950 . S
H4434 C4460 0.950 . S
H4435 C4462 0.950 . S
H4436 C4465 0.950 . S
H4437 C4466 0.950 . S
H4438 C4468 0.950 . S
H4439 C4469 0.950 . S
C4440 H4422 0.951 . S
C4440 C4441 1.366 . S
C4440 C4442 1.388 . S
C4441 C4440 1.366 . S
C4441 C4445 1.385 . S
C4442 H4423 0.951 . S
C4442 C4440 1.388 . S
C4442 C4443 1.366 . S
C4443 C4442 1.366 . S
C4443 C4444 1.414 . S
C4443 C4446 1.499 . S
C4444 H4424 0.950 . S
C4444 C4443 1.414 . S
C4444 C4445 1.374 . S
C4445 H4425 0.950 . S
C4445 C4441 1.385 . S
C4445 C4444 1.374 . S
C4446 C4443 1.499 . S
C4446 C4447 1.373 . S
C4446 C4448 1.389 . S
C4447 H4426 0.950 . S
C4447 C4446 1.373 . S
C4447 C4463 1.377 . S
C4448 C4446 1.389 . S
C4448 C4449 1.524 . S
C4448 C4462 1.377 . S
C4449 C4448 1.524 . S
C4449 C4450 1.397 . S
C4449 C4454 1.363 . S
C4450 H4427 0.950 . S
C4450 C4449 1.397 . S
C4450 C4451 1.334 . S
C4451 H4428 0.950 . S
C4451 C4450 1.334 . S
C4451 C4452 1.287 . S
C4452 C4451 1.287 . S
C4452 C4453 1.524 . S
C4452 H4471 0.913 . S
C4453 H4429 0.950 . S
C4453 C4452 1.524 . S
C4453 C4454 1.415 . S
C4454 H4430 0.950 . S
C4454 C4449 1.363 . S
C4454 C4453 1.415 . S
C4455 H4431 0.951 . S
C4455 C4456 1.366 . S
C4455 C4457 1.388 . S
C4456 C4455 1.366 . S
C4456 C4460 1.385 . S
C4457 H4432 0.951 . S
C4457 C4455 1.388 . S
C4457 C4458 1.366 . S
C4458 C4457 1.366 . S
C4458 C4459 1.414 . S
C4458 C4461 1.499 . S
C4459 H4433 0.950 . S
C4459 C4458 1.414 . S
C4459 C4460 1.374 . S
C4460 H4434 0.950 . S
C4460 C4456 1.385 . S
C4460 C4459 1.374 . S
C4461 C4458 1.499 . S
C4461 C4462 1.373 . S
C4461 C4463 1.389 . S
C4462 H4435 0.950 . S
C4462 C4448 1.377 . S
C4462 C4461 1.373 . S
C4463 C4447 1.377 . S
C4463 C4461 1.389 . S
C4463 C4464 1.524 . S
C4464 C4463 1.524 . S
C4464 C4465 1.397 . S
C4464 C4469 1.363 . S
C4465 H4436 0.950 . S
C4465 C4464 1.397 . S
C4465 C4466 1.334 . S
C4466 H4437 0.950 . S
C4466 C4465 1.334 . S
C4466 C4467 1.287 . S
C4467 C4466 1.287 . S
C4467 C4468 1.524 . S
C4467 H4470 0.999 . S
C4468 H4438 0.950 . S
C4468 C4467 1.524 . S
C4468 C4469 1.415 . S
C4469 H4439 0.950 . S
C4469 C4464 1.363 . S
C4469 C4468 1.415 . S
H4470 C4467 0.999 . S
H4471 C4452 0.913 . S
H4472 C4490 0.951 . S
H4473 C4492 0.951 . S
H4474 C4494 0.950 . S
H4475 C4495 0.950 . S
H4476 C4497 0.950 . S
H4477 C4500 0.950 . S
H4478 C4501 0.950 . S
H4479 C4503 0.950 . S
H4480 C4504 0.950 . S
H4481 C4505 0.951 . S
H4482 C4507 0.951 . S
H4483 C4509 0.950 . S
H4484 C4510 0.950 . S
H4485 C4512 0.950 . S
H4486 C4515 0.950 . S
H4487 C4516 0.950 . S
H4488 C4518 0.950 . S
H4489 C4519 0.950 1_545 S
C4490 H4472 0.951 . S
C4490 C4491 1.366 . S
C4490 C4492 1.388 . S
C4491 C4490 1.366 . S
C4491 C4495 1.385 . S
C4492 H4473 0.951 . S
C4492 C4490 1.388 . S
C4492 C4493 1.366 . S
C4493 C4492 1.366 . S
C4493 C4494 1.414 . S
C4493 C4496 1.499 . S
C4494 H4474 0.950 . S
C4494 C4493 1.414 . S
C4494 C4495 1.374 . S
C4495 H4475 0.950 . S
C4495 C4491 1.385 . S
C4495 C4494 1.374 . S
C4496 C4493 1.499 . S
C4496 C4497 1.373 . S
C4496 C4498 1.389 . S
C4497 H4476 0.950 . S
C4497 C4496 1.373 . S
C4497 C4513 1.377 1_556 S
C4498 C4496 1.389 . S
C4498 C4499 1.524 . S
C4498 C4512 1.377 1_556 S
C4499 C4498 1.524 . S
C4499 C4500 1.397 . S
C4499 C4504 1.363 . S
C4500 H4477 0.950 . S
C4500 C4499 1.397 . S
C4500 C4501 1.334 . S
C4501 H4478 0.950 . S
C4501 C4500 1.334 . S
C4501 C4502 1.287 . S
C4502 C4501 1.287 . S
C4502 C4503 1.524 . S
C4502 H4521 0.913 . S
C4503 H4479 0.950 . S
C4503 C4502 1.524 . S
C4503 C4504 1.415 . S
C4504 H4480 0.950 . S
C4504 C4499 1.363 . S
C4504 C4503 1.415 . S
C4505 H4481 0.951 . S
C4505 C4506 1.366 . S
C4505 C4507 1.388 . S
C4506 C4505 1.366 . S
C4506 C4510 1.385 . S
C4507 H4482 0.951 . S
C4507 C4505 1.388 . S
C4507 C4508 1.366 . S
C4508 C4507 1.366 . S
C4508 C4509 1.414 . S
C4508 C4511 1.499 . S
C4509 H4483 0.950 . S
C4509 C4508 1.414 . S
C4509 C4510 1.374 . S
C4510 H4484 0.950 . S
C4510 C4506 1.385 . S
C4510 C4509 1.374 . S
C4511 C4508 1.499 . S
C4511 C4512 1.373 . S
C4511 C4513 1.389 . S
C4512 H4485 0.950 . S
C4512 C4498 1.377 1_554 S
C4512 C4511 1.373 . S
C4513 C4497 1.377 1_554 S
C4513 C4511 1.389 . S
C4513 C4514 1.524 . S
C4514 C4513 1.524 . S
C4514 C4515 1.397 . S
C4514 C4519 1.363 . S
C4515 H4486 0.950 . S
C4515 C4514 1.397 . S
C4515 C4516 1.334 . S
C4516 H4487 0.950 . S
C4516 C4515 1.334 . S
C4516 C4517 1.287 . S
C4517 C4516 1.287 . S
C4517 C4518 1.524 1_565 S
C4517 H4520 0.996 . S
C4518 H4488 0.950 . S
C4518 C4517 1.524 1_545 S
C4518 C4519 1.415 1_545 S
C4519 H4489 0.950 1_565 S
C4519 C4514 1.363 . S
C4519 C4518 1.415 1_565 S
H4520 C4517 0.996 . S
H4521 C4502 0.913 . S
H4522 C4540 0.951 . S
H4523 C4542 0.951 . S
H4524 C4544 0.950 . S
H4525 C4545 0.950 . S
H4526 C4547 0.950 . S
H4527 C4550 0.950 . S
H4528 C4551 0.950 . S
H4529 C4553 0.962 . S
H4530 C4554 0.950 . S
H4531 C4555 0.951 . S
H4532 C4557 0.951 . S
H4533 C4559 0.950 . S
H4534 C4560 0.950 . S
H4535 C4562 0.950 . S
H4536 C4565 0.950 . S
H4537 C4566 0.950 . S
H4538 C4568 0.962 . S
H4539 C4569 0.950 . S
C4540 H4522 0.951 . S
C4540 C4541 1.366 . S
C4540 C4542 1.388 . S
C4541 C4540 1.366 . S
C4541 C4545 1.385 . S
C4542 H4523 0.951 . S
C4542 C4540 1.388 . S
C4542 C4543 1.366 . S
C4543 C4542 1.366 . S
C4543 C4544 1.414 . S
C4543 C4546 1.499 . S
C4544 H4524 0.950 . S
C4544 C4543 1.414 . S
C4544 C4545 1.374 . S
C4545 H4525 0.950 . S
C4545 C4541 1.385 . S
C4545 C4544 1.374 . S
C4546 C4543 1.499 . S
C4546 C4547 1.373 . S
C4546 C4548 1.389 . S
C4547 H4526 0.950 . S
C4547 C4546 1.373 . S
C4547 C4563 1.377 1_554 S
C4548 C4546 1.389 . S
C4548 C4549 1.524 . S
C4548 C4562 1.377 1_554 S
C4549 C4548 1.524 . S
C4549 C4550 1.397 . S
C4549 C4554 1.363 1_554 S
C4550 H4527 0.950 . S
C4550 C4549 1.397 . S
C4550 C4551 1.334 . S
C4551 H4528 0.950 . S
C4551 C4550 1.334 . S
C4551 C4552 1.287 . S
C4552 C4551 1.287 . S
C4552 C4553 1.510 1_554 S
C4552 H4571 0.913 . S
C4553 H4529 0.962 . S
C4553 C4552 1.510 1_556 S
C4553 C4554 1.417 . S
C4554 H4530 0.950 . S
C4554 C4549 1.363 1_556 S
C4554 C4553 1.417 . S
C4555 H4531 0.951 . S
C4555 C4556 1.366 . S
C4555 C4557 1.388 . S
C4556 C4555 1.366 . S
C4556 C4560 1.385 . S
C4557 H4532 0.951 . S
C4557 C4555 1.388 . S
C4557 C4558 1.366 . S
C4558 C4557 1.366 . S
C4558 C4559 1.414 . S
C4558 C4561 1.499 . S
C4559 H4533 0.950 . S
C4559 C4558 1.414 . S
C4559 C4560 1.374 . S
C4560 H4534 0.950 . S
C4560 C4556 1.385 . S
C4560 C4559 1.374 . S
C4561 C4558 1.499 . S
C4561 C4562 1.373 . S
C4561 C4563 1.389 . S
C4562 H4535 0.950 . S
C4562 C4548 1.377 1_556 S
C4562 C4561 1.373 . S
C4563 C4547 1.377 1_556 S
C4563 C4561 1.389 . S
C4563 C4564 1.524 . S
C4564 C4563 1.524 . S
C4564 C4565 1.397 . S
C4564 C4569 1.363 1_556 S
C4565 H4536 0.950 . S
C4565 C4564 1.397 . S
C4565 C4566 1.334 . S
C4566 H4537 0.950 . S
C4566 C4565 1.334 . S
C4566 C4567 1.287 . S
C4567 C4566 1.287 . S
C4567 C4568 1.509 1_556 S
C4567 H4570 0.999 . S
C4568 H4538 0.962 . S
C4568 C4567 1.509 1_554 S
C4568 C4569 1.417 . S
C4569 H4539 0.950 . S
C4569 C4564 1.363 1_554 S
C4569 C4568 1.417 . S
H4570 C4567 0.999 . S
H4571 C4552 0.913 . S
H4572 C4590 0.951 . S
H4573 C4592 0.951 . S
H4574 C4594 0.950 . S
H4575 C4595 0.950 . S
H4576 C4597 0.950 . S
H4577 C4600 0.950 . S
H4578 C4601 0.950 1_554 S
H4579 C4603 0.950 . S
H4580 C4604 0.950 . S
H4581 C4605 0.951 . S
H4582 C4607 0.951 . S
H4583 C4609 0.950 . S
H4584 C4610 0.950 . S
H4585 C4612 0.950 . S
H4586 C4615 0.950 . S
H4587 C4616 0.950 . S
H4588 C4618 0.950 . S
H4589 C4619 0.950 . S
C4590 H4572 0.951 . S
C4590 C4591 1.366 . S
C4590 C4592 1.388 . S
C4591 C4590 1.366 . S
C4591 C4595 1.385 . S
C4592 H4573 0.951 . S
C4592 C4590 1.388 . S
C4592 C4593 1.366 . S
C4593 C4592 1.366 . S
C4593 C4594 1.414 . S
C4593 C4596 1.499 . S
C4594 H4574 0.950 . S
C4594 C4593 1.414 . S
C4594 C4595 1.374 . S
C4595 H4575 0.950 . S
C4595 C4591 1.385 . S
C4595 C4594 1.374 . S
C4596 C4593 1.499 . S
C4596 C4597 1.373 . S
C4596 C4598 1.389 . S
C4597 H4576 0.950 . S
C4597 C4596 1.373 . S
C4597 C4613 1.377 . S
C4598 C4596 1.389 . S
C4598 C4599 1.524 . S
C4598 C4612 1.377 . S
C4599 C4598 1.524 . S
C4599 C4600 1.397 . S
C4599 C4604 1.363 1_554 S
C4600 H4577 0.950 . S
C4600 C4599 1.397 . S
C4600 C4601 1.334 1_554 S
C4601 H4578 0.950 1_556 S
C4601 C4600 1.334 1_556 S
C4601 C4602 1.287 . S
C4602 C4601 1.287 . S
C4602 C4603 1.524 . S
C4602 H4621 0.913 . S
C4603 H4579 0.950 . S
C4603 C4602 1.524 . S
C4603 C4604 1.415 . S
C4604 H4580 0.950 . S
C4604 C4599 1.363 1_556 S
C4604 C4603 1.415 . S
C4605 H4581 0.951 . S
C4605 C4606 1.366 . S
C4605 C4607 1.388 . S
C4606 C4605 1.366 . S
C4606 C4610 1.385 . S
C4607 H4582 0.951 . S
C4607 C4605 1.388 . S
C4607 C4608 1.366 . S
C4608 C4607 1.366 . S
C4608 C4609 1.414 . S
C4608 C4611 1.499 . S
C4609 H4583 0.950 . S
C4609 C4608 1.414 . S
C4609 C4610 1.374 . S
C4610 H4584 0.950 . S
C4610 C4606 1.385 . S
C4610 C4609 1.374 . S
C4611 C4608 1.499 . S
C4611 C4612 1.373 . S
C4611 C4613 1.389 . S
C4612 H4585 0.950 . S
C4612 C4598 1.377 . S
C4612 C4611 1.373 . S
C4613 C4597 1.377 . S
C4613 C4611 1.389 . S
C4613 C4614 1.524 . S
C4614 C4613 1.524 . S
C4614 C4615 1.397 . S
C4614 C4619 1.363 . S
C4615 H4586 0.950 . S
C4615 C4614 1.397 . S
C4615 C4616 1.334 . S
C4616 H4587 0.950 . S
C4616 C4615 1.334 . S
C4616 C4617 1.287 . S
C4617 C4616 1.287 . S
C4617 C4618 1.524 . S
C4617 H4620 0.999 . S
C4618 H4588 0.950 . S
C4618 C4617 1.524 . S
C4618 C4619 1.415 . S
C4619 H4589 0.950 . S
C4619 C4614 1.363 . S
C4619 C4618 1.415 . S
H4620 C4617 0.999 . S
H4621 C4602 0.913 . S
H4622 C4640 0.951 . S
H4623 C4642 0.951 . S
H4624 C4644 0.950 . S
H4625 C4645 0.950 . S
H4626 C4647 0.950 . S
H4627 C4650 0.950 . S
H4628 C4651 0.950 . S
H4629 C4653 0.950 . S
H4630 C4654 0.950 . S
H4631 C4655 0.951 . S
H4632 C4657 0.951 . S
H4633 C4659 0.950 . S
H4634 C4660 0.950 . S
H4635 C4662 0.950 . S
H4636 C4665 0.950 . S
H4637 C4666 0.950 . S
H4638 C4668 0.950 . S
H4639 C4669 0.950 . S
C4640 H4622 0.951 . S
C4640 C4641 1.366 . S
C4640 C4642 1.388 . S
C4641 C4640 1.366 . S
C4641 C4645 1.385 . S
C4642 H4623 0.951 . S
C4642 C4640 1.388 . S
C4642 C4643 1.366 . S
C4643 C4642 1.366 . S
C4643 C4644 1.414 . S
C4643 C4646 1.499 . S
C4644 H4624 0.950 . S
C4644 C4643 1.414 . S
C4644 C4645 1.374 . S
C4645 H4625 0.950 . S
C4645 C4641 1.385 . S
C4645 C4644 1.374 . S
C4646 C4643 1.499 . S
C4646 C4647 1.373 . S
C4646 C4648 1.389 . S
C4647 H4626 0.950 . S
C4647 C4646 1.373 . S
C4647 C4663 1.377 . S
C4648 C4646 1.389 . S
C4648 C4649 1.524 . S
C4648 C4662 1.377 . S
C4649 C4648 1.524 . S
C4649 C4650 1.397 . S
C4649 C4654 1.363 . S
C4650 H4627 0.950 . S
C4650 C4649 1.397 . S
C4650 C4651 1.334 . S
C4651 H4628 0.950 . S
C4651 C4650 1.334 . S
C4651 C4652 1.287 . S
C4652 C4651 1.287 . S
C4652 C4653 1.524 . S
C4652 H4671 0.913 . S
C4653 H4629 0.950 . S
C4653 C4652 1.524 . S
C4653 C4654 1.415 . S
C4654 H4630 0.950 . S
C4654 C4649 1.363 . S
C4654 C4653 1.415 . S
C4655 H4631 0.951 . S
C4655 C4656 1.366 . S
C4655 C4657 1.388 . S
C4656 C4655 1.366 . S
C4656 C4660 1.385 . S
C4657 H4632 0.951 . S
C4657 C4655 1.388 . S
C4657 C4658 1.366 . S
C4658 C4657 1.366 . S
C4658 C4659 1.414 . S
C4658 C4661 1.499 . S
C4659 H4633 0.950 . S
C4659 C4658 1.414 . S
C4659 C4660 1.374 . S
C4660 H4634 0.950 . S
C4660 C4656 1.385 . S
C4660 C4659 1.374 . S
C4661 C4658 1.499 . S
C4661 C4662 1.373 . S
C4661 C4663 1.389 . S
C4662 H4635 0.950 . S
C4662 C4648 1.377 . S
C4662 C4661 1.373 . S
C4663 C4647 1.377 . S
C4663 C4661 1.389 . S
C4663 C4664 1.524 . S
C4664 C4663 1.524 . S
C4664 C4665 1.397 . S
C4664 C4669 1.363 . S
C4665 H4636 0.950 . S
C4665 C4664 1.397 . S
C4665 C4666 1.334 . S
C4666 H4637 0.950 . S
C4666 C4665 1.334 . S
C4666 C4667 1.287 . S
C4667 C4666 1.287 . S
C4667 C4668 1.524 . S
C4667 H4670 0.999 . S
C4668 H4638 0.950 . S
C4668 C4667 1.524 . S
C4668 C4669 1.415 . S
C4669 H4639 0.950 . S
C4669 C4664 1.363 . S
C4669 C4668 1.415 . S
H4670 C4667 0.999 . S
H4671 C4652 0.913 . S
H4672 C4690 0.951 . S
H4673 C4692 0.951 . S
H4674 C4694 0.950 . S
H4675 C4695 0.950 . S
H4676 C4697 0.950 . S
H4677 C4700 0.950 . S
H4678 C4701 0.950 . S
H4679 C4703 0.950 . S
H4680 C4704 0.950 . S
H4681 C4705 0.951 . S
H4682 C4707 0.951 . S
H4683 C4709 0.950 . S
H4684 C4710 0.950 . S
H4685 C4712 0.950 . S
H4686 C4715 0.950 . S
H4687 C4716 0.950 . S
H4688 C4718 0.950 . S
H4689 C4719 0.950 . S
C4690 H4672 0.951 . S
C4690 C4691 1.366 . S
C4690 C4692 1.388 . S
C4691 C4690 1.366 . S
C4691 C4695 1.385 . S
C4692 H4673 0.951 . S
C4692 C4690 1.388 . S
C4692 C4693 1.366 . S
C4693 C4692 1.366 . S
C4693 C4694 1.414 . S
C4693 C4696 1.499 . S
C4694 H4674 0.950 . S
C4694 C4693 1.414 . S
C4694 C4695 1.374 . S
C4695 H4675 0.950 . S
C4695 C4691 1.385 . S
C4695 C4694 1.374 . S
C4696 C4693 1.499 . S
C4696 C4697 1.373 . S
C4696 C4698 1.389 . S
C4697 H4676 0.950 . S
C4697 C4696 1.373 . S
C4697 C4713 1.377 1_455 S
C4698 C4696 1.389 . S
C4698 C4699 1.524 . S
C4698 C4712 1.377 1_455 S
C4699 C4698 1.524 . S
C4699 C4700 1.397 . S
C4699 C4704 1.363 . S
C4700 H4677 0.950 . S
C4700 C4699 1.397 . S
C4700 C4701 1.334 . S
C4701 H4678 0.950 . S
C4701 C4700 1.334 . S
C4701 C4702 1.287 . S
C4702 C4701 1.287 . S
C4702 C4703 1.524 . S
C4702 H4721 0.913 . S
C4703 H4679 0.950 . S
C4703 C4702 1.524 . S
C4703 C4704 1.415 . S
C4704 H4680 0.950 . S
C4704 C4699 1.363 . S
C4704 C4703 1.415 . S
C4705 H4681 0.951 . S
C4705 C4706 1.366 . S
C4705 C4707 1.388 . S
C4706 C4705 1.366 . S
C4706 C4710 1.385 . S
C4707 H4682 0.951 . S
C4707 C4705 1.388 . S
C4707 C4708 1.366 . S
C4708 C4707 1.366 . S
C4708 C4709 1.414 . S
C4708 C4711 1.499 . S
C4709 H4683 0.950 . S
C4709 C4708 1.414 . S
C4709 C4710 1.374 . S
C4710 H4684 0.950 . S
C4710 C4706 1.385 . S
C4710 C4709 1.374 . S
C4711 C4708 1.499 . S
C4711 C4712 1.373 . S
C4711 C4713 1.389 . S
C4712 H4685 0.950 . S
C4712 C4698 1.377 1_655 S
C4712 C4711 1.373 . S
C4713 C4697 1.377 1_655 S
C4713 C4711 1.389 . S
C4713 C4714 1.524 . S
C4714 C4713 1.524 . S
C4714 C4715 1.397 . S
C4714 C4719 1.363 . S
C4715 H4686 0.950 . S
C4715 C4714 1.397 . S
C4715 C4716 1.334 . S
C4716 H4687 0.950 . S
C4716 C4715 1.334 . S
C4716 C4717 1.287 . S
C4717 C4716 1.287 . S
C4717 C4718 1.524 . S
C4717 H4720 0.999 . S
C4718 H4688 0.950 . S
C4718 C4717 1.524 . S
C4718 C4719 1.415 . S
C4719 H4689 0.950 . S
C4719 C4714 1.363 . S
C4719 C4718 1.415 . S
H4720 C4717 0.999 . S
H4721 C4702 0.913 . S
H4722 C4740 0.951 . S
H4723 C4742 0.951 . S
H4724 C4744 0.950 . S
H4725 C4745 0.950 . S
H4726 C4747 0.950 . S
H4727 C4750 0.950 . S
H4728 C4751 0.950 . S
H4729 C4753 0.950 . S
H4730 C4754 0.950 . S
H4731 C4755 0.951 . S
H4732 C4757 0.951 . S
H4733 C4759 0.950 . S
H4734 C4760 0.950 . S
H4735 C4762 0.950 . S
H4736 C4765 0.950 . S
H4737 C4766 0.950 . S
H4738 C4768 0.950 . S
H4739 C4769 0.950 . S
C4740 H4722 0.951 . S
C4740 C4741 1.366 . S
C4740 C4742 1.388 . S
C4741 C4740 1.366 . S
C4741 C4745 1.385 . S
C4742 H4723 0.951 . S
C4742 C4740 1.388 . S
C4742 C4743 1.366 . S
C4743 C4742 1.366 . S
C4743 C4744 1.414 . S
C4743 C4746 1.499 . S
C4744 H4724 0.950 . S
C4744 C4743 1.414 . S
C4744 C4745 1.374 . S
C4745 H4725 0.950 . S
C4745 C4741 1.385 . S
C4745 C4744 1.374 . S
C4746 C4743 1.499 . S
C4746 C4747 1.373 . S
C4746 C4748 1.389 . S
C4747 H4726 0.950 . S
C4747 C4746 1.373 . S
C4747 C4763 1.377 . S
C4748 C4746 1.389 . S
C4748 C4749 1.524 . S
C4748 C4762 1.377 . S
C4749 C4748 1.524 . S
C4749 C4750 1.397 . S
C4749 C4754 1.363 . S
C4750 H4727 0.950 . S
C4750 C4749 1.397 . S
C4750 C4751 1.334 . S
C4751 H4728 0.950 . S
C4751 C4750 1.334 . S
C4751 C4752 1.287 . S
C4752 C4751 1.287 . S
C4752 C4753 1.524 . S
C4752 H4771 0.913 . S
C4753 H4729 0.950 . S
C4753 C4752 1.524 . S
C4753 C4754 1.415 . S
C4754 H4730 0.950 . S
C4754 C4749 1.363 . S
C4754 C4753 1.415 . S
C4755 H4731 0.951 . S
C4755 C4756 1.366 . S
C4755 C4757 1.388 . S
C4756 C4755 1.366 . S
C4756 C4760 1.385 . S
C4757 H4732 0.951 . S
C4757 C4755 1.388 . S
C4757 C4758 1.366 . S
C4758 C4757 1.366 . S
C4758 C4759 1.414 . S
C4758 C4761 1.499 . S
C4759 H4733 0.950 . S
C4759 C4758 1.414 . S
C4759 C4760 1.374 . S
C4760 H4734 0.950 . S
C4760 C4756 1.385 . S
C4760 C4759 1.374 . S
C4761 C4758 1.499 . S
C4761 C4762 1.373 . S
C4761 C4763 1.389 . S
C4762 H4735 0.950 . S
C4762 C4748 1.377 . S
C4762 C4761 1.373 . S
C4763 C4747 1.377 . S
C4763 C4761 1.389 . S
C4763 C4764 1.524 . S
C4764 C4763 1.524 . S
C4764 C4765 1.397 . S
C4764 C4769 1.363 . S
C4765 H4736 0.950 . S
C4765 C4764 1.397 . S
C4765 C4766 1.334 . S
C4766 H4737 0.950 . S
C4766 C4765 1.334 . S
C4766 C4767 1.287 . S
C4767 C4766 1.287 . S
C4767 C4768 1.524 . S
C4767 H4770 0.999 . S
C4768 H4738 0.950 . S
C4768 C4767 1.524 . S
C4768 C4769 1.415 . S
C4769 H4739 0.950 . S
C4769 C4764 1.363 . S
C4769 C4768 1.415 . S
H4770 C4767 0.999 . S
H4771 C4752 0.913 . S
H4772 C4790 0.951 . S
H4773 C4792 0.951 . S
H4774 C4794 0.950 . S
H4775 C4795 0.950 . S
H4776 C4797 0.950 . S
H4777 C4800 0.950 . S
H4778 C4801 0.950 . S
H4779 C4803 0.950 . S
H4780 C4804 0.950 . S
H4781 C4805 0.951 . S
H4782 C4807 0.951 . S
H4783 C4809 0.950 . S
H4784 C4810 0.950 . S
H4785 C4812 0.950 . S
H4786 C4815 0.950 . S
H4787 C4816 0.944 1_455 S
H4788 C4818 0.950 . S
H4789 C4819 0.950 . S
C4790 H4772 0.951 . S
C4790 C4791 1.366 . S
C4790 C4792 1.388 . S
C4791 C4790 1.366 . S
C4791 C4795 1.385 . S
C4792 H4773 0.951 . S
C4792 C4790 1.388 . S
C4792 C4793 1.366 . S
C4793 C4792 1.366 . S
C4793 C4794 1.414 . S
C4793 C4796 1.499 . S
C4794 H4774 0.950 . S
C4794 C4793 1.414 . S
C4794 C4795 1.374 . S
C4795 H4775 0.950 . S
C4795 C4791 1.385 . S
C4795 C4794 1.374 . S
C4796 C4793 1.499 . S
C4796 C4797 1.373 . S
C4796 C4798 1.389 . S
C4797 H4776 0.950 . S
C4797 C4796 1.373 . S
C4797 C4813 1.377 1_545 S
C4798 C4796 1.389 . S
C4798 C4799 1.524 . S
C4798 C4812 1.377 1_545 S
C4799 C4798 1.524 . S
C4799 C4800 1.397 . S
C4799 C4804 1.363 . S
C4800 H4777 0.950 . S
C4800 C4799 1.397 . S
C4800 C4801 1.334 . S
C4801 H4778 0.950 . S
C4801 C4800 1.334 . S
C4801 C4802 1.287 . S
C4802 C4801 1.287 . S
C4802 C4803 1.524 . S
C4802 H4821 0.913 . S
C4803 H4779 0.950 . S
C4803 C4802 1.524 . S
C4803 C4804 1.415 . S
C4804 H4780 0.950 . S
C4804 C4799 1.363 . S
C4804 C4803 1.415 . S
C4805 H4781 0.951 . S
C4805 C4806 1.366 . S
C4805 C4807 1.388 . S
C4806 C4805 1.366 . S
C4806 C4810 1.385 . S
C4807 H4782 0.951 . S
C4807 C4805 1.388 . S
C4807 C4808 1.366 . S
C4808 C4807 1.366 . S
C4808 C4809 1.414 . S
C4808 C4811 1.499 . S
C4809 H4783 0.950 . S
C4809 C4808 1.414 . S
C4809 C4810 1.374 . S
C4810 H4784 0.950 . S
C4810 C4806 1.385 . S
C4810 C4809 1.374 . S
C4811 C4808 1.499 . S
C4811 C4812 1.373 . S
C4811 C4813 1.389 . S
C4812 H4785 0.950 . S
C4812 C4798 1.377 1_565 S
C4812 C4811 1.373 . S
C4813 C4797 1.377 1_565 S
C4813 C4811 1.389 . S
C4813 C4814 1.524 . S
C4814 C4813 1.524 . S
C4814 C4815 1.397 . S
C4814 C4819 1.363 1_455 S
C4815 H4786 0.950 . S
C4815 C4814 1.397 . S
C4815 C4816 1.334 1_455 S
C4816 H4787 0.944 1_655 S
C4816 C4815 1.334 1_655 S
C4816 C4817 1.287 . S
C4817 C4816 1.287 . S
C4817 C4818 1.524 . S
C4817 H4820 0.999 . S
C4818 H4788 0.950 . S
C4818 C4817 1.524 . S
C4818 C4819 1.415 . S
C4819 H4789 0.950 . S
C4819 C4814 1.363 1_655 S
C4819 C4818 1.415 . S
H4820 C4817 0.999 . S
H4821 C4802 0.913 . S
H4822 C4840 0.951 . S
H4823 C4842 0.951 . S
H4824 C4844 0.950 . S
H4825 C4845 0.950 . S
H4826 C4847 0.950 . S
H4827 C4850 0.950 . S
H4828 C4851 0.950 . S
H4829 C4853 0.950 . S
H4830 C4854 0.950 . S
H4831 C4855 0.951 . S
H4832 C4857 0.951 . S
H4833 C4859 0.950 . S
H4834 C4860 0.950 . S
H4835 C4862 0.950 . S
H4836 C4865 0.950 . S
H4837 C4866 0.950 . S
H4838 C4868 0.950 . S
H4839 C4869 0.950 . S
C4840 H4822 0.951 . S
C4840 C4841 1.366 . S
C4840 C4842 1.388 . S
C4841 C4840 1.366 . S
C4841 C4845 1.385 . S
C4842 H4823 0.951 . S
C4842 C4840 1.388 . S
C4842 C4843 1.366 . S
C4843 C4842 1.366 . S
C4843 C4844 1.414 . S
C4843 C4846 1.499 . S
C4844 H4824 0.950 . S
C4844 C4843 1.414 . S
C4844 C4845 1.374 . S
C4845 H4825 0.950 . S
C4845 C4841 1.385 . S
C4845 C4844 1.374 . S
C4846 C4843 1.499 . S
C4846 C4847 1.373 . S
C4846 C4848 1.389 . S
C4847 H4826 0.950 . S
C4847 C4846 1.373 . S
C4847 C4863 1.377 . S
C4848 C4846 1.389 . S
C4848 C4849 1.524 . S
C4848 C4862 1.377 . S
C4849 C4848 1.524 . S
C4849 C4850 1.397 . S
C4849 C4854 1.363 1_565 S
C4850 H4827 0.950 . S
C4850 C4849 1.397 . S
C4850 C4851 1.334 . S
C4851 H4828 0.950 . S
C4851 C4850 1.334 . S
C4851 C4852 1.246 1_565 S
C4852 C4851 1.246 1_545 S
C4852 C4853 1.548 . S
C4852 H4871 0.935 . S
C4853 H4829 0.950 . S
C4853 C4852 1.548 . S
C4853 C4854 1.415 . S
C4854 H4830 0.950 . S
C4854 C4849 1.363 1_545 S
C4854 C4853 1.415 . S
C4855 H4831 0.951 . S
C4855 C4856 1.366 . S
C4855 C4857 1.388 . S
C4856 C4855 1.366 . S
C4856 C4860 1.385 . S
C4857 H4832 0.951 . S
C4857 C4855 1.388 . S
C4857 C4858 1.366 . S
C4858 C4857 1.366 . S
C4858 C4859 1.414 . S
C4858 C4861 1.499 . S
C4859 H4833 0.950 . S
C4859 C4858 1.414 . S
C4859 C4860 1.374 . S
C4860 H4834 0.950 . S
C4860 C4856 1.385 . S
C4860 C4859 1.374 . S
C4861 C4858 1.499 . S
C4861 C4862 1.373 . S
C4861 C4863 1.389 . S
C4862 H4835 0.950 . S
C4862 C4848 1.377 . S
C4862 C4861 1.373 . S
C4863 C4847 1.377 . S
C4863 C4861 1.389 . S
C4863 C4864 1.524 . S
C4864 C4863 1.524 . S
C4864 C4865 1.397 . S
C4864 C4869 1.363 . S
C4865 H4836 0.950 . S
C4865 C4864 1.397 . S
C4865 C4866 1.334 . S
C4866 H4837 0.950 . S
C4866 C4865 1.334 . S
C4866 C4867 1.287 . S
C4867 C4866 1.287 . S
C4867 C4868 1.524 . S
C4867 H4870 0.999 . S
C4868 H4838 0.950 . S
C4868 C4867 1.524 . S
C4868 C4869 1.415 . S
C4869 H4839 0.950 . S
C4869 C4864 1.363 . S
C4869 C4868 1.415 . S
H4870 C4867 0.999 . S
H4871 C4852 0.935 . S
H4872 C4890 0.951 . S
H4873 C4892 0.951 . S
H4874 C4894 0.950 . S
H4875 C4895 0.950 . S
H4876 C4897 0.950 . S
H4877 C4900 0.950 . S
H4878 C4901 0.950 . S
H4879 C4903 0.950 . S
H4880 C4904 0.950 . S
H4881 C4905 0.951 . S
H4882 C4907 0.951 . S
H4883 C4909 0.950 . S
H4884 C4910 0.950 . S
H4885 C4912 0.950 . S
H4886 C4915 0.950 . S
H4887 C4916 0.950 . S
H4888 C4918 0.950 . S
H4889 C4919 0.950 . S
C4890 H4872 0.951 . S
C4890 C4891 1.366 . S
C4890 C4892 1.388 . S
C4891 C4890 1.366 . S
C4891 C4895 1.385 . S
C4892 H4873 0.951 . S
C4892 C4890 1.388 . S
C4892 C4893 1.366 . S
C4893 C4892 1.366 . S
C4893 C4894 1.414 . S
C4893 C4896 1.499 . S
C4894 H4874 0.950 . S
C4894 C4893 1.414 . S
C4894 C4895 1.374 . S
C4895 H4875 0.950 . S
C4895 C4891 1.385 . S
C4895 C4894 1.374 . S
C4896 C4893 1.499 . S
C4896 C4897 1.373 . S
C4896 C4898 1.389 . S
C4897 H4876 0.950 . S
C4897 C4896 1.373 . S
C4897 C4913 1.377 . S
C4898 C4896 1.389 . S
C4898 C4899 1.524 . S
C4898 C4912 1.377 . S
C4899 C4898 1.524 . S
C4899 C4900 1.397 . S
C4899 C4904 1.363 . S
C4900 H4877 0.950 . S
C4900 C4899 1.397 . S
C4900 C4901 1.334 . S
C4901 H4878 0.950 . S
C4901 C4900 1.334 . S
C4901 C4902 1.287 . S
C4902 C4901 1.287 . S
C4902 C4903 1.524 . S
C4902 H4921 0.913 . S
C4903 H4879 0.950 . S
C4903 C4902 1.524 . S
C4903 C4904 1.415 . S
C4904 H4880 0.950 . S
C4904 C4899 1.363 . S
C4904 C4903 1.415 . S
C4905 H4881 0.951 . S
C4905 C4906 1.366 . S
C4905 C4907 1.388 . S
C4906 C4905 1.366 . S
C4906 C4910 1.385 . S
C4907 H4882 0.951 . S
C4907 C4905 1.388 . S
C4907 C4908 1.366 . S
C4908 C4907 1.366 . S
C4908 C4909 1.414 . S
C4908 C4911 1.499 . S
C4909 H4883 0.950 . S
C4909 C4908 1.414 . S
C4909 C4910 1.374 . S
C4910 H4884 0.950 . S
C4910 C4906 1.385 . S
C4910 C4909 1.374 . S
C4911 C4908 1.499 . S
C4911 C4912 1.373 . S
C4911 C4913 1.389 . S
C4912 H4885 0.950 . S
C4912 C4898 1.377 . S
C4912 C4911 1.373 . S
C4913 C4897 1.377 . S
C4913 C4911 1.389 . S
C4913 C4914 1.524 . S
C4914 C4913 1.524 . S
C4914 C4915 1.397 . S
C4914 C4919 1.363 . S
C4915 H4886 0.950 . S
C4915 C4914 1.397 . S
C4915 C4916 1.334 . S
C4916 H4887 0.950 . S
C4916 C4915 1.334 . S
C4916 C4917 1.287 . S
C4917 C4916 1.287 . S
C4917 C4918 1.524 . S
C4917 H4920 0.999 . S
C4918 H4888 0.950 . S
C4918 C4917 1.524 . S
C4918 C4919 1.415 . S
C4919 H4889 0.950 . S
C4919 C4914 1.363 . S
C4919 C4918 1.415 . S
H4920 C4917 0.999 . S
H4921 C4902 0.913 . S
H4922 C4940 0.951 . S
H4923 C4942 0.951 . S
H4924 C4944 0.950 . S
H4925 C4945 0.950 . S
H4926 C4947 0.950 . S
H4927 C4950 0.950 . S
H4928 C4951 0.950 . S
H4929 C4953 0.960 . S
H4930 C4954 0.950 1_554 S
H4931 C4955 0.951 . S
H4932 C4957 0.951 . S
H4933 C4959 0.950 . S
H4934 C4960 0.950 . S
H4935 C4962 0.950 . S
H4936 C4965 0.950 . S
H4937 C4966 0.950 . S
H4938 C4968 0.959 . S
H4939 C4969 0.950 1_556 S
C4940 H4922 0.951 . S
C4940 C4941 1.366 . S
C4940 C4942 1.388 . S
C4941 C4940 1.366 . S
C4941 C4945 1.385 . S
C4942 H4923 0.951 . S
C4942 C4940 1.388 . S
C4942 C4943 1.366 . S
C4943 C4942 1.366 . S
C4943 C4944 1.414 . S
C4943 C4946 1.499 . S
C4944 H4924 0.950 . S
C4944 C4943 1.414 . S
C4944 C4945 1.374 . S
C4945 H4925 0.950 . S
C4945 C4941 1.385 . S
C4945 C4944 1.374 . S
C4946 C4943 1.499 . S
C4946 C4947 1.373 . S
C4946 C4948 1.389 . S
C4947 H4926 0.950 . S
C4947 C4946 1.373 . S
C4947 C4963 1.377 1_556 S
C4948 C4946 1.389 . S
C4948 C4949 1.524 . S
C4948 C4962 1.377 1_556 S
C4949 C4948 1.524 . S
C4949 C4950 1.397 . S
C4949 C4954 1.363 . S
C4950 H4927 0.950 . S
C4950 C4949 1.397 . S
C4950 C4951 1.334 . S
C4951 H4928 0.950 . S
C4951 C4950 1.334 . S
C4951 C4952 1.287 . S
C4952 C4951 1.287 . S
C4952 C4953 1.524 . S
C4952 H4971 0.913 . S
C4953 H4929 0.960 . S
C4953 C4952 1.524 . S
C4953 C4954 1.415 . S
C4954 H4930 0.950 1_556 S
C4954 C4949 1.363 . S
C4954 C4953 1.415 . S
C4955 H4931 0.951 . S
C4955 C4956 1.366 . S
C4955 C4957 1.388 . S
C4956 C4955 1.366 . S
C4956 C4960 1.385 . S
C4957 H4932 0.951 . S
C4957 C4955 1.388 . S
C4957 C4958 1.366 . S
C4958 C4957 1.366 . S
C4958 C4959 1.414 . S
C4958 C4961 1.499 . S
C4959 H4933 0.950 . S
C4959 C4958 1.414 . S
C4959 C4960 1.374 . S
C4960 H4934 0.950 . S
C4960 C4956 1.385 . S
C4960 C4959 1.374 . S
C4961 C4958 1.499 . S
C4961 C4962 1.373 . S
C4961 C4963 1.389 . S
C4962 H4935 0.950 . S
C4962 C4948 1.377 1_554 S
C4962 C4961 1.373 . S
C4963 C4947 1.377 1_554 S
C4963 C4961 1.389 . S
C4963 C4964 1.524 . S
C4964 C4963 1.524 . S
C4964 C4965 1.397 . S
C4964 C4969 1.363 1_545 S
C4965 H4936 0.950 . S
C4965 C4964 1.397 . S
C4965 C4966 1.334 . S
C4966 H4937 0.950 . S
C4966 C4965 1.334 . S
C4966 C4967 1.324 . S
C4967 C4966 1.324 . S
C4967 C4968 1.502 1_545 S
C4967 H4970 0.979 1_545 S
C4968 H4938 0.959 . S
C4968 C4967 1.502 1_565 S
C4968 C4969 1.415 . S
C4969 H4939 0.950 1_554 S
C4969 C4964 1.363 1_565 S
C4969 C4968 1.415 . S
H4970 C4967 0.979 1_565 S
H4971 C4952 0.913 . S
H4972 C4990 0.951 . S
H4973 C4992 0.951 . S
H4974 C4994 0.950 . S
H4975 C4995 0.950 . S
H4976 C4997 0.950 . S
H4977 C5000 0.950 . S
H4978 C5001 0.950 . S
H4979 C5003 0.950 . S
H4980 C5004 0.950 . S
H4981 C5005 0.951 . S
H4982 C5007 0.951 . S
H4983 C5009 0.950 . S
H4984 C5010 0.950 . S
H4985 C5012 0.950 . S
H4986 C5015 0.950 . S
H4987 C5016 0.950 . S
H4988 C5018 0.950 . S
H4989 C5019 0.950 . S
C4990 H4972 0.951 . S
C4990 C4991 1.366 . S
C4990 C4992 1.388 . S
C4991 C4990 1.366 . S
C4991 C4995 1.385 . S
C4992 H4973 0.951 . S
C4992 C4990 1.388 . S
C4992 C4993 1.366 . S
C4993 C4992 1.366 . S
C4993 C4994 1.414 . S
C4993 C4996 1.499 . S
C4994 H4974 0.950 . S
C4994 C4993 1.414 . S
C4994 C4995 1.374 . S
C4995 H4975 0.950 . S
C4995 C4991 1.385 . S
C4995 C4994 1.374 . S
C4996 C4993 1.499 . S
C4996 C4997 1.373 . S
C4996 C4998 1.389 . S
C4997 H4976 0.950 . S
C4997 C4996 1.373 . S
C4997 C5013 1.377 1_556 S
C4998 C4996 1.389 . S
C4998 C4999 1.524 . S
C4998 C5012 1.377 1_556 S
C4999 C4998 1.524 . S
C4999 C5000 1.397 . S
C4999 C5004 1.363 1_556 S
C5000 H4977 0.950 . S
C5000 C4999 1.397 . S
C5000 C5001 1.334 . S
C5001 H4978 0.950 . S
C5001 C5000 1.334 . S
C5001 C5002 1.287 . S
C5002 C5001 1.287 . S
C5002 C5003 1.524 1_556 S
C5002 H5021 0.913 . S
C5003 H4979 0.950 . S
C5003 C5002 1.524 1_554 S
C5003 C5004 1.415 . S
C5004 H4980 0.950 . S
C5004 C4999 1.363 1_554 S
C5004 C5003 1.415 . S
C5005 H4981 0.951 . S
C5005 C5006 1.366 . S
C5005 C5007 1.388 . S
C5006 C5005 1.366 . S
C5006 C5010 1.385 . S
C5007 H4982 0.951 . S
C5007 C5005 1.388 . S
C5007 C5008 1.366 . S
C5008 C5007 1.366 . S
C5008 C5009 1.414 . S
C5008 C5011 1.499 . S
C5009 H4983 0.950 . S
C5009 C5008 1.414 . S
C5009 C5010 1.374 . S
C5010 H4984 0.950 . S
C5010 C5006 1.385 . S
C5010 C5009 1.374 . S
C5011 C5008 1.499 . S
C5011 C5012 1.373 . S
C5011 C5013 1.389 . S
C5012 H4985 0.950 . S
C5012 C4998 1.377 1_554 S
C5012 C5011 1.373 . S
C5013 C4997 1.377 1_554 S
C5013 C5011 1.389 . S
C5013 C5014 1.524 . S
C5014 C5013 1.524 . S
C5014 C5015 1.397 . S
C5014 C5019 1.363 1_554 S
C5015 H4986 0.950 . S
C5015 C5014 1.397 . S
C5015 C5016 1.334 . S
C5016 H4987 0.950 . S
C5016 C5015 1.334 . S
C5016 C5017 1.287 . S
C5017 C5016 1.287 . S
C5017 C5018 1.524 1_554 S
C5017 H5020 0.999 . S
C5018 H4988 0.950 . S
C5018 C5017 1.524 1_556 S
C5018 C5019 1.415 . S
C5019 H4989 0.950 . S
C5019 C5014 1.363 1_556 S
C5019 C5018 1.415 . S
H5020 C5017 0.999 . S
H5021 C5002 0.913 . S
H5022 C5040 0.951 . S
H5023 C5042 0.951 . S
H5024 C5044 0.950 . S
H5025 C5045 0.950 . S
H5026 C5047 0.950 . S
H5027 C5050 0.950 . S
H5028 C5051 0.950 1_554 S
H5029 C5053 0.950 . S
H5030 C5054 0.950 . S
H5031 C5055 0.951 . S
H5032 C5057 0.951 . S
H5033 C5059 0.950 . S
H5034 C5060 0.950 . S
H5035 C5062 0.950 . S
H5036 C5065 0.950 . S
H5037 C5066 0.950 . S
H5038 C5068 0.950 . S
H5039 C5069 0.950 . S
C5040 H5022 0.951 . S
C5040 C5041 1.366 . S
C5040 C5042 1.388 . S
C5041 C5040 1.366 . S
C5041 C5045 1.385 . S
C5042 H5023 0.951 . S
C5042 C5040 1.388 . S
C5042 C5043 1.366 . S
C5043 C5042 1.366 . S
C5043 C5044 1.414 . S
C5043 C5046 1.499 . S
C5044 H5024 0.950 . S
C5044 C5043 1.414 . S
C5044 C5045 1.374 . S
C5045 H5025 0.950 . S
C5045 C5041 1.385 . S
C5045 C5044 1.374 . S
C5046 C5043 1.499 . S
C5046 C5047 1.373 . S
C5046 C5048 1.389 . S
C5047 H5026 0.950 . S
C5047 C5046 1.373 . S
C5047 C5063 1.377 . S
C5048 C5046 1.389 . S
C5048 C5049 1.524 . S
C5048 C5062 1.377 . S
C5049 C5048 1.524 . S
C5049 C5050 1.397 . S
C5049 C5054 1.363 . S
C5050 H5027 0.950 . S
C5050 C5049 1.397 . S
C5050 C5051 1.334 . S
C5051 H5028 0.950 1_556 S
C5051 C5050 1.334 . S
C5051 C5052 1.287 . S
C5052 C5051 1.287 . S
C5052 C5053 1.524 . S
C5052 H5071 0.913 . S
C5053 H5029 0.950 . S
C5053 C5052 1.524 . S
C5053 C5054 1.415 . S
C5054 H5030 0.950 . S
C5054 C5049 1.363 . S
C5054 C5053 1.415 . S
C5055 H5031 0.951 . S
C5055 C5056 1.366 . S
C5055 C5057 1.388 . S
C5056 C5055 1.366 . S
C5056 C5060 1.385 . S
C5057 H5032 0.951 . S
C5057 C5055 1.388 . S
C5057 C5058 1.366 . S
C5058 C5057 1.366 . S
C5058 C5059 1.414 . S
C5058 C5061 1.499 . S
C5059 H5033 0.950 . S
C5059 C5058 1.414 . S
C5059 C5060 1.374 . S
C5060 H5034 0.950 . S
C5060 C5056 1.385 . S
C5060 C5059 1.374 . S
C5061 C5058 1.499 . S
C5061 C5062 1.373 . S
C5061 C5063 1.389 . S
C5062 H5035 0.950 . S
C5062 C5048 1.377 . S
C5062 C5061 1.373 . S
C5063 C5047 1.377 . S
C5063 C5061 1.389 . S
C5063 C5064 1.524 . S
C5064 C5063 1.524 . S
C5064 C5065 1.397 . S
C5064 C5069 1.363 . S
C5065 H5036 0.950 . S
C5065 C5064 1.397 . S
C5065 C5066 1.334 . S
C5066 H5037 0.950 . S
C5066 C5065 1.334 . S
C5066 C5067 1.287 . S
C5067 C5066 1.287 . S
C5067 C5068 1.524 . S
C5067 H5070 0.999 . S
C5068 H5038 0.950 . S
C5068 C5067 1.524 . S
C5068 C5069 1.415 . S
C5069 H5039 0.950 . S
C5069 C5064 1.363 . S
C5069 C5068 1.415 . S
H5070 C5067 0.999 . S
H5071 C5052 0.913 . S
H5072 C5090 0.951 . S
H5073 C5092 0.951 . S
H5074 C5094 0.950 . S
H5075 C5095 0.950 . S
H5076 C5097 0.950 . S
H5077 C5100 0.950 . S
H5078 C5101 0.950 . S
H5079 C5103 0.950 . S
H5080 C5104 0.950 . S
H5081 C5105 0.951 . S
H5082 C5107 0.951 . S
H5083 C5109 0.950 . S
H5084 C5110 0.950 . S
H5085 C5112 0.950 . S
H5086 C5115 0.950 . S
H5087 C5116 0.950 . S
H5088 C5118 0.950 . S
H5089 C5119 0.950 . S
C5090 H5072 0.951 . S
C5090 C5091 1.366 . S
C5090 C5092 1.388 . S
C5091 C5090 1.366 . S
C5091 C5095 1.385 . S
C5092 H5073 0.951 . S
C5092 C5090 1.388 . S
C5092 C5093 1.366 . S
C5093 C5092 1.366 . S
C5093 C5094 1.414 . S
C5093 C5096 1.499 . S
C5094 H5074 0.950 . S
C5094 C5093 1.414 . S
C5094 C5095 1.374 . S
C5095 H5075 0.950 . S
C5095 C5091 1.385 . S
C5095 C5094 1.374 . S
C5096 C5093 1.499 . S
C5096 C5097 1.373 . S
C5096 C5098 1.389 . S
C5097 H5076 0.950 . S
C5097 C5096 1.373 . S
C5097 C5113 1.377 . S
C5098 C5096 1.389 . S
C5098 C5099 1.524 . S
C5098 C5112 1.377 . S
C5099 C5098 1.524 . S
C5099 C5100 1.397 . S
C5099 C5104 1.363 . S
C5100 H5077 0.950 . S
C5100 C5099 1.397 . S
C5100 C5101 1.334 . S
C5101 H5078 0.950 . S
C5101 C5100 1.334 . S
C5101 C5102 1.287 . S
C5102 C5101 1.287 . S
C5102 C5103 1.524 . S
C5102 H5121 0.913 . S
C5103 H5079 0.950 . S
C5103 C5102 1.524 . S
C5103 C5104 1.415 . S
C5104 H5080 0.950 . S
C5104 C5099 1.363 . S
C5104 C5103 1.415 . S
C5105 H5081 0.951 . S
C5105 C5106 1.366 . S
C5105 C5107 1.388 . S
C5106 C5105 1.366 . S
C5106 C5110 1.385 . S
C5107 H5082 0.951 . S
C5107 C5105 1.388 . S
C5107 C5108 1.366 . S
C5108 C5107 1.366 . S
C5108 C5109 1.414 . S
C5108 C5111 1.499 . S
C5109 H5083 0.950 . S
C5109 C5108 1.414 . S
C5109 C5110 1.374 . S
C5110 H5084 0.950 . S
C5110 C5106 1.385 . S
C5110 C5109 1.374 . S
C5111 C5108 1.499 . S
C5111 C5112 1.373 . S
C5111 C5113 1.389 . S
C5112 H5085 0.950 . S
C5112 C5098 1.377 . S
C5112 C5111 1.373 . S
C5113 C5097 1.377 . S
C5113 C5111 1.389 . S
C5113 C5114 1.524 . S
C5114 C5113 1.524 . S
C5114 C5115 1.397 . S
C5114 C5119 1.363 . S
C5115 H5086 0.950 . S
C5115 C5114 1.397 . S
C5115 C5116 1.334 . S
C5116 H5087 0.950 . S
C5116 C5115 1.334 . S
C5116 C5117 1.287 . S
C5117 C5116 1.287 . S
C5117 C5118 1.524 . S
C5117 H5120 0.999 . S
C5118 H5088 0.950 . S
C5118 C5117 1.524 . S
C5118 C5119 1.415 . S
C5119 H5089 0.950 . S
C5119 C5114 1.363 . S
C5119 C5118 1.415 . S
H5120 C5117 0.999 . S
H5121 C5102 0.913 . S
H5122 C5140 0.951 . S
H5123 C5142 0.951 . S
H5124 C5144 0.950 . S
H5125 C5145 0.950 . S
H5126 C5147 0.950 . S
H5127 C5150 0.950 . S
H5128 C5151 0.950 . S
H5129 C5153 0.950 . S
H5130 C5154 0.950 . S
H5131 C5155 0.951 . S
H5132 C5157 0.951 . S
H5133 C5159 0.950 . S
H5134 C5160 0.950 . S
H5135 C5162 0.950 . S
H5136 C5165 0.950 . S
H5137 C5166 0.950 . S
H5138 C5168 0.950 . S
H5139 C5169 0.950 . S
C5140 H5122 0.951 . S
C5140 C5141 1.366 . S
C5140 C5142 1.388 . S
C5141 C5140 1.366 . S
C5141 C5145 1.385 . S
C5142 H5123 0.951 . S
C5142 C5140 1.388 . S
C5142 C5143 1.366 . S
C5143 C5142 1.366 . S
C5143 C5144 1.414 . S
C5143 C5146 1.499 . S
C5144 H5124 0.950 . S
C5144 C5143 1.414 . S
C5144 C5145 1.374 . S
C5145 H5125 0.950 . S
C5145 C5141 1.385 . S
C5145 C5144 1.374 . S
C5146 C5143 1.499 . S
C5146 C5147 1.373 . S
C5146 C5148 1.389 . S
C5147 H5126 0.950 . S
C5147 C5146 1.373 . S
C5147 C5163 1.377 1_655 S
C5148 C5146 1.389 . S
C5148 C5149 1.524 . S
C5148 C5162 1.377 1_655 S
C5149 C5148 1.524 . S
C5149 C5150 1.397 . S
C5149 C5154 1.363 . S
C5150 H5127 0.950 . S
C5150 C5149 1.397 . S
C5150 C5151 1.334 . S
C5151 H5128 0.950 . S
C5151 C5150 1.334 . S
C5151 C5152 1.287 . S
C5152 C5151 1.287 . S
C5152 C5153 1.524 . S
C5152 H5171 0.913 . S
C5153 H5129 0.950 . S
C5153 C5152 1.524 . S
C5153 C5154 1.415 . S
C5154 H5130 0.950 . S
C5154 C5149 1.363 . S
C5154 C5153 1.415 . S
C5155 H5131 0.951 . S
C5155 C5156 1.366 . S
C5155 C5157 1.388 . S
C5156 C5155 1.366 . S
C5156 C5160 1.385 . S
C5157 H5132 0.951 . S
C5157 C5155 1.388 . S
C5157 C5158 1.366 . S
C5158 C5157 1.366 . S
C5158 C5159 1.414 . S
C5158 C5161 1.499 . S
C5159 H5133 0.950 . S
C5159 C5158 1.414 . S
C5159 C5160 1.374 . S
C5160 H5134 0.950 . S
C5160 C5156 1.385 . S
C5160 C5159 1.374 . S
C5161 C5158 1.499 . S
C5161 C5162 1.373 . S
C5161 C5163 1.389 . S
C5162 H5135 0.950 . S
C5162 C5148 1.377 1_455 S
C5162 C5161 1.373 . S
C5163 C5147 1.377 1_455 S
C5163 C5161 1.389 . S
C5163 C5164 1.524 . S
C5164 C5163 1.524 . S
C5164 C5165 1.397 . S
C5164 C5169 1.363 . S
C5165 H5136 0.950 . S
C5165 C5164 1.397 . S
C5165 C5166 1.334 . S
C5166 H5137 0.950 . S
C5166 C5165 1.334 . S
C5166 C5167 1.287 . S
C5167 C5166 1.287 . S
C5167 C5168 1.524 . S
C5167 H5170 0.999 . S
C5168 H5138 0.950 . S
C5168 C5167 1.524 . S
C5168 C5169 1.415 . S
C5169 H5139 0.950 . S
C5169 C5164 1.363 . S
C5169 C5168 1.415 . S
H5170 C5167 0.999 . S
H5171 C5152 0.913 . S
H5172 C5190 0.951 . S
H5173 C5192 0.951 . S
H5174 C5194 0.950 . S
H5175 C5195 0.950 . S
H5176 C5197 0.950 . S
H5177 C5200 0.950 . S
H5178 C5201 0.950 . S
H5179 C5203 0.950 . S
H5180 C5204 0.950 . S
H5181 C5205 0.951 . S
H5182 C5207 0.951 . S
H5183 C5209 0.950 . S
H5184 C5210 0.950 . S
H5185 C5212 0.950 . S
H5186 C5215 0.950 . S
H5187 C5216 0.950 . S
H5188 C5218 0.950 . S
H5189 C5219 0.950 . S
C5190 H5172 0.951 . S
C5190 C5191 1.366 . S
C5190 C5192 1.388 . S
C5191 C5190 1.366 . S
C5191 C5195 1.385 . S
C5192 H5173 0.951 . S
C5192 C5190 1.388 . S
C5192 C5193 1.366 . S
C5193 C5192 1.366 . S
C5193 C5194 1.414 . S
C5193 C5196 1.499 . S
C5194 H5174 0.950 . S
C5194 C5193 1.414 . S
C5194 C5195 1.374 . S
C5195 H5175 0.950 . S
C5195 C5191 1.385 . S
C5195 C5194 1.374 . S
C5196 C5193 1.499 . S
C5196 C5197 1.373 . S
C5196 C5198 1.389 . S
C5197 H5176 0.950 . S
C5197 C5196 1.373 . S
C5197 C5213 1.377 1_545 S
C5198 C5196 1.389 . S
C5198 C5199 1.524 . S
C5198 C5212 1.377 1_545 S
C5199 C5198 1.524 . S
C5199 C5200 1.397 . S
C5199 C5204 1.363 1_545 S
C5200 H5177 0.950 . S
C5200 C5199 1.397 . S
C5200 C5201 1.334 . S
C5201 H5178 0.950 . S
C5201 C5200 1.334 . S
C5201 C5202 1.287 . S
C5202 C5201 1.287 . S
C5202 C5203 1.524 1_545 S
C5202 H5221 0.913 . S
C5203 H5179 0.950 . S
C5203 C5202 1.524 1_565 S
C5203 C5204 1.415 . S
C5204 H5180 0.950 . S
C5204 C5199 1.363 1_565 S
C5204 C5203 1.415 . S
C5205 H5181 0.951 . S
C5205 C5206 1.366 . S
C5205 C5207 1.388 . S
C5206 C5205 1.366 . S
C5206 C5210 1.385 . S
C5207 H5182 0.951 . S
C5207 C5205 1.388 . S
C5207 C5208 1.366 . S
C5208 C5207 1.366 . S
C5208 C5209 1.414 . S
C5208 C5211 1.499 . S
C5209 H5183 0.950 . S
C5209 C5208 1.414 . S
C5209 C5210 1.374 . S
C5210 H5184 0.950 . S
C5210 C5206 1.385 . S
C5210 C5209 1.374 . S
C5211 C5208 1.499 . S
C5211 C5212 1.373 . S
C5211 C5213 1.389 . S
C5212 H5185 0.950 . S
C5212 C5198 1.377 1_565 S
C5212 C5211 1.373 . S
C5213 C5197 1.377 1_565 S
C5213 C5211 1.389 . S
C5213 C5214 1.524 . S
C5214 C5213 1.524 . S
C5214 C5215 1.397 . S
C5214 C5219 1.363 1_565 S
C5215 H5186 0.950 . S
C5215 C5214 1.397 . S
C5215 C5216 1.334 . S
C5216 H5187 0.950 . S
C5216 C5215 1.334 . S
C5216 C5217 1.287 . S
C5217 C5216 1.287 . S
C5217 C5218 1.524 1_565 S
C5217 H5220 0.999 . S
C5218 H5188 0.950 . S
C5218 C5217 1.524 1_545 S
C5218 C5219 1.415 . S
C5219 H5189 0.950 . S
C5219 C5214 1.363 1_545 S
C5219 C5218 1.415 . S
H5220 C5217 0.999 . S
H5221 C5202 0.913 . S
H5222 C5240 0.951 . S
H5223 C5242 0.951 . S
H5224 C5244 0.950 . S
H5225 C5245 0.950 . S
H5226 C5247 0.950 . S
H5227 C5250 0.950 . S
H5228 C5251 0.950 . S
H5229 C5253 0.950 . S
H5230 C5254 0.950 . S
H5231 C5255 0.951 . S
H5232 C5257 0.951 . S
H5233 C5259 0.950 . S
H5234 C5260 0.950 . S
H5235 C5262 0.950 . S
H5236 C5265 0.950 . S
H5237 C5266 0.950 . S
H5238 C5268 0.950 . S
H5239 C5269 0.950 . S
C5240 H5222 0.951 . S
C5240 C5241 1.366 . S
C5240 C5242 1.388 . S
C5241 C5240 1.366 . S
C5241 C5245 1.385 . S
C5242 H5223 0.951 . S
C5242 C5240 1.388 . S
C5242 C5243 1.366 . S
C5243 C5242 1.366 . S
C5243 C5244 1.414 . S
C5243 C5246 1.499 . S
C5244 H5224 0.950 . S
C5244 C5243 1.414 . S
C5244 C5245 1.374 . S
C5245 H5225 0.950 . S
C5245 C5241 1.385 . S
C5245 C5244 1.374 . S
C5246 C5243 1.499 . S
C5246 C5247 1.373 . S
C5246 C5248 1.389 . S
C5247 H5226 0.950 . S
C5247 C5246 1.373 . S
C5247 C5263 1.377 . S
C5248 C5246 1.389 . S
C5248 C5249 1.524 . S
C5248 C5262 1.377 . S
C5249 C5248 1.524 . S
C5249 C5250 1.397 . S
C5249 C5254 1.363 . S
C5250 H5227 0.950 . S
C5250 C5249 1.397 . S
C5250 C5251 1.334 . S
C5251 H5228 0.950 . S
C5251 C5250 1.334 . S
C5251 C5252 1.287 . S
C5252 C5251 1.287 . S
C5252 C5253 1.524 . S
C5252 H5271 0.913 . S
C5253 H5229 0.950 . S
C5253 C5252 1.524 . S
C5253 C5254 1.415 . S
C5254 H5230 0.950 . S
C5254 C5249 1.363 . S
C5254 C5253 1.415 . S
C5255 H5231 0.951 . S
C5255 C5256 1.366 . S
C5255 C5257 1.388 . S
C5256 C5255 1.366 . S
C5256 C5260 1.385 . S
C5257 H5232 0.951 . S
C5257 C5255 1.388 . S
C5257 C5258 1.366 . S
C5258 C5257 1.366 . S
C5258 C5259 1.414 . S
C5258 C5261 1.499 . S
C5259 H5233 0.950 . S
C5259 C5258 1.414 . S
C5259 C5260 1.374 . S
C5260 H5234 0.950 . S
C5260 C5256 1.385 . S
C5260 C5259 1.374 . S
C5261 C5258 1.499 . S
C5261 C5262 1.373 . S
C5261 C5263 1.389 . S
C5262 H5235 0.950 . S
C5262 C5248 1.377 . S
C5262 C5261 1.373 . S
C5263 C5247 1.377 . S
C5263 C5261 1.389 . S
C5263 C5264 1.524 . S
C5264 C5263 1.524 . S
C5264 C5265 1.397 . S
C5264 C5269 1.363 . S
C5265 H5236 0.950 . S
C5265 C5264 1.397 . S
C5265 C5266 1.334 . S
C5266 H5237 0.950 . S
C5266 C5265 1.334 . S
C5266 C5267 1.287 . S
C5267 C5266 1.287 . S
C5267 C5268 1.524 . S
C5267 H5270 0.999 . S
C5268 H5238 0.950 . S
C5268 C5267 1.524 . S
C5268 C5269 1.415 . S
C5269 H5239 0.950 . S
C5269 C5264 1.363 . S
C5269 C5268 1.415 . S
H5270 C5267 0.999 . S
H5271 C5252 0.913 . S
H5272 C5290 0.951 . S
H5273 C5292 0.951 . S
H5274 C5294 0.950 . S
H5275 C5295 0.950 . S
H5276 C5297 0.950 . S
H5277 C5300 0.950 . S
H5278 C5301 0.950 . S
H5279 C5303 0.950 . S
H5280 C5304 0.950 . S
H5281 C5305 0.951 . S
H5282 C5307 0.951 . S
H5283 C5309 0.950 . S
H5284 C5310 0.950 . S
H5285 C5312 0.950 . S
H5286 C5315 0.950 . S
H5287 C5316 0.950 . S
H5288 C5318 0.950 1_554 S
H5289 C5319 0.950 . S
C5290 H5272 0.951 . S
C5290 C5291 1.366 . S
C5290 C5292 1.388 . S
C5291 C5290 1.366 . S
C5291 C5295 1.385 . S
C5292 H5273 0.951 . S
C5292 C5290 1.388 . S
C5292 C5293 1.366 . S
C5293 C5292 1.366 . S
C5293 C5294 1.414 . S
C5293 C5296 1.499 . S
C5294 H5274 0.950 . S
C5294 C5293 1.414 . S
C5294 C5295 1.374 . S
C5295 H5275 0.950 . S
C5295 C5291 1.385 . S
C5295 C5294 1.374 . S
C5296 C5293 1.499 . S
C5296 C5297 1.373 . S
C5296 C5298 1.389 . S
C5297 H5276 0.950 . S
C5297 C5296 1.373 . S
C5297 C5313 1.377 1_455 S
C5298 C5296 1.389 . S
C5298 C5299 1.524 . S
C5298 C5312 1.377 1_455 S
C5299 C5298 1.524 . S
C5299 C5300 1.397 . S
C5299 C5304 1.363 . S
C5300 H5277 0.950 . S
C5300 C5299 1.397 . S
C5300 C5301 1.334 . S
C5301 H5278 0.950 . S
C5301 C5300 1.334 . S
C5301 C5302 1.287 . S
C5302 C5301 1.287 . S
C5302 C5303 1.524 . S
C5302 H5321 0.913 . S
C5303 H5279 0.950 . S
C5303 C5302 1.524 . S
C5303 C5304 1.415 . S
C5304 H5280 0.950 . S
C5304 C5299 1.363 . S
C5304 C5303 1.415 . S
C5305 H5281 0.951 . S
C5305 C5306 1.366 . S
C5305 C5307 1.388 . S
C5306 C5305 1.366 . S
C5306 C5310 1.385 . S
C5307 H5282 0.951 . S
C5307 C5305 1.388 . S
C5307 C5308 1.366 . S
C5308 C5307 1.366 . S
C5308 C5309 1.414 . S
C5308 C5311 1.499 . S
C5309 H5283 0.950 . S
C5309 C5308 1.414 . S
C5309 C5310 1.374 . S
C5310 H5284 0.950 . S
C5310 C5306 1.385 . S
C5310 C5309 1.374 . S
C5311 C5308 1.499 . S
C5311 C5312 1.373 . S
C5311 C5313 1.389 . S
C5312 H5285 0.950 . S
C5312 C5298 1.377 1_655 S
C5312 C5311 1.373 . S
C5313 C5297 1.377 1_655 S
C5313 C5311 1.389 . S
C5313 C5314 1.524 . S
C5314 C5313 1.524 . S
C5314 C5315 1.397 . S
C5314 C5319 1.363 . S
C5315 H5286 0.950 . S
C5315 C5314 1.397 . S
C5315 C5316 1.334 . S
C5316 H5287 0.950 . S
C5316 C5315 1.334 . S
C5316 C5317 1.287 . S
C5317 C5316 1.287 . S
C5317 C5318 1.524 . S
C5317 H5320 0.999 . S
C5318 H5288 0.950 1_556 S
C5318 C5317 1.524 . S
C5318 C5319 1.415 . S
C5319 H5289 0.950 . S
C5319 C5314 1.363 . S
C5319 C5318 1.415 . S
H5320 C5317 0.999 . S
H5321 C5302 0.913 . S
H5322 C5340 0.951 . S
H5323 C5342 0.951 . S
H5324 C5344 0.950 . S
H5325 C5345 0.950 . S
H5326 C5347 0.950 . S
H5327 C5350 0.950 . S
H5328 C5351 0.950 . S
H5329 C5353 0.950 . S
H5330 C5354 0.950 . S
H5331 C5355 0.951 . S
H5332 C5357 0.951 . S
H5333 C5359 0.950 . S
H5334 C5360 0.950 . S
H5335 C5362 0.950 . S
H5336 C5365 0.950 . S
H5337 C5366 0.950 . S
H5338 C5368 0.950 . S
H5339 C5369 0.950 . S
C5340 H5322 0.951 . S
C5340 C5341 1.366 . S
C5340 C5342 1.388 . S
C5341 C5340 1.366 . S
C5341 C5345 1.385 . S
C5342 H5323 0.951 . S
C5342 C5340 1.388 . S
C5342 C5343 1.366 . S
C5343 C5342 1.366 . S
C5343 C5344 1.414 . S
C5343 C5346 1.499 . S
C5344 H5324 0.950 . S
C5344 C5343 1.414 . S
C5344 C5345 1.374 . S
C5345 H5325 0.950 . S
C5345 C5341 1.385 . S
C5345 C5344 1.374 . S
C5346 C5343 1.499 . S
C5346 C5347 1.373 . S
C5346 C5348 1.389 . S
C5347 H5326 0.950 . S
C5347 C5346 1.373 . S
C5347 C5363 1.377 1_545 S
C5348 C5346 1.389 . S
C5348 C5349 1.524 . S
C5348 C5362 1.377 1_545 S
C5349 C5348 1.524 . S
C5349 C5350 1.397 . S
C5349 C5354 1.363 1_545 S
C5350 H5327 0.950 . S
C5350 C5349 1.397 . S
C5350 C5351 1.334 . S
C5351 H5328 0.950 . S
C5351 C5350 1.334 . S
C5351 C5352 1.287 . S
C5352 C5351 1.287 . S
C5352 C5353 1.524 1_545 S
C5352 H5371 0.913 . S
C5353 H5329 0.950 . S
C5353 C5352 1.524 1_565 S
C5353 C5354 1.415 . S
C5354 H5330 0.950 . S
C5354 C5349 1.363 1_565 S
C5354 C5353 1.415 . S
C5355 H5331 0.951 . S
C5355 C5356 1.366 . S
C5355 C5357 1.388 . S
C5356 C5355 1.366 . S
C5356 C5360 1.385 . S
C5357 H5332 0.951 . S
C5357 C5355 1.388 . S
C5357 C5358 1.366 . S
C5358 C5357 1.366 . S
C5358 C5359 1.414 . S
C5358 C5361 1.499 . S
C5359 H5333 0.950 . S
C5359 C5358 1.414 . S
C5359 C5360 1.374 . S
C5360 H5334 0.950 . S
C5360 C5356 1.385 . S
C5360 C5359 1.374 . S
C5361 C5358 1.499 . S
C5361 C5362 1.373 . S
C5361 C5363 1.389 . S
C5362 H5335 0.950 . S
C5362 C5348 1.377 1_565 S
C5362 C5361 1.373 . S
C5363 C5347 1.377 1_565 S
C5363 C5361 1.389 . S
C5363 C5364 1.524 . S
C5364 C5363 1.524 . S
C5364 C5365 1.397 . S
C5364 C5369 1.363 1_565 S
C5365 H5336 0.950 . S
C5365 C5364 1.397 . S
C5365 C5366 1.334 . S
C5366 H5337 0.950 . S
C5366 C5365 1.334 . S
C5366 C5367 1.287 . S
C5367 C5366 1.287 . S
C5367 C5368 1.524 1_565 S
C5367 H5370 0.999 . S
C5368 H5338 0.950 . S
C5368 C5367 1.524 1_545 S
C5368 C5369 1.415 . S
C5369 H5339 0.950 . S
C5369 C5364 1.363 1_545 S
C5369 C5368 1.415 . S
H5370 C5367 0.999 . S
H5371 C5352 0.913 . S
H5372 C5390 0.951 . S
H5373 C5392 0.951 . S
H5374 C5394 0.950 . S
H5375 C5395 0.950 . S
H5376 C5397 0.950 . S
H5377 C5400 0.950 . S
H5378 C5401 0.950 . S
H5379 C5403 0.950 . S
H5380 C5404 0.950 . S
H5381 C5405 0.951 . S
H5382 C5407 0.951 . S
H5383 C5409 0.950 . S
H5384 C5410 0.950 . S
H5385 C5412 0.950 . S
H5386 C5415 0.950 . S
H5387 C5416 0.950 . S
H5388 C5418 0.950 . S
H5389 C5419 0.950 . S
C5390 H5372 0.951 . S
C5390 C5391 1.366 . S
C5390 C5392 1.388 . S
C5391 C5390 1.366 . S
C5391 C5395 1.385 . S
C5392 H5373 0.951 . S
C5392 C5390 1.388 . S
C5392 C5393 1.366 . S
C5393 C5392 1.366 . S
C5393 C5394 1.414 . S
C5393 C5396 1.499 . S
C5394 H5374 0.950 . S
C5394 C5393 1.414 . S
C5394 C5395 1.374 . S
C5395 H5375 0.950 . S
C5395 C5391 1.385 . S
C5395 C5394 1.374 . S
C5396 C5393 1.499 . S
C5396 C5397 1.373 . S
C5396 C5398 1.389 . S
C5397 H5376 0.950 . S
C5397 C5396 1.373 . S
C5397 C5413 1.377 . S
C5398 C5396 1.389 . S
C5398 C5399 1.524 . S
C5398 C5412 1.377 . S
C5399 C5398 1.524 . S
C5399 C5400 1.397 . S
C5399 C5404 1.363 . S
C5400 H5377 0.950 . S
C5400 C5399 1.397 . S
C5400 C5401 1.334 . S
C5401 H5378 0.950 . S
C5401 C5400 1.334 . S
C5401 C5402 1.287 . S
C5402 C5401 1.287 . S
C5402 C5403 1.524 . S
C5402 H5421 0.913 . S
C5403 H5379 0.950 . S
C5403 C5402 1.524 . S
C5403 C5404 1.415 . S
C5404 H5380 0.950 . S
C5404 C5399 1.363 . S
C5404 C5403 1.415 . S
C5405 H5381 0.951 . S
C5405 C5406 1.366 . S
C5405 C5407 1.388 . S
C5406 C5405 1.366 . S
C5406 C5410 1.385 . S
C5407 H5382 0.951 . S
C5407 C5405 1.388 . S
C5407 C5408 1.366 . S
C5408 C5407 1.366 . S
C5408 C5409 1.414 . S
C5408 C5411 1.499 . S
C5409 H5383 0.950 . S
C5409 C5408 1.414 . S
C5409 C5410 1.374 . S
C5410 H5384 0.950 . S
C5410 C5406 1.385 . S
C5410 C5409 1.374 . S
C5411 C5408 1.499 . S
C5411 C5412 1.373 . S
C5411 C5413 1.389 . S
C5412 H5385 0.950 . S
C5412 C5398 1.377 . S
C5412 C5411 1.373 . S
C5413 C5397 1.377 . S
C5413 C5411 1.389 . S
C5413 C5414 1.524 . S
C5414 C5413 1.524 . S
C5414 C5415 1.397 . S
C5414 C5419 1.363 . S
C5415 H5386 0.950 . S
C5415 C5414 1.397 . S
C5415 C5416 1.334 . S
C5416 H5387 0.950 . S
C5416 C5415 1.334 . S
C5416 C5417 1.287 . S
C5417 C5416 1.287 . S
C5417 C5418 1.524 . S
C5417 H5420 0.999 . S
C5418 H5388 0.950 . S
C5418 C5417 1.524 . S
C5418 C5419 1.415 . S
C5419 H5389 0.950 . S
C5419 C5414 1.363 . S
C5419 C5418 1.415 . S
H5420 C5417 0.999 . S
H5421 C5402 0.913 . S
H5422 C5440 0.951 . S
H5423 C5442 0.951 . S
H5424 C5444 0.950 . S
H5425 C5445 0.950 . S
H5426 C5447 0.950 . S
H5427 C5450 0.950 . S
H5428 C5451 0.950 . S
H5429 C5453 0.950 . S
H5430 C5454 0.950 . S
H5431 C5455 0.951 . S
H5432 C5457 0.951 . S
H5433 C5459 0.950 . S
H5434 C5460 0.950 . S
H5435 C5462 0.950 . S
H5436 C5465 0.950 1_554 S
H5437 C5466 0.950 . S
H5438 C5468 0.950 . S
H5439 C5469 0.950 . S
C5440 H5422 0.951 . S
C5440 C5441 1.366 . S
C5440 C5442 1.388 . S
C5441 C5440 1.366 . S
C5441 C5445 1.385 . S
C5442 H5423 0.951 . S
C5442 C5440 1.388 . S
C5442 C5443 1.366 . S
C5443 C5442 1.366 . S
C5443 C5444 1.414 . S
C5443 C5446 1.499 . S
C5444 H5424 0.950 . S
C5444 C5443 1.414 . S
C5444 C5445 1.374 . S
C5445 H5425 0.950 . S
C5445 C5441 1.385 . S
C5445 C5444 1.374 . S
C5446 C5443 1.499 . S
C5446 C5447 1.373 . S
C5446 C5448 1.389 . S
C5447 H5426 0.950 . S
C5447 C5446 1.373 . S
C5447 C5463 1.377 1_455 S
C5448 C5446 1.389 . S
C5448 C5449 1.524 . S
C5448 C5462 1.377 1_455 S
C5449 C5448 1.524 . S
C5449 C5450 1.397 . S
C5449 C5454 1.363 . S
C5450 H5427 0.950 . S
C5450 C5449 1.397 . S
C5450 C5451 1.334 . S
C5451 H5428 0.950 . S
C5451 C5450 1.334 . S
C5451 C5452 1.287 . S
C5452 C5451 1.287 . S
C5452 C5453 1.524 . S
C5452 H5471 0.913 . S
C5453 H5429 0.950 . S
C5453 C5452 1.524 . S
C5453 C5454 1.415 . S
C5454 H5430 0.950 . S
C5454 C5449 1.363 . S
C5454 C5453 1.415 . S
C5455 H5431 0.951 . S
C5455 C5456 1.366 . S
C5455 C5457 1.388 . S
C5456 C5455 1.366 . S
C5456 C5460 1.385 . S
C5457 H5432 0.951 . S
C5457 C5455 1.388 . S
C5457 C5458 1.366 . S
C5458 C5457 1.366 . S
C5458 C5459 1.414 . S
C5458 C5461 1.499 . S
C5459 H5433 0.950 . S
C5459 C5458 1.414 . S
C5459 C5460 1.374 . S
C5460 H5434 0.950 . S
C5460 C5456 1.385 . S
C5460 C5459 1.374 . S
C5461 C5458 1.499 . S
C5461 C5462 1.373 . S
C5461 C5463 1.389 . S
C5462 H5435 0.950 . S
C5462 C5448 1.377 1_655 S
C5462 C5461 1.373 . S
C5463 C5447 1.377 1_655 S
C5463 C5461 1.389 . S
C5463 C5464 1.524 . S
C5464 C5463 1.524 . S
C5464 C5465 1.397 1_554 S
C5464 C5469 1.363 . S
C5465 H5436 0.950 1_556 S
C5465 C5464 1.397 1_556 S
C5465 C5466 1.334 . S
C5466 H5437 0.950 . S
C5466 C5465 1.334 . S
C5466 C5467 1.287 . S
C5467 C5466 1.287 . S
C5467 C5468 1.524 . S
C5467 H5470 0.999 . S
C5468 H5438 0.950 . S
C5468 C5467 1.524 . S
C5468 C5469 1.415 1_556 S
C5469 H5439 0.950 . S
C5469 C5464 1.363 . S
C5469 C5468 1.415 1_554 S
H5470 C5467 0.999 . S
H5471 C5452 0.913 . S
C691 C22 1.706 . S
C706 C8 1.706 . S
C741 C36 1.706 . S
C756 C50 1.705 . S
C791 C92 1.706 . S
C806 C64 1.705 . S
C841 C106 1.706 . S
C856 C78 1.706 . S
C891 C120 1.706 . S
C906 C484 1.705 . S
C941 C134 1.706 . S
C956 C162 1.706 . S
C991 C456 1.705 . S
C1006 C148 1.706 . S
C1041 C190 1.706 . S
C1056 C176 1.705 . S
C1091 C218 1.705 . S
C1106 C204 1.706 . S
C1141 C260 1.706 . S
C1156 C232 1.706 . S
C1191 C274 1.706 . S
C1206 C246 1.706 . S
C1241 C288 1.706 . S
C1256 C652 1.705 . S
C1291 C302 1.706 . S
C1306 C330 1.706 . S
C1341 C624 1.705 . S
C1356 C316 1.706 . S
C1391 C344 1.706 . S
C1406 C358 1.705 . S
C1441 C386 1.706 . S
C1456 C372 1.706 . S
C1491 C400 1.706 . S
C1506 C428 1.706 . S
C1541 C442 1.706 . S
C1556 C414 1.705 . S
C1591 C498 1.706 . S
C1606 C470 1.705 . S
C1641 C526 1.706 . S
C1656 C512 1.705 . S
C1691 C540 1.706 . S
C1706 C554 1.706 . S
C1741 C596 1.706 . S
C1756 C568 1.705 . S
C1791 C582 1.705 . S
C1806 C610 1.706 . S
C1841 C638 1.705 . S
C1856 C666 1.706 . S
C1891 C619 1.216 . S
C1906 C7 1.192 . S
C1941 C325 1.215 . S
C1956 C21 1.191 . S
C1991 C633 1.216 . S
C2006 C35 1.192 . S
C2041 C49 1.192 . S
C2056 C647 1.216 . S
C2091 C63 1.192 . S
C2106 C507 1.216 . S
C2141 C521 1.216 . S
C2156 C77 1.191 . S
C2191 C91 1.191 . S
C2206 C535 1.215 . S
C2241 C549 1.216 . S
C2256 C105 1.192 . S
C2291 C563 1.216 . S
C2306 C119 1.192 . S
C2341 C133 1.191 . S
C2356 C591 1.215 . S
C2391 C605 1.216 . S
C2406 C147 1.191 . S
C2441 C161 1.191 . S
C2456 C241 1.215 . S
C2491 C175 1.191 . S
C2506 C451 1.216 . S
C2541 C189 1.191 . S
C2556 C157 1.216 . S
C2591 C203 1.191 . S
C2606 C465 1.215 . S
C2641 C217 1.191 . S
C2656 C479 1.215 . S
C2691 C339 1.216 . S
C2706 C231 1.192 . S
C2741 C353 1.216 . S
C2756 C245 1.192 . S
C2791 C259 1.192 . S
C2806 C367 1.216 . S
C2841 C273 1.190 . S
C2856 C381 1.215 . S
C2891 C287 1.192 . S
C2906 C395 1.216 . S
C2941 C301 1.192 . S
C2956 C423 1.216 . S
C2991 C437 1.216 . S
C3006 C315 1.192 . S
C3041 C73 1.215 . S
C3056 C329 1.190 . S
C3091 C343 1.191 . S
C3106 C283 1.215 . S
C3141 C357 1.192 . S
C3156 C661 1.216 . S
C3191 C371 1.190 . S
C3206 C297 1.215 . S
C3241 C385 1.191 . S
C3256 C311 1.215 . S
C3291 C171 1.215 . S
C3306 C399 1.191 . S
C3341 C413 1.192 . S
C3356 C185 1.216 . S
C3391 C199 1.216 . S
C3406 C427 1.191 . S
C3441 C213 1.215 . S
C3456 C441 1.191 . S
C3491 C227 1.215 . S
C3506 C455 1.191 . S
C3541 C255 1.216 . S
C3556 C469 1.191 . S
C3591 C483 1.191 . S
C3606 C269 1.215 . S
C3641 C497 1.192 . S
C3656 C577 1.216 . S
C3691 C115 1.215 . S
C3706 C511 1.191 . S
C3741 C525 1.191 . S
C3756 C493 1.215 . S
C3791 C539 1.191 . S
C3806 C129 1.215 . S
C3841 C143 1.216 . S
C3856 C553 1.191 . S
C3891 C567 1.192 . S
C3906 C3 1.216 . S
C3941 C581 1.192 . S
C3956 C17 1.216 . S
C3991 C31 1.215 . S
C4006 C595 1.191 . S
C4041 C609 1.192 . S
C4056 C45 1.216 . S
C4091 C623 1.192 . S
C4106 C59 1.216 . S
C4141 C87 1.215 . S
C4156 C637 1.191 . S
C4191 C651 1.192 . S
C4206 C101 1.216 . S
C4241 C409 1.215 . S
C4256 C665 1.190 . S
C4291 C37 0.733 . S
C4306 C9 0.734 . S
C4341 C51 0.732 . S
C4356 C23 0.734 . S
C4391 C443 0.733 . S
C4406 C65 0.734 . S
C4441 C429 0.734 . S
C4456 C79 0.731 . S
C4491 C415 0.733 . S
C4506 C93 0.733 . S
C4541 C107 0.732 . S
C4556 C401 0.732 . S
C4591 C121 0.732 . S
C4606 C499 0.733 . S
C4641 C149 0.733 . S
C4656 C135 0.731 . S
C4691 C163 0.732 . S
C4706 C457 0.734 . S
C4741 C205 0.732 . S
C4756 C177 0.733 . S
C4791 C219 0.733 . S
C4806 C191 0.731 . S
C4841 C611 0.733 . S
C4856 C233 0.734 . S
C4891 C597 0.732 . S
C4906 C247 0.732 . S
C4941 C261 0.732 . S
C4956 C583 0.732 . S
C4991 C275 0.732 . S
C5006 C569 0.732 . S
C5041 C667 0.732 . S
C5056 C289 0.733 . S
C5091 C317 0.734 . S
C5106 C303 0.732 . S
C5141 C331 0.734 . S
C5156 C625 0.733 . S
C5191 C373 0.732 . S
C5206 C345 0.732 . S
C5241 C359 0.733 . S
C5256 C387 0.733 . S
C5291 C485 0.733 . S
C5306 C471 0.733 . S
C5341 C513 0.732 . S
C5356 C541 0.733 . S
C5391 C527 0.733 . S
C5406 C555 0.731 . S
C5441 C639 0.734 . S
C5456 C653 0.731 . S
