# Generated by pormake.
# Topology cbo, (4)-cn, num edge types: 1
# Building blocks:
#     Node 0, Type 0, BuildingBlock: CEKHIL_clean_sbu_0, # of connection points: 4
#     Node 1, Type 0, BuildingBlock: CEKHIL_clean_sbu_0, # of connection points: 4
#     Node 2, Type 0, BuildingBlock: CEKHIL_clean_sbu_0, # of connection points: 4
#     Node 3, Type 0, BuildingBlock: CEKHIL_clean_sbu_0, # of connection points: 4
#     Node 4, Type 0, BuildingBlock: CEKHIL_clean_sbu_0, # of connection points: 4
#     Node 5, Type 0, BuildingBlock: CEKHIL_clean_sbu_0, # of connection points: 4
#     Node 6, Type 0, BuildingBlock: CEKHIL_clean_sbu_0, # of connection points: 4
#     Node 7, Type 0, BuildingBlock: CEKHIL_clean_sbu_0, # of connection points: 4
#     Node 8, Type 0, BuildingBlock: CEKHIL_clean_sbu_0, # of connection points: 4
#     Node 9, Type 0, BuildingBlock: CEKHIL_clean_sbu_0, # of connection points: 4
#     Node 10, Type 0, BuildingBlock: CEKHIL_clean_sbu_0, # of connection points: 4
#     Node 11, Type 0, BuildingBlock: CEKHIL_clean_sbu_0, # of connection points: 4
#     Node 12, Type 0, BuildingBlock: CEKHIL_clean_sbu_0, # of connection points: 4
#     Node 13, Type 0, BuildingBlock: CEKHIL_clean_sbu_0, # of connection points: 4
#     Node 14, Type 0, BuildingBlock: CEKHIL_clean_sbu_0, # of connection points: 4
#     Node 15, Type 0, BuildingBlock: CEKHIL_clean_sbu_0, # of connection points: 4
#     Node 16, Type 0, BuildingBlock: CEKHIL_clean_sbu_0, # of connection points: 4
#     Node 17, Type 0, BuildingBlock: CEKHIL_clean_sbu_0, # of connection points: 4
#     Node 18, Type 0, BuildingBlock: CEKHIL_clean_sbu_0, # of connection points: 4
#     Node 19, Type 0, BuildingBlock: CEKHIL_clean_sbu_0, # of connection points: 4
#     Node 20, Type 0, BuildingBlock: CEKHIL_clean_sbu_0, # of connection points: 4
#     Node 21, Type 0, BuildingBlock: CEKHIL_clean_sbu_0, # of connection points: 4
#     Node 22, Type 0, BuildingBlock: CEKHIL_clean_sbu_0, # of connection points: 4
#     Node 23, Type 0, BuildingBlock: CEKHIL_clean_sbu_0, # of connection points: 4
#     Edge 24, Type (0, 0), BuildingBlock: OJICUG_clean_linker_0, # of connection points: 2
#     Edge 25, Type (0, 0), BuildingBlock: OJICUG_clean_linker_0, # of connection points: 2
#     Edge 26, Type (0, 0), BuildingBlock: OJICUG_clean_linker_0, # of connection points: 2
#     Edge 27, Type (0, 0), BuildingBlock: OJICUG_clean_linker_0, # of connection points: 2
#     Edge 28, Type (0, 0), BuildingBlock: OJICUG_clean_linker_0, # of connection points: 2
#     Edge 29, Type (0, 0), BuildingBlock: OJICUG_clean_linker_0, # of connection points: 2
#     Edge 30, Type (0, 0), BuildingBlock: OJICUG_clean_linker_0, # of connection points: 2
#     Edge 31, Type (0, 0), BuildingBlock: OJICUG_clean_linker_0, # of connection points: 2
#     Edge 32, Type (0, 0), BuildingBlock: OJICUG_clean_linker_0, # of connection points: 2
#     Edge 33, Type (0, 0), BuildingBlock: OJICUG_clean_linker_0, # of connection points: 2
#     Edge 34, Type (0, 0), BuildingBlock: OJICUG_clean_linker_0, # of connection points: 2
#     Edge 35, Type (0, 0), BuildingBlock: OJICUG_clean_linker_0, # of connection points: 2
#     Edge 36, Type (0, 0), BuildingBlock: OJICUG_clean_linker_0, # of connection points: 2
#     Edge 37, Type (0, 0), BuildingBlock: OJICUG_clean_linker_0, # of connection points: 2
#     Edge 38, Type (0, 0), BuildingBlock: OJICUG_clean_linker_0, # of connection points: 2
#     Edge 39, Type (0, 0), BuildingBlock: OJICUG_clean_linker_0, # of connection points: 2
#     Edge 40, Type (0, 0), BuildingBlock: OJICUG_clean_linker_0, # of connection points: 2
#     Edge 41, Type (0, 0), BuildingBlock: OJICUG_clean_linker_0, # of connection points: 2
#     Edge 42, Type (0, 0), BuildingBlock: OJICUG_clean_linker_0, # of connection points: 2
#     Edge 43, Type (0, 0), BuildingBlock: OJICUG_clean_linker_0, # of connection points: 2
#     Edge 44, Type (0, 0), BuildingBlock: OJICUG_clean_linker_0, # of connection points: 2
#     Edge 45, Type (0, 0), BuildingBlock: OJICUG_clean_linker_0, # of connection points: 2
#     Edge 46, Type (0, 0), BuildingBlock: OJICUG_clean_linker_0, # of connection points: 2
#     Edge 47, Type (0, 0), BuildingBlock: OJICUG_clean_linker_0, # of connection points: 2
#     Edge 48, Type (0, 0), BuildingBlock: OJICUG_clean_linker_0, # of connection points: 2
#     Edge 49, Type (0, 0), BuildingBlock: OJICUG_clean_linker_0, # of connection points: 2
#     Edge 50, Type (0, 0), BuildingBlock: OJICUG_clean_linker_0, # of connection points: 2
#     Edge 51, Type (0, 0), BuildingBlock: OJICUG_clean_linker_0, # of connection points: 2
#     Edge 52, Type (0, 0), BuildingBlock: OJICUG_clean_linker_0, # of connection points: 2
#     Edge 53, Type (0, 0), BuildingBlock: OJICUG_clean_linker_0, # of connection points: 2
#     Edge 54, Type (0, 0), BuildingBlock: OJICUG_clean_linker_0, # of connection points: 2
#     Edge 55, Type (0, 0), BuildingBlock: OJICUG_clean_linker_0, # of connection points: 2
#     Edge 56, Type (0, 0), BuildingBlock: OJICUG_clean_linker_0, # of connection points: 2
#     Edge 57, Type (0, 0), BuildingBlock: OJICUG_clean_linker_0, # of connection points: 2
#     Edge 58, Type (0, 0), BuildingBlock: OJICUG_clean_linker_0, # of connection points: 2
#     Edge 59, Type (0, 0), BuildingBlock: OJICUG_clean_linker_0, # of connection points: 2
#     Edge 60, Type (0, 0), BuildingBlock: OJICUG_clean_linker_0, # of connection points: 2
#     Edge 61, Type (0, 0), BuildingBlock: OJICUG_clean_linker_0, # of connection points: 2
#     Edge 62, Type (0, 0), BuildingBlock: OJICUG_clean_linker_0, # of connection points: 2
#     Edge 63, Type (0, 0), BuildingBlock: OJICUG_clean_linker_0, # of connection points: 2
#     Edge 64, Type (0, 0), BuildingBlock: OJICUG_clean_linker_0, # of connection points: 2
#     Edge 65, Type (0, 0), BuildingBlock: OJICUG_clean_linker_0, # of connection points: 2
#     Edge 66, Type (0, 0), BuildingBlock: OJICUG_clean_linker_0, # of connection points: 2
#     Edge 67, Type (0, 0), BuildingBlock: OJICUG_clean_linker_0, # of connection points: 2
#     Edge 68, Type (0, 0), BuildingBlock: OJICUG_clean_linker_0, # of connection points: 2
#     Edge 69, Type (0, 0), BuildingBlock: OJICUG_clean_linker_0, # of connection points: 2
#     Edge 70, Type (0, 0), BuildingBlock: OJICUG_clean_linker_0, # of connection points: 2
#     Edge 71, Type (0, 0), BuildingBlock: OJICUG_clean_linker_0, # of connection points: 2
# Relax obj value: 0.196
# Max RMSD: 0.205
# Mean RMSD: 0.197
data_MOF--net-cbo--node1-CEKHIL_clean_sbu_0--edge1-OJICUG_clean_linker_0
_symmetry_space_group_name_H-M    P1
_symmetry_Int_Tables_number       1
_symmetry_cell_setting            triclinic
loop_
_symmetry_equiv_pos_as_xyz
'x, y, z'
_cell_length_a     37.976614
_cell_length_b     37.581134
_cell_length_c     37.070682
_cell_angle_alpha  90.050909
_cell_angle_beta   90.011353
_cell_angle_gamma 90.055593
loop_
_atom_site_label
_atom_site_type_symbol
_atom_site_fract_x
_atom_site_fract_y
_atom_site_fract_z
_atom_type_partial_charge
Co0 Co 0.08642 0.18646 0.31333 0.0
O1 O 0.03907 0.19888 0.32596 0.0
O2 O 0.05686 0.14439 0.31171 0.0
C3 C 0.09636 0.23114 0.27429 0.0
O4 O 0.13343 0.16449 0.29802 0.0
Co5 Co 0.14695 0.23916 0.33359 0.0
O6 O 0.17617 0.2056 0.30571 0.0
C7 C 0.11618 0.19338 0.38956 0.0
C8 C 0.03147 0.16552 0.32154 0.0
C9 C 0.16568 0.17506 0.2953 0.0
O10 O 0.09697 0.17763 0.36589 0.0
O11 O 0.1364 0.21971 0.38258 0.0
O12 O 0.07939 0.20288 0.26397 0.0
O13 O 0.10265 0.23324 0.30849 0.0
Co14 Co 0.41098 0.80893 0.81452 0.0
O15 O 0.45836 0.79651 0.82709 0.0
O16 O 0.44077 0.85091 0.81252 0.0
C17 C 0.40095 0.76396 0.77575 0.0
O18 O 0.36377 0.83064 0.79906 0.0
Co19 Co 0.35065 0.75646 0.83561 0.0
O20 O 0.32141 0.78913 0.80675 0.0
C21 C 0.38196 0.80243 0.89114 0.0
C22 C 0.46614 0.82976 0.82237 0.0
C23 C 0.33164 0.81964 0.79604 0.0
O24 O 0.40072 0.81819 0.86712 0.0
O25 O 0.36178 0.77598 0.8845 0.0
O26 O 0.41788 0.79216 0.76527 0.0
O27 O 0.39474 0.76209 0.80999 0.0
Co28 Co 0.5929 0.3123 0.67706 0.0
O29 O 0.54565 0.29947 0.66462 0.0
O30 O 0.56311 0.35424 0.6783 0.0
C31 C 0.60284 0.26783 0.71628 0.0
O32 O 0.63997 0.33418 0.69219 0.0
Co33 Co 0.65281 0.25914 0.65645 0.0
O34 O 0.68274 0.29342 0.68306 0.0
C35 C 0.615 0.29846 0.6005 0.0
C36 C 0.53783 0.33277 0.66872 0.0
C37 C 0.67228 0.3237 0.69434 0.0
O38 O 0.60336 0.3203 0.62433 0.0
O39 O 0.63154 0.26985 0.60826 0.0
O40 O 0.58602 0.29614 0.72667 0.0
O41 O 0.60901 0.26579 0.68212 0.0
Co42 Co 0.90863 0.68269 0.17658 0.0
O43 O 0.95611 0.69508 0.16449 0.0
O44 O 0.93787 0.64033 0.17694 0.0
C45 C 0.89909 0.72649 0.21679 0.0
O46 O 0.86128 0.66111 0.19117 0.0
Co47 Co 0.8493 0.73691 0.1572 0.0
O48 O 0.81894 0.70251 0.18306 0.0
C49 C 0.88653 0.69822 0.1003 0.0
C50 C 0.96346 0.6616 0.16787 0.0
C51 C 0.82909 0.67189 0.19362 0.0
O52 O 0.89809 0.67585 0.12365 0.0
O53 O 0.87027 0.72682 0.10874 0.0
O54 O 0.9156 0.6978 0.22658 0.0
O55 O 0.89306 0.72928 0.18266 0.0
Co56 Co 0.31935 0.09794 0.1791 0.0
O57 O 0.33202 0.04931 0.187 0.0
O58 O 0.32352 0.07379 0.13314 0.0
C59 C 0.27568 0.1012 0.22017 0.0
O60 O 0.305 0.14727 0.16139 0.0
Co61 Co 0.32995 0.15234 0.24171 0.0
O62 O 0.30583 0.18545 0.20837 0.0
C63 C 0.39124 0.12866 0.19935 0.0
C64 C 0.33128 0.04583 0.15222 0.0
C65 C 0.29963 0.17825 0.17537 0.0
O66 O 0.37094 0.11152 0.17764 0.0
O67 O 0.3802 0.14413 0.22796 0.0
O68 O 0.26982 0.08744 0.1886 0.0
O69 O 0.30833 0.108 0.22726 0.0
Co70 Co 0.18196 0.895 0.67167 0.0
O71 O 0.17083 0.9441 0.67845 0.0
O72 O 0.18041 0.91848 0.62524 0.0
C73 C 0.22373 0.89046 0.71455 0.0
O74 O 0.195 0.845 0.65551 0.0
Co75 Co 0.16453 0.84293 0.73422 0.0
O76 O 0.18867 0.80776 0.70275 0.0
C77 C 0.10731 0.87234 0.69081 0.0
C78 C 0.17279 0.94693 0.64367 0.0
C79 C 0.19774 0.81406 0.67023 0.0
O80 O 0.13015 0.88344 0.66787 0.0
O81 O 0.11564 0.85903 0.72139 0.0
O82 O 0.23135 0.90371 0.68317 0.0
O83 O 0.19052 0.88516 0.72037 0.0
Co84 Co 0.82015 0.39924 0.82088 0.0
O85 O 0.83038 0.44881 0.81583 0.0
O86 O 0.82168 0.42122 0.86812 0.0
C87 C 0.77845 0.39512 0.77789 0.0
O88 O 0.80804 0.34851 0.83548 0.0
Co89 Co 0.83797 0.34909 0.75673 0.0
O90 O 0.81454 0.31257 0.7872 0.0
C91 C 0.89489 0.37934 0.80007 0.0
C92 C 0.82878 0.4504 0.85072 0.0
C93 C 0.80559 0.3179 0.81994 0.0
O94 O 0.87215 0.38869 0.82389 0.0
O95 O 0.88641 0.36685 0.76915 0.0
O96 O 0.77056 0.40726 0.8097 0.0
O97 O 0.81172 0.39066 0.77194 0.0
Co98 Co 0.68124 0.59436 0.31903 0.0
O99 O 0.67276 0.54439 0.31439 0.0
O100 O 0.68024 0.57304 0.36642 0.0
C101 C 0.72293 0.59952 0.27622 0.0
O102 O 0.69177 0.64533 0.33362 0.0
Co103 Co 0.66238 0.64419 0.25518 0.0
O104 O 0.68528 0.68128 0.2855 0.0
C105 C 0.60598 0.61253 0.29823 0.0
C106 C 0.6744 0.5434 0.34932 0.0
C107 C 0.694 0.67598 0.31829 0.0
O108 O 0.62894 0.60328 0.32186 0.0
O109 O 0.61419 0.62565 0.26752 0.0
O110 O 0.73102 0.58781 0.30812 0.0
O111 O 0.68957 0.60305 0.27004 0.0
Co112 Co 0.18488 0.33042 0.08942 0.0
O113 O 0.19582 0.33999 0.03975 0.0
O114 O 0.14222 0.32998 0.0613 0.0
C115 C 0.2268 0.2893 0.09929 0.0
O116 O 0.1636 0.31768 0.13823 0.0
Co117 Co 0.23826 0.34829 0.15028 0.0
O118 O 0.20567 0.32067 0.18091 0.0
C119 C 0.19626 0.40583 0.11814 0.0
C120 C 0.16234 0.33618 0.03363 0.0
C121 C 0.17466 0.31264 0.17068 0.0
O122 O 0.17952 0.38306 0.09874 0.0
O123 O 0.22166 0.39766 0.13922 0.0
O124 O 0.19768 0.2808 0.08309 0.0
O125 O 0.23145 0.323 0.10506 0.0
Co126 Co 0.68927 0.16187 0.89821 0.0
O127 O 0.70091 0.15137 0.94737 0.0
O128 O 0.64695 0.16156 0.92704 0.0
C129 C 0.73114 0.2032 0.88889 0.0
O130 O 0.66753 0.17575 0.84998 0.0
Co131 Co 0.74213 0.14502 0.83661 0.0
O132 O 0.7097 0.1741 0.8073 0.0
C133 C 0.70016 0.08699 0.86793 0.0
C134 C 0.66758 0.15503 0.95425 0.0
C135 C 0.67873 0.18192 0.81779 0.0
O136 O 0.68369 0.1095 0.88782 0.0
O137 O 0.72545 0.09544 0.84682 0.0
O138 O 0.70218 0.2113 0.90552 0.0
O139 O 0.73571 0.16964 0.88225 0.0
Co140 Co 0.81033 0.8301 0.39973 0.0
O141 O 0.79821 0.84068 0.44881 0.0
O142 O 0.85228 0.82996 0.42912 0.0
C143 C 0.76804 0.78945 0.38965 0.0
O144 O 0.83258 0.81606 0.35172 0.0
Co145 Co 0.75841 0.84749 0.3373 0.0
O146 O 0.79123 0.81861 0.30823 0.0
C147 C 0.80058 0.90497 0.36952 0.0
C148 C 0.83143 0.83675 0.45609 0.0
C149 C 0.82193 0.81038 0.31922 0.0
O150 O 0.81664 0.88235 0.38957 0.0
O151 O 0.77546 0.8968 0.34807 0.0
O152 O 0.79666 0.78086 0.40668 0.0
O153 O 0.76406 0.82305 0.38306 0.0
Co154 Co 0.31605 0.66102 0.5906 0.0
O155 O 0.3058 0.65037 0.54096 0.0
O156 O 0.35902 0.66152 0.56288 0.0
C157 C 0.2735 0.70167 0.59919 0.0
O158 O 0.33653 0.67492 0.63956 0.0
Co159 Co 0.26201 0.6435 0.65101 0.0
O160 O 0.29387 0.67201 0.68165 0.0
C161 C 0.305 0.58601 0.62009 0.0
C162 C 0.33927 0.6545 0.53511 0.0
C163 C 0.32492 0.68031 0.67178 0.0
O164 O 0.32193 0.6087 0.60083 0.0
O165 O 0.27913 0.59417 0.64057 0.0
O166 O 0.30271 0.71028 0.58324 0.0
O167 O 0.26921 0.66803 0.60549 0.0
Co168 Co 0.91192 0.81403 0.67176 0.0
O169 O 0.95891 0.8095 0.65286 0.0
O170 O 0.93562 0.85943 0.67396 0.0
C171 C 0.91394 0.76655 0.70854 0.0
O172 O 0.86559 0.82859 0.69545 0.0
Co173 Co 0.85523 0.75546 0.65841 0.0
O174 O 0.82754 0.78259 0.69417 0.0
C175 C 0.8721 0.80695 0.60088 0.0
C176 C 0.96302 0.84273 0.66152 0.0
C177 C 0.83618 0.8138 0.70425 0.0
O178 O 0.89296 0.82417 0.62194 0.0
O179 O 0.85623 0.77821 0.60966 0.0
O180 O 0.92796 0.79661 0.71798 0.0
O181 O 0.9025 0.76482 0.67567 0.0
Co182 Co 0.58975 0.18044 0.17059 0.0
O183 O 0.54328 0.19072 0.15378 0.0
O184 O 0.56136 0.13743 0.17122 0.0
C185 C 0.59225 0.22635 0.20942 0.0
O186 O 0.63528 0.16098 0.19232 0.0
Co187 Co 0.65022 0.23504 0.15762 0.0
O188 O 0.6758 0.20489 0.1924 0.0
C189 C 0.6285 0.18657 0.09901 0.0
C190 C 0.53552 0.15799 0.16138 0.0
C191 C 0.66552 0.17387 0.20139 0.0
O192 O 0.60646 0.17072 0.11986 0.0
O193 O 0.64693 0.21354 0.10837 0.0
O194 O 0.57649 0.19699 0.21805 0.0
O195 O 0.60312 0.22853 0.17638 0.0
Co196 Co 0.41081 0.66898 0.31552 0.0
O197 O 0.45815 0.6731 0.33324 0.0
O198 O 0.43366 0.62311 0.31352 0.0
C199 C 0.41248 0.71578 0.27784 0.0
O200 O 0.36358 0.65532 0.29336 0.0
Co201 Co 0.35656 0.72911 0.33113 0.0
O202 O 0.32697 0.7024 0.29636 0.0
C203 C 0.37765 0.68033 0.38905 0.0
C204 C 0.46148 0.63963 0.32537 0.0
C205 C 0.33443 0.67108 0.28558 0.0
O206 O 0.39306 0.66001 0.36604 0.0
O207 O 0.36438 0.7106 0.38117 0.0
O208 O 0.42584 0.68543 0.26843 0.0
O209 O 0.40242 0.71813 0.31114 0.0
Co210 Co 0.08953 0.31958 0.81487 0.0
O211 O 0.04233 0.31564 0.83304 0.0
O212 O 0.06687 0.36552 0.8132 0.0
C213 C 0.08746 0.27275 0.77721 0.0
O214 O 0.13659 0.33318 0.79239 0.0
Co215 Co 0.14392 0.25939 0.82982 0.0
O216 O 0.1734 0.28626 0.79516 0.0
C217 C 0.12376 0.30851 0.8879 0.0
C218 C 0.03911 0.34915 0.82533 0.0
C219 C 0.1658 0.31757 0.78453 0.0
O220 O 0.10775 0.32858 0.86517 0.0
O221 O 0.13714 0.27831 0.87989 0.0
O222 O 0.07404 0.30311 0.76794 0.0
O223 O 0.09784 0.27041 0.8104 0.0
Co224 Co 0.67193 0.86229 0.84958 0.0
O225 O 0.62772 0.85824 0.87454 0.0
O226 O 0.63339 0.8666 0.81567 0.0
C227 C 0.70015 0.81578 0.87473 0.0
O228 O 0.71308 0.86533 0.81456 0.0
Co229 Co 0.73966 0.88039 0.89327 0.0
O230 O 0.76334 0.87021 0.84661 0.0
C231 C 0.68857 0.93637 0.87897 0.0
C232 C 0.61276 0.86181 0.84325 0.0
C233 C 0.74694 0.86619 0.81685 0.0
O234 O 0.67253 0.91567 0.85668 0.0
O235 O 0.71338 0.92599 0.89972 0.0
O236 O 0.6773 0.81055 0.84915 0.0
O237 O 0.70061 0.84767 0.88781 0.0
Co238 Co 0.8267 0.12893 0.34941 0.0
O239 O 0.87067 0.1344 0.37448 0.0
O240 O 0.86535 0.1246 0.31575 0.0
C241 C 0.79783 0.17545 0.37364 0.0
O242 O 0.78585 0.12422 0.3142 0.0
Co243 Co 0.75882 0.11073 0.39272 0.0
O244 O 0.7353 0.11918 0.34562 0.0
C245 C 0.8111 0.05536 0.38009 0.0
C246 C 0.88576 0.13048 0.3433 0.0
C247 C 0.752 0.12264 0.31597 0.0
O248 O 0.82706 0.07585 0.35761 0.0
O249 O 0.78585 0.06572 0.4003 0.0
O250 O 0.82052 0.18049 0.34791 0.0
O251 O 0.79759 0.14377 0.3872 0.0
Co252 Co 0.16887 0.63011 0.13859 0.0
O253 O 0.12456 0.63463 0.11393 0.0
O254 O 0.13054 0.62496 0.17257 0.0
C255 C 0.19689 0.67723 0.11425 0.0
O256 O 0.21011 0.62627 0.17339 0.0
Co257 Co 0.23644 0.61315 0.09427 0.0
O258 O 0.26028 0.62197 0.14116 0.0
C259 C 0.18552 0.55659 0.10772 0.0
C260 C 0.10977 0.63028 0.1452 0.0
C261 C 0.24394 0.62522 0.17105 0.0
O262 O 0.16939 0.57691 0.13027 0.0
O263 O 0.21038 0.56739 0.08721 0.0
O264 O 0.17428 0.68185 0.14015 0.0
O265 O 0.19736 0.6456 0.10055 0.0
Co266 Co 0.33207 0.36176 0.63956 0.0
O267 O 0.37647 0.35775 0.61504 0.0
O268 O 0.3702 0.36663 0.67382 0.0
C269 C 0.3042 0.31497 0.61443 0.0
O270 O 0.29064 0.36499 0.67417 0.0
Co271 Co 0.26473 0.37925 0.59508 0.0
O272 O 0.24066 0.36971 0.64167 0.0
C273 C 0.31573 0.43545 0.6094 0.0
C274 C 0.3911 0.36186 0.64644 0.0
C275 C 0.25682 0.36598 0.6716 0.0
O276 O 0.33148 0.415 0.63205 0.0
O277 O 0.29112 0.42485 0.58847 0.0
O278 O 0.32678 0.31001 0.6403 0.0
O279 O 0.3038 0.34675 0.60115 0.0
Co280 Co 0.85884 0.65391 0.87919 0.0
O281 O 0.88295 0.60906 0.8791 0.0
O282 O 0.8265 0.61639 0.89222 0.0
C283 C 0.88036 0.67321 0.82594 0.0
O284 O 0.82443 0.69542 0.88058 0.0
Co285 Co 0.90079 0.72538 0.87938 0.0
O286 O 0.85353 0.7475 0.87599 0.0
C287 C 0.89352 0.68396 0.94661 0.0
C288 C 0.85287 0.59483 0.88743 0.0
C289 C 0.82512 0.7296 0.87864 0.0
O290 O 0.87185 0.6622 0.9314 0.0
O291 O 0.91018 0.70825 0.92945 0.0
O292 O 0.85359 0.65165 0.82655 0.0
O293 O 0.89474 0.67955 0.85676 0.0
Co294 Co 0.35481 0.84041 0.11518 0.0
O295 O 0.38032 0.88425 0.11933 0.0
O296 O 0.32325 0.88006 0.1075 0.0
C297 C 0.3771 0.81461 0.16503 0.0
O298 O 0.31964 0.7997 0.11057 0.0
Co299 Co 0.39667 0.77009 0.10329 0.0
O300 O 0.34928 0.74788 0.10655 0.0
C301 C 0.38764 0.81983 0.04323 0.0
C302 C 0.35057 0.90017 0.11351 0.0
C303 C 0.32063 0.76554 0.10804 0.0
O304 O 0.36525 0.83773 0.06191 0.0
O305 O 0.40625 0.79456 0.05626 0.0
O306 O 0.35129 0.8371 0.16775 0.0
O307 O 0.39075 0.81169 0.1333 0.0
Co308 Co 0.14668 0.15202 0.61248 0.0
O309 O 0.12207 0.10754 0.61475 0.0
O310 O 0.1791 0.11347 0.60347 0.0
C311 C 0.12366 0.17576 0.66304 0.0
O312 O 0.18116 0.19334 0.60947 0.0
Co313 Co 0.10404 0.22217 0.603 0.0
O314 O 0.15115 0.24498 0.60668 0.0
C315 C 0.11328 0.17413 0.5415 0.0
C316 C 0.15219 0.09255 0.60833 0.0
C317 C 0.17992 0.22751 0.60782 0.0
O318 O 0.13629 0.15627 0.55937 0.0
O319 O 0.09429 0.19863 0.55548 0.0
O320 O 0.14988 0.15367 0.66516 0.0
O321 O 0.11017 0.17949 0.63132 0.0
Co322 Co 0.64353 0.34089 0.37981 0.0
O323 O 0.62057 0.38628 0.37927 0.0
O324 O 0.67671 0.37751 0.39307 0.0
C325 C 0.62263 0.32161 0.32639 0.0
O326 O 0.67668 0.29846 0.38174 0.0
Co327 Co 0.59936 0.27085 0.38015 0.0
O328 O 0.64597 0.24736 0.37663 0.0
C329 C 0.60725 0.31253 0.44712 0.0
C330 C 0.65093 0.39971 0.38791 0.0
C331 C 0.67491 0.26434 0.37953 0.0
O332 O 0.62974 0.33335 0.43187 0.0
O333 O 0.58996 0.28861 0.43004 0.0
O334 O 0.64973 0.34271 0.32736 0.0
O335 O 0.60735 0.31606 0.35692 0.0
C336 C 0.12439 0.2722 0.18578 0.0
C337 C 0.15126 0.29532 0.19715 0.0
H338 H 0.08593 0.23347 0.20147 0.0
C339 C 0.15753 0.29961 0.23427 0.0
H340 H 0.11904 0.26831 0.15734 0.0
C341 C 0.13835 0.28005 0.25947 0.0
C342 C 0.11293 0.25537 0.24804 0.0
H343 H 0.17786 0.31752 0.24385 0.0
H344 H 0.14445 0.28332 0.28781 0.0
C345 C 0.10554 0.25219 0.21102 0.0
C346 C 0.35923 0.71477 0.76084 0.0
C347 C 0.38479 0.73932 0.74955 0.0
H348 H 0.32023 0.67682 0.74498 0.0
C349 C 0.39288 0.7419 0.71264 0.0
H350 H 0.35257 0.71201 0.78909 0.0
C351 C 0.37464 0.72137 0.68731 0.0
C352 C 0.34767 0.69829 0.69847 0.0
H353 H 0.41262 0.76052 0.7032 0.0
H354 H 0.38055 0.72477 0.65893 0.0
C355 C 0.34066 0.69466 0.73553 0.0
C356 C 0.61176 0.24572 0.77927 0.0
C357 C 0.61878 0.24287 0.74216 0.0
H358 H 0.62498 0.22804 0.83255 0.0
C359 C 0.64307 0.2174 0.73009 0.0
H360 H 0.59301 0.26505 0.78927 0.0
C361 C 0.66153 0.1966 0.75475 0.0
C362 C 0.65566 0.20044 0.79195 0.0
H363 H 0.64884 0.21435 0.70166 0.0
H364 H 0.68105 0.17807 0.74468 0.0
C365 C 0.6299 0.22445 0.804 0.0
C366 C 0.88896 0.74672 0.28034 0.0
C367 C 0.88298 0.7509 0.24317 0.0
H368 H 0.87455 0.76287 0.33386 0.0
C369 C 0.8594 0.77716 0.23137 0.0
H370 H 0.90712 0.72674 0.29016 0.0
C371 C 0.84059 0.79742 0.25624 0.0
C372 C 0.84539 0.79226 0.29344 0.0
H373 H 0.85445 0.78127 0.20292 0.0
H374 H 0.82165 0.8166 0.24631 0.0
C375 C 0.87047 0.76745 0.30532 0.0
C376 C 0.21134 0.11063 0.23229 0.0
C377 C 0.24674 0.11532 0.24257 0.0
H378 H 0.15746 0.12564 0.24139 0.0
C379 C 0.25447 0.13648 0.27273 0.0
H380 H 0.2046 0.0943 0.20921 0.0
C381 C 0.2277 0.15458 0.2907 0.0
C382 C 0.19253 0.1515 0.27929 0.0
H383 H 0.28137 0.14035 0.28159 0.0
H384 H 0.23471 0.17184 0.31301 0.0
C385 C 0.18436 0.12843 0.25071 0.0
C386 C 0.26901 0.83747 0.78737 0.0
C387 C 0.30477 0.84232 0.77864 0.0
H388 H 0.21543 0.84939 0.77446 0.0
C389 C 0.31376 0.86618 0.75105 0.0
H390 H 0.26126 0.81951 0.8088 0.0
C391 C 0.28731 0.88306 0.73105 0.0
C392 C 0.25153 0.8767 0.73866 0.0
H393 H 0.34105 0.87037 0.74371 0.0
H394 H 0.29489 0.90015 0.70885 0.0
C395 C 0.2427 0.85464 0.76775 0.0
C396 C 0.76049 0.3599 0.72381 0.0
C397 C 0.75106 0.38127 0.7533 0.0
H398 H 0.74282 0.32503 0.68196 0.0
C399 C 0.71516 0.38677 0.76077 0.0
H400 H 0.78788 0.35534 0.71718 0.0
C401 C 0.68919 0.36974 0.74021 0.0
C402 C 0.69878 0.34653 0.7122 0.0
H403 H 0.70712 0.40329 0.78327 0.0
H404 H 0.66178 0.37327 0.74746 0.0
C405 C 0.73464 0.3425 0.70366 0.0
C406 C 0.81202 0.62502 0.23842 0.0
C407 C 0.80244 0.64899 0.21112 0.0
H408 H 0.79414 0.59063 0.28071 0.0
C409 C 0.76654 0.6536 0.203 0.0
H410 H 0.83945 0.62103 0.24533 0.0
C411 C 0.74068 0.63594 0.22289 0.0
C412 C 0.75016 0.61377 0.25171 0.0
H413 H 0.75836 0.67169 0.18187 0.0
H414 H 0.71328 0.64094 0.21666 0.0
C415 C 0.78607 0.60777 0.25874 0.0
C416 C 0.26313 0.19876 0.12313 0.0
C417 C 0.28455 0.20688 0.15286 0.0
H418 H 0.22789 0.21873 0.08288 0.0
C419 C 0.28958 0.24275 0.16253 0.0
H420 H 0.25878 0.1714 0.11504 0.0
C421 C 0.27237 0.26987 0.14379 0.0
C422 C 0.24927 0.26157 0.11549 0.0
H423 H 0.30629 0.24985 0.18511 0.0
H424 H 0.27601 0.29712 0.15252 0.0
C425 C 0.2454 0.22586 0.10481 0.0
C426 C 0.79429 0.2526 0.82802 0.0
C427 C 0.79001 0.28784 0.84017 0.0
H428 H 0.77964 0.19787 0.83449 0.0
C429 C 0.76886 0.29426 0.87053 0.0
H430 H 0.8107 0.24673 0.80487 0.0
C431 C 0.75081 0.26636 0.88713 0.0
C432 C 0.75395 0.2314 0.87407 0.0
H433 H 0.76503 0.32105 0.88062 0.0
H434 H 0.73365 0.27234 0.90967 0.0
C435 C 0.77665 0.22457 0.84504 0.0
C436 C 0.7234 0.76892 0.34444 0.0
C437 C 0.74516 0.7617 0.37414 0.0
H438 H 0.69025 0.74728 0.30311 0.0
C439 C 0.74738 0.72673 0.38722 0.0
H440 H 0.72111 0.79566 0.33388 0.0
C441 C 0.72944 0.69916 0.36999 0.0
C442 C 0.7093 0.7059 0.33896 0.0
H443 H 0.76377 0.72048 0.41028 0.0
H444 H 0.73258 0.67234 0.38017 0.0
C445 C 0.70586 0.74118 0.32677 0.0
C446 C 0.23532 0.79209 0.61952 0.0
C447 C 0.21368 0.78471 0.64928 0.0
H448 H 0.27124 0.77139 0.58036 0.0
C449 C 0.2092 0.74913 0.66022 0.0
H450 H 0.23928 0.81917 0.61039 0.0
C451 C 0.22714 0.72167 0.64266 0.0
C452 C 0.25035 0.7294 0.61429 0.0
H453 H 0.19239 0.74255 0.68287 0.0
H454 H 0.22396 0.69468 0.65232 0.0
C455 C 0.25368 0.76472 0.60238 0.0
C456 C 0.91969 0.71675 0.79595 0.0
C457 C 0.89094 0.69338 0.7936 0.0
H458 H 0.9495 0.75783 0.77064 0.0
C459 C 0.87173 0.69146 0.76121 0.0
H460 H 0.93532 0.71855 0.82032 0.0
C461 C 0.88022 0.71395 0.7323 0.0
C462 C 0.90775 0.73874 0.73573 0.0
H463 H 0.84953 0.67353 0.75866 0.0
H464 H 0.8643 0.71307 0.70809 0.0
C465 C 0.92787 0.73925 0.76743 0.0
C466 C 0.57741 0.25384 0.26798 0.0
C467 C 0.59834 0.25398 0.23682 0.0
H468 H 0.5683 0.27557 0.3202 0.0
C469 C 0.62582 0.27882 0.23374 0.0
H470 H 0.55576 0.23525 0.27087 0.0
C471 C 0.63331 0.30195 0.26244 0.0
C472 C 0.61314 0.30061 0.29425 0.0
H473 H 0.64231 0.27938 0.20991 0.0
H474 H 0.65543 0.32002 0.26018 0.0
C475 C 0.5846 0.27699 0.29627 0.0
C476 C 0.38145 0.77105 0.25713 0.0
C477 C 0.40543 0.74338 0.25059 0.0
H478 H 0.35334 0.8154 0.23485 0.0
C479 C 0.4213 0.74063 0.2165 0.0
H480 H 0.36879 0.77373 0.28316 0.0
C481 C 0.41271 0.76442 0.1891 0.0
C482 C 0.3878 0.79131 0.19508 0.0
H483 H 0.44005 0.71967 0.21073 0.0
H484 H 0.42508 0.76118 0.16299 0.0
C485 C 0.37255 0.79477 0.22948 0.0
C486 C 0.08683 0.22445 0.68827 0.0
C487 C 0.11253 0.19819 0.69362 0.0
H488 H 0.05874 0.26837 0.71067 0.0
C489 C 0.12824 0.19477 0.7278 0.0
H490 H 0.07405 0.22761 0.66236 0.0
C491 C 0.11912 0.21806 0.7558 0.0
C492 C 0.09448 0.24525 0.7498 0.0
H493 H 0.14804 0.17462 0.73269 0.0
H494 H 0.13221 0.21553 0.78162 0.0
C495 C 0.07803 0.24781 0.716 0.0
C496 C 0.80366 0.8688 0.78264 0.0
C497 C 0.76809 0.85846 0.78436 0.0
H498 H 0.85306 0.86331 0.75531 0.0
C499 C 0.75422 0.83691 0.75686 0.0
H500 H 0.81501 0.88555 0.80342 0.0
C501 C 0.77611 0.82377 0.72969 0.0
C502 C 0.81212 0.83248 0.72913 0.0
H503 H 0.72697 0.82837 0.75753 0.0
H504 H 0.76509 0.80572 0.70986 0.0
C505 C 0.82541 0.8562 0.75505 0.0
C506 C 0.67404 0.13239 0.25329 0.0
C507 C 0.68856 0.15371 0.22602 0.0
H508 H 0.68291 0.10574 0.3035 0.0
C509 C 0.72505 0.16004 0.22585 0.0
H510 H 0.64598 0.12722 0.25413 0.0
C511 C 0.74625 0.1475 0.25382 0.0
C512 C 0.73124 0.1289 0.28284 0.0
H513 H 0.73696 0.17623 0.20497 0.0
H514 H 0.77392 0.15451 0.25386 0.0
C515 C 0.69517 0.12033 0.28165 0.0
C516 C 0.32226 0.6305 0.23364 0.0
C517 C 0.30968 0.6538 0.2603 0.0
H518 H 0.31117 0.60321 0.1842 0.0
C519 C 0.27402 0.66383 0.25979 0.0
H520 H 0.34964 0.62243 0.23327 0.0
C521 C 0.25187 0.65241 0.23201 0.0
C522 C 0.26517 0.63134 0.20385 0.0
H523 H 0.26357 0.68164 0.28013 0.0
H524 H 0.22495 0.66192 0.23143 0.0
C525 C 0.30029 0.61966 0.20546 0.0
C526 C 0.20022 0.37058 0.70568 0.0
C527 C 0.2354 0.35908 0.70407 0.0
H528 H 0.1507 0.36704 0.73305 0.0
C529 C 0.24858 0.3374 0.73178 0.0
H530 H 0.18943 0.38746 0.68475 0.0
C531 C 0.22628 0.32529 0.7591 0.0
C532 C 0.19059 0.3352 0.7596 0.0
H533 H 0.27553 0.328 0.73117 0.0
H534 H 0.23668 0.3071 0.7791 0.0
C535 C 0.1781 0.35903 0.73341 0.0
C536 C 0.79034 0.78173 0.89954 0.0
C537 C 0.79169 0.74942 0.88061 0.0
H538 H 0.75973 0.82705 0.91423 0.0
C539 C 0.76131 0.73702 0.86302 0.0
H540 H 0.81326 0.79154 0.91387 0.0
C541 C 0.73074 0.75785 0.86246 0.0
C542 C 0.72989 0.79096 0.8802 0.0
H543 H 0.7617 0.71206 0.8484 0.0
H544 H 0.70822 0.74858 0.84718 0.0
C545 C 0.7596 0.802 0.89984 0.0
C546 C 0.22717 0.73535 0.12685 0.0
C547 C 0.22616 0.70261 0.10843 0.0
H548 H 0.25792 0.78133 0.14088 0.0
C549 C 0.25527 0.69253 0.08744 0.0
H550 H 0.20509 0.74388 0.1432 0.0
C551 C 0.28563 0.71344 0.08687 0.0
C552 C 0.28726 0.74537 0.1065 0.0
H553 H 0.25525 0.66774 0.07257 0.0
H554 H 0.3081 0.70433 0.07141 0.0
C555 C 0.25738 0.75675 0.1256 0.0
C556 C 0.27354 0.25707 0.62668 0.0
C557 C 0.2747 0.28991 0.60853 0.0
H558 H 0.24253 0.21124 0.64043 0.0
C559 C 0.24551 0.30043 0.58787 0.0
H560 H 0.29567 0.24821 0.64276 0.0
C561 C 0.21493 0.27984 0.58739 0.0
C562 C 0.21322 0.24776 0.60669 0.0
H563 H 0.24565 0.3253 0.57319 0.0
H564 H 0.19244 0.28923 0.57215 0.0
C565 C 0.24314 0.23598 0.62545 0.0
C566 C 0.73851 0.25576 0.36408 0.0
C567 C 0.70773 0.24355 0.38102 0.0
H568 H 0.79142 0.24348 0.34825 0.0
C569 C 0.7081 0.21054 0.39867 0.0
H570 H 0.73886 0.28122 0.35041 0.0
C571 C 0.73832 0.1895 0.39839 0.0
C572 C 0.76844 0.20053 0.37946 0.0
H573 H 0.68484 0.20082 0.41244 0.0
H574 H 0.73748 0.16397 0.41181 0.0
C575 C 0.76853 0.23421 0.36294 0.0
C576 C 0.14472 0.16858 0.48317 0.0
C577 C 0.11272 0.17088 0.50199 0.0
H578 H 0.1708 0.1748 0.43229 0.0
C579 C 0.08128 0.17606 0.48271 0.0
H580 H 0.16934 0.16501 0.49748 0.0
C581 C 0.08208 0.1807 0.44531 0.0
C582 C 0.11442 0.18138 0.4271 0.0
H583 H 0.05635 0.17807 0.49676 0.0
H584 H 0.05777 0.18619 0.43105 0.0
C585 C 0.14561 0.17441 0.44603 0.0
C586 C 0.41867 0.81844 0.98386 0.0
C587 C 0.38766 0.82395 0.00376 0.0
H588 H 0.44114 0.80842 0.93167 0.0
C589 C 0.35542 0.8271 0.98549 0.0
H590 H 0.44379 0.81573 -0.00255 0.0
C591 C 0.3538 0.8217 0.94828 0.0
C592 C 0.38453 0.81434 0.92871 0.0
H593 H 0.3311 0.8309 0.00027 0.0
H594 H 0.32839 0.82187 0.93498 0.0
C595 C 0.41717 0.81424 0.9464 0.0
C596 C 0.61906 0.33998 0.50799 0.0
C597 C 0.60427 0.31261 0.4869 0.0
H598 H 0.63337 0.35726 0.56138 0.0
C599 C 0.58972 0.28275 0.5043 0.0
H600 H 0.6304 0.36333 0.49539 0.0
C601 C 0.59216 0.27908 0.54152 0.0
C602 C 0.6083 0.30554 0.56229 0.0
H603 H 0.57813 0.26109 0.48907 0.0
H604 H 0.58231 0.25499 0.55404 0.0
C605 C 0.62071 0.33661 0.54561 0.0
C606 C 0.90623 0.71931 0.04073 0.0
C607 C 0.89274 0.69166 0.06185 0.0
H608 H 0.91801 0.73811 0.98806 0.0
C609 C 0.88266 0.65956 0.04539 0.0
H610 H 0.9143 0.7442 0.053 0.0
C611 C 0.88402 0.65615 0.00774 0.0
C612 C 0.89632 0.68451 0.9864 0.0
H613 H 0.87207 0.63796 0.06141 0.0
H614 H 0.87457 0.63184 -0.00467 0.0
C615 C 0.90844 0.71564 0.0035 0.0
C616 C 0.4476 0.10978 0.16832 0.0
C617 C 0.4285 0.13437 0.18934 0.0
H618 H 0.4975 0.09744 0.14333 0.0
C619 C 0.44497 0.16602 0.20027 0.0
H620 H 0.43545 0.08516 0.15954 0.0
C621 C 0.47939 0.17336 0.19011 0.0
C622 C 0.49868 0.14894 0.16946 0.0
H623 H 0.43103 0.18563 0.21624 0.0
H624 H 0.49122 0.19808 0.19911 0.0
C625 C 0.48287 0.11675 0.15901 0.0
C626 C 0.02489 0.84842 0.63968 0.0
C627 C 0.99867 0.85781 0.66459 0.0
H628 H 0.08023 0.84701 0.62812 0.0
C629 C 0.0082 0.87601 0.69624 0.0
H630 H 0.01813 0.83403 0.61529 0.0
C631 C 0.04368 0.8821 0.70424 0.0
C632 C 0.07 0.87128 0.68007 0.0
H633 H 0.98848 0.88299 0.71614 0.0
H634 H 0.05063 0.89411 0.72986 0.0
C635 C 0.06029 0.85575 0.64706 0.0
C636 C 0.97835 0.35626 0.84933 0.0
C637 C 0.0039 0.36518 0.82354 0.0
H638 H 0.92338 0.35511 0.86245 0.0
C639 C 0.99374 0.38339 0.79218 0.0
H640 H 0.98565 0.3419 0.87353 0.0
C641 C 0.95811 0.38965 0.78518 0.0
C642 C 0.93237 0.37895 0.81008 0.0
H643 H 0.01297 0.39002 0.77166 0.0
H644 H 0.95056 0.40148 0.75969 0.0
C645 C 0.94284 0.36373 0.84295 0.0
C646 C 0.52238 0.63222 0.34885 0.0
C647 C 0.49682 0.62399 0.32282 0.0
H648 H 0.57738 0.6337 0.36175 0.0
C649 C 0.50708 0.60733 0.29059 0.0
H650 H 0.51499 0.64546 0.3737 0.0
C651 C 0.54277 0.60195 0.28312 0.0
C652 C 0.5685 0.61199 0.30835 0.0
H653 H 0.48783 0.60131 0.26988 0.0
H654 H 0.55035 0.59135 0.25707 0.0
C655 C 0.55796 0.62561 0.34195 0.0
C656 C 0.18417 0.45982 0.08121 0.0
C657 C 0.18678 0.44363 0.1152 0.0
H658 H 0.18197 0.50913 0.05212 0.0
C659 C 0.18367 0.4645 0.14642 0.0
H660 H 0.18662 0.44414 0.0568 0.0
C661 C 0.17968 0.50134 0.14375 0.0
C662 C 0.17998 0.5179 0.10983 0.0
H663 H 0.18551 0.45244 0.17289 0.0
H664 H 0.17909 0.51706 0.16827 0.0
C665 C 0.18143 0.49684 0.07854 0.0
C666 C 0.68448 0.99126 0.8422 0.0
C667 C 0.68311 0.97498 0.87624 0.0
H668 H 0.69188 0.03991 0.81298 0.0
C669 C 0.68326 0.99626 0.90739 0.0
H670 H 0.68494 0.97531 0.81783 0.0
C671 C 0.68633 0.03323 0.90457 0.0
C672 C 0.6906 0.04917 0.87062 0.0
H673 H 0.68255 0.98417 0.9339 0.0
H674 H 0.68773 0.04907 0.92897 0.0
C675 C 0.6888 0.02806 0.83943 0.0
C676 C 0.81581 0.99581 0.4092 0.0
C677 C 0.81715 0.01683 0.37793 0.0
H678 H 0.81058 0.94315 0.43085 0.0
C679 C 0.81751 0.0003 0.34397 0.0
H680 H 0.81523 0.00811 0.43563 0.0
C681 C 0.81352 0.96348 0.34123 0.0
C682 C 0.81033 0.94266 0.37244 0.0
H683 H 0.81804 0.01603 0.31949 0.0
H684 H 0.81163 0.95141 0.31474 0.0
C685 C 0.81306 0.95882 0.40646 0.0
C686 C 0.32094 0.49517 0.58065 0.0
C687 C 0.32137 0.47406 0.61188 0.0
H688 H 0.31653 0.54791 0.55899 0.0
C689 C 0.32072 0.4905 0.64588 0.0
H690 H 0.32115 0.48294 0.55417 0.0
C691 C 0.31676 0.52733 0.6486 0.0
C692 C 0.31462 0.54827 0.61736 0.0
H693 H 0.32053 0.4747 0.67032 0.0
H694 H 0.31413 0.53933 0.67505 0.0
C695 C 0.31823 0.53217 0.5834 0.0
C696 C 0.81943 0.83888 0.52204 0.0
C697 C 0.8439 0.83587 0.49378 0.0
H698 H 0.80964 0.83189 0.57847 0.0
C699 C 0.87923 0.82797 0.50197 0.0
H700 H 0.79209 0.84513 0.51668 0.0
C701 C 0.88931 0.82095 0.5376 0.0
C702 C 0.8641 0.82148 0.5652 0.0
H703 H 0.89865 0.82548 0.48072 0.0
H704 H 0.91617 0.81301 0.54323 0.0
C705 C 0.8294 0.83138 0.55739 0.0
C706 C 0.67889 0.15121 0.02017 0.0
C707 C 0.65485 0.15618 0.99182 0.0
H708 H 0.68891 0.15715 0.07667 0.0
C709 C 0.62012 0.16656 -0.00012 0.0
H710 H 0.70573 0.14297 0.01491 0.0
C711 C 0.61043 0.17422 0.03551 0.0
C712 C 0.63545 0.17178 0.06319 0.0
H713 H 0.60106 0.17062 0.97855 0.0
H714 H 0.5842 0.18411 0.04108 0.0
C715 C 0.66934 0.15927 0.05549 0.0
C716 C 0.39294 0.68156 0.45412 0.0
C717 C 0.37251 0.66761 0.42597 0.0
H718 H 0.39885 0.6874 0.5113 0.0
C719 C 0.34358 0.64583 0.43389 0.0
H720 H 0.41511 0.69882 0.44835 0.0
C721 C 0.33386 0.63981 0.46971 0.0
C722 C 0.35322 0.6552 0.49802 0.0
H723 H 0.32734 0.6352 0.41239 0.0
H724 H 0.31036 0.62437 0.4752 0.0
C725 C 0.38362 0.67501 0.48999 0.0
C726 C 0.16872 0.34895 0.96798 0.0
C727 C 0.14868 0.33492 -0.00353 0.0
H728 H 0.17568 0.35201 0.91062 0.0
C729 C 0.11769 0.31593 0.98868 0.0
H730 H 0.19267 0.36375 0.97328 0.0
C731 C 0.10832 0.30891 0.95291 0.0
C732 C 0.12938 0.32149 0.92464 0.0
H733 H 0.10192 0.3046 0.01015 0.0
H734 H 0.08557 0.29235 0.94736 0.0
C735 C 0.15902 0.34239 0.93225 0.0
C736 C 0.55547 0.83809 0.86522 0.0
C737 C 0.57429 0.85743 0.83917 0.0
H738 H 0.50642 0.81394 0.87981 0.0
C739 C 0.55636 0.87032 0.80864 0.0
H740 H 0.56854 0.82772 0.88896 0.0
C741 C 0.52036 0.86322 0.80395 0.0
C742 C 0.50224 0.84227 0.8292 0.0
H743 H 0.57027 0.88536 0.78819 0.0
H744 H 0.50716 0.87257 0.77985 0.0
C745 C 0.51996 0.83014 0.86 0.0
C746 C 0.94242 0.12201 0.30934 0.0
C747 C 0.92404 0.13584 0.33915 0.0
H748 H 0.99178 0.11975 0.2809 0.0
C749 C 0.94211 0.1571 0.36423 0.0
H750 H 0.92906 0.1055 0.28966 0.0
C751 C 0.97736 0.16592 0.3587 0.0
C752 C 0.99554 0.15276 0.32861 0.0
H753 H 0.92862 0.16824 0.38737 0.0
H754 H 0.99034 0.18347 0.37775 0.0
C755 C 0.97819 0.12998 0.30441 0.0
C756 C 0.05226 0.65401 0.124 0.0
C757 C 0.07131 0.63433 0.14958 0.0
H758 H 0.00308 0.67829 0.11027 0.0
C759 C 0.05365 0.62081 0.17999 0.0
H760 H 0.06514 0.66486 0.10036 0.0
C761 C 0.01768 0.6277 0.1851 0.0
C762 C 0.99936 0.64903 0.16038 0.0
H763 H 0.06775 0.60549 0.20007 0.0
H764 H 0.0047 0.61794 0.20916 0.0
C765 C 0.01679 0.66174 0.12965 0.0
C766 C 0.449 0.33951 0.6249 0.0
C767 C 0.42959 0.35837 0.65085 0.0
H768 H 0.49862 0.31646 0.61072 0.0
C769 C 0.44698 0.37172 0.68153 0.0
H770 H 0.43634 0.32883 0.60103 0.0
C771 C 0.48307 0.36544 0.68653 0.0
C772 C 0.50178 0.34491 0.6614 0.0
H773 H 0.43259 0.38643 0.70189 0.0
H774 H 0.49586 0.37501 0.7108 0.0
C775 C 0.4846 0.3324 0.63041 0.0
C776 C 0.81477 0.54043 0.89193 0.0
C777 C 0.84811 0.55584 0.88636 0.0
H778 H 0.78258 0.49375 0.88544 0.0
C779 C 0.87607 0.53416 0.87481 0.0
H780 H 0.79275 0.55648 0.90083 0.0
C781 C 0.8701 0.49866 0.86579 0.0
C782 C 0.83634 0.48405 0.86897 0.0
H783 H 0.90209 0.54515 0.87039 0.0
H784 H 0.89144 0.48313 0.85443 0.0
C785 C 0.80894 0.5046 0.88333 0.0
C786 C 0.37411 0.95756 0.13653 0.0
C787 C 0.34764 0.93909 0.11773 0.0
H788 H 0.38923 0.00621 0.16238 0.0
C789 C 0.31749 0.95759 0.10629 0.0
H790 H 0.39763 0.94406 0.14575 0.0
C791 C 0.31324 0.99363 0.11503 0.0
C792 C 0.33871 0.01112 0.13596 0.0
H793 H 0.29674 0.94397 0.09172 0.0
H794 H 0.28915 0.00711 0.10745 0.0
C795 C 0.36941 0.99311 0.14603 0.0
C796 C 0.19305 0.00076 0.6107 0.0
C797 C 0.16574 0.98127 0.62672 0.0
H798 H 0.21026 0.05203 0.59229 0.0
C799 C 0.13299 -0.00268 0.63246 0.0
H800 H 0.21868 0.98878 0.60663 0.0
C801 C 0.12797 0.03304 0.62394 0.0
C802 C 0.15597 0.05354 0.61044 0.0
H803 H 0.11175 0.98262 0.64511 0.0
H804 H 0.10273 0.04503 0.63004 0.0
C805 C 0.18827 0.03687 0.60278 0.0
C806 C 0.62807 0.46121 0.37971 0.0
C807 C 0.65665 0.4385 0.38673 0.0
H808 H 0.6117 0.51303 0.36242 0.0
C809 C 0.69094 0.45266 0.38725 0.0
H810 H 0.60134 0.45113 0.3793 0.0
C811 C 0.6967 0.48823 0.37785 0.0
C812 C 0.66824 0.50988 0.36812 0.0
H813 H 0.71345 0.43577 0.39249 0.0
H814 H 0.72344 0.49811 0.37584 0.0
C815 C 0.63388 0.49661 0.3702 0.0
loop_
_geom_bond_atom_site_label_1
_geom_bond_atom_site_label_2
_geom_bond_distance
_geom_bond_site_symmetry_2
_ccdc_geom_bond_type
Co0 O1 2.216 . S
Co0 O2 2.091 . S
Co0 O4 2.004 . S
Co0 O10 2.021 . S
Co0 O12 2.137 . S
Co0 O13 2.244 . S
O1 Co0 2.216 . S
O1 C8 1.247 . S
O2 Co0 2.091 . S
O2 C8 1.261 . S
C3 O12 1.247 . S
C3 O13 1.272 . S
O4 Co0 2.004 . S
O4 C9 1.259 . S
Co5 O6 2.061 . S
Co5 O11 2.052 . S
Co5 O13 2.135 . S
O6 Co5 2.061 . S
O6 C9 1.235 . S
C7 O10 1.238 . S
C7 O11 1.241 . S
C8 O1 1.247 . S
C8 O2 1.261 . S
C9 O4 1.259 . S
C9 O6 1.235 . S
O10 Co0 2.021 . S
O10 C7 1.238 . S
O11 Co5 2.052 . S
O11 C7 1.241 . S
O12 Co0 2.137 . S
O12 C3 1.247 . S
O13 Co0 2.244 . S
O13 C3 1.272 . S
O13 Co5 2.135 . S
Co14 O15 2.216 . S
Co14 O16 2.091 . S
Co14 O18 2.004 . S
Co14 O24 2.021 . S
Co14 O26 2.137 . S
Co14 O27 2.244 . S
O15 Co14 2.216 . S
O15 C22 1.247 . S
O16 Co14 2.091 . S
O16 C22 1.261 . S
C17 O26 1.247 . S
C17 O27 1.272 . S
O18 Co14 2.004 . S
O18 C23 1.259 . S
Co19 O20 2.061 . S
Co19 O25 2.052 . S
Co19 O27 2.135 . S
O20 Co19 2.061 . S
O20 C23 1.235 . S
C21 O24 1.238 . S
C21 O25 1.241 . S
C22 O15 1.247 . S
C22 O16 1.261 . S
C23 O18 1.259 . S
C23 O20 1.235 . S
O24 Co14 2.021 . S
O24 C21 1.238 . S
O25 Co19 2.052 . S
O25 C21 1.241 . S
O26 Co14 2.137 . S
O26 C17 1.247 . S
O27 Co14 2.244 . S
O27 C17 1.272 . S
O27 Co19 2.135 . S
Co28 O29 2.216 . S
Co28 O30 2.091 . S
Co28 O32 2.004 . S
Co28 O38 2.021 . S
Co28 O40 2.137 . S
Co28 O41 2.244 . S
O29 Co28 2.216 . S
O29 C36 1.247 . S
O30 Co28 2.091 . S
O30 C36 1.261 . S
C31 O40 1.247 . S
C31 O41 1.272 . S
O32 Co28 2.004 . S
O32 C37 1.259 . S
Co33 O34 2.061 . S
Co33 O39 2.052 . S
Co33 O41 2.135 . S
O34 Co33 2.061 . S
O34 C37 1.235 . S
C35 O38 1.238 . S
C35 O39 1.241 . S
C36 O29 1.247 . S
C36 O30 1.261 . S
C37 O32 1.259 . S
C37 O34 1.235 . S
O38 Co28 2.021 . S
O38 C35 1.238 . S
O39 Co33 2.052 . S
O39 C35 1.241 . S
O40 Co28 2.137 . S
O40 C31 1.247 . S
O41 Co28 2.244 . S
O41 C31 1.272 . S
O41 Co33 2.135 . S
Co42 O43 2.216 . S
Co42 O44 2.091 . S
Co42 O46 2.004 . S
Co42 O52 2.021 . S
Co42 O54 2.137 . S
Co42 O55 2.244 . S
O43 Co42 2.216 . S
O43 C50 1.247 . S
O44 Co42 2.091 . S
O44 C50 1.261 . S
C45 O54 1.247 . S
C45 O55 1.272 . S
O46 Co42 2.004 . S
O46 C51 1.259 . S
Co47 O48 2.061 . S
Co47 O53 2.052 . S
Co47 O55 2.135 . S
O48 Co47 2.061 . S
O48 C51 1.235 . S
C49 O52 1.238 . S
C49 O53 1.241 . S
C50 O43 1.247 . S
C50 O44 1.261 . S
C51 O46 1.259 . S
C51 O48 1.235 . S
O52 Co42 2.021 . S
O52 C49 1.238 . S
O53 Co47 2.052 . S
O53 C49 1.241 . S
O54 Co42 2.137 . S
O54 C45 1.247 . S
O55 Co42 2.244 . S
O55 C45 1.272 . S
O55 Co47 2.135 . S
Co56 O57 2.216 . S
Co56 O58 2.091 . S
Co56 O60 2.004 . S
Co56 O66 2.021 . S
Co56 O68 2.137 . S
Co56 O69 2.244 . S
O57 Co56 2.216 . S
O57 C64 1.247 . S
O58 Co56 2.091 . S
O58 C64 1.261 . S
C59 O68 1.247 . S
C59 O69 1.272 . S
O60 Co56 2.004 . S
O60 C65 1.259 . S
Co61 O62 2.061 . S
Co61 O67 2.052 . S
Co61 O69 2.135 . S
O62 Co61 2.061 . S
O62 C65 1.235 . S
C63 O66 1.238 . S
C63 O67 1.241 . S
C64 O57 1.247 . S
C64 O58 1.261 . S
C65 O60 1.259 . S
C65 O62 1.235 . S
O66 Co56 2.021 . S
O66 C63 1.238 . S
O67 Co61 2.052 . S
O67 C63 1.241 . S
O68 Co56 2.137 . S
O68 C59 1.247 . S
O69 Co56 2.244 . S
O69 C59 1.272 . S
O69 Co61 2.135 . S
Co70 O71 2.216 . S
Co70 O72 2.091 . S
Co70 O74 2.004 . S
Co70 O80 2.021 . S
Co70 O82 2.137 . S
Co70 O83 2.244 . S
O71 Co70 2.216 . S
O71 C78 1.247 . S
O72 Co70 2.091 . S
O72 C78 1.261 . S
C73 O82 1.247 . S
C73 O83 1.272 . S
O74 Co70 2.004 . S
O74 C79 1.259 . S
Co75 O76 2.061 . S
Co75 O81 2.052 . S
Co75 O83 2.135 . S
O76 Co75 2.061 . S
O76 C79 1.235 . S
C77 O80 1.238 . S
C77 O81 1.241 . S
C78 O71 1.247 . S
C78 O72 1.261 . S
C79 O74 1.259 . S
C79 O76 1.235 . S
O80 Co70 2.021 . S
O80 C77 1.238 . S
O81 Co75 2.052 . S
O81 C77 1.241 . S
O82 Co70 2.137 . S
O82 C73 1.247 . S
O83 Co70 2.244 . S
O83 C73 1.272 . S
O83 Co75 2.135 . S
Co84 O85 2.216 . S
Co84 O86 2.091 . S
Co84 O88 2.004 . S
Co84 O94 2.021 . S
Co84 O96 2.137 . S
Co84 O97 2.244 . S
O85 Co84 2.216 . S
O85 C92 1.247 . S
O86 Co84 2.091 . S
O86 C92 1.261 . S
C87 O96 1.247 . S
C87 O97 1.272 . S
O88 Co84 2.004 . S
O88 C93 1.259 . S
Co89 O90 2.061 . S
Co89 O95 2.052 . S
Co89 O97 2.135 . S
O90 Co89 2.061 . S
O90 C93 1.235 . S
C91 O94 1.238 . S
C91 O95 1.241 . S
C92 O85 1.247 . S
C92 O86 1.261 . S
C93 O88 1.259 . S
C93 O90 1.235 . S
O94 Co84 2.021 . S
O94 C91 1.238 . S
O95 Co89 2.052 . S
O95 C91 1.241 . S
O96 Co84 2.137 . S
O96 C87 1.247 . S
O97 Co84 2.244 . S
O97 C87 1.272 . S
O97 Co89 2.135 . S
Co98 O99 2.216 . S
Co98 O100 2.091 . S
Co98 O102 2.004 . S
Co98 O108 2.021 . S
Co98 O110 2.137 . S
Co98 O111 2.244 . S
O99 Co98 2.216 . S
O99 C106 1.247 . S
O100 Co98 2.091 . S
O100 C106 1.261 . S
C101 O110 1.247 . S
C101 O111 1.272 . S
O102 Co98 2.004 . S
O102 C107 1.259 . S
Co103 O104 2.061 . S
Co103 O109 2.052 . S
Co103 O111 2.135 . S
O104 Co103 2.061 . S
O104 C107 1.235 . S
C105 O108 1.238 . S
C105 O109 1.241 . S
C106 O99 1.247 . S
C106 O100 1.261 . S
C107 O102 1.259 . S
C107 O104 1.235 . S
O108 Co98 2.021 . S
O108 C105 1.238 . S
O109 Co103 2.052 . S
O109 C105 1.241 . S
O110 Co98 2.137 . S
O110 C101 1.247 . S
O111 Co98 2.244 . S
O111 C101 1.272 . S
O111 Co103 2.135 . S
Co112 O113 2.216 . S
Co112 O114 2.091 . S
Co112 O116 2.004 . S
Co112 O122 2.021 . S
Co112 O124 2.137 . S
Co112 O125 2.244 . S
O113 Co112 2.216 . S
O113 C120 1.247 . S
O114 Co112 2.091 . S
O114 C120 1.261 . S
C115 O124 1.247 . S
C115 O125 1.272 . S
O116 Co112 2.004 . S
O116 C121 1.259 . S
Co117 O118 2.061 . S
Co117 O123 2.052 . S
Co117 O125 2.135 . S
O118 Co117 2.061 . S
O118 C121 1.235 . S
C119 O122 1.238 . S
C119 O123 1.241 . S
C120 O113 1.247 . S
C120 O114 1.261 . S
C121 O116 1.259 . S
C121 O118 1.235 . S
O122 Co112 2.021 . S
O122 C119 1.238 . S
O123 Co117 2.052 . S
O123 C119 1.241 . S
O124 Co112 2.137 . S
O124 C115 1.247 . S
O125 Co112 2.244 . S
O125 C115 1.272 . S
O125 Co117 2.135 . S
Co126 O127 2.216 . S
Co126 O128 2.091 . S
Co126 O130 2.004 . S
Co126 O136 2.021 . S
Co126 O138 2.137 . S
Co126 O139 2.244 . S
O127 Co126 2.216 . S
O127 C134 1.247 . S
O128 Co126 2.091 . S
O128 C134 1.261 . S
C129 O138 1.247 . S
C129 O139 1.272 . S
O130 Co126 2.004 . S
O130 C135 1.259 . S
Co131 O132 2.061 . S
Co131 O137 2.052 . S
Co131 O139 2.135 . S
O132 Co131 2.061 . S
O132 C135 1.235 . S
C133 O136 1.238 . S
C133 O137 1.241 . S
C134 O127 1.247 . S
C134 O128 1.261 . S
C135 O130 1.259 . S
C135 O132 1.235 . S
O136 Co126 2.021 . S
O136 C133 1.238 . S
O137 Co131 2.052 . S
O137 C133 1.241 . S
O138 Co126 2.137 . S
O138 C129 1.247 . S
O139 Co126 2.244 . S
O139 C129 1.272 . S
O139 Co131 2.135 . S
Co140 O141 2.216 . S
Co140 O142 2.091 . S
Co140 O144 2.004 . S
Co140 O150 2.021 . S
Co140 O152 2.137 . S
Co140 O153 2.244 . S
O141 Co140 2.216 . S
O141 C148 1.247 . S
O142 Co140 2.091 . S
O142 C148 1.261 . S
C143 O152 1.247 . S
C143 O153 1.272 . S
O144 Co140 2.004 . S
O144 C149 1.259 . S
Co145 O146 2.061 . S
Co145 O151 2.052 . S
Co145 O153 2.135 . S
O146 Co145 2.061 . S
O146 C149 1.235 . S
C147 O150 1.238 . S
C147 O151 1.241 . S
C148 O141 1.247 . S
C148 O142 1.261 . S
C149 O144 1.259 . S
C149 O146 1.235 . S
O150 Co140 2.021 . S
O150 C147 1.238 . S
O151 Co145 2.052 . S
O151 C147 1.241 . S
O152 Co140 2.137 . S
O152 C143 1.247 . S
O153 Co140 2.244 . S
O153 C143 1.272 . S
O153 Co145 2.135 . S
Co154 O155 2.216 . S
Co154 O156 2.091 . S
Co154 O158 2.004 . S
Co154 O164 2.021 . S
Co154 O166 2.137 . S
Co154 O167 2.244 . S
O155 Co154 2.216 . S
O155 C162 1.247 . S
O156 Co154 2.091 . S
O156 C162 1.261 . S
C157 O166 1.247 . S
C157 O167 1.272 . S
O158 Co154 2.004 . S
O158 C163 1.259 . S
Co159 O160 2.061 . S
Co159 O165 2.052 . S
Co159 O167 2.135 . S
O160 Co159 2.061 . S
O160 C163 1.235 . S
C161 O164 1.238 . S
C161 O165 1.241 . S
C162 O155 1.247 . S
C162 O156 1.261 . S
C163 O158 1.259 . S
C163 O160 1.235 . S
O164 Co154 2.021 . S
O164 C161 1.238 . S
O165 Co159 2.052 . S
O165 C161 1.241 . S
O166 Co154 2.137 . S
O166 C157 1.247 . S
O167 Co154 2.244 . S
O167 C157 1.272 . S
O167 Co159 2.135 . S
Co168 O169 2.216 . S
Co168 O170 2.091 . S
Co168 O172 2.004 . S
Co168 O178 2.021 . S
Co168 O180 2.137 . S
Co168 O181 2.244 . S
O169 Co168 2.216 . S
O169 C176 1.247 . S
O170 Co168 2.091 . S
O170 C176 1.261 . S
C171 O180 1.247 . S
C171 O181 1.272 . S
O172 Co168 2.004 . S
O172 C177 1.259 . S
Co173 O174 2.061 . S
Co173 O179 2.052 . S
Co173 O181 2.135 . S
O174 Co173 2.061 . S
O174 C177 1.235 . S
C175 O178 1.238 . S
C175 O179 1.241 . S
C176 O169 1.247 . S
C176 O170 1.261 . S
C177 O172 1.259 . S
C177 O174 1.235 . S
O178 Co168 2.021 . S
O178 C175 1.238 . S
O179 Co173 2.052 . S
O179 C175 1.241 . S
O180 Co168 2.137 . S
O180 C171 1.247 . S
O181 Co168 2.244 . S
O181 C171 1.272 . S
O181 Co173 2.135 . S
Co182 O183 2.216 . S
Co182 O184 2.091 . S
Co182 O186 2.004 . S
Co182 O192 2.021 . S
Co182 O194 2.137 . S
Co182 O195 2.244 . S
O183 Co182 2.216 . S
O183 C190 1.247 . S
O184 Co182 2.091 . S
O184 C190 1.261 . S
C185 O194 1.247 . S
C185 O195 1.272 . S
O186 Co182 2.004 . S
O186 C191 1.259 . S
Co187 O188 2.061 . S
Co187 O193 2.052 . S
Co187 O195 2.135 . S
O188 Co187 2.061 . S
O188 C191 1.235 . S
C189 O192 1.238 . S
C189 O193 1.241 . S
C190 O183 1.247 . S
C190 O184 1.261 . S
C191 O186 1.259 . S
C191 O188 1.235 . S
O192 Co182 2.021 . S
O192 C189 1.238 . S
O193 Co187 2.052 . S
O193 C189 1.241 . S
O194 Co182 2.137 . S
O194 C185 1.247 . S
O195 Co182 2.244 . S
O195 C185 1.272 . S
O195 Co187 2.135 . S
Co196 O197 2.216 . S
Co196 O198 2.091 . S
Co196 O200 2.004 . S
Co196 O206 2.021 . S
Co196 O208 2.137 . S
Co196 O209 2.244 . S
O197 Co196 2.216 . S
O197 C204 1.247 . S
O198 Co196 2.091 . S
O198 C204 1.261 . S
C199 O208 1.247 . S
C199 O209 1.272 . S
O200 Co196 2.004 . S
O200 C205 1.259 . S
Co201 O202 2.061 . S
Co201 O207 2.052 . S
Co201 O209 2.135 . S
O202 Co201 2.061 . S
O202 C205 1.235 . S
C203 O206 1.238 . S
C203 O207 1.241 . S
C204 O197 1.247 . S
C204 O198 1.261 . S
C205 O200 1.259 . S
C205 O202 1.235 . S
O206 Co196 2.021 . S
O206 C203 1.238 . S
O207 Co201 2.052 . S
O207 C203 1.241 . S
O208 Co196 2.137 . S
O208 C199 1.247 . S
O209 Co196 2.244 . S
O209 C199 1.272 . S
O209 Co201 2.135 . S
Co210 O211 2.216 . S
Co210 O212 2.091 . S
Co210 O214 2.004 . S
Co210 O220 2.021 . S
Co210 O222 2.137 . S
Co210 O223 2.244 . S
O211 Co210 2.216 . S
O211 C218 1.247 . S
O212 Co210 2.091 . S
O212 C218 1.261 . S
C213 O222 1.247 . S
C213 O223 1.272 . S
O214 Co210 2.004 . S
O214 C219 1.259 . S
Co215 O216 2.061 . S
Co215 O221 2.052 . S
Co215 O223 2.135 . S
O216 Co215 2.061 . S
O216 C219 1.235 . S
C217 O220 1.238 . S
C217 O221 1.241 . S
C218 O211 1.247 . S
C218 O212 1.261 . S
C219 O214 1.259 . S
C219 O216 1.235 . S
O220 Co210 2.021 . S
O220 C217 1.238 . S
O221 Co215 2.052 . S
O221 C217 1.241 . S
O222 Co210 2.137 . S
O222 C213 1.247 . S
O223 Co210 2.244 . S
O223 C213 1.272 . S
O223 Co215 2.135 . S
Co224 O225 2.216 . S
Co224 O226 2.091 . S
Co224 O228 2.004 . S
Co224 O234 2.021 . S
Co224 O236 2.137 . S
Co224 O237 2.244 . S
O225 Co224 2.216 . S
O225 C232 1.247 . S
O226 Co224 2.091 . S
O226 C232 1.261 . S
C227 O236 1.247 . S
C227 O237 1.272 . S
O228 Co224 2.004 . S
O228 C233 1.259 . S
Co229 O230 2.061 . S
Co229 O235 2.052 . S
Co229 O237 2.135 . S
O230 Co229 2.061 . S
O230 C233 1.235 . S
C231 O234 1.238 . S
C231 O235 1.241 . S
C232 O225 1.247 . S
C232 O226 1.261 . S
C233 O228 1.259 . S
C233 O230 1.235 . S
O234 Co224 2.021 . S
O234 C231 1.238 . S
O235 Co229 2.052 . S
O235 C231 1.241 . S
O236 Co224 2.137 . S
O236 C227 1.247 . S
O237 Co224 2.244 . S
O237 C227 1.272 . S
O237 Co229 2.135 . S
Co238 O239 2.216 . S
Co238 O240 2.091 . S
Co238 O242 2.004 . S
Co238 O248 2.021 . S
Co238 O250 2.137 . S
Co238 O251 2.244 . S
O239 Co238 2.216 . S
O239 C246 1.247 . S
O240 Co238 2.091 . S
O240 C246 1.261 . S
C241 O250 1.247 . S
C241 O251 1.272 . S
O242 Co238 2.004 . S
O242 C247 1.259 . S
Co243 O244 2.061 . S
Co243 O249 2.052 . S
Co243 O251 2.135 . S
O244 Co243 2.061 . S
O244 C247 1.235 . S
C245 O248 1.238 . S
C245 O249 1.241 . S
C246 O239 1.247 . S
C246 O240 1.261 . S
C247 O242 1.259 . S
C247 O244 1.235 . S
O248 Co238 2.021 . S
O248 C245 1.238 . S
O249 Co243 2.052 . S
O249 C245 1.241 . S
O250 Co238 2.137 . S
O250 C241 1.247 . S
O251 Co238 2.244 . S
O251 C241 1.272 . S
O251 Co243 2.135 . S
Co252 O253 2.216 . S
Co252 O254 2.091 . S
Co252 O256 2.004 . S
Co252 O262 2.021 . S
Co252 O264 2.137 . S
Co252 O265 2.244 . S
O253 Co252 2.216 . S
O253 C260 1.247 . S
O254 Co252 2.091 . S
O254 C260 1.261 . S
C255 O264 1.247 . S
C255 O265 1.272 . S
O256 Co252 2.004 . S
O256 C261 1.259 . S
Co257 O258 2.061 . S
Co257 O263 2.052 . S
Co257 O265 2.135 . S
O258 Co257 2.061 . S
O258 C261 1.235 . S
C259 O262 1.238 . S
C259 O263 1.241 . S
C260 O253 1.247 . S
C260 O254 1.261 . S
C261 O256 1.259 . S
C261 O258 1.235 . S
O262 Co252 2.021 . S
O262 C259 1.238 . S
O263 Co257 2.052 . S
O263 C259 1.241 . S
O264 Co252 2.137 . S
O264 C255 1.247 . S
O265 Co252 2.244 . S
O265 C255 1.272 . S
O265 Co257 2.135 . S
Co266 O267 2.216 . S
Co266 O268 2.091 . S
Co266 O270 2.004 . S
Co266 O276 2.021 . S
Co266 O278 2.137 . S
Co266 O279 2.244 . S
O267 Co266 2.216 . S
O267 C274 1.247 . S
O268 Co266 2.091 . S
O268 C274 1.261 . S
C269 O278 1.247 . S
C269 O279 1.272 . S
O270 Co266 2.004 . S
O270 C275 1.259 . S
Co271 O272 2.061 . S
Co271 O277 2.052 . S
Co271 O279 2.135 . S
O272 Co271 2.061 . S
O272 C275 1.235 . S
C273 O276 1.238 . S
C273 O277 1.241 . S
C274 O267 1.247 . S
C274 O268 1.261 . S
C275 O270 1.259 . S
C275 O272 1.235 . S
O276 Co266 2.021 . S
O276 C273 1.238 . S
O277 Co271 2.052 . S
O277 C273 1.241 . S
O278 Co266 2.137 . S
O278 C269 1.247 . S
O279 Co266 2.244 . S
O279 C269 1.272 . S
O279 Co271 2.135 . S
Co280 O281 2.216 . S
Co280 O282 2.091 . S
Co280 O284 2.004 . S
Co280 O290 2.021 . S
Co280 O292 2.137 . S
Co280 O293 2.244 . S
O281 Co280 2.216 . S
O281 C288 1.247 . S
O282 Co280 2.091 . S
O282 C288 1.261 . S
C283 O292 1.247 . S
C283 O293 1.272 . S
O284 Co280 2.004 . S
O284 C289 1.259 . S
Co285 O286 2.061 . S
Co285 O291 2.052 . S
Co285 O293 2.135 . S
O286 Co285 2.061 . S
O286 C289 1.235 . S
C287 O290 1.238 . S
C287 O291 1.241 . S
C288 O281 1.247 . S
C288 O282 1.261 . S
C289 O284 1.259 . S
C289 O286 1.235 . S
O290 Co280 2.021 . S
O290 C287 1.238 . S
O291 Co285 2.052 . S
O291 C287 1.241 . S
O292 Co280 2.137 . S
O292 C283 1.247 . S
O293 Co280 2.244 . S
O293 C283 1.272 . S
O293 Co285 2.135 . S
Co294 O295 2.216 . S
Co294 O296 2.091 . S
Co294 O298 2.004 . S
Co294 O304 2.021 . S
Co294 O306 2.137 . S
Co294 O307 2.244 . S
O295 Co294 2.216 . S
O295 C302 1.247 . S
O296 Co294 2.091 . S
O296 C302 1.261 . S
C297 O306 1.247 . S
C297 O307 1.272 . S
O298 Co294 2.004 . S
O298 C303 1.259 . S
Co299 O300 2.061 . S
Co299 O305 2.052 . S
Co299 O307 2.135 . S
O300 Co299 2.061 . S
O300 C303 1.235 . S
C301 O304 1.238 . S
C301 O305 1.241 . S
C302 O295 1.247 . S
C302 O296 1.261 . S
C303 O298 1.259 . S
C303 O300 1.235 . S
O304 Co294 2.021 . S
O304 C301 1.238 . S
O305 Co299 2.052 . S
O305 C301 1.241 . S
O306 Co294 2.137 . S
O306 C297 1.247 . S
O307 Co294 2.244 . S
O307 C297 1.272 . S
O307 Co299 2.135 . S
Co308 O309 2.216 . S
Co308 O310 2.091 . S
Co308 O312 2.004 . S
Co308 O318 2.021 . S
Co308 O320 2.137 . S
Co308 O321 2.244 . S
O309 Co308 2.216 . S
O309 C316 1.247 . S
O310 Co308 2.091 . S
O310 C316 1.261 . S
C311 O320 1.247 . S
C311 O321 1.272 . S
O312 Co308 2.004 . S
O312 C317 1.259 . S
Co313 O314 2.061 . S
Co313 O319 2.052 . S
Co313 O321 2.135 . S
O314 Co313 2.061 . S
O314 C317 1.235 . S
C315 O318 1.238 . S
C315 O319 1.241 . S
C316 O309 1.247 . S
C316 O310 1.261 . S
C317 O312 1.259 . S
C317 O314 1.235 . S
O318 Co308 2.021 . S
O318 C315 1.238 . S
O319 Co313 2.052 . S
O319 C315 1.241 . S
O320 Co308 2.137 . S
O320 C311 1.247 . S
O321 Co308 2.244 . S
O321 C311 1.272 . S
O321 Co313 2.135 . S
Co322 O323 2.216 . S
Co322 O324 2.091 . S
Co322 O326 2.004 . S
Co322 O332 2.021 . S
Co322 O334 2.137 . S
Co322 O335 2.244 . S
O323 Co322 2.216 . S
O323 C330 1.247 . S
O324 Co322 2.091 . S
O324 C330 1.261 . S
C325 O334 1.247 . S
C325 O335 1.272 . S
O326 Co322 2.004 . S
O326 C331 1.259 . S
Co327 O328 2.061 . S
Co327 O333 2.052 . S
Co327 O335 2.135 . S
O328 Co327 2.061 . S
O328 C331 1.235 . S
C329 O332 1.238 . S
C329 O333 1.241 . S
C330 O323 1.247 . S
C330 O324 1.261 . S
C331 O326 1.259 . S
C331 O328 1.235 . S
O332 Co322 2.021 . S
O332 C329 1.238 . S
O333 Co327 2.052 . S
O333 C329 1.241 . S
O334 Co322 2.137 . S
O334 C325 1.247 . S
O335 Co322 2.244 . S
O335 C325 1.272 . S
O335 Co327 2.135 . S
C336 C337 1.387 . S
C336 H340 0.950 . S
C336 C345 1.390 . S
C337 C336 1.387 . S
C337 C339 1.387 . S
H338 C345 0.950 . S
C339 C337 1.387 . S
C339 C341 1.390 . S
C339 H343 0.950 . S
H340 C336 0.950 . S
C341 C339 1.390 . S
C341 C342 1.387 . S
C341 H344 0.950 . S
C342 C341 1.387 . S
C342 C345 1.387 . S
H343 C339 0.950 . S
H344 C341 0.950 . S
C345 C336 1.390 . S
C345 H338 0.950 . S
C345 C342 1.387 . S
C346 C347 1.387 . S
C346 H350 0.950 . S
C346 C355 1.390 . S
C347 C346 1.387 . S
C347 C349 1.387 . S
H348 C355 0.950 . S
C349 C347 1.387 . S
C349 C351 1.390 . S
C349 H353 0.950 . S
H350 C346 0.950 . S
C351 C349 1.390 . S
C351 C352 1.387 . S
C351 H354 0.950 . S
C352 C351 1.387 . S
C352 C355 1.387 . S
H353 C349 0.950 . S
H354 C351 0.950 . S
C355 C346 1.390 . S
C355 H348 0.950 . S
C355 C352 1.387 . S
C356 C357 1.387 . S
C356 H360 0.950 . S
C356 C365 1.390 . S
C357 C356 1.387 . S
C357 C359 1.387 . S
H358 C365 0.950 . S
C359 C357 1.387 . S
C359 C361 1.390 . S
C359 H363 0.950 . S
H360 C356 0.950 . S
C361 C359 1.390 . S
C361 C362 1.387 . S
C361 H364 0.950 . S
C362 C361 1.387 . S
C362 C365 1.387 . S
H363 C359 0.950 . S
H364 C361 0.950 . S
C365 C356 1.390 . S
C365 H358 0.950 . S
C365 C362 1.387 . S
C366 C367 1.387 . S
C366 H370 0.950 . S
C366 C375 1.390 . S
C367 C366 1.387 . S
C367 C369 1.387 . S
H368 C375 0.950 . S
C369 C367 1.387 . S
C369 C371 1.390 . S
C369 H373 0.950 . S
H370 C366 0.950 . S
C371 C369 1.390 . S
C371 C372 1.387 . S
C371 H374 0.950 . S
C372 C371 1.387 . S
C372 C375 1.387 . S
H373 C369 0.950 . S
H374 C371 0.950 . S
C375 C366 1.390 . S
C375 H368 0.950 . S
C375 C372 1.387 . S
C376 C377 1.387 . S
C376 H380 0.950 . S
C376 C385 1.390 . S
C377 C376 1.387 . S
C377 C379 1.387 . S
H378 C385 0.950 . S
C379 C377 1.387 . S
C379 C381 1.390 . S
C379 H383 0.950 . S
H380 C376 0.950 . S
C381 C379 1.390 . S
C381 C382 1.387 . S
C381 H384 0.950 . S
C382 C381 1.387 . S
C382 C385 1.387 . S
H383 C379 0.950 . S
H384 C381 0.950 . S
C385 C376 1.390 . S
C385 H378 0.950 . S
C385 C382 1.387 . S
C386 C387 1.387 . S
C386 H390 0.950 . S
C386 C395 1.390 . S
C387 C386 1.387 . S
C387 C389 1.387 . S
H388 C395 0.950 . S
C389 C387 1.387 . S
C389 C391 1.390 . S
C389 H393 0.950 . S
H390 C386 0.950 . S
C391 C389 1.390 . S
C391 C392 1.387 . S
C391 H394 0.950 . S
C392 C391 1.387 . S
C392 C395 1.387 . S
H393 C389 0.950 . S
H394 C391 0.950 . S
C395 C386 1.390 . S
C395 H388 0.950 . S
C395 C392 1.387 . S
C396 C397 1.387 . S
C396 H400 0.950 . S
C396 C405 1.390 . S
C397 C396 1.387 . S
C397 C399 1.387 . S
H398 C405 0.950 . S
C399 C397 1.387 . S
C399 C401 1.390 . S
C399 H403 0.950 . S
H400 C396 0.950 . S
C401 C399 1.390 . S
C401 C402 1.387 . S
C401 H404 0.950 . S
C402 C401 1.387 . S
C402 C405 1.387 . S
H403 C399 0.950 . S
H404 C401 0.950 . S
C405 C396 1.390 . S
C405 H398 0.950 . S
C405 C402 1.387 . S
C406 C407 1.387 . S
C406 H410 0.950 . S
C406 C415 1.390 . S
C407 C406 1.387 . S
C407 C409 1.387 . S
H408 C415 0.950 . S
C409 C407 1.387 . S
C409 C411 1.390 . S
C409 H413 0.950 . S
H410 C406 0.950 . S
C411 C409 1.390 . S
C411 C412 1.387 . S
C411 H414 0.950 . S
C412 C411 1.387 . S
C412 C415 1.387 . S
H413 C409 0.950 . S
H414 C411 0.950 . S
C415 C406 1.390 . S
C415 H408 0.950 . S
C415 C412 1.387 . S
C416 C417 1.387 . S
C416 H420 0.950 . S
C416 C425 1.390 . S
C417 C416 1.387 . S
C417 C419 1.387 . S
H418 C425 0.950 . S
C419 C417 1.387 . S
C419 C421 1.390 . S
C419 H423 0.950 . S
H420 C416 0.950 . S
C421 C419 1.390 . S
C421 C422 1.387 . S
C421 H424 0.950 . S
C422 C421 1.387 . S
C422 C425 1.387 . S
H423 C419 0.950 . S
H424 C421 0.950 . S
C425 C416 1.390 . S
C425 H418 0.950 . S
C425 C422 1.387 . S
C426 C427 1.387 . S
C426 H430 0.950 . S
C426 C435 1.390 . S
C427 C426 1.387 . S
C427 C429 1.387 . S
H428 C435 0.950 . S
C429 C427 1.387 . S
C429 C431 1.390 . S
C429 H433 0.950 . S
H430 C426 0.950 . S
C431 C429 1.390 . S
C431 C432 1.387 . S
C431 H434 0.950 . S
C432 C431 1.387 . S
C432 C435 1.387 . S
H433 C429 0.950 . S
H434 C431 0.950 . S
C435 C426 1.390 . S
C435 H428 0.950 . S
C435 C432 1.387 . S
C436 C437 1.387 . S
C436 H440 0.950 . S
C436 C445 1.390 . S
C437 C436 1.387 . S
C437 C439 1.387 . S
H438 C445 0.950 . S
C439 C437 1.387 . S
C439 C441 1.390 . S
C439 H443 0.950 . S
H440 C436 0.950 . S
C441 C439 1.390 . S
C441 C442 1.387 . S
C441 H444 0.950 . S
C442 C441 1.387 . S
C442 C445 1.387 . S
H443 C439 0.950 . S
H444 C441 0.950 . S
C445 C436 1.390 . S
C445 H438 0.950 . S
C445 C442 1.387 . S
C446 C447 1.387 . S
C446 H450 0.950 . S
C446 C455 1.390 . S
C447 C446 1.387 . S
C447 C449 1.387 . S
H448 C455 0.950 . S
C449 C447 1.387 . S
C449 C451 1.390 . S
C449 H453 0.950 . S
H450 C446 0.950 . S
C451 C449 1.390 . S
C451 C452 1.387 . S
C451 H454 0.950 . S
C452 C451 1.387 . S
C452 C455 1.387 . S
H453 C449 0.950 . S
H454 C451 0.950 . S
C455 C446 1.390 . S
C455 H448 0.950 . S
C455 C452 1.387 . S
C456 C457 1.387 . S
C456 H460 0.950 . S
C456 C465 1.390 . S
C457 C456 1.387 . S
C457 C459 1.387 . S
H458 C465 0.950 . S
C459 C457 1.387 . S
C459 C461 1.390 . S
C459 H463 0.950 . S
H460 C456 0.950 . S
C461 C459 1.390 . S
C461 C462 1.387 . S
C461 H464 0.950 . S
C462 C461 1.387 . S
C462 C465 1.387 . S
H463 C459 0.950 . S
H464 C461 0.950 . S
C465 C456 1.390 . S
C465 H458 0.950 . S
C465 C462 1.387 . S
C466 C467 1.387 . S
C466 H470 0.950 . S
C466 C475 1.390 . S
C467 C466 1.387 . S
C467 C469 1.387 . S
H468 C475 0.950 . S
C469 C467 1.387 . S
C469 C471 1.390 . S
C469 H473 0.950 . S
H470 C466 0.950 . S
C471 C469 1.390 . S
C471 C472 1.387 . S
C471 H474 0.950 . S
C472 C471 1.387 . S
C472 C475 1.387 . S
H473 C469 0.950 . S
H474 C471 0.950 . S
C475 C466 1.390 . S
C475 H468 0.950 . S
C475 C472 1.387 . S
C476 C477 1.387 . S
C476 H480 0.950 . S
C476 C485 1.390 . S
C477 C476 1.387 . S
C477 C479 1.387 . S
H478 C485 0.950 . S
C479 C477 1.387 . S
C479 C481 1.390 . S
C479 H483 0.950 . S
H480 C476 0.950 . S
C481 C479 1.390 . S
C481 C482 1.387 . S
C481 H484 0.950 . S
C482 C481 1.387 . S
C482 C485 1.387 . S
H483 C479 0.950 . S
H484 C481 0.950 . S
C485 C476 1.390 . S
C485 H478 0.950 . S
C485 C482 1.387 . S
C486 C487 1.387 . S
C486 H490 0.950 . S
C486 C495 1.390 . S
C487 C486 1.387 . S
C487 C489 1.387 . S
H488 C495 0.950 . S
C489 C487 1.387 . S
C489 C491 1.390 . S
C489 H493 0.950 . S
H490 C486 0.950 . S
C491 C489 1.390 . S
C491 C492 1.387 . S
C491 H494 0.950 . S
C492 C491 1.387 . S
C492 C495 1.387 . S
H493 C489 0.950 . S
H494 C491 0.950 . S
C495 C486 1.390 . S
C495 H488 0.950 . S
C495 C492 1.387 . S
C496 C497 1.387 . S
C496 H500 0.950 . S
C496 C505 1.390 . S
C497 C496 1.387 . S
C497 C499 1.387 . S
H498 C505 0.950 . S
C499 C497 1.387 . S
C499 C501 1.390 . S
C499 H503 0.950 . S
H500 C496 0.950 . S
C501 C499 1.390 . S
C501 C502 1.387 . S
C501 H504 0.950 . S
C502 C501 1.387 . S
C502 C505 1.387 . S
H503 C499 0.950 . S
H504 C501 0.950 . S
C505 C496 1.390 . S
C505 H498 0.950 . S
C505 C502 1.387 . S
C506 C507 1.387 . S
C506 H510 0.950 . S
C506 C515 1.390 . S
C507 C506 1.387 . S
C507 C509 1.387 . S
H508 C515 0.950 . S
C509 C507 1.387 . S
C509 C511 1.390 . S
C509 H513 0.950 . S
H510 C506 0.950 . S
C511 C509 1.390 . S
C511 C512 1.387 . S
C511 H514 0.950 . S
C512 C511 1.387 . S
C512 C515 1.387 . S
H513 C509 0.950 . S
H514 C511 0.950 . S
C515 C506 1.390 . S
C515 H508 0.950 . S
C515 C512 1.387 . S
C516 C517 1.387 . S
C516 H520 0.950 . S
C516 C525 1.390 . S
C517 C516 1.387 . S
C517 C519 1.387 . S
H518 C525 0.950 . S
C519 C517 1.387 . S
C519 C521 1.390 . S
C519 H523 0.950 . S
H520 C516 0.950 . S
C521 C519 1.390 . S
C521 C522 1.387 . S
C521 H524 0.950 . S
C522 C521 1.387 . S
C522 C525 1.387 . S
H523 C519 0.950 . S
H524 C521 0.950 . S
C525 C516 1.390 . S
C525 H518 0.950 . S
C525 C522 1.387 . S
C526 C527 1.387 . S
C526 H530 0.950 . S
C526 C535 1.390 . S
C527 C526 1.387 . S
C527 C529 1.387 . S
H528 C535 0.950 . S
C529 C527 1.387 . S
C529 C531 1.390 . S
C529 H533 0.950 . S
H530 C526 0.950 . S
C531 C529 1.390 . S
C531 C532 1.387 . S
C531 H534 0.950 . S
C532 C531 1.387 . S
C532 C535 1.387 . S
H533 C529 0.950 . S
H534 C531 0.950 . S
C535 C526 1.390 . S
C535 H528 0.950 . S
C535 C532 1.387 . S
C536 C537 1.387 . S
C536 H540 0.950 . S
C536 C545 1.390 . S
C537 C536 1.387 . S
C537 C539 1.387 . S
H538 C545 0.950 . S
C539 C537 1.387 . S
C539 C541 1.390 . S
C539 H543 0.950 . S
H540 C536 0.950 . S
C541 C539 1.390 . S
C541 C542 1.387 . S
C541 H544 0.950 . S
C542 C541 1.387 . S
C542 C545 1.387 . S
H543 C539 0.950 . S
H544 C541 0.950 . S
C545 C536 1.390 . S
C545 H538 0.950 . S
C545 C542 1.387 . S
C546 C547 1.387 . S
C546 H550 0.950 . S
C546 C555 1.390 . S
C547 C546 1.387 . S
C547 C549 1.387 . S
H548 C555 0.950 . S
C549 C547 1.387 . S
C549 C551 1.390 . S
C549 H553 0.950 . S
H550 C546 0.950 . S
C551 C549 1.390 . S
C551 C552 1.387 . S
C551 H554 0.950 . S
C552 C551 1.387 . S
C552 C555 1.387 . S
H553 C549 0.950 . S
H554 C551 0.950 . S
C555 C546 1.390 . S
C555 H548 0.950 . S
C555 C552 1.387 . S
C556 C557 1.387 . S
C556 H560 0.950 . S
C556 C565 1.390 . S
C557 C556 1.387 . S
C557 C559 1.387 . S
H558 C565 0.950 . S
C559 C557 1.387 . S
C559 C561 1.390 . S
C559 H563 0.950 . S
H560 C556 0.950 . S
C561 C559 1.390 . S
C561 C562 1.387 . S
C561 H564 0.950 . S
C562 C561 1.387 . S
C562 C565 1.387 . S
H563 C559 0.950 . S
H564 C561 0.950 . S
C565 C556 1.390 . S
C565 H558 0.950 . S
C565 C562 1.387 . S
C566 C567 1.387 . S
C566 H570 0.950 . S
C566 C575 1.390 . S
C567 C566 1.387 . S
C567 C569 1.387 . S
H568 C575 0.950 . S
C569 C567 1.387 . S
C569 C571 1.390 . S
C569 H573 0.950 . S
H570 C566 0.950 . S
C571 C569 1.390 . S
C571 C572 1.387 . S
C571 H574 0.950 . S
C572 C571 1.387 . S
C572 C575 1.387 . S
H573 C569 0.950 . S
H574 C571 0.950 . S
C575 C566 1.390 . S
C575 H568 0.950 . S
C575 C572 1.387 . S
C576 C577 1.387 . S
C576 H580 0.950 . S
C576 C585 1.390 . S
C577 C576 1.387 . S
C577 C579 1.387 . S
H578 C585 0.950 . S
C579 C577 1.387 . S
C579 C581 1.390 . S
C579 H583 0.950 . S
H580 C576 0.950 . S
C581 C579 1.390 . S
C581 C582 1.387 . S
C581 H584 0.950 . S
C582 C581 1.387 . S
C582 C585 1.387 . S
H583 C579 0.950 . S
H584 C581 0.950 . S
C585 C576 1.390 . S
C585 H578 0.950 . S
C585 C582 1.387 . S
C586 C587 1.387 1_556 S
C586 H590 0.950 1_556 S
C586 C595 1.390 . S
C587 C586 1.387 1_554 S
C587 C589 1.387 1_554 S
H588 C595 0.950 . S
C589 C587 1.387 1_556 S
C589 C591 1.390 . S
C589 H593 0.950 1_556 S
H590 C586 0.950 1_554 S
C591 C589 1.390 . S
C591 C592 1.387 . S
C591 H594 0.950 . S
C592 C591 1.387 . S
C592 C595 1.387 . S
H593 C589 0.950 1_554 S
H594 C591 0.950 . S
C595 C586 1.390 . S
C595 H588 0.950 . S
C595 C592 1.387 . S
C596 C597 1.387 . S
C596 H600 0.950 . S
C596 C605 1.390 . S
C597 C596 1.387 . S
C597 C599 1.387 . S
H598 C605 0.950 . S
C599 C597 1.387 . S
C599 C601 1.390 . S
C599 H603 0.950 . S
H600 C596 0.950 . S
C601 C599 1.390 . S
C601 C602 1.387 . S
C601 H604 0.950 . S
C602 C601 1.387 . S
C602 C605 1.387 . S
H603 C599 0.950 . S
H604 C601 0.950 . S
C605 C596 1.390 . S
C605 H598 0.950 . S
C605 C602 1.387 . S
C606 C607 1.387 . S
C606 H610 0.950 . S
C606 C615 1.390 . S
C607 C606 1.387 . S
C607 C609 1.387 . S
H608 C615 0.950 1_556 S
C609 C607 1.387 . S
C609 C611 1.390 . S
C609 H613 0.950 . S
H610 C606 0.950 . S
C611 C609 1.390 . S
C611 C612 1.387 1_554 S
C611 H614 0.948 . S
C612 C611 1.387 1_556 S
C612 C615 1.387 1_556 S
H613 C609 0.950 . S
H614 C611 0.948 . S
C615 C606 1.390 . S
C615 H608 0.950 1_554 S
C615 C612 1.387 1_554 S
C616 C617 1.387 . S
C616 H620 0.950 . S
C616 C625 1.390 . S
C617 C616 1.387 . S
C617 C619 1.387 . S
H618 C625 0.950 . S
C619 C617 1.387 . S
C619 C621 1.390 . S
C619 H623 0.950 . S
H620 C616 0.950 . S
C621 C619 1.390 . S
C621 C622 1.387 . S
C621 H624 0.950 . S
C622 C621 1.387 . S
C622 C625 1.387 . S
H623 C619 0.950 . S
H624 C621 0.950 . S
C625 C616 1.390 . S
C625 H618 0.950 . S
C625 C622 1.387 . S
C626 C627 1.387 1_455 S
C626 H630 0.950 . S
C626 C635 1.390 . S
C627 C626 1.387 1_655 S
C627 C629 1.387 1_655 S
H628 C635 0.950 . S
C629 C627 1.387 1_455 S
C629 C631 1.390 . S
C629 H633 0.950 . S
H630 C626 0.950 . S
C631 C629 1.390 . S
C631 C632 1.387 . S
C631 H634 0.950 . S
C632 C631 1.387 . S
C632 C635 1.387 . S
H633 C629 0.950 . S
H634 C631 0.950 . S
C635 C626 1.390 . S
C635 H628 0.950 . S
C635 C632 1.387 . S
C636 C637 1.387 1_655 S
C636 H640 0.950 . S
C636 C645 1.390 . S
C637 C636 1.387 1_455 S
C637 C639 1.387 1_455 S
H638 C645 0.950 . S
C639 C637 1.387 1_655 S
C639 C641 1.390 . S
C639 H643 0.950 . S
H640 C636 0.950 . S
C641 C639 1.390 . S
C641 C642 1.387 . S
C641 H644 0.950 . S
C642 C641 1.387 . S
C642 C645 1.387 . S
H643 C639 0.950 . S
H644 C641 0.950 . S
C645 C636 1.390 . S
C645 H638 0.950 . S
C645 C642 1.387 . S
C646 C647 1.387 . S
C646 H650 0.950 . S
C646 C655 1.390 . S
C647 C646 1.387 . S
C647 C649 1.387 . S
H648 C655 0.950 . S
C649 C647 1.387 . S
C649 C651 1.390 . S
C649 H653 0.950 . S
H650 C646 0.950 . S
C651 C649 1.390 . S
C651 C652 1.387 . S
C651 H654 0.950 . S
C652 C651 1.387 . S
C652 C655 1.387 . S
H653 C649 0.950 . S
H654 C651 0.950 . S
C655 C646 1.390 . S
C655 H648 0.950 . S
C655 C652 1.387 . S
C656 C657 1.387 . S
C656 H660 0.950 . S
C656 C665 1.390 . S
C657 C656 1.387 . S
C657 C659 1.387 . S
H658 C665 0.950 . S
C659 C657 1.387 . S
C659 C661 1.390 . S
C659 H663 0.950 . S
H660 C656 0.950 . S
C661 C659 1.390 . S
C661 C662 1.387 . S
C661 H664 0.950 . S
C662 C661 1.387 . S
C662 C665 1.387 . S
H663 C659 0.950 . S
H664 C661 0.950 . S
C665 C656 1.390 . S
C665 H658 0.950 . S
C665 C662 1.387 . S
C666 C667 1.387 1_545 S
C666 H670 0.950 . S
C666 C675 1.390 . S
C667 C666 1.387 1_565 S
C667 C669 1.387 . S
H668 C675 0.950 . S
C669 C667 1.387 . S
C669 C671 1.390 1_565 S
C669 H673 0.950 . S
H670 C666 0.950 . S
C671 C669 1.390 1_545 S
C671 C672 1.387 . S
C671 H674 0.950 . S
C672 C671 1.387 . S
C672 C675 1.387 . S
H673 C669 0.950 . S
H674 C671 0.950 . S
C675 C666 1.390 . S
C675 H668 0.950 . S
C675 C672 1.387 . S
C676 C677 1.387 . S
C676 H680 0.950 . S
C676 C685 1.390 1_545 S
C677 C676 1.387 . S
C677 C679 1.387 1_545 S
H678 C685 0.950 . S
C679 C677 1.387 1_565 S
C679 C681 1.390 . S
C679 H683 0.950 . S
H680 C676 0.950 . S
C681 C679 1.390 . S
C681 C682 1.387 . S
C681 H684 0.950 . S
C682 C681 1.387 . S
C682 C685 1.387 . S
H683 C679 0.950 . S
H684 C681 0.950 . S
C685 C676 1.390 1_565 S
C685 H678 0.950 . S
C685 C682 1.387 . S
C686 C687 1.387 . S
C686 H690 0.950 . S
C686 C695 1.390 . S
C687 C686 1.387 . S
C687 C689 1.387 . S
H688 C695 0.950 . S
C689 C687 1.387 . S
C689 C691 1.390 . S
C689 H693 0.950 . S
H690 C686 0.950 . S
C691 C689 1.390 . S
C691 C692 1.387 . S
C691 H694 0.950 . S
C692 C691 1.387 . S
C692 C695 1.387 . S
H693 C689 0.950 . S
H694 C691 0.950 . S
C695 C686 1.390 . S
C695 H688 0.950 . S
C695 C692 1.387 . S
C696 C697 1.387 . S
C696 H700 0.950 . S
C696 C705 1.390 . S
C697 C696 1.387 . S
C697 C699 1.387 . S
H698 C705 0.950 . S
C699 C697 1.387 . S
C699 C701 1.390 . S
C699 H703 0.950 . S
H700 C696 0.950 . S
C701 C699 1.390 . S
C701 C702 1.387 . S
C701 H704 0.950 . S
C702 C701 1.387 . S
C702 C705 1.387 . S
H703 C699 0.950 . S
H704 C701 0.950 . S
C705 C696 1.390 . S
C705 H698 0.950 . S
C705 C702 1.387 . S
C706 C707 1.387 1_554 S
C706 H710 0.950 . S
C706 C715 1.390 . S
C707 C706 1.387 1_556 S
C707 C709 1.387 1_556 S
H708 C715 0.950 . S
C709 C707 1.387 1_554 S
C709 C711 1.390 . S
C709 H713 0.950 . S
H710 C706 0.950 . S
C711 C709 1.390 . S
C711 C712 1.387 . S
C711 H714 0.950 . S
C712 C711 1.387 . S
C712 C715 1.387 . S
H713 C709 0.950 . S
H714 C711 0.950 . S
C715 C706 1.390 . S
C715 H708 0.950 . S
C715 C712 1.387 . S
C716 C717 1.387 . S
C716 H720 0.950 . S
C716 C725 1.390 . S
C717 C716 1.387 . S
C717 C719 1.387 . S
H718 C725 0.950 . S
C719 C717 1.387 . S
C719 C721 1.390 . S
C719 H723 0.950 . S
H720 C716 0.950 . S
C721 C719 1.390 . S
C721 C722 1.387 . S
C721 H724 0.950 . S
C722 C721 1.387 . S
C722 C725 1.387 . S
H723 C719 0.950 . S
H724 C721 0.950 . S
C725 C716 1.390 . S
C725 H718 0.950 . S
C725 C722 1.387 . S
C726 C727 1.387 1_556 S
C726 H730 0.950 . S
C726 C735 1.390 . S
C727 C726 1.387 1_554 S
C727 C729 1.387 1_554 S
H728 C735 0.950 . S
C729 C727 1.387 1_556 S
C729 C731 1.390 . S
C729 H733 0.950 . S
H730 C726 0.950 . S
C731 C729 1.390 . S
C731 C732 1.387 . S
C731 H734 0.950 . S
C732 C731 1.387 . S
C732 C735 1.387 . S
H733 C729 0.950 . S
H734 C731 0.950 . S
C735 C726 1.390 . S
C735 H728 0.950 . S
C735 C732 1.387 . S
C736 C737 1.387 . S
C736 H740 0.950 . S
C736 C745 1.390 . S
C737 C736 1.387 . S
C737 C739 1.387 . S
H738 C745 0.950 . S
C739 C737 1.387 . S
C739 C741 1.390 . S
C739 H743 0.950 . S
H740 C736 0.950 . S
C741 C739 1.390 . S
C741 C742 1.387 . S
C741 H744 0.950 . S
C742 C741 1.387 . S
C742 C745 1.387 . S
H743 C739 0.950 . S
H744 C741 0.950 . S
C745 C736 1.390 . S
C745 H738 0.950 . S
C745 C742 1.387 . S
C746 C747 1.387 . S
C746 H750 0.950 . S
C746 C755 1.390 . S
C747 C746 1.387 . S
C747 C749 1.387 . S
H748 C755 0.950 1_455 S
C749 C747 1.387 . S
C749 C751 1.390 . S
C749 H753 0.950 . S
H750 C746 0.950 . S
C751 C749 1.390 . S
C751 C752 1.387 1_655 S
C751 H754 0.950 1_655 S
C752 C751 1.387 1_455 S
C752 C755 1.387 1_455 S
H753 C749 0.950 . S
H754 C751 0.950 1_455 S
C755 C746 1.390 . S
C755 H748 0.950 1_655 S
C755 C752 1.387 1_655 S
C756 C757 1.387 . S
C756 H760 0.950 . S
C756 C765 1.390 . S
C757 C756 1.387 . S
C757 C759 1.387 . S
H758 C765 0.951 . S
C759 C757 1.387 . S
C759 C761 1.390 . S
C759 H763 0.950 . S
H760 C756 0.950 . S
C761 C759 1.390 . S
C761 C762 1.387 1_455 S
C761 H764 0.950 1_455 S
C762 C761 1.387 1_655 S
C762 C765 1.387 1_655 S
H763 C759 0.950 . S
H764 C761 0.950 1_655 S
C765 C756 1.390 . S
C765 H758 0.951 . S
C765 C762 1.387 1_455 S
C766 C767 1.387 . S
C766 H770 0.950 . S
C766 C775 1.390 . S
C767 C766 1.387 . S
C767 C769 1.387 . S
H768 C775 0.950 . S
C769 C767 1.387 . S
C769 C771 1.390 . S
C769 H773 0.950 . S
H770 C766 0.950 . S
C771 C769 1.390 . S
C771 C772 1.387 . S
C771 H774 0.950 . S
C772 C771 1.387 . S
C772 C775 1.387 . S
H773 C769 0.950 . S
H774 C771 0.950 . S
C775 C766 1.390 . S
C775 H768 0.950 . S
C775 C772 1.387 . S
C776 C777 1.387 . S
C776 H780 0.950 . S
C776 C785 1.390 . S
C777 C776 1.387 . S
C777 C779 1.387 . S
H778 C785 0.950 . S
C779 C777 1.387 . S
C779 C781 1.390 . S
C779 H783 0.950 . S
H780 C776 0.950 . S
C781 C779 1.390 . S
C781 C782 1.387 . S
C781 H784 0.950 . S
C782 C781 1.387 . S
C782 C785 1.387 . S
H783 C779 0.950 . S
H784 C781 0.950 . S
C785 C776 1.390 . S
C785 H778 0.950 . S
C785 C782 1.387 . S
C786 C787 1.387 . S
C786 H790 0.950 . S
C786 C795 1.390 . S
C787 C786 1.387 . S
C787 C789 1.387 . S
H788 C795 0.950 . S
C789 C787 1.387 . S
C789 C791 1.363 1_565 S
C789 H793 0.950 . S
H790 C786 0.950 . S
C791 C789 1.363 1_545 S
C791 C792 1.395 . S
C791 H794 0.970 . S
C792 C791 1.395 . S
C792 C795 1.387 1_545 S
H793 C789 0.950 . S
H794 C791 0.970 . S
C795 C786 1.390 . S
C795 H788 0.950 . S
C795 C792 1.387 1_565 S
C796 C797 1.387 1_545 S
C796 H800 0.950 1_545 S
C796 C805 1.390 . S
C797 C796 1.387 1_565 S
C797 C799 1.387 1_565 S
H798 C805 0.950 . S
C799 C797 1.387 1_545 S
C799 C801 1.390 . S
C799 H803 0.950 1_545 S
H800 C796 0.950 1_565 S
C801 C799 1.390 . S
C801 C802 1.387 . S
C801 H804 0.950 . S
C802 C801 1.387 . S
C802 C805 1.387 . S
H803 C799 0.950 1_565 S
H804 C801 0.950 . S
C805 C796 1.390 . S
C805 H798 0.950 . S
C805 C802 1.387 . S
C806 C807 1.387 . S
C806 H810 0.950 . S
C806 C815 1.390 . S
C807 C806 1.387 . S
C807 C809 1.387 . S
H808 C815 0.950 . S
C809 C807 1.387 . S
C809 C811 1.390 . S
C809 H813 0.950 . S
H810 C806 0.950 . S
C811 C809 1.390 . S
C811 C812 1.387 . S
C811 H814 0.950 . S
C812 C811 1.387 . S
C812 C815 1.387 . S
H813 C809 0.950 . S
H814 C811 0.950 . S
C815 C806 1.390 . S
C815 H808 0.950 . S
C815 C812 1.387 . S
C337 C121 1.208 . S
C342 C3 1.223 . S
C347 C17 1.221 . S
C352 C163 1.205 . S
C357 C31 1.221 . S
C362 C135 1.205 . S
C367 C45 1.223 . S
C372 C149 1.208 . S
C377 C59 1.202 . S
C382 C9 1.181 . S
C387 C23 1.180 . S
C392 C73 1.202 . S
C397 C87 1.200 . S
C402 C37 1.179 . S
C407 C51 1.180 . S
C412 C101 1.199 . S
C417 C65 1.205 . S
C422 C115 1.223 . S
C427 C93 1.203 . S
C432 C129 1.226 . S
C437 C143 1.226 . S
C442 C107 1.204 . S
C447 C79 1.204 . S
C452 C157 1.223 . S
C457 C283 1.225 . S
C462 C171 1.213 . S
C467 C185 1.213 . S
C472 C325 1.225 . S
C477 C199 1.211 . S
C482 C297 1.227 . S
C487 C311 1.225 . S
C492 C213 1.213 . S
C497 C233 1.161 . S
C502 C177 1.179 . S
C507 C191 1.178 . S
C512 C247 1.161 . S
C517 C205 1.179 . S
C522 C261 1.160 . S
C527 C275 1.160 . S
C532 C219 1.179 . S
C537 C289 1.172 . S
C542 C227 1.198 . S
C547 C255 1.198 . S
C552 C303 1.168 . S
C557 C269 1.198 . S
C562 C317 1.168 . S
C567 C331 1.168 . S
C572 C241 1.197 . S
C577 C315 1.375 . S
C582 C7 1.392 . S
C587 C301 1.377 . S
C592 C21 1.394 . S
C597 C329 1.376 . S
C602 C35 1.394 . S
C607 C49 1.392 . S
C612 C287 1.376 . S
C617 C63 1.400 . S
C622 C190 1.414 . S
C627 C176 1.414 . S
C632 C77 1.400 . S
C637 C218 1.414 . S
C642 C91 1.400 . S
C647 C204 1.413 . S
C652 C105 1.400 . S
C657 C119 1.411 . S
C662 C259 1.389 . S
C667 C231 1.386 . S
C672 C133 1.412 . S
C677 C245 1.389 . S
C682 C147 1.411 . S
C687 C273 1.389 . S
C692 C161 1.412 . S
C697 C148 1.457 . S
C702 C175 1.433 . S
C707 C134 1.457 . S
C712 C189 1.433 . S
C717 C203 1.436 . S
C722 C162 1.458 . S
C727 C120 1.457 . S
C732 C217 1.433 . S
C737 C232 1.469 . S
C742 C22 1.466 . S
C747 C246 1.470 . S
C752 C8 1.467 . S
C757 C260 1.469 . S
C762 C50 1.466 . S
C767 C274 1.469 . S
C772 C36 1.466 . S
C777 C288 1.445 . S
C782 C92 1.441 . S
C787 C302 1.444 . S
C792 C64 1.441 . S
C797 C78 1.441 . S
C802 C316 1.445 . S
C807 C330 1.444 . S
C812 C106 1.440 . S
