# Generated by pormake.
# Topology pem, (4)-cn, num edge types: 1
# Building blocks:
#     Node 0, Type 0, BuildingBlock: AZAVOO_clean_sbu_0, # of connection points: 4
#     Node 1, Type 0, BuildingBlock: AZAVOO_clean_sbu_0, # of connection points: 4
#     Node 2, Type 0, BuildingBlock: AZAVOO_clean_sbu_0, # of connection points: 4
#     Node 3, Type 0, BuildingBlock: AZAVOO_clean_sbu_0, # of connection points: 4
#     Node 4, Type 0, BuildingBlock: AZAVOO_clean_sbu_0, # of connection points: 4
#     Node 5, Type 0, BuildingBlock: AZAVOO_clean_sbu_0, # of connection points: 4
#     Node 6, Type 0, BuildingBlock: AZAVOO_clean_sbu_0, # of connection points: 4
#     Node 7, Type 0, BuildingBlock: AZAVOO_clean_sbu_0, # of connection points: 4
#     Node 8, Type 0, BuildingBlock: AZAVOO_clean_sbu_0, # of connection points: 4
#     Node 9, Type 0, BuildingBlock: AZAVOO_clean_sbu_0, # of connection points: 4
#     Node 10, Type 0, BuildingBlock: AZAVOO_clean_sbu_0, # of connection points: 4
#     Node 11, Type 0, BuildingBlock: AZAVOO_clean_sbu_0, # of connection points: 4
#     Node 12, Type 0, BuildingBlock: AZAVOO_clean_sbu_0, # of connection points: 4
#     Node 13, Type 0, BuildingBlock: AZAVOO_clean_sbu_0, # of connection points: 4
#     Node 14, Type 0, BuildingBlock: AZAVOO_clean_sbu_0, # of connection points: 4
#     Node 15, Type 0, BuildingBlock: AZAVOO_clean_sbu_0, # of connection points: 4
#     Node 16, Type 0, BuildingBlock: AZAVOO_clean_sbu_0, # of connection points: 4
#     Node 17, Type 0, BuildingBlock: AZAVOO_clean_sbu_0, # of connection points: 4
#     Node 18, Type 0, BuildingBlock: AZAVOO_clean_sbu_0, # of connection points: 4
#     Node 19, Type 0, BuildingBlock: AZAVOO_clean_sbu_0, # of connection points: 4
#     Node 20, Type 0, BuildingBlock: AZAVOO_clean_sbu_0, # of connection points: 4
#     Node 21, Type 0, BuildingBlock: AZAVOO_clean_sbu_0, # of connection points: 4
#     Node 22, Type 0, BuildingBlock: AZAVOO_clean_sbu_0, # of connection points: 4
#     Node 23, Type 0, BuildingBlock: AZAVOO_clean_sbu_0, # of connection points: 4
#     Node 24, Type 0, BuildingBlock: AZAVOO_clean_sbu_0, # of connection points: 4
#     Node 25, Type 0, BuildingBlock: AZAVOO_clean_sbu_0, # of connection points: 4
#     Node 26, Type 0, BuildingBlock: AZAVOO_clean_sbu_0, # of connection points: 4
#     Node 27, Type 0, BuildingBlock: AZAVOO_clean_sbu_0, # of connection points: 4
#     Node 28, Type 0, BuildingBlock: AZAVOO_clean_sbu_0, # of connection points: 4
#     Node 29, Type 0, BuildingBlock: AZAVOO_clean_sbu_0, # of connection points: 4
#     Node 30, Type 0, BuildingBlock: AZAVOO_clean_sbu_0, # of connection points: 4
#     Node 31, Type 0, BuildingBlock: AZAVOO_clean_sbu_0, # of connection points: 4
#     Edge 32, Type (0, 0), BuildingBlock: UVAHIK_clean_linker_0, # of connection points: 2
#     Edge 33, Type (0, 0), BuildingBlock: UVAHIK_clean_linker_0, # of connection points: 2
#     Edge 34, Type (0, 0), BuildingBlock: UVAHIK_clean_linker_0, # of connection points: 2
#     Edge 35, Type (0, 0), BuildingBlock: UVAHIK_clean_linker_0, # of connection points: 2
#     Edge 36, Type (0, 0), BuildingBlock: UVAHIK_clean_linker_0, # of connection points: 2
#     Edge 37, Type (0, 0), BuildingBlock: UVAHIK_clean_linker_0, # of connection points: 2
#     Edge 38, Type (0, 0), BuildingBlock: UVAHIK_clean_linker_0, # of connection points: 2
#     Edge 39, Type (0, 0), BuildingBlock: UVAHIK_clean_linker_0, # of connection points: 2
#     Edge 40, Type (0, 0), BuildingBlock: UVAHIK_clean_linker_0, # of connection points: 2
#     Edge 41, Type (0, 0), BuildingBlock: UVAHIK_clean_linker_0, # of connection points: 2
#     Edge 42, Type (0, 0), BuildingBlock: UVAHIK_clean_linker_0, # of connection points: 2
#     Edge 43, Type (0, 0), BuildingBlock: UVAHIK_clean_linker_0, # of connection points: 2
#     Edge 44, Type (0, 0), BuildingBlock: UVAHIK_clean_linker_0, # of connection points: 2
#     Edge 45, Type (0, 0), BuildingBlock: UVAHIK_clean_linker_0, # of connection points: 2
#     Edge 46, Type (0, 0), BuildingBlock: UVAHIK_clean_linker_0, # of connection points: 2
#     Edge 47, Type (0, 0), BuildingBlock: UVAHIK_clean_linker_0, # of connection points: 2
#     Edge 48, Type (0, 0), BuildingBlock: UVAHIK_clean_linker_0, # of connection points: 2
#     Edge 49, Type (0, 0), BuildingBlock: UVAHIK_clean_linker_0, # of connection points: 2
#     Edge 50, Type (0, 0), BuildingBlock: UVAHIK_clean_linker_0, # of connection points: 2
#     Edge 51, Type (0, 0), BuildingBlock: UVAHIK_clean_linker_0, # of connection points: 2
#     Edge 52, Type (0, 0), BuildingBlock: UVAHIK_clean_linker_0, # of connection points: 2
#     Edge 53, Type (0, 0), BuildingBlock: UVAHIK_clean_linker_0, # of connection points: 2
#     Edge 54, Type (0, 0), BuildingBlock: UVAHIK_clean_linker_0, # of connection points: 2
#     Edge 55, Type (0, 0), BuildingBlock: UVAHIK_clean_linker_0, # of connection points: 2
#     Edge 56, Type (0, 0), BuildingBlock: UVAHIK_clean_linker_0, # of connection points: 2
#     Edge 57, Type (0, 0), BuildingBlock: UVAHIK_clean_linker_0, # of connection points: 2
#     Edge 58, Type (0, 0), BuildingBlock: UVAHIK_clean_linker_0, # of connection points: 2
#     Edge 59, Type (0, 0), BuildingBlock: UVAHIK_clean_linker_0, # of connection points: 2
#     Edge 60, Type (0, 0), BuildingBlock: UVAHIK_clean_linker_0, # of connection points: 2
#     Edge 61, Type (0, 0), BuildingBlock: UVAHIK_clean_linker_0, # of connection points: 2
#     Edge 62, Type (0, 0), BuildingBlock: UVAHIK_clean_linker_0, # of connection points: 2
#     Edge 63, Type (0, 0), BuildingBlock: UVAHIK_clean_linker_0, # of connection points: 2
#     Edge 64, Type (0, 0), BuildingBlock: UVAHIK_clean_linker_0, # of connection points: 2
#     Edge 65, Type (0, 0), BuildingBlock: UVAHIK_clean_linker_0, # of connection points: 2
#     Edge 66, Type (0, 0), BuildingBlock: UVAHIK_clean_linker_0, # of connection points: 2
#     Edge 67, Type (0, 0), BuildingBlock: UVAHIK_clean_linker_0, # of connection points: 2
#     Edge 68, Type (0, 0), BuildingBlock: UVAHIK_clean_linker_0, # of connection points: 2
#     Edge 69, Type (0, 0), BuildingBlock: UVAHIK_clean_linker_0, # of connection points: 2
#     Edge 70, Type (0, 0), BuildingBlock: UVAHIK_clean_linker_0, # of connection points: 2
#     Edge 71, Type (0, 0), BuildingBlock: UVAHIK_clean_linker_0, # of connection points: 2
#     Edge 72, Type (0, 0), BuildingBlock: UVAHIK_clean_linker_0, # of connection points: 2
#     Edge 73, Type (0, 0), BuildingBlock: UVAHIK_clean_linker_0, # of connection points: 2
#     Edge 74, Type (0, 0), BuildingBlock: UVAHIK_clean_linker_0, # of connection points: 2
#     Edge 75, Type (0, 0), BuildingBlock: UVAHIK_clean_linker_0, # of connection points: 2
#     Edge 76, Type (0, 0), BuildingBlock: UVAHIK_clean_linker_0, # of connection points: 2
#     Edge 77, Type (0, 0), BuildingBlock: UVAHIK_clean_linker_0, # of connection points: 2
#     Edge 78, Type (0, 0), BuildingBlock: UVAHIK_clean_linker_0, # of connection points: 2
#     Edge 79, Type (0, 0), BuildingBlock: UVAHIK_clean_linker_0, # of connection points: 2
#     Edge 80, Type (0, 0), BuildingBlock: UVAHIK_clean_linker_0, # of connection points: 2
#     Edge 81, Type (0, 0), BuildingBlock: UVAHIK_clean_linker_0, # of connection points: 2
#     Edge 82, Type (0, 0), BuildingBlock: UVAHIK_clean_linker_0, # of connection points: 2
#     Edge 83, Type (0, 0), BuildingBlock: UVAHIK_clean_linker_0, # of connection points: 2
#     Edge 84, Type (0, 0), BuildingBlock: UVAHIK_clean_linker_0, # of connection points: 2
#     Edge 85, Type (0, 0), BuildingBlock: UVAHIK_clean_linker_0, # of connection points: 2
#     Edge 86, Type (0, 0), BuildingBlock: UVAHIK_clean_linker_0, # of connection points: 2
#     Edge 87, Type (0, 0), BuildingBlock: UVAHIK_clean_linker_0, # of connection points: 2
#     Edge 88, Type (0, 0), BuildingBlock: UVAHIK_clean_linker_0, # of connection points: 2
#     Edge 89, Type (0, 0), BuildingBlock: UVAHIK_clean_linker_0, # of connection points: 2
#     Edge 90, Type (0, 0), BuildingBlock: UVAHIK_clean_linker_0, # of connection points: 2
#     Edge 91, Type (0, 0), BuildingBlock: UVAHIK_clean_linker_0, # of connection points: 2
#     Edge 92, Type (0, 0), BuildingBlock: UVAHIK_clean_linker_0, # of connection points: 2
#     Edge 93, Type (0, 0), BuildingBlock: UVAHIK_clean_linker_0, # of connection points: 2
#     Edge 94, Type (0, 0), BuildingBlock: UVAHIK_clean_linker_0, # of connection points: 2
#     Edge 95, Type (0, 0), BuildingBlock: UVAHIK_clean_linker_0, # of connection points: 2
# Relax obj value: 0.063
# Max RMSD: 0.038
# Mean RMSD: 0.034
data_MOF--net-pem--node1-AZAVOO_clean_sbu_0--edge1-UVAHIK_clean_linker_0
_symmetry_space_group_name_H-M    P1
_symmetry_Int_Tables_number       1
_symmetry_cell_setting            triclinic
loop_
_symmetry_equiv_pos_as_xyz
'x, y, z'
_cell_length_a     54.344762
_cell_length_b     56.301346
_cell_length_c     55.876145
_cell_angle_alpha  90.006587
_cell_angle_beta   90.18512
_cell_angle_gamma 90.392848
loop_
_atom_site_label
_atom_site_type_symbol
_atom_site_fract_x
_atom_site_fract_y
_atom_site_fract_z
_atom_type_partial_charge
Mg0 Mg 0.11994 0.09177 0.1136 0.0
O1 O 0.09263 0.06896 0.09178 0.0
O2 O 0.06387 0.05633 0.11752 0.0
Mg3 Mg 0.07169 0.07154 0.1547 0.0
C4 C 0.07306 0.05714 0.09651 0.0
C5 C 0.16229 0.10409 0.0812 0.0
O6 O 0.17233 0.0964 0.10114 0.0
O7 O 0.09226 0.12213 0.11292 0.0
O8 O 0.06515 0.10896 0.14 0.0
O9 O 0.141 0.0591 0.12332 0.0
O10 O 0.11029 0.07331 0.14451 0.0
C11 C 0.07287 0.12482 0.12546 0.0
C12 C 0.12598 0.05667 0.14107 0.0
O13 O 0.13895 0.10485 0.07978 0.0
Mg14 Mg 0.13553 0.84557 0.35227 0.0
O15 O 0.16286 0.82466 0.3287 0.0
O16 O 0.19248 0.85064 0.31877 0.0
Mg17 Mg 0.18422 0.88721 0.33426 0.0
C18 C 0.1831 0.82977 0.31816 0.0
C19 C 0.10556 0.79986 0.34722 0.0
O20 O 0.10961 0.80625 0.32496 0.0
O21 O 0.16306 0.84387 0.38338 0.0
O22 O 0.19 0.87169 0.37163 0.0
O23 O 0.11435 0.85644 0.31977 0.0
O24 O 0.14552 0.87688 0.33469 0.0
C25 C 0.18226 0.85661 0.38698 0.0
C26 C 0.12962 0.87402 0.31779 0.0
O27 O 0.11564 0.81177 0.36394 0.0
Mg28 Mg 0.39744 0.88495 0.60219 0.0
O29 O 0.41618 0.91509 0.5809 0.0
O30 O 0.44307 0.93298 0.60553 0.0
Mg31 Mg 0.44337 0.91331 0.64112 0.0
C32 C 0.43237 0.9311 0.58524 0.0
C33 C 0.36754 0.8519 0.56698 0.0
O34 O 0.36898 0.83692 0.58495 0.0
O35 O 0.4317 0.86242 0.59631 0.0
O36 O 0.45789 0.88047 0.62143 0.0
O37 O 0.36994 0.91043 0.61652 0.0
O38 O 0.40526 0.90251 0.6343 0.0
C39 C 0.45289 0.86423 0.60615 0.0
C40 C 0.38556 0.91507 0.63343 0.0
O41 O 0.37876 0.87175 0.56831 0.0
Mg42 Mg 0.35665 0.13291 0.83794 0.0
O43 O 0.33372 0.15696 0.81305 0.0
O44 O 0.30289 0.13396 0.7994 0.0
Mg45 Mg 0.30601 0.09629 0.81435 0.0
C46 C 0.31427 0.15388 0.80041 0.0
C47 C 0.37373 0.18119 0.86602 0.0
O48 O 0.35132 0.18329 0.87445 0.0
O49 O 0.32697 0.13576 0.86652 0.0
O50 O 0.29901 0.1098 0.85254 0.0
O51 O 0.38013 0.12022 0.80772 0.0
O52 O 0.3451 0.10353 0.81865 0.0
C53 C 0.30699 0.12392 0.86876 0.0
C54 C 0.36335 0.10422 0.80413 0.0
O55 O 0.37892 0.16406 0.85218 0.0
Mg56 Mg 0.11063 0.89214 0.3853 0.0
O57 O 0.08102 0.91549 0.40325 0.0
O58 O 0.05351 0.92335 0.37441 0.0
Mg59 Mg 0.06544 0.90706 0.33889 0.0
C60 C 0.06099 0.92504 0.39606 0.0
C61 C 0.13936 0.89805 0.43221 0.0
O62 O 0.13754 0.92 0.42447 0.0
O63 O 0.08369 0.86077 0.38607 0.0
O64 O 0.05905 0.87037 0.35543 0.0
O65 O 0.13184 0.92465 0.3747 0.0
O66 O 0.10288 0.90799 0.35257 0.0
C67 C 0.06581 0.85609 0.37192 0.0
C68 C 0.11805 0.92531 0.35583 0.0
O69 O 0.12805 0.88169 0.42093 0.0
Mg70 Mg 0.36229 0.85847 0.6526 0.0
O71 O 0.33515 0.83691 0.67545 0.0
O72 O 0.30522 0.86176 0.68633 0.0
Mg73 Mg 0.31339 0.89881 0.67138 0.0
C74 C 0.31506 0.8412 0.68644 0.0
C75 C 0.40515 0.82793 0.64143 0.0
O76 O 0.41391 0.84854 0.64862 0.0
O77 O 0.33527 0.85765 0.62114 0.0
O78 O 0.30844 0.88528 0.633 0.0
O79 O 0.38286 0.86858 0.68582 0.0
O80 O 0.35216 0.88909 0.67048 0.0
C81 C 0.31652 0.87071 0.61742 0.0
C82 C 0.36771 0.88611 0.68758 0.0
O83 O 0.38195 0.82515 0.64026 0.0
Mg84 Mg 0.37026 0.0965 0.89258 0.0
O85 O 0.3961 0.06909 0.9096 0.0
O86 O 0.41884 0.05317 0.88049 0.0
Mg87 Mg 0.40809 0.07103 0.84519 0.0
C88 C 0.41268 0.05474 0.90248 0.0
C89 C 0.3536 0.13254 0.93032 0.0
O90 O 0.35497 0.14581 0.91105 0.0
O91 O 0.40267 0.1222 0.88975 0.0
O92 O 0.42416 0.10592 0.85997 0.0
O93 O 0.34303 0.06736 0.88589 0.0
O94 O 0.37193 0.07872 0.86034 0.0
C95 C 0.4211 0.12217 0.87564 0.0
C96 C 0.35471 0.06404 0.86603 0.0
O97 O 0.35989 0.11089 0.92903 0.0
Mg98 Mg 0.14103 0.14241 0.14942 0.0
O99 O 0.16066 0.16342 0.17955 0.0
O100 O 0.19033 0.14007 0.19403 0.0
Mg101 Mg 0.1908 0.10542 0.1732 0.0
C102 C 0.17846 0.15956 0.19405 0.0
C103 C 0.10589 0.18437 0.15383 0.0
O104 O 0.10661 0.17586 0.17571 0.0
O105 O 0.17341 0.15121 0.12479 0.0
O106 O 0.20183 0.12716 0.14034 0.0
O107 O 0.11614 0.12511 0.17607 0.0
O108 O 0.15194 0.11058 0.16502 0.0
C109 C 0.19513 0.14263 0.12497 0.0
C110 C 0.1331 0.10934 0.17885 0.0
O111 O 0.1195 0.17509 0.13796 0.0
Mg112 Mg 0.61057 0.38823 0.88708 0.0
O113 O 0.58846 0.41889 0.9043 0.0
O114 O 0.56329 0.43269 0.8758 0.0
Mg115 Mg 0.56696 0.41054 0.84206 0.0
C116 C 0.57205 0.43342 0.89701 0.0
C117 C 0.63994 0.39446 0.93339 0.0
O118 O 0.63938 0.41596 0.92428 0.0
O119 O 0.57704 0.36359 0.89183 0.0
O120 O 0.5531 0.37845 0.86298 0.0
O121 O 0.63784 0.41441 0.87209 0.0
O122 O 0.60438 0.40245 0.85314 0.0
C123 C 0.55704 0.36347 0.87968 0.0
C124 C 0.62325 0.4163 0.85387 0.0
O125 O 0.62781 0.37804 0.92299 0.0
Mg126 Mg 0.87216 0.34998 0.14573 0.0
O127 O 0.84444 0.33592 0.17283 0.0
O128 O 0.82047 0.36564 0.185 0.0
Mg129 Mg 0.83353 0.39941 0.16563 0.0
C130 C 0.82683 0.34384 0.18553 0.0
C131 C 0.89348 0.3072 0.11693 0.0
O132 O 0.89487 0.32375 0.10052 0.0
O133 O 0.84145 0.35139 0.11724 0.0
O134 O 0.82137 0.38371 0.12972 0.0
O135 O 0.89737 0.35932 0.17613 0.0
O136 O 0.86981 0.38364 0.16066 0.0
C137 C 0.82468 0.36705 0.11458 0.0
C138 C 0.8859 0.37937 0.17697 0.0
O139 O 0.88347 0.31204 0.13684 0.0
Mg140 Mg 0.87654 0.58556 0.38984 0.0
O141 O 0.90576 0.56085 0.40493 0.0
O142 O 0.93093 0.54982 0.37551 0.0
Mg143 Mg 0.91728 0.56774 0.34097 0.0
C144 C 0.92428 0.54924 0.39741 0.0
C145 C 0.85422 0.61545 0.42933 0.0
O146 O 0.85119 0.62812 0.40991 0.0
O147 O 0.90492 0.61593 0.38796 0.0
O148 O 0.92671 0.60441 0.3561 0.0
O149 O 0.8536 0.55347 0.38032 0.0
O150 O 0.88042 0.57082 0.35622 0.0
C151 C 0.92181 0.61949 0.37246 0.0
C152 C 0.86525 0.55371 0.36014 0.0
O153 O 0.86505 0.59562 0.42764 0.0
Mg154 Mg 0.85103 0.64132 0.34038 0.0
O155 O 0.82298 0.6611 0.31713 0.0
O156 O 0.79419 0.63454 0.30641 0.0
Mg157 Mg 0.80454 0.59787 0.32075 0.0
C158 C 0.80287 0.65569 0.30646 0.0
C159 C 0.87925 0.67877 0.37235 0.0
O160 O 0.87863 0.66126 0.38777 0.0
O161 O 0.82279 0.64091 0.37076 0.0
O162 O 0.79806 0.61121 0.35878 0.0
O163 O 0.8735 0.63177 0.30836 0.0
O164 O 0.84282 0.60993 0.32221 0.0
C165 C 0.80479 0.62662 0.37429 0.0
C166 C 0.85915 0.61351 0.30594 0.0
O167 O 0.86841 0.67635 0.35229 0.0
Mg168 Mg 0.63317 0.33963 0.84225 0.0
O169 O 0.66508 0.32372 0.82037 0.0
O170 O 0.69116 0.35394 0.81323 0.0
Mg171 Mg 0.67524 0.38865 0.82761 0.0
C172 C 0.6852 0.33197 0.81174 0.0
C173 C 0.60829 0.30084 0.87328 0.0
O174 O 0.60803 0.31887 0.88821 0.0
O175 O 0.6589 0.34191 0.87464 0.0
O176 O 0.68129 0.37403 0.86519 0.0
O177 O 0.61196 0.34757 0.8087 0.0
O178 O 0.6393 0.37163 0.82542 0.0
C179 C 0.6753 0.35749 0.87971 0.0
C180 C 0.62482 0.36696 0.80779 0.0
O181 O 0.61888 0.30329 0.85318 0.0
Mg182 Mg 0.89764 0.89283 0.89328 0.0
O183 O 0.9235 0.91261 0.91992 0.0
O184 O 0.92702 0.88852 0.95162 0.0
Mg185 Mg 0.90733 0.8536 0.94464 0.0
C186 C 0.9317 0.90808 0.94094 0.0
C187 C 0.88308 0.9258 0.85525 0.0
O188 O 0.86331 0.91505 0.86343 0.0
O189 O 0.92971 0.86992 0.88115 0.0
O190 O 0.93444 0.84761 0.914 0.0
O191 O 0.86532 0.90757 0.9123 0.0
O192 O 0.88254 0.87331 0.92135 0.0
C193 C 0.94085 0.8538 0.89293 0.0
C194 C 0.86667 0.88942 0.92638 0.0
O195 O 0.90385 0.92025 0.86408 0.0
Mg196 Mg 0.8642 0.1424 0.63923 0.0
O197 O 0.84579 0.17226 0.66127 0.0
O198 O 0.84675 0.20517 0.63884 0.0
Mg199 Mg 0.86338 0.1963 0.60264 0.0
C200 C 0.84112 0.1943 0.65815 0.0
C201 C 0.85809 0.11741 0.68784 0.0
O202 O 0.86748 0.13791 0.69463 0.0
O203 O 0.82868 0.13851 0.61808 0.0
O204 O 0.82958 0.17237 0.59707 0.0
O205 O 0.90093 0.15383 0.65258 0.0
O206 O 0.88343 0.16732 0.61949 0.0
C207 C 0.81906 0.15295 0.60319 0.0
C208 C 0.90121 0.16843 0.6347 0.0
O209 O 0.85282 0.11422 0.66593 0.0
Mg210 Mg 0.60459 0.10918 0.39671 0.0
O211 O 0.57758 0.08801 0.4209 0.0
O212 O 0.57041 0.11133 0.45255 0.0
Mg213 Mg 0.58955 0.14694 0.44785 0.0
C214 C 0.56733 0.09188 0.44114 0.0
C215 C 0.62225 0.07772 0.35813 0.0
O216 O 0.64163 0.08786 0.36792 0.0
O217 O 0.57254 0.13099 0.38284 0.0
O218 O 0.5642 0.1525 0.41553 0.0
O219 O 0.63615 0.09537 0.41787 0.0
O220 O 0.61664 0.1287 0.42598 0.0
C221 C 0.55977 0.14635 0.39395 0.0
C222 C 0.63291 0.11328 0.43197 0.0
O223 O 0.60111 0.0826 0.36638 0.0
Mg224 Mg 0.63925 0.86319 0.13929 0.0
O225 O 0.6595 0.83542 0.16267 0.0
O226 O 0.65994 0.80147 0.14176 0.0
Mg227 Mg 0.64504 0.8084 0.10451 0.0
C228 C 0.66459 0.81335 0.16072 0.0
C229 C 0.64324 0.89001 0.18711 0.0
O230 O 0.63438 0.86947 0.19435 0.0
O231 O 0.67444 0.86936 0.11834 0.0
O232 O 0.67678 0.83457 0.09909 0.0
O233 O 0.6034 0.84904 0.15258 0.0
O234 O 0.62254 0.83618 0.12025 0.0
C235 C 0.68546 0.85504 0.10438 0.0
C236 C 0.60491 0.83375 0.13536 0.0
O237 O 0.64848 0.89278 0.16517 0.0
Mg238 Mg 0.88645 0.09143 0.59547 0.0
O239 O 0.90725 0.07363 0.56441 0.0
O240 O 0.90976 0.09987 0.53451 0.0
Mg241 Mg 0.89072 0.13394 0.54619 0.0
C242 C 0.91431 0.07947 0.54341 0.0
C243 C 0.89341 0.04064 0.61479 0.0
O244 O 0.8837 0.03621 0.59367 0.0
O245 O 0.92063 0.11283 0.60436 0.0
O246 O 0.92142 0.13886 0.57416 0.0
O247 O 0.85052 0.0792 0.58085 0.0
O248 O 0.86821 0.1134 0.5715 0.0
C249 C 0.93039 0.13043 0.59353 0.0
C250 C 0.85042 0.0985 0.56825 0.0
O251 O 0.89781 0.06203 0.6207 0.0
Mg252 Mg 0.64592 0.14838 0.34677 0.0
O253 O 0.67738 0.17162 0.33238 0.0
O254 O 0.71183 0.15018 0.33304 0.0
Mg255 Mg 0.70288 0.11368 0.34868 0.0
C256 C 0.70037 0.16936 0.32837 0.0
C257 C 0.62014 0.19607 0.34307 0.0
O258 O 0.63933 0.20045 0.35678 0.0
O259 O 0.64539 0.12782 0.31147 0.0
O260 O 0.6793 0.10582 0.3156 0.0
O261 O 0.65426 0.15951 0.38457 0.0
O262 O 0.67082 0.12872 0.36654 0.0
C263 C 0.66004 0.11179 0.30394 0.0
C264 C 0.66962 0.14206 0.38512 0.0
O265 O 0.61769 0.17546 0.33405 0.0
Mg266 Mg 0.58786 0.89061 0.10359 0.0
O267 O 0.55964 0.91134 0.081 0.0
O268 O 0.5263 0.91619 0.10385 0.0
Mg269 Mg 0.53287 0.89946 0.14053 0.0
C270 C 0.53782 0.91913 0.08417 0.0
C271 C 0.62592 0.8786 0.06583 0.0
O272 O 0.61541 0.85819 0.07101 0.0
O273 O 0.59694 0.92451 0.12447 0.0
O274 O 0.56315 0.92706 0.14706 0.0
O275 O 0.57035 0.8565 0.09164 0.0
O276 O 0.55967 0.87608 0.12411 0.0
C277 C 0.58435 0.9347 0.14076 0.0
C278 C 0.55586 0.85861 0.10979 0.0
O279 O 0.61848 0.89727 0.07633 0.0
Mg280 Mg 0.84901 0.85739 0.85785 0.0
O281 O 0.81768 0.83635 0.84007 0.0
O282 O 0.78413 0.85899 0.83824 0.0
Mg283 Mg 0.79418 0.89477 0.85517 0.0
C284 C 0.7952 0.83947 0.83421 0.0
C285 C 0.87242 0.8081 0.85148 0.0
O286 O 0.85233 0.80294 0.86347 0.0
O287 O 0.85405 0.87857 0.82375 0.0
O288 O 0.82084 0.90177 0.82395 0.0
O289 O 0.8369 0.84487 0.89362 0.0
O290 O 0.82331 0.8776 0.87637 0.0
C291 C 0.84102 0.89497 0.81452 0.0
C292 C 0.82208 0.86277 0.8939 0.0
O293 O 0.87652 0.82958 0.84563 0.0
Mg294 Mg 0.39878 0.59903 0.09454 0.0
O295 O 0.42337 0.58459 0.0647 0.0
O296 O 0.41986 0.60856 0.03305 0.0
Mg297 Mg 0.39392 0.6389 0.04286 0.0
C298 C 0.42883 0.59023 0.04322 0.0
C299 C 0.39652 0.56202 0.13105 0.0
O300 O 0.37421 0.56987 0.12686 0.0
O301 O 0.42757 0.62755 0.10328 0.0
O302 O 0.42097 0.65098 0.07159 0.0
O303 O 0.36637 0.57966 0.07862 0.0
O304 O 0.37682 0.61658 0.06994 0.0
C305 C 0.43178 0.64655 0.09141 0.0
C306 C 0.36261 0.59869 0.06624 0.0
O307 O 0.41444 0.57206 0.1205 0.0
Mg308 Mg 0.15102 0.63707 0.85042 0.0
O309 O 0.18277 0.66058 0.83703 0.0
O310 O 0.21755 0.63976 0.83594 0.0
Mg311 Mg 0.20775 0.60214 0.84787 0.0
C312 C 0.20575 0.65902 0.8327 0.0
C313 C 0.12864 0.68608 0.84962 0.0
O314 O 0.14843 0.68829 0.86302 0.0
O315 O 0.14923 0.62012 0.8136 0.0
O316 O 0.18409 0.59914 0.81391 0.0
O317 O 0.16046 0.64521 0.88838 0.0
O318 O 0.17597 0.61528 0.86794 0.0
C319 C 0.16442 0.60611 0.80354 0.0
C320 C 0.17554 0.62756 0.88734 0.0
O321 O 0.12387 0.666 0.84026 0.0
Mg322 Mg 0.10418 0.39158 0.59687 0.0
O323 O 0.0728 0.40769 0.57479 0.0
O324 O 0.03874 0.40914 0.59692 0.0
Mg325 Mg 0.04878 0.39439 0.63377 0.0
C326 C 0.05014 0.41286 0.57732 0.0
C327 C 0.12608 0.39566 0.54724 0.0
O328 O 0.10586 0.3832 0.54372 0.0
O329 O 0.10842 0.42621 0.61677 0.0
O330 O 0.07441 0.42665 0.63926 0.0
O331 O 0.09283 0.35542 0.58574 0.0
O332 O 0.07893 0.37378 0.61797 0.0
C333 C 0.09466 0.43602 0.63229 0.0
C334 C 0.07807 0.35571 0.60388 0.0
O335 O 0.1311 0.40289 0.56823 0.0
Mg336 Mg 0.12381 0.34261 0.6461 0.0
O337 O 0.15648 0.32135 0.66192 0.0
O338 O 0.15987 0.28959 0.63798 0.0
Mg339 Mg 0.13046 0.2897 0.60866 0.0
C340 C 0.16699 0.3019 0.65599 0.0
C341 C 0.11316 0.38675 0.67379 0.0
O342 O 0.09167 0.37741 0.66824 0.0
O343 O 0.14857 0.35488 0.61551 0.0
O344 O 0.14918 0.32242 0.59247 0.0
O345 O 0.0974 0.32237 0.66936 0.0
O346 O 0.10924 0.31122 0.63329 0.0
C347 C 0.15496 0.34408 0.59645 0.0
C348 C 0.0977 0.30637 0.65276 0.0
O349 O 0.13252 0.3759 0.66749 0.0
Mg350 Mg 0.35235 0.63602 0.13993 0.0
O351 O 0.3251 0.66052 0.15997 0.0
O352 O 0.32028 0.69234 0.1364 0.0
Mg353 Mg 0.34296 0.6887 0.10241 0.0
C354 C 0.31551 0.68077 0.15552 0.0
C355 C 0.36604 0.59835 0.17502 0.0
O356 O 0.38659 0.60921 0.16909 0.0
O357 O 0.3213 0.62413 0.1146 0.0
O358 O 0.31862 0.65713 0.09259 0.0
O359 O 0.38367 0.65589 0.15687 0.0
O360 O 0.36715 0.66514 0.12204 0.0
C361 C 0.31182 0.63591 0.09737 0.0
C362 C 0.38237 0.67027 0.13891 0.0
O363 O 0.34594 0.60521 0.16565 0.0
Mg364 Mg 0.60772 0.5916 0.61091 0.0
O365 O 0.58021 0.56776 0.59012 0.0
O366 O 0.55212 0.55657 0.61722 0.0
Mg367 Mg 0.56109 0.57197 0.65405 0.0
C368 C 0.56064 0.55636 0.59592 0.0
C369 C 0.64963 0.60515 0.57988 0.0
O370 O 0.65856 0.59925 0.60092 0.0
O371 O 0.57969 0.62165 0.61072 0.0
O372 O 0.55442 0.60948 0.63986 0.0
O373 O 0.63026 0.56001 0.62084 0.0
O374 O 0.59915 0.57335 0.64214 0.0
C375 C 0.56135 0.62494 0.62454 0.0
C376 C 0.61557 0.55736 0.63879 0.0
O377 O 0.62643 0.60457 0.5769 0.0
Mg378 Mg 0.88482 0.40111 0.09667 0.0
O379 O 0.91147 0.42481 0.0758 0.0
O380 O 0.94058 0.43754 0.10122 0.0
Mg381 Mg 0.93094 0.42438 0.13894 0.0
C382 C 0.93122 0.43644 0.08023 0.0
C383 C 0.86162 0.36673 0.05733 0.0
O384 O 0.86629 0.35023 0.07316 0.0
O385 O 0.91406 0.37175 0.0984 0.0
O386 O 0.93825 0.38618 0.1276 0.0
O387 O 0.86123 0.43243 0.10542 0.0
O388 O 0.89269 0.42051 0.12736 0.0
C389 C 0.93202 0.36966 0.1131 0.0
C390 C 0.87584 0.43594 0.1234 0.0
O391 O 0.86809 0.38802 0.06162 0.0
Mg392 Mg 0.64507 0.63622 0.65142 0.0
O393 O 0.66452 0.65629 0.68218 0.0
O394 O 0.69288 0.6319 0.69739 0.0
Mg395 Mg 0.6911 0.59641 0.67774 0.0
C396 C 0.68193 0.65189 0.69696 0.0
C397 C 0.61918 0.67246 0.61732 0.0
O398 O 0.62176 0.65471 0.6023 0.0
O399 O 0.67924 0.64226 0.62835 0.0
O400 O 0.70499 0.61588 0.64453 0.0
O401 O 0.61745 0.62066 0.67694 0.0
O402 O 0.65316 0.60436 0.66803 0.0
C403 C 0.69999 0.63172 0.62892 0.0
C404 C 0.63357 0.6043 0.68083 0.0
O405 O 0.62754 0.67049 0.63849 0.0
Mg406 Mg 0.38161 0.38843 0.40075 0.0
O407 O 0.41121 0.40471 0.42555 0.0
O408 O 0.41338 0.38059 0.45732 0.0
Mg409 Mg 0.38706 0.34907 0.45272 0.0
C410 C 0.42014 0.39925 0.44603 0.0
C411 C 0.37424 0.42766 0.36458 0.0
O412 O 0.3542 0.42743 0.37761 0.0
O413 O 0.40863 0.3601 0.38809 0.0
O414 O 0.40883 0.3363 0.4201 0.0
O415 O 0.35264 0.40806 0.42099 0.0
O416 O 0.36475 0.37191 0.42999 0.0
C417 C 0.4155 0.34118 0.39874 0.0
C418 C 0.35136 0.38994 0.4351 0.0
O419 O 0.39148 0.41341 0.3699 0.0
Mg420 Mg 0.1067 0.60532 0.88706 0.0
O421 O 0.07525 0.58723 0.90793 0.0
O422 O 0.0703 0.6085 0.94149 0.0
Mg423 Mg 0.0982 0.63899 0.94248 0.0
C424 C 0.06439 0.59114 0.92783 0.0
C425 C 0.11824 0.5758 0.8445 0.0
O426 O 0.13926 0.58123 0.85485 0.0
O427 O 0.08078 0.63543 0.87583 0.0
O428 O 0.07895 0.65538 0.91027 0.0
O429 O 0.13358 0.58221 0.90612 0.0
O430 O 0.12122 0.61703 0.91953 0.0
C431 C 0.07346 0.65311 0.88817 0.0
C432 C 0.13318 0.59768 0.9232 0.0
O433 O 0.09852 0.58387 0.85347 0.0
Mg434 Mg 0.35457 0.36112 0.35002 0.0
O435 O 0.32283 0.34251 0.3302 0.0
O436 O 0.29161 0.36766 0.32534 0.0
Mg437 Mg 0.30418 0.40311 0.34129 0.0
C438 C 0.30116 0.34718 0.32275 0.0
C439 C 0.37198 0.30986 0.34722 0.0
O440 O 0.35053 0.30788 0.35783 0.0
O441 O 0.36509 0.38037 0.31602 0.0
O442 O 0.33384 0.40571 0.31216 0.0
O443 O 0.33783 0.35089 0.38466 0.0
O444 O 0.32948 0.38416 0.36532 0.0
C445 C 0.35416 0.39702 0.30488 0.0
C446 C 0.32485 0.37001 0.38286 0.0
O447 O 0.37957 0.33034 0.34104 0.0
C448 C 0.06484 0.04859 0.05297 0.0
C449 C 0.06081 0.04334 0.07728 0.0
C450 C 0.05307 0.03526 0.03504 0.0
C451 C 0.02705 0.97658 0.02406 0.0
H452 H 0.98411 0.00546 0.97688 0.0
C453 C 0.95225 0.92242 0.97819 0.0
C454 C 0.94743 0.92561 0.95368 0.0
C455 C 0.96799 0.93778 0.99044 0.0
C456 C 0.9964 -0.00284 0.98963 0.0
H457 H 0.04143 0.01992 0.10178 0.0
H458 H 0.02143 -0.00347 0.0706 0.0
H459 H 0.00904 0.03074 0.00346 0.0
H460 H 0.95496 0.948 0.92294 0.0
H461 H 0.98291 0.975 0.94453 0.0
H462 H 0.01452 0.94311 0.01066 0.0
C463 C 0.03353 0.01101 0.06542 0.0
C464 C 0.0106 0.01162 0.00482 0.0
C465 C 0.04489 0.0245 0.08326 0.0
C466 C 0.95833 0.94504 0.94182 0.0
C467 C 0.97429 0.96049 0.95416 0.0
C468 C 0.01313 0.96221 0.00882 0.0
C469 C 0.03753 0.0162 0.04118 0.0
C470 C 0.02541 0.00139 0.02266 0.0
C471 C 0.97956 0.95675 0.97855 0.0
C472 C 0.99696 0.97229 0.99201 0.0
H473 H 0.07693 0.06307 0.04782 0.0
H474 H 0.05641 0.03956 0.01643 0.0
H475 H 0.03867 0.96829 0.03741 0.0
H476 H 0.94391 0.90791 0.98807 0.0
H477 H 0.97103 0.93478 0.00936 0.0
C478 C 0.29853 0.68502 0.19728 0.0
C479 C 0.2987 0.69187 0.17307 0.0
C480 C 0.28435 0.6975 0.21398 0.0
C481 C 0.24431 0.72233 0.24397 0.0
H482 H 0.24637 0.79064 0.23517 0.0
C483 C 0.18476 0.78959 0.29819 0.0
C484 C 0.19619 0.81126 0.30432 0.0
C485 C 0.19689 0.77313 0.2836 0.0
C486 C 0.24573 0.77162 0.23806 0.0
H487 H 0.28274 0.71608 0.14717 0.0
H488 H 0.25789 0.73733 0.17597 0.0
H489 H 0.26766 0.76521 0.20718 0.0
H490 H 0.2299 0.83194 0.30103 0.0
H491 H 0.25093 0.80333 0.27612 0.0
H492 H 0.22266 0.72909 0.27532 0.0
C493 C 0.26922 0.72286 0.18229 0.0
C494 C 0.25768 0.75698 0.22178 0.0
C495 C 0.28344 0.71059 0.16574 0.0
C496 C 0.22032 0.81564 0.29637 0.0
C497 C 0.2324 0.79924 0.28198 0.0
C498 C 0.23224 0.73709 0.26036 0.0
C499 C 0.27 0.71696 0.20671 0.0
C500 C 0.2571 0.73216 0.22443 0.0
C501 C 0.22068 0.77803 0.27494 0.0
C502 C 0.23295 0.76194 0.25762 0.0
H503 H 0.31006 0.67064 0.20348 0.0
H504 H 0.28541 0.69254 0.23267 0.0
H505 H 0.24342 0.70327 0.24645 0.0
H506 H 0.1662 0.78564 0.30406 0.0
H507 H 0.18732 0.75698 0.27843 0.0
C508 C 0.4496 0.97001 0.57192 0.0
C509 C 0.43996 0.94756 0.566 0.0
C510 C 0.45884 0.98497 0.55416 0.0
C511 C 0.48961 0.984 0.4972 0.0
H512 H 0.47574 0.05146 0.49749 0.0
C513 C 0.54384 0.05301 0.43936 0.0
C514 C 0.55069 0.07378 0.4518 0.0
C515 C 0.52728 0.0367 0.44958 0.0
C516 C 0.47986 0.03267 0.49718 0.0
H517 H 0.43206 0.92326 0.53682 0.0
H518 H 0.44892 0.94941 0.50563 0.0
H519 H 0.45125 0.02467 0.52221 0.0
H520 H 0.54587 0.09329 0.48501 0.0
H521 H 0.51768 0.06502 0.50268 0.0
H522 H 0.51913 0.9922 0.47313 0.0
C523 C 0.44901 0.95539 0.52406 0.0
C524 C 0.46575 0.01735 0.51124 0.0
C525 C 0.43927 0.94055 0.54185 0.0
C526 C 0.54091 0.07766 0.47473 0.0
C527 C 0.5245 0.06149 0.48484 0.0
C528 C 0.50393 -0.00059 0.48322 0.0
C529 C 0.45902 0.97767 0.53013 0.0
C530 C 0.47098 0.993 0.51198 0.0
C531 C 0.51725 0.04095 0.47236 0.0
C532 C 0.49974 0.02402 0.48375 0.0
H533 H 0.45032 0.97592 0.59036 0.0
H534 H 0.46667 0.00196 0.55936 0.0
H535 H 0.49407 0.96528 0.49755 0.0
H536 H 0.55101 0.04948 0.42166 0.0
H537 H 0.52206 0.021 0.43953 0.0
C538 C 0.29188 0.16884 0.76456 0.0
C539 C 0.30456 0.17374 0.78595 0.0
C540 C 0.28184 0.18718 0.75101 0.0
C541 C 0.25366 0.24412 0.7551 0.0
H542 H 0.26543 0.24713 0.68675 0.0
C543 C 0.19518 0.30367 0.69205 0.0
C544 C 0.18744 0.29241 0.6708 0.0
C545 C 0.21344 0.29344 0.70649 0.0
C546 C 0.26184 0.24652 0.70579 0.0
H547 H 0.31671 0.20171 0.80998 0.0
H548 H 0.29819 0.23401 0.78645 0.0
H549 H 0.29016 0.22086 0.71165 0.0
H550 H 0.19336 0.26175 0.64795 0.0
H551 H 0.22437 0.24395 0.67305 0.0
H552 H 0.22421 0.26854 0.74909 0.0
C553 C 0.29649 0.21588 0.78014 0.0
C554 C 0.27614 0.23159 0.72003 0.0
C555 C 0.30711 0.19747 0.79349 0.0
C556 C 0.19878 0.27104 0.66412 0.0
C557 C 0.21686 0.26088 0.67849 0.0
C558 C 0.23905 0.25885 0.74077 0.0
C559 C 0.28381 0.21083 0.75876 0.0
C560 C 0.27171 0.22974 0.74468 0.0
C561 C 0.22436 0.27179 0.69995 0.0
C562 C 0.24243 0.25959 0.7158 0.0
H563 H 0.28972 0.15074 0.75823 0.0
H564 H 0.27196 0.18282 0.73469 0.0
H565 H 0.24983 0.24287 0.77407 0.0
H566 H 0.18688 0.32016 0.69773 0.0
H567 H 0.2189 0.30242 0.72283 0.0
C568 C 0.05542 0.94719 0.43486 0.0
C569 C 0.04573 0.93874 0.41308 0.0
C570 C 0.04109 0.9613 0.45001 0.0
C571 C 0.98604 -8e-05 0.4482 0.0
H572 H 0.99011 -0.00365 0.51737 0.0
C573 C 0.93241 0.03892 0.53679 0.0
C574 C 0.92901 0.06248 0.52912 0.0
C575 C 0.94666 0.0232 0.52331 0.0
C576 C 0.98857 -0.00259 0.49808 0.0
H577 H 0.013 0.93754 0.39073 0.0
H578 H 0.98803 0.96141 0.41723 0.0
H579 H 0.01453 0.96938 0.49296 0.0
H580 H 0.93835 0.08801 0.50142 0.0
H581 H 0.96342 0.06092 0.47837 0.0
H582 H 0.95963 0.02737 0.45315 0.0
C583 C 0.00688 0.95789 0.42236 0.0
C584 C 0.00283 0.98215 0.48407 0.0
C585 C 0.02121 0.94405 0.40718 0.0
C586 C 0.94031 0.06994 0.50778 0.0
C587 C 0.95464 0.05433 0.49445 0.0
C588 C 0.97173 0.01502 0.46215 0.0
C589 C 0.01672 0.96709 0.44376 0.0
C590 C 0.00172 0.98322 0.45894 0.0
C591 C 0.95793 0.03071 0.50194 0.0
C592 C 0.97287 0.01408 0.48727 0.0
H593 H 0.07426 0.94344 0.43991 0.0
H594 H 0.04934 0.96822 0.46626 0.0
H595 H 0.98495 0.00157 0.42892 0.0
H596 H 0.92397 0.03256 0.55313 0.0
H597 H 0.94855 0.00507 0.52949 0.0
C598 C 0.28058 0.82594 0.712 0.0
C599 C 0.30343 0.82216 0.70092 0.0
C600 C 0.27026 0.80864 0.72687 0.0
C601 C 0.2868 0.75748 0.76436 0.0
H602 H 0.21713 0.7426 0.76051 0.0
C603 C 0.24255 0.67709 0.81255 0.0
C604 C 0.21852 0.67949 0.82146 0.0
C605 C 0.25348 0.69537 0.79934 0.0
C606 C 0.23654 0.74681 0.7621 0.0
H607 H 0.33315 0.79696 0.69657 0.0
H608 H 0.315 0.76672 0.72248 0.0
H609 H 0.23476 0.77216 0.73363 0.0
H610 H 0.18767 0.70359 0.82454 0.0
H611 H 0.20694 0.73561 0.8019 0.0
H612 H 0.28859 0.73215 0.79287 0.0
C613 C 0.30524 0.78322 0.71979 0.0
C614 C 0.24665 0.76368 0.74662 0.0
C615 C 0.31552 0.80048 0.70479 0.0
C616 C 0.20613 0.70104 0.81778 0.0
C617 C 0.2171 0.71934 0.80464 0.0
C618 C 0.27667 0.74064 0.77992 0.0
C619 C 0.28258 0.78719 0.73111 0.0
C620 C 0.2719 0.76916 0.74752 0.0
C621 C 0.24069 0.71653 0.79481 0.0
C622 C 0.25142 0.73506 0.77894 0.0
H623 H 0.27074 0.84242 0.70945 0.0
H624 H 0.25288 0.81231 0.7355 0.0
H625 H 0.30625 0.76159 0.76573 0.0
H626 H 0.25265 0.66074 0.815 0.0
H627 H 0.27159 0.69251 0.79187 0.0
C628 C 0.4461 0.02624 0.91382 0.0
C629 C 0.42539 0.03961 0.92033 0.0
C630 C 0.45838 0.01236 0.93075 0.0
C631 C 0.45 0.98258 0.98878 0.0
H632 H 0.52122 0.98544 0.99265 0.0
C633 C 0.50278 0.94347 0.06876 0.0
C634 C 0.52534 0.93214 0.06454 0.0
C635 C 0.49083 0.95578 0.05047 0.0
C636 C 0.50136 0.98414 0.9916 0.0
H637 H 0.40125 0.04862 0.94981 0.0
H638 H 0.42265 0.02432 0.97926 0.0
H639 H 0.49977 0.00822 0.96195 0.0
H640 H 0.55294 0.92482 0.03762 0.0
H641 H 0.53182 0.94599 0.00552 0.0
H642 H 0.45147 0.95843 0.01825 0.0
C643 C 0.42931 0.02454 0.96101 0.0
C644 C 0.48907 -0.00276 0.97403 0.0
C645 C 0.41713 0.03857 0.94414 0.0
C646 C 0.53565 0.93342 0.04152 0.0
C647 C 0.52359 0.94566 0.02314 0.0
C648 C 0.46227 0.96937 0.00623 0.0
C649 C 0.45012 0.01136 0.95452 0.0
C650 C 0.46325 -0.00322 0.97259 0.0
C651 C 0.501 0.95697 0.0274 0.0
C652 C 0.48809 0.97017 0.00804 0.0
H653 H 0.45299 0.02661 0.89565 0.0
H654 H 0.47423 0.00221 0.92517 0.0
H655 H 0.4301 0.98156 0.98785 0.0
H656 H 0.49435 0.94305 0.08629 0.0
H657 H 0.47374 0.96466 0.05456 0.0
C658 C 0.26443 0.33333 0.29901 0.0
C659 C 0.28673 0.32818 0.31071 0.0
C660 C 0.25116 0.31541 0.28725 0.0
C661 C 0.25923 0.25559 0.26111 0.0
H662 H 0.1879 0.25292 0.2627 0.0
C663 C 0.20661 0.17449 0.22625 0.0
C664 C 0.18709 0.17876 0.21025 0.0
C665 C 0.21697 0.19298 0.23954 0.0
C666 C 0.20781 0.25359 0.26198 0.0
H667 H 0.31218 0.29999 0.31972 0.0
H668 H 0.28885 0.2688 0.29972 0.0
H669 H 0.20976 0.28475 0.28394 0.0
H670 H 0.16231 0.20573 0.19672 0.0
H671 H 0.18053 0.23815 0.22016 0.0
H672 H 0.25735 0.22437 0.23941 0.0
C673 C 0.28188 0.28676 0.2991 0.0
C674 C 0.22034 0.27181 0.27408 0.0
C675 C 0.29522 0.30466 0.3107 0.0
C676 C 0.17737 0.20183 0.20881 0.0
C677 C 0.18775 0.22039 0.22226 0.0
C678 C 0.24675 0.23736 0.2492 0.0
C679 C 0.25981 0.29193 0.28703 0.0
C680 C 0.24623 0.27292 0.27391 0.0
C681 C 0.20806 0.21621 0.23728 0.0
C682 C 0.22094 0.23604 0.24965 0.0
H683 H 0.25738 0.35127 0.29862 0.0
H684 H 0.23438 0.32008 0.27791 0.0
H685 H 0.27912 0.2562 0.26007 0.0
H686 H 0.21443 0.15694 0.22808 0.0
H687 H 0.23229 0.18915 0.25135 0.0
C688 C 0.45005 0.57911 0.00509 0.0
C689 C 0.44583 0.57486 0.02953 0.0
C690 C 0.46538 0.56424 0.99193 0.0
C691 C 0.51516 0.52041 -0.00315 0.0
H692 H 0.49104 0.50013 0.93471 0.0
C693 C 0.56252 0.44794 0.93858 0.0
C694 C 0.56177 0.45123 0.91365 0.0
C695 C 0.55004 0.46354 0.95381 0.0
C696 C 0.49827 0.50587 0.95186 0.0
H697 H 0.45499 0.55185 0.05941 0.0
H698 H 0.4818 0.52588 0.0363 0.0
H699 H 0.46614 0.5263 0.95911 0.0
H700 H 0.54887 0.47439 0.88529 0.0
H701 H 0.52786 0.50174 0.91168 0.0
H702 H 0.54745 0.50001 0.98941 0.0
C703 C 0.47324 0.54081 0.02742 0.0
C704 C 0.48393 0.52084 0.96587 0.0
C705 C 0.45775 0.55562 0.04059 0.0
C706 C 0.54945 0.47109 0.90439 0.0
C707 C 0.53726 0.48672 0.91953 0.0
C708 C 0.52965 0.50547 0.98271 0.0
C709 C 0.47698 0.54481 0.00288 0.0
C710 C 0.49227 0.52845 0.98843 0.0
C711 C 0.53676 0.4828 0.94436 0.0
C712 C 0.52145 0.49821 0.95993 0.0
H713 H 0.44129 0.59379 -0.00403 0.0
H714 H 0.46817 0.56797 0.97311 0.0
H715 H 0.52211 0.52609 0.01413 0.0
H716 H 0.57186 0.43278 0.94625 0.0
H717 H 0.55 0.45997 0.97285 0.0
C718 C 0.82319 0.30434 0.20571 0.0
C719 C 0.81363 0.32709 0.20148 0.0
C720 C 0.81084 0.28831 0.2205 0.0
C721 C 0.76299 0.28401 0.26747 0.0
H722 H 0.7624 0.21769 0.24869 0.0
C723 C 0.70239 0.21097 0.31217 0.0
C724 C 0.71389 0.18908 0.31661 0.0
C725 C 0.71463 0.22884 0.2994 0.0
C726 C 0.7626 0.23612 0.25429 0.0
H727 H 0.78357 0.35088 0.20968 0.0
H728 H 0.76164 0.32262 0.23513 0.0
H729 H 0.78303 0.24683 0.22352 0.0
H730 H 0.7476 0.16917 0.31175 0.0
H731 H 0.76877 0.20027 0.28947 0.0
H732 H 0.74207 0.27309 0.29811 0.0
C733 C 0.77896 0.31735 0.22729 0.0
C734 C 0.77446 0.25283 0.23989 0.0
C735 C 0.79147 0.33351 0.21259 0.0
C736 C 0.73812 0.18574 0.30859 0.0
C737 C 0.75023 0.2035 0.2957 0.0
C738 C 0.75091 0.26725 0.28181 0.0
C739 C 0.78845 0.2945 0.2313 0.0
C740 C 0.77504 0.27696 0.2464 0.0
C741 C 0.73849 0.22508 0.29066 0.0
C742 C 0.75082 0.24311 0.27545 0.0
H743 H 0.84037 0.29887 0.19768 0.0
H744 H 0.81897 0.27107 0.2236 0.0
H745 H 0.76329 0.3024 0.27315 0.0
H746 H 0.68377 0.21418 0.31816 0.0
H747 H 0.70511 0.24528 0.29569 0.0
C748 C 0.04839 0.42724 0.53481 0.0
C749 C 0.03695 0.42434 0.55718 0.0
C750 C 0.03636 0.43904 0.51617 0.0
C751 C 0.97469 0.45941 0.49633 0.0
H752 H 0.01225 0.50388 0.45773 0.0
C753 C 0.9287 0.53059 0.43787 0.0
C754 C 0.93792 0.53418 0.41464 0.0
C755 C 0.94105 0.51601 0.45407 0.0
C756 C 0.00158 0.49131 0.46817 0.0
H757 H 0.00373 0.43143 0.57735 0.0
H758 H 0.98302 0.45233 0.54508 0.0
H759 H 0.03314 0.48028 0.48816 0.0
H760 H 0.96757 0.52534 0.39036 0.0
H761 H 0.98926 0.49993 0.41884 0.0
H762 H 0.94306 0.47089 0.47668 0.0
C763 C 0.00111 0.44512 0.54175 0.0
C764 C 0.01354 0.47774 0.48558 0.0
C765 C 0.01307 0.43323 0.56034 0.0
C766 C 0.95995 0.52297 0.40809 0.0
C767 C 0.97243 0.50849 0.42442 0.0
C768 C 0.96274 0.47308 0.47904 0.0
C769 C 0.01265 0.44831 0.51948 0.0
C770 C 0.00019 0.4618 0.50005 0.0
C771 C 0.96301 0.50476 0.44753 0.0
C772 C 0.976 0.48935 0.46494 0.0
H773 H 0.06673 0.42051 0.53168 0.0
H774 H 0.04565 0.44086 0.49914 0.0
H775 H 0.96391 0.44697 0.5068 0.0
H776 H 0.9118 0.53892 0.44358 0.0
H777 H 0.93352 0.51375 0.47186 0.0
C778 C 0.76741 0.66879 0.28113 0.0
C779 C 0.78867 0.67461 0.29432 0.0
C780 C 0.75346 0.6865 0.27028 0.0
C781 C 0.75648 0.74815 0.24836 0.0
H782 H 0.6855 0.74061 0.24648 0.0
C783 C 0.69177 0.81277 0.19722 0.0
C784 C 0.67649 0.80076 0.18079 0.0
C785 C 0.70464 0.80006 0.21477 0.0
C786 C 0.70529 0.74301 0.24697 0.0
H787 H 0.812 0.70376 0.3063 0.0
H788 H 0.78743 0.73476 0.28743 0.0
H789 H 0.71016 0.7132 0.27013 0.0
H790 H 0.6618 0.76629 0.17053 0.0
H791 H 0.6838 0.74434 0.20123 0.0
H792 H 0.75145 0.77781 0.22478 0.0
C793 C 0.78172 0.71641 0.28536 0.0
C794 C 0.71944 0.72725 0.26038 0.0
C795 C 0.79576 0.69863 0.29621 0.0
C796 C 0.67356 0.77603 0.18283 0.0
C797 C 0.68601 0.76347 0.20053 0.0
C798 C 0.74226 0.76406 0.23504 0.0
C799 C 0.76031 0.71054 0.27239 0.0
C800 C 0.74525 0.72916 0.26063 0.0
C801 C 0.70196 0.77526 0.21644 0.0
C802 C 0.7166 0.76117 0.23367 0.0
H803 H 0.76145 0.65049 0.27913 0.0
H804 H 0.7374 0.68128 0.25996 0.0
H805 H 0.77632 0.75007 0.24807 0.0
H806 H 0.6944 0.83182 0.19601 0.0
H807 H 0.7168 0.80954 0.22689 0.0
C808 C 0.82204 0.19747 0.69914 0.0
C809 C 0.82738 0.20758 0.67671 0.0
C810 C 0.80805 0.20994 0.71597 0.0
C811 C 0.78601 0.27092 0.72997 0.0
H812 H 0.73697 0.23791 0.76792 0.0
C813 C 0.69413 0.29443 0.78906 0.0
C814 C 0.70242 0.31574 0.7995 0.0
C815 C 0.71037 0.28007 0.7762 0.0
C816 C 0.75044 0.24744 0.75733 0.0
H817 H 0.82198 0.23876 0.65444 0.0
H818 H 0.79738 0.25999 0.68324 0.0
H819 H 0.76338 0.21541 0.74109 0.0
H820 H 0.7345 0.338 0.80585 0.0
H821 H 0.76287 0.31269 0.78437 0.0
H822 H 0.7724 0.30301 0.74503 0.0
C823 C 0.80444 0.24275 0.68824 0.0
C824 C 0.76586 0.23447 0.74219 0.0
C825 C 0.81851 0.23044 0.67159 0.0
C826 C 0.72743 0.3219 0.79765 0.0
C827 C 0.7437 0.3074 0.78518 0.0
C828 C 0.77049 0.28386 0.74485 0.0
C829 C 0.79901 0.23273 0.71068 0.0
C830 C 0.78366 0.2461 0.7281 0.0
C831 C 0.73534 0.28654 0.77382 0.0
C832 C 0.75238 0.27236 0.75866 0.0
H833 H 0.82859 0.1799 0.70368 0.0
H834 H 0.80445 0.20178 0.73316 0.0
H835 H 0.79976 0.28049 0.71975 0.0
H836 H 0.67493 0.28924 0.79016 0.0
H837 H 0.70315 0.2643 0.7675 0.0
C838 C 0.75883 0.82407 0.81097 0.0
C839 C 0.7818 0.82001 0.82183 0.0
C840 C 0.74675 0.80593 0.79839 0.0
C841 C 0.75913 0.7487 0.76826 0.0
H842 H 0.68817 0.741 0.77021 0.0
C843 C 0.71117 0.66682 0.72831 0.0
C844 C 0.69078 0.67088 0.71332 0.0
C845 C 0.72095 0.68506 0.74236 0.0
C846 C 0.70798 0.74308 0.76938 0.0
H847 H 0.8097 0.79342 0.82861 0.0
H848 H 0.78843 0.76173 0.80723 0.0
H849 H 0.7079 0.77263 0.79352 0.0
H850 H 0.66414 0.69723 0.70211 0.0
H851 H 0.6813 0.72916 0.72688 0.0
H852 H 0.75926 0.71904 0.74436 0.0
C853 C 0.78 0.77909 0.80787 0.0
C854 C 0.71929 0.76121 0.78267 0.0
C855 C 0.79215 0.79725 0.82027 0.0
C856 C 0.67989 0.69349 0.71339 0.0
C857 C 0.68964 0.71176 0.72763 0.0
C858 C 0.74786 0.73053 0.75515 0.0
C859 C 0.75729 0.78326 0.79652 0.0
C860 C 0.74504 0.76416 0.78235 0.0
C861 C 0.71055 0.70781 0.74191 0.0
C862 C 0.7222 0.72744 0.75565 0.0
H863 H 0.75036 0.84141 0.81174 0.0
H864 H 0.72944 0.80985 0.78965 0.0
H865 H 0.77891 0.75078 0.7671 0.0
H866 H 0.71998 0.64963 0.72888 0.0
H867 H 0.73684 0.68139 0.7535 0.0
C868 C 0.44833 0.43506 0.44575 0.0
C869 C 0.43743 0.4159 0.4581 0.0
C870 C 0.46303 0.45168 0.45797 0.0
C871 C 0.46875 0.47861 0.51632 0.0
H872 H 0.53688 0.49349 0.50189 0.0
C873 C 0.52976 0.5251 0.58516 0.0
C874 C 0.54743 0.54186 0.57774 0.0
C875 C 0.51692 0.51139 0.56849 0.0
C876 C 0.51774 0.48988 0.50589 0.0
H877 H 0.43404 0.39898 0.4929 0.0
H878 H 0.45913 0.42813 0.51405 0.0
H879 H 0.5136 0.46635 0.47578 0.0
H880 H 0.56561 0.55715 0.54682 0.0
H881 H 0.54261 0.53341 0.51746 0.0
H882 H 0.4724 0.50205 0.54612 0.0
C883 C 0.45637 0.4302 0.49494 0.0
C884 C 0.5045 0.47431 0.49099 0.0
C885 C 0.44208 0.41345 0.48275 0.0
C886 C 0.55211 0.5444 0.55312 0.0
C887 C 0.539 0.53073 0.53631 0.0
C888 C 0.48178 0.49434 0.53095 0.0
C889 C 0.46668 0.44962 0.48277 0.0
C890 C 0.4801 0.46809 0.49651 0.0
C891 C 0.52109 0.51418 0.54383 0.0
C892 C 0.50667 0.49964 0.52639 0.0
H893 H 0.44519 0.43741 0.42674 0.0
H894 H 0.47083 0.46656 0.44825 0.0
H895 H 0.44981 0.47437 0.52069 0.0
H896 H 0.52591 0.52236 0.60398 0.0
H897 H 0.50382 0.49837 0.57505 0.0
C898 C 0.0459 0.55023 0.92891 0.0
C899 C 0.04574 0.57402 0.93658 0.0
C900 C 0.03077 0.53333 0.93999 0.0
C901 C 0.97668 0.52551 0.97911 0.0
H902 H 0.0122 0.47161 0.00475 0.0
C903 C 0.93077 0.4539 0.03893 0.0
C904 C 0.94341 0.44944 0.06047 0.0
C905 C 0.94195 0.46704 0.02067 0.0
C906 C 0.00202 0.48649 -0.00242 0.0
H907 H 0.02846 0.59903 0.96068 0.0
H908 H 0.00187 0.56964 0.9797 0.0
H909 H 0.0328 0.49883 0.97712 0.0
H910 H 0.97792 0.45477 0.07944 0.0
H911 H 0.99745 0.47747 0.04746 0.0
H912 H 0.94612 0.51354 0.00015 0.0
C913 C 0.01376 0.56402 0.96527 0.0
C914 C 0.01371 0.50192 0.98161 0.0
C915 C 0.0291 0.58081 0.95448 0.0
C916 C 0.96764 0.45795 0.06312 0.0
C917 C 0.9789 0.4708 0.04475 0.0
C918 C 0.96489 0.50991 0.99487 0.0
C919 C 0.01493 0.54 0.95861 0.0
C920 C 0.00134 0.52189 0.97266 0.0
C921 C 0.96609 0.47567 0.02345 0.0
C922 C 0.97765 0.49058 0.0047 0.0
H923 H 0.05856 0.54445 0.9152 0.0
H924 H 0.03189 0.51494 0.93443 0.0
H925 H 0.9667 0.54072 0.97239 0.0
H926 H 0.91207 0.44763 0.03632 0.0
H927 H 0.93172 0.47046 0.00438 0.0
C928 C 0.14086 0.01562 0.15036 0.0
C929 C 0.12557 0.03488 0.15583 0.0
C930 C 0.14052 0.99516 0.16456 0.0
C931 C 0.1038 0.96389 0.21121 0.0
H932 H 0.16677 0.93738 0.22953 0.0
C933 C 0.11194 0.88607 0.27821 0.0
C934 C 0.12957 0.88945 0.29638 0.0
C935 C 0.11143 0.9011 0.25829 0.0
C936 C 0.14904 0.94452 0.22448 0.0
H937 H 0.09817 0.04783 0.18069 0.0
H938 H 0.09763 0.01245 0.20534 0.0
H939 H 0.16522 0.96886 0.19964 0.0
H940 H 0.16029 0.9115 0.3079 0.0
H941 H 0.1596 0.93738 0.27319 0.0
H942 H 0.08778 0.94042 0.23703 0.0
C943 C 0.10945 0.01279 0.18978 0.0
C944 C 0.14811 0.96237 0.20716 0.0
C945 C 0.10984 0.03319 0.17565 0.0
C946 C 0.14683 0.90799 0.29406 0.0
C947 C 0.14646 0.92285 0.27409 0.0
C948 C 0.10474 0.94605 0.22855 0.0
C949 C 0.12487 0.99356 0.1845 0.0
C950 C 0.12553 0.97262 0.20068 0.0
C951 C 0.12866 0.91968 0.25607 0.0
C952 C 0.12742 0.93654 0.23573 0.0
H953 H 0.15315 0.01635 0.13515 0.0
H954 H 0.1525 0.98059 0.15991 0.0
H955 H 0.08608 0.9712 0.20641 0.0
H956 H 0.09834 0.87198 0.27946 0.0
H957 H 0.09756 0.89817 0.24463 0.0
C958 C 0.33838 0.82531 0.54416 0.0
C959 C 0.35033 0.84739 0.54689 0.0
C960 C 0.32065 0.82199 0.52617 0.0
C961 C 0.2979 0.84926 0.46984 0.0
H962 H 0.23531 0.81993 0.48589 0.0
C963 C 0.21282 0.87167 0.41645 0.0
C964 C 0.19758 0.85303 0.40853 0.0
C965 C 0.23074 0.86771 0.43378 0.0
C966 C 0.25282 0.82782 0.48103 0.0
H967 H 0.35294 0.8833 0.53294 0.0
H968 H 0.32198 0.87773 0.50222 0.0
H969 H 0.26971 0.81782 0.51423 0.0
H970 H 0.18782 0.81602 0.41384 0.0
H971 H 0.21952 0.80902 0.44446 0.0
H972 H 0.28106 0.85977 0.43702 0.0
C973 C 0.32666 0.8627 0.5134 0.0
C974 C 0.27255 0.82658 0.49721 0.0
C975 C 0.3444 0.86594 0.53116 0.0
C976 C 0.19942 0.83068 0.41959 0.0
C977 C 0.21756 0.82666 0.43702 0.0
C978 C 0.27833 0.8505 0.4538 0.0
C979 C 0.31453 0.84073 0.51066 0.0
C980 C 0.29499 0.83814 0.49215 0.0
C981 C 0.23398 0.84498 0.44358 0.0
C982 C 0.25531 0.84061 0.45958 0.0
H983 H 0.34244 0.81071 0.55612 0.0
H984 H 0.31164 0.80486 0.52449 0.0
H985 H 0.31519 0.85765 0.46502 0.0
H986 H 0.21146 0.88924 0.40865 0.0
H987 H 0.24254 0.88239 0.43909 0.0
C988 C 0.38748 0.07629 0.77924 0.0
C989 C 0.36505 0.08732 0.78419 0.0
C990 C 0.38886 0.05886 0.76154 0.0
C991 C 0.34906 0.01846 0.72467 0.0
H992 H 0.41057 0.00808 0.69144 0.0
C993 C 0.3613 0.95011 0.64751 0.0
C994 C 0.3819 0.9353 0.64991 0.0
C995 C 0.35826 0.96961 0.66272 0.0
C996 C 0.39328 0.0108 0.70061 0.0
H997 H 0.32666 0.08962 0.77419 0.0
H998 H 0.32919 0.06025 0.74229 0.0
H999 H 0.40716 0.04118 0.71913 0.0
H1000 H 0.41477 0.92873 0.67098 0.0
H1001 H 0.40971 0.96294 0.69708 0.0
H1002 H 0.33503 0.98854 0.70508 0.0
C1003 C 0.3456 0.06416 0.75262 0.0
C1004 C 0.39133 0.02966 0.71667 0.0
C1005 C 0.34412 0.08114 0.77079 0.0
C1006 C 0.39909 0.94012 0.66814 0.0
C1007 C 0.3962 0.95971 0.68314 0.0
C1008 C 0.35084 -2e-05 0.70807 0.0
C1009 C 0.36794 0.05253 0.74791 0.0
C1010 C 0.36937 0.03349 0.72937 0.0
C1011 C 0.37587 0.97475 0.68047 0.0
C1012 C 0.37316 0.99561 0.69636 0.0
H1013 H 0.40376 0.08055 0.78968 0.0
H1014 H 0.40625 0.04996 0.75904 0.0
H1015 H 0.33196 0.02042 0.7343 0.0
H1016 H 0.3476 0.94675 0.63379 0.0
H1017 H 0.34238 0.9809 0.66035 0.0
C1018 C 0.29135 0.14643 0.90435 0.0
C1019 C 0.29325 0.12513 0.89141 0.0
C1020 C 0.27797 0.14706 0.92573 0.0
C1021 C 0.25859 0.10912 0.9751 0.0
H1022 H 0.20508 0.15329 0.98472 0.0
C1023 C 0.20373 0.1083 0.06246 0.0
C1024 C 0.17807 0.11058 0.06065 0.0
C1025 C 0.21883 0.11327 0.04293 0.0
C1026 C 0.21986 0.14074 0.98224 0.0
H1027 H 0.28328 0.08779 0.89077 0.0
H1028 H 0.26079 0.08873 0.92842 0.0
H1029 H 0.22987 0.15573 0.94826 0.0
H1030 H 0.14813 0.1203 0.03695 0.0
H1031 H 0.17443 0.12819 0.00249 0.0
H1032 H 0.24839 0.09352 0.00841 0.0
C1033 C 0.26923 0.10497 0.92192 0.0
C1034 C 0.23419 0.14235 0.96152 0.0
C1035 C 0.28195 0.10448 0.90032 0.0
C1036 C 0.16785 0.11837 0.03892 0.0
C1037 C 0.18297 0.1231 0.01923 0.0
C1038 C 0.24435 0.10752 0.99575 0.0
C1039 C 0.26709 0.12623 0.93481 0.0
C1040 C 0.25342 0.1263 0.95765 0.0
C1041 C 0.20863 0.12026 0.02091 0.0
C1042 C 0.22459 0.12311 -0.00052 0.0
H1043 H 0.29993 0.16258 0.89779 0.0
H1044 H 0.27647 0.16367 0.93539 0.0
H1045 H 0.27343 0.09663 0.97256 0.0
H1046 H 0.21224 0.10233 0.07892 0.0
H1047 H 0.23853 0.1114 0.04508 0.0
C1048 C 0.15022 0.0743 0.20052 0.0
C1049 C 0.13176 0.09148 0.19818 0.0
C1050 C 0.14927 0.05755 0.21886 0.0
C1051 C 0.11943 0.04412 0.27703 0.0
H1052 H 0.13857 0.9797 0.2617 0.0
C1053 C 0.10608 0.94463 0.31732 0.0
C1054 C 0.11872 0.94572 0.33928 0.0
C1055 C 0.10764 0.96339 0.30111 0.0
C1056 C 0.13304 -0.00241 0.2661 0.0
H1057 H 0.09747 0.10425 0.21298 0.0
H1058 H 0.09532 0.07442 0.24461 0.0
H1059 H 0.14216 0.01057 0.23143 0.0
H1060 H 0.14207 0.96771 0.36189 0.0
H1061 H 0.14425 0.00089 0.33357 0.0
H1062 H 0.11076 0.03081 0.31206 0.0
C1063 C 0.11098 0.07439 0.23268 0.0
C1064 C 0.1352 0.01532 0.24886 0.0
C1065 C 0.1121 0.09135 0.21443 0.0
C1066 C 0.13226 0.96631 0.34504 0.0
C1067 C 0.13343 0.9853 0.32896 0.0
C1068 C 0.11761 0.02635 0.29444 0.0
C1069 C 0.12958 0.0573 0.23511 0.0
C1070 C 0.1281 0.03874 0.25395 0.0
C1071 C 0.12143 0.98378 0.30675 0.0
C1072 C 0.12409 0.00291 0.28893 0.0
H1073 H 0.16535 0.0735 0.18804 0.0
H1074 H 0.16401 0.04478 0.22026 0.0
H1075 H 0.11425 0.06206 0.28169 0.0
H1076 H 0.09554 0.92902 0.31231 0.0
H1077 H 0.09821 0.96191 0.28405 0.0
C1078 C 0.29705 0.89099 0.58306 0.0
C1079 C 0.30358 0.86969 0.59431 0.0
C1080 C 0.28199 0.89077 0.56286 0.0
C1081 C 0.2322 0.85666 0.53605 0.0
H1082 H 0.24174 0.90025 0.48312 0.0
C1083 C 0.16139 0.86866 0.45843 0.0
C1084 C 0.15725 0.89228 0.45135 0.0
C1085 C 0.1802 0.86331 0.47472 0.0
C1086 C 0.23873 0.8881 0.49786 0.0
H1087 H 0.30031 0.83138 0.5931 0.0
H1088 H 0.27304 0.83096 0.55788 0.0
H1089 H 0.27457 0.89489 0.51241 0.0
H1090 H 0.16915 0.92883 0.45641 0.0
H1091 H 0.20163 0.91952 0.48473 0.0
H1092 H 0.1961 0.85029 0.52175 0.0
C1093 C 0.27985 0.84781 0.56462 0.0
C1094 C 0.25756 0.88498 0.51456 0.0
C1095 C 0.2955 0.84801 0.5846 0.0
C1096 C 0.17185 0.91043 0.46138 0.0
C1097 C 0.19066 0.90508 0.47747 0.0
C1098 C 0.2133 0.85981 0.5193 0.0
C1099 C 0.27271 0.86924 0.55376 0.0
C1100 C 0.25426 0.86971 0.53417 0.0
C1101 C 0.19534 0.88145 0.48403 0.0
C1102 C 0.21613 0.87606 0.50041 0.0
H1103 H 0.30312 0.90792 0.59029 0.0
H1104 H 0.27662 0.90759 0.55507 0.0
H1105 H 0.22911 0.84486 0.55106 0.0
H1106 H 0.15056 0.85425 0.45091 0.0
H1107 H 0.18344 0.84492 0.47937 0.0
C1108 C 0.34292 0.0437 0.82856 0.0
C1109 C 0.35162 0.04227 0.85208 0.0
C1110 C 0.34517 0.02441 0.81318 0.0
C1111 C 0.35582 0.96037 0.80881 0.0
H1112 H 0.3815 0.97791 0.7465 0.0
C1113 C 0.38188 0.89653 0.7291 0.0
C1114 C 0.36732 0.90155 0.70887 0.0
C1115 C 0.38162 0.91171 0.74894 0.0
C1116 C 0.37436 0.97284 0.76385 0.0
H1117 H 0.36846 0.01959 0.87867 0.0
H1118 H 0.37215 0.98533 0.85169 0.0
H1119 H 0.37659 0.0083 0.7772 0.0
H1120 H 0.34109 0.92629 0.69367 0.0
H1121 H 0.34068 0.95246 0.72822 0.0
H1122 H 0.3534 0.92478 0.79501 0.0
C1123 C 0.36353 0.00138 0.84517 0.0
C1124 C 0.37141 0.99016 0.78132 0.0
C1125 C 0.36131 0.02083 0.86059 0.0
C1126 C 0.35239 0.92179 0.70895 0.0
C1127 C 0.35229 0.93693 0.72861 0.0
C1128 C 0.35884 0.94293 0.79122 0.0
C1129 C 0.35624 0.00334 0.8211 0.0
C1130 C 0.36141 0.98425 0.8037 0.0
C1131 C 0.36705 0.93215 0.74859 0.0
C1132 C 0.36749 0.94927 0.76845 0.0
H1133 H 0.33508 0.05995 0.82183 0.0
H1134 H 0.33888 0.02621 0.79485 0.0
H1135 H 0.34818 0.95538 0.82598 0.0
H1136 H 0.39351 0.881 0.72954 0.0
H1137 H 0.39313 0.9078 0.76429 0.0
C1138 C 0.34095 0.12774 0.97301 0.0
C1139 C 0.34212 0.14184 0.95231 0.0
C1140 C 0.32782 0.13539 0.99294 0.0
C1141 C 0.27418 0.16821 0.00845 0.0
H1142 H 0.29875 0.16213 0.07328 0.0
C1143 C 0.20771 0.16705 0.0891 0.0
C1144 C 0.21335 0.15015 0.10678 0.0
C1145 C 0.22501 0.17292 0.07147 0.0
C1146 C 0.29147 0.1637 0.05531 0.0
H1147 H 0.33121 0.17545 0.93661 0.0
H1148 H 0.30763 0.18848 0.97141 0.0
H1149 H 0.32711 0.15901 0.03981 0.0
H1150 H 0.24178 0.12648 0.1199 0.0
H1151 H 0.27098 0.1357 0.08905 0.0
H1152 H 0.23827 0.17092 0.02358 0.0
C1153 C 0.31711 0.17163 0.97213 0.0
C1154 C 0.30781 0.16215 0.03619 0.0
C1155 C 0.33063 0.16416 0.95229 0.0
C1156 C 0.23674 0.13967 0.10669 0.0
C1157 C 0.25376 0.14525 0.08903 0.0
C1158 C 0.25767 0.16914 0.02755 0.0
C1159 C 0.31538 0.15716 0.99249 0.0
C1160 C 0.29915 0.16352 0.0126 0.0
C1161 C 0.2482 0.16187 0.07107 0.0
C1162 C 0.26598 0.16586 0.0512 0.0
H1163 H 0.34963 0.11048 0.97361 0.0
H1164 H 0.32651 0.1238 0.00837 0.0
H1165 H 0.2672 0.1696 0.99035 0.0
H1166 H 0.18988 0.17552 0.08871 0.0
H1167 H 0.2201 0.18595 0.05807 0.0
C1168 C 0.91266 0.2706 0.1337 0.0
C1169 C 0.90728 0.28491 0.11383 0.0
C1170 C 0.92876 0.25155 0.13154 0.0
C1171 C 0.98024 0.23101 0.09401 0.0
H1172 H 0.97508 0.17607 0.13546 0.0
C1173 C 0.05352 0.15568 0.0993 0.0
C1174 C 0.05738 0.14595 0.12214 0.0
C1175 C 0.035 0.17252 0.0957 0.0
C1176 C 0.97693 0.19144 0.12393 0.0
H1177 H 0.91351 0.2897 0.07581 0.0
H1178 H 0.94125 0.25606 0.07193 0.0
H1179 H 0.94094 0.20349 0.13275 0.0
H1180 H 0.04681 0.14768 0.15943 0.0
H1181 H 0.01541 0.1777 0.15342 0.0
H1182 H 0.0164 0.21885 0.08534 0.0
C1183 C 0.93343 0.25986 0.08929 0.0
C1184 C 0.9573 0.20715 0.12234 0.0
C1185 C 0.91737 0.27903 0.09148 0.0
C1186 C 0.04385 0.1546 0.14156 0.0
C1187 C 0.02571 0.1716 0.13805 0.0
C1188 C -0.00011 0.21515 0.09551 0.0
C1189 C 0.93976 0.24621 0.10943 0.0
C1190 C 0.95901 0.22759 0.10803 0.0
C1191 C 0.02032 0.18 0.11495 0.0
C1192 C -0.00122 0.19567 0.11118 0.0
H1193 H 0.90537 0.27477 0.15121 0.0
H1194 H 0.93351 0.24177 0.14757 0.0
H1195 H 0.98231 0.24664 0.08288 0.0
H1196 H 0.06373 0.14924 0.08403 0.0
H1197 H 0.03143 0.17879 0.07771 0.0
C1198 C 0.54073 0.32698 0.90097 0.0
C1199 C 0.53784 0.34513 0.88388 0.0
C1200 C 0.52303 0.30879 0.9029 0.0
C1201 C 0.4801 0.27731 0.86479 0.0
H1202 H 0.44515 0.25671 0.9216 0.0
C1203 C 0.41642 0.1968 0.8611 0.0
C1204 C 0.3932 0.19876 0.87189 0.0
C1205 C 0.43479 0.21355 0.86557 0.0
C1206 C 0.45469 0.26242 0.9056 0.0
H1207 H 0.51331 0.35902 0.85645 0.0
H1208 H 0.48316 0.32747 0.8597 0.0
H1209 H 0.47625 0.28857 0.92459 0.0
H1210 H 0.37134 0.21955 0.8965 0.0
H1211 H 0.40356 0.24934 0.904 0.0
H1212 H 0.45862 0.2519 0.84554 0.0
C1213 C 0.49909 0.32715 0.87142 0.0
C1214 C 0.47262 0.28038 0.90738 0.0
C1215 C 0.51646 0.34524 0.86961 0.0
C1216 C 0.389 0.21763 0.88781 0.0
C1217 C 0.4075 0.23455 0.89226 0.0
C1218 C 0.46242 0.25943 0.86302 0.0
C1219 C 0.50245 0.30848 0.88762 0.0
C1220 C 0.48517 0.28814 0.88687 0.0
C1221 C 0.43045 0.23287 0.88082 0.0
C1222 C 0.44939 0.25183 0.88332 0.0
H1223 H 0.55685 0.32654 0.91239 0.0
H1224 H 0.52587 0.29457 0.91563 0.0
H1225 H 0.48965 0.28292 0.84874 0.0
H1226 H 0.42041 0.18244 0.84884 0.0
H1227 H 0.4524 0.21147 0.85682 0.0
C1228 C 0.94532 0.65074 0.35096 0.0
C1229 C 0.9363 0.64175 0.37269 0.0
C1230 C 0.96109 0.67031 0.35064 0.0
C1231 C 0.00743 0.70026 0.38732 0.0
H1232 H 0.00474 0.74716 0.33658 0.0
C1233 C 0.07976 0.77626 0.37611 0.0
C1234 C 0.08702 0.78123 0.35249 0.0
C1235 C 0.06042 0.76033 0.38061 0.0
C1236 C 0.00592 0.73401 0.35068 0.0
H1237 H 0.93577 0.64681 0.41111 0.0
H1238 H 0.96395 0.68118 0.41062 0.0
H1239 H 0.97117 0.71869 0.34108 0.0
H1240 H 0.08022 0.77275 0.31515 0.0
H1241 H 0.04691 0.74492 0.32298 0.0
H1242 H 0.04252 0.71532 0.39655 0.0
C1243 C 0.9588 0.67284 0.39385 0.0
C1244 C 0.98661 0.7178 0.35334 0.0
C1245 C 0.9426 0.65334 0.39413 0.0
C1246 C 0.07505 0.76944 0.33356 0.0
C1247 C 0.05577 0.75363 0.33804 0.0
C1248 C 0.02687 0.71646 0.38458 0.0
C1249 C 0.96846 0.6813 0.37207 0.0
C1250 C 0.98736 0.70043 0.37138 0.0
C1251 C 0.04793 0.74917 0.36156 0.0
C1252 C 0.02657 0.73315 0.36587 0.0
H1253 H 0.94055 0.64232 0.33412 0.0
H1254 H 0.96833 0.6762 0.33359 0.0
H1255 H 0.00864 0.68695 0.40126 0.0
H1256 H 0.08851 0.78519 0.39109 0.0
H1257 H 0.05471 0.75738 0.39892 0.0
C1258 C 0.95254 0.33445 0.09412 0.0
C1259 C 0.94587 0.34728 0.11461 0.0
C1260 C 0.96788 0.3146 0.09618 0.0
C1261 C 0.99134 0.27075 0.13998 0.0
H1262 H 0.0495 0.2695 0.10005 0.0
C1263 C 0.07446 0.2142 0.16569 0.0
C1264 C 0.0879 0.20298 0.14757 0.0
C1265 C 0.05627 0.23064 0.16001 0.0
C1266 C 0.03319 0.26931 0.11111 0.0
H1267 H 0.94868 0.34882 0.15328 0.0
H1268 H 0.9749 0.31425 0.1569 0.0
H1269 H 0.01761 0.29887 0.09238 0.0
H1270 H 0.0929 0.2003 0.10917 0.0
H1271 H 0.06086 0.22882 0.09918 0.0
H1272 H 0.00652 0.24113 0.15855 0.0
C1273 C 0.96861 0.31942 0.13925 0.0
C1274 C 0.01489 0.28614 0.10667 0.0
C1275 C 0.95375 0.33935 0.13717 0.0
C1276 C 0.08301 0.20883 0.12357 0.0
C1277 C 0.06466 0.22522 0.11786 0.0
C1278 C 0.0094 0.25377 0.14422 0.0
C1279 C 0.97624 0.30706 0.1188 0.0
C1280 C 0.99402 0.28733 0.12138 0.0
C1281 C 0.05087 0.23615 0.13602 0.0
C1282 C 0.03087 0.25319 0.13023 0.0
H1283 H 0.94661 0.34021 0.07654 0.0
H1284 H 0.97329 0.30522 0.08013 0.0
H1285 H 0.9753 0.27102 0.15142 0.0
H1286 H 0.07785 0.2102 0.18437 0.0
H1287 H 0.04652 0.23911 0.17453 0.0
C1288 C 0.59369 0.69532 0.58778 0.0
C1289 C 0.60533 0.69392 0.61026 0.0
C1290 C 0.57933 0.71502 0.58184 0.0
C1291 C 0.56828 0.77742 0.59787 0.0
H1292 H 0.50086 0.76541 0.57838 0.0
C1293 C 0.49389 0.84627 0.61441 0.0
C1294 C 0.47226 0.8467 0.60058 0.0
C1295 C 0.51165 0.82899 0.61061 0.0
C1296 C 0.51971 0.76929 0.58335 0.0
H1297 H 0.6115 0.71237 0.64387 0.0
H1298 H 0.58665 0.74667 0.63344 0.0
H1299 H 0.52985 0.73275 0.58013 0.0
H1300 H 0.4528 0.8297 0.57122 0.0
H1301 H 0.48437 0.8 0.56384 0.0
H1302 H 0.55868 0.81397 0.60041 0.0
C1303 C 0.5887 0.7326 0.62038 0.0
C1304 C 0.5363 0.75044 0.58449 0.0
C1305 C 0.60283 0.71288 0.62639 0.0
C1306 C 0.46921 0.8298 0.58227 0.0
C1307 C 0.48728 0.81264 0.57817 0.0
C1308 C 0.55191 0.79634 0.59618 0.0
C1309 C 0.57663 0.7338 0.59815 0.0
C1310 C 0.56042 0.75418 0.59278 0.0
C1311 C 0.50865 0.81181 0.59253 0.0
C1312 C 0.52706 0.7924 0.59001 0.0
H1313 H 0.59521 0.68098 0.57496 0.0
H1314 H 0.57022 0.71552 0.56459 0.0
H1315 H 0.587 0.7809 0.60369 0.0
H1316 H 0.49682 0.85882 0.62884 0.0
H1317 H 0.52731 0.82868 0.62262 0.0
C1318 C 0.90288 0.71387 0.35759 0.0
C1319 C 0.89535 0.69954 0.37678 0.0
C1320 C 0.92015 0.73194 0.36109 0.0
C1321 C 0.97025 0.75075 0.40185 0.0
H1322 H 0.96855 0.8063 0.36095 0.0
C1323 C 0.04523 0.82635 0.39875 0.0
C1324 C 0.05053 0.83469 0.37561 0.0
C1325 C 0.02641 0.80955 0.40223 0.0
C1326 C 0.96936 0.79081 0.37241 0.0
H1327 H 0.89947 0.69331 0.41487 0.0
H1328 H 0.92924 0.72548 0.42117 0.0
H1329 H 0.93333 0.77963 0.36199 0.0
H1330 H 0.04236 0.83032 0.33788 0.0
H1331 H 0.01023 0.80065 0.34385 0.0
H1332 H 0.00656 0.76221 0.4121 0.0
C1333 C 0.92209 0.72245 0.40331 0.0
C1334 C 0.94917 0.77549 0.37301 0.0
C1335 C 0.90491 0.70414 0.39974 0.0
C1336 C 0.03828 0.82454 0.35594 0.0
C1337 C 0.01976 0.80772 0.35938 0.0
C1338 C 0.99049 0.7663 0.4014 0.0
C1339 C 0.93013 0.73639 0.38395 0.0
C1340 C 0.94975 0.75472 0.38691 0.0
C1341 C 0.01285 0.80087 0.38259 0.0
C1342 C 0.99059 0.78591 0.38587 0.0
H1343 H 0.89614 0.71059 0.33962 0.0
H1344 H 0.92633 0.74184 0.3456 0.0
H1345 H 0.97135 0.73493 0.41279 0.0
H1346 H 0.05445 0.83392 0.41421 0.0
H1347 H 0.02161 0.80437 0.42029 0.0
C1348 C 0.4425 0.15439 0.89909 0.0
C1349 C 0.44047 0.14059 0.87819 0.0
C1350 C 0.46216 0.17034 0.90203 0.0
C1351 C 0.52445 0.18372 0.87772 0.0
H1352 H 0.5141 0.24596 0.90536 0.0
C1353 C 0.58936 0.26241 0.86011 0.0
C1354 C 0.59328 0.27938 0.87817 0.0
C1355 C 0.57269 0.24377 0.86349 0.0
C1356 C 0.5174 0.22853 0.89791 0.0
H1357 H 0.45683 0.13353 0.84356 0.0
H1358 H 0.49039 0.16174 0.8483 0.0
H1359 H 0.48056 0.21698 0.90505 0.0
H1360 H 0.58383 0.28931 0.9145 0.0
H1361 H 0.55487 0.2565 0.9205 0.0
H1362 H 0.56124 0.19526 0.87043 0.0
C1363 C 0.47745 0.15966 0.86286 0.0
C1364 C 0.49813 0.21195 0.89765 0.0
C1365 C 0.45803 0.14362 0.86003 0.0
C1366 C 0.58104 0.27665 0.90014 0.0
C1367 C 0.56436 0.25793 0.90354 0.0
C1368 C 0.5437 0.20024 0.87802 0.0
C1369 C 0.48005 0.17292 0.88404 0.0
C1370 C 0.50119 0.18962 0.88687 0.0
C1371 C 0.55964 0.24156 0.88507 0.0
C1372 C 0.54021 0.22306 0.88754 0.0
H1373 H 0.42926 0.15245 0.91342 0.0
H1374 H 0.46358 0.18027 0.91858 0.0
H1375 H 0.52773 0.1664 0.86999 0.0
H1376 H 0.59844 0.264 0.84295 0.0
H1377 H 0.5693 0.23164 0.84878 0.0
C1378 C 0.8563 0.0738 0.69621 0.0
C1379 C 0.85723 0.0973 0.70474 0.0
C1380 C 0.85831 0.05473 0.71206 0.0
C1381 C 0.85103 0.03805 0.7751 0.0
H1382 H 0.89763 0.98837 0.76037 0.0
C1383 C 0.85704 0.9535 0.83172 0.0
C1384 C 0.88053 0.94465 0.83709 0.0
C1385 C 0.8541 0.97155 0.81497 0.0
C1386 C 0.8845 0.00204 0.76465 0.0
H1387 H 0.86022 0.11925 0.73651 0.0
H1388 H 0.86329 0.08592 0.76424 0.0
H1389 H 0.89144 0.0208 0.73202 0.0
H1390 H 0.91938 0.94762 0.82894 0.0
H1391 H 0.91429 0.97961 0.79971 0.0
H1392 H 0.84426 0.01956 0.80782 0.0
C1393 C 0.86109 0.08228 0.74531 0.0
C1394 C 0.88084 0.02052 0.74838 0.0
C1395 C 0.8594 0.10134 0.72945 0.0
C1396 C 0.90107 0.95414 0.82519 0.0
C1397 C 0.89811 0.97231 0.80834 0.0
C1398 C 0.85449 0.01946 0.79122 0.0
C1399 C 0.86093 0.05882 0.73674 0.0
C1400 C 0.86413 0.03874 0.75351 0.0
C1401 C 0.87458 0.98135 0.80326 0.0
C1402 C 0.87123 0.0012 0.78615 0.0
H1403 H 0.85484 0.07012 0.67723 0.0
H1404 H 0.85796 0.0368 0.70502 0.0
H1405 H 0.838 0.05185 0.77947 0.0
H1406 H 0.8408 0.94656 0.84055 0.0
H1407 H 0.83568 0.97774 0.8111 0.0
C1408 C 0.64478 0.1363 0.46837 0.0
C1409 C 0.64665 0.11552 0.45464 0.0
C1410 C 0.65896 0.13923 0.48898 0.0
C1411 C 0.69815 0.10885 0.53331 0.0
H1412 H 0.7343 0.16831 0.53222 0.0
C1413 C 0.78669 0.1243 0.58905 0.0
C1414 C 0.79467 0.14771 0.59292 0.0
C1415 C 0.76488 0.11985 0.5764 0.0
C1416 C 0.72394 0.1519 0.53358 0.0
H1417 H 0.66422 0.08112 0.45214 0.0
H1418 H 0.68921 0.08636 0.48821 0.0
H1419 H 0.70243 0.16132 0.50315 0.0
H1420 H 0.78471 0.18477 0.5897 0.0
H1421 H 0.74614 0.17718 0.56936 0.0
H1422 H 0.71941 0.09955 0.5641 0.0
C1423 C 0.67653 0.10024 0.48311 0.0
C1424 C 0.7057 0.14782 0.51657 0.0
C1425 C 0.66239 0.09734 0.46238 0.0
C1426 C 0.77942 0.16652 0.5861 0.0
C1427 C 0.75736 0.16211 0.57419 0.0
C1428 C 0.71609 0.11316 0.55083 0.0
C1429 C 0.67536 0.12145 0.49626 0.0
C1430 C 0.69294 0.12614 0.51595 0.0
C1431 C 0.75042 0.13879 0.56792 0.0
C1432 C 0.72957 0.13464 0.55096 0.0
H1433 H 0.63299 0.15071 0.46282 0.0
H1434 H 0.6576 0.1557 0.49889 0.0
H1435 H 0.68836 0.09203 0.53332 0.0
H1436 H 0.79793 0.10947 0.59464 0.0
H1437 H 0.7602 0.10161 0.57229 0.0
C1438 C 0.64713 0.93361 0.19497 0.0
C1439 C 0.64466 0.91031 0.20374 0.0
C1440 C 0.64648 0.95292 0.21062 0.0
C1441 C 0.65501 0.96978 0.27344 0.0
H1442 H 0.61069 0.0215 0.25853 0.0
C1443 C 0.64926 0.05273 0.33271 0.0
C1444 C 0.6255 0.06045 0.33858 0.0
C1445 C 0.65267 0.03571 0.31497 0.0
C1446 C 0.62313 0.00719 0.2629 0.0
H1447 H 0.64022 0.88892 0.23574 0.0
H1448 H 0.63932 0.92269 0.26307 0.0
H1449 H 0.61538 0.98874 0.23024 0.0
H1450 H 0.58673 0.05702 0.32992 0.0
H1451 H 0.59272 0.02721 0.29867 0.0
H1452 H 0.66227 0.98771 0.30645 0.0
C1453 C 0.64176 0.92597 0.24412 0.0
C1454 C 0.62602 0.98863 0.2466 0.0
C1455 C 0.64217 0.90667 0.22847 0.0
C1456 C 0.60524 0.0513 0.32586 0.0
C1457 C 0.60869 0.03439 0.30788 0.0
C1458 C 0.65223 0.98836 0.28969 0.0
C1459 C 0.64361 0.94927 0.2353 0.0
C1460 C 0.64179 0.96966 0.25184 0.0
C1461 C 0.63243 0.02622 0.3025 0.0
C1462 C 0.6361 0.00714 0.28468 0.0
H1463 H 0.64897 0.93698 0.17597 0.0
H1464 H 0.6482 0.97071 0.20344 0.0
H1465 H 0.66738 0.95541 0.27785 0.0
H1466 H 0.66531 0.05958 0.34204 0.0
H1467 H 0.67121 0.03005 0.31094 0.0
C1468 C 0.83483 0.90613 0.9537 0.0
C1469 C 0.85147 0.88796 0.94814 0.0
C1470 C 0.8198 0.90433 0.97385 0.0
C1471 C 0.79288 0.85916 0.01306 0.0
H1472 H 0.77638 0.91254 0.05361 0.0
C1473 C 0.72673 0.8445 0.08951 0.0
C1474 C 0.70894 0.86194 0.09344 0.0
C1475 C 0.74731 0.84951 0.07566 0.0
C1476 C 0.78055 0.89752 0.04227 0.0
H1477 H 0.86539 0.8537 0.9594 0.0
H1478 H 0.83991 0.85095 0.99486 0.0
H1479 H 0.80608 0.91785 0.02129 0.0
H1480 H 0.69948 0.89879 0.08788 0.0
H1481 H 0.7347 0.90728 0.06211 0.0
H1482 H 0.76659 0.83908 0.03259 0.0
C1483 C 0.83825 0.86648 0.98353 0.0
C1484 C 0.79763 0.90056 0.02383 0.0
C1485 C 0.85306 0.86816 0.9633 0.0
C1486 C 0.71289 0.88501 0.08477 0.0
C1487 C 0.73317 0.88985 0.07016 0.0
C1488 C 0.7755 0.85625 0.03099 0.0
C1489 C 0.82123 0.88438 0.98886 0.0
C1490 C 0.80391 0.88137 0.00903 0.0
C1491 C 0.75008 0.87182 0.06465 0.0
C1492 C 0.76918 0.87531 0.04599 0.0
H1493 H 0.83303 0.92153 0.94224 0.0
H1494 H 0.80651 0.91818 0.97722 0.0
H1495 H 0.79713 0.84404 0.00192 0.0
H1496 H 0.72437 0.82672 0.09662 0.0
H1497 H 0.76053 0.8355 0.07284 0.0
C1498 C 0.88738 -0.00159 0.62732 0.0
C1499 C 0.89573 0.02148 0.63268 0.0
C1500 C 0.88598 0.98121 0.64525 0.0
C1501 C 0.86405 0.95952 0.68996 0.0
H1502 H 0.91135 0.94975 0.74106 0.0
C1503 C 0.83468 0.9237 0.78103 0.0
C1504 C 0.84969 0.90697 0.79253 0.0
C1505 C 0.84279 0.93534 0.7605 0.0
C1506 C 0.89808 0.95209 0.72678 0.0
H1507 H 0.91087 0.04412 0.66062 0.0
H1508 H 0.9085 0.014 0.69184 0.0
H1509 H 0.92285 0.97375 0.70625 0.0
H1510 H 0.88525 0.88964 0.79165 0.0
H1511 H 0.89926 0.9098 0.7554 0.0
H1512 H 0.83902 0.93858 0.71061 0.0
C1513 C 0.90298 0.00926 0.67382 0.0
C1514 C 0.90461 0.96592 0.70697 0.0
C1515 C 0.90423 0.02653 0.65594 0.0
C1516 C 0.87313 0.90228 0.7831 0.0
C1517 C 0.88125 0.91395 0.76246 0.0
C1518 C 0.85744 0.94603 0.70984 0.0
C1519 C 0.89306 0.9867 0.66881 0.0
C1520 C 0.88751 0.97002 0.68855 0.0
C1521 C 0.86604 0.93043 0.75084 0.0
C1522 C 0.87415 0.94266 0.72873 0.0
H1523 H 0.88091 0.99389 0.60953 0.0
H1524 H 0.87856 0.96383 0.64086 0.0
H1525 H 0.85041 0.96255 0.67613 0.0
H1526 H 0.81664 0.92797 0.78793 0.0
H1527 H 0.8309 0.9484 0.75229 0.0
C1528 C 0.83144 0.12351 0.53623 0.0
C1529 C 0.83092 0.10293 0.55038 0.0
C1530 C 0.81272 0.12793 0.51971 0.0
C1531 C 0.75949 0.09806 0.48892 0.0
H1532 H 0.74582 0.16278 0.46971 0.0
C1533 C 0.70092 0.11769 0.40624 0.0
C1534 C 0.68621 0.13807 0.40565 0.0
C1535 C 0.71711 0.1138 0.42515 0.0
C1536 C 0.74913 0.1446 0.47506 0.0
H1537 H 0.81001 0.0711 0.55876 0.0
H1538 H 0.77674 0.07934 0.53113 0.0
H1539 H 0.77566 0.15546 0.50106 0.0
H1540 H 0.67623 0.16999 0.42491 0.0
H1541 H 0.70411 0.16288 0.45846 0.0
H1542 H 0.73168 0.08734 0.46414 0.0
C1543 C 0.7921 0.09165 0.53174 0.0
C1544 C 0.76673 0.14031 0.49279 0.0
C1545 C 0.81114 0.08697 0.54785 0.0
C1546 C 0.68758 0.15425 0.42474 0.0
C1547 C 0.70368 0.15023 0.44389 0.0
C1548 C 0.74146 0.10239 0.47171 0.0
C1549 C 0.7926 0.11219 0.51734 0.0
C1550 C 0.77258 0.11693 0.49964 0.0
C1551 C 0.71873 0.12996 0.44427 0.0
C1552 C 0.7364 0.12567 0.46415 0.0
H1553 H 0.84629 0.13629 0.53783 0.0
H1554 H 0.81434 0.14361 0.50864 0.0
H1555 H 0.76349 0.07976 0.49323 0.0
H1556 H 0.70003 0.10463 0.39206 0.0
H1557 H 0.72866 0.09823 0.42448 0.0
C1558 C 0.58176 0.96495 0.17309 0.0
C1559 C 0.59393 0.95628 0.15277 0.0
C1560 C 0.58972 0.98565 0.18431 0.0
C1561 C 0.64389 0.02402 0.19255 0.0
H1562 H 0.59541 0.06311 0.22426 0.0
C1563 C 0.66775 0.07833 0.27575 0.0
C1564 C 0.65438 0.09881 0.28154 0.0
C1565 C 0.66158 0.0648 0.25573 0.0
C1566 C 0.60931 0.05286 0.21515 0.0
H1567 H 0.62432 0.96251 0.12846 0.0
H1568 H 0.63834 -0.00095 0.14821 0.0
H1569 H 0.58203 0.03301 0.19604 0.0
H1570 H 0.62486 0.12189 0.27002 0.0
H1571 H 0.61473 0.09881 0.2343 0.0
H1572 H 0.67121 0.04408 0.21145 0.0
C1573 C 0.62256 0.98965 0.15539 0.0
C1574 C 0.60158 0.03527 0.1992 0.0
C1575 C 0.61455 0.96874 0.14409 0.0
C1576 C 0.63534 0.10605 0.2662 0.0
C1577 C 0.62947 0.09273 0.24579 0.0
C1578 C 0.65167 0.04187 0.20827 0.0
C1579 C 0.61008 -0.0016 0.17556 0.0
C1580 C 0.61869 0.01996 0.18853 0.0
C1581 C 0.64225 0.07168 0.24054 0.0
C1582 C 0.63441 0.05585 0.22054 0.0
H1583 H 0.566 0.95569 0.18052 0.0
H1584 H 0.58009 0.99136 0.20022 0.0
H1585 H 0.6576 0.0126 0.18463 0.0
H1586 H 0.68254 0.07216 0.28715 0.0
H1587 H 0.67145 0.04843 0.25278 0.0
C1588 C 0.66335 0.89818 0.04805 0.0
C1589 C 0.64649 0.87919 0.04863 0.0
C1590 C 0.68385 0.89736 0.03293 0.0
C1591 C 0.71935 0.85378 0.99556 0.0
H1592 H 0.74908 0.91093 0.96986 0.0
C1593 C 0.80166 0.84826 0.93116 0.0
C1594 C 0.80364 0.86541 0.91307 0.0
C1595 C 0.78426 0.85062 0.94929 0.0
C1596 C 0.74075 0.89472 0.97649 0.0
H1597 H 0.637 0.84517 0.03285 0.0
H1598 H 0.67148 0.84429 0.00577 0.0
H1599 H 0.71465 0.91411 -0.00297 0.0
H1600 H 0.78916 0.8988 0.90003 0.0
H1601 H 0.75825 0.90255 0.93097 0.0
H1602 H 0.74383 0.83431 0.97351 0.0
C1603 C 0.67003 0.85928 0.01778 0.0
C1604 C 0.72121 0.89656 0.99261 0.0
C1605 C 0.64993 0.8599 0.03316 0.0
C1606 C 0.78798 0.88512 0.9136 0.0
C1607 C 0.77044 0.88744 0.93166 0.0
C1608 C 0.73823 0.85193 0.97885 0.0
C1609 C 0.68774 0.87766 0.01784 0.0
C1610 C 0.70985 0.87608 0.00205 0.0
C1611 C 0.7683 0.87023 0.94985 0.0
C1612 C 0.74905 0.87235 0.96877 0.0
H1613 H 0.66117 0.91327 0.05986 0.0
H1614 H 0.69695 0.91189 0.0337 0.0
H1615 H 0.71201 0.83752 0.0031 0.0
H1616 H 0.81362 0.83294 0.9314 0.0
H1617 H 0.78355 0.837 0.96288 0.0
C1618 C 0.98337 0.83933 0.8971 0.0
C1619 C 0.96244 0.84209 0.88274 0.0
C1620 C 0.00264 0.82507 0.88957 0.0
C1621 C 0.02649 0.78859 0.83849 0.0
H1622 H 0.05751 0.75566 0.89139 0.0
C1623 C 0.08985 0.70439 0.83353 0.0
C1624 C 0.11124 0.70603 0.8477 0.0
C1625 C 0.07237 0.72256 0.834 0.0
C1626 C 0.04903 0.76474 0.87642 0.0
H1627 H 0.94569 0.8337 0.84861 0.0
H1628 H 0.97912 0.80769 0.83566 0.0
H1629 H 0.02535 0.78384 0.89942 0.0
H1630 H 0.13172 0.72857 0.87236 0.0
H1631 H 0.10114 0.75978 0.87346 0.0
H1632 H 0.04955 0.76767 0.81556 0.0
C1633 C 0.98078 0.81666 0.85268 0.0
C1634 C 0.03076 0.78122 0.88099 0.0
C1635 C 0.96165 0.83154 0.86002 0.0
C1636 C 0.11536 0.7266 0.86139 0.0
C1637 C 0.09787 0.74451 0.86205 0.0
C1638 C 0.04437 0.77136 0.83388 0.0
C1639 C 0.00105 0.81245 0.86786 0.0
C1640 C 0.01968 0.79397 0.86221 0.0
C1641 C 0.07595 0.74238 0.84889 0.0
C1642 C 0.05609 0.75968 0.8529 0.0
H1643 H 0.98454 0.84777 0.91451 0.0
H1644 H 0.01847 0.82343 0.90124 0.0
H1645 H 0.01845 0.79797 0.82352 0.0
H1646 H 0.08623 0.68878 0.82271 0.0
H1647 H 0.05553 0.72056 0.82374 0.0
C1648 C 0.46706 0.65951 0.11796 0.0
C1649 C 0.44933 0.66459 0.10036 0.0
C1650 C 0.48455 0.67678 0.12452 0.0
C1651 C 0.5117 0.73201 0.09948 0.0
H1652 H 0.53953 0.74078 0.16281 0.0
C1653 C 0.58903 0.79849 0.11347 0.0
C1654 C 0.58839 0.81297 0.13387 0.0
C1655 C 0.57378 0.7787 0.11163 0.0
C1656 C 0.53177 0.73857 0.14507 0.0
H1657 H 0.43495 0.69221 0.07715 0.0
H1658 H 0.46398 0.72218 0.08942 0.0
H1659 H 0.50848 0.70969 0.15613 0.0
H1660 H 0.57119 0.81816 0.16842 0.0
H1661 H 0.54336 0.78397 0.16465 0.0
H1662 H 0.53343 0.7615 0.08853 0.0
C1663 C 0.46554 0.70468 0.0973 0.0
C1664 C 0.51426 0.72059 0.14118 0.0
C1665 C 0.44867 0.68744 0.09038 0.0
C1666 C 0.57208 0.80724 0.15249 0.0
C1667 C 0.55638 0.78754 0.15045 0.0
C1668 C 0.52867 0.75007 0.10343 0.0
C1669 C 0.48424 0.69941 0.11378 0.0
C1670 C 0.50381 0.71736 0.11834 0.0
C1671 C 0.5569 0.77323 0.12982 0.0
C1672 C 0.53896 0.75362 0.12621 0.0
H1673 H 0.46794 0.64203 0.126 0.0
H1674 H 0.49875 0.67215 0.13728 0.0
H1675 H 0.50468 0.72968 0.08147 0.0
H1676 H 0.60106 0.80256 0.09862 0.0
H1677 H 0.57504 0.76784 0.09569 0.0
C1678 C 0.04681 0.33516 0.62913 0.0
C1679 C 0.05989 0.33662 0.60758 0.0
C1680 C 0.02995 0.3168 0.63291 0.0
C1681 C 0.01183 0.25728 0.60858 0.0
H1682 H 0.95461 0.26685 0.64866 0.0
C1683 C 0.92536 0.19704 0.6102 0.0
C1684 C 0.92014 0.18705 0.63265 0.0
C1685 C 0.94328 0.21472 0.60805 0.0
C1686 C 0.97063 0.26401 0.63754 0.0
H1687 H 0.06526 0.32041 0.57283 0.0
H1688 H 0.03532 0.28888 0.57896 0.0
H1689 H 0.98339 0.29957 0.64227 0.0
H1690 H 0.92904 0.18786 0.67049 0.0
H1691 H 0.95965 0.21989 0.66679 0.0
H1692 H 0.9976 0.2223 0.6024 0.0
C1693 C 0.03855 0.30133 0.5934 0.0
C1694 C 0.98727 0.28264 0.63398 0.0
C1695 C 0.05559 0.31958 0.58973 0.0
C1696 C 0.93286 0.19524 0.65298 0.0
C1697 C 0.95023 0.2135 0.65091 0.0
C1698 C 0.99469 0.239 0.61147 0.0
C1699 C 0.02572 0.29947 0.61519 0.0
C1700 C 0.00811 0.27956 0.61938 0.0
C1701 C 0.95568 0.22315 0.6284 0.0
C1702 C 0.97409 0.24222 0.62602 0.0
H1703 H 0.04996 0.34792 0.64334 0.0
H1704 H 0.02079 0.31591 0.65005 0.0
H1705 H 0.02796 0.25381 0.59787 0.0
H1706 H 0.91588 0.19091 0.59425 0.0
H1707 H 0.94723 0.22206 0.59054 0.0
C1708 C 0.04344 0.66644 0.85638 0.0
C1709 C 0.05647 0.67081 0.87775 0.0
C1710 C 0.02456 0.68176 0.84913 0.0
C1711 C 0.98022 0.72131 0.87723 0.0
H1712 H 0.96508 0.74343 0.81319 0.0
C1713 C 0.88979 0.76808 0.86003 0.0
C1714 C 0.8914 0.78978 0.84776 0.0
C1715 C 0.90933 0.75216 0.8596 0.0
C1716 C 0.96914 0.73738 0.83116 0.0
H1717 H 0.06131 0.69581 0.90706 0.0
H1718 H 0.02828 0.7217 0.89488 0.0
H1719 H 0.00237 0.71992 0.82026 0.0
H1720 H 0.91364 0.81071 0.82335 0.0
H1721 H 0.94769 0.78256 0.82227 0.0
H1722 H 0.94775 0.73901 0.8885 0.0
C1723 C 0.03246 0.70654 0.88374 0.0
C1724 C 0.99034 0.72382 0.83514 0.0
C1725 C 0.05137 0.69157 0.89076 0.0
C1726 C 0.91211 0.79434 0.83342 0.0
C1727 C 0.9316 0.77821 0.83277 0.0
C1728 C 0.9592 0.73471 0.87329 0.0
C1729 C 0.01838 0.70152 0.86326 0.0
C1730 C 0.99608 0.71574 0.85829 0.0
C1731 C 0.9309 0.75752 0.84681 0.0
C1732 C 0.95325 0.7428 0.85022 0.0
H1733 H 0.04704 0.65067 0.84589 0.0
H1734 H 0.01397 0.67746 0.83324 0.0
H1735 H 0.98397 0.71515 0.89524 0.0
H1736 H 0.87392 0.76381 0.87093 0.0
H1737 H 0.90787 0.73598 0.87 0.0
C1738 C 0.38157 0.26761 0.35628 0.0
C1739 C 0.38791 0.28891 0.3447 0.0
C1740 C 0.39789 0.24865 0.35659 0.0
C1741 C 0.45456 0.22354 0.33106 0.0
H1742 H 0.46574 0.20389 0.39662 0.0
C1743 C 0.54 0.16983 0.36137 0.0
C1744 C 0.53804 0.15651 0.38244 0.0
C1745 C 0.51981 0.18281 0.35309 0.0
C1746 C 0.46254 0.20847 0.37807 0.0
H1747 H 0.41545 0.30641 0.32274 0.0
H1748 H 0.44394 0.27299 0.32312 0.0
H1749 H 0.43315 0.23133 0.38779 0.0
H1750 H 0.51343 0.14416 0.41017 0.0
H1751 H 0.47789 0.16543 0.39508 0.0
H1752 H 0.48371 0.20011 0.32127 0.0
C1753 C 0.4264 0.27111 0.33207 0.0
C1754 C 0.44389 0.22447 0.37305 0.0
C1755 C 0.41017 0.29027 0.33201 0.0
C1756 C 0.51534 0.15474 0.39407 0.0
C1757 C 0.4951 0.16718 0.38553 0.0
C1758 C 0.47296 0.20691 0.336 0.0
C1759 C 0.42081 0.25052 0.3452 0.0
C1760 C 0.43978 0.23232 0.34959 0.0
C1761 C 0.49738 0.18241 0.36567 0.0
C1762 C 0.4772 0.19918 0.35964 0.0
H1763 H 0.36444 0.26588 0.366 0.0
H1764 H 0.39295 0.2328 0.36651 0.0
H1765 H 0.45175 0.22937 0.31279 0.0
H1766 H 0.55745 0.17125 0.35214 0.0
H1767 H 0.52214 0.19397 0.33757 0.0
C1768 C 0.95945 0.13826 0.62771 0.0
C1769 C 0.95264 0.14178 0.60367 0.0
C1770 C 0.97946 0.15068 0.63752 0.0
C1771 C 0.03376 0.18743 0.62008 0.0
H1772 H 0.02303 0.21902 0.68075 0.0
C1773 C 0.09775 0.26263 0.64724 0.0
C1774 C 0.08619 0.28293 0.65614 0.0
C1775 C 0.08539 0.24089 0.64684 0.0
C1776 C 0.02632 0.21038 0.66376 0.0
H1777 H 0.9621 0.16021 0.57083 0.0
H1778 H 0.99661 0.18168 0.58771 0.0
H1779 H 0.99434 0.18832 0.66737 0.0
H1780 H 0.05388 0.29619 0.67404 0.0
H1781 H 0.03116 0.25872 0.67147 0.0
H1782 H 0.06444 0.21046 0.61532 0.0
C1783 C 0.98676 0.16936 0.59913 0.0
C1784 C 0.01002 0.19255 0.65623 0.0
C1785 C 0.96677 0.15716 0.58944 0.0
C1786 C 0.06285 0.28081 0.66651 0.0
C1787 C 0.05003 0.25921 0.66532 0.0
C1788 C 0.04983 0.20536 0.62742 0.0
C1789 C 0.99317 0.16658 0.62337 0.0
C1790 C 0.013 0.18161 0.63381 0.0
C1791 C 0.06086 0.23917 0.65463 0.0
C1792 C 0.04592 0.21761 0.64902 0.0
H1793 H 0.94888 0.1265 0.63913 0.0
H1794 H 0.98403 0.14803 0.6562 0.0
H1795 H 0.03695 0.17895 0.60298 0.0
H1796 H 0.11624 0.26357 0.6402 0.0
H1797 H 0.09479 0.22566 0.63951 0.0
C1798 C 0.3982 0.70561 0.11701 0.0
C1799 C 0.39654 0.69263 0.13834 0.0
C1800 C 0.41246 0.72621 0.11589 0.0
C1801 C 0.46358 0.7568 0.14886 0.0
H1802 H 0.45365 0.8035 0.09881 0.0
C1803 C 0.52378 0.84108 0.1363 0.0
C1804 C 0.53526 0.84201 0.11381 0.0
C1805 C 0.50497 0.8247 0.14065 0.0
C1806 C 0.45652 0.79057 0.11288 0.0
H1807 H 0.4073 0.69167 0.17569 0.0
H1808 H 0.4314 0.72815 0.17416 0.0
H1809 H 0.42254 0.773 0.10552 0.0
H1810 H 0.5359 0.82686 0.07815 0.0
H1811 H 0.50228 0.79865 0.0856 0.0
H1812 H 0.49692 0.77568 0.15699 0.0
C1813 C 0.42261 0.72202 0.15787 0.0
C1814 C 0.43886 0.77287 0.11664 0.0
C1815 C 0.40862 0.70114 0.15886 0.0
C1816 C 0.5273 0.82657 0.0956 0.0
C1817 C 0.50809 0.81054 0.09981 0.0
C1818 C 0.48074 0.77505 0.14565 0.0
C1819 C 0.42528 0.73456 0.13619 0.0
C1820 C 0.44248 0.75523 0.1342 0.0
C1821 C 0.49699 0.80937 0.12242 0.0
C1822 C 0.47768 0.79158 0.1272 0.0
H1823 H 0.38928 0.69936 0.10081 0.0
H1824 H 0.41432 0.73475 0.09865 0.0
H1825 H 0.46752 0.74352 0.16228 0.0
H1826 H 0.52976 0.85258 0.15076 0.0
H1827 H 0.49666 0.82398 0.15823 0.0
C1828 C 0.60174 0.38844 0.77589 0.0
C1829 C 0.62416 0.38262 0.7868 0.0
C1830 C 0.60102 0.40577 0.75796 0.0
C1831 C 0.6388 0.4561 0.73485 0.0
H1832 H 0.59016 0.45618 0.68398 0.0
C1833 C 0.63951 0.52556 0.65903 0.0
C1834 C 0.61676 0.53609 0.65401 0.0
C1835 C 0.64076 0.50577 0.67405 0.0
C1836 C 0.60377 0.4564 0.69819 0.0
H1837 H 0.66358 0.38824 0.78603 0.0
H1838 H 0.66261 0.41753 0.75426 0.0
H1839 H 0.59182 0.42272 0.71164 0.0
H1840 H 0.57743 0.53368 0.65988 0.0
H1841 H 0.57959 0.49933 0.68621 0.0
H1842 H 0.65117 0.48944 0.72085 0.0
C1843 C 0.64535 0.40993 0.76028 0.0
C1844 C 0.60467 0.43729 0.71411 0.0
C1845 C 0.64597 0.39308 0.77849 0.0
C1846 C 0.59524 0.52625 0.66381 0.0
C1847 C 0.59645 0.50636 0.67862 0.0
C1848 C 0.63815 0.47495 0.7187 0.0
C1849 C 0.62281 0.41709 0.75028 0.0
C1850 C 0.62211 0.43697 0.73276 0.0
C1851 C 0.61922 0.49601 0.684 0.0
C1852 C 0.62049 0.47542 0.70039 0.0
H1853 H 0.58468 0.38057 0.78212 0.0
H1854 H 0.58328 0.41094 0.7509 0.0
H1855 H 0.65216 0.45681 0.74923 0.0
H1856 H 0.65635 0.53287 0.65167 0.0
H1857 H 0.65856 0.49802 0.67778 0.0
C1858 C 0.83774 0.3799 0.02162 0.0
C1859 C 0.84578 0.3614 0.03646 0.0
C1860 C 0.82054 0.37555 0.00361 0.0
C1861 C 0.77037 0.33459 0.98742 0.0
H1862 H 0.77179 0.37168 0.92902 0.0
C1863 C 0.6953 0.33296 0.91169 0.0
C1864 C 0.69015 0.3553 0.90171 0.0
C1865 C 0.71393 0.33067 0.92891 0.0
C1866 C 0.77106 0.3613 0.94533 0.0
H1867 H 0.84275 0.32358 0.04348 0.0
H1868 H 0.81268 0.31595 0.01171 0.0
H1869 H 0.80737 0.37199 0.9554 0.0
H1870 H 0.69828 0.39301 0.90377 0.0
H1871 H 0.73018 0.38909 0.93406 0.0
H1872 H 0.7337 0.32422 0.97722 0.0
C1873 C 0.81958 0.33387 0.01424 0.0
C1874 C 0.79146 0.36143 0.96041 0.0
C1875 C 0.83691 0.33823 0.03231 0.0
C1876 C 0.70228 0.3755 0.91075 0.0
C1877 C 0.72066 0.37324 0.92795 0.0
C1878 C 0.74987 0.33436 0.97217 0.0
C1879 C 0.81096 0.35258 -8e-05 0.0
C1880 C 0.79103 0.34883 0.98208 0.0
C1881 C 0.72747 0.35072 0.93635 0.0
C1882 C 0.74976 0.34844 0.95143 0.0
H1883 H 0.84407 0.39798 0.0244 0.0
H1884 H 0.81401 0.39049 0.99322 0.0
H1885 H 0.76942 0.32473 0.00404 0.0
H1886 H 0.68616 0.31711 0.90504 0.0
H1887 H 0.71868 0.31313 0.93532 0.0
C1888 C 0.83999 0.58568 0.27633 0.0
C1889 C 0.86088 0.5978 0.28491 0.0
C1890 C 0.84186 0.56974 0.25734 0.0
C1891 C 0.8853 0.53064 0.22769 0.0
H1892 H 0.83754 0.5306 0.17592 0.0
C1893 C 0.89531 0.46844 0.1471 0.0
C1894 C 0.87394 0.45721 0.13852 0.0
C1895 C 0.89377 0.48688 0.16364 0.0
C1896 C 0.85085 0.53019 0.19039 0.0
H1897 H 0.90008 0.60309 0.28015 0.0
H1898 H 0.90343 0.57496 0.24686 0.0
H1899 H 0.83503 0.56054 0.2074 0.0
H1900 H 0.83415 0.45673 0.13975 0.0
H1901 H 0.8313 0.48885 0.16911 0.0
H1902 H 0.90078 0.5 0.21115 0.0
C1903 C 0.88561 0.57782 0.25495 0.0
C1904 C 0.84946 0.54739 0.20834 0.0
C1905 C 0.88367 0.59402 0.27382 0.0
C1906 C 0.85088 0.46529 0.14604 0.0
C1907 C 0.8493 0.48365 0.16283 0.0
C1908 C 0.88656 0.51331 0.20987 0.0
C1909 C 0.86471 0.56548 0.24661 0.0
C1910 C 0.86667 0.54776 0.22715 0.0
C1911 C 0.87078 0.49439 0.17211 0.0
C1912 C 0.86937 0.5129 0.19098 0.0
H1913 H 0.82212 0.58851 0.28412 0.0
H1914 H 0.82548 0.56036 0.25138 0.0
H1915 H 0.89859 0.53032 0.24217 0.0
H1916 H 0.91328 0.46299 0.14106 0.0
H1917 H 0.91064 0.49518 0.16989 0.0
C1918 C 0.78076 0.60586 0.40579 0.0
C1919 C 0.79141 0.62699 0.39722 0.0
C1920 C 0.76729 0.60573 0.42692 0.0
C1921 C 0.73041 0.64337 0.46576 0.0
H1922 H 0.73802 0.59093 0.51008 0.0
C1923 C 0.65798 0.61972 0.5381 0.0
C1924 C 0.66664 0.61092 0.56007 0.0
C1925 C 0.67437 0.6241 0.51929 0.0
C1926 C 0.73578 0.60588 0.4981 0.0
H1927 H 0.79655 0.66456 0.40414 0.0
H1928 H 0.77243 0.66441 0.44129 0.0
H1929 H 0.76563 0.59452 0.47615 0.0
H1930 H 0.69923 0.59998 0.57956 0.0
H1931 H 0.72766 0.60807 0.54718 0.0
H1932 H 0.70069 0.65488 0.48794 0.0
C1933 C 0.7746 0.64798 0.43148 0.0
C1934 C 0.75146 0.60776 0.47849 0.0
C1935 C 0.78849 0.64804 0.41037 0.0
C1936 C 0.69196 0.60697 0.56296 0.0
C1937 C 0.70828 0.61139 0.54427 0.0
C1938 C 0.71469 0.64152 0.48547 0.0
C1939 C 0.7639 0.62677 0.43993 0.0
C1940 C 0.7487 0.62628 0.46189 0.0
C1941 C 0.6997 0.61972 0.52209 0.0
C1942 C 0.717 0.62256 0.5017 0.0
H1943 H 0.78283 0.58932 0.39611 0.0
H1944 H 0.75903 0.58917 0.4328 0.0
H1945 H 0.72783 0.6578 0.4532 0.0
H1946 H 0.63855 0.62292 0.53534 0.0
H1947 H 0.66709 0.63023 0.50234 0.0
C1948 C 0.61031 0.4364 0.81614 0.0
C1949 C 0.62636 0.43529 0.83586 0.0
C1950 C 0.61157 0.45527 0.80009 0.0
C1951 C 0.65148 0.50212 0.77684 0.0
H1952 H 0.58996 0.53277 0.76053 0.0
C1953 C 0.65084 0.58459 0.71671 0.0
C1954 C 0.63114 0.58754 0.7008 0.0
C1955 C 0.64986 0.56724 0.73444 0.0
C1956 C 0.60729 0.52424 0.7645 0.0
H1957 H 0.65723 0.45256 0.85354 0.0
H1958 H 0.65962 0.48565 0.82514 0.0
H1959 H 0.58997 0.49951 0.78828 0.0
H1960 H 0.59459 0.57546 0.69121 0.0
H1961 H 0.59332 0.54388 0.72112 0.0
H1962 H 0.6688 0.52592 0.75241 0.0
C1963 C 0.6459 0.47187 0.82235 0.0
C1964 C 0.60728 0.50525 0.78055 0.0
C1965 C 0.6445 0.45299 0.83859 0.0
C1966 C 0.61004 0.57337 0.70329 0.0
C1967 C 0.60932 0.55541 0.72059 0.0
C1968 C 0.65147 0.52086 0.76048 0.0
C1969 C 0.62909 0.47339 0.80324 0.0
C1970 C 0.62935 0.49396 0.78678 0.0
C1971 C 0.6294 0.55192 0.73625 0.0
C1972 C 0.62936 0.53217 0.75402 0.0
H1973 H 0.59653 0.42282 0.81313 0.0
H1974 H 0.59878 0.45571 0.78518 0.0
H1975 H 0.6687 0.49349 0.78109 0.0
H1976 H 0.66703 0.59579 0.71555 0.0
H1977 H 0.66529 0.56584 0.74664 0.0
C1978 C 0.80044 0.34553 0.0826 0.0
C1979 C 0.80858 0.3668 0.09321 0.0
C1980 C 0.7832 0.34602 0.06383 0.0
C1981 C 0.75658 0.3861 0.01805 0.0
H1982 H 0.6985 0.34599 0.02251 0.0
C1983 C 0.6702 0.40779 0.96432 0.0
C1984 C 0.65717 0.38915 0.95326 0.0
C1985 C 0.68872 0.40308 0.98094 0.0
C1986 C 0.71475 0.35708 0.02082 0.0
H1987 H 0.80619 0.4052 0.09178 0.0
H1988 H 0.77666 0.40608 0.05914 0.0
H1989 H 0.73233 0.34075 0.051 0.0
H1990 H 0.65284 0.35085 0.95163 0.0
H1991 H 0.68542 0.34259 0.98073 0.0
H1992 H 0.73934 0.40234 0.98789 0.0
C1993 C 0.78327 0.389 0.06524 0.0
C1994 C 0.73414 0.35405 0.03711 0.0
C1995 C 0.80006 0.3885 0.0841 0.0
C1996 C 0.66243 0.36563 0.95996 0.0
C1997 C 0.68109 0.3609 0.97664 0.0
C1998 C 0.7374 0.38896 0.0017 0.0
C1999 C 0.77431 0.36781 0.0551 0.0
C2000 C 0.75504 0.36889 0.0362 0.0
C2001 C 0.69484 0.37959 0.98689 0.0
C2002 C 0.71595 0.37494 0.00324 0.0
H2003 H 0.8068 0.32857 0.08927 0.0
H2004 H 0.77683 0.32941 0.05615 0.0
H2005 H 0.7726 0.39754 0.0166 0.0
H2006 H 0.66651 0.42612 0.95976 0.0
H2007 H 0.69846 0.41794 0.98896 0.0
C2008 C 0.86185 0.51029 0.35053 0.0
C2009 C 0.86404 0.53397 0.34297 0.0
C2010 C 0.86522 0.49174 0.33414 0.0
C2011 C 0.89438 0.48138 0.27502 0.0
H2012 H 0.85778 0.42204 0.27569 0.0
C2013 C 0.88271 0.41973 0.1943 0.0
C2014 C 0.8884 0.39567 0.19742 0.0
C2015 C 0.88257 0.43517 0.21374 0.0
C2016 C 0.86835 0.43842 0.27561 0.0
H2017 H 0.86975 0.55697 0.3125 0.0
H2018 H 0.87406 0.52503 0.28377 0.0
H2019 H 0.84975 0.45206 0.30638 0.0
H2020 H 0.89848 0.36872 0.22328 0.0
H2021 H 0.89743 0.39585 0.25781 0.0
H2022 H 0.912 0.46819 0.24353 0.0
C2023 C 0.87093 0.52049 0.30235 0.0
C2024 C 0.86378 0.4556 0.29311 0.0
C2025 C 0.86809 0.53885 0.31871 0.0
C2026 C 0.89429 0.38728 0.2204 0.0
C2027 C 0.89354 0.40267 0.24008 0.0
C2028 C 0.89863 0.46442 0.25739 0.0
C2029 C 0.87047 0.49671 0.30996 0.0
C2030 C 0.87637 0.47751 0.29269 0.0
C2031 C 0.88755 0.42669 0.23683 0.0
C2032 C 0.88538 0.44301 0.25732 0.0
H2033 H 0.85895 0.50614 0.36924 0.0
H2034 H 0.86476 0.47362 0.34062 0.0
H2035 H 0.90504 0.49769 0.27458 0.0
H2036 H 0.87791 0.42651 0.17685 0.0
H2037 H 0.87772 0.45359 0.21086 0.0
C2038 C 0.8332 0.64628 0.4539 0.0
C2039 C 0.84352 0.62351 0.45215 0.0
C2040 C 0.82096 0.65324 0.47466 0.0
C2041 C 0.81277 0.63884 0.53846 0.0
H2042 H 0.7458 0.66022 0.52891 0.0
C2043 C 0.7396 0.62252 0.60881 0.0
C2044 C 0.71893 0.63723 0.61076 0.0
C2045 C 0.75708 0.62645 0.59113 0.0
C2046 C 0.7646 0.65483 0.53207 0.0
H2047 H 0.85009 0.59057 0.47115 0.0
H2048 H 0.82881 0.60276 0.50746 0.0
H2049 H 0.77344 0.65746 0.49487 0.0
H2050 H 0.70081 0.66816 0.59599 0.0
H2051 H 0.73194 0.67557 0.56533 0.0
H2052 H 0.80436 0.63666 0.57565 0.0
C2053 C 0.83024 0.61525 0.49278 0.0
C2054 C 0.78038 0.65305 0.51247 0.0
C2055 C 0.84233 0.60822 0.47196 0.0
C2056 C 0.71651 0.65646 0.59491 0.0
C2057 C 0.7343 0.66063 0.57728 0.0
C2058 C 0.79724 0.64115 0.55812 0.0
C2059 C 0.8191 0.63767 0.49417 0.0
C2060 C 0.80419 0.64393 0.51535 0.0
C2061 C 0.75471 0.64549 0.57504 0.0
C2062 C 0.77256 0.64801 0.55503 0.0
H2063 H 0.83409 0.65859 0.43903 0.0
H2064 H 0.81268 0.67067 0.47533 0.0
H2065 H 0.8313 0.6324 0.54124 0.0
H2066 H 0.74201 0.60737 0.62053 0.0
H2067 H 0.77199 0.6139 0.58961 0.0
C2068 C 0.53687 0.6562 0.64451 0.0
C2069 C 0.54773 0.64746 0.62356 0.0
C2070 C 0.52316 0.67698 0.644 0.0
C2071 C 0.48588 0.71435 0.6052 0.0
H2072 H 0.49428 0.75959 0.65693 0.0
C2073 C 0.41375 0.78663 0.62661 0.0
C2074 C 0.42222 0.80831 0.6361 0.0
C2075 C 0.43017 0.768 0.62257 0.0
C2076 C 0.49184 0.74744 0.64208 0.0
H2077 H 0.55278 0.65346 0.5856 0.0
H2078 H 0.52802 0.68977 0.58455 0.0
H2079 H 0.52193 0.72614 0.65387 0.0
H2080 H 0.45456 0.82751 0.64853 0.0
H2081 H 0.48307 0.79562 0.64077 0.0
H2082 H 0.45596 0.73589 0.59318 0.0
C2083 C 0.53046 0.68061 0.60141 0.0
C2084 C 0.50756 0.72807 0.64054 0.0
C2085 C 0.54467 0.65994 0.60201 0.0
C2086 C 0.44741 0.81108 0.64109 0.0
C2087 C 0.46378 0.79265 0.63684 0.0
C2088 C 0.47014 0.73387 0.60666 0.0
C2089 C 0.5197 0.68937 0.62247 0.0
C2090 C 0.50449 0.7111 0.62237 0.0
C2091 C 0.4554 0.77072 0.62786 0.0
C2092 C 0.47274 0.75052 0.62532 0.0
H2093 H 0.53898 0.64696 0.66139 0.0
H2094 H 0.51481 0.6831 0.66045 0.0
H2095 H 0.48311 0.70149 0.591 0.0
H2096 H 0.39441 0.78394 0.62264 0.0
H2097 H 0.42293 0.75127 0.61598 0.0
C2098 C 0.38635 0.57721 0.20856 0.0
C2099 C 0.36694 0.5784 0.19204 0.0
C2100 C 0.388 0.55828 0.22451 0.0
C2101 C 0.35085 0.50818 0.24982 0.0
H2102 H 0.41379 0.49372 0.27903 0.0
C2103 C 0.35596 0.45883 0.33867 0.0
C2104 C 0.37546 0.44326 0.34335 0.0
C2105 C 0.35585 0.47279 0.31814 0.0
C2106 C 0.39609 0.4972 0.27084 0.0
H2107 H 0.3344 0.56045 0.17859 0.0
H2108 H 0.33799 0.52648 0.20538 0.0
H2109 H 0.4121 0.52103 0.24565 0.0
H2110 H 0.41037 0.43029 0.3302 0.0
H2111 H 0.41015 0.45473 0.29401 0.0
H2112 H 0.33512 0.48315 0.27413 0.0
C2113 C 0.3514 0.54068 0.20697 0.0
C2114 C 0.395 0.51333 0.2519 0.0
C2115 C 0.34933 0.56011 0.19148 0.0
C2116 C 0.39514 0.44224 0.32715 0.0
C2117 C 0.39501 0.45627 0.30644 0.0
C2118 C 0.35204 0.49157 0.26831 0.0
C2119 C 0.3707 0.53956 0.2239 0.0
C2120 C 0.37225 0.51977 0.24167 0.0
C2121 C 0.37515 0.47149 0.30155 0.0
C2122 C 0.37454 0.48654 0.27967 0.0
H2123 H 0.4001 0.5912 0.2095 0.0
H2124 H 0.40267 0.55878 0.23762 0.0
H2125 H 0.33289 0.51252 0.24274 0.0
H2126 H 0.34056 0.46022 0.35084 0.0
H2127 H 0.34063 0.48483 0.31547 0.0
C2128 C 0.28153 0.60304 0.08716 0.0
C2129 C 0.29156 0.62573 0.08276 0.0
C2130 C 0.26131 0.59477 0.07373 0.0
C2131 C 0.21091 0.61923 0.03683 0.0
H2132 H 0.20552 0.55665 0.00842 0.0
C2133 C 0.13731 0.60392 0.96726 0.0
C2134 C 0.14546 0.59296 0.94624 0.0
C2135 C 0.15069 0.60179 0.98844 0.0
C2136 C 0.20673 0.57418 0.01629 0.0
H2137 H 0.28893 0.65691 0.05992 0.0
H2138 H 0.25498 0.64233 0.03642 0.0
H2139 H 0.23901 0.56532 0.03664 0.0
H2140 H 0.17234 0.56887 0.93147 0.0
H2141 H 0.19633 0.56583 0.96815 0.0
H2142 H 0.18031 0.62905 0.01552 0.0
C2143 C 0.26183 0.63122 0.05077 0.0
C2144 C 0.22575 0.57904 0.03264 0.0
C2145 C 0.28154 0.63952 0.06422 0.0
C2146 C 0.16602 0.57807 0.9473 0.0
C2147 C 0.17971 0.57624 0.96844 0.0
C2148 C 0.19226 0.61454 0.02044 0.0
C2149 C 0.25096 0.60912 0.05576 0.0
C2150 C 0.2286 0.60197 0.04222 0.0
C2151 C 0.17288 0.5891 0.98895 0.0
C2152 C 0.19029 0.59219 0.00935 0.0
H2153 H 0.28893 0.59192 0.10123 0.0
H2154 H 0.25339 0.57756 0.07783 0.0
H2155 H 0.21215 0.63689 0.04446 0.0
H2156 H 0.12082 0.61446 0.96741 0.0
H2157 H 0.14412 0.61098 0.00417 0.0
C2158 C 0.1402 0.55091 0.81463 0.0
C2159 C 0.11794 0.55966 0.82366 0.0
C2160 C 0.14033 0.53512 0.79545 0.0
C2161 C 0.10048 0.50783 0.74818 0.0
H2162 H 0.14928 0.45802 0.75178 0.0
C2163 C 0.09272 0.41945 0.69623 0.0
C2164 C 0.11441 0.40917 0.6875 0.0
C2165 C 0.0937 0.44001 0.71014 0.0
C2166 C 0.13575 0.47197 0.75027 0.0
H2167 H 0.07827 0.55867 0.81963 0.0
H2168 H 0.07834 0.52998 0.78694 0.0
H2169 H 0.14975 0.48955 0.78124 0.0
H2170 H 0.15406 0.41311 0.68543 0.0
H2171 H 0.15577 0.44922 0.70964 0.0
H2172 H 0.08563 0.48919 0.71803 0.0
C2173 C 0.09582 0.53602 0.79409 0.0
C2174 C 0.13604 0.49019 0.76716 0.0
C2175 C 0.09573 0.5523 0.81301 0.0
C2176 C 0.13706 0.42039 0.69223 0.0
C2177 C 0.13804 0.44103 0.70612 0.0
C2178 C 0.09989 0.48928 0.73157 0.0
C2179 C 0.11815 0.52702 0.78525 0.0
C2180 C 0.11836 0.50833 0.76643 0.0
C2181 C 0.1164 0.45079 0.71561 0.0
C2182 C 0.11755 0.47117 0.73241 0.0
H2183 H 0.15768 0.55624 0.82237 0.0
H2184 H 0.15791 0.52919 0.78873 0.0
H2185 H 0.08689 0.52172 0.74672 0.0
H2186 H 0.07492 0.41136 0.69275 0.0
H2187 H 0.07671 0.44697 0.71728 0.0
C2188 C 0.18945 0.37226 0.58714 0.0
C2189 C 0.17168 0.35576 0.57931 0.0
C2190 C 0.2085 0.37935 0.57187 0.0
C2191 C 0.24096 0.35653 0.51863 0.0
H2192 H 0.27445 0.41752 0.52019 0.0
C2193 C 0.33164 0.36881 0.46937 0.0
C2194 C 0.33415 0.38943 0.45547 0.0
C2195 C 0.31297 0.36695 0.48632 0.0
C2196 C 0.26521 0.40043 0.51949 0.0
H2197 H 0.15823 0.33576 0.54876 0.0
H2198 H 0.19067 0.34883 0.5219 0.0
H2199 H 0.23767 0.41127 0.54447 0.0
H2200 H 0.31997 0.42486 0.44941 0.0
H2201 H 0.28731 0.42159 0.47904 0.0
H2202 H 0.26782 0.34582 0.49321 0.0
C2203 C 0.19079 0.3554 0.54011 0.0
C2204 C 0.24426 0.39678 0.53355 0.0
C2205 C 0.17204 0.34809 0.55542 0.0
C2206 C 0.31849 0.4087 0.45984 0.0
C2207 C 0.29978 0.40685 0.47686 0.0
C2208 C 0.26175 0.36018 0.5046 0.0
C2209 C 0.20988 0.37027 0.54844 0.0
C2210 C 0.23184 0.37477 0.53324 0.0
C2211 C 0.29627 0.38561 0.48966 0.0
C2212 C 0.27426 0.38208 0.50496 0.0
H2213 H 0.18959 0.37845 0.6055 0.0
H2214 H 0.22284 0.39085 0.57889 0.0
H2215 H 0.23223 0.33919 0.51818 0.0
H2216 H 0.34338 0.35364 0.4665 0.0
H2217 H 0.31119 0.35056 0.49633 0.0
C2218 C 0.39042 0.40358 0.27781 0.0
C2219 C 0.36535 0.40699 0.28302 0.0
C2220 C 0.40111 0.41466 0.25792 0.0
C2221 C 0.38643 0.44012 0.19988 0.0
H2222 H 0.43155 0.49197 0.21395 0.0
C2223 C 0.3791 0.52681 0.15163 0.0
C2224 C 0.39983 0.54058 0.14583 0.0
C2225 C 0.38148 0.50618 0.165 0.0
C2226 C 0.41954 0.47719 0.20948 0.0
H2227 H 0.33172 0.42394 0.27105 0.0
H2228 H 0.35021 0.44263 0.23625 0.0
H2229 H 0.42405 0.46115 0.24406 0.0
H2230 H 0.43947 0.54354 0.14947 0.0
H2231 H 0.44366 0.50705 0.17331 0.0
H2232 H 0.38102 0.4564 0.16581 0.0
C2233 C 0.36158 0.43153 0.24757 0.0
C2234 C 0.41525 0.45961 0.22671 0.0
C2235 C 0.35105 0.42095 0.26757 0.0
C2236 C 0.42316 0.53322 0.15372 0.0
C2237 C 0.42556 0.51242 0.16732 0.0
C2238 C 0.39096 0.45739 0.18262 0.0
C2239 C 0.38669 0.42869 0.2427 0.0
C2240 C 0.39745 0.4419 0.22251 0.0
C2241 C 0.40469 0.4986 0.17287 0.0
C2242 C 0.4062 0.47699 0.1879 0.0
H2243 H 0.40192 0.39306 0.28952 0.0
H2244 H 0.42057 0.41246 0.25453 0.0
H2245 H 0.37291 0.42635 0.1962 0.0
H2246 H 0.36085 0.5319 0.14581 0.0
H2247 H 0.36492 0.49639 0.16958 0.0
C2248 C 0.33603 0.62217 0.03923 0.0
C2249 C 0.34366 0.5999 0.04748 0.0
C2250 C 0.31796 0.62394 0.02169 0.0
C2251 C 0.26947 0.58793 0.99015 0.0
H2252 H 0.26652 0.64483 0.95119 0.0
C2253 C 0.20701 0.60177 0.90667 0.0
C2254 C 0.19312 0.62274 0.90683 0.0
C2255 C 0.22459 0.59764 0.9244 0.0
C2256 C 0.26708 0.62893 0.9621 0.0
H2257 H 0.33895 0.5619 0.04351 0.0
H2258 H 0.30829 0.56476 0.01181 0.0
H2259 H 0.3005 0.63965 0.97882 0.0
H2260 H 0.186 0.65539 0.92614 0.0
H2261 H 0.21726 0.64834 0.95692 0.0
H2262 H 0.23704 0.57657 0.9715 0.0
C2263 C 0.3154 0.58105 0.01952 0.0
C2264 C 0.28645 0.62597 0.97819 0.0
C2265 C 0.33316 0.57931 0.03759 0.0
C2266 C 0.1966 0.63918 0.92545 0.0
C2267 C 0.21444 0.63519 0.943 0.0
C2268 C 0.25058 0.59058 0.97341 0.0
C2269 C 0.30733 0.60345 0.01146 0.0
C2270 C 0.28765 0.60568 0.99294 0.0
C2271 C 0.22876 0.61455 0.94239 0.0
C2272 C 0.24894 0.61133 0.9597 0.0
H2273 H 0.34355 0.63839 0.04681 0.0
H2274 H 0.3119 0.64155 0.01683 0.0
H2275 H 0.26938 0.57213 0.00114 0.0
H2276 H 0.20441 0.58857 0.89278 0.0
H2277 H 0.23543 0.58158 0.92367 0.0
C2278 C 0.08581 0.47309 0.65505 0.0
C2279 C 0.10283 0.45844 0.64345 0.0
C2280 C 0.09375 0.49332 0.66728 0.0
C2281 C 0.14767 0.51445 0.69984 0.0
H2282 H 0.11107 0.57319 0.70413 0.0
C2283 C 0.17732 0.58616 0.76595 0.0
C2284 C 0.15851 0.59602 0.77986 0.0
C2285 C 0.17169 0.57322 0.74541 0.0
C2286 C 0.1214 0.55685 0.70319 0.0
H2287 H 0.14141 0.45382 0.63486 0.0
H2288 H 0.15534 0.48899 0.65667 0.0
H2289 H 0.09924 0.54336 0.67441 0.0
H2290 H 0.11912 0.60122 0.78253 0.0
H2291 H 0.10914 0.57788 0.74697 0.0
H2292 H 0.16902 0.52716 0.72927 0.0
C2293 C 0.13584 0.48485 0.6562 0.0
C2294 C 0.11469 0.53983 0.68614 0.0
C2295 C 0.12786 0.46481 0.64364 0.0
C2296 C 0.13401 0.59391 0.77205 0.0
C2297 C 0.12831 0.5806 0.75164 0.0
C2298 C 0.15423 0.53132 0.71696 0.0
C2299 C 0.11891 0.49903 0.66855 0.0
C2300 C 0.12757 0.51833 0.68453 0.0
C2301 C 0.14708 0.56954 0.73851 0.0
C2302 C 0.14104 0.55261 0.71901 0.0
H2303 H 0.06637 0.46868 0.65508 0.0
H2304 H 0.08026 0.50384 0.67668 0.0
H2305 H 0.15758 0.49783 0.69945 0.0
H2306 H 0.19643 0.58782 0.77134 0.0
H2307 H 0.18661 0.56546 0.73533 0.0
C2308 C 0.14065 0.38607 0.50619 0.0
C2309 C 0.14403 0.39851 0.52773 0.0
C2310 C 0.15914 0.38583 0.489 0.0
C2311 C 0.21825 0.41358 0.47064 0.0
H2312 H 0.23002 0.35068 0.44498 0.0
C2313 C 0.29128 0.39602 0.39809 0.0
C2314 C 0.30427 0.37458 0.39933 0.0
C2315 C 0.27151 0.40017 0.41335 0.0
C2316 C 0.22716 0.36833 0.4521 0.0
H2317 H 0.16856 0.42205 0.54738 0.0
H2318 H 0.20078 0.4219 0.51716 0.0
H2319 H 0.19566 0.3569 0.47173 0.0
H2320 H 0.30737 0.34102 0.41811 0.0
H2321 H 0.27334 0.34849 0.44518 0.0
H2322 H 0.25038 0.42476 0.45165 0.0
C2323 C 0.18397 0.41208 0.51367 0.0
C2324 C 0.20716 0.372 0.46713 0.0
C2325 C 0.16554 0.41212 0.53102 0.0
C2326 C 0.29748 0.35758 0.41649 0.0
C2327 C 0.27784 0.3618 0.43189 0.0
C2328 C 0.23836 0.40988 0.45562 0.0
C2329 C 0.18139 0.39809 0.49296 0.0
C2330 C 0.2024 0.39467 0.4765 0.0
C2331 C 0.26446 0.38305 0.43035 0.0
C2332 C 0.24309 0.38718 0.44624 0.0
H2333 H 0.12414 0.37565 0.50297 0.0
H2334 H 0.15628 0.37547 0.47289 0.0
H2335 H 0.21506 0.43126 0.47754 0.0
H2336 H 0.29631 0.40964 0.38531 0.0
H2337 H 0.26151 0.41664 0.41154 0.0
C2338 C 0.44723 0.33171 0.36743 0.0
C2339 C 0.43249 0.32453 0.38679 0.0
C2340 C 0.4655 0.31662 0.35857 0.0
C2341 C 0.50366 0.26688 0.37987 0.0
H2342 H 0.5268 0.26494 0.31432 0.0
C2343 C 0.5983 0.23107 0.35962 0.0
C2344 C 0.59975 0.21329 0.34207 0.0
C2345 C 0.5773 0.24495 0.36159 0.0
C2346 C 0.52038 0.26522 0.33264 0.0
H2347 H 0.42385 0.29516 0.41054 0.0
H2348 H 0.45532 0.26916 0.39521 0.0
H2349 H 0.48934 0.28701 0.32402 0.0
H2350 H 0.58132 0.19763 0.31137 0.0
H2351 H 0.54475 0.22281 0.31426 0.0
H2352 H 0.53437 0.24508 0.38857 0.0
C2353 C 0.45337 0.28651 0.38716 0.0
C2354 C 0.49908 0.27798 0.33825 0.0
C2355 C 0.43526 0.30149 0.39598 0.0
C2356 C 0.58056 0.21102 0.32526 0.0
C2357 C 0.55967 0.2254 0.32691 0.0
C2358 C 0.52478 0.25424 0.3743 0.0
C2359 C 0.46924 0.29408 0.36884 0.0
C2360 C 0.49068 0.27923 0.36204 0.0
C2361 C 0.55736 0.24163 0.34586 0.0
C2362 C 0.53375 0.25373 0.35078 0.0
H2363 H 0.44542 0.34932 0.35987 0.0
H2364 H 0.47742 0.32309 0.34448 0.0
H2365 H 0.49802 0.26757 0.39842 0.0
H2366 H 0.61284 0.23348 0.37272 0.0
H2367 H 0.57632 0.2578 0.37598 0.0
loop_
_geom_bond_atom_site_label_1
_geom_bond_atom_site_label_2
_geom_bond_distance
_geom_bond_site_symmetry_2
_ccdc_geom_bond_type
Mg0 O1 2.028 . S
Mg0 O7 1.986 . S
Mg0 O9 2.114 . S
Mg0 O10 2.251 . S
Mg0 O13 2.010 . S
O1 Mg0 2.028 . S
O1 C4 1.250 . S
O2 Mg3 2.028 . S
O2 C4 1.248 . S
Mg3 O2 2.028 . S
Mg3 O8 2.032 . S
Mg3 O10 2.079 . S
C4 O1 1.250 . S
C4 O2 1.248 . S
C5 O6 1.264 . S
C5 O13 1.249 . S
O6 C5 1.264 . S
O7 Mg0 1.986 . S
O7 C11 1.246 . S
O8 Mg3 2.032 . S
O8 C11 1.259 . S
O9 Mg0 2.114 . S
O9 C12 1.252 . S
O10 Mg0 2.251 . S
O10 Mg3 2.079 . S
O10 C12 1.273 . S
C11 O7 1.246 . S
C11 O8 1.259 . S
C12 O9 1.252 . S
C12 O10 1.273 . S
O13 Mg0 2.010 . S
O13 C5 1.249 . S
Mg14 O15 2.028 . S
Mg14 O21 1.986 . S
Mg14 O23 2.114 . S
Mg14 O24 2.251 . S
Mg14 O27 2.010 . S
O15 Mg14 2.028 . S
O15 C18 1.250 . S
O16 Mg17 2.028 . S
O16 C18 1.248 . S
Mg17 O16 2.028 . S
Mg17 O22 2.032 . S
Mg17 O24 2.079 . S
C18 O15 1.250 . S
C18 O16 1.248 . S
C19 O20 1.264 . S
C19 O27 1.249 . S
O20 C19 1.264 . S
O21 Mg14 1.986 . S
O21 C25 1.246 . S
O22 Mg17 2.032 . S
O22 C25 1.259 . S
O23 Mg14 2.114 . S
O23 C26 1.252 . S
O24 Mg14 2.251 . S
O24 Mg17 2.079 . S
O24 C26 1.273 . S
C25 O21 1.246 . S
C25 O22 1.259 . S
C26 O23 1.252 . S
C26 O24 1.273 . S
O27 Mg14 2.010 . S
O27 C19 1.249 . S
Mg28 O29 2.028 . S
Mg28 O35 1.986 . S
Mg28 O37 2.114 . S
Mg28 O38 2.251 . S
Mg28 O41 2.010 . S
O29 Mg28 2.028 . S
O29 C32 1.250 . S
O30 Mg31 2.028 . S
O30 C32 1.248 . S
Mg31 O30 2.028 . S
Mg31 O36 2.032 . S
Mg31 O38 2.079 . S
C32 O29 1.250 . S
C32 O30 1.248 . S
C33 O34 1.264 . S
C33 O41 1.249 . S
O34 C33 1.264 . S
O35 Mg28 1.986 . S
O35 C39 1.246 . S
O36 Mg31 2.032 . S
O36 C39 1.259 . S
O37 Mg28 2.114 . S
O37 C40 1.252 . S
O38 Mg28 2.251 . S
O38 Mg31 2.079 . S
O38 C40 1.273 . S
C39 O35 1.246 . S
C39 O36 1.259 . S
C40 O37 1.252 . S
C40 O38 1.273 . S
O41 Mg28 2.010 . S
O41 C33 1.249 . S
Mg42 O43 2.028 . S
Mg42 O49 1.986 . S
Mg42 O51 2.114 . S
Mg42 O52 2.251 . S
Mg42 O55 2.010 . S
O43 Mg42 2.028 . S
O43 C46 1.250 . S
O44 Mg45 2.028 . S
O44 C46 1.248 . S
Mg45 O44 2.028 . S
Mg45 O50 2.032 . S
Mg45 O52 2.079 . S
C46 O43 1.250 . S
C46 O44 1.248 . S
C47 O48 1.264 . S
C47 O55 1.249 . S
O48 C47 1.264 . S
O49 Mg42 1.986 . S
O49 C53 1.246 . S
O50 Mg45 2.032 . S
O50 C53 1.259 . S
O51 Mg42 2.114 . S
O51 C54 1.252 . S
O52 Mg42 2.251 . S
O52 Mg45 2.079 . S
O52 C54 1.273 . S
C53 O49 1.246 . S
C53 O50 1.259 . S
C54 O51 1.252 . S
C54 O52 1.273 . S
O55 Mg42 2.010 . S
O55 C47 1.249 . S
Mg56 O57 2.028 . S
Mg56 O63 1.986 . S
Mg56 O65 2.114 . S
Mg56 O66 2.251 . S
Mg56 O69 2.010 . S
O57 Mg56 2.028 . S
O57 C60 1.250 . S
O58 Mg59 2.028 . S
O58 C60 1.248 . S
Mg59 O58 2.028 . S
Mg59 O64 2.032 . S
Mg59 O66 2.079 . S
C60 O57 1.250 . S
C60 O58 1.248 . S
C61 O62 1.264 . S
C61 O69 1.249 . S
O62 C61 1.264 . S
O63 Mg56 1.986 . S
O63 C67 1.246 . S
O64 Mg59 2.032 . S
O64 C67 1.259 . S
O65 Mg56 2.114 . S
O65 C68 1.252 . S
O66 Mg56 2.251 . S
O66 Mg59 2.079 . S
O66 C68 1.273 . S
C67 O63 1.246 . S
C67 O64 1.259 . S
C68 O65 1.252 . S
C68 O66 1.273 . S
O69 Mg56 2.010 . S
O69 C61 1.249 . S
Mg70 O71 2.028 . S
Mg70 O77 1.986 . S
Mg70 O79 2.114 . S
Mg70 O80 2.251 . S
Mg70 O83 2.010 . S
O71 Mg70 2.028 . S
O71 C74 1.250 . S
O72 Mg73 2.028 . S
O72 C74 1.248 . S
Mg73 O72 2.028 . S
Mg73 O78 2.032 . S
Mg73 O80 2.079 . S
C74 O71 1.250 . S
C74 O72 1.248 . S
C75 O76 1.264 . S
C75 O83 1.249 . S
O76 C75 1.264 . S
O77 Mg70 1.986 . S
O77 C81 1.246 . S
O78 Mg73 2.032 . S
O78 C81 1.259 . S
O79 Mg70 2.114 . S
O79 C82 1.252 . S
O80 Mg70 2.251 . S
O80 Mg73 2.079 . S
O80 C82 1.273 . S
C81 O77 1.246 . S
C81 O78 1.259 . S
C82 O79 1.252 . S
C82 O80 1.273 . S
O83 Mg70 2.010 . S
O83 C75 1.249 . S
Mg84 O85 2.028 . S
Mg84 O91 1.986 . S
Mg84 O93 2.114 . S
Mg84 O94 2.251 . S
Mg84 O97 2.010 . S
O85 Mg84 2.028 . S
O85 C88 1.250 . S
O86 Mg87 2.028 . S
O86 C88 1.248 . S
Mg87 O86 2.028 . S
Mg87 O92 2.032 . S
Mg87 O94 2.079 . S
C88 O85 1.250 . S
C88 O86 1.248 . S
C89 O90 1.264 . S
C89 O97 1.249 . S
O90 C89 1.264 . S
O91 Mg84 1.986 . S
O91 C95 1.246 . S
O92 Mg87 2.032 . S
O92 C95 1.259 . S
O93 Mg84 2.114 . S
O93 C96 1.252 . S
O94 Mg84 2.251 . S
O94 Mg87 2.079 . S
O94 C96 1.273 . S
C95 O91 1.246 . S
C95 O92 1.259 . S
C96 O93 1.252 . S
C96 O94 1.273 . S
O97 Mg84 2.010 . S
O97 C89 1.249 . S
Mg98 O99 2.028 . S
Mg98 O105 1.986 . S
Mg98 O107 2.114 . S
Mg98 O108 2.251 . S
Mg98 O111 2.010 . S
O99 Mg98 2.028 . S
O99 C102 1.250 . S
O100 Mg101 2.028 . S
O100 C102 1.248 . S
Mg101 O100 2.028 . S
Mg101 O106 2.032 . S
Mg101 O108 2.079 . S
C102 O99 1.250 . S
C102 O100 1.248 . S
C103 O104 1.264 . S
C103 O111 1.249 . S
O104 C103 1.264 . S
O105 Mg98 1.986 . S
O105 C109 1.246 . S
O106 Mg101 2.032 . S
O106 C109 1.259 . S
O107 Mg98 2.114 . S
O107 C110 1.252 . S
O108 Mg98 2.251 . S
O108 Mg101 2.079 . S
O108 C110 1.273 . S
C109 O105 1.246 . S
C109 O106 1.259 . S
C110 O107 1.252 . S
C110 O108 1.273 . S
O111 Mg98 2.010 . S
O111 C103 1.249 . S
Mg112 O113 2.028 . S
Mg112 O119 1.986 . S
Mg112 O121 2.114 . S
Mg112 O122 2.251 . S
Mg112 O125 2.010 . S
O113 Mg112 2.028 . S
O113 C116 1.250 . S
O114 Mg115 2.028 . S
O114 C116 1.248 . S
Mg115 O114 2.028 . S
Mg115 O120 2.032 . S
Mg115 O122 2.079 . S
C116 O113 1.250 . S
C116 O114 1.248 . S
C117 O118 1.264 . S
C117 O125 1.249 . S
O118 C117 1.264 . S
O119 Mg112 1.986 . S
O119 C123 1.246 . S
O120 Mg115 2.032 . S
O120 C123 1.259 . S
O121 Mg112 2.114 . S
O121 C124 1.252 . S
O122 Mg112 2.251 . S
O122 Mg115 2.079 . S
O122 C124 1.273 . S
C123 O119 1.246 . S
C123 O120 1.259 . S
C124 O121 1.252 . S
C124 O122 1.273 . S
O125 Mg112 2.010 . S
O125 C117 1.249 . S
Mg126 O127 2.028 . S
Mg126 O133 1.986 . S
Mg126 O135 2.114 . S
Mg126 O136 2.251 . S
Mg126 O139 2.010 . S
O127 Mg126 2.028 . S
O127 C130 1.250 . S
O128 Mg129 2.028 . S
O128 C130 1.248 . S
Mg129 O128 2.028 . S
Mg129 O134 2.032 . S
Mg129 O136 2.079 . S
C130 O127 1.250 . S
C130 O128 1.248 . S
C131 O132 1.264 . S
C131 O139 1.249 . S
O132 C131 1.264 . S
O133 Mg126 1.986 . S
O133 C137 1.246 . S
O134 Mg129 2.032 . S
O134 C137 1.259 . S
O135 Mg126 2.114 . S
O135 C138 1.252 . S
O136 Mg126 2.251 . S
O136 Mg129 2.079 . S
O136 C138 1.273 . S
C137 O133 1.246 . S
C137 O134 1.259 . S
C138 O135 1.252 . S
C138 O136 1.273 . S
O139 Mg126 2.010 . S
O139 C131 1.249 . S
Mg140 O141 2.028 . S
Mg140 O147 1.986 . S
Mg140 O149 2.114 . S
Mg140 O150 2.251 . S
Mg140 O153 2.010 . S
O141 Mg140 2.028 . S
O141 C144 1.250 . S
O142 Mg143 2.028 . S
O142 C144 1.248 . S
Mg143 O142 2.028 . S
Mg143 O148 2.032 . S
Mg143 O150 2.079 . S
C144 O141 1.250 . S
C144 O142 1.248 . S
C145 O146 1.264 . S
C145 O153 1.249 . S
O146 C145 1.264 . S
O147 Mg140 1.986 . S
O147 C151 1.246 . S
O148 Mg143 2.032 . S
O148 C151 1.259 . S
O149 Mg140 2.114 . S
O149 C152 1.252 . S
O150 Mg140 2.251 . S
O150 Mg143 2.079 . S
O150 C152 1.273 . S
C151 O147 1.246 . S
C151 O148 1.259 . S
C152 O149 1.252 . S
C152 O150 1.273 . S
O153 Mg140 2.010 . S
O153 C145 1.249 . S
Mg154 O155 2.028 . S
Mg154 O161 1.986 . S
Mg154 O163 2.114 . S
Mg154 O164 2.251 . S
Mg154 O167 2.010 . S
O155 Mg154 2.028 . S
O155 C158 1.250 . S
O156 Mg157 2.028 . S
O156 C158 1.248 . S
Mg157 O156 2.028 . S
Mg157 O162 2.032 . S
Mg157 O164 2.079 . S
C158 O155 1.250 . S
C158 O156 1.248 . S
C159 O160 1.264 . S
C159 O167 1.249 . S
O160 C159 1.264 . S
O161 Mg154 1.986 . S
O161 C165 1.246 . S
O162 Mg157 2.032 . S
O162 C165 1.259 . S
O163 Mg154 2.114 . S
O163 C166 1.252 . S
O164 Mg154 2.251 . S
O164 Mg157 2.079 . S
O164 C166 1.273 . S
C165 O161 1.246 . S
C165 O162 1.259 . S
C166 O163 1.252 . S
C166 O164 1.273 . S
O167 Mg154 2.010 . S
O167 C159 1.249 . S
Mg168 O169 2.028 . S
Mg168 O175 1.986 . S
Mg168 O177 2.114 . S
Mg168 O178 2.251 . S
Mg168 O181 2.010 . S
O169 Mg168 2.028 . S
O169 C172 1.250 . S
O170 Mg171 2.028 . S
O170 C172 1.248 . S
Mg171 O170 2.028 . S
Mg171 O176 2.032 . S
Mg171 O178 2.079 . S
C172 O169 1.250 . S
C172 O170 1.248 . S
C173 O174 1.264 . S
C173 O181 1.249 . S
O174 C173 1.264 . S
O175 Mg168 1.986 . S
O175 C179 1.246 . S
O176 Mg171 2.032 . S
O176 C179 1.259 . S
O177 Mg168 2.114 . S
O177 C180 1.252 . S
O178 Mg168 2.251 . S
O178 Mg171 2.079 . S
O178 C180 1.273 . S
C179 O175 1.246 . S
C179 O176 1.259 . S
C180 O177 1.252 . S
C180 O178 1.273 . S
O181 Mg168 2.010 . S
O181 C173 1.249 . S
Mg182 O183 2.028 . S
Mg182 O189 1.986 . S
Mg182 O191 2.114 . S
Mg182 O192 2.251 . S
Mg182 O195 2.010 . S
O183 Mg182 2.028 . S
O183 C186 1.250 . S
O184 Mg185 2.028 . S
O184 C186 1.248 . S
Mg185 O184 2.028 . S
Mg185 O190 2.032 . S
Mg185 O192 2.079 . S
C186 O183 1.250 . S
C186 O184 1.248 . S
C187 O188 1.264 . S
C187 O195 1.249 . S
O188 C187 1.264 . S
O189 Mg182 1.986 . S
O189 C193 1.246 . S
O190 Mg185 2.032 . S
O190 C193 1.259 . S
O191 Mg182 2.114 . S
O191 C194 1.252 . S
O192 Mg182 2.251 . S
O192 Mg185 2.079 . S
O192 C194 1.273 . S
C193 O189 1.246 . S
C193 O190 1.259 . S
C194 O191 1.252 . S
C194 O192 1.273 . S
O195 Mg182 2.010 . S
O195 C187 1.249 . S
Mg196 O197 2.028 . S
Mg196 O203 1.986 . S
Mg196 O205 2.114 . S
Mg196 O206 2.251 . S
Mg196 O209 2.010 . S
O197 Mg196 2.028 . S
O197 C200 1.250 . S
O198 Mg199 2.028 . S
O198 C200 1.248 . S
Mg199 O198 2.028 . S
Mg199 O204 2.032 . S
Mg199 O206 2.079 . S
C200 O197 1.250 . S
C200 O198 1.248 . S
C201 O202 1.264 . S
C201 O209 1.249 . S
O202 C201 1.264 . S
O203 Mg196 1.986 . S
O203 C207 1.246 . S
O204 Mg199 2.032 . S
O204 C207 1.259 . S
O205 Mg196 2.114 . S
O205 C208 1.252 . S
O206 Mg196 2.251 . S
O206 Mg199 2.079 . S
O206 C208 1.273 . S
C207 O203 1.246 . S
C207 O204 1.259 . S
C208 O205 1.252 . S
C208 O206 1.273 . S
O209 Mg196 2.010 . S
O209 C201 1.249 . S
Mg210 O211 2.028 . S
Mg210 O217 1.986 . S
Mg210 O219 2.114 . S
Mg210 O220 2.251 . S
Mg210 O223 2.010 . S
O211 Mg210 2.028 . S
O211 C214 1.250 . S
O212 Mg213 2.028 . S
O212 C214 1.248 . S
Mg213 O212 2.028 . S
Mg213 O218 2.032 . S
Mg213 O220 2.079 . S
C214 O211 1.250 . S
C214 O212 1.248 . S
C215 O216 1.264 . S
C215 O223 1.249 . S
O216 C215 1.264 . S
O217 Mg210 1.986 . S
O217 C221 1.246 . S
O218 Mg213 2.032 . S
O218 C221 1.259 . S
O219 Mg210 2.114 . S
O219 C222 1.252 . S
O220 Mg210 2.251 . S
O220 Mg213 2.079 . S
O220 C222 1.273 . S
C221 O217 1.246 . S
C221 O218 1.259 . S
C222 O219 1.252 . S
C222 O220 1.273 . S
O223 Mg210 2.010 . S
O223 C215 1.249 . S
Mg224 O225 2.028 . S
Mg224 O231 1.986 . S
Mg224 O233 2.114 . S
Mg224 O234 2.251 . S
Mg224 O237 2.010 . S
O225 Mg224 2.028 . S
O225 C228 1.250 . S
O226 Mg227 2.028 . S
O226 C228 1.248 . S
Mg227 O226 2.028 . S
Mg227 O232 2.032 . S
Mg227 O234 2.079 . S
C228 O225 1.250 . S
C228 O226 1.248 . S
C229 O230 1.264 . S
C229 O237 1.249 . S
O230 C229 1.264 . S
O231 Mg224 1.986 . S
O231 C235 1.246 . S
O232 Mg227 2.032 . S
O232 C235 1.259 . S
O233 Mg224 2.114 . S
O233 C236 1.252 . S
O234 Mg224 2.251 . S
O234 Mg227 2.079 . S
O234 C236 1.273 . S
C235 O231 1.246 . S
C235 O232 1.259 . S
C236 O233 1.252 . S
C236 O234 1.273 . S
O237 Mg224 2.010 . S
O237 C229 1.249 . S
Mg238 O239 2.028 . S
Mg238 O245 1.986 . S
Mg238 O247 2.114 . S
Mg238 O248 2.251 . S
Mg238 O251 2.010 . S
O239 Mg238 2.028 . S
O239 C242 1.250 . S
O240 Mg241 2.028 . S
O240 C242 1.248 . S
Mg241 O240 2.028 . S
Mg241 O246 2.032 . S
Mg241 O248 2.079 . S
C242 O239 1.250 . S
C242 O240 1.248 . S
C243 O244 1.264 . S
C243 O251 1.249 . S
O244 C243 1.264 . S
O245 Mg238 1.986 . S
O245 C249 1.246 . S
O246 Mg241 2.032 . S
O246 C249 1.259 . S
O247 Mg238 2.114 . S
O247 C250 1.252 . S
O248 Mg238 2.251 . S
O248 Mg241 2.079 . S
O248 C250 1.273 . S
C249 O245 1.246 . S
C249 O246 1.259 . S
C250 O247 1.252 . S
C250 O248 1.273 . S
O251 Mg238 2.010 . S
O251 C243 1.249 . S
Mg252 O253 2.028 . S
Mg252 O259 1.986 . S
Mg252 O261 2.114 . S
Mg252 O262 2.251 . S
Mg252 O265 2.010 . S
O253 Mg252 2.028 . S
O253 C256 1.250 . S
O254 Mg255 2.028 . S
O254 C256 1.248 . S
Mg255 O254 2.028 . S
Mg255 O260 2.032 . S
Mg255 O262 2.079 . S
C256 O253 1.250 . S
C256 O254 1.248 . S
C257 O258 1.264 . S
C257 O265 1.249 . S
O258 C257 1.264 . S
O259 Mg252 1.986 . S
O259 C263 1.246 . S
O260 Mg255 2.032 . S
O260 C263 1.259 . S
O261 Mg252 2.114 . S
O261 C264 1.252 . S
O262 Mg252 2.251 . S
O262 Mg255 2.079 . S
O262 C264 1.273 . S
C263 O259 1.246 . S
C263 O260 1.259 . S
C264 O261 1.252 . S
C264 O262 1.273 . S
O265 Mg252 2.010 . S
O265 C257 1.249 . S
Mg266 O267 2.028 . S
Mg266 O273 1.986 . S
Mg266 O275 2.114 . S
Mg266 O276 2.251 . S
Mg266 O279 2.010 . S
O267 Mg266 2.028 . S
O267 C270 1.250 . S
O268 Mg269 2.028 . S
O268 C270 1.248 . S
Mg269 O268 2.028 . S
Mg269 O274 2.032 . S
Mg269 O276 2.079 . S
C270 O267 1.250 . S
C270 O268 1.248 . S
C271 O272 1.264 . S
C271 O279 1.249 . S
O272 C271 1.264 . S
O273 Mg266 1.986 . S
O273 C277 1.246 . S
O274 Mg269 2.032 . S
O274 C277 1.259 . S
O275 Mg266 2.114 . S
O275 C278 1.252 . S
O276 Mg266 2.251 . S
O276 Mg269 2.079 . S
O276 C278 1.273 . S
C277 O273 1.246 . S
C277 O274 1.259 . S
C278 O275 1.252 . S
C278 O276 1.273 . S
O279 Mg266 2.010 . S
O279 C271 1.249 . S
Mg280 O281 2.028 . S
Mg280 O287 1.986 . S
Mg280 O289 2.114 . S
Mg280 O290 2.251 . S
Mg280 O293 2.010 . S
O281 Mg280 2.028 . S
O281 C284 1.250 . S
O282 Mg283 2.028 . S
O282 C284 1.248 . S
Mg283 O282 2.028 . S
Mg283 O288 2.032 . S
Mg283 O290 2.079 . S
C284 O281 1.250 . S
C284 O282 1.248 . S
C285 O286 1.264 . S
C285 O293 1.249 . S
O286 C285 1.264 . S
O287 Mg280 1.986 . S
O287 C291 1.246 . S
O288 Mg283 2.032 . S
O288 C291 1.259 . S
O289 Mg280 2.114 . S
O289 C292 1.252 . S
O290 Mg280 2.251 . S
O290 Mg283 2.079 . S
O290 C292 1.273 . S
C291 O287 1.246 . S
C291 O288 1.259 . S
C292 O289 1.252 . S
C292 O290 1.273 . S
O293 Mg280 2.010 . S
O293 C285 1.249 . S
Mg294 O295 2.028 . S
Mg294 O301 1.986 . S
Mg294 O303 2.114 . S
Mg294 O304 2.251 . S
Mg294 O307 2.010 . S
O295 Mg294 2.028 . S
O295 C298 1.250 . S
O296 Mg297 2.028 . S
O296 C298 1.248 . S
Mg297 O296 2.028 . S
Mg297 O302 2.032 . S
Mg297 O304 2.079 . S
C298 O295 1.250 . S
C298 O296 1.248 . S
C299 O300 1.264 . S
C299 O307 1.249 . S
O300 C299 1.264 . S
O301 Mg294 1.986 . S
O301 C305 1.246 . S
O302 Mg297 2.032 . S
O302 C305 1.259 . S
O303 Mg294 2.114 . S
O303 C306 1.252 . S
O304 Mg294 2.251 . S
O304 Mg297 2.079 . S
O304 C306 1.273 . S
C305 O301 1.246 . S
C305 O302 1.259 . S
C306 O303 1.252 . S
C306 O304 1.273 . S
O307 Mg294 2.010 . S
O307 C299 1.249 . S
Mg308 O309 2.028 . S
Mg308 O315 1.986 . S
Mg308 O317 2.114 . S
Mg308 O318 2.251 . S
Mg308 O321 2.010 . S
O309 Mg308 2.028 . S
O309 C312 1.250 . S
O310 Mg311 2.028 . S
O310 C312 1.248 . S
Mg311 O310 2.028 . S
Mg311 O316 2.032 . S
Mg311 O318 2.079 . S
C312 O309 1.250 . S
C312 O310 1.248 . S
C313 O314 1.264 . S
C313 O321 1.249 . S
O314 C313 1.264 . S
O315 Mg308 1.986 . S
O315 C319 1.246 . S
O316 Mg311 2.032 . S
O316 C319 1.259 . S
O317 Mg308 2.114 . S
O317 C320 1.252 . S
O318 Mg308 2.251 . S
O318 Mg311 2.079 . S
O318 C320 1.273 . S
C319 O315 1.246 . S
C319 O316 1.259 . S
C320 O317 1.252 . S
C320 O318 1.273 . S
O321 Mg308 2.010 . S
O321 C313 1.249 . S
Mg322 O323 2.028 . S
Mg322 O329 1.986 . S
Mg322 O331 2.114 . S
Mg322 O332 2.251 . S
Mg322 O335 2.010 . S
O323 Mg322 2.028 . S
O323 C326 1.250 . S
O324 Mg325 2.028 . S
O324 C326 1.248 . S
Mg325 O324 2.028 . S
Mg325 O330 2.032 . S
Mg325 O332 2.079 . S
C326 O323 1.250 . S
C326 O324 1.248 . S
C327 O328 1.264 . S
C327 O335 1.249 . S
O328 C327 1.264 . S
O329 Mg322 1.986 . S
O329 C333 1.246 . S
O330 Mg325 2.032 . S
O330 C333 1.259 . S
O331 Mg322 2.114 . S
O331 C334 1.252 . S
O332 Mg322 2.251 . S
O332 Mg325 2.079 . S
O332 C334 1.273 . S
C333 O329 1.246 . S
C333 O330 1.259 . S
C334 O331 1.252 . S
C334 O332 1.273 . S
O335 Mg322 2.010 . S
O335 C327 1.249 . S
Mg336 O337 2.028 . S
Mg336 O343 1.986 . S
Mg336 O345 2.114 . S
Mg336 O346 2.251 . S
Mg336 O349 2.010 . S
O337 Mg336 2.028 . S
O337 C340 1.250 . S
O338 Mg339 2.028 . S
O338 C340 1.248 . S
Mg339 O338 2.028 . S
Mg339 O344 2.032 . S
Mg339 O346 2.079 . S
C340 O337 1.250 . S
C340 O338 1.248 . S
C341 O342 1.264 . S
C341 O349 1.249 . S
O342 C341 1.264 . S
O343 Mg336 1.986 . S
O343 C347 1.246 . S
O344 Mg339 2.032 . S
O344 C347 1.259 . S
O345 Mg336 2.114 . S
O345 C348 1.252 . S
O346 Mg336 2.251 . S
O346 Mg339 2.079 . S
O346 C348 1.273 . S
C347 O343 1.246 . S
C347 O344 1.259 . S
C348 O345 1.252 . S
C348 O346 1.273 . S
O349 Mg336 2.010 . S
O349 C341 1.249 . S
Mg350 O351 2.028 . S
Mg350 O357 1.986 . S
Mg350 O359 2.114 . S
Mg350 O360 2.251 . S
Mg350 O363 2.010 . S
O351 Mg350 2.028 . S
O351 C354 1.250 . S
O352 Mg353 2.028 . S
O352 C354 1.248 . S
Mg353 O352 2.028 . S
Mg353 O358 2.032 . S
Mg353 O360 2.079 . S
C354 O351 1.250 . S
C354 O352 1.248 . S
C355 O356 1.264 . S
C355 O363 1.249 . S
O356 C355 1.264 . S
O357 Mg350 1.986 . S
O357 C361 1.246 . S
O358 Mg353 2.032 . S
O358 C361 1.259 . S
O359 Mg350 2.114 . S
O359 C362 1.252 . S
O360 Mg350 2.251 . S
O360 Mg353 2.079 . S
O360 C362 1.273 . S
C361 O357 1.246 . S
C361 O358 1.259 . S
C362 O359 1.252 . S
C362 O360 1.273 . S
O363 Mg350 2.010 . S
O363 C355 1.249 . S
Mg364 O365 2.028 . S
Mg364 O371 1.986 . S
Mg364 O373 2.114 . S
Mg364 O374 2.251 . S
Mg364 O377 2.010 . S
O365 Mg364 2.028 . S
O365 C368 1.250 . S
O366 Mg367 2.028 . S
O366 C368 1.248 . S
Mg367 O366 2.028 . S
Mg367 O372 2.032 . S
Mg367 O374 2.079 . S
C368 O365 1.250 . S
C368 O366 1.248 . S
C369 O370 1.264 . S
C369 O377 1.249 . S
O370 C369 1.264 . S
O371 Mg364 1.986 . S
O371 C375 1.246 . S
O372 Mg367 2.032 . S
O372 C375 1.259 . S
O373 Mg364 2.114 . S
O373 C376 1.252 . S
O374 Mg364 2.251 . S
O374 Mg367 2.079 . S
O374 C376 1.273 . S
C375 O371 1.246 . S
C375 O372 1.259 . S
C376 O373 1.252 . S
C376 O374 1.273 . S
O377 Mg364 2.010 . S
O377 C369 1.249 . S
Mg378 O379 2.028 . S
Mg378 O385 1.986 . S
Mg378 O387 2.114 . S
Mg378 O388 2.251 . S
Mg378 O391 2.010 . S
O379 Mg378 2.028 . S
O379 C382 1.250 . S
O380 Mg381 2.028 . S
O380 C382 1.248 . S
Mg381 O380 2.028 . S
Mg381 O386 2.032 . S
Mg381 O388 2.079 . S
C382 O379 1.250 . S
C382 O380 1.248 . S
C383 O384 1.264 . S
C383 O391 1.249 . S
O384 C383 1.264 . S
O385 Mg378 1.986 . S
O385 C389 1.246 . S
O386 Mg381 2.032 . S
O386 C389 1.259 . S
O387 Mg378 2.114 . S
O387 C390 1.252 . S
O388 Mg378 2.251 . S
O388 Mg381 2.079 . S
O388 C390 1.273 . S
C389 O385 1.246 . S
C389 O386 1.259 . S
C390 O387 1.252 . S
C390 O388 1.273 . S
O391 Mg378 2.010 . S
O391 C383 1.249 . S
Mg392 O393 2.028 . S
Mg392 O399 1.986 . S
Mg392 O401 2.114 . S
Mg392 O402 2.251 . S
Mg392 O405 2.010 . S
O393 Mg392 2.028 . S
O393 C396 1.250 . S
O394 Mg395 2.028 . S
O394 C396 1.248 . S
Mg395 O394 2.028 . S
Mg395 O400 2.032 . S
Mg395 O402 2.079 . S
C396 O393 1.250 . S
C396 O394 1.248 . S
C397 O398 1.264 . S
C397 O405 1.249 . S
O398 C397 1.264 . S
O399 Mg392 1.986 . S
O399 C403 1.246 . S
O400 Mg395 2.032 . S
O400 C403 1.259 . S
O401 Mg392 2.114 . S
O401 C404 1.252 . S
O402 Mg392 2.251 . S
O402 Mg395 2.079 . S
O402 C404 1.273 . S
C403 O399 1.246 . S
C403 O400 1.259 . S
C404 O401 1.252 . S
C404 O402 1.273 . S
O405 Mg392 2.010 . S
O405 C397 1.249 . S
Mg406 O407 2.028 . S
Mg406 O413 1.986 . S
Mg406 O415 2.114 . S
Mg406 O416 2.251 . S
Mg406 O419 2.010 . S
O407 Mg406 2.028 . S
O407 C410 1.250 . S
O408 Mg409 2.028 . S
O408 C410 1.248 . S
Mg409 O408 2.028 . S
Mg409 O414 2.032 . S
Mg409 O416 2.079 . S
C410 O407 1.250 . S
C410 O408 1.248 . S
C411 O412 1.264 . S
C411 O419 1.249 . S
O412 C411 1.264 . S
O413 Mg406 1.986 . S
O413 C417 1.246 . S
O414 Mg409 2.032 . S
O414 C417 1.259 . S
O415 Mg406 2.114 . S
O415 C418 1.252 . S
O416 Mg406 2.251 . S
O416 Mg409 2.079 . S
O416 C418 1.273 . S
C417 O413 1.246 . S
C417 O414 1.259 . S
C418 O415 1.252 . S
C418 O416 1.273 . S
O419 Mg406 2.010 . S
O419 C411 1.249 . S
Mg420 O421 2.028 . S
Mg420 O427 1.986 . S
Mg420 O429 2.114 . S
Mg420 O430 2.251 . S
Mg420 O433 2.010 . S
O421 Mg420 2.028 . S
O421 C424 1.250 . S
O422 Mg423 2.028 . S
O422 C424 1.248 . S
Mg423 O422 2.028 . S
Mg423 O428 2.032 . S
Mg423 O430 2.079 . S
C424 O421 1.250 . S
C424 O422 1.248 . S
C425 O426 1.264 . S
C425 O433 1.249 . S
O426 C425 1.264 . S
O427 Mg420 1.986 . S
O427 C431 1.246 . S
O428 Mg423 2.032 . S
O428 C431 1.259 . S
O429 Mg420 2.114 . S
O429 C432 1.252 . S
O430 Mg420 2.251 . S
O430 Mg423 2.079 . S
O430 C432 1.273 . S
C431 O427 1.246 . S
C431 O428 1.259 . S
C432 O429 1.252 . S
C432 O430 1.273 . S
O433 Mg420 2.010 . S
O433 C425 1.249 . S
Mg434 O435 2.028 . S
Mg434 O441 1.986 . S
Mg434 O443 2.114 . S
Mg434 O444 2.251 . S
Mg434 O447 2.010 . S
O435 Mg434 2.028 . S
O435 C438 1.250 . S
O436 Mg437 2.028 . S
O436 C438 1.248 . S
Mg437 O436 2.028 . S
Mg437 O442 2.032 . S
Mg437 O444 2.079 . S
C438 O435 1.250 . S
C438 O436 1.248 . S
C439 O440 1.264 . S
C439 O447 1.249 . S
O440 C439 1.264 . S
O441 Mg434 1.986 . S
O441 C445 1.246 . S
O442 Mg437 2.032 . S
O442 C445 1.259 . S
O443 Mg434 2.114 . S
O443 C446 1.252 . S
O444 Mg434 2.251 . S
O444 Mg437 2.079 . S
O444 C446 1.273 . S
C445 O441 1.246 . S
C445 O442 1.259 . S
C446 O443 1.252 . S
C446 O444 1.273 . S
O447 Mg434 2.010 . S
O447 C439 1.249 . S
C448 C449 1.349 . S
C448 C450 1.327 . S
C448 H473 0.950 . S
C449 C448 1.349 . S
C449 C465 1.349 . S
C450 C448 1.327 . S
C450 C469 1.429 . S
C450 H474 0.950 . S
C451 C468 1.574 1_545 S
C451 C470 1.368 1_655 S
C451 H475 0.949 . S
H452 C456 0.949 . S
C453 C454 1.349 . S
C453 C455 1.327 . S
C453 H476 0.950 . S
C454 C453 1.349 . S
C454 C466 1.349 . S
C455 C453 1.327 . S
C455 C471 1.429 . S
C455 H477 0.950 . S
C456 H452 0.949 . S
C456 C464 1.574 1_565 S
C456 C472 1.368 1_455 S
H457 C465 0.950 . S
H458 C463 0.950 . S
H459 C464 0.949 . S
H460 C466 0.950 . S
H461 C467 0.950 . S
H462 C468 0.949 . S
C463 H458 0.950 . S
C463 C465 1.327 . S
C463 C469 1.429 . S
C464 C456 1.574 1_545 S
C464 H459 0.949 . S
C464 C470 1.368 1_556 S
C465 C449 1.349 . S
C465 H457 0.950 . S
C465 C463 1.327 . S
C466 C454 1.349 . S
C466 H460 0.950 . S
C466 C467 1.327 . S
C467 H461 0.950 . S
C467 C466 1.327 . S
C467 C471 1.429 . S
C468 C451 1.574 1_565 S
C468 H462 0.949 . S
C468 C472 1.368 1_554 S
C469 C450 1.429 . S
C469 C463 1.429 . S
C469 C470 1.523 . S
C470 C451 1.368 1_455 S
C470 C464 1.368 1_554 S
C470 C469 1.523 . S
C471 C455 1.429 . S
C471 C467 1.429 . S
C471 C472 1.523 . S
C472 C456 1.368 1_655 S
C472 C468 1.368 1_556 S
C472 C471 1.523 . S
H473 C448 0.950 . S
H474 C450 0.950 . S
H475 C451 0.949 . S
H476 C453 0.950 . S
H477 C455 0.950 . S
C478 C479 1.349 . S
C478 C480 1.327 . S
C478 H503 0.950 . S
C479 C478 1.349 . S
C479 C495 1.349 . S
C480 C478 1.327 . S
C480 C499 1.429 . S
C480 H504 0.950 . S
C481 C498 1.574 . S
C481 C500 1.368 . S
C481 H505 0.949 . S
H482 C486 0.949 . S
C483 C484 1.349 . S
C483 C485 1.327 . S
C483 H506 0.950 . S
C484 C483 1.349 . S
C484 C496 1.349 . S
C485 C483 1.327 . S
C485 C501 1.429 . S
C485 H507 0.950 . S
C486 H482 0.949 . S
C486 C494 1.574 . S
C486 C502 1.368 . S
H487 C495 0.950 . S
H488 C493 0.950 . S
H489 C494 0.949 . S
H490 C496 0.950 . S
H491 C497 0.950 . S
H492 C498 0.949 . S
C493 H488 0.950 . S
C493 C495 1.327 . S
C493 C499 1.429 . S
C494 C486 1.574 . S
C494 H489 0.949 . S
C494 C500 1.368 . S
C495 C479 1.349 . S
C495 H487 0.950 . S
C495 C493 1.327 . S
C496 C484 1.349 . S
C496 H490 0.950 . S
C496 C497 1.327 . S
C497 H491 0.950 . S
C497 C496 1.327 . S
C497 C501 1.429 . S
C498 C481 1.574 . S
C498 H492 0.949 . S
C498 C502 1.368 . S
C499 C480 1.429 . S
C499 C493 1.429 . S
C499 C500 1.523 . S
C500 C481 1.368 . S
C500 C494 1.368 . S
C500 C499 1.523 . S
C501 C485 1.429 . S
C501 C497 1.429 . S
C501 C502 1.523 . S
C502 C486 1.368 . S
C502 C498 1.368 . S
C502 C501 1.523 . S
H503 C478 0.950 . S
H504 C480 0.950 . S
H505 C481 0.949 . S
H506 C483 0.950 . S
H507 C485 0.950 . S
C508 C509 1.349 . S
C508 C510 1.327 . S
C508 H533 0.950 . S
C509 C508 1.349 . S
C509 C525 1.349 . S
C510 C508 1.327 . S
C510 C529 1.429 . S
C510 H534 0.950 . S
C511 C528 1.574 1_565 S
C511 C530 1.368 . S
C511 H535 0.949 . S
H512 C516 0.949 . S
C513 C514 1.349 . S
C513 C515 1.327 . S
C513 H536 0.950 . S
C514 C513 1.349 . S
C514 C526 1.349 . S
C515 C513 1.327 . S
C515 C531 1.429 . S
C515 H537 0.950 . S
C516 H512 0.949 . S
C516 C524 1.552 1_545 S
C516 C532 1.368 . S
H517 C525 0.950 . S
H518 C523 0.950 . S
H519 C524 0.956 . S
H520 C526 0.950 . S
H521 C527 0.950 . S
H522 C528 0.949 . S
C523 H518 0.950 . S
C523 C525 1.327 . S
C523 C529 1.429 . S
C524 C516 1.552 1_565 S
C524 H519 0.956 . S
C524 C530 1.384 . S
C525 C509 1.349 . S
C525 H517 0.950 . S
C525 C523 1.327 . S
C526 C514 1.349 . S
C526 H520 0.950 . S
C526 C527 1.327 . S
C527 H521 0.950 . S
C527 C526 1.327 . S
C527 C531 1.429 . S
C528 C511 1.574 1_545 S
C528 H522 0.949 . S
C528 C532 1.368 . S
C529 C510 1.429 . S
C529 C523 1.429 . S
C529 C530 1.523 . S
C530 C511 1.368 . S
C530 C524 1.384 . S
C530 C529 1.523 . S
C531 C515 1.429 . S
C531 C527 1.429 . S
C531 C532 1.523 . S
C532 C516 1.368 . S
C532 C528 1.368 . S
C532 C531 1.523 . S
H533 C508 0.950 . S
H534 C510 0.950 . S
H535 C511 0.949 . S
H536 C513 0.950 . S
H537 C515 0.950 . S
C538 C539 1.349 . S
C538 C540 1.327 . S
C538 H563 0.950 . S
C539 C538 1.349 . S
C539 C555 1.349 . S
C540 C538 1.327 . S
C540 C559 1.429 . S
C540 H564 0.950 . S
C541 C558 1.574 . S
C541 C560 1.368 . S
C541 H565 0.949 . S
H542 C546 0.949 . S
C543 C544 1.349 . S
C543 C545 1.327 . S
C543 H566 0.950 . S
C544 C543 1.349 . S
C544 C556 1.349 . S
C545 C543 1.327 . S
C545 C561 1.429 . S
C545 H567 0.950 . S
C546 H542 0.949 . S
C546 C554 1.574 . S
C546 C562 1.368 . S
H547 C555 0.950 . S
H548 C553 0.950 . S
H549 C554 0.949 . S
H550 C556 0.950 . S
H551 C557 0.950 . S
H552 C558 0.949 . S
C553 H548 0.950 . S
C553 C555 1.327 . S
C553 C559 1.429 . S
C554 C546 1.574 . S
C554 H549 0.949 . S
C554 C560 1.368 . S
C555 C539 1.349 . S
C555 H547 0.950 . S
C555 C553 1.327 . S
C556 C544 1.349 . S
C556 H550 0.950 . S
C556 C557 1.327 . S
C557 H551 0.950 . S
C557 C556 1.327 . S
C557 C561 1.429 . S
C558 C541 1.574 . S
C558 H552 0.949 . S
C558 C562 1.368 . S
C559 C540 1.429 . S
C559 C553 1.429 . S
C559 C560 1.523 . S
C560 C541 1.368 . S
C560 C554 1.368 . S
C560 C559 1.523 . S
C561 C545 1.429 . S
C561 C557 1.429 . S
C561 C562 1.523 . S
C562 C546 1.368 . S
C562 C558 1.368 . S
C562 C561 1.523 . S
H563 C538 0.950 . S
H564 C540 0.950 . S
H565 C541 0.949 . S
H566 C543 0.950 . S
H567 C545 0.950 . S
C568 C569 1.349 . S
C568 C570 1.327 . S
C568 H593 0.950 . S
C569 C568 1.349 . S
C569 C585 1.349 . S
C570 C568 1.327 . S
C570 C589 1.429 . S
C570 H594 0.950 . S
C571 C588 1.574 . S
C571 C590 1.368 1_655 S
C571 H595 0.949 . S
H572 C576 0.949 . S
C573 C574 1.349 . S
C573 C575 1.327 . S
C573 H596 0.950 . S
C574 C573 1.349 . S
C574 C586 1.349 . S
C575 C573 1.327 . S
C575 C591 1.429 . S
C575 H597 0.950 . S
C576 H572 0.949 . S
C576 C584 1.574 . S
C576 C592 1.368 1_455 S
H577 C585 0.950 . S
H578 C583 0.950 . S
H579 C584 0.949 . S
H580 C586 0.950 . S
H581 C587 0.914 1_455 S
H582 C588 0.949 . S
C583 H578 0.950 . S
C583 C585 1.327 . S
C583 C589 1.429 . S
C584 C576 1.574 . S
C584 H579 0.949 . S
C584 C590 1.368 1_545 S
C585 C569 1.349 . S
C585 H577 0.950 . S
C585 C583 1.327 . S
C586 C574 1.349 . S
C586 H580 0.950 . S
C586 C587 1.327 . S
C587 H581 0.914 1_655 S
C587 C586 1.327 . S
C587 C591 1.429 . S
C588 C571 1.574 . S
C588 H582 0.949 . S
C588 C592 1.368 1_565 S
C589 C570 1.429 . S
C589 C583 1.429 . S
C589 C590 1.523 . S
C590 C571 1.368 1_455 S
C590 C584 1.368 1_565 S
C590 C589 1.523 . S
C591 C575 1.429 . S
C591 C587 1.429 . S
C591 C592 1.523 . S
C592 C576 1.368 1_655 S
C592 C588 1.368 1_545 S
C592 C591 1.523 . S
H593 C568 0.950 . S
H594 C570 0.950 . S
H595 C571 0.949 . S
H596 C573 0.950 . S
H597 C575 0.950 . S
C598 C599 1.349 . S
C598 C600 1.327 . S
C598 H623 0.950 . S
C599 C598 1.349 . S
C599 C615 1.349 . S
C600 C598 1.327 . S
C600 C619 1.429 . S
C600 H624 0.950 . S
C601 C618 1.574 . S
C601 C620 1.368 . S
C601 H625 0.949 . S
H602 C606 0.949 . S
C603 C604 1.349 . S
C603 C605 1.327 . S
C603 H626 0.950 . S
C604 C603 1.349 . S
C604 C616 1.349 . S
C605 C603 1.327 . S
C605 C621 1.429 . S
C605 H627 0.950 . S
C606 H602 0.949 . S
C606 C614 1.574 . S
C606 C622 1.368 . S
H607 C615 0.950 . S
H608 C613 0.950 . S
H609 C614 0.949 . S
H610 C616 0.950 . S
H611 C617 0.950 . S
H612 C618 0.949 . S
C613 H608 0.950 . S
C613 C615 1.327 . S
C613 C619 1.429 . S
C614 C606 1.574 . S
C614 H609 0.949 . S
C614 C620 1.368 . S
C615 C599 1.349 . S
C615 H607 0.950 . S
C615 C613 1.327 . S
C616 C604 1.349 . S
C616 H610 0.950 . S
C616 C617 1.327 . S
C617 H611 0.950 . S
C617 C616 1.327 . S
C617 C621 1.429 . S
C618 C601 1.574 . S
C618 H612 0.949 . S
C618 C622 1.368 . S
C619 C600 1.429 . S
C619 C613 1.429 . S
C619 C620 1.523 . S
C620 C601 1.368 . S
C620 C614 1.368 . S
C620 C619 1.523 . S
C621 C605 1.429 . S
C621 C617 1.429 . S
C621 C622 1.523 . S
C622 C606 1.368 . S
C622 C618 1.368 . S
C622 C621 1.523 . S
H623 C598 0.950 . S
H624 C600 0.950 . S
H625 C601 0.949 . S
H626 C603 0.950 . S
H627 C605 0.950 . S
C628 C629 1.349 . S
C628 C630 1.327 . S
C628 H653 0.950 . S
C629 C628 1.349 . S
C629 C645 1.349 . S
C630 C628 1.327 . S
C630 C649 1.429 . S
C630 H654 0.950 . S
C631 C648 1.574 1_545 S
C631 C650 1.368 1_554 S
C631 H655 0.949 . S
H632 C636 0.949 . S
C633 C634 1.349 . S
C633 C635 1.327 . S
C633 H656 0.950 . S
C634 C633 1.349 . S
C634 C646 1.349 . S
C635 C633 1.327 . S
C635 C651 1.429 . S
C635 H657 0.950 . S
C636 H632 0.949 . S
C636 C644 1.577 . S
C636 C652 1.368 1_556 S
H637 C645 0.950 . S
H638 C643 0.950 . S
H639 C644 0.948 1_545 S
H640 C646 0.950 . S
H641 C647 0.950 . S
H642 C648 0.949 . S
C643 H638 0.950 . S
C643 C645 1.327 . S
C643 C649 1.429 . S
C644 C636 1.577 . S
C644 H639 0.948 1_565 S
C644 C650 1.366 1_565 S
C645 C629 1.349 . S
C645 H637 0.950 . S
C645 C643 1.327 . S
C646 C634 1.349 . S
C646 H640 0.950 . S
C646 C647 1.327 . S
C647 H641 0.950 . S
C647 C646 1.327 . S
C647 C651 1.429 . S
C648 C631 1.574 1_565 S
C648 H642 0.949 . S
C648 C652 1.368 . S
C649 C630 1.429 . S
C649 C643 1.429 . S
C649 C650 1.523 . S
C650 C631 1.368 1_556 S
C650 C644 1.366 1_545 S
C650 C649 1.523 . S
C651 C635 1.429 . S
C651 C647 1.429 . S
C651 C652 1.523 . S
C652 C636 1.368 1_554 S
C652 C648 1.368 . S
C652 C651 1.523 . S
H653 C628 0.950 . S
H654 C630 0.950 . S
H655 C631 0.949 . S
H656 C633 0.950 . S
H657 C635 0.950 . S
C658 C659 1.349 . S
C658 C660 1.327 . S
C658 H683 0.950 . S
C659 C658 1.349 . S
C659 C675 1.349 . S
C660 C658 1.327 . S
C660 C679 1.429 . S
C660 H684 0.950 . S
C661 C678 1.574 . S
C661 C680 1.368 . S
C661 H685 0.949 . S
H662 C666 0.949 . S
C663 C664 1.349 . S
C663 C665 1.327 . S
C663 H686 0.950 . S
C664 C663 1.349 . S
C664 C676 1.349 . S
C665 C663 1.327 . S
C665 C681 1.429 . S
C665 H687 0.950 . S
C666 H662 0.949 . S
C666 C674 1.574 . S
C666 C682 1.368 . S
H667 C675 0.950 . S
H668 C673 0.950 . S
H669 C674 0.949 . S
H670 C676 0.950 . S
H671 C677 0.950 . S
H672 C678 0.949 . S
C673 H668 0.950 . S
C673 C675 1.327 . S
C673 C679 1.429 . S
C674 C666 1.574 . S
C674 H669 0.949 . S
C674 C680 1.368 . S
C675 C659 1.349 . S
C675 H667 0.950 . S
C675 C673 1.327 . S
C676 C664 1.349 . S
C676 H670 0.950 . S
C676 C677 1.327 . S
C677 H671 0.950 . S
C677 C676 1.327 . S
C677 C681 1.429 . S
C678 C661 1.574 . S
C678 H672 0.949 . S
C678 C682 1.368 . S
C679 C660 1.429 . S
C679 C673 1.429 . S
C679 C680 1.523 . S
C680 C661 1.368 . S
C680 C674 1.368 . S
C680 C679 1.523 . S
C681 C665 1.429 . S
C681 C677 1.429 . S
C681 C682 1.523 . S
C682 C666 1.368 . S
C682 C678 1.368 . S
C682 C681 1.523 . S
H683 C658 0.950 . S
H684 C660 0.950 . S
H685 C661 0.949 . S
H686 C663 0.950 . S
H687 C665 0.950 . S
C688 C689 1.349 . S
C688 C690 1.327 . S
C688 H713 0.950 . S
C689 C688 1.349 . S
C689 C705 1.349 . S
C690 C688 1.327 . S
C690 C709 1.429 . S
C690 H714 0.950 . S
C691 C708 1.574 . S
C691 C710 1.368 . S
C691 H715 0.949 . S
H692 C696 0.949 . S
C693 C694 1.349 . S
C693 C695 1.327 . S
C693 H716 0.950 . S
C694 C693 1.349 . S
C694 C706 1.349 . S
C695 C693 1.327 . S
C695 C711 1.429 . S
C695 H717 0.950 . S
C696 H692 0.949 . S
C696 C704 1.574 . S
C696 C712 1.368 . S
H697 C705 0.950 . S
H698 C703 0.950 . S
H699 C704 0.949 . S
H700 C706 0.950 . S
H701 C707 0.950 . S
H702 C708 0.949 . S
C703 H698 0.950 . S
C703 C705 1.327 . S
C703 C709 1.429 . S
C704 C696 1.574 . S
C704 H699 0.949 . S
C704 C710 1.368 1_556 S
C705 C689 1.349 . S
C705 H697 0.950 . S
C705 C703 1.327 . S
C706 C694 1.349 . S
C706 H700 0.950 . S
C706 C707 1.327 . S
C707 H701 0.950 . S
C707 C706 1.327 . S
C707 C711 1.429 . S
C708 C691 1.574 . S
C708 H702 0.949 . S
C708 C712 1.368 1_554 S
C709 C690 1.429 . S
C709 C703 1.429 . S
C709 C710 1.523 . S
C710 C691 1.368 . S
C710 C704 1.368 1_554 S
C710 C709 1.523 . S
C711 C695 1.429 . S
C711 C707 1.429 . S
C711 C712 1.523 . S
C712 C696 1.368 . S
C712 C708 1.368 1_556 S
C712 C711 1.523 . S
H713 C688 0.950 . S
H714 C690 0.950 . S
H715 C691 0.949 . S
H716 C693 0.950 . S
H717 C695 0.950 . S
C718 C719 1.349 . S
C718 C720 1.327 . S
C718 H743 0.950 . S
C719 C718 1.349 . S
C719 C735 1.349 . S
C720 C718 1.327 . S
C720 C739 1.429 . S
C720 H744 0.950 . S
C721 C738 1.574 . S
C721 C740 1.368 . S
C721 H745 0.949 . S
H722 C726 0.949 . S
C723 C724 1.349 . S
C723 C725 1.327 . S
C723 H746 0.950 . S
C724 C723 1.349 . S
C724 C736 1.349 . S
C725 C723 1.327 . S
C725 C741 1.429 . S
C725 H747 0.950 . S
C726 H722 0.949 . S
C726 C734 1.574 . S
C726 C742 1.368 . S
H727 C735 0.950 . S
H728 C733 0.950 . S
H729 C734 0.949 . S
H730 C736 0.950 . S
H731 C737 0.950 . S
H732 C738 0.949 . S
C733 H728 0.950 . S
C733 C735 1.327 . S
C733 C739 1.429 . S
C734 C726 1.574 . S
C734 H729 0.949 . S
C734 C740 1.368 . S
C735 C719 1.349 . S
C735 H727 0.950 . S
C735 C733 1.327 . S
C736 C724 1.349 . S
C736 H730 0.950 . S
C736 C737 1.327 . S
C737 H731 0.950 . S
C737 C736 1.327 . S
C737 C741 1.429 . S
C738 C721 1.574 . S
C738 H732 0.949 . S
C738 C742 1.368 . S
C739 C720 1.429 . S
C739 C733 1.429 . S
C739 C740 1.523 . S
C740 C721 1.368 . S
C740 C734 1.368 . S
C740 C739 1.523 . S
C741 C725 1.429 . S
C741 C737 1.429 . S
C741 C742 1.523 . S
C742 C726 1.368 . S
C742 C738 1.368 . S
C742 C741 1.523 . S
H743 C718 0.950 . S
H744 C720 0.950 . S
H745 C721 0.949 . S
H746 C723 0.950 . S
H747 C725 0.950 . S
C748 C749 1.349 . S
C748 C750 1.327 . S
C748 H773 0.950 . S
C749 C748 1.349 . S
C749 C765 1.349 . S
C750 C748 1.327 . S
C750 C769 1.429 . S
C750 H774 0.950 . S
C751 C768 1.574 . S
C751 C770 1.368 1_655 S
C751 H775 0.949 . S
H752 C756 0.949 . S
C753 C754 1.349 . S
C753 C755 1.327 . S
C753 H776 0.950 . S
C754 C753 1.349 . S
C754 C766 1.349 . S
C755 C753 1.327 . S
C755 C771 1.429 . S
C755 H777 0.950 . S
C756 H752 0.949 . S
C756 C764 1.574 1_655 S
C756 C772 1.368 . S
H757 C765 0.950 . S
H758 C763 0.950 . S
H759 C764 0.949 . S
H760 C766 0.950 . S
H761 C767 0.950 . S
H762 C768 0.949 . S
C763 H758 0.950 . S
C763 C765 1.327 . S
C763 C769 1.429 . S
C764 C756 1.574 1_455 S
C764 H759 0.949 . S
C764 C770 1.368 . S
C765 C749 1.349 . S
C765 H757 0.950 . S
C765 C763 1.327 . S
C766 C754 1.349 . S
C766 H760 0.950 . S
C766 C767 1.327 . S
C767 H761 0.950 . S
C767 C766 1.327 . S
C767 C771 1.429 . S
C768 C751 1.574 . S
C768 H762 0.949 . S
C768 C772 1.368 . S
C769 C750 1.429 . S
C769 C763 1.429 . S
C769 C770 1.523 . S
C770 C751 1.368 1_455 S
C770 C764 1.368 . S
C770 C769 1.523 . S
C771 C755 1.429 . S
C771 C767 1.429 . S
C771 C772 1.523 . S
C772 C756 1.368 . S
C772 C768 1.368 . S
C772 C771 1.523 . S
H773 C748 0.950 . S
H774 C750 0.950 . S
H775 C751 0.949 . S
H776 C753 0.950 . S
H777 C755 0.950 . S
C778 C779 1.349 . S
C778 C780 1.327 . S
C778 H803 0.950 . S
C779 C778 1.349 . S
C779 C795 1.349 . S
C780 C778 1.327 . S
C780 C799 1.429 . S
C780 H804 0.950 . S
C781 C798 1.574 . S
C781 C800 1.368 . S
C781 H805 0.949 . S
H782 C786 0.949 . S
C783 C784 1.349 . S
C783 C785 1.327 . S
C783 H806 0.950 . S
C784 C783 1.349 . S
C784 C796 1.349 . S
C785 C783 1.327 . S
C785 C801 1.429 . S
C785 H807 0.950 . S
C786 H782 0.949 . S
C786 C794 1.574 . S
C786 C802 1.368 . S
H787 C795 0.950 . S
H788 C793 0.950 . S
H789 C794 0.949 . S
H790 C796 0.950 . S
H791 C797 0.950 . S
H792 C798 0.949 . S
C793 H788 0.950 . S
C793 C795 1.327 . S
C793 C799 1.429 . S
C794 C786 1.574 . S
C794 H789 0.949 . S
C794 C800 1.368 . S
C795 C779 1.349 . S
C795 H787 0.950 . S
C795 C793 1.327 . S
C796 C784 1.349 . S
C796 H790 0.950 . S
C796 C797 1.327 . S
C797 H791 0.950 . S
C797 C796 1.327 . S
C797 C801 1.429 . S
C798 C781 1.574 . S
C798 H792 0.949 . S
C798 C802 1.368 . S
C799 C780 1.429 . S
C799 C793 1.429 . S
C799 C800 1.523 . S
C800 C781 1.368 . S
C800 C794 1.368 . S
C800 C799 1.523 . S
C801 C785 1.429 . S
C801 C797 1.429 . S
C801 C802 1.523 . S
C802 C786 1.368 . S
C802 C798 1.368 . S
C802 C801 1.523 . S
H803 C778 0.950 . S
H804 C780 0.950 . S
H805 C781 0.949 . S
H806 C783 0.950 . S
H807 C785 0.950 . S
C808 C809 1.349 . S
C808 C810 1.327 . S
C808 H833 0.950 . S
C809 C808 1.349 . S
C809 C825 1.349 . S
C810 C808 1.327 . S
C810 C829 1.429 . S
C810 H834 0.950 . S
C811 C828 1.574 . S
C811 C830 1.368 . S
C811 H835 0.949 . S
H812 C816 0.949 . S
C813 C814 1.349 . S
C813 C815 1.327 . S
C813 H836 0.950 . S
C814 C813 1.349 . S
C814 C826 1.349 . S
C815 C813 1.327 . S
C815 C831 1.429 . S
C815 H837 0.950 . S
C816 H812 0.949 . S
C816 C824 1.574 . S
C816 C832 1.368 . S
H817 C825 0.950 . S
H818 C823 0.950 . S
H819 C824 0.949 . S
H820 C826 0.950 . S
H821 C827 0.950 . S
H822 C828 0.949 . S
C823 H818 0.950 . S
C823 C825 1.327 . S
C823 C829 1.429 . S
C824 C816 1.574 . S
C824 H819 0.949 . S
C824 C830 1.368 . S
C825 C809 1.349 . S
C825 H817 0.950 . S
C825 C823 1.327 . S
C826 C814 1.349 . S
C826 H820 0.950 . S
C826 C827 1.327 . S
C827 H821 0.950 . S
C827 C826 1.327 . S
C827 C831 1.429 . S
C828 C811 1.574 . S
C828 H822 0.949 . S
C828 C832 1.368 . S
C829 C810 1.429 . S
C829 C823 1.429 . S
C829 C830 1.523 . S
C830 C811 1.368 . S
C830 C824 1.368 . S
C830 C829 1.523 . S
C831 C815 1.429 . S
C831 C827 1.429 . S
C831 C832 1.523 . S
C832 C816 1.368 . S
C832 C828 1.368 . S
C832 C831 1.523 . S
H833 C808 0.950 . S
H834 C810 0.950 . S
H835 C811 0.949 . S
H836 C813 0.950 . S
H837 C815 0.950 . S
C838 C839 1.349 . S
C838 C840 1.327 . S
C838 H863 0.950 . S
C839 C838 1.349 . S
C839 C855 1.349 . S
C840 C838 1.327 . S
C840 C859 1.429 . S
C840 H864 0.950 . S
C841 C858 1.574 . S
C841 C860 1.368 . S
C841 H865 0.949 . S
H842 C846 0.949 . S
C843 C844 1.349 . S
C843 C845 1.327 . S
C843 H866 0.950 . S
C844 C843 1.349 . S
C844 C856 1.349 . S
C845 C843 1.327 . S
C845 C861 1.429 . S
C845 H867 0.950 . S
C846 H842 0.949 . S
C846 C854 1.574 . S
C846 C862 1.368 . S
H847 C855 0.950 . S
H848 C853 0.950 . S
H849 C854 0.949 . S
H850 C856 0.950 . S
H851 C857 0.950 . S
H852 C858 0.949 . S
C853 H848 0.950 . S
C853 C855 1.327 . S
C853 C859 1.429 . S
C854 C846 1.574 . S
C854 H849 0.949 . S
C854 C860 1.368 . S
C855 C839 1.349 . S
C855 H847 0.950 . S
C855 C853 1.327 . S
C856 C844 1.349 . S
C856 H850 0.950 . S
C856 C857 1.327 . S
C857 H851 0.950 . S
C857 C856 1.327 . S
C857 C861 1.429 . S
C858 C841 1.574 . S
C858 H852 0.949 . S
C858 C862 1.368 . S
C859 C840 1.429 . S
C859 C853 1.429 . S
C859 C860 1.523 . S
C860 C841 1.368 . S
C860 C854 1.368 . S
C860 C859 1.523 . S
C861 C845 1.429 . S
C861 C857 1.429 . S
C861 C862 1.523 . S
C862 C846 1.368 . S
C862 C858 1.368 . S
C862 C861 1.523 . S
H863 C838 0.950 . S
H864 C840 0.950 . S
H865 C841 0.949 . S
H866 C843 0.950 . S
H867 C845 0.950 . S
C868 C869 1.349 . S
C868 C870 1.327 . S
C868 H893 0.950 . S
C869 C868 1.349 . S
C869 C885 1.349 . S
C870 C868 1.327 . S
C870 C889 1.429 . S
C870 H894 0.950 . S
C871 C888 1.574 . S
C871 C890 1.368 . S
C871 H895 0.949 . S
H872 C876 0.949 . S
C873 C874 1.349 . S
C873 C875 1.327 . S
C873 H896 0.950 . S
C874 C873 1.349 . S
C874 C886 1.349 . S
C875 C873 1.327 . S
C875 C891 1.429 . S
C875 H897 0.950 . S
C876 H872 0.949 . S
C876 C884 1.574 . S
C876 C892 1.368 . S
H877 C885 0.950 . S
H878 C883 0.950 . S
H879 C884 0.949 . S
H880 C886 0.950 . S
H881 C887 0.950 . S
H882 C888 0.949 . S
C883 H878 0.950 . S
C883 C885 1.327 . S
C883 C889 1.429 . S
C884 C876 1.574 . S
C884 H879 0.949 . S
C884 C890 1.368 . S
C885 C869 1.349 . S
C885 H877 0.950 . S
C885 C883 1.327 . S
C886 C874 1.349 . S
C886 H880 0.950 . S
C886 C887 1.327 . S
C887 H881 0.950 . S
C887 C886 1.327 . S
C887 C891 1.429 . S
C888 C871 1.574 . S
C888 H882 0.949 . S
C888 C892 1.368 . S
C889 C870 1.429 . S
C889 C883 1.429 . S
C889 C890 1.523 . S
C890 C871 1.368 . S
C890 C884 1.368 . S
C890 C889 1.523 . S
C891 C875 1.429 . S
C891 C887 1.429 . S
C891 C892 1.523 . S
C892 C876 1.368 . S
C892 C888 1.368 . S
C892 C891 1.523 . S
H893 C868 0.950 . S
H894 C870 0.950 . S
H895 C871 0.949 . S
H896 C873 0.950 . S
H897 C875 0.950 . S
C898 C899 1.349 . S
C898 C900 1.327 . S
C898 H923 0.950 . S
C899 C898 1.349 . S
C899 C915 1.349 . S
C900 C898 1.327 . S
C900 C919 1.429 . S
C900 H924 0.950 . S
C901 C918 1.553 1_455 S
C901 C920 1.386 . S
C901 H925 0.953 . S
H902 C906 0.949 . S
C903 C904 1.349 . S
C903 C905 1.327 . S
C903 H926 0.950 . S
C904 C903 1.349 . S
C904 C916 1.349 . S
C905 C903 1.327 . S
C905 C921 1.429 . S
C905 H927 0.950 . S
C906 H902 0.949 . S
C906 C914 1.574 1_655 S
C906 C922 1.368 . S
H907 C915 0.950 . S
H908 C913 0.950 . S
H909 C914 0.949 . S
H910 C916 0.950 . S
H911 C917 0.950 . S
H912 C918 0.949 . S
C913 H908 0.950 . S
C913 C915 1.327 . S
C913 C919 1.429 . S
C914 C906 1.574 1_455 S
C914 H909 0.949 . S
C914 C920 1.368 1_554 S
C915 C899 1.349 . S
C915 H907 0.950 . S
C915 C913 1.327 . S
C916 C904 1.349 . S
C916 H910 0.950 . S
C916 C917 1.327 . S
C917 H911 0.950 . S
C917 C916 1.327 . S
C917 C921 1.429 . S
C918 C901 1.553 1_655 S
C918 H912 0.949 . S
C918 C922 1.368 1_556 S
C919 C900 1.429 . S
C919 C913 1.429 . S
C919 C920 1.523 . S
C920 C901 1.386 . S
C920 C914 1.368 1_556 S
C920 C919 1.523 . S
C921 C905 1.429 . S
C921 C917 1.429 . S
C921 C922 1.523 . S
C922 C906 1.368 . S
C922 C918 1.368 1_554 S
C922 C921 1.523 . S
H923 C898 0.950 . S
H924 C900 0.950 . S
H925 C901 0.953 . S
H926 C903 0.950 . S
H927 C905 0.950 . S
C928 C929 1.349 . S
C928 C930 1.327 . S
C928 H953 0.950 . S
C929 C928 1.349 . S
C929 C945 1.349 . S
C930 C928 1.327 . S
C930 C949 1.429 . S
C930 H954 0.950 1_545 S
C931 C948 1.574 . S
C931 C950 1.368 . S
C931 H955 0.949 1_565 S
H932 C936 0.949 . S
C933 C934 1.349 . S
C933 C935 1.327 . S
C933 H956 0.950 . S
C934 C933 1.349 . S
C934 C946 1.349 . S
C935 C933 1.327 . S
C935 C951 1.429 . S
C935 H957 0.950 . S
C936 H932 0.949 . S
C936 C944 1.574 . S
C936 C952 1.368 . S
H937 C945 0.950 . S
H938 C943 0.950 . S
H939 C944 0.949 . S
H940 C946 0.950 . S
H941 C947 0.950 . S
H942 C948 0.949 . S
C943 H938 0.950 . S
C943 C945 1.327 . S
C943 C949 1.429 . S
C944 C936 1.574 . S
C944 H939 0.949 . S
C944 C950 1.368 . S
C945 C929 1.349 . S
C945 H937 0.950 . S
C945 C943 1.327 . S
C946 C934 1.349 . S
C946 H940 0.950 . S
C946 C947 1.327 . S
C947 H941 0.950 . S
C947 C946 1.327 . S
C947 C951 1.429 . S
C948 C931 1.574 . S
C948 H942 0.949 . S
C948 C952 1.368 . S
C949 C930 1.429 . S
C949 C943 1.429 . S
C949 C950 1.523 1_545 S
C950 C931 1.368 . S
C950 C944 1.368 . S
C950 C949 1.523 1_565 S
C951 C935 1.429 . S
C951 C947 1.429 . S
C951 C952 1.523 . S
C952 C936 1.368 . S
C952 C948 1.368 . S
C952 C951 1.523 . S
H953 C928 0.950 . S
H954 C930 0.950 1_565 S
H955 C931 0.949 1_545 S
H956 C933 0.950 . S
H957 C935 0.950 . S
C958 C959 1.349 . S
C958 C960 1.327 . S
C958 H983 0.950 . S
C959 C958 1.349 . S
C959 C975 1.349 . S
C960 C958 1.327 . S
C960 C979 1.429 . S
C960 H984 0.950 . S
C961 C978 1.574 . S
C961 C980 1.368 . S
C961 H985 0.949 . S
H962 C966 0.949 . S
C963 C964 1.349 . S
C963 C965 1.327 . S
C963 H986 0.950 . S
C964 C963 1.349 . S
C964 C976 1.349 . S
C965 C963 1.327 . S
C965 C981 1.429 . S
C965 H987 0.950 . S
C966 H962 0.949 . S
C966 C974 1.574 . S
C966 C982 1.368 . S
H967 C975 0.950 . S
H968 C973 0.950 . S
H969 C974 0.949 . S
H970 C976 0.950 . S
H971 C977 0.950 . S
H972 C978 0.949 . S
C973 H968 0.950 . S
C973 C975 1.327 . S
C973 C979 1.429 . S
C974 C966 1.574 . S
C974 H969 0.949 . S
C974 C980 1.368 . S
C975 C959 1.349 . S
C975 H967 0.950 . S
C975 C973 1.327 . S
C976 C964 1.349 . S
C976 H970 0.950 . S
C976 C977 1.327 . S
C977 H971 0.950 . S
C977 C976 1.327 . S
C977 C981 1.429 . S
C978 C961 1.574 . S
C978 H972 0.949 . S
C978 C982 1.368 . S
C979 C960 1.429 . S
C979 C973 1.429 . S
C979 C980 1.523 . S
C980 C961 1.368 . S
C980 C974 1.368 . S
C980 C979 1.523 . S
C981 C965 1.429 . S
C981 C977 1.429 . S
C981 C982 1.523 . S
C982 C966 1.368 . S
C982 C978 1.368 . S
C982 C981 1.523 . S
H983 C958 0.950 . S
H984 C960 0.950 . S
H985 C961 0.949 . S
H986 C963 0.950 . S
H987 C965 0.950 . S
C988 C989 1.349 . S
C988 C990 1.327 . S
C988 H1013 0.950 . S
C989 C988 1.349 . S
C989 C1005 1.349 . S
C990 C988 1.327 . S
C990 C1009 1.429 . S
C990 H1014 0.950 . S
C991 C1008 1.574 . S
C991 C1010 1.368 . S
C991 H1015 0.949 . S
H992 C996 0.949 . S
C993 C994 1.349 . S
C993 C995 1.327 . S
C993 H1016 0.950 . S
C994 C993 1.349 . S
C994 C1006 1.349 . S
C995 C993 1.327 . S
C995 C1011 1.429 . S
C995 H1017 0.950 . S
C996 H992 0.949 . S
C996 C1004 1.574 . S
C996 C1012 1.368 . S
H997 C1005 0.950 . S
H998 C1003 0.950 . S
H999 C1004 0.949 . S
H1000 C1006 0.950 . S
H1001 C1007 0.950 . S
H1002 C1008 0.949 . S
C1003 H998 0.950 . S
C1003 C1005 1.327 . S
C1003 C1009 1.429 . S
C1004 C996 1.574 . S
C1004 H999 0.949 . S
C1004 C1010 1.368 . S
C1005 C989 1.349 . S
C1005 H997 0.950 . S
C1005 C1003 1.327 . S
C1006 C994 1.349 . S
C1006 H1000 0.950 . S
C1006 C1007 1.327 . S
C1007 H1001 0.950 . S
C1007 C1006 1.327 . S
C1007 C1011 1.429 . S
C1008 C991 1.574 . S
C1008 H1002 0.949 . S
C1008 C1012 1.368 . S
C1009 C990 1.429 . S
C1009 C1003 1.429 . S
C1009 C1010 1.523 . S
C1010 C991 1.368 . S
C1010 C1004 1.368 . S
C1010 C1009 1.523 . S
C1011 C995 1.429 . S
C1011 C1007 1.429 . S
C1011 C1012 1.523 1_565 S
C1012 C996 1.368 . S
C1012 C1008 1.368 . S
C1012 C1011 1.523 1_545 S
H1013 C988 0.950 . S
H1014 C990 0.950 . S
H1015 C991 0.949 . S
H1016 C993 0.950 . S
H1017 C995 0.950 . S
C1018 C1019 1.349 . S
C1018 C1020 1.327 . S
C1018 H1043 0.950 . S
C1019 C1018 1.349 . S
C1019 C1035 1.349 . S
C1020 C1018 1.327 . S
C1020 C1039 1.429 . S
C1020 H1044 0.950 . S
C1021 C1038 1.574 . S
C1021 C1040 1.368 . S
C1021 H1045 0.949 . S
H1022 C1026 0.949 . S
C1023 C1024 1.349 . S
C1023 C1025 1.327 . S
C1023 H1046 0.950 . S
C1024 C1023 1.349 . S
C1024 C1036 1.349 . S
C1025 C1023 1.327 . S
C1025 C1041 1.429 . S
C1025 H1047 0.950 . S
C1026 H1022 0.949 . S
C1026 C1034 1.574 . S
C1026 C1042 1.368 . S
H1027 C1035 0.950 . S
H1028 C1033 0.950 . S
H1029 C1034 0.949 . S
H1030 C1036 0.950 . S
H1031 C1037 0.950 . S
H1032 C1038 0.949 . S
C1033 H1028 0.950 . S
C1033 C1035 1.327 . S
C1033 C1039 1.429 . S
C1034 C1026 1.574 . S
C1034 H1029 0.949 . S
C1034 C1040 1.368 . S
C1035 C1019 1.349 . S
C1035 H1027 0.950 . S
C1035 C1033 1.327 . S
C1036 C1024 1.349 . S
C1036 H1030 0.950 . S
C1036 C1037 1.327 . S
C1037 H1031 0.950 . S
C1037 C1036 1.327 . S
C1037 C1041 1.429 . S
C1038 C1021 1.574 . S
C1038 H1032 0.949 . S
C1038 C1042 1.368 . S
C1039 C1020 1.429 . S
C1039 C1033 1.429 . S
C1039 C1040 1.523 . S
C1040 C1021 1.368 . S
C1040 C1034 1.368 . S
C1040 C1039 1.523 . S
C1041 C1025 1.429 . S
C1041 C1037 1.429 . S
C1041 C1042 1.523 1_554 S
C1042 C1026 1.368 . S
C1042 C1038 1.368 . S
C1042 C1041 1.523 1_556 S
H1043 C1018 0.950 . S
H1044 C1020 0.950 . S
H1045 C1021 0.949 . S
H1046 C1023 0.950 . S
H1047 C1025 0.950 . S
C1048 C1049 1.349 . S
C1048 C1050 1.327 . S
C1048 H1073 0.950 . S
C1049 C1048 1.349 . S
C1049 C1065 1.349 . S
C1050 C1048 1.327 . S
C1050 C1069 1.429 . S
C1050 H1074 0.950 . S
C1051 C1068 1.574 . S
C1051 C1070 1.368 . S
C1051 H1075 0.949 . S
H1052 C1056 0.949 1_565 S
C1053 C1054 1.349 . S
C1053 C1055 1.327 . S
C1053 H1076 0.950 . S
C1054 C1053 1.349 . S
C1054 C1066 1.349 . S
C1055 C1053 1.327 . S
C1055 C1071 1.429 . S
C1055 H1077 0.950 1_565 S
C1056 H1052 0.949 1_545 S
C1056 C1064 1.574 . S
C1056 C1072 1.368 . S
H1057 C1065 0.950 . S
H1058 C1063 0.950 . S
H1059 C1064 0.949 . S
H1060 C1066 0.950 . S
H1061 C1067 0.950 . S
H1062 C1068 0.949 . S
C1063 H1058 0.950 . S
C1063 C1065 1.327 . S
C1063 C1069 1.429 . S
C1064 C1056 1.574 . S
C1064 H1059 0.949 . S
C1064 C1070 1.368 . S
C1065 C1049 1.349 . S
C1065 H1057 0.950 . S
C1065 C1063 1.327 . S
C1066 C1054 1.349 . S
C1066 H1060 0.950 . S
C1066 C1067 1.327 . S
C1067 H1061 0.950 . S
C1067 C1066 1.327 . S
C1067 C1071 1.429 . S
C1068 C1051 1.574 . S
C1068 H1062 0.949 . S
C1068 C1072 1.368 . S
C1069 C1050 1.429 . S
C1069 C1063 1.429 . S
C1069 C1070 1.523 . S
C1070 C1051 1.368 . S
C1070 C1064 1.368 . S
C1070 C1069 1.523 . S
C1071 C1055 1.429 . S
C1071 C1067 1.429 . S
C1071 C1072 1.523 1_565 S
C1072 C1056 1.368 . S
C1072 C1068 1.368 . S
C1072 C1071 1.523 1_545 S
H1073 C1048 0.950 . S
H1074 C1050 0.950 . S
H1075 C1051 0.949 . S
H1076 C1053 0.950 . S
H1077 C1055 0.950 1_545 S
C1078 C1079 1.349 . S
C1078 C1080 1.327 . S
C1078 H1103 0.950 . S
C1079 C1078 1.349 . S
C1079 C1095 1.349 . S
C1080 C1078 1.327 . S
C1080 C1099 1.429 . S
C1080 H1104 0.950 . S
C1081 C1098 1.574 . S
C1081 C1100 1.368 . S
C1081 H1105 0.949 . S
H1082 C1086 0.949 . S
C1083 C1084 1.349 . S
C1083 C1085 1.327 . S
C1083 H1106 0.950 . S
C1084 C1083 1.349 . S
C1084 C1096 1.349 . S
C1085 C1083 1.327 . S
C1085 C1101 1.429 . S
C1085 H1107 0.950 . S
C1086 H1082 0.949 . S
C1086 C1094 1.574 . S
C1086 C1102 1.368 . S
H1087 C1095 0.950 . S
H1088 C1093 0.950 . S
H1089 C1094 0.949 . S
H1090 C1096 0.950 . S
H1091 C1097 0.950 . S
H1092 C1098 0.949 . S
C1093 H1088 0.950 . S
C1093 C1095 1.327 . S
C1093 C1099 1.429 . S
C1094 C1086 1.574 . S
C1094 H1089 0.949 . S
C1094 C1100 1.368 . S
C1095 C1079 1.349 . S
C1095 H1087 0.950 . S
C1095 C1093 1.327 . S
C1096 C1084 1.349 . S
C1096 H1090 0.950 . S
C1096 C1097 1.327 . S
C1097 H1091 0.950 . S
C1097 C1096 1.327 . S
C1097 C1101 1.429 . S
C1098 C1081 1.574 . S
C1098 H1092 0.949 . S
C1098 C1102 1.368 . S
C1099 C1080 1.429 . S
C1099 C1093 1.429 . S
C1099 C1100 1.523 . S
C1100 C1081 1.368 . S
C1100 C1094 1.368 . S
C1100 C1099 1.523 . S
C1101 C1085 1.429 . S
C1101 C1097 1.429 . S
C1101 C1102 1.523 . S
C1102 C1086 1.368 . S
C1102 C1098 1.368 . S
C1102 C1101 1.523 . S
H1103 C1078 0.950 . S
H1104 C1080 0.950 . S
H1105 C1081 0.949 . S
H1106 C1083 0.950 . S
H1107 C1085 0.950 . S
C1108 C1109 1.349 . S
C1108 C1110 1.327 . S
C1108 H1133 0.950 . S
C1109 C1108 1.349 . S
C1109 C1125 1.349 . S
C1110 C1108 1.327 . S
C1110 C1129 1.429 . S
C1110 H1134 0.950 . S
C1111 C1128 1.574 . S
C1111 C1130 1.368 . S
C1111 H1135 0.949 . S
H1112 C1116 0.949 . S
C1113 C1114 1.349 . S
C1113 C1115 1.327 . S
C1113 H1136 0.950 . S
C1114 C1113 1.349 . S
C1114 C1126 1.349 . S
C1115 C1113 1.327 . S
C1115 C1131 1.429 . S
C1115 H1137 0.950 . S
C1116 H1112 0.949 . S
C1116 C1124 1.574 . S
C1116 C1132 1.368 . S
H1117 C1125 0.950 . S
H1118 C1123 0.950 1_565 S
H1119 C1124 0.949 1_545 S
H1120 C1126 0.950 . S
H1121 C1127 0.950 . S
H1122 C1128 0.949 . S
C1123 H1118 0.950 1_545 S
C1123 C1125 1.327 . S
C1123 C1129 1.429 . S
C1124 C1116 1.574 . S
C1124 H1119 0.949 1_565 S
C1124 C1130 1.368 . S
C1125 C1109 1.349 . S
C1125 H1117 0.950 . S
C1125 C1123 1.327 . S
C1126 C1114 1.349 . S
C1126 H1120 0.950 . S
C1126 C1127 1.327 . S
C1127 H1121 0.950 . S
C1127 C1126 1.327 . S
C1127 C1131 1.429 . S
C1128 C1111 1.574 . S
C1128 H1122 0.949 . S
C1128 C1132 1.368 . S
C1129 C1110 1.429 . S
C1129 C1123 1.429 . S
C1129 C1130 1.523 1_545 S
C1130 C1111 1.368 . S
C1130 C1124 1.368 . S
C1130 C1129 1.523 1_565 S
C1131 C1115 1.429 . S
C1131 C1127 1.429 . S
C1131 C1132 1.523 . S
C1132 C1116 1.368 . S
C1132 C1128 1.368 . S
C1132 C1131 1.523 . S
H1133 C1108 0.950 . S
H1134 C1110 0.950 . S
H1135 C1111 0.949 . S
H1136 C1113 0.950 . S
H1137 C1115 0.950 . S
C1138 C1139 1.349 . S
C1138 C1140 1.327 . S
C1138 H1163 0.950 . S
C1139 C1138 1.349 . S
C1139 C1155 1.349 . S
C1140 C1138 1.327 . S
C1140 C1159 1.429 . S
C1140 H1164 0.950 1_556 S
C1141 C1158 1.574 . S
C1141 C1160 1.368 . S
C1141 H1165 0.949 1_554 S
H1142 C1146 0.949 . S
C1143 C1144 1.349 . S
C1143 C1145 1.327 . S
C1143 H1166 0.950 . S
C1144 C1143 1.349 . S
C1144 C1156 1.349 . S
C1145 C1143 1.327 . S
C1145 C1161 1.429 . S
C1145 H1167 0.950 . S
C1146 H1142 0.949 . S
C1146 C1154 1.574 . S
C1146 C1162 1.368 . S
H1147 C1155 0.950 . S
H1148 C1153 0.950 . S
H1149 C1154 0.949 . S
H1150 C1156 0.950 . S
H1151 C1157 0.950 . S
H1152 C1158 0.949 . S
C1153 H1148 0.950 . S
C1153 C1155 1.327 . S
C1153 C1159 1.429 . S
C1154 C1146 1.574 . S
C1154 H1149 0.949 . S
C1154 C1160 1.368 . S
C1155 C1139 1.349 . S
C1155 H1147 0.950 . S
C1155 C1153 1.327 . S
C1156 C1144 1.349 . S
C1156 H1150 0.950 . S
C1156 C1157 1.327 . S
C1157 H1151 0.950 . S
C1157 C1156 1.327 . S
C1157 C1161 1.429 . S
C1158 C1141 1.574 . S
C1158 H1152 0.949 . S
C1158 C1162 1.368 . S
C1159 C1140 1.429 . S
C1159 C1153 1.429 . S
C1159 C1160 1.523 1_556 S
C1160 C1141 1.368 . S
C1160 C1154 1.368 . S
C1160 C1159 1.523 1_554 S
C1161 C1145 1.429 . S
C1161 C1157 1.429 . S
C1161 C1162 1.523 . S
C1162 C1146 1.368 . S
C1162 C1158 1.368 . S
C1162 C1161 1.523 . S
H1163 C1138 0.950 . S
H1164 C1140 0.950 1_554 S
H1165 C1141 0.949 1_556 S
H1166 C1143 0.950 . S
H1167 C1145 0.950 . S
C1168 C1169 1.349 . S
C1168 C1170 1.327 . S
C1168 H1193 0.950 . S
C1169 C1168 1.349 . S
C1169 C1185 1.349 . S
C1170 C1168 1.327 . S
C1170 C1189 1.429 . S
C1170 H1194 0.950 . S
C1171 C1188 1.574 1_655 S
C1171 C1190 1.368 . S
C1171 H1195 0.949 . S
H1172 C1176 0.949 . S
C1173 C1174 1.349 . S
C1173 C1175 1.327 . S
C1173 H1196 0.950 . S
C1174 C1173 1.349 . S
C1174 C1186 1.349 . S
C1175 C1173 1.327 . S
C1175 C1191 1.429 . S
C1175 H1197 0.950 . S
C1176 H1172 0.949 . S
C1176 C1184 1.574 . S
C1176 C1192 1.371 . S
H1177 C1185 0.950 . S
H1178 C1183 0.950 . S
H1179 C1184 0.949 . S
H1180 C1186 0.950 . S
H1181 C1187 0.950 . S
H1182 C1188 0.949 . S
C1183 H1178 0.950 . S
C1183 C1185 1.327 . S
C1183 C1189 1.429 . S
C1184 C1176 1.574 . S
C1184 H1179 0.949 . S
C1184 C1190 1.368 . S
C1185 C1169 1.349 . S
C1185 H1177 0.950 . S
C1185 C1183 1.327 . S
C1186 C1174 1.349 . S
C1186 H1180 0.950 . S
C1186 C1187 1.327 . S
C1187 H1181 0.950 . S
C1187 C1186 1.327 . S
C1187 C1191 1.429 . S
C1188 C1171 1.574 1_455 S
C1188 H1182 0.949 . S
C1188 C1192 1.368 1_455 S
C1189 C1170 1.429 . S
C1189 C1183 1.429 . S
C1189 C1190 1.523 . S
C1190 C1171 1.368 . S
C1190 C1184 1.368 . S
C1190 C1189 1.523 . S
C1191 C1175 1.429 . S
C1191 C1187 1.429 . S
C1191 C1192 1.520 1_455 S
C1192 C1176 1.371 . S
C1192 C1188 1.368 1_655 S
C1192 C1191 1.520 1_655 S
H1193 C1168 0.950 . S
H1194 C1170 0.950 . S
H1195 C1171 0.949 . S
H1196 C1173 0.950 . S
H1197 C1175 0.950 . S
C1198 C1199 1.349 . S
C1198 C1200 1.327 . S
C1198 H1223 0.950 . S
C1199 C1198 1.349 . S
C1199 C1215 1.349 . S
C1200 C1198 1.327 . S
C1200 C1219 1.429 . S
C1200 H1224 0.950 . S
C1201 C1218 1.574 . S
C1201 C1220 1.368 . S
C1201 H1225 0.949 . S
H1202 C1206 0.949 . S
C1203 C1204 1.349 . S
C1203 C1205 1.327 . S
C1203 H1226 0.950 . S
C1204 C1203 1.349 . S
C1204 C1216 1.349 . S
C1205 C1203 1.327 . S
C1205 C1221 1.429 . S
C1205 H1227 0.950 . S
C1206 H1202 0.949 . S
C1206 C1214 1.574 . S
C1206 C1222 1.368 . S
H1207 C1215 0.950 . S
H1208 C1213 0.950 . S
H1209 C1214 0.949 . S
H1210 C1216 0.950 . S
H1211 C1217 0.950 . S
H1212 C1218 0.949 . S
C1213 H1208 0.950 . S
C1213 C1215 1.327 . S
C1213 C1219 1.429 . S
C1214 C1206 1.574 . S
C1214 H1209 0.949 . S
C1214 C1220 1.368 . S
C1215 C1199 1.349 . S
C1215 H1207 0.950 . S
C1215 C1213 1.327 . S
C1216 C1204 1.349 . S
C1216 H1210 0.950 . S
C1216 C1217 1.327 . S
C1217 H1211 0.950 . S
C1217 C1216 1.327 . S
C1217 C1221 1.429 . S
C1218 C1201 1.574 . S
C1218 H1212 0.949 . S
C1218 C1222 1.368 . S
C1219 C1200 1.429 . S
C1219 C1213 1.429 . S
C1219 C1220 1.523 . S
C1220 C1201 1.368 . S
C1220 C1214 1.368 . S
C1220 C1219 1.523 . S
C1221 C1205 1.429 . S
C1221 C1217 1.429 . S
C1221 C1222 1.523 . S
C1222 C1206 1.368 . S
C1222 C1218 1.368 . S
C1222 C1221 1.523 . S
H1223 C1198 0.950 . S
H1224 C1200 0.950 . S
H1225 C1201 0.949 . S
H1226 C1203 0.950 . S
H1227 C1205 0.950 . S
C1228 C1229 1.349 . S
C1228 C1230 1.327 . S
C1228 H1253 0.950 . S
C1229 C1228 1.349 . S
C1229 C1245 1.349 . S
C1230 C1228 1.327 . S
C1230 C1249 1.429 . S
C1230 H1254 0.950 . S
C1231 C1248 1.574 . S
C1231 C1250 1.368 1_455 S
C1231 H1255 0.949 . S
H1232 C1236 0.949 . S
C1233 C1234 1.349 . S
C1233 C1235 1.327 . S
C1233 H1256 0.950 . S
C1234 C1233 1.349 . S
C1234 C1246 1.349 . S
C1235 C1233 1.327 . S
C1235 C1251 1.429 . S
C1235 H1257 0.950 . S
C1236 H1232 0.949 . S
C1236 C1244 1.574 1_455 S
C1236 C1252 1.368 . S
H1237 C1245 0.950 . S
H1238 C1243 0.950 . S
H1239 C1244 0.949 . S
H1240 C1246 0.950 . S
H1241 C1247 0.950 . S
H1242 C1248 0.949 . S
C1243 H1238 0.950 . S
C1243 C1245 1.327 . S
C1243 C1249 1.429 . S
C1244 C1236 1.574 1_655 S
C1244 H1239 0.949 . S
C1244 C1250 1.368 . S
C1245 C1229 1.349 . S
C1245 H1237 0.950 . S
C1245 C1243 1.327 . S
C1246 C1234 1.349 . S
C1246 H1240 0.950 . S
C1246 C1247 1.327 . S
C1247 H1241 0.950 . S
C1247 C1246 1.327 . S
C1247 C1251 1.429 . S
C1248 C1231 1.574 . S
C1248 H1242 0.949 . S
C1248 C1252 1.368 . S
C1249 C1230 1.429 . S
C1249 C1243 1.429 . S
C1249 C1250 1.523 . S
C1250 C1231 1.368 1_655 S
C1250 C1244 1.368 . S
C1250 C1249 1.523 . S
C1251 C1235 1.429 . S
C1251 C1247 1.429 . S
C1251 C1252 1.523 . S
C1252 C1236 1.368 . S
C1252 C1248 1.368 . S
C1252 C1251 1.523 . S
H1253 C1228 0.950 . S
H1254 C1230 0.950 . S
H1255 C1231 0.949 . S
H1256 C1233 0.950 . S
H1257 C1235 0.950 . S
C1258 C1259 1.349 . S
C1258 C1260 1.327 . S
C1258 H1283 0.950 . S
C1259 C1258 1.349 . S
C1259 C1275 1.349 . S
C1260 C1258 1.327 . S
C1260 C1279 1.429 . S
C1260 H1284 0.950 . S
C1261 C1278 1.574 1_655 S
C1261 C1280 1.368 1_655 S
C1261 H1285 0.949 . S
H1262 C1266 0.949 . S
C1263 C1264 1.349 . S
C1263 C1265 1.327 . S
C1263 H1286 0.950 . S
C1264 C1263 1.349 . S
C1264 C1276 1.349 . S
C1265 C1263 1.327 . S
C1265 C1281 1.429 . S
C1265 H1287 0.950 . S
C1266 H1262 0.949 . S
C1266 C1274 1.574 . S
C1266 C1282 1.368 . S
H1267 C1275 0.950 . S
H1268 C1273 0.950 . S
H1269 C1274 0.949 . S
H1270 C1276 0.950 . S
H1271 C1277 0.950 . S
H1272 C1278 0.949 . S
C1273 H1268 0.950 . S
C1273 C1275 1.327 . S
C1273 C1279 1.429 . S
C1274 C1266 1.574 . S
C1274 H1269 0.949 . S
C1274 C1280 1.369 . S
C1275 C1259 1.349 . S
C1275 H1267 0.950 . S
C1275 C1273 1.327 . S
C1276 C1264 1.349 . S
C1276 H1270 0.950 . S
C1276 C1277 1.327 . S
C1277 H1271 0.950 . S
C1277 C1276 1.327 . S
C1277 C1281 1.429 . S
C1278 C1261 1.574 1_455 S
C1278 H1272 0.949 . S
C1278 C1282 1.368 . S
C1279 C1260 1.429 . S
C1279 C1273 1.429 . S
C1279 C1280 1.522 1_655 S
C1280 C1261 1.368 1_455 S
C1280 C1274 1.369 . S
C1280 C1279 1.522 1_455 S
C1281 C1265 1.429 . S
C1281 C1277 1.429 . S
C1281 C1282 1.523 . S
C1282 C1266 1.368 . S
C1282 C1278 1.368 . S
C1282 C1281 1.523 . S
H1283 C1258 0.950 . S
H1284 C1260 0.950 . S
H1285 C1261 0.949 . S
H1286 C1263 0.950 . S
H1287 C1265 0.950 . S
C1288 C1289 1.349 . S
C1288 C1290 1.327 . S
C1288 H1313 0.950 . S
C1289 C1288 1.349 . S
C1289 C1305 1.349 . S
C1290 C1288 1.327 . S
C1290 C1309 1.429 . S
C1290 H1314 0.950 . S
C1291 C1308 1.574 . S
C1291 C1310 1.368 . S
C1291 H1315 0.949 . S
H1292 C1296 0.949 . S
C1293 C1294 1.349 . S
C1293 C1295 1.327 . S
C1293 H1316 0.950 . S
C1294 C1293 1.349 . S
C1294 C1306 1.349 . S
C1295 C1293 1.327 . S
C1295 C1311 1.429 . S
C1295 H1317 0.950 . S
C1296 H1292 0.949 . S
C1296 C1304 1.574 . S
C1296 C1312 1.368 . S
H1297 C1305 0.950 . S
H1298 C1303 0.950 . S
H1299 C1304 0.949 . S
H1300 C1306 0.950 . S
H1301 C1307 0.950 . S
H1302 C1308 0.949 . S
C1303 H1298 0.950 . S
C1303 C1305 1.327 . S
C1303 C1309 1.429 . S
C1304 C1296 1.574 . S
C1304 H1299 0.949 . S
C1304 C1310 1.368 . S
C1305 C1289 1.349 . S
C1305 H1297 0.950 . S
C1305 C1303 1.327 . S
C1306 C1294 1.349 . S
C1306 H1300 0.950 . S
C1306 C1307 1.327 . S
C1307 H1301 0.950 . S
C1307 C1306 1.327 . S
C1307 C1311 1.429 . S
C1308 C1291 1.574 . S
C1308 H1302 0.949 . S
C1308 C1312 1.368 . S
C1309 C1290 1.429 . S
C1309 C1303 1.429 . S
C1309 C1310 1.523 . S
C1310 C1291 1.368 . S
C1310 C1304 1.368 . S
C1310 C1309 1.523 . S
C1311 C1295 1.429 . S
C1311 C1307 1.429 . S
C1311 C1312 1.523 . S
C1312 C1296 1.368 . S
C1312 C1308 1.368 . S
C1312 C1311 1.523 . S
H1313 C1288 0.950 . S
H1314 C1290 0.950 . S
H1315 C1291 0.949 . S
H1316 C1293 0.950 . S
H1317 C1295 0.950 . S
C1318 C1319 1.349 . S
C1318 C1320 1.327 . S
C1318 H1343 0.950 . S
C1319 C1318 1.349 . S
C1319 C1335 1.349 . S
C1320 C1318 1.327 . S
C1320 C1339 1.429 . S
C1320 H1344 0.950 . S
C1321 C1338 1.574 1_655 S
C1321 C1340 1.368 . S
C1321 H1345 0.949 . S
H1322 C1326 0.949 . S
C1323 C1324 1.349 . S
C1323 C1325 1.327 . S
C1323 H1346 0.950 . S
C1324 C1323 1.349 . S
C1324 C1336 1.349 . S
C1325 C1323 1.327 . S
C1325 C1341 1.429 . S
C1325 H1347 0.950 . S
C1326 H1322 0.949 . S
C1326 C1334 1.574 . S
C1326 C1342 1.356 1_655 S
H1327 C1335 0.950 . S
H1328 C1333 0.950 . S
H1329 C1334 0.949 . S
H1330 C1336 0.950 . S
H1331 C1337 0.950 . S
H1332 C1338 0.949 . S
C1333 H1328 0.950 . S
C1333 C1335 1.327 . S
C1333 C1339 1.429 . S
C1334 C1326 1.574 . S
C1334 H1329 0.949 . S
C1334 C1340 1.368 . S
C1335 C1319 1.349 . S
C1335 H1327 0.950 . S
C1335 C1333 1.327 . S
C1336 C1324 1.349 . S
C1336 H1330 0.950 . S
C1336 C1337 1.327 . S
C1337 H1331 0.950 . S
C1337 C1336 1.327 . S
C1337 C1341 1.429 . S
C1338 C1321 1.574 1_455 S
C1338 H1332 0.949 . S
C1338 C1342 1.370 . S
C1339 C1320 1.429 . S
C1339 C1333 1.429 . S
C1339 C1340 1.523 . S
C1340 C1321 1.368 . S
C1340 C1334 1.368 . S
C1340 C1339 1.523 . S
C1341 C1325 1.429 . S
C1341 C1337 1.429 . S
C1341 C1342 1.536 . S
C1342 C1326 1.356 1_455 S
C1342 C1338 1.370 . S
C1342 C1341 1.536 . S
H1343 C1318 0.950 . S
H1344 C1320 0.950 . S
H1345 C1321 0.949 . S
H1346 C1323 0.950 . S
H1347 C1325 0.950 . S
C1348 C1349 1.349 . S
C1348 C1350 1.327 . S
C1348 H1373 0.950 . S
C1349 C1348 1.349 . S
C1349 C1365 1.349 . S
C1350 C1348 1.327 . S
C1350 C1369 1.429 . S
C1350 H1374 0.950 . S
C1351 C1368 1.574 . S
C1351 C1370 1.368 . S
C1351 H1375 0.949 . S
H1352 C1356 0.949 . S
C1353 C1354 1.349 . S
C1353 C1355 1.327 . S
C1353 H1376 0.950 . S
C1354 C1353 1.349 . S
C1354 C1366 1.349 . S
C1355 C1353 1.327 . S
C1355 C1371 1.429 . S
C1355 H1377 0.950 . S
C1356 H1352 0.949 . S
C1356 C1364 1.574 . S
C1356 C1372 1.368 . S
H1357 C1365 0.950 . S
H1358 C1363 0.950 . S
H1359 C1364 0.949 . S
H1360 C1366 0.950 . S
H1361 C1367 0.950 . S
H1362 C1368 0.949 . S
C1363 H1358 0.950 . S
C1363 C1365 1.327 . S
C1363 C1369 1.429 . S
C1364 C1356 1.574 . S
C1364 H1359 0.949 . S
C1364 C1370 1.368 . S
C1365 C1349 1.349 . S
C1365 H1357 0.950 . S
C1365 C1363 1.327 . S
C1366 C1354 1.349 . S
C1366 H1360 0.950 . S
C1366 C1367 1.327 . S
C1367 H1361 0.950 . S
C1367 C1366 1.327 . S
C1367 C1371 1.429 . S
C1368 C1351 1.574 . S
C1368 H1362 0.949 . S
C1368 C1372 1.368 . S
C1369 C1350 1.429 . S
C1369 C1363 1.429 . S
C1369 C1370 1.523 . S
C1370 C1351 1.368 . S
C1370 C1364 1.368 . S
C1370 C1369 1.523 . S
C1371 C1355 1.429 . S
C1371 C1367 1.429 . S
C1371 C1372 1.523 . S
C1372 C1356 1.368 . S
C1372 C1368 1.368 . S
C1372 C1371 1.523 . S
H1373 C1348 0.950 . S
H1374 C1350 0.950 . S
H1375 C1351 0.949 . S
H1376 C1353 0.950 . S
H1377 C1355 0.950 . S
C1378 C1379 1.349 . S
C1378 C1380 1.327 . S
C1378 H1403 0.950 . S
C1379 C1378 1.349 . S
C1379 C1395 1.349 . S
C1380 C1378 1.327 . S
C1380 C1399 1.429 . S
C1380 H1404 0.950 . S
C1381 C1398 1.574 . S
C1381 C1400 1.368 . S
C1381 H1405 0.949 . S
H1382 C1386 0.949 1_565 S
C1383 C1384 1.349 . S
C1383 C1385 1.327 . S
C1383 H1406 0.950 . S
C1384 C1383 1.349 . S
C1384 C1396 1.349 . S
C1385 C1383 1.327 . S
C1385 C1401 1.429 . S
C1385 H1407 0.950 1_565 S
C1386 H1382 0.949 1_545 S
C1386 C1394 1.574 . S
C1386 C1402 1.368 . S
H1387 C1395 0.950 . S
H1388 C1393 0.950 . S
H1389 C1394 0.949 . S
H1390 C1396 0.950 . S
H1391 C1397 0.950 . S
H1392 C1398 0.949 . S
C1393 H1388 0.950 . S
C1393 C1395 1.327 . S
C1393 C1399 1.429 . S
C1394 C1386 1.574 . S
C1394 H1389 0.949 . S
C1394 C1400 1.368 . S
C1395 C1379 1.349 . S
C1395 H1387 0.950 . S
C1395 C1393 1.327 . S
C1396 C1384 1.349 . S
C1396 H1390 0.950 . S
C1396 C1397 1.327 . S
C1397 H1391 0.950 . S
C1397 C1396 1.327 . S
C1397 C1401 1.429 . S
C1398 C1381 1.574 . S
C1398 H1392 0.949 . S
C1398 C1402 1.368 . S
C1399 C1380 1.429 . S
C1399 C1393 1.429 . S
C1399 C1400 1.523 . S
C1400 C1381 1.368 . S
C1400 C1394 1.368 . S
C1400 C1399 1.523 . S
C1401 C1385 1.429 . S
C1401 C1397 1.429 . S
C1401 C1402 1.523 1_565 S
C1402 C1386 1.368 . S
C1402 C1398 1.368 . S
C1402 C1401 1.523 1_545 S
H1403 C1378 0.950 . S
H1404 C1380 0.950 . S
H1405 C1381 0.949 . S
H1406 C1383 0.950 . S
H1407 C1385 0.950 1_545 S
C1408 C1409 1.349 . S
C1408 C1410 1.327 . S
C1408 H1433 0.950 . S
C1409 C1408 1.349 . S
C1409 C1425 1.349 . S
C1410 C1408 1.327 . S
C1410 C1429 1.429 . S
C1410 H1434 0.950 . S
C1411 C1428 1.574 . S
C1411 C1430 1.368 . S
C1411 H1435 0.949 . S
H1412 C1416 0.949 . S
C1413 C1414 1.349 . S
C1413 C1415 1.327 . S
C1413 H1436 0.950 . S
C1414 C1413 1.349 . S
C1414 C1426 1.349 . S
C1415 C1413 1.327 . S
C1415 C1431 1.429 . S
C1415 H1437 0.950 . S
C1416 H1412 0.949 . S
C1416 C1424 1.574 . S
C1416 C1432 1.368 . S
H1417 C1425 0.950 . S
H1418 C1423 0.950 . S
H1419 C1424 0.949 . S
H1420 C1426 0.950 . S
H1421 C1427 0.950 . S
H1422 C1428 0.949 . S
C1423 H1418 0.950 . S
C1423 C1425 1.327 . S
C1423 C1429 1.429 . S
C1424 C1416 1.574 . S
C1424 H1419 0.949 . S
C1424 C1430 1.368 . S
C1425 C1409 1.349 . S
C1425 H1417 0.950 . S
C1425 C1423 1.327 . S
C1426 C1414 1.349 . S
C1426 H1420 0.950 . S
C1426 C1427 1.327 . S
C1427 H1421 0.950 . S
C1427 C1426 1.327 . S
C1427 C1431 1.429 . S
C1428 C1411 1.574 . S
C1428 H1422 0.949 . S
C1428 C1432 1.368 . S
C1429 C1410 1.429 . S
C1429 C1423 1.429 . S
C1429 C1430 1.523 . S
C1430 C1411 1.368 . S
C1430 C1424 1.368 . S
C1430 C1429 1.523 . S
C1431 C1415 1.429 . S
C1431 C1427 1.429 . S
C1431 C1432 1.523 . S
C1432 C1416 1.368 . S
C1432 C1428 1.368 . S
C1432 C1431 1.523 . S
H1433 C1408 0.950 . S
H1434 C1410 0.950 . S
H1435 C1411 0.949 . S
H1436 C1413 0.950 . S
H1437 C1415 0.950 . S
C1438 C1439 1.349 . S
C1438 C1440 1.327 . S
C1438 H1463 0.950 . S
C1439 C1438 1.349 . S
C1439 C1455 1.349 . S
C1440 C1438 1.327 . S
C1440 C1459 1.429 . S
C1440 H1464 0.950 . S
C1441 C1458 1.574 . S
C1441 C1460 1.368 . S
C1441 H1465 0.949 . S
H1442 C1446 0.955 . S
C1443 C1444 1.349 . S
C1443 C1445 1.327 . S
C1443 H1466 0.950 . S
C1444 C1443 1.349 . S
C1444 C1456 1.349 . S
C1445 C1443 1.327 . S
C1445 C1461 1.429 . S
C1445 H1467 0.950 1_545 S
C1446 H1442 0.955 . S
C1446 C1454 1.570 1_545 S
C1446 C1462 1.366 1_545 S
H1447 C1455 0.950 . S
H1448 C1453 0.950 . S
H1449 C1454 0.949 . S
H1450 C1456 0.950 . S
H1451 C1457 0.950 . S
H1452 C1458 0.949 . S
C1453 H1448 0.950 . S
C1453 C1455 1.327 . S
C1453 C1459 1.429 . S
C1454 C1446 1.570 1_565 S
C1454 H1449 0.949 . S
C1454 C1460 1.368 . S
C1455 C1439 1.349 . S
C1455 H1447 0.950 . S
C1455 C1453 1.327 . S
C1456 C1444 1.349 . S
C1456 H1450 0.950 . S
C1456 C1457 1.327 . S
C1457 H1451 0.950 . S
C1457 C1456 1.327 . S
C1457 C1461 1.429 . S
C1458 C1441 1.574 . S
C1458 H1452 0.949 . S
C1458 C1462 1.368 . S
C1459 C1440 1.429 . S
C1459 C1453 1.429 . S
C1459 C1460 1.523 . S
C1460 C1441 1.368 . S
C1460 C1454 1.368 . S
C1460 C1459 1.523 . S
C1461 C1445 1.429 . S
C1461 C1457 1.429 . S
C1461 C1462 1.523 1_545 S
C1462 C1446 1.366 1_565 S
C1462 C1458 1.368 . S
C1462 C1461 1.523 1_565 S
H1463 C1438 0.950 . S
H1464 C1440 0.950 . S
H1465 C1441 0.949 . S
H1466 C1443 0.950 . S
H1467 C1445 0.950 1_565 S
C1468 C1469 1.349 . S
C1468 C1470 1.327 . S
C1468 H1493 0.950 . S
C1469 C1468 1.349 . S
C1469 C1485 1.349 . S
C1470 C1468 1.327 . S
C1470 C1489 1.429 . S
C1470 H1494 0.950 . S
C1471 C1488 1.574 . S
C1471 C1490 1.368 . S
C1471 H1495 0.949 . S
H1472 C1476 0.949 . S
C1473 C1474 1.349 . S
C1473 C1475 1.327 . S
C1473 H1496 0.950 . S
C1474 C1473 1.349 . S
C1474 C1486 1.349 . S
C1475 C1473 1.327 . S
C1475 C1491 1.429 . S
C1475 H1497 0.950 . S
C1476 H1472 0.949 . S
C1476 C1484 1.574 . S
C1476 C1492 1.368 . S
H1477 C1485 0.950 . S
H1478 C1483 0.950 . S
H1479 C1484 0.949 1_556 S
H1480 C1486 0.950 . S
H1481 C1487 0.950 . S
H1482 C1488 0.949 . S
C1483 H1478 0.950 . S
C1483 C1485 1.327 . S
C1483 C1489 1.429 . S
C1484 C1476 1.574 . S
C1484 H1479 0.949 1_554 S
C1484 C1490 1.368 . S
C1485 C1469 1.349 . S
C1485 H1477 0.950 . S
C1485 C1483 1.327 . S
C1486 C1474 1.349 . S
C1486 H1480 0.950 . S
C1486 C1487 1.327 . S
C1487 H1481 0.950 . S
C1487 C1486 1.327 . S
C1487 C1491 1.429 . S
C1488 C1471 1.574 . S
C1488 H1482 0.949 . S
C1488 C1492 1.368 . S
C1489 C1470 1.429 . S
C1489 C1483 1.429 . S
C1489 C1490 1.523 1_556 S
C1490 C1471 1.368 . S
C1490 C1484 1.368 . S
C1490 C1489 1.523 1_554 S
C1491 C1475 1.429 . S
C1491 C1487 1.429 . S
C1491 C1492 1.523 . S
C1492 C1476 1.368 . S
C1492 C1488 1.368 . S
C1492 C1491 1.523 . S
H1493 C1468 0.950 . S
H1494 C1470 0.950 . S
H1495 C1471 0.949 . S
H1496 C1473 0.950 . S
H1497 C1475 0.950 . S
C1498 C1499 1.349 . S
C1498 C1500 1.327 . S
C1498 H1523 0.950 . S
C1499 C1498 1.349 . S
C1499 C1515 1.349 . S
C1500 C1498 1.327 . S
C1500 C1519 1.429 . S
C1500 H1524 0.950 1_545 S
C1501 C1518 1.563 1_545 S
C1501 C1520 1.362 1_545 S
C1501 H1525 0.965 . S
H1502 C1506 0.949 . S
C1503 C1504 1.349 . S
C1503 C1505 1.327 . S
C1503 H1526 0.950 . S
C1504 C1503 1.349 . S
C1504 C1516 1.349 . S
C1505 C1503 1.327 . S
C1505 C1521 1.429 . S
C1505 H1527 0.950 . S
C1506 H1502 0.949 . S
C1506 C1514 1.574 . S
C1506 C1522 1.368 . S
H1507 C1515 0.950 . S
H1508 C1513 0.950 . S
H1509 C1514 0.949 . S
H1510 C1516 0.950 . S
H1511 C1517 0.950 . S
H1512 C1518 0.949 . S
C1513 H1508 0.950 . S
C1513 C1515 1.327 . S
C1513 C1519 1.429 . S
C1514 C1506 1.574 . S
C1514 H1509 0.949 . S
C1514 C1520 1.368 . S
C1515 C1499 1.349 . S
C1515 H1507 0.950 . S
C1515 C1513 1.327 . S
C1516 C1504 1.349 . S
C1516 H1510 0.950 . S
C1516 C1517 1.327 . S
C1517 H1511 0.950 . S
C1517 C1516 1.327 . S
C1517 C1521 1.429 . S
C1518 C1501 1.563 1_565 S
C1518 H1512 0.949 . S
C1518 C1522 1.368 . S
C1519 C1500 1.429 . S
C1519 C1513 1.429 . S
C1519 C1520 1.523 1_545 S
C1520 C1501 1.362 1_565 S
C1520 C1514 1.368 . S
C1520 C1519 1.523 1_565 S
C1521 C1505 1.429 . S
C1521 C1517 1.429 . S
C1521 C1522 1.523 . S
C1522 C1506 1.368 . S
C1522 C1518 1.368 . S
C1522 C1521 1.523 . S
H1523 C1498 0.950 . S
H1524 C1500 0.950 1_565 S
H1525 C1501 0.965 . S
H1526 C1503 0.950 . S
H1527 C1505 0.950 . S
C1528 C1529 1.349 . S
C1528 C1530 1.327 . S
C1528 H1553 0.950 . S
C1529 C1528 1.349 . S
C1529 C1545 1.349 . S
C1530 C1528 1.327 . S
C1530 C1549 1.429 . S
C1530 H1554 0.950 . S
C1531 C1548 1.574 . S
C1531 C1550 1.368 . S
C1531 H1555 0.949 . S
H1532 C1536 0.949 . S
C1533 C1534 1.349 . S
C1533 C1535 1.327 . S
C1533 H1556 0.950 . S
C1534 C1533 1.349 . S
C1534 C1546 1.349 . S
C1535 C1533 1.327 . S
C1535 C1551 1.429 . S
C1535 H1557 0.950 . S
C1536 H1532 0.949 . S
C1536 C1544 1.574 . S
C1536 C1552 1.368 . S
H1537 C1545 0.950 . S
H1538 C1543 0.950 . S
H1539 C1544 0.949 . S
H1540 C1546 0.950 . S
H1541 C1547 0.950 . S
H1542 C1548 0.949 . S
C1543 H1538 0.950 . S
C1543 C1545 1.327 . S
C1543 C1549 1.429 . S
C1544 C1536 1.574 . S
C1544 H1539 0.949 . S
C1544 C1550 1.368 . S
C1545 C1529 1.349 . S
C1545 H1537 0.950 . S
C1545 C1543 1.327 . S
C1546 C1534 1.349 . S
C1546 H1540 0.950 . S
C1546 C1547 1.327 . S
C1547 H1541 0.950 . S
C1547 C1546 1.327 . S
C1547 C1551 1.429 . S
C1548 C1531 1.574 . S
C1548 H1542 0.949 . S
C1548 C1552 1.368 . S
C1549 C1530 1.429 . S
C1549 C1543 1.429 . S
C1549 C1550 1.523 . S
C1550 C1531 1.368 . S
C1550 C1544 1.368 . S
C1550 C1549 1.523 . S
C1551 C1535 1.429 . S
C1551 C1547 1.429 . S
C1551 C1552 1.523 . S
C1552 C1536 1.368 . S
C1552 C1548 1.368 . S
C1552 C1551 1.523 . S
H1553 C1528 0.950 . S
H1554 C1530 0.950 . S
H1555 C1531 0.949 . S
H1556 C1533 0.950 . S
H1557 C1535 0.950 . S
C1558 C1559 1.349 . S
C1558 C1560 1.327 . S
C1558 H1583 0.950 . S
C1559 C1558 1.349 . S
C1559 C1575 1.349 . S
C1560 C1558 1.327 . S
C1560 C1579 1.429 . S
C1560 H1584 0.950 . S
C1561 C1578 1.574 . S
C1561 C1580 1.368 . S
C1561 H1585 0.949 . S
H1562 C1566 0.949 . S
C1563 C1564 1.349 . S
C1563 C1565 1.327 . S
C1563 H1586 0.950 . S
C1564 C1563 1.349 . S
C1564 C1576 1.349 . S
C1565 C1563 1.327 . S
C1565 C1581 1.429 . S
C1565 H1587 0.950 . S
C1566 H1562 0.949 . S
C1566 C1574 1.574 . S
C1566 C1582 1.368 . S
H1567 C1575 0.950 . S
H1568 C1573 0.923 1_545 S
H1569 C1574 0.949 1_565 S
H1570 C1576 0.950 . S
H1571 C1577 0.950 . S
H1572 C1578 0.949 . S
C1573 H1568 0.923 1_565 S
C1573 C1575 1.327 . S
C1573 C1579 1.429 . S
C1574 C1566 1.574 . S
C1574 H1569 0.949 1_545 S
C1574 C1580 1.368 . S
C1575 C1559 1.349 . S
C1575 H1567 0.950 . S
C1575 C1573 1.327 . S
C1576 C1564 1.349 . S
C1576 H1570 0.950 . S
C1576 C1577 1.327 . S
C1577 H1571 0.950 . S
C1577 C1576 1.327 . S
C1577 C1581 1.429 . S
C1578 C1561 1.574 . S
C1578 H1572 0.949 . S
C1578 C1582 1.368 . S
C1579 C1560 1.429 . S
C1579 C1573 1.429 . S
C1579 C1580 1.523 1_565 S
C1580 C1561 1.368 . S
C1580 C1574 1.368 . S
C1580 C1579 1.523 1_545 S
C1581 C1565 1.429 . S
C1581 C1577 1.429 . S
C1581 C1582 1.523 . S
C1582 C1566 1.368 . S
C1582 C1578 1.368 . S
C1582 C1581 1.523 . S
H1583 C1558 0.950 . S
H1584 C1560 0.950 . S
H1585 C1561 0.949 . S
H1586 C1563 0.950 . S
H1587 C1565 0.950 . S
C1588 C1589 1.349 . S
C1588 C1590 1.327 . S
C1588 H1613 0.950 . S
C1589 C1588 1.349 . S
C1589 C1605 1.349 . S
C1590 C1588 1.327 . S
C1590 C1609 1.429 . S
C1590 H1614 0.950 . S
C1591 C1608 1.574 . S
C1591 C1610 1.368 . S
C1591 H1615 0.949 . S
H1592 C1596 0.949 . S
C1593 C1594 1.349 . S
C1593 C1595 1.327 . S
C1593 H1616 0.950 . S
C1594 C1593 1.349 . S
C1594 C1606 1.349 . S
C1595 C1593 1.327 . S
C1595 C1611 1.429 . S
C1595 H1617 0.950 . S
C1596 H1592 0.949 . S
C1596 C1604 1.574 . S
C1596 C1612 1.368 . S
H1597 C1605 0.950 . S
H1598 C1603 0.950 . S
H1599 C1604 0.972 . S
H1600 C1606 0.950 . S
H1601 C1607 0.950 . S
H1602 C1608 0.949 . S
C1603 H1598 0.950 . S
C1603 C1605 1.327 . S
C1603 C1609 1.429 . S
C1604 C1596 1.574 . S
C1604 H1599 0.972 . S
C1604 C1610 1.368 . S
C1605 C1589 1.349 . S
C1605 H1597 0.950 . S
C1605 C1603 1.327 . S
C1606 C1594 1.349 . S
C1606 H1600 0.950 . S
C1606 C1607 1.327 . S
C1607 H1601 0.950 . S
C1607 C1606 1.327 . S
C1607 C1611 1.429 . S
C1608 C1591 1.574 . S
C1608 H1602 0.949 . S
C1608 C1612 1.368 . S
C1609 C1590 1.429 . S
C1609 C1603 1.429 . S
C1609 C1610 1.523 1_554 S
C1610 C1591 1.368 . S
C1610 C1604 1.368 . S
C1610 C1609 1.523 1_556 S
C1611 C1595 1.429 . S
C1611 C1607 1.429 . S
C1611 C1612 1.523 . S
C1612 C1596 1.368 . S
C1612 C1608 1.368 . S
C1612 C1611 1.523 . S
H1613 C1588 0.950 . S
H1614 C1590 0.950 . S
H1615 C1591 0.949 . S
H1616 C1593 0.950 . S
H1617 C1595 0.950 . S
C1618 C1619 1.349 . S
C1618 C1620 1.327 . S
C1618 H1643 0.950 . S
C1619 C1618 1.349 . S
C1619 C1635 1.349 . S
C1620 C1618 1.327 . S
C1620 C1639 1.429 . S
C1620 H1644 0.950 . S
C1621 C1638 1.574 . S
C1621 C1640 1.368 . S
C1621 H1645 0.949 . S
H1622 C1626 0.949 . S
C1623 C1624 1.349 . S
C1623 C1625 1.327 . S
C1623 H1646 0.950 . S
C1624 C1623 1.349 . S
C1624 C1636 1.349 . S
C1625 C1623 1.327 . S
C1625 C1641 1.429 . S
C1625 H1647 0.950 . S
C1626 H1622 0.949 . S
C1626 C1634 1.574 . S
C1626 C1642 1.368 . S
H1627 C1635 0.950 . S
H1628 C1633 0.950 . S
H1629 C1634 0.949 . S
H1630 C1636 0.950 . S
H1631 C1637 0.950 . S
H1632 C1638 0.949 . S
C1633 H1628 0.950 . S
C1633 C1635 1.327 . S
C1633 C1639 1.429 . S
C1634 C1626 1.574 . S
C1634 H1629 0.949 . S
C1634 C1640 1.368 . S
C1635 C1619 1.349 . S
C1635 H1627 0.950 . S
C1635 C1633 1.327 . S
C1636 C1624 1.349 . S
C1636 H1630 0.950 . S
C1636 C1637 1.327 . S
C1637 H1631 0.950 . S
C1637 C1636 1.327 . S
C1637 C1641 1.429 . S
C1638 C1621 1.574 . S
C1638 H1632 0.949 . S
C1638 C1642 1.368 . S
C1639 C1620 1.429 . S
C1639 C1633 1.429 . S
C1639 C1640 1.523 1_655 S
C1640 C1621 1.368 . S
C1640 C1634 1.368 . S
C1640 C1639 1.523 1_455 S
C1641 C1625 1.429 . S
C1641 C1637 1.429 . S
C1641 C1642 1.523 . S
C1642 C1626 1.368 . S
C1642 C1638 1.368 . S
C1642 C1641 1.523 . S
H1643 C1618 0.950 . S
H1644 C1620 0.950 . S
H1645 C1621 0.949 . S
H1646 C1623 0.950 . S
H1647 C1625 0.950 . S
C1648 C1649 1.349 . S
C1648 C1650 1.327 . S
C1648 H1673 0.950 . S
C1649 C1648 1.349 . S
C1649 C1665 1.349 . S
C1650 C1648 1.327 . S
C1650 C1669 1.429 . S
C1650 H1674 0.950 . S
C1651 C1668 1.574 . S
C1651 C1670 1.368 . S
C1651 H1675 0.949 . S
H1652 C1656 0.949 . S
C1653 C1654 1.349 . S
C1653 C1655 1.327 . S
C1653 H1676 0.950 . S
C1654 C1653 1.349 . S
C1654 C1666 1.349 . S
C1655 C1653 1.327 . S
C1655 C1671 1.429 . S
C1655 H1677 0.950 . S
C1656 H1652 0.949 . S
C1656 C1664 1.574 . S
C1656 C1672 1.368 . S
H1657 C1665 0.950 . S
H1658 C1663 0.950 . S
H1659 C1664 0.949 . S
H1660 C1666 0.950 . S
H1661 C1667 0.950 . S
H1662 C1668 0.949 . S
C1663 H1658 0.950 . S
C1663 C1665 1.327 . S
C1663 C1669 1.429 . S
C1664 C1656 1.574 . S
C1664 H1659 0.949 . S
C1664 C1670 1.368 . S
C1665 C1649 1.349 . S
C1665 H1657 0.950 . S
C1665 C1663 1.327 . S
C1666 C1654 1.349 . S
C1666 H1660 0.950 . S
C1666 C1667 1.327 . S
C1667 H1661 0.950 . S
C1667 C1666 1.327 . S
C1667 C1671 1.429 . S
C1668 C1651 1.574 . S
C1668 H1662 0.949 . S
C1668 C1672 1.368 . S
C1669 C1650 1.429 . S
C1669 C1663 1.429 . S
C1669 C1670 1.523 . S
C1670 C1651 1.368 . S
C1670 C1664 1.368 . S
C1670 C1669 1.523 . S
C1671 C1655 1.429 . S
C1671 C1667 1.429 . S
C1671 C1672 1.523 . S
C1672 C1656 1.368 . S
C1672 C1668 1.368 . S
C1672 C1671 1.523 . S
H1673 C1648 0.950 . S
H1674 C1650 0.950 . S
H1675 C1651 0.949 . S
H1676 C1653 0.950 . S
H1677 C1655 0.950 . S
C1678 C1679 1.349 . S
C1678 C1680 1.327 . S
C1678 H1703 0.950 . S
C1679 C1678 1.349 . S
C1679 C1695 1.349 . S
C1680 C1678 1.327 . S
C1680 C1699 1.429 . S
C1680 H1704 0.950 . S
C1681 C1698 1.574 . S
C1681 C1700 1.368 . S
C1681 H1705 0.937 1_655 S
H1682 C1686 0.949 . S
C1683 C1684 1.349 . S
C1683 C1685 1.327 . S
C1683 H1706 0.950 . S
C1684 C1683 1.349 . S
C1684 C1696 1.349 . S
C1685 C1683 1.327 . S
C1685 C1701 1.429 . S
C1685 H1707 0.950 . S
C1686 H1682 0.949 . S
C1686 C1694 1.574 . S
C1686 C1702 1.368 . S
H1687 C1695 0.950 . S
H1688 C1693 0.950 . S
H1689 C1694 0.949 . S
H1690 C1696 0.950 . S
H1691 C1697 0.950 . S
H1692 C1698 0.949 . S
C1693 H1688 0.950 . S
C1693 C1695 1.327 . S
C1693 C1699 1.429 . S
C1694 C1686 1.574 . S
C1694 H1689 0.949 . S
C1694 C1700 1.368 . S
C1695 C1679 1.349 . S
C1695 H1687 0.950 . S
C1695 C1693 1.327 . S
C1696 C1684 1.349 . S
C1696 H1690 0.950 . S
C1696 C1697 1.327 . S
C1697 H1691 0.950 . S
C1697 C1696 1.327 . S
C1697 C1701 1.429 . S
C1698 C1681 1.574 . S
C1698 H1692 0.949 . S
C1698 C1702 1.368 . S
C1699 C1680 1.429 . S
C1699 C1693 1.429 . S
C1699 C1700 1.523 1_455 S
C1700 C1681 1.368 . S
C1700 C1694 1.368 . S
C1700 C1699 1.523 1_655 S
C1701 C1685 1.429 . S
C1701 C1697 1.429 . S
C1701 C1702 1.523 . S
C1702 C1686 1.368 . S
C1702 C1698 1.368 . S
C1702 C1701 1.523 . S
H1703 C1678 0.950 . S
H1704 C1680 0.950 . S
H1705 C1681 0.937 1_455 S
H1706 C1683 0.950 . S
H1707 C1685 0.950 . S
C1708 C1709 1.349 . S
C1708 C1710 1.327 . S
C1708 H1733 0.950 . S
C1709 C1708 1.349 . S
C1709 C1725 1.349 . S
C1710 C1708 1.327 . S
C1710 C1729 1.429 . S
C1710 H1734 0.950 . S
C1711 C1728 1.574 1_455 S
C1711 C1730 1.368 1_455 S
C1711 H1735 0.949 . S
H1712 C1716 0.949 . S
C1713 C1714 1.349 . S
C1713 C1715 1.327 . S
C1713 H1736 0.950 . S
C1714 C1713 1.349 . S
C1714 C1726 1.349 . S
C1715 C1713 1.327 . S
C1715 C1731 1.429 . S
C1715 H1737 0.950 . S
C1716 H1712 0.949 . S
C1716 C1724 1.574 . S
C1716 C1732 1.368 . S
H1717 C1725 0.950 . S
H1718 C1723 0.950 . S
H1719 C1724 0.949 . S
H1720 C1726 0.950 . S
H1721 C1727 0.950 . S
H1722 C1728 0.949 . S
C1723 H1718 0.950 . S
C1723 C1725 1.327 . S
C1723 C1729 1.429 . S
C1724 C1716 1.574 . S
C1724 H1719 0.949 . S
C1724 C1730 1.368 . S
C1725 C1709 1.349 . S
C1725 H1717 0.950 . S
C1725 C1723 1.327 . S
C1726 C1714 1.349 . S
C1726 H1720 0.950 . S
C1726 C1727 1.327 . S
C1727 H1721 0.950 . S
C1727 C1726 1.327 . S
C1727 C1731 1.429 . S
C1728 C1711 1.574 1_655 S
C1728 H1722 0.949 . S
C1728 C1732 1.368 . S
C1729 C1710 1.429 . S
C1729 C1723 1.429 . S
C1729 C1730 1.523 1_455 S
C1730 C1711 1.368 1_655 S
C1730 C1724 1.368 . S
C1730 C1729 1.523 1_655 S
C1731 C1715 1.429 . S
C1731 C1727 1.429 . S
C1731 C1732 1.523 . S
C1732 C1716 1.368 . S
C1732 C1728 1.368 . S
C1732 C1731 1.523 . S
H1733 C1708 0.950 . S
H1734 C1710 0.950 . S
H1735 C1711 0.949 . S
H1736 C1713 0.950 . S
H1737 C1715 0.950 . S
C1738 C1739 1.349 . S
C1738 C1740 1.327 . S
C1738 H1763 0.950 . S
C1739 C1738 1.349 . S
C1739 C1755 1.349 . S
C1740 C1738 1.327 . S
C1740 C1759 1.429 . S
C1740 H1764 0.950 . S
C1741 C1758 1.574 . S
C1741 C1760 1.368 . S
C1741 H1765 0.949 . S
H1742 C1746 0.949 . S
C1743 C1744 1.349 . S
C1743 C1745 1.327 . S
C1743 H1766 0.950 . S
C1744 C1743 1.349 . S
C1744 C1756 1.349 . S
C1745 C1743 1.327 . S
C1745 C1761 1.429 . S
C1745 H1767 0.950 . S
C1746 H1742 0.949 . S
C1746 C1754 1.574 . S
C1746 C1762 1.368 . S
H1747 C1755 0.950 . S
H1748 C1753 0.950 . S
H1749 C1754 0.949 . S
H1750 C1756 0.950 . S
H1751 C1757 0.950 . S
H1752 C1758 0.949 . S
C1753 H1748 0.950 . S
C1753 C1755 1.327 . S
C1753 C1759 1.429 . S
C1754 C1746 1.574 . S
C1754 H1749 0.949 . S
C1754 C1760 1.368 . S
C1755 C1739 1.349 . S
C1755 H1747 0.950 . S
C1755 C1753 1.327 . S
C1756 C1744 1.349 . S
C1756 H1750 0.950 . S
C1756 C1757 1.327 . S
C1757 H1751 0.950 . S
C1757 C1756 1.327 . S
C1757 C1761 1.429 . S
C1758 C1741 1.574 . S
C1758 H1752 0.949 . S
C1758 C1762 1.368 . S
C1759 C1740 1.429 . S
C1759 C1753 1.429 . S
C1759 C1760 1.523 . S
C1760 C1741 1.368 . S
C1760 C1754 1.368 . S
C1760 C1759 1.523 . S
C1761 C1745 1.429 . S
C1761 C1757 1.429 . S
C1761 C1762 1.523 . S
C1762 C1746 1.368 . S
C1762 C1758 1.368 . S
C1762 C1761 1.523 . S
H1763 C1738 0.950 . S
H1764 C1740 0.950 . S
H1765 C1741 0.949 . S
H1766 C1743 0.950 . S
H1767 C1745 0.950 . S
C1768 C1769 1.349 . S
C1768 C1770 1.327 . S
C1768 H1793 0.950 . S
C1769 C1768 1.349 . S
C1769 C1785 1.349 . S
C1770 C1768 1.327 . S
C1770 C1789 1.429 . S
C1770 H1794 0.950 1_655 S
C1771 C1788 1.574 . S
C1771 C1790 1.368 . S
C1771 H1795 0.949 1_455 S
H1772 C1776 0.949 . S
C1773 C1774 1.349 . S
C1773 C1775 1.327 . S
C1773 H1796 0.950 . S
C1774 C1773 1.349 . S
C1774 C1786 1.349 . S
C1775 C1773 1.327 . S
C1775 C1791 1.429 . S
C1775 H1797 0.950 . S
C1776 H1772 0.949 . S
C1776 C1784 1.574 . S
C1776 C1792 1.368 . S
H1777 C1785 0.950 . S
H1778 C1783 0.950 . S
H1779 C1784 0.949 . S
H1780 C1786 0.950 . S
H1781 C1787 0.950 . S
H1782 C1788 0.949 . S
C1783 H1778 0.950 . S
C1783 C1785 1.327 . S
C1783 C1789 1.429 . S
C1784 C1776 1.574 . S
C1784 H1779 0.949 . S
C1784 C1790 1.368 . S
C1785 C1769 1.349 . S
C1785 H1777 0.950 . S
C1785 C1783 1.327 . S
C1786 C1774 1.349 . S
C1786 H1780 0.950 . S
C1786 C1787 1.327 . S
C1787 H1781 0.950 . S
C1787 C1786 1.327 . S
C1787 C1791 1.429 . S
C1788 C1771 1.574 . S
C1788 H1782 0.949 . S
C1788 C1792 1.368 . S
C1789 C1770 1.429 . S
C1789 C1783 1.429 . S
C1789 C1790 1.523 1_655 S
C1790 C1771 1.368 . S
C1790 C1784 1.368 . S
C1790 C1789 1.523 1_455 S
C1791 C1775 1.429 . S
C1791 C1787 1.429 . S
C1791 C1792 1.523 . S
C1792 C1776 1.368 . S
C1792 C1788 1.368 . S
C1792 C1791 1.523 . S
H1793 C1768 0.950 . S
H1794 C1770 0.950 1_455 S
H1795 C1771 0.949 1_655 S
H1796 C1773 0.950 . S
H1797 C1775 0.950 . S
C1798 C1799 1.349 . S
C1798 C1800 1.327 . S
C1798 H1823 0.950 . S
C1799 C1798 1.349 . S
C1799 C1815 1.349 . S
C1800 C1798 1.327 . S
C1800 C1819 1.429 . S
C1800 H1824 0.950 . S
C1801 C1818 1.574 . S
C1801 C1820 1.368 . S
C1801 H1825 0.949 . S
H1802 C1806 0.949 . S
C1803 C1804 1.349 . S
C1803 C1805 1.327 . S
C1803 H1826 0.950 . S
C1804 C1803 1.349 . S
C1804 C1816 1.349 . S
C1805 C1803 1.327 . S
C1805 C1821 1.429 . S
C1805 H1827 0.950 . S
C1806 H1802 0.949 . S
C1806 C1814 1.574 . S
C1806 C1822 1.368 . S
H1807 C1815 0.950 . S
H1808 C1813 0.950 . S
H1809 C1814 0.949 . S
H1810 C1816 0.950 . S
H1811 C1817 0.950 . S
H1812 C1818 0.949 . S
C1813 H1808 0.950 . S
C1813 C1815 1.327 . S
C1813 C1819 1.429 . S
C1814 C1806 1.574 . S
C1814 H1809 0.949 . S
C1814 C1820 1.368 . S
C1815 C1799 1.349 . S
C1815 H1807 0.950 . S
C1815 C1813 1.327 . S
C1816 C1804 1.349 . S
C1816 H1810 0.950 . S
C1816 C1817 1.327 . S
C1817 H1811 0.950 . S
C1817 C1816 1.327 . S
C1817 C1821 1.429 . S
C1818 C1801 1.574 . S
C1818 H1812 0.949 . S
C1818 C1822 1.368 . S
C1819 C1800 1.429 . S
C1819 C1813 1.429 . S
C1819 C1820 1.523 . S
C1820 C1801 1.368 . S
C1820 C1814 1.368 . S
C1820 C1819 1.523 . S
C1821 C1805 1.429 . S
C1821 C1817 1.429 . S
C1821 C1822 1.523 . S
C1822 C1806 1.368 . S
C1822 C1818 1.368 . S
C1822 C1821 1.523 . S
H1823 C1798 0.950 . S
H1824 C1800 0.950 . S
H1825 C1801 0.949 . S
H1826 C1803 0.950 . S
H1827 C1805 0.950 . S
C1828 C1829 1.349 . S
C1828 C1830 1.327 . S
C1828 H1853 0.950 . S
C1829 C1828 1.349 . S
C1829 C1845 1.349 . S
C1830 C1828 1.327 . S
C1830 C1849 1.429 . S
C1830 H1854 0.950 . S
C1831 C1848 1.574 . S
C1831 C1850 1.368 . S
C1831 H1855 0.949 . S
H1832 C1836 0.949 . S
C1833 C1834 1.349 . S
C1833 C1835 1.327 . S
C1833 H1856 0.950 . S
C1834 C1833 1.349 . S
C1834 C1846 1.349 . S
C1835 C1833 1.327 . S
C1835 C1851 1.429 . S
C1835 H1857 0.950 . S
C1836 H1832 0.949 . S
C1836 C1844 1.574 . S
C1836 C1852 1.368 . S
H1837 C1845 0.950 . S
H1838 C1843 0.950 . S
H1839 C1844 0.949 . S
H1840 C1846 0.950 . S
H1841 C1847 0.950 . S
H1842 C1848 0.949 . S
C1843 H1838 0.950 . S
C1843 C1845 1.327 . S
C1843 C1849 1.429 . S
C1844 C1836 1.574 . S
C1844 H1839 0.949 . S
C1844 C1850 1.368 . S
C1845 C1829 1.349 . S
C1845 H1837 0.950 . S
C1845 C1843 1.327 . S
C1846 C1834 1.349 . S
C1846 H1840 0.950 . S
C1846 C1847 1.327 . S
C1847 H1841 0.950 . S
C1847 C1846 1.327 . S
C1847 C1851 1.429 . S
C1848 C1831 1.574 . S
C1848 H1842 0.949 . S
C1848 C1852 1.368 . S
C1849 C1830 1.429 . S
C1849 C1843 1.429 . S
C1849 C1850 1.523 . S
C1850 C1831 1.368 . S
C1850 C1844 1.368 . S
C1850 C1849 1.523 . S
C1851 C1835 1.429 . S
C1851 C1847 1.429 . S
C1851 C1852 1.523 . S
C1852 C1836 1.368 . S
C1852 C1848 1.368 . S
C1852 C1851 1.523 . S
H1853 C1828 0.950 . S
H1854 C1830 0.950 . S
H1855 C1831 0.949 . S
H1856 C1833 0.950 . S
H1857 C1835 0.950 . S
C1858 C1859 1.349 . S
C1858 C1860 1.327 . S
C1858 H1883 0.950 . S
C1859 C1858 1.349 . S
C1859 C1875 1.349 . S
C1860 C1858 1.327 . S
C1860 C1879 1.429 . S
C1860 H1884 0.950 1_554 S
C1861 C1878 1.574 . S
C1861 C1880 1.368 . S
C1861 H1885 0.949 1_556 S
H1862 C1866 0.949 . S
C1863 C1864 1.349 . S
C1863 C1865 1.327 . S
C1863 H1886 0.950 . S
C1864 C1863 1.349 . S
C1864 C1876 1.349 . S
C1865 C1863 1.327 . S
C1865 C1881 1.429 . S
C1865 H1887 0.950 . S
C1866 H1862 0.949 . S
C1866 C1874 1.574 . S
C1866 C1882 1.368 . S
H1867 C1875 0.950 . S
H1868 C1873 0.950 . S
H1869 C1874 0.949 . S
H1870 C1876 0.950 . S
H1871 C1877 0.950 . S
H1872 C1878 0.949 . S
C1873 H1868 0.950 . S
C1873 C1875 1.327 . S
C1873 C1879 1.429 . S
C1874 C1866 1.574 . S
C1874 H1869 0.949 . S
C1874 C1880 1.368 . S
C1875 C1859 1.349 . S
C1875 H1867 0.950 . S
C1875 C1873 1.327 . S
C1876 C1864 1.349 . S
C1876 H1870 0.950 . S
C1876 C1877 1.327 . S
C1877 H1871 0.950 . S
C1877 C1876 1.327 . S
C1877 C1881 1.429 . S
C1878 C1861 1.574 . S
C1878 H1872 0.949 . S
C1878 C1882 1.368 . S
C1879 C1860 1.429 . S
C1879 C1873 1.429 . S
C1879 C1880 1.523 1_554 S
C1880 C1861 1.368 . S
C1880 C1874 1.368 . S
C1880 C1879 1.523 1_556 S
C1881 C1865 1.429 . S
C1881 C1877 1.429 . S
C1881 C1882 1.523 . S
C1882 C1866 1.368 . S
C1882 C1878 1.368 . S
C1882 C1881 1.523 . S
H1883 C1858 0.950 . S
H1884 C1860 0.950 1_556 S
H1885 C1861 0.949 1_554 S
H1886 C1863 0.950 . S
H1887 C1865 0.950 . S
C1888 C1889 1.349 . S
C1888 C1890 1.327 . S
C1888 H1913 0.950 . S
C1889 C1888 1.349 . S
C1889 C1905 1.349 . S
C1890 C1888 1.327 . S
C1890 C1909 1.429 . S
C1890 H1914 0.950 . S
C1891 C1908 1.574 . S
C1891 C1910 1.368 . S
C1891 H1915 0.949 . S
H1892 C1896 0.949 . S
C1893 C1894 1.349 . S
C1893 C1895 1.327 . S
C1893 H1916 0.950 . S
C1894 C1893 1.349 . S
C1894 C1906 1.349 . S
C1895 C1893 1.327 . S
C1895 C1911 1.429 . S
C1895 H1917 0.950 . S
C1896 H1892 0.949 . S
C1896 C1904 1.574 . S
C1896 C1912 1.368 . S
H1897 C1905 0.950 . S
H1898 C1903 0.950 . S
H1899 C1904 0.949 . S
H1900 C1906 0.950 . S
H1901 C1907 0.950 . S
H1902 C1908 0.949 . S
C1903 H1898 0.950 . S
C1903 C1905 1.327 . S
C1903 C1909 1.429 . S
C1904 C1896 1.574 . S
C1904 H1899 0.949 . S
C1904 C1910 1.368 . S
C1905 C1889 1.349 . S
C1905 H1897 0.950 . S
C1905 C1903 1.327 . S
C1906 C1894 1.349 . S
C1906 H1900 0.950 . S
C1906 C1907 1.327 . S
C1907 H1901 0.950 . S
C1907 C1906 1.327 . S
C1907 C1911 1.429 . S
C1908 C1891 1.574 . S
C1908 H1902 0.949 . S
C1908 C1912 1.368 . S
C1909 C1890 1.429 . S
C1909 C1903 1.429 . S
C1909 C1910 1.523 . S
C1910 C1891 1.368 . S
C1910 C1904 1.368 . S
C1910 C1909 1.523 . S
C1911 C1895 1.429 . S
C1911 C1907 1.429 . S
C1911 C1912 1.523 . S
C1912 C1896 1.368 . S
C1912 C1908 1.368 . S
C1912 C1911 1.523 . S
H1913 C1888 0.950 . S
H1914 C1890 0.950 . S
H1915 C1891 0.949 . S
H1916 C1893 0.950 . S
H1917 C1895 0.950 . S
C1918 C1919 1.349 . S
C1918 C1920 1.327 . S
C1918 H1943 0.950 . S
C1919 C1918 1.349 . S
C1919 C1935 1.349 . S
C1920 C1918 1.327 . S
C1920 C1939 1.429 . S
C1920 H1944 0.950 . S
C1921 C1938 1.574 . S
C1921 C1940 1.368 . S
C1921 H1945 0.949 . S
H1922 C1926 0.949 . S
C1923 C1924 1.349 . S
C1923 C1925 1.327 . S
C1923 H1946 0.950 . S
C1924 C1923 1.349 . S
C1924 C1936 1.349 . S
C1925 C1923 1.327 . S
C1925 C1941 1.429 . S
C1925 H1947 0.950 . S
C1926 H1922 0.949 . S
C1926 C1934 1.574 . S
C1926 C1942 1.368 . S
H1927 C1935 0.950 . S
H1928 C1933 0.950 . S
H1929 C1934 0.949 . S
H1930 C1936 0.950 . S
H1931 C1937 0.950 . S
H1932 C1938 0.949 . S
C1933 H1928 0.950 . S
C1933 C1935 1.327 . S
C1933 C1939 1.429 . S
C1934 C1926 1.574 . S
C1934 H1929 0.949 . S
C1934 C1940 1.368 . S
C1935 C1919 1.349 . S
C1935 H1927 0.950 . S
C1935 C1933 1.327 . S
C1936 C1924 1.349 . S
C1936 H1930 0.950 . S
C1936 C1937 1.327 . S
C1937 H1931 0.950 . S
C1937 C1936 1.327 . S
C1937 C1941 1.429 . S
C1938 C1921 1.574 . S
C1938 H1932 0.949 . S
C1938 C1942 1.368 . S
C1939 C1920 1.429 . S
C1939 C1933 1.429 . S
C1939 C1940 1.523 . S
C1940 C1921 1.368 . S
C1940 C1934 1.368 . S
C1940 C1939 1.523 . S
C1941 C1925 1.429 . S
C1941 C1937 1.429 . S
C1941 C1942 1.523 . S
C1942 C1926 1.368 . S
C1942 C1938 1.368 . S
C1942 C1941 1.523 . S
H1943 C1918 0.950 . S
H1944 C1920 0.950 . S
H1945 C1921 0.949 . S
H1946 C1923 0.950 . S
H1947 C1925 0.950 . S
C1948 C1949 1.349 . S
C1948 C1950 1.327 . S
C1948 H1973 0.950 . S
C1949 C1948 1.349 . S
C1949 C1965 1.349 . S
C1950 C1948 1.327 . S
C1950 C1969 1.429 . S
C1950 H1974 0.950 . S
C1951 C1968 1.574 . S
C1951 C1970 1.368 . S
C1951 H1975 0.949 . S
H1952 C1956 0.949 . S
C1953 C1954 1.349 . S
C1953 C1955 1.327 . S
C1953 H1976 0.950 . S
C1954 C1953 1.349 . S
C1954 C1966 1.349 . S
C1955 C1953 1.327 . S
C1955 C1971 1.429 . S
C1955 H1977 0.950 . S
C1956 H1952 0.949 . S
C1956 C1964 1.574 . S
C1956 C1972 1.368 . S
H1957 C1965 0.950 . S
H1958 C1963 0.950 . S
H1959 C1964 0.949 . S
H1960 C1966 0.950 . S
H1961 C1967 0.950 . S
H1962 C1968 0.949 . S
C1963 H1958 0.950 . S
C1963 C1965 1.327 . S
C1963 C1969 1.429 . S
C1964 C1956 1.574 . S
C1964 H1959 0.949 . S
C1964 C1970 1.368 . S
C1965 C1949 1.349 . S
C1965 H1957 0.950 . S
C1965 C1963 1.327 . S
C1966 C1954 1.349 . S
C1966 H1960 0.950 . S
C1966 C1967 1.327 . S
C1967 H1961 0.950 . S
C1967 C1966 1.327 . S
C1967 C1971 1.429 . S
C1968 C1951 1.574 . S
C1968 H1962 0.949 . S
C1968 C1972 1.368 . S
C1969 C1950 1.429 . S
C1969 C1963 1.429 . S
C1969 C1970 1.523 . S
C1970 C1951 1.368 . S
C1970 C1964 1.368 . S
C1970 C1969 1.523 . S
C1971 C1955 1.429 . S
C1971 C1967 1.429 . S
C1971 C1972 1.523 . S
C1972 C1956 1.368 . S
C1972 C1968 1.368 . S
C1972 C1971 1.523 . S
H1973 C1948 0.950 . S
H1974 C1950 0.950 . S
H1975 C1951 0.949 . S
H1976 C1953 0.950 . S
H1977 C1955 0.950 . S
C1978 C1979 1.349 . S
C1978 C1980 1.327 . S
C1978 H2003 0.950 . S
C1979 C1978 1.349 . S
C1979 C1995 1.349 . S
C1980 C1978 1.327 . S
C1980 C1999 1.429 . S
C1980 H2004 0.950 . S
C1981 C1998 1.574 . S
C1981 C2000 1.368 . S
C1981 H2005 0.949 . S
H1982 C1986 0.949 . S
C1983 C1984 1.349 . S
C1983 C1985 1.327 . S
C1983 H2006 0.950 . S
C1984 C1983 1.349 . S
C1984 C1996 1.349 . S
C1985 C1983 1.327 . S
C1985 C2001 1.429 . S
C1985 H2007 0.950 . S
C1986 H1982 0.949 . S
C1986 C1994 1.574 . S
C1986 C2002 1.368 . S
H1987 C1995 0.950 . S
H1988 C1993 0.950 . S
H1989 C1994 0.949 . S
H1990 C1996 0.950 . S
H1991 C1997 0.950 . S
H1992 C1998 0.949 . S
C1993 H1988 0.950 . S
C1993 C1995 1.327 . S
C1993 C1999 1.429 . S
C1994 C1986 1.574 . S
C1994 H1989 0.949 . S
C1994 C2000 1.368 . S
C1995 C1979 1.349 . S
C1995 H1987 0.950 . S
C1995 C1993 1.327 . S
C1996 C1984 1.349 . S
C1996 H1990 0.950 . S
C1996 C1997 1.327 . S
C1997 H1991 0.950 . S
C1997 C1996 1.327 . S
C1997 C2001 1.429 . S
C1998 C1981 1.574 . S
C1998 H1992 0.949 . S
C1998 C2002 1.368 . S
C1999 C1980 1.429 . S
C1999 C1993 1.429 . S
C1999 C2000 1.523 . S
C2000 C1981 1.368 . S
C2000 C1994 1.368 . S
C2000 C1999 1.523 . S
C2001 C1985 1.429 . S
C2001 C1997 1.429 . S
C2001 C2002 1.523 1_556 S
C2002 C1986 1.368 . S
C2002 C1998 1.368 . S
C2002 C2001 1.523 1_554 S
H2003 C1978 0.950 . S
H2004 C1980 0.950 . S
H2005 C1981 0.949 . S
H2006 C1983 0.950 . S
H2007 C1985 0.950 . S
C2008 C2009 1.349 . S
C2008 C2010 1.327 . S
C2008 H2033 0.950 . S
C2009 C2008 1.349 . S
C2009 C2025 1.349 . S
C2010 C2008 1.327 . S
C2010 C2029 1.429 . S
C2010 H2034 0.950 . S
C2011 C2028 1.574 . S
C2011 C2030 1.368 . S
C2011 H2035 0.949 . S
H2012 C2016 0.949 . S
C2013 C2014 1.349 . S
C2013 C2015 1.327 . S
C2013 H2036 0.950 . S
C2014 C2013 1.349 . S
C2014 C2026 1.349 . S
C2015 C2013 1.327 . S
C2015 C2031 1.429 . S
C2015 H2037 0.950 . S
C2016 H2012 0.949 . S
C2016 C2024 1.574 . S
C2016 C2032 1.368 . S
H2017 C2025 0.950 . S
H2018 C2023 0.950 . S
H2019 C2024 0.949 . S
H2020 C2026 0.950 . S
H2021 C2027 0.950 . S
H2022 C2028 0.949 . S
C2023 H2018 0.950 . S
C2023 C2025 1.327 . S
C2023 C2029 1.429 . S
C2024 C2016 1.574 . S
C2024 H2019 0.949 . S
C2024 C2030 1.368 . S
C2025 C2009 1.349 . S
C2025 H2017 0.950 . S
C2025 C2023 1.327 . S
C2026 C2014 1.349 . S
C2026 H2020 0.950 . S
C2026 C2027 1.327 . S
C2027 H2021 0.950 . S
C2027 C2026 1.327 . S
C2027 C2031 1.429 . S
C2028 C2011 1.574 . S
C2028 H2022 0.949 . S
C2028 C2032 1.368 . S
C2029 C2010 1.429 . S
C2029 C2023 1.429 . S
C2029 C2030 1.523 . S
C2030 C2011 1.368 . S
C2030 C2024 1.368 . S
C2030 C2029 1.523 . S
C2031 C2015 1.429 . S
C2031 C2027 1.429 . S
C2031 C2032 1.523 . S
C2032 C2016 1.368 . S
C2032 C2028 1.368 . S
C2032 C2031 1.523 . S
H2033 C2008 0.950 . S
H2034 C2010 0.950 . S
H2035 C2011 0.949 . S
H2036 C2013 0.950 . S
H2037 C2015 0.950 . S
C2038 C2039 1.349 . S
C2038 C2040 1.327 . S
C2038 H2063 0.950 . S
C2039 C2038 1.349 . S
C2039 C2055 1.349 . S
C2040 C2038 1.327 . S
C2040 C2059 1.429 . S
C2040 H2064 0.950 . S
C2041 C2058 1.574 . S
C2041 C2060 1.368 . S
C2041 H2065 0.949 . S
H2042 C2046 0.949 . S
C2043 C2044 1.349 . S
C2043 C2045 1.327 . S
C2043 H2066 0.950 . S
C2044 C2043 1.349 . S
C2044 C2056 1.349 . S
C2045 C2043 1.327 . S
C2045 C2061 1.429 . S
C2045 H2067 0.950 . S
C2046 H2042 0.949 . S
C2046 C2054 1.574 . S
C2046 C2062 1.368 . S
H2047 C2055 0.950 . S
H2048 C2053 0.950 . S
H2049 C2054 0.949 . S
H2050 C2056 0.950 . S
H2051 C2057 0.950 . S
H2052 C2058 0.949 . S
C2053 H2048 0.950 . S
C2053 C2055 1.327 . S
C2053 C2059 1.429 . S
C2054 C2046 1.574 . S
C2054 H2049 0.949 . S
C2054 C2060 1.368 . S
C2055 C2039 1.349 . S
C2055 H2047 0.950 . S
C2055 C2053 1.327 . S
C2056 C2044 1.349 . S
C2056 H2050 0.950 . S
C2056 C2057 1.327 . S
C2057 H2051 0.950 . S
C2057 C2056 1.327 . S
C2057 C2061 1.429 . S
C2058 C2041 1.574 . S
C2058 H2052 0.949 . S
C2058 C2062 1.368 . S
C2059 C2040 1.429 . S
C2059 C2053 1.429 . S
C2059 C2060 1.523 . S
C2060 C2041 1.368 . S
C2060 C2054 1.368 . S
C2060 C2059 1.523 . S
C2061 C2045 1.429 . S
C2061 C2057 1.429 . S
C2061 C2062 1.523 . S
C2062 C2046 1.368 . S
C2062 C2058 1.368 . S
C2062 C2061 1.523 . S
H2063 C2038 0.950 . S
H2064 C2040 0.950 . S
H2065 C2041 0.949 . S
H2066 C2043 0.950 . S
H2067 C2045 0.950 . S
C2068 C2069 1.349 . S
C2068 C2070 1.327 . S
C2068 H2093 0.950 . S
C2069 C2068 1.349 . S
C2069 C2085 1.349 . S
C2070 C2068 1.327 . S
C2070 C2089 1.429 . S
C2070 H2094 0.950 . S
C2071 C2088 1.574 . S
C2071 C2090 1.368 . S
C2071 H2095 0.949 . S
H2072 C2076 0.949 . S
C2073 C2074 1.349 . S
C2073 C2075 1.327 . S
C2073 H2096 0.950 . S
C2074 C2073 1.349 . S
C2074 C2086 1.349 . S
C2075 C2073 1.327 . S
C2075 C2091 1.429 . S
C2075 H2097 0.950 . S
C2076 H2072 0.949 . S
C2076 C2084 1.574 . S
C2076 C2092 1.368 . S
H2077 C2085 0.950 . S
H2078 C2083 0.950 . S
H2079 C2084 0.949 . S
H2080 C2086 0.950 . S
H2081 C2087 0.950 . S
H2082 C2088 0.949 . S
C2083 H2078 0.950 . S
C2083 C2085 1.327 . S
C2083 C2089 1.429 . S
C2084 C2076 1.574 . S
C2084 H2079 0.949 . S
C2084 C2090 1.368 . S
C2085 C2069 1.349 . S
C2085 H2077 0.950 . S
C2085 C2083 1.327 . S
C2086 C2074 1.349 . S
C2086 H2080 0.950 . S
C2086 C2087 1.327 . S
C2087 H2081 0.950 . S
C2087 C2086 1.327 . S
C2087 C2091 1.429 . S
C2088 C2071 1.574 . S
C2088 H2082 0.949 . S
C2088 C2092 1.368 . S
C2089 C2070 1.429 . S
C2089 C2083 1.429 . S
C2089 C2090 1.523 . S
C2090 C2071 1.368 . S
C2090 C2084 1.368 . S
C2090 C2089 1.523 . S
C2091 C2075 1.429 . S
C2091 C2087 1.429 . S
C2091 C2092 1.523 . S
C2092 C2076 1.368 . S
C2092 C2088 1.368 . S
C2092 C2091 1.523 . S
H2093 C2068 0.950 . S
H2094 C2070 0.950 . S
H2095 C2071 0.949 . S
H2096 C2073 0.950 . S
H2097 C2075 0.950 . S
C2098 C2099 1.349 . S
C2098 C2100 1.327 . S
C2098 H2123 0.950 . S
C2099 C2098 1.349 . S
C2099 C2115 1.349 . S
C2100 C2098 1.327 . S
C2100 C2119 1.429 . S
C2100 H2124 0.950 . S
C2101 C2118 1.574 . S
C2101 C2120 1.368 . S
C2101 H2125 0.949 . S
H2102 C2106 0.949 . S
C2103 C2104 1.349 . S
C2103 C2105 1.327 . S
C2103 H2126 0.950 . S
C2104 C2103 1.349 . S
C2104 C2116 1.349 . S
C2105 C2103 1.327 . S
C2105 C2121 1.429 . S
C2105 H2127 0.950 . S
C2106 H2102 0.949 . S
C2106 C2114 1.574 . S
C2106 C2122 1.368 . S
H2107 C2115 0.950 . S
H2108 C2113 0.950 . S
H2109 C2114 0.949 . S
H2110 C2116 0.950 . S
H2111 C2117 0.950 . S
H2112 C2118 0.949 . S
C2113 H2108 0.950 . S
C2113 C2115 1.327 . S
C2113 C2119 1.429 . S
C2114 C2106 1.574 . S
C2114 H2109 0.949 . S
C2114 C2120 1.368 . S
C2115 C2099 1.349 . S
C2115 H2107 0.950 . S
C2115 C2113 1.327 . S
C2116 C2104 1.349 . S
C2116 H2110 0.950 . S
C2116 C2117 1.327 . S
C2117 H2111 0.950 . S
C2117 C2116 1.327 . S
C2117 C2121 1.429 . S
C2118 C2101 1.574 . S
C2118 H2112 0.949 . S
C2118 C2122 1.368 . S
C2119 C2100 1.429 . S
C2119 C2113 1.429 . S
C2119 C2120 1.523 . S
C2120 C2101 1.368 . S
C2120 C2114 1.368 . S
C2120 C2119 1.523 . S
C2121 C2105 1.429 . S
C2121 C2117 1.429 . S
C2121 C2122 1.523 . S
C2122 C2106 1.368 . S
C2122 C2118 1.368 . S
C2122 C2121 1.523 . S
H2123 C2098 0.950 . S
H2124 C2100 0.950 . S
H2125 C2101 0.949 . S
H2126 C2103 0.950 . S
H2127 C2105 0.950 . S
C2128 C2129 1.349 . S
C2128 C2130 1.327 . S
C2128 H2153 0.950 . S
C2129 C2128 1.349 . S
C2129 C2145 1.349 . S
C2130 C2128 1.327 . S
C2130 C2149 1.429 . S
C2130 H2154 0.950 . S
C2131 C2148 1.585 . S
C2131 C2150 1.368 . S
C2131 H2155 0.949 . S
H2132 C2136 0.949 . S
C2133 C2134 1.349 . S
C2133 C2135 1.327 . S
C2133 H2156 0.950 . S
C2134 C2133 1.349 . S
C2134 C2146 1.349 . S
C2135 C2133 1.327 . S
C2135 C2151 1.429 . S
C2135 H2157 0.950 . S
C2136 H2132 0.949 . S
C2136 C2144 1.574 . S
C2136 C2152 1.368 . S
H2137 C2145 0.950 . S
H2138 C2143 0.950 . S
H2139 C2144 0.949 . S
H2140 C2146 0.950 . S
H2141 C2147 0.951 1_554 S
H2142 C2148 0.936 1_556 S
C2143 H2138 0.950 . S
C2143 C2145 1.327 . S
C2143 C2149 1.429 . S
C2144 C2136 1.574 . S
C2144 H2139 0.949 . S
C2144 C2150 1.368 . S
C2145 C2129 1.349 . S
C2145 H2137 0.950 . S
C2145 C2143 1.327 . S
C2146 C2134 1.349 . S
C2146 H2140 0.950 . S
C2146 C2147 1.327 . S
C2147 H2141 0.951 1_556 S
C2147 C2146 1.327 . S
C2147 C2151 1.429 . S
C2148 C2131 1.585 . S
C2148 H2142 0.936 1_554 S
C2148 C2152 1.372 . S
C2149 C2130 1.429 . S
C2149 C2143 1.429 . S
C2149 C2150 1.523 . S
C2150 C2131 1.368 . S
C2150 C2144 1.368 . S
C2150 C2149 1.523 . S
C2151 C2135 1.429 . S
C2151 C2147 1.429 . S
C2151 C2152 1.523 1_556 S
C2152 C2136 1.368 . S
C2152 C2148 1.372 . S
C2152 C2151 1.523 1_554 S
H2153 C2128 0.950 . S
H2154 C2130 0.950 . S
H2155 C2131 0.949 . S
H2156 C2133 0.950 . S
H2157 C2135 0.950 . S
C2158 C2159 1.349 . S
C2158 C2160 1.327 . S
C2158 H2183 0.950 . S
C2159 C2158 1.349 . S
C2159 C2175 1.349 . S
C2160 C2158 1.327 . S
C2160 C2179 1.429 . S
C2160 H2184 0.950 . S
C2161 C2178 1.574 . S
C2161 C2180 1.368 . S
C2161 H2185 0.949 . S
H2162 C2166 0.949 . S
C2163 C2164 1.349 . S
C2163 C2165 1.327 . S
C2163 H2186 0.950 . S
C2164 C2163 1.349 . S
C2164 C2176 1.349 . S
C2165 C2163 1.327 . S
C2165 C2181 1.429 . S
C2165 H2187 0.950 . S
C2166 H2162 0.949 . S
C2166 C2174 1.574 . S
C2166 C2182 1.368 . S
H2167 C2175 0.950 . S
H2168 C2173 0.950 . S
H2169 C2174 0.949 . S
H2170 C2176 0.950 . S
H2171 C2177 0.950 . S
H2172 C2178 0.949 . S
C2173 H2168 0.950 . S
C2173 C2175 1.327 . S
C2173 C2179 1.429 . S
C2174 C2166 1.574 . S
C2174 H2169 0.949 . S
C2174 C2180 1.368 . S
C2175 C2159 1.349 . S
C2175 H2167 0.950 . S
C2175 C2173 1.327 . S
C2176 C2164 1.349 . S
C2176 H2170 0.950 . S
C2176 C2177 1.327 . S
C2177 H2171 0.950 . S
C2177 C2176 1.327 . S
C2177 C2181 1.429 . S
C2178 C2161 1.574 . S
C2178 H2172 0.949 . S
C2178 C2182 1.368 . S
C2179 C2160 1.429 . S
C2179 C2173 1.429 . S
C2179 C2180 1.523 . S
C2180 C2161 1.368 . S
C2180 C2174 1.368 . S
C2180 C2179 1.523 . S
C2181 C2165 1.429 . S
C2181 C2177 1.429 . S
C2181 C2182 1.523 . S
C2182 C2166 1.368 . S
C2182 C2178 1.368 . S
C2182 C2181 1.523 . S
H2183 C2158 0.950 . S
H2184 C2160 0.950 . S
H2185 C2161 0.949 . S
H2186 C2163 0.950 . S
H2187 C2165 0.950 . S
C2188 C2189 1.349 . S
C2188 C2190 1.327 . S
C2188 H2213 0.950 . S
C2189 C2188 1.349 . S
C2189 C2205 1.349 . S
C2190 C2188 1.327 . S
C2190 C2209 1.429 . S
C2190 H2214 0.950 . S
C2191 C2208 1.574 . S
C2191 C2210 1.368 . S
C2191 H2215 0.949 . S
H2192 C2196 0.949 . S
C2193 C2194 1.349 . S
C2193 C2195 1.327 . S
C2193 H2216 0.950 . S
C2194 C2193 1.349 . S
C2194 C2206 1.349 . S
C2195 C2193 1.327 . S
C2195 C2211 1.429 . S
C2195 H2217 0.950 . S
C2196 H2192 0.949 . S
C2196 C2204 1.574 . S
C2196 C2212 1.368 . S
H2197 C2205 0.950 . S
H2198 C2203 0.950 . S
H2199 C2204 0.949 . S
H2200 C2206 0.950 . S
H2201 C2207 0.950 . S
H2202 C2208 0.949 . S
C2203 H2198 0.950 . S
C2203 C2205 1.327 . S
C2203 C2209 1.429 . S
C2204 C2196 1.574 . S
C2204 H2199 0.949 . S
C2204 C2210 1.368 . S
C2205 C2189 1.349 . S
C2205 H2197 0.950 . S
C2205 C2203 1.327 . S
C2206 C2194 1.349 . S
C2206 H2200 0.950 . S
C2206 C2207 1.327 . S
C2207 H2201 0.950 . S
C2207 C2206 1.327 . S
C2207 C2211 1.429 . S
C2208 C2191 1.574 . S
C2208 H2202 0.949 . S
C2208 C2212 1.368 . S
C2209 C2190 1.429 . S
C2209 C2203 1.429 . S
C2209 C2210 1.523 . S
C2210 C2191 1.368 . S
C2210 C2204 1.368 . S
C2210 C2209 1.523 . S
C2211 C2195 1.429 . S
C2211 C2207 1.429 . S
C2211 C2212 1.523 . S
C2212 C2196 1.368 . S
C2212 C2208 1.368 . S
C2212 C2211 1.523 . S
H2213 C2188 0.950 . S
H2214 C2190 0.950 . S
H2215 C2191 0.949 . S
H2216 C2193 0.950 . S
H2217 C2195 0.950 . S
C2218 C2219 1.349 . S
C2218 C2220 1.327 . S
C2218 H2243 0.950 . S
C2219 C2218 1.349 . S
C2219 C2235 1.349 . S
C2220 C2218 1.327 . S
C2220 C2239 1.429 . S
C2220 H2244 0.950 . S
C2221 C2238 1.574 . S
C2221 C2240 1.368 . S
C2221 H2245 0.949 . S
H2222 C2226 0.949 . S
C2223 C2224 1.349 . S
C2223 C2225 1.327 . S
C2223 H2246 0.950 . S
C2224 C2223 1.349 . S
C2224 C2236 1.349 . S
C2225 C2223 1.327 . S
C2225 C2241 1.429 . S
C2225 H2247 0.950 . S
C2226 H2222 0.949 . S
C2226 C2234 1.574 . S
C2226 C2242 1.368 . S
H2227 C2235 0.950 . S
H2228 C2233 0.950 . S
H2229 C2234 0.949 . S
H2230 C2236 0.950 . S
H2231 C2237 0.950 . S
H2232 C2238 0.949 . S
C2233 H2228 0.950 . S
C2233 C2235 1.327 . S
C2233 C2239 1.429 . S
C2234 C2226 1.574 . S
C2234 H2229 0.949 . S
C2234 C2240 1.368 . S
C2235 C2219 1.349 . S
C2235 H2227 0.950 . S
C2235 C2233 1.327 . S
C2236 C2224 1.349 . S
C2236 H2230 0.950 . S
C2236 C2237 1.327 . S
C2237 H2231 0.950 . S
C2237 C2236 1.327 . S
C2237 C2241 1.429 . S
C2238 C2221 1.574 . S
C2238 H2232 0.949 . S
C2238 C2242 1.368 . S
C2239 C2220 1.429 . S
C2239 C2233 1.429 . S
C2239 C2240 1.523 . S
C2240 C2221 1.368 . S
C2240 C2234 1.368 . S
C2240 C2239 1.523 . S
C2241 C2225 1.429 . S
C2241 C2237 1.429 . S
C2241 C2242 1.523 . S
C2242 C2226 1.368 . S
C2242 C2238 1.368 . S
C2242 C2241 1.523 . S
H2243 C2218 0.950 . S
H2244 C2220 0.950 . S
H2245 C2221 0.949 . S
H2246 C2223 0.950 . S
H2247 C2225 0.950 . S
C2248 C2249 1.349 . S
C2248 C2250 1.327 . S
C2248 H2273 0.950 . S
C2249 C2248 1.349 . S
C2249 C2265 1.349 . S
C2250 C2248 1.327 . S
C2250 C2269 1.429 . S
C2250 H2274 0.950 . S
C2251 C2268 1.574 . S
C2251 C2270 1.368 . S
C2251 H2275 0.949 1_556 S
H2252 C2256 0.949 . S
C2253 C2254 1.349 . S
C2253 C2255 1.327 . S
C2253 H2276 0.950 . S
C2254 C2253 1.349 . S
C2254 C2266 1.349 . S
C2255 C2253 1.327 . S
C2255 C2271 1.429 . S
C2255 H2277 0.950 . S
C2256 H2252 0.949 . S
C2256 C2264 1.574 . S
C2256 C2272 1.368 . S
H2257 C2265 0.950 . S
H2258 C2263 0.950 . S
H2259 C2264 0.949 . S
H2260 C2266 0.950 . S
H2261 C2267 0.950 . S
H2262 C2268 0.949 . S
C2263 H2258 0.950 . S
C2263 C2265 1.327 . S
C2263 C2269 1.429 . S
C2264 C2256 1.574 . S
C2264 H2259 0.949 . S
C2264 C2270 1.368 . S
C2265 C2249 1.349 . S
C2265 H2257 0.950 . S
C2265 C2263 1.327 . S
C2266 C2254 1.349 . S
C2266 H2260 0.950 . S
C2266 C2267 1.327 . S
C2267 H2261 0.950 . S
C2267 C2266 1.327 . S
C2267 C2271 1.429 . S
C2268 C2251 1.574 . S
C2268 H2262 0.949 . S
C2268 C2272 1.368 . S
C2269 C2250 1.429 . S
C2269 C2263 1.429 . S
C2269 C2270 1.523 1_554 S
C2270 C2251 1.368 . S
C2270 C2264 1.368 . S
C2270 C2269 1.523 1_556 S
C2271 C2255 1.429 . S
C2271 C2267 1.429 . S
C2271 C2272 1.523 . S
C2272 C2256 1.368 . S
C2272 C2268 1.368 . S
C2272 C2271 1.523 . S
H2273 C2248 0.950 . S
H2274 C2250 0.950 . S
H2275 C2251 0.949 1_554 S
H2276 C2253 0.950 . S
H2277 C2255 0.950 . S
C2278 C2279 1.349 . S
C2278 C2280 1.327 . S
C2278 H2303 0.950 . S
C2279 C2278 1.349 . S
C2279 C2295 1.349 . S
C2280 C2278 1.327 . S
C2280 C2299 1.429 . S
C2280 H2304 0.950 . S
C2281 C2298 1.574 . S
C2281 C2300 1.368 . S
C2281 H2305 0.949 . S
H2282 C2286 0.949 . S
C2283 C2284 1.349 . S
C2283 C2285 1.327 . S
C2283 H2306 0.950 . S
C2284 C2283 1.349 . S
C2284 C2296 1.349 . S
C2285 C2283 1.327 . S
C2285 C2301 1.429 . S
C2285 H2307 0.950 . S
C2286 H2282 0.949 . S
C2286 C2294 1.574 . S
C2286 C2302 1.368 . S
H2287 C2295 0.950 . S
H2288 C2293 0.950 . S
H2289 C2294 0.949 . S
H2290 C2296 0.950 . S
H2291 C2297 0.950 . S
H2292 C2298 0.949 . S
C2293 H2288 0.950 . S
C2293 C2295 1.327 . S
C2293 C2299 1.429 . S
C2294 C2286 1.574 . S
C2294 H2289 0.949 . S
C2294 C2300 1.368 . S
C2295 C2279 1.349 . S
C2295 H2287 0.950 . S
C2295 C2293 1.327 . S
C2296 C2284 1.349 . S
C2296 H2290 0.950 . S
C2296 C2297 1.327 . S
C2297 H2291 0.950 . S
C2297 C2296 1.327 . S
C2297 C2301 1.429 . S
C2298 C2281 1.574 . S
C2298 H2292 0.949 . S
C2298 C2302 1.368 . S
C2299 C2280 1.429 . S
C2299 C2293 1.429 . S
C2299 C2300 1.523 . S
C2300 C2281 1.368 . S
C2300 C2294 1.368 . S
C2300 C2299 1.523 . S
C2301 C2285 1.429 . S
C2301 C2297 1.429 . S
C2301 C2302 1.523 . S
C2302 C2286 1.368 . S
C2302 C2298 1.368 . S
C2302 C2301 1.523 . S
H2303 C2278 0.950 . S
H2304 C2280 0.950 . S
H2305 C2281 0.949 . S
H2306 C2283 0.950 . S
H2307 C2285 0.950 . S
C2308 C2309 1.349 . S
C2308 C2310 1.327 . S
C2308 H2333 0.950 . S
C2309 C2308 1.349 . S
C2309 C2325 1.349 . S
C2310 C2308 1.327 . S
C2310 C2329 1.429 . S
C2310 H2334 0.950 . S
C2311 C2328 1.574 . S
C2311 C2330 1.368 . S
C2311 H2335 0.949 . S
H2312 C2316 0.949 . S
C2313 C2314 1.349 . S
C2313 C2315 1.327 . S
C2313 H2336 0.950 . S
C2314 C2313 1.349 . S
C2314 C2326 1.349 . S
C2315 C2313 1.327 . S
C2315 C2331 1.429 . S
C2315 H2337 0.950 . S
C2316 H2312 0.949 . S
C2316 C2324 1.574 . S
C2316 C2332 1.368 . S
H2317 C2325 0.950 . S
H2318 C2323 0.950 . S
H2319 C2324 0.949 . S
H2320 C2326 0.950 . S
H2321 C2327 0.950 . S
H2322 C2328 0.949 . S
C2323 H2318 0.950 . S
C2323 C2325 1.327 . S
C2323 C2329 1.429 . S
C2324 C2316 1.574 . S
C2324 H2319 0.949 . S
C2324 C2330 1.368 . S
C2325 C2309 1.349 . S
C2325 H2317 0.950 . S
C2325 C2323 1.327 . S
C2326 C2314 1.349 . S
C2326 H2320 0.950 . S
C2326 C2327 1.327 . S
C2327 H2321 0.950 . S
C2327 C2326 1.327 . S
C2327 C2331 1.429 . S
C2328 C2311 1.574 . S
C2328 H2322 0.949 . S
C2328 C2332 1.368 . S
C2329 C2310 1.429 . S
C2329 C2323 1.429 . S
C2329 C2330 1.523 . S
C2330 C2311 1.368 . S
C2330 C2324 1.368 . S
C2330 C2329 1.523 . S
C2331 C2315 1.429 . S
C2331 C2327 1.429 . S
C2331 C2332 1.523 . S
C2332 C2316 1.368 . S
C2332 C2328 1.368 . S
C2332 C2331 1.523 . S
H2333 C2308 0.950 . S
H2334 C2310 0.950 . S
H2335 C2311 0.949 . S
H2336 C2313 0.950 . S
H2337 C2315 0.950 . S
C2338 C2339 1.349 . S
C2338 C2340 1.327 . S
C2338 H2363 0.950 . S
C2339 C2338 1.349 . S
C2339 C2355 1.349 . S
C2340 C2338 1.327 . S
C2340 C2359 1.429 . S
C2340 H2364 0.950 . S
C2341 C2358 1.574 . S
C2341 C2360 1.368 . S
C2341 H2365 0.949 . S
H2342 C2346 0.949 . S
C2343 C2344 1.349 . S
C2343 C2345 1.327 . S
C2343 H2366 0.950 . S
C2344 C2343 1.349 . S
C2344 C2356 1.349 . S
C2345 C2343 1.327 . S
C2345 C2361 1.429 . S
C2345 H2367 0.950 . S
C2346 H2342 0.949 . S
C2346 C2354 1.574 . S
C2346 C2362 1.368 . S
H2347 C2355 0.950 . S
H2348 C2353 0.950 . S
H2349 C2354 0.949 . S
H2350 C2356 0.950 . S
H2351 C2357 0.950 . S
H2352 C2358 0.949 . S
C2353 H2348 0.950 . S
C2353 C2355 1.327 . S
C2353 C2359 1.429 . S
C2354 C2346 1.574 . S
C2354 H2349 0.949 . S
C2354 C2360 1.368 . S
C2355 C2339 1.349 . S
C2355 H2347 0.950 . S
C2355 C2353 1.327 . S
C2356 C2344 1.349 . S
C2356 H2350 0.950 . S
C2356 C2357 1.327 . S
C2357 H2351 0.950 . S
C2357 C2356 1.327 . S
C2357 C2361 1.429 . S
C2358 C2341 1.574 . S
C2358 H2352 0.949 . S
C2358 C2362 1.368 . S
C2359 C2340 1.429 . S
C2359 C2353 1.429 . S
C2359 C2360 1.523 . S
C2360 C2341 1.368 . S
C2360 C2354 1.368 . S
C2360 C2359 1.523 . S
C2361 C2345 1.429 . S
C2361 C2357 1.429 . S
C2361 C2362 1.523 . S
C2362 C2346 1.368 . S
C2362 C2358 1.368 . S
C2362 C2361 1.523 . S
H2363 C2338 0.950 . S
H2364 C2340 0.950 . S
H2365 C2341 0.949 . S
H2366 C2343 0.950 . S
H2367 C2345 0.950 . S
C449 C4 1.151 . S
C454 C186 1.149 . S
C479 C354 1.105 . S
C484 C18 1.105 . S
C509 C32 1.197 . S
C514 C214 1.194 . S
C539 C46 1.166 . S
C544 C340 1.164 . S
C569 C60 1.119 . S
C574 C242 1.120 . S
C599 C74 1.168 . S
C604 C312 1.169 . S
C629 C88 1.127 . S
C634 C270 1.126 . S
C659 C438 1.152 . S
C664 C102 1.152 . S
C689 C298 1.120 . S
C694 C116 1.119 . S
C719 C130 1.168 . S
C724 C256 1.169 . S
C749 C326 1.126 . S
C754 C144 1.127 . S
C779 C158 1.166 . S
C784 C228 1.164 . S
C809 C200 1.105 . S
C814 C172 1.105 . S
C839 C284 1.152 . S
C844 C396 1.152 . S
C869 C410 1.149 . S
C874 C368 1.151 . S
C899 C424 1.194 . S
C904 C382 1.197 . S
C929 C12 1.524 . S
C934 C26 1.524 . S
C959 C33 1.325 . S
C964 C25 1.443 . S
C989 C54 1.531 . S
C994 C40 1.531 . S
C1019 C53 1.476 . S
C1024 C5 1.356 . S
C1049 C110 1.490 . S
C1054 C68 1.489 . S
C1079 C81 1.483 . S
C1084 C61 1.360 . S
C1109 C96 1.455 . S
C1114 C82 1.456 . S
C1139 C89 1.369 . S
C1144 C109 1.494 . S
C1169 C131 1.363 . S
C1174 C11 1.485 . S
C1199 C123 1.411 . S
C1204 C47 1.297 . S
C1229 C151 1.471 . S
C1234 C19 1.351 . S
C1259 C389 1.500 . S
C1264 C103 1.377 . S
C1289 C397 1.377 . S
C1294 C39 1.500 . S
C1319 C159 1.297 . S
C1324 C67 1.411 . S
C1349 C95 1.471 . S
C1354 C173 1.351 . S
C1379 C201 1.323 . S
C1384 C187 1.340 . S
C1409 C222 1.444 . S
C1414 C207 1.405 . S
C1439 C229 1.321 . S
C1444 C215 1.326 . S
C1469 C194 1.448 . S
C1474 C235 1.406 . S
C1499 C243 1.338 . S
C1504 C291 1.455 . S
C1529 C250 1.579 . S
C1534 C264 1.576 . S
C1559 C277 1.521 . S
C1564 C263 1.519 . S
C1589 C271 1.356 . S
C1594 C292 1.513 . S
C1619 C193 1.445 . S
C1624 C313 1.344 . S
C1649 C305 1.445 . S
C1654 C236 1.489 . S
C1679 C334 1.538 . S
C1684 C208 1.540 . S
C1709 C431 1.373 . S
C1714 C285 1.274 . S
C1739 C439 1.274 . S
C1744 C221 1.373 . S
C1769 C249 1.445 . S
C1774 C348 1.489 . S
C1799 C362 1.540 . S
C1804 C278 1.538 . S
C1829 C180 1.524 . S
C1834 C376 1.524 . S
C1859 C383 1.325 . S
C1864 C179 1.443 . S
C1889 C166 1.531 . S
C1894 C390 1.531 . S
C1919 C165 1.476 . S
C1924 C369 1.356 . S
C1949 C124 1.489 . S
C1954 C404 1.490 . S
C1979 C137 1.483 . S
C1984 C117 1.360 . S
C2009 C152 1.455 . S
C2014 C138 1.456 . S
C2039 C145 1.369 . S
C2044 C403 1.494 . S
C2069 C375 1.485 . S
C2074 C75 1.363 . S
C2099 C355 1.323 . S
C2104 C411 1.340 . S
C2129 C361 1.405 . S
C2134 C432 1.444 . S
C2159 C425 1.326 . S
C2164 C341 1.321 . S
C2189 C347 1.406 . S
C2194 C418 1.448 . S
C2219 C445 1.455 . S
C2224 C299 1.338 . S
C2249 C306 1.579 . S
C2254 C320 1.576 . S
C2279 C333 1.521 . S
C2284 C319 1.519 . S
C2309 C327 1.356 . S
C2314 C446 1.513 . S
C2339 C417 1.445 . S
C2344 C257 1.344 . S
