# Generated by pormake.
# Topology zfn, (5)-cn, num edge types: 1
# Building blocks:
#     Node 0, Type 0, BuildingBlock: BEQFEK_clean_sbu_0, # of connection points: 5
#     Node 1, Type 0, BuildingBlock: BEQFEK_clean_sbu_0, # of connection points: 5
#     Node 2, Type 0, BuildingBlock: BEQFEK_clean_sbu_0, # of connection points: 5
#     Node 3, Type 0, BuildingBlock: BEQFEK_clean_sbu_0, # of connection points: 5
#     Node 4, Type 0, BuildingBlock: BEQFEK_clean_sbu_0, # of connection points: 5
#     Node 5, Type 0, BuildingBlock: BEQFEK_clean_sbu_0, # of connection points: 5
#     Node 6, Type 0, BuildingBlock: BEQFEK_clean_sbu_0, # of connection points: 5
#     Node 7, Type 0, BuildingBlock: BEQFEK_clean_sbu_0, # of connection points: 5
#     Node 8, Type 0, BuildingBlock: BEQFEK_clean_sbu_0, # of connection points: 5
#     Node 9, Type 0, BuildingBlock: BEQFEK_clean_sbu_0, # of connection points: 5
#     Node 10, Type 0, BuildingBlock: BEQFEK_clean_sbu_0, # of connection points: 5
#     Node 11, Type 0, BuildingBlock: BEQFEK_clean_sbu_0, # of connection points: 5
#     Node 12, Type 0, BuildingBlock: BEQFEK_clean_sbu_0, # of connection points: 5
#     Node 13, Type 0, BuildingBlock: BEQFEK_clean_sbu_0, # of connection points: 5
#     Node 14, Type 0, BuildingBlock: BEQFEK_clean_sbu_0, # of connection points: 5
#     Node 15, Type 0, BuildingBlock: BEQFEK_clean_sbu_0, # of connection points: 5
#     Edge 16, Type (0, 0), BuildingBlock: MIFKUJ_clean_linker_0, # of connection points: 2
#     Edge 17, Type (0, 0), BuildingBlock: MIFKUJ_clean_linker_0, # of connection points: 2
#     Edge 18, Type (0, 0), BuildingBlock: MIFKUJ_clean_linker_0, # of connection points: 2
#     Edge 19, Type (0, 0), BuildingBlock: MIFKUJ_clean_linker_0, # of connection points: 2
#     Edge 20, Type (0, 0), BuildingBlock: MIFKUJ_clean_linker_0, # of connection points: 2
#     Edge 21, Type (0, 0), BuildingBlock: MIFKUJ_clean_linker_0, # of connection points: 2
#     Edge 22, Type (0, 0), BuildingBlock: MIFKUJ_clean_linker_0, # of connection points: 2
#     Edge 23, Type (0, 0), BuildingBlock: MIFKUJ_clean_linker_0, # of connection points: 2
#     Edge 24, Type (0, 0), BuildingBlock: MIFKUJ_clean_linker_0, # of connection points: 2
#     Edge 25, Type (0, 0), BuildingBlock: MIFKUJ_clean_linker_0, # of connection points: 2
#     Edge 26, Type (0, 0), BuildingBlock: MIFKUJ_clean_linker_0, # of connection points: 2
#     Edge 27, Type (0, 0), BuildingBlock: MIFKUJ_clean_linker_0, # of connection points: 2
#     Edge 28, Type (0, 0), BuildingBlock: MIFKUJ_clean_linker_0, # of connection points: 2
#     Edge 29, Type (0, 0), BuildingBlock: MIFKUJ_clean_linker_0, # of connection points: 2
#     Edge 30, Type (0, 0), BuildingBlock: MIFKUJ_clean_linker_0, # of connection points: 2
#     Edge 31, Type (0, 0), BuildingBlock: MIFKUJ_clean_linker_0, # of connection points: 2
#     Edge 32, Type (0, 0), BuildingBlock: MIFKUJ_clean_linker_0, # of connection points: 2
#     Edge 33, Type (0, 0), BuildingBlock: MIFKUJ_clean_linker_0, # of connection points: 2
#     Edge 34, Type (0, 0), BuildingBlock: MIFKUJ_clean_linker_0, # of connection points: 2
#     Edge 35, Type (0, 0), BuildingBlock: MIFKUJ_clean_linker_0, # of connection points: 2
#     Edge 36, Type (0, 0), BuildingBlock: MIFKUJ_clean_linker_0, # of connection points: 2
#     Edge 37, Type (0, 0), BuildingBlock: MIFKUJ_clean_linker_0, # of connection points: 2
#     Edge 38, Type (0, 0), BuildingBlock: MIFKUJ_clean_linker_0, # of connection points: 2
#     Edge 39, Type (0, 0), BuildingBlock: MIFKUJ_clean_linker_0, # of connection points: 2
#     Edge 40, Type (0, 0), BuildingBlock: MIFKUJ_clean_linker_0, # of connection points: 2
#     Edge 41, Type (0, 0), BuildingBlock: MIFKUJ_clean_linker_0, # of connection points: 2
#     Edge 42, Type (0, 0), BuildingBlock: MIFKUJ_clean_linker_0, # of connection points: 2
#     Edge 43, Type (0, 0), BuildingBlock: MIFKUJ_clean_linker_0, # of connection points: 2
#     Edge 44, Type (0, 0), BuildingBlock: MIFKUJ_clean_linker_0, # of connection points: 2
#     Edge 45, Type (0, 0), BuildingBlock: MIFKUJ_clean_linker_0, # of connection points: 2
#     Edge 46, Type (0, 0), BuildingBlock: MIFKUJ_clean_linker_0, # of connection points: 2
#     Edge 47, Type (0, 0), BuildingBlock: MIFKUJ_clean_linker_0, # of connection points: 2
#     Edge 48, Type (0, 0), BuildingBlock: MIFKUJ_clean_linker_0, # of connection points: 2
#     Edge 49, Type (0, 0), BuildingBlock: MIFKUJ_clean_linker_0, # of connection points: 2
#     Edge 50, Type (0, 0), BuildingBlock: MIFKUJ_clean_linker_0, # of connection points: 2
#     Edge 51, Type (0, 0), BuildingBlock: MIFKUJ_clean_linker_0, # of connection points: 2
#     Edge 52, Type (0, 0), BuildingBlock: MIFKUJ_clean_linker_0, # of connection points: 2
#     Edge 53, Type (0, 0), BuildingBlock: MIFKUJ_clean_linker_0, # of connection points: 2
#     Edge 54, Type (0, 0), BuildingBlock: MIFKUJ_clean_linker_0, # of connection points: 2
#     Edge 55, Type (0, 0), BuildingBlock: MIFKUJ_clean_linker_0, # of connection points: 2
# Relax obj value: 0.129
# Max RMSD: 0.169
# Mean RMSD: 0.169
data_MOF--net-zfn--node1-BEQFEK_clean_sbu_0--edge1-MIFKUJ_clean_linker_0
_symmetry_space_group_name_H-M    P1
_symmetry_Int_Tables_number       1
_symmetry_cell_setting            triclinic
loop_
_symmetry_equiv_pos_as_xyz
'x, y, z'
_cell_length_a     95.280049
_cell_length_b     95.25354
_cell_length_c     23.319402
_cell_angle_alpha  90.01402
_cell_angle_beta   89.989984
_cell_angle_gamma 90.005919
loop_
_atom_site_label
_atom_site_type_symbol
_atom_site_fract_x
_atom_site_fract_y
_atom_site_fract_z
_atom_type_partial_charge
Co0 Co 0.99799 0.35831 0.08454 0.0
Co1 Co 0.008 0.36512 0.20905 0.0
C2 C 0.9806 0.37565 0.16531 0.0
O3 O 0.98232 0.36932 0.11776 0.0
O4 O 0.9899 0.37521 0.20439 0.0
C5 C 0.98525 0.36026 0.9764 0.0
O6 O 0.98037 0.37187 -0.00064 0.0
C7 C 0.00744 0.36759 0.3342 0.0
C8 C 0.0299 0.36536 0.35621 0.0
C9 C 0.0167 0.36712 0.38003 0.0
N10 N 0.01485 0.36621 0.28551 0.0
N11 N 0.02828 0.36504 0.29889 0.0
C12 C 0.99172 0.36768 0.33658 0.0
H13 H 0.98729 0.36196 0.29933 0.0
H14 H 0.98786 0.36275 0.3767 0.0
H15 H 0.98797 0.3787 0.33507 0.0
C16 C 0.00327 0.32925 0.12425 0.0
N17 N 0.00281 0.34321 0.13285 0.0
N18 N 0.00596 0.34598 0.18657 0.0
C19 C 0.00792 0.33378 0.21472 0.0
C20 C 0.00648 0.32272 0.17603 0.0
C21 C 0.00159 0.32256 0.06657 0.0
H22 H 0.00601 0.32949 0.03291 0.0
H23 H 0.99025 0.32108 0.05759 0.0
H24 H 0.00696 0.31224 0.06465 0.0
O25 O 0.01441 0.37037 0.07217 0.0
O26 O 0.02209 0.37476 0.16003 0.0
H27 H 0.02093 0.33519 0.28927 0.0
H28 H 0.00707 0.32227 0.29498 0.0
C29 C 0.00986 0.3328 0.27834 0.0
H30 H 0.00303 0.34055 0.29993 0.0
H31 H 0.0363 0.36367 0.26888 0.0
O32 O 0.99255 0.35201 0.00712 0.0
C33 C 0.02321 0.37606 0.10587 0.0
Co34 Co 0.14041 0.99868 0.59206 0.0
Co35 Co 0.13255 0.00718 0.71778 0.0
C36 C 0.12186 0.98062 0.66402 0.0
O37 O 0.12857 0.98284 0.61772 0.0
O38 O 0.12236 0.98927 0.70559 0.0
C39 C 0.14546 0.98352 0.48686 0.0
O40 O 0.13871 0.97316 0.51173 0.0
C41 C 0.13048 0.00401 0.8424 0.0
C42 C 0.13219 0.02599 0.87199 0.0
C43 C 0.13142 0.01226 0.8913 0.0
N44 N 0.13108 0.01246 0.79634 0.0
N45 N 0.13185 0.0256 0.81429 0.0
C46 C 0.12871 0.98841 0.8388 0.0
H47 H 0.11933 0.98601 0.81254 0.0
H48 H 0.13795 0.98372 0.81709 0.0
H49 H 0.12719 0.98353 0.88148 0.0
C50 C 0.16904 0.00187 0.63776 0.0
N51 N 0.15502 0.00211 0.64418 0.0
N52 N 0.15189 0.00528 0.69758 0.0
C53 C 0.16393 0.00687 0.72736 0.0
C54 C 0.1752 0.00483 0.69034 0.0
C55 C 0.17624 -0.00028 0.58134 0.0
H56 H 0.17094 0.00605 0.54787 0.0
H57 H 0.1754 0.9885 0.56893 0.0
H58 H 0.18746 0.00279 0.58305 0.0
O59 O 0.12884 0.01559 0.58312 0.0
O60 O 0.12336 0.02214 0.67158 0.0
H61 H 0.16055 0.01999 0.80051 0.0
H62 H 0.17541 0.00832 0.8077 0.0
C63 C 0.1646 0.00934 0.79071 0.0
H64 H 0.15793 0.00155 0.81289 0.0
H65 H 0.13265 0.03427 0.7871 0.0
O66 O 0.14774 0.99475 0.51468 0.0
C67 C 0.12278 0.02398 0.61752 0.0
Co68 Co 0.49746 0.13855 0.09325 0.0
Co69 Co 0.48991 0.13414 0.22204 0.0
C70 C 0.51639 0.1225 0.17005 0.0
O71 O 0.51384 0.12797 0.1214 0.0
O72 O 0.50789 0.12391 0.21179 0.0
C73 C 0.51183 0.14787 0.98933 0.0
O74 O 0.5226 0.15128 0.0216 0.0
C75 C 0.49524 0.13626 0.34452 0.0
C76 C 0.47394 0.13484 0.3817 0.0
C77 C 0.48794 0.13664 0.39589 0.0
N78 N 0.48594 0.1346 0.30181 0.0
N79 N 0.47323 0.13366 0.32423 0.0
C80 C 0.5108 0.13665 0.33545 0.0
H81 H 0.51334 0.14349 0.29832 0.0
H82 H 0.51658 0.14023 0.37392 0.0
H83 H 0.51445 0.1259 0.325 0.0
C84 C 0.49365 0.16844 0.12595 0.0
N85 N 0.49399 0.15464 0.13826 0.0
N86 N 0.49109 0.15282 0.19295 0.0
C87 C 0.48901 0.16548 0.21745 0.0
C88 C 0.49052 0.17579 0.17573 0.0
C89 C 0.49543 0.17439 0.06699 0.0
H90 H 0.49016 0.16754 0.03517 0.0
H91 H 0.50678 0.17482 0.05652 0.0
H92 H 0.491 0.18513 0.06391 0.0
O93 O 0.4808 0.12637 0.09272 0.0
O94 O 0.47454 0.12362 0.18356 0.0
H95 H 0.47667 0.1623 0.29306 0.0
H96 H 0.4859 0.17888 0.29212 0.0
C97 C 0.48652 0.16765 0.28027 0.0
H98 H 0.4953 0.16297 0.30468 0.0
H99 H 0.46407 0.13236 0.30023 0.0
O100 O 0.50074 0.14306 0.01222 0.0
C101 C 0.47257 0.12133 0.13036 0.0
Co102 Co 0.35883 0.49785 0.59593 0.0
Co103 Co 0.36611 0.49102 0.72363 0.0
C104 C 0.3764 0.51723 0.66503 0.0
O105 O 0.36989 0.5144 0.61883 0.0
O106 O 0.37606 0.50895 0.70788 0.0
C107 C 0.35013 0.51222 0.49217 0.0
O108 O 0.35205 0.52398 0.52057 0.0
C109 C 0.36806 0.49581 0.84784 0.0
C110 C 0.36421 0.47449 0.88161 0.0
C111 C 0.36594 0.48835 0.89827 0.0
N112 N 0.36711 0.48684 0.8035 0.0
N113 N 0.36511 0.47407 0.82406 0.0
C114 C 0.37124 0.51113 0.84132 0.0
H115 H 0.38036 0.51244 0.81244 0.0
H116 H 0.36211 0.5165 0.82154 0.0
H117 H 0.37388 0.51613 0.88285 0.0
C118 C 0.32997 0.49481 0.63961 0.0
N119 N 0.34396 0.49475 0.64716 0.0
N120 N 0.34684 0.49242 0.70148 0.0
C121 C 0.33467 0.49127 0.73069 0.0
C122 C 0.32358 0.49265 0.69236 0.0
C123 C 0.32299 0.4962 0.58237 0.0
H124 H 0.32865 0.48975 0.55025 0.0
H125 H 0.32349 0.50733 0.5684 0.0
H126 H 0.31187 0.49278 0.58382 0.0
O127 O 0.37093 0.48123 0.59188 0.0
O128 O 0.37559 0.47541 0.6819 0.0
H129 H 0.33693 0.47934 0.80775 0.0
H130 H 0.32287 0.49204 0.8103 0.0
C131 C 0.33366 0.49003 0.79455 0.0
H132 H 0.34076 0.49777 0.81485 0.0
H133 H 0.36374 0.46515 0.79861 0.0
O134 O 0.35203 0.50055 0.51727 0.0
C135 C 0.37673 0.47317 0.62825 0.0
Co136 Co -0.00039 0.13904 0.39994 0.0
Co137 Co 0.00903 0.13299 0.27434 0.0
C138 C 0.98166 0.12238 0.31927 0.0
O139 O 0.98365 0.12826 0.36763 0.0
O140 O 0.99077 0.12317 0.27948 0.0
C141 C 0.98574 0.13934 0.50864 0.0
O142 O 0.97877 0.1286 0.48765 0.0
C143 C 0.00772 0.13195 0.1492 0.0
C144 C 0.03011 0.13366 0.12536 0.0
C145 C 0.01671 0.13275 0.10259 0.0
N146 N 0.01546 0.13237 0.1973 0.0
N147 N 0.02884 0.13322 0.18282 0.0
C148 C 0.99201 0.13255 0.14849 0.0
H149 H 0.98799 0.13748 0.18829 0.0
H150 H 0.98817 0.1386 0.11099 0.0
H151 H 0.9878 0.12171 0.14568 0.0
C152 C 0.00485 0.16825 0.3632 0.0
N153 N 0.00437 0.15437 0.35282 0.0
N154 N 0.00734 0.15201 0.29865 0.0
C155 C 0.00917 0.16444 0.27193 0.0
C156 C 0.00778 0.1752 0.31209 0.0
C157 C 0.00352 0.17448 0.42192 0.0
H158 H 0.00875 0.16759 0.45371 0.0
H159 H 0.99224 0.17523 0.43346 0.0
H160 H 0.00835 0.18505 0.42419 0.0
O161 O 0.0159 0.1267 0.4101 0.0
O162 O 0.02322 0.12277 0.32132 0.0
H163 H 0.02188 0.16325 0.19643 0.0
H164 H 0.00844 0.17667 0.19334 0.0
C165 C 0.01093 0.16593 0.2084 0.0
H166 H 0.00377 0.15861 0.18618 0.0
H167 H 0.03707 0.13392 0.21222 0.0
O168 O 0.99464 0.14561 0.47726 0.0
C169 C 0.02448 0.12108 0.37526 0.0
Co170 Co 0.35674 0.99818 0.91612 0.0
Co171 Co 0.36482 0.00821 0.79273 0.0
C172 C 0.37503 0.98075 0.84145 0.0
O173 O 0.36847 0.98247 0.88847 0.0
O174 O 0.37454 0.98993 0.80182 0.0
C175 C 0.35312 0.98366 0.02346 0.0
O176 O 0.36127 0.97405 0.00055 0.0
C177 C 0.36503 0.00541 0.6687 0.0
C178 C 0.36974 0.02698 0.63962 0.0
C179 C 0.3668 0.01356 0.61986 0.0
N180 N 0.36684 0.01364 0.71485 0.0
N181 N 0.36979 0.02649 0.69732 0.0
C182 C 0.36045 0.9904 0.67232 0.0
H183 H 0.35542 0.98828 0.71436 0.0
H184 H 0.35302 0.98784 0.63722 0.0
H185 H 0.36979 0.9835 0.66836 0.0
C186 C 0.3282 0.00159 0.86941 0.0
N187 N 0.34223 0.00214 0.86393 0.0
N188 N 0.34547 0.00659 0.81214 0.0
C189 C 0.3335 0.00909 0.78302 0.0
C190 C 0.32222 0.00595 0.81832 0.0
C191 C 0.32079 0.99652 0.92207 0.0
H192 H 0.32574 0.98666 0.93729 0.0
H193 H 0.30946 0.99466 0.91396 0.0
H194 H 0.32194 0.00448 0.9565 0.0
O195 O 0.36834 0.01506 0.92784 0.0
O196 O 0.3741 0.0226 0.84101 0.0
H197 H 0.32223 0.01952 0.7147 0.0
H198 H 0.33491 0.00665 0.69215 0.0
C199 C 0.33277 0.01507 0.72376 0.0
H200 H 0.34076 0.02343 0.71858 0.0
H201 H 0.37153 0.03498 0.72472 0.0
O202 O 0.34928 0.99408 0.9933 0.0
C203 C 0.3745 0.02383 0.89534 0.0
Co204 Co 0.49691 0.35734 0.40388 0.0
Co205 Co 0.48749 0.36516 0.27895 0.0
C206 C 0.51374 0.37701 0.3335 0.0
O207 O 0.5121 0.37008 0.37964 0.0
O208 O 0.50493 0.37614 0.29263 0.0
C209 C 0.51207 0.35243 0.50897 0.0
O210 O 0.52234 0.35921 0.4836 0.0
C211 C 0.49157 0.36433 0.1545 0.0
C212 C 0.47015 0.36829 0.12203 0.0
C213 C 0.48368 0.3651 0.1045 0.0
N214 N 0.483 0.36661 0.19941 0.0
N215 N 0.47025 0.36911 0.17968 0.0
C216 C 0.50706 0.36187 0.1597 0.0
H217 H 0.51129 0.36689 0.19869 0.0
H218 H 0.50914 0.35045 0.163 0.0
H219 H 0.51269 0.36605 0.1217 0.0
C220 C 0.49544 0.32877 0.35599 0.0
N221 N 0.49436 0.34278 0.35062 0.0
N222 N 0.49002 0.34589 0.29853 0.0
C223 C 0.48804 0.33383 0.26926 0.0
C224 C 0.49153 0.32267 0.30455 0.0
C225 C 0.5002 0.32148 0.40936 0.0
H226 H 0.50991 0.32654 0.42555 0.0
H227 H 0.50221 0.31015 0.40168 0.0
H228 H 0.49201 0.32261 0.44287 0.0
O229 O 0.47931 0.36797 0.41247 0.0
O230 O 0.47204 0.37353 0.32493 0.0
H231 H 0.47324 0.3407 0.20577 0.0
H232 H 0.47725 0.3222 0.20293 0.0
C233 C 0.48169 0.3328 0.21068 0.0
H234 H 0.48988 0.33477 0.17796 0.0
H235 H 0.46154 0.37107 0.20565 0.0
O236 O 0.50084 0.34996 0.48138 0.0
C237 C 0.47044 0.37372 0.37918 0.0
Co238 Co 0.14053 0.49823 0.90681 0.0
Co239 Co 0.13397 0.49035 0.77925 0.0
C240 C 0.12252 0.51655 0.83583 0.0
O241 O 0.12883 0.51421 0.8829 0.0
O242 O 0.12353 0.50808 0.7938 0.0
C243 C 0.14722 0.51323 0.01084 0.0
O244 O 0.14332 0.52446 0.9823 0.0
C245 C 0.13672 0.49575 0.65644 0.0
C246 C 0.13007 0.47558 0.61832 0.0
C247 C 0.13501 0.48884 0.60452 0.0
N248 N 0.13317 0.48689 0.69892 0.0
N249 N 0.12916 0.47487 0.67587 0.0
C250 C 0.14097 0.51073 0.66564 0.0
H251 H 0.13762 0.51451 0.70833 0.0
H252 H 0.15255 0.51165 0.6635 0.0
H253 H 0.13641 0.51753 0.63176 0.0
C254 C 0.16961 0.49608 0.86448 0.0
N255 N 0.15565 0.49556 0.8562 0.0
N256 N 0.15304 0.4917 0.80307 0.0
C257 C 0.16534 0.48934 0.77612 0.0
C258 C 0.17619 0.49217 0.81397 0.0
C259 C 0.1764 0.5006 0.91932 0.0
H260 H 0.17149 0.51049 0.93437 0.0
H261 H 0.18785 0.50226 0.91408 0.0
H262 H 0.17457 0.49247 0.95255 0.0
O263 O 0.12895 0.48103 0.91024 0.0
O264 O 0.12443 0.47484 0.82031 0.0
H265 H 0.177 0.47768 0.71257 0.0
H266 H 0.16641 0.4917 0.68504 0.0
C267 C 0.1668 0.48319 0.71733 0.0
H268 H 0.15819 0.47567 0.70885 0.0
H269 H 0.12587 0.46615 0.69946 0.0
O270 O 0.14721 0.50137 0.98589 0.0
C271 C 0.12332 0.47274 0.87407 0.0
Co272 Co -0.00063 0.64192 0.91199 0.0
Co273 Co 0.99057 0.63372 0.78704 0.0
C274 C 0.01752 0.62355 0.84227 0.0
O275 O 0.01556 0.63034 0.88855 0.0
O276 O 0.00861 0.62394 0.80165 0.0
C277 C 0.01399 0.64921 0.01675 0.0
O278 O 0.02527 0.64433 0.99123 0.0
C279 C 0.99513 0.63522 0.66328 0.0
C280 C 0.97459 0.62857 0.62872 0.0
C281 C 0.98775 0.63336 0.61252 0.0
N282 N 0.98661 0.63197 0.70732 0.0
N283 N 0.97439 0.6279 0.68639 0.0
C284 C 0.01017 0.63954 0.67003 0.0
H285 H 0.01457 0.63555 0.71071 0.0
H286 H 0.0109 0.65115 0.67097 0.0
H287 H 0.01657 0.6356 0.63365 0.0
C288 C 0.99621 0.67044 0.86431 0.0
N289 N 0.9959 0.65638 0.85892 0.0
N290 N 0.99164 0.65306 0.80698 0.0
C291 C 0.98884 0.66498 0.77792 0.0
C292 C 0.99178 0.67632 0.8131 0.0
C293 C 0.00099 0.67797 0.91713 0.0
H294 H 0.01082 0.67311 0.93314 0.0
H295 H 0.00282 0.68929 0.90883 0.0
H296 H 0.99289 0.67682 0.951 0.0
O297 O 0.98259 0.62985 0.91978 0.0
O298 O 0.97568 0.62421 0.83183 0.0
H299 H 0.97653 0.67568 0.71359 0.0
H300 H 0.99045 0.66488 0.68643 0.0
C301 C 0.9822 0.66561 0.71977 0.0
H302 H 0.97472 0.65682 0.71422 0.0
H303 H 0.96584 0.62487 0.71152 0.0
O304 O 0.00245 0.64958 0.98953 0.0
C305 C 0.97415 0.62359 0.88604 0.0
Co306 Co 0.85699 0.00247 0.403 0.0
Co307 Co 0.86422 0.99078 0.28098 0.0
C308 C 0.87447 0.01906 0.32288 0.0
O309 O 0.86811 0.01794 0.37066 0.0
O310 O 0.87394 0.00932 0.28539 0.0
C311 C 0.8574 0.01478 0.51343 0.0
O312 O 0.86906 0.02037 0.49394 0.0
C313 C 0.86471 0.99189 0.15607 0.0
C314 C 0.86653 0.96953 0.13195 0.0
C315 C 0.86529 0.98292 0.10927 0.0
N316 N 0.86558 0.98417 0.20411 0.0
N317 N 0.86681 0.97082 0.18947 0.0
C318 C 0.86189 0.00735 0.15574 0.0
H319 H 0.85674 0.0106 0.19631 0.0
H320 H 0.85513 0.01027 0.11887 0.0
H321 H 0.87199 0.01306 0.15186 0.0
C322 C 0.82817 0.9984 0.36025 0.0
N323 N 0.84216 0.99764 0.35354 0.0
N324 N 0.84505 0.99248 0.30252 0.0
C325 C 0.83289 0.9896 0.27532 0.0
C326 C 0.82184 0.99332 0.31097 0.0
C327 C 0.82113 0.00353 0.41366 0.0
H328 H 0.82464 0.99706 0.45053 0.0
H329 H 0.8244 0.01452 0.42211 0.0
H330 H 0.80953 0.00297 0.41042 0.0
O331 O 0.86925 0.98619 0.41685 0.0
O332 O 0.87384 0.97704 0.33139 0.0
H333 H 0.83833 0.97434 0.21173 0.0
H334 H 0.82091 0.98156 0.20322 0.0
C335 C 0.83188 0.98398 0.21552 0.0
H336 H 0.83605 0.99189 0.18518 0.0
H337 H 0.86749 0.96256 0.21879 0.0
O338 O 0.84991 0.00744 0.47981 0.0
C339 C 0.87505 0.97688 0.38576 0.0
Co340 Co 0.50051 0.85823 0.90082 0.0
Co341 Co 0.50752 0.86421 0.77239 0.0
C342 C 0.48132 0.87526 0.82809 0.0
O343 O 0.48397 0.86917 0.87546 0.0
O344 O 0.48968 0.87435 0.78568 0.0
C345 C 0.48628 0.84856 0.00448 0.0
O346 O 0.4748 0.84738 0.97368 0.0
C347 C 0.50249 0.86439 0.64873 0.0
C348 C 0.52401 0.8631 0.61374 0.0
C349 C 0.50999 0.86322 0.59803 0.0
N350 N 0.51165 0.8646 0.69252 0.0
N351 N 0.5245 0.86401 0.67133 0.0
C352 C 0.48693 0.8657 0.65614 0.0
H353 H 0.48311 0.85747 0.68599 0.0
H354 H 0.48119 0.86509 0.61494 0.0
H355 H 0.4846 0.87602 0.6758 0.0
C356 C 0.50482 0.8289 0.86249 0.0
N357 N 0.50402 0.84279 0.85243 0.0
N358 N 0.50615 0.84519 0.79758 0.0
C359 C 0.50777 0.8328 0.77039 0.0
C360 C 0.50717 0.82204 0.81072 0.0
C361 C 0.50445 0.82257 0.92123 0.0
H362 H 0.50985 0.82958 0.95212 0.0
H363 H 0.49336 0.8214 0.935 0.0
H364 H 0.50962 0.81214 0.92207 0.0
O365 O 0.51704 0.87041 0.90341 0.0
O366 O 0.52305 0.8742 0.81293 0.0
H367 H 0.51916 0.83485 0.6917 0.0
H368 H 0.50685 0.82037 0.69224 0.0
C369 C 0.50868 0.8313 0.70655 0.0
H370 H 0.50058 0.83793 0.6862 0.0
H371 H 0.53359 0.86385 0.6963 0.0
O372 O 0.49763 0.85244 0.98075 0.0
C373 C 0.52517 0.87587 0.86645 0.0
Co374 Co 0.64155 0.49734 0.40654 0.0
Co375 Co 0.63356 0.50758 0.28308 0.0
C376 C 0.62225 0.48069 0.33248 0.0
O377 O 0.629 0.48222 0.37919 0.0
O378 O 0.62307 0.48973 0.2924 0.0
C379 C 0.64395 0.48323 0.51493 0.0
O380 O 0.63415 0.47498 0.49407 0.0
C381 C 0.63319 0.50497 0.15887 0.0
C382 C 0.63061 0.52695 0.13044 0.0
C383 C 0.63254 0.51338 0.1104 0.0
N384 N 0.63179 0.5132 0.20527 0.0
N385 N 0.63005 0.5263 0.18807 0.0
C386 C 0.6366 0.48965 0.16188 0.0
H387 H 0.64132 0.48702 0.20403 0.0
H388 H 0.64392 0.48663 0.12698 0.0
H389 H 0.62678 0.4835 0.15693 0.0
C390 C 0.67011 0.49991 0.3589 0.0
N391 N 0.65607 0.50072 0.3537 0.0
N392 N 0.65286 0.50516 0.30188 0.0
C393 C 0.66485 0.50735 0.27241 0.0
C394 C 0.6761 0.50403 0.30751 0.0
C395 C 0.67752 0.49514 0.41199 0.0
H396 H 0.67279 0.48518 0.42725 0.0
H397 H 0.68891 0.49358 0.40434 0.0
H398 H 0.67605 0.50312 0.44617 0.0
O399 O 0.63067 0.51468 0.41866 0.0
O400 O 0.62495 0.5223 0.3319 0.0
H401 H 0.67641 0.51711 0.2031 0.0
H402 H 0.66271 0.50521 0.18165 0.0
C403 C 0.66565 0.51338 0.21325 0.0
H404 H 0.65826 0.5223 0.20924 0.0
H405 H 0.62896 0.53485 0.21573 0.0
O406 O 0.6491 0.49279 0.48329 0.0
C407 C 0.62473 0.52361 0.38625 0.0
Co408 Co 0.99373 0.85963 0.59393 0.0
Co409 Co 0.98797 0.86556 0.72348 0.0
C410 C 0.01341 0.87695 0.66431 0.0
O411 O 0.01013 0.87107 0.61713 0.0
O412 O 0.00569 0.87576 0.70863 0.0
C413 C 0.00766 0.85013 0.48964 0.0
O414 O 0.01937 0.8496 0.5193 0.0
C415 C 0.99275 0.86563 0.84805 0.0
C416 C 0.97116 0.86243 0.88016 0.0
C417 C 0.98503 0.86324 0.89762 0.0
N418 N 0.98386 0.8657 0.80329 0.0
N419 N 0.97095 0.86408 0.82291 0.0
C420 C 0.00824 0.86799 0.84281 0.0
H421 H 0.01022 0.87711 0.81453 0.0
H422 H 0.01321 0.85864 0.82293 0.0
H423 H 0.01315 0.87016 0.88499 0.0
C424 C 0.99111 0.83023 0.63296 0.0
N425 N 0.99126 0.84415 0.64279 0.0
N426 N 0.98928 0.84652 0.69778 0.0
C427 C 0.98819 0.83407 0.72506 0.0
C428 C 0.98921 0.82335 0.68482 0.0
C429 C 0.99189 0.82376 0.57452 0.0
H430 H 0.9856 0.83004 0.54381 0.0
H431 H 0.00296 0.82378 0.55983 0.0
H432 H 0.98792 0.81282 0.57459 0.0
O433 O 0.97662 0.87109 0.59331 0.0
O434 O 0.97231 0.87564 0.68491 0.0
H435 H 0.97679 0.83594 0.80369 0.0
H436 H 0.98904 0.82147 0.80264 0.0
C437 C 0.98728 0.83246 0.78881 0.0
H438 H 0.99537 0.83908 0.8094 0.0
H439 H 0.96206 0.8635 0.79688 0.0
O440 O 0.99631 0.85371 0.51412 0.0
C441 C 0.96918 0.87678 0.63207 0.0
Co442 Co 0.64008 0.99919 0.08497 0.0
Co443 Co 0.63257 0.98923 0.20936 0.0
C444 C 0.62173 0.01648 0.15775 0.0
O445 O 0.62833 0.01496 0.11074 0.0
O446 O 0.62243 0.00727 0.19721 0.0
C447 C 0.64579 0.01398 0.97876 0.0
O448 O 0.64015 0.02493 0.00408 0.0
C449 C 0.63536 0.99361 0.33254 0.0
C450 C 0.62748 0.9737 0.3689 0.0
C451 C 0.63317 0.98659 0.38393 0.0
N452 N 0.63137 0.98517 0.28927 0.0
N453 N 0.62663 0.9733 0.31125 0.0
C454 C 0.64053 0.00834 0.32442 0.0
H455 H 0.63745 0.01247 0.28194 0.0
H456 H 0.65215 0.00851 0.32663 0.0
H457 H 0.63638 0.01528 0.3587 0.0
C458 C 0.66883 0.99672 0.13118 0.0
N459 N 0.65481 0.99583 0.13688 0.0
N460 N 0.65175 0.99071 0.18774 0.0
C461 C 0.6638 0.98765 0.21533 0.0
C462 C 0.67501 0.99153 0.18075 0.0
C463 C 0.67601 0.00292 0.08003 0.0
H464 H 0.66973 0.01177 0.0629 0.0
H465 H 0.68669 0.00672 0.091 0.0
H466 H 0.67686 0.9948 0.04608 0.0
O467 O 0.62848 0.98208 0.07716 0.0
O468 O 0.62323 0.97429 0.16429 0.0
H469 H 0.67451 0.97354 0.27301 0.0
H470 H 0.66457 0.9872 0.30707 0.0
C471 C 0.66465 0.97972 0.27069 0.0
H472 H 0.6556 0.97249 0.27492 0.0
H473 H 0.62287 0.96491 0.28692 0.0
O474 O 0.64724 0.00261 0.00663 0.0
C475 C 0.62259 0.97315 0.10991 0.0
Co476 Co 0.50244 0.63879 0.5807 0.0
Co477 Co 0.50852 0.63325 0.71 0.0
C478 C 0.48255 0.6224 0.65256 0.0
O479 O 0.48554 0.62837 0.60531 0.0
O480 O 0.49073 0.6232 0.69552 0.0
C481 C 0.4888 0.649 0.47716 0.0
O482 O 0.47814 0.65266 0.50963 0.0
C483 C 0.50223 0.63353 0.83241 0.0
C484 C 0.52339 0.63398 0.87127 0.0
C485 C 0.50921 0.63433 0.88438 0.0
N486 N 0.51185 0.63304 0.79034 0.0
N487 N 0.52448 0.63316 0.8138 0.0
C488 C 0.48672 0.63275 0.82225 0.0
H489 H 0.48364 0.64052 0.78911 0.0
H490 H 0.48057 0.63446 0.86193 0.0
H491 H 0.48411 0.62218 0.80551 0.0
C492 C 0.50697 0.66831 0.61756 0.0
N493 N 0.50588 0.65445 0.62813 0.0
N494 N 0.50759 0.65218 0.68332 0.0
C495 C 0.50928 0.6646 0.71011 0.0
C496 C 0.50914 0.67526 0.66925 0.0
C497 C 0.50692 0.67454 0.55866 0.0
H498 H 0.51191 0.66721 0.52787 0.0
H499 H 0.49591 0.67632 0.54498 0.0
H500 H 0.51262 0.6847 0.55773 0.0
O501 O 0.51885 0.62635 0.58096 0.0
O502 O 0.52425 0.62302 0.6724 0.0
H503 H 0.52001 0.66244 0.79025 0.0
H504 H 0.50814 0.67727 0.78769 0.0
C505 C 0.50976 0.66625 0.77398 0.0
H506 H 0.50132 0.65991 0.79358 0.0
H507 H 0.53383 0.63296 0.79049 0.0
O508 O 0.49975 0.64383 0.49987 0.0
C509 C 0.52669 0.62103 0.61931 0.0
Co510 Co 0.8597 0.50003 0.09578 0.0
Co511 Co 0.86451 0.50837 0.22346 0.0
C512 C 0.87485 0.48097 0.17449 0.0
O513 O 0.86932 0.4833 0.12578 0.0
O514 O 0.87407 0.48994 0.21483 0.0
C515 C 0.8503 0.48584 0.99092 0.0
O516 O 0.84632 0.4751 0.02227 0.0
C517 C 0.86238 0.50357 0.34625 0.0
C518 C 0.86382 0.52501 0.3821 0.0
C519 C 0.86193 0.51107 0.39711 0.0
N520 N 0.86414 0.5127 0.30298 0.0
N521 N 0.86511 0.52549 0.32461 0.0
C522 C 0.86191 0.48797 0.33825 0.0
H523 H 0.85463 0.4853 0.30273 0.0
H524 H 0.8588 0.48233 0.37775 0.0
H525 H 0.87252 0.48426 0.32583 0.0
C526 C 0.83002 0.505 0.12793 0.0
N527 N 0.84381 0.50451 0.14007 0.0
N528 N 0.84575 0.50773 0.1944 0.0
C529 C 0.83315 0.51015 0.21888 0.0
C530 C 0.82277 0.50853 0.17748 0.0
C531 C 0.82398 0.5027 0.06942 0.0
H532 H 0.83083 0.50761 0.03665 0.0
H533 H 0.82345 0.49126 0.06074 0.0
H534 H 0.81327 0.5072 0.06588 0.0
O535 O 0.87268 0.51603 0.09401 0.0
O536 O 0.87568 0.52311 0.18365 0.0
H537 H 0.83661 0.52264 0.29386 0.0
H538 H 0.81988 0.5137 0.2936 0.0
C539 C 0.83108 0.51285 0.28161 0.0
H540 H 0.83564 0.50405 0.30634 0.0
H541 H 0.86646 0.53455 0.30005 0.0
O542 O 0.85531 0.49672 0.01474 0.0
C543 C 0.87807 0.52442 0.13019 0.0
H544 H 0.97498 0.39385 0.2533 0.0
H545 H 0.95487 0.40959 0.26245 0.0
H546 H 0.93718 0.3925 0.10707 0.0
H547 H 0.95738 0.37696 0.09683 0.0
H548 H 0.93787 0.42019 0.10331 0.0
H549 H 0.92291 0.38576 0.24152 0.0
H550 H 0.92575 0.37067 0.32667 0.0
H551 H 0.93129 0.40713 0.43259 0.0
H552 H 0.92868 0.42244 0.34793 0.0
H553 H 0.87508 0.45756 0.10695 0.0
H554 H 0.89078 0.43739 0.11432 0.0
H555 H 0.90921 0.45493 0.26738 0.0
H556 H 0.89329 0.47501 0.26116 0.0
H557 H 0.90754 0.42648 0.27444 0.0
H558 H 0.9245 0.46059 0.13959 0.0
H559 H 0.92289 0.47641 0.05612 0.0
H560 H 0.91491 0.44115 0.94608 0.0
H561 H 0.9163 0.42514 0.02909 0.0
C562 C 0.96673 0.39331 0.22144 0.0
C563 C 0.96783 0.38422 0.1741 0.0
C564 C 0.9552 0.40227 0.22693 0.0
C565 C 0.94448 0.40215 0.18565 0.0
C566 C 0.94535 0.39276 0.13939 0.0
C567 C 0.9569 0.38389 0.13362 0.0
C568 C 0.93294 0.41256 0.18794 0.0
C569 C 0.93106 0.42136 0.14034 0.0
C570 C 0.92441 0.41443 0.2371 0.0
C571 C 0.92571 0.40524 0.28825 0.0
C572 C 0.92482 0.39056 0.28291 0.0
C573 C 0.92637 0.38197 0.3311 0.0
C574 C 0.92873 0.38794 0.38499 0.0
C575 C 0.92947 0.40252 0.39082 0.0
C576 C 0.92794 0.41116 0.34275 0.0
C577 C 0.88234 0.45705 0.14265 0.0
C578 C 0.8831 0.46799 0.18297 0.0
C579 C 0.89129 0.44551 0.14681 0.0
C580 C 0.90134 0.44482 0.19074 0.0
C581 C 0.90156 0.45529 0.23304 0.0
C582 C 0.89249 0.46678 0.22927 0.0
C583 C 0.91239 0.43389 0.18944 0.0
C584 C 0.91425 0.42513 0.23725 0.0
C585 C 0.92106 0.4321 0.14071 0.0
C586 C 0.92037 0.44169 0.09062 0.0
C587 C 0.92231 0.45623 0.09765 0.0
C588 C 0.92145 0.46522 0.05042 0.0
C589 C 0.91876 0.45979 0.99586 0.0
C590 C 0.91697 0.44534 0.98838 0.0
C591 C 0.91781 0.4363 0.03549 0.0
H592 H 0.91809 0.46677 0.95935 0.0
H593 H 0.92997 0.38127 0.42222 0.0
H594 H 0.12079 0.95808 0.59142 0.0
H595 H 0.10438 0.9384 0.59437 0.0
H596 H 0.08573 0.95521 0.74834 0.0
H597 H 0.10221 0.97481 0.74626 0.0
H598 H 0.08795 0.92692 0.75384 0.0
H599 H 0.07096 0.96125 0.61824 0.0
H600 H 0.07293 0.97672 0.53381 0.0
H601 H 0.08027 0.94092 0.42599 0.0
H602 H 0.07852 0.92524 0.50996 0.0
H603 H 0.02058 0.89581 0.74756 0.0
H604 H 0.04085 0.91141 0.74927 0.0
H605 H 0.05547 0.89366 0.5898 0.0
H606 H 0.03495 0.87825 0.58694 0.0
H607 H 0.05667 0.92107 0.58537 0.0
H608 H 0.07167 0.88645 0.72131 0.0
H609 H 0.06942 0.87125 0.80641 0.0
H610 H 0.06559 0.90759 0.91428 0.0
H611 H 0.06763 0.92301 0.82973 0.0
C612 C 0.11328 0.95754 0.62621 0.0
C613 C 0.11275 0.96809 0.66837 0.0
C614 C 0.10391 0.94629 0.62778 0.0
C615 C 0.09371 0.94547 0.67108 0.0
C616 C 0.09352 0.95565 0.71453 0.0
C617 C 0.10294 0.96687 0.7132 0.0
C618 C 0.08274 0.93446 0.66944 0.0
C619 C 0.08103 0.92568 0.71723 0.0
C620 C 0.07393 0.93269 0.62113 0.0
C621 C 0.07475 0.94209 0.57046 0.0
C622 C 0.07307 0.95668 0.57657 0.0
C623 C 0.07414 0.96549 0.52881 0.0
C624 C 0.07677 0.95981 0.4746 0.0
C625 C 0.07826 0.9453 0.46802 0.0
C626 C 0.07722 0.93645 0.51567 0.0
C627 C 0.02818 0.8951 0.71314 0.0
C628 C 0.02616 0.88577 0.66714 0.0
C629 C 0.03981 0.904 0.71431 0.0
C630 C 0.0498 0.90358 0.67007 0.0
C631 C 0.04791 0.89415 0.62445 0.0
C632 C 0.03619 0.88534 0.62292 0.0
C633 C 0.0618 0.9135 0.66993 0.0
C634 C 0.06368 0.92214 0.6218 0.0
C635 C 0.07073 0.91514 0.71801 0.0
C636 C 0.06971 0.90589 0.76908 0.0
C637 C 0.07027 0.8912 0.76313 0.0
C638 C 0.06904 0.88254 0.81129 0.0
C639 C 0.06734 0.88845 0.8657 0.0
C640 C 0.06691 0.90303 0.8721 0.0
C641 C 0.06812 0.91173 0.82408 0.0
H642 H 0.06637 0.88173 0.90292 0.0
H643 H 0.07761 0.96664 0.43768 0.0
H644 H 0.60725 0.02398 0.25434 0.0
H645 H 0.59125 0.0438 0.26616 0.0
H646 H 0.59978 0.05703 0.09272 0.0
H647 H 0.61595 0.03735 0.08061 0.0
H648 H 0.59831 0.07932 0.16612 0.0
H649 H 0.57086 0.03798 0.12254 0.0
H650 H 0.56277 0.01365 0.13734 0.0
H651 H 0.54816 0.02441 0.30592 0.0
H652 H 0.55634 0.04878 0.29237 0.0
H653 H 0.53741 0.11793 0.09231 0.0
H654 H 0.55717 0.10181 0.10116 0.0
H655 H 0.544 0.09109 0.27267 0.0
H656 H 0.52402 0.10698 0.26383 0.0
H657 H 0.5486 0.06819 0.21046 0.0
H658 H 0.57377 0.11029 0.25016 0.0
H659 H 0.58169 0.13464 0.23494 0.0
H660 H 0.60044 0.12279 0.07464 0.0
H661 H 0.59246 0.09839 0.08848 0.0
C662 C 0.6058 0.03115 0.21876 0.0
C663 C 0.61275 0.02898 0.16626 0.0
C664 C 0.59665 0.04247 0.22564 0.0
C665 C 0.5942 0.05176 0.18006 0.0
C666 C 0.60152 0.04996 0.1284 0.0
C667 C 0.61071 0.03866 0.12149 0.0
C668 C 0.58346 0.06292 0.18502 0.0
C669 C 0.58741 0.07691 0.17542 0.0
C670 C 0.56933 0.05977 0.19862 0.0
C671 C 0.56435 0.04515 0.20669 0.0
C672 C 0.56602 0.03512 0.16292 0.0
C673 C 0.5614 0.02134 0.17106 0.0
C674 C 0.555 0.01748 0.2226 0.0
C675 C 0.55315 0.02741 0.26606 0.0
C676 C 0.55777 0.04121 0.25817 0.0
C677 C 0.53878 0.11227 0.1322 0.0
C678 C 0.52909 0.11374 0.17733 0.0
C679 C 0.55015 0.10312 0.13732 0.0
C680 C 0.55213 0.09534 0.18777 0.0
C681 C 0.54269 0.09703 0.23342 0.0
C682 C 0.53129 0.10616 0.22833 0.0
C683 C 0.56338 0.08464 0.19101 0.0
C684 C 0.55952 0.07068 0.20197 0.0
C685 C 0.57757 0.08785 0.17867 0.0
C686 C 0.58242 0.10252 0.17017 0.0
C687 C 0.57949 0.11289 0.21144 0.0
C688 C 0.584 0.1267 0.2031 0.0
C689 C 0.59154 0.13027 0.1538 0.0
C690 C 0.5946 0.12002 0.11279 0.0
C691 C 0.59009 0.10619 0.1209 0.0
H692 H 0.59503 0.14097 0.14742 0.0
H693 H 0.55143 0.0068 0.22882 0.0
H694 H 0.3752 0.54009 0.5944 0.0
H695 H 0.39051 0.56067 0.59538 0.0
H696 H 0.41246 0.544 0.74219 0.0
H697 H 0.39698 0.52358 0.74243 0.0
H698 H 0.4093 0.57174 0.75213 0.0
H699 H 0.4249 0.53963 0.60358 0.0
H700 H 0.42171 0.52528 0.51646 0.0
H701 H 0.41074 0.56218 0.42067 0.0
H702 H 0.41371 0.57672 0.50745 0.0
H703 H 0.47615 0.60293 0.73417 0.0
H704 H 0.45565 0.5877 0.73814 0.0
H705 H 0.43907 0.60743 0.58593 0.0
H706 H 0.45987 0.62244 0.58058 0.0
H707 H 0.43729 0.58035 0.57619 0.0
H708 H 0.42456 0.61296 0.72302 0.0
H709 H 0.42812 0.62716 0.81022 0.0
H710 H 0.43381 0.58964 0.90954 0.0
H711 H 0.43046 0.5752 0.82279 0.0
C712 C 0.38321 0.54086 0.6272 0.0
C713 C 0.38496 0.53015 0.66807 0.0
C714 C 0.39196 0.55262 0.62765 0.0
C715 C 0.40277 0.55374 0.66825 0.0
C716 C 0.40418 0.54334 0.71045 0.0
C717 C 0.39534 0.53166 0.71045 0.0
C718 C 0.41315 0.5653 0.665 0.0
C719 C 0.41549 0.5736 0.71382 0.0
C720 C 0.42095 0.56795 0.61447 0.0
C721 C 0.41939 0.55924 0.5621 0.0
C722 C 0.42174 0.54467 0.564 0.0
C723 C 0.41997 0.5365 0.51468 0.0
C724 C 0.41598 0.54281 0.4631 0.0
C725 C 0.4138 0.5573 0.46067 0.0
C726 C 0.41554 0.56551 0.50989 0.0
C727 C 0.46807 0.60416 0.7019 0.0
C728 C 0.46963 0.6139 0.65707 0.0
C729 C 0.4563 0.59549 0.70441 0.0
C730 C 0.44569 0.59656 0.66285 0.0
C731 C 0.44711 0.60644 0.61855 0.0
C732 C 0.45899 0.61501 0.61557 0.0
C733 C 0.43363 0.58672 0.66365 0.0
C734 C 0.43098 0.5787 0.61433 0.0
C735 C 0.42556 0.58435 0.71375 0.0
C736 C 0.42734 0.593 0.76626 0.0
C737 C 0.42664 0.60773 0.76339 0.0
C738 C 0.42861 0.61583 0.81276 0.0
C739 C 0.43121 0.60931 0.86537 0.0
C740 C 0.43179 0.59468 0.86875 0.0
C741 C 0.42983 0.58653 0.81951 0.0
H742 H 0.43276 0.6156 0.90352 0.0
H743 H 0.41461 0.53647 0.42498 0.0
H744 H 0.88753 0.02678 0.22289 0.0
H745 H 0.90345 0.0466 0.20829 0.0
H746 H 0.89744 0.05926 0.38428 0.0
H747 H 0.88125 0.0398 0.39875 0.0
H748 H 0.89868 0.08165 0.31723 0.0
H749 H 0.92588 0.03891 0.34083 0.0
H750 H 0.93304 0.01479 0.31578 0.0
H751 H 0.94472 0.02851 0.14697 0.0
H752 H 0.93746 0.05269 0.17086 0.0
H753 H 0.96101 0.11635 0.39694 0.0
H754 H 0.94078 0.10104 0.38362 0.0
H755 H 0.95273 0.09416 0.20737 0.0
H756 H 0.97322 0.10923 0.22066 0.0
H757 H 0.94739 0.07009 0.25879 0.0
H758 H 0.9235 0.11388 0.24213 0.0
H759 H 0.91678 0.13795 0.2697 0.0
H760 H 0.89916 0.12249 0.427 0.0
H761 H 0.90596 0.09835 0.40077 0.0
C762 C 0.88948 0.03387 0.25829 0.0
C763 C 0.88322 0.03162 0.31215 0.0
C764 C 0.89861 0.04518 0.24991 0.0
C765 C 0.90181 0.05427 0.29547 0.0
C766 C 0.89513 0.05237 0.34851 0.0
C767 C 0.88591 0.04118 0.35677 0.0
C768 C 0.91271 0.06528 0.2895 0.0
C769 C 0.90935 0.07914 0.30465 0.0
C770 C 0.92654 0.06206 0.27159 0.0
C771 C 0.93098 0.04756 0.2574 0.0
C772 C 0.92989 0.03676 0.29826 0.0
C773 C 0.93398 0.02308 0.28429 0.0
C774 C 0.93929 0.02011 0.22976 0.0
C775 C 0.94057 0.03082 0.18915 0.0
C776 C 0.93648 0.04451 0.20288 0.0
C777 C 0.95928 0.11172 0.35512 0.0
C778 C 0.96878 0.11399 0.30992 0.0
C779 C 0.94764 0.10303 0.34746 0.0
C780 C 0.94515 0.09658 0.29428 0.0
C781 C 0.95444 0.09906 0.24871 0.0
C782 C 0.96614 0.1077 0.25641 0.0
C783 C 0.93345 0.08644 0.28777 0.0
C784 C 0.93667 0.07272 0.27032 0.0
C785 C 0.91952 0.08979 0.30381 0.0
C786 C 0.91532 0.1043 0.31959 0.0
C787 C 0.91828 0.11562 0.28277 0.0
C788 C 0.91444 0.12928 0.29814 0.0
C789 C 0.90757 0.13175 0.35011 0.0
C790 C 0.90449 0.12056 0.38676 0.0
C791 C 0.90831 0.10689 0.37161 0.0
H792 H 0.90461 0.14233 0.36194 0.0
H793 H 0.94244 0.00951 0.21902 0.0
H794 H 0.45984 0.87821 0.90538 0.0
H795 H 0.43997 0.89438 0.89977 0.0
H796 H 0.45423 0.90861 0.73409 0.0
H797 H 0.47424 0.89276 0.73982 0.0
H798 H 0.449 0.93014 0.80355 0.0
H799 H 0.42491 0.88846 0.74628 0.0
H800 H 0.41715 0.86383 0.75338 0.0
H801 H 0.39633 0.8729 0.91244 0.0
H802 H 0.40413 0.89755 0.90672 0.0
H803 H 0.39081 0.97365 0.74776 0.0
H804 H 0.40704 0.95394 0.73846 0.0
H805 H 0.39572 0.93966 0.90776 0.0
H806 H 0.37936 0.95926 0.91742 0.0
H807 H 0.39888 0.91771 0.83124 0.0
H808 H 0.42448 0.95887 0.89112 0.0
H809 H 0.43229 0.98349 0.88402 0.0
H810 H 0.45044 0.97511 0.71897 0.0
H811 H 0.44256 0.95047 0.72475 0.0
C812 C 0.45868 0.88468 0.86748 0.0
C813 C 0.46864 0.88416 0.82299 0.0
C814 C 0.44727 0.89385 0.86419 0.0
C815 C 0.44557 0.90262 0.81629 0.0
C816 C 0.45533 0.90191 0.77136 0.0
C817 C 0.46673 0.89277 0.77461 0.0
C818 C 0.43422 0.91323 0.8148 0.0
C819 C 0.43802 0.92738 0.80855 0.0
C820 C 0.41994 0.90966 0.82271 0.0
C821 C 0.41522 0.89483 0.82632 0.0
C822 C 0.41878 0.88518 0.78303 0.0
C823 C 0.41435 0.87122 0.78676 0.0
C824 C 0.40628 0.86679 0.8334 0.0
C825 C 0.40259 0.87633 0.87636 0.0
C826 C 0.407 0.89031 0.87287 0.0
C827 C 0.39165 0.96626 0.78287 0.0
C828 C 0.38391 0.96814 0.83367 0.0
C829 C 0.40094 0.955 0.77744 0.0
C830 C 0.4027 0.94547 0.82274 0.0
C831 C 0.39452 0.94693 0.87237 0.0
C832 C 0.38522 0.95818 0.87788 0.0
C833 C 0.41371 0.93454 0.81992 0.0
C834 C 0.40986 0.92039 0.82566 0.0
C835 C 0.42798 0.93808 0.8115 0.0
C836 C 0.4328 0.95287 0.8081 0.0
C837 C 0.43004 0.96231 0.85312 0.0
C838 C 0.43449 0.97626 0.84936 0.0
C839 C 0.44182 0.98088 0.801 0.0
C840 C 0.44474 0.97153 0.75636 0.0
C841 C 0.44029 0.95757 0.75986 0.0
H842 H 0.44526 0.99168 0.79817 0.0
H843 H 0.40286 0.85598 0.8362 0.0
H844 H 0.61527 0.46104 0.41308 0.0
H845 H 0.59829 0.44204 0.40404 0.0
H846 H 0.59083 0.45352 0.22769 0.0
H847 H 0.60762 0.4728 0.23665 0.0
H848 H 0.56682 0.45008 0.28294 0.0
H849 H 0.60892 0.42337 0.26267 0.0
H850 H 0.63268 0.41521 0.2881 0.0
H851 H 0.61717 0.39918 0.4481 0.0
H852 H 0.59335 0.40742 0.42401 0.0
H853 H 0.52223 0.39141 0.23797 0.0
H854 H 0.54206 0.40754 0.22943 0.0
H855 H 0.5527 0.40023 0.40674 0.0
H856 H 0.53309 0.38388 0.41545 0.0
H857 H 0.57582 0.4008 0.34116 0.0
H858 H 0.5344 0.42954 0.3651 0.0
H859 H 0.51066 0.43792 0.34057 0.0
H860 H 0.52509 0.45023 0.17353 0.0
H861 H 0.5489 0.44175 0.19685 0.0
C862 C 0.61014 0.45946 0.37214 0.0
C863 C 0.61278 0.46848 0.32564 0.0
C864 C 0.60048 0.44853 0.36696 0.0
C865 C 0.5934 0.44626 0.315 0.0
C866 C 0.59619 0.45508 0.26816 0.0
C867 C 0.60581 0.46608 0.27337 0.0
C868 C 0.58246 0.43524 0.31084 0.0
C869 C 0.56886 0.43924 0.29455 0.0
C870 C 0.58506 0.42116 0.32717 0.0
C871 C 0.59936 0.41611 0.34168 0.0
C872 C 0.61059 0.41819 0.30346 0.0
C873 C 0.62407 0.41354 0.31761 0.0
C874 C 0.62644 0.40671 0.36973 0.0
C875 C 0.61532 0.40448 0.40776 0.0
C876 C 0.60183 0.40913 0.39384 0.0
C877 C 0.52881 0.39319 0.27514 0.0
C878 C 0.52601 0.38643 0.32755 0.0
C879 C 0.54013 0.40243 0.27017 0.0
C880 C 0.54874 0.40522 0.31766 0.0
C881 C 0.54618 0.39823 0.36957 0.0
C882 C 0.53493 0.38892 0.3745 0.0
C883 C 0.56018 0.41571 0.31399 0.0
C884 C 0.57385 0.41161 0.32887 0.0
C885 C 0.55767 0.42971 0.2964 0.0
C886 C 0.54338 0.43488 0.2825 0.0
C887 C 0.53248 0.43394 0.323 0.0
C888 C 0.51902 0.43872 0.30934 0.0
C889 C 0.51636 0.44456 0.25547 0.0
C890 C 0.52717 0.44568 0.21521 0.0
C891 C 0.54064 0.4409 0.22863 0.0
H892 H 0.50593 0.44826 0.24497 0.0
H893 H 0.63688 0.40311 0.38061 0.0
H894 H 0.02548 0.60825 0.74858 0.0
H895 H 0.04498 0.59174 0.74136 0.0
H896 H 0.05738 0.60164 0.91459 0.0
H897 H 0.03796 0.61831 0.9222 0.0
H898 H 0.08011 0.59877 0.84239 0.0
H899 H 0.03819 0.57309 0.89018 0.0
H900 H 0.01362 0.56557 0.87768 0.0
H901 H 0.02358 0.54874 0.71175 0.0
H902 H 0.04819 0.55635 0.72294 0.0
H903 H 0.11791 0.53704 0.91594 0.0
H904 H 0.10177 0.55685 0.90937 0.0
H905 H 0.09045 0.54439 0.73764 0.0
H906 H 0.10651 0.52444 0.74384 0.0
H907 H 0.06765 0.54907 0.80355 0.0
H908 H 0.11017 0.57332 0.75906 0.0
H909 H 0.13475 0.58069 0.77277 0.0
H910 H 0.12386 0.59997 0.93316 0.0
H911 H 0.09924 0.59254 0.92083 0.0
C912 C 0.03241 0.60702 0.78507 0.0
C913 C 0.03005 0.61448 0.83626 0.0
C914 C 0.04354 0.59757 0.78083 0.0
C915 C 0.05248 0.59533 0.82773 0.0
C916 C 0.05056 0.6032 0.87797 0.0
C917 C 0.03943 0.61269 0.88228 0.0
C918 C 0.06332 0.58422 0.82545 0.0
C919 C 0.07741 0.58788 0.83442 0.0
C920 C 0.05977 0.57008 0.81384 0.0
C921 C 0.04499 0.56543 0.80714 0.0
C922 C 0.03512 0.56789 0.85083 0.0
C923 C 0.02119 0.56359 0.84402 0.0
C924 C 0.01703 0.55672 0.79388 0.0
C925 C 0.02681 0.55409 0.75052 0.0
C926 C 0.04075 0.55839 0.75709 0.0
C927 C 0.1121 0.53856 0.87653 0.0
C928 C 0.11346 0.5291 0.83051 0.0
C929 C 0.10292 0.54994 0.87276 0.0
C930 C 0.09499 0.55213 0.82287 0.0
C931 C 0.0965 0.54287 0.7765 0.0
C932 C 0.10569 0.53149 0.78015 0.0
C933 C 0.0845 0.56358 0.82055 0.0
C934 C 0.07042 0.55998 0.81095 0.0
C935 C 0.08808 0.57774 0.83171 0.0
C936 C 0.10288 0.58226 0.83924 0.0
C937 C 0.11303 0.57903 0.79749 0.0
C938 C 0.12697 0.58324 0.80497 0.0
C939 C 0.13087 0.59077 0.85386 0.0
C940 C 0.12083 0.59413 0.89533 0.0
C941 C 0.10688 0.58994 0.88808 0.0
H942 H 0.14166 0.59401 0.85957 0.0
H943 H 0.00624 0.5534 0.78869 0.0
H944 H 0.04401 0.3901 0.16324 0.0
H945 H 0.0624 0.40487 0.12208 0.0
H946 H 0.04692 0.39602 0.95202 0.0
H947 H 0.02866 0.38105 0.99255 0.0
H948 H 0.07531 0.39571 0.95482 0.0
H949 H 0.03835 0.42635 0.01743 0.0
H950 H 0.02139 0.43623 0.08636 0.0
H951 H 0.05521 0.44897 0.19635 0.0
H952 H 0.07238 0.43899 0.12839 0.0
H953 H 0.10648 0.45481 0.81263 0.0
H954 H 0.09092 0.43662 0.85071 0.0
H955 H 0.10552 0.44552 0.02202 0.0
H956 H 0.12089 0.46379 0.9847 0.0
H957 H 0.07766 0.44543 0.0175 0.0
H958 H 0.11479 0.41531 0.95188 0.0
H959 H 0.13148 0.40549 0.88173 0.0
H960 H 0.09721 0.39197 0.77566 0.0
H961 H 0.08031 0.40189 0.84481 0.0
C962 C 0.04455 0.39122 0.11707 0.0
C963 C 0.03477 0.38451 0.08126 0.0
C964 C 0.05505 0.39969 0.09363 0.0
C965 C 0.05589 0.40168 0.03407 0.0
C966 C 0.04644 0.39464 0.9981 0.0
C967 C 0.03596 0.38615 0.02144 0.0
C968 C 0.06627 0.41155 0.00942 0.0
C969 C 0.07576 0.40662 0.96802 0.0
C970 C 0.06694 0.42572 0.0273 0.0
C971 C 0.05664 0.4318 0.0681 0.0
C972 C 0.04217 0.43117 0.05652 0.0
C973 C 0.03252 0.4368 0.09538 0.0
C974 C 0.03722 0.44319 0.14578 0.0
C975 C 0.05159 0.444 0.15734 0.0
C976 C 0.06128 0.43836 0.11865 0.0
C977 C 0.1065 0.45278 0.85833 0.0
C978 C 0.11486 0.46083 0.89565 0.0
C979 C 0.09764 0.44235 0.87999 0.0
C980 C 0.0971 0.4397 0.9392 0.0
C981 C 0.10574 0.44743 0.97622 0.0
C982 C 0.11453 0.45787 0.95473 0.0
C983 C 0.08687 0.42958 0.9633 0.0
C984 C 0.07731 0.4345 0.00443 0.0
C985 C 0.08613 0.41544 0.94492 0.0
C986 C 0.09628 0.40948 0.90325 0.0
C987 C 0.11081 0.41036 0.91334 0.0
C988 C 0.12031 0.40475 0.87381 0.0
C989 C 0.11541 0.39815 0.82419 0.0
C990 C 0.10099 0.39711 0.81407 0.0
C991 C 0.09145 0.40271 0.85344 0.0
H992 H 0.12278 0.39381 0.79364 0.0
H993 H 0.02973 0.44755 0.17581 0.0
H994 H 0.10455 0.04155 0.67375 0.0
H995 H 0.08926 0.05936 0.63096 0.0
H996 H 0.10708 0.0508 0.46451 0.0
H997 H 0.12215 0.03288 0.50641 0.0
H998 H 0.09355 0.08333 0.57067 0.0
H999 H 0.08175 0.05189 0.3645 0.0
H1000 H 0.08079 0.02722 0.33216 0.0
H1001 H 0.07118 0.01389 0.5036 0.0
H1002 H 0.07195 0.03847 0.53682 0.0
H1003 H 0.04524 0.10736 0.31577 0.0
H1004 H 0.06378 0.09239 0.35516 0.0
H1005 H 0.04795 0.09962 0.52596 0.0
H1006 H 0.02963 0.11471 0.48742 0.0
H1007 H 0.06152 0.06829 0.41444 0.0
H1008 H 0.07439 0.0992 0.62197 0.0
H1009 H 0.07495 0.12372 0.65601 0.0
H1010 H 0.08177 0.13813 0.4838 0.0
H1011 H 0.08143 0.1137 0.44882 0.0
C1012 C 0.10529 0.04354 0.62812 0.0
C1013 C 0.11444 0.03567 0.59341 0.0
C1014 C 0.09657 0.05374 0.60378 0.0
C1015 C 0.09687 0.05621 0.54444 0.0
C1016 C 0.10648 0.04885 0.51022 0.0
C1017 C 0.11511 0.03862 0.53434 0.0
C1018 C 0.08678 0.06608 0.51782 0.0
C1019 C 0.08644 0.08003 0.53693 0.0
C1020 C 0.07774 0.06181 0.4729 0.0
C1021 C 0.07703 0.04701 0.45317 0.0
C1022 C 0.07938 0.04369 0.39521 0.0
C1023 C 0.07888 0.02973 0.37675 0.0
C1024 C 0.07594 0.019 0.41582 0.0
C1025 C 0.07349 0.02221 0.47342 0.0
C1026 C 0.07397 0.03615 0.4921 0.0
C1027 C 0.04577 0.10584 0.36174 0.0
C1028 C 0.03596 0.11226 0.3984 0.0
C1029 C 0.05635 0.09727 0.38415 0.0
C1030 C 0.05734 0.09503 0.44353 0.0
C1031 C 0.04756 0.10142 0.48012 0.0
C1032 C 0.03703 0.10999 0.45787 0.0
C1033 C 0.06823 0.08558 0.46737 0.0
C1034 C 0.0687 0.07166 0.44783 0.0
C1035 C 0.07733 0.08988 0.51206 0.0
C1036 C 0.07776 0.10461 0.53274 0.0
C1037 C 0.07607 0.1076 0.5914 0.0
C1038 C 0.07634 0.12148 0.61086 0.0
C1039 C 0.07835 0.13248 0.57207 0.0
C1040 C 0.08015 0.12961 0.51377 0.0
C1041 C 0.0799 0.11575 0.49409 0.0
H1042 H 0.07854 0.14322 0.58721 0.0
H1043 H 0.07552 0.00821 0.40146 0.0
H1044 H 0.45126 0.11 0.19521 0.0
H1045 H 0.43192 0.09514 0.16158 0.0
H1046 H 0.44787 0.09778 0.98873 0.0
H1047 H 0.4669 0.11276 0.02139 0.0
H1048 H 0.42025 0.10072 0.98897 0.0
H1049 H 0.45396 0.0691 0.0768 0.0
H1050 H 0.46839 0.05994 0.15622 0.0
H1051 H 0.43126 0.05294 0.25663 0.0
H1052 H 0.41662 0.06224 0.17803 0.0
H1053 H 0.3937 0.0412 0.84444 0.0
H1054 H 0.40772 0.05952 0.89029 0.0
H1055 H 0.38688 0.05152 0.05126 0.0
H1056 H 0.37321 0.03283 0.00639 0.0
H1057 H 0.4142 0.05262 0.06651 0.0
H1058 H 0.38027 0.08154 0.97385 0.0
H1059 H 0.36583 0.09027 0.89368 0.0
H1060 H 0.40307 0.10214 0.80201 0.0
H1061 H 0.41775 0.0933 0.88129 0.0
C1062 C 0.4506 0.10744 0.15004 0.0
C1063 C 0.46066 0.11253 0.11107 0.0
C1064 C 0.43957 0.09893 0.13092 0.0
C1065 C 0.43853 0.09527 0.07269 0.0
C1066 C 0.44844 0.10051 0.03379 0.0
C1067 C 0.45937 0.10904 0.05268 0.0
C1068 C 0.42738 0.08571 0.05166 0.0
C1069 C 0.41897 0.09017 0.00569 0.0
C1070 C 0.42541 0.07211 0.07466 0.0
C1071 C 0.43422 0.06655 0.12188 0.0
C1072 C 0.44889 0.06573 0.11602 0.0
C1073 C 0.4571 0.06049 0.16084 0.0
C1074 C 0.45075 0.05591 0.21153 0.0
C1075 C 0.43616 0.05653 0.21742 0.0
C1076 C 0.42791 0.06178 0.17275 0.0
C1077 C 0.39204 0.0434 0.8895 0.0
C1078 C 0.3824 0.03552 0.9218 0.0
C1079 C 0.4 0.05392 0.91561 0.0
C1080 C 0.39828 0.05694 0.97418 0.0
C1081 C 0.38844 0.04929 0.00616 0.0
C1082 C 0.38062 0.03864 0.98034 0.0
C1083 C 0.40732 0.06748 0.00275 0.0
C1084 C 0.41532 0.06323 0.05023 0.0
C1085 C 0.40891 0.08126 0.9811 0.0
C1086 C 0.40011 0.08666 0.93341 0.0
C1087 C 0.38538 0.08592 0.93644 0.0
C1088 C 0.37716 0.0909 0.89117 0.0
C1089 C 0.38353 0.09673 0.84274 0.0
C1090 C 0.39815 0.09762 0.83954 0.0
C1091 C 0.40643 0.09264 0.88468 0.0
H1092 H 0.37714 0.10058 0.80774 0.0
H1093 H 0.45712 0.05185 0.24616 0.0
H1094 H 0.38359 0.46738 0.51738 0.0
H1095 H 0.39747 0.44795 0.48097 0.0
H1096 H 0.40247 0.43196 0.65285 0.0
H1097 H 0.38872 0.45172 0.69025 0.0
H1098 H 0.42675 0.43171 0.59715 0.0
H1099 H 0.3806 0.4155 0.55592 0.0
H1100 H 0.35637 0.4169 0.51935 0.0
H1101 H 0.37192 0.42346 0.34862 0.0
H1102 H 0.39626 0.42229 0.38426 0.0
H1103 H 0.46083 0.37163 0.48893 0.0
H1104 H 0.4428 0.38584 0.53514 0.0
H1105 H 0.43512 0.40738 0.37547 0.0
H1106 H 0.45299 0.39293 0.32834 0.0
H1107 H 0.41092 0.40247 0.43322 0.0
H1108 H 0.45691 0.42133 0.47799 0.0
H1109 H 0.48111 0.41991 0.51509 0.0
H1110 H 0.46544 0.40808 0.68085 0.0
H1111 H 0.44114 0.40926 0.64449 0.0
C1112 C 0.38754 0.45972 0.54766 0.0
C1113 C 0.385 0.4611 0.60683 0.0
C1114 C 0.39542 0.44854 0.52661 0.0
C1115 C 0.40078 0.43834 0.56402 0.0
C1116 C 0.39833 0.43967 0.62319 0.0
C1117 C 0.39049 0.45096 0.64447 0.0
C1118 C 0.40949 0.42674 0.541 0.0
C1119 C 0.42317 0.42511 0.56214 0.0
C1120 C 0.40491 0.41829 0.49462 0.0
C1121 C 0.39027 0.41889 0.47287 0.0
C1122 C 0.37886 0.41733 0.51063 0.0
C1123 C 0.3651 0.41807 0.49005 0.0
C1124 C 0.36261 0.42029 0.43172 0.0
C1125 C 0.37387 0.42174 0.3938 0.0
C1126 C 0.38765 0.42102 0.41416 0.0
C1127 C 0.45522 0.37929 0.46339 0.0
C1128 C 0.45847 0.3813 0.40509 0.0
C1129 C 0.44493 0.38742 0.48996 0.0
C1130 C 0.43784 0.39786 0.45904 0.0
C1131 C 0.44053 0.39941 0.40016 0.0
C1132 C 0.45076 0.39117 0.37332 0.0
C1133 C 0.4282 0.40767 0.48871 0.0
C1134 C 0.41438 0.40895 0.46878 0.0
C1135 C 0.43263 0.41577 0.53634 0.0
C1136 C 0.44722 0.41524 0.55837 0.0
C1137 C 0.45863 0.41834 0.52225 0.0
C1138 C 0.47236 0.41759 0.54315 0.0
C1139 C 0.47481 0.41387 0.60025 0.0
C1140 C 0.46353 0.41094 0.63662 0.0
C1141 C 0.44977 0.41166 0.6159 0.0
H1142 H 0.48545 0.41328 0.61634 0.0
H1143 H 0.35194 0.42087 0.41588 0.0
H1144 H 0.88573 0.52921 0.01944 0.0
H1145 H 0.90151 0.54712 0.98282 0.0
H1146 H 0.90751 0.56318 0.15399 0.0
H1147 H 0.8915 0.54517 0.19161 0.0
H1148 H 0.90362 0.58431 0.07138 0.0
H1149 H 0.93248 0.54389 0.09892 0.0
H1150 H 0.93894 0.5189 0.09127 0.0
H1151 H 0.93941 0.52213 0.90763 0.0
H1152 H 0.93273 0.54711 0.91414 0.0
H1153 H 0.9653 0.62314 0.9974 0.0
H1154 H 0.94802 0.60748 0.04068 0.0
H1155 H 0.94012 0.58866 0.87558 0.0
H1156 H 0.95745 0.60431 0.83166 0.0
H1157 H 0.94543 0.56918 0.96041 0.0
H1158 H 0.91606 0.60955 0.93329 0.0
H1159 H 0.90941 0.63448 0.94133 0.0
H1160 H 0.91013 0.63139 0.125 0.0
H1161 H 0.91698 0.60646 0.11806 0.0
C1162 C 0.89034 0.53653 0.0496 0.0
C1163 C 0.88741 0.53568 0.10866 0.0
C1164 C 0.8994 0.54676 0.02846 0.0
C1165 C 0.9058 0.55634 0.06577 0.0
C1166 C 0.90268 0.55581 0.12458 0.0
C1167 C 0.89359 0.54551 0.14597 0.0
C1168 C 0.91591 0.56668 0.04268 0.0
C1169 C 0.9129 0.58104 0.04796 0.0
C1170 C 0.92784 0.56235 0.01116 0.0
C1171 C 0.93199 0.54735 0.00702 0.0
C1172 C 0.93386 0.53925 0.05688 0.0
C1173 C 0.93758 0.52509 0.05275 0.0
C1174 C 0.93956 0.51892 -0.00101 0.0
C1175 C 0.93786 0.52692 0.94925 0.0
C1176 C 0.93412 0.54109 0.95313 0.0
C1177 C 0.95981 0.61577 0.97007 0.0
C1178 C 0.96279 0.61494 0.91105 0.0
C1179 C 0.94989 0.60687 0.99491 0.0
C1180 C 0.94278 0.59696 0.96129 0.0
C1181 C 0.94552 0.59626 0.9022 0.0
C1182 C 0.95537 0.60524 0.87717 0.0
C1183 C 0.93306 0.58682 0.98839 0.0
C1184 C 0.93618 0.57247 0.984 0.0
C1185 C 0.92129 0.59118 0.02084 0.0
C1186 C 0.91718 0.60617 0.02515 0.0
C1187 C 0.91493 0.61421 0.9754 0.0
C1188 C 0.9111 0.62834 0.97975 0.0
C1189 C 0.90939 0.63452 0.03364 0.0
C1190 C 0.91148 0.62658 0.08329 0.0
C1191 C 0.91533 0.61245 0.07917 0.0
H1192 H 0.90641 0.64546 0.03692 0.0
H1193 H 0.94243 0.50796 0.99589 0.0
H1194 H 0.95362 0.87384 0.53531 0.0
H1195 H 0.9355 0.88964 0.49933 0.0
H1196 H 0.93965 0.91527 0.65102 0.0
H1197 H 0.95745 0.89909 0.68847 0.0
H1198 H 0.91302 0.91457 0.61749 0.0
H1199 H 0.95718 0.92353 0.52608 0.0
H1200 H 0.97869 0.91738 0.47288 0.0
H1201 H 0.95386 0.90353 0.33001 0.0
H1202 H 0.93218 0.90943 0.38269 0.0
H1203 H 0.88579 0.97717 0.49407 0.0
H1204 H 0.90006 0.95922 0.54033 0.0
H1205 H 0.89715 0.93339 0.38867 0.0
H1206 H 0.8833 0.95162 0.34117 0.0
H1207 H 0.92288 0.93417 0.42451 0.0
H1208 H 0.87823 0.92669 0.51908 0.0
H1209 H 0.85745 0.93386 0.57501 0.0
H1210 H 0.88399 0.94648 0.71462 0.0
H1211 H 0.90493 0.93952 0.65933 0.0
C1212 C 0.95053 0.88274 0.56137 0.0
C1213 C 0.95706 0.88537 0.61429 0.0
C1214 C 0.94021 0.89178 0.5407 0.0
C1215 C 0.93651 0.90384 0.57175 0.0
C1216 C 0.94243 0.90607 0.62618 0.0
C1217 C 0.95259 0.89684 0.64748 0.0
C1218 C 0.9272 0.91454 0.54558 0.0
C1219 C 0.91521 0.91896 0.57552 0.0
C1220 C 0.93003 0.92019 0.49062 0.0
C1221 C 0.94306 0.9168 0.45854 0.0
C1222 C 0.9563 0.9191 0.48344 0.0
C1223 C 0.96853 0.91567 0.45337 0.0
C1224 C 0.96764 0.91004 0.39815 0.0
C1225 C 0.95453 0.90788 0.37281 0.0
C1226 C 0.94227 0.91127 0.40273 0.0
C1227 C 0.88812 0.96764 0.47061 0.0
C1228 C 0.88342 0.9658 0.41393 0.0
C1229 C 0.8962 0.95733 0.49734 0.0
C1230 C 0.89946 0.94482 0.46844 0.0
C1231 C 0.89471 0.94293 0.41191 0.0
C1232 C 0.88681 0.95335 0.38477 0.0
C1233 C 0.9085 0.93406 0.49582 0.0
C1234 C 0.92056 0.9297 0.46624 0.0
C1235 C 0.90579 0.92864 0.55138 0.0
C1236 C 0.89316 0.93268 0.58484 0.0
C1237 C 0.87964 0.93106 0.56158 0.0
C1238 C 0.86783 0.93508 0.59322 0.0
C1239 C 0.8694 0.94064 0.64832 0.0
C1240 C 0.88278 0.94216 0.67197 0.0
C1241 C 0.89462 0.93816 0.64053 0.0
H1242 H 0.86025 0.94376 0.67272 0.0
H1243 H 0.97711 0.90738 0.37496 0.0
H1244 H 0.60446 0.95475 0.16194 0.0
H1245 H 0.59025 0.93659 0.11577 0.0
H1246 H 0.60873 0.9469 0.95215 0.0
H1247 H 0.62269 0.96523 0.99754 0.0
H1248 H 0.58139 0.94528 0.94242 0.0
H1249 H 0.61711 0.91622 0.02411 0.0
H1250 H 0.63239 0.90699 0.10067 0.0
H1251 H 0.59621 0.89308 0.19462 0.0
H1252 H 0.5807 0.9024 0.11898 0.0
H1253 H 0.54594 0.88867 0.80313 0.0
H1254 H 0.56502 0.90354 0.83923 0.0
H1255 H 0.55007 0.89761 0.01221 0.0
H1256 H 0.53133 0.88263 0.97707 0.0
H1257 H 0.57779 0.89601 0.00954 0.0
H1258 H 0.54227 0.9274 0.93362 0.0
H1259 H 0.52681 0.9369 0.85818 0.0
H1260 H 0.56275 0.94656 0.75424 0.0
H1261 H 0.57841 0.93695 0.82883 0.0
C1262 C 0.60559 0.95306 0.11623 0.0
C1263 C 0.61465 0.96148 0.08342 0.0
C1264 C 0.59751 0.94263 0.08992 0.0
C1265 C 0.59851 0.94031 0.03053 0.0
C1266 C 0.60777 0.94852 0.99798 0.0
C1267 C 0.61574 0.959 0.02409 0.0
C1268 C 0.58937 0.92987 0.00174 0.0
C1269 C 0.58081 0.93444 0.95643 0.0
C1270 C 0.58843 0.91578 0.02058 0.0
C1271 C 0.59774 0.9101 0.06604 0.0
C1272 C 0.61241 0.91128 0.06128 0.0
C1273 C 0.62111 0.90602 0.10448 0.0
C1274 C 0.61528 0.89948 0.15253 0.0
C1275 C 0.60072 0.89816 0.1574 0.0
C1276 C 0.59197 0.90341 0.11433 0.0
C1277 C 0.54678 0.89049 0.84885 0.0
C1278 C 0.53705 0.88452 0.88711 0.0
C1279 C 0.55766 0.899 0.8694 0.0
C1280 C 0.55888 0.90178 0.9284 0.0
C1281 C 0.54937 0.89558 0.96657 0.0
C1282 C 0.53859 0.88706 0.94624 0.0
C1283 C 0.56969 0.91151 0.95096 0.0
C1284 C 0.57855 0.90681 0.9951 0.0
C1285 C 0.5709 0.92549 0.93116 0.0
C1286 C 0.56149 0.93131 0.88646 0.0
C1287 C 0.54687 0.93146 0.89448 0.0
C1288 C 0.53807 0.93688 0.85192 0.0
C1289 C 0.54379 0.94229 0.80137 0.0
C1290 C 0.55833 0.94233 0.79336 0.0
C1291 C 0.56717 0.93691 0.83576 0.0
H1292 H 0.53697 0.94648 0.76847 0.0
H1293 H 0.62203 0.89542 0.18594 0.0
H1294 H 0.60623 0.54174 0.33536 0.0
H1295 H 0.59246 0.56015 0.38172 0.0
H1296 H 0.6125 0.55095 0.54336 0.0
H1297 H 0.626 0.53226 0.49773 0.0
H1298 H 0.58552 0.55269 0.55809 0.0
H1299 H 0.61977 0.58155 0.46722 0.0
H1300 H 0.63442 0.59038 0.38788 0.0
H1301 H 0.59745 0.60275 0.29558 0.0
H1302 H 0.58256 0.59381 0.37401 0.0
H1303 H 0.54779 0.60984 0.68568 0.0
H1304 H 0.56743 0.5952 0.65328 0.0
H1305 H 0.55219 0.59777 0.47936 0.0
H1306 H 0.53288 0.61253 0.51079 0.0
H1307 H 0.5798 0.60092 0.48152 0.0
H1308 H 0.5459 0.56887 0.56743 0.0
H1309 H 0.53136 0.5598 0.64676 0.0
H1310 H 0.5683 0.55357 0.74911 0.0
H1311 H 0.58304 0.56277 0.67058 0.0
C1312 C 0.60781 0.54373 0.38064 0.0
C1313 C 0.61716 0.53549 0.41288 0.0
C1314 C 0.59999 0.55432 0.40706 0.0
C1315 C 0.60156 0.55704 0.46595 0.0
C1316 C 0.61112 0.54903 0.49791 0.0
C1317 C 0.61882 0.53836 0.47169 0.0
C1318 C 0.59258 0.56761 0.49482 0.0
C1319 C 0.5845 0.56333 0.54203 0.0
C1320 C 0.59112 0.58145 0.47358 0.0
C1321 C 0.60005 0.58692 0.42639 0.0
C1322 C 0.61476 0.58606 0.42984 0.0
C1323 C 0.62311 0.59111 0.38505 0.0
C1324 C 0.61687 0.5971 0.33668 0.0
C1325 C 0.60227 0.5981 0.33306 0.0
C1326 C 0.59387 0.59306 0.37772 0.0
C1327 C 0.54866 0.6073 0.64055 0.0
C1328 C 0.53873 0.61231 0.6009 0.0
C1329 C 0.55987 0.59893 0.62212 0.0
C1330 C 0.56121 0.59531 0.56394 0.0
C1331 C 0.55141 0.60047 0.52439 0.0
C1332 C 0.54032 0.60887 0.54258 0.0
C1333 C 0.5725 0.58584 0.54356 0.0
C1334 C 0.58103 0.59035 0.49806 0.0
C1335 C 0.5744 0.57222 0.56641 0.0
C1336 C 0.56554 0.56666 0.61345 0.0
C1337 C 0.5509 0.56566 0.60702 0.0
C1338 C 0.54263 0.56049 0.6518 0.0
C1339 C 0.5489 0.55616 0.70301 0.0
C1340 C 0.56346 0.55696 0.70948 0.0
C1341 C 0.57177 0.56215 0.66485 0.0
H1342 H 0.54248 0.55215 0.73763 0.0
H1343 H 0.62335 0.60099 0.30204 0.0
H1344 H 0.99044 0.30125 0.13337 0.0
H1345 H 0.99234 0.27634 0.15481 0.0
H1346 H 0.02599 0.28511 0.27381 0.0
H1347 H 0.02564 0.30964 0.24491 0.0
H1348 H 0.03156 0.26258 0.23667 0.0
H1349 H 0.98857 0.27899 0.31247 0.0
H1350 H 0.96546 0.29065 0.31426 0.0
H1351 H 0.94972 0.26108 0.19102 0.0
H1352 H 0.9728 0.24935 0.18793 0.0
H1353 H 0.99123 0.19576 0.35797 0.0
H1354 H 0.99283 0.22095 0.34283 0.0
H1355 H 0.0263 0.21428 0.22063 0.0
H1356 H 0.02631 0.18939 0.24365 0.0
H1357 H 0.98729 0.23631 0.26705 0.0
H1358 H 0.04581 0.24182 0.19334 0.0
H1359 H 0.06896 0.23186 0.21748 0.0
H1360 H 0.0539 0.22052 0.38472 0.0
H1361 H 0.03071 0.23057 0.36188 0.0
C1362 C 0.99854 0.29781 0.1627 0.0
C1363 C 0.00777 0.30748 0.188 0.0
C1364 C -0.00061 0.28356 0.17614 0.0
C1365 C 0.00893 0.27878 0.2178 0.0
C1366 C 0.01841 0.28841 0.24194 0.0
C1367 C 0.01803 0.30254 0.22621 0.0
C1368 C 0.00895 0.26382 0.2366 0.0
C1369 C 0.02186 0.25689 0.2438 0.0
C1370 C 0.99637 0.25638 0.24794 0.0
C1371 C 0.98245 0.26337 0.24959 0.0
C1372 C 0.9802 0.27503 0.28549 0.0
C1373 C 0.96711 0.28165 0.28676 0.0
C1374 C 0.95614 0.27663 0.25267 0.0
C1375 C 0.95823 0.26496 0.21734 0.0
C1376 C 0.97131 0.25832 0.21585 0.0
C1377 C -0.0007 0.19973 0.3296 0.0
C1378 C 0.00869 0.19055 0.30226 0.0
C1379 C 4e-05 0.21417 0.31999 0.0
C1380 C 0.00979 0.21973 0.28085 0.0
C1381 C 0.01897 0.21048 0.25251 0.0
C1382 C 0.01873 0.19613 0.26454 0.0
C1383 C 0.00991 0.23507 0.26798 0.0
C1384 C 0.99701 0.24204 0.26113 0.0
C1385 C 0.02252 0.24283 0.26145 0.0
C1386 C 0.03648 0.23684 0.27565 0.0
C1387 C 0.04745 0.23726 0.23535 0.0
C1388 C 0.06058 0.23158 0.24879 0.0
C1389 C 0.06288 0.22552 0.30253 0.0
C1390 C 0.05208 0.22517 0.34303 0.0
C1391 C 0.03894 0.23084 0.32984 0.0
H1392 H 0.07305 0.22112 0.31283 0.0
H1393 H 0.94601 0.28177 0.25371 0.0
H1394 H 0.30226 0.02155 0.87137 0.0
H1395 H 0.27717 0.02256 0.84844 0.0
H1396 H 0.28352 0.9926 0.71173 0.0
H1397 H 0.30871 0.99218 0.73309 0.0
H1398 H 0.26617 0.01128 0.67699 0.0
H1399 H 0.26982 0.98352 0.84709 0.0
H1400 H 0.27692 0.97804 0.94626 0.0
H1401 H 0.25243 0.01268 0.00852 0.0
H1402 H 0.24538 0.01853 0.90956 0.0
H1403 H 0.1954 0.98586 0.66217 0.0
H1404 H 0.22059 0.98726 0.68296 0.0
H1405 H 0.2141 0.02645 0.77168 0.0
H1406 H 0.18898 0.02545 0.74853 0.0
H1407 H 0.23101 0.00379 0.83104 0.0
H1408 H 0.22719 0.03038 0.65481 0.0
H1409 H 0.21977 0.03375 0.55448 0.0
H1410 H 0.24436 0.99812 0.50312 0.0
H1411 H 0.25175 0.9944 0.6034 0.0
C1412 C 0.29821 0.01525 0.83638 0.0
C1413 C 0.30722 0.00673 0.80409 0.0
C1414 C 0.28392 0.01576 0.82345 0.0
C1415 C 0.2784 0.00744 0.77907 0.0
C1416 C 0.28752 0.9991 0.74619 0.0
C1417 C 0.30185 0.99881 0.75843 0.0
C1418 C 0.26311 0.00729 0.76721 0.0
C1419 C 0.25852 0.00949 0.71068 0.0
C1420 C 0.25307 0.00511 0.8112 0.0
C1421 C 0.25719 0.00155 0.87083 0.0
C1422 C 0.26603 0.99003 0.88188 0.0
C1423 C 0.27004 0.98686 0.93806 0.0
C1424 C 0.26516 0.99503 0.98365 0.0
C1425 C 0.25623 0.00638 0.97315 0.0
C1426 C 0.25222 0.00962 0.91703 0.0
C1427 C 0.19939 0.99484 0.68554 0.0
C1428 C 0.19032 0.00555 0.70379 0.0
C1429 C 0.21371 0.99558 0.69761 0.0
C1430 C 0.2191 0.00696 0.72877 0.0
C1431 C 0.21005 0.01758 0.74777 0.0
C1432 C 0.19576 0.01697 0.73475 0.0
C1433 C 0.23424 0.00775 0.74121 0.0
C1434 C 0.23874 0.00563 0.7977 0.0
C1435 C 0.2442 0.0097 0.6971 0.0
C1436 C 0.23991 0.01203 0.6367 0.0
C1437 C 0.23091 0.02319 0.62222 0.0
C1438 C 0.22673 0.02517 0.56534 0.0
C1439 C 0.23156 0.01613 0.52247 0.0
C1440 C 0.24061 0.00511 0.53638 0.0
C1441 C 0.24481 0.00306 0.59323 0.0
H1442 H 0.22831 0.01768 0.47846 0.0
H1443 H 0.26827 0.99255 0.02712 0.0
H1444 H 0.47537 0.30267 0.35451 0.0
H1445 H 0.47404 0.27774 0.32887 0.0
H1446 H 0.50551 0.28419 0.19805 0.0
H1447 H 0.50619 0.30925 0.22179 0.0
H1448 H 0.48688 0.26782 0.15762 0.0
H1449 H 0.51258 0.26878 0.3336 0.0
H1450 H 0.51718 0.27468 0.43483 0.0
H1451 H 0.48079 0.25125 0.48623 0.0
H1452 H 0.47584 0.24539 0.38516 0.0
H1453 H 0.50922 0.19562 0.14105 0.0
H1454 H 0.50809 0.22101 0.15834 0.0
H1455 H 0.46856 0.21573 0.24584 0.0
H1456 H 0.46935 0.19042 0.22647 0.0
H1457 H 0.4908 0.23109 0.30762 0.0
H1458 H 0.46647 0.22974 0.12594 0.0
H1459 H 0.46394 0.22344 0.02391 0.0
H1460 H 0.50089 0.24723 0.98309 0.0
H1461 H 0.50378 0.25349 0.08509 0.0
C1462 C 0.48198 0.29866 0.3204 0.0
C1463 C 0.49096 0.30766 0.29028 0.0
C1464 C 0.48128 0.28446 0.3059 0.0
C1465 C 0.48988 0.27901 0.26223 0.0
C1466 C 0.49879 0.28812 0.2319 0.0
C1467 C 0.49924 0.30238 0.24557 0.0
C1468 C 0.48959 0.26383 0.24804 0.0
C1469 C 0.48791 0.25982 0.19045 0.0
C1470 C 0.49077 0.25333 0.29085 0.0
C1471 C 0.49376 0.25676 0.35173 0.0
C1472 C 0.5055 0.26496 0.36645 0.0
C1473 C 0.50818 0.2683 0.4238 0.0
C1474 C 0.49926 0.26337 0.46692 0.0
C1475 C 0.48767 0.25507 0.45277 0.0
C1476 C 0.48493 0.25174 0.39546 0.0
C1477 C 0.50019 0.19994 0.16308 0.0
C1478 C 0.48944 0.19113 0.18308 0.0
C1479 C 0.49958 0.21438 0.17307 0.0
C1480 C 0.48827 0.22014 0.20354 0.0
C1481 C 0.4774 0.2114 0.22255 0.0
C1482 C 0.47789 0.197 0.21172 0.0
C1483 C 0.4881 0.23523 0.21761 0.0
C1484 C 0.48973 0.23917 0.2751 0.0
C1485 C 0.48721 0.24563 0.17466 0.0
C1486 C 0.48542 0.24196 0.11325 0.0
C1487 C 0.47413 0.23352 0.0953 0.0
C1488 C 0.47262 0.22998 0.03745 0.0
C1489 C 0.48227 0.2349 0.99706 0.0
C1490 C 0.49343 0.24341 0.01443 0.0
C1491 C 0.49501 0.24697 0.07225 0.0
H1492 H 0.48108 0.23215 0.95229 0.0
H1493 H 0.50135 0.26596 0.5113 0.0
H1494 H 0.30962 0.47312 0.75562 0.0
H1495 H 0.28456 0.4726 0.77855 0.0
H1496 H 0.27829 0.51008 0.67761 0.0
H1497 H 0.30349 0.5111 0.65786 0.0
H1498 H 0.26412 0.51223 0.77121 0.0
H1499 H 0.26916 0.47633 0.62901 0.0
H1500 H 0.27903 0.45499 0.58485 0.0
H1501 H 0.26569 0.43057 0.72972 0.0
H1502 H 0.2559 0.45182 0.77514 0.0
H1503 H 0.19032 0.50583 0.73029 0.0
H1504 H 0.21565 0.50524 0.71138 0.0
H1505 H 0.22127 0.47618 0.85139 0.0
H1506 H 0.1959 0.47695 0.87096 0.0
H1507 H 0.23548 0.46935 0.74083 0.0
H1508 H 0.22986 0.50644 0.88015 0.0
H1509 H 0.21919 0.52814 0.91785 0.0
H1510 H 0.233 0.55072 0.76881 0.0
H1511 H 0.24355 0.52908 0.72974 0.0
C1512 C 0.30287 0.4813 0.73887 0.0
C1513 C 0.30841 0.49214 0.705 0.0
C1514 C 0.28855 0.48091 0.75138 0.0
C1515 C 0.2795 0.49118 0.72903 0.0
C1516 C 0.28506 0.50203 0.69519 0.0
C1517 C 0.29941 0.50253 0.68348 0.0
C1518 C 0.26425 0.49077 0.74162 0.0
C1519 C 0.25786 0.50289 0.76385 0.0
C1520 C 0.25608 0.47851 0.73301 0.0
C1521 C 0.26192 0.4657 0.70573 0.0
C1522 C 0.26842 0.46643 0.65165 0.0
C1523 C 0.27399 0.45435 0.62636 0.0
C1524 C 0.27302 0.44144 0.65453 0.0
C1525 C 0.26645 0.44058 0.70799 0.0
C1526 C 0.26088 0.45264 0.73351 0.0
C1527 C 0.197 0.49931 0.7568 0.0
C1528 C 0.19134 0.4915 0.80219 0.0
C1529 C 0.2114 0.49899 0.74608 0.0
C1530 C 0.22024 0.49071 0.7802 0.0
C1531 C 0.21455 0.48263 0.82474 0.0
C1532 C 0.20016 0.48312 0.83603 0.0
C1533 C 0.2355 0.49078 0.7699 0.0
C1534 C 0.24184 0.47862 0.74818 0.0
C1535 C 0.24358 0.50305 0.77805 0.0
C1536 C 0.23737 0.5161 0.80177 0.0
C1537 C 0.23051 0.516 0.85517 0.0
C1538 C 0.22451 0.5283 0.87683 0.0
C1539 C 0.22539 0.54079 0.84568 0.0
C1540 C 0.23231 0.54103 0.79286 0.0
C1541 C 0.23832 0.52875 0.77096 0.0
H1542 H 0.22073 0.5503 0.86252 0.0
H1543 H 0.27734 0.43209 0.63488 0.0
H1544 H 0.00696 0.80322 0.64461 0.0
H1545 H 0.00602 0.7779 0.66345 0.0
H1546 H 0.96929 0.78391 0.76876 0.0
H1547 H 0.96982 0.80914 0.74798 0.0
H1548 H 0.99249 0.76764 0.8193 0.0
H1549 H 0.96361 0.77049 0.64957 0.0
H1550 H 0.95858 0.77734 0.54973 0.0
H1551 H 0.99346 0.75268 0.49107 0.0
H1552 H 0.99885 0.74586 0.59074 0.0
H1553 H 0.97651 0.6963 0.86814 0.0
H1554 H 0.97478 0.72127 0.8437 0.0
H1555 H 0.00317 0.71484 0.70163 0.0
H1556 H 0.00436 0.68977 0.72476 0.0
H1557 H 0.98363 0.7317 0.6695 0.0
H1558 H 0.01375 0.72935 0.83316 0.0
H1559 H 0.02071 0.72276 0.93137 0.0
H1560 H 0.98639 0.74671 -0.00017 0.0
H1561 H 0.97909 0.75326 0.90191 0.0
C1562 C 0.99858 0.79908 0.67103 0.0
C1563 C 0.98849 0.80807 0.69506 0.0
C1564 C 0.99809 0.78468 0.68194 0.0
C1565 C 0.9876 0.77912 0.71748 0.0
C1566 C 0.97749 0.78807 0.74142 0.0
C1567 C 0.97784 0.80243 0.72974 0.0
C1568 C 0.98737 0.76399 0.73069 0.0
C1569 C 0.99035 0.75975 0.78689 0.0
C1570 C 0.98503 0.7538 0.68772 0.0
C1571 C 0.98172 0.75779 0.62771 0.0
C1572 C 0.97029 0.76663 0.61546 0.0
C1573 C 0.96736 0.77049 0.55888 0.0
C1574 C 0.97572 0.76548 0.5141 0.0
C1575 C 0.987 0.75657 0.52581 0.0
C1576 C 0.99 0.7527 0.58233 0.0
C1577 C 0.98234 0.7003 0.83175 0.0
C1578 C 0.99065 0.6913 0.7985 0.0
C1579 C 0.98141 0.71452 0.81789 0.0
C1580 C 0.98907 0.71999 0.77145 0.0
C1581 C 0.99719 0.71088 0.73766 0.0
C1582 C 0.99791 0.69661 0.75093 0.0
C1583 C 0.98877 0.73523 0.75844 0.0
C1584 C 0.98573 0.73953 0.70219 0.0
C1585 C 0.99135 0.74549 0.80117 0.0
C1586 C 0.99579 0.74168 0.86016 0.0
C1587 C 0.00763 0.73314 0.86914 0.0
C1588 C 0.01164 0.72941 0.92475 0.0
C1589 C 0.00398 0.73428 0.9718 0.0
C1590 C 0.99231 0.74292 0.96334 0.0
C1591 C 0.98823 0.74665 0.90779 0.0
H1592 H 0.0071 0.73139 0.01483 0.0
H1593 H 0.97343 0.76848 0.47032 0.0
H1594 H 0.80372 0.01516 0.3056 0.0
H1595 H 0.77854 0.01428 0.28358 0.0
H1596 H 0.78107 0.96926 0.26522 0.0
H1597 H 0.80627 0.97016 0.2874 0.0
H1598 H 0.76496 0.00445 0.1863 0.0
H1599 H 0.75008 0.95592 0.32154 0.0
H1600 H 0.75813 0.94354 0.4085 0.0
H1601 H 0.77524 0.98199 0.47451 0.0
H1602 H 0.76711 0.99463 0.38843 0.0
H1603 H 0.69619 0.9814 0.11371 0.0
H1604 H 0.72133 0.98093 0.13637 0.0
H1605 H 0.71272 0.99907 0.30227 0.0
H1606 H 0.68766 -0.00024 0.27943 0.0
H1607 H 0.73184 0.97748 0.30827 0.0
H1608 H 0.724 0.01954 0.19792 0.0
H1609 H 0.71557 0.03283 0.11401 0.0
H1610 H 0.74352 0.00969 0.00473 0.0
H1611 H 0.75196 0.99609 0.08794 0.0
C1612 C 0.79883 0.00511 0.29694 0.0
C1613 C 0.80676 0.99272 0.29811 0.0
C1614 C 0.78454 0.00462 0.28412 0.0
C1615 C 0.77799 0.99171 0.273 0.0
C1616 C 0.78594 0.97931 0.27407 0.0
C1617 C 0.80026 0.97982 0.28654 0.0
C1618 C 0.7628 0.99124 0.26074 0.0
C1619 C 0.75771 0.99853 0.21282 0.0
C1620 C 0.75338 0.98361 0.2958 0.0
C1621 C 0.75812 0.97617 0.34822 0.0
C1622 C 0.75551 0.96173 0.35472 0.0
C1623 C 0.76009 0.95468 0.40385 0.0
C1624 C 0.76723 0.96197 0.4469 0.0
C1625 C 0.76976 0.97635 0.44103 0.0
C1626 C 0.76518 0.98345 0.39205 0.0
C1627 C 0.69971 0.98534 0.15485 0.0
C1628 C 0.69008 0.9907 0.19474 0.0
C1629 C 0.71401 0.985 0.16783 0.0
C1630 C 0.71884 0.99005 0.22084 0.0
C1631 C 0.70917 0.99507 0.26125 0.0
C1632 C 0.6949 0.99545 0.2482 0.0
C1633 C 0.73402 0.9906 0.23353 0.0
C1634 C 0.7391 0.98332 0.2815 0.0
C1635 C 0.74341 0.99838 0.19896 0.0
C1636 C 0.73852 0.00671 0.14906 0.0
C1637 C 0.72828 0.01722 0.15594 0.0
C1638 C 0.72351 0.02482 0.10852 0.0
C1639 C 0.72898 0.02209 0.05405 0.0
C1640 C 0.73928 0.01178 0.04694 0.0
C1641 C 0.74407 0.00413 0.09421 0.0
H1642 H 0.72526 0.02797 0.01738 0.0
H1643 H 0.77078 0.95648 0.48487 0.0
H1644 H 0.49182 0.80073 0.85778 0.0
H1645 H 0.49423 0.77562 0.84031 0.0
H1646 H 0.527 0.78403 0.71681 0.0
H1647 H 0.52601 0.80886 0.74086 0.0
H1648 H 0.48888 0.76075 0.76058 0.0
H1649 H 0.54769 0.75727 0.68899 0.0
H1650 H 0.57048 0.76779 0.71487 0.0
H1651 H 0.55474 0.77779 0.88252 0.0
H1652 H 0.53192 0.76717 0.85793 0.0
H1653 H 0.49427 0.6967 0.62043 0.0
H1654 H 0.49594 0.72169 0.64215 0.0
H1655 H 0.52822 0.71297 0.7673 0.0
H1656 H 0.5279 0.68831 0.73961 0.0
H1657 H 0.53394 0.73584 0.72989 0.0
H1658 H 0.49087 0.71789 0.80027 0.0
H1659 H 0.46809 0.70562 0.79778 0.0
H1660 H 0.45251 0.73559 0.67586 0.0
H1661 H 0.47528 0.74793 0.67705 0.0
C1662 C 0.49986 0.79715 0.82839 0.0
C1663 C 0.50871 0.80677 0.80062 0.0
C1664 C 0.50109 0.78279 0.81764 0.0
C1665 C 0.51088 0.77777 0.77743 0.0
C1666 C 0.51963 0.78745 0.74926 0.0
C1667 C 0.51883 0.80173 0.76202 0.0
C1668 C 0.51146 0.76255 0.76298 0.0
C1669 C 0.49877 0.75532 0.75446 0.0
C1670 C 0.5243 0.75521 0.75611 0.0
C1671 C 0.53804 0.76154 0.77137 0.0
C1672 C 0.54911 0.76166 0.73145 0.0
C1673 C 0.56203 0.76765 0.74588 0.0
C1674 C 0.56404 0.77349 0.80024 0.0
C1675 C 0.55315 0.77331 0.84035 0.0
C1676 C 0.54021 0.76732 0.82617 0.0
C1677 C 0.502 0.70018 0.65131 0.0
C1678 C 0.51075 0.69052 0.67925 0.0
C1679 C 0.50276 0.71446 0.66462 0.0
C1680 C 0.5118 0.71923 0.70815 0.0
C1681 C 0.52102 0.70963 0.73407 0.0
C1682 C 0.52068 0.69547 0.7189 0.0
C1683 C 0.51138 0.73408 0.72793 0.0
C1684 C 0.52408 0.74126 0.73687 0.0
C1685 C 0.49856 0.7411 0.73916 0.0
C1686 C 0.48482 0.73375 0.73836 0.0
C1687 C 0.48261 0.72181 0.77268 0.0
C1688 C 0.4697 0.71485 0.77152 0.0
C1689 C 0.45887 0.7198 0.73658 0.0
C1690 C 0.46091 0.73175 0.70284 0.0
C1691 C 0.47382 0.73874 0.70377 0.0
H1692 H 0.44888 0.7144 0.73574 0.0
H1693 H 0.57405 0.77813 0.8113 0.0
H1694 H 0.8032 0.48936 0.14494 0.0
H1695 H 0.77784 0.49016 0.16262 0.0
H1696 H 0.78258 0.53014 0.24729 0.0
H1697 H 0.80788 0.52968 0.22738 0.0
H1698 H 0.76757 0.50766 0.31062 0.0
H1699 H 0.76835 0.53178 0.12858 0.0
H1700 H 0.77465 0.53433 0.02657 0.0
H1701 H 0.75177 0.49676 0.98628 0.0
H1702 H 0.74551 0.49387 0.08827 0.0
H1703 H 0.69553 0.52091 0.35701 0.0
H1704 H 0.72039 0.52306 0.33136 0.0
H1705 H 0.71506 0.49112 0.20157 0.0
H1706 H 0.69003 0.48959 0.22542 0.0
H1707 H 0.73076 0.51038 0.16056 0.0
H1708 H 0.73067 0.48473 0.33679 0.0
H1709 H 0.72488 0.48002 0.43804 0.0
H1710 H 0.74699 0.51727 0.48906 0.0
H1711 H 0.75273 0.52233 0.38796 0.0
C1712 C 0.79877 0.49842 0.16637 0.0
C1713 C 0.80743 0.5094 0.18532 0.0
C1714 C 0.78435 0.49884 0.17662 0.0
C1715 C 0.77844 0.51018 0.20637 0.0
C1716 C 0.78702 0.52128 0.22451 0.0
C1717 C 0.80141 0.52097 0.21337 0.0
C1718 C 0.76336 0.51015 0.22057 0.0
C1719 C 0.75947 0.50848 0.27809 0.0
C1720 C 0.75294 0.51072 0.17761 0.0
C1721 C 0.75657 0.51253 0.11617 0.0
C1722 C 0.76476 0.52399 0.09806 0.0
C1723 C 0.76831 0.52551 0.04022 0.0
C1724 C 0.76364 0.51569 -2e-05 0.0
C1725 C 0.75538 0.50435 0.0175 0.0
C1726 C 0.75182 0.50277 0.07531 0.0
C1727 C 0.69976 0.51437 0.32314 0.0
C1728 C 0.69108 0.50501 0.29334 0.0
C1729 C 0.71392 0.51554 0.30862 0.0
C1730 C 0.71967 0.50706 0.2652 0.0
C1731 C 0.71088 0.49776 0.23521 0.0
C1732 C 0.69666 0.49682 0.24896 0.0
C1733 C 0.73483 0.50785 0.25101 0.0
C1734 C 0.73879 0.50962 0.1934 0.0
C1735 C 0.74535 0.50705 0.29384 0.0
C1736 C 0.74201 0.50398 0.35474 0.0
C1737 C 0.73421 0.49197 0.36956 0.0
C1738 C 0.73095 0.48924 0.42693 0.0
C1739 C 0.73553 0.49836 0.46994 0.0
C1740 C 0.74343 0.51023 0.45568 0.0
C1741 C 0.74669 0.51303 0.39836 0.0
H1742 H 0.733 0.49623 0.51433 0.0
H1743 H 0.7664 0.51689 0.95522 0.0
H1744 H 0.99874 0.34034 0.9125 0.0
H1745 H 0.00216 0.34056 0.80871 0.0
H1746 H 0.97464 0.37632 0.79421 0.0
H1747 H 0.97112 0.3762 0.89805 0.0
H1748 H 0.9722 0.35728 0.70181 0.0
H1749 H 0.00742 0.38301 0.80438 0.0
H1750 H 0.02539 0.38648 0.8791 0.0
H1751 H 0.0498 0.35277 0.80839 0.0
H1752 H 0.03184 0.34896 0.73366 0.0
H1753 H 0.99795 0.38362 0.43756 0.0
H1754 H 0.9913 0.38194 0.53872 0.0
H1755 H 0.02136 0.34855 0.56247 0.0
H1756 H 0.02814 0.35033 0.46145 0.0
H1757 H 0.02192 0.36661 0.65037 0.0
H1758 H 0.98608 0.34176 0.54412 0.0
H1759 H 0.96805 0.33976 0.46866 0.0
H1760 H 0.94464 0.37334 0.54577 0.0
H1761 H 0.96264 0.37568 0.62129 0.0
C1762 C 0.99314 0.34805 0.88718 0.0
C1763 C 0.98486 0.35842 0.91356 0.0
C1764 C 0.99513 0.34817 0.82792 0.0
C1765 C 0.98885 0.35862 0.7942 0.0
C1766 C 0.97962 0.36822 0.8197 0.0
C1767 C 0.97766 0.36816 0.87903 0.0
C1768 C 0.99315 0.36049 0.73384 0.0
C1769 C 0.98303 0.35942 0.69043 0.0
C1770 C 0.0073 0.36326 0.71934 0.0
C1771 C 0.01821 0.3656 0.76381 0.0
C1772 C 0.01656 0.37626 0.80504 0.0
C1773 C 0.02675 0.3783 0.84736 0.0
C1774 C 0.03871 0.36982 0.84863 0.0
C1775 C 0.04052 0.35931 0.80742 0.0
C1776 C 0.03034 0.35721 0.76504 0.0
C1777 C 0.00307 0.37589 0.46439 0.0
C1778 C 0.01332 0.36688 0.44167 0.0
C1779 C -0.00071 0.37495 0.52208 0.0
C1780 C 0.00562 0.3649 0.55772 0.0
C1781 C 0.01628 0.35631 0.53557 0.0
C1782 C 0.02014 0.35733 0.47799 0.0
C1783 C 0.00102 0.36319 0.61793 0.0
C1784 C 0.01109 0.36437 0.66151 0.0
C1785 C 0.9868 0.36066 0.63248 0.0
C1786 C 0.97576 0.35896 0.58811 0.0
C1787 C 0.97711 0.34875 0.54487 0.0
C1788 C 0.9669 0.34756 0.50208 0.0
C1789 C 0.95522 0.35643 0.50236 0.0
C1790 C 0.9537 0.36647 0.5456 0.0
C1791 C 0.96389 0.36773 0.58845 0.0
H1792 H 0.94735 0.35552 0.46912 0.0
H1793 H 0.04659 0.37141 0.88144 0.0
H1794 H 0.12021 0.02429 0.98638 0.0
H1795 H 0.12432 0.01776 0.08663 0.0
H1796 H 0.15107 0.98378 0.03138 0.0
H1797 H 0.14764 0.99077 0.9317 0.0
H1798 H 0.11869 0.99515 0.14667 0.0
H1799 H 0.17709 0.97875 0.12813 0.0
H1800 H 0.19789 0.98429 0.06926 0.0
H1801 H 0.18119 0.02521 0.03327 0.0
H1802 H 0.16039 0.01999 0.09253 0.0
H1803 H 0.13645 0.96405 0.40876 0.0
H1804 H 0.13628 0.96662 0.30443 0.0
H1805 H 0.15932 0.00544 0.31938 0.0
H1806 H 0.15973 0.00288 0.42342 0.0
H1807 H 0.16704 0.99107 0.22421 0.0
H1808 H 0.12447 0.00664 0.31537 0.0
H1809 H 0.10385 0.00392 0.37833 0.0
H1810 H 0.08896 0.9699 0.27389 0.0
H1811 H 0.10962 0.97231 0.21069 0.0
C1812 C 0.12692 0.0154 0.99582 0.0
C1813 C 0.13326 0.00777 0.95136 0.0
C1814 C 0.12921 0.01164 0.05294 0.0
C1815 C 0.13801 0.00029 0.06647 0.0
C1816 C 0.14431 0.99262 0.02199 0.0
C1817 C 0.14212 0.99646 0.96497 0.0
C1818 C 0.14076 0.99663 0.12717 0.0
C1819 C 0.12927 0.9942 0.16346 0.0
C1820 C 0.15456 0.99558 0.14937 0.0
C1821 C 0.16712 0.99891 0.11425 0.0
C1822 C 0.17789 0.98895 0.10781 0.0
C1823 C 0.18967 0.99203 0.07435 0.0
C1824 C 0.19084 0.00507 0.04737 0.0
C1825 C 0.18025 0.01509 0.05399 0.0
C1826 C 0.16845 0.01207 0.08746 0.0
C1827 C 0.1418 0.97295 0.38979 0.0
C1828 C 0.14788 0.9834 0.42434 0.0
C1829 C 0.14165 0.97442 0.3302 0.0
C1830 C 0.14754 0.98636 0.30445 0.0
C1831 C 0.15465 0.99618 0.3385 0.0
C1832 C 0.15481 0.99473 0.39799 0.0
C1833 C 0.14499 0.98947 0.24322 0.0
C1834 C 0.15649 0.99183 0.20699 0.0
C1835 C 0.1312 0.99087 0.22141 0.0
C1836 C 0.11865 0.98956 0.25869 0.0
C1837 C 0.11684 0.99853 0.30603 0.0
C1838 C 0.10514 0.99705 0.34173 0.0
C1839 C 0.09512 0.98672 0.33021 0.0
C1840 C 0.09674 0.97789 0.28281 0.0
C1841 C 0.10844 0.97931 0.24701 0.0
H1842 H 0.08608 0.98556 0.35793 0.0
H1843 H 0.19996 0.00743 0.02144 0.0
H1844 H 0.49519 0.13426 0.91341 0.0
H1845 H 0.49655 0.13458 0.80931 0.0
H1846 H 0.53144 0.16334 0.81716 0.0
H1847 H 0.53036 0.16289 0.92278 0.0
H1848 H 0.5062 0.16957 0.73602 0.0
H1849 H 0.54169 0.13584 0.77844 0.0
H1850 H 0.55207 0.11564 0.82906 0.0
H1851 H 0.51932 0.08891 0.76522 0.0
H1852 H 0.5086 0.109 0.71496 0.0
H1853 H 0.50563 0.15737 0.43198 0.0
H1854 H 0.51458 0.16111 0.52936 0.0
H1855 H 0.49055 0.12554 0.58865 0.0
H1856 H 0.48199 0.12152 0.491 0.0
H1857 H 0.5168 0.1253 0.6324 0.0
H1858 H 0.47913 0.15908 0.60761 0.0
H1859 H 0.46719 0.17898 0.56074 0.0
H1860 H 0.50284 0.20535 0.59387 0.0
H1861 H 0.51506 0.18553 0.64032 0.0
C1862 C 0.50316 0.14071 0.89328 0.0
C1863 C 0.51268 0.14857 0.92626 0.0
C1864 C 0.50394 0.14083 0.83378 0.0
C1865 C 0.51413 0.14891 0.80594 0.0
C1866 C 0.52354 0.15701 0.83829 0.0
C1867 C 0.52292 0.15671 0.89833 0.0
C1868 C 0.51459 0.14867 0.74279 0.0
C1869 C 0.50893 0.16008 0.71282 0.0
C1870 C 0.51787 0.13614 0.71329 0.0
C1871 C 0.5243 0.12397 0.74316 0.0
C1872 C 0.53663 0.12568 0.77556 0.0
C1873 C 0.54259 0.11424 0.80412 0.0
C1874 C 0.53635 0.101 0.80041 0.0
C1875 C 0.52415 0.09917 0.76804 0.0
C1876 C 0.51814 0.11058 0.73943 0.0
C1877 C 0.50255 0.15018 0.46568 0.0
C1878 C 0.49345 0.13892 0.45408 0.0
C1879 C 0.50752 0.15242 0.52127 0.0
C1880 C 0.50325 0.14358 0.56613 0.0
C1881 C 0.49408 0.1324 0.5545 0.0
C1882 C 0.48913 0.13015 0.49896 0.0
C1883 C 0.50798 0.14606 0.6257 0.0
C1884 C 0.51453 0.135 0.65499 0.0
C1885 C 0.50542 0.15889 0.6546 0.0
C1886 C 0.49808 0.17078 0.6267 0.0
C1887 C 0.48447 0.16909 0.60443 0.0
C1888 C 0.47764 0.18036 0.57804 0.0
C1889 C 0.48427 0.19341 0.57414 0.0
C1890 C 0.49773 0.19522 0.59679 0.0
C1891 C 0.50461 0.18398 0.62316 0.0
H1892 H 0.47897 0.20212 0.55371 0.0
H1893 H 0.54098 0.09215 0.82256 0.0
H1894 H 0.37302 0.47549 0.99794 0.0
H1895 H 0.36755 0.48317 0.09578 0.0
H1896 H 0.3481 0.52063 0.02939 0.0
H1897 H 0.35267 0.51264 0.93154 0.0
H1898 H 0.37172 0.51988 0.13781 0.0
H1899 H 0.32542 0.50649 0.06334 0.0
H1900 H 0.30978 0.49033 0.01095 0.0
H1901 H 0.32077 0.45694 0.12625 0.0
H1902 H 0.33667 0.47288 0.1787 0.0
H1903 H 0.34814 0.53497 0.42017 0.0
H1904 H 0.34749 0.53452 0.3151 0.0
H1905 H 0.34664 0.48922 0.31848 0.0
H1906 H 0.34677 0.48958 0.42252 0.0
H1907 H 0.33095 0.49789 0.23527 0.0
H1908 H 0.37771 0.50848 0.30452 0.0
H1909 H 0.3953 0.52232 0.35775 0.0
H1910 H 0.38579 0.5585 0.25505 0.0
H1911 H 0.368 0.54491 0.2017 0.0
C1912 C 0.36769 0.48543 0.00423 0.0
C1913 C 0.36373 0.4937 0.95709 0.0
C1914 C 0.36462 0.48979 0.05996 0.0
C1915 C 0.35758 0.5025 0.06934 0.0
C1916 C 0.35374 0.51089 0.02267 0.0
C1917 C 0.35657 0.5064 0.96685 0.0
C1918 C 0.35365 0.50655 0.12811 0.0
C1919 C 0.36263 0.51538 0.15902 0.0
C1920 C 0.34199 0.50036 0.15553 0.0
C1921 C 0.33234 0.49083 0.12449 0.0
C1922 C 0.32461 0.49567 0.07712 0.0
C1923 C 0.31567 0.48656 0.04751 0.0
C1924 C 0.31431 0.4726 0.06516 0.0
C1925 C 0.32185 0.46775 0.11257 0.0
C1926 C 0.33082 0.47681 0.14227 0.0
C1927 C 0.34754 0.52494 0.39843 0.0
C1928 C 0.34772 0.51231 0.42963 0.0
C1929 C 0.34724 0.52469 0.33845 0.0
C1930 C 0.3473 0.51183 0.30896 0.0
C1931 C 0.34663 0.49927 0.34023 0.0
C1932 C 0.34678 0.49951 0.39987 0.0
C1933 C 0.34912 0.51115 0.24592 0.0
C1934 C 0.33981 0.50281 0.21404 0.0
C1935 C 0.36065 0.5176 0.21794 0.0
C1936 C 0.37141 0.52574 0.24965 0.0
C1937 C 0.37931 0.51941 0.29357 0.0
C1938 C 0.38932 0.52721 0.32373 0.0
C1939 C 0.39163 0.54129 0.30992 0.0
C1940 C 0.38396 0.5476 0.26579 0.0
C1941 C 0.37392 0.53986 0.23558 0.0
H1942 H 0.39938 0.54731 0.33328 0.0
H1943 H 0.30738 0.46557 0.04219 0.0
H1944 H 0.97044 0.12592 0.59139 0.0
H1945 H 0.97365 0.12781 0.69506 0.0
H1946 H 0.0035 0.16129 0.6699 0.0
H1947 H 0.00039 0.1595 0.56633 0.0
H1948 H 0.01432 0.13908 0.72936 0.0
H1949 H 0.97338 0.16806 0.7364 0.0
H1950 H 0.94876 0.17454 0.71766 0.0
H1951 H 0.9347 0.1385 0.81212 0.0
H1952 H 0.95925 0.13168 0.83076 0.0
H1953 H 0.02865 0.15003 0.0241 0.0
H1954 H 0.02184 0.15322 0.92378 0.0
H1955 H 0.98978 0.12156 0.94311 0.0
H1956 H 0.99656 0.11836 0.04346 0.0
H1957 H 0.97978 0.14421 0.88714 0.0
H1958 H 0.02007 0.11423 0.87459 0.0
H1959 H 0.04451 0.10679 0.89142 0.0
H1960 H 0.05955 0.14363 0.80492 0.0
H1961 H 0.03519 0.1514 0.78833 0.0
C1962 C 0.97742 0.13392 0.60794 0.0
C1963 C 0.98534 0.14239 0.57066 0.0
C1964 C 0.9792 0.13502 0.66721 0.0
C1965 C 0.98887 0.14464 0.68993 0.0
C1966 C 0.99604 0.15377 0.65302 0.0
C1967 C 0.99423 0.15272 0.59386 0.0
C1968 C 0.99287 0.14389 0.75103 0.0
C1969 C 0.00684 0.14049 0.76398 0.0
C1970 C 0.98296 0.14523 0.79576 0.0
C1971 C 0.96817 0.14929 0.78453 0.0
C1972 C 0.96504 0.16144 0.75274 0.0
C1973 C 0.9511 0.16519 0.74223 0.0
C1974 C 0.94017 0.15692 0.76357 0.0
C1975 C 0.94317 0.14489 0.79557 0.0
C1976 C 0.9571 0.14108 0.80617 0.0
C1977 C 0.02021 0.1437 0.00674 0.0
C1978 C 0.01299 0.1341 0.04154 0.0
C1979 C 0.01632 0.14554 0.94958 0.0
C1980 C 0.00531 0.13761 0.92609 0.0
C1981 C 0.99821 0.12787 0.96063 0.0
C1982 C 0.00206 0.12608 0.01788 0.0
C1983 C 0.00125 0.13943 0.86538 0.0
C1984 C 0.98728 0.14295 0.85251 0.0
C1985 C 0.01113 0.13807 0.82049 0.0
C1986 C 0.0258 0.13348 0.83082 0.0
C1987 C 0.02859 0.12082 0.85966 0.0
C1988 C 0.04243 0.11652 0.86906 0.0
C1989 C 0.05358 0.12475 0.84941 0.0
C1990 C 0.05091 0.13728 0.82022 0.0
C1991 C 0.03709 0.14163 0.8108 0.0
H1992 H 0.06429 0.1214 0.85667 0.0
H1993 H 0.92938 0.15985 0.7554 0.0
H1994 H 0.33998 0.00406 0.08566 0.0
H1995 H 0.34086 0.00728 0.18932 0.0
H1996 H 0.36236 0.96771 0.2076 0.0
H1997 H 0.36166 0.9644 0.10346 0.0
H1998 H 0.34201 0.97392 0.29706 0.0
H1999 H 0.38203 0.99378 0.20296 0.0
H2000 H 0.39454 0.00804 0.13107 0.0
H2001 H 0.37401 0.04519 0.19304 0.0
H2002 H 0.36118 0.0311 0.26478 0.0
H2003 H 0.37394 0.98871 0.5675 0.0
H2004 H 0.36999 0.98212 0.46753 0.0
H2005 H 0.35224 0.02297 0.43414 0.0
H2006 H 0.35595 0.02955 0.5344 0.0
H2007 H 0.37094 0.01513 0.3523 0.0
H2008 H 0.33119 0.99478 0.4488 0.0
H2009 H 0.31951 0.98016 0.52183 0.0
H2010 H 0.34031 0.94352 0.45636 0.0
H2011 H 0.3523 0.95796 0.38345 0.0
C2012 C 0.34464 0.99587 0.11165 0.0
C2013 C 0.35097 0.98407 0.08621 0.0
C2014 C 0.34513 0.99775 0.17089 0.0
C2015 C 0.35187 0.98784 0.20573 0.0
C2016 C 0.35717 0.97549 0.18118 0.0
C2017 C 0.35678 0.97364 0.12171 0.0
C2018 C 0.35461 0.99113 0.26659 0.0
C2019 C 0.34846 0.98282 0.30933 0.0
C2020 C 0.36292 0.00283 0.28219 0.0
C2021 C 0.37052 0.01135 0.23884 0.0
C2022 C 0.38006 0.00497 0.20086 0.0
C2023 C 0.38723 0.01302 0.16022 0.0
C2024 C 0.38505 0.02751 0.15745 0.0
C2025 C 0.37567 0.03397 0.19523 0.0
C2026 C 0.36845 0.02595 0.2359 0.0
C2027 C 0.36892 0.99619 0.53926 0.0
C2028 C 0.3649 0.00952 0.55916 0.0
C2029 C 0.36677 0.99244 0.48202 0.0
C2030 C 0.36061 0.00198 0.44373 0.0
C2031 C 0.35694 0.01543 0.46313 0.0
C2032 C 0.35908 0.01917 0.52033 0.0
C2033 C 0.35817 0.99806 0.38314 0.0
C2034 C 0.36446 0.00624 0.34025 0.0
C2035 C 0.35005 0.9862 0.36758 0.0
C2036 C 0.34275 0.97748 0.41102 0.0
C2037 C 0.33336 0.98362 0.45025 0.0
C2038 C 0.32667 0.97536 0.49159 0.0
C2039 C 0.32919 0.96092 0.49383 0.0
C2040 C 0.33838 0.95471 0.45462 0.0
C2041 C 0.34512 0.96292 0.41325 0.0
H2042 H 0.32401 0.95455 0.52587 0.0
H2043 H 0.3907 0.03373 0.12624 0.0
H2044 H 0.5324 0.3604 0.58522 0.0
H2045 H 0.53087 0.35991 0.68988 0.0
H2046 H 0.49081 0.33896 0.67872 0.0
H2047 H 0.49235 0.33918 0.57443 0.0
H2048 H 0.51178 0.37345 0.75026 0.0
H2049 H 0.48473 0.31979 0.79767 0.0
H2050 H 0.48557 0.29538 0.76244 0.0
H2051 H 0.5276 0.30183 0.70144 0.0
H2052 H 0.5271 0.3262 0.73701 0.0
H2053 H 0.47373 0.37765 0.00805 0.0
H2054 H 0.48093 0.37346 0.90886 0.0
H2055 H 0.51081 0.3425 0.96662 0.0
H2056 H 0.50295 0.34591 0.06499 0.0
H2057 H 0.49882 0.33337 0.87535 0.0
H2058 H 0.52088 0.3767 0.92673 0.0
H2059 H 0.52204 0.40093 0.9637 0.0
H2060 H 0.49418 0.41471 0.83035 0.0
H2061 H 0.4927 0.39052 0.79304 0.0
C2062 C 0.52342 0.35539 0.60505 0.0
C2063 C 0.51243 0.34995 0.57152 0.0
C2064 C 0.52254 0.35517 0.66486 0.0
C2065 C 0.51073 0.34942 0.69208 0.0
C2066 C 0.50011 0.3433 0.65871 0.0
C2067 C 0.50098 0.34351 0.599 0.0
C2068 C 0.50876 0.35105 0.75475 0.0
C2069 C 0.50906 0.36466 0.77774 0.0
C2070 C 0.50539 0.33958 0.7907 0.0
C2071 C 0.50583 0.32487 0.76964 0.0
C2072 C 0.49418 0.31598 0.77699 0.0
C2073 C 0.49459 0.30216 0.7569 0.0
C2074 C 0.50661 0.29707 0.72958 0.0
C2075 C 0.51827 0.3058 0.72242 0.0
C2076 C 0.51792 0.31963 0.74246 0.0
C2077 C 0.48184 0.36996 -0.00047 0.0
C2078 C 0.48817 0.36253 0.04465 0.0
C2079 C 0.48602 0.36764 0.9429 0.0
C2080 C 0.49672 0.35795 0.93041 0.0
C2081 C 0.50271 0.35019 0.97526 0.0
C2082 C 0.49839 0.35237 0.03175 0.0
C2083 C 0.50155 0.35581 0.87055 0.0
C2084 C 0.50171 0.34213 0.84805 0.0
C2085 C 0.50565 0.36719 0.83528 0.0
C2086 C 0.5066 0.38177 0.85736 0.0
C2087 C 0.51493 0.38488 0.9055 0.0
C2088 C 0.51565 0.39861 0.92649 0.0
C2089 C 0.50817 0.40935 0.89946 0.0
C2090 C 0.49997 0.40638 0.85127 0.0
C2091 C 0.4992 0.39267 0.83015 0.0
H2092 H 0.50874 0.41997 0.91578 0.0
H2093 H 0.5069 0.28637 0.71403 0.0
H2094 H 0.14464 0.53602 0.08179 0.0
H2095 H 0.14612 0.5362 0.1866 0.0
H2096 H 0.1569 0.4922 0.18525 0.0
H2097 H 0.15571 0.49199 0.08103 0.0
H2098 H 0.12973 0.52224 0.25677 0.0
H2099 H 0.17601 0.48332 0.29902 0.0
H2100 H 0.1993 0.47795 0.25848 0.0
H2101 H 0.20194 0.51961 0.18904 0.0
H2102 H 0.17877 0.52531 0.22985 0.0
H2103 H 0.12006 0.48326 0.50818 0.0
H2104 H 0.12474 0.4914 0.4106 0.0
H2105 H 0.16106 0.5141 0.47085 0.0
H2106 H 0.15676 0.5055 0.56792 0.0
H2107 H 0.16706 0.50049 0.37552 0.0
H2108 H 0.13128 0.53182 0.43515 0.0
H2109 H 0.10866 0.53899 0.47733 0.0
H2110 H 0.08657 0.51634 0.3462 0.0
H2111 H 0.10906 0.50885 0.3037 0.0
C2112 C 0.1476 0.52646 0.10379 0.0
C2113 C 0.14995 0.51397 0.07315 0.0
C2114 C 0.14841 0.52658 0.16366 0.0
C2115 C 0.15168 0.51424 0.19375 0.0
C2116 C 0.15459 0.50191 0.163 0.0
C2117 C 0.15381 0.50179 0.10332 0.0
C2118 C 0.15069 0.51374 0.25713 0.0
C2119 C 0.13796 0.51763 0.28284 0.0
C2120 C 0.16154 0.50801 0.29136 0.0
C2121 C 0.17559 0.50471 0.26726 0.0
C2122 C 0.18159 0.49137 0.27541 0.0
C2123 C 0.19477 0.48826 0.2523 0.0
C2124 C 0.20209 0.49842 0.22111 0.0
C2125 C 0.19625 0.51173 0.21306 0.0
C2126 C 0.18308 0.5149 0.23611 0.0
C2127 C 0.129 0.49003 0.5006 0.0
C2128 C 0.13779 0.49408 0.54598 0.0
C2129 C 0.13162 0.49476 0.44497 0.0
C2130 C 0.14307 0.50362 0.43371 0.0
C2131 C 0.15204 0.50744 0.47877 0.0
C2132 C 0.14944 0.50269 0.53442 0.0
C2133 C 0.14589 0.50844 0.37444 0.0
C2134 C 0.15895 0.50534 0.34959 0.0
C2135 C 0.13546 0.51518 0.34122 0.0
C2136 C 0.12187 0.51971 0.36642 0.0
C2137 C 0.1216 0.52829 0.41551 0.0
C2138 C 0.1088 0.53242 0.43946 0.0
C2139 C 0.09619 0.52811 0.41451 0.0
C2140 C 0.09635 0.51967 0.36549 0.0
C2141 C 0.10912 0.5155 0.3414 0.0
H2142 H 0.08628 0.53131 0.43312 0.0
H2143 H 0.21228 0.49599 0.20322 0.0
H2144 H 0.00467 0.6547 0.57346 0.0
H2145 H 0.01194 0.65921 0.475 0.0
H2146 H 0.98709 0.62405 0.41744 0.0
H2147 H 0.98042 0.61899 0.51658 0.0
H2148 H 0.01134 0.62416 0.36375 0.0
H2149 H 0.97555 0.65833 0.40592 0.0
H2150 H 0.96455 0.67762 0.46035 0.0
H2151 H 0.00018 0.70396 0.42659 0.0
H2152 H 0.01147 0.68475 0.37254 0.0
H2153 H 0.99223 0.65882 0.08175 0.0
H2154 H 0.99062 0.65888 0.18592 0.0
H2155 H 0.03399 0.64617 0.19779 0.0
H2156 H 0.03561 0.64574 0.09305 0.0
H2157 H 0.00256 0.67085 0.27635 0.0
H2158 H 0.03638 0.62127 0.30219 0.0
H2159 H 0.04463 0.60113 0.24468 0.0
H2160 H 0.00807 0.60418 0.13772 0.0
H2161 H -0.00046 0.62421 0.19504 0.0
C2162 C 0.0011 0.64765 0.54023 0.0
C2163 C 0.9923 0.63622 0.55303 0.0
C2164 C 0.00507 0.65041 0.48371 0.0
C2165 C 2e-05 0.642 0.4388 0.0
C2166 C 0.99118 0.63062 0.45147 0.0
C2167 C 0.98731 0.62779 0.50803 0.0
C2168 C 0.00371 0.64515 0.37841 0.0
C2169 C 0.00951 0.63441 0.34481 0.0
C2170 C 0.00122 0.65848 0.35351 0.0
C2171 C 0.99442 0.67006 0.38575 0.0
C2172 C 0.98108 0.6682 0.41047 0.0
C2173 C 0.97479 0.67912 0.44119 0.0
C2174 C 0.98168 0.69199 0.44707 0.0
C2175 C 0.99487 0.69398 0.42209 0.0
C2176 C 0.00121 0.68308 0.39138 0.0
C2177 C 0.00152 0.65626 0.1064 0.0
C2178 C 0.01397 0.65199 0.07911 0.0
C2179 C 0.0006 0.65638 0.16605 0.0
C2180 C 0.0121 0.65226 0.19955 0.0
C2181 C 0.02491 0.64914 0.1726 0.0
C2182 C 0.02583 0.64894 0.11276 0.0
C2183 C 0.0101 0.64983 0.26176 0.0
C2184 C 0.00463 0.6607 0.29569 0.0
C2185 C 0.01253 0.6365 0.28666 0.0
C2186 C 0.01743 0.62433 0.25246 0.0
C2187 C 0.0301 0.61761 0.26649 0.0
C2188 C 0.03482 0.60621 0.23393 0.0
C2189 C 0.0269 0.60141 0.18744 0.0
C2190 C 0.01422 0.60794 0.17359 0.0
C2191 C 0.00944 0.61931 0.20608 0.0
H2192 H 0.03058 0.59261 0.16224 0.0
H2193 H 0.97679 0.70044 0.47087 0.0
H2194 H 0.85016 0.96889 0.02885 0.0
H2195 H 0.84689 0.97519 0.92796 0.0
H2196 H 0.87422 0.01092 0.95043 0.0
H2197 H 0.87729 0.00477 0.05145 0.0
H2198 H 0.85219 0.01855 0.89223 0.0
H2199 H 0.88459 0.98022 0.8812 0.0
H2200 H 0.89383 0.95631 0.89562 0.0
H2201 H 0.85881 0.93916 0.80331 0.0
H2202 H 0.84923 0.96295 0.78917 0.0
H2203 H 0.8708 0.02961 0.59751 0.0
H2204 H 0.86935 0.02558 0.7009 0.0
H2205 H 0.83675 0.99488 0.6738 0.0
H2206 H 0.83802 0.99889 0.57048 0.0
H2207 H 0.85996 0.98471 0.73372 0.0
H2208 H 0.82858 0.02397 0.74082 0.0
H2209 H 0.82093 0.04827 0.72217 0.0
H2210 H 0.85601 0.06401 0.8182 0.0
H2211 H 0.86399 0.0398 0.83675 0.0
C2212 C 0.8555 0.97805 0.01205 0.0
C2213 C 0.86381 0.98647 0.04797 0.0
C2214 C 0.85367 0.98162 0.95444 0.0
C2215 C 0.86038 0.99349 0.93147 0.0
C2216 C 0.86885 0.00178 0.96727 0.0
C2217 C 0.87056 0.9983 0.025 0.0
C2218 C 0.8584 0.99743 0.87043 0.0
C2219 C 0.85405 0.01118 0.85757 0.0
C2220 C 0.86051 0.98774 0.82516 0.0
C2221 C 0.86608 0.97338 0.83488 0.0
C2222 C 0.87876 0.97134 0.86463 0.0
C2223 C 0.88408 0.95781 0.87262 0.0
C2224 C 0.87688 0.94621 0.85064 0.0
C2225 C 0.86434 0.94814 0.82057 0.0
C2226 C 0.85896 0.96165 0.81255 0.0
C2227 C 0.86308 0.02224 0.61363 0.0
C2228 C 0.85463 0.01446 0.57578 0.0
C2229 C 0.86225 0.01998 0.67271 0.0
C2230 C 0.85299 0.00989 0.69479 0.0
C2231 C 0.84399 0.00269 0.65743 0.0
C2232 C 0.84471 0.00504 0.59843 0.0
C2233 C 0.85381 0.00577 0.75582 0.0
C2234 C 0.85799 0.99201 0.76857 0.0
C2235 C 0.85173 0.01548 0.8008 0.0
C2236 C 0.84695 0.03006 0.78974 0.0
C2237 C 0.83474 0.03261 0.75753 0.0
C2238 C 0.83032 0.04637 0.74708 0.0
C2239 C 0.838 0.05768 0.76887 0.0
C2240 C 0.85008 0.05524 0.8013 0.0
C2241 C 0.85455 0.0415 0.81185 0.0
H2242 H 0.83456 0.06832 0.76074 0.0
H2243 H 0.88104 0.93575 0.85671 0.0
H2244 H 0.4895 0.84501 0.56389 0.0
H2245 H 0.48109 0.84091 0.46611 0.0
H2246 H 0.51101 0.87114 0.40226 0.0
H2247 H 0.51906 0.87564 0.50032 0.0
H2248 H 0.48599 0.87452 0.35159 0.0
H2249 H 0.51716 0.83591 0.39546 0.0
H2250 H 0.5254 0.8155 0.45109 0.0
H2251 H 0.48639 0.79429 0.41951 0.0
H2252 H 0.47785 0.81467 0.36428 0.0
H2253 H 0.5077 0.85334 0.07886 0.0
H2254 H 0.50679 0.85348 0.18302 0.0
H2255 H 0.46355 0.84025 0.1784 0.0
H2256 H 0.46419 0.84034 0.07286 0.0
H2257 H 0.48956 0.82694 0.26583 0.0
H2258 H 0.45949 0.86638 0.2136 0.0
H2259 H 0.45353 0.88686 0.15362 0.0
H2260 H 0.49262 0.90642 0.19857 0.0
H2261 H 0.4989 0.88593 0.25806 0.0
C2262 C 0.494 0.85105 0.52907 0.0
C2263 C 0.50463 0.86095 0.53953 0.0
C2264 C 0.48933 0.84855 0.47324 0.0
C2265 C 0.49542 0.85572 0.42697 0.0
C2266 C 0.50608 0.86558 0.43745 0.0
C2267 C 0.51072 0.8681 0.49327 0.0
C2268 C 0.49102 0.85279 0.3673 0.0
C2269 C 0.48667 0.86409 0.33308 0.0
C2270 C 0.49166 0.83913 0.34332 0.0
C2271 C 0.4968 0.82688 0.37642 0.0
C2272 C 0.5103 0.82694 0.40081 0.0
C2273 C 0.51503 0.81537 0.43218 0.0
C2274 C 0.50641 0.80362 0.43901 0.0
C2275 C 0.49304 0.80341 0.41431 0.0
C2276 C 0.48825 0.81496 0.38296 0.0
C2277 C 0.49799 0.8503 0.09962 0.0
C2278 C 0.48595 0.84696 0.06749 0.0
C2279 C 0.49753 0.85038 0.1592 0.0
C2280 C 0.4851 0.84696 0.18793 0.0
C2281 C 0.47322 0.84293 0.15654 0.0
C2282 C 0.47361 0.84302 0.09646 0.0
C2283 C 0.48467 0.84867 0.25064 0.0
C2284 C 0.48833 0.83723 0.28522 0.0
C2285 C 0.4835 0.86219 0.27499 0.0
C2286 C 0.47971 0.87458 0.23978 0.0
C2287 C 0.46687 0.87499 0.21021 0.0
C2288 C 0.46342 0.88661 0.17642 0.0
C2289 C 0.4727 0.89792 0.17217 0.0
C2290 C 0.48544 0.89764 0.20184 0.0
C2291 C 0.48895 0.88604 0.23565 0.0
H2292 H 0.47001 0.9069 0.14599 0.0
H2293 H 0.51009 0.79467 0.4633 0.0
H2294 H 0.6476 0.52759 0.03066 0.0
H2295 H 0.65188 0.52099 0.93087 0.0
H2296 H 0.62677 0.48369 0.95384 0.0
H2297 H 0.62264 0.49018 0.05403 0.0
H2298 H 0.64966 0.47764 0.8939 0.0
H2299 H 0.6138 0.5128 0.8847 0.0
H2300 H 0.60269 0.53574 0.90308 0.0
H2301 H 0.63644 0.55656 0.81553 0.0
H2302 H 0.64785 0.53374 0.79728 0.0
H2303 H 0.63291 0.46602 0.59736 0.0
H2304 H 0.634 0.46944 0.70112 0.0
H2305 H 0.66231 0.50429 0.67742 0.0
H2306 H 0.66128 0.50099 0.5737 0.0
H2307 H 0.63876 0.51132 0.73797 0.0
H2308 H 0.67366 0.47507 0.74214 0.0
H2309 H 0.68351 0.45166 0.72173 0.0
H2310 H 0.65002 0.43234 0.81632 0.0
H2311 H 0.63984 0.45562 0.83664 0.0
C2312 C 0.64298 0.518 0.01432 0.0
C2313 C 0.6349 0.50933 0.05007 0.0
C2314 C 0.64542 0.51423 0.95735 0.0
C2315 C 0.63954 0.5019 0.93473 0.0
C2316 C 0.63147 0.49321 0.97049 0.0
C2317 C 0.62915 0.4969 0.0277 0.0
C2318 C 0.64164 0.4982 0.87356 0.0
C2319 C 0.64714 0.48494 0.85973 0.0
C2320 C 0.63857 0.50782 0.82904 0.0
C2321 C 0.63176 0.52157 0.84017 0.0
C2322 C 0.61892 0.52228 0.8698 0.0
C2323 C 0.61255 0.53526 0.88011 0.0
C2324 C 0.61888 0.5476 0.86062 0.0
C2325 C 0.63157 0.54699 0.83068 0.0
C2326 C 0.63798 0.53404 0.82031 0.0
C2327 C 0.63964 0.4742 0.61424 0.0
C2328 C 0.64685 0.48336 0.57723 0.0
C2329 C 0.64028 0.47611 0.6736 0.0
C2330 C 0.64818 0.48716 0.69684 0.0
C2331 C 0.65611 0.49574 0.66022 0.0
C2332 C 0.65552 0.49381 0.60094 0.0
C2333 C 0.64686 0.49081 0.7583 0.0
C2334 C 0.64141 0.50406 0.77215 0.0
C2335 C 0.64981 0.48111 0.80258 0.0
C2336 C 0.65592 0.46709 0.79047 0.0
C2337 C 0.66832 0.46582 0.75817 0.0
C2338 C 0.67398 0.45258 0.74671 0.0
C2339 C 0.66738 0.44052 0.7676 0.0
C2340 C 0.65512 0.44168 0.80012 0.0
C2341 C 0.64941 0.45491 0.81168 0.0
H2342 H 0.67178 0.43027 0.75868 0.0
H2343 H 0.61393 0.55764 0.86861 0.0
H2344 H 0.98564 0.85335 0.41719 0.0
H2345 H 0.98539 0.85086 0.31398 0.0
H2346 H 0.02892 0.83833 0.316 0.0
H2347 H 0.0294 0.84129 0.42069 0.0
H2348 H 0.02471 0.85689 0.2344 0.0
H2349 H 0.00297 0.81424 0.28242 0.0
H2350 H 0.98722 0.79795 0.33344 0.0
H2351 H 0.95132 0.81955 0.26571 0.0
H2352 H 0.96683 0.83612 0.21499 0.0
H2353 H 0.00839 0.84822 0.92955 0.0
H2354 H 0.01574 0.84222 0.02707 0.0
H2355 H 0.97934 0.86342 0.09468 0.0
H2356 H 0.97227 0.87006 0.99751 0.0
H2357 H 0.98451 0.83448 0.13468 0.0
H2358 H 0.00837 0.8797 0.10405 0.0
H2359 H 0.02493 0.89484 0.05127 0.0
H2360 H 0.05826 0.86556 0.08376 0.0
H2361 H 0.04182 0.85015 0.13609 0.0
C2362 C 0.99517 0.84992 0.39608 0.0
C2363 C 0.00755 0.8475 0.42724 0.0
C2364 C 0.99497 0.84838 0.33686 0.0
C2365 C 0.00705 0.84411 0.30727 0.0
C2366 C 0.01945 0.84152 0.33811 0.0
C2367 C 0.0197 0.8432 0.3978 0.0
C2368 C 0.00666 0.84339 0.24384 0.0
C2369 C 0.01615 0.85165 0.21243 0.0
C2370 C 0.99555 0.83649 0.21494 0.0
C2371 C 0.9861 0.82646 0.24491 0.0
C2372 C 0.99172 0.81557 0.2786 0.0
C2373 C 0.98283 0.80628 0.30748 0.0
C2374 C 0.96828 0.80772 0.30283 0.0
C2375 C 0.96259 0.81844 0.26921 0.0
C2376 C 0.97143 0.82777 0.24027 0.0
C2377 C 0.00223 0.85207 0.96523 0.0
C2378 C 0.99003 0.86009 0.95612 0.0
C2379 C 0.00633 0.84841 0.02077 0.0
C2380 C 0.99809 0.85245 0.06771 0.0
C2381 C 0.98581 0.86024 0.05873 0.0
C2382 C 0.98183 0.86406 0.00339 0.0
C2383 C 0.00207 0.84852 0.12662 0.0
C2384 C 0.99329 0.83933 0.15675 0.0
C2385 C 0.01397 0.85431 0.15395 0.0
C2386 C 0.02384 0.8637 0.12333 0.0
C2387 C 0.0192 0.87644 0.09953 0.0
C2388 C 0.02857 0.88508 0.06978 0.0
C2389 C 0.04263 0.88114 0.06398 0.0
C2390 C 0.04736 0.86858 0.08817 0.0
C2391 C 0.03803 0.8599 0.1179 0.0
H2392 H 0.04986 0.88784 0.04087 0.0
H2393 H 0.96141 0.80052 0.32526 0.0
H2394 H 0.65474 0.99217 0.91237 0.0
H2395 H 0.65558 0.99111 0.80828 0.0
H2396 H 0.64381 0.0348 0.79867 0.0
H2397 H 0.64254 0.03583 0.90343 0.0
H2398 H 0.6279 0.02033 0.73116 0.0
H2399 H 0.67702 0.02327 0.75721 0.0
H2400 H 0.70017 0.01775 0.79871 0.0
H2401 H 0.69709 0.97547 0.73603 0.0
H2402 H 0.67383 0.98067 0.69486 0.0
H2403 H 0.65554 0.00219 0.42246 0.0
H2404 H 0.65979 0.01055 0.51983 0.0
H2405 H 0.62254 0.98905 0.57776 0.0
H2406 H 0.61786 0.98122 0.47971 0.0
H2407 H 0.6651 0.99736 0.61558 0.0
H2408 H 0.60707 0.00684 0.6846 0.0
H2409 H 0.58479 0.01454 0.64092 0.0
H2410 H 0.60752 0.0364 0.50934 0.0
H2411 H 0.62993 0.02901 0.55267 0.0
C2412 C 0.65256 0.00164 0.8883 0.0
C2413 C 0.64846 0.01407 0.91625 0.0
C2414 C 0.65313 0.00104 0.82861 0.0
C2415 C 0.64985 0.0129 0.79551 0.0
C2416 C 0.64637 0.02551 0.82334 0.0
C2417 C 0.64569 0.0261 0.88321 0.0
C2418 C 0.64879 0.01165 0.7322 0.0
C2419 C 0.6361 0.01543 0.70583 0.0
C2420 C 0.65959 0.00554 0.69876 0.0
C2421 C 0.67363 0.00235 0.72318 0.0
C2422 C 0.68123 0.01277 0.75258 0.0
C2423 C 0.69438 0.0097 0.77601 0.0
C2424 C 0.70009 0.99626 0.77008 0.0
C2425 C 0.69266 0.98588 0.74059 0.0
C2426 C 0.6795 0.98889 0.71711 0.0
C2427 C 0.64801 -0.00041 0.45548 0.0
C2428 C 0.63608 0.99146 0.44301 0.0
C2429 C 0.65059 0.00419 0.51138 0.0
C2430 C 0.64134 0.00067 0.55591 0.0
C2431 C 0.62964 0.99219 0.54384 0.0
C2432 C 0.62703 0.98764 0.48792 0.0
C2433 C 0.64404 0.00557 0.61529 0.0
C2434 C 0.65701 0.00245 0.64083 0.0
C2435 C 0.63364 0.01262 0.64765 0.0
C2436 C 0.62019 0.01727 0.62169 0.0
C2437 C 0.60732 0.01335 0.64652 0.0
C2438 C 0.59466 0.01765 0.62179 0.0
C2439 C 0.59474 0.02592 0.57231 0.0
C2440 C 0.60747 0.02995 0.54756 0.0
C2441 C 0.62016 0.02569 0.57215 0.0
H2442 H 0.58493 0.02923 0.55321 0.0
H2443 H 0.71027 0.99391 0.78826 0.0
H2444 H 0.51589 0.62018 0.98114 0.0
H2445 H 0.50689 0.62427 0.07805 0.0
H2446 H 0.48066 0.65775 0.01439 0.0
H2447 H 0.48989 0.65383 0.91741 0.0
H2448 H 0.49454 0.6654 0.11064 0.0
H2449 H 0.46518 0.62807 0.05486 0.0
H2450 H 0.45867 0.60529 0.01245 0.0
H2451 H 0.48354 0.58384 0.13852 0.0
H2452 H 0.49039 0.60651 0.18119 0.0
H2453 H 0.47007 0.66366 0.41022 0.0
H2454 H 0.46824 0.66303 0.30483 0.0
H2455 H 0.50289 0.63396 0.29774 0.0
H2456 H 0.505 0.63472 0.40157 0.0
H2457 H 0.47738 0.62628 0.23245 0.0
H2458 H 0.51037 0.66503 0.26994 0.0
H2459 H 0.51634 0.68811 0.31126 0.0
H2460 H 0.48251 0.70714 0.21766 0.0
H2461 H 0.47624 0.6841 0.1764 0.0
C2462 C 0.50811 0.62831 0.9879 0.0
C2463 C 0.50327 0.63644 0.94195 0.0
C2464 C 0.50292 0.63059 0.04302 0.0
C2465 C 0.49289 0.64112 0.05309 0.0
C2466 C 0.48823 0.64945 0.00731 0.0
C2467 C 0.49339 0.64711 0.95203 0.0
C2468 C 0.48792 0.64375 0.11222 0.0
C2469 C 0.49042 0.65695 0.13692 0.0
C2470 C 0.48247 0.63275 0.14635 0.0
C2471 C 0.47835 0.61903 0.1211 0.0
C2472 C 0.46934 0.61851 0.07334 0.0
C2473 C 0.46558 0.60561 0.04926 0.0
C2474 C 0.47069 0.59312 0.07274 0.0
C2475 C 0.47957 0.59352 0.1204 0.0
C2476 C 0.48339 0.6064 0.14461 0.0
C2477 C 0.47731 0.6572 0.38599 0.0
C2478 C 0.4877 0.64928 0.41407 0.0
C2479 C 0.47623 0.65684 0.32606 0.0
C2480 C 0.48537 0.64837 0.29398 0.0
C2481 C 0.49569 0.64048 0.322 0.0
C2482 C 0.49693 0.64102 0.38133 0.0
C2483 C 0.48463 0.64768 0.23092 0.0
C2484 C 0.48104 0.63483 0.20555 0.0
C2485 C 0.4889 0.65903 0.19613 0.0
C2486 C 0.49272 0.67283 0.22079 0.0
C2487 C 0.50412 0.67411 0.25866 0.0
C2488 C 0.50758 0.68719 0.28195 0.0
C2489 C 0.49978 0.69907 0.26727 0.0
C2490 C 0.48853 0.69792 0.22911 0.0
C2491 C 0.48502 0.68486 0.20577 0.0
H2492 H 0.50247 0.70919 0.28532 0.0
H2493 H 0.46777 0.58314 0.05405 0.0
H2494 H 0.87686 0.51726 0.49254 0.0
H2495 H 0.873 0.50844 0.58989 0.0
H2496 H 0.8374 0.48446 0.5306 0.0
H2497 H 0.84103 0.49362 0.43335 0.0
H2498 H 0.83172 0.49759 0.63029 0.0
H2499 H 0.86734 0.46752 0.5606 0.0
H2500 H 0.88944 0.461 0.51255 0.0
H2501 H 0.91295 0.48358 0.63973 0.0
H2502 H 0.89097 0.49044 0.68807 0.0
H2503 H 0.83429 0.46887 0.92134 0.0
H2504 H 0.83427 0.4685 0.81562 0.0
H2505 H 0.86614 0.50066 0.81387 0.0
H2506 H 0.86606 0.50129 0.91807 0.0
H2507 H 0.87134 0.47691 0.73958 0.0
H2508 H 0.83469 0.51059 0.79428 0.0
H2509 H 0.81243 0.51686 0.84176 0.0
H2510 H 0.79065 0.48598 0.74128 0.0
H2511 H 0.81286 0.47939 0.69379 0.0
C2512 C 0.86825 0.51008 0.50042 0.0
C2513 C 0.8595 0.50575 0.4555 0.0
C2514 C 0.86609 0.50498 0.55578 0.0
C2515 C 0.85512 0.49552 0.56708 0.0
C2516 C 0.84606 0.49157 0.52254 0.0
C2517 C 0.84822 0.49667 0.46709 0.0
C2518 C 0.85306 0.4901 0.62592 0.0
C2519 C 0.84027 0.49275 0.65381 0.0
C2520 C 0.86418 0.48372 0.65648 0.0
C2521 C 0.87748 0.47956 0.62783 0.0
C2522 C 0.87721 0.47118 0.57814 0.0
C2523 C 0.88972 0.46741 0.55086 0.0
C2524 C 0.90259 0.47189 0.57304 0.0
C2525 C 0.90297 0.48012 0.62261 0.0
C2526 C 0.89049 0.48394 0.65002 0.0
C2527 C 0.84128 0.47581 0.89817 0.0
C2528 C 0.85011 0.48516 0.92779 0.0
C2529 C 0.84127 0.47559 0.83807 0.0
C2530 C 0.85025 0.48453 0.80734 0.0
C2531 C 0.85919 0.49365 0.83698 0.0
C2532 C 0.85905 0.49405 0.89652 0.0
C2533 C 0.85027 0.48497 0.74414 0.0
C2534 C 0.86268 0.48136 0.71544 0.0
C2535 C 0.83877 0.49034 0.71282 0.0
C2536 C 0.82545 0.49436 0.74112 0.0
C2537 C 0.82518 0.50504 0.78273 0.0
C2538 C 0.81257 0.50868 0.80955 0.0
C2539 C 0.80014 0.50179 0.79471 0.0
C2540 C 0.80029 0.49128 0.75286 0.0
C2541 C 0.81289 0.4876 0.72598 0.0
H2542 H 0.79038 0.50462 0.81551 0.0
H2543 H 0.91227 0.46896 0.55186 0.0
loop_
_geom_bond_atom_site_label_1
_geom_bond_atom_site_label_2
_geom_bond_distance
_geom_bond_site_symmetry_2
_ccdc_geom_bond_type
Co0 O3 1.970 1_455 S
Co0 N17 1.989 . S
Co0 O25 1.967 . S
Co0 O32 1.920 . S
Co1 O4 1.966 1_455 S
Co1 N10 2.022 . S
Co1 N18 1.993 . S
Co1 O26 1.941 . S
C2 O3 1.258 . S
C2 O4 1.263 . S
O3 Co0 1.970 1_655 S
O3 C2 1.258 . S
O4 Co1 1.966 1_655 S
O4 C2 1.263 . S
C5 O6 1.235 1_556 S
C5 O32 1.289 1_656 S
O6 C5 1.235 1_554 S
C7 C9 1.400 . S
C7 N10 1.351 . S
C7 C12 1.501 1_455 S
C8 C9 1.387 . S
C8 N11 1.341 . S
C9 C7 1.400 . S
C9 C8 1.387 . S
N10 Co1 2.022 . S
N10 C7 1.351 . S
N10 N11 1.365 . S
N11 C8 1.341 . S
N11 N10 1.365 . S
N11 H31 0.862 . S
C12 C7 1.501 1_655 S
C12 H13 0.961 . S
C12 H14 0.961 . S
C12 H15 0.960 . S
H13 C12 0.961 . S
H14 C12 0.961 . S
H15 C12 0.960 . S
C16 N17 1.342 . S
C16 C20 1.401 . S
C16 C21 1.499 . S
N17 Co0 1.989 . S
N17 C16 1.342 . S
N17 N18 1.388 . S
N18 Co1 1.993 . S
N18 N17 1.388 . S
N18 C19 1.346 . S
C19 N18 1.346 . S
C19 C20 1.396 . S
C19 C29 1.510 . S
C20 C16 1.401 . S
C20 C19 1.396 . S
C21 C16 1.499 . S
C21 H22 0.959 . S
C21 H23 0.960 . S
C21 H24 0.961 . S
H22 C21 0.959 . S
H23 C21 0.960 . S
H24 C21 0.961 . S
O25 Co0 1.967 . S
O25 C33 1.258 . S
O26 Co1 1.941 . S
O26 C33 1.266 . S
H27 C29 0.959 . S
H28 C29 0.961 . S
C29 C19 1.510 . S
C29 H27 0.959 . S
C29 H28 0.961 . S
C29 H30 0.960 . S
H30 C29 0.960 . S
H31 N11 0.862 . S
O32 Co0 1.920 . S
O32 C5 1.289 1_454 S
C33 O25 1.258 . S
C33 O26 1.266 . S
Co34 O37 1.970 1_545 S
Co34 N51 1.989 . S
Co34 O59 1.967 . S
Co34 O66 1.920 . S
Co35 O38 1.966 1_545 S
Co35 N44 2.022 . S
Co35 N52 1.993 . S
Co35 O60 1.941 . S
C36 O37 1.258 . S
C36 O38 1.263 . S
O37 Co34 1.970 1_565 S
O37 C36 1.258 . S
O38 Co35 1.966 1_565 S
O38 C36 1.263 . S
C39 O40 1.235 . S
C39 O66 1.289 1_565 S
O40 C39 1.235 . S
C41 C43 1.400 . S
C41 N44 1.351 . S
C41 C46 1.501 1_545 S
C42 C43 1.387 . S
C42 N45 1.341 . S
C43 C41 1.400 . S
C43 C42 1.387 . S
N44 Co35 2.022 . S
N44 C41 1.351 . S
N44 N45 1.365 . S
N45 C42 1.341 . S
N45 N44 1.365 . S
N45 H65 0.862 . S
C46 C41 1.501 1_565 S
C46 H47 0.961 . S
C46 H48 0.961 . S
C46 H49 0.960 . S
H47 C46 0.961 . S
H48 C46 0.961 . S
H49 C46 0.960 . S
C50 N51 1.342 . S
C50 C54 1.401 . S
C50 C55 1.499 . S
N51 Co34 1.989 . S
N51 C50 1.342 . S
N51 N52 1.388 . S
N52 Co35 1.993 . S
N52 N51 1.388 . S
N52 C53 1.346 . S
C53 N52 1.346 . S
C53 C54 1.396 . S
C53 C63 1.510 . S
C54 C50 1.401 . S
C54 C53 1.396 . S
C55 C50 1.499 . S
C55 H56 0.959 . S
C55 H57 0.960 . S
C55 H58 0.961 . S
H56 C55 0.959 . S
H57 C55 0.960 . S
H58 C55 0.961 . S
O59 Co34 1.967 . S
O59 C67 1.258 . S
O60 Co35 1.941 . S
O60 C67 1.266 . S
H61 C63 0.959 . S
H62 C63 0.961 . S
C63 C53 1.510 . S
C63 H61 0.959 . S
C63 H62 0.961 . S
C63 H64 0.960 . S
H64 C63 0.960 . S
H65 N45 0.862 . S
O66 Co34 1.920 . S
O66 C39 1.289 1_545 S
C67 O59 1.258 . S
C67 O60 1.266 . S
Co68 O71 1.970 . S
Co68 N85 1.989 . S
Co68 O93 1.967 . S
Co68 O100 1.920 . S
Co69 O72 1.966 . S
Co69 N78 2.022 . S
Co69 N86 1.993 . S
Co69 O94 1.941 . S
C70 O71 1.258 . S
C70 O72 1.263 . S
O71 Co68 1.970 . S
O71 C70 1.258 . S
O72 Co69 1.966 . S
O72 C70 1.263 . S
C73 O74 1.235 1_556 S
C73 O100 1.289 1_556 S
O74 C73 1.235 1_554 S
C75 C77 1.400 . S
C75 N78 1.351 . S
C75 C80 1.501 . S
C76 C77 1.387 . S
C76 N79 1.341 . S
C77 C75 1.400 . S
C77 C76 1.387 . S
N78 Co69 2.022 . S
N78 C75 1.351 . S
N78 N79 1.365 . S
N79 C76 1.341 . S
N79 N78 1.365 . S
N79 H99 0.862 . S
C80 C75 1.501 . S
C80 H81 0.961 . S
C80 H82 0.961 . S
C80 H83 0.960 . S
H81 C80 0.961 . S
H82 C80 0.961 . S
H83 C80 0.960 . S
C84 N85 1.342 . S
C84 C88 1.401 . S
C84 C89 1.499 . S
N85 Co68 1.989 . S
N85 C84 1.342 . S
N85 N86 1.388 . S
N86 Co69 1.993 . S
N86 N85 1.388 . S
N86 C87 1.346 . S
C87 N86 1.346 . S
C87 C88 1.396 . S
C87 C97 1.510 . S
C88 C84 1.401 . S
C88 C87 1.396 . S
C89 C84 1.499 . S
C89 H90 0.959 . S
C89 H91 0.960 . S
C89 H92 0.961 . S
H90 C89 0.959 . S
H91 C89 0.960 . S
H92 C89 0.961 . S
O93 Co68 1.967 . S
O93 C101 1.258 . S
O94 Co69 1.941 . S
O94 C101 1.266 . S
H95 C97 0.959 . S
H96 C97 0.961 . S
C97 C87 1.510 . S
C97 H95 0.959 . S
C97 H96 0.961 . S
C97 H98 0.960 . S
H98 C97 0.960 . S
H99 N79 0.862 . S
O100 Co68 1.920 . S
O100 C73 1.289 1_554 S
C101 O93 1.258 . S
C101 O94 1.266 . S
Co102 O105 1.970 . S
Co102 N119 1.989 . S
Co102 O127 1.967 . S
Co102 O134 1.920 . S
Co103 O106 1.966 . S
Co103 N112 2.022 . S
Co103 N120 1.993 . S
Co103 O128 1.941 . S
C104 O105 1.258 . S
C104 O106 1.263 . S
O105 Co102 1.970 . S
O105 C104 1.258 . S
O106 Co103 1.966 . S
O106 C104 1.263 . S
C107 O108 1.235 . S
C107 O134 1.289 . S
O108 C107 1.235 . S
C109 C111 1.400 . S
C109 N112 1.351 . S
C109 C114 1.501 . S
C110 C111 1.387 . S
C110 N113 1.341 . S
C111 C109 1.400 . S
C111 C110 1.387 . S
N112 Co103 2.022 . S
N112 C109 1.351 . S
N112 N113 1.365 . S
N113 C110 1.341 . S
N113 N112 1.365 . S
N113 H133 0.862 . S
C114 C109 1.501 . S
C114 H115 0.961 . S
C114 H116 0.961 . S
C114 H117 0.960 . S
H115 C114 0.961 . S
H116 C114 0.961 . S
H117 C114 0.960 . S
C118 N119 1.342 . S
C118 C122 1.401 . S
C118 C123 1.499 . S
N119 Co102 1.989 . S
N119 C118 1.342 . S
N119 N120 1.388 . S
N120 Co103 1.993 . S
N120 N119 1.388 . S
N120 C121 1.346 . S
C121 N120 1.346 . S
C121 C122 1.396 . S
C121 C131 1.510 . S
C122 C118 1.401 . S
C122 C121 1.396 . S
C123 C118 1.499 . S
C123 H124 0.959 . S
C123 H125 0.960 . S
C123 H126 0.961 . S
H124 C123 0.959 . S
H125 C123 0.960 . S
H126 C123 0.961 . S
O127 Co102 1.967 . S
O127 C135 1.258 . S
O128 Co103 1.941 . S
O128 C135 1.266 . S
H129 C131 0.959 . S
H130 C131 0.961 . S
C131 C121 1.510 . S
C131 H129 0.959 . S
C131 H130 0.961 . S
C131 H132 0.960 . S
H132 C131 0.960 . S
H133 N113 0.862 . S
O134 Co102 1.920 . S
O134 C107 1.289 . S
C135 O127 1.258 . S
C135 O128 1.266 . S
Co136 O139 1.970 1_455 S
Co136 N153 1.989 . S
Co136 O161 1.967 . S
Co136 O168 1.920 . S
Co137 O140 1.966 1_455 S
Co137 N146 2.022 . S
Co137 N154 1.993 . S
Co137 O162 1.941 . S
C138 O139 1.258 . S
C138 O140 1.263 . S
O139 Co136 1.970 1_655 S
O139 C138 1.258 . S
O140 Co137 1.966 1_655 S
O140 C138 1.263 . S
C141 O142 1.235 . S
C141 O168 1.289 1_655 S
O142 C141 1.235 . S
C143 C145 1.400 . S
C143 N146 1.351 . S
C143 C148 1.501 1_455 S
C144 C145 1.387 . S
C144 N147 1.341 . S
C145 C143 1.400 . S
C145 C144 1.387 . S
N146 Co137 2.022 . S
N146 C143 1.351 . S
N146 N147 1.365 . S
N147 C144 1.341 . S
N147 N146 1.365 . S
N147 H167 0.862 . S
C148 C143 1.501 1_655 S
C148 H149 0.961 . S
C148 H150 0.961 . S
C148 H151 0.960 . S
H149 C148 0.961 . S
H150 C148 0.961 . S
H151 C148 0.960 . S
C152 N153 1.342 . S
C152 C156 1.401 . S
C152 C157 1.499 . S
N153 Co136 1.989 . S
N153 C152 1.342 . S
N153 N154 1.388 . S
N154 Co137 1.993 . S
N154 N153 1.388 . S
N154 C155 1.346 . S
C155 N154 1.346 . S
C155 C156 1.396 . S
C155 C165 1.510 . S
C156 C152 1.401 . S
C156 C155 1.396 . S
C157 C152 1.499 . S
C157 H158 0.959 . S
C157 H159 0.960 . S
C157 H160 0.961 . S
H158 C157 0.959 . S
H159 C157 0.960 . S
H160 C157 0.961 . S
O161 Co136 1.967 . S
O161 C169 1.258 . S
O162 Co137 1.941 . S
O162 C169 1.266 . S
H163 C165 0.959 . S
H164 C165 0.961 . S
C165 C155 1.510 . S
C165 H163 0.959 . S
C165 H164 0.961 . S
C165 H166 0.960 . S
H166 C165 0.960 . S
H167 N147 0.862 . S
O168 Co136 1.920 . S
O168 C141 1.289 1_455 S
C169 O161 1.258 . S
C169 O162 1.266 . S
Co170 O173 1.970 1_545 S
Co170 N187 1.989 . S
Co170 O195 1.967 . S
Co170 O202 1.920 . S
Co171 O174 1.966 1_545 S
Co171 N180 2.022 . S
Co171 N188 1.993 . S
Co171 O196 1.941 . S
C172 O173 1.258 . S
C172 O174 1.263 . S
O173 Co170 1.970 1_565 S
O173 C172 1.258 . S
O174 Co171 1.966 1_565 S
O174 C172 1.263 . S
C175 O176 1.235 1_554 S
C175 O202 1.289 1_564 S
O176 C175 1.235 1_556 S
C177 C179 1.400 . S
C177 N180 1.351 . S
C177 C182 1.501 1_545 S
C178 C179 1.387 . S
C178 N181 1.341 . S
C179 C177 1.400 . S
C179 C178 1.387 . S
N180 Co171 2.022 . S
N180 C177 1.351 . S
N180 N181 1.365 . S
N181 C178 1.341 . S
N181 N180 1.365 . S
N181 H201 0.862 . S
C182 C177 1.501 1_565 S
C182 H183 0.961 . S
C182 H184 0.961 . S
C182 H185 0.960 . S
H183 C182 0.961 . S
H184 C182 0.961 . S
H185 C182 0.960 . S
C186 N187 1.342 . S
C186 C190 1.401 . S
C186 C191 1.499 . S
N187 Co170 1.989 . S
N187 C186 1.342 . S
N187 N188 1.388 . S
N188 Co171 1.993 . S
N188 N187 1.388 . S
N188 C189 1.346 . S
C189 N188 1.346 . S
C189 C190 1.396 . S
C189 C199 1.510 . S
C190 C186 1.401 . S
C190 C189 1.396 . S
C191 C186 1.499 . S
C191 H192 0.959 . S
C191 H193 0.960 . S
C191 H194 0.961 . S
H192 C191 0.959 . S
H193 C191 0.960 . S
H194 C191 0.961 . S
O195 Co170 1.967 . S
O195 C203 1.258 . S
O196 Co171 1.941 . S
O196 C203 1.266 . S
H197 C199 0.959 . S
H198 C199 0.961 . S
C199 C189 1.510 . S
C199 H197 0.959 . S
C199 H198 0.961 . S
C199 H200 0.960 . S
H200 C199 0.960 . S
H201 N181 0.862 . S
O202 Co170 1.920 . S
O202 C175 1.289 1_546 S
C203 O195 1.258 . S
C203 O196 1.266 . S
Co204 O207 1.970 . S
Co204 N221 1.989 . S
Co204 O229 1.967 . S
Co204 O236 1.920 . S
Co205 O208 1.966 . S
Co205 N214 2.022 . S
Co205 N222 1.993 . S
Co205 O230 1.941 . S
C206 O207 1.258 . S
C206 O208 1.263 . S
O207 Co204 1.970 . S
O207 C206 1.258 . S
O208 Co205 1.966 . S
O208 C206 1.263 . S
C209 O210 1.235 . S
C209 O236 1.289 . S
O210 C209 1.235 . S
C211 C213 1.400 . S
C211 N214 1.351 . S
C211 C216 1.501 . S
C212 C213 1.387 . S
C212 N215 1.341 . S
C213 C211 1.400 . S
C213 C212 1.387 . S
N214 Co205 2.022 . S
N214 C211 1.351 . S
N214 N215 1.365 . S
N215 C212 1.341 . S
N215 N214 1.365 . S
N215 H235 0.862 . S
C216 C211 1.501 . S
C216 H217 0.961 . S
C216 H218 0.961 . S
C216 H219 0.960 . S
H217 C216 0.961 . S
H218 C216 0.961 . S
H219 C216 0.960 . S
C220 N221 1.342 . S
C220 C224 1.401 . S
C220 C225 1.499 . S
N221 Co204 1.989 . S
N221 C220 1.342 . S
N221 N222 1.388 . S
N222 Co205 1.993 . S
N222 N221 1.388 . S
N222 C223 1.346 . S
C223 N222 1.346 . S
C223 C224 1.396 . S
C223 C233 1.510 . S
C224 C220 1.401 . S
C224 C223 1.396 . S
C225 C220 1.499 . S
C225 H226 0.959 . S
C225 H227 0.960 . S
C225 H228 0.961 . S
H226 C225 0.959 . S
H227 C225 0.960 . S
H228 C225 0.961 . S
O229 Co204 1.967 . S
O229 C237 1.258 . S
O230 Co205 1.941 . S
O230 C237 1.266 . S
H231 C233 0.959 . S
H232 C233 0.961 . S
C233 C223 1.510 . S
C233 H231 0.959 . S
C233 H232 0.961 . S
C233 H234 0.960 . S
H234 C233 0.960 . S
H235 N215 0.862 . S
O236 Co204 1.920 . S
O236 C209 1.289 . S
C237 O229 1.258 . S
C237 O230 1.266 . S
Co238 O241 1.970 . S
Co238 N255 1.989 . S
Co238 O263 1.967 . S
Co238 O270 1.920 . S
Co239 O242 1.966 . S
Co239 N248 2.022 . S
Co239 N256 1.993 . S
Co239 O264 1.941 . S
C240 O241 1.258 . S
C240 O242 1.263 . S
O241 Co238 1.970 . S
O241 C240 1.258 . S
O242 Co239 1.966 . S
O242 C240 1.263 . S
C243 O244 1.235 1_554 S
C243 O270 1.289 1_554 S
O244 C243 1.235 1_556 S
C245 C247 1.400 . S
C245 N248 1.351 . S
C245 C250 1.501 . S
C246 C247 1.387 . S
C246 N249 1.341 . S
C247 C245 1.400 . S
C247 C246 1.387 . S
N248 Co239 2.022 . S
N248 C245 1.351 . S
N248 N249 1.365 . S
N249 C246 1.341 . S
N249 N248 1.365 . S
N249 H269 0.862 . S
C250 C245 1.501 . S
C250 H251 0.961 . S
C250 H252 0.961 . S
C250 H253 0.960 . S
H251 C250 0.961 . S
H252 C250 0.961 . S
H253 C250 0.960 . S
C254 N255 1.342 . S
C254 C258 1.401 . S
C254 C259 1.499 . S
N255 Co238 1.989 . S
N255 C254 1.342 . S
N255 N256 1.388 . S
N256 Co239 1.993 . S
N256 N255 1.388 . S
N256 C257 1.346 . S
C257 N256 1.346 . S
C257 C258 1.396 . S
C257 C267 1.510 . S
C258 C254 1.401 . S
C258 C257 1.396 . S
C259 C254 1.499 . S
C259 H260 0.959 . S
C259 H261 0.960 . S
C259 H262 0.961 . S
H260 C259 0.959 . S
H261 C259 0.960 . S
H262 C259 0.961 . S
O263 Co238 1.967 . S
O263 C271 1.258 . S
O264 Co239 1.941 . S
O264 C271 1.266 . S
H265 C267 0.959 . S
H266 C267 0.961 . S
C267 C257 1.510 . S
C267 H265 0.959 . S
C267 H266 0.961 . S
C267 H268 0.960 . S
H268 C267 0.960 . S
H269 N249 0.862 . S
O270 Co238 1.920 . S
O270 C243 1.289 1_556 S
C271 O263 1.258 . S
C271 O264 1.266 . S
Co272 O275 1.970 1_655 S
Co272 N289 1.989 . S
Co272 O297 1.967 . S
Co272 O304 1.920 . S
Co273 O276 1.966 1_655 S
Co273 N282 2.022 . S
Co273 N290 1.993 . S
Co273 O298 1.941 . S
C274 O275 1.258 . S
C274 O276 1.263 . S
O275 Co272 1.970 1_455 S
O275 C274 1.258 . S
O276 Co273 1.966 1_455 S
O276 C274 1.263 . S
C277 O278 1.235 1_554 S
C277 O304 1.289 1_454 S
O278 C277 1.235 1_556 S
C279 C281 1.400 . S
C279 N282 1.351 . S
C279 C284 1.501 1_655 S
C280 C281 1.387 . S
C280 N283 1.341 . S
C281 C279 1.400 . S
C281 C280 1.387 . S
N282 Co273 2.022 . S
N282 C279 1.351 . S
N282 N283 1.365 . S
N283 C280 1.341 . S
N283 N282 1.365 . S
N283 H303 0.862 . S
C284 C279 1.501 1_455 S
C284 H285 0.961 . S
C284 H286 0.961 . S
C284 H287 0.960 . S
H285 C284 0.961 . S
H286 C284 0.961 . S
H287 C284 0.960 . S
C288 N289 1.342 . S
C288 C292 1.401 . S
C288 C293 1.499 . S
N289 Co272 1.989 . S
N289 C288 1.342 . S
N289 N290 1.388 . S
N290 Co273 1.993 . S
N290 N289 1.388 . S
N290 C291 1.346 . S
C291 N290 1.346 . S
C291 C292 1.396 . S
C291 C301 1.510 . S
C292 C288 1.401 . S
C292 C291 1.396 . S
C293 C288 1.499 . S
C293 H294 0.959 . S
C293 H295 0.960 . S
C293 H296 0.961 . S
H294 C293 0.959 . S
H295 C293 0.960 . S
H296 C293 0.961 . S
O297 Co272 1.967 . S
O297 C305 1.258 . S
O298 Co273 1.941 . S
O298 C305 1.266 . S
H299 C301 0.959 . S
H300 C301 0.961 . S
C301 C291 1.510 . S
C301 H299 0.959 . S
C301 H300 0.961 . S
C301 H302 0.960 . S
H302 C301 0.960 . S
H303 N283 0.862 . S
O304 Co272 1.920 . S
O304 C277 1.289 1_656 S
C305 O297 1.258 . S
C305 O298 1.266 . S
Co306 O309 1.970 1_565 S
Co306 N323 1.989 . S
Co306 O331 1.967 . S
Co306 O338 1.920 . S
Co307 O310 1.966 1_565 S
Co307 N316 2.022 . S
Co307 N324 1.993 . S
Co307 O332 1.941 . S
C308 O309 1.258 . S
C308 O310 1.263 . S
O309 Co306 1.970 1_545 S
O309 C308 1.258 . S
O310 Co307 1.966 1_545 S
O310 C308 1.263 . S
C311 O312 1.235 . S
C311 O338 1.289 1_545 S
O312 C311 1.235 . S
C313 C315 1.400 . S
C313 N316 1.351 . S
C313 C318 1.501 1_565 S
C314 C315 1.387 . S
C314 N317 1.341 . S
C315 C313 1.400 . S
C315 C314 1.387 . S
N316 Co307 2.022 . S
N316 C313 1.351 . S
N316 N317 1.365 . S
N317 C314 1.341 . S
N317 N316 1.365 . S
N317 H337 0.862 . S
C318 C313 1.501 1_545 S
C318 H319 0.961 . S
C318 H320 0.961 . S
C318 H321 0.960 . S
H319 C318 0.961 . S
H320 C318 0.961 . S
H321 C318 0.960 . S
C322 N323 1.342 . S
C322 C326 1.401 . S
C322 C327 1.499 . S
N323 Co306 1.989 . S
N323 C322 1.342 . S
N323 N324 1.388 . S
N324 Co307 1.993 . S
N324 N323 1.388 . S
N324 C325 1.346 . S
C325 N324 1.346 . S
C325 C326 1.396 . S
C325 C335 1.510 . S
C326 C322 1.401 . S
C326 C325 1.396 . S
C327 C322 1.499 . S
C327 H328 0.959 . S
C327 H329 0.960 . S
C327 H330 0.961 . S
H328 C327 0.959 . S
H329 C327 0.960 . S
H330 C327 0.961 . S
O331 Co306 1.967 . S
O331 C339 1.258 . S
O332 Co307 1.941 . S
O332 C339 1.266 . S
H333 C335 0.959 . S
H334 C335 0.961 . S
C335 C325 1.510 . S
C335 H333 0.959 . S
C335 H334 0.961 . S
C335 H336 0.960 . S
H336 C335 0.960 . S
H337 N317 0.862 . S
O338 Co306 1.920 . S
O338 C311 1.289 1_565 S
C339 O331 1.258 . S
C339 O332 1.266 . S
Co340 O343 1.970 . S
Co340 N357 1.989 . S
Co340 O365 1.967 . S
Co340 O372 1.920 . S
Co341 O344 1.966 . S
Co341 N350 2.022 . S
Co341 N358 1.993 . S
Co341 O366 1.941 . S
C342 O343 1.258 . S
C342 O344 1.263 . S
O343 Co340 1.970 . S
O343 C342 1.258 . S
O344 Co341 1.966 . S
O344 C342 1.263 . S
C345 O346 1.235 1_554 S
C345 O372 1.289 1_554 S
O346 C345 1.235 1_556 S
C347 C349 1.400 . S
C347 N350 1.351 . S
C347 C352 1.501 . S
C348 C349 1.387 . S
C348 N351 1.341 . S
C349 C347 1.400 . S
C349 C348 1.387 . S
N350 Co341 2.022 . S
N350 C347 1.351 . S
N350 N351 1.365 . S
N351 C348 1.341 . S
N351 N350 1.365 . S
N351 H371 0.862 . S
C352 C347 1.501 . S
C352 H353 0.961 . S
C352 H354 0.961 . S
C352 H355 0.960 . S
H353 C352 0.961 . S
H354 C352 0.961 . S
H355 C352 0.960 . S
C356 N357 1.342 . S
C356 C360 1.401 . S
C356 C361 1.499 . S
N357 Co340 1.989 . S
N357 C356 1.342 . S
N357 N358 1.388 . S
N358 Co341 1.993 . S
N358 N357 1.388 . S
N358 C359 1.346 . S
C359 N358 1.346 . S
C359 C360 1.396 . S
C359 C369 1.510 . S
C360 C356 1.401 . S
C360 C359 1.396 . S
C361 C356 1.499 . S
C361 H362 0.959 . S
C361 H363 0.960 . S
C361 H364 0.961 . S
H362 C361 0.959 . S
H363 C361 0.960 . S
H364 C361 0.961 . S
O365 Co340 1.967 . S
O365 C373 1.258 . S
O366 Co341 1.941 . S
O366 C373 1.266 . S
H367 C369 0.959 . S
H368 C369 0.961 . S
C369 C359 1.510 . S
C369 H367 0.959 . S
C369 H368 0.961 . S
C369 H370 0.960 . S
H370 C369 0.960 . S
H371 N351 0.862 . S
O372 Co340 1.920 . S
O372 C345 1.289 1_556 S
C373 O365 1.258 . S
C373 O366 1.266 . S
Co374 O377 1.970 . S
Co374 N391 1.989 . S
Co374 O399 1.967 . S
Co374 O406 1.920 . S
Co375 O378 1.966 . S
Co375 N384 2.022 . S
Co375 N392 1.993 . S
Co375 O400 1.941 . S
C376 O377 1.258 . S
C376 O378 1.263 . S
O377 Co374 1.970 . S
O377 C376 1.258 . S
O378 Co375 1.966 . S
O378 C376 1.263 . S
C379 O380 1.235 . S
C379 O406 1.289 . S
O380 C379 1.235 . S
C381 C383 1.400 . S
C381 N384 1.351 . S
C381 C386 1.501 . S
C382 C383 1.387 . S
C382 N385 1.341 . S
C383 C381 1.400 . S
C383 C382 1.387 . S
N384 Co375 2.022 . S
N384 C381 1.351 . S
N384 N385 1.365 . S
N385 C382 1.341 . S
N385 N384 1.365 . S
N385 H405 0.862 . S
C386 C381 1.501 . S
C386 H387 0.961 . S
C386 H388 0.961 . S
C386 H389 0.960 . S
H387 C386 0.961 . S
H388 C386 0.961 . S
H389 C386 0.960 . S
C390 N391 1.342 . S
C390 C394 1.401 . S
C390 C395 1.499 . S
N391 Co374 1.989 . S
N391 C390 1.342 . S
N391 N392 1.388 . S
N392 Co375 1.993 . S
N392 N391 1.388 . S
N392 C393 1.346 . S
C393 N392 1.346 . S
C393 C394 1.396 . S
C393 C403 1.510 . S
C394 C390 1.401 . S
C394 C393 1.396 . S
C395 C390 1.499 . S
C395 H396 0.959 . S
C395 H397 0.960 . S
C395 H398 0.961 . S
H396 C395 0.959 . S
H397 C395 0.960 . S
H398 C395 0.961 . S
O399 Co374 1.967 . S
O399 C407 1.258 . S
O400 Co375 1.941 . S
O400 C407 1.266 . S
H401 C403 0.959 . S
H402 C403 0.961 . S
C403 C393 1.510 . S
C403 H401 0.959 . S
C403 H402 0.961 . S
C403 H404 0.960 . S
H404 C403 0.960 . S
H405 N385 0.862 . S
O406 Co374 1.920 . S
O406 C379 1.289 . S
C407 O399 1.258 . S
C407 O400 1.266 . S
Co408 O411 1.970 1_655 S
Co408 N425 1.989 . S
Co408 O433 1.967 . S
Co408 O440 1.920 . S
Co409 O412 1.966 1_655 S
Co409 N418 2.022 . S
Co409 N426 1.993 . S
Co409 O434 1.941 . S
C410 O411 1.258 . S
C410 O412 1.263 . S
O411 Co408 1.970 1_455 S
O411 C410 1.258 . S
O412 Co409 1.966 1_455 S
O412 C410 1.263 . S
C413 O414 1.235 . S
C413 O440 1.289 1_455 S
O414 C413 1.235 . S
C415 C417 1.400 . S
C415 N418 1.351 . S
C415 C420 1.501 1_655 S
C416 C417 1.387 . S
C416 N419 1.341 . S
C417 C415 1.400 . S
C417 C416 1.387 . S
N418 Co409 2.022 . S
N418 C415 1.351 . S
N418 N419 1.365 . S
N419 C416 1.341 . S
N419 N418 1.365 . S
N419 H439 0.862 . S
C420 C415 1.501 1_455 S
C420 H421 0.961 . S
C420 H422 0.961 . S
C420 H423 0.960 . S
H421 C420 0.961 . S
H422 C420 0.961 . S
H423 C420 0.960 . S
C424 N425 1.342 . S
C424 C428 1.401 . S
C424 C429 1.499 . S
N425 Co408 1.989 . S
N425 C424 1.342 . S
N425 N426 1.388 . S
N426 Co409 1.993 . S
N426 N425 1.388 . S
N426 C427 1.346 . S
C427 N426 1.346 . S
C427 C428 1.396 . S
C427 C437 1.510 . S
C428 C424 1.401 . S
C428 C427 1.396 . S
C429 C424 1.499 . S
C429 H430 0.959 . S
C429 H431 0.960 . S
C429 H432 0.961 . S
H430 C429 0.959 . S
H431 C429 0.960 . S
H432 C429 0.961 . S
O433 Co408 1.967 . S
O433 C441 1.258 . S
O434 Co409 1.941 . S
O434 C441 1.266 . S
H435 C437 0.959 . S
H436 C437 0.961 . S
C437 C427 1.510 . S
C437 H435 0.959 . S
C437 H436 0.961 . S
C437 H438 0.960 . S
H438 C437 0.960 . S
H439 N419 0.862 . S
O440 Co408 1.920 . S
O440 C413 1.289 1_655 S
C441 O433 1.258 . S
C441 O434 1.266 . S
Co442 O445 1.970 1_565 S
Co442 N459 1.989 . S
Co442 O467 1.967 . S
Co442 O474 1.920 . S
Co443 O446 1.966 1_565 S
Co443 N452 2.022 . S
Co443 N460 1.993 . S
Co443 O468 1.941 . S
C444 O445 1.258 . S
C444 O446 1.263 . S
O445 Co442 1.970 1_545 S
O445 C444 1.258 . S
O446 Co443 1.966 1_545 S
O446 C444 1.263 . S
C447 O448 1.235 1_556 S
C447 O474 1.289 1_546 S
O448 C447 1.235 1_554 S
C449 C451 1.400 . S
C449 N452 1.351 . S
C449 C454 1.501 1_565 S
C450 C451 1.387 . S
C450 N453 1.341 . S
C451 C449 1.400 . S
C451 C450 1.387 . S
N452 Co443 2.022 . S
N452 C449 1.351 . S
N452 N453 1.365 . S
N453 C450 1.341 . S
N453 N452 1.365 . S
N453 H473 0.862 . S
C454 C449 1.501 1_545 S
C454 H455 0.961 . S
C454 H456 0.961 . S
C454 H457 0.960 . S
H455 C454 0.961 . S
H456 C454 0.961 . S
H457 C454 0.960 . S
C458 N459 1.342 . S
C458 C462 1.401 . S
C458 C463 1.499 . S
N459 Co442 1.989 . S
N459 C458 1.342 . S
N459 N460 1.388 . S
N460 Co443 1.993 . S
N460 N459 1.388 . S
N460 C461 1.346 . S
C461 N460 1.346 . S
C461 C462 1.396 . S
C461 C471 1.510 . S
C462 C458 1.401 . S
C462 C461 1.396 . S
C463 C458 1.499 . S
C463 H464 0.959 . S
C463 H465 0.960 . S
C463 H466 0.961 . S
H464 C463 0.959 . S
H465 C463 0.960 . S
H466 C463 0.961 . S
O467 Co442 1.967 . S
O467 C475 1.258 . S
O468 Co443 1.941 . S
O468 C475 1.266 . S
H469 C471 0.959 . S
H470 C471 0.961 . S
C471 C461 1.510 . S
C471 H469 0.959 . S
C471 H470 0.961 . S
C471 H472 0.960 . S
H472 C471 0.960 . S
H473 N453 0.862 . S
O474 Co442 1.920 . S
O474 C447 1.289 1_564 S
C475 O467 1.258 . S
C475 O468 1.266 . S
Co476 O479 1.970 . S
Co476 N493 1.989 . S
Co476 O501 1.967 . S
Co476 O508 1.920 . S
Co477 O480 1.966 . S
Co477 N486 2.022 . S
Co477 N494 1.993 . S
Co477 O502 1.941 . S
C478 O479 1.258 . S
C478 O480 1.263 . S
O479 Co476 1.970 . S
O479 C478 1.258 . S
O480 Co477 1.966 . S
O480 C478 1.263 . S
C481 O482 1.235 . S
C481 O508 1.289 . S
O482 C481 1.235 . S
C483 C485 1.400 . S
C483 N486 1.351 . S
C483 C488 1.501 . S
C484 C485 1.387 . S
C484 N487 1.341 . S
C485 C483 1.400 . S
C485 C484 1.387 . S
N486 Co477 2.022 . S
N486 C483 1.351 . S
N486 N487 1.365 . S
N487 C484 1.341 . S
N487 N486 1.365 . S
N487 H507 0.862 . S
C488 C483 1.501 . S
C488 H489 0.961 . S
C488 H490 0.961 . S
C488 H491 0.960 . S
H489 C488 0.961 . S
H490 C488 0.961 . S
H491 C488 0.960 . S
C492 N493 1.342 . S
C492 C496 1.401 . S
C492 C497 1.499 . S
N493 Co476 1.989 . S
N493 C492 1.342 . S
N493 N494 1.388 . S
N494 Co477 1.993 . S
N494 N493 1.388 . S
N494 C495 1.346 . S
C495 N494 1.346 . S
C495 C496 1.396 . S
C495 C505 1.510 . S
C496 C492 1.401 . S
C496 C495 1.396 . S
C497 C492 1.499 . S
C497 H498 0.959 . S
C497 H499 0.960 . S
C497 H500 0.961 . S
H498 C497 0.959 . S
H499 C497 0.960 . S
H500 C497 0.961 . S
O501 Co476 1.967 . S
O501 C509 1.258 . S
O502 Co477 1.941 . S
O502 C509 1.266 . S
H503 C505 0.959 . S
H504 C505 0.961 . S
C505 C495 1.510 . S
C505 H503 0.959 . S
C505 H504 0.961 . S
C505 H506 0.960 . S
H506 C505 0.960 . S
H507 N487 0.862 . S
O508 Co476 1.920 . S
O508 C481 1.289 . S
C509 O501 1.258 . S
C509 O502 1.266 . S
Co510 O513 1.970 . S
Co510 N527 1.989 . S
Co510 O535 1.967 . S
Co510 O542 1.920 . S
Co511 O514 1.966 . S
Co511 N520 2.022 . S
Co511 N528 1.993 . S
Co511 O536 1.941 . S
C512 O513 1.258 . S
C512 O514 1.263 . S
O513 Co510 1.970 . S
O513 C512 1.258 . S
O514 Co511 1.966 . S
O514 C512 1.263 . S
C515 O516 1.235 1_556 S
C515 O542 1.289 1_556 S
O516 C515 1.235 1_554 S
C517 C519 1.400 . S
C517 N520 1.351 . S
C517 C522 1.501 . S
C518 C519 1.387 . S
C518 N521 1.341 . S
C519 C517 1.400 . S
C519 C518 1.387 . S
N520 Co511 2.022 . S
N520 C517 1.351 . S
N520 N521 1.365 . S
N521 C518 1.341 . S
N521 N520 1.365 . S
N521 H541 0.862 . S
C522 C517 1.501 . S
C522 H523 0.961 . S
C522 H524 0.961 . S
C522 H525 0.960 . S
H523 C522 0.961 . S
H524 C522 0.961 . S
H525 C522 0.960 . S
C526 N527 1.342 . S
C526 C530 1.401 . S
C526 C531 1.499 . S
N527 Co510 1.989 . S
N527 C526 1.342 . S
N527 N528 1.388 . S
N528 Co511 1.993 . S
N528 N527 1.388 . S
N528 C529 1.346 . S
C529 N528 1.346 . S
C529 C530 1.396 . S
C529 C539 1.510 . S
C530 C526 1.401 . S
C530 C529 1.396 . S
C531 C526 1.499 . S
C531 H532 0.959 . S
C531 H533 0.960 . S
C531 H534 0.961 . S
H532 C531 0.959 . S
H533 C531 0.960 . S
H534 C531 0.961 . S
O535 Co510 1.967 . S
O535 C543 1.258 . S
O536 Co511 1.941 . S
O536 C543 1.266 . S
H537 C539 0.959 . S
H538 C539 0.961 . S
C539 C529 1.510 . S
C539 H537 0.959 . S
C539 H538 0.961 . S
C539 H540 0.960 . S
H540 C539 0.960 . S
H541 N521 0.862 . S
O542 Co510 1.920 . S
O542 C515 1.289 1_554 S
C543 O535 1.258 . S
C543 O536 1.266 . S
H544 C562 0.951 . S
H545 C564 0.951 . S
H546 C566 0.950 . S
H547 C567 0.950 . S
H548 C569 0.950 . S
H549 C572 0.950 . S
H550 C573 0.950 . S
H551 C575 0.950 . S
H552 C576 0.950 . S
H553 C577 0.951 . S
H554 C579 0.951 . S
H555 C581 0.950 . S
H556 C582 0.950 . S
H557 C584 0.950 . S
H558 C587 0.950 . S
H559 C588 0.950 . S
H560 C590 0.950 . S
H561 C591 0.950 . S
C562 H544 0.951 . S
C562 C563 1.366 . S
C562 C564 1.388 . S
C563 C562 1.366 . S
C563 C567 1.385 . S
C564 H545 0.951 . S
C564 C562 1.388 . S
C564 C565 1.366 . S
C565 C564 1.366 . S
C565 C566 1.414 . S
C565 C568 1.499 . S
C566 H546 0.950 . S
C566 C565 1.414 . S
C566 C567 1.374 . S
C567 H547 0.950 . S
C567 C563 1.385 . S
C567 C566 1.374 . S
C568 C565 1.499 . S
C568 C569 1.373 . S
C568 C570 1.389 . S
C569 H548 0.950 . S
C569 C568 1.373 . S
C569 C585 1.377 . S
C570 C568 1.389 . S
C570 C571 1.524 . S
C570 C584 1.377 . S
C571 C570 1.524 . S
C571 C572 1.397 . S
C571 C576 1.363 . S
C572 H549 0.950 . S
C572 C571 1.397 . S
C572 C573 1.334 . S
C573 H550 0.950 . S
C573 C572 1.334 . S
C573 C574 1.287 . S
C574 C573 1.287 . S
C574 C575 1.524 . S
C574 H593 0.913 . S
C575 H551 0.950 . S
C575 C574 1.524 . S
C575 C576 1.415 . S
C576 H552 0.950 . S
C576 C571 1.363 . S
C576 C575 1.415 . S
C577 H553 0.951 . S
C577 C578 1.366 . S
C577 C579 1.388 . S
C578 C577 1.366 . S
C578 C582 1.385 . S
C579 H554 0.951 . S
C579 C577 1.388 . S
C579 C580 1.366 . S
C580 C579 1.366 . S
C580 C581 1.414 . S
C580 C583 1.499 . S
C581 H555 0.950 . S
C581 C580 1.414 . S
C581 C582 1.374 . S
C582 H556 0.950 . S
C582 C578 1.385 . S
C582 C581 1.374 . S
C583 C580 1.499 . S
C583 C584 1.373 . S
C583 C585 1.389 . S
C584 H557 0.950 . S
C584 C570 1.377 . S
C584 C583 1.373 . S
C585 C569 1.377 . S
C585 C583 1.389 . S
C585 C586 1.524 . S
C586 C585 1.524 . S
C586 C587 1.397 . S
C586 C591 1.363 . S
C587 H558 0.950 . S
C587 C586 1.397 . S
C587 C588 1.334 1_554 S
C588 H559 0.950 . S
C588 C587 1.334 1_556 S
C588 C589 1.287 . S
C589 C588 1.287 . S
C589 C590 1.524 1_556 S
C589 H592 0.999 . S
C590 H560 0.950 . S
C590 C589 1.524 1_554 S
C590 C591 1.415 . S
C591 H561 0.950 . S
C591 C586 1.363 . S
C591 C590 1.415 . S
H592 C589 0.999 . S
H593 C574 0.913 . S
H594 C612 0.951 . S
H595 C614 0.951 . S
H596 C616 0.950 . S
H597 C617 0.950 . S
H598 C619 0.950 . S
H599 C622 0.950 . S
H600 C623 0.950 . S
H601 C625 0.950 . S
H602 C626 0.950 . S
H603 C627 0.951 . S
H604 C629 0.951 . S
H605 C631 0.950 . S
H606 C632 0.950 . S
H607 C634 0.950 . S
H608 C637 0.950 . S
H609 C638 0.950 . S
H610 C640 0.950 . S
H611 C641 0.950 . S
C612 H594 0.951 . S
C612 C613 1.366 . S
C612 C614 1.388 . S
C613 C612 1.366 . S
C613 C617 1.385 . S
C614 H595 0.951 . S
C614 C612 1.388 . S
C614 C615 1.366 . S
C615 C614 1.366 . S
C615 C616 1.414 . S
C615 C618 1.499 . S
C616 H596 0.950 . S
C616 C615 1.414 . S
C616 C617 1.374 . S
C617 H597 0.950 . S
C617 C613 1.385 . S
C617 C616 1.374 . S
C618 C615 1.499 . S
C618 C619 1.373 . S
C618 C620 1.389 . S
C619 H598 0.950 . S
C619 C618 1.373 . S
C619 C635 1.377 . S
C620 C618 1.389 . S
C620 C621 1.524 . S
C620 C634 1.377 . S
C621 C620 1.524 . S
C621 C622 1.397 . S
C621 C626 1.363 . S
C622 H599 0.950 . S
C622 C621 1.397 . S
C622 C623 1.334 . S
C623 H600 0.950 . S
C623 C622 1.334 . S
C623 C624 1.287 . S
C624 C623 1.287 . S
C624 C625 1.524 . S
C624 H643 0.913 . S
C625 H601 0.950 . S
C625 C624 1.524 . S
C625 C626 1.415 . S
C626 H602 0.950 . S
C626 C621 1.363 . S
C626 C625 1.415 . S
C627 H603 0.951 . S
C627 C628 1.366 . S
C627 C629 1.388 . S
C628 C627 1.366 . S
C628 C632 1.385 . S
C629 H604 0.951 . S
C629 C627 1.388 . S
C629 C630 1.366 . S
C630 C629 1.366 . S
C630 C631 1.414 . S
C630 C633 1.499 . S
C631 H605 0.950 . S
C631 C630 1.414 . S
C631 C632 1.374 . S
C632 H606 0.950 . S
C632 C628 1.385 . S
C632 C631 1.374 . S
C633 C630 1.499 . S
C633 C634 1.373 . S
C633 C635 1.389 . S
C634 H607 0.950 . S
C634 C620 1.377 . S
C634 C633 1.373 . S
C635 C619 1.377 . S
C635 C633 1.389 . S
C635 C636 1.524 . S
C636 C635 1.524 . S
C636 C637 1.397 . S
C636 C641 1.363 . S
C637 H608 0.950 . S
C637 C636 1.397 . S
C637 C638 1.334 . S
C638 H609 0.950 . S
C638 C637 1.334 . S
C638 C639 1.287 . S
C639 C638 1.287 . S
C639 C640 1.524 . S
C639 H642 0.999 . S
C640 H610 0.950 . S
C640 C639 1.524 . S
C640 C641 1.415 . S
C641 H611 0.950 . S
C641 C636 1.363 . S
C641 C640 1.415 . S
H642 C639 0.999 . S
H643 C624 0.913 . S
H644 C662 0.951 . S
H645 C664 0.951 . S
H646 C666 0.950 . S
H647 C667 0.950 . S
H648 C669 0.950 . S
H649 C672 0.950 . S
H650 C673 0.950 . S
H651 C675 0.950 . S
H652 C676 0.950 . S
H653 C677 0.951 . S
H654 C679 0.951 . S
H655 C681 0.950 . S
H656 C682 0.950 . S
H657 C684 0.950 . S
H658 C687 0.950 . S
H659 C688 0.950 . S
H660 C690 0.950 . S
H661 C691 0.950 . S
C662 H644 0.951 . S
C662 C663 1.366 . S
C662 C664 1.388 . S
C663 C662 1.366 . S
C663 C667 1.385 . S
C664 H645 0.951 . S
C664 C662 1.388 . S
C664 C665 1.366 . S
C665 C664 1.366 . S
C665 C666 1.414 . S
C665 C668 1.499 . S
C666 H646 0.950 . S
C666 C665 1.414 . S
C666 C667 1.374 . S
C667 H647 0.950 . S
C667 C663 1.385 . S
C667 C666 1.374 . S
C668 C665 1.499 . S
C668 C669 1.373 . S
C668 C670 1.389 . S
C669 H648 0.950 . S
C669 C668 1.373 . S
C669 C685 1.377 . S
C670 C668 1.389 . S
C670 C671 1.524 . S
C670 C684 1.377 . S
C671 C670 1.524 . S
C671 C672 1.397 . S
C671 C676 1.363 . S
C672 H649 0.950 . S
C672 C671 1.397 . S
C672 C673 1.334 . S
C673 H650 0.950 . S
C673 C672 1.334 . S
C673 C674 1.287 . S
C674 C673 1.287 . S
C674 C675 1.524 . S
C674 H693 0.913 . S
C675 H651 0.950 . S
C675 C674 1.524 . S
C675 C676 1.415 . S
C676 H652 0.950 . S
C676 C671 1.363 . S
C676 C675 1.415 . S
C677 H653 0.951 . S
C677 C678 1.366 . S
C677 C679 1.388 . S
C678 C677 1.366 . S
C678 C682 1.385 . S
C679 H654 0.951 . S
C679 C677 1.388 . S
C679 C680 1.366 . S
C680 C679 1.366 . S
C680 C681 1.414 . S
C680 C683 1.499 . S
C681 H655 0.950 . S
C681 C680 1.414 . S
C681 C682 1.374 . S
C682 H656 0.950 . S
C682 C678 1.385 . S
C682 C681 1.374 . S
C683 C680 1.499 . S
C683 C684 1.373 . S
C683 C685 1.389 . S
C684 H657 0.950 . S
C684 C670 1.377 . S
C684 C683 1.373 . S
C685 C669 1.377 . S
C685 C683 1.389 . S
C685 C686 1.524 . S
C686 C685 1.524 . S
C686 C687 1.397 . S
C686 C691 1.363 . S
C687 H658 0.950 . S
C687 C686 1.397 . S
C687 C688 1.334 . S
C688 H659 0.950 . S
C688 C687 1.334 . S
C688 C689 1.287 . S
C689 C688 1.287 . S
C689 C690 1.524 . S
C689 H692 0.999 . S
C690 H660 0.950 . S
C690 C689 1.524 . S
C690 C691 1.415 . S
C691 H661 0.950 . S
C691 C686 1.363 . S
C691 C690 1.415 . S
H692 C689 0.999 . S
H693 C674 0.913 . S
H694 C712 0.951 . S
H695 C714 0.951 . S
H696 C716 0.950 . S
H697 C717 0.950 . S
H698 C719 0.950 . S
H699 C722 0.950 . S
H700 C723 0.950 . S
H701 C725 0.950 . S
H702 C726 0.950 . S
H703 C727 0.951 . S
H704 C729 0.951 . S
H705 C731 0.950 . S
H706 C732 0.950 . S
H707 C734 0.950 . S
H708 C737 0.950 . S
H709 C738 0.950 . S
H710 C740 0.950 . S
H711 C741 0.950 . S
C712 H694 0.951 . S
C712 C713 1.366 . S
C712 C714 1.388 . S
C713 C712 1.366 . S
C713 C717 1.385 . S
C714 H695 0.951 . S
C714 C712 1.388 . S
C714 C715 1.366 . S
C715 C714 1.366 . S
C715 C716 1.414 . S
C715 C718 1.499 . S
C716 H696 0.950 . S
C716 C715 1.414 . S
C716 C717 1.374 . S
C717 H697 0.950 . S
C717 C713 1.385 . S
C717 C716 1.374 . S
C718 C715 1.499 . S
C718 C719 1.373 . S
C718 C720 1.389 . S
C719 H698 0.950 . S
C719 C718 1.373 . S
C719 C735 1.377 . S
C720 C718 1.389 . S
C720 C721 1.524 . S
C720 C734 1.377 . S
C721 C720 1.524 . S
C721 C722 1.397 . S
C721 C726 1.363 . S
C722 H699 0.950 . S
C722 C721 1.397 . S
C722 C723 1.334 . S
C723 H700 0.950 . S
C723 C722 1.334 . S
C723 C724 1.287 . S
C724 C723 1.287 . S
C724 C725 1.524 . S
C724 H743 0.913 . S
C725 H701 0.950 . S
C725 C724 1.524 . S
C725 C726 1.415 . S
C726 H702 0.950 . S
C726 C721 1.363 . S
C726 C725 1.415 . S
C727 H703 0.951 . S
C727 C728 1.366 . S
C727 C729 1.388 . S
C728 C727 1.366 . S
C728 C732 1.385 . S
C729 H704 0.951 . S
C729 C727 1.388 . S
C729 C730 1.366 . S
C730 C729 1.366 . S
C730 C731 1.414 . S
C730 C733 1.499 . S
C731 H705 0.950 . S
C731 C730 1.414 . S
C731 C732 1.374 . S
C732 H706 0.950 . S
C732 C728 1.385 . S
C732 C731 1.374 . S
C733 C730 1.499 . S
C733 C734 1.373 . S
C733 C735 1.389 . S
C734 H707 0.950 . S
C734 C720 1.377 . S
C734 C733 1.373 . S
C735 C719 1.377 . S
C735 C733 1.389 . S
C735 C736 1.524 . S
C736 C735 1.524 . S
C736 C737 1.397 . S
C736 C741 1.363 . S
C737 H708 0.950 . S
C737 C736 1.397 . S
C737 C738 1.334 . S
C738 H709 0.950 . S
C738 C737 1.334 . S
C738 C739 1.287 . S
C739 C738 1.287 . S
C739 C740 1.524 . S
C739 H742 0.999 . S
C740 H710 0.950 . S
C740 C739 1.524 . S
C740 C741 1.415 . S
C741 H711 0.950 . S
C741 C736 1.363 . S
C741 C740 1.415 . S
H742 C739 0.999 . S
H743 C724 0.913 . S
H744 C762 0.951 . S
H745 C764 0.951 . S
H746 C766 0.950 . S
H747 C767 0.950 . S
H748 C769 0.950 . S
H749 C772 0.950 . S
H750 C773 0.950 . S
H751 C775 0.950 . S
H752 C776 0.950 . S
H753 C777 0.951 . S
H754 C779 0.951 . S
H755 C781 0.950 . S
H756 C782 0.950 . S
H757 C784 0.950 . S
H758 C787 0.950 . S
H759 C788 0.950 . S
H760 C790 0.950 . S
H761 C791 0.950 . S
C762 H744 0.951 . S
C762 C763 1.366 . S
C762 C764 1.388 . S
C763 C762 1.366 . S
C763 C767 1.385 . S
C764 H745 0.951 . S
C764 C762 1.388 . S
C764 C765 1.366 . S
C765 C764 1.366 . S
C765 C766 1.414 . S
C765 C768 1.499 . S
C766 H746 0.950 . S
C766 C765 1.414 . S
C766 C767 1.374 . S
C767 H747 0.950 . S
C767 C763 1.385 . S
C767 C766 1.374 . S
C768 C765 1.499 . S
C768 C769 1.373 . S
C768 C770 1.389 . S
C769 H748 0.950 . S
C769 C768 1.373 . S
C769 C785 1.377 . S
C770 C768 1.389 . S
C770 C771 1.524 . S
C770 C784 1.377 . S
C771 C770 1.524 . S
C771 C772 1.397 . S
C771 C776 1.363 . S
C772 H749 0.950 . S
C772 C771 1.397 . S
C772 C773 1.334 . S
C773 H750 0.950 . S
C773 C772 1.334 . S
C773 C774 1.287 . S
C774 C773 1.287 . S
C774 C775 1.524 . S
C774 H793 0.913 . S
C775 H751 0.950 . S
C775 C774 1.524 . S
C775 C776 1.415 . S
C776 H752 0.950 . S
C776 C771 1.363 . S
C776 C775 1.415 . S
C777 H753 0.951 . S
C777 C778 1.366 . S
C777 C779 1.388 . S
C778 C777 1.366 . S
C778 C782 1.385 . S
C779 H754 0.951 . S
C779 C777 1.388 . S
C779 C780 1.366 . S
C780 C779 1.366 . S
C780 C781 1.414 . S
C780 C783 1.499 . S
C781 H755 0.950 . S
C781 C780 1.414 . S
C781 C782 1.374 . S
C782 H756 0.950 . S
C782 C778 1.385 . S
C782 C781 1.374 . S
C783 C780 1.499 . S
C783 C784 1.373 . S
C783 C785 1.389 . S
C784 H757 0.950 . S
C784 C770 1.377 . S
C784 C783 1.373 . S
C785 C769 1.377 . S
C785 C783 1.389 . S
C785 C786 1.524 . S
C786 C785 1.524 . S
C786 C787 1.397 . S
C786 C791 1.363 . S
C787 H758 0.950 . S
C787 C786 1.397 . S
C787 C788 1.334 . S
C788 H759 0.950 . S
C788 C787 1.334 . S
C788 C789 1.287 . S
C789 C788 1.287 . S
C789 C790 1.524 . S
C789 H792 0.999 . S
C790 H760 0.950 . S
C790 C789 1.524 . S
C790 C791 1.415 . S
C791 H761 0.950 . S
C791 C786 1.363 . S
C791 C790 1.415 . S
H792 C789 0.999 . S
H793 C774 0.913 . S
H794 C812 0.951 . S
H795 C814 0.951 . S
H796 C816 0.950 . S
H797 C817 0.950 . S
H798 C819 0.950 . S
H799 C822 0.950 . S
H800 C823 0.950 . S
H801 C825 0.950 . S
H802 C826 0.950 . S
H803 C827 0.951 . S
H804 C829 0.951 . S
H805 C831 0.950 . S
H806 C832 0.950 . S
H807 C834 0.950 . S
H808 C837 0.950 . S
H809 C838 0.950 1_554 S
H810 C840 0.950 . S
H811 C841 0.950 . S
C812 H794 0.951 . S
C812 C813 1.366 . S
C812 C814 1.388 . S
C813 C812 1.366 . S
C813 C817 1.385 . S
C814 H795 0.951 . S
C814 C812 1.388 . S
C814 C815 1.366 . S
C815 C814 1.366 . S
C815 C816 1.414 . S
C815 C818 1.499 . S
C816 H796 0.950 . S
C816 C815 1.414 . S
C816 C817 1.374 . S
C817 H797 0.950 . S
C817 C813 1.385 . S
C817 C816 1.374 . S
C818 C815 1.499 . S
C818 C819 1.373 . S
C818 C820 1.389 . S
C819 H798 0.950 . S
C819 C818 1.373 . S
C819 C835 1.377 . S
C820 C818 1.389 . S
C820 C821 1.524 . S
C820 C834 1.377 . S
C821 C820 1.524 . S
C821 C822 1.397 . S
C821 C826 1.363 . S
C822 H799 0.950 . S
C822 C821 1.397 . S
C822 C823 1.334 . S
C823 H800 0.950 . S
C823 C822 1.334 . S
C823 C824 1.287 . S
C824 C823 1.287 . S
C824 C825 1.524 . S
C824 H843 0.913 . S
C825 H801 0.950 . S
C825 C824 1.524 . S
C825 C826 1.415 . S
C826 H802 0.950 . S
C826 C821 1.363 . S
C826 C825 1.415 . S
C827 H803 0.951 . S
C827 C828 1.366 . S
C827 C829 1.388 . S
C828 C827 1.366 . S
C828 C832 1.385 . S
C829 H804 0.951 . S
C829 C827 1.388 . S
C829 C830 1.366 . S
C830 C829 1.366 . S
C830 C831 1.414 . S
C830 C833 1.499 . S
C831 H805 0.950 . S
C831 C830 1.414 . S
C831 C832 1.374 . S
C832 H806 0.950 . S
C832 C828 1.385 . S
C832 C831 1.374 . S
C833 C830 1.499 . S
C833 C834 1.373 . S
C833 C835 1.389 . S
C834 H807 0.950 . S
C834 C820 1.377 . S
C834 C833 1.373 . S
C835 C819 1.377 . S
C835 C833 1.389 . S
C835 C836 1.524 . S
C836 C835 1.524 . S
C836 C837 1.397 . S
C836 C841 1.363 . S
C837 H808 0.950 . S
C837 C836 1.397 . S
C837 C838 1.334 . S
C838 H809 0.950 1_556 S
C838 C837 1.334 . S
C838 C839 1.287 . S
C839 C838 1.287 . S
C839 C840 1.524 . S
C839 H842 0.999 . S
C840 H810 0.950 . S
C840 C839 1.524 . S
C840 C841 1.415 . S
C841 H811 0.950 . S
C841 C836 1.363 . S
C841 C840 1.415 . S
H842 C839 0.999 . S
H843 C824 0.913 . S
H844 C862 0.951 . S
H845 C864 0.951 . S
H846 C866 0.950 . S
H847 C867 0.950 . S
H848 C869 0.950 . S
H849 C872 0.950 . S
H850 C873 0.950 . S
H851 C875 0.950 . S
H852 C876 0.950 . S
H853 C877 0.951 . S
H854 C879 0.951 . S
H855 C881 0.950 . S
H856 C882 0.950 . S
H857 C884 0.950 . S
H858 C887 0.950 . S
H859 C888 0.950 . S
H860 C890 0.950 . S
H861 C891 0.950 . S
C862 H844 0.951 . S
C862 C863 1.366 . S
C862 C864 1.388 . S
C863 C862 1.366 . S
C863 C867 1.385 . S
C864 H845 0.951 . S
C864 C862 1.388 . S
C864 C865 1.366 . S
C865 C864 1.366 . S
C865 C866 1.414 . S
C865 C868 1.499 . S
C866 H846 0.950 . S
C866 C865 1.414 . S
C866 C867 1.374 . S
C867 H847 0.950 . S
C867 C863 1.385 . S
C867 C866 1.374 . S
C868 C865 1.499 . S
C868 C869 1.373 . S
C868 C870 1.389 . S
C869 H848 0.950 . S
C869 C868 1.373 . S
C869 C885 1.377 . S
C870 C868 1.389 . S
C870 C871 1.524 . S
C870 C884 1.377 . S
C871 C870 1.524 . S
C871 C872 1.397 . S
C871 C876 1.363 . S
C872 H849 0.950 . S
C872 C871 1.397 . S
C872 C873 1.334 . S
C873 H850 0.950 . S
C873 C872 1.334 . S
C873 C874 1.287 . S
C874 C873 1.287 . S
C874 C875 1.524 . S
C874 H893 0.913 . S
C875 H851 0.950 . S
C875 C874 1.524 . S
C875 C876 1.415 . S
C876 H852 0.950 . S
C876 C871 1.363 . S
C876 C875 1.415 . S
C877 H853 0.951 . S
C877 C878 1.366 . S
C877 C879 1.388 . S
C878 C877 1.366 . S
C878 C882 1.385 . S
C879 H854 0.951 . S
C879 C877 1.388 . S
C879 C880 1.366 . S
C880 C879 1.366 . S
C880 C881 1.414 . S
C880 C883 1.499 . S
C881 H855 0.950 . S
C881 C880 1.414 . S
C881 C882 1.374 . S
C882 H856 0.950 . S
C882 C878 1.385 . S
C882 C881 1.374 . S
C883 C880 1.499 . S
C883 C884 1.373 . S
C883 C885 1.389 . S
C884 H857 0.950 . S
C884 C870 1.377 . S
C884 C883 1.373 . S
C885 C869 1.377 . S
C885 C883 1.389 . S
C885 C886 1.524 . S
C886 C885 1.524 . S
C886 C887 1.397 . S
C886 C891 1.363 . S
C887 H858 0.950 . S
C887 C886 1.397 . S
C887 C888 1.334 . S
C888 H859 0.950 . S
C888 C887 1.334 . S
C888 C889 1.287 . S
C889 C888 1.287 . S
C889 C890 1.524 . S
C889 H892 0.999 . S
C890 H860 0.950 . S
C890 C889 1.524 . S
C890 C891 1.415 . S
C891 H861 0.950 . S
C891 C886 1.363 . S
C891 C890 1.415 . S
H892 C889 0.999 . S
H893 C874 0.913 . S
H894 C912 0.951 . S
H895 C914 0.951 . S
H896 C916 0.950 . S
H897 C917 0.950 . S
H898 C919 0.950 . S
H899 C922 0.950 . S
H900 C923 0.950 . S
H901 C925 0.950 . S
H902 C926 0.950 . S
H903 C927 0.951 . S
H904 C929 0.951 . S
H905 C931 0.950 . S
H906 C932 0.950 . S
H907 C934 0.950 . S
H908 C937 0.950 . S
H909 C938 0.950 . S
H910 C940 0.950 . S
H911 C941 0.950 . S
C912 H894 0.951 . S
C912 C913 1.366 . S
C912 C914 1.388 . S
C913 C912 1.366 . S
C913 C917 1.385 . S
C914 H895 0.951 . S
C914 C912 1.388 . S
C914 C915 1.366 . S
C915 C914 1.366 . S
C915 C916 1.414 . S
C915 C918 1.499 . S
C916 H896 0.950 . S
C916 C915 1.414 . S
C916 C917 1.374 . S
C917 H897 0.950 . S
C917 C913 1.385 . S
C917 C916 1.374 . S
C918 C915 1.499 . S
C918 C919 1.373 . S
C918 C920 1.389 . S
C919 H898 0.950 . S
C919 C918 1.373 . S
C919 C935 1.377 . S
C920 C918 1.389 . S
C920 C921 1.524 . S
C920 C934 1.377 . S
C921 C920 1.524 . S
C921 C922 1.397 . S
C921 C926 1.363 . S
C922 H899 0.950 . S
C922 C921 1.397 . S
C922 C923 1.334 . S
C923 H900 0.950 . S
C923 C922 1.334 . S
C923 C924 1.287 . S
C924 C923 1.287 . S
C924 C925 1.524 . S
C924 H943 0.913 . S
C925 H901 0.950 . S
C925 C924 1.524 . S
C925 C926 1.415 . S
C926 H902 0.950 . S
C926 C921 1.363 . S
C926 C925 1.415 . S
C927 H903 0.951 . S
C927 C928 1.366 . S
C927 C929 1.388 . S
C928 C927 1.366 . S
C928 C932 1.385 . S
C929 H904 0.951 . S
C929 C927 1.388 . S
C929 C930 1.366 . S
C930 C929 1.366 . S
C930 C931 1.414 . S
C930 C933 1.499 . S
C931 H905 0.950 . S
C931 C930 1.414 . S
C931 C932 1.374 . S
C932 H906 0.950 . S
C932 C928 1.385 . S
C932 C931 1.374 . S
C933 C930 1.499 . S
C933 C934 1.373 . S
C933 C935 1.389 . S
C934 H907 0.950 . S
C934 C920 1.377 . S
C934 C933 1.373 . S
C935 C919 1.377 . S
C935 C933 1.389 . S
C935 C936 1.524 . S
C936 C935 1.524 . S
C936 C937 1.397 . S
C936 C941 1.363 . S
C937 H908 0.950 . S
C937 C936 1.397 . S
C937 C938 1.334 . S
C938 H909 0.950 . S
C938 C937 1.334 . S
C938 C939 1.287 . S
C939 C938 1.287 . S
C939 C940 1.524 . S
C939 H942 0.999 . S
C940 H910 0.950 . S
C940 C939 1.524 . S
C940 C941 1.415 . S
C941 H911 0.950 . S
C941 C936 1.363 . S
C941 C940 1.415 . S
H942 C939 0.999 . S
H943 C924 0.913 . S
H944 C962 0.951 . S
H945 C964 0.951 . S
H946 C966 0.950 1_556 S
H947 C967 0.950 . S
H948 C969 0.950 . S
H949 C972 0.950 . S
H950 C973 0.950 . S
H951 C975 0.950 . S
H952 C976 0.950 . S
H953 C977 0.951 . S
H954 C979 0.951 . S
H955 C981 0.950 1_554 S
H956 C982 0.950 . S
H957 C984 0.950 . S
H958 C987 0.950 . S
H959 C988 0.950 . S
H960 C990 0.950 . S
H961 C991 0.950 . S
C962 H944 0.951 . S
C962 C963 1.366 . S
C962 C964 1.388 . S
C963 C962 1.366 . S
C963 C967 1.385 . S
C964 H945 0.951 . S
C964 C962 1.388 . S
C964 C965 1.366 . S
C965 C964 1.366 . S
C965 C966 1.414 . S
C965 C968 1.499 . S
C966 H946 0.950 1_554 S
C966 C965 1.414 . S
C966 C967 1.374 . S
C967 H947 0.950 . S
C967 C963 1.385 . S
C967 C966 1.374 . S
C968 C965 1.499 . S
C968 C969 1.373 1_554 S
C968 C970 1.389 . S
C969 H948 0.950 . S
C969 C968 1.373 1_556 S
C969 C985 1.377 . S
C970 C968 1.389 . S
C970 C971 1.524 . S
C970 C984 1.377 . S
C971 C970 1.524 . S
C971 C972 1.397 . S
C971 C976 1.363 . S
C972 H949 0.950 . S
C972 C971 1.397 . S
C972 C973 1.334 . S
C973 H950 0.950 . S
C973 C972 1.334 . S
C973 C974 1.287 . S
C974 C973 1.287 . S
C974 C975 1.524 . S
C974 H993 0.913 . S
C975 H951 0.950 . S
C975 C974 1.524 . S
C975 C976 1.415 . S
C976 H952 0.950 . S
C976 C971 1.363 . S
C976 C975 1.415 . S
C977 H953 0.951 . S
C977 C978 1.366 . S
C977 C979 1.388 . S
C978 C977 1.366 . S
C978 C982 1.385 . S
C979 H954 0.951 . S
C979 C977 1.388 . S
C979 C980 1.366 . S
C980 C979 1.366 . S
C980 C981 1.414 . S
C980 C983 1.499 . S
C981 H955 0.950 1_556 S
C981 C980 1.414 . S
C981 C982 1.374 . S
C982 H956 0.950 . S
C982 C978 1.385 . S
C982 C981 1.374 . S
C983 C980 1.499 . S
C983 C984 1.373 1_556 S
C983 C985 1.389 . S
C984 H957 0.950 . S
C984 C970 1.377 . S
C984 C983 1.373 1_554 S
C985 C969 1.377 . S
C985 C983 1.389 . S
C985 C986 1.524 . S
C986 C985 1.524 . S
C986 C987 1.397 . S
C986 C991 1.363 . S
C987 H958 0.950 . S
C987 C986 1.397 . S
C987 C988 1.334 . S
C988 H959 0.950 . S
C988 C987 1.334 . S
C988 C989 1.287 . S
C989 C988 1.287 . S
C989 C990 1.524 . S
C989 H992 0.999 . S
C990 H960 0.950 . S
C990 C989 1.524 . S
C990 C991 1.415 . S
C991 H961 0.950 . S
C991 C986 1.363 . S
C991 C990 1.415 . S
H992 C989 0.999 . S
H993 C974 0.913 . S
H994 C1012 0.951 . S
H995 C1014 0.951 . S
H996 C1016 0.950 . S
H997 C1017 0.950 . S
H998 C1019 0.950 . S
H999 C1022 0.950 . S
H1000 C1023 0.950 . S
H1001 C1025 0.950 . S
H1002 C1026 0.950 . S
H1003 C1027 0.951 . S
H1004 C1029 0.951 . S
H1005 C1031 0.950 . S
H1006 C1032 0.950 . S
H1007 C1034 0.950 . S
H1008 C1037 0.950 . S
H1009 C1038 0.950 . S
H1010 C1040 0.950 . S
H1011 C1041 0.950 . S
C1012 H994 0.951 . S
C1012 C1013 1.366 . S
C1012 C1014 1.388 . S
C1013 C1012 1.366 . S
C1013 C1017 1.385 . S
C1014 H995 0.951 . S
C1014 C1012 1.388 . S
C1014 C1015 1.366 . S
C1015 C1014 1.366 . S
C1015 C1016 1.414 . S
C1015 C1018 1.499 . S
C1016 H996 0.950 . S
C1016 C1015 1.414 . S
C1016 C1017 1.374 . S
C1017 H997 0.950 . S
C1017 C1013 1.385 . S
C1017 C1016 1.374 . S
C1018 C1015 1.499 . S
C1018 C1019 1.373 . S
C1018 C1020 1.389 . S
C1019 H998 0.950 . S
C1019 C1018 1.373 . S
C1019 C1035 1.377 . S
C1020 C1018 1.389 . S
C1020 C1021 1.524 . S
C1020 C1034 1.377 . S
C1021 C1020 1.524 . S
C1021 C1022 1.397 . S
C1021 C1026 1.363 . S
C1022 H999 0.950 . S
C1022 C1021 1.397 . S
C1022 C1023 1.334 . S
C1023 H1000 0.950 . S
C1023 C1022 1.334 . S
C1023 C1024 1.287 . S
C1024 C1023 1.287 . S
C1024 C1025 1.524 . S
C1024 H1043 0.913 . S
C1025 H1001 0.950 . S
C1025 C1024 1.524 . S
C1025 C1026 1.415 . S
C1026 H1002 0.950 . S
C1026 C1021 1.363 . S
C1026 C1025 1.415 . S
C1027 H1003 0.951 . S
C1027 C1028 1.366 . S
C1027 C1029 1.388 . S
C1028 C1027 1.366 . S
C1028 C1032 1.385 . S
C1029 H1004 0.951 . S
C1029 C1027 1.388 . S
C1029 C1030 1.366 . S
C1030 C1029 1.366 . S
C1030 C1031 1.414 . S
C1030 C1033 1.499 . S
C1031 H1005 0.950 . S
C1031 C1030 1.414 . S
C1031 C1032 1.374 . S
C1032 H1006 0.950 . S
C1032 C1028 1.385 . S
C1032 C1031 1.374 . S
C1033 C1030 1.499 . S
C1033 C1034 1.373 . S
C1033 C1035 1.389 . S
C1034 H1007 0.950 . S
C1034 C1020 1.377 . S
C1034 C1033 1.373 . S
C1035 C1019 1.377 . S
C1035 C1033 1.389 . S
C1035 C1036 1.524 . S
C1036 C1035 1.524 . S
C1036 C1037 1.397 . S
C1036 C1041 1.363 . S
C1037 H1008 0.950 . S
C1037 C1036 1.397 . S
C1037 C1038 1.334 . S
C1038 H1009 0.950 . S
C1038 C1037 1.334 . S
C1038 C1039 1.287 . S
C1039 C1038 1.287 . S
C1039 C1040 1.524 . S
C1039 H1042 0.999 . S
C1040 H1010 0.950 . S
C1040 C1039 1.524 . S
C1040 C1041 1.415 . S
C1041 H1011 0.950 . S
C1041 C1036 1.363 . S
C1041 C1040 1.415 . S
H1042 C1039 0.999 . S
H1043 C1024 0.913 . S
H1044 C1062 0.951 . S
H1045 C1064 0.951 . S
H1046 C1066 0.950 . S
H1047 C1067 0.950 . S
H1048 C1069 0.950 . S
H1049 C1072 0.950 . S
H1050 C1073 0.950 . S
H1051 C1075 0.950 . S
H1052 C1076 0.950 . S
H1053 C1077 0.951 . S
H1054 C1079 0.951 . S
H1055 C1081 0.950 . S
H1056 C1082 0.950 . S
H1057 C1084 0.950 . S
H1058 C1087 0.950 . S
H1059 C1088 0.950 . S
H1060 C1090 0.950 . S
H1061 C1091 0.950 . S
C1062 H1044 0.951 . S
C1062 C1063 1.366 . S
C1062 C1064 1.388 . S
C1063 C1062 1.366 . S
C1063 C1067 1.385 . S
C1064 H1045 0.951 . S
C1064 C1062 1.388 . S
C1064 C1065 1.366 . S
C1065 C1064 1.366 . S
C1065 C1066 1.414 . S
C1065 C1068 1.499 . S
C1066 H1046 0.950 . S
C1066 C1065 1.414 . S
C1066 C1067 1.374 . S
C1067 H1047 0.950 . S
C1067 C1063 1.385 . S
C1067 C1066 1.374 . S
C1068 C1065 1.499 . S
C1068 C1069 1.373 1_554 S
C1068 C1070 1.389 . S
C1069 H1048 0.950 . S
C1069 C1068 1.373 1_556 S
C1069 C1085 1.377 . S
C1070 C1068 1.389 . S
C1070 C1071 1.524 . S
C1070 C1084 1.377 . S
C1071 C1070 1.524 . S
C1071 C1072 1.397 . S
C1071 C1076 1.363 . S
C1072 H1049 0.950 . S
C1072 C1071 1.397 . S
C1072 C1073 1.334 . S
C1073 H1050 0.950 . S
C1073 C1072 1.334 . S
C1073 C1074 1.287 . S
C1074 C1073 1.287 . S
C1074 C1075 1.524 . S
C1074 H1093 0.913 . S
C1075 H1051 0.950 . S
C1075 C1074 1.524 . S
C1075 C1076 1.415 . S
C1076 H1052 0.950 . S
C1076 C1071 1.363 . S
C1076 C1075 1.415 . S
C1077 H1053 0.951 . S
C1077 C1078 1.366 . S
C1077 C1079 1.388 . S
C1078 C1077 1.366 . S
C1078 C1082 1.385 . S
C1079 H1054 0.951 . S
C1079 C1077 1.388 . S
C1079 C1080 1.366 . S
C1080 C1079 1.366 . S
C1080 C1081 1.414 . S
C1080 C1083 1.499 . S
C1081 H1055 0.950 . S
C1081 C1080 1.414 . S
C1081 C1082 1.374 . S
C1082 H1056 0.950 . S
C1082 C1078 1.385 . S
C1082 C1081 1.374 . S
C1083 C1080 1.499 . S
C1083 C1084 1.373 1_556 S
C1083 C1085 1.389 . S
C1084 H1057 0.950 . S
C1084 C1070 1.377 . S
C1084 C1083 1.373 1_554 S
C1085 C1069 1.377 . S
C1085 C1083 1.389 . S
C1085 C1086 1.524 . S
C1086 C1085 1.524 . S
C1086 C1087 1.397 . S
C1086 C1091 1.363 . S
C1087 H1058 0.950 . S
C1087 C1086 1.397 . S
C1087 C1088 1.334 . S
C1088 H1059 0.950 . S
C1088 C1087 1.334 . S
C1088 C1089 1.287 . S
C1089 C1088 1.287 . S
C1089 C1090 1.524 . S
C1089 H1092 0.999 . S
C1090 H1060 0.950 . S
C1090 C1089 1.524 . S
C1090 C1091 1.415 . S
C1091 H1061 0.950 . S
C1091 C1086 1.363 . S
C1091 C1090 1.415 . S
H1092 C1089 0.999 . S
H1093 C1074 0.913 . S
H1094 C1112 0.951 . S
H1095 C1114 0.951 . S
H1096 C1116 0.950 . S
H1097 C1117 0.950 . S
H1098 C1119 0.950 . S
H1099 C1122 0.950 . S
H1100 C1123 0.950 . S
H1101 C1125 0.950 . S
H1102 C1126 0.950 . S
H1103 C1127 0.951 . S
H1104 C1129 0.951 . S
H1105 C1131 0.950 . S
H1106 C1132 0.950 . S
H1107 C1134 0.950 . S
H1108 C1137 0.950 . S
H1109 C1138 0.950 . S
H1110 C1140 0.950 . S
H1111 C1141 0.950 . S
C1112 H1094 0.951 . S
C1112 C1113 1.366 . S
C1112 C1114 1.388 . S
C1113 C1112 1.366 . S
C1113 C1117 1.385 . S
C1114 H1095 0.951 . S
C1114 C1112 1.388 . S
C1114 C1115 1.366 . S
C1115 C1114 1.366 . S
C1115 C1116 1.414 . S
C1115 C1118 1.499 . S
C1116 H1096 0.950 . S
C1116 C1115 1.414 . S
C1116 C1117 1.374 . S
C1117 H1097 0.950 . S
C1117 C1113 1.385 . S
C1117 C1116 1.374 . S
C1118 C1115 1.499 . S
C1118 C1119 1.373 . S
C1118 C1120 1.389 . S
C1119 H1098 0.950 . S
C1119 C1118 1.373 . S
C1119 C1135 1.377 . S
C1120 C1118 1.389 . S
C1120 C1121 1.524 . S
C1120 C1134 1.377 . S
C1121 C1120 1.524 . S
C1121 C1122 1.397 . S
C1121 C1126 1.363 . S
C1122 H1099 0.950 . S
C1122 C1121 1.397 . S
C1122 C1123 1.334 . S
C1123 H1100 0.950 . S
C1123 C1122 1.334 . S
C1123 C1124 1.287 . S
C1124 C1123 1.287 . S
C1124 C1125 1.524 . S
C1124 H1143 0.913 . S
C1125 H1101 0.950 . S
C1125 C1124 1.524 . S
C1125 C1126 1.415 . S
C1126 H1102 0.950 . S
C1126 C1121 1.363 . S
C1126 C1125 1.415 . S
C1127 H1103 0.951 . S
C1127 C1128 1.366 . S
C1127 C1129 1.388 . S
C1128 C1127 1.366 . S
C1128 C1132 1.385 . S
C1129 H1104 0.951 . S
C1129 C1127 1.388 . S
C1129 C1130 1.366 . S
C1130 C1129 1.366 . S
C1130 C1131 1.414 . S
C1130 C1133 1.499 . S
C1131 H1105 0.950 . S
C1131 C1130 1.414 . S
C1131 C1132 1.374 . S
C1132 H1106 0.950 . S
C1132 C1128 1.385 . S
C1132 C1131 1.374 . S
C1133 C1130 1.499 . S
C1133 C1134 1.373 . S
C1133 C1135 1.389 . S
C1134 H1107 0.950 . S
C1134 C1120 1.377 . S
C1134 C1133 1.373 . S
C1135 C1119 1.377 . S
C1135 C1133 1.389 . S
C1135 C1136 1.524 . S
C1136 C1135 1.524 . S
C1136 C1137 1.397 . S
C1136 C1141 1.363 . S
C1137 H1108 0.950 . S
C1137 C1136 1.397 . S
C1137 C1138 1.334 . S
C1138 H1109 0.950 . S
C1138 C1137 1.334 . S
C1138 C1139 1.287 . S
C1139 C1138 1.287 . S
C1139 C1140 1.524 . S
C1139 H1142 0.999 . S
C1140 H1110 0.950 . S
C1140 C1139 1.524 . S
C1140 C1141 1.415 . S
C1141 H1111 0.950 . S
C1141 C1136 1.363 . S
C1141 C1140 1.415 . S
H1142 C1139 0.999 . S
H1143 C1124 0.913 . S
H1144 C1162 0.951 . S
H1145 C1164 0.951 . S
H1146 C1166 0.950 . S
H1147 C1167 0.950 . S
H1148 C1169 0.950 . S
H1149 C1172 0.950 . S
H1150 C1173 0.950 . S
H1151 C1175 0.950 . S
H1152 C1176 0.950 . S
H1153 C1177 0.951 . S
H1154 C1179 0.951 . S
H1155 C1181 0.950 . S
H1156 C1182 0.950 . S
H1157 C1184 0.950 . S
H1158 C1187 0.950 . S
H1159 C1188 0.950 . S
H1160 C1190 0.950 . S
H1161 C1191 0.950 . S
C1162 H1144 0.951 . S
C1162 C1163 1.366 . S
C1162 C1164 1.388 . S
C1163 C1162 1.366 . S
C1163 C1167 1.385 . S
C1164 H1145 0.951 . S
C1164 C1162 1.388 . S
C1164 C1165 1.366 . S
C1165 C1164 1.366 . S
C1165 C1166 1.414 . S
C1165 C1168 1.499 . S
C1166 H1146 0.950 . S
C1166 C1165 1.414 . S
C1166 C1167 1.374 . S
C1167 H1147 0.950 . S
C1167 C1163 1.385 . S
C1167 C1166 1.374 . S
C1168 C1165 1.499 . S
C1168 C1169 1.377 . S
C1168 C1170 1.389 . S
C1169 H1148 0.950 . S
C1169 C1168 1.377 . S
C1169 C1185 1.373 1_554 S
C1170 C1168 1.389 . S
C1170 C1171 1.524 . S
C1170 C1184 1.373 1_554 S
C1171 C1170 1.524 . S
C1171 C1172 1.397 . S
C1171 C1176 1.363 . S
C1172 H1149 0.950 . S
C1172 C1171 1.397 . S
C1172 C1173 1.334 . S
C1173 H1150 0.950 . S
C1173 C1172 1.334 . S
C1173 C1174 1.287 . S
C1174 C1173 1.287 . S
C1174 C1175 1.524 . S
C1174 H1193 0.913 . S
C1175 H1151 0.950 . S
C1175 C1174 1.524 . S
C1175 C1176 1.415 . S
C1176 H1152 0.950 . S
C1176 C1171 1.363 . S
C1176 C1175 1.415 . S
C1177 H1153 0.951 . S
C1177 C1178 1.366 . S
C1177 C1179 1.388 . S
C1178 C1177 1.366 . S
C1178 C1182 1.385 . S
C1179 H1154 0.951 . S
C1179 C1177 1.388 . S
C1179 C1180 1.366 . S
C1180 C1179 1.366 . S
C1180 C1181 1.414 . S
C1180 C1183 1.499 . S
C1181 H1155 0.950 . S
C1181 C1180 1.414 . S
C1181 C1182 1.374 . S
C1182 H1156 0.950 . S
C1182 C1178 1.385 . S
C1182 C1181 1.374 . S
C1183 C1180 1.499 . S
C1183 C1184 1.377 . S
C1183 C1185 1.389 . S
C1184 H1157 0.950 . S
C1184 C1170 1.373 1_556 S
C1184 C1183 1.377 . S
C1185 C1169 1.373 1_556 S
C1185 C1183 1.389 . S
C1185 C1186 1.524 . S
C1186 C1185 1.524 . S
C1186 C1187 1.397 . S
C1186 C1191 1.363 . S
C1187 H1158 0.950 . S
C1187 C1186 1.397 . S
C1187 C1188 1.334 . S
C1188 H1159 0.950 . S
C1188 C1187 1.334 . S
C1188 C1189 1.287 . S
C1189 C1188 1.287 . S
C1189 C1190 1.524 . S
C1189 H1192 0.999 . S
C1190 H1160 0.950 . S
C1190 C1189 1.524 . S
C1190 C1191 1.415 . S
C1191 H1161 0.950 . S
C1191 C1186 1.363 . S
C1191 C1190 1.415 . S
H1192 C1189 0.999 . S
H1193 C1174 0.913 . S
H1194 C1212 0.951 . S
H1195 C1214 0.951 . S
H1196 C1216 0.950 . S
H1197 C1217 0.950 . S
H1198 C1219 0.950 . S
H1199 C1222 0.950 . S
H1200 C1223 0.950 . S
H1201 C1225 0.950 . S
H1202 C1226 0.950 . S
H1203 C1227 0.951 . S
H1204 C1229 0.951 . S
H1205 C1231 0.950 . S
H1206 C1232 0.950 . S
H1207 C1234 0.950 . S
H1208 C1237 0.950 . S
H1209 C1238 0.950 . S
H1210 C1240 0.950 . S
H1211 C1241 0.950 . S
C1212 H1194 0.951 . S
C1212 C1213 1.366 . S
C1212 C1214 1.388 . S
C1213 C1212 1.366 . S
C1213 C1217 1.385 . S
C1214 H1195 0.951 . S
C1214 C1212 1.388 . S
C1214 C1215 1.366 . S
C1215 C1214 1.366 . S
C1215 C1216 1.414 . S
C1215 C1218 1.499 . S
C1216 H1196 0.950 . S
C1216 C1215 1.414 . S
C1216 C1217 1.374 . S
C1217 H1197 0.950 . S
C1217 C1213 1.385 . S
C1217 C1216 1.374 . S
C1218 C1215 1.499 . S
C1218 C1219 1.373 . S
C1218 C1220 1.389 . S
C1219 H1198 0.950 . S
C1219 C1218 1.373 . S
C1219 C1235 1.377 . S
C1220 C1218 1.389 . S
C1220 C1221 1.524 . S
C1220 C1234 1.377 . S
C1221 C1220 1.524 . S
C1221 C1222 1.397 . S
C1221 C1226 1.363 . S
C1222 H1199 0.950 . S
C1222 C1221 1.397 . S
C1222 C1223 1.334 . S
C1223 H1200 0.950 . S
C1223 C1222 1.334 . S
C1223 C1224 1.287 . S
C1224 C1223 1.287 . S
C1224 C1225 1.524 . S
C1224 H1243 0.913 . S
C1225 H1201 0.950 . S
C1225 C1224 1.524 . S
C1225 C1226 1.415 . S
C1226 H1202 0.950 . S
C1226 C1221 1.363 . S
C1226 C1225 1.415 . S
C1227 H1203 0.951 . S
C1227 C1228 1.366 . S
C1227 C1229 1.388 . S
C1228 C1227 1.366 . S
C1228 C1232 1.385 . S
C1229 H1204 0.951 . S
C1229 C1227 1.388 . S
C1229 C1230 1.366 . S
C1230 C1229 1.366 . S
C1230 C1231 1.414 . S
C1230 C1233 1.499 . S
C1231 H1205 0.950 . S
C1231 C1230 1.414 . S
C1231 C1232 1.374 . S
C1232 H1206 0.950 . S
C1232 C1228 1.385 . S
C1232 C1231 1.374 . S
C1233 C1230 1.499 . S
C1233 C1234 1.373 . S
C1233 C1235 1.389 . S
C1234 H1207 0.950 . S
C1234 C1220 1.377 . S
C1234 C1233 1.373 . S
C1235 C1219 1.377 . S
C1235 C1233 1.389 . S
C1235 C1236 1.524 . S
C1236 C1235 1.524 . S
C1236 C1237 1.397 . S
C1236 C1241 1.363 . S
C1237 H1208 0.950 . S
C1237 C1236 1.397 . S
C1237 C1238 1.334 . S
C1238 H1209 0.950 . S
C1238 C1237 1.334 . S
C1238 C1239 1.287 . S
C1239 C1238 1.287 . S
C1239 C1240 1.524 . S
C1239 H1242 0.999 . S
C1240 H1210 0.950 . S
C1240 C1239 1.524 . S
C1240 C1241 1.415 . S
C1241 H1211 0.950 . S
C1241 C1236 1.363 . S
C1241 C1240 1.415 . S
H1242 C1239 0.999 . S
H1243 C1224 0.913 . S
H1244 C1262 0.951 . S
H1245 C1264 0.951 . S
H1246 C1266 0.950 . S
H1247 C1267 0.950 . S
H1248 C1269 0.950 . S
H1249 C1272 0.950 . S
H1250 C1273 0.950 . S
H1251 C1275 0.950 . S
H1252 C1276 0.950 . S
H1253 C1277 0.951 . S
H1254 C1279 0.951 . S
H1255 C1281 0.950 . S
H1256 C1282 0.950 . S
H1257 C1284 0.950 . S
H1258 C1287 0.950 . S
H1259 C1288 0.950 . S
H1260 C1290 0.950 . S
H1261 C1291 0.950 . S
C1262 H1244 0.951 . S
C1262 C1263 1.366 . S
C1262 C1264 1.388 . S
C1263 C1262 1.366 . S
C1263 C1267 1.385 . S
C1264 H1245 0.951 . S
C1264 C1262 1.388 . S
C1264 C1265 1.366 . S
C1265 C1264 1.366 . S
C1265 C1266 1.414 . S
C1265 C1268 1.499 . S
C1266 H1246 0.950 . S
C1266 C1265 1.414 . S
C1266 C1267 1.374 . S
C1267 H1247 0.950 . S
C1267 C1263 1.385 . S
C1267 C1266 1.374 . S
C1268 C1265 1.499 . S
C1268 C1269 1.373 1_554 S
C1268 C1270 1.389 . S
C1269 H1248 0.950 . S
C1269 C1268 1.373 1_556 S
C1269 C1285 1.377 . S
C1270 C1268 1.389 . S
C1270 C1271 1.524 . S
C1270 C1284 1.377 . S
C1271 C1270 1.524 . S
C1271 C1272 1.397 . S
C1271 C1276 1.363 . S
C1272 H1249 0.950 . S
C1272 C1271 1.397 . S
C1272 C1273 1.334 . S
C1273 H1250 0.950 . S
C1273 C1272 1.334 . S
C1273 C1274 1.287 . S
C1274 C1273 1.287 . S
C1274 C1275 1.524 . S
C1274 H1293 0.913 . S
C1275 H1251 0.950 . S
C1275 C1274 1.524 . S
C1275 C1276 1.415 . S
C1276 H1252 0.950 . S
C1276 C1271 1.363 . S
C1276 C1275 1.415 . S
C1277 H1253 0.951 . S
C1277 C1278 1.366 . S
C1277 C1279 1.388 . S
C1278 C1277 1.366 . S
C1278 C1282 1.385 . S
C1279 H1254 0.951 . S
C1279 C1277 1.388 . S
C1279 C1280 1.366 . S
C1280 C1279 1.366 . S
C1280 C1281 1.414 . S
C1280 C1283 1.499 . S
C1281 H1255 0.950 . S
C1281 C1280 1.414 . S
C1281 C1282 1.374 . S
C1282 H1256 0.950 . S
C1282 C1278 1.385 . S
C1282 C1281 1.374 . S
C1283 C1280 1.499 . S
C1283 C1284 1.373 1_556 S
C1283 C1285 1.389 . S
C1284 H1257 0.950 . S
C1284 C1270 1.377 . S
C1284 C1283 1.373 1_554 S
C1285 C1269 1.377 . S
C1285 C1283 1.389 . S
C1285 C1286 1.524 . S
C1286 C1285 1.524 . S
C1286 C1287 1.397 . S
C1286 C1291 1.363 . S
C1287 H1258 0.950 . S
C1287 C1286 1.397 . S
C1287 C1288 1.334 . S
C1288 H1259 0.950 . S
C1288 C1287 1.334 . S
C1288 C1289 1.287 . S
C1289 C1288 1.287 . S
C1289 C1290 1.524 . S
C1289 H1292 0.999 . S
C1290 H1260 0.950 . S
C1290 C1289 1.524 . S
C1290 C1291 1.415 . S
C1291 H1261 0.950 . S
C1291 C1286 1.363 . S
C1291 C1290 1.415 . S
H1292 C1289 0.999 . S
H1293 C1274 0.913 . S
H1294 C1312 0.951 . S
H1295 C1314 0.951 . S
H1296 C1316 0.950 . S
H1297 C1317 0.950 . S
H1298 C1319 0.950 . S
H1299 C1322 0.950 . S
H1300 C1323 0.950 . S
H1301 C1325 0.950 . S
H1302 C1326 0.950 . S
H1303 C1327 0.951 . S
H1304 C1329 0.951 . S
H1305 C1331 0.950 . S
H1306 C1332 0.950 . S
H1307 C1334 0.950 . S
H1308 C1337 0.950 . S
H1309 C1338 0.950 . S
H1310 C1340 0.950 . S
H1311 C1341 0.950 . S
C1312 H1294 0.951 . S
C1312 C1313 1.366 . S
C1312 C1314 1.388 . S
C1313 C1312 1.366 . S
C1313 C1317 1.385 . S
C1314 H1295 0.951 . S
C1314 C1312 1.388 . S
C1314 C1315 1.366 . S
C1315 C1314 1.366 . S
C1315 C1316 1.414 . S
C1315 C1318 1.499 . S
C1316 H1296 0.950 . S
C1316 C1315 1.414 . S
C1316 C1317 1.374 . S
C1317 H1297 0.950 . S
C1317 C1313 1.385 . S
C1317 C1316 1.374 . S
C1318 C1315 1.499 . S
C1318 C1319 1.373 . S
C1318 C1320 1.389 . S
C1319 H1298 0.950 . S
C1319 C1318 1.373 . S
C1319 C1335 1.377 . S
C1320 C1318 1.389 . S
C1320 C1321 1.524 . S
C1320 C1334 1.377 . S
C1321 C1320 1.524 . S
C1321 C1322 1.397 . S
C1321 C1326 1.363 . S
C1322 H1299 0.950 . S
C1322 C1321 1.397 . S
C1322 C1323 1.334 . S
C1323 H1300 0.950 . S
C1323 C1322 1.334 . S
C1323 C1324 1.287 . S
C1324 C1323 1.287 . S
C1324 C1325 1.524 . S
C1324 H1343 0.913 . S
C1325 H1301 0.950 . S
C1325 C1324 1.524 . S
C1325 C1326 1.415 . S
C1326 H1302 0.950 . S
C1326 C1321 1.363 . S
C1326 C1325 1.415 . S
C1327 H1303 0.951 . S
C1327 C1328 1.366 . S
C1327 C1329 1.388 . S
C1328 C1327 1.366 . S
C1328 C1332 1.385 . S
C1329 H1304 0.951 . S
C1329 C1327 1.388 . S
C1329 C1330 1.366 . S
C1330 C1329 1.366 . S
C1330 C1331 1.414 . S
C1330 C1333 1.499 . S
C1331 H1305 0.950 . S
C1331 C1330 1.414 . S
C1331 C1332 1.374 . S
C1332 H1306 0.950 . S
C1332 C1328 1.385 . S
C1332 C1331 1.374 . S
C1333 C1330 1.499 . S
C1333 C1334 1.373 . S
C1333 C1335 1.389 . S
C1334 H1307 0.950 . S
C1334 C1320 1.377 . S
C1334 C1333 1.373 . S
C1335 C1319 1.377 . S
C1335 C1333 1.389 . S
C1335 C1336 1.524 . S
C1336 C1335 1.524 . S
C1336 C1337 1.397 . S
C1336 C1341 1.363 . S
C1337 H1308 0.950 . S
C1337 C1336 1.397 . S
C1337 C1338 1.334 . S
C1338 H1309 0.950 . S
C1338 C1337 1.334 . S
C1338 C1339 1.287 . S
C1339 C1338 1.287 . S
C1339 C1340 1.524 . S
C1339 H1342 0.999 . S
C1340 H1310 0.950 . S
C1340 C1339 1.524 . S
C1340 C1341 1.415 . S
C1341 H1311 0.950 . S
C1341 C1336 1.363 . S
C1341 C1340 1.415 . S
H1342 C1339 0.999 . S
H1343 C1324 0.913 . S
H1344 C1362 0.951 . S
H1345 C1364 0.951 . S
H1346 C1366 0.950 . S
H1347 C1367 0.950 . S
H1348 C1369 0.950 . S
H1349 C1372 0.950 . S
H1350 C1373 0.950 . S
H1351 C1375 0.950 . S
H1352 C1376 0.950 . S
H1353 C1377 0.951 . S
H1354 C1379 0.951 . S
H1355 C1381 0.950 . S
H1356 C1382 0.950 . S
H1357 C1384 0.977 . S
H1358 C1387 0.950 . S
H1359 C1388 0.950 . S
H1360 C1390 0.950 . S
H1361 C1391 0.950 . S
C1362 H1344 0.951 . S
C1362 C1363 1.366 . S
C1362 C1364 1.388 . S
C1363 C1362 1.366 . S
C1363 C1367 1.385 . S
C1364 H1345 0.951 . S
C1364 C1362 1.388 . S
C1364 C1365 1.366 . S
C1365 C1364 1.366 . S
C1365 C1366 1.414 . S
C1365 C1368 1.499 . S
C1366 H1346 0.950 . S
C1366 C1365 1.414 . S
C1366 C1367 1.374 . S
C1367 H1347 0.950 . S
C1367 C1363 1.385 . S
C1367 C1366 1.374 . S
C1368 C1365 1.499 . S
C1368 C1369 1.373 . S
C1368 C1370 1.389 . S
C1369 H1348 0.950 . S
C1369 C1368 1.373 . S
C1369 C1385 1.377 . S
C1370 C1368 1.389 . S
C1370 C1371 1.524 1_455 S
C1370 C1384 1.377 . S
C1371 C1370 1.524 1_655 S
C1371 C1372 1.397 . S
C1371 C1376 1.363 . S
C1372 H1349 0.950 . S
C1372 C1371 1.397 . S
C1372 C1373 1.334 . S
C1373 H1350 0.950 . S
C1373 C1372 1.334 . S
C1373 C1374 1.287 . S
C1374 C1373 1.287 . S
C1374 C1375 1.524 . S
C1374 H1393 0.913 . S
C1375 H1351 0.950 . S
C1375 C1374 1.524 . S
C1375 C1376 1.415 . S
C1376 H1352 0.950 . S
C1376 C1371 1.363 . S
C1376 C1375 1.415 . S
C1377 H1353 0.951 . S
C1377 C1378 1.366 . S
C1377 C1379 1.388 . S
C1378 C1377 1.366 . S
C1378 C1382 1.385 . S
C1379 H1354 0.951 . S
C1379 C1377 1.388 . S
C1379 C1380 1.366 . S
C1380 C1379 1.366 . S
C1380 C1381 1.414 . S
C1380 C1383 1.499 . S
C1381 H1355 0.950 . S
C1381 C1380 1.414 . S
C1381 C1382 1.374 . S
C1382 H1356 0.950 . S
C1382 C1378 1.385 . S
C1382 C1381 1.374 . S
C1383 C1380 1.499 . S
C1383 C1384 1.373 . S
C1383 C1385 1.389 . S
C1384 H1357 0.977 . S
C1384 C1370 1.377 . S
C1384 C1383 1.373 . S
C1385 C1369 1.377 . S
C1385 C1383 1.389 . S
C1385 C1386 1.524 . S
C1386 C1385 1.524 . S
C1386 C1387 1.397 . S
C1386 C1391 1.363 . S
C1387 H1358 0.950 . S
C1387 C1386 1.397 . S
C1387 C1388 1.334 . S
C1388 H1359 0.950 . S
C1388 C1387 1.334 . S
C1388 C1389 1.287 . S
C1389 C1388 1.287 . S
C1389 C1390 1.524 . S
C1389 H1392 0.999 . S
C1390 H1360 0.950 . S
C1390 C1389 1.524 . S
C1390 C1391 1.415 . S
C1391 H1361 0.950 . S
C1391 C1386 1.363 . S
C1391 C1390 1.415 . S
H1392 C1389 0.999 . S
H1393 C1374 0.913 . S
H1394 C1412 0.951 . S
H1395 C1414 0.951 . S
H1396 C1416 0.950 . S
H1397 C1417 0.950 . S
H1398 C1419 0.950 . S
H1399 C1422 0.950 . S
H1400 C1423 0.950 . S
H1401 C1425 0.942 1_545 S
H1402 C1426 0.950 . S
H1403 C1427 0.951 . S
H1404 C1429 0.951 . S
H1405 C1431 0.950 . S
H1406 C1432 0.950 . S
H1407 C1434 0.950 . S
H1408 C1437 0.950 . S
H1409 C1438 0.950 . S
H1410 C1440 0.950 . S
H1411 C1441 0.950 . S
C1412 H1394 0.951 . S
C1412 C1413 1.366 . S
C1412 C1414 1.388 . S
C1413 C1412 1.366 . S
C1413 C1417 1.385 . S
C1414 H1395 0.951 . S
C1414 C1412 1.388 . S
C1414 C1415 1.366 . S
C1415 C1414 1.366 . S
C1415 C1416 1.414 . S
C1415 C1418 1.499 . S
C1416 H1396 0.950 . S
C1416 C1415 1.414 . S
C1416 C1417 1.374 . S
C1417 H1397 0.950 . S
C1417 C1413 1.385 . S
C1417 C1416 1.374 . S
C1418 C1415 1.499 . S
C1418 C1419 1.373 . S
C1418 C1420 1.389 . S
C1419 H1398 0.950 . S
C1419 C1418 1.373 . S
C1419 C1435 1.377 . S
C1420 C1418 1.389 . S
C1420 C1421 1.524 . S
C1420 C1434 1.377 . S
C1421 C1420 1.524 . S
C1421 C1422 1.397 1_545 S
C1421 C1426 1.363 . S
C1422 H1399 0.950 . S
C1422 C1421 1.397 1_565 S
C1422 C1423 1.334 . S
C1423 H1400 0.950 . S
C1423 C1422 1.334 . S
C1423 C1424 1.287 . S
C1424 C1423 1.287 . S
C1424 C1425 1.549 . S
C1424 H1443 0.913 . S
C1425 H1401 0.942 1_565 S
C1425 C1424 1.549 . S
C1425 C1426 1.400 1_565 S
C1426 H1402 0.950 . S
C1426 C1421 1.363 . S
C1426 C1425 1.400 1_545 S
C1427 H1403 0.951 . S
C1427 C1428 1.366 . S
C1427 C1429 1.388 . S
C1428 C1427 1.366 . S
C1428 C1432 1.385 . S
C1429 H1404 0.951 . S
C1429 C1427 1.388 . S
C1429 C1430 1.366 . S
C1430 C1429 1.366 . S
C1430 C1431 1.414 . S
C1430 C1433 1.499 . S
C1431 H1405 0.950 . S
C1431 C1430 1.414 . S
C1431 C1432 1.374 . S
C1432 H1406 0.950 . S
C1432 C1428 1.385 . S
C1432 C1431 1.374 . S
C1433 C1430 1.499 . S
C1433 C1434 1.373 . S
C1433 C1435 1.389 . S
C1434 H1407 0.950 . S
C1434 C1420 1.377 . S
C1434 C1433 1.373 . S
C1435 C1419 1.377 . S
C1435 C1433 1.389 . S
C1435 C1436 1.524 . S
C1436 C1435 1.524 . S
C1436 C1437 1.397 . S
C1436 C1441 1.363 . S
C1437 H1408 0.950 . S
C1437 C1436 1.397 . S
C1437 C1438 1.334 . S
C1438 H1409 0.950 . S
C1438 C1437 1.334 . S
C1438 C1439 1.287 . S
C1439 C1438 1.287 . S
C1439 C1440 1.524 . S
C1439 H1442 0.999 . S
C1440 H1410 0.950 . S
C1440 C1439 1.524 . S
C1440 C1441 1.415 . S
C1441 H1411 0.950 . S
C1441 C1436 1.363 . S
C1441 C1440 1.415 . S
H1442 C1439 0.999 . S
H1443 C1424 0.913 . S
H1444 C1462 0.951 . S
H1445 C1464 0.951 . S
H1446 C1466 0.950 . S
H1447 C1467 0.950 . S
H1448 C1469 0.950 . S
H1449 C1472 0.950 . S
H1450 C1473 0.950 . S
H1451 C1475 0.950 . S
H1452 C1476 0.950 . S
H1453 C1477 0.951 . S
H1454 C1479 0.951 . S
H1455 C1481 0.950 . S
H1456 C1482 0.950 . S
H1457 C1484 0.950 . S
H1458 C1487 0.950 . S
H1459 C1488 0.950 . S
H1460 C1490 0.950 1_556 S
H1461 C1491 0.950 . S
C1462 H1444 0.951 . S
C1462 C1463 1.366 . S
C1462 C1464 1.388 . S
C1463 C1462 1.366 . S
C1463 C1467 1.385 . S
C1464 H1445 0.951 . S
C1464 C1462 1.388 . S
C1464 C1465 1.366 . S
C1465 C1464 1.366 . S
C1465 C1466 1.414 . S
C1465 C1468 1.499 . S
C1466 H1446 0.950 . S
C1466 C1465 1.414 . S
C1466 C1467 1.374 . S
C1467 H1447 0.950 . S
C1467 C1463 1.385 . S
C1467 C1466 1.374 . S
C1468 C1465 1.499 . S
C1468 C1469 1.373 . S
C1468 C1470 1.389 . S
C1469 H1448 0.950 . S
C1469 C1468 1.373 . S
C1469 C1485 1.377 . S
C1470 C1468 1.389 . S
C1470 C1471 1.524 . S
C1470 C1484 1.377 . S
C1471 C1470 1.524 . S
C1471 C1472 1.397 . S
C1471 C1476 1.363 . S
C1472 H1449 0.950 . S
C1472 C1471 1.397 . S
C1472 C1473 1.334 . S
C1473 H1450 0.950 . S
C1473 C1472 1.334 . S
C1473 C1474 1.287 . S
C1474 C1473 1.287 . S
C1474 C1475 1.524 . S
C1474 H1493 0.913 . S
C1475 H1451 0.950 . S
C1475 C1474 1.524 . S
C1475 C1476 1.415 . S
C1476 H1452 0.950 . S
C1476 C1471 1.363 . S
C1476 C1475 1.415 . S
C1477 H1453 0.951 . S
C1477 C1478 1.366 . S
C1477 C1479 1.388 . S
C1478 C1477 1.366 . S
C1478 C1482 1.385 . S
C1479 H1454 0.951 . S
C1479 C1477 1.388 . S
C1479 C1480 1.366 . S
C1480 C1479 1.366 . S
C1480 C1481 1.414 . S
C1480 C1483 1.499 . S
C1481 H1455 0.950 . S
C1481 C1480 1.414 . S
C1481 C1482 1.374 . S
C1482 H1456 0.950 . S
C1482 C1478 1.385 . S
C1482 C1481 1.374 . S
C1483 C1480 1.499 . S
C1483 C1484 1.373 . S
C1483 C1485 1.389 . S
C1484 H1457 0.950 . S
C1484 C1470 1.377 . S
C1484 C1483 1.373 . S
C1485 C1469 1.377 . S
C1485 C1483 1.389 . S
C1485 C1486 1.524 . S
C1486 C1485 1.524 . S
C1486 C1487 1.397 . S
C1486 C1491 1.363 . S
C1487 H1458 0.950 . S
C1487 C1486 1.397 . S
C1487 C1488 1.334 . S
C1488 H1459 0.950 . S
C1488 C1487 1.334 . S
C1488 C1489 1.287 . S
C1489 C1488 1.287 . S
C1489 C1490 1.524 . S
C1489 H1492 0.999 1_554 S
C1490 H1460 0.950 1_554 S
C1490 C1489 1.524 . S
C1490 C1491 1.415 . S
C1491 H1461 0.950 . S
C1491 C1486 1.363 . S
C1491 C1490 1.415 . S
H1492 C1489 0.999 1_556 S
H1493 C1474 0.913 . S
H1494 C1512 0.951 . S
H1495 C1514 0.951 . S
H1496 C1516 0.950 . S
H1497 C1517 0.950 . S
H1498 C1519 0.950 . S
H1499 C1522 0.950 . S
H1500 C1523 0.950 . S
H1501 C1525 0.950 . S
H1502 C1526 0.950 . S
H1503 C1527 0.951 . S
H1504 C1529 0.951 . S
H1505 C1531 0.950 . S
H1506 C1532 0.950 . S
H1507 C1534 0.950 . S
H1508 C1537 0.950 . S
H1509 C1538 0.950 . S
H1510 C1540 0.950 . S
H1511 C1541 0.950 . S
C1512 H1494 0.951 . S
C1512 C1513 1.366 . S
C1512 C1514 1.388 . S
C1513 C1512 1.366 . S
C1513 C1517 1.385 . S
C1514 H1495 0.951 . S
C1514 C1512 1.388 . S
C1514 C1515 1.366 . S
C1515 C1514 1.366 . S
C1515 C1516 1.414 . S
C1515 C1518 1.499 . S
C1516 H1496 0.950 . S
C1516 C1515 1.414 . S
C1516 C1517 1.374 . S
C1517 H1497 0.950 . S
C1517 C1513 1.385 . S
C1517 C1516 1.374 . S
C1518 C1515 1.499 . S
C1518 C1519 1.373 . S
C1518 C1520 1.389 . S
C1519 H1498 0.950 . S
C1519 C1518 1.373 . S
C1519 C1535 1.377 . S
C1520 C1518 1.389 . S
C1520 C1521 1.524 . S
C1520 C1534 1.377 . S
C1521 C1520 1.524 . S
C1521 C1522 1.397 . S
C1521 C1526 1.363 . S
C1522 H1499 0.950 . S
C1522 C1521 1.397 . S
C1522 C1523 1.334 . S
C1523 H1500 0.950 . S
C1523 C1522 1.334 . S
C1523 C1524 1.287 . S
C1524 C1523 1.287 . S
C1524 C1525 1.524 . S
C1524 H1543 0.913 . S
C1525 H1501 0.950 . S
C1525 C1524 1.524 . S
C1525 C1526 1.415 . S
C1526 H1502 0.950 . S
C1526 C1521 1.363 . S
C1526 C1525 1.415 . S
C1527 H1503 0.951 . S
C1527 C1528 1.366 . S
C1527 C1529 1.388 . S
C1528 C1527 1.366 . S
C1528 C1532 1.385 . S
C1529 H1504 0.951 . S
C1529 C1527 1.388 . S
C1529 C1530 1.366 . S
C1530 C1529 1.366 . S
C1530 C1531 1.414 . S
C1530 C1533 1.499 . S
C1531 H1505 0.950 . S
C1531 C1530 1.414 . S
C1531 C1532 1.374 . S
C1532 H1506 0.950 . S
C1532 C1528 1.385 . S
C1532 C1531 1.374 . S
C1533 C1530 1.499 . S
C1533 C1534 1.373 . S
C1533 C1535 1.389 . S
C1534 H1507 0.950 . S
C1534 C1520 1.377 . S
C1534 C1533 1.373 . S
C1535 C1519 1.377 . S
C1535 C1533 1.389 . S
C1535 C1536 1.524 . S
C1536 C1535 1.524 . S
C1536 C1537 1.397 . S
C1536 C1541 1.363 . S
C1537 H1508 0.950 . S
C1537 C1536 1.397 . S
C1537 C1538 1.334 . S
C1538 H1509 0.950 . S
C1538 C1537 1.334 . S
C1538 C1539 1.287 . S
C1539 C1538 1.287 . S
C1539 C1540 1.524 . S
C1539 H1542 0.999 . S
C1540 H1510 0.950 . S
C1540 C1539 1.524 . S
C1540 C1541 1.415 . S
C1541 H1511 0.950 . S
C1541 C1536 1.363 . S
C1541 C1540 1.415 . S
H1542 C1539 0.999 . S
H1543 C1524 0.913 . S
H1544 C1562 0.951 . S
H1545 C1564 0.951 . S
H1546 C1566 0.950 . S
H1547 C1567 0.950 . S
H1548 C1569 0.950 . S
H1549 C1572 0.950 . S
H1550 C1573 0.950 . S
H1551 C1575 0.950 . S
H1552 C1576 0.950 . S
H1553 C1577 0.951 . S
H1554 C1579 0.951 . S
H1555 C1581 0.950 . S
H1556 C1582 0.950 . S
H1557 C1584 0.950 . S
H1558 C1587 0.950 . S
H1559 C1588 0.950 . S
H1560 C1590 0.950 . S
H1561 C1591 0.950 1_655 S
C1562 H1544 0.951 . S
C1562 C1563 1.366 . S
C1562 C1564 1.388 . S
C1563 C1562 1.366 . S
C1563 C1567 1.385 . S
C1564 H1545 0.951 . S
C1564 C1562 1.388 . S
C1564 C1565 1.366 . S
C1565 C1564 1.366 . S
C1565 C1566 1.414 . S
C1565 C1568 1.499 . S
C1566 H1546 0.950 . S
C1566 C1565 1.414 . S
C1566 C1567 1.374 . S
C1567 H1547 0.950 . S
C1567 C1563 1.385 . S
C1567 C1566 1.374 . S
C1568 C1565 1.499 . S
C1568 C1569 1.373 . S
C1568 C1570 1.389 . S
C1569 H1548 0.950 . S
C1569 C1568 1.373 . S
C1569 C1585 1.377 . S
C1570 C1568 1.389 . S
C1570 C1571 1.524 . S
C1570 C1584 1.377 . S
C1571 C1570 1.524 . S
C1571 C1572 1.397 . S
C1571 C1576 1.363 . S
C1572 H1549 0.950 . S
C1572 C1571 1.397 . S
C1572 C1573 1.334 . S
C1573 H1550 0.950 . S
C1573 C1572 1.334 . S
C1573 C1574 1.287 . S
C1574 C1573 1.287 . S
C1574 C1575 1.524 . S
C1574 H1593 0.913 . S
C1575 H1551 0.950 . S
C1575 C1574 1.524 . S
C1575 C1576 1.415 . S
C1576 H1552 0.950 . S
C1576 C1571 1.363 . S
C1576 C1575 1.415 . S
C1577 H1553 0.951 . S
C1577 C1578 1.366 . S
C1577 C1579 1.388 . S
C1578 C1577 1.366 . S
C1578 C1582 1.385 . S
C1579 H1554 0.951 . S
C1579 C1577 1.388 . S
C1579 C1580 1.366 . S
C1580 C1579 1.366 . S
C1580 C1581 1.414 . S
C1580 C1583 1.499 . S
C1581 H1555 0.950 . S
C1581 C1580 1.414 . S
C1581 C1582 1.374 . S
C1582 H1556 0.950 . S
C1582 C1578 1.385 . S
C1582 C1581 1.374 . S
C1583 C1580 1.499 . S
C1583 C1584 1.373 . S
C1583 C1585 1.389 . S
C1584 H1557 0.950 . S
C1584 C1570 1.377 . S
C1584 C1583 1.373 . S
C1585 C1569 1.377 . S
C1585 C1583 1.389 . S
C1585 C1586 1.524 1_655 S
C1586 C1585 1.524 1_455 S
C1586 C1587 1.397 . S
C1586 C1591 1.363 . S
C1587 H1558 0.950 . S
C1587 C1586 1.397 . S
C1587 C1588 1.334 . S
C1588 H1559 0.950 . S
C1588 C1587 1.334 . S
C1588 C1589 1.287 . S
C1589 C1588 1.287 . S
C1589 C1590 1.524 . S
C1589 H1592 0.999 . S
C1590 H1560 0.950 . S
C1590 C1589 1.524 . S
C1590 C1591 1.415 . S
C1591 H1561 0.950 1_455 S
C1591 C1586 1.363 . S
C1591 C1590 1.415 . S
H1592 C1589 0.999 . S
H1593 C1574 0.913 . S
H1594 C1612 0.951 . S
H1595 C1614 0.951 . S
H1596 C1616 0.950 . S
H1597 C1617 0.950 . S
H1598 C1619 0.950 . S
H1599 C1622 0.950 . S
H1600 C1623 0.950 . S
H1601 C1625 0.950 . S
H1602 C1626 0.950 . S
H1603 C1627 0.951 . S
H1604 C1629 0.951 . S
H1605 C1631 0.950 . S
H1606 C1632 0.950 . S
H1607 C1634 0.950 . S
H1608 C1637 0.950 . S
H1609 C1638 0.950 . S
H1610 C1640 0.950 . S
H1611 C1641 0.950 1_565 S
C1612 H1594 0.951 . S
C1612 C1613 1.366 . S
C1612 C1614 1.388 . S
C1613 C1612 1.366 . S
C1613 C1617 1.385 . S
C1614 H1595 0.951 . S
C1614 C1612 1.388 . S
C1614 C1615 1.366 . S
C1615 C1614 1.366 . S
C1615 C1616 1.414 . S
C1615 C1618 1.499 . S
C1616 H1596 0.950 . S
C1616 C1615 1.414 . S
C1616 C1617 1.374 . S
C1617 H1597 0.950 . S
C1617 C1613 1.385 . S
C1617 C1616 1.374 . S
C1618 C1615 1.499 . S
C1618 C1619 1.373 . S
C1618 C1620 1.389 . S
C1619 H1598 0.950 . S
C1619 C1618 1.373 . S
C1619 C1635 1.377 . S
C1620 C1618 1.389 . S
C1620 C1621 1.524 . S
C1620 C1634 1.377 . S
C1621 C1620 1.524 . S
C1621 C1622 1.397 . S
C1621 C1626 1.363 . S
C1622 H1599 0.950 . S
C1622 C1621 1.397 . S
C1622 C1623 1.334 . S
C1623 H1600 0.950 . S
C1623 C1622 1.334 . S
C1623 C1624 1.287 . S
C1624 C1623 1.287 . S
C1624 C1625 1.524 . S
C1624 H1643 0.913 . S
C1625 H1601 0.950 . S
C1625 C1624 1.524 . S
C1625 C1626 1.415 . S
C1626 H1602 0.950 . S
C1626 C1621 1.363 . S
C1626 C1625 1.415 . S
C1627 H1603 0.951 . S
C1627 C1628 1.366 . S
C1627 C1629 1.388 . S
C1628 C1627 1.366 . S
C1628 C1632 1.385 . S
C1629 H1604 0.951 . S
C1629 C1627 1.388 . S
C1629 C1630 1.366 . S
C1630 C1629 1.366 . S
C1630 C1631 1.414 . S
C1630 C1633 1.499 . S
C1631 H1605 0.950 . S
C1631 C1630 1.414 . S
C1631 C1632 1.374 . S
C1632 H1606 0.950 . S
C1632 C1628 1.385 . S
C1632 C1631 1.374 . S
C1633 C1630 1.499 . S
C1633 C1634 1.373 . S
C1633 C1635 1.389 . S
C1634 H1607 0.950 . S
C1634 C1620 1.377 . S
C1634 C1633 1.373 . S
C1635 C1619 1.377 . S
C1635 C1633 1.389 . S
C1635 C1636 1.524 1_565 S
C1636 C1635 1.524 1_545 S
C1636 C1637 1.397 . S
C1636 C1641 1.363 . S
C1637 H1608 0.950 . S
C1637 C1636 1.397 . S
C1637 C1638 1.334 . S
C1638 H1609 0.950 . S
C1638 C1637 1.334 . S
C1638 C1639 1.287 . S
C1639 C1638 1.287 . S
C1639 C1640 1.524 . S
C1639 H1642 0.999 . S
C1640 H1610 0.950 . S
C1640 C1639 1.524 . S
C1640 C1641 1.415 . S
C1641 H1611 0.950 1_545 S
C1641 C1636 1.363 . S
C1641 C1640 1.415 . S
H1642 C1639 0.999 . S
H1643 C1624 0.913 . S
H1644 C1662 0.951 . S
H1645 C1664 0.951 . S
H1646 C1666 0.950 . S
H1647 C1667 0.950 . S
H1648 C1669 0.950 . S
H1649 C1672 0.950 . S
H1650 C1673 0.950 . S
H1651 C1675 0.950 . S
H1652 C1676 0.950 . S
H1653 C1677 0.951 . S
H1654 C1679 0.951 . S
H1655 C1681 0.950 . S
H1656 C1682 0.950 . S
H1657 C1684 0.950 . S
H1658 C1687 0.950 . S
H1659 C1688 0.950 . S
H1660 C1690 0.950 . S
H1661 C1691 0.950 . S
C1662 H1644 0.951 . S
C1662 C1663 1.366 . S
C1662 C1664 1.388 . S
C1663 C1662 1.366 . S
C1663 C1667 1.385 . S
C1664 H1645 0.951 . S
C1664 C1662 1.388 . S
C1664 C1665 1.366 . S
C1665 C1664 1.366 . S
C1665 C1666 1.414 . S
C1665 C1668 1.499 . S
C1666 H1646 0.950 . S
C1666 C1665 1.414 . S
C1666 C1667 1.374 . S
C1667 H1647 0.950 . S
C1667 C1663 1.385 . S
C1667 C1666 1.374 . S
C1668 C1665 1.499 . S
C1668 C1669 1.373 . S
C1668 C1670 1.389 . S
C1669 H1648 0.950 . S
C1669 C1668 1.373 . S
C1669 C1685 1.377 . S
C1670 C1668 1.389 . S
C1670 C1671 1.524 . S
C1670 C1684 1.377 . S
C1671 C1670 1.524 . S
C1671 C1672 1.397 . S
C1671 C1676 1.363 . S
C1672 H1649 0.950 . S
C1672 C1671 1.397 . S
C1672 C1673 1.334 . S
C1673 H1650 0.950 . S
C1673 C1672 1.334 . S
C1673 C1674 1.287 . S
C1674 C1673 1.287 . S
C1674 C1675 1.524 . S
C1674 H1693 0.913 . S
C1675 H1651 0.950 . S
C1675 C1674 1.524 . S
C1675 C1676 1.415 . S
C1676 H1652 0.950 . S
C1676 C1671 1.363 . S
C1676 C1675 1.415 . S
C1677 H1653 0.951 . S
C1677 C1678 1.366 . S
C1677 C1679 1.388 . S
C1678 C1677 1.366 . S
C1678 C1682 1.385 . S
C1679 H1654 0.951 . S
C1679 C1677 1.388 . S
C1679 C1680 1.366 . S
C1680 C1679 1.366 . S
C1680 C1681 1.414 . S
C1680 C1683 1.499 . S
C1681 H1655 0.950 . S
C1681 C1680 1.414 . S
C1681 C1682 1.374 . S
C1682 H1656 0.950 . S
C1682 C1678 1.385 . S
C1682 C1681 1.374 . S
C1683 C1680 1.499 . S
C1683 C1684 1.373 . S
C1683 C1685 1.389 . S
C1684 H1657 0.950 . S
C1684 C1670 1.377 . S
C1684 C1683 1.373 . S
C1685 C1669 1.377 . S
C1685 C1683 1.389 . S
C1685 C1686 1.524 . S
C1686 C1685 1.524 . S
C1686 C1687 1.397 . S
C1686 C1691 1.363 . S
C1687 H1658 0.950 . S
C1687 C1686 1.397 . S
C1687 C1688 1.334 . S
C1688 H1659 0.950 . S
C1688 C1687 1.334 . S
C1688 C1689 1.287 . S
C1689 C1688 1.287 . S
C1689 C1690 1.524 . S
C1689 H1692 0.999 . S
C1690 H1660 0.950 . S
C1690 C1689 1.524 . S
C1690 C1691 1.415 . S
C1691 H1661 0.950 . S
C1691 C1686 1.363 . S
C1691 C1690 1.415 . S
H1692 C1689 0.999 . S
H1693 C1674 0.913 . S
H1694 C1712 0.951 . S
H1695 C1714 0.951 . S
H1696 C1716 0.950 . S
H1697 C1717 0.950 . S
H1698 C1719 0.950 . S
H1699 C1722 0.950 . S
H1700 C1723 0.950 . S
H1701 C1725 0.951 1_556 S
H1702 C1726 0.950 . S
H1703 C1727 0.951 . S
H1704 C1729 0.951 . S
H1705 C1731 0.950 . S
H1706 C1732 0.950 . S
H1707 C1734 0.950 . S
H1708 C1737 0.950 . S
H1709 C1738 0.950 . S
H1710 C1740 0.950 . S
H1711 C1741 0.950 . S
C1712 H1694 0.951 . S
C1712 C1713 1.366 . S
C1712 C1714 1.388 . S
C1713 C1712 1.366 . S
C1713 C1717 1.385 . S
C1714 H1695 0.951 . S
C1714 C1712 1.388 . S
C1714 C1715 1.366 . S
C1715 C1714 1.366 . S
C1715 C1716 1.414 . S
C1715 C1718 1.499 . S
C1716 H1696 0.950 . S
C1716 C1715 1.414 . S
C1716 C1717 1.374 . S
C1717 H1697 0.950 . S
C1717 C1713 1.385 . S
C1717 C1716 1.374 . S
C1718 C1715 1.499 . S
C1718 C1719 1.373 . S
C1718 C1720 1.389 . S
C1719 H1698 0.950 . S
C1719 C1718 1.373 . S
C1719 C1735 1.377 . S
C1720 C1718 1.389 . S
C1720 C1721 1.524 . S
C1720 C1734 1.377 . S
C1721 C1720 1.524 . S
C1721 C1722 1.397 . S
C1721 C1726 1.363 . S
C1722 H1699 0.950 . S
C1722 C1721 1.397 . S
C1722 C1723 1.334 . S
C1723 H1700 0.950 . S
C1723 C1722 1.334 . S
C1723 C1724 1.287 . S
C1724 C1723 1.287 . S
C1724 C1725 1.524 . S
C1724 H1743 0.913 . S
C1725 H1701 0.951 1_554 S
C1725 C1724 1.524 . S
C1725 C1726 1.415 . S
C1726 H1702 0.950 . S
C1726 C1721 1.363 . S
C1726 C1725 1.415 . S
C1727 H1703 0.951 . S
C1727 C1728 1.366 . S
C1727 C1729 1.388 . S
C1728 C1727 1.366 . S
C1728 C1732 1.385 . S
C1729 H1704 0.951 . S
C1729 C1727 1.388 . S
C1729 C1730 1.366 . S
C1730 C1729 1.366 . S
C1730 C1731 1.414 . S
C1730 C1733 1.499 . S
C1731 H1705 0.950 . S
C1731 C1730 1.414 . S
C1731 C1732 1.374 . S
C1732 H1706 0.950 . S
C1732 C1728 1.385 . S
C1732 C1731 1.374 . S
C1733 C1730 1.499 . S
C1733 C1734 1.373 . S
C1733 C1735 1.389 . S
C1734 H1707 0.950 . S
C1734 C1720 1.377 . S
C1734 C1733 1.373 . S
C1735 C1719 1.377 . S
C1735 C1733 1.389 . S
C1735 C1736 1.524 . S
C1736 C1735 1.524 . S
C1736 C1737 1.397 . S
C1736 C1741 1.363 . S
C1737 H1708 0.950 . S
C1737 C1736 1.397 . S
C1737 C1738 1.334 . S
C1738 H1709 0.950 . S
C1738 C1737 1.334 . S
C1738 C1739 1.287 . S
C1739 C1738 1.287 . S
C1739 C1740 1.524 . S
C1739 H1742 0.999 . S
C1740 H1710 0.950 . S
C1740 C1739 1.524 . S
C1740 C1741 1.415 . S
C1741 H1711 0.950 . S
C1741 C1736 1.363 . S
C1741 C1740 1.415 . S
H1742 C1739 0.999 . S
H1743 C1724 0.913 . S
H1744 C1762 0.951 . S
H1745 C1764 0.951 . S
H1746 C1766 0.950 . S
H1747 C1767 0.950 . S
H1748 C1769 0.950 . S
H1749 C1772 0.950 . S
H1750 C1773 0.950 . S
H1751 C1775 0.950 . S
H1752 C1776 0.950 . S
H1753 C1777 0.951 . S
H1754 C1779 0.951 . S
H1755 C1781 0.950 . S
H1756 C1782 0.950 . S
H1757 C1784 0.950 . S
H1758 C1787 0.950 . S
H1759 C1788 0.950 . S
H1760 C1790 0.950 . S
H1761 C1791 0.950 . S
C1762 H1744 0.951 . S
C1762 C1763 1.366 1_455 S
C1762 C1764 1.388 . S
C1763 C1762 1.366 1_655 S
C1763 C1767 1.385 . S
C1764 H1745 0.951 . S
C1764 C1762 1.388 . S
C1764 C1765 1.388 . S
C1765 C1764 1.388 . S
C1765 C1766 1.388 1_455 S
C1765 C1768 1.502 . S
C1766 H1746 0.950 . S
C1766 C1765 1.388 1_655 S
C1766 C1767 1.374 . S
C1767 H1747 0.950 . S
C1767 C1763 1.385 . S
C1767 C1766 1.374 . S
C1768 C1765 1.502 . S
C1768 C1769 1.373 1_455 S
C1768 C1770 1.389 . S
C1769 H1748 0.950 . S
C1769 C1768 1.373 1_655 S
C1769 C1785 1.377 . S
C1770 C1768 1.389 . S
C1770 C1771 1.524 . S
C1770 C1784 1.377 . S
C1771 C1770 1.524 . S
C1771 C1772 1.397 . S
C1771 C1776 1.363 . S
C1772 H1749 0.950 . S
C1772 C1771 1.397 . S
C1772 C1773 1.334 . S
C1773 H1750 0.950 . S
C1773 C1772 1.334 . S
C1773 C1774 1.287 . S
C1774 C1773 1.287 . S
C1774 C1775 1.524 . S
C1774 H1793 0.913 . S
C1775 H1751 0.950 . S
C1775 C1774 1.524 . S
C1775 C1776 1.415 . S
C1776 H1752 0.950 . S
C1776 C1771 1.363 . S
C1776 C1775 1.415 . S
C1777 H1753 0.951 . S
C1777 C1778 1.366 1_655 S
C1777 C1779 1.388 . S
C1778 C1777 1.366 1_455 S
C1778 C1782 1.385 . S
C1779 H1754 0.951 . S
C1779 C1777 1.388 . S
C1779 C1780 1.366 1_655 S
C1780 C1779 1.366 1_455 S
C1780 C1781 1.414 . S
C1780 C1783 1.499 . S
C1781 H1755 0.950 . S
C1781 C1780 1.414 . S
C1781 C1782 1.374 . S
C1782 H1756 0.950 . S
C1782 C1778 1.385 . S
C1782 C1781 1.374 . S
C1783 C1780 1.499 . S
C1783 C1784 1.373 . S
C1783 C1785 1.389 1_455 S
C1784 H1757 0.950 . S
C1784 C1770 1.377 . S
C1784 C1783 1.373 . S
C1785 C1769 1.377 . S
C1785 C1783 1.389 1_655 S
C1785 C1786 1.524 . S
C1786 C1785 1.524 . S
C1786 C1787 1.397 . S
C1786 C1791 1.363 . S
C1787 H1758 0.950 . S
C1787 C1786 1.397 . S
C1787 C1788 1.334 . S
C1788 H1759 0.950 . S
C1788 C1787 1.334 . S
C1788 C1789 1.287 . S
C1789 C1788 1.287 . S
C1789 C1790 1.524 . S
C1789 H1792 0.999 . S
C1790 H1760 0.950 . S
C1790 C1789 1.524 . S
C1790 C1791 1.415 . S
C1791 H1761 0.950 . S
C1791 C1786 1.363 . S
C1791 C1790 1.415 . S
H1792 C1789 0.999 . S
H1793 C1774 0.913 . S
H1794 C1812 0.951 . S
H1795 C1814 0.951 . S
H1796 C1816 0.950 . S
H1797 C1817 0.950 . S
H1798 C1819 0.950 . S
H1799 C1822 0.950 1_565 S
H1800 C1823 0.950 . S
H1801 C1825 0.950 . S
H1802 C1826 0.950 . S
H1803 C1827 0.951 . S
H1804 C1829 0.951 . S
H1805 C1831 0.950 . S
H1806 C1832 0.950 . S
H1807 C1834 0.950 . S
H1808 C1837 0.950 1_545 S
H1809 C1838 0.950 . S
H1810 C1840 0.950 . S
H1811 C1841 0.950 . S
C1812 H1794 0.951 . S
C1812 C1813 1.366 . S
C1812 C1814 1.388 1_556 S
C1813 C1812 1.366 . S
C1813 C1817 1.385 1_545 S
C1814 H1795 0.951 . S
C1814 C1812 1.388 1_554 S
C1814 C1815 1.366 . S
C1815 C1814 1.366 . S
C1815 C1816 1.414 1_545 S
C1815 C1818 1.499 . S
C1816 H1796 0.950 . S
C1816 C1815 1.414 1_565 S
C1816 C1817 1.374 1_554 S
C1817 H1797 0.950 . S
C1817 C1813 1.385 1_565 S
C1817 C1816 1.374 1_556 S
C1818 C1815 1.499 . S
C1818 C1819 1.373 1_545 S
C1818 C1820 1.389 . S
C1819 H1798 0.950 . S
C1819 C1818 1.373 1_565 S
C1819 C1835 1.377 . S
C1820 C1818 1.389 . S
C1820 C1821 1.524 . S
C1820 C1834 1.377 . S
C1821 C1820 1.524 . S
C1821 C1822 1.397 . S
C1821 C1826 1.363 . S
C1822 H1799 0.950 1_545 S
C1822 C1821 1.397 . S
C1822 C1823 1.334 . S
C1823 H1800 0.950 . S
C1823 C1822 1.334 . S
C1823 C1824 1.287 . S
C1824 C1823 1.287 . S
C1824 C1825 1.524 . S
C1824 H1843 0.913 . S
C1825 H1801 0.950 . S
C1825 C1824 1.524 . S
C1825 C1826 1.415 . S
C1826 H1802 0.950 . S
C1826 C1821 1.363 . S
C1826 C1825 1.415 . S
C1827 H1803 0.951 . S
C1827 C1828 1.366 . S
C1827 C1829 1.388 . S
C1828 C1827 1.366 . S
C1828 C1832 1.385 1_565 S
C1829 H1804 0.951 . S
C1829 C1827 1.388 . S
C1829 C1830 1.358 1_565 S
C1830 C1829 1.358 1_545 S
C1830 C1831 1.420 . S
C1830 C1833 1.499 . S
C1831 H1805 0.950 . S
C1831 C1830 1.420 . S
C1831 C1832 1.374 . S
C1832 H1806 0.950 . S
C1832 C1828 1.385 1_545 S
C1832 C1831 1.374 . S
C1833 C1830 1.499 . S
C1833 C1834 1.373 . S
C1833 C1835 1.389 1_545 S
C1834 H1807 0.950 . S
C1834 C1820 1.377 . S
C1834 C1833 1.373 . S
C1835 C1819 1.377 . S
C1835 C1833 1.389 1_565 S
C1835 C1836 1.524 . S
C1836 C1835 1.524 . S
C1836 C1837 1.397 . S
C1836 C1841 1.363 . S
C1837 H1808 0.950 1_565 S
C1837 C1836 1.397 . S
C1837 C1838 1.334 . S
C1838 H1809 0.950 . S
C1838 C1837 1.334 . S
C1838 C1839 1.287 . S
C1839 C1838 1.287 . S
C1839 C1840 1.524 . S
C1839 H1842 0.999 . S
C1840 H1810 0.950 . S
C1840 C1839 1.524 . S
C1840 C1841 1.415 . S
C1841 H1811 0.950 . S
C1841 C1836 1.363 . S
C1841 C1840 1.415 . S
H1842 C1839 0.999 . S
H1843 C1824 0.913 . S
H1844 C1862 0.951 . S
H1845 C1864 0.951 . S
H1846 C1866 0.950 . S
H1847 C1867 0.950 . S
H1848 C1869 0.950 . S
H1849 C1872 0.950 . S
H1850 C1873 0.950 . S
H1851 C1875 0.950 . S
H1852 C1876 0.950 . S
H1853 C1877 0.951 . S
H1854 C1879 0.951 . S
H1855 C1881 0.950 . S
H1856 C1882 0.950 . S
H1857 C1884 0.950 . S
H1858 C1887 0.950 . S
H1859 C1888 0.950 . S
H1860 C1890 0.950 . S
H1861 C1891 0.950 . S
C1862 H1844 0.951 . S
C1862 C1863 1.366 . S
C1862 C1864 1.388 . S
C1863 C1862 1.366 . S
C1863 C1867 1.385 . S
C1864 H1845 0.951 . S
C1864 C1862 1.388 . S
C1864 C1865 1.366 . S
C1865 C1864 1.366 . S
C1865 C1866 1.414 . S
C1865 C1868 1.499 . S
C1866 H1846 0.950 . S
C1866 C1865 1.414 . S
C1866 C1867 1.374 . S
C1867 H1847 0.950 . S
C1867 C1863 1.385 . S
C1867 C1866 1.374 . S
C1868 C1865 1.499 . S
C1868 C1869 1.373 . S
C1868 C1870 1.389 . S
C1869 H1848 0.950 . S
C1869 C1868 1.373 . S
C1869 C1885 1.377 . S
C1870 C1868 1.389 . S
C1870 C1871 1.524 . S
C1870 C1884 1.377 . S
C1871 C1870 1.524 . S
C1871 C1872 1.397 . S
C1871 C1876 1.363 . S
C1872 H1849 0.950 . S
C1872 C1871 1.397 . S
C1872 C1873 1.334 . S
C1873 H1850 0.950 . S
C1873 C1872 1.334 . S
C1873 C1874 1.287 . S
C1874 C1873 1.287 . S
C1874 C1875 1.524 . S
C1874 H1893 0.913 . S
C1875 H1851 0.950 . S
C1875 C1874 1.524 . S
C1875 C1876 1.415 . S
C1876 H1852 0.950 . S
C1876 C1871 1.363 . S
C1876 C1875 1.415 . S
C1877 H1853 0.951 . S
C1877 C1878 1.366 . S
C1877 C1879 1.388 . S
C1878 C1877 1.366 . S
C1878 C1882 1.385 . S
C1879 H1854 0.951 . S
C1879 C1877 1.388 . S
C1879 C1880 1.366 . S
C1880 C1879 1.366 . S
C1880 C1881 1.414 . S
C1880 C1883 1.499 . S
C1881 H1855 0.950 . S
C1881 C1880 1.414 . S
C1881 C1882 1.374 . S
C1882 H1856 0.950 . S
C1882 C1878 1.385 . S
C1882 C1881 1.374 . S
C1883 C1880 1.499 . S
C1883 C1884 1.373 . S
C1883 C1885 1.389 . S
C1884 H1857 0.950 . S
C1884 C1870 1.377 . S
C1884 C1883 1.373 . S
C1885 C1869 1.377 . S
C1885 C1883 1.389 . S
C1885 C1886 1.524 . S
C1886 C1885 1.524 . S
C1886 C1887 1.397 . S
C1886 C1891 1.363 . S
C1887 H1858 0.950 . S
C1887 C1886 1.397 . S
C1887 C1888 1.334 . S
C1888 H1859 0.950 . S
C1888 C1887 1.334 . S
C1888 C1889 1.287 . S
C1889 C1888 1.287 . S
C1889 C1890 1.524 . S
C1889 H1892 0.999 . S
C1890 H1860 0.950 . S
C1890 C1889 1.524 . S
C1890 C1891 1.415 . S
C1891 H1861 0.950 . S
C1891 C1886 1.363 . S
C1891 C1890 1.415 . S
H1892 C1889 0.999 . S
H1893 C1874 0.913 . S
H1894 C1912 0.951 . S
H1895 C1914 0.951 . S
H1896 C1916 0.950 . S
H1897 C1917 0.950 . S
H1898 C1919 0.950 . S
H1899 C1922 0.950 . S
H1900 C1923 0.950 . S
H1901 C1925 0.950 . S
H1902 C1926 0.950 . S
H1903 C1927 0.951 . S
H1904 C1929 0.951 . S
H1905 C1931 0.950 . S
H1906 C1932 0.950 . S
H1907 C1934 0.950 . S
H1908 C1937 0.950 . S
H1909 C1938 0.950 . S
H1910 C1940 0.950 . S
H1911 C1941 0.950 . S
C1912 H1894 0.951 . S
C1912 C1913 1.366 . S
C1912 C1914 1.388 1_556 S
C1913 C1912 1.366 . S
C1913 C1917 1.385 . S
C1914 H1895 0.951 . S
C1914 C1912 1.388 1_554 S
C1914 C1915 1.366 . S
C1915 C1914 1.366 . S
C1915 C1916 1.414 . S
C1915 C1918 1.499 . S
C1916 H1896 0.950 . S
C1916 C1915 1.414 . S
C1916 C1917 1.374 1_554 S
C1917 H1897 0.950 . S
C1917 C1913 1.385 . S
C1917 C1916 1.374 1_556 S
C1918 C1915 1.499 . S
C1918 C1919 1.373 . S
C1918 C1920 1.389 . S
C1919 H1898 0.950 . S
C1919 C1918 1.373 . S
C1919 C1935 1.377 . S
C1920 C1918 1.389 . S
C1920 C1921 1.524 . S
C1920 C1934 1.377 . S
C1921 C1920 1.524 . S
C1921 C1922 1.397 . S
C1921 C1926 1.363 . S
C1922 H1899 0.950 . S
C1922 C1921 1.397 . S
C1922 C1923 1.334 . S
C1923 H1900 0.950 . S
C1923 C1922 1.334 . S
C1923 C1924 1.287 . S
C1924 C1923 1.287 . S
C1924 C1925 1.524 . S
C1924 H1943 0.913 . S
C1925 H1901 0.950 . S
C1925 C1924 1.524 . S
C1925 C1926 1.415 . S
C1926 H1902 0.950 . S
C1926 C1921 1.363 . S
C1926 C1925 1.415 . S
C1927 H1903 0.951 . S
C1927 C1928 1.366 . S
C1927 C1929 1.388 . S
C1928 C1927 1.366 . S
C1928 C1932 1.385 . S
C1929 H1904 0.951 . S
C1929 C1927 1.388 . S
C1929 C1930 1.366 . S
C1930 C1929 1.366 . S
C1930 C1931 1.414 . S
C1930 C1933 1.499 . S
C1931 H1905 0.950 . S
C1931 C1930 1.414 . S
C1931 C1932 1.374 . S
C1932 H1906 0.950 . S
C1932 C1928 1.385 . S
C1932 C1931 1.374 . S
C1933 C1930 1.499 . S
C1933 C1934 1.373 . S
C1933 C1935 1.389 . S
C1934 H1907 0.950 . S
C1934 C1920 1.377 . S
C1934 C1933 1.373 . S
C1935 C1919 1.377 . S
C1935 C1933 1.389 . S
C1935 C1936 1.524 . S
C1936 C1935 1.524 . S
C1936 C1937 1.397 . S
C1936 C1941 1.363 . S
C1937 H1908 0.950 . S
C1937 C1936 1.397 . S
C1937 C1938 1.334 . S
C1938 H1909 0.950 . S
C1938 C1937 1.334 . S
C1938 C1939 1.287 . S
C1939 C1938 1.287 . S
C1939 C1940 1.524 . S
C1939 H1942 0.999 . S
C1940 H1910 0.950 . S
C1940 C1939 1.524 . S
C1940 C1941 1.415 . S
C1941 H1911 0.950 . S
C1941 C1936 1.363 . S
C1941 C1940 1.415 . S
H1942 C1939 0.999 . S
H1943 C1924 0.913 . S
H1944 C1962 0.951 . S
H1945 C1964 0.951 . S
H1946 C1966 0.950 . S
H1947 C1967 0.950 . S
H1948 C1969 0.950 . S
H1949 C1972 0.950 . S
H1950 C1973 0.950 . S
H1951 C1975 0.950 . S
H1952 C1976 0.950 . S
H1953 C1977 0.951 . S
H1954 C1979 0.951 . S
H1955 C1981 0.950 . S
H1956 C1982 0.950 . S
H1957 C1984 0.950 . S
H1958 C1987 0.950 . S
H1959 C1988 0.950 . S
H1960 C1990 0.950 . S
H1961 C1991 0.950 . S
C1962 H1944 0.951 . S
C1962 C1963 1.366 . S
C1962 C1964 1.388 . S
C1963 C1962 1.366 . S
C1963 C1967 1.385 1_655 S
C1964 H1945 0.951 . S
C1964 C1962 1.388 . S
C1964 C1965 1.379 . S
C1965 C1964 1.379 . S
C1965 C1966 1.402 1_655 S
C1965 C1968 1.497 1_655 S
C1966 H1946 0.950 . S
C1966 C1965 1.402 1_455 S
C1966 C1967 1.374 . S
C1967 H1947 0.950 . S
C1967 C1963 1.385 1_455 S
C1967 C1966 1.374 . S
C1968 C1965 1.497 1_455 S
C1968 C1969 1.373 . S
C1968 C1970 1.389 1_455 S
C1969 H1948 0.950 . S
C1969 C1968 1.373 . S
C1969 C1985 1.377 . S
C1970 C1968 1.389 1_655 S
C1970 C1971 1.524 . S
C1970 C1984 1.377 . S
C1971 C1970 1.524 . S
C1971 C1972 1.397 . S
C1971 C1976 1.363 . S
C1972 H1949 0.950 . S
C1972 C1971 1.397 . S
C1972 C1973 1.334 . S
C1973 H1950 0.950 . S
C1973 C1972 1.334 . S
C1973 C1974 1.287 . S
C1974 C1973 1.287 . S
C1974 C1975 1.524 . S
C1974 H1993 0.913 . S
C1975 H1951 0.950 . S
C1975 C1974 1.524 . S
C1975 C1976 1.415 . S
C1976 H1952 0.950 . S
C1976 C1971 1.363 . S
C1976 C1975 1.415 . S
C1977 H1953 0.951 . S
C1977 C1978 1.366 . S
C1977 C1979 1.388 1_554 S
C1978 C1977 1.366 . S
C1978 C1982 1.385 1_455 S
C1979 H1954 0.951 . S
C1979 C1977 1.388 1_556 S
C1979 C1980 1.366 . S
C1980 C1979 1.366 . S
C1980 C1981 1.414 1_455 S
C1980 C1983 1.499 . S
C1981 H1955 0.950 . S
C1981 C1980 1.414 1_655 S
C1981 C1982 1.374 1_556 S
C1982 H1956 0.950 . S
C1982 C1978 1.385 1_655 S
C1982 C1981 1.374 1_554 S
C1983 C1980 1.499 . S
C1983 C1984 1.373 1_455 S
C1983 C1985 1.389 . S
C1984 H1957 0.950 . S
C1984 C1970 1.377 . S
C1984 C1983 1.373 1_655 S
C1985 C1969 1.377 . S
C1985 C1983 1.389 . S
C1985 C1986 1.524 . S
C1986 C1985 1.524 . S
C1986 C1987 1.397 . S
C1986 C1991 1.363 . S
C1987 H1958 0.950 . S
C1987 C1986 1.397 . S
C1987 C1988 1.334 . S
C1988 H1959 0.950 . S
C1988 C1987 1.334 . S
C1988 C1989 1.287 . S
C1989 C1988 1.287 . S
C1989 C1990 1.524 . S
C1989 H1992 0.999 . S
C1990 H1960 0.950 . S
C1990 C1989 1.524 . S
C1990 C1991 1.415 . S
C1991 H1961 0.950 . S
C1991 C1986 1.363 . S
C1991 C1990 1.415 . S
H1992 C1989 0.999 . S
H1993 C1974 0.913 . S
H1994 C2012 0.951 . S
H1995 C2014 0.951 . S
H1996 C2016 0.950 . S
H1997 C2017 0.950 . S
H1998 C2019 0.950 . S
H1999 C2022 0.950 . S
H2000 C2023 0.950 . S
H2001 C2025 0.950 . S
H2002 C2026 0.950 . S
H2003 C2027 0.951 . S
H2004 C2029 0.951 . S
H2005 C2031 0.950 . S
H2006 C2032 0.950 . S
H2007 C2034 0.950 . S
H2008 C2037 1.004 . S
H2009 C2038 0.950 . S
H2010 C2040 0.950 . S
H2011 C2041 0.950 . S
C2012 H1994 0.951 . S
C2012 C2013 1.366 1_545 S
C2012 C2014 1.388 . S
C2013 C2012 1.366 1_565 S
C2013 C2017 1.385 . S
C2014 H1995 0.951 . S
C2014 C2012 1.388 . S
C2014 C2015 1.366 . S
C2015 C2014 1.366 . S
C2015 C2016 1.413 1_545 S
C2015 C2018 1.498 . S
C2016 H1996 0.950 . S
C2016 C2015 1.413 1_565 S
C2016 C2017 1.374 . S
C2017 H1997 0.950 . S
C2017 C2013 1.385 . S
C2017 C2016 1.374 . S
C2018 C2015 1.498 . S
C2018 C2019 1.337 1_545 S
C2018 C2020 1.431 . S
C2019 H1998 0.950 . S
C2019 C2018 1.337 1_565 S
C2019 C2035 1.377 . S
C2020 C2018 1.431 . S
C2020 C2021 1.524 . S
C2020 C2034 1.377 . S
C2021 C2020 1.524 . S
C2021 C2022 1.397 . S
C2021 C2026 1.363 . S
C2022 H1999 0.950 . S
C2022 C2021 1.397 . S
C2022 C2023 1.334 . S
C2023 H2000 0.950 . S
C2023 C2022 1.334 . S
C2023 C2024 1.287 . S
C2024 C2023 1.287 . S
C2024 C2025 1.524 . S
C2024 H2043 0.913 . S
C2025 H2001 0.950 . S
C2025 C2024 1.524 . S
C2025 C2026 1.415 . S
C2026 H2002 0.950 . S
C2026 C2021 1.363 . S
C2026 C2025 1.415 . S
C2027 H2003 0.951 . S
C2027 C2028 1.366 1_565 S
C2027 C2029 1.388 . S
C2028 C2027 1.366 1_545 S
C2028 C2032 1.385 . S
C2029 H2004 0.951 . S
C2029 C2027 1.388 . S
C2029 C2030 1.366 1_565 S
C2030 C2029 1.366 1_545 S
C2030 C2031 1.414 . S
C2030 C2033 1.499 . S
C2031 H2005 0.950 . S
C2031 C2030 1.414 . S
C2031 C2032 1.374 . S
C2032 H2006 0.950 . S
C2032 C2028 1.385 . S
C2032 C2031 1.374 . S
C2033 C2030 1.499 . S
C2033 C2034 1.373 . S
C2033 C2035 1.389 1_545 S
C2034 H2007 0.950 . S
C2034 C2020 1.377 . S
C2034 C2033 1.373 . S
C2035 C2019 1.377 . S
C2035 C2033 1.389 1_565 S
C2035 C2036 1.524 . S
C2036 C2035 1.524 . S
C2036 C2037 1.397 . S
C2036 C2041 1.363 . S
C2037 H2008 1.004 . S
C2037 C2036 1.397 . S
C2037 C2038 1.334 . S
C2038 H2009 0.950 . S
C2038 C2037 1.334 . S
C2038 C2039 1.287 . S
C2039 C2038 1.287 . S
C2039 C2040 1.524 . S
C2039 H2042 0.999 . S
C2040 H2010 0.950 . S
C2040 C2039 1.524 . S
C2040 C2041 1.415 . S
C2041 H2011 0.950 . S
C2041 C2036 1.363 . S
C2041 C2040 1.415 . S
H2042 C2039 0.999 . S
H2043 C2024 0.913 . S
H2044 C2062 0.951 . S
H2045 C2064 0.951 . S
H2046 C2066 0.950 . S
H2047 C2067 0.950 . S
H2048 C2069 0.950 . S
H2049 C2072 0.950 . S
H2050 C2073 0.950 . S
H2051 C2075 0.950 . S
H2052 C2076 0.950 . S
H2053 C2077 0.951 . S
H2054 C2079 0.951 . S
H2055 C2081 0.950 . S
H2056 C2082 0.950 . S
H2057 C2084 0.950 . S
H2058 C2087 0.950 . S
H2059 C2088 0.950 . S
H2060 C2090 0.950 . S
H2061 C2091 0.950 . S
C2062 H2044 0.951 . S
C2062 C2063 1.366 . S
C2062 C2064 1.388 . S
C2063 C2062 1.366 . S
C2063 C2067 1.385 . S
C2064 H2045 0.951 . S
C2064 C2062 1.388 . S
C2064 C2065 1.366 . S
C2065 C2064 1.366 . S
C2065 C2066 1.414 . S
C2065 C2068 1.499 . S
C2066 H2046 0.950 . S
C2066 C2065 1.414 . S
C2066 C2067 1.374 . S
C2067 H2047 0.950 . S
C2067 C2063 1.385 . S
C2067 C2066 1.374 . S
C2068 C2065 1.499 . S
C2068 C2069 1.373 . S
C2068 C2070 1.389 . S
C2069 H2048 0.950 . S
C2069 C2068 1.373 . S
C2069 C2085 1.377 . S
C2070 C2068 1.389 . S
C2070 C2071 1.524 . S
C2070 C2084 1.377 . S
C2071 C2070 1.524 . S
C2071 C2072 1.397 . S
C2071 C2076 1.363 . S
C2072 H2049 0.950 . S
C2072 C2071 1.397 . S
C2072 C2073 1.334 . S
C2073 H2050 0.950 . S
C2073 C2072 1.334 . S
C2073 C2074 1.287 . S
C2074 C2073 1.287 . S
C2074 C2075 1.524 . S
C2074 H2093 0.913 . S
C2075 H2051 0.950 . S
C2075 C2074 1.524 . S
C2075 C2076 1.415 . S
C2076 H2052 0.950 . S
C2076 C2071 1.363 . S
C2076 C2075 1.415 . S
C2077 H2053 0.951 . S
C2077 C2078 1.366 . S
C2077 C2079 1.388 1_554 S
C2078 C2077 1.366 . S
C2078 C2082 1.385 . S
C2079 H2054 0.951 . S
C2079 C2077 1.388 1_556 S
C2079 C2080 1.366 . S
C2080 C2079 1.366 . S
C2080 C2081 1.414 . S
C2080 C2083 1.499 . S
C2081 H2055 0.950 . S
C2081 C2080 1.414 . S
C2081 C2082 1.374 1_556 S
C2082 H2056 0.950 . S
C2082 C2078 1.385 . S
C2082 C2081 1.374 1_554 S
C2083 C2080 1.499 . S
C2083 C2084 1.373 . S
C2083 C2085 1.389 . S
C2084 H2057 0.950 . S
C2084 C2070 1.377 . S
C2084 C2083 1.373 . S
C2085 C2069 1.377 . S
C2085 C2083 1.389 . S
C2085 C2086 1.524 . S
C2086 C2085 1.524 . S
C2086 C2087 1.397 . S
C2086 C2091 1.363 . S
C2087 H2058 0.950 . S
C2087 C2086 1.397 . S
C2087 C2088 1.334 . S
C2088 H2059 0.950 . S
C2088 C2087 1.334 . S
C2088 C2089 1.287 . S
C2089 C2088 1.287 . S
C2089 C2090 1.524 . S
C2089 H2092 0.999 . S
C2090 H2060 0.950 . S
C2090 C2089 1.524 . S
C2090 C2091 1.415 . S
C2091 H2061 0.950 . S
C2091 C2086 1.363 . S
C2091 C2090 1.415 . S
H2092 C2089 0.999 . S
H2093 C2074 0.913 . S
H2094 C2112 0.951 . S
H2095 C2114 0.951 . S
H2096 C2116 0.950 . S
H2097 C2117 0.950 . S
H2098 C2119 0.950 . S
H2099 C2122 0.950 . S
H2100 C2123 0.950 . S
H2101 C2125 0.950 . S
H2102 C2126 0.950 . S
H2103 C2127 0.951 . S
H2104 C2129 0.951 . S
H2105 C2131 0.950 . S
H2106 C2132 0.950 . S
H2107 C2134 0.950 . S
H2108 C2137 0.950 . S
H2109 C2138 0.950 . S
H2110 C2140 0.950 . S
H2111 C2141 0.950 . S
C2112 H2094 0.951 . S
C2112 C2113 1.366 . S
C2112 C2114 1.388 . S
C2113 C2112 1.366 . S
C2113 C2117 1.385 . S
C2114 H2095 0.951 . S
C2114 C2112 1.388 . S
C2114 C2115 1.366 . S
C2115 C2114 1.366 . S
C2115 C2116 1.414 . S
C2115 C2118 1.499 . S
C2116 H2096 0.950 . S
C2116 C2115 1.414 . S
C2116 C2117 1.374 . S
C2117 H2097 0.950 . S
C2117 C2113 1.385 . S
C2117 C2116 1.374 . S
C2118 C2115 1.499 . S
C2118 C2119 1.373 . S
C2118 C2120 1.389 . S
C2119 H2098 0.950 . S
C2119 C2118 1.373 . S
C2119 C2135 1.377 . S
C2120 C2118 1.389 . S
C2120 C2121 1.524 . S
C2120 C2134 1.377 . S
C2121 C2120 1.524 . S
C2121 C2122 1.397 . S
C2121 C2126 1.363 . S
C2122 H2099 0.950 . S
C2122 C2121 1.397 . S
C2122 C2123 1.334 . S
C2123 H2100 0.950 . S
C2123 C2122 1.334 . S
C2123 C2124 1.287 . S
C2124 C2123 1.287 . S
C2124 C2125 1.524 . S
C2124 H2143 0.913 . S
C2125 H2101 0.950 . S
C2125 C2124 1.524 . S
C2125 C2126 1.415 . S
C2126 H2102 0.950 . S
C2126 C2121 1.363 . S
C2126 C2125 1.415 . S
C2127 H2103 0.951 . S
C2127 C2128 1.366 . S
C2127 C2129 1.388 . S
C2128 C2127 1.366 . S
C2128 C2132 1.385 . S
C2129 H2104 0.951 . S
C2129 C2127 1.388 . S
C2129 C2130 1.366 . S
C2130 C2129 1.366 . S
C2130 C2131 1.414 . S
C2130 C2133 1.499 . S
C2131 H2105 0.950 . S
C2131 C2130 1.414 . S
C2131 C2132 1.374 . S
C2132 H2106 0.950 . S
C2132 C2128 1.385 . S
C2132 C2131 1.374 . S
C2133 C2130 1.499 . S
C2133 C2134 1.373 . S
C2133 C2135 1.389 . S
C2134 H2107 0.950 . S
C2134 C2120 1.377 . S
C2134 C2133 1.373 . S
C2135 C2119 1.377 . S
C2135 C2133 1.389 . S
C2135 C2136 1.524 . S
C2136 C2135 1.524 . S
C2136 C2137 1.397 . S
C2136 C2141 1.363 . S
C2137 H2108 0.950 . S
C2137 C2136 1.397 . S
C2137 C2138 1.334 . S
C2138 H2109 0.950 . S
C2138 C2137 1.334 . S
C2138 C2139 1.287 . S
C2139 C2138 1.287 . S
C2139 C2140 1.524 . S
C2139 H2142 0.999 . S
C2140 H2110 0.950 . S
C2140 C2139 1.524 . S
C2140 C2141 1.415 . S
C2141 H2111 0.950 . S
C2141 C2136 1.363 . S
C2141 C2140 1.415 . S
H2142 C2139 0.999 . S
H2143 C2124 0.913 . S
H2144 C2162 0.951 . S
H2145 C2164 0.957 . S
H2146 C2166 0.950 . S
H2147 C2167 0.950 . S
H2148 C2169 0.950 . S
H2149 C2172 0.950 . S
H2150 C2173 0.950 . S
H2151 C2175 0.950 . S
H2152 C2176 0.950 . S
H2153 C2177 0.966 . S
H2154 C2179 0.951 . S
H2155 C2181 0.950 . S
H2156 C2182 0.950 . S
H2157 C2184 0.950 . S
H2158 C2187 0.950 . S
H2159 C2188 0.950 . S
H2160 C2190 0.950 . S
H2161 C2191 0.950 . S
C2162 H2144 0.951 . S
C2162 C2163 1.366 . S
C2162 C2164 1.388 . S
C2163 C2162 1.366 . S
C2163 C2167 1.385 . S
C2164 H2145 0.957 . S
C2164 C2162 1.388 . S
C2164 C2165 1.366 . S
C2165 C2164 1.366 . S
C2165 C2166 1.414 . S
C2165 C2168 1.499 . S
C2166 H2146 0.950 . S
C2166 C2165 1.414 . S
C2166 C2167 1.374 . S
C2167 H2147 0.950 . S
C2167 C2163 1.385 . S
C2167 C2166 1.374 . S
C2168 C2165 1.499 . S
C2168 C2169 1.373 1_655 S
C2168 C2170 1.389 . S
C2169 H2148 0.950 . S
C2169 C2168 1.373 1_455 S
C2169 C2185 1.377 . S
C2170 C2168 1.389 . S
C2170 C2171 1.524 . S
C2170 C2184 1.377 . S
C2171 C2170 1.524 . S
C2171 C2172 1.397 . S
C2171 C2176 1.363 . S
C2172 H2149 0.950 . S
C2172 C2171 1.397 . S
C2172 C2173 1.334 . S
C2173 H2150 0.950 . S
C2173 C2172 1.334 . S
C2173 C2174 1.287 . S
C2174 C2173 1.287 . S
C2174 C2175 1.524 . S
C2174 H2193 0.913 . S
C2175 H2151 0.950 . S
C2175 C2174 1.524 . S
C2175 C2176 1.415 . S
C2176 H2152 0.950 . S
C2176 C2171 1.363 . S
C2176 C2175 1.415 . S
C2177 H2153 0.966 . S
C2177 C2178 1.353 1_655 S
C2177 C2179 1.393 . S
C2178 C2177 1.353 1_455 S
C2178 C2182 1.385 . S
C2179 H2154 0.951 . S
C2179 C2177 1.393 . S
C2179 C2180 1.358 1_655 S
C2180 C2179 1.358 1_455 S
C2180 C2181 1.425 . S
C2180 C2183 1.496 1_455 S
C2181 H2155 0.950 . S
C2181 C2180 1.425 . S
C2181 C2182 1.374 . S
C2182 H2156 0.950 . S
C2182 C2178 1.385 . S
C2182 C2181 1.374 . S
C2183 C2180 1.496 1_655 S
C2183 C2184 1.375 . S
C2183 C2185 1.388 1_655 S
C2184 H2157 0.950 . S
C2184 C2170 1.377 . S
C2184 C2183 1.375 . S
C2185 C2169 1.377 . S
C2185 C2183 1.388 1_455 S
C2185 C2186 1.524 . S
C2186 C2185 1.524 . S
C2186 C2187 1.397 . S
C2186 C2191 1.363 . S
C2187 H2158 0.950 . S
C2187 C2186 1.397 . S
C2187 C2188 1.334 . S
C2188 H2159 0.950 . S
C2188 C2187 1.334 . S
C2188 C2189 1.287 . S
C2189 C2188 1.287 . S
C2189 C2190 1.524 . S
C2189 H2192 0.999 . S
C2190 H2160 0.950 . S
C2190 C2189 1.524 . S
C2190 C2191 1.415 . S
C2191 H2161 0.950 . S
C2191 C2186 1.363 . S
C2191 C2190 1.415 . S
H2192 C2189 0.999 . S
H2193 C2174 0.913 . S
H2194 C2212 0.951 . S
H2195 C2214 0.951 . S
H2196 C2216 0.950 . S
H2197 C2217 0.950 . S
H2198 C2219 0.950 . S
H2199 C2222 0.950 . S
H2200 C2223 0.950 . S
H2201 C2225 0.950 . S
H2202 C2226 0.950 . S
H2203 C2227 0.951 . S
H2204 C2229 0.951 . S
H2205 C2231 0.950 . S
H2206 C2232 0.950 . S
H2207 C2234 0.950 . S
H2208 C2237 0.950 . S
H2209 C2238 0.950 . S
H2210 C2240 0.950 . S
H2211 C2241 0.950 . S
C2212 H2194 0.951 . S
C2212 C2213 1.366 . S
C2212 C2214 1.388 1_554 S
C2213 C2212 1.366 . S
C2213 C2217 1.385 1_565 S
C2214 H2195 0.951 . S
C2214 C2212 1.388 1_556 S
C2214 C2215 1.366 . S
C2215 C2214 1.366 . S
C2215 C2216 1.414 1_565 S
C2215 C2218 1.499 . S
C2216 H2196 0.950 . S
C2216 C2215 1.414 1_545 S
C2216 C2217 1.374 1_556 S
C2217 H2197 0.950 . S
C2217 C2213 1.385 1_545 S
C2217 C2216 1.374 1_554 S
C2218 C2215 1.499 . S
C2218 C2219 1.373 1_565 S
C2218 C2220 1.389 . S
C2219 H2198 0.950 . S
C2219 C2218 1.373 1_545 S
C2219 C2235 1.377 . S
C2220 C2218 1.389 . S
C2220 C2221 1.524 . S
C2220 C2234 1.377 . S
C2221 C2220 1.524 . S
C2221 C2222 1.397 . S
C2221 C2226 1.363 . S
C2222 H2199 0.950 . S
C2222 C2221 1.397 . S
C2222 C2223 1.334 . S
C2223 H2200 0.950 . S
C2223 C2222 1.334 . S
C2223 C2224 1.287 . S
C2224 C2223 1.287 . S
C2224 C2225 1.524 . S
C2224 H2243 0.913 . S
C2225 H2201 0.950 . S
C2225 C2224 1.524 . S
C2225 C2226 1.415 . S
C2226 H2202 0.950 . S
C2226 C2221 1.363 . S
C2226 C2225 1.415 . S
C2227 H2203 0.951 . S
C2227 C2228 1.366 . S
C2227 C2229 1.388 . S
C2228 C2227 1.366 . S
C2228 C2232 1.385 1_545 S
C2229 H2204 0.951 . S
C2229 C2227 1.388 . S
C2229 C2230 1.388 . S
C2230 C2229 1.388 . S
C2230 C2231 1.393 1_545 S
C2230 C2233 1.494 1_545 S
C2231 H2205 0.950 . S
C2231 C2230 1.393 1_565 S
C2231 C2232 1.374 . S
C2232 H2206 0.950 . S
C2232 C2228 1.385 1_565 S
C2232 C2231 1.374 . S
C2233 C2230 1.494 1_565 S
C2233 C2234 1.437 . S
C2233 C2235 1.333 1_565 S
C2234 H2207 0.950 . S
C2234 C2220 1.377 . S
C2234 C2233 1.437 . S
C2235 C2219 1.377 . S
C2235 C2233 1.333 1_545 S
C2235 C2236 1.524 . S
C2236 C2235 1.524 . S
C2236 C2237 1.397 . S
C2236 C2241 1.363 . S
C2237 H2208 0.950 . S
C2237 C2236 1.397 . S
C2237 C2238 1.334 . S
C2238 H2209 0.950 . S
C2238 C2237 1.334 . S
C2238 C2239 1.287 . S
C2239 C2238 1.287 . S
C2239 C2240 1.524 . S
C2239 H2242 0.999 . S
C2240 H2210 0.950 . S
C2240 C2239 1.524 . S
C2240 C2241 1.415 . S
C2241 H2211 0.950 . S
C2241 C2236 1.363 . S
C2241 C2240 1.415 . S
H2242 C2239 0.999 . S
H2243 C2224 0.913 . S
H2244 C2262 0.951 . S
H2245 C2264 0.951 . S
H2246 C2266 0.950 . S
H2247 C2267 0.950 . S
H2248 C2269 0.950 . S
H2249 C2272 0.950 . S
H2250 C2273 0.950 . S
H2251 C2275 0.950 . S
H2252 C2276 0.950 . S
H2253 C2277 0.951 . S
H2254 C2279 0.951 . S
H2255 C2281 0.950 . S
H2256 C2282 0.950 . S
H2257 C2284 0.950 . S
H2258 C2287 0.950 . S
H2259 C2288 0.950 . S
H2260 C2290 0.950 . S
H2261 C2291 0.950 . S
C2262 H2244 0.951 . S
C2262 C2263 1.366 . S
C2262 C2264 1.388 . S
C2263 C2262 1.366 . S
C2263 C2267 1.385 . S
C2264 H2245 0.951 . S
C2264 C2262 1.388 . S
C2264 C2265 1.366 . S
C2265 C2264 1.366 . S
C2265 C2266 1.414 . S
C2265 C2268 1.499 . S
C2266 H2246 0.950 . S
C2266 C2265 1.414 . S
C2266 C2267 1.374 . S
C2267 H2247 0.950 . S
C2267 C2263 1.385 . S
C2267 C2266 1.374 . S
C2268 C2265 1.499 . S
C2268 C2269 1.373 . S
C2268 C2270 1.389 . S
C2269 H2248 0.950 . S
C2269 C2268 1.373 . S
C2269 C2285 1.377 . S
C2270 C2268 1.389 . S
C2270 C2271 1.524 . S
C2270 C2284 1.377 . S
C2271 C2270 1.524 . S
C2271 C2272 1.397 . S
C2271 C2276 1.363 . S
C2272 H2249 0.950 . S
C2272 C2271 1.397 . S
C2272 C2273 1.334 . S
C2273 H2250 0.950 . S
C2273 C2272 1.334 . S
C2273 C2274 1.287 . S
C2274 C2273 1.287 . S
C2274 C2275 1.524 . S
C2274 H2293 0.913 . S
C2275 H2251 0.950 . S
C2275 C2274 1.524 . S
C2275 C2276 1.415 . S
C2276 H2252 0.950 . S
C2276 C2271 1.363 . S
C2276 C2275 1.415 . S
C2277 H2253 0.951 . S
C2277 C2278 1.366 . S
C2277 C2279 1.388 . S
C2278 C2277 1.366 . S
C2278 C2282 1.385 . S
C2279 H2254 0.951 . S
C2279 C2277 1.388 . S
C2279 C2280 1.366 . S
C2280 C2279 1.366 . S
C2280 C2281 1.414 . S
C2280 C2283 1.499 . S
C2281 H2255 0.950 . S
C2281 C2280 1.414 . S
C2281 C2282 1.374 . S
C2282 H2256 0.950 . S
C2282 C2278 1.385 . S
C2282 C2281 1.374 . S
C2283 C2280 1.499 . S
C2283 C2284 1.373 . S
C2283 C2285 1.389 . S
C2284 H2257 0.950 . S
C2284 C2270 1.377 . S
C2284 C2283 1.373 . S
C2285 C2269 1.377 . S
C2285 C2283 1.389 . S
C2285 C2286 1.524 . S
C2286 C2285 1.524 . S
C2286 C2287 1.397 . S
C2286 C2291 1.363 . S
C2287 H2258 0.950 . S
C2287 C2286 1.397 . S
C2287 C2288 1.334 . S
C2288 H2259 0.950 . S
C2288 C2287 1.334 . S
C2288 C2289 1.287 . S
C2289 C2288 1.287 . S
C2289 C2290 1.524 . S
C2289 H2292 0.999 . S
C2290 H2260 0.950 . S
C2290 C2289 1.524 . S
C2290 C2291 1.415 . S
C2291 H2261 0.950 . S
C2291 C2286 1.363 . S
C2291 C2290 1.415 . S
H2292 C2289 0.999 . S
H2293 C2274 0.913 . S
H2294 C2312 0.951 . S
H2295 C2314 0.951 . S
H2296 C2316 0.950 . S
H2297 C2317 0.950 . S
H2298 C2319 0.950 . S
H2299 C2322 0.950 . S
H2300 C2323 0.950 . S
H2301 C2325 0.950 . S
H2302 C2326 0.950 . S
H2303 C2327 0.951 . S
H2304 C2329 0.951 . S
H2305 C2331 0.950 . S
H2306 C2332 0.950 . S
H2307 C2334 0.950 . S
H2308 C2337 0.950 . S
H2309 C2338 0.950 . S
H2310 C2340 0.950 . S
H2311 C2341 0.950 . S
C2312 H2294 0.951 . S
C2312 C2313 1.366 . S
C2312 C2314 1.388 1_554 S
C2313 C2312 1.366 . S
C2313 C2317 1.385 . S
C2314 H2295 0.951 . S
C2314 C2312 1.388 1_556 S
C2314 C2315 1.366 . S
C2315 C2314 1.366 . S
C2315 C2316 1.414 . S
C2315 C2318 1.499 . S
C2316 H2296 0.950 . S
C2316 C2315 1.414 . S
C2316 C2317 1.374 1_556 S
C2317 H2297 0.950 . S
C2317 C2313 1.385 . S
C2317 C2316 1.374 1_554 S
C2318 C2315 1.499 . S
C2318 C2319 1.373 . S
C2318 C2320 1.389 . S
C2319 H2298 0.950 . S
C2319 C2318 1.373 . S
C2319 C2335 1.377 . S
C2320 C2318 1.389 . S
C2320 C2321 1.524 . S
C2320 C2334 1.377 . S
C2321 C2320 1.524 . S
C2321 C2322 1.397 . S
C2321 C2326 1.363 . S
C2322 H2299 0.950 . S
C2322 C2321 1.397 . S
C2322 C2323 1.334 . S
C2323 H2300 0.950 . S
C2323 C2322 1.334 . S
C2323 C2324 1.287 . S
C2324 C2323 1.287 . S
C2324 C2325 1.524 . S
C2324 H2343 0.913 . S
C2325 H2301 0.950 . S
C2325 C2324 1.524 . S
C2325 C2326 1.415 . S
C2326 H2302 0.950 . S
C2326 C2321 1.363 . S
C2326 C2325 1.415 . S
C2327 H2303 0.951 . S
C2327 C2328 1.366 . S
C2327 C2329 1.388 . S
C2328 C2327 1.366 . S
C2328 C2332 1.385 . S
C2329 H2304 0.951 . S
C2329 C2327 1.388 . S
C2329 C2330 1.366 . S
C2330 C2329 1.366 . S
C2330 C2331 1.414 . S
C2330 C2333 1.499 . S
C2331 H2305 0.950 . S
C2331 C2330 1.414 . S
C2331 C2332 1.374 . S
C2332 H2306 0.950 . S
C2332 C2328 1.385 . S
C2332 C2331 1.374 . S
C2333 C2330 1.499 . S
C2333 C2334 1.373 . S
C2333 C2335 1.389 . S
C2334 H2307 0.950 . S
C2334 C2320 1.377 . S
C2334 C2333 1.373 . S
C2335 C2319 1.377 . S
C2335 C2333 1.389 . S
C2335 C2336 1.524 . S
C2336 C2335 1.524 . S
C2336 C2337 1.397 . S
C2336 C2341 1.363 . S
C2337 H2308 0.950 . S
C2337 C2336 1.397 . S
C2337 C2338 1.334 . S
C2338 H2309 0.950 . S
C2338 C2337 1.334 . S
C2338 C2339 1.287 . S
C2339 C2338 1.287 . S
C2339 C2340 1.524 . S
C2339 H2342 0.999 . S
C2340 H2310 0.950 . S
C2340 C2339 1.524 . S
C2340 C2341 1.415 . S
C2341 H2311 0.950 . S
C2341 C2336 1.363 . S
C2341 C2340 1.415 . S
H2342 C2339 0.999 . S
H2343 C2324 0.913 . S
H2344 C2362 0.951 . S
H2345 C2364 0.951 . S
H2346 C2366 0.950 . S
H2347 C2367 0.950 . S
H2348 C2369 0.950 . S
H2349 C2372 0.950 . S
H2350 C2373 0.950 . S
H2351 C2375 0.950 . S
H2352 C2376 0.950 . S
H2353 C2377 0.951 . S
H2354 C2379 0.951 . S
H2355 C2381 0.950 . S
H2356 C2382 0.950 . S
H2357 C2384 0.950 . S
H2358 C2387 0.950 . S
H2359 C2388 0.950 . S
H2360 C2390 0.950 . S
H2361 C2391 0.950 . S
C2362 H2344 0.951 . S
C2362 C2363 1.366 1_655 S
C2362 C2364 1.388 . S
C2363 C2362 1.366 1_455 S
C2363 C2367 1.385 . S
C2364 H2345 0.951 . S
C2364 C2362 1.388 . S
C2364 C2365 1.389 . S
C2365 C2364 1.389 . S
C2365 C2366 1.387 1_655 S
C2365 C2368 1.501 . S
C2366 H2346 0.950 . S
C2366 C2365 1.387 1_455 S
C2366 C2367 1.374 . S
C2367 H2347 0.950 . S
C2367 C2363 1.385 . S
C2367 C2366 1.374 . S
C2368 C2365 1.501 . S
C2368 C2369 1.373 1_655 S
C2368 C2370 1.389 . S
C2369 H2348 0.950 . S
C2369 C2368 1.373 1_455 S
C2369 C2385 1.377 . S
C2370 C2368 1.389 . S
C2370 C2371 1.524 . S
C2370 C2384 1.377 . S
C2371 C2370 1.524 . S
C2371 C2372 1.397 . S
C2371 C2376 1.363 . S
C2372 H2349 0.950 . S
C2372 C2371 1.397 . S
C2372 C2373 1.334 . S
C2373 H2350 0.950 . S
C2373 C2372 1.334 . S
C2373 C2374 1.287 . S
C2374 C2373 1.287 . S
C2374 C2375 1.524 . S
C2374 H2393 0.913 . S
C2375 H2351 0.950 . S
C2375 C2374 1.524 . S
C2375 C2376 1.415 . S
C2376 H2352 0.950 . S
C2376 C2371 1.363 . S
C2376 C2375 1.415 . S
C2377 H2353 0.951 . S
C2377 C2378 1.366 1_455 S
C2377 C2379 1.388 1_556 S
C2378 C2377 1.366 1_655 S
C2378 C2382 1.385 . S
C2379 H2354 0.951 . S
C2379 C2377 1.388 1_554 S
C2379 C2380 1.366 1_455 S
C2380 C2379 1.366 1_655 S
C2380 C2381 1.414 . S
C2380 C2383 1.499 . S
C2381 H2355 0.950 . S
C2381 C2380 1.414 . S
C2381 C2382 1.374 1_554 S
C2382 H2356 0.950 . S
C2382 C2378 1.385 . S
C2382 C2381 1.374 1_556 S
C2383 C2380 1.499 . S
C2383 C2384 1.373 . S
C2383 C2385 1.389 1_655 S
C2384 H2357 0.950 . S
C2384 C2370 1.377 . S
C2384 C2383 1.373 . S
C2385 C2369 1.377 . S
C2385 C2383 1.389 1_455 S
C2385 C2386 1.524 . S
C2386 C2385 1.524 . S
C2386 C2387 1.397 . S
C2386 C2391 1.363 . S
C2387 H2358 0.950 . S
C2387 C2386 1.397 . S
C2387 C2388 1.334 . S
C2388 H2359 0.950 . S
C2388 C2387 1.334 . S
C2388 C2389 1.287 . S
C2389 C2388 1.287 . S
C2389 C2390 1.524 . S
C2389 H2392 0.999 . S
C2390 H2360 0.950 . S
C2390 C2389 1.524 . S
C2390 C2391 1.415 . S
C2391 H2361 0.950 . S
C2391 C2386 1.363 . S
C2391 C2390 1.415 . S
H2392 C2389 0.999 . S
H2393 C2374 0.913 . S
H2394 C2412 0.951 . S
H2395 C2414 0.951 . S
H2396 C2416 0.950 . S
H2397 C2417 0.950 . S
H2398 C2419 0.950 . S
H2399 C2422 0.950 . S
H2400 C2423 0.950 . S
H2401 C2425 0.950 . S
H2402 C2426 0.950 . S
H2403 C2427 0.951 . S
H2404 C2429 0.951 . S
H2405 C2431 0.950 . S
H2406 C2432 0.950 . S
H2407 C2434 0.950 . S
H2408 C2437 0.950 1_565 S
H2409 C2438 0.950 . S
H2410 C2440 0.950 . S
H2411 C2441 0.950 . S
C2412 H2394 0.951 . S
C2412 C2413 1.366 1_565 S
C2412 C2414 1.388 . S
C2413 C2412 1.366 1_545 S
C2413 C2417 1.385 . S
C2414 H2395 0.951 . S
C2414 C2412 1.388 . S
C2414 C2415 1.373 1_565 S
C2415 C2414 1.373 1_545 S
C2415 C2416 1.406 . S
C2415 C2418 1.498 1_545 S
C2416 H2396 0.950 . S
C2416 C2415 1.406 . S
C2416 C2417 1.374 . S
C2417 H2397 0.950 . S
C2417 C2413 1.385 . S
C2417 C2416 1.374 . S
C2418 C2415 1.498 1_565 S
C2418 C2419 1.349 1_565 S
C2418 C2420 1.418 . S
C2419 H2398 0.950 . S
C2419 C2418 1.349 1_545 S
C2419 C2435 1.377 . S
C2420 C2418 1.418 . S
C2420 C2421 1.524 . S
C2420 C2434 1.377 . S
C2421 C2420 1.524 . S
C2421 C2422 1.397 . S
C2421 C2426 1.363 . S
C2422 H2399 0.950 . S
C2422 C2421 1.397 . S
C2422 C2423 1.334 . S
C2423 H2400 0.950 . S
C2423 C2422 1.334 . S
C2423 C2424 1.287 . S
C2424 C2423 1.287 . S
C2424 C2425 1.524 . S
C2424 H2443 0.913 . S
C2425 H2401 0.950 . S
C2425 C2424 1.524 . S
C2425 C2426 1.415 . S
C2426 H2402 0.950 . S
C2426 C2421 1.363 . S
C2426 C2425 1.415 . S
C2427 H2403 0.951 . S
C2427 C2428 1.366 1_545 S
C2427 C2429 1.388 . S
C2428 C2427 1.366 1_565 S
C2428 C2432 1.385 . S
C2429 H2404 0.951 . S
C2429 C2427 1.388 . S
C2429 C2430 1.366 1_545 S
C2430 C2429 1.366 1_565 S
C2430 C2431 1.414 . S
C2430 C2433 1.499 . S
C2431 H2405 0.950 . S
C2431 C2430 1.414 . S
C2431 C2432 1.374 . S
C2432 H2406 0.950 . S
C2432 C2428 1.385 . S
C2432 C2431 1.374 . S
C2433 C2430 1.499 . S
C2433 C2434 1.373 . S
C2433 C2435 1.389 1_565 S
C2434 H2407 0.950 . S
C2434 C2420 1.377 . S
C2434 C2433 1.373 . S
C2435 C2419 1.377 . S
C2435 C2433 1.389 1_545 S
C2435 C2436 1.524 . S
C2436 C2435 1.524 . S
C2436 C2437 1.397 . S
C2436 C2441 1.363 . S
C2437 H2408 0.950 1_545 S
C2437 C2436 1.397 . S
C2437 C2438 1.334 . S
C2438 H2409 0.950 . S
C2438 C2437 1.334 . S
C2438 C2439 1.287 . S
C2439 C2438 1.287 . S
C2439 C2440 1.524 . S
C2439 H2442 0.999 . S
C2440 H2410 0.950 . S
C2440 C2439 1.524 . S
C2440 C2441 1.415 . S
C2441 H2411 0.950 . S
C2441 C2436 1.363 . S
C2441 C2440 1.415 . S
H2442 C2439 0.999 . S
H2443 C2424 0.913 . S
H2444 C2462 0.951 . S
H2445 C2464 0.951 . S
H2446 C2466 0.950 . S
H2447 C2467 0.950 . S
H2448 C2469 0.950 . S
H2449 C2472 0.950 . S
H2450 C2473 0.950 . S
H2451 C2475 0.950 . S
H2452 C2476 0.950 . S
H2453 C2477 0.951 . S
H2454 C2479 0.951 . S
H2455 C2481 0.950 . S
H2456 C2482 0.950 . S
H2457 C2484 0.950 . S
H2458 C2487 0.950 . S
H2459 C2488 0.950 . S
H2460 C2490 0.950 . S
H2461 C2491 0.950 . S
C2462 H2444 0.951 . S
C2462 C2463 1.366 . S
C2462 C2464 1.388 1_556 S
C2463 C2462 1.366 . S
C2463 C2467 1.385 . S
C2464 H2445 0.951 . S
C2464 C2462 1.388 1_554 S
C2464 C2465 1.366 . S
C2465 C2464 1.366 . S
C2465 C2466 1.414 . S
C2465 C2468 1.499 . S
C2466 H2446 0.950 . S
C2466 C2465 1.414 . S
C2466 C2467 1.374 1_554 S
C2467 H2447 0.950 . S
C2467 C2463 1.385 . S
C2467 C2466 1.374 1_556 S
C2468 C2465 1.499 . S
C2468 C2469 1.373 . S
C2468 C2470 1.389 . S
C2469 H2448 0.950 . S
C2469 C2468 1.373 . S
C2469 C2485 1.377 . S
C2470 C2468 1.389 . S
C2470 C2471 1.524 . S
C2470 C2484 1.377 . S
C2471 C2470 1.524 . S
C2471 C2472 1.397 . S
C2471 C2476 1.363 . S
C2472 H2449 0.950 . S
C2472 C2471 1.397 . S
C2472 C2473 1.334 . S
C2473 H2450 0.950 . S
C2473 C2472 1.334 . S
C2473 C2474 1.287 . S
C2474 C2473 1.287 . S
C2474 C2475 1.524 . S
C2474 H2493 0.913 . S
C2475 H2451 0.950 . S
C2475 C2474 1.524 . S
C2475 C2476 1.415 . S
C2476 H2452 0.950 . S
C2476 C2471 1.363 . S
C2476 C2475 1.415 . S
C2477 H2453 0.951 . S
C2477 C2478 1.366 . S
C2477 C2479 1.388 . S
C2478 C2477 1.366 . S
C2478 C2482 1.385 . S
C2479 H2454 0.951 . S
C2479 C2477 1.388 . S
C2479 C2480 1.366 . S
C2480 C2479 1.366 . S
C2480 C2481 1.414 . S
C2480 C2483 1.499 . S
C2481 H2455 0.950 . S
C2481 C2480 1.414 . S
C2481 C2482 1.374 . S
C2482 H2456 0.950 . S
C2482 C2478 1.385 . S
C2482 C2481 1.374 . S
C2483 C2480 1.499 . S
C2483 C2484 1.373 . S
C2483 C2485 1.389 . S
C2484 H2457 0.950 . S
C2484 C2470 1.377 . S
C2484 C2483 1.373 . S
C2485 C2469 1.377 . S
C2485 C2483 1.389 . S
C2485 C2486 1.524 . S
C2486 C2485 1.524 . S
C2486 C2487 1.397 . S
C2486 C2491 1.363 . S
C2487 H2458 0.950 . S
C2487 C2486 1.397 . S
C2487 C2488 1.334 . S
C2488 H2459 0.950 . S
C2488 C2487 1.334 . S
C2488 C2489 1.287 . S
C2489 C2488 1.287 . S
C2489 C2490 1.524 . S
C2489 H2492 0.999 . S
C2490 H2460 0.950 . S
C2490 C2489 1.524 . S
C2490 C2491 1.415 . S
C2491 H2461 0.950 . S
C2491 C2486 1.363 . S
C2491 C2490 1.415 . S
H2492 C2489 0.999 . S
H2493 C2474 0.913 . S
H2494 C2512 0.951 . S
H2495 C2514 0.951 . S
H2496 C2516 0.950 . S
H2497 C2517 0.950 . S
H2498 C2519 0.950 . S
H2499 C2522 0.950 . S
H2500 C2523 0.950 . S
H2501 C2525 0.950 . S
H2502 C2526 0.950 . S
H2503 C2527 0.951 . S
H2504 C2529 0.951 . S
H2505 C2531 0.950 . S
H2506 C2532 0.950 . S
H2507 C2534 0.950 . S
H2508 C2537 0.950 . S
H2509 C2538 0.950 . S
H2510 C2540 0.950 . S
H2511 C2541 0.950 . S
C2512 H2494 0.951 . S
C2512 C2513 1.366 . S
C2512 C2514 1.388 . S
C2513 C2512 1.366 . S
C2513 C2517 1.385 . S
C2514 H2495 0.951 . S
C2514 C2512 1.388 . S
C2514 C2515 1.366 . S
C2515 C2514 1.366 . S
C2515 C2516 1.414 . S
C2515 C2518 1.499 . S
C2516 H2496 0.950 . S
C2516 C2515 1.414 . S
C2516 C2517 1.374 . S
C2517 H2497 0.950 . S
C2517 C2513 1.385 . S
C2517 C2516 1.374 . S
C2518 C2515 1.499 . S
C2518 C2519 1.373 . S
C2518 C2520 1.389 . S
C2519 H2498 0.950 . S
C2519 C2518 1.373 . S
C2519 C2535 1.377 . S
C2520 C2518 1.389 . S
C2520 C2521 1.524 . S
C2520 C2534 1.377 . S
C2521 C2520 1.524 . S
C2521 C2522 1.397 . S
C2521 C2526 1.363 . S
C2522 H2499 0.950 . S
C2522 C2521 1.397 . S
C2522 C2523 1.334 . S
C2523 H2500 0.950 . S
C2523 C2522 1.334 . S
C2523 C2524 1.287 . S
C2524 C2523 1.287 . S
C2524 C2525 1.524 . S
C2524 H2543 0.913 . S
C2525 H2501 0.950 . S
C2525 C2524 1.524 . S
C2525 C2526 1.415 . S
C2526 H2502 0.950 . S
C2526 C2521 1.363 . S
C2526 C2525 1.415 . S
C2527 H2503 0.951 . S
C2527 C2528 1.366 . S
C2527 C2529 1.388 . S
C2528 C2527 1.366 . S
C2528 C2532 1.385 . S
C2529 H2504 0.951 . S
C2529 C2527 1.388 . S
C2529 C2530 1.366 . S
C2530 C2529 1.366 . S
C2530 C2531 1.414 . S
C2530 C2533 1.499 . S
C2531 H2505 0.950 . S
C2531 C2530 1.414 . S
C2531 C2532 1.374 . S
C2532 H2506 0.950 . S
C2532 C2528 1.385 . S
C2532 C2531 1.374 . S
C2533 C2530 1.499 . S
C2533 C2534 1.373 . S
C2533 C2535 1.389 . S
C2534 H2507 0.950 . S
C2534 C2520 1.377 . S
C2534 C2533 1.373 . S
C2535 C2519 1.377 . S
C2535 C2533 1.389 . S
C2535 C2536 1.524 . S
C2536 C2535 1.524 . S
C2536 C2537 1.397 . S
C2536 C2541 1.363 . S
C2537 H2508 0.950 . S
C2537 C2536 1.397 . S
C2537 C2538 1.334 . S
C2538 H2509 0.950 . S
C2538 C2537 1.334 . S
C2538 C2539 1.287 . S
C2539 C2538 1.287 . S
C2539 C2540 1.524 . S
C2539 H2542 0.999 . S
C2540 H2510 0.950 . S
C2540 C2539 1.524 . S
C2540 C2541 1.415 . S
C2541 H2511 0.950 . S
C2541 C2536 1.363 . S
C2541 C2540 1.415 . S
H2542 C2539 0.999 . S
H2543 C2524 0.913 . S
C563 C2 1.770 . S
C578 C512 1.770 . S
C613 C36 1.771 . S
C628 C410 1.770 . S
C663 C444 1.770 . S
C678 C70 1.770 . S
C713 C104 1.770 . S
C728 C478 1.770 . S
C763 C308 1.770 . S
C778 C138 1.771 . S
C813 C342 1.770 . S
C828 C172 1.770 . S
C863 C376 1.770 . S
C878 C206 1.770 . S
C913 C274 1.770 . S
C928 C240 1.770 . S
C963 C33 1.154 . S
C978 C271 1.154 . S
C1013 C67 1.154 . S
C1028 C169 1.154 . S
C1063 C101 1.154 . S
C1078 C203 1.154 . S
C1113 C135 1.154 . S
C1128 C237 1.154 . S
C1163 C543 1.154 . S
C1178 C305 1.153 . S
C1213 C441 1.154 . S
C1228 C339 1.154 . S
C1263 C475 1.154 . S
C1278 C373 1.154 . S
C1313 C407 1.154 . S
C1328 C509 1.153 . S
C1363 C20 1.532 . S
C1378 C156 1.531 . S
C1413 C190 1.532 . S
C1428 C54 1.531 . S
C1463 C224 1.531 . S
C1478 C88 1.531 . S
C1513 C122 1.531 . S
C1528 C258 1.532 . S
C1563 C428 1.531 . S
C1578 C292 1.532 . S
C1613 C326 1.531 . S
C1628 C462 1.532 . S
C1663 C360 1.531 . S
C1678 C496 1.532 . S
C1713 C530 1.531 . S
C1728 C394 1.531 . S
C1763 C5 1.157 . S
C1778 C9 1.123 . S
C1813 C43 1.124 . S
C1828 C39 1.157 . S
C1863 C73 1.157 . S
C1878 C77 1.125 . S
C1913 C111 1.124 . S
C1928 C107 1.157 . S
C1963 C141 1.157 . S
C1978 C145 1.125 . S
C2013 C175 1.157 . S
C2028 C179 1.124 . S
C2063 C209 1.157 . S
C2078 C213 1.124 . S
C2113 C243 1.157 . S
C2128 C247 1.124 . S
C2163 C281 1.125 . S
C2178 C277 1.157 . S
C2213 C315 1.125 . S
C2228 C311 1.157 . S
C2263 C349 1.125 . S
C2278 C345 1.157 . S
C2313 C383 1.125 . S
C2328 C379 1.157 . S
C2363 C413 1.157 . S
C2378 C417 1.123 . S
C2413 C447 1.157 . S
C2428 C451 1.124 . S
C2463 C485 1.123 . S
C2478 C481 1.157 . S
C2513 C519 1.123 . S
C2528 C515 1.157 . S
