# Generated by pormake.
# Topology srs, (3)-cn, num edge types: 1
# Building blocks:
#     Node 0, Type 0, BuildingBlock: WUSLED_clean_sbu_0, # of connection points: 3
#     Node 1, Type 0, BuildingBlock: WUSLED_clean_sbu_0, # of connection points: 3
#     Node 2, Type 0, BuildingBlock: WUSLED_clean_sbu_0, # of connection points: 3
#     Node 3, Type 0, BuildingBlock: WUSLED_clean_sbu_0, # of connection points: 3
#     Node 4, Type 0, BuildingBlock: WUSLED_clean_sbu_0, # of connection points: 3
#     Node 5, Type 0, BuildingBlock: WUSLED_clean_sbu_0, # of connection points: 3
#     Node 6, Type 0, BuildingBlock: WUSLED_clean_sbu_0, # of connection points: 3
#     Node 7, Type 0, BuildingBlock: WUSLED_clean_sbu_0, # of connection points: 3
#     Edge 8, Type (0, 0), BuildingBlock: ZUJKAS_clean_linker_0, # of connection points: 2
#     Edge 9, Type (0, 0), BuildingBlock: ZUJKAS_clean_linker_0, # of connection points: 2
#     Edge 10, Type (0, 0), BuildingBlock: ZUJKAS_clean_linker_0, # of connection points: 2
#     Edge 11, Type (0, 0), BuildingBlock: ZUJKAS_clean_linker_0, # of connection points: 2
#     Edge 12, Type (0, 0), BuildingBlock: ZUJKAS_clean_linker_0, # of connection points: 2
#     Edge 13, Type (0, 0), BuildingBlock: ZUJKAS_clean_linker_0, # of connection points: 2
#     Edge 14, Type (0, 0), BuildingBlock: ZUJKAS_clean_linker_0, # of connection points: 2
#     Edge 15, Type (0, 0), BuildingBlock: ZUJKAS_clean_linker_0, # of connection points: 2
#     Edge 16, Type (0, 0), BuildingBlock: ZUJKAS_clean_linker_0, # of connection points: 2
#     Edge 17, Type (0, 0), BuildingBlock: ZUJKAS_clean_linker_0, # of connection points: 2
#     Edge 18, Type (0, 0), BuildingBlock: ZUJKAS_clean_linker_0, # of connection points: 2
#     Edge 19, Type (0, 0), BuildingBlock: ZUJKAS_clean_linker_0, # of connection points: 2
# Relax obj value: 0.000
# Max RMSD: 0.008
# Mean RMSD: 0.008
data_MOF--net-srs--node1-WUSLED_clean_sbu_0--edge1-ZUJKAS_clean_linker_0
_symmetry_space_group_name_H-M    P1
_symmetry_Int_Tables_number       1
_symmetry_cell_setting            triclinic
loop_
_symmetry_equiv_pos_as_xyz
'x, y, z'
_cell_length_a     77.108607
_cell_length_b     77.343862
_cell_length_c     77.296364
_cell_angle_alpha  89.922141
_cell_angle_beta   90.040651
_cell_angle_gamma 90.007183
loop_
_atom_site_label
_atom_site_type_symbol
_atom_site_fract_x
_atom_site_fract_y
_atom_site_fract_z
_atom_type_partial_charge
C0 C 0.12971 0.1176 0.18494 0.0
C1 C 0.14189 0.10451 0.18167 0.0
C2 C 0.1339 0.08998 0.2086 0.0
C3 C 0.14394 0.0908 0.19339 0.0
C4 C 0.12179 0.10322 0.21177 0.0
C5 C 0.11973 0.11687 0.20006 0.0
U6 U 0.14201 0.14416 0.14466 0.0
O7 O 0.12504 0.15587 0.12495 0.0
O8 O 0.14177 0.17236 0.14089 0.0
C9 C 0.12938 0.17173 0.12921 0.0
C10 C 0.1271 0.13204 0.17276 0.0
C11 C 0.11488 0.18388 0.13167 0.0
C12 C 0.09129 0.1957 0.14888 0.0
C13 C 0.10493 0.18388 0.14687 0.0
C14 C 0.09735 0.2075 0.12048 0.0
C15 C 0.08732 0.20767 0.13569 0.0
C16 C 0.11097 0.19574 0.11852 0.0
C17 C 0.18145 0.13095 0.11713 0.0
C18 C 0.1967 0.14912 0.09637 0.0
C19 C 0.2018 0.11823 0.09678 0.0
C20 C 0.18995 0.11645 0.11036 0.0
C21 C 0.20549 0.13461 0.08969 0.0
C22 C 0.18477 0.1473 0.10994 0.0
C23 C 0.16951 0.12868 0.13188 0.0
O24 O 0.13903 0.14417 0.173 0.0
O25 O 0.12228 0.12773 0.15703 0.0
O26 O 0.15356 0.12413 0.12798 0.0
O27 O 0.17029 0.14053 0.14404 0.0
H28 H 0.14976 0.1049 0.17007 0.0
H29 H 0.15351 0.08094 0.19062 0.0
H30 H 0.11365 0.1029 0.22318 0.0
H31 H 0.11024 0.12683 0.20276 0.0
H32 H 0.08373 0.19534 0.16068 0.0
H33 H 0.10772 0.17476 0.15715 0.0
H34 H 0.09486 0.21667 0.11017 0.0
H35 H 0.11854 0.19595 0.10671 0.0
H36 H 0.1993 0.16194 0.09138 0.0
H37 H 0.20803 0.10672 0.09179 0.0
H38 H 0.18749 0.10371 0.11566 0.0
H39 H 0.1783 0.15868 0.11494 0.0
C40 C 0.12968 0.92064 0.35398 0.0
C41 C 0.14003 0.93496 0.35821 0.0
C42 C 0.13388 0.94806 0.3301 0.0
C43 C 0.14208 0.94858 0.34639 0.0
C44 C 0.12366 0.93357 0.32593 0.0
C45 C 0.12159 0.92003 0.33776 0.0
U46 U 0.14142 0.89424 0.39461 0.0
O47 O 0.12412 0.8828 0.41421 0.0
O48 O 0.14086 0.86607 0.39855 0.0
C49 C 0.12833 0.86688 0.41004 0.0
C50 C 0.12689 0.90633 0.36629 0.0
C51 C 0.11371 0.85488 0.4074 0.0
C52 C 0.09112 0.84233 0.38936 0.0
C53 C 0.10478 0.85409 0.39159 0.0
C54 C 0.09507 0.83221 0.41876 0.0
C55 C 0.0861 0.83122 0.40293 0.0
C56 C 0.10873 0.84391 0.42095 0.0
C57 C 0.18079 0.90716 0.42235 0.0
C58 C 0.19269 0.88968 0.44572 0.0
C59 C 0.2038 0.91853 0.44059 0.0
C60 C 0.19219 0.92053 0.42682 0.0
C61 C 0.20427 0.90305 0.4502 0.0
C62 C 0.18103 0.89173 0.43194 0.0
C63 C 0.16901 0.90952 0.40751 0.0
O64 O 0.13869 0.89408 0.36623 0.0
O65 O 0.12197 0.91078 0.38195 0.0
O66 O 0.15308 0.91421 0.41128 0.0
O67 O 0.16974 0.89753 0.39549 0.0
H68 H 0.14646 0.93563 0.37066 0.0
H69 H 0.15018 0.95944 0.34995 0.0
H70 H 0.11696 0.93283 0.31364 0.0
H71 H 0.11351 0.9091 0.33428 0.0
H72 H 0.08438 0.84205 0.37706 0.0
H73 H 0.1084 0.86253 0.38099 0.0
H74 H 0.09175 0.82371 0.4294 0.0
H75 H 0.11549 0.84431 0.43324 0.0
H76 H 0.19256 0.87768 0.45295 0.0
H77 H 0.21266 0.929 0.44349 0.0
H78 H 0.19223 0.93251 0.41954 0.0
H79 H 0.17226 0.88127 0.42872 0.0
C80 C 0.37742 0.93396 0.67201 0.0
C81 C 0.39144 0.93269 0.68353 0.0
C82 C 0.38082 0.95776 0.69955 0.0
C83 C 0.39312 0.94448 0.69721 0.0
C84 C 0.36675 0.95881 0.68798 0.0
C85 C 0.3651 0.94704 0.67437 0.0
U86 U 0.39126 0.89449 0.64502 0.0
O87 O 0.37506 0.87477 0.63242 0.0
O88 O 0.39176 0.89151 0.61667 0.0
C89 C 0.37959 0.87961 0.61675 0.0
C90 C 0.37543 0.92195 0.65736 0.0
C91 C 0.36531 0.88216 0.6043 0.0
C92 C 0.337 0.89375 0.59656 0.0
C93 C 0.35056 0.89191 0.60852 0.0
C94 C 0.35294 0.87634 0.57597 0.0
C95 C 0.33797 0.88589 0.58014 0.0
C96 C 0.36643 0.87449 0.58794 0.0
C97 C 0.43109 0.86767 0.65848 0.0
C98 C 0.4435 0.8445 0.64118 0.0
C99 C 0.45504 0.85057 0.66968 0.0
C100 C 0.44293 0.86387 0.67169 0.0
C101 C 0.45558 0.84076 0.65436 0.0
C102 C 0.43135 0.85784 0.64322 0.0
C103 C 0.41876 0.88203 0.66084 0.0
O104 O 0.3876 0.9227 0.64549 0.0
O105 O 0.37094 0.90604 0.66134 0.0
O106 O 0.40281 0.8776 0.66489 0.0
O107 O 0.41948 0.89442 0.64921 0.0
H108 H 0.40111 0.92267 0.68188 0.0
H109 H 0.40419 0.94337 0.70576 0.0
H110 H 0.35688 0.96864 0.68954 0.0
H111 H 0.35415 0.94817 0.66564 0.0
H112 H 0.32564 0.90106 0.60029 0.0
H113 H 0.34947 0.89797 0.62111 0.0
H114 H 0.35433 0.87038 0.56338 0.0
H115 H 0.37776 0.86699 0.5844 0.0
H116 H 0.44363 0.83733 0.62916 0.0
H117 H 0.46392 0.84789 0.68021 0.0
H118 H 0.44286 0.87126 0.68359 0.0
H119 H 0.42228 0.86059 0.63287 0.0
C120 C 0.38099 0.10412 0.86778 0.0
C121 C 0.38877 0.10934 0.8522 0.0
C122 C 0.38482 0.08042 0.84019 0.0
C123 C 0.39062 0.09761 0.83851 0.0
C124 C 0.37731 0.07523 0.85595 0.0
C125 C 0.3754 0.08697 0.86957 0.0
U126 U 0.39233 0.14467 0.89444 0.0
O127 O 0.37482 0.16411 0.90578 0.0
O128 O 0.39157 0.14849 0.92261 0.0
C129 C 0.37889 0.15983 0.92173 0.0
C130 C 0.37809 0.11634 0.88214 0.0
C131 C 0.36417 0.15709 0.93363 0.0
C132 C 0.34447 0.13826 0.94949 0.0
C133 C 0.3581 0.14045 0.93768 0.0
C134 C 0.34259 0.16931 0.95302 0.0
C135 C 0.33659 0.15267 0.95735 0.0
C136 C 0.35625 0.17147 0.94132 0.0
C137 C 0.43168 0.17261 0.88181 0.0
C138 C 0.44303 0.19628 0.89916 0.0
C139 C 0.4552 0.19046 0.87088 0.0
C140 C 0.4436 0.17672 0.86877 0.0
C141 C 0.45514 0.2004 0.88613 0.0
C142 C 0.43138 0.18253 0.897 0.0
C143 C 0.41995 0.15776 0.87937 0.0
O144 O 0.38981 0.11626 0.89449 0.0
O145 O 0.37305 0.13199 0.87777 0.0
O146 O 0.40403 0.16149 0.87459 0.0
O147 O 0.42067 0.14571 0.89136 0.0
H148 H 0.39328 0.12251 0.85057 0.0
H149 H 0.39664 0.10198 0.82663 0.0
H150 H 0.3725 0.06218 0.85764 0.0
H151 H 0.36932 0.08269 0.88147 0.0
H152 H 0.34003 0.12529 0.95238 0.0
H153 H 0.36393 0.12915 0.93181 0.0
H154 H 0.33697 0.18067 0.95897 0.0
H155 H 0.36076 0.18442 0.93839 0.0
H156 H 0.44248 0.20377 0.91097 0.0
H157 H 0.46448 0.19306 0.86069 0.0
H158 H 0.44406 0.16917 0.85698 0.0
H159 H 0.42221 0.17957 0.9072 0.0
C160 C 0.62973 0.42142 0.85469 0.0
C161 C 0.64237 0.43415 0.85757 0.0
C162 C 0.6336 0.44918 0.83115 0.0
C163 C 0.64427 0.44794 0.84591 0.0
C164 C 0.62099 0.43631 0.82839 0.0
C165 C 0.61909 0.42259 0.84004 0.0
U166 U 0.64265 0.39457 0.8946 0.0
O167 O 0.62607 0.38246 0.91433 0.0
O168 O 0.64269 0.36628 0.89799 0.0
C169 C 0.63042 0.36668 0.90977 0.0
C170 C 0.62734 0.40686 0.86677 0.0
C171 C 0.61599 0.35442 0.90727 0.0
C172 C 0.58774 0.3469 0.89538 0.0
C173 C 0.60145 0.35868 0.89719 0.0
C174 C 0.6031 0.32642 0.91351 0.0
C175 C 0.58835 0.33063 0.90361 0.0
C176 C 0.61674 0.3382 0.91532 0.0
C177 C 0.68233 0.40776 0.92174 0.0
C178 C 0.69184 0.39244 0.94757 0.0
C179 C 0.70801 0.41726 0.9373 0.0
C180 C 0.69633 0.41915 0.92358 0.0
C181 C 0.70592 0.4039 0.94952 0.0
C182 C 0.68014 0.39436 0.9338 0.0
C183 C 0.67025 0.41012 0.90715 0.0
O184 O 0.63935 0.39482 0.8663 0.0
O185 O 0.62268 0.411 0.88258 0.0
O186 O 0.65431 0.41447 0.91129 0.0
O187 O 0.67096 0.3983 0.89498 0.0
H188 H 0.65075 0.43342 0.8688 0.0
H189 H 0.65423 0.45751 0.84836 0.0
H190 H 0.61236 0.43697 0.81734 0.0
H191 H 0.60922 0.41291 0.83764 0.0
H192 H 0.57655 0.35065 0.88779 0.0
H193 H 0.60064 0.37115 0.89084 0.0
H194 H 0.60421 0.31393 0.91975 0.0
H195 H 0.6279 0.33464 0.92307 0.0
H196 H 0.68972 0.38212 0.95681 0.0
H197 H 0.71883 0.42614 0.93819 0.0
H198 H 0.69827 0.42953 0.91434 0.0
H199 H 0.66937 0.38545 0.93259 0.0
C200 C 0.87862 0.43345 0.17231 0.0
C201 C 0.89352 0.43314 0.18276 0.0
C202 C 0.88183 0.45652 0.20049 0.0
C203 C 0.89513 0.44461 0.19671 0.0
C204 C 0.86697 0.45671 0.18991 0.0
C205 C 0.8654 0.4453 0.17598 0.0
U206 U 0.89243 0.39438 0.14476 0.0
O207 O 0.87615 0.37452 0.13243 0.0
O208 O 0.89237 0.39146 0.11642 0.0
C209 C 0.88036 0.37941 0.11669 0.0
C210 C 0.87654 0.4216 0.15754 0.0
C211 C 0.8658 0.38188 0.10458 0.0
C212 C 0.83928 0.39649 0.09576 0.0
C213 C 0.85301 0.39445 0.10749 0.0
C214 C 0.85104 0.37346 0.07811 0.0
C215 C 0.8381 0.38599 0.08092 0.0
C216 C 0.86472 0.37144 0.08983 0.0
C217 C 0.93269 0.3678 0.15736 0.0
C218 C 0.94038 0.33987 0.14509 0.0
C219 C 0.96072 0.35485 0.16366 0.0
C220 C 0.94888 0.3684 0.16558 0.0
C221 C 0.95661 0.34033 0.15348 0.0
C222 C 0.92854 0.35349 0.147 0.0
C223 C 0.92035 0.38211 0.15997 0.0
O224 O 0.88852 0.42255 0.14549 0.0
O225 O 0.87224 0.40562 0.16145 0.0
O226 O 0.9045 0.37765 0.16439 0.0
O227 O 0.92078 0.39451 0.14833 0.0
H228 H 0.90385 0.42402 0.18014 0.0
H229 H 0.90666 0.44398 0.20468 0.0
H230 H 0.8566 0.46586 0.19224 0.0
H231 H 0.85383 0.44576 0.16802 0.0
H232 H 0.82948 0.40615 0.09844 0.0
H233 H 0.85364 0.40263 0.11885 0.0
H234 H 0.85075 0.36534 0.06671 0.0
H235 H 0.87452 0.36172 0.08733 0.0
H236 H 0.93669 0.32885 0.13728 0.0
H237 H 0.97318 0.35584 0.17005 0.0
H238 H 0.95236 0.37939 0.17355 0.0
H239 H 0.91609 0.35279 0.14051 0.0
C240 C 0.87927 0.60316 0.36854 0.0
C241 C 0.88937 0.60714 0.35396 0.0
C242 C 0.88245 0.57908 0.34119 0.0
C243 C 0.89094 0.5952 0.3404 0.0
C244 C 0.87262 0.57512 0.35602 0.0
C245 C 0.87104 0.58704 0.36951 0.0
U246 U 0.89204 0.64353 0.39485 0.0
O247 O 0.87519 0.66363 0.406 0.0
O248 O 0.89128 0.64754 0.423 0.0
C249 C 0.87908 0.65936 0.42201 0.0
C250 C 0.8768 0.61564 0.38273 0.0
C251 C 0.86426 0.65709 0.43383 0.0
C252 C 0.84098 0.63965 0.44599 0.0
C253 C 0.85476 0.64161 0.43432 0.0
C254 C 0.84592 0.66869 0.4566 0.0
C255 C 0.83641 0.65317 0.45732 0.0
C256 C 0.8597 0.67061 0.44498 0.0
C257 C 0.93254 0.66989 0.38231 0.0
C258 C 0.93978 0.69858 0.39303 0.0
C259 C 0.96105 0.68216 0.37692 0.0
C260 C 0.9492 0.66859 0.37521 0.0
C261 C 0.95649 0.69741 0.38575 0.0
C262 C 0.92791 0.68493 0.39134 0.0
C263 C 0.92026 0.65546 0.37995 0.0
O264 O 0.88847 0.61525 0.39512 0.0
O265 O 0.87243 0.63142 0.37812 0.0
O266 O 0.9045 0.65966 0.37497 0.0
O267 O 0.92048 0.6435 0.39203 0.0
H268 H 0.89586 0.61952 0.35298 0.0
H269 H 0.8985 0.59876 0.32914 0.0
H270 H 0.86617 0.56274 0.35727 0.0
H271 H 0.86328 0.58369 0.38071 0.0
H272 H 0.83382 0.62761 0.44605 0.0
H273 H 0.85805 0.63104 0.42574 0.0
H274 H 0.84296 0.67928 0.46526 0.0
H275 H 0.8669 0.68264 0.44481 0.0
H276 H 0.93574 0.71015 0.39979 0.0
H277 H 0.97388 0.68062 0.37143 0.0
H278 H 0.95304 0.65704 0.36828 0.0
H279 H 0.91511 0.68618 0.39696 0.0
C280 C 0.63069 0.61884 0.68605 0.0
C281 C 0.64095 0.60451 0.68165 0.0
C282 C 0.63469 0.59107 0.70958 0.0
C283 C 0.64289 0.59072 0.69329 0.0
C284 C 0.62453 0.60556 0.7139 0.0
C285 C 0.62256 0.61927 0.70225 0.0
U286 U 0.6432 0.64609 0.64622 0.0
O287 O 0.62642 0.65843 0.62677 0.0
O288 O 0.64318 0.67443 0.64321 0.0
C289 C 0.63072 0.67416 0.6316 0.0
C290 C 0.62817 0.63343 0.67402 0.0
C291 C 0.61634 0.68646 0.63444 0.0
C292 C 0.58647 0.69298 0.64235 0.0
C293 C 0.59998 0.68101 0.64032 0.0
C294 C 0.60558 0.716 0.63299 0.0
C295 C 0.5891 0.71063 0.63869 0.0
C296 C 0.61901 0.70404 0.63087 0.0
C297 C 0.68308 0.63337 0.61897 0.0
C298 C 0.69036 0.64468 0.59047 0.0
C299 C 0.71133 0.62755 0.60631 0.0
C300 C 0.69955 0.62579 0.61995 0.0
C301 C 0.70687 0.63691 0.59132 0.0
C302 C 0.67857 0.64294 0.60418 0.0
C303 C 0.67087 0.6309 0.63344 0.0
O304 O 0.64008 0.64557 0.67455 0.0
O305 O 0.62343 0.62941 0.65819 0.0
O306 O 0.65493 0.62651 0.62925 0.0
O307 O 0.67155 0.64255 0.64578 0.0
H308 H 0.64742 0.60398 0.66922 0.0
H309 H 0.65094 0.57986 0.68962 0.0
H310 H 0.61784 0.60618 0.72619 0.0
H311 H 0.61457 0.6302 0.70587 0.0
H312 H 0.57401 0.68844 0.64695 0.0
H313 H 0.59762 0.66752 0.64327 0.0
H314 H 0.60802 0.72943 0.62985 0.0
H315 H 0.63151 0.70852 0.62628 0.0
H316 H 0.68641 0.65186 0.5791 0.0
H317 H 0.72401 0.62167 0.60761 0.0
H318 H 0.70331 0.61844 0.63129 0.0
H319 H 0.66591 0.64893 0.60319 0.0
H320 H 0.13342 0.98293 0.33677 0.0
H321 H 0.13488 1.00675 0.3159 0.0
H322 H 0.13983 0.9701 0.27422 0.0
H323 H 0.13843 0.94624 0.29496 0.0
H324 H 0.16032 1.01591 0.29174 0.0
H325 H 0.09845 0.99934 0.25896 0.0
H326 H 0.10465 0.99009 0.2795 0.0
H327 H 0.11383 0.98193 0.25976 0.0
C328 C 0.13499 0.97993 0.32318 0.0
C329 C 0.13565 0.96264 0.31755 0.0
C330 C 0.13575 0.99356 0.31125 0.0
C331 C 0.13713 0.99021 0.29345 0.0
C332 C 0.13832 0.973 0.28784 0.0
H333 H 0.13806 0.05548 0.20136 0.0
H334 H 0.14009 0.0314 0.22187 0.0
C335 C 0.13752 0.95937 0.29973 0.0
C336 C 0.13725 1.00471 0.28077 0.0
H337 H 0.11535 0.02148 0.24614 0.0
C338 C 0.15047 1.01717 0.2818 0.0
C339 C 0.12439 1.00633 0.26778 0.0
C340 C 0.10943 0.99382 0.26647 0.0
C341 C 0.15131 0.03105 0.27005 0.0
C342 C 0.13843 0.03268 0.25708 0.0
C343 C 0.12526 0.02018 0.25603 0.0
C344 C 0.13811 0.04743 0.2447 0.0
C345 C 0.16617 0.04366 0.27141 0.0
C346 C 0.13628 0.06445 0.25069 0.0
C347 C 0.13519 0.07825 0.23901 0.0
C348 C 0.13582 0.07533 0.22104 0.0
C349 C 0.13777 0.05825 0.21509 0.0
C350 C 0.13882 0.04445 0.2268 0.0
H351 H 0.17728 0.03807 0.27867 0.0
H352 H 0.17074 0.04771 0.2584 0.0
H353 H 0.16174 0.05536 0.27843 0.0
H354 H 0.13538 0.06706 0.26443 0.0
H355 H 0.13385 0.09123 0.24407 0.0
H356 H 0.22364 0.87437 0.45823 0.0
H357 H 0.24524 0.87121 0.48125 0.0
H358 H 0.23589 0.92374 0.4973 0.0
H359 H 0.21393 0.92686 0.47468 0.0
H360 H 0.2755 0.89026 0.4856 0.0
H361 H 0.23286 0.89731 0.54294 0.0
H362 H 0.22446 0.89315 0.52153 0.0
H363 H 0.23099 0.91464 0.52756 0.0
C364 C 0.22595 0.88516 0.46685 0.0
C365 C 0.21698 0.90086 0.4646 0.0
C366 C 0.23839 0.88336 0.47993 0.0
C367 C 0.24205 0.89716 0.49116 0.0
C368 C 0.23308 0.91281 0.48902 0.0
H369 H 0.31779 0.9144 0.5731 0.0
H370 H 0.29451 0.91703 0.55168 0.0
C371 C 0.22066 0.91463 0.47593 0.0
C372 C 0.25578 0.89542 0.5046 0.0
H373 H 0.26325 0.89772 0.54815 0.0
C374 C 0.2728 0.89178 0.49928 0.0
C375 C 0.25227 0.89749 0.52245 0.0
C376 C 0.23413 0.90071 0.52902 0.0
C377 C 0.28644 0.89044 0.51128 0.0
C378 C 0.28293 0.8925 0.52913 0.0
C379 C 0.26592 0.89617 0.53446 0.0
C380 C 0.29675 0.89074 0.54246 0.0
C381 C 0.30457 0.8872 0.50471 0.0
C382 C 0.30551 0.87498 0.54464 0.0
C383 C 0.31874 0.87339 0.55693 0.0
C384 C 0.32349 0.88752 0.56739 0.0
C385 C 0.31442 0.9032 0.5654 0.0
C386 C 0.30115 0.90477 0.5531 0.0
H387 H 0.3058 0.89029 0.49073 0.0
H388 H 0.3142 0.89499 0.51202 0.0
H389 H 0.30783 0.87333 0.5065 0.0
H390 H 0.30207 0.86387 0.53685 0.0
H391 H 0.32514 0.86101 0.55834 0.0
H392 H 0.39097 0.95182 0.73316 0.0
H393 H 0.39269 0.97272 0.7569 0.0
H394 H 0.37638 1.01337 0.72233 0.0
H395 H 0.37474 0.99266 0.69855 0.0
H396 H 0.41211 1.00329 0.76036 0.0
H397 H 0.34153 1.01709 0.76201 0.0
H398 H 0.35048 0.99883 0.75057 0.0
H399 H 0.35123 0.02007 0.74111 0.0
C400 C 0.38789 0.96523 0.73056 0.0
C401 C 0.38254 0.9705 0.71395 0.0
C402 C 0.38881 0.97715 0.74417 0.0
C403 C 0.38435 0.99455 0.74148 0.0
C404 C 0.37947 0.99994 0.72483 0.0
H405 H 0.37819 0.08644 0.80584 0.0
H406 H 0.37916 0.06573 0.78193 0.0
C407 C 0.37852 0.98805 0.71124 0.0
C408 C 0.3848 1.00711 0.75604 0.0
H409 H 0.35956 0.03516 0.77908 0.0
C410 C 0.40061 1.0102 0.76452 0.0
C411 C 0.36978 1.01612 0.76147 0.0
C412 C 0.35225 1.01278 0.75345 0.0
C413 C 0.40188 0.02232 0.77803 0.0
C414 C 0.38688 0.0314 0.78337 0.0
C415 C 0.37107 0.02826 0.77492 0.0
C416 C 0.38721 0.04411 0.79779 0.0
C417 C 0.41934 0.02558 0.78621 0.0
C418 C 0.39139 0.03884 0.81468 0.0
C419 C 0.39089 0.05066 0.82837 0.0
C420 C 0.38616 0.06801 0.82548 0.0
C421 C 0.38213 0.07326 0.80851 0.0
C422 C 0.38256 0.06141 0.79483 0.0
H423 H 0.43013 0.02097 0.77789 0.0
H424 H 0.42123 0.03957 0.78885 0.0
H425 H 0.42008 1.01855 0.79871 0.0
H426 H 0.39474 0.0255 0.81733 0.0
H427 H 0.3942 0.0462 0.84124 0.0
H428 H 0.20444 0.15614 0.06132 0.0
H429 H 0.2261 0.15909 0.03833 0.0
H430 H 0.25777 0.12029 0.06295 0.0
H431 H 0.23645 0.11748 0.08613 0.0
H432 H 0.2621 0.16789 0.04158 0.0
H433 H 0.25293 0.10288 1.01259 0.0
H434 H 0.23724 0.11252 0.02699 0.0
H435 H 0.25666 0.1029 0.03554 0.0
C436 C 0.21606 0.14831 0.06194 0.0
C437 C 0.21859 0.13649 0.07558 0.0
C438 C 0.22838 0.14995 0.04872 0.0
C439 C 0.24341 0.13971 0.04877 0.0
C440 C 0.24609 0.12804 0.06243 0.0
H441 H 0.3344 0.12886 0.98359 0.0
H442 H 0.3116 0.12602 1.00544 0.0
C443 C 0.23383 0.12644 0.07567 0.0
C444 C 0.25653 0.1415 0.0348 0.0
H445 H 0.27686 0.11927 1.00246 0.0
C446 C 0.26527 0.15731 0.03294 0.0
C447 C 0.26069 0.12765 0.0236 0.0
C448 C 0.25131 0.11056 0.02462 0.0
C449 C 0.27834 0.15953 0.02045 0.0
C450 C 0.28252 0.14567 1.00923 0.0
C451 C 0.27369 0.12988 1.01104 0.0
C452 C 0.29612 0.14722 0.99565 0.0
C453 C 0.28792 0.17653 1.01978 0.0
C454 C 0.29486 0.15985 0.98263 0.0
C455 C 0.30789 0.16151 0.97014 0.0
C456 C 0.32238 0.15045 0.97025 0.0
C457 C 0.32337 0.13751 0.98303 0.0
C458 C 0.31037 0.13592 0.99558 0.0
H459 H 0.28661 0.18384 0.03207 0.0
H460 H 0.30192 0.17453 1.01711 0.0
H461 H 0.28242 0.18461 1.00925 0.0
H462 H 0.28376 0.16841 0.9821 0.0
H463 H 0.30655 0.1714 0.96029 0.0
H464 H 0.96425 0.32124 0.12447 0.0
H465 H 0.98522 0.29764 0.1217 0.0
H466 H 0.99906 0.30334 0.17544 0.0
H467 H 0.9777 0.32643 0.17851 0.0
H468 H 0.02053 0.29864 0.12677 0.0
H469 H 0.99073 0.25166 0.17209 0.0
H470 H 0.97925 0.27039 0.16415 0.0
H471 H 0.99458 0.27248 0.18157 0.0
C472 C 0.97153 0.31729 0.13579 0.0
C473 C 0.96921 0.32576 0.15173 0.0
C474 C 0.98362 0.30386 0.13415 0.0
C475 C 0.99356 0.29852 0.14842 0.0
C476 C 0.99131 0.30696 0.16433 0.0
H477 H 0.07838 0.22619 0.16466 0.0
H478 H 0.05546 0.24792 0.16752 0.0
C479 C 0.97923 0.32036 0.16599 0.0
C480 C 1.00676 0.28461 0.14652 0.0
H481 H 0.01935 0.24529 0.16245 0.0
C482 C 0.02019 0.28692 0.13448 0.0
C483 C 1.00637 0.26933 0.15663 0.0
C484 C 0.99188 0.2657 0.16922 0.0
C485 C 0.03343 0.27458 0.13253 0.0
C486 C 0.03308 0.25934 0.14269 0.0
C487 C 0.01963 0.25699 0.1547 0.0
C488 C 0.0466 0.24571 0.14106 0.0
C489 C 0.04791 0.27817 0.1199 0.0
C490 C 0.049 0.23696 0.12534 0.0
C491 C 0.06204 0.2245 0.12368 0.0
C492 C 0.07293 0.22041 0.13774 0.0
C493 C 0.07018 0.22889 0.15361 0.0
C494 C 0.05713 0.24139 0.15525 0.0
H495 H 0.04868 0.2921 0.11648 0.0
H496 H 0.06061 0.27403 0.12527 0.0
H497 H 0.04554 0.2708 0.10782 0.0
H498 H 0.04076 0.23977 0.11434 0.0
H499 H 0.06353 0.21798 0.11138 0.0
H500 H 0.4659 0.22425 0.8621 0.0
H501 H 0.488 0.24669 0.86547 0.0
H502 H 0.49496 0.23197 0.91884 0.0
H503 H 0.47327 0.20913 0.91544 0.0
H504 H 0.48958 0.27495 0.88788 0.0
H505 H 0.54433 0.22984 0.89967 0.0
H506 H 0.52368 0.22272 0.89128 0.0
H507 H 0.52625 0.22693 0.91401 0.0
C508 C 0.47223 0.22567 0.87453 0.0
C509 C 0.46789 0.21474 0.88845 0.0
C510 C 0.48478 0.2386 0.87646 0.0
C511 C 0.49336 0.24084 0.89232 0.0
C512 C 0.48876 0.23027 0.90638 0.0
H513 H 0.57485 0.30938 0.92868 0.0
H514 H 0.55154 0.28816 0.92581 0.0
C515 C 0.47619 0.21734 0.90447 0.0
C516 C 0.50713 0.25421 0.8941 0.0
H517 H 0.55013 0.2597 0.90336 0.0
C518 C 0.50283 0.27162 0.89121 0.0
C519 C 0.52443 0.24985 0.89841 0.0
C520 C 0.53005 0.23131 0.90088 0.0
C521 C 0.5153 0.28481 0.89282 0.0
C522 C 0.53258 0.28045 0.89718 0.0
C523 C 0.53687 0.26304 0.90006 0.0
C524 C 0.54645 0.29371 0.89886 0.0
C525 C 0.50978 0.30335 0.89021 0.0
C526 C 0.55146 0.30384 0.88461 0.0
C527 C 0.56491 0.31592 0.88616 0.0
C528 C 0.57371 0.31808 0.90198 0.0
C529 C 0.56858 0.30792 0.91623 0.0
C530 C 0.55517 0.29584 0.91465 0.0
H531 H 0.49549 0.30487 0.89123 0.0
H532 H 0.51606 0.31195 0.89985 0.0
H533 H 0.51378 0.30768 0.87712 0.0
H534 H 0.54517 0.30217 0.87219 0.0
H535 H 0.56866 0.32329 0.87485 0.0
H536 H 0.07923 0.81092 0.37463 0.0
H537 H 0.05625 0.78932 0.37128 0.0
H538 H 0.038 0.80047 0.42278 0.0
H539 H 0.06057 0.82242 0.42604 0.0
H540 H 0.05102 0.75982 0.39122 0.0
H541 H 0.99341 0.80265 0.39437 0.0
H542 H 1.01504 0.81083 0.39079 0.0
H543 H 1.00809 0.80511 0.41224 0.0
C544 C 0.07014 0.80901 0.38513 0.0
C545 C 0.07175 0.81847 0.40059 0.0
C546 C 0.05708 0.79656 0.38324 0.0
C547 C 0.04525 0.7934 0.39669 0.0
C548 C 0.04677 0.80287 0.4121 0.0
H549 H 0.96248 0.7186 0.4137 0.0
H550 H 0.98383 0.74193 0.41619 0.0
C551 C 0.05983 0.81529 0.41402 0.0
C552 C 0.03183 0.77969 0.39489 0.0
H553 H 0.9881 0.77239 0.39576 0.0
C554 C 0.03726 0.76259 0.3921 0.0
C555 C 1.01387 0.78329 0.39612 0.0
C556 C 1.0072 0.80148 0.39839 0.0
C557 C 0.02526 0.74897 0.3908 0.0
C558 C 1.00731 0.75256 0.39205 0.0
C559 C 1.00186 0.76965 0.39485 0.0
C560 C 0.99401 0.73875 0.39032 0.0
C561 C 0.03193 0.73077 0.3885 0.0
C562 C 0.99238 0.72944 0.37484 0.0
C563 C 0.98013 0.71619 0.37332 0.0
C564 C 0.96916 0.71195 0.38726 0.0
C565 C 0.97058 0.72157 0.40265 0.0
C566 C 0.98284 0.73486 0.40414 0.0
H567 H 0.04583 0.72965 0.39213 0.0
H568 H 0.02431 0.72149 0.3964 0.0
H569 H 0.03063 0.72701 0.37471 0.0
H570 H 1.00059 0.73247 0.36387 0.0
H571 H 0.97917 0.70935 0.36114 0.0
H572 H 0.55497 0.70705 0.62918 0.0
H573 H 0.53178 0.72862 0.63123 0.0
H574 H 0.56749 0.76459 0.65461 0.0
H575 H 0.59071 0.74317 0.65255 0.0
H576 H 0.51765 0.74545 0.65935 0.0
H577 H 0.54795 0.79289 0.61487 0.0
H578 H 0.55552 0.77089 0.61674 0.0
H579 H 0.56178 0.78679 0.63252 0.0
C580 C 0.55786 0.71951 0.63487 0.0
C581 C 0.57476 0.72342 0.64056 0.0
C582 C 0.5446 0.73186 0.63596 0.0
C583 C 0.54796 0.74836 0.64274 0.0
C584 C 0.56468 0.75212 0.64888 0.0
H585 H 0.48978 0.84139 0.66402 0.0
H586 H 0.51137 0.81845 0.66109 0.0
C587 C 0.57795 0.73984 0.64772 0.0
C588 C 0.53397 0.76161 0.64356 0.0
H589 H 0.5236 0.80273 0.631 0.0
C590 C 0.51888 0.75793 0.65304 0.0
C591 C 0.53556 0.77788 0.63528 0.0
C592 C 0.55099 0.78232 0.62414 0.0
C593 C 0.50559 0.77025 0.65491 0.0
C594 C 0.50732 0.78662 0.64687 0.0
C595 C 0.52231 0.79021 0.63721 0.0
C596 C 0.49396 0.80038 0.64867 0.0
C597 C 0.49005 0.76583 0.66592 0.0
C598 C 0.47701 0.79796 0.64247 0.0
C599 C 0.46456 0.81104 0.64422 0.0
C600 C 0.46883 0.82686 0.65216 0.0
C601 C 0.48592 0.82929 0.65812 0.0
C602 C 0.49833 0.81623 0.65635 0.0
H603 H 0.49257 0.75451 0.67442 0.0
H604 H 0.48624 0.77699 0.67411 0.0
H605 H 0.47894 0.76261 0.65738 0.0
H606 H 0.47341 0.78597 0.63621 0.0
H607 H 0.45153 0.80867 0.63956 0.0
H608 H 0.6393 0.59257 0.74473 0.0
H609 H 0.64081 0.56852 0.76525 0.0
H610 H 0.63546 0.53229 0.72324 0.0
H611 H 0.63392 0.55628 0.70262 0.0
H612 H 0.61612 0.54381 0.7717 0.0
H613 H 0.67685 0.51267 0.74928 0.0
H614 H 0.67064 0.53421 0.74272 0.0
H615 H 0.66104 0.51565 0.73249 0.0
C616 C 0.63845 0.57949 0.73983 0.0
C617 C 0.63649 0.57638 0.72199 0.0
C618 C 0.63939 0.56574 0.75158 0.0
C619 C 0.63848 0.54857 0.74579 0.0
C620 C 0.63661 0.5454 0.728 0.0
H621 H 0.63203 0.44823 0.7957 0.0
H622 H 0.6334 0.47253 0.77546 0.0
C623 C 0.63572 0.55915 0.71621 0.0
C624 C 0.63865 0.53406 0.75848 0.0
H625 H 0.65991 0.49688 0.76961 0.0
C626 C 0.62577 0.53361 0.77132 0.0
C627 C 0.65121 0.52073 0.75796 0.0
C628 C 0.66582 0.52087 0.74498 0.0
C629 C 0.6249 0.52004 0.7834 0.0
C630 C 0.63741 0.50667 0.78284 0.0
C631 C 0.65032 0.50713 0.77003 0.0
C632 C 0.63711 0.49194 0.79523 0.0
C633 C 0.61029 0.5199 0.79639 0.0
C634 C 0.63905 0.49472 0.81308 0.0
C635 C 0.63816 0.48085 0.82472 0.0
C636 C 0.63538 0.46389 0.81875 0.0
C637 C 0.63388 0.46114 0.8008 0.0
C638 C 0.63479 0.475 0.78918 0.0
H639 H 0.59952 0.5286 0.79245 0.0
H640 H 0.60505 0.50664 0.79811 0.0
H641 H 0.61525 0.52441 0.80908 0.0
H642 H 0.64116 0.50764 0.81803 0.0
H643 H 0.63928 0.48348 0.83844 0.0
H644 H 0.82005 0.3606 0.06388 0.0
H645 H 0.79719 0.36406 0.04221 0.0
H646 H 0.79975 0.41941 0.04816 0.0
H647 H 0.82306 0.41612 0.06941 0.0
H648 H 0.76469 0.37928 0.04461 0.0
H649 H 0.80522 0.4134 0.99604 0.0
H650 H 0.81441 0.40233 1.01445 0.0
H651 H 0.80498 0.42343 1.01697 0.0
C652 C 0.8159 0.37353 0.06046 0.0
C653 C 0.82356 0.38808 0.0683 0.0
C654 C 0.80272 0.37548 0.04815 0.0
C655 C 0.79694 0.392 0.04333 0.0
C656 C 0.80423 0.40654 0.05141 0.0
H657 H 0.72087 0.42949 0.96905 0.0
H658 H 0.74233 0.4264 0.99215 0.0
C659 C 0.81743 0.40462 0.06373 0.0
C660 C 0.78326 0.39395 0.02987 0.0
H661 H 0.77516 0.41144 0.99004 0.0
C662 C 0.76699 0.38627 0.03266 0.0
C663 C 0.78627 0.40305 1.01425 0.0
C664 C 0.8037 0.4109 1.01012 0.0
C665 C 0.75357 0.38769 0.0204 0.0
C666 C 0.75658 0.3968 1.00479 0.0
C667 C 0.77284 0.4045 1.00202 0.0
C668 C 0.7431 0.39847 0.99111 0.0
C669 C 0.73617 0.37972 0.02441 0.0
C670 C 0.73643 0.3838 0.98274 0.0
C671 C 0.7242 0.38551 0.96943 0.0
C672 C 0.71847 0.40197 0.96412 0.0
C673 C 0.72514 0.41663 0.97262 0.0
C674 C 0.73736 0.41489 0.9859 0.0
H675 H 0.73458 0.37722 0.03848 0.0
H676 H 0.72543 0.38822 0.01999 0.0
H677 H 0.73503 0.36718 1.01755 0.0
H678 H 0.74094 0.37101 0.98627 0.0
H679 H 0.71958 0.37396 0.96302 0.0
H680 H 0.85656 0.46589 0.22355 0.0
H681 H 0.85862 0.4867 0.24723 0.0
H682 H 0.91257 0.49517 0.23535 0.0
H683 H 0.91051 0.47471 0.21126 0.0
H684 H 0.8801 0.4862 0.27639 0.0
H685 H 0.8927 0.54437 0.23601 0.0
H686 H 0.88482 0.52433 0.22699 0.0
H687 H 0.90732 0.52661 0.2326 0.0
C688 C 0.86884 0.4723 0.22583 0.0
C689 C 0.88333 0.46872 0.21536 0.0
C690 C 0.87002 0.48412 0.23946 0.0
C691 C 0.88567 0.49271 0.24292 0.0
C692 C 0.90027 0.48895 0.23274 0.0
H693 H 0.91077 0.57104 0.32106 0.0
H694 H 0.9124 0.54996 0.29745 0.0
C695 C 0.89912 0.47709 0.21909 0.0
C696 C 0.88663 0.50542 0.25731 0.0
H697 H 0.89328 0.54819 0.26633 0.0
C698 C 0.883 0.49975 0.27419 0.0
C699 C 0.89049 0.5231 0.25445 0.0
C700 C 0.89392 0.53006 0.23653 0.0
C701 C 0.88309 0.51124 0.28826 0.0
C702 C 0.88661 0.52898 0.28535 0.0
C703 C 0.89057 0.5346 0.26853 0.0
C704 C 0.88561 0.54195 0.2995 0.0
C705 C 0.87958 0.50426 0.30615 0.0
C706 C 0.86992 0.54472 0.30826 0.0
C707 C 0.86891 0.5568 0.32166 0.0
C708 C 0.88356 0.56648 0.3266 0.0
C709 C 0.8992 0.56392 0.31755 0.0
C710 C 0.90019 0.55181 0.30411 0.0
H711 H 0.88198 0.49011 0.3069 0.0
H712 H 0.88778 0.51083 0.31596 0.0
H713 H 0.86578 0.50658 0.3095 0.0
H714 H 0.85838 0.53759 0.30465 0.0
H715 H 0.85655 0.55869 0.32803 0.0
H716 H 0.82858 0.62472 0.4771 0.0
H717 H 0.80555 0.62173 0.49869 0.0
H718 H 0.78907 0.67403 0.48853 0.0
H719 H 0.8117 0.67697 0.46658 0.0
H720 H 0.80114 0.64116 0.52855 0.0
H721 H 0.7435 0.64732 0.48599 0.0
H722 H 0.76496 0.64317 0.47765 0.0
H723 H 0.75879 0.6647 0.48386 0.0
C724 C 0.81987 0.63549 0.47922 0.0
C725 C 0.822 0.65108 0.47004 0.0
C726 C 0.80678 0.6338 0.49166 0.0
C727 C 0.79543 0.64757 0.49509 0.0
C728 C 0.79745 0.66311 0.4859 0.0
H729 H 0.7135 0.66523 0.57074 0.0
H730 H 0.73477 0.66773 0.54734 0.0
C731 C 0.81055 0.66483 0.47349 0.0
C732 C 0.78201 0.64595 0.50883 0.0
H733 H 0.73835 0.64807 0.51631 0.0
C734 C 0.7874 0.64257 0.52586 0.0
C735 C 0.76408 0.64787 0.50532 0.0
C736 C 0.75742 0.65081 0.4872 0.0
C737 C 0.77542 0.64132 0.53949 0.0
C738 C 0.7575 0.64322 0.53599 0.0
C739 C 0.75209 0.64665 0.51898 0.0
C740 C 0.7442 0.64151 0.54981 0.0
C741 C 0.78208 0.63834 0.55762 0.0
C742 C 0.74217 0.62583 0.55874 0.0
C743 C 0.72996 0.62431 0.57203 0.0
C744 C 0.71945 0.63844 0.5767 0.0
C745 C 0.72125 0.65404 0.56744 0.0
C746 C 0.73347 0.65553 0.55411 0.0
H747 H 0.79608 0.64153 0.55878 0.0
H748 H 0.77473 0.64621 0.56712 0.0
H749 H 0.78039 0.62451 0.56106 0.0
H750 H 0.75003 0.61472 0.55539 0.0
H751 H 0.72869 0.61199 0.57857 0.0
loop_
_geom_bond_atom_site_label_1
_geom_bond_atom_site_label_2
_geom_bond_distance
_geom_bond_site_symmetry_2
_ccdc_geom_bond_type
C0 C1 1.264 . S
C0 C5 1.479 . S
C0 C10 1.465 . S
C1 C0 1.264 . S
C1 C3 1.339 . S
C1 H28 0.931 . S
C2 C3 1.395 . S
C2 C4 1.320 . S
C3 C1 1.339 . S
C3 C2 1.395 . S
C3 H29 0.929 . S
C4 C2 1.320 . S
C4 C5 1.405 . S
C4 H30 0.930 . S
C5 C0 1.479 . S
C5 C4 1.405 . S
C5 H31 0.931 . S
U6 O7 2.454 . S
U6 O8 2.458 . S
U6 C9 2.984 . S
U6 C10 2.847 . S
U6 C23 2.882 . S
U6 O24 2.441 . S
U6 O25 2.420 . S
U6 O26 2.455 . S
U6 O27 2.449 . S
O7 U6 2.454 . S
O7 C9 1.353 . S
O8 U6 2.458 . S
O8 C9 1.286 . S
C9 U6 2.984 . S
C9 O7 1.353 . S
C9 O8 1.286 . S
C9 C11 1.363 . S
C10 C0 1.465 . S
C10 U6 2.847 . S
C10 O24 1.249 . S
C10 O25 1.202 . S
C11 C9 1.363 . S
C11 C13 1.408 . S
C11 C16 1.342 . S
C12 C13 1.310 . S
C12 C15 1.461 . S
C12 H32 0.932 . S
C13 C11 1.408 . S
C13 C12 1.310 . S
C13 H33 0.930 . S
C14 C15 1.474 . S
C14 C16 1.285 . S
C14 H34 0.929 . S
C15 C12 1.461 . S
C15 C14 1.474 . S
C16 C11 1.342 . S
C16 C14 1.285 . S
C16 H35 0.930 . S
C17 C20 1.424 . S
C17 C22 1.245 . S
C17 C23 1.428 . S
C18 C21 1.260 . S
C18 C22 1.477 . S
C18 H36 0.932 . S
C19 C20 1.384 . S
C19 C21 1.479 . S
C19 H37 0.929 . S
C20 C17 1.424 . S
C20 C19 1.384 . S
C20 H38 0.928 . S
C21 C18 1.260 . S
C21 C19 1.479 . S
C22 C17 1.245 . S
C22 C18 1.477 . S
C22 H39 0.932 . S
C23 U6 2.882 . S
C23 C17 1.428 . S
C23 O26 1.301 . S
C23 O27 1.282 . S
O24 U6 2.441 . S
O24 C10 1.249 . S
O25 U6 2.420 . S
O25 C10 1.202 . S
O26 U6 2.455 . S
O26 C23 1.301 . S
O27 U6 2.449 . S
O27 C23 1.282 . S
H28 C1 0.931 . S
H29 C3 0.929 . S
H30 C4 0.930 . S
H31 C5 0.931 . S
H32 C12 0.932 . S
H33 C13 0.930 . S
H34 C14 0.929 . S
H35 C16 0.930 . S
H36 C18 0.932 . S
H37 C19 0.929 . S
H38 C20 0.928 . S
H39 C22 0.932 . S
C40 C41 1.264 . S
C40 C45 1.479 . S
C40 C50 1.465 . S
C41 C40 1.264 . S
C41 C43 1.339 . S
C41 H68 0.931 . S
C42 C43 1.395 . S
C42 C44 1.320 . S
C43 C41 1.339 . S
C43 C42 1.395 . S
C43 H69 0.929 . S
C44 C42 1.320 . S
C44 C45 1.405 . S
C44 H70 0.930 . S
C45 C40 1.479 . S
C45 C44 1.405 . S
C45 H71 0.931 . S
U46 O47 2.454 . S
U46 O48 2.458 . S
U46 C49 2.984 . S
U46 C50 2.847 . S
U46 C63 2.882 . S
U46 O64 2.441 . S
U46 O65 2.420 . S
U46 O66 2.455 . S
U46 O67 2.449 . S
O47 U46 2.454 . S
O47 C49 1.353 . S
O48 U46 2.458 . S
O48 C49 1.286 . S
C49 U46 2.984 . S
C49 O47 1.353 . S
C49 O48 1.286 . S
C49 C51 1.363 . S
C50 C40 1.465 . S
C50 U46 2.847 . S
C50 O64 1.249 . S
C50 O65 1.202 . S
C51 C49 1.363 . S
C51 C53 1.408 . S
C51 C56 1.342 . S
C52 C53 1.310 . S
C52 C55 1.461 . S
C52 H72 0.932 . S
C53 C51 1.408 . S
C53 C52 1.310 . S
C53 H73 0.930 . S
C54 C55 1.474 . S
C54 C56 1.285 . S
C54 H74 0.929 . S
C55 C52 1.461 . S
C55 C54 1.474 . S
C56 C51 1.342 . S
C56 C54 1.285 . S
C56 H75 0.930 . S
C57 C60 1.424 . S
C57 C62 1.245 . S
C57 C63 1.428 . S
C58 C61 1.260 . S
C58 C62 1.477 . S
C58 H76 0.932 . S
C59 C60 1.384 . S
C59 C61 1.479 . S
C59 H77 0.929 . S
C60 C57 1.424 . S
C60 C59 1.384 . S
C60 H78 0.928 . S
C61 C58 1.260 . S
C61 C59 1.479 . S
C62 C57 1.245 . S
C62 C58 1.477 . S
C62 H79 0.932 . S
C63 U46 2.882 . S
C63 C57 1.428 . S
C63 O66 1.301 . S
C63 O67 1.282 . S
O64 U46 2.441 . S
O64 C50 1.249 . S
O65 U46 2.420 . S
O65 C50 1.202 . S
O66 U46 2.455 . S
O66 C63 1.301 . S
O67 U46 2.449 . S
O67 C63 1.282 . S
H68 C41 0.931 . S
H69 C43 0.929 . S
H70 C44 0.930 . S
H71 C45 0.931 . S
H72 C52 0.932 . S
H73 C53 0.930 . S
H74 C54 0.929 . S
H75 C56 0.930 . S
H76 C58 0.932 . S
H77 C59 0.929 . S
H78 C60 0.928 . S
H79 C62 0.932 . S
C80 C81 1.264 . S
C80 C85 1.479 . S
C80 C90 1.465 . S
C81 C80 1.264 . S
C81 C83 1.339 . S
C81 H108 0.931 . S
C82 C83 1.395 . S
C82 C84 1.320 . S
C83 C81 1.339 . S
C83 C82 1.395 . S
C83 H109 0.929 . S
C84 C82 1.320 . S
C84 C85 1.405 . S
C84 H110 0.930 . S
C85 C80 1.479 . S
C85 C84 1.405 . S
C85 H111 0.931 . S
U86 O87 2.454 . S
U86 O88 2.458 . S
U86 C89 2.984 . S
U86 C90 2.847 . S
U86 C103 2.882 . S
U86 O104 2.441 . S
U86 O105 2.420 . S
U86 O106 2.455 . S
U86 O107 2.449 . S
O87 U86 2.454 . S
O87 C89 1.353 . S
O88 U86 2.458 . S
O88 C89 1.286 . S
C89 U86 2.984 . S
C89 O87 1.353 . S
C89 O88 1.286 . S
C89 C91 1.363 . S
C90 C80 1.465 . S
C90 U86 2.847 . S
C90 O104 1.249 . S
C90 O105 1.202 . S
C91 C89 1.363 . S
C91 C93 1.408 . S
C91 C96 1.342 . S
C92 C93 1.310 . S
C92 C95 1.461 . S
C92 H112 0.932 . S
C93 C91 1.408 . S
C93 C92 1.310 . S
C93 H113 0.930 . S
C94 C95 1.474 . S
C94 C96 1.285 . S
C94 H114 0.929 . S
C95 C92 1.461 . S
C95 C94 1.474 . S
C96 C91 1.342 . S
C96 C94 1.285 . S
C96 H115 0.930 . S
C97 C100 1.424 . S
C97 C102 1.245 . S
C97 C103 1.428 . S
C98 C101 1.260 . S
C98 C102 1.477 . S
C98 H116 0.932 . S
C99 C100 1.384 . S
C99 C101 1.479 . S
C99 H117 0.929 . S
C100 C97 1.424 . S
C100 C99 1.384 . S
C100 H118 0.928 . S
C101 C98 1.260 . S
C101 C99 1.479 . S
C102 C97 1.245 . S
C102 C98 1.477 . S
C102 H119 0.932 . S
C103 U86 2.882 . S
C103 C97 1.428 . S
C103 O106 1.301 . S
C103 O107 1.282 . S
O104 U86 2.441 . S
O104 C90 1.249 . S
O105 U86 2.420 . S
O105 C90 1.202 . S
O106 U86 2.455 . S
O106 C103 1.301 . S
O107 U86 2.449 . S
O107 C103 1.282 . S
H108 C81 0.931 . S
H109 C83 0.929 . S
H110 C84 0.930 . S
H111 C85 0.931 . S
H112 C92 0.932 . S
H113 C93 0.930 . S
H114 C94 0.929 . S
H115 C96 0.930 . S
H116 C98 0.932 . S
H117 C99 0.929 . S
H118 C100 0.928 . S
H119 C102 0.932 . S
C120 C121 1.264 . S
C120 C125 1.479 . S
C120 C130 1.465 . S
C121 C120 1.264 . S
C121 C123 1.339 . S
C121 H148 0.931 . S
C122 C123 1.395 . S
C122 C124 1.320 . S
C123 C121 1.339 . S
C123 C122 1.395 . S
C123 H149 0.929 . S
C124 C122 1.320 . S
C124 C125 1.405 . S
C124 H150 0.930 . S
C125 C120 1.479 . S
C125 C124 1.405 . S
C125 H151 0.931 . S
U126 O127 2.454 . S
U126 O128 2.458 . S
U126 C129 2.984 . S
U126 C130 2.847 . S
U126 C143 2.882 . S
U126 O144 2.441 . S
U126 O145 2.420 . S
U126 O146 2.455 . S
U126 O147 2.449 . S
O127 U126 2.454 . S
O127 C129 1.353 . S
O128 U126 2.458 . S
O128 C129 1.286 . S
C129 U126 2.984 . S
C129 O127 1.353 . S
C129 O128 1.286 . S
C129 C131 1.363 . S
C130 C120 1.465 . S
C130 U126 2.847 . S
C130 O144 1.249 . S
C130 O145 1.202 . S
C131 C129 1.363 . S
C131 C133 1.408 . S
C131 C136 1.342 . S
C132 C133 1.310 . S
C132 C135 1.461 . S
C132 H152 0.932 . S
C133 C131 1.408 . S
C133 C132 1.310 . S
C133 H153 0.930 . S
C134 C135 1.474 . S
C134 C136 1.285 . S
C134 H154 0.929 . S
C135 C132 1.461 . S
C135 C134 1.474 . S
C136 C131 1.342 . S
C136 C134 1.285 . S
C136 H155 0.930 . S
C137 C140 1.424 . S
C137 C142 1.245 . S
C137 C143 1.428 . S
C138 C141 1.260 . S
C138 C142 1.477 . S
C138 H156 0.932 . S
C139 C140 1.384 . S
C139 C141 1.479 . S
C139 H157 0.929 . S
C140 C137 1.424 . S
C140 C139 1.384 . S
C140 H158 0.928 . S
C141 C138 1.260 . S
C141 C139 1.479 . S
C142 C137 1.245 . S
C142 C138 1.477 . S
C142 H159 0.932 . S
C143 U126 2.882 . S
C143 C137 1.428 . S
C143 O146 1.301 . S
C143 O147 1.282 . S
O144 U126 2.441 . S
O144 C130 1.249 . S
O145 U126 2.420 . S
O145 C130 1.202 . S
O146 U126 2.455 . S
O146 C143 1.301 . S
O147 U126 2.449 . S
O147 C143 1.282 . S
H148 C121 0.931 . S
H149 C123 0.929 . S
H150 C124 0.930 . S
H151 C125 0.931 . S
H152 C132 0.932 . S
H153 C133 0.930 . S
H154 C134 0.929 . S
H155 C136 0.930 . S
H156 C138 0.932 . S
H157 C139 0.929 . S
H158 C140 0.928 . S
H159 C142 0.932 . S
C160 C161 1.264 . S
C160 C165 1.479 . S
C160 C170 1.465 . S
C161 C160 1.264 . S
C161 C163 1.339 . S
C161 H188 0.931 . S
C162 C163 1.395 . S
C162 C164 1.320 . S
C163 C161 1.339 . S
C163 C162 1.395 . S
C163 H189 0.929 . S
C164 C162 1.320 . S
C164 C165 1.405 . S
C164 H190 0.930 . S
C165 C160 1.479 . S
C165 C164 1.405 . S
C165 H191 0.931 . S
U166 O167 2.454 . S
U166 O168 2.458 . S
U166 C169 2.984 . S
U166 C170 2.847 . S
U166 C183 2.882 . S
U166 O184 2.441 . S
U166 O185 2.420 . S
U166 O186 2.455 . S
U166 O187 2.449 . S
O167 U166 2.454 . S
O167 C169 1.353 . S
O168 U166 2.458 . S
O168 C169 1.286 . S
C169 U166 2.984 . S
C169 O167 1.353 . S
C169 O168 1.286 . S
C169 C171 1.363 . S
C170 C160 1.465 . S
C170 U166 2.847 . S
C170 O184 1.249 . S
C170 O185 1.202 . S
C171 C169 1.363 . S
C171 C173 1.408 . S
C171 C176 1.342 . S
C172 C173 1.310 . S
C172 C175 1.461 . S
C172 H192 0.932 . S
C173 C171 1.408 . S
C173 C172 1.310 . S
C173 H193 0.930 . S
C174 C175 1.474 . S
C174 C176 1.285 . S
C174 H194 0.929 . S
C175 C172 1.461 . S
C175 C174 1.474 . S
C176 C171 1.342 . S
C176 C174 1.285 . S
C176 H195 0.930 . S
C177 C180 1.424 . S
C177 C182 1.245 . S
C177 C183 1.428 . S
C178 C181 1.260 . S
C178 C182 1.477 . S
C178 H196 0.932 . S
C179 C180 1.384 . S
C179 C181 1.479 . S
C179 H197 0.929 . S
C180 C177 1.424 . S
C180 C179 1.384 . S
C180 H198 0.928 . S
C181 C178 1.260 . S
C181 C179 1.479 . S
C182 C177 1.245 . S
C182 C178 1.477 . S
C182 H199 0.932 . S
C183 U166 2.882 . S
C183 C177 1.428 . S
C183 O186 1.301 . S
C183 O187 1.282 . S
O184 U166 2.441 . S
O184 C170 1.249 . S
O185 U166 2.420 . S
O185 C170 1.202 . S
O186 U166 2.455 . S
O186 C183 1.301 . S
O187 U166 2.449 . S
O187 C183 1.282 . S
H188 C161 0.931 . S
H189 C163 0.929 . S
H190 C164 0.930 . S
H191 C165 0.931 . S
H192 C172 0.932 . S
H193 C173 0.930 . S
H194 C174 0.929 . S
H195 C176 0.930 . S
H196 C178 0.932 . S
H197 C179 0.929 . S
H198 C180 0.928 . S
H199 C182 0.932 . S
C200 C201 1.264 . S
C200 C205 1.479 . S
C200 C210 1.465 . S
C201 C200 1.264 . S
C201 C203 1.339 . S
C201 H228 0.931 . S
C202 C203 1.395 . S
C202 C204 1.320 . S
C203 C201 1.339 . S
C203 C202 1.395 . S
C203 H229 0.929 . S
C204 C202 1.320 . S
C204 C205 1.405 . S
C204 H230 0.930 . S
C205 C200 1.479 . S
C205 C204 1.405 . S
C205 H231 0.931 . S
U206 O207 2.454 . S
U206 O208 2.458 . S
U206 C209 2.984 . S
U206 C210 2.847 . S
U206 C223 2.882 . S
U206 O224 2.441 . S
U206 O225 2.420 . S
U206 O226 2.455 . S
U206 O227 2.449 . S
O207 U206 2.454 . S
O207 C209 1.353 . S
O208 U206 2.458 . S
O208 C209 1.286 . S
C209 U206 2.984 . S
C209 O207 1.353 . S
C209 O208 1.286 . S
C209 C211 1.363 . S
C210 C200 1.465 . S
C210 U206 2.847 . S
C210 O224 1.249 . S
C210 O225 1.202 . S
C211 C209 1.363 . S
C211 C213 1.408 . S
C211 C216 1.342 . S
C212 C213 1.310 . S
C212 C215 1.461 . S
C212 H232 0.932 . S
C213 C211 1.408 . S
C213 C212 1.310 . S
C213 H233 0.930 . S
C214 C215 1.474 . S
C214 C216 1.285 . S
C214 H234 0.929 . S
C215 C212 1.461 . S
C215 C214 1.474 . S
C216 C211 1.342 . S
C216 C214 1.285 . S
C216 H235 0.930 . S
C217 C220 1.424 . S
C217 C222 1.245 . S
C217 C223 1.428 . S
C218 C221 1.260 . S
C218 C222 1.477 . S
C218 H236 0.932 . S
C219 C220 1.384 . S
C219 C221 1.479 . S
C219 H237 0.929 . S
C220 C217 1.424 . S
C220 C219 1.384 . S
C220 H238 0.928 . S
C221 C218 1.260 . S
C221 C219 1.479 . S
C222 C217 1.245 . S
C222 C218 1.477 . S
C222 H239 0.932 . S
C223 U206 2.882 . S
C223 C217 1.428 . S
C223 O226 1.301 . S
C223 O227 1.282 . S
O224 U206 2.441 . S
O224 C210 1.249 . S
O225 U206 2.420 . S
O225 C210 1.202 . S
O226 U206 2.455 . S
O226 C223 1.301 . S
O227 U206 2.449 . S
O227 C223 1.282 . S
H228 C201 0.931 . S
H229 C203 0.929 . S
H230 C204 0.930 . S
H231 C205 0.931 . S
H232 C212 0.932 . S
H233 C213 0.930 . S
H234 C214 0.929 . S
H235 C216 0.930 . S
H236 C218 0.932 . S
H237 C219 0.929 . S
H238 C220 0.928 . S
H239 C222 0.932 . S
C240 C241 1.264 . S
C240 C245 1.479 . S
C240 C250 1.465 . S
C241 C240 1.264 . S
C241 C243 1.339 . S
C241 H268 0.931 . S
C242 C243 1.395 . S
C242 C244 1.320 . S
C243 C241 1.339 . S
C243 C242 1.395 . S
C243 H269 0.929 . S
C244 C242 1.320 . S
C244 C245 1.405 . S
C244 H270 0.930 . S
C245 C240 1.479 . S
C245 C244 1.405 . S
C245 H271 0.931 . S
U246 O247 2.454 . S
U246 O248 2.458 . S
U246 C249 2.984 . S
U246 C250 2.847 . S
U246 C263 2.882 . S
U246 O264 2.441 . S
U246 O265 2.420 . S
U246 O266 2.455 . S
U246 O267 2.449 . S
O247 U246 2.454 . S
O247 C249 1.353 . S
O248 U246 2.458 . S
O248 C249 1.286 . S
C249 U246 2.984 . S
C249 O247 1.353 . S
C249 O248 1.286 . S
C249 C251 1.363 . S
C250 C240 1.465 . S
C250 U246 2.847 . S
C250 O264 1.249 . S
C250 O265 1.202 . S
C251 C249 1.363 . S
C251 C253 1.408 . S
C251 C256 1.342 . S
C252 C253 1.310 . S
C252 C255 1.461 . S
C252 H272 0.932 . S
C253 C251 1.408 . S
C253 C252 1.310 . S
C253 H273 0.930 . S
C254 C255 1.474 . S
C254 C256 1.285 . S
C254 H274 0.929 . S
C255 C252 1.461 . S
C255 C254 1.474 . S
C256 C251 1.342 . S
C256 C254 1.285 . S
C256 H275 0.930 . S
C257 C260 1.424 . S
C257 C262 1.245 . S
C257 C263 1.428 . S
C258 C261 1.260 . S
C258 C262 1.477 . S
C258 H276 0.932 . S
C259 C260 1.384 . S
C259 C261 1.479 . S
C259 H277 0.929 . S
C260 C257 1.424 . S
C260 C259 1.384 . S
C260 H278 0.928 . S
C261 C258 1.260 . S
C261 C259 1.479 . S
C262 C257 1.245 . S
C262 C258 1.477 . S
C262 H279 0.932 . S
C263 U246 2.882 . S
C263 C257 1.428 . S
C263 O266 1.301 . S
C263 O267 1.282 . S
O264 U246 2.441 . S
O264 C250 1.249 . S
O265 U246 2.420 . S
O265 C250 1.202 . S
O266 U246 2.455 . S
O266 C263 1.301 . S
O267 U246 2.449 . S
O267 C263 1.282 . S
H268 C241 0.931 . S
H269 C243 0.929 . S
H270 C244 0.930 . S
H271 C245 0.931 . S
H272 C252 0.932 . S
H273 C253 0.930 . S
H274 C254 0.929 . S
H275 C256 0.930 . S
H276 C258 0.932 . S
H277 C259 0.929 . S
H278 C260 0.928 . S
H279 C262 0.932 . S
C280 C281 1.264 . S
C280 C285 1.479 . S
C280 C290 1.465 . S
C281 C280 1.264 . S
C281 C283 1.339 . S
C281 H308 0.931 . S
C282 C283 1.395 . S
C282 C284 1.320 . S
C283 C281 1.339 . S
C283 C282 1.395 . S
C283 H309 0.929 . S
C284 C282 1.320 . S
C284 C285 1.405 . S
C284 H310 0.930 . S
C285 C280 1.479 . S
C285 C284 1.405 . S
C285 H311 0.931 . S
U286 O287 2.454 . S
U286 O288 2.458 . S
U286 C289 2.984 . S
U286 C290 2.847 . S
U286 C303 2.882 . S
U286 O304 2.441 . S
U286 O305 2.420 . S
U286 O306 2.455 . S
U286 O307 2.449 . S
O287 U286 2.454 . S
O287 C289 1.353 . S
O288 U286 2.458 . S
O288 C289 1.286 . S
C289 U286 2.984 . S
C289 O287 1.353 . S
C289 O288 1.286 . S
C289 C291 1.363 . S
C290 C280 1.465 . S
C290 U286 2.847 . S
C290 O304 1.249 . S
C290 O305 1.202 . S
C291 C289 1.363 . S
C291 C293 1.408 . S
C291 C296 1.342 . S
C292 C293 1.310 . S
C292 C295 1.461 . S
C292 H312 0.932 . S
C293 C291 1.408 . S
C293 C292 1.310 . S
C293 H313 0.930 . S
C294 C295 1.474 . S
C294 C296 1.285 . S
C294 H314 0.929 . S
C295 C292 1.461 . S
C295 C294 1.474 . S
C296 C291 1.342 . S
C296 C294 1.285 . S
C296 H315 0.930 . S
C297 C300 1.424 . S
C297 C302 1.245 . S
C297 C303 1.428 . S
C298 C301 1.260 . S
C298 C302 1.477 . S
C298 H316 0.932 . S
C299 C300 1.384 . S
C299 C301 1.479 . S
C299 H317 0.929 . S
C300 C297 1.424 . S
C300 C299 1.384 . S
C300 H318 0.928 . S
C301 C298 1.260 . S
C301 C299 1.479 . S
C302 C297 1.245 . S
C302 C298 1.477 . S
C302 H319 0.932 . S
C303 U286 2.882 . S
C303 C297 1.428 . S
C303 O306 1.301 . S
C303 O307 1.282 . S
O304 U286 2.441 . S
O304 C290 1.249 . S
O305 U286 2.420 . S
O305 C290 1.202 . S
O306 U286 2.455 . S
O306 C303 1.301 . S
O307 U286 2.449 . S
O307 C303 1.282 . S
H308 C281 0.931 . S
H309 C283 0.929 . S
H310 C284 0.930 . S
H311 C285 0.931 . S
H312 C292 0.932 . S
H313 C293 0.930 . S
H314 C294 0.929 . S
H315 C296 0.930 . S
H316 C298 0.932 . S
H317 C299 0.929 . S
H318 C300 0.928 . S
H319 C302 0.932 . S
H320 C328 0.929 . S
H321 C330 0.930 . S
H322 C332 0.930 . S
H323 C335 0.929 . S
H324 C338 0.928 1_565 S
H325 C340 0.960 . S
H326 C340 0.960 . S
H327 C340 0.960 . S
C328 H320 0.929 . S
C328 C329 1.377 . S
C328 C330 1.384 . S
C329 C328 1.377 . S
C329 C335 1.390 . S
C330 H321 0.930 . S
C330 C328 1.384 . S
C330 C331 1.372 . S
C331 C330 1.372 . S
C331 C332 1.400 . S
C331 C336 1.490 . S
C332 H322 0.930 . S
C332 C331 1.400 . S
C332 C335 1.386 . S
H333 C349 0.930 . S
H334 C350 0.931 . S
C335 H323 0.929 . S
C335 C329 1.390 . S
C335 C332 1.386 . S
C336 C331 1.490 . S
C336 C338 1.385 1_565 S
C336 C339 1.403 . S
H337 C343 0.930 . S
C338 H324 0.928 1_545 S
C338 C336 1.385 1_545 S
C338 C341 1.414 . S
C339 C336 1.403 . S
C339 C340 1.524 . S
C339 C343 1.400 1_565 S
C340 H325 0.960 . S
C340 H326 0.960 . S
C340 H327 0.960 . S
C340 C339 1.524 . S
C341 C338 1.414 . S
C341 C342 1.392 . S
C341 C345 1.495 . S
C342 C341 1.392 . S
C342 C343 1.385 . S
C342 C344 1.478 . S
C343 H337 0.930 . S
C343 C339 1.400 1_545 S
C343 C342 1.385 . S
C344 C342 1.478 . S
C344 C346 1.381 . S
C344 C350 1.383 . S
C345 C341 1.495 . S
C345 H351 0.959 . S
C345 H352 0.961 . S
C345 H353 0.960 . S
C346 C344 1.381 . S
C346 C347 1.394 . S
C346 H354 0.930 . S
C347 C346 1.394 . S
C347 C348 1.383 . S
C347 H355 0.929 . S
C348 C347 1.383 . S
C348 C349 1.377 . S
C349 H333 0.930 . S
C349 C348 1.377 . S
C349 C350 1.379 . S
C350 H334 0.931 . S
C350 C344 1.383 . S
C350 C349 1.379 . S
H351 C345 0.959 . S
H352 C345 0.961 . S
H353 C345 0.960 . S
H354 C346 0.930 . S
H355 C347 0.929 . S
H356 C364 0.929 . S
H357 C366 0.930 . S
H358 C368 0.930 . S
H359 C371 0.929 . S
H360 C374 0.930 . S
H361 C376 0.960 . S
H362 C376 0.960 . S
H363 C376 0.960 . S
C364 H356 0.929 . S
C364 C365 1.377 . S
C364 C366 1.384 . S
C365 C364 1.377 . S
C365 C371 1.390 . S
C366 H357 0.930 . S
C366 C364 1.384 . S
C366 C367 1.372 . S
C367 C366 1.372 . S
C367 C368 1.400 . S
C367 C372 1.490 . S
C368 H358 0.930 . S
C368 C367 1.400 . S
C368 C371 1.386 . S
H369 C385 0.930 . S
H370 C386 0.931 . S
C371 H359 0.929 . S
C371 C365 1.390 . S
C371 C368 1.386 . S
C372 C367 1.490 . S
C372 C374 1.395 . S
C372 C375 1.403 . S
H373 C379 0.930 . S
C374 H360 0.930 . S
C374 C372 1.395 . S
C374 C377 1.403 . S
C375 C372 1.403 . S
C375 C376 1.524 . S
C375 C379 1.400 . S
C376 H361 0.960 . S
C376 H362 0.960 . S
C376 H363 0.960 . S
C376 C375 1.524 . S
C377 C374 1.403 . S
C377 C378 1.392 . S
C377 C381 1.495 . S
C378 C377 1.392 . S
C378 C379 1.385 . S
C378 C380 1.478 . S
C379 H373 0.930 . S
C379 C375 1.400 . S
C379 C378 1.385 . S
C380 C378 1.478 . S
C380 C382 1.381 . S
C380 C386 1.383 . S
C381 C377 1.495 . S
C381 H387 0.959 . S
C381 H388 0.961 . S
C381 H389 0.960 . S
C382 C380 1.381 . S
C382 C383 1.394 . S
C382 H390 0.930 . S
C383 C382 1.394 . S
C383 C384 1.383 . S
C383 H391 0.929 . S
C384 C383 1.383 . S
C384 C385 1.377 . S
C385 H369 0.930 . S
C385 C384 1.377 . S
C385 C386 1.379 . S
C386 H370 0.931 . S
C386 C380 1.383 . S
C386 C385 1.379 . S
H387 C381 0.959 . S
H388 C381 0.961 . S
H389 C381 0.960 . S
H390 C382 0.930 . S
H391 C383 0.929 . S
H392 C400 0.929 . S
H393 C402 0.930 . S
H394 C404 0.930 . S
H395 C407 0.929 . S
H396 C410 0.930 . S
H397 C412 0.960 . S
H398 C412 0.960 . S
H399 C412 0.960 . S
C400 H392 0.929 . S
C400 C401 1.377 . S
C400 C402 1.384 . S
C401 C400 1.377 . S
C401 C407 1.390 . S
C402 H393 0.930 . S
C402 C400 1.384 . S
C402 C403 1.372 . S
C403 C402 1.372 . S
C403 C404 1.400 . S
C403 C408 1.490 . S
C404 H394 0.930 . S
C404 C403 1.400 . S
C404 C407 1.386 . S
H405 C421 0.930 . S
H406 C422 0.931 . S
C407 H395 0.929 . S
C407 C401 1.390 . S
C407 C404 1.386 . S
C408 C403 1.490 . S
C408 C410 1.395 . S
C408 C411 1.403 . S
H409 C415 0.930 . S
C410 H396 0.930 . S
C410 C408 1.395 . S
C410 C413 1.403 1_565 S
C411 C408 1.403 . S
C411 C412 1.524 . S
C411 C415 1.400 1_565 S
C412 H397 0.960 . S
C412 H398 0.960 . S
C412 H399 0.960 . S
C412 C411 1.524 . S
C413 C410 1.403 1_545 S
C413 C414 1.392 . S
C413 C417 1.495 . S
C414 C413 1.392 . S
C414 C415 1.385 . S
C414 C416 1.478 . S
C415 H409 0.930 . S
C415 C411 1.400 1_545 S
C415 C414 1.385 . S
C416 C414 1.478 . S
C416 C418 1.381 . S
C416 C422 1.383 . S
C417 C413 1.495 . S
C417 H423 0.959 . S
C417 H424 0.961 . S
C417 H425 0.960 . S
C418 C416 1.381 . S
C418 C419 1.394 . S
C418 H426 0.930 . S
C419 C418 1.394 . S
C419 C420 1.383 . S
C419 H427 0.929 . S
C420 C419 1.383 . S
C420 C421 1.377 . S
C421 H405 0.930 . S
C421 C420 1.377 . S
C421 C422 1.379 . S
C422 H406 0.931 . S
C422 C416 1.383 . S
C422 C421 1.379 . S
H423 C417 0.959 . S
H424 C417 0.961 . S
H425 C417 0.960 . S
H426 C418 0.930 . S
H427 C419 0.929 . S
H428 C436 0.929 . S
H429 C438 0.930 . S
H430 C440 0.930 . S
H431 C443 0.929 . S
H432 C446 0.930 . S
H433 C448 0.960 . S
H434 C448 0.960 . S
H435 C448 0.960 . S
C436 H428 0.929 . S
C436 C437 1.377 . S
C436 C438 1.384 . S
C437 C436 1.377 . S
C437 C443 1.390 . S
C438 H429 0.930 . S
C438 C436 1.384 . S
C438 C439 1.372 . S
C439 C438 1.372 . S
C439 C440 1.400 . S
C439 C444 1.490 . S
C440 H430 0.930 . S
C440 C439 1.400 . S
C440 C443 1.386 . S
H441 C457 0.930 . S
H442 C458 0.931 . S
C443 H431 0.929 . S
C443 C437 1.390 . S
C443 C440 1.386 . S
C444 C439 1.490 . S
C444 C446 1.395 . S
C444 C447 1.403 . S
H445 C451 0.930 . S
C446 H432 0.930 . S
C446 C444 1.395 . S
C446 C449 1.403 . S
C447 C444 1.403 . S
C447 C448 1.524 . S
C447 C451 1.400 1_554 S
C448 H433 0.960 . S
C448 H434 0.960 . S
C448 H435 0.960 . S
C448 C447 1.524 . S
C449 C446 1.403 . S
C449 C450 1.392 1_554 S
C449 C453 1.501 . S
C450 C449 1.392 1_556 S
C450 C451 1.385 . S
C450 C452 1.478 . S
C451 H445 0.930 . S
C451 C447 1.400 1_556 S
C451 C450 1.385 . S
C452 C450 1.478 . S
C452 C454 1.381 . S
C452 C458 1.383 . S
C453 C449 1.501 . S
C453 H459 0.987 . S
C453 H460 0.971 . S
C453 H461 0.918 1_554 S
C454 C452 1.381 . S
C454 C455 1.394 . S
C454 H462 0.930 . S
C455 C454 1.394 . S
C455 C456 1.383 . S
C455 H463 0.929 . S
C456 C455 1.383 . S
C456 C457 1.377 . S
C457 H441 0.930 . S
C457 C456 1.377 . S
C457 C458 1.379 . S
C458 H442 0.931 . S
C458 C452 1.383 . S
C458 C457 1.379 . S
H459 C453 0.987 . S
H460 C453 0.971 . S
H461 C453 0.918 1_556 S
H462 C454 0.930 . S
H463 C455 0.929 . S
H464 C472 0.929 . S
H465 C474 0.930 . S
H466 C476 0.930 . S
H467 C479 0.929 . S
H468 C482 0.930 . S
H469 C484 0.960 . S
H470 C484 0.960 . S
H471 C484 0.960 . S
C472 H464 0.929 . S
C472 C473 1.377 . S
C472 C474 1.384 . S
C473 C472 1.377 . S
C473 C479 1.390 . S
C474 H465 0.930 . S
C474 C472 1.384 . S
C474 C475 1.372 . S
C475 C474 1.372 . S
C475 C476 1.400 . S
C475 C480 1.490 . S
C476 H466 0.930 . S
C476 C475 1.400 . S
C476 C479 1.386 . S
H477 C493 0.930 . S
H478 C494 0.931 . S
C479 H467 0.929 . S
C479 C473 1.390 . S
C479 C476 1.386 . S
C480 C475 1.490 . S
C480 C482 1.395 . S
C480 C483 1.403 . S
H481 C487 0.933 . S
C482 H468 0.930 . S
C482 C480 1.395 . S
C482 C485 1.403 1_655 S
C483 C480 1.403 . S
C483 C484 1.524 . S
C483 C487 1.366 1_655 S
C484 H469 0.960 . S
C484 H470 0.960 . S
C484 H471 0.960 . S
C484 C483 1.524 . S
C485 C482 1.403 1_455 S
C485 C486 1.392 . S
C485 C489 1.495 . S
C486 C485 1.392 . S
C486 C487 1.419 . S
C486 C488 1.478 . S
C487 H481 0.933 . S
C487 C483 1.366 1_455 S
C487 C486 1.419 . S
C488 C486 1.478 . S
C488 C490 1.381 . S
C488 C494 1.383 . S
C489 C485 1.495 . S
C489 H495 0.959 . S
C489 H496 0.961 . S
C489 H497 0.960 . S
C490 C488 1.381 . S
C490 C491 1.394 . S
C490 H498 0.930 . S
C491 C490 1.394 . S
C491 C492 1.383 . S
C491 H499 0.929 . S
C492 C491 1.383 . S
C492 C493 1.377 . S
C493 H477 0.930 . S
C493 C492 1.377 . S
C493 C494 1.379 . S
C494 H478 0.931 . S
C494 C488 1.383 . S
C494 C493 1.379 . S
H495 C489 0.959 . S
H496 C489 0.961 . S
H497 C489 0.960 . S
H498 C490 0.930 . S
H499 C491 0.929 . S
H500 C508 0.929 . S
H501 C510 0.930 . S
H502 C512 0.930 . S
H503 C515 0.929 . S
H504 C518 0.930 . S
H505 C520 0.960 . S
H506 C520 0.960 . S
H507 C520 0.960 . S
C508 H500 0.929 . S
C508 C509 1.377 . S
C508 C510 1.384 . S
C509 C508 1.377 . S
C509 C515 1.390 . S
C510 H501 0.930 . S
C510 C508 1.384 . S
C510 C511 1.372 . S
C511 C510 1.372 . S
C511 C512 1.400 . S
C511 C516 1.490 . S
C512 H502 0.930 . S
C512 C511 1.400 . S
C512 C515 1.386 . S
H513 C529 0.930 . S
H514 C530 0.931 . S
C515 H503 0.929 . S
C515 C509 1.390 . S
C515 C512 1.386 . S
C516 C511 1.490 . S
C516 C518 1.395 . S
C516 C519 1.403 . S
H517 C523 0.930 . S
C518 H504 0.930 . S
C518 C516 1.395 . S
C518 C521 1.403 . S
C519 C516 1.403 . S
C519 C520 1.524 . S
C519 C523 1.400 . S
C520 H505 0.960 . S
C520 H506 0.960 . S
C520 H507 0.960 . S
C520 C519 1.524 . S
C521 C518 1.403 . S
C521 C522 1.392 . S
C521 C525 1.495 . S
C522 C521 1.392 . S
C522 C523 1.385 . S
C522 C524 1.478 . S
C523 H517 0.930 . S
C523 C519 1.400 . S
C523 C522 1.385 . S
C524 C522 1.478 . S
C524 C526 1.381 . S
C524 C530 1.383 . S
C525 C521 1.495 . S
C525 H531 0.959 . S
C525 H532 0.961 . S
C525 H533 0.960 . S
C526 C524 1.381 . S
C526 C527 1.394 . S
C526 H534 0.930 . S
C527 C526 1.394 . S
C527 C528 1.383 . S
C527 H535 0.929 . S
C528 C527 1.383 . S
C528 C529 1.377 . S
C529 H513 0.930 . S
C529 C528 1.377 . S
C529 C530 1.379 . S
C530 H514 0.931 . S
C530 C524 1.383 . S
C530 C529 1.379 . S
H531 C525 0.959 . S
H532 C525 0.961 . S
H533 C525 0.960 . S
H534 C526 0.930 . S
H535 C527 0.929 . S
H536 C544 0.929 . S
H537 C546 0.930 . S
H538 C548 0.930 . S
H539 C551 0.929 . S
H540 C554 0.930 . S
H541 C556 0.960 . S
H542 C556 0.960 . S
H543 C556 0.960 . S
C544 H536 0.929 . S
C544 C545 1.377 . S
C544 C546 1.384 . S
C545 C544 1.377 . S
C545 C551 1.390 . S
C546 H537 0.930 . S
C546 C544 1.384 . S
C546 C547 1.372 . S
C547 C546 1.372 . S
C547 C548 1.400 . S
C547 C552 1.490 . S
C548 H538 0.930 . S
C548 C547 1.400 . S
C548 C551 1.386 . S
H549 C565 0.930 . S
H550 C566 0.931 . S
C551 H539 0.929 . S
C551 C545 1.390 . S
C551 C548 1.386 . S
C552 C547 1.490 . S
C552 C554 1.395 . S
C552 C555 1.403 1_455 S
H553 C559 0.930 . S
C554 H540 0.930 . S
C554 C552 1.395 . S
C554 C557 1.403 . S
C555 C552 1.403 1_655 S
C555 C556 1.524 . S
C555 C559 1.400 . S
C556 H541 0.960 . S
C556 H542 0.960 . S
C556 H543 0.960 . S
C556 C555 1.524 . S
C557 C554 1.403 . S
C557 C558 1.392 1_455 S
C557 C561 1.495 . S
C558 C557 1.392 1_655 S
C558 C559 1.385 . S
C558 C560 1.478 . S
C559 H553 0.930 . S
C559 C555 1.400 . S
C559 C558 1.385 . S
C560 C558 1.478 . S
C560 C562 1.381 . S
C560 C566 1.383 . S
C561 C557 1.495 . S
C561 H567 0.959 . S
C561 H568 0.961 . S
C561 H569 0.960 . S
C562 C560 1.381 . S
C562 C563 1.394 . S
C562 H570 0.930 . S
C563 C562 1.394 . S
C563 C564 1.383 . S
C563 H571 0.929 . S
C564 C563 1.383 . S
C564 C565 1.377 . S
C565 H549 0.930 . S
C565 C564 1.377 . S
C565 C566 1.379 . S
C566 H550 0.931 . S
C566 C560 1.383 . S
C566 C565 1.379 . S
H567 C561 0.959 . S
H568 C561 0.961 . S
H569 C561 0.960 . S
H570 C562 0.930 . S
H571 C563 0.929 . S
H572 C580 0.929 . S
H573 C582 0.930 . S
H574 C584 0.930 . S
H575 C587 0.929 . S
H576 C590 0.930 . S
H577 C592 0.960 . S
H578 C592 0.960 . S
H579 C592 0.960 . S
C580 H572 0.929 . S
C580 C581 1.377 . S
C580 C582 1.384 . S
C581 C580 1.377 . S
C581 C587 1.390 . S
C582 H573 0.930 . S
C582 C580 1.384 . S
C582 C583 1.372 . S
C583 C582 1.372 . S
C583 C584 1.400 . S
C583 C588 1.490 . S
C584 H574 0.930 . S
C584 C583 1.400 . S
C584 C587 1.386 . S
H585 C601 0.930 . S
H586 C602 0.931 . S
C587 H575 0.929 . S
C587 C581 1.390 . S
C587 C584 1.386 . S
C588 C583 1.490 . S
C588 C590 1.395 . S
C588 C591 1.403 . S
H589 C595 0.930 . S
C590 H576 0.930 . S
C590 C588 1.395 . S
C590 C593 1.403 . S
C591 C588 1.403 . S
C591 C592 1.524 . S
C591 C595 1.400 . S
C592 H577 0.960 . S
C592 H578 0.960 . S
C592 H579 0.960 . S
C592 C591 1.524 . S
C593 C590 1.403 . S
C593 C594 1.392 . S
C593 C597 1.495 . S
C594 C593 1.392 . S
C594 C595 1.385 . S
C594 C596 1.478 . S
C595 H589 0.930 . S
C595 C591 1.400 . S
C595 C594 1.385 . S
C596 C594 1.478 . S
C596 C598 1.381 . S
C596 C602 1.383 . S
C597 C593 1.495 . S
C597 H603 0.959 . S
C597 H604 0.961 . S
C597 H605 0.960 . S
C598 C596 1.381 . S
C598 C599 1.394 . S
C598 H606 0.930 . S
C599 C598 1.394 . S
C599 C600 1.383 . S
C599 H607 0.929 . S
C600 C599 1.383 . S
C600 C601 1.377 . S
C601 H585 0.930 . S
C601 C600 1.377 . S
C601 C602 1.379 . S
C602 H586 0.931 . S
C602 C596 1.383 . S
C602 C601 1.379 . S
H603 C597 0.959 . S
H604 C597 0.961 . S
H605 C597 0.960 . S
H606 C598 0.930 . S
H607 C599 0.929 . S
H608 C616 0.929 . S
H609 C618 0.930 . S
H610 C620 0.930 . S
H611 C623 0.929 . S
H612 C626 0.930 . S
H613 C628 0.960 . S
H614 C628 0.960 . S
H615 C628 0.960 . S
C616 H608 0.929 . S
C616 C617 1.377 . S
C616 C618 1.384 . S
C617 C616 1.377 . S
C617 C623 1.390 . S
C618 H609 0.930 . S
C618 C616 1.384 . S
C618 C619 1.372 . S
C619 C618 1.372 . S
C619 C620 1.400 . S
C619 C624 1.490 . S
C620 H610 0.930 . S
C620 C619 1.400 . S
C620 C623 1.386 . S
H621 C637 0.930 . S
H622 C638 0.931 . S
C623 H611 0.929 . S
C623 C617 1.390 . S
C623 C620 1.386 . S
C624 C619 1.490 . S
C624 C626 1.395 . S
C624 C627 1.403 . S
H625 C631 0.930 . S
C626 H612 0.930 . S
C626 C624 1.395 . S
C626 C629 1.403 . S
C627 C624 1.403 . S
C627 C628 1.524 . S
C627 C631 1.400 . S
C628 H613 0.960 . S
C628 H614 0.960 . S
C628 H615 0.960 . S
C628 C627 1.524 . S
C629 C626 1.403 . S
C629 C630 1.392 . S
C629 C633 1.495 . S
C630 C629 1.392 . S
C630 C631 1.385 . S
C630 C632 1.478 . S
C631 H625 0.930 . S
C631 C627 1.400 . S
C631 C630 1.385 . S
C632 C630 1.478 . S
C632 C634 1.381 . S
C632 C638 1.383 . S
C633 C629 1.495 . S
C633 H639 0.959 . S
C633 H640 0.961 . S
C633 H641 0.960 . S
C634 C632 1.381 . S
C634 C635 1.394 . S
C634 H642 0.930 . S
C635 C634 1.394 . S
C635 C636 1.383 . S
C635 H643 0.929 . S
C636 C635 1.383 . S
C636 C637 1.377 . S
C637 H621 0.930 . S
C637 C636 1.377 . S
C637 C638 1.379 . S
C638 H622 0.931 . S
C638 C632 1.383 . S
C638 C637 1.379 . S
H639 C633 0.959 . S
H640 C633 0.961 . S
H641 C633 0.960 . S
H642 C634 0.930 . S
H643 C635 0.929 . S
H644 C652 0.929 . S
H645 C654 0.930 . S
H646 C656 0.930 . S
H647 C659 0.929 . S
H648 C662 0.930 . S
H649 C664 0.960 . S
H650 C664 0.960 . S
H651 C664 0.960 . S
C652 H644 0.929 . S
C652 C653 1.377 . S
C652 C654 1.384 . S
C653 C652 1.377 . S
C653 C659 1.390 . S
C654 H645 0.930 . S
C654 C652 1.384 . S
C654 C655 1.372 . S
C655 C654 1.372 . S
C655 C656 1.400 . S
C655 C660 1.490 . S
C656 H646 0.930 . S
C656 C655 1.400 . S
C656 C659 1.386 . S
H657 C673 0.930 . S
H658 C674 0.931 . S
C659 H647 0.929 . S
C659 C653 1.390 . S
C659 C656 1.386 . S
C660 C655 1.490 . S
C660 C662 1.395 . S
C660 C663 1.403 1_554 S
H661 C667 0.930 . S
C662 H648 0.930 . S
C662 C660 1.395 . S
C662 C665 1.386 1_554 S
C663 C660 1.403 1_556 S
C663 C664 1.524 . S
C663 C667 1.400 . S
C664 H649 0.960 . S
C664 H650 0.960 . S
C664 H651 0.960 . S
C664 C663 1.524 . S
C665 C662 1.386 1_556 S
C665 C666 1.417 . S
C665 C669 1.488 1_556 S
C666 C665 1.417 . S
C666 C667 1.385 . S
C666 C668 1.478 . S
C667 H661 0.930 . S
C667 C663 1.400 . S
C667 C666 1.385 . S
C668 C666 1.478 . S
C668 C670 1.381 . S
C668 C674 1.383 . S
C669 C665 1.488 1_554 S
C669 H675 0.959 . S
C669 H676 0.961 . S
C669 H677 0.960 1_554 S
C670 C668 1.381 . S
C670 C671 1.394 . S
C670 H678 0.930 . S
C671 C670 1.394 . S
C671 C672 1.383 . S
C671 H679 0.929 . S
C672 C671 1.383 . S
C672 C673 1.377 . S
C673 H657 0.930 . S
C673 C672 1.377 . S
C673 C674 1.379 . S
C674 H658 0.931 . S
C674 C668 1.383 . S
C674 C673 1.379 . S
H675 C669 0.959 . S
H676 C669 0.961 . S
H677 C669 0.960 1_556 S
H678 C670 0.930 . S
H679 C671 0.929 . S
H680 C688 0.929 . S
H681 C690 0.930 . S
H682 C692 0.930 . S
H683 C695 0.929 . S
H684 C698 0.930 . S
H685 C700 0.960 . S
H686 C700 0.960 . S
H687 C700 0.960 . S
C688 H680 0.929 . S
C688 C689 1.377 . S
C688 C690 1.384 . S
C689 C688 1.377 . S
C689 C695 1.390 . S
C690 H681 0.930 . S
C690 C688 1.384 . S
C690 C691 1.372 . S
C691 C690 1.372 . S
C691 C692 1.400 . S
C691 C696 1.490 . S
C692 H682 0.930 . S
C692 C691 1.400 . S
C692 C695 1.386 . S
H693 C709 0.930 . S
H694 C710 0.931 . S
C695 H683 0.929 . S
C695 C689 1.390 . S
C695 C692 1.386 . S
C696 C691 1.490 . S
C696 C698 1.395 . S
C696 C699 1.403 . S
H697 C703 0.930 . S
C698 H684 0.930 . S
C698 C696 1.395 . S
C698 C701 1.403 . S
C699 C696 1.403 . S
C699 C700 1.524 . S
C699 C703 1.400 . S
C700 H685 0.960 . S
C700 H686 0.960 . S
C700 H687 0.960 . S
C700 C699 1.524 . S
C701 C698 1.403 . S
C701 C702 1.392 . S
C701 C705 1.495 . S
C702 C701 1.392 . S
C702 C703 1.385 . S
C702 C704 1.478 . S
C703 H697 0.930 . S
C703 C699 1.400 . S
C703 C702 1.385 . S
C704 C702 1.478 . S
C704 C706 1.381 . S
C704 C710 1.383 . S
C705 C701 1.495 . S
C705 H711 0.959 . S
C705 H712 0.961 . S
C705 H713 0.960 . S
C706 C704 1.381 . S
C706 C707 1.394 . S
C706 H714 0.930 . S
C707 C706 1.394 . S
C707 C708 1.383 . S
C707 H715 0.929 . S
C708 C707 1.383 . S
C708 C709 1.377 . S
C709 H693 0.930 . S
C709 C708 1.377 . S
C709 C710 1.379 . S
C710 H694 0.931 . S
C710 C704 1.383 . S
C710 C709 1.379 . S
H711 C705 0.959 . S
H712 C705 0.961 . S
H713 C705 0.960 . S
H714 C706 0.930 . S
H715 C707 0.929 . S
H716 C724 0.929 . S
H717 C726 0.930 . S
H718 C728 0.930 . S
H719 C731 0.929 . S
H720 C734 0.930 . S
H721 C736 0.960 . S
H722 C736 0.960 . S
H723 C736 0.960 . S
C724 H716 0.929 . S
C724 C725 1.377 . S
C724 C726 1.384 . S
C725 C724 1.377 . S
C725 C731 1.390 . S
C726 H717 0.930 . S
C726 C724 1.384 . S
C726 C727 1.372 . S
C727 C726 1.372 . S
C727 C728 1.400 . S
C727 C732 1.490 . S
C728 H718 0.930 . S
C728 C727 1.400 . S
C728 C731 1.386 . S
H729 C745 0.930 . S
H730 C746 0.931 . S
C731 H719 0.929 . S
C731 C725 1.390 . S
C731 C728 1.386 . S
C732 C727 1.490 . S
C732 C734 1.395 . S
C732 C735 1.403 . S
H733 C739 0.930 . S
C734 H720 0.930 . S
C734 C732 1.395 . S
C734 C737 1.403 . S
C735 C732 1.403 . S
C735 C736 1.524 . S
C735 C739 1.400 . S
C736 H721 0.960 . S
C736 H722 0.960 . S
C736 H723 0.960 . S
C736 C735 1.524 . S
C737 C734 1.403 . S
C737 C738 1.392 . S
C737 C741 1.495 . S
C738 C737 1.392 . S
C738 C739 1.385 . S
C738 C740 1.478 . S
C739 H733 0.930 . S
C739 C735 1.400 . S
C739 C738 1.385 . S
C740 C738 1.478 . S
C740 C742 1.381 . S
C740 C746 1.383 . S
C741 C737 1.495 . S
C741 H747 0.959 . S
C741 H748 0.961 . S
C741 H749 0.960 . S
C742 C740 1.381 . S
C742 C743 1.394 . S
C742 H750 0.930 . S
C743 C742 1.394 . S
C743 C744 1.383 . S
C743 H751 0.929 . S
C744 C743 1.383 . S
C744 C745 1.377 . S
C745 H729 0.930 . S
C745 C744 1.377 . S
C745 C746 1.379 . S
C746 H730 0.931 . S
C746 C740 1.383 . S
C746 C745 1.379 . S
H747 C741 0.959 . S
H748 C741 0.961 . S
H749 C741 0.960 . S
H750 C742 0.930 . S
H751 C743 0.929 . S
C329 C42 1.484 . S
C348 C2 1.498 . S
C365 C61 1.490 . S
C384 C95 1.500 . S
C401 C82 1.485 . S
C420 C122 1.495 . S
C437 C21 1.486 . S
C456 C135 1.498 . S
C473 C221 1.487 . S
C492 C15 1.499 . S
C509 C141 1.487 . S
C528 C175 1.497 . S
C545 C55 1.502 . S
C564 C261 1.497 . S
C581 C295 1.502 . S
C600 C101 1.472 . S
C617 C282 1.490 . S
C636 C162 1.470 . S
C653 C215 1.502 . S
C672 C181 1.480 . S
C689 C202 1.487 . S
C708 C242 1.486 . S
C725 C255 1.502 . S
C744 C301 1.496 . S
