# Generated by pormake.
# Topology ukj, (4)-cn, num edge types: 1
# Building blocks:
#     Node 0, Type 0, BuildingBlock: KUFVIS_clean_sbu_0, # of connection points: 4
#     Node 1, Type 0, BuildingBlock: KUFVIS_clean_sbu_0, # of connection points: 4
#     Node 2, Type 0, BuildingBlock: KUFVIS_clean_sbu_0, # of connection points: 4
#     Node 3, Type 0, BuildingBlock: KUFVIS_clean_sbu_0, # of connection points: 4
#     Node 4, Type 0, BuildingBlock: KUFVIS_clean_sbu_0, # of connection points: 4
#     Node 5, Type 0, BuildingBlock: KUFVIS_clean_sbu_0, # of connection points: 4
#     Node 6, Type 0, BuildingBlock: KUFVIS_clean_sbu_0, # of connection points: 4
#     Node 7, Type 0, BuildingBlock: KUFVIS_clean_sbu_0, # of connection points: 4
#     Node 8, Type 0, BuildingBlock: KUFVIS_clean_sbu_0, # of connection points: 4
#     Node 9, Type 0, BuildingBlock: KUFVIS_clean_sbu_0, # of connection points: 4
#     Node 10, Type 0, BuildingBlock: KUFVIS_clean_sbu_0, # of connection points: 4
#     Node 11, Type 0, BuildingBlock: KUFVIS_clean_sbu_0, # of connection points: 4
#     Node 12, Type 0, BuildingBlock: KUFVIS_clean_sbu_0, # of connection points: 4
#     Node 13, Type 0, BuildingBlock: KUFVIS_clean_sbu_0, # of connection points: 4
#     Node 14, Type 0, BuildingBlock: KUFVIS_clean_sbu_0, # of connection points: 4
#     Node 15, Type 0, BuildingBlock: KUFVIS_clean_sbu_0, # of connection points: 4
#     Node 16, Type 0, BuildingBlock: KUFVIS_clean_sbu_0, # of connection points: 4
#     Node 17, Type 0, BuildingBlock: KUFVIS_clean_sbu_0, # of connection points: 4
#     Node 18, Type 0, BuildingBlock: KUFVIS_clean_sbu_0, # of connection points: 4
#     Node 19, Type 0, BuildingBlock: KUFVIS_clean_sbu_0, # of connection points: 4
#     Node 20, Type 0, BuildingBlock: KUFVIS_clean_sbu_0, # of connection points: 4
#     Node 21, Type 0, BuildingBlock: KUFVIS_clean_sbu_0, # of connection points: 4
#     Node 22, Type 0, BuildingBlock: KUFVIS_clean_sbu_0, # of connection points: 4
#     Node 23, Type 0, BuildingBlock: KUFVIS_clean_sbu_0, # of connection points: 4
#     Node 24, Type 0, BuildingBlock: KUFVIS_clean_sbu_0, # of connection points: 4
#     Node 25, Type 0, BuildingBlock: KUFVIS_clean_sbu_0, # of connection points: 4
#     Node 26, Type 0, BuildingBlock: KUFVIS_clean_sbu_0, # of connection points: 4
#     Node 27, Type 0, BuildingBlock: KUFVIS_clean_sbu_0, # of connection points: 4
#     Node 28, Type 0, BuildingBlock: KUFVIS_clean_sbu_0, # of connection points: 4
#     Node 29, Type 0, BuildingBlock: KUFVIS_clean_sbu_0, # of connection points: 4
#     Node 30, Type 0, BuildingBlock: KUFVIS_clean_sbu_0, # of connection points: 4
#     Node 31, Type 0, BuildingBlock: KUFVIS_clean_sbu_0, # of connection points: 4
#     Edge 32, Type (0, 0), BuildingBlock: ZUJKAS_clean_linker_0, # of connection points: 2
#     Edge 33, Type (0, 0), BuildingBlock: ZUJKAS_clean_linker_0, # of connection points: 2
#     Edge 34, Type (0, 0), BuildingBlock: ZUJKAS_clean_linker_0, # of connection points: 2
#     Edge 35, Type (0, 0), BuildingBlock: ZUJKAS_clean_linker_0, # of connection points: 2
#     Edge 36, Type (0, 0), BuildingBlock: ZUJKAS_clean_linker_0, # of connection points: 2
#     Edge 37, Type (0, 0), BuildingBlock: ZUJKAS_clean_linker_0, # of connection points: 2
#     Edge 38, Type (0, 0), BuildingBlock: ZUJKAS_clean_linker_0, # of connection points: 2
#     Edge 39, Type (0, 0), BuildingBlock: ZUJKAS_clean_linker_0, # of connection points: 2
#     Edge 40, Type (0, 0), BuildingBlock: ZUJKAS_clean_linker_0, # of connection points: 2
#     Edge 41, Type (0, 0), BuildingBlock: ZUJKAS_clean_linker_0, # of connection points: 2
#     Edge 42, Type (0, 0), BuildingBlock: ZUJKAS_clean_linker_0, # of connection points: 2
#     Edge 43, Type (0, 0), BuildingBlock: ZUJKAS_clean_linker_0, # of connection points: 2
#     Edge 44, Type (0, 0), BuildingBlock: ZUJKAS_clean_linker_0, # of connection points: 2
#     Edge 45, Type (0, 0), BuildingBlock: ZUJKAS_clean_linker_0, # of connection points: 2
#     Edge 46, Type (0, 0), BuildingBlock: ZUJKAS_clean_linker_0, # of connection points: 2
#     Edge 47, Type (0, 0), BuildingBlock: ZUJKAS_clean_linker_0, # of connection points: 2
#     Edge 48, Type (0, 0), BuildingBlock: ZUJKAS_clean_linker_0, # of connection points: 2
#     Edge 49, Type (0, 0), BuildingBlock: ZUJKAS_clean_linker_0, # of connection points: 2
#     Edge 50, Type (0, 0), BuildingBlock: ZUJKAS_clean_linker_0, # of connection points: 2
#     Edge 51, Type (0, 0), BuildingBlock: ZUJKAS_clean_linker_0, # of connection points: 2
#     Edge 52, Type (0, 0), BuildingBlock: ZUJKAS_clean_linker_0, # of connection points: 2
#     Edge 53, Type (0, 0), BuildingBlock: ZUJKAS_clean_linker_0, # of connection points: 2
#     Edge 54, Type (0, 0), BuildingBlock: ZUJKAS_clean_linker_0, # of connection points: 2
#     Edge 55, Type (0, 0), BuildingBlock: ZUJKAS_clean_linker_0, # of connection points: 2
#     Edge 56, Type (0, 0), BuildingBlock: ZUJKAS_clean_linker_0, # of connection points: 2
#     Edge 57, Type (0, 0), BuildingBlock: ZUJKAS_clean_linker_0, # of connection points: 2
#     Edge 58, Type (0, 0), BuildingBlock: ZUJKAS_clean_linker_0, # of connection points: 2
#     Edge 59, Type (0, 0), BuildingBlock: ZUJKAS_clean_linker_0, # of connection points: 2
#     Edge 60, Type (0, 0), BuildingBlock: ZUJKAS_clean_linker_0, # of connection points: 2
#     Edge 61, Type (0, 0), BuildingBlock: ZUJKAS_clean_linker_0, # of connection points: 2
#     Edge 62, Type (0, 0), BuildingBlock: ZUJKAS_clean_linker_0, # of connection points: 2
#     Edge 63, Type (0, 0), BuildingBlock: ZUJKAS_clean_linker_0, # of connection points: 2
#     Edge 64, Type (0, 0), BuildingBlock: ZUJKAS_clean_linker_0, # of connection points: 2
#     Edge 65, Type (0, 0), BuildingBlock: ZUJKAS_clean_linker_0, # of connection points: 2
#     Edge 66, Type (0, 0), BuildingBlock: ZUJKAS_clean_linker_0, # of connection points: 2
#     Edge 67, Type (0, 0), BuildingBlock: ZUJKAS_clean_linker_0, # of connection points: 2
#     Edge 68, Type (0, 0), BuildingBlock: ZUJKAS_clean_linker_0, # of connection points: 2
#     Edge 69, Type (0, 0), BuildingBlock: ZUJKAS_clean_linker_0, # of connection points: 2
#     Edge 70, Type (0, 0), BuildingBlock: ZUJKAS_clean_linker_0, # of connection points: 2
#     Edge 71, Type (0, 0), BuildingBlock: ZUJKAS_clean_linker_0, # of connection points: 2
#     Edge 72, Type (0, 0), BuildingBlock: ZUJKAS_clean_linker_0, # of connection points: 2
#     Edge 73, Type (0, 0), BuildingBlock: ZUJKAS_clean_linker_0, # of connection points: 2
#     Edge 74, Type (0, 0), BuildingBlock: ZUJKAS_clean_linker_0, # of connection points: 2
#     Edge 75, Type (0, 0), BuildingBlock: ZUJKAS_clean_linker_0, # of connection points: 2
#     Edge 76, Type (0, 0), BuildingBlock: ZUJKAS_clean_linker_0, # of connection points: 2
#     Edge 77, Type (0, 0), BuildingBlock: ZUJKAS_clean_linker_0, # of connection points: 2
#     Edge 78, Type (0, 0), BuildingBlock: ZUJKAS_clean_linker_0, # of connection points: 2
#     Edge 79, Type (0, 0), BuildingBlock: ZUJKAS_clean_linker_0, # of connection points: 2
#     Edge 80, Type (0, 0), BuildingBlock: ZUJKAS_clean_linker_0, # of connection points: 2
#     Edge 81, Type (0, 0), BuildingBlock: ZUJKAS_clean_linker_0, # of connection points: 2
#     Edge 82, Type (0, 0), BuildingBlock: ZUJKAS_clean_linker_0, # of connection points: 2
#     Edge 83, Type (0, 0), BuildingBlock: ZUJKAS_clean_linker_0, # of connection points: 2
#     Edge 84, Type (0, 0), BuildingBlock: ZUJKAS_clean_linker_0, # of connection points: 2
#     Edge 85, Type (0, 0), BuildingBlock: ZUJKAS_clean_linker_0, # of connection points: 2
#     Edge 86, Type (0, 0), BuildingBlock: ZUJKAS_clean_linker_0, # of connection points: 2
#     Edge 87, Type (0, 0), BuildingBlock: ZUJKAS_clean_linker_0, # of connection points: 2
#     Edge 88, Type (0, 0), BuildingBlock: ZUJKAS_clean_linker_0, # of connection points: 2
#     Edge 89, Type (0, 0), BuildingBlock: ZUJKAS_clean_linker_0, # of connection points: 2
#     Edge 90, Type (0, 0), BuildingBlock: ZUJKAS_clean_linker_0, # of connection points: 2
#     Edge 91, Type (0, 0), BuildingBlock: ZUJKAS_clean_linker_0, # of connection points: 2
#     Edge 92, Type (0, 0), BuildingBlock: ZUJKAS_clean_linker_0, # of connection points: 2
#     Edge 93, Type (0, 0), BuildingBlock: ZUJKAS_clean_linker_0, # of connection points: 2
#     Edge 94, Type (0, 0), BuildingBlock: ZUJKAS_clean_linker_0, # of connection points: 2
#     Edge 95, Type (0, 0), BuildingBlock: ZUJKAS_clean_linker_0, # of connection points: 2
# Relax obj value: 0.109
# Max RMSD: 0.208
# Mean RMSD: 0.207
data_MOF--net-ukj--node1-KUFVIS_clean_sbu_0--edge1-ZUJKAS_clean_linker_0
_symmetry_space_group_name_H-M    P1
_symmetry_Int_Tables_number       1
_symmetry_cell_setting            triclinic
loop_
_symmetry_equiv_pos_as_xyz
'x, y, z'
_cell_length_a     37.329052
_cell_length_b     82.557448
_cell_length_c     74.736268
_cell_angle_alpha  89.990002
_cell_angle_beta   89.995356
_cell_angle_gamma 90.0113
loop_
_atom_site_label
_atom_site_type_symbol
_atom_site_fract_x
_atom_site_fract_y
_atom_site_fract_z
_atom_type_partial_charge
Mn0 Mn 0.123 0.35395 0.25019 0.0
Mn1 Mn 0.16552 0.33089 0.21969 0.0
C2 C 0.18329 0.35808 0.24478 0.0
C3 C 0.103 0.35679 0.27963 0.0
C4 C 0.11484 0.35831 0.21015 0.0
O5 O 0.08872 0.33507 0.24589 0.0
O6 O 0.12409 0.31885 0.22929 0.0
C7 C 0.19258 0.3046 0.243 0.0
N8 N 0.19888 0.31656 0.23085 0.0
C9 C 0.26164 0.31004 0.22971 0.0
C10 C 0.25585 0.29762 0.24218 0.0
C11 C 0.22119 0.29494 0.24891 0.0
C12 C 0.23217 0.31937 0.22445 0.0
H13 H 0.16592 0.30247 0.24811 0.0
C14 C 0.09541 0.32161 0.23816 0.0
O15 O 0.08806 0.36478 0.26662 0.0
O16 O 0.129 0.34712 0.27544 0.0
N17 N 0.20651 0.34109 0.20929 0.0
C18 C 0.20773 0.35391 0.19781 0.0
C19 C 0.24026 0.35803 0.18959 0.0
C20 C 0.27111 0.34886 0.19314 0.0
C21 C 0.26938 0.3359 0.20524 0.0
C22 C 0.23611 0.33223 0.21285 0.0
H23 H 0.18399 0.36078 0.19469 0.0
O24 O 0.16437 0.3692 0.25261 0.0
O25 O 0.16654 0.34479 0.24083 0.0
O26 O 0.11036 0.36402 0.22586 0.0
O27 O 0.13251 0.34542 0.20681 0.0
C28 C 0.29932 0.32644 0.21002 0.0
C29 C 0.29553 0.31362 0.22238 0.0
H30 H 0.27782 0.2901 0.24673 0.0
H31 H 0.21652 0.2854 0.25856 0.0
H32 H 0.24145 0.36811 0.18036 0.0
H33 H 0.29605 0.35197 0.18657 0.0
H34 H 0.32547 0.32902 0.20441 0.0
H35 H 0.31883 0.30659 0.22615 0.0
Mn36 Mn 0.12098 0.89427 0.25883 0.0
Mn37 Mn 0.07056 0.91585 0.23007 0.0
C38 C 0.06246 0.88648 0.25357 0.0
C39 C 0.14229 0.89138 0.28805 0.0
C40 C 0.12924 0.89259 0.2186 0.0
O41 O 0.14877 0.91533 0.25542 0.0
O42 O 0.10788 0.93003 0.24033 0.0
C43 C 0.03574 0.93883 0.255 0.0
N44 N 0.03314 0.92723 0.24212 0.0
C45 C 0.96895 0.9297 0.24128 0.0
C46 C 0.97089 0.94169 0.25453 0.0
C47 C 0.00442 0.94623 0.26147 0.0
C48 C 0.00102 0.92266 0.23548 0.0
H49 H 0.06151 0.94239 0.26028 0.0
C50 C 0.13765 0.92863 0.24868 0.0
O51 O 0.15957 0.88518 0.27458 0.0
O52 O 0.1134 0.8994 0.28442 0.0
N53 N 0.03309 0.90362 0.21904 0.0
C54 C 0.03583 0.89161 0.2066 0.0
C55 C 0.0049 0.88604 0.1979 0.0
C56 C 0.97153 0.89292 0.20199 0.0
C57 C 0.96921 0.90501 0.21512 0.0
C58 C 0.00105 0.9103 0.22308 0.0
H59 H 0.06147 0.88653 0.20303 0.0
O60 O 0.08506 0.87636 0.26056 0.0
O61 O 0.07468 0.9009 0.25027 0.0
O62 O 0.13588 0.88632 0.23386 0.0
O63 O 0.10764 0.90439 0.21623 0.0
C64 C 0.93661 0.91209 0.22052 0.0
C65 C 0.93645 0.92433 0.23371 0.0
H66 H 0.94682 0.94746 0.25952 0.0
H67 H 0.00613 0.95545 0.27172 0.0
H68 H 0.00685 0.87661 0.18788 0.0
H69 H 0.94776 0.88871 0.19509 0.0
H70 H 0.9115 0.90814 0.21472 0.0
H71 H 0.9112 0.92955 0.23792 0.0
Mn72 Mn 0.11815 0.89325 1.00013 0.0
Mn73 Mn 0.17331 0.91503 0.02644 0.0
C74 C 0.17704 0.8854 0.0033 0.0
C75 C 0.09279 0.89032 0.97174 0.0
C76 C 0.11673 0.8919 0.04064 0.0
O77 O 0.09106 0.91432 0.0044 0.0
O78 O 0.13398 0.92909 0.0179 0.0
C79 C 0.2028 0.93778 0.99961 0.0
N80 N 0.20807 0.92627 0.01239 0.0
C81 C 0.27208 0.92843 0.0095 0.0
C82 C 0.26737 0.94036 0.99635 0.0
C83 C 0.23257 0.945 0.99133 0.0
C84 C 0.24141 0.92158 0.01717 0.0
H85 H 0.17607 0.94141 0.99578 0.0
C86 C 0.10303 0.92763 0.01072 0.0
O87 O 0.07733 0.88414 0.98577 0.0
O88 O 0.12214 0.8983 0.97438 0.0
N89 N 0.2129 0.90292 0.03567 0.0
C90 C 0.21278 0.89092 0.0482 0.0
C91 C 0.24543 0.88492 0.05473 0.0
C92 C 0.27784 0.89143 0.04848 0.0
C93 C 0.27734 0.90376 0.03557 0.0
C94 C 0.24397 0.90933 0.02965 0.0
H95 H 0.18799 0.88605 0.05333 0.0
O96 O 0.15351 0.87524 0.9972 0.0
O97 O 0.16552 0.89987 0.00682 0.0
O98 O 0.1071 0.88564 0.02576 0.0
O99 O 0.13911 0.90355 0.04202 0.0
C100 C 0.30861 0.91078 0.02837 0.0
C101 C 0.30598 0.92299 0.01522 0.0
H102 H 0.29026 0.94599 0.98997 0.0
H103 H 0.22872 0.95416 0.98116 0.0
H104 H 0.2456 0.87541 0.0647 0.0
H105 H 0.30294 0.88688 0.05372 0.0
H106 H 0.33483 0.90677 0.03272 0.0
H107 H 0.33021 0.92811 0.0096 0.0
Mn108 Mn 0.1213 0.35545 0.99792 0.0
Mn109 Mn 0.0794 0.333 0.02926 0.0
C110 C 0.06168 0.36037 0.0044 0.0
C111 C 0.1394 0.3582 0.96811 0.0
C112 C 0.13256 0.3597 0.03782 0.0
O113 O 0.15452 0.33605 1.00158 0.0
O114 O 0.11939 0.32046 0.01907 0.0
C115 C 0.04912 0.30704 0.00651 0.0
N116 N 0.04443 0.31906 0.01876 0.0
C117 C 0.98153 0.31313 0.02128 0.0
C118 C 0.98565 0.30066 0.0087 0.0
C119 C 0.01956 0.29765 1.00123 0.0
C120 C 0.01186 0.32219 0.02586 0.0
H121 H 0.07522 0.30465 1.00085 0.0
C122 C 0.14759 0.32278 0.0097 0.0
O123 O 0.15596 0.36577 0.98093 0.0
O124 O 0.11294 0.34892 0.9727 0.0
N125 N 0.03981 0.34368 0.04038 0.0
C126 C 0.04028 0.3564 0.052 0.0
C127 C 0.00883 0.36068 0.06112 0.0
C128 C 0.97732 0.35177 0.0583 0.0
C129 C 0.97723 0.33895 0.04598 0.0
C130 C 0.00954 0.33509 0.03752 0.0
H131 H 0.0646 0.36304 0.05461 0.0
O132 O 0.08078 0.37127 0.99628 0.0
O133 O 0.07787 0.34687 0.00807 0.0
O134 O 0.13645 0.36528 0.02202 0.0
O135 O 0.11411 0.34712 0.04152 0.0
C136 C 0.94644 0.3298 0.04185 0.0
C137 C 0.94851 0.31701 0.02936 0.0
H138 H 0.96295 0.29336 0.00465 0.0
H139 H 0.02294 0.28807 0.9915 0.0
H140 H 0.00901 0.37066 0.0705 0.0
H141 H 0.95321 0.35499 0.06555 0.0
H142 H 0.92098 0.3326 0.04808 0.0
H143 H 0.92457 0.3102 0.02611 0.0
Mn144 Mn 0.86966 0.64447 0.74482 0.0
Mn145 Mn 0.81273 0.66657 0.76977 0.0
C146 C 0.81124 0.6359 0.74806 0.0
C147 C 0.89641 0.64098 0.71681 0.0
C148 C 0.87106 0.64508 0.78527 0.0
O149 O 0.89515 0.66606 0.74831 0.0
O150 O 0.85058 0.68097 0.76019 0.0
C151 C 0.78053 0.68738 0.74182 0.0
N152 N 0.77664 0.67643 0.75531 0.0
C153 C 0.7124 0.67735 0.75288 0.0
C154 C 0.71568 0.68868 0.73899 0.0
C155 C 0.7499 0.69366 0.73339 0.0
C156 C 0.74387 0.67143 0.76067 0.0
H157 H 0.80681 0.69127 0.73756 0.0
C158 C 0.882 0.67954 0.75351 0.0
O159 O 0.91166 0.63552 0.73126 0.0
O160 O 0.86621 0.64848 0.71879 0.0
N161 N 0.77452 0.65416 0.77994 0.0
C162 C 0.77605 0.64277 0.79313 0.0
C163 C 0.74415 0.63659 0.80035 0.0
C164 C 0.71102 0.64228 0.79406 0.0
C165 C 0.71007 0.65391 0.7804 0.0
C166 C 0.74275 0.65976 0.77386 0.0
H167 H 0.80137 0.63857 0.79829 0.0
O168 O 0.83559 0.62587 0.74251 0.0
O169 O 0.82171 0.65065 0.75098 0.0
O170 O 0.88063 0.63803 0.77082 0.0
O171 O 0.84826 0.65661 0.7859 0.0
C172 C 0.678 0.65997 0.77303 0.0
C173 C 0.67916 0.67157 0.75918 0.0
H174 H 0.69213 0.69358 0.73248 0.0
H175 H 0.75265 0.70237 0.72265 0.0
H176 H 0.7451 0.6276 0.81088 0.0
H177 H 0.6865 0.63765 0.79988 0.0
H178 H 0.6523 0.65565 0.77779 0.0
H179 H 0.65435 0.67596 0.75344 0.0
Mn180 Mn 0.87536 0.10344 0.74818 0.0
Mn181 Mn 0.93234 0.08136 0.77319 0.0
C182 C 0.93449 0.11118 0.75053 0.0
C183 C 0.84863 0.10673 0.72009 0.0
C184 C 0.87669 0.10422 0.7888 0.0
O185 O 0.84866 0.08228 0.75237 0.0
O186 O 0.8921 0.06743 0.76537 0.0
C187 C 0.95907 0.05875 0.74553 0.0
N188 N 0.96563 0.07027 0.75815 0.0
C189 C 0.02922 0.06834 0.75338 0.0
C190 C 0.02318 0.05641 0.74038 0.0
C191 C 0.98793 0.05165 0.73638 0.0
C192 C -0.00062 0.07511 0.76191 0.0
H193 H 0.93201 0.05501 0.74249 0.0
C194 C 0.86088 0.06893 0.75848 0.0
O195 O 0.83384 0.11275 0.7344 0.0
O196 O 0.87809 0.09876 0.72231 0.0
N197 N 0.97286 0.09338 0.78158 0.0
C198 C 0.97408 0.10519 0.7943 0.0
C199 C 0.00737 0.11147 0.79966 0.0
C200 C 0.03906 0.10536 0.79209 0.0
C201 C 0.03717 0.093 0.77926 0.0
C202 C 0.00324 0.08725 0.77442 0.0
H203 H 0.94988 0.1098 0.80034 0.0
O204 O 0.91066 0.12149 0.74506 0.0
O205 O 0.92298 0.09672 0.754 0.0
O206 O 0.8657 0.11055 0.77417 0.0
O207 O 0.89961 0.09274 0.78963 0.0
C208 C 0.06762 0.08614 0.77111 0.0
C209 C 0.06364 0.07383 0.75817 0.0
H210 H 0.04538 0.05085 0.73335 0.0
H211 H 0.98304 0.04248 0.72632 0.0
H212 H 0.0086 0.12094 0.80964 0.0
H213 H 0.06468 0.11025 0.79624 0.0
H214 H 0.09422 0.09034 0.77458 0.0
H215 H 0.08725 0.06877 0.75187 0.0
Mn216 Mn 0.86857 0.1052 0.01021 0.0
Mn217 Mn 0.81626 0.08232 0.98357 0.0
C218 C 0.80946 0.11233 0.00594 0.0
C219 C 0.89222 0.10886 0.03891 0.0
C220 C 0.87256 0.10576 0.96969 0.0
O221 O 0.89703 0.08436 0.00684 0.0
O222 O 0.85568 0.06887 0.99311 0.0
C223 C 0.78615 0.05983 0.01049 0.0
N224 N 0.78117 0.071 0.99732 0.0
C225 C 0.71714 0.06807 0.99904 0.0
C226 C 0.72156 0.05648 0.01259 0.0
C227 C 0.75622 0.0524 0.01839 0.0
C228 C 0.74795 0.07516 0.99179 0.0
H229 H 0.81278 0.05662 0.0149 0.0
C230 C 0.8861 0.0708 1.00071 0.0
O231 O 0.90806 0.11499 0.02495 0.0
O232 O 0.86335 0.10058 0.03604 0.0
N233 N 0.77672 0.0938 0.97336 0.0
C234 C 0.77709 0.10551 0.96051 0.0
C235 C 0.74462 0.11092 0.95317 0.0
C236 C 0.71216 0.1041 0.95895 0.0
C237 C 0.71241 0.09208 0.97221 0.0
C238 C 0.74562 0.08711 0.97895 0.0
H239 H 0.80195 0.11059 0.95573 0.0
O240 O 0.83203 0.12286 0.01218 0.0
O241 O 0.822 0.09794 0.00293 0.0
O242 O 0.88083 0.11245 0.98456 0.0
O243 O 0.85091 0.09383 0.96826 0.0
C244 C 0.68105 0.08479 0.97897 0.0
C245 C 0.68339 0.07291 0.9925 0.0
H246 H 0.69854 0.05069 0.01867 0.0
H247 H 0.75984 0.04351 0.02887 0.0
H248 H 0.74464 0.1202 0.94293 0.0
H249 H 0.68723 0.10818 0.95307 0.0
H250 H 0.65496 0.08831 0.97396 0.0
H251 H 0.65907 0.06758 0.99777 0.0
Mn252 Mn 0.87723 0.64741 0.00723 0.0
Mn253 Mn 0.93136 0.67042 0.98193 0.0
C254 C 0.93643 0.63994 0.0036 0.0
C255 C 0.85199 0.6436 0.03554 0.0
C256 C 0.87406 0.648 0.96696 0.0
O257 O 0.8496 0.66848 0.00366 0.0
O258 O 0.89361 0.68426 0.99251 0.0
C259 C 0.96448 0.69157 0.00928 0.0
N260 N 0.96793 0.68058 0.99582 0.0
C261 C 0.03201 0.68353 0.99573 0.0
C262 C 0.02917 0.69498 0.00951 0.0
C263 C 0.99527 0.69888 0.01645 0.0
C264 C 0.00049 0.6763 0.9895 0.0
H265 H 0.93841 0.69479 0.01442 0.0
C266 C 0.86231 0.68224 0.99913 0.0
O267 O 0.83663 0.63775 0.02131 0.0
O268 O 0.88122 0.65174 0.03315 0.0
N269 N 0.96951 0.65849 0.97098 0.0
C270 C 0.96773 0.6472 0.95769 0.0
C271 C -0.00053 0.64143 0.94988 0.0
C272 C 0.03267 0.64765 0.95544 0.0
C273 C 0.03381 0.65958 0.96878 0.0
C274 C 0.00134 0.6646 0.97635 0.0
H275 H 0.94235 0.64264 0.953 0.0
O276 O 0.91324 0.62953 0.00952 0.0
O277 O 0.9244 0.6544 1.00067 0.0
O278 O 0.86623 0.64055 0.98142 0.0
O279 O 0.8952 0.66018 0.96625 0.0
C280 C 0.06582 0.66695 0.97456 0.0
C281 C 0.06485 0.67908 0.98785 0.0
H282 H 0.05282 0.70083 0.01488 0.0
H283 H 0.99284 0.70767 0.02713 0.0
H284 H -0.00169 0.63236 0.93944 0.0
H285 H 0.05708 0.64332 0.94923 0.0
H286 H 0.09131 0.66342 0.96884 0.0
H287 H 0.08965 0.68464 0.99221 0.0
Mn288 Mn 0.12149 0.85557 0.76019 0.0
Mn289 Mn 0.17403 0.83316 0.7332 0.0
C290 C 0.18068 0.86278 0.75641 0.0
C291 C 0.09682 0.8587 0.78869 0.0
C292 C 0.11804 0.85693 0.71975 0.0
O293 O 0.09299 0.83486 0.75605 0.0
O294 O 0.13472 0.81946 0.7425 0.0
C295 C 0.20447 0.81027 0.75961 0.0
N296 N 0.2093 0.82165 0.74665 0.0
C297 C 0.27337 0.81882 0.74824 0.0
C298 C 0.26911 0.80702 0.76156 0.0
C299 C 0.23451 0.80277 0.76732 0.0
C300 C 0.24246 0.82595 0.74114 0.0
H301 H 0.17789 0.80694 0.764 0.0
C302 C 0.10404 0.82134 0.74985 0.0
O303 O 0.0815 0.86506 0.77473 0.0
O304 O 0.12582 0.85047 0.78595 0.0
N305 N 0.21347 0.84487 0.72318 0.0
C306 C 0.21297 0.85682 0.71059 0.0
C307 C 0.24535 0.86234 0.70325 0.0
C308 C 0.27787 0.85544 0.7088 0.0
C309 C 0.27779 0.84327 0.72189 0.0
C310 C 0.24464 0.83811 0.72855 0.0
H311 H 0.18808 0.86196 0.70598 0.0
O312 O 0.15798 0.87315 0.76286 0.0
O313 O 0.16823 0.84844 0.75296 0.0
O314 O 0.10998 0.86341 0.73474 0.0
O315 O 0.13926 0.84488 0.71809 0.0
C316 C 0.30926 0.83605 0.72857 0.0
C317 C 0.30707 0.82392 0.74184 0.0
H318 H 0.2922 0.80119 0.76753 0.0
H319 H 0.23102 0.79371 0.77764 0.0
H320 H 0.24522 0.87176 0.69318 0.0
H321 H 0.30272 0.85956 0.70287 0.0
H322 H 0.3353 0.83984 0.72373 0.0
H323 H 0.33146 0.81861 0.74705 0.0
Mn324 Mn 0.11722 0.39236 0.75214 0.0
Mn325 Mn 0.07175 0.41502 0.72233 0.0
C326 C 0.05782 0.3865 0.74617 0.0
C327 C 0.13651 0.38909 0.78171 0.0
C328 C 0.12729 0.38985 0.71201 0.0
O329 O 0.14829 0.41253 0.74895 0.0
O330 O 0.11082 0.42809 0.7327 0.0
C331 C 0.03971 0.43957 0.74635 0.0
N332 N 0.03577 0.42779 0.73375 0.0
C333 C 0.97211 0.43216 0.73236 0.0
C334 C 0.97546 0.44436 0.7453 0.0
C335 C 0.00939 0.44803 0.75238 0.0
C336 C 0.00323 0.42405 0.72698 0.0
H337 H 0.0658 0.44246 0.75173 0.0
C338 C 0.13966 0.42598 0.74165 0.0
O339 O 0.15342 0.38223 0.76852 0.0
O340 O 0.1091 0.39796 0.77762 0.0
N341 N 0.03288 0.40377 0.71124 0.0
C342 C 0.03414 0.39129 0.69932 0.0
C343 C 0.0026 0.38627 0.69075 0.0
C344 C 0.97016 0.39419 0.69444 0.0
C345 C 0.96939 0.40683 0.70698 0.0
C346 C 0.00177 0.41144 0.71491 0.0
H347 H 0.05907 0.38537 0.69611 0.0
O348 O 0.07831 0.37569 0.75354 0.0
O349 O 0.07263 0.40039 0.74286 0.0
O350 O 0.13235 0.38368 0.72747 0.0
O351 O 0.10742 0.40216 0.70914 0.0
C352 C 0.9378 0.41506 0.7119 0.0
C353 C 0.93911 0.42761 0.7247 0.0
H354 H 0.95215 0.45094 0.74996 0.0
H355 H 0.01217 0.45741 0.7624 0.0
H356 H 0.00336 0.37645 0.68117 0.0
H357 H 0.94595 0.39038 0.68765 0.0
H358 H 0.91229 0.41171 0.70605 0.0
H359 H 0.91457 0.43367 0.72856 0.0
Mn360 Mn 0.12326 0.39293 0.49476 0.0
Mn361 Mn 0.17229 0.41578 0.5229 0.0
C362 C 0.18313 0.38713 0.49875 0.0
C363 C 0.10022 0.39008 0.4659 0.0
C364 C 0.1187 0.39037 0.5351 0.0
O365 O 0.0922 0.41282 0.49929 0.0
O366 O 0.13181 0.42877 0.51368 0.0
C367 C 0.20095 0.4401 0.49758 0.0
N368 N 0.20665 0.42844 0.51014 0.0
C369 C 0.2704 0.43262 0.50902 0.0
C370 C 0.26523 0.44473 0.49611 0.0
C371 C 0.23036 0.44844 0.49032 0.0
C372 C 0.24009 0.42466 0.51567 0.0
H373 H 0.17416 0.44301 0.49316 0.0
C374 C 0.10166 0.42642 0.50594 0.0
O375 O 0.08536 0.38273 0.47939 0.0
O376 O 0.1278 0.39907 0.46929 0.0
N377 N 0.21265 0.40466 0.53283 0.0
C378 C 0.21309 0.39235 0.54498 0.0
C379 C 0.24586 0.38718 0.55219 0.0
C380 C 0.2778 0.39484 0.54699 0.0
C381 C 0.27674 0.40746 0.53444 0.0
C382 C 0.24323 0.41218 0.52783 0.0
H383 H 0.18863 0.38659 0.5493 0.0
O384 O 0.16196 0.37639 0.49178 0.0
O385 O 0.16882 0.40101 0.50261 0.0
O386 O 0.11191 0.38405 0.51986 0.0
O387 O 0.1384 0.40287 0.53726 0.0
C388 C 0.30757 0.41556 0.52823 0.0
C389 C 0.30443 0.42803 0.51542 0.0
H390 H 0.28783 0.45121 0.4905 0.0
H391 H 0.22617 0.45774 0.48033 0.0
H392 H 0.24647 0.37744 0.56187 0.0
H393 H 0.30296 0.39093 0.55277 0.0
H394 H 0.33387 0.41219 0.5331 0.0
H395 H 0.32837 0.43401 0.51056 0.0
Mn396 Mn 0.12109 0.85321 0.50209 0.0
Mn397 Mn 0.07576 0.82933 0.53088 0.0
C398 C 0.06095 0.85795 0.5072 0.0
C399 C 0.14212 0.85722 0.47297 0.0
C400 C 0.12732 0.85576 0.54249 0.0
O401 O 0.15402 0.83375 0.50557 0.0
O402 O 0.1176 0.81745 0.52146 0.0
C403 C 0.04986 0.80417 0.50581 0.0
N404 N 0.04295 0.81561 0.51846 0.0
C405 C 0.9801 0.80915 0.51839 0.0
C406 C 0.98653 0.79725 0.50539 0.0
C407 C 0.02154 0.79481 0.49901 0.0
C408 C 0.00934 0.81819 0.52454 0.0
H409 H 0.07678 0.80221 0.50097 0.0
C410 C 0.14662 0.82017 0.51287 0.0
O411 O 0.15744 0.86424 0.48654 0.0
O412 O 0.11529 0.84777 0.47644 0.0
N413 N 0.03425 0.83923 0.5411 0.0
C414 C 0.03245 0.85159 0.55316 0.0
C415 C -0.00053 0.85542 0.5611 0.0
C416 C 0.96877 0.84646 0.55666 0.0
C417 C 0.9711 0.83402 0.54395 0.0
C418 C 0.0048 0.83057 0.5367 0.0
H419 H 0.05608 0.85829 0.55694 0.0
O420 O 0.08098 0.86915 0.50024 0.0
O421 O 0.07654 0.84422 0.51051 0.0
O422 O 0.13359 0.86188 0.52711 0.0
O423 O 0.10813 0.84317 0.54501 0.0
C424 C 0.94138 0.82483 0.53827 0.0
C425 C 0.94582 0.81251 0.52537 0.0
H426 H 0.96477 0.78998 0.50014 0.0
H427 H 0.02669 0.78568 0.48895 0.0
H428 H -0.0022 0.86512 0.57081 0.0
H429 H 0.94355 0.84926 0.5631 0.0
H430 H 0.91495 0.8272 0.54363 0.0
H431 H 0.9227 0.80568 0.52092 0.0
Mn432 Mn 0.87089 0.14328 0.25162 0.0
Mn433 Mn 0.82024 0.16497 0.28033 0.0
C434 C 0.81181 0.13606 0.25615 0.0
C435 C 0.89351 0.14058 0.22259 0.0
C436 C 0.87627 0.14051 0.29206 0.0
O437 O 0.89979 0.16391 0.2556 0.0
O438 O 0.86006 0.17853 0.27148 0.0
C439 C 0.79074 0.1893 0.25525 0.0
N440 N 0.78548 0.17755 0.26776 0.0
C441 C 0.72171 0.18172 0.26724 0.0
C442 C 0.72641 0.19391 0.25437 0.0
C443 C 0.76107 0.19766 0.2483 0.0
C444 C 0.75226 0.17372 0.27356 0.0
H445 H 0.81738 0.19226 0.25063 0.0
C446 C 0.88971 0.17704 0.26308 0.0
O447 O 0.9097 0.13396 0.23616 0.0
O448 O 0.86481 0.14882 0.22601 0.0
N449 N 0.78029 0.15348 0.2901 0.0
C450 C 0.78033 0.14109 0.30215 0.0
C451 C 0.74793 0.13616 0.30997 0.0
C452 C 0.71591 0.14406 0.30539 0.0
C453 C 0.71639 0.1565 0.29263 0.0
C454 C 0.74957 0.16112 0.28558 0.0
H455 H 0.80495 0.13523 0.30606 0.0
O456 O 0.83421 0.12581 0.24923 0.0
O457 O 0.8245 0.15034 0.25979 0.0
O458 O 0.88431 0.13487 0.27666 0.0
O459 O 0.85453 0.15223 0.29458 0.0
C460 C 0.68529 0.16456 0.28672 0.0
C461 C 0.68792 0.17707 0.27392 0.0
H462 H 0.70361 0.20041 0.24901 0.0
H463 H 0.76491 0.20702 0.23834 0.0
H464 H 0.7477 0.12644 0.31968 0.0
H465 H 0.69103 0.14035 0.31162 0.0
H466 H 0.6592 0.16115 0.29183 0.0
H467 H 0.6638 0.18305 0.26931 0.0
Mn468 Mn 0.87471 0.60334 0.24609 0.0
Mn469 Mn 0.92544 0.57986 0.27322 0.0
C470 C 0.93499 0.6088 0.24936 0.0
C471 C 0.85009 0.60763 0.21773 0.0
C472 C 0.87862 0.60716 0.28686 0.0
O473 O 0.84277 0.58385 0.25009 0.0
O474 O 0.87868 0.5695 0.26817 0.0
C475 C 0.93631 0.55342 0.24697 0.0
N476 N 0.95014 0.56448 0.2586 0.0
C477 C 0.01018 0.55523 0.25292 0.0
C478 C 0.99657 0.54367 0.24097 0.0
C479 C 0.95948 0.54282 0.23793 0.0
C480 C 0.98579 0.56556 0.26142 0.0
H481 H 0.90783 0.5527 0.24461 0.0
C482 C 0.84943 0.57141 0.25956 0.0
O483 O 0.83604 0.61429 0.23186 0.0
O484 O 0.8777 0.59843 0.22024 0.0
N485 N 0.97202 0.58756 0.27965 0.0
C486 C 0.98074 0.59906 0.29194 0.0
C487 C 0.01662 0.60107 0.29704 0.0
C488 C 0.04328 0.59122 0.28946 0.0
C489 C 0.03367 0.57926 0.27707 0.0
C490 C -0.00268 0.57756 0.27285 0.0
H491 H 0.9604 0.60641 0.29809 0.0
O492 O 0.91323 0.61979 0.2434 0.0
O493 O 0.92116 0.59464 0.25275 0.0
O494 O 0.86475 0.61123 0.27185 0.0
O495 O 0.90154 0.59578 0.28882 0.0
C496 C 0.0587 0.56888 0.26884 0.0
C497 C 0.04698 0.55695 0.25666 0.0
H498 H 0.01435 0.53543 0.23401 0.0
H499 H 0.94877 0.53397 0.22867 0.0
H500 H 0.02372 0.61016 0.30686 0.0
H501 H 0.071 0.59288 0.29333 0.0
H502 H 0.08702 0.57001 0.27175 0.0
H503 H 0.06648 0.54912 0.25031 0.0
Mn504 Mn 0.87021 0.60292 0.51014 0.0
Mn505 Mn 0.8104 0.58171 0.48565 0.0
C506 C 0.81076 0.61041 0.51001 0.0
C507 C 0.90038 0.6055 0.5374 0.0
C508 C 0.86229 0.6061 0.46974 0.0
O509 O 0.89702 0.58221 0.50414 0.0
O510 O 0.85322 0.56819 0.49038 0.0
C511 C 0.79142 0.55695 0.51268 0.0
N512 N 0.78129 0.56896 0.50127 0.0
C513 C 0.71915 0.56518 0.5087 0.0
C514 C 0.72887 0.55271 0.52048 0.0
C515 C 0.76519 0.54864 0.52255 0.0
C516 C 0.74651 0.57318 0.49943 0.0
H517 H 0.81929 0.55372 0.51421 0.0
C518 C 0.88492 0.56938 0.49678 0.0
O519 O 0.91309 0.61207 0.5229 0.0
O520 O 0.87099 0.59732 0.53584 0.0
N521 N 0.76723 0.59314 0.48003 0.0
C522 C 0.76226 0.60533 0.46798 0.0
C523 C 0.72744 0.6109 0.4644 0.0
C524 C 0.69801 0.60363 0.47293 0.0
C525 C 0.70369 0.59081 0.4849 0.0
C526 C 0.73902 0.58586 0.48803 0.0
H527 H 0.78466 0.61076 0.46113 0.0
O528 O 0.83507 0.62061 0.51517 0.0
O529 O 0.8219 0.59611 0.50551 0.0
O530 O 0.87663 0.61106 0.48428 0.0
O531 O 0.83864 0.59493 0.46883 0.0
C532 C 0.67566 0.58265 0.49373 0.0
C533 C 0.68339 0.56994 0.50575 0.0
H534 H 0.7087 0.54619 0.52802 0.0
H535 H 0.77292 0.53906 0.53164 0.0
H536 H 0.72328 0.6207 0.45502 0.0
H537 H 0.67118 0.60793 0.47012 0.0
H538 H 0.64805 0.58617 0.49151 0.0
H539 H 0.66162 0.56392 0.51265 0.0
Mn540 Mn 0.87491 0.14269 0.50978 0.0
Mn541 Mn 0.92663 0.16494 0.48212 0.0
C542 C 0.93513 0.13685 0.50714 0.0
C543 C 0.8493 0.13996 0.53819 0.0
C544 C 0.8749 0.13903 0.46932 0.0
O545 O 0.84424 0.16249 0.50437 0.0
O546 O 0.88413 0.17767 0.48923 0.0
C547 C 0.94968 0.19074 0.50705 0.0
N548 N 0.95807 0.17854 0.49552 0.0
C549 C 0.02085 0.18484 0.49731 0.0
C550 C 0.01293 0.19748 0.5092 0.0
C551 C 0.97721 0.20035 0.51422 0.0
C552 C 0.99241 0.17537 0.49103 0.0
H553 H 0.92216 0.19319 0.51062 0.0
C554 C 0.8537 0.17567 0.49677 0.0
O555 O 0.83546 0.13274 0.52436 0.0
O556 O 0.87732 0.14885 0.53536 0.0
N557 N 0.9691 0.1542 0.47409 0.0
C558 C 0.97216 0.14173 0.46222 0.0
C559 C 0.00625 0.13706 0.45618 0.0
C560 C 0.03671 0.14559 0.46191 0.0
C561 C 0.0328 0.1587 0.47367 0.0
C562 C -0.00175 0.16253 0.47961 0.0
H563 H 0.9488 0.13539 0.45739 0.0
O564 O 0.91328 0.12621 0.51376 0.0
O565 O 0.92128 0.15071 0.50281 0.0
O566 O 0.86544 0.13353 0.48459 0.0
O567 O 0.89582 0.15111 0.46715 0.0
C568 C 0.06171 0.16837 0.47938 0.0
C569 C 0.05574 0.18143 0.49121 0.0
H570 H 0.03404 0.2051 0.51451 0.0
H571 H 0.97087 0.21009 0.52337 0.0
H572 H 0.00898 0.12706 0.44692 0.0
H573 H 0.06292 0.1421 0.45702 0.0
H574 H 0.08871 0.16579 0.47489 0.0
H575 H 0.07826 0.18866 0.49566 0.0
Mn576 Mn 0.6211 0.35412 0.76117 0.0
Mn577 Mn 0.6741 0.33194 0.73421 0.0
C578 C 0.67993 0.36177 0.757 0.0
C579 C 0.5969 0.35743 0.78973 0.0
C580 C 0.61662 0.35495 0.72078 0.0
O581 O 0.59359 0.33304 0.75757 0.0
O582 O 0.63586 0.31795 0.74399 0.0
C583 C 0.70653 0.30965 0.76065 0.0
N584 N 0.71036 0.32096 0.74754 0.0
C585 C 0.77459 0.31875 0.74856 0.0
C586 C 0.77136 0.30702 0.76205 0.0
C587 C 0.73718 0.30251 0.76817 0.0
C588 C 0.7431 0.32554 0.7417 0.0
H589 H 0.68027 0.3061 0.7653 0.0
C590 C 0.60533 0.31956 0.75156 0.0
O591 O 0.58102 0.36346 0.77575 0.0
O592 O 0.6262 0.34941 0.78698 0.0
N593 N 0.71259 0.344 0.72377 0.0
C594 C 0.71107 0.35582 0.71105 0.0
C595 C 0.74292 0.36162 0.7034 0.0
C596 C 0.77595 0.3551 0.70875 0.0
C597 C 0.77691 0.34301 0.72193 0.0
C598 C 0.74426 0.33761 0.72896 0.0
H599 H 0.68578 0.36066 0.70658 0.0
O600 O 0.65695 0.37206 0.76336 0.0
O601 O 0.66795 0.34732 0.75381 0.0
O602 O 0.60865 0.36156 0.7357 0.0
O603 O 0.63832 0.34307 0.71919 0.0
C604 C 0.80893 0.33605 0.72832 0.0
C605 C 0.80779 0.32405 0.74175 0.0
H606 H 0.79493 0.30145 0.76784 0.0
H607 H 0.73448 0.2935 0.7786 0.0
H608 H 0.74197 0.37096 0.69325 0.0
H609 H 0.8004 0.35946 0.70261 0.0
H610 H 0.83461 0.33996 0.72312 0.0
H611 H 0.83261 0.31898 0.74674 0.0
Mn612 Mn 0.61808 0.89414 0.75042 0.0
Mn613 Mn 0.57293 0.91692 0.72058 0.0
C614 C 0.55818 0.88896 0.74526 0.0
C615 C 0.63891 0.89124 0.77964 0.0
C616 C 0.62539 0.89041 0.71028 0.0
O617 O 0.65062 0.91361 0.74633 0.0
O618 O 0.61412 0.9294 0.72988 0.0
C619 C 0.54555 0.94271 0.74444 0.0
N620 N 0.53933 0.93079 0.73224 0.0
C621 C 0.47622 0.93668 0.73184 0.0
C622 C 0.48193 0.94907 0.74436 0.0
C623 C 0.51673 0.95205 0.75074 0.0
C624 C 0.50593 0.92773 0.72614 0.0
H625 H 0.57229 0.94507 0.74931 0.0
C626 C 0.64301 0.92701 0.7387 0.0
O627 O 0.65452 0.88383 0.76642 0.0
O628 O 0.6118 0.90038 0.77578 0.0
N629 N 0.53201 0.9064 0.71049 0.0
C630 C 0.53088 0.89358 0.69902 0.0
C631 C 0.49812 0.88909 0.69127 0.0
C632 C 0.46695 0.89788 0.69529 0.0
C633 C 0.46862 0.91084 0.70737 0.0
C634 C 0.50212 0.91491 0.71447 0.0
H635 H 0.55484 0.88697 0.69559 0.0
O636 O 0.57832 0.87808 0.75274 0.0
O637 O 0.57354 0.90266 0.74149 0.0
O638 O 0.63119 0.88473 0.72588 0.0
O639 O 0.60616 0.90288 0.70717 0.0
C640 C 0.43843 0.91993 0.71259 0.0
C641 C 0.44218 0.93275 0.72494 0.0
H642 H 0.45979 0.9563 0.74924 0.0
H643 H 0.52134 0.96155 0.76045 0.0
H644 H 0.49697 0.879 0.68204 0.0
H645 H 0.44186 0.89453 0.68903 0.0
H646 H 0.41216 0.91709 0.70732 0.0
H647 H 0.4187 0.9395 0.72905 0.0
Mn648 Mn 0.62545 0.89313 0.49537 0.0
Mn649 Mn 0.67986 0.91341 0.52351 0.0
C650 C 0.68383 0.88467 0.49897 0.0
C651 C 0.60078 0.89112 0.46681 0.0
C652 C 0.62135 0.89037 0.53571 0.0
O653 O 0.59924 0.91437 0.50004 0.0
O654 O 0.64195 0.92819 0.51489 0.0
C655 C 0.71253 0.93683 0.49834 0.0
N656 N 0.71623 0.92481 0.51068 0.0
C657 C 0.78051 0.92653 0.5093 0.0
C658 C 0.77742 0.93898 0.49661 0.0
C659 C 0.74327 0.94409 0.49106 0.0
C660 C 0.74893 0.91967 0.51597 0.0
H661 H 0.68631 0.94083 0.49411 0.0
C662 C 0.61152 0.92734 0.50705 0.0
O663 O 0.58472 0.88481 0.48059 0.0
O664 O 0.63052 0.89876 0.46977 0.0
N665 N 0.71812 0.90054 0.5329 0.0
C666 C 0.71644 0.88805 0.54479 0.0
C667 C 0.74825 0.88158 0.5518 0.0
C668 C 0.7814 0.88812 0.54666 0.0
C669 C 0.78252 0.90088 0.53429 0.0
C670 C 0.74992 0.90694 0.5279 0.0
H671 H 0.69106 0.88316 0.54908 0.0
O672 O 0.66017 0.87491 0.49221 0.0
O673 O 0.67275 0.89912 0.50296 0.0
O674 O 0.61266 0.88477 0.52041 0.0
O675 O 0.644 0.90178 0.53803 0.0
C676 C 0.81466 0.90784 0.52807 0.0
C677 C 0.81367 0.92057 0.51546 0.0
H678 H 0.80106 0.94463 0.49099 0.0
H679 H 0.74068 0.95366 0.48124 0.0
H680 H 0.74719 0.87171 0.56131 0.0
H681 H 0.80582 0.88325 0.55234 0.0
H682 H 0.84031 0.90339 0.53274 0.0
H683 H 0.83856 0.92566 0.51058 0.0
Mn684 Mn 0.61978 0.35281 0.50298 0.0
Mn685 Mn 0.57018 0.33041 0.53126 0.0
C686 C 0.56054 0.35966 0.50774 0.0
C687 C 0.64232 0.35587 0.47407 0.0
C688 C 0.62684 0.35451 0.54316 0.0
O689 O 0.64909 0.33224 0.50676 0.0
O690 O 0.60846 0.31673 0.52103 0.0
C691 C 0.53703 0.30716 0.50608 0.0
N692 N 0.53358 0.31868 0.51899 0.0
C693 C 0.46948 0.31564 0.51937 0.0
C694 C 0.47231 0.30371 0.50609 0.0
C695 C 0.50623 0.2995 0.49937 0.0
C696 C 0.50109 0.32293 0.52543 0.0
H697 H 0.56309 0.30386 0.50095 0.0
C698 C 0.63851 0.31867 0.51307 0.0
O699 O 0.65817 0.36257 0.48767 0.0
O700 O 0.61393 0.34735 0.47735 0.0
N701 N 0.53187 0.3422 0.54218 0.0
C702 C 0.53372 0.35425 0.5546 0.0
C703 C 0.50228 0.35961 0.56301 0.0
C704 C 0.46932 0.35246 0.55864 0.0
C705 C 0.46793 0.34031 0.54555 0.0
C706 C 0.50023 0.33526 0.53787 0.0
H707 H 0.55901 0.35955 0.55837 0.0
O708 O 0.58253 0.3701 0.50081 0.0
O709 O 0.57374 0.34545 0.51114 0.0
O710 O 0.63298 0.36106 0.52801 0.0
O711 O 0.60643 0.34224 0.54532 0.0
C712 C 0.4358 0.33294 0.53989 0.0
C713 C 0.43655 0.32072 0.5267 0.0
H714 H 0.44863 0.29776 0.5009 0.0
H715 H 0.50861 0.29033 0.48909 0.0
H716 H 0.50352 0.36907 0.57301 0.0
H717 H 0.44517 0.35651 0.56532 0.0
H718 H 0.41035 0.33669 0.54549 0.0
H719 H 0.41164 0.3153 0.52229 0.0
Mn720 Mn 0.37166 0.64418 0.24678 0.0
Mn721 Mn 0.31901 0.66652 0.27384 0.0
C722 C 0.31259 0.63695 0.25089 0.0
C723 C 0.39482 0.64069 0.21796 0.0
C724 C 0.37525 0.64289 0.28736 0.0
O725 O 0.39984 0.66508 0.25026 0.0
O726 O 0.35889 0.68007 0.26495 0.0
C727 C 0.29006 0.68977 0.24741 0.0
N728 N 0.2845 0.67827 0.26016 0.0
C729 C 0.22056 0.68124 0.25782 0.0
C730 C 0.22558 0.69318 0.24471 0.0
C731 C 0.26048 0.69741 0.23943 0.0
C732 C 0.25105 0.67398 0.26521 0.0
H733 H 0.31687 0.69309 0.24337 0.0
C734 C 0.38903 0.67843 0.25699 0.0
O735 O 0.41103 0.63455 0.2318 0.0
O736 O 0.36607 0.64898 0.22103 0.0
N737 N 0.27899 0.65489 0.28338 0.0
C738 C 0.27878 0.64275 0.29574 0.0
C739 C 0.24596 0.63703 0.30238 0.0
C740 C 0.21375 0.64396 0.29642 0.0
C741 C 0.21462 0.65645 0.28371 0.0
C742 C 0.24814 0.6617 0.27763 0.0
H743 H 0.30344 0.63753 0.30059 0.0
O744 O 0.3353 0.62648 0.24466 0.0
O745 O 0.32505 0.65131 0.25412 0.0
O746 O 0.38421 0.63671 0.27232 0.0
O747 O 0.35303 0.65456 0.28906 0.0
C748 C 0.18357 0.6639 0.27682 0.0
C749 C 0.18653 0.67618 0.26376 0.0
H750 H 0.20284 0.69912 0.23854 0.0
H751 H 0.26457 0.70658 0.22927 0.0
H752 H 0.24551 0.62738 0.31219 0.0
H753 H 0.18853 0.63959 0.30171 0.0
H754 H 0.15725 0.66018 0.28133 0.0
H755 H 0.16245 0.68163 0.25837 0.0
Mn756 Mn 0.3733 0.10558 0.24909 0.0
Mn757 Mn 0.42256 0.08322 0.27772 0.0
C758 C 0.43348 0.11111 0.25269 0.0
C759 C 0.35015 0.10833 0.22018 0.0
C760 C 0.37011 0.10926 0.28949 0.0
O761 O 0.34181 0.08589 0.2541 0.0
O762 O 0.38073 0.07053 0.26969 0.0
C763 C 0.44791 0.05773 0.25294 0.0
N764 N 0.45519 0.06968 0.26496 0.0
C765 C 0.51847 0.06441 0.26321 0.0
C766 C 0.51167 0.052 0.25086 0.0
C767 C 0.47624 0.0487 0.24564 0.0
C768 C 0.48919 0.07309 0.2699 0.0
H769 H 0.42068 0.05512 0.24898 0.0
C770 C 0.35073 0.07265 0.26175 0.0
O771 O 0.33553 0.11579 0.23365 0.0
O772 O 0.3774 0.09916 0.22364 0.0
N773 N 0.46425 0.09404 0.2866 0.0
C774 C 0.46627 0.10672 0.29821 0.0
C775 C 0.4998 0.11156 0.30482 0.0
C776 C 0.53082 0.1032 0.29959 0.0
C777 C 0.52812 0.0902 0.28758 0.0
C778 C 0.49395 0.08587 0.28153 0.0
H779 H 0.44248 0.11302 0.30256 0.0
O780 O 0.41243 0.12188 0.24569 0.0
O781 O 0.41885 0.09739 0.25692 0.0
O782 O 0.36228 0.11491 0.27405 0.0
O783 O 0.39043 0.09702 0.29204 0.0
C784 C 0.55793 0.08134 0.28139 0.0
C785 C 0.55315 0.06857 0.26908 0.0
H786 H 0.53344 0.04497 0.24524 0.0
H787 H 0.47079 0.03917 0.23608 0.0
H788 H 0.5017 0.12161 0.31406 0.0
H789 H 0.55656 0.10686 0.30491 0.0
H790 H 0.58471 0.08434 0.28589 0.0
H791 H 0.57633 0.06202 0.26422 0.0
Mn792 Mn 0.37091 0.1025 0.50647 0.0
Mn793 Mn 0.32335 0.07913 0.47816 0.0
C794 C 0.30985 0.1062 0.5039 0.0
C795 C 0.39587 0.10537 0.53496 0.0
C796 C 0.37095 0.10693 0.46615 0.0
O797 O 0.40494 0.08396 0.50053 0.0
O798 O 0.36749 0.0676 0.48531 0.0
C799 C 0.30355 0.05227 0.50244 0.0
N800 N 0.29368 0.06437 0.49108 0.0
C801 C 0.23177 0.05646 0.49272 0.0
C802 C 0.24123 0.04389 0.50443 0.0
C803 C 0.27725 0.04187 0.50942 0.0
C804 C 0.25901 0.06669 0.48657 0.0
H805 H 0.33131 0.05052 0.50605 0.0
C806 C 0.39755 0.07055 0.49287 0.0
O807 O 0.4082 0.11357 0.52144 0.0
O808 O 0.36967 0.0955 0.53181 0.0
N809 N 0.27959 0.08879 0.47019 0.0
C810 C 0.2749 0.10155 0.45886 0.0
C811 C 0.24027 0.10547 0.45294 0.0
C812 C 0.21097 0.09596 0.45831 0.0
C813 C 0.21658 0.08265 0.46962 0.0
C814 C 0.25157 0.07955 0.47542 0.0
H815 H 0.29738 0.10869 0.45435 0.0
O816 O 0.32973 0.11743 0.51087 0.0
O817 O 0.32614 0.09301 0.49921 0.0
O818 O 0.37882 0.11258 0.48158 0.0
O819 O 0.35242 0.09412 0.46366 0.0
C820 C 0.18892 0.07217 0.47512 0.0
C821 C 0.19648 0.05913 0.48675 0.0
H822 H 0.22109 0.0357 0.50963 0.0
H823 H 0.28477 0.0322 0.51845 0.0
H824 H 0.23622 0.11569 0.44409 0.0
H825 H 0.18435 0.09891 0.45355 0.0
H826 H 0.16163 0.07416 0.47071 0.0
H827 H 0.17487 0.05131 0.49111 0.0
Mn828 Mn 0.37769 0.64365 0.50817 0.0
Mn829 Mn 0.43512 0.66543 0.48307 0.0
C830 C 0.43735 0.63654 0.50705 0.0
C831 C 0.34984 0.64069 0.53601 0.0
C832 C 0.38141 0.64155 0.46765 0.0
O833 O 0.35015 0.6644 0.5028 0.0
O834 O 0.39367 0.67914 0.48962 0.0
C835 C 0.45893 0.68935 0.51005 0.0
N836 N 0.46688 0.67744 0.49809 0.0
C837 C 0.52998 0.6801 0.50391 0.0
C838 C 0.52252 0.69245 0.51624 0.0
C839 C 0.48682 0.69704 0.51938 0.0
C840 C 0.50107 0.67278 0.49514 0.0
H841 H 0.43152 0.69294 0.51244 0.0
C842 C 0.36213 0.6776 0.49615 0.0
O843 O 0.33627 0.63404 0.52176 0.0
O844 O 0.37859 0.64921 0.53389 0.0
N845 N 0.47674 0.65354 0.4759 0.0
C846 C 0.47934 0.64121 0.46385 0.0
C847 C 0.51323 0.63501 0.45942 0.0
C848 C 0.54411 0.64168 0.46724 0.0
C849 C 0.5408 0.65454 0.47938 0.0
C850 C 0.50633 0.66021 0.48329 0.0
H851 H 0.45576 0.63613 0.45765 0.0
O852 O 0.41373 0.62613 0.51249 0.0
O853 O 0.42531 0.65074 0.50281 0.0
O854 O 0.36981 0.63561 0.48236 0.0
O855 O 0.40403 0.65313 0.46666 0.0
C856 C 0.57035 0.66195 0.48778 0.0
C857 C 0.56494 0.6747 0.50005 0.0
H858 H 0.54396 0.69844 0.52341 0.0
H859 H 0.48083 0.70652 0.52891 0.0
H860 H 0.51556 0.62513 0.44998 0.0
H861 H 0.5702 0.63684 0.46383 0.0
H862 H 0.59735 0.65782 0.48503 0.0
H863 H 0.58786 0.68018 0.50656 0.0
Mn864 Mn 0.62451 0.85486 0.25593 0.0
Mn865 Mn 0.67671 0.83287 0.22817 0.0
C866 C 0.68467 0.86086 0.25325 0.0
C867 C 0.59918 0.85779 0.28426 0.0
C868 C 0.62479 0.85874 0.2155 0.0
O869 O 0.59427 0.83488 0.25079 0.0
O870 O 0.63389 0.82016 0.23494 0.0
C871 C 0.6989 0.80722 0.25354 0.0
N872 N 0.70768 0.81916 0.24176 0.0
C873 C 0.77061 0.81376 0.24534 0.0
C874 C 0.76226 0.80136 0.25747 0.0
C875 C 0.72625 0.79812 0.26164 0.0
C876 C 0.74224 0.82252 0.23784 0.0
H877 H 0.67124 0.80466 0.25671 0.0
C878 C 0.6037 0.82189 0.24281 0.0
O879 O 0.58503 0.86479 0.27037 0.0
O880 O 0.6273 0.84894 0.28153 0.0
N881 N 0.71952 0.84352 0.22046 0.0
C882 C 0.72302 0.85597 0.20862 0.0
C883 C 0.75724 0.86052 0.20271 0.0
C884 C 0.78749 0.85209 0.20883 0.0
C885 C 0.78331 0.83937 0.22109 0.0
C886 C 0.74848 0.83527 0.22635 0.0
H887 H 0.69987 0.86221 0.20348 0.0
O888 O 0.66267 0.87155 0.25965 0.0
O889 O 0.67094 0.84697 0.24894 0.0
O890 O 0.61436 0.86377 0.23078 0.0
O891 O 0.64651 0.84698 0.21316 0.0
C892 C 0.81228 0.8305 0.22818 0.0
C893 C 0.80596 0.81782 0.24044 0.0
H894 H 0.78326 0.79427 0.26369 0.0
H895 H 0.71959 0.7886 0.27103 0.0
H896 H 0.76026 0.87035 0.19324 0.0
H897 H 0.81376 0.85545 0.20394 0.0
H898 H 0.83955 0.83341 0.2244 0.0
H899 H 0.82846 0.81122 0.24597 0.0
Mn900 Mn 0.61726 0.39462 0.26113 0.0
Mn901 Mn 0.56209 0.4157 0.23422 0.0
C902 C 0.55909 0.38592 0.25737 0.0
C903 C 0.64223 0.39226 0.28959 0.0
C904 C 0.62136 0.39361 0.22079 0.0
O905 O 0.64307 0.41605 0.25698 0.0
O906 O 0.59903 0.43047 0.2439 0.0
C907 C 0.52764 0.4374 0.26061 0.0
N908 N 0.52485 0.42599 0.24754 0.0
C909 C 0.46047 0.42683 0.24874 0.0
C910 C 0.46261 0.43865 0.26218 0.0
C911 C 0.49635 0.4439 0.26819 0.0
C912 C 0.49256 0.42071 0.2418 0.0
H913 H 0.55355 0.44151 0.26519 0.0
C914 C 0.63001 0.42934 0.25114 0.0
O915 O 0.65812 0.38601 0.27572 0.0
O916 O 0.6124 0.39985 0.28682 0.0
N917 N 0.52477 0.40286 0.22387 0.0
C918 C 0.52738 0.39108 0.21115 0.0
C919 C 0.4961 0.38464 0.20356 0.0
C920 C 0.46248 0.39046 0.20898 0.0
C921 C 0.4604 0.4025 0.22217 0.0
C922 C 0.49252 0.40859 0.22911 0.0
H923 H 0.55309 0.38678 0.20661 0.0
O924 O 0.58301 0.37615 0.26386 0.0
O925 O 0.56975 0.40054 0.2539 0.0
O926 O 0.6297 0.38705 0.23569 0.0
O927 O 0.59892 0.40522 0.21924 0.0
C928 C 0.42775 0.40873 0.22867 0.0
C929 C 0.42778 0.42079 0.24206 0.0
H930 H 0.43855 0.44371 0.26803 0.0
H931 H 0.49822 0.45298 0.27859 0.0
H932 H 0.49791 0.37535 0.19338 0.0
H933 H 0.43846 0.38563 0.20286 0.0
H934 H 0.40246 0.40423 0.22359 0.0
H935 H 0.40252 0.42531 0.24713 0.0
Mn936 Mn 0.62547 0.39357 1.00031 0.0
Mn937 Mn 0.68233 0.41484 0.02622 0.0
C938 C 0.68381 0.3849 0.00347 0.0
C939 C 0.59947 0.39061 0.97209 0.0
C940 C 0.62388 0.39291 0.04082 0.0
O941 O 0.60015 0.41513 0.00421 0.0
O942 O 0.64427 0.42944 0.01738 0.0
C943 C 0.71389 0.43669 0.99906 0.0
N944 N 0.7181 0.42529 0.01206 0.0
C945 C 0.78228 0.42649 0.00947 0.0
C946 C 0.77867 0.43829 0.99609 0.0
C947 C 0.74431 0.44335 0.99081 0.0
C948 C 0.75099 0.42018 0.01708 0.0
H949 H 0.6875 0.44066 0.99506 0.0
C950 C 0.61321 0.42835 0.01023 0.0
O951 O 0.58379 0.3849 0.9863 0.0
O952 O 0.62953 0.39813 0.97445 0.0
N953 N 0.72081 0.40218 0.03571 0.0
C954 C 0.71958 0.39032 0.04839 0.0
C955 C 0.75166 0.38396 0.05521 0.0
C956 C 0.78464 0.38998 0.04909 0.0
C957 C 0.78527 0.40212 0.03596 0.0
C958 C 0.75243 0.40807 0.02976 0.0
H959 H 0.69436 0.38587 0.05344 0.0
O960 O 0.65949 0.37499 0.99765 0.0
O961 O 0.67332 0.39957 0.00681 0.0
O962 O 0.61393 0.38652 0.02607 0.0
O963 O 0.64712 0.40422 0.04199 0.0
C964 C 0.81716 0.4086 0.02883 0.0
C965 C 0.81567 0.42065 0.01546 0.0
H966 H 0.80207 0.44349 0.98973 0.0
H967 H 0.74131 0.45242 0.98046 0.0
H968 H 0.75096 0.37458 0.06533 0.0
H969 H 0.80929 0.38518 0.05458 0.0
H970 H 0.84299 0.40429 0.03341 0.0
H971 H 0.84036 0.42535 0.00989 0.0
Mn972 Mn 0.61536 0.85581 0.99356 0.0
Mn973 Mn 0.57249 0.83129 0.02287 0.0
C974 C 0.555 0.85922 0.99865 0.0
C975 C 0.63614 0.86041 0.96458 0.0
C976 C 0.61582 0.86041 0.03425 0.0
O977 O 0.65072 0.83746 0.99679 0.0
O978 O 0.6203 0.82248 0.01678 0.0
C979 C 0.56297 0.80385 0.99779 0.0
N980 N 0.54875 0.81474 0.00949 0.0
C981 C 0.48981 0.80341 0.00588 0.0
C982 C 0.50385 0.792 0.99388 0.0
C983 C 0.54057 0.79227 0.98976 0.0
C984 C 0.5134 0.81474 0.01333 0.0
H985 H 0.59118 0.80399 0.99461 0.0
C986 C 0.64769 0.82525 0.00702 0.0
O987 O 0.65049 0.86776 0.97819 0.0
O988 O 0.61028 0.85039 0.96791 0.0
N989 N 0.52565 0.83761 0.03048 0.0
C990 C 0.51649 0.84926 0.04254 0.0
C991 C 0.48097 0.8503 0.04857 0.0
C992 C 0.45522 0.83931 0.04219 0.0
C993 C 0.46531 0.82731 0.02995 0.0
C994 C 0.5013 0.82664 0.02474 0.0
H995 H 0.53625 0.85753 0.04776 0.0
O996 O 0.57399 0.87081 0.99178 0.0
O997 O 0.57157 0.84563 1.00187 0.0
O998 O 0.62697 0.86465 0.01876 0.0
O999 O 0.59538 0.8483 0.03723 0.0
C1000 C 0.44113 0.81591 0.02281 0.0
C1001 C 0.45332 0.80405 0.01066 0.0
H1002 H 0.48668 0.78302 0.98771 0.0
H1003 H 0.5516 0.78354 0.98047 0.0
H1004 H 0.47348 0.85951 0.05817 0.0
H1005 H 0.42779 0.84019 0.04682 0.0
H1006 H 0.41308 0.81621 0.0265 0.0
H1007 H 0.43444 0.79543 0.00514 0.0
Mn1008 Mn 0.37042 0.14303 0.74758 0.0
Mn1009 Mn 0.31546 0.16473 0.77412 0.0
C1010 C 0.31049 0.13649 0.7492 0.0
C1011 C 0.39739 0.14061 0.71949 0.0
C1012 C 0.36833 0.13973 0.78802 0.0
O1013 O 0.39944 0.16326 0.75345 0.0
O1014 O 0.35725 0.17814 0.7674 0.0
C1015 C 0.2916 0.18956 0.74816 0.0
N1016 N 0.28361 0.17748 0.75992 0.0
C1017 C 0.22038 0.18116 0.75524 0.0
C1018 C 0.2279 0.19369 0.74314 0.0
C1019 C 0.26368 0.19785 0.73952 0.0
C1020 C 0.24932 0.17322 0.7633 0.0
H1021 H 0.31908 0.19284 0.74543 0.0
C1022 C 0.38842 0.17644 0.76051 0.0
O1023 O 0.41094 0.13342 0.73343 0.0
O1024 O 0.36905 0.14932 0.72206 0.0
N1025 N 0.27354 0.15318 0.78155 0.0
C1026 C 0.27086 0.14067 0.79338 0.0
C1027 C 0.23684 0.13489 0.79826 0.0
C1028 C 0.20596 0.14219 0.79117 0.0
C1029 C 0.20939 0.15524 0.77929 0.0
C1030 C 0.24397 0.16045 0.77488 0.0
H1031 H 0.29445 0.13513 0.79905 0.0
O1032 O 0.33327 0.12605 0.74301 0.0
O1033 O 0.3234 0.15046 0.75376 0.0
O1034 O 0.37875 0.1341 0.77296 0.0
O1035 O 0.34669 0.15163 0.78973 0.0
C1036 C 0.17984 0.16329 0.77166 0.0
C1037 C 0.18533 0.17619 0.75958 0.0
H1038 H 0.20643 0.20015 0.7365 0.0
H1039 H 0.2697 0.20748 0.73016 0.0
H1040 H 0.23444 0.12486 0.80751 0.0
H1041 H 0.17978 0.13768 0.79495 0.0
H1042 H 0.15276 0.15954 0.77484 0.0
H1043 H 0.16238 0.18215 0.75363 0.0
Mn1044 Mn 0.37427 0.60238 0.7502 0.0
Mn1045 Mn 0.41945 0.58034 0.78079 0.0
C1046 C 0.4345 0.60736 0.75492 0.0
C1047 C 0.35289 0.60457 0.7209 0.0
C1048 C 0.36774 0.60739 0.79028 0.0
O1049 O 0.34122 0.5832 0.75523 0.0
O1050 O 0.37782 0.56786 0.77217 0.0
C1051 C 0.44584 0.55372 0.75779 0.0
N1052 N 0.45251 0.56592 0.76957 0.0
C1053 C 0.51534 0.55948 0.77033 0.0
C1054 C 0.50917 0.5468 0.75823 0.0
C1055 C 0.47429 0.54395 0.75187 0.0
C1056 C 0.48599 0.56888 0.77562 0.0
H1057 H 0.41901 0.55145 0.75298 0.0
C1058 C 0.34872 0.57008 0.76348 0.0
O1059 O 0.33807 0.61256 0.73392 0.0
O1060 O 0.3796 0.59526 0.72498 0.0
N1061 N 0.46075 0.5909 0.7904 0.0
C1062 C 0.46229 0.60396 0.80154 0.0
C1063 C 0.49507 0.60825 0.8094 0.0
C1064 C 0.52584 0.59902 0.80582 0.0
C1065 C 0.5238 0.58586 0.79402 0.0
C1066 C 0.49027 0.58199 0.78683 0.0
H1067 H 0.43858 0.61087 0.80468 0.0
O1068 O 0.41455 0.61809 0.74707 0.0
O1069 O 0.41882 0.59389 0.7593 0.0
O1070 O 0.36187 0.61266 0.77449 0.0
O1071 O 0.38679 0.59494 0.79375 0.0
C1072 C 0.55363 0.57635 0.78921 0.0
C1073 C 0.54946 0.56326 0.77723 0.0
H1074 H 0.53102 0.53922 0.75367 0.0
H1075 H 0.46934 0.53422 0.7425 0.0
H1076 H 0.49652 0.61849 0.8184 0.0
H1077 H 0.55089 0.60218 0.81222 0.0
H1078 H 0.57994 0.57905 0.79453 0.0
H1079 H 0.57267 0.55617 0.77344 0.0
Mn1080 Mn 0.37102 0.60313 0.00466 0.0
Mn1081 Mn 0.32637 0.57942 0.97549 0.0
C1082 C 0.31022 0.60663 1.00054 0.0
C1083 C 0.39334 0.6067 0.0336 0.0
C1084 C 0.37442 0.6073 0.96429 0.0
O1085 O 0.40565 0.58453 0.99996 0.0
O1086 O 0.37021 0.5682 0.98355 0.0
C1087 C 0.30545 0.5525 0.99946 0.0
N1088 N 0.29616 0.56446 0.9878 0.0
C1089 C 0.23466 0.5558 0.98771 0.0
C1090 C 0.24351 0.54337 0.99971 0.0
C1091 C 0.27901 0.5418 0.00573 0.0
C1092 C 0.26195 0.56635 0.98231 0.0
H1093 H 0.33286 0.55108 0.00382 0.0
C1094 C 0.39931 0.57116 0.99199 0.0
O1095 O 0.4071 0.61444 0.0201 0.0
O1096 O 0.36731 0.5968 0.03017 0.0
N1097 N 0.28298 0.58875 0.96661 0.0
C1098 C 0.27873 0.60165 0.95542 0.0
C1099 C 0.24456 0.60521 0.9486 0.0
C1100 C 0.21538 0.5952 0.95293 0.0
C1101 C 0.22058 0.58182 0.9642 0.0
C1102 C 0.25501 0.57914 0.97098 0.0
H1103 H 0.30121 0.60914 0.95167 0.0
O1104 O 0.32933 0.61806 0.00768 0.0
O1105 O 0.32706 0.5934 0.99652 0.0
O1106 O 0.38131 0.61288 0.97985 0.0
O1107 O 0.356 0.59453 0.96147 0.0
C1108 C 0.19306 0.57091 0.96877 0.0
C1109 C 0.19998 0.55802 0.98069 0.0
H1110 H 0.22329 0.53495 0.00436 0.0
H1111 H 0.28606 0.53224 0.01499 0.0
H1112 H 0.24084 0.6155 0.93983 0.0
H1113 H 0.18916 0.59785 0.94745 0.0
H1114 H 0.16624 0.57253 0.96353 0.0
H1115 H 0.17838 0.54993 0.98443 0.0
Mn1116 Mn 0.37138 0.14417 0.00475 0.0
Mn1117 Mn 0.41891 0.16589 0.97465 0.0
C1118 C 0.43144 0.13863 1.00057 0.0
C1119 C 0.34933 0.14205 0.03394 0.0
C1120 C 0.36749 0.13894 0.96448 0.0
O1121 O 0.33919 0.16356 0.99961 0.0
O1122 O 0.37617 0.17819 0.98214 0.0
C1123 C 0.44216 0.19267 0.99829 0.0
N1124 N 0.45036 0.18057 0.9866 0.0
C1125 C 0.51294 0.1875 0.98733 0.0
C1126 C 0.50519 0.20008 0.99933 0.0
C1127 C 0.46966 0.20262 0.00489 0.0
C1128 C 0.48446 0.17789 0.98134 0.0
H1129 H 0.41485 0.19469 1.00251 0.0
C1130 C 0.34693 0.17633 0.9908 0.0
O1131 O 0.3344 0.1342 0.02083 0.0
O1132 O 0.37638 0.15119 0.02999 0.0
N1133 N 0.46146 0.15568 0.96598 0.0
C1134 C 0.46448 0.14276 0.95474 0.0
C1135 C 0.49809 0.13885 0.94751 0.0
C1136 C 0.52813 0.14832 0.95181 0.0
C1137 C 0.52453 0.16134 0.96369 0.0
C1138 C 0.49025 0.16486 0.97018 0.0
H1139 H 0.44133 0.13567 0.95105 0.0
O1140 O 0.41063 0.12808 0.00813 0.0
O1141 O 0.41672 0.15232 0.99613 0.0
O1142 O 0.35938 0.13415 0.98023 0.0
O1143 O 0.38796 0.15096 0.96116 0.0
C1144 C 0.55355 0.17102 0.96926 0.0
C1145 C 0.5478 0.18401 0.98121 0.0
H1146 H 0.52631 0.20781 0.00441 0.0
H1147 H 0.46348 0.21228 0.01419 0.0
H1148 H 0.50076 0.12869 0.93846 0.0
H1149 H 0.55394 0.14539 0.94604 0.0
H1150 H 0.58043 0.16851 0.96456 0.0
H1151 H 0.57037 0.19124 0.98558 0.0
H1152 H 0.12778 0.39023 0.20383 0.0
H1153 H 0.12904 0.40305 0.17416 0.0
H1154 H 0.08185 0.36012 0.15121 0.0
H1155 H 0.08102 0.34733 0.18061 0.0
H1156 H 0.17105 0.38841 0.148 0.0
H1157 H 0.03351 0.39604 0.12248 0.0
H1158 H 0.04344 0.39474 0.14612 0.0
H1159 H 0.0388 0.37662 0.13288 0.0
C1160 C 0.11601 0.38391 0.19257 0.0
C1161 C 0.10401 0.36787 0.19444 0.0
C1162 C 0.11702 0.39118 0.17563 0.0
C1163 C 0.10527 0.3826 0.16049 0.0
C1164 C 0.09034 0.36712 0.16271 0.0
H1165 H 0.1686 0.3485 0.06659 0.0
H1166 H 0.16884 0.36089 0.09618 0.0
C1167 C 0.08988 0.35979 0.17952 0.0
C1168 C 0.11446 0.38809 0.14217 0.0
H1169 H 0.07904 0.3889 0.10017 0.0
C1170 C 0.15089 0.38911 0.13757 0.0
C1171 C 0.0883 0.38925 0.12857 0.0
C1172 C 0.04881 0.38928 0.13281 0.0
C1173 C 0.16181 0.3894 0.1196 0.0
C1174 C 0.13564 0.38852 0.10597 0.0
C1175 C 0.09921 0.3894 0.1106 0.0
C1176 C 0.1448 0.38344 0.0875 0.0
C1177 C 0.20129 0.38958 0.11538 0.0
C1178 C 0.13249 0.39221 0.07261 0.0
C1179 C 0.13289 0.38517 0.05555 0.0
C1180 C 0.14486 0.36916 0.05332 0.0
C1181 C 0.15979 0.36095 0.06795 0.0
C1182 C 0.15992 0.36805 0.08488 0.0
H1183 H 0.2165 0.39622 0.12584 0.0
H1184 H 0.21143 0.37695 0.11508 0.0
H1185 H 0.20663 0.39526 0.10217 0.0
H1186 H 0.12033 0.40401 0.07438 0.0
H1187 H 0.12048 0.39159 0.04453 0.0
H1188 H 0.09127 0.90738 0.06976 0.0
H1189 H 0.09212 0.89709 0.10039 0.0
H1190 H 0.12162 0.84976 0.08096 0.0
H1191 H 0.12038 0.86006 0.05006 0.0
H1192 H 0.06109 0.86878 0.11978 0.0
H1193 H 0.20949 0.86801 0.11083 0.0
H1194 H 0.18069 0.8787 0.09545 0.0
H1195 H 0.18176 0.85699 0.09531 0.0
C1196 C 0.09639 0.89461 0.07197 0.0
C1197 C 0.10554 0.88447 0.05763 0.0
C1198 C 0.09702 0.88876 0.08946 0.0
C1199 C 0.10737 0.87274 0.09292 0.0
C1200 C 0.11367 0.86218 0.07852 0.0
H1201 H 0.1252 0.86065 0.20983 0.0
H1202 H 0.12501 0.85002 0.1791 0.0
C1203 C 0.11256 0.86801 0.06091 0.0
C1204 C 0.11624 0.86819 0.11156 0.0
H1205 H 0.18755 0.86762 0.1402 0.0
C1206 C 0.08865 0.86794 0.12428 0.0
C1207 C 0.15233 0.86731 0.1173 0.0
C1208 C 0.18296 0.8678 0.10411 0.0
C1209 C 0.09625 0.86795 0.14268 0.0
C1210 C 0.13239 0.86816 0.14842 0.0
C1211 C 0.15994 0.86729 0.1357 0.0
C1212 C 0.1416 0.87263 0.16704 0.0
C1213 C 0.06567 0.86919 0.15584 0.0
C1214 C 0.15315 0.8885 0.17043 0.0
C1215 C 0.1532 0.89455 0.18784 0.0
C1216 C 0.14222 0.88475 0.20217 0.0
C1217 C 0.1344 0.86834 0.19902 0.0
C1218 C 0.13388 0.86232 0.18148 0.0
H1219 H 0.03919 0.86992 0.1491 0.0
H1220 H 0.06568 0.85842 0.16473 0.0
H1221 H 0.06905 0.88008 0.1644 0.0
H1222 H 0.15917 0.89664 0.15945 0.0
H1223 H 0.15897 0.90728 0.18994 0.0
H1224 H 0.87013 0.61382 0.79704 0.0
H1225 H 0.87186 0.60525 0.82858 0.0
H1226 H 0.89833 0.65405 0.84431 0.0
H1227 H 0.89603 0.66265 0.81304 0.0
H1228 H 0.93463 0.62547 0.86414 0.0
H1229 H 0.78534 0.62548 0.86006 0.0
H1230 H 0.81122 0.61459 0.84362 0.0
H1231 H 0.81212 0.63628 0.84386 0.0
C1232 C 0.87783 0.62251 0.8072 0.0
C1233 C 0.88318 0.63886 0.8027 0.0
C1234 C 0.87847 0.61765 0.82517 0.0
C1235 C 0.88496 0.62907 0.83871 0.0
C1236 C 0.89336 0.64507 0.83403 0.0
H1237 H 0.85093 0.66498 0.93826 0.0
H1238 H 0.84889 0.65544 0.90733 0.0
C1239 C 0.89219 0.64996 0.81619 0.0
C1240 C 0.87846 0.62528 0.85778 0.0
H1241 H 0.8111 0.62602 0.88872 0.0
C1242 C 0.90769 0.62502 0.86956 0.0
C1243 C 0.84319 0.62491 0.86471 0.0
C1244 C 0.81098 0.62536 0.85251 0.0
C1245 C 0.90252 0.62534 0.88817 0.0
C1246 C 0.86726 0.62603 0.89507 0.0
C1247 C 0.83803 0.62533 0.88333 0.0
C1248 C 0.86081 0.63051 0.91395 0.0
C1249 C 0.93471 0.62621 0.90035 0.0
C1250 C 0.86645 0.61946 0.92794 0.0
C1251 C 0.86699 0.62486 0.94573 0.0
C1252 C 0.86244 0.64141 0.94959 0.0
C1253 C 0.85429 0.65216 0.93562 0.0
C1254 C 0.85322 0.64674 0.91797 0.0
H1255 H 0.96037 0.62582 0.89283 0.0
H1256 H 0.93385 0.63757 0.90831 0.0
H1257 H 0.93415 0.61592 0.9099 0.0
H1258 H 0.87243 0.60689 0.92504 0.0
H1259 H 0.87394 0.6164 0.95624 0.0
H1260 H 0.86719 0.13718 0.95886 0.0
H1261 H 0.86881 0.14653 0.92759 0.0
H1262 H 0.90429 0.09919 0.91088 0.0
H1263 H 0.90217 0.08981 0.94188 0.0
H1264 H 0.93588 0.12854 0.89174 0.0
H1265 H 0.78676 0.12488 0.89528 0.0
H1266 H 0.81077 0.13655 0.91176 0.0
H1267 H 0.81465 0.11491 0.91165 0.0
C1268 C 0.87688 0.12904 0.94857 0.0
C1269 C 0.88483 0.11283 0.95269 0.0
C1270 C 0.87743 0.13433 0.93073 0.0
C1271 C 0.88637 0.12348 0.91696 0.0
C1272 C 0.89741 0.10774 0.92133 0.0
H1273 H 0.85379 0.08751 0.81761 0.0
H1274 H 0.85131 0.09728 0.84845 0.0
C1275 C 0.89635 0.10241 0.93902 0.0
C1276 C 0.87969 0.12741 0.89793 0.0
H1277 H 0.81289 0.12554 0.86675 0.0
C1278 C 0.90899 0.12846 0.88624 0.0
C1279 C 0.84451 0.12709 0.89087 0.0
C1280 C 0.8122 0.12576 0.90293 0.0
C1281 C 0.90411 0.1282 0.8676 0.0
C1282 C 0.86906 0.1268 0.86056 0.0
C1283 C 0.83965 0.12677 0.87223 0.0
C1284 C 0.86328 0.12216 0.84165 0.0
C1285 C 0.93655 0.1281 0.85555 0.0
C1286 C 0.86916 0.13311 0.82756 0.0
C1287 C 0.86994 0.12756 0.80982 0.0
C1288 C 0.86532 0.111 0.80611 0.0
C1289 C 0.85712 0.10035 0.82015 0.0
C1290 C 0.85581 0.1059 0.83775 0.0
H1291 H 0.96204 0.12873 0.86319 0.0
H1292 H 0.9367 0.11692 0.84727 0.0
H1293 H 0.93536 0.1386 0.84629 0.0
H1294 H 0.87499 0.14571 0.83036 0.0
H1295 H 0.87696 0.13593 0.79922 0.0
H1296 H 0.12464 0.8886 0.7103 0.0
H1297 H 0.12363 0.89915 0.67953 0.0
H1298 H 0.08725 0.85266 0.66051 0.0
H1299 H 0.08898 0.84207 0.69101 0.0
H1300 H 0.16903 0.88319 0.65358 0.0
H1301 H 0.02824 0.88573 0.63062 0.0
H1302 H 0.04063 0.88692 0.65399 0.0
H1303 H 0.03825 0.8676 0.64292 0.0
C1304 C 0.11485 0.88092 0.69962 0.0
C1305 C 0.10648 0.8646 0.70295 0.0
C1306 C 0.11458 0.8869 0.68206 0.0
C1307 C 0.10507 0.87672 0.66778 0.0
C1308 C 0.09402 0.8608 0.67136 0.0
H1309 H 0.16229 0.84327 0.57093 0.0
H1310 H 0.1626 0.85447 0.60117 0.0
C1311 C 0.09497 0.85476 0.68878 0.0
C1312 C 0.11214 0.88147 0.649 0.0
H1313 H 0.07304 0.88059 0.6078 0.0
C1314 C 0.14797 0.88316 0.64357 0.0
C1315 C 0.0847 0.88156 0.63599 0.0
C1316 C 0.04574 0.88052 0.64117 0.0
C1317 C 0.15724 0.88335 0.62536 0.0
C1318 C 0.13 0.88178 0.61236 0.0
C1319 C 0.09398 0.88171 0.61779 0.0
C1320 C 0.13814 0.87724 0.59363 0.0
C1321 C 0.19622 0.88425 0.62019 0.0
C1322 C 0.12543 0.88655 0.57924 0.0
C1323 C 0.12594 0.88025 0.56183 0.0
C1324 C 0.13836 0.86443 0.55875 0.0
C1325 C 0.15318 0.8556 0.57297 0.0
C1326 C 0.15332 0.86199 0.59023 0.0
H1327 H 0.21222 0.89055 0.63062 0.0
H1328 H 0.20697 0.87179 0.61876 0.0
H1329 H 0.19974 0.89065 0.60723 0.0
H1330 H 0.11319 0.89825 0.58163 0.0
H1331 H 0.11356 0.88711 0.55113 0.0
H1332 H 0.08959 0.40424 0.56436 0.0
H1333 H 0.09011 0.39312 0.59461 0.0
H1334 H 0.12648 0.34718 0.57402 0.0
H1335 H 0.1258 0.35835 0.54349 0.0
H1336 H 0.06181 0.36474 0.61294 0.0
H1337 H 0.21052 0.36526 0.60542 0.0
H1338 H 0.18175 0.37554 0.5897 0.0
H1339 H 0.1842 0.35385 0.58966 0.0
C1340 C 0.09625 0.39157 0.56621 0.0
C1341 C 0.10754 0.38213 0.55165 0.0
C1342 C 0.09667 0.38524 0.58349 0.0
C1343 C 0.10887 0.36941 0.58657 0.0
C1344 C 0.11722 0.35946 0.5719 0.0
H1345 H 0.12075 0.35783 0.70371 0.0
H1346 H 0.1215 0.34672 0.67318 0.0
C1347 C 0.1164 0.36578 0.55448 0.0
C1348 C 0.11726 0.36458 0.6052 0.0
H1349 H 0.1875 0.36406 0.6345 0.0
C1350 C 0.08923 0.36401 0.61768 0.0
C1351 C 0.15315 0.36383 0.61127 0.0
C1352 C 0.1843 0.3647 0.59841 0.0
C1353 C 0.09613 0.36395 0.63616 0.0
C1354 C 0.13205 0.3643 0.64225 0.0
C1355 C 0.16006 0.36363 0.62975 0.0
C1356 C 0.14057 0.36886 0.66095 0.0
C1357 C 0.06498 0.36502 0.649 0.0
C1358 C 0.15335 0.38455 0.66425 0.0
C1359 C 0.15301 0.39085 0.68155 0.0
C1360 C 0.14031 0.38149 0.69588 0.0
C1361 C 0.13121 0.36519 0.6929 0.0
C1362 C 0.1312 0.35891 0.67547 0.0
H1363 H 0.03883 0.36599 0.64199 0.0
H1364 H 0.06438 0.35404 0.65757 0.0
H1365 H 0.06811 0.3757 0.6579 0.0
H1366 H 0.16072 0.39243 0.65324 0.0
H1367 H 0.15986 0.40348 0.68351 0.0
H1368 H 0.90888 0.15437 0.32039 0.0
H1369 H 0.91243 0.14319 0.35059 0.0
H1370 H 0.87151 0.09756 0.33131 0.0
H1371 H 0.86859 0.10873 0.30083 0.0
H1372 H 0.82934 0.11296 0.35823 0.0
H1373 H 0.97123 0.10947 0.37902 0.0
H1374 H 0.96122 0.12802 0.36751 0.0
H1375 H 0.95754 0.10904 0.3558 0.0
C1376 C 0.90232 0.14172 0.32247 0.0
C1377 C 0.889 0.13232 0.30833 0.0
C1378 C 0.90431 0.13533 0.33971 0.0
C1379 C 0.89251 0.1195 0.34318 0.0
C1380 C 0.88118 0.10973 0.32886 0.0
H1381 H 0.89027 0.10802 0.45992 0.0
H1382 H 0.8899 0.09726 0.42921 0.0
C1383 C 0.87982 0.11606 0.31147 0.0
C1384 C 0.8865 0.11451 0.36199 0.0
H1385 H 0.92797 0.11485 0.40263 0.0
C1386 C 0.85098 0.11283 0.36792 0.0
C1387 C 0.91467 0.11419 0.3746 0.0
C1388 C 0.95335 0.11511 0.36889 0.0
C1389 C 0.84276 0.11246 0.38625 0.0
C1390 C 0.87075 0.11387 0.39888 0.0
C1391 C 0.90645 0.1139 0.39293 0.0
C1392 C 0.8637 0.11823 0.41779 0.0
C1393 C 0.80408 0.11152 0.39195 0.0
C1394 C 0.84822 0.13334 0.42158 0.0
C1395 C 0.84873 0.1395 0.43895 0.0
C1396 C 0.86423 0.13055 0.45289 0.0
C1397 C 0.87732 0.11492 0.44942 0.0
C1398 C 0.87739 0.10885 0.4319 0.0
H1399 H 0.78758 0.1052 0.38173 0.0
H1400 H 0.80127 0.10513 0.40495 0.0
H1401 H 0.79333 0.12397 0.3935 0.0
H1402 H 0.83824 0.14094 0.41086 0.0
H1403 H 0.83922 0.15172 0.44129 0.0
H1404 H 0.81451 0.60697 0.30425 0.0
H1405 H 0.80493 0.61487 0.33558 0.0
H1406 H 0.91296 0.63345 0.3379 0.0
H1407 H 0.92151 0.62646 0.30656 0.0
H1408 H 0.84003 0.60029 0.3604 0.0
H1409 H 0.86627 0.66534 0.3698 0.0
H1410 H 0.85795 0.65675 0.34798 0.0
H1411 H 0.90239 0.65646 0.35747 0.0
C1412 C 0.83543 0.61347 0.31128 0.0
C1413 C 0.86882 0.61601 0.30318 0.0
C1414 C 0.83012 0.61788 0.32919 0.0
C1415 C 0.85821 0.6248 0.33919 0.0
C1416 C 0.89057 0.62847 0.33052 0.0
H1417 H 0.91082 0.59581 0.44544 0.0
H1418 H 0.91121 0.603 0.4136 0.0
C1419 C 0.89568 0.62423 0.31264 0.0
C1420 C 0.85647 0.62531 0.35906 0.0
H1421 H 0.87963 0.64801 0.39556 0.0
C1422 C 0.848 0.61087 0.36804 0.0
C1423 C 0.86665 0.63908 0.36918 0.0
C1424 C 0.87343 0.65531 0.36056 0.0
C1425 C 0.85107 0.60957 0.38666 0.0
C1426 C 0.8641 0.62291 0.3966 0.0
C1427 C 0.87069 0.63765 0.38784 0.0
C1428 C 0.87052 0.62155 0.41611 0.0
C1429 C 0.84048 0.59382 0.39548 0.0
C1430 C 0.84964 0.63049 0.4282 0.0
C1431 C 0.85011 0.62664 0.44644 0.0
C1432 C 0.87148 0.61386 0.45272 0.0
C1433 C 0.89461 0.60588 0.44088 0.0
C1434 C 0.89447 0.60985 0.42271 0.0
H1435 H 0.82192 0.58668 0.38694 0.0
H1436 H 0.86481 0.58638 0.39777 0.0
H1437 H 0.82735 0.59599 0.4086 0.0
H1438 H 0.83107 0.63958 0.42339 0.0
H1439 H 0.83162 0.63273 0.45536 0.0
H1440 H 0.65592 0.34003 0.57212 0.0
H1441 H 0.6559 0.35088 0.60251 0.0
H1442 H 0.62154 0.39732 0.58244 0.0
H1443 H 0.62193 0.38648 0.5518 0.0
H1444 H 0.68446 0.38017 0.62131 0.0
H1445 H 0.536 0.37752 0.61287 0.0
H1446 H 0.5657 0.36724 0.59758 0.0
H1447 H 0.56236 0.3889 0.59707 0.0
C1448 C 0.64996 0.35275 0.57411 0.0
C1449 C 0.63902 0.36244 0.55969 0.0
C1450 C 0.64983 0.35893 0.59146 0.0
C1451 C 0.63825 0.37482 0.59469 0.0
C1452 C 0.63045 0.38501 0.58017 0.0
H1453 H 0.61835 0.38691 0.71167 0.0
H1454 H 0.6184 0.39749 0.6809 0.0
C1455 C 0.63106 0.37886 0.56269 0.0
C1456 C 0.6292 0.37942 0.61328 0.0
H1457 H 0.55828 0.37848 0.64214 0.0
C1458 C 0.65689 0.38041 0.62589 0.0
C1459 C 0.59312 0.37951 0.61913 0.0
C1460 C 0.56241 0.3782 0.60605 0.0
C1461 C 0.64953 0.38032 0.64432 0.0
C1462 C 0.61354 0.37925 0.65017 0.0
C1463 C 0.58577 0.37946 0.63755 0.0
C1464 C 0.60508 0.37448 0.66877 0.0
C1465 C 0.68034 0.37991 0.65741 0.0
C1466 C 0.59562 0.35832 0.67209 0.0
C1467 C 0.5957 0.35229 0.6895 0.0
C1468 C 0.60471 0.36239 0.70391 0.0
C1469 C 0.61072 0.37896 0.70078 0.0
C1470 C 0.61113 0.38497 0.68324 0.0
H1471 H 0.7068 0.38 0.6506 0.0
H1472 H 0.67885 0.39059 0.66638 0.0
H1473 H 0.67858 0.36889 0.66589 0.0
H1474 H 0.59092 0.35004 0.66108 0.0
H1475 H 0.59128 0.33945 0.69159 0.0
H1476 H 0.612 0.85882 0.7028 0.0
H1477 H 0.61245 0.84673 0.67275 0.0
H1478 H 0.66256 0.88988 0.65191 0.0
H1479 H 0.66135 0.90202 0.68168 0.0
H1480 H 0.57269 0.8639 0.64611 0.0
H1481 H 0.71152 0.85297 0.62346 0.0
H1482 H 0.69904 0.85325 0.64686 0.0
H1483 H 0.70705 0.87191 0.63504 0.0
C1484 C 0.62472 0.86533 0.69193 0.0
C1485 C 0.63698 0.88126 0.69446 0.0
C1486 C 0.62472 0.85848 0.67479 0.0
C1487 C 0.63782 0.86735 0.66015 0.0
C1488 C 0.653 0.88269 0.66306 0.0
H1489 H 0.59259 0.9045 0.56495 0.0
H1490 H 0.58911 0.89267 0.59486 0.0
C1491 C 0.65232 0.88963 0.68006 0.0
C1492 C 0.62964 0.86241 0.64157 0.0
H1493 H 0.6688 0.86103 0.60042 0.0
C1494 C 0.59363 0.86267 0.63613 0.0
C1495 C 0.65687 0.86067 0.6286 0.0
C1496 C 0.69579 0.85951 0.6338 0.0
C1497 C 0.58444 0.86304 0.61794 0.0
C1498 C 0.61196 0.86315 0.60498 0.0
C1499 C 0.64769 0.86106 0.6104 0.0
C1500 C 0.60532 0.86867 0.58645 0.0
C1501 C 0.54557 0.86446 0.61272 0.0
C1502 C 0.61444 0.85895 0.57173 0.0
C1503 C 0.61568 0.86566 0.55452 0.0
C1504 C 0.60871 0.88223 0.552 0.0
C1505 C 0.59751 0.89165 0.56657 0.0
C1506 C 0.59554 0.88489 0.58363 0.0
H1507 H 0.52784 0.8591 0.6231 0.0
H1508 H 0.53851 0.87746 0.61135 0.0
H1509 H 0.54034 0.85839 0.59972 0.0
H1510 H 0.62255 0.84648 0.5737 0.0
H1511 H 0.62519 0.85829 0.54351 0.0
H1512 H 0.37206 0.61111 0.2972 0.0
H1513 H 0.37473 0.60091 0.32814 0.0
H1514 H 0.40648 0.64833 0.34641 0.0
H1515 H 0.40334 0.65853 0.31576 0.0
H1516 H 0.44095 0.61923 0.36434 0.0
H1517 H 0.29157 0.61982 0.3616 0.0
H1518 H 0.31643 0.60907 0.34468 0.0
H1519 H 0.31805 0.63076 0.3454 0.0
C1520 C 0.3811 0.61912 0.30776 0.0
C1521 C 0.38774 0.63556 0.30418 0.0
C1522 C 0.38226 0.61334 0.3254 0.0
C1523 C 0.3905 0.62393 0.33952 0.0
C1524 C 0.40016 0.63997 0.33569 0.0
H1525 H 0.35501 0.65757 0.43919 0.0
H1526 H 0.35287 0.64786 0.40833 0.0
C1527 C 0.39849 0.64577 0.31819 0.0
C1528 C 0.3846 0.61934 0.35845 0.0
H1529 H 0.31833 0.61922 0.38997 0.0
C1530 C 0.4142 0.61864 0.36997 0.0
C1531 C 0.34957 0.61877 0.36568 0.0
C1532 C 0.31691 0.61967 0.35381 0.0
C1533 C 0.4097 0.61846 0.38863 0.0
C1534 C 0.37469 0.61903 0.39587 0.0
C1535 C 0.34508 0.61863 0.38434 0.0
C1536 C 0.36882 0.62337 0.41487 0.0
C1537 C 0.44236 0.61904 0.40051 0.0
C1538 C 0.37686 0.61259 0.42885 0.0
C1539 C 0.37747 0.61809 0.44662 0.0
C1540 C 0.37045 0.63445 0.45045 0.0
C1541 C 0.36015 0.64487 0.43655 0.0
C1542 C 0.35904 0.63935 0.41894 0.0
H1543 H 0.46771 0.61921 0.39272 0.0
H1544 H 0.44145 0.63 0.40912 0.0
H1545 H 0.44261 0.6083 0.40944 0.0
H1546 H 0.38447 0.60021 0.42594 0.0
H1547 H 0.38615 0.60994 0.45711 0.0
H1548 H 0.40573 0.09512 0.43741 0.0
H1549 H 0.40699 0.10694 0.40749 0.0
H1550 H 0.35607 0.15014 0.42765 0.0
H1551 H 0.35532 0.13829 0.45789 0.0
H1552 H 0.31824 0.13433 0.40001 0.0
H1553 H 0.45943 0.14309 0.38028 0.0
H1554 H 0.4528 0.12387 0.39099 0.0
H1555 H 0.44535 0.14225 0.40342 0.0
C1556 C 0.39629 0.10742 0.43559 0.0
C1557 C 0.38092 0.11591 0.44991 0.0
C1558 C 0.39702 0.11419 0.4185 0.0
C1559 C 0.38196 0.1295 0.41535 0.0
C1560 C 0.36826 0.13841 0.42985 0.0
H1561 H 0.38206 0.14071 0.29866 0.0
H1562 H 0.37928 0.15177 0.32921 0.0
C1563 C 0.36809 0.1317 0.4471 0.0
C1564 C 0.37558 0.13465 0.39661 0.0
H1565 H 0.418 0.13602 0.35623 0.0
C1566 C 0.34005 0.13525 0.39047 0.0
C1567 C 0.40393 0.13607 0.38417 0.0
C1568 C 0.44252 0.13646 0.39009 0.0
C1569 C 0.33224 0.13552 0.37209 0.0
C1570 C 0.36068 0.13506 0.35961 0.0
C1571 C 0.39613 0.13621 0.36579 0.0
C1572 C 0.35484 0.13038 0.34068 0.0
C1573 C 0.29364 0.13532 0.36618 0.0
C1574 C 0.34114 0.11491 0.33694 0.0
C1575 C 0.343 0.1086 0.31966 0.0
C1576 C 0.35816 0.1177 0.30574 0.0
C1577 C 0.36943 0.13364 0.30912 0.0
C1578 C 0.36812 0.1399 0.32656 0.0
H1579 H 0.27616 0.14138 0.37618 0.0
H1580 H 0.29024 0.14139 0.35302 0.0
H1581 H 0.28452 0.12258 0.36491 0.0
H1582 H 0.33155 0.1072 0.34765 0.0
H1583 H 0.3348 0.09617 0.3174 0.0
H1584 H 0.65689 0.88481 0.2008 0.0
H1585 H 0.65351 0.89248 0.16925 0.0
H1586 H 0.5654 0.85926 0.16188 0.0
H1587 H 0.57038 0.85093 0.19323 0.0
H1588 H 0.61853 0.85184 0.14104 0.0
H1589 H 0.59542 0.91771 0.13396 0.0
H1590 H 0.63188 0.9133 0.1488 0.0
H1591 H 0.58719 0.90702 0.15464 0.0
C1592 C 0.63587 0.87968 0.19256 0.0
C1593 C 0.61374 0.86737 0.1993 0.0
C1594 C 0.63382 0.88412 0.17454 0.0
C1595 C 0.60912 0.8765 0.16314 0.0
C1596 C 0.58466 0.86532 0.17041 0.0
H1597 H 0.57301 0.88208 0.05048 0.0
H1598 H 0.57621 0.88928 0.08218 0.0
C1599 C 0.58724 0.86065 0.18833 0.0
C1600 C 0.6132 0.87774 0.14341 0.0
H1601 H 0.61962 0.90405 0.10822 0.0
C1602 C 0.61844 0.86328 0.13389 0.0
C1603 C 0.61334 0.89265 0.13406 0.0
C1604 C 0.6063 0.90853 0.14338 0.0
C1605 C 0.62354 0.86323 0.11536 0.0
C1606 C 0.6249 0.87815 0.10604 0.0
C1607 C 0.61948 0.89267 0.11547 0.0
C1608 C 0.62838 0.87849 0.0863 0.0
C1609 C 0.62626 0.84711 0.10588 0.0
C1610 C 0.65782 0.87114 0.07782 0.0
C1611 C 0.65579 0.86683 0.05974 0.0
C1612 C 0.62468 0.87023 0.04995 0.0
C1613 C 0.59731 0.87942 0.05785 0.0
C1614 C 0.59912 0.88354 0.07594 0.0
H1615 H 0.61637 0.83698 0.11434 0.0
H1616 H 0.61064 0.84719 0.09323 0.0
H1617 H 0.65471 0.84463 0.10257 0.0
H1618 H 0.68092 0.86739 0.08556 0.0
H1619 H 0.67695 0.85956 0.05393 0.0
H1620 H 0.59876 0.40951 0.06924 0.0
H1621 H 0.59654 0.39985 0.10013 0.0
H1622 H 0.62293 0.35162 0.08238 0.0
H1623 H 0.62461 0.36127 0.05121 0.0
H1624 H 0.56073 0.37106 0.11907 0.0
H1625 H 0.7099 0.37042 0.1141 0.0
H1626 H 0.683 0.3816 0.09828 0.0
H1627 H 0.68344 0.35991 0.0976 0.0
C1628 C 0.60257 0.39671 0.07186 0.0
C1629 C 0.61158 0.38609 0.05793 0.0
C1630 C 0.60143 0.39122 0.08949 0.0
C1631 C 0.60989 0.37508 0.09349 0.0
C1632 C 0.6163 0.36412 0.07949 0.0
H1633 H 0.61985 0.36189 0.21079 0.0
H1634 H 0.62159 0.35198 0.17975 0.0
C1635 C 0.6169 0.36959 0.06173 0.0
C1636 C 0.61672 0.37071 0.11238 0.0
H1637 H 0.68483 0.37056 0.14289 0.0
C1638 C 0.58778 0.37036 0.12432 0.0
C1639 C 0.65214 0.37 0.11908 0.0
C1640 C 0.68409 0.37052 0.1067 0.0
C1641 C 0.59338 0.37037 0.1429 0.0
C1642 C 0.62883 0.37079 0.1496 0.0
C1643 C 0.65775 0.37007 0.13766 0.0
C1644 C 0.63585 0.37522 0.16844 0.0
C1645 C 0.56146 0.3713 0.15526 0.0
C1646 C 0.64505 0.39131 0.17232 0.0
C1647 C 0.64389 0.39696 0.18988 0.0
C1648 C 0.63409 0.38654 0.20388 0.0
C1649 C 0.62816 0.37005 0.20023 0.0
C1650 C 0.62879 0.36443 0.18253 0.0
H1651 H 0.53565 0.37143 0.14786 0.0
H1652 H 0.56154 0.36074 0.16444 0.0
H1653 H 0.56311 0.38241 0.1636 0.0
H1654 H 0.65047 0.39981 0.1616 0.0
H1655 H 0.64819 0.40974 0.19238 0.0
H1656 H 0.3965 0.15401 0.81723 0.0
H1657 H 0.39942 0.14267 0.84737 0.0
H1658 H 0.36361 0.09648 0.8272 0.0
H1659 H 0.36131 0.10783 0.79674 0.0
H1660 H 0.31967 0.11071 0.8546 0.0
H1661 H 0.46198 0.10965 0.87495 0.0
H1662 H 0.45023 0.1281 0.86368 0.0
H1663 H 0.44807 0.10918 0.85177 0.0
C1664 C 0.39071 0.14126 0.81913 0.0
C1665 C 0.37916 0.13171 0.80473 0.0
C1666 C 0.39239 0.13478 0.83633 0.0
C1667 C 0.38207 0.11869 0.8395 0.0
C1668 C 0.37213 0.10886 0.82498 0.0
H1669 H 0.38544 0.10807 0.95588 0.0
H1670 H 0.38417 0.0966 0.92552 0.0
C1671 C 0.37108 0.11529 0.80762 0.0
C1672 C 0.37667 0.11331 0.85822 0.0
H1673 H 0.4186 0.11418 0.89871 0.0
C1674 C 0.34141 0.11092 0.86423 0.0
C1675 C 0.405 0.11339 0.87075 0.0
C1676 C 0.44351 0.11505 0.86494 0.0
C1677 C 0.33346 0.11029 0.88258 0.0
C1678 C 0.36144 0.11219 0.89515 0.0
C1679 C 0.39704 0.11286 0.88909 0.0
C1680 C 0.35431 0.11653 0.91406 0.0
C1681 C 0.29497 0.10855 0.88837 0.0
C1682 C 0.33693 0.13124 0.91778 0.0
C1683 C 0.33788 0.13779 0.93498 0.0
C1684 C 0.35578 0.12965 0.9488 0.0
C1685 C 0.37062 0.11432 0.94549 0.0
C1686 C 0.37018 0.10785 0.92816 0.0
H1687 H 0.27923 0.10163 0.87833 0.0
H1688 H 0.2929 0.10237 0.90153 0.0
H1689 H 0.28276 0.12076 0.88958 0.0
H1690 H 0.32529 0.13835 0.90708 0.0
H1691 H 0.32703 0.1498 0.93717 0.0
H1692 H 0.33117 0.59608 0.81876 0.0
H1693 H 0.32906 0.60845 0.84836 0.0
H1694 H 0.37919 0.65155 0.82741 0.0
H1695 H 0.38087 0.63914 0.79751 0.0
H1696 H 0.41799 0.63659 0.85442 0.0
H1697 H 0.27799 0.64402 0.87638 0.0
H1698 H 0.28423 0.62472 0.86583 0.0
H1699 H 0.29042 0.643 0.85302 0.0
C1700 C 0.34007 0.6085 0.8203 0.0
C1701 C 0.35576 0.61676 0.8059 0.0
C1702 C 0.33884 0.61559 0.83722 0.0
C1703 C 0.35366 0.63101 0.84009 0.0
C1704 C 0.36718 0.63974 0.82543 0.0
H1705 H 0.3604 0.63897 0.95691 0.0
H1706 H 0.36076 0.65132 0.92694 0.0
C1707 C 0.36787 0.63271 0.80836 0.0
C1708 C 0.36087 0.63623 0.85873 0.0
H1709 H 0.32104 0.63641 0.89977 0.0
C1710 C 0.39675 0.63715 0.86431 0.0
C1711 C 0.33329 0.6372 0.87164 0.0
C1712 C 0.29432 0.63736 0.86636 0.0
C1713 C 0.40573 0.63713 0.88255 0.0
C1714 C 0.37815 0.63605 0.89545 0.0
C1715 C 0.34227 0.63704 0.88988 0.0
C1716 C 0.38542 0.63069 0.91402 0.0
C1717 C 0.4447 0.6372 0.88783 0.0
C1718 C 0.40004 0.61522 0.91675 0.0
C1719 C 0.39953 0.60816 0.93369 0.0
C1720 C 0.3848 0.61651 0.94827 0.0
C1721 C 0.37265 0.63247 0.9459 0.0
C1722 C 0.3726 0.63947 0.9288 0.0
H1723 H 0.46113 0.64383 0.87782 0.0
H1724 H 0.44864 0.64283 0.90118 0.0
H1725 H 0.45463 0.62454 0.88837 0.0
H1726 H 0.4093 0.60806 0.90551 0.0
H1727 H 0.40847 0.59574 0.93517 0.0
H1728 H 0.94793 0.18193 0.24125 0.0
H1729 H 0.9824 0.20697 0.23774 0.0
H1730 H 0.91751 0.23005 0.27811 0.0
H1731 H 0.88269 0.20532 0.28156 0.0
H1732 H 0.92419 0.24828 0.24735 0.0
H1733 H 0.05681 0.2269 0.2713 0.0
H1734 H 0.03773 0.21468 0.25386 0.0
H1735 H 0.01596 0.21576 0.27528 0.0
C1736 C 0.94128 0.19227 0.24953 0.0
C1737 C 0.91254 0.19161 0.26166 0.0
C1738 C 0.96106 0.20655 0.24754 0.0
C1739 C 0.95265 0.22027 0.2578 0.0
C1740 C 0.92439 0.21957 0.27009 0.0
H1741 H 0.03912 0.31866 0.26169 0.0
H1742 H 0.00199 0.29456 0.26667 0.0
C1743 C 0.90455 0.20539 0.27202 0.0
C1744 C 0.97217 0.23566 0.25524 0.0
H1745 H 0.05512 0.25281 0.25745 0.0
C1746 C 0.95278 0.24933 0.24965 0.0
C1747 C 0.00939 0.23694 0.25837 0.0
C1748 C 0.0312 0.22284 0.26519 0.0
C1749 C 0.96987 0.26421 0.24664 0.0
C1750 C 0.00716 0.26539 0.24948 0.0
C1751 C 0.02647 0.25179 0.25528 0.0
C1752 C 0.02716 0.28043 0.24577 0.0
C1753 C 0.9482 0.2784 0.23998 0.0
C1754 C 0.05329 0.2804 0.23235 0.0
C1755 C 0.07446 0.29403 0.22951 0.0
C1756 C 0.07004 0.30798 0.24011 0.0
C1757 C 0.04303 0.30816 0.25324 0.0
C1758 C 0.02181 0.29442 0.25609 0.0
H1759 H 0.92122 0.27466 0.23526 0.0
H1760 H 0.9447 0.28725 0.25102 0.0
H1761 H 0.96234 0.28464 0.22887 0.0
H1762 H 0.0577 0.2697 0.22424 0.0
H1763 H 0.09482 0.29347 0.2192 0.0
H1764 H 0.12548 0.95815 0.23348 0.0
H1765 H 0.16134 0.98261 0.23621 0.0
H1766 H 0.23524 0.95755 0.27085 0.0
H1767 H 0.19971 0.93272 0.26801 0.0
H1768 H 0.17832 -7e-05 0.26678 0.0
H1769 H 0.30041 0.97718 0.23244 0.0
H1770 H 0.25792 0.96679 0.23127 0.0
H1771 H 0.28551 0.96495 0.25087 0.0
C1772 C 0.1494 0.95773 0.24166 0.0
C1773 C 0.15981 0.9434 0.25047 0.0
C1774 C 0.16982 0.97177 0.24321 0.0
C1775 C 0.20107 0.97181 0.25354 0.0
C1776 C 0.21149 0.95764 0.26253 0.0
H1777 H 0.35775 0.044 0.27951 0.0
H1778 H 0.31946 0.02026 0.27763 0.0
C1779 C 0.1911 0.9435 0.26094 0.0
C1780 C 0.22231 0.98684 0.255 0.0
H1781 H 0.30418 0.00314 0.24578 0.0
C1782 C 0.20582 0.00068 0.26216 0.0
C1783 C 0.25804 0.98772 0.24883 0.0
C1784 C 0.2765 0.97343 0.24027 0.0
C1785 C 0.22443 0.01537 0.26364 0.0
C1786 C 0.26022 0.01621 0.2576 0.0
C1787 C 0.27666 0.00239 0.25038 0.0
C1788 C 0.28175 0.03111 0.25925 0.0
C1789 C 0.20601 0.02977 0.272 0.0
C1790 C 0.27299 0.04513 0.24956 0.0
C1791 C 0.29489 0.05886 0.25058 0.0
C1792 C 0.32596 0.05867 0.26124 0.0
C1793 C 0.33416 0.04461 0.27109 0.0
C1794 C 0.31233 0.03099 0.27007 0.0
H1795 H 0.1812 0.02623 0.27923 0.0
H1796 H 0.22421 0.03604 0.28149 0.0
H1797 H 0.19859 0.03851 0.26135 0.0
H1798 H 0.2497 0.04533 0.24092 0.0
H1799 H 0.28791 0.06944 0.24277 0.0
H1800 H 0.119 0.95789 0.02312 0.0
H1801 H 0.08186 0.98209 0.02191 0.0
H1802 H -0.00101 0.95524 0.99478 0.0
H1803 H 0.03581 0.93073 0.9961 0.0
H1804 H 0.05452 0.99767 0.99157 0.0
H1805 H 0.94625 0.97659 0.03702 0.0
H1806 H 0.98916 0.96658 0.03558 0.0
H1807 H 0.95585 0.96328 0.01861 0.0
C1808 C 0.09283 0.95703 0.01694 0.0
C1809 C 0.08032 0.94229 0.00979 0.0
C1810 C 0.07169 0.97091 0.01625 0.0
C1811 C 0.0376 0.97036 0.00848 0.0
C1812 C 0.02503 0.95579 1.00114 0.0
H1813 H 0.87204 0.04015 0.98896 0.0
H1814 H 0.91015 0.01636 0.99118 0.0
C1815 C 0.04618 0.94183 1.00183 0.0
C1816 C 0.01562 0.98521 0.00781 0.0
H1817 H 0.93697 0.00164 0.02224 0.0
C1818 C 0.02887 -0.0014 0.99832 0.0
C1819 C 0.98232 0.98631 0.01671 0.0
C1820 C 0.96759 0.97249 0.02769 0.0
C1821 C 0.00923 0.01303 0.99716 0.0
C1822 C 0.97582 0.0141 0.00598 0.0
C1823 C 0.96268 0.00074 0.01555 0.0
C1824 C 0.95328 0.02874 0.0048 0.0
C1825 C 0.0239 0.02684 0.98615 0.0
C1826 C 0.96489 0.04357 0.01191 0.0
C1827 C 0.94317 0.05732 0.01064 0.0
C1828 C 0.90942 0.05638 1.00232 0.0
C1829 C 0.89788 0.04139 0.99542 0.0
C1830 C 0.91957 0.02773 0.99668 0.0
H1831 H 0.04585 0.02284 0.97713 0.0
H1832 H 0.00245 0.03246 0.97794 0.0
H1833 H 0.03478 0.03627 0.99523 0.0
H1834 H 0.99064 0.04448 0.01851 0.0
H1835 H 0.95278 0.06863 0.01619 0.0
H1836 H 0.29325 0.18279 0.01488 0.0
H1837 H 0.258 0.20781 0.01707 0.0
H1838 H 0.31048 0.22643 0.96995 0.0
H1839 H 0.34533 0.20162 0.96753 0.0
H1840 H 0.29086 0.23905 0.02083 0.0
H1841 H 0.20371 0.23582 0.96069 0.0
H1842 H 0.22532 0.21821 0.97014 0.0
H1843 H 0.25036 0.23209 0.95648 0.0
C1844 C 0.29668 0.19207 0.00479 0.0
C1845 C 0.32216 0.19026 0.99109 0.0
C1846 C 0.27667 0.20635 0.00609 0.0
C1847 C 0.28154 0.21885 0.99358 0.0
C1848 C 0.30597 0.21681 0.97956 0.0
H1849 H 0.19941 0.31758 0.98416 0.0
H1850 H 0.23573 0.29299 0.9803 0.0
C1851 C 0.32604 0.20266 0.9783 0.0
C1852 C 0.26353 0.2346 0.99593 0.0
H1853 H 0.20628 0.26112 0.97578 0.0
C1854 C 0.27218 0.24385 0.01106 0.0
C1855 C 0.23969 0.24086 0.98298 0.0
C1856 C 0.22892 0.2312 0.96672 0.0
C1857 C 0.25766 0.25933 0.01356 0.0
C1858 C 0.23349 0.26553 1.00072 0.0
C1859 C 0.2251 0.25634 0.9855 0.0
C1860 C 0.21417 0.28088 0.00363 0.0
C1861 C 0.26852 0.26898 0.02983 0.0
C1862 C 0.19034 0.28212 0.01801 0.0
C1863 C 0.16973 0.296 0.02022 0.0
C1864 C 0.17237 0.30893 0.00802 0.0
C1865 C 0.19696 0.30786 0.99382 0.0
C1866 C 0.21756 0.29384 0.99157 0.0
H1867 H 0.29449 0.26472 0.03537 0.0
H1868 H 0.27077 0.28207 0.02662 0.0
H1869 H 0.24786 0.2675 0.04038 0.0
H1870 H 0.18692 0.27215 0.02727 0.0
H1871 H 0.15116 0.29644 0.03135 0.0
H1872 H 0.86264 0.71051 0.76202 0.0
H1873 H 0.89956 0.73483 0.76081 0.0
H1874 H 0.98837 0.7067 0.74095 0.0
H1875 H 0.95157 0.68219 0.74193 0.0
H1876 H 0.96456 0.73991 0.77923 0.0
H1877 H 0.98123 0.74489 0.70554 0.0
H1878 H 0.9471 0.73242 0.71573 0.0
H1879 H 0.99268 0.72549 0.71482 0.0
C1880 C 0.88995 0.70944 0.75728 0.0
C1881 C 0.90413 0.69435 0.75207 0.0
C1882 C 0.91098 0.72338 0.75662 0.0
C1883 C 0.94648 0.72255 0.75064 0.0
C1884 C 0.96078 0.70759 0.74532 0.0
H1885 H 0.12025 0.79017 0.74076 0.0
H1886 H 0.08112 0.76659 0.74169 0.0
C1887 C 0.93975 0.6936 0.74597 0.0
C1888 C 0.96887 0.73728 0.75064 0.0
H1889 H 0.01608 0.76264 0.72342 0.0
C1890 C 0.97572 0.74496 0.76704 0.0
C1891 C 0.98323 0.74377 0.73469 0.0
C1892 C 0.97551 0.73633 0.71666 0.0
C1893 C -0.00267 0.75883 0.76796 0.0
C1894 C 0.01187 0.76526 0.75202 0.0
C1895 C 0.00481 0.75764 0.73561 0.0
C1896 C 0.0354 0.77963 0.75207 0.0
C1897 C 0.0052 0.76622 0.78601 0.0
C1898 C 0.02253 0.79479 0.75761 0.0
C1899 C 0.04488 0.80837 0.75715 0.0
C1900 C 0.08038 0.807 0.751 0.0
C1901 C 0.09307 0.79173 0.74553 0.0
C1902 C 0.07077 0.7782 0.74603 0.0
H1903 H -0.00113 0.75775 0.79713 0.0
H1904 H 0.0338 0.76981 0.78702 0.0
H1905 H 0.98861 0.77725 0.78776 0.0
H1906 H 0.99507 0.79616 0.76205 0.0
H1907 H 0.0342 0.81995 0.76138 0.0
H1908 H 0.70607 0.92844 0.7577 0.0
H1909 H 0.74456 0.95219 0.76204 0.0
H1910 H 0.67462 0.98055 0.72849 0.0
H1911 H 0.63606 0.95714 0.7241 0.0
H1912 H 0.77921 0.9723 0.73489 0.0
H1913 H 0.68091 0.00618 0.77626 0.0
H1914 H 0.67781 0.9846 0.77257 0.0
H1915 H 0.66346 0.99851 0.75552 0.0
C1916 C 0.69896 0.93971 0.75119 0.0
C1917 C 0.66782 0.94088 0.74065 0.0
C1918 C 0.72094 0.95324 0.7537 0.0
C1919 C 0.71195 0.96811 0.74583 0.0
C1920 C 0.68155 0.96921 0.73494 0.0
H1921 H 0.79599 0.06535 0.74163 0.0
H1922 H 0.76063 0.04052 0.73877 0.0
C1923 C 0.65965 0.95576 0.7324 0.0
C1924 C 0.73423 0.9826 0.74884 0.0
H1925 H 0.73155 0.0209 0.7659 0.0
C1926 C 0.76903 0.98289 0.74181 0.0
C1927 C 0.7206 0.99636 0.7578 0.0
C1928 C 0.68376 0.99642 0.76612 0.0
C1929 C 0.79032 0.99684 0.74306 0.0
C1930 C 0.77654 0.01067 0.75187 0.0
C1931 C 0.74189 0.01028 0.75909 0.0
C1932 C 0.79773 0.02566 0.75379 0.0
C1933 C 0.82694 0.99682 0.73449 0.0
C1934 C 0.82984 0.02553 0.76347 0.0
C1935 C 0.85011 0.03963 0.7651 0.0
C1936 C 0.83846 0.0542 0.75722 0.0
C1937 C 0.80577 0.05436 0.74786 0.0
C1938 C 0.78555 0.04019 0.74619 0.0
H1939 H 0.82971 0.98695 0.72447 0.0
H1940 H 0.8325 0.00857 0.72782 0.0
H1941 H 0.84756 0.99491 0.74498 0.0
H1942 H 0.83923 0.01451 0.76978 0.0
H1943 H 0.87498 0.03906 0.77254 0.0
H1944 H 0.67499 0.80938 0.03562 0.0
H1945 H 0.71592 0.78627 0.03527 0.0
H1946 H 0.72116 0.78903 0.97761 0.0
H1947 H 0.68212 0.81282 0.97811 0.0
H1948 H 0.70389 0.75827 0.02235 0.0
H1949 H 0.82364 0.78211 0.98775 0.0
H1950 H 0.7882 0.79518 0.99548 0.0
H1951 H 0.78432 0.7848 0.97434 0.0
C1952 C 0.68576 0.80527 0.02295 0.0
C1953 C 0.67587 0.81288 0.00691 0.0
C1954 C 0.70895 0.79205 0.02273 0.0
C1955 C 0.72198 0.78597 0.00643 0.0
C1956 C 0.71244 0.79376 0.99039 0.0
H1957 H 0.79034 0.68561 0.99393 0.0
H1958 H 0.75546 0.71069 0.99593 0.0
C1959 C 0.69003 0.8073 0.99066 0.0
C1960 C 0.74302 0.77075 0.00619 0.0
H1961 H 0.81845 0.75323 0.98932 0.0
C1962 C 0.7292 0.75723 0.01531 0.0
C1963 C 0.77617 0.7694 0.99715 0.0
C1964 C 0.7941 0.78371 0.98831 0.0
C1965 C 0.74747 0.74241 0.01559 0.0
C1966 C 0.77965 0.74083 0.00576 0.0
C1967 C 0.79357 0.75437 0.99671 0.0
C1968 C 0.80001 0.72543 0.00498 0.0
C1969 C 0.73245 0.72881 0.02683 0.0
C1970 C 0.83677 0.72544 0.00888 0.0
C1971 C 0.85682 0.71131 0.00713 0.0
C1972 C 0.84036 0.69681 1.00182 0.0
C1973 C 0.80345 0.69663 0.9983 0.0
C1974 C 0.78352 0.71092 0.99956 0.0
H1975 H 0.71531 0.73351 0.03782 0.0
H1976 H 0.71551 0.72091 0.0183 0.0
H1977 H 0.7541 0.72134 0.0328 0.0
H1978 H 0.8501 0.73646 0.0131 0.0
H1979 H 0.88525 0.71175 0.00996 0.0
H1980 H 0.29145 0.5658 0.74081 0.0
H1981 H 0.25437 0.54142 0.73781 0.0
H1982 H 0.3125 0.51882 0.78097 0.0
H1983 H 0.34965 0.54286 0.78402 0.0
H1984 H 0.30838 0.50004 0.74973 0.0
H1985 H 0.17504 0.52325 0.77073 0.0
H1986 H 0.19731 0.53492 0.75373 0.0
H1987 H 0.21626 0.53376 0.77578 0.0
C1988 C 0.29594 0.55573 0.74983 0.0
C1989 C 0.32362 0.55626 0.76258 0.0
C1990 C 0.27471 0.54185 0.74813 0.0
C1991 C 0.28069 0.5284 0.75924 0.0
C1992 C 0.30756 0.52908 0.77227 0.0
H1993 H 0.19564 0.43003 0.76517 0.0
H1994 H 0.2313 0.45464 0.76973 0.0
C1995 C 0.32876 0.54286 0.77396 0.0
C1996 C 0.26055 0.51319 0.75671 0.0
H1997 H 0.17702 0.49664 0.75892 0.0
C1998 C 0.27966 0.49925 0.75179 0.0
C1999 C 0.22318 0.51228 0.75946 0.0
C2000 C 0.20167 0.5268 0.76536 0.0
C2001 C 0.26223 0.4844 0.7492 0.0
C2002 C 0.22484 0.48348 0.75191 0.0
C2003 C 0.20575 0.49742 0.75691 0.0
C2004 C 0.20463 0.46835 0.74893 0.0
C2005 C 0.28379 0.46994 0.74315 0.0
C2006 C 0.17782 0.46801 0.73585 0.0
C2007 C 0.15739 0.45411 0.73331 0.0
C2008 C 0.16329 0.44022 0.74383 0.0
C2009 C 0.19062 0.44048 0.75677 0.0
C2010 C 0.21104 0.4545 0.75936 0.0
H2011 H 0.31035 0.47354 0.73775 0.0
H2012 H 0.28832 0.46176 0.75472 0.0
H2013 H 0.26919 0.46301 0.73271 0.0
H2014 H 0.17255 0.47858 0.72766 0.0
H2015 H 0.1367 0.45434 0.72314 0.0
H2016 H 0.95126 0.56501 0.51188 0.0
H2017 H 0.98751 0.54034 0.51166 0.0
H2018 H 0.9074 0.51628 0.4797 0.0
H2019 H 0.87074 0.54069 0.48 0.0
H2020 H 0.92899 0.4985 0.50931 0.0
H2021 H 0.04597 0.52081 0.47063 0.0
H2022 H 0.03451 0.53321 0.48951 0.0
H2023 H 0.00366 0.5314 0.47115 0.0
C2024 C 0.94148 0.55453 0.50465 0.0
C2025 C 0.90808 0.55486 0.49595 0.0
C2026 C 0.96231 0.54048 0.50447 0.0
C2027 C 0.95026 0.52659 0.49547 0.0
C2028 C 0.91717 0.52691 0.48666 0.0
H2029 H 0.038 0.42843 0.48754 0.0
H2030 H -0.00044 0.45231 0.48427 0.0
C2031 C 0.89629 0.5409 0.48686 0.0
C2032 C 0.97132 0.51146 0.49594 0.0
H2033 H 0.05259 0.49533 0.48518 0.0
C2034 C 0.95591 0.49773 0.50391 0.0
C2035 C 0.00632 0.51055 0.48881 0.0
C2036 C 0.02353 0.52473 0.47939 0.0
C2037 C 0.97509 0.4832 0.50547 0.0
C2038 C 0.01034 0.48239 0.49865 0.0
C2039 C 0.02551 0.49604 0.4904 0.0
C2040 C 0.03274 0.46779 0.50075 0.0
C2041 C 0.95801 0.46902 0.51494 0.0
C2042 C 0.06417 0.46871 0.51091 0.0
C2043 C 0.08617 0.4552 0.51274 0.0
C2044 C 0.07724 0.44046 0.50438 0.0
C2045 C 0.04554 0.43955 0.49425 0.0
C2046 C 0.02351 0.45315 0.4924 0.0
H2047 H 0.93377 0.47266 0.52257 0.0
H2048 H 0.94991 0.45982 0.5049 0.0
H2049 H 0.97729 0.46324 0.52428 0.0
H2050 H 0.0717 0.47993 0.51744 0.0
H2051 H 0.11033 0.45639 0.52066 0.0
H2052 H 0.29856 0.6821 0.51397 0.0
H2053 H 0.2632 0.70706 0.51565 0.0
H2054 H 0.33878 0.73106 0.481 0.0
H2055 H 0.37411 0.70633 0.4791 0.0
H2056 H 0.29124 0.7379 0.52818 0.0
H2057 H 0.23938 0.74094 0.45848 0.0
H2058 H 0.25595 0.72241 0.46832 0.0
H2059 H 0.28677 0.73762 0.46069 0.0
C2060 C 0.30742 0.69262 0.50653 0.0
C2061 C 0.33918 0.6922 0.49641 0.0
C2062 C 0.28726 0.70686 0.50754 0.0
C2063 C 0.29831 0.72078 0.4983 0.0
C2064 C 0.3296 0.72035 0.488 0.0
H2065 H 0.20818 0.81852 0.49263 0.0
H2066 H 0.24827 0.79514 0.48933 0.0
C2067 C 0.34983 0.70619 0.48703 0.0
C2068 C 0.27827 0.73608 0.50019 0.0
H2069 H 0.22854 0.76367 0.47701 0.0
C2070 C 0.27744 0.74354 0.51703 0.0
C2071 C 0.26083 0.74344 0.48551 0.0
C2072 C 0.26043 0.73568 0.46723 0.0
C2073 C 0.25943 0.75823 0.51962 0.0
C2074 C 0.24128 0.76543 0.50504 0.0
C2075 C 0.24266 0.75812 0.48811 0.0
C2076 C 0.21833 0.77981 0.50744 0.0
C2077 C 0.2601 0.76597 0.53791 0.0
C2078 C 0.18828 0.77879 0.51858 0.0
C2079 C 0.16549 0.79201 0.52049 0.0
C2080 C 0.17213 0.80654 0.5112 0.0
C2081 C 0.20242 0.80756 0.50005 0.0
C2082 C 0.22527 0.79423 0.49811 0.0
H2083 H 0.28333 0.76171 0.54592 0.0
H2084 H 0.26126 0.77938 0.53689 0.0
H2085 H 0.2353 0.76264 0.54523 0.0
H2086 H 0.1821 0.76765 0.52559 0.0
H2087 H 0.14242 0.79071 0.52916 0.0
H2088 H 0.8561 0.54245 0.27684 0.0
H2089 H 0.81541 0.51946 0.2759 0.0
H2090 H 0.74245 0.54667 0.24276 0.0
H2091 H 0.78343 0.56983 0.24332 0.0
H2092 H 0.74427 0.5164 0.28633 0.0
H2093 H 0.76163 0.50567 0.21337 0.0
H2094 H 0.79067 0.51893 0.22594 0.0
H2095 H 0.74687 0.52567 0.2193 0.0
C2096 C 0.83136 0.54366 0.26939 0.0
C2097 C 0.8232 0.55798 0.26001 0.0
C2098 C 0.80812 0.53047 0.26891 0.0
C2099 C 0.77628 0.53131 0.25905 0.0
C2100 C 0.76731 0.54572 0.25017 0.0
H2101 H 0.61354 0.45928 0.23798 0.0
H2102 H 0.64828 0.48414 0.24064 0.0
C2103 C 0.79065 0.55896 0.25058 0.0
C2104 C 0.7531 0.51686 0.25785 0.0
H2105 H 0.72073 0.48874 0.22858 0.0
C2106 C 0.73903 0.51035 0.27371 0.0
C2107 C 0.7466 0.50899 0.24136 0.0
C2108 C 0.76244 0.51505 0.22402 0.0
C2109 C 0.71837 0.49617 0.27351 0.0
C2110 C 0.71206 0.48828 0.25704 0.0
C2111 C 0.72577 0.49487 0.24117 0.0
C2112 C 0.69104 0.4732 0.25594 0.0
C2113 C 0.70314 0.48981 0.29084 0.0
C2114 C 0.70389 0.45881 0.26357 0.0
C2115 C 0.68416 0.44448 0.26205 0.0
C2116 C 0.6513 0.44437 0.25284 0.0
C2117 C 0.63868 0.45889 0.2452 0.0
C2118 C 0.65845 0.47313 0.24669 0.0
H2119 H 0.70402 0.49905 0.30164 0.0
H2120 H 0.67498 0.4858 0.289 0.0
H2121 H 0.71904 0.47918 0.29526 0.0
H2122 H 0.72933 0.45863 0.27055 0.0
H2123 H 0.69467 0.43354 0.26808 0.0
H2124 H 0.62775 0.28867 0.52737 0.0
H2125 H 0.66448 0.26458 0.52364 0.0
H2126 H 0.73743 0.29132 0.49002 0.0
H2127 H 0.70099 0.31575 0.49385 0.0
H2128 H 0.68173 0.24864 0.49197 0.0
H2129 H 0.80328 0.27052 0.52752 0.0
H2130 H 0.76048 0.28057 0.52931 0.0
H2131 H 0.78782 0.28342 0.50977 0.0
C2132 C 0.65167 0.28954 0.51923 0.0
C2133 C 0.6615 0.30421 0.51096 0.0
C2134 C 0.67258 0.27571 0.51711 0.0
C2135 C 0.70377 0.27624 0.50673 0.0
C2136 C 0.71372 0.29078 0.49836 0.0
H2137 H 0.86233 0.2046 0.47969 0.0
H2138 H 0.82421 0.22843 0.48147 0.0
C2139 C 0.69283 0.3047 0.50052 0.0
C2140 C 0.72535 0.2614 0.50452 0.0
H2141 H 0.80731 0.24501 0.51327 0.0
C2142 C 0.70918 0.24781 0.49663 0.0
C2143 C 0.76105 0.26041 0.5107 0.0
C2144 C 0.77918 0.27444 0.51994 0.0
C2145 C 0.72801 0.23324 0.49454 0.0
C2146 C 0.76369 0.23226 0.50073 0.0
C2147 C 0.77989 0.24586 0.50856 0.0
C2148 C 0.78511 0.21734 0.49894 0.0
C2149 C 0.70987 0.21912 0.48548 0.0
C2150 C 0.77554 0.20316 0.50815 0.0
C2151 C 0.7973 0.18941 0.50717 0.0
C2152 C 0.82908 0.1897 0.49706 0.0
C2153 C 0.83814 0.20391 0.48766 0.0
C2154 C 0.81641 0.21758 0.48864 0.0
H2155 H 0.68562 0.22295 0.47797 0.0
H2156 H 0.72851 0.21297 0.4761 0.0
H2157 H 0.70152 0.21018 0.49576 0.0
H2158 H 0.7517 0.20287 0.51641 0.0
H2159 H 0.78964 0.17871 0.51464 0.0
H2160 H 0.37481 0.20613 0.77504 0.0
H2161 H 0.41237 0.23018 0.77407 0.0
H2162 H 0.49311 0.20378 0.74491 0.0
H2163 H 0.45573 0.17938 0.74588 0.0
H2164 H 0.51872 0.22325 0.77451 0.0
H2165 H 0.42974 0.25757 0.72851 0.0
H2166 H 0.4078 0.2492 0.74781 0.0
H2167 H 0.42668 0.23589 0.7313 0.0
C2168 C 0.40055 0.20533 0.76841 0.0
C2169 C 0.41214 0.19079 0.76043 0.0
C2170 C 0.42188 0.21915 0.76782 0.0
C2171 C 0.45511 0.21878 0.75917 0.0
C2172 C 0.46732 0.20427 0.75154 0.0
H2173 H 0.62122 0.28898 0.7402 0.0
H2174 H 0.58472 0.26471 0.74291 0.0
C2175 C 0.44595 0.19037 0.75211 0.0
C2176 C 0.47705 0.2336 0.75822 0.0
H2177 H 0.47753 0.27216 0.74181 0.0
C2178 C 0.50989 0.23393 0.7673 0.0
C2179 C 0.46516 0.24749 0.74889 0.0
C2180 C 0.43056 0.24755 0.73843 0.0
C2181 C 0.53107 0.24795 0.7675 0.0
C2182 C 0.51923 0.26183 0.75811 0.0
C2183 C 0.48634 0.2615 0.74907 0.0
C2184 C 0.54131 0.27661 0.75686 0.0
C2185 C 0.5656 0.24789 0.778 0.0
C2186 C 0.5285 0.29144 0.76342 0.0
C2187 C 0.54923 0.30547 0.76179 0.0
C2188 C 0.58298 0.30486 0.75345 0.0
C2189 C 0.59546 0.28994 0.74679 0.0
C2190 C 0.57476 0.27598 0.74842 0.0
H2191 H 0.56586 0.23816 0.78828 0.0
H2192 H 0.58831 0.2457 0.76872 0.0
H2193 H 0.57005 0.25971 0.78472 0.0
H2194 H 0.50254 0.29213 0.76986 0.0
H2195 H 0.53879 0.31675 0.76704 0.0
H2196 H 0.39367 0.04157 0.47551 0.0
H2197 H 0.43416 0.01863 0.47807 0.0
H2198 H 0.50227 0.04612 0.51343 0.0
H2199 H 0.4614 0.06928 0.51121 0.0
H2200 H 0.50759 0.01587 0.47034 0.0
H2201 H 0.47743 0.00499 0.5423 0.0
H2202 H 0.4503 0.01804 0.52846 0.0
H2203 H 0.49279 0.025 0.5367 0.0
C2204 C 0.41729 0.04285 0.48381 0.0
C2205 C 0.42409 0.05725 0.4933 0.0
C2206 C 0.44045 0.02971 0.4852 0.0
C2207 C 0.47082 0.03064 0.49613 0.0
C2208 C 0.47855 0.04513 0.50515 0.0
H2209 H 0.62567 0.95639 0.52301 0.0
H2210 H 0.59239 0.98163 0.52005 0.0
C2211 C 0.45531 0.05836 0.50378 0.0
C2212 C 0.49359 0.01616 0.49829 0.0
H2213 H 0.51888 0.98742 0.52855 0.0
C2214 C 0.51023 0.00967 0.48307 0.0
C2215 C 0.49671 0.00812 0.51492 0.0
C2216 C 0.47818 0.01427 0.53153 0.0
C2217 C 0.52998 0.99526 0.48403 0.0
C2218 C 0.53263 0.9871 0.50059 0.0
C2219 C 0.51656 0.99373 0.51588 0.0
C2220 C 0.55222 0.97167 0.50236 0.0
C2221 C 0.54807 0.98893 0.46738 0.0
C2222 C 0.54018 0.95767 0.49359 0.0
C2223 C 0.55908 0.94314 0.49525 0.0
C2224 C 0.59031 0.94242 0.50575 0.0
C2225 C 0.60184 0.95648 0.51474 0.0
C2226 C 0.58288 0.97094 0.5131 0.0
H2227 H 0.55025 0.9984 0.45686 0.0
H2228 H 0.57531 0.98433 0.4705 0.0
H2229 H 0.53214 0.97873 0.46187 0.0
H2230 H 0.51615 0.958 0.48546 0.0
H2231 H 0.54943 0.93255 0.48818 0.0
H2232 H 0.54026 0.81834 0.2611 0.0
H2233 H 0.50315 0.79389 0.26302 0.0
H2234 H 0.57512 0.76909 0.22718 0.0
H2235 H 0.61238 0.79321 0.22522 0.0
H2236 H 0.46966 0.77544 0.23455 0.0
H2237 H 0.57116 0.73991 0.27222 0.0
H2238 H 0.57311 0.76169 0.27028 0.0
H2239 H 0.58728 0.74912 0.25198 0.0
C2240 C 0.54808 0.80772 0.25355 0.0
C2241 C 0.57949 0.80771 0.24314 0.0
C2242 C 0.52689 0.79379 0.25468 0.0
C2243 C 0.5369 0.77968 0.24549 0.0
C2244 C 0.56745 0.77979 0.23465 0.0
H2245 H 0.45205 0.68187 0.23832 0.0
H2246 H 0.48781 0.70658 0.23492 0.0
C2247 C 0.5886 0.79364 0.23351 0.0
C2248 C 0.51562 0.76471 0.24726 0.0
H2249 H 0.52016 0.72561 0.26185 0.0
C2250 C 0.48054 0.76456 0.24059 0.0
C2251 C 0.53017 0.75056 0.25505 0.0
C2252 C 0.56739 0.75029 0.26294 0.0
C2253 C 0.45966 0.75046 0.24127 0.0
C2254 C 0.47416 0.73631 0.24913 0.0
C2255 C 0.50928 0.73648 0.25577 0.0
C2256 C 0.45281 0.72139 0.2512 0.0
C2257 C 0.42252 0.75073 0.2333 0.0
C2258 C 0.42186 0.72154 0.26177 0.0
C2259 C 0.40144 0.70754 0.26373 0.0
C2260 C 0.41176 0.69303 0.25528 0.0
C2261 C 0.44332 0.69283 0.24499 0.0
C2262 C 0.46373 0.70691 0.243 0.0
H2263 H 0.41926 0.76082 0.2236 0.0
H2264 H 0.41637 0.73914 0.22642 0.0
H2265 H 0.40261 0.75247 0.24416 0.0
H2266 H 0.41351 0.73251 0.26854 0.0
H2267 H 0.3775 0.70815 0.27189 0.0
H2268 H 0.62877 0.45793 0.0246 0.0
H2269 H 0.59411 0.48283 0.02221 0.0
H2270 H 0.51535 0.45809 0.99003 0.0
H2271 H 0.54954 0.43292 0.99256 0.0
H2272 H 0.57538 0.49984 0.99187 0.0
H2273 H 0.45487 0.47932 0.029 0.0
H2274 H 0.49671 0.46838 0.02952 0.0
H2275 H 0.46697 0.46631 0.01073 0.0
C2276 C 0.60399 0.4577 0.01706 0.0
C2277 C 0.59182 0.44337 0.00884 0.0
C2278 C 0.58427 0.47197 0.01571 0.0
C2279 C 0.55202 0.47221 0.00617 0.0
C2280 C 0.53986 0.45803 0.99779 0.0
H2281 H 0.39722 0.54219 0.97457 0.0
H2282 H 0.43713 0.51919 0.97835 0.0
C2283 C 0.5595 0.44368 0.99919 0.0
C2284 C 0.53153 0.48744 0.00469 0.0
H2285 H 0.45 0.50432 0.01331 0.0
C2286 C 0.54806 0.5009 0.99668 0.0
C2287 C 0.49605 0.48875 0.01113 0.0
C2288 C 0.47768 0.47498 0.02074 0.0
C2289 C 0.52951 0.51552 0.99438 0.0
C2290 C 0.49376 0.51664 1.00038 0.0
C2291 C 0.47748 0.50331 0.0087 0.0
C2292 C 0.47188 0.53122 0.99728 0.0
C2293 C 0.54773 0.52949 0.98508 0.0
C2294 C 0.47864 0.54566 0.00657 0.0
C2295 C 0.45576 0.55895 0.00448 0.0
C2296 C 0.42578 0.55788 0.99313 0.0
C2297 C 0.4199 0.54346 0.98351 0.0
C2298 C 0.44266 0.53027 0.98562 0.0
H2299 H 0.57367 0.52588 0.97898 0.0
H2300 H 0.53012 0.53451 0.97447 0.0
H2301 H 0.55291 0.53928 0.99492 0.0
H2302 H 0.50098 0.54649 0.01578 0.0
H2303 H 0.46098 0.56984 0.01213 0.0
H2304 H 0.11211 0.4103 0.43801 0.0
H2305 H 0.10142 0.40509 0.40636 0.0
H2306 H 0.0525 0.35927 0.41958 0.0
H2307 H 0.06229 0.3647 0.45153 0.0
H2308 H 0.1331 0.38047 0.38945 0.0
H2309 H 0.98591 0.37582 0.3805 0.0
H2310 H 0.00605 0.38478 0.40012 0.0
H2311 H 0.00349 0.36313 0.39794 0.0
C2312 C 0.09834 0.39927 0.43423 0.0
C2313 C 0.08822 0.38785 0.44722 0.0
C2314 C 0.09222 0.39631 0.41612 0.0
C2315 C 0.07609 0.38181 0.41055 0.0
C2316 C 0.06439 0.37068 0.42355 0.0
H2317 H 0.12278 0.33836 0.30811 0.0
H2318 H 0.11226 0.34381 0.33977 0.0
C2319 C 0.07013 0.37375 0.4418 0.0
C2320 C 0.07583 0.37767 0.3912 0.0
H2321 H 0.0222 0.3672 0.35595 0.0
C2322 C 0.10877 0.37766 0.38214 0.0
C2323 C 0.04409 0.37409 0.38162 0.0
C2324 C 0.00781 0.37458 0.39047 0.0
C2325 C 0.11098 0.37408 0.36386 0.0
C2326 C 0.07946 0.36999 0.35438 0.0
C2327 C 0.04635 0.37019 0.36331 0.0
C2328 C 0.08096 0.36546 0.33519 0.0
C2329 C 0.1471 0.37492 0.35479 0.0
C2330 C 0.06539 0.37542 0.32209 0.0
C2331 C 0.07116 0.37226 0.30388 0.0
C2332 C 0.09265 0.35912 0.29857 0.0
C2333 C 0.10648 0.3487 0.31175 0.0
C2334 C 0.10052 0.35179 0.32987 0.0
H2335 H 0.16659 0.38217 0.36267 0.0
H2336 H 0.15805 0.36249 0.35338 0.0
H2337 H 0.1448 0.38031 0.34123 0.0
H2338 H 0.05011 0.38601 0.32595 0.0
H2339 H 0.06006 0.38047 0.29403 0.0
H2340 H 0.20329 0.87656 0.30086 0.0
H2341 H 0.21874 0.87139 0.33232 0.0
H2342 H 0.1211 0.89496 0.34894 0.0
H2343 H 0.10625 0.90058 0.3179 0.0
H2344 H 0.17594 0.90347 0.37007 0.0
H2345 H 0.17274 0.83644 0.36225 0.0
H2346 H 0.2047 0.84697 0.34856 0.0
H2347 H 0.15758 0.84994 0.34488 0.0
C2348 C 0.18533 0.88072 0.31127 0.0
C2349 C 0.15344 0.88888 0.30687 0.0
C2350 C 0.19406 0.87768 0.32922 0.0
C2351 C 0.17078 0.88255 0.34301 0.0
C2352 C 0.13951 0.89107 0.33858 0.0
H2353 H 0.10853 0.84691 0.44284 0.0
H2354 H 0.12334 0.85313 0.41191 0.0
C2355 C 0.13099 0.89424 0.32076 0.0
C2356 C 0.17757 0.87843 0.36209 0.0
H2357 H 0.1801 0.8466 0.39125 0.0
C2358 C 0.17736 0.89104 0.37473 0.0
C2359 C 0.17931 0.8622 0.36813 0.0
C2360 C 0.17834 0.84807 0.35531 0.0
C2361 C 0.17666 0.88787 0.39319 0.0
C2362 C 0.17729 0.87161 0.39923 0.0
C2363 C 0.17969 0.85904 0.3866 0.0
C2364 C 0.1705 0.86727 0.41825 0.0
C2365 C 0.17282 0.90192 0.40598 0.0
C2366 C 0.19239 0.87294 0.43223 0.0
C2367 C 0.18364 0.86956 0.4501 0.0
C2368 C 0.15317 0.86025 0.45423 0.0
C2369 C 0.13216 0.85414 0.44016 0.0
C2370 C 0.14067 0.85765 0.42242 0.0
H2371 H 0.16549 0.91332 0.39897 0.0
H2372 H 0.15208 0.89933 0.41623 0.0
H2373 H 0.19867 0.90394 0.41294 0.0
H2374 H 0.21601 0.88008 0.42934 0.0
H2375 H 0.20051 0.87431 0.46065 0.0
H2376 H 0.03401 0.87324 0.79961 0.0
H2377 H 0.0143 0.87802 0.83056 0.0
H2378 H 0.11017 0.85478 0.85007 0.0
H2379 H 0.1292 0.84953 0.81954 0.0
H2380 H 0.05282 0.8458 0.86929 0.0
H2381 H 0.0554 0.91295 0.86217 0.0
H2382 H 0.0255 0.90219 0.84757 0.0
H2383 H 0.07307 0.8997 0.84516 0.0
C2384 C 0.05067 0.86908 0.81054 0.0
C2385 C 0.08327 0.86112 0.80712 0.0
C2386 C 0.03949 0.87188 0.82821 0.0
C2387 C 0.06102 0.86698 0.84267 0.0
C2388 C 0.09304 0.85867 0.83918 0.0
H2389 H 0.12375 0.90079 0.94107 0.0
H2390 H 0.10591 0.89519 0.91049 0.0
C2391 C 0.10397 0.85573 0.82166 0.0
C2392 C 0.05182 0.87089 0.86154 0.0
H2393 H 0.04777 0.90249 0.89094 0.0
C2394 C 0.05105 0.85819 0.87405 0.0
C2395 C 0.04946 0.88708 0.86769 0.0
C2396 C 0.05112 0.90131 0.85502 0.0
C2397 C 0.05089 0.86121 0.89254 0.0
C2398 C 0.05036 0.87742 0.89871 0.0
C2399 C 0.04818 0.89008 0.88618 0.0
C2400 C 0.0584 0.88161 0.91763 0.0
C2401 C 0.05415 0.84707 0.90525 0.0
C2402 C 0.0373 0.87608 0.93198 0.0
C2403 C 0.04781 0.87911 0.94972 0.0
C2404 C 0.07931 0.88789 0.95329 0.0
C2405 C 0.0994 0.89394 0.93885 0.0
C2406 C 0.08914 0.8908 0.92129 0.0
H2407 H 0.06023 0.83556 0.89816 0.0
H2408 H 0.07557 0.84931 0.91525 0.0
H2409 H 0.02851 0.84547 0.91254 0.0
H2410 H 0.01307 0.86924 0.9295 0.0
H2411 H 0.03165 0.8744 0.96057 0.0
H2412 H 0.10145 0.40016 0.81113 0.0
H2413 H 0.11511 0.39499 0.84242 0.0
H2414 H 0.20812 0.36732 0.82696 0.0
H2415 H 0.19391 0.37212 0.79529 0.0
H2416 H 0.17048 0.35163 0.85173 0.0
H2417 H 0.18845 0.41445 0.87492 0.0
H2418 H 0.14625 0.41244 0.86373 0.0
H2419 H 0.18726 0.40927 0.85146 0.0
C2420 C 0.12508 0.39311 0.81432 0.0
C2421 C 0.14668 0.3866 0.80069 0.0
C2422 C 0.13305 0.39028 0.83228 0.0
C2423 C 0.16314 0.38109 0.83713 0.0
C2424 C 0.18495 0.3746 0.82356 0.0
H2425 H 0.1959 0.37524 0.95386 0.0
H2426 H 0.20915 0.3797 0.92206 0.0
C2427 C 0.17683 0.37735 0.80548 0.0
C2428 C 0.16986 0.3774 0.85633 0.0
H2429 H 0.1709 0.39498 0.89768 0.0
C2430 C 0.17128 0.36113 0.86176 0.0
C2431 C 0.17183 0.38973 0.86947 0.0
C2432 C 0.17379 0.40744 0.86455 0.0
C2433 C 0.17204 0.35688 0.87996 0.0
C2434 C 0.17031 0.36921 0.89311 0.0
C2435 C 0.17151 0.38548 0.88767 0.0
C2436 C 0.1643 0.36555 0.91239 0.0
C2437 C 0.17425 0.33918 0.88486 0.0
C2438 C 0.13464 0.35621 0.91757 0.0
C2439 C 0.12723 0.35355 0.93565 0.0
C2440 C 0.14895 0.36041 0.94902 0.0
C2441 C 0.17871 0.36976 0.94387 0.0
C2442 C 0.1863 0.37232 0.92571 0.0
H2443 H 0.18874 0.33219 0.87442 0.0
H2444 H 0.18803 0.33737 0.89788 0.0
H2445 H 0.14677 0.33412 0.88584 0.0
H2446 H 0.11654 0.35129 0.90764 0.0
H2447 H 0.10389 0.34641 0.93912 0.0
H2448 H 0.96015 0.62644 0.70727 0.0
H2449 H 0.98246 0.62159 0.67676 0.0
H2450 H 0.88795 0.64449 0.65523 0.0
H2451 H 0.86631 0.64973 0.68525 0.0
H2452 H 0.95478 0.6036 0.65116 0.0
H2453 H 0.96211 0.66562 0.62494 0.0
H2454 H 0.95795 0.66153 0.64859 0.0
H2455 H 0.91866 0.6627 0.63455 0.0
C2456 C 0.94451 0.63065 0.69599 0.0
C2457 C 0.91155 0.63853 0.69869 0.0
C2458 C 0.95728 0.62789 0.67858 0.0
C2459 C 0.93736 0.63304 0.66365 0.0
C2460 C 0.90453 0.64091 0.66644 0.0
H2461 H 0.87785 0.59246 0.5687 0.0
H2462 H 0.89861 0.59846 0.59866 0.0
C2463 C 0.89195 0.64375 0.68371 0.0
C2464 C 0.94842 0.62896 0.64506 0.0
H2465 H 0.94652 0.6446 0.60282 0.0
C2466 C 0.95399 0.61263 0.64063 0.0
C2467 C 0.94872 0.64072 0.63126 0.0
C2468 C 0.94697 0.65863 0.63516 0.0
C2469 C 0.95591 0.60761 0.6227 0.0
C2470 C 0.95096 0.61914 0.60888 0.0
C2471 C 0.9494 0.63564 0.61334 0.0
C2472 C 0.94183 0.61424 0.59027 0.0
C2473 C 0.9619 0.58989 0.61882 0.0
C2474 C 0.95861 0.62137 0.57535 0.0
C2475 C 0.94621 0.61814 0.55796 0.0
C2476 C 0.91671 0.60783 0.55528 0.0
C2477 C 0.90074 0.60041 0.57022 0.0
C2478 C 0.91292 0.60369 0.58745 0.0
H2479 H 0.9799 0.58441 0.629 0.0
H2480 H 0.93592 0.58338 0.61954 0.0
H2481 H 0.97376 0.58798 0.60536 0.0
H2482 H 0.9807 0.62971 0.57717 0.0
H2483 H 0.95897 0.62408 0.54672 0.0
H2484 H 0.78864 0.12388 0.70954 0.0
H2485 H 0.76877 0.12907 0.67864 0.0
H2486 H 0.85777 0.101 0.65878 0.0
H2487 H 0.87685 0.09546 0.68913 0.0
H2488 H 0.80227 0.14497 0.6529 0.0
H2489 H 0.78012 0.08316 0.62815 0.0
H2490 H 0.78435 0.08753 0.65173 0.0
H2491 H 0.82363 0.08407 0.63816 0.0
C2492 C 0.80347 0.1186 0.69854 0.0
C2493 C 0.83423 0.10922 0.70181 0.0
C2494 C 0.79213 0.12156 0.68091 0.0
C2495 C 0.81126 0.1151 0.66633 0.0
C2496 C 0.84175 0.10566 0.66971 0.0
H2497 H 0.87844 0.1514 0.56896 0.0
H2498 H 0.85933 0.14632 0.59948 0.0
C2499 C 0.85289 0.10265 0.68717 0.0
C2500 C 0.80216 0.11933 0.64751 0.0
H2501 H 0.80112 0.10278 0.60567 0.0
C2502 C 0.80105 0.13573 0.64261 0.0
C2503 C 0.79939 0.10736 0.634 0.0
C2504 C 0.7965 0.08956 0.63835 0.0
C2505 C 0.80084 0.14044 0.62454 0.0
C2506 C 0.80297 0.12843 0.61104 0.0
C2507 C 0.80042 0.11205 0.61594 0.0
C2508 C 0.81227 0.13246 0.59218 0.0
C2509 C 0.79935 0.15826 0.62018 0.0
C2510 C 0.79291 0.12596 0.57771 0.0
C2511 C 0.80431 0.1286 0.56005 0.0
C2512 C 0.83531 0.13776 0.55659 0.0
C2513 C 0.85426 0.14441 0.57109 0.0
C2514 C 0.84309 0.14166 0.58863 0.0
H2515 H 0.78327 0.16491 0.63031 0.0
H2516 H 0.82686 0.16335 0.6205 0.0
H2517 H 0.78759 0.16048 0.60675 0.0
H2518 H 0.76928 0.11865 0.58009 0.0
H2519 H 0.78921 0.12328 0.54916 0.0
H2520 H 0.9534 0.12455 0.21032 0.0
H2521 H 0.97096 0.12017 0.17899 0.0
H2522 H 0.87799 0.14688 0.16154 0.0
H2523 H 0.86104 0.15164 0.19246 0.0
H2524 H 0.93673 0.10404 0.15377 0.0
H2525 H 0.95198 0.16668 0.12988 0.0
H2526 H 0.94959 0.16182 0.15341 0.0
H2527 H 0.90922 0.16455 0.14048 0.0
C2528 C 0.93709 0.12969 0.19977 0.0
C2529 C 0.90591 0.13849 0.20389 0.0
C2530 C 0.94714 0.12719 0.18188 0.0
C2531 C 0.92627 0.13351 0.16785 0.0
C2532 C 0.89527 0.14235 0.17204 0.0
H2533 H 0.86167 0.0977 0.06943 0.0
H2534 H 0.87916 0.10307 0.10012 0.0
C2535 C 0.88538 0.14492 0.18981 0.0
C2536 C 0.93447 0.12975 0.14881 0.0
H2537 H 0.93388 0.14687 0.10721 0.0
C2538 C 0.93699 0.11344 0.14363 0.0
C2539 C 0.93587 0.14195 0.1355 0.0
C2540 C 0.93695 0.15972 0.14016 0.0
C2541 C 0.9376 0.109 0.12549 0.0
C2542 C 0.93459 0.12115 0.11219 0.0
C2543 C 0.93539 0.13749 0.11736 0.0
C2544 C 0.92611 0.11716 0.09325 0.0
C2545 C 0.94048 0.09128 0.12081 0.0
C2546 C 0.94605 0.12368 0.07898 0.0
C2547 C 0.9357 0.12079 0.0612 0.0
C2548 C 0.90512 0.11143 0.05745 0.0
C2549 C 0.88552 0.10486 0.07178 0.0
C2550 C 0.89572 0.10779 0.08942 0.0
H2551 H 0.95643 0.08465 0.13101 0.0
H2552 H 0.91329 0.08585 0.12062 0.0
H2553 H 0.95307 0.08946 0.1075 0.0
H2554 H 0.96936 0.13112 0.08161 0.0
H2555 H 0.95126 0.12607 0.05044 0.0
H2556 H 0.88419 0.65218 0.06659 0.0
H2557 H 0.86545 0.64618 0.09695 0.0
H2558 H 0.76987 0.62301 0.07695 0.0
H2559 H 0.78935 0.62856 0.0461 0.0
H2560 H 0.80821 0.65459 0.11643 0.0
H2561 H 0.8116 0.58759 0.10773 0.0
H2562 H 0.82894 0.60121 0.09098 0.0
H2563 H 0.78142 0.59861 0.0935 0.0
C2564 C 0.85908 0.64584 0.06855 0.0
C2565 C 0.83841 0.64071 0.05389 0.0
C2566 C 0.8483 0.64247 0.08599 0.0
C2567 C 0.81645 0.63397 0.0893 0.0
C2568 C 0.79493 0.6293 0.07473 0.0
H2569 H 0.78958 0.62427 0.20712 0.0
H2570 H 0.7707 0.63014 0.17626 0.0
C2571 C 0.80597 0.63255 0.05712 0.0
C2572 C 0.8075 0.62964 0.1081 0.0
H2573 H 0.80484 0.59748 0.13679 0.0
C2574 C 0.80681 0.6421 0.12091 0.0
C2575 C 0.80561 0.61334 0.11389 0.0
C2576 C 0.80714 0.59937 0.10088 0.0
C2577 C 0.80729 0.63873 0.13934 0.0
C2578 C 0.80725 0.6224 0.14513 0.0
C2579 C 0.80493 0.60998 0.13232 0.0
C2580 C 0.81567 0.61787 0.16393 0.0
C2581 C 0.8107 0.65265 0.15232 0.0
C2582 C 0.84632 0.60852 0.16726 0.0
C2583 C 0.85671 0.60496 0.18472 0.0
C2584 C 0.83687 0.61075 0.19937 0.0
C2585 C 0.80558 0.61977 0.19611 0.0
C2586 C 0.79489 0.6232 0.17849 0.0
H2587 H 0.81675 0.66427 0.14545 0.0
H2588 H 0.78511 0.65414 0.15968 0.0
H2589 H 0.83219 0.65024 0.16224 0.0
H2590 H 0.86287 0.60429 0.15631 0.0
H2591 H 0.88093 0.59795 0.1867 0.0
H2592 H 0.53677 0.37562 0.96163 0.0
H2593 H 0.51679 0.3704 0.9308 0.0
H2594 H 0.6111 0.39452 0.91067 0.0
H2595 H 0.63041 0.40016 0.94103 0.0
H2596 H 0.55249 0.40256 0.89153 0.0
H2597 H 0.56064 0.33557 0.89964 0.0
H2598 H 0.53027 0.34615 0.91418 0.0
H2599 H 0.57769 0.3493 0.91635 0.0
C2600 C 0.55298 0.37992 0.95059 0.0
C2601 C 0.58531 0.38818 0.95378 0.0
C2602 C 0.54165 0.37685 0.93299 0.0
C2603 C 0.56273 0.38186 0.9184 0.0
C2604 C 0.59433 0.39055 0.92167 0.0
H2605 H 0.62941 0.34824 0.82054 0.0
H2606 H 0.61108 0.3539 0.85108 0.0
C2607 C 0.60544 0.3937 0.9391 0.0
C2608 C 0.55372 0.37756 0.89962 0.0
H2609 H 0.55327 0.34558 0.87067 0.0
C2610 C 0.55193 0.3901 0.88694 0.0
C2611 C 0.55299 0.36128 0.89371 0.0
C2612 C 0.55571 0.34726 0.9066 0.0
C2613 C 0.5524 0.38687 0.86849 0.0
C2614 C 0.55359 0.37059 0.86257 0.0
C2615 C 0.55239 0.35804 0.87526 0.0
C2616 C 0.5622 0.36635 0.84373 0.0
C2617 C 0.5545 0.40091 0.85559 0.0
C2618 C 0.54056 0.37125 0.82931 0.0
C2619 C 0.55132 0.36818 0.81164 0.0
C2620 C 0.58364 0.36 0.80818 0.0
C2621 C 0.60442 0.35461 0.82269 0.0
C2622 C 0.59387 0.35779 0.84021 0.0
H2623 H 0.55939 0.41261 0.86253 0.0
H2624 H 0.57625 0.39897 0.84569 0.0
H2625 H 0.52883 0.40192 0.8482 0.0
H2626 H 0.51564 0.37759 0.8317 0.0
H2627 H 0.53462 0.37236 0.80073 0.0
H2628 H 0.69511 0.87727 0.95261 0.0
H2629 H 0.71194 0.88256 0.92135 0.0
H2630 H 0.6188 0.85615 0.90349 0.0
H2631 H 0.60273 0.85038 0.93435 0.0
H2632 H 0.67619 0.84861 0.8838 0.0
H2633 H 0.66445 0.91563 0.88961 0.0
H2634 H 0.69661 0.90616 0.9041 0.0
H2635 H 0.64966 0.90217 0.90711 0.0
C2636 C 0.67838 0.87257 0.94197 0.0
C2637 C 0.64751 0.86349 0.94593 0.0
C2638 C 0.68791 0.87566 0.92414 0.0
C2639 C 0.66635 0.86995 0.91006 0.0
C2640 C 0.63592 0.86066 0.91409 0.0
H2641 H 0.60377 0.90148 0.80931 0.0
H2642 H 0.61903 0.89651 0.84045 0.0
C2643 C 0.62669 0.85742 0.93178 0.0
C2644 C 0.67414 0.87382 0.89104 0.0
H2645 H 0.67439 0.90499 0.86103 0.0
C2646 C 0.67633 0.86095 0.8788 0.0
C2647 C 0.67431 0.88993 0.88458 0.0
C2648 C 0.67088 0.9043 0.89696 0.0
C2649 C 0.67615 0.86366 0.86026 0.0
C2650 C 0.67497 0.87977 0.85378 0.0
C2651 C 0.67531 0.89267 0.86604 0.0
C2652 C 0.66799 0.88347 0.83464 0.0
C2653 C 0.67461 0.84924 0.84786 0.0
C2654 C 0.69071 0.878 0.82091 0.0
C2655 C 0.68166 0.88061 0.80292 0.0
C2656 C 0.6501 0.88899 0.79846 0.0
C2657 C 0.62825 0.89496 0.81227 0.0
C2658 C 0.63702 0.89218 0.83012 0.0
H2659 H 0.66861 0.83782 0.85514 0.0
H2660 H 0.65387 0.85101 0.83739 0.0
H2661 H 0.7009 0.84778 0.84113 0.0
H2662 H 0.71517 0.87157 0.82407 0.0
H2663 H 0.69919 0.87601 0.79256 0.0
H2664 H 0.53729 0.87748 0.45563 0.0
H2665 H 0.51817 0.8727 0.42461 0.0
H2666 H 0.61564 0.89488 0.40554 0.0
H2667 H 0.63412 0.90016 0.43615 0.0
H2668 H 0.55935 0.90394 0.38563 0.0
H2669 H 0.55926 0.83692 0.39422 0.0
H2670 H 0.52919 0.84812 0.40831 0.0
H2671 H 0.57675 0.85035 0.4111 0.0
C2672 C 0.5544 0.88145 0.44477 0.0
C2673 C 0.58734 0.88908 0.44833 0.0
C2674 C 0.54355 0.87864 0.42708 0.0
C2675 C 0.56576 0.88318 0.41273 0.0
C2676 C 0.59802 0.89126 0.41635 0.0
H2677 H 0.62922 0.8471 0.31511 0.0
H2678 H 0.61127 0.85319 0.3456 0.0
C2679 C 0.60863 0.89422 0.43391 0.0
C2680 C 0.5571 0.879 0.3939 0.0
H2681 H 0.55275 0.84691 0.36517 0.0
C2682 C 0.55726 0.89149 0.38113 0.0
C2683 C 0.55436 0.86273 0.38809 0.0
C2684 C 0.5551 0.84871 0.40107 0.0
C2685 C 0.55761 0.88813 0.36271 0.0
C2686 C 0.55658 0.87182 0.35691 0.0
C2687 C 0.55354 0.8594 0.36967 0.0
C2688 C 0.56463 0.86723 0.33811 0.0
C2689 C 0.5619 0.90202 0.34974 0.0
C2690 C 0.54399 0.87282 0.32364 0.0
C2691 C 0.55459 0.86952 0.306 0.0
C2692 C 0.58566 0.86038 0.30264 0.0
C2693 C 0.6052 0.85421 0.31719 0.0
C2694 C 0.59488 0.85765 0.33469 0.0
H2695 H 0.56865 0.91356 0.35662 0.0
H2696 H 0.58326 0.89936 0.33983 0.0
H2697 H 0.53643 0.90385 0.34237 0.0
H2698 H 0.52008 0.87994 0.32596 0.0
H2699 H 0.53882 0.87431 0.29505 0.0
H2700 H 0.68673 0.37961 0.461 0.0
H2701 H 0.69775 0.38606 0.42935 0.0
H2702 H 0.63614 0.34425 0.4136 0.0
H2703 H 0.62445 0.33795 0.44497 0.0
H2704 H 0.72568 0.36853 0.39831 0.0
H2705 H 0.58109 0.38341 0.39289 0.0
H2706 H 0.60322 0.38072 0.41414 0.0
H2707 H 0.58974 0.36339 0.4012 0.0
C2708 C 0.67611 0.37165 0.45077 0.0
C2709 C 0.65424 0.35844 0.45542 0.0
C2710 C 0.68246 0.37533 0.43273 0.0
C2711 C 0.6672 0.36578 0.41918 0.0
C2712 C 0.64763 0.35192 0.42387 0.0
H2713 H 0.68339 0.36763 0.30317 0.0
H2714 H 0.69514 0.36216 0.33493 0.0
C2715 C 0.64098 0.34835 0.4418 0.0
C2716 C 0.66841 0.37106 0.40023 0.0
H2717 H 0.61388 0.38236 0.36585 0.0
C2718 C 0.70135 0.37166 0.39118 0.0
C2719 C 0.63666 0.37538 0.39108 0.0
C2720 C 0.6007 0.37586 0.40034 0.0
C2721 C 0.70318 0.37613 0.373 0.0
C2722 C 0.67118 0.37984 0.3637 0.0
C2723 C 0.63844 0.37947 0.37293 0.0
C2724 C 0.67029 0.38426 0.34443 0.0
C2725 C 0.7393 0.37703 0.36402 0.0
C2726 C 0.65284 0.39854 0.33917 0.0
C2727 C 0.64547 0.40147 0.32118 0.0
C2728 C 0.65579 0.39028 0.30801 0.0
C2729 C 0.6754 0.3765 0.31307 0.0
C2730 C 0.68229 0.37342 0.33121 0.0
H2731 H 0.76124 0.37844 0.37395 0.0
H2732 H 0.7441 0.36564 0.35652 0.0
H2733 H 0.74047 0.38728 0.35442 0.0
H2734 H 0.6434 0.4071 0.34911 0.0
H2735 H 0.63054 0.41226 0.31763 0.0
H2736 H 0.36065 0.65004 0.1877 0.0
H2737 H 0.37636 0.64409 0.15691 0.0
H2738 H 0.47201 0.61951 0.1746 0.0
H2739 H 0.45558 0.625 0.20591 0.0
H2740 H 0.43204 0.65205 0.1364 0.0
H2741 H 0.42594 0.58503 0.1441 0.0
H2742 H 0.41079 0.59862 0.1614 0.0
H2743 H 0.45789 0.59539 0.15795 0.0
C2744 C 0.38514 0.6434 0.18515 0.0
C2745 C 0.40672 0.63787 0.19931 0.0
C2746 C 0.39417 0.64004 0.16746 0.0
C2747 C 0.42512 0.63117 0.16337 0.0
C2748 C 0.44757 0.62608 0.17742 0.0
H2749 H 0.45245 0.62344 0.04558 0.0
H2750 H 0.46932 0.62876 0.0768 0.0
C2751 C 0.43829 0.62931 0.19529 0.0
C2752 C 0.43236 0.627 0.14434 0.0
H2753 H 0.43316 0.5952 0.11512 0.0
C2754 C 0.43283 0.63962 0.13172 0.0
C2755 C 0.43332 0.61076 0.13827 0.0
C2756 C 0.43171 0.59663 0.15107 0.0
C2757 C 0.43172 0.6365 0.11325 0.0
C2758 C 0.4314 0.62025 0.10718 0.0
C2759 C 0.43341 0.60764 0.11979 0.0
C2760 C 0.42398 0.61602 0.08818 0.0
C2761 C 0.42828 0.65063 0.10055 0.0
C2762 C 0.39385 0.60652 0.08416 0.0
C2763 C 0.38464 0.60322 0.06645 0.0
C2764 C 0.40516 0.60946 0.05227 0.0
C2765 C 0.43592 0.61862 0.05623 0.0
C2766 C 0.44545 0.62174 0.07406 0.0
H2767 H 0.4214 0.66205 0.10762 0.0
H2768 H 0.45416 0.65252 0.09355 0.0
H2769 H 0.40736 0.64825 0.09032 0.0
H2770 H 0.37681 0.60196 0.09477 0.0
H2771 H 0.36079 0.59611 0.0639 0.0
H2772 H 0.36669 0.08972 0.19141 0.0
H2773 H 0.35625 0.09583 0.1599 0.0
H2774 H 0.2982 0.13893 0.17469 0.0
H2775 H 0.3081 0.13273 0.2065 0.0
H2776 H 0.26893 0.12106 0.14392 0.0
H2777 H 0.41448 0.13382 0.13827 0.0
H2778 H 0.40429 0.11417 0.14722 0.0
H2779 H 0.39203 0.13203 0.15955 0.0
C2780 C 0.35119 0.10037 0.18801 0.0
C2781 C 0.33861 0.11087 0.20143 0.0
C2782 C 0.34528 0.10385 0.16998 0.0
C2783 C 0.32706 0.11798 0.16496 0.0
C2784 C 0.31246 0.12799 0.17831 0.0
H2785 H 0.36442 0.16207 0.06174 0.0
H2786 H 0.35341 0.15736 0.09348 0.0
C2787 C 0.31814 0.12444 0.19645 0.0
C2788 C 0.32631 0.12291 0.14587 0.0
H2789 H 0.38169 0.13267 0.1112 0.0
C2790 C 0.29349 0.12371 0.13674 0.0
C2791 C 0.35836 0.12658 0.13662 0.0
C2792 C 0.39428 0.12677 0.14592 0.0
C2793 C 0.29203 0.12772 0.11842 0.0
C2794 C 0.32429 0.13077 0.10903 0.0
C2795 C 0.35694 0.13026 0.11834 0.0
C2796 C 0.32542 0.13467 0.0896 0.0
C2797 C 0.25601 0.12885 0.10938 0.0
C2798 C 0.31255 0.12368 0.07673 0.0
C2799 C 0.31851 0.12646 0.05845 0.0
C2800 C 0.33798 0.14011 0.0528 0.0
C2801 C 0.34954 0.15137 0.06567 0.0
C2802 C 0.34323 0.1487 0.08383 0.0
H2803 H 0.23412 0.13076 0.11923 0.0
H2804 H 0.25549 0.13888 0.09948 0.0
H2805 H 0.25055 0.11735 0.1022 0.0
H2806 H 0.29941 0.1126 0.08083 0.0
H2807 H 0.30951 0.11752 0.04884 0.0
H2808 H 0.38434 0.15944 0.69051 0.0
H2809 H 0.39647 0.15305 0.65923 0.0
H2810 H 0.45228 0.1097 0.67523 0.0
H2811 H 0.44049 0.11614 0.70684 0.0
H2812 H 0.48224 0.12913 0.64316 0.0
H2813 H 0.33799 0.11271 0.63972 0.0
H2814 H 0.34734 0.13236 0.64896 0.0
H2815 H 0.36182 0.1145 0.66064 0.0
C2816 C 0.39987 0.14871 0.68744 0.0
C2817 C 0.41108 0.13817 0.70112 0.0
C2818 C 0.40682 0.14511 0.66955 0.0
C2819 C 0.42485 0.13082 0.66494 0.0
C2820 C 0.43833 0.1208 0.67856 0.0
H2821 H 0.38741 0.08478 0.56292 0.0
H2822 H 0.40079 0.08982 0.59436 0.0
C2823 C 0.43157 0.12448 0.69658 0.0
C2824 C 0.42542 0.12555 0.646 0.0
H2825 H 0.36947 0.11383 0.61235 0.0
C2826 C 0.45773 0.12565 0.63639 0.0
C2827 C 0.39342 0.12087 0.63731 0.0
C2828 C 0.35817 0.11994 0.64717 0.0
C2829 C 0.45862 0.12154 0.61809 0.0
C2830 C 0.42631 0.11742 0.60926 0.0
C2831 C 0.39425 0.11702 0.61907 0.0
C2832 C 0.42446 0.11341 0.58989 0.0
C2833 C 0.49409 0.12148 0.60844 0.0
C2834 C 0.43422 0.12481 0.57677 0.0
C2835 C 0.42687 0.12186 0.55865 0.0
C2836 C 0.40911 0.1076 0.55345 0.0
C2837 C 0.40088 0.09594 0.56652 0.0
C2838 C 0.40856 0.0988 0.58451 0.0
H2839 H 0.51689 0.12041 0.61793 0.0
H2840 H 0.49553 0.11137 0.59867 0.0
H2841 H 0.49718 0.13304 0.60101 0.0
H2842 H 0.44583 0.13631 0.5806 0.0
H2843 H 0.43332 0.1311 0.54887 0.0
H2844 H 0.31091 0.62844 0.70626 0.0
H2845 H 0.29935 0.63321 0.67439 0.0
H2846 H 0.35737 0.58964 0.66117 0.0
H2847 H 0.36984 0.58509 0.69282 0.0
H2848 H 0.38212 0.61475 0.64304 0.0
H2849 H 0.23424 0.61381 0.6368 0.0
H2850 H 0.24993 0.62758 0.65365 0.0
H2851 H 0.25728 0.60618 0.65631 0.0
C2852 C 0.32059 0.61973 0.69656 0.0
C2853 C 0.3415 0.60646 0.70203 0.0
C2854 C 0.31375 0.6224 0.67835 0.0
C2855 C 0.32717 0.6117 0.66534 0.0
C2856 C 0.34668 0.59806 0.67092 0.0
H2857 H 0.30973 0.61501 0.54824 0.0
H2858 H 0.29923 0.60781 0.57979 0.0
C2859 C 0.35384 0.59549 0.68904 0.0
C2860 C 0.32472 0.61557 0.64593 0.0
H2861 H 0.26685 0.62476 0.61189 0.0
C2862 C 0.35683 0.61677 0.63624 0.0
C2863 C 0.29175 0.61812 0.63697 0.0
C2864 C 0.25631 0.61621 0.64641 0.0
C2865 C 0.35701 0.62076 0.61803 0.0
C2866 C 0.32423 0.62401 0.60924 0.0
C2867 C 0.29195 0.62243 0.61872 0.0
C2868 C 0.32379 0.62953 0.59036 0.0
C2869 C 0.39245 0.62151 0.6083 0.0
C2870 C 0.33954 0.64441 0.58593 0.0
C2871 C 0.34575 0.64845 0.56808 0.0
C2872 C 0.33596 0.63778 0.55427 0.0
C2873 C 0.31746 0.62347 0.55862 0.0
C2874 C 0.31151 0.61935 0.57661 0.0
H2875 H 0.41381 0.61488 0.61562 0.0
H2876 H 0.3901 0.61634 0.59464 0.0
H2877 H 0.4009 0.63435 0.60703 0.0
H2878 H 0.3488 0.65253 0.59635 0.0
H2879 H 0.35975 0.65964 0.56514 0.0
H2880 H 0.22347 0.38318 0.2326 0.0
H2881 H 0.28861 0.38643 0.2355 0.0
H2882 H 0.29553 0.33941 0.26054 0.0
H2883 H 0.23037 0.33657 0.2584 0.0
H2884 H 0.33318 0.36211 0.27874 0.0
H2885 H 0.36656 0.36503 0.20653 0.0
H2886 H 0.33632 0.38074 0.21347 0.0
H2887 H 0.32258 0.35994 0.21462 0.0
C2888 C 0.23915 0.3735 0.23847 0.0
C2889 C 0.22244 0.35936 0.24465 0.0
C2890 C 0.27623 0.37531 0.24008 0.0
C2891 C 0.29697 0.36302 0.24793 0.0
C2892 C 0.28008 0.34898 0.25429 0.0
H2893 H 0.52951 0.36002 0.24073 0.0
H2894 H 0.46588 0.35238 0.24042 0.0
C2895 C 0.24303 0.34725 0.25283 0.0
C2896 C 0.33614 0.36498 0.25011 0.0
H2897 H 0.41337 0.37099 0.22688 0.0
C2898 C 0.35077 0.3641 0.2674 0.0
C2899 C 0.3591 0.36742 0.23531 0.0
C2900 C 0.34544 0.36823 0.21639 0.0
C2901 C 0.3877 0.36597 0.27028 0.0
C2902 C 0.41036 0.3688 0.25546 0.0
C2903 C 0.39586 0.36913 0.2382 0.0
C2904 C 0.44898 0.37222 0.2574 0.0
C2905 C 0.40212 0.36472 0.28908 0.0
C2906 C 0.46039 0.38583 0.26708 0.0
C2907 C 0.49647 0.39019 0.26716 0.0
C2908 C 0.52138 0.3812 0.25726 0.0
C2909 C 0.51037 0.36725 0.24815 0.0
C2910 C 0.47425 0.36287 0.24805 0.0
H2911 H 0.38379 0.3577 0.29786 0.0
H2912 H 0.42893 0.35891 0.28926 0.0
H2913 H 0.40474 0.37707 0.2948 0.0
H2914 H 0.44127 0.39341 0.27405 0.0
H2915 H 0.50484 0.40076 0.27467 0.0
H2916 H 0.73141 0.84215 0.27138 0.0
H2917 H 0.79641 0.8459 0.27393 0.0
H2918 H 0.78907 0.88935 0.24203 0.0
H2919 H 0.72392 0.88553 0.23943 0.0
H2920 H 0.83966 0.86514 0.2303 0.0
H2921 H 0.85551 0.88065 0.30215 0.0
H2922 H 0.82812 0.86329 0.29714 0.0
H2923 H 0.81358 0.88308 0.29036 0.0
C2924 C 0.74385 0.85248 0.26494 0.0
C2925 C 0.72331 0.86334 0.2548 0.0
C2926 C 0.78072 0.85472 0.26661 0.0
C2927 C 0.79729 0.86798 0.25833 0.0
C2928 C 0.77655 0.8791 0.24859 0.0
H2929 H 0.01014 0.90487 0.26785 0.0
H2930 H 0.94607 0.89897 0.26897 0.0
C2931 C 0.7396 0.87691 0.24705 0.0
C2932 C 0.83661 0.86949 0.25852 0.0
H2933 H 0.90855 0.87678 0.28539 0.0
C2934 C 0.85478 0.86752 0.24233 0.0
C2935 C 0.85605 0.87273 0.2743 0.0
C2936 C 0.83745 0.87518 0.292 0.0
C2937 C 0.89205 0.86863 0.24132 0.0
C2938 C 0.91178 0.8722 0.25702 0.0
C2939 C 0.89348 0.87408 0.27334 0.0
C2940 C 0.95084 0.87534 0.25657 0.0
C2941 C 0.90933 0.86608 0.22332 0.0
C2942 C 0.97498 0.86397 0.24945 0.0
C2943 C 0.01139 0.86773 0.24801 0.0
C2944 C 0.02409 0.88278 0.25393 0.0
C2945 C 0.00044 0.89363 0.26216 0.0
C2946 C 0.96402 0.8901 0.26317 0.0
H2947 H 0.89108 0.86958 0.21222 0.0
H2948 H 0.93433 0.87305 0.22203 0.0
H2949 H 0.91579 0.85304 0.22174 0.0
H2950 H 0.9656 0.85229 0.24481 0.0
H2951 H 0.02959 0.85893 0.24227 0.0
H2952 H 0.22718 0.90127 0.98423 0.0
H2953 H 0.29125 0.89502 0.9823 0.0
H2954 H 0.27585 0.854 0.01727 0.0
H2955 H 0.21155 0.86034 0.01926 0.0
H2956 H 0.33099 0.87608 0.02744 0.0
H2957 H 0.34334 0.85718 0.95653 0.0
H2958 H 0.31986 0.87593 0.96 0.0
H2959 H 0.30106 0.85736 0.96831 0.0
C2960 C 0.23764 0.89094 0.99149 0.0
C2961 C 0.21514 0.8815 1.00229 0.0
C2962 C 0.27397 0.88725 0.99018 0.0
C2963 C 0.28802 0.87394 0.99947 0.0
C2964 C 0.26529 0.86425 0.00993 0.0
H2965 H 0.50441 0.83846 0.98648 0.0
H2966 H 0.43932 0.84187 0.98777 0.0
C2967 C 0.22884 0.86789 0.01112 0.0
C2968 C 0.32692 0.87098 0.99938 0.0
H2969 H 0.39756 0.86226 0.97221 0.0
C2970 C 0.34562 0.87308 0.01541 0.0
C2971 C 0.34567 0.86688 0.98363 0.0
C2972 C 0.3265 0.86406 0.96614 0.0
C2973 C 0.38291 0.87175 0.01614 0.0
C2974 C 0.40203 0.86773 1.00036 0.0
C2975 C 0.38304 0.86528 0.98433 0.0
C2976 C 0.44144 0.86562 1.00011 0.0
C2977 C 0.40073 0.87497 0.03389 0.0
C2978 C 0.46434 0.87789 0.00632 0.0
C2979 C 0.50139 0.87559 0.00631 0.0
C2980 C 0.51605 0.86111 0.9998 0.0
C2981 C 0.49342 0.8493 0.99252 0.0
C2982 C 0.45635 0.85139 0.99297 0.0
H2983 H 0.38375 0.87068 0.04516 0.0
H2984 H 0.42721 0.86918 0.03499 0.0
H2985 H 0.40428 0.88824 0.03551 0.0
H2986 H 0.45358 0.88924 0.01121 0.0
H2987 H 0.51861 0.88512 0.01134 0.0
H2988 H 0.02287 0.38601 0.01646 0.0
H2989 H 0.95748 0.38928 0.01502 0.0
H2990 H 0.94806 0.3418 0.9913 0.0
H2991 H 0.01327 0.339 0.9918 0.0
H2992 H 0.9071 0.36335 0.97414 0.0
H2993 H 0.88529 0.368 0.04719 0.0
H2994 H 0.90973 0.38508 0.03869 0.0
H2995 H 0.92906 0.36523 0.03762 0.0
C2996 C 0.00661 0.37627 0.01112 0.0
C2997 C 0.02261 0.36197 0.00496 0.0
C2998 C 0.96941 0.37811 0.01033 0.0
C2999 C 0.94785 0.36563 0.00341 0.0
C3000 C 0.96411 0.35151 0.99686 0.0
H3001 H 0.71718 0.35935 0.01911 0.0
H3002 H 0.78121 0.35254 0.01719 0.0
C3003 C 0.00122 0.34979 0.99743 0.0
C3004 C 0.90839 0.36727 0.00266 0.0
H3005 H 0.83449 0.37289 0.02857 0.0
C3006 C 0.89119 0.36551 0.98604 0.0
C3007 C 0.88758 0.36998 0.01819 0.0
C3008 C 0.90386 0.37206 0.03646 0.0
C3009 C 0.8538 0.3667 0.98455 0.0
C3010 C 0.83329 0.36964 1.00009 0.0
C3011 C 0.85036 0.37088 0.01668 0.0
C3012 C 0.79431 0.37248 0.99952 0.0
C3013 C 0.83658 0.36464 0.96644 0.0
C3014 C 0.78073 0.38588 0.99021 0.0
C3015 C 0.74452 0.3898 0.99145 0.0
C3016 C 0.72164 0.38054 1.00224 0.0
C3017 C 0.73476 0.36677 0.01098 0.0
C3018 C 0.77108 0.36286 0.00982 0.0
H3019 H 0.85421 0.35783 0.95712 0.0
H3020 H 0.81055 0.3582 0.96754 0.0
H3021 H 0.83152 0.37676 0.96053 0.0
H3022 H 0.79834 0.39365 0.98253 0.0
H3023 H 0.73448 0.40024 0.98424 0.0
H3024 H 0.7797 0.61055 0.76493 0.0
H3025 H 0.7159 0.60324 0.76428 0.0
H3026 H 0.69503 0.64344 0.72882 0.0
H3027 H 0.7588 0.65038 0.7291 0.0
H3028 H 0.66311 0.6218 0.77629 0.0
H3029 H 0.63786 0.60805 0.70507 0.0
H3030 H 0.68248 0.60941 0.71428 0.0
H3031 H 0.65857 0.62747 0.70803 0.0
C3032 C 0.76135 0.61765 0.75689 0.0
C3033 C 0.77345 0.63128 0.74753 0.0
C3034 C 0.72512 0.61347 0.75646 0.0
C3035 C 0.70081 0.62269 0.74633 0.0
C3036 C 0.71337 0.63594 0.73639 0.0
H3037 H 0.47203 0.63388 0.7654 0.0
H3038 H 0.53719 0.63791 0.76347 0.0
C3039 C 0.74957 0.64008 0.73682 0.0
C3040 C 0.66193 0.61955 0.74767 0.0
H3041 H 0.58615 0.61302 0.72323 0.0
C3042 C 0.64628 0.62007 0.76467 0.0
C3043 C 0.64014 0.61677 0.73252 0.0
C3044 C 0.65567 0.61522 0.71397 0.0
C3045 C 0.60926 0.61869 0.76702 0.0
C3046 C 0.58723 0.61612 0.75187 0.0
C3047 C 0.60301 0.6151 0.73483 0.0
C3048 C 0.54803 0.61385 0.75327 0.0
C3049 C 0.59533 0.61947 0.78592 0.0
C3050 C 0.53253 0.59933 0.74736 0.0
C3051 C 0.49549 0.59723 0.74801 0.0
C3052 C 0.47351 0.6094 0.75511 0.0
C3053 C 0.48877 0.62413 0.76049 0.0
C3054 C 0.52582 0.6264 0.75944 0.0
H3055 H 0.60812 0.62968 0.79319 0.0
H3056 H 0.56604 0.62091 0.78686 0.0
H3057 H 0.60317 0.6082 0.793 0.0
H3058 H 0.5491 0.58965 0.74211 0.0
H3059 H 0.48396 0.58615 0.74281 0.0
H3060 H 0.97591 0.13324 0.76782 0.0
H3061 H 0.04008 0.13787 0.76342 0.0
H3062 H 0.04034 0.1028 0.72044 0.0
H3063 H 0.9773 0.09698 0.72635 0.0
H3064 H 0.09423 0.09771 0.73669 0.0
H3065 H 0.0935 0.16381 0.72964 0.0
H3066 H 0.07442 0.15916 0.75096 0.0
H3067 H 0.05241 0.15241 0.73073 0.0
C3068 C 0.99 0.12655 0.75753 0.0
C3069 C 0.97243 0.11454 0.74769 0.0
C3070 C 0.02644 0.12939 0.75474 0.0
C3071 C 0.04514 0.12101 0.74125 0.0
C3072 C 0.02679 0.10943 0.73096 0.0
H3073 H 0.26695 0.15294 0.72705 0.0
H3074 H 0.20325 0.1481 0.72162 0.0
C3075 C 0.99083 0.1061 0.7343 0.0
C3076 C 0.08428 0.12339 0.73879 0.0
H3077 H 0.14975 0.15205 0.73903 0.0
C3078 C 0.10622 0.10963 0.73727 0.0
C3079 C 0.10031 0.13892 0.73835 0.0
C3080 C 0.07876 0.15436 0.73726 0.0
C3081 C 0.14358 0.11088 0.7367 0.0
C3082 C 0.15967 0.12631 0.73849 0.0
C3083 C 0.13772 0.14014 0.73858 0.0
C3084 C 0.1989 0.12843 0.74077 0.0
C3085 C 0.16502 0.09559 0.73383 0.0
C3086 C 0.21794 0.11897 0.75323 0.0
C3087 C 0.25462 0.12132 0.75573 0.0
C3088 C 0.27219 0.13383 0.74669 0.0
C3089 C 0.25343 0.14339 0.73438 0.0
C3090 C 0.21712 0.14063 0.73131 0.0
H3091 H 0.1499 0.0868 0.72548 0.0
H3092 H 0.19106 0.09807 0.72721 0.0
H3093 H 0.17 0.08969 0.74694 0.0
H3094 H 0.20443 0.10997 0.7613 0.0
H3095 H 0.26896 0.11377 0.76518 0.0
H3096 H 0.48205 0.15931 0.01261 0.0
H3097 H 0.54685 0.15504 0.01339 0.0
H3098 H 0.53189 0.10645 0.99337 0.0
H3099 H 0.4672 0.11138 0.99103 0.0
H3100 H 0.58565 0.13477 0.0317 0.0
H3101 H 0.60529 0.12343 0.95968 0.0
H3102 H 0.56099 0.1247 0.96897 0.0
H3103 H 0.58511 0.10596 0.9697 0.0
C3104 C 0.49289 0.148 0.00768 0.0
C3105 C 0.47025 0.13605 1.00068 0.0
C3106 C 0.52975 0.14542 0.00847 0.0
C3107 C 0.54438 0.13057 0.00295 0.0
C3108 C 0.52135 0.1182 0.99707 0.0
H3109 H 0.75871 0.09632 0.02449 0.0
H3110 H 0.69418 0.10187 0.02498 0.0
C3111 C 0.48453 0.12098 0.99579 0.0
C3112 C 0.58364 0.12809 0.00381 0.0
H3113 H 0.65691 0.11883 0.97868 0.0
C3114 C 0.60122 0.13122 0.02009 0.0
C3115 C 0.60405 0.12338 0.98869 0.0
C3116 C 0.58773 0.11932 0.97079 0.0
C3117 C 0.63851 0.12973 0.02165 0.0
C3118 C 0.65862 0.1251 0.00651 0.0
C3119 C 0.64126 0.12222 0.99025 0.0
C3120 C 0.69764 0.12257 0.00728 0.0
C3121 C 0.65622 0.13331 0.03935 0.0
C3122 C 0.72066 0.13229 0.99701 0.0
C3123 C 0.75737 0.12907 0.99666 0.0
C3124 C 0.77111 0.11583 0.00614 0.0
C3125 C 0.74826 0.10636 0.01674 0.0
C3126 C 0.71166 0.10965 0.01722 0.0
H3127 H 0.63825 0.14017 0.04846 0.0
H3128 H 0.66341 0.12173 0.04598 0.0
H3129 H 0.68126 0.14035 0.03735 0.0
H3130 H 0.71013 0.14225 0.98918 0.0
H3131 H 0.77487 0.13664 0.98866 0.0
H3132 H 0.26584 0.58753 0.01969 0.0
H3133 H 0.20181 0.59183 0.02502 0.0
H3134 H 0.20313 0.63201 0.98795 0.0
H3135 H 0.2678 0.62862 0.98412 0.0
H3136 H 0.16951 0.64042 0.01601 0.0
H3137 H 0.11747 0.57978 0.99765 0.0
H3138 H 0.14405 0.57951 0.01767 0.0
H3139 H 0.16433 0.58463 0.99666 0.0
C3140 C 0.2521 0.59711 0.01254 0.0
C3141 C 0.27115 0.60759 1.00125 0.0
C3142 C 0.21554 0.59952 0.01551 0.0
C3143 C 0.19729 0.61206 0.00665 0.0
C3144 C 0.21649 0.62225 0.99497 0.0
H3145 H 0.97676 0.62064 0.98226 0.0
H3146 H 0.04062 0.61469 0.98553 0.0
C3147 C 0.25328 0.62026 0.99263 0.0
C3148 C 0.15874 0.61537 0.01006 0.0
H3149 H 0.07504 0.59891 0.00805 0.0
C3150 C 0.14881 0.63136 0.01406 0.0
C3151 C 0.13171 0.60343 0.00841 0.0
C3152 C 0.13986 0.58588 0.00476 0.0
C3153 C 0.11281 0.63606 0.01497 0.0
C3154 C 0.08569 0.62431 0.01207 0.0
C3155 C 0.09569 0.60806 0.00961 0.0
C3156 C 0.04715 0.6285 0.01007 0.0
C3157 C 0.10499 0.65367 0.01861 0.0
C3158 C 0.02927 0.63822 0.02265 0.0
C3159 C 0.99356 0.64259 0.01994 0.0
C3160 C 0.97463 0.63651 0.00521 0.0
C3161 C 0.99148 0.62592 0.99331 0.0
C3162 C 0.02774 0.62234 0.9954 0.0
H3163 H 0.12698 0.66162 0.01376 0.0
H3164 H 0.07984 0.65762 0.01228 0.0
H3165 H 0.10253 0.65547 0.03327 0.0
H3166 H 0.04286 0.64251 0.03453 0.0
H3167 H 0.98038 0.65033 0.02963 0.0
H3168 H 0.5207 0.86269 0.73397 0.0
H3169 H 0.45568 0.85837 0.7364 0.0
H3170 H 0.44388 0.90591 0.75965 0.0
H3171 H 0.50888 0.90966 0.75844 0.0
H3172 H 0.40856 0.8817 0.77818 0.0
H3173 H 0.38298 0.86728 0.70799 0.0
H3174 H 0.42523 0.87607 0.71405 0.0
H3175 H 0.38756 0.88877 0.70881 0.0
C3176 C 0.50399 0.87223 0.73939 0.0
C3177 C 0.51922 0.88684 0.74518 0.0
C3178 C 0.46704 0.86979 0.74073 0.0
C3179 C 0.4449 0.88205 0.74762 0.0
C3180 C 0.46038 0.89646 0.75387 0.0
H3181 H 0.21337 0.88802 0.73997 0.0
H3182 H 0.27783 0.89403 0.7396 0.0
C3183 C 0.49733 0.89871 0.75293 0.0
C3184 C 0.40586 0.87959 0.74946 0.0
H3185 H 0.32862 0.8749 0.72588 0.0
C3186 C 0.39104 0.88004 0.76674 0.0
C3187 C 0.38301 0.87753 0.73452 0.0
C3188 C 0.39597 0.87735 0.71542 0.0
C3189 C 0.35404 0.87842 0.76949 0.0
C3190 C 0.33138 0.87626 0.75454 0.0
C3191 C 0.34611 0.87616 0.73732 0.0
C3192 C 0.29239 0.87362 0.7563 0.0
C3193 C 0.33953 0.87944 0.7883 0.0
C3194 C 0.27936 0.86024 0.76588 0.0
C3195 C 0.24277 0.85684 0.76604 0.0
C3196 C 0.21894 0.86653 0.75628 0.0
C3197 C 0.23163 0.88025 0.74727 0.0
C3198 C 0.26825 0.88368 0.74711 0.0
H3199 H 0.35824 0.88598 0.79732 0.0
H3200 H 0.31315 0.88565 0.78859 0.0
H3201 H 0.33595 0.86701 0.79366 0.0
H3202 H 0.29754 0.85213 0.77275 0.0
H3203 H 0.23314 0.84645 0.77349 0.0
H3204 H 0.73173 0.34576 0.77479 0.0
H3205 H 0.79615 0.3514 0.77448 0.0
H3206 H 0.77777 0.39264 0.74016 0.0
H3207 H 0.71318 0.38676 0.74024 0.0
H3208 H 0.82891 0.37193 0.72745 0.0
H3209 H 0.85609 0.38649 0.79844 0.0
H3210 H 0.8327 0.36768 0.79544 0.0
H3211 H 0.81143 0.38637 0.78914 0.0
C3212 C 0.74162 0.35602 0.76722 0.0
C3213 C 0.71814 0.36559 0.7571 0.0
C3214 C 0.77821 0.35939 0.76728 0.0
C3215 C 0.79159 0.37256 0.75749 0.0
C3216 C 0.76784 0.38247 0.74787 0.0
H3217 H 0.00951 0.40678 0.76073 0.0
H3218 H 0.94468 0.40318 0.76265 0.0
C3219 C 0.73117 0.37911 0.74786 0.0
C3220 C 0.83061 0.37502 0.75595 0.0
H3221 H 0.90696 0.38117 0.78002 0.0
C3222 C 0.84599 0.37386 0.73892 0.0
C3223 C 0.85271 0.37783 0.77096 0.0
C3224 C 0.8374 0.37982 0.78952 0.0
C3225 C 0.88301 0.37491 0.73645 0.0
C3226 C 0.90536 0.37758 0.75145 0.0
C3227 C 0.88987 0.37907 0.76852 0.0
C3228 C 0.94459 0.37971 0.7497 0.0
C3229 C 0.89741 0.37315 0.71773 0.0
C3230 C 0.96615 0.36771 0.74181 0.0
C3231 C 0.00311 0.37005 0.74017 0.0
C3232 C 0.01887 0.38437 0.74646 0.0
C3233 C -0.00244 0.39602 0.75497 0.0
C3234 C 0.96068 0.39384 0.75635 0.0
H3235 H 0.87741 0.37697 0.70755 0.0
H3236 H 0.92196 0.38036 0.7159 0.0
H3237 H 0.90395 0.36023 0.71526 0.0
H3238 H 0.95444 0.35651 0.73704 0.0
H3239 H 0.0194 0.36069 0.73409 0.0
H3240 H 0.23324 0.40507 0.48188 0.0
H3241 H 0.29826 0.40073 0.48188 0.0
H3242 H 0.28422 0.3582 0.51474 0.0
H3243 H 0.21911 0.36268 0.51488 0.0
H3244 H 0.33487 0.38076 0.52758 0.0
H3245 H 0.35825 0.36562 0.45617 0.0
H3246 H 0.33307 0.38383 0.46015 0.0
H3247 H 0.31448 0.36459 0.46642 0.0
C3248 C 0.24424 0.39484 0.48912 0.0
C3249 C 0.2218 0.38444 0.49882 0.0
C3250 C 0.28115 0.39225 0.4889 0.0
C3251 C 0.29585 0.37906 0.49816 0.0
C3252 C 0.27322 0.36841 0.50747 0.0
H3253 H 0.50927 0.341 0.49291 0.0
H3254 H 0.44507 0.34656 0.49118 0.0
C3255 C 0.23627 0.37097 0.5076 0.0
C3256 C 0.33501 0.37699 0.49918 0.0
H3257 H 0.40961 0.36924 0.47434 0.0
C3258 C 0.35127 0.37835 0.51596 0.0
C3259 C 0.35613 0.37369 0.48395 0.0
C3260 C 0.33968 0.37171 0.46565 0.0
C3261 C 0.38827 0.3766 0.51805 0.0
C3262 C 0.40964 0.37317 0.50287 0.0
C3263 C 0.39327 0.37184 0.48599 0.0
C3264 C 0.44858 0.36991 0.5043 0.0
C3265 C 0.40358 0.37826 0.5366 0.0
C3266 C 0.47199 0.3812 0.51215 0.0
C3267 C 0.50847 0.37767 0.5138 0.0
C3268 C 0.52197 0.36291 0.50745 0.0
C3269 C 0.49897 0.35203 0.4988 0.0
C3270 C 0.46247 0.35537 0.4975 0.0
H3271 H 0.41177 0.39104 0.53878 0.0
H3272 H 0.38356 0.37508 0.54704 0.0
H3273 H 0.42729 0.37048 0.53834 0.0
H3274 H 0.46208 0.39272 0.51697 0.0
H3275 H 0.52615 0.38647 0.51992 0.0
H3276 H 0.0228 0.88368 0.51941 0.0
H3277 H 0.95765 0.88768 0.51721 0.0
H3278 H 0.9471 0.84087 0.49209 0.0
H3279 H 0.01221 0.83746 0.49311 0.0
H3280 H 0.9107 0.86551 0.47466 0.0
H3281 H 0.88557 0.87723 0.54552 0.0
H3282 H 0.92809 0.86907 0.53894 0.0
H3283 H 0.89104 0.85584 0.54373 0.0
C3284 C 0.00634 0.87423 0.51361 0.0
C3285 C 0.02195 0.8599 0.50726 0.0
C3286 C 0.96932 0.87649 0.5124 0.0
C3287 C 0.9475 0.86431 0.50507 0.0
C3288 C 0.96336 0.85022 0.49821 0.0
H3289 H 0.71571 0.85827 0.5136 0.0
H3290 H 0.77989 0.85163 0.51304 0.0
C3291 C 0.00038 0.84817 0.49904 0.0
C3292 C 0.90837 0.86657 0.50346 0.0
H3293 H 0.83137 0.86996 0.52751 0.0
C3294 C 0.89331 0.86665 0.48623 0.0
C3295 C 0.88568 0.86794 0.51856 0.0
C3296 C 0.89888 0.86756 0.53761 0.0
C3297 C 0.85624 0.86823 0.48368 0.0
C3298 C 0.83377 0.86974 0.4988 0.0
C3299 C 0.84872 0.86919 0.51595 0.0
C3300 C 0.79485 0.87263 0.49733 0.0
C3301 C 0.84147 0.86794 0.4649 0.0
C3302 C 0.78215 0.88653 0.48861 0.0
C3303 C 0.74577 0.8903 0.489 0.0
C3304 C 0.72181 0.88042 0.49844 0.0
C3305 C 0.73409 0.86617 0.50655 0.0
C3306 C 0.77054 0.86239 0.50617 0.0
H3307 H 0.86001 0.86169 0.45553 0.0
H3308 H 0.81501 0.8618 0.46441 0.0
H3309 H 0.83802 0.88056 0.46011 0.0
H3310 H 0.8005 0.89479 0.48205 0.0
H3311 H 0.73643 0.90112 0.48224 0.0
H3312 H 0.47198 0.13555 0.26745 0.0
H3313 H 0.53735 0.13918 0.26615 0.0
H3314 H 0.54662 0.09579 0.23431 0.0
H3315 H 0.4814 0.09218 0.23562 0.0
H3316 H 0.58812 0.11406 0.27827 0.0
H3317 H 0.60582 0.13183 0.2071 0.0
H3318 H 0.56382 0.13429 0.21882 0.0
H3319 H 0.57769 0.11457 0.21153 0.0
C3320 C 0.48815 0.12688 0.26016 0.0
C3321 C 0.47229 0.11337 0.25205 0.0
C3322 C 0.52523 0.12896 0.25937 0.0
C3323 C 0.54653 0.11782 0.25 0.0
C3324 C 0.53047 0.1046 0.2414 0.0
H3325 H 0.77855 0.10838 0.26667 0.0
H3326 H 0.71449 0.10197 0.264 0.0
C3327 C 0.49347 0.10245 0.24234 0.0
C3328 C 0.58581 0.11942 0.25023 0.0
H3329 H 0.65829 0.12783 0.22416 0.0
C3330 C 0.60355 0.11691 0.26646 0.0
C3331 C 0.60561 0.12327 0.23474 0.0
C3332 C 0.58741 0.12626 0.21703 0.0
C3333 C 0.64081 0.11805 0.26774 0.0
C3334 C 0.66089 0.12226 0.25233 0.0
C3335 C 0.64297 0.12469 0.23599 0.0
C3336 C 0.69996 0.12538 0.25305 0.0
C3337 C 0.65761 0.11472 0.28571 0.0
C3338 C 0.71333 0.14026 0.24687 0.0
C3339 C 0.74982 0.14365 0.24786 0.0
C3340 C 0.77336 0.13253 0.25574 0.0
C3341 C 0.76045 0.11738 0.26124 0.0
C3342 C 0.72399 0.11376 0.25975 0.0
H3343 H 0.6395 0.11833 0.29682 0.0
H3344 H 0.66253 0.10151 0.28694 0.0
H3345 H 0.68335 0.12105 0.28739 0.0
H3346 H 0.69549 0.14932 0.24134 0.0
H3347 H 0.75968 0.15496 0.24244 0.0
H3348 H 0.98709 0.58992 0.23529 0.0
H3349 H 0.0516 0.59506 0.23537 0.0
H3350 H 0.03298 0.64184 0.25952 0.0
H3351 H 0.96872 0.63585 0.26108 0.0
H3352 H 0.09105 0.61589 0.21997 0.0
H3353 H 0.10552 0.62549 0.29286 0.0
H3354 H 0.0621 0.62301 0.28295 0.0
H3355 H 0.08348 0.64243 0.28272 0.0
C3356 C 0.99709 0.60099 0.24124 0.0
C3357 C 0.97359 0.61201 0.24928 0.0
C3358 C 0.0338 0.6041 0.24097 0.0
C3359 C 0.0474 0.61862 0.24807 0.0
C3360 C 0.02339 0.63025 0.25474 0.0
H3361 H 0.26356 0.6537 0.23207 0.0
H3362 H 0.19904 0.64844 0.23018 0.0
C3363 C 0.98676 0.62688 0.25554 0.0
C3364 C 0.08663 0.6215 0.24809 0.0
H3365 H 0.15779 0.63018 0.27501 0.0
C3366 C 0.10558 0.61906 0.23204 0.0
C3367 C 0.10578 0.62578 0.26379 0.0
C3368 C 0.08807 0.62919 0.28153 0.0
C3369 C 0.14294 0.62065 0.2313 0.0
C3370 C 0.16175 0.62475 0.24702 0.0
C3371 C 0.14308 0.62711 0.26301 0.0
C3372 C 0.20081 0.62722 0.24717 0.0
C3373 C 0.1621 0.61768 0.21384 0.0
C3374 C 0.22285 0.6171 0.25751 0.0
C3375 C 0.25956 0.62016 0.25867 0.0
C3376 C 0.27423 0.63363 0.24993 0.0
C3377 C 0.25236 0.64349 0.23926 0.0
C3378 C 0.21578 0.64038 0.23799 0.0
H3379 H 0.14493 0.61112 0.2041 0.0
H3380 H 0.16975 0.62948 0.20784 0.0
H3381 H 0.187 0.61059 0.21604 0.0
H3382 H 0.21157 0.60695 0.26475 0.0
H3383 H 0.27633 0.61229 0.2667 0.0
H3384 H 0.76948 0.63339 0.49438 0.0
H3385 H 0.70567 0.63812 0.49947 0.0
H3386 H 0.70573 0.60134 0.54071 0.0
H3387 H 0.76845 0.59542 0.53395 0.0
H3388 H 0.65142 0.59706 0.52498 0.0
H3389 H 0.65217 0.66275 0.53408 0.0
H3390 H 0.67153 0.65911 0.51261 0.0
H3391 H 0.69339 0.6515 0.53253 0.0
C3392 C 0.75557 0.62636 0.50446 0.0
C3393 C 0.77307 0.61383 0.51349 0.0
C3394 C 0.71932 0.62927 0.50768 0.0
C3395 C 0.70077 0.62042 0.52086 0.0
C3396 C 0.71914 0.60834 0.53044 0.0
H3397 H 0.47813 0.65238 0.5309 0.0
H3398 H 0.54089 0.64725 0.53828 0.0
C3399 C 0.75491 0.60495 0.52662 0.0
C3400 C 0.66164 0.62276 0.52345 0.0
H3401 H 0.59638 0.65149 0.52262 0.0
C3402 C 0.63956 0.609 0.52441 0.0
C3403 C 0.64564 0.63829 0.52406 0.0
C3404 C 0.66711 0.65369 0.52602 0.0
C3405 C 0.60218 0.61028 0.52418 0.0
C3406 C 0.58635 0.62575 0.52228 0.0
C3407 C 0.6083 0.63955 0.52308 0.0
C3408 C 0.54748 0.62794 0.51887 0.0
C3409 C 0.58041 0.59497 0.52619 0.0
C3410 C 0.52999 0.61877 0.5056 0.0
C3411 C 0.49376 0.62129 0.50193 0.0
C3412 C 0.47522 0.63369 0.51067 0.0
C3413 C 0.49245 0.64294 0.5238 0.0
C3414 C 0.52822 0.64 0.52799 0.0
H3415 H 0.59457 0.58605 0.53479 0.0
H3416 H 0.55367 0.59738 0.53211 0.0
H3417 H 0.5769 0.58926 0.51286 0.0
H3418 H 0.54443 0.60988 0.49779 0.0
H3419 H 0.48059 0.61398 0.49186 0.0
H3420 H 0.97926 0.15127 0.53076 0.0
H3421 H 0.04224 0.14477 0.53642 0.0
H3422 H 0.04043 0.11094 0.49227 0.0
H3423 H 0.97625 0.11576 0.48857 0.0
H3424 H 0.07574 0.09839 0.51648 0.0
H3425 H 0.12585 0.16158 0.51329 0.0
H3426 H 0.10111 0.15753 0.53337 0.0
H3427 H 0.07892 0.15711 0.51211 0.0
C3428 C 0.99267 0.14253 0.52227 0.0
C3429 C 0.97372 0.13438 0.50882 0.0
C3430 C 0.02867 0.1389 0.5254 0.0
C3431 C 0.04679 0.12778 0.51439 0.0
C3432 C 0.0274 0.11965 0.50094 0.0
H3433 H 0.26618 0.12723 0.48682 0.0
H3434 H 0.20178 0.13069 0.49136 0.0
C3435 C 0.99091 0.12255 0.49859 0.0
C3436 C 0.08555 0.12411 0.51684 0.0
H3437 H 0.16888 0.14106 0.51804 0.0
C3438 C 0.09609 0.10777 0.51658 0.0
C3439 C 0.11233 0.13626 0.51794 0.0
C3440 C 0.104 0.15409 0.51909 0.0
C3441 C 0.13223 0.10326 0.51564 0.0
C3442 C 0.15891 0.11548 0.51543 0.0
C3443 C 0.14847 0.13171 0.51745 0.0
C3444 C 0.19743 0.11213 0.51185 0.0
C3445 C 0.14073 0.08547 0.51428 0.0
C3446 C 0.21658 0.10035 0.5215 0.0
C3447 C 0.25287 0.0977 0.51798 0.0
C3448 C 0.27091 0.10732 0.50542 0.0
C3449 C 0.25235 0.11943 0.49622 0.0
C3450 C 0.21572 0.1215 0.49902 0.0
H3451 H 0.11828 0.07855 0.5082 0.0
H3452 H 0.16498 0.08336 0.50623 0.0
H3453 H 0.14534 0.08057 0.52791 0.0
H3454 H 0.20373 0.09339 0.53196 0.0
H3455 H 0.26723 0.08863 0.52563 0.0
loop_
_geom_bond_atom_site_label_1
_geom_bond_atom_site_label_2
_geom_bond_distance
_geom_bond_site_symmetry_2
_ccdc_geom_bond_type
Mn0 O5 2.095 . S
Mn0 O15 2.162 . S
Mn0 O16 2.297 . S
Mn0 O24 2.385 . S
Mn0 O25 2.209 . S
Mn0 O26 2.094 . S
Mn1 O6 2.121 . S
Mn1 N8 2.257 . S
Mn1 N17 2.282 . S
Mn1 O25 2.215 . S
Mn1 O27 2.117 . S
C2 O24 1.234 . S
C2 O25 1.283 . S
C3 O15 1.281 . S
C3 O16 1.236 . S
C4 O26 1.240 . S
C4 O27 1.264 . S
O5 Mn0 2.095 . S
O5 C14 1.250 . S
O6 Mn1 2.121 . S
O6 C14 1.258 . S
C7 N8 1.326 . S
C7 C11 1.460 . S
C7 H13 0.929 . S
N8 Mn1 2.257 . S
N8 C7 1.326 . S
N8 C12 1.362 . S
C9 C10 1.258 . S
C9 C12 1.431 . S
C9 C29 1.449 . S
C10 C9 1.258 . S
C10 C11 1.477 . S
C10 H30 0.931 . S
C11 C7 1.460 . S
C11 C10 1.477 . S
C11 H31 0.930 . S
C12 N8 1.362 . S
C12 C9 1.431 . S
C12 C22 1.476 . S
H13 C7 0.929 . S
C14 O5 1.250 . S
C14 O6 1.258 . S
O15 Mn0 2.162 . S
O15 C3 1.281 . S
O16 Mn0 2.297 . S
O16 C3 1.236 . S
N17 Mn1 2.282 . S
N17 C18 1.328 . S
N17 C22 1.318 . S
C18 N17 1.328 . S
C18 C19 1.457 . S
C18 H23 0.929 . S
C19 C18 1.457 . S
C19 C20 1.291 . S
C19 H32 0.931 . S
C20 C19 1.291 . S
C20 C21 1.373 . S
C20 H33 0.929 . S
C21 C20 1.373 . S
C21 C22 1.396 . S
C21 C28 1.403 . S
C22 C12 1.476 . S
C22 N17 1.318 . S
C22 C21 1.396 . S
H23 C18 0.929 . S
O24 Mn0 2.385 . S
O24 C2 1.234 . S
O25 Mn0 2.209 . S
O25 Mn1 2.215 . S
O25 C2 1.283 . S
O26 Mn0 2.094 . S
O26 C4 1.240 . S
O27 Mn1 2.117 . S
O27 C4 1.264 . S
C28 C21 1.403 . S
C28 C29 1.399 . S
C28 H34 0.929 . S
C29 C9 1.449 . S
C29 C28 1.399 . S
C29 H35 0.930 . S
H30 C10 0.931 . S
H31 C11 0.930 . S
H32 C19 0.931 . S
H33 C20 0.929 . S
H34 C28 0.929 . S
H35 C29 0.930 . S
Mn36 O41 2.095 . S
Mn36 O51 2.162 . S
Mn36 O52 2.297 . S
Mn36 O60 2.385 . S
Mn36 O61 2.209 . S
Mn36 O62 2.094 . S
Mn37 O42 2.121 . S
Mn37 N44 2.257 . S
Mn37 N53 2.282 . S
Mn37 O61 2.215 . S
Mn37 O63 2.117 . S
C38 O60 1.234 . S
C38 O61 1.283 . S
C39 O51 1.281 . S
C39 O52 1.236 . S
C40 O62 1.240 . S
C40 O63 1.264 . S
O41 Mn36 2.095 . S
O41 C50 1.250 . S
O42 Mn37 2.121 . S
O42 C50 1.258 . S
C43 N44 1.326 . S
C43 C47 1.460 . S
C43 H49 0.929 . S
N44 Mn37 2.257 . S
N44 C43 1.326 . S
N44 C48 1.362 . S
C45 C46 1.258 . S
C45 C48 1.431 1_655 S
C45 C65 1.449 . S
C46 C45 1.258 . S
C46 C47 1.477 1_655 S
C46 H66 0.931 . S
C47 C43 1.460 . S
C47 C46 1.477 1_455 S
C47 H67 0.930 . S
C48 N44 1.362 . S
C48 C45 1.431 1_455 S
C48 C58 1.476 . S
H49 C43 0.929 . S
C50 O41 1.250 . S
C50 O42 1.258 . S
O51 Mn36 2.162 . S
O51 C39 1.281 . S
O52 Mn36 2.297 . S
O52 C39 1.236 . S
N53 Mn37 2.282 . S
N53 C54 1.328 . S
N53 C58 1.318 . S
C54 N53 1.328 . S
C54 C55 1.457 . S
C54 H59 0.929 . S
C55 C54 1.457 . S
C55 C56 1.291 1_455 S
C55 H68 0.932 . S
C56 C55 1.291 1_655 S
C56 C57 1.373 . S
C56 H69 0.929 . S
C57 C56 1.373 . S
C57 C58 1.396 1_655 S
C57 C64 1.403 . S
C58 C48 1.476 . S
C58 N53 1.318 . S
C58 C57 1.396 1_455 S
H59 C54 0.929 . S
O60 Mn36 2.385 . S
O60 C38 1.234 . S
O61 Mn36 2.209 . S
O61 Mn37 2.215 . S
O61 C38 1.283 . S
O62 Mn36 2.094 . S
O62 C40 1.240 . S
O63 Mn37 2.117 . S
O63 C40 1.264 . S
C64 C57 1.403 . S
C64 C65 1.399 . S
C64 H70 0.929 . S
C65 C45 1.449 . S
C65 C64 1.399 . S
C65 H71 0.930 . S
H66 C46 0.931 . S
H67 C47 0.930 . S
H68 C55 0.932 . S
H69 C56 0.929 . S
H70 C64 0.929 . S
H71 C65 0.930 . S
Mn72 O77 2.095 1_556 S
Mn72 O87 2.162 . S
Mn72 O88 2.297 . S
Mn72 O96 2.385 . S
Mn72 O97 2.209 1_556 S
Mn72 O98 2.094 1_556 S
Mn73 O78 2.121 . S
Mn73 N80 2.257 . S
Mn73 N89 2.282 . S
Mn73 O97 2.215 . S
Mn73 O99 2.117 . S
C74 O96 1.236 . S
C74 O97 1.280 1_556 S
C75 O87 1.281 . S
C75 O88 1.236 . S
C76 O98 1.240 . S
C76 O99 1.264 . S
O77 Mn72 2.095 1_554 S
O77 C86 1.250 . S
O78 Mn73 2.121 . S
O78 C86 1.258 . S
C79 N80 1.326 . S
C79 C83 1.460 . S
C79 H85 0.929 . S
N80 Mn73 2.257 . S
N80 C79 1.326 . S
N80 C84 1.362 . S
C81 C82 1.258 . S
C81 C84 1.431 . S
C81 C101 1.449 . S
C82 C81 1.258 . S
C82 C83 1.477 . S
C82 H102 0.931 . S
C83 C79 1.460 . S
C83 C82 1.477 . S
C83 H103 0.930 . S
C84 N80 1.362 . S
C84 C81 1.431 . S
C84 C94 1.476 . S
H85 C79 0.929 . S
C86 O77 1.250 . S
C86 O78 1.258 . S
O87 Mn72 2.162 . S
O87 C75 1.281 . S
O88 Mn72 2.297 . S
O88 C75 1.236 . S
N89 Mn73 2.282 . S
N89 C90 1.328 . S
N89 C94 1.318 . S
C90 N89 1.328 . S
C90 C91 1.457 . S
C90 H95 0.929 . S
C91 C90 1.457 . S
C91 C92 1.291 . S
C91 H104 0.931 . S
C92 C91 1.291 . S
C92 C93 1.373 . S
C92 H105 0.929 . S
C93 C92 1.373 . S
C93 C94 1.396 . S
C93 C100 1.403 . S
C94 C84 1.476 . S
C94 N89 1.318 . S
C94 C93 1.396 . S
H95 C90 0.929 . S
O96 Mn72 2.385 . S
O96 C74 1.236 . S
O97 Mn72 2.209 1_554 S
O97 Mn73 2.215 . S
O97 C74 1.280 1_554 S
O98 Mn72 2.094 1_554 S
O98 C76 1.240 . S
O99 Mn73 2.117 . S
O99 C76 1.264 . S
C100 C93 1.403 . S
C100 C101 1.399 . S
C100 H106 0.929 . S
C101 C81 1.449 . S
C101 C100 1.399 . S
C101 H107 0.930 . S
H102 C82 0.931 . S
H103 C83 0.930 . S
H104 C91 0.931 . S
H105 C92 0.929 . S
H106 C100 0.929 . S
H107 C101 0.930 . S
Mn108 O113 2.095 1_556 S
Mn108 O123 2.162 . S
Mn108 O124 2.297 . S
Mn108 O132 2.385 . S
Mn108 O133 2.209 1_556 S
Mn108 O134 2.094 1_556 S
Mn109 O114 2.121 . S
Mn109 N116 2.257 . S
Mn109 N125 2.282 . S
Mn109 O133 2.215 . S
Mn109 O135 2.117 . S
C110 O132 1.236 . S
C110 O133 1.280 1_556 S
C111 O123 1.281 . S
C111 O124 1.236 . S
C112 O134 1.240 . S
C112 O135 1.264 . S
O113 Mn108 2.095 1_554 S
O113 C122 1.250 . S
O114 Mn109 2.121 . S
O114 C122 1.258 . S
C115 N116 1.326 . S
C115 C119 1.460 . S
C115 H121 0.929 . S
N116 Mn109 2.257 . S
N116 C115 1.326 . S
N116 C120 1.362 . S
C117 C118 1.258 . S
C117 C120 1.431 1_655 S
C117 C137 1.449 . S
C118 C117 1.258 . S
C118 C119 1.477 1_655 S
C118 H138 0.931 . S
C119 C115 1.460 . S
C119 C118 1.477 1_455 S
C119 H139 0.930 . S
C120 N116 1.362 . S
C120 C117 1.431 1_455 S
C120 C130 1.476 . S
H121 C115 0.929 . S
C122 O113 1.250 . S
C122 O114 1.258 . S
O123 Mn108 2.162 . S
O123 C111 1.281 . S
O124 Mn108 2.297 . S
O124 C111 1.236 . S
N125 Mn109 2.282 . S
N125 C126 1.328 . S
N125 C130 1.318 . S
C126 N125 1.328 . S
C126 C127 1.457 . S
C126 H131 0.929 . S
C127 C126 1.457 . S
C127 C128 1.291 1_455 S
C127 H140 0.931 . S
C128 C127 1.291 1_655 S
C128 C129 1.373 . S
C128 H141 0.929 . S
C129 C128 1.373 . S
C129 C130 1.396 1_655 S
C129 C136 1.403 . S
C130 C120 1.476 . S
C130 N125 1.318 . S
C130 C129 1.396 1_455 S
H131 C126 0.929 . S
O132 Mn108 2.385 . S
O132 C110 1.236 . S
O133 Mn108 2.209 1_554 S
O133 Mn109 2.215 . S
O133 C110 1.280 1_554 S
O134 Mn108 2.094 1_554 S
O134 C112 1.240 . S
O135 Mn109 2.117 . S
O135 C112 1.264 . S
C136 C129 1.403 . S
C136 C137 1.399 . S
C136 H142 0.929 . S
C137 C117 1.449 . S
C137 C136 1.399 . S
C137 H143 0.930 . S
H138 C118 0.931 . S
H139 C119 0.930 . S
H140 C127 0.931 . S
H141 C128 0.929 . S
H142 C136 0.929 . S
H143 C137 0.930 . S
Mn144 O149 2.095 . S
Mn144 O159 2.162 . S
Mn144 O160 2.297 . S
Mn144 O168 2.385 . S
Mn144 O169 2.209 . S
Mn144 O170 2.094 . S
Mn145 O150 2.121 . S
Mn145 N152 2.257 . S
Mn145 N161 2.282 . S
Mn145 O169 2.215 . S
Mn145 O171 2.117 . S
C146 O168 1.234 . S
C146 O169 1.283 . S
C147 O159 1.281 . S
C147 O160 1.236 . S
C148 O170 1.240 . S
C148 O171 1.264 . S
O149 Mn144 2.095 . S
O149 C158 1.250 . S
O150 Mn145 2.121 . S
O150 C158 1.258 . S
C151 N152 1.326 . S
C151 C155 1.460 . S
C151 H157 0.929 . S
N152 Mn145 2.257 . S
N152 C151 1.326 . S
N152 C156 1.362 . S
C153 C154 1.258 . S
C153 C156 1.431 . S
C153 C173 1.449 . S
C154 C153 1.258 . S
C154 C155 1.477 . S
C154 H174 0.931 . S
C155 C151 1.460 . S
C155 C154 1.477 . S
C155 H175 0.930 . S
C156 N152 1.362 . S
C156 C153 1.431 . S
C156 C166 1.476 . S
H157 C151 0.929 . S
C158 O149 1.250 . S
C158 O150 1.258 . S
O159 Mn144 2.162 . S
O159 C147 1.281 . S
O160 Mn144 2.297 . S
O160 C147 1.236 . S
N161 Mn145 2.282 . S
N161 C162 1.328 . S
N161 C166 1.318 . S
C162 N161 1.328 . S
C162 C163 1.457 . S
C162 H167 0.929 . S
C163 C162 1.457 . S
C163 C164 1.291 . S
C163 H176 0.931 . S
C164 C163 1.291 . S
C164 C165 1.373 . S
C164 H177 0.929 . S
C165 C164 1.373 . S
C165 C166 1.396 . S
C165 C172 1.403 . S
C166 C156 1.476 . S
C166 N161 1.318 . S
C166 C165 1.396 . S
H167 C162 0.929 . S
O168 Mn144 2.385 . S
O168 C146 1.234 . S
O169 Mn144 2.209 . S
O169 Mn145 2.215 . S
O169 C146 1.283 . S
O170 Mn144 2.094 . S
O170 C148 1.240 . S
O171 Mn145 2.117 . S
O171 C148 1.264 . S
C172 C165 1.403 . S
C172 C173 1.399 . S
C172 H178 0.929 . S
C173 C153 1.449 . S
C173 C172 1.399 . S
C173 H179 0.930 . S
H174 C154 0.931 . S
H175 C155 0.930 . S
H176 C163 0.931 . S
H177 C164 0.929 . S
H178 C172 0.929 . S
H179 C173 0.930 . S
Mn180 O185 2.095 . S
Mn180 O195 2.162 . S
Mn180 O196 2.297 . S
Mn180 O204 2.385 . S
Mn180 O205 2.209 . S
Mn180 O206 2.094 . S
Mn181 O186 2.121 . S
Mn181 N188 2.257 . S
Mn181 N197 2.282 . S
Mn181 O205 2.215 . S
Mn181 O207 2.117 . S
C182 O204 1.234 . S
C182 O205 1.283 . S
C183 O195 1.281 . S
C183 O196 1.236 . S
C184 O206 1.240 . S
C184 O207 1.264 . S
O185 Mn180 2.095 . S
O185 C194 1.250 . S
O186 Mn181 2.121 . S
O186 C194 1.258 . S
C187 N188 1.326 . S
C187 C191 1.460 . S
C187 H193 0.929 . S
N188 Mn181 2.257 . S
N188 C187 1.326 . S
N188 C192 1.362 . S
C189 C190 1.258 . S
C189 C192 1.431 1_455 S
C189 C209 1.449 . S
C190 C189 1.258 . S
C190 C191 1.477 1_455 S
C190 H210 0.931 . S
C191 C187 1.460 . S
C191 C190 1.477 1_655 S
C191 H211 0.930 . S
C192 N188 1.362 . S
C192 C189 1.431 1_655 S
C192 C202 1.476 . S
H193 C187 0.929 . S
C194 O185 1.250 . S
C194 O186 1.258 . S
O195 Mn180 2.162 . S
O195 C183 1.281 . S
O196 Mn180 2.297 . S
O196 C183 1.236 . S
N197 Mn181 2.282 . S
N197 C198 1.328 . S
N197 C202 1.318 . S
C198 N197 1.328 . S
C198 C199 1.457 . S
C198 H203 0.929 . S
C199 C198 1.457 . S
C199 C200 1.291 1_655 S
C199 H212 0.932 . S
C200 C199 1.291 1_455 S
C200 C201 1.373 . S
C200 H213 0.929 . S
C201 C200 1.373 . S
C201 C202 1.396 1_455 S
C201 C208 1.403 . S
C202 C192 1.476 . S
C202 N197 1.318 . S
C202 C201 1.396 1_655 S
H203 C198 0.929 . S
O204 Mn180 2.385 . S
O204 C182 1.234 . S
O205 Mn180 2.209 . S
O205 Mn181 2.215 . S
O205 C182 1.283 . S
O206 Mn180 2.094 . S
O206 C184 1.240 . S
O207 Mn181 2.117 . S
O207 C184 1.264 . S
C208 C201 1.403 . S
C208 C209 1.399 . S
C208 H214 0.929 . S
C209 C189 1.449 . S
C209 C208 1.399 . S
C209 H215 0.930 . S
H210 C190 0.931 . S
H211 C191 0.930 . S
H212 C199 0.932 . S
H213 C200 0.929 . S
H214 C208 0.929 . S
H215 C209 0.930 . S
Mn216 O221 2.095 1_554 S
Mn216 O231 2.162 . S
Mn216 O232 2.297 . S
Mn216 O240 2.385 . S
Mn216 O241 2.209 1_554 S
Mn216 O242 2.094 1_554 S
Mn217 O222 2.121 . S
Mn217 N224 2.257 . S
Mn217 N233 2.282 . S
Mn217 O241 2.215 . S
Mn217 O243 2.117 . S
C218 O240 1.236 . S
C218 O241 1.280 1_554 S
C219 O231 1.281 . S
C219 O232 1.236 . S
C220 O242 1.240 . S
C220 O243 1.264 . S
O221 Mn216 2.095 1_556 S
O221 C230 1.250 . S
O222 Mn217 2.121 . S
O222 C230 1.258 . S
C223 N224 1.326 . S
C223 C227 1.460 . S
C223 H229 0.929 . S
N224 Mn217 2.257 . S
N224 C223 1.326 . S
N224 C228 1.362 . S
C225 C226 1.258 . S
C225 C228 1.431 . S
C225 C245 1.449 . S
C226 C225 1.258 . S
C226 C227 1.477 . S
C226 H246 0.931 . S
C227 C223 1.460 . S
C227 C226 1.477 . S
C227 H247 0.930 . S
C228 N224 1.362 . S
C228 C225 1.431 . S
C228 C238 1.476 . S
H229 C223 0.929 . S
C230 O221 1.250 . S
C230 O222 1.258 . S
O231 Mn216 2.162 . S
O231 C219 1.281 . S
O232 Mn216 2.297 . S
O232 C219 1.236 . S
N233 Mn217 2.282 . S
N233 C234 1.328 . S
N233 C238 1.318 . S
C234 N233 1.328 . S
C234 C235 1.457 . S
C234 H239 0.929 . S
C235 C234 1.457 . S
C235 C236 1.291 . S
C235 H248 0.931 . S
C236 C235 1.291 . S
C236 C237 1.373 . S
C236 H249 0.929 . S
C237 C236 1.373 . S
C237 C238 1.396 . S
C237 C244 1.403 . S
C238 C228 1.476 . S
C238 N233 1.318 . S
C238 C237 1.396 . S
H239 C234 0.929 . S
O240 Mn216 2.385 . S
O240 C218 1.236 . S
O241 Mn216 2.209 1_556 S
O241 Mn217 2.215 . S
O241 C218 1.280 1_556 S
O242 Mn216 2.094 1_556 S
O242 C220 1.240 . S
O243 Mn217 2.117 . S
O243 C220 1.264 . S
C244 C237 1.403 . S
C244 C245 1.399 . S
C244 H250 0.929 . S
C245 C225 1.449 . S
C245 C244 1.399 . S
C245 H251 0.930 . S
H246 C226 0.931 . S
H247 C227 0.930 . S
H248 C235 0.931 . S
H249 C236 0.929 . S
H250 C244 0.929 . S
H251 C245 0.930 . S
Mn252 O257 2.095 1_554 S
Mn252 O267 2.162 . S
Mn252 O268 2.297 . S
Mn252 O276 2.385 . S
Mn252 O277 2.209 1_554 S
Mn252 O278 2.094 1_554 S
Mn253 O258 2.121 . S
Mn253 N260 2.257 . S
Mn253 N269 2.282 . S
Mn253 O277 2.215 . S
Mn253 O279 2.117 . S
C254 O276 1.236 . S
C254 O277 1.280 1_554 S
C255 O267 1.281 . S
C255 O268 1.236 . S
C256 O278 1.240 . S
C256 O279 1.264 . S
O257 Mn252 2.095 1_556 S
O257 C266 1.250 . S
O258 Mn253 2.121 . S
O258 C266 1.258 . S
C259 N260 1.326 . S
C259 C263 1.460 . S
C259 H265 0.929 . S
N260 Mn253 2.257 . S
N260 C259 1.326 . S
N260 C264 1.362 . S
C261 C262 1.258 . S
C261 C264 1.431 1_455 S
C261 C281 1.449 . S
C262 C261 1.258 . S
C262 C263 1.477 1_455 S
C262 H282 0.931 . S
C263 C259 1.460 . S
C263 C262 1.477 1_655 S
C263 H283 0.930 . S
C264 N260 1.362 . S
C264 C261 1.431 1_655 S
C264 C274 1.476 . S
H265 C259 0.929 . S
C266 O257 1.250 . S
C266 O258 1.258 . S
O267 Mn252 2.162 . S
O267 C255 1.281 . S
O268 Mn252 2.297 . S
O268 C255 1.236 . S
N269 Mn253 2.282 . S
N269 C270 1.328 . S
N269 C274 1.318 . S
C270 N269 1.328 . S
C270 C271 1.457 . S
C270 H275 0.929 . S
C271 C270 1.457 . S
C271 C272 1.291 1_655 S
C271 H284 0.931 . S
C272 C271 1.291 1_455 S
C272 C273 1.373 . S
C272 H285 0.929 . S
C273 C272 1.373 . S
C273 C274 1.396 1_455 S
C273 C280 1.403 . S
C274 C264 1.476 . S
C274 N269 1.318 . S
C274 C273 1.396 1_655 S
H275 C270 0.929 . S
O276 Mn252 2.385 . S
O276 C254 1.236 . S
O277 Mn252 2.209 1_556 S
O277 Mn253 2.215 . S
O277 C254 1.280 1_556 S
O278 Mn252 2.094 1_556 S
O278 C256 1.240 . S
O279 Mn253 2.117 . S
O279 C256 1.264 . S
C280 C273 1.403 . S
C280 C281 1.399 . S
C280 H286 0.929 . S
C281 C261 1.449 . S
C281 C280 1.399 . S
C281 H287 0.930 . S
H282 C262 0.931 . S
H283 C263 0.930 . S
H284 C271 0.931 . S
H285 C272 0.929 . S
H286 C280 0.929 . S
H287 C281 0.930 . S
Mn288 O293 2.095 . S
Mn288 O303 2.162 . S
Mn288 O304 2.297 . S
Mn288 O312 2.385 . S
Mn288 O313 2.209 . S
Mn288 O314 2.094 . S
Mn289 O294 2.121 . S
Mn289 N296 2.257 . S
Mn289 N305 2.282 . S
Mn289 O313 2.215 . S
Mn289 O315 2.117 . S
C290 O312 1.234 . S
C290 O313 1.283 . S
C291 O303 1.281 . S
C291 O304 1.236 . S
C292 O314 1.240 . S
C292 O315 1.264 . S
O293 Mn288 2.095 . S
O293 C302 1.250 . S
O294 Mn289 2.121 . S
O294 C302 1.258 . S
C295 N296 1.326 . S
C295 C299 1.460 . S
C295 H301 0.929 . S
N296 Mn289 2.257 . S
N296 C295 1.326 . S
N296 C300 1.362 . S
C297 C298 1.258 . S
C297 C300 1.431 . S
C297 C317 1.449 . S
C298 C297 1.258 . S
C298 C299 1.477 . S
C298 H318 0.931 . S
C299 C295 1.460 . S
C299 C298 1.477 . S
C299 H319 0.930 . S
C300 N296 1.362 . S
C300 C297 1.431 . S
C300 C310 1.476 . S
H301 C295 0.929 . S
C302 O293 1.250 . S
C302 O294 1.258 . S
O303 Mn288 2.162 . S
O303 C291 1.281 . S
O304 Mn288 2.297 . S
O304 C291 1.236 . S
N305 Mn289 2.282 . S
N305 C306 1.328 . S
N305 C310 1.318 . S
C306 N305 1.328 . S
C306 C307 1.457 . S
C306 H311 0.929 . S
C307 C306 1.457 . S
C307 C308 1.291 . S
C307 H320 0.931 . S
C308 C307 1.291 . S
C308 C309 1.373 . S
C308 H321 0.929 . S
C309 C308 1.373 . S
C309 C310 1.396 . S
C309 C316 1.403 . S
C310 C300 1.476 . S
C310 N305 1.318 . S
C310 C309 1.396 . S
H311 C306 0.929 . S
O312 Mn288 2.385 . S
O312 C290 1.234 . S
O313 Mn288 2.209 . S
O313 Mn289 2.215 . S
O313 C290 1.283 . S
O314 Mn288 2.094 . S
O314 C292 1.240 . S
O315 Mn289 2.117 . S
O315 C292 1.264 . S
C316 C309 1.403 . S
C316 C317 1.399 . S
C316 H322 0.929 . S
C317 C297 1.449 . S
C317 C316 1.399 . S
C317 H323 0.930 . S
H318 C298 0.931 . S
H319 C299 0.930 . S
H320 C307 0.931 . S
H321 C308 0.929 . S
H322 C316 0.929 . S
H323 C317 0.930 . S
Mn324 O329 2.095 . S
Mn324 O339 2.162 . S
Mn324 O340 2.297 . S
Mn324 O348 2.385 . S
Mn324 O349 2.209 . S
Mn324 O350 2.094 . S
Mn325 O330 2.121 . S
Mn325 N332 2.257 . S
Mn325 N341 2.282 . S
Mn325 O349 2.215 . S
Mn325 O351 2.117 . S
C326 O348 1.234 . S
C326 O349 1.283 . S
C327 O339 1.281 . S
C327 O340 1.236 . S
C328 O350 1.240 . S
C328 O351 1.264 . S
O329 Mn324 2.095 . S
O329 C338 1.250 . S
O330 Mn325 2.121 . S
O330 C338 1.258 . S
C331 N332 1.326 . S
C331 C335 1.460 . S
C331 H337 0.929 . S
N332 Mn325 2.257 . S
N332 C331 1.326 . S
N332 C336 1.362 . S
C333 C334 1.258 . S
C333 C336 1.431 1_655 S
C333 C353 1.449 . S
C334 C333 1.258 . S
C334 C335 1.477 1_655 S
C334 H354 0.931 . S
C335 C331 1.460 . S
C335 C334 1.477 1_455 S
C335 H355 0.930 . S
C336 N332 1.362 . S
C336 C333 1.431 1_455 S
C336 C346 1.476 . S
H337 C331 0.929 . S
C338 O329 1.250 . S
C338 O330 1.258 . S
O339 Mn324 2.162 . S
O339 C327 1.281 . S
O340 Mn324 2.297 . S
O340 C327 1.236 . S
N341 Mn325 2.282 . S
N341 C342 1.328 . S
N341 C346 1.318 . S
C342 N341 1.328 . S
C342 C343 1.457 . S
C342 H347 0.929 . S
C343 C342 1.457 . S
C343 C344 1.291 1_455 S
C343 H356 0.932 . S
C344 C343 1.291 1_655 S
C344 C345 1.373 . S
C344 H357 0.929 . S
C345 C344 1.373 . S
C345 C346 1.396 1_655 S
C345 C352 1.403 . S
C346 C336 1.476 . S
C346 N341 1.318 . S
C346 C345 1.396 1_455 S
H347 C342 0.929 . S
O348 Mn324 2.385 . S
O348 C326 1.234 . S
O349 Mn324 2.209 . S
O349 Mn325 2.215 . S
O349 C326 1.283 . S
O350 Mn324 2.094 . S
O350 C328 1.240 . S
O351 Mn325 2.117 . S
O351 C328 1.264 . S
C352 C345 1.403 . S
C352 C353 1.399 . S
C352 H358 0.929 . S
C353 C333 1.449 . S
C353 C352 1.399 . S
C353 H359 0.930 . S
H354 C334 0.931 . S
H355 C335 0.930 . S
H356 C343 0.932 . S
H357 C344 0.929 . S
H358 C352 0.929 . S
H359 C353 0.930 . S
Mn360 O365 2.095 . S
Mn360 O375 2.162 . S
Mn360 O376 2.297 . S
Mn360 O384 2.385 . S
Mn360 O385 2.209 . S
Mn360 O386 2.094 . S
Mn361 O366 2.121 . S
Mn361 N368 2.257 . S
Mn361 N377 2.282 . S
Mn361 O385 2.215 . S
Mn361 O387 2.117 . S
C362 O384 1.234 . S
C362 O385 1.283 . S
C363 O375 1.281 . S
C363 O376 1.236 . S
C364 O386 1.240 . S
C364 O387 1.264 . S
O365 Mn360 2.095 . S
O365 C374 1.250 . S
O366 Mn361 2.121 . S
O366 C374 1.258 . S
C367 N368 1.326 . S
C367 C371 1.460 . S
C367 H373 0.929 . S
N368 Mn361 2.257 . S
N368 C367 1.326 . S
N368 C372 1.362 . S
C369 C370 1.258 . S
C369 C372 1.431 . S
C369 C389 1.449 . S
C370 C369 1.258 . S
C370 C371 1.477 . S
C370 H390 0.931 . S
C371 C367 1.460 . S
C371 C370 1.477 . S
C371 H391 0.930 . S
C372 N368 1.362 . S
C372 C369 1.431 . S
C372 C382 1.476 . S
H373 C367 0.929 . S
C374 O365 1.250 . S
C374 O366 1.258 . S
O375 Mn360 2.162 . S
O375 C363 1.281 . S
O376 Mn360 2.297 . S
O376 C363 1.236 . S
N377 Mn361 2.282 . S
N377 C378 1.328 . S
N377 C382 1.318 . S
C378 N377 1.328 . S
C378 C379 1.457 . S
C378 H383 0.929 . S
C379 C378 1.457 . S
C379 C380 1.291 . S
C379 H392 0.931 . S
C380 C379 1.291 . S
C380 C381 1.373 . S
C380 H393 0.929 . S
C381 C380 1.373 . S
C381 C382 1.396 . S
C381 C388 1.403 . S
C382 C372 1.476 . S
C382 N377 1.318 . S
C382 C381 1.396 . S
H383 C378 0.929 . S
O384 Mn360 2.385 . S
O384 C362 1.234 . S
O385 Mn360 2.209 . S
O385 Mn361 2.215 . S
O385 C362 1.283 . S
O386 Mn360 2.094 . S
O386 C364 1.240 . S
O387 Mn361 2.117 . S
O387 C364 1.264 . S
C388 C381 1.403 . S
C388 C389 1.399 . S
C388 H394 0.929 . S
C389 C369 1.449 . S
C389 C388 1.399 . S
C389 H395 0.930 . S
H390 C370 0.931 . S
H391 C371 0.930 . S
H392 C379 0.931 . S
H393 C380 0.929 . S
H394 C388 0.929 . S
H395 C389 0.930 . S
Mn396 O401 2.095 . S
Mn396 O411 2.162 . S
Mn396 O412 2.297 . S
Mn396 O420 2.385 . S
Mn396 O421 2.209 . S
Mn396 O422 2.094 . S
Mn397 O402 2.121 . S
Mn397 N404 2.257 . S
Mn397 N413 2.282 . S
Mn397 O421 2.215 . S
Mn397 O423 2.117 . S
C398 O420 1.234 . S
C398 O421 1.283 . S
C399 O411 1.281 . S
C399 O412 1.236 . S
C400 O422 1.240 . S
C400 O423 1.264 . S
O401 Mn396 2.095 . S
O401 C410 1.250 . S
O402 Mn397 2.121 . S
O402 C410 1.258 . S
C403 N404 1.326 . S
C403 C407 1.460 . S
C403 H409 0.929 . S
N404 Mn397 2.257 . S
N404 C403 1.326 . S
N404 C408 1.362 . S
C405 C406 1.258 . S
C405 C408 1.431 1_655 S
C405 C425 1.449 . S
C406 C405 1.258 . S
C406 C407 1.477 1_655 S
C406 H426 0.931 . S
C407 C403 1.460 . S
C407 C406 1.477 1_455 S
C407 H427 0.930 . S
C408 N404 1.362 . S
C408 C405 1.431 1_455 S
C408 C418 1.476 . S
H409 C403 0.929 . S
C410 O401 1.250 . S
C410 O402 1.258 . S
O411 Mn396 2.162 . S
O411 C399 1.281 . S
O412 Mn396 2.297 . S
O412 C399 1.236 . S
N413 Mn397 2.282 . S
N413 C414 1.328 . S
N413 C418 1.318 . S
C414 N413 1.328 . S
C414 C415 1.457 . S
C414 H419 0.929 . S
C415 C414 1.457 . S
C415 C416 1.291 1_455 S
C415 H428 0.931 . S
C416 C415 1.291 1_655 S
C416 C417 1.373 . S
C416 H429 0.929 . S
C417 C416 1.373 . S
C417 C418 1.396 1_655 S
C417 C424 1.403 . S
C418 C408 1.476 . S
C418 N413 1.318 . S
C418 C417 1.396 1_455 S
H419 C414 0.929 . S
O420 Mn396 2.385 . S
O420 C398 1.234 . S
O421 Mn396 2.209 . S
O421 Mn397 2.215 . S
O421 C398 1.283 . S
O422 Mn396 2.094 . S
O422 C400 1.240 . S
O423 Mn397 2.117 . S
O423 C400 1.264 . S
C424 C417 1.403 . S
C424 C425 1.399 . S
C424 H430 0.929 . S
C425 C405 1.449 . S
C425 C424 1.399 . S
C425 H431 0.930 . S
H426 C406 0.931 . S
H427 C407 0.930 . S
H428 C415 0.931 . S
H429 C416 0.929 . S
H430 C424 0.929 . S
H431 C425 0.930 . S
Mn432 O437 2.095 . S
Mn432 O447 2.162 . S
Mn432 O448 2.297 . S
Mn432 O456 2.385 . S
Mn432 O457 2.209 . S
Mn432 O458 2.094 . S
Mn433 O438 2.121 . S
Mn433 N440 2.257 . S
Mn433 N449 2.282 . S
Mn433 O457 2.215 . S
Mn433 O459 2.117 . S
C434 O456 1.234 . S
C434 O457 1.283 . S
C435 O447 1.281 . S
C435 O448 1.236 . S
C436 O458 1.240 . S
C436 O459 1.264 . S
O437 Mn432 2.095 . S
O437 C446 1.250 . S
O438 Mn433 2.121 . S
O438 C446 1.258 . S
C439 N440 1.326 . S
C439 C443 1.460 . S
C439 H445 0.929 . S
N440 Mn433 2.257 . S
N440 C439 1.326 . S
N440 C444 1.362 . S
C441 C442 1.258 . S
C441 C444 1.431 . S
C441 C461 1.449 . S
C442 C441 1.258 . S
C442 C443 1.477 . S
C442 H462 0.931 . S
C443 C439 1.460 . S
C443 C442 1.477 . S
C443 H463 0.930 . S
C444 N440 1.362 . S
C444 C441 1.431 . S
C444 C454 1.476 . S
H445 C439 0.929 . S
C446 O437 1.250 . S
C446 O438 1.258 . S
O447 Mn432 2.162 . S
O447 C435 1.281 . S
O448 Mn432 2.297 . S
O448 C435 1.236 . S
N449 Mn433 2.282 . S
N449 C450 1.328 . S
N449 C454 1.318 . S
C450 N449 1.328 . S
C450 C451 1.457 . S
C450 H455 0.929 . S
C451 C450 1.457 . S
C451 C452 1.291 . S
C451 H464 0.931 . S
C452 C451 1.291 . S
C452 C453 1.373 . S
C452 H465 0.929 . S
C453 C452 1.373 . S
C453 C454 1.396 . S
C453 C460 1.403 . S
C454 C444 1.476 . S
C454 N449 1.318 . S
C454 C453 1.396 . S
H455 C450 0.929 . S
O456 Mn432 2.385 . S
O456 C434 1.234 . S
O457 Mn432 2.209 . S
O457 Mn433 2.215 . S
O457 C434 1.283 . S
O458 Mn432 2.094 . S
O458 C436 1.240 . S
O459 Mn433 2.117 . S
O459 C436 1.264 . S
C460 C453 1.403 . S
C460 C461 1.399 . S
C460 H466 0.929 . S
C461 C441 1.449 . S
C461 C460 1.399 . S
C461 H467 0.930 . S
H462 C442 0.931 . S
H463 C443 0.930 . S
H464 C451 0.931 . S
H465 C452 0.929 . S
H466 C460 0.929 . S
H467 C461 0.930 . S
Mn468 O473 2.095 . S
Mn468 O483 2.162 . S
Mn468 O484 2.297 . S
Mn468 O492 2.385 . S
Mn468 O493 2.209 . S
Mn468 O494 2.094 . S
Mn469 O474 2.121 . S
Mn469 N476 2.257 . S
Mn469 N485 2.282 . S
Mn469 O493 2.215 . S
Mn469 O495 2.117 . S
C470 O492 1.234 . S
C470 O493 1.283 . S
C471 O483 1.281 . S
C471 O484 1.236 . S
C472 O494 1.240 . S
C472 O495 1.264 . S
O473 Mn468 2.095 . S
O473 C482 1.250 . S
O474 Mn469 2.121 . S
O474 C482 1.258 . S
C475 N476 1.326 . S
C475 C479 1.460 . S
C475 H481 0.929 . S
N476 Mn469 2.257 . S
N476 C475 1.326 . S
N476 C480 1.362 . S
C477 C478 1.258 . S
C477 C480 1.431 1_455 S
C477 C497 1.449 . S
C478 C477 1.258 . S
C478 C479 1.477 1_455 S
C478 H498 0.931 . S
C479 C475 1.460 . S
C479 C478 1.477 1_655 S
C479 H499 0.930 . S
C480 N476 1.362 . S
C480 C477 1.431 1_655 S
C480 C490 1.476 . S
H481 C475 0.929 . S
C482 O473 1.250 . S
C482 O474 1.258 . S
O483 Mn468 2.162 . S
O483 C471 1.281 . S
O484 Mn468 2.297 . S
O484 C471 1.236 . S
N485 Mn469 2.282 . S
N485 C486 1.328 . S
N485 C490 1.318 . S
C486 N485 1.328 . S
C486 C487 1.457 . S
C486 H491 0.929 . S
C487 C486 1.457 . S
C487 C488 1.291 1_655 S
C487 H500 0.932 . S
C488 C487 1.291 1_455 S
C488 C489 1.373 . S
C488 H501 0.929 . S
C489 C488 1.373 . S
C489 C490 1.396 1_455 S
C489 C496 1.403 . S
C490 C480 1.476 . S
C490 N485 1.318 . S
C490 C489 1.396 1_655 S
H491 C486 0.929 . S
O492 Mn468 2.385 . S
O492 C470 1.234 . S
O493 Mn468 2.209 . S
O493 Mn469 2.215 . S
O493 C470 1.283 . S
O494 Mn468 2.094 . S
O494 C472 1.240 . S
O495 Mn469 2.117 . S
O495 C472 1.264 . S
C496 C489 1.403 . S
C496 C497 1.399 . S
C496 H502 0.929 . S
C497 C477 1.449 . S
C497 C496 1.399 . S
C497 H503 0.930 . S
H498 C478 0.931 . S
H499 C479 0.930 . S
H500 C487 0.932 . S
H501 C488 0.929 . S
H502 C496 0.929 . S
H503 C497 0.930 . S
Mn504 O509 2.095 . S
Mn504 O519 2.162 . S
Mn504 O520 2.297 . S
Mn504 O528 2.385 . S
Mn504 O529 2.209 . S
Mn504 O530 2.094 . S
Mn505 O510 2.121 . S
Mn505 N512 2.257 . S
Mn505 N521 2.282 . S
Mn505 O529 2.215 . S
Mn505 O531 2.117 . S
C506 O528 1.234 . S
C506 O529 1.283 . S
C507 O519 1.281 . S
C507 O520 1.236 . S
C508 O530 1.240 . S
C508 O531 1.264 . S
O509 Mn504 2.095 . S
O509 C518 1.250 . S
O510 Mn505 2.121 . S
O510 C518 1.258 . S
C511 N512 1.326 . S
C511 C515 1.460 . S
C511 H517 0.929 . S
N512 Mn505 2.257 . S
N512 C511 1.326 . S
N512 C516 1.362 . S
C513 C514 1.258 . S
C513 C516 1.431 . S
C513 C533 1.449 . S
C514 C513 1.258 . S
C514 C515 1.477 . S
C514 H534 0.931 . S
C515 C511 1.460 . S
C515 C514 1.477 . S
C515 H535 0.930 . S
C516 N512 1.362 . S
C516 C513 1.431 . S
C516 C526 1.476 . S
H517 C511 0.929 . S
C518 O509 1.250 . S
C518 O510 1.258 . S
O519 Mn504 2.162 . S
O519 C507 1.281 . S
O520 Mn504 2.297 . S
O520 C507 1.236 . S
N521 Mn505 2.282 . S
N521 C522 1.328 . S
N521 C526 1.318 . S
C522 N521 1.328 . S
C522 C523 1.457 . S
C522 H527 0.929 . S
C523 C522 1.457 . S
C523 C524 1.291 . S
C523 H536 0.931 . S
C524 C523 1.291 . S
C524 C525 1.373 . S
C524 H537 0.929 . S
C525 C524 1.373 . S
C525 C526 1.396 . S
C525 C532 1.403 . S
C526 C516 1.476 . S
C526 N521 1.318 . S
C526 C525 1.396 . S
H527 C522 0.929 . S
O528 Mn504 2.385 . S
O528 C506 1.234 . S
O529 Mn504 2.209 . S
O529 Mn505 2.215 . S
O529 C506 1.283 . S
O530 Mn504 2.094 . S
O530 C508 1.240 . S
O531 Mn505 2.117 . S
O531 C508 1.264 . S
C532 C525 1.403 . S
C532 C533 1.399 . S
C532 H538 0.929 . S
C533 C513 1.449 . S
C533 C532 1.399 . S
C533 H539 0.930 . S
H534 C514 0.931 . S
H535 C515 0.930 . S
H536 C523 0.931 . S
H537 C524 0.929 . S
H538 C532 0.929 . S
H539 C533 0.930 . S
Mn540 O545 2.095 . S
Mn540 O555 2.162 . S
Mn540 O556 2.297 . S
Mn540 O564 2.385 . S
Mn540 O565 2.209 . S
Mn540 O566 2.094 . S
Mn541 O546 2.121 . S
Mn541 N548 2.257 . S
Mn541 N557 2.282 . S
Mn541 O565 2.215 . S
Mn541 O567 2.117 . S
C542 O564 1.234 . S
C542 O565 1.283 . S
C543 O555 1.281 . S
C543 O556 1.236 . S
C544 O566 1.240 . S
C544 O567 1.264 . S
O545 Mn540 2.095 . S
O545 C554 1.250 . S
O546 Mn541 2.121 . S
O546 C554 1.258 . S
C547 N548 1.326 . S
C547 C551 1.460 . S
C547 H553 0.929 . S
N548 Mn541 2.257 . S
N548 C547 1.326 . S
N548 C552 1.362 . S
C549 C550 1.258 . S
C549 C552 1.431 1_455 S
C549 C569 1.449 . S
C550 C549 1.258 . S
C550 C551 1.477 1_455 S
C550 H570 0.931 . S
C551 C547 1.460 . S
C551 C550 1.477 1_655 S
C551 H571 0.930 . S
C552 N548 1.362 . S
C552 C549 1.431 1_655 S
C552 C562 1.476 . S
H553 C547 0.929 . S
C554 O545 1.250 . S
C554 O546 1.258 . S
O555 Mn540 2.162 . S
O555 C543 1.281 . S
O556 Mn540 2.297 . S
O556 C543 1.236 . S
N557 Mn541 2.282 . S
N557 C558 1.328 . S
N557 C562 1.318 . S
C558 N557 1.328 . S
C558 C559 1.457 . S
C558 H563 0.929 . S
C559 C558 1.457 . S
C559 C560 1.291 1_655 S
C559 H572 0.931 . S
C560 C559 1.291 1_455 S
C560 C561 1.373 . S
C560 H573 0.929 . S
C561 C560 1.373 . S
C561 C562 1.396 1_455 S
C561 C568 1.403 . S
C562 C552 1.476 . S
C562 N557 1.318 . S
C562 C561 1.396 1_655 S
H563 C558 0.929 . S
O564 Mn540 2.385 . S
O564 C542 1.234 . S
O565 Mn540 2.209 . S
O565 Mn541 2.215 . S
O565 C542 1.283 . S
O566 Mn540 2.094 . S
O566 C544 1.240 . S
O567 Mn541 2.117 . S
O567 C544 1.264 . S
C568 C561 1.403 . S
C568 C569 1.399 . S
C568 H574 0.929 . S
C569 C549 1.449 . S
C569 C568 1.399 . S
C569 H575 0.930 . S
H570 C550 0.931 . S
H571 C551 0.930 . S
H572 C559 0.931 . S
H573 C560 0.929 . S
H574 C568 0.929 . S
H575 C569 0.930 . S
Mn576 O581 2.095 . S
Mn576 O591 2.162 . S
Mn576 O592 2.297 . S
Mn576 O600 2.385 . S
Mn576 O601 2.209 . S
Mn576 O602 2.094 . S
Mn577 O582 2.121 . S
Mn577 N584 2.257 . S
Mn577 N593 2.282 . S
Mn577 O601 2.215 . S
Mn577 O603 2.117 . S
C578 O600 1.234 . S
C578 O601 1.283 . S
C579 O591 1.281 . S
C579 O592 1.236 . S
C580 O602 1.240 . S
C580 O603 1.264 . S
O581 Mn576 2.095 . S
O581 C590 1.250 . S
O582 Mn577 2.121 . S
O582 C590 1.258 . S
C583 N584 1.326 . S
C583 C587 1.460 . S
C583 H589 0.929 . S
N584 Mn577 2.257 . S
N584 C583 1.326 . S
N584 C588 1.362 . S
C585 C586 1.258 . S
C585 C588 1.431 . S
C585 C605 1.449 . S
C586 C585 1.258 . S
C586 C587 1.477 . S
C586 H606 0.931 . S
C587 C583 1.460 . S
C587 C586 1.477 . S
C587 H607 0.930 . S
C588 N584 1.362 . S
C588 C585 1.431 . S
C588 C598 1.476 . S
H589 C583 0.929 . S
C590 O581 1.250 . S
C590 O582 1.258 . S
O591 Mn576 2.162 . S
O591 C579 1.281 . S
O592 Mn576 2.297 . S
O592 C579 1.236 . S
N593 Mn577 2.282 . S
N593 C594 1.328 . S
N593 C598 1.318 . S
C594 N593 1.328 . S
C594 C595 1.457 . S
C594 H599 0.929 . S
C595 C594 1.457 . S
C595 C596 1.291 . S
C595 H608 0.931 . S
C596 C595 1.291 . S
C596 C597 1.373 . S
C596 H609 0.929 . S
C597 C596 1.373 . S
C597 C598 1.396 . S
C597 C604 1.403 . S
C598 C588 1.476 . S
C598 N593 1.318 . S
C598 C597 1.396 . S
H599 C594 0.929 . S
O600 Mn576 2.385 . S
O600 C578 1.234 . S
O601 Mn576 2.209 . S
O601 Mn577 2.215 . S
O601 C578 1.283 . S
O602 Mn576 2.094 . S
O602 C580 1.240 . S
O603 Mn577 2.117 . S
O603 C580 1.264 . S
C604 C597 1.403 . S
C604 C605 1.399 . S
C604 H610 0.929 . S
C605 C585 1.449 . S
C605 C604 1.399 . S
C605 H611 0.930 . S
H606 C586 0.931 . S
H607 C587 0.930 . S
H608 C595 0.931 . S
H609 C596 0.929 . S
H610 C604 0.929 . S
H611 C605 0.930 . S
Mn612 O617 2.095 . S
Mn612 O627 2.162 . S
Mn612 O628 2.297 . S
Mn612 O636 2.385 . S
Mn612 O637 2.209 . S
Mn612 O638 2.094 . S
Mn613 O618 2.121 . S
Mn613 N620 2.257 . S
Mn613 N629 2.282 . S
Mn613 O637 2.215 . S
Mn613 O639 2.117 . S
C614 O636 1.234 . S
C614 O637 1.283 . S
C615 O627 1.281 . S
C615 O628 1.236 . S
C616 O638 1.240 . S
C616 O639 1.264 . S
O617 Mn612 2.095 . S
O617 C626 1.250 . S
O618 Mn613 2.121 . S
O618 C626 1.258 . S
C619 N620 1.326 . S
C619 C623 1.460 . S
C619 H625 0.929 . S
N620 Mn613 2.257 . S
N620 C619 1.326 . S
N620 C624 1.362 . S
C621 C622 1.258 . S
C621 C624 1.431 . S
C621 C641 1.449 . S
C622 C621 1.258 . S
C622 C623 1.477 . S
C622 H642 0.931 . S
C623 C619 1.460 . S
C623 C622 1.477 . S
C623 H643 0.930 . S
C624 N620 1.362 . S
C624 C621 1.431 . S
C624 C634 1.476 . S
H625 C619 0.929 . S
C626 O617 1.250 . S
C626 O618 1.258 . S
O627 Mn612 2.162 . S
O627 C615 1.281 . S
O628 Mn612 2.297 . S
O628 C615 1.236 . S
N629 Mn613 2.282 . S
N629 C630 1.328 . S
N629 C634 1.318 . S
C630 N629 1.328 . S
C630 C631 1.457 . S
C630 H635 0.929 . S
C631 C630 1.457 . S
C631 C632 1.291 . S
C631 H644 0.931 . S
C632 C631 1.291 . S
C632 C633 1.373 . S
C632 H645 0.929 . S
C633 C632 1.373 . S
C633 C634 1.396 . S
C633 C640 1.403 . S
C634 C624 1.476 . S
C634 N629 1.318 . S
C634 C633 1.396 . S
H635 C630 0.929 . S
O636 Mn612 2.385 . S
O636 C614 1.234 . S
O637 Mn612 2.209 . S
O637 Mn613 2.215 . S
O637 C614 1.283 . S
O638 Mn612 2.094 . S
O638 C616 1.240 . S
O639 Mn613 2.117 . S
O639 C616 1.264 . S
C640 C633 1.403 . S
C640 C641 1.399 . S
C640 H646 0.929 . S
C641 C621 1.449 . S
C641 C640 1.399 . S
C641 H647 0.930 . S
H642 C622 0.931 . S
H643 C623 0.930 . S
H644 C631 0.931 . S
H645 C632 0.929 . S
H646 C640 0.929 . S
H647 C641 0.930 . S
Mn648 O653 2.095 . S
Mn648 O663 2.162 . S
Mn648 O664 2.297 . S
Mn648 O672 2.385 . S
Mn648 O673 2.209 . S
Mn648 O674 2.094 . S
Mn649 O654 2.121 . S
Mn649 N656 2.257 . S
Mn649 N665 2.282 . S
Mn649 O673 2.215 . S
Mn649 O675 2.117 . S
C650 O672 1.234 . S
C650 O673 1.283 . S
C651 O663 1.281 . S
C651 O664 1.236 . S
C652 O674 1.240 . S
C652 O675 1.264 . S
O653 Mn648 2.095 . S
O653 C662 1.250 . S
O654 Mn649 2.121 . S
O654 C662 1.258 . S
C655 N656 1.326 . S
C655 C659 1.460 . S
C655 H661 0.929 . S
N656 Mn649 2.257 . S
N656 C655 1.326 . S
N656 C660 1.362 . S
C657 C658 1.258 . S
C657 C660 1.431 . S
C657 C677 1.449 . S
C658 C657 1.258 . S
C658 C659 1.477 . S
C658 H678 0.931 . S
C659 C655 1.460 . S
C659 C658 1.477 . S
C659 H679 0.930 . S
C660 N656 1.362 . S
C660 C657 1.431 . S
C660 C670 1.476 . S
H661 C655 0.929 . S
C662 O653 1.250 . S
C662 O654 1.258 . S
O663 Mn648 2.162 . S
O663 C651 1.281 . S
O664 Mn648 2.297 . S
O664 C651 1.236 . S
N665 Mn649 2.282 . S
N665 C666 1.328 . S
N665 C670 1.318 . S
C666 N665 1.328 . S
C666 C667 1.457 . S
C666 H671 0.929 . S
C667 C666 1.457 . S
C667 C668 1.291 . S
C667 H680 0.931 . S
C668 C667 1.291 . S
C668 C669 1.373 . S
C668 H681 0.929 . S
C669 C668 1.373 . S
C669 C670 1.396 . S
C669 C676 1.403 . S
C670 C660 1.476 . S
C670 N665 1.318 . S
C670 C669 1.396 . S
H671 C666 0.929 . S
O672 Mn648 2.385 . S
O672 C650 1.234 . S
O673 Mn648 2.209 . S
O673 Mn649 2.215 . S
O673 C650 1.283 . S
O674 Mn648 2.094 . S
O674 C652 1.240 . S
O675 Mn649 2.117 . S
O675 C652 1.264 . S
C676 C669 1.403 . S
C676 C677 1.399 . S
C676 H682 0.929 . S
C677 C657 1.449 . S
C677 C676 1.399 . S
C677 H683 0.930 . S
H678 C658 0.931 . S
H679 C659 0.930 . S
H680 C667 0.931 . S
H681 C668 0.929 . S
H682 C676 0.929 . S
H683 C677 0.930 . S
Mn684 O689 2.095 . S
Mn684 O699 2.162 . S
Mn684 O700 2.297 . S
Mn684 O708 2.385 . S
Mn684 O709 2.209 . S
Mn684 O710 2.094 . S
Mn685 O690 2.121 . S
Mn685 N692 2.257 . S
Mn685 N701 2.282 . S
Mn685 O709 2.215 . S
Mn685 O711 2.117 . S
C686 O708 1.234 . S
C686 O709 1.283 . S
C687 O699 1.281 . S
C687 O700 1.236 . S
C688 O710 1.240 . S
C688 O711 1.264 . S
O689 Mn684 2.095 . S
O689 C698 1.250 . S
O690 Mn685 2.121 . S
O690 C698 1.258 . S
C691 N692 1.326 . S
C691 C695 1.460 . S
C691 H697 0.929 . S
N692 Mn685 2.257 . S
N692 C691 1.326 . S
N692 C696 1.362 . S
C693 C694 1.258 . S
C693 C696 1.431 . S
C693 C713 1.449 . S
C694 C693 1.258 . S
C694 C695 1.477 . S
C694 H714 0.931 . S
C695 C691 1.460 . S
C695 C694 1.477 . S
C695 H715 0.930 . S
C696 N692 1.362 . S
C696 C693 1.431 . S
C696 C706 1.476 . S
H697 C691 0.929 . S
C698 O689 1.250 . S
C698 O690 1.258 . S
O699 Mn684 2.162 . S
O699 C687 1.281 . S
O700 Mn684 2.297 . S
O700 C687 1.236 . S
N701 Mn685 2.282 . S
N701 C702 1.328 . S
N701 C706 1.318 . S
C702 N701 1.328 . S
C702 C703 1.457 . S
C702 H707 0.929 . S
C703 C702 1.457 . S
C703 C704 1.291 . S
C703 H716 0.931 . S
C704 C703 1.291 . S
C704 C705 1.373 . S
C704 H717 0.929 . S
C705 C704 1.373 . S
C705 C706 1.396 . S
C705 C712 1.403 . S
C706 C696 1.476 . S
C706 N701 1.318 . S
C706 C705 1.396 . S
H707 C702 0.929 . S
O708 Mn684 2.385 . S
O708 C686 1.234 . S
O709 Mn684 2.209 . S
O709 Mn685 2.215 . S
O709 C686 1.283 . S
O710 Mn684 2.094 . S
O710 C688 1.240 . S
O711 Mn685 2.117 . S
O711 C688 1.264 . S
C712 C705 1.403 . S
C712 C713 1.399 . S
C712 H718 0.929 . S
C713 C693 1.449 . S
C713 C712 1.399 . S
C713 H719 0.930 . S
H714 C694 0.931 . S
H715 C695 0.930 . S
H716 C703 0.931 . S
H717 C704 0.929 . S
H718 C712 0.929 . S
H719 C713 0.930 . S
Mn720 O725 2.095 . S
Mn720 O735 2.162 . S
Mn720 O736 2.297 . S
Mn720 O744 2.385 . S
Mn720 O745 2.209 . S
Mn720 O746 2.094 . S
Mn721 O726 2.121 . S
Mn721 N728 2.257 . S
Mn721 N737 2.282 . S
Mn721 O745 2.215 . S
Mn721 O747 2.117 . S
C722 O744 1.234 . S
C722 O745 1.283 . S
C723 O735 1.281 . S
C723 O736 1.236 . S
C724 O746 1.240 . S
C724 O747 1.264 . S
O725 Mn720 2.095 . S
O725 C734 1.250 . S
O726 Mn721 2.121 . S
O726 C734 1.258 . S
C727 N728 1.326 . S
C727 C731 1.460 . S
C727 H733 0.929 . S
N728 Mn721 2.257 . S
N728 C727 1.326 . S
N728 C732 1.362 . S
C729 C730 1.258 . S
C729 C732 1.431 . S
C729 C749 1.449 . S
C730 C729 1.258 . S
C730 C731 1.477 . S
C730 H750 0.931 . S
C731 C727 1.460 . S
C731 C730 1.477 . S
C731 H751 0.930 . S
C732 N728 1.362 . S
C732 C729 1.431 . S
C732 C742 1.476 . S
H733 C727 0.929 . S
C734 O725 1.250 . S
C734 O726 1.258 . S
O735 Mn720 2.162 . S
O735 C723 1.281 . S
O736 Mn720 2.297 . S
O736 C723 1.236 . S
N737 Mn721 2.282 . S
N737 C738 1.328 . S
N737 C742 1.318 . S
C738 N737 1.328 . S
C738 C739 1.457 . S
C738 H743 0.929 . S
C739 C738 1.457 . S
C739 C740 1.291 . S
C739 H752 0.931 . S
C740 C739 1.291 . S
C740 C741 1.373 . S
C740 H753 0.929 . S
C741 C740 1.373 . S
C741 C742 1.396 . S
C741 C748 1.403 . S
C742 C732 1.476 . S
C742 N737 1.318 . S
C742 C741 1.396 . S
H743 C738 0.929 . S
O744 Mn720 2.385 . S
O744 C722 1.234 . S
O745 Mn720 2.209 . S
O745 Mn721 2.215 . S
O745 C722 1.283 . S
O746 Mn720 2.094 . S
O746 C724 1.240 . S
O747 Mn721 2.117 . S
O747 C724 1.264 . S
C748 C741 1.403 . S
C748 C749 1.399 . S
C748 H754 0.929 . S
C749 C729 1.449 . S
C749 C748 1.399 . S
C749 H755 0.930 . S
H750 C730 0.931 . S
H751 C731 0.930 . S
H752 C739 0.931 . S
H753 C740 0.929 . S
H754 C748 0.929 . S
H755 C749 0.930 . S
Mn756 O761 2.095 . S
Mn756 O771 2.162 . S
Mn756 O772 2.297 . S
Mn756 O780 2.385 . S
Mn756 O781 2.209 . S
Mn756 O782 2.094 . S
Mn757 O762 2.121 . S
Mn757 N764 2.257 . S
Mn757 N773 2.282 . S
Mn757 O781 2.215 . S
Mn757 O783 2.117 . S
C758 O780 1.234 . S
C758 O781 1.283 . S
C759 O771 1.281 . S
C759 O772 1.236 . S
C760 O782 1.240 . S
C760 O783 1.264 . S
O761 Mn756 2.095 . S
O761 C770 1.250 . S
O762 Mn757 2.121 . S
O762 C770 1.258 . S
C763 N764 1.326 . S
C763 C767 1.460 . S
C763 H769 0.929 . S
N764 Mn757 2.257 . S
N764 C763 1.326 . S
N764 C768 1.362 . S
C765 C766 1.258 . S
C765 C768 1.431 . S
C765 C785 1.449 . S
C766 C765 1.258 . S
C766 C767 1.477 . S
C766 H786 0.931 . S
C767 C763 1.460 . S
C767 C766 1.477 . S
C767 H787 0.930 . S
C768 N764 1.362 . S
C768 C765 1.431 . S
C768 C778 1.476 . S
H769 C763 0.929 . S
C770 O761 1.250 . S
C770 O762 1.258 . S
O771 Mn756 2.162 . S
O771 C759 1.281 . S
O772 Mn756 2.297 . S
O772 C759 1.236 . S
N773 Mn757 2.282 . S
N773 C774 1.328 . S
N773 C778 1.318 . S
C774 N773 1.328 . S
C774 C775 1.457 . S
C774 H779 0.929 . S
C775 C774 1.457 . S
C775 C776 1.291 . S
C775 H788 0.931 . S
C776 C775 1.291 . S
C776 C777 1.373 . S
C776 H789 0.929 . S
C777 C776 1.373 . S
C777 C778 1.396 . S
C777 C784 1.403 . S
C778 C768 1.476 . S
C778 N773 1.318 . S
C778 C777 1.396 . S
H779 C774 0.929 . S
O780 Mn756 2.385 . S
O780 C758 1.234 . S
O781 Mn756 2.209 . S
O781 Mn757 2.215 . S
O781 C758 1.283 . S
O782 Mn756 2.094 . S
O782 C760 1.240 . S
O783 Mn757 2.117 . S
O783 C760 1.264 . S
C784 C777 1.403 . S
C784 C785 1.399 . S
C784 H790 0.929 . S
C785 C765 1.449 . S
C785 C784 1.399 . S
C785 H791 0.930 . S
H786 C766 0.931 . S
H787 C767 0.930 . S
H788 C775 0.931 . S
H789 C776 0.929 . S
H790 C784 0.929 . S
H791 C785 0.930 . S
Mn792 O797 2.095 . S
Mn792 O807 2.162 . S
Mn792 O808 2.297 . S
Mn792 O816 2.385 . S
Mn792 O817 2.209 . S
Mn792 O818 2.094 . S
Mn793 O798 2.121 . S
Mn793 N800 2.257 . S
Mn793 N809 2.282 . S
Mn793 O817 2.215 . S
Mn793 O819 2.117 . S
C794 O816 1.234 . S
C794 O817 1.283 . S
C795 O807 1.281 . S
C795 O808 1.236 . S
C796 O818 1.240 . S
C796 O819 1.264 . S
O797 Mn792 2.095 . S
O797 C806 1.250 . S
O798 Mn793 2.121 . S
O798 C806 1.258 . S
C799 N800 1.326 . S
C799 C803 1.460 . S
C799 H805 0.929 . S
N800 Mn793 2.257 . S
N800 C799 1.326 . S
N800 C804 1.362 . S
C801 C802 1.258 . S
C801 C804 1.431 . S
C801 C821 1.449 . S
C802 C801 1.258 . S
C802 C803 1.477 . S
C802 H822 0.931 . S
C803 C799 1.460 . S
C803 C802 1.477 . S
C803 H823 0.930 . S
C804 N800 1.362 . S
C804 C801 1.431 . S
C804 C814 1.476 . S
H805 C799 0.929 . S
C806 O797 1.250 . S
C806 O798 1.258 . S
O807 Mn792 2.162 . S
O807 C795 1.281 . S
O808 Mn792 2.297 . S
O808 C795 1.236 . S
N809 Mn793 2.282 . S
N809 C810 1.328 . S
N809 C814 1.318 . S
C810 N809 1.328 . S
C810 C811 1.457 . S
C810 H815 0.929 . S
C811 C810 1.457 . S
C811 C812 1.291 . S
C811 H824 0.931 . S
C812 C811 1.291 . S
C812 C813 1.373 . S
C812 H825 0.929 . S
C813 C812 1.373 . S
C813 C814 1.396 . S
C813 C820 1.403 . S
C814 C804 1.476 . S
C814 N809 1.318 . S
C814 C813 1.396 . S
H815 C810 0.929 . S
O816 Mn792 2.385 . S
O816 C794 1.234 . S
O817 Mn792 2.209 . S
O817 Mn793 2.215 . S
O817 C794 1.283 . S
O818 Mn792 2.094 . S
O818 C796 1.240 . S
O819 Mn793 2.117 . S
O819 C796 1.264 . S
C820 C813 1.403 . S
C820 C821 1.399 . S
C820 H826 0.929 . S
C821 C801 1.449 . S
C821 C820 1.399 . S
C821 H827 0.930 . S
H822 C802 0.931 . S
H823 C803 0.930 . S
H824 C811 0.931 . S
H825 C812 0.929 . S
H826 C820 0.929 . S
H827 C821 0.930 . S
Mn828 O833 2.095 . S
Mn828 O843 2.162 . S
Mn828 O844 2.297 . S
Mn828 O852 2.385 . S
Mn828 O853 2.209 . S
Mn828 O854 2.094 . S
Mn829 O834 2.121 . S
Mn829 N836 2.257 . S
Mn829 N845 2.282 . S
Mn829 O853 2.215 . S
Mn829 O855 2.117 . S
C830 O852 1.234 . S
C830 O853 1.283 . S
C831 O843 1.281 . S
C831 O844 1.236 . S
C832 O854 1.240 . S
C832 O855 1.264 . S
O833 Mn828 2.095 . S
O833 C842 1.250 . S
O834 Mn829 2.121 . S
O834 C842 1.258 . S
C835 N836 1.326 . S
C835 C839 1.460 . S
C835 H841 0.929 . S
N836 Mn829 2.257 . S
N836 C835 1.326 . S
N836 C840 1.362 . S
C837 C838 1.258 . S
C837 C840 1.431 . S
C837 C857 1.449 . S
C838 C837 1.258 . S
C838 C839 1.477 . S
C838 H858 0.931 . S
C839 C835 1.460 . S
C839 C838 1.477 . S
C839 H859 0.930 . S
C840 N836 1.362 . S
C840 C837 1.431 . S
C840 C850 1.476 . S
H841 C835 0.929 . S
C842 O833 1.250 . S
C842 O834 1.258 . S
O843 Mn828 2.162 . S
O843 C831 1.281 . S
O844 Mn828 2.297 . S
O844 C831 1.236 . S
N845 Mn829 2.282 . S
N845 C846 1.328 . S
N845 C850 1.318 . S
C846 N845 1.328 . S
C846 C847 1.457 . S
C846 H851 0.929 . S
C847 C846 1.457 . S
C847 C848 1.291 . S
C847 H860 0.931 . S
C848 C847 1.291 . S
C848 C849 1.373 . S
C848 H861 0.929 . S
C849 C848 1.373 . S
C849 C850 1.396 . S
C849 C856 1.403 . S
C850 C840 1.476 . S
C850 N845 1.318 . S
C850 C849 1.396 . S
H851 C846 0.929 . S
O852 Mn828 2.385 . S
O852 C830 1.234 . S
O853 Mn828 2.209 . S
O853 Mn829 2.215 . S
O853 C830 1.283 . S
O854 Mn828 2.094 . S
O854 C832 1.240 . S
O855 Mn829 2.117 . S
O855 C832 1.264 . S
C856 C849 1.403 . S
C856 C857 1.399 . S
C856 H862 0.929 . S
C857 C837 1.449 . S
C857 C856 1.399 . S
C857 H863 0.930 . S
H858 C838 0.931 . S
H859 C839 0.930 . S
H860 C847 0.931 . S
H861 C848 0.929 . S
H862 C856 0.929 . S
H863 C857 0.930 . S
Mn864 O869 2.095 . S
Mn864 O879 2.162 . S
Mn864 O880 2.297 . S
Mn864 O888 2.385 . S
Mn864 O889 2.209 . S
Mn864 O890 2.094 . S
Mn865 O870 2.121 . S
Mn865 N872 2.257 . S
Mn865 N881 2.282 . S
Mn865 O889 2.215 . S
Mn865 O891 2.117 . S
C866 O888 1.234 . S
C866 O889 1.283 . S
C867 O879 1.281 . S
C867 O880 1.236 . S
C868 O890 1.240 . S
C868 O891 1.264 . S
O869 Mn864 2.095 . S
O869 C878 1.250 . S
O870 Mn865 2.121 . S
O870 C878 1.258 . S
C871 N872 1.326 . S
C871 C875 1.460 . S
C871 H877 0.929 . S
N872 Mn865 2.257 . S
N872 C871 1.326 . S
N872 C876 1.362 . S
C873 C874 1.258 . S
C873 C876 1.431 . S
C873 C893 1.449 . S
C874 C873 1.258 . S
C874 C875 1.477 . S
C874 H894 0.931 . S
C875 C871 1.460 . S
C875 C874 1.477 . S
C875 H895 0.930 . S
C876 N872 1.362 . S
C876 C873 1.431 . S
C876 C886 1.476 . S
H877 C871 0.929 . S
C878 O869 1.250 . S
C878 O870 1.258 . S
O879 Mn864 2.162 . S
O879 C867 1.281 . S
O880 Mn864 2.297 . S
O880 C867 1.236 . S
N881 Mn865 2.282 . S
N881 C882 1.328 . S
N881 C886 1.318 . S
C882 N881 1.328 . S
C882 C883 1.457 . S
C882 H887 0.929 . S
C883 C882 1.457 . S
C883 C884 1.291 . S
C883 H896 0.931 . S
C884 C883 1.291 . S
C884 C885 1.373 . S
C884 H897 0.929 . S
C885 C884 1.373 . S
C885 C886 1.396 . S
C885 C892 1.403 . S
C886 C876 1.476 . S
C886 N881 1.318 . S
C886 C885 1.396 . S
H887 C882 0.929 . S
O888 Mn864 2.385 . S
O888 C866 1.234 . S
O889 Mn864 2.209 . S
O889 Mn865 2.215 . S
O889 C866 1.283 . S
O890 Mn864 2.094 . S
O890 C868 1.240 . S
O891 Mn865 2.117 . S
O891 C868 1.264 . S
C892 C885 1.403 . S
C892 C893 1.399 . S
C892 H898 0.929 . S
C893 C873 1.449 . S
C893 C892 1.399 . S
C893 H899 0.930 . S
H894 C874 0.931 . S
H895 C875 0.930 . S
H896 C883 0.931 . S
H897 C884 0.929 . S
H898 C892 0.929 . S
H899 C893 0.930 . S
Mn900 O905 2.095 . S
Mn900 O915 2.162 . S
Mn900 O916 2.297 . S
Mn900 O924 2.385 . S
Mn900 O925 2.209 . S
Mn900 O926 2.094 . S
Mn901 O906 2.121 . S
Mn901 N908 2.257 . S
Mn901 N917 2.282 . S
Mn901 O925 2.215 . S
Mn901 O927 2.117 . S
C902 O924 1.234 . S
C902 O925 1.283 . S
C903 O915 1.281 . S
C903 O916 1.236 . S
C904 O926 1.240 . S
C904 O927 1.264 . S
O905 Mn900 2.095 . S
O905 C914 1.250 . S
O906 Mn901 2.121 . S
O906 C914 1.258 . S
C907 N908 1.326 . S
C907 C911 1.460 . S
C907 H913 0.929 . S
N908 Mn901 2.257 . S
N908 C907 1.326 . S
N908 C912 1.362 . S
C909 C910 1.258 . S
C909 C912 1.431 . S
C909 C929 1.449 . S
C910 C909 1.258 . S
C910 C911 1.477 . S
C910 H930 0.931 . S
C911 C907 1.460 . S
C911 C910 1.477 . S
C911 H931 0.930 . S
C912 N908 1.362 . S
C912 C909 1.431 . S
C912 C922 1.476 . S
H913 C907 0.929 . S
C914 O905 1.250 . S
C914 O906 1.258 . S
O915 Mn900 2.162 . S
O915 C903 1.281 . S
O916 Mn900 2.297 . S
O916 C903 1.236 . S
N917 Mn901 2.282 . S
N917 C918 1.328 . S
N917 C922 1.318 . S
C918 N917 1.328 . S
C918 C919 1.457 . S
C918 H923 0.929 . S
C919 C918 1.457 . S
C919 C920 1.291 . S
C919 H932 0.931 . S
C920 C919 1.291 . S
C920 C921 1.373 . S
C920 H933 0.929 . S
C921 C920 1.373 . S
C921 C922 1.396 . S
C921 C928 1.403 . S
C922 C912 1.476 . S
C922 N917 1.318 . S
C922 C921 1.396 . S
H923 C918 0.929 . S
O924 Mn900 2.385 . S
O924 C902 1.234 . S
O925 Mn900 2.209 . S
O925 Mn901 2.215 . S
O925 C902 1.283 . S
O926 Mn900 2.094 . S
O926 C904 1.240 . S
O927 Mn901 2.117 . S
O927 C904 1.264 . S
C928 C921 1.403 . S
C928 C929 1.399 . S
C928 H934 0.929 . S
C929 C909 1.449 . S
C929 C928 1.399 . S
C929 H935 0.930 . S
H930 C910 0.931 . S
H931 C911 0.930 . S
H932 C919 0.931 . S
H933 C920 0.929 . S
H934 C928 0.929 . S
H935 C929 0.930 . S
Mn936 O941 2.095 1_556 S
Mn936 O951 2.162 . S
Mn936 O952 2.297 . S
Mn936 O960 2.385 . S
Mn936 O961 2.209 1_556 S
Mn936 O962 2.094 1_556 S
Mn937 O942 2.121 . S
Mn937 N944 2.257 . S
Mn937 N953 2.282 . S
Mn937 O961 2.215 . S
Mn937 O963 2.117 . S
C938 O960 1.236 . S
C938 O961 1.280 1_556 S
C939 O951 1.281 . S
C939 O952 1.236 . S
C940 O962 1.240 . S
C940 O963 1.264 . S
O941 Mn936 2.095 1_554 S
O941 C950 1.250 . S
O942 Mn937 2.121 . S
O942 C950 1.258 . S
C943 N944 1.326 . S
C943 C947 1.460 . S
C943 H949 0.929 . S
N944 Mn937 2.257 . S
N944 C943 1.326 . S
N944 C948 1.362 . S
C945 C946 1.258 . S
C945 C948 1.431 . S
C945 C965 1.449 . S
C946 C945 1.258 . S
C946 C947 1.477 . S
C946 H966 0.931 . S
C947 C943 1.460 . S
C947 C946 1.477 . S
C947 H967 0.930 . S
C948 N944 1.362 . S
C948 C945 1.431 . S
C948 C958 1.476 . S
H949 C943 0.929 . S
C950 O941 1.250 . S
C950 O942 1.258 . S
O951 Mn936 2.162 . S
O951 C939 1.281 . S
O952 Mn936 2.297 . S
O952 C939 1.236 . S
N953 Mn937 2.282 . S
N953 C954 1.328 . S
N953 C958 1.318 . S
C954 N953 1.328 . S
C954 C955 1.457 . S
C954 H959 0.929 . S
C955 C954 1.457 . S
C955 C956 1.291 . S
C955 H968 0.931 . S
C956 C955 1.291 . S
C956 C957 1.373 . S
C956 H969 0.929 . S
C957 C956 1.373 . S
C957 C958 1.396 . S
C957 C964 1.403 . S
C958 C948 1.476 . S
C958 N953 1.318 . S
C958 C957 1.396 . S
H959 C954 0.929 . S
O960 Mn936 2.385 . S
O960 C938 1.236 . S
O961 Mn936 2.209 1_554 S
O961 Mn937 2.215 . S
O961 C938 1.280 1_554 S
O962 Mn936 2.094 1_554 S
O962 C940 1.240 . S
O963 Mn937 2.117 . S
O963 C940 1.264 . S
C964 C957 1.403 . S
C964 C965 1.399 . S
C964 H970 0.929 . S
C965 C945 1.449 . S
C965 C964 1.399 . S
C965 H971 0.930 . S
H966 C946 0.931 . S
H967 C947 0.930 . S
H968 C955 0.931 . S
H969 C956 0.929 . S
H970 C964 0.929 . S
H971 C965 0.930 . S
Mn972 O977 2.095 1_556 S
Mn972 O987 2.162 . S
Mn972 O988 2.297 . S
Mn972 O996 2.385 . S
Mn972 O997 2.209 1_556 S
Mn972 O998 2.094 1_556 S
Mn973 O978 2.121 . S
Mn973 N980 2.257 . S
Mn973 N989 2.282 . S
Mn973 O997 2.215 . S
Mn973 O999 2.117 . S
C974 O996 1.236 . S
C974 O997 1.280 1_556 S
C975 O987 1.281 . S
C975 O988 1.236 . S
C976 O998 1.240 . S
C976 O999 1.264 . S
O977 Mn972 2.095 1_554 S
O977 C986 1.250 . S
O978 Mn973 2.121 . S
O978 C986 1.258 . S
C979 N980 1.326 . S
C979 C983 1.460 . S
C979 H985 0.929 . S
N980 Mn973 2.257 . S
N980 C979 1.326 . S
N980 C984 1.362 . S
C981 C982 1.258 . S
C981 C984 1.431 . S
C981 C1001 1.449 . S
C982 C981 1.258 . S
C982 C983 1.477 . S
C982 H1002 0.931 . S
C983 C979 1.460 . S
C983 C982 1.477 . S
C983 H1003 0.930 . S
C984 N980 1.362 . S
C984 C981 1.431 . S
C984 C994 1.476 . S
H985 C979 0.929 . S
C986 O977 1.250 . S
C986 O978 1.258 . S
O987 Mn972 2.162 . S
O987 C975 1.281 . S
O988 Mn972 2.297 . S
O988 C975 1.236 . S
N989 Mn973 2.282 . S
N989 C990 1.328 . S
N989 C994 1.318 . S
C990 N989 1.328 . S
C990 C991 1.457 . S
C990 H995 0.929 . S
C991 C990 1.457 . S
C991 C992 1.291 . S
C991 H1004 0.931 . S
C992 C991 1.291 . S
C992 C993 1.373 . S
C992 H1005 0.929 . S
C993 C992 1.373 . S
C993 C994 1.396 . S
C993 C1000 1.403 . S
C994 C984 1.476 . S
C994 N989 1.318 . S
C994 C993 1.396 . S
H995 C990 0.929 . S
O996 Mn972 2.385 . S
O996 C974 1.236 . S
O997 Mn972 2.209 1_554 S
O997 Mn973 2.215 . S
O997 C974 1.280 1_554 S
O998 Mn972 2.094 1_554 S
O998 C976 1.240 . S
O999 Mn973 2.117 . S
O999 C976 1.264 . S
C1000 C993 1.403 . S
C1000 C1001 1.399 . S
C1000 H1006 0.929 . S
C1001 C981 1.449 . S
C1001 C1000 1.399 . S
C1001 H1007 0.930 . S
H1002 C982 0.931 . S
H1003 C983 0.930 . S
H1004 C991 0.931 . S
H1005 C992 0.929 . S
H1006 C1000 0.929 . S
H1007 C1001 0.930 . S
Mn1008 O1013 2.095 . S
Mn1008 O1023 2.162 . S
Mn1008 O1024 2.297 . S
Mn1008 O1032 2.385 . S
Mn1008 O1033 2.209 . S
Mn1008 O1034 2.094 . S
Mn1009 O1014 2.121 . S
Mn1009 N1016 2.257 . S
Mn1009 N1025 2.282 . S
Mn1009 O1033 2.215 . S
Mn1009 O1035 2.117 . S
C1010 O1032 1.234 . S
C1010 O1033 1.283 . S
C1011 O1023 1.281 . S
C1011 O1024 1.236 . S
C1012 O1034 1.240 . S
C1012 O1035 1.264 . S
O1013 Mn1008 2.095 . S
O1013 C1022 1.250 . S
O1014 Mn1009 2.121 . S
O1014 C1022 1.258 . S
C1015 N1016 1.326 . S
C1015 C1019 1.460 . S
C1015 H1021 0.929 . S
N1016 Mn1009 2.257 . S
N1016 C1015 1.326 . S
N1016 C1020 1.362 . S
C1017 C1018 1.258 . S
C1017 C1020 1.431 . S
C1017 C1037 1.449 . S
C1018 C1017 1.258 . S
C1018 C1019 1.477 . S
C1018 H1038 0.931 . S
C1019 C1015 1.460 . S
C1019 C1018 1.477 . S
C1019 H1039 0.930 . S
C1020 N1016 1.362 . S
C1020 C1017 1.431 . S
C1020 C1030 1.476 . S
H1021 C1015 0.929 . S
C1022 O1013 1.250 . S
C1022 O1014 1.258 . S
O1023 Mn1008 2.162 . S
O1023 C1011 1.281 . S
O1024 Mn1008 2.297 . S
O1024 C1011 1.236 . S
N1025 Mn1009 2.282 . S
N1025 C1026 1.328 . S
N1025 C1030 1.318 . S
C1026 N1025 1.328 . S
C1026 C1027 1.457 . S
C1026 H1031 0.929 . S
C1027 C1026 1.457 . S
C1027 C1028 1.291 . S
C1027 H1040 0.931 . S
C1028 C1027 1.291 . S
C1028 C1029 1.373 . S
C1028 H1041 0.929 . S
C1029 C1028 1.373 . S
C1029 C1030 1.396 . S
C1029 C1036 1.403 . S
C1030 C1020 1.476 . S
C1030 N1025 1.318 . S
C1030 C1029 1.396 . S
H1031 C1026 0.929 . S
O1032 Mn1008 2.385 . S
O1032 C1010 1.234 . S
O1033 Mn1008 2.209 . S
O1033 Mn1009 2.215 . S
O1033 C1010 1.283 . S
O1034 Mn1008 2.094 . S
O1034 C1012 1.240 . S
O1035 Mn1009 2.117 . S
O1035 C1012 1.264 . S
C1036 C1029 1.403 . S
C1036 C1037 1.399 . S
C1036 H1042 0.929 . S
C1037 C1017 1.449 . S
C1037 C1036 1.399 . S
C1037 H1043 0.930 . S
H1038 C1018 0.931 . S
H1039 C1019 0.930 . S
H1040 C1027 0.931 . S
H1041 C1028 0.929 . S
H1042 C1036 0.929 . S
H1043 C1037 0.930 . S
Mn1044 O1049 2.095 . S
Mn1044 O1059 2.162 . S
Mn1044 O1060 2.297 . S
Mn1044 O1068 2.385 . S
Mn1044 O1069 2.209 . S
Mn1044 O1070 2.094 . S
Mn1045 O1050 2.121 . S
Mn1045 N1052 2.257 . S
Mn1045 N1061 2.282 . S
Mn1045 O1069 2.215 . S
Mn1045 O1071 2.117 . S
C1046 O1068 1.234 . S
C1046 O1069 1.283 . S
C1047 O1059 1.281 . S
C1047 O1060 1.236 . S
C1048 O1070 1.240 . S
C1048 O1071 1.264 . S
O1049 Mn1044 2.095 . S
O1049 C1058 1.250 . S
O1050 Mn1045 2.121 . S
O1050 C1058 1.258 . S
C1051 N1052 1.326 . S
C1051 C1055 1.460 . S
C1051 H1057 0.929 . S
N1052 Mn1045 2.257 . S
N1052 C1051 1.326 . S
N1052 C1056 1.362 . S
C1053 C1054 1.258 . S
C1053 C1056 1.431 . S
C1053 C1073 1.449 . S
C1054 C1053 1.258 . S
C1054 C1055 1.477 . S
C1054 H1074 0.931 . S
C1055 C1051 1.460 . S
C1055 C1054 1.477 . S
C1055 H1075 0.930 . S
C1056 N1052 1.362 . S
C1056 C1053 1.431 . S
C1056 C1066 1.476 . S
H1057 C1051 0.929 . S
C1058 O1049 1.250 . S
C1058 O1050 1.258 . S
O1059 Mn1044 2.162 . S
O1059 C1047 1.281 . S
O1060 Mn1044 2.297 . S
O1060 C1047 1.236 . S
N1061 Mn1045 2.282 . S
N1061 C1062 1.328 . S
N1061 C1066 1.318 . S
C1062 N1061 1.328 . S
C1062 C1063 1.457 . S
C1062 H1067 0.929 . S
C1063 C1062 1.457 . S
C1063 C1064 1.291 . S
C1063 H1076 0.931 . S
C1064 C1063 1.291 . S
C1064 C1065 1.373 . S
C1064 H1077 0.929 . S
C1065 C1064 1.373 . S
C1065 C1066 1.396 . S
C1065 C1072 1.403 . S
C1066 C1056 1.476 . S
C1066 N1061 1.318 . S
C1066 C1065 1.396 . S
H1067 C1062 0.929 . S
O1068 Mn1044 2.385 . S
O1068 C1046 1.234 . S
O1069 Mn1044 2.209 . S
O1069 Mn1045 2.215 . S
O1069 C1046 1.283 . S
O1070 Mn1044 2.094 . S
O1070 C1048 1.240 . S
O1071 Mn1045 2.117 . S
O1071 C1048 1.264 . S
C1072 C1065 1.403 . S
C1072 C1073 1.399 . S
C1072 H1078 0.929 . S
C1073 C1053 1.449 . S
C1073 C1072 1.399 . S
C1073 H1079 0.930 . S
H1074 C1054 0.931 . S
H1075 C1055 0.930 . S
H1076 C1063 0.931 . S
H1077 C1064 0.929 . S
H1078 C1072 0.929 . S
H1079 C1073 0.930 . S
Mn1080 O1085 2.095 1_554 S
Mn1080 O1095 2.162 . S
Mn1080 O1096 2.297 . S
Mn1080 O1104 2.385 . S
Mn1080 O1105 2.209 1_554 S
Mn1080 O1106 2.094 1_554 S
Mn1081 O1086 2.121 . S
Mn1081 N1088 2.257 . S
Mn1081 N1097 2.282 . S
Mn1081 O1105 2.215 . S
Mn1081 O1107 2.117 . S
C1082 O1104 1.236 . S
C1082 O1105 1.280 1_554 S
C1083 O1095 1.281 . S
C1083 O1096 1.236 . S
C1084 O1106 1.240 . S
C1084 O1107 1.264 . S
O1085 Mn1080 2.095 1_556 S
O1085 C1094 1.250 . S
O1086 Mn1081 2.121 . S
O1086 C1094 1.258 . S
C1087 N1088 1.326 . S
C1087 C1091 1.460 . S
C1087 H1093 0.929 . S
N1088 Mn1081 2.257 . S
N1088 C1087 1.326 . S
N1088 C1092 1.362 . S
C1089 C1090 1.258 . S
C1089 C1092 1.431 . S
C1089 C1109 1.449 . S
C1090 C1089 1.258 . S
C1090 C1091 1.477 . S
C1090 H1110 0.931 . S
C1091 C1087 1.460 . S
C1091 C1090 1.477 . S
C1091 H1111 0.930 . S
C1092 N1088 1.362 . S
C1092 C1089 1.431 . S
C1092 C1102 1.476 . S
H1093 C1087 0.929 . S
C1094 O1085 1.250 . S
C1094 O1086 1.258 . S
O1095 Mn1080 2.162 . S
O1095 C1083 1.281 . S
O1096 Mn1080 2.297 . S
O1096 C1083 1.236 . S
N1097 Mn1081 2.282 . S
N1097 C1098 1.328 . S
N1097 C1102 1.318 . S
C1098 N1097 1.328 . S
C1098 C1099 1.457 . S
C1098 H1103 0.929 . S
C1099 C1098 1.457 . S
C1099 C1100 1.291 . S
C1099 H1112 0.931 . S
C1100 C1099 1.291 . S
C1100 C1101 1.373 . S
C1100 H1113 0.929 . S
C1101 C1100 1.373 . S
C1101 C1102 1.396 . S
C1101 C1108 1.403 . S
C1102 C1092 1.476 . S
C1102 N1097 1.318 . S
C1102 C1101 1.396 . S
H1103 C1098 0.929 . S
O1104 Mn1080 2.385 . S
O1104 C1082 1.236 . S
O1105 Mn1080 2.209 1_556 S
O1105 Mn1081 2.215 . S
O1105 C1082 1.280 1_556 S
O1106 Mn1080 2.094 1_556 S
O1106 C1084 1.240 . S
O1107 Mn1081 2.117 . S
O1107 C1084 1.264 . S
C1108 C1101 1.403 . S
C1108 C1109 1.399 . S
C1108 H1114 0.929 . S
C1109 C1089 1.449 . S
C1109 C1108 1.399 . S
C1109 H1115 0.930 . S
H1110 C1090 0.931 . S
H1111 C1091 0.930 . S
H1112 C1099 0.931 . S
H1113 C1100 0.929 . S
H1114 C1108 0.929 . S
H1115 C1109 0.930 . S
Mn1116 O1121 2.095 1_554 S
Mn1116 O1131 2.162 . S
Mn1116 O1132 2.297 . S
Mn1116 O1140 2.385 . S
Mn1116 O1141 2.209 1_554 S
Mn1116 O1142 2.094 1_554 S
Mn1117 O1122 2.121 . S
Mn1117 N1124 2.257 . S
Mn1117 N1133 2.282 . S
Mn1117 O1141 2.215 . S
Mn1117 O1143 2.117 . S
C1118 O1140 1.236 . S
C1118 O1141 1.280 1_554 S
C1119 O1131 1.281 . S
C1119 O1132 1.236 . S
C1120 O1142 1.240 . S
C1120 O1143 1.264 . S
O1121 Mn1116 2.095 1_556 S
O1121 C1130 1.250 . S
O1122 Mn1117 2.121 . S
O1122 C1130 1.258 . S
C1123 N1124 1.326 . S
C1123 C1127 1.460 . S
C1123 H1129 0.929 . S
N1124 Mn1117 2.257 . S
N1124 C1123 1.326 . S
N1124 C1128 1.362 . S
C1125 C1126 1.258 . S
C1125 C1128 1.431 . S
C1125 C1145 1.449 . S
C1126 C1125 1.258 . S
C1126 C1127 1.477 . S
C1126 H1146 0.931 . S
C1127 C1123 1.460 . S
C1127 C1126 1.477 . S
C1127 H1147 0.930 . S
C1128 N1124 1.362 . S
C1128 C1125 1.431 . S
C1128 C1138 1.476 . S
H1129 C1123 0.929 . S
C1130 O1121 1.250 . S
C1130 O1122 1.258 . S
O1131 Mn1116 2.162 . S
O1131 C1119 1.281 . S
O1132 Mn1116 2.297 . S
O1132 C1119 1.236 . S
N1133 Mn1117 2.282 . S
N1133 C1134 1.328 . S
N1133 C1138 1.318 . S
C1134 N1133 1.328 . S
C1134 C1135 1.457 . S
C1134 H1139 0.929 . S
C1135 C1134 1.457 . S
C1135 C1136 1.291 . S
C1135 H1148 0.931 . S
C1136 C1135 1.291 . S
C1136 C1137 1.373 . S
C1136 H1149 0.929 . S
C1137 C1136 1.373 . S
C1137 C1138 1.396 . S
C1137 C1144 1.403 . S
C1138 C1128 1.476 . S
C1138 N1133 1.318 . S
C1138 C1137 1.396 . S
H1139 C1134 0.929 . S
O1140 Mn1116 2.385 . S
O1140 C1118 1.236 . S
O1141 Mn1116 2.209 1_556 S
O1141 Mn1117 2.215 . S
O1141 C1118 1.280 1_556 S
O1142 Mn1116 2.094 1_556 S
O1142 C1120 1.240 . S
O1143 Mn1117 2.117 . S
O1143 C1120 1.264 . S
C1144 C1137 1.403 . S
C1144 C1145 1.399 . S
C1144 H1150 0.929 . S
C1145 C1125 1.449 . S
C1145 C1144 1.399 . S
C1145 H1151 0.930 . S
H1146 C1126 0.931 . S
H1147 C1127 0.930 . S
H1148 C1135 0.931 . S
H1149 C1136 0.929 . S
H1150 C1144 0.929 . S
H1151 C1145 0.930 . S
H1152 C1160 0.929 . S
H1153 C1162 0.930 . S
H1154 C1164 0.930 . S
H1155 C1167 0.929 . S
H1156 C1170 0.930 . S
H1157 C1172 0.960 . S
H1158 C1172 0.960 . S
H1159 C1172 0.960 . S
C1160 H1152 0.929 . S
C1160 C1161 1.377 . S
C1160 C1162 1.384 . S
C1161 C1160 1.377 . S
C1161 C1167 1.390 . S
C1162 H1153 0.930 . S
C1162 C1160 1.384 . S
C1162 C1163 1.372 . S
C1163 C1162 1.372 . S
C1163 C1164 1.400 . S
C1163 C1168 1.490 . S
C1164 H1154 0.930 . S
C1164 C1163 1.400 . S
C1164 C1167 1.386 . S
H1165 C1181 0.930 . S
H1166 C1182 0.931 . S
C1167 H1155 0.929 . S
C1167 C1161 1.390 . S
C1167 C1164 1.386 . S
C1168 C1163 1.490 . S
C1168 C1170 1.395 . S
C1168 C1171 1.403 . S
H1169 C1175 0.930 . S
C1170 H1156 0.930 . S
C1170 C1168 1.395 . S
C1170 C1173 1.403 . S
C1171 C1168 1.403 . S
C1171 C1172 1.524 . S
C1171 C1175 1.400 . S
C1172 H1157 0.960 . S
C1172 H1158 0.960 . S
C1172 H1159 0.960 . S
C1172 C1171 1.524 . S
C1173 C1170 1.403 . S
C1173 C1174 1.392 . S
C1173 C1177 1.495 . S
C1174 C1173 1.392 . S
C1174 C1175 1.385 . S
C1174 C1176 1.478 . S
C1175 H1169 0.930 . S
C1175 C1171 1.400 . S
C1175 C1174 1.385 . S
C1176 C1174 1.478 . S
C1176 C1178 1.381 . S
C1176 C1182 1.383 . S
C1177 C1173 1.495 . S
C1177 H1183 0.959 . S
C1177 H1184 0.961 . S
C1177 H1185 0.960 . S
C1178 C1176 1.381 . S
C1178 C1179 1.394 . S
C1178 H1186 0.930 . S
C1179 C1178 1.394 . S
C1179 C1180 1.383 . S
C1179 H1187 0.929 . S
C1180 C1179 1.383 . S
C1180 C1181 1.377 . S
C1181 H1165 0.930 . S
C1181 C1180 1.377 . S
C1181 C1182 1.379 . S
C1182 H1166 0.931 . S
C1182 C1176 1.383 . S
C1182 C1181 1.379 . S
H1183 C1177 0.959 . S
H1184 C1177 0.961 . S
H1185 C1177 0.960 . S
H1186 C1178 0.930 . S
H1187 C1179 0.929 . S
H1188 C1196 0.929 . S
H1189 C1198 0.930 . S
H1190 C1200 0.930 . S
H1191 C1203 0.929 . S
H1192 C1206 0.930 . S
H1193 C1208 0.960 . S
H1194 C1208 0.960 . S
H1195 C1208 0.960 . S
C1196 H1188 0.929 . S
C1196 C1197 1.377 . S
C1196 C1198 1.384 . S
C1197 C1196 1.377 . S
C1197 C1203 1.390 . S
C1198 H1189 0.930 . S
C1198 C1196 1.384 . S
C1198 C1199 1.372 . S
C1199 C1198 1.372 . S
C1199 C1200 1.400 . S
C1199 C1204 1.490 . S
C1200 H1190 0.930 . S
C1200 C1199 1.400 . S
C1200 C1203 1.386 . S
H1201 C1217 0.930 . S
H1202 C1218 0.931 . S
C1203 H1191 0.929 . S
C1203 C1197 1.390 . S
C1203 C1200 1.386 . S
C1204 C1199 1.490 . S
C1204 C1206 1.395 . S
C1204 C1207 1.403 . S
H1205 C1211 0.930 . S
C1206 H1192 0.930 . S
C1206 C1204 1.395 . S
C1206 C1209 1.403 . S
C1207 C1204 1.403 . S
C1207 C1208 1.524 . S
C1207 C1211 1.400 . S
C1208 H1193 0.960 . S
C1208 H1194 0.960 . S
C1208 H1195 0.960 . S
C1208 C1207 1.524 . S
C1209 C1206 1.403 . S
C1209 C1210 1.392 . S
C1209 C1213 1.495 . S
C1210 C1209 1.392 . S
C1210 C1211 1.385 . S
C1210 C1212 1.478 . S
C1211 H1205 0.930 . S
C1211 C1207 1.400 . S
C1211 C1210 1.385 . S
C1212 C1210 1.478 . S
C1212 C1214 1.381 . S
C1212 C1218 1.383 . S
C1213 C1209 1.495 . S
C1213 H1219 0.959 . S
C1213 H1220 0.961 . S
C1213 H1221 0.960 . S
C1214 C1212 1.381 . S
C1214 C1215 1.394 . S
C1214 H1222 0.930 . S
C1215 C1214 1.394 . S
C1215 C1216 1.383 . S
C1215 H1223 0.929 . S
C1216 C1215 1.383 . S
C1216 C1217 1.377 . S
C1217 H1201 0.930 . S
C1217 C1216 1.377 . S
C1217 C1218 1.379 . S
C1218 H1202 0.931 . S
C1218 C1212 1.383 . S
C1218 C1217 1.379 . S
H1219 C1213 0.959 . S
H1220 C1213 0.961 . S
H1221 C1213 0.960 . S
H1222 C1214 0.930 . S
H1223 C1215 0.929 . S
H1224 C1232 0.929 . S
H1225 C1234 0.930 . S
H1226 C1236 0.930 . S
H1227 C1239 0.929 . S
H1228 C1242 0.930 . S
H1229 C1244 0.960 . S
H1230 C1244 0.960 . S
H1231 C1244 0.960 . S
C1232 H1224 0.929 . S
C1232 C1233 1.377 . S
C1232 C1234 1.384 . S
C1233 C1232 1.377 . S
C1233 C1239 1.390 . S
C1234 H1225 0.930 . S
C1234 C1232 1.384 . S
C1234 C1235 1.372 . S
C1235 C1234 1.372 . S
C1235 C1236 1.400 . S
C1235 C1240 1.490 . S
C1236 H1226 0.930 . S
C1236 C1235 1.400 . S
C1236 C1239 1.386 . S
H1237 C1253 0.930 . S
H1238 C1254 0.931 . S
C1239 H1227 0.929 . S
C1239 C1233 1.390 . S
C1239 C1236 1.386 . S
C1240 C1235 1.490 . S
C1240 C1242 1.395 . S
C1240 C1243 1.403 . S
H1241 C1247 0.930 . S
C1242 H1228 0.930 . S
C1242 C1240 1.395 . S
C1242 C1245 1.403 . S
C1243 C1240 1.403 . S
C1243 C1244 1.524 . S
C1243 C1247 1.400 . S
C1244 H1229 0.960 . S
C1244 H1230 0.960 . S
C1244 H1231 0.960 . S
C1244 C1243 1.524 . S
C1245 C1242 1.403 . S
C1245 C1246 1.392 . S
C1245 C1249 1.495 . S
C1246 C1245 1.392 . S
C1246 C1247 1.385 . S
C1246 C1248 1.478 . S
C1247 H1241 0.930 . S
C1247 C1243 1.400 . S
C1247 C1246 1.385 . S
C1248 C1246 1.478 . S
C1248 C1250 1.381 . S
C1248 C1254 1.383 . S
C1249 C1245 1.495 . S
C1249 H1255 0.959 . S
C1249 H1256 0.961 . S
C1249 H1257 0.960 . S
C1250 C1248 1.381 . S
C1250 C1251 1.394 . S
C1250 H1258 0.930 . S
C1251 C1250 1.394 . S
C1251 C1252 1.383 . S
C1251 H1259 0.929 . S
C1252 C1251 1.383 . S
C1252 C1253 1.377 . S
C1253 H1237 0.930 . S
C1253 C1252 1.377 . S
C1253 C1254 1.379 . S
C1254 H1238 0.931 . S
C1254 C1248 1.383 . S
C1254 C1253 1.379 . S
H1255 C1249 0.959 . S
H1256 C1249 0.961 . S
H1257 C1249 0.960 . S
H1258 C1250 0.930 . S
H1259 C1251 0.929 . S
H1260 C1268 0.929 . S
H1261 C1270 0.930 . S
H1262 C1272 0.930 . S
H1263 C1275 0.929 . S
H1264 C1278 0.930 . S
H1265 C1280 0.960 . S
H1266 C1280 0.960 . S
H1267 C1280 0.960 . S
C1268 H1260 0.929 . S
C1268 C1269 1.377 . S
C1268 C1270 1.384 . S
C1269 C1268 1.377 . S
C1269 C1275 1.390 . S
C1270 H1261 0.930 . S
C1270 C1268 1.384 . S
C1270 C1271 1.372 . S
C1271 C1270 1.372 . S
C1271 C1272 1.400 . S
C1271 C1276 1.490 . S
C1272 H1262 0.930 . S
C1272 C1271 1.400 . S
C1272 C1275 1.386 . S
H1273 C1289 0.930 . S
H1274 C1290 0.931 . S
C1275 H1263 0.929 . S
C1275 C1269 1.390 . S
C1275 C1272 1.386 . S
C1276 C1271 1.490 . S
C1276 C1278 1.395 . S
C1276 C1279 1.403 . S
H1277 C1283 0.930 . S
C1278 H1264 0.930 . S
C1278 C1276 1.395 . S
C1278 C1281 1.403 . S
C1279 C1276 1.403 . S
C1279 C1280 1.524 . S
C1279 C1283 1.400 . S
C1280 H1265 0.960 . S
C1280 H1266 0.960 . S
C1280 H1267 0.960 . S
C1280 C1279 1.524 . S
C1281 C1278 1.403 . S
C1281 C1282 1.392 . S
C1281 C1285 1.495 . S
C1282 C1281 1.392 . S
C1282 C1283 1.385 . S
C1282 C1284 1.478 . S
C1283 H1277 0.930 . S
C1283 C1279 1.400 . S
C1283 C1282 1.385 . S
C1284 C1282 1.478 . S
C1284 C1286 1.381 . S
C1284 C1290 1.383 . S
C1285 C1281 1.495 . S
C1285 H1291 0.959 . S
C1285 H1292 0.961 . S
C1285 H1293 0.960 . S
C1286 C1284 1.381 . S
C1286 C1287 1.394 . S
C1286 H1294 0.930 . S
C1287 C1286 1.394 . S
C1287 C1288 1.383 . S
C1287 H1295 0.929 . S
C1288 C1287 1.383 . S
C1288 C1289 1.377 . S
C1289 H1273 0.930 . S
C1289 C1288 1.377 . S
C1289 C1290 1.379 . S
C1290 H1274 0.931 . S
C1290 C1284 1.383 . S
C1290 C1289 1.379 . S
H1291 C1285 0.959 . S
H1292 C1285 0.961 . S
H1293 C1285 0.960 . S
H1294 C1286 0.930 . S
H1295 C1287 0.929 . S
H1296 C1304 0.929 . S
H1297 C1306 0.930 . S
H1298 C1308 0.930 . S
H1299 C1311 0.929 . S
H1300 C1314 0.930 . S
H1301 C1316 0.960 . S
H1302 C1316 0.960 . S
H1303 C1316 0.960 . S
C1304 H1296 0.929 . S
C1304 C1305 1.377 . S
C1304 C1306 1.384 . S
C1305 C1304 1.377 . S
C1305 C1311 1.390 . S
C1306 H1297 0.930 . S
C1306 C1304 1.384 . S
C1306 C1307 1.372 . S
C1307 C1306 1.372 . S
C1307 C1308 1.400 . S
C1307 C1312 1.490 . S
C1308 H1298 0.930 . S
C1308 C1307 1.400 . S
C1308 C1311 1.386 . S
H1309 C1325 0.930 . S
H1310 C1326 0.931 . S
C1311 H1299 0.929 . S
C1311 C1305 1.390 . S
C1311 C1308 1.386 . S
C1312 C1307 1.490 . S
C1312 C1314 1.395 . S
C1312 C1315 1.403 . S
H1313 C1319 0.930 . S
C1314 H1300 0.930 . S
C1314 C1312 1.395 . S
C1314 C1317 1.403 . S
C1315 C1312 1.403 . S
C1315 C1316 1.524 . S
C1315 C1319 1.400 . S
C1316 H1301 0.960 . S
C1316 H1302 0.960 . S
C1316 H1303 0.960 . S
C1316 C1315 1.524 . S
C1317 C1314 1.403 . S
C1317 C1318 1.392 . S
C1317 C1321 1.495 . S
C1318 C1317 1.392 . S
C1318 C1319 1.385 . S
C1318 C1320 1.478 . S
C1319 H1313 0.930 . S
C1319 C1315 1.400 . S
C1319 C1318 1.385 . S
C1320 C1318 1.478 . S
C1320 C1322 1.381 . S
C1320 C1326 1.383 . S
C1321 C1317 1.495 . S
C1321 H1327 0.959 . S
C1321 H1328 0.961 . S
C1321 H1329 0.960 . S
C1322 C1320 1.381 . S
C1322 C1323 1.394 . S
C1322 H1330 0.930 . S
C1323 C1322 1.394 . S
C1323 C1324 1.383 . S
C1323 H1331 0.929 . S
C1324 C1323 1.383 . S
C1324 C1325 1.377 . S
C1325 H1309 0.930 . S
C1325 C1324 1.377 . S
C1325 C1326 1.379 . S
C1326 H1310 0.931 . S
C1326 C1320 1.383 . S
C1326 C1325 1.379 . S
H1327 C1321 0.959 . S
H1328 C1321 0.961 . S
H1329 C1321 0.960 . S
H1330 C1322 0.930 . S
H1331 C1323 0.929 . S
H1332 C1340 0.929 . S
H1333 C1342 0.930 . S
H1334 C1344 0.930 . S
H1335 C1347 0.929 . S
H1336 C1350 0.930 . S
H1337 C1352 0.960 . S
H1338 C1352 0.960 . S
H1339 C1352 0.960 . S
C1340 H1332 0.929 . S
C1340 C1341 1.377 . S
C1340 C1342 1.384 . S
C1341 C1340 1.377 . S
C1341 C1347 1.390 . S
C1342 H1333 0.930 . S
C1342 C1340 1.384 . S
C1342 C1343 1.372 . S
C1343 C1342 1.372 . S
C1343 C1344 1.400 . S
C1343 C1348 1.490 . S
C1344 H1334 0.930 . S
C1344 C1343 1.400 . S
C1344 C1347 1.386 . S
H1345 C1361 0.930 . S
H1346 C1362 0.931 . S
C1347 H1335 0.929 . S
C1347 C1341 1.390 . S
C1347 C1344 1.386 . S
C1348 C1343 1.490 . S
C1348 C1350 1.395 . S
C1348 C1351 1.403 . S
H1349 C1355 0.930 . S
C1350 H1336 0.930 . S
C1350 C1348 1.395 . S
C1350 C1353 1.403 . S
C1351 C1348 1.403 . S
C1351 C1352 1.524 . S
C1351 C1355 1.400 . S
C1352 H1337 0.960 . S
C1352 H1338 0.960 . S
C1352 H1339 0.960 . S
C1352 C1351 1.524 . S
C1353 C1350 1.403 . S
C1353 C1354 1.392 . S
C1353 C1357 1.495 . S
C1354 C1353 1.392 . S
C1354 C1355 1.385 . S
C1354 C1356 1.478 . S
C1355 H1349 0.930 . S
C1355 C1351 1.400 . S
C1355 C1354 1.385 . S
C1356 C1354 1.478 . S
C1356 C1358 1.381 . S
C1356 C1362 1.383 . S
C1357 C1353 1.495 . S
C1357 H1363 0.959 . S
C1357 H1364 0.961 . S
C1357 H1365 0.960 . S
C1358 C1356 1.381 . S
C1358 C1359 1.394 . S
C1358 H1366 0.930 . S
C1359 C1358 1.394 . S
C1359 C1360 1.383 . S
C1359 H1367 0.929 . S
C1360 C1359 1.383 . S
C1360 C1361 1.377 . S
C1361 H1345 0.930 . S
C1361 C1360 1.377 . S
C1361 C1362 1.379 . S
C1362 H1346 0.931 . S
C1362 C1356 1.383 . S
C1362 C1361 1.379 . S
H1363 C1357 0.959 . S
H1364 C1357 0.961 . S
H1365 C1357 0.960 . S
H1366 C1358 0.930 . S
H1367 C1359 0.929 . S
H1368 C1376 0.929 . S
H1369 C1378 0.930 . S
H1370 C1380 0.930 . S
H1371 C1383 0.929 . S
H1372 C1386 0.930 . S
H1373 C1388 0.960 . S
H1374 C1388 0.960 . S
H1375 C1388 0.960 . S
C1376 H1368 0.929 . S
C1376 C1377 1.377 . S
C1376 C1378 1.384 . S
C1377 C1376 1.377 . S
C1377 C1383 1.390 . S
C1378 H1369 0.930 . S
C1378 C1376 1.384 . S
C1378 C1379 1.372 . S
C1379 C1378 1.372 . S
C1379 C1380 1.400 . S
C1379 C1384 1.490 . S
C1380 H1370 0.930 . S
C1380 C1379 1.400 . S
C1380 C1383 1.386 . S
H1381 C1397 0.930 . S
H1382 C1398 0.931 . S
C1383 H1371 0.929 . S
C1383 C1377 1.390 . S
C1383 C1380 1.386 . S
C1384 C1379 1.490 . S
C1384 C1386 1.395 . S
C1384 C1387 1.403 . S
H1385 C1391 0.930 . S
C1386 H1372 0.930 . S
C1386 C1384 1.395 . S
C1386 C1389 1.403 . S
C1387 C1384 1.403 . S
C1387 C1388 1.524 . S
C1387 C1391 1.400 . S
C1388 H1373 0.960 . S
C1388 H1374 0.960 . S
C1388 H1375 0.960 . S
C1388 C1387 1.524 . S
C1389 C1386 1.403 . S
C1389 C1390 1.392 . S
C1389 C1393 1.495 . S
C1390 C1389 1.392 . S
C1390 C1391 1.385 . S
C1390 C1392 1.478 . S
C1391 H1385 0.930 . S
C1391 C1387 1.400 . S
C1391 C1390 1.385 . S
C1392 C1390 1.478 . S
C1392 C1394 1.381 . S
C1392 C1398 1.383 . S
C1393 C1389 1.495 . S
C1393 H1399 0.959 . S
C1393 H1400 0.961 . S
C1393 H1401 0.960 . S
C1394 C1392 1.381 . S
C1394 C1395 1.394 . S
C1394 H1402 0.930 . S
C1395 C1394 1.394 . S
C1395 C1396 1.383 . S
C1395 H1403 0.929 . S
C1396 C1395 1.383 . S
C1396 C1397 1.377 . S
C1397 H1381 0.930 . S
C1397 C1396 1.377 . S
C1397 C1398 1.379 . S
C1398 H1382 0.931 . S
C1398 C1392 1.383 . S
C1398 C1397 1.379 . S
H1399 C1393 0.959 . S
H1400 C1393 0.961 . S
H1401 C1393 0.960 . S
H1402 C1394 0.930 . S
H1403 C1395 0.929 . S
H1404 C1412 0.929 . S
H1405 C1414 0.930 . S
H1406 C1416 0.930 . S
H1407 C1419 0.929 . S
H1408 C1422 0.930 . S
H1409 C1424 0.960 . S
H1410 C1424 0.960 . S
H1411 C1424 0.960 . S
C1412 H1404 0.929 . S
C1412 C1413 1.377 . S
C1412 C1414 1.384 . S
C1413 C1412 1.377 . S
C1413 C1419 1.390 . S
C1414 H1405 0.930 . S
C1414 C1412 1.384 . S
C1414 C1415 1.372 . S
C1415 C1414 1.372 . S
C1415 C1416 1.400 . S
C1415 C1420 1.490 . S
C1416 H1406 0.930 . S
C1416 C1415 1.400 . S
C1416 C1419 1.386 . S
H1417 C1433 0.930 . S
H1418 C1434 0.931 . S
C1419 H1407 0.929 . S
C1419 C1413 1.390 . S
C1419 C1416 1.386 . S
C1420 C1415 1.490 . S
C1420 C1422 1.395 . S
C1420 C1423 1.403 . S
H1421 C1427 0.930 . S
C1422 H1408 0.930 . S
C1422 C1420 1.395 . S
C1422 C1425 1.403 . S
C1423 C1420 1.403 . S
C1423 C1424 1.524 . S
C1423 C1427 1.400 . S
C1424 H1409 0.960 . S
C1424 H1410 0.960 . S
C1424 H1411 0.960 . S
C1424 C1423 1.524 . S
C1425 C1422 1.403 . S
C1425 C1426 1.392 . S
C1425 C1429 1.495 . S
C1426 C1425 1.392 . S
C1426 C1427 1.385 . S
C1426 C1428 1.478 . S
C1427 H1421 0.930 . S
C1427 C1423 1.400 . S
C1427 C1426 1.385 . S
C1428 C1426 1.478 . S
C1428 C1430 1.381 . S
C1428 C1434 1.383 . S
C1429 C1425 1.495 . S
C1429 H1435 0.959 . S
C1429 H1436 0.961 . S
C1429 H1437 0.960 . S
C1430 C1428 1.381 . S
C1430 C1431 1.394 . S
C1430 H1438 0.930 . S
C1431 C1430 1.394 . S
C1431 C1432 1.383 . S
C1431 H1439 0.929 . S
C1432 C1431 1.383 . S
C1432 C1433 1.377 . S
C1433 H1417 0.930 . S
C1433 C1432 1.377 . S
C1433 C1434 1.379 . S
C1434 H1418 0.931 . S
C1434 C1428 1.383 . S
C1434 C1433 1.379 . S
H1435 C1429 0.959 . S
H1436 C1429 0.961 . S
H1437 C1429 0.960 . S
H1438 C1430 0.930 . S
H1439 C1431 0.929 . S
H1440 C1448 0.929 . S
H1441 C1450 0.930 . S
H1442 C1452 0.930 . S
H1443 C1455 0.929 . S
H1444 C1458 0.930 . S
H1445 C1460 0.960 . S
H1446 C1460 0.960 . S
H1447 C1460 0.960 . S
C1448 H1440 0.929 . S
C1448 C1449 1.377 . S
C1448 C1450 1.384 . S
C1449 C1448 1.377 . S
C1449 C1455 1.390 . S
C1450 H1441 0.930 . S
C1450 C1448 1.384 . S
C1450 C1451 1.372 . S
C1451 C1450 1.372 . S
C1451 C1452 1.400 . S
C1451 C1456 1.490 . S
C1452 H1442 0.930 . S
C1452 C1451 1.400 . S
C1452 C1455 1.386 . S
H1453 C1469 0.930 . S
H1454 C1470 0.931 . S
C1455 H1443 0.929 . S
C1455 C1449 1.390 . S
C1455 C1452 1.386 . S
C1456 C1451 1.490 . S
C1456 C1458 1.395 . S
C1456 C1459 1.403 . S
H1457 C1463 0.930 . S
C1458 H1444 0.930 . S
C1458 C1456 1.395 . S
C1458 C1461 1.403 . S
C1459 C1456 1.403 . S
C1459 C1460 1.524 . S
C1459 C1463 1.400 . S
C1460 H1445 0.960 . S
C1460 H1446 0.960 . S
C1460 H1447 0.960 . S
C1460 C1459 1.524 . S
C1461 C1458 1.403 . S
C1461 C1462 1.392 . S
C1461 C1465 1.495 . S
C1462 C1461 1.392 . S
C1462 C1463 1.385 . S
C1462 C1464 1.478 . S
C1463 H1457 0.930 . S
C1463 C1459 1.400 . S
C1463 C1462 1.385 . S
C1464 C1462 1.478 . S
C1464 C1466 1.381 . S
C1464 C1470 1.383 . S
C1465 C1461 1.495 . S
C1465 H1471 0.959 . S
C1465 H1472 0.961 . S
C1465 H1473 0.960 . S
C1466 C1464 1.381 . S
C1466 C1467 1.394 . S
C1466 H1474 0.930 . S
C1467 C1466 1.394 . S
C1467 C1468 1.383 . S
C1467 H1475 0.929 . S
C1468 C1467 1.383 . S
C1468 C1469 1.377 . S
C1469 H1453 0.930 . S
C1469 C1468 1.377 . S
C1469 C1470 1.379 . S
C1470 H1454 0.931 . S
C1470 C1464 1.383 . S
C1470 C1469 1.379 . S
H1471 C1465 0.959 . S
H1472 C1465 0.961 . S
H1473 C1465 0.960 . S
H1474 C1466 0.930 . S
H1475 C1467 0.929 . S
H1476 C1484 0.929 . S
H1477 C1486 0.930 . S
H1478 C1488 0.930 . S
H1479 C1491 0.929 . S
H1480 C1494 0.930 . S
H1481 C1496 0.960 . S
H1482 C1496 0.960 . S
H1483 C1496 0.960 . S
C1484 H1476 0.929 . S
C1484 C1485 1.377 . S
C1484 C1486 1.384 . S
C1485 C1484 1.377 . S
C1485 C1491 1.390 . S
C1486 H1477 0.930 . S
C1486 C1484 1.384 . S
C1486 C1487 1.372 . S
C1487 C1486 1.372 . S
C1487 C1488 1.400 . S
C1487 C1492 1.490 . S
C1488 H1478 0.930 . S
C1488 C1487 1.400 . S
C1488 C1491 1.386 . S
H1489 C1505 0.930 . S
H1490 C1506 0.931 . S
C1491 H1479 0.929 . S
C1491 C1485 1.390 . S
C1491 C1488 1.386 . S
C1492 C1487 1.490 . S
C1492 C1494 1.395 . S
C1492 C1495 1.403 . S
H1493 C1499 0.930 . S
C1494 H1480 0.930 . S
C1494 C1492 1.395 . S
C1494 C1497 1.403 . S
C1495 C1492 1.403 . S
C1495 C1496 1.524 . S
C1495 C1499 1.400 . S
C1496 H1481 0.960 . S
C1496 H1482 0.960 . S
C1496 H1483 0.960 . S
C1496 C1495 1.524 . S
C1497 C1494 1.403 . S
C1497 C1498 1.392 . S
C1497 C1501 1.495 . S
C1498 C1497 1.392 . S
C1498 C1499 1.385 . S
C1498 C1500 1.478 . S
C1499 H1493 0.930 . S
C1499 C1495 1.400 . S
C1499 C1498 1.385 . S
C1500 C1498 1.478 . S
C1500 C1502 1.381 . S
C1500 C1506 1.383 . S
C1501 C1497 1.495 . S
C1501 H1507 0.959 . S
C1501 H1508 0.961 . S
C1501 H1509 0.960 . S
C1502 C1500 1.381 . S
C1502 C1503 1.394 . S
C1502 H1510 0.930 . S
C1503 C1502 1.394 . S
C1503 C1504 1.383 . S
C1503 H1511 0.929 . S
C1504 C1503 1.383 . S
C1504 C1505 1.377 . S
C1505 H1489 0.930 . S
C1505 C1504 1.377 . S
C1505 C1506 1.379 . S
C1506 H1490 0.931 . S
C1506 C1500 1.383 . S
C1506 C1505 1.379 . S
H1507 C1501 0.959 . S
H1508 C1501 0.961 . S
H1509 C1501 0.960 . S
H1510 C1502 0.930 . S
H1511 C1503 0.929 . S
H1512 C1520 0.929 . S
H1513 C1522 0.930 . S
H1514 C1524 0.930 . S
H1515 C1527 0.929 . S
H1516 C1530 0.930 . S
H1517 C1532 0.960 . S
H1518 C1532 0.960 . S
H1519 C1532 0.960 . S
C1520 H1512 0.929 . S
C1520 C1521 1.377 . S
C1520 C1522 1.384 . S
C1521 C1520 1.377 . S
C1521 C1527 1.390 . S
C1522 H1513 0.930 . S
C1522 C1520 1.384 . S
C1522 C1523 1.372 . S
C1523 C1522 1.372 . S
C1523 C1524 1.400 . S
C1523 C1528 1.490 . S
C1524 H1514 0.930 . S
C1524 C1523 1.400 . S
C1524 C1527 1.386 . S
H1525 C1541 0.930 . S
H1526 C1542 0.931 . S
C1527 H1515 0.929 . S
C1527 C1521 1.390 . S
C1527 C1524 1.386 . S
C1528 C1523 1.490 . S
C1528 C1530 1.395 . S
C1528 C1531 1.403 . S
H1529 C1535 0.930 . S
C1530 H1516 0.930 . S
C1530 C1528 1.395 . S
C1530 C1533 1.403 . S
C1531 C1528 1.403 . S
C1531 C1532 1.524 . S
C1531 C1535 1.400 . S
C1532 H1517 0.960 . S
C1532 H1518 0.960 . S
C1532 H1519 0.960 . S
C1532 C1531 1.524 . S
C1533 C1530 1.403 . S
C1533 C1534 1.392 . S
C1533 C1537 1.495 . S
C1534 C1533 1.392 . S
C1534 C1535 1.385 . S
C1534 C1536 1.478 . S
C1535 H1529 0.930 . S
C1535 C1531 1.400 . S
C1535 C1534 1.385 . S
C1536 C1534 1.478 . S
C1536 C1538 1.381 . S
C1536 C1542 1.383 . S
C1537 C1533 1.495 . S
C1537 H1543 0.959 . S
C1537 H1544 0.961 . S
C1537 H1545 0.960 . S
C1538 C1536 1.381 . S
C1538 C1539 1.394 . S
C1538 H1546 0.930 . S
C1539 C1538 1.394 . S
C1539 C1540 1.383 . S
C1539 H1547 0.929 . S
C1540 C1539 1.383 . S
C1540 C1541 1.377 . S
C1541 H1525 0.930 . S
C1541 C1540 1.377 . S
C1541 C1542 1.379 . S
C1542 H1526 0.931 . S
C1542 C1536 1.383 . S
C1542 C1541 1.379 . S
H1543 C1537 0.959 . S
H1544 C1537 0.961 . S
H1545 C1537 0.960 . S
H1546 C1538 0.930 . S
H1547 C1539 0.929 . S
H1548 C1556 0.929 . S
H1549 C1558 0.930 . S
H1550 C1560 0.930 . S
H1551 C1563 0.929 . S
H1552 C1566 0.930 . S
H1553 C1568 0.960 . S
H1554 C1568 0.960 . S
H1555 C1568 0.960 . S
C1556 H1548 0.929 . S
C1556 C1557 1.377 . S
C1556 C1558 1.384 . S
C1557 C1556 1.377 . S
C1557 C1563 1.390 . S
C1558 H1549 0.930 . S
C1558 C1556 1.384 . S
C1558 C1559 1.372 . S
C1559 C1558 1.372 . S
C1559 C1560 1.400 . S
C1559 C1564 1.490 . S
C1560 H1550 0.930 . S
C1560 C1559 1.400 . S
C1560 C1563 1.386 . S
H1561 C1577 0.930 . S
H1562 C1578 0.931 . S
C1563 H1551 0.929 . S
C1563 C1557 1.390 . S
C1563 C1560 1.386 . S
C1564 C1559 1.490 . S
C1564 C1566 1.395 . S
C1564 C1567 1.403 . S
H1565 C1571 0.930 . S
C1566 H1552 0.930 . S
C1566 C1564 1.395 . S
C1566 C1569 1.403 . S
C1567 C1564 1.403 . S
C1567 C1568 1.524 . S
C1567 C1571 1.400 . S
C1568 H1553 0.960 . S
C1568 H1554 0.960 . S
C1568 H1555 0.960 . S
C1568 C1567 1.524 . S
C1569 C1566 1.403 . S
C1569 C1570 1.392 . S
C1569 C1573 1.495 . S
C1570 C1569 1.392 . S
C1570 C1571 1.385 . S
C1570 C1572 1.478 . S
C1571 H1565 0.930 . S
C1571 C1567 1.400 . S
C1571 C1570 1.385 . S
C1572 C1570 1.478 . S
C1572 C1574 1.381 . S
C1572 C1578 1.383 . S
C1573 C1569 1.495 . S
C1573 H1579 0.959 . S
C1573 H1580 0.961 . S
C1573 H1581 0.960 . S
C1574 C1572 1.381 . S
C1574 C1575 1.394 . S
C1574 H1582 0.930 . S
C1575 C1574 1.394 . S
C1575 C1576 1.383 . S
C1575 H1583 0.929 . S
C1576 C1575 1.383 . S
C1576 C1577 1.377 . S
C1577 H1561 0.930 . S
C1577 C1576 1.377 . S
C1577 C1578 1.379 . S
C1578 H1562 0.931 . S
C1578 C1572 1.383 . S
C1578 C1577 1.379 . S
H1579 C1573 0.959 . S
H1580 C1573 0.961 . S
H1581 C1573 0.960 . S
H1582 C1574 0.930 . S
H1583 C1575 0.929 . S
H1584 C1592 0.929 . S
H1585 C1594 0.930 . S
H1586 C1596 0.930 . S
H1587 C1599 0.929 . S
H1588 C1602 0.930 . S
H1589 C1604 0.960 . S
H1590 C1604 0.960 . S
H1591 C1604 0.960 . S
C1592 H1584 0.929 . S
C1592 C1593 1.377 . S
C1592 C1594 1.384 . S
C1593 C1592 1.377 . S
C1593 C1599 1.390 . S
C1594 H1585 0.930 . S
C1594 C1592 1.384 . S
C1594 C1595 1.372 . S
C1595 C1594 1.372 . S
C1595 C1596 1.400 . S
C1595 C1600 1.490 . S
C1596 H1586 0.930 . S
C1596 C1595 1.400 . S
C1596 C1599 1.386 . S
H1597 C1613 0.930 . S
H1598 C1614 0.931 . S
C1599 H1587 0.929 . S
C1599 C1593 1.390 . S
C1599 C1596 1.386 . S
C1600 C1595 1.490 . S
C1600 C1602 1.395 . S
C1600 C1603 1.403 . S
H1601 C1607 0.930 . S
C1602 H1588 0.930 . S
C1602 C1600 1.395 . S
C1602 C1605 1.403 . S
C1603 C1600 1.403 . S
C1603 C1604 1.524 . S
C1603 C1607 1.400 . S
C1604 H1589 0.960 . S
C1604 H1590 0.960 . S
C1604 H1591 0.960 . S
C1604 C1603 1.524 . S
C1605 C1602 1.403 . S
C1605 C1606 1.392 . S
C1605 C1609 1.495 . S
C1606 C1605 1.392 . S
C1606 C1607 1.385 . S
C1606 C1608 1.478 . S
C1607 H1601 0.930 . S
C1607 C1603 1.400 . S
C1607 C1606 1.385 . S
C1608 C1606 1.478 . S
C1608 C1610 1.381 . S
C1608 C1614 1.383 . S
C1609 C1605 1.495 . S
C1609 H1615 0.959 . S
C1609 H1616 0.961 . S
C1609 H1617 0.960 . S
C1610 C1608 1.381 . S
C1610 C1611 1.394 . S
C1610 H1618 0.930 . S
C1611 C1610 1.394 . S
C1611 C1612 1.383 . S
C1611 H1619 0.929 . S
C1612 C1611 1.383 . S
C1612 C1613 1.377 . S
C1613 H1597 0.930 . S
C1613 C1612 1.377 . S
C1613 C1614 1.379 . S
C1614 H1598 0.931 . S
C1614 C1608 1.383 . S
C1614 C1613 1.379 . S
H1615 C1609 0.959 . S
H1616 C1609 0.961 . S
H1617 C1609 0.960 . S
H1618 C1610 0.930 . S
H1619 C1611 0.929 . S
H1620 C1628 0.929 . S
H1621 C1630 0.930 . S
H1622 C1632 0.930 . S
H1623 C1635 0.929 . S
H1624 C1638 0.930 . S
H1625 C1640 0.960 . S
H1626 C1640 0.960 . S
H1627 C1640 0.960 . S
C1628 H1620 0.929 . S
C1628 C1629 1.377 . S
C1628 C1630 1.384 . S
C1629 C1628 1.377 . S
C1629 C1635 1.390 . S
C1630 H1621 0.930 . S
C1630 C1628 1.384 . S
C1630 C1631 1.372 . S
C1631 C1630 1.372 . S
C1631 C1632 1.400 . S
C1631 C1636 1.490 . S
C1632 H1622 0.930 . S
C1632 C1631 1.400 . S
C1632 C1635 1.386 . S
H1633 C1649 0.930 . S
H1634 C1650 0.931 . S
C1635 H1623 0.929 . S
C1635 C1629 1.390 . S
C1635 C1632 1.386 . S
C1636 C1631 1.490 . S
C1636 C1638 1.395 . S
C1636 C1639 1.403 . S
H1637 C1643 0.930 . S
C1638 H1624 0.930 . S
C1638 C1636 1.395 . S
C1638 C1641 1.403 . S
C1639 C1636 1.403 . S
C1639 C1640 1.524 . S
C1639 C1643 1.400 . S
C1640 H1625 0.960 . S
C1640 H1626 0.960 . S
C1640 H1627 0.960 . S
C1640 C1639 1.524 . S
C1641 C1638 1.403 . S
C1641 C1642 1.392 . S
C1641 C1645 1.495 . S
C1642 C1641 1.392 . S
C1642 C1643 1.385 . S
C1642 C1644 1.478 . S
C1643 H1637 0.930 . S
C1643 C1639 1.400 . S
C1643 C1642 1.385 . S
C1644 C1642 1.478 . S
C1644 C1646 1.381 . S
C1644 C1650 1.383 . S
C1645 C1641 1.495 . S
C1645 H1651 0.959 . S
C1645 H1652 0.961 . S
C1645 H1653 0.960 . S
C1646 C1644 1.381 . S
C1646 C1647 1.394 . S
C1646 H1654 0.930 . S
C1647 C1646 1.394 . S
C1647 C1648 1.383 . S
C1647 H1655 0.929 . S
C1648 C1647 1.383 . S
C1648 C1649 1.377 . S
C1649 H1633 0.930 . S
C1649 C1648 1.377 . S
C1649 C1650 1.379 . S
C1650 H1634 0.931 . S
C1650 C1644 1.383 . S
C1650 C1649 1.379 . S
H1651 C1645 0.959 . S
H1652 C1645 0.961 . S
H1653 C1645 0.960 . S
H1654 C1646 0.930 . S
H1655 C1647 0.929 . S
H1656 C1664 0.929 . S
H1657 C1666 0.930 . S
H1658 C1668 0.930 . S
H1659 C1671 0.929 . S
H1660 C1674 0.930 . S
H1661 C1676 0.960 . S
H1662 C1676 0.960 . S
H1663 C1676 0.960 . S
C1664 H1656 0.929 . S
C1664 C1665 1.377 . S
C1664 C1666 1.384 . S
C1665 C1664 1.377 . S
C1665 C1671 1.390 . S
C1666 H1657 0.930 . S
C1666 C1664 1.384 . S
C1666 C1667 1.372 . S
C1667 C1666 1.372 . S
C1667 C1668 1.400 . S
C1667 C1672 1.490 . S
C1668 H1658 0.930 . S
C1668 C1667 1.400 . S
C1668 C1671 1.386 . S
H1669 C1685 0.930 . S
H1670 C1686 0.931 . S
C1671 H1659 0.929 . S
C1671 C1665 1.390 . S
C1671 C1668 1.386 . S
C1672 C1667 1.490 . S
C1672 C1674 1.395 . S
C1672 C1675 1.403 . S
H1673 C1679 0.930 . S
C1674 H1660 0.930 . S
C1674 C1672 1.395 . S
C1674 C1677 1.403 . S
C1675 C1672 1.403 . S
C1675 C1676 1.524 . S
C1675 C1679 1.400 . S
C1676 H1661 0.960 . S
C1676 H1662 0.960 . S
C1676 H1663 0.960 . S
C1676 C1675 1.524 . S
C1677 C1674 1.403 . S
C1677 C1678 1.392 . S
C1677 C1681 1.495 . S
C1678 C1677 1.392 . S
C1678 C1679 1.385 . S
C1678 C1680 1.478 . S
C1679 H1673 0.930 . S
C1679 C1675 1.400 . S
C1679 C1678 1.385 . S
C1680 C1678 1.478 . S
C1680 C1682 1.381 . S
C1680 C1686 1.383 . S
C1681 C1677 1.495 . S
C1681 H1687 0.959 . S
C1681 H1688 0.961 . S
C1681 H1689 0.960 . S
C1682 C1680 1.381 . S
C1682 C1683 1.394 . S
C1682 H1690 0.930 . S
C1683 C1682 1.394 . S
C1683 C1684 1.383 . S
C1683 H1691 0.929 . S
C1684 C1683 1.383 . S
C1684 C1685 1.377 . S
C1685 H1669 0.930 . S
C1685 C1684 1.377 . S
C1685 C1686 1.379 . S
C1686 H1670 0.931 . S
C1686 C1680 1.383 . S
C1686 C1685 1.379 . S
H1687 C1681 0.959 . S
H1688 C1681 0.961 . S
H1689 C1681 0.960 . S
H1690 C1682 0.930 . S
H1691 C1683 0.929 . S
H1692 C1700 0.929 . S
H1693 C1702 0.930 . S
H1694 C1704 0.930 . S
H1695 C1707 0.929 . S
H1696 C1710 0.930 . S
H1697 C1712 0.960 . S
H1698 C1712 0.960 . S
H1699 C1712 0.960 . S
C1700 H1692 0.929 . S
C1700 C1701 1.377 . S
C1700 C1702 1.384 . S
C1701 C1700 1.377 . S
C1701 C1707 1.390 . S
C1702 H1693 0.930 . S
C1702 C1700 1.384 . S
C1702 C1703 1.372 . S
C1703 C1702 1.372 . S
C1703 C1704 1.400 . S
C1703 C1708 1.490 . S
C1704 H1694 0.930 . S
C1704 C1703 1.400 . S
C1704 C1707 1.386 . S
H1705 C1721 0.930 . S
H1706 C1722 0.931 . S
C1707 H1695 0.929 . S
C1707 C1701 1.390 . S
C1707 C1704 1.386 . S
C1708 C1703 1.490 . S
C1708 C1710 1.395 . S
C1708 C1711 1.403 . S
H1709 C1715 0.930 . S
C1710 H1696 0.930 . S
C1710 C1708 1.395 . S
C1710 C1713 1.403 . S
C1711 C1708 1.403 . S
C1711 C1712 1.524 . S
C1711 C1715 1.400 . S
C1712 H1697 0.960 . S
C1712 H1698 0.960 . S
C1712 H1699 0.960 . S
C1712 C1711 1.524 . S
C1713 C1710 1.403 . S
C1713 C1714 1.392 . S
C1713 C1717 1.495 . S
C1714 C1713 1.392 . S
C1714 C1715 1.385 . S
C1714 C1716 1.478 . S
C1715 H1709 0.930 . S
C1715 C1711 1.400 . S
C1715 C1714 1.385 . S
C1716 C1714 1.478 . S
C1716 C1718 1.381 . S
C1716 C1722 1.383 . S
C1717 C1713 1.495 . S
C1717 H1723 0.959 . S
C1717 H1724 0.961 . S
C1717 H1725 0.960 . S
C1718 C1716 1.381 . S
C1718 C1719 1.394 . S
C1718 H1726 0.930 . S
C1719 C1718 1.394 . S
C1719 C1720 1.383 . S
C1719 H1727 0.929 . S
C1720 C1719 1.383 . S
C1720 C1721 1.377 . S
C1721 H1705 0.930 . S
C1721 C1720 1.377 . S
C1721 C1722 1.379 . S
C1722 H1706 0.931 . S
C1722 C1716 1.383 . S
C1722 C1721 1.379 . S
H1723 C1717 0.959 . S
H1724 C1717 0.961 . S
H1725 C1717 0.960 . S
H1726 C1718 0.930 . S
H1727 C1719 0.929 . S
H1728 C1736 0.929 . S
H1729 C1738 0.930 . S
H1730 C1740 0.930 . S
H1731 C1743 0.929 . S
H1732 C1746 0.930 . S
H1733 C1748 0.960 . S
H1734 C1748 0.960 . S
H1735 C1748 0.960 . S
C1736 H1728 0.929 . S
C1736 C1737 1.377 . S
C1736 C1738 1.384 . S
C1737 C1736 1.377 . S
C1737 C1743 1.390 . S
C1738 H1729 0.930 . S
C1738 C1736 1.384 . S
C1738 C1739 1.372 . S
C1739 C1738 1.372 . S
C1739 C1740 1.400 . S
C1739 C1744 1.490 . S
C1740 H1730 0.930 . S
C1740 C1739 1.400 . S
C1740 C1743 1.386 . S
H1741 C1757 0.930 . S
H1742 C1758 0.931 . S
C1743 H1731 0.929 . S
C1743 C1737 1.390 . S
C1743 C1740 1.386 . S
C1744 C1739 1.490 . S
C1744 C1746 1.395 . S
C1744 C1747 1.403 1_655 S
H1745 C1751 0.930 . S
C1746 H1732 0.930 . S
C1746 C1744 1.395 . S
C1746 C1749 1.403 . S
C1747 C1744 1.403 1_455 S
C1747 C1748 1.524 . S
C1747 C1751 1.400 . S
C1748 H1733 0.960 . S
C1748 H1734 0.960 . S
C1748 H1735 0.960 . S
C1748 C1747 1.524 . S
C1749 C1746 1.403 . S
C1749 C1750 1.392 1_655 S
C1749 C1753 1.495 . S
C1750 C1749 1.392 1_455 S
C1750 C1751 1.385 . S
C1750 C1752 1.478 . S
C1751 H1745 0.930 . S
C1751 C1747 1.400 . S
C1751 C1750 1.385 . S
C1752 C1750 1.478 . S
C1752 C1754 1.381 . S
C1752 C1758 1.383 . S
C1753 C1749 1.495 . S
C1753 H1759 0.959 . S
C1753 H1760 0.961 . S
C1753 H1761 0.960 . S
C1754 C1752 1.381 . S
C1754 C1755 1.394 . S
C1754 H1762 0.930 . S
C1755 C1754 1.394 . S
C1755 C1756 1.383 . S
C1755 H1763 0.929 . S
C1756 C1755 1.383 . S
C1756 C1757 1.377 . S
C1757 H1741 0.930 . S
C1757 C1756 1.377 . S
C1757 C1758 1.379 . S
C1758 H1742 0.931 . S
C1758 C1752 1.383 . S
C1758 C1757 1.379 . S
H1759 C1753 0.959 . S
H1760 C1753 0.961 . S
H1761 C1753 0.960 . S
H1762 C1754 0.930 . S
H1763 C1755 0.929 . S
H1764 C1772 0.929 . S
H1765 C1774 0.930 . S
H1766 C1776 0.930 . S
H1767 C1779 0.929 . S
H1768 C1782 0.940 . S
H1769 C1784 0.960 . S
H1770 C1784 0.960 . S
H1771 C1784 0.960 . S
C1772 H1764 0.929 . S
C1772 C1773 1.377 . S
C1772 C1774 1.384 . S
C1773 C1772 1.377 . S
C1773 C1779 1.390 . S
C1774 H1765 0.930 . S
C1774 C1772 1.384 . S
C1774 C1775 1.372 . S
C1775 C1774 1.372 . S
C1775 C1776 1.400 . S
C1775 C1780 1.490 . S
C1776 H1766 0.930 . S
C1776 C1775 1.400 . S
C1776 C1779 1.386 . S
H1777 C1793 0.930 . S
H1778 C1794 0.931 . S
C1779 H1767 0.929 . S
C1779 C1773 1.390 . S
C1779 C1776 1.386 . S
C1780 C1775 1.490 . S
C1780 C1782 1.447 . S
C1780 C1783 1.403 . S
H1781 C1787 0.930 . S
C1782 H1768 0.940 . S
C1782 C1780 1.447 . S
C1782 C1785 1.345 1_565 S
C1783 C1780 1.403 . S
C1783 C1784 1.524 . S
C1783 C1787 1.400 1_565 S
C1784 H1769 0.960 . S
C1784 H1770 0.960 . S
C1784 H1771 0.960 . S
C1784 C1783 1.524 . S
C1785 C1782 1.345 1_545 S
C1785 C1786 1.392 . S
C1785 C1789 1.495 . S
C1786 C1785 1.392 . S
C1786 C1787 1.385 . S
C1786 C1788 1.478 . S
C1787 H1781 0.930 . S
C1787 C1783 1.400 1_545 S
C1787 C1786 1.385 . S
C1788 C1786 1.478 . S
C1788 C1790 1.381 . S
C1788 C1794 1.383 . S
C1789 C1785 1.495 . S
C1789 H1795 0.959 . S
C1789 H1796 0.961 . S
C1789 H1797 0.960 . S
C1790 C1788 1.381 . S
C1790 C1791 1.394 . S
C1790 H1798 0.930 . S
C1791 C1790 1.394 . S
C1791 C1792 1.383 . S
C1791 H1799 0.929 . S
C1792 C1791 1.383 . S
C1792 C1793 1.377 . S
C1793 H1777 0.930 . S
C1793 C1792 1.377 . S
C1793 C1794 1.379 . S
C1794 H1778 0.931 . S
C1794 C1788 1.383 . S
C1794 C1793 1.379 . S
H1795 C1789 0.959 . S
H1796 C1789 0.961 . S
H1797 C1789 0.960 . S
H1798 C1790 0.930 . S
H1799 C1791 0.929 . S
H1800 C1808 0.929 . S
H1801 C1810 0.930 . S
H1802 C1812 0.930 . S
H1803 C1815 0.929 . S
H1804 C1818 0.934 . S
H1805 C1820 0.960 . S
H1806 C1820 0.960 . S
H1807 C1820 0.960 . S
C1808 H1800 0.929 . S
C1808 C1809 1.377 1_554 S
C1808 C1810 1.384 . S
C1809 C1808 1.377 1_556 S
C1809 C1815 1.390 . S
C1810 H1801 0.930 . S
C1810 C1808 1.384 . S
C1810 C1811 1.369 1_554 S
C1811 C1810 1.369 1_556 S
C1811 C1812 1.403 . S
C1811 C1816 1.490 . S
C1812 H1802 0.930 . S
C1812 C1811 1.403 . S
C1812 C1815 1.386 . S
H1813 C1829 0.930 . S
H1814 C1830 0.931 . S
C1815 H1803 0.929 . S
C1815 C1809 1.390 . S
C1815 C1812 1.386 . S
C1816 C1811 1.490 . S
C1816 C1818 1.422 . S
C1816 C1819 1.403 1_456 S
H1817 C1823 0.930 . S
C1818 H1804 0.934 . S
C1818 C1816 1.422 . S
C1818 C1821 1.373 1_565 S
C1819 C1816 1.403 1_654 S
C1819 C1820 1.524 . S
C1819 C1823 1.400 1_565 S
C1820 H1805 0.960 . S
C1820 H1806 0.960 . S
C1820 H1807 0.960 . S
C1820 C1819 1.524 . S
C1821 C1818 1.373 1_545 S
C1821 C1822 1.418 1_455 S
C1821 C1825 1.495 . S
C1822 C1821 1.418 1_655 S
C1822 C1823 1.360 1_556 S
C1822 C1824 1.478 . S
C1823 H1817 0.930 . S
C1823 C1819 1.400 1_545 S
C1823 C1822 1.360 1_554 S
C1824 C1822 1.478 . S
C1824 C1826 1.345 1_556 S
C1824 C1830 1.418 . S
C1825 C1821 1.495 . S
C1825 H1831 0.959 . S
C1825 H1832 0.961 . S
C1825 H1833 0.960 . S
C1826 C1824 1.345 1_554 S
C1826 C1827 1.394 . S
C1826 H1834 0.943 . S
C1827 C1826 1.394 . S
C1827 C1828 1.408 . S
C1827 H1835 0.929 . S
C1828 C1827 1.408 . S
C1828 C1829 1.351 1_554 S
C1829 H1813 0.930 . S
C1829 C1828 1.351 1_556 S
C1829 C1830 1.379 . S
C1830 H1814 0.931 . S
C1830 C1824 1.418 . S
C1830 C1829 1.379 . S
H1831 C1825 0.959 . S
H1832 C1825 0.961 . S
H1833 C1825 0.960 . S
H1834 C1826 0.943 . S
H1835 C1827 0.929 . S
H1836 C1844 0.929 . S
H1837 C1846 0.930 . S
H1838 C1848 0.930 . S
H1839 C1851 0.929 . S
H1840 C1854 0.930 . S
H1841 C1856 0.960 . S
H1842 C1856 0.960 . S
H1843 C1856 0.960 . S
C1844 H1836 0.929 . S
C1844 C1845 1.377 . S
C1844 C1846 1.384 . S
C1845 C1844 1.377 . S
C1845 C1851 1.390 1_554 S
C1846 H1837 0.930 . S
C1846 C1844 1.384 . S
C1846 C1847 1.372 . S
C1847 C1846 1.372 . S
C1847 C1848 1.400 1_554 S
C1847 C1852 1.490 . S
C1848 H1838 0.930 . S
C1848 C1847 1.400 1_556 S
C1848 C1851 1.386 . S
H1849 C1865 0.930 . S
H1850 C1866 0.931 . S
C1851 H1839 0.929 . S
C1851 C1845 1.390 1_556 S
C1851 C1848 1.386 . S
C1852 C1847 1.490 . S
C1852 C1854 1.395 . S
C1852 C1855 1.403 1_554 S
H1853 C1859 0.930 . S
C1854 H1840 0.930 . S
C1854 C1852 1.395 . S
C1854 C1857 1.403 . S
C1855 C1852 1.403 1_556 S
C1855 C1856 1.524 . S
C1855 C1859 1.400 . S
C1856 H1841 0.960 . S
C1856 H1842 0.960 . S
C1856 H1843 0.960 . S
C1856 C1855 1.524 . S
C1857 C1854 1.403 . S
C1857 C1858 1.392 . S
C1857 C1861 1.495 . S
C1858 C1857 1.392 . S
C1858 C1859 1.385 1_554 S
C1858 C1860 1.478 . S
C1859 H1853 0.930 . S
C1859 C1855 1.400 . S
C1859 C1858 1.385 1_556 S
C1860 C1858 1.478 . S
C1860 C1862 1.381 . S
C1860 C1866 1.383 1_554 S
C1861 C1857 1.495 . S
C1861 H1867 0.959 . S
C1861 H1868 0.961 . S
C1861 H1869 0.960 . S
C1862 C1860 1.381 . S
C1862 C1863 1.394 . S
C1862 H1870 0.930 . S
C1863 C1862 1.394 . S
C1863 C1864 1.344 1_554 S
C1863 H1871 0.929 . S
C1864 C1863 1.344 1_556 S
C1864 C1865 1.414 . S
C1865 H1849 0.930 . S
C1865 C1864 1.414 . S
C1865 C1866 1.379 . S
C1866 H1850 0.931 . S
C1866 C1860 1.383 1_556 S
C1866 C1865 1.379 . S
H1867 C1861 0.959 . S
H1868 C1861 0.961 . S
H1869 C1861 0.960 . S
H1870 C1862 0.930 . S
H1871 C1863 0.929 . S
H1872 C1880 0.929 . S
H1873 C1882 0.930 . S
H1874 C1884 0.930 . S
H1875 C1887 0.929 . S
H1876 C1890 0.930 . S
H1877 C1892 0.960 . S
H1878 C1892 0.960 . S
H1879 C1892 0.960 . S
C1880 H1872 0.929 . S
C1880 C1881 1.377 . S
C1880 C1882 1.384 . S
C1881 C1880 1.377 . S
C1881 C1887 1.390 . S
C1882 H1873 0.930 . S
C1882 C1880 1.384 . S
C1882 C1883 1.372 . S
C1883 C1882 1.372 . S
C1883 C1884 1.400 . S
C1883 C1888 1.490 . S
C1884 H1874 0.930 . S
C1884 C1883 1.400 . S
C1884 C1887 1.386 . S
H1885 C1901 0.930 . S
H1886 C1902 0.931 . S
C1887 H1875 0.929 . S
C1887 C1881 1.390 . S
C1887 C1884 1.386 . S
C1888 C1883 1.490 . S
C1888 C1890 1.395 . S
C1888 C1891 1.403 1_655 S
H1889 C1895 0.930 . S
C1890 H1876 0.930 . S
C1890 C1888 1.395 . S
C1890 C1893 1.403 . S
C1891 C1888 1.403 1_455 S
C1891 C1892 1.524 . S
C1891 C1895 1.400 . S
C1892 H1877 0.960 . S
C1892 H1878 0.960 . S
C1892 H1879 0.960 . S
C1892 C1891 1.524 . S
C1893 C1890 1.403 . S
C1893 C1894 1.392 1_655 S
C1893 C1897 1.495 . S
C1894 C1893 1.392 1_455 S
C1894 C1895 1.385 . S
C1894 C1896 1.478 . S
C1895 H1889 0.930 . S
C1895 C1891 1.400 . S
C1895 C1894 1.385 . S
C1896 C1894 1.478 . S
C1896 C1898 1.381 . S
C1896 C1902 1.383 . S
C1897 C1893 1.495 . S
C1897 H1903 0.959 . S
C1897 H1904 0.961 . S
C1897 H1905 0.960 . S
C1898 C1896 1.381 . S
C1898 C1899 1.394 . S
C1898 H1906 0.930 . S
C1899 C1898 1.394 . S
C1899 C1900 1.383 . S
C1899 H1907 0.929 . S
C1900 C1899 1.383 . S
C1900 C1901 1.377 . S
C1901 H1885 0.930 . S
C1901 C1900 1.377 . S
C1901 C1902 1.379 . S
C1902 H1886 0.931 . S
C1902 C1896 1.383 . S
C1902 C1901 1.379 . S
H1903 C1897 0.959 . S
H1904 C1897 0.961 . S
H1905 C1897 0.960 . S
H1906 C1898 0.930 . S
H1907 C1899 0.929 . S
H1908 C1916 0.929 . S
H1909 C1918 0.930 . S
H1910 C1920 0.930 . S
H1911 C1923 0.929 . S
H1912 C1926 0.930 . S
H1913 C1928 0.960 . S
H1914 C1928 0.960 1_565 S
H1915 C1928 0.960 1_565 S
C1916 H1908 0.929 . S
C1916 C1917 1.377 . S
C1916 C1918 1.384 . S
C1917 C1916 1.377 . S
C1917 C1923 1.390 . S
C1918 H1909 0.930 . S
C1918 C1916 1.384 . S
C1918 C1919 1.372 . S
C1919 C1918 1.372 . S
C1919 C1920 1.400 . S
C1919 C1924 1.490 . S
C1920 H1910 0.930 . S
C1920 C1919 1.400 . S
C1920 C1923 1.386 . S
H1921 C1937 0.930 . S
H1922 C1938 0.931 . S
C1923 H1911 0.929 . S
C1923 C1917 1.390 . S
C1923 C1920 1.386 . S
C1924 C1919 1.490 . S
C1924 C1926 1.395 . S
C1924 C1927 1.407 1_565 S
H1925 C1931 0.930 . S
C1926 H1912 0.930 . S
C1926 C1924 1.395 . S
C1926 C1929 1.403 . S
C1927 C1924 1.407 1_545 S
C1927 C1928 1.523 . S
C1927 C1931 1.396 . S
C1928 H1913 0.960 . S
C1928 H1914 0.960 1_545 S
C1928 H1915 0.960 1_545 S
C1928 C1927 1.523 . S
C1929 C1926 1.403 . S
C1929 C1930 1.392 1_565 S
C1929 C1933 1.495 . S
C1930 C1929 1.392 1_545 S
C1930 C1931 1.385 . S
C1930 C1932 1.478 . S
C1931 H1925 0.930 . S
C1931 C1927 1.396 . S
C1931 C1930 1.385 . S
C1932 C1930 1.478 . S
C1932 C1934 1.381 . S
C1932 C1938 1.383 . S
C1933 C1929 1.495 . S
C1933 H1939 0.959 . S
C1933 H1940 0.941 1_565 S
C1933 H1941 0.960 1_565 S
C1934 C1932 1.381 . S
C1934 C1935 1.394 . S
C1934 H1942 0.930 . S
C1935 C1934 1.394 . S
C1935 C1936 1.383 . S
C1935 H1943 0.929 . S
C1936 C1935 1.383 . S
C1936 C1937 1.377 . S
C1937 H1921 0.930 . S
C1937 C1936 1.377 . S
C1937 C1938 1.379 . S
C1938 H1922 0.931 . S
C1938 C1932 1.383 . S
C1938 C1937 1.379 . S
H1939 C1933 0.959 . S
H1940 C1933 0.941 1_545 S
H1941 C1933 0.960 1_545 S
H1942 C1934 0.930 . S
H1943 C1935 0.929 . S
H1944 C1952 0.929 . S
H1945 C1954 0.930 . S
H1946 C1956 0.930 . S
H1947 C1959 0.929 . S
H1948 C1962 0.930 . S
H1949 C1964 0.960 . S
H1950 C1964 0.960 . S
H1951 C1964 0.960 . S
C1952 H1944 0.929 . S
C1952 C1953 1.377 1_554 S
C1952 C1954 1.384 . S
C1953 C1952 1.377 1_556 S
C1953 C1959 1.390 . S
C1954 H1945 0.930 . S
C1954 C1952 1.384 . S
C1954 C1955 1.365 1_554 S
C1955 C1954 1.365 1_556 S
C1955 C1956 1.407 . S
C1955 C1960 1.488 1_556 S
C1956 H1946 0.930 . S
C1956 C1955 1.407 . S
C1956 C1959 1.386 . S
H1957 C1973 0.930 . S
H1958 C1974 0.931 . S
C1959 H1947 0.929 . S
C1959 C1953 1.390 . S
C1959 C1956 1.386 . S
C1960 C1955 1.488 1_554 S
C1960 C1962 1.438 . S
C1960 C1963 1.364 1_554 S
H1961 C1967 0.930 . S
C1962 H1948 0.930 . S
C1962 C1960 1.438 . S
C1962 C1965 1.403 . S
C1963 C1960 1.364 1_556 S
C1963 C1964 1.524 . S
C1963 C1967 1.400 . S
C1964 H1949 0.960 . S
C1964 H1950 0.960 . S
C1964 H1951 0.960 . S
C1964 C1963 1.524 . S
C1965 C1962 1.403 . S
C1965 C1966 1.392 . S
C1965 C1969 1.495 . S
C1966 C1965 1.392 . S
C1966 C1967 1.385 1_554 S
C1966 C1968 1.478 . S
C1967 H1961 0.930 . S
C1967 C1963 1.400 . S
C1967 C1966 1.385 1_556 S
C1968 C1966 1.478 . S
C1968 C1970 1.381 . S
C1968 C1974 1.383 1_554 S
C1969 C1965 1.495 . S
C1969 H1975 0.959 . S
C1969 H1976 0.961 . S
C1969 H1977 0.960 . S
C1970 C1968 1.381 . S
C1970 C1971 1.394 . S
C1970 H1978 0.930 . S
C1971 C1970 1.394 . S
C1971 C1972 1.383 . S
C1971 H1979 0.929 . S
C1972 C1971 1.383 . S
C1972 C1973 1.377 1_554 S
C1973 H1957 0.930 . S
C1973 C1972 1.377 1_556 S
C1973 C1974 1.379 . S
C1974 H1958 0.931 . S
C1974 C1968 1.383 1_556 S
C1974 C1973 1.379 . S
H1975 C1969 0.959 . S
H1976 C1969 0.961 . S
H1977 C1969 0.960 . S
H1978 C1970 0.930 . S
H1979 C1971 0.929 . S
H1980 C1988 0.929 . S
H1981 C1990 0.930 . S
H1982 C1992 0.930 . S
H1983 C1995 0.929 . S
H1984 C1998 0.930 . S
H1985 C2000 0.960 . S
H1986 C2000 0.960 . S
H1987 C2000 0.960 . S
C1988 H1980 0.929 . S
C1988 C1989 1.377 . S
C1988 C1990 1.384 . S
C1989 C1988 1.377 . S
C1989 C1995 1.390 . S
C1990 H1981 0.930 . S
C1990 C1988 1.384 . S
C1990 C1991 1.372 . S
C1991 C1990 1.372 . S
C1991 C1992 1.400 . S
C1991 C1996 1.490 . S
C1992 H1982 0.930 . S
C1992 C1991 1.400 . S
C1992 C1995 1.386 . S
H1993 C2009 0.930 . S
H1994 C2010 0.931 . S
C1995 H1983 0.929 . S
C1995 C1989 1.390 . S
C1995 C1992 1.386 . S
C1996 C1991 1.490 . S
C1996 C1998 1.395 . S
C1996 C1999 1.403 . S
H1997 C2003 0.930 . S
C1998 H1984 0.930 . S
C1998 C1996 1.395 . S
C1998 C2001 1.403 . S
C1999 C1996 1.403 . S
C1999 C2000 1.524 . S
C1999 C2003 1.400 . S
C2000 H1985 0.960 . S
C2000 H1986 0.960 . S
C2000 H1987 0.960 . S
C2000 C1999 1.524 . S
C2001 C1998 1.403 . S
C2001 C2002 1.392 . S
C2001 C2005 1.495 . S
C2002 C2001 1.392 . S
C2002 C2003 1.385 . S
C2002 C2004 1.478 . S
C2003 H1997 0.930 . S
C2003 C1999 1.400 . S
C2003 C2002 1.385 . S
C2004 C2002 1.478 . S
C2004 C2006 1.381 . S
C2004 C2010 1.383 . S
C2005 C2001 1.495 . S
C2005 H2011 0.959 . S
C2005 H2012 0.961 . S
C2005 H2013 0.960 . S
C2006 C2004 1.381 . S
C2006 C2007 1.394 . S
C2006 H2014 0.930 . S
C2007 C2006 1.394 . S
C2007 C2008 1.383 . S
C2007 H2015 0.929 . S
C2008 C2007 1.383 . S
C2008 C2009 1.377 . S
C2009 H1993 0.930 . S
C2009 C2008 1.377 . S
C2009 C2010 1.379 . S
C2010 H1994 0.931 . S
C2010 C2004 1.383 . S
C2010 C2009 1.379 . S
H2011 C2005 0.959 . S
H2012 C2005 0.961 . S
H2013 C2005 0.960 . S
H2014 C2006 0.930 . S
H2015 C2007 0.929 . S
H2016 C2024 0.929 . S
H2017 C2026 0.930 . S
H2018 C2028 0.930 . S
H2019 C2031 0.929 . S
H2020 C2034 0.930 . S
H2021 C2036 0.960 . S
H2022 C2036 0.960 . S
H2023 C2036 0.960 . S
C2024 H2016 0.929 . S
C2024 C2025 1.377 . S
C2024 C2026 1.384 . S
C2025 C2024 1.377 . S
C2025 C2031 1.390 . S
C2026 H2017 0.930 . S
C2026 C2024 1.384 . S
C2026 C2027 1.372 . S
C2027 C2026 1.372 . S
C2027 C2028 1.400 . S
C2027 C2032 1.490 . S
C2028 H2018 0.930 . S
C2028 C2027 1.400 . S
C2028 C2031 1.386 . S
H2029 C2045 0.930 . S
H2030 C2046 0.931 . S
C2031 H2019 0.929 . S
C2031 C2025 1.390 . S
C2031 C2028 1.386 . S
C2032 C2027 1.490 . S
C2032 C2034 1.395 . S
C2032 C2035 1.403 1_655 S
H2033 C2039 0.930 . S
C2034 H2020 0.930 . S
C2034 C2032 1.395 . S
C2034 C2037 1.403 . S
C2035 C2032 1.403 1_455 S
C2035 C2036 1.524 . S
C2035 C2039 1.400 . S
C2036 H2021 0.960 . S
C2036 H2022 0.960 . S
C2036 H2023 0.960 . S
C2036 C2035 1.524 . S
C2037 C2034 1.403 . S
C2037 C2038 1.392 1_655 S
C2037 C2041 1.495 . S
C2038 C2037 1.392 1_455 S
C2038 C2039 1.385 . S
C2038 C2040 1.478 . S
C2039 H2033 0.930 . S
C2039 C2035 1.400 . S
C2039 C2038 1.385 . S
C2040 C2038 1.478 . S
C2040 C2042 1.381 . S
C2040 C2046 1.383 . S
C2041 C2037 1.495 . S
C2041 H2047 0.959 . S
C2041 H2048 0.961 . S
C2041 H2049 0.960 . S
C2042 C2040 1.381 . S
C2042 C2043 1.394 . S
C2042 H2050 0.930 . S
C2043 C2042 1.394 . S
C2043 C2044 1.383 . S
C2043 H2051 0.929 . S
C2044 C2043 1.383 . S
C2044 C2045 1.377 . S
C2045 H2029 0.930 . S
C2045 C2044 1.377 . S
C2045 C2046 1.379 . S
C2046 H2030 0.931 . S
C2046 C2040 1.383 . S
C2046 C2045 1.379 . S
H2047 C2041 0.959 . S
H2048 C2041 0.961 . S
H2049 C2041 0.960 . S
H2050 C2042 0.930 . S
H2051 C2043 0.929 . S
H2052 C2060 0.929 . S
H2053 C2062 0.930 . S
H2054 C2064 0.930 . S
H2055 C2067 0.929 . S
H2056 C2070 0.930 . S
H2057 C2072 0.960 . S
H2058 C2072 0.960 . S
H2059 C2072 0.960 . S
C2060 H2052 0.929 . S
C2060 C2061 1.377 . S
C2060 C2062 1.384 . S
C2061 C2060 1.377 . S
C2061 C2067 1.390 . S
C2062 H2053 0.930 . S
C2062 C2060 1.384 . S
C2062 C2063 1.372 . S
C2063 C2062 1.372 . S
C2063 C2064 1.400 . S
C2063 C2068 1.490 . S
C2064 H2054 0.930 . S
C2064 C2063 1.400 . S
C2064 C2067 1.386 . S
H2065 C2081 0.930 . S
H2066 C2082 0.931 . S
C2067 H2055 0.929 . S
C2067 C2061 1.390 . S
C2067 C2064 1.386 . S
C2068 C2063 1.490 . S
C2068 C2070 1.395 . S
C2068 C2071 1.403 . S
H2069 C2075 0.930 . S
C2070 H2056 0.930 . S
C2070 C2068 1.395 . S
C2070 C2073 1.403 . S
C2071 C2068 1.403 . S
C2071 C2072 1.524 . S
C2071 C2075 1.400 . S
C2072 H2057 0.960 . S
C2072 H2058 0.960 . S
C2072 H2059 0.960 . S
C2072 C2071 1.524 . S
C2073 C2070 1.403 . S
C2073 C2074 1.392 . S
C2073 C2077 1.495 . S
C2074 C2073 1.392 . S
C2074 C2075 1.385 . S
C2074 C2076 1.478 . S
C2075 H2069 0.930 . S
C2075 C2071 1.400 . S
C2075 C2074 1.385 . S
C2076 C2074 1.478 . S
C2076 C2078 1.381 . S
C2076 C2082 1.383 . S
C2077 C2073 1.495 . S
C2077 H2083 0.959 . S
C2077 H2084 0.961 . S
C2077 H2085 0.960 . S
C2078 C2076 1.381 . S
C2078 C2079 1.394 . S
C2078 H2086 0.930 . S
C2079 C2078 1.394 . S
C2079 C2080 1.383 . S
C2079 H2087 0.929 . S
C2080 C2079 1.383 . S
C2080 C2081 1.377 . S
C2081 H2065 0.930 . S
C2081 C2080 1.377 . S
C2081 C2082 1.379 . S
C2082 H2066 0.931 . S
C2082 C2076 1.383 . S
C2082 C2081 1.379 . S
H2083 C2077 0.959 . S
H2084 C2077 0.961 . S
H2085 C2077 0.960 . S
H2086 C2078 0.930 . S
H2087 C2079 0.929 . S
H2088 C2096 0.929 . S
H2089 C2098 0.930 . S
H2090 C2100 0.930 . S
H2091 C2103 0.929 . S
H2092 C2106 0.930 . S
H2093 C2108 0.960 . S
H2094 C2108 0.960 . S
H2095 C2108 0.960 . S
C2096 H2088 0.929 . S
C2096 C2097 1.377 . S
C2096 C2098 1.384 . S
C2097 C2096 1.377 . S
C2097 C2103 1.390 . S
C2098 H2089 0.930 . S
C2098 C2096 1.384 . S
C2098 C2099 1.372 . S
C2099 C2098 1.372 . S
C2099 C2100 1.400 . S
C2099 C2104 1.490 . S
C2100 H2090 0.930 . S
C2100 C2099 1.400 . S
C2100 C2103 1.386 . S
H2101 C2117 0.930 . S
H2102 C2118 0.931 . S
C2103 H2091 0.929 . S
C2103 C2097 1.390 . S
C2103 C2100 1.386 . S
C2104 C2099 1.490 . S
C2104 C2106 1.395 . S
C2104 C2107 1.403 . S
H2105 C2111 0.930 . S
C2106 H2092 0.930 . S
C2106 C2104 1.395 . S
C2106 C2109 1.403 . S
C2107 C2104 1.403 . S
C2107 C2108 1.524 . S
C2107 C2111 1.400 . S
C2108 H2093 0.960 . S
C2108 H2094 0.960 . S
C2108 H2095 0.960 . S
C2108 C2107 1.524 . S
C2109 C2106 1.403 . S
C2109 C2110 1.392 . S
C2109 C2113 1.495 . S
C2110 C2109 1.392 . S
C2110 C2111 1.385 . S
C2110 C2112 1.478 . S
C2111 H2105 0.930 . S
C2111 C2107 1.400 . S
C2111 C2110 1.385 . S
C2112 C2110 1.478 . S
C2112 C2114 1.381 . S
C2112 C2118 1.383 . S
C2113 C2109 1.495 . S
C2113 H2119 0.959 . S
C2113 H2120 0.961 . S
C2113 H2121 0.960 . S
C2114 C2112 1.381 . S
C2114 C2115 1.394 . S
C2114 H2122 0.930 . S
C2115 C2114 1.394 . S
C2115 C2116 1.383 . S
C2115 H2123 0.929 . S
C2116 C2115 1.383 . S
C2116 C2117 1.377 . S
C2117 H2101 0.930 . S
C2117 C2116 1.377 . S
C2117 C2118 1.379 . S
C2118 H2102 0.931 . S
C2118 C2112 1.383 . S
C2118 C2117 1.379 . S
H2119 C2113 0.959 . S
H2120 C2113 0.961 . S
H2121 C2113 0.960 . S
H2122 C2114 0.930 . S
H2123 C2115 0.929 . S
H2124 C2132 0.929 . S
H2125 C2134 0.930 . S
H2126 C2136 0.930 . S
H2127 C2139 0.929 . S
H2128 C2142 0.930 . S
H2129 C2144 0.960 . S
H2130 C2144 0.960 . S
H2131 C2144 0.960 . S
C2132 H2124 0.929 . S
C2132 C2133 1.377 . S
C2132 C2134 1.384 . S
C2133 C2132 1.377 . S
C2133 C2139 1.390 . S
C2134 H2125 0.930 . S
C2134 C2132 1.384 . S
C2134 C2135 1.372 . S
C2135 C2134 1.372 . S
C2135 C2136 1.400 . S
C2135 C2140 1.490 . S
C2136 H2126 0.930 . S
C2136 C2135 1.400 . S
C2136 C2139 1.386 . S
H2137 C2153 0.930 . S
H2138 C2154 0.931 . S
C2139 H2127 0.929 . S
C2139 C2133 1.390 . S
C2139 C2136 1.386 . S
C2140 C2135 1.490 . S
C2140 C2142 1.395 . S
C2140 C2143 1.403 . S
H2141 C2147 0.930 . S
C2142 H2128 0.930 . S
C2142 C2140 1.395 . S
C2142 C2145 1.403 . S
C2143 C2140 1.403 . S
C2143 C2144 1.524 . S
C2143 C2147 1.400 . S
C2144 H2129 0.960 . S
C2144 H2130 0.960 . S
C2144 H2131 0.960 . S
C2144 C2143 1.524 . S
C2145 C2142 1.403 . S
C2145 C2146 1.392 . S
C2145 C2149 1.495 . S
C2146 C2145 1.392 . S
C2146 C2147 1.385 . S
C2146 C2148 1.478 . S
C2147 H2141 0.930 . S
C2147 C2143 1.400 . S
C2147 C2146 1.385 . S
C2148 C2146 1.478 . S
C2148 C2150 1.381 . S
C2148 C2154 1.383 . S
C2149 C2145 1.495 . S
C2149 H2155 0.959 . S
C2149 H2156 0.961 . S
C2149 H2157 0.960 . S
C2150 C2148 1.381 . S
C2150 C2151 1.394 . S
C2150 H2158 0.930 . S
C2151 C2150 1.394 . S
C2151 C2152 1.383 . S
C2151 H2159 0.929 . S
C2152 C2151 1.383 . S
C2152 C2153 1.377 . S
C2153 H2137 0.930 . S
C2153 C2152 1.377 . S
C2153 C2154 1.379 . S
C2154 H2138 0.931 . S
C2154 C2148 1.383 . S
C2154 C2153 1.379 . S
H2155 C2149 0.959 . S
H2156 C2149 0.961 . S
H2157 C2149 0.960 . S
H2158 C2150 0.930 . S
H2159 C2151 0.929 . S
H2160 C2168 0.929 . S
H2161 C2170 0.930 . S
H2162 C2172 0.930 . S
H2163 C2175 0.929 . S
H2164 C2178 0.930 . S
H2165 C2180 0.960 . S
H2166 C2180 0.960 . S
H2167 C2180 0.960 . S
C2168 H2160 0.929 . S
C2168 C2169 1.377 . S
C2168 C2170 1.384 . S
C2169 C2168 1.377 . S
C2169 C2175 1.390 . S
C2170 H2161 0.930 . S
C2170 C2168 1.384 . S
C2170 C2171 1.372 . S
C2171 C2170 1.372 . S
C2171 C2172 1.400 . S
C2171 C2176 1.490 . S
C2172 H2162 0.930 . S
C2172 C2171 1.400 . S
C2172 C2175 1.386 . S
H2173 C2189 0.930 . S
H2174 C2190 0.931 . S
C2175 H2163 0.929 . S
C2175 C2169 1.390 . S
C2175 C2172 1.386 . S
C2176 C2171 1.490 . S
C2176 C2178 1.395 . S
C2176 C2179 1.403 . S
H2177 C2183 0.930 . S
C2178 H2164 0.930 . S
C2178 C2176 1.395 . S
C2178 C2181 1.403 . S
C2179 C2176 1.403 . S
C2179 C2180 1.524 . S
C2179 C2183 1.400 . S
C2180 H2165 0.960 . S
C2180 H2166 0.960 . S
C2180 H2167 0.960 . S
C2180 C2179 1.524 . S
C2181 C2178 1.403 . S
C2181 C2182 1.392 . S
C2181 C2185 1.495 . S
C2182 C2181 1.392 . S
C2182 C2183 1.385 . S
C2182 C2184 1.478 . S
C2183 H2177 0.930 . S
C2183 C2179 1.400 . S
C2183 C2182 1.385 . S
C2184 C2182 1.478 . S
C2184 C2186 1.381 . S
C2184 C2190 1.383 . S
C2185 C2181 1.495 . S
C2185 H2191 0.959 . S
C2185 H2192 0.961 . S
C2185 H2193 0.960 . S
C2186 C2184 1.381 . S
C2186 C2187 1.394 . S
C2186 H2194 0.930 . S
C2187 C2186 1.394 . S
C2187 C2188 1.383 . S
C2187 H2195 0.929 . S
C2188 C2187 1.383 . S
C2188 C2189 1.377 . S
C2189 H2173 0.930 . S
C2189 C2188 1.377 . S
C2189 C2190 1.379 . S
C2190 H2174 0.931 . S
C2190 C2184 1.383 . S
C2190 C2189 1.379 . S
H2191 C2185 0.959 . S
H2192 C2185 0.961 . S
H2193 C2185 0.960 . S
H2194 C2186 0.930 . S
H2195 C2187 0.929 . S
H2196 C2204 0.929 . S
H2197 C2206 0.930 . S
H2198 C2208 0.930 . S
H2199 C2211 0.929 . S
H2200 C2214 0.930 . S
H2201 C2216 0.983 . S
H2202 C2216 0.955 1_545 S
H2203 C2216 0.943 1_545 S
C2204 H2196 0.929 . S
C2204 C2205 1.377 . S
C2204 C2206 1.384 . S
C2205 C2204 1.377 . S
C2205 C2211 1.390 . S
C2206 H2197 0.930 . S
C2206 C2204 1.384 . S
C2206 C2207 1.372 . S
C2207 C2206 1.372 . S
C2207 C2208 1.400 . S
C2207 C2212 1.490 . S
C2208 H2198 0.930 . S
C2208 C2207 1.400 . S
C2208 C2211 1.386 . S
H2209 C2225 0.930 . S
H2210 C2226 0.931 . S
C2211 H2199 0.929 . S
C2211 C2205 1.390 . S
C2211 C2208 1.386 . S
C2212 C2207 1.490 . S
C2212 C2214 1.395 . S
C2212 C2215 1.435 . S
H2213 C2219 0.930 . S
C2214 H2200 0.930 . S
C2214 C2212 1.395 . S
C2214 C2217 1.419 . S
C2215 C2212 1.435 . S
C2215 C2216 1.522 1_545 S
C2215 C2219 1.369 1_545 S
C2216 H2201 0.983 . S
C2216 H2202 0.955 1_565 S
C2216 H2203 0.943 1_565 S
C2216 C2215 1.522 1_565 S
C2217 C2214 1.419 . S
C2217 C2218 1.377 1_545 S
C2217 C2221 1.495 . S
C2218 C2217 1.377 1_565 S
C2218 C2219 1.385 . S
C2218 C2220 1.478 . S
C2219 H2213 0.930 . S
C2219 C2215 1.369 1_565 S
C2219 C2218 1.385 . S
C2220 C2218 1.478 . S
C2220 C2222 1.381 . S
C2220 C2226 1.383 . S
C2221 C2217 1.495 . S
C2221 H2227 1.015 . S
C2221 H2228 0.950 1_545 S
C2221 H2229 0.919 1_545 S
C2222 C2220 1.381 . S
C2222 C2223 1.394 . S
C2222 H2230 0.930 . S
C2223 C2222 1.394 . S
C2223 C2224 1.383 . S
C2223 H2231 0.929 . S
C2224 C2223 1.383 . S
C2224 C2225 1.377 . S
C2225 H2209 0.930 . S
C2225 C2224 1.377 . S
C2225 C2226 1.379 . S
C2226 H2210 0.931 . S
C2226 C2220 1.383 . S
C2226 C2225 1.379 . S
H2227 C2221 1.015 . S
H2228 C2221 0.950 1_565 S
H2229 C2221 0.919 1_565 S
H2230 C2222 0.930 . S
H2231 C2223 0.929 . S
H2232 C2240 0.929 . S
H2233 C2242 0.930 . S
H2234 C2244 0.930 . S
H2235 C2247 0.929 . S
H2236 C2250 0.930 . S
H2237 C2252 0.960 . S
H2238 C2252 0.960 . S
H2239 C2252 0.960 . S
C2240 H2232 0.929 . S
C2240 C2241 1.377 . S
C2240 C2242 1.384 . S
C2241 C2240 1.377 . S
C2241 C2247 1.390 . S
C2242 H2233 0.930 . S
C2242 C2240 1.384 . S
C2242 C2243 1.372 . S
C2243 C2242 1.372 . S
C2243 C2244 1.400 . S
C2243 C2248 1.490 . S
C2244 H2234 0.930 . S
C2244 C2243 1.400 . S
C2244 C2247 1.386 . S
H2245 C2261 0.930 . S
H2246 C2262 0.931 . S
C2247 H2235 0.929 . S
C2247 C2241 1.390 . S
C2247 C2244 1.386 . S
C2248 C2243 1.490 . S
C2248 C2250 1.395 . S
C2248 C2251 1.403 . S
H2249 C2255 0.930 . S
C2250 H2236 0.930 . S
C2250 C2248 1.395 . S
C2250 C2253 1.403 . S
C2251 C2248 1.403 . S
C2251 C2252 1.524 . S
C2251 C2255 1.400 . S
C2252 H2237 0.960 . S
C2252 H2238 0.960 . S
C2252 H2239 0.960 . S
C2252 C2251 1.524 . S
C2253 C2250 1.403 . S
C2253 C2254 1.392 . S
C2253 C2257 1.495 . S
C2254 C2253 1.392 . S
C2254 C2255 1.385 . S
C2254 C2256 1.478 . S
C2255 H2249 0.930 . S
C2255 C2251 1.400 . S
C2255 C2254 1.385 . S
C2256 C2254 1.478 . S
C2256 C2258 1.381 . S
C2256 C2262 1.383 . S
C2257 C2253 1.495 . S
C2257 H2263 0.959 . S
C2257 H2264 0.961 . S
C2257 H2265 0.960 . S
C2258 C2256 1.381 . S
C2258 C2259 1.394 . S
C2258 H2266 0.930 . S
C2259 C2258 1.394 . S
C2259 C2260 1.383 . S
C2259 H2267 0.929 . S
C2260 C2259 1.383 . S
C2260 C2261 1.377 . S
C2261 H2245 0.930 . S
C2261 C2260 1.377 . S
C2261 C2262 1.379 . S
C2262 H2246 0.931 . S
C2262 C2256 1.383 . S
C2262 C2261 1.379 . S
H2263 C2257 0.959 . S
H2264 C2257 0.961 . S
H2265 C2257 0.960 . S
H2266 C2258 0.930 . S
H2267 C2259 0.929 . S
H2268 C2276 0.929 . S
H2269 C2278 0.930 . S
H2270 C2280 0.930 . S
H2271 C2283 0.929 . S
H2272 C2286 0.930 . S
H2273 C2288 0.960 . S
H2274 C2288 0.960 . S
H2275 C2288 0.960 . S
C2276 H2268 0.929 . S
C2276 C2277 1.377 1_554 S
C2276 C2278 1.384 . S
C2277 C2276 1.377 1_556 S
C2277 C2283 1.390 . S
C2278 H2269 0.930 . S
C2278 C2276 1.384 . S
C2278 C2279 1.366 1_554 S
C2279 C2278 1.366 1_556 S
C2279 C2280 1.406 . S
C2279 C2284 1.490 . S
C2280 H2270 0.930 . S
C2280 C2279 1.406 . S
C2280 C2283 1.386 . S
H2281 C2297 0.930 . S
H2282 C2298 0.931 . S
C2283 H2271 0.929 . S
C2283 C2277 1.390 . S
C2283 C2280 1.386 . S
C2284 C2279 1.490 . S
C2284 C2286 1.406 . S
C2284 C2287 1.391 1_556 S
H2285 C2291 0.930 . S
C2286 H2272 0.930 . S
C2286 C2284 1.406 . S
C2286 C2289 1.403 . S
C2287 C2284 1.391 1_554 S
C2287 C2288 1.524 . S
C2287 C2291 1.400 . S
C2288 H2273 0.960 . S
C2288 H2274 0.960 . S
C2288 H2275 0.960 . S
C2288 C2287 1.524 . S
C2289 C2286 1.403 . S
C2289 C2290 1.392 . S
C2289 C2293 1.495 . S
C2290 C2289 1.392 . S
C2290 C2291 1.385 1_556 S
C2290 C2292 1.478 . S
C2291 H2285 0.930 . S
C2291 C2287 1.400 . S
C2291 C2290 1.385 1_554 S
C2292 C2290 1.478 . S
C2292 C2294 1.381 1_556 S
C2292 C2298 1.383 . S
C2293 C2289 1.495 . S
C2293 H2299 0.959 . S
C2293 H2300 0.961 . S
C2293 H2301 0.960 . S
C2294 C2292 1.381 1_554 S
C2294 C2295 1.394 . S
C2294 H2302 0.930 . S
C2295 C2294 1.394 . S
C2295 C2296 1.395 . S
C2295 H2303 0.929 . S
C2296 C2295 1.395 . S
C2296 C2297 1.364 1_554 S
C2297 H2281 0.930 . S
C2297 C2296 1.364 1_556 S
C2297 C2298 1.379 . S
C2298 H2282 0.931 . S
C2298 C2292 1.383 . S
C2298 C2297 1.379 . S
H2299 C2293 0.959 . S
H2300 C2293 0.961 . S
H2301 C2293 0.960 . S
H2302 C2294 0.930 . S
H2303 C2295 0.929 . S
H2304 C2312 0.929 . S
H2305 C2314 0.930 . S
H2306 C2316 0.930 . S
H2307 C2319 0.929 . S
H2308 C2322 0.930 . S
H2309 C2324 0.960 . S
H2310 C2324 0.960 . S
H2311 C2324 0.960 . S
C2312 H2304 0.929 . S
C2312 C2313 1.377 . S
C2312 C2314 1.384 . S
C2313 C2312 1.377 . S
C2313 C2319 1.390 . S
C2314 H2305 0.930 . S
C2314 C2312 1.384 . S
C2314 C2315 1.372 . S
C2315 C2314 1.372 . S
C2315 C2316 1.400 . S
C2315 C2320 1.490 . S
C2316 H2306 0.930 . S
C2316 C2315 1.400 . S
C2316 C2319 1.386 . S
H2317 C2333 0.930 . S
H2318 C2334 0.931 . S
C2319 H2307 0.929 . S
C2319 C2313 1.390 . S
C2319 C2316 1.386 . S
C2320 C2315 1.490 . S
C2320 C2322 1.395 . S
C2320 C2323 1.403 . S
H2321 C2327 0.930 . S
C2322 H2308 0.930 . S
C2322 C2320 1.395 . S
C2322 C2325 1.403 . S
C2323 C2320 1.403 . S
C2323 C2324 1.524 . S
C2323 C2327 1.400 . S
C2324 H2309 0.960 . S
C2324 H2310 0.960 . S
C2324 H2311 0.960 . S
C2324 C2323 1.524 . S
C2325 C2322 1.403 . S
C2325 C2326 1.392 . S
C2325 C2329 1.495 . S
C2326 C2325 1.392 . S
C2326 C2327 1.385 . S
C2326 C2328 1.478 . S
C2327 H2321 0.930 . S
C2327 C2323 1.400 . S
C2327 C2326 1.385 . S
C2328 C2326 1.478 . S
C2328 C2330 1.381 . S
C2328 C2334 1.383 . S
C2329 C2325 1.495 . S
C2329 H2335 0.959 . S
C2329 H2336 0.961 . S
C2329 H2337 0.960 . S
C2330 C2328 1.381 . S
C2330 C2331 1.394 . S
C2330 H2338 0.930 . S
C2331 C2330 1.394 . S
C2331 C2332 1.383 . S
C2331 H2339 0.929 . S
C2332 C2331 1.383 . S
C2332 C2333 1.377 . S
C2333 H2317 0.930 . S
C2333 C2332 1.377 . S
C2333 C2334 1.379 . S
C2334 H2318 0.931 . S
C2334 C2328 1.383 . S
C2334 C2333 1.379 . S
H2335 C2329 0.959 . S
H2336 C2329 0.961 . S
H2337 C2329 0.960 . S
H2338 C2330 0.930 . S
H2339 C2331 0.929 . S
H2340 C2348 0.929 . S
H2341 C2350 0.930 . S
H2342 C2352 0.930 . S
H2343 C2355 0.929 . S
H2344 C2358 0.930 . S
H2345 C2360 0.960 . S
H2346 C2360 0.960 . S
H2347 C2360 0.960 . S
C2348 H2340 0.929 . S
C2348 C2349 1.377 . S
C2348 C2350 1.384 . S
C2349 C2348 1.377 . S
C2349 C2355 1.390 . S
C2350 H2341 0.930 . S
C2350 C2348 1.384 . S
C2350 C2351 1.372 . S
C2351 C2350 1.372 . S
C2351 C2352 1.400 . S
C2351 C2356 1.490 . S
C2352 H2342 0.930 . S
C2352 C2351 1.400 . S
C2352 C2355 1.386 . S
H2353 C2369 0.930 . S
H2354 C2370 0.931 . S
C2355 H2343 0.929 . S
C2355 C2349 1.390 . S
C2355 C2352 1.386 . S
C2356 C2351 1.490 . S
C2356 C2358 1.395 . S
C2356 C2359 1.403 . S
H2357 C2363 0.930 . S
C2358 H2344 0.930 . S
C2358 C2356 1.395 . S
C2358 C2361 1.403 . S
C2359 C2356 1.403 . S
C2359 C2360 1.524 . S
C2359 C2363 1.400 . S
C2360 H2345 0.960 . S
C2360 H2346 0.960 . S
C2360 H2347 0.960 . S
C2360 C2359 1.524 . S
C2361 C2358 1.403 . S
C2361 C2362 1.392 . S
C2361 C2365 1.495 . S
C2362 C2361 1.392 . S
C2362 C2363 1.385 . S
C2362 C2364 1.478 . S
C2363 H2357 0.930 . S
C2363 C2359 1.400 . S
C2363 C2362 1.385 . S
C2364 C2362 1.478 . S
C2364 C2366 1.381 . S
C2364 C2370 1.383 . S
C2365 C2361 1.495 . S
C2365 H2371 0.959 . S
C2365 H2372 0.961 . S
C2365 H2373 0.960 . S
C2366 C2364 1.381 . S
C2366 C2367 1.394 . S
C2366 H2374 0.930 . S
C2367 C2366 1.394 . S
C2367 C2368 1.383 . S
C2367 H2375 0.929 . S
C2368 C2367 1.383 . S
C2368 C2369 1.377 . S
C2369 H2353 0.930 . S
C2369 C2368 1.377 . S
C2369 C2370 1.379 . S
C2370 H2354 0.931 . S
C2370 C2364 1.383 . S
C2370 C2369 1.379 . S
H2371 C2365 0.959 . S
H2372 C2365 0.961 . S
H2373 C2365 0.960 . S
H2374 C2366 0.930 . S
H2375 C2367 0.929 . S
H2376 C2384 0.929 . S
H2377 C2386 0.930 . S
H2378 C2388 0.930 . S
H2379 C2391 0.929 . S
H2380 C2394 0.930 . S
H2381 C2396 0.960 . S
H2382 C2396 0.960 . S
H2383 C2396 0.960 . S
C2384 H2376 0.929 . S
C2384 C2385 1.377 . S
C2384 C2386 1.384 . S
C2385 C2384 1.377 . S
C2385 C2391 1.390 . S
C2386 H2377 0.930 . S
C2386 C2384 1.384 . S
C2386 C2387 1.372 . S
C2387 C2386 1.372 . S
C2387 C2388 1.400 . S
C2387 C2392 1.490 . S
C2388 H2378 0.930 . S
C2388 C2387 1.400 . S
C2388 C2391 1.386 . S
H2389 C2405 0.930 . S
H2390 C2406 0.931 . S
C2391 H2379 0.929 . S
C2391 C2385 1.390 . S
C2391 C2388 1.386 . S
C2392 C2387 1.490 . S
C2392 C2394 1.395 . S
C2392 C2395 1.403 . S
H2393 C2399 0.930 . S
C2394 H2380 0.930 . S
C2394 C2392 1.395 . S
C2394 C2397 1.403 . S
C2395 C2392 1.403 . S
C2395 C2396 1.524 . S
C2395 C2399 1.400 . S
C2396 H2381 0.960 . S
C2396 H2382 0.960 . S
C2396 H2383 0.960 . S
C2396 C2395 1.524 . S
C2397 C2394 1.403 . S
C2397 C2398 1.392 . S
C2397 C2401 1.495 . S
C2398 C2397 1.392 . S
C2398 C2399 1.385 . S
C2398 C2400 1.478 . S
C2399 H2393 0.930 . S
C2399 C2395 1.400 . S
C2399 C2398 1.385 . S
C2400 C2398 1.478 . S
C2400 C2402 1.381 . S
C2400 C2406 1.383 . S
C2401 C2397 1.495 . S
C2401 H2407 0.959 . S
C2401 H2408 0.961 . S
C2401 H2409 0.960 . S
C2402 C2400 1.381 . S
C2402 C2403 1.394 . S
C2402 H2410 0.930 . S
C2403 C2402 1.394 . S
C2403 C2404 1.383 . S
C2403 H2411 0.929 . S
C2404 C2403 1.383 . S
C2404 C2405 1.377 . S
C2405 H2389 0.930 . S
C2405 C2404 1.377 . S
C2405 C2406 1.379 . S
C2406 H2390 0.931 . S
C2406 C2400 1.383 . S
C2406 C2405 1.379 . S
H2407 C2401 0.959 . S
H2408 C2401 0.961 . S
H2409 C2401 0.960 . S
H2410 C2402 0.930 . S
H2411 C2403 0.929 . S
H2412 C2420 0.929 . S
H2413 C2422 0.930 . S
H2414 C2424 0.930 . S
H2415 C2427 0.929 . S
H2416 C2430 0.930 . S
H2417 C2432 0.960 . S
H2418 C2432 0.960 . S
H2419 C2432 0.960 . S
C2420 H2412 0.929 . S
C2420 C2421 1.377 . S
C2420 C2422 1.384 . S
C2421 C2420 1.377 . S
C2421 C2427 1.390 . S
C2422 H2413 0.930 . S
C2422 C2420 1.384 . S
C2422 C2423 1.372 . S
C2423 C2422 1.372 . S
C2423 C2424 1.400 . S
C2423 C2428 1.490 . S
C2424 H2414 0.930 . S
C2424 C2423 1.400 . S
C2424 C2427 1.386 . S
H2425 C2441 0.930 . S
H2426 C2442 0.931 . S
C2427 H2415 0.929 . S
C2427 C2421 1.390 . S
C2427 C2424 1.386 . S
C2428 C2423 1.490 . S
C2428 C2430 1.395 . S
C2428 C2431 1.403 . S
H2429 C2435 0.930 . S
C2430 H2416 0.930 . S
C2430 C2428 1.395 . S
C2430 C2433 1.403 . S
C2431 C2428 1.403 . S
C2431 C2432 1.524 . S
C2431 C2435 1.400 . S
C2432 H2417 0.960 . S
C2432 H2418 0.960 . S
C2432 H2419 0.960 . S
C2432 C2431 1.524 . S
C2433 C2430 1.403 . S
C2433 C2434 1.392 . S
C2433 C2437 1.495 . S
C2434 C2433 1.392 . S
C2434 C2435 1.385 . S
C2434 C2436 1.478 . S
C2435 H2429 0.930 . S
C2435 C2431 1.400 . S
C2435 C2434 1.385 . S
C2436 C2434 1.478 . S
C2436 C2438 1.381 . S
C2436 C2442 1.383 . S
C2437 C2433 1.495 . S
C2437 H2443 0.959 . S
C2437 H2444 0.961 . S
C2437 H2445 0.960 . S
C2438 C2436 1.381 . S
C2438 C2439 1.394 . S
C2438 H2446 0.930 . S
C2439 C2438 1.394 . S
C2439 C2440 1.383 . S
C2439 H2447 0.929 . S
C2440 C2439 1.383 . S
C2440 C2441 1.377 . S
C2441 H2425 0.930 . S
C2441 C2440 1.377 . S
C2441 C2442 1.379 . S
C2442 H2426 0.931 . S
C2442 C2436 1.383 . S
C2442 C2441 1.379 . S
H2443 C2437 0.959 . S
H2444 C2437 0.961 . S
H2445 C2437 0.960 . S
H2446 C2438 0.930 . S
H2447 C2439 0.929 . S
H2448 C2456 0.929 . S
H2449 C2458 0.930 . S
H2450 C2460 0.930 . S
H2451 C2463 0.929 . S
H2452 C2466 0.930 . S
H2453 C2468 0.960 . S
H2454 C2468 0.960 . S
H2455 C2468 0.960 . S
C2456 H2448 0.929 . S
C2456 C2457 1.377 . S
C2456 C2458 1.384 . S
C2457 C2456 1.377 . S
C2457 C2463 1.390 . S
C2458 H2449 0.930 . S
C2458 C2456 1.384 . S
C2458 C2459 1.372 . S
C2459 C2458 1.372 . S
C2459 C2460 1.400 . S
C2459 C2464 1.490 . S
C2460 H2450 0.930 . S
C2460 C2459 1.400 . S
C2460 C2463 1.386 . S
H2461 C2477 0.930 . S
H2462 C2478 0.931 . S
C2463 H2451 0.929 . S
C2463 C2457 1.390 . S
C2463 C2460 1.386 . S
C2464 C2459 1.490 . S
C2464 C2466 1.395 . S
C2464 C2467 1.403 . S
H2465 C2471 0.930 . S
C2466 H2452 0.930 . S
C2466 C2464 1.395 . S
C2466 C2469 1.403 . S
C2467 C2464 1.403 . S
C2467 C2468 1.524 . S
C2467 C2471 1.400 . S
C2468 H2453 0.960 . S
C2468 H2454 0.960 . S
C2468 H2455 0.960 . S
C2468 C2467 1.524 . S
C2469 C2466 1.403 . S
C2469 C2470 1.392 . S
C2469 C2473 1.495 . S
C2470 C2469 1.392 . S
C2470 C2471 1.385 . S
C2470 C2472 1.478 . S
C2471 H2465 0.930 . S
C2471 C2467 1.400 . S
C2471 C2470 1.385 . S
C2472 C2470 1.478 . S
C2472 C2474 1.381 . S
C2472 C2478 1.383 . S
C2473 C2469 1.495 . S
C2473 H2479 0.959 . S
C2473 H2480 0.961 . S
C2473 H2481 0.960 . S
C2474 C2472 1.381 . S
C2474 C2475 1.394 . S
C2474 H2482 0.930 . S
C2475 C2474 1.394 . S
C2475 C2476 1.383 . S
C2475 H2483 0.929 . S
C2476 C2475 1.383 . S
C2476 C2477 1.377 . S
C2477 H2461 0.930 . S
C2477 C2476 1.377 . S
C2477 C2478 1.379 . S
C2478 H2462 0.931 . S
C2478 C2472 1.383 . S
C2478 C2477 1.379 . S
H2479 C2473 0.959 . S
H2480 C2473 0.961 . S
H2481 C2473 0.960 . S
H2482 C2474 0.930 . S
H2483 C2475 0.929 . S
H2484 C2492 0.929 . S
H2485 C2494 0.930 . S
H2486 C2496 0.930 . S
H2487 C2499 0.929 . S
H2488 C2502 0.930 . S
H2489 C2504 0.960 . S
H2490 C2504 0.960 . S
H2491 C2504 0.960 . S
C2492 H2484 0.929 . S
C2492 C2493 1.377 . S
C2492 C2494 1.384 . S
C2493 C2492 1.377 . S
C2493 C2499 1.390 . S
C2494 H2485 0.930 . S
C2494 C2492 1.384 . S
C2494 C2495 1.372 . S
C2495 C2494 1.372 . S
C2495 C2496 1.400 . S
C2495 C2500 1.490 . S
C2496 H2486 0.930 . S
C2496 C2495 1.400 . S
C2496 C2499 1.386 . S
H2497 C2513 0.930 . S
H2498 C2514 0.931 . S
C2499 H2487 0.929 . S
C2499 C2493 1.390 . S
C2499 C2496 1.386 . S
C2500 C2495 1.490 . S
C2500 C2502 1.395 . S
C2500 C2503 1.403 . S
H2501 C2507 0.930 . S
C2502 H2488 0.930 . S
C2502 C2500 1.395 . S
C2502 C2505 1.403 . S
C2503 C2500 1.403 . S
C2503 C2504 1.524 . S
C2503 C2507 1.400 . S
C2504 H2489 0.960 . S
C2504 H2490 0.960 . S
C2504 H2491 0.960 . S
C2504 C2503 1.524 . S
C2505 C2502 1.403 . S
C2505 C2506 1.392 . S
C2505 C2509 1.495 . S
C2506 C2505 1.392 . S
C2506 C2507 1.385 . S
C2506 C2508 1.478 . S
C2507 H2501 0.930 . S
C2507 C2503 1.400 . S
C2507 C2506 1.385 . S
C2508 C2506 1.478 . S
C2508 C2510 1.381 . S
C2508 C2514 1.383 . S
C2509 C2505 1.495 . S
C2509 H2515 0.959 . S
C2509 H2516 0.961 . S
C2509 H2517 0.960 . S
C2510 C2508 1.381 . S
C2510 C2511 1.394 . S
C2510 H2518 0.930 . S
C2511 C2510 1.394 . S
C2511 C2512 1.383 . S
C2511 H2519 0.929 . S
C2512 C2511 1.383 . S
C2512 C2513 1.377 . S
C2513 H2497 0.930 . S
C2513 C2512 1.377 . S
C2513 C2514 1.379 . S
C2514 H2498 0.931 . S
C2514 C2508 1.383 . S
C2514 C2513 1.379 . S
H2515 C2509 0.959 . S
H2516 C2509 0.961 . S
H2517 C2509 0.960 . S
H2518 C2510 0.930 . S
H2519 C2511 0.929 . S
H2520 C2528 0.929 . S
H2521 C2530 0.930 . S
H2522 C2532 0.930 . S
H2523 C2535 0.929 . S
H2524 C2538 0.930 . S
H2525 C2540 0.960 . S
H2526 C2540 0.960 . S
H2527 C2540 0.960 . S
C2528 H2520 0.929 . S
C2528 C2529 1.377 . S
C2528 C2530 1.384 . S
C2529 C2528 1.377 . S
C2529 C2535 1.390 . S
C2530 H2521 0.930 . S
C2530 C2528 1.384 . S
C2530 C2531 1.372 . S
C2531 C2530 1.372 . S
C2531 C2532 1.400 . S
C2531 C2536 1.490 . S
C2532 H2522 0.930 . S
C2532 C2531 1.400 . S
C2532 C2535 1.386 . S
H2533 C2549 0.930 . S
H2534 C2550 0.931 . S
C2535 H2523 0.929 . S
C2535 C2529 1.390 . S
C2535 C2532 1.386 . S
C2536 C2531 1.490 . S
C2536 C2538 1.395 . S
C2536 C2539 1.403 . S
H2537 C2543 0.930 . S
C2538 H2524 0.930 . S
C2538 C2536 1.395 . S
C2538 C2541 1.403 . S
C2539 C2536 1.403 . S
C2539 C2540 1.524 . S
C2539 C2543 1.400 . S
C2540 H2525 0.960 . S
C2540 H2526 0.960 . S
C2540 H2527 0.960 . S
C2540 C2539 1.524 . S
C2541 C2538 1.403 . S
C2541 C2542 1.392 . S
C2541 C2545 1.495 . S
C2542 C2541 1.392 . S
C2542 C2543 1.385 . S
C2542 C2544 1.478 . S
C2543 H2537 0.930 . S
C2543 C2539 1.400 . S
C2543 C2542 1.385 . S
C2544 C2542 1.478 . S
C2544 C2546 1.381 . S
C2544 C2550 1.383 . S
C2545 C2541 1.495 . S
C2545 H2551 0.959 . S
C2545 H2552 0.961 . S
C2545 H2553 0.960 . S
C2546 C2544 1.381 . S
C2546 C2547 1.394 . S
C2546 H2554 0.930 . S
C2547 C2546 1.394 . S
C2547 C2548 1.383 . S
C2547 H2555 0.929 . S
C2548 C2547 1.383 . S
C2548 C2549 1.377 . S
C2549 H2533 0.930 . S
C2549 C2548 1.377 . S
C2549 C2550 1.379 . S
C2550 H2534 0.931 . S
C2550 C2544 1.383 . S
C2550 C2549 1.379 . S
H2551 C2545 0.959 . S
H2552 C2545 0.961 . S
H2553 C2545 0.960 . S
H2554 C2546 0.930 . S
H2555 C2547 0.929 . S
H2556 C2564 0.929 . S
H2557 C2566 0.930 . S
H2558 C2568 0.930 . S
H2559 C2571 0.929 . S
H2560 C2574 0.930 . S
H2561 C2576 0.960 . S
H2562 C2576 0.960 . S
H2563 C2576 0.960 . S
C2564 H2556 0.929 . S
C2564 C2565 1.377 . S
C2564 C2566 1.384 . S
C2565 C2564 1.377 . S
C2565 C2571 1.390 . S
C2566 H2557 0.930 . S
C2566 C2564 1.384 . S
C2566 C2567 1.372 . S
C2567 C2566 1.372 . S
C2567 C2568 1.400 . S
C2567 C2572 1.490 . S
C2568 H2558 0.930 . S
C2568 C2567 1.400 . S
C2568 C2571 1.386 . S
H2569 C2585 0.930 . S
H2570 C2586 0.931 . S
C2571 H2559 0.929 . S
C2571 C2565 1.390 . S
C2571 C2568 1.386 . S
C2572 C2567 1.490 . S
C2572 C2574 1.395 . S
C2572 C2575 1.403 . S
H2573 C2579 0.930 . S
C2574 H2560 0.930 . S
C2574 C2572 1.395 . S
C2574 C2577 1.403 . S
C2575 C2572 1.403 . S
C2575 C2576 1.524 . S
C2575 C2579 1.400 . S
C2576 H2561 0.960 . S
C2576 H2562 0.960 . S
C2576 H2563 0.960 . S
C2576 C2575 1.524 . S
C2577 C2574 1.403 . S
C2577 C2578 1.392 . S
C2577 C2581 1.495 . S
C2578 C2577 1.392 . S
C2578 C2579 1.385 . S
C2578 C2580 1.478 . S
C2579 H2573 0.930 . S
C2579 C2575 1.400 . S
C2579 C2578 1.385 . S
C2580 C2578 1.478 . S
C2580 C2582 1.381 . S
C2580 C2586 1.383 . S
C2581 C2577 1.495 . S
C2581 H2587 0.959 . S
C2581 H2588 0.961 . S
C2581 H2589 0.960 . S
C2582 C2580 1.381 . S
C2582 C2583 1.394 . S
C2582 H2590 0.930 . S
C2583 C2582 1.394 . S
C2583 C2584 1.383 . S
C2583 H2591 0.929 . S
C2584 C2583 1.383 . S
C2584 C2585 1.377 . S
C2585 H2569 0.930 . S
C2585 C2584 1.377 . S
C2585 C2586 1.379 . S
C2586 H2570 0.931 . S
C2586 C2580 1.383 . S
C2586 C2585 1.379 . S
H2587 C2581 0.959 . S
H2588 C2581 0.961 . S
H2589 C2581 0.960 . S
H2590 C2582 0.930 . S
H2591 C2583 0.929 . S
H2592 C2600 0.929 . S
H2593 C2602 0.930 . S
H2594 C2604 0.930 . S
H2595 C2607 0.929 . S
H2596 C2610 0.930 . S
H2597 C2612 0.960 . S
H2598 C2612 0.960 . S
H2599 C2612 0.960 . S
C2600 H2592 0.929 . S
C2600 C2601 1.377 . S
C2600 C2602 1.384 . S
C2601 C2600 1.377 . S
C2601 C2607 1.390 . S
C2602 H2593 0.930 . S
C2602 C2600 1.384 . S
C2602 C2603 1.372 . S
C2603 C2602 1.372 . S
C2603 C2604 1.400 . S
C2603 C2608 1.490 . S
C2604 H2594 0.930 . S
C2604 C2603 1.400 . S
C2604 C2607 1.386 . S
H2605 C2621 0.930 . S
H2606 C2622 0.931 . S
C2607 H2595 0.929 . S
C2607 C2601 1.390 . S
C2607 C2604 1.386 . S
C2608 C2603 1.490 . S
C2608 C2610 1.395 . S
C2608 C2611 1.403 . S
H2609 C2615 0.930 . S
C2610 H2596 0.930 . S
C2610 C2608 1.395 . S
C2610 C2613 1.403 . S
C2611 C2608 1.403 . S
C2611 C2612 1.524 . S
C2611 C2615 1.400 . S
C2612 H2597 0.960 . S
C2612 H2598 0.960 . S
C2612 H2599 0.960 . S
C2612 C2611 1.524 . S
C2613 C2610 1.403 . S
C2613 C2614 1.392 . S
C2613 C2617 1.495 . S
C2614 C2613 1.392 . S
C2614 C2615 1.385 . S
C2614 C2616 1.478 . S
C2615 H2609 0.930 . S
C2615 C2611 1.400 . S
C2615 C2614 1.385 . S
C2616 C2614 1.478 . S
C2616 C2618 1.381 . S
C2616 C2622 1.383 . S
C2617 C2613 1.495 . S
C2617 H2623 0.959 . S
C2617 H2624 0.961 . S
C2617 H2625 0.960 . S
C2618 C2616 1.381 . S
C2618 C2619 1.394 . S
C2618 H2626 0.930 . S
C2619 C2618 1.394 . S
C2619 C2620 1.383 . S
C2619 H2627 0.929 . S
C2620 C2619 1.383 . S
C2620 C2621 1.377 . S
C2621 H2605 0.930 . S
C2621 C2620 1.377 . S
C2621 C2622 1.379 . S
C2622 H2606 0.931 . S
C2622 C2616 1.383 . S
C2622 C2621 1.379 . S
H2623 C2617 0.959 . S
H2624 C2617 0.961 . S
H2625 C2617 0.960 . S
H2626 C2618 0.930 . S
H2627 C2619 0.929 . S
H2628 C2636 0.929 . S
H2629 C2638 0.930 . S
H2630 C2640 0.930 . S
H2631 C2643 0.929 . S
H2632 C2646 0.930 . S
H2633 C2648 0.960 . S
H2634 C2648 0.960 . S
H2635 C2648 0.960 . S
C2636 H2628 0.929 . S
C2636 C2637 1.377 . S
C2636 C2638 1.384 . S
C2637 C2636 1.377 . S
C2637 C2643 1.390 . S
C2638 H2629 0.930 . S
C2638 C2636 1.384 . S
C2638 C2639 1.372 . S
C2639 C2638 1.372 . S
C2639 C2640 1.400 . S
C2639 C2644 1.490 . S
C2640 H2630 0.930 . S
C2640 C2639 1.400 . S
C2640 C2643 1.386 . S
H2641 C2657 0.930 . S
H2642 C2658 0.931 . S
C2643 H2631 0.929 . S
C2643 C2637 1.390 . S
C2643 C2640 1.386 . S
C2644 C2639 1.490 . S
C2644 C2646 1.395 . S
C2644 C2647 1.403 . S
H2645 C2651 0.930 . S
C2646 H2632 0.930 . S
C2646 C2644 1.395 . S
C2646 C2649 1.403 . S
C2647 C2644 1.403 . S
C2647 C2648 1.524 . S
C2647 C2651 1.400 . S
C2648 H2633 0.960 . S
C2648 H2634 0.960 . S
C2648 H2635 0.960 . S
C2648 C2647 1.524 . S
C2649 C2646 1.403 . S
C2649 C2650 1.392 . S
C2649 C2653 1.495 . S
C2650 C2649 1.392 . S
C2650 C2651 1.385 . S
C2650 C2652 1.478 . S
C2651 H2645 0.930 . S
C2651 C2647 1.400 . S
C2651 C2650 1.385 . S
C2652 C2650 1.478 . S
C2652 C2654 1.381 . S
C2652 C2658 1.383 . S
C2653 C2649 1.495 . S
C2653 H2659 0.959 . S
C2653 H2660 0.961 . S
C2653 H2661 0.960 . S
C2654 C2652 1.381 . S
C2654 C2655 1.394 . S
C2654 H2662 0.930 . S
C2655 C2654 1.394 . S
C2655 C2656 1.383 . S
C2655 H2663 0.929 . S
C2656 C2655 1.383 . S
C2656 C2657 1.377 . S
C2657 H2641 0.930 . S
C2657 C2656 1.377 . S
C2657 C2658 1.379 . S
C2658 H2642 0.931 . S
C2658 C2652 1.383 . S
C2658 C2657 1.379 . S
H2659 C2653 0.959 . S
H2660 C2653 0.961 . S
H2661 C2653 0.960 . S
H2662 C2654 0.930 . S
H2663 C2655 0.929 . S
H2664 C2672 0.929 . S
H2665 C2674 0.930 . S
H2666 C2676 0.930 . S
H2667 C2679 0.929 . S
H2668 C2682 0.930 . S
H2669 C2684 0.960 . S
H2670 C2684 0.960 . S
H2671 C2684 0.960 . S
C2672 H2664 0.929 . S
C2672 C2673 1.377 . S
C2672 C2674 1.384 . S
C2673 C2672 1.377 . S
C2673 C2679 1.390 . S
C2674 H2665 0.930 . S
C2674 C2672 1.384 . S
C2674 C2675 1.372 . S
C2675 C2674 1.372 . S
C2675 C2676 1.400 . S
C2675 C2680 1.490 . S
C2676 H2666 0.930 . S
C2676 C2675 1.400 . S
C2676 C2679 1.386 . S
H2677 C2693 0.930 . S
H2678 C2694 0.931 . S
C2679 H2667 0.929 . S
C2679 C2673 1.390 . S
C2679 C2676 1.386 . S
C2680 C2675 1.490 . S
C2680 C2682 1.395 . S
C2680 C2683 1.403 . S
H2681 C2687 0.930 . S
C2682 H2668 0.930 . S
C2682 C2680 1.395 . S
C2682 C2685 1.403 . S
C2683 C2680 1.403 . S
C2683 C2684 1.524 . S
C2683 C2687 1.400 . S
C2684 H2669 0.960 . S
C2684 H2670 0.960 . S
C2684 H2671 0.960 . S
C2684 C2683 1.524 . S
C2685 C2682 1.403 . S
C2685 C2686 1.392 . S
C2685 C2689 1.495 . S
C2686 C2685 1.392 . S
C2686 C2687 1.385 . S
C2686 C2688 1.478 . S
C2687 H2681 0.930 . S
C2687 C2683 1.400 . S
C2687 C2686 1.385 . S
C2688 C2686 1.478 . S
C2688 C2690 1.381 . S
C2688 C2694 1.383 . S
C2689 C2685 1.495 . S
C2689 H2695 0.959 . S
C2689 H2696 0.961 . S
C2689 H2697 0.960 . S
C2690 C2688 1.381 . S
C2690 C2691 1.394 . S
C2690 H2698 0.930 . S
C2691 C2690 1.394 . S
C2691 C2692 1.383 . S
C2691 H2699 0.929 . S
C2692 C2691 1.383 . S
C2692 C2693 1.377 . S
C2693 H2677 0.930 . S
C2693 C2692 1.377 . S
C2693 C2694 1.379 . S
C2694 H2678 0.931 . S
C2694 C2688 1.383 . S
C2694 C2693 1.379 . S
H2695 C2689 0.959 . S
H2696 C2689 0.961 . S
H2697 C2689 0.960 . S
H2698 C2690 0.930 . S
H2699 C2691 0.929 . S
H2700 C2708 0.929 . S
H2701 C2710 0.930 . S
H2702 C2712 0.930 . S
H2703 C2715 0.929 . S
H2704 C2718 0.930 . S
H2705 C2720 0.960 . S
H2706 C2720 0.960 . S
H2707 C2720 0.960 . S
C2708 H2700 0.929 . S
C2708 C2709 1.377 . S
C2708 C2710 1.384 . S
C2709 C2708 1.377 . S
C2709 C2715 1.390 . S
C2710 H2701 0.930 . S
C2710 C2708 1.384 . S
C2710 C2711 1.372 . S
C2711 C2710 1.372 . S
C2711 C2712 1.400 . S
C2711 C2716 1.490 . S
C2712 H2702 0.930 . S
C2712 C2711 1.400 . S
C2712 C2715 1.386 . S
H2713 C2729 0.930 . S
H2714 C2730 0.931 . S
C2715 H2703 0.929 . S
C2715 C2709 1.390 . S
C2715 C2712 1.386 . S
C2716 C2711 1.490 . S
C2716 C2718 1.395 . S
C2716 C2719 1.403 . S
H2717 C2723 0.930 . S
C2718 H2704 0.930 . S
C2718 C2716 1.395 . S
C2718 C2721 1.403 . S
C2719 C2716 1.403 . S
C2719 C2720 1.524 . S
C2719 C2723 1.400 . S
C2720 H2705 0.960 . S
C2720 H2706 0.960 . S
C2720 H2707 0.960 . S
C2720 C2719 1.524 . S
C2721 C2718 1.403 . S
C2721 C2722 1.392 . S
C2721 C2725 1.495 . S
C2722 C2721 1.392 . S
C2722 C2723 1.385 . S
C2722 C2724 1.478 . S
C2723 H2717 0.930 . S
C2723 C2719 1.400 . S
C2723 C2722 1.385 . S
C2724 C2722 1.478 . S
C2724 C2726 1.381 . S
C2724 C2730 1.383 . S
C2725 C2721 1.495 . S
C2725 H2731 0.959 . S
C2725 H2732 0.961 . S
C2725 H2733 0.960 . S
C2726 C2724 1.381 . S
C2726 C2727 1.394 . S
C2726 H2734 0.930 . S
C2727 C2726 1.394 . S
C2727 C2728 1.383 . S
C2727 H2735 0.929 . S
C2728 C2727 1.383 . S
C2728 C2729 1.377 . S
C2729 H2713 0.930 . S
C2729 C2728 1.377 . S
C2729 C2730 1.379 . S
C2730 H2714 0.931 . S
C2730 C2724 1.383 . S
C2730 C2729 1.379 . S
H2731 C2725 0.959 . S
H2732 C2725 0.961 . S
H2733 C2725 0.960 . S
H2734 C2726 0.930 . S
H2735 C2727 0.929 . S
H2736 C2744 0.929 . S
H2737 C2746 0.930 . S
H2738 C2748 0.930 . S
H2739 C2751 0.929 . S
H2740 C2754 0.930 . S
H2741 C2756 0.960 . S
H2742 C2756 0.960 . S
H2743 C2756 0.960 . S
C2744 H2736 0.929 . S
C2744 C2745 1.377 . S
C2744 C2746 1.384 . S
C2745 C2744 1.377 . S
C2745 C2751 1.390 . S
C2746 H2737 0.930 . S
C2746 C2744 1.384 . S
C2746 C2747 1.372 . S
C2747 C2746 1.372 . S
C2747 C2748 1.400 . S
C2747 C2752 1.490 . S
C2748 H2738 0.930 . S
C2748 C2747 1.400 . S
C2748 C2751 1.386 . S
H2749 C2765 0.930 . S
H2750 C2766 0.931 . S
C2751 H2739 0.929 . S
C2751 C2745 1.390 . S
C2751 C2748 1.386 . S
C2752 C2747 1.490 . S
C2752 C2754 1.395 . S
C2752 C2755 1.403 . S
H2753 C2759 0.930 . S
C2754 H2740 0.930 . S
C2754 C2752 1.395 . S
C2754 C2757 1.403 . S
C2755 C2752 1.403 . S
C2755 C2756 1.524 . S
C2755 C2759 1.400 . S
C2756 H2741 0.960 . S
C2756 H2742 0.960 . S
C2756 H2743 0.960 . S
C2756 C2755 1.524 . S
C2757 C2754 1.403 . S
C2757 C2758 1.392 . S
C2757 C2761 1.495 . S
C2758 C2757 1.392 . S
C2758 C2759 1.385 . S
C2758 C2760 1.478 . S
C2759 H2753 0.930 . S
C2759 C2755 1.400 . S
C2759 C2758 1.385 . S
C2760 C2758 1.478 . S
C2760 C2762 1.381 . S
C2760 C2766 1.383 . S
C2761 C2757 1.495 . S
C2761 H2767 0.959 . S
C2761 H2768 0.961 . S
C2761 H2769 0.960 . S
C2762 C2760 1.381 . S
C2762 C2763 1.394 . S
C2762 H2770 0.930 . S
C2763 C2762 1.394 . S
C2763 C2764 1.383 . S
C2763 H2771 0.929 . S
C2764 C2763 1.383 . S
C2764 C2765 1.377 . S
C2765 H2749 0.930 . S
C2765 C2764 1.377 . S
C2765 C2766 1.379 . S
C2766 H2750 0.931 . S
C2766 C2760 1.383 . S
C2766 C2765 1.379 . S
H2767 C2761 0.959 . S
H2768 C2761 0.961 . S
H2769 C2761 0.960 . S
H2770 C2762 0.930 . S
H2771 C2763 0.929 . S
H2772 C2780 0.929 . S
H2773 C2782 0.930 . S
H2774 C2784 0.930 . S
H2775 C2787 0.929 . S
H2776 C2790 0.930 . S
H2777 C2792 0.960 . S
H2778 C2792 0.960 . S
H2779 C2792 0.960 . S
C2780 H2772 0.929 . S
C2780 C2781 1.377 . S
C2780 C2782 1.384 . S
C2781 C2780 1.377 . S
C2781 C2787 1.390 . S
C2782 H2773 0.930 . S
C2782 C2780 1.384 . S
C2782 C2783 1.372 . S
C2783 C2782 1.372 . S
C2783 C2784 1.400 . S
C2783 C2788 1.490 . S
C2784 H2774 0.930 . S
C2784 C2783 1.400 . S
C2784 C2787 1.386 . S
H2785 C2801 0.930 . S
H2786 C2802 0.931 . S
C2787 H2775 0.929 . S
C2787 C2781 1.390 . S
C2787 C2784 1.386 . S
C2788 C2783 1.490 . S
C2788 C2790 1.395 . S
C2788 C2791 1.403 . S
H2789 C2795 0.930 . S
C2790 H2776 0.930 . S
C2790 C2788 1.395 . S
C2790 C2793 1.403 . S
C2791 C2788 1.403 . S
C2791 C2792 1.524 . S
C2791 C2795 1.400 . S
C2792 H2777 0.960 . S
C2792 H2778 0.960 . S
C2792 H2779 0.960 . S
C2792 C2791 1.524 . S
C2793 C2790 1.403 . S
C2793 C2794 1.392 . S
C2793 C2797 1.495 . S
C2794 C2793 1.392 . S
C2794 C2795 1.385 . S
C2794 C2796 1.478 . S
C2795 H2789 0.930 . S
C2795 C2791 1.400 . S
C2795 C2794 1.385 . S
C2796 C2794 1.478 . S
C2796 C2798 1.381 . S
C2796 C2802 1.383 . S
C2797 C2793 1.495 . S
C2797 H2803 0.959 . S
C2797 H2804 0.961 . S
C2797 H2805 0.960 . S
C2798 C2796 1.381 . S
C2798 C2799 1.394 . S
C2798 H2806 0.930 . S
C2799 C2798 1.394 . S
C2799 C2800 1.383 . S
C2799 H2807 0.929 . S
C2800 C2799 1.383 . S
C2800 C2801 1.377 . S
C2801 H2785 0.930 . S
C2801 C2800 1.377 . S
C2801 C2802 1.379 . S
C2802 H2786 0.931 . S
C2802 C2796 1.383 . S
C2802 C2801 1.379 . S
H2803 C2797 0.959 . S
H2804 C2797 0.961 . S
H2805 C2797 0.960 . S
H2806 C2798 0.930 . S
H2807 C2799 0.929 . S
H2808 C2816 0.929 . S
H2809 C2818 0.930 . S
H2810 C2820 0.930 . S
H2811 C2823 0.929 . S
H2812 C2826 0.930 . S
H2813 C2828 0.960 . S
H2814 C2828 0.960 . S
H2815 C2828 0.960 . S
C2816 H2808 0.929 . S
C2816 C2817 1.377 . S
C2816 C2818 1.384 . S
C2817 C2816 1.377 . S
C2817 C2823 1.390 . S
C2818 H2809 0.930 . S
C2818 C2816 1.384 . S
C2818 C2819 1.372 . S
C2819 C2818 1.372 . S
C2819 C2820 1.400 . S
C2819 C2824 1.490 . S
C2820 H2810 0.930 . S
C2820 C2819 1.400 . S
C2820 C2823 1.386 . S
H2821 C2837 0.930 . S
H2822 C2838 0.931 . S
C2823 H2811 0.929 . S
C2823 C2817 1.390 . S
C2823 C2820 1.386 . S
C2824 C2819 1.490 . S
C2824 C2826 1.395 . S
C2824 C2827 1.403 . S
H2825 C2831 0.930 . S
C2826 H2812 0.930 . S
C2826 C2824 1.395 . S
C2826 C2829 1.403 . S
C2827 C2824 1.403 . S
C2827 C2828 1.524 . S
C2827 C2831 1.400 . S
C2828 H2813 0.960 . S
C2828 H2814 0.960 . S
C2828 H2815 0.960 . S
C2828 C2827 1.524 . S
C2829 C2826 1.403 . S
C2829 C2830 1.392 . S
C2829 C2833 1.495 . S
C2830 C2829 1.392 . S
C2830 C2831 1.385 . S
C2830 C2832 1.478 . S
C2831 H2825 0.930 . S
C2831 C2827 1.400 . S
C2831 C2830 1.385 . S
C2832 C2830 1.478 . S
C2832 C2834 1.381 . S
C2832 C2838 1.383 . S
C2833 C2829 1.495 . S
C2833 H2839 0.959 . S
C2833 H2840 0.961 . S
C2833 H2841 0.960 . S
C2834 C2832 1.381 . S
C2834 C2835 1.394 . S
C2834 H2842 0.930 . S
C2835 C2834 1.394 . S
C2835 C2836 1.383 . S
C2835 H2843 0.929 . S
C2836 C2835 1.383 . S
C2836 C2837 1.377 . S
C2837 H2821 0.930 . S
C2837 C2836 1.377 . S
C2837 C2838 1.379 . S
C2838 H2822 0.931 . S
C2838 C2832 1.383 . S
C2838 C2837 1.379 . S
H2839 C2833 0.959 . S
H2840 C2833 0.961 . S
H2841 C2833 0.960 . S
H2842 C2834 0.930 . S
H2843 C2835 0.929 . S
H2844 C2852 0.929 . S
H2845 C2854 0.930 . S
H2846 C2856 0.930 . S
H2847 C2859 0.929 . S
H2848 C2862 0.930 . S
H2849 C2864 0.960 . S
H2850 C2864 0.960 . S
H2851 C2864 0.960 . S
C2852 H2844 0.929 . S
C2852 C2853 1.377 . S
C2852 C2854 1.384 . S
C2853 C2852 1.377 . S
C2853 C2859 1.390 . S
C2854 H2845 0.930 . S
C2854 C2852 1.384 . S
C2854 C2855 1.372 . S
C2855 C2854 1.372 . S
C2855 C2856 1.400 . S
C2855 C2860 1.490 . S
C2856 H2846 0.930 . S
C2856 C2855 1.400 . S
C2856 C2859 1.386 . S
H2857 C2873 0.930 . S
H2858 C2874 0.931 . S
C2859 H2847 0.929 . S
C2859 C2853 1.390 . S
C2859 C2856 1.386 . S
C2860 C2855 1.490 . S
C2860 C2862 1.395 . S
C2860 C2863 1.403 . S
H2861 C2867 0.930 . S
C2862 H2848 0.930 . S
C2862 C2860 1.395 . S
C2862 C2865 1.403 . S
C2863 C2860 1.403 . S
C2863 C2864 1.524 . S
C2863 C2867 1.400 . S
C2864 H2849 0.960 . S
C2864 H2850 0.960 . S
C2864 H2851 0.960 . S
C2864 C2863 1.524 . S
C2865 C2862 1.403 . S
C2865 C2866 1.392 . S
C2865 C2869 1.495 . S
C2866 C2865 1.392 . S
C2866 C2867 1.385 . S
C2866 C2868 1.478 . S
C2867 H2861 0.930 . S
C2867 C2863 1.400 . S
C2867 C2866 1.385 . S
C2868 C2866 1.478 . S
C2868 C2870 1.381 . S
C2868 C2874 1.383 . S
C2869 C2865 1.495 . S
C2869 H2875 0.959 . S
C2869 H2876 0.961 . S
C2869 H2877 0.960 . S
C2870 C2868 1.381 . S
C2870 C2871 1.394 . S
C2870 H2878 0.930 . S
C2871 C2870 1.394 . S
C2871 C2872 1.383 . S
C2871 H2879 0.929 . S
C2872 C2871 1.383 . S
C2872 C2873 1.377 . S
C2873 H2857 0.930 . S
C2873 C2872 1.377 . S
C2873 C2874 1.379 . S
C2874 H2858 0.931 . S
C2874 C2868 1.383 . S
C2874 C2873 1.379 . S
H2875 C2869 0.959 . S
H2876 C2869 0.961 . S
H2877 C2869 0.960 . S
H2878 C2870 0.930 . S
H2879 C2871 0.929 . S
H2880 C2888 0.929 . S
H2881 C2890 0.930 . S
H2882 C2892 0.930 . S
H2883 C2895 0.929 . S
H2884 C2898 0.930 . S
H2885 C2900 0.960 . S
H2886 C2900 0.960 . S
H2887 C2900 0.960 . S
C2888 H2880 0.929 . S
C2888 C2889 1.377 . S
C2888 C2890 1.384 . S
C2889 C2888 1.377 . S
C2889 C2895 1.390 . S
C2890 H2881 0.930 . S
C2890 C2888 1.384 . S
C2890 C2891 1.372 . S
C2891 C2890 1.372 . S
C2891 C2892 1.400 . S
C2891 C2896 1.490 . S
C2892 H2882 0.930 . S
C2892 C2891 1.400 . S
C2892 C2895 1.386 . S
H2893 C2909 0.930 . S
H2894 C2910 0.931 . S
C2895 H2883 0.929 . S
C2895 C2889 1.390 . S
C2895 C2892 1.386 . S
C2896 C2891 1.490 . S
C2896 C2898 1.395 . S
C2896 C2899 1.403 . S
H2897 C2903 0.930 . S
C2898 H2884 0.930 . S
C2898 C2896 1.395 . S
C2898 C2901 1.403 . S
C2899 C2896 1.403 . S
C2899 C2900 1.524 . S
C2899 C2903 1.400 . S
C2900 H2885 0.960 . S
C2900 H2886 0.960 . S
C2900 H2887 0.960 . S
C2900 C2899 1.524 . S
C2901 C2898 1.403 . S
C2901 C2902 1.392 . S
C2901 C2905 1.495 . S
C2902 C2901 1.392 . S
C2902 C2903 1.385 . S
C2902 C2904 1.478 . S
C2903 H2897 0.930 . S
C2903 C2899 1.400 . S
C2903 C2902 1.385 . S
C2904 C2902 1.478 . S
C2904 C2906 1.381 . S
C2904 C2910 1.383 . S
C2905 C2901 1.495 . S
C2905 H2911 0.959 . S
C2905 H2912 0.961 . S
C2905 H2913 0.960 . S
C2906 C2904 1.381 . S
C2906 C2907 1.394 . S
C2906 H2914 0.930 . S
C2907 C2906 1.394 . S
C2907 C2908 1.383 . S
C2907 H2915 0.929 . S
C2908 C2907 1.383 . S
C2908 C2909 1.377 . S
C2909 H2893 0.930 . S
C2909 C2908 1.377 . S
C2909 C2910 1.379 . S
C2910 H2894 0.931 . S
C2910 C2904 1.383 . S
C2910 C2909 1.379 . S
H2911 C2905 0.959 . S
H2912 C2905 0.961 . S
H2913 C2905 0.960 . S
H2914 C2906 0.930 . S
H2915 C2907 0.929 . S
H2916 C2924 0.929 . S
H2917 C2926 0.930 . S
H2918 C2928 0.930 . S
H2919 C2931 0.929 . S
H2920 C2934 0.930 . S
H2921 C2936 0.960 . S
H2922 C2936 0.960 . S
H2923 C2936 0.960 . S
C2924 H2916 0.929 . S
C2924 C2925 1.377 . S
C2924 C2926 1.384 . S
C2925 C2924 1.377 . S
C2925 C2931 1.390 . S
C2926 H2917 0.930 . S
C2926 C2924 1.384 . S
C2926 C2927 1.372 . S
C2927 C2926 1.372 . S
C2927 C2928 1.400 . S
C2927 C2932 1.490 . S
C2928 H2918 0.930 . S
C2928 C2927 1.400 . S
C2928 C2931 1.386 . S
H2929 C2945 0.930 . S
H2930 C2946 0.931 . S
C2931 H2919 0.929 . S
C2931 C2925 1.390 . S
C2931 C2928 1.386 . S
C2932 C2927 1.490 . S
C2932 C2934 1.395 . S
C2932 C2935 1.403 . S
H2933 C2939 0.930 . S
C2934 H2920 0.930 . S
C2934 C2932 1.395 . S
C2934 C2937 1.403 . S
C2935 C2932 1.403 . S
C2935 C2936 1.524 . S
C2935 C2939 1.400 . S
C2936 H2921 0.960 . S
C2936 H2922 0.960 . S
C2936 H2923 0.960 . S
C2936 C2935 1.524 . S
C2937 C2934 1.403 . S
C2937 C2938 1.392 . S
C2937 C2941 1.495 . S
C2938 C2937 1.392 . S
C2938 C2939 1.385 . S
C2938 C2940 1.478 . S
C2939 H2933 0.930 . S
C2939 C2935 1.400 . S
C2939 C2938 1.385 . S
C2940 C2938 1.478 . S
C2940 C2942 1.381 . S
C2940 C2946 1.383 . S
C2941 C2937 1.495 . S
C2941 H2947 0.959 . S
C2941 H2948 0.961 . S
C2941 H2949 0.960 . S
C2942 C2940 1.381 . S
C2942 C2943 1.394 1_655 S
C2942 H2950 0.930 . S
C2943 C2942 1.394 1_455 S
C2943 C2944 1.383 . S
C2943 H2951 0.929 . S
C2944 C2943 1.383 . S
C2944 C2945 1.377 . S
C2945 H2929 0.930 . S
C2945 C2944 1.377 . S
C2945 C2946 1.379 1_455 S
C2946 H2930 0.931 . S
C2946 C2940 1.383 . S
C2946 C2945 1.379 1_655 S
H2947 C2941 0.959 . S
H2948 C2941 0.961 . S
H2949 C2941 0.960 . S
H2950 C2942 0.930 . S
H2951 C2943 0.929 . S
H2952 C2960 0.929 . S
H2953 C2962 0.930 . S
H2954 C2964 0.930 . S
H2955 C2967 0.929 . S
H2956 C2970 0.930 . S
H2957 C2972 0.960 . S
H2958 C2972 0.960 . S
H2959 C2972 0.960 1_554 S
C2960 H2952 0.929 . S
C2960 C2961 1.377 . S
C2960 C2962 1.384 . S
C2961 C2960 1.377 . S
C2961 C2967 1.390 1_556 S
C2962 H2953 0.930 . S
C2962 C2960 1.384 . S
C2962 C2963 1.372 . S
C2963 C2962 1.372 . S
C2963 C2964 1.400 1_556 S
C2963 C2968 1.490 . S
C2964 H2954 0.930 . S
C2964 C2963 1.400 1_554 S
C2964 C2967 1.386 . S
H2965 C2981 0.930 . S
H2966 C2982 0.931 . S
C2967 H2955 0.929 . S
C2967 C2961 1.390 1_554 S
C2967 C2964 1.386 . S
C2968 C2963 1.490 . S
C2968 C2970 1.395 . S
C2968 C2971 1.403 . S
H2969 C2975 0.932 . S
C2970 H2956 0.930 . S
C2970 C2968 1.395 . S
C2970 C2973 1.403 . S
C2971 C2968 1.403 . S
C2971 C2972 1.524 . S
C2971 C2975 1.400 . S
C2972 H2957 0.960 . S
C2972 H2958 0.960 . S
C2972 H2959 0.960 1_556 S
C2972 C2971 1.524 . S
C2973 C2970 1.403 . S
C2973 C2974 1.392 . S
C2973 C2977 1.495 . S
C2974 C2973 1.392 . S
C2974 C2975 1.385 . S
C2974 C2976 1.478 . S
C2975 H2969 0.932 . S
C2975 C2971 1.400 . S
C2975 C2974 1.385 . S
C2976 C2974 1.478 . S
C2976 C2978 1.381 . S
C2976 C2982 1.383 1_556 S
C2977 C2973 1.495 . S
C2977 H2983 0.959 . S
C2977 H2984 0.961 1_556 S
C2977 H2985 0.960 . S
C2978 C2976 1.381 . S
C2978 C2979 1.394 . S
C2978 H2986 0.930 . S
C2979 C2978 1.394 . S
C2979 C2980 1.425 . S
C2979 H2987 0.929 . S
C2980 C2979 1.425 . S
C2980 C2981 1.336 1_556 S
C2981 H2965 0.930 . S
C2981 C2980 1.336 1_554 S
C2981 C2982 1.379 . S
C2982 H2966 0.931 . S
C2982 C2976 1.383 1_554 S
C2982 C2981 1.379 . S
H2983 C2977 0.959 . S
H2984 C2977 0.961 1_554 S
H2985 C2977 0.960 . S
H2986 C2978 0.930 . S
H2987 C2979 0.929 . S
H2988 C2996 0.929 . S
H2989 C2998 0.930 . S
H2990 C3000 0.930 . S
H2991 C3003 0.932 . S
H2992 C3006 0.930 . S
H2993 C3008 0.960 . S
H2994 C3008 0.960 . S
H2995 C3008 0.960 . S
C2996 H2988 0.929 . S
C2996 C2997 1.410 . S
C2996 C2998 1.384 1_455 S
C2997 C2996 1.410 . S
C2997 C3003 1.365 1_556 S
C2998 H2989 0.930 . S
C2998 C2996 1.384 1_655 S
C2998 C2999 1.372 . S
C2999 C2998 1.372 . S
C2999 C3000 1.400 1_556 S
C2999 C3004 1.490 . S
C3000 H2990 0.930 . S
C3000 C2999 1.400 1_554 S
C3000 C3003 1.376 1_655 S
H3001 C3017 0.930 . S
H3002 C3018 0.931 . S
C3003 H2991 0.932 . S
C3003 C2997 1.365 1_554 S
C3003 C3000 1.376 1_455 S
C3004 C2999 1.490 . S
C3004 C3006 1.395 . S
C3004 C3007 1.403 1_556 S
H3005 C3011 0.930 . S
C3006 H2992 0.930 . S
C3006 C3004 1.395 . S
C3006 C3009 1.403 . S
C3007 C3004 1.403 1_554 S
C3007 C3008 1.524 . S
C3007 C3011 1.400 . S
C3008 H2993 0.960 . S
C3008 H2994 0.960 . S
C3008 H2995 0.960 . S
C3008 C3007 1.524 . S
C3009 C3006 1.403 . S
C3009 C3010 1.392 . S
C3009 C3013 1.495 . S
C3010 C3009 1.392 . S
C3010 C3011 1.385 1_556 S
C3010 C3012 1.478 . S
C3011 H3005 0.930 . S
C3011 C3007 1.400 . S
C3011 C3010 1.385 1_554 S
C3012 C3010 1.478 . S
C3012 C3014 1.381 . S
C3012 C3018 1.383 1_556 S
C3013 C3009 1.495 . S
C3013 H3019 0.959 . S
C3013 H3020 0.961 . S
C3013 H3021 0.960 . S
C3014 C3012 1.381 . S
C3014 C3015 1.394 . S
C3014 H3022 0.930 . S
C3015 C3014 1.394 . S
C3015 C3016 1.383 . S
C3015 H3023 0.929 . S
C3016 C3015 1.383 . S
C3016 C3017 1.377 1_556 S
C3017 H3001 0.930 . S
C3017 C3016 1.377 1_554 S
C3017 C3018 1.379 . S
C3018 H3002 0.931 . S
C3018 C3012 1.383 1_554 S
C3018 C3017 1.379 . S
H3019 C3013 0.959 . S
H3020 C3013 0.961 . S
H3021 C3013 0.960 . S
H3022 C3014 0.930 . S
H3023 C3015 0.929 . S
H3024 C3032 0.929 . S
H3025 C3034 0.930 . S
H3026 C3036 0.930 . S
H3027 C3039 0.929 . S
H3028 C3042 0.930 . S
H3029 C3044 0.960 . S
H3030 C3044 0.960 . S
H3031 C3044 0.960 . S
C3032 H3024 0.929 . S
C3032 C3033 1.377 . S
C3032 C3034 1.384 . S
C3033 C3032 1.377 . S
C3033 C3039 1.390 . S
C3034 H3025 0.930 . S
C3034 C3032 1.384 . S
C3034 C3035 1.372 . S
C3035 C3034 1.372 . S
C3035 C3036 1.400 . S
C3035 C3040 1.490 . S
C3036 H3026 0.930 . S
C3036 C3035 1.400 . S
C3036 C3039 1.386 . S
H3037 C3053 0.930 . S
H3038 C3054 0.931 . S
C3039 H3027 0.929 . S
C3039 C3033 1.390 . S
C3039 C3036 1.386 . S
C3040 C3035 1.490 . S
C3040 C3042 1.395 . S
C3040 C3043 1.403 . S
H3041 C3047 0.930 . S
C3042 H3028 0.930 . S
C3042 C3040 1.395 . S
C3042 C3045 1.403 . S
C3043 C3040 1.403 . S
C3043 C3044 1.524 . S
C3043 C3047 1.400 . S
C3044 H3029 0.960 . S
C3044 H3030 0.960 . S
C3044 H3031 0.960 . S
C3044 C3043 1.524 . S
C3045 C3042 1.403 . S
C3045 C3046 1.392 . S
C3045 C3049 1.495 . S
C3046 C3045 1.392 . S
C3046 C3047 1.385 . S
C3046 C3048 1.478 . S
C3047 H3041 0.930 . S
C3047 C3043 1.400 . S
C3047 C3046 1.385 . S
C3048 C3046 1.478 . S
C3048 C3050 1.381 . S
C3048 C3054 1.383 . S
C3049 C3045 1.495 . S
C3049 H3055 0.959 . S
C3049 H3056 0.961 . S
C3049 H3057 0.960 . S
C3050 C3048 1.381 . S
C3050 C3051 1.394 . S
C3050 H3058 0.930 . S
C3051 C3050 1.394 . S
C3051 C3052 1.383 . S
C3051 H3059 0.929 . S
C3052 C3051 1.383 . S
C3052 C3053 1.377 . S
C3053 H3037 0.930 . S
C3053 C3052 1.377 . S
C3053 C3054 1.379 . S
C3054 H3038 0.931 . S
C3054 C3048 1.383 . S
C3054 C3053 1.379 . S
H3055 C3049 0.959 . S
H3056 C3049 0.961 . S
H3057 C3049 0.960 . S
H3058 C3050 0.930 . S
H3059 C3051 0.929 . S
H3060 C3068 0.929 . S
H3061 C3070 0.930 . S
H3062 C3072 0.930 . S
H3063 C3075 0.929 . S
H3064 C3078 0.930 . S
H3065 C3080 0.960 . S
H3066 C3080 0.960 . S
H3067 C3080 0.960 . S
C3068 H3060 0.929 . S
C3068 C3069 1.377 . S
C3068 C3070 1.384 1_655 S
C3069 C3068 1.377 . S
C3069 C3075 1.390 . S
C3070 H3061 0.930 . S
C3070 C3068 1.384 1_455 S
C3070 C3071 1.372 . S
C3071 C3070 1.372 . S
C3071 C3072 1.400 . S
C3071 C3076 1.490 . S
C3072 H3062 0.930 . S
C3072 C3071 1.400 . S
C3072 C3075 1.386 1_455 S
H3073 C3089 0.930 . S
H3074 C3090 0.931 . S
C3075 H3063 0.929 . S
C3075 C3069 1.390 . S
C3075 C3072 1.386 1_655 S
C3076 C3071 1.490 . S
C3076 C3078 1.395 . S
C3076 C3079 1.403 . S
H3077 C3083 0.930 . S
C3078 H3064 0.930 . S
C3078 C3076 1.395 . S
C3078 C3081 1.403 . S
C3079 C3076 1.403 . S
C3079 C3080 1.524 . S
C3079 C3083 1.400 . S
C3080 H3065 0.960 . S
C3080 H3066 0.960 . S
C3080 H3067 0.960 . S
C3080 C3079 1.524 . S
C3081 C3078 1.403 . S
C3081 C3082 1.392 . S
C3081 C3085 1.495 . S
C3082 C3081 1.392 . S
C3082 C3083 1.385 . S
C3082 C3084 1.478 . S
C3083 H3077 0.930 . S
C3083 C3079 1.400 . S
C3083 C3082 1.385 . S
C3084 C3082 1.478 . S
C3084 C3086 1.381 . S
C3084 C3090 1.383 . S
C3085 C3081 1.495 . S
C3085 H3091 0.959 . S
C3085 H3092 0.961 . S
C3085 H3093 0.960 . S
C3086 C3084 1.381 . S
C3086 C3087 1.394 . S
C3086 H3094 0.930 . S
C3087 C3086 1.394 . S
C3087 C3088 1.383 . S
C3087 H3095 0.929 . S
C3088 C3087 1.383 . S
C3088 C3089 1.377 . S
C3089 H3073 0.930 . S
C3089 C3088 1.377 . S
C3089 C3090 1.379 . S
C3090 H3074 0.931 . S
C3090 C3084 1.383 . S
C3090 C3089 1.379 . S
H3091 C3085 0.959 . S
H3092 C3085 0.961 . S
H3093 C3085 0.960 . S
H3094 C3086 0.930 . S
H3095 C3087 0.929 . S
H3096 C3104 0.929 . S
H3097 C3106 0.930 . S
H3098 C3108 0.930 . S
H3099 C3111 0.929 . S
H3100 C3114 0.930 . S
H3101 C3116 0.960 . S
H3102 C3116 0.960 . S
H3103 C3116 0.960 . S
C3104 H3096 0.929 . S
C3104 C3105 1.362 1_556 S
C3104 C3106 1.384 . S
C3105 C3104 1.362 1_554 S
C3105 C3111 1.405 . S
C3106 H3097 0.930 . S
C3106 C3104 1.384 . S
C3106 C3107 1.369 1_556 S
C3107 C3106 1.369 1_554 S
C3107 C3108 1.403 . S
C3107 C3112 1.490 . S
C3108 H3098 0.930 . S
C3108 C3107 1.403 . S
C3108 C3111 1.386 . S
H3109 C3125 0.930 . S
H3110 C3126 0.931 . S
C3111 H3099 0.929 . S
C3111 C3105 1.405 . S
C3111 C3108 1.386 . S
C3112 C3107 1.490 . S
C3112 C3114 1.409 . S
C3112 C3115 1.389 1_554 S
H3113 C3119 0.930 . S
C3114 H3100 0.930 . S
C3114 C3112 1.409 . S
C3114 C3117 1.403 . S
C3115 C3112 1.389 1_556 S
C3115 C3116 1.524 . S
C3115 C3119 1.400 . S
C3116 H3101 0.960 . S
C3116 H3102 0.960 . S
C3116 H3103 0.960 . S
C3116 C3115 1.524 . S
C3117 C3114 1.403 . S
C3117 C3118 1.392 . S
C3117 C3121 1.495 . S
C3118 C3117 1.392 . S
C3118 C3119 1.385 1_554 S
C3118 C3120 1.478 . S
C3119 H3113 0.930 . S
C3119 C3115 1.400 . S
C3119 C3118 1.385 1_556 S
C3120 C3118 1.478 . S
C3120 C3122 1.381 1_554 S
C3120 C3126 1.383 . S
C3121 C3117 1.495 . S
C3121 H3127 0.959 . S
C3121 H3128 0.961 . S
C3121 H3129 0.960 . S
C3122 C3120 1.381 1_556 S
C3122 C3123 1.394 . S
C3122 H3130 0.930 . S
C3123 C3122 1.394 . S
C3123 C3124 1.383 1_556 S
C3123 H3131 0.929 . S
C3124 C3123 1.383 1_554 S
C3124 C3125 1.377 . S
C3125 H3109 0.930 . S
C3125 C3124 1.377 . S
C3125 C3126 1.379 . S
C3126 H3110 0.931 . S
C3126 C3120 1.383 . S
C3126 C3125 1.379 . S
H3127 C3121 0.959 . S
H3128 C3121 0.961 . S
H3129 C3121 0.960 . S
H3130 C3122 0.930 . S
H3131 C3123 0.929 . S
H3132 C3140 0.929 . S
H3133 C3142 0.930 . S
H3134 C3144 0.930 . S
H3135 C3147 0.929 . S
H3136 C3150 0.930 . S
H3137 C3152 0.960 . S
H3138 C3152 0.960 . S
H3139 C3152 0.960 . S
C3140 H3132 0.929 . S
C3140 C3141 1.377 . S
C3140 C3142 1.384 . S
C3141 C3140 1.377 . S
C3141 C3147 1.390 1_554 S
C3142 H3133 0.930 . S
C3142 C3140 1.384 . S
C3142 C3143 1.372 . S
C3143 C3142 1.372 . S
C3143 C3144 1.400 1_554 S
C3143 C3148 1.490 . S
C3144 H3134 0.930 . S
C3144 C3143 1.400 1_556 S
C3144 C3147 1.386 . S
H3145 C3161 0.930 . S
H3146 C3162 0.931 . S
C3147 H3135 0.929 . S
C3147 C3141 1.390 1_556 S
C3147 C3144 1.386 . S
C3148 C3143 1.490 . S
C3148 C3150 1.395 . S
C3148 C3151 1.403 1_554 S
H3149 C3155 0.930 . S
C3150 H3136 0.930 . S
C3150 C3148 1.395 . S
C3150 C3153 1.403 . S
C3151 C3148 1.403 1_556 S
C3151 C3152 1.524 . S
C3151 C3155 1.400 . S
C3152 H3137 0.960 . S
C3152 H3138 0.960 . S
C3152 H3139 0.960 . S
C3152 C3151 1.524 . S
C3153 C3150 1.403 . S
C3153 C3154 1.392 . S
C3153 C3157 1.495 . S
C3154 C3153 1.392 . S
C3154 C3155 1.385 1_554 S
C3154 C3156 1.478 . S
C3155 H3149 0.930 . S
C3155 C3151 1.400 . S
C3155 C3154 1.385 1_556 S
C3156 C3154 1.478 . S
C3156 C3158 1.381 . S
C3156 C3162 1.383 1_554 S
C3157 C3153 1.495 . S
C3157 H3163 0.959 . S
C3157 H3164 0.961 . S
C3157 H3165 0.960 . S
C3158 C3156 1.381 . S
C3158 C3159 1.394 1_455 S
C3158 H3166 0.930 . S
C3159 C3158 1.394 1_655 S
C3159 C3160 1.383 . S
C3159 H3167 0.929 . S
C3160 C3159 1.383 . S
C3160 C3161 1.377 1_554 S
C3161 H3145 0.930 . S
C3161 C3160 1.377 1_556 S
C3161 C3162 1.379 1_655 S
C3162 H3146 0.931 . S
C3162 C3156 1.383 1_556 S
C3162 C3161 1.379 1_455 S
H3163 C3157 0.959 . S
H3164 C3157 0.961 . S
H3165 C3157 0.960 . S
H3166 C3158 0.930 . S
H3167 C3159 0.929 . S
H3168 C3176 0.929 . S
H3169 C3178 0.930 . S
H3170 C3180 0.930 . S
H3171 C3183 0.929 . S
H3172 C3186 0.930 . S
H3173 C3188 0.960 . S
H3174 C3188 0.960 . S
H3175 C3188 0.960 . S
C3176 H3168 0.929 . S
C3176 C3177 1.377 . S
C3176 C3178 1.384 . S
C3177 C3176 1.377 . S
C3177 C3183 1.390 . S
C3178 H3169 0.930 . S
C3178 C3176 1.384 . S
C3178 C3179 1.372 . S
C3179 C3178 1.372 . S
C3179 C3180 1.400 . S
C3179 C3184 1.490 . S
C3180 H3170 0.930 . S
C3180 C3179 1.400 . S
C3180 C3183 1.386 . S
H3181 C3197 0.930 . S
H3182 C3198 0.931 . S
C3183 H3171 0.929 . S
C3183 C3177 1.390 . S
C3183 C3180 1.386 . S
C3184 C3179 1.490 . S
C3184 C3186 1.395 . S
C3184 C3187 1.403 . S
H3185 C3191 0.930 . S
C3186 H3172 0.930 . S
C3186 C3184 1.395 . S
C3186 C3189 1.403 . S
C3187 C3184 1.403 . S
C3187 C3188 1.524 . S
C3187 C3191 1.400 . S
C3188 H3173 0.960 . S
C3188 H3174 0.960 . S
C3188 H3175 0.960 . S
C3188 C3187 1.524 . S
C3189 C3186 1.403 . S
C3189 C3190 1.392 . S
C3189 C3193 1.495 . S
C3190 C3189 1.392 . S
C3190 C3191 1.385 . S
C3190 C3192 1.478 . S
C3191 H3185 0.930 . S
C3191 C3187 1.400 . S
C3191 C3190 1.385 . S
C3192 C3190 1.478 . S
C3192 C3194 1.381 . S
C3192 C3198 1.383 . S
C3193 C3189 1.495 . S
C3193 H3199 0.959 . S
C3193 H3200 0.961 . S
C3193 H3201 0.960 . S
C3194 C3192 1.381 . S
C3194 C3195 1.394 . S
C3194 H3202 0.930 . S
C3195 C3194 1.394 . S
C3195 C3196 1.383 . S
C3195 H3203 0.929 . S
C3196 C3195 1.383 . S
C3196 C3197 1.377 . S
C3197 H3181 0.930 . S
C3197 C3196 1.377 . S
C3197 C3198 1.379 . S
C3198 H3182 0.931 . S
C3198 C3192 1.383 . S
C3198 C3197 1.379 . S
H3199 C3193 0.959 . S
H3200 C3193 0.961 . S
H3201 C3193 0.960 . S
H3202 C3194 0.930 . S
H3203 C3195 0.929 . S
H3204 C3212 0.929 . S
H3205 C3214 0.930 . S
H3206 C3216 0.930 . S
H3207 C3219 0.929 . S
H3208 C3222 0.930 . S
H3209 C3224 0.960 . S
H3210 C3224 0.960 . S
H3211 C3224 0.960 . S
C3212 H3204 0.929 . S
C3212 C3213 1.377 . S
C3212 C3214 1.384 . S
C3213 C3212 1.377 . S
C3213 C3219 1.390 . S
C3214 H3205 0.930 . S
C3214 C3212 1.384 . S
C3214 C3215 1.372 . S
C3215 C3214 1.372 . S
C3215 C3216 1.400 . S
C3215 C3220 1.490 . S
C3216 H3206 0.930 . S
C3216 C3215 1.400 . S
C3216 C3219 1.386 . S
H3217 C3233 0.930 1_455 S
H3218 C3234 0.931 . S
C3219 H3207 0.929 . S
C3219 C3213 1.390 . S
C3219 C3216 1.386 . S
C3220 C3215 1.490 . S
C3220 C3222 1.395 . S
C3220 C3223 1.403 . S
H3221 C3227 0.930 . S
C3222 H3208 0.930 . S
C3222 C3220 1.395 . S
C3222 C3225 1.403 . S
C3223 C3220 1.403 . S
C3223 C3224 1.524 . S
C3223 C3227 1.400 . S
C3224 H3209 0.960 . S
C3224 H3210 0.960 . S
C3224 H3211 0.960 . S
C3224 C3223 1.524 . S
C3225 C3222 1.403 . S
C3225 C3226 1.392 . S
C3225 C3229 1.495 . S
C3226 C3225 1.392 . S
C3226 C3227 1.385 . S
C3226 C3228 1.478 . S
C3227 H3221 0.930 . S
C3227 C3223 1.400 . S
C3227 C3226 1.385 . S
C3228 C3226 1.478 . S
C3228 C3230 1.381 . S
C3228 C3234 1.383 . S
C3229 C3225 1.495 . S
C3229 H3235 0.959 . S
C3229 H3236 0.961 . S
C3229 H3237 0.960 . S
C3230 C3228 1.381 . S
C3230 C3231 1.394 1_655 S
C3230 H3238 0.930 . S
C3231 C3230 1.394 1_455 S
C3231 C3232 1.383 . S
C3231 H3239 0.929 . S
C3232 C3231 1.383 . S
C3232 C3233 1.377 1_455 S
C3233 H3217 0.930 1_655 S
C3233 C3232 1.377 1_655 S
C3233 C3234 1.379 . S
C3234 H3218 0.931 . S
C3234 C3228 1.383 . S
C3234 C3233 1.379 . S
H3235 C3229 0.959 . S
H3236 C3229 0.961 . S
H3237 C3229 0.960 . S
H3238 C3230 0.930 . S
H3239 C3231 0.929 . S
H3240 C3248 0.929 . S
H3241 C3250 0.930 . S
H3242 C3252 0.930 . S
H3243 C3255 0.929 . S
H3244 C3258 0.930 . S
H3245 C3260 0.960 . S
H3246 C3260 0.960 . S
H3247 C3260 0.960 . S
C3248 H3240 0.929 . S
C3248 C3249 1.377 . S
C3248 C3250 1.384 . S
C3249 C3248 1.377 . S
C3249 C3255 1.390 . S
C3250 H3241 0.930 . S
C3250 C3248 1.384 . S
C3250 C3251 1.372 . S
C3251 C3250 1.372 . S
C3251 C3252 1.400 . S
C3251 C3256 1.490 . S
C3252 H3242 0.930 . S
C3252 C3251 1.400 . S
C3252 C3255 1.386 . S
H3253 C3269 0.930 . S
H3254 C3270 0.931 . S
C3255 H3243 0.929 . S
C3255 C3249 1.390 . S
C3255 C3252 1.386 . S
C3256 C3251 1.490 . S
C3256 C3258 1.395 . S
C3256 C3259 1.403 . S
H3257 C3263 0.930 . S
C3258 H3244 0.930 . S
C3258 C3256 1.395 . S
C3258 C3261 1.403 . S
C3259 C3256 1.403 . S
C3259 C3260 1.524 . S
C3259 C3263 1.400 . S
C3260 H3245 0.960 . S
C3260 H3246 0.960 . S
C3260 H3247 0.960 . S
C3260 C3259 1.524 . S
C3261 C3258 1.403 . S
C3261 C3262 1.392 . S
C3261 C3265 1.495 . S
C3262 C3261 1.392 . S
C3262 C3263 1.385 . S
C3262 C3264 1.478 . S
C3263 H3257 0.930 . S
C3263 C3259 1.400 . S
C3263 C3262 1.385 . S
C3264 C3262 1.478 . S
C3264 C3266 1.381 . S
C3264 C3270 1.383 . S
C3265 C3261 1.495 . S
C3265 H3271 0.959 . S
C3265 H3272 0.961 . S
C3265 H3273 0.960 . S
C3266 C3264 1.381 . S
C3266 C3267 1.394 . S
C3266 H3274 0.930 . S
C3267 C3266 1.394 . S
C3267 C3268 1.383 . S
C3267 H3275 0.929 . S
C3268 C3267 1.383 . S
C3268 C3269 1.377 . S
C3269 H3253 0.930 . S
C3269 C3268 1.377 . S
C3269 C3270 1.379 . S
C3270 H3254 0.931 . S
C3270 C3264 1.383 . S
C3270 C3269 1.379 . S
H3271 C3265 0.959 . S
H3272 C3265 0.961 . S
H3273 C3265 0.960 . S
H3274 C3266 0.930 . S
H3275 C3267 0.929 . S
H3276 C3284 0.929 . S
H3277 C3286 0.930 . S
H3278 C3288 0.930 . S
H3279 C3291 0.936 . S
H3280 C3294 0.930 . S
H3281 C3296 0.960 . S
H3282 C3296 0.960 . S
H3283 C3296 0.960 . S
C3284 H3276 0.929 . S
C3284 C3285 1.377 . S
C3284 C3286 1.384 1_455 S
C3285 C3284 1.377 . S
C3285 C3291 1.401 . S
C3286 H3277 0.930 . S
C3286 C3284 1.384 1_655 S
C3286 C3287 1.372 . S
C3287 C3286 1.372 . S
C3287 C3288 1.400 . S
C3287 C3292 1.490 . S
C3288 H3278 0.930 . S
C3288 C3287 1.400 . S
C3288 C3291 1.368 1_655 S
H3289 C3305 0.930 . S
H3290 C3306 0.931 . S
C3291 H3279 0.936 . S
C3291 C3285 1.401 . S
C3291 C3288 1.368 1_455 S
C3292 C3287 1.490 . S
C3292 C3294 1.395 . S
C3292 C3295 1.403 . S
H3293 C3299 0.930 . S
C3294 H3280 0.930 . S
C3294 C3292 1.395 . S
C3294 C3297 1.403 . S
C3295 C3292 1.403 . S
C3295 C3296 1.524 . S
C3295 C3299 1.400 . S
C3296 H3281 0.960 . S
C3296 H3282 0.960 . S
C3296 H3283 0.960 . S
C3296 C3295 1.524 . S
C3297 C3294 1.403 . S
C3297 C3298 1.392 . S
C3297 C3301 1.495 . S
C3298 C3297 1.392 . S
C3298 C3299 1.385 . S
C3298 C3300 1.478 . S
C3299 H3293 0.930 . S
C3299 C3295 1.400 . S
C3299 C3298 1.385 . S
C3300 C3298 1.478 . S
C3300 C3302 1.381 . S
C3300 C3306 1.383 . S
C3301 C3297 1.495 . S
C3301 H3307 0.959 . S
C3301 H3308 0.961 . S
C3301 H3309 0.960 . S
C3302 C3300 1.381 . S
C3302 C3303 1.394 . S
C3302 H3310 0.930 . S
C3303 C3302 1.394 . S
C3303 C3304 1.383 . S
C3303 H3311 0.929 . S
C3304 C3303 1.383 . S
C3304 C3305 1.377 . S
C3305 H3289 0.930 . S
C3305 C3304 1.377 . S
C3305 C3306 1.379 . S
C3306 H3290 0.931 . S
C3306 C3300 1.383 . S
C3306 C3305 1.379 . S
H3307 C3301 0.959 . S
H3308 C3301 0.961 . S
H3309 C3301 0.960 . S
H3310 C3302 0.930 . S
H3311 C3303 0.929 . S
H3312 C3320 0.929 . S
H3313 C3322 0.930 . S
H3314 C3324 0.930 . S
H3315 C3327 0.929 . S
H3316 C3330 0.930 . S
H3317 C3332 0.960 . S
H3318 C3332 0.960 . S
H3319 C3332 0.960 . S
C3320 H3312 0.929 . S
C3320 C3321 1.377 . S
C3320 C3322 1.384 . S
C3321 C3320 1.377 . S
C3321 C3327 1.390 . S
C3322 H3313 0.930 . S
C3322 C3320 1.384 . S
C3322 C3323 1.372 . S
C3323 C3322 1.372 . S
C3323 C3324 1.400 . S
C3323 C3328 1.490 . S
C3324 H3314 0.930 . S
C3324 C3323 1.400 . S
C3324 C3327 1.386 . S
H3325 C3341 0.930 . S
H3326 C3342 0.931 . S
C3327 H3315 0.929 . S
C3327 C3321 1.390 . S
C3327 C3324 1.386 . S
C3328 C3323 1.490 . S
C3328 C3330 1.395 . S
C3328 C3331 1.403 . S
H3329 C3335 0.930 . S
C3330 H3316 0.930 . S
C3330 C3328 1.395 . S
C3330 C3333 1.403 . S
C3331 C3328 1.403 . S
C3331 C3332 1.524 . S
C3331 C3335 1.400 . S
C3332 H3317 0.960 . S
C3332 H3318 0.960 . S
C3332 H3319 0.960 . S
C3332 C3331 1.524 . S
C3333 C3330 1.403 . S
C3333 C3334 1.392 . S
C3333 C3337 1.495 . S
C3334 C3333 1.392 . S
C3334 C3335 1.385 . S
C3334 C3336 1.478 . S
C3335 H3329 0.930 . S
C3335 C3331 1.400 . S
C3335 C3334 1.385 . S
C3336 C3334 1.478 . S
C3336 C3338 1.381 . S
C3336 C3342 1.383 . S
C3337 C3333 1.495 . S
C3337 H3343 0.959 . S
C3337 H3344 0.961 . S
C3337 H3345 0.960 . S
C3338 C3336 1.381 . S
C3338 C3339 1.394 . S
C3338 H3346 0.930 . S
C3339 C3338 1.394 . S
C3339 C3340 1.383 . S
C3339 H3347 0.929 . S
C3340 C3339 1.383 . S
C3340 C3341 1.377 . S
C3341 H3325 0.930 . S
C3341 C3340 1.377 . S
C3341 C3342 1.379 . S
C3342 H3326 0.931 . S
C3342 C3336 1.383 . S
C3342 C3341 1.379 . S
H3343 C3337 0.959 . S
H3344 C3337 0.961 . S
H3345 C3337 0.960 . S
H3346 C3338 0.930 . S
H3347 C3339 0.929 . S
H3348 C3356 0.923 1_655 S
H3349 C3358 0.930 . S
H3350 C3360 0.930 . S
H3351 C3363 0.929 . S
H3352 C3366 0.930 . S
H3353 C3368 0.960 . S
H3354 C3368 0.960 . S
H3355 C3368 0.960 . S
C3356 H3348 0.923 1_455 S
C3356 C3357 1.364 1_455 S
C3356 C3358 1.403 . S
C3357 C3356 1.364 1_655 S
C3357 C3363 1.390 . S
C3358 H3349 0.930 . S
C3358 C3356 1.403 . S
C3358 C3359 1.372 . S
C3359 C3358 1.372 . S
C3359 C3360 1.400 . S
C3359 C3364 1.490 . S
C3360 H3350 0.930 . S
C3360 C3359 1.400 . S
C3360 C3363 1.386 1_455 S
H3361 C3377 0.930 . S
H3362 C3378 0.931 . S
C3363 H3351 0.929 . S
C3363 C3357 1.390 . S
C3363 C3360 1.386 1_655 S
C3364 C3359 1.490 . S
C3364 C3366 1.395 . S
C3364 C3367 1.403 . S
H3365 C3371 0.930 . S
C3366 H3352 0.930 . S
C3366 C3364 1.395 . S
C3366 C3369 1.403 . S
C3367 C3364 1.403 . S
C3367 C3368 1.524 . S
C3367 C3371 1.400 . S
C3368 H3353 0.960 . S
C3368 H3354 0.960 . S
C3368 H3355 0.960 . S
C3368 C3367 1.524 . S
C3369 C3366 1.403 . S
C3369 C3370 1.392 . S
C3369 C3373 1.495 . S
C3370 C3369 1.392 . S
C3370 C3371 1.385 . S
C3370 C3372 1.478 . S
C3371 H3365 0.930 . S
C3371 C3367 1.400 . S
C3371 C3370 1.385 . S
C3372 C3370 1.478 . S
C3372 C3374 1.381 . S
C3372 C3378 1.383 . S
C3373 C3369 1.495 . S
C3373 H3379 0.959 . S
C3373 H3380 0.961 . S
C3373 H3381 0.960 . S
C3374 C3372 1.381 . S
C3374 C3375 1.394 . S
C3374 H3382 0.930 . S
C3375 C3374 1.394 . S
C3375 C3376 1.383 . S
C3375 H3383 0.929 . S
C3376 C3375 1.383 . S
C3376 C3377 1.377 . S
C3377 H3361 0.930 . S
C3377 C3376 1.377 . S
C3377 C3378 1.379 . S
C3378 H3362 0.931 . S
C3378 C3372 1.383 . S
C3378 C3377 1.379 . S
H3379 C3373 0.959 . S
H3380 C3373 0.961 . S
H3381 C3373 0.960 . S
H3382 C3374 0.930 . S
H3383 C3375 0.929 . S
H3384 C3392 0.929 . S
H3385 C3394 0.930 . S
H3386 C3396 0.930 . S
H3387 C3399 0.929 . S
H3388 C3402 0.930 . S
H3389 C3404 0.960 . S
H3390 C3404 0.960 . S
H3391 C3404 0.960 . S
C3392 H3384 0.929 . S
C3392 C3393 1.377 . S
C3392 C3394 1.384 . S
C3393 C3392 1.377 . S
C3393 C3399 1.390 . S
C3394 H3385 0.930 . S
C3394 C3392 1.384 . S
C3394 C3395 1.372 . S
C3395 C3394 1.372 . S
C3395 C3396 1.400 . S
C3395 C3400 1.490 . S
C3396 H3386 0.930 . S
C3396 C3395 1.400 . S
C3396 C3399 1.386 . S
H3397 C3413 0.930 . S
H3398 C3414 0.931 . S
C3399 H3387 0.929 . S
C3399 C3393 1.390 . S
C3399 C3396 1.386 . S
C3400 C3395 1.490 . S
C3400 C3402 1.395 . S
C3400 C3403 1.403 . S
H3401 C3407 0.930 . S
C3402 H3388 0.930 . S
C3402 C3400 1.395 . S
C3402 C3405 1.403 . S
C3403 C3400 1.403 . S
C3403 C3404 1.524 . S
C3403 C3407 1.400 . S
C3404 H3389 0.960 . S
C3404 H3390 0.960 . S
C3404 H3391 0.960 . S
C3404 C3403 1.524 . S
C3405 C3402 1.403 . S
C3405 C3406 1.392 . S
C3405 C3409 1.495 . S
C3406 C3405 1.392 . S
C3406 C3407 1.385 . S
C3406 C3408 1.478 . S
C3407 H3401 0.930 . S
C3407 C3403 1.400 . S
C3407 C3406 1.385 . S
C3408 C3406 1.478 . S
C3408 C3410 1.381 . S
C3408 C3414 1.383 . S
C3409 C3405 1.495 . S
C3409 H3415 0.959 . S
C3409 H3416 0.961 . S
C3409 H3417 0.960 . S
C3410 C3408 1.381 . S
C3410 C3411 1.394 . S
C3410 H3418 0.930 . S
C3411 C3410 1.394 . S
C3411 C3412 1.383 . S
C3411 H3419 0.929 . S
C3412 C3411 1.383 . S
C3412 C3413 1.377 . S
C3413 H3397 0.930 . S
C3413 C3412 1.377 . S
C3413 C3414 1.379 . S
C3414 H3398 0.931 . S
C3414 C3408 1.383 . S
C3414 C3413 1.379 . S
H3415 C3409 0.959 . S
H3416 C3409 0.961 . S
H3417 C3409 0.960 . S
H3418 C3410 0.930 . S
H3419 C3411 0.929 . S
H3420 C3428 0.929 . S
H3421 C3430 0.930 . S
H3422 C3432 0.930 . S
H3423 C3435 0.929 . S
H3424 C3438 0.930 . S
H3425 C3440 0.960 . S
H3426 C3440 0.960 . S
H3427 C3440 0.960 . S
C3428 H3420 0.929 . S
C3428 C3429 1.377 . S
C3428 C3430 1.384 1_655 S
C3429 C3428 1.377 . S
C3429 C3435 1.390 . S
C3430 H3421 0.930 . S
C3430 C3428 1.384 1_455 S
C3430 C3431 1.372 . S
C3431 C3430 1.372 . S
C3431 C3432 1.400 . S
C3431 C3436 1.490 . S
C3432 H3422 0.930 . S
C3432 C3431 1.400 . S
C3432 C3435 1.386 1_455 S
H3433 C3449 0.930 . S
H3434 C3450 0.931 . S
C3435 H3423 0.929 . S
C3435 C3429 1.390 . S
C3435 C3432 1.386 1_655 S
C3436 C3431 1.490 . S
C3436 C3438 1.395 . S
C3436 C3439 1.403 . S
H3437 C3443 0.930 . S
C3438 H3424 0.930 . S
C3438 C3436 1.395 . S
C3438 C3441 1.403 . S
C3439 C3436 1.403 . S
C3439 C3440 1.524 . S
C3439 C3443 1.400 . S
C3440 H3425 0.960 . S
C3440 H3426 0.960 . S
C3440 H3427 0.960 . S
C3440 C3439 1.524 . S
C3441 C3438 1.403 . S
C3441 C3442 1.392 . S
C3441 C3445 1.495 . S
C3442 C3441 1.392 . S
C3442 C3443 1.385 . S
C3442 C3444 1.478 . S
C3443 H3437 0.930 . S
C3443 C3439 1.400 . S
C3443 C3442 1.385 . S
C3444 C3442 1.478 . S
C3444 C3446 1.381 . S
C3444 C3450 1.383 . S
C3445 C3441 1.495 . S
C3445 H3451 0.959 . S
C3445 H3452 0.961 . S
C3445 H3453 0.960 . S
C3446 C3444 1.381 . S
C3446 C3447 1.394 . S
C3446 H3454 0.930 . S
C3447 C3446 1.394 . S
C3447 C3448 1.383 . S
C3447 H3455 0.929 . S
C3448 C3447 1.383 . S
C3448 C3449 1.377 . S
C3449 H3433 0.930 . S
C3449 C3448 1.377 . S
C3449 C3450 1.379 . S
C3450 H3434 0.931 . S
C3450 C3444 1.383 . S
C3450 C3449 1.379 . S
H3451 C3445 0.959 . S
H3452 C3445 0.961 . S
H3453 C3445 0.960 . S
H3454 C3446 0.930 . S
H3455 C3447 0.929 . S
C1161 C4 1.054 . S
C1180 C112 1.089 . S
C1197 C76 1.043 . S
C1216 C40 1.050 . S
C1233 C148 1.038 . S
C1252 C256 1.058 . S
C1269 C220 1.037 . S
C1288 C184 1.069 . S
C1305 C292 1.041 . S
C1324 C400 1.063 . S
C1341 C364 1.027 . S
C1360 C328 1.016 . S
C1377 C436 1.031 . S
C1396 C544 1.066 . S
C1413 C472 1.041 . S
C1432 C508 0.987 . S
C1449 C688 1.028 . S
C1468 C580 0.998 . S
C1485 C616 1.039 . S
C1504 C652 1.054 . S
C1521 C724 1.025 . S
C1540 C832 1.043 . S
C1557 C796 1.025 . S
C1576 C760 1.076 . S
C1593 C868 1.046 . S
C1612 C976 1.044 . S
C1629 C940 1.042 . S
C1648 C904 1.050 . S
C1665 C1012 1.042 . S
C1684 C1120 1.089 . S
C1701 C1048 1.040 . S
C1720 C1084 1.093 . S
C1737 C446 1.475 . S
C1756 C14 1.480 . S
C1773 C50 1.468 . S
C1792 C770 1.483 . S
C1809 C86 1.454 1_556 S
C1828 C230 1.440 1_554 S
C1845 C1130 1.463 1_554 S
C1864 C122 1.440 1_556 S
C1881 C158 1.475 . S
C1900 C302 1.486 . S
C1917 C626 1.473 . S
C1936 C194 1.454 . S
C1953 C986 1.461 1_556 S
C1972 C266 1.478 1_554 S
C1989 C1058 1.475 . S
C2008 C338 1.476 . S
C2025 C518 1.466 . S
C2044 C374 1.471 . S
C2061 C842 1.464 . S
C2080 C410 1.445 . S
C2097 C482 1.472 . S
C2116 C914 1.493 . S
C2133 C698 1.456 . S
C2152 C554 1.460 . S
C2169 C1022 1.465 . S
C2188 C590 1.466 . S
C2205 C806 1.456 . S
C2224 C662 1.461 . S
C2241 C878 1.473 . S
C2260 C734 1.457 . S
C2277 C950 1.454 1_556 S
C2296 C1094 1.437 1_554 S
C2313 C363 1.297 . S
C2332 C3 1.296 . S
C2349 C39 1.301 . S
C2368 C399 1.314 . S
C2385 C291 1.289 . S
C2404 C75 1.300 . S
C2421 C327 1.280 . S
C2440 C111 1.251 . S
C2457 C147 1.295 . S
C2476 C507 1.282 . S
C2493 C183 1.294 . S
C2512 C543 1.285 . S
C2529 C435 1.283 . S
C2548 C219 1.252 . S
C2565 C255 1.285 . S
C2584 C471 1.297 . S
C2601 C939 1.288 . S
C2620 C579 1.297 . S
C2637 C975 1.289 . S
C2656 C615 1.299 . S
C2673 C651 1.304 . S
C2692 C867 1.318 . S
C2709 C687 1.298 . S
C2728 C903 1.287 . S
C2745 C723 1.288 . S
C2764 C1083 1.285 . S
C2781 C759 1.279 . S
C2800 C1119 1.290 . S
C2817 C1011 1.296 . S
C2836 C795 1.320 . S
C2853 C1047 1.303 . S
C2872 C831 1.287 . S
C2889 C2 1.313 . S
C2908 C902 1.317 . S
C2925 C866 1.317 . S
C2944 C38 1.296 . S
C2961 C74 1.309 . S
C2980 C974 1.287 . S
C2997 C110 1.305 . S
C3016 C938 1.305 . S
C3033 C146 1.316 . S
C3052 C1046 1.322 . S
C3069 C182 1.314 . S
C3088 C1010 1.297 . S
C3105 C1118 1.309 . S
C3124 C218 1.295 . S
C3141 C1082 1.313 . S
C3160 C254 1.326 . S
C3177 C614 1.316 . S
C3196 C290 1.331 . S
C3213 C578 1.320 . S
C3232 C326 1.314 . S
C3249 C362 1.313 . S
C3268 C686 1.315 . S
C3285 C398 1.310 . S
C3304 C650 1.325 . S
C3321 C758 1.313 . S
C3340 C434 1.300 . S
C3357 C470 1.318 . S
C3376 C722 1.307 . S
C3393 C506 1.306 . S
C3412 C830 1.289 . S
C3429 C542 1.312 . S
C3448 C794 1.325 . S
