# Generated by pormake.
# Topology sol, (6)-cn, num edge types: 1
# Building blocks:
#     Node 0, Type 0, BuildingBlock: IZENUY_clean_sbu_0, # of connection points: 6
#     Node 1, Type 0, BuildingBlock: IZENUY_clean_sbu_0, # of connection points: 6
#     Node 2, Type 0, BuildingBlock: IZENUY_clean_sbu_0, # of connection points: 6
#     Node 3, Type 0, BuildingBlock: IZENUY_clean_sbu_0, # of connection points: 6
#     Node 4, Type 0, BuildingBlock: IZENUY_clean_sbu_0, # of connection points: 6
#     Node 5, Type 0, BuildingBlock: IZENUY_clean_sbu_0, # of connection points: 6
#     Node 6, Type 0, BuildingBlock: IZENUY_clean_sbu_0, # of connection points: 6
#     Node 7, Type 0, BuildingBlock: IZENUY_clean_sbu_0, # of connection points: 6
#     Edge 8, Type (0, 0), BuildingBlock: XIVTED_clean_linker_0, # of connection points: 2
#     Edge 9, Type (0, 0), BuildingBlock: XIVTED_clean_linker_0, # of connection points: 2
#     Edge 10, Type (0, 0), BuildingBlock: XIVTED_clean_linker_0, # of connection points: 2
#     Edge 11, Type (0, 0), BuildingBlock: XIVTED_clean_linker_0, # of connection points: 2
#     Edge 12, Type (0, 0), BuildingBlock: XIVTED_clean_linker_0, # of connection points: 2
#     Edge 13, Type (0, 0), BuildingBlock: XIVTED_clean_linker_0, # of connection points: 2
#     Edge 14, Type (0, 0), BuildingBlock: XIVTED_clean_linker_0, # of connection points: 2
#     Edge 15, Type (0, 0), BuildingBlock: XIVTED_clean_linker_0, # of connection points: 2
#     Edge 16, Type (0, 0), BuildingBlock: XIVTED_clean_linker_0, # of connection points: 2
#     Edge 17, Type (0, 0), BuildingBlock: XIVTED_clean_linker_0, # of connection points: 2
#     Edge 18, Type (0, 0), BuildingBlock: XIVTED_clean_linker_0, # of connection points: 2
#     Edge 19, Type (0, 0), BuildingBlock: XIVTED_clean_linker_0, # of connection points: 2
#     Edge 20, Type (0, 0), BuildingBlock: XIVTED_clean_linker_0, # of connection points: 2
#     Edge 21, Type (0, 0), BuildingBlock: XIVTED_clean_linker_0, # of connection points: 2
#     Edge 22, Type (0, 0), BuildingBlock: XIVTED_clean_linker_0, # of connection points: 2
#     Edge 23, Type (0, 0), BuildingBlock: XIVTED_clean_linker_0, # of connection points: 2
#     Edge 24, Type (0, 0), BuildingBlock: XIVTED_clean_linker_0, # of connection points: 2
#     Edge 25, Type (0, 0), BuildingBlock: XIVTED_clean_linker_0, # of connection points: 2
#     Edge 26, Type (0, 0), BuildingBlock: XIVTED_clean_linker_0, # of connection points: 2
#     Edge 27, Type (0, 0), BuildingBlock: XIVTED_clean_linker_0, # of connection points: 2
#     Edge 28, Type (0, 0), BuildingBlock: XIVTED_clean_linker_0, # of connection points: 2
#     Edge 29, Type (0, 0), BuildingBlock: XIVTED_clean_linker_0, # of connection points: 2
#     Edge 30, Type (0, 0), BuildingBlock: XIVTED_clean_linker_0, # of connection points: 2
#     Edge 31, Type (0, 0), BuildingBlock: XIVTED_clean_linker_0, # of connection points: 2
# Relax obj value: 0.163
# Max RMSD: 0.160
# Mean RMSD: 0.159
data_MOF--net-sol--node1-IZENUY_clean_sbu_0--edge1-XIVTED_clean_linker_0
_symmetry_space_group_name_H-M    P1
_symmetry_Int_Tables_number       1
_symmetry_cell_setting            triclinic
loop_
_symmetry_equiv_pos_as_xyz
'x, y, z'
_cell_length_a     35.423472
_cell_length_b     27.665801
_cell_length_c     28.562093
_cell_angle_alpha  89.950373
_cell_angle_beta   90.08616
_cell_angle_gamma 89.922081
loop_
_atom_site_label
_atom_site_type_symbol
_atom_site_fract_x
_atom_site_fract_y
_atom_site_fract_z
_atom_type_partial_charge
Fe0 Fe 0.16755 0.13852 0.13382 0.0
Fe1 Fe 0.22565 0.19557 0.07743 0.0
O2 O 0.17824 0.17814 0.08726 0.0
Fe3 Fe 0.14118 0.20074 0.05122 0.0
O4 O 0.10564 0.20147 0.09873 0.0
O5 O 0.13896 0.18404 0.16141 0.0
O6 O 0.20613 0.15841 0.17233 0.0
C7 C 0.22508 0.19714 0.17316 0.0
C8 C 0.11726 0.10785 0.06163 0.0
O9 O 0.23091 0.22045 0.13599 0.0
C10 C 0.20257 0.18764 0.98691 0.0
O11 O 0.19619 0.0914 0.10886 0.0
O12 O 0.24574 0.13738 0.09504 0.0
O13 O 0.12756 0.1401 0.03296 0.0
O14 O 0.12661 0.11074 0.10445 0.0
C15 C 0.18392 0.2812 0.06527 0.0
O16 O 0.22443 0.17238 0.01841 0.0
O17 O 0.17057 0.2054 0.99757 0.0
C18 C 0.23074 0.09614 0.09936 0.0
O19 O 0.21343 0.25656 0.05825 0.0
O20 O 0.15181 0.26218 0.0678 0.0
C21 C 0.11094 0.20423 0.14266 0.0
Fe22 Fe 0.37468 0.3292 0.63064 0.0
Fe23 Fe 0.31437 0.26965 0.58107 0.0
O24 O 0.36213 0.28733 0.58657 0.0
Fe25 Fe 0.3967 0.26157 0.54879 0.0
O26 O 0.42327 0.23705 0.59802 0.0
O27 O 0.42007 0.30132 0.64352 0.0
O28 O 0.35518 0.29125 0.67721 0.0
C29 C 0.32126 0.27765 0.6789 0.0
C30 C 0.42145 0.35936 0.55955 0.0
O31 O 0.30126 0.27877 0.64242 0.0
C32 C 0.33845 0.27271 0.48678 0.0
O33 O 0.33094 0.36414 0.62473 0.0
O34 O 0.30005 0.3304 0.56614 0.0
O35 O 0.42653 0.31592 0.54685 0.0
O36 O 0.39579 0.37023 0.58839 0.0
C37 C 0.35081 0.18345 0.5745 0.0
O38 O 0.31714 0.25672 0.51861 0.0
O39 O 0.37233 0.28361 0.49611 0.0
C40 C 0.30618 0.36607 0.59258 0.0
O41 O 0.32691 0.20855 0.59636 0.0
O42 O 0.37319 0.20243 0.54524 0.0
C43 C 0.43283 0.25979 0.63439 0.0
Fe44 Fe 0.67324 0.34604 0.90236 0.0
Fe45 Fe 0.72948 0.27737 0.94828 0.0
O46 O 0.68271 0.29887 0.9425 0.0
Fe47 Fe 0.64599 0.27144 0.97553 0.0
O48 O 0.62087 0.25396 0.92248 0.0
O49 O 0.62715 0.32307 0.88505 0.0
O50 O 0.69242 0.31133 0.85354 0.0
C51 C 0.72552 0.29475 0.8519 0.0
C52 C 0.62509 0.37171 0.97334 0.0
O53 O 0.74491 0.29207 0.88879 0.0
C54 C 0.70264 0.27311 0.04083 0.0
O55 O 0.71836 0.37685 0.91327 0.0
O56 O 0.74524 0.33498 0.97015 0.0
O57 O 0.61806 0.32742 0.98128 0.0
O58 O 0.65239 0.38396 0.94744 0.0
C59 C 0.69006 0.19339 0.94433 0.0
O60 O 0.72409 0.25801 1.00879 0.0
O61 O 0.6692 0.28624 0.03133 0.0
C62 C 0.74168 0.37344 0.94693 0.0
O63 O 0.71536 0.21932 0.92625 0.0
O64 O 0.66733 0.21063 0.97428 0.0
C65 C 0.61365 0.28096 0.88796 0.0
Fe66 Fe 0.86753 0.13355 0.40226 0.0
Fe67 Fe 0.80959 0.19833 0.45031 0.0
O68 O 0.85683 0.17862 0.44405 0.0
Fe69 Fe 0.89309 0.20568 0.47836 0.0
O70 O 0.91763 0.22672 0.42608 0.0
O71 O 0.91324 0.1586 0.38676 0.0
O72 O 0.84787 0.16957 0.35433 0.0
C73 C 0.81449 0.18547 0.35289 0.0
C74 C 0.91584 0.1065 0.47283 0.0
O75 O 0.79502 0.18716 0.38974 0.0
C76 C 0.83677 0.19882 0.54339 0.0
O77 O 0.82313 0.10101 0.41076 0.0
O78 O 0.79423 0.1389 0.4684 0.0
O79 O 0.92227 0.1507 0.48157 0.0
O80 O 0.88874 0.09436 0.44644 0.0
C81 C 0.84733 0.2839 0.45198 0.0
O82 O 0.8144 0.21358 0.512 0.0
O83 O 0.87045 0.18741 0.5333 0.0
C84 C 0.79862 0.10204 0.44306 0.0
O85 O 0.82266 0.25841 0.432 0.0
O86 O 0.8706 0.26547 0.48053 0.0
C87 C 0.92555 0.20116 0.39084 0.0
Fe88 Fe 0.80985 0.77586 0.96036 0.0
Fe89 Fe 0.86758 0.83035 0.90076 0.0
O90 O 0.85728 0.79225 0.94865 0.0
Fe91 Fe 0.8947 0.77024 0.98418 0.0
O92 O 0.883 0.7084 0.97025 0.0
O93 O 0.82175 0.71544 0.98212 0.0
O94 O 0.80363 0.74883 0.9026 0.0
C95 C 0.80938 0.77087 0.86459 0.0
C96 C 0.83465 0.7865 0.04988 0.0
O97 O 0.82824 0.80968 0.86405 0.0
C98 C 0.91946 0.86236 0.97057 0.0
O99 O 0.78991 0.83375 0.94098 0.0
O100 O 0.83973 0.87852 0.92514 0.0
O101 O 0.86633 0.76818 0.03871 0.0
O102 O 0.81224 0.80119 0.01863 0.0
C103 C 0.92352 0.76369 0.89203 0.0
O104 O 0.90932 0.85861 0.9281 0.0
O105 O 0.90928 0.83107 1.00019 0.0
C106 C 0.80518 0.87464 0.9349 0.0
O107 O 0.89535 0.78376 0.87355 0.0
O108 O 0.9294 0.76719 0.93578 0.0
C109 C 0.85109 0.68986 0.97713 0.0
Fe110 Fe 0.72483 0.69972 0.45553 0.0
Fe111 Fe 0.66666 0.6366 0.40607 0.0
O112 O 0.67767 0.67988 0.44946 0.0
Fe113 Fe 0.64171 0.70493 0.48561 0.0
O114 O 0.66367 0.76493 0.48982 0.0
O115 O 0.71094 0.76033 0.44016 0.0
O116 O 0.73826 0.69164 0.39398 0.0
C117 C 0.7181 0.69126 0.35751 0.0
C118 C 0.69906 0.69571 0.54942 0.0
O119 O 0.68483 0.67512 0.35919 0.0
C120 C 0.62027 0.60571 0.47669 0.0
O121 O 0.74104 0.63962 0.47055 0.0
O122 O 0.71158 0.60452 0.41171 0.0
O123 O 0.66536 0.6844 0.53932 0.0
O124 O 0.7209 0.71196 0.51815 0.0
C125 C 0.60776 0.70359 0.39874 0.0
O126 O 0.64706 0.59521 0.44924 0.0
O127 O 0.6132 0.6494 0.48706 0.0
C128 C 0.73662 0.60413 0.44344 0.0
O129 O 0.62029 0.66132 0.39306 0.0
O130 O 0.61612 0.72797 0.43464 0.0
C131 C 0.68622 0.78464 0.46132 0.0
Fe132 Fe 0.36943 0.63601 0.13391 0.0
Fe133 Fe 0.39601 0.70305 0.05506 0.0
O134 O 0.35881 0.67765 0.08893 0.0
Fe135 Fe 0.31123 0.69438 0.07876 0.0
O136 O 0.30477 0.71616 0.13836 0.0
O137 O 0.32968 0.65264 0.172 0.0
O138 O 0.39659 0.68089 0.16456 0.0
C139 C 0.42439 0.70309 0.14765 0.0
C140 C 0.30775 0.59374 0.09562 0.0
O141 O 0.43057 0.70269 0.10381 0.0
C142 C 0.33571 0.69155 0.98849 0.0
O143 O 0.41143 0.61092 0.10473 0.0
O144 O 0.41148 0.6438 0.03466 0.0
O145 O 0.29202 0.63476 0.09297 0.0
O146 O 0.34225 0.58945 0.10575 0.0
C147 C 0.3514 0.78153 0.07179 0.0
O148 O 0.36738 0.70926 1.0007 0.0
O149 O 0.31366 0.67436 0.01874 0.0
C150 C 0.42174 0.61044 0.06222 0.0
O151 O 0.38385 0.76332 0.07387 0.0
O152 O 0.32246 0.75655 0.06288 0.0
C153 C 0.31008 0.69083 0.17441 0.0
Fe154 Fe 0.14009 0.76279 0.55419 0.0
Fe155 Fe 0.22329 0.7721 0.5829 0.0
O156 O 0.17581 0.79086 0.58856 0.0
Fe157 Fe 0.16445 0.83612 0.6299 0.0
O158 O 0.11889 0.81065 0.6453 0.0
O159 O 0.11524 0.7422 0.60647 0.0
O160 O 0.16318 0.70321 0.55353 0.0
C161 C 0.18694 0.68563 0.58206 0.0
C162 C 0.1164 0.86177 0.55849 0.0
O163 O 0.21095 0.71212 0.60209 0.0
C164 C 0.23306 0.86851 0.58901 0.0
O165 O 0.16305 0.78033 0.49896 0.0
O166 O 0.21899 0.75525 0.52147 0.0
O167 O 0.14313 0.87449 0.58521 0.0
O168 O 0.11051 0.81742 0.54975 0.0
C169 C 0.21795 0.7862 0.68022 0.0
O170 O 0.2378 0.83156 0.56388 0.0
O171 O 0.20856 0.86927 0.62134 0.0
C172 C 0.19646 0.76738 0.48918 0.0
O173 O 0.23752 0.78477 0.64342 0.0
O174 O 0.18423 0.80082 0.6784 0.0
C175 C 0.10689 0.76795 0.64141 0.0
H176 H 0.03496 0.21363 0.12583 0.0
H177 H 0.98957 0.25744 0.39686 0.0
H178 H 0.12028 0.23836 0.23112 0.0
H179 H 0.9155 0.18666 0.29862 0.0
H180 H 0.03302 0.27591 0.33191 0.0
H181 H 0.98625 0.23036 0.18451 0.0
C182 C 0.04343 0.22363 0.16097 0.0
C183 C 0.08155 0.22348 0.17403 0.0
C184 C 1.00685 0.25715 0.32464 0.0
C185 C 0.02631 0.24246 0.24104 0.0
C186 C 0.98217 0.24675 0.36155 0.0
C187 C 0.9495 0.21973 0.35293 0.0
C188 C 0.99817 0.24102 0.27913 0.0
C189 C 0.94088 0.20678 0.30669 0.0
C190 C 1.01569 0.23298 0.19446 0.0
C191 C 0.09106 0.23698 0.21997 0.0
N192 N 0.96519 0.2172 0.27159 0.0
N193 N 0.0636 0.24528 0.25205 0.0
H194 H 0.42019 0.22678 0.72175 0.0
H195 H 0.62252 0.30208 0.79652 0.0
H196 H 0.50859 0.25195 0.62139 0.0
H197 H 0.55188 0.22029 0.89043 0.0
H198 H 0.58203 0.27913 0.73144 0.0
H199 H 0.46787 0.21694 0.78329 0.0
C200 C 0.44983 0.22847 0.71255 0.0
C201 C 0.46081 0.23982 0.66676 0.0
C202 C 0.57552 0.26557 0.76607 0.0
C203 C 0.51514 0.2306 0.73676 0.0
C204 C 0.59843 0.27905 0.80334 0.0
C205 C 0.59006 0.2637 0.84894 0.0
C206 C 0.54331 0.2375 0.7745 0.0
C207 C 0.55898 0.2332 0.85575 0.0
C208 C 0.47697 0.22305 0.7476 0.0
C209 C 0.49927 0.24268 0.65635 0.0
N210 N 0.53614 0.22185 0.81895 0.0
N211 N 0.52514 0.23908 0.69137 0.0
H212 H 0.99965 0.7543 0.90779 0.0
H213 H 0.04295 0.71132 0.63603 0.0
H214 H 0.91341 0.7292 0.80374 0.0
H215 H 0.11738 0.78257 0.73352 0.0
H216 H 1.00002 0.69252 0.70147 0.0
H217 H 0.04784 0.73798 0.84837 0.0
C218 C 0.99087 0.74427 0.87278 0.0
C219 C 0.95262 0.74422 0.8603 0.0
C220 C 0.02616 0.71146 0.70846 0.0
C221 C 1.0073 0.72577 0.7924 0.0
C222 C 0.05055 0.72204 0.67127 0.0
C223 C 0.08318 0.74926 0.67954 0.0
C224 C 0.0351 0.72758 0.75389 0.0
C225 C 0.09204 0.76228 0.72571 0.0
C226 C 1.01832 0.73517 0.83885 0.0
C227 C 0.94273 0.7307 0.81447 0.0
N228 N 0.06803 0.75164 0.76107 0.0
N229 N 0.96991 0.72269 0.78195 0.0
H230 H 0.54084 0.75419 0.40665 0.0
H231 H 0.49986 0.7199 0.13302 0.0
H232 H 0.61954 0.69623 0.3063 0.0
H233 H 0.41261 0.73082 0.23782 0.0
H234 H 0.547 0.73837 0.19326 0.0
H235 H 0.49671 0.77185 0.34189 0.0
C236 C 0.54914 0.74641 0.37096 0.0
C237 C 0.58345 0.7232 0.36156 0.0
C238 C 0.51743 0.73753 0.20282 0.0
C239 C 0.53394 0.7434 0.28806 0.0
C240 C 0.49057 0.72712 0.16845 0.0
C241 C 0.45248 0.72264 0.18077 0.0
C242 C 0.50597 0.7437 0.24959 0.0
C243 C 0.4419 0.73277 0.22715 0.0
C244 C 0.52406 0.75626 0.33415 0.0
C245 C 0.59308 0.71366 0.31488 0.0
N246 N 0.46855 0.74219 0.26006 0.0
N247 N 0.56838 0.72344 0.27993 0.0
H248 H 0.0884 0.03427 0.11486 0.0
H249 H 0.94951 0.93399 0.91538 0.0
H250 H 0.08235 0.09519 0.97585 0.0
H251 H 0.95427 0.87654 0.05583 0.0
H252 H 0.99809 -0.0072 0.9364 0.0
H253 H 0.04028 0.97551 0.09305 0.0
C254 C 0.07711 0.03527 0.07961 0.0
C255 C 0.08957 0.07008 0.04722 0.0
C256 C 0.98848 0.96741 0.96267 0.0
C257 C 0.03388 0.00242 0.02198 0.0
C258 C 0.96061 0.93377 0.95073 0.0
C259 C 0.94763 0.89999 0.98383 0.0
C260 C 1.00373 0.96749 1.0081 0.0
C261 C 0.96326 0.90174 0.02907 0.0
C262 C 0.04946 0.00161 0.06721 0.0
C263 C 0.07373 0.06917 1.00205 0.0
N264 N 0.99045 0.93474 0.03977 0.0
N265 N 0.0467 0.03605 0.99085 0.0
H266 H 0.61963 0.50899 0.45318 0.0
H267 H 0.42304 0.45579 0.58315 0.0
H268 H 0.55801 0.61551 0.53288 0.0
H269 H 0.48407 0.34848 0.50374 0.0
H270 H 0.47204 0.5148 0.56441 0.0
H271 H 0.57096 0.44933 0.47214 0.0
C272 C 0.5961 0.51982 0.47497 0.0
C273 C 0.59303 0.56757 0.49132 0.0
C274 C 0.47467 0.47839 0.55094 0.0
C275 C 0.53685 0.49933 0.5128 0.0
C276 C 0.44655 0.44463 0.56149 0.0
C277 C 0.44927 0.39688 0.54509 0.0
C278 C 0.50594 0.46451 0.52379 0.0
C279 C 0.48061 0.38477 0.5172 0.0
C280 C 0.56818 0.48572 0.48561 0.0
C281 C 0.5617 0.57929 0.51934 0.0
N282 N 0.50769 0.41823 0.5076 0.0
N283 N 0.53488 0.54557 0.52899 0.0
H284 H 0.43921 0.52493 0.105 0.0
H285 H 0.61814 0.46607 0.94358 0.0
H286 H 0.47021 0.61305 0.98647 0.0
H287 H 0.56793 0.36231 0.03758 0.0
H288 H 0.56826 0.52384 0.96382 0.0
H289 H 0.48935 0.46804 0.08474 0.0
C290 C 0.45645 0.53227 0.07453 0.0
C291 C 0.45035 0.574 0.04742 0.0
C292 C 0.56826 0.48848 0.98011 0.0
C293 C 0.50848 0.50889 0.0243 0.0
C294 C 0.59694 0.45553 0.96888 0.0
C295 C 0.59739 0.40904 0.98888 0.0
C296 C 0.53992 0.47521 1.01199 0.0
C297 C 0.56884 0.39757 0.02117 0.0
C298 C 0.48514 0.49968 0.06299 0.0
C299 C 0.47367 0.58132 1.00826 0.0
N300 N 0.54141 0.43033 0.0317 0.0
N301 N 0.50185 0.54932 0.99809 0.0
H302 H 0.97799 0.1197 0.52882 0.0
H303 H 0.054 0.84771 0.50288 0.0
H304 H 0.91881 0.00916 0.45152 0.0
H305 H 0.11334 0.95919 0.57867 0.0
H306 H 1.00468 0.90616 0.48321 0.0
H307 H 0.02713 0.06108 0.54818 0.0
C308 C 0.97509 0.08301 0.51613 0.0
C309 C 0.944 0.06959 0.48834 0.0
C310 C 0.02854 0.91792 0.50399 0.0
C311 C 1.00084 0.00194 0.51026 0.0
C312 C 0.0569 0.88455 0.51514 0.0
C313 C 0.08808 0.89831 0.54262 0.0
C314 C 0.0311 0.96566 0.52041 0.0
C315 C 0.09 0.94673 0.5574 0.0
C316 C 1.00336 0.04951 0.52711 0.0
C317 C 0.94209 0.02133 0.47306 0.0
N318 N 0.06191 0.97847 0.54628 0.0
N319 N 0.97012 -0.01059 0.48407 0.0
H320 H 0.31748 0.81415 0.14889 0.0
H321 H 0.29856 0.08428 0.05546 0.0
H322 H 0.37164 0.86163 0.02194 0.0
H323 H 0.21817 0.01139 0.14436 0.0
H324 H 0.33803 0.01115 0.05596 0.0
H325 H 0.29558 0.89646 0.16283 0.0
C326 C 0.32525 0.84242 0.12447 0.0
C327 C 0.34575 0.83183 0.08405 0.0
C328 C 0.31188 0.01159 0.07557 0.0
C329 C 0.32031 0.925 0.09888 0.0
C330 C 0.28941 0.05299 0.07524 0.0
C331 C 0.25496 0.05332 0.09941 0.0
C332 C 0.2999 0.97106 0.10096 0.0
C333 C 0.24425 0.01225 0.12465 0.0
C334 C 0.31274 0.88914 0.13227 0.0
C335 C 0.35564 0.86909 0.0534 0.0
N336 N 0.26669 0.97272 0.12475 0.0
N337 N 0.34218 0.9144 0.06102 0.0
H338 H 0.17039 0.61692 0.51632 0.0
H339 H 0.24906 0.38523 0.52981 0.0
H340 H 0.21532 0.63579 0.65558 0.0
H341 H 0.30593 0.44317 0.65133 0.0
H342 H 0.2087 0.45681 0.52794 0.0
H343 H 0.1912 0.53291 0.51757 0.0
C344 C 0.18372 0.60282 0.54766 0.0
C345 C 0.19187 0.63322 0.58559 0.0
C346 C 0.23014 0.45414 0.55478 0.0
C347 C 0.21552 0.53735 0.58768 0.0
C348 C 0.25314 0.41312 0.55592 0.0
C349 C 0.28126 0.40857 0.59035 0.0
C350 C 0.23561 0.49071 0.58826 0.0
C351 C 0.28501 0.4453 0.62374 0.0
C352 C 0.19565 0.55473 0.54844 0.0
C353 C 0.20921 0.61359 0.62528 0.0
N354 N 0.26255 0.48474 0.62169 0.0
N355 N 0.22085 0.56704 0.62504 0.0
H356 H 0.77466 0.42979 0.88119 0.0
H357 H 0.81071 0.64094 0.04192 0.0
H358 H 0.76954 0.40523 0.03024 0.0
H359 H 0.88328 0.62106 0.92236 0.0
H360 H 0.79582 0.55461 0.04057 0.0
H361 H 0.81491 0.50006 0.89495 0.0
C362 C 0.78233 0.43915 0.91678 0.0
C363 C 0.76844 0.41269 0.95479 0.0
C364 C 0.81579 0.56891 1.01544 0.0
C365 C 0.81391 0.49245 0.97064 0.0
C366 C 0.82399 0.61799 1.01597 0.0
C367 C 0.8477 0.63759 0.98175 0.0
C368 C 0.83043 0.54007 0.97946 0.0
C369 C 0.86466 0.60686 0.94907 0.0
C370 C 0.80561 0.47868 0.92456 0.0
C371 C 0.77957 0.42536 1.0002 0.0
N372 N 0.85483 0.5595 0.94783 0.0
N373 N 0.80102 0.46535 1.00707 0.0
H374 H 0.75665 0.07221 0.5186 0.0
H375 H 0.69618 0.83504 0.3818 0.0
H376 H 0.77779 0.04279 0.37255 0.0
H377 H 0.67967 0.85258 0.53035 0.0
H378 H 0.71103 0.92058 0.37535 0.0
H379 H 0.71543 0.0008 0.52164 0.0
C380 C 0.75226 0.05102 0.48718 0.0
C381 C 0.77132 0.06237 0.44562 0.0
C382 C 0.7037 0.90613 0.40938 0.0
C383 C 0.72424 0.98199 0.44856 0.0
C384 C 0.6952 0.85738 0.41295 0.0
C385 C 0.68754 0.83713 0.45673 0.0
C386 C 0.70567 0.93438 0.45016 0.0
C387 C 0.68587 0.86726 0.49606 0.0
C388 C 0.72874 0.01053 0.48887 0.0
C389 C 0.76447 0.03443 0.40568 0.0
N390 N 0.69584 0.9145 0.49208 0.0
N391 N 0.74174 -0.00462 0.40827 0.0
H392 H 0.67081 0.11975 1.00416 0.0
H393 H 0.81669 0.95313 0.8803 0.0
H394 H 0.71529 0.14888 0.86642 0.0
H395 H 0.73918 0.89313 0.98124 0.0
H396 H 0.77767 0.02513 0.87519 0.0
H397 H 0.69078 0.03514 0.99618 0.0
C398 C 0.68379 0.10797 0.9718 0.0
C399 C 0.69251 0.14122 0.93639 0.0
C400 C 0.76885 -0.0039 0.89815 0.0
C401 C 0.71549 0.0458 0.92734 0.0
C402 C 0.79139 0.95529 0.90149 0.0
C403 C 0.78127 0.9177 0.93171 0.0
C404 C 0.73639 -0.00012 0.92603 0.0
C405 C 0.74788 0.92176 0.95776 0.0
C406 C 0.69521 0.05987 0.96729 0.0
C407 C 0.70909 0.12442 0.89503 0.0
N408 N 0.72678 0.96273 0.95495 0.0
N409 N 0.7207 0.078 0.89197 0.0
H410 H 0.78005 0.57076 0.51651 0.0
H411 H 0.82859 0.33354 0.37403 0.0
H412 H 0.75603 0.54806 0.36995 0.0
H413 H 0.86005 0.35273 0.51876 0.0
H414 H 0.81373 0.41919 0.36882 0.0
H415 H 0.8201 0.49813 0.51585 0.0
C416 C 0.78362 0.55083 0.48418 0.0
C417 C 0.76398 0.56435 0.44359 0.0
C418 C 0.82434 0.40506 0.40168 0.0
C419 C 0.80957 0.4824 0.44236 0.0
C420 C 0.83274 0.35618 0.40457 0.0
C421 C 0.84474 0.33636 0.44707 0.0
C422 C 0.82693 0.43394 0.442 0.0
C423 C 0.85045 0.36698 0.48549 0.0
C424 C 0.80647 0.50961 0.48375 0.0
C425 C 0.76979 0.53797 0.4024 0.0
N426 N 0.84062 0.41435 0.48239 0.0
N427 N 0.79175 0.49804 0.40299 0.0
H428 H 0.16859 0.35795 1.0083 0.0
H429 H 0.3205 0.50889 0.14033 0.0
H430 H 0.21164 0.31837 0.14424 0.0
H431 H 0.24142 0.58084 0.04846 0.0
H432 H 0.28082 0.4373 0.13911 0.0
H433 H 0.19257 0.44058 0.02026 0.0
C434 C 0.18203 0.36734 0.04115 0.0
C435 C 0.18862 0.33215 0.07534 0.0
C436 C 0.27192 0.46886 0.1195 0.0
C437 C 0.21649 0.42443 0.08866 0.0
C438 C 0.29479 0.50944 0.11973 0.0
C439 C 0.28424 0.55039 0.09411 0.0
C440 C 0.23869 0.46893 0.0927 0.0
C441 C 0.2504 0.54965 0.06855 0.0
C442 C 0.19574 0.41408 0.04793 0.0
C443 C 0.20644 0.34497 0.11712 0.0
N444 N 0.22889 0.50907 0.06792 0.0
N445 N 0.22035 0.39008 0.12239 0.0
H446 H 0.27621 0.8979 0.51432 0.0
H447 H 0.33915 0.13274 0.65353 0.0
H448 H 0.25296 0.92793 0.65978 0.0
H449 H 0.3564 0.1159 0.50502 0.0
H450 H 0.32245 0.0477 0.65908 0.0
H451 H 0.31839 0.96845 0.51234 0.0
C452 C 0.28027 0.91908 0.54581 0.0
C453 C 0.26043 0.90811 0.58689 0.0
C454 C 0.33033 0.06221 0.62526 0.0
C455 C 0.30861 -0.01259 0.5852 0.0
C456 C 0.33987 0.11067 0.6222 0.0
C457 C 0.34826 0.13101 0.57867 0.0
C458 C 0.32811 0.03439 0.58422 0.0
C459 C 0.34962 0.10118 0.53912 0.0
C460 C 0.30435 0.95905 0.54474 0.0
C461 C 0.2669 0.93599 0.62698 0.0
N462 N 0.33866 0.05427 0.54259 0.0
N463 N 0.29021 0.9745 0.62499 0.0
H464 H 0.2737 0.16503 0.95621 0.0
H465 H 0.2459 0.27052 0.69804 0.0
H466 H 0.16825 0.22613 0.90827 0.0
H467 H 0.35531 0.25193 0.76232 0.0
H468 H 0.21608 0.2452 0.77104 0.0
H469 H 0.30243 0.18593 0.88141 0.0
C470 C 0.25633 0.1823 0.92981 0.0
C471 C 0.21834 0.19398 0.93893 0.0
C472 C 0.24659 0.24671 0.76924 0.0
C473 C 0.25155 0.21824 0.85275 0.0
C474 C 0.26375 0.26111 0.72751 0.0
C475 C 0.30331 0.26349 0.72392 0.0
C476 C 0.26903 0.23383 0.80778 0.0
C477 C 0.32478 0.2509 0.76347 0.0
C478 C 0.27297 0.19454 0.88713 0.0
C479 C 0.19755 0.2164 0.90301 0.0
N480 N 0.30738 0.23638 0.80364 0.0
N481 N 0.21443 0.22787 0.86159 0.0
H482 H 0.20267 0.17339 0.26111 0.0
H483 H 0.37682 0.28074 0.40169 0.0
H484 H 0.28689 0.25646 0.18759 0.0
H485 H 0.26569 0.26012 0.46032 0.0
H486 H 0.34985 0.26672 0.32291 0.0
H487 H 0.23128 0.19707 0.33514 0.0
C488 C 0.22727 0.19663 0.26052 0.0
C489 C 0.24237 0.21292 0.21801 0.0
C490 C 0.33155 0.26581 0.35323 0.0
C491 C 0.27563 0.24009 0.30318 0.0
C492 C 0.34687 0.27386 0.3981 0.0
C493 C 0.32369 0.27088 0.43794 0.0
C494 C 0.29304 0.25421 0.34859 0.0
C495 C 0.28499 0.26196 0.43102 0.0
C496 C 0.24352 0.21035 0.30288 0.0
C497 C 0.27425 0.24324 0.21961 0.0
N498 N 0.27114 0.25341 0.38759 0.0
N499 N 0.29011 0.25557 0.26156 0.0
H500 H 0.74019 0.20768 0.33601 0.0
H501 H 0.77561 0.27642 0.06777 0.0
H502 H 0.84825 0.19791 0.267 0.0
H503 H 0.66355 0.25971 0.12443 0.0
H504 H 0.80221 0.25752 0.14398 0.0
H505 H 0.71161 0.23415 0.26226 0.0
C506 C 0.75798 0.21101 0.30537 0.0
C507 C 0.79682 0.2003 0.30783 0.0
C508 C 0.7718 0.25812 0.14007 0.0
C509 C 0.76408 0.23119 0.22326 0.0
C510 C 0.75648 0.26911 0.09649 0.0
C511 C 0.7172 0.2691 0.08945 0.0
C512 C 0.74785 0.2469 0.17751 0.0
C513 C 0.69395 0.26009 0.12825 0.0
C514 C 0.74154 0.22617 0.26328 0.0
C515 C 0.81827 0.20543 0.26689 0.0
N516 N 0.70966 0.24891 0.17065 0.0
N517 N 0.80164 0.22058 0.22646 0.0
H518 H 0.87783 0.21458 0.62489 0.0
H519 H 0.6902 0.28086 0.76746 0.0
H520 H 0.76456 0.19375 0.57301 0.0
H521 H 0.79956 0.27235 0.83388 0.0
H522 H 0.71841 0.25169 0.69482 0.0
H523 H 0.8513 0.23585 0.70196 0.0
C524 C 0.84755 0.21355 0.62992 0.0
C525 C 0.82337 0.20287 0.59237 0.0
C526 C 0.73629 0.25614 0.72528 0.0
C527 C 0.79292 0.228 0.67961 0.0
C528 C 0.72018 0.27315 0.76672 0.0
C529 C 0.74249 0.27926 0.80685 0.0
C530 C 0.77513 0.24544 0.72365 0.0
C531 C 0.78123 0.26822 0.80379 0.0
C532 C 0.83239 0.22606 0.67372 0.0
C533 C 0.78428 0.20242 0.60076 0.0
N534 N 0.79635 0.25204 0.76291 0.0
N535 N 0.77035 0.21527 0.64313 0.0
H536 H 0.87193 0.75331 0.12847 0.0
H537 H 0.68218 0.71356 0.27459 0.0
H538 H 0.76277 0.80353 0.08153 0.0
H539 H 0.79285 0.7055 0.33746 0.0
H540 H 0.71124 0.74135 0.20156 0.0
H541 H 0.84383 0.73203 0.20412 0.0
C542 C 0.84223 0.76052 0.13418 0.0
C543 C 0.8198 0.78024 0.09831 0.0
C544 C 0.72913 0.73358 0.23141 0.0
C545 C 0.78724 0.75488 0.18461 0.0
C546 C 0.71254 0.71741 0.27305 0.0
C547 C 0.73501 0.70705 0.31234 0.0
C548 C 0.76857 0.73887 0.22871 0.0
C549 C 0.77431 0.71311 0.3082 0.0
C550 C 0.82616 0.74816 0.17736 0.0
C551 C 0.78134 0.78847 0.10793 0.0
N552 N 0.78981 0.7283 0.26718 0.0
N553 N 0.76627 0.77529 0.14981 0.0
H554 H 0.83596 0.78667 0.77713 0.0
H555 H 0.65918 0.69047 0.63362 0.0
H556 H 0.74475 0.71621 0.85006 0.0
H557 H 0.77181 0.70371 0.57753 0.0
H558 H 0.68542 0.70331 0.71297 0.0
H559 H 0.80821 0.76237 0.70293 0.0
C560 C 0.81 0.76597 0.77753 0.0
C561 C 0.79266 0.75355 0.81994 0.0
C562 C 0.70422 0.70282 0.68311 0.0
C563 C 0.76029 0.72564 0.7344 0.0
C564 C 0.6893 0.69544 0.63791 0.0
C565 C 0.71317 0.69679 0.5986 0.0
C566 C 0.74306 0.71198 0.68866 0.0
C567 C 0.75204 0.70327 0.6064 0.0
C568 C 0.79421 0.75187 0.73504 0.0
C569 C 0.75912 0.72635 0.81812 0.0
N570 N 0.76554 0.71111 0.65013 0.0
N571 N 0.74373 0.71367 0.77595 0.0
H572 H 0.2934 0.7809 0.70018 0.0
H573 H 0.26541 0.66858 0.95531 0.0
H574 H 0.18404 0.76041 0.76341 0.0
H575 H 0.37021 0.73429 0.912 0.0
H576 H 0.23714 0.69163 0.88077 0.0
H577 H 0.32329 0.75536 0.7734 0.0
C578 C 0.2756 0.77113 0.7295 0.0
C579 C 0.23602 0.77297 0.72555 0.0
C580 C 0.26636 0.70084 0.88744 0.0
C581 C 0.27033 0.74294 0.80951 0.0
C582 C 0.28276 0.68736 0.92998 0.0
C583 C 0.32043 0.69962 0.94038 0.0
C584 C 0.28769 0.72638 0.85436 0.0
C585 C 0.34117 0.72402 0.90574 0.0
C586 C 0.29277 0.7566 0.77132 0.0
C587 C 0.21457 0.75991 0.76486 0.0
N588 N 0.32453 0.73663 0.86435 0.0
N589 N 0.23198 0.74515 0.80503 0.0
H590 H 0.16873 0.80328 0.40401 0.0
H591 H 0.31879 0.64601 0.2586 0.0
H592 H 0.25349 0.70855 0.4627 0.0
H593 H 0.25801 0.76344 0.19319 0.0
H594 H 0.28833 0.66473 0.33226 0.0
H595 H 0.19445 0.78592 0.32509 0.0
C596 C 0.19246 0.77886 0.40042 0.0
C597 C 0.20903 0.7577 0.44028 0.0
C598 C 0.28151 0.68664 0.30196 0.0
C599 C 0.23823 0.73756 0.35074 0.0
C600 C 0.29896 0.67583 0.25962 0.0
C601 C 0.29112 0.70315 0.21938 0.0
C602 C 0.2557 0.72517 0.30475 0.0
C603 C 0.26501 0.74145 0.22334 0.0
C604 C 0.20721 0.76915 0.35551 0.0
C605 C 0.23982 0.72634 0.43346 0.0
N606 N 0.24817 0.75135 0.2653 0.0
N607 N 0.25317 0.71734 0.38997 0.0
loop_
_geom_bond_atom_site_label_1
_geom_bond_atom_site_label_2
_geom_bond_distance
_geom_bond_site_symmetry_2
_ccdc_geom_bond_type
Fe0 O2 1.918 . S
Fe0 O5 1.997 . S
Fe0 O6 2.002 . S
Fe0 O11 1.976 . S
Fe0 O14 1.996 . S
Fe1 O2 1.918 . S
Fe1 O9 1.997 . S
Fe1 O12 1.996 . S
Fe1 O16 1.976 . S
Fe1 O19 2.002 . S
O2 Fe0 1.918 . S
O2 Fe1 1.918 . S
O2 Fe3 1.918 . S
Fe3 O2 1.918 . S
Fe3 O4 2.002 . S
Fe3 O13 1.976 . S
Fe3 O17 1.996 . S
Fe3 O20 1.997 . S
O4 Fe3 2.002 . S
O4 C21 1.295 . S
O5 Fe0 1.997 . S
O5 C21 1.235 . S
O6 Fe0 2.002 . S
O6 C7 1.295 . S
C7 O6 1.295 . S
C7 O9 1.235 . S
C8 O13 1.287 . S
C8 O14 1.255 . S
O9 Fe1 1.997 . S
O9 C7 1.235 . S
C10 O16 1.273 1_556 S
C10 O17 1.252 1_556 S
O11 Fe0 1.976 . S
O11 C18 1.287 . S
O12 Fe1 1.996 . S
O12 C18 1.255 . S
O13 Fe3 1.976 . S
O13 C8 1.287 . S
O14 Fe0 1.996 . S
O14 C8 1.255 . S
C15 O19 1.295 . S
C15 O20 1.235 . S
O16 Fe1 1.976 . S
O16 C10 1.273 1_554 S
O17 Fe3 1.996 . S
O17 C10 1.252 1_554 S
C18 O11 1.287 . S
C18 O12 1.255 . S
O19 Fe1 2.002 . S
O19 C15 1.295 . S
O20 Fe3 1.997 . S
O20 C15 1.235 . S
C21 O4 1.295 . S
C21 O5 1.235 . S
Fe22 O24 1.918 . S
Fe22 O27 1.997 . S
Fe22 O28 2.002 . S
Fe22 O33 1.976 . S
Fe22 O36 1.996 . S
Fe23 O24 1.918 . S
Fe23 O31 1.997 . S
Fe23 O34 1.996 . S
Fe23 O38 1.976 . S
Fe23 O41 2.002 . S
O24 Fe22 1.918 . S
O24 Fe23 1.918 . S
O24 Fe25 1.918 . S
Fe25 O24 1.918 . S
Fe25 O26 2.002 . S
Fe25 O35 1.976 . S
Fe25 O39 1.996 . S
Fe25 O42 1.997 . S
O26 Fe25 2.002 . S
O26 C43 1.295 . S
O27 Fe22 1.997 . S
O27 C43 1.235 . S
O28 Fe22 2.002 . S
O28 C29 1.295 . S
C29 O28 1.295 . S
C29 O31 1.235 . S
C30 O35 1.287 . S
C30 O36 1.255 . S
O31 Fe23 1.997 . S
O31 C29 1.235 . S
C32 O38 1.287 . S
C32 O39 1.255 . S
O33 Fe22 1.976 . S
O33 C40 1.287 . S
O34 Fe23 1.996 . S
O34 C40 1.255 . S
O35 Fe25 1.976 . S
O35 C30 1.287 . S
O36 Fe22 1.996 . S
O36 C30 1.255 . S
C37 O41 1.295 . S
C37 O42 1.235 . S
O38 Fe23 1.976 . S
O38 C32 1.287 . S
O39 Fe25 1.996 . S
O39 C32 1.255 . S
C40 O33 1.287 . S
C40 O34 1.255 . S
O41 Fe23 2.002 . S
O41 C37 1.295 . S
O42 Fe25 1.997 . S
O42 C37 1.235 . S
C43 O26 1.295 . S
C43 O27 1.235 . S
Fe44 O46 1.918 . S
Fe44 O49 1.997 . S
Fe44 O50 2.002 . S
Fe44 O55 1.976 . S
Fe44 O58 1.996 . S
Fe45 O46 1.918 . S
Fe45 O53 1.997 . S
Fe45 O56 1.996 . S
Fe45 O60 1.976 . S
Fe45 O63 2.002 . S
O46 Fe44 1.918 . S
O46 Fe45 1.918 . S
O46 Fe47 1.918 . S
Fe47 O46 1.918 . S
Fe47 O48 2.002 . S
Fe47 O57 1.976 . S
Fe47 O61 1.996 . S
Fe47 O64 1.997 . S
O48 Fe47 2.002 . S
O48 C65 1.295 . S
O49 Fe44 1.997 . S
O49 C65 1.235 . S
O50 Fe44 2.002 . S
O50 C51 1.295 . S
C51 O50 1.295 . S
C51 O53 1.235 . S
C52 O57 1.287 . S
C52 O58 1.255 . S
O53 Fe45 1.997 . S
O53 C51 1.235 . S
C54 O60 1.273 1_554 S
C54 O61 1.252 1_554 S
O55 Fe44 1.976 . S
O55 C62 1.287 . S
O56 Fe45 1.996 . S
O56 C62 1.255 . S
O57 Fe47 1.976 . S
O57 C52 1.287 . S
O58 Fe44 1.996 . S
O58 C52 1.255 . S
C59 O63 1.295 . S
C59 O64 1.235 . S
O60 Fe45 1.976 . S
O60 C54 1.273 1_556 S
O61 Fe47 1.996 . S
O61 C54 1.252 1_556 S
C62 O55 1.287 . S
C62 O56 1.255 . S
O63 Fe45 2.002 . S
O63 C59 1.295 . S
O64 Fe47 1.997 . S
O64 C59 1.235 . S
C65 O48 1.295 . S
C65 O49 1.235 . S
Fe66 O68 1.918 . S
Fe66 O71 1.997 . S
Fe66 O72 2.002 . S
Fe66 O77 1.976 . S
Fe66 O80 1.996 . S
Fe67 O68 1.918 . S
Fe67 O75 1.997 . S
Fe67 O78 1.996 . S
Fe67 O82 1.976 . S
Fe67 O85 2.002 . S
O68 Fe66 1.918 . S
O68 Fe67 1.918 . S
O68 Fe69 1.918 . S
Fe69 O68 1.918 . S
Fe69 O70 2.002 . S
Fe69 O79 1.976 . S
Fe69 O83 1.996 . S
Fe69 O86 1.997 . S
O70 Fe69 2.002 . S
O70 C87 1.295 . S
O71 Fe66 1.997 . S
O71 C87 1.235 . S
O72 Fe66 2.002 . S
O72 C73 1.295 . S
C73 O72 1.295 . S
C73 O75 1.235 . S
C74 O79 1.287 . S
C74 O80 1.255 . S
O75 Fe67 1.997 . S
O75 C73 1.235 . S
C76 O82 1.287 . S
C76 O83 1.255 . S
O77 Fe66 1.976 . S
O77 C84 1.287 . S
O78 Fe67 1.996 . S
O78 C84 1.255 . S
O79 Fe69 1.976 . S
O79 C74 1.287 . S
O80 Fe66 1.996 . S
O80 C74 1.255 . S
C81 O85 1.295 . S
C81 O86 1.235 . S
O82 Fe67 1.976 . S
O82 C76 1.287 . S
O83 Fe69 1.996 . S
O83 C76 1.255 . S
C84 O77 1.287 . S
C84 O78 1.255 . S
O85 Fe67 2.002 . S
O85 C81 1.295 . S
O86 Fe69 1.997 . S
O86 C81 1.235 . S
C87 O70 1.295 . S
C87 O71 1.235 . S
Fe88 O90 1.918 . S
Fe88 O93 1.997 . S
Fe88 O94 2.002 . S
Fe88 O99 1.976 . S
Fe88 O102 1.996 . S
Fe89 O90 1.918 . S
Fe89 O97 1.997 . S
Fe89 O100 1.996 . S
Fe89 O104 1.976 . S
Fe89 O107 2.002 . S
O90 Fe88 1.918 . S
O90 Fe89 1.918 . S
O90 Fe91 1.918 . S
Fe91 O90 1.918 . S
Fe91 O92 2.002 . S
Fe91 O101 1.976 . S
Fe91 O105 1.996 . S
Fe91 O108 1.997 . S
O92 Fe91 2.002 . S
O92 C109 1.295 . S
O93 Fe88 1.997 . S
O93 C109 1.235 . S
O94 Fe88 2.002 . S
O94 C95 1.295 . S
C95 O94 1.295 . S
C95 O97 1.235 . S
C96 O101 1.284 1_554 S
C96 O102 1.246 1_554 S
O97 Fe89 1.997 . S
O97 C95 1.235 . S
C98 O104 1.287 . S
C98 O105 1.255 . S
O99 Fe88 1.976 . S
O99 C106 1.287 . S
O100 Fe89 1.996 . S
O100 C106 1.255 . S
O101 Fe91 1.976 . S
O101 C96 1.284 1_556 S
O102 Fe88 1.996 . S
O102 C96 1.246 1_556 S
C103 O107 1.295 . S
C103 O108 1.235 . S
O104 Fe89 1.976 . S
O104 C98 1.287 . S
O105 Fe91 1.996 . S
O105 C98 1.255 . S
C106 O99 1.287 . S
C106 O100 1.255 . S
O107 Fe89 2.002 . S
O107 C103 1.295 . S
O108 Fe91 1.997 . S
O108 C103 1.235 . S
C109 O92 1.295 . S
C109 O93 1.235 . S
Fe110 O112 1.918 . S
Fe110 O115 1.997 . S
Fe110 O116 2.002 . S
Fe110 O121 1.976 . S
Fe110 O124 1.996 . S
Fe111 O112 1.918 . S
Fe111 O119 1.997 . S
Fe111 O122 1.996 . S
Fe111 O126 1.976 . S
Fe111 O129 2.002 . S
O112 Fe110 1.918 . S
O112 Fe111 1.918 . S
O112 Fe113 1.918 . S
Fe113 O112 1.918 . S
Fe113 O114 2.002 . S
Fe113 O123 1.976 . S
Fe113 O127 1.996 . S
Fe113 O130 1.997 . S
O114 Fe113 2.002 . S
O114 C131 1.295 . S
O115 Fe110 1.997 . S
O115 C131 1.235 . S
O116 Fe110 2.002 . S
O116 C117 1.295 . S
C117 O116 1.295 . S
C117 O119 1.235 . S
C118 O123 1.287 . S
C118 O124 1.255 . S
O119 Fe111 1.997 . S
O119 C117 1.235 . S
C120 O126 1.287 . S
C120 O127 1.255 . S
O121 Fe110 1.976 . S
O121 C128 1.287 . S
O122 Fe111 1.996 . S
O122 C128 1.255 . S
O123 Fe113 1.976 . S
O123 C118 1.287 . S
O124 Fe110 1.996 . S
O124 C118 1.255 . S
C125 O129 1.295 . S
C125 O130 1.235 . S
O126 Fe111 1.976 . S
O126 C120 1.287 . S
O127 Fe113 1.996 . S
O127 C120 1.255 . S
C128 O121 1.287 . S
C128 O122 1.255 . S
O129 Fe111 2.002 . S
O129 C125 1.295 . S
O130 Fe113 1.997 . S
O130 C125 1.235 . S
C131 O114 1.295 . S
C131 O115 1.235 . S
Fe132 O134 1.918 . S
Fe132 O137 1.997 . S
Fe132 O138 2.002 . S
Fe132 O143 1.976 . S
Fe132 O146 1.996 . S
Fe133 O134 1.918 . S
Fe133 O141 1.997 . S
Fe133 O144 1.996 . S
Fe133 O148 1.976 . S
Fe133 O151 2.002 . S
O134 Fe132 1.918 . S
O134 Fe133 1.918 . S
O134 Fe135 1.918 . S
Fe135 O134 1.918 . S
Fe135 O136 2.002 . S
Fe135 O145 1.976 . S
Fe135 O149 1.996 . S
Fe135 O152 1.997 . S
O136 Fe135 2.002 . S
O136 C153 1.295 . S
O137 Fe132 1.997 . S
O137 C153 1.235 . S
O138 Fe132 2.002 . S
O138 C139 1.295 . S
C139 O138 1.295 . S
C139 O141 1.235 . S
C140 O145 1.287 . S
C140 O146 1.255 . S
O141 Fe133 1.997 . S
O141 C139 1.235 . S
C142 O148 1.284 1_556 S
C142 O149 1.246 1_556 S
O143 Fe132 1.976 . S
O143 C150 1.287 . S
O144 Fe133 1.996 . S
O144 C150 1.255 . S
O145 Fe135 1.976 . S
O145 C140 1.287 . S
O146 Fe132 1.996 . S
O146 C140 1.255 . S
C147 O151 1.295 . S
C147 O152 1.235 . S
O148 Fe133 1.976 . S
O148 C142 1.284 1_554 S
O149 Fe135 1.996 . S
O149 C142 1.246 1_554 S
C150 O143 1.287 . S
C150 O144 1.255 . S
O151 Fe133 2.002 . S
O151 C147 1.295 . S
O152 Fe135 1.997 . S
O152 C147 1.235 . S
C153 O136 1.295 . S
C153 O137 1.235 . S
Fe154 O156 1.918 . S
Fe154 O159 1.997 . S
Fe154 O160 2.002 . S
Fe154 O165 1.976 . S
Fe154 O168 1.996 . S
Fe155 O156 1.918 . S
Fe155 O163 1.997 . S
Fe155 O166 1.996 . S
Fe155 O170 1.976 . S
Fe155 O173 2.002 . S
O156 Fe154 1.918 . S
O156 Fe155 1.918 . S
O156 Fe157 1.918 . S
Fe157 O156 1.918 . S
Fe157 O158 2.002 . S
Fe157 O167 1.976 . S
Fe157 O171 1.996 . S
Fe157 O174 1.997 . S
O158 Fe157 2.002 . S
O158 C175 1.295 . S
O159 Fe154 1.997 . S
O159 C175 1.235 . S
O160 Fe154 2.002 . S
O160 C161 1.295 . S
C161 O160 1.295 . S
C161 O163 1.235 . S
C162 O167 1.287 . S
C162 O168 1.255 . S
O163 Fe155 1.997 . S
O163 C161 1.235 . S
C164 O170 1.287 . S
C164 O171 1.255 . S
O165 Fe154 1.976 . S
O165 C172 1.287 . S
O166 Fe155 1.996 . S
O166 C172 1.255 . S
O167 Fe157 1.976 . S
O167 C162 1.287 . S
O168 Fe154 1.996 . S
O168 C162 1.255 . S
C169 O173 1.295 . S
C169 O174 1.235 . S
O170 Fe155 1.976 . S
O170 C164 1.287 . S
O171 Fe157 1.996 . S
O171 C164 1.255 . S
C172 O165 1.287 . S
C172 O166 1.255 . S
O173 Fe155 2.002 . S
O173 C169 1.295 . S
O174 Fe157 1.997 . S
O174 C169 1.235 . S
C175 O158 1.295 . S
C175 O159 1.235 . S
H176 C182 0.930 . S
H177 C186 0.930 . S
H178 C191 0.929 . S
H179 C189 0.929 . S
H180 C184 0.929 1_455 S
H181 C190 0.929 1_655 S
C182 H176 0.930 . S
C182 C183 1.367 . S
C182 C190 1.378 . S
C183 C182 1.367 . S
C183 C191 1.433 . S
C184 H180 0.929 1_655 S
C184 C186 1.378 . S
C184 C188 1.350 . S
C185 C188 1.463 1_455 S
C185 C190 1.350 . S
C185 N193 1.427 . S
C186 H177 0.930 . S
C186 C184 1.378 . S
C186 C187 1.367 . S
C187 C186 1.367 . S
C187 C189 1.433 . S
C188 C184 1.350 . S
C188 C185 1.463 1_655 S
C188 N192 1.427 . S
C189 H179 0.929 . S
C189 C187 1.433 . S
C189 N192 1.384 . S
C190 H181 0.929 1_455 S
C190 C182 1.378 . S
C190 C185 1.350 . S
C191 H178 0.929 . S
C191 C183 1.433 . S
C191 N193 1.384 . S
N192 C188 1.427 . S
N192 C189 1.384 . S
N193 C185 1.427 . S
N193 C191 1.384 . S
H194 C200 0.930 . S
H195 C204 0.930 . S
H196 C209 0.929 . S
H197 C207 0.929 . S
H198 C202 0.929 . S
H199 C208 0.929 . S
C200 H194 0.930 . S
C200 C201 1.367 . S
C200 C208 1.378 . S
C201 C200 1.367 . S
C201 C209 1.433 . S
C202 H198 0.929 . S
C202 C204 1.378 . S
C202 C206 1.350 . S
C203 C206 1.463 . S
C203 C208 1.350 . S
C203 N211 1.427 . S
C204 H195 0.930 . S
C204 C202 1.378 . S
C204 C205 1.367 . S
C205 C204 1.367 . S
C205 C207 1.433 . S
C206 C202 1.350 . S
C206 C203 1.463 . S
C206 N210 1.427 . S
C207 H197 0.929 . S
C207 C205 1.433 . S
C207 N210 1.384 . S
C208 H199 0.929 . S
C208 C200 1.378 . S
C208 C203 1.350 . S
C209 H196 0.929 . S
C209 C201 1.433 . S
C209 N211 1.384 . S
N210 C206 1.427 . S
N210 C207 1.384 . S
N211 C203 1.427 . S
N211 C209 1.384 . S
H212 C218 0.930 . S
H213 C222 0.930 . S
H214 C227 0.929 . S
H215 C225 0.929 . S
H216 C220 0.941 . S
H217 C226 0.941 . S
C218 H212 0.930 . S
C218 C219 1.367 . S
C218 C226 1.378 . S
C219 C218 1.367 . S
C219 C227 1.433 . S
C220 H216 0.941 . S
C220 C222 1.378 . S
C220 C224 1.350 . S
C221 C224 1.463 1_655 S
C221 C226 1.350 . S
C221 N229 1.427 . S
C222 H213 0.930 . S
C222 C220 1.378 . S
C222 C223 1.367 . S
C223 C222 1.367 . S
C223 C225 1.433 . S
C224 C220 1.350 . S
C224 C221 1.463 1_455 S
C224 N228 1.427 . S
C225 H215 0.929 . S
C225 C223 1.433 . S
C225 N228 1.384 . S
C226 H217 0.941 . S
C226 C218 1.378 . S
C226 C221 1.350 . S
C227 H214 0.929 . S
C227 C219 1.433 . S
C227 N229 1.384 . S
N228 C224 1.427 . S
N228 C225 1.384 . S
N229 C221 1.427 . S
N229 C227 1.384 . S
H230 C236 0.930 . S
H231 C240 0.930 . S
H232 C245 0.929 . S
H233 C243 0.929 . S
H234 C238 0.929 . S
H235 C244 0.929 . S
C236 H230 0.930 . S
C236 C237 1.367 . S
C236 C244 1.378 . S
C237 C236 1.367 . S
C237 C245 1.433 . S
C238 H234 0.929 . S
C238 C240 1.378 . S
C238 C242 1.350 . S
C239 C242 1.463 . S
C239 C244 1.350 . S
C239 N247 1.427 . S
C240 H231 0.930 . S
C240 C238 1.378 . S
C240 C241 1.367 . S
C241 C240 1.367 . S
C241 C243 1.433 . S
C242 C238 1.350 . S
C242 C239 1.463 . S
C242 N246 1.427 . S
C243 H233 0.929 . S
C243 C241 1.433 . S
C243 N246 1.384 . S
C244 H235 0.929 . S
C244 C236 1.378 . S
C244 C239 1.350 . S
C245 H232 0.929 . S
C245 C237 1.433 . S
C245 N247 1.384 . S
N246 C242 1.427 . S
N246 C243 1.384 . S
N247 C239 1.427 . S
N247 C245 1.384 . S
H248 C254 0.930 . S
H249 C258 0.930 . S
H250 C263 0.929 . S
H251 C261 0.929 . S
H252 C256 0.929 . S
H253 C262 0.929 . S
C254 H248 0.930 . S
C254 C255 1.367 . S
C254 C262 1.378 . S
C255 C254 1.367 . S
C255 C263 1.433 1_554 S
C256 H252 0.929 . S
C256 C258 1.378 . S
C256 C260 1.350 . S
C257 C260 1.463 1_444 S
C257 C262 1.350 . S
C257 N265 1.427 1_554 S
C258 H249 0.930 . S
C258 C256 1.378 . S
C258 C259 1.367 . S
C259 C258 1.367 . S
C259 C261 1.433 1_556 S
C260 C256 1.350 . S
C260 C257 1.463 1_666 S
C260 N264 1.427 1_556 S
C261 H251 0.929 . S
C261 C259 1.433 1_554 S
C261 N264 1.384 . S
C262 H253 0.929 . S
C262 C254 1.378 . S
C262 C257 1.350 . S
C263 H250 0.929 . S
C263 C255 1.433 1_556 S
C263 N265 1.384 . S
N264 C260 1.427 1_554 S
N264 C261 1.384 . S
N265 C257 1.427 1_556 S
N265 C263 1.384 . S
H266 C272 0.930 . S
H267 C276 0.930 . S
H268 C281 0.929 . S
H269 C279 0.929 . S
H270 C274 0.929 . S
H271 C280 0.929 . S
C272 H266 0.930 . S
C272 C273 1.367 . S
C272 C280 1.378 . S
C273 C272 1.367 . S
C273 C281 1.433 . S
C274 H270 0.929 . S
C274 C276 1.378 . S
C274 C278 1.350 . S
C275 C278 1.463 . S
C275 C280 1.350 . S
C275 N283 1.427 . S
C276 H267 0.930 . S
C276 C274 1.378 . S
C276 C277 1.367 . S
C277 C276 1.367 . S
C277 C279 1.433 . S
C278 C274 1.350 . S
C278 C275 1.463 . S
C278 N282 1.427 . S
C279 H269 0.929 . S
C279 C277 1.433 . S
C279 N282 1.384 . S
C280 H271 0.929 . S
C280 C272 1.378 . S
C280 C275 1.350 . S
C281 H268 0.929 . S
C281 C273 1.433 . S
C281 N283 1.384 . S
N282 C278 1.427 . S
N282 C279 1.384 . S
N283 C275 1.427 . S
N283 C281 1.384 . S
H284 C290 0.930 . S
H285 C294 0.930 . S
H286 C299 0.929 . S
H287 C297 0.929 . S
H288 C292 0.929 . S
H289 C298 0.929 . S
C290 H284 0.930 . S
C290 C291 1.367 . S
C290 C298 1.378 . S
C291 C290 1.367 . S
C291 C299 1.433 1_554 S
C292 H288 0.929 . S
C292 C294 1.378 . S
C292 C296 1.350 . S
C293 C296 1.463 1_554 S
C293 C298 1.350 . S
C293 N301 1.427 1_554 S
C294 H285 0.930 . S
C294 C292 1.378 . S
C294 C295 1.367 . S
C295 C294 1.367 . S
C295 C297 1.433 1_556 S
C296 C292 1.350 . S
C296 C293 1.463 1_556 S
C296 N300 1.427 1_556 S
C297 H287 0.929 . S
C297 C295 1.433 1_554 S
C297 N300 1.384 . S
C298 H289 0.929 . S
C298 C290 1.378 . S
C298 C293 1.350 . S
C299 H286 0.929 . S
C299 C291 1.433 1_556 S
C299 N301 1.384 . S
N300 C296 1.427 1_554 S
N300 C297 1.384 . S
N301 C293 1.427 1_556 S
N301 C299 1.384 . S
H302 C308 0.930 . S
H303 C312 0.930 . S
H304 C317 0.929 . S
H305 C315 0.929 . S
H306 C310 0.929 . S
H307 C316 0.929 . S
C308 H302 0.930 . S
C308 C309 1.367 . S
C308 C316 1.378 . S
C309 C308 1.367 . S
C309 C317 1.433 . S
C310 H306 0.929 . S
C310 C312 1.378 . S
C310 C314 1.350 . S
C311 C314 1.463 1_645 S
C311 C316 1.350 . S
C311 N319 1.427 . S
C312 H303 0.930 . S
C312 C310 1.378 . S
C312 C313 1.367 . S
C313 C312 1.367 . S
C313 C315 1.433 . S
C314 C310 1.350 . S
C314 C311 1.463 1_465 S
C314 N318 1.427 . S
C315 H305 0.929 . S
C315 C313 1.433 . S
C315 N318 1.384 . S
C316 H307 0.929 . S
C316 C308 1.378 . S
C316 C311 1.350 . S
C317 H304 0.929 . S
C317 C309 1.433 . S
C317 N319 1.384 . S
N318 C314 1.427 . S
N318 C315 1.384 . S
N319 C311 1.427 . S
N319 C317 1.384 . S
H320 C326 0.930 . S
H321 C330 0.930 . S
H322 C335 0.929 . S
H323 C333 0.929 . S
H324 C328 0.929 . S
H325 C334 0.929 . S
C326 H320 0.930 . S
C326 C327 1.367 . S
C326 C334 1.378 . S
C327 C326 1.367 . S
C327 C335 1.433 . S
C328 H324 0.929 . S
C328 C330 1.378 . S
C328 C332 1.350 1_545 S
C329 C332 1.463 . S
C329 C334 1.350 . S
C329 N337 1.427 . S
C330 H321 0.930 . S
C330 C328 1.378 . S
C330 C331 1.367 . S
C331 C330 1.367 . S
C331 C333 1.433 . S
C332 C328 1.350 1_565 S
C332 C329 1.463 . S
C332 N336 1.427 . S
C333 H323 0.929 . S
C333 C331 1.433 . S
C333 N336 1.384 1_545 S
C334 H325 0.929 . S
C334 C326 1.378 . S
C334 C329 1.350 . S
C335 H322 0.929 . S
C335 C327 1.433 . S
C335 N337 1.384 . S
N336 C332 1.427 . S
N336 C333 1.384 1_565 S
N337 C329 1.427 . S
N337 C335 1.384 . S
H338 C344 0.930 . S
H339 C348 0.930 . S
H340 C353 0.929 . S
H341 C351 0.929 . S
H342 C346 0.929 . S
H343 C352 0.929 . S
C344 H338 0.930 . S
C344 C345 1.367 . S
C344 C352 1.378 . S
C345 C344 1.367 . S
C345 C353 1.433 . S
C346 H342 0.929 . S
C346 C348 1.378 . S
C346 C350 1.350 . S
C347 C350 1.463 . S
C347 C352 1.350 . S
C347 N355 1.427 . S
C348 H339 0.930 . S
C348 C346 1.378 . S
C348 C349 1.367 . S
C349 C348 1.367 . S
C349 C351 1.433 . S
C350 C346 1.350 . S
C350 C347 1.463 . S
C350 N354 1.427 . S
C351 H341 0.929 . S
C351 C349 1.433 . S
C351 N354 1.384 . S
C352 H343 0.929 . S
C352 C344 1.378 . S
C352 C347 1.350 . S
C353 H340 0.929 . S
C353 C345 1.433 . S
C353 N355 1.384 . S
N354 C350 1.427 . S
N354 C351 1.384 . S
N355 C347 1.427 . S
N355 C353 1.384 . S
H356 C362 0.930 . S
H357 C366 0.930 . S
H358 C371 0.929 . S
H359 C369 0.929 . S
H360 C364 0.929 . S
H361 C370 0.929 . S
C362 H356 0.930 . S
C362 C363 1.367 . S
C362 C370 1.378 . S
C363 C362 1.367 . S
C363 C371 1.433 . S
C364 H360 0.929 . S
C364 C366 1.378 . S
C364 C368 1.350 . S
C365 C368 1.463 . S
C365 C370 1.350 . S
C365 N373 1.427 . S
C366 H357 0.930 . S
C366 C364 1.378 . S
C366 C367 1.367 . S
C367 C366 1.367 . S
C367 C369 1.433 . S
C368 C364 1.350 . S
C368 C365 1.463 . S
C368 N372 1.427 . S
C369 H359 0.929 . S
C369 C367 1.433 . S
C369 N372 1.384 . S
C370 H361 0.929 . S
C370 C362 1.378 . S
C370 C365 1.350 . S
C371 H358 0.929 . S
C371 C363 1.433 . S
C371 N373 1.384 . S
N372 C368 1.427 . S
N372 C369 1.384 . S
N373 C365 1.427 . S
N373 C371 1.384 . S
H374 C380 0.930 . S
H375 C384 0.930 . S
H376 C389 0.929 . S
H377 C387 0.929 . S
H378 C382 0.929 . S
H379 C388 0.929 1_565 S
C380 H374 0.930 . S
C380 C381 1.367 . S
C380 C388 1.378 . S
C381 C380 1.367 . S
C381 C389 1.433 . S
C382 H378 0.929 . S
C382 C384 1.378 . S
C382 C386 1.350 . S
C383 C386 1.463 . S
C383 C388 1.350 1_565 S
C383 N391 1.427 1_565 S
C384 H375 0.930 . S
C384 C382 1.378 . S
C384 C385 1.367 . S
C385 C384 1.367 . S
C385 C387 1.433 . S
C386 C382 1.350 . S
C386 C383 1.463 . S
C386 N390 1.427 . S
C387 H377 0.929 . S
C387 C385 1.433 . S
C387 N390 1.384 . S
C388 H379 0.929 1_545 S
C388 C380 1.378 . S
C388 C383 1.350 1_545 S
C389 H376 0.929 . S
C389 C381 1.433 . S
C389 N391 1.384 . S
N390 C386 1.427 . S
N390 C387 1.384 . S
N391 C383 1.427 1_545 S
N391 C389 1.384 . S
H392 C398 0.930 . S
H393 C402 0.930 . S
H394 C407 0.929 . S
H395 C405 0.929 . S
H396 C400 0.929 1_545 S
H397 C406 0.929 . S
C398 H392 0.930 . S
C398 C399 1.367 . S
C398 C406 1.378 . S
C399 C398 1.367 . S
C399 C407 1.433 . S
C400 H396 0.929 1_565 S
C400 C402 1.378 . S
C400 C404 1.350 1_565 S
C401 C404 1.463 . S
C401 C406 1.350 . S
C401 N409 1.427 . S
C402 H393 0.930 . S
C402 C400 1.378 . S
C402 C403 1.367 . S
C403 C402 1.367 . S
C403 C405 1.433 . S
C404 C400 1.350 1_545 S
C404 C401 1.463 . S
C404 N408 1.427 1_545 S
C405 H395 0.929 . S
C405 C403 1.433 . S
C405 N408 1.384 . S
C406 H397 0.929 . S
C406 C398 1.378 . S
C406 C401 1.350 . S
C407 H394 0.929 . S
C407 C399 1.433 . S
C407 N409 1.384 . S
N408 C404 1.427 1_565 S
N408 C405 1.384 . S
N409 C401 1.427 . S
N409 C407 1.384 . S
H410 C416 0.930 . S
H411 C420 0.930 . S
H412 C425 0.929 . S
H413 C423 0.929 . S
H414 C418 0.929 . S
H415 C424 0.929 . S
C416 H410 0.930 . S
C416 C417 1.367 . S
C416 C424 1.378 . S
C417 C416 1.367 . S
C417 C425 1.433 . S
C418 H414 0.929 . S
C418 C420 1.378 . S
C418 C422 1.350 . S
C419 C422 1.463 . S
C419 C424 1.350 . S
C419 N427 1.427 . S
C420 H411 0.930 . S
C420 C418 1.378 . S
C420 C421 1.367 . S
C421 C420 1.367 . S
C421 C423 1.433 . S
C422 C418 1.350 . S
C422 C419 1.463 . S
C422 N426 1.427 . S
C423 H413 0.929 . S
C423 C421 1.433 . S
C423 N426 1.384 . S
C424 H415 0.929 . S
C424 C416 1.378 . S
C424 C419 1.350 . S
C425 H412 0.929 . S
C425 C417 1.433 . S
C425 N427 1.384 . S
N426 C422 1.427 . S
N426 C423 1.384 . S
N427 C419 1.427 . S
N427 C425 1.384 . S
H428 C434 0.930 . S
H429 C438 0.930 . S
H430 C443 0.929 . S
H431 C441 0.929 . S
H432 C436 0.929 . S
H433 C442 0.929 . S
C434 H428 0.930 . S
C434 C435 1.367 . S
C434 C442 1.378 . S
C435 C434 1.367 . S
C435 C443 1.433 . S
C436 H432 0.929 . S
C436 C438 1.378 . S
C436 C440 1.350 . S
C437 C440 1.463 . S
C437 C442 1.350 . S
C437 N445 1.427 . S
C438 H429 0.930 . S
C438 C436 1.378 . S
C438 C439 1.367 . S
C439 C438 1.367 . S
C439 C441 1.433 . S
C440 C436 1.350 . S
C440 C437 1.463 . S
C440 N444 1.427 . S
C441 H431 0.929 . S
C441 C439 1.433 . S
C441 N444 1.384 . S
C442 H433 0.929 . S
C442 C434 1.378 . S
C442 C437 1.350 . S
C443 H430 0.929 . S
C443 C435 1.433 . S
C443 N445 1.384 . S
N444 C440 1.427 . S
N444 C441 1.384 . S
N445 C437 1.427 . S
N445 C443 1.384 . S
H446 C452 0.930 . S
H447 C456 0.930 . S
H448 C461 0.929 . S
H449 C459 0.929 . S
H450 C454 0.929 . S
H451 C460 0.929 . S
C452 H446 0.930 . S
C452 C453 1.367 . S
C452 C460 1.378 1_565 S
C453 C452 1.367 . S
C453 C461 1.433 . S
C454 H450 0.929 . S
C454 C456 1.378 . S
C454 C458 1.350 . S
C455 C458 1.463 . S
C455 C460 1.350 . S
C455 N463 1.427 1_545 S
C456 H447 0.930 . S
C456 C454 1.378 . S
C456 C457 1.367 . S
C457 C456 1.367 . S
C457 C459 1.433 . S
C458 C454 1.350 . S
C458 C455 1.463 . S
C458 N462 1.427 . S
C459 H449 0.929 . S
C459 C457 1.433 . S
C459 N462 1.384 . S
C460 H451 0.929 . S
C460 C452 1.378 1_545 S
C460 C455 1.350 . S
C461 H448 0.929 . S
C461 C453 1.433 . S
C461 N463 1.384 . S
N462 C458 1.427 . S
N462 C459 1.384 . S
N463 C455 1.427 1_565 S
N463 C461 1.384 . S
H464 C470 0.930 . S
H465 C474 0.930 . S
H466 C479 0.929 . S
H467 C477 0.929 . S
H468 C472 0.929 . S
H469 C478 0.929 . S
C470 H464 0.930 . S
C470 C471 1.367 . S
C470 C478 1.378 . S
C471 C470 1.367 . S
C471 C479 1.433 . S
C472 H468 0.929 . S
C472 C474 1.378 . S
C472 C476 1.350 . S
C473 C476 1.463 . S
C473 C478 1.350 . S
C473 N481 1.427 . S
C474 H465 0.930 . S
C474 C472 1.378 . S
C474 C475 1.367 . S
C475 C474 1.367 . S
C475 C477 1.433 . S
C476 C472 1.350 . S
C476 C473 1.463 . S
C476 N480 1.427 . S
C477 H467 0.929 . S
C477 C475 1.433 . S
C477 N480 1.384 . S
C478 H469 0.929 . S
C478 C470 1.378 . S
C478 C473 1.350 . S
C479 H466 0.929 . S
C479 C471 1.433 . S
C479 N481 1.384 . S
N480 C476 1.427 . S
N480 C477 1.384 . S
N481 C473 1.427 . S
N481 C479 1.384 . S
H482 C488 0.930 . S
H483 C492 0.930 . S
H484 C497 0.929 . S
H485 C495 0.929 . S
H486 C490 0.929 . S
H487 C496 0.929 . S
C488 H482 0.930 . S
C488 C489 1.367 . S
C488 C496 1.378 . S
C489 C488 1.367 . S
C489 C497 1.433 . S
C490 H486 0.929 . S
C490 C492 1.378 . S
C490 C494 1.350 . S
C491 C494 1.463 . S
C491 C496 1.350 . S
C491 N499 1.427 . S
C492 H483 0.930 . S
C492 C490 1.378 . S
C492 C493 1.367 . S
C493 C492 1.367 . S
C493 C495 1.433 . S
C494 C490 1.350 . S
C494 C491 1.463 . S
C494 N498 1.427 . S
C495 H485 0.929 . S
C495 C493 1.433 . S
C495 N498 1.384 . S
C496 H487 0.929 . S
C496 C488 1.378 . S
C496 C491 1.350 . S
C497 H484 0.929 . S
C497 C489 1.433 . S
C497 N499 1.384 . S
N498 C494 1.427 . S
N498 C495 1.384 . S
N499 C491 1.427 . S
N499 C497 1.384 . S
H500 C506 0.930 . S
H501 C510 0.930 . S
H502 C515 0.929 . S
H503 C513 0.929 . S
H504 C508 0.929 . S
H505 C514 0.929 . S
C506 H500 0.930 . S
C506 C507 1.367 . S
C506 C514 1.378 . S
C507 C506 1.367 . S
C507 C515 1.433 . S
C508 H504 0.929 . S
C508 C510 1.378 . S
C508 C512 1.350 . S
C509 C512 1.463 . S
C509 C514 1.350 . S
C509 N517 1.427 . S
C510 H501 0.930 . S
C510 C508 1.378 . S
C510 C511 1.367 . S
C511 C510 1.367 . S
C511 C513 1.433 . S
C512 C508 1.350 . S
C512 C509 1.463 . S
C512 N516 1.427 . S
C513 H503 0.929 . S
C513 C511 1.433 . S
C513 N516 1.384 . S
C514 H505 0.929 . S
C514 C506 1.378 . S
C514 C509 1.350 . S
C515 H502 0.929 . S
C515 C507 1.433 . S
C515 N517 1.384 . S
N516 C512 1.427 . S
N516 C513 1.384 . S
N517 C509 1.427 . S
N517 C515 1.384 . S
H518 C524 0.930 . S
H519 C528 0.930 . S
H520 C533 0.929 . S
H521 C531 0.929 . S
H522 C526 0.929 . S
H523 C532 0.929 . S
C524 H518 0.930 . S
C524 C525 1.367 . S
C524 C532 1.378 . S
C525 C524 1.367 . S
C525 C533 1.433 . S
C526 H522 0.929 . S
C526 C528 1.378 . S
C526 C530 1.350 . S
C527 C530 1.463 . S
C527 C532 1.350 . S
C527 N535 1.427 . S
C528 H519 0.930 . S
C528 C526 1.378 . S
C528 C529 1.367 . S
C529 C528 1.367 . S
C529 C531 1.433 . S
C530 C526 1.350 . S
C530 C527 1.463 . S
C530 N534 1.427 . S
C531 H521 0.929 . S
C531 C529 1.433 . S
C531 N534 1.384 . S
C532 H523 0.929 . S
C532 C524 1.378 . S
C532 C527 1.350 . S
C533 H520 0.929 . S
C533 C525 1.433 . S
C533 N535 1.384 . S
N534 C530 1.427 . S
N534 C531 1.384 . S
N535 C527 1.427 . S
N535 C533 1.384 . S
H536 C542 0.930 . S
H537 C546 0.930 . S
H538 C551 0.929 . S
H539 C549 0.929 . S
H540 C544 0.929 . S
H541 C550 0.929 . S
C542 H536 0.930 . S
C542 C543 1.367 . S
C542 C550 1.378 . S
C543 C542 1.367 . S
C543 C551 1.433 . S
C544 H540 0.929 . S
C544 C546 1.378 . S
C544 C548 1.350 . S
C545 C548 1.463 . S
C545 C550 1.350 . S
C545 N553 1.427 . S
C546 H537 0.930 . S
C546 C544 1.378 . S
C546 C547 1.367 . S
C547 C546 1.367 . S
C547 C549 1.433 . S
C548 C544 1.350 . S
C548 C545 1.463 . S
C548 N552 1.427 . S
C549 H539 0.929 . S
C549 C547 1.433 . S
C549 N552 1.384 . S
C550 H541 0.929 . S
C550 C542 1.378 . S
C550 C545 1.350 . S
C551 H538 0.929 . S
C551 C543 1.433 . S
C551 N553 1.384 . S
N552 C548 1.427 . S
N552 C549 1.384 . S
N553 C545 1.427 . S
N553 C551 1.384 . S
H554 C560 0.930 . S
H555 C564 0.930 . S
H556 C569 0.929 . S
H557 C567 0.929 . S
H558 C562 0.929 . S
H559 C568 0.929 . S
C560 H554 0.930 . S
C560 C561 1.367 . S
C560 C568 1.378 . S
C561 C560 1.367 . S
C561 C569 1.433 . S
C562 H558 0.929 . S
C562 C564 1.378 . S
C562 C566 1.350 . S
C563 C566 1.463 . S
C563 C568 1.350 . S
C563 N571 1.427 . S
C564 H555 0.930 . S
C564 C562 1.378 . S
C564 C565 1.367 . S
C565 C564 1.367 . S
C565 C567 1.433 . S
C566 C562 1.350 . S
C566 C563 1.463 . S
C566 N570 1.427 . S
C567 H557 0.929 . S
C567 C565 1.433 . S
C567 N570 1.384 . S
C568 H559 0.929 . S
C568 C560 1.378 . S
C568 C563 1.350 . S
C569 H556 0.929 . S
C569 C561 1.433 . S
C569 N571 1.384 . S
N570 C566 1.427 . S
N570 C567 1.384 . S
N571 C563 1.427 . S
N571 C569 1.384 . S
H572 C578 0.930 . S
H573 C582 0.930 . S
H574 C587 0.929 . S
H575 C585 0.929 . S
H576 C580 0.929 . S
H577 C586 0.929 . S
C578 H572 0.930 . S
C578 C579 1.367 . S
C578 C586 1.378 . S
C579 C578 1.367 . S
C579 C587 1.433 . S
C580 H576 0.929 . S
C580 C582 1.378 . S
C580 C584 1.350 . S
C581 C584 1.463 . S
C581 C586 1.350 . S
C581 N589 1.427 . S
C582 H573 0.930 . S
C582 C580 1.378 . S
C582 C583 1.367 . S
C583 C582 1.367 . S
C583 C585 1.433 . S
C584 C580 1.350 . S
C584 C581 1.463 . S
C584 N588 1.427 . S
C585 H575 0.929 . S
C585 C583 1.433 . S
C585 N588 1.384 . S
C586 H577 0.929 . S
C586 C578 1.378 . S
C586 C581 1.350 . S
C587 H574 0.929 . S
C587 C579 1.433 . S
C587 N589 1.384 . S
N588 C584 1.427 . S
N588 C585 1.384 . S
N589 C581 1.427 . S
N589 C587 1.384 . S
H590 C596 0.930 . S
H591 C600 0.930 . S
H592 C605 0.929 . S
H593 C603 0.929 . S
H594 C598 0.929 . S
H595 C604 0.929 . S
C596 H590 0.930 . S
C596 C597 1.367 . S
C596 C604 1.378 . S
C597 C596 1.367 . S
C597 C605 1.433 . S
C598 H594 0.929 . S
C598 C600 1.378 . S
C598 C602 1.350 . S
C599 C602 1.463 . S
C599 C604 1.350 . S
C599 N607 1.427 . S
C600 H591 0.930 . S
C600 C598 1.378 . S
C600 C601 1.367 . S
C601 C600 1.367 . S
C601 C603 1.433 . S
C602 C598 1.350 . S
C602 C599 1.463 . S
C602 N606 1.427 . S
C603 H593 0.929 . S
C603 C601 1.433 . S
C603 N606 1.384 . S
C604 H595 0.929 . S
C604 C596 1.378 . S
C604 C599 1.350 . S
C605 H592 0.929 . S
C605 C597 1.433 . S
C605 N607 1.384 . S
N606 C602 1.427 . S
N606 C603 1.384 . S
N607 C599 1.427 . S
N607 C605 1.384 . S
C183 C21 0.919 . S
C187 C87 0.930 . S
C201 C43 0.925 . S
C205 C65 0.925 . S
C219 C103 0.894 . S
C223 C175 0.913 . S
C237 C125 0.894 . S
C241 C139 0.913 . S
C255 C8 1.938 . S
C259 C98 1.945 . S
C273 C120 1.945 . S
C277 C30 1.938 . S
C291 C150 1.945 . S
C295 C52 1.939 . S
C309 C74 1.943 . S
C313 C162 1.949 . S
C327 C147 0.909 . S
C331 C18 0.920 . S
C345 C161 0.901 . S
C349 C40 0.919 . S
C363 C62 0.918 . S
C367 C109 0.911 . S
C381 C84 0.920 . S
C385 C131 0.913 . S
C399 C59 0.905 . S
C403 C106 0.915 . S
C417 C128 0.919 . S
C421 C81 0.910 . S
C435 C15 0.908 . S
C439 C140 0.915 . S
C453 C164 0.917 . S
C457 C37 0.915 . S
C471 C10 1.566 . S
C475 C29 1.556 . S
C489 C7 1.557 . S
C493 C32 1.551 . S
C507 C73 1.555 . S
C511 C54 1.567 . S
C525 C76 1.552 . S
C529 C51 1.557 . S
C543 C96 1.569 . S
C547 C117 1.564 . S
C561 C95 1.564 . S
C565 C118 1.561 . S
C579 C169 1.562 . S
C583 C142 1.567 . S
C597 C172 1.559 . S
C601 C153 1.565 . S
