# Generated by pormake.
# Topology npo, (4)-cn, num edge types: 1
# Building blocks:
#     Node 0, Type 0, BuildingBlock: ICAMEG_clean_sbu_1, # of connection points: 4
#     Node 1, Type 0, BuildingBlock: ICAMEG_clean_sbu_1, # of connection points: 4
#     Node 2, Type 0, BuildingBlock: ICAMEG_clean_sbu_1, # of connection points: 4
#     Node 3, Type 0, BuildingBlock: ICAMEG_clean_sbu_1, # of connection points: 4
#     Node 4, Type 0, BuildingBlock: ICAMEG_clean_sbu_1, # of connection points: 4
#     Node 5, Type 0, BuildingBlock: ICAMEG_clean_sbu_1, # of connection points: 4
#     Edge 6, Type (0, 0), BuildingBlock: CIFDUS_clean_linker_0, # of connection points: 2
#     Edge 7, Type (0, 0), BuildingBlock: CIFDUS_clean_linker_0, # of connection points: 2
#     Edge 8, Type (0, 0), BuildingBlock: CIFDUS_clean_linker_0, # of connection points: 2
#     Edge 9, Type (0, 0), BuildingBlock: CIFDUS_clean_linker_0, # of connection points: 2
#     Edge 10, Type (0, 0), BuildingBlock: CIFDUS_clean_linker_0, # of connection points: 2
#     Edge 11, Type (0, 0), BuildingBlock: CIFDUS_clean_linker_0, # of connection points: 2
#     Edge 12, Type (0, 0), BuildingBlock: CIFDUS_clean_linker_0, # of connection points: 2
#     Edge 13, Type (0, 0), BuildingBlock: CIFDUS_clean_linker_0, # of connection points: 2
#     Edge 14, Type (0, 0), BuildingBlock: CIFDUS_clean_linker_0, # of connection points: 2
#     Edge 15, Type (0, 0), BuildingBlock: CIFDUS_clean_linker_0, # of connection points: 2
#     Edge 16, Type (0, 0), BuildingBlock: CIFDUS_clean_linker_0, # of connection points: 2
#     Edge 17, Type (0, 0), BuildingBlock: CIFDUS_clean_linker_0, # of connection points: 2
# Relax obj value: 0.240
# Max RMSD: 0.245
# Mean RMSD: 0.245
data_MOF--net-npo--node1-ICAMEG_clean_sbu_1--edge1-CIFDUS_clean_linker_0
_symmetry_space_group_name_H-M    P1
_symmetry_Int_Tables_number       1
_symmetry_cell_setting            triclinic
loop_
_symmetry_equiv_pos_as_xyz
'x, y, z'
_cell_length_a     40.82082
_cell_length_b     40.839298
_cell_length_c     23.203228
_cell_angle_alpha  90.530684
_cell_angle_beta   90.178428
_cell_angle_gamma 120.03197
loop_
_atom_site_label
_atom_site_type_symbol
_atom_site_fract_x
_atom_site_fract_y
_atom_site_fract_z
_atom_type_partial_charge
Co0 Co 0.5685 0.13168 0.16425 0.0
Co1 Co 0.55706 0.12851 0.31047 0.0
O2 O 0.54723 0.10272 0.23509 0.0
C3 C 0.48948 0.07024 0.13083 0.0
O4 O 0.47848 0.06627 0.18458 0.0
C5 C 0.57765 0.08122 0.38285 0.0
O6 O 0.6116 0.11052 0.39112 0.0
O7 O 0.61245 0.1516 0.29792 0.0
O8 O 0.61545 0.16954 0.20638 0.0
H9 H 0.62594 0.2398 0.44537 0.0
H10 H 0.54288 0.04974 0.16661 0.0
O11 O 0.52309 0.09491 0.11739 0.0
H12 H 0.67669 0.11189 0.10887 0.0
H13 H 0.59776 0.1486 0.9521 0.0
H14 H 0.60846 0.21343 0.13746 0.0
H15 H 0.64591 0.14956 0.1282 0.0
H16 H 0.57228 0.11197 0.04089 0.0
O17 O 0.55461 0.08314 0.34765 0.0
H18 H 0.61098 0.20616 0.35185 0.0
H19 H 0.5248 0.10657 0.42931 0.0
H20 H 0.63465 0.25115 0.04978 0.0
H21 H 0.57241 0.01091 0.14701 0.0
H22 H 0.62938 0.21872 0.95623 0.0
H23 H 0.63982 0.04199 0.11796 0.0
O24 O 0.5439 0.16216 0.18184 0.0
H25 H 0.42263 0.02103 0.31363 0.0
H26 H 0.50605 0.15794 0.34641 0.0
H27 H 0.43738 0.12964 0.35997 0.0
H28 H 0.39512 0.06062 0.34389 0.0
H29 H 0.49142 0.05067 0.29929 0.0
H30 H 0.53898 0.13893 0.5238 0.0
H31 H 0.58991 0.20614 0.53232 0.0
O32 O 0.55832 0.17379 0.27579 0.0
C33 C 0.631 0.17139 0.25497 0.0
C34 C 0.60383 0.21045 0.44232 0.0
C35 C 0.55508 0.15385 0.48633 0.0
N36 N 0.56746 0.1541 0.38513 0.0
C37 C 0.59528 0.19119 0.38945 0.0
C38 C 0.54732 0.13553 0.43273 0.0
C39 C 0.5836 0.19156 0.49106 0.0
C40 C 0.57212 0.06346 0.15353 0.0
N41 N 0.59251 0.10187 0.14809 0.0
C42 C 0.58874 0.04133 0.1427 0.0
C43 C 0.62657 0.05879 0.12647 0.0
C44 C 0.64728 0.098 0.12139 0.0
C45 C 0.62971 0.11921 0.13255 0.0
C46 C 0.60028 0.16306 0.99262 0.0
C47 C 0.60621 0.1991 0.09699 0.0
C48 C 0.58581 0.14246 0.04304 0.0
N49 N 0.58907 0.16054 0.09445 0.0
C50 C 0.62103 0.22061 0.04745 0.0
C51 C 0.61803 0.2024 0.99497 0.0
C52 C 0.54711 0.18054 0.22836 0.0
C53 C 0.44074 0.05114 0.32077 0.0
C54 C 0.48789 0.12804 0.33835 0.0
C55 C 0.44899 0.11209 0.34657 0.0
C56 C 0.42531 0.07337 0.33766 0.0
N57 N 0.50285 0.10609 0.32166 0.0
C58 C 0.47977 0.06808 0.31294 0.0
Co59 Co 0.44499 0.57605 0.68167 0.0
Co60 Co 0.42343 0.55644 0.82698 0.0
O61 O 0.44881 0.55405 0.7557 0.0
C62 C 0.4359 0.49992 0.64558 0.0
O63 O 0.43284 0.48853 0.69898 0.0
C64 C 0.50108 0.57312 0.8723 0.0
O65 O 0.51465 0.57292 0.82117 0.0
O66 O 0.44465 0.61205 0.81872 0.0
O67 O 0.44973 0.62094 0.72329 0.0
H68 H 0.34405 0.59477 0.94309 0.0
H69 H 0.50251 0.55223 0.69649 0.0
O70 O 0.44023 0.5323 0.6345 0.0
H71 H 0.57505 0.68771 0.64987 0.0
H72 H 0.47285 0.61109 0.47253 0.0
H73 H 0.40444 0.61564 0.64444 0.0
H74 H 0.50554 0.65488 0.65605 0.0
H75 H 0.47784 0.58369 0.56407 0.0
O76 O 0.46754 0.56714 0.87793 0.0
H77 H 0.37677 0.59117 0.85623 0.0
H78 H 0.41568 0.52699 0.94681 0.0
H79 H 0.39906 0.64378 0.5539 0.0
H80 H 0.57189 0.58375 0.68986 0.0
H81 H 0.43339 0.64157 0.46708 0.0
H82 H 0.60873 0.65205 0.66653 0.0
O83 O 0.38851 0.55031 0.68675 0.0
H84 H 0.42934 0.43627 0.83189 0.0
H85 H 0.34656 0.49138 0.8509 0.0
H86 H 0.31945 0.42265 0.86121 0.0
H87 H 0.36099 0.39463 0.85205 0.0
H88 H 0.45504 0.50467 0.82079 0.0
H89 H 0.38375 0.53033 0.03481 0.0
H90 H 0.34744 0.56423 0.03325 0.0
O91 O 0.37805 0.5463 0.78176 0.0
C92 C 0.45107 0.63275 0.7746 0.0
C93 C 0.3597 0.57983 0.94428 0.0
C94 C 0.38202 0.5437 0.99577 0.0
N95 N 0.39793 0.55869 0.89622 0.0
C96 C 0.37821 0.5776 0.89517 0.0
C97 C 0.40014 0.54201 0.94581 0.0
C98 C 0.36164 0.56272 0.99486 0.0
C99 C 0.51816 0.58177 0.68558 0.0
N100 N 0.49979 0.6015 0.67611 0.0
C101 C 0.55754 0.59957 0.68223 0.0
C102 C 0.5782 0.63789 0.66925 0.0
C103 C 0.55933 0.65791 0.65996 0.0
C104 C 0.51992 0.63918 0.66372 0.0
C105 C 0.45779 0.61226 0.51008 0.0
C106 C 0.41965 0.61474 0.60696 0.0
C107 C 0.46039 0.59667 0.56203 0.0
N108 N 0.44156 0.59817 0.60973 0.0
C109 C 0.41641 0.63065 0.55576 0.0
C110 C 0.43565 0.62937 0.50705 0.0
C111 C 0.36671 0.54309 0.7299 0.0
C112 C 0.41097 0.44815 0.83627 0.0
C113 C 0.3648 0.47946 0.84635 0.0
C114 C 0.34929 0.44049 0.85251 0.0
C115 C 0.37261 0.42479 0.84744 0.0
N116 N 0.40251 0.50227 0.83568 0.0
C117 C 0.42546 0.487 0.83042 0.0
Co118 Co 0.86669 0.41965 0.35071 0.0
Co119 Co 0.87443 0.4386 0.20627 0.0
O120 O 0.8977 0.44408 0.28278 0.0
C121 C 0.92482 0.49755 0.39617 0.0
O122 O 0.92844 0.51321 0.34573 0.0
C123 C 0.9219 0.4191 0.13183 0.0
O124 O 0.89191 0.38629 0.11957 0.0
O125 O 0.84861 0.38229 0.21146 0.0
O126 O 0.83004 0.37527 0.30332 0.0
H127 H 0.76712 0.38138 0.0627 0.0
H128 H 0.9486 0.4455 0.3522 0.0
O129 O 0.90211 0.46236 0.40273 0.0
H130 H 0.88523 0.30901 0.39241 0.0
H131 H 0.8435 0.37889 0.55807 0.0
H132 H 0.78418 0.37909 0.37272 0.0
H133 H 0.84793 0.34057 0.37711 0.0
H134 H 0.88273 0.40888 0.47283 0.0
O135 O 0.92011 0.44096 0.16979 0.0
H136 H 0.7974 0.38989 0.15791 0.0
H137 H 0.90163 0.47635 0.09208 0.0
H138 H 0.74389 0.34843 0.45672 0.0
H139 H 0.98709 0.41521 0.36797 0.0
H140 H 0.77353 0.34821 0.55027 0.0
H141 H 0.95538 0.34645 0.38815 0.0
O142 O 0.83663 0.44514 0.33625 0.0
H143 H 0.98507 0.57096 0.22249 0.0
H144 H 0.84902 0.49364 0.17655 0.0
H145 H 0.88002 0.56308 0.17235 0.0
H146 H 0.94861 0.60227 0.19511 0.0
H147 H 0.95277 0.5014 0.22722 0.0
H148 H 0.87266 0.46861 0.99601 0.0
H149 H 0.80484 0.42082 0.98079 0.0
O150 O 0.82908 0.43741 0.24044 0.0
C151 C 0.828 0.36206 0.25269 0.0
C152 C 0.79676 0.40214 0.06866 0.0
C153 C 0.85598 0.45106 0.03123 0.0
N154 N 0.85154 0.43311 0.13046 0.0
C155 C 0.81412 0.40702 0.12249 0.0
C156 C 0.87235 0.45516 0.08569 0.0
C157 C 0.81792 0.42428 0.02275 0.0
C158 C 0.93461 0.41562 0.36129 0.0
N159 N 0.89604 0.39487 0.36389 0.0
C160 C 0.95655 0.3986 0.37003 0.0
C161 C 0.93874 0.36002 0.38129 0.0
C162 C 0.89938 0.33899 0.38363 0.0
C163 C 0.87838 0.35698 0.37468 0.0
C164 C 0.83025 0.37879 0.51754 0.0
C165 C 0.79732 0.37902 0.41319 0.0
C166 C 0.85233 0.39586 0.46916 0.0
N167 N 0.83579 0.39568 0.41773 0.0
C168 C 0.77434 0.36165 0.46065 0.0
C169 C 0.79099 0.36156 0.51313 0.0
C170 C 0.82018 0.44508 0.28926 0.0
C171 C 0.95519 0.55419 0.21235 0.0
C172 C 0.87874 0.51043 0.1872 0.0
C173 C 0.89621 0.54978 0.1844 0.0
C174 C 0.9347 0.57174 0.19709 0.0
N175 N 0.89902 0.49338 0.20213 0.0
C176 C 0.93676 0.51477 0.21472 0.0
Co177 Co 0.4331 0.87182 0.82959 0.0
Co178 Co 0.4397 0.87992 0.68255 0.0
O179 O 0.44958 0.90303 0.75998 0.0
C180 C 0.42029 0.93733 0.85494 0.0
O181 O 0.41935 0.94359 0.79984 0.0
C182 C 0.51504 0.92507 0.62645 0.0
O183 O 0.51741 0.89433 0.62026 0.0
O184 O 0.46629 0.85194 0.70432 0.0
O185 O 0.44262 0.83316 0.79249 0.0
H186 H 0.40297 0.77173 0.54352 0.0
H187 H 0.49371 0.9525 0.8365 0.0
O188 O 0.42361 0.90953 0.87166 0.0
H189 H 0.55054 0.8809 0.91715 0.0
H190 H 0.42293 0.84814 0.04341 0.0
H191 H 0.38535 0.78949 0.85 0.0
H192 H 0.48452 0.84778 0.88212 0.0
H193 H 0.4448 0.88742 0.95651 0.0
O194 O 0.48809 0.92424 0.65527 0.0
H195 H 0.41438 0.80243 0.63908 0.0
H196 H 0.44287 0.90686 0.56132 0.0
H197 H 0.36311 0.74917 0.93576 0.0
H198 H 0.55966 0.9868 0.87175 0.0
H199 H 0.38189 0.77847 0.03338 0.0
H200 H 0.58855 0.95097 0.91241 0.0
O201 O 0.37998 0.84439 0.79958 0.0
H202 H 0.42629 0.99545 0.66804 0.0
H203 H 0.36532 0.85875 0.62663 0.0
H204 H 0.33203 0.89303 0.60144 0.0
H205 H 0.36267 0.96202 0.62177 0.0
H206 H 0.45811 0.9598 0.69386 0.0
H207 H 0.43222 0.87755 0.4649 0.0
H208 H 0.41204 0.80938 0.45545 0.0
O209 O 0.39061 0.83602 0.70725 0.0
C210 C 0.45934 0.83063 0.74787 0.0
C211 C 0.41204 0.80153 0.54701 0.0
C212 C 0.4285 0.8609 0.5029 0.0
N213 N 0.43027 0.85679 0.606 0.0
C214 C 0.41869 0.81915 0.60107 0.0
C215 C 0.43486 0.87752 0.55769 0.0
C216 C 0.41711 0.82265 0.49763 0.0
C217 C 0.50587 0.93669 0.85463 0.0
N218 N 0.48503 0.89817 0.85783 0.0
C219 C 0.54333 0.95628 0.8743 0.0
C220 C 0.55955 0.93616 0.89703 0.0
C221 C 0.53824 0.89685 0.89968 0.0
C222 C 0.50086 0.87823 0.87964 0.0
C223 C 0.41454 0.83504 1.00112 0.0
C224 C 0.39374 0.80249 0.89227 0.0
C225 C 0.42671 0.85716 0.9517 0.0
N226 N 0.41637 0.8408 0.89809 0.0
C227 C 0.38102 0.77949 0.94071 0.0
C228 C 0.39154 0.79595 0.99546 0.0
C229 C 0.36875 0.82794 0.75043 0.0
C230 C 0.41261 0.96538 0.659 0.0
C231 C 0.37849 0.8885 0.63677 0.0
C232 C 0.35967 0.90789 0.62186 0.0
C233 C 0.3769 0.94661 0.63314 0.0
N234 N 0.41349 0.90705 0.66226 0.0
C235 C 0.43056 0.94503 0.67333 0.0
Co236 Co 0.55956 0.43107 0.17866 0.0
Co237 Co 0.57131 0.44643 0.32655 0.0
O238 O 0.55321 0.45362 0.25074 0.0
C239 C 0.5734 0.50838 0.13883 0.0
O240 O 0.5698 0.51964 0.19039 0.0
C241 C 0.49611 0.44182 0.35475 0.0
O242 O 0.48768 0.44257 0.30035 0.0
O243 O 0.54377 0.3902 0.31546 0.0
O244 O 0.54953 0.38497 0.22043 0.0
H245 H 0.62944 0.39219 0.45869 0.0
H246 H 0.50457 0.45905 0.18216 0.0
O247 O 0.5704 0.47611 0.1311 0.0
H248 H 0.42947 0.32476 0.12486 0.0
H249 H 0.54308 0.3976 0.96674 0.0
H250 H 0.59813 0.38774 0.15074 0.0
H251 H 0.49792 0.35411 0.14348 0.0
H252 H 0.53481 0.42602 0.0557 0.0
O253 O 0.52662 0.44257 0.36888 0.0
H254 H 0.60623 0.40176 0.36578 0.0
H255 H 0.57538 0.4762 0.44628 0.0
H256 H 0.60665 0.35853 0.0629 0.0
H257 H 0.43644 0.43112 0.16292 0.0
H258 H 0.57904 0.36337 0.97002 0.0
H259 H 0.39825 0.3634 0.13418 0.0
O260 O 0.61491 0.45371 0.19404 0.0
H261 H 0.58671 0.57672 0.32521 0.0
H262 H 0.64991 0.50307 0.3634 0.0
H263 H 0.68552 0.5723 0.37647 0.0
H264 H 0.65386 0.60964 0.35764 0.0
H265 H 0.55237 0.50759 0.3119 0.0
H266 H 0.59786 0.46704 0.54015 0.0
H267 H 0.62531 0.42492 0.54677 0.0
O268 O 0.61679 0.4498 0.29004 0.0
C269 C 0.5417 0.37095 0.27052 0.0
C270 C 0.61759 0.41065 0.45636 0.0
C271 C 0.59983 0.45262 0.50208 0.0
N272 N 0.58952 0.43958 0.40043 0.0
C273 C 0.60444 0.41624 0.40382 0.0
C274 C 0.587 0.45758 0.44879 0.0
C275 C 0.61524 0.42901 0.50576 0.0
C276 C 0.48849 0.42982 0.16886 0.0
N277 N 0.50556 0.40849 0.16339 0.0
C278 C 0.44974 0.41402 0.15839 0.0
C279 C 0.42831 0.37602 0.1424 0.0
C280 C 0.4458 0.35433 0.13723 0.0
C281 C 0.48461 0.3711 0.14808 0.0
C282 C 0.55522 0.39527 1.00696 0.0
C283 C 0.58585 0.38984 0.11058 0.0
C284 C 0.55074 0.41142 0.05749 0.0
N285 N 0.56581 0.40842 0.10855 0.0
C286 C 0.59085 0.3733 0.06093 0.0
C287 C 0.57538 0.37605 0.00883 0.0
C288 C 0.63208 0.45502 0.24082 0.0
C289 C 0.60076 0.56075 0.33391 0.0
C290 C 0.6359 0.51904 0.3549 0.0
C291 C 0.65623 0.55828 0.36252 0.0
C292 C 0.63845 0.57921 0.35198 0.0
N293 N 0.59881 0.50104 0.3376 0.0
C294 C 0.58132 0.52146 0.3268 0.0
Co295 Co 0.12917 0.56512 0.68478 0.0
Co296 Co 0.12561 0.56051 0.83166 0.0
O297 O 0.10049 0.5511 0.75655 0.0
C298 C 0.09491 0.60212 0.61729 0.0
O299 O 0.12912 0.63112 0.61056 0.0
C300 C 0.07873 0.48526 0.88728 0.0
O301 O 0.10819 0.48044 0.88902 0.0
O302 O 0.15081 0.53167 0.80629 0.0
O303 O 0.16819 0.55454 0.71736 0.0
H304 H 0.23673 0.59352 0.96191 0.0
H305 H 0.04732 0.50814 0.68218 0.0
O306 O 0.08988 0.57512 0.65014 0.0
H307 H 0.11087 0.44257 0.60128 0.0
H308 H 0.14456 0.56553 0.46891 0.0
H309 H 0.21025 0.61253 0.65587 0.0
H310 H 0.14799 0.50923 0.63284 0.0
H311 H 0.10868 0.54752 0.55952 0.0
O312 O 0.08066 0.51362 0.86152 0.0
H313 H 0.20357 0.583 0.86881 0.0
H314 H 0.10258 0.55876 0.95505 0.0
H315 H 0.24719 0.63122 0.56629 0.0
H316 H 0.00907 0.4416 0.65028 0.0
H317 H 0.21434 0.60771 0.47191 0.0
H318 H 0.04085 0.40834 0.60956 0.0
O319 O 0.15954 0.61868 0.71314 0.0
H320 H 0.01536 0.58244 0.84902 0.0
H321 H 0.15091 0.63477 0.89189 0.0
H322 H 0.12012 0.67123 0.91938 0.0
H323 H 0.05172 0.64495 0.89827 0.0
H324 H 0.04754 0.54728 0.82137 0.0
H325 H 0.13434 0.5685 0.04915 0.0
H326 H 0.20205 0.58614 0.05305 0.0
O327 O 0.16993 0.60832 0.80446 0.0
C328 C 0.1709 0.53753 0.7613 0.0
C329 C 0.20715 0.5856 0.96083 0.0
C330 C 0.1497 0.57149 0.00978 0.0
N331 N 0.15078 0.56938 0.90632 0.0
C332 C 0.18815 0.57949 0.90818 0.0
C333 C 0.13167 0.56561 0.95632 0.0
C334 C 0.18769 0.58145 0.01193 0.0
C335 C 0.06137 0.49398 0.66408 0.0
N336 N 0.09986 0.51272 0.65902 0.0
C337 C 0.03955 0.45624 0.64629 0.0
C338 C 0.0574 0.43759 0.62351 0.0
C339 C 0.09669 0.45676 0.61889 0.0
C340 C 0.11758 0.4945 0.63708 0.0
C341 C 0.15921 0.576 0.50975 0.0
C342 C 0.1957 0.60224 0.615 0.0
C343 C 0.13904 0.5659 0.56123 0.0
N344 N 0.1573 0.57911 0.61305 0.0
C345 C 0.21679 0.61288 0.5644 0.0
C346 C 0.19835 0.59966 0.51147 0.0
C347 C 0.17725 0.62999 0.76135 0.0
C348 C 0.04518 0.59421 0.85844 0.0
C349 C 0.12139 0.62343 0.88172 0.0
C350 C 0.10397 0.64407 0.8978 0.0
C351 C 0.0656 0.62929 0.88602 0.0
N352 N 0.10121 0.58899 0.85481 0.0
C353 C 0.06357 0.5744 0.84298 0.0
H354 H 0.54746 0.22303 0.32001 0.0
H355 H 0.53042 0.21064 0.13533 0.0
H356 H 0.5225 0.26604 0.13402 0.0
H357 H 0.52535 0.32013 0.18369 0.0
H358 H 0.54338 0.33373 0.36795 0.0
H359 H 0.54473 0.2745 0.37111 0.0
C360 C 0.54151 0.232 0.27941 0.0
C361 C 0.53971 0.2126 0.2277 0.0
C362 C 0.53696 0.26386 0.27896 0.0
C363 C 0.53206 0.22493 0.1757 0.0
C364 C 0.5275 0.25662 0.17493 0.0
C365 C 0.52894 0.31002 0.2249 0.0
C366 C 0.53462 0.33173 0.27551 0.0
C367 C 0.53051 0.27657 0.22614 0.0
C368 C 0.53895 0.31774 0.32836 0.0
C369 C 0.54005 0.28403 0.33007 0.0
H370 H 0.31109 0.5174 0.80987 0.0
H371 H 0.33309 0.55014 0.63143 0.0
H372 H 0.27186 0.54722 0.62416 0.0
H373 H 0.21614 0.5427 0.67166 0.0
H374 H 0.19573 0.5121 0.85119 0.0
H375 H 0.25258 0.50661 0.85451 0.0
C376 C 0.30242 0.5233 0.76892 0.0
C377 C 0.32705 0.53437 0.72136 0.0
C378 C 0.26767 0.52233 0.76545 0.0
C379 C 0.31488 0.54159 0.66873 0.0
C380 C 0.27995 0.54016 0.66469 0.0
C381 C 0.2237 0.5343 0.71145 0.0
C382 C 0.2018 0.52834 0.76141 0.0
C383 C 0.25671 0.53171 0.71329 0.0
C384 C 0.21203 0.51709 0.81222 0.0
C385 C 0.24464 0.51406 0.81419 0.0
H386 H 0.68105 0.21408 0.17203 0.0
H387 H 0.67158 0.19611 0.35593 0.0
H388 H 0.73407 0.2516 0.37023 0.0
H389 H 0.78746 0.30867 0.33188 0.0
H390 H 0.79788 0.32705 0.14824 0.0
H391 H 0.73886 0.26728 0.13252 0.0
C392 C 0.6928 0.22185 0.21525 0.0
C393 C 0.67121 0.20116 0.26294 0.0
C394 C 0.72875 0.25391 0.22324 0.0
C395 C 0.68726 0.21156 0.31846 0.0
C396 C 0.72301 0.24339 0.32671 0.0
C397 C 0.77738 0.29945 0.28819 0.0
C398 C 0.7969 0.32281 0.24136 0.0
C399 C 0.74344 0.26531 0.27958 0.0
C400 C 0.78338 0.30993 0.18515 0.0
C401 C 0.74951 0.2758 0.17616 0.0
H402 H 0.45382 0.7845 0.83545 0.0
H403 H 0.48105 0.8041 0.65467 0.0
H404 H 0.48376 0.7457 0.64859 0.0
H405 H 0.4726 0.68671 0.69237 0.0
H406 H 0.44444 0.66684 0.87287 0.0
H407 H 0.4482 0.72831 0.88117 0.0
C408 C 0.46087 0.77643 0.79472 0.0
C409 C 0.46679 0.79861 0.74536 0.0
C410 C 0.46196 0.74271 0.79141 0.0
C411 C 0.4762 0.78763 0.69327 0.0
C412 C 0.4776 0.75413 0.68973 0.0
C413 C 0.46775 0.69586 0.73385 0.0
C414 C 0.45796 0.67186 0.78188 0.0
C415 C 0.46962 0.73105 0.73821 0.0
C416 C 0.45197 0.68456 0.83519 0.0
C417 C 0.45399 0.71968 0.83991 0.0
H418 H 0.67755 0.46294 0.33204 0.0
H419 H 0.6726 0.45579 0.14594 0.0
H420 H 0.73169 0.45421 0.1451 0.0
H421 H 0.7815 0.44996 0.1972 0.0
H422 H 0.78553 0.45544 0.38341 0.0
H423 H 0.72943 0.46242 0.38392 0.0
C424 C 0.68944 0.46145 0.29105 0.0
C425 C 0.67036 0.45927 0.23903 0.0
C426 C 0.72296 0.45988 0.29094 0.0
C427 C 0.68656 0.45755 0.18658 0.0
C428 C 0.72025 0.45643 0.18611 0.0
C429 C 0.7705 0.45304 0.2381 0.0
C430 C 0.78782 0.45203 0.29032 0.0
C431 C 0.7382 0.45681 0.23808 0.0
C432 C 0.7729 0.45609 0.34263 0.0
C433 C 0.74078 0.46004 0.34293 0.0
H434 H 0.32001 0.78508 0.83452 0.0
H435 H 0.33054 0.79612 0.6497 0.0
H436 H 0.27011 0.73842 0.63666 0.0
H437 H 0.21673 0.68124 0.67723 0.0
H438 H 0.21159 0.66654 0.86171 0.0
H439 H 0.2667 0.7286 0.87494 0.0
C440 C 0.30887 0.77521 0.79141 0.0
C441 C 0.32985 0.79534 0.74338 0.0
C442 C 0.27483 0.74082 0.78393 0.0
C443 C 0.31499 0.78169 0.68774 0.0
C444 C 0.28041 0.74837 0.68006 0.0
C445 C 0.22734 0.69183 0.72032 0.0
C446 C 0.20939 0.6692 0.76825 0.0
C447 C 0.26044 0.72718 0.7278 0.0
C448 C 0.22409 0.68331 0.8238 0.0
C449 C 0.25598 0.71889 0.83161 0.0
H450 H 0.40328 0.92765 0.96884 0.0
H451 H 0.45277 0.01334 0.83866 0.0
H452 H 0.47589 0.06278 0.91318 0.0
H453 H 0.48888 0.08113 0.01582 0.0
H454 H 0.43761 0.99572 0.14598 0.0
H455 H 0.40798 0.94672 0.07106 0.0
C456 C 0.41841 0.95719 0.95676 0.0
C457 C 0.42658 0.9668 0.89833 0.0
C458 C 0.43161 0.98548 0.99987 0.0
C459 C 0.44596 0.00516 0.88323 0.0
C460 C 0.45948 0.03346 0.9259 0.0
C461 C 0.47058 0.05185 0.02771 0.0
C462 C 0.46571 0.04198 0.08631 0.0
C463 C 0.45351 0.02389 0.98441 0.0
C464 C 0.4417 0.00404 0.10121 0.0
C465 C 0.42497 0.97599 0.05836 0.0
H466 H 0.49274 0.42269 0.46724 0.0
H467 H 0.45182 0.47445 0.34735 0.0
H468 H 0.42642 0.49423 0.42727 0.0
H469 H 0.42224 0.50286 0.5317 0.0
H470 H 0.462 0.45 0.65152 0.0
H471 H 0.48107 0.42422 0.5711 0.0
C472 C 0.47767 0.43773 0.45851 0.0
C473 C 0.47448 0.44739 0.40138 0.0
C474 C 0.4632 0.44905 0.5047 0.0
C475 C 0.45458 0.46656 0.39077 0.0
C476 C 0.44029 0.47812 0.43654 0.0
C477 C 0.43451 0.48515 0.54021 0.0
C478 C 0.44103 0.47866 0.5976 0.0
C479 C 0.44538 0.47043 0.49375 0.0
C480 C 0.45658 0.45537 0.60788 0.0
C481 C 0.46773 0.44083 0.56186 0.0
H482 H 0.04239 0.51411 0.94637 0.0
H483 H 0.04455 0.41059 0.92062 0.0
H484 H 0.99484 0.37958 0.99362 0.0
H485 H 0.9515 0.38338 0.06659 0.0
H486 H 0.96457 0.49306 0.10518 0.0
H487 H 0.00897 0.52075 0.02711 0.0
C488 C 0.03271 0.48496 0.95715 0.0
C489 C 0.04723 0.46474 0.92808 0.0
C490 C 0.0071 0.46864 1.00217 0.0
C491 C 0.03365 0.42672 0.94226 0.0
C492 C 0.00547 0.40914 0.98421 0.0
C493 C 0.96451 0.41339 0.05822 0.0
C494 C 0.95379 0.4358 0.09083 0.0
C495 C 0.99219 0.43001 0.01496 0.0
C496 C 0.97152 0.47484 0.08031 0.0
C497 C 0.99697 0.49083 0.03545 0.0
H498 H 0.61334 0.04886 0.44083 0.0
H499 H 0.50556 0.04368 0.42056 0.0
H500 H 0.4803 0.00122 0.50108 0.0
H501 H 0.48831 0.96644 0.57773 0.0
H502 H 0.58756 0.95487 0.58394 0.0
H503 H 0.61746 0.00405 0.51011 0.0
C504 C 0.58425 0.03804 0.45382 0.0
C505 C 0.56184 0.0505 0.42569 0.0
C506 C 0.56867 0.01114 0.49821 0.0
C507 C 0.52389 0.03552 0.44207 0.0
C508 C 0.50927 0.01113 0.48828 0.0
C509 C 0.51627 0.97401 0.56265 0.0
C510 C 0.53561 0.9569 0.58633 0.0
C511 C 0.53146 0.99907 0.51688 0.0
C512 C 0.57214 0.9678 0.56654 0.0
C513 C 0.58904 0.99564 0.52406 0.0
H514 H 0.55339 0.55062 0.887 0.0
H515 H 0.49311 0.59626 0.97862 0.0
H516 H 0.5153 0.58574 0.07046 0.0
H517 H 0.54405 0.55504 0.12522 0.0
H518 H 0.6011 0.50591 0.03365 0.0
H519 H 0.58864 0.52675 0.94217 0.0
C520 C 0.546 0.55919 0.927 0.0
C521 C 0.52142 0.57394 0.92587 0.0
C522 C 0.55799 0.55201 0.98007 0.0
C523 C 0.51179 0.58457 0.97824 0.0
C524 C 0.52438 0.57846 0.03092 0.0
C525 C 0.5547 0.5499 0.08542 0.0
C526 C 0.57328 0.52879 0.08633 0.0
C527 C 0.54637 0.56094 0.03252 0.0
C528 C 0.58651 0.52195 0.03416 0.0
C529 C 0.57926 0.53372 0.98168 0.0
H530 H 0.02037 0.55025 0.62524 0.0
H531 H 0.10119 0.63669 0.51377 0.0
H532 H 0.05403 0.61456 0.43605 0.0
H533 H 0.9923 0.56494 0.39587 0.0
H534 H 0.91288 0.47824 0.50879 0.0
H535 H 0.95683 0.50618 0.58927 0.0
C536 C 0.02749 0.56478 0.58433 0.0
C537 C 0.0644 0.59485 0.57531 0.0
C538 C 1.00055 0.55143 0.53951 0.0
C539 C 0.07299 0.61351 0.5221 0.0
C540 C 0.04609 0.60062 0.47734 0.0
C541 C 0.98437 0.55266 0.43833 0.0
C542 C 0.94956 0.51909 0.44583 0.0
C543 C 0.01014 0.56875 0.48491 0.0
C544 C 0.93973 0.50362 0.50132 0.0
C545 C 0.96484 0.51963 0.5476 0.0
loop_
_geom_bond_atom_site_label_1
_geom_bond_atom_site_label_2
_geom_bond_distance
_geom_bond_site_symmetry_2
_ccdc_geom_bond_type
Co0 O2 2.143 . S
Co0 O8 2.074 . S
Co0 O11 2.093 . S
Co0 O24 2.097 . S
Co0 N41 2.151 . S
Co0 N49 2.214 . S
Co1 O2 2.160 . S
Co1 O7 2.058 . S
Co1 O17 2.057 . S
Co1 O32 2.037 . S
Co1 N36 2.145 . S
Co1 N57 2.257 . S
O2 Co0 2.143 . S
O2 Co1 2.160 . S
C3 O4 1.278 . S
C3 O11 1.224 . S
O4 C3 1.278 . S
C5 O6 1.245 . S
C5 O17 1.232 . S
O6 C5 1.245 . S
O7 Co1 2.058 . S
O7 C33 1.269 . S
O8 Co0 2.074 . S
O8 C33 1.257 . S
H9 C34 0.930 . S
H10 C40 0.930 . S
O11 Co0 2.093 . S
O11 C3 1.224 . S
H12 C44 0.929 . S
H13 C46 0.930 1_556 S
H14 C47 0.930 . S
H15 C45 0.929 . S
H16 C48 0.928 . S
O17 Co1 2.057 . S
O17 C5 1.232 . S
H18 C37 0.929 . S
H19 C38 0.929 . S
H20 C50 0.931 . S
H21 C42 0.929 . S
H22 C51 0.930 1_556 S
H23 C43 0.931 . S
O24 Co0 2.097 . S
O24 C52 1.214 . S
H25 C53 0.929 . S
H26 C54 0.929 . S
H27 C55 0.930 . S
H28 C56 0.929 . S
H29 C58 0.930 . S
H30 C35 0.930 . S
H31 C39 0.930 . S
O32 Co1 2.037 . S
O32 C52 1.234 . S
C33 O7 1.269 . S
C33 O8 1.257 . S
C34 H9 0.930 . S
C34 C37 1.388 . S
C34 C39 1.418 . S
C35 H30 0.930 . S
C35 C38 1.404 . S
C35 C39 1.353 . S
N36 Co1 2.145 . S
N36 C37 1.397 . S
N36 C38 1.334 . S
C37 H18 0.929 . S
C37 C34 1.388 . S
C37 N36 1.397 . S
C38 H19 0.929 . S
C38 C35 1.404 . S
C38 N36 1.334 . S
C39 H31 0.930 . S
C39 C34 1.418 . S
C39 C35 1.353 . S
C40 H10 0.930 . S
C40 N41 1.330 . S
C40 C42 1.446 . S
N41 Co0 2.151 . S
N41 C40 1.330 . S
N41 C45 1.418 . S
C42 H21 0.929 . S
C42 C40 1.446 . S
C42 C43 1.332 . S
C43 H23 0.931 . S
C43 C42 1.332 . S
C43 C44 1.267 . S
C44 H12 0.929 . S
C44 C43 1.267 . S
C44 C45 1.251 . S
C45 H15 0.929 . S
C45 N41 1.418 . S
C45 C44 1.251 . S
C46 H13 0.930 1_554 S
C46 C48 1.406 . S
C46 C51 1.261 . S
C47 H14 0.930 . S
C47 N49 1.325 . S
C47 C50 1.357 . S
C48 H16 0.928 . S
C48 C46 1.406 . S
C48 N49 1.261 . S
N49 Co0 2.214 . S
N49 C47 1.325 . S
N49 C48 1.261 . S
C50 H20 0.931 . S
C50 C47 1.357 . S
C50 C51 1.312 . S
C51 H22 0.930 1_554 S
C51 C46 1.261 . S
C51 C50 1.312 . S
C52 O24 1.214 . S
C52 O32 1.234 . S
C53 H25 0.929 . S
C53 C56 1.391 . S
C53 C58 1.391 . S
C54 H26 0.929 . S
C54 C55 1.390 . S
C54 N57 1.391 . S
C55 H27 0.930 . S
C55 C54 1.390 . S
C55 C56 1.392 . S
C56 H28 0.929 . S
C56 C53 1.391 . S
C56 C55 1.392 . S
N57 Co1 2.257 . S
N57 C54 1.391 . S
N57 C58 1.388 . S
C58 H29 0.930 . S
C58 C53 1.391 . S
C58 N57 1.388 . S
Co59 O61 2.143 . S
Co59 O67 2.074 . S
Co59 O70 2.093 . S
Co59 O83 2.097 . S
Co59 N100 2.151 . S
Co59 N108 2.214 . S
Co60 O61 2.160 . S
Co60 O66 2.058 . S
Co60 O76 2.057 . S
Co60 O91 2.037 . S
Co60 N95 2.145 . S
Co60 N116 2.257 . S
O61 Co59 2.143 . S
O61 Co60 2.160 . S
C62 O63 1.278 . S
C62 O70 1.224 . S
O63 C62 1.278 . S
C64 O65 1.245 . S
C64 O76 1.232 . S
O65 C64 1.245 . S
O66 Co60 2.058 . S
O66 C92 1.269 . S
O67 Co59 2.074 . S
O67 C92 1.257 . S
H68 C93 0.930 . S
H69 C99 0.930 . S
O70 Co59 2.093 . S
O70 C62 1.224 . S
H71 C103 0.929 . S
H72 C105 0.930 . S
H73 C106 0.930 . S
H74 C104 0.929 . S
H75 C107 0.928 . S
O76 Co60 2.057 . S
O76 C64 1.232 . S
H77 C96 0.929 . S
H78 C97 0.929 . S
H79 C109 0.931 . S
H80 C101 0.929 . S
H81 C110 0.930 . S
H82 C102 0.931 . S
O83 Co59 2.097 . S
O83 C111 1.214 . S
H84 C112 0.929 . S
H85 C113 0.929 . S
H86 C114 0.930 . S
H87 C115 0.929 . S
H88 C117 0.930 . S
H89 C94 0.930 1_554 S
H90 C98 0.930 1_554 S
O91 Co60 2.037 . S
O91 C111 1.234 . S
C92 O66 1.269 . S
C92 O67 1.257 . S
C93 H68 0.930 . S
C93 C96 1.388 . S
C93 C98 1.418 . S
C94 H89 0.930 1_556 S
C94 C97 1.404 . S
C94 C98 1.353 . S
N95 Co60 2.145 . S
N95 C96 1.397 . S
N95 C97 1.334 . S
C96 H77 0.929 . S
C96 C93 1.388 . S
C96 N95 1.397 . S
C97 H78 0.929 . S
C97 C94 1.404 . S
C97 N95 1.334 . S
C98 H90 0.930 1_556 S
C98 C93 1.418 . S
C98 C94 1.353 . S
C99 H69 0.930 . S
C99 N100 1.330 . S
C99 C101 1.446 . S
N100 Co59 2.151 . S
N100 C99 1.330 . S
N100 C104 1.418 . S
C101 H80 0.929 . S
C101 C99 1.446 . S
C101 C102 1.332 . S
C102 H82 0.931 . S
C102 C101 1.332 . S
C102 C103 1.267 . S
C103 H71 0.929 . S
C103 C102 1.267 . S
C103 C104 1.251 . S
C104 H74 0.929 . S
C104 N100 1.418 . S
C104 C103 1.251 . S
C105 H72 0.930 . S
C105 C107 1.406 . S
C105 C110 1.261 . S
C106 H73 0.930 . S
C106 N108 1.325 . S
C106 C109 1.357 . S
C107 H75 0.928 . S
C107 C105 1.406 . S
C107 N108 1.261 . S
N108 Co59 2.214 . S
N108 C106 1.325 . S
N108 C107 1.261 . S
C109 H79 0.931 . S
C109 C106 1.357 . S
C109 C110 1.312 . S
C110 H81 0.930 . S
C110 C105 1.261 . S
C110 C109 1.312 . S
C111 O83 1.214 . S
C111 O91 1.234 . S
C112 H84 0.929 . S
C112 C115 1.391 . S
C112 C117 1.391 . S
C113 H85 0.929 . S
C113 C114 1.390 . S
C113 N116 1.391 . S
C114 H86 0.930 . S
C114 C113 1.390 . S
C114 C115 1.392 . S
C115 H87 0.929 . S
C115 C112 1.391 . S
C115 C114 1.392 . S
N116 Co60 2.257 . S
N116 C113 1.391 . S
N116 C117 1.388 . S
C117 H88 0.930 . S
C117 C112 1.391 . S
C117 N116 1.388 . S
Co118 O120 2.143 . S
Co118 O126 2.074 . S
Co118 O129 2.093 . S
Co118 O142 2.097 . S
Co118 N159 2.151 . S
Co118 N167 2.214 . S
Co119 O120 2.160 . S
Co119 O125 2.058 . S
Co119 O135 2.057 . S
Co119 O150 2.037 . S
Co119 N154 2.145 . S
Co119 N175 2.257 . S
O120 Co118 2.143 . S
O120 Co119 2.160 . S
C121 O122 1.278 . S
C121 O129 1.224 . S
O122 C121 1.278 . S
C123 O124 1.245 . S
C123 O135 1.232 . S
O124 C123 1.245 . S
O125 Co119 2.058 . S
O125 C151 1.269 . S
O126 Co118 2.074 . S
O126 C151 1.257 . S
H127 C152 0.930 . S
H128 C158 0.930 . S
O129 Co118 2.093 . S
O129 C121 1.224 . S
H130 C162 0.929 . S
H131 C164 0.930 . S
H132 C165 0.930 . S
H133 C163 0.929 . S
H134 C166 0.928 . S
O135 Co119 2.057 . S
O135 C123 1.232 . S
H136 C155 0.929 . S
H137 C156 0.929 . S
H138 C168 0.931 . S
H139 C160 0.929 . S
H140 C169 0.930 . S
H141 C161 0.931 . S
O142 Co118 2.097 . S
O142 C170 1.214 . S
H143 C171 0.929 . S
H144 C172 0.929 . S
H145 C173 0.930 . S
H146 C174 0.929 . S
H147 C176 0.930 . S
H148 C153 0.930 1_556 S
H149 C157 0.930 1_556 S
O150 Co119 2.037 . S
O150 C170 1.234 . S
C151 O125 1.269 . S
C151 O126 1.257 . S
C152 H127 0.930 . S
C152 C155 1.388 . S
C152 C157 1.418 . S
C153 H148 0.930 1_554 S
C153 C156 1.404 . S
C153 C157 1.353 . S
N154 Co119 2.145 . S
N154 C155 1.397 . S
N154 C156 1.334 . S
C155 H136 0.929 . S
C155 C152 1.388 . S
C155 N154 1.397 . S
C156 H137 0.929 . S
C156 C153 1.404 . S
C156 N154 1.334 . S
C157 H149 0.930 1_554 S
C157 C152 1.418 . S
C157 C153 1.353 . S
C158 H128 0.930 . S
C158 N159 1.330 . S
C158 C160 1.446 . S
N159 Co118 2.151 . S
N159 C158 1.330 . S
N159 C163 1.418 . S
C160 H139 0.929 . S
C160 C158 1.446 . S
C160 C161 1.332 . S
C161 H141 0.931 . S
C161 C160 1.332 . S
C161 C162 1.267 . S
C162 H130 0.929 . S
C162 C161 1.267 . S
C162 C163 1.251 . S
C163 H133 0.929 . S
C163 N159 1.418 . S
C163 C162 1.251 . S
C164 H131 0.930 . S
C164 C166 1.406 . S
C164 C169 1.261 . S
C165 H132 0.930 . S
C165 N167 1.325 . S
C165 C168 1.357 . S
C166 H134 0.928 . S
C166 C164 1.406 . S
C166 N167 1.261 . S
N167 Co118 2.214 . S
N167 C165 1.325 . S
N167 C166 1.261 . S
C168 H138 0.931 . S
C168 C165 1.357 . S
C168 C169 1.312 . S
C169 H140 0.930 . S
C169 C164 1.261 . S
C169 C168 1.312 . S
C170 O142 1.214 . S
C170 O150 1.234 . S
C171 H143 0.929 . S
C171 C174 1.391 . S
C171 C176 1.391 . S
C172 H144 0.929 . S
C172 C173 1.390 . S
C172 N175 1.391 . S
C173 H145 0.930 . S
C173 C172 1.390 . S
C173 C174 1.392 . S
C174 H146 0.929 . S
C174 C171 1.391 . S
C174 C173 1.392 . S
N175 Co119 2.257 . S
N175 C172 1.391 . S
N175 C176 1.388 . S
C176 H147 0.930 . S
C176 C171 1.391 . S
C176 N175 1.388 . S
Co177 O179 2.143 . S
Co177 O185 2.074 . S
Co177 O188 2.093 . S
Co177 O201 2.097 . S
Co177 N218 2.151 . S
Co177 N226 2.214 . S
Co178 O179 2.160 . S
Co178 O184 2.058 . S
Co178 O194 2.057 . S
Co178 O209 2.037 . S
Co178 N213 2.145 . S
Co178 N234 2.257 . S
O179 Co177 2.143 . S
O179 Co178 2.160 . S
C180 O181 1.278 . S
C180 O188 1.224 . S
O181 C180 1.278 . S
C182 O183 1.245 . S
C182 O194 1.232 . S
O183 C182 1.245 . S
O184 Co178 2.058 . S
O184 C210 1.269 . S
O185 Co177 2.074 . S
O185 C210 1.257 . S
H186 C211 0.930 . S
H187 C217 0.930 . S
O188 Co177 2.093 . S
O188 C180 1.224 . S
H189 C221 0.929 . S
H190 C223 0.930 1_554 S
H191 C224 0.930 . S
H192 C222 0.929 . S
H193 C225 0.928 . S
O194 Co178 2.057 . S
O194 C182 1.232 . S
H195 C214 0.929 . S
H196 C215 0.929 . S
H197 C227 0.931 . S
H198 C219 0.929 . S
H199 C228 0.930 1_554 S
H200 C220 0.931 . S
O201 Co177 2.097 . S
O201 C229 1.214 . S
H202 C230 0.929 . S
H203 C231 0.929 . S
H204 C232 0.930 . S
H205 C233 0.929 . S
H206 C235 0.930 . S
H207 C212 0.930 . S
H208 C216 0.930 . S
O209 Co178 2.037 . S
O209 C229 1.234 . S
C210 O184 1.269 . S
C210 O185 1.257 . S
C211 H186 0.930 . S
C211 C214 1.388 . S
C211 C216 1.418 . S
C212 H207 0.930 . S
C212 C215 1.404 . S
C212 C216 1.353 . S
N213 Co178 2.145 . S
N213 C214 1.397 . S
N213 C215 1.334 . S
C214 H195 0.929 . S
C214 C211 1.388 . S
C214 N213 1.397 . S
C215 H196 0.929 . S
C215 C212 1.404 . S
C215 N213 1.334 . S
C216 H208 0.930 . S
C216 C211 1.418 . S
C216 C212 1.353 . S
C217 H187 0.930 . S
C217 N218 1.330 . S
C217 C219 1.446 . S
N218 Co177 2.151 . S
N218 C217 1.330 . S
N218 C222 1.418 . S
C219 H198 0.929 . S
C219 C217 1.446 . S
C219 C220 1.332 . S
C220 H200 0.931 . S
C220 C219 1.332 . S
C220 C221 1.267 . S
C221 H189 0.929 . S
C221 C220 1.267 . S
C221 C222 1.251 . S
C222 H192 0.929 . S
C222 N218 1.418 . S
C222 C221 1.251 . S
C223 H190 0.930 1_556 S
C223 C225 1.406 . S
C223 C228 1.261 . S
C224 H191 0.930 . S
C224 N226 1.325 . S
C224 C227 1.357 . S
C225 H193 0.928 . S
C225 C223 1.406 . S
C225 N226 1.261 . S
N226 Co177 2.214 . S
N226 C224 1.325 . S
N226 C225 1.261 . S
C227 H197 0.931 . S
C227 C224 1.357 . S
C227 C228 1.312 . S
C228 H199 0.930 1_556 S
C228 C223 1.261 . S
C228 C227 1.312 . S
C229 O201 1.214 . S
C229 O209 1.234 . S
C230 H202 0.929 . S
C230 C233 1.391 . S
C230 C235 1.391 . S
C231 H203 0.929 . S
C231 C232 1.390 . S
C231 N234 1.391 . S
C232 H204 0.930 . S
C232 C231 1.390 . S
C232 C233 1.392 . S
C233 H205 0.929 . S
C233 C230 1.391 . S
C233 C232 1.392 . S
N234 Co178 2.257 . S
N234 C231 1.391 . S
N234 C235 1.388 . S
C235 H206 0.930 . S
C235 C230 1.391 . S
C235 N234 1.388 . S
Co236 O238 2.143 . S
Co236 O244 2.074 . S
Co236 O247 2.093 . S
Co236 O260 2.097 . S
Co236 N277 2.151 . S
Co236 N285 2.214 . S
Co237 O238 2.160 . S
Co237 O243 2.058 . S
Co237 O253 2.057 . S
Co237 O268 2.037 . S
Co237 N272 2.145 . S
Co237 N293 2.257 . S
O238 Co236 2.143 . S
O238 Co237 2.160 . S
C239 O240 1.278 . S
C239 O247 1.224 . S
O240 C239 1.278 . S
C241 O242 1.245 . S
C241 O253 1.232 . S
O242 C241 1.245 . S
O243 Co237 2.058 . S
O243 C269 1.269 . S
O244 Co236 2.074 . S
O244 C269 1.257 . S
H245 C270 0.930 . S
H246 C276 0.930 . S
O247 Co236 2.093 . S
O247 C239 1.224 . S
H248 C280 0.929 . S
H249 C282 0.930 1_556 S
H250 C283 0.930 . S
H251 C281 0.929 . S
H252 C284 0.928 . S
O253 Co237 2.057 . S
O253 C241 1.232 . S
H254 C273 0.929 . S
H255 C274 0.929 . S
H256 C286 0.931 . S
H257 C278 0.929 . S
H258 C287 0.930 1_556 S
H259 C279 0.931 . S
O260 Co236 2.097 . S
O260 C288 1.214 . S
H261 C289 0.929 . S
H262 C290 0.929 . S
H263 C291 0.930 . S
H264 C292 0.929 . S
H265 C294 0.930 . S
H266 C271 0.930 . S
H267 C275 0.930 . S
O268 Co237 2.037 . S
O268 C288 1.234 . S
C269 O243 1.269 . S
C269 O244 1.257 . S
C270 H245 0.930 . S
C270 C273 1.388 . S
C270 C275 1.418 . S
C271 H266 0.930 . S
C271 C274 1.404 . S
C271 C275 1.353 . S
N272 Co237 2.145 . S
N272 C273 1.397 . S
N272 C274 1.334 . S
C273 H254 0.929 . S
C273 C270 1.388 . S
C273 N272 1.397 . S
C274 H255 0.929 . S
C274 C271 1.404 . S
C274 N272 1.334 . S
C275 H267 0.930 . S
C275 C270 1.418 . S
C275 C271 1.353 . S
C276 H246 0.930 . S
C276 N277 1.330 . S
C276 C278 1.446 . S
N277 Co236 2.151 . S
N277 C276 1.330 . S
N277 C281 1.418 . S
C278 H257 0.929 . S
C278 C276 1.446 . S
C278 C279 1.332 . S
C279 H259 0.931 . S
C279 C278 1.332 . S
C279 C280 1.267 . S
C280 H248 0.929 . S
C280 C279 1.267 . S
C280 C281 1.251 . S
C281 H251 0.929 . S
C281 N277 1.418 . S
C281 C280 1.251 . S
C282 H249 0.930 1_554 S
C282 C284 1.406 . S
C282 C287 1.261 . S
C283 H250 0.930 . S
C283 N285 1.325 . S
C283 C286 1.357 . S
C284 H252 0.928 . S
C284 C282 1.406 . S
C284 N285 1.261 . S
N285 Co236 2.214 . S
N285 C283 1.325 . S
N285 C284 1.261 . S
C286 H256 0.931 . S
C286 C283 1.357 . S
C286 C287 1.312 . S
C287 H258 0.930 1_554 S
C287 C282 1.261 . S
C287 C286 1.312 . S
C288 O260 1.214 . S
C288 O268 1.234 . S
C289 H261 0.929 . S
C289 C292 1.391 . S
C289 C294 1.391 . S
C290 H262 0.929 . S
C290 C291 1.390 . S
C290 N293 1.391 . S
C291 H263 0.930 . S
C291 C290 1.390 . S
C291 C292 1.392 . S
C292 H264 0.929 . S
C292 C289 1.391 . S
C292 C291 1.392 . S
N293 Co237 2.257 . S
N293 C290 1.391 . S
N293 C294 1.388 . S
C294 H265 0.930 . S
C294 C289 1.391 . S
C294 N293 1.388 . S
Co295 O297 2.143 . S
Co295 O303 2.074 . S
Co295 O306 2.093 . S
Co295 O319 2.097 . S
Co295 N336 2.151 . S
Co295 N344 2.214 . S
Co296 O297 2.160 . S
Co296 O302 2.058 . S
Co296 O312 2.057 . S
Co296 O327 2.037 . S
Co296 N331 2.145 . S
Co296 N352 2.257 . S
O297 Co295 2.143 . S
O297 Co296 2.160 . S
C298 O299 1.278 . S
C298 O306 1.224 . S
O299 C298 1.278 . S
C300 O301 1.245 . S
C300 O312 1.232 . S
O301 C300 1.245 . S
O302 Co296 2.058 . S
O302 C328 1.269 . S
O303 Co295 2.074 . S
O303 C328 1.257 . S
H304 C329 0.930 . S
H305 C335 0.930 . S
O306 Co295 2.093 . S
O306 C298 1.224 . S
H307 C339 0.929 . S
H308 C341 0.930 . S
H309 C342 0.930 . S
H310 C340 0.929 . S
H311 C343 0.928 . S
O312 Co296 2.057 . S
O312 C300 1.232 . S
H313 C332 0.929 . S
H314 C333 0.929 . S
H315 C345 0.931 . S
H316 C337 0.929 . S
H317 C346 0.930 . S
H318 C338 0.931 . S
O319 Co295 2.097 . S
O319 C347 1.214 . S
H320 C348 0.929 . S
H321 C349 0.929 . S
H322 C350 0.930 . S
H323 C351 0.929 . S
H324 C353 0.930 . S
H325 C330 0.930 1_554 S
H326 C334 0.930 1_554 S
O327 Co296 2.037 . S
O327 C347 1.234 . S
C328 O302 1.269 . S
C328 O303 1.257 . S
C329 H304 0.930 . S
C329 C332 1.388 . S
C329 C334 1.418 . S
C330 H325 0.930 1_556 S
C330 C333 1.404 . S
C330 C334 1.353 . S
N331 Co296 2.145 . S
N331 C332 1.397 . S
N331 C333 1.334 . S
C332 H313 0.929 . S
C332 C329 1.388 . S
C332 N331 1.397 . S
C333 H314 0.929 . S
C333 C330 1.404 . S
C333 N331 1.334 . S
C334 H326 0.930 1_556 S
C334 C329 1.418 . S
C334 C330 1.353 . S
C335 H305 0.930 . S
C335 N336 1.330 . S
C335 C337 1.446 . S
N336 Co295 2.151 . S
N336 C335 1.330 . S
N336 C340 1.418 . S
C337 H316 0.929 . S
C337 C335 1.446 . S
C337 C338 1.332 . S
C338 H318 0.931 . S
C338 C337 1.332 . S
C338 C339 1.267 . S
C339 H307 0.929 . S
C339 C338 1.267 . S
C339 C340 1.251 . S
C340 H310 0.929 . S
C340 N336 1.418 . S
C340 C339 1.251 . S
C341 H308 0.930 . S
C341 C343 1.406 . S
C341 C346 1.261 . S
C342 H309 0.930 . S
C342 N344 1.325 . S
C342 C345 1.357 . S
C343 H311 0.928 . S
C343 C341 1.406 . S
C343 N344 1.261 . S
N344 Co295 2.214 . S
N344 C342 1.325 . S
N344 C343 1.261 . S
C345 H315 0.931 . S
C345 C342 1.357 . S
C345 C346 1.312 . S
C346 H317 0.930 . S
C346 C341 1.261 . S
C346 C345 1.312 . S
C347 O319 1.214 . S
C347 O327 1.234 . S
C348 H320 0.929 . S
C348 C351 1.391 . S
C348 C353 1.391 . S
C349 H321 0.929 . S
C349 C350 1.390 . S
C349 N352 1.391 . S
C350 H322 0.930 . S
C350 C349 1.390 . S
C350 C351 1.392 . S
C351 H323 0.929 . S
C351 C348 1.391 . S
C351 C350 1.392 . S
N352 Co296 2.257 . S
N352 C349 1.391 . S
N352 C353 1.388 . S
C353 H324 0.930 . S
C353 C348 1.391 . S
C353 N352 1.388 . S
H354 C360 0.930 . S
H355 C363 0.930 . S
H356 C364 0.930 . S
H357 C365 0.930 . S
H358 C368 0.930 . S
H359 C369 0.930 . S
C360 H354 0.930 . S
C360 C361 1.355 . S
C360 C362 1.415 . S
C361 C360 1.355 . S
C361 C363 1.419 . S
C362 C360 1.415 . S
C362 C367 1.425 . S
C362 C369 1.409 . S
C363 H355 0.930 . S
C363 C361 1.419 . S
C363 C364 1.362 . S
C364 H356 0.930 . S
C364 C363 1.362 . S
C364 C367 1.409 . S
C365 H357 0.930 . S
C365 C366 1.355 . S
C365 C367 1.415 . S
C366 C365 1.355 . S
C366 C368 1.419 . S
C367 C362 1.425 . S
C367 C364 1.409 . S
C367 C365 1.415 . S
C368 H358 0.930 . S
C368 C366 1.419 . S
C368 C369 1.362 . S
C369 H359 0.930 . S
C369 C362 1.409 . S
C369 C368 1.362 . S
H370 C376 0.930 . S
H371 C379 0.930 . S
H372 C380 0.930 . S
H373 C381 0.930 . S
H374 C384 0.930 . S
H375 C385 0.930 . S
C376 H370 0.930 . S
C376 C377 1.355 . S
C376 C378 1.415 . S
C377 C376 1.355 . S
C377 C379 1.419 . S
C378 C376 1.415 . S
C378 C383 1.425 . S
C378 C385 1.409 . S
C379 H371 0.930 . S
C379 C377 1.419 . S
C379 C380 1.362 . S
C380 H372 0.930 . S
C380 C379 1.362 . S
C380 C383 1.409 . S
C381 H373 0.930 . S
C381 C382 1.355 . S
C381 C383 1.415 . S
C382 C381 1.355 . S
C382 C384 1.419 . S
C383 C378 1.425 . S
C383 C380 1.409 . S
C383 C381 1.415 . S
C384 H374 0.930 . S
C384 C382 1.419 . S
C384 C385 1.362 . S
C385 H375 0.930 . S
C385 C378 1.409 . S
C385 C384 1.362 . S
H386 C392 0.930 . S
H387 C395 0.930 . S
H388 C396 0.930 . S
H389 C397 0.930 . S
H390 C400 0.930 . S
H391 C401 0.930 . S
C392 H386 0.930 . S
C392 C393 1.355 . S
C392 C394 1.415 . S
C393 C392 1.355 . S
C393 C395 1.419 . S
C394 C392 1.415 . S
C394 C399 1.425 . S
C394 C401 1.409 . S
C395 H387 0.930 . S
C395 C393 1.419 . S
C395 C396 1.362 . S
C396 H388 0.930 . S
C396 C395 1.362 . S
C396 C399 1.409 . S
C397 H389 0.930 . S
C397 C398 1.355 . S
C397 C399 1.415 . S
C398 C397 1.355 . S
C398 C400 1.419 . S
C399 C394 1.425 . S
C399 C396 1.409 . S
C399 C397 1.415 . S
C400 H390 0.930 . S
C400 C398 1.419 . S
C400 C401 1.362 . S
C401 H391 0.930 . S
C401 C394 1.409 . S
C401 C400 1.362 . S
H402 C408 0.930 . S
H403 C411 0.930 . S
H404 C412 0.930 . S
H405 C413 0.930 . S
H406 C416 0.930 . S
H407 C417 0.930 . S
C408 H402 0.930 . S
C408 C409 1.355 . S
C408 C410 1.415 . S
C409 C408 1.355 . S
C409 C411 1.419 . S
C410 C408 1.415 . S
C410 C415 1.425 . S
C410 C417 1.409 . S
C411 H403 0.930 . S
C411 C409 1.419 . S
C411 C412 1.362 . S
C412 H404 0.930 . S
C412 C411 1.362 . S
C412 C415 1.409 . S
C413 H405 0.930 . S
C413 C414 1.355 . S
C413 C415 1.415 . S
C414 C413 1.355 . S
C414 C416 1.419 . S
C415 C410 1.425 . S
C415 C412 1.409 . S
C415 C413 1.415 . S
C416 H406 0.930 . S
C416 C414 1.419 . S
C416 C417 1.362 . S
C417 H407 0.930 . S
C417 C410 1.409 . S
C417 C416 1.362 . S
H418 C424 0.930 . S
H419 C427 0.930 . S
H420 C428 0.930 . S
H421 C429 0.930 . S
H422 C432 0.930 . S
H423 C433 0.930 . S
C424 H418 0.930 . S
C424 C425 1.355 . S
C424 C426 1.415 . S
C425 C424 1.355 . S
C425 C427 1.419 . S
C426 C424 1.415 . S
C426 C431 1.425 . S
C426 C433 1.409 . S
C427 H419 0.930 . S
C427 C425 1.419 . S
C427 C428 1.362 . S
C428 H420 0.930 . S
C428 C427 1.362 . S
C428 C431 1.409 . S
C429 H421 0.930 . S
C429 C430 1.355 . S
C429 C431 1.415 . S
C430 C429 1.355 . S
C430 C432 1.419 . S
C431 C426 1.425 . S
C431 C428 1.409 . S
C431 C429 1.415 . S
C432 H422 0.930 . S
C432 C430 1.419 . S
C432 C433 1.362 . S
C433 H423 0.930 . S
C433 C426 1.409 . S
C433 C432 1.362 . S
H434 C440 0.930 . S
H435 C443 0.930 . S
H436 C444 0.930 . S
H437 C445 0.930 . S
H438 C448 0.930 . S
H439 C449 0.930 . S
C440 H434 0.930 . S
C440 C441 1.355 . S
C440 C442 1.415 . S
C441 C440 1.355 . S
C441 C443 1.419 . S
C442 C440 1.415 . S
C442 C447 1.425 . S
C442 C449 1.409 . S
C443 H435 0.930 . S
C443 C441 1.419 . S
C443 C444 1.362 . S
C444 H436 0.930 . S
C444 C443 1.362 . S
C444 C447 1.409 . S
C445 H437 0.930 . S
C445 C446 1.355 . S
C445 C447 1.415 . S
C446 C445 1.355 . S
C446 C448 1.419 . S
C447 C442 1.425 . S
C447 C444 1.409 . S
C447 C445 1.415 . S
C448 H438 0.930 . S
C448 C446 1.419 . S
C448 C449 1.362 . S
C449 H439 0.930 . S
C449 C442 1.409 . S
C449 C448 1.362 . S
H450 C456 0.930 . S
H451 C459 0.930 1_545 S
H452 C460 0.930 . S
H453 C461 0.930 . S
H454 C464 0.930 1_565 S
H455 C465 0.930 . S
C456 H450 0.930 . S
C456 C457 1.355 . S
C456 C458 1.415 1_556 S
C457 C456 1.355 . S
C457 C459 1.419 . S
C458 C456 1.415 1_554 S
C458 C463 1.425 1_564 S
C458 C465 1.409 . S
C459 H451 0.930 1_565 S
C459 C457 1.419 . S
C459 C460 1.362 1_565 S
C460 H452 0.930 . S
C460 C459 1.362 1_545 S
C460 C463 1.409 . S
C461 H453 0.930 . S
C461 C462 1.355 . S
C461 C463 1.415 1_554 S
C462 C461 1.355 . S
C462 C464 1.419 . S
C463 C458 1.425 1_546 S
C463 C460 1.409 . S
C463 C461 1.415 1_556 S
C464 H454 0.930 1_545 S
C464 C462 1.419 . S
C464 C465 1.362 1_545 S
C465 H455 0.930 . S
C465 C458 1.409 . S
C465 C464 1.362 1_565 S
H466 C472 0.930 . S
H467 C475 0.930 . S
H468 C476 0.930 . S
H469 C477 0.930 . S
H470 C480 0.930 . S
H471 C481 0.930 . S
C472 H466 0.930 . S
C472 C473 1.355 . S
C472 C474 1.415 . S
C473 C472 1.355 . S
C473 C475 1.419 . S
C474 C472 1.415 . S
C474 C479 1.425 . S
C474 C481 1.409 . S
C475 H467 0.930 . S
C475 C473 1.419 . S
C475 C476 1.362 . S
C476 H468 0.930 . S
C476 C475 1.362 . S
C476 C479 1.409 . S
C477 H469 0.930 . S
C477 C478 1.355 . S
C477 C479 1.415 . S
C478 C477 1.355 . S
C478 C480 1.419 . S
C479 C474 1.425 . S
C479 C476 1.409 . S
C479 C477 1.415 . S
C480 H470 0.930 . S
C480 C478 1.419 . S
C480 C481 1.362 . S
C481 H471 0.930 . S
C481 C474 1.409 . S
C481 C480 1.362 . S
H482 C488 0.930 . S
H483 C491 0.930 . S
H484 C492 0.930 1_554 S
H485 C493 0.930 . S
H486 C496 0.930 . S
H487 C497 0.930 1_556 S
C488 H482 0.930 . S
C488 C489 1.355 . S
C488 C490 1.403 1_455 S
C489 C488 1.355 . S
C489 C491 1.419 . S
C490 C488 1.403 1_655 S
C490 C495 1.398 1_656 S
C490 C497 1.436 1_556 S
C491 H483 0.930 . S
C491 C489 1.419 . S
C491 C492 1.362 . S
C492 H484 0.930 1_556 S
C492 C491 1.362 . S
C492 C495 1.433 1_556 S
C493 H485 0.930 . S
C493 C494 1.355 . S
C493 C495 1.404 1_655 S
C494 C493 1.355 . S
C494 C496 1.419 . S
C495 C490 1.398 1_454 S
C495 C492 1.433 1_554 S
C495 C493 1.404 1_455 S
C496 H486 0.930 . S
C496 C494 1.419 . S
C496 C497 1.362 . S
C497 H487 0.930 1_554 S
C497 C490 1.436 1_554 S
C497 C496 1.362 . S
H498 C504 0.930 . S
H499 C507 0.930 . S
H500 C508 0.930 . S
H501 C509 0.930 . S
H502 C512 0.930 . S
H503 C513 0.930 . S
C504 H498 0.930 . S
C504 C505 1.355 . S
C504 C506 1.415 1_545 S
C505 C504 1.355 . S
C505 C507 1.419 . S
C506 C504 1.415 1_565 S
C506 C511 1.425 1_565 S
C506 C513 1.409 . S
C507 H499 0.930 . S
C507 C505 1.419 . S
C507 C508 1.362 . S
C508 H500 0.930 . S
C508 C507 1.362 . S
C508 C511 1.409 . S
C509 H501 0.930 . S
C509 C510 1.355 . S
C509 C511 1.415 1_565 S
C510 C509 1.355 . S
C510 C512 1.419 . S
C511 C506 1.425 1_545 S
C511 C508 1.409 . S
C511 C509 1.415 1_545 S
C512 H502 0.930 . S
C512 C510 1.419 . S
C512 C513 1.362 . S
C513 H503 0.930 . S
C513 C506 1.409 . S
C513 C512 1.362 . S
H514 C520 0.930 . S
H515 C523 0.930 . S
H516 C524 0.930 . S
H517 C525 0.930 . S
H518 C528 0.930 . S
H519 C529 0.930 . S
C520 H514 0.930 . S
C520 C521 1.355 . S
C520 C522 1.415 . S
C521 C520 1.355 . S
C521 C523 1.419 . S
C522 C520 1.415 . S
C522 C527 1.425 1_556 S
C522 C529 1.409 . S
C523 H515 0.930 . S
C523 C521 1.419 . S
C523 C524 1.362 1_556 S
C524 H516 0.930 . S
C524 C523 1.362 1_554 S
C524 C527 1.409 . S
C525 H517 0.930 . S
C525 C526 1.355 . S
C525 C527 1.415 . S
C526 C525 1.355 . S
C526 C528 1.419 . S
C527 C522 1.425 1_554 S
C527 C524 1.409 . S
C527 C525 1.415 . S
C528 H518 0.930 . S
C528 C526 1.419 . S
C528 C529 1.362 1_554 S
C529 H519 0.930 . S
C529 C522 1.409 . S
C529 C528 1.362 1_556 S
H530 C536 0.930 . S
H531 C539 0.930 . S
H532 C540 0.930 . S
H533 C541 0.930 . S
H534 C544 0.930 . S
H535 C545 0.930 . S
C536 H530 0.930 . S
C536 C537 1.355 . S
C536 C538 1.415 1_455 S
C537 C536 1.355 . S
C537 C539 1.419 . S
C538 C536 1.415 1_655 S
C538 C543 1.425 1_655 S
C538 C545 1.409 . S
C539 H531 0.930 . S
C539 C537 1.419 . S
C539 C540 1.362 . S
C540 H532 0.930 . S
C540 C539 1.362 . S
C540 C543 1.409 . S
C541 H533 0.930 . S
C541 C542 1.355 . S
C541 C543 1.415 1_655 S
C542 C541 1.355 . S
C542 C544 1.419 . S
C543 C538 1.425 1_455 S
C543 C540 1.409 . S
C543 C541 1.415 1_455 S
C544 H534 0.930 . S
C544 C542 1.419 . S
C544 C545 1.362 . S
C545 H535 0.930 . S
C545 C538 1.409 . S
C545 C544 1.362 . S
C361 C52 1.337 . S
C366 C269 1.319 . S
C377 C111 1.341 . S
C382 C328 1.318 . S
C393 C33 1.373 . S
C398 C151 1.398 . S
C409 C210 1.400 . S
C414 C92 1.389 . S
C425 C288 1.396 . S
C430 C170 1.404 . S
C441 C229 1.332 . S
C446 C347 1.330 . S
C457 C180 1.507 . S
C462 C3 1.508 . S
C473 C241 1.507 . S
C478 C62 1.508 . S
C489 C300 1.499 . S
C494 C123 1.487 . S
C505 C5 1.491 . S
C510 C182 1.506 . S
C521 C64 1.487 . S
C526 C239 1.474 . S
C537 C298 1.478 . S
C542 C121 1.473 . S
