# Generated by pormake.
# Topology wjs, (5)-cn, num edge types: 1
# Building blocks:
#     Node 0, Type 0, BuildingBlock: XOMCOT_clean_sbu_1, # of connection points: 5
#     Node 1, Type 0, BuildingBlock: XOMCOT_clean_sbu_1, # of connection points: 5
#     Node 2, Type 0, BuildingBlock: XOMCOT_clean_sbu_1, # of connection points: 5
#     Node 3, Type 0, BuildingBlock: XOMCOT_clean_sbu_1, # of connection points: 5
#     Node 4, Type 0, BuildingBlock: XOMCOT_clean_sbu_1, # of connection points: 5
#     Node 5, Type 0, BuildingBlock: XOMCOT_clean_sbu_1, # of connection points: 5
#     Node 6, Type 0, BuildingBlock: XOMCOT_clean_sbu_1, # of connection points: 5
#     Node 7, Type 0, BuildingBlock: XOMCOT_clean_sbu_1, # of connection points: 5
#     Node 8, Type 0, BuildingBlock: XOMCOT_clean_sbu_1, # of connection points: 5
#     Node 9, Type 0, BuildingBlock: XOMCOT_clean_sbu_1, # of connection points: 5
#     Node 10, Type 0, BuildingBlock: XOMCOT_clean_sbu_1, # of connection points: 5
#     Node 11, Type 0, BuildingBlock: XOMCOT_clean_sbu_1, # of connection points: 5
#     Edge 12, Type (0, 0), BuildingBlock: KIFKEQ_clean_linker_1, # of connection points: 2
#     Edge 13, Type (0, 0), BuildingBlock: KIFKEQ_clean_linker_1, # of connection points: 2
#     Edge 14, Type (0, 0), BuildingBlock: KIFKEQ_clean_linker_1, # of connection points: 2
#     Edge 15, Type (0, 0), BuildingBlock: KIFKEQ_clean_linker_1, # of connection points: 2
#     Edge 16, Type (0, 0), BuildingBlock: KIFKEQ_clean_linker_1, # of connection points: 2
#     Edge 17, Type (0, 0), BuildingBlock: KIFKEQ_clean_linker_1, # of connection points: 2
#     Edge 18, Type (0, 0), BuildingBlock: KIFKEQ_clean_linker_1, # of connection points: 2
#     Edge 19, Type (0, 0), BuildingBlock: KIFKEQ_clean_linker_1, # of connection points: 2
#     Edge 20, Type (0, 0), BuildingBlock: KIFKEQ_clean_linker_1, # of connection points: 2
#     Edge 21, Type (0, 0), BuildingBlock: KIFKEQ_clean_linker_1, # of connection points: 2
#     Edge 22, Type (0, 0), BuildingBlock: KIFKEQ_clean_linker_1, # of connection points: 2
#     Edge 23, Type (0, 0), BuildingBlock: KIFKEQ_clean_linker_1, # of connection points: 2
#     Edge 24, Type (0, 0), BuildingBlock: KIFKEQ_clean_linker_1, # of connection points: 2
#     Edge 25, Type (0, 0), BuildingBlock: KIFKEQ_clean_linker_1, # of connection points: 2
#     Edge 26, Type (0, 0), BuildingBlock: KIFKEQ_clean_linker_1, # of connection points: 2
#     Edge 27, Type (0, 0), BuildingBlock: KIFKEQ_clean_linker_1, # of connection points: 2
#     Edge 28, Type (0, 0), BuildingBlock: KIFKEQ_clean_linker_1, # of connection points: 2
#     Edge 29, Type (0, 0), BuildingBlock: KIFKEQ_clean_linker_1, # of connection points: 2
#     Edge 30, Type (0, 0), BuildingBlock: KIFKEQ_clean_linker_1, # of connection points: 2
#     Edge 31, Type (0, 0), BuildingBlock: KIFKEQ_clean_linker_1, # of connection points: 2
#     Edge 32, Type (0, 0), BuildingBlock: KIFKEQ_clean_linker_1, # of connection points: 2
#     Edge 33, Type (0, 0), BuildingBlock: KIFKEQ_clean_linker_1, # of connection points: 2
#     Edge 34, Type (0, 0), BuildingBlock: KIFKEQ_clean_linker_1, # of connection points: 2
#     Edge 35, Type (0, 0), BuildingBlock: KIFKEQ_clean_linker_1, # of connection points: 2
#     Edge 36, Type (0, 0), BuildingBlock: KIFKEQ_clean_linker_1, # of connection points: 2
#     Edge 37, Type (0, 0), BuildingBlock: KIFKEQ_clean_linker_1, # of connection points: 2
#     Edge 38, Type (0, 0), BuildingBlock: KIFKEQ_clean_linker_1, # of connection points: 2
#     Edge 39, Type (0, 0), BuildingBlock: KIFKEQ_clean_linker_1, # of connection points: 2
#     Edge 40, Type (0, 0), BuildingBlock: KIFKEQ_clean_linker_1, # of connection points: 2
#     Edge 41, Type (0, 0), BuildingBlock: KIFKEQ_clean_linker_1, # of connection points: 2
# Relax obj value: 0.371
# Max RMSD: 0.267
# Mean RMSD: 0.267
data_MOF--net-wjs--node1-XOMCOT_clean_sbu_1--edge1-KIFKEQ_clean_linker_1
_symmetry_space_group_name_H-M    P1
_symmetry_Int_Tables_number       1
_symmetry_cell_setting            triclinic
loop_
_symmetry_equiv_pos_as_xyz
'x, y, z'
_cell_length_a     31.666885
_cell_length_b     31.655853
_cell_length_c     68.269031
_cell_angle_alpha  89.939581
_cell_angle_beta   90.097348
_cell_angle_gamma 120.01409
loop_
_atom_site_label
_atom_site_type_symbol
_atom_site_fract_x
_atom_site_fract_y
_atom_site_fract_z
_atom_type_partial_charge
C0 C 0.29165 0.35238 0.04622 0.0
C1 C 0.30399 0.3217 0.05565 0.0
N2 N 0.2687 0.27556 0.05211 0.0
N3 N 0.24933 0.32555 0.03643 0.0
C4 C 0.23586 0.27876 0.04056 0.0
H5 H 0.31215 0.3918 0.04659 0.0
Co6 Co 0.21683 0.34971 0.02153 0.0
C7 C 0.17797 0.26131 0.99434 0.0
O8 O 0.13935 0.23067 1.00442 0.0
N9 N 0.18415 0.37417 0.00683 0.0
C10 C 0.15369 0.39643 0.9822 0.0
C11 C 0.18384 0.37852 0.98719 0.0
C12 C 0.1545 0.39025 0.01347 0.0
N13 N 0.13504 0.40375 0.99877 0.0
O14 O 0.15699 0.30476 0.03436 0.0
H15 H 0.20393 0.36892 0.9771 0.0
H16 H 0.14754 0.39221 0.02882 0.0
O17 O 0.20617 0.30423 1.00073 0.0
C18 C 0.1543 0.32135 0.05102 0.0
O19 O 0.18988 0.36456 0.05632 0.0
N20 N 0.27649 0.39528 0.0101 0.0
C21 C 0.37399 0.46303 1.0025 0.0
C22 C 0.35352 0.41471 0.99604 0.0
C23 C 0.30494 0.38127 1.00018 0.0
C24 C 0.29476 0.44279 0.01541 0.0
C25 C 0.34366 0.47736 0.01182 0.0
H26 H 0.29189 0.34339 0.99691 0.0
H27 H 0.27225 0.45315 0.02368 0.0
H28 H 0.20262 0.24764 0.03528 0.0
H29 H 0.3357 0.33236 0.0648 0.0
H30 H 0.14549 0.40254 0.96744 0.0
H31 H 0.37584 0.40177 0.98924 0.0
H32 H 0.35813 0.51436 0.01707 0.0
C33 C 0.93885 0.29362 0.21006 0.0
C34 C 0.98217 0.30655 0.21933 0.0
N35 N 0.99249 0.27069 0.21641 0.0
N36 N 0.92257 0.25028 0.20098 0.0
C37 C 0.95588 0.23696 0.20534 0.0
H38 H 0.92006 0.31422 0.21022 0.0
Co39 Co 0.86433 0.21572 0.18704 0.0
C40 C 0.91233 0.17532 0.16012 0.0
O41 O 0.90538 0.13809 0.17096 0.0
N42 N 0.80614 0.18134 0.17329 0.0
C43 C 0.75177 0.14998 0.14931 0.0
C44 C 0.80005 0.1806 0.15373 0.0
C45 C 0.76109 0.1513 0.18048 0.0
N46 N 0.72703 0.13144 0.16615 0.0
O47 O 0.85148 0.15685 0.20045 0.0
H48 H 0.82891 0.2009 0.14331 0.0
H49 H 0.7536 0.14451 0.19597 0.0
O50 O 0.8978 0.20408 0.16598 0.0
C51 C 0.84175 0.15778 0.21851 0.0
O52 O 0.83874 0.19521 0.22506 0.0
N53 N 0.87647 0.27435 0.17505 0.0
C54 C 0.90609 0.37202 0.16769 0.0
C55 C 0.93267 0.35108 0.16029 0.0
C56 C 0.9176 0.30239 0.16429 0.0
C57 C 0.848 0.29289 0.18109 0.0
C58 C 0.86228 0.34186 0.17764 0.0
H59 H 0.94183 0.28912 0.16029 0.0
H60 H 0.81617 0.27069 0.18998 0.0
H61 H 0.95308 0.20295 0.20077 0.0
H62 H 0.00361 0.33891 0.22809 0.0
H63 H 0.73649 0.14157 0.1347 0.0
H64 H 0.96719 0.37313 0.15291 0.0
H65 H 0.8406 0.35658 0.18356 0.0
C66 C 0.6483 0.92752 0.38084 0.0
C67 C 0.67616 0.96793 0.39221 0.0
N68 N 0.72317 0.9869 0.38689 0.0
N69 N 0.67755 0.92128 0.3683 0.0
C70 C 0.72296 0.95786 0.37237 0.0
H71 H 0.60936 0.9035 0.38203 0.0
Co72 Co 0.6584 0.86945 0.35122 0.0
C73 C 0.74292 0.90601 0.32343 0.0
O74 O 0.74372 0.86493 0.32306 0.0
N75 N 0.6382 0.8165 0.33435 0.0
C76 C 0.6185 0.76772 0.30846 0.0
C77 C 0.63414 0.8147 0.31466 0.0
C78 C 0.624 0.7703 0.33978 0.0
N79 N 0.61233 0.73982 0.32434 0.0
O80 O 0.69833 0.8503 0.36564 0.0
H81 H 0.64267 0.84567 0.30538 0.0
H82 H 0.62159 0.75904 0.35486 0.0
O83 O 0.7123 0.90999 0.33421 0.0
C84 C 0.67862 0.82837 0.38158 0.0
O85 O 0.63408 0.81892 0.38548 0.0
N86 N 0.61787 0.8883 0.33821 0.0
C87 C 0.56002 0.92962 0.33003 0.0
C88 C 0.60592 0.94797 0.32131 0.0
C89 C 0.63444 0.92706 0.32565 0.0
C90 C 0.57123 0.86653 0.34506 0.0
C91 C 0.5416 0.88681 0.34124 0.0
H92 H 0.6708 0.94455 0.31978 0.0
H93 H 0.55859 0.83595 0.35501 0.0
H94 H 0.75541 0.96186 0.36539 0.0
H95 H 0.66281 0.98194 0.40361 0.0
H96 H 0.61296 0.75544 0.2934 0.0
H97 H 0.62099 0.98019 0.31213 0.0
H98 H 0.50629 0.87136 0.34824 0.0
C99 C 0.70491 0.64854 0.54588 0.0
C100 C 0.69239 0.67958 0.5548 0.0
N101 N 0.72791 0.72554 0.55117 0.0
N102 N 0.74761 0.67497 0.53632 0.0
C103 C 0.76106 0.72191 0.54006 0.0
H104 H 0.68435 0.60915 0.54651 0.0
Co105 Co 0.78065 0.65009 0.52222 0.0
C106 C 0.82065 0.73735 0.49453 0.0
O107 O 0.85887 0.76794 0.50485 0.0
N108 N 0.81341 0.62501 0.50825 0.0
C109 C 0.83986 0.59736 0.48414 0.0
C110 C 0.81135 0.6173 0.48876 0.0
C111 C 0.84328 0.60949 0.5152 0.0
N112 N 0.85995 0.59243 0.50078 0.0
O113 O 0.84049 0.69573 0.53518 0.0
H114 H 0.79 0.62511 0.47857 0.0
H115 H 0.85169 0.60967 0.53058 0.0
O116 O 0.79187 0.69459 0.50094 0.0
C117 C 0.83998 0.68429 0.55313 0.0
O118 O 0.80231 0.64392 0.55962 0.0
N119 N 0.72115 0.60392 0.51075 0.0
C120 C 0.62332 0.53613 0.5037 0.0
C121 C 0.64412 0.58379 0.49639 0.0
C122 C 0.69291 0.61728 0.50024 0.0
C123 C 0.70262 0.55687 0.51679 0.0
C124 C 0.65357 0.5223 0.51348 0.0
H125 H 0.70626 0.65486 0.4963 0.0
H126 H 0.72501 0.54705 0.52549 0.0
H127 H 0.79461 0.7528 0.53491 0.0
H128 H 0.66049 0.66932 0.56375 0.0
H129 H 0.84543 0.58738 0.46961 0.0
H130 H 0.62196 0.59638 0.48916 0.0
H131 H 0.63892 0.4858 0.51933 0.0
C132 C 0.07528 0.7179 0.71541 0.0
C133 C 0.03433 0.70563 0.72636 0.0
N134 N 0.01669 0.73482 0.72095 0.0
N135 N 0.08316 0.75442 0.70309 0.0
C136 C 0.04706 0.76406 0.70683 0.0
H137 H 0.09835 0.70186 0.7166 0.0
Co138 Co 0.13561 0.78701 0.68638 0.0
C139 C 0.09784 0.83074 0.65697 0.0
O140 O 0.13774 0.87369 0.65693 0.0
N141 N 0.18917 0.81977 0.66985 0.0
C142 C 0.23896 0.84777 0.64425 0.0
C143 C 0.19181 0.8165 0.65024 0.0
C144 C 0.23503 0.85232 0.67546 0.0
N145 N 0.26615 0.87046 0.66019 0.0
O146 O 0.15228 0.84689 0.69975 0.0
H147 H 0.16133 0.79318 0.64089 0.0
H148 H 0.24559 0.86192 0.69056 0.0
O149 O 0.09469 0.7969 0.66808 0.0
C150 C 0.17346 0.85009 0.71603 0.0
O151 O 0.1835 0.81567 0.72054 0.0
N152 N 0.1195 0.72721 0.67456 0.0
C153 C 0.08735 0.629 0.66728 0.0
C154 C 0.0611 0.65072 0.66025 0.0
C155 C 0.07747 0.69971 0.6642 0.0
C156 C 0.14743 0.70776 0.68029 0.0
C157 C 0.13187 0.6585 0.6769 0.0
H158 H 0.05409 0.71388 0.66012 0.0
H159 H 0.1801 0.72967 0.68881 0.0
H160 H 0.04426 0.79325 0.69982 0.0
H161 H 0.01891 0.6775 0.73747 0.0
H162 H 0.25185 0.85365 0.62929 0.0
H163 H 0.02616 0.62918 0.65307 0.0
H164 H 0.15332 0.64316 0.68251 0.0
C165 C 0.3497 0.06343 0.88053 0.0
C166 C 0.32016 0.02144 0.89077 0.0
N167 N 0.27359 0.00837 0.88681 0.0
N168 N 0.32168 0.07595 0.86988 0.0
C169 C 0.27536 0.04203 0.87424 0.0
H170 H 0.38911 0.08341 0.88078 0.0
Co171 Co 0.34385 0.12852 0.85298 0.0
C172 C 0.26308 0.09616 0.82355 0.0
O173 O 0.26521 0.13865 0.82276 0.0
N174 N 0.36718 0.18206 0.83619 0.0
C175 C 0.3932 0.23074 0.81018 0.0
C176 C 0.37438 0.1835 0.81667 0.0
C177 C 0.38244 0.22873 0.84126 0.0
N178 N 0.39817 0.25917 0.82571 0.0
O179 O 0.30436 0.14926 0.86663 0.0
H180 H 0.36638 0.15218 0.80772 0.0
H181 H 0.38322 0.24045 0.85618 0.0
O182 O 0.29098 0.08977 0.83514 0.0
C183 C 0.32346 0.17053 0.88276 0.0
O184 O 0.36727 0.17851 0.88721 0.0
N185 N 0.38373 0.10793 0.84072 0.0
C186 C 0.44183 0.06601 0.83444 0.0
C187 C 0.39394 0.04368 0.82727 0.0
C188 C 0.36529 0.06486 0.83074 0.0
C189 C 0.43168 0.13277 0.84602 0.0
C190 C 0.4615 0.11234 0.84307 0.0
H191 H 0.32735 0.04414 0.82672 0.0
H192 H 0.44559 0.16641 0.85419 0.0
H193 H 0.24357 0.04159 0.86812 0.0
H194 H 0.33182 0.0023 0.90056 0.0
H195 H 0.40224 0.24301 0.79518 0.0
H196 H 0.37761 0.00843 0.82012 0.0
H197 H 0.49828 0.13088 0.84887 0.0
C198 C 0.65162 0.72258 0.7824 0.0
C199 C 0.68031 0.71086 0.77122 0.0
N200 N 0.72694 0.73874 0.77711 0.0
N201 N 0.67997 0.7574 0.79537 0.0
C202 C 0.72569 0.7667 0.79178 0.0
H203 H 0.61262 0.70714 0.78101 0.0
Co204 Co 0.65813 0.78681 0.81279 0.0
C205 C 0.73888 0.83396 0.84222 0.0
O206 O 0.73669 0.87426 0.84326 0.0
N207 N 0.63482 0.8161 0.83001 0.0
C208 C 0.60872 0.83806 0.85617 0.0
C209 C 0.62751 0.80975 0.84951 0.0
C210 C 0.61962 0.84767 0.82513 0.0
N211 N 0.60393 0.86204 0.84077 0.0
O212 O 0.69767 0.84781 0.79953 0.0
H213 H 0.63541 0.78612 0.85833 0.0
H214 H 0.61883 0.859 0.81028 0.0
O215 O 0.71109 0.80008 0.83047 0.0
C216 C 0.67843 0.85098 0.78359 0.0
O217 O 0.63431 0.81569 0.77917 0.0
N218 N 0.61832 0.72562 0.82456 0.0
C219 C 0.56034 0.62546 0.83085 0.0
C220 C 0.60794 0.65126 0.83829 0.0
C221 C 0.63653 0.70112 0.83481 0.0
C222 C 0.57069 0.70216 0.8188 0.0
C223 C 0.54092 0.65186 0.82177 0.0
H224 H 0.67422 0.71854 0.83922 0.0
H225 H 0.55697 0.72178 0.81042 0.0
H226 H 0.75754 0.79448 0.79937 0.0
H227 H 0.66769 0.68383 0.75968 0.0
H228 H 0.59961 0.84089 0.8712 0.0
H229 H 0.62407 0.63253 0.84576 0.0
H230 H 0.50439 0.6334 0.81573 0.0
C231 C 0.9329 0.64459 0.95504 0.0
C232 C 0.97459 0.67297 0.94442 0.0
N233 N 0.98676 0.71987 0.94683 0.0
N234 N 0.91972 0.67379 0.96438 0.0
C235 C 0.95298 0.71948 0.9589 0.0
H236 H 0.91352 0.60522 0.95591 0.0
Co237 Co 0.86684 0.65473 0.98085 0.0
C238 C 0.90262 0.73759 0.0094 0.0
O239 O 0.86152 0.73833 0.00968 0.0
N240 N 0.81305 0.6348 0.99719 0.0
C241 C 0.76342 0.61402 0.0228 0.0
C242 C 0.81039 0.62923 0.01683 0.0
C243 C 0.76731 0.62195 0.99155 0.0
N244 N 0.73629 0.60955 0.00685 0.0
O245 O 0.84947 0.69602 0.96634 0.0
H246 H 0.84079 0.63627 0.02621 0.0
H247 H 0.75679 0.62093 0.97643 0.0
O248 O 0.90708 0.70756 0.99842 0.0
C249 C 0.8291 0.67755 0.95 0.0
O250 O 0.81969 0.63314 0.94581 0.0
N251 N 0.88387 0.61308 0.99403 0.0
C252 C 0.9173 0.54903 1.00346 0.0
C253 C 0.94402 0.59829 0.00888 0.0
C254 C 0.92697 0.62983 1.00389 0.0
C255 C 0.85551 0.56465 0.98995 0.0
C256 C 0.87166 0.53191 0.99447 0.0
H257 H 0.95072 0.66821 0.0066 0.0
H258 H 0.82195 0.55204 0.98183 0.0
H259 H 0.95268 0.75186 0.96378 0.0
H260 H 0.99402 0.66023 0.93538 0.0
H261 H 0.75061 0.60746 0.03778 0.0
H262 H 0.97979 0.61331 0.01551 0.0
H263 H 0.84978 0.49408 0.99011 0.0
C264 C 0.28513 0.93323 0.12285 0.0
C265 C 0.29874 0.97504 0.11223 0.0
N266 N 0.26417 0.98746 0.11456 0.0
N267 N 0.24269 0.92012 0.1321 0.0
C268 C 0.23054 0.9536 0.12658 0.0
H269 H 0.30491 0.91365 0.12373 0.0
Co270 Co 0.20853 0.86665 0.14839 0.0
C271 C 0.16154 0.90204 0.1772 0.0
O272 O 0.11978 0.86084 0.17775 0.0
N273 N 0.17427 0.81221 0.16451 0.0
C274 C 0.14528 0.76156 0.18985 0.0
C275 C 0.1769 0.80884 0.18412 0.0
C276 C 0.14166 0.76655 0.15864 0.0
N277 N 0.12297 0.73492 0.17376 0.0
O278 O 0.1502 0.84971 0.1338 0.0
H279 H 0.20005 0.83894 0.19366 0.0
H280 H 0.13245 0.75649 0.14347 0.0
O281 O 0.19575 0.90644 0.16607 0.0
C282 C 0.14853 0.82938 0.11749 0.0
O283 O 0.18359 0.82001 0.11341 0.0
N284 N 0.26698 0.88328 0.1617 0.0
C285 C 0.364 0.91564 0.17166 0.0
C286 C 0.34189 0.94294 0.17675 0.0
C287 C 0.29352 0.92641 0.1715 0.0
C288 C 0.28662 0.85444 0.15789 0.0
C289 C 0.33523 0.87 0.1627 0.0
H290 H 0.27922 0.95052 0.17398 0.0
H291 H 0.26555 0.82085 0.1498 0.0
H292 H 0.19784 0.95335 0.13138 0.0
H293 H 0.33098 0.99433 0.10321 0.0
H294 H 0.13892 0.74817 0.20476 0.0
H295 H 0.36283 0.97874 0.18332 0.0
H296 H 0.35081 0.84765 0.15858 0.0
C297 C 0.35315 0.29073 0.28517 0.0
C298 C 0.323 0.30302 0.27531 0.0
N299 N 0.27665 0.26905 0.27933 0.0
N300 N 0.32581 0.24981 0.2957 0.0
C301 C 0.2792 0.23703 0.29161 0.0
H302 H 0.39254 0.31026 0.28461 0.0
Co303 Co 0.34967 0.2183 0.31129 0.0
C304 C 0.26153 0.18027 0.3384 0.0
O305 O 0.23163 0.14034 0.32881 0.0
N306 N 0.37396 0.1867 0.32671 0.0
C307 C 0.39959 0.16114 0.35195 0.0
C308 C 0.38055 0.18993 0.3463 0.0
C309 C 0.38939 0.15601 0.32077 0.0
N310 N 0.405 0.13971 0.33585 0.0
O311 O 0.30475 0.15769 0.29891 0.0
H312 H 0.37239 0.21208 0.35587 0.0
H313 H 0.39015 0.14654 0.30562 0.0
O314 O 0.30413 0.20886 0.33184 0.0
C315 C 0.32136 0.15422 0.28237 0.0
O316 O 0.36496 0.18918 0.27717 0.0
N317 N 0.39511 0.27879 0.32225 0.0
C318 C 0.46248 0.37684 0.32911 0.0
C319 C 0.41406 0.35663 0.33535 0.0
C320 C 0.38081 0.30777 0.33156 0.0
C321 C 0.44269 0.29692 0.31712 0.0
C322 C 0.47707 0.3461 0.32033 0.0
H323 H 0.34286 0.29481 0.33463 0.0
H324 H 0.45326 0.27397 0.30929 0.0
H325 H 0.24778 0.20489 0.29743 0.0
H326 H 0.33413 0.33377 0.26554 0.0
H327 H 0.40844 0.15616 0.36678 0.0
H328 H 0.40096 0.37926 0.34173 0.0
H329 H 0.51415 0.36039 0.31526 0.0
C330 C 0.06954 0.35027 0.45381 0.0
C331 C 0.02895 0.32236 0.44252 0.0
N332 N 0.01124 0.27516 0.44734 0.0
N333 N 0.07715 0.32084 0.46578 0.0
C334 C 0.04121 0.2753 0.46146 0.0
H335 H 0.09271 0.38942 0.45298 0.0
Co336 Co 0.12962 0.34023 0.48255 0.0
C337 C 0.09619 0.25558 0.51014 0.0
O338 O 0.13858 0.25753 0.511 0.0
N339 N 0.18327 0.36081 0.49913 0.0
C340 C 0.23288 0.38154 0.52483 0.0
C341 C 0.1857 0.36552 0.5188 0.0
C342 C 0.22933 0.37499 0.49354 0.0
N343 N 0.26031 0.38732 0.50887 0.0
O344 O 0.14958 0.30207 0.46744 0.0
H345 H 0.15502 0.35715 0.5282 0.0
H346 H 0.24015 0.37695 0.47843 0.0
O347 O 0.09057 0.28502 0.4992 0.0
C348 C 0.17039 0.32234 0.4514 0.0
O349 O 0.17878 0.36668 0.44777 0.0
N350 N 0.10969 0.37886 0.49635 0.0
C351 C 0.06785 0.43518 0.50652 0.0
C352 C 0.05004 0.38839 0.51439 0.0
C353 C 0.07106 0.36061 0.50899 0.0
C354 C 0.13083 0.42611 0.49023 0.0
C355 C 0.11028 0.45497 0.49504 0.0
H356 H 0.05379 0.32357 0.5142 0.0
H357 H 0.16124 0.44005 0.48016 0.0
H358 H 0.03828 0.24278 0.46799 0.0
H359 H 0.01391 0.33582 0.43155 0.0
H360 H 0.24563 0.38762 0.53983 0.0
H361 H 0.01815 0.37214 0.52374 0.0
H362 H 0.12531 0.49093 0.48862 0.0
C363 C 0.71151 0.06922 0.61951 0.0
C364 C 0.69824 0.02741 0.60899 0.0
N365 N 0.73186 0.01409 0.61222 0.0
N366 N 0.75276 0.08144 0.62959 0.0
C367 C 0.76459 0.0474 0.62467 0.0
H368 H 0.6924 0.08951 0.61969 0.0
Co369 Co 0.78618 0.13466 0.64604 0.0
C370 C 0.8304 0.09836 0.6757 0.0
O371 O 0.87283 0.13886 0.67589 0.0
N372 N 0.81959 0.1888 0.6623 0.0
C373 C 0.84713 0.2391 0.68776 0.0
C374 C 0.81589 0.19189 0.68186 0.0
C375 C 0.85243 0.23452 0.65662 0.0
N376 N 0.87024 0.26598 0.67183 0.0
O377 O 0.84548 0.15064 0.63248 0.0
H378 H 0.7922 0.16168 0.69124 0.0
H379 H 0.86237 0.24471 0.64151 0.0
O380 O 0.79653 0.09422 0.66437 0.0
C381 C 0.84856 0.17084 0.61599 0.0
O382 O 0.81431 0.18093 0.61123 0.0
N383 N 0.72692 0.11911 0.65821 0.0
C384 C 0.62895 0.08721 0.66566 0.0
C385 C 0.65043 0.06047 0.67238 0.0
C386 C 0.69933 0.07674 0.66835 0.0
C387 C 0.7078 0.14764 0.65294 0.0
C388 C 0.65864 0.13219 0.65641 0.0
H389 H 0.71329 0.0529 0.67206 0.0
H390 H 0.7298 0.18061 0.64461 0.0
H391 H 0.79647 0.04695 0.63015 0.0
H392 H 0.66697 0.0088 0.59938 0.0
H393 H 0.85262 0.25227 0.70269 0.0
H394 H 0.62873 0.0252 0.67929 0.0
H395 H 0.64345 0.15401 0.65106 0.0
H396 H 0.34109 0.25488 0.05304 0.0
H397 H 0.19072 0.19925 0.06869 0.0
H398 H 0.33864 0.18317 0.06734 0.0
H399 H 0.18843 0.12874 0.08436 0.0
H400 H 0.1874 0.98721 0.09741 0.0
H401 H 0.18715 0.05559 0.08091 0.0
H402 H 0.33884 0.14859 0.09678 0.0
H403 H 0.33915 0.07913 0.11195 0.0
C404 C 0.30761 0.22717 0.05974 0.0
C405 C 0.26615 0.23224 0.05985 0.0
C406 C 0.30616 0.18627 0.06813 0.0
C407 C 0.2635 0.1501 0.07734 0.0
C408 C 0.22175 0.1552 0.07719 0.0
C409 C 0.22296 0.19563 0.06832 0.0
C410 C 0.22046 0.02247 0.09728 0.0
C411 C 0.26335 0.02819 0.10578 0.0
C412 C 0.22042 0.06178 0.08794 0.0
C413 C 0.26308 0.10793 0.08732 0.0
C414 C 0.30562 0.11353 0.09637 0.0
C415 C 0.30587 0.07394 0.10524 0.0
H416 H 0.19822 0.19045 0.26408 0.0
H417 H 0.25908 0.34332 0.27669 0.0
H418 H 0.12856 0.18901 0.24791 0.0
H419 H 0.18845 0.34194 0.26184 0.0
H420 H 0.08596 0.34204 0.21675 0.0
H421 H 0.15451 0.33973 0.23184 0.0
H422 H 0.05692 0.19163 0.25104 0.0
H423 H 0.98927 0.19366 0.23465 0.0
C424 C 0.19594 0.22346 0.26368 0.0
C425 C 0.23376 0.26706 0.27143 0.0
C426 C 0.15607 0.22276 0.2545 0.0
C427 C 0.15285 0.26552 0.25331 0.0
C428 C 0.19016 0.30863 0.26185 0.0
C429 C 0.23044 0.30949 0.27055 0.0
C430 C 0.07963 0.30904 0.2241 0.0
C431 C 0.03279 0.26807 0.2246 0.0
C432 C 0.11865 0.3077 0.23295 0.0
C433 C 0.11141 0.2657 0.243 0.0
C434 C 0.06425 0.2244 0.24326 0.0
C435 C 0.02542 0.22546 0.23395 0.0
H436 H 0.95386 0.18704 0.46421 0.0
H437 H 0.97569 0.2681 0.41062 0.0
H438 H 0.88485 0.11599 0.44934 0.0
H439 H 0.9057 0.19776 0.39601 0.0
H440 H 0.80997 0.0465 0.36951 0.0
H441 H 0.88108 0.11562 0.38433 0.0
H442 H 0.80185 0.09056 0.43856 0.0
H443 H 0.73152 0.0205 0.42399 0.0
C444 C 0.94402 0.18968 0.44926 0.0
C445 C 0.97026 0.23327 0.43862 0.0
C446 C 0.90418 0.14915 0.4408 0.0
C447 C 0.88979 0.15131 0.42151 0.0
C448 C 0.91618 0.1948 0.41084 0.0
C449 C 0.95593 0.23532 0.41931 0.0
C450 C 0.80791 0.05545 0.38464 0.0
C451 C 0.76504 0.028 0.39555 0.0
C452 C 0.84846 0.09534 0.39307 0.0
C453 C 0.84704 0.10857 0.41261 0.0
C454 C 0.80425 0.081 0.42353 0.0
C455 C 0.76371 0.04121 0.4151 0.0
H456 H 0.65669 0.7478 0.55055 0.0
H457 H 0.80502 0.8005 0.56877 0.0
H458 H 0.65918 0.81976 0.56457 0.0
H459 H 0.80721 0.87121 0.58416 0.0
H460 H 0.80949 0.01364 0.59645 0.0
H461 H 0.81009 0.94515 0.58027 0.0
H462 H 0.65692 0.85335 0.59401 0.0
H463 H 0.6564 0.92297 0.60885 0.0
C464 C 0.68972 0.77497 0.55773 0.0
C465 C 0.73063 0.76906 0.55865 0.0
C466 C 0.69117 0.81597 0.56596 0.0
C467 C 0.7332 0.85131 0.57582 0.0
C468 C 0.77443 0.84538 0.57648 0.0
C469 C 0.77328 0.80488 0.56776 0.0
C470 C 0.77619 0.97861 0.59594 0.0
C471 C 0.73285 0.97325 0.60372 0.0
C472 C 0.77642 0.93926 0.58677 0.0
C473 C 0.73345 0.89345 0.58564 0.0
C474 C 0.69042 0.88819 0.594 0.0
C475 C 0.69003 0.92783 0.60269 0.0
H476 H 0.97896 0.70686 0.7574 0.0
H477 H 0.96062 0.76567 0.70297 0.0
H478 H 0.90862 0.7082 0.771 0.0
H479 H 0.89149 0.76889 0.71686 0.0
H480 H 0.73754 0.71376 0.74028 0.0
H481 H 0.80809 0.71277 0.72683 0.0
H482 H 0.88392 0.76604 0.78189 0.0
H483 H 0.81243 0.76512 0.79562 0.0
C484 C 0.95991 0.71999 0.74832 0.0
C485 C 0.97535 0.73601 0.72907 0.0
C486 C 0.91997 0.72136 0.75621 0.0
C487 C 0.89455 0.73872 0.74502 0.0
C488 C 0.91004 0.75486 0.72579 0.0
C489 C 0.94999 0.75351 0.7179 0.0
C490 C 0.76902 0.7248 0.74959 0.0
C491 C 0.76923 0.73932 0.76906 0.0
C492 C 0.80972 0.72482 0.7418 0.0
C493 C 0.85161 0.73939 0.75329 0.0
C494 C 0.85199 0.75415 0.77273 0.0
C495 C 0.81123 0.75415 0.78053 0.0
H496 H 0.19534 0.00722 0.9026 0.0
H497 H 0.25658 0.91658 0.88824 0.0
H498 H 0.12518 0.93753 0.9177 0.0
H499 H 0.18524 0.84575 0.90188 0.0
H500 H 0.07906 0.73836 0.94523 0.0
H501 H 0.14863 0.80941 0.93078 0.0
H502 H 0.05385 0.8648 0.91325 0.0
H503 H 0.98539 0.79505 0.92911 0.0
C504 C 0.19304 0.97191 0.90242 0.0
C505 C 0.23101 0.96686 0.89447 0.0
C506 C 0.15284 0.93186 0.91094 0.0
C507 C 0.14934 0.88569 0.91118 0.0
C508 C 0.18704 0.88077 0.90256 0.0
C509 C 0.22774 0.9211 0.89456 0.0
C510 C 0.07355 0.76601 0.93829 0.0
C511 C 0.02734 0.76166 0.9382 0.0
C512 C 0.11318 0.80657 0.92984 0.0
C513 C 0.10711 0.84301 0.9206 0.0
C514 C 0.06039 0.83819 0.9205 0.0
C515 C 0.02105 0.79819 0.92944 0.0
H516 H 0.68795 0.62705 0.9778 0.0
H517 H 0.66745 0.5578 0.03434 0.0
H518 H 0.60103 0.59894 0.97616 0.0
H519 H 0.58085 0.53061 0.03277 0.0
H520 H 0.43385 0.52007 0.03185 0.0
H521 H 0.52281 0.56185 0.03275 0.0
H522 H 0.52455 0.51889 0.97287 0.0
H523 H 0.43558 0.47784 0.97186 0.0
C524 C 0.6651 0.60574 0.98986 0.0
C525 C 0.68502 0.59447 0.00616 0.0
C526 C 0.61523 0.58984 0.98893 0.0
C527 C 0.58409 0.56268 1.00434 0.0
C528 C 0.60402 0.55218 0.02079 0.0
C529 C 0.6538 0.56777 0.02167 0.0
C530 C 0.45328 0.52073 0.0187 0.0
C531 C 0.42772 0.49559 1.00179 0.0
C532 C 0.50419 0.54412 0.01931 0.0
C533 C 0.53065 0.54316 1.00296 0.0
C534 C 0.50524 0.52045 0.98568 0.0
C535 C 0.4543 0.49675 0.98513 0.0
H536 H 0.95219 0.43479 0.13718 0.0
H537 H 0.91118 0.43129 0.19771 0.0
H538 H 0.00087 0.52369 0.13861 0.0
H539 H 0.95889 0.52014 0.19901 0.0
H540 H 0.05728 0.68728 0.1446 0.0
H541 H 0.99869 0.60029 0.14259 0.0
H542 H 0.04745 0.57841 0.1988 0.0
H543 H 0.1065 0.6651 0.20075 0.0
C544 C 0.95282 0.45308 0.15067 0.0
C545 C 0.92794 0.42595 0.16734 0.0
C546 C 0.98051 0.50402 0.15147 0.0
C547 C 0.98418 0.52895 0.169 0.0
C548 C 0.95735 0.50196 0.18537 0.0
C549 C 0.92944 0.45106 0.18454 0.0
C550 C 0.0559 0.66403 0.15649 0.0
C551 C 0.08709 0.68352 0.17281 0.0
C552 C 0.02208 0.61409 0.15535 0.0
C553 C 0.01828 0.58243 0.17054 0.0
C554 C 0.04885 0.60193 0.18698 0.0
C555 C 0.08284 0.65177 0.18808 0.0
H556 H 0.47119 0.13786 0.3604 0.0
H557 H 0.38341 0.06802 0.30923 0.0
H558 H 0.50576 0.08444 0.35862 0.0
H559 H 0.41895 0.01498 0.30722 0.0
H560 H 0.4622 0.89771 0.32483 0.0
H561 H 0.42215 0.94702 0.32612 0.0
H562 H 0.56191 0.07638 0.33565 0.0
H563 H 0.60146 0.02759 0.33475 0.0
C564 C 0.45902 0.11089 0.34884 0.0
C565 C 0.42468 0.10735 0.33492 0.0
C566 C 0.47916 0.08056 0.34771 0.0
C567 C 0.46529 0.04573 0.3327 0.0
C568 C 0.43017 0.04136 0.31899 0.0
C569 C 0.41025 0.07206 0.32003 0.0
C570 C 0.48421 0.93669 0.32714 0.0
C571 C 0.53501 0.95876 0.32953 0.0
C572 C 0.46139 0.9649 0.32777 0.0
C573 C 0.48891 0.0155 0.3311 0.0
C574 C 0.53965 0.03743 0.33328 0.0
C575 C 0.56238 0.00948 0.3325 0.0
H576 H 0.30888 0.37016 0.47996 0.0
H577 H 0.32913 0.44036 0.53622 0.0
H578 H 0.39599 0.39936 0.47827 0.0
H579 H 0.41609 0.46891 0.53458 0.0
H580 H 0.56421 0.48152 0.53367 0.0
H581 H 0.47533 0.43973 0.53487 0.0
H582 H 0.47174 0.47877 0.4745 0.0
H583 H 0.56063 0.51964 0.47318 0.0
C584 C 0.33177 0.39197 0.49194 0.0
C585 C 0.31175 0.40316 0.50817 0.0
C586 C 0.38177 0.40853 0.49098 0.0
C587 C 0.41297 0.4364 0.50629 0.0
C588 C 0.39293 0.44685 0.52268 0.0
C589 C 0.34297 0.43051 0.5236 0.0
C590 C 0.54441 0.48003 0.5205 0.0
C591 C 0.56947 0.50394 0.50333 0.0
C592 C 0.49351 0.45666 0.52127 0.0
C593 C 0.46652 0.45643 0.50486 0.0
C594 C 0.49143 0.4781 0.48738 0.0
C595 C 0.54235 0.50173 0.48664 0.0
H596 H 0.88586 0.33512 0.699 0.0
H597 H 0.93646 0.31454 0.64297 0.0
H598 H 0.94474 0.42188 0.69743 0.0
H599 H 0.99472 0.40164 0.64131 0.0
H600 H 0.04011 0.56722 0.63664 0.0
H601 H 0.99129 0.47825 0.63769 0.0
H602 H 0.03404 0.47991 0.69791 0.0
H603 H 0.08209 0.56882 0.69698 0.0
C604 C 0.90975 0.34878 0.68644 0.0
C605 C 0.90597 0.31744 0.67109 0.0
C606 C 0.94362 0.39867 0.68555 0.0
C607 C 0.97445 0.41862 0.66925 0.0
C608 C 0.9711 0.38742 0.65397 0.0
C609 C 0.93746 0.33742 0.65491 0.0
C610 C 0.0396 0.54848 0.65001 0.0
C611 C 0.06486 0.57505 0.66673 0.0
C612 C 0.01185 0.49754 0.65058 0.0
C613 C 0.00844 0.47211 0.66795 0.0
C614 C 0.03547 0.49854 0.68439 0.0
C615 C 0.0635 0.54943 0.68378 0.0
H616 H 0.54076 0.86468 0.86686 0.0
H617 H 0.62316 0.93411 0.81457 0.0
H618 H 0.50524 0.91734 0.86591 0.0
H619 H 0.58613 0.98553 0.81319 0.0
H620 H 0.53915 0.09898 0.82731 0.0
H621 H 0.58174 0.05239 0.8298 0.0
H622 H 0.44622 0.92371 0.84539 0.0
H623 H 0.40442 0.97017 0.84361 0.0
C624 C 0.55158 0.89133 0.85523 0.0
C625 C 0.58453 0.89474 0.8407 0.0
C626 C 0.53081 0.92123 0.85456 0.0
C627 C 0.54246 0.95533 0.83935 0.0
C628 C 0.57652 0.95981 0.82515 0.0
C629 C 0.59727 0.92985 0.8258 0.0
C630 C 0.51863 0.06079 0.83132 0.0
C631 C 0.4683 0.03823 0.83504 0.0
C632 C 0.54291 0.03403 0.83263 0.0
C633 C 0.5174 0.98436 0.83788 0.0
C634 C 0.46715 0.96201 0.84158 0.0
C635 C 0.44299 0.98856 0.84023 0.0
H636 H 0.37953 0.31208 0.85206 0.0
H637 H 0.46153 0.32505 0.79967 0.0
H638 H 0.41657 0.40068 0.85329 0.0
H639 H 0.49708 0.41319 0.80053 0.0
H640 H 0.59797 0.56692 0.82247 0.0
H641 H 0.55628 0.47856 0.82121 0.0
H642 H 0.42051 0.47185 0.83606 0.0
H643 H 0.46296 0.56119 0.83795 0.0
C644 C 0.40534 0.33373 0.84078 0.0
C645 C 0.41788 0.31134 0.82586 0.0
C646 C 0.42609 0.38449 0.84137 0.0
C647 C 0.46001 0.41402 0.82709 0.0
C648 C 0.47158 0.39154 0.81192 0.0
C649 C 0.4508 0.34088 0.8113 0.0
C650 C 0.55936 0.54676 0.82578 0.0
C651 C 0.53391 0.57119 0.83055 0.0
C652 C 0.53529 0.49601 0.82476 0.0
C653 C 0.48501 0.46813 0.8284 0.0
C654 C 0.45937 0.49235 0.83328 0.0
C655 C 0.48356 0.54344 0.83424 0.0
H656 H 0.91864 0.48822 0.97552 0.0
H657 H 0.9698 0.54158 0.03397 0.0
H658 H 0.96761 0.44846 0.97521 0.0
H659 H 0.01964 0.50246 0.03349 0.0
H660 H 0.0757 0.39295 0.02961 0.0
H661 H 0.01778 0.42221 0.0319 0.0
H662 H 0.05737 0.4825 0.97367 0.0
H663 H 0.11584 0.45443 0.97144 0.0
C664 C 0.93943 0.49051 0.98849 0.0
C665 C 0.94038 0.51816 1.00477 0.0
C666 C 0.968 0.46826 0.98821 0.0
C667 C 0.99799 0.47288 1.00422 0.0
C668 C 0.99685 0.49816 0.02094 0.0
C669 C 0.96851 0.52075 0.02118 0.0
C670 C 0.07254 0.41282 0.01734 0.0
C671 C 0.10072 0.42114 1.0003 0.0
C672 C 0.0391 0.4294 0.01866 0.0
C673 C 0.03267 0.45426 1.00291 0.0
C674 C 0.06073 0.46257 0.98591 0.0
C675 C 0.09438 0.44642 0.98465 0.0
H676 H 0.42384 0.96872 0.20215 0.0
H677 H 0.42624 0.91495 0.14427 0.0
H678 H 0.51294 0.0178 0.20181 0.0
H679 H 0.51497 0.96313 0.14413 0.0
H680 H 0.65599 0.11169 0.13931 0.0
H681 H 0.56971 0.05341 0.14207 0.0
H682 H 0.59212 0.01566 0.2004 0.0
H683 H 0.67944 0.07349 0.19756 0.0
C684 C 0.44341 0.96666 0.18953 0.0
C685 C 0.41789 0.9381 0.1732 0.0
C686 C 0.49442 0.99455 0.18939 0.0
C687 C 0.52088 0.99478 0.17284 0.0
C688 C 0.49551 0.96419 0.15698 0.0
C689 C 0.44466 0.9361 0.15717 0.0
C690 C 0.64311 0.09067 0.15266 0.0
C691 C 0.67531 0.09739 0.16814 0.0
C692 C 0.59337 0.05711 0.15422 0.0
C693 C 0.57416 0.02954 0.17137 0.0
C694 C 0.60591 0.03652 0.18702 0.0
C695 C 0.65598 0.06988 0.18539 0.0
H696 H 0.6285 0.69066 0.35339 0.0
H697 H 0.56104 0.67163 0.29652 0.0
H698 H 0.59925 0.60353 0.35496 0.0
H699 H 0.53254 0.58459 0.29804 0.0
H700 H 0.51962 0.43585 0.29961 0.0
H701 H 0.56191 0.52491 0.29841 0.0
H702 H 0.51867 0.52823 0.3581 0.0
H703 H 0.4771 0.43926 0.35938 0.0
C704 C 0.6073 0.66805 0.34124 0.0
C705 C 0.59678 0.68841 0.32489 0.0
C706 C 0.59074 0.61805 0.34213 0.0
C707 C 0.56359 0.58716 0.32664 0.0
C708 C 0.554 0.60754 0.3101 0.0
C709 C 0.5703 0.65753 0.30925 0.0
C710 C 0.52029 0.45567 0.31264 0.0
C711 C 0.49503 0.43059 0.32959 0.0
C712 C 0.54396 0.50662 0.31187 0.0
C713 C 0.54319 0.53356 0.32809 0.0
C714 C 0.52014 0.50856 0.34539 0.0
C715 C 0.49616 0.45763 0.34611 0.0
H716 H 0.93044 0.6138 0.52807 0.0
H717 H 0.85983 0.5232 0.47766 0.0
H718 H 0.98254 0.57715 0.53102 0.0
H719 H 0.9121 0.48764 0.48035 0.0
H720 H 0.96931 0.3933 0.50359 0.0
H721 H 0.92036 0.43259 0.50378 0.0
H722 H 0.05011 0.57267 0.51211 0.0
H723 H 0.09967 0.53287 0.51245 0.0
C724 C 0.92598 0.58607 0.51767 0.0
C725 C 0.89096 0.57137 0.50264 0.0
C726 C 0.95608 0.56548 0.51925 0.0
C727 C 0.95122 0.52938 0.50598 0.0
C728 C 0.91636 0.51497 0.49094 0.0
C729 C 0.88669 0.53572 0.48928 0.0
C730 C 0.98755 0.43236 0.50591 0.0
C731 C 0.0385 0.45989 0.50814 0.0
C732 C 0.95944 0.45495 0.50575 0.0
C733 C 0.98142 0.50574 0.50778 0.0
C734 C 0.03219 0.53339 0.51059 0.0
C735 C 0.06055 0.51069 0.51064 0.0
H736 H 0.31459 0.93643 0.68914 0.0
H737 H 0.33517 0.88671 0.63289 0.0
H738 H 0.40163 0.99452 0.69096 0.0
H739 H 0.42203 0.94552 0.63463 0.0
H740 H 0.56943 0.08299 0.63589 0.0
H741 H 0.48055 0.03497 0.63461 0.0
H742 H 0.47772 0.99021 0.6946 0.0
H743 H 0.56663 0.03893 0.69598 0.0
C744 C 0.33749 0.93757 0.67718 0.0
C745 C 0.31755 0.90631 0.66092 0.0
C746 C 0.38745 0.97114 0.67822 0.0
C747 C 0.4187 0.97465 0.66295 0.0
C748 C 0.39878 0.9442 0.64652 0.0
C749 C 0.34887 0.91038 0.64554 0.0
C750 C 0.54977 0.06396 0.64897 0.0
C751 C 0.57503 0.06475 0.66605 0.0
C752 C 0.49891 0.03594 0.64815 0.0
C753 C 0.47217 0.00841 0.66443 0.0
C754 C 0.49726 0.01119 0.68184 0.0
C755 C 0.54816 0.0389 0.68261 0.0
H756 H 0.22446 0.13324 0.88672 0.0
H757 H 0.36373 0.23912 0.91107 0.0
H758 H 0.18288 0.15357 0.91234 0.0
H759 H 0.32272 0.25925 0.9363 0.0
H760 H 0.24161 0.32096 0.96665 0.0
H761 H 0.27137 0.29867 0.93806 0.0
H762 H 0.17431 0.14619 0.9505 0.0
H763 H 0.14405 0.16862 0.97955 0.0
C764 C 0.2461 0.16121 0.89735 0.0
C765 C 0.29733 0.18475 0.89686 0.0
C766 C 0.22236 0.17249 0.91208 0.0
C767 C 0.24956 0.20812 0.92628 0.0
C768 C 0.30071 0.23206 0.92546 0.0
C769 C 0.32424 0.22038 0.91102 0.0
C770 C 0.22628 0.2826 0.96338 0.0
C771 C 0.19112 0.24656 0.9757 0.0
C772 C 0.24336 0.26987 0.94691 0.0
C773 C 0.22573 0.22071 0.94219 0.0
C774 C 0.1885 0.18443 0.95378 0.0
C775 C 0.17133 0.19726 0.97043 0.0
H776 H 0.09374 0.22186 0.05445 0.0
H777 H 0.12191 0.35987 0.07829 0.0
H778 H 0.02941 0.17887 0.07917 0.0
H779 H 0.05837 0.31757 0.10253 0.0
H780 H 0.91389 0.2347 0.13099 0.0
H781 H 0.96681 0.26369 0.10256 0.0
H782 H 0.02633 0.17164 0.1179 0.0
H783 H 0.97287 0.14225 0.14676 0.0
C784 C 0.08573 0.24288 0.06476 0.0
C785 C 0.11269 0.29416 0.06445 0.0
C786 C 0.04932 0.21838 0.07896 0.0
C787 C 0.03877 0.2449 0.09271 0.0
C788 C 0.06521 0.29609 0.09201 0.0
C789 C 0.10181 0.32035 0.07816 0.0
C790 C 0.93791 0.22021 0.12834 0.0
C791 C 0.93988 0.18692 0.14144 0.0
C792 C 0.96816 0.23679 0.11197 0.0
C793 C 0.00118 0.22047 0.10816 0.0
C794 C 0.0011 0.18475 0.12047 0.0
C795 C 0.97066 0.16809 0.13701 0.0
H796 H 0.76368 1.00012 0.32499 0.0
H797 H 0.78246 0.89945 0.28846 0.0
H798 H 0.7944 0.06004 0.29896 0.0
H799 H 0.81537 0.96074 0.26232 0.0
H800 H 0.8013 0.05874 0.21335 0.0
H801 H 0.78627 0.99821 0.23893 0.0
H802 H 0.86282 0.11479 0.28074 0.0
H803 H 0.87539 0.17425 0.25558 0.0
C804 C 0.77539 0.99115 0.31149 0.0
C805 C 0.77026 0.94485 0.30877 0.0
C806 C 0.79345 0.02578 0.29653 0.0
C807 C 0.80743 0.0154 0.27842 0.0
C808 C 0.8044 0.96979 0.27597 0.0
C809 C 0.78613 0.93489 0.29104 0.0
C810 C 0.81528 0.07111 0.22798 0.0
C811 C 0.83854 0.12094 0.23264 0.0
C812 C 0.80694 0.03657 0.24264 0.0
C813 C 0.82245 0.05149 0.26207 0.0
C814 C 0.84893 0.10174 0.26616 0.0
C815 C 0.85635 0.1359 0.25171 0.0
H816 H 0.7776 0.86618 0.3862 0.0
H817 H 0.63778 0.75947 0.40976 0.0
H818 H 0.81859 0.84571 0.41212 0.0
H819 H 0.67821 0.73926 0.43527 0.0
H820 H 0.75844 0.67776 0.46645 0.0
H821 H 0.72974 0.70016 0.43748 0.0
H822 H 0.82597 0.85261 0.45028 0.0
H823 H 0.85518 0.83007 0.47968 0.0
C824 C 0.75572 0.83804 0.39673 0.0
C825 C 0.70449 0.81432 0.39593 0.0
C826 C 0.77912 0.82666 0.41162 0.0
C827 C 0.7516 0.79076 0.42567 0.0
C828 C 0.70047 0.76665 0.42454 0.0
C829 C 0.67727 0.77841 0.40995 0.0
C830 C 0.77384 0.71613 0.46316 0.0
C831 C 0.80842 0.75214 0.47567 0.0
C832 C 0.75737 0.72893 0.44648 0.0
C833 C 0.77503 0.77811 0.44176 0.0
C834 C 0.81177 0.81436 0.45355 0.0
C835 C 0.82834 0.80146 0.4704 0.0
H836 H 0.82672 0.6978 0.59105 0.0
H837 H 0.93878 0.74297 0.54706 0.0
H838 H 0.88815 0.74171 0.61593 0.0
H839 H 0.00135 0.78565 0.57233 0.0
H840 H 0.10254 0.87802 0.62244 0.0
H841 H 0.04029 0.85044 0.59666 0.0
H842 H 0.9443 0.72608 0.63227 0.0
H843 H 0.00504 0.75447 0.658 0.0
C844 C 0.86473 0.7173 0.58672 0.0
C845 C 0.8781 0.71637 0.56721 0.0
C846 C 0.90004 0.74232 0.60102 0.0
C847 C 0.94992 0.76632 0.59631 0.0
C848 C 0.9633 0.76767 0.57651 0.0
C849 C 0.92759 0.74313 0.56203 0.0
C850 C 0.0677 0.84534 0.62485 0.0
C851 C 0.05886 0.81827 0.64223 0.0
C852 C 0.03225 0.82923 0.60999 0.0
C853 C 0.98717 0.78594 0.61229 0.0
C854 C 0.97812 0.75995 0.62999 0.0
C855 C 0.01328 0.77599 0.64474 0.0
H856 H 0.2334 0.87418 0.74742 0.0
H857 H 0.13868 0.91456 0.71735 0.0
H858 H 0.24753 0.93272 0.77299 0.0
H859 H 0.1523 0.97342 0.74351 0.0
H860 H 0.24068 0.1095 0.78602 0.0
H861 H 0.21521 0.05064 0.75907 0.0
H862 H 0.20206 0.93996 0.79969 0.0
H863 H 0.22862 0.99883 0.82632 0.0
C864 C 0.21547 0.89561 0.74626 0.0
C865 C 0.1846 0.8894 0.7304 0.0
C866 C 0.22327 0.92899 0.76107 0.0
C867 C 0.20016 0.95704 0.76059 0.0
C868 C 0.17052 0.95224 0.74436 0.0
C869 C 0.16278 0.91865 0.72938 0.0
C870 C 0.23114 0.07224 0.78922 0.0
C871 C 0.23718 0.05887 0.80823 0.0
C872 C 0.21664 0.03854 0.77377 0.0
C873 C 0.20774 0.9909 0.77712 0.0
C874 C 0.21002 0.97674 0.79646 0.0
C875 C 0.22483 0.01034 0.81178 0.0
H876 H 0.76103 0.86869 0.87985 0.0
H877 H 0.77321 0.77097 0.83921 0.0
H878 H 0.78659 0.83493 0.90663 0.0
H879 H 0.80004 0.73836 0.86567 0.0
H880 H 0.77128 0.64116 0.91799 0.0
H881 H 0.75683 0.68512 0.89225 0.0
H882 H 0.84875 0.82122 0.92221 0.0
H883 H 0.86247 0.77645 0.94853 0.0
C884 C 0.77061 0.84107 0.87654 0.0
C885 C 0.76462 0.82207 0.85747 0.0
C886 C 0.78517 0.82164 0.89189 0.0
C887 C 0.79428 0.78309 0.88841 0.0
C888 C 0.79191 0.76697 0.86902 0.0
C889 C 0.77697 0.78598 0.85379 0.0
C890 C 0.78841 0.68046 0.91919 0.0
C891 C 0.81823 0.70529 0.93528 0.0
C892 C 0.78047 0.70582 0.90428 0.0
C893 C 0.80243 0.75692 0.90489 0.0
C894 C 0.8313 0.78187 0.92126 0.0
C895 C 0.83912 0.75627 0.93634 0.0
H896 H 0.89102 0.7635 0.04649 0.0
H897 H 0.9991 0.76812 0.00674 0.0
H898 H 0.95009 0.78921 0.07338 0.0
H899 H 0.05839 0.79528 0.03325 0.0
H900 H 0.12518 0.76855 0.08645 0.0
H901 H 0.06685 0.7534 0.06059 0.0
H902 H 0.02661 0.85053 0.0886 0.0
H903 H 0.08489 0.86482 0.11508 0.0
C904 C 0.92782 0.77147 0.04338 0.0
C905 C 0.94036 0.76334 0.02458 0.0
C906 C 0.96166 0.78612 0.05879 0.0
C907 C 0.00869 0.7932 0.0556 0.0
C908 C 0.02207 0.78869 0.0364 0.0
C909 C 0.98825 0.77359 0.02114 0.0
C910 C 0.10387 0.78666 0.08719 0.0
C911 C 0.10989 0.8181 0.10277 0.0
C912 C 0.07063 0.77831 0.07222 0.0
C913 C 0.04268 0.80156 0.07222 0.0
C914 C 0.04757 0.83205 0.08812 0.0
C915 C 0.08087 0.84021 0.10329 0.0
H916 H 0.22682 0.9985 0.17381 0.0
H917 H 0.12531 0.89161 0.21451 0.0
H918 H 0.25993 0.05875 0.19991 0.0
H919 H 0.15962 0.95183 0.241 0.0
H920 H 0.22186 0.09103 0.28122 0.0
H921 H 0.17594 0.03056 0.25559 0.0
H922 H 0.31147 0.06621 0.22704 0.0
H923 H 0.3565 0.12642 0.25204 0.0
C924 C 0.2111 0.98813 0.18832 0.0
C925 C 0.1738 0.94027 0.19216 0.0
C926 C 0.23035 0.02251 0.20335 0.0
C927 C 0.21334 0.00977 0.22269 0.0
C928 C 0.17361 0.96283 0.22629 0.0
C929 C 0.15389 0.92836 0.21111 0.0
C930 C 0.24161 0.08543 0.26952 0.0
C931 C 0.29274 0.11379 0.26853 0.0
C932 C 0.21538 0.05094 0.25484 0.0
C933 C 0.23995 0.04432 0.239 0.0
C934 C 0.29116 0.07138 0.23863 0.0
C935 C 0.3171 0.10571 0.2531 0.0
H936 H 0.13599 0.22379 0.44728 0.0
H937 H 0.23501 0.36411 0.42179 0.0
H938 H 0.15622 0.18356 0.42105 0.0
H939 H 0.25496 0.32438 0.39597 0.0
H940 H 0.3208 0.24704 0.3653 0.0
H941 H 0.2981 0.27636 0.39388 0.0
H942 H 0.14619 0.17366 0.38285 0.0
H943 H 0.16904 0.14386 0.35376 0.0
C944 C 0.16234 0.24598 0.43623 0.0
C945 C 0.18407 0.29711 0.43663 0.0
C946 C 0.17355 0.22298 0.42117 0.0
C947 C 0.20729 0.25086 0.40652 0.0
C948 C 0.22925 0.30191 0.40716 0.0
C949 C 0.21766 0.32468 0.42194 0.0
C950 C 0.28247 0.23047 0.36884 0.0
C951 C 0.24666 0.19377 0.35691 0.0
C952 C 0.26952 0.24728 0.38532 0.0
C953 C 0.22036 0.22783 0.39046 0.0
C954 C 0.18442 0.18927 0.37923 0.0
C955 C 0.19747 0.17238 0.36256 0.0
H956 H 0.87185 0.22729 0.58353 0.0
H957 H 0.91264 0.13567 0.6158 0.0
H958 H 0.93028 0.23908 0.55825 0.0
H959 H 0.97131 0.14686 0.58996 0.0
H960 H 0.10837 0.23386 0.54787 0.0
H961 H 0.04843 0.20873 0.57435 0.0
H962 H 0.93874 0.1922 0.53247 0.0
H963 H 0.99878 0.21863 0.5063 0.0
C964 C 0.89331 0.20951 0.58522 0.0
C965 C 0.88737 0.18032 0.60164 0.0
C966 C 0.9266 0.21592 0.57058 0.0
C967 C 0.95479 0.19304 0.57181 0.0
C968 C 0.95005 0.16489 0.58854 0.0
C969 C 0.91656 0.15856 0.60333 0.0
C970 C 0.07107 0.22346 0.5443 0.0
C971 C 0.05828 0.2286 0.52507 0.0
C972 C 0.03676 0.20921 0.55947 0.0
C973 C 0.98909 0.19964 0.55561 0.0
C974 C 0.9755 0.20071 0.53606 0.0
C975 C 0.00973 0.21534 0.52101 0.0
H976 H 0.86946 0.10964 0.71257 0.0
H977 H 0.76104 0.00273 0.67374 0.0
H978 H 0.83625 0.05125 0.73969 0.0
H979 H 0.72892 0.9442 0.70046 0.0
H980 H 0.77747 0.91427 0.78067 0.0
H981 H 0.82021 0.97365 0.75442 0.0
H982 H 0.68142 0.93752 0.72863 0.0
H983 H 0.6394 0.87808 0.75427 0.0
C984 C 0.83941 0.07326 0.70971 0.0
C985 C 0.81747 0.06089 0.69109 0.0
C986 C 0.82032 0.03982 0.72525 0.0
C987 C 0.77915 0.99337 0.72239 0.0
C988 C 0.75966 0.98012 0.70338 0.0
C989 C 0.77835 0.01352 0.68799 0.0
C990 C 0.7563 0.91954 0.76946 0.0
C991 C 0.7051 0.89119 0.76943 0.0
C992 C 0.78072 0.95346 0.75442 0.0
C993 C 0.75431 0.95963 0.73914 0.0
C994 C 0.70308 0.9327 0.73975 0.0
C995 C 0.67889 0.89884 0.7546 0.0
loop_
_geom_bond_atom_site_label_1
_geom_bond_atom_site_label_2
_geom_bond_distance
_geom_bond_site_symmetry_2
_ccdc_geom_bond_type
C0 C1 1.351 . S
C0 N3 1.368 . S
C0 H5 0.931 . S
C1 C0 1.351 . S
C1 N2 1.373 . S
C1 H29 0.930 . S
N2 C1 1.373 . S
N2 C4 1.340 . S
N3 C0 1.368 . S
N3 C4 1.321 . S
N3 Co6 2.135 . S
C4 N2 1.340 . S
C4 N3 1.321 . S
C4 H28 0.930 . S
H5 C0 0.931 . S
Co6 N3 2.135 . S
Co6 N9 2.121 1_554 S
Co6 O14 2.055 . S
Co6 O17 2.039 1_554 S
Co6 N20 2.140 . S
C7 O8 1.227 . S
C7 O17 1.265 . S
O8 C7 1.227 . S
N9 Co6 2.121 1_556 S
N9 C11 1.375 . S
N9 C12 1.313 . S
C10 C11 1.338 . S
C10 N13 1.377 . S
C10 H30 0.930 . S
C11 N9 1.375 . S
C11 C10 1.338 . S
C11 H15 0.931 . S
C12 N9 1.313 . S
C12 N13 1.344 . S
C12 H16 0.930 1_556 S
N13 C10 1.377 . S
N13 C12 1.344 . S
O14 Co6 2.055 . S
O14 C18 1.253 . S
H15 C11 0.931 . S
H16 C12 0.930 1_554 S
O17 Co6 2.039 1_556 S
O17 C7 1.265 . S
C18 O14 1.253 . S
C18 O19 1.227 . S
O19 C18 1.227 . S
N20 Co6 2.140 . S
N20 C23 1.346 . S
N20 C24 1.345 . S
C21 C22 1.387 . S
C21 C25 1.391 . S
C22 C21 1.387 . S
C22 C23 1.369 . S
C22 H31 0.929 . S
C23 N20 1.346 . S
C23 C22 1.369 . S
C23 H26 0.928 . S
C24 N20 1.345 . S
C24 C25 1.371 . S
C24 H27 0.931 . S
C25 C21 1.391 . S
C25 C24 1.371 . S
C25 H32 0.930 . S
H26 C23 0.928 . S
H27 C24 0.931 . S
H28 C4 0.930 . S
H29 C1 0.930 . S
H30 C10 0.930 . S
H31 C22 0.929 . S
H32 C25 0.930 . S
C33 C34 1.351 1_655 S
C33 N36 1.368 . S
C33 H38 0.931 . S
C34 C33 1.351 1_455 S
C34 N35 1.373 . S
C34 H62 0.930 . S
N35 C34 1.373 . S
N35 C37 1.340 . S
N36 C33 1.368 . S
N36 C37 1.321 1_655 S
N36 Co39 2.135 . S
C37 N35 1.340 . S
C37 N36 1.321 1_455 S
C37 H61 0.930 . S
H38 C33 0.931 . S
Co39 N36 2.135 . S
Co39 N42 2.121 . S
Co39 O47 2.055 . S
Co39 O50 2.039 . S
Co39 N53 2.140 . S
C40 O41 1.227 . S
C40 O50 1.265 . S
O41 C40 1.227 . S
N42 Co39 2.121 . S
N42 C44 1.375 . S
N42 C45 1.313 . S
C43 C44 1.338 . S
C43 N46 1.377 . S
C43 H63 0.930 . S
C44 N42 1.375 . S
C44 C43 1.338 . S
C44 H48 0.931 . S
C45 N42 1.313 . S
C45 N46 1.344 . S
C45 H49 0.930 . S
N46 C43 1.377 . S
N46 C45 1.344 . S
O47 Co39 2.055 . S
O47 C51 1.253 . S
H48 C44 0.931 . S
H49 C45 0.930 . S
O50 Co39 2.039 . S
O50 C40 1.265 . S
C51 O47 1.253 . S
C51 O52 1.227 . S
O52 C51 1.227 . S
N53 Co39 2.140 . S
N53 C56 1.346 . S
N53 C57 1.345 . S
C54 C55 1.387 . S
C54 C58 1.391 . S
C55 C54 1.387 . S
C55 C56 1.369 . S
C55 H64 0.929 1_655 S
C56 N53 1.346 . S
C56 C55 1.369 . S
C56 H59 0.928 . S
C57 N53 1.345 . S
C57 C58 1.371 . S
C57 H60 0.931 . S
C58 C54 1.391 . S
C58 C57 1.371 . S
C58 H65 0.930 . S
H59 C56 0.928 . S
H60 C57 0.931 . S
H61 C37 0.930 . S
H62 C34 0.930 . S
H63 C43 0.930 . S
H64 C55 0.929 1_455 S
H65 C58 0.930 . S
C66 C67 1.351 1_565 S
C66 N69 1.368 . S
C66 H71 0.931 . S
C67 C66 1.351 1_545 S
C67 N68 1.373 . S
C67 H95 0.930 . S
N68 C67 1.373 . S
N68 C70 1.340 . S
N69 C66 1.368 . S
N69 C70 1.321 1_565 S
N69 Co72 2.135 . S
C70 N68 1.340 . S
C70 N69 1.321 1_545 S
C70 H94 0.930 . S
H71 C66 0.931 . S
Co72 N69 2.135 . S
Co72 N75 2.121 . S
Co72 O80 2.055 . S
Co72 O83 2.039 . S
Co72 N86 2.140 . S
C73 O74 1.227 . S
C73 O83 1.265 . S
O74 C73 1.227 . S
N75 Co72 2.121 . S
N75 C77 1.375 . S
N75 C78 1.313 . S
C76 C77 1.338 . S
C76 N79 1.377 . S
C76 H96 0.930 . S
C77 N75 1.375 . S
C77 C76 1.338 . S
C77 H81 0.931 . S
C78 N75 1.313 . S
C78 N79 1.344 . S
C78 H82 0.930 . S
N79 C76 1.377 . S
N79 C78 1.344 . S
O80 Co72 2.055 . S
O80 C84 1.253 . S
H81 C77 0.931 . S
H82 C78 0.930 . S
O83 Co72 2.039 . S
O83 C73 1.265 . S
C84 O80 1.253 . S
C84 O85 1.227 . S
O85 C84 1.227 . S
N86 Co72 2.140 . S
N86 C89 1.346 . S
N86 C90 1.345 . S
C87 C88 1.387 . S
C87 C91 1.391 . S
C88 C87 1.387 . S
C88 C89 1.369 . S
C88 H97 0.929 1_565 S
C89 N86 1.346 . S
C89 C88 1.369 . S
C89 H92 0.928 . S
C90 N86 1.345 . S
C90 C91 1.371 . S
C90 H93 0.931 . S
C91 C87 1.391 . S
C91 C90 1.371 . S
C91 H98 0.930 . S
H92 C89 0.928 . S
H93 C90 0.931 . S
H94 C70 0.930 . S
H95 C67 0.930 . S
H96 C76 0.930 . S
H97 C88 0.929 1_545 S
H98 C91 0.930 . S
C99 C100 1.351 . S
C99 N102 1.368 . S
C99 H104 0.931 . S
C100 C99 1.351 . S
C100 N101 1.373 . S
C100 H128 0.930 . S
N101 C100 1.373 . S
N101 C103 1.340 . S
N102 C99 1.368 . S
N102 C103 1.321 . S
N102 Co105 2.135 . S
C103 N101 1.340 . S
C103 N102 1.321 . S
C103 H127 0.930 . S
H104 C99 0.931 . S
Co105 N102 2.135 . S
Co105 N108 2.121 . S
Co105 O113 2.055 . S
Co105 O116 2.039 . S
Co105 N119 2.140 . S
C106 O107 1.227 . S
C106 O116 1.265 . S
O107 C106 1.227 . S
N108 Co105 2.121 . S
N108 C110 1.375 . S
N108 C111 1.313 . S
C109 C110 1.338 . S
C109 N112 1.377 . S
C109 H129 0.930 . S
C110 N108 1.375 . S
C110 C109 1.338 . S
C110 H114 0.931 . S
C111 N108 1.313 . S
C111 N112 1.344 . S
C111 H115 0.930 . S
N112 C109 1.377 . S
N112 C111 1.344 . S
O113 Co105 2.055 . S
O113 C117 1.253 . S
H114 C110 0.931 . S
H115 C111 0.930 . S
O116 Co105 2.039 . S
O116 C106 1.265 . S
C117 O113 1.253 . S
C117 O118 1.227 . S
O118 C117 1.227 . S
N119 Co105 2.140 . S
N119 C122 1.346 . S
N119 C123 1.345 . S
C120 C121 1.387 . S
C120 C124 1.391 . S
C121 C120 1.387 . S
C121 C122 1.369 . S
C121 H130 0.929 . S
C122 N119 1.346 . S
C122 C121 1.369 . S
C122 H125 0.928 . S
C123 N119 1.345 . S
C123 C124 1.371 . S
C123 H126 0.931 . S
C124 C120 1.391 . S
C124 C123 1.371 . S
C124 H131 0.930 . S
H125 C122 0.928 . S
H126 C123 0.931 . S
H127 C103 0.930 . S
H128 C100 0.930 . S
H129 C109 0.930 . S
H130 C121 0.929 . S
H131 C124 0.930 . S
C132 C133 1.351 1_455 S
C132 N135 1.368 . S
C132 H137 0.931 . S
C133 C132 1.351 1_655 S
C133 N134 1.373 . S
C133 H161 0.930 . S
N134 C133 1.373 . S
N134 C136 1.340 . S
N135 C132 1.368 . S
N135 C136 1.321 1_455 S
N135 Co138 2.135 . S
C136 N134 1.340 . S
C136 N135 1.321 1_655 S
C136 H160 0.930 . S
H137 C132 0.931 . S
Co138 N135 2.135 . S
Co138 N141 2.121 . S
Co138 O146 2.055 . S
Co138 O149 2.039 . S
Co138 N152 2.140 . S
C139 O140 1.227 . S
C139 O149 1.265 . S
O140 C139 1.227 . S
N141 Co138 2.121 . S
N141 C143 1.375 . S
N141 C144 1.313 . S
C142 C143 1.338 . S
C142 N145 1.377 . S
C142 H162 0.930 . S
C143 N141 1.375 . S
C143 C142 1.338 . S
C143 H147 0.931 . S
C144 N141 1.313 . S
C144 N145 1.344 . S
C144 H148 0.930 . S
N145 C142 1.377 . S
N145 C144 1.344 . S
O146 Co138 2.055 . S
O146 C150 1.253 . S
H147 C143 0.931 . S
H148 C144 0.930 . S
O149 Co138 2.039 . S
O149 C139 1.265 . S
C150 O146 1.253 . S
C150 O151 1.227 . S
O151 C150 1.227 . S
N152 Co138 2.140 . S
N152 C155 1.346 . S
N152 C156 1.345 . S
C153 C154 1.387 . S
C153 C157 1.391 . S
C154 C153 1.387 . S
C154 C155 1.369 . S
C154 H163 0.929 1_455 S
C155 N152 1.346 . S
C155 C154 1.369 . S
C155 H158 0.928 . S
C156 N152 1.345 . S
C156 C157 1.371 . S
C156 H159 0.931 . S
C157 C153 1.391 . S
C157 C156 1.371 . S
C157 H164 0.930 . S
H158 C155 0.928 . S
H159 C156 0.931 . S
H160 C136 0.930 . S
H161 C133 0.930 . S
H162 C142 0.930 . S
H163 C154 0.929 1_655 S
H164 C157 0.930 . S
C165 C166 1.351 1_545 S
C165 N168 1.368 . S
C165 H170 0.931 . S
C166 C165 1.351 1_565 S
C166 N167 1.373 . S
C166 H194 0.930 . S
N167 C166 1.373 . S
N167 C169 1.340 . S
N168 C165 1.368 . S
N168 C169 1.321 1_545 S
N168 Co171 2.135 . S
C169 N167 1.340 . S
C169 N168 1.321 1_565 S
C169 H193 0.930 . S
H170 C165 0.931 . S
Co171 N168 2.135 . S
Co171 N174 2.121 . S
Co171 O179 2.055 . S
Co171 O182 2.039 . S
Co171 N185 2.140 . S
C172 O173 1.227 . S
C172 O182 1.265 . S
O173 C172 1.227 . S
N174 Co171 2.121 . S
N174 C176 1.375 . S
N174 C177 1.313 . S
C175 C176 1.338 . S
C175 N178 1.377 . S
C175 H195 0.930 . S
C176 N174 1.375 . S
C176 C175 1.338 . S
C176 H180 0.931 . S
C177 N174 1.313 . S
C177 N178 1.344 . S
C177 H181 0.930 . S
N178 C175 1.377 . S
N178 C177 1.344 . S
O179 Co171 2.055 . S
O179 C183 1.253 . S
H180 C176 0.931 . S
H181 C177 0.930 . S
O182 Co171 2.039 . S
O182 C172 1.265 . S
C183 O179 1.253 . S
C183 O184 1.227 . S
O184 C183 1.227 . S
N185 Co171 2.140 . S
N185 C188 1.346 . S
N185 C189 1.345 . S
C186 C187 1.387 . S
C186 C190 1.391 . S
C187 C186 1.387 . S
C187 C188 1.369 . S
C187 H196 0.929 1_545 S
C188 N185 1.346 . S
C188 C187 1.369 . S
C188 H191 0.928 . S
C189 N185 1.345 . S
C189 C190 1.371 . S
C189 H192 0.931 . S
C190 C186 1.391 . S
C190 C189 1.371 . S
C190 H197 0.930 . S
H191 C188 0.928 . S
H192 C189 0.931 . S
H193 C169 0.930 . S
H194 C166 0.930 . S
H195 C175 0.930 . S
H196 C187 0.929 1_565 S
H197 C190 0.930 . S
C198 C199 1.351 . S
C198 N201 1.368 . S
C198 H203 0.931 . S
C199 C198 1.351 . S
C199 N200 1.373 . S
C199 H227 0.930 . S
N200 C199 1.373 . S
N200 C202 1.340 . S
N201 C198 1.368 . S
N201 C202 1.321 . S
N201 Co204 2.135 . S
C202 N200 1.340 . S
C202 N201 1.321 . S
C202 H226 0.930 . S
H203 C198 0.931 . S
Co204 N201 2.135 . S
Co204 N207 2.121 . S
Co204 O212 2.055 . S
Co204 O215 2.039 . S
Co204 N218 2.140 . S
C205 O206 1.227 . S
C205 O215 1.265 . S
O206 C205 1.227 . S
N207 Co204 2.121 . S
N207 C209 1.375 . S
N207 C210 1.313 . S
C208 C209 1.338 . S
C208 N211 1.377 . S
C208 H228 0.930 . S
C209 N207 1.375 . S
C209 C208 1.338 . S
C209 H213 0.931 . S
C210 N207 1.313 . S
C210 N211 1.344 . S
C210 H214 0.930 . S
N211 C208 1.377 . S
N211 C210 1.344 . S
O212 Co204 2.055 . S
O212 C216 1.253 . S
H213 C209 0.931 . S
H214 C210 0.930 . S
O215 Co204 2.039 . S
O215 C205 1.265 . S
C216 O212 1.253 . S
C216 O217 1.227 . S
O217 C216 1.227 . S
N218 Co204 2.140 . S
N218 C221 1.346 . S
N218 C222 1.345 . S
C219 C220 1.387 . S
C219 C223 1.391 . S
C220 C219 1.387 . S
C220 C221 1.369 . S
C220 H229 0.929 . S
C221 N218 1.346 . S
C221 C220 1.369 . S
C221 H224 0.928 . S
C222 N218 1.345 . S
C222 C223 1.371 . S
C222 H225 0.931 . S
C223 C219 1.391 . S
C223 C222 1.371 . S
C223 H230 0.930 . S
H224 C221 0.928 . S
H225 C222 0.931 . S
H226 C202 0.930 . S
H227 C199 0.930 . S
H228 C208 0.930 . S
H229 C220 0.929 . S
H230 C223 0.930 . S
C231 C232 1.351 1_655 S
C231 N234 1.368 . S
C231 H236 0.931 . S
C232 C231 1.351 1_455 S
C232 N233 1.373 . S
C232 H260 0.930 . S
N233 C232 1.373 . S
N233 C235 1.340 . S
N234 C231 1.368 . S
N234 C235 1.321 1_655 S
N234 Co237 2.135 . S
C235 N233 1.340 . S
C235 N234 1.321 1_455 S
C235 H259 0.930 . S
H236 C231 0.931 . S
Co237 N234 2.135 . S
Co237 N240 2.121 . S
Co237 O245 2.055 . S
Co237 O248 2.003 1_556 S
Co237 N251 2.140 . S
C238 O239 1.227 . S
C238 O248 1.298 . S
O239 C238 1.227 . S
N240 Co237 2.121 . S
N240 C242 1.375 1_556 S
N240 C243 1.313 . S
C241 C242 1.338 . S
C241 N244 1.377 . S
C241 H261 0.930 . S
C242 N240 1.375 1_554 S
C242 C241 1.338 . S
C242 H246 0.931 . S
C243 N240 1.313 . S
C243 N244 1.344 1_556 S
C243 H247 0.930 . S
N244 C241 1.377 . S
N244 C243 1.344 1_554 S
O245 Co237 2.055 . S
O245 C249 1.253 . S
H246 C242 0.931 . S
H247 C243 0.930 . S
O248 Co237 2.003 1_554 S
O248 C238 1.298 . S
C249 O245 1.253 . S
C249 O250 1.227 . S
O250 C249 1.227 . S
N251 Co237 2.140 . S
N251 C254 1.346 . S
N251 C255 1.345 . S
C252 C253 1.387 . S
C252 C256 1.391 . S
C253 C252 1.387 . S
C253 C254 1.369 . S
C253 H262 0.929 1_655 S
C254 N251 1.346 . S
C254 C253 1.369 . S
C254 H257 0.928 . S
C255 N251 1.345 . S
C255 C256 1.371 . S
C255 H258 0.931 . S
C256 C252 1.391 . S
C256 C255 1.371 . S
C256 H263 0.930 . S
H257 C254 0.928 . S
H258 C255 0.931 . S
H259 C235 0.930 . S
H260 C232 0.930 . S
H261 C241 0.930 . S
H262 C253 0.929 1_455 S
H263 C256 0.930 . S
C264 C265 1.351 1_565 S
C264 N267 1.368 . S
C264 H269 0.931 . S
C265 C264 1.351 1_545 S
C265 N266 1.373 . S
C265 H293 0.930 . S
N266 C265 1.373 . S
N266 C268 1.340 . S
N267 C264 1.368 . S
N267 C268 1.321 1_565 S
N267 Co270 2.135 . S
C268 N266 1.340 . S
C268 N267 1.321 1_545 S
C268 H292 0.930 . S
H269 C264 0.931 . S
Co270 N267 2.135 . S
Co270 N273 2.121 . S
Co270 O278 2.055 . S
Co270 O281 2.039 . S
Co270 N284 2.140 . S
C271 O272 1.227 . S
C271 O281 1.265 . S
O272 C271 1.227 . S
N273 Co270 2.121 . S
N273 C275 1.375 . S
N273 C276 1.313 . S
C274 C275 1.338 . S
C274 N277 1.377 . S
C274 H294 0.930 . S
C275 N273 1.375 . S
C275 C274 1.338 . S
C275 H279 0.931 . S
C276 N273 1.313 . S
C276 N277 1.344 . S
C276 H280 0.930 . S
N277 C274 1.377 . S
N277 C276 1.344 . S
O278 Co270 2.055 . S
O278 C282 1.253 . S
H279 C275 0.931 . S
H280 C276 0.930 . S
O281 Co270 2.039 . S
O281 C271 1.265 . S
C282 O278 1.253 . S
C282 O283 1.227 . S
O283 C282 1.227 . S
N284 Co270 2.140 . S
N284 C287 1.346 . S
N284 C288 1.345 . S
C285 C286 1.387 . S
C285 C289 1.391 . S
C286 C285 1.387 . S
C286 C287 1.369 . S
C286 H295 0.929 1_565 S
C287 N284 1.346 . S
C287 C286 1.369 . S
C287 H290 0.928 . S
C288 N284 1.345 . S
C288 C289 1.371 . S
C288 H291 0.931 . S
C289 C285 1.391 . S
C289 C288 1.371 . S
C289 H296 0.930 . S
H290 C287 0.928 . S
H291 C288 0.931 . S
H292 C268 0.930 . S
H293 C265 0.930 . S
H294 C274 0.930 . S
H295 C286 0.929 1_545 S
H296 C289 0.930 . S
C297 C298 1.351 . S
C297 N300 1.368 . S
C297 H302 0.931 . S
C298 C297 1.351 . S
C298 N299 1.373 . S
C298 H326 0.930 . S
N299 C298 1.373 . S
N299 C301 1.340 . S
N300 C297 1.368 . S
N300 C301 1.321 . S
N300 Co303 2.135 . S
C301 N299 1.340 . S
C301 N300 1.321 . S
C301 H325 0.930 . S
H302 C297 0.931 . S
Co303 N300 2.135 . S
Co303 N306 2.121 . S
Co303 O311 2.055 . S
Co303 O314 2.039 . S
Co303 N317 2.140 . S
C304 O305 1.227 . S
C304 O314 1.265 . S
O305 C304 1.227 . S
N306 Co303 2.121 . S
N306 C308 1.375 . S
N306 C309 1.313 . S
C307 C308 1.338 . S
C307 N310 1.377 . S
C307 H327 0.930 . S
C308 N306 1.375 . S
C308 C307 1.338 . S
C308 H312 0.931 . S
C309 N306 1.313 . S
C309 N310 1.344 . S
C309 H313 0.930 . S
N310 C307 1.377 . S
N310 C309 1.344 . S
O311 Co303 2.055 . S
O311 C315 1.253 . S
H312 C308 0.931 . S
H313 C309 0.930 . S
O314 Co303 2.039 . S
O314 C304 1.265 . S
C315 O311 1.253 . S
C315 O316 1.227 . S
O316 C315 1.227 . S
N317 Co303 2.140 . S
N317 C320 1.346 . S
N317 C321 1.345 . S
C318 C319 1.387 . S
C318 C322 1.391 . S
C319 C318 1.387 . S
C319 C320 1.369 . S
C319 H328 0.929 . S
C320 N317 1.346 . S
C320 C319 1.369 . S
C320 H323 0.928 . S
C321 N317 1.345 . S
C321 C322 1.371 . S
C321 H324 0.931 . S
C322 C318 1.391 . S
C322 C321 1.371 . S
C322 H329 0.930 . S
H323 C320 0.928 . S
H324 C321 0.931 . S
H325 C301 0.930 . S
H326 C298 0.930 . S
H327 C307 0.930 . S
H328 C319 0.929 . S
H329 C322 0.930 . S
C330 C331 1.351 1_455 S
C330 N333 1.368 . S
C330 H335 0.931 . S
C331 C330 1.351 1_655 S
C331 N332 1.373 . S
C331 H359 0.930 . S
N332 C331 1.373 . S
N332 C334 1.340 . S
N333 C330 1.368 . S
N333 C334 1.321 1_455 S
N333 Co336 2.135 . S
C334 N332 1.340 . S
C334 N333 1.321 1_655 S
C334 H358 0.930 . S
H335 C330 0.931 . S
Co336 N333 2.135 . S
Co336 N339 2.121 . S
Co336 O344 2.055 . S
Co336 O347 2.039 . S
Co336 N350 2.140 . S
C337 O338 1.227 . S
C337 O347 1.265 . S
O338 C337 1.227 . S
N339 Co336 2.121 . S
N339 C341 1.375 . S
N339 C342 1.313 . S
C340 C341 1.338 . S
C340 N343 1.377 . S
C340 H360 0.930 . S
C341 N339 1.375 . S
C341 C340 1.338 . S
C341 H345 0.931 . S
C342 N339 1.313 . S
C342 N343 1.344 . S
C342 H346 0.930 . S
N343 C340 1.377 . S
N343 C342 1.344 . S
O344 Co336 2.055 . S
O344 C348 1.253 . S
H345 C341 0.931 . S
H346 C342 0.930 . S
O347 Co336 2.039 . S
O347 C337 1.265 . S
C348 O344 1.253 . S
C348 O349 1.227 . S
O349 C348 1.227 . S
N350 Co336 2.140 . S
N350 C353 1.346 . S
N350 C354 1.345 . S
C351 C352 1.387 . S
C351 C355 1.391 . S
C352 C351 1.387 . S
C352 C353 1.369 . S
C352 H361 0.929 1_455 S
C353 N350 1.346 . S
C353 C352 1.369 . S
C353 H356 0.928 . S
C354 N350 1.345 . S
C354 C355 1.371 . S
C354 H357 0.931 . S
C355 C351 1.391 . S
C355 C354 1.371 . S
C355 H362 0.930 . S
H356 C353 0.928 . S
H357 C354 0.931 . S
H358 C334 0.930 . S
H359 C331 0.930 . S
H360 C340 0.930 . S
H361 C352 0.929 1_655 S
H362 C355 0.930 . S
C363 C364 1.351 1_545 S
C363 N366 1.368 . S
C363 H368 0.931 . S
C364 C363 1.351 1_565 S
C364 N365 1.373 . S
C364 H392 0.930 . S
N365 C364 1.373 . S
N365 C367 1.340 . S
N366 C363 1.368 . S
N366 C367 1.321 1_545 S
N366 Co369 2.135 . S
C367 N365 1.340 . S
C367 N366 1.321 1_565 S
C367 H391 0.930 . S
H368 C363 0.931 . S
Co369 N366 2.135 . S
Co369 N372 2.121 . S
Co369 O377 2.055 . S
Co369 O380 2.039 . S
Co369 N383 2.140 . S
C370 O371 1.227 . S
C370 O380 1.265 . S
O371 C370 1.227 . S
N372 Co369 2.121 . S
N372 C374 1.375 . S
N372 C375 1.313 . S
C373 C374 1.338 . S
C373 N376 1.377 . S
C373 H393 0.930 . S
C374 N372 1.375 . S
C374 C373 1.338 . S
C374 H378 0.931 . S
C375 N372 1.313 . S
C375 N376 1.344 . S
C375 H379 0.930 . S
N376 C373 1.377 . S
N376 C375 1.344 . S
O377 Co369 2.055 . S
O377 C381 1.253 . S
H378 C374 0.931 . S
H379 C375 0.930 . S
O380 Co369 2.039 . S
O380 C370 1.265 . S
C381 O377 1.253 . S
C381 O382 1.227 . S
O382 C381 1.227 . S
N383 Co369 2.140 . S
N383 C386 1.346 . S
N383 C387 1.345 . S
C384 C385 1.387 . S
C384 C388 1.391 . S
C385 C384 1.387 . S
C385 C386 1.369 . S
C385 H394 0.929 1_545 S
C386 N383 1.346 . S
C386 C385 1.369 . S
C386 H389 0.928 . S
C387 N383 1.345 . S
C387 C388 1.371 . S
C387 H390 0.931 . S
C388 C384 1.391 . S
C388 C387 1.371 . S
C388 H395 0.930 . S
H389 C386 0.928 . S
H390 C387 0.931 . S
H391 C367 0.930 . S
H392 C364 0.930 . S
H393 C373 0.930 . S
H394 C385 0.929 1_565 S
H395 C388 0.930 . S
H396 C404 0.950 . S
H397 C409 0.950 . S
H398 C406 0.950 . S
H399 C408 0.950 . S
H400 C410 0.950 . S
H401 C412 0.950 . S
H402 C414 0.950 . S
H403 C415 0.950 . S
C404 H396 0.950 . S
C404 C405 1.386 . S
C404 C406 1.391 . S
C405 C404 1.386 . S
C405 C409 1.393 . S
C406 H398 0.950 . S
C406 C404 1.391 . S
C406 C407 1.400 . S
C407 C406 1.400 . S
C407 C408 1.398 . S
C407 C413 1.491 . S
C408 H399 0.950 . S
C408 C407 1.398 . S
C408 C409 1.391 . S
C409 H397 0.950 . S
C409 C405 1.393 . S
C409 C408 1.391 . S
C410 H400 0.950 . S
C410 C411 1.386 . S
C410 C412 1.391 . S
C411 C410 1.386 . S
C411 C415 1.393 . S
C412 H401 0.950 . S
C412 C410 1.391 . S
C412 C413 1.400 . S
C413 C407 1.491 . S
C413 C412 1.400 . S
C413 C414 1.398 . S
C414 H402 0.950 . S
C414 C413 1.398 . S
C414 C415 1.391 . S
C415 H403 0.950 . S
C415 C411 1.393 . S
C415 C414 1.391 . S
H416 C424 0.950 . S
H417 C429 0.950 . S
H418 C426 0.950 . S
H419 C428 0.950 . S
H420 C430 0.950 . S
H421 C432 0.950 . S
H422 C434 0.950 . S
H423 C435 0.950 . S
C424 H416 0.950 . S
C424 C425 1.386 . S
C424 C426 1.391 . S
C425 C424 1.386 . S
C425 C429 1.393 . S
C426 H418 0.950 . S
C426 C424 1.391 . S
C426 C427 1.400 . S
C427 C426 1.400 . S
C427 C428 1.398 . S
C427 C433 1.491 . S
C428 H419 0.950 . S
C428 C427 1.398 . S
C428 C429 1.391 . S
C429 H417 0.950 . S
C429 C425 1.393 . S
C429 C428 1.391 . S
C430 H420 0.950 . S
C430 C431 1.386 . S
C430 C432 1.391 . S
C431 C430 1.386 . S
C431 C435 1.393 . S
C432 H421 0.950 . S
C432 C430 1.391 . S
C432 C433 1.400 . S
C433 C427 1.491 . S
C433 C432 1.400 . S
C433 C434 1.398 . S
C434 H422 0.950 . S
C434 C433 1.398 . S
C434 C435 1.391 . S
C435 H423 0.950 . S
C435 C431 1.393 . S
C435 C434 1.391 . S
H436 C444 0.950 . S
H437 C449 0.950 . S
H438 C446 0.950 . S
H439 C448 0.950 . S
H440 C450 0.950 . S
H441 C452 0.950 . S
H442 C454 0.950 . S
H443 C455 0.950 . S
C444 H436 0.950 . S
C444 C445 1.386 . S
C444 C446 1.391 . S
C445 C444 1.386 . S
C445 C449 1.393 . S
C446 H438 0.950 . S
C446 C444 1.391 . S
C446 C447 1.400 . S
C447 C446 1.400 . S
C447 C448 1.398 . S
C447 C453 1.491 . S
C448 H439 0.950 . S
C448 C447 1.398 . S
C448 C449 1.391 . S
C449 H437 0.950 . S
C449 C445 1.393 . S
C449 C448 1.391 . S
C450 H440 0.950 . S
C450 C451 1.386 . S
C450 C452 1.391 . S
C451 C450 1.386 . S
C451 C455 1.393 . S
C452 H441 0.950 . S
C452 C450 1.391 . S
C452 C453 1.400 . S
C453 C447 1.491 . S
C453 C452 1.400 . S
C453 C454 1.398 . S
C454 H442 0.950 . S
C454 C453 1.398 . S
C454 C455 1.391 . S
C455 H443 0.950 . S
C455 C451 1.393 . S
C455 C454 1.391 . S
H456 C464 0.950 . S
H457 C469 0.950 . S
H458 C466 0.950 . S
H459 C468 0.950 . S
H460 C470 0.950 . S
H461 C472 0.950 . S
H462 C474 0.950 . S
H463 C475 0.950 . S
C464 H456 0.950 . S
C464 C465 1.386 . S
C464 C466 1.391 . S
C465 C464 1.386 . S
C465 C469 1.393 . S
C466 H458 0.950 . S
C466 C464 1.391 . S
C466 C467 1.400 . S
C467 C466 1.400 . S
C467 C468 1.398 . S
C467 C473 1.491 . S
C468 H459 0.950 . S
C468 C467 1.398 . S
C468 C469 1.391 . S
C469 H457 0.950 . S
C469 C465 1.393 . S
C469 C468 1.391 . S
C470 H460 0.950 . S
C470 C471 1.386 . S
C470 C472 1.391 . S
C471 C470 1.386 . S
C471 C475 1.393 . S
C472 H461 0.950 . S
C472 C470 1.391 . S
C472 C473 1.400 . S
C473 C467 1.491 . S
C473 C472 1.400 . S
C473 C474 1.398 . S
C474 H462 0.950 . S
C474 C473 1.398 . S
C474 C475 1.391 . S
C475 H463 0.950 . S
C475 C471 1.393 . S
C475 C474 1.391 . S
H476 C484 0.950 . S
H477 C489 0.950 . S
H478 C486 0.950 . S
H479 C488 0.950 . S
H480 C490 0.950 . S
H481 C492 0.950 . S
H482 C494 0.950 . S
H483 C495 0.950 . S
C484 H476 0.950 . S
C484 C485 1.386 . S
C484 C486 1.391 . S
C485 C484 1.386 . S
C485 C489 1.393 . S
C486 H478 0.950 . S
C486 C484 1.391 . S
C486 C487 1.400 . S
C487 C486 1.400 . S
C487 C488 1.398 . S
C487 C493 1.491 . S
C488 H479 0.950 . S
C488 C487 1.398 . S
C488 C489 1.391 . S
C489 H477 0.950 . S
C489 C485 1.393 . S
C489 C488 1.391 . S
C490 H480 0.950 . S
C490 C491 1.386 . S
C490 C492 1.391 . S
C491 C490 1.386 . S
C491 C495 1.393 . S
C492 H481 0.950 . S
C492 C490 1.391 . S
C492 C493 1.400 . S
C493 C487 1.491 . S
C493 C492 1.400 . S
C493 C494 1.398 . S
C494 H482 0.950 . S
C494 C493 1.398 . S
C494 C495 1.391 . S
C495 H483 0.950 . S
C495 C491 1.393 . S
C495 C494 1.391 . S
H496 C504 0.950 . S
H497 C509 0.950 . S
H498 C506 0.950 . S
H499 C508 0.950 . S
H500 C510 0.950 . S
H501 C512 0.950 . S
H502 C514 0.950 . S
H503 C515 0.950 . S
C504 H496 0.950 . S
C504 C505 1.386 . S
C504 C506 1.391 . S
C505 C504 1.386 . S
C505 C509 1.393 . S
C506 H498 0.950 . S
C506 C504 1.391 . S
C506 C507 1.400 . S
C507 C506 1.400 . S
C507 C508 1.398 . S
C507 C513 1.491 . S
C508 H499 0.950 . S
C508 C507 1.398 . S
C508 C509 1.391 . S
C509 H497 0.950 . S
C509 C505 1.393 . S
C509 C508 1.391 . S
C510 H500 0.950 . S
C510 C511 1.386 . S
C510 C512 1.391 . S
C511 C510 1.386 . S
C511 C515 1.393 . S
C512 H501 0.950 . S
C512 C510 1.391 . S
C512 C513 1.400 . S
C513 C507 1.491 . S
C513 C512 1.400 . S
C513 C514 1.398 . S
C514 H502 0.950 . S
C514 C513 1.398 . S
C514 C515 1.391 . S
C515 H503 0.950 . S
C515 C511 1.393 . S
C515 C514 1.391 . S
H516 C524 0.950 . S
H517 C529 0.950 . S
H518 C526 0.950 . S
H519 C528 0.950 . S
H520 C530 0.950 . S
H521 C532 0.950 . S
H522 C534 0.950 . S
H523 C535 0.950 . S
C524 H516 0.950 . S
C524 C525 1.386 . S
C524 C526 1.391 . S
C525 C524 1.386 . S
C525 C529 1.393 . S
C526 H518 0.950 . S
C526 C524 1.391 . S
C526 C527 1.400 . S
C527 C526 1.400 . S
C527 C528 1.398 . S
C527 C533 1.491 . S
C528 H519 0.950 . S
C528 C527 1.398 . S
C528 C529 1.391 . S
C529 H517 0.950 . S
C529 C525 1.393 . S
C529 C528 1.391 . S
C530 H520 0.950 . S
C530 C531 1.386 . S
C530 C532 1.391 . S
C531 C530 1.386 . S
C531 C535 1.393 . S
C532 H521 0.950 . S
C532 C530 1.391 . S
C532 C533 1.400 . S
C533 C527 1.491 . S
C533 C532 1.400 . S
C533 C534 1.398 . S
C534 H522 0.950 . S
C534 C533 1.398 . S
C534 C535 1.391 . S
C535 H523 0.950 . S
C535 C531 1.393 . S
C535 C534 1.391 . S
H536 C544 0.950 . S
H537 C549 0.950 . S
H538 C546 0.950 . S
H539 C548 0.936 1_655 S
H540 C550 0.950 . S
H541 C552 0.950 . S
H542 C554 0.950 . S
H543 C555 0.950 . S
C544 H536 0.950 . S
C544 C545 1.386 1_455 S
C544 C546 1.391 . S
C545 C544 1.386 1_655 S
C545 C549 1.393 . S
C546 H538 0.950 . S
C546 C544 1.391 . S
C546 C547 1.400 . S
C547 C546 1.400 . S
C547 C548 1.415 . S
C547 C553 1.491 . S
C548 H539 0.936 1_455 S
C548 C547 1.415 . S
C548 C549 1.389 1_455 S
C549 H537 0.950 . S
C549 C545 1.393 . S
C549 C548 1.389 1_655 S
C550 H540 0.950 . S
C550 C551 1.386 . S
C550 C552 1.391 . S
C551 C550 1.386 . S
C551 C555 1.393 . S
C552 H541 0.950 . S
C552 C550 1.391 . S
C552 C553 1.400 . S
C553 C547 1.491 . S
C553 C552 1.400 . S
C553 C554 1.398 . S
C554 H542 0.950 . S
C554 C553 1.398 . S
C554 C555 1.391 . S
C555 H543 0.950 . S
C555 C551 1.393 . S
C555 C554 1.391 . S
H556 C564 0.950 . S
H557 C569 0.950 . S
H558 C566 0.950 . S
H559 C568 0.950 . S
H560 C570 0.950 . S
H561 C572 0.950 . S
H562 C574 0.950 . S
H563 C575 0.950 . S
C564 H556 0.950 . S
C564 C565 1.386 . S
C564 C566 1.391 . S
C565 C564 1.386 . S
C565 C569 1.393 . S
C566 H558 0.950 . S
C566 C564 1.391 . S
C566 C567 1.400 . S
C567 C566 1.400 . S
C567 C568 1.398 . S
C567 C573 1.491 . S
C568 H559 0.950 . S
C568 C567 1.398 . S
C568 C569 1.391 . S
C569 H557 0.950 . S
C569 C565 1.393 . S
C569 C568 1.391 . S
C570 H560 0.950 . S
C570 C571 1.386 . S
C570 C572 1.391 1_565 S
C571 C570 1.386 . S
C571 C575 1.393 1_565 S
C572 H561 0.950 . S
C572 C570 1.391 1_545 S
C572 C573 1.400 . S
C573 C567 1.491 . S
C573 C572 1.400 . S
C573 C574 1.398 . S
C574 H562 0.950 . S
C574 C573 1.398 . S
C574 C575 1.391 . S
C575 H563 0.950 . S
C575 C571 1.393 1_545 S
C575 C574 1.391 . S
H576 C584 0.950 . S
H577 C589 0.950 . S
H578 C586 0.950 . S
H579 C588 0.950 . S
H580 C590 0.950 . S
H581 C592 0.950 . S
H582 C594 0.950 . S
H583 C595 0.950 . S
C584 H576 0.950 . S
C584 C585 1.386 . S
C584 C586 1.391 . S
C585 C584 1.386 . S
C585 C589 1.393 . S
C586 H578 0.950 . S
C586 C584 1.391 . S
C586 C587 1.400 . S
C587 C586 1.400 . S
C587 C588 1.398 . S
C587 C593 1.491 . S
C588 H579 0.950 . S
C588 C587 1.398 . S
C588 C589 1.391 . S
C589 H577 0.950 . S
C589 C585 1.393 . S
C589 C588 1.391 . S
C590 H580 0.950 . S
C590 C591 1.386 . S
C590 C592 1.391 . S
C591 C590 1.386 . S
C591 C595 1.393 . S
C592 H581 0.950 . S
C592 C590 1.391 . S
C592 C593 1.400 . S
C593 C587 1.491 . S
C593 C592 1.400 . S
C593 C594 1.398 . S
C594 H582 0.950 . S
C594 C593 1.398 . S
C594 C595 1.391 . S
C595 H583 0.950 . S
C595 C591 1.393 . S
C595 C594 1.391 . S
H596 C604 0.950 . S
H597 C609 0.950 . S
H598 C606 0.950 . S
H599 C608 0.950 . S
H600 C610 0.950 . S
H601 C612 0.950 . S
H602 C614 0.950 . S
H603 C615 0.950 . S
C604 H596 0.950 . S
C604 C605 1.386 . S
C604 C606 1.391 . S
C605 C604 1.386 . S
C605 C609 1.393 . S
C606 H598 0.950 . S
C606 C604 1.391 . S
C606 C607 1.400 . S
C607 C606 1.400 . S
C607 C608 1.398 . S
C607 C613 1.491 . S
C608 H599 0.950 . S
C608 C607 1.398 . S
C608 C609 1.391 . S
C609 H597 0.950 . S
C609 C605 1.393 . S
C609 C608 1.391 . S
C610 H600 0.950 . S
C610 C611 1.386 . S
C610 C612 1.391 . S
C611 C610 1.386 . S
C611 C615 1.393 1_455 S
C612 H601 0.950 . S
C612 C610 1.391 . S
C612 C613 1.400 1_455 S
C613 C607 1.491 . S
C613 C612 1.400 1_655 S
C613 C614 1.398 . S
C614 H602 0.950 . S
C614 C613 1.398 . S
C614 C615 1.391 . S
C615 H603 0.950 . S
C615 C611 1.393 1_655 S
C615 C614 1.391 . S
H616 C624 0.950 . S
H617 C629 0.950 . S
H618 C626 0.950 . S
H619 C628 0.950 . S
H620 C630 0.950 . S
H621 C632 0.950 . S
H622 C634 0.950 . S
H623 C635 0.950 . S
C624 H616 0.950 . S
C624 C625 1.386 . S
C624 C626 1.391 . S
C625 C624 1.386 . S
C625 C629 1.393 . S
C626 H618 0.950 . S
C626 C624 1.391 . S
C626 C627 1.400 . S
C627 C626 1.400 . S
C627 C628 1.398 . S
C627 C633 1.491 . S
C628 H619 0.950 . S
C628 C627 1.398 . S
C628 C629 1.391 . S
C629 H617 0.950 . S
C629 C625 1.393 . S
C629 C628 1.391 . S
C630 H620 0.950 . S
C630 C631 1.386 . S
C630 C632 1.391 1_545 S
C631 C630 1.386 . S
C631 C635 1.393 1_545 S
C632 H621 0.950 . S
C632 C630 1.391 1_565 S
C632 C633 1.400 . S
C633 C627 1.491 . S
C633 C632 1.400 . S
C633 C634 1.398 . S
C634 H622 0.950 . S
C634 C633 1.398 . S
C634 C635 1.391 . S
C635 H623 0.950 . S
C635 C631 1.393 1_565 S
C635 C634 1.391 . S
H636 C644 0.950 . S
H637 C649 0.950 . S
H638 C646 0.950 . S
H639 C648 0.950 . S
H640 C650 0.950 . S
H641 C652 0.950 . S
H642 C654 0.950 . S
H643 C655 0.950 . S
C644 H636 0.950 . S
C644 C645 1.386 . S
C644 C646 1.391 . S
C645 C644 1.386 . S
C645 C649 1.393 . S
C646 H638 0.950 . S
C646 C644 1.391 . S
C646 C647 1.400 . S
C647 C646 1.400 . S
C647 C648 1.398 . S
C647 C653 1.491 . S
C648 H639 0.950 . S
C648 C647 1.398 . S
C648 C649 1.391 . S
C649 H637 0.950 . S
C649 C645 1.393 . S
C649 C648 1.391 . S
C650 H640 0.950 . S
C650 C651 1.386 . S
C650 C652 1.391 . S
C651 C650 1.386 . S
C651 C655 1.393 . S
C652 H641 0.950 . S
C652 C650 1.391 . S
C652 C653 1.400 . S
C653 C647 1.491 . S
C653 C652 1.400 . S
C653 C654 1.398 . S
C654 H642 0.950 . S
C654 C653 1.398 . S
C654 C655 1.391 . S
C655 H643 0.950 . S
C655 C651 1.393 . S
C655 C654 1.391 . S
H656 C664 0.950 . S
H657 C669 0.986 . S
H658 C666 0.950 . S
H659 C668 0.908 1_554 S
H660 C670 0.950 1_554 S
H661 C672 0.950 1_554 S
H662 C674 0.950 . S
H663 C675 0.950 . S
C664 H656 0.950 . S
C664 C665 1.386 . S
C664 C666 1.391 1_655 S
C665 C664 1.386 . S
C665 C669 1.393 1_655 S
C666 H658 0.950 . S
C666 C664 1.391 1_455 S
C666 C667 1.400 . S
C667 C666 1.400 . S
C667 C668 1.398 . S
C667 C673 1.491 . S
C668 H659 0.908 1_556 S
C668 C667 1.398 . S
C668 C669 1.391 . S
C669 H657 0.986 . S
C669 C665 1.393 1_455 S
C669 C668 1.391 . S
C670 H660 0.950 1_556 S
C670 C671 1.386 . S
C670 C672 1.391 . S
C671 C670 1.386 . S
C671 C675 1.393 . S
C672 H661 0.950 1_556 S
C672 C670 1.391 . S
C672 C673 1.400 . S
C673 C667 1.491 . S
C673 C672 1.400 . S
C673 C674 1.398 . S
C674 H662 0.950 . S
C674 C673 1.398 . S
C674 C675 1.391 . S
C675 H663 0.950 . S
C675 C671 1.393 . S
C675 C674 1.391 . S
H676 C684 0.950 . S
H677 C689 0.950 . S
H678 C686 0.950 . S
H679 C688 0.950 . S
H680 C690 0.950 . S
H681 C692 0.950 . S
H682 C694 0.950 . S
H683 C695 0.950 . S
C684 H676 0.950 . S
C684 C685 1.386 1_545 S
C684 C686 1.391 . S
C685 C684 1.386 1_565 S
C685 C689 1.393 . S
C686 H678 0.950 . S
C686 C684 1.391 . S
C686 C687 1.400 . S
C687 C686 1.400 . S
C687 C688 1.398 . S
C687 C693 1.491 . S
C688 H679 0.950 . S
C688 C687 1.398 . S
C688 C689 1.391 1_545 S
C689 H677 0.950 . S
C689 C685 1.393 . S
C689 C688 1.391 1_565 S
C690 H680 0.950 . S
C690 C691 1.386 . S
C690 C692 1.391 . S
C691 C690 1.386 . S
C691 C695 1.393 . S
C692 H681 0.950 . S
C692 C690 1.391 . S
C692 C693 1.400 . S
C693 C687 1.491 . S
C693 C692 1.400 . S
C693 C694 1.398 . S
C694 H682 0.950 . S
C694 C693 1.398 . S
C694 C695 1.391 . S
C695 H683 0.950 . S
C695 C691 1.393 . S
C695 C694 1.391 . S
H696 C704 0.950 . S
H697 C709 0.950 . S
H698 C706 0.950 . S
H699 C708 0.950 . S
H700 C710 0.950 . S
H701 C712 0.950 . S
H702 C714 0.950 . S
H703 C715 0.950 . S
C704 H696 0.950 . S
C704 C705 1.386 . S
C704 C706 1.391 . S
C705 C704 1.386 . S
C705 C709 1.393 . S
C706 H698 0.950 . S
C706 C704 1.391 . S
C706 C707 1.400 . S
C707 C706 1.400 . S
C707 C708 1.398 . S
C707 C713 1.491 . S
C708 H699 0.950 . S
C708 C707 1.398 . S
C708 C709 1.391 . S
C709 H697 0.950 . S
C709 C705 1.393 . S
C709 C708 1.391 . S
C710 H700 0.950 . S
C710 C711 1.386 . S
C710 C712 1.391 . S
C711 C710 1.386 . S
C711 C715 1.393 . S
C712 H701 0.950 . S
C712 C710 1.391 . S
C712 C713 1.400 . S
C713 C707 1.491 . S
C713 C712 1.400 . S
C713 C714 1.398 . S
C714 H702 0.950 . S
C714 C713 1.398 . S
C714 C715 1.391 . S
C715 H703 0.950 . S
C715 C711 1.393 . S
C715 C714 1.391 . S
H716 C724 0.950 . S
H717 C729 0.950 . S
H718 C726 0.950 . S
H719 C728 0.950 . S
H720 C730 0.950 . S
H721 C732 0.950 . S
H722 C734 0.950 . S
H723 C735 0.950 . S
C724 H716 0.950 . S
C724 C725 1.386 . S
C724 C726 1.391 . S
C725 C724 1.386 . S
C725 C729 1.393 . S
C726 H718 0.950 . S
C726 C724 1.391 . S
C726 C727 1.400 . S
C727 C726 1.400 . S
C727 C728 1.398 . S
C727 C733 1.491 . S
C728 H719 0.950 . S
C728 C727 1.398 . S
C728 C729 1.391 . S
C729 H717 0.950 . S
C729 C725 1.393 . S
C729 C728 1.391 . S
C730 H720 0.950 . S
C730 C731 1.386 1_655 S
C730 C732 1.391 . S
C731 C730 1.386 1_455 S
C731 C735 1.393 . S
C732 H721 0.950 . S
C732 C730 1.391 . S
C732 C733 1.400 . S
C733 C727 1.491 . S
C733 C732 1.400 . S
C733 C734 1.398 . S
C734 H722 0.950 . S
C734 C733 1.398 . S
C734 C735 1.391 1_655 S
C735 H723 0.950 . S
C735 C731 1.393 . S
C735 C734 1.391 1_455 S
H736 C744 0.950 . S
H737 C749 0.950 . S
H738 C746 0.950 . S
H739 C748 0.950 . S
H740 C750 0.950 . S
H741 C752 0.950 . S
H742 C754 0.950 1_545 S
H743 C755 0.950 . S
C744 H736 0.950 . S
C744 C745 1.386 . S
C744 C746 1.391 . S
C745 C744 1.386 . S
C745 C749 1.393 . S
C746 H738 0.950 . S
C746 C744 1.391 . S
C746 C747 1.400 . S
C747 C746 1.400 . S
C747 C748 1.398 . S
C747 C753 1.491 . S
C748 H739 0.950 . S
C748 C747 1.398 . S
C748 C749 1.391 . S
C749 H737 0.950 . S
C749 C745 1.393 . S
C749 C748 1.391 . S
C750 H740 0.950 . S
C750 C751 1.386 1_565 S
C750 C752 1.391 . S
C751 C750 1.386 1_545 S
C751 C755 1.393 . S
C752 H741 0.950 . S
C752 C750 1.391 . S
C752 C753 1.400 . S
C753 C747 1.491 . S
C753 C752 1.400 . S
C753 C754 1.398 . S
C754 H742 0.950 1_565 S
C754 C753 1.398 . S
C754 C755 1.391 1_565 S
C755 H743 0.950 . S
C755 C751 1.393 . S
C755 C754 1.391 1_545 S
H756 C764 0.950 . S
H757 C769 0.950 . S
H758 C766 0.950 . S
H759 C768 0.950 . S
H760 C770 0.950 . S
H761 C772 0.950 . S
H762 C774 0.950 . S
H763 C775 0.950 . S
C764 H756 0.950 . S
C764 C765 1.386 . S
C764 C766 1.391 . S
C765 C764 1.386 . S
C765 C769 1.393 . S
C766 H758 0.950 . S
C766 C764 1.391 . S
C766 C767 1.400 . S
C767 C766 1.400 . S
C767 C768 1.398 . S
C767 C773 1.491 . S
C768 H759 0.950 . S
C768 C767 1.398 . S
C768 C769 1.391 . S
C769 H757 0.950 . S
C769 C765 1.393 . S
C769 C768 1.391 . S
C770 H760 0.950 . S
C770 C771 1.386 . S
C770 C772 1.391 . S
C771 C770 1.386 . S
C771 C775 1.393 . S
C772 H761 0.950 . S
C772 C770 1.391 . S
C772 C773 1.400 . S
C773 C767 1.491 . S
C773 C772 1.400 . S
C773 C774 1.398 . S
C774 H762 0.950 . S
C774 C773 1.398 . S
C774 C775 1.391 . S
C775 H763 0.950 . S
C775 C771 1.393 . S
C775 C774 1.391 . S
H776 C784 0.950 . S
H777 C789 0.950 . S
H778 C786 0.950 . S
H779 C788 0.950 . S
H780 C790 0.950 . S
H781 C792 0.950 . S
H782 C794 0.950 . S
H783 C795 0.950 . S
C784 H776 0.950 . S
C784 C785 1.386 . S
C784 C786 1.391 . S
C785 C784 1.386 . S
C785 C789 1.393 . S
C786 H778 0.950 . S
C786 C784 1.391 . S
C786 C787 1.400 . S
C787 C786 1.400 . S
C787 C788 1.398 . S
C787 C793 1.491 . S
C788 H779 0.950 . S
C788 C787 1.398 . S
C788 C789 1.391 . S
C789 H777 0.950 . S
C789 C785 1.393 . S
C789 C788 1.391 . S
C790 H780 0.950 . S
C790 C791 1.386 . S
C790 C792 1.391 1_655 S
C791 C790 1.386 . S
C791 C795 1.393 . S
C792 H781 0.950 . S
C792 C790 1.391 1_455 S
C792 C793 1.400 . S
C793 C787 1.491 . S
C793 C792 1.400 . S
C793 C794 1.398 . S
C794 H782 0.950 . S
C794 C793 1.398 . S
C794 C795 1.391 1_455 S
C795 H783 0.950 . S
C795 C791 1.393 . S
C795 C794 1.391 1_655 S
H796 C804 0.950 . S
H797 C809 0.950 . S
H798 C806 0.950 . S
H799 C808 0.950 . S
H800 C810 0.950 . S
H801 C812 0.950 . S
H802 C814 0.950 . S
H803 C815 0.950 . S
C804 H796 0.950 . S
C804 C805 1.386 1_545 S
C804 C806 1.391 . S
C805 C804 1.386 1_565 S
C805 C809 1.393 . S
C806 H798 0.950 . S
C806 C804 1.391 . S
C806 C807 1.400 . S
C807 C806 1.400 . S
C807 C808 1.398 1_545 S
C807 C813 1.491 . S
C808 H799 0.950 . S
C808 C807 1.398 1_565 S
C808 C809 1.391 . S
C809 H797 0.950 . S
C809 C805 1.393 . S
C809 C808 1.391 . S
C810 H800 0.950 . S
C810 C811 1.386 . S
C810 C812 1.391 . S
C811 C810 1.386 . S
C811 C815 1.393 . S
C812 H801 0.950 . S
C812 C810 1.391 . S
C812 C813 1.400 . S
C813 C807 1.491 . S
C813 C812 1.400 . S
C813 C814 1.398 . S
C814 H802 0.950 . S
C814 C813 1.398 . S
C814 C815 1.391 . S
C815 H803 0.950 . S
C815 C811 1.393 . S
C815 C814 1.391 . S
H816 C824 0.950 . S
H817 C829 0.950 . S
H818 C826 0.950 . S
H819 C828 0.950 . S
H820 C830 0.950 . S
H821 C832 0.950 . S
H822 C834 0.950 . S
H823 C835 0.950 . S
C824 H816 0.950 . S
C824 C825 1.386 . S
C824 C826 1.391 . S
C825 C824 1.386 . S
C825 C829 1.393 . S
C826 H818 0.950 . S
C826 C824 1.391 . S
C826 C827 1.400 . S
C827 C826 1.400 . S
C827 C828 1.398 . S
C827 C833 1.491 . S
C828 H819 0.950 . S
C828 C827 1.398 . S
C828 C829 1.391 . S
C829 H817 0.950 . S
C829 C825 1.393 . S
C829 C828 1.391 . S
C830 H820 0.950 . S
C830 C831 1.386 . S
C830 C832 1.391 . S
C831 C830 1.386 . S
C831 C835 1.393 . S
C832 H821 0.950 . S
C832 C830 1.391 . S
C832 C833 1.400 . S
C833 C827 1.491 . S
C833 C832 1.400 . S
C833 C834 1.398 . S
C834 H822 0.950 . S
C834 C833 1.398 . S
C834 C835 1.391 . S
C835 H823 0.950 . S
C835 C831 1.393 . S
C835 C834 1.391 . S
H836 C844 0.950 . S
H837 C849 0.950 . S
H838 C846 0.950 . S
H839 C848 0.950 . S
H840 C850 0.950 . S
H841 C852 0.950 . S
H842 C854 0.950 . S
H843 C855 0.950 . S
C844 H836 0.950 . S
C844 C845 1.386 . S
C844 C846 1.391 . S
C845 C844 1.386 . S
C845 C849 1.393 . S
C846 H838 0.950 . S
C846 C844 1.391 . S
C846 C847 1.400 . S
C847 C846 1.400 . S
C847 C848 1.398 . S
C847 C853 1.491 . S
C848 H839 0.950 . S
C848 C847 1.398 . S
C848 C849 1.391 . S
C849 H837 0.950 . S
C849 C845 1.393 . S
C849 C848 1.391 . S
C850 H840 0.950 . S
C850 C851 1.386 . S
C850 C852 1.391 . S
C851 C850 1.386 . S
C851 C855 1.393 1_455 S
C852 H841 0.950 . S
C852 C850 1.391 . S
C852 C853 1.400 1_455 S
C853 C847 1.491 . S
C853 C852 1.400 1_655 S
C853 C854 1.398 . S
C854 H842 0.950 . S
C854 C853 1.398 . S
C854 C855 1.391 . S
C855 H843 0.950 . S
C855 C851 1.393 1_655 S
C855 C854 1.391 . S
H856 C864 0.950 . S
H857 C869 0.950 . S
H858 C866 0.950 . S
H859 C868 0.950 . S
H860 C870 0.950 . S
H861 C872 0.950 . S
H862 C874 0.950 . S
H863 C875 0.950 . S
C864 H856 0.950 . S
C864 C865 1.386 . S
C864 C866 1.391 . S
C865 C864 1.386 . S
C865 C869 1.393 . S
C866 H858 0.950 . S
C866 C864 1.391 . S
C866 C867 1.400 . S
C867 C866 1.400 . S
C867 C868 1.398 . S
C867 C873 1.491 . S
C868 H859 0.950 . S
C868 C867 1.398 . S
C868 C869 1.391 . S
C869 H857 0.950 . S
C869 C865 1.393 . S
C869 C868 1.391 . S
C870 H860 0.950 . S
C870 C871 1.386 . S
C870 C872 1.391 . S
C871 C870 1.386 . S
C871 C875 1.393 1_545 S
C872 H861 0.950 . S
C872 C870 1.391 . S
C872 C873 1.400 1_545 S
C873 C867 1.491 . S
C873 C872 1.400 1_565 S
C873 C874 1.398 . S
C874 H862 0.950 . S
C874 C873 1.398 . S
C874 C875 1.391 . S
C875 H863 0.950 . S
C875 C871 1.393 1_565 S
C875 C874 1.391 . S
H876 C884 0.950 . S
H877 C889 0.950 . S
H878 C886 0.950 . S
H879 C888 0.950 . S
H880 C890 0.950 . S
H881 C892 0.950 . S
H882 C894 0.950 . S
H883 C895 0.950 . S
C884 H876 0.950 . S
C884 C885 1.386 . S
C884 C886 1.391 . S
C885 C884 1.386 . S
C885 C889 1.393 . S
C886 H878 0.950 . S
C886 C884 1.391 . S
C886 C887 1.400 . S
C887 C886 1.400 . S
C887 C888 1.398 . S
C887 C893 1.491 . S
C888 H879 0.950 . S
C888 C887 1.398 . S
C888 C889 1.391 . S
C889 H877 0.950 . S
C889 C885 1.393 . S
C889 C888 1.391 . S
C890 H880 0.950 . S
C890 C891 1.386 . S
C890 C892 1.391 . S
C891 C890 1.386 . S
C891 C895 1.393 . S
C892 H881 0.950 . S
C892 C890 1.391 . S
C892 C893 1.400 . S
C893 C887 1.491 . S
C893 C892 1.400 . S
C893 C894 1.398 . S
C894 H882 0.950 . S
C894 C893 1.398 . S
C894 C895 1.391 . S
C895 H883 0.950 . S
C895 C891 1.393 . S
C895 C894 1.391 . S
H896 C904 0.950 . S
H897 C909 0.950 . S
H898 C906 0.950 . S
H899 C908 0.950 . S
H900 C910 0.950 . S
H901 C912 0.950 . S
H902 C914 0.950 . S
H903 C915 0.950 . S
C904 H896 0.950 . S
C904 C905 1.386 . S
C904 C906 1.391 . S
C905 C904 1.386 . S
C905 C909 1.393 1_655 S
C906 H898 0.950 . S
C906 C904 1.391 . S
C906 C907 1.400 1_655 S
C907 C906 1.400 1_455 S
C907 C908 1.398 . S
C907 C913 1.491 . S
C908 H899 0.950 . S
C908 C907 1.398 . S
C908 C909 1.391 . S
C909 H897 0.950 . S
C909 C905 1.393 1_455 S
C909 C908 1.391 . S
C910 H900 0.950 . S
C910 C911 1.386 . S
C910 C912 1.391 . S
C911 C910 1.386 . S
C911 C915 1.393 . S
C912 H901 0.950 . S
C912 C910 1.391 . S
C912 C913 1.400 . S
C913 C907 1.491 . S
C913 C912 1.400 . S
C913 C914 1.398 . S
C914 H902 0.950 . S
C914 C913 1.398 . S
C914 C915 1.391 . S
C915 H903 0.950 . S
C915 C911 1.393 . S
C915 C914 1.391 . S
H916 C924 0.950 . S
H917 C929 0.950 . S
H918 C926 0.950 . S
H919 C928 0.950 . S
H920 C930 0.950 . S
H921 C932 0.950 . S
H922 C934 0.950 . S
H923 C935 0.950 . S
C924 H916 0.950 . S
C924 C925 1.386 1_545 S
C924 C926 1.391 . S
C925 C924 1.386 1_565 S
C925 C929 1.393 . S
C926 H918 0.950 . S
C926 C924 1.391 . S
C926 C927 1.400 . S
C927 C926 1.400 . S
C927 C928 1.398 1_545 S
C927 C933 1.491 . S
C928 H919 0.950 . S
C928 C927 1.398 1_565 S
C928 C929 1.391 . S
C929 H917 0.950 . S
C929 C925 1.393 . S
C929 C928 1.391 . S
C930 H920 0.950 . S
C930 C931 1.386 . S
C930 C932 1.391 . S
C931 C930 1.386 . S
C931 C935 1.393 . S
C932 H921 0.950 . S
C932 C930 1.391 . S
C932 C933 1.400 . S
C933 C927 1.491 . S
C933 C932 1.400 . S
C933 C934 1.398 . S
C934 H922 0.950 . S
C934 C933 1.398 . S
C934 C935 1.391 . S
C935 H923 0.950 . S
C935 C931 1.393 . S
C935 C934 1.391 . S
H936 C944 0.950 . S
H937 C949 0.950 . S
H938 C946 0.950 . S
H939 C948 0.950 . S
H940 C950 0.950 . S
H941 C952 0.950 . S
H942 C954 0.950 . S
H943 C955 0.950 . S
C944 H936 0.950 . S
C944 C945 1.386 . S
C944 C946 1.391 . S
C945 C944 1.386 . S
C945 C949 1.393 . S
C946 H938 0.950 . S
C946 C944 1.391 . S
C946 C947 1.400 . S
C947 C946 1.400 . S
C947 C948 1.398 . S
C947 C953 1.491 . S
C948 H939 0.950 . S
C948 C947 1.398 . S
C948 C949 1.391 . S
C949 H937 0.950 . S
C949 C945 1.393 . S
C949 C948 1.391 . S
C950 H940 0.950 . S
C950 C951 1.386 . S
C950 C952 1.391 . S
C951 C950 1.386 . S
C951 C955 1.393 . S
C952 H941 0.950 . S
C952 C950 1.391 . S
C952 C953 1.400 . S
C953 C947 1.491 . S
C953 C952 1.400 . S
C953 C954 1.398 . S
C954 H942 0.950 . S
C954 C953 1.398 . S
C954 C955 1.391 . S
C955 H943 0.950 . S
C955 C951 1.393 . S
C955 C954 1.391 . S
H956 C964 0.950 . S
H957 C969 0.950 . S
H958 C966 0.950 . S
H959 C968 0.950 . S
H960 C970 0.950 . S
H961 C972 0.950 . S
H962 C974 0.950 . S
H963 C975 0.950 . S
C964 H956 0.950 . S
C964 C965 1.386 . S
C964 C966 1.391 . S
C965 C964 1.386 . S
C965 C969 1.393 . S
C966 H958 0.950 . S
C966 C964 1.391 . S
C966 C967 1.400 . S
C967 C966 1.400 . S
C967 C968 1.398 . S
C967 C973 1.491 . S
C968 H959 0.950 . S
C968 C967 1.398 . S
C968 C969 1.391 . S
C969 H957 0.950 . S
C969 C965 1.393 . S
C969 C968 1.391 . S
C970 H960 0.950 . S
C970 C971 1.386 . S
C970 C972 1.391 . S
C971 C970 1.386 . S
C971 C975 1.393 1_455 S
C972 H961 0.950 . S
C972 C970 1.391 . S
C972 C973 1.400 1_455 S
C973 C967 1.491 . S
C973 C972 1.400 1_655 S
C973 C974 1.398 . S
C974 H962 0.950 . S
C974 C973 1.398 . S
C974 C975 1.391 . S
C975 H963 0.950 . S
C975 C971 1.393 1_655 S
C975 C974 1.391 . S
H976 C984 0.950 . S
H977 C989 0.950 . S
H978 C986 0.950 . S
H979 C988 0.950 . S
H980 C990 0.950 . S
H981 C992 0.950 . S
H982 C994 0.950 . S
H983 C995 0.950 . S
C984 H976 0.950 . S
C984 C985 1.386 . S
C984 C986 1.391 . S
C985 C984 1.386 . S
C985 C989 1.393 1_545 S
C986 H978 0.950 . S
C986 C984 1.391 . S
C986 C987 1.400 1_545 S
C987 C986 1.400 1_565 S
C987 C988 1.398 . S
C987 C993 1.491 . S
C988 H979 0.950 . S
C988 C987 1.398 . S
C988 C989 1.391 . S
C989 H977 0.950 . S
C989 C985 1.393 1_565 S
C989 C988 1.391 . S
C990 H980 0.950 . S
C990 C991 1.386 . S
C990 C992 1.391 . S
C991 C990 1.386 . S
C991 C995 1.393 . S
C992 H981 0.950 . S
C992 C990 1.391 . S
C992 C993 1.400 . S
C993 C987 1.491 . S
C993 C992 1.400 . S
C993 C994 1.398 . S
C994 H982 0.950 . S
C994 C993 1.398 . S
C994 C995 1.391 . S
C995 H983 0.950 . S
C995 C991 1.393 . S
C995 C994 1.391 . S
C405 N2 0.635 . S
C411 N266 0.640 . S
C425 N299 0.687 . S
C431 N35 0.720 . S
C445 N332 0.684 . S
C451 N68 0.646 . S
C465 N101 0.640 . S
C471 N365 0.635 . S
C485 N134 0.681 . S
C491 N200 0.717 . S
C505 N167 0.729 . S
C511 N233 0.715 . S
C525 N244 1.864 . S
C531 C21 1.848 . S
C545 C54 1.846 . S
C551 N277 1.863 . S
C565 N310 1.856 . S
C571 C87 1.836 . S
C585 N343 1.865 . S
C591 C120 1.849 . S
C605 N376 1.857 . S
C611 C153 1.838 . S
C625 N211 1.856 . S
C631 C186 1.836 . S
C645 N178 1.867 . S
C651 C219 1.851 . S
C665 C252 1.839 . S
C671 N13 1.858 . S
C685 C285 1.848 . S
C691 N46 1.864 . S
C705 N79 1.864 . S
C711 C318 1.847 . S
C725 N112 1.867 . S
C731 C351 1.851 . S
C745 N145 1.866 . S
C751 C384 1.851 . S
C765 C183 1.015 . S
C771 C7 0.986 . S
C785 C18 1.014 . S
C791 C40 0.983 . S
C805 C73 0.993 . S
C811 C51 1.021 . S
C825 C84 1.019 . S
C831 C106 0.991 . S
C845 C117 1.027 . S
C851 C139 0.995 . S
C865 C150 1.025 . S
C871 C172 0.969 . S
C885 C205 0.943 . S
C891 C249 1.009 . S
C905 C238 0.960 . S
C911 C282 1.006 . S
C925 C271 0.985 . S
C931 C315 1.028 . S
C945 C348 1.016 . S
C951 C304 0.987 . S
C965 C381 1.028 . S
C971 C337 0.985 . S
C985 C370 0.946 . S
C991 C216 1.013 . S
