# Generated by pormake.
# Topology vce, (5)-cn, num edge types: 1
# Building blocks:
#     Node 0, Type 0, BuildingBlock: XOMCOT_clean_sbu_1, # of connection points: 5
#     Node 1, Type 0, BuildingBlock: XOMCOT_clean_sbu_1, # of connection points: 5
#     Node 2, Type 0, BuildingBlock: XOMCOT_clean_sbu_1, # of connection points: 5
#     Node 3, Type 0, BuildingBlock: XOMCOT_clean_sbu_1, # of connection points: 5
#     Node 4, Type 0, BuildingBlock: XOMCOT_clean_sbu_1, # of connection points: 5
#     Node 5, Type 0, BuildingBlock: XOMCOT_clean_sbu_1, # of connection points: 5
#     Node 6, Type 0, BuildingBlock: XOMCOT_clean_sbu_1, # of connection points: 5
#     Node 7, Type 0, BuildingBlock: XOMCOT_clean_sbu_1, # of connection points: 5
#     Node 8, Type 0, BuildingBlock: XOMCOT_clean_sbu_1, # of connection points: 5
#     Node 9, Type 0, BuildingBlock: XOMCOT_clean_sbu_1, # of connection points: 5
#     Node 10, Type 0, BuildingBlock: XOMCOT_clean_sbu_1, # of connection points: 5
#     Node 11, Type 0, BuildingBlock: XOMCOT_clean_sbu_1, # of connection points: 5
#     Node 12, Type 0, BuildingBlock: XOMCOT_clean_sbu_1, # of connection points: 5
#     Node 13, Type 0, BuildingBlock: XOMCOT_clean_sbu_1, # of connection points: 5
#     Node 14, Type 0, BuildingBlock: XOMCOT_clean_sbu_1, # of connection points: 5
#     Node 15, Type 0, BuildingBlock: XOMCOT_clean_sbu_1, # of connection points: 5
#     Node 16, Type 0, BuildingBlock: XOMCOT_clean_sbu_1, # of connection points: 5
#     Node 17, Type 0, BuildingBlock: XOMCOT_clean_sbu_1, # of connection points: 5
#     Node 18, Type 0, BuildingBlock: XOMCOT_clean_sbu_1, # of connection points: 5
#     Node 19, Type 0, BuildingBlock: XOMCOT_clean_sbu_1, # of connection points: 5
#     Node 20, Type 0, BuildingBlock: XOMCOT_clean_sbu_1, # of connection points: 5
#     Node 21, Type 0, BuildingBlock: XOMCOT_clean_sbu_1, # of connection points: 5
#     Node 22, Type 0, BuildingBlock: XOMCOT_clean_sbu_1, # of connection points: 5
#     Node 23, Type 0, BuildingBlock: XOMCOT_clean_sbu_1, # of connection points: 5
#     Node 24, Type 0, BuildingBlock: XOMCOT_clean_sbu_1, # of connection points: 5
#     Node 25, Type 0, BuildingBlock: XOMCOT_clean_sbu_1, # of connection points: 5
#     Node 26, Type 0, BuildingBlock: XOMCOT_clean_sbu_1, # of connection points: 5
#     Node 27, Type 0, BuildingBlock: XOMCOT_clean_sbu_1, # of connection points: 5
#     Node 28, Type 0, BuildingBlock: XOMCOT_clean_sbu_1, # of connection points: 5
#     Node 29, Type 0, BuildingBlock: XOMCOT_clean_sbu_1, # of connection points: 5
#     Node 30, Type 0, BuildingBlock: XOMCOT_clean_sbu_1, # of connection points: 5
#     Node 31, Type 0, BuildingBlock: XOMCOT_clean_sbu_1, # of connection points: 5
#     Edge 32, Type (0, 0), BuildingBlock: XUDNAN_clean_linker_2, # of connection points: 2
#     Edge 33, Type (0, 0), BuildingBlock: XUDNAN_clean_linker_2, # of connection points: 2
#     Edge 34, Type (0, 0), BuildingBlock: XUDNAN_clean_linker_2, # of connection points: 2
#     Edge 35, Type (0, 0), BuildingBlock: XUDNAN_clean_linker_2, # of connection points: 2
#     Edge 36, Type (0, 0), BuildingBlock: XUDNAN_clean_linker_2, # of connection points: 2
#     Edge 37, Type (0, 0), BuildingBlock: XUDNAN_clean_linker_2, # of connection points: 2
#     Edge 38, Type (0, 0), BuildingBlock: XUDNAN_clean_linker_2, # of connection points: 2
#     Edge 39, Type (0, 0), BuildingBlock: XUDNAN_clean_linker_2, # of connection points: 2
#     Edge 40, Type (0, 0), BuildingBlock: XUDNAN_clean_linker_2, # of connection points: 2
#     Edge 41, Type (0, 0), BuildingBlock: XUDNAN_clean_linker_2, # of connection points: 2
#     Edge 42, Type (0, 0), BuildingBlock: XUDNAN_clean_linker_2, # of connection points: 2
#     Edge 43, Type (0, 0), BuildingBlock: XUDNAN_clean_linker_2, # of connection points: 2
#     Edge 44, Type (0, 0), BuildingBlock: XUDNAN_clean_linker_2, # of connection points: 2
#     Edge 45, Type (0, 0), BuildingBlock: XUDNAN_clean_linker_2, # of connection points: 2
#     Edge 46, Type (0, 0), BuildingBlock: XUDNAN_clean_linker_2, # of connection points: 2
#     Edge 47, Type (0, 0), BuildingBlock: XUDNAN_clean_linker_2, # of connection points: 2
#     Edge 48, Type (0, 0), BuildingBlock: XUDNAN_clean_linker_2, # of connection points: 2
#     Edge 49, Type (0, 0), BuildingBlock: XUDNAN_clean_linker_2, # of connection points: 2
#     Edge 50, Type (0, 0), BuildingBlock: XUDNAN_clean_linker_2, # of connection points: 2
#     Edge 51, Type (0, 0), BuildingBlock: XUDNAN_clean_linker_2, # of connection points: 2
#     Edge 52, Type (0, 0), BuildingBlock: XUDNAN_clean_linker_2, # of connection points: 2
#     Edge 53, Type (0, 0), BuildingBlock: XUDNAN_clean_linker_2, # of connection points: 2
#     Edge 54, Type (0, 0), BuildingBlock: XUDNAN_clean_linker_2, # of connection points: 2
#     Edge 55, Type (0, 0), BuildingBlock: XUDNAN_clean_linker_2, # of connection points: 2
#     Edge 56, Type (0, 0), BuildingBlock: XUDNAN_clean_linker_2, # of connection points: 2
#     Edge 57, Type (0, 0), BuildingBlock: XUDNAN_clean_linker_2, # of connection points: 2
#     Edge 58, Type (0, 0), BuildingBlock: XUDNAN_clean_linker_2, # of connection points: 2
#     Edge 59, Type (0, 0), BuildingBlock: XUDNAN_clean_linker_2, # of connection points: 2
#     Edge 60, Type (0, 0), BuildingBlock: XUDNAN_clean_linker_2, # of connection points: 2
#     Edge 61, Type (0, 0), BuildingBlock: XUDNAN_clean_linker_2, # of connection points: 2
#     Edge 62, Type (0, 0), BuildingBlock: XUDNAN_clean_linker_2, # of connection points: 2
#     Edge 63, Type (0, 0), BuildingBlock: XUDNAN_clean_linker_2, # of connection points: 2
#     Edge 64, Type (0, 0), BuildingBlock: XUDNAN_clean_linker_2, # of connection points: 2
#     Edge 65, Type (0, 0), BuildingBlock: XUDNAN_clean_linker_2, # of connection points: 2
#     Edge 66, Type (0, 0), BuildingBlock: XUDNAN_clean_linker_2, # of connection points: 2
#     Edge 67, Type (0, 0), BuildingBlock: XUDNAN_clean_linker_2, # of connection points: 2
#     Edge 68, Type (0, 0), BuildingBlock: XUDNAN_clean_linker_2, # of connection points: 2
#     Edge 69, Type (0, 0), BuildingBlock: XUDNAN_clean_linker_2, # of connection points: 2
#     Edge 70, Type (0, 0), BuildingBlock: XUDNAN_clean_linker_2, # of connection points: 2
#     Edge 71, Type (0, 0), BuildingBlock: XUDNAN_clean_linker_2, # of connection points: 2
#     Edge 72, Type (0, 0), BuildingBlock: XUDNAN_clean_linker_2, # of connection points: 2
#     Edge 73, Type (0, 0), BuildingBlock: XUDNAN_clean_linker_2, # of connection points: 2
#     Edge 74, Type (0, 0), BuildingBlock: XUDNAN_clean_linker_2, # of connection points: 2
#     Edge 75, Type (0, 0), BuildingBlock: XUDNAN_clean_linker_2, # of connection points: 2
#     Edge 76, Type (0, 0), BuildingBlock: XUDNAN_clean_linker_2, # of connection points: 2
#     Edge 77, Type (0, 0), BuildingBlock: XUDNAN_clean_linker_2, # of connection points: 2
#     Edge 78, Type (0, 0), BuildingBlock: XUDNAN_clean_linker_2, # of connection points: 2
#     Edge 79, Type (0, 0), BuildingBlock: XUDNAN_clean_linker_2, # of connection points: 2
#     Edge 80, Type (0, 0), BuildingBlock: XUDNAN_clean_linker_2, # of connection points: 2
#     Edge 81, Type (0, 0), BuildingBlock: XUDNAN_clean_linker_2, # of connection points: 2
#     Edge 82, Type (0, 0), BuildingBlock: XUDNAN_clean_linker_2, # of connection points: 2
#     Edge 83, Type (0, 0), BuildingBlock: XUDNAN_clean_linker_2, # of connection points: 2
#     Edge 84, Type (0, 0), BuildingBlock: XUDNAN_clean_linker_2, # of connection points: 2
#     Edge 85, Type (0, 0), BuildingBlock: XUDNAN_clean_linker_2, # of connection points: 2
#     Edge 86, Type (0, 0), BuildingBlock: XUDNAN_clean_linker_2, # of connection points: 2
#     Edge 87, Type (0, 0), BuildingBlock: XUDNAN_clean_linker_2, # of connection points: 2
#     Edge 88, Type (0, 0), BuildingBlock: XUDNAN_clean_linker_2, # of connection points: 2
#     Edge 89, Type (0, 0), BuildingBlock: XUDNAN_clean_linker_2, # of connection points: 2
#     Edge 90, Type (0, 0), BuildingBlock: XUDNAN_clean_linker_2, # of connection points: 2
#     Edge 91, Type (0, 0), BuildingBlock: XUDNAN_clean_linker_2, # of connection points: 2
#     Edge 92, Type (0, 0), BuildingBlock: XUDNAN_clean_linker_2, # of connection points: 2
#     Edge 93, Type (0, 0), BuildingBlock: XUDNAN_clean_linker_2, # of connection points: 2
#     Edge 94, Type (0, 0), BuildingBlock: XUDNAN_clean_linker_2, # of connection points: 2
#     Edge 95, Type (0, 0), BuildingBlock: XUDNAN_clean_linker_2, # of connection points: 2
#     Edge 96, Type (0, 0), BuildingBlock: XUDNAN_clean_linker_2, # of connection points: 2
#     Edge 97, Type (0, 0), BuildingBlock: XUDNAN_clean_linker_2, # of connection points: 2
#     Edge 98, Type (0, 0), BuildingBlock: XUDNAN_clean_linker_2, # of connection points: 2
#     Edge 99, Type (0, 0), BuildingBlock: XUDNAN_clean_linker_2, # of connection points: 2
#     Edge 100, Type (0, 0), BuildingBlock: XUDNAN_clean_linker_2, # of connection points: 2
#     Edge 101, Type (0, 0), BuildingBlock: XUDNAN_clean_linker_2, # of connection points: 2
#     Edge 102, Type (0, 0), BuildingBlock: XUDNAN_clean_linker_2, # of connection points: 2
#     Edge 103, Type (0, 0), BuildingBlock: XUDNAN_clean_linker_2, # of connection points: 2
#     Edge 104, Type (0, 0), BuildingBlock: XUDNAN_clean_linker_2, # of connection points: 2
#     Edge 105, Type (0, 0), BuildingBlock: XUDNAN_clean_linker_2, # of connection points: 2
#     Edge 106, Type (0, 0), BuildingBlock: XUDNAN_clean_linker_2, # of connection points: 2
#     Edge 107, Type (0, 0), BuildingBlock: XUDNAN_clean_linker_2, # of connection points: 2
#     Edge 108, Type (0, 0), BuildingBlock: XUDNAN_clean_linker_2, # of connection points: 2
#     Edge 109, Type (0, 0), BuildingBlock: XUDNAN_clean_linker_2, # of connection points: 2
#     Edge 110, Type (0, 0), BuildingBlock: XUDNAN_clean_linker_2, # of connection points: 2
#     Edge 111, Type (0, 0), BuildingBlock: XUDNAN_clean_linker_2, # of connection points: 2
# Relax obj value: 0.149
# Max RMSD: 0.171
# Mean RMSD: 0.171
data_MOF--net-vce--node1-XOMCOT_clean_sbu_1--edge1-XUDNAN_clean_linker_2
_symmetry_space_group_name_H-M    P1
_symmetry_Int_Tables_number       1
_symmetry_cell_setting            triclinic
loop_
_symmetry_equiv_pos_as_xyz
'x, y, z'
_cell_length_a     48.237704
_cell_length_b     126.90809
_cell_length_c     26.643214
_cell_angle_alpha  89.907866
_cell_angle_beta   89.956227
_cell_angle_gamma 89.944887
loop_
_atom_site_label
_atom_site_type_symbol
_atom_site_fract_x
_atom_site_fract_y
_atom_site_fract_z
_atom_type_partial_charge
C0 C 0.07422 0.2416 0.36589 0.0
C1 C 0.06725 0.25169 0.35181 0.0
N2 N 0.04052 0.25183 0.33702 0.0
N3 N 0.05212 0.23518 0.36063 0.0
C4 C 0.03174 0.24175 0.34379 0.0
H5 H 0.09474 0.23901 0.37664 0.0
Co6 Co 0.05448 0.22009 0.36477 0.0
C7 C 0.08738 0.21438 0.27465 0.0
O8 O 0.07477 0.20524 0.27155 0.0
N9 N 0.05767 0.20481 0.36853 0.0
C10 C 0.04926 0.1875 0.36458 0.0
C11 C 0.0382 0.19739 0.35895 0.0
C12 C 0.08055 0.19898 0.38036 0.0
N13 N 0.07601 0.18841 0.37786 0.0
O14 O 0.08213 0.22134 0.41676 0.0
H15 H 0.01714 0.1988 0.3475 0.0
H16 H 0.10042 0.20245 0.3893 0.0
O17 O 0.08163 0.22068 0.31057 0.0
C18 C 0.06839 0.22015 0.45744 0.0
O19 O 0.04182 0.21804 0.45399 0.0
N20 N 0.0248 0.21916 0.32054 0.0
C21 C 0.9722 0.22212 0.28116 0.0
C22 C -0.0044 0.22375 0.25078 0.0
C23 C 0.02214 0.22213 0.27135 0.0
C24 C 0.00205 0.21767 0.34985 0.0
C25 C 0.9757 0.21882 0.33069 0.0
H26 H 0.04011 0.22419 0.24929 0.0
H27 H 0.00447 0.2159 0.38922 0.0
H28 H 0.01122 0.23911 0.33385 0.0
H29 H 0.08129 0.25833 0.35113 0.0
H30 H 0.03817 0.18016 0.35956 0.0
H31 H -0.00659 0.22666 0.21277 0.0
H32 H 0.9581 0.21779 0.35556 0.0
C33 C 0.18198 0.06753 0.37971 0.0
C34 C 0.1863 0.05817 0.35482 0.0
N35 N 0.19187 0.06028 0.30627 0.0
N36 N 0.18462 0.07566 0.34733 0.0
C37 C 0.19025 0.07093 0.30266 0.0
H38 H 0.17841 0.06824 0.41954 0.0
Co39 Co 0.18641 0.09038 0.36303 0.0
C40 C 0.15117 0.10046 0.28217 0.0
O41 O 0.15966 0.11009 0.29119 0.0
N42 N 0.18873 0.10504 0.37974 0.0
C43 C 0.20786 0.12047 0.39933 0.0
C44 C 0.21293 0.11014 0.38703 0.0
C45 C 0.1691 0.11245 0.39026 0.0
N46 N 0.18026 0.12201 0.40088 0.0
O47 O 0.15744 0.08881 0.41165 0.0
H48 H 0.23323 0.10661 0.38345 0.0
H49 H 0.14704 0.11092 0.38901 0.0
O50 O 0.16029 0.09275 0.30826 0.0
C51 C 0.17043 0.08764 0.45308 0.0
O52 O 0.19768 0.08784 0.45207 0.0
N53 N 0.21697 0.09162 0.32056 0.0
C54 C 0.26904 0.09252 0.27692 0.0
C55 C 0.24713 0.09832 0.25634 0.0
C56 C 0.22084 0.09766 0.27857 0.0
C57 C 0.23831 0.08603 0.34073 0.0
C58 C 0.26433 0.08619 0.31898 0.0
H59 H 0.20434 0.10234 0.26327 0.0
H60 H 0.23518 0.08158 0.37493 0.0
H61 H 0.19486 0.0753 0.26877 0.0
H62 H 0.186 0.05042 0.37178 0.0
H63 H 0.22344 0.12647 0.4053 0.0
H64 H 0.25049 0.1035 0.22459 0.0
H65 H 0.2811 0.08187 0.33668 0.0
C66 C 0.00199 0.08678 0.83452 0.0
C67 C 0.9907 0.07757 0.85285 0.0
N68 N 0.00774 0.0736 0.88832 0.0
N69 N 0.02611 0.08874 0.85816 0.0
C70 C 0.02915 0.08054 0.89053 0.0
H71 H 0.99295 0.09182 0.80617 0.0
Co72 Co 0.04809 0.10093 0.8476 0.0
C73 C 0.07304 0.10519 0.94499 0.0
O74 O 0.06647 0.11513 0.93818 0.0
N75 N 0.07111 0.11326 0.83645 0.0
C76 C 0.10993 0.12246 0.82271 0.0
C77 C 0.09862 0.11258 0.82676 0.0
C78 C 0.06655 0.12386 0.83879 0.0
N79 N 0.08981 0.1296 0.83051 0.0
O80 O 0.07403 0.09259 0.81126 0.0
H81 H 0.11036 0.10534 0.82451 0.0
H82 H 0.0469 0.12742 0.84816 0.0
O83 O 0.06707 0.09842 0.91123 0.0
C84 C 0.06629 0.09297 0.7655 0.0
O85 O 0.04316 0.098 0.75495 0.0
N86 N 0.02022 0.10889 0.87716 0.0
C87 C 0.9653 0.11441 0.89307 0.0
C88 C 0.98061 0.10948 0.93126 0.0
C89 C 0.00817 0.10667 0.92237 0.0
C90 C 0.00611 0.11433 0.84126 0.0
C91 C 0.97884 0.11742 0.84892 0.0
H92 H 0.0184 0.1016 0.94918 0.0
H93 H 0.01514 0.11531 0.80438 0.0
H94 H 0.04644 0.07979 0.91607 0.0
H95 H 0.97143 0.07408 0.84053 0.0
H96 H 0.13163 0.12424 0.81674 0.0
H97 H 0.97057 0.10685 0.96544 0.0
H98 H 0.96757 0.12093 0.81795 0.0
C99 C 0.22123 0.25087 0.83611 0.0
C100 C 0.22748 0.26031 0.85861 0.0
N101 N 0.21016 0.26175 0.89774 0.0
N102 N 0.19997 0.24623 0.86048 0.0
C103 C 0.19348 0.25311 0.89771 0.0
H104 H 0.23215 0.2474 0.80474 0.0
Co105 Co 0.18776 0.23239 0.84453 0.0
C106 C 0.17632 0.22419 0.94683 0.0
O107 O 0.19336 0.21629 0.93872 0.0
N108 N 0.17513 0.2186 0.82566 0.0
C109 C 0.16547 0.20573 0.7713 0.0
C110 C 0.17695 0.21554 0.77722 0.0
C111 C 0.16074 0.21061 0.84783 0.0
N112 N 0.15534 0.20257 0.81583 0.0
O113 O 0.15381 0.23767 0.81776 0.0
H114 H 0.18592 0.22025 0.74751 0.0
H115 H 0.15355 0.21068 0.88611 0.0
O116 O 0.17179 0.23098 0.91218 0.0
C117 C 0.1577 0.24071 0.77255 0.0
O118 O 0.18325 0.24259 0.75807 0.0
N119 N 0.22266 0.22722 0.86503 0.0
C120 C 0.27975 0.22439 0.87307 0.0
C121 C 0.26497 0.22941 0.91154 0.0
C122 C 0.23627 0.23071 0.9069 0.0
C123 C 0.23689 0.22203 0.82841 0.0
C124 C 0.2652 0.22031 0.83222 0.0
H125 H 0.22544 0.23529 0.93492 0.0
H126 H 0.22719 0.22006 0.79347 0.0
H127 H 0.17758 0.25163 0.92537 0.0
H128 H 0.24372 0.26566 0.847 0.0
H129 H 0.16403 0.20139 0.73647 0.0
H130 H 0.27567 0.2328 0.94337 0.0
H131 H 0.27596 0.21671 0.80089 0.0
C132 C -0.00337 0.82908 0.62543 0.0
C133 C 0.0089 0.81987 0.64065 0.0
N134 N 0.99104 0.81451 0.67007 0.0
N135 N 0.97095 0.82978 0.64512 0.0
C136 C 0.96811 0.82075 0.6725 0.0
H137 H 0.00588 0.83486 0.60078 0.0
Co138 Co 0.94674 0.84134 0.63137 0.0
C139 C 0.92253 0.84676 0.72927 0.0
O140 O 0.92824 0.85663 0.71875 0.0
N141 N 0.92174 0.853 0.61756 0.0
C142 C 0.88161 0.86144 0.60458 0.0
C143 C 0.89414 0.85179 0.61058 0.0
C144 C 0.92512 0.86368 0.6163 0.0
N145 N 0.90107 0.86896 0.60849 0.0
O146 O 0.92101 0.83191 0.59874 0.0
H147 H 0.88325 0.84436 0.61201 0.0
H148 H 0.94454 0.86764 0.62298 0.0
O149 O 0.92932 0.83953 0.69805 0.0
C150 C 0.93079 0.83028 0.55471 0.0
O151 O 0.95552 0.83399 0.54406 0.0
N152 N 0.97422 0.85051 0.6541 0.0
C153 C 0.0249 0.86116 0.65911 0.0
C154 C 0.01296 0.85663 0.70252 0.0
C155 C 0.98769 0.85113 0.69904 0.0
C156 C 0.98538 0.85494 0.6122 0.0
C157 C 0.01025 0.86036 0.61386 0.0
H158 H 0.98 0.84688 0.73134 0.0
H159 H 0.97544 0.85373 0.57628 0.0
H160 H 0.94939 0.81867 0.69262 0.0
H161 H 0.02957 0.81731 0.63055 0.0
H162 H 0.85959 0.86282 0.6002 0.0
H163 H 0.02362 0.85688 0.73823 0.0
H164 H 0.01874 0.86317 0.57872 0.0
C165 C 0.7595 0.98891 0.59173 0.0
C166 C 0.75088 0.99792 0.61596 0.0
N167 N 0.76733 0.99953 0.6561 0.0
N168 N 0.78145 0.98473 0.61601 0.0
C169 C 0.78592 0.99148 0.6547 0.0
H170 H 0.74915 0.98523 0.56034 0.0
Co171 Co 0.79599 0.97104 0.60166 0.0
C172 C 0.81419 0.96483 0.70356 0.0
O173 O 0.79865 0.95634 0.70111 0.0
N174 N 0.81064 0.95733 0.58454 0.0
C175 C 0.8185 0.94355 0.53423 0.0
C176 C 0.80649 0.95332 0.53817 0.0
C177 C 0.82689 0.9499 0.60713 0.0
N178 N 0.83123 0.94132 0.57778 0.0
O179 O 0.82679 0.97723 0.56741 0.0
H180 H 0.79499 0.9572 0.50867 0.0
H181 H 0.8358 0.95069 0.64398 0.0
O182 O 0.81565 0.97108 0.66592 0.0
C183 C 0.81875 0.979 0.52251 0.0
O184 O 0.79259 0.97729 0.51151 0.0
N185 N 0.76368 0.96516 0.63011 0.0
C186 C 0.70659 0.96427 0.64194 0.0
C187 C 0.72303 0.96896 0.67892 0.0
C188 C 0.75175 0.96923 0.67256 0.0
C189 C 0.748 0.95957 0.59701 0.0
C190 C 0.71948 0.95884 0.60277 0.0
H191 H 0.76373 0.9739 0.69848 0.0
H192 H 0.75655 0.95684 0.56221 0.0
H193 H 0.80156 0.9902 0.68287 0.0
H194 H 0.73267 1.0025 0.60653 0.0
H195 H 0.81813 0.93854 0.50142 0.0
H196 H 0.71367 0.97324 0.70974 0.0
H197 H 0.70744 0.95527 0.57297 0.0
C198 C 0.90782 0.99948 0.08959 0.0
C199 C 0.91399 1.00926 0.07015 0.0
N200 N 0.9415 1.00979 0.06154 0.0
N201 N 0.9312 0.9937 0.09363 0.0
C202 C 0.95142 1.00026 0.07649 0.0
H203 H 0.88734 0.99668 0.0994 0.0
Co204 Co 0.93189 0.97931 0.11504 0.0
C205 C 0.89567 0.96879 0.03812 0.0
O206 O 0.90905 0.95979 0.04105 0.0
N207 N 0.93225 0.96489 0.13733 0.0
C208 C 0.94753 0.94916 0.16272 0.0
C209 C 0.95484 0.95937 0.15176 0.0
C210 C 0.91109 0.95788 0.14315 0.0
N211 N 0.91999 0.94811 0.15646 0.0
O212 O 0.90555 0.98233 0.16678 0.0
H213 H 0.97561 0.96245 0.15439 0.0
H214 H 0.88967 0.95978 0.13518 0.0
O215 O 0.90287 0.97654 0.06577 0.0
C216 C 0.91954 0.98559 0.20432 0.0
O217 O 0.94635 0.98694 0.19841 0.0
N218 N 0.96021 0.97659 0.06888 0.0
C219 C 0.00972 0.97187 0.02116 0.0
C220 C 0.98473 0.97115 0.99482 0.0
C221 C 0.95999 0.97389 0.01915 0.0
C222 C 0.98465 0.97797 0.09338 0.0
C223 C 0.00961 0.97564 0.07037 0.0
H224 H 0.94114 0.97377 0.99773 0.0
H225 H 0.98458 0.98061 0.13193 0.0
H226 H 0.97296 0.99803 0.0736 0.0
H227 H 0.89917 1.01548 0.06301 0.0
H228 H 0.96161 0.94298 0.17431 0.0
H229 H 0.98436 0.96846 0.95626 0.0
H230 H 0.02865 0.97634 0.0917 0.0
C231 C 0.76817 0.83144 0.19031 0.0
C232 C 0.75426 0.82254 0.17511 0.0
N233 N 0.76586 0.81896 0.1323 0.0
N234 N 0.7886 0.83361 0.15743 0.0
C235 C 0.78687 0.82578 0.12263 0.0
H236 H 0.76311 0.83625 0.22252 0.0
Co237 Co 0.81089 0.84592 0.161 0.0
C238 C 0.82873 0.84929 0.05725 0.0
O239 O 0.81944 0.85897 0.06193 0.0
N240 N 0.83465 0.85843 0.16418 0.0
C241 C 0.87422 0.86758 0.16993 0.0
C242 C 0.86248 0.85772 0.16971 0.0
C243 C 0.83042 0.86906 0.15981 0.0
N244 N 0.85409 0.8748 0.16371 0.0
O245 O 0.83894 0.83778 0.19538 0.0
H246 H 0.87405 0.85046 0.17267 0.0
H247 H 0.81063 0.87263 0.15171 0.0
O248 O 0.82627 0.84287 0.09408 0.0
C249 C 0.83304 0.83926 0.24176 0.0
O250 O 0.81191 0.84542 0.25225 0.0
N251 N 0.78067 0.85371 0.13681 0.0
C252 C 0.72515 0.86032 0.13891 0.0
C253 C 0.73522 0.85386 0.09971 0.0
C254 C 0.76325 0.85076 0.09895 0.0
C255 C 0.77132 0.86014 0.17394 0.0
C256 C 0.74453 0.86409 0.17376 0.0
H257 H 0.77003 0.84506 0.07138 0.0
H258 H 0.78423 0.86173 0.20618 0.0
H259 H 0.79986 0.82535 0.08958 0.0
H260 H 0.73662 0.81905 0.19395 0.0
H261 H 0.89606 0.86922 0.17463 0.0
H262 H 0.72145 0.85056 0.07189 0.0
H263 H 0.73887 0.86947 0.20342 0.0
C264 C 0.00494 0.73639 0.91453 0.0
C265 C -0.00197 0.74602 0.894 0.0
N266 N 0.01922 0.74935 0.86529 0.0
N267 N 0.03048 0.73342 0.89878 0.0
C268 C 0.03882 0.74172 0.86997 0.0
H269 H 0.99157 0.73193 0.93901 0.0
Co270 Co 0.0515 0.72051 0.91131 0.0
C271 C 0.05199 0.72282 0.80091 0.0
O272 O 0.02513 0.72453 0.80306 0.0
N273 N 0.07321 0.70803 0.92169 0.0
C274 C 0.11108 0.69793 0.91945 0.0
C275 C 0.10095 0.708 0.91495 0.0
C276 C 0.06703 0.69768 0.93008 0.0
N277 N 0.08981 0.69135 0.92872 0.0
O278 O 0.08164 0.72884 0.93809 0.0
H279 H 0.11315 0.71483 0.90489 0.0
H280 H 0.04618 0.69479 0.9358 0.0
O281 O 0.06547 0.72099 0.84147 0.0
C282 C 0.074 0.73201 0.98163 0.0
O283 O 0.04798 0.73076 0.9947 0.0
N284 N 0.02093 0.71212 0.89573 0.0
C285 C 0.97245 0.7 0.90397 0.0
C286 C 0.98114 0.70676 0.9426 0.0
C287 C 0.0057 0.71227 0.93848 0.0
C288 C 0.0145 0.70519 0.85839 0.0
C289 C 0.99017 0.69908 0.86169 0.0
H290 H 0.01257 0.71693 0.96993 0.0
H291 H 0.02836 0.7041 0.82695 0.0
H292 H 0.0588 0.74201 0.85156 0.0
H293 H 0.97836 0.75003 0.89835 0.0
H294 H 0.13242 0.6956 0.91353 0.0
H295 H 0.96931 0.7082 0.97619 0.0
H296 H 0.98574 0.69365 0.83156 0.0
C297 C 0.14072 0.56889 0.82448 0.0
C298 C 0.14787 0.5593 0.804 0.0
N299 N 0.17412 0.55696 0.81745 0.0
N300 N 0.1622 0.57274 0.85113 0.0
C301 C 0.18218 0.56521 0.84643 0.0
H302 H 0.1212 0.57295 0.81916 0.0
Co303 Co 0.16298 0.58652 0.88072 0.0
C304 C 0.15645 0.6003 0.79142 0.0
O305 O 0.17494 0.60691 0.80924 0.0
N306 N 0.16301 0.60048 0.90922 0.0
C307 C 0.17257 0.61494 0.95362 0.0
C308 C 0.18052 0.60476 0.94313 0.0
C309 C 0.14399 0.60826 0.9013 0.0
N310 N 0.14961 0.61724 0.92703 0.0
O311 O 0.12614 0.58502 0.90638 0.0
H312 H 0.1979 0.60081 0.96027 0.0
H313 H 0.12645 0.60737 0.87639 0.0
O314 O 0.15 0.59206 0.81645 0.0
C315 C 0.12564 0.57867 0.94368 0.0
O316 O 0.14516 0.57147 0.94682 0.0
N317 N 0.20012 0.58749 0.86358 0.0
C318 C 0.25726 0.58501 0.86149 0.0
C319 C 0.24279 0.58755 0.81735 0.0
C320 C 0.21381 0.5885 0.8189 0.0
C321 C 0.21401 0.58477 0.90605 0.0
C322 C 0.2425 0.58363 0.90609 0.0
H323 H 0.20264 0.58957 0.78423 0.0
H324 H 0.20252 0.58315 0.94008 0.0
H325 H 0.20268 0.56593 0.86232 0.0
H326 H 0.13465 0.55448 0.78065 0.0
H327 H 0.18281 0.62018 0.97969 0.0
H328 H 0.25365 0.58842 0.78198 0.0
H329 H 0.25289 0.58162 0.94086 0.0
C330 C 0.05992 0.56371 0.37037 0.0
C331 C 0.05531 0.55458 0.39713 0.0
N332 N 0.0445 0.55713 0.4421 0.0
N333 N 0.05208 0.57211 0.398 0.0
C334 C 0.04318 0.56781 0.44195 0.0
H335 H 0.06726 0.56402 0.33213 0.0
Co336 Co 0.04758 0.58633 0.37538 0.0
C337 C 0.06739 0.59997 0.45999 0.0
O338 O 0.05213 0.60792 0.44478 0.0
N339 N 0.04308 0.60049 0.35207 0.0
C340 C 0.02557 0.6162 0.3316 0.0
C341 C 0.01936 0.60587 0.34333 0.0
C342 C 0.06343 0.60765 0.34292 0.0
N343 N 0.0533 0.61728 0.33133 0.0
O344 O 0.08149 0.58568 0.33763 0.0
H345 H -0.00129 0.60266 0.34684 0.0
H346 H 0.08527 0.60605 0.34837 0.0
O347 O 0.06679 0.59115 0.43667 0.0
C348 C 0.07328 0.58334 0.29338 0.0
O349 O 0.04698 0.58112 0.28652 0.0
N350 N 0.01256 0.58649 0.40493 0.0
C351 C 0.95566 0.58581 0.41928 0.0
C352 C 0.97238 0.59177 0.45165 0.0
C353 C 0.00121 0.59182 0.44446 0.0
C354 C -0.00355 0.58041 0.37468 0.0
C355 C 0.9681 0.57984 0.38158 0.0
H356 H 0.01378 0.59644 0.46934 0.0
H357 H 0.00566 0.57625 0.34354 0.0
H358 H 0.03412 0.5724 0.47201 0.0
H359 H 0.05901 0.54665 0.38383 0.0
H360 H 0.01085 0.62249 0.3249 0.0
H361 H 0.9632 0.59651 0.48106 0.0
H362 H 0.9558 0.57529 0.35537 0.0
C363 C 0.21738 0.73135 0.35173 0.0
C364 C 0.22552 0.74143 0.36449 0.0
N365 N 0.21053 0.74464 0.40447 0.0
N366 N 0.19737 0.7281 0.3835 0.0
C367 C 0.19333 0.73645 0.41448 0.0
H368 H 0.22638 0.72651 0.32257 0.0
Co369 Co 0.18218 0.71428 0.38768 0.0
C370 C 0.16907 0.71672 0.49931 0.0
O371 O 0.19215 0.71215 0.51358 0.0
N372 N 0.16591 0.70041 0.39273 0.0
C373 C 0.15174 0.68532 0.42761 0.0
C374 C 0.1652 0.69465 0.43552 0.0
C375 C 0.15311 0.69406 0.35859 0.0
N376 N 0.14411 0.6849 0.3793 0.0
O377 O 0.15094 0.71917 0.34934 0.0
H378 H 0.17473 0.69681 0.47041 0.0
H379 H 0.15034 0.69607 0.31946 0.0
O380 O 0.16372 0.71788 0.45239 0.0
C381 C 0.15833 0.71765 0.3037 0.0
O382 O 0.18192 0.71275 0.29547 0.0
N383 N 0.21582 0.70938 0.41667 0.0
C384 C 0.27308 0.70616 0.41177 0.0
C385 C 0.26202 0.71411 0.44233 0.0
C386 C 0.23331 0.71562 0.44412 0.0
C387 C 0.2264 0.70098 0.39084 0.0
C388 C 0.25481 0.69913 0.38869 0.0
H389 H 0.22564 0.72254 0.46306 0.0
H390 H 0.2134 0.69638 0.36633 0.0
H391 H 0.17917 0.73627 0.44582 0.0
H392 H 0.24175 0.7459 0.34627 0.0
H393 H 0.14862 0.6791 0.45493 0.0
H394 H 0.27539 0.71979 0.46048 0.0
H395 H 0.26249 0.69283 0.36507 0.0
C396 C 0.98917 0.33304 0.14027 0.0
C397 C 7e-05 0.32333 0.15195 0.0
N398 N 0.97946 0.31697 0.16796 0.0
N399 N 0.96168 0.33309 0.1495 0.0
C400 C 0.95621 0.323 0.16373 0.0
H401 H 0.00092 0.33971 0.12689 0.0
Co402 Co 0.93834 0.34526 0.14437 0.0
C403 C 0.91726 0.33619 0.24542 0.0
O404 O 0.93761 0.32962 0.25515 0.0
N405 N 0.91434 0.35739 0.13907 0.0
C406 C 0.87457 0.36631 0.13146 0.0
C407 C 0.88663 0.3565 0.13263 0.0
C408 C 0.9183 0.368 0.14277 0.0
N409 N 0.89448 0.37359 0.13784 0.0
O410 O 0.91419 0.33745 0.10081 0.0
H411 H 0.87555 0.34912 0.13 0.0
H412 H 0.93809 0.3717 0.14919 0.0
O413 O 0.91744 0.3417 0.20515 0.0
C414 C 0.9219 0.34014 0.05665 0.0
O415 O 0.94226 0.34696 0.05235 0.0
N416 N 0.96435 0.3531 0.18028 0.0
C417 C 0.01809 0.35898 0.20329 0.0
C418 C 0.00159 0.35397 0.23947 0.0
C419 C 0.97435 0.3512 0.22738 0.0
C420 C 0.97927 0.35897 0.14705 0.0
C421 C 0.00592 0.36227 0.15834 0.0
H422 H 0.96291 0.34658 0.25397 0.0
H423 H 0.97162 0.36009 0.10929 0.0
H424 H 0.93559 0.32028 0.17292 0.0
H425 H 0.02177 0.32127 0.14947 0.0
H426 H 0.85263 0.36792 0.1276 0.0
H427 H 0.01049 0.35129 0.27456 0.0
H428 H 0.01811 0.36598 0.12908 0.0
C429 C 0.76309 0.49469 0.11703 0.0
C430 C 0.75573 0.5043 0.13665 0.0
N431 N 0.77455 0.50706 0.17156 0.0
N432 N 0.78665 0.49127 0.13891 0.0
C433 C 0.79324 0.49903 0.17192 0.0
H434 H 0.75104 0.49016 0.09054 0.0
Co435 Co 0.80095 0.47746 0.12774 0.0
C436 C 0.8266 0.47382 0.22746 0.0
O437 O 0.81069 0.46558 0.23506 0.0
N438 N 0.81502 0.46354 0.11352 0.0
C439 C 0.82016 0.44924 0.06557 0.0
C440 C 0.80943 0.45922 0.06832 0.0
C441 C 0.83043 0.45597 0.13693 0.0
N442 N 0.83324 0.44709 0.10889 0.0
O443 O 0.8287 0.48312 0.08345 0.0
H444 H 0.79731 0.46294 0.03925 0.0
H445 H 0.83948 0.45678 0.17364 0.0
O446 O 0.82524 0.47901 0.18637 0.0
C447 C 0.81778 0.48429 0.04009 0.0
O448 O 0.79108 0.48256 0.03529 0.0
N449 N 0.77137 0.47198 0.16622 0.0
C450 C 0.71573 0.47041 0.1919 0.0
C451 C 0.73386 0.47629 0.2218 0.0
C452 C 0.76179 0.47693 0.20845 0.0
C453 C 0.7545 0.46526 0.14062 0.0
C454 C 0.72672 0.4642 0.15343 0.0
H455 H 0.77472 0.48244 0.22848 0.0
H456 H 0.76116 0.46172 0.10605 0.0
H457 H 0.81068 0.49858 0.19732 0.0
H458 H 0.73694 0.5086 0.12798 0.0
H459 H 0.81837 0.44396 0.03388 0.0
H460 H 0.72603 0.4812 0.25188 0.0
H461 H 0.71333 0.45969 0.12892 0.0
C462 C 0.9738 0.48386 0.69413 0.0
C463 C 0.98576 0.49364 0.68804 0.0
N464 N 0.97607 0.49797 0.64529 0.0
N465 N 0.95639 0.48197 0.65562 0.0
C466 C 0.95815 0.49077 0.62654 0.0
H467 H 0.97806 0.47836 0.72418 0.0
Co468 Co 0.93611 0.46926 0.64616 0.0
C469 C 0.93409 0.47263 0.5331 0.0
O470 O 0.9558 0.46666 0.52468 0.0
N471 N 0.91492 0.45655 0.63597 0.0
C472 C 0.89849 0.44217 0.59799 0.0
C473 C 0.91408 0.4511 0.59235 0.0
C474 C 0.89967 0.4505 0.6681 0.0
N475 N 0.88956 0.44173 0.64555 0.0
O476 O 0.90453 0.47603 0.6753 0.0
H477 H 0.92498 0.4531 0.55856 0.0
H478 H 0.89631 0.45237 0.70722 0.0
O479 O 0.92525 0.47399 0.57803 0.0
C480 C 0.90878 0.47457 0.72215 0.0
O481 O 0.9294 0.46844 0.73581 0.0
N482 N 0.96914 0.4623 0.62631 0.0
C483 C 0.02257 0.45407 0.63698 0.0
C484 C 0.01798 0.46324 0.60868 0.0
C485 C 0.99115 0.46728 0.60415 0.0
C486 C 0.9734 0.45308 0.65186 0.0
C487 C -0.0003 0.44872 0.65652 0.0
H488 H 0.98857 0.47484 0.58614 0.0
H489 H 0.95701 0.44949 0.6734 0.0
H490 H 0.94681 0.49187 0.59193 0.0
H491 H 0.00113 0.49714 0.71243 0.0
H492 H 0.89453 0.43627 0.56956 0.0
H493 H 0.03512 0.46776 0.59366 0.0
H494 H 0.00226 0.4416 0.67849 0.0
C495 C 0.82958 0.32191 0.60437 0.0
C496 C 0.82045 0.31288 0.58149 0.0
N497 N 0.79358 0.31141 0.59333 0.0
N498 N 0.80874 0.32634 0.63077 0.0
C499 C 0.78718 0.31953 0.62452 0.0
H500 H 0.85016 0.32519 0.60092 0.0
Co501 Co 0.8132 0.33989 0.66221 0.0
C502 C 0.82321 0.35108 0.56424 0.0
O503 O 0.80044 0.35666 0.56907 0.0
N504 N 0.81931 0.35339 0.69351 0.0
C505 C 0.83095 0.36497 0.75338 0.0
C506 C 0.82551 0.35453 0.74276 0.0
C507 C 0.82073 0.36341 0.67551 0.0
N508 N 0.82775 0.37054 0.7109 0.0
O509 O 0.84786 0.3353 0.69092 0.0
H510 H 0.82608 0.34814 0.7696 0.0
H511 H 0.81744 0.36565 0.63725 0.0
O512 O 0.83081 0.34476 0.59923 0.0
C513 C 0.84202 0.32891 0.72665 0.0
O514 O 0.81617 0.32581 0.73157 0.0
N515 N 0.77737 0.34386 0.64154 0.0
C516 C 0.71998 0.34364 0.63432 0.0
C517 C 0.73626 0.3406 0.5933 0.0
C518 C 0.76511 0.34085 0.59751 0.0
C519 C 0.76155 0.34742 0.68044 0.0
C520 C 0.73285 0.34763 0.67715 0.0
H521 H 0.77745 0.33765 0.56722 0.0
H522 H 0.7708 0.34915 0.71634 0.0
H523 H 0.76677 0.32083 0.64026 0.0
H524 H 0.83276 0.30787 0.55735 0.0
H525 H 0.83634 0.36824 0.78959 0.0
H526 H 0.72682 0.33734 0.55989 0.0
H527 H 0.72086 0.34978 0.70999 0.0
C528 C 0.51467 0.23142 0.92874 0.0
C529 C 0.50207 0.24104 0.92184 0.0
N530 N 0.51447 0.24601 0.8832 0.0
N531 N 0.53535 0.23023 0.89512 0.0
C532 C 0.53469 0.23932 0.86781 0.0
H533 H 0.50789 0.22542 0.95478 0.0
Co534 Co 0.55429 0.21728 0.88393 0.0
C535 C 0.60509 0.22403 0.83028 0.0
O536 O 0.6208 0.21906 0.86292 0.0
N537 N 0.57256 0.2042 0.87157 0.0
C538 C 0.59236 0.19115 0.82853 0.0
C539 C 0.58127 0.20109 0.82568 0.0
C540 C 0.57795 0.19576 0.90155 0.0
N541 N 0.59023 0.18774 0.8762 0.0
O542 O 0.57793 0.22008 0.94116 0.0
H543 H 0.57913 0.20568 0.79168 0.0
H544 H 0.57283 0.19541 0.94102 0.0
O545 O 0.57891 0.22424 0.83668 0.0
C546 C 0.56525 0.21642 0.97964 0.0
O547 O 0.54237 0.21103 0.97206 0.0
N548 N 0.52918 0.2143 0.8335 0.0
C549 C 0.47563 0.21567 0.798 0.0
C550 C 0.49683 0.22151 0.77498 0.0
C551 C 0.52389 0.22061 0.79307 0.0
C552 C 0.50987 0.20739 0.85062 0.0
C553 C 0.48281 0.20787 0.83301 0.0
H554 H 0.53938 0.22601 0.77921 0.0
H555 H 0.51445 0.20254 0.88301 0.0
H556 H 0.54795 0.24083 0.83587 0.0
H557 H 0.48404 0.24388 0.94192 0.0
H558 H 0.60049 0.1866 0.79745 0.0
H559 H 0.49205 0.22751 0.74733 0.0
H560 H 0.46712 0.20322 0.85186 0.0
C561 C 0.68708 0.06409 0.95164 0.0
C562 C 0.69491 0.05416 0.9365 0.0
N563 N 0.70293 0.05459 0.88806 0.0
N564 N 0.68992 0.07088 0.91305 0.0
C565 C 0.69933 0.06481 0.87452 0.0
H566 H 0.68109 0.06626 0.98931 0.0
Co567 Co 0.68734 0.08578 0.91787 0.0
C568 C 0.65754 0.09245 0.82414 0.0
O569 O 0.66898 0.10183 0.82454 0.0
N570 N 0.68522 0.10085 0.92334 0.0
C571 C 0.69835 0.11766 0.92829 0.0
C572 C 0.70725 0.1074 0.92645 0.0
C573 C 0.66295 0.10745 0.92569 0.0
N574 N 0.6705 0.11773 0.9275 0.0
O575 O 0.65598 0.08452 0.96244 0.0
H576 H 0.72869 0.10499 0.92704 0.0
H577 H 0.64167 0.10478 0.9237 0.0
O578 O 0.66338 0.08572 0.8584 0.0
C579 C 0.66392 0.08685 0.00689 0.0
O580 O 0.68979 0.08977 0.01363 0.0
N581 N 0.72002 0.08684 0.88094 0.0
C582 C 0.7743 0.09157 0.85528 0.0
C583 C 0.75298 0.09277 0.8199 0.0
C584 C 0.72577 0.09016 0.83326 0.0
C585 C 0.74088 0.08469 0.91376 0.0
C586 C 0.76816 0.08698 0.90176 0.0
H587 H 0.70975 0.09121 0.80581 0.0
H588 H 0.73592 0.08195 0.95118 0.0
H589 H 0.70527 0.06795 0.83828 0.0
H590 H 0.69558 0.04721 0.96008 0.0
H591 H 0.71144 0.12458 0.93003 0.0
H592 H 0.75715 0.09606 0.78313 0.0
H593 H 0.78391 0.08598 0.93036 0.0
C594 C 0.51219 0.0747 0.3641 0.0
C595 C 0.50252 0.06487 0.37849 0.0
N596 N 0.5141 0.06233 0.42288 0.0
N597 N 0.52972 0.07841 0.39937 0.0
C598 C 0.53116 0.07048 0.43361 0.0
H599 H 0.50477 0.07926 0.33251 0.0
Co600 Co 0.54209 0.09269 0.40693 0.0
C601 C 0.5461 0.08978 0.52 0.0
O602 O 0.52106 0.09329 0.5292 0.0
N603 N 0.55525 0.10687 0.41622 0.0
C604 C 0.56214 0.1222 0.45508 0.0
C605 C 0.55045 0.11242 0.45863 0.0
C606 C 0.56976 0.11372 0.38674 0.0
N607 N 0.57434 0.12308 0.40997 0.0
O608 O 0.5768 0.08872 0.37767 0.0
H609 H 0.53828 0.10975 0.49 0.0
H610 H 0.57692 0.1119 0.34925 0.0
O611 O 0.55572 0.08946 0.47521 0.0
C612 C 0.57189 0.08989 0.33081 0.0
O613 O 0.54788 0.09385 0.31709 0.0
N614 N 0.50568 0.09674 0.42642 0.0
C615 C 0.45015 0.09778 0.39906 0.0
C616 C 0.45907 0.09026 0.43391 0.0
C617 C 0.48697 0.08994 0.44766 0.0
C618 C 0.49626 0.10486 0.39714 0.0
C619 C 0.46848 0.10564 0.38383 0.0
H620 H 0.49375 0.08329 0.46969 0.0
H621 H 0.51051 0.10992 0.37737 0.0
H622 H 0.54251 0.07101 0.46841 0.0
H623 H 0.48617 0.06047 0.36028 0.0
H624 H 0.56106 0.12834 0.48317 0.0
H625 H 0.44529 0.08404 0.44634 0.0
H626 H 0.46231 0.11148 0.3563 0.0
C627 C 0.70595 0.24316 0.33901 0.0
C628 C 0.7128 0.25317 0.35469 0.0
N629 N 0.70561 0.25421 0.40334 0.0
N630 N 0.69433 0.23779 0.37736 0.0
C631 C 0.69402 0.24484 0.4158 0.0
H632 H 0.71121 0.23978 0.30303 0.0
Co633 Co 0.68964 0.22288 0.38 0.0
C634 C 0.68399 0.22046 0.49149 0.0
O635 O 0.70592 0.21436 0.49342 0.0
N636 N 0.68492 0.20766 0.3844 0.0
C637 C 0.69242 0.19084 0.40575 0.0
C638 C 0.70284 0.20084 0.40655 0.0
C639 C 0.66351 0.2013 0.37009 0.0
N640 N 0.66764 0.19106 0.38301 0.0
O641 O 0.65303 0.22425 0.35158 0.0
H642 H 0.72246 0.20287 0.42334 0.0
H643 H 0.64485 0.20411 0.352 0.0
O644 O 0.6758 0.22414 0.44926 0.0
C645 C 0.65863 0.22384 0.30452 0.0
O646 O 0.68458 0.22238 0.29133 0.0
N647 N 0.72711 0.22185 0.39686 0.0
C648 C 0.78385 0.22416 0.38105 0.0
C649 C 0.77107 0.22886 0.4229 0.0
C650 C 0.74239 0.22758 0.43031 0.0
C651 C 0.7396 0.2172 0.35668 0.0
C652 C 0.76778 0.21805 0.34872 0.0
H653 H 0.73235 0.23182 0.46038 0.0
H654 H 0.72725 0.21327 0.3286 0.0
H655 H 0.68797 0.24286 0.45371 0.0
H656 H 0.72355 0.25903 0.3325 0.0
H657 H 0.70237 0.18389 0.42101 0.0
H658 H 0.78284 0.23379 0.44824 0.0
H659 H 0.77653 0.21456 0.31515 0.0
C660 C 0.4968 0.83149 0.0977 0.0
C661 C 0.5087 0.82232 0.11466 0.0
N662 N 0.48853 0.81601 0.1324 0.0
N663 N 0.46914 0.8312 0.1056 0.0
C664 C 0.46465 0.82142 0.12475 0.0
H665 H 0.50801 0.83805 0.08184 0.0
Co666 Co 0.44391 0.84265 0.09569 0.0
C667 C 0.42777 0.83512 0.20239 0.0
O668 O 0.45237 0.83148 0.21455 0.0
N669 N 0.4182 0.85392 0.0864 0.0
C670 C 0.3768 0.86177 0.0858 0.0
C671 C 0.39054 0.85231 0.08835 0.0
C672 C 0.42061 0.86458 0.08211 0.0
N673 N 0.39569 0.86952 0.082 0.0
O674 O 0.42048 0.83366 0.05502 0.0
H675 H 0.38083 0.84469 0.09312 0.0
H676 H 0.44007 0.86877 0.08144 0.0
O677 O 0.42364 0.83922 0.15891 0.0
C678 C 0.43216 0.83283 0.01198 0.0
O679 O 0.4568 0.83705 0.00588 0.0
N680 N 0.46908 0.85182 0.12683 0.0
C681 C 0.52087 0.86072 0.14614 0.0
C682 C 0.50428 0.8568 0.18559 0.0
C683 C 0.47804 0.85258 0.17521 0.0
C684 C 0.48353 0.8566 0.08924 0.0
C685 C 0.50902 0.86132 0.0982 0.0
H686 H 0.4661 0.84947 0.20577 0.0
H687 H 0.47616 0.856 0.05101 0.0
H688 H 0.44443 0.8186 0.13611 0.0
H689 H 0.53064 0.82053 0.11499 0.0
H690 H 0.35456 0.86288 0.08739 0.0
H691 H 0.51199 0.85633 0.22363 0.0
H692 H 0.52006 0.86475 0.06681 0.0
C693 C 0.25635 0.98624 0.05345 0.0
C694 C 0.2461 0.99635 0.05756 0.0
N695 N 0.25503 1.00053 0.10116 0.0
N696 N 0.27175 0.98396 0.09423 0.0
C697 C 0.27091 0.9929 0.1222 0.0
H698 H 0.25164 0.9807 0.02385 0.0
Co699 Co 0.28657 0.97045 0.10982 0.0
C700 C 0.28576 0.97575 0.22124 0.0
O701 O 0.26098 0.97191 0.22952 0.0
N702 N 0.3022 0.95697 0.12681 0.0
C703 C 0.31014 0.94232 0.17082 0.0
C704 C 0.29774 0.95203 0.17105 0.0
C705 C 0.31766 0.94994 0.10017 0.0
N706 N 0.32257 0.94091 0.12614 0.0
O707 O 0.32135 0.97496 0.08327 0.0
H708 H 0.28524 0.95504 0.2013 0.0
H709 H 0.32427 0.95119 0.06187 0.0
O710 O 0.29676 0.97533 0.17753 0.0
C711 C 0.31871 0.97248 0.03705 0.0
O712 O 0.29636 0.96738 0.02285 0.0
N713 N 0.25053 0.96565 0.12663 0.0
C714 C 0.19536 0.96104 0.10414 0.0
C715 C 0.20205 0.96975 0.13405 0.0
C716 C 0.22977 0.97202 0.1442 0.0
C717 C 0.24389 0.95668 0.10084 0.0
C718 C 0.21651 0.95416 0.08992 0.0
H719 H 0.23436 0.97947 0.16168 0.0
H720 H 0.25976 0.95204 0.08285 0.0
H721 H 0.28085 0.99371 0.15831 0.0
H722 H 0.23192 1.00009 0.0316 0.0
H723 H 0.30971 0.93668 0.20131 0.0
H724 H 0.18621 0.97527 0.14596 0.0
H725 H 0.21235 0.94748 0.06581 0.0
C726 C 0.44147 0.98874 0.67235 0.0
C727 C 0.44958 0.99903 0.66602 0.0
N728 N 0.44454 1.00196 0.61817 0.0
N729 N 0.4311 0.98505 0.62894 0.0
C730 C 0.43311 0.99332 0.59654 0.0
H731 H 0.44434 0.98406 0.70589 0.0
Co732 Co 0.42295 0.97065 0.61924 0.0
C733 C 0.40044 0.96992 0.51668 0.0
O734 O 0.41697 0.96199 0.50664 0.0
N735 N 0.41498 0.95566 0.60972 0.0
C736 C 0.42086 0.93866 0.59027 0.0
C737 C 0.43165 0.94857 0.58639 0.0
C738 C 0.39354 0.94958 0.62671 0.0
N739 N 0.39699 0.9392 0.61593 0.0
O740 O 0.39147 0.97213 0.6626 0.0
H741 H 0.45059 0.9503 0.56655 0.0
H742 H 0.37613 0.95259 0.64789 0.0
O743 O 0.40083 0.97417 0.56014 0.0
C744 C 0.39861 0.96874 0.70592 0.0
O745 O 0.42255 0.96388 0.7104 0.0
N746 N 0.45609 0.96957 0.58427 0.0
C747 C 0.51217 0.97006 0.56199 0.0
C748 C 0.49307 0.97484 0.5295 0.0
C749 C 0.4648 0.97449 0.54136 0.0
C750 C 0.47468 0.96514 0.61638 0.0
C751 C 0.50266 0.96502 0.60531 0.0
H752 H 0.45043 0.97876 0.51789 0.0
H753 H 0.46761 0.96188 0.65164 0.0
H754 H 0.42717 0.99292 0.55747 0.0
H755 H 0.45983 1.00379 0.69408 0.0
H756 H 0.42992 0.93153 0.57509 0.0
H757 H 0.50002 0.97912 0.49663 0.0
H758 H 0.51696 0.9616 0.63219 0.0
C759 C 0.28763 0.81652 0.65665 0.0
C760 C 0.27591 0.80694 0.64547 0.0
N761 N 0.27278 0.80631 0.59549 0.0
N762 N 0.29144 0.82218 0.61409 0.0
C763 C 0.28255 0.81555 0.57721 0.0
H764 H 0.29175 0.81935 0.69408 0.0
Co765 Co 0.30538 0.83647 0.61453 0.0
C766 C 0.30623 0.83471 0.50207 0.0
O767 O 0.27903 0.83495 0.50209 0.0
N768 N 0.32127 0.85029 0.61466 0.0
C769 C 0.35466 0.86202 0.60043 0.0
C770 C 0.34664 0.85177 0.5944 0.0
C771 C 0.3144 0.85993 0.63354 0.0
N772 N 0.33449 0.86722 0.62498 0.0
O773 O 0.33908 0.83127 0.64597 0.0
H774 H 0.35894 0.84569 0.57675 0.0
H775 H 0.29529 0.86153 0.65343 0.0
O776 O 0.31935 0.83469 0.54402 0.0
C777 C 0.33422 0.83368 0.69202 0.0
O778 O 0.31082 0.83858 0.70204 0.0
N779 N 0.27008 0.84205 0.59438 0.0
C780 C 0.21838 0.85231 0.59823 0.0
C781 C 0.22219 0.84231 0.61921 0.0
C782 C 0.24813 0.83765 0.6191 0.0
C783 C 0.26618 0.85132 0.56875 0.0
C784 C 0.24059 0.85667 0.57085 0.0
H785 H 0.25046 0.83084 0.64257 0.0
H786 H 0.28328 0.85497 0.54907 0.0
H787 H 0.28216 0.81743 0.53786 0.0
H788 H 0.26948 0.80098 0.67218 0.0
H789 H 0.37388 0.86544 0.58716 0.0
H790 H 0.20564 0.8382 0.63847 0.0
H791 H 0.23882 0.86433 0.5533 0.0
C792 C 0.56609 0.75247 0.42369 0.0
C793 C 0.55979 0.76138 0.39631 0.0
N794 N 0.54755 0.75842 0.35322 0.0
N795 N 0.55802 0.74382 0.39808 0.0
C796 C 0.54702 0.74776 0.355 0.0
H797 H 0.57543 0.75244 0.46049 0.0
Co798 Co 0.55953 0.72934 0.41762 0.0
C799 C 0.58819 0.71909 0.32795 0.0
O800 O 0.57924 0.70959 0.33866 0.0
N801 N 0.56096 0.71491 0.43712 0.0
C802 C 0.54723 0.6986 0.45525 0.0
C803 C 0.53885 0.70886 0.44885 0.0
C804 C 0.58287 0.7082 0.44013 0.0
N805 N 0.57488 0.69815 0.44926 0.0
O806 O 0.59162 0.73195 0.45948 0.0
H807 H 0.51766 0.7116 0.4506 0.0
H808 H 0.60395 0.71046 0.43123 0.0
O809 O 0.582 0.72689 0.35631 0.0
C810 C 0.58056 0.7335 0.50266 0.0
O811 O 0.55338 0.73322 0.50595 0.0
N812 N 0.52566 0.72705 0.38454 0.0
C813 C 0.47017 0.72225 0.36637 0.0
C814 C 0.49121 0.71811 0.3356 0.0
C815 C 0.51895 0.72069 0.34508 0.0
C816 C 0.50531 0.73171 0.41222 0.0
C817 C 0.47753 0.72954 0.4034 0.0
H818 H 0.53457 0.7171 0.32222 0.0
H819 H 0.5108 0.73676 0.44327 0.0
H820 H 0.53842 0.7429 0.32555 0.0
H821 H 0.563 0.76944 0.40815 0.0
H822 H 0.53387 0.69188 0.46184 0.0
H823 H 0.48652 0.7125 0.30626 0.0
H824 H 0.46205 0.73327 0.42691 0.0
C825 C 0.72941 0.58652 0.40166 0.0
C826 C 0.74222 0.57693 0.39599 0.0
N827 N 0.72924 0.57151 0.35937 0.0
N828 N 0.70817 0.5873 0.36911 0.0
C829 C 0.70855 0.578 0.34373 0.0
H830 H 0.73615 0.59279 0.42618 0.0
Co831 Co 0.68872 0.60009 0.35927 0.0
C832 C 0.64092 0.59332 0.29988 0.0
O833 O 0.62425 0.59719 0.33425 0.0
N834 N 0.66991 0.61313 0.34944 0.0
C835 C 0.64922 0.62677 0.3121 0.0
C836 C 0.66039 0.6169 0.3052 0.0
C837 C 0.66504 0.62108 0.38237 0.0
N838 N 0.65227 0.62943 0.36062 0.0
O839 O 0.66277 0.59598 0.40988 0.0
H840 H 0.66213 0.61287 0.26961 0.0
H841 H 0.67102 0.62089 0.42141 0.0
O842 O 0.66706 0.59371 0.30633 0.0
C843 C 0.67108 0.59913 0.4527 0.0
O844 O 0.69406 0.60464 0.45552 0.0
N845 N 0.71578 0.60424 0.31433 0.0
C846 C 0.7718 0.60244 0.2973 0.0
C847 C 0.75298 0.59696 0.26671 0.0
C848 C 0.72461 0.59805 0.27566 0.0
C849 C 0.73329 0.61114 0.33694 0.0
C850 C 0.76167 0.61042 0.32871 0.0
H851 H 0.71055 0.59263 0.25757 0.0
H852 H 0.72591 0.6159 0.36786 0.0
H853 H 0.69462 0.57618 0.31317 0.0
H854 H 0.76068 0.5744 0.41567 0.0
H855 H 0.64052 0.63179 0.28322 0.0
H856 H 0.7601 0.59089 0.24123 0.0
H857 H 0.77538 0.61486 0.35288 0.0
C858 C 0.54378 0.57642 0.81155 0.0
C859 C 0.53468 0.56637 0.82181 0.0
N860 N 0.5291 0.56559 0.87133 0.0
N861 N 0.54434 0.58205 0.8543 0.0
C862 C 0.53564 0.57519 0.89023 0.0
H863 H 0.54811 0.57959 0.7747 0.0
Co864 Co 0.54884 0.59681 0.85693 0.0
C865 C 0.56702 0.60136 0.9608 0.0
O866 O 0.55301 0.61024 0.96043 0.0
N867 N 0.553 0.61193 0.85866 0.0
C868 C 0.54303 0.62911 0.85816 0.0
C869 C 0.53227 0.61913 0.85951 0.0
C870 C 0.57639 0.61794 0.85642 0.0
N871 N 0.57081 0.62843 0.85615 0.0
O872 O 0.58373 0.59549 0.82324 0.0
H873 H 0.51041 0.61743 0.86078 0.0
H874 H 0.59713 0.61469 0.85514 0.0
O875 O 0.56673 0.59537 0.92231 0.0
C876 C 0.58101 0.59853 0.77785 0.0
O877 O 0.5572 0.60254 0.76343 0.0
N878 N 0.51322 0.59767 0.88328 0.0
C879 C 0.45656 0.59507 0.89635 0.0
C880 C 0.47451 0.59455 0.9377 0.0
C881 C 0.50302 0.59588 0.9304 0.0
C882 C 0.4959 0.59824 0.84307 0.0
C883 C 0.4675 0.59716 0.8488 0.0
H884 H 0.5166 0.59467 0.96192 0.0
H885 H 0.5045 0.59923 0.80586 0.0
H886 H 0.53242 0.57739 0.92896 0.0
H887 H 0.53151 0.56024 0.79425 0.0
H888 H 0.53112 0.63634 0.85753 0.0
H889 H 0.46669 0.59274 0.97484 0.0
H890 H 0.4544 0.59733 0.81578 0.0
C891 C 0.74577 0.74129 0.88782 0.0
C892 C 0.75218 0.75138 0.90298 0.0
N893 N 0.7317 0.75496 0.93283 0.0
N894 N 0.72143 0.73825 0.90841 0.0
C895 C 0.71298 0.74696 0.93404 0.0
H896 H 0.75864 0.7365 0.86384 0.0
Co897 Co 0.70448 0.72448 0.90638 0.0
C898 C 0.69224 0.73047 0.01519 0.0
O899 O 0.71726 0.73395 0.02539 0.0
N900 N 0.68736 0.71081 0.90639 0.0
C901 C 0.66873 0.69632 0.9399 0.0
C902 C 0.68091 0.70578 0.94974 0.0
C903 C 0.67918 0.7039 0.87016 0.0
N904 N 0.66752 0.69507 0.89004 0.0
O905 O 0.67342 0.73028 0.8695 0.0
H906 H 0.68493 0.70864 0.98708 0.0
H907 H 0.68132 0.70533 0.83031 0.0
O908 O 0.68647 0.72715 0.9711 0.0
C909 C 0.67987 0.72898 0.82323 0.0
O910 O 0.70416 0.72486 0.81298 0.0
N911 N 0.73631 0.71821 0.93364 0.0
C912 C 0.78229 0.70483 0.93904 0.0
C913 C 0.76637 0.70696 0.98223 0.0
C914 C 0.74303 0.71364 0.97862 0.0
C915 C 0.75208 0.7163 0.89236 0.0
C916 C 0.77524 0.70994 0.89437 0.0
H917 H 0.72977 0.71454 0.01092 0.0
H918 H 0.74594 0.71939 0.85643 0.0
H919 H 0.69376 0.74731 0.95477 0.0
H920 H 0.77073 0.75568 0.89294 0.0
H921 H 0.66149 0.69068 0.96747 0.0
H922 H 0.77115 0.70316 0.0176 0.0
H923 H 0.78718 0.70886 0.86031 0.0
C924 C 0.43998 0.31239 0.60068 0.0
C925 C 0.44654 0.30308 0.62453 0.0
N926 N 0.44818 0.30486 0.67431 0.0
N927 N 0.43716 0.32015 0.63488 0.0
C928 C 0.44206 0.31526 0.67947 0.0
H929 H 0.43866 0.31343 0.56054 0.0
Co930 Co 0.43409 0.33485 0.62103 0.0
C931 C 0.41023 0.34399 0.71381 0.0
O932 O 0.4257 0.35244 0.70845 0.0
N933 N 0.43138 0.34965 0.606 0.0
C934 C 0.4427 0.36591 0.58155 0.0
C935 C 0.4519 0.35573 0.58722 0.0
C936 C 0.40944 0.35639 0.60951 0.0
N937 N 0.41598 0.36642 0.59598 0.0
O938 O 0.40161 0.33252 0.58102 0.0
H939 H 0.47253 0.35306 0.57821 0.0
H940 H 0.38921 0.354 0.62286 0.0
O941 O 0.41195 0.33649 0.68203 0.0
C942 C 0.4106 0.33168 0.5361 0.0
O943 O 0.43733 0.33266 0.528 0.0
N944 N 0.4678 0.33673 0.65405 0.0
C945 C 0.5232 0.33571 0.68082 0.0
C946 C 0.50297 0.33719 0.71779 0.0
C947 C 0.475 0.33753 0.70361 0.0
C948 C 0.48755 0.33518 0.61836 0.0
C949 C 0.51534 0.33477 0.63075 0.0
H950 H 0.4596 0.33779 0.7328 0.0
H951 H 0.48153 0.33401 0.57976 0.0
H952 H 0.44259 0.3194 0.71487 0.0
H953 H 0.45041 0.29563 0.60615 0.0
H954 H 0.4552 0.3725 0.56921 0.0
H955 H 0.50864 0.33766 0.75705 0.0
H956 H 0.53059 0.33348 0.60148 0.0
C957 C 0.24775 0.47867 0.61687 0.0
C958 C 0.23474 0.48758 0.63459 0.0
N959 N 0.25245 0.49287 0.66456 0.0
N960 N 0.27372 0.47818 0.63534 0.0
C961 C 0.27602 0.48697 0.66417 0.0
H962 H 0.23855 0.47276 0.59295 0.0
Co963 Co 0.29849 0.46674 0.62339 0.0
C964 C 0.32931 0.4646 0.71761 0.0
O965 O 0.32575 0.45438 0.71408 0.0
N966 N 0.32404 0.45506 0.6106 0.0
C967 C 0.36247 0.44645 0.58699 0.0
C968 C 0.34978 0.45614 0.59104 0.0
C969 C 0.32208 0.44444 0.61862 0.0
N970 N 0.34504 0.43902 0.60443 0.0
O971 O 0.32002 0.47574 0.58025 0.0
H972 H 0.35931 0.46355 0.58092 0.0
H973 H 0.30451 0.44066 0.63585 0.0
O974 O 0.31961 0.47066 0.68349 0.0
C975 C 0.30744 0.4752 0.53809 0.0
O976 O 0.28554 0.46908 0.53495 0.0
N977 N 0.27444 0.45808 0.65884 0.0
C978 C 0.22268 0.44993 0.68241 0.0
C979 C 0.23706 0.45612 0.71748 0.0
C980 C 0.26318 0.46017 0.70485 0.0
C981 C 0.26119 0.45164 0.62588 0.0
C982 C 0.23608 0.44705 0.63793 0.0
H983 H 0.27257 0.46595 0.72924 0.0
H984 H 0.26924 0.45069 0.58826 0.0
H985 H 0.2946 0.48897 0.68463 0.0
H986 H 0.21347 0.48976 0.62702 0.0
H987 H 0.3833 0.44506 0.57345 0.0
H988 H 0.22713 0.45869 0.75181 0.0
H989 H 0.22585 0.44221 0.61007 0.0
C990 C 0.46382 0.49993 0.1604 0.0
C991 C 0.47251 0.50892 0.13637 0.0
N992 N 0.45718 0.51028 0.09458 0.0
N993 N 0.44284 0.49551 0.13454 0.0
C994 C 0.4391 0.50205 0.09468 0.0
H995 H 0.4736 0.49643 0.19288 0.0
Co996 Co 0.42942 0.4818 0.15027 0.0
C997 C 0.41376 0.47442 0.04897 0.0
O998 O 0.43064 0.46638 0.05512 0.0
N999 N 0.41586 0.46807 0.16896 0.0
C1000 C 0.40829 0.45453 0.22093 0.0
C1001 C 0.41966 0.46438 0.2161 0.0
C1002 C 0.40032 0.46041 0.14687 0.0
N1003 N 0.39623 0.45197 0.17721 0.0
O1004 O 0.39737 0.48768 0.18259 0.0
H1005 H 0.43044 0.46856 0.2455 0.0
H1006 H 0.39171 0.46091 0.10966 0.0
O1007 O 0.41056 0.4811 0.08453 0.0
C1008 C 0.40457 0.48975 0.22771 0.0
O1009 O 0.43096 0.48898 0.23919 0.0
N1010 N 0.46285 0.47618 0.12452 0.0
C1011 C 0.51954 0.47343 0.11024 0.0
C1012 C 0.50362 0.47861 0.07386 0.0
C1013 C 0.47516 0.47986 0.08157 0.0
C1014 C 0.47806 0.47058 0.15847 0.0
C1015 C 0.50622 0.46889 0.15146 0.0
H1016 H 0.46362 0.4846 0.05516 0.0
H1017 H 0.46948 0.46837 0.19408 0.0
H1018 H 0.42449 0.50048 0.06489 0.0
H1019 H 0.49017 0.51365 0.1472 0.0
H1020 H 0.40862 0.44966 0.25434 0.0
H1021 H 0.51338 0.48233 0.04177 0.0
H1022 H 0.51796 0.46511 0.18115 0.0
C1023 C 0.25154 0.33578 0.16905 0.0
C1024 C 0.23705 0.32695 0.15492 0.0
N1025 N 0.24756 0.32334 0.11125 0.0
N1026 N 0.27134 0.33784 0.13481 0.0
C1027 C 0.26857 0.33006 0.1001 0.0
H1028 H 0.24742 0.34059 0.20169 0.0
Co1029 Co 0.29385 0.35001 0.13806 0.0
C1030 C 0.31811 0.35236 0.03888 0.0
O1031 O 0.31118 0.36235 0.04182 0.0
N1032 N 0.31729 0.36232 0.14235 0.0
C1033 C 0.3567 0.37147 0.14885 0.0
C1034 C 0.34519 0.36159 0.14643 0.0
C1035 C 0.3126 0.37291 0.14149 0.0
N1036 N 0.3362 0.37862 0.14566 0.0
O1037 O 0.31991 0.34227 0.17771 0.0
H1038 H 0.35677 0.3543 0.14667 0.0
H1039 H 0.29248 0.37651 0.13729 0.0
O1040 O 0.3122 0.34611 0.0751 0.0
C1041 C 0.31407 0.34442 0.22333 0.0
O1042 O 0.29386 0.35112 0.23214 0.0
N1043 N 0.26578 0.35742 0.10577 0.0
C1044 C 0.20939 0.36077 0.09507 0.0
C1045 C 0.22428 0.35557 0.0573 0.0
C1046 C 0.2528 0.35404 0.06313 0.0
C1047 C 0.25182 0.36327 0.14038 0.0
C1048 C 0.22378 0.36536 0.13485 0.0
H1049 H 0.26319 0.3488 0.03736 0.0
H1050 H 0.26149 0.36508 0.17591 0.0
H1051 H 0.28087 0.3296 0.06622 0.0
H1052 H 0.21989 0.32352 0.17535 0.0
H1053 H 0.37859 0.37326 0.15136 0.0
H1054 H 0.21355 0.3517 0.02674 0.0
H1055 H 0.2128 0.36913 0.16548 0.0
H1056 H 0.1643 0.20822 0.0118 0.0
H1057 H 0.1572 0.24207 0.99344 0.0
H1058 H 0.13666 0.24343 0.07836 0.0
H1059 H 0.0991 0.20495 0.07474 0.0
H1060 H 0.11155 0.19456 0.11503 0.0
H1061 H 0.12679 0.19646 0.054 0.0
H1062 H 0.17529 0.19809 0.09509 0.0
H1063 H 0.16013 0.19632 0.15633 0.0
H1064 H 0.18087 0.20781 0.1433 0.0
H1065 H 0.11787 0.241 0.16676 0.0
H1066 H 0.09667 0.23483 0.24608 0.0
H1067 H 0.11372 0.20246 0.20374 0.0
C1068 C 0.15852 0.21593 0.02572 0.0
C1069 C 0.16258 0.22507 0.99628 0.0
C1070 C 0.15428 0.23498 0.01538 0.0
C1071 C 0.14277 0.23583 0.06369 0.0
C1072 C 0.13935 0.22667 0.09202 0.0
C1073 C 0.14656 0.21689 0.07333 0.0
C1074 C 0.13932 0.20818 0.10993 0.0
C1075 C 0.11791 0.20059 0.08706 0.0
C1076 C 0.16547 0.20225 0.12718 0.0
C1077 C 0.1269 0.21457 0.15227 0.0
C1078 C 0.1275 0.22523 0.14165 0.0
C1079 C 0.11724 0.23267 0.17537 0.0
C1080 C 0.10543 0.22909 0.22049 0.0
C1081 C 0.10359 0.21817 0.23106 0.0
C1082 C 0.11485 0.21086 0.19669 0.0
H1083 H 0.12669 0.11502 0.22172 0.0
H1084 H 0.14145 0.0814 0.23603 0.0
H1085 H 0.12137 0.07864 0.15161 0.0
H1086 H 0.06161 0.11327 0.15118 0.0
H1087 H 0.07014 0.12462 0.1135 0.0
H1088 H 0.0829 0.12361 0.17684 0.0
H1089 H 0.13311 0.12606 0.14408 0.0
H1090 H 0.1206 0.12692 0.08063 0.0
H1091 H 0.14639 0.11721 0.09692 0.0
H1092 H 0.10303 0.07994 0.0617 0.0
H1093 H 0.08608 0.08511 0.97734 0.0
H1094 H 0.08484 0.11785 0.02433 0.0
C1095 C 0.12528 0.10703 0.20763 0.0
C1096 C 0.13561 0.09843 0.23546 0.0
C1097 C 0.13346 0.08811 0.21549 0.0
C1098 C 0.12218 0.08647 0.1675 0.0
C1099 C 0.11303 0.09521 0.14036 0.0
C1100 C 0.1142 0.10527 0.16011 0.0
C1101 C 0.10436 0.11344 0.12293 0.0
C1102 C 0.07819 0.11906 0.14227 0.0
C1103 C 0.1275 0.12137 0.11041 0.0
C1104 C 0.09792 0.10645 0.07869 0.0
C1105 C 0.10284 0.09596 0.08926 0.0
C1106 C 0.0989 0.08813 0.05322 0.0
C1107 C 0.0894 0.09114 1.00538 0.0
C1108 C 0.08412 0.10188 0.99422 0.0
C1109 C 0.0886 0.10957 0.03151 0.0
H1110 H 0.89737 0.86072 0.79174 0.0
H1111 H 0.91568 0.82741 0.77638 0.0
H1112 H 0.89317 0.82406 0.85886 0.0
H1113 H 0.91007 0.86277 0.92243 0.0
H1114 H 0.88232 0.87204 0.93284 0.0
H1115 H 0.89937 0.87154 0.87278 0.0
H1116 H 0.85204 0.86854 0.82901 0.0
H1117 H 0.83483 0.86904 0.88894 0.0
H1118 H 0.83037 0.85774 0.84887 0.0
H1119 H 0.86929 0.82481 0.9466 0.0
H1120 H 0.84579 0.82945 0.02661 0.0
H1121 H 0.84338 0.8622 0.97993 0.0
C1122 C 0.89672 0.85269 0.80547 0.0
C1123 C 0.90843 0.84433 0.77758 0.0
C1124 C 0.90682 0.83395 0.79702 0.0
C1125 C 0.89412 0.83198 0.84388 0.0
C1126 C 0.88296 0.84048 0.87055 0.0
C1127 C 0.88407 0.85061 0.85158 0.0
C1128 C 0.87071 0.85846 0.88672 0.0
C1129 C 0.89189 0.86668 0.90476 0.0
C1130 C 0.84549 0.86375 0.8619 0.0
C1131 C 0.86199 0.85122 0.92893 0.0
C1132 C 0.86917 0.84087 0.91936 0.0
C1133 C 0.8635 0.83289 0.95413 0.0
C1134 C 0.85018 0.83559 0.99953 0.0
C1135 C 0.84259 0.84618 0.00961 0.0
C1136 C 0.84864 0.85401 0.9735 0.0
H1137 H 0.82224 0.95197 0.78454 0.0
H1138 H 0.83666 0.98386 0.73157 0.0
H1139 H 0.85381 0.98883 0.81542 0.0
H1140 H 0.80143 0.95809 0.9108 0.0
H1141 H 0.8199 0.94716 0.93825 0.0
H1142 H 0.80696 0.94623 0.87498 0.0
H1143 H 0.8563 0.94183 0.84243 0.0
H1144 H 0.86924 0.94254 0.90566 0.0
H1145 H 0.88461 0.95055 0.85714 0.0
H1146 H 0.8685 0.99038 0.90579 0.0
H1147 H 0.8878 0.98767 0.99059 0.0
H1148 H 0.86716 0.95444 0.9822 0.0
C1149 C 0.82893 0.96001 0.79053 0.0
C1150 C 0.82737 0.96761 0.75181 0.0
C1151 C 0.83699 0.97797 0.76088 0.0
C1152 C 0.84674 0.98087 0.80847 0.0
C1153 C 0.84725 0.97326 0.8462 0.0
C1154 C 0.83924 0.96298 0.83739 0.0
C1155 C 0.84393 0.9561 0.88302 0.0
C1156 C 0.81641 0.95163 0.90293 0.0
C1157 C 0.86477 0.94724 0.87136 0.0
C1158 C 0.85598 0.9641 0.91887 0.0
C1159 C 0.85715 0.97401 0.89731 0.0
C1160 C 0.86773 0.98266 0.92305 0.0
C1161 C 0.87841 0.98106 0.97138 0.0
C1162 C 0.87889 0.97084 0.99291 0.0
C1163 C 0.86692 0.96233 0.96669 0.0
H1164 H 0.17353 0.71393 0.601 0.0
H1165 H 0.1174 0.72561 0.48631 0.0
H1166 H 0.0821 0.72909 0.55176 0.0
H1167 H 0.1233 0.70054 0.6734 0.0
H1168 H 0.13872 0.70373 0.73307 0.0
H1169 H 0.1601 0.70281 0.67784 0.0
H1170 H 0.17817 0.72176 0.69294 0.0
H1171 H 0.15691 0.72273 0.74839 0.0
H1172 H 0.15373 0.73243 0.69924 0.0
H1173 H 0.05223 0.73044 0.62933 0.0
H1174 H 0.03004 0.72979 0.71253 0.0
H1175 H 0.1058 0.71716 0.7769 0.0
C1176 C 0.15395 0.71733 0.58947 0.0
C1177 C 0.14828 0.71951 0.5383 0.0
C1178 C 0.12227 0.72389 0.52514 0.0
C1179 C 0.10211 0.72589 0.5621 0.0
C1180 C 0.1083 0.7235 0.61203 0.0
C1181 C 0.13364 0.71935 0.62575 0.0
C1182 C 0.13485 0.71716 0.68173 0.0
C1183 C 0.13951 0.70536 0.69209 0.0
C1184 C 0.15725 0.72392 0.70706 0.0
C1185 C 0.10605 0.72059 0.69745 0.0
C1186 C 0.09112 0.72426 0.65667 0.0
C1187 C 0.06379 0.72762 0.66148 0.0
C1188 C 0.05134 0.72719 0.70902 0.0
C1189 C 0.06613 0.7234 0.75142 0.0
C1190 C 0.09396 0.72014 0.74539 0.0
H1191 H 0.12979 0.586 0.73044 0.0
H1192 H 0.15693 0.61858 0.73782 0.0
H1193 H 0.13886 0.62163 0.65253 0.0
H1194 H 0.14697 0.58206 0.59942 0.0
H1195 H 0.11727 0.57387 0.58684 0.0
H1196 H 0.13217 0.57413 0.64883 0.0
H1197 H 0.08453 0.57929 0.68636 0.0
H1198 H 0.06946 0.57897 0.62455 0.0
H1199 H 0.06659 0.5907 0.66228 0.0
H1200 H 0.11678 0.62146 0.5687 0.0
H1201 H 0.09186 0.61804 0.4897 0.0
H1202 H 0.08041 0.58537 0.5333 0.0
C1203 C 0.1318 0.59378 0.71416 0.0
C1204 C 0.14471 0.60207 0.74084 0.0
C1205 C 0.14718 0.61212 0.71808 0.0
C1206 C 0.137 0.61393 0.66964 0.0
C1207 C 0.12462 0.60559 0.64421 0.0
C1208 C 0.12199 0.59571 0.66546 0.0
C1209 C 0.1078 0.58814 0.62962 0.0
C1210 C 0.12722 0.57901 0.61533 0.0
C1211 C 0.08047 0.58404 0.65204 0.0
C1212 C 0.10259 0.59538 0.58519 0.0
C1213 C 0.11248 0.6054 0.59467 0.0
C1214 C 0.10914 0.61363 0.56061 0.0
C1215 C 0.09495 0.61161 0.51591 0.0
C1216 C 0.08447 0.60144 0.50534 0.0
C1217 C 0.0887 0.59317 0.54012 0.0
H1218 H 0.8618 0.33689 0.52801 0.0
H1219 H 0.81517 0.36494 0.48757 0.0
H1220 H 0.83243 0.36362 0.40092 0.0
H1221 H 0.92189 0.34245 0.44905 0.0
H1222 H 0.927 0.32881 0.43274 0.0
H1223 H 0.91169 0.33221 0.49223 0.0
H1224 H 0.86923 0.32051 0.47128 0.0
H1225 H 0.88422 0.31721 0.41136 0.0
H1226 H 0.85003 0.32292 0.41438 0.0
H1227 H 0.85264 0.3589 0.31794 0.0
H1228 H 0.8791 0.3522 0.24559 0.0
H1229 H 0.91301 0.32725 0.33918 0.0
C1230 C 0.85558 0.34285 0.50118 0.0
C1231 C 0.83705 0.351 0.51467 0.0
C1232 C 0.82927 0.3586 0.4782 0.0
C1233 C 0.83887 0.3579 0.42875 0.0
C1234 C 0.85633 0.34959 0.41626 0.0
C1235 C 0.86497 0.34227 0.45145 0.0
C1236 C 0.88385 0.33411 0.42789 0.0
C1237 C 0.91283 0.33442 0.4519 0.0
C1238 C 0.87106 0.32304 0.43145 0.0
C1239 C 0.88449 0.33802 0.37408 0.0
C1240 C 0.86825 0.3469 0.36818 0.0
C1241 C 0.86554 0.35197 0.32205 0.0
C1242 C 0.88055 0.34806 0.28107 0.0
C1243 C 0.89822 0.3392 0.28659 0.0
C1244 C 0.89968 0.33402 0.3336 0.0
H1245 H 0.87822 0.46761 0.255 0.0
H1246 H 0.8103 0.4881 0.29679 0.0
H1247 H 0.83326 0.49186 0.378 0.0
H1248 H 0.88705 0.45581 0.36836 0.0
H1249 H 0.92436 0.45506 0.36679 0.0
H1250 H 0.90512 0.45546 0.3091 0.0
H1251 H 0.93295 0.47185 0.28015 0.0
H1252 H 0.95257 0.47143 0.3377 0.0
H1253 H 0.93447 0.4833 0.32001 0.0
H1254 H 0.85996 0.49093 0.45973 0.0
H1255 H 0.88959 0.4863 0.53246 0.0
H1256 H 0.94084 0.46699 0.43514 0.0
C1257 C 0.86887 0.47322 0.28057 0.0
C1258 C 0.84295 0.47777 0.26975 0.0
C1259 C 0.83055 0.48476 0.3044 0.0
C1260 C 0.84339 0.4869 0.35053 0.0
C1261 C 0.86873 0.48207 0.36095 0.0
C1262 C 0.88159 0.47552 0.32648 0.0
C1263 C 0.9076 0.47065 0.34813 0.0
C1264 C 0.9059 0.45853 0.3481 0.0
C1265 C 0.93343 0.47454 0.31981 0.0
C1266 C 0.90665 0.47504 0.40089 0.0
C1267 C 0.88428 0.48169 0.4076 0.0
C1268 C 0.87792 0.48592 0.45459 0.0
C1269 C 0.89477 0.48322 0.49574 0.0
C1270 C 0.91766 0.47635 0.48953 0.0
C1271 C 0.92379 0.4724 0.44118 0.0
H1272 H 0.6522 0.21652 0.78494 0.0
H1273 H 0.58207 0.23733 0.76073 0.0
H1274 H 0.59599 0.23956 0.67206 0.0
H1275 H 0.70116 0.22992 0.6985 0.0
H1276 H 0.71584 0.21761 0.6778 0.0
H1277 H 0.70226 0.21879 0.74057 0.0
H1278 H 0.67012 0.2028 0.72441 0.0
H1279 H 0.68329 0.20165 0.66147 0.0
H1280 H 0.64657 0.20311 0.67193 0.0
H1281 H 0.61539 0.2382 0.58359 0.0
H1282 H 0.6393 0.23374 0.50413 0.0
H1283 H 0.69601 0.21356 0.5866 0.0
C1284 C 0.64026 0.22182 0.76147 0.0
C1285 C 0.61618 0.22684 0.78001 0.0
C1286 C 0.60067 0.23345 0.74749 0.0
C1287 C 0.60843 0.23476 0.69701 0.0
C1288 C 0.63176 0.22941 0.67948 0.0
C1289 C 0.64757 0.22314 0.71089 0.0
C1290 C 0.67051 0.21765 0.68211 0.0
C1291 C 0.69914 0.22121 0.70086 0.0
C1292 C 0.66742 0.20559 0.68517 0.0
C1293 C 0.66488 0.22166 0.6295 0.0
C1294 C 0.64259 0.2285 0.6287 0.0
C1295 C 0.63303 0.23292 0.58391 0.0
C1296 C 0.64668 0.23031 0.5389 0.0
C1297 C 0.66955 0.2233 0.53892 0.0
C1298 C 0.67868 0.21898 0.58507 0.0
H1299 H 0.59379 0.0992 0.5502 0.0
H1300 H 0.53578 0.07443 0.58812 0.0
H1301 H 0.56082 0.07121 0.66783 0.0
H1302 H 0.65649 0.08773 0.61115 0.0
H1303 H 0.6679 0.10042 0.63323 0.0
H1304 H 0.64843 0.09945 0.57571 0.0
H1305 H 0.61251 0.11275 0.61068 0.0
H1306 H 0.63164 0.11367 0.66843 0.0
H1307 H 0.59556 0.11 0.6696 0.0
H1308 H 0.59017 0.07164 0.74615 0.0
H1309 H 0.61999 0.07625 0.8185 0.0
H1310 H 0.65625 0.10171 0.73162 0.0
C1311 C 0.5871 0.09286 0.57462 0.0
C1312 C 0.5635 0.08683 0.56288 0.0
C1313 C 0.55429 0.07893 0.5964 0.0
C1314 C 0.56834 0.07707 0.64162 0.0
C1315 C 0.59125 0.08331 0.65294 0.0
C1316 C 0.60053 0.09108 0.62044 0.0
C1317 C 0.62357 0.09748 0.64389 0.0
C1318 C 0.65071 0.09619 0.61423 0.0
C1319 C 0.61531 0.10916 0.64842 0.0
C1320 C 0.62544 0.09226 0.69489 0.0
C1321 C 0.60703 0.08397 0.69912 0.0
C1322 C 0.60477 0.07808 0.7432 0.0
C1323 C 0.62172 0.08076 0.78408 0.0
C1324 C 0.64024 0.08938 0.7808 0.0
C1325 C 0.64213 0.09513 0.73545 0.0
H1326 H 0.36258 0.83201 0.4806 0.0
H1327 H 0.28262 0.83773 0.41061 0.0
H1328 H 0.3048 0.83835 0.32789 0.0
H1329 H 0.40244 0.84888 0.39839 0.0
H1330 H 0.432 0.84021 0.39543 0.0
H1331 H 0.41006 0.84019 0.45019 0.0
H1332 H 0.40223 0.82012 0.44011 0.0
H1333 H 0.42415 0.82008 0.38532 0.0
H1334 H 0.38925 0.81508 0.38143 0.0
H1335 H 0.33518 0.83893 0.25218 0.0
H1336 H 0.37222 0.83862 0.18811 0.0
H1337 H 0.43274 0.83189 0.30442 0.0
C1338 C 0.34978 0.83337 0.44786 0.0
C1339 C 0.32075 0.83481 0.45257 0.0
C1340 C 0.30483 0.83656 0.4085 0.0
C1341 C 0.31724 0.83695 0.36103 0.0
C1342 C 0.34573 0.83551 0.35758 0.0
C1343 C 0.36188 0.83369 0.39962 0.0
C1344 C 0.3921 0.83231 0.38474 0.0
C1345 C 0.41022 0.84091 0.40861 0.0
C1346 C 0.40254 0.82124 0.39873 0.0
C1347 C 0.39026 0.83369 0.32807 0.0
C1348 C 0.36331 0.83559 0.31334 0.0
C1349 C 0.35639 0.83738 0.26318 0.0
C1350 C 0.37758 0.8372 0.227 0.0
C1351 C 0.40539 0.83516 0.24093 0.0
C1352 C 0.41166 0.83336 0.2923 0.0
H1353 H 0.40517 0.96629 0.41632 0.0
H1354 H 0.35504 0.98287 0.52608 0.0
H1355 H 0.32299 0.98845 0.45849 0.0
H1356 H 0.39485 0.98538 0.31175 0.0
H1357 H 0.39394 0.975 0.26565 0.0
H1358 H 0.41459 0.97348 0.32158 0.0
H1359 H 0.38899 0.95605 0.34222 0.0
H1360 H 0.36839 0.9575 0.28648 0.0
H1361 H 0.35169 0.95605 0.34664 0.0
H1362 H 0.29298 0.98977 0.38156 0.0
H1363 H 0.26825 0.98722 0.30116 0.0
H1364 H 0.33948 0.97072 0.24091 0.0
C1365 C 0.3877 0.97124 0.42613 0.0
C1366 C 0.38248 0.97411 0.47645 0.0
C1367 C 0.35944 0.98061 0.48771 0.0
C1368 C 0.3412 0.98383 0.44957 0.0
C1369 C 0.34668 0.98067 0.40039 0.0
C1370 C 0.3696 0.97462 0.38855 0.0
C1371 C 0.36994 0.97166 0.33355 0.0
C1372 C 0.39481 0.97668 0.30654 0.0
C1373 C 0.36972 0.9596 0.32687 0.0
C1374 C 0.34295 0.97657 0.31657 0.0
C1375 C 0.32993 0.98182 0.35557 0.0
C1376 C 0.3033 0.98594 0.35045 0.0
C1377 C 0.2894 0.98445 0.3048 0.0
C1378 C 0.30229 0.97898 0.26487 0.0
C1379 C 0.32964 0.97525 0.27038 0.0
H1380 H 0.69579 0.7369 0.11431 0.0
H1381 H 0.64136 0.72117 0.00838 0.0
H1382 H 0.6083 0.71751 0.07641 0.0
H1383 H 0.68523 0.71963 0.21609 0.0
H1384 H 0.68505 0.72964 0.26402 0.0
H1385 H 0.70399 0.73175 0.20663 0.0
H1386 H 0.67677 0.74904 0.19098 0.0
H1387 H 0.65783 0.74702 0.24854 0.0
H1388 H 0.63941 0.74878 0.19029 0.0
H1389 H 0.5836 0.71383 0.15582 0.0
H1390 H 0.56633 0.71159 0.24225 0.0
H1391 H 0.63417 0.73062 0.29836 0.0
C1392 C 0.67673 0.73282 0.1053 0.0
C1393 C 0.67132 0.72929 0.05581 0.0
C1394 C 0.64611 0.72396 0.04578 0.0
C1395 C 0.62713 0.72184 0.08424 0.0
C1396 C 0.63332 0.72523 0.13261 0.0
C1397 C 0.65725 0.73074 0.14332 0.0
C1398 C 0.65892 0.73327 0.19904 0.0
C1399 C 0.68483 0.72827 0.22283 0.0
C1400 C 0.65818 0.74524 0.20771 0.0
C1401 C 0.63256 0.72806 0.218 0.0
C1402 C 0.61823 0.72345 0.17881 0.0
C1403 C 0.59434 0.71754 0.18671 0.0
C1404 C 0.58478 0.71628 0.23594 0.0
C1405 C 0.59882 0.721 0.27673 0.0
C1406 C 0.62285 0.72708 0.26763 0.0
H1407 H 0.55604 0.60823 0.05581 0.0
H1408 H 0.60743 0.5863 0.97248 0.0
H1409 H 0.62975 0.58063 0.05182 0.0
H1410 H 0.60635 0.61635 0.1434 0.0
H1411 H 0.58247 0.61712 0.19532 0.0
H1412 H 0.57017 0.61904 0.13225 0.0
H1413 H 0.53409 0.60415 0.14521 0.0
H1414 H 0.54645 0.60213 0.20831 0.0
H1415 H 0.54562 0.59127 0.16482 0.0
H1416 H 0.64936 0.5787 0.13993 0.0
H1417 H 0.66311 0.58014 0.22924 0.0
H1418 H 0.59622 0.60235 0.25456 0.0
C1419 C 0.57195 0.60222 0.05416 0.0
C1420 C 0.5802 0.59776 0.00795 0.0
C1421 C 0.60086 0.58983 0.00752 0.0
C1422 C 0.61359 0.58655 0.05236 0.0
C1423 C 0.60503 0.59116 0.09732 0.0
C1424 C 0.58447 0.59874 0.0985 0.0
C1425 C 0.57919 0.60258 0.1514 0.0
C1426 C 0.5849 0.61447 0.15583 0.0
C1427 C 0.54958 0.59986 0.16843 0.0
C1428 C 0.60047 0.59617 0.17982 0.0
C1429 C 0.61524 0.58962 0.14807 0.0
C1430 C 0.63755 0.58362 0.16527 0.0
C1431 C 0.64519 0.58447 0.21599 0.0
C1432 C 0.63033 0.59116 0.24893 0.0
C1433 C 0.60739 0.59691 0.23064 0.0
H1434 H 0.3415 0.36428 0.96572 0.0
H1435 H 0.3242 0.33182 0.00636 0.0
H1436 H 0.34437 0.32592 0.92537 0.0
H1437 H 0.32569 0.36219 0.83522 0.0
H1438 H 0.35317 0.37095 0.81627 0.0
H1439 H 0.33722 0.37245 0.87697 0.0
H1440 H 0.3853 0.37083 0.91983 0.0
H1441 H 0.40142 0.36941 0.85927 0.0
H1442 H 0.40675 0.35951 0.90688 0.0
H1443 H 0.3662 0.32385 0.83784 0.0
H1444 H 0.39037 0.32568 0.75611 0.0
H1445 H 0.39319 0.35957 0.7764 0.0
C1446 C 0.34187 0.35591 0.95776 0.0
C1447 C 0.33118 0.3485 0.99221 0.0
C1448 C 0.33235 0.33763 0.98047 0.0
C1449 C 0.34363 0.33422 0.93451 0.0
C1450 C 0.35373 0.3418 0.90111 0.0
C1451 C 0.3531 0.35242 0.91259 0.0
C1452 C 0.36572 0.35904 0.87137 0.0
C1453 C 0.34416 0.3666 0.84862 0.0
C1454 C 0.39132 0.36505 0.89049 0.0
C1455 C 0.37371 0.35052 0.83468 0.0
C1456 C 0.36648 0.34062 0.85203 0.0
C1457 C 0.37194 0.33157 0.82402 0.0
C1458 C 0.38553 0.33268 0.77758 0.0
C1459 C 0.39367 0.34277 0.76007 0.0
C1460 C 0.38735 0.35175 0.7889 0.0
H1461 H 0.40811 0.4594 0.97722 0.0
H1462 H 0.38573 0.49173 0.01121 0.0
H1463 H 0.36303 0.49325 0.92787 0.0
H1464 H 0.4234 0.46309 0.84728 0.0
H1465 H 0.40909 0.45055 0.82906 0.0
H1466 H 0.42353 0.4522 0.89084 0.0
H1467 H 0.37724 0.44604 0.93079 0.0
H1468 H 0.36275 0.44427 0.86916 0.0
H1469 H 0.34544 0.45263 0.91399 0.0
H1470 H 0.34321 0.49097 0.83833 0.0
H1471 H 0.32557 0.48477 0.75606 0.0
H1472 H 0.36115 0.45394 0.78463 0.0
C1473 C 0.3985 0.46684 0.96734 0.0
C1474 C 0.39881 0.47547 1.00066 0.0
C1475 C 0.3857 0.485 0.98628 0.0
C1476 C 0.37289 0.48594 0.93894 0.0
C1477 C 0.37327 0.47726 0.90675 0.0
C1478 C 0.38558 0.46787 0.92078 0.0
C1479 C 0.3828 0.45957 0.88054 0.0
C1480 C 0.41141 0.45616 0.86077 0.0
C1481 C 0.36606 0.45007 0.89977 0.0
C1482 C 0.36692 0.46571 0.84139 0.0
C1483 C 0.36172 0.47592 0.85669 0.0
C1484 C 0.3472 0.48298 0.82616 0.0
C1485 C 0.33738 0.47942 0.77937 0.0
C1486 C 0.34194 0.46887 0.76395 0.0
C1487 C 0.35721 0.46204 0.79533 0.0
H1488 H 0.82216 0.20981 0.35085 0.0
H1489 H 0.81049 0.24326 0.37599 0.0
H1490 H 0.85582 0.24682 0.33526 0.0
H1491 H 0.89473 0.20897 0.3734 0.0
H1492 H 0.90059 0.19914 0.32579 0.0
H1493 H 0.86764 0.19982 0.35707 0.0
H1494 H 0.84386 0.20142 0.26985 0.0
H1495 H 0.87704 0.20127 0.23873 0.0
H1496 H 0.85339 0.21206 0.22841 0.0
H1497 H 0.90328 0.24643 0.29382 0.0
H1498 H 0.95152 0.24187 0.27111 0.0
H1499 H 0.92957 0.20887 0.26723 0.0
C1500 C 0.82923 0.21789 0.34807 0.0
C1501 C 0.81293 0.22626 0.36653 0.0
C1502 C 0.82291 0.23672 0.36267 0.0
C1503 C 0.84833 0.23882 0.33875 0.0
C1504 C 0.8632 0.23037 0.31861 0.0
C1505 C 0.85414 0.22011 0.32384 0.0
C1506 C 0.87435 0.21234 0.30145 0.0
C1507 C 0.88497 0.20462 0.34182 0.0
C1508 C 0.86137 0.20643 0.25697 0.0
C1509 C 0.89679 0.21978 0.28396 0.0
C1510 C 0.88984 0.23019 0.29329 0.0
C1511 C 0.90871 0.23835 0.28544 0.0
C1512 C 0.93596 0.23572 0.27163 0.0
C1513 C 0.94388 0.22505 0.26646 0.0
C1514 C 0.9236 0.21709 0.26911 0.0
H1515 H 0.40711 0.11151 0.38318 0.0
H1516 H 0.43715 0.08023 0.34688 0.0
H1517 H 0.39743 0.0776 0.28999 0.0
H1518 H 0.33782 0.10439 0.39272 0.0
H1519 H 0.32445 0.11653 0.36717 0.0
H1520 H 0.35758 0.11639 0.39775 0.0
H1521 H 0.37952 0.12447 0.31735 0.0
H1522 H 0.34637 0.12422 0.28609 0.0
H1523 H 0.37585 0.11773 0.25821 0.0
H1524 H 0.35294 0.07743 0.24564 0.0
H1525 H 0.30247 0.07825 0.23179 0.0
H1526 H 0.30025 0.10954 0.29557 0.0
C1527 C 0.40526 0.10416 0.36287 0.0
C1528 C 0.42485 0.09603 0.36944 0.0
C1529 C 0.42195 0.08647 0.34277 0.0
C1530 C 0.39983 0.08499 0.30967 0.0
C1531 C 0.38087 0.09317 0.30357 0.0
C1532 C 0.38305 0.1025 0.33011 0.0
C1533 C 0.35777 0.10937 0.32246 0.0
C1534 C 0.34356 0.1118 0.373 0.0
C1535 C 0.36534 0.11955 0.29435 0.0
C1536 C 0.34034 0.10218 0.28988 0.0
C1537 C 0.35458 0.09306 0.27773 0.0
C1538 C 0.34175 0.08463 0.25368 0.0
C1539 C 0.31316 0.08518 0.24539 0.0
C1540 C 0.29793 0.09405 0.2616 0.0
C1541 C 0.31186 0.1029 0.281 0.0
H1542 H 0.82462 0.08288 0.87746 0.0
H1543 H 0.78587 0.11124 0.81931 0.0
H1544 H 0.83058 0.12063 0.82581 0.0
H1545 H 0.86428 0.0952 0.96904 0.0
H1546 H 0.89421 0.08679 0.96242 0.0
H1547 H 0.86028 0.08184 0.94728 0.0
H1548 H 0.87663 0.07692 0.85756 0.0
H1549 H 0.91086 0.08151 0.87311 0.0
H1550 H 0.89315 0.08678 0.81904 0.0
H1551 H 0.87874 0.12726 0.84538 0.0
H1552 H 0.92836 0.12989 0.8659 0.0
H1553 H 0.93397 0.09732 0.91456 0.0
C1554 C 0.82572 0.091 0.86501 0.0
C1555 C 0.80191 0.09633 0.84771 0.0
C1556 C 0.80404 0.10696 0.83184 0.0
C1557 C 0.82923 0.11239 0.83603 0.0
C1558 C 0.85194 0.10705 0.85597 0.0
C1559 C 0.85054 0.09653 0.86926 0.0
C1560 C 0.87757 0.09266 0.89119 0.0
C1561 C 0.87384 0.08891 0.94572 0.0
C1562 C 0.89031 0.08396 0.85824 0.0
C1563 C 0.89432 0.10269 0.88876 0.0
C1564 C 0.87926 0.11091 0.86838 0.0
C1565 C 0.89075 0.12088 0.86136 0.0
C1566 C 0.91878 0.12233 0.8735 0.0
C1567 C 0.93476 0.11387 0.89262 0.0
C1568 C 0.92207 0.10403 0.9015 0.0
H1569 H 0.42844 0.20373 0.79098 0.0
H1570 H 0.4576 0.23589 0.80686 0.0
H1571 H 0.41045 0.2416 0.82971 0.0
H1572 H 0.35801 0.21044 0.74261 0.0
H1573 H 0.34242 0.19972 0.77689 0.0
H1574 H 0.37758 0.1986 0.75471 0.0
H1575 H 0.39344 0.1944 0.84551 0.0
H1576 H 0.35852 0.19588 0.86832 0.0
H1577 H 0.38605 0.20366 0.89499 0.0
H1578 H 0.3618 0.24338 0.86181 0.0
H1579 H 0.31244 0.24168 0.88552 0.0
H1580 H 0.31536 0.20833 0.85038 0.0
C1581 C 0.42464 0.21203 0.79756 0.0
C1582 C 0.44657 0.21937 0.79661 0.0
C1583 C 0.44098 0.23016 0.80615 0.0
C1584 C 0.41434 0.23346 0.81993 0.0
C1585 C 0.39356 0.22589 0.82355 0.0
C1586 C 0.3982 0.21545 0.81137 0.0
C1587 C 0.3726 0.20883 0.82023 0.0
C1588 C 0.36202 0.20412 0.77066 0.0
C1589 C 0.37799 0.20018 0.8596 0.0
C1590 C 0.35304 0.21714 0.84019 0.0
C1591 C 0.36555 0.22692 0.84212 0.0
C1592 C 0.35168 0.23578 0.86006 0.0
C1593 C 0.32382 0.23471 0.87419 0.0
C1594 C 0.31027 0.22486 0.87004 0.0
C1595 C 0.32532 0.21594 0.85404 0.0
H1596 H 0.1842 0.85061 0.6807 0.0
H1597 H 0.19156 0.86713 0.53826 0.0
H1598 H 0.14513 0.87485 0.55187 0.0
H1599 H 0.11914 0.84158 0.65503 0.0
H1600 H 0.10732 0.84178 0.71924 0.0
H1601 H 0.14355 0.84024 0.70587 0.0
H1602 H 0.15431 0.85648 0.76162 0.0
H1603 H 0.11786 0.85814 0.77445 0.0
H1604 H 0.13762 0.8689 0.7485 0.0
H1605 H 0.09569 0.87919 0.57694 0.0
H1606 H 0.04657 0.87697 0.59933 0.0
H1607 H 0.06979 0.85442 0.71466 0.0
C1608 C 0.17634 0.85582 0.65185 0.0
C1609 C 0.19178 0.85808 0.60781 0.0
C1610 C 0.18057 0.8653 0.57259 0.0
C1611 C 0.15412 0.86974 0.58007 0.0
C1612 C 0.13904 0.86684 0.62273 0.0
C1613 C 0.14972 0.8599 0.65758 0.0
C1614 C 0.1279 0.85635 0.69483 0.0
C1615 C 0.12426 0.84428 0.69361 0.0
C1616 C 0.13485 0.8602 0.748 0.0
C1617 C 0.10277 0.86199 0.6742 0.0
C1618 C 0.10988 0.86841 0.63419 0.0
C1619 C 0.08996 0.87412 0.60793 0.0
C1620 C 0.06201 0.8727 0.62075 0.0
C1621 C 0.054 0.86521 0.65775 0.0
C1622 C 0.0749 0.86024 0.68646 0.0
H1623 H 0.55109 0.95471 0.55801 0.0
H1624 H 0.54014 0.98859 0.55949 0.0
H1625 H 0.58968 0.99084 0.58097 0.0
H1626 H 0.59111 0.95303 0.66163 0.0
H1627 H 0.61416 0.94278 0.64025 0.0
H1628 H 0.57963 0.94369 0.61515 0.0
H1629 H 0.59873 0.94497 0.52441 0.0
H1630 H 0.63335 0.94359 0.54891 0.0
H1631 H 0.62473 0.9547 0.50967 0.0
H1632 H 0.63768 0.98916 0.61611 0.0
H1633 H 0.68422 0.9839 0.64546 0.0
H1634 H 0.66328 0.95104 0.62202 0.0
C1635 C 0.55956 0.9626 0.56045 0.0
C1636 C 0.5422 0.9715 0.55655 0.0
C1637 C 0.55347 0.98172 0.56129 0.0
C1638 C 0.58141 0.98305 0.57413 0.0
C1639 C 0.59757 0.97406 0.58133 0.0
C1640 C 0.58731 0.96404 0.57314 0.0
C1641 C 0.60837 0.95567 0.58641 0.0
C1642 C 0.59766 0.94837 0.62835 0.0
C1643 C 0.6168 0.94936 0.53956 0.0
C1644 C 0.63181 0.96252 0.60478 0.0
C1645 C 0.62516 0.9731 0.60176 0.0
C1646 C 0.64326 0.98091 0.61807 0.0
C1647 C 0.66942 0.97783 0.63555 0.0
C1648 C 0.6771 0.96706 0.63642 0.0
C1649 C 0.65778 0.95932 0.62198 0.0
H1650 H 0.05507 0.98338 1.00063 0.0
H1651 H 0.02362 0.95153 1.00457 0.0
H1652 H 0.07134 0.94469 0.01246 0.0
H1653 H 0.12768 0.97676 0.94173 0.0
H1654 H 0.14312 0.98662 0.9815 0.0
H1655 H 0.10867 0.98857 0.9569 0.0
H1656 H 0.09103 0.99148 0.04752 0.0
H1657 H 0.12481 0.98903 0.07294 0.0
H1658 H 0.09577 0.98122 0.09365 0.0
H1659 H 0.11894 0.94189 0.04608 0.0
H1660 H 0.16421 0.94314 0.0893 0.0
H1661 H 0.1645 0.97693 0.06436 0.0
C1662 C 0.05861 0.97495 0.9993 0.0
C1663 C 0.03608 0.96794 1.0011 0.0
C1664 C 0.04087 0.95696 1.00177 0.0
C1665 C 0.0679 0.95304 0.00677 0.0
C1666 C 0.08966 0.96023 0.01015 0.0
C1667 C 0.08541 0.97098 1.00472 0.0
C1668 C 0.11109 0.97717 0.01842 0.0
C1669 C 0.12337 0.9826 0.97186 0.0
C1670 C 0.10529 0.98518 0.06063 0.0
C1671 C 0.12955 0.96834 0.03641 0.0
C1672 C 0.11718 0.95861 0.03041 0.0
C1673 C 0.12922 0.94943 0.04943 0.0
C1674 C 0.15475 0.95022 0.07433 0.0
C1675 C 0.1677 0.96014 0.08057 0.0
C1676 C 0.15493 0.96925 0.06086 0.0
H1677 H 0.56323 0.85842 0.0771 0.0
H1678 H 0.54769 0.86796 0.2314 0.0
H1679 H 0.59803 0.86954 0.24478 0.0
H1680 H 0.62189 0.84352 0.09664 0.0
H1681 H 0.64008 0.84777 0.04107 0.0
H1682 H 0.60278 0.84787 0.04226 0.0
H1683 H 0.60236 0.8677 0.01914 0.0
H1684 H 0.63971 0.86764 0.01707 0.0
H1685 H 0.62175 0.87688 0.05685 0.0
H1686 H 0.64949 0.86762 0.24431 0.0
H1687 H 0.69845 0.86466 0.22889 0.0
H1688 H 0.68119 0.85941 0.07034 0.0
C1689 C 0.57001 0.86122 0.11337 0.0
C1690 C 0.55102 0.86304 0.15321 0.0
C1691 C 0.5615 0.86631 0.20039 0.0
C1692 C 0.59014 0.86733 0.20828 0.0
C1693 C 0.60806 0.86529 0.16836 0.0
C1694 C 0.5984 0.86254 0.12154 0.0
C1695 C 0.6221 0.86065 0.08513 0.0
C1696 C 0.62167 0.84928 0.06512 0.0
C1697 C 0.62144 0.8687 0.042 0.0
C1698 C 0.64671 0.86247 0.11929 0.0
C1699 C 0.63804 0.86506 0.16715 0.0
C1700 C 0.65661 0.86604 0.20653 0.0
C1701 C 0.68479 0.86446 0.19683 0.0
C1702 C 0.69471 0.86222 0.14752 0.0
C1703 C 0.675 0.86124 0.10835 0.0
H1704 H 0.82428 0.70295 0.00854 0.0
H1705 H 0.79536 0.69045 0.86667 0.0
H1706 H 0.84206 0.68381 0.84828 0.0
H1707 H 0.88243 0.71248 0.97567 0.0
H1708 H 0.90443 0.70847 0.02691 0.0
H1709 H 0.86778 0.70956 0.03644 0.0
H1710 H 0.86521 0.69018 0.06639 0.0
H1711 H 0.90223 0.68905 0.05827 0.0
H1712 H 0.87937 0.67986 0.02765 0.0
H1713 H 0.8925 0.6853 0.83186 0.0
H1714 H 0.94107 0.69062 0.82795 0.0
H1715 H 0.93865 0.69702 0.98864 0.0
C1716 C 0.82741 0.69825 0.97514 0.0
C1717 C 0.8065 0.69755 0.93832 0.0
C1718 C 0.81139 0.6914 0.89476 0.0
C1719 C 0.83783 0.6875 0.88407 0.0
C1720 C 0.85882 0.68923 0.91875 0.0
C1721 C 0.85361 0.6939 0.96481 0.0
C1722 C 0.88038 0.69558 0.99335 0.0
C1723 C 0.88394 0.70721 0.00893 0.0
C1724 C 0.88188 0.68823 0.03912 0.0
C1725 C 0.90132 0.69238 0.95368 0.0
C1726 C 0.88853 0.6887 0.91098 0.0
C1727 C 0.90304 0.68762 0.86593 0.0
C1728 C 0.93099 0.69071 0.86415 0.0
C1729 C 0.94461 0.69463 0.90754 0.0
C1730 C 0.92959 0.69463 0.95352 0.0
H1731 H 0.41237 0.60578 0.8577 0.0
H1732 H 0.4346 0.57781 0.94243 0.0
H1733 H 0.38612 0.57158 0.93729 0.0
H1734 H 0.34403 0.6093 0.913 0.0
H1735 H 0.3289 0.61379 0.85491 0.0
H1736 H 0.36509 0.61607 0.86728 0.0
H1737 H 0.37753 0.60671 0.78381 0.0
H1738 H 0.3414 0.60416 0.77182 0.0
H1739 H 0.36583 0.59341 0.77328 0.0
H1740 H 0.33629 0.56802 0.91917 0.0
H1741 H 0.2862 0.56854 0.90036 0.0
H1742 H 0.29634 0.59889 0.82768 0.0
C1743 C 0.40687 0.59842 0.87573 0.0
C1744 C 0.42701 0.59227 0.90067 0.0
C1745 C 0.41926 0.58268 0.92388 0.0
C1746 C 0.39193 0.57903 0.92057 0.0
C1747 C 0.37277 0.58511 0.89416 0.0
C1748 C 0.37973 0.59469 0.87296 0.0
C1749 C 0.35511 0.59977 0.84733 0.0
C1750 C 0.34785 0.61036 0.87213 0.0
C1751 C 0.36029 0.60109 0.7907 0.0
C1752 C 0.33315 0.59154 0.85745 0.0
C1753 C 0.3439 0.5831 0.88402 0.0
C1754 C 0.3276 0.5746 0.89858 0.0
C1755 C 0.29928 0.57494 0.88759 0.0
C1756 C 0.28761 0.58376 0.86266 0.0
C1757 C 0.30489 0.59201 0.8461 0.0
H1758 H 0.92604 0.60361 0.40268 0.0
H1759 H 0.91799 0.57001 0.42758 0.0
H1760 H 0.86977 0.57066 0.39645 0.0
H1761 H 0.85194 0.6107 0.43332 0.0
H1762 H 0.85137 0.62064 0.38491 0.0
H1763 H 0.88324 0.6177 0.41728 0.0
H1764 H 0.90677 0.61425 0.33139 0.0
H1765 H 0.87473 0.61673 0.29885 0.0
H1766 H 0.8926 0.60438 0.29011 0.0
H1767 H 0.8257 0.57444 0.3516 0.0
H1768 H 0.78415 0.58171 0.31101 0.0
H1769 H 0.82098 0.61293 0.31327 0.0
C1770 C 0.91356 0.59653 0.40403 0.0
C1771 C 0.92531 0.5868 0.41827 0.0
C1772 C 0.90895 0.57755 0.41764 0.0
C1773 C 0.88175 0.57783 0.39952 0.0
C1774 C 0.87135 0.58743 0.38248 0.0
C1775 C 0.88639 0.59667 0.38583 0.0
C1776 C 0.87091 0.6058 0.36221 0.0
C1777 C 0.86394 0.61421 0.40179 0.0
C1778 C 0.88724 0.61056 0.31803 0.0
C1779 C 0.84512 0.6002 0.34413 0.0
C1780 C 0.8459 0.5896 0.356 0.0
C1781 C 0.82471 0.58275 0.34248 0.0
C1782 C 0.80139 0.58694 0.31853 0.0
C1783 C 0.79939 0.5979 0.30854 0.0
C1784 C 0.82197 0.60453 0.32023 0.0
H1785 H 0.319 0.70951 0.47126 0.0
H1786 H 0.29383 0.70394 0.31717 0.0
H1787 H 0.34201 0.70633 0.28907 0.0
H1788 H 0.36573 0.72983 0.44511 0.0
H1789 H 0.39103 0.72603 0.4915 0.0
H1790 H 0.35508 0.72278 0.50066 0.0
H1791 H 0.36783 0.70302 0.51003 0.0
H1792 H 0.4039 0.70623 0.50143 0.0
H1793 H 0.38762 0.69663 0.46138 0.0
H1794 H 0.39195 0.71116 0.27634 0.0
H1795 H 0.44061 0.71715 0.28114 0.0
H1796 H 0.43355 0.71887 0.44352 0.0
C1797 C 0.32374 0.70862 0.43176 0.0
C1798 C 0.30269 0.70638 0.39661 0.0
C1799 C 0.30969 0.70537 0.34508 0.0
C1800 C 0.33699 0.7068 0.3286 0.0
C1801 C 0.35715 0.70918 0.36407 0.0
C1802 C 0.35096 0.70995 0.41464 0.0
C1803 C 0.3763 0.71301 0.44468 0.0
C1804 C 0.37175 0.72354 0.47208 0.0
C1805 C 0.38439 0.70419 0.48155 0.0
C1806 C 0.39741 0.71409 0.40293 0.0
C1807 C 0.38603 0.71183 0.35672 0.0
C1808 C 0.40126 0.7128 0.31242 0.0
C1809 C 0.42891 0.71618 0.31552 0.0
C1810 C 0.441 0.71854 0.36262 0.0
C1811 C 0.42494 0.71733 0.40675 0.0
H1812 H 0.16757 0.37515 0.1082 0.0
H1813 H 0.18554 0.34168 0.10399 0.0
H1814 H 0.13987 0.33788 0.14153 0.0
H1815 H 0.13246 0.37562 0.2235 0.0
H1816 H 0.10611 0.38492 0.20499 0.0
H1817 H 0.13964 0.3852 0.17521 0.0
H1818 H 0.1171 0.38307 0.08745 0.0
H1819 H 0.08349 0.38324 0.11684 0.0
H1820 H 0.09318 0.3724 0.07685 0.0
H1821 H 0.09478 0.33781 0.18654 0.0
H1822 H 0.04698 0.34096 0.2154 0.0
H1823 H 0.05683 0.37442 0.18717 0.0
C1824 C 0.16137 0.36703 0.11365 0.0
C1825 C 0.17971 0.35869 0.10264 0.0
C1826 C 0.17138 0.34814 0.1111 0.0
C1827 C 0.14575 0.34593 0.13325 0.0
C1828 C 0.12868 0.35435 0.14602 0.0
C1829 C 0.13562 0.36466 0.13494 0.0
C1830 C 0.11296 0.3722 0.15099 0.0
C1831 C 0.12344 0.37994 0.19105 0.0
C1832 C 0.10096 0.37807 0.10532 0.0
C1833 C 0.09228 0.3645 0.17298 0.0
C1834 C 0.10212 0.35428 0.17082 0.0
C1835 C 0.08675 0.34576 0.18834 0.0
C1836 C 0.05981 0.34766 0.2055 0.0
C1837 C 0.04848 0.35795 0.20411 0.0
C1838 C 0.06529 0.36652 0.18947 0.0
H1839 H 0.55857 0.45809 0.12589 0.0
H1840 H 0.5482 0.49172 0.10321 0.0
H1841 H 0.59684 0.49463 0.12821 0.0
H1842 H 0.59979 0.45947 0.23353 0.0
H1843 H 0.62245 0.44868 0.21745 0.0
H1844 H 0.58747 0.44897 0.1939 0.0
H1845 H 0.60532 0.44762 0.10232 0.0
H1846 H 0.6403 0.44696 0.1257 0.0
H1847 H 0.63094 0.45687 0.08023 0.0
H1848 H 0.64455 0.49407 0.16351 0.0
H1849 H 0.69232 0.48981 0.18908 0.0
H1850 H 0.67228 0.45648 0.18762 0.0
C1851 C 0.56687 0.46602 0.12483 0.0
C1852 C 0.54987 0.47468 0.11223 0.0
C1853 C 0.56114 0.48497 0.11177 0.0
C1854 C 0.58857 0.48671 0.12665 0.0
C1855 C 0.60438 0.47806 0.14129 0.0
C1856 C 0.59427 0.46788 0.13909 0.0
C1857 C 0.61575 0.45998 0.15644 0.0
C1858 C 0.60575 0.45392 0.2031 0.0
C1859 C 0.62354 0.45241 0.11361 0.0
C1860 C 0.6394 0.46732 0.16918 0.0
C1861 C 0.6322 0.47772 0.16092 0.0
C1862 C 0.65052 0.48596 0.16994 0.0
C1863 C 0.67746 0.48347 0.18526 0.0
C1864 C 0.68582 0.47282 0.19085 0.0
C1865 C 0.66627 0.46468 0.18414 0.0
H1866 H 0.06952 0.45436 0.57901 0.0
H1867 H 0.04008 0.44717 0.72923 0.0
H1868 H 0.08803 0.44372 0.75644 0.0
H1869 H 0.12726 0.43549 0.57616 0.0
H1870 H 0.14947 0.44453 0.54288 0.0
H1871 H 0.11248 0.44506 0.5338 0.0
H1872 H 0.11247 0.46484 0.55837 0.0
H1873 H 0.14938 0.46436 0.56756 0.0
H1874 H 0.12711 0.46875 0.61772 0.0
H1875 H 0.14008 0.44286 0.76946 0.0
H1876 H 0.19142 0.44425 0.76536 0.0
H1877 H 0.18525 0.45279 0.60795 0.0
C1878 C 0.07309 0.45192 0.61743 0.0
C1879 C 0.051 0.45091 0.65169 0.0
C1880 C 0.05659 0.44774 0.70181 0.0
C1881 C 0.0838 0.44582 0.71781 0.0
C1882 C 0.10517 0.44711 0.68328 0.0
C1883 C 0.10006 0.45004 0.63408 0.0
C1884 C 0.12662 0.45166 0.60525 0.0
C1885 C 0.12909 0.44371 0.56197 0.0
C1886 C 0.12903 0.46308 0.58614 0.0
C1887 C 0.14743 0.44937 0.64612 0.0
C1888 C 0.13485 0.44669 0.69085 0.0
C1889 C 0.15021 0.44479 0.73439 0.0
C1890 C 0.17925 0.44564 0.73187 0.0
C1891 C 0.19235 0.44836 0.68612 0.0
C1892 C 0.17603 0.45028 0.64307 0.0
H1893 H 0.56019 0.35136 0.69745 0.0
H1894 H 0.55194 0.31753 0.68355 0.0
H1895 H 0.60257 0.31588 0.67193 0.0
H1896 H 0.60653 0.35479 0.6045 0.0
H1897 H 0.62769 0.36476 0.63349 0.0
H1898 H 0.59193 0.36338 0.65145 0.0
H1899 H 0.60567 0.36084 0.74465 0.0
H1900 H 0.64149 0.36266 0.72744 0.0
H1901 H 0.63105 0.35099 0.76113 0.0
H1902 H 0.65141 0.31824 0.64535 0.0
H1903 H 0.69871 0.32409 0.62312 0.0
H1904 H 0.67591 0.35639 0.6564 0.0
C1905 C 0.5694 0.34359 0.69488 0.0
C1906 C 0.55265 0.33453 0.69253 0.0
C1907 C 0.56485 0.32448 0.68671 0.0
C1908 C 0.59344 0.3235 0.67957 0.0
C1909 C 0.60933 0.33265 0.67888 0.0
C1910 C 0.59797 0.34248 0.68797 0.0
C1911 C 0.61937 0.3511 0.68157 0.0
C1912 C 0.61085 0.35897 0.6403 0.0
C1913 C 0.62472 0.35673 0.73169 0.0
C1914 C 0.64414 0.34461 0.66559 0.0
C1915 C 0.63784 0.334 0.66404 0.0
C1916 C 0.65681 0.3265 0.64735 0.0
C1917 C 0.68338 0.3299 0.63399 0.0
C1918 C 0.69062 0.34067 0.63772 0.0
C1919 C 0.67067 0.34812 0.65309 0.0
H1920 H 0.07323 0.16839 0.33998 0.0
H1921 H 0.12219 0.18853 0.43696 0.0
H1922 H 0.15312 0.17346 0.45587 0.0
H1923 H 0.07717 0.14496 0.4163 0.0
H1924 H 0.0796 0.13613 0.36355 0.0
H1925 H 0.0615 0.14849 0.35719 0.0
H1926 H 0.09286 0.15354 0.28199 0.0
H1927 H 0.11088 0.14117 0.28788 0.0
H1928 H 0.12999 0.15336 0.2895 0.0
H1929 H 0.17846 0.15601 0.46497 0.0
H1930 H 0.19782 0.13804 0.45977 0.0
H1931 H 0.13222 0.12909 0.35727 0.0
C1932 C 0.09029 0.16967 0.36555 0.0
C1933 C 0.09505 0.17974 0.38722 0.0
C1934 C 0.11812 0.18099 0.41955 0.0
C1935 C 0.1357 0.17243 0.4308 0.0
C1936 C 0.13009 0.16261 0.40937 0.0
C1937 C 0.10804 0.16121 0.37712 0.0
C1938 C 0.10677 0.1499 0.35837 0.0
C1939 C 0.07964 0.14456 0.37485 0.0
C1940 C 0.11034 0.14947 0.30104 0.0
C1941 C 0.13158 0.14511 0.38511 0.0
C1942 C 0.14468 0.15259 0.41445 0.0
C1943 C 0.16835 0.15013 0.44203 0.0
C1944 C 0.17924 0.13988 0.43878 0.0
C1945 C 0.16663 0.1321 0.40815 0.0
C1946 C 0.14215 0.13477 0.3816 0.0
H1947 H 0.12633 0.14141 0.77709 0.0
H1948 H 0.06233 0.14346 0.89088 0.0
H1949 H 0.07176 0.16257 0.90001 0.0
H1950 H 0.17414 0.15906 0.83374 0.0
H1951 H 0.18548 0.16475 0.77521 0.0
H1952 H 0.17291 0.1514 0.77685 0.0
H1953 H 0.13639 0.15595 0.70886 0.0
H1954 H 0.14895 0.1693 0.70683 0.0
H1955 H 0.11281 0.16677 0.71908 0.0
H1956 H 0.09077 0.18157 0.89955 0.0
H1957 H 0.11461 0.19861 0.88461 0.0
H1958 H 0.16533 0.18382 0.77026 0.0
C1959 C 0.11423 0.14587 0.80387 0.0
C1960 C 0.0936 0.1409 0.83334 0.0
C1961 C 0.07802 0.14709 0.86751 0.0
C1962 C 0.08339 0.15794 0.87318 0.0
C1963 C 0.10423 0.16254 0.84404 0.0
C1964 C 0.11915 0.15669 0.80962 0.0
C1965 C 0.14038 0.16342 0.7826 0.0
C1966 C 0.16997 0.15942 0.79273 0.0
C1967 C 0.13426 0.16389 0.72599 0.0
C1968 C 0.13534 0.17399 0.80737 0.0
C1969 C 0.11454 0.17336 0.84295 0.0
C1970 C 0.10693 0.18213 0.87147 0.0
C1971 C 0.1207 0.19177 0.86298 0.0
C1972 C 0.14172 0.19261 0.82596 0.0
C1973 C 0.14905 0.18353 0.79817 0.0
H1974 H 0.86115 0.87971 0.55752 0.0
H1975 H 0.9297 0.8839 0.66063 0.0
H1976 H 0.91952 0.90301 0.66464 0.0
H1977 H 0.8707 0.90409 0.48926 0.0
H1978 H 0.83405 0.90631 0.48141 0.0
H1979 H 0.84721 0.89307 0.48648 0.0
H1980 H 0.81397 0.88952 0.56103 0.0
H1981 H 0.80077 0.90276 0.5563 0.0
H1982 H 0.81482 0.89809 0.61492 0.0
H1983 H 0.89984 0.9219 0.6598 0.0
H1984 H 0.8749 0.93859 0.64181 0.0
H1985 H 0.8199 0.92178 0.54133 0.0
C1986 C 0.87404 0.88463 0.58099 0.0
C1987 C 0.89625 0.88025 0.6088 0.0
C1988 C 0.91279 0.88704 0.63853 0.0
C1989 C 0.90702 0.89792 0.6413 0.0
C1990 C 0.88474 0.90195 0.61381 0.0
C1991 C 0.8687 0.89549 0.58385 0.0
C1992 C 0.84609 0.90171 0.55761 0.0
C1993 C 0.84975 0.90127 0.5003 0.0
C1994 C 0.81721 0.89778 0.57343 0.0
C1995 C 0.85171 0.91267 0.57764 0.0
C1996 C 0.87397 0.91269 0.61024 0.0
C1997 C 0.88249 0.92194 0.63406 0.0
C1998 C 0.86811 0.9314 0.62387 0.0
C1999 C 0.84555 0.93157 0.58979 0.0
C2000 C 0.83734 0.92201 0.56681 0.0
H2001 H 0.93999 0.92821 0.14205 0.0
H2002 H 0.86452 0.94551 0.17453 0.0
H2003 H 0.8386 0.92865 0.17794 0.0
H2004 H 0.90915 0.90849 0.06342 0.0
H2005 H 0.93142 0.8981 0.086 0.0
H2006 H 0.94351 0.91152 0.08565 0.0
H2007 H 0.95417 0.91026 0.18078 0.0
H2008 H 0.94216 0.89684 0.1814 0.0
H2009 H 0.9271 0.90634 0.22359 0.0
H2010 H 0.82128 0.9093 0.17976 0.0
H2011 H 0.81459 0.88998 0.17951 0.0
H2012 H 0.90177 0.88581 0.14423 0.0
C2013 C 0.91807 0.92853 0.15045 0.0
C2014 C 0.90445 0.93829 0.15851 0.0
C2015 C 0.87551 0.9382 0.16806 0.0
C2016 C 0.86062 0.92863 0.17021 0.0
C2017 C 0.87485 0.91916 0.16238 0.0
C2018 C 0.90297 0.91909 0.15252 0.0
C2019 C 0.91364 0.90795 0.14532 0.0
C2020 C 0.9251 0.90643 0.09193 0.0
C2021 C 0.93556 0.90519 0.18515 0.0
C2022 C 0.88725 0.90169 0.15318 0.0
C2023 C 0.86501 0.90825 0.16287 0.0
C2024 C 0.83861 0.90414 0.17193 0.0
C2025 C 0.83496 0.8931 0.17143 0.0
C2026 C 0.85756 0.8862 0.16193 0.0
C2027 C 0.88396 0.8907 0.1523 0.0
H2028 H 0.13471 0.67956 0.95605 0.0
H2029 H 0.04962 0.67695 0.90521 0.0
H2030 H 0.05487 0.65753 0.90113 0.0
H2031 H 0.16268 0.65988 0.87644 0.0
H2032 H 0.18717 0.65508 0.92216 0.0
H2033 H 0.1759 0.6686 0.92411 0.0
H2034 H 0.16002 0.66616 0.01631 0.0
H2035 H 0.17135 0.65264 0.01472 0.0
H2036 H 0.13612 0.65574 0.03178 0.0
H2037 H 0.07115 0.63804 0.89804 0.0
H2038 H 0.09563 0.62089 0.90005 0.0
H2039 H 0.17016 0.63669 0.95104 0.0
C2040 C 0.11706 0.67495 0.94411 0.0
C2041 C 0.0917 0.6799 0.9308 0.0
C2042 C 0.06915 0.67343 0.91614 0.0
C2043 C 0.07204 0.66236 0.91339 0.0
C2044 C 0.09757 0.6578 0.92568 0.0
C2045 C 0.11959 0.66394 0.94114 0.0
C2046 C 0.14508 0.65725 0.95137 0.0
C2047 C 0.16912 0.66039 0.91643 0.0
C2048 C 0.15364 0.65799 0.00684 0.0
C2049 C 0.13418 0.64636 0.93881 0.0
C2050 C 0.10674 0.64679 0.92409 0.0
C2051 C 0.0926 0.63767 0.90976 0.0
C2052 C 0.10679 0.62793 0.91072 0.0
C2053 C 0.13494 0.62729 0.92594 0.0
C2054 C 0.14859 0.63674 0.94004 0.0
H2055 H 0.09813 0.67503 0.41226 0.0
H2056 H 0.16119 0.67417 0.29691 0.0
H2057 H 0.14369 0.65672 0.26877 0.0
H2058 H 0.10037 0.64862 0.44639 0.0
H2059 H 0.0636 0.6471 0.45602 0.0
H2060 H 0.07945 0.65983 0.46368 0.0
H2061 H 0.04566 0.66788 0.3985 0.0
H2062 H 0.02939 0.6552 0.39116 0.0
H2063 H 0.04293 0.66203 0.33709 0.0
H2064 H 0.12289 0.63807 0.26219 0.0
H2065 H 0.0966 0.62129 0.26943 0.0
H2066 H 0.04503 0.63509 0.3848 0.0
C2067 C 0.10769 0.67127 0.38015 0.0
C2068 C 0.13081 0.67595 0.35631 0.0
C2069 C 0.14315 0.67078 0.31493 0.0
C2070 C 0.13347 0.66084 0.29912 0.0
C2071 C 0.11109 0.65628 0.32452 0.0
C2072 C 0.09794 0.66148 0.3634 0.0
C2073 C 0.07466 0.65489 0.3853 0.0
C2074 C 0.07985 0.65247 0.44114 0.0
C2075 C 0.04649 0.66032 0.37753 0.0
C2076 C 0.07709 0.64502 0.35362 0.0
C2077 C 0.09838 0.6459 0.31903 0.0
C2078 C 0.10581 0.63743 0.28838 0.0
C2079 C 0.09094 0.62791 0.29284 0.0
C2080 C 0.0686 0.627 0.32701 0.0
C2081 C 0.06163 0.63569 0.35758 0.0
H2082 H 0.81822 0.42766 0.07594 0.0
H2083 H 0.87721 0.44371 0.17169 0.0
H2084 H 0.90002 0.42657 0.19 0.0
H2085 H 0.81122 0.4043 0.15137 0.0
H2086 H 0.80818 0.3957 0.09789 0.0
H2087 H 0.79677 0.40918 0.09343 0.0
H2088 H 0.82893 0.41203 0.01666 0.0
H2089 H 0.8405 0.39857 0.02096 0.0
H2090 H 0.8654 0.40914 0.02216 0.0
H2091 H 0.91739 0.40725 0.19455 0.0
H2092 H 0.92541 0.38798 0.18942 0.0
H2093 H 0.85448 0.38504 0.09064 0.0
C2094 C 0.83605 0.42764 0.10053 0.0
C2095 C 0.84606 0.43711 0.12196 0.0
C2096 C 0.86907 0.43659 0.15493 0.0
C2097 C 0.88224 0.42688 0.16529 0.0
C2098 C 0.87201 0.41772 0.14277 0.0
C2099 C 0.84924 0.41806 0.1114 0.0
C2100 C 0.8419 0.40719 0.09209 0.0
C2101 C 0.81279 0.4039 0.10977 0.0
C2102 C 0.84434 0.40671 0.03456 0.0
C2103 C 0.86417 0.40062 0.11716 0.0
C2104 C 0.88149 0.40679 0.14611 0.0
C2105 C 0.90383 0.40238 0.17208 0.0
C2106 C 0.90836 0.39142 0.16869 0.0
C2107 C 0.89054 0.38493 0.13981 0.0
C2108 C 0.86828 0.3897 0.11366 0.0
H2109 H 0.90541 0.4261 0.70932 0.0
H2110 H 0.837 0.43778 0.62051 0.0
H2111 H 0.81163 0.4211 0.63427 0.0
H2112 H 0.90488 0.4008 0.66316 0.0
H2113 H 0.9129 0.39404 0.72092 0.0
H2114 H 0.92385 0.40747 0.71197 0.0
H2115 H 0.89831 0.41305 0.79314 0.0
H2116 H 0.88762 0.39959 0.80287 0.0
H2117 H 0.86207 0.40996 0.8006 0.0
H2118 H 0.79733 0.40234 0.64519 0.0
H2119 H 0.79266 0.38318 0.66018 0.0
H2120 H 0.86916 0.3833 0.74511 0.0
C2121 C 0.88452 0.42528 0.69507 0.0
C2122 C 0.87265 0.43333 0.66518 0.0
C2123 C 0.84593 0.43181 0.64469 0.0
C2124 C 0.83152 0.42233 0.65204 0.0
C2125 C 0.8441 0.41439 0.68017 0.0
C2126 C 0.86978 0.4158 0.70223 0.0
C2127 C 0.87944 0.40565 0.72736 0.0
C2128 C 0.90689 0.40176 0.70447 0.0
C2129 C 0.88201 0.40716 0.78439 0.0
C2130 C 0.85563 0.39827 0.71455 0.0
C2131 C 0.83549 0.40351 0.6873 0.0
C2132 C 0.81265 0.39822 0.66746 0.0
C2133 C 0.81023 0.38733 0.67584 0.0
C2134 C 0.83032 0.3818 0.70423 0.0
C2135 C 0.85319 0.38739 0.72422 0.0
H2136 H 0.68109 0.13552 0.87497 0.0
H2137 H 0.62123 0.12116 0.97495 0.0
H2138 H 0.59418 0.13788 0.97577 0.0
H2139 H 0.6808 0.16126 0.92817 0.0
H2140 H 0.68373 0.16792 0.8686 0.0
H2141 H 0.69785 0.15488 0.87621 0.0
H2142 H 0.66859 0.14826 0.80106 0.0
H2143 H 0.6546 0.16131 0.7929 0.0
H2144 H 0.63159 0.15026 0.80131 0.0
H2145 H 0.57516 0.15698 0.96794 0.0
H2146 H 0.56337 0.17543 0.94457 0.0
H2147 H 0.63528 0.17656 0.84737 0.0
C2148 C 0.66228 0.13589 0.89708 0.0
C2149 C 0.65334 0.12708 0.92529 0.0
C2150 C 0.62835 0.12781 0.95298 0.0
C2151 C 0.61302 0.1373 0.95387 0.0
C2152 C 0.62278 0.14592 0.92626 0.0
C2153 C 0.64666 0.1452 0.89775 0.0
C2154 C 0.65255 0.15539 0.87012 0.0
C2155 C 0.68038 0.16014 0.88679 0.0
C2156 C 0.65177 0.1537 0.81297 0.0
C2157 C 0.62839 0.16206 0.88763 0.0
C2158 C 0.61152 0.15656 0.92044 0.0
C2159 C 0.58821 0.1613 0.94203 0.0
C2160 C 0.58175 0.1718 0.9289 0.0
C2161 C 0.59832 0.17741 0.89401 0.0
C2162 C 0.62206 0.17244 0.87375 0.0
H2163 H 0.65882 0.17574 0.45131 0.0
H2164 H 0.63662 0.18569 0.3012 0.0
H2165 H 0.61131 0.16878 0.28864 0.0
H2166 H 0.67122 0.14886 0.4244 0.0
H2167 H 0.65685 0.14413 0.48268 0.0
H2168 H 0.67202 0.15707 0.47955 0.0
H2169 H 0.62636 0.16535 0.51245 0.0
H2170 H 0.61121 0.15242 0.51652 0.0
H2171 H 0.59424 0.16259 0.48054 0.0
H2172 H 0.59037 0.14971 0.29282 0.0
H2173 H 0.57166 0.13211 0.31692 0.0
H2174 H 0.6082 0.13547 0.46428 0.0
C2175 C 0.64848 0.1744 0.41584 0.0
C2176 C 0.64977 0.182 0.3771 0.0
C2177 C 0.63569 0.18 0.33147 0.0
C2178 C 0.62152 0.17038 0.32396 0.0
C2179 C 0.62141 0.1629 0.36268 0.0
C2180 C 0.63423 0.16495 0.40803 0.0
C2181 C 0.63108 0.15586 0.44432 0.0
C2182 C 0.65948 0.15121 0.45855 0.0
C2183 C 0.61474 0.15926 0.49121 0.0
C2184 C 0.6146 0.14826 0.41253 0.0
C2185 C 0.60929 0.15233 0.36534 0.0
C2186 C 0.59438 0.14652 0.32981 0.0
C2187 C 0.58405 0.13649 0.34352 0.0
C2188 C 0.58845 0.13244 0.39245 0.0
C2189 C 0.60438 0.13838 0.4267 0.0
H2190 H 0.35503 0.87955 0.1334 0.0
H2191 H 0.42339 0.88489 0.03109 0.0
H2192 H 0.4118 0.90398 0.0287 0.0
H2193 H 0.30712 0.8978 0.07982 0.0
H2194 H 0.29342 0.90197 0.13956 0.0
H2195 H 0.30735 0.88889 0.13257 0.0
H2196 H 0.34119 0.89223 0.20637 0.0
H2197 H 0.32728 0.90531 0.21371 0.0
H2198 H 0.36396 0.90348 0.2042 0.0
H2199 H 0.39066 0.92278 0.03638 0.0
H2200 H 0.36516 0.93914 0.05885 0.0
H2201 H 0.31172 0.92092 0.15686 0.0
C2202 C 0.36749 0.88472 0.11024 0.0
C2203 C 0.38996 0.88072 0.08201 0.0
C2204 C 0.40614 0.8878 0.05309 0.0
C2205 C 0.39958 0.89864 0.05135 0.0
C2206 C 0.377 0.9023 0.07928 0.0
C2207 C 0.36146 0.89551 0.10864 0.0
C2208 C 0.33877 0.90132 0.13644 0.0
C2209 C 0.30997 0.89725 0.12116 0.0
C2210 C 0.34307 0.90054 0.19356 0.0
C2211 C 0.34357 0.91244 0.11776 0.0
C2212 C 0.36559 0.91291 0.08466 0.0
C2213 C 0.37349 0.92245 0.0625 0.0
C2214 C 0.35879 0.93171 0.0752 0.0
C2215 C 0.33659 0.93138 0.11007 0.0
C2216 C 0.32888 0.92154 0.13087 0.0
H2217 H 0.3794 0.87821 0.6543 0.0
H2218 H 0.29216 0.88151 0.62018 0.0
H2219 H 0.29685 0.90102 0.62497 0.0
H2220 H 0.38588 0.9014 0.73885 0.0
H2221 H 0.41995 0.90439 0.71495 0.0
H2222 H 0.40811 0.89093 0.71708 0.0
H2223 H 0.41809 0.88905 0.62189 0.0
H2224 H 0.42978 0.90247 0.61939 0.0
H2225 H 0.4023 0.89817 0.57847 0.0
H2226 H 0.31382 0.92061 0.62261 0.0
H2227 H 0.34057 0.93729 0.61309 0.0
H2228 H 0.41616 0.92044 0.64789 0.0
C2229 C 0.3611 0.88302 0.64899 0.0
C2230 C 0.33539 0.87834 0.637 0.0
C2231 C 0.31196 0.88492 0.63016 0.0
C2232 C 0.31453 0.89601 0.63258 0.0
C2233 C 0.34061 0.90039 0.64254 0.0
C2234 C 0.36337 0.894 0.65124 0.0
C2235 C 0.38964 0.90039 0.65693 0.0
C2236 C 0.40159 0.89921 0.71012 0.0
C2237 C 0.4112 0.89734 0.61678 0.0
C2238 C 0.37852 0.91138 0.64832 0.0
C2239 C 0.35016 0.91135 0.64082 0.0
C2240 C 0.33595 0.92068 0.62921 0.0
C2241 C 0.35122 0.93014 0.62409 0.0
C2242 C 0.38041 0.93015 0.62982 0.0
C2243 C 0.39386 0.92067 0.64334 0.0
H2244 H 0.56073 0.68108 0.39469 0.0
H2245 H 0.62557 0.69385 0.48874 0.0
H2246 H 0.6523 0.67717 0.47953 0.0
H2247 H 0.56403 0.65418 0.43663 0.0
H2248 H 0.55831 0.64877 0.37501 0.0
H2249 H 0.5443 0.66149 0.39085 0.0
H2250 H 0.56949 0.66979 0.31449 0.0
H2251 H 0.58346 0.65708 0.29827 0.0
H2252 H 0.60643 0.66809 0.30789 0.0
H2253 H 0.67079 0.65845 0.46163 0.0
H2254 H 0.68189 0.64062 0.4289 0.0
H2255 H 0.60604 0.64091 0.34214 0.0
C2256 C 0.58048 0.68031 0.41364 0.0
C2257 C 0.591 0.68865 0.44308 0.0
C2258 C 0.61721 0.68751 0.46625 0.0
C2259 C 0.63238 0.67806 0.46134 0.0
C2260 C 0.62124 0.66992 0.43235 0.0
C2261 C 0.59604 0.67106 0.40825 0.0
C2262 C 0.58911 0.66143 0.37716 0.0
C2263 C 0.56235 0.65616 0.39606 0.0
C2264 C 0.58701 0.66427 0.32114 0.0
C2265 C 0.61423 0.6546 0.38761 0.0
C2266 C 0.6324 0.65954 0.42008 0.0
C2267 C 0.65674 0.65458 0.43593 0.0
C2268 C 0.66282 0.64443 0.41746 0.0
C2269 C 0.64489 0.63942 0.38285 0.0
C2270 C 0.62024 0.6446 0.36817 0.0
H2271 H 0.61689 0.68735 0.90786 0.0
H2272 H 0.69195 0.68171 0.82348 0.0
H2273 H 0.67516 0.66369 0.80227 0.0
H2274 H 0.6129 0.66293 0.96366 0.0
H2275 H 0.57565 0.6619 0.96172 0.0
H2276 H 0.59179 0.67466 0.96352 0.0
H2277 H 0.56628 0.68016 0.88198 0.0
H2278 H 0.54951 0.66748 0.88051 0.0
H2279 H 0.56907 0.67198 0.82694 0.0
H2280 H 0.65122 0.64521 0.79996 0.0
H2281 H 0.62121 0.62939 0.80902 0.0
H2282 H 0.56304 0.64774 0.89683 0.0
C2283 C 0.62928 0.68244 0.88333 0.0
C2284 C 0.65544 0.68595 0.86646 0.0
C2285 C 0.67153 0.67925 0.83561 0.0
C2286 C 0.66224 0.66897 0.82399 0.0
C2287 C 0.63673 0.66559 0.84327 0.0
C2288 C 0.62031 0.67226 0.87155 0.0
C2289 C 0.59455 0.66675 0.89049 0.0
C2290 C 0.5937 0.66655 0.94826 0.0
C2291 C 0.5683 0.6719 0.86866 0.0
C2292 C 0.59903 0.65584 0.86932 0.0
C2293 C 0.6234 0.65522 0.84214 0.0
C2294 C 0.63199 0.6457 0.82074 0.0
C2295 C 0.61496 0.63671 0.82647 0.0
C2296 C 0.58961 0.63731 0.8533 0.0
C2297 C 0.58196 0.64703 0.87528 0.0
H2298 H 0.42272 0.38489 0.54426 0.0
H2299 H 0.37203 0.36996 0.65859 0.0
H2300 H 0.34697 0.38677 0.67126 0.0
H2301 H 0.43093 0.40932 0.60656 0.0
H2302 H 0.42952 0.41715 0.55013 0.0
H2303 H 0.44193 0.40378 0.54753 0.0
H2304 H 0.4052 0.39937 0.4799 0.0
H2305 H 0.39277 0.41275 0.48208 0.0
H2306 H 0.36911 0.40198 0.49244 0.0
H2307 H 0.32917 0.40584 0.67466 0.0
H2308 H 0.31982 0.42489 0.66736 0.0
H2309 H 0.38249 0.42728 0.5509 0.0
C2310 C 0.40632 0.38509 0.57193 0.0
C2311 C 0.39948 0.37598 0.60039 0.0
C2312 C 0.37754 0.3767 0.63573 0.0
C2313 C 0.36327 0.38627 0.64344 0.0
C2314 C 0.371 0.39511 0.61541 0.0
C2315 C 0.39193 0.39456 0.58011 0.0
C2316 C 0.39686 0.40523 0.55574 0.0
C2317 C 0.42657 0.4091 0.5656 0.0
C2318 C 0.39061 0.4048 0.49919 0.0
C2319 C 0.37572 0.41194 0.58328 0.0
C2320 C 0.36089 0.40597 0.61739 0.0
C2321 C 0.34056 0.41053 0.64771 0.0
C2322 C 0.33528 0.42142 0.64307 0.0
C2323 C 0.35026 0.42775 0.6084 0.0
C2324 C 0.37072 0.42281 0.57814 0.0
H2325 H 0.40998 0.43271 0.2138 0.0
H2326 H 0.35275 0.4486 0.11374 0.0
H2327 H 0.32992 0.43151 0.09567 0.0
H2328 H 0.41829 0.40945 0.13937 0.0
H2329 H 0.42061 0.40077 0.19283 0.0
H2330 H 0.43169 0.41427 0.19817 0.0
H2331 H 0.39819 0.41695 0.27317 0.0
H2332 H 0.38696 0.40347 0.268 0.0
H2333 H 0.36188 0.41399 0.26562 0.0
H2334 H 0.31267 0.41232 0.09077 0.0
H2335 H 0.30521 0.393 0.09437 0.0
H2336 H 0.37478 0.38997 0.19618 0.0
C2337 C 0.39247 0.43263 0.18845 0.0
C2338 C 0.38299 0.44204 0.16557 0.0
C2339 C 0.36043 0.44151 0.13161 0.0
C2340 C 0.34726 0.43184 0.12137 0.0
C2341 C 0.35705 0.42273 0.14499 0.0
C2342 C 0.37935 0.42307 0.17749 0.0
C2343 C 0.38659 0.41219 0.19699 0.0
C2344 C 0.41604 0.40898 0.18086 0.0
C2345 C 0.38319 0.41162 0.25435 0.0
C2346 C 0.36486 0.40562 0.17059 0.0
C2347 C 0.34781 0.41182 0.14106 0.0
C2348 C 0.326 0.40743 0.1137 0.0
C2349 C 0.32179 0.39645 0.11619 0.0
C2350 C 0.33946 0.38995 0.14537 0.0
C2351 C 0.36112 0.39469 0.17304 0.0
H2352 H 0.02766 0.30729 0.19834 0.0
H2353 H 0.93851 0.3027 0.19124 0.0
H2354 H 0.94402 0.28554 0.23401 0.0
H2355 H 0.04676 0.2802 0.17471 0.0
H2356 H 0.07597 0.28068 0.21678 0.0
H2357 H 0.06469 0.29246 0.18504 0.0
H2358 H 0.05973 0.30191 0.27071 0.0
H2359 H 0.07078 0.29013 0.30274 0.0
H2360 H 0.03813 0.29618 0.31876 0.0
H2361 H 0.95999 0.26859 0.28032 0.0
H2362 H 0.98444 0.25397 0.32279 0.0
H2363 H 0.06286 0.26981 0.29614 0.0
C2364 C 0.00912 0.30272 0.20479 0.0
C2365 C 0.98254 0.30656 0.19071 0.0
C2366 C 0.95913 0.30014 0.20146 0.0
C2367 C 0.96206 0.29031 0.2258 0.0
C2368 C 0.98857 0.28688 0.23932 0.0
C2369 C 0.01166 0.29292 0.22885 0.0
C2370 C 0.03792 0.28759 0.24738 0.0
C2371 C 0.05748 0.28508 0.20335 0.0
C2372 C 0.05249 0.29436 0.28726 0.0
C2373 C 0.0261 0.2776 0.27022 0.0
C2374 C -0.0024 0.27729 0.26531 0.0
C2375 C 0.98232 0.26879 0.28403 0.0
C2376 C -0.00351 0.26045 0.30805 0.0
C2377 C 0.02581 0.26057 0.31332 0.0
C2378 C 0.04053 0.26936 0.29385 0.0
H2379 H 0.25149 1.00574 0.20087 0.0
H2380 H 0.23887 1.01814 0.05076 0.0
H2381 H 0.22164 0.03482 0.08676 0.0
H2382 H 0.19126 1.01711 0.25593 0.0
H2383 H 0.2075 1.02001 0.31521 0.0
H2384 H 0.21983 1.00917 0.27779 0.0
H2385 H 0.26932 1.01702 0.27833 0.0
H2386 H 0.25723 1.02787 0.31606 0.0
H2387 H 0.27462 1.03039 0.25737 0.0
H2388 H 0.20449 0.05017 0.13962 0.0
H2389 H 0.18946 0.06282 0.20461 0.0
H2390 H 0.21404 0.04055 0.32025 0.0
C2391 C 0.24555 1.012 0.17546 0.0
C2392 C 0.24663 1.01055 0.12271 0.0
C2393 C 0.23806 1.01896 0.09115 0.0
C2394 C 0.22831 1.02851 0.1113 0.0
C2395 C 0.2272 1.02962 0.16333 0.0
C2396 C 0.23569 1.0216 0.19499 0.0
C2397 C 0.23189 1.02474 0.24956 0.0
C2398 C 0.2114 1.01732 0.27618 0.0
C2399 C 0.25993 1.02502 0.27693 0.0
C2400 C 0.2198 0.03574 0.24365 0.0
C2401 C 0.21732 0.03842 0.19362 0.0
C2402 C 0.2065 0.04816 0.17893 0.0
C2403 C 0.19808 0.05533 0.21624 0.0
C2404 C 0.2004 0.05279 0.26794 0.0
C2405 C 0.2115 0.0428 0.28137 0.0
H2406 H 0.95877 0.06325 0.90586 0.0
H2407 H 0.04693 0.06199 0.938 0.0
H2408 H 0.03972 0.0456 0.98641 0.0
H2409 H 0.93516 0.05356 0.02514 0.0
H2410 H 0.90705 0.04605 0.99871 0.0
H2411 H 0.9192 0.05774 0.96727 0.0
H2412 H 0.9276 0.04697 0.88621 0.0
H2413 H 0.91545 0.03525 0.91733 0.0
H2414 H 0.94928 0.0354 0.88858 0.0
H2415 H 0.02253 1.02886 0.03083 0.0
H2416 H -0.0029 1.01385 0.06791 0.0
H2417 H 0.92054 1.02596 1.00448 0.0
C2418 C 0.97672 0.05954 0.92261 0.0
C2419 C 0.00353 0.06404 0.91762 0.0
C2420 C 0.02615 0.05888 0.94133 0.0
C2421 C 0.02227 0.04949 0.96881 0.0
C2422 C -0.00439 0.04527 0.97255 0.0
C2423 C 0.97323 0.05017 0.95011 0.0
C2424 C 0.94667 0.04407 0.9596 0.0
C2425 C 0.92579 0.05075 0.98946 0.0
C2426 C 0.93401 0.04019 0.90998 0.0
C2427 C 0.95754 0.03494 0.99081 0.0
C2428 C 0.98582 0.03575 0.99791 0.0
C2429 C 0.00038 1.02817 0.02538 0.0
C2430 C 0.98571 1.0196 0.04616 0.0
C2431 C 0.95662 1.0186 0.03958 0.0
C2432 C 0.94259 1.02644 0.01121 0.0
H2433 H 0.27562 0.3112 0.04242 0.0
H2434 H 0.1952 0.31538 0.11293 0.0
H2435 H 0.17733 0.30003 0.06715 0.0
H2436 H 0.249 0.30334 0.92037 0.0
H2437 H 0.27605 0.29381 0.90944 0.0
H2438 H 0.28277 0.30518 0.94794 0.0
H2439 H 0.29846 0.29299 0.02061 0.0
H2440 H 0.29171 0.28159 0.98239 0.0
H2441 H 0.27538 0.28285 0.04296 0.0
H2442 H 0.16792 0.28388 0.01447 0.0
H2443 H 0.1676 0.2687 0.9565 0.0
H2444 H 0.25368 0.27492 0.91917 0.0
C2445 C 0.2542 0.30895 0.04797 0.0
C2446 C 0.23705 0.31452 0.08212 0.0
C2447 C 0.20912 0.3112 0.08814 0.0
C2448 C 0.19862 0.30248 0.06193 0.0
C2449 C 0.21613 0.29709 0.02928 0.0
C2450 C 0.24329 0.30021 0.02194 0.0
C2451 C 0.25765 0.29301 0.98452 0.0
C2452 C 0.26691 0.29921 0.9378 0.0
C2453 C 0.28225 0.28727 0.0091 0.0
C2454 C 0.23434 0.28538 0.9721 0.0
C2455 C 0.21058 0.28785 0.99843 0.0
C2456 C 0.18643 0.28188 0.99357 0.0
C2457 C 0.18647 0.27321 0.96067 0.0
C2458 C 0.21048 0.27054 0.9327 0.0
C2459 C 0.23474 0.27675 0.93905 0.0
H2460 H 0.98988 0.76783 0.8751 0.0
H2461 H 0.04754 0.75138 0.77756 0.0
H2462 H 0.04521 0.76608 0.71717 0.0
H2463 H 0.94684 0.77872 0.7771 0.0
H2464 H 0.94133 0.79117 0.80801 0.0
H2465 H 0.94763 0.77946 0.84465 0.0
H2466 H 0.98898 0.78859 0.88848 0.0
H2467 H 0.98267 0.80035 0.85226 0.0
H2468 H 0.01636 0.7942 0.85092 0.0
H2469 H 0.03564 0.78213 0.6657 0.0
H2470 H 0.02246 0.79914 0.62879 0.0
H2471 H 0.97128 0.806 0.75875 0.0
C2472 C 0.00205 0.76731 0.84107 0.0
C2473 C 0.01907 0.75837 0.8315 0.0
C2474 C 0.03476 0.75813 0.7865 0.0
C2475 C 0.03335 0.76643 0.75162 0.0
C2476 C 0.01623 0.77503 0.76199 0.0
C2477 C 0.00102 0.77561 0.80578 0.0
C2478 C 0.98454 0.78588 0.80771 0.0
C2479 C 0.95322 0.78367 0.80947 0.0
C2480 C -0.00631 0.79265 0.8525 0.0
C2481 C 0.99281 0.79096 0.75805 0.0
C2482 C 0.01101 0.78448 0.73238 0.0
C2483 C 0.02164 0.7873 0.68573 0.0
C2484 C 0.01407 0.79706 0.66513 0.0
C2485 C -0.0039 0.80408 0.69092 0.0
C2486 C 0.98496 0.80085 0.73787 0.0
H2487 H 0.70042 0.05065 0.78671 0.0
H2488 H 0.7362 0.03936 0.9261 0.0
H2489 H 0.758 1.02459 0.88109 0.0
H2490 H 0.68469 1.02513 0.73652 0.0
H2491 H 0.69318 1.02847 0.67256 0.0
H2492 H 0.68134 0.03855 0.715 0.0
H2493 H 0.72555 0.04946 0.69683 0.0
H2494 H 0.73752 0.03941 0.65429 0.0
H2495 H 0.75914 0.04351 0.70581 0.0
H2496 H 0.77514 1.01067 0.82194 0.0
H2497 H 0.78511 0.99831 0.75327 0.0
H2498 H 0.73881 1.01827 0.65051 0.0
C2499 C 0.71308 0.04512 0.80754 0.0
C2500 C 0.71638 0.04618 0.86021 0.0
C2501 C 0.73292 0.03868 0.88607 0.0
C2502 C 0.7456 1.03028 0.86071 0.0
C2503 C 0.74167 1.02937 0.80913 0.0
C2504 C 0.7258 0.03656 0.78269 0.0
C2505 C 0.72421 0.03345 0.72759 0.0
C2506 C 0.69406 1.03127 0.71202 0.0
C2507 C 0.7374 0.04197 0.69416 0.0
C2508 C 0.74143 1.02339 0.72747 0.0
C2509 C 0.75147 1.02124 0.77488 0.0
C2510 C 0.76752 1.01231 0.78454 0.0
C2511 C 0.77326 1.00533 0.74494 0.0
C2512 C 0.76295 1.00721 0.69586 0.0
C2513 C 0.74697 1.01648 0.68734 0.0
H2514 H 0.77582 0.76776 0.9569 0.0
H2515 H 0.68662 0.76474 0.97389 0.0
H2516 H 0.68595 0.78095 0.02464 0.0
H2517 H 0.78976 0.77724 0.0802 0.0
H2518 H 0.81641 0.78634 0.06098 0.0
H2519 H 0.81001 0.77463 0.02469 0.0
H2520 H 0.80242 0.78603 0.94524 0.0
H2521 H 0.80883 0.79779 0.98127 0.0
H2522 H 0.77703 0.79647 0.94637 0.0
H2523 H 0.69489 0.79729 0.07573 0.0
H2524 H 0.71258 0.81252 0.12294 0.0
H2525 H 0.7961 0.80549 0.07261 0.0
C2526 C 0.75601 0.77054 0.97049 0.0
C2527 C 0.7312 0.76481 0.9609 0.0
C2528 C 0.70596 0.76879 0.98071 0.0
C2529 C 0.70535 0.77807 0.00951 0.0
C2530 C 0.73012 0.78343 0.01836 0.0
C2531 C 0.755 0.77984 0.99931 0.0
C2532 C 0.77873 0.78702 0.01526 0.0
C2533 C 0.79998 0.78094 0.04718 0.0
C2534 C 0.79257 0.79213 0.96929 0.0
C2535 C 0.76334 0.79517 0.04654 0.0
C2536 C 0.7353 0.79292 0.04771 0.0
C2537 C 0.7168 0.79911 0.07497 0.0
C2538 C 0.72713 0.80774 0.10202 0.0
C2539 C 0.75581 0.81024 0.10199 0.0
C2540 C 0.77407 0.80388 0.0732 0.0
H2541 H 0.1652 0.54423 0.73591 0.0
H2542 H 0.22022 0.54874 0.86288 0.0
H2543 H 0.2473 0.53315 0.83654 0.0
H2544 H 0.16354 0.51603 0.74088 0.0
H2545 H 0.16282 0.51449 0.67366 0.0
H2546 H 0.14841 0.52615 0.70196 0.0
H2547 H 0.1803 0.53779 0.64675 0.0
H2548 H 0.19483 0.52617 0.6183 0.0
H2549 H 0.21725 0.53566 0.64792 0.0
H2550 H 0.26797 0.51641 0.79631 0.0
H2551 H 0.27966 0.50051 0.74712 0.0
H2552 H 0.21113 0.50726 0.6465 0.0
C2553 C 0.18278 0.54196 0.75864 0.0
C2554 C 0.19032 0.54783 0.80186 0.0
C2555 C 0.21395 0.54453 0.8295 0.0
C2556 C 0.22947 0.53562 0.81487 0.0
C2557 C 0.22131 0.53001 0.77228 0.0
C2558 C 0.19849 0.5331 0.74457 0.0
C2559 C 0.19383 0.52575 0.70047 0.0
C2560 C 0.16547 0.52028 0.70451 0.0
C2561 C 0.19673 0.5317 0.6504 0.0
C2562 C 0.2174 0.51796 0.70782 0.0
C2563 C 0.23312 0.52054 0.74932 0.0
C2564 C 0.2558 0.51438 0.76363 0.0
C2565 C 0.26241 0.50534 0.73514 0.0
C2566 C 0.24643 0.50247 0.69257 0.0
C2567 C 0.22375 0.50902 0.67892 0.0
H2568 H 0.98201 0.50284 0.54577 0.0
H2569 H 0.99008 0.51571 0.6956 0.0
H2570 H 0.00729 0.53247 0.65989 0.0
H2571 H 0.04384 0.51433 0.49671 0.0
H2572 H 0.02975 0.51692 0.43527 0.0
H2573 H 0.01641 0.50617 0.47229 0.0
H2574 H 0.9668 0.51382 0.46477 0.0
H2575 H 0.97997 0.52457 0.42748 0.0
H2576 H 0.96032 0.52724 0.48361 0.0
H2577 H 0.02449 0.54789 0.60746 0.0
H2578 H 0.04158 0.56036 0.54291 0.0
H2579 H 0.02349 0.53737 0.42726 0.0
C2580 C 0.98698 0.50925 0.57096 0.0
C2581 C 0.98453 0.50795 0.62362 0.0
C2582 C 0.99187 0.51648 0.65527 0.0
C2583 C 0.00158 0.52605 0.63527 0.0
C2584 C 0.0041 0.52703 0.58333 0.0
C2585 C -0.00294 0.51885 0.55157 0.0
C2586 C 0.00282 0.52179 0.49726 0.0
C2587 C 0.0245 0.51436 0.47403 0.0
C2588 C 0.97587 0.52186 0.46647 0.0
C2589 C 0.01431 0.53287 0.50346 0.0
C2590 C 0.01465 0.53578 0.55336 0.0
C2591 C 0.02428 0.54568 0.56826 0.0
C2592 C 0.03388 0.55274 0.5313 0.0
C2593 C 0.03411 0.54989 0.47991 0.0
C2594 C 0.02405 0.53978 0.46616 0.0
H2595 H 0.2902 0.79542 0.51271 0.0
H2596 H 0.22293 0.79832 0.61948 0.0
H2597 H 0.1985 0.78351 0.57871 0.0
H2598 H 0.24826 0.78759 0.4035 0.0
H2599 H 0.27339 0.77817 0.38126 0.0
H2600 H 0.28461 0.78958 0.41594 0.0
H2601 H 0.30967 0.77748 0.47979 0.0
H2602 H 0.29852 0.76605 0.44533 0.0
H2603 H 0.29042 0.76722 0.51114 0.0
H2604 H 0.18174 0.76819 0.5279 0.0
H2605 H 0.17471 0.75277 0.47397 0.0
H2606 H 0.25423 0.75868 0.40238 0.0
C2607 C 0.27012 0.79301 0.52674 0.0
C2608 C 0.25825 0.79806 0.56898 0.0
C2609 C 0.23226 0.79455 0.58717 0.0
C2610 C 0.21823 0.78617 0.56414 0.0
C2611 C 0.23055 0.78124 0.52307 0.0
C2612 C 0.25599 0.78446 0.50462 0.0
C2613 C 0.26531 0.7773 0.46202 0.0
C2614 C 0.26805 0.78353 0.41276 0.0
C2615 C 0.29259 0.77168 0.47539 0.0
C2616 C 0.24124 0.76956 0.4597 0.0
C2617 C 0.22133 0.77208 0.49491 0.0
C2618 C 0.19728 0.76611 0.50033 0.0
C2619 C 0.19358 0.75726 0.46949 0.0
C2620 C 0.21394 0.75425 0.43371 0.0
C2621 C 0.23801 0.76065 0.42874 0.0
H2622 H 0.748 0.52582 0.15464 0.0
H2623 H 0.7956 0.50865 0.26626 0.0
H2624 H 0.78895 0.52329 0.32597 0.0
H2625 H 0.77293 0.55196 0.18734 0.0
H2626 H 0.73988 0.5582 0.17652 0.0
H2627 H 0.74922 0.54654 0.14194 0.0
H2628 H 0.70432 0.53739 0.17257 0.0
H2629 H 0.69495 0.549 0.20753 0.0
H2630 H 0.69745 0.53644 0.23895 0.0
H2631 H 0.7753 0.53948 0.37512 0.0
H2632 H 0.75817 0.55631 0.40863 0.0
H2633 H 0.71957 0.56333 0.26526 0.0
C2634 C 0.75707 0.52511 0.1916 0.0
C2635 C 0.77241 0.51599 0.20545 0.0
C2636 C 0.78413 0.51553 0.25419 0.0
C2637 C 0.78025 0.52381 0.28862 0.0
C2638 C 0.76468 0.53257 0.27393 0.0
C2639 C 0.75346 0.53332 0.22643 0.0
C2640 C 0.73751 0.5436 0.22018 0.0
C2641 C 0.75068 0.55048 0.17905 0.0
C2642 C 0.70673 0.54147 0.20916 0.0
C2643 C 0.74131 0.54848 0.27177 0.0
C2644 C 0.75704 0.54196 0.30212 0.0
C2645 C 0.76319 0.54467 0.35147 0.0
C2646 C 0.75341 0.55433 0.37014 0.0
C2647 C 0.73762 0.56131 0.33973 0.0
C2648 C 0.73135 0.55822 0.28983 0.0
H2649 H 0.79997 0.30102 0.50442 0.0
H2650 H 0.74579 0.30346 0.6339 0.0
H2651 H 0.71618 0.28932 0.59864 0.0
H2652 H 0.74693 0.29618 0.41268 0.0
H2653 H 0.76792 0.28709 0.37722 0.0
H2654 H 0.78414 0.2975 0.41244 0.0
H2655 H 0.81414 0.28376 0.45974 0.0
H2656 H 0.79808 0.27331 0.4246 0.0
H2657 H 0.79745 0.27303 0.49222 0.0
H2658 H 0.69353 0.27403 0.54911 0.0
H2659 H 0.67958 0.25994 0.4901 0.0
H2660 H 0.74924 0.26782 0.3942 0.0
C2661 C 0.78207 0.29857 0.5259 0.0
C2662 C 0.77553 0.30335 0.57254 0.0
C2663 C 0.75133 0.29999 0.59821 0.0
C2664 C 0.73442 0.29191 0.57846 0.0
C2665 C 0.7418 0.2873 0.5327 0.0
C2666 C 0.76503 0.29058 0.50674 0.0
C2667 C 0.76872 0.28442 0.45844 0.0
C2668 C 0.76681 0.29173 0.41248 0.0
C2669 C 0.79623 0.27827 0.4588 0.0
C2670 C 0.74406 0.27705 0.46119 0.0
C2671 C 0.72873 0.27879 0.50426 0.0
C2672 C 0.7054 0.27269 0.51523 0.0
C2673 C 0.69766 0.26465 0.48152 0.0
C2674 C 0.71307 0.26275 0.43703 0.0
C2675 C 0.73655 0.26913 0.42708 0.0
H2676 H 0.47654 0.2862 0.66184 0.0
H2677 H 0.43962 0.30635 0.77538 0.0
H2678 H 0.45448 0.29383 0.84092 0.0
H2679 H 0.4567 0.26154 0.71864 0.0
H2680 H 0.48822 0.25485 0.70111 0.0
H2681 H 0.47534 0.26553 0.66309 0.0
H2682 H 0.52237 0.27517 0.67229 0.0
H2683 H 0.53532 0.26454 0.71059 0.0
H2684 H 0.53578 0.27785 0.7341 0.0
H2685 H 0.47247 0.27887 0.8945 0.0
H2686 H 0.49153 0.26259 0.9317 0.0
H2687 H 0.51632 0.25184 0.78391 0.0
C2688 C 0.47131 0.28801 0.70032 0.0
C2689 C 0.45677 0.29741 0.71294 0.0
C2690 C 0.45092 0.29937 0.76428 0.0
C2691 C 0.45922 0.29225 0.80194 0.0
C2692 C 0.47345 0.28312 0.78807 0.0
C2693 C 0.47942 0.28097 0.73847 0.0
C2694 C 0.49465 0.2705 0.7336 0.0
C2695 C 0.47771 0.26264 0.70225 0.0
C2696 C 0.52376 0.27211 0.71132 0.0
C2697 C 0.49623 0.26707 0.78822 0.0
C2698 C 0.48388 0.27449 0.81895 0.0
C2699 C 0.48219 0.27303 0.8707 0.0
C2700 C 0.49303 0.26372 0.89152 0.0
C2701 C 0.50553 0.2559 0.86096 0.0
C2702 C 0.50735 0.25771 0.8085 0.0
H2703 H 0.49842 0.0419 0.40353 0.0
H2704 H 0.50629 0.065 0.52245 0.0
H2705 H 0.48792 0.05219 0.58332 0.0
H2706 H 0.4347 1.02985 0.44808 0.0
H2707 H 0.44471 1.01658 0.43221 0.0
H2708 H 0.45832 1.02753 0.39679 0.0
H2709 H 0.50838 1.02133 0.41565 0.0
H2710 H 0.49491 1.01033 0.45083 0.0
H2711 H 0.51894 1.01931 0.47985 0.0
H2712 H 0.46766 0.03732 0.63137 0.0
H2713 H 0.45022 1.02065 0.66595 0.0
H2714 H 0.45662 1.00621 0.51873 0.0
C2715 C 0.49629 0.04421 0.44242 0.0
C2716 C 0.50418 0.05447 0.4582 0.0
C2717 C 0.50105 0.05717 0.5095 0.0
C2718 C 0.49033 0.04996 0.54437 0.0
C2719 C 0.48282 0.03996 0.52779 0.0
C2720 C 0.48587 0.03699 0.47823 0.0
C2721 C 0.47682 1.02557 0.47127 0.0
C2722 C 0.45217 1.02485 0.43492 0.0
C2723 C 0.50122 1.01873 0.45334 0.0
C2724 C 0.46818 1.02265 0.52458 0.0
C2725 C 0.47166 1.03116 0.55624 0.0
C2726 C 0.46511 1.03057 0.60704 0.0
C2727 C 0.4553 1.021 0.62644 0.0
C2728 C 0.45227 1.01197 0.59555 0.0
C2729 C 0.45848 1.01292 0.54353 0.0
H2730 H 0.53123 0.81135 0.19503 0.0
H2731 H 0.45465 0.79887 0.13466 0.0
H2732 H 0.46201 0.78232 0.1828 0.0
H2733 H 0.57045 0.78715 0.19538 0.0
H2734 H 0.58765 0.79004 0.25379 0.0
H2735 H 0.57658 0.80063 0.21343 0.0
H2736 H 0.54833 0.80873 0.2866 0.0
H2737 H 0.55934 0.79817 0.32721 0.0
H2738 H 0.5229 0.80077 0.31865 0.0
H2739 H 0.47893 0.76687 0.23719 0.0
H2740 H 0.50134 0.7547 0.29757 0.0
H2741 H 0.56584 0.77777 0.3242 0.0
C2742 C 0.51615 0.80509 0.19138 0.0
C2743 C 0.49251 0.80635 0.16044 0.0
C2744 C 0.4729 0.79807 0.15799 0.0
C2745 C 0.47701 0.78864 0.18505 0.0
C2746 C 0.50068 0.78765 0.21494 0.0
C2747 C 0.51975 0.79573 0.21858 0.0
C2748 C 0.54289 0.79294 0.25478 0.0
C2749 C 0.57106 0.79267 0.22771 0.0
C2750 C 0.54338 0.80061 0.29946 0.0
C2751 C 0.53401 0.78201 0.27101 0.0
C2752 C 0.50978 0.77903 0.24727 0.0
C2753 C 0.49786 0.76917 0.25597 0.0
C2754 C 0.51085 0.76227 0.29011 0.0
C2755 C 0.53535 0.76527 0.31573 0.0
C2756 C 0.54702 0.77528 0.30562 0.0
H2757 H 0.48485 0.52906 0.1029 0.0
H2758 H 0.44231 0.50904 0.99569 0.0
H2759 H 0.45486 0.52137 0.92781 0.0
H2760 H 0.46734 0.55424 0.04483 0.0
H2761 H 0.50066 0.55999 0.05828 0.0
H2762 H 0.48667 0.54998 0.0991 0.0
H2763 H 0.53112 0.5388 0.08698 0.0
H2764 H 0.54519 0.54875 0.04599 0.0
H2765 H 0.54207 0.53535 0.02442 0.0
H2766 H 0.47415 0.53545 0.8705 0.0
H2767 H 0.49729 0.55028 0.8286 0.0
H2768 H 0.52906 0.56098 0.97221 0.0
C2769 C 0.47805 0.52722 0.06527 0.0
C2770 C 0.46247 0.51796 0.05516 0.0
C2771 C 0.45386 0.51606 1.00507 0.0
C2772 C 0.46109 0.52302 0.96601 0.0
C2773 C 0.47691 0.53191 0.97731 0.0
C2774 C 0.48517 0.53406 0.02579 0.0
C2775 C 0.50274 0.544 0.02767 0.0
C2776 C 0.48849 0.55256 0.05935 0.0
C2777 C 0.53201 0.54158 0.04743 0.0
C2778 C 0.50339 0.54705 0.97252 0.0
C2779 C 0.48826 0.53997 0.94423 0.0
C2780 C 0.48606 0.54102 0.89237 0.0
C2781 C 0.4996 0.54948 0.86877 0.0
C2782 C 0.51543 0.55687 0.89669 0.0
C2783 C 0.51712 0.55558 0.94952 0.0
H2784 H 0.1135 0.23225 0.48705 0.0
H2785 H 0.04899 0.21152 0.54314 0.0
H2786 H 0.06231 0.21565 0.62992 0.0
H2787 H 0.16432 0.22588 0.58498 0.0
H2788 H 0.17726 0.23918 0.58828 0.0
H2789 H 0.16315 0.23426 0.53032 0.0
H2790 H 0.12883 0.24999 0.52828 0.0
H2791 H 0.14243 0.2548 0.58689 0.0
H2792 H 0.10589 0.25212 0.58076 0.0
H2793 H 0.08133 0.22234 0.71103 0.0
H2794 H 0.10906 0.22954 0.78096 0.0
H2795 H 0.16078 0.24617 0.67352 0.0
C2796 C 0.10262 0.22844 0.51764 0.0
C2797 C 0.0802 0.22157 0.50827 0.0
C2798 C 0.06618 0.21684 0.54936 0.0
C2799 C 0.07349 0.21917 0.59891 0.0
C2800 C 0.09493 0.22625 0.60708 0.0
C2801 C 0.10962 0.23071 0.56775 0.0
C2802 C 0.13194 0.23802 0.58739 0.0
C2803 C 0.16088 0.2341 0.57183 0.0
C2804 C 0.12696 0.24941 0.56977 0.0
C2805 C 0.12742 0.23693 0.64358 0.0
C2806 C 0.10584 0.23016 0.65412 0.0
C2807 C 0.09826 0.22769 0.70334 0.0
C2808 C 0.11393 0.23191 0.7429 0.0
C2809 C 0.13697 0.23849 0.73291 0.0
C2810 C 0.14313 0.24125 0.68255 0.0
H2811 H 0.11661 0.09236 0.48127 0.0
H2812 H 0.19334 0.07846 0.53491 0.0
H2813 H 0.17333 0.0766 0.61928 0.0
H2814 H 0.1041 0.10766 0.58707 0.0
H2815 H 0.067 0.106 0.58754 0.0
H2816 H 0.08583 0.10498 0.52947 0.0
H2817 H 0.06529 0.08638 0.51472 0.0
H2818 H 0.04628 0.08736 0.57281 0.0
H2819 H 0.06928 0.07638 0.56232 0.0
H2820 H 0.1474 0.07809 0.70009 0.0
H2821 H 0.11643 0.08264 0.77103 0.0
H2822 H 0.05638 0.09522 0.66537 0.0
C2823 C 0.12886 0.08868 0.51052 0.0
C2824 C 0.15648 0.08555 0.50149 0.0
C2825 C 0.17213 0.08097 0.54096 0.0
C2826 C 0.16093 0.07981 0.58908 0.0
C2827 C 0.13394 0.08323 0.5973 0.0
C2828 C 0.11799 0.0875 0.55912 0.0
C2829 C 0.09032 0.09127 0.5791 0.0
C2830 C 0.08662 0.10318 0.57028 0.0
C2831 C 0.06638 0.08497 0.55585 0.0
C2832 C 0.09368 0.08875 0.63442 0.0
C2833 C 0.11886 0.08402 0.64413 0.0
C2834 C 0.12736 0.08162 0.69294 0.0
C2835 C 0.1097 0.08424 0.733 0.0
C2836 C 0.08394 0.08921 0.72382 0.0
C2837 C 0.07579 0.09131 0.67375 0.0
H2838 H 0.82443 0.84282 0.3412 0.0
H2839 H 0.87803 0.82557 0.23942 0.0
H2840 H 0.90448 0.81875 0.31266 0.0
H2841 H 0.87617 0.85122 0.4225 0.0
H2842 H 0.85512 0.85027 0.47825 0.0
H2843 H 0.83903 0.8526 0.41843 0.0
H2844 H 0.80795 0.83617 0.43185 0.0
H2845 H 0.82429 0.83372 0.49157 0.0
H2846 H 0.82379 0.82357 0.44433 0.0
H2847 H 0.92754 0.81535 0.39702 0.0
H2848 H 0.94752 0.81689 0.48199 0.0
H2849 H 0.87817 0.83627 0.528 0.0
C2850 C 0.84146 0.83747 0.33396 0.0
C2851 C 0.84904 0.83468 0.2843 0.0
C2852 C 0.87175 0.82778 0.27698 0.0
C2853 C 0.88675 0.82384 0.31843 0.0
C2854 C 0.87866 0.82682 0.36688 0.0
C2855 C 0.85655 0.83353 0.37461 0.0
C2856 C 0.85333 0.83634 0.42965 0.0
C2857 C 0.85609 0.84831 0.43765 0.0
C2858 C 0.82569 0.8322 0.45057 0.0
C2859 C 0.87763 0.83041 0.45198 0.0
C2860 C 0.89173 0.82482 0.41528 0.0
C2861 C 0.91632 0.81952 0.42604 0.0
C2862 C 0.92741 0.82037 0.47458 0.0
C2863 C 0.91401 0.82646 0.512 0.0
C2864 C 0.88827 0.8312 0.50094 0.0
H2865 H 0.8087 0.97729 0.42261 0.0
H2866 H 0.87245 0.98645 0.5288 0.0
H2867 H 0.9041 0.99039 0.45768 0.0
H2868 H 0.85337 0.96403 0.33871 0.0
H2869 H 0.83468 0.96798 0.28321 0.0
H2870 H 0.81671 0.96671 0.34213 0.0
H2871 H 0.7993 0.98597 0.33427 0.0
H2872 H 0.81729 0.98732 0.27531 0.0
H2873 H 0.82404 0.99646 0.32554 0.0
H2874 H 0.92868 0.9929 0.37481 0.0
H2875 H 0.94599 0.99261 0.28803 0.0
H2876 H 0.86626 0.98107 0.2363 0.0
C2877 C 0.82919 0.98027 0.43115 0.0
C2878 C 0.83806 0.9817 0.48131 0.0
C2879 C 0.86523 0.98537 0.49068 0.0
C2880 C 0.88324 0.98765 0.45054 0.0
C2881 C 0.87374 0.98613 0.40152 0.0
C2882 C 0.8474 0.98244 0.3918 0.0
C2883 C 0.84266 0.98083 0.33608 0.0
C2884 C 0.8365 0.9692 0.32437 0.0
C2885 C 0.81945 0.98808 0.31667 0.0
C2886 C 0.8706 0.98413 0.31564 0.0
C2887 C 0.88809 0.98727 0.35399 0.0
C2888 C 0.91514 0.99047 0.3446 0.0
C2889 C 0.92475 0.99028 0.29499 0.0
C2890 C 0.90748 0.9868 0.25517 0.0
C2891 C 0.87989 0.98383 0.26574 0.0
H2892 H 0.1171 0.71982 0.01412 0.0
H2893 H 0.07109 0.74831 0.04619 0.0
H2894 H 0.08872 0.74817 0.13316 0.0
H2895 H 0.10225 0.7073 0.12264 0.0
H2896 H 0.1353 0.70099 0.13242 0.0
H2897 H 0.12443 0.70441 0.06991 0.0
H2898 H 0.16887 0.71546 0.05614 0.0
H2899 H 0.18049 0.71176 0.11799 0.0
H2900 H 0.17805 0.72549 0.10101 0.0
H2901 H 0.10426 0.74303 0.22093 0.0
H2902 H 0.12365 0.73496 0.29839 0.0
H2903 H 0.15936 0.70989 0.20878 0.0
C2904 C 0.11226 0.72639 0.03852 0.0
C2905 C 0.09344 0.73427 0.02298 0.0
C2906 C 0.08618 0.7424 0.05696 0.0
C2907 C 0.0958 0.74229 0.10669 0.0
C2908 C 0.11279 0.73401 0.12197 0.0
C2909 C 0.12163 0.72636 0.08851 0.0
C2910 C 0.13803 0.71786 0.11537 0.0
C2911 C 0.12416 0.70701 0.10973 0.0
C2912 C 0.16815 0.71763 0.09651 0.0
C2913 C 0.13634 0.72176 0.16909 0.0
C2914 C 0.12167 0.73107 0.17233 0.0
C2915 C 0.11624 0.73583 0.21868 0.0
C2916 C 0.12697 0.73113 0.26258 0.0
C2917 C 0.14301 0.72182 0.25966 0.0
C2918 C 0.14732 0.71706 0.21225 0.0
H2919 H 0.08697 0.56795 0.2283 0.0
H2920 H 0.09396 0.60149 0.25397 0.0
H2921 H 0.10498 0.60423 0.1641 0.0
H2922 H 0.14366 0.56632 0.1319 0.0
H2923 H 0.12513 0.55632 0.09763 0.0
H2924 H 0.12133 0.55724 0.16473 0.0
H2925 H 0.06812 0.55858 0.15286 0.0
H2926 H 0.07183 0.55818 0.08566 0.0
H2927 H 0.05397 0.56904 0.11485 0.0
H2928 H 0.10814 0.60336 0.0684 0.0
H2929 H 0.11527 0.59862 0.97937 0.0
H2930 H 0.10829 0.56553 0.01779 0.0
C2931 C 0.09229 0.57579 0.2154 0.0
C2932 C 0.09041 0.58448 0.24813 0.0
C2933 C 0.09625 0.59471 0.22977 0.0
C2934 C 0.10201 0.59634 0.17858 0.0
C2935 C 0.10214 0.58763 0.14662 0.0
C2936 C 0.09845 0.57751 0.16473 0.0
C2937 C 0.09923 0.56949 0.12276 0.0
C2938 C 0.1238 0.5619 0.12965 0.0
C2939 C 0.07164 0.56347 0.11884 0.0
C2940 C 0.10343 0.57667 0.078 0.0
C2941 C 0.10462 0.58712 0.09228 0.0
C2942 C 0.10767 0.59518 0.05699 0.0
C2943 C 0.1113 0.59242 0.00628 0.0
C2944 C 0.11235 0.58171 0.99159 0.0
C2945 C 0.10738 0.57379 0.02785 0.0
H2946 H 0.92127 0.34967 0.96543 0.0
H2947 H 0.89388 0.32141 0.0425 0.0
H2948 H 0.87639 0.31433 0.9616 0.0
H2949 H 0.86286 0.35178 0.88392 0.0
H2950 H 0.88289 0.35684 0.8321 0.0
H2951 H 0.89411 0.35917 0.89548 0.0
H2952 H 0.94173 0.35079 0.87392 0.0
H2953 H 0.93027 0.34821 0.81077 0.0
H2954 H 0.94304 0.33758 0.84933 0.0
H2955 H 0.86132 0.31063 0.87243 0.0
H2956 H 0.84316 0.31163 0.78606 0.0
H2957 H 0.88029 0.34247 0.76758 0.0
C2958 C 0.91169 0.34196 0.96537 0.0
C2959 C 0.90909 0.33602 0.01017 0.0
C2960 C 0.89599 0.32607 0.00865 0.0
C2961 C 0.8863 0.32197 0.9628 0.0
C2962 C 0.88977 0.32796 0.91913 0.0
C2963 C 0.90172 0.33783 0.92029 0.0
C2964 C 0.90128 0.34304 0.86901 0.0
C2965 C 0.88427 0.35331 0.87022 0.0
C2966 C 0.93085 0.34502 0.84963 0.0
C2967 C 0.88691 0.3346 0.83852 0.0
C2968 C 0.88084 0.3259 0.868 0.0
C2969 C 0.86615 0.31736 0.84905 0.0
C2970 C 0.85611 0.31797 0.79976 0.0
C2971 C 0.8606 0.32707 0.76992 0.0
C2972 C 0.87721 0.3353 0.78892 0.0
H2973 H 0.80373 0.47835 0.9459 0.0
H2974 H 0.86956 0.49339 0.03022 0.0
H2975 H 0.89665 0.49542 0.95144 0.0
H2976 H 0.84715 0.46307 0.87164 0.0
H2977 H 0.82561 0.46373 0.81646 0.0
H2978 H 0.81027 0.465 0.87764 0.0
H2979 H 0.78875 0.48289 0.85115 0.0
H2980 H 0.80442 0.48174 0.78995 0.0
H2981 H 0.81092 0.49323 0.8278 0.0
H2982 H 0.91758 0.49454 0.86495 0.0
H2983 H 0.93385 0.48861 0.78184 0.0
H2984 H 0.855 0.4734 0.755 0.0
C2985 C 0.82359 0.4823 0.94777 0.0
C2986 C 0.8344 0.4859 0.99403 0.0
C2987 C 0.86085 0.49067 0.9951 0.0
C2988 C 0.8762 0.49192 0.9505 0.0
C2989 C 0.86483 0.48827 0.90546 0.0
C2990 C 0.83925 0.48343 0.90402 0.0
C2991 C 0.83299 0.47902 0.8524 0.0
C2992 C 0.82878 0.467 0.85469 0.0
C2993 C 0.80777 0.48455 0.82895 0.0
C2994 C 0.85941 0.48189 0.82493 0.0
C2995 C 0.87719 0.48746 0.85591 0.0
C2996 C 0.90365 0.49033 0.84024 0.0
C2997 C 0.91264 0.48701 0.79283 0.0
C2998 C 0.89534 0.48082 0.76171 0.0
C2999 C 0.86812 0.47849 0.77728 0.0
H3000 H 0.61605 0.22354 0.01587 0.0
H3001 H 0.53391 0.21373 0.06331 0.0
H3002 H 0.54709 0.21613 0.15155 0.0
H3003 H 0.65221 0.2103 0.11283 0.0
H3004 H 0.67806 0.22039 0.12109 0.0
H3005 H 0.66145 0.21879 0.06115 0.0
H3006 H 0.64633 0.2384 0.06283 0.0
H3007 H 0.66282 0.24003 0.12299 0.0
H3008 H 0.62669 0.24329 0.11547 0.0
H3009 H 0.56997 0.21855 0.23631 0.0
H3010 H 0.60199 0.2201 0.30904 0.0
H3011 H 0.66858 0.22836 0.20678 0.0
C3012 C 0.60078 0.22204 0.04481 0.0
C3013 C 0.57396 0.21844 0.03234 0.0
C3014 C 0.55468 0.21645 0.07158 0.0
C3015 C 0.56187 0.21784 0.12208 0.0
C3016 C 0.5885 0.22127 0.13329 0.0
C3017 C 0.60768 0.22334 0.09579 0.0
C3018 C 0.6354 0.22633 0.11827 0.0
C3019 C 0.65811 0.21849 0.1024 0.0
C3020 C 0.64326 0.23769 0.10404 0.0
C3021 C 0.62887 0.22541 0.17387 0.0
C3022 C 0.60164 0.2226 0.18198 0.0
C3023 C 0.59132 0.22086 0.23046 0.0
C3024 C 0.60954 0.2218 0.27161 0.0
C3025 C 0.63772 0.22436 0.26375 0.0
C3026 C 0.64713 0.22639 0.21423 0.0
H3027 H 0.66479 0.09891 0.09073 0.0
H3028 H 0.62399 0.07184 0.02496 0.0
H3029 H 0.60033 0.06839 0.10621 0.0
H3030 H 0.67615 0.08839 0.21308 0.0
H3031 H 0.66864 0.10053 0.24538 0.0
H3032 H 0.68238 0.10084 0.18249 0.0
H3033 H 0.64067 0.1121 0.15248 0.0
H3034 H 0.6273 0.11208 0.21555 0.0
H3035 H 0.60592 0.10754 0.16454 0.0
H3036 H 0.58235 0.06773 0.19582 0.0
H3037 H 0.56458 0.07173 0.28081 0.0
H3038 H 0.61611 0.09959 0.28675 0.0
C3039 C 0.65064 0.09231 0.09332 0.0
C3040 C 0.64614 0.08562 0.05172 0.0
C3041 C 0.62743 0.07711 0.05629 0.0
C3042 C 0.61424 0.07503 0.10244 0.0
C3043 C 0.61984 0.0816 0.14325 0.0
C3044 C 0.63708 0.09023 0.13866 0.0
C3045 C 0.63854 0.09644 0.18716 0.0
C3046 C 0.6682 0.09655 0.20826 0.0
C3047 C 0.62743 0.1077 0.17947 0.0
C3048 C 0.6194 0.08998 0.22009 0.0
C3049 C 0.60921 0.08134 0.19432 0.0
C3050 C 0.59039 0.07441 0.21637 0.0
C3051 C 0.58072 0.07665 0.26491 0.0
C3052 C 0.58982 0.08573 0.29085 0.0
C3053 C 0.60983 0.09235 0.26857 0.0
H3054 H 0.37894 0.83663 0.97971 0.0
H3055 H 0.45524 0.82076 0.93952 0.0
H3056 H 0.43759 0.81789 0.85359 0.0
H3057 H 0.33136 0.82073 0.89696 0.0
H3058 H 0.31101 0.83221 0.8817 0.0
H3059 H 0.32771 0.83123 0.94202 0.0
H3060 H 0.35201 0.84911 0.92578 0.0
H3061 H 0.33586 0.85006 0.86514 0.0
H3062 H 0.37307 0.85072 0.87037 0.0
H3063 H 0.41382 0.81893 0.76773 0.0
H3064 H 0.38476 0.82295 0.6929 0.0
H3065 H 0.32509 0.83843 0.79007 0.0
C3066 C 0.39128 0.83209 0.95351 0.0
C3067 C 0.41816 0.82867 0.96664 0.0
C3068 C 0.43434 0.82324 0.93047 0.0
C3069 C 0.42455 0.82163 0.88143 0.0
C3070 C 0.39846 0.82552 0.86877 0.0
C3071 C 0.38189 0.83052 0.90405 0.0
C3072 C 0.35586 0.83484 0.87983 0.0
C3073 C 0.32995 0.82943 0.90141 0.0
C3074 C 0.35412 0.84689 0.88563 0.0
C3075 C 0.36068 0.83172 0.82556 0.0
C3076 C 0.38521 0.82628 0.81966 0.0
C3077 C 0.39434 0.82307 0.77211 0.0
C3078 C 0.37782 0.82541 0.72971 0.0
C3079 C 0.35258 0.83098 0.73522 0.0
C3080 C 0.34415 0.83411 0.78404 0.0
H3081 H 0.35683 0.96028 0.9913 0.0
H3082 H 0.31963 0.99129 0.98943 0.0
H3083 H 0.33631 0.994 0.9024 0.0
H3084 H 0.41858 0.96692 0.90891 0.0
H3085 H 0.41711 0.95412 0.87986 0.0
H3086 H 0.40664 0.95569 0.94435 0.0
H3087 H 0.35936 0.94722 0.92259 0.0
H3088 H 0.36909 0.94602 0.85767 0.0
H3089 H 0.33802 0.95308 0.87452 0.0
H3090 H 0.35001 0.99186 0.81035 0.0
H3091 H 0.36773 0.98645 0.72666 0.0
H3092 H 0.39621 0.95694 0.79051 0.0
C3093 C 0.35377 0.96788 0.97356 0.0
C3094 C 0.33797 0.97575 0.99745 0.0
C3095 C 0.33279 0.98537 0.97229 0.0
C3096 C 0.34177 0.98689 0.92259 0.0
C3097 C 0.35602 0.97872 0.89892 0.0
C3098 C 0.36275 0.96952 0.92419 0.0
C3099 C 0.37661 0.96166 0.88965 0.0
C3100 C 0.40651 0.95947 0.9067 0.0
C3101 C 0.35975 0.95139 0.88592 0.0
C3102 C 0.37595 0.96772 0.84073 0.0
C3103 C 0.36387 0.97752 0.84652 0.0
C3104 C 0.35991 0.98427 0.80563 0.0
C3105 C 0.36961 0.98108 0.75812 0.0
C3106 C 0.38319 0.97128 0.75224 0.0
C3107 C 0.3859 0.96449 0.79399 0.0
H3108 H 0.62947 0.72466 0.53792 0.0
H3109 H 0.56541 0.74741 0.57379 0.0
H3110 H 0.58395 0.74915 0.65953 0.0
H3111 H 0.62783 0.71146 0.65298 0.0
H3112 H 0.66462 0.70916 0.65754 0.0
H3113 H 0.64862 0.71056 0.59688 0.0
H3114 H 0.68224 0.72577 0.5745 0.0
H3115 H 0.6987 0.72429 0.63479 0.0
H3116 H 0.68505 0.73692 0.61603 0.0
H3117 H 0.60628 0.74698 0.74504 0.0
H3118 H 0.63427 0.74233 0.82024 0.0
H3119 H 0.68368 0.72121 0.72855 0.0
C3120 C 0.62007 0.73028 0.5633 0.0
C3121 C 0.59621 0.73599 0.549 0.0
C3122 C 0.58385 0.74301 0.58389 0.0
C3123 C 0.59415 0.74403 0.63281 0.0
C3124 C 0.61696 0.73799 0.64663 0.0
C3125 C 0.63009 0.73138 0.61271 0.0
C3126 C 0.65342 0.7254 0.63805 0.0
C3127 C 0.6483 0.71344 0.63624 0.0
C3128 C 0.68152 0.72827 0.61444 0.0
C3129 C 0.65105 0.72958 0.69127 0.0
C3130 C 0.62987 0.73682 0.69567 0.0
C3131 C 0.6232 0.74141 0.7419 0.0
C3132 C 0.63902 0.73869 0.78452 0.0
C3133 C 0.66129 0.73149 0.78037 0.0
C3134 C 0.66703 0.72686 0.73306 0.0
H3135 H 0.60632 0.61282 0.71845 0.0
H3136 H 0.59953 0.57934 0.7471 0.0
H3137 H 0.62177 0.57561 0.66507 0.0
H3138 H 0.59042 0.61259 0.59373 0.0
H3139 H 0.61506 0.62242 0.57392 0.0
H3140 H 0.60197 0.62254 0.63717 0.0
H3141 H 0.65184 0.62158 0.67287 0.0
H3142 H 0.66521 0.62185 0.60971 0.0
H3143 H 0.67495 0.61133 0.65172 0.0
H3144 H 0.63754 0.57579 0.57352 0.0
H3145 H 0.65525 0.5798 0.48792 0.0
H3146 H 0.65478 0.6131 0.52308 0.0
C3147 C 0.6107 0.60472 0.70828 0.0
C3148 C 0.60179 0.59635 0.73905 0.0
C3149 C 0.60693 0.58584 0.72431 0.0
C3150 C 0.6192 0.58366 0.67758 0.0
C3151 C 0.62662 0.59212 0.64685 0.0
C3152 C 0.62346 0.60245 0.66245 0.0
C3153 C 0.6326 0.61014 0.6223 0.0
C3154 C 0.60857 0.61734 0.60583 0.0
C3155 C 0.65765 0.6166 0.64021 0.0
C3156 C 0.64061 0.60256 0.58104 0.0
C3157 C 0.63672 0.59219 0.59549 0.0
C3158 C 0.64115 0.58387 0.56219 0.0
C3159 C 0.6508 0.5862 0.51357 0.0
C3160 C 0.65616 0.59673 0.49936 0.0
C3161 C 0.65078 0.60498 0.53334 0.0
H3162 H 0.36276 0.34184 0.50834 0.0
H3163 H 0.42044 0.31741 0.46374 0.0
H3164 H 0.39912 0.31677 0.3797 0.0
H3165 H 0.30207 0.33243 0.42949 0.0
H3166 H 0.29214 0.34579 0.41488 0.0
H3167 H 0.30821 0.3428 0.47431 0.0
H3168 H 0.34591 0.35682 0.45602 0.0
H3169 H 0.33037 0.3597 0.39623 0.0
H3170 H 0.36628 0.35582 0.39946 0.0
H3171 H 0.37704 0.32083 0.29672 0.0
H3172 H 0.35263 0.32834 0.22299 0.0
H3173 H 0.30955 0.35013 0.32143 0.0
C3174 C 0.36985 0.33601 0.48159 0.0
C3175 C 0.39276 0.32951 0.49257 0.0
C3176 C 0.40254 0.32232 0.45604 0.0
C3177 C 0.39064 0.32192 0.40818 0.0
C3178 C 0.36893 0.32878 0.39741 0.0
C3179 C 0.35828 0.33557 0.43328 0.0
C3180 C 0.3368 0.34285 0.41047 0.0
C3181 C 0.3081 0.34084 0.43366 0.0
C3182 C 0.34537 0.35448 0.41587 0.0
C3183 C 0.33782 0.33932 0.35616 0.0
C3184 C 0.3563 0.33115 0.34934 0.0
C3185 C 0.36207 0.3271 0.30172 0.0
C3186 C 0.34829 0.33144 0.26002 0.0
C3187 C 0.32908 0.33976 0.26641 0.0
C3188 C 0.32386 0.34368 0.31522 0.0
H3189 H 0.36042 0.48142 0.51125 0.0
H3190 H 0.27518 0.48091 0.45973 0.0
H3191 H 0.29004 0.48695 0.37619 0.0
H3192 H 0.38291 0.50476 0.43248 0.0
H3193 H 0.41641 0.49895 0.42072 0.0
H3194 H 0.39865 0.49633 0.47899 0.0
H3195 H 0.40247 0.47627 0.46232 0.0
H3196 H 0.42004 0.47882 0.40406 0.0
H3197 H 0.38895 0.47096 0.40458 0.0
H3198 H 0.31459 0.49008 0.29448 0.0
H3199 H 0.34734 0.49093 0.22279 0.0
H3200 H 0.41619 0.49019 0.32758 0.0
C3201 C 0.34487 0.48297 0.4829 0.0
C3202 C 0.31667 0.48073 0.49207 0.0
C3203 C 0.29695 0.48256 0.45354 0.0
C3204 C 0.30514 0.48603 0.4059 0.0
C3205 C 0.33318 0.48776 0.39721 0.0
C3206 C 0.35275 0.48645 0.4348 0.0
C3207 C 0.38176 0.48792 0.41422 0.0
C3208 C 0.39575 0.49757 0.43802 0.0
C3209 C 0.39932 0.47789 0.42174 0.0
C3210 C 0.37543 0.48982 0.35917 0.0
C3211 C 0.3473 0.4898 0.35005 0.0
C3212 C 0.33669 0.49038 0.30126 0.0
C3213 C 0.3554 0.49085 0.26072 0.0
C3214 C 0.38431 0.49076 0.26937 0.0
C3215 C 0.39422 0.49048 0.31943 0.0
loop_
_geom_bond_atom_site_label_1
_geom_bond_atom_site_label_2
_geom_bond_distance
_geom_bond_site_symmetry_2
_ccdc_geom_bond_type
C0 C1 1.351 . S
C0 N3 1.368 . S
C0 H5 0.931 . S
C1 C0 1.351 . S
C1 N2 1.373 . S
C1 H29 0.930 . S
N2 C1 1.373 . S
N2 C4 1.340 . S
N3 C0 1.368 . S
N3 C4 1.321 . S
N3 Co6 2.135 . S
C4 N2 1.340 . S
C4 N3 1.321 . S
C4 H28 0.930 . S
H5 C0 0.931 . S
Co6 N3 2.135 . S
Co6 N9 2.121 . S
Co6 O14 2.055 . S
Co6 O17 2.039 . S
Co6 N20 2.140 . S
C7 O8 1.227 . S
C7 O17 1.265 . S
O8 C7 1.227 . S
N9 Co6 2.121 . S
N9 C11 1.375 . S
N9 C12 1.313 . S
C10 C11 1.338 . S
C10 N13 1.377 . S
C10 H30 0.930 . S
C11 N9 1.375 . S
C11 C10 1.338 . S
C11 H15 0.931 . S
C12 N9 1.313 . S
C12 N13 1.344 . S
C12 H16 0.930 . S
N13 C10 1.377 . S
N13 C12 1.344 . S
O14 Co6 2.055 . S
O14 C18 1.253 . S
H15 C11 0.931 . S
H16 C12 0.930 . S
O17 Co6 2.039 . S
O17 C7 1.265 . S
C18 O14 1.253 . S
C18 O19 1.227 . S
O19 C18 1.227 . S
N20 Co6 2.140 . S
N20 C23 1.346 . S
N20 C24 1.345 . S
C21 C22 1.387 . S
C21 C25 1.391 . S
C22 C21 1.387 . S
C22 C23 1.369 1_655 S
C22 H31 0.929 . S
C23 N20 1.346 . S
C23 C22 1.369 1_455 S
C23 H26 0.928 . S
C24 N20 1.345 . S
C24 C25 1.371 1_455 S
C24 H27 0.931 . S
C25 C21 1.391 . S
C25 C24 1.371 1_655 S
C25 H32 0.930 . S
H26 C23 0.928 . S
H27 C24 0.931 . S
H28 C4 0.930 . S
H29 C1 0.930 . S
H30 C10 0.930 . S
H31 C22 0.929 . S
H32 C25 0.930 . S
C33 C34 1.351 . S
C33 N36 1.368 . S
C33 H38 0.931 . S
C34 C33 1.351 . S
C34 N35 1.373 . S
C34 H62 0.930 . S
N35 C34 1.373 . S
N35 C37 1.340 . S
N36 C33 1.368 . S
N36 C37 1.321 . S
N36 Co39 2.135 . S
C37 N35 1.340 . S
C37 N36 1.321 . S
C37 H61 0.930 . S
H38 C33 0.931 . S
Co39 N36 2.135 . S
Co39 N42 2.121 . S
Co39 O47 2.055 . S
Co39 O50 2.039 . S
Co39 N53 2.140 . S
C40 O41 1.227 . S
C40 O50 1.265 . S
O41 C40 1.227 . S
N42 Co39 2.121 . S
N42 C44 1.375 . S
N42 C45 1.313 . S
C43 C44 1.338 . S
C43 N46 1.377 . S
C43 H63 0.930 . S
C44 N42 1.375 . S
C44 C43 1.338 . S
C44 H48 0.931 . S
C45 N42 1.313 . S
C45 N46 1.344 . S
C45 H49 0.930 . S
N46 C43 1.377 . S
N46 C45 1.344 . S
O47 Co39 2.055 . S
O47 C51 1.253 . S
H48 C44 0.931 . S
H49 C45 0.930 . S
O50 Co39 2.039 . S
O50 C40 1.265 . S
C51 O47 1.253 . S
C51 O52 1.227 . S
O52 C51 1.227 . S
N53 Co39 2.140 . S
N53 C56 1.346 . S
N53 C57 1.345 . S
C54 C55 1.387 . S
C54 C58 1.391 . S
C55 C54 1.387 . S
C55 C56 1.369 . S
C55 H64 0.929 . S
C56 N53 1.346 . S
C56 C55 1.369 . S
C56 H59 0.928 . S
C57 N53 1.345 . S
C57 C58 1.371 . S
C57 H60 0.931 . S
C58 C54 1.391 . S
C58 C57 1.371 . S
C58 H65 0.930 . S
H59 C56 0.928 . S
H60 C57 0.931 . S
H61 C37 0.930 . S
H62 C34 0.930 . S
H63 C43 0.930 . S
H64 C55 0.929 . S
H65 C58 0.930 . S
C66 C67 1.351 . S
C66 N69 1.368 . S
C66 H71 0.931 . S
C67 C66 1.351 . S
C67 N68 1.373 . S
C67 H95 0.930 . S
N68 C67 1.373 . S
N68 C70 1.340 . S
N69 C66 1.368 . S
N69 C70 1.321 . S
N69 Co72 2.135 . S
C70 N68 1.340 . S
C70 N69 1.321 . S
C70 H94 0.930 . S
H71 C66 0.931 . S
Co72 N69 2.135 . S
Co72 N75 2.121 . S
Co72 O80 2.055 . S
Co72 O83 2.039 . S
Co72 N86 2.140 . S
C73 O74 1.227 . S
C73 O83 1.265 . S
O74 C73 1.227 . S
N75 Co72 2.121 . S
N75 C77 1.375 . S
N75 C78 1.313 . S
C76 C77 1.338 . S
C76 N79 1.377 . S
C76 H96 0.930 . S
C77 N75 1.375 . S
C77 C76 1.338 . S
C77 H81 0.931 . S
C78 N75 1.313 . S
C78 N79 1.344 . S
C78 H82 0.930 . S
N79 C76 1.377 . S
N79 C78 1.344 . S
O80 Co72 2.055 . S
O80 C84 1.253 . S
H81 C77 0.931 . S
H82 C78 0.930 . S
O83 Co72 2.039 . S
O83 C73 1.265 . S
C84 O80 1.253 . S
C84 O85 1.227 . S
O85 C84 1.227 . S
N86 Co72 2.140 . S
N86 C89 1.346 . S
N86 C90 1.345 . S
C87 C88 1.387 . S
C87 C91 1.391 . S
C88 C87 1.387 . S
C88 C89 1.369 1_655 S
C88 H97 0.929 . S
C89 N86 1.346 . S
C89 C88 1.369 1_455 S
C89 H92 0.928 . S
C90 N86 1.345 . S
C90 C91 1.371 1_455 S
C90 H93 0.931 . S
C91 C87 1.391 . S
C91 C90 1.371 1_655 S
C91 H98 0.930 . S
H92 C89 0.928 . S
H93 C90 0.931 . S
H94 C70 0.930 . S
H95 C67 0.930 . S
H96 C76 0.930 . S
H97 C88 0.929 . S
H98 C91 0.930 . S
C99 C100 1.351 . S
C99 N102 1.368 . S
C99 H104 0.931 . S
C100 C99 1.351 . S
C100 N101 1.373 . S
C100 H128 0.930 . S
N101 C100 1.373 . S
N101 C103 1.340 . S
N102 C99 1.368 . S
N102 C103 1.321 . S
N102 Co105 2.135 . S
C103 N101 1.340 . S
C103 N102 1.321 . S
C103 H127 0.930 . S
H104 C99 0.931 . S
Co105 N102 2.135 . S
Co105 N108 2.121 . S
Co105 O113 2.055 . S
Co105 O116 2.039 . S
Co105 N119 2.140 . S
C106 O107 1.227 . S
C106 O116 1.265 . S
O107 C106 1.227 . S
N108 Co105 2.121 . S
N108 C110 1.375 . S
N108 C111 1.313 . S
C109 C110 1.338 . S
C109 N112 1.377 . S
C109 H129 0.930 . S
C110 N108 1.375 . S
C110 C109 1.338 . S
C110 H114 0.931 . S
C111 N108 1.313 . S
C111 N112 1.344 . S
C111 H115 0.930 . S
N112 C109 1.377 . S
N112 C111 1.344 . S
O113 Co105 2.055 . S
O113 C117 1.253 . S
H114 C110 0.931 . S
H115 C111 0.930 . S
O116 Co105 2.039 . S
O116 C106 1.265 . S
C117 O113 1.253 . S
C117 O118 1.227 . S
O118 C117 1.227 . S
N119 Co105 2.140 . S
N119 C122 1.346 . S
N119 C123 1.345 . S
C120 C121 1.387 . S
C120 C124 1.391 . S
C121 C120 1.387 . S
C121 C122 1.369 . S
C121 H130 0.929 . S
C122 N119 1.346 . S
C122 C121 1.369 . S
C122 H125 0.928 . S
C123 N119 1.345 . S
C123 C124 1.371 . S
C123 H126 0.931 . S
C124 C120 1.391 . S
C124 C123 1.371 . S
C124 H131 0.930 . S
H125 C122 0.928 . S
H126 C123 0.931 . S
H127 C103 0.930 . S
H128 C100 0.930 . S
H129 C109 0.930 . S
H130 C121 0.929 . S
H131 C124 0.930 . S
C132 C133 1.351 . S
C132 N135 1.368 . S
C132 H137 0.931 . S
C133 C132 1.351 . S
C133 N134 1.373 . S
C133 H161 0.930 . S
N134 C133 1.373 . S
N134 C136 1.340 . S
N135 C132 1.368 . S
N135 C136 1.321 . S
N135 Co138 2.135 . S
C136 N134 1.340 . S
C136 N135 1.321 . S
C136 H160 0.930 . S
H137 C132 0.931 . S
Co138 N135 2.135 . S
Co138 N141 2.121 . S
Co138 O146 2.055 . S
Co138 O149 2.039 . S
Co138 N152 2.140 . S
C139 O140 1.227 . S
C139 O149 1.265 . S
O140 C139 1.227 . S
N141 Co138 2.121 . S
N141 C143 1.375 . S
N141 C144 1.313 . S
C142 C143 1.338 . S
C142 N145 1.377 . S
C142 H162 0.930 . S
C143 N141 1.375 . S
C143 C142 1.338 . S
C143 H147 0.931 . S
C144 N141 1.313 . S
C144 N145 1.344 . S
C144 H148 0.930 . S
N145 C142 1.377 . S
N145 C144 1.344 . S
O146 Co138 2.055 . S
O146 C150 1.253 . S
H147 C143 0.931 . S
H148 C144 0.930 . S
O149 Co138 2.039 . S
O149 C139 1.265 . S
C150 O146 1.253 . S
C150 O151 1.227 . S
O151 C150 1.227 . S
N152 Co138 2.140 . S
N152 C155 1.346 . S
N152 C156 1.345 . S
C153 C154 1.387 . S
C153 C157 1.391 . S
C154 C153 1.387 . S
C154 C155 1.369 1_455 S
C154 H163 0.929 . S
C155 N152 1.346 . S
C155 C154 1.369 1_655 S
C155 H158 0.928 . S
C156 N152 1.345 . S
C156 C157 1.371 1_655 S
C156 H159 0.931 . S
C157 C153 1.391 . S
C157 C156 1.371 1_455 S
C157 H164 0.930 . S
H158 C155 0.928 . S
H159 C156 0.931 . S
H160 C136 0.930 . S
H161 C133 0.930 . S
H162 C142 0.930 . S
H163 C154 0.929 . S
H164 C157 0.930 . S
C165 C166 1.351 . S
C165 N168 1.368 . S
C165 H170 0.931 . S
C166 C165 1.351 . S
C166 N167 1.373 . S
C166 H194 0.930 . S
N167 C166 1.373 . S
N167 C169 1.340 . S
N168 C165 1.368 . S
N168 C169 1.321 . S
N168 Co171 2.135 . S
C169 N167 1.340 . S
C169 N168 1.321 . S
C169 H193 0.930 . S
H170 C165 0.931 . S
Co171 N168 2.135 . S
Co171 N174 2.121 . S
Co171 O179 2.055 . S
Co171 O182 2.039 . S
Co171 N185 2.140 . S
C172 O173 1.227 . S
C172 O182 1.265 . S
O173 C172 1.227 . S
N174 Co171 2.121 . S
N174 C176 1.375 . S
N174 C177 1.313 . S
C175 C176 1.338 . S
C175 N178 1.377 . S
C175 H195 0.930 . S
C176 N174 1.375 . S
C176 C175 1.338 . S
C176 H180 0.931 . S
C177 N174 1.313 . S
C177 N178 1.344 . S
C177 H181 0.930 . S
N178 C175 1.377 . S
N178 C177 1.344 . S
O179 Co171 2.055 . S
O179 C183 1.253 . S
H180 C176 0.931 . S
H181 C177 0.930 . S
O182 Co171 2.039 . S
O182 C172 1.265 . S
C183 O179 1.253 . S
C183 O184 1.227 . S
O184 C183 1.227 . S
N185 Co171 2.140 . S
N185 C188 1.346 . S
N185 C189 1.345 . S
C186 C187 1.387 . S
C186 C190 1.391 . S
C187 C186 1.387 . S
C187 C188 1.369 . S
C187 H196 0.929 . S
C188 N185 1.346 . S
C188 C187 1.369 . S
C188 H191 0.928 . S
C189 N185 1.345 . S
C189 C190 1.371 . S
C189 H192 0.931 . S
C190 C186 1.391 . S
C190 C189 1.371 . S
C190 H197 0.930 . S
H191 C188 0.928 . S
H192 C189 0.931 . S
H193 C169 0.930 . S
H194 C166 0.930 . S
H195 C175 0.930 . S
H196 C187 0.929 . S
H197 C190 0.930 . S
C198 C199 1.351 . S
C198 N201 1.368 . S
C198 H203 0.931 . S
C199 C198 1.351 . S
C199 N200 1.373 . S
C199 H227 0.930 . S
N200 C199 1.373 . S
N200 C202 1.340 . S
N201 C198 1.368 . S
N201 C202 1.321 . S
N201 Co204 2.135 . S
C202 N200 1.340 . S
C202 N201 1.321 . S
C202 H226 0.930 . S
H203 C198 0.931 . S
Co204 N201 2.135 . S
Co204 N207 2.121 . S
Co204 O212 2.055 . S
Co204 O215 2.039 . S
Co204 N218 2.140 . S
C205 O206 1.227 . S
C205 O215 1.265 . S
O206 C205 1.227 . S
N207 Co204 2.121 . S
N207 C209 1.375 . S
N207 C210 1.313 . S
C208 C209 1.338 . S
C208 N211 1.377 . S
C208 H228 0.930 . S
C209 N207 1.375 . S
C209 C208 1.338 . S
C209 H213 0.931 . S
C210 N207 1.313 . S
C210 N211 1.344 . S
C210 H214 0.930 . S
N211 C208 1.377 . S
N211 C210 1.344 . S
O212 Co204 2.055 . S
O212 C216 1.253 . S
H213 C209 0.931 . S
H214 C210 0.930 . S
O215 Co204 2.039 . S
O215 C205 1.265 . S
C216 O212 1.253 . S
C216 O217 1.227 . S
O217 C216 1.227 . S
N218 Co204 2.140 . S
N218 C221 1.346 . S
N218 C222 1.345 . S
C219 C220 1.387 . S
C219 C223 1.391 . S
C220 C219 1.387 . S
C220 C221 1.369 1_455 S
C220 H229 0.929 . S
C221 N218 1.346 . S
C221 C220 1.369 1_655 S
C221 H224 0.928 . S
C222 N218 1.345 . S
C222 C223 1.371 1_655 S
C222 H225 0.931 . S
C223 C219 1.391 . S
C223 C222 1.371 1_455 S
C223 H230 0.930 . S
H224 C221 0.928 . S
H225 C222 0.931 . S
H226 C202 0.930 . S
H227 C199 0.930 . S
H228 C208 0.930 . S
H229 C220 0.929 . S
H230 C223 0.930 . S
C231 C232 1.351 . S
C231 N234 1.368 . S
C231 H236 0.931 . S
C232 C231 1.351 . S
C232 N233 1.373 . S
C232 H260 0.930 . S
N233 C232 1.373 . S
N233 C235 1.340 . S
N234 C231 1.368 . S
N234 C235 1.321 . S
N234 Co237 2.135 . S
C235 N233 1.340 . S
C235 N234 1.321 . S
C235 H259 0.930 . S
H236 C231 0.931 . S
Co237 N234 2.135 . S
Co237 N240 2.121 . S
Co237 O245 2.055 . S
Co237 O248 2.039 . S
Co237 N251 2.140 . S
C238 O239 1.227 . S
C238 O248 1.265 . S
O239 C238 1.227 . S
N240 Co237 2.121 . S
N240 C242 1.375 . S
N240 C243 1.313 . S
C241 C242 1.338 . S
C241 N244 1.377 . S
C241 H261 0.930 . S
C242 N240 1.375 . S
C242 C241 1.338 . S
C242 H246 0.931 . S
C243 N240 1.313 . S
C243 N244 1.344 . S
C243 H247 0.930 . S
N244 C241 1.377 . S
N244 C243 1.344 . S
O245 Co237 2.055 . S
O245 C249 1.253 . S
H246 C242 0.931 . S
H247 C243 0.930 . S
O248 Co237 2.039 . S
O248 C238 1.265 . S
C249 O245 1.253 . S
C249 O250 1.227 . S
O250 C249 1.227 . S
N251 Co237 2.140 . S
N251 C254 1.346 . S
N251 C255 1.345 . S
C252 C253 1.387 . S
C252 C256 1.391 . S
C253 C252 1.387 . S
C253 C254 1.369 . S
C253 H262 0.929 . S
C254 N251 1.346 . S
C254 C253 1.369 . S
C254 H257 0.928 . S
C255 N251 1.345 . S
C255 C256 1.371 . S
C255 H258 0.931 . S
C256 C252 1.391 . S
C256 C255 1.371 . S
C256 H263 0.930 . S
H257 C254 0.928 . S
H258 C255 0.931 . S
H259 C235 0.930 . S
H260 C232 0.930 . S
H261 C241 0.930 . S
H262 C253 0.929 . S
H263 C256 0.930 . S
C264 C265 1.351 . S
C264 N267 1.368 . S
C264 H269 0.931 . S
C265 C264 1.351 . S
C265 N266 1.373 . S
C265 H293 0.930 . S
N266 C265 1.373 . S
N266 C268 1.340 . S
N267 C264 1.368 . S
N267 C268 1.321 . S
N267 Co270 2.135 . S
C268 N266 1.340 . S
C268 N267 1.321 . S
C268 H292 0.930 . S
H269 C264 0.931 . S
Co270 N267 2.135 . S
Co270 N273 2.121 . S
Co270 O278 2.055 . S
Co270 O281 2.039 . S
Co270 N284 2.140 . S
C271 O272 1.227 . S
C271 O281 1.265 . S
O272 C271 1.227 . S
N273 Co270 2.121 . S
N273 C275 1.375 . S
N273 C276 1.313 . S
C274 C275 1.338 . S
C274 N277 1.377 . S
C274 H294 0.930 . S
C275 N273 1.375 . S
C275 C274 1.338 . S
C275 H279 0.931 . S
C276 N273 1.313 . S
C276 N277 1.344 . S
C276 H280 0.930 . S
N277 C274 1.377 . S
N277 C276 1.344 . S
O278 Co270 2.055 . S
O278 C282 1.253 . S
H279 C275 0.931 . S
H280 C276 0.930 . S
O281 Co270 2.039 . S
O281 C271 1.265 . S
C282 O278 1.253 . S
C282 O283 1.227 . S
O283 C282 1.227 . S
N284 Co270 2.140 . S
N284 C287 1.346 . S
N284 C288 1.345 . S
C285 C286 1.387 . S
C285 C289 1.391 . S
C286 C285 1.387 . S
C286 C287 1.369 1_655 S
C286 H295 0.929 . S
C287 N284 1.346 . S
C287 C286 1.369 1_455 S
C287 H290 0.928 . S
C288 N284 1.345 . S
C288 C289 1.371 1_455 S
C288 H291 0.931 . S
C289 C285 1.391 . S
C289 C288 1.371 1_655 S
C289 H296 0.930 . S
H290 C287 0.928 . S
H291 C288 0.931 . S
H292 C268 0.930 . S
H293 C265 0.930 . S
H294 C274 0.930 . S
H295 C286 0.929 . S
H296 C289 0.930 . S
C297 C298 1.351 . S
C297 N300 1.368 . S
C297 H302 0.931 . S
C298 C297 1.351 . S
C298 N299 1.373 . S
C298 H326 0.930 . S
N299 C298 1.373 . S
N299 C301 1.340 . S
N300 C297 1.368 . S
N300 C301 1.321 . S
N300 Co303 2.135 . S
C301 N299 1.340 . S
C301 N300 1.321 . S
C301 H325 0.930 . S
H302 C297 0.931 . S
Co303 N300 2.135 . S
Co303 N306 2.121 . S
Co303 O311 2.055 . S
Co303 O314 2.039 . S
Co303 N317 2.140 . S
C304 O305 1.227 . S
C304 O314 1.265 . S
O305 C304 1.227 . S
N306 Co303 2.121 . S
N306 C308 1.375 . S
N306 C309 1.313 . S
C307 C308 1.338 . S
C307 N310 1.377 . S
C307 H327 0.930 . S
C308 N306 1.375 . S
C308 C307 1.338 . S
C308 H312 0.931 . S
C309 N306 1.313 . S
C309 N310 1.344 . S
C309 H313 0.930 . S
N310 C307 1.377 . S
N310 C309 1.344 . S
O311 Co303 2.055 . S
O311 C315 1.253 . S
H312 C308 0.931 . S
H313 C309 0.930 . S
O314 Co303 2.039 . S
O314 C304 1.265 . S
C315 O311 1.253 . S
C315 O316 1.227 . S
O316 C315 1.227 . S
N317 Co303 2.140 . S
N317 C320 1.346 . S
N317 C321 1.345 . S
C318 C319 1.387 . S
C318 C322 1.391 . S
C319 C318 1.387 . S
C319 C320 1.369 . S
C319 H328 0.929 . S
C320 N317 1.346 . S
C320 C319 1.369 . S
C320 H323 0.928 . S
C321 N317 1.345 . S
C321 C322 1.371 . S
C321 H324 0.931 . S
C322 C318 1.391 . S
C322 C321 1.371 . S
C322 H329 0.930 . S
H323 C320 0.928 . S
H324 C321 0.931 . S
H325 C301 0.930 . S
H326 C298 0.930 . S
H327 C307 0.930 . S
H328 C319 0.929 . S
H329 C322 0.930 . S
C330 C331 1.351 . S
C330 N333 1.368 . S
C330 H335 0.931 . S
C331 C330 1.351 . S
C331 N332 1.373 . S
C331 H359 0.930 . S
N332 C331 1.373 . S
N332 C334 1.340 . S
N333 C330 1.368 . S
N333 C334 1.321 . S
N333 Co336 2.135 . S
C334 N332 1.340 . S
C334 N333 1.321 . S
C334 H358 0.930 . S
H335 C330 0.931 . S
Co336 N333 2.135 . S
Co336 N339 2.121 . S
Co336 O344 2.055 . S
Co336 O347 2.039 . S
Co336 N350 2.140 . S
C337 O338 1.227 . S
C337 O347 1.265 . S
O338 C337 1.227 . S
N339 Co336 2.121 . S
N339 C341 1.375 . S
N339 C342 1.313 . S
C340 C341 1.338 . S
C340 N343 1.377 . S
C340 H360 0.930 . S
C341 N339 1.375 . S
C341 C340 1.338 . S
C341 H345 0.931 . S
C342 N339 1.313 . S
C342 N343 1.344 . S
C342 H346 0.930 . S
N343 C340 1.377 . S
N343 C342 1.344 . S
O344 Co336 2.055 . S
O344 C348 1.253 . S
H345 C341 0.931 . S
H346 C342 0.930 . S
O347 Co336 2.039 . S
O347 C337 1.265 . S
C348 O344 1.253 . S
C348 O349 1.227 . S
O349 C348 1.227 . S
N350 Co336 2.140 . S
N350 C353 1.346 . S
N350 C354 1.345 . S
C351 C352 1.387 . S
C351 C355 1.391 . S
C352 C351 1.387 . S
C352 C353 1.369 1_655 S
C352 H361 0.929 . S
C353 N350 1.346 . S
C353 C352 1.369 1_455 S
C353 H356 0.928 . S
C354 N350 1.345 . S
C354 C355 1.371 1_455 S
C354 H357 0.931 . S
C355 C351 1.391 . S
C355 C354 1.371 1_655 S
C355 H362 0.930 . S
H356 C353 0.928 . S
H357 C354 0.931 . S
H358 C334 0.930 . S
H359 C331 0.930 . S
H360 C340 0.930 . S
H361 C352 0.929 . S
H362 C355 0.930 . S
C363 C364 1.351 . S
C363 N366 1.368 . S
C363 H368 0.931 . S
C364 C363 1.351 . S
C364 N365 1.373 . S
C364 H392 0.930 . S
N365 C364 1.373 . S
N365 C367 1.340 . S
N366 C363 1.368 . S
N366 C367 1.321 . S
N366 Co369 2.135 . S
C367 N365 1.340 . S
C367 N366 1.321 . S
C367 H391 0.930 . S
H368 C363 0.931 . S
Co369 N366 2.135 . S
Co369 N372 2.121 . S
Co369 O377 2.055 . S
Co369 O380 2.039 . S
Co369 N383 2.140 . S
C370 O371 1.227 . S
C370 O380 1.265 . S
O371 C370 1.227 . S
N372 Co369 2.121 . S
N372 C374 1.375 . S
N372 C375 1.313 . S
C373 C374 1.338 . S
C373 N376 1.377 . S
C373 H393 0.930 . S
C374 N372 1.375 . S
C374 C373 1.338 . S
C374 H378 0.931 . S
C375 N372 1.313 . S
C375 N376 1.344 . S
C375 H379 0.930 . S
N376 C373 1.377 . S
N376 C375 1.344 . S
O377 Co369 2.055 . S
O377 C381 1.253 . S
H378 C374 0.931 . S
H379 C375 0.930 . S
O380 Co369 2.039 . S
O380 C370 1.265 . S
C381 O377 1.253 . S
C381 O382 1.227 . S
O382 C381 1.227 . S
N383 Co369 2.140 . S
N383 C386 1.346 . S
N383 C387 1.345 . S
C384 C385 1.387 . S
C384 C388 1.391 . S
C385 C384 1.387 . S
C385 C386 1.369 . S
C385 H394 0.929 . S
C386 N383 1.346 . S
C386 C385 1.369 . S
C386 H389 0.928 . S
C387 N383 1.345 . S
C387 C388 1.371 . S
C387 H390 0.931 . S
C388 C384 1.391 . S
C388 C387 1.371 . S
C388 H395 0.930 . S
H389 C386 0.928 . S
H390 C387 0.931 . S
H391 C367 0.930 . S
H392 C364 0.930 . S
H393 C373 0.930 . S
H394 C385 0.929 . S
H395 C388 0.930 . S
C396 C397 1.351 . S
C396 N399 1.368 . S
C396 H401 0.931 . S
C397 C396 1.351 . S
C397 N398 1.373 . S
C397 H425 0.930 . S
N398 C397 1.373 . S
N398 C400 1.340 . S
N399 C396 1.368 . S
N399 C400 1.321 . S
N399 Co402 2.135 . S
C400 N398 1.340 . S
C400 N399 1.321 . S
C400 H424 0.930 . S
H401 C396 0.931 . S
Co402 N399 2.135 . S
Co402 N405 2.121 . S
Co402 O410 2.055 . S
Co402 O413 2.039 . S
Co402 N416 2.140 . S
C403 O404 1.227 . S
C403 O413 1.265 . S
O404 C403 1.227 . S
N405 Co402 2.121 . S
N405 C407 1.375 . S
N405 C408 1.313 . S
C406 C407 1.338 . S
C406 N409 1.377 . S
C406 H426 0.930 . S
C407 N405 1.375 . S
C407 C406 1.338 . S
C407 H411 0.931 . S
C408 N405 1.313 . S
C408 N409 1.344 . S
C408 H412 0.930 . S
N409 C406 1.377 . S
N409 C408 1.344 . S
O410 Co402 2.055 . S
O410 C414 1.253 . S
H411 C407 0.931 . S
H412 C408 0.930 . S
O413 Co402 2.039 . S
O413 C403 1.265 . S
C414 O410 1.253 . S
C414 O415 1.227 . S
O415 C414 1.227 . S
N416 Co402 2.140 . S
N416 C419 1.346 . S
N416 C420 1.345 . S
C417 C418 1.387 . S
C417 C421 1.391 . S
C418 C417 1.387 . S
C418 C419 1.369 1_455 S
C418 H427 0.929 . S
C419 N416 1.346 . S
C419 C418 1.369 1_655 S
C419 H422 0.928 . S
C420 N416 1.345 . S
C420 C421 1.371 1_655 S
C420 H423 0.931 . S
C421 C417 1.391 . S
C421 C420 1.371 1_455 S
C421 H428 0.930 . S
H422 C419 0.928 . S
H423 C420 0.931 . S
H424 C400 0.930 . S
H425 C397 0.930 . S
H426 C406 0.930 . S
H427 C418 0.929 . S
H428 C421 0.930 . S
C429 C430 1.351 . S
C429 N432 1.368 . S
C429 H434 0.931 . S
C430 C429 1.351 . S
C430 N431 1.373 . S
C430 H458 0.930 . S
N431 C430 1.373 . S
N431 C433 1.340 . S
N432 C429 1.368 . S
N432 C433 1.321 . S
N432 Co435 2.135 . S
C433 N431 1.340 . S
C433 N432 1.321 . S
C433 H457 0.930 . S
H434 C429 0.931 . S
Co435 N432 2.135 . S
Co435 N438 2.121 . S
Co435 O443 2.055 . S
Co435 O446 2.039 . S
Co435 N449 2.140 . S
C436 O437 1.227 . S
C436 O446 1.265 . S
O437 C436 1.227 . S
N438 Co435 2.121 . S
N438 C440 1.375 . S
N438 C441 1.313 . S
C439 C440 1.338 . S
C439 N442 1.377 . S
C439 H459 0.930 . S
C440 N438 1.375 . S
C440 C439 1.338 . S
C440 H444 0.931 . S
C441 N438 1.313 . S
C441 N442 1.344 . S
C441 H445 0.930 . S
N442 C439 1.377 . S
N442 C441 1.344 . S
O443 Co435 2.055 . S
O443 C447 1.253 . S
H444 C440 0.931 . S
H445 C441 0.930 . S
O446 Co435 2.039 . S
O446 C436 1.265 . S
C447 O443 1.253 . S
C447 O448 1.227 . S
O448 C447 1.227 . S
N449 Co435 2.140 . S
N449 C452 1.346 . S
N449 C453 1.345 . S
C450 C451 1.387 . S
C450 C454 1.391 . S
C451 C450 1.387 . S
C451 C452 1.369 . S
C451 H460 0.929 . S
C452 N449 1.346 . S
C452 C451 1.369 . S
C452 H455 0.928 . S
C453 N449 1.345 . S
C453 C454 1.371 . S
C453 H456 0.931 . S
C454 C450 1.391 . S
C454 C453 1.371 . S
C454 H461 0.930 . S
H455 C452 0.928 . S
H456 C453 0.931 . S
H457 C433 0.930 . S
H458 C430 0.930 . S
H459 C439 0.930 . S
H460 C451 0.929 . S
H461 C454 0.930 . S
C462 C463 1.351 . S
C462 N465 1.368 . S
C462 H467 0.931 . S
C463 C462 1.351 . S
C463 N464 1.373 . S
C463 H491 0.930 . S
N464 C463 1.373 . S
N464 C466 1.340 . S
N465 C462 1.368 . S
N465 C466 1.321 . S
N465 Co468 2.135 . S
C466 N464 1.340 . S
C466 N465 1.321 . S
C466 H490 0.930 . S
H467 C462 0.931 . S
Co468 N465 2.135 . S
Co468 N471 2.121 . S
Co468 O476 2.055 . S
Co468 O479 2.039 . S
Co468 N482 2.140 . S
C469 O470 1.227 . S
C469 O479 1.265 . S
O470 C469 1.227 . S
N471 Co468 2.121 . S
N471 C473 1.375 . S
N471 C474 1.313 . S
C472 C473 1.338 . S
C472 N475 1.377 . S
C472 H492 0.930 . S
C473 N471 1.375 . S
C473 C472 1.338 . S
C473 H477 0.931 . S
C474 N471 1.313 . S
C474 N475 1.344 . S
C474 H478 0.930 . S
N475 C472 1.377 . S
N475 C474 1.344 . S
O476 Co468 2.055 . S
O476 C480 1.253 . S
H477 C473 0.931 . S
H478 C474 0.930 . S
O479 Co468 2.039 . S
O479 C469 1.265 . S
C480 O476 1.253 . S
C480 O481 1.227 . S
O481 C480 1.227 . S
N482 Co468 2.140 . S
N482 C485 1.346 . S
N482 C486 1.345 . S
C483 C484 1.387 . S
C483 C487 1.391 . S
C484 C483 1.387 . S
C484 C485 1.369 1_455 S
C484 H493 0.929 . S
C485 N482 1.346 . S
C485 C484 1.369 1_655 S
C485 H488 0.928 . S
C486 N482 1.345 . S
C486 C487 1.371 1_655 S
C486 H489 0.931 . S
C487 C483 1.391 . S
C487 C486 1.371 1_455 S
C487 H494 0.930 . S
H488 C485 0.928 . S
H489 C486 0.931 . S
H490 C466 0.930 . S
H491 C463 0.930 . S
H492 C472 0.930 . S
H493 C484 0.929 . S
H494 C487 0.930 . S
C495 C496 1.351 . S
C495 N498 1.368 . S
C495 H500 0.931 . S
C496 C495 1.351 . S
C496 N497 1.373 . S
C496 H524 0.930 . S
N497 C496 1.373 . S
N497 C499 1.340 . S
N498 C495 1.368 . S
N498 C499 1.321 . S
N498 Co501 2.135 . S
C499 N497 1.340 . S
C499 N498 1.321 . S
C499 H523 0.930 . S
H500 C495 0.931 . S
Co501 N498 2.135 . S
Co501 N504 2.121 . S
Co501 O509 2.055 . S
Co501 O512 2.039 . S
Co501 N515 2.140 . S
C502 O503 1.227 . S
C502 O512 1.265 . S
O503 C502 1.227 . S
N504 Co501 2.121 . S
N504 C506 1.375 . S
N504 C507 1.313 . S
C505 C506 1.338 . S
C505 N508 1.377 . S
C505 H525 0.930 . S
C506 N504 1.375 . S
C506 C505 1.338 . S
C506 H510 0.931 . S
C507 N504 1.313 . S
C507 N508 1.344 . S
C507 H511 0.930 . S
N508 C505 1.377 . S
N508 C507 1.344 . S
O509 Co501 2.055 . S
O509 C513 1.253 . S
H510 C506 0.931 . S
H511 C507 0.930 . S
O512 Co501 2.039 . S
O512 C502 1.265 . S
C513 O509 1.253 . S
C513 O514 1.227 . S
O514 C513 1.227 . S
N515 Co501 2.140 . S
N515 C518 1.346 . S
N515 C519 1.345 . S
C516 C517 1.387 . S
C516 C520 1.391 . S
C517 C516 1.387 . S
C517 C518 1.369 . S
C517 H526 0.929 . S
C518 N515 1.346 . S
C518 C517 1.369 . S
C518 H521 0.928 . S
C519 N515 1.345 . S
C519 C520 1.371 . S
C519 H522 0.931 . S
C520 C516 1.391 . S
C520 C519 1.371 . S
C520 H527 0.930 . S
H521 C518 0.928 . S
H522 C519 0.931 . S
H523 C499 0.930 . S
H524 C496 0.930 . S
H525 C505 0.930 . S
H526 C517 0.929 . S
H527 C520 0.930 . S
C528 C529 1.351 . S
C528 N531 1.368 . S
C528 H533 0.931 . S
C529 C528 1.351 . S
C529 N530 1.373 . S
C529 H557 0.930 . S
N530 C529 1.373 . S
N530 C532 1.340 . S
N531 C528 1.368 . S
N531 C532 1.321 . S
N531 Co534 2.135 . S
C532 N530 1.340 . S
C532 N531 1.321 . S
C532 H556 0.930 . S
H533 C528 0.931 . S
Co534 N531 2.135 . S
Co534 N537 2.121 . S
Co534 O542 2.055 . S
Co534 O545 2.039 . S
Co534 N548 2.140 . S
C535 O536 1.227 . S
C535 O545 1.265 . S
O536 C535 1.227 . S
N537 Co534 2.121 . S
N537 C539 1.375 . S
N537 C540 1.313 . S
C538 C539 1.338 . S
C538 N541 1.377 . S
C538 H558 0.930 . S
C539 N537 1.375 . S
C539 C538 1.338 . S
C539 H543 0.931 . S
C540 N537 1.313 . S
C540 N541 1.344 . S
C540 H544 0.930 . S
N541 C538 1.377 . S
N541 C540 1.344 . S
O542 Co534 2.055 . S
O542 C546 1.253 . S
H543 C539 0.931 . S
H544 C540 0.930 . S
O545 Co534 2.039 . S
O545 C535 1.265 . S
C546 O542 1.253 . S
C546 O547 1.227 . S
O547 C546 1.227 . S
N548 Co534 2.140 . S
N548 C551 1.346 . S
N548 C552 1.345 . S
C549 C550 1.387 . S
C549 C553 1.391 . S
C550 C549 1.387 . S
C550 C551 1.369 . S
C550 H559 0.929 . S
C551 N548 1.346 . S
C551 C550 1.369 . S
C551 H554 0.928 . S
C552 N548 1.345 . S
C552 C553 1.371 . S
C552 H555 0.931 . S
C553 C549 1.391 . S
C553 C552 1.371 . S
C553 H560 0.930 . S
H554 C551 0.928 . S
H555 C552 0.931 . S
H556 C532 0.930 . S
H557 C529 0.930 . S
H558 C538 0.930 . S
H559 C550 0.929 . S
H560 C553 0.930 . S
C561 C562 1.351 . S
C561 N564 1.368 . S
C561 H566 0.931 . S
C562 C561 1.351 . S
C562 N563 1.373 . S
C562 H590 0.930 . S
N563 C562 1.373 . S
N563 C565 1.340 . S
N564 C561 1.368 . S
N564 C565 1.321 . S
N564 Co567 2.135 . S
C565 N563 1.340 . S
C565 N564 1.321 . S
C565 H589 0.930 . S
H566 C561 0.931 . S
Co567 N564 2.135 . S
Co567 N570 2.121 . S
Co567 O575 2.055 . S
Co567 O578 2.039 . S
Co567 N581 2.140 . S
C568 O569 1.227 . S
C568 O578 1.265 . S
O569 C568 1.227 . S
N570 Co567 2.121 . S
N570 C572 1.375 . S
N570 C573 1.313 . S
C571 C572 1.338 . S
C571 N574 1.377 . S
C571 H591 0.930 . S
C572 N570 1.375 . S
C572 C571 1.338 . S
C572 H576 0.931 . S
C573 N570 1.313 . S
C573 N574 1.344 . S
C573 H577 0.930 . S
N574 C571 1.377 . S
N574 C573 1.344 . S
O575 Co567 2.055 . S
O575 C579 1.253 . S
H576 C572 0.931 . S
H577 C573 0.930 . S
O578 Co567 2.039 . S
O578 C568 1.265 . S
C579 O575 1.253 . S
C579 O580 1.227 . S
O580 C579 1.227 . S
N581 Co567 2.140 . S
N581 C584 1.346 . S
N581 C585 1.345 . S
C582 C583 1.387 . S
C582 C586 1.391 . S
C583 C582 1.387 . S
C583 C584 1.369 . S
C583 H592 0.929 . S
C584 N581 1.346 . S
C584 C583 1.369 . S
C584 H587 0.928 . S
C585 N581 1.345 . S
C585 C586 1.371 . S
C585 H588 0.931 . S
C586 C582 1.391 . S
C586 C585 1.371 . S
C586 H593 0.930 . S
H587 C584 0.928 . S
H588 C585 0.931 . S
H589 C565 0.930 . S
H590 C562 0.930 . S
H591 C571 0.930 . S
H592 C583 0.929 . S
H593 C586 0.930 . S
C594 C595 1.351 . S
C594 N597 1.368 . S
C594 H599 0.931 . S
C595 C594 1.351 . S
C595 N596 1.373 . S
C595 H623 0.930 . S
N596 C595 1.373 . S
N596 C598 1.340 . S
N597 C594 1.368 . S
N597 C598 1.321 . S
N597 Co600 2.135 . S
C598 N596 1.340 . S
C598 N597 1.321 . S
C598 H622 0.930 . S
H599 C594 0.931 . S
Co600 N597 2.135 . S
Co600 N603 2.121 . S
Co600 O608 2.055 . S
Co600 O611 2.039 . S
Co600 N614 2.140 . S
C601 O602 1.227 . S
C601 O611 1.265 . S
O602 C601 1.227 . S
N603 Co600 2.121 . S
N603 C605 1.375 . S
N603 C606 1.313 . S
C604 C605 1.338 . S
C604 N607 1.377 . S
C604 H624 0.930 . S
C605 N603 1.375 . S
C605 C604 1.338 . S
C605 H609 0.931 . S
C606 N603 1.313 . S
C606 N607 1.344 . S
C606 H610 0.930 . S
N607 C604 1.377 . S
N607 C606 1.344 . S
O608 Co600 2.055 . S
O608 C612 1.253 . S
H609 C605 0.931 . S
H610 C606 0.930 . S
O611 Co600 2.039 . S
O611 C601 1.265 . S
C612 O608 1.253 . S
C612 O613 1.227 . S
O613 C612 1.227 . S
N614 Co600 2.140 . S
N614 C617 1.346 . S
N614 C618 1.345 . S
C615 C616 1.387 . S
C615 C619 1.391 . S
C616 C615 1.387 . S
C616 C617 1.369 . S
C616 H625 0.929 . S
C617 N614 1.346 . S
C617 C616 1.369 . S
C617 H620 0.928 . S
C618 N614 1.345 . S
C618 C619 1.371 . S
C618 H621 0.931 . S
C619 C615 1.391 . S
C619 C618 1.371 . S
C619 H626 0.930 . S
H620 C617 0.928 . S
H621 C618 0.931 . S
H622 C598 0.930 . S
H623 C595 0.930 . S
H624 C604 0.930 . S
H625 C616 0.929 . S
H626 C619 0.930 . S
C627 C628 1.351 . S
C627 N630 1.368 . S
C627 H632 0.931 . S
C628 C627 1.351 . S
C628 N629 1.373 . S
C628 H656 0.930 . S
N629 C628 1.373 . S
N629 C631 1.340 . S
N630 C627 1.368 . S
N630 C631 1.321 . S
N630 Co633 2.135 . S
C631 N629 1.340 . S
C631 N630 1.321 . S
C631 H655 0.930 . S
H632 C627 0.931 . S
Co633 N630 2.135 . S
Co633 N636 2.121 . S
Co633 O641 2.055 . S
Co633 O644 2.039 . S
Co633 N647 2.140 . S
C634 O635 1.227 . S
C634 O644 1.265 . S
O635 C634 1.227 . S
N636 Co633 2.121 . S
N636 C638 1.375 . S
N636 C639 1.313 . S
C637 C638 1.338 . S
C637 N640 1.377 . S
C637 H657 0.930 . S
C638 N636 1.375 . S
C638 C637 1.338 . S
C638 H642 0.931 . S
C639 N636 1.313 . S
C639 N640 1.344 . S
C639 H643 0.930 . S
N640 C637 1.377 . S
N640 C639 1.344 . S
O641 Co633 2.055 . S
O641 C645 1.253 . S
H642 C638 0.931 . S
H643 C639 0.930 . S
O644 Co633 2.039 . S
O644 C634 1.265 . S
C645 O641 1.253 . S
C645 O646 1.227 . S
O646 C645 1.227 . S
N647 Co633 2.140 . S
N647 C650 1.346 . S
N647 C651 1.345 . S
C648 C649 1.387 . S
C648 C652 1.391 . S
C649 C648 1.387 . S
C649 C650 1.369 . S
C649 H658 0.929 . S
C650 N647 1.346 . S
C650 C649 1.369 . S
C650 H653 0.928 . S
C651 N647 1.345 . S
C651 C652 1.371 . S
C651 H654 0.931 . S
C652 C648 1.391 . S
C652 C651 1.371 . S
C652 H659 0.930 . S
H653 C650 0.928 . S
H654 C651 0.931 . S
H655 C631 0.930 . S
H656 C628 0.930 . S
H657 C637 0.930 . S
H658 C649 0.929 . S
H659 C652 0.930 . S
C660 C661 1.351 . S
C660 N663 1.368 . S
C660 H665 0.931 . S
C661 C660 1.351 . S
C661 N662 1.373 . S
C661 H689 0.930 . S
N662 C661 1.373 . S
N662 C664 1.340 . S
N663 C660 1.368 . S
N663 C664 1.321 . S
N663 Co666 2.135 . S
C664 N662 1.340 . S
C664 N663 1.321 . S
C664 H688 0.930 . S
H665 C660 0.931 . S
Co666 N663 2.135 . S
Co666 N669 2.121 . S
Co666 O674 2.055 . S
Co666 O677 2.039 . S
Co666 N680 2.140 . S
C667 O668 1.227 . S
C667 O677 1.265 . S
O668 C667 1.227 . S
N669 Co666 2.121 . S
N669 C671 1.375 . S
N669 C672 1.313 . S
C670 C671 1.338 . S
C670 N673 1.377 . S
C670 H690 0.930 . S
C671 N669 1.375 . S
C671 C670 1.338 . S
C671 H675 0.931 . S
C672 N669 1.313 . S
C672 N673 1.344 . S
C672 H676 0.930 . S
N673 C670 1.377 . S
N673 C672 1.344 . S
O674 Co666 2.055 . S
O674 C678 1.253 . S
H675 C671 0.931 . S
H676 C672 0.930 . S
O677 Co666 2.039 . S
O677 C667 1.265 . S
C678 O674 1.253 . S
C678 O679 1.227 . S
O679 C678 1.227 . S
N680 Co666 2.140 . S
N680 C683 1.346 . S
N680 C684 1.345 . S
C681 C682 1.387 . S
C681 C685 1.391 . S
C682 C681 1.387 . S
C682 C683 1.369 . S
C682 H691 0.929 . S
C683 N680 1.346 . S
C683 C682 1.369 . S
C683 H686 0.928 . S
C684 N680 1.345 . S
C684 C685 1.371 . S
C684 H687 0.931 . S
C685 C681 1.391 . S
C685 C684 1.371 . S
C685 H692 0.930 . S
H686 C683 0.928 . S
H687 C684 0.931 . S
H688 C664 0.930 . S
H689 C661 0.930 . S
H690 C670 0.930 . S
H691 C682 0.929 . S
H692 C685 0.930 . S
C693 C694 1.351 . S
C693 N696 1.368 . S
C693 H698 0.931 . S
C694 C693 1.351 . S
C694 N695 1.373 . S
C694 H722 0.930 . S
N695 C694 1.373 . S
N695 C697 1.340 . S
N696 C693 1.368 . S
N696 C697 1.321 . S
N696 Co699 2.135 . S
C697 N695 1.340 . S
C697 N696 1.321 . S
C697 H721 0.930 . S
H698 C693 0.931 . S
Co699 N696 2.135 . S
Co699 N702 2.121 . S
Co699 O707 2.055 . S
Co699 O710 2.039 . S
Co699 N713 2.140 . S
C700 O701 1.227 . S
C700 O710 1.265 . S
O701 C700 1.227 . S
N702 Co699 2.121 . S
N702 C704 1.375 . S
N702 C705 1.313 . S
C703 C704 1.338 . S
C703 N706 1.377 . S
C703 H723 0.930 . S
C704 N702 1.375 . S
C704 C703 1.338 . S
C704 H708 0.931 . S
C705 N702 1.313 . S
C705 N706 1.344 . S
C705 H709 0.930 . S
N706 C703 1.377 . S
N706 C705 1.344 . S
O707 Co699 2.055 . S
O707 C711 1.253 . S
H708 C704 0.931 . S
H709 C705 0.930 . S
O710 Co699 2.039 . S
O710 C700 1.265 . S
C711 O707 1.253 . S
C711 O712 1.227 . S
O712 C711 1.227 . S
N713 Co699 2.140 . S
N713 C716 1.346 . S
N713 C717 1.345 . S
C714 C715 1.387 . S
C714 C718 1.391 . S
C715 C714 1.387 . S
C715 C716 1.369 . S
C715 H724 0.929 . S
C716 N713 1.346 . S
C716 C715 1.369 . S
C716 H719 0.928 . S
C717 N713 1.345 . S
C717 C718 1.371 . S
C717 H720 0.931 . S
C718 C714 1.391 . S
C718 C717 1.371 . S
C718 H725 0.930 . S
H719 C716 0.928 . S
H720 C717 0.931 . S
H721 C697 0.930 . S
H722 C694 0.930 . S
H723 C703 0.930 . S
H724 C715 0.929 . S
H725 C718 0.930 . S
C726 C727 1.351 . S
C726 N729 1.368 . S
C726 H731 0.931 . S
C727 C726 1.351 . S
C727 N728 1.373 . S
C727 H755 0.930 . S
N728 C727 1.373 . S
N728 C730 1.340 . S
N729 C726 1.368 . S
N729 C730 1.321 . S
N729 Co732 2.135 . S
C730 N728 1.340 . S
C730 N729 1.321 . S
C730 H754 0.930 . S
H731 C726 0.931 . S
Co732 N729 2.135 . S
Co732 N735 2.121 . S
Co732 O740 2.055 . S
Co732 O743 2.039 . S
Co732 N746 2.140 . S
C733 O734 1.227 . S
C733 O743 1.265 . S
O734 C733 1.227 . S
N735 Co732 2.121 . S
N735 C737 1.375 . S
N735 C738 1.313 . S
C736 C737 1.338 . S
C736 N739 1.377 . S
C736 H756 0.930 . S
C737 N735 1.375 . S
C737 C736 1.338 . S
C737 H741 0.931 . S
C738 N735 1.313 . S
C738 N739 1.344 . S
C738 H742 0.930 . S
N739 C736 1.377 . S
N739 C738 1.344 . S
O740 Co732 2.055 . S
O740 C744 1.253 . S
H741 C737 0.931 . S
H742 C738 0.930 . S
O743 Co732 2.039 . S
O743 C733 1.265 . S
C744 O740 1.253 . S
C744 O745 1.227 . S
O745 C744 1.227 . S
N746 Co732 2.140 . S
N746 C749 1.346 . S
N746 C750 1.345 . S
C747 C748 1.387 . S
C747 C751 1.391 . S
C748 C747 1.387 . S
C748 C749 1.369 . S
C748 H757 0.929 . S
C749 N746 1.346 . S
C749 C748 1.369 . S
C749 H752 0.928 . S
C750 N746 1.345 . S
C750 C751 1.371 . S
C750 H753 0.931 . S
C751 C747 1.391 . S
C751 C750 1.371 . S
C751 H758 0.930 . S
H752 C749 0.928 . S
H753 C750 0.931 . S
H754 C730 0.930 . S
H755 C727 0.930 . S
H756 C736 0.930 . S
H757 C748 0.929 . S
H758 C751 0.930 . S
C759 C760 1.351 . S
C759 N762 1.368 . S
C759 H764 0.931 . S
C760 C759 1.351 . S
C760 N761 1.373 . S
C760 H788 0.930 . S
N761 C760 1.373 . S
N761 C763 1.340 . S
N762 C759 1.368 . S
N762 C763 1.321 . S
N762 Co765 2.135 . S
C763 N761 1.340 . S
C763 N762 1.321 . S
C763 H787 0.930 . S
H764 C759 0.931 . S
Co765 N762 2.135 . S
Co765 N768 2.121 . S
Co765 O773 2.055 . S
Co765 O776 2.039 . S
Co765 N779 2.140 . S
C766 O767 1.227 . S
C766 O776 1.265 . S
O767 C766 1.227 . S
N768 Co765 2.121 . S
N768 C770 1.375 . S
N768 C771 1.313 . S
C769 C770 1.338 . S
C769 N772 1.377 . S
C769 H789 0.930 . S
C770 N768 1.375 . S
C770 C769 1.338 . S
C770 H774 0.931 . S
C771 N768 1.313 . S
C771 N772 1.344 . S
C771 H775 0.930 . S
N772 C769 1.377 . S
N772 C771 1.344 . S
O773 Co765 2.055 . S
O773 C777 1.253 . S
H774 C770 0.931 . S
H775 C771 0.930 . S
O776 Co765 2.039 . S
O776 C766 1.265 . S
C777 O773 1.253 . S
C777 O778 1.227 . S
O778 C777 1.227 . S
N779 Co765 2.140 . S
N779 C782 1.346 . S
N779 C783 1.345 . S
C780 C781 1.387 . S
C780 C784 1.391 . S
C781 C780 1.387 . S
C781 C782 1.369 . S
C781 H790 0.929 . S
C782 N779 1.346 . S
C782 C781 1.369 . S
C782 H785 0.928 . S
C783 N779 1.345 . S
C783 C784 1.371 . S
C783 H786 0.931 . S
C784 C780 1.391 . S
C784 C783 1.371 . S
C784 H791 0.930 . S
H785 C782 0.928 . S
H786 C783 0.931 . S
H787 C763 0.930 . S
H788 C760 0.930 . S
H789 C769 0.930 . S
H790 C781 0.929 . S
H791 C784 0.930 . S
C792 C793 1.351 . S
C792 N795 1.368 . S
C792 H797 0.931 . S
C793 C792 1.351 . S
C793 N794 1.373 . S
C793 H821 0.930 . S
N794 C793 1.373 . S
N794 C796 1.340 . S
N795 C792 1.368 . S
N795 C796 1.321 . S
N795 Co798 2.135 . S
C796 N794 1.340 . S
C796 N795 1.321 . S
C796 H820 0.930 . S
H797 C792 0.931 . S
Co798 N795 2.135 . S
Co798 N801 2.121 . S
Co798 O806 2.055 . S
Co798 O809 2.039 . S
Co798 N812 2.140 . S
C799 O800 1.227 . S
C799 O809 1.265 . S
O800 C799 1.227 . S
N801 Co798 2.121 . S
N801 C803 1.375 . S
N801 C804 1.313 . S
C802 C803 1.338 . S
C802 N805 1.377 . S
C802 H822 0.930 . S
C803 N801 1.375 . S
C803 C802 1.338 . S
C803 H807 0.931 . S
C804 N801 1.313 . S
C804 N805 1.344 . S
C804 H808 0.930 . S
N805 C802 1.377 . S
N805 C804 1.344 . S
O806 Co798 2.055 . S
O806 C810 1.253 . S
H807 C803 0.931 . S
H808 C804 0.930 . S
O809 Co798 2.039 . S
O809 C799 1.265 . S
C810 O806 1.253 . S
C810 O811 1.227 . S
O811 C810 1.227 . S
N812 Co798 2.140 . S
N812 C815 1.346 . S
N812 C816 1.345 . S
C813 C814 1.387 . S
C813 C817 1.391 . S
C814 C813 1.387 . S
C814 C815 1.369 . S
C814 H823 0.929 . S
C815 N812 1.346 . S
C815 C814 1.369 . S
C815 H818 0.928 . S
C816 N812 1.345 . S
C816 C817 1.371 . S
C816 H819 0.931 . S
C817 C813 1.391 . S
C817 C816 1.371 . S
C817 H824 0.930 . S
H818 C815 0.928 . S
H819 C816 0.931 . S
H820 C796 0.930 . S
H821 C793 0.930 . S
H822 C802 0.930 . S
H823 C814 0.929 . S
H824 C817 0.930 . S
C825 C826 1.351 . S
C825 N828 1.368 . S
C825 H830 0.931 . S
C826 C825 1.351 . S
C826 N827 1.373 . S
C826 H854 0.930 . S
N827 C826 1.373 . S
N827 C829 1.340 . S
N828 C825 1.368 . S
N828 C829 1.321 . S
N828 Co831 2.135 . S
C829 N827 1.340 . S
C829 N828 1.321 . S
C829 H853 0.930 . S
H830 C825 0.931 . S
Co831 N828 2.135 . S
Co831 N834 2.121 . S
Co831 O839 2.055 . S
Co831 O842 2.039 . S
Co831 N845 2.140 . S
C832 O833 1.227 . S
C832 O842 1.265 . S
O833 C832 1.227 . S
N834 Co831 2.121 . S
N834 C836 1.375 . S
N834 C837 1.313 . S
C835 C836 1.338 . S
C835 N838 1.377 . S
C835 H855 0.930 . S
C836 N834 1.375 . S
C836 C835 1.338 . S
C836 H840 0.931 . S
C837 N834 1.313 . S
C837 N838 1.344 . S
C837 H841 0.930 . S
N838 C835 1.377 . S
N838 C837 1.344 . S
O839 Co831 2.055 . S
O839 C843 1.253 . S
H840 C836 0.931 . S
H841 C837 0.930 . S
O842 Co831 2.039 . S
O842 C832 1.265 . S
C843 O839 1.253 . S
C843 O844 1.227 . S
O844 C843 1.227 . S
N845 Co831 2.140 . S
N845 C848 1.346 . S
N845 C849 1.345 . S
C846 C847 1.387 . S
C846 C850 1.391 . S
C847 C846 1.387 . S
C847 C848 1.369 . S
C847 H856 0.929 . S
C848 N845 1.346 . S
C848 C847 1.369 . S
C848 H851 0.928 . S
C849 N845 1.345 . S
C849 C850 1.371 . S
C849 H852 0.931 . S
C850 C846 1.391 . S
C850 C849 1.371 . S
C850 H857 0.930 . S
H851 C848 0.928 . S
H852 C849 0.931 . S
H853 C829 0.930 . S
H854 C826 0.930 . S
H855 C835 0.930 . S
H856 C847 0.929 . S
H857 C850 0.930 . S
C858 C859 1.351 . S
C858 N861 1.368 . S
C858 H863 0.931 . S
C859 C858 1.351 . S
C859 N860 1.373 . S
C859 H887 0.930 . S
N860 C859 1.373 . S
N860 C862 1.340 . S
N861 C858 1.368 . S
N861 C862 1.321 . S
N861 Co864 2.135 . S
C862 N860 1.340 . S
C862 N861 1.321 . S
C862 H886 0.930 . S
H863 C858 0.931 . S
Co864 N861 2.135 . S
Co864 N867 2.121 . S
Co864 O872 2.055 . S
Co864 O875 2.039 . S
Co864 N878 2.140 . S
C865 O866 1.227 . S
C865 O875 1.265 . S
O866 C865 1.227 . S
N867 Co864 2.121 . S
N867 C869 1.375 . S
N867 C870 1.313 . S
C868 C869 1.338 . S
C868 N871 1.377 . S
C868 H888 0.930 . S
C869 N867 1.375 . S
C869 C868 1.338 . S
C869 H873 0.931 . S
C870 N867 1.313 . S
C870 N871 1.344 . S
C870 H874 0.930 . S
N871 C868 1.377 . S
N871 C870 1.344 . S
O872 Co864 2.055 . S
O872 C876 1.253 . S
H873 C869 0.931 . S
H874 C870 0.930 . S
O875 Co864 2.039 . S
O875 C865 1.265 . S
C876 O872 1.253 . S
C876 O877 1.227 . S
O877 C876 1.227 . S
N878 Co864 2.140 . S
N878 C881 1.346 . S
N878 C882 1.345 . S
C879 C880 1.387 . S
C879 C883 1.391 . S
C880 C879 1.387 . S
C880 C881 1.369 . S
C880 H889 0.929 . S
C881 N878 1.346 . S
C881 C880 1.369 . S
C881 H884 0.928 . S
C882 N878 1.345 . S
C882 C883 1.371 . S
C882 H885 0.931 . S
C883 C879 1.391 . S
C883 C882 1.371 . S
C883 H890 0.930 . S
H884 C881 0.928 . S
H885 C882 0.931 . S
H886 C862 0.930 . S
H887 C859 0.930 . S
H888 C868 0.930 . S
H889 C880 0.929 . S
H890 C883 0.930 . S
C891 C892 1.351 . S
C891 N894 1.368 . S
C891 H896 0.931 . S
C892 C891 1.351 . S
C892 N893 1.373 . S
C892 H920 0.930 . S
N893 C892 1.373 . S
N893 C895 1.340 . S
N894 C891 1.368 . S
N894 C895 1.321 . S
N894 Co897 2.135 . S
C895 N893 1.340 . S
C895 N894 1.321 . S
C895 H919 0.930 . S
H896 C891 0.931 . S
Co897 N894 2.135 . S
Co897 N900 2.121 . S
Co897 O905 2.055 . S
Co897 O908 2.039 . S
Co897 N911 2.140 . S
C898 O899 1.227 . S
C898 O908 1.265 . S
O899 C898 1.227 . S
N900 Co897 2.121 . S
N900 C902 1.375 . S
N900 C903 1.313 . S
C901 C902 1.338 . S
C901 N904 1.377 . S
C901 H921 0.930 . S
C902 N900 1.375 . S
C902 C901 1.338 . S
C902 H906 0.931 . S
C903 N900 1.313 . S
C903 N904 1.344 . S
C903 H907 0.930 . S
N904 C901 1.377 . S
N904 C903 1.344 . S
O905 Co897 2.055 . S
O905 C909 1.253 . S
H906 C902 0.931 . S
H907 C903 0.930 . S
O908 Co897 2.039 . S
O908 C898 1.265 . S
C909 O905 1.253 . S
C909 O910 1.227 . S
O910 C909 1.227 . S
N911 Co897 2.140 . S
N911 C914 1.346 . S
N911 C915 1.345 . S
C912 C913 1.387 . S
C912 C916 1.391 . S
C913 C912 1.387 . S
C913 C914 1.369 . S
C913 H922 0.929 . S
C914 N911 1.346 . S
C914 C913 1.369 . S
C914 H917 0.928 . S
C915 N911 1.345 . S
C915 C916 1.371 . S
C915 H918 0.931 . S
C916 C912 1.391 . S
C916 C915 1.371 . S
C916 H923 0.930 . S
H917 C914 0.928 . S
H918 C915 0.931 . S
H919 C895 0.930 . S
H920 C892 0.930 . S
H921 C901 0.930 . S
H922 C913 0.929 . S
H923 C916 0.930 . S
C924 C925 1.351 . S
C924 N927 1.368 . S
C924 H929 0.931 . S
C925 C924 1.351 . S
C925 N926 1.373 . S
C925 H953 0.930 . S
N926 C925 1.373 . S
N926 C928 1.340 . S
N927 C924 1.368 . S
N927 C928 1.321 . S
N927 Co930 2.135 . S
C928 N926 1.340 . S
C928 N927 1.321 . S
C928 H952 0.930 . S
H929 C924 0.931 . S
Co930 N927 2.135 . S
Co930 N933 2.121 . S
Co930 O938 2.055 . S
Co930 O941 2.039 . S
Co930 N944 2.140 . S
C931 O932 1.227 . S
C931 O941 1.265 . S
O932 C931 1.227 . S
N933 Co930 2.121 . S
N933 C935 1.375 . S
N933 C936 1.313 . S
C934 C935 1.338 . S
C934 N937 1.377 . S
C934 H954 0.930 . S
C935 N933 1.375 . S
C935 C934 1.338 . S
C935 H939 0.931 . S
C936 N933 1.313 . S
C936 N937 1.344 . S
C936 H940 0.930 . S
N937 C934 1.377 . S
N937 C936 1.344 . S
O938 Co930 2.055 . S
O938 C942 1.253 . S
H939 C935 0.931 . S
H940 C936 0.930 . S
O941 Co930 2.039 . S
O941 C931 1.265 . S
C942 O938 1.253 . S
C942 O943 1.227 . S
O943 C942 1.227 . S
N944 Co930 2.140 . S
N944 C947 1.346 . S
N944 C948 1.345 . S
C945 C946 1.387 . S
C945 C949 1.391 . S
C946 C945 1.387 . S
C946 C947 1.369 . S
C946 H955 0.929 . S
C947 N944 1.346 . S
C947 C946 1.369 . S
C947 H950 0.928 . S
C948 N944 1.345 . S
C948 C949 1.371 . S
C948 H951 0.931 . S
C949 C945 1.391 . S
C949 C948 1.371 . S
C949 H956 0.930 . S
H950 C947 0.928 . S
H951 C948 0.931 . S
H952 C928 0.930 . S
H953 C925 0.930 . S
H954 C934 0.930 . S
H955 C946 0.929 . S
H956 C949 0.930 . S
C957 C958 1.351 . S
C957 N960 1.368 . S
C957 H962 0.931 . S
C958 C957 1.351 . S
C958 N959 1.373 . S
C958 H986 0.930 . S
N959 C958 1.373 . S
N959 C961 1.340 . S
N960 C957 1.368 . S
N960 C961 1.321 . S
N960 Co963 2.135 . S
C961 N959 1.340 . S
C961 N960 1.321 . S
C961 H985 0.930 . S
H962 C957 0.931 . S
Co963 N960 2.135 . S
Co963 N966 2.121 . S
Co963 O971 2.055 . S
Co963 O974 2.039 . S
Co963 N977 2.140 . S
C964 O965 1.227 . S
C964 O974 1.265 . S
O965 C964 1.227 . S
N966 Co963 2.121 . S
N966 C968 1.375 . S
N966 C969 1.313 . S
C967 C968 1.338 . S
C967 N970 1.377 . S
C967 H987 0.930 . S
C968 N966 1.375 . S
C968 C967 1.338 . S
C968 H972 0.931 . S
C969 N966 1.313 . S
C969 N970 1.344 . S
C969 H973 0.930 . S
N970 C967 1.377 . S
N970 C969 1.344 . S
O971 Co963 2.055 . S
O971 C975 1.253 . S
H972 C968 0.931 . S
H973 C969 0.930 . S
O974 Co963 2.039 . S
O974 C964 1.265 . S
C975 O971 1.253 . S
C975 O976 1.227 . S
O976 C975 1.227 . S
N977 Co963 2.140 . S
N977 C980 1.346 . S
N977 C981 1.345 . S
C978 C979 1.387 . S
C978 C982 1.391 . S
C979 C978 1.387 . S
C979 C980 1.369 . S
C979 H988 0.929 . S
C980 N977 1.346 . S
C980 C979 1.369 . S
C980 H983 0.928 . S
C981 N977 1.345 . S
C981 C982 1.371 . S
C981 H984 0.931 . S
C982 C978 1.391 . S
C982 C981 1.371 . S
C982 H989 0.930 . S
H983 C980 0.928 . S
H984 C981 0.931 . S
H985 C961 0.930 . S
H986 C958 0.930 . S
H987 C967 0.930 . S
H988 C979 0.929 . S
H989 C982 0.930 . S
C990 C991 1.351 . S
C990 N993 1.368 . S
C990 H995 0.931 . S
C991 C990 1.351 . S
C991 N992 1.373 . S
C991 H1019 0.930 . S
N992 C991 1.373 . S
N992 C994 1.340 . S
N993 C990 1.368 . S
N993 C994 1.321 . S
N993 Co996 2.135 . S
C994 N992 1.340 . S
C994 N993 1.321 . S
C994 H1018 0.930 . S
H995 C990 0.931 . S
Co996 N993 2.135 . S
Co996 N999 2.121 . S
Co996 O1004 2.055 . S
Co996 O1007 2.039 . S
Co996 N1010 2.140 . S
C997 O998 1.227 . S
C997 O1007 1.265 . S
O998 C997 1.227 . S
N999 Co996 2.121 . S
N999 C1001 1.375 . S
N999 C1002 1.313 . S
C1000 C1001 1.338 . S
C1000 N1003 1.377 . S
C1000 H1020 0.930 . S
C1001 N999 1.375 . S
C1001 C1000 1.338 . S
C1001 H1005 0.931 . S
C1002 N999 1.313 . S
C1002 N1003 1.344 . S
C1002 H1006 0.930 . S
N1003 C1000 1.377 . S
N1003 C1002 1.344 . S
O1004 Co996 2.055 . S
O1004 C1008 1.253 . S
H1005 C1001 0.931 . S
H1006 C1002 0.930 . S
O1007 Co996 2.039 . S
O1007 C997 1.265 . S
C1008 O1004 1.253 . S
C1008 O1009 1.227 . S
O1009 C1008 1.227 . S
N1010 Co996 2.140 . S
N1010 C1013 1.346 . S
N1010 C1014 1.345 . S
C1011 C1012 1.387 . S
C1011 C1015 1.391 . S
C1012 C1011 1.387 . S
C1012 C1013 1.369 . S
C1012 H1021 0.929 . S
C1013 N1010 1.346 . S
C1013 C1012 1.369 . S
C1013 H1016 0.928 . S
C1014 N1010 1.345 . S
C1014 C1015 1.371 . S
C1014 H1017 0.931 . S
C1015 C1011 1.391 . S
C1015 C1014 1.371 . S
C1015 H1022 0.930 . S
H1016 C1013 0.928 . S
H1017 C1014 0.931 . S
H1018 C994 0.930 . S
H1019 C991 0.930 . S
H1020 C1000 0.930 . S
H1021 C1012 0.929 . S
H1022 C1015 0.930 . S
C1023 C1024 1.351 . S
C1023 N1026 1.368 . S
C1023 H1028 0.931 . S
C1024 C1023 1.351 . S
C1024 N1025 1.373 . S
C1024 H1052 0.930 . S
N1025 C1024 1.373 . S
N1025 C1027 1.340 . S
N1026 C1023 1.368 . S
N1026 C1027 1.321 . S
N1026 Co1029 2.135 . S
C1027 N1025 1.340 . S
C1027 N1026 1.321 . S
C1027 H1051 0.930 . S
H1028 C1023 0.931 . S
Co1029 N1026 2.135 . S
Co1029 N1032 2.121 . S
Co1029 O1037 2.055 . S
Co1029 O1040 2.039 . S
Co1029 N1043 2.140 . S
C1030 O1031 1.227 . S
C1030 O1040 1.265 . S
O1031 C1030 1.227 . S
N1032 Co1029 2.121 . S
N1032 C1034 1.375 . S
N1032 C1035 1.313 . S
C1033 C1034 1.338 . S
C1033 N1036 1.377 . S
C1033 H1053 0.930 . S
C1034 N1032 1.375 . S
C1034 C1033 1.338 . S
C1034 H1038 0.931 . S
C1035 N1032 1.313 . S
C1035 N1036 1.344 . S
C1035 H1039 0.930 . S
N1036 C1033 1.377 . S
N1036 C1035 1.344 . S
O1037 Co1029 2.055 . S
O1037 C1041 1.253 . S
H1038 C1034 0.931 . S
H1039 C1035 0.930 . S
O1040 Co1029 2.039 . S
O1040 C1030 1.265 . S
C1041 O1037 1.253 . S
C1041 O1042 1.227 . S
O1042 C1041 1.227 . S
N1043 Co1029 2.140 . S
N1043 C1046 1.346 . S
N1043 C1047 1.345 . S
C1044 C1045 1.387 . S
C1044 C1048 1.391 . S
C1045 C1044 1.387 . S
C1045 C1046 1.369 . S
C1045 H1054 0.929 . S
C1046 N1043 1.346 . S
C1046 C1045 1.369 . S
C1046 H1049 0.928 . S
C1047 N1043 1.345 . S
C1047 C1048 1.371 . S
C1047 H1050 0.931 . S
C1048 C1044 1.391 . S
C1048 C1047 1.371 . S
C1048 H1055 0.930 . S
H1049 C1046 0.928 . S
H1050 C1047 0.931 . S
H1051 C1027 0.930 . S
H1052 C1024 0.930 . S
H1053 C1033 0.930 . S
H1054 C1045 0.929 . S
H1055 C1048 0.930 . S
H1056 C1068 0.930 . S
H1057 C1070 0.930 1_556 S
H1058 C1071 0.930 . S
H1059 C1075 0.959 . S
H1060 C1075 0.959 . S
H1061 C1075 0.961 . S
H1062 C1076 0.960 . S
H1063 C1076 0.961 . S
H1064 C1076 0.959 . S
H1065 C1079 0.929 . S
H1066 C1080 0.931 . S
H1067 C1082 0.930 . S
C1068 H1056 0.930 . S
C1068 C1069 1.399 . S
C1068 C1073 1.399 . S
C1069 C1068 1.399 . S
C1069 C1070 1.376 . S
C1070 H1057 0.930 1_554 S
C1070 C1069 1.376 . S
C1070 C1071 1.388 . S
C1071 H1058 0.930 . S
C1071 C1070 1.388 . S
C1071 C1072 1.390 . S
C1072 C1071 1.390 . S
C1072 C1073 1.394 . S
C1072 C1078 1.465 . S
C1073 C1068 1.399 . S
C1073 C1072 1.394 . S
C1073 C1074 1.516 . S
C1074 C1073 1.516 . S
C1074 C1075 1.502 . S
C1074 C1076 1.561 . S
C1074 C1077 1.526 . S
C1075 H1059 0.959 . S
C1075 H1060 0.959 . S
C1075 H1061 0.961 . S
C1075 C1074 1.502 . S
C1076 H1062 0.960 . S
C1076 H1063 0.961 . S
C1076 H1064 0.959 . S
C1076 C1074 1.561 . S
C1077 C1074 1.526 . S
C1077 C1078 1.396 . S
C1077 C1082 1.390 . S
C1078 C1072 1.465 . S
C1078 C1077 1.396 . S
C1078 C1079 1.399 . S
C1079 H1065 0.929 . S
C1079 C1078 1.399 . S
C1079 C1080 1.385 . S
C1080 H1066 0.931 . S
C1080 C1079 1.385 . S
C1080 C1081 1.389 . S
C1081 C1080 1.389 . S
C1081 C1082 1.387 . S
C1082 H1067 0.930 . S
C1082 C1077 1.390 . S
C1082 C1081 1.387 . S
H1083 C1095 0.930 . S
H1084 C1097 0.930 . S
H1085 C1098 0.930 . S
H1086 C1102 0.959 . S
H1087 C1102 0.959 . S
H1088 C1102 0.961 . S
H1089 C1103 0.960 . S
H1090 C1103 0.961 . S
H1091 C1103 0.959 . S
H1092 C1106 0.929 . S
H1093 C1107 0.931 1_556 S
H1094 C1109 0.930 . S
C1095 H1083 0.930 . S
C1095 C1096 1.399 . S
C1095 C1100 1.399 . S
C1096 C1095 1.399 . S
C1096 C1097 1.376 . S
C1097 H1084 0.930 . S
C1097 C1096 1.376 . S
C1097 C1098 1.388 . S
C1098 H1085 0.930 . S
C1098 C1097 1.388 . S
C1098 C1099 1.390 . S
C1099 C1098 1.390 . S
C1099 C1100 1.394 . S
C1099 C1105 1.465 . S
C1100 C1095 1.399 . S
C1100 C1099 1.394 . S
C1100 C1101 1.516 . S
C1101 C1100 1.516 . S
C1101 C1102 1.502 . S
C1101 C1103 1.561 . S
C1101 C1104 1.526 . S
C1102 H1086 0.959 . S
C1102 H1087 0.959 . S
C1102 H1088 0.961 . S
C1102 C1101 1.502 . S
C1103 H1089 0.960 . S
C1103 H1090 0.961 . S
C1103 H1091 0.959 . S
C1103 C1101 1.561 . S
C1104 C1101 1.526 . S
C1104 C1105 1.396 . S
C1104 C1109 1.390 . S
C1105 C1099 1.465 . S
C1105 C1104 1.396 . S
C1105 C1106 1.399 . S
C1106 H1092 0.929 . S
C1106 C1105 1.399 . S
C1106 C1107 1.385 . S
C1107 H1093 0.931 1_554 S
C1107 C1106 1.385 . S
C1107 C1108 1.389 . S
C1108 C1107 1.389 . S
C1108 C1109 1.387 . S
C1109 H1094 0.930 . S
C1109 C1104 1.390 . S
C1109 C1108 1.387 . S
H1110 C1122 0.930 . S
H1111 C1124 0.930 . S
H1112 C1125 0.930 . S
H1113 C1129 0.959 . S
H1114 C1129 0.959 . S
H1115 C1129 0.961 . S
H1116 C1130 0.960 . S
H1117 C1130 0.961 . S
H1118 C1130 0.959 . S
H1119 C1133 0.929 . S
H1120 C1134 0.931 . S
H1121 C1136 0.930 . S
C1122 H1110 0.930 . S
C1122 C1123 1.399 . S
C1122 C1127 1.399 . S
C1123 C1122 1.399 . S
C1123 C1124 1.376 . S
C1124 H1111 0.930 . S
C1124 C1123 1.376 . S
C1124 C1125 1.388 . S
C1125 H1112 0.930 . S
C1125 C1124 1.388 . S
C1125 C1126 1.390 . S
C1126 C1125 1.390 . S
C1126 C1127 1.394 . S
C1126 C1132 1.465 . S
C1127 C1122 1.399 . S
C1127 C1126 1.394 . S
C1127 C1128 1.516 . S
C1128 C1127 1.516 . S
C1128 C1129 1.502 . S
C1128 C1130 1.561 . S
C1128 C1131 1.526 . S
C1129 H1113 0.959 . S
C1129 H1114 0.959 . S
C1129 H1115 0.961 . S
C1129 C1128 1.502 . S
C1130 H1116 0.960 . S
C1130 H1117 0.961 . S
C1130 H1118 0.959 . S
C1130 C1128 1.561 . S
C1131 C1128 1.526 . S
C1131 C1132 1.396 . S
C1131 C1136 1.390 . S
C1132 C1126 1.465 . S
C1132 C1131 1.396 . S
C1132 C1133 1.399 . S
C1133 H1119 0.929 . S
C1133 C1132 1.399 . S
C1133 C1134 1.385 . S
C1134 H1120 0.931 . S
C1134 C1133 1.385 . S
C1134 C1135 1.389 . S
C1135 C1134 1.389 . S
C1135 C1136 1.387 . S
C1136 H1121 0.930 . S
C1136 C1131 1.390 . S
C1136 C1135 1.387 . S
H1137 C1149 0.930 . S
H1138 C1151 0.930 . S
H1139 C1152 0.930 . S
H1140 C1156 0.959 . S
H1141 C1156 0.959 . S
H1142 C1156 0.961 . S
H1143 C1157 0.960 . S
H1144 C1157 0.961 . S
H1145 C1157 0.959 . S
H1146 C1160 0.929 . S
H1147 C1161 0.931 1_554 S
H1148 C1163 0.930 . S
C1149 H1137 0.930 . S
C1149 C1150 1.399 . S
C1149 C1154 1.399 . S
C1150 C1149 1.399 . S
C1150 C1151 1.376 . S
C1151 H1138 0.930 . S
C1151 C1150 1.376 . S
C1151 C1152 1.388 . S
C1152 H1139 0.930 . S
C1152 C1151 1.388 . S
C1152 C1153 1.390 . S
C1153 C1152 1.390 . S
C1153 C1154 1.394 . S
C1153 C1159 1.465 . S
C1154 C1149 1.399 . S
C1154 C1153 1.394 . S
C1154 C1155 1.516 . S
C1155 C1154 1.516 . S
C1155 C1156 1.502 . S
C1155 C1157 1.561 . S
C1155 C1158 1.526 . S
C1156 H1140 0.959 . S
C1156 H1141 0.959 . S
C1156 H1142 0.961 . S
C1156 C1155 1.502 . S
C1157 H1143 0.960 . S
C1157 H1144 0.961 . S
C1157 H1145 0.959 . S
C1157 C1155 1.561 . S
C1158 C1155 1.526 . S
C1158 C1159 1.396 . S
C1158 C1163 1.390 . S
C1159 C1153 1.465 . S
C1159 C1158 1.396 . S
C1159 C1160 1.399 . S
C1160 H1146 0.929 . S
C1160 C1159 1.399 . S
C1160 C1161 1.385 . S
C1161 H1147 0.931 1_556 S
C1161 C1160 1.385 . S
C1161 C1162 1.389 . S
C1162 C1161 1.389 . S
C1162 C1163 1.387 . S
C1163 H1148 0.930 . S
C1163 C1158 1.390 . S
C1163 C1162 1.387 . S
H1164 C1176 0.930 . S
H1165 C1178 0.930 . S
H1166 C1179 0.930 . S
H1167 C1183 0.959 . S
H1168 C1183 0.959 . S
H1169 C1183 0.961 . S
H1170 C1184 0.960 . S
H1171 C1184 0.961 . S
H1172 C1184 0.959 . S
H1173 C1187 0.929 . S
H1174 C1188 0.931 . S
H1175 C1190 0.930 . S
C1176 H1164 0.930 . S
C1176 C1177 1.399 . S
C1176 C1181 1.399 . S
C1177 C1176 1.399 . S
C1177 C1178 1.376 . S
C1178 H1165 0.930 . S
C1178 C1177 1.376 . S
C1178 C1179 1.388 . S
C1179 H1166 0.930 . S
C1179 C1178 1.388 . S
C1179 C1180 1.390 . S
C1180 C1179 1.390 . S
C1180 C1181 1.394 . S
C1180 C1186 1.465 . S
C1181 C1176 1.399 . S
C1181 C1180 1.394 . S
C1181 C1182 1.516 . S
C1182 C1181 1.516 . S
C1182 C1183 1.502 . S
C1182 C1184 1.561 . S
C1182 C1185 1.526 . S
C1183 H1167 0.959 . S
C1183 H1168 0.959 . S
C1183 H1169 0.961 . S
C1183 C1182 1.502 . S
C1184 H1170 0.960 . S
C1184 H1171 0.961 . S
C1184 H1172 0.959 . S
C1184 C1182 1.561 . S
C1185 C1182 1.526 . S
C1185 C1186 1.396 . S
C1185 C1190 1.390 . S
C1186 C1180 1.465 . S
C1186 C1185 1.396 . S
C1186 C1187 1.399 . S
C1187 H1173 0.929 . S
C1187 C1186 1.399 . S
C1187 C1188 1.385 . S
C1188 H1174 0.931 . S
C1188 C1187 1.385 . S
C1188 C1189 1.389 . S
C1189 C1188 1.389 . S
C1189 C1190 1.387 . S
C1190 H1175 0.930 . S
C1190 C1185 1.390 . S
C1190 C1189 1.387 . S
H1191 C1203 0.930 . S
H1192 C1205 0.930 . S
H1193 C1206 0.930 . S
H1194 C1210 0.959 . S
H1195 C1210 0.959 . S
H1196 C1210 0.961 . S
H1197 C1211 0.960 . S
H1198 C1211 0.961 . S
H1199 C1211 0.959 . S
H1200 C1214 0.929 . S
H1201 C1215 0.931 . S
H1202 C1217 0.930 . S
C1203 H1191 0.930 . S
C1203 C1204 1.399 . S
C1203 C1208 1.399 . S
C1204 C1203 1.399 . S
C1204 C1205 1.376 . S
C1205 H1192 0.930 . S
C1205 C1204 1.376 . S
C1205 C1206 1.388 . S
C1206 H1193 0.930 . S
C1206 C1205 1.388 . S
C1206 C1207 1.390 . S
C1207 C1206 1.390 . S
C1207 C1208 1.394 . S
C1207 C1213 1.465 . S
C1208 C1203 1.399 . S
C1208 C1207 1.394 . S
C1208 C1209 1.516 . S
C1209 C1208 1.516 . S
C1209 C1210 1.502 . S
C1209 C1211 1.561 . S
C1209 C1212 1.526 . S
C1210 H1194 0.959 . S
C1210 H1195 0.959 . S
C1210 H1196 0.961 . S
C1210 C1209 1.502 . S
C1211 H1197 0.960 . S
C1211 H1198 0.961 . S
C1211 H1199 0.959 . S
C1211 C1209 1.561 . S
C1212 C1209 1.526 . S
C1212 C1213 1.396 . S
C1212 C1217 1.390 . S
C1213 C1207 1.465 . S
C1213 C1212 1.396 . S
C1213 C1214 1.399 . S
C1214 H1200 0.929 . S
C1214 C1213 1.399 . S
C1214 C1215 1.385 . S
C1215 H1201 0.931 . S
C1215 C1214 1.385 . S
C1215 C1216 1.389 . S
C1216 C1215 1.389 . S
C1216 C1217 1.387 . S
C1217 H1202 0.930 . S
C1217 C1212 1.390 . S
C1217 C1216 1.387 . S
H1218 C1230 0.930 . S
H1219 C1232 0.930 . S
H1220 C1233 0.930 . S
H1221 C1237 0.959 . S
H1222 C1237 0.959 . S
H1223 C1237 0.961 . S
H1224 C1238 0.960 . S
H1225 C1238 0.961 . S
H1226 C1238 0.959 . S
H1227 C1241 0.929 . S
H1228 C1242 0.931 . S
H1229 C1244 0.930 . S
C1230 H1218 0.930 . S
C1230 C1231 1.399 . S
C1230 C1235 1.399 . S
C1231 C1230 1.399 . S
C1231 C1232 1.376 . S
C1232 H1219 0.930 . S
C1232 C1231 1.376 . S
C1232 C1233 1.388 . S
C1233 H1220 0.930 . S
C1233 C1232 1.388 . S
C1233 C1234 1.390 . S
C1234 C1233 1.390 . S
C1234 C1235 1.394 . S
C1234 C1240 1.465 . S
C1235 C1230 1.399 . S
C1235 C1234 1.394 . S
C1235 C1236 1.516 . S
C1236 C1235 1.516 . S
C1236 C1237 1.502 . S
C1236 C1238 1.561 . S
C1236 C1239 1.526 . S
C1237 H1221 0.959 . S
C1237 H1222 0.959 . S
C1237 H1223 0.961 . S
C1237 C1236 1.502 . S
C1238 H1224 0.960 . S
C1238 H1225 0.961 . S
C1238 H1226 0.959 . S
C1238 C1236 1.561 . S
C1239 C1236 1.526 . S
C1239 C1240 1.396 . S
C1239 C1244 1.390 . S
C1240 C1234 1.465 . S
C1240 C1239 1.396 . S
C1240 C1241 1.399 . S
C1241 H1227 0.929 . S
C1241 C1240 1.399 . S
C1241 C1242 1.385 . S
C1242 H1228 0.931 . S
C1242 C1241 1.385 . S
C1242 C1243 1.389 . S
C1243 C1242 1.389 . S
C1243 C1244 1.387 . S
C1244 H1229 0.930 . S
C1244 C1239 1.390 . S
C1244 C1243 1.387 . S
H1245 C1257 0.930 . S
H1246 C1259 0.930 . S
H1247 C1260 0.930 . S
H1248 C1264 0.959 . S
H1249 C1264 0.959 . S
H1250 C1264 0.961 . S
H1251 C1265 0.960 . S
H1252 C1265 0.961 . S
H1253 C1265 0.959 . S
H1254 C1268 0.929 . S
H1255 C1269 0.931 . S
H1256 C1271 0.930 . S
C1257 H1245 0.930 . S
C1257 C1258 1.399 . S
C1257 C1262 1.399 . S
C1258 C1257 1.399 . S
C1258 C1259 1.376 . S
C1259 H1246 0.930 . S
C1259 C1258 1.376 . S
C1259 C1260 1.388 . S
C1260 H1247 0.930 . S
C1260 C1259 1.388 . S
C1260 C1261 1.390 . S
C1261 C1260 1.390 . S
C1261 C1262 1.394 . S
C1261 C1267 1.465 . S
C1262 C1257 1.399 . S
C1262 C1261 1.394 . S
C1262 C1263 1.516 . S
C1263 C1262 1.516 . S
C1263 C1264 1.502 . S
C1263 C1265 1.561 . S
C1263 C1266 1.526 . S
C1264 H1248 0.959 . S
C1264 H1249 0.959 . S
C1264 H1250 0.961 . S
C1264 C1263 1.502 . S
C1265 H1251 0.960 . S
C1265 H1252 0.961 . S
C1265 H1253 0.959 . S
C1265 C1263 1.561 . S
C1266 C1263 1.526 . S
C1266 C1267 1.396 . S
C1266 C1271 1.390 . S
C1267 C1261 1.465 . S
C1267 C1266 1.396 . S
C1267 C1268 1.399 . S
C1268 H1254 0.929 . S
C1268 C1267 1.399 . S
C1268 C1269 1.385 . S
C1269 H1255 0.931 . S
C1269 C1268 1.385 . S
C1269 C1270 1.389 . S
C1270 C1269 1.389 . S
C1270 C1271 1.387 . S
C1271 H1256 0.930 . S
C1271 C1266 1.390 . S
C1271 C1270 1.387 . S
H1272 C1284 0.930 . S
H1273 C1286 0.930 . S
H1274 C1287 0.930 . S
H1275 C1291 0.959 . S
H1276 C1291 0.959 . S
H1277 C1291 0.961 . S
H1278 C1292 0.960 . S
H1279 C1292 0.961 . S
H1280 C1292 0.959 . S
H1281 C1295 0.929 . S
H1282 C1296 0.931 . S
H1283 C1298 0.930 . S
C1284 H1272 0.930 . S
C1284 C1285 1.399 . S
C1284 C1289 1.399 . S
C1285 C1284 1.399 . S
C1285 C1286 1.376 . S
C1286 H1273 0.930 . S
C1286 C1285 1.376 . S
C1286 C1287 1.388 . S
C1287 H1274 0.930 . S
C1287 C1286 1.388 . S
C1287 C1288 1.390 . S
C1288 C1287 1.390 . S
C1288 C1289 1.394 . S
C1288 C1294 1.465 . S
C1289 C1284 1.399 . S
C1289 C1288 1.394 . S
C1289 C1290 1.516 . S
C1290 C1289 1.516 . S
C1290 C1291 1.502 . S
C1290 C1292 1.561 . S
C1290 C1293 1.526 . S
C1291 H1275 0.959 . S
C1291 H1276 0.959 . S
C1291 H1277 0.961 . S
C1291 C1290 1.502 . S
C1292 H1278 0.960 . S
C1292 H1279 0.961 . S
C1292 H1280 0.959 . S
C1292 C1290 1.561 . S
C1293 C1290 1.526 . S
C1293 C1294 1.396 . S
C1293 C1298 1.390 . S
C1294 C1288 1.465 . S
C1294 C1293 1.396 . S
C1294 C1295 1.399 . S
C1295 H1281 0.929 . S
C1295 C1294 1.399 . S
C1295 C1296 1.385 . S
C1296 H1282 0.931 . S
C1296 C1295 1.385 . S
C1296 C1297 1.389 . S
C1297 C1296 1.389 . S
C1297 C1298 1.387 . S
C1298 H1283 0.930 . S
C1298 C1293 1.390 . S
C1298 C1297 1.387 . S
H1299 C1311 0.930 . S
H1300 C1313 0.930 . S
H1301 C1314 0.930 . S
H1302 C1318 0.959 . S
H1303 C1318 0.959 . S
H1304 C1318 0.961 . S
H1305 C1319 0.960 . S
H1306 C1319 0.961 . S
H1307 C1319 0.959 . S
H1308 C1322 0.929 . S
H1309 C1323 0.931 . S
H1310 C1325 0.930 . S
C1311 H1299 0.930 . S
C1311 C1312 1.399 . S
C1311 C1316 1.399 . S
C1312 C1311 1.399 . S
C1312 C1313 1.376 . S
C1313 H1300 0.930 . S
C1313 C1312 1.376 . S
C1313 C1314 1.388 . S
C1314 H1301 0.930 . S
C1314 C1313 1.388 . S
C1314 C1315 1.390 . S
C1315 C1314 1.390 . S
C1315 C1316 1.394 . S
C1315 C1321 1.465 . S
C1316 C1311 1.399 . S
C1316 C1315 1.394 . S
C1316 C1317 1.516 . S
C1317 C1316 1.516 . S
C1317 C1318 1.502 . S
C1317 C1319 1.561 . S
C1317 C1320 1.526 . S
C1318 H1302 0.959 . S
C1318 H1303 0.959 . S
C1318 H1304 0.961 . S
C1318 C1317 1.502 . S
C1319 H1305 0.960 . S
C1319 H1306 0.961 . S
C1319 H1307 0.959 . S
C1319 C1317 1.561 . S
C1320 C1317 1.526 . S
C1320 C1321 1.396 . S
C1320 C1325 1.390 . S
C1321 C1315 1.465 . S
C1321 C1320 1.396 . S
C1321 C1322 1.399 . S
C1322 H1308 0.929 . S
C1322 C1321 1.399 . S
C1322 C1323 1.385 . S
C1323 H1309 0.931 . S
C1323 C1322 1.385 . S
C1323 C1324 1.389 . S
C1324 C1323 1.389 . S
C1324 C1325 1.387 . S
C1325 H1310 0.930 . S
C1325 C1320 1.390 . S
C1325 C1324 1.387 . S
H1326 C1338 0.930 . S
H1327 C1340 0.930 . S
H1328 C1341 0.930 . S
H1329 C1345 0.959 . S
H1330 C1345 0.959 . S
H1331 C1345 0.961 . S
H1332 C1346 0.960 . S
H1333 C1346 0.961 . S
H1334 C1346 0.959 . S
H1335 C1349 0.929 . S
H1336 C1350 0.931 . S
H1337 C1352 0.930 . S
C1338 H1326 0.930 . S
C1338 C1339 1.399 . S
C1338 C1343 1.399 . S
C1339 C1338 1.399 . S
C1339 C1340 1.376 . S
C1340 H1327 0.930 . S
C1340 C1339 1.376 . S
C1340 C1341 1.388 . S
C1341 H1328 0.930 . S
C1341 C1340 1.388 . S
C1341 C1342 1.390 . S
C1342 C1341 1.390 . S
C1342 C1343 1.394 . S
C1342 C1348 1.465 . S
C1343 C1338 1.399 . S
C1343 C1342 1.394 . S
C1343 C1344 1.516 . S
C1344 C1343 1.516 . S
C1344 C1345 1.502 . S
C1344 C1346 1.561 . S
C1344 C1347 1.526 . S
C1345 H1329 0.959 . S
C1345 H1330 0.959 . S
C1345 H1331 0.961 . S
C1345 C1344 1.502 . S
C1346 H1332 0.960 . S
C1346 H1333 0.961 . S
C1346 H1334 0.959 . S
C1346 C1344 1.561 . S
C1347 C1344 1.526 . S
C1347 C1348 1.396 . S
C1347 C1352 1.390 . S
C1348 C1342 1.465 . S
C1348 C1347 1.396 . S
C1348 C1349 1.399 . S
C1349 H1335 0.929 . S
C1349 C1348 1.399 . S
C1349 C1350 1.385 . S
C1350 H1336 0.931 . S
C1350 C1349 1.385 . S
C1350 C1351 1.389 . S
C1351 C1350 1.389 . S
C1351 C1352 1.387 . S
C1352 H1337 0.930 . S
C1352 C1347 1.390 . S
C1352 C1351 1.387 . S
H1353 C1365 0.930 . S
H1354 C1367 0.930 . S
H1355 C1368 0.930 . S
H1356 C1372 0.959 . S
H1357 C1372 0.959 . S
H1358 C1372 0.961 . S
H1359 C1373 0.960 . S
H1360 C1373 0.961 . S
H1361 C1373 0.959 . S
H1362 C1376 0.929 . S
H1363 C1377 0.931 . S
H1364 C1379 0.930 . S
C1365 H1353 0.930 . S
C1365 C1366 1.399 . S
C1365 C1370 1.399 . S
C1366 C1365 1.399 . S
C1366 C1367 1.376 . S
C1367 H1354 0.930 . S
C1367 C1366 1.376 . S
C1367 C1368 1.388 . S
C1368 H1355 0.930 . S
C1368 C1367 1.388 . S
C1368 C1369 1.390 . S
C1369 C1368 1.390 . S
C1369 C1370 1.394 . S
C1369 C1375 1.465 . S
C1370 C1365 1.399 . S
C1370 C1369 1.394 . S
C1370 C1371 1.516 . S
C1371 C1370 1.516 . S
C1371 C1372 1.502 . S
C1371 C1373 1.561 . S
C1371 C1374 1.526 . S
C1372 H1356 0.959 . S
C1372 H1357 0.959 . S
C1372 H1358 0.961 . S
C1372 C1371 1.502 . S
C1373 H1359 0.960 . S
C1373 H1360 0.961 . S
C1373 H1361 0.959 . S
C1373 C1371 1.561 . S
C1374 C1371 1.526 . S
C1374 C1375 1.396 . S
C1374 C1379 1.390 . S
C1375 C1369 1.465 . S
C1375 C1374 1.396 . S
C1375 C1376 1.399 . S
C1376 H1362 0.929 . S
C1376 C1375 1.399 . S
C1376 C1377 1.385 . S
C1377 H1363 0.931 . S
C1377 C1376 1.385 . S
C1377 C1378 1.389 . S
C1378 C1377 1.389 . S
C1378 C1379 1.387 . S
C1379 H1364 0.930 . S
C1379 C1374 1.390 . S
C1379 C1378 1.387 . S
H1380 C1392 0.930 . S
H1381 C1394 0.930 1_556 S
H1382 C1395 0.930 . S
H1383 C1399 0.959 . S
H1384 C1399 0.959 . S
H1385 C1399 0.961 . S
H1386 C1400 0.960 . S
H1387 C1400 0.961 . S
H1388 C1400 0.959 . S
H1389 C1403 0.929 . S
H1390 C1404 0.931 . S
H1391 C1406 0.930 . S
C1392 H1380 0.930 . S
C1392 C1393 1.399 . S
C1392 C1397 1.399 . S
C1393 C1392 1.399 . S
C1393 C1394 1.376 . S
C1394 H1381 0.930 1_554 S
C1394 C1393 1.376 . S
C1394 C1395 1.388 . S
C1395 H1382 0.930 . S
C1395 C1394 1.388 . S
C1395 C1396 1.390 . S
C1396 C1395 1.390 . S
C1396 C1397 1.394 . S
C1396 C1402 1.465 . S
C1397 C1392 1.399 . S
C1397 C1396 1.394 . S
C1397 C1398 1.516 . S
C1398 C1397 1.516 . S
C1398 C1399 1.502 . S
C1398 C1400 1.561 . S
C1398 C1401 1.526 . S
C1399 H1383 0.959 . S
C1399 H1384 0.959 . S
C1399 H1385 0.961 . S
C1399 C1398 1.502 . S
C1400 H1386 0.960 . S
C1400 H1387 0.961 . S
C1400 H1388 0.959 . S
C1400 C1398 1.561 . S
C1401 C1398 1.526 . S
C1401 C1402 1.396 . S
C1401 C1406 1.390 . S
C1402 C1396 1.465 . S
C1402 C1401 1.396 . S
C1402 C1403 1.399 . S
C1403 H1389 0.929 . S
C1403 C1402 1.399 . S
C1403 C1404 1.385 . S
C1404 H1390 0.931 . S
C1404 C1403 1.385 . S
C1404 C1405 1.389 . S
C1405 C1404 1.389 . S
C1405 C1406 1.387 . S
C1406 H1391 0.930 . S
C1406 C1401 1.390 . S
C1406 C1405 1.387 . S
H1407 C1419 0.930 . S
H1408 C1421 0.930 1_556 S
H1409 C1422 0.930 . S
H1410 C1426 0.959 . S
H1411 C1426 0.959 . S
H1412 C1426 0.961 . S
H1413 C1427 0.960 . S
H1414 C1427 0.961 . S
H1415 C1427 0.959 . S
H1416 C1430 0.929 . S
H1417 C1431 0.931 . S
H1418 C1433 0.930 . S
C1419 H1407 0.930 . S
C1419 C1420 1.399 . S
C1419 C1424 1.399 . S
C1420 C1419 1.399 . S
C1420 C1421 1.376 . S
C1421 H1408 0.930 1_554 S
C1421 C1420 1.376 . S
C1421 C1422 1.388 . S
C1422 H1409 0.930 . S
C1422 C1421 1.388 . S
C1422 C1423 1.390 . S
C1423 C1422 1.390 . S
C1423 C1424 1.394 . S
C1423 C1429 1.465 . S
C1424 C1419 1.399 . S
C1424 C1423 1.394 . S
C1424 C1425 1.516 . S
C1425 C1424 1.516 . S
C1425 C1426 1.502 . S
C1425 C1427 1.561 . S
C1425 C1428 1.526 . S
C1426 H1410 0.959 . S
C1426 H1411 0.959 . S
C1426 H1412 0.961 . S
C1426 C1425 1.502 . S
C1427 H1413 0.960 . S
C1427 H1414 0.961 . S
C1427 H1415 0.959 . S
C1427 C1425 1.561 . S
C1428 C1425 1.526 . S
C1428 C1429 1.396 . S
C1428 C1433 1.390 . S
C1429 C1423 1.465 . S
C1429 C1428 1.396 . S
C1429 C1430 1.399 . S
C1430 H1416 0.929 . S
C1430 C1429 1.399 . S
C1430 C1431 1.385 . S
C1431 H1417 0.931 . S
C1431 C1430 1.385 . S
C1431 C1432 1.389 . S
C1432 C1431 1.389 . S
C1432 C1433 1.387 . S
C1433 H1418 0.930 . S
C1433 C1428 1.390 . S
C1433 C1432 1.387 . S
H1434 C1446 0.930 . S
H1435 C1448 0.930 . S
H1436 C1449 0.930 . S
H1437 C1453 0.959 . S
H1438 C1453 0.959 . S
H1439 C1453 0.961 . S
H1440 C1454 0.960 . S
H1441 C1454 0.961 . S
H1442 C1454 0.959 . S
H1443 C1457 0.929 . S
H1444 C1458 0.931 . S
H1445 C1460 0.930 . S
C1446 H1434 0.930 . S
C1446 C1447 1.399 . S
C1446 C1451 1.399 . S
C1447 C1446 1.399 . S
C1447 C1448 1.376 . S
C1448 H1435 0.930 . S
C1448 C1447 1.376 . S
C1448 C1449 1.388 . S
C1449 H1436 0.930 . S
C1449 C1448 1.388 . S
C1449 C1450 1.390 . S
C1450 C1449 1.390 . S
C1450 C1451 1.394 . S
C1450 C1456 1.465 . S
C1451 C1446 1.399 . S
C1451 C1450 1.394 . S
C1451 C1452 1.516 . S
C1452 C1451 1.516 . S
C1452 C1453 1.502 . S
C1452 C1454 1.561 . S
C1452 C1455 1.526 . S
C1453 H1437 0.959 . S
C1453 H1438 0.959 . S
C1453 H1439 0.961 . S
C1453 C1452 1.502 . S
C1454 H1440 0.960 . S
C1454 H1441 0.961 . S
C1454 H1442 0.959 . S
C1454 C1452 1.561 . S
C1455 C1452 1.526 . S
C1455 C1456 1.396 . S
C1455 C1460 1.390 . S
C1456 C1450 1.465 . S
C1456 C1455 1.396 . S
C1456 C1457 1.399 . S
C1457 H1443 0.929 . S
C1457 C1456 1.399 . S
C1457 C1458 1.385 . S
C1458 H1444 0.931 . S
C1458 C1457 1.385 . S
C1458 C1459 1.389 . S
C1459 C1458 1.389 . S
C1459 C1460 1.387 . S
C1460 H1445 0.930 . S
C1460 C1455 1.390 . S
C1460 C1459 1.387 . S
H1461 C1473 0.930 . S
H1462 C1475 0.930 1_554 S
H1463 C1476 0.930 . S
H1464 C1480 0.959 . S
H1465 C1480 0.959 . S
H1466 C1480 0.961 . S
H1467 C1481 0.960 . S
H1468 C1481 0.961 . S
H1469 C1481 0.959 . S
H1470 C1484 0.929 . S
H1471 C1485 0.931 . S
H1472 C1487 0.930 . S
C1473 H1461 0.930 . S
C1473 C1474 1.399 . S
C1473 C1478 1.399 . S
C1474 C1473 1.399 . S
C1474 C1475 1.376 . S
C1475 H1462 0.930 1_556 S
C1475 C1474 1.376 . S
C1475 C1476 1.388 . S
C1476 H1463 0.930 . S
C1476 C1475 1.388 . S
C1476 C1477 1.390 . S
C1477 C1476 1.390 . S
C1477 C1478 1.394 . S
C1477 C1483 1.465 . S
C1478 C1473 1.399 . S
C1478 C1477 1.394 . S
C1478 C1479 1.516 . S
C1479 C1478 1.516 . S
C1479 C1480 1.502 . S
C1479 C1481 1.561 . S
C1479 C1482 1.526 . S
C1480 H1464 0.959 . S
C1480 H1465 0.959 . S
C1480 H1466 0.961 . S
C1480 C1479 1.502 . S
C1481 H1467 0.960 . S
C1481 H1468 0.961 . S
C1481 H1469 0.959 . S
C1481 C1479 1.561 . S
C1482 C1479 1.526 . S
C1482 C1483 1.396 . S
C1482 C1487 1.390 . S
C1483 C1477 1.465 . S
C1483 C1482 1.396 . S
C1483 C1484 1.399 . S
C1484 H1470 0.929 . S
C1484 C1483 1.399 . S
C1484 C1485 1.385 . S
C1485 H1471 0.931 . S
C1485 C1484 1.385 . S
C1485 C1486 1.389 . S
C1486 C1485 1.389 . S
C1486 C1487 1.387 . S
C1487 H1472 0.930 . S
C1487 C1482 1.390 . S
C1487 C1486 1.387 . S
H1488 C1500 0.930 . S
H1489 C1502 0.930 . S
H1490 C1503 0.930 . S
H1491 C1507 0.959 . S
H1492 C1507 0.959 . S
H1493 C1507 0.961 . S
H1494 C1508 0.960 . S
H1495 C1508 0.961 . S
H1496 C1508 0.959 . S
H1497 C1511 0.929 . S
H1498 C1512 0.931 . S
H1499 C1514 0.930 . S
C1500 H1488 0.930 . S
C1500 C1501 1.399 . S
C1500 C1505 1.399 . S
C1501 C1500 1.399 . S
C1501 C1502 1.376 . S
C1502 H1489 0.930 . S
C1502 C1501 1.376 . S
C1502 C1503 1.388 . S
C1503 H1490 0.930 . S
C1503 C1502 1.388 . S
C1503 C1504 1.390 . S
C1504 C1503 1.390 . S
C1504 C1505 1.394 . S
C1504 C1510 1.465 . S
C1505 C1500 1.399 . S
C1505 C1504 1.394 . S
C1505 C1506 1.516 . S
C1506 C1505 1.516 . S
C1506 C1507 1.502 . S
C1506 C1508 1.561 . S
C1506 C1509 1.526 . S
C1507 H1491 0.959 . S
C1507 H1492 0.959 . S
C1507 H1493 0.961 . S
C1507 C1506 1.502 . S
C1508 H1494 0.960 . S
C1508 H1495 0.961 . S
C1508 H1496 0.959 . S
C1508 C1506 1.561 . S
C1509 C1506 1.526 . S
C1509 C1510 1.396 . S
C1509 C1514 1.390 . S
C1510 C1504 1.465 . S
C1510 C1509 1.396 . S
C1510 C1511 1.399 . S
C1511 H1497 0.929 . S
C1511 C1510 1.399 . S
C1511 C1512 1.385 . S
C1512 H1498 0.931 . S
C1512 C1511 1.385 . S
C1512 C1513 1.389 . S
C1513 C1512 1.389 . S
C1513 C1514 1.387 . S
C1514 H1499 0.930 . S
C1514 C1509 1.390 . S
C1514 C1513 1.387 . S
H1515 C1527 0.930 . S
H1516 C1529 0.930 . S
H1517 C1530 0.930 . S
H1518 C1534 0.959 . S
H1519 C1534 0.959 . S
H1520 C1534 0.961 . S
H1521 C1535 0.960 . S
H1522 C1535 0.961 . S
H1523 C1535 0.959 . S
H1524 C1538 0.929 . S
H1525 C1539 0.931 . S
H1526 C1541 0.930 . S
C1527 H1515 0.930 . S
C1527 C1528 1.399 . S
C1527 C1532 1.399 . S
C1528 C1527 1.399 . S
C1528 C1529 1.376 . S
C1529 H1516 0.930 . S
C1529 C1528 1.376 . S
C1529 C1530 1.388 . S
C1530 H1517 0.930 . S
C1530 C1529 1.388 . S
C1530 C1531 1.390 . S
C1531 C1530 1.390 . S
C1531 C1532 1.394 . S
C1531 C1537 1.465 . S
C1532 C1527 1.399 . S
C1532 C1531 1.394 . S
C1532 C1533 1.516 . S
C1533 C1532 1.516 . S
C1533 C1534 1.502 . S
C1533 C1535 1.561 . S
C1533 C1536 1.526 . S
C1534 H1518 0.959 . S
C1534 H1519 0.959 . S
C1534 H1520 0.961 . S
C1534 C1533 1.502 . S
C1535 H1521 0.960 . S
C1535 H1522 0.961 . S
C1535 H1523 0.959 . S
C1535 C1533 1.561 . S
C1536 C1533 1.526 . S
C1536 C1537 1.396 . S
C1536 C1541 1.390 . S
C1537 C1531 1.465 . S
C1537 C1536 1.396 . S
C1537 C1538 1.399 . S
C1538 H1524 0.929 . S
C1538 C1537 1.399 . S
C1538 C1539 1.385 . S
C1539 H1525 0.931 . S
C1539 C1538 1.385 . S
C1539 C1540 1.389 . S
C1540 C1539 1.389 . S
C1540 C1541 1.387 . S
C1541 H1526 0.930 . S
C1541 C1536 1.390 . S
C1541 C1540 1.387 . S
H1542 C1554 0.930 . S
H1543 C1556 0.930 . S
H1544 C1557 0.930 . S
H1545 C1561 0.959 . S
H1546 C1561 0.959 . S
H1547 C1561 0.961 . S
H1548 C1562 0.960 . S
H1549 C1562 0.961 . S
H1550 C1562 0.959 . S
H1551 C1565 0.929 . S
H1552 C1566 0.931 . S
H1553 C1568 0.930 . S
C1554 H1542 0.930 . S
C1554 C1555 1.399 . S
C1554 C1559 1.399 . S
C1555 C1554 1.399 . S
C1555 C1556 1.376 . S
C1556 H1543 0.930 . S
C1556 C1555 1.376 . S
C1556 C1557 1.388 . S
C1557 H1544 0.930 . S
C1557 C1556 1.388 . S
C1557 C1558 1.390 . S
C1558 C1557 1.390 . S
C1558 C1559 1.394 . S
C1558 C1564 1.465 . S
C1559 C1554 1.399 . S
C1559 C1558 1.394 . S
C1559 C1560 1.516 . S
C1560 C1559 1.516 . S
C1560 C1561 1.502 . S
C1560 C1562 1.561 . S
C1560 C1563 1.526 . S
C1561 H1545 0.959 . S
C1561 H1546 0.959 . S
C1561 H1547 0.961 . S
C1561 C1560 1.502 . S
C1562 H1548 0.960 . S
C1562 H1549 0.961 . S
C1562 H1550 0.959 . S
C1562 C1560 1.561 . S
C1563 C1560 1.526 . S
C1563 C1564 1.396 . S
C1563 C1568 1.390 . S
C1564 C1558 1.465 . S
C1564 C1563 1.396 . S
C1564 C1565 1.399 . S
C1565 H1551 0.929 . S
C1565 C1564 1.399 . S
C1565 C1566 1.385 . S
C1566 H1552 0.931 . S
C1566 C1565 1.385 . S
C1566 C1567 1.389 . S
C1567 C1566 1.389 . S
C1567 C1568 1.387 . S
C1568 H1553 0.930 . S
C1568 C1563 1.390 . S
C1568 C1567 1.387 . S
H1569 C1581 0.930 . S
H1570 C1583 0.930 . S
H1571 C1584 0.930 . S
H1572 C1588 0.959 . S
H1573 C1588 0.959 . S
H1574 C1588 0.961 . S
H1575 C1589 0.960 . S
H1576 C1589 0.961 . S
H1577 C1589 0.959 . S
H1578 C1592 0.929 . S
H1579 C1593 0.931 . S
H1580 C1595 0.930 . S
C1581 H1569 0.930 . S
C1581 C1582 1.399 . S
C1581 C1586 1.399 . S
C1582 C1581 1.399 . S
C1582 C1583 1.376 . S
C1583 H1570 0.930 . S
C1583 C1582 1.376 . S
C1583 C1584 1.388 . S
C1584 H1571 0.930 . S
C1584 C1583 1.388 . S
C1584 C1585 1.390 . S
C1585 C1584 1.390 . S
C1585 C1586 1.394 . S
C1585 C1591 1.465 . S
C1586 C1581 1.399 . S
C1586 C1585 1.394 . S
C1586 C1587 1.516 . S
C1587 C1586 1.516 . S
C1587 C1588 1.502 . S
C1587 C1589 1.561 . S
C1587 C1590 1.526 . S
C1588 H1572 0.959 . S
C1588 H1573 0.959 . S
C1588 H1574 0.961 . S
C1588 C1587 1.502 . S
C1589 H1575 0.960 . S
C1589 H1576 0.961 . S
C1589 H1577 0.959 . S
C1589 C1587 1.561 . S
C1590 C1587 1.526 . S
C1590 C1591 1.396 . S
C1590 C1595 1.390 . S
C1591 C1585 1.465 . S
C1591 C1590 1.396 . S
C1591 C1592 1.399 . S
C1592 H1578 0.929 . S
C1592 C1591 1.399 . S
C1592 C1593 1.385 . S
C1593 H1579 0.931 . S
C1593 C1592 1.385 . S
C1593 C1594 1.389 . S
C1594 C1593 1.389 . S
C1594 C1595 1.387 . S
C1595 H1580 0.930 . S
C1595 C1590 1.390 . S
C1595 C1594 1.387 . S
H1596 C1608 0.930 . S
H1597 C1610 0.930 . S
H1598 C1611 0.930 . S
H1599 C1615 0.959 . S
H1600 C1615 0.959 . S
H1601 C1615 0.961 . S
H1602 C1616 0.960 . S
H1603 C1616 0.961 . S
H1604 C1616 0.959 . S
H1605 C1619 0.929 . S
H1606 C1620 0.931 . S
H1607 C1622 0.930 . S
C1608 H1596 0.930 . S
C1608 C1609 1.399 . S
C1608 C1613 1.399 . S
C1609 C1608 1.399 . S
C1609 C1610 1.376 . S
C1610 H1597 0.930 . S
C1610 C1609 1.376 . S
C1610 C1611 1.388 . S
C1611 H1598 0.930 . S
C1611 C1610 1.388 . S
C1611 C1612 1.390 . S
C1612 C1611 1.390 . S
C1612 C1613 1.394 . S
C1612 C1618 1.465 . S
C1613 C1608 1.399 . S
C1613 C1612 1.394 . S
C1613 C1614 1.516 . S
C1614 C1613 1.516 . S
C1614 C1615 1.502 . S
C1614 C1616 1.561 . S
C1614 C1617 1.526 . S
C1615 H1599 0.959 . S
C1615 H1600 0.959 . S
C1615 H1601 0.961 . S
C1615 C1614 1.502 . S
C1616 H1602 0.960 . S
C1616 H1603 0.961 . S
C1616 H1604 0.959 . S
C1616 C1614 1.561 . S
C1617 C1614 1.526 . S
C1617 C1618 1.396 . S
C1617 C1622 1.390 . S
C1618 C1612 1.465 . S
C1618 C1617 1.396 . S
C1618 C1619 1.399 . S
C1619 H1605 0.929 . S
C1619 C1618 1.399 . S
C1619 C1620 1.385 . S
C1620 H1606 0.931 . S
C1620 C1619 1.385 . S
C1620 C1621 1.389 . S
C1621 C1620 1.389 . S
C1621 C1622 1.387 . S
C1622 H1607 0.930 . S
C1622 C1617 1.390 . S
C1622 C1621 1.387 . S
H1623 C1635 0.930 . S
H1624 C1637 0.930 . S
H1625 C1638 0.930 . S
H1626 C1642 0.959 . S
H1627 C1642 0.959 . S
H1628 C1642 0.961 . S
H1629 C1643 0.960 . S
H1630 C1643 0.961 . S
H1631 C1643 0.959 . S
H1632 C1646 0.929 . S
H1633 C1647 0.931 . S
H1634 C1649 0.930 . S
C1635 H1623 0.930 . S
C1635 C1636 1.399 . S
C1635 C1640 1.399 . S
C1636 C1635 1.399 . S
C1636 C1637 1.376 . S
C1637 H1624 0.930 . S
C1637 C1636 1.376 . S
C1637 C1638 1.388 . S
C1638 H1625 0.930 . S
C1638 C1637 1.388 . S
C1638 C1639 1.390 . S
C1639 C1638 1.390 . S
C1639 C1640 1.394 . S
C1639 C1645 1.465 . S
C1640 C1635 1.399 . S
C1640 C1639 1.394 . S
C1640 C1641 1.516 . S
C1641 C1640 1.516 . S
C1641 C1642 1.502 . S
C1641 C1643 1.561 . S
C1641 C1644 1.526 . S
C1642 H1626 0.959 . S
C1642 H1627 0.959 . S
C1642 H1628 0.961 . S
C1642 C1641 1.502 . S
C1643 H1629 0.960 . S
C1643 H1630 0.961 . S
C1643 H1631 0.959 . S
C1643 C1641 1.561 . S
C1644 C1641 1.526 . S
C1644 C1645 1.396 . S
C1644 C1649 1.390 . S
C1645 C1639 1.465 . S
C1645 C1644 1.396 . S
C1645 C1646 1.399 . S
C1646 H1632 0.929 . S
C1646 C1645 1.399 . S
C1646 C1647 1.385 . S
C1647 H1633 0.931 . S
C1647 C1646 1.385 . S
C1647 C1648 1.389 . S
C1648 C1647 1.389 . S
C1648 C1649 1.387 . S
C1649 H1634 0.930 . S
C1649 C1644 1.390 . S
C1649 C1648 1.387 . S
H1650 C1662 0.930 . S
H1651 C1664 0.930 . S
H1652 C1665 0.930 . S
H1653 C1669 0.959 . S
H1654 C1669 0.959 . S
H1655 C1669 0.961 . S
H1656 C1670 0.960 . S
H1657 C1670 0.961 . S
H1658 C1670 0.959 . S
H1659 C1673 0.929 . S
H1660 C1674 0.931 . S
H1661 C1676 0.930 . S
C1662 H1650 0.930 . S
C1662 C1663 1.399 . S
C1662 C1667 1.399 . S
C1663 C1662 1.399 . S
C1663 C1664 1.376 . S
C1664 H1651 0.930 . S
C1664 C1663 1.376 . S
C1664 C1665 1.388 . S
C1665 H1652 0.930 . S
C1665 C1664 1.388 . S
C1665 C1666 1.390 . S
C1666 C1665 1.390 . S
C1666 C1667 1.394 . S
C1666 C1672 1.465 . S
C1667 C1662 1.399 . S
C1667 C1666 1.394 . S
C1667 C1668 1.516 . S
C1668 C1667 1.516 . S
C1668 C1669 1.502 . S
C1668 C1670 1.561 . S
C1668 C1671 1.526 . S
C1669 H1653 0.959 . S
C1669 H1654 0.959 . S
C1669 H1655 0.961 . S
C1669 C1668 1.502 . S
C1670 H1656 0.960 . S
C1670 H1657 0.961 . S
C1670 H1658 0.959 . S
C1670 C1668 1.561 . S
C1671 C1668 1.526 . S
C1671 C1672 1.396 . S
C1671 C1676 1.390 . S
C1672 C1666 1.465 . S
C1672 C1671 1.396 . S
C1672 C1673 1.399 . S
C1673 H1659 0.929 . S
C1673 C1672 1.399 . S
C1673 C1674 1.385 . S
C1674 H1660 0.931 . S
C1674 C1673 1.385 . S
C1674 C1675 1.389 . S
C1675 C1674 1.389 . S
C1675 C1676 1.387 . S
C1676 H1661 0.930 . S
C1676 C1671 1.390 . S
C1676 C1675 1.387 . S
H1677 C1689 0.930 . S
H1678 C1691 0.930 . S
H1679 C1692 0.930 . S
H1680 C1696 0.959 . S
H1681 C1696 0.959 . S
H1682 C1696 0.961 . S
H1683 C1697 0.960 . S
H1684 C1697 0.961 . S
H1685 C1697 0.959 . S
H1686 C1700 0.929 . S
H1687 C1701 0.931 . S
H1688 C1703 0.930 . S
C1689 H1677 0.930 . S
C1689 C1690 1.399 . S
C1689 C1694 1.399 . S
C1690 C1689 1.399 . S
C1690 C1691 1.376 . S
C1691 H1678 0.930 . S
C1691 C1690 1.376 . S
C1691 C1692 1.388 . S
C1692 H1679 0.930 . S
C1692 C1691 1.388 . S
C1692 C1693 1.390 . S
C1693 C1692 1.390 . S
C1693 C1694 1.394 . S
C1693 C1699 1.465 . S
C1694 C1689 1.399 . S
C1694 C1693 1.394 . S
C1694 C1695 1.516 . S
C1695 C1694 1.516 . S
C1695 C1696 1.502 . S
C1695 C1697 1.561 . S
C1695 C1698 1.526 . S
C1696 H1680 0.959 . S
C1696 H1681 0.959 . S
C1696 H1682 0.961 . S
C1696 C1695 1.502 . S
C1697 H1683 0.960 . S
C1697 H1684 0.961 . S
C1697 H1685 0.959 . S
C1697 C1695 1.561 . S
C1698 C1695 1.526 . S
C1698 C1699 1.396 . S
C1698 C1703 1.390 . S
C1699 C1693 1.465 . S
C1699 C1698 1.396 . S
C1699 C1700 1.399 . S
C1700 H1686 0.929 . S
C1700 C1699 1.399 . S
C1700 C1701 1.385 . S
C1701 H1687 0.931 . S
C1701 C1700 1.385 . S
C1701 C1702 1.389 . S
C1702 C1701 1.389 . S
C1702 C1703 1.387 . S
C1703 H1688 0.930 . S
C1703 C1698 1.390 . S
C1703 C1702 1.387 . S
H1704 C1716 0.930 . S
H1705 C1718 0.930 . S
H1706 C1719 0.930 . S
H1707 C1723 0.959 . S
H1708 C1723 0.959 . S
H1709 C1723 0.961 . S
H1710 C1724 0.960 . S
H1711 C1724 0.961 . S
H1712 C1724 0.959 . S
H1713 C1727 0.929 . S
H1714 C1728 0.931 . S
H1715 C1730 0.930 . S
C1716 H1704 0.930 . S
C1716 C1717 1.399 . S
C1716 C1721 1.399 . S
C1717 C1716 1.399 . S
C1717 C1718 1.376 . S
C1718 H1705 0.930 . S
C1718 C1717 1.376 . S
C1718 C1719 1.388 . S
C1719 H1706 0.930 . S
C1719 C1718 1.388 . S
C1719 C1720 1.390 . S
C1720 C1719 1.390 . S
C1720 C1721 1.394 . S
C1720 C1726 1.465 . S
C1721 C1716 1.399 . S
C1721 C1720 1.394 . S
C1721 C1722 1.516 . S
C1722 C1721 1.516 . S
C1722 C1723 1.502 . S
C1722 C1724 1.561 . S
C1722 C1725 1.526 . S
C1723 H1707 0.959 . S
C1723 H1708 0.959 . S
C1723 H1709 0.961 . S
C1723 C1722 1.502 . S
C1724 H1710 0.960 . S
C1724 H1711 0.961 . S
C1724 H1712 0.959 . S
C1724 C1722 1.561 . S
C1725 C1722 1.526 . S
C1725 C1726 1.396 . S
C1725 C1730 1.390 . S
C1726 C1720 1.465 . S
C1726 C1725 1.396 . S
C1726 C1727 1.399 . S
C1727 H1713 0.929 . S
C1727 C1726 1.399 . S
C1727 C1728 1.385 . S
C1728 H1714 0.931 . S
C1728 C1727 1.385 . S
C1728 C1729 1.389 . S
C1729 C1728 1.389 . S
C1729 C1730 1.387 . S
C1730 H1715 0.930 . S
C1730 C1725 1.390 . S
C1730 C1729 1.387 . S
H1731 C1743 0.930 . S
H1732 C1745 0.930 . S
H1733 C1746 0.930 . S
H1734 C1750 0.959 . S
H1735 C1750 0.959 . S
H1736 C1750 0.961 . S
H1737 C1751 0.960 . S
H1738 C1751 0.961 . S
H1739 C1751 0.959 . S
H1740 C1754 0.929 . S
H1741 C1755 0.931 . S
H1742 C1757 0.930 . S
C1743 H1731 0.930 . S
C1743 C1744 1.399 . S
C1743 C1748 1.399 . S
C1744 C1743 1.399 . S
C1744 C1745 1.376 . S
C1745 H1732 0.930 . S
C1745 C1744 1.376 . S
C1745 C1746 1.388 . S
C1746 H1733 0.930 . S
C1746 C1745 1.388 . S
C1746 C1747 1.390 . S
C1747 C1746 1.390 . S
C1747 C1748 1.394 . S
C1747 C1753 1.465 . S
C1748 C1743 1.399 . S
C1748 C1747 1.394 . S
C1748 C1749 1.516 . S
C1749 C1748 1.516 . S
C1749 C1750 1.502 . S
C1749 C1751 1.561 . S
C1749 C1752 1.526 . S
C1750 H1734 0.959 . S
C1750 H1735 0.959 . S
C1750 H1736 0.961 . S
C1750 C1749 1.502 . S
C1751 H1737 0.960 . S
C1751 H1738 0.961 . S
C1751 H1739 0.959 . S
C1751 C1749 1.561 . S
C1752 C1749 1.526 . S
C1752 C1753 1.396 . S
C1752 C1757 1.390 . S
C1753 C1747 1.465 . S
C1753 C1752 1.396 . S
C1753 C1754 1.399 . S
C1754 H1740 0.929 . S
C1754 C1753 1.399 . S
C1754 C1755 1.385 . S
C1755 H1741 0.931 . S
C1755 C1754 1.385 . S
C1755 C1756 1.389 . S
C1756 C1755 1.389 . S
C1756 C1757 1.387 . S
C1757 H1742 0.930 . S
C1757 C1752 1.390 . S
C1757 C1756 1.387 . S
H1758 C1770 0.930 . S
H1759 C1772 0.930 . S
H1760 C1773 0.930 . S
H1761 C1777 0.959 . S
H1762 C1777 0.959 . S
H1763 C1777 0.961 . S
H1764 C1778 0.960 . S
H1765 C1778 0.961 . S
H1766 C1778 0.959 . S
H1767 C1781 0.929 . S
H1768 C1782 0.931 . S
H1769 C1784 0.930 . S
C1770 H1758 0.930 . S
C1770 C1771 1.399 . S
C1770 C1775 1.399 . S
C1771 C1770 1.399 . S
C1771 C1772 1.376 . S
C1772 H1759 0.930 . S
C1772 C1771 1.376 . S
C1772 C1773 1.388 . S
C1773 H1760 0.930 . S
C1773 C1772 1.388 . S
C1773 C1774 1.390 . S
C1774 C1773 1.390 . S
C1774 C1775 1.394 . S
C1774 C1780 1.465 . S
C1775 C1770 1.399 . S
C1775 C1774 1.394 . S
C1775 C1776 1.516 . S
C1776 C1775 1.516 . S
C1776 C1777 1.502 . S
C1776 C1778 1.561 . S
C1776 C1779 1.526 . S
C1777 H1761 0.959 . S
C1777 H1762 0.959 . S
C1777 H1763 0.961 . S
C1777 C1776 1.502 . S
C1778 H1764 0.960 . S
C1778 H1765 0.961 . S
C1778 H1766 0.959 . S
C1778 C1776 1.561 . S
C1779 C1776 1.526 . S
C1779 C1780 1.396 . S
C1779 C1784 1.390 . S
C1780 C1774 1.465 . S
C1780 C1779 1.396 . S
C1780 C1781 1.399 . S
C1781 H1767 0.929 . S
C1781 C1780 1.399 . S
C1781 C1782 1.385 . S
C1782 H1768 0.931 . S
C1782 C1781 1.385 . S
C1782 C1783 1.389 . S
C1783 C1782 1.389 . S
C1783 C1784 1.387 . S
C1784 H1769 0.930 . S
C1784 C1779 1.390 . S
C1784 C1783 1.387 . S
H1785 C1797 0.930 . S
H1786 C1799 0.930 . S
H1787 C1800 0.930 . S
H1788 C1804 0.959 . S
H1789 C1804 0.959 . S
H1790 C1804 0.961 . S
H1791 C1805 0.960 . S
H1792 C1805 0.961 . S
H1793 C1805 0.959 . S
H1794 C1808 0.929 . S
H1795 C1809 0.931 . S
H1796 C1811 0.930 . S
C1797 H1785 0.930 . S
C1797 C1798 1.399 . S
C1797 C1802 1.399 . S
C1798 C1797 1.399 . S
C1798 C1799 1.376 . S
C1799 H1786 0.930 . S
C1799 C1798 1.376 . S
C1799 C1800 1.388 . S
C1800 H1787 0.930 . S
C1800 C1799 1.388 . S
C1800 C1801 1.390 . S
C1801 C1800 1.390 . S
C1801 C1802 1.394 . S
C1801 C1807 1.465 . S
C1802 C1797 1.399 . S
C1802 C1801 1.394 . S
C1802 C1803 1.516 . S
C1803 C1802 1.516 . S
C1803 C1804 1.502 . S
C1803 C1805 1.561 . S
C1803 C1806 1.526 . S
C1804 H1788 0.959 . S
C1804 H1789 0.959 . S
C1804 H1790 0.961 . S
C1804 C1803 1.502 . S
C1805 H1791 0.960 . S
C1805 H1792 0.961 . S
C1805 H1793 0.959 . S
C1805 C1803 1.561 . S
C1806 C1803 1.526 . S
C1806 C1807 1.396 . S
C1806 C1811 1.390 . S
C1807 C1801 1.465 . S
C1807 C1806 1.396 . S
C1807 C1808 1.399 . S
C1808 H1794 0.929 . S
C1808 C1807 1.399 . S
C1808 C1809 1.385 . S
C1809 H1795 0.931 . S
C1809 C1808 1.385 . S
C1809 C1810 1.389 . S
C1810 C1809 1.389 . S
C1810 C1811 1.387 . S
C1811 H1796 0.930 . S
C1811 C1806 1.390 . S
C1811 C1810 1.387 . S
H1812 C1824 0.930 . S
H1813 C1826 0.930 . S
H1814 C1827 0.930 . S
H1815 C1831 0.959 . S
H1816 C1831 0.959 . S
H1817 C1831 0.961 . S
H1818 C1832 0.960 . S
H1819 C1832 0.961 . S
H1820 C1832 0.959 . S
H1821 C1835 0.929 . S
H1822 C1836 0.931 . S
H1823 C1838 0.930 . S
C1824 H1812 0.930 . S
C1824 C1825 1.399 . S
C1824 C1829 1.399 . S
C1825 C1824 1.399 . S
C1825 C1826 1.376 . S
C1826 H1813 0.930 . S
C1826 C1825 1.376 . S
C1826 C1827 1.388 . S
C1827 H1814 0.930 . S
C1827 C1826 1.388 . S
C1827 C1828 1.390 . S
C1828 C1827 1.390 . S
C1828 C1829 1.394 . S
C1828 C1834 1.465 . S
C1829 C1824 1.399 . S
C1829 C1828 1.394 . S
C1829 C1830 1.516 . S
C1830 C1829 1.516 . S
C1830 C1831 1.502 . S
C1830 C1832 1.561 . S
C1830 C1833 1.526 . S
C1831 H1815 0.959 . S
C1831 H1816 0.959 . S
C1831 H1817 0.961 . S
C1831 C1830 1.502 . S
C1832 H1818 0.960 . S
C1832 H1819 0.961 . S
C1832 H1820 0.959 . S
C1832 C1830 1.561 . S
C1833 C1830 1.526 . S
C1833 C1834 1.396 . S
C1833 C1838 1.390 . S
C1834 C1828 1.465 . S
C1834 C1833 1.396 . S
C1834 C1835 1.399 . S
C1835 H1821 0.929 . S
C1835 C1834 1.399 . S
C1835 C1836 1.385 . S
C1836 H1822 0.931 . S
C1836 C1835 1.385 . S
C1836 C1837 1.389 . S
C1837 C1836 1.389 . S
C1837 C1838 1.387 . S
C1838 H1823 0.930 . S
C1838 C1833 1.390 . S
C1838 C1837 1.387 . S
H1839 C1851 0.930 . S
H1840 C1853 0.930 . S
H1841 C1854 0.930 . S
H1842 C1858 0.959 . S
H1843 C1858 0.959 . S
H1844 C1858 0.961 . S
H1845 C1859 0.960 . S
H1846 C1859 0.961 . S
H1847 C1859 0.959 . S
H1848 C1862 0.929 . S
H1849 C1863 0.931 . S
H1850 C1865 0.930 . S
C1851 H1839 0.930 . S
C1851 C1852 1.399 . S
C1851 C1856 1.399 . S
C1852 C1851 1.399 . S
C1852 C1853 1.376 . S
C1853 H1840 0.930 . S
C1853 C1852 1.376 . S
C1853 C1854 1.388 . S
C1854 H1841 0.930 . S
C1854 C1853 1.388 . S
C1854 C1855 1.390 . S
C1855 C1854 1.390 . S
C1855 C1856 1.394 . S
C1855 C1861 1.465 . S
C1856 C1851 1.399 . S
C1856 C1855 1.394 . S
C1856 C1857 1.516 . S
C1857 C1856 1.516 . S
C1857 C1858 1.502 . S
C1857 C1859 1.561 . S
C1857 C1860 1.526 . S
C1858 H1842 0.959 . S
C1858 H1843 0.959 . S
C1858 H1844 0.961 . S
C1858 C1857 1.502 . S
C1859 H1845 0.960 . S
C1859 H1846 0.961 . S
C1859 H1847 0.959 . S
C1859 C1857 1.561 . S
C1860 C1857 1.526 . S
C1860 C1861 1.396 . S
C1860 C1865 1.390 . S
C1861 C1855 1.465 . S
C1861 C1860 1.396 . S
C1861 C1862 1.399 . S
C1862 H1848 0.929 . S
C1862 C1861 1.399 . S
C1862 C1863 1.385 . S
C1863 H1849 0.931 . S
C1863 C1862 1.385 . S
C1863 C1864 1.389 . S
C1864 C1863 1.389 . S
C1864 C1865 1.387 . S
C1865 H1850 0.930 . S
C1865 C1860 1.390 . S
C1865 C1864 1.387 . S
H1866 C1878 0.930 . S
H1867 C1880 0.930 . S
H1868 C1881 0.930 . S
H1869 C1885 0.959 . S
H1870 C1885 0.959 . S
H1871 C1885 0.961 . S
H1872 C1886 0.960 . S
H1873 C1886 0.961 . S
H1874 C1886 0.959 . S
H1875 C1889 0.929 . S
H1876 C1890 0.931 . S
H1877 C1892 0.930 . S
C1878 H1866 0.930 . S
C1878 C1879 1.399 . S
C1878 C1883 1.399 . S
C1879 C1878 1.399 . S
C1879 C1880 1.376 . S
C1880 H1867 0.930 . S
C1880 C1879 1.376 . S
C1880 C1881 1.388 . S
C1881 H1868 0.930 . S
C1881 C1880 1.388 . S
C1881 C1882 1.390 . S
C1882 C1881 1.390 . S
C1882 C1883 1.394 . S
C1882 C1888 1.465 . S
C1883 C1878 1.399 . S
C1883 C1882 1.394 . S
C1883 C1884 1.516 . S
C1884 C1883 1.516 . S
C1884 C1885 1.502 . S
C1884 C1886 1.561 . S
C1884 C1887 1.526 . S
C1885 H1869 0.959 . S
C1885 H1870 0.959 . S
C1885 H1871 0.961 . S
C1885 C1884 1.502 . S
C1886 H1872 0.960 . S
C1886 H1873 0.961 . S
C1886 H1874 0.959 . S
C1886 C1884 1.561 . S
C1887 C1884 1.526 . S
C1887 C1888 1.396 . S
C1887 C1892 1.390 . S
C1888 C1882 1.465 . S
C1888 C1887 1.396 . S
C1888 C1889 1.399 . S
C1889 H1875 0.929 . S
C1889 C1888 1.399 . S
C1889 C1890 1.385 . S
C1890 H1876 0.931 . S
C1890 C1889 1.385 . S
C1890 C1891 1.389 . S
C1891 C1890 1.389 . S
C1891 C1892 1.387 . S
C1892 H1877 0.930 . S
C1892 C1887 1.390 . S
C1892 C1891 1.387 . S
H1893 C1905 0.930 . S
H1894 C1907 0.930 . S
H1895 C1908 0.930 . S
H1896 C1912 0.959 . S
H1897 C1912 0.959 . S
H1898 C1912 0.961 . S
H1899 C1913 0.960 . S
H1900 C1913 0.961 . S
H1901 C1913 0.959 . S
H1902 C1916 0.929 . S
H1903 C1917 0.931 . S
H1904 C1919 0.930 . S
C1905 H1893 0.930 . S
C1905 C1906 1.399 . S
C1905 C1910 1.399 . S
C1906 C1905 1.399 . S
C1906 C1907 1.376 . S
C1907 H1894 0.930 . S
C1907 C1906 1.376 . S
C1907 C1908 1.388 . S
C1908 H1895 0.930 . S
C1908 C1907 1.388 . S
C1908 C1909 1.390 . S
C1909 C1908 1.390 . S
C1909 C1910 1.394 . S
C1909 C1915 1.465 . S
C1910 C1905 1.399 . S
C1910 C1909 1.394 . S
C1910 C1911 1.516 . S
C1911 C1910 1.516 . S
C1911 C1912 1.502 . S
C1911 C1913 1.561 . S
C1911 C1914 1.526 . S
C1912 H1896 0.959 . S
C1912 H1897 0.959 . S
C1912 H1898 0.961 . S
C1912 C1911 1.502 . S
C1913 H1899 0.960 . S
C1913 H1900 0.961 . S
C1913 H1901 0.959 . S
C1913 C1911 1.561 . S
C1914 C1911 1.526 . S
C1914 C1915 1.396 . S
C1914 C1919 1.390 . S
C1915 C1909 1.465 . S
C1915 C1914 1.396 . S
C1915 C1916 1.399 . S
C1916 H1902 0.929 . S
C1916 C1915 1.399 . S
C1916 C1917 1.385 . S
C1917 H1903 0.931 . S
C1917 C1916 1.385 . S
C1917 C1918 1.389 . S
C1918 C1917 1.389 . S
C1918 C1919 1.387 . S
C1919 H1904 0.930 . S
C1919 C1914 1.390 . S
C1919 C1918 1.387 . S
H1920 C1932 0.930 . S
H1921 C1934 0.930 . S
H1922 C1935 0.930 . S
H1923 C1939 0.959 . S
H1924 C1939 0.959 . S
H1925 C1939 0.961 . S
H1926 C1940 0.960 . S
H1927 C1940 0.961 . S
H1928 C1940 0.959 . S
H1929 C1943 0.929 . S
H1930 C1944 0.931 . S
H1931 C1946 0.930 . S
C1932 H1920 0.930 . S
C1932 C1933 1.399 . S
C1932 C1937 1.399 . S
C1933 C1932 1.399 . S
C1933 C1934 1.376 . S
C1934 H1921 0.930 . S
C1934 C1933 1.376 . S
C1934 C1935 1.388 . S
C1935 H1922 0.930 . S
C1935 C1934 1.388 . S
C1935 C1936 1.390 . S
C1936 C1935 1.390 . S
C1936 C1937 1.394 . S
C1936 C1942 1.465 . S
C1937 C1932 1.399 . S
C1937 C1936 1.394 . S
C1937 C1938 1.516 . S
C1938 C1937 1.516 . S
C1938 C1939 1.502 . S
C1938 C1940 1.561 . S
C1938 C1941 1.526 . S
C1939 H1923 0.959 . S
C1939 H1924 0.959 . S
C1939 H1925 0.961 . S
C1939 C1938 1.502 . S
C1940 H1926 0.960 . S
C1940 H1927 0.961 . S
C1940 H1928 0.959 . S
C1940 C1938 1.561 . S
C1941 C1938 1.526 . S
C1941 C1942 1.396 . S
C1941 C1946 1.390 . S
C1942 C1936 1.465 . S
C1942 C1941 1.396 . S
C1942 C1943 1.399 . S
C1943 H1929 0.929 . S
C1943 C1942 1.399 . S
C1943 C1944 1.385 . S
C1944 H1930 0.931 . S
C1944 C1943 1.385 . S
C1944 C1945 1.389 . S
C1945 C1944 1.389 . S
C1945 C1946 1.387 . S
C1946 H1931 0.930 . S
C1946 C1941 1.390 . S
C1946 C1945 1.387 . S
H1947 C1959 0.930 . S
H1948 C1961 0.930 . S
H1949 C1962 0.930 . S
H1950 C1966 0.959 . S
H1951 C1966 0.959 . S
H1952 C1966 0.961 . S
H1953 C1967 0.960 . S
H1954 C1967 0.961 . S
H1955 C1967 0.959 . S
H1956 C1970 0.929 . S
H1957 C1971 0.931 . S
H1958 C1973 0.930 . S
C1959 H1947 0.930 . S
C1959 C1960 1.399 . S
C1959 C1964 1.399 . S
C1960 C1959 1.399 . S
C1960 C1961 1.376 . S
C1961 H1948 0.930 . S
C1961 C1960 1.376 . S
C1961 C1962 1.388 . S
C1962 H1949 0.930 . S
C1962 C1961 1.388 . S
C1962 C1963 1.390 . S
C1963 C1962 1.390 . S
C1963 C1964 1.394 . S
C1963 C1969 1.465 . S
C1964 C1959 1.399 . S
C1964 C1963 1.394 . S
C1964 C1965 1.516 . S
C1965 C1964 1.516 . S
C1965 C1966 1.502 . S
C1965 C1967 1.561 . S
C1965 C1968 1.526 . S
C1966 H1950 0.959 . S
C1966 H1951 0.959 . S
C1966 H1952 0.961 . S
C1966 C1965 1.502 . S
C1967 H1953 0.960 . S
C1967 H1954 0.961 . S
C1967 H1955 0.959 . S
C1967 C1965 1.561 . S
C1968 C1965 1.526 . S
C1968 C1969 1.396 . S
C1968 C1973 1.390 . S
C1969 C1963 1.465 . S
C1969 C1968 1.396 . S
C1969 C1970 1.399 . S
C1970 H1956 0.929 . S
C1970 C1969 1.399 . S
C1970 C1971 1.385 . S
C1971 H1957 0.931 . S
C1971 C1970 1.385 . S
C1971 C1972 1.389 . S
C1972 C1971 1.389 . S
C1972 C1973 1.387 . S
C1973 H1958 0.930 . S
C1973 C1968 1.390 . S
C1973 C1972 1.387 . S
H1974 C1986 0.930 . S
H1975 C1988 0.930 . S
H1976 C1989 0.930 . S
H1977 C1993 0.959 . S
H1978 C1993 0.959 . S
H1979 C1993 0.961 . S
H1980 C1994 0.960 . S
H1981 C1994 0.961 . S
H1982 C1994 0.959 . S
H1983 C1997 0.929 . S
H1984 C1998 0.931 . S
H1985 C2000 0.930 . S
C1986 H1974 0.930 . S
C1986 C1987 1.399 . S
C1986 C1991 1.399 . S
C1987 C1986 1.399 . S
C1987 C1988 1.376 . S
C1988 H1975 0.930 . S
C1988 C1987 1.376 . S
C1988 C1989 1.388 . S
C1989 H1976 0.930 . S
C1989 C1988 1.388 . S
C1989 C1990 1.390 . S
C1990 C1989 1.390 . S
C1990 C1991 1.394 . S
C1990 C1996 1.465 . S
C1991 C1986 1.399 . S
C1991 C1990 1.394 . S
C1991 C1992 1.516 . S
C1992 C1991 1.516 . S
C1992 C1993 1.502 . S
C1992 C1994 1.561 . S
C1992 C1995 1.526 . S
C1993 H1977 0.959 . S
C1993 H1978 0.959 . S
C1993 H1979 0.961 . S
C1993 C1992 1.502 . S
C1994 H1980 0.960 . S
C1994 H1981 0.961 . S
C1994 H1982 0.959 . S
C1994 C1992 1.561 . S
C1995 C1992 1.526 . S
C1995 C1996 1.396 . S
C1995 C2000 1.390 . S
C1996 C1990 1.465 . S
C1996 C1995 1.396 . S
C1996 C1997 1.399 . S
C1997 H1983 0.929 . S
C1997 C1996 1.399 . S
C1997 C1998 1.385 . S
C1998 H1984 0.931 . S
C1998 C1997 1.385 . S
C1998 C1999 1.389 . S
C1999 C1998 1.389 . S
C1999 C2000 1.387 . S
C2000 H1985 0.930 . S
C2000 C1995 1.390 . S
C2000 C1999 1.387 . S
H2001 C2013 0.930 . S
H2002 C2015 0.930 . S
H2003 C2016 0.930 . S
H2004 C2020 0.959 . S
H2005 C2020 0.959 . S
H2006 C2020 0.961 . S
H2007 C2021 0.960 . S
H2008 C2021 0.961 . S
H2009 C2021 0.959 . S
H2010 C2024 0.929 . S
H2011 C2025 0.931 . S
H2012 C2027 0.930 . S
C2013 H2001 0.930 . S
C2013 C2014 1.399 . S
C2013 C2018 1.399 . S
C2014 C2013 1.399 . S
C2014 C2015 1.376 . S
C2015 H2002 0.930 . S
C2015 C2014 1.376 . S
C2015 C2016 1.388 . S
C2016 H2003 0.930 . S
C2016 C2015 1.388 . S
C2016 C2017 1.390 . S
C2017 C2016 1.390 . S
C2017 C2018 1.394 . S
C2017 C2023 1.465 . S
C2018 C2013 1.399 . S
C2018 C2017 1.394 . S
C2018 C2019 1.516 . S
C2019 C2018 1.516 . S
C2019 C2020 1.502 . S
C2019 C2021 1.561 . S
C2019 C2022 1.526 . S
C2020 H2004 0.959 . S
C2020 H2005 0.959 . S
C2020 H2006 0.961 . S
C2020 C2019 1.502 . S
C2021 H2007 0.960 . S
C2021 H2008 0.961 . S
C2021 H2009 0.959 . S
C2021 C2019 1.561 . S
C2022 C2019 1.526 . S
C2022 C2023 1.396 . S
C2022 C2027 1.390 . S
C2023 C2017 1.465 . S
C2023 C2022 1.396 . S
C2023 C2024 1.399 . S
C2024 H2010 0.929 . S
C2024 C2023 1.399 . S
C2024 C2025 1.385 . S
C2025 H2011 0.931 . S
C2025 C2024 1.385 . S
C2025 C2026 1.389 . S
C2026 C2025 1.389 . S
C2026 C2027 1.387 . S
C2027 H2012 0.930 . S
C2027 C2022 1.390 . S
C2027 C2026 1.387 . S
H2028 C2040 0.930 . S
H2029 C2042 0.930 . S
H2030 C2043 0.930 . S
H2031 C2047 0.959 . S
H2032 C2047 0.959 . S
H2033 C2047 0.961 . S
H2034 C2048 0.962 . S
H2035 C2048 0.966 . S
H2036 C2048 0.959 1_554 S
H2037 C2051 0.929 . S
H2038 C2052 0.931 . S
H2039 C2054 0.930 . S
C2040 H2028 0.930 . S
C2040 C2041 1.399 . S
C2040 C2045 1.399 . S
C2041 C2040 1.399 . S
C2041 C2042 1.376 . S
C2042 H2029 0.930 . S
C2042 C2041 1.376 . S
C2042 C2043 1.388 . S
C2043 H2030 0.930 . S
C2043 C2042 1.388 . S
C2043 C2044 1.390 . S
C2044 C2043 1.390 . S
C2044 C2045 1.394 . S
C2044 C2050 1.465 . S
C2045 C2040 1.399 . S
C2045 C2044 1.394 . S
C2045 C2046 1.516 . S
C2046 C2045 1.516 . S
C2046 C2047 1.502 . S
C2046 C2048 1.561 . S
C2046 C2049 1.526 . S
C2047 H2031 0.959 . S
C2047 H2032 0.959 . S
C2047 H2033 0.961 . S
C2047 C2046 1.502 . S
C2048 H2034 0.962 . S
C2048 H2035 0.966 . S
C2048 H2036 0.959 1_556 S
C2048 C2046 1.561 . S
C2049 C2046 1.526 . S
C2049 C2050 1.396 . S
C2049 C2054 1.390 . S
C2050 C2044 1.465 . S
C2050 C2049 1.396 . S
C2050 C2051 1.399 . S
C2051 H2037 0.929 . S
C2051 C2050 1.399 . S
C2051 C2052 1.385 . S
C2052 H2038 0.931 . S
C2052 C2051 1.385 . S
C2052 C2053 1.389 . S
C2053 C2052 1.389 . S
C2053 C2054 1.387 . S
C2054 H2039 0.930 . S
C2054 C2049 1.390 . S
C2054 C2053 1.387 . S
H2055 C2067 0.930 . S
H2056 C2069 0.930 . S
H2057 C2070 0.930 . S
H2058 C2074 0.959 . S
H2059 C2074 0.959 . S
H2060 C2074 0.961 . S
H2061 C2075 0.960 . S
H2062 C2075 0.961 . S
H2063 C2075 0.959 . S
H2064 C2078 0.929 . S
H2065 C2079 0.931 . S
H2066 C2081 0.930 . S
C2067 H2055 0.930 . S
C2067 C2068 1.399 . S
C2067 C2072 1.399 . S
C2068 C2067 1.399 . S
C2068 C2069 1.376 . S
C2069 H2056 0.930 . S
C2069 C2068 1.376 . S
C2069 C2070 1.388 . S
C2070 H2057 0.930 . S
C2070 C2069 1.388 . S
C2070 C2071 1.390 . S
C2071 C2070 1.390 . S
C2071 C2072 1.394 . S
C2071 C2077 1.465 . S
C2072 C2067 1.399 . S
C2072 C2071 1.394 . S
C2072 C2073 1.516 . S
C2073 C2072 1.516 . S
C2073 C2074 1.502 . S
C2073 C2075 1.561 . S
C2073 C2076 1.526 . S
C2074 H2058 0.959 . S
C2074 H2059 0.959 . S
C2074 H2060 0.961 . S
C2074 C2073 1.502 . S
C2075 H2061 0.960 . S
C2075 H2062 0.961 . S
C2075 H2063 0.959 . S
C2075 C2073 1.561 . S
C2076 C2073 1.526 . S
C2076 C2077 1.396 . S
C2076 C2081 1.390 . S
C2077 C2071 1.465 . S
C2077 C2076 1.396 . S
C2077 C2078 1.399 . S
C2078 H2064 0.929 . S
C2078 C2077 1.399 . S
C2078 C2079 1.385 . S
C2079 H2065 0.931 . S
C2079 C2078 1.385 . S
C2079 C2080 1.389 . S
C2080 C2079 1.389 . S
C2080 C2081 1.387 . S
C2081 H2066 0.930 . S
C2081 C2076 1.390 . S
C2081 C2080 1.387 . S
H2082 C2094 0.930 . S
H2083 C2096 0.930 . S
H2084 C2097 0.930 . S
H2085 C2101 0.959 . S
H2086 C2101 0.959 . S
H2087 C2101 0.961 . S
H2088 C2102 0.960 . S
H2089 C2102 0.961 . S
H2090 C2102 0.959 1_554 S
H2091 C2105 0.929 . S
H2092 C2106 0.931 . S
H2093 C2108 0.930 . S
C2094 H2082 0.930 . S
C2094 C2095 1.399 . S
C2094 C2099 1.399 . S
C2095 C2094 1.399 . S
C2095 C2096 1.376 . S
C2096 H2083 0.930 . S
C2096 C2095 1.376 . S
C2096 C2097 1.388 . S
C2097 H2084 0.930 . S
C2097 C2096 1.388 . S
C2097 C2098 1.390 . S
C2098 C2097 1.390 . S
C2098 C2099 1.394 . S
C2098 C2104 1.465 . S
C2099 C2094 1.399 . S
C2099 C2098 1.394 . S
C2099 C2100 1.516 . S
C2100 C2099 1.516 . S
C2100 C2101 1.502 . S
C2100 C2102 1.561 1_554 S
C2100 C2103 1.526 . S
C2101 H2085 0.959 . S
C2101 H2086 0.959 . S
C2101 H2087 0.961 . S
C2101 C2100 1.502 . S
C2102 H2088 0.960 . S
C2102 H2089 0.961 . S
C2102 H2090 0.959 1_556 S
C2102 C2100 1.561 1_556 S
C2103 C2100 1.526 . S
C2103 C2104 1.396 . S
C2103 C2108 1.390 . S
C2104 C2098 1.465 . S
C2104 C2103 1.396 . S
C2104 C2105 1.399 . S
C2105 H2091 0.929 . S
C2105 C2104 1.399 . S
C2105 C2106 1.385 . S
C2106 H2092 0.931 . S
C2106 C2105 1.385 . S
C2106 C2107 1.389 . S
C2107 C2106 1.389 . S
C2107 C2108 1.387 . S
C2108 H2093 0.930 . S
C2108 C2103 1.390 . S
C2108 C2107 1.387 . S
H2109 C2121 0.930 . S
H2110 C2123 0.930 . S
H2111 C2124 0.930 . S
H2112 C2128 0.959 . S
H2113 C2128 0.959 . S
H2114 C2128 0.961 . S
H2115 C2129 0.960 . S
H2116 C2129 0.961 . S
H2117 C2129 0.959 . S
H2118 C2132 0.929 . S
H2119 C2133 0.931 . S
H2120 C2135 0.930 . S
C2121 H2109 0.930 . S
C2121 C2122 1.399 . S
C2121 C2126 1.399 . S
C2122 C2121 1.399 . S
C2122 C2123 1.376 . S
C2123 H2110 0.930 . S
C2123 C2122 1.376 . S
C2123 C2124 1.388 . S
C2124 H2111 0.930 . S
C2124 C2123 1.388 . S
C2124 C2125 1.390 . S
C2125 C2124 1.390 . S
C2125 C2126 1.394 . S
C2125 C2131 1.465 . S
C2126 C2121 1.399 . S
C2126 C2125 1.394 . S
C2126 C2127 1.516 . S
C2127 C2126 1.516 . S
C2127 C2128 1.502 . S
C2127 C2129 1.561 . S
C2127 C2130 1.526 . S
C2128 H2112 0.959 . S
C2128 H2113 0.959 . S
C2128 H2114 0.961 . S
C2128 C2127 1.502 . S
C2129 H2115 0.960 . S
C2129 H2116 0.961 . S
C2129 H2117 0.959 . S
C2129 C2127 1.561 . S
C2130 C2127 1.526 . S
C2130 C2131 1.396 . S
C2130 C2135 1.390 . S
C2131 C2125 1.465 . S
C2131 C2130 1.396 . S
C2131 C2132 1.399 . S
C2132 H2118 0.929 . S
C2132 C2131 1.399 . S
C2132 C2133 1.385 . S
C2133 H2119 0.931 . S
C2133 C2132 1.385 . S
C2133 C2134 1.389 . S
C2134 C2133 1.389 . S
C2134 C2135 1.387 . S
C2135 H2120 0.930 . S
C2135 C2130 1.390 . S
C2135 C2134 1.387 . S
H2136 C2148 0.930 . S
H2137 C2150 0.930 . S
H2138 C2151 0.930 . S
H2139 C2155 0.959 . S
H2140 C2155 0.959 . S
H2141 C2155 0.961 . S
H2142 C2156 0.960 . S
H2143 C2156 0.961 . S
H2144 C2156 0.959 . S
H2145 C2159 0.929 . S
H2146 C2160 0.931 . S
H2147 C2162 0.930 . S
C2148 H2136 0.930 . S
C2148 C2149 1.399 . S
C2148 C2153 1.399 . S
C2149 C2148 1.399 . S
C2149 C2150 1.376 . S
C2150 H2137 0.930 . S
C2150 C2149 1.376 . S
C2150 C2151 1.388 . S
C2151 H2138 0.930 . S
C2151 C2150 1.388 . S
C2151 C2152 1.390 . S
C2152 C2151 1.390 . S
C2152 C2153 1.394 . S
C2152 C2158 1.465 . S
C2153 C2148 1.399 . S
C2153 C2152 1.394 . S
C2153 C2154 1.516 . S
C2154 C2153 1.516 . S
C2154 C2155 1.502 . S
C2154 C2156 1.561 . S
C2154 C2157 1.526 . S
C2155 H2139 0.959 . S
C2155 H2140 0.959 . S
C2155 H2141 0.961 . S
C2155 C2154 1.502 . S
C2156 H2142 0.960 . S
C2156 H2143 0.961 . S
C2156 H2144 0.959 . S
C2156 C2154 1.561 . S
C2157 C2154 1.526 . S
C2157 C2158 1.396 . S
C2157 C2162 1.390 . S
C2158 C2152 1.465 . S
C2158 C2157 1.396 . S
C2158 C2159 1.399 . S
C2159 H2145 0.929 . S
C2159 C2158 1.399 . S
C2159 C2160 1.385 . S
C2160 H2146 0.931 . S
C2160 C2159 1.385 . S
C2160 C2161 1.389 . S
C2161 C2160 1.389 . S
C2161 C2162 1.387 . S
C2162 H2147 0.930 . S
C2162 C2157 1.390 . S
C2162 C2161 1.387 . S
H2163 C2175 0.930 . S
H2164 C2177 0.930 . S
H2165 C2178 0.930 . S
H2166 C2182 0.959 . S
H2167 C2182 0.959 . S
H2168 C2182 0.961 . S
H2169 C2183 0.960 . S
H2170 C2183 0.961 . S
H2171 C2183 0.959 . S
H2172 C2186 0.929 . S
H2173 C2187 0.931 . S
H2174 C2189 0.930 . S
C2175 H2163 0.930 . S
C2175 C2176 1.399 . S
C2175 C2180 1.399 . S
C2176 C2175 1.399 . S
C2176 C2177 1.376 . S
C2177 H2164 0.930 . S
C2177 C2176 1.376 . S
C2177 C2178 1.388 . S
C2178 H2165 0.930 . S
C2178 C2177 1.388 . S
C2178 C2179 1.390 . S
C2179 C2178 1.390 . S
C2179 C2180 1.394 . S
C2179 C2185 1.465 . S
C2180 C2175 1.399 . S
C2180 C2179 1.394 . S
C2180 C2181 1.516 . S
C2181 C2180 1.516 . S
C2181 C2182 1.502 . S
C2181 C2183 1.561 . S
C2181 C2184 1.526 . S
C2182 H2166 0.959 . S
C2182 H2167 0.959 . S
C2182 H2168 0.961 . S
C2182 C2181 1.502 . S
C2183 H2169 0.960 . S
C2183 H2170 0.961 . S
C2183 H2171 0.959 . S
C2183 C2181 1.561 . S
C2184 C2181 1.526 . S
C2184 C2185 1.396 . S
C2184 C2189 1.390 . S
C2185 C2179 1.465 . S
C2185 C2184 1.396 . S
C2185 C2186 1.399 . S
C2186 H2172 0.929 . S
C2186 C2185 1.399 . S
C2186 C2187 1.385 . S
C2187 H2173 0.931 . S
C2187 C2186 1.385 . S
C2187 C2188 1.389 . S
C2188 C2187 1.389 . S
C2188 C2189 1.387 . S
C2189 H2174 0.930 . S
C2189 C2184 1.390 . S
C2189 C2188 1.387 . S
H2190 C2202 0.930 . S
H2191 C2204 0.930 . S
H2192 C2205 0.930 . S
H2193 C2209 0.959 . S
H2194 C2209 0.959 . S
H2195 C2209 0.961 . S
H2196 C2210 0.960 . S
H2197 C2210 0.961 . S
H2198 C2210 0.959 . S
H2199 C2213 0.929 . S
H2200 C2214 0.931 . S
H2201 C2216 0.930 . S
C2202 H2190 0.930 . S
C2202 C2203 1.399 . S
C2202 C2207 1.399 . S
C2203 C2202 1.399 . S
C2203 C2204 1.376 . S
C2204 H2191 0.930 . S
C2204 C2203 1.376 . S
C2204 C2205 1.388 . S
C2205 H2192 0.930 . S
C2205 C2204 1.388 . S
C2205 C2206 1.390 . S
C2206 C2205 1.390 . S
C2206 C2207 1.394 . S
C2206 C2212 1.465 . S
C2207 C2202 1.399 . S
C2207 C2206 1.394 . S
C2207 C2208 1.516 . S
C2208 C2207 1.516 . S
C2208 C2209 1.502 . S
C2208 C2210 1.561 . S
C2208 C2211 1.526 . S
C2209 H2193 0.959 . S
C2209 H2194 0.959 . S
C2209 H2195 0.961 . S
C2209 C2208 1.502 . S
C2210 H2196 0.960 . S
C2210 H2197 0.961 . S
C2210 H2198 0.959 . S
C2210 C2208 1.561 . S
C2211 C2208 1.526 . S
C2211 C2212 1.396 . S
C2211 C2216 1.390 . S
C2212 C2206 1.465 . S
C2212 C2211 1.396 . S
C2212 C2213 1.399 . S
C2213 H2199 0.929 . S
C2213 C2212 1.399 . S
C2213 C2214 1.385 . S
C2214 H2200 0.931 . S
C2214 C2213 1.385 . S
C2214 C2215 1.389 . S
C2215 C2214 1.389 . S
C2215 C2216 1.387 . S
C2216 H2201 0.930 . S
C2216 C2211 1.390 . S
C2216 C2215 1.387 . S
H2217 C2229 0.930 . S
H2218 C2231 0.930 . S
H2219 C2232 0.930 . S
H2220 C2236 0.959 . S
H2221 C2236 0.959 . S
H2222 C2236 0.961 . S
H2223 C2237 0.960 . S
H2224 C2237 0.961 . S
H2225 C2237 0.959 . S
H2226 C2240 0.929 . S
H2227 C2241 0.931 . S
H2228 C2243 0.930 . S
C2229 H2217 0.930 . S
C2229 C2230 1.399 . S
C2229 C2234 1.399 . S
C2230 C2229 1.399 . S
C2230 C2231 1.376 . S
C2231 H2218 0.930 . S
C2231 C2230 1.376 . S
C2231 C2232 1.388 . S
C2232 H2219 0.930 . S
C2232 C2231 1.388 . S
C2232 C2233 1.390 . S
C2233 C2232 1.390 . S
C2233 C2234 1.394 . S
C2233 C2239 1.465 . S
C2234 C2229 1.399 . S
C2234 C2233 1.394 . S
C2234 C2235 1.516 . S
C2235 C2234 1.516 . S
C2235 C2236 1.502 . S
C2235 C2237 1.561 . S
C2235 C2238 1.526 . S
C2236 H2220 0.959 . S
C2236 H2221 0.959 . S
C2236 H2222 0.961 . S
C2236 C2235 1.502 . S
C2237 H2223 0.960 . S
C2237 H2224 0.961 . S
C2237 H2225 0.959 . S
C2237 C2235 1.561 . S
C2238 C2235 1.526 . S
C2238 C2239 1.396 . S
C2238 C2243 1.390 . S
C2239 C2233 1.465 . S
C2239 C2238 1.396 . S
C2239 C2240 1.399 . S
C2240 H2226 0.929 . S
C2240 C2239 1.399 . S
C2240 C2241 1.385 . S
C2241 H2227 0.931 . S
C2241 C2240 1.385 . S
C2241 C2242 1.389 . S
C2242 C2241 1.389 . S
C2242 C2243 1.387 . S
C2243 H2228 0.930 . S
C2243 C2238 1.390 . S
C2243 C2242 1.387 . S
H2244 C2256 0.930 . S
H2245 C2258 0.930 . S
H2246 C2259 0.930 . S
H2247 C2263 0.959 . S
H2248 C2263 0.959 . S
H2249 C2263 0.961 . S
H2250 C2264 0.960 . S
H2251 C2264 0.961 . S
H2252 C2264 0.959 . S
H2253 C2267 0.929 . S
H2254 C2268 0.931 . S
H2255 C2270 0.930 . S
C2256 H2244 0.930 . S
C2256 C2257 1.399 . S
C2256 C2261 1.399 . S
C2257 C2256 1.399 . S
C2257 C2258 1.376 . S
C2258 H2245 0.930 . S
C2258 C2257 1.376 . S
C2258 C2259 1.388 . S
C2259 H2246 0.930 . S
C2259 C2258 1.388 . S
C2259 C2260 1.390 . S
C2260 C2259 1.390 . S
C2260 C2261 1.394 . S
C2260 C2266 1.465 . S
C2261 C2256 1.399 . S
C2261 C2260 1.394 . S
C2261 C2262 1.516 . S
C2262 C2261 1.516 . S
C2262 C2263 1.502 . S
C2262 C2264 1.561 . S
C2262 C2265 1.526 . S
C2263 H2247 0.959 . S
C2263 H2248 0.959 . S
C2263 H2249 0.961 . S
C2263 C2262 1.502 . S
C2264 H2250 0.960 . S
C2264 H2251 0.961 . S
C2264 H2252 0.959 . S
C2264 C2262 1.561 . S
C2265 C2262 1.526 . S
C2265 C2266 1.396 . S
C2265 C2270 1.390 . S
C2266 C2260 1.465 . S
C2266 C2265 1.396 . S
C2266 C2267 1.399 . S
C2267 H2253 0.929 . S
C2267 C2266 1.399 . S
C2267 C2268 1.385 . S
C2268 H2254 0.931 . S
C2268 C2267 1.385 . S
C2268 C2269 1.389 . S
C2269 C2268 1.389 . S
C2269 C2270 1.387 . S
C2270 H2255 0.930 . S
C2270 C2265 1.390 . S
C2270 C2269 1.387 . S
H2271 C2283 0.930 . S
H2272 C2285 0.930 . S
H2273 C2286 0.930 . S
H2274 C2290 0.959 . S
H2275 C2290 0.959 . S
H2276 C2290 0.961 . S
H2277 C2291 0.960 . S
H2278 C2291 0.961 . S
H2279 C2291 0.959 . S
H2280 C2294 0.929 . S
H2281 C2295 0.931 . S
H2282 C2297 0.930 . S
C2283 H2271 0.930 . S
C2283 C2284 1.399 . S
C2283 C2288 1.399 . S
C2284 C2283 1.399 . S
C2284 C2285 1.376 . S
C2285 H2272 0.930 . S
C2285 C2284 1.376 . S
C2285 C2286 1.388 . S
C2286 H2273 0.930 . S
C2286 C2285 1.388 . S
C2286 C2287 1.390 . S
C2287 C2286 1.390 . S
C2287 C2288 1.394 . S
C2287 C2293 1.465 . S
C2288 C2283 1.399 . S
C2288 C2287 1.394 . S
C2288 C2289 1.516 . S
C2289 C2288 1.516 . S
C2289 C2290 1.502 . S
C2289 C2291 1.561 . S
C2289 C2292 1.526 . S
C2290 H2274 0.959 . S
C2290 H2275 0.959 . S
C2290 H2276 0.961 . S
C2290 C2289 1.502 . S
C2291 H2277 0.960 . S
C2291 H2278 0.961 . S
C2291 H2279 0.959 . S
C2291 C2289 1.561 . S
C2292 C2289 1.526 . S
C2292 C2293 1.396 . S
C2292 C2297 1.390 . S
C2293 C2287 1.465 . S
C2293 C2292 1.396 . S
C2293 C2294 1.399 . S
C2294 H2280 0.929 . S
C2294 C2293 1.399 . S
C2294 C2295 1.385 . S
C2295 H2281 0.931 . S
C2295 C2294 1.385 . S
C2295 C2296 1.389 . S
C2296 C2295 1.389 . S
C2296 C2297 1.387 . S
C2297 H2282 0.930 . S
C2297 C2292 1.390 . S
C2297 C2296 1.387 . S
H2298 C2310 0.930 . S
H2299 C2312 0.930 . S
H2300 C2313 0.930 . S
H2301 C2317 0.959 . S
H2302 C2317 0.959 . S
H2303 C2317 0.961 . S
H2304 C2318 0.960 . S
H2305 C2318 0.961 . S
H2306 C2318 0.959 . S
H2307 C2321 0.929 . S
H2308 C2322 0.931 . S
H2309 C2324 0.930 . S
C2310 H2298 0.930 . S
C2310 C2311 1.399 . S
C2310 C2315 1.399 . S
C2311 C2310 1.399 . S
C2311 C2312 1.376 . S
C2312 H2299 0.930 . S
C2312 C2311 1.376 . S
C2312 C2313 1.388 . S
C2313 H2300 0.930 . S
C2313 C2312 1.388 . S
C2313 C2314 1.390 . S
C2314 C2313 1.390 . S
C2314 C2315 1.394 . S
C2314 C2320 1.465 . S
C2315 C2310 1.399 . S
C2315 C2314 1.394 . S
C2315 C2316 1.516 . S
C2316 C2315 1.516 . S
C2316 C2317 1.502 . S
C2316 C2318 1.561 . S
C2316 C2319 1.526 . S
C2317 H2301 0.959 . S
C2317 H2302 0.959 . S
C2317 H2303 0.961 . S
C2317 C2316 1.502 . S
C2318 H2304 0.960 . S
C2318 H2305 0.961 . S
C2318 H2306 0.959 . S
C2318 C2316 1.561 . S
C2319 C2316 1.526 . S
C2319 C2320 1.396 . S
C2319 C2324 1.390 . S
C2320 C2314 1.465 . S
C2320 C2319 1.396 . S
C2320 C2321 1.399 . S
C2321 H2307 0.929 . S
C2321 C2320 1.399 . S
C2321 C2322 1.385 . S
C2322 H2308 0.931 . S
C2322 C2321 1.385 . S
C2322 C2323 1.389 . S
C2323 C2322 1.389 . S
C2323 C2324 1.387 . S
C2324 H2309 0.930 . S
C2324 C2319 1.390 . S
C2324 C2323 1.387 . S
H2325 C2337 0.930 . S
H2326 C2339 0.930 . S
H2327 C2340 0.930 . S
H2328 C2344 0.959 . S
H2329 C2344 0.959 . S
H2330 C2344 0.961 . S
H2331 C2345 0.960 . S
H2332 C2345 0.961 . S
H2333 C2345 0.959 . S
H2334 C2348 0.929 . S
H2335 C2349 0.931 . S
H2336 C2351 0.930 . S
C2337 H2325 0.930 . S
C2337 C2338 1.399 . S
C2337 C2342 1.399 . S
C2338 C2337 1.399 . S
C2338 C2339 1.376 . S
C2339 H2326 0.930 . S
C2339 C2338 1.376 . S
C2339 C2340 1.388 . S
C2340 H2327 0.930 . S
C2340 C2339 1.388 . S
C2340 C2341 1.390 . S
C2341 C2340 1.390 . S
C2341 C2342 1.394 . S
C2341 C2347 1.465 . S
C2342 C2337 1.399 . S
C2342 C2341 1.394 . S
C2342 C2343 1.516 . S
C2343 C2342 1.516 . S
C2343 C2344 1.502 . S
C2343 C2345 1.561 . S
C2343 C2346 1.526 . S
C2344 H2328 0.959 . S
C2344 H2329 0.959 . S
C2344 H2330 0.961 . S
C2344 C2343 1.502 . S
C2345 H2331 0.960 . S
C2345 H2332 0.961 . S
C2345 H2333 0.959 . S
C2345 C2343 1.561 . S
C2346 C2343 1.526 . S
C2346 C2347 1.396 . S
C2346 C2351 1.390 . S
C2347 C2341 1.465 . S
C2347 C2346 1.396 . S
C2347 C2348 1.399 . S
C2348 H2334 0.929 . S
C2348 C2347 1.399 . S
C2348 C2349 1.385 . S
C2349 H2335 0.931 . S
C2349 C2348 1.385 . S
C2349 C2350 1.389 . S
C2350 C2349 1.389 . S
C2350 C2351 1.387 . S
C2351 H2336 0.930 . S
C2351 C2346 1.390 . S
C2351 C2350 1.387 . S
H2352 C2364 0.930 . S
H2353 C2366 0.930 . S
H2354 C2367 0.930 . S
H2355 C2371 0.959 . S
H2356 C2371 0.959 . S
H2357 C2371 0.961 . S
H2358 C2372 0.960 . S
H2359 C2372 0.961 . S
H2360 C2372 0.959 1_655 S
H2361 C2375 0.929 . S
H2362 C2376 0.931 . S
H2363 C2378 0.930 . S
C2364 H2352 0.930 . S
C2364 C2365 1.399 . S
C2364 C2369 1.399 . S
C2365 C2364 1.399 . S
C2365 C2366 1.376 . S
C2366 H2353 0.930 . S
C2366 C2365 1.376 . S
C2366 C2367 1.388 . S
C2367 H2354 0.930 . S
C2367 C2366 1.388 . S
C2367 C2368 1.390 . S
C2368 C2367 1.390 . S
C2368 C2369 1.394 . S
C2368 C2374 1.465 . S
C2369 C2364 1.399 . S
C2369 C2368 1.394 . S
C2369 C2370 1.516 1_655 S
C2370 C2369 1.516 1_455 S
C2370 C2371 1.502 . S
C2370 C2372 1.561 . S
C2370 C2373 1.526 . S
C2371 H2355 0.959 . S
C2371 H2356 0.959 . S
C2371 H2357 0.961 . S
C2371 C2370 1.502 . S
C2372 H2358 0.960 . S
C2372 H2359 0.961 . S
C2372 H2360 0.959 1_455 S
C2372 C2370 1.561 . S
C2373 C2370 1.526 . S
C2373 C2374 1.396 1_455 S
C2373 C2378 1.390 . S
C2374 C2368 1.465 . S
C2374 C2373 1.396 1_655 S
C2374 C2375 1.399 . S
C2375 H2361 0.929 . S
C2375 C2374 1.399 . S
C2375 C2376 1.385 1_655 S
C2376 H2362 0.931 . S
C2376 C2375 1.385 1_455 S
C2376 C2377 1.389 . S
C2377 C2376 1.389 . S
C2377 C2378 1.387 . S
C2378 H2363 0.930 . S
C2378 C2373 1.390 . S
C2378 C2377 1.387 . S
H2379 C2391 0.930 . S
H2380 C2393 0.930 . S
H2381 C2394 0.930 1_545 S
H2382 C2398 0.959 . S
H2383 C2398 0.959 . S
H2384 C2398 0.961 . S
H2385 C2399 0.960 . S
H2386 C2399 0.961 . S
H2387 C2399 0.959 . S
H2388 C2402 0.929 . S
H2389 C2403 0.931 . S
H2390 C2405 0.930 . S
C2391 H2379 0.930 . S
C2391 C2392 1.399 . S
C2391 C2396 1.399 . S
C2392 C2391 1.399 . S
C2392 C2393 1.376 . S
C2393 H2380 0.930 . S
C2393 C2392 1.376 . S
C2393 C2394 1.388 . S
C2394 H2381 0.930 1_565 S
C2394 C2393 1.388 . S
C2394 C2395 1.398 . S
C2395 C2394 1.398 . S
C2395 C2396 1.472 . S
C2395 C2401 1.394 1_565 S
C2396 C2391 1.399 . S
C2396 C2395 1.472 . S
C2396 C2397 1.516 . S
C2397 C2396 1.516 . S
C2397 C2398 1.502 . S
C2397 C2399 1.561 . S
C2397 C2400 1.526 1_565 S
C2398 H2382 0.959 . S
C2398 H2383 0.959 . S
C2398 H2384 0.961 . S
C2398 C2397 1.502 . S
C2399 H2385 0.960 . S
C2399 H2386 0.961 . S
C2399 H2387 0.959 . S
C2399 C2397 1.561 . S
C2400 C2397 1.526 1_545 S
C2400 C2401 1.396 . S
C2400 C2405 1.390 . S
C2401 C2395 1.394 1_545 S
C2401 C2400 1.396 . S
C2401 C2402 1.399 . S
C2402 H2388 0.929 . S
C2402 C2401 1.399 . S
C2402 C2403 1.385 . S
C2403 H2389 0.931 . S
C2403 C2402 1.385 . S
C2403 C2404 1.389 . S
C2404 C2403 1.389 . S
C2404 C2405 1.387 . S
C2405 H2390 0.930 . S
C2405 C2400 1.390 . S
C2405 C2404 1.387 . S
H2406 C2418 0.930 . S
H2407 C2420 0.930 . S
H2408 C2421 0.930 . S
H2409 C2425 0.959 1_545 S
H2410 C2425 0.959 . S
H2411 C2425 0.961 1_545 S
H2412 C2426 0.967 . S
H2413 C2426 0.943 1_655 S
H2414 C2426 0.984 . S
H2415 C2429 0.929 . S
H2416 C2430 0.931 . S
H2417 C2432 0.930 1_556 S
C2418 H2406 0.930 . S
C2418 C2419 1.399 . S
C2418 C2423 1.399 . S
C2419 C2418 1.399 . S
C2419 C2420 1.376 . S
C2420 H2407 0.930 . S
C2420 C2419 1.376 . S
C2420 C2421 1.388 1_556 S
C2421 H2408 0.930 . S
C2421 C2420 1.388 1_554 S
C2421 C2422 1.390 . S
C2422 C2421 1.390 . S
C2422 C2423 1.394 1_554 S
C2422 C2428 1.465 1_545 S
C2423 C2418 1.399 . S
C2423 C2422 1.394 1_556 S
C2423 C2424 1.516 1_445 S
C2424 C2423 1.516 1_665 S
C2424 C2425 1.502 . S
C2424 C2426 1.548 1_655 S
C2424 C2427 1.526 1_556 S
C2425 H2409 0.959 1_565 S
C2425 H2410 0.959 . S
C2425 H2411 0.961 1_565 S
C2425 C2424 1.502 . S
C2426 H2412 0.967 . S
C2426 H2413 0.943 1_455 S
C2426 H2414 0.984 . S
C2426 C2424 1.548 1_455 S
C2427 C2424 1.526 1_554 S
C2427 C2428 1.396 1_655 S
C2427 C2432 1.390 . S
C2428 C2422 1.465 1_565 S
C2428 C2427 1.396 1_455 S
C2428 C2429 1.399 . S
C2429 H2415 0.929 . S
C2429 C2428 1.399 . S
C2429 C2430 1.385 1_455 S
C2430 H2416 0.931 . S
C2430 C2429 1.385 1_655 S
C2430 C2431 1.389 . S
C2431 C2430 1.389 . S
C2431 C2432 1.387 . S
C2432 H2417 0.930 1_554 S
C2432 C2427 1.390 . S
C2432 C2431 1.387 . S
H2433 C2445 0.930 1_556 S
H2434 C2447 0.930 . S
H2435 C2448 0.930 . S
H2436 C2452 0.959 . S
H2437 C2452 0.959 . S
H2438 C2452 0.961 . S
H2439 C2453 0.960 . S
H2440 C2453 0.961 . S
H2441 C2453 0.959 . S
H2442 C2456 0.929 . S
H2443 C2457 0.931 . S
H2444 C2459 0.930 . S
C2445 H2433 0.930 1_554 S
C2445 C2446 1.399 . S
C2445 C2450 1.399 . S
C2446 C2445 1.399 . S
C2446 C2447 1.376 . S
C2447 H2434 0.930 . S
C2447 C2446 1.376 . S
C2447 C2448 1.388 . S
C2448 H2435 0.930 . S
C2448 C2447 1.388 . S
C2448 C2449 1.390 . S
C2449 C2448 1.390 . S
C2449 C2450 1.394 . S
C2449 C2455 1.465 . S
C2450 C2445 1.399 . S
C2450 C2449 1.394 . S
C2450 C2451 1.516 1_554 S
C2451 C2450 1.516 1_556 S
C2451 C2452 1.502 . S
C2451 C2453 1.561 . S
C2451 C2454 1.526 . S
C2452 H2436 0.959 . S
C2452 H2437 0.959 . S
C2452 H2438 0.961 . S
C2452 C2451 1.502 . S
C2453 H2439 0.960 . S
C2453 H2440 0.961 . S
C2453 H2441 0.959 . S
C2453 C2451 1.561 . S
C2454 C2451 1.526 . S
C2454 C2455 1.396 1_556 S
C2454 C2459 1.390 . S
C2455 C2449 1.465 . S
C2455 C2454 1.396 1_554 S
C2455 C2456 1.399 . S
C2456 H2442 0.929 . S
C2456 C2455 1.399 . S
C2456 C2457 1.385 1_554 S
C2457 H2443 0.931 . S
C2457 C2456 1.385 1_556 S
C2457 C2458 1.389 . S
C2458 C2457 1.389 . S
C2458 C2459 1.387 . S
C2459 H2444 0.930 . S
C2459 C2454 1.390 . S
C2459 C2458 1.387 . S
H2460 C2472 0.930 . S
H2461 C2474 0.930 . S
H2462 C2475 0.930 . S
H2463 C2479 0.959 . S
H2464 C2479 0.959 . S
H2465 C2479 0.961 . S
H2466 C2480 0.960 . S
H2467 C2480 0.961 . S
H2468 C2480 0.959 . S
H2469 C2483 0.929 . S
H2470 C2484 0.931 . S
H2471 C2486 0.930 . S
C2472 H2460 0.930 . S
C2472 C2473 1.399 . S
C2472 C2477 1.399 . S
C2473 C2472 1.399 . S
C2473 C2474 1.376 . S
C2474 H2461 0.930 . S
C2474 C2473 1.376 . S
C2474 C2475 1.388 . S
C2475 H2462 0.930 . S
C2475 C2474 1.388 . S
C2475 C2476 1.390 . S
C2476 C2475 1.390 . S
C2476 C2477 1.394 . S
C2476 C2482 1.465 1_455 S
C2477 C2472 1.399 . S
C2477 C2476 1.394 . S
C2477 C2478 1.508 1_455 S
C2478 C2477 1.508 1_655 S
C2478 C2479 1.518 . S
C2478 C2480 1.545 1_655 S
C2478 C2481 1.533 . S
C2479 H2463 0.959 . S
C2479 H2464 0.959 . S
C2479 H2465 0.961 . S
C2479 C2478 1.518 . S
C2480 H2466 0.960 . S
C2480 H2467 0.961 . S
C2480 H2468 0.959 . S
C2480 C2478 1.545 1_455 S
C2481 C2478 1.533 . S
C2481 C2482 1.396 . S
C2481 C2486 1.390 . S
C2482 C2476 1.465 1_655 S
C2482 C2481 1.396 . S
C2482 C2483 1.399 . S
C2483 H2469 0.929 . S
C2483 C2482 1.399 . S
C2483 C2484 1.385 . S
C2484 H2470 0.931 . S
C2484 C2483 1.385 . S
C2484 C2485 1.389 . S
C2485 C2484 1.389 . S
C2485 C2486 1.387 . S
C2486 H2471 0.930 . S
C2486 C2481 1.390 . S
C2486 C2485 1.387 . S
H2487 C2499 0.930 . S
H2488 C2501 0.930 . S
H2489 C2502 0.930 . S
H2490 C2506 0.959 . S
H2491 C2506 0.959 . S
H2492 C2506 0.961 . S
H2493 C2507 0.960 . S
H2494 C2507 0.961 . S
H2495 C2507 0.959 . S
H2496 C2510 0.929 . S
H2497 C2511 0.931 . S
H2498 C2513 0.930 . S
C2499 H2487 0.930 . S
C2499 C2500 1.399 . S
C2499 C2504 1.399 . S
C2500 C2499 1.399 . S
C2500 C2501 1.376 . S
C2501 H2488 0.930 . S
C2501 C2500 1.376 . S
C2501 C2502 1.388 . S
C2502 H2489 0.930 . S
C2502 C2501 1.388 . S
C2502 C2503 1.390 . S
C2503 C2502 1.390 . S
C2503 C2504 1.394 . S
C2503 C2509 1.465 1_545 S
C2504 C2499 1.399 . S
C2504 C2503 1.394 . S
C2504 C2505 1.516 . S
C2505 C2504 1.516 . S
C2505 C2506 1.502 1_545 S
C2505 C2507 1.561 . S
C2505 C2508 1.526 1_545 S
C2506 H2490 0.959 . S
C2506 H2491 0.959 . S
C2506 H2492 0.961 . S
C2506 C2505 1.502 1_565 S
C2507 H2493 0.960 . S
C2507 H2494 0.961 . S
C2507 H2495 0.959 . S
C2507 C2505 1.561 . S
C2508 C2505 1.526 1_565 S
C2508 C2509 1.396 . S
C2508 C2513 1.390 . S
C2509 C2503 1.465 1_565 S
C2509 C2508 1.396 . S
C2509 C2510 1.399 . S
C2510 H2496 0.929 . S
C2510 C2509 1.399 . S
C2510 C2511 1.385 . S
C2511 H2497 0.931 . S
C2511 C2510 1.385 . S
C2511 C2512 1.389 . S
C2512 C2511 1.389 . S
C2512 C2513 1.387 . S
C2513 H2498 0.930 . S
C2513 C2508 1.390 . S
C2513 C2512 1.387 . S
H2514 C2526 0.930 . S
H2515 C2528 0.930 . S
H2516 C2529 0.930 . S
H2517 C2533 0.959 . S
H2518 C2533 0.959 . S
H2519 C2533 0.961 . S
H2520 C2534 0.960 . S
H2521 C2534 0.961 . S
H2522 C2534 0.959 . S
H2523 C2537 0.929 . S
H2524 C2538 0.931 . S
H2525 C2540 0.922 1_556 S
C2526 H2514 0.930 . S
C2526 C2527 1.399 . S
C2526 C2531 1.399 . S
C2527 C2526 1.399 . S
C2527 C2528 1.376 . S
C2528 H2515 0.930 . S
C2528 C2527 1.376 . S
C2528 C2529 1.388 1_556 S
C2529 H2516 0.930 . S
C2529 C2528 1.388 1_554 S
C2529 C2530 1.390 . S
C2530 C2529 1.390 . S
C2530 C2531 1.394 1_554 S
C2530 C2536 1.465 . S
C2531 C2526 1.399 . S
C2531 C2530 1.394 1_556 S
C2531 C2532 1.516 . S
C2532 C2531 1.516 . S
C2532 C2533 1.502 . S
C2532 C2534 1.561 . S
C2532 C2535 1.526 1_556 S
C2533 H2517 0.959 . S
C2533 H2518 0.959 . S
C2533 H2519 0.961 . S
C2533 C2532 1.502 . S
C2534 H2520 0.960 . S
C2534 H2521 0.961 . S
C2534 H2522 0.959 . S
C2534 C2532 1.561 . S
C2535 C2532 1.526 1_554 S
C2535 C2536 1.396 . S
C2535 C2540 1.390 . S
C2536 C2530 1.465 . S
C2536 C2535 1.396 . S
C2536 C2537 1.399 . S
C2537 H2523 0.929 . S
C2537 C2536 1.399 . S
C2537 C2538 1.385 . S
C2538 H2524 0.931 . S
C2538 C2537 1.385 . S
C2538 C2539 1.389 . S
C2539 C2538 1.389 . S
C2539 C2540 1.387 . S
C2540 H2525 0.922 1_554 S
C2540 C2535 1.390 . S
C2540 C2539 1.387 . S
H2541 C2553 0.930 . S
H2542 C2555 0.930 . S
H2543 C2556 0.930 . S
H2544 C2560 0.959 . S
H2545 C2560 0.959 . S
H2546 C2560 0.961 . S
H2547 C2561 0.960 . S
H2548 C2561 0.961 . S
H2549 C2561 0.959 . S
H2550 C2564 0.929 . S
H2551 C2565 0.931 . S
H2552 C2567 0.930 . S
C2553 H2541 0.930 . S
C2553 C2554 1.399 . S
C2553 C2558 1.399 . S
C2554 C2553 1.399 . S
C2554 C2555 1.376 . S
C2555 H2542 0.930 . S
C2555 C2554 1.376 . S
C2555 C2556 1.388 . S
C2556 H2543 0.930 . S
C2556 C2555 1.388 . S
C2556 C2557 1.390 . S
C2557 C2556 1.390 . S
C2557 C2558 1.394 . S
C2557 C2563 1.465 . S
C2558 C2553 1.399 . S
C2558 C2557 1.394 . S
C2558 C2559 1.516 . S
C2559 C2558 1.516 . S
C2559 C2560 1.502 . S
C2559 C2561 1.561 . S
C2559 C2562 1.526 . S
C2560 H2544 0.959 . S
C2560 H2545 0.959 . S
C2560 H2546 0.961 . S
C2560 C2559 1.502 . S
C2561 H2547 0.960 . S
C2561 H2548 0.961 . S
C2561 H2549 0.959 . S
C2561 C2559 1.561 . S
C2562 C2559 1.526 . S
C2562 C2563 1.396 . S
C2562 C2567 1.390 . S
C2563 C2557 1.465 . S
C2563 C2562 1.396 . S
C2563 C2564 1.399 . S
C2564 H2550 0.929 . S
C2564 C2563 1.399 . S
C2564 C2565 1.385 . S
C2565 H2551 0.931 . S
C2565 C2564 1.385 . S
C2565 C2566 1.389 . S
C2566 C2565 1.389 . S
C2566 C2567 1.387 . S
C2567 H2552 0.930 . S
C2567 C2562 1.390 . S
C2567 C2566 1.387 . S
H2568 C2580 0.930 . S
H2569 C2582 0.930 . S
H2570 C2583 0.930 . S
H2571 C2587 0.959 . S
H2572 C2587 0.959 . S
H2573 C2587 0.961 . S
H2574 C2588 0.960 . S
H2575 C2588 0.961 . S
H2576 C2588 0.959 . S
H2577 C2591 0.929 . S
H2578 C2592 0.931 . S
H2579 C2594 0.930 . S
C2580 H2568 0.930 . S
C2580 C2581 1.399 . S
C2580 C2585 1.399 . S
C2581 C2580 1.399 . S
C2581 C2582 1.376 . S
C2582 H2569 0.930 . S
C2582 C2581 1.376 . S
C2582 C2583 1.388 . S
C2583 H2570 0.930 . S
C2583 C2582 1.388 . S
C2583 C2584 1.390 . S
C2584 C2583 1.390 . S
C2584 C2585 1.394 . S
C2584 C2590 1.465 1_655 S
C2585 C2580 1.399 . S
C2585 C2584 1.394 . S
C2585 C2586 1.516 . S
C2586 C2585 1.516 . S
C2586 C2587 1.502 1_655 S
C2586 C2588 1.561 . S
C2586 C2589 1.526 1_655 S
C2587 H2571 0.959 . S
C2587 H2572 0.959 . S
C2587 H2573 0.961 . S
C2587 C2586 1.502 1_455 S
C2588 H2574 0.960 . S
C2588 H2575 0.961 . S
C2588 H2576 0.959 . S
C2588 C2586 1.561 . S
C2589 C2586 1.526 1_455 S
C2589 C2590 1.396 . S
C2589 C2594 1.390 . S
C2590 C2584 1.465 1_455 S
C2590 C2589 1.396 . S
C2590 C2591 1.399 . S
C2591 H2577 0.929 . S
C2591 C2590 1.399 . S
C2591 C2592 1.385 . S
C2592 H2578 0.931 . S
C2592 C2591 1.385 . S
C2592 C2593 1.389 . S
C2593 C2592 1.389 . S
C2593 C2594 1.387 . S
C2594 H2579 0.930 . S
C2594 C2589 1.390 . S
C2594 C2593 1.387 . S
H2595 C2607 0.930 . S
H2596 C2609 0.930 . S
H2597 C2610 0.930 . S
H2598 C2614 0.959 . S
H2599 C2614 0.959 . S
H2600 C2614 0.961 . S
H2601 C2615 0.960 . S
H2602 C2615 0.961 . S
H2603 C2615 0.959 . S
H2604 C2618 0.929 . S
H2605 C2619 0.931 . S
H2606 C2621 0.930 . S
C2607 H2595 0.930 . S
C2607 C2608 1.399 . S
C2607 C2612 1.399 . S
C2608 C2607 1.399 . S
C2608 C2609 1.376 . S
C2609 H2596 0.930 . S
C2609 C2608 1.376 . S
C2609 C2610 1.388 . S
C2610 H2597 0.930 . S
C2610 C2609 1.388 . S
C2610 C2611 1.390 . S
C2611 C2610 1.390 . S
C2611 C2612 1.394 . S
C2611 C2617 1.465 . S
C2612 C2607 1.399 . S
C2612 C2611 1.394 . S
C2612 C2613 1.516 . S
C2613 C2612 1.516 . S
C2613 C2614 1.502 . S
C2613 C2615 1.561 . S
C2613 C2616 1.526 . S
C2614 H2598 0.959 . S
C2614 H2599 0.959 . S
C2614 H2600 0.961 . S
C2614 C2613 1.502 . S
C2615 H2601 0.960 . S
C2615 H2602 0.961 . S
C2615 H2603 0.959 . S
C2615 C2613 1.561 . S
C2616 C2613 1.526 . S
C2616 C2617 1.396 . S
C2616 C2621 1.390 . S
C2617 C2611 1.465 . S
C2617 C2616 1.396 . S
C2617 C2618 1.399 . S
C2618 H2604 0.929 . S
C2618 C2617 1.399 . S
C2618 C2619 1.385 . S
C2619 H2605 0.931 . S
C2619 C2618 1.385 . S
C2619 C2620 1.389 . S
C2620 C2619 1.389 . S
C2620 C2621 1.387 . S
C2621 H2606 0.930 . S
C2621 C2616 1.390 . S
C2621 C2620 1.387 . S
H2622 C2634 0.930 . S
H2623 C2636 0.930 . S
H2624 C2637 0.930 . S
H2625 C2641 0.959 . S
H2626 C2641 0.959 . S
H2627 C2641 0.961 . S
H2628 C2642 0.960 . S
H2629 C2642 0.961 . S
H2630 C2642 0.959 . S
H2631 C2645 0.929 . S
H2632 C2646 0.931 . S
H2633 C2648 0.930 . S
C2634 H2622 0.930 . S
C2634 C2635 1.399 . S
C2634 C2639 1.399 . S
C2635 C2634 1.399 . S
C2635 C2636 1.376 . S
C2636 H2623 0.930 . S
C2636 C2635 1.376 . S
C2636 C2637 1.388 . S
C2637 H2624 0.930 . S
C2637 C2636 1.388 . S
C2637 C2638 1.390 . S
C2638 C2637 1.390 . S
C2638 C2639 1.394 . S
C2638 C2644 1.465 . S
C2639 C2634 1.399 . S
C2639 C2638 1.394 . S
C2639 C2640 1.516 . S
C2640 C2639 1.516 . S
C2640 C2641 1.502 . S
C2640 C2642 1.561 . S
C2640 C2643 1.526 . S
C2641 H2625 0.959 . S
C2641 H2626 0.959 . S
C2641 H2627 0.961 . S
C2641 C2640 1.502 . S
C2642 H2628 0.960 . S
C2642 H2629 0.961 . S
C2642 H2630 0.959 . S
C2642 C2640 1.561 . S
C2643 C2640 1.526 . S
C2643 C2644 1.396 . S
C2643 C2648 1.390 . S
C2644 C2638 1.465 . S
C2644 C2643 1.396 . S
C2644 C2645 1.399 . S
C2645 H2631 0.929 . S
C2645 C2644 1.399 . S
C2645 C2646 1.385 . S
C2646 H2632 0.931 . S
C2646 C2645 1.385 . S
C2646 C2647 1.389 . S
C2647 C2646 1.389 . S
C2647 C2648 1.387 . S
C2648 H2633 0.930 . S
C2648 C2643 1.390 . S
C2648 C2647 1.387 . S
H2649 C2661 0.930 . S
H2650 C2663 0.930 . S
H2651 C2664 0.930 . S
H2652 C2668 0.959 . S
H2653 C2668 0.959 . S
H2654 C2668 0.961 . S
H2655 C2669 0.960 . S
H2656 C2669 0.961 . S
H2657 C2669 0.959 . S
H2658 C2672 0.929 . S
H2659 C2673 0.931 . S
H2660 C2675 0.930 . S
C2661 H2649 0.930 . S
C2661 C2662 1.399 . S
C2661 C2666 1.399 . S
C2662 C2661 1.399 . S
C2662 C2663 1.376 . S
C2663 H2650 0.930 . S
C2663 C2662 1.376 . S
C2663 C2664 1.388 . S
C2664 H2651 0.930 . S
C2664 C2663 1.388 . S
C2664 C2665 1.390 . S
C2665 C2664 1.390 . S
C2665 C2666 1.394 . S
C2665 C2671 1.465 . S
C2666 C2661 1.399 . S
C2666 C2665 1.394 . S
C2666 C2667 1.516 . S
C2667 C2666 1.516 . S
C2667 C2668 1.502 . S
C2667 C2669 1.561 . S
C2667 C2670 1.526 . S
C2668 H2652 0.959 . S
C2668 H2653 0.959 . S
C2668 H2654 0.961 . S
C2668 C2667 1.502 . S
C2669 H2655 0.960 . S
C2669 H2656 0.961 . S
C2669 H2657 0.959 . S
C2669 C2667 1.561 . S
C2670 C2667 1.526 . S
C2670 C2671 1.396 . S
C2670 C2675 1.390 . S
C2671 C2665 1.465 . S
C2671 C2670 1.396 . S
C2671 C2672 1.399 . S
C2672 H2658 0.929 . S
C2672 C2671 1.399 . S
C2672 C2673 1.385 . S
C2673 H2659 0.931 . S
C2673 C2672 1.385 . S
C2673 C2674 1.389 . S
C2674 C2673 1.389 . S
C2674 C2675 1.387 . S
C2675 H2660 0.930 . S
C2675 C2670 1.390 . S
C2675 C2674 1.387 . S
H2676 C2688 0.930 . S
H2677 C2690 0.930 . S
H2678 C2691 0.930 . S
H2679 C2695 0.959 . S
H2680 C2695 0.959 . S
H2681 C2695 0.961 . S
H2682 C2696 0.960 . S
H2683 C2696 0.961 . S
H2684 C2696 0.959 . S
H2685 C2699 0.929 . S
H2686 C2700 0.931 . S
H2687 C2702 0.930 . S
C2688 H2676 0.930 . S
C2688 C2689 1.399 . S
C2688 C2693 1.399 . S
C2689 C2688 1.399 . S
C2689 C2690 1.376 . S
C2690 H2677 0.930 . S
C2690 C2689 1.376 . S
C2690 C2691 1.388 . S
C2691 H2678 0.930 . S
C2691 C2690 1.388 . S
C2691 C2692 1.390 . S
C2692 C2691 1.390 . S
C2692 C2693 1.394 . S
C2692 C2698 1.465 . S
C2693 C2688 1.399 . S
C2693 C2692 1.394 . S
C2693 C2694 1.516 . S
C2694 C2693 1.516 . S
C2694 C2695 1.502 . S
C2694 C2696 1.561 . S
C2694 C2697 1.526 . S
C2695 H2679 0.959 . S
C2695 H2680 0.959 . S
C2695 H2681 0.961 . S
C2695 C2694 1.502 . S
C2696 H2682 0.960 . S
C2696 H2683 0.961 . S
C2696 H2684 0.959 . S
C2696 C2694 1.561 . S
C2697 C2694 1.526 . S
C2697 C2698 1.396 . S
C2697 C2702 1.390 . S
C2698 C2692 1.465 . S
C2698 C2697 1.396 . S
C2698 C2699 1.399 . S
C2699 H2685 0.929 . S
C2699 C2698 1.399 . S
C2699 C2700 1.385 . S
C2700 H2686 0.931 . S
C2700 C2699 1.385 . S
C2700 C2701 1.389 . S
C2701 C2700 1.389 . S
C2701 C2702 1.387 . S
C2702 H2687 0.930 . S
C2702 C2697 1.390 . S
C2702 C2701 1.387 . S
H2703 C2715 0.930 . S
H2704 C2717 0.930 . S
H2705 C2718 0.930 . S
H2706 C2722 0.959 . S
H2707 C2722 0.959 . S
H2708 C2722 0.961 . S
H2709 C2723 0.960 . S
H2710 C2723 0.961 . S
H2711 C2723 0.959 . S
H2712 C2726 0.854 1_545 S
H2713 C2727 0.931 . S
H2714 C2729 0.930 . S
C2715 H2703 0.930 . S
C2715 C2716 1.399 . S
C2715 C2720 1.399 . S
C2716 C2715 1.399 . S
C2716 C2717 1.376 . S
C2717 H2704 0.930 . S
C2717 C2716 1.376 . S
C2717 C2718 1.388 . S
C2718 H2705 0.930 . S
C2718 C2717 1.388 . S
C2718 C2719 1.390 . S
C2719 C2718 1.390 . S
C2719 C2720 1.394 . S
C2719 C2725 1.395 1_545 S
C2720 C2715 1.399 . S
C2720 C2719 1.394 . S
C2720 C2721 1.516 1_545 S
C2721 C2720 1.516 1_565 S
C2721 C2722 1.502 . S
C2721 C2723 1.561 . S
C2721 C2724 1.526 . S
C2722 H2706 0.959 . S
C2722 H2707 0.959 . S
C2722 H2708 0.961 . S
C2722 C2721 1.502 . S
C2723 H2709 0.960 . S
C2723 H2710 0.961 . S
C2723 H2711 0.959 . S
C2723 C2721 1.561 . S
C2724 C2721 1.526 . S
C2724 C2725 1.478 . S
C2724 C2729 1.390 . S
C2725 C2719 1.395 1_565 S
C2725 C2724 1.478 . S
C2725 C2726 1.399 . S
C2726 H2712 0.854 1_565 S
C2726 C2725 1.399 . S
C2726 C2727 1.464 . S
C2727 H2713 0.931 . S
C2727 C2726 1.464 . S
C2727 C2728 1.389 . S
C2728 C2727 1.389 . S
C2728 C2729 1.387 . S
C2729 H2714 0.930 . S
C2729 C2724 1.390 . S
C2729 C2728 1.387 . S
H2730 C2742 0.930 . S
H2731 C2744 0.930 . S
H2732 C2745 0.930 . S
H2733 C2749 0.959 . S
H2734 C2749 0.959 . S
H2735 C2749 0.961 . S
H2736 C2750 0.960 . S
H2737 C2750 0.961 . S
H2738 C2750 0.959 . S
H2739 C2753 0.929 . S
H2740 C2754 0.931 . S
H2741 C2756 0.930 . S
C2742 H2730 0.930 . S
C2742 C2743 1.399 . S
C2742 C2747 1.399 . S
C2743 C2742 1.399 . S
C2743 C2744 1.376 . S
C2744 H2731 0.930 . S
C2744 C2743 1.376 . S
C2744 C2745 1.388 . S
C2745 H2732 0.930 . S
C2745 C2744 1.388 . S
C2745 C2746 1.390 . S
C2746 C2745 1.390 . S
C2746 C2747 1.394 . S
C2746 C2752 1.465 . S
C2747 C2742 1.399 . S
C2747 C2746 1.394 . S
C2747 C2748 1.516 . S
C2748 C2747 1.516 . S
C2748 C2749 1.502 . S
C2748 C2750 1.561 . S
C2748 C2751 1.526 . S
C2749 H2733 0.959 . S
C2749 H2734 0.959 . S
C2749 H2735 0.961 . S
C2749 C2748 1.502 . S
C2750 H2736 0.960 . S
C2750 H2737 0.961 . S
C2750 H2738 0.959 . S
C2750 C2748 1.561 . S
C2751 C2748 1.526 . S
C2751 C2752 1.396 . S
C2751 C2756 1.390 . S
C2752 C2746 1.465 . S
C2752 C2751 1.396 . S
C2752 C2753 1.399 . S
C2753 H2739 0.929 . S
C2753 C2752 1.399 . S
C2753 C2754 1.385 . S
C2754 H2740 0.931 . S
C2754 C2753 1.385 . S
C2754 C2755 1.389 . S
C2755 C2754 1.389 . S
C2755 C2756 1.387 . S
C2756 H2741 0.930 . S
C2756 C2751 1.390 . S
C2756 C2755 1.387 . S
H2757 C2769 0.930 . S
H2758 C2771 0.930 . S
H2759 C2772 0.930 1_556 S
H2760 C2776 0.959 1_556 S
H2761 C2776 0.959 . S
H2762 C2776 0.961 . S
H2763 C2777 0.960 . S
H2764 C2777 0.961 . S
H2765 C2777 0.959 . S
H2766 C2780 0.929 . S
H2767 C2781 0.931 . S
H2768 C2783 0.930 . S
C2769 H2757 0.930 . S
C2769 C2770 1.399 . S
C2769 C2774 1.399 . S
C2770 C2769 1.399 . S
C2770 C2771 1.376 . S
C2771 H2758 0.930 . S
C2771 C2770 1.376 . S
C2771 C2772 1.388 . S
C2772 H2759 0.930 1_554 S
C2772 C2771 1.388 . S
C2772 C2773 1.390 . S
C2773 C2772 1.390 . S
C2773 C2774 1.394 . S
C2773 C2779 1.465 1_554 S
C2774 C2769 1.399 . S
C2774 C2773 1.394 . S
C2774 C2775 1.516 . S
C2775 C2774 1.516 . S
C2775 C2776 1.502 . S
C2775 C2777 1.561 . S
C2775 C2778 1.526 1_554 S
C2776 H2760 0.959 1_554 S
C2776 H2761 0.959 . S
C2776 H2762 0.961 . S
C2776 C2775 1.502 . S
C2777 H2763 0.960 . S
C2777 H2764 0.961 . S
C2777 H2765 0.959 . S
C2777 C2775 1.561 . S
C2778 C2775 1.526 1_556 S
C2778 C2779 1.396 . S
C2778 C2783 1.390 . S
C2779 C2773 1.465 1_556 S
C2779 C2778 1.396 . S
C2779 C2780 1.399 . S
C2780 H2766 0.929 . S
C2780 C2779 1.399 . S
C2780 C2781 1.385 . S
C2781 H2767 0.931 . S
C2781 C2780 1.385 . S
C2781 C2782 1.389 . S
C2782 C2781 1.389 . S
C2782 C2783 1.387 . S
C2783 H2768 0.930 . S
C2783 C2778 1.390 . S
C2783 C2782 1.387 . S
H2784 C2796 0.930 . S
H2785 C2798 0.930 . S
H2786 C2799 0.930 . S
H2787 C2803 0.959 . S
H2788 C2803 0.959 . S
H2789 C2803 0.961 . S
H2790 C2804 0.960 . S
H2791 C2804 0.961 . S
H2792 C2804 0.959 . S
H2793 C2807 0.929 . S
H2794 C2808 0.931 . S
H2795 C2810 0.930 . S
C2796 H2784 0.930 . S
C2796 C2797 1.399 . S
C2796 C2801 1.399 . S
C2797 C2796 1.399 . S
C2797 C2798 1.376 . S
C2798 H2785 0.930 . S
C2798 C2797 1.376 . S
C2798 C2799 1.388 . S
C2799 H2786 0.930 . S
C2799 C2798 1.388 . S
C2799 C2800 1.390 . S
C2800 C2799 1.390 . S
C2800 C2801 1.394 . S
C2800 C2806 1.465 . S
C2801 C2796 1.399 . S
C2801 C2800 1.394 . S
C2801 C2802 1.516 . S
C2802 C2801 1.516 . S
C2802 C2803 1.502 . S
C2802 C2804 1.561 . S
C2802 C2805 1.526 . S
C2803 H2787 0.959 . S
C2803 H2788 0.959 . S
C2803 H2789 0.961 . S
C2803 C2802 1.502 . S
C2804 H2790 0.960 . S
C2804 H2791 0.961 . S
C2804 H2792 0.959 . S
C2804 C2802 1.561 . S
C2805 C2802 1.526 . S
C2805 C2806 1.396 . S
C2805 C2810 1.390 . S
C2806 C2800 1.465 . S
C2806 C2805 1.396 . S
C2806 C2807 1.399 . S
C2807 H2793 0.929 . S
C2807 C2806 1.399 . S
C2807 C2808 1.385 . S
C2808 H2794 0.931 . S
C2808 C2807 1.385 . S
C2808 C2809 1.389 . S
C2809 C2808 1.389 . S
C2809 C2810 1.387 . S
C2810 H2795 0.930 . S
C2810 C2805 1.390 . S
C2810 C2809 1.387 . S
H2811 C2823 0.930 . S
H2812 C2825 0.930 . S
H2813 C2826 0.930 . S
H2814 C2830 0.959 . S
H2815 C2830 0.959 . S
H2816 C2830 0.961 . S
H2817 C2831 0.960 . S
H2818 C2831 0.961 . S
H2819 C2831 0.959 . S
H2820 C2834 0.929 . S
H2821 C2835 0.931 . S
H2822 C2837 0.930 . S
C2823 H2811 0.930 . S
C2823 C2824 1.399 . S
C2823 C2828 1.399 . S
C2824 C2823 1.399 . S
C2824 C2825 1.376 . S
C2825 H2812 0.930 . S
C2825 C2824 1.376 . S
C2825 C2826 1.388 . S
C2826 H2813 0.930 . S
C2826 C2825 1.388 . S
C2826 C2827 1.390 . S
C2827 C2826 1.390 . S
C2827 C2828 1.394 . S
C2827 C2833 1.465 . S
C2828 C2823 1.399 . S
C2828 C2827 1.394 . S
C2828 C2829 1.516 . S
C2829 C2828 1.516 . S
C2829 C2830 1.502 . S
C2829 C2831 1.561 . S
C2829 C2832 1.526 . S
C2830 H2814 0.959 . S
C2830 H2815 0.959 . S
C2830 H2816 0.961 . S
C2830 C2829 1.502 . S
C2831 H2817 0.960 . S
C2831 H2818 0.961 . S
C2831 H2819 0.959 . S
C2831 C2829 1.561 . S
C2832 C2829 1.526 . S
C2832 C2833 1.396 . S
C2832 C2837 1.390 . S
C2833 C2827 1.465 . S
C2833 C2832 1.396 . S
C2833 C2834 1.399 . S
C2834 H2820 0.929 . S
C2834 C2833 1.399 . S
C2834 C2835 1.385 . S
C2835 H2821 0.931 . S
C2835 C2834 1.385 . S
C2835 C2836 1.389 . S
C2836 C2835 1.389 . S
C2836 C2837 1.387 . S
C2837 H2822 0.930 . S
C2837 C2832 1.390 . S
C2837 C2836 1.387 . S
H2838 C2850 0.930 . S
H2839 C2852 0.930 . S
H2840 C2853 0.930 . S
H2841 C2857 0.959 . S
H2842 C2857 0.959 . S
H2843 C2857 0.961 . S
H2844 C2858 0.960 . S
H2845 C2858 0.961 . S
H2846 C2858 0.959 . S
H2847 C2861 0.929 . S
H2848 C2862 0.931 . S
H2849 C2864 0.930 . S
C2850 H2838 0.930 . S
C2850 C2851 1.399 . S
C2850 C2855 1.399 . S
C2851 C2850 1.399 . S
C2851 C2852 1.376 . S
C2852 H2839 0.930 . S
C2852 C2851 1.376 . S
C2852 C2853 1.388 . S
C2853 H2840 0.930 . S
C2853 C2852 1.388 . S
C2853 C2854 1.390 . S
C2854 C2853 1.390 . S
C2854 C2855 1.394 . S
C2854 C2860 1.465 . S
C2855 C2850 1.399 . S
C2855 C2854 1.394 . S
C2855 C2856 1.516 . S
C2856 C2855 1.516 . S
C2856 C2857 1.502 . S
C2856 C2858 1.561 . S
C2856 C2859 1.526 . S
C2857 H2841 0.959 . S
C2857 H2842 0.959 . S
C2857 H2843 0.961 . S
C2857 C2856 1.502 . S
C2858 H2844 0.960 . S
C2858 H2845 0.961 . S
C2858 H2846 0.959 . S
C2858 C2856 1.561 . S
C2859 C2856 1.526 . S
C2859 C2860 1.396 . S
C2859 C2864 1.390 . S
C2860 C2854 1.465 . S
C2860 C2859 1.396 . S
C2860 C2861 1.399 . S
C2861 H2847 0.929 . S
C2861 C2860 1.399 . S
C2861 C2862 1.385 . S
C2862 H2848 0.931 . S
C2862 C2861 1.385 . S
C2862 C2863 1.389 . S
C2863 C2862 1.389 . S
C2863 C2864 1.387 . S
C2864 H2849 0.930 . S
C2864 C2859 1.390 . S
C2864 C2863 1.387 . S
H2865 C2877 0.930 . S
H2866 C2879 0.930 . S
H2867 C2880 0.930 . S
H2868 C2884 0.959 . S
H2869 C2884 0.959 . S
H2870 C2884 0.961 . S
H2871 C2885 0.960 . S
H2872 C2885 0.961 . S
H2873 C2885 0.959 . S
H2874 C2888 0.929 . S
H2875 C2889 0.931 . S
H2876 C2891 0.930 . S
C2877 H2865 0.930 . S
C2877 C2878 1.399 . S
C2877 C2882 1.399 . S
C2878 C2877 1.399 . S
C2878 C2879 1.376 . S
C2879 H2866 0.930 . S
C2879 C2878 1.376 . S
C2879 C2880 1.388 . S
C2880 H2867 0.930 . S
C2880 C2879 1.388 . S
C2880 C2881 1.390 . S
C2881 C2880 1.390 . S
C2881 C2882 1.394 . S
C2881 C2887 1.465 . S
C2882 C2877 1.399 . S
C2882 C2881 1.394 . S
C2882 C2883 1.516 . S
C2883 C2882 1.516 . S
C2883 C2884 1.502 . S
C2883 C2885 1.561 . S
C2883 C2886 1.526 . S
C2884 H2868 0.959 . S
C2884 H2869 0.959 . S
C2884 H2870 0.961 . S
C2884 C2883 1.502 . S
C2885 H2871 0.960 . S
C2885 H2872 0.961 . S
C2885 H2873 0.959 . S
C2885 C2883 1.561 . S
C2886 C2883 1.526 . S
C2886 C2887 1.396 . S
C2886 C2891 1.390 . S
C2887 C2881 1.465 . S
C2887 C2886 1.396 . S
C2887 C2888 1.399 . S
C2888 H2874 0.929 . S
C2888 C2887 1.399 . S
C2888 C2889 1.385 . S
C2889 H2875 0.931 . S
C2889 C2888 1.385 . S
C2889 C2890 1.389 . S
C2890 C2889 1.389 . S
C2890 C2891 1.387 . S
C2891 H2876 0.930 . S
C2891 C2886 1.390 . S
C2891 C2890 1.387 . S
H2892 C2904 0.930 . S
H2893 C2906 0.930 . S
H2894 C2907 0.930 . S
H2895 C2911 0.959 . S
H2896 C2911 0.959 . S
H2897 C2911 0.961 . S
H2898 C2912 0.960 . S
H2899 C2912 0.961 . S
H2900 C2912 0.959 . S
H2901 C2915 0.929 . S
H2902 C2916 0.931 . S
H2903 C2918 0.930 . S
C2904 H2892 0.930 . S
C2904 C2905 1.399 . S
C2904 C2909 1.399 . S
C2905 C2904 1.399 . S
C2905 C2906 1.376 . S
C2906 H2893 0.930 . S
C2906 C2905 1.376 . S
C2906 C2907 1.388 . S
C2907 H2894 0.930 . S
C2907 C2906 1.388 . S
C2907 C2908 1.390 . S
C2908 C2907 1.390 . S
C2908 C2909 1.394 . S
C2908 C2914 1.465 . S
C2909 C2904 1.399 . S
C2909 C2908 1.394 . S
C2909 C2910 1.516 . S
C2910 C2909 1.516 . S
C2910 C2911 1.502 . S
C2910 C2912 1.561 . S
C2910 C2913 1.526 . S
C2911 H2895 0.959 . S
C2911 H2896 0.959 . S
C2911 H2897 0.961 . S
C2911 C2910 1.502 . S
C2912 H2898 0.960 . S
C2912 H2899 0.961 . S
C2912 H2900 0.959 . S
C2912 C2910 1.561 . S
C2913 C2910 1.526 . S
C2913 C2914 1.396 . S
C2913 C2918 1.390 . S
C2914 C2908 1.465 . S
C2914 C2913 1.396 . S
C2914 C2915 1.399 . S
C2915 H2901 0.929 . S
C2915 C2914 1.399 . S
C2915 C2916 1.385 . S
C2916 H2902 0.931 . S
C2916 C2915 1.385 . S
C2916 C2917 1.389 . S
C2917 C2916 1.389 . S
C2917 C2918 1.387 . S
C2918 H2903 0.930 . S
C2918 C2913 1.390 . S
C2918 C2917 1.387 . S
H2919 C2931 0.930 . S
H2920 C2933 0.930 . S
H2921 C2934 0.930 . S
H2922 C2938 0.959 . S
H2923 C2938 0.959 . S
H2924 C2938 0.961 . S
H2925 C2939 0.960 . S
H2926 C2939 0.961 . S
H2927 C2939 0.959 . S
H2928 C2942 0.929 . S
H2929 C2943 0.931 1_556 S
H2930 C2945 0.930 . S
C2931 H2919 0.930 . S
C2931 C2932 1.399 . S
C2931 C2936 1.399 . S
C2932 C2931 1.399 . S
C2932 C2933 1.376 . S
C2933 H2920 0.930 . S
C2933 C2932 1.376 . S
C2933 C2934 1.388 . S
C2934 H2921 0.930 . S
C2934 C2933 1.388 . S
C2934 C2935 1.390 . S
C2935 C2934 1.390 . S
C2935 C2936 1.394 . S
C2935 C2941 1.465 . S
C2936 C2931 1.399 . S
C2936 C2935 1.394 . S
C2936 C2937 1.516 . S
C2937 C2936 1.516 . S
C2937 C2938 1.502 . S
C2937 C2939 1.561 . S
C2937 C2940 1.526 . S
C2938 H2922 0.959 . S
C2938 H2923 0.959 . S
C2938 H2924 0.961 . S
C2938 C2937 1.502 . S
C2939 H2925 0.960 . S
C2939 H2926 0.961 . S
C2939 H2927 0.959 . S
C2939 C2937 1.561 . S
C2940 C2937 1.526 . S
C2940 C2941 1.396 . S
C2940 C2945 1.390 . S
C2941 C2935 1.465 . S
C2941 C2940 1.396 . S
C2941 C2942 1.399 . S
C2942 H2928 0.929 . S
C2942 C2941 1.399 . S
C2942 C2943 1.385 . S
C2943 H2929 0.931 1_554 S
C2943 C2942 1.385 . S
C2943 C2944 1.389 . S
C2944 C2943 1.389 . S
C2944 C2945 1.387 . S
C2945 H2930 0.930 . S
C2945 C2940 1.390 . S
C2945 C2944 1.387 . S
H2946 C2958 0.930 . S
H2947 C2960 0.930 . S
H2948 C2961 0.930 . S
H2949 C2965 0.959 . S
H2950 C2965 0.959 . S
H2951 C2965 0.961 . S
H2952 C2966 0.960 . S
H2953 C2966 0.961 . S
H2954 C2966 0.959 . S
H2955 C2969 0.929 . S
H2956 C2970 0.931 . S
H2957 C2972 0.930 . S
C2958 H2946 0.930 . S
C2958 C2959 1.399 . S
C2958 C2963 1.399 . S
C2959 C2958 1.399 . S
C2959 C2960 1.376 . S
C2960 H2947 0.930 . S
C2960 C2959 1.376 . S
C2960 C2961 1.388 . S
C2961 H2948 0.930 . S
C2961 C2960 1.388 . S
C2961 C2962 1.390 . S
C2962 C2961 1.390 . S
C2962 C2963 1.394 . S
C2962 C2968 1.465 . S
C2963 C2958 1.399 . S
C2963 C2962 1.394 . S
C2963 C2964 1.516 . S
C2964 C2963 1.516 . S
C2964 C2965 1.502 . S
C2964 C2966 1.561 . S
C2964 C2967 1.526 . S
C2965 H2949 0.959 . S
C2965 H2950 0.959 . S
C2965 H2951 0.961 . S
C2965 C2964 1.502 . S
C2966 H2952 0.960 . S
C2966 H2953 0.961 . S
C2966 H2954 0.959 . S
C2966 C2964 1.561 . S
C2967 C2964 1.526 . S
C2967 C2968 1.396 . S
C2967 C2972 1.390 . S
C2968 C2962 1.465 . S
C2968 C2967 1.396 . S
C2968 C2969 1.399 . S
C2969 H2955 0.929 . S
C2969 C2968 1.399 . S
C2969 C2970 1.385 . S
C2970 H2956 0.931 . S
C2970 C2969 1.385 . S
C2970 C2971 1.389 . S
C2971 C2970 1.389 . S
C2971 C2972 1.387 . S
C2972 H2957 0.930 . S
C2972 C2967 1.390 . S
C2972 C2971 1.387 . S
H2973 C2985 0.930 . S
H2974 C2987 0.930 1_554 S
H2975 C2988 0.930 . S
H2976 C2992 0.959 . S
H2977 C2992 0.959 . S
H2978 C2992 0.961 . S
H2979 C2993 0.960 . S
H2980 C2993 0.961 . S
H2981 C2993 0.959 . S
H2982 C2996 0.929 . S
H2983 C2997 0.931 . S
H2984 C2999 0.930 . S
C2985 H2973 0.930 . S
C2985 C2986 1.399 . S
C2985 C2990 1.399 . S
C2986 C2985 1.399 . S
C2986 C2987 1.376 . S
C2987 H2974 0.930 1_556 S
C2987 C2986 1.376 . S
C2987 C2988 1.388 . S
C2988 H2975 0.930 . S
C2988 C2987 1.388 . S
C2988 C2989 1.390 . S
C2989 C2988 1.390 . S
C2989 C2990 1.394 . S
C2989 C2995 1.465 . S
C2990 C2985 1.399 . S
C2990 C2989 1.394 . S
C2990 C2991 1.516 . S
C2991 C2990 1.516 . S
C2991 C2992 1.502 . S
C2991 C2993 1.561 . S
C2991 C2994 1.526 . S
C2992 H2976 0.959 . S
C2992 H2977 0.959 . S
C2992 H2978 0.961 . S
C2992 C2991 1.502 . S
C2993 H2979 0.960 . S
C2993 H2980 0.961 . S
C2993 H2981 0.959 . S
C2993 C2991 1.561 . S
C2994 C2991 1.526 . S
C2994 C2995 1.396 . S
C2994 C2999 1.390 . S
C2995 C2989 1.465 . S
C2995 C2994 1.396 . S
C2995 C2996 1.399 . S
C2996 H2982 0.929 . S
C2996 C2995 1.399 . S
C2996 C2997 1.385 . S
C2997 H2983 0.931 . S
C2997 C2996 1.385 . S
C2997 C2998 1.389 . S
C2998 C2997 1.389 . S
C2998 C2999 1.387 . S
C2999 H2984 0.930 . S
C2999 C2994 1.390 . S
C2999 C2998 1.387 . S
H3000 C3012 0.930 . S
H3001 C3014 0.930 . S
H3002 C3015 0.930 . S
H3003 C3019 0.959 . S
H3004 C3019 0.959 . S
H3005 C3019 0.961 . S
H3006 C3020 0.960 . S
H3007 C3020 0.961 . S
H3008 C3020 0.959 . S
H3009 C3023 0.929 . S
H3010 C3024 0.931 . S
H3011 C3026 0.930 . S
C3012 H3000 0.930 . S
C3012 C3013 1.399 . S
C3012 C3017 1.399 . S
C3013 C3012 1.399 . S
C3013 C3014 1.376 . S
C3014 H3001 0.930 . S
C3014 C3013 1.376 . S
C3014 C3015 1.388 . S
C3015 H3002 0.930 . S
C3015 C3014 1.388 . S
C3015 C3016 1.390 . S
C3016 C3015 1.390 . S
C3016 C3017 1.394 . S
C3016 C3022 1.465 . S
C3017 C3012 1.399 . S
C3017 C3016 1.394 . S
C3017 C3018 1.516 . S
C3018 C3017 1.516 . S
C3018 C3019 1.502 . S
C3018 C3020 1.561 . S
C3018 C3021 1.526 . S
C3019 H3003 0.959 . S
C3019 H3004 0.959 . S
C3019 H3005 0.961 . S
C3019 C3018 1.502 . S
C3020 H3006 0.960 . S
C3020 H3007 0.961 . S
C3020 H3008 0.959 . S
C3020 C3018 1.561 . S
C3021 C3018 1.526 . S
C3021 C3022 1.396 . S
C3021 C3026 1.390 . S
C3022 C3016 1.465 . S
C3022 C3021 1.396 . S
C3022 C3023 1.399 . S
C3023 H3009 0.929 . S
C3023 C3022 1.399 . S
C3023 C3024 1.385 . S
C3024 H3010 0.931 . S
C3024 C3023 1.385 . S
C3024 C3025 1.389 . S
C3025 C3024 1.389 . S
C3025 C3026 1.387 . S
C3026 H3011 0.930 . S
C3026 C3021 1.390 . S
C3026 C3025 1.387 . S
H3027 C3039 0.930 . S
H3028 C3041 0.930 . S
H3029 C3042 0.930 . S
H3030 C3046 0.959 . S
H3031 C3046 0.959 . S
H3032 C3046 0.961 . S
H3033 C3047 0.960 . S
H3034 C3047 0.961 . S
H3035 C3047 0.959 . S
H3036 C3050 0.929 . S
H3037 C3051 0.931 . S
H3038 C3053 0.930 . S
C3039 H3027 0.930 . S
C3039 C3040 1.399 . S
C3039 C3044 1.399 . S
C3040 C3039 1.399 . S
C3040 C3041 1.376 . S
C3041 H3028 0.930 . S
C3041 C3040 1.376 . S
C3041 C3042 1.388 . S
C3042 H3029 0.930 . S
C3042 C3041 1.388 . S
C3042 C3043 1.390 . S
C3043 C3042 1.390 . S
C3043 C3044 1.394 . S
C3043 C3049 1.465 . S
C3044 C3039 1.399 . S
C3044 C3043 1.394 . S
C3044 C3045 1.516 . S
C3045 C3044 1.516 . S
C3045 C3046 1.502 . S
C3045 C3047 1.561 . S
C3045 C3048 1.526 . S
C3046 H3030 0.959 . S
C3046 H3031 0.959 . S
C3046 H3032 0.961 . S
C3046 C3045 1.502 . S
C3047 H3033 0.960 . S
C3047 H3034 0.961 . S
C3047 H3035 0.959 . S
C3047 C3045 1.561 . S
C3048 C3045 1.526 . S
C3048 C3049 1.396 . S
C3048 C3053 1.390 . S
C3049 C3043 1.465 . S
C3049 C3048 1.396 . S
C3049 C3050 1.399 . S
C3050 H3036 0.929 . S
C3050 C3049 1.399 . S
C3050 C3051 1.385 . S
C3051 H3037 0.931 . S
C3051 C3050 1.385 . S
C3051 C3052 1.389 . S
C3052 C3051 1.389 . S
C3052 C3053 1.387 . S
C3053 H3038 0.930 . S
C3053 C3048 1.390 . S
C3053 C3052 1.387 . S
H3054 C3066 0.930 . S
H3055 C3068 0.930 . S
H3056 C3069 0.930 . S
H3057 C3073 0.959 . S
H3058 C3073 0.959 . S
H3059 C3073 0.961 . S
H3060 C3074 0.960 . S
H3061 C3074 0.961 . S
H3062 C3074 0.959 . S
H3063 C3077 0.929 . S
H3064 C3078 0.931 . S
H3065 C3080 0.930 . S
C3066 H3054 0.930 . S
C3066 C3067 1.399 . S
C3066 C3071 1.399 . S
C3067 C3066 1.399 . S
C3067 C3068 1.376 . S
C3068 H3055 0.930 . S
C3068 C3067 1.376 . S
C3068 C3069 1.388 . S
C3069 H3056 0.930 . S
C3069 C3068 1.388 . S
C3069 C3070 1.390 . S
C3070 C3069 1.390 . S
C3070 C3071 1.394 . S
C3070 C3076 1.465 . S
C3071 C3066 1.399 . S
C3071 C3070 1.394 . S
C3071 C3072 1.516 . S
C3072 C3071 1.516 . S
C3072 C3073 1.502 . S
C3072 C3074 1.561 . S
C3072 C3075 1.526 . S
C3073 H3057 0.959 . S
C3073 H3058 0.959 . S
C3073 H3059 0.961 . S
C3073 C3072 1.502 . S
C3074 H3060 0.960 . S
C3074 H3061 0.961 . S
C3074 H3062 0.959 . S
C3074 C3072 1.561 . S
C3075 C3072 1.526 . S
C3075 C3076 1.396 . S
C3075 C3080 1.390 . S
C3076 C3070 1.465 . S
C3076 C3075 1.396 . S
C3076 C3077 1.399 . S
C3077 H3063 0.929 . S
C3077 C3076 1.399 . S
C3077 C3078 1.385 . S
C3078 H3064 0.931 . S
C3078 C3077 1.385 . S
C3078 C3079 1.389 . S
C3079 C3078 1.389 . S
C3079 C3080 1.387 . S
C3080 H3065 0.930 . S
C3080 C3075 1.390 . S
C3080 C3079 1.387 . S
H3081 C3093 0.930 . S
H3082 C3095 0.930 . S
H3083 C3096 0.930 . S
H3084 C3100 0.959 . S
H3085 C3100 0.959 . S
H3086 C3100 0.961 . S
H3087 C3101 0.960 . S
H3088 C3101 0.961 . S
H3089 C3101 0.959 . S
H3090 C3104 0.929 . S
H3091 C3105 0.931 . S
H3092 C3107 0.930 . S
C3093 H3081 0.930 . S
C3093 C3094 1.399 . S
C3093 C3098 1.399 . S
C3094 C3093 1.399 . S
C3094 C3095 1.376 . S
C3095 H3082 0.930 . S
C3095 C3094 1.376 . S
C3095 C3096 1.388 . S
C3096 H3083 0.930 . S
C3096 C3095 1.388 . S
C3096 C3097 1.390 . S
C3097 C3096 1.390 . S
C3097 C3098 1.394 . S
C3097 C3103 1.465 . S
C3098 C3093 1.399 . S
C3098 C3097 1.394 . S
C3098 C3099 1.516 . S
C3099 C3098 1.516 . S
C3099 C3100 1.502 . S
C3099 C3101 1.561 . S
C3099 C3102 1.526 . S
C3100 H3084 0.959 . S
C3100 H3085 0.959 . S
C3100 H3086 0.961 . S
C3100 C3099 1.502 . S
C3101 H3087 0.960 . S
C3101 H3088 0.961 . S
C3101 H3089 0.959 . S
C3101 C3099 1.561 . S
C3102 C3099 1.526 . S
C3102 C3103 1.396 . S
C3102 C3107 1.390 . S
C3103 C3097 1.465 . S
C3103 C3102 1.396 . S
C3103 C3104 1.399 . S
C3104 H3090 0.929 . S
C3104 C3103 1.399 . S
C3104 C3105 1.385 . S
C3105 H3091 0.931 . S
C3105 C3104 1.385 . S
C3105 C3106 1.389 . S
C3106 C3105 1.389 . S
C3106 C3107 1.387 . S
C3107 H3092 0.930 . S
C3107 C3102 1.390 . S
C3107 C3106 1.387 . S
H3108 C3120 0.930 . S
H3109 C3122 0.930 . S
H3110 C3123 0.930 . S
H3111 C3127 0.959 . S
H3112 C3127 0.959 . S
H3113 C3127 0.961 . S
H3114 C3128 0.960 . S
H3115 C3128 0.961 . S
H3116 C3128 0.959 . S
H3117 C3131 0.929 . S
H3118 C3132 0.931 . S
H3119 C3134 0.930 . S
C3120 H3108 0.930 . S
C3120 C3121 1.399 . S
C3120 C3125 1.399 . S
C3121 C3120 1.399 . S
C3121 C3122 1.376 . S
C3122 H3109 0.930 . S
C3122 C3121 1.376 . S
C3122 C3123 1.388 . S
C3123 H3110 0.930 . S
C3123 C3122 1.388 . S
C3123 C3124 1.390 . S
C3124 C3123 1.390 . S
C3124 C3125 1.394 . S
C3124 C3130 1.465 . S
C3125 C3120 1.399 . S
C3125 C3124 1.394 . S
C3125 C3126 1.516 . S
C3126 C3125 1.516 . S
C3126 C3127 1.502 . S
C3126 C3128 1.561 . S
C3126 C3129 1.526 . S
C3127 H3111 0.959 . S
C3127 H3112 0.959 . S
C3127 H3113 0.961 . S
C3127 C3126 1.502 . S
C3128 H3114 0.960 . S
C3128 H3115 0.961 . S
C3128 H3116 0.959 . S
C3128 C3126 1.561 . S
C3129 C3126 1.526 . S
C3129 C3130 1.396 . S
C3129 C3134 1.390 . S
C3130 C3124 1.465 . S
C3130 C3129 1.396 . S
C3130 C3131 1.399 . S
C3131 H3117 0.929 . S
C3131 C3130 1.399 . S
C3131 C3132 1.385 . S
C3132 H3118 0.931 . S
C3132 C3131 1.385 . S
C3132 C3133 1.389 . S
C3133 C3132 1.389 . S
C3133 C3134 1.387 . S
C3134 H3119 0.930 . S
C3134 C3129 1.390 . S
C3134 C3133 1.387 . S
H3135 C3147 0.930 . S
H3136 C3149 0.930 . S
H3137 C3150 0.930 . S
H3138 C3154 0.959 . S
H3139 C3154 0.959 . S
H3140 C3154 0.961 . S
H3141 C3155 0.960 . S
H3142 C3155 0.961 . S
H3143 C3155 0.959 . S
H3144 C3158 0.929 . S
H3145 C3159 0.931 . S
H3146 C3161 0.930 . S
C3147 H3135 0.930 . S
C3147 C3148 1.399 . S
C3147 C3152 1.399 . S
C3148 C3147 1.399 . S
C3148 C3149 1.376 . S
C3149 H3136 0.930 . S
C3149 C3148 1.376 . S
C3149 C3150 1.388 . S
C3150 H3137 0.930 . S
C3150 C3149 1.388 . S
C3150 C3151 1.390 . S
C3151 C3150 1.390 . S
C3151 C3152 1.394 . S
C3151 C3157 1.465 . S
C3152 C3147 1.399 . S
C3152 C3151 1.394 . S
C3152 C3153 1.516 . S
C3153 C3152 1.516 . S
C3153 C3154 1.502 . S
C3153 C3155 1.561 . S
C3153 C3156 1.526 . S
C3154 H3138 0.959 . S
C3154 H3139 0.959 . S
C3154 H3140 0.961 . S
C3154 C3153 1.502 . S
C3155 H3141 0.960 . S
C3155 H3142 0.961 . S
C3155 H3143 0.959 . S
C3155 C3153 1.561 . S
C3156 C3153 1.526 . S
C3156 C3157 1.396 . S
C3156 C3161 1.390 . S
C3157 C3151 1.465 . S
C3157 C3156 1.396 . S
C3157 C3158 1.399 . S
C3158 H3144 0.929 . S
C3158 C3157 1.399 . S
C3158 C3159 1.385 . S
C3159 H3145 0.931 . S
C3159 C3158 1.385 . S
C3159 C3160 1.389 . S
C3160 C3159 1.389 . S
C3160 C3161 1.387 . S
C3161 H3146 0.930 . S
C3161 C3156 1.390 . S
C3161 C3160 1.387 . S
H3162 C3174 0.930 . S
H3163 C3176 0.930 . S
H3164 C3177 0.930 . S
H3165 C3181 0.959 . S
H3166 C3181 0.959 . S
H3167 C3181 0.961 . S
H3168 C3182 0.960 . S
H3169 C3182 0.961 . S
H3170 C3182 0.959 . S
H3171 C3185 0.929 . S
H3172 C3186 0.931 . S
H3173 C3188 0.930 . S
C3174 H3162 0.930 . S
C3174 C3175 1.399 . S
C3174 C3179 1.399 . S
C3175 C3174 1.399 . S
C3175 C3176 1.376 . S
C3176 H3163 0.930 . S
C3176 C3175 1.376 . S
C3176 C3177 1.388 . S
C3177 H3164 0.930 . S
C3177 C3176 1.388 . S
C3177 C3178 1.390 . S
C3178 C3177 1.390 . S
C3178 C3179 1.394 . S
C3178 C3184 1.465 . S
C3179 C3174 1.399 . S
C3179 C3178 1.394 . S
C3179 C3180 1.516 . S
C3180 C3179 1.516 . S
C3180 C3181 1.502 . S
C3180 C3182 1.561 . S
C3180 C3183 1.526 . S
C3181 H3165 0.959 . S
C3181 H3166 0.959 . S
C3181 H3167 0.961 . S
C3181 C3180 1.502 . S
C3182 H3168 0.960 . S
C3182 H3169 0.961 . S
C3182 H3170 0.959 . S
C3182 C3180 1.561 . S
C3183 C3180 1.526 . S
C3183 C3184 1.396 . S
C3183 C3188 1.390 . S
C3184 C3178 1.465 . S
C3184 C3183 1.396 . S
C3184 C3185 1.399 . S
C3185 H3171 0.929 . S
C3185 C3184 1.399 . S
C3185 C3186 1.385 . S
C3186 H3172 0.931 . S
C3186 C3185 1.385 . S
C3186 C3187 1.389 . S
C3187 C3186 1.389 . S
C3187 C3188 1.387 . S
C3188 H3173 0.930 . S
C3188 C3183 1.390 . S
C3188 C3187 1.387 . S
H3189 C3201 0.930 . S
H3190 C3203 0.930 . S
H3191 C3204 0.930 . S
H3192 C3208 0.959 . S
H3193 C3208 0.959 . S
H3194 C3208 0.961 . S
H3195 C3209 0.960 . S
H3196 C3209 0.961 . S
H3197 C3209 0.959 . S
H3198 C3212 0.929 . S
H3199 C3213 0.931 . S
H3200 C3215 0.930 . S
C3201 H3189 0.930 . S
C3201 C3202 1.399 . S
C3201 C3206 1.399 . S
C3202 C3201 1.399 . S
C3202 C3203 1.376 . S
C3203 H3190 0.930 . S
C3203 C3202 1.376 . S
C3203 C3204 1.388 . S
C3204 H3191 0.930 . S
C3204 C3203 1.388 . S
C3204 C3205 1.390 . S
C3205 C3204 1.390 . S
C3205 C3206 1.394 . S
C3205 C3211 1.465 . S
C3206 C3201 1.399 . S
C3206 C3205 1.394 . S
C3206 C3207 1.516 . S
C3207 C3206 1.516 . S
C3207 C3208 1.502 . S
C3207 C3209 1.561 . S
C3207 C3210 1.526 . S
C3208 H3192 0.959 . S
C3208 H3193 0.959 . S
C3208 H3194 0.961 . S
C3208 C3207 1.502 . S
C3209 H3195 0.960 . S
C3209 H3196 0.961 . S
C3209 H3197 0.959 . S
C3209 C3207 1.561 . S
C3210 C3207 1.526 . S
C3210 C3211 1.396 . S
C3210 C3215 1.390 . S
C3211 C3205 1.465 . S
C3211 C3210 1.396 . S
C3211 C3212 1.399 . S
C3212 H3198 0.929 . S
C3212 C3211 1.399 . S
C3212 C3213 1.385 . S
C3213 H3199 0.931 . S
C3213 C3212 1.385 . S
C3213 C3214 1.389 . S
C3214 C3213 1.389 . S
C3214 C3215 1.387 . S
C3215 H3200 0.930 . S
C3215 C3210 1.390 . S
C3215 C3214 1.387 . S
C1069 C106 1.005 1_554 S
C1081 C7 1.007 . S
C1096 C40 0.995 . S
C1108 C73 0.993 1_554 S
C1123 C139 0.998 . S
C1135 C238 0.997 1_556 S
C1150 C172 0.992 . S
C1162 C205 0.993 1_556 S
C1177 C370 1.005 . S
C1189 C271 1.007 . S
C1204 C304 1.005 . S
C1216 C337 1.007 . S
C1231 C502 1.004 . S
C1243 C403 1.005 . S
C1258 C436 1.005 . S
C1270 C469 1.006 . S
C1285 C535 0.996 . S
C1297 C634 0.994 . S
C1312 C601 0.995 . S
C1324 C568 0.993 . S
C1339 C766 1.004 . S
C1351 C667 1.005 . S
C1366 C733 0.993 . S
C1378 C700 0.993 . S
C1393 C898 1.004 1_554 S
C1405 C799 1.007 . S
C1420 C865 0.992 1_554 S
C1432 C832 0.994 . S
C1447 C1030 0.993 1_556 S
C1459 C931 0.993 . S
C1474 C997 0.995 1_556 S
C1486 C964 0.994 . S
C1501 C648 0.729 . S
C1513 C21 0.742 . S
C1528 C615 0.733 . S
C1540 C54 0.750 . S
C1555 C582 0.787 . S
C1567 C87 0.775 . S
C1582 C549 0.732 . S
C1594 C120 0.749 . S
C1609 C780 0.770 . S
C1621 C153 0.787 . S
C1636 C747 0.730 . S
C1648 C186 0.761 . S
C1663 C219 0.761 . S
C1675 C714 0.787 . S
C1690 C681 0.769 . S
C1702 C252 0.734 . S
C1717 C912 0.784 . S
C1729 C285 0.767 . S
C1744 C879 0.732 . S
C1756 C318 0.748 . S
C1771 C351 0.731 . S
C1783 C846 0.747 . S
C1798 C384 0.739 . S
C1810 C813 0.760 . S
C1825 C1044 0.752 . S
C1837 C417 0.729 . S
C1852 C1011 0.750 . S
C1864 C450 0.729 . S
C1879 C483 0.743 . S
C1891 C978 0.779 . S
C1906 C945 0.758 . S
C1918 C516 0.730 . S
C1933 N13 1.581 . S
C1945 N46 1.604 . S
C1960 N79 1.552 . S
C1972 N112 1.532 . S
C1987 N145 1.532 . S
C1999 N178 1.538 . S
C2014 N211 1.602 . S
C2026 N244 1.597 . S
C2041 N277 1.579 . S
C2053 N310 1.548 . S
C2068 N376 1.597 . S
C2080 N343 1.568 . S
C2095 N442 1.536 . S
C2107 N409 1.542 . S
C2122 N475 1.531 . S
C2134 N508 1.535 . S
C2149 N574 1.591 . S
C2161 N541 1.607 . S
C2176 N640 1.580 . S
C2188 N607 1.604 . S
C2203 N673 1.586 . S
C2215 N706 1.592 . S
C2230 N772 1.530 . S
C2242 N739 1.530 . S
C2257 N805 1.590 . S
C2269 N838 1.607 . S
C2284 N904 1.570 . S
C2296 N871 1.598 . S
C2311 N937 1.548 . S
C2323 N970 1.556 . S
C2338 N1003 1.533 . S
C2350 N1036 1.538 . S
C2365 N398 1.892 . S
C2377 N2 1.877 . S
C2392 N695 1.887 . S
C2404 N35 1.883 . S
C2419 N68 1.895 . S
C2431 N200 1.875 . S
C2446 N1025 1.879 . S
C2458 N101 1.892 . S
C2473 N266 1.891 . S
C2485 N134 1.878 . S
C2500 N563 1.871 . S
C2512 N167 1.895 . S
C2527 N893 1.895 . S
C2539 N233 1.874 . S
C2554 N299 1.872 . S
C2566 N959 1.892 . S
C2581 N464 1.887 . S
C2593 N332 1.885 . S
C2608 N761 1.893 . S
C2620 N365 1.877 . S
C2635 N431 1.880 . S
C2647 N827 1.882 . S
C2662 N497 1.872 . S
C2674 N629 1.895 . S
C2689 N926 1.880 . S
C2701 N530 1.882 . S
C2716 N596 1.886 . S
C2728 N728 1.886 . S
C2743 N662 1.891 . S
C2755 N794 1.878 . S
C2770 N992 1.875 . S
C2782 N860 1.891 . S
C2797 C18 1.413 . S
C2809 C117 1.428 . S
C2824 C51 1.410 . S
C2836 C84 1.418 . S
C2851 C249 1.432 . S
C2863 C150 1.435 . S
C2878 C183 1.418 . S
C2890 C216 1.414 . S
C2905 C282 1.412 1_554 S
C2917 C381 1.425 . S
C2932 C348 1.410 . S
C2944 C315 1.419 1_554 S
C2959 C414 1.424 1_556 S
C2971 C513 1.438 . S
C2986 C447 1.424 1_556 S
C2998 C480 1.411 . S
C3013 C546 1.410 1_554 S
C3025 C645 1.418 . S
C3040 C579 1.437 1_554 S
C3052 C612 1.435 . S
C3067 C678 1.419 1_556 S
C3079 C777 1.438 . S
C3094 C711 1.423 1_556 S
C3106 C744 1.438 . S
C3121 C810 1.410 . S
C3133 C909 1.421 . S
C3148 C876 1.411 . S
C3160 C843 1.417 . S
C3175 C942 1.419 . S
C3187 C1041 1.413 . S
C3202 C975 1.413 . S
C3214 C1008 1.419 . S
