# Generated by pormake.
# Topology wmg, (6)-cn, num edge types: 1
# Building blocks:
#     Node 0, Type 0, BuildingBlock: VOLQOD_clean_sbu_1, # of connection points: 6
#     Node 1, Type 0, BuildingBlock: VOLQOD_clean_sbu_1, # of connection points: 6
#     Node 2, Type 0, BuildingBlock: VOLQOD_clean_sbu_1, # of connection points: 6
#     Node 3, Type 0, BuildingBlock: VOLQOD_clean_sbu_1, # of connection points: 6
#     Node 4, Type 0, BuildingBlock: VOLQOD_clean_sbu_1, # of connection points: 6
#     Node 5, Type 0, BuildingBlock: VOLQOD_clean_sbu_1, # of connection points: 6
#     Node 6, Type 0, BuildingBlock: VOLQOD_clean_sbu_1, # of connection points: 6
#     Node 7, Type 0, BuildingBlock: VOLQOD_clean_sbu_1, # of connection points: 6
#     Node 8, Type 0, BuildingBlock: VOLQOD_clean_sbu_1, # of connection points: 6
#     Node 9, Type 0, BuildingBlock: VOLQOD_clean_sbu_1, # of connection points: 6
#     Node 10, Type 0, BuildingBlock: VOLQOD_clean_sbu_1, # of connection points: 6
#     Node 11, Type 0, BuildingBlock: VOLQOD_clean_sbu_1, # of connection points: 6
#     Node 12, Type 0, BuildingBlock: VOLQOD_clean_sbu_1, # of connection points: 6
#     Node 13, Type 0, BuildingBlock: VOLQOD_clean_sbu_1, # of connection points: 6
#     Node 14, Type 0, BuildingBlock: VOLQOD_clean_sbu_1, # of connection points: 6
#     Node 15, Type 0, BuildingBlock: VOLQOD_clean_sbu_1, # of connection points: 6
#     Node 16, Type 0, BuildingBlock: VOLQOD_clean_sbu_1, # of connection points: 6
#     Node 17, Type 0, BuildingBlock: VOLQOD_clean_sbu_1, # of connection points: 6
#     Edge 18, Type (0, 0), BuildingBlock: XIVTED_clean_linker_0, # of connection points: 2
#     Edge 19, Type (0, 0), BuildingBlock: XIVTED_clean_linker_0, # of connection points: 2
#     Edge 20, Type (0, 0), BuildingBlock: XIVTED_clean_linker_0, # of connection points: 2
#     Edge 21, Type (0, 0), BuildingBlock: XIVTED_clean_linker_0, # of connection points: 2
#     Edge 22, Type (0, 0), BuildingBlock: XIVTED_clean_linker_0, # of connection points: 2
#     Edge 23, Type (0, 0), BuildingBlock: XIVTED_clean_linker_0, # of connection points: 2
#     Edge 24, Type (0, 0), BuildingBlock: XIVTED_clean_linker_0, # of connection points: 2
#     Edge 25, Type (0, 0), BuildingBlock: XIVTED_clean_linker_0, # of connection points: 2
#     Edge 26, Type (0, 0), BuildingBlock: XIVTED_clean_linker_0, # of connection points: 2
#     Edge 27, Type (0, 0), BuildingBlock: XIVTED_clean_linker_0, # of connection points: 2
#     Edge 28, Type (0, 0), BuildingBlock: XIVTED_clean_linker_0, # of connection points: 2
#     Edge 29, Type (0, 0), BuildingBlock: XIVTED_clean_linker_0, # of connection points: 2
#     Edge 30, Type (0, 0), BuildingBlock: XIVTED_clean_linker_0, # of connection points: 2
#     Edge 31, Type (0, 0), BuildingBlock: XIVTED_clean_linker_0, # of connection points: 2
#     Edge 32, Type (0, 0), BuildingBlock: XIVTED_clean_linker_0, # of connection points: 2
#     Edge 33, Type (0, 0), BuildingBlock: XIVTED_clean_linker_0, # of connection points: 2
#     Edge 34, Type (0, 0), BuildingBlock: XIVTED_clean_linker_0, # of connection points: 2
#     Edge 35, Type (0, 0), BuildingBlock: XIVTED_clean_linker_0, # of connection points: 2
#     Edge 36, Type (0, 0), BuildingBlock: XIVTED_clean_linker_0, # of connection points: 2
#     Edge 37, Type (0, 0), BuildingBlock: XIVTED_clean_linker_0, # of connection points: 2
#     Edge 38, Type (0, 0), BuildingBlock: XIVTED_clean_linker_0, # of connection points: 2
#     Edge 39, Type (0, 0), BuildingBlock: XIVTED_clean_linker_0, # of connection points: 2
#     Edge 40, Type (0, 0), BuildingBlock: XIVTED_clean_linker_0, # of connection points: 2
#     Edge 41, Type (0, 0), BuildingBlock: XIVTED_clean_linker_0, # of connection points: 2
#     Edge 42, Type (0, 0), BuildingBlock: XIVTED_clean_linker_0, # of connection points: 2
#     Edge 43, Type (0, 0), BuildingBlock: XIVTED_clean_linker_0, # of connection points: 2
#     Edge 44, Type (0, 0), BuildingBlock: XIVTED_clean_linker_0, # of connection points: 2
#     Edge 45, Type (0, 0), BuildingBlock: XIVTED_clean_linker_0, # of connection points: 2
#     Edge 46, Type (0, 0), BuildingBlock: XIVTED_clean_linker_0, # of connection points: 2
#     Edge 47, Type (0, 0), BuildingBlock: XIVTED_clean_linker_0, # of connection points: 2
#     Edge 48, Type (0, 0), BuildingBlock: XIVTED_clean_linker_0, # of connection points: 2
#     Edge 49, Type (0, 0), BuildingBlock: XIVTED_clean_linker_0, # of connection points: 2
#     Edge 50, Type (0, 0), BuildingBlock: XIVTED_clean_linker_0, # of connection points: 2
#     Edge 51, Type (0, 0), BuildingBlock: XIVTED_clean_linker_0, # of connection points: 2
#     Edge 52, Type (0, 0), BuildingBlock: XIVTED_clean_linker_0, # of connection points: 2
#     Edge 53, Type (0, 0), BuildingBlock: XIVTED_clean_linker_0, # of connection points: 2
#     Edge 54, Type (0, 0), BuildingBlock: XIVTED_clean_linker_0, # of connection points: 2
#     Edge 55, Type (0, 0), BuildingBlock: XIVTED_clean_linker_0, # of connection points: 2
#     Edge 56, Type (0, 0), BuildingBlock: XIVTED_clean_linker_0, # of connection points: 2
#     Edge 57, Type (0, 0), BuildingBlock: XIVTED_clean_linker_0, # of connection points: 2
#     Edge 58, Type (0, 0), BuildingBlock: XIVTED_clean_linker_0, # of connection points: 2
#     Edge 59, Type (0, 0), BuildingBlock: XIVTED_clean_linker_0, # of connection points: 2
#     Edge 60, Type (0, 0), BuildingBlock: XIVTED_clean_linker_0, # of connection points: 2
#     Edge 61, Type (0, 0), BuildingBlock: XIVTED_clean_linker_0, # of connection points: 2
#     Edge 62, Type (0, 0), BuildingBlock: XIVTED_clean_linker_0, # of connection points: 2
#     Edge 63, Type (0, 0), BuildingBlock: XIVTED_clean_linker_0, # of connection points: 2
#     Edge 64, Type (0, 0), BuildingBlock: XIVTED_clean_linker_0, # of connection points: 2
#     Edge 65, Type (0, 0), BuildingBlock: XIVTED_clean_linker_0, # of connection points: 2
#     Edge 66, Type (0, 0), BuildingBlock: XIVTED_clean_linker_0, # of connection points: 2
#     Edge 67, Type (0, 0), BuildingBlock: XIVTED_clean_linker_0, # of connection points: 2
#     Edge 68, Type (0, 0), BuildingBlock: XIVTED_clean_linker_0, # of connection points: 2
#     Edge 69, Type (0, 0), BuildingBlock: XIVTED_clean_linker_0, # of connection points: 2
#     Edge 70, Type (0, 0), BuildingBlock: XIVTED_clean_linker_0, # of connection points: 2
#     Edge 71, Type (0, 0), BuildingBlock: XIVTED_clean_linker_0, # of connection points: 2
# Relax obj value: 0.414
# Max RMSD: 0.275
# Mean RMSD: 0.275
data_MOF--net-wmg--node1-VOLQOD_clean_sbu_1--edge1-XIVTED_clean_linker_0
_symmetry_space_group_name_H-M    P1
_symmetry_Int_Tables_number       1
_symmetry_cell_setting            triclinic
loop_
_symmetry_equiv_pos_as_xyz
'x, y, z'
_cell_length_a     63.516773
_cell_length_b     63.487357
_cell_length_c     26.610099
_cell_angle_alpha  89.952473
_cell_angle_beta   89.991879
_cell_angle_gamma 119.87059
loop_
_atom_site_label
_atom_site_type_symbol
_atom_site_fract_x
_atom_site_fract_y
_atom_site_fract_z
_atom_type_partial_charge
O0 O 0.1622 0.29186 0.01858 0.0
Zn1 Zn 0.1805 0.28591 0.07184 0.0
O2 O 0.17291 0.25236 0.07043 0.0
Zn3 Zn 0.1641 0.23889 0.13819 0.0
Zn4 Zn 0.14686 0.23412 0.02391 0.0
Zn5 Zn 0.20082 0.25162 0.04455 0.0
O6 O 0.18921 0.23058 0.1645 0.0
O7 O 0.21622 0.24453 0.1021 0.0
O8 O 0.17407 0.29599 0.13824 0.0
O9 O 0.16508 0.26399 0.18606 0.0
O10 O 0.1287 0.21181 0.14049 0.0
O11 O 0.11672 0.21398 0.06271 0.0
O12 O 0.15251 0.21107 0.98229 0.0
O13 O 0.21504 0.30881 0.05297 0.0
O14 O 0.192 0.22551 0.99231 0.0
O15 O 0.22513 0.28397 0.01516 0.0
C16 C 0.14973 0.2794 0.98128 0.0
C17 C 0.20986 0.23578 0.14619 0.0
C18 C 0.11214 0.20552 0.10723 0.0
C19 C 0.16866 0.28546 0.18074 0.0
C20 C 0.17179 0.21052 0.97227 0.0
C21 C 0.2294 0.30533 0.02547 0.0
O22 O 0.14317 0.25697 0.977 0.0
O23 O 0.69446 0.86722 0.01988 0.0
Zn24 Zn 0.70041 0.89096 0.07431 0.0
O25 O 0.73393 0.91689 0.0728 0.0
Zn26 Zn 0.74773 0.92116 0.13996 0.0
Zn27 Zn 0.75211 0.90946 0.02541 0.0
Zn28 Zn 0.73461 0.94568 0.04841 0.0
O29 O 0.75581 0.95418 0.16798 0.0
O30 O 0.74097 0.96722 0.10718 0.0
O31 O 0.69059 0.87398 0.14056 0.0
O32 O 0.72291 0.89687 0.18742 0.0
O33 O 0.77455 0.91242 0.14119 0.0
O34 O 0.77184 0.89856 0.06303 0.0
O35 O 0.77526 0.93844 0.98491 0.0
O36 O 0.67747 0.90285 0.05654 0.0
O37 O 0.76111 0.96366 -0.00283 0.0
O38 O 0.70232 0.93779 0.01896 0.0
C39 C 0.70688 0.86775 0.98194 0.0
C40 C 0.74986 0.96935 0.15103 0.0
C41 C 0.78038 0.90196 0.10742 0.0
C42 C 0.70148 0.879 0.18265 0.0
C43 C 0.77605 0.95852 0.97634 0.0
C44 C 0.68095 0.92076 0.02926 0.0
O45 O 0.72926 0.88367 0.97775 0.0
O46 O 0.11442 0.81885 0.02085 0.0
Zn47 Zn 0.09056 0.80278 0.07612 0.0
O48 O 0.06575 0.81209 0.07379 0.0
Zn49 Zn 0.06267 0.82291 0.14053 0.0
Zn50 Zn 0.07465 0.83788 0.02554 0.0
Zn51 Zn 0.03581 0.7846 0.05039 0.0
O52 O 0.02941 0.79985 0.16883 0.0
O53 O 0.01249 0.77209 0.10811 0.0
O54 O 0.10783 0.80996 0.142 0.0
O55 O 0.08645 0.8216 0.18834 0.0
O56 O 0.07216 0.85864 0.14011 0.0
O57 O 0.08563 0.86894 0.06153 0.0
O58 O 0.04665 0.83287 0.98278 0.0
O59 O 0.07702 0.76758 0.06061 0.0
O60 O 0.02026 0.79384 -0.00505 0.0
O61 O 0.04181 0.75807 0.02497 0.0
C62 C 0.11523 0.83169 0.98342 0.0
C63 C 0.01195 0.78003 0.1518 0.0
C64 C 0.08238 0.87455 0.10561 0.0
C65 C 0.10356 0.81681 0.18376 0.0
C66 C 0.02653 0.81397 0.97311 0.0
C67 C 0.05847 0.7531 0.03513 0.0
O68 O 0.1006 0.83984 0.97938 0.0
O69 O 0.83752 0.70449 0.9687 0.0
Zn70 Zn 0.81301 0.70467 0.9222 0.0
O71 O 0.8142 0.73576 0.92116 0.0
Zn72 Zn 0.82197 0.74922 0.85356 0.0
Zn73 Zn 0.83906 0.75628 0.96742 0.0
Zn74 Zn 0.78413 0.73261 0.94555 0.0
O75 O 0.79592 0.75628 0.82786 0.0
O76 O 0.76789 0.73838 0.88754 0.0
O77 O 0.81658 0.69385 0.8538 0.0
O78 O 0.82126 0.72442 0.80565 0.0
O79 O 0.85684 0.7771 0.8504 0.0
O80 O 0.86914 0.77761 0.9292 0.0
O81 O 0.83004 0.77745 0.00598 0.0
O82 O 0.78157 0.67934 0.95147 0.0
O83 O 0.78992 0.75785 -0.00113 0.0
O84 O 0.7618 0.69879 0.97206 0.0
C85 C 0.8436 0.71535 0.0108 0.0
C86 C 0.77444 0.74854 0.84465 0.0
C87 C 0.87342 0.78508 0.8839 0.0
C88 C 0.8194 0.70362 0.81076 0.0
C89 C 0.80952 0.77505 0.0172 0.0
C90 C 0.76334 0.67954 0.97068 0.0
O91 O 0.84366 0.73523 0.01746 0.0
O92 O 0.28717 0.12189 0.97075 0.0
Zn93 Zn 0.28193 0.09777 0.91772 0.0
O94 O 0.24863 0.07128 0.9191 0.0
Zn95 Zn 0.23495 0.06648 0.85159 0.0
Zn96 Zn 0.22993 0.07842 0.96596 0.0
Zn97 Zn 0.2486 0.04291 0.94443 0.0
O98 O 0.22681 0.03311 0.82513 0.0
O99 O 0.2414 0.02041 0.88703 0.0
O100 O 0.29174 0.1141 0.85099 0.0
O101 O 0.25986 0.09053 0.8036 0.0
O102 O 0.2078 0.07483 0.84959 0.0
O103 O 0.20949 0.08832 0.92776 0.0
O104 O 0.20738 0.04952 0.00751 0.0
O105 O 0.30551 0.08692 0.93722 0.0
O106 O 0.22312 0.02551 -0.00239 0.0
O107 O 0.28118 0.05121 0.97253 0.0
C108 C 0.27465 0.12114 0.00869 0.0
C109 C 0.23238 0.01785 0.84321 0.0
C110 C 0.20123 0.08477 0.88312 0.0
C111 C 0.28116 0.10863 0.80856 0.0
C112 C 0.20772 0.03015 0.01782 0.0
C113 C 0.30238 0.0688 0.96334 0.0
O114 O 0.25245 0.10474 0.0132 0.0
O115 O 0.86502 0.16291 0.96996 0.0
Zn116 Zn 0.88872 0.18103 0.91573 0.0
O117 O 0.91525 0.17419 0.91723 0.0
Zn118 Zn 0.9196 0.16456 0.84999 0.0
Zn119 Zn 0.90849 0.14894 0.96545 0.0
Zn120 Zn 0.94377 0.20279 0.94082 0.0
O121 O 0.95255 0.18958 0.82157 0.0
O122 O 0.96565 0.2174 0.88228 0.0
O123 O 0.87184 0.17364 0.84964 0.0
O124 O 0.89496 0.16458 0.80234 0.0
O125 O 0.91179 0.12926 0.84985 0.0
O126 O 0.89888 0.11834 0.92869 0.0
O127 O 0.9376 0.1559 0.0069 0.0
O128 O 0.89969 0.21567 0.93284 0.0
O129 O 0.96171 0.19536 -0.00585 0.0
O130 O 0.9356 0.22745 0.96751 0.0
C131 C 0.86571 0.15113 0.00798 0.0
C132 C 0.96783 0.21058 0.83854 0.0
C133 C 0.90228 0.11318 0.8843 0.0
C134 C 0.8769 0.16789 0.80744 0.0
C135 C 0.95713 0.17563 0.01574 0.0
C136 C 0.91797 0.231 0.9579 0.0
O137 O 0.88207 0.14523 0.01262 0.0
O138 O 0.81062 0.61567 0.34536 0.0
Zn139 Zn 0.83518 0.61598 0.39249 0.0
O140 O 0.83443 0.58511 0.39416 0.0
Zn141 Zn 0.82646 0.57171 0.46169 0.0
Zn142 Zn 0.80989 0.56439 0.34765 0.0
Zn143 Zn 0.86473 0.58856 0.37054 0.0
O144 O 0.85265 0.56512 0.48833 0.0
O145 O 0.881 0.5834 0.42936 0.0
O146 O 0.83123 0.62686 0.46059 0.0
O147 O 0.82665 0.59643 0.50907 0.0
O148 O 0.79171 0.54359 0.4644 0.0
O149 O 0.77964 0.54307 0.38539 0.0
O150 O 0.81928 0.54322 0.31036 0.0
O151 O 0.86656 0.64146 0.36335 0.0
O152 O 0.85937 0.56305 0.31809 0.0
O153 O 0.88678 0.62238 0.34348 0.0
C154 C 0.80524 0.60498 0.30304 0.0
C155 C 0.8743 0.57324 0.47222 0.0
C156 C 0.77523 0.53556 0.43066 0.0
C157 C 0.82832 0.61712 0.5037 0.0
C158 C 0.83988 0.54565 0.29983 0.0
C159 C 0.88494 0.64147 0.34444 0.0
O160 O 0.80555 0.58527 0.29673 0.0
O161 O 0.36187 0.20034 0.34879 0.0
Zn162 Zn 0.36756 0.22407 0.40297 0.0
O163 O 0.40087 0.25035 0.40112 0.0
Zn164 Zn 0.41463 0.25523 0.46848 0.0
Zn165 Zn 0.41936 0.24308 0.35408 0.0
Zn166 Zn 0.40081 0.27861 0.3756 0.0
O167 O 0.42229 0.28841 0.49509 0.0
O168 O 0.40739 0.30082 0.43322 0.0
O169 O 0.3581 0.20726 0.46922 0.0
O170 O 0.39 0.23088 0.5165 0.0
O171 O 0.44208 0.24735 0.47003 0.0
O172 O 0.4398 0.23316 0.39228 0.0
O173 O 0.44201 0.272 0.31275 0.0
O174 O 0.34405 0.23528 0.38554 0.0
O175 O 0.42682 0.29642 0.32356 0.0
O176 O 0.36827 0.27 0.34656 0.0
C177 C 0.37434 0.20087 0.31094 0.0
C178 C 0.41639 0.30344 0.47708 0.0
C179 C 0.44841 0.23713 0.43667 0.0
C180 C 0.36879 0.21263 0.51152 0.0
C181 C 0.44211 0.29166 0.30318 0.0
C182 C 0.34708 0.25285 0.35765 0.0
O183 O 0.39669 0.21689 0.30672 0.0
O184 O 0.78272 0.15361 0.34986 0.0
Zn185 Zn 0.75901 0.1366 0.40473 0.0
O186 O 0.73327 0.14454 0.40265 0.0
Zn187 Zn 0.72922 0.15462 0.46958 0.0
Zn188 Zn 0.74084 0.16976 0.35398 0.0
Zn189 Zn 0.70436 0.11637 0.37918 0.0
O190 O 0.69624 0.12996 0.49843 0.0
O191 O 0.68274 0.10192 0.43814 0.0
O192 O 0.77612 0.14417 0.47055 0.0
O193 O 0.75379 0.15448 0.51729 0.0
O194 O 0.73753 0.19007 0.46889 0.0
O195 O 0.75112 0.20059 0.39032 0.0
O196 O 0.71201 0.16358 0.3125 0.0
O197 O 0.74689 0.10163 0.38894 0.0
O198 O 0.68653 0.12455 0.32693 0.0
O199 O 0.71196 0.09147 0.35128 0.0
C200 C 0.78256 0.16559 0.3117 0.0
C201 C 0.6808 0.10893 0.48185 0.0
C202 C 0.74759 0.20603 0.43437 0.0
C203 C 0.77148 0.15056 0.51245 0.0
C204 C 0.69186 0.14437 0.30469 0.0
C205 C 0.72891 0.08704 0.36221 0.0
O206 O 0.7669 0.17242 0.30701 0.0
O207 O 0.48668 0.02949 0.30348 0.0
Zn208 Zn 0.46854 0.0356 0.24997 0.0
O209 O 0.47636 0.06927 0.25138 0.0
Zn210 Zn 0.48551 0.08296 0.18393 0.0
Zn211 Zn 0.50233 0.08734 0.29814 0.0
Zn212 Zn 0.44849 0.07029 0.27647 0.0
O213 O 0.46064 0.09138 0.15679 0.0
O214 O 0.43322 0.07722 0.21838 0.0
O215 O 0.47498 0.02553 0.18332 0.0
O216 O 0.48467 0.05795 0.13627 0.0
O217 O 0.52087 0.10999 0.18207 0.0
O218 O 0.53265 0.10743 0.25979 0.0
O219 O 0.49671 0.11043 0.33957 0.0
O220 O 0.43392 0.01292 0.26912 0.0
O221 O 0.45737 0.09652 0.32845 0.0
O222 O 0.42399 0.0381 0.30592 0.0
C223 C 0.49907 0.0419 0.34093 0.0
C224 C 0.43982 0.086 0.17438 0.0
C225 C 0.53735 0.11607 0.21542 0.0
C226 C 0.48079 0.03636 0.14111 0.0
C227 C 0.47753 0.11127 0.34897 0.0
C228 C 0.4196 0.01664 0.2962 0.0
O229 O 0.50572 0.06436 0.34515 0.0
O230 O 0.95411 0.4525 0.30021 0.0
Zn231 Zn 0.94855 0.42915 0.24516 0.0
O232 O 0.91515 0.40283 0.24633 0.0
Zn233 Zn 0.90131 0.39863 0.17918 0.0
Zn234 Zn 0.89663 0.4097 0.29401 0.0
Zn235 Zn 0.91486 0.37414 0.27004 0.0
O236 O 0.89315 0.36563 0.1507 0.0
O237 O 0.90801 0.35251 0.21126 0.0
O238 O 0.95812 0.44644 0.17916 0.0
O239 O 0.92607 0.42312 0.13196 0.0
O240 O 0.87453 0.40741 0.17823 0.0
O241 O 0.8768 0.42061 0.25682 0.0
O242 O 0.87374 0.38045 0.3342 0.0
O243 O 0.97192 0.4177 0.26232 0.0
O244 O 0.8891 0.35619 0.32258 0.0
O245 O 0.94738 0.3821 0.29786 0.0
C246 C 0.94153 0.45159 0.33821 0.0
C247 C 0.89903 0.3504 0.16753 0.0
C248 C 0.86849 0.41757 0.21228 0.0
C249 C 0.94731 0.44129 0.13696 0.0
C250 C 0.87379 0.36082 0.34332 0.0
C251 C 0.96865 0.39947 0.28823 0.0
O252 O 0.91923 0.43542 0.34214 0.0
O253 O 0.53404 0.50326 0.29862 0.0
Zn254 Zn 0.55771 0.51953 0.24331 0.0
O255 O 0.58261 0.51035 0.24486 0.0
Zn256 Zn 0.58532 0.49949 0.17788 0.0
Zn257 Zn 0.57404 0.4846 0.29317 0.0
Zn258 Zn 0.61263 0.538 0.26752 0.0
O259 O 0.61841 0.52252 0.14888 0.0
O260 O 0.63573 0.55033 0.20938 0.0
O261 O 0.54016 0.51236 0.17795 0.0
O262 O 0.56121 0.50064 0.13076 0.0
O263 O 0.5761 0.46384 0.17825 0.0
O264 O 0.56326 0.45353 0.25723 0.0
O265 O 0.60225 0.48998 0.33574 0.0
O266 O 0.5711 0.55467 0.25897 0.0
O267 O 0.62841 0.52901 0.32282 0.0
O268 O 0.60677 0.56464 0.29291 0.0
C269 C 0.53328 0.49032 0.3358 0.0
C270 C 0.63601 0.54232 0.16561 0.0
C271 C 0.56631 0.44797 0.21295 0.0
C272 C 0.54415 0.50546 0.13599 0.0
C273 C 0.62233 0.50901 0.34501 0.0
C274 C 0.58989 0.56939 0.28354 0.0
O275 O 0.54802 0.48229 0.33959 0.0
O276 O 0.49595 0.95621 0.68221 0.0
Zn277 Zn 0.51355 0.95067 0.73773 0.0
O278 O 0.50671 0.91733 0.73676 0.0
Zn279 Zn 0.4972 0.90361 0.80404 0.0
Zn280 Zn 0.48145 0.89874 0.68899 0.0
Zn281 Zn 0.53524 0.91725 0.71311 0.0
O282 O 0.52236 0.89589 0.8327 0.0
O283 O 0.55032 0.91086 0.77219 0.0
O284 O 0.5056 0.96026 0.80337 0.0
O285 O 0.49702 0.92832 0.85107 0.0
O286 O 0.4619 0.87637 0.80471 0.0
O287 O 0.45076 0.87862 0.72622 0.0
O288 O 0.48807 0.87581 0.64941 0.0
O289 O 0.54832 0.97414 0.72115 0.0
O290 O 0.52758 0.89112 0.66144 0.0
O291 O 0.55937 0.9498 0.68439 0.0
C292 C 0.48444 0.94368 0.64412 0.0
C293 C 0.54351 0.90193 0.81601 0.0
C294 C 0.44568 0.87015 0.7707 0.0
C295 C 0.49994 0.94953 0.84569 0.0
C296 C 0.50771 0.87572 0.64081 0.0
C297 C 0.56318 0.97103 0.69456 0.0
O298 O 0.47833 0.92134 0.64032 0.0
O299 O 0.02478 0.53649 0.67932 0.0
Zn300 Zn 0.03027 0.56046 0.73299 0.0
O301 O 0.06379 0.58656 0.73201 0.0
Zn302 Zn 0.07751 0.59084 0.79927 0.0
Zn303 Zn 0.08224 0.57926 0.68494 0.0
Zn304 Zn 0.0644 0.61545 0.70804 0.0
O305 O 0.08477 0.62349 0.828 0.0
O306 O 0.07022 0.63681 0.7672 0.0
O307 O 0.02024 0.54366 0.79948 0.0
O308 O 0.05278 0.56614 0.84613 0.0
O309 O 0.10492 0.58288 0.80074 0.0
O310 O 0.10259 0.56911 0.72265 0.0
O311 O 0.10492 0.6082 0.64396 0.0
O312 O 0.00727 0.57207 0.71356 0.0
O313 O 0.09092 0.63352 0.65686 0.0
O314 O 0.03224 0.60752 0.67793 0.0
C315 C 0.03742 0.53686 0.64191 0.0
C316 C 0.07874 0.63863 0.81134 0.0
C317 C 0.11117 0.57276 0.767 0.0
C318 C 0.03125 0.54845 0.84143 0.0
C319 C 0.1057 0.62828 0.63561 0.0
C320 C 0.01085 0.59021 0.68693 0.0
O321 O 0.05974 0.55296 0.63777 0.0
O322 O 0.44949 0.4904 0.67659 0.0
Zn323 Zn 0.4263 0.47229 0.7315 0.0
O324 O 0.39977 0.47903 0.73096 0.0
Zn325 Zn 0.39523 0.48773 0.79877 0.0
Zn326 Zn 0.40661 0.50492 0.68457 0.0
Zn327 Zn 0.37148 0.45064 0.70596 0.0
O328 O 0.36238 0.46221 0.82613 0.0
O329 O 0.34955 0.43498 0.76423 0.0
O330 O 0.44369 0.47987 0.79696 0.0
O331 O 0.42001 0.48756 0.84567 0.0
O332 O 0.40286 0.52292 0.80135 0.0
O333 O 0.41643 0.53502 0.72335 0.0
O334 O 0.37744 0.49855 0.64431 0.0
O335 O 0.41529 0.43765 0.71449 0.0
O336 O 0.35344 0.45885 0.65416 0.0
O337 O 0.38019 0.42672 0.67677 0.0
C338 C 0.44893 0.50279 0.63959 0.0
C339 C 0.34727 0.44134 0.80839 0.0
C340 C 0.4128 0.53955 0.76809 0.0
C341 C 0.43846 0.48496 0.83967 0.0
C342 C 0.35795 0.47897 0.63447 0.0
C343 C 0.39756 0.42289 0.68741 0.0
O344 O 0.43284 0.50913 0.63636 0.0
O345 O 0.15328 0.36547 0.64137 0.0
Zn346 Zn 0.13541 0.37038 0.58566 0.0
O347 O 0.14179 0.40354 0.58576 0.0
Zn348 Zn 0.15134 0.41691 0.51821 0.0
Zn349 Zn 0.16687 0.4226 0.63361 0.0
Zn350 Zn 0.11291 0.40324 0.60851 0.0
O351 O 0.12605 0.42411 0.48865 0.0
O352 O 0.09782 0.40906 0.54864 0.0
O353 O 0.14358 0.36057 0.52067 0.0
O354 O 0.15201 0.39215 0.47197 0.0
O355 O 0.18635 0.4446 0.51754 0.0
O356 O 0.19751 0.4432 0.59646 0.0
O357 O 0.15955 0.44518 0.67264 0.0
O358 O 0.10077 0.34662 0.60227 0.0
O359 O 0.12007 0.42952 0.65955 0.0
O360 O 0.08898 0.37067 0.63765 0.0
C361 C 0.16472 0.37821 0.67928 0.0
C362 C 0.10477 0.41787 0.50477 0.0
C363 C 0.20252 0.45144 0.55178 0.0
C364 C 0.14927 0.37104 0.47811 0.0
C365 C 0.13977 0.44508 0.68051 0.0
C366 C 0.08558 0.34953 0.62814 0.0
O367 O 0.17049 0.40046 0.6828 0.0
O368 O 0.62222 0.78517 0.64118 0.0
Zn369 Zn 0.61706 0.76131 0.58756 0.0
O370 O 0.58368 0.73495 0.58843 0.0
Zn371 Zn 0.56998 0.73068 0.52114 0.0
Zn372 Zn 0.565 0.74188 0.63562 0.0
Zn373 Zn 0.58344 0.7062 0.61217 0.0
O374 O 0.56304 0.69817 0.49225 0.0
O375 O 0.57788 0.68502 0.5528 0.0
O376 O 0.62706 0.77815 0.52116 0.0
O377 O 0.59463 0.75555 0.47433 0.0
O378 O 0.54234 0.7383 0.51981 0.0
O379 O 0.54439 0.75177 0.59809 0.0
O380 O 0.54256 0.71278 0.67648 0.0
O381 O 0.64037 0.7501 0.60709 0.0
O382 O 0.55701 0.68784 0.66339 0.0
O383 O 0.61569 0.71444 0.64225 0.0
C384 C 0.60955 0.7845 0.67879 0.0
C385 C 0.56932 0.68318 0.50869 0.0
C386 C 0.53586 0.74816 0.55368 0.0
C387 C 0.6161 0.77333 0.47915 0.0
C388 C 0.54207 0.69282 0.68475 0.0
C389 C 0.63699 0.73196 0.63347 0.0
O390 O 0.58733 0.76816 0.68301 0.0
O391 O 0.19831 0.83061 0.64188 0.0
Zn392 Zn 0.22163 0.84877 0.58701 0.0
O393 O 0.24814 0.84198 0.58785 0.0
Zn394 Zn 0.25281 0.83318 0.5203 0.0
Zn395 Zn 0.24123 0.81611 0.6343 0.0
Zn396 Zn 0.27648 0.87036 0.61277 0.0
O397 O 0.28561 0.8587 0.49288 0.0
O398 O 0.29815 0.88626 0.55414 0.0
O399 O 0.20441 0.84129 0.52112 0.0
O400 O 0.2281 0.83326 0.47319 0.0
O401 O 0.2453 0.79805 0.51794 0.0
O402 O 0.23129 0.78592 0.59569 0.0
O403 O 0.27046 0.82242 0.67427 0.0
O404 O 0.2327 0.8834 0.60449 0.0
O405 O 0.29478 0.86204 0.66391 0.0
O406 O 0.26761 0.89403 0.6428 0.0
C407 C 0.19897 0.8184 0.67915 0.0
C408 C 0.30048 0.87977 0.51012 0.0
C409 C 0.23519 0.78142 0.55112 0.0
C410 C 0.20972 0.83603 0.47864 0.0
C411 C 0.29014 0.84189 0.68365 0.0
C412 C 0.25029 0.89795 0.63214 0.0
O413 O 0.2151 0.81213 0.68256 0.0
H414 H 0.21287 0.1199 0.81328 0.0
H415 H 0.13272 0.16536 0.95665 0.0
H416 H 0.15948 0.07792 0.92585 0.0
H417 H 0.20774 0.2113 0.91447 0.0
H418 H 0.13281 0.13121 0.91381 0.0
H419 H 0.2001 0.15054 0.81745 0.0
C420 C 0.19757 0.11652 0.83682 0.0
C421 C 0.18719 0.09653 0.86942 0.0
C422 C 0.14902 0.14895 0.91296 0.0
C423 C 0.17285 0.13135 0.87482 0.0
C424 C 0.14902 0.16841 0.93735 0.0
C425 C 0.17042 0.19104 0.93985 0.0
C426 C 0.1704 0.15233 0.89017 0.0
C427 C 0.19101 0.19401 0.91418 0.0
C428 C 0.19053 0.13411 0.83964 0.0
C429 C 0.16785 0.09317 0.90017 0.0
N430 N 0.19056 0.1748 0.8907 0.0
N431 N 0.1615 0.11064 0.90272 0.0
H432 H 0.81925 0.96138 0.95148 0.0
H433 H 0.91102 0.07962 0.92739 0.0
H434 H 0.77751 -0.00268 0.92827 0.0
H435 H 0.86587 0.08827 0.81821 0.0
H436 H 0.88127 0.03638 0.9331 0.0
H437 H 0.85376 -0.00485 0.90876 0.0
C438 C 0.81721 0.97617 0.93673 0.0
C439 C 0.79568 0.97687 0.94445 0.0
C440 C 0.87834 0.0474 0.90603 0.0
C441 C 0.83494 0.0153 0.89568 0.0
C442 C 0.89539 0.07207 0.90269 0.0
C443 C 0.89085 0.08731 0.87206 0.0
C444 C 0.85631 0.03826 0.8798 0.0
C445 C 0.87006 0.07693 0.84178 0.0
C446 C 0.83693 -0.00458 0.91256 0.0
C447 C 0.79396 -0.00366 0.92411 0.0
N448 N 0.85307 0.05313 0.84772 0.0
N449 N 0.81342 0.01489 0.90096 0.0
H450 H 0.89679 0.77464 0.81157 0.0
H451 H 0.02187 0.85379 0.95509 0.0
H452 H 0.90804 0.82688 0.92677 0.0
H453 H -0.00816 0.77845 0.91416 0.0
H454 H 0.9884 0.85449 0.91056 0.0
H455 H 0.94028 0.78799 0.81386 0.0
C456 C 0.90866 0.78984 0.83532 0.0
C457 C 0.89901 0.7996 0.86941 0.0
C458 C 0.98962 0.83806 0.91023 0.0
C459 C 0.94824 0.81466 0.87245 0.0
C460 C 0.0086 0.8376 0.9356 0.0
C461 C 0.00924 0.81586 0.93909 0.0
C462 C 0.97154 0.81679 0.88747 0.0
C463 C -0.00833 0.79542 0.91315 0.0
C464 C 0.93335 0.79723 0.83699 0.0
C465 C 0.91495 0.81889 0.90016 0.0
N466 N 0.97336 0.79632 0.88876 0.0
N467 N 0.93883 0.82557 0.9016 0.0
H468 H 0.77069 0.77187 0.06901 0.0
H469 H 0.76876 0.8678 0.17973 0.0
H470 H 0.84667 0.82057 0.03846 0.0
H471 H 0.82035 0.90604 0.06168 0.0
H472 H 0.77948 0.83563 0.1759 0.0
H473 H 0.769 0.80477 0.11313 0.0
C474 C 0.7871 0.78934 0.07237 0.0
C475 C 0.80875 0.79358 0.04948 0.0
C476 C 0.78894 0.85143 0.15193 0.0
C477 C 0.80704 0.83118 0.10023 0.0
C478 C 0.78319 0.86996 0.15476 0.0
C479 C 0.79364 0.88937 0.12068 0.0
C480 C 0.80529 0.85262 0.11495 0.0
C481 C 0.8119 0.89123 0.08839 0.0
C482 C 0.78622 0.80802 0.09818 0.0
C483 C 0.82953 0.81654 0.05528 0.0
N484 N 0.81694 0.87286 0.08579 0.0
N485 N 0.82801 0.83466 0.07897 0.0
H486 H 0.21064 -0.00363 0.07629 0.0
H487 H 0.11398 0.89849 0.1816 0.0
H488 H 0.16183 0.02214 0.03386 0.0
H489 H 0.07886 0.9094 0.05374 0.0
H490 H 0.14467 0.94185 0.1796 0.0
H491 H 0.17723 0.96222 0.11991 0.0
C492 C 0.19298 -0.00492 0.0771 0.0
C493 C 0.18886 0.01186 0.05096 0.0
C494 C 0.12981 0.93484 0.15297 0.0
C495 C 0.15061 0.97296 0.10082 0.0
C496 C 0.11214 0.91026 0.15459 0.0
C497 C 0.09418 0.90053 0.11736 0.0
C498 C 0.12922 0.94949 0.11399 0.0
C499 C 0.09265 0.91633 0.08274 0.0
C500 C 0.17399 0.97577 0.10258 0.0
C501 C 0.1657 0.00949 0.05341 0.0
N502 N 0.11021 0.94005 0.08139 0.0
N503 N 0.14723 0.98995 0.07665 0.0
H504 H 0.07792 0.16288 0.06706 0.0
H505 H -0.00793 0.21319 0.07034 0.0
H506 H 0.08825 0.21796 0.17433 0.0
H507 H 0.9642 0.13741 0.03636 0.0
H508 H 0.02599 0.21381 0.11509 0.0
H509 H 0.03468 0.14988 0.0633 0.0
C510 C 0.07077 0.17143 0.09163 0.0
C511 C 0.08646 0.19142 0.1211 0.0
C512 C 0.01215 0.19689 0.09887 0.0
C513 C 0.03756 0.17771 0.1149 0.0
C514 C -0.00707 0.1966 0.07295 0.0
C515 C 0.97558 0.17534 0.04896 0.0
C516 C 0.01438 0.17597 0.09951 0.0
C517 C 0.97734 0.15425 0.05402 0.0
C518 C 0.04616 0.16418 0.08923 0.0
C519 C 0.07657 0.20233 0.15147 0.0
N520 N -0.00322 0.15524 0.07768 0.0
N521 N 0.05281 0.19586 0.14637 0.0
H522 H 0.87897 0.5485 0.24961 0.0
H523 H 0.88046 0.45185 0.1401 0.0
H524 H 0.80284 0.50003 0.27912 0.0
H525 H 0.82879 0.41406 0.25831 0.0
H526 H 0.87019 0.48433 0.14389 0.0
H527 H 0.88077 0.51536 0.2067 0.0
C528 C 0.86256 0.53103 0.2463 0.0
C529 C 0.84082 0.52694 0.26848 0.0
C530 C 0.86062 0.46857 0.16791 0.0
C531 C 0.84265 0.48908 0.21915 0.0
C532 C 0.86611 0.44985 0.16511 0.0
C533 C 0.85549 0.43046 0.19921 0.0
C534 C 0.84433 0.46755 0.20484 0.0
C535 C 0.83736 0.42883 0.23156 0.0
C536 C 0.8635 0.51221 0.2212 0.0
C537 C 0.82004 0.50397 0.26281 0.0
N538 N 0.83254 0.44736 0.23408 0.0
N539 N 0.82161 0.48573 0.2398 0.0
H540 H 0.5753 0.41479 0.25685 0.0
H541 H 0.48589 0.29573 0.27872 0.0
H542 H 0.52978 0.42258 0.14721 0.0
H543 H 0.44228 0.32955 0.25394 0.0
H544 H 0.51999 0.33011 0.23646 0.0
H545 H 0.54634 0.3713 0.26157 0.0
C546 C 0.55973 0.40702 0.23196 0.0
C547 C 0.55486 0.42204 0.20139 0.0
C548 C 0.50284 0.32978 0.2398 0.0
C549 C 0.52126 0.37268 0.20782 0.0
C550 C 0.48335 0.31018 0.26369 0.0
C551 C 0.46142 0.31013 0.27094 0.0
C552 C 0.50022 0.34929 0.22282 0.0
C553 C 0.45906 0.32916 0.2502 0.0
C554 C 0.54316 0.38222 0.23466 0.0
C555 C 0.5342 0.4114 0.17077 0.0
N556 N 0.47832 0.3481 0.22744 0.0
N557 N 0.51766 0.38742 0.17602 0.0
H558 H 0.57132 0.15882 0.25545 0.0
H559 H 0.68935 0.18461 0.27693 0.0
H560 H 0.56146 0.10348 0.14933 0.0
H561 H 0.65292 0.10677 0.25813 0.0
H562 H 0.65555 0.18521 0.23386 0.0
H563 H 0.61459 0.17219 0.25938 0.0
C564 C 0.5786 0.15036 0.23098 0.0
C565 C 0.56304 0.13021 0.20177 0.0
C566 C 0.65518 0.16809 0.23866 0.0
C567 C 0.61212 0.14458 0.20754 0.0
C568 C 0.67445 0.1677 0.26303 0.0
C569 C 0.67361 0.1455 0.27218 0.0
C570 C 0.63513 0.14615 0.22304 0.0
C571 C 0.65401 0.1242 0.25289 0.0
C572 C 0.60328 0.15791 0.2333 0.0
C573 C 0.57306 0.1193 0.17179 0.0
N574 N 0.63543 0.12504 0.22957 0.0
N575 N 0.5969 0.12608 0.17678 0.0
H576 H 0.51678 0.15629 0.36454 0.0
H577 H 0.43718 0.2025 0.50743 0.0
H578 H 0.44167 0.11076 0.40656 0.0
H579 H 0.48999 0.24383 0.39344 0.0
H580 H 0.45 0.17189 0.50383 0.0
H581 H 0.51691 0.19061 0.40718 0.0
C582 C 0.5005 0.15337 0.38378 0.0
C583 C 0.47901 0.13082 0.38128 0.0
C584 C 0.45945 0.18819 0.48121 0.0
C585 C 0.4793 0.16968 0.43076 0.0
C586 C 0.45238 0.20576 0.4837 0.0
C587 C 0.46256 0.22553 0.45052 0.0
C588 C 0.47696 0.19076 0.4458 0.0
C589 C 0.48178 0.22874 0.41955 0.0
C590 C 0.50064 0.17292 0.40806 0.0
C591 C 0.45846 0.128 0.40686 0.0
N592 N 0.48816 0.21129 0.41734 0.0
N593 N 0.45904 0.14729 0.43024 0.0
H594 H 0.77966 0.22995 0.5095 0.0
H595 H 0.87621 0.32622 0.39993 0.0
H596 H 0.74365 0.24087 0.38332 0.0
H597 H 0.82816 0.35334 0.36046 0.0
H598 H 0.84275 0.29236 0.44418 0.0
H599 H 0.81085 0.27309 0.50594 0.0
C600 C 0.77772 0.2417 0.48263 0.0
C601 C 0.75935 0.232 0.44625 0.0
C602 C 0.8397 0.30614 0.4273 0.0
C603 C 0.79499 0.2807 0.44102 0.0
C604 C 0.85871 0.32527 0.40144 0.0
C605 C 0.85482 0.34239 0.37608 0.0
C606 C 0.81653 0.30385 0.42673 0.0
C607 C 0.83186 0.34043 0.37942 0.0
C608 C 0.79569 0.26615 0.48008 0.0
C609 C 0.75773 0.24779 0.41172 0.0
N610 N 0.81335 0.32108 0.40307 0.0
N611 N 0.7756 0.27138 0.40941 0.0
H612 H 0.65722 0.54503 0.40255 0.0
H613 H 0.74076 0.49407 0.3867 0.0
H614 H 0.62727 0.46943 0.36416 0.0
H615 H 0.75164 0.54556 0.50328 0.0
H616 H 0.69746 0.48086 0.38621 0.0
H617 H 0.69026 0.5438 0.44705 0.0
C618 C 0.65741 0.52808 0.40427 0.0
C619 C 0.63982 0.50743 0.37897 0.0
C620 C 0.70909 0.49435 0.41339 0.0
C621 C 0.67761 0.50596 0.42904 0.0
C622 C 0.73376 0.50177 0.41381 0.0
C623 C 0.74961 0.52097 0.44484 0.0
C624 C 0.70062 0.50698 0.4427 0.0
C625 C 0.73986 0.53065 0.47888 0.0
C626 C 0.67611 0.5273 0.43005 0.0
C627 C 0.64066 0.48581 0.38285 0.0
N628 N 0.71603 0.52417 0.47567 0.0
N629 N 0.65968 0.4858 0.4062 0.0
H630 H 0.49413 0.74099 0.59689 0.0
H631 H 0.54485 0.8771 0.58639 0.0
H632 H 0.54752 0.78374 0.48501 0.0
H633 H 0.46931 0.83032 0.62352 0.0
H634 H 0.54496 0.84303 0.54378 0.0
H635 H 0.4816 0.77167 0.60053 0.0
C636 C 0.50239 0.75633 0.57137 0.0
C637 C 0.52179 0.75994 0.54054 0.0
C638 C 0.52821 0.84036 0.56024 0.0
C639 C 0.50862 0.79562 0.54652 0.0
C640 C 0.52821 0.85973 0.58495 0.0
C641 C 0.50715 0.85639 0.60911 0.0
C642 C 0.5072 0.81735 0.56103 0.0
C643 C 0.48599 0.8336 0.60563 0.0
C644 C 0.4954 0.77393 0.5737 0.0
C645 C 0.53234 0.78031 0.50894 0.0
N646 N 0.48669 0.81474 0.58313 0.0
N647 N 0.52617 0.79786 0.51392 0.0
H648 H 0.10556 0.66488 0.58179 0.0
H649 H 0.24135 0.74594 0.59314 0.0
H650 H 0.15018 0.63318 0.6166 0.0
H651 H 0.20035 0.7589 0.48068 0.0
H652 H 0.21006 0.70305 0.59496 0.0
H653 H 0.14012 0.69821 0.53864 0.0
C654 C 0.12254 0.66479 0.5797 0.0
C655 C 0.12518 0.64653 0.60345 0.0
C656 C 0.20833 0.71503 0.56836 0.0
C657 C 0.16475 0.6846 0.55476 0.0
C658 C 0.22628 0.73944 0.56709 0.0
C659 C 0.22328 0.75578 0.53674 0.0
C660 C 0.18692 0.70733 0.54064 0.0
C661 C 0.20327 0.7467 0.50434 0.0
C662 C 0.14218 0.68365 0.55467 0.0
C663 C 0.14747 0.64705 0.5991 0.0
N664 N 0.18534 0.72316 0.50836 0.0
N665 N 0.16663 0.66616 0.57636 0.0
H666 H 0.23706 0.49248 0.59686 0.0
H667 H 0.32246 0.44239 0.5787 0.0
H668 H 0.22634 0.44075 0.48096 0.0
H669 H 0.35116 0.51768 0.61852 0.0
H670 H 0.28835 0.44276 0.53693 0.0
H671 H 0.28028 0.50526 0.59863 0.0
C672 C 0.2441 0.48462 0.5702 0.0
C673 C 0.22832 0.46559 0.53877 0.0
C674 C 0.30243 0.45937 0.55374 0.0
C675 C 0.27719 0.47906 0.54243 0.0
C676 C 0.32175 0.45909 0.57797 0.0
C677 C 0.33939 0.4799 0.60276 0.0
C678 C 0.3004 0.48039 0.55568 0.0
C679 C 0.3378 0.50117 0.60018 0.0
C680 C 0.2687 0.49178 0.57139 0.0
C681 C 0.23809 0.45561 0.50549 0.0
N682 N 0.31827 0.5007 0.57819 0.0
N683 N 0.26184 0.46189 0.50935 0.0
H684 H 0.1531 0.57995 0.72482 0.0
H685 H 0.10207 0.44359 0.73308 0.0
H686 H 0.0988 0.5367 0.83477 0.0
H687 H 0.17794 0.49049 0.6988 0.0
H688 H 0.10157 0.47754 0.77535 0.0
H689 H 0.16545 0.54913 0.72106 0.0
C690 C 0.1446 0.56446 0.74992 0.0
C691 C 0.12503 0.56077 0.78027 0.0
C692 C 0.11847 0.48026 0.75957 0.0
C693 C 0.13798 0.52494 0.77408 0.0
C694 C 0.11869 0.46096 0.73506 0.0
C695 C 0.13997 0.46437 0.71182 0.0
C696 C 0.13948 0.50326 0.75954 0.0
C697 C 0.16109 0.48716 0.71597 0.0
C698 C 0.15148 0.54678 0.74751 0.0
C699 C 0.11414 0.54021 0.81127 0.0
N700 N 0.16018 0.50594 0.73828 0.0
N701 N 0.12023 0.5226 0.8062 0.0
H702 H 0.5429 0.6566 0.73863 0.0
H703 H 0.44452 0.56134 0.84477 0.0
H704 H 0.49731 0.6872 0.70385 0.0
H705 H 0.40987 0.57593 0.72105 0.0
H706 H 0.47672 0.60411 0.84393 0.0
H707 H 0.50874 0.62309 0.78212 0.0
C708 C 0.52582 0.65647 0.74101 0.0
C709 C 0.5228 0.67448 0.71713 0.0
C710 C 0.46163 0.59807 0.81809 0.0
C711 C 0.48372 0.63636 0.76694 0.0
C712 C 0.44307 0.57383 0.81912 0.0
C713 C 0.42482 0.56524 0.78247 0.0
C714 C 0.46161 0.61353 0.78031 0.0
C715 C 0.42385 0.58197 0.74958 0.0
C716 C 0.50642 0.63754 0.76646 0.0
C717 C 0.50034 0.67359 0.72161 0.0
N718 N 0.44229 0.60532 0.74868 0.0
N719 N 0.48142 0.65443 0.74477 0.0
H720 H 0.42243 0.88212 0.84036 0.0
H721 H 0.29637 0.80282 0.69919 0.0
H722 H 0.41059 0.82896 0.72692 0.0
H723 H 0.32612 0.87825 0.73919 0.0
H724 H 0.33083 0.80288 0.74082 0.0
H725 H 0.37924 0.87002 0.83602 0.0
C726 C 0.41044 0.86701 0.81657 0.0
C727 C 0.41987 0.85648 0.78383 0.0
C728 C 0.32942 0.8192 0.74143 0.0
C729 C 0.37099 0.84289 0.77832 0.0
C730 C 0.30985 0.81923 0.71771 0.0
C731 C 0.30869 0.84072 0.715 0.0
C732 C 0.34762 0.84064 0.76337 0.0
C733 C 0.3266 0.86144 0.73968 0.0
C734 C 0.38595 0.86036 0.81365 0.0
C735 C 0.40384 0.83741 0.75273 0.0
N736 N 0.34547 0.86094 0.76256 0.0
N737 N 0.38015 0.83141 0.75017 0.0
H738 H 0.13496 0.26264 0.88558 0.0
H739 H 0.17696 0.39508 0.77581 0.0
H740 H 0.15995 0.3266 0.97815 0.0
H741 H 0.15621 0.33166 0.68386 0.0
H742 H 0.17115 0.37048 0.85066 0.0
H743 H 0.14029 0.28741 0.81141 0.0
C744 C 0.14109 0.28178 0.89047 0.0
C745 C 0.14726 0.2926 0.93812 0.0
C746 C 0.16807 0.36202 0.81404 0.0
C747 C 0.15397 0.32114 0.85333 0.0
C748 C 0.17167 0.37613 0.77125 0.0
C749 C 0.16686 0.36538 0.72349 0.0
C750 C 0.15958 0.33703 0.80891 0.0
C751 C 0.15993 0.34069 0.71993 0.0
C752 C 0.14443 0.29598 0.84801 0.0
C753 C 0.15519 0.31751 0.94209 0.0
N754 N 0.15628 0.32731 0.7621 0.0
N755 N 0.15854 0.33099 0.90017 0.0
H756 H 0.72413 0.86999 0.88654 0.0
H757 H 0.59201 0.78221 0.77397 0.0
H758 H 0.6594 0.83178 0.97729 0.0
H759 H 0.65662 0.82139 0.68326 0.0
H760 H 0.61617 0.80136 0.84885 0.0
H761 H 0.69979 0.85127 0.81166 0.0
C762 C 0.7049 0.85732 0.89087 0.0
C763 C 0.69376 0.85263 0.93825 0.0
C764 C 0.62501 0.80591 0.81248 0.0
C765 C 0.66574 0.83162 0.85265 0.0
C766 C 0.61116 0.79519 0.76964 0.0
C767 C 0.62235 0.79998 0.7223 0.0
C768 C 0.65017 0.82148 0.80787 0.0
C769 C 0.64725 0.81696 0.71903 0.0
C770 C 0.69096 0.84686 0.84802 0.0
C771 C 0.66874 0.83609 0.9415 0.0
N772 N 0.66037 0.8269 0.76132 0.0
N773 N 0.65554 0.82635 0.89921 0.0
H774 H 0.20104 0.80234 0.77381 0.0
H775 H 0.1159 0.84962 0.8894 0.0
H776 H 0.16259 0.82939 0.68499 0.0
H777 H 0.14849 0.81634 0.97813 0.0
H778 H 0.13487 0.84429 0.81453 0.0
H779 H 0.18179 0.80689 0.84929 0.0
C780 C 0.18821 0.80877 0.77 0.0
C781 C 0.18362 0.81572 0.72302 0.0
C782 C 0.13798 0.83828 0.85045 0.0
C783 C 0.16204 0.82152 0.80926 0.0
C784 C 0.12738 0.84158 0.89334 0.0
C785 C 0.13044 0.83325 0.94009 0.0
C786 C 0.15176 0.82661 0.85438 0.0
C787 C 0.14548 0.82291 0.94281 0.0
C788 C 0.17742 0.81161 0.81318 0.0
C789 C 0.16686 0.82401 0.72044 0.0
N790 N 0.15544 0.81971 0.90045 0.0
N791 N 0.15688 0.82691 0.76303 0.0
H792 H 0.84686 0.72792 0.11018 0.0
H793 H 0.80303 0.59261 0.20372 0.0
H794 H 0.83918 0.6702 0.01242 0.0
H795 H 0.80969 0.65013 0.30085 0.0
H796 H 0.81509 0.62048 0.13258 0.0
H797 H 0.83525 0.70012 0.18135 0.0
C798 C 0.84329 0.70959 0.10376 0.0
C799 C 0.84369 0.70133 0.05505 0.0
C800 C 0.81369 0.62693 0.16941 0.0
C801 C 0.82972 0.66924 0.13618 0.0
C802 C 0.80648 0.61092 0.20999 0.0
C803 C 0.80561 0.61909 0.25854 0.0
C804 C 0.82009 0.65125 0.17746 0.0
C805 C 0.8103 0.64304 0.26422 0.0
C806 C 0.83633 0.69361 0.14437 0.0
C807 C 0.8389 0.67735 0.04918 0.0
N808 N 0.81762 0.65836 0.22428 0.0
N809 N 0.83181 0.66206 0.08918 0.0
H810 H 0.25791 0.11775 0.10498 0.0
H811 H 0.39098 0.20439 0.21453 0.0
H812 H 0.3216 0.15833 0.01245 0.0
H813 H 0.32723 0.16406 0.30703 0.0
H814 H 0.36603 0.18655 0.13994 0.0
H815 H 0.2828 0.13583 0.17953 0.0
C816 C 0.277 0.13085 0.10022 0.0
C817 C 0.28773 0.1363 0.05239 0.0
C818 C 0.35756 0.18146 0.17661 0.0
C819 C 0.3164 0.15654 0.13755 0.0
C820 C 0.37186 0.1914 0.21927 0.0
C821 C 0.36114 0.18592 0.26711 0.0
C822 C 0.33241 0.16596 0.18191 0.0
C823 C 0.33624 0.169 0.27087 0.0
C824 C 0.29127 0.14093 0.14286 0.0
C825 C 0.31259 0.15338 0.0486 0.0
N826 N 0.32267 0.15982 0.22879 0.0
N827 N 0.32613 0.16269 0.09067 0.0
H828 H 0.81959 0.15541 0.30967 0.0
H829 H 0.8274 0.15936 0.01014 0.0
H830 H 0.77965 0.17852 0.2148 0.0
H831 H 0.86921 0.13845 0.10481 0.0
H832 H 0.80827 0.16454 0.08473 0.0
H833 H 0.83836 0.14958 0.23516 0.0
C834 C 0.81506 0.15967 0.27322 0.0
C835 C 0.79786 0.1673 0.26847 0.0
C836 C 0.82148 0.15863 0.0892 0.0
C837 C 0.81894 0.16017 0.18295 0.0
C838 C 0.83227 0.15544 0.04657 0.0
C839 C 0.85014 0.14869 0.05124 0.0
C840 C 0.82861 0.15508 0.13687 0.0
C841 C 0.85558 0.14374 0.0994 0.0
C842 C 0.82564 0.15611 0.23065 0.0
C843 C 0.79279 0.1726 0.22029 0.0
N844 N 0.84503 0.14728 0.14044 0.0
N845 N 0.80312 0.1687 0.17932 0.0
H846 H 0.47056 0.92652 0.54822 0.0
H847 H 0.5148 0.05901 0.43607 0.0
H848 H 0.49502 0.99094 0.63906 0.0
H849 H 0.48766 -0.00566 0.345 0.0
H850 H 0.50966 0.03454 0.51065 0.0
H851 H 0.47619 0.95092 0.47317 0.0
C852 C 0.47666 0.94567 0.55252 0.0
C853 C 0.48251 0.95672 0.60001 0.0
C854 C 0.50501 0.02574 0.47427 0.0
C855 C 0.48955 0.98482 0.51426 0.0
C856 C 0.50822 0.03977 0.43158 0.0
C857 C 0.50142 0.02869 0.38423 0.0
C858 C 0.49496 0.0005 0.46952 0.0
C859 C 0.49294 0.00364 0.38079 0.0
C860 C 0.48014 0.95965 0.50959 0.0
C861 C 0.49044 0.98165 0.60322 0.0
N862 N 0.48973 0.99035 0.42294 0.0
N863 N 0.49394 -0.00511 0.56088 0.0
H864 H 0.05531 0.53799 0.5476 0.0
H865 H 0.9238 0.4493 0.4332 0.0
H866 H 0.99005 0.50062 0.63709 0.0
H867 H 0.98894 0.48768 0.3437 0.0
H868 H 0.94767 0.4685 0.50839 0.0
H869 H 0.03149 0.51817 0.47274 0.0
C870 C 0.03607 0.52528 0.5517 0.0
C871 C 0.02462 0.52117 0.59865 0.0
C872 C 0.95669 0.47284 0.47222 0.0
C873 C -0.0028 0.49889 0.51303 0.0
C874 C 0.94302 0.46209 0.42919 0.0
C875 C 0.95441 0.46673 0.38209 0.0
C876 C 0.98189 0.4883 0.46804 0.0
C877 C 0.9794 0.48342 0.37926 0.0
C878 C 0.02243 0.51418 0.50884 0.0
C879 C -0.00038 0.50452 0.60161 0.0
N880 N -0.00766 0.49344 0.42171 0.0
N881 N 0.98671 0.49417 0.55929 0.0
H882 H 0.44663 0.5186 0.54485 0.0
H883 H 0.53314 0.47282 0.42999 0.0
H884 H 0.48571 0.4924 0.63406 0.0
H885 H 0.4993 0.50471 0.34082 0.0
H886 H 0.51399 0.47795 0.50481 0.0
H887 H 0.46603 0.51418 0.46949 0.0
C888 C 0.45963 0.51239 0.54876 0.0
C889 C 0.46435 0.50562 0.5958 0.0
C890 C 0.51064 0.48369 0.4688 0.0
C891 C 0.4861 0.49997 0.50973 0.0
C892 C 0.52135 0.4805 0.42596 0.0
C893 C 0.51799 0.48853 0.37911 0.0
C894 C 0.49647 0.49495 0.46471 0.0
C895 C 0.50255 0.49841 0.37623 0.0
C896 C 0.4705 0.50962 0.50565 0.0
C897 C 0.48133 0.49762 0.59854 0.0
N898 N 0.49251 0.50151 0.41854 0.0
N899 N 0.49139 0.49478 0.55602 0.0
H900 H 0.2556 0.24694 0.11907 0.0
H901 H 0.2989 0.22387 0.38163 0.0
H902 H 0.20669 0.22266 0.24618 0.0
H903 H 0.34663 0.27824 0.27537 0.0
H904 H 0.26394 0.21796 0.33143 0.0
H905 H 0.28814 0.25146 0.17371 0.0
C906 C 0.25156 0.24228 0.15842 0.0
C907 C 0.22834 0.23465 0.17812 0.0
C908 C 0.28209 0.23133 0.31963 0.0
C909 C 0.26584 0.23997 0.241 0.0
C910 C 0.30202 0.23476 0.34815 0.0
C911 C 0.32574 0.25152 0.33252 0.0
C912 C 0.28603 0.2444 0.27482 0.0
C913 C 0.32872 0.26515 0.28893 0.0
C914 C 0.27028 0.24508 0.18964 0.0
C915 C 0.22432 0.2287 0.22944 0.0
N916 N 0.30912 0.26105 0.26128 0.0
N917 N 0.24298 0.23156 0.25932 0.0
H918 H 0.70077 0.05898 0.28478 0.0
H919 H 0.76471 0.97953 0.25006 0.0
H920 H 0.75901 0.06871 0.3833 0.0
H921 H 0.7344 0.00123 0.12859 0.0
H922 H 0.75851 0.00663 0.30659 0.0
H923 H 0.70678 0.03001 0.23574 0.0
C924 C 0.71455 0.05475 0.29664 0.0
C925 C 0.72959 0.06651 0.33787 0.0
C926 C 0.75343 0.00544 0.26741 0.0
C927 C 0.73668 0.03352 0.28159 0.0
C928 C 0.75707 0.99014 0.23512 0.0
C929 C 0.74996 0.98797 0.18451 0.0
C930 C 0.74224 0.01817 0.24894 0.0
C931 C 0.74007 0.00212 0.16726 0.0
C932 C 0.71812 0.03838 0.26834 0.0
C933 C 0.74717 0.06023 0.35143 0.0
N934 N 0.73626 0.01636 0.1995 0.0
N935 N 0.75034 0.04419 0.32315 0.0
H936 H 0.93394 0.65899 0.3423 0.0
H937 H 0.96401 0.75271 0.12832 0.0
H938 H 0.87856 0.67472 0.29257 0.0
H939 H 0.01482 0.7702 0.25018 0.0
H940 H 0.93227 0.72074 0.18051 0.0
H941 H 0.96471 0.69634 0.30059 0.0
C942 C 0.92833 0.67034 0.32268 0.0
C943 C 0.90381 0.66393 0.3208 0.0
C944 C 0.95028 0.7319 0.19598 0.0
C945 C 0.93851 0.70602 0.27282 0.0
C946 C 0.9683 0.75007 0.1664 0.0
C947 C -0.00811 0.76408 0.18531 0.0
C948 C 0.95624 0.72724 0.24387 0.0
C949 C -0.00328 0.7599 0.23462 0.0
C950 C 0.94581 0.69163 0.29935 0.0
C951 C 0.89736 0.6792 0.29508 0.0
N952 N 0.97913 0.74144 0.26199 0.0
N953 N 0.9146 0.6994 0.27134 0.0
H954 H 0.77946 0.76836 0.74987 0.0
H955 H 0.63632 0.70204 0.70802 0.0
H956 H 0.72619 0.72829 0.86478 0.0
H957 H 0.68551 0.76386 0.61806 0.0
H958 H 0.67066 0.70686 0.75767 0.0
H959 H 0.74646 0.76366 0.69431 0.0
C960 C 0.76095 0.75881 0.7636 0.0
C961 C 0.75563 0.74866 0.81207 0.0
C962 C 0.67394 0.71931 0.72688 0.0
C963 C 0.71803 0.74279 0.74859 0.0
C964 C 0.65436 0.71644 0.69823 0.0
C965 C 0.65799 0.73269 0.65905 0.0
C966 C 0.69738 0.73841 0.71611 0.0
C967 C 0.68186 0.75103 0.6482 0.0
C968 C 0.74218 0.75607 0.73186 0.0
C969 C 0.73128 0.73642 0.82781 0.0
N970 N 0.70071 0.75346 0.67673 0.0
N971 N 0.71343 0.73366 0.79605 0.0
H972 H 0.22131 0.91722 0.60797 0.0
H973 H 0.24359 0.98328 0.87053 0.0
H974 H 0.27537 0.92355 0.71475 0.0
H975 H 0.21941 0.00793 0.74315 0.0
H976 H 0.24834 0.95532 0.81606 0.0
H977 H 0.2152 0.9462 0.65805 0.0
C978 C 0.23209 0.9249 0.64156 0.0
C979 C 0.24883 0.9179 0.65735 0.0
C980 C 0.24193 0.9668 0.80002 0.0
C981 C 0.24147 0.9504 0.71492 0.0
C982 C 0.239 0.98268 0.83115 0.0
C983 C 0.23134 -0.00173 0.81133 0.0
C984 C 0.23692 0.96615 0.74863 0.0
C985 C 0.22547 -0.00365 0.75998 0.0
C986 C 0.22854 0.94137 0.67001 0.0
C987 C 0.26231 0.92843 0.70107 0.0
N988 N 0.22846 0.98058 0.7302 0.0
N989 N 0.2581 0.9439 0.72865 0.0
H990 H 0.97779 0.20615 0.73909 0.0
H991 H 0.05752 0.34911 0.70618 0.0
H992 H 0.00071 0.25736 0.86199 0.0
H993 H 0.06824 0.30127 0.60744 0.0
H994 H 0.02892 0.31396 0.75522 0.0
H995 H 0.00536 0.23947 0.6831 0.0
C996 C 0.98877 0.22421 0.75446 0.0
C997 C 0.98676 0.22895 0.80529 0.0
C998 C 0.03743 0.31117 0.72258 0.0
C999 C 0.0175 0.26689 0.74151 0.0
C1000 C 0.05358 0.33119 0.69428 0.0
C1001 C 0.06547 0.32815 0.65292 0.0
C1002 C 0.03287 0.2879 0.70916 0.0
C1003 C 0.05962 0.30443 0.63938 0.0
C1004 C 0.00434 0.24316 0.72249 0.0
C1005 C 0.00141 0.25275 0.82311 0.0
N1006 N 0.04373 0.28512 0.66757 0.0
N1007 N 0.01588 0.27082 0.79117 0.0
H1008 H 0.86887 0.55303 0.56668 0.0
H1009 H 0.01186 0.62055 0.61292 0.0
H1010 H 0.92285 0.59477 0.45414 0.0
H1011 H 0.96227 0.55831 0.70142 0.0
H1012 H 0.97776 0.6159 0.56265 0.0
H1013 H 0.90162 0.55806 0.62336 0.0
C1014 C 0.88749 0.56303 0.55371 0.0
C1015 C 0.89307 0.5735 0.50555 0.0
C1016 C 0.97433 0.60333 0.59326 0.0
C1017 C 0.93039 0.57974 0.57033 0.0
C1018 C -0.00623 0.60609 0.62227 0.0
C1019 C 0.98997 0.58966 0.66118 0.0
C1020 C 0.95085 0.58413 0.60338 0.0
C1021 C 0.96605 0.57128 0.67149 0.0
C1022 C 0.90612 0.56596 0.5861 0.0
C1023 C 0.91756 0.58635 0.49082 0.0
N1024 N 0.94735 0.56893 0.64257 0.0
N1025 N 0.93526 0.58925 0.52318 0.0
H1026 H 0.40419 0.33733 0.45004 0.0
H1027 H 0.42687 0.40402 0.71161 0.0
H1028 H 0.42948 0.31354 0.57703 0.0
H1029 H 0.37195 0.39656 0.60597 0.0
H1030 H 0.433 0.37496 0.66189 0.0
H1031 H 0.39901 0.36496 0.50462 0.0
C1032 C 0.40892 0.33804 0.48936 0.0
C1033 C 0.41705 0.32281 0.50904 0.0
C1034 C 0.41945 0.37955 0.65013 0.0
C1035 C 0.41096 0.35455 0.57185 0.0
C1036 C 0.4159 0.39606 0.67838 0.0
C1037 C 0.39893 0.40281 0.66273 0.0
C1038 C 0.4063 0.37021 0.60557 0.0
C1039 C 0.38519 0.39191 0.61949 0.0
C1040 C 0.40574 0.35374 0.52055 0.0
C1041 C 0.42306 0.32486 0.56031 0.0
N1042 N 0.38942 0.3764 0.59207 0.0
N1043 N 0.41984 0.34045 0.59016 0.0
H1044 H 0.67119 0.11387 0.58127 0.0
H1045 H 0.59121 0.9711 0.61682 0.0
H1046 H 0.64778 0.06207 0.45941 0.0
H1047 H 0.58076 0.01941 0.71466 0.0
H1048 H 0.61986 0.00602 0.56735 0.0
H1049 H 0.64373 0.08085 0.63798 0.0
C1050 C 0.66013 0.09573 0.56629 0.0
C1051 C 0.66196 0.09075 0.51552 0.0
C1052 C 0.6114 0.00896 0.59989 0.0
C1053 C 0.63136 0.05315 0.58012 0.0
C1054 C 0.59521 0.98907 0.62843 0.0
C1055 C 0.58337 0.9923 0.66965 0.0
C1056 C 0.61603 0.03231 0.61289 0.0
C1057 C 0.58933 0.0161 0.68284 0.0
C1058 C 0.64462 0.07696 0.59867 0.0
C1059 C 0.64721 0.06687 0.49821 0.0
N1060 N 0.60525 0.03528 0.65437 0.0
N1061 N 0.63281 0.04898 0.53054 0.0
H1062 H 0.30208 0.03991 0.03959 0.0
H1063 H 0.44482 0.10267 0.07664 0.0
H1064 H 0.35084 0.10009 0.94539 0.0
H1065 H 0.39252 0.07042 0.19692 0.0
H1066 H 0.41189 0.09803 0.02082 0.0
H1067 H 0.33671 0.04537 0.08907 0.0
C1068 C 0.32009 0.05405 0.02881 0.0
C1069 C 0.32353 0.06971 0.98854 0.0
C1070 C 0.40785 0.09219 0.0596 0.0
C1071 C 0.36321 0.07611 0.04534 0.0
C1072 C 0.42658 0.09491 0.09148 0.0
C1073 C 0.42145 0.08682 0.14152 0.0
C1074 C 0.38394 0.08092 0.07785 0.0
C1075 C 0.39744 0.07685 0.15868 0.0
C1076 C 0.33982 0.05729 0.05737 0.0
C1077 C 0.34736 0.08774 0.97642 0.0
N1078 N 0.37959 0.07394 0.12679 0.0
N1079 N 0.36638 0.09052 0.00486 0.0
H1080 H 0.94789 0.26133 0.0308 0.0
H1081 H 0.88246 0.33902 0.06962 0.0
H1082 H 0.88594 0.24737 0.93974 0.0
H1083 H 0.91566 0.31938 0.1889 0.0
H1084 H 0.88792 0.31141 0.01303 0.0
H1085 H 0.94237 0.29083 0.079 0.0
C1086 C 0.93335 0.26471 0.02038 0.0
C1087 C 0.91717 0.25162 0.98157 0.0
C1088 C 0.8938 0.31319 0.05176 0.0
C1089 C 0.9107 0.28527 0.03688 0.0
C1090 C 0.89061 0.32878 0.08407 0.0
C1091 C 0.89869 0.33164 0.13408 0.0
C1092 C 0.90557 0.3009 0.06956 0.0
C1093 C 0.90919 0.31794 0.15072 0.0
C1094 C 0.9301 0.28141 0.04819 0.0
C1095 C 0.89868 0.25689 0.96977 0.0
N1096 N 0.91256 0.30344 0.11844 0.0
N1097 N 0.89584 0.27328 -0.00246 0.0
H1098 H 0.71448 0.66268 0.97364 0.0
H1099 H 0.68407 0.56935 0.18826 0.0
H1100 H 0.76931 0.64585 0.02182 0.0
H1101 H 0.63285 0.55201 0.06729 0.0
H1102 H 0.71582 0.60089 0.13532 0.0
H1103 H 0.68352 0.62562 0.01588 0.0
C1104 C 0.71993 0.65114 0.993 0.0
C1105 C 0.74434 0.65716 -0.00567 0.0
C1106 C 0.69771 0.58985 0.12022 0.0
C1107 C 0.70944 0.61542 0.04294 0.0
C1108 C 0.67969 0.57194 0.15023 0.0
C1109 C 0.65598 0.5581 0.13177 0.0
C1110 C 0.69165 0.59444 0.07235 0.0
C1111 C 0.65103 0.5622 0.0825 0.0
C1112 C 0.70233 0.63003 0.01664 0.0
C1113 C 0.75059 0.64166 0.01974 0.0
N1114 N 0.66865 0.58042 0.05471 0.0
N1115 N 0.73326 0.62164 0.04383 0.0
H1116 H 0.53851 0.88616 0.91453 0.0
H1117 H 0.68149 0.94908 0.95147 0.0
H1118 H 0.59094 0.91782 0.7943 0.0
H1119 H 0.63245 0.89045 0.04859 0.0
H1120 H 0.64689 0.94353 0.90175 0.0
H1121 H 0.5715 0.89158 0.97113 0.0
C1122 C 0.5568 0.89396 0.89988 0.0
C1123 C 0.56193 0.90164 0.84959 0.0
C1124 C 0.64371 0.93198 0.93416 0.0
C1125 C 0.5995 0.90843 0.91412 0.0
C1126 C 0.66343 0.93528 0.96285 0.0
C1127 C 0.6599 0.92005 0.00398 0.0
C1128 C 0.62024 0.91351 0.9469 0.0
C1129 C 0.636 0.90245 0.01686 0.0
C1130 C 0.57556 0.89714 0.9322 0.0
C1131 C 0.586 0.9117 0.8327 0.0
N1132 N 0.61701 0.89958 0.98824 0.0
N1133 N 0.60386 0.91502 0.86498 0.0
H1134 H 0.06317 0.67061 0.78983 0.0
H1135 H 0.08664 0.73269 0.05699 0.0
H1136 H 0.09248 0.64768 0.91105 0.0
H1137 H 0.03137 0.72714 0.95454 0.0
H1138 H 0.09233 0.70432 0.00411 0.0
H1139 H 0.0565 0.69601 0.84832 0.0
C1140 C 0.06848 0.67108 0.82867 0.0
C1141 C 0.07828 0.65679 0.84553 0.0
C1142 C 0.07874 0.70909 -0.00623 0.0
C1143 C 0.07042 0.68588 0.91294 0.0
C1144 C 0.07541 0.72519 0.0239 0.0
C1145 C 0.0586 0.73243 0.00996 0.0
C1146 C 0.0655 0.70059 0.94903 0.0
C1147 C 0.04453 0.72211 0.96679 0.0
C1148 C 0.06441 0.68545 0.86216 0.0
C1149 C 0.08484 0.65834 0.89641 0.0
N1150 N 0.04857 0.70701 0.93746 0.0
N1151 N 0.08078 0.67266 0.92846 0.0
H1152 H 0.2486 0.35372 0.04732 0.0
H1153 H 0.31458 0.39458 0.78381 0.0
H1154 H 0.25527 0.30493 0.94397 0.0
H1155 H 0.33695 0.44519 0.90771 0.0
H1156 H 0.28748 0.36224 0.83991 0.0
H1157 H 0.27736 0.38817 -0.00424 0.0
C1158 C 0.25633 0.35027 0.01421 0.0
C1159 C 0.24943 0.32639 -0.00025 0.0
C1160 C 0.29828 0.38042 0.85484 0.0
C1161 C 0.28173 0.36554 0.94046 0.0
C1162 C 0.31366 0.39902 0.82275 0.0
C1163 C 0.3283 0.4227 0.84111 0.0
C1164 C 0.29721 0.38544 0.90572 0.0
C1165 C 0.32607 0.4272 0.89199 0.0
C1166 C 0.27267 0.36991 0.98488 0.0
C1167 C 0.26004 0.32298 0.9566 0.0
N1168 N 0.3108 0.40867 0.92269 0.0
N1169 N 0.27541 0.34232 0.92814 0.0
H1170 H 0.96823 0.36905 0.36125 0.0
H1171 H 0.11077 0.43565 0.40776 0.0
H1172 H 0.01714 0.43155 0.27254 0.0
H1173 H 0.05659 0.39914 0.52316 0.0
H1174 H 0.07828 0.43022 0.34965 0.0
H1175 H 0.00256 0.3742 0.41128 0.0
C1176 C 0.98622 0.38365 0.35174 0.0
C1177 C 0.98975 0.40007 0.313 0.0
C1178 C 0.07372 0.42359 0.38787 0.0
C1179 C 0.0291 0.40613 0.37048 0.0
C1180 C 0.09218 0.42675 0.42103 0.0
C1181 C 0.08643 0.4178 0.47042 0.0
C1182 C 0.04948 0.41101 0.40414 0.0
C1183 C 0.06201 0.40634 0.48555 0.0
C1184 C 0.00578 0.38668 0.38061 0.0
C1185 C 0.01358 0.41861 0.30242 0.0
N1186 N 0.04448 0.40308 0.45244 0.0
N1187 N 0.03242 0.42124 0.33125 0.0
H1188 H 0.58611 0.65209 0.52923 0.0
H1189 H 0.56132 0.58943 0.26258 0.0
H1190 H 0.555 0.67379 0.40936 0.0
H1191 H 0.61758 0.59583 0.36312 0.0
H1192 H 0.55573 0.61777 0.31571 0.0
H1193 H 0.593 0.62702 0.47025 0.0
C1194 C 0.58044 0.65142 0.49059 0.0
C1195 C 0.57004 0.66525 0.47426 0.0
C1196 C 0.56952 0.61321 0.32558 0.0
C1197 C 0.57817 0.63655 0.40627 0.0
C1198 C 0.5728 0.59712 0.29529 0.0
C1199 C 0.58984 0.59011 0.30865 0.0
C1200 C 0.58307 0.62193 0.36989 0.0
C1201 C 0.60423 0.60067 0.35134 0.0
C1202 C 0.58465 0.63725 0.45681 0.0
C1203 C 0.56309 0.66348 0.4236 0.0
N1204 N 0.60024 0.61575 0.38086 0.0
N1205 N 0.56728 0.64935 0.39127 0.0
H1206 H 0.39167 0.01776 0.37302 0.0
H1207 H 0.31283 0.87466 0.41316 0.0
H1208 H 0.40158 0.96801 0.2787 0.0
H1209 H 0.33024 0.92769 0.5309 0.0
H1210 H 0.34049 0.90756 0.3567 0.0
H1211 H 0.36246 0.98348 0.42323 0.0
C1212 C 0.38746 -0.00039 0.36237 0.0
C1213 C 0.39927 -0.00422 0.32185 0.0
C1214 C 0.33825 0.9118 0.39505 0.0
C1215 C 0.36598 0.95649 0.37951 0.0
C1216 C 0.32259 0.89309 0.42731 0.0
C1217 C 0.31913 0.89838 0.47686 0.0
C1218 C 0.35009 0.93588 0.41239 0.0
C1219 C 0.33222 0.92263 0.4931 0.0
C1220 C 0.37094 0.98007 0.39134 0.0
C1221 C 0.39304 0.97179 0.30991 0.0
N1222 N 0.3469 0.94044 0.46085 0.0
N1223 N 0.37683 0.95299 0.33879 0.0
H1224 H 0.17514 0.3314 0.18366 0.0
H1225 H 0.14452 0.32573 0.47648 0.0
H1226 H 0.15704 0.26917 0.27784 0.0
H1227 H 0.16167 0.38743 0.38139 0.0
H1228 H 0.14972 0.30498 0.40455 0.0
H1229 H 0.17095 0.35243 0.25616 0.0
C1230 C 0.17029 0.32213 0.21958 0.0
C1231 C 0.1664 0.29844 0.22461 0.0
C1232 C 0.15236 0.32306 0.39944 0.0
C1233 C 0.16157 0.32248 0.30787 0.0
C1234 C 0.1494 0.33495 0.44051 0.0
C1235 C 0.15262 0.35837 0.43498 0.0
C1236 C 0.15859 0.33466 0.35245 0.0
C1237 C 0.15896 0.36939 0.38743 0.0
C1238 C 0.16791 0.33418 0.261 0.0
C1239 C 0.1602 0.28741 0.27216 0.0
N1240 N 0.16172 0.35742 0.34801 0.0
N1241 N 0.15795 0.29953 0.31196 0.0
H1242 H 0.71905 0.88367 0.27842 0.0
H1243 H 0.59852 0.76882 0.38346 0.0
H1244 H 0.65573 0.83942 0.18759 0.0
H1245 H 0.66187 0.81292 0.47433 0.0
H1246 H 0.61923 0.79454 0.31128 0.0
H1247 H 0.69835 0.85799 0.3507 0.0
C1248 C 0.70079 0.86857 0.27364 0.0
C1249 C 0.68911 0.8637 0.22682 0.0
C1250 C 0.6286 0.79859 0.347 0.0
C1251 C 0.66533 0.83422 0.30948 0.0
C1252 C 0.61679 0.7839 0.38829 0.0
C1253 C 0.62848 0.78871 0.43509 0.0
C1254 C 0.65227 0.81825 0.3525 0.0
C1255 C 0.65215 0.80852 0.43901 0.0
C1256 C 0.68898 0.85391 0.31496 0.0
C1257 C 0.66545 0.84387 0.22293 0.0
N1258 N 0.66326 0.82257 0.39823 0.0
N1259 N 0.65434 0.82986 0.26374 0.0
H1260 H 0.09958 0.83027 0.27947 0.0
H1261 H 0.21429 0.82341 0.3825 0.0
H1262 H 0.14245 0.80935 0.18833 0.0
H1263 H 0.16973 0.84169 0.47483 0.0
H1264 H 0.18836 0.81849 0.31071 0.0
H1265 H 0.1253 0.83482 0.35136 0.0
C1266 C 0.11438 0.82661 0.27453 0.0
C1267 C 0.11886 0.81943 0.22773 0.0
C1268 C 0.18426 0.82357 0.34669 0.0
C1269 C 0.1484 0.82464 0.30996 0.0
C1270 C 0.19907 0.8264 0.38772 0.0
C1271 C 0.1942 0.83299 0.43481 0.0
C1272 C 0.16445 0.82738 0.35272 0.0
C1273 C 0.17419 0.8366 0.43928 0.0
C1274 C 0.12907 0.82922 0.31564 0.0
C1275 C 0.13831 0.81493 0.22366 0.0
N1276 N 0.16007 0.83376 0.39873 0.0
N1277 N 0.15238 0.81764 0.26425 0.0
H1278 H 0.83118 0.66161 0.50768 0.0
H1279 H 0.81613 0.65898 0.80646 0.0
H1280 H 0.82218 0.60221 0.60186 0.0
H1281 H 0.8253 0.71853 0.71256 0.0
H1282 H 0.81816 0.63785 0.73176 0.0
H1283 H 0.8289 0.68269 0.58228 0.0
C1284 C 0.82872 0.65298 0.54401 0.0
C1285 C 0.82688 0.63009 0.54847 0.0
C1286 C 0.81972 0.65554 0.72749 0.0
C1287 C 0.82426 0.65416 0.63404 0.0
C1288 C 0.81857 0.66764 0.77016 0.0
C1289 C 0.82055 0.69059 0.76582 0.0
C1290 C 0.82289 0.66646 0.6801 0.0
C1291 C 0.82368 0.70088 0.71775 0.0
C1292 C 0.82742 0.66504 0.58661 0.0
C1293 C 0.82369 0.61982 0.59656 0.0
N1294 N 0.82476 0.68873 0.67677 0.0
N1295 N 0.82249 0.63193 0.63746 0.0
H1296 H 0.26459 0.10301 0.71168 0.0
H1297 H 0.3856 0.21798 0.60819 0.0
H1298 H 0.32672 0.14847 0.80445 0.0
H1299 H 0.32342 0.17252 0.51552 0.0
H1300 H 0.36438 0.19257 0.68053 0.0
H1301 H 0.28598 0.12819 0.63921 0.0
C1302 C 0.28273 0.11827 0.71685 0.0
C1303 C 0.29387 0.12363 0.76426 0.0
C1304 C 0.35539 0.18816 0.64435 0.0
C1305 C 0.31844 0.15253 0.68143 0.0
C1306 C 0.3675 0.20266 0.603 0.0
C1307 C 0.35628 0.19739 0.55568 0.0
C1308 C 0.33189 0.16825 0.63836 0.0
C1309 C 0.3328 0.17729 0.55126 0.0
C1310 C 0.29493 0.13265 0.67543 0.0
C1311 C 0.3174 0.14365 0.76865 0.0
N1312 N 0.32139 0.16346 0.59209 0.0
N1313 N 0.3289 0.15737 0.72776 0.0
H1314 H 0.76735 0.16367 0.60848 0.0
H1315 H 0.88141 0.15537 0.71112 0.0
H1316 H 0.81077 0.1438 0.51642 0.0
H1317 H 0.83734 0.17422 0.80364 0.0
H1318 H 0.85582 0.15123 0.63916 0.0
H1319 H 0.79299 0.16789 0.68039 0.0
C1320 C 0.78227 0.1602 0.60334 0.0
C1321 C 0.7869 0.15336 0.55631 0.0
C1322 C 0.85175 0.15626 0.67522 0.0
C1323 C 0.81631 0.15815 0.63849 0.0
C1324 C 0.86636 0.15864 0.71635 0.0
C1325 C 0.86153 0.16516 0.76353 0.0
C1326 C 0.83218 0.16046 0.68129 0.0
C1327 C 0.84176 0.16915 0.76801 0.0
C1328 C 0.7969 0.16261 0.64444 0.0
C1329 C 0.8065 0.14911 0.55193 0.0
N1330 N 0.82782 0.16674 0.7274 0.0
N1331 N 0.82048 0.15157 0.59251 0.0
H1332 H 0.49291 0.05339 0.0447 0.0
H1333 H 0.48722 0.9323 0.94181 0.0
H1334 H 0.47429 0.99039 0.13675 0.0
H1335 H 0.50525 -0.00496 0.8494 0.0
H1336 H 0.48216 0.95324 0.01359 0.0
H1337 H 0.49725 0.03219 0.97254 0.0
C1338 C 0.48971 0.0351 0.04978 0.0
C1339 C 0.48325 0.02367 0.09693 0.0
C1340 C 0.48721 0.96242 0.9776 0.0
C1341 C 0.48821 -0.00069 0.01441 0.0
C1342 C 0.49012 0.95047 0.93656 0.0
C1343 C 0.4967 0.96193 0.88946 0.0
C1344 C 0.49093 0.98601 0.97156 0.0
C1345 C 0.50017 0.98549 0.88497 0.0
C1346 C 0.4922 0.023 0.00852 0.0
C1347 C 0.47932 -6e-05 0.10118 0.0
N1348 N 0.49726 -0.00325 0.92552 0.0
N1349 N 0.48189 0.98856 0.06044 0.0
H1350 H 0.92959 0.43666 0.04136 0.0
H1351 H 0.04893 0.55303 0.93703 0.0
H1352 H -0.0073 0.48144 0.13229 0.0
H1353 H 0.98558 0.50869 0.84636 0.0
H1354 H 0.02854 0.52703 0.00905 0.0
H1355 H 0.94984 0.46284 0.96945 0.0
C1356 C 0.94772 0.45197 0.04625 0.0
C1357 C 0.95947 0.45684 0.09299 0.0
C1358 C 0.01909 0.523 0.97341 0.0
C1359 C 0.98273 0.48691 0.01074 0.0
C1360 C 0.03072 0.53785 0.93222 0.0
C1361 C 0.01896 0.53303 0.88551 0.0
C1362 C -0.00447 0.50316 0.9679 0.0
C1363 C -0.00464 0.51309 0.88161 0.0
C1364 C 0.95926 0.46693 0.00513 0.0
C1365 C 0.98294 0.47698 0.09701 0.0
N1366 N 0.98443 0.49887 0.92229 0.0
N1367 N -0.0062 0.49127 0.05639 0.0
H1368 H 0.47852 0.47946 0.84189 0.0
H1369 H 0.50529 0.51297 0.13312 0.0
H1370 H 0.43436 0.49744 0.93627 0.0
H1371 H 0.54742 0.49189 0.03995 0.0
H1372 H 0.47955 0.50815 0.06105 0.0
H1373 H 0.50439 0.48467 0.91383 0.0
C1374 C 0.47424 0.4845 0.87773 0.0
C1375 C 0.45421 0.488 0.88304 0.0
C1376 C 0.49443 0.50458 0.05639 0.0
C1377 C 0.48381 0.49401 0.96559 0.0
C1378 C 0.50916 0.50735 0.09752 0.0
C1379 C 0.52855 0.50281 0.0926 0.0
C1380 C 0.49913 0.49725 0.00998 0.0
C1381 C 0.53267 0.49557 0.04553 0.0
C1382 C 0.48904 0.48746 0.91882 0.0
C1383 C 0.44958 0.49452 0.93043 0.0
N1384 N 0.51807 0.49301 0.00604 0.0
N1385 N 0.4643 0.49732 0.9699 0.0
loop_
_geom_bond_atom_site_label_1
_geom_bond_atom_site_label_2
_geom_bond_distance
_geom_bond_site_symmetry_2
_ccdc_geom_bond_type
O0 Zn1 1.953 . S
O0 C16 1.225 1_554 S
Zn1 O0 1.953 . S
Zn1 O2 1.949 . S
Zn1 O8 1.919 . S
Zn1 O13 1.924 . S
O2 Zn1 1.949 . S
O2 Zn3 1.923 . S
O2 Zn4 1.950 . S
O2 Zn5 1.945 . S
Zn3 O2 1.923 . S
Zn3 O6 1.933 . S
Zn3 O9 1.941 . S
Zn3 O10 1.965 . S
Zn4 O2 1.950 . S
Zn4 O11 1.938 . S
Zn4 O12 1.903 1_554 S
Zn4 O22 1.953 1_554 S
Zn5 O2 1.945 . S
Zn5 O7 1.932 . S
Zn5 O14 1.977 . S
Zn5 O15 1.910 . S
O6 Zn3 1.933 . S
O6 C17 1.226 . S
O7 Zn5 1.932 . S
O7 C17 1.307 . S
O8 Zn1 1.919 . S
O8 C19 1.253 . S
O9 Zn3 1.941 . S
O9 C19 1.283 . S
O10 Zn3 1.965 . S
O10 C18 1.303 . S
O11 Zn4 1.938 . S
O11 C18 1.247 . S
O12 Zn4 1.903 1_556 S
O12 C20 1.302 1_556 S
O13 Zn1 1.924 . S
O13 C21 1.311 . S
O14 Zn5 1.977 . S
O14 C20 1.272 . S
O15 Zn5 1.910 . S
O15 C21 1.231 . S
C16 O0 1.225 1_556 S
C16 O22 1.298 . S
C17 O6 1.226 . S
C17 O7 1.307 . S
C18 O10 1.303 . S
C18 O11 1.247 . S
C19 O8 1.253 . S
C19 O9 1.283 . S
C20 O12 1.302 1_554 S
C20 O14 1.272 . S
C21 O13 1.311 . S
C21 O15 1.231 . S
O22 Zn4 1.953 1_556 S
O22 C16 1.298 . S
O23 Zn24 1.953 . S
O23 C39 1.225 1_554 S
Zn24 O23 1.953 . S
Zn24 O25 1.949 . S
Zn24 O31 1.919 . S
Zn24 O36 1.924 . S
O25 Zn24 1.949 . S
O25 Zn26 1.923 . S
O25 Zn27 1.950 . S
O25 Zn28 1.945 . S
Zn26 O25 1.923 . S
Zn26 O29 1.933 . S
Zn26 O32 1.941 . S
Zn26 O33 1.965 . S
Zn27 O25 1.950 . S
Zn27 O34 1.938 . S
Zn27 O35 1.903 1_554 S
Zn27 O45 1.953 1_554 S
Zn28 O25 1.945 . S
Zn28 O30 1.932 . S
Zn28 O37 1.977 . S
Zn28 O38 1.910 . S
O29 Zn26 1.933 . S
O29 C40 1.226 . S
O30 Zn28 1.932 . S
O30 C40 1.307 . S
O31 Zn24 1.919 . S
O31 C42 1.253 . S
O32 Zn26 1.941 . S
O32 C42 1.283 . S
O33 Zn26 1.965 . S
O33 C41 1.303 . S
O34 Zn27 1.938 . S
O34 C41 1.247 . S
O35 Zn27 1.903 1_556 S
O35 C43 1.302 1_556 S
O36 Zn24 1.924 . S
O36 C44 1.311 . S
O37 Zn28 1.977 . S
O37 C43 1.272 . S
O38 Zn28 1.910 . S
O38 C44 1.231 . S
C39 O23 1.225 1_556 S
C39 O45 1.298 . S
C40 O29 1.226 . S
C40 O30 1.307 . S
C41 O33 1.303 . S
C41 O34 1.247 . S
C42 O31 1.253 . S
C42 O32 1.283 . S
C43 O35 1.302 1_554 S
C43 O37 1.272 . S
C44 O36 1.311 . S
C44 O38 1.231 . S
O45 Zn27 1.953 1_556 S
O45 C39 1.298 . S
O46 Zn47 1.953 . S
O46 C62 1.225 1_554 S
Zn47 O46 1.953 . S
Zn47 O48 1.949 . S
Zn47 O54 1.919 . S
Zn47 O59 1.924 . S
O48 Zn47 1.949 . S
O48 Zn49 1.923 . S
O48 Zn50 1.950 . S
O48 Zn51 1.945 . S
Zn49 O48 1.923 . S
Zn49 O52 1.933 . S
Zn49 O55 1.941 . S
Zn49 O56 1.965 . S
Zn50 O48 1.950 . S
Zn50 O57 1.938 . S
Zn50 O58 1.903 1_554 S
Zn50 O68 1.953 1_554 S
Zn51 O48 1.945 . S
Zn51 O53 1.932 . S
Zn51 O60 1.977 . S
Zn51 O61 1.910 . S
O52 Zn49 1.933 . S
O52 C63 1.226 . S
O53 Zn51 1.932 . S
O53 C63 1.307 . S
O54 Zn47 1.919 . S
O54 C65 1.253 . S
O55 Zn49 1.941 . S
O55 C65 1.283 . S
O56 Zn49 1.965 . S
O56 C64 1.303 . S
O57 Zn50 1.938 . S
O57 C64 1.247 . S
O58 Zn50 1.903 1_556 S
O58 C66 1.302 1_556 S
O59 Zn47 1.924 . S
O59 C67 1.311 . S
O60 Zn51 1.977 . S
O60 C66 1.272 . S
O61 Zn51 1.910 . S
O61 C67 1.231 . S
C62 O46 1.225 1_556 S
C62 O68 1.298 . S
C63 O52 1.226 . S
C63 O53 1.307 . S
C64 O56 1.303 . S
C64 O57 1.247 . S
C65 O54 1.253 . S
C65 O55 1.283 . S
C66 O58 1.302 1_554 S
C66 O60 1.272 . S
C67 O59 1.311 . S
C67 O61 1.231 . S
O68 Zn50 1.953 1_556 S
O68 C62 1.298 . S
O69 Zn70 1.953 . S
O69 C85 1.225 1_556 S
Zn70 O69 1.953 . S
Zn70 O71 1.949 . S
Zn70 O77 1.919 . S
Zn70 O82 1.924 . S
O71 Zn70 1.949 . S
O71 Zn72 1.923 . S
O71 Zn73 1.950 . S
O71 Zn74 1.945 . S
Zn72 O71 1.923 . S
Zn72 O75 1.933 . S
Zn72 O78 1.941 . S
Zn72 O79 1.965 . S
Zn73 O71 1.950 . S
Zn73 O80 1.938 . S
Zn73 O81 1.903 1_556 S
Zn73 O91 1.953 1_556 S
Zn74 O71 1.945 . S
Zn74 O76 1.932 . S
Zn74 O83 1.977 . S
Zn74 O84 1.910 . S
O75 Zn72 1.933 . S
O75 C86 1.226 . S
O76 Zn74 1.932 . S
O76 C86 1.307 . S
O77 Zn70 1.919 . S
O77 C88 1.253 . S
O78 Zn72 1.941 . S
O78 C88 1.283 . S
O79 Zn72 1.965 . S
O79 C87 1.303 . S
O80 Zn73 1.938 . S
O80 C87 1.247 . S
O81 Zn73 1.903 1_554 S
O81 C89 1.302 1_554 S
O82 Zn70 1.924 . S
O82 C90 1.311 . S
O83 Zn74 1.977 . S
O83 C89 1.272 . S
O84 Zn74 1.910 . S
O84 C90 1.231 . S
C85 O69 1.225 1_554 S
C85 O91 1.298 . S
C86 O75 1.226 . S
C86 O76 1.307 . S
C87 O79 1.303 . S
C87 O80 1.247 . S
C88 O77 1.253 . S
C88 O78 1.283 . S
C89 O81 1.302 1_556 S
C89 O83 1.272 . S
C90 O82 1.311 . S
C90 O84 1.231 . S
O91 Zn73 1.953 1_554 S
O91 C85 1.298 . S
O92 Zn93 1.953 . S
O92 C108 1.225 1_556 S
Zn93 O92 1.953 . S
Zn93 O94 1.949 . S
Zn93 O100 1.919 . S
Zn93 O105 1.924 . S
O94 Zn93 1.949 . S
O94 Zn95 1.923 . S
O94 Zn96 1.950 . S
O94 Zn97 1.945 . S
Zn95 O94 1.923 . S
Zn95 O98 1.933 . S
Zn95 O101 1.941 . S
Zn95 O102 1.965 . S
Zn96 O94 1.950 . S
Zn96 O103 1.938 . S
Zn96 O104 1.903 1_556 S
Zn96 O114 1.953 1_556 S
Zn97 O94 1.945 . S
Zn97 O99 1.932 . S
Zn97 O106 1.977 . S
Zn97 O107 1.910 . S
O98 Zn95 1.933 . S
O98 C109 1.226 . S
O99 Zn97 1.932 . S
O99 C109 1.307 . S
O100 Zn93 1.919 . S
O100 C111 1.253 . S
O101 Zn95 1.941 . S
O101 C111 1.283 . S
O102 Zn95 1.965 . S
O102 C110 1.303 . S
O103 Zn96 1.938 . S
O103 C110 1.247 . S
O104 Zn96 1.903 1_554 S
O104 C112 1.302 1_554 S
O105 Zn93 1.924 . S
O105 C113 1.311 . S
O106 Zn97 1.977 . S
O106 C112 1.272 . S
O107 Zn97 1.910 . S
O107 C113 1.231 . S
C108 O92 1.225 1_554 S
C108 O114 1.298 . S
C109 O98 1.226 . S
C109 O99 1.307 . S
C110 O102 1.303 . S
C110 O103 1.247 . S
C111 O100 1.253 . S
C111 O101 1.283 . S
C112 O104 1.302 1_556 S
C112 O106 1.272 . S
C113 O105 1.311 . S
C113 O107 1.231 . S
O114 Zn96 1.953 1_554 S
O114 C108 1.298 . S
O115 Zn116 1.953 . S
O115 C131 1.225 1_556 S
Zn116 O115 1.953 . S
Zn116 O117 1.949 . S
Zn116 O123 1.919 . S
Zn116 O128 1.924 . S
O117 Zn116 1.949 . S
O117 Zn118 1.923 . S
O117 Zn119 1.950 . S
O117 Zn120 1.945 . S
Zn118 O117 1.923 . S
Zn118 O121 1.933 . S
Zn118 O124 1.941 . S
Zn118 O125 1.965 . S
Zn119 O117 1.950 . S
Zn119 O126 1.938 . S
Zn119 O127 1.903 1_556 S
Zn119 O137 1.953 1_556 S
Zn120 O117 1.945 . S
Zn120 O122 1.932 . S
Zn120 O129 1.977 . S
Zn120 O130 1.910 . S
O121 Zn118 1.933 . S
O121 C132 1.226 . S
O122 Zn120 1.932 . S
O122 C132 1.307 . S
O123 Zn116 1.919 . S
O123 C134 1.253 . S
O124 Zn118 1.941 . S
O124 C134 1.283 . S
O125 Zn118 1.965 . S
O125 C133 1.303 . S
O126 Zn119 1.938 . S
O126 C133 1.247 . S
O127 Zn119 1.903 1_554 S
O127 C135 1.302 1_554 S
O128 Zn116 1.924 . S
O128 C136 1.311 . S
O129 Zn120 1.977 . S
O129 C135 1.272 . S
O130 Zn120 1.910 . S
O130 C136 1.231 . S
C131 O115 1.225 1_554 S
C131 O137 1.298 . S
C132 O121 1.226 . S
C132 O122 1.307 . S
C133 O125 1.303 . S
C133 O126 1.247 . S
C134 O123 1.253 . S
C134 O124 1.283 . S
C135 O127 1.302 1_556 S
C135 O129 1.272 . S
C136 O128 1.311 . S
C136 O130 1.231 . S
O137 Zn119 1.953 1_554 S
O137 C131 1.298 . S
O138 Zn139 1.953 . S
O138 C154 1.225 . S
Zn139 O138 1.953 . S
Zn139 O140 1.949 . S
Zn139 O146 1.919 . S
Zn139 O151 1.924 . S
O140 Zn139 1.949 . S
O140 Zn141 1.923 . S
O140 Zn142 1.950 . S
O140 Zn143 1.945 . S
Zn141 O140 1.923 . S
Zn141 O144 1.933 . S
Zn141 O147 1.941 . S
Zn141 O148 1.965 . S
Zn142 O140 1.950 . S
Zn142 O149 1.938 . S
Zn142 O150 1.906 . S
Zn142 O160 1.953 . S
Zn143 O140 1.945 . S
Zn143 O145 1.932 . S
Zn143 O152 1.977 . S
Zn143 O153 1.910 . S
O144 Zn141 1.933 . S
O144 C155 1.226 . S
O145 Zn143 1.932 . S
O145 C155 1.307 . S
O146 Zn139 1.919 . S
O146 C157 1.253 . S
O147 Zn141 1.941 . S
O147 C157 1.283 . S
O148 Zn141 1.965 . S
O148 C156 1.303 . S
O149 Zn142 1.938 . S
O149 C156 1.247 . S
O150 Zn142 1.906 . S
O150 C158 1.304 . S
O151 Zn139 1.924 . S
O151 C159 1.311 . S
O152 Zn143 1.977 . S
O152 C158 1.272 . S
O153 Zn143 1.910 . S
O153 C159 1.231 . S
C154 O138 1.225 . S
C154 O160 1.298 . S
C155 O144 1.226 . S
C155 O145 1.307 . S
C156 O148 1.303 . S
C156 O149 1.247 . S
C157 O146 1.253 . S
C157 O147 1.283 . S
C158 O150 1.304 . S
C158 O152 1.272 . S
C159 O151 1.311 . S
C159 O153 1.231 . S
O160 Zn142 1.953 . S
O160 C154 1.298 . S
O161 Zn162 1.953 . S
O161 C177 1.225 . S
Zn162 O161 1.953 . S
Zn162 O163 1.949 . S
Zn162 O169 1.919 . S
Zn162 O174 1.924 . S
O163 Zn162 1.949 . S
O163 Zn164 1.923 . S
O163 Zn165 1.950 . S
O163 Zn166 1.945 . S
Zn164 O163 1.923 . S
Zn164 O167 1.933 . S
Zn164 O170 1.941 . S
Zn164 O171 1.965 . S
Zn165 O163 1.950 . S
Zn165 O172 1.938 . S
Zn165 O173 1.906 . S
Zn165 O183 1.953 . S
Zn166 O163 1.945 . S
Zn166 O168 1.932 . S
Zn166 O175 1.977 . S
Zn166 O176 1.910 . S
O167 Zn164 1.933 . S
O167 C178 1.226 . S
O168 Zn166 1.932 . S
O168 C178 1.307 . S
O169 Zn162 1.919 . S
O169 C180 1.253 . S
O170 Zn164 1.941 . S
O170 C180 1.283 . S
O171 Zn164 1.965 . S
O171 C179 1.303 . S
O172 Zn165 1.938 . S
O172 C179 1.247 . S
O173 Zn165 1.906 . S
O173 C181 1.304 . S
O174 Zn162 1.924 . S
O174 C182 1.311 . S
O175 Zn166 1.977 . S
O175 C181 1.272 . S
O176 Zn166 1.910 . S
O176 C182 1.231 . S
C177 O161 1.225 . S
C177 O183 1.298 . S
C178 O167 1.226 . S
C178 O168 1.307 . S
C179 O171 1.303 . S
C179 O172 1.247 . S
C180 O169 1.253 . S
C180 O170 1.283 . S
C181 O173 1.304 . S
C181 O175 1.272 . S
C182 O174 1.311 . S
C182 O176 1.231 . S
O183 Zn165 1.953 . S
O183 C177 1.298 . S
O184 Zn185 1.953 . S
O184 C200 1.225 . S
Zn185 O184 1.953 . S
Zn185 O186 1.949 . S
Zn185 O192 1.919 . S
Zn185 O197 1.924 . S
O186 Zn185 1.949 . S
O186 Zn187 1.923 . S
O186 Zn188 1.950 . S
O186 Zn189 1.945 . S
Zn187 O186 1.923 . S
Zn187 O190 1.933 . S
Zn187 O193 1.941 . S
Zn187 O194 1.965 . S
Zn188 O186 1.950 . S
Zn188 O195 1.938 . S
Zn188 O196 1.906 . S
Zn188 O206 1.953 . S
Zn189 O186 1.945 . S
Zn189 O191 1.932 . S
Zn189 O198 1.977 . S
Zn189 O199 1.910 . S
O190 Zn187 1.933 . S
O190 C201 1.226 . S
O191 Zn189 1.932 . S
O191 C201 1.307 . S
O192 Zn185 1.919 . S
O192 C203 1.253 . S
O193 Zn187 1.941 . S
O193 C203 1.283 . S
O194 Zn187 1.965 . S
O194 C202 1.303 . S
O195 Zn188 1.938 . S
O195 C202 1.247 . S
O196 Zn188 1.906 . S
O196 C204 1.304 . S
O197 Zn185 1.924 . S
O197 C205 1.311 . S
O198 Zn189 1.977 . S
O198 C204 1.272 . S
O199 Zn189 1.910 . S
O199 C205 1.231 . S
C200 O184 1.225 . S
C200 O206 1.298 . S
C201 O190 1.226 . S
C201 O191 1.307 . S
C202 O194 1.303 . S
C202 O195 1.247 . S
C203 O192 1.253 . S
C203 O193 1.283 . S
C204 O196 1.304 . S
C204 O198 1.272 . S
C205 O197 1.311 . S
C205 O199 1.231 . S
O206 Zn188 1.953 . S
O206 C200 1.298 . S
O207 Zn208 1.953 . S
O207 C223 1.225 . S
Zn208 O207 1.953 . S
Zn208 O209 1.949 . S
Zn208 O215 1.919 . S
Zn208 O220 1.924 . S
O209 Zn208 1.949 . S
O209 Zn210 1.923 . S
O209 Zn211 1.950 . S
O209 Zn212 1.945 . S
Zn210 O209 1.923 . S
Zn210 O213 1.933 . S
Zn210 O216 1.941 . S
Zn210 O217 1.965 . S
Zn211 O209 1.950 . S
Zn211 O218 1.938 . S
Zn211 O219 1.906 . S
Zn211 O229 1.953 . S
Zn212 O209 1.945 . S
Zn212 O214 1.932 . S
Zn212 O221 1.977 . S
Zn212 O222 1.910 . S
O213 Zn210 1.933 . S
O213 C224 1.226 . S
O214 Zn212 1.932 . S
O214 C224 1.307 . S
O215 Zn208 1.919 . S
O215 C226 1.253 . S
O216 Zn210 1.941 . S
O216 C226 1.283 . S
O217 Zn210 1.965 . S
O217 C225 1.303 . S
O218 Zn211 1.938 . S
O218 C225 1.247 . S
O219 Zn211 1.906 . S
O219 C227 1.304 . S
O220 Zn208 1.924 . S
O220 C228 1.311 . S
O221 Zn212 1.977 . S
O221 C227 1.272 . S
O222 Zn212 1.910 . S
O222 C228 1.231 . S
C223 O207 1.225 . S
C223 O229 1.298 . S
C224 O213 1.226 . S
C224 O214 1.307 . S
C225 O217 1.303 . S
C225 O218 1.247 . S
C226 O215 1.253 . S
C226 O216 1.283 . S
C227 O219 1.304 . S
C227 O221 1.272 . S
C228 O220 1.311 . S
C228 O222 1.231 . S
O229 Zn211 1.953 . S
O229 C223 1.298 . S
O230 Zn231 1.953 . S
O230 C246 1.225 . S
Zn231 O230 1.953 . S
Zn231 O232 1.949 . S
Zn231 O238 1.919 . S
Zn231 O243 1.924 . S
O232 Zn231 1.949 . S
O232 Zn233 1.923 . S
O232 Zn234 1.950 . S
O232 Zn235 1.945 . S
Zn233 O232 1.923 . S
Zn233 O236 1.933 . S
Zn233 O239 1.941 . S
Zn233 O240 1.965 . S
Zn234 O232 1.950 . S
Zn234 O241 1.938 . S
Zn234 O242 1.906 . S
Zn234 O252 1.953 . S
Zn235 O232 1.945 . S
Zn235 O237 1.932 . S
Zn235 O244 1.977 . S
Zn235 O245 1.910 . S
O236 Zn233 1.933 . S
O236 C247 1.226 . S
O237 Zn235 1.932 . S
O237 C247 1.307 . S
O238 Zn231 1.919 . S
O238 C249 1.253 . S
O239 Zn233 1.941 . S
O239 C249 1.283 . S
O240 Zn233 1.965 . S
O240 C248 1.303 . S
O241 Zn234 1.938 . S
O241 C248 1.247 . S
O242 Zn234 1.906 . S
O242 C250 1.304 . S
O243 Zn231 1.924 . S
O243 C251 1.311 . S
O244 Zn235 1.977 . S
O244 C250 1.272 . S
O245 Zn235 1.910 . S
O245 C251 1.231 . S
C246 O230 1.225 . S
C246 O252 1.298 . S
C247 O236 1.226 . S
C247 O237 1.307 . S
C248 O240 1.303 . S
C248 O241 1.247 . S
C249 O238 1.253 . S
C249 O239 1.283 . S
C250 O242 1.304 . S
C250 O244 1.272 . S
C251 O243 1.311 . S
C251 O245 1.231 . S
O252 Zn234 1.953 . S
O252 C246 1.298 . S
O253 Zn254 1.953 . S
O253 C269 1.225 . S
Zn254 O253 1.953 . S
Zn254 O255 1.949 . S
Zn254 O261 1.919 . S
Zn254 O266 1.924 . S
O255 Zn254 1.949 . S
O255 Zn256 1.923 . S
O255 Zn257 1.950 . S
O255 Zn258 1.945 . S
Zn256 O255 1.923 . S
Zn256 O259 1.933 . S
Zn256 O262 1.941 . S
Zn256 O263 1.965 . S
Zn257 O255 1.950 . S
Zn257 O264 1.938 . S
Zn257 O265 1.906 . S
Zn257 O275 1.953 . S
Zn258 O255 1.945 . S
Zn258 O260 1.932 . S
Zn258 O267 1.977 . S
Zn258 O268 1.910 . S
O259 Zn256 1.933 . S
O259 C270 1.226 . S
O260 Zn258 1.932 . S
O260 C270 1.307 . S
O261 Zn254 1.919 . S
O261 C272 1.253 . S
O262 Zn256 1.941 . S
O262 C272 1.283 . S
O263 Zn256 1.965 . S
O263 C271 1.303 . S
O264 Zn257 1.938 . S
O264 C271 1.247 . S
O265 Zn257 1.906 . S
O265 C273 1.304 . S
O266 Zn254 1.924 . S
O266 C274 1.311 . S
O267 Zn258 1.977 . S
O267 C273 1.272 . S
O268 Zn258 1.910 . S
O268 C274 1.231 . S
C269 O253 1.225 . S
C269 O275 1.298 . S
C270 O259 1.226 . S
C270 O260 1.307 . S
C271 O263 1.303 . S
C271 O264 1.247 . S
C272 O261 1.253 . S
C272 O262 1.283 . S
C273 O265 1.304 . S
C273 O267 1.272 . S
C274 O266 1.311 . S
C274 O268 1.231 . S
O275 Zn257 1.953 . S
O275 C269 1.298 . S
O276 Zn277 1.953 . S
O276 C292 1.225 . S
Zn277 O276 1.953 . S
Zn277 O278 1.949 . S
Zn277 O284 1.919 . S
Zn277 O289 1.924 . S
O278 Zn277 1.949 . S
O278 Zn279 1.923 . S
O278 Zn280 1.950 . S
O278 Zn281 1.945 . S
Zn279 O278 1.923 . S
Zn279 O282 1.933 . S
Zn279 O285 1.941 . S
Zn279 O286 1.965 . S
Zn280 O278 1.950 . S
Zn280 O287 1.938 . S
Zn280 O288 1.906 . S
Zn280 O298 1.953 . S
Zn281 O278 1.945 . S
Zn281 O283 1.932 . S
Zn281 O290 1.977 . S
Zn281 O291 1.910 . S
O282 Zn279 1.933 . S
O282 C293 1.226 . S
O283 Zn281 1.932 . S
O283 C293 1.307 . S
O284 Zn277 1.919 . S
O284 C295 1.253 . S
O285 Zn279 1.941 . S
O285 C295 1.283 . S
O286 Zn279 1.965 . S
O286 C294 1.303 . S
O287 Zn280 1.938 . S
O287 C294 1.247 . S
O288 Zn280 1.906 . S
O288 C296 1.304 . S
O289 Zn277 1.924 . S
O289 C297 1.311 . S
O290 Zn281 1.977 . S
O290 C296 1.272 . S
O291 Zn281 1.910 . S
O291 C297 1.231 . S
C292 O276 1.225 . S
C292 O298 1.298 . S
C293 O282 1.226 . S
C293 O283 1.307 . S
C294 O286 1.303 . S
C294 O287 1.247 . S
C295 O284 1.253 . S
C295 O285 1.283 . S
C296 O288 1.304 . S
C296 O290 1.272 . S
C297 O289 1.311 . S
C297 O291 1.231 . S
O298 Zn280 1.953 . S
O298 C292 1.298 . S
O299 Zn300 1.953 . S
O299 C315 1.225 . S
Zn300 O299 1.953 . S
Zn300 O301 1.949 . S
Zn300 O307 1.919 . S
Zn300 O312 1.924 . S
O301 Zn300 1.949 . S
O301 Zn302 1.923 . S
O301 Zn303 1.950 . S
O301 Zn304 1.945 . S
Zn302 O301 1.923 . S
Zn302 O305 1.933 . S
Zn302 O308 1.941 . S
Zn302 O309 1.965 . S
Zn303 O301 1.950 . S
Zn303 O310 1.938 . S
Zn303 O311 1.906 . S
Zn303 O321 1.953 . S
Zn304 O301 1.945 . S
Zn304 O306 1.932 . S
Zn304 O313 1.977 . S
Zn304 O314 1.910 . S
O305 Zn302 1.933 . S
O305 C316 1.226 . S
O306 Zn304 1.932 . S
O306 C316 1.307 . S
O307 Zn300 1.919 . S
O307 C318 1.253 . S
O308 Zn302 1.941 . S
O308 C318 1.283 . S
O309 Zn302 1.965 . S
O309 C317 1.303 . S
O310 Zn303 1.938 . S
O310 C317 1.247 . S
O311 Zn303 1.906 . S
O311 C319 1.304 . S
O312 Zn300 1.924 . S
O312 C320 1.311 . S
O313 Zn304 1.977 . S
O313 C319 1.272 . S
O314 Zn304 1.910 . S
O314 C320 1.231 . S
C315 O299 1.225 . S
C315 O321 1.298 . S
C316 O305 1.226 . S
C316 O306 1.307 . S
C317 O309 1.303 . S
C317 O310 1.247 . S
C318 O307 1.253 . S
C318 O308 1.283 . S
C319 O311 1.304 . S
C319 O313 1.272 . S
C320 O312 1.311 . S
C320 O314 1.231 . S
O321 Zn303 1.953 . S
O321 C315 1.298 . S
O322 Zn323 1.953 . S
O322 C338 1.225 . S
Zn323 O322 1.953 . S
Zn323 O324 1.949 . S
Zn323 O330 1.919 . S
Zn323 O335 1.924 . S
O324 Zn323 1.949 . S
O324 Zn325 1.923 . S
O324 Zn326 1.950 . S
O324 Zn327 1.945 . S
Zn325 O324 1.923 . S
Zn325 O328 1.933 . S
Zn325 O331 1.941 . S
Zn325 O332 1.965 . S
Zn326 O324 1.950 . S
Zn326 O333 1.938 . S
Zn326 O334 1.906 . S
Zn326 O344 1.953 . S
Zn327 O324 1.945 . S
Zn327 O329 1.932 . S
Zn327 O336 1.977 . S
Zn327 O337 1.910 . S
O328 Zn325 1.933 . S
O328 C339 1.226 . S
O329 Zn327 1.932 . S
O329 C339 1.307 . S
O330 Zn323 1.919 . S
O330 C341 1.253 . S
O331 Zn325 1.941 . S
O331 C341 1.283 . S
O332 Zn325 1.965 . S
O332 C340 1.303 . S
O333 Zn326 1.938 . S
O333 C340 1.247 . S
O334 Zn326 1.906 . S
O334 C342 1.304 . S
O335 Zn323 1.924 . S
O335 C343 1.311 . S
O336 Zn327 1.977 . S
O336 C342 1.272 . S
O337 Zn327 1.910 . S
O337 C343 1.231 . S
C338 O322 1.225 . S
C338 O344 1.298 . S
C339 O328 1.226 . S
C339 O329 1.307 . S
C340 O332 1.303 . S
C340 O333 1.247 . S
C341 O330 1.253 . S
C341 O331 1.283 . S
C342 O334 1.304 . S
C342 O336 1.272 . S
C343 O335 1.311 . S
C343 O337 1.231 . S
O344 Zn326 1.953 . S
O344 C338 1.298 . S
O345 Zn346 1.953 . S
O345 C361 1.225 . S
Zn346 O345 1.953 . S
Zn346 O347 1.949 . S
Zn346 O353 1.919 . S
Zn346 O358 1.924 . S
O347 Zn346 1.949 . S
O347 Zn348 1.923 . S
O347 Zn349 1.950 . S
O347 Zn350 1.945 . S
Zn348 O347 1.923 . S
Zn348 O351 1.933 . S
Zn348 O354 1.941 . S
Zn348 O355 1.965 . S
Zn349 O347 1.950 . S
Zn349 O356 1.938 . S
Zn349 O357 1.906 . S
Zn349 O367 1.953 . S
Zn350 O347 1.945 . S
Zn350 O352 1.932 . S
Zn350 O359 1.977 . S
Zn350 O360 1.910 . S
O351 Zn348 1.933 . S
O351 C362 1.226 . S
O352 Zn350 1.932 . S
O352 C362 1.307 . S
O353 Zn346 1.919 . S
O353 C364 1.253 . S
O354 Zn348 1.941 . S
O354 C364 1.283 . S
O355 Zn348 1.965 . S
O355 C363 1.303 . S
O356 Zn349 1.938 . S
O356 C363 1.247 . S
O357 Zn349 1.906 . S
O357 C365 1.304 . S
O358 Zn346 1.924 . S
O358 C366 1.311 . S
O359 Zn350 1.977 . S
O359 C365 1.272 . S
O360 Zn350 1.910 . S
O360 C366 1.231 . S
C361 O345 1.225 . S
C361 O367 1.298 . S
C362 O351 1.226 . S
C362 O352 1.307 . S
C363 O355 1.303 . S
C363 O356 1.247 . S
C364 O353 1.253 . S
C364 O354 1.283 . S
C365 O357 1.304 . S
C365 O359 1.272 . S
C366 O358 1.311 . S
C366 O360 1.231 . S
O367 Zn349 1.953 . S
O367 C361 1.298 . S
O368 Zn369 1.953 . S
O368 C384 1.225 . S
Zn369 O368 1.953 . S
Zn369 O370 1.949 . S
Zn369 O376 1.919 . S
Zn369 O381 1.924 . S
O370 Zn369 1.949 . S
O370 Zn371 1.923 . S
O370 Zn372 1.950 . S
O370 Zn373 1.945 . S
Zn371 O370 1.923 . S
Zn371 O374 1.933 . S
Zn371 O377 1.941 . S
Zn371 O378 1.965 . S
Zn372 O370 1.950 . S
Zn372 O379 1.938 . S
Zn372 O380 1.906 . S
Zn372 O390 1.953 . S
Zn373 O370 1.945 . S
Zn373 O375 1.932 . S
Zn373 O382 1.977 . S
Zn373 O383 1.910 . S
O374 Zn371 1.933 . S
O374 C385 1.226 . S
O375 Zn373 1.932 . S
O375 C385 1.307 . S
O376 Zn369 1.919 . S
O376 C387 1.253 . S
O377 Zn371 1.941 . S
O377 C387 1.283 . S
O378 Zn371 1.965 . S
O378 C386 1.303 . S
O379 Zn372 1.938 . S
O379 C386 1.247 . S
O380 Zn372 1.906 . S
O380 C388 1.304 . S
O381 Zn369 1.924 . S
O381 C389 1.311 . S
O382 Zn373 1.977 . S
O382 C388 1.272 . S
O383 Zn373 1.910 . S
O383 C389 1.231 . S
C384 O368 1.225 . S
C384 O390 1.298 . S
C385 O374 1.226 . S
C385 O375 1.307 . S
C386 O378 1.303 . S
C386 O379 1.247 . S
C387 O376 1.253 . S
C387 O377 1.283 . S
C388 O380 1.304 . S
C388 O382 1.272 . S
C389 O381 1.311 . S
C389 O383 1.231 . S
O390 Zn372 1.953 . S
O390 C384 1.298 . S
O391 Zn392 1.953 . S
O391 C407 1.225 . S
Zn392 O391 1.953 . S
Zn392 O393 1.949 . S
Zn392 O399 1.919 . S
Zn392 O404 1.924 . S
O393 Zn392 1.949 . S
O393 Zn394 1.923 . S
O393 Zn395 1.950 . S
O393 Zn396 1.945 . S
Zn394 O393 1.923 . S
Zn394 O397 1.933 . S
Zn394 O400 1.941 . S
Zn394 O401 1.965 . S
Zn395 O393 1.950 . S
Zn395 O402 1.938 . S
Zn395 O403 1.906 . S
Zn395 O413 1.953 . S
Zn396 O393 1.945 . S
Zn396 O398 1.932 . S
Zn396 O405 1.977 . S
Zn396 O406 1.910 . S
O397 Zn394 1.933 . S
O397 C408 1.226 . S
O398 Zn396 1.932 . S
O398 C408 1.307 . S
O399 Zn392 1.919 . S
O399 C410 1.253 . S
O400 Zn394 1.941 . S
O400 C410 1.283 . S
O401 Zn394 1.965 . S
O401 C409 1.303 . S
O402 Zn395 1.938 . S
O402 C409 1.247 . S
O403 Zn395 1.906 . S
O403 C411 1.304 . S
O404 Zn392 1.924 . S
O404 C412 1.311 . S
O405 Zn396 1.977 . S
O405 C411 1.272 . S
O406 Zn396 1.910 . S
O406 C412 1.231 . S
C407 O391 1.225 . S
C407 O413 1.298 . S
C408 O397 1.226 . S
C408 O398 1.307 . S
C409 O401 1.303 . S
C409 O402 1.247 . S
C410 O399 1.253 . S
C410 O400 1.283 . S
C411 O403 1.304 . S
C411 O405 1.272 . S
C412 O404 1.311 . S
C412 O406 1.231 . S
O413 Zn395 1.953 . S
O413 C407 1.298 . S
H414 C420 0.930 . S
H415 C424 0.930 . S
H416 C429 0.929 . S
H417 C427 0.929 . S
H418 C422 0.930 . S
H419 C428 0.929 . S
C420 H414 0.930 . S
C420 C421 1.367 . S
C420 C428 1.378 . S
C421 C420 1.367 . S
C421 C429 1.433 . S
C422 H418 0.930 . S
C422 C424 1.378 1_556 S
C422 C426 1.350 . S
C423 C426 1.463 . S
C423 C428 1.350 . S
C423 N431 1.427 . S
C424 H415 0.930 . S
C424 C422 1.378 1_554 S
C424 C425 1.366 1_554 S
C425 C424 1.366 1_556 S
C425 C427 1.435 . S
C426 C422 1.350 . S
C426 C423 1.463 . S
C426 N430 1.427 . S
C427 H417 0.929 . S
C427 C425 1.435 . S
C427 N430 1.384 . S
C428 H419 0.929 . S
C428 C420 1.378 . S
C428 C423 1.350 . S
C429 H416 0.929 . S
C429 C421 1.433 . S
C429 N431 1.384 . S
N430 C426 1.427 . S
N430 C427 1.384 . S
N431 C423 1.427 . S
N431 C429 1.384 . S
H432 C438 0.940 . S
H433 C442 0.930 . S
H434 C447 0.929 . S
H435 C445 0.929 . S
H436 C440 0.929 1_554 S
H437 C446 0.929 . S
C438 H432 0.940 . S
C438 C439 1.380 . S
C438 C446 1.356 1_565 S
C439 C438 1.380 . S
C439 C447 1.433 1_566 S
C440 H436 0.929 1_556 S
C440 C442 1.378 . S
C440 C444 1.350 . S
C441 C444 1.463 . S
C441 C446 1.350 . S
C441 N449 1.427 1_556 S
C442 H433 0.930 . S
C442 C440 1.378 . S
C442 C443 1.367 . S
C443 C442 1.367 . S
C443 C445 1.433 . S
C444 C440 1.350 . S
C444 C441 1.463 . S
C444 N448 1.427 . S
C445 H435 0.929 . S
C445 C443 1.433 . S
C445 N448 1.384 . S
C446 H437 0.929 . S
C446 C438 1.356 1_545 S
C446 C441 1.350 . S
C447 H434 0.929 . S
C447 C439 1.433 1_544 S
C447 N449 1.384 . S
N448 C444 1.427 . S
N448 C445 1.384 . S
N449 C441 1.427 1_554 S
N449 C447 1.384 . S
H450 C456 0.930 . S
H451 C460 0.930 . S
H452 C465 0.929 . S
H453 C463 0.929 . S
H454 C458 0.929 . S
H455 C464 0.929 . S
C456 H450 0.930 . S
C456 C457 1.367 . S
C456 C464 1.378 . S
C457 C456 1.367 . S
C457 C465 1.433 . S
C458 H454 0.929 . S
C458 C460 1.378 1_655 S
C458 C462 1.350 . S
C459 C462 1.463 . S
C459 C464 1.350 . S
C459 N467 1.427 . S
C460 H451 0.930 . S
C460 C458 1.378 1_455 S
C460 C461 1.374 . S
C461 C460 1.374 . S
C461 C463 1.433 1_456 S
C462 C458 1.350 . S
C462 C459 1.463 . S
C462 N466 1.427 . S
C463 H453 0.929 . S
C463 C461 1.433 1_654 S
C463 N466 1.384 1_554 S
C464 H455 0.929 . S
C464 C456 1.378 . S
C464 C459 1.350 . S
C465 H452 0.929 . S
C465 C457 1.433 . S
C465 N467 1.384 . S
N466 C462 1.427 . S
N466 C463 1.384 1_556 S
N467 C459 1.427 . S
N467 C465 1.384 . S
H468 C474 0.930 . S
H469 C478 0.930 . S
H470 C483 0.929 . S
H471 C481 0.929 . S
H472 C476 0.929 . S
H473 C482 0.929 . S
C474 H468 0.930 . S
C474 C475 1.367 . S
C474 C482 1.378 . S
C475 C474 1.367 . S
C475 C483 1.432 1_556 S
C476 H472 0.929 . S
C476 C478 1.378 . S
C476 C480 1.350 . S
C477 C480 1.463 . S
C477 C482 1.350 1_554 S
C477 N485 1.427 . S
C478 H469 0.930 . S
C478 C476 1.378 . S
C478 C479 1.367 . S
C479 C478 1.367 . S
C479 C481 1.433 . S
C480 C476 1.350 . S
C480 C477 1.463 . S
C480 N484 1.427 . S
C481 H471 0.929 . S
C481 C479 1.433 . S
C481 N484 1.384 . S
C482 H473 0.929 . S
C482 C474 1.378 . S
C482 C477 1.350 1_556 S
C483 H470 0.929 . S
C483 C475 1.432 1_554 S
C483 N485 1.384 . S
N484 C480 1.427 . S
N484 C481 1.384 . S
N485 C477 1.427 . S
N485 C483 1.384 . S
H486 C492 0.930 . S
H487 C496 0.930 . S
H488 C501 0.929 . S
H489 C499 0.929 . S
H490 C494 0.929 . S
H491 C500 0.929 . S
C492 H486 0.930 . S
C492 C493 1.370 1_565 S
C492 C500 1.378 . S
C493 C492 1.370 1_545 S
C493 C501 1.428 1_556 S
C494 H490 0.929 . S
C494 C496 1.378 . S
C494 C498 1.350 . S
C495 C498 1.463 . S
C495 C500 1.350 1_554 S
C495 N503 1.427 . S
C496 H487 0.930 . S
C496 C494 1.378 . S
C496 C497 1.367 . S
C497 C496 1.367 . S
C497 C499 1.433 . S
C498 C494 1.350 . S
C498 C495 1.463 . S
C498 N502 1.427 . S
C499 H489 0.929 . S
C499 C497 1.433 . S
C499 N502 1.384 . S
C500 H491 0.929 . S
C500 C492 1.378 . S
C500 C495 1.350 1_556 S
C501 H488 0.929 . S
C501 C493 1.428 1_554 S
C501 N503 1.384 1_545 S
N502 C498 1.427 . S
N502 C499 1.384 . S
N503 C495 1.427 . S
N503 C501 1.384 1_565 S
H504 C510 0.930 . S
H505 C514 0.930 . S
H506 C519 0.929 . S
H507 C517 0.929 . S
H508 C512 0.929 . S
H509 C518 0.929 . S
C510 H504 0.930 . S
C510 C511 1.367 . S
C510 C518 1.378 . S
C511 C510 1.367 . S
C511 C519 1.433 . S
C512 H508 0.929 . S
C512 C514 1.378 1_554 S
C512 C516 1.350 . S
C513 C516 1.463 . S
C513 C518 1.350 . S
C513 N521 1.427 . S
C514 H505 0.930 . S
C514 C512 1.378 1_556 S
C514 C515 1.366 1_456 S
C515 C514 1.366 1_654 S
C515 C517 1.436 . S
C516 C512 1.350 . S
C516 C513 1.463 . S
C516 N520 1.427 . S
C517 H507 0.929 . S
C517 C515 1.436 . S
C517 N520 1.384 1_655 S
C518 H509 0.929 . S
C518 C510 1.378 . S
C518 C513 1.350 . S
C519 H506 0.929 . S
C519 C511 1.433 . S
C519 N521 1.384 . S
N520 C516 1.427 . S
N520 C517 1.384 1_455 S
N521 C513 1.427 . S
N521 C519 1.384 . S
H522 C528 0.930 . S
H523 C532 0.930 . S
H524 C537 0.929 . S
H525 C535 0.929 . S
H526 C530 0.929 . S
H527 C536 0.929 . S
C528 H522 0.930 . S
C528 C529 1.367 . S
C528 C536 1.378 . S
C529 C528 1.367 . S
C529 C537 1.433 . S
C530 H526 0.929 . S
C530 C532 1.378 . S
C530 C534 1.350 . S
C531 C534 1.463 . S
C531 C536 1.350 . S
C531 N539 1.427 . S
C532 H523 0.930 . S
C532 C530 1.378 . S
C532 C533 1.367 . S
C533 C532 1.367 . S
C533 C535 1.433 . S
C534 C530 1.350 . S
C534 C531 1.463 . S
C534 N538 1.427 . S
C535 H525 0.929 . S
C535 C533 1.433 . S
C535 N538 1.384 . S
C536 H527 0.929 . S
C536 C528 1.378 . S
C536 C531 1.350 . S
C537 H524 0.929 . S
C537 C529 1.433 . S
C537 N539 1.384 . S
N538 C534 1.427 . S
N538 C535 1.384 . S
N539 C531 1.427 . S
N539 C537 1.384 . S
H540 C546 0.930 . S
H541 C550 0.930 . S
H542 C555 0.929 . S
H543 C553 0.929 . S
H544 C548 0.929 . S
H545 C554 0.929 . S
C546 H540 0.930 . S
C546 C547 1.367 . S
C546 C554 1.378 . S
C547 C546 1.367 . S
C547 C555 1.433 . S
C548 H544 0.929 . S
C548 C550 1.378 . S
C548 C552 1.350 . S
C549 C552 1.463 . S
C549 C554 1.350 . S
C549 N557 1.427 . S
C550 H541 0.930 . S
C550 C548 1.378 . S
C550 C551 1.367 . S
C551 C550 1.367 . S
C551 C553 1.433 . S
C552 C548 1.350 . S
C552 C549 1.463 . S
C552 N556 1.427 . S
C553 H543 0.929 . S
C553 C551 1.433 . S
C553 N556 1.384 . S
C554 H545 0.929 . S
C554 C546 1.378 . S
C554 C549 1.350 . S
C555 H542 0.929 . S
C555 C547 1.433 . S
C555 N557 1.384 . S
N556 C552 1.427 . S
N556 C553 1.384 . S
N557 C549 1.427 . S
N557 C555 1.384 . S
H558 C564 0.930 . S
H559 C568 0.930 . S
H560 C573 0.929 . S
H561 C571 0.929 . S
H562 C566 0.929 . S
H563 C572 0.929 . S
C564 H558 0.930 . S
C564 C565 1.367 . S
C564 C572 1.378 . S
C565 C564 1.367 . S
C565 C573 1.433 . S
C566 H562 0.929 . S
C566 C568 1.378 . S
C566 C570 1.350 . S
C567 C570 1.463 . S
C567 C572 1.350 . S
C567 N575 1.427 . S
C568 H559 0.930 . S
C568 C566 1.378 . S
C568 C569 1.367 . S
C569 C568 1.367 . S
C569 C571 1.433 . S
C570 C566 1.350 . S
C570 C567 1.463 . S
C570 N574 1.427 . S
C571 H561 0.929 . S
C571 C569 1.433 . S
C571 N574 1.384 . S
C572 H563 0.929 . S
C572 C564 1.378 . S
C572 C567 1.350 . S
C573 H560 0.929 . S
C573 C565 1.433 . S
C573 N575 1.384 . S
N574 C570 1.427 . S
N574 C571 1.384 . S
N575 C567 1.427 . S
N575 C573 1.384 . S
H576 C582 0.930 . S
H577 C586 0.930 . S
H578 C591 0.929 . S
H579 C589 0.929 . S
H580 C584 0.929 . S
H581 C590 0.929 . S
C582 H576 0.930 . S
C582 C583 1.367 . S
C582 C590 1.378 . S
C583 C582 1.367 . S
C583 C591 1.433 . S
C584 H580 0.929 . S
C584 C586 1.378 . S
C584 C588 1.350 . S
C585 C588 1.463 . S
C585 C590 1.350 . S
C585 N593 1.427 . S
C586 H577 0.930 . S
C586 C584 1.378 . S
C586 C587 1.367 . S
C587 C586 1.367 . S
C587 C589 1.433 . S
C588 C584 1.350 . S
C588 C585 1.463 . S
C588 N592 1.427 . S
C589 H579 0.929 . S
C589 C587 1.433 . S
C589 N592 1.384 . S
C590 H581 0.929 . S
C590 C582 1.378 . S
C590 C585 1.350 . S
C591 H578 0.929 . S
C591 C583 1.433 . S
C591 N593 1.384 . S
N592 C588 1.427 . S
N592 C589 1.384 . S
N593 C585 1.427 . S
N593 C591 1.384 . S
H594 C600 0.930 . S
H595 C604 0.930 . S
H596 C609 0.929 . S
H597 C607 0.929 . S
H598 C602 0.929 . S
H599 C608 0.929 . S
C600 H594 0.930 . S
C600 C601 1.367 . S
C600 C608 1.378 . S
C601 C600 1.367 . S
C601 C609 1.433 . S
C602 H598 0.929 . S
C602 C604 1.378 . S
C602 C606 1.350 . S
C603 C606 1.463 . S
C603 C608 1.350 . S
C603 N611 1.427 . S
C604 H595 0.930 . S
C604 C602 1.378 . S
C604 C605 1.367 . S
C605 C604 1.367 . S
C605 C607 1.433 . S
C606 C602 1.350 . S
C606 C603 1.463 . S
C606 N610 1.427 . S
C607 H597 0.929 . S
C607 C605 1.433 . S
C607 N610 1.384 . S
C608 H599 0.929 . S
C608 C600 1.378 . S
C608 C603 1.350 . S
C609 H596 0.929 . S
C609 C601 1.433 . S
C609 N611 1.384 . S
N610 C606 1.427 . S
N610 C607 1.384 . S
N611 C603 1.427 . S
N611 C609 1.384 . S
H612 C618 0.930 . S
H613 C622 0.930 . S
H614 C627 0.929 . S
H615 C625 0.929 . S
H616 C620 0.929 . S
H617 C626 0.929 . S
C618 H612 0.930 . S
C618 C619 1.367 . S
C618 C626 1.378 . S
C619 C618 1.367 . S
C619 C627 1.433 . S
C620 H616 0.929 . S
C620 C622 1.378 . S
C620 C624 1.350 . S
C621 C624 1.463 . S
C621 C626 1.350 . S
C621 N629 1.427 . S
C622 H613 0.930 . S
C622 C620 1.378 . S
C622 C623 1.367 . S
C623 C622 1.367 . S
C623 C625 1.433 . S
C624 C620 1.350 . S
C624 C621 1.463 . S
C624 N628 1.427 . S
C625 H615 0.929 . S
C625 C623 1.433 . S
C625 N628 1.384 . S
C626 H617 0.929 . S
C626 C618 1.378 . S
C626 C621 1.350 . S
C627 H614 0.929 . S
C627 C619 1.433 . S
C627 N629 1.384 . S
N628 C624 1.427 . S
N628 C625 1.384 . S
N629 C621 1.427 . S
N629 C627 1.384 . S
H630 C636 0.930 . S
H631 C640 0.930 . S
H632 C645 0.929 . S
H633 C643 0.929 . S
H634 C638 0.929 . S
H635 C644 0.929 . S
C636 H630 0.930 . S
C636 C637 1.367 . S
C636 C644 1.378 . S
C637 C636 1.367 . S
C637 C645 1.433 . S
C638 H634 0.929 . S
C638 C640 1.378 . S
C638 C642 1.350 . S
C639 C642 1.463 . S
C639 C644 1.350 . S
C639 N647 1.427 . S
C640 H631 0.930 . S
C640 C638 1.378 . S
C640 C641 1.367 . S
C641 C640 1.367 . S
C641 C643 1.433 . S
C642 C638 1.350 . S
C642 C639 1.463 . S
C642 N646 1.427 . S
C643 H633 0.929 . S
C643 C641 1.433 . S
C643 N646 1.384 . S
C644 H635 0.929 . S
C644 C636 1.378 . S
C644 C639 1.350 . S
C645 H632 0.929 . S
C645 C637 1.433 . S
C645 N647 1.384 . S
N646 C642 1.427 . S
N646 C643 1.384 . S
N647 C639 1.427 . S
N647 C645 1.384 . S
H648 C654 0.930 . S
H649 C658 0.930 . S
H650 C663 0.929 . S
H651 C661 0.929 . S
H652 C656 0.929 . S
H653 C662 0.929 . S
C654 H648 0.930 . S
C654 C655 1.367 . S
C654 C662 1.378 . S
C655 C654 1.367 . S
C655 C663 1.433 . S
C656 H652 0.929 . S
C656 C658 1.378 . S
C656 C660 1.350 . S
C657 C660 1.463 . S
C657 C662 1.350 . S
C657 N665 1.427 . S
C658 H649 0.930 . S
C658 C656 1.378 . S
C658 C659 1.367 . S
C659 C658 1.367 . S
C659 C661 1.433 . S
C660 C656 1.350 . S
C660 C657 1.463 . S
C660 N664 1.427 . S
C661 H651 0.929 . S
C661 C659 1.433 . S
C661 N664 1.384 . S
C662 H653 0.929 . S
C662 C654 1.378 . S
C662 C657 1.350 . S
C663 H650 0.929 . S
C663 C655 1.433 . S
C663 N665 1.384 . S
N664 C660 1.427 . S
N664 C661 1.384 . S
N665 C657 1.427 . S
N665 C663 1.384 . S
H666 C672 0.930 . S
H667 C676 0.930 . S
H668 C681 0.929 . S
H669 C679 0.929 . S
H670 C674 0.929 . S
H671 C680 0.929 . S
C672 H666 0.930 . S
C672 C673 1.367 . S
C672 C680 1.378 . S
C673 C672 1.367 . S
C673 C681 1.433 . S
C674 H670 0.929 . S
C674 C676 1.378 . S
C674 C678 1.350 . S
C675 C678 1.463 . S
C675 C680 1.350 . S
C675 N683 1.427 . S
C676 H667 0.930 . S
C676 C674 1.378 . S
C676 C677 1.367 . S
C677 C676 1.367 . S
C677 C679 1.433 . S
C678 C674 1.350 . S
C678 C675 1.463 . S
C678 N682 1.427 . S
C679 H669 0.929 . S
C679 C677 1.433 . S
C679 N682 1.384 . S
C680 H671 0.929 . S
C680 C672 1.378 . S
C680 C675 1.350 . S
C681 H668 0.929 . S
C681 C673 1.433 . S
C681 N683 1.384 . S
N682 C678 1.427 . S
N682 C679 1.384 . S
N683 C675 1.427 . S
N683 C681 1.384 . S
H684 C690 0.930 . S
H685 C694 0.930 . S
H686 C699 0.929 . S
H687 C697 0.929 . S
H688 C692 0.929 . S
H689 C698 0.929 . S
C690 H684 0.930 . S
C690 C691 1.367 . S
C690 C698 1.378 . S
C691 C690 1.367 . S
C691 C699 1.433 . S
C692 H688 0.929 . S
C692 C694 1.378 . S
C692 C696 1.350 . S
C693 C696 1.463 . S
C693 C698 1.350 . S
C693 N701 1.427 . S
C694 H685 0.930 . S
C694 C692 1.378 . S
C694 C695 1.367 . S
C695 C694 1.367 . S
C695 C697 1.433 . S
C696 C692 1.350 . S
C696 C693 1.463 . S
C696 N700 1.427 . S
C697 H687 0.929 . S
C697 C695 1.433 . S
C697 N700 1.384 . S
C698 H689 0.929 . S
C698 C690 1.378 . S
C698 C693 1.350 . S
C699 H686 0.929 . S
C699 C691 1.433 . S
C699 N701 1.384 . S
N700 C696 1.427 . S
N700 C697 1.384 . S
N701 C693 1.427 . S
N701 C699 1.384 . S
H702 C708 0.930 . S
H703 C712 0.930 . S
H704 C717 0.929 . S
H705 C715 0.929 . S
H706 C710 0.929 . S
H707 C716 0.929 . S
C708 H702 0.930 . S
C708 C709 1.367 . S
C708 C716 1.378 . S
C709 C708 1.367 . S
C709 C717 1.433 . S
C710 H706 0.929 . S
C710 C712 1.378 . S
C710 C714 1.350 . S
C711 C714 1.463 . S
C711 C716 1.350 . S
C711 N719 1.427 . S
C712 H703 0.930 . S
C712 C710 1.378 . S
C712 C713 1.367 . S
C713 C712 1.367 . S
C713 C715 1.433 . S
C714 C710 1.350 . S
C714 C711 1.463 . S
C714 N718 1.427 . S
C715 H705 0.929 . S
C715 C713 1.433 . S
C715 N718 1.384 . S
C716 H707 0.929 . S
C716 C708 1.378 . S
C716 C711 1.350 . S
C717 H704 0.929 . S
C717 C709 1.433 . S
C717 N719 1.384 . S
N718 C714 1.427 . S
N718 C715 1.384 . S
N719 C711 1.427 . S
N719 C717 1.384 . S
H720 C726 0.930 . S
H721 C730 0.930 . S
H722 C735 0.929 . S
H723 C733 0.929 . S
H724 C728 0.929 . S
H725 C734 0.929 . S
C726 H720 0.930 . S
C726 C727 1.367 . S
C726 C734 1.378 . S
C727 C726 1.367 . S
C727 C735 1.433 . S
C728 H724 0.929 . S
C728 C730 1.378 . S
C728 C732 1.350 . S
C729 C732 1.463 . S
C729 C734 1.350 . S
C729 N737 1.427 . S
C730 H721 0.930 . S
C730 C728 1.378 . S
C730 C731 1.367 . S
C731 C730 1.367 . S
C731 C733 1.433 . S
C732 C728 1.350 . S
C732 C729 1.463 . S
C732 N736 1.427 . S
C733 H723 0.929 . S
C733 C731 1.433 . S
C733 N736 1.384 . S
C734 H725 0.929 . S
C734 C726 1.378 . S
C734 C729 1.350 . S
C735 H722 0.929 . S
C735 C727 1.433 . S
C735 N737 1.384 . S
N736 C732 1.427 . S
N736 C733 1.384 . S
N737 C729 1.427 . S
N737 C735 1.384 . S
H738 C744 0.930 . S
H739 C748 0.930 . S
H740 C753 0.929 . S
H741 C751 0.929 . S
H742 C746 0.929 . S
H743 C752 0.929 . S
C744 H738 0.930 . S
C744 C745 1.367 . S
C744 C752 1.378 . S
C745 C744 1.367 . S
C745 C753 1.433 . S
C746 H742 0.929 . S
C746 C748 1.378 . S
C746 C750 1.350 . S
C747 C750 1.463 . S
C747 C752 1.350 . S
C747 N755 1.427 . S
C748 H739 0.930 . S
C748 C746 1.378 . S
C748 C749 1.367 . S
C749 C748 1.367 . S
C749 C751 1.433 . S
C750 C746 1.350 . S
C750 C747 1.463 . S
C750 N754 1.427 . S
C751 H741 0.929 . S
C751 C749 1.433 . S
C751 N754 1.384 . S
C752 H743 0.929 . S
C752 C744 1.378 . S
C752 C747 1.350 . S
C753 H740 0.929 . S
C753 C745 1.433 . S
C753 N755 1.384 . S
N754 C750 1.427 . S
N754 C751 1.384 . S
N755 C747 1.427 . S
N755 C753 1.384 . S
H756 C762 0.930 . S
H757 C766 0.930 . S
H758 C771 0.929 . S
H759 C769 0.929 . S
H760 C764 0.929 . S
H761 C770 0.929 . S
C762 H756 0.930 . S
C762 C763 1.367 . S
C762 C770 1.378 . S
C763 C762 1.367 . S
C763 C771 1.433 . S
C764 H760 0.929 . S
C764 C766 1.378 . S
C764 C768 1.350 . S
C765 C768 1.463 . S
C765 C770 1.350 . S
C765 N773 1.427 . S
C766 H757 0.930 . S
C766 C764 1.378 . S
C766 C767 1.367 . S
C767 C766 1.367 . S
C767 C769 1.433 . S
C768 C764 1.350 . S
C768 C765 1.463 . S
C768 N772 1.427 . S
C769 H759 0.929 . S
C769 C767 1.433 . S
C769 N772 1.384 . S
C770 H761 0.929 . S
C770 C762 1.378 . S
C770 C765 1.350 . S
C771 H758 0.929 . S
C771 C763 1.433 . S
C771 N773 1.384 . S
N772 C768 1.427 . S
N772 C769 1.384 . S
N773 C765 1.427 . S
N773 C771 1.384 . S
H774 C780 0.930 . S
H775 C784 0.930 . S
H776 C789 0.929 . S
H777 C787 0.929 . S
H778 C782 0.929 . S
H779 C788 0.929 . S
C780 H774 0.930 . S
C780 C781 1.367 . S
C780 C788 1.378 . S
C781 C780 1.367 . S
C781 C789 1.433 . S
C782 H778 0.929 . S
C782 C784 1.378 . S
C782 C786 1.350 . S
C783 C786 1.463 . S
C783 C788 1.350 . S
C783 N791 1.427 . S
C784 H775 0.930 . S
C784 C782 1.378 . S
C784 C785 1.367 . S
C785 C784 1.367 . S
C785 C787 1.433 . S
C786 C782 1.350 . S
C786 C783 1.463 . S
C786 N790 1.427 . S
C787 H777 0.929 . S
C787 C785 1.433 . S
C787 N790 1.384 . S
C788 H779 0.929 . S
C788 C780 1.378 . S
C788 C783 1.350 . S
C789 H776 0.929 . S
C789 C781 1.433 . S
C789 N791 1.384 . S
N790 C786 1.427 . S
N790 C787 1.384 . S
N791 C783 1.427 . S
N791 C789 1.384 . S
H792 C798 0.930 . S
H793 C802 0.930 . S
H794 C807 0.929 . S
H795 C805 0.929 . S
H796 C800 0.929 . S
H797 C806 0.929 . S
C798 H792 0.930 . S
C798 C799 1.367 . S
C798 C806 1.378 . S
C799 C798 1.367 . S
C799 C807 1.433 . S
C800 H796 0.929 . S
C800 C802 1.378 . S
C800 C804 1.350 . S
C801 C804 1.463 . S
C801 C806 1.350 . S
C801 N809 1.427 . S
C802 H793 0.930 . S
C802 C800 1.378 . S
C802 C803 1.367 . S
C803 C802 1.367 . S
C803 C805 1.433 . S
C804 C800 1.350 . S
C804 C801 1.463 . S
C804 N808 1.427 . S
C805 H795 0.929 . S
C805 C803 1.433 . S
C805 N808 1.384 . S
C806 H797 0.929 . S
C806 C798 1.378 . S
C806 C801 1.350 . S
C807 H794 0.929 . S
C807 C799 1.433 . S
C807 N809 1.384 . S
N808 C804 1.427 . S
N808 C805 1.384 . S
N809 C801 1.427 . S
N809 C807 1.384 . S
H810 C816 0.930 . S
H811 C820 0.930 . S
H812 C825 0.929 . S
H813 C823 0.929 . S
H814 C818 0.929 . S
H815 C824 0.929 . S
C816 H810 0.930 . S
C816 C817 1.367 . S
C816 C824 1.378 . S
C817 C816 1.367 . S
C817 C825 1.433 . S
C818 H814 0.929 . S
C818 C820 1.378 . S
C818 C822 1.350 . S
C819 C822 1.463 . S
C819 C824 1.350 . S
C819 N827 1.427 . S
C820 H811 0.930 . S
C820 C818 1.378 . S
C820 C821 1.367 . S
C821 C820 1.367 . S
C821 C823 1.433 . S
C822 C818 1.350 . S
C822 C819 1.463 . S
C822 N826 1.427 . S
C823 H813 0.929 . S
C823 C821 1.433 . S
C823 N826 1.384 . S
C824 H815 0.929 . S
C824 C816 1.378 . S
C824 C819 1.350 . S
C825 H812 0.929 . S
C825 C817 1.433 . S
C825 N827 1.384 . S
N826 C822 1.427 . S
N826 C823 1.384 . S
N827 C819 1.427 . S
N827 C825 1.384 . S
H828 C834 0.930 . S
H829 C838 0.930 . S
H830 C843 0.929 . S
H831 C841 0.929 . S
H832 C836 0.929 . S
H833 C842 0.929 . S
C834 H828 0.930 . S
C834 C835 1.367 . S
C834 C842 1.378 . S
C835 C834 1.367 . S
C835 C843 1.433 . S
C836 H832 0.929 . S
C836 C838 1.378 . S
C836 C840 1.350 . S
C837 C840 1.463 . S
C837 C842 1.350 . S
C837 N845 1.427 . S
C838 H829 0.930 . S
C838 C836 1.378 . S
C838 C839 1.367 . S
C839 C838 1.367 . S
C839 C841 1.433 . S
C840 C836 1.350 . S
C840 C837 1.463 . S
C840 N844 1.427 . S
C841 H831 0.929 . S
C841 C839 1.433 . S
C841 N844 1.384 . S
C842 H833 0.929 . S
C842 C834 1.378 . S
C842 C837 1.350 . S
C843 H830 0.929 . S
C843 C835 1.433 . S
C843 N845 1.384 . S
N844 C840 1.427 . S
N844 C841 1.384 . S
N845 C837 1.427 . S
N845 C843 1.384 . S
H846 C852 0.930 . S
H847 C856 0.930 . S
H848 C861 0.929 . S
H849 C859 0.929 . S
H850 C854 0.929 . S
H851 C860 0.929 . S
C852 H846 0.930 . S
C852 C853 1.367 . S
C852 C860 1.378 . S
C853 C852 1.367 . S
C853 C861 1.433 . S
C854 H850 0.929 . S
C854 C856 1.378 . S
C854 C858 1.350 . S
C855 C858 1.463 1_565 S
C855 C860 1.350 . S
C855 N863 1.427 1_565 S
C856 H847 0.930 . S
C856 C854 1.378 . S
C856 C857 1.367 . S
C857 C856 1.367 . S
C857 C859 1.433 . S
C858 C854 1.350 . S
C858 C855 1.463 1_545 S
C858 N862 1.427 1_545 S
C859 H849 0.929 . S
C859 C857 1.433 . S
C859 N862 1.384 1_545 S
C860 H851 0.929 . S
C860 C852 1.378 . S
C860 C855 1.350 . S
C861 H848 0.929 . S
C861 C853 1.433 . S
C861 N863 1.384 1_565 S
N862 C858 1.427 1_565 S
N862 C859 1.384 1_565 S
N863 C855 1.427 1_545 S
N863 C861 1.384 1_545 S
H864 C870 0.930 . S
H865 C874 0.930 . S
H866 C879 0.949 . S
H867 C877 0.949 . S
H868 C872 0.929 . S
H869 C878 0.929 . S
C870 H864 0.930 . S
C870 C871 1.367 . S
C870 C878 1.378 . S
C871 C870 1.367 . S
C871 C879 1.433 . S
C872 H868 0.929 . S
C872 C874 1.378 . S
C872 C876 1.350 . S
C873 C876 1.463 1_455 S
C873 C878 1.350 . S
C873 N881 1.427 1_455 S
C874 H865 0.930 . S
C874 C872 1.378 . S
C874 C875 1.367 . S
C875 C874 1.367 . S
C875 C877 1.433 . S
C876 C872 1.350 . S
C876 C873 1.463 1_655 S
C876 N880 1.427 1_655 S
C877 H867 0.949 . S
C877 C875 1.433 . S
C877 N880 1.384 1_655 S
C878 H869 0.929 . S
C878 C870 1.378 . S
C878 C873 1.350 . S
C879 H866 0.949 . S
C879 C871 1.433 . S
C879 N881 1.384 1_455 S
N880 C876 1.427 1_455 S
N880 C877 1.384 1_455 S
N881 C873 1.427 1_655 S
N881 C879 1.384 1_655 S
H882 C888 0.930 . S
H883 C892 0.930 . S
H884 C897 0.929 . S
H885 C895 0.929 . S
H886 C890 0.929 . S
H887 C896 0.929 . S
C888 H882 0.930 . S
C888 C889 1.367 . S
C888 C896 1.378 . S
C889 C888 1.367 . S
C889 C897 1.433 . S
C890 H886 0.929 . S
C890 C892 1.378 . S
C890 C894 1.350 . S
C891 C894 1.463 . S
C891 C896 1.350 . S
C891 N899 1.427 . S
C892 H883 0.930 . S
C892 C890 1.378 . S
C892 C893 1.367 . S
C893 C892 1.367 . S
C893 C895 1.433 . S
C894 C890 1.350 . S
C894 C891 1.463 . S
C894 N898 1.427 . S
C895 H885 0.929 . S
C895 C893 1.433 . S
C895 N898 1.384 . S
C896 H887 0.929 . S
C896 C888 1.378 . S
C896 C891 1.350 . S
C897 H884 0.929 . S
C897 C889 1.433 . S
C897 N899 1.384 . S
N898 C894 1.427 . S
N898 C895 1.384 . S
N899 C891 1.427 . S
N899 C897 1.384 . S
H900 C906 0.930 . S
H901 C910 0.930 . S
H902 C915 0.929 . S
H903 C913 0.929 . S
H904 C908 0.929 . S
H905 C914 0.929 . S
C906 H900 0.930 . S
C906 C907 1.367 . S
C906 C914 1.378 . S
C907 C906 1.367 . S
C907 C915 1.433 . S
C908 H904 0.929 . S
C908 C910 1.378 . S
C908 C912 1.350 . S
C909 C912 1.463 . S
C909 C914 1.350 . S
C909 N917 1.427 . S
C910 H901 0.930 . S
C910 C908 1.378 . S
C910 C911 1.367 . S
C911 C910 1.367 . S
C911 C913 1.433 . S
C912 C908 1.350 . S
C912 C909 1.463 . S
C912 N916 1.427 . S
C913 H903 0.929 . S
C913 C911 1.433 . S
C913 N916 1.384 . S
C914 H905 0.929 . S
C914 C906 1.378 . S
C914 C909 1.350 . S
C915 H902 0.929 . S
C915 C907 1.433 . S
C915 N917 1.384 . S
N916 C912 1.427 . S
N916 C913 1.384 . S
N917 C909 1.427 . S
N917 C915 1.384 . S
H918 C924 0.930 . S
H919 C928 0.927 . S
H920 C933 0.929 . S
H921 C931 0.929 . S
H922 C926 0.929 . S
H923 C932 0.929 . S
C924 H918 0.930 . S
C924 C925 1.367 . S
C924 C932 1.378 . S
C925 C924 1.367 . S
C925 C933 1.433 . S
C926 H922 0.929 . S
C926 C928 1.417 . S
C926 C930 1.350 . S
C927 C930 1.463 . S
C927 C932 1.350 . S
C927 N935 1.427 . S
C928 H919 0.927 . S
C928 C926 1.417 . S
C928 C929 1.333 1_545 S
C929 C928 1.333 1_565 S
C929 C931 1.433 . S
C930 C926 1.350 . S
C930 C927 1.463 . S
C930 N934 1.427 1_545 S
C931 H921 0.929 . S
C931 C929 1.433 . S
C931 N934 1.384 . S
C932 H923 0.929 . S
C932 C924 1.378 . S
C932 C927 1.350 . S
C933 H920 0.929 . S
C933 C925 1.433 . S
C933 N935 1.384 . S
N934 C930 1.427 1_565 S
N934 C931 1.384 . S
N935 C927 1.427 . S
N935 C933 1.384 . S
H936 C942 0.930 . S
H937 C946 0.958 . S
H938 C951 0.929 . S
H939 C949 0.929 . S
H940 C944 0.929 . S
H941 C950 0.929 . S
C942 H936 0.930 . S
C942 C943 1.367 . S
C942 C950 1.378 . S
C943 C942 1.367 . S
C943 C951 1.433 . S
C944 H940 0.929 . S
C944 C946 1.395 . S
C944 C948 1.350 . S
C945 C948 1.463 . S
C945 C950 1.350 . S
C945 N953 1.427 . S
C946 H937 0.958 . S
C946 C944 1.395 . S
C946 C947 1.323 1_655 S
C947 C946 1.323 1_455 S
C947 C949 1.433 . S
C948 C944 1.350 . S
C948 C945 1.463 . S
C948 N952 1.427 1_655 S
C949 H939 0.929 . S
C949 C947 1.433 . S
C949 N952 1.384 . S
C950 H941 0.929 . S
C950 C942 1.378 . S
C950 C945 1.350 . S
C951 H938 0.929 . S
C951 C943 1.433 . S
C951 N953 1.384 . S
N952 C948 1.427 1_455 S
N952 C949 1.384 . S
N953 C945 1.427 . S
N953 C951 1.384 . S
H954 C960 0.930 . S
H955 C964 0.930 . S
H956 C969 0.929 . S
H957 C967 0.929 . S
H958 C962 0.929 . S
H959 C968 0.929 . S
C960 H954 0.930 . S
C960 C961 1.367 . S
C960 C968 1.378 . S
C961 C960 1.367 . S
C961 C969 1.433 . S
C962 H958 0.929 . S
C962 C964 1.378 . S
C962 C966 1.350 . S
C963 C966 1.463 . S
C963 C968 1.350 . S
C963 N971 1.427 . S
C964 H955 0.930 . S
C964 C962 1.378 . S
C964 C965 1.367 . S
C965 C964 1.367 . S
C965 C967 1.433 . S
C966 C962 1.350 . S
C966 C963 1.463 . S
C966 N970 1.427 . S
C967 H957 0.929 . S
C967 C965 1.433 . S
C967 N970 1.384 . S
C968 H959 0.929 . S
C968 C960 1.378 . S
C968 C963 1.350 . S
C969 H956 0.929 . S
C969 C961 1.433 . S
C969 N971 1.384 . S
N970 C966 1.427 . S
N970 C967 1.384 . S
N971 C963 1.427 . S
N971 C969 1.384 . S
H972 C978 0.930 . S
H973 C982 0.930 . S
H974 C987 0.929 . S
H975 C985 0.929 . S
H976 C980 0.929 . S
H977 C986 0.929 . S
C978 H972 0.930 . S
C978 C979 1.367 . S
C978 C986 1.378 . S
C979 C978 1.367 . S
C979 C987 1.433 . S
C980 H976 0.929 . S
C980 C982 1.378 1_565 S
C980 C984 1.350 . S
C981 C984 1.463 . S
C981 C986 1.350 . S
C981 N989 1.427 . S
C982 H973 0.930 . S
C982 C980 1.378 1_545 S
C982 C983 1.367 . S
C983 C982 1.367 . S
C983 C985 1.433 . S
C984 C980 1.350 . S
C984 C981 1.463 . S
C984 N988 1.427 1_565 S
C985 H975 0.929 . S
C985 C983 1.433 . S
C985 N988 1.384 . S
C986 H977 0.929 . S
C986 C978 1.378 . S
C986 C981 1.350 . S
C987 H974 0.929 . S
C987 C979 1.433 . S
C987 N989 1.384 . S
N988 C984 1.427 1_545 S
N988 C985 1.384 . S
N989 C981 1.427 . S
N989 C987 1.384 . S
H990 C996 0.930 . S
H991 C1000 0.930 . S
H992 C1005 0.929 . S
H993 C1003 0.929 . S
H994 C998 0.929 . S
H995 C1004 0.929 . S
C996 H990 0.930 . S
C996 C997 1.367 . S
C996 C1004 1.378 . S
C997 C996 1.367 . S
C997 C1005 1.433 . S
C998 H994 0.929 . S
C998 C1000 1.378 . S
C998 C1002 1.350 . S
C999 C1002 1.463 . S
C999 C1004 1.350 1_455 S
C999 N1007 1.427 . S
C1000 H991 0.930 . S
C1000 C998 1.378 . S
C1000 C1001 1.367 . S
C1001 C1000 1.367 . S
C1001 C1003 1.433 . S
C1002 C998 1.350 . S
C1002 C999 1.463 . S
C1002 N1006 1.427 . S
C1003 H993 0.929 . S
C1003 C1001 1.433 . S
C1003 N1006 1.384 . S
C1004 H995 0.929 . S
C1004 C996 1.378 . S
C1004 C999 1.350 1_655 S
C1005 H992 0.929 . S
C1005 C997 1.433 . S
C1005 N1007 1.384 1_655 S
N1006 C1002 1.427 . S
N1006 C1003 1.384 . S
N1007 C999 1.427 . S
N1007 C1005 1.384 1_455 S
H1008 C1014 0.930 . S
H1009 C1018 0.930 1_455 S
H1010 C1023 0.929 . S
H1011 C1021 0.929 . S
H1012 C1016 0.929 . S
H1013 C1022 0.929 . S
C1014 H1008 0.930 . S
C1014 C1015 1.367 . S
C1014 C1022 1.378 . S
C1015 C1014 1.367 . S
C1015 C1023 1.433 . S
C1016 H1012 0.929 . S
C1016 C1018 1.378 . S
C1016 C1020 1.350 . S
C1017 C1020 1.463 . S
C1017 C1022 1.350 . S
C1017 N1025 1.427 . S
C1018 H1009 0.930 1_655 S
C1018 C1016 1.378 . S
C1018 C1019 1.367 . S
C1019 C1018 1.367 . S
C1019 C1021 1.433 . S
C1020 C1016 1.350 . S
C1020 C1017 1.463 . S
C1020 N1024 1.427 . S
C1021 H1011 0.929 . S
C1021 C1019 1.433 . S
C1021 N1024 1.384 . S
C1022 H1013 0.929 . S
C1022 C1014 1.378 . S
C1022 C1017 1.350 . S
C1023 H1010 0.929 . S
C1023 C1015 1.433 . S
C1023 N1025 1.384 . S
N1024 C1020 1.427 . S
N1024 C1021 1.384 . S
N1025 C1017 1.427 . S
N1025 C1023 1.384 . S
H1026 C1032 0.930 . S
H1027 C1036 0.930 . S
H1028 C1041 0.929 . S
H1029 C1039 0.929 . S
H1030 C1034 0.929 . S
H1031 C1040 0.929 . S
C1032 H1026 0.930 . S
C1032 C1033 1.367 . S
C1032 C1040 1.378 . S
C1033 C1032 1.367 . S
C1033 C1041 1.433 . S
C1034 H1030 0.929 . S
C1034 C1036 1.378 . S
C1034 C1038 1.350 . S
C1035 C1038 1.463 . S
C1035 C1040 1.350 . S
C1035 N1043 1.427 . S
C1036 H1027 0.930 . S
C1036 C1034 1.378 . S
C1036 C1037 1.367 . S
C1037 C1036 1.367 . S
C1037 C1039 1.433 . S
C1038 C1034 1.350 . S
C1038 C1035 1.463 . S
C1038 N1042 1.427 . S
C1039 H1029 0.929 . S
C1039 C1037 1.433 . S
C1039 N1042 1.384 . S
C1040 H1031 0.929 . S
C1040 C1032 1.378 . S
C1040 C1035 1.350 . S
C1041 H1028 0.929 . S
C1041 C1033 1.433 . S
C1041 N1043 1.384 . S
N1042 C1038 1.427 . S
N1042 C1039 1.384 . S
N1043 C1035 1.427 . S
N1043 C1041 1.384 . S
H1044 C1050 0.930 . S
H1045 C1054 0.930 1_565 S
H1046 C1059 0.929 . S
H1047 C1057 0.929 . S
H1048 C1052 0.929 . S
H1049 C1058 0.929 . S
C1050 H1044 0.930 . S
C1050 C1051 1.367 . S
C1050 C1058 1.378 . S
C1051 C1050 1.367 . S
C1051 C1059 1.433 . S
C1052 H1048 0.929 . S
C1052 C1054 1.378 . S
C1052 C1056 1.350 . S
C1053 C1056 1.463 . S
C1053 C1058 1.350 . S
C1053 N1061 1.427 . S
C1054 H1045 0.930 1_545 S
C1054 C1052 1.378 . S
C1054 C1055 1.367 . S
C1055 C1054 1.367 . S
C1055 C1057 1.433 . S
C1056 C1052 1.350 . S
C1056 C1053 1.463 . S
C1056 N1060 1.427 . S
C1057 H1047 0.929 . S
C1057 C1055 1.433 . S
C1057 N1060 1.384 . S
C1058 H1049 0.929 . S
C1058 C1050 1.378 . S
C1058 C1053 1.350 . S
C1059 H1046 0.929 . S
C1059 C1051 1.433 . S
C1059 N1061 1.384 . S
N1060 C1056 1.427 . S
N1060 C1057 1.384 . S
N1061 C1053 1.427 . S
N1061 C1059 1.384 . S
H1062 C1068 0.930 . S
H1063 C1072 0.930 . S
H1064 C1077 0.929 . S
H1065 C1075 0.929 . S
H1066 C1070 0.929 . S
H1067 C1076 0.929 . S
C1068 H1062 0.930 . S
C1068 C1069 1.367 1_554 S
C1068 C1076 1.378 . S
C1069 C1068 1.367 1_556 S
C1069 C1077 1.433 . S
C1070 H1066 0.929 . S
C1070 C1072 1.378 . S
C1070 C1074 1.350 . S
C1071 C1074 1.463 . S
C1071 C1076 1.350 . S
C1071 N1079 1.427 1_554 S
C1072 H1063 0.930 . S
C1072 C1070 1.378 . S
C1072 C1073 1.367 . S
C1073 C1072 1.367 . S
C1073 C1075 1.433 . S
C1074 C1070 1.350 . S
C1074 C1071 1.463 . S
C1074 N1078 1.427 . S
C1075 H1065 0.929 . S
C1075 C1073 1.433 . S
C1075 N1078 1.384 . S
C1076 H1067 0.929 . S
C1076 C1068 1.378 . S
C1076 C1071 1.350 . S
C1077 H1064 0.929 . S
C1077 C1069 1.433 . S
C1077 N1079 1.384 . S
N1078 C1074 1.427 . S
N1078 C1075 1.384 . S
N1079 C1071 1.427 1_556 S
N1079 C1077 1.384 . S
H1080 C1086 0.930 . S
H1081 C1090 0.930 . S
H1082 C1095 0.929 . S
H1083 C1093 0.929 . S
H1084 C1088 0.929 . S
H1085 C1094 0.929 . S
C1086 H1080 0.930 . S
C1086 C1087 1.367 . S
C1086 C1094 1.378 . S
C1087 C1086 1.367 . S
C1087 C1095 1.433 1_556 S
C1088 H1084 0.929 . S
C1088 C1090 1.378 . S
C1088 C1092 1.350 . S
C1089 C1092 1.463 . S
C1089 C1094 1.350 1_554 S
C1089 N1097 1.427 . S
C1090 H1081 0.930 . S
C1090 C1088 1.378 . S
C1090 C1091 1.367 . S
C1091 C1090 1.367 . S
C1091 C1093 1.433 . S
C1092 C1088 1.350 . S
C1092 C1089 1.463 . S
C1092 N1096 1.427 . S
C1093 H1083 0.929 . S
C1093 C1091 1.433 . S
C1093 N1096 1.384 . S
C1094 H1085 0.929 . S
C1094 C1086 1.378 . S
C1094 C1089 1.350 1_556 S
C1095 H1082 0.929 . S
C1095 C1087 1.433 1_554 S
C1095 N1097 1.384 . S
N1096 C1092 1.427 . S
N1096 C1093 1.384 . S
N1097 C1089 1.427 . S
N1097 C1095 1.384 . S
H1098 C1104 0.930 . S
H1099 C1108 0.930 . S
H1100 C1113 0.929 . S
H1101 C1111 0.929 . S
H1102 C1106 0.929 . S
H1103 C1112 0.929 . S
C1104 H1098 0.930 . S
C1104 C1105 1.367 . S
C1104 C1112 1.378 . S
C1105 C1104 1.367 . S
C1105 C1113 1.433 1_556 S
C1106 H1102 0.929 . S
C1106 C1108 1.378 . S
C1106 C1110 1.350 . S
C1107 C1110 1.463 . S
C1107 C1112 1.350 1_554 S
C1107 N1115 1.427 . S
C1108 H1099 0.930 . S
C1108 C1106 1.378 . S
C1108 C1109 1.367 . S
C1109 C1108 1.367 . S
C1109 C1111 1.433 . S
C1110 C1106 1.350 . S
C1110 C1107 1.463 . S
C1110 N1114 1.427 . S
C1111 H1101 0.929 . S
C1111 C1109 1.433 . S
C1111 N1114 1.384 . S
C1112 H1103 0.929 . S
C1112 C1104 1.378 . S
C1112 C1107 1.350 1_556 S
C1113 H1100 0.929 . S
C1113 C1105 1.433 1_554 S
C1113 N1115 1.384 . S
N1114 C1110 1.427 . S
N1114 C1111 1.384 . S
N1115 C1107 1.427 . S
N1115 C1113 1.384 . S
H1116 C1122 0.930 . S
H1117 C1126 0.930 . S
H1118 C1131 0.929 . S
H1119 C1129 0.929 . S
H1120 C1124 0.929 . S
H1121 C1130 0.929 1_554 S
C1122 H1116 0.930 . S
C1122 C1123 1.367 . S
C1122 C1130 1.378 . S
C1123 C1122 1.367 . S
C1123 C1131 1.433 . S
C1124 H1120 0.929 . S
C1124 C1126 1.378 . S
C1124 C1128 1.350 . S
C1125 C1128 1.463 . S
C1125 C1130 1.350 . S
C1125 N1133 1.427 . S
C1126 H1117 0.930 . S
C1126 C1124 1.378 . S
C1126 C1127 1.367 1_556 S
C1127 C1126 1.367 1_554 S
C1127 C1129 1.433 . S
C1128 C1124 1.350 . S
C1128 C1125 1.463 . S
C1128 N1132 1.427 1_556 S
C1129 H1119 0.929 . S
C1129 C1127 1.433 . S
C1129 N1132 1.384 . S
C1130 H1121 0.929 1_556 S
C1130 C1122 1.378 . S
C1130 C1125 1.350 . S
C1131 H1118 0.929 . S
C1131 C1123 1.433 . S
C1131 N1133 1.384 . S
N1132 C1128 1.427 1_554 S
N1132 C1129 1.384 . S
N1133 C1125 1.427 . S
N1133 C1131 1.384 . S
H1134 C1140 0.930 . S
H1135 C1144 0.930 . S
H1136 C1149 0.929 . S
H1137 C1147 0.929 . S
H1138 C1142 0.929 . S
H1139 C1148 0.929 . S
C1140 H1134 0.930 . S
C1140 C1141 1.367 . S
C1140 C1148 1.378 . S
C1141 C1140 1.367 . S
C1141 C1149 1.433 . S
C1142 H1138 0.929 . S
C1142 C1144 1.378 . S
C1142 C1146 1.350 1_554 S
C1143 C1146 1.463 . S
C1143 C1148 1.350 . S
C1143 N1151 1.427 . S
C1144 H1135 0.930 . S
C1144 C1142 1.378 . S
C1144 C1145 1.367 . S
C1145 C1144 1.367 . S
C1145 C1147 1.433 1_554 S
C1146 C1142 1.350 1_556 S
C1146 C1143 1.463 . S
C1146 N1150 1.427 . S
C1147 H1137 0.929 . S
C1147 C1145 1.433 1_556 S
C1147 N1150 1.384 . S
C1148 H1139 0.929 . S
C1148 C1140 1.378 . S
C1148 C1143 1.350 . S
C1149 H1136 0.929 . S
C1149 C1141 1.433 . S
C1149 N1151 1.384 . S
N1150 C1146 1.427 . S
N1150 C1147 1.384 . S
N1151 C1143 1.427 . S
N1151 C1149 1.384 . S
H1152 C1158 0.930 . S
H1153 C1162 0.930 . S
H1154 C1167 0.929 . S
H1155 C1165 0.929 . S
H1156 C1160 0.929 . S
H1157 C1166 0.929 . S
C1158 H1152 0.930 . S
C1158 C1159 1.367 . S
C1158 C1166 1.378 . S
C1159 C1158 1.367 . S
C1159 C1167 1.433 1_554 S
C1160 H1156 0.929 . S
C1160 C1162 1.378 . S
C1160 C1164 1.350 . S
C1161 C1164 1.463 . S
C1161 C1166 1.350 1_556 S
C1161 N1169 1.427 . S
C1162 H1153 0.930 . S
C1162 C1160 1.378 . S
C1162 C1163 1.367 . S
C1163 C1162 1.367 . S
C1163 C1165 1.433 . S
C1164 C1160 1.350 . S
C1164 C1161 1.463 . S
C1164 N1168 1.427 . S
C1165 H1155 0.929 . S
C1165 C1163 1.433 . S
C1165 N1168 1.384 . S
C1166 H1157 0.929 . S
C1166 C1158 1.378 . S
C1166 C1161 1.350 1_554 S
C1167 H1154 0.929 . S
C1167 C1159 1.433 1_556 S
C1167 N1169 1.384 . S
N1168 C1164 1.427 . S
N1168 C1165 1.384 . S
N1169 C1161 1.427 . S
N1169 C1167 1.384 . S
H1170 C1176 0.930 1_655 S
H1171 C1180 0.930 . S
H1172 C1185 0.929 . S
H1173 C1183 0.929 . S
H1174 C1178 0.929 . S
H1175 C1184 0.929 . S
C1176 H1170 0.930 1_455 S
C1176 C1177 1.367 . S
C1176 C1184 1.378 . S
C1177 C1176 1.367 . S
C1177 C1185 1.433 . S
C1178 H1174 0.929 . S
C1178 C1180 1.378 . S
C1178 C1182 1.350 . S
C1179 C1182 1.463 . S
C1179 C1184 1.350 . S
C1179 N1187 1.427 . S
C1180 H1171 0.930 . S
C1180 C1178 1.378 . S
C1180 C1181 1.367 . S
C1181 C1180 1.367 . S
C1181 C1183 1.433 . S
C1182 C1178 1.350 . S
C1182 C1179 1.463 . S
C1182 N1186 1.427 . S
C1183 H1173 0.929 . S
C1183 C1181 1.433 . S
C1183 N1186 1.384 . S
C1184 H1175 0.929 . S
C1184 C1176 1.378 . S
C1184 C1179 1.350 . S
C1185 H1172 0.929 . S
C1185 C1177 1.433 . S
C1185 N1187 1.384 . S
N1186 C1182 1.427 . S
N1186 C1183 1.384 . S
N1187 C1179 1.427 . S
N1187 C1185 1.384 . S
H1188 C1194 0.930 . S
H1189 C1198 0.930 . S
H1190 C1203 0.929 . S
H1191 C1201 0.929 . S
H1192 C1196 0.929 . S
H1193 C1202 0.929 . S
C1194 H1188 0.930 . S
C1194 C1195 1.367 . S
C1194 C1202 1.378 . S
C1195 C1194 1.367 . S
C1195 C1203 1.433 . S
C1196 H1192 0.929 . S
C1196 C1198 1.378 . S
C1196 C1200 1.350 . S
C1197 C1200 1.463 . S
C1197 C1202 1.350 . S
C1197 N1205 1.427 . S
C1198 H1189 0.930 . S
C1198 C1196 1.378 . S
C1198 C1199 1.367 . S
C1199 C1198 1.367 . S
C1199 C1201 1.433 . S
C1200 C1196 1.350 . S
C1200 C1197 1.463 . S
C1200 N1204 1.427 . S
C1201 H1191 0.929 . S
C1201 C1199 1.433 . S
C1201 N1204 1.384 . S
C1202 H1193 0.929 . S
C1202 C1194 1.378 . S
C1202 C1197 1.350 . S
C1203 H1190 0.929 . S
C1203 C1195 1.433 . S
C1203 N1205 1.384 . S
N1204 C1200 1.427 . S
N1204 C1201 1.384 . S
N1205 C1197 1.427 . S
N1205 C1203 1.384 . S
H1206 C1212 0.930 1_545 S
H1207 C1216 0.930 . S
H1208 C1221 0.929 . S
H1209 C1219 0.929 . S
H1210 C1214 0.929 . S
H1211 C1220 0.929 . S
C1212 H1206 0.930 1_565 S
C1212 C1213 1.367 . S
C1212 C1220 1.378 . S
C1213 C1212 1.367 . S
C1213 C1221 1.433 . S
C1214 H1210 0.929 . S
C1214 C1216 1.378 . S
C1214 C1218 1.350 . S
C1215 C1218 1.463 . S
C1215 C1220 1.350 . S
C1215 N1223 1.427 . S
C1216 H1207 0.930 . S
C1216 C1214 1.378 . S
C1216 C1217 1.367 . S
C1217 C1216 1.367 . S
C1217 C1219 1.433 . S
C1218 C1214 1.350 . S
C1218 C1215 1.463 . S
C1218 N1222 1.427 . S
C1219 H1209 0.929 . S
C1219 C1217 1.433 . S
C1219 N1222 1.384 . S
C1220 H1211 0.929 . S
C1220 C1212 1.378 . S
C1220 C1215 1.350 . S
C1221 H1208 0.929 . S
C1221 C1213 1.433 . S
C1221 N1223 1.384 . S
N1222 C1218 1.427 . S
N1222 C1219 1.384 . S
N1223 C1215 1.427 . S
N1223 C1221 1.384 . S
H1224 C1230 0.930 . S
H1225 C1234 0.930 . S
H1226 C1239 0.929 . S
H1227 C1237 0.929 . S
H1228 C1232 0.929 . S
H1229 C1238 0.929 . S
C1230 H1224 0.930 . S
C1230 C1231 1.367 . S
C1230 C1238 1.378 . S
C1231 C1230 1.367 . S
C1231 C1239 1.433 . S
C1232 H1228 0.929 . S
C1232 C1234 1.378 . S
C1232 C1236 1.350 . S
C1233 C1236 1.463 . S
C1233 C1238 1.350 . S
C1233 N1241 1.427 . S
C1234 H1225 0.930 . S
C1234 C1232 1.378 . S
C1234 C1235 1.367 . S
C1235 C1234 1.367 . S
C1235 C1237 1.433 . S
C1236 C1232 1.350 . S
C1236 C1233 1.463 . S
C1236 N1240 1.427 . S
C1237 H1227 0.929 . S
C1237 C1235 1.433 . S
C1237 N1240 1.384 . S
C1238 H1229 0.929 . S
C1238 C1230 1.378 . S
C1238 C1233 1.350 . S
C1239 H1226 0.929 . S
C1239 C1231 1.433 . S
C1239 N1241 1.384 . S
N1240 C1236 1.427 . S
N1240 C1237 1.384 . S
N1241 C1233 1.427 . S
N1241 C1239 1.384 . S
H1242 C1248 0.930 . S
H1243 C1252 0.930 . S
H1244 C1257 0.929 . S
H1245 C1255 0.929 . S
H1246 C1250 0.929 . S
H1247 C1256 0.929 . S
C1248 H1242 0.930 . S
C1248 C1249 1.367 . S
C1248 C1256 1.378 . S
C1249 C1248 1.367 . S
C1249 C1257 1.433 . S
C1250 H1246 0.929 . S
C1250 C1252 1.378 . S
C1250 C1254 1.350 . S
C1251 C1254 1.463 . S
C1251 C1256 1.350 . S
C1251 N1259 1.427 . S
C1252 H1243 0.930 . S
C1252 C1250 1.378 . S
C1252 C1253 1.367 . S
C1253 C1252 1.367 . S
C1253 C1255 1.433 . S
C1254 C1250 1.350 . S
C1254 C1251 1.463 . S
C1254 N1258 1.427 . S
C1255 H1245 0.929 . S
C1255 C1253 1.433 . S
C1255 N1258 1.384 . S
C1256 H1247 0.929 . S
C1256 C1248 1.378 . S
C1256 C1251 1.350 . S
C1257 H1244 0.929 . S
C1257 C1249 1.433 . S
C1257 N1259 1.384 . S
N1258 C1254 1.427 . S
N1258 C1255 1.384 . S
N1259 C1251 1.427 . S
N1259 C1257 1.384 . S
H1260 C1266 0.930 . S
H1261 C1270 0.930 . S
H1262 C1275 0.929 . S
H1263 C1273 0.929 . S
H1264 C1268 0.929 . S
H1265 C1274 0.929 . S
C1266 H1260 0.930 . S
C1266 C1267 1.367 . S
C1266 C1274 1.378 . S
C1267 C1266 1.367 . S
C1267 C1275 1.433 . S
C1268 H1264 0.929 . S
C1268 C1270 1.378 . S
C1268 C1272 1.350 . S
C1269 C1272 1.463 . S
C1269 C1274 1.350 . S
C1269 N1277 1.427 . S
C1270 H1261 0.930 . S
C1270 C1268 1.378 . S
C1270 C1271 1.367 . S
C1271 C1270 1.367 . S
C1271 C1273 1.433 . S
C1272 C1268 1.350 . S
C1272 C1269 1.463 . S
C1272 N1276 1.427 . S
C1273 H1263 0.929 . S
C1273 C1271 1.433 . S
C1273 N1276 1.384 . S
C1274 H1265 0.929 . S
C1274 C1266 1.378 . S
C1274 C1269 1.350 . S
C1275 H1262 0.929 . S
C1275 C1267 1.433 . S
C1275 N1277 1.384 . S
N1276 C1272 1.427 . S
N1276 C1273 1.384 . S
N1277 C1269 1.427 . S
N1277 C1275 1.384 . S
H1278 C1284 0.930 . S
H1279 C1288 0.930 . S
H1280 C1293 0.929 . S
H1281 C1291 0.929 . S
H1282 C1286 0.929 . S
H1283 C1292 0.929 . S
C1284 H1278 0.930 . S
C1284 C1285 1.367 . S
C1284 C1292 1.378 . S
C1285 C1284 1.367 . S
C1285 C1293 1.433 . S
C1286 H1282 0.929 . S
C1286 C1288 1.378 . S
C1286 C1290 1.350 . S
C1287 C1290 1.463 . S
C1287 C1292 1.350 . S
C1287 N1295 1.427 . S
C1288 H1279 0.930 . S
C1288 C1286 1.378 . S
C1288 C1289 1.367 . S
C1289 C1288 1.367 . S
C1289 C1291 1.433 . S
C1290 C1286 1.350 . S
C1290 C1287 1.463 . S
C1290 N1294 1.427 . S
C1291 H1281 0.929 . S
C1291 C1289 1.433 . S
C1291 N1294 1.384 . S
C1292 H1283 0.929 . S
C1292 C1284 1.378 . S
C1292 C1287 1.350 . S
C1293 H1280 0.929 . S
C1293 C1285 1.433 . S
C1293 N1295 1.384 . S
N1294 C1290 1.427 . S
N1294 C1291 1.384 . S
N1295 C1287 1.427 . S
N1295 C1293 1.384 . S
H1296 C1302 0.930 . S
H1297 C1306 0.930 . S
H1298 C1311 0.929 . S
H1299 C1309 0.929 . S
H1300 C1304 0.929 . S
H1301 C1310 0.929 . S
C1302 H1296 0.930 . S
C1302 C1303 1.367 . S
C1302 C1310 1.378 . S
C1303 C1302 1.367 . S
C1303 C1311 1.433 . S
C1304 H1300 0.929 . S
C1304 C1306 1.378 . S
C1304 C1308 1.350 . S
C1305 C1308 1.463 . S
C1305 C1310 1.350 . S
C1305 N1313 1.427 . S
C1306 H1297 0.930 . S
C1306 C1304 1.378 . S
C1306 C1307 1.367 . S
C1307 C1306 1.367 . S
C1307 C1309 1.433 . S
C1308 C1304 1.350 . S
C1308 C1305 1.463 . S
C1308 N1312 1.427 . S
C1309 H1299 0.929 . S
C1309 C1307 1.433 . S
C1309 N1312 1.384 . S
C1310 H1301 0.929 . S
C1310 C1302 1.378 . S
C1310 C1305 1.350 . S
C1311 H1298 0.929 . S
C1311 C1303 1.433 . S
C1311 N1313 1.384 . S
N1312 C1308 1.427 . S
N1312 C1309 1.384 . S
N1313 C1305 1.427 . S
N1313 C1311 1.384 . S
H1314 C1320 0.930 . S
H1315 C1324 0.930 . S
H1316 C1329 0.929 . S
H1317 C1327 0.929 . S
H1318 C1322 0.929 . S
H1319 C1328 0.929 . S
C1320 H1314 0.930 . S
C1320 C1321 1.367 . S
C1320 C1328 1.378 . S
C1321 C1320 1.367 . S
C1321 C1329 1.433 . S
C1322 H1318 0.929 . S
C1322 C1324 1.378 . S
C1322 C1326 1.350 . S
C1323 C1326 1.463 . S
C1323 C1328 1.350 . S
C1323 N1331 1.427 . S
C1324 H1315 0.930 . S
C1324 C1322 1.378 . S
C1324 C1325 1.367 . S
C1325 C1324 1.367 . S
C1325 C1327 1.433 . S
C1326 C1322 1.350 . S
C1326 C1323 1.463 . S
C1326 N1330 1.427 . S
C1327 H1317 0.929 . S
C1327 C1325 1.433 . S
C1327 N1330 1.384 . S
C1328 H1319 0.929 . S
C1328 C1320 1.378 . S
C1328 C1323 1.350 . S
C1329 H1316 0.929 . S
C1329 C1321 1.433 . S
C1329 N1331 1.384 . S
N1330 C1326 1.427 . S
N1330 C1327 1.384 . S
N1331 C1323 1.427 . S
N1331 C1329 1.384 . S
H1332 C1338 0.930 . S
H1333 C1342 0.930 . S
H1334 C1347 0.929 . S
H1335 C1345 0.929 . S
H1336 C1340 0.929 . S
H1337 C1346 0.929 . S
C1338 H1332 0.930 . S
C1338 C1339 1.367 . S
C1338 C1346 1.378 . S
C1339 C1338 1.367 . S
C1339 C1347 1.433 1_545 S
C1340 H1336 0.929 . S
C1340 C1342 1.378 . S
C1340 C1344 1.350 . S
C1341 C1344 1.463 1_544 S
C1341 C1346 1.350 . S
C1341 N1349 1.427 1_545 S
C1342 H1333 0.930 . S
C1342 C1340 1.378 . S
C1342 C1343 1.367 . S
C1343 C1342 1.367 . S
C1343 C1345 1.433 1_565 S
C1344 C1340 1.350 . S
C1344 C1341 1.463 1_566 S
C1344 N1348 1.427 1_565 S
C1345 H1335 0.929 . S
C1345 C1343 1.433 1_545 S
C1345 N1348 1.384 . S
C1346 H1337 0.929 . S
C1346 C1338 1.378 . S
C1346 C1341 1.350 . S
C1347 H1334 0.929 . S
C1347 C1339 1.433 1_565 S
C1347 N1349 1.384 . S
N1348 C1344 1.427 1_545 S
N1348 C1345 1.384 . S
N1349 C1341 1.427 1_565 S
N1349 C1347 1.384 . S
H1350 C1356 0.930 . S
H1351 C1360 0.930 . S
H1352 C1365 0.929 . S
H1353 C1363 0.929 . S
H1354 C1358 0.915 1_554 S
H1355 C1364 0.915 1_556 S
C1356 H1350 0.930 . S
C1356 C1357 1.367 . S
C1356 C1364 1.378 . S
C1357 C1356 1.367 . S
C1357 C1365 1.433 1_655 S
C1358 H1354 0.915 1_556 S
C1358 C1360 1.378 . S
C1358 C1362 1.350 . S
C1359 C1362 1.463 1_654 S
C1359 C1364 1.350 . S
C1359 N1367 1.427 1_655 S
C1360 H1351 0.930 . S
C1360 C1358 1.378 . S
C1360 C1361 1.367 . S
C1361 C1360 1.367 . S
C1361 C1363 1.433 1_455 S
C1362 C1358 1.350 . S
C1362 C1359 1.463 1_456 S
C1362 N1366 1.427 1_455 S
C1363 H1353 0.929 . S
C1363 C1361 1.433 1_655 S
C1363 N1366 1.384 . S
C1364 H1355 0.915 1_554 S
C1364 C1356 1.378 . S
C1364 C1359 1.350 . S
C1365 H1352 0.929 . S
C1365 C1357 1.433 1_455 S
C1365 N1367 1.384 . S
N1366 C1362 1.427 1_655 S
N1366 C1363 1.384 . S
N1367 C1359 1.427 1_455 S
N1367 C1365 1.384 . S
H1368 C1374 0.930 . S
H1369 C1378 0.930 . S
H1370 C1383 0.929 . S
H1371 C1381 0.929 . S
H1372 C1376 0.929 . S
H1373 C1382 0.929 . S
C1374 H1368 0.930 . S
C1374 C1375 1.367 . S
C1374 C1382 1.378 . S
C1375 C1374 1.367 . S
C1375 C1383 1.433 . S
C1376 H1372 0.929 . S
C1376 C1378 1.378 . S
C1376 C1380 1.350 . S
C1377 C1380 1.463 1_556 S
C1377 C1382 1.350 . S
C1377 N1385 1.427 . S
C1378 H1369 0.930 . S
C1378 C1376 1.378 . S
C1378 C1379 1.367 . S
C1379 C1378 1.367 . S
C1379 C1381 1.433 . S
C1380 C1376 1.350 . S
C1380 C1377 1.463 1_554 S
C1380 N1384 1.427 . S
C1381 H1371 0.929 . S
C1381 C1379 1.433 . S
C1381 N1384 1.384 . S
C1382 H1373 0.929 . S
C1382 C1374 1.378 . S
C1382 C1377 1.350 . S
C1383 H1370 0.929 . S
C1383 C1375 1.433 . S
C1383 N1385 1.384 . S
N1384 C1380 1.427 . S
N1384 C1381 1.384 . S
N1385 C1377 1.427 . S
N1385 C1383 1.384 . S
C421 C110 1.249 . S
C425 C20 1.274 1_556 S
C439 C43 1.269 1_556 S
C443 C133 1.242 . S
C457 C87 1.244 . S
C461 C66 1.268 1_556 S
C475 C89 1.272 . S
C479 C41 1.255 . S
C493 C112 1.274 . S
C497 C64 1.255 . S
C511 C18 1.252 . S
C515 C135 1.269 1_554 S
C529 C158 1.271 . S
C533 C248 1.254 . S
C547 C271 1.240 . S
C551 C181 1.271 . S
C565 C225 1.241 . S
C569 C204 1.271 . S
C583 C227 1.273 . S
C587 C179 1.243 . S
C601 C202 1.253 . S
C605 C250 1.274 . S
C619 C273 1.269 . S
C623 C156 1.247 . S
C637 C386 1.253 . S
C641 C296 1.271 . S
C655 C319 1.269 . S
C659 C409 1.243 . S
C673 C363 1.251 . S
C677 C342 1.270 . S
C691 C317 1.248 . S
C695 C365 1.269 . S
C709 C388 1.272 . S
C713 C340 1.255 . S
C727 C294 1.246 . S
C731 C411 1.274 . S
C745 C16 1.153 . S
C749 C361 1.153 . S
C763 C39 1.145 . S
C767 C384 1.145 . S
C781 C407 1.155 . S
C785 C62 1.155 . S
C799 C85 1.146 . S
C803 C154 1.146 . S
C817 C108 1.142 . S
C821 C177 1.142 . S
C835 C200 1.155 . S
C839 C131 1.155 . S
C853 C292 1.154 . S
C857 C223 1.154 . S
C871 C315 1.150 . S
C875 C246 1.150 . S
C889 C338 1.148 . S
C893 C269 1.148 . S
C907 C17 1.364 . S
C911 C182 1.415 . S
C925 C205 1.418 . S
C929 C40 1.371 . S
C943 C159 1.419 . S
C947 C63 1.373 . S
C961 C86 1.379 . S
C965 C389 1.421 . S
C979 C412 1.416 . S
C983 C109 1.364 . S
C997 C132 1.378 . S
C1001 C366 1.420 . S
C1015 C155 1.377 . S
C1019 C320 1.421 1_655 S
C1033 C178 1.365 . S
C1037 C343 1.416 . S
C1051 C201 1.380 . S
C1055 C297 1.421 1_545 S
C1069 C113 1.421 . S
C1073 C224 1.380 . S
C1087 C136 1.417 . S
C1091 C247 1.367 . S
C1105 C90 1.418 . S
C1109 C270 1.369 . S
C1123 C293 1.379 . S
C1127 C44 1.421 . S
C1141 C316 1.366 . S
C1145 C67 1.417 . S
C1159 C21 1.416 . S
C1163 C339 1.365 . S
C1177 C251 1.421 1_455 S
C1181 C362 1.379 . S
C1195 C385 1.364 . S
C1199 C274 1.415 . S
C1213 C228 1.421 1_565 S
C1217 C408 1.379 . S
C1231 C19 1.408 . S
C1235 C364 1.408 . S
C1249 C42 1.409 . S
C1253 C387 1.409 . S
C1267 C65 1.399 . S
C1271 C410 1.399 . S
C1285 C157 1.409 . S
C1289 C88 1.409 . S
C1303 C111 1.398 . S
C1307 C180 1.398 . S
C1321 C203 1.398 . S
C1325 C134 1.398 . S
C1339 C226 1.399 . S
C1343 C295 1.399 . S
C1357 C249 1.403 . S
C1361 C318 1.403 . S
C1375 C341 1.410 . S
C1379 C272 1.410 . S
