# Generated by pormake.
# Topology pcu-i, (5)-cn, num edge types: 1
# Building blocks:
#     Node 0, Type 0, BuildingBlock: BEQFEK_clean_sbu_0, # of connection points: 5
#     Node 1, Type 0, BuildingBlock: BEQFEK_clean_sbu_0, # of connection points: 5
#     Node 2, Type 0, BuildingBlock: BEQFEK_clean_sbu_0, # of connection points: 5
#     Node 3, Type 0, BuildingBlock: BEQFEK_clean_sbu_0, # of connection points: 5
#     Node 4, Type 0, BuildingBlock: BEQFEK_clean_sbu_0, # of connection points: 5
#     Node 5, Type 0, BuildingBlock: BEQFEK_clean_sbu_0, # of connection points: 5
#     Node 6, Type 0, BuildingBlock: BEQFEK_clean_sbu_0, # of connection points: 5
#     Node 7, Type 0, BuildingBlock: BEQFEK_clean_sbu_0, # of connection points: 5
#     Node 8, Type 0, BuildingBlock: BEQFEK_clean_sbu_0, # of connection points: 5
#     Node 9, Type 0, BuildingBlock: BEQFEK_clean_sbu_0, # of connection points: 5
#     Node 10, Type 0, BuildingBlock: BEQFEK_clean_sbu_0, # of connection points: 5
#     Node 11, Type 0, BuildingBlock: BEQFEK_clean_sbu_0, # of connection points: 5
#     Node 12, Type 0, BuildingBlock: BEQFEK_clean_sbu_0, # of connection points: 5
#     Node 13, Type 0, BuildingBlock: BEQFEK_clean_sbu_0, # of connection points: 5
#     Node 14, Type 0, BuildingBlock: BEQFEK_clean_sbu_0, # of connection points: 5
#     Node 15, Type 0, BuildingBlock: BEQFEK_clean_sbu_0, # of connection points: 5
#     Node 16, Type 0, BuildingBlock: BEQFEK_clean_sbu_0, # of connection points: 5
#     Node 17, Type 0, BuildingBlock: BEQFEK_clean_sbu_0, # of connection points: 5
#     Node 18, Type 0, BuildingBlock: BEQFEK_clean_sbu_0, # of connection points: 5
#     Node 19, Type 0, BuildingBlock: BEQFEK_clean_sbu_0, # of connection points: 5
#     Node 20, Type 0, BuildingBlock: BEQFEK_clean_sbu_0, # of connection points: 5
#     Node 21, Type 0, BuildingBlock: BEQFEK_clean_sbu_0, # of connection points: 5
#     Node 22, Type 0, BuildingBlock: BEQFEK_clean_sbu_0, # of connection points: 5
#     Node 23, Type 0, BuildingBlock: BEQFEK_clean_sbu_0, # of connection points: 5
#     Edge 24, Type (0, 0), BuildingBlock: XUDNAN_clean_linker_2, # of connection points: 2
#     Edge 25, Type (0, 0), BuildingBlock: XUDNAN_clean_linker_2, # of connection points: 2
#     Edge 26, Type (0, 0), BuildingBlock: XUDNAN_clean_linker_2, # of connection points: 2
#     Edge 27, Type (0, 0), BuildingBlock: XUDNAN_clean_linker_2, # of connection points: 2
#     Edge 28, Type (0, 0), BuildingBlock: XUDNAN_clean_linker_2, # of connection points: 2
#     Edge 29, Type (0, 0), BuildingBlock: XUDNAN_clean_linker_2, # of connection points: 2
#     Edge 30, Type (0, 0), BuildingBlock: XUDNAN_clean_linker_2, # of connection points: 2
#     Edge 31, Type (0, 0), BuildingBlock: XUDNAN_clean_linker_2, # of connection points: 2
#     Edge 32, Type (0, 0), BuildingBlock: XUDNAN_clean_linker_2, # of connection points: 2
#     Edge 33, Type (0, 0), BuildingBlock: XUDNAN_clean_linker_2, # of connection points: 2
#     Edge 34, Type (0, 0), BuildingBlock: XUDNAN_clean_linker_2, # of connection points: 2
#     Edge 35, Type (0, 0), BuildingBlock: XUDNAN_clean_linker_2, # of connection points: 2
#     Edge 36, Type (0, 0), BuildingBlock: XUDNAN_clean_linker_2, # of connection points: 2
#     Edge 37, Type (0, 0), BuildingBlock: XUDNAN_clean_linker_2, # of connection points: 2
#     Edge 38, Type (0, 0), BuildingBlock: XUDNAN_clean_linker_2, # of connection points: 2
#     Edge 39, Type (0, 0), BuildingBlock: XUDNAN_clean_linker_2, # of connection points: 2
#     Edge 40, Type (0, 0), BuildingBlock: XUDNAN_clean_linker_2, # of connection points: 2
#     Edge 41, Type (0, 0), BuildingBlock: XUDNAN_clean_linker_2, # of connection points: 2
#     Edge 42, Type (0, 0), BuildingBlock: XUDNAN_clean_linker_2, # of connection points: 2
#     Edge 43, Type (0, 0), BuildingBlock: XUDNAN_clean_linker_2, # of connection points: 2
#     Edge 44, Type (0, 0), BuildingBlock: XUDNAN_clean_linker_2, # of connection points: 2
#     Edge 45, Type (0, 0), BuildingBlock: XUDNAN_clean_linker_2, # of connection points: 2
#     Edge 46, Type (0, 0), BuildingBlock: XUDNAN_clean_linker_2, # of connection points: 2
#     Edge 47, Type (0, 0), BuildingBlock: XUDNAN_clean_linker_2, # of connection points: 2
#     Edge 48, Type (0, 0), BuildingBlock: XUDNAN_clean_linker_2, # of connection points: 2
#     Edge 49, Type (0, 0), BuildingBlock: XUDNAN_clean_linker_2, # of connection points: 2
#     Edge 50, Type (0, 0), BuildingBlock: XUDNAN_clean_linker_2, # of connection points: 2
#     Edge 51, Type (0, 0), BuildingBlock: XUDNAN_clean_linker_2, # of connection points: 2
#     Edge 52, Type (0, 0), BuildingBlock: XUDNAN_clean_linker_2, # of connection points: 2
#     Edge 53, Type (0, 0), BuildingBlock: XUDNAN_clean_linker_2, # of connection points: 2
#     Edge 54, Type (0, 0), BuildingBlock: XUDNAN_clean_linker_2, # of connection points: 2
#     Edge 55, Type (0, 0), BuildingBlock: XUDNAN_clean_linker_2, # of connection points: 2
#     Edge 56, Type (0, 0), BuildingBlock: XUDNAN_clean_linker_2, # of connection points: 2
#     Edge 57, Type (0, 0), BuildingBlock: XUDNAN_clean_linker_2, # of connection points: 2
#     Edge 58, Type (0, 0), BuildingBlock: XUDNAN_clean_linker_2, # of connection points: 2
#     Edge 59, Type (0, 0), BuildingBlock: XUDNAN_clean_linker_2, # of connection points: 2
#     Edge 60, Type (0, 0), BuildingBlock: XUDNAN_clean_linker_2, # of connection points: 2
#     Edge 61, Type (0, 0), BuildingBlock: XUDNAN_clean_linker_2, # of connection points: 2
#     Edge 62, Type (0, 0), BuildingBlock: XUDNAN_clean_linker_2, # of connection points: 2
#     Edge 63, Type (0, 0), BuildingBlock: XUDNAN_clean_linker_2, # of connection points: 2
#     Edge 64, Type (0, 0), BuildingBlock: XUDNAN_clean_linker_2, # of connection points: 2
#     Edge 65, Type (0, 0), BuildingBlock: XUDNAN_clean_linker_2, # of connection points: 2
#     Edge 66, Type (0, 0), BuildingBlock: XUDNAN_clean_linker_2, # of connection points: 2
#     Edge 67, Type (0, 0), BuildingBlock: XUDNAN_clean_linker_2, # of connection points: 2
#     Edge 68, Type (0, 0), BuildingBlock: XUDNAN_clean_linker_2, # of connection points: 2
#     Edge 69, Type (0, 0), BuildingBlock: XUDNAN_clean_linker_2, # of connection points: 2
#     Edge 70, Type (0, 0), BuildingBlock: XUDNAN_clean_linker_2, # of connection points: 2
#     Edge 71, Type (0, 0), BuildingBlock: XUDNAN_clean_linker_2, # of connection points: 2
#     Edge 72, Type (0, 0), BuildingBlock: XUDNAN_clean_linker_2, # of connection points: 2
#     Edge 73, Type (0, 0), BuildingBlock: XUDNAN_clean_linker_2, # of connection points: 2
#     Edge 74, Type (0, 0), BuildingBlock: XUDNAN_clean_linker_2, # of connection points: 2
#     Edge 75, Type (0, 0), BuildingBlock: XUDNAN_clean_linker_2, # of connection points: 2
#     Edge 76, Type (0, 0), BuildingBlock: XUDNAN_clean_linker_2, # of connection points: 2
#     Edge 77, Type (0, 0), BuildingBlock: XUDNAN_clean_linker_2, # of connection points: 2
#     Edge 78, Type (0, 0), BuildingBlock: XUDNAN_clean_linker_2, # of connection points: 2
#     Edge 79, Type (0, 0), BuildingBlock: XUDNAN_clean_linker_2, # of connection points: 2
#     Edge 80, Type (0, 0), BuildingBlock: XUDNAN_clean_linker_2, # of connection points: 2
#     Edge 81, Type (0, 0), BuildingBlock: XUDNAN_clean_linker_2, # of connection points: 2
#     Edge 82, Type (0, 0), BuildingBlock: XUDNAN_clean_linker_2, # of connection points: 2
#     Edge 83, Type (0, 0), BuildingBlock: XUDNAN_clean_linker_2, # of connection points: 2
# Relax obj value: 0.233
# Max RMSD: 0.177
# Mean RMSD: 0.177
data_MOF--net-pcu-i--node1-BEQFEK_clean_sbu_0--edge1-XUDNAN_clean_linker_2
_symmetry_space_group_name_H-M    P1
_symmetry_Int_Tables_number       1
_symmetry_cell_setting            triclinic
loop_
_symmetry_equiv_pos_as_xyz
'x, y, z'
_cell_length_a     56.703298
_cell_length_b     56.716368
_cell_length_c     56.743802
_cell_angle_alpha  89.952875
_cell_angle_beta   89.945761
_cell_angle_gamma 89.996044
loop_
_atom_site_label
_atom_site_type_symbol
_atom_site_fract_x
_atom_site_fract_y
_atom_site_fract_z
_atom_type_partial_charge
Co0 Co 0.1344 0.12419 0.35802 0.0
Co1 Co 0.13491 0.17882 0.36625 0.0
C2 C 0.09015 0.1526 0.35674 0.0
O3 O 0.1005 0.13275 0.35567 0.0
O4 O 0.10167 0.17144 0.36034 0.0
C5 C 0.12241 0.081 0.33601 0.0
O6 O 0.10671 0.0945 0.32564 0.0
C7 C 0.13076 0.22522 0.34666 0.0
C8 C 0.14617 0.24852 0.37374 0.0
C9 C 0.13663 0.2486 0.35119 0.0
N10 N 0.13672 0.21219 0.36544 0.0
N11 N 0.14552 0.22618 0.3818 0.0
C12 C 0.122 0.21454 0.32413 0.0
H13 H 0.1241 0.19513 0.32429 0.0
H14 H 0.1316 0.22196 0.30877 0.0
H15 H 0.10292 0.21839 0.32216 0.0
C16 C 0.1695 0.13761 0.32143 0.0
N17 N 0.15353 0.14303 0.33818 0.0
N18 N 0.15517 0.16561 0.34318 0.0
C19 C 0.17283 0.17512 0.33051 0.0
C20 C 0.18223 0.15785 0.31596 0.0
C21 C 0.17259 0.11347 0.3113 0.0
H22 H 0.15508 0.1056 0.30771 0.0
H23 H 0.1829 0.11391 0.29469 0.0
H24 H 0.18176 0.10213 0.32434 0.0
O25 O 0.14533 0.12822 0.39112 0.0
O26 O 0.14368 0.16703 0.39732 0.0
H27 H 0.20219 0.19946 0.33117 0.0
H28 H 0.17424 0.21217 0.32336 0.0
C29 C 0.18299 0.19911 0.33497 0.0
H30 H 0.18029 0.20427 0.35359 0.0
H31 H 0.15192 0.22036 0.39804 0.0
O32 O 0.13713 0.09026 0.35012 0.0
C33 C 0.14774 0.14615 0.40445 0.0
Co34 Co 0.86874 0.14161 0.3719 0.0
Co35 Co 0.81379 0.14321 0.36922 0.0
C36 C 0.8422 0.09787 0.36518 0.0
O37 O 0.86222 0.10793 0.36582 0.0
O38 O 0.82327 0.10976 0.36676 0.0
C39 C 0.91883 0.13187 0.36688 0.0
O40 O 0.91276 0.10972 0.36394 0.0
C41 C 0.77372 0.13224 0.34141 0.0
C42 C 0.74333 0.1481 0.3599 0.0
C43 C 0.74946 0.13461 0.34044 0.0
N44 N 0.78157 0.14332 0.36067 0.0
N45 N 0.7634 0.15274 0.37183 0.0
C46 C 0.78971 0.12129 0.32344 0.0
H47 H 0.80775 0.12869 0.32481 0.0
H48 H 0.78287 0.12425 0.30536 0.0
H49 H 0.7908 0.10203 0.32667 0.0
C50 C 0.86321 0.18006 0.33717 0.0
N51 N 0.85428 0.16201 0.34975 0.0
N52 N 0.83114 0.16295 0.34887 0.0
C53 C 0.82457 0.18166 0.3358 0.0
C54 C 0.84471 0.19318 0.328 0.0
C55 C 0.88888 0.18604 0.33598 0.0
H56 H 0.89481 0.19226 0.35354 0.0
H57 H 0.89914 0.17005 0.33136 0.0
H58 H 0.8924 0.19998 0.3227 0.0
O59 O 0.85737 0.14948 0.40406 0.0
O60 O 0.81831 0.15367 0.40186 0.0
H61 H 0.79161 0.1905 0.352 0.0
H62 H 0.79873 0.20838 0.32655 0.0
C63 C 0.7997 0.19041 0.33419 0.0
H64 H 0.78936 0.1782 0.32297 0.0
H65 H 0.76469 0.16237 0.38744 0.0
O66 O 0.90305 0.14724 0.37095 0.0
C67 C 0.83751 0.15434 0.41347 0.0
Co68 Co 0.85142 0.87643 0.38186 0.0
Co69 Co 0.85534 0.82204 0.37336 0.0
C70 C 0.89404 0.85524 0.35952 0.0
O71 O 0.88246 0.87314 0.36639 0.0
O72 O 0.88577 0.8345 0.36141 0.0
C73 C 0.85967 0.92657 0.38255 0.0
O74 O 0.88208 0.92068 0.38229 0.0
C75 C 0.85823 0.78117 0.34303 0.0
C76 C 0.85138 0.75149 0.3673 0.0
C77 C 0.85635 0.75672 0.3439 0.0
N78 N 0.85462 0.78973 0.36477 0.0
N79 N 0.85069 0.77195 0.37928 0.0
C80 C 0.8618 0.79668 0.32194 0.0
H81 H 0.85607 0.81497 0.3258 0.0
H82 H 0.85183 0.78982 0.30659 0.0
H83 H 0.88084 0.79717 0.31744 0.0
C84 C 0.80774 0.86981 0.35467 0.0
N85 N 0.82786 0.86134 0.36394 0.0
N86 N 0.8288 0.83839 0.36068 0.0
C87 C 0.80892 0.83148 0.34954 0.0
C88 C 0.79499 0.8512 0.34536 0.0
C89 C 0.8011 0.89536 0.35459 0.0
H90 H 0.81618 0.90598 0.34807 0.0
H91 H 0.7856 0.89884 0.3432 0.0
H92 H 0.79708 0.901 0.37287 0.0
O93 O 0.85202 0.86304 0.41438 0.0
O94 O 0.85523 0.82444 0.40801 0.0
H95 H 0.80835 0.79499 0.35969 0.0
H96 H 0.78288 0.80442 0.34299 0.0
C97 C 0.80225 0.80635 0.34501 0.0
H98 H 0.81079 0.80034 0.32849 0.0
H99 H 0.84735 0.77381 0.39727 0.0
O100 O 0.84407 0.9105 0.3834 0.0
C101 C 0.85371 0.84193 0.42199 0.0
Co102 Co 0.10813 0.86206 0.36078 0.0
Co103 Co 0.16294 0.86984 0.36453 0.0
C104 C 0.12991 0.90941 0.3529 0.0
O105 O 0.11219 0.89581 0.3541 0.0
O106 O 0.15063 0.90182 0.35679 0.0
C107 C 0.06428 0.86675 0.33826 0.0
O108 O 0.07718 0.88051 0.32481 0.0
C109 C 0.20658 0.87603 0.33885 0.0
C110 C 0.23421 0.86681 0.36464 0.0
C111 C 0.23067 0.87279 0.34121 0.0
N112 N 0.19624 0.87155 0.3597 0.0
N113 N 0.21286 0.86635 0.37518 0.0
C114 C 0.19347 0.88345 0.31714 0.0
H115 H 0.17703 0.89285 0.32188 0.0
H116 H 0.18849 0.8677 0.30673 0.0
H117 H 0.20466 0.89496 0.30592 0.0
C118 C 0.12329 0.82597 0.32645 0.0
N119 N 0.12783 0.84392 0.34128 0.0
N120 N 0.15076 0.84582 0.34431 0.0
C121 C 0.1615 0.82834 0.33229 0.0
C122 C 0.14455 0.81559 0.3202 0.0
C123 C 0.09907 0.81911 0.31856 0.0
H124 H 0.08882 0.81264 0.33393 0.0
H125 H 0.08993 0.83483 0.31143 0.0
H126 H 0.09945 0.80538 0.30468 0.0
O127 O 0.11614 0.85476 0.39421 0.0
O128 O 0.15479 0.86171 0.39754 0.0
H129 H 0.18878 0.80183 0.33344 0.0
H130 H 0.19781 0.8297 0.32176 0.0
C131 C 0.18676 0.82119 0.33543 0.0
H132 H 0.19318 0.82632 0.35312 0.0
H133 H 0.20958 0.86177 0.39269 0.0
O134 O 0.07417 0.85539 0.35489 0.0
C135 C 0.13504 0.85551 0.40643 0.0
Co136 Co 0.14698 0.86874 0.61842 0.0
Co137 Co 0.13733 0.81453 0.62613 0.0
C138 C 0.1016 0.851 0.63876 0.0
O139 O 0.1152 0.86774 0.63272 0.0
O140 O 0.10788 0.8296 0.63682 0.0
C141 C 0.14076 0.91817 0.61432 0.0
O142 O 0.11961 0.9119 0.60727 0.0
C143 C 0.12169 0.77163 0.6502 0.0
C144 C 0.15127 0.74732 0.64344 0.0
C145 C 0.13123 0.75012 0.65723 0.0
N146 N 0.13621 0.78161 0.6343 0.0
N147 N 0.15332 0.76653 0.62958 0.0
C148 C 0.09835 0.78194 0.65702 0.0
H149 H 0.08978 0.78965 0.64125 0.0
H150 H 0.10103 0.79614 0.67019 0.0
H151 H 0.08634 0.76831 0.66429 0.0
C152 C 0.18935 0.85739 0.64607 0.0
N153 N 0.1686 0.85121 0.63636 0.0
N154 N 0.1641 0.82894 0.64107 0.0
C155 C 0.18157 0.82055 0.6549 0.0
C156 C 0.19832 0.83812 0.65813 0.0
C157 C 0.20105 0.88074 0.64219 0.0
H158 H 0.19839 0.88651 0.6237 0.0
H159 H 0.19281 0.89401 0.65395 0.0
H160 H 0.22023 0.87993 0.6459 0.0
O161 O 0.14596 0.85654 0.58589 0.0
O162 O 0.13903 0.81818 0.59115 0.0
H163 H 0.18939 0.78371 0.65429 0.0
H164 H 0.19238 0.79706 0.6828 0.0
C165 C 0.18161 0.79684 0.66648 0.0
H166 H 0.16339 0.79158 0.67113 0.0
H167 H 0.16742 0.77013 0.6183 0.0
O168 O 0.15593 0.90233 0.6189 0.0
C169 C 0.14248 0.83591 0.57768 0.0
Co170 Co 0.12811 0.1338 0.61406 0.0
Co171 Co 0.18284 0.13245 0.62267 0.0
C172 C 0.15174 0.08966 0.62889 0.0
O173 O 0.1327 0.10024 0.62344 0.0
O174 O 0.17134 0.10048 0.62919 0.0
C175 C 0.07751 0.12704 0.61786 0.0
O176 O 0.08275 0.10526 0.62373 0.0
C177 C 0.22047 0.12483 0.65508 0.0
C178 C 0.25225 0.13853 0.63715 0.0
C179 C 0.24453 0.1281 0.65792 0.0
N180 N 0.21433 0.13273 0.63371 0.0
N181 N 0.23335 0.14073 0.62288 0.0
C182 C 0.20288 0.11663 0.67307 0.0
H183 H 0.1849 0.12282 0.66854 0.0
H184 H 0.20762 0.12316 0.69087 0.0
H185 H 0.20262 0.09709 0.67343 0.0
C186 C 0.13194 0.1716 0.64979 0.0
N187 N 0.14169 0.15496 0.63592 0.0
N188 N 0.16472 0.15533 0.63867 0.0
C189 C 0.17035 0.17242 0.65416 0.0
C190 C 0.14979 0.18312 0.66171 0.0
C191 C 0.10601 0.17572 0.65227 0.0
H192 H 0.09918 0.18318 0.63555 0.0
H193 H 0.09693 0.1587 0.65556 0.0
H194 H 0.10199 0.18811 0.66685 0.0
O195 O 0.14269 0.13862 0.58257 0.0
O196 O 0.18157 0.13716 0.58851 0.0
H197 H 0.20715 0.17692 0.64628 0.0
H198 H 0.19554 0.19746 0.66771 0.0
C199 C 0.19488 0.17897 0.66134 0.0
H200 H 0.20066 0.16734 0.67593 0.0
H201 H 0.23336 0.14808 0.60602 0.0
O202 O 0.09396 0.1412 0.61223 0.0
C203 C 0.16385 0.13927 0.57491 0.0
Co204 Co 0.86507 0.12703 0.62373 0.0
Co205 Co 0.86227 0.18151 0.63171 0.0
C206 C 0.90786 0.15521 0.63562 0.0
O207 O 0.8977 0.13555 0.63221 0.0
O208 O 0.89622 0.17436 0.63564 0.0
C209 C 0.86615 0.07896 0.64005 0.0
O210 O 0.86624 0.08818 0.66128 0.0
C211 C 0.86451 0.22528 0.65893 0.0
C212 C 0.8427 0.24936 0.63739 0.0
C213 C 0.85518 0.24787 0.6583 0.0
N214 N 0.85731 0.21373 0.63959 0.0
N215 N 0.84459 0.22831 0.6266 0.0
C216 C 0.88015 0.21482 0.67748 0.0
H217 H 0.89304 0.20258 0.66943 0.0
H218 H 0.86933 0.20458 0.69015 0.0
H219 H 0.88977 0.22878 0.68722 0.0
C220 C 0.82223 0.12898 0.65379 0.0
N221 N 0.84209 0.13879 0.64506 0.0
N222 N 0.84188 0.16159 0.64951 0.0
C223 C 0.82218 0.16685 0.66175 0.0
C224 C 0.80909 0.14642 0.66476 0.0
C225 C 0.81359 0.10481 0.64759 0.0
H226 H 0.82081 0.0992 0.63033 0.0
H227 H 0.81932 0.09218 0.66137 0.0
H228 H 0.79403 0.10428 0.64678 0.0
O229 O 0.85831 0.13946 0.59195 0.0
O230 O 0.85411 0.17802 0.59812 0.0
H231 H 0.81116 0.20164 0.65215 0.0
H232 H 0.79878 0.19127 0.67966 0.0
C233 C 0.81474 0.1913 0.66835 0.0
H234 H 0.82907 0.2 0.67825 0.0
H235 H 0.8367 0.22372 0.61065 0.0
O236 O 0.86505 0.09228 0.62208 0.0
C237 C 0.85378 0.16018 0.58454 0.0
Co238 Co 0.8872 0.85892 0.63524 0.0
Co239 Co 0.83236 0.86444 0.63794 0.0
C240 C 0.8635 0.90614 0.63938 0.0
O241 O 0.88119 0.89292 0.63593 0.0
O242 O 0.84297 0.89763 0.64225 0.0
C243 C 0.93136 0.86908 0.65449 0.0
O244 O 0.91824 0.88384 0.66658 0.0
C245 C 0.78878 0.8698 0.66446 0.0
C246 C 0.76152 0.85946 0.63875 0.0
C247 C 0.76445 0.86661 0.66202 0.0
N248 N 0.79926 0.86451 0.64387 0.0
N249 N 0.78288 0.85861 0.62847 0.0
C250 C 0.80256 0.87653 0.68592 0.0
H251 H 0.82176 0.8745 0.68276 0.0
H252 H 0.79734 0.8654 0.70114 0.0
H253 H 0.79914 0.8953 0.6902 0.0
C254 C 0.87822 0.82291 0.67059 0.0
N255 N 0.87082 0.84185 0.6584 0.0
N256 N 0.84764 0.84252 0.65849 0.0
C257 C 0.83954 0.82352 0.6704 0.0
C258 C 0.85869 0.8107 0.67868 0.0
C259 C 0.9032 0.81435 0.67074 0.0
H260 H 0.91469 0.82811 0.67849 0.0
H261 H 0.90518 0.79788 0.68112 0.0
H262 H 0.90911 0.81119 0.65236 0.0
O263 O 0.87733 0.84729 0.6041 0.0
O264 O 0.83865 0.8549 0.60453 0.0
H265 H 0.81308 0.79617 0.67401 0.0
H266 H 0.80417 0.82506 0.6833 0.0
C267 C 0.81446 0.81526 0.6699 0.0
H268 H 0.80662 0.81868 0.65233 0.0
H269 H 0.78633 0.85358 0.61113 0.0
O270 O 0.92161 0.85549 0.63957 0.0
C271 C 0.85726 0.84777 0.59399 0.0
Co272 Co 0.37053 0.14316 0.11392 0.0
Co273 Co 0.36158 0.14568 0.1682 0.0
C274 C 0.35175 0.10182 0.14171 0.0
O275 O 0.35792 0.11209 0.12282 0.0
O276 O 0.3526 0.11227 0.16151 0.0
C277 C 0.35047 0.13525 0.07028 0.0
O278 O 0.33365 0.12777 0.08433 0.0
C279 C 0.33488 0.14551 0.2118 0.0
C280 C 0.35215 0.17397 0.23192 0.0
C281 C 0.33293 0.15889 0.23211 0.0
N282 N 0.35419 0.15252 0.20007 0.0
N283 N 0.36492 0.16899 0.21255 0.0
C284 C 0.31674 0.12919 0.20167 0.0
H285 H 0.31536 0.13184 0.18235 0.0
H286 H 0.29918 0.13177 0.20993 0.0
H287 H 0.32243 0.11073 0.20478 0.0
C288 C 0.34169 0.18632 0.11479 0.0
N289 N 0.35142 0.16761 0.12566 0.0
N290 N 0.34579 0.16788 0.14813 0.0
C291 C 0.3315 0.18656 0.15213 0.0
C292 C 0.32854 0.19895 0.13112 0.0
C293 C 0.34683 0.19314 0.0898 0.0
H294 H 0.36507 0.18795 0.08501 0.0
H295 H 0.33438 0.18387 0.07793 0.0
H296 H 0.34484 0.21242 0.08715 0.0
O297 O 0.40301 0.14636 0.1259 0.0
O298 O 0.39617 0.14978 0.16447 0.0
H299 H 0.33351 0.19884 0.18768 0.0
H300 H 0.30555 0.20479 0.17359 0.0
C301 C 0.32009 0.19186 0.17532 0.0
H302 H 0.31257 0.17552 0.18278 0.0
H303 H 0.37984 0.17816 0.20689 0.0
O304 O 0.36933 0.14353 0.07913 0.0
C305 C 0.41023 0.14933 0.14695 0.0
Co306 Co 0.85082 0.38327 0.1217 0.0
Co307 Co 0.84685 0.37138 0.17542 0.0
C308 C 0.89184 0.36412 0.15 0.0
O309 O 0.88274 0.37165 0.13093 0.0
O310 O 0.87967 0.36255 0.16874 0.0
C311 C 0.85404 0.36742 0.07415 0.0
O312 O 0.85371 0.34641 0.08389 0.0
C313 C 0.84759 0.34217 0.21764 0.0
C314 C 0.82509 0.36197 0.24252 0.0
C315 C 0.83824 0.34155 0.24014 0.0
N316 N 0.84009 0.36192 0.20695 0.0
N317 N 0.82676 0.37379 0.22196 0.0
C318 C 0.86417 0.32477 0.20665 0.0
H319 H 0.88252 0.33019 0.21068 0.0
H320 H 0.86196 0.32454 0.18723 0.0
H321 H 0.86154 0.30677 0.21378 0.0
C322 C 0.80726 0.35389 0.12048 0.0
N323 N 0.82591 0.3633 0.1318 0.0
N324 N 0.82526 0.35687 0.15407 0.0
C325 C 0.80688 0.3421 0.15735 0.0
C326 C 0.79471 0.33984 0.13616 0.0
C327 C 0.79988 0.36058 0.09603 0.0
H328 H 0.80667 0.37833 0.09144 0.0
H329 H 0.80696 0.34758 0.08328 0.0
H330 H 0.78036 0.36054 0.09449 0.0
O331 O 0.84643 0.41484 0.13528 0.0
O332 O 0.845 0.40659 0.17365 0.0
H333 H 0.79556 0.34187 0.19336 0.0
H334 H 0.78929 0.31473 0.17777 0.0
C335 C 0.80213 0.32926 0.17994 0.0
H336 H 0.8187 0.32135 0.18643 0.0
H337 H 0.81864 0.38984 0.21808 0.0
O338 O 0.85227 0.3857 0.08697 0.0
C339 C 0.84488 0.4214 0.15669 0.0
Co340 Co 0.6229 0.8502 0.12491 0.0
Co341 Co 0.62766 0.85769 0.17959 0.0
C342 C 0.64002 0.89573 0.14475 0.0
O343 O 0.63526 0.88254 0.12728 0.0
O344 O 0.63789 0.88844 0.16587 0.0
C345 C 0.62118 0.8569 0.07502 0.0
O346 O 0.61672 0.8788 0.0811 0.0
C347 C 0.65583 0.86126 0.2225 0.0
C348 C 0.62963 0.85403 0.25043 0.0
C349 C 0.65339 0.85842 0.24668 0.0
N350 N 0.63461 0.85816 0.21244 0.0
N351 N 0.61898 0.85404 0.22923 0.0
C352 C 0.67769 0.86763 0.20908 0.0
H353 H 0.67311 0.8763 0.19219 0.0
H354 H 0.68782 0.85145 0.20492 0.0
H355 H 0.68908 0.87945 0.21972 0.0
C356 C 0.65597 0.81098 0.13584 0.0
N357 N 0.64233 0.82935 0.14228 0.0
N358 N 0.64234 0.83111 0.16536 0.0
C359 C 0.65449 0.81284 0.17447 0.0
C360 C 0.66415 0.79973 0.15609 0.0
C361 C 0.66229 0.80561 0.11078 0.0
H362 H 0.66297 0.82211 0.10033 0.0
H363 H 0.67967 0.79672 0.10958 0.0
H364 H 0.6486 0.79396 0.10308 0.0
O365 O 0.58932 0.84981 0.13682 0.0
O366 O 0.59361 0.85597 0.17535 0.0
H367 H 0.65542 0.78668 0.20212 0.0
H368 H 0.66878 0.81442 0.20945 0.0
C369 C 0.65388 0.80607 0.20001 0.0
H370 H 0.63713 0.81194 0.20819 0.0
H371 H 0.60111 0.85084 0.22618 0.0
O372 O 0.62357 0.84137 0.09103 0.0
C373 C 0.58059 0.85287 0.15737 0.0
Co374 Co 0.14705 0.62685 0.10815 0.0
Co375 Co 0.14357 0.63817 0.16216 0.0
C376 C 0.10397 0.64915 0.12976 0.0
O377 O 0.11542 0.64163 0.11202 0.0
O378 O 0.11286 0.64889 0.15026 0.0
C379 C 0.15004 0.64436 0.06251 0.0
O380 O 0.14707 0.66389 0.07461 0.0
C381 C 0.14111 0.67045 0.20118 0.0
C382 C 0.15466 0.64993 0.23134 0.0
C383 C 0.14707 0.67219 0.22474 0.0
N384 N 0.14523 0.64833 0.19402 0.0
N385 N 0.15283 0.63591 0.21222 0.0
C386 C 0.13256 0.68968 0.18521 0.0
H387 H 0.14076 0.68788 0.16753 0.0
H388 H 0.13619 0.70744 0.19252 0.0
H389 H 0.11322 0.6878 0.18297 0.0
C390 C 0.19296 0.65194 0.11417 0.0
N391 N 0.17156 0.645 0.12208 0.0
N392 N 0.16989 0.6499 0.14471 0.0
C393 C 0.19015 0.66008 0.15184 0.0
C394 C 0.20535 0.66176 0.13278 0.0
C395 C 0.2025 0.64674 0.09014 0.0
H396 H 0.19597 0.62941 0.08392 0.0
H397 H 0.19642 0.66057 0.07772 0.0
H398 H 0.22208 0.64672 0.09014 0.0
O399 O 0.14688 0.59482 0.12288 0.0
O400 O 0.14376 0.60362 0.16109 0.0
H401 H 0.19261 0.65239 0.18871 0.0
H402 H 0.21325 0.67458 0.17882 0.0
C403 C 0.19518 0.66751 0.17661 0.0
H404 H 0.18274 0.68167 0.18143 0.0
H405 H 0.15783 0.61823 0.21133 0.0
O406 O 0.15132 0.62485 0.07349 0.0
C407 C 0.14522 0.58858 0.14447 0.0
Co408 Co 0.37631 0.85253 0.87719 0.0
Co409 Co 0.36641 0.85075 0.82258 0.0
C410 C 0.35982 0.89498 0.84967 0.0
O411 O 0.36637 0.88514 0.86877 0.0
O412 O 0.35841 0.88344 0.83052 0.0
C413 C 0.37192 0.86568 0.92689 0.0
O414 O 0.36814 0.88725 0.91935 0.0
C415 C 0.33956 0.85098 0.77832 0.0
C416 C 0.3627 0.82975 0.75528 0.0
C417 C 0.34102 0.84109 0.75586 0.0
N418 N 0.35921 0.84525 0.79028 0.0
N419 N 0.37315 0.83296 0.77628 0.0
C420 C 0.31925 0.86384 0.78926 0.0
H421 H 0.32109 0.86432 0.80872 0.0
H422 H 0.30231 0.85524 0.7846 0.0
H423 H 0.31896 0.88225 0.78263 0.0
C424 C 0.34539 0.81084 0.87572 0.0
N425 N 0.3557 0.82932 0.86499 0.0
N426 N 0.35082 0.82873 0.84235 0.0
C427 C 0.33677 0.81003 0.838 0.0
C428 C 0.33292 0.79804 0.85904 0.0
C429 C 0.34969 0.80421 0.90089 0.0
H430 H 0.36877 0.80577 0.90484 0.0
H431 H 0.33993 0.81654 0.91252 0.0
H432 H 0.34406 0.78589 0.90475 0.0
O433 O 0.40835 0.84716 0.86451 0.0
O434 O 0.40093 0.84722 0.82599 0.0
H435 H 0.34136 0.80039 0.80179 0.0
H436 H 0.3144 0.78918 0.81477 0.0
C437 C 0.3268 0.80424 0.81427 0.0
H438 H 0.31689 0.81961 0.80762 0.0
H439 H 0.38943 0.82605 0.78134 0.0
O440 O 0.37646 0.84944 0.91212 0.0
C441 C 0.41531 0.84587 0.84318 0.0
Co442 Co 0.14107 0.36065 0.88395 0.0
Co443 Co 0.13654 0.3529 0.82971 0.0
C444 C 0.09428 0.35941 0.85916 0.0
O445 O 0.10719 0.3629 0.87703 0.0
O446 O 0.10311 0.35392 0.8394 0.0
C447 C 0.15323 0.36863 0.93415 0.0
O448 O 0.17013 0.38325 0.92802 0.0
C449 C 0.12705 0.32235 0.79057 0.0
C450 C 0.14788 0.33752 0.76141 0.0
C451 C 0.13452 0.31802 0.76772 0.0
N452 N 0.13627 0.3429 0.79773 0.0
N453 N 0.14813 0.35232 0.78 0.0
C454 C 0.11293 0.30639 0.80622 0.0
H455 H 0.09875 0.31659 0.81496 0.0
H456 H 0.12447 0.29911 0.82022 0.0
H457 H 0.1048 0.29176 0.79612 0.0
C458 C 0.17545 0.32286 0.8792 0.0
N459 N 0.15654 0.33444 0.87065 0.0
N460 N 0.15562 0.33172 0.84765 0.0
C461 C 0.17418 0.31846 0.84085 0.0
C462 C 0.18749 0.31261 0.86055 0.0
C463 C 0.1848 0.32639 0.9036 0.0
H464 H 0.19051 0.34498 0.90562 0.0
H465 H 0.17062 0.32282 0.91659 0.0
H466 H 0.19998 0.31467 0.90738 0.0
O467 O 0.15633 0.38932 0.87168 0.0
O468 O 0.15009 0.38521 0.83292 0.0
H469 H 0.18393 0.33242 0.80712 0.0
H470 H 0.19802 0.30462 0.81418 0.0
C471 C 0.18153 0.31502 0.81573 0.0
H472 H 0.16764 0.30525 0.80632 0.0
H473 H 0.15765 0.36802 0.78111 0.0
O474 O 0.14106 0.35839 0.91848 0.0
C475 C 0.15783 0.39692 0.85055 0.0
Co476 Co 0.63436 0.13542 0.87479 0.0
Co477 Co 0.63807 0.13181 0.82004 0.0
C478 C 0.6499 0.09121 0.85215 0.0
O479 O 0.64624 0.10347 0.87047 0.0
O480 O 0.64683 0.09961 0.83156 0.0
C481 C 0.63259 0.12696 0.92446 0.0
O482 O 0.62805 0.10512 0.91827 0.0
C483 C 0.6649 0.12885 0.77653 0.0
C484 C 0.63845 0.1384 0.74959 0.0
C485 C 0.66205 0.13257 0.75244 0.0
N486 N 0.64406 0.13245 0.78716 0.0
N487 N 0.62822 0.13783 0.77098 0.0
C488 C 0.68716 0.12393 0.78984 0.0
H489 H 0.68474 0.12763 0.80889 0.0
H490 H 0.7019 0.13474 0.78285 0.0
H491 H 0.69179 0.10503 0.78791 0.0
C492 C 0.66406 0.17679 0.86658 0.0
N493 N 0.65352 0.15713 0.85869 0.0
N494 N 0.65494 0.15636 0.83556 0.0
C495 C 0.66602 0.17605 0.82796 0.0
C496 C 0.67227 0.18945 0.84744 0.0
C497 C 0.6646 0.18421 0.89189 0.0
H498 H 0.6716 0.16957 0.9028 0.0
H499 H 0.67578 0.20004 0.89454 0.0
H500 H 0.64637 0.18811 0.89786 0.0
O501 O 0.60124 0.13814 0.86398 0.0
O502 O 0.6042 0.13761 0.82485 0.0
H503 H 0.67025 0.20299 0.80126 0.0
H504 H 0.6825 0.17467 0.79415 0.0
C505 C 0.66744 0.18368 0.80274 0.0
H506 H 0.65104 0.17878 0.79332 0.0
H507 H 0.61061 0.14175 0.77462 0.0
O508 O 0.63534 0.14256 0.90865 0.0
C509 C 0.59197 0.13941 0.84358 0.0
Co510 Co 0.85897 0.6273 0.87951 0.0
Co511 Co 0.86494 0.63027 0.82458 0.0
C512 C 0.90629 0.62425 0.85563 0.0
O513 O 0.893 0.62253 0.87355 0.0
O514 O 0.89806 0.62866 0.8353 0.0
C515 C 0.87086 0.64635 0.92264 0.0
O516 O 0.88573 0.65697 0.90838 0.0
C517 C 0.87406 0.65694 0.78208 0.0
C518 C 0.85459 0.63716 0.75482 0.0
C519 C 0.86693 0.65791 0.7587 0.0
N520 N 0.86558 0.63706 0.79172 0.0
N521 N 0.85444 0.62498 0.77523 0.0
C522 C 0.8884 0.67468 0.79539 0.0
H523 H 0.90026 0.66558 0.80797 0.0
H524 H 0.87657 0.68625 0.80579 0.0
H525 H 0.89906 0.6857 0.78321 0.0
C526 C 0.83041 0.66969 0.87086 0.0
N527 N 0.8461 0.65345 0.86347 0.0
N528 N 0.84722 0.6539 0.8403 0.0
C529 C 0.83174 0.67004 0.8322 0.0
C530 C 0.82102 0.68082 0.85128 0.0
C531 C 0.82294 0.67282 0.89598 0.0
H532 H 0.8166 0.65574 0.90313 0.0
H533 H 0.83834 0.67851 0.90654 0.0
H534 H 0.80892 0.68632 0.89785 0.0
O535 O 0.84233 0.59866 0.86892 0.0
O536 O 0.84973 0.59931 0.83023 0.0
H537 H 0.82379 0.65387 0.79886 0.0
H538 H 0.80503 0.67828 0.80613 0.0
C539 C 0.82335 0.6715 0.80718 0.0
H540 H 0.83479 0.68374 0.79718 0.0
H541 H 0.84562 0.60911 0.77822 0.0
O542 O 0.85607 0.6319 0.91401 0.0
C543 C 0.84097 0.58944 0.84846 0.0
Co544 Co 0.11387 0.37351 0.1508 0.0
Co545 Co 0.16926 0.3716 0.14689 0.0
C546 C 0.13763 0.36189 0.1057 0.0
O547 O 0.1188 0.36376 0.11767 0.0
O548 O 0.15768 0.36489 0.11508 0.0
C549 C 0.06407 0.3743 0.14148 0.0
O550 O 0.07069 0.382 0.12066 0.0
C551 C 0.20986 0.34401 0.1353 0.0
C552 C 0.24015 0.36285 0.1508 0.0
C553 C 0.23411 0.3429 0.13798 0.0
N554 N 0.20193 0.36369 0.14572 0.0
N555 N 0.2201 0.37506 0.15486 0.0
C556 C 0.19389 0.32535 0.12557 0.0
H557 H 0.1762 0.32647 0.13386 0.0
H558 H 0.20128 0.3075 0.12864 0.0
H559 H 0.19185 0.32808 0.10631 0.0
C560 C 0.12388 0.34568 0.1931 0.0
N561 N 0.13081 0.35492 0.17238 0.0
N562 N 0.15389 0.35351 0.17061 0.0
C563 C 0.16239 0.34263 0.18995 0.0
C564 C 0.14368 0.33754 0.20499 0.0
C565 C 0.09946 0.34858 0.20282 0.0
H566 H 0.09334 0.36689 0.19972 0.0
H567 H 0.08734 0.33647 0.1934 0.0
H568 H 0.09856 0.34497 0.22198 0.0
O569 O 0.12423 0.40649 0.15523 0.0
O570 O 0.16365 0.40567 0.15274 0.0
H571 H 0.19736 0.35513 0.19662 0.0
H572 H 0.19095 0.32675 0.20991 0.0
C573 C 0.18805 0.33809 0.19426 0.0
H574 H 0.19574 0.32902 0.17881 0.0
H575 H 0.21877 0.39084 0.16422 0.0
O576 O 0.07961 0.37029 0.15711 0.0
C577 C 0.14426 0.41676 0.15568 0.0
Co578 Co 0.12599 0.60143 0.8503 0.0
Co579 Co 0.17874 0.61683 0.84656 0.0
C580 C 0.15103 0.6233 0.89101 0.0
O581 O 0.1328 0.61358 0.88243 0.0
O582 O 0.16961 0.626 0.87885 0.0
C583 C 0.07846 0.61313 0.85568 0.0
O584 O 0.08792 0.63392 0.85952 0.0
C585 C 0.21519 0.65138 0.85073 0.0
C586 C 0.24725 0.63376 0.8374 0.0
C587 C 0.23929 0.65428 0.84807 0.0
N588 N 0.20921 0.63006 0.84257 0.0
N589 N 0.22838 0.61954 0.83448 0.0
C590 C 0.19768 0.66882 0.86005 0.0
H591 H 0.17978 0.66497 0.85319 0.0
H592 H 0.20284 0.68706 0.85516 0.0
H593 H 0.19709 0.66749 0.87951 0.0
C594 C 0.12266 0.63292 0.80801 0.0
N595 N 0.13477 0.62282 0.82581 0.0
N596 N 0.15714 0.62885 0.82397 0.0
C597 C 0.1599 0.64295 0.805 0.0
C598 C 0.1381 0.64608 0.79444 0.0
C599 C 0.09707 0.62903 0.8029 0.0
H600 H 0.09193 0.61075 0.80749 0.0
H601 H 0.08639 0.64157 0.81342 0.0
H602 H 0.09319 0.63224 0.78399 0.0
O603 O 0.14281 0.57136 0.84542 0.0
O604 O 0.18064 0.58201 0.84438 0.0
H605 H 0.19698 0.64011 0.79816 0.0
H606 H 0.18181 0.6609 0.77933 0.0
C607 C 0.18284 0.6536 0.79743 0.0
H608 H 0.18755 0.66811 0.80962 0.0
H609 H 0.22869 0.6025 0.82756 0.0
O610 O 0.09166 0.59578 0.85056 0.0
C611 C 0.16464 0.56625 0.8437 0.0
Co612 Co 0.38022 0.11547 0.8562 0.0
Co613 Co 0.37215 0.17008 0.85747 0.0
C614 C 0.36159 0.13871 0.89886 0.0
O615 O 0.36654 0.12007 0.88755 0.0
O616 O 0.36382 0.15902 0.88964 0.0
C617 C 0.38031 0.06535 0.86627 0.0
O618 O 0.38135 0.07157 0.88854 0.0
C619 C 0.34159 0.21062 0.86234 0.0
C620 C 0.36383 0.24017 0.85017 0.0
C621 C 0.34139 0.23492 0.85857 0.0
N622 N 0.36291 0.20225 0.85632 0.0
N623 N 0.37625 0.21998 0.84931 0.0
C624 C 0.32182 0.19488 0.87007 0.0
H625 H 0.326 0.17616 0.86621 0.0
H626 H 0.30518 0.19972 0.86101 0.0
H627 H 0.31929 0.19666 0.88938 0.0
C628 C 0.35006 0.11983 0.81452 0.0
N629 N 0.3611 0.12958 0.83301 0.0
N630 N 0.35679 0.15237 0.83342 0.0
C631 C 0.34266 0.15782 0.81501 0.0
C632 C 0.3377 0.13721 0.80267 0.0
C633 C 0.35271 0.09455 0.80744 0.0
H634 H 0.37165 0.08971 0.80771 0.0
H635 H 0.34316 0.08327 0.82027 0.0
H636 H 0.3458 0.09118 0.78948 0.0
O637 O 0.41243 0.12868 0.85473 0.0
O638 O 0.40665 0.16756 0.85278 0.0
H639 H 0.34772 0.19526 0.81266 0.0
H640 H 0.32697 0.18371 0.79154 0.0
C641 C 0.33361 0.18207 0.80979 0.0
H642 H 0.31873 0.18605 0.82178 0.0
H643 H 0.39366 0.21824 0.84359 0.0
O644 O 0.38087 0.08113 0.85037 0.0
C645 C 0.42026 0.14966 0.85276 0.0
Co646 Co 0.87477 0.38634 0.85443 0.0
Co647 Co 0.82243 0.37053 0.86136 0.0
C648 C 0.85527 0.37035 0.90149 0.0
O649 O 0.87101 0.37868 0.88791 0.0
O650 O 0.835 0.36482 0.89366 0.0
C651 C 0.92232 0.3729 0.85447 0.0
O652 O 0.9128 0.3523 0.85912 0.0
C653 C 0.78199 0.33844 0.8651 0.0
C654 C 0.75316 0.36077 0.8513 0.0
C655 C 0.7582 0.3383 0.8594 0.0
N656 N 0.79069 0.35989 0.86007 0.0
N657 N 0.77332 0.37323 0.85211 0.0
C658 C 0.79609 0.31894 0.87601 0.0
H659 H 0.81104 0.32623 0.88624 0.0
H660 H 0.80346 0.30746 0.86203 0.0
H661 H 0.78477 0.30797 0.88763 0.0
C662 C 0.87124 0.35463 0.81368 0.0
N663 N 0.86272 0.36299 0.83419 0.0
N664 N 0.84062 0.35627 0.83673 0.0
C665 C 0.83443 0.34327 0.81777 0.0
C666 C 0.85369 0.34169 0.80278 0.0
C667 C 0.89493 0.36084 0.80372 0.0
H668 H 0.89887 0.37968 0.80709 0.0
H669 H 0.90858 0.34994 0.81247 0.0
H670 H 0.89604 0.35732 0.78455 0.0
O671 O 0.85815 0.41605 0.84818 0.0
O672 O 0.82126 0.40509 0.85606 0.0
H673 H 0.79757 0.3512 0.81483 0.0
H674 H 0.80805 0.33038 0.79327 0.0
C675 C 0.80969 0.33617 0.81187 0.0
H676 H 0.80424 0.32137 0.82336 0.0
H677 H 0.77534 0.3907 0.84669 0.0
O678 O 0.90909 0.39058 0.85068 0.0
C679 C 0.83629 0.42079 0.85036 0.0
Co680 Co 0.6278 0.87712 0.86061 0.0
Co681 Co 0.63245 0.82227 0.85632 0.0
C682 C 0.63663 0.84711 0.90288 0.0
O683 O 0.63339 0.86731 0.89377 0.0
O684 O 0.63692 0.82874 0.89016 0.0
C685 C 0.64722 0.92058 0.87184 0.0
O686 O 0.66136 0.90638 0.88345 0.0
C687 C 0.66434 0.78365 0.85919 0.0
C688 C 0.64881 0.75586 0.83694 0.0
C689 C 0.66892 0.76177 0.84951 0.0
N690 N 0.64279 0.79061 0.85244 0.0
N691 N 0.63321 0.77366 0.83964 0.0
C692 C 0.68124 0.7991 0.87238 0.0
H693 H 0.67426 0.80225 0.89036 0.0
H694 H 0.68272 0.81644 0.86345 0.0
H695 H 0.69894 0.79095 0.87403 0.0
C696 C 0.66044 0.87543 0.82013 0.0
N697 N 0.64974 0.86493 0.83866 0.0
N698 N 0.65053 0.84193 0.83589 0.0
C699 C 0.66129 0.83709 0.81523 0.0
C700 C 0.66809 0.8581 0.80469 0.0
C701 C 0.6594 0.90135 0.81517 0.0
H702 H 0.64086 0.90749 0.81618 0.0
H703 H 0.66977 0.91089 0.82869 0.0
H704 H 0.66658 0.90573 0.79751 0.0
O705 O 0.59595 0.86623 0.85079 0.0
O706 O 0.59875 0.82684 0.84885 0.0
H707 H 0.64381 0.80655 0.80169 0.0
H708 H 0.67161 0.813 0.78721 0.0
C709 C 0.66205 0.81312 0.80425 0.0
H710 H 0.67122 0.80091 0.81615 0.0
H711 H 0.61682 0.77496 0.83139 0.0
O712 O 0.63014 0.91186 0.86026 0.0
C713 C 0.58695 0.84593 0.84703 0.0
Co714 Co 0.88888 0.63585 0.13935 0.0
Co715 Co 0.83325 0.63735 0.13674 0.0
C716 C 0.86224 0.64742 0.09459 0.0
O717 O 0.88084 0.64388 0.10651 0.0
O718 O 0.8419 0.64563 0.10386 0.0
C719 C 0.93181 0.65863 0.13064 0.0
O720 O 0.91715 0.67311 0.12009 0.0
C721 C 0.78782 0.66147 0.13462 0.0
C722 C 0.7645 0.63773 0.15467 0.0
C723 C 0.76522 0.65962 0.14382 0.0
N724 N 0.79986 0.64175 0.13983 0.0
N725 N 0.78556 0.62726 0.15119 0.0
C726 C 0.79875 0.68292 0.12374 0.0
H727 H 0.81826 0.6822 0.12518 0.0
H728 H 0.79202 0.69923 0.1322 0.0
H729 H 0.7939 0.68357 0.10481 0.0
C730 C 0.88047 0.66532 0.18075 0.0
N731 N 0.87278 0.65521 0.16071 0.0
N732 N 0.84958 0.65605 0.15992 0.0
C733 C 0.84186 0.66698 0.17958 0.0
C734 C 0.86109 0.67304 0.19344 0.0
C735 C 0.90546 0.66396 0.18915 0.0
H736 H 0.91216 0.64572 0.18693 0.0
H737 H 0.91654 0.67579 0.17818 0.0
H738 H 0.90716 0.66922 0.2079 0.0
O739 O 0.88011 0.60278 0.14647 0.0
O740 O 0.8409 0.60354 0.14255 0.0
H741 H 0.80729 0.65326 0.18605 0.0
H742 H 0.81415 0.6794 0.20296 0.0
C743 C 0.8165 0.67049 0.18575 0.0
H744 H 0.80844 0.68186 0.17217 0.0
H745 H 0.7907 0.61099 0.15808 0.0
O746 O 0.92359 0.64082 0.14159 0.0
C747 C 0.86008 0.59251 0.14671 0.0
Co748 Co 0.36385 0.88641 0.14075 0.0
Co749 Co 0.36404 0.83118 0.14507 0.0
C750 C 0.35574 0.85552 0.09885 0.0
O751 O 0.35786 0.87598 0.10778 0.0
O752 O 0.35725 0.83717 0.1116 0.0
C753 C 0.34356 0.9305 0.12918 0.0
O754 O 0.33033 0.91686 0.11596 0.0
C755 C 0.33964 0.78635 0.14323 0.0
C756 C 0.36585 0.76108 0.15699 0.0
C757 C 0.34317 0.76247 0.14783 0.0
N758 N 0.35924 0.79819 0.14923 0.0
N759 N 0.37491 0.78302 0.15736 0.0
C760 C 0.31782 0.79838 0.13451 0.0
H761 H 0.31837 0.81749 0.13863 0.0
H762 H 0.30186 0.79044 0.14261 0.0
H763 H 0.31675 0.7965 0.11508 0.0
C764 C 0.33173 0.88142 0.18135 0.0
N765 N 0.34377 0.87195 0.16321 0.0
N766 N 0.34431 0.84888 0.16569 0.0
C767 C 0.33264 0.84297 0.18559 0.0
C768 C 0.32426 0.86342 0.19613 0.0
C769 C 0.32916 0.90737 0.18546 0.0
H770 H 0.3204 0.91549 0.17001 0.0
H771 H 0.31849 0.91122 0.20138 0.0
H772 H 0.34688 0.91545 0.18734 0.0
O773 O 0.39691 0.87869 0.1491 0.0
O774 O 0.39761 0.83934 0.15071 0.0
H775 H 0.3273 0.81903 0.21491 0.0
H776 H 0.31978 0.8076 0.18629 0.0
C777 C 0.33251 0.81874 0.19606 0.0
H778 H 0.35025 0.81067 0.19435 0.0
H779 H 0.39177 0.78764 0.16311 0.0
O780 O 0.35961 0.92118 0.14174 0.0
C781 C 0.40792 0.85929 0.15206 0.0
Co782 Co 0.62115 0.11157 0.13765 0.0
Co783 Co 0.63085 0.16606 0.14263 0.0
C784 C 0.63492 0.14131 0.09637 0.0
O785 O 0.62961 0.12151 0.10537 0.0
O786 O 0.63597 0.15978 0.10891 0.0
C787 C 0.63903 0.06725 0.12614 0.0
O788 O 0.65437 0.08103 0.11557 0.0
C789 C 0.66011 0.20717 0.13668 0.0
C790 C 0.64229 0.23494 0.15731 0.0
C791 C 0.66144 0.23089 0.14259 0.0
N792 N 0.64102 0.1978 0.1471 0.0
N793 N 0.63036 0.21446 0.15941 0.0
C794 C 0.67767 0.19282 0.12313 0.0
H795 H 0.67652 0.17397 0.12826 0.0
H796 H 0.69587 0.19929 0.12629 0.0
H797 H 0.67376 0.19417 0.10403 0.0
C798 C 0.65234 0.11082 0.17892 0.0
N799 N 0.64262 0.12236 0.16064 0.0
N800 N 0.64784 0.14491 0.16211 0.0
C801 C 0.6618 0.14834 0.18102 0.0
C802 C 0.66496 0.12683 0.19243 0.0
C803 C 0.6464 0.08585 0.18526 0.0
H804 H 0.62775 0.08207 0.18083 0.0
H805 H 0.65783 0.07373 0.17501 0.0
H806 H 0.649 0.08237 0.20432 0.0
O807 O 0.58958 0.12432 0.14488 0.0
O808 O 0.59655 0.16283 0.14952 0.0
H809 H 0.65697 0.18287 0.19538 0.0
H810 H 0.6857 0.17018 0.20139 0.0
C811 C 0.67144 0.17186 0.18815 0.0
H812 H 0.67881 0.18095 0.17258 0.0
H813 H 0.61492 0.21189 0.1691 0.0
O814 O 0.62186 0.0765 0.13724 0.0
C815 C 0.58249 0.14521 0.14939 0.0
H816 H 0.13832 0.16384 0.54256 0.0
H817 H 0.19782 0.11638 0.55001 0.0
H818 H 0.20118 0.1137 0.50662 0.0
H819 H 0.11176 0.13701 0.49436 0.0
H820 H 0.10323 0.16394 0.47979 0.0
H821 H 0.10644 0.16335 0.51132 0.0
H822 H 0.13644 0.19779 0.50922 0.0
H823 H 0.13309 0.1987 0.47766 0.0
H824 H 0.16197 0.19522 0.49044 0.0
H825 H 0.19434 0.11205 0.46284 0.0
H826 H 0.18177 0.11657 0.42122 0.0
H827 H 0.12944 0.16801 0.44264 0.0
C828 C 0.15228 0.15323 0.53499 0.0
C829 C 0.16778 0.14027 0.5494 0.0
C830 C 0.18591 0.12657 0.53909 0.0
C831 C 0.18787 0.12485 0.51455 0.0
C832 C 0.17193 0.13742 0.50076 0.0
C833 C 0.15487 0.15182 0.51059 0.0
C834 C 0.13991 0.16346 0.4919 0.0
C835 C 0.1138 0.15651 0.49451 0.0
C836 C 0.14305 0.19039 0.49233 0.0
C837 C 0.15073 0.15279 0.47005 0.0
C838 C 0.16902 0.13763 0.47549 0.0
C839 C 0.18042 0.12427 0.45828 0.0
C840 C 0.1731 0.12679 0.43482 0.0
C841 C 0.15494 0.14282 0.42897 0.0
C842 C 0.1437 0.15598 0.44676 0.0
H843 H 0.86497 0.13521 0.4475 0.0
H844 H 0.80792 0.18487 0.43626 0.0
H845 H 0.80669 0.1931 0.47917 0.0
H846 H 0.84116 0.11054 0.50004 0.0
H847 H 0.86949 0.10612 0.51373 0.0
H848 H 0.86696 0.10567 0.48211 0.0
H849 H 0.89864 0.13849 0.4789 0.0
H850 H 0.9013 0.13903 0.51052 0.0
H851 H 0.89452 0.16575 0.4947 0.0
H852 H 0.81273 0.19639 0.52324 0.0
H853 H 0.82255 0.19145 0.56551 0.0
H854 H 0.87292 0.13683 0.54742 0.0
C855 C 0.85242 0.14803 0.45406 0.0
C856 C 0.83676 0.1597 0.43874 0.0
C857 C 0.82012 0.17589 0.44788 0.0
C858 C 0.81937 0.1807 0.47212 0.0
C859 C 0.83507 0.1688 0.48682 0.0
C860 C 0.85105 0.15256 0.47815 0.0
C861 C 0.86494 0.14098 0.49768 0.0
C862 C 0.86035 0.11425 0.49843 0.0
C863 C 0.89142 0.1464 0.4953 0.0
C864 C 0.85433 0.15326 0.51876 0.0
C865 C 0.83742 0.16953 0.51216 0.0
C866 C 0.82578 0.18356 0.52863 0.0
C867 C 0.83148 0.18069 0.5525 0.0
C868 C 0.84825 0.1636 0.55953 0.0
C869 C 0.85977 0.14977 0.54245 0.0
H870 H 0.8355 0.86945 0.45738 0.0
H871 H 0.87372 0.80441 0.4444 0.0
H872 H 0.87655 0.79749 0.48725 0.0
H873 H 0.86716 0.88771 0.50767 0.0
H874 H 0.84183 0.89907 0.52316 0.0
H875 H 0.84203 0.89847 0.49145 0.0
H876 H 0.80323 0.87432 0.49164 0.0
H877 H 0.80294 0.8748 0.5234 0.0
H878 H 0.80182 0.84706 0.50796 0.0
H879 H 0.87885 0.79975 0.53116 0.0
H880 H 0.87778 0.80962 0.57363 0.0
H881 H 0.83507 0.87114 0.55837 0.0
C882 C 0.84435 0.8537 0.46359 0.0
C883 C 0.8545 0.83752 0.44762 0.0
C884 C 0.86577 0.817 0.45635 0.0
C885 C 0.86748 0.81292 0.48064 0.0
C886 C 0.85741 0.82927 0.49592 0.0
C887 C 0.84578 0.84909 0.48777 0.0
C888 C 0.83663 0.86393 0.50799 0.0
C889 C 0.84757 0.88876 0.50754 0.0
C890 C 0.80954 0.86509 0.50772 0.0
C891 C 0.8455 0.84969 0.52876 0.0
C892 C 0.85753 0.82981 0.52138 0.0
C893 C 0.86905 0.81497 0.53721 0.0
C894 C 0.8684 0.8207 0.56121 0.0
C895 C 0.85597 0.84082 0.5691 0.0
C896 C 0.84411 0.85528 0.55273 0.0
H897 H 0.16391 0.86257 0.54365 0.0
H898 H 0.11706 0.80288 0.55359 0.0
H899 H 0.11086 0.8007 0.51053 0.0
H900 H 0.13281 0.89028 0.498 0.0
H901 H 0.15853 0.89931 0.48163 0.0
H902 H 0.1603 0.89545 0.51307 0.0
H903 H 0.19472 0.86585 0.50779 0.0
H904 H 0.19321 0.86978 0.47632 0.0
H905 H 0.1909 0.84065 0.48883 0.0
H906 H 0.10631 0.80801 0.46707 0.0
H907 H 0.1077 0.82094 0.42546 0.0
H908 H 0.15999 0.87373 0.44344 0.0
C909 C 0.15258 0.84885 0.53672 0.0
C910 C 0.14089 0.83292 0.5519 0.0
C911 C 0.12629 0.81515 0.54222 0.0
C912 C 0.12259 0.81385 0.51782 0.0
C913 C 0.134 0.83015 0.50338 0.0
C914 C 0.14909 0.84699 0.5124 0.0
C915 C 0.15919 0.8624 0.49306 0.0
C916 C 0.15229 0.88839 0.49666 0.0
C917 C 0.1861 0.85948 0.4914 0.0
C918 C 0.14697 0.85196 0.47179 0.0
C919 C 0.13236 0.83351 0.47815 0.0
C920 C 0.11801 0.82214 0.46181 0.0
C921 C 0.1188 0.82969 0.43829 0.0
C922 C 0.1341 0.84815 0.43132 0.0
C923 C 0.14843 0.85932 0.44829 0.0
H924 H 0.44564 0.12178 0.13029 0.0
H925 H 0.43145 0.18315 0.17346 0.0
H926 H 0.47439 0.18868 0.17972 0.0
H927 H 0.4939 0.10025 0.16708 0.0
H928 H 0.51028 0.08888 0.14234 0.0
H929 H 0.47855 0.0901 0.1412 0.0
H930 H 0.48082 0.11462 0.10267 0.0
H931 H 0.51252 0.11347 0.10369 0.0
H932 H 0.49771 0.14156 0.10225 0.0
H933 H 0.51898 0.18889 0.17857 0.0
H934 H 0.56173 0.18172 0.1733 0.0
H935 H 0.54603 0.11805 0.13394 0.0
C936 C 0.45168 0.13636 0.14102 0.0
C937 C 0.43555 0.15224 0.15121 0.0
C938 C 0.44377 0.17089 0.16553 0.0
C939 C 0.46803 0.17415 0.16913 0.0
C940 C 0.48359 0.15819 0.15877 0.0
C941 C 0.47571 0.13942 0.14537 0.0
C942 C 0.49596 0.12433 0.13685 0.0
C943 C 0.49458 0.09942 0.14751 0.0
C944 C 0.49679 0.12346 0.10976 0.0
C945 C 0.51653 0.13799 0.14683 0.0
C946 C 0.50908 0.15751 0.15936 0.0
C947 C 0.52502 0.17346 0.16913 0.0
C948 C 0.54922 0.1693 0.16598 0.0
C949 C 0.55713 0.14921 0.15346 0.0
C950 C 0.54051 0.13333 0.14397 0.0
H951 H 0.83566 0.5577 0.12426 0.0
H952 H 0.88222 0.57102 0.18328 0.0
H953 H 0.87972 0.52897 0.19484 0.0
H954 H 0.79875 0.51256 0.15139 0.0
H955 H 0.79729 0.49489 0.12504 0.0
H956 H 0.80068 0.52641 0.12284 0.0
H957 H 0.83841 0.52085 0.09762 0.0
H958 H 0.835 0.48937 0.09956 0.0
H959 H 0.86218 0.50297 0.10884 0.0
H960 H 0.87199 0.48561 0.19991 0.0
H961 H 0.86516 0.4429 0.19454 0.0
H962 H 0.82688 0.45726 0.12995 0.0
C963 C 0.84509 0.55171 0.13973 0.0
C964 C 0.85892 0.56743 0.1531 0.0
C965 C 0.87153 0.55908 0.17291 0.0
C966 C 0.87005 0.53534 0.17968 0.0
C967 C 0.85623 0.5202 0.16616 0.0
C968 C 0.84436 0.52794 0.14632 0.0
C969 C 0.83271 0.50765 0.1335 0.0
C970 C 0.80576 0.51056 0.13318 0.0
C971 C 0.84268 0.50506 0.1084 0.0
C972 C 0.84005 0.48727 0.14911 0.0
C973 C 0.85309 0.49496 0.16818 0.0
C974 C 0.86184 0.47936 0.18503 0.0
C975 C 0.85775 0.45518 0.18193 0.0
C976 C 0.84553 0.44687 0.16184 0.0
C977 C 0.83628 0.46319 0.14547 0.0
H978 H 0.5447 0.83139 0.13237 0.0
H979 H 0.55855 0.88024 0.18958 0.0
H980 H 0.51593 0.88642 0.19484 0.0
H981 H 0.49495 0.86124 0.10787 0.0
H982 H 0.47852 0.8348 0.10149 0.0
H983 H 0.51027 0.834 0.10201 0.0
H984 H 0.50901 0.80044 0.133 0.0
H985 H 0.47724 0.80113 0.13256 0.0
H986 H 0.4928 0.8047 0.16001 0.0
H987 H 0.47249 0.88999 0.192 0.0
H988 H 0.42973 0.88747 0.18379 0.0
H989 H 0.44301 0.83356 0.13129 0.0
C990 C 0.53867 0.8433 0.14601 0.0
C991 C 0.55488 0.85538 0.16053 0.0
C992 C 0.54641 0.8707 0.17835 0.0
C993 C 0.52225 0.8744 0.18144 0.0
C994 C 0.50671 0.86232 0.16688 0.0
C995 C 0.51446 0.84679 0.14976 0.0
C996 C 0.49379 0.83572 0.13692 0.0
C997 C 0.49443 0.84181 0.11051 0.0
C998 C 0.49318 0.80891 0.14087 0.0
C999 C 0.47336 0.84782 0.14924 0.0
C1000 C 0.4813 0.86328 0.16629 0.0
C1001 C 0.46597 0.87767 0.179 0.0
C1002 C 0.4418 0.87618 0.1742 0.0
C1003 C 0.43327 0.86011 0.15723 0.0
C1004 C 0.44919 0.84562 0.14472 0.0
H1005 H 0.16631 0.45011 0.12895 0.0
H1006 H 0.12197 0.44049 0.19047 0.0
H1007 H 0.11959 0.48373 0.1956 0.0
H1008 H 0.19767 0.50346 0.14852 0.0
H1009 H 0.19698 0.51677 0.11967 0.0
H1010 H 0.19771 0.48514 0.12257 0.0
H1011 H 0.15982 0.48201 0.09727 0.0
H1012 H 0.15887 0.51361 0.09443 0.0
H1013 H 0.13377 0.49796 0.1061 0.0
H1014 H 0.12104 0.52737 0.19345 0.0
H1015 H 0.12375 0.56939 0.18273 0.0
H1016 H 0.16426 0.55105 0.1204 0.0
C1017 C 0.1566 0.45723 0.14377 0.0
C1018 C 0.14466 0.44226 0.15963 0.0
C1019 C 0.13139 0.45191 0.17837 0.0
C1020 C 0.13 0.47634 0.18142 0.0
C1021 C 0.14164 0.49075 0.16528 0.0
C1022 C 0.15451 0.48163 0.1467 0.0
C1023 C 0.16346 0.50106 0.13067 0.0
C1024 C 0.19057 0.50164 0.13035 0.0
C1025 C 0.15337 0.4985 0.10564 0.0
C1026 C 0.15342 0.52247 0.14306 0.0
C1027 C 0.14126 0.51608 0.1632 0.0
C1028 C 0.13051 0.53264 0.17773 0.0
C1029 C 0.13217 0.55643 0.1715 0.0
C1030 C 0.14413 0.56339 0.1507 0.0
C1031 C 0.15486 0.54616 0.1363 0.0
H1032 H 0.45044 0.83046 0.87261 0.0
H1033 H 0.43762 0.8578 0.80227 0.0
H1034 H 0.48042 0.85829 0.79462 0.0
H1035 H 0.50067 0.86372 0.88514 0.0
H1036 H 0.51616 0.8406 0.90049 0.0
H1037 H 0.48443 0.84071 0.89991 0.0
H1038 H 0.48442 0.79852 0.88238 0.0
H1039 H 0.51619 0.79823 0.88301 0.0
H1040 H 0.50081 0.79263 0.8558 0.0
H1041 H 0.52437 0.8605 0.79636 0.0
H1042 H 0.56694 0.86069 0.80631 0.0
H1043 H 0.5513 0.82918 0.8741 0.0
C1044 C 0.45664 0.83626 0.8555 0.0
C1045 C 0.44075 0.84416 0.83806 0.0
C1046 C 0.44949 0.85157 0.81586 0.0
C1047 C 0.47376 0.85195 0.81134 0.0
C1048 C 0.48898 0.84442 0.82904 0.0
C1049 C 0.48079 0.83635 0.85054 0.0
C1050 C 0.50094 0.82972 0.86671 0.0
C1051 C 0.50051 0.84458 0.8894 0.0
C1052 C 0.50056 0.80319 0.8723 0.0
C1053 C 0.52172 0.83609 0.85123 0.0
C1054 C 0.51444 0.84457 0.82957 0.0
C1055 C 0.53034 0.85339 0.81302 0.0
C1056 C 0.55436 0.85351 0.81879 0.0
C1057 C 0.56205 0.84458 0.8407 0.0
C1058 C 0.54565 0.83558 0.85702 0.0
H1059 H 0.13784 0.43113 0.82409 0.0
H1060 H 0.19703 0.41663 0.87003 0.0
H1061 H 0.20913 0.45854 0.86771 0.0
H1062 H 0.16493 0.47978 0.78824 0.0
H1063 H 0.13775 0.49626 0.78822 0.0
H1064 H 0.13707 0.46448 0.78894 0.0
H1065 H 0.11143 0.46591 0.82677 0.0
H1066 H 0.11214 0.49758 0.82625 0.0
H1067 H 0.12199 0.48192 0.85209 0.0
H1068 H 0.21229 0.50244 0.86364 0.0
H1069 H 0.20389 0.54522 0.86195 0.0
H1070 H 0.14026 0.53112 0.82206 0.0
C1071 C 0.15385 0.4367 0.83287 0.0
C1072 C 0.16691 0.42081 0.84675 0.0
C1073 C 0.18711 0.42868 0.85902 0.0
C1074 C 0.19413 0.45234 0.85769 0.0
C1075 C 0.1805 0.46783 0.84432 0.0
C1076 C 0.16064 0.46035 0.83229 0.0
C1077 C 0.14686 0.48093 0.82243 0.0
C1078 C 0.14665 0.48032 0.79535 0.0
C1079 C 0.12163 0.48162 0.8325 0.0
C1080 C 0.16159 0.5012 0.83147 0.0
C1081 C 0.18132 0.4933 0.8434 0.0
C1082 C 0.19703 0.50884 0.85415 0.0
C1083 C 0.19215 0.53305 0.85309 0.0
C1084 C 0.17141 0.54129 0.84195 0.0
C1085 C 0.15623 0.52519 0.83069 0.0
H1086 H 0.45577 0.12576 0.87441 0.0
H1087 H 0.44179 0.18114 0.82357 0.0
H1088 H 0.48459 0.18454 0.81547 0.0
H1089 H 0.50938 0.15271 0.89791 0.0
H1090 H 0.52367 0.1247 0.90255 0.0
H1091 H 0.49201 0.12684 0.90423 0.0
H1092 H 0.48821 0.09409 0.87262 0.0
H1093 H 0.51984 0.092 0.87068 0.0
H1094 H 0.50271 0.09774 0.84456 0.0
H1095 H 0.52828 0.17898 0.81033 0.0
H1096 H 0.57077 0.16924 0.81271 0.0
H1097 H 0.55643 0.12048 0.86984 0.0
C1098 C 0.46181 0.13869 0.86169 0.0
C1099 C 0.44569 0.1531 0.84944 0.0
C1100 C 0.45403 0.17003 0.83313 0.0
C1101 C 0.47821 0.17198 0.82836 0.0
C1102 C 0.49368 0.15725 0.8405 0.0
C1103 C 0.48587 0.14131 0.85722 0.0
C1104 C 0.50618 0.12805 0.86831 0.0
C1105 C 0.50791 0.13341 0.89482 0.0
C1106 C 0.5041 0.10139 0.86376 0.0
C1107 C 0.52661 0.13866 0.85487 0.0
C1108 C 0.519 0.15523 0.83868 0.0
C1109 C 0.53451 0.16636 0.8232 0.0
C1110 C 0.5585 0.16063 0.82457 0.0
C1111 C 0.56667 0.14433 0.84159 0.0
C1112 C 0.55055 0.13326 0.85692 0.0
H1113 H 0.85749 0.55454 0.82058 0.0
H1114 H 0.80396 0.57038 0.87274 0.0
H1115 H 0.79189 0.52844 0.87311 0.0
H1116 H 0.82649 0.50419 0.78996 0.0
H1117 H 0.85375 0.48808 0.78725 0.0
H1118 H 0.85393 0.51986 0.78644 0.0
H1119 H 0.88413 0.52044 0.8207 0.0
H1120 H 0.88392 0.48881 0.82176 0.0
H1121 H 0.87708 0.50553 0.84789 0.0
H1122 H 0.78929 0.48454 0.8717 0.0
H1123 H 0.7988 0.44203 0.87178 0.0
H1124 H 0.85656 0.4549 0.82329 0.0
C1125 C 0.84259 0.54929 0.83132 0.0
C1126 C 0.83127 0.56556 0.84627 0.0
C1127 C 0.81257 0.55806 0.86096 0.0
C1128 C 0.80554 0.53437 0.86116 0.0
C1129 C 0.81761 0.51851 0.84675 0.0
C1130 C 0.83584 0.52567 0.83218 0.0
C1131 C 0.84868 0.50484 0.8216 0.0
C1132 C 0.84551 0.50421 0.79471 0.0
C1133 C 0.87499 0.50492 0.82842 0.0
C1134 C 0.83556 0.48485 0.83334 0.0
C1135 C 0.81717 0.49303 0.84711 0.0
C1136 C 0.80341 0.47789 0.86073 0.0
C1137 C 0.80895 0.45381 0.86068 0.0
C1138 C 0.82846 0.44534 0.84761 0.0
C1139 C 0.84155 0.46099 0.83341 0.0
H1140 H 0.15845 0.9475 0.36216 0.0
H1141 H 0.09263 0.92748 0.32865 0.0
H1142 H 0.08549 0.96891 0.31777 0.0
H1143 H 0.13657 0.00012 0.38756 0.0
H1144 H 0.16341 0.01669 0.38358 0.0
H1145 H 0.16461 0.98514 0.38679 0.0
H1146 H 0.18725 0.98192 0.34723 0.0
H1147 H 0.18606 0.0135 0.34386 0.0
H1148 H 0.1747 0.99467 0.32096 0.0
H1149 H 0.08461 0.01228 0.31165 0.0
H1150 H 0.08848 0.05552 0.31336 0.0
H1151 H 0.15401 0.04801 0.35225 0.0
C1152 C 0.14271 0.95183 0.35226 0.0
C1153 C 0.12616 0.93427 0.34613 0.0
C1154 C 0.10554 0.94065 0.33357 0.0
C1155 C 0.10139 0.96411 0.32717 0.0
C1156 C 0.11794 0.98103 0.3336 0.0
C1157 C 0.1381 0.97528 0.34603 0.0
C1158 C 0.15211 0.99715 0.35226 0.0
C1159 C 0.15429 -7e-05 0.37914 0.0
C1160 C 0.17647 0.99678 0.34036 0.0
C1161 C 0.13645 0.01606 0.3417 0.0
C1162 C 0.11705 0.00631 0.3307 0.0
C1163 C 0.09978 0.02017 0.32011 0.0
C1164 C 0.10216 0.04472 0.32116 0.0
C1165 C 0.12152 0.05515 0.33296 0.0
C1166 C 0.13903 0.04056 0.34306 0.0
H1167 H 0.95817 0.10381 0.36231 0.0
H1168 H 0.93562 0.17695 0.36565 0.0
H1169 H 0.97672 0.18987 0.36069 0.0
H1170 H 0.01096 0.11164 0.39553 0.0
H1171 H 0.02804 0.09099 0.37845 0.0
H1172 H 0.9966 0.08733 0.38095 0.0
H1173 H 0.993 0.08752 0.33542 0.0
H1174 H 0.02445 0.09132 0.3328 0.0
H1175 H 0.00475 0.11202 0.31889 0.0
H1176 H 0.01986 0.19511 0.35634 0.0
H1177 H 0.06314 0.19241 0.35516 0.0
H1178 H 0.05835 0.11592 0.35528 0.0
C1179 C 0.96187 0.12253 0.36187 0.0
C1180 C 0.94364 0.13936 0.36426 0.0
C1181 C 0.94924 0.16371 0.36381 0.0
C1182 C 0.97254 0.17125 0.36091 0.0
C1183 C 0.99006 0.15425 0.35854 0.0
C1184 C 0.98511 0.13041 0.35912 0.0
C1185 C 0.00747 0.11588 0.35725 0.0
C1186 C 0.01097 0.10056 0.37936 0.0
C1187 C 0.0074 0.1008 0.33475 0.0
C1188 C 0.02572 0.13533 0.35581 0.0
C1189 C 0.01522 0.1573 0.35635 0.0
C1190 C 0.02833 0.17802 0.35584 0.0
C1191 C 0.05292 0.17628 0.35519 0.0
C1192 C 0.06417 0.15395 0.35519 0.0
C1193 C 0.0503 0.13324 0.35514 0.0
H1194 H 0.88826 0.96568 0.38048 0.0
H1195 H 0.81486 0.94384 0.37807 0.0
H1196 H 0.80287 0.98499 0.37112 0.0
H1197 H 0.87811 0.02016 0.41124 0.0
H1198 H 0.90053 0.03612 0.3953 0.0
H1199 H 0.90341 0.0048 0.39962 0.0
H1200 H 0.90736 -0.00095 0.35448 0.0
H1201 H 0.90425 0.03035 0.35002 0.0
H1202 H 0.88462 0.0102 0.33528 0.0
H1203 H 0.7987 0.02815 0.36434 0.0
H1204 H 0.80225 0.07127 0.36108 0.0
H1205 H 0.87833 0.06553 0.36838 0.0
C1206 C 0.86966 0.96954 0.37854 0.0
C1207 C 0.85251 0.95148 0.37973 0.0
C1208 C 0.82834 0.95732 0.37719 0.0
C1209 C 0.82134 0.98065 0.37314 0.0
C1210 C 0.8387 0.99795 0.37177 0.0
C1211 C 0.86233 0.99278 0.37459 0.0
C1212 C 0.87732 0.01484 0.37296 0.0
C1213 C 0.89062 0.01924 0.39616 0.0
C1214 C 0.89439 0.01352 0.35193 0.0
C1215 C 0.85837 0.03323 0.36892 0.0
C1216 C 0.83626 0.02304 0.3681 0.0
C1217 C 0.81591 0.03637 0.36494 0.0
C1218 C 0.81815 0.06087 0.36308 0.0
C1219 C 0.84058 0.07184 0.36449 0.0
C1220 C 0.86096 0.05771 0.36707 0.0
H1221 H 0.93243 0.8273 0.36715 0.0
H1222 H 0.90984 0.89144 0.33221 0.0
H1223 H 0.95084 0.89884 0.31924 0.0
H1224 H 0.98397 0.85161 0.39054 0.0
H1225 H 0.0016 0.82531 0.38772 0.0
H1226 H 0.97013 0.82299 0.39106 0.0
H1227 H 0.96768 0.79864 0.35252 0.0
H1228 H -0.00078 0.80083 0.34908 0.0
H1229 H 0.97999 0.81049 0.3257 0.0
H1230 H 0.99418 0.90039 0.31197 0.0
H1231 H 0.03752 0.89829 0.31391 0.0
H1232 H 0.03258 0.83474 0.35635 0.0
C1233 C 0.9361 0.84256 0.35625 0.0
C1234 C 0.91806 0.85863 0.35026 0.0
C1235 C 0.92349 0.87886 0.33673 0.0
C1236 C 0.94665 0.88313 0.32923 0.0
C1237 C 0.96416 0.86714 0.33573 0.0
C1238 C 0.95922 0.84738 0.34912 0.0
C1239 C 0.98161 0.83448 0.35596 0.0
C1240 C 0.98449 0.83356 0.38292 0.0
C1241 C 0.98215 0.80964 0.34516 0.0
C1242 C -8e-05 0.85034 0.34469 0.0
C1243 C 0.98941 0.86876 0.33267 0.0
C1244 C 0.00262 0.886 0.32123 0.0
C1245 C 0.02724 0.88462 0.32241 0.0
C1246 C 0.03841 0.86637 0.33532 0.0
C1247 C 0.02452 0.84888 0.34636 0.0
H1248 H 0.11789 0.05714 0.61652 0.0
H1249 H 0.18674 0.06391 0.64929 0.0
H1250 H 0.19054 0.02075 0.65046 0.0
H1251 H 0.09988 0.00265 0.64836 0.0
H1252 H 0.0853 0.99074 0.62279 0.0
H1253 H 0.08673 0.0222 0.62703 0.0
H1254 H 0.10594 0.02672 0.58583 0.0
H1255 H 0.10494 0.99529 0.5816 0.0
H1256 H 0.13262 0.01074 0.5792 0.0
H1257 H 0.18903 0.97752 0.64439 0.0
H1258 H 0.18076 0.93609 0.63431 0.0
H1259 H 0.11286 0.9568 0.60552 0.0
C1260 C 0.13345 0.04952 0.62453 0.0
C1261 C 0.15197 0.06392 0.63289 0.0
C1262 C 0.17229 0.05327 0.64281 0.0
C1263 C 0.17465 0.02874 0.64355 0.0
C1264 C 0.1565 0.01507 0.63438 0.0
C1265 C 0.13615 0.02498 0.62533 0.0
C1266 C 0.11992 0.0062 0.61546 0.0
C1267 C 0.09658 0.0054 0.62924 0.0
C1268 C 0.11562 0.00997 0.58895 0.0
C1269 C 0.13462 0.98433 0.61992 0.0
C1270 C 0.1556 0.98988 0.63092 0.0
C1271 C 0.17252 0.97285 0.63605 0.0
C1272 C 0.16771 0.94939 0.63012 0.0
C1273 C 0.14614 0.94318 0.61918 0.0
C1274 C 0.12946 0.96096 0.61396 0.0
H1275 H 0.03725 0.10124 0.62572 0.0
H1276 H 0.06242 0.17283 0.61541 0.0
H1277 H 0.02225 0.18792 0.6222 0.0
H1278 H 0.98241 0.10956 0.59527 0.0
H1279 H 0.96598 0.09054 0.61474 0.0
H1280 H 0.99698 0.08552 0.61012 0.0
H1281 H 0.00393 0.08796 0.6552 0.0
H1282 H 0.97296 0.09329 0.65992 0.0
H1283 H 0.99448 0.11381 0.67108 0.0
H1284 H 0.97949 0.19536 0.63044 0.0
H1285 H 0.93622 0.19433 0.63474 0.0
H1286 H 0.93855 0.11783 0.63813 0.0
C1287 C 0.03433 0.12009 0.62491 0.0
C1288 C 0.05307 0.13585 0.6203 0.0
C1289 C 0.04842 0.16038 0.61909 0.0
C1290 C 0.02566 0.16916 0.62302 0.0
C1291 C 0.00768 0.15318 0.62789 0.0
C1292 C 0.01165 0.12915 0.6285 0.0
C1293 C 0.98898 0.11571 0.63287 0.0
C1294 C 0.98325 0.09938 0.61201 0.0
C1295 C 0.99017 0.10188 0.65616 0.0
C1296 C 0.97165 0.13596 0.6345 0.0
C1297 C 0.98285 0.15743 0.63192 0.0
C1298 C 0.97049 0.17865 0.63246 0.0
C1299 C 0.94591 0.17787 0.63502 0.0
C1300 C 0.93393 0.156 0.63672 0.0
C1301 C 0.94714 0.13484 0.63693 0.0
H1302 H 0.84206 0.94197 0.66445 0.0
H1303 H 0.89253 0.92786 0.60865 0.0
H1304 H 0.89809 0.97049 0.60263 0.0
H1305 H 0.81568 0.9939 0.63925 0.0
H1306 H 0.8134 0.00953 0.66681 0.0
H1307 H 0.81259 0.97778 0.66648 0.0
H1308 H 0.84755 0.97642 0.69581 0.0
H1309 H 0.84844 0.00817 0.69626 0.0
H1310 H 0.87453 0.99167 0.68867 0.0
H1311 H 0.89664 0.01394 0.60083 0.0
H1312 H 0.8918 0.05681 0.60654 0.0
H1313 H 0.84551 0.04376 0.66605 0.0
C1314 C 0.85423 0.94798 0.651 0.0
C1315 C 0.86682 0.93175 0.63693 0.0
C1316 C 0.88283 0.94008 0.61967 0.0
C1317 C 0.88603 0.96422 0.61603 0.0
C1318 C 0.87343 0.97981 0.63013 0.0
C1319 C 0.85816 0.97215 0.64754 0.0
C1320 C 0.84772 0.99286 0.66086 0.0
C1321 C 0.82075 0.99355 0.65818 0.0
C1322 C 0.855 0.99224 0.68695 0.0
C1323 C 0.85934 0.01324 0.64797 0.0
C1324 C 0.87381 0.00521 0.63009 0.0
C1325 C 0.88561 0.02051 0.61494 0.0
C1326 C 0.88269 0.04476 0.61825 0.0
C1327 C 0.86851 0.05339 0.63683 0.0
C1328 C 0.85674 0.03747 0.65194 0.0
H1329 H 0.06236 0.82377 0.63366 0.0
H1330 H 0.08642 0.89111 0.66071 0.0
H1331 H 0.04535 0.90151 0.67115 0.0
H1332 H 0.01231 0.84591 0.60591 0.0
H1333 H 0.99388 0.82071 0.61193 0.0
H1334 H 0.02532 0.81715 0.60971 0.0
H1335 H 0.02638 0.79833 0.65134 0.0
H1336 H 0.99485 0.80169 0.65364 0.0
H1337 H 0.0138 0.81405 0.67593 0.0
H1338 H 0.00167 0.90537 0.67656 0.0
H1339 H 0.95825 0.90375 0.67411 0.0
H1340 H 0.96271 0.83478 0.64128 0.0
C1341 C 0.05905 0.84043 0.64236 0.0
C1342 C 0.07752 0.85651 0.64675 0.0
C1343 C 0.07246 0.87851 0.65738 0.0
C1344 C 0.04925 0.8845 0.66344 0.0
C1345 C 0.03138 0.86838 0.65854 0.0
C1346 C 0.03599 0.84684 0.64812 0.0
C1347 C 0.01346 0.83366 0.64259 0.0
C1348 C 0.01112 0.82911 0.61595 0.0
C1349 C 0.01204 0.81057 0.65672 0.0
C1350 C 0.99542 0.85136 0.6511 0.0
C1351 C 0.00612 0.87105 0.66065 0.0
C1352 C 0.99308 0.89 0.66924 0.0
C1353 C 0.96845 0.8889 0.66778 0.0
C1354 C 0.95718 0.86918 0.65743 0.0
C1355 C 0.97088 0.85011 0.64921 0.0
H1356 H 0.37445 0.16681 0.93554 0.0
H1357 H 0.33307 0.10509 0.91767 0.0
H1358 H 0.3232 0.0994 0.95977 0.0
H1359 H 0.40032 0.14182 0.98573 0.0
H1360 H 0.40081 0.16862 0.00276 0.0
H1361 H 0.40183 0.17001 0.9711 0.0
H1362 H 0.36503 0.19712 0.97085 0.0
H1363 H 0.36399 0.19596 0.00258 0.0
H1364 H 0.33849 0.18763 0.98557 0.0
H1365 H 0.31913 0.09957 0.00351 0.0
H1366 H 0.32351 0.10359 0.04661 0.0
H1367 H 0.3705 0.16311 0.03629 0.0
C1368 C 0.36284 0.15248 0.94052 0.0
C1369 C 0.35414 0.13658 0.92353 0.0
C1370 C 0.33968 0.11752 0.93057 0.0
C1371 C 0.33395 0.11422 0.95435 0.0
C1372 C 0.34316 0.12995 0.97078 0.0
C1373 C 0.35745 0.14859 0.96424 0.0
C1374 C 0.36698 0.16146 0.98556 0.0
C1375 C 0.39409 0.1604 0.98632 0.0
C1376 C 0.35808 0.18706 0.98617 0.0
C1377 C 0.35608 0.14693 0.00511 0.0
C1378 C 0.34202 0.12915 0.99617 0.0
C1379 C 0.33006 0.11342 0.01074 0.0
C1380 C 0.33265 0.11585 0.03515 0.0
C1381 C 0.34746 0.13354 0.04462 0.0
C1382 C 0.35925 0.1493 0.02941 0.0
H1383 H 0.83229 0.3434 0.03841 0.0
H1384 H 0.8845 0.39731 0.05291 0.0
H1385 H 0.89235 0.40137 0.01025 0.0
H1386 H 0.86081 0.31654 0.98764 0.0
H1387 H 0.83374 0.31256 0.97148 0.0
H1388 H 0.83342 0.31233 0.00324 0.0
H1389 H 0.80226 0.34575 0.00336 0.0
H1390 H 0.80239 0.34597 0.97163 0.0
H1391 H 0.80828 0.37274 0.98767 0.0
H1392 H 0.89518 0.39911 0.96689 0.0
H1393 H 0.8891 0.39531 0.92427 0.0
H1394 H 0.83212 0.34556 0.93669 0.0
C1395 C 0.84548 0.35588 0.03247 0.0
C1396 C 0.85804 0.36991 0.04872 0.0
C1397 C 0.87479 0.38645 0.04057 0.0
C1398 C 0.87945 0.38875 0.01646 0.0
C1399 C 0.86683 0.37468 0.00081 0.0
C1400 C 0.84986 0.35889 0.00835 0.0
C1401 C 0.83752 0.34741 0.98759 0.0
C1402 C 0.84163 0.32062 0.98749 0.0
C1403 C 0.81105 0.35333 0.98757 0.0
C1404 C 0.85023 0.35926 0.96725 0.0
C1405 C 0.86738 0.37451 0.97541 0.0
C1406 C 0.88174 0.38732 0.96024 0.0
C1407 C 0.87818 0.38492 0.93601 0.0
C1408 C 0.86007 0.37016 0.9271 0.0
C1409 C 0.84604 0.357 0.94298 0.0
H1410 H 0.62928 0.88113 0.93663 0.0
H1411 H 0.64683 0.80709 0.92792 0.0
H1412 H 0.64559 0.80174 0.97102 0.0
H1413 H 0.6627 0.89043 0.99105 0.0
H1414 H 0.64074 0.90987 0.0033 0.0
H1415 H 0.64466 0.90819 0.97183 0.0
H1416 H 0.60034 0.89814 0.96701 0.0
H1417 H 0.59634 0.89954 -0.00155 0.0
H1418 H 0.58817 0.87324 0.98261 0.0
H1419 H 0.64029 0.80384 0.01492 0.0
H1420 H 0.63278 0.81372 0.05664 0.0
H1421 H 0.61832 0.88623 0.03665 0.0
C1422 C 0.63325 0.86387 0.94377 0.0
C1423 C 0.63822 0.84455 0.92883 0.0
C1424 C 0.64303 0.82219 0.93896 0.0
C1425 C 0.64235 0.81895 0.96344 0.0
C1426 C 0.63687 0.83822 0.97761 0.0
C1427 C 0.63256 0.86028 0.96818 0.0
C1428 C 0.6263 0.87788 0.98725 0.0
C1429 C 0.6447 0.89776 0.98842 0.0
C1430 C 0.6013 0.88777 0.9836 0.0
C1431 C 0.62749 0.86219 0.00883 0.0
C1432 C 0.63369 0.8394 0.0029 0.0
C1433 C 0.63555 0.82166 0.01981 0.0
C1434 C 0.63116 0.82743 0.04345 0.0
C1435 C 0.62492 0.85074 0.04994 0.0
C1436 C 0.62304 0.86825 0.0323 0.0
H1437 H 0.13886 0.60984 0.03053 0.0
H1438 H 0.16532 0.6814 0.03615 0.0
H1439 H 0.16781 0.68397 0.99277 0.0
H1440 H 0.1737 0.59203 0.98047 0.0
H1441 H 0.15032 0.57514 0.96716 0.0
H1442 H 0.15131 0.57868 -0.00132 0.0
H1443 H 0.10887 0.59562 0.99813 0.0
H1444 H 0.1078 0.59227 0.96658 0.0
H1445 H 0.1023 0.62068 0.9797 0.0
H1446 H 0.16866 0.6784 0.94908 0.0
H1447 H 0.16604 0.66559 0.90753 0.0
H1448 H 0.13647 0.59874 0.92986 0.0
C1449 C 0.14534 0.62596 0.02258 0.0
C1450 C 0.15206 0.64539 0.03662 0.0
C1451 C 0.16008 0.66634 0.02566 0.0
C1452 C 0.16158 0.66795 0.00107 0.0
C1453 C 0.15464 0.64858 0.9877 0.0
C1454 C 0.1465 0.62804 0.99801 0.0
C1455 C 0.1395 0.61009 0.97952 0.0
C1456 C 0.15462 0.58766 0.98158 0.0
C1457 C 0.11305 0.60434 0.98108 0.0
C1458 C 0.14521 0.62367 0.95723 0.0
C1459 C 0.15409 0.64577 0.96239 0.0
C1460 C 0.16158 0.66121 0.9448 0.0
C1461 C 0.16014 0.65379 0.92131 0.0
C1462 C 0.151 0.63131 0.91565 0.0
C1463 C 0.14317 0.61618 0.9338 0.0
H1464 H 0.35528 0.89026 0.06476 0.0
H1465 H 0.35326 0.81423 0.07419 0.0
H1466 H 0.35627 0.80888 0.03128 0.0
H1467 H 0.321 0.89112 0.00926 0.0
H1468 H 0.3383 0.91481 0.997 0.0
H1469 H 0.33413 0.91278 0.02842 0.0
H1470 H 0.37943 0.91309 0.03425 0.0
H1471 H 0.38376 0.91479 0.00286 0.0
H1472 H 0.39725 0.89129 0.01949 0.0
H1473 H 0.36372 0.8114 0.9882 0.0
H1474 H 0.37078 0.82173 0.94668 0.0
H1475 H 0.3664 0.89612 0.96433 0.0
C1476 C 0.355 0.8725 0.05778 0.0
C1477 C 0.35411 0.85268 0.07293 0.0
C1478 C 0.35394 0.82973 0.06304 0.0
C1479 C 0.35569 0.82647 0.03865 0.0
C1480 C 0.35731 0.84632 0.02431 0.0
C1481 C 0.35657 0.8689 0.0334 0.0
C1482 C 0.35918 0.88715 0.01402 0.0
C1483 C 0.33682 0.90236 0.01206 0.0
C1484 C 0.38122 0.90248 0.0179 0.0
C1485 C 0.36204 0.87125 0.99274 0.0
C1486 C 0.36095 0.84777 -0.00085 0.0
C1487 C 0.36421 0.82972 0.98287 0.0
C1488 C 0.36831 0.8358 0.9593 0.0
C1489 C 0.36891 0.85973 0.95213 0.0
C1490 C 0.36582 0.87766 0.96918 0.0
H1491 H 0.18043 0.37806 0.97317 0.0
H1492 H 0.1129 0.34921 0.95151 0.0
H1493 H 0.10235 0.34228 0.99301 0.0
H1494 H 0.18965 0.33703 0.02202 0.0
H1495 H 0.20312 0.359 0.04058 0.0
H1496 H 0.20581 0.36113 0.00901 0.0
H1497 H 0.18814 0.40329 0.01019 0.0
H1498 H 0.1855 0.4013 0.04173 0.0
H1499 H 0.15993 0.40798 0.02409 0.0
H1500 H 0.09781 0.3411 0.03678 0.0
H1501 H 0.10052 0.34438 0.08016 0.0
H1502 H 0.17168 0.37183 0.07325 0.0
C1503 C 0.16348 0.37022 0.97719 0.0
C1504 C 0.14749 0.36423 0.95913 0.0
C1505 C 0.1255 0.35388 0.96506 0.0
C1506 C 0.11931 0.34985 0.98858 0.0
C1507 C 0.13541 0.35599 0.00597 0.0
C1508 C 0.15712 0.36576 0.00061 0.0
C1509 C 0.17105 0.37095 0.02273 0.0
C1510 C 0.19375 0.35614 0.02363 0.0
C1511 C 0.17646 0.39745 0.0248 0.0
C1512 C 0.15355 0.36303 0.04128 0.0
C1513 C 0.1331 0.35448 0.03127 0.0
C1514 C 0.11386 0.34744 0.04489 0.0
C1515 C 0.11553 0.3494 0.06946 0.0
C1516 C 0.13637 0.35811 0.08004 0.0
C1517 C 0.15567 0.36469 0.0657 0.0
H1518 H 0.63 0.10641 0.06332 0.0
H1519 H 0.64735 0.18061 0.07116 0.0
H1520 H 0.65023 0.18449 0.02801 0.0
H1521 H 0.66803 0.09493 0.01243 0.0
H1522 H 0.64697 0.07534 -0.00105 0.0
H1523 H 0.64814 0.07798 0.03057 0.0
H1524 H 0.60371 0.08867 0.03129 0.0
H1525 H 0.60243 0.08626 -0.00031 0.0
H1526 H 0.59327 0.11316 0.01391 0.0
H1527 H 0.64868 0.18103 0.98423 0.0
H1528 H 0.64393 0.1702 0.94247 0.0
H1529 H 0.62729 0.0983 0.96309 0.0
C1530 C 0.63476 0.12341 0.05602 0.0
C1531 C 0.63855 0.14318 0.07066 0.0
C1532 C 0.64449 0.16517 0.06034 0.0
C1533 C 0.64615 0.16757 0.03584 0.0
C1534 C 0.64185 0.14782 0.02193 0.0
C1535 C 0.63641 0.12614 0.03161 0.0
C1536 C 0.6316 0.10797 0.01269 0.0
C1537 C 0.64977 0.08787 0.01372 0.0
C1538 C 0.60624 0.09847 0.01451 0.0
C1539 C 0.63487 0.12294 0.99086 0.0
C1540 C 0.64088 0.14584 0.9966 0.0
C1541 C 0.64418 0.16311 0.97948 0.0
C1542 C 0.64136 0.15678 0.95581 0.0
C1543 C 0.63527 0.13338 0.94951 0.0
C1544 C 0.63203 0.1163 0.96733 0.0
H1545 H 0.8398 0.63153 0.95699 0.0
H1546 H 0.90358 0.67254 0.946 0.0
H1547 H 0.90611 0.67998 0.98862 0.0
H1548 H 0.81603 0.66825 0.0051 0.0
H1549 H 0.80443 0.64326 0.02099 0.0
H1550 H 0.80653 0.64237 0.9893 0.0
H1551 H 0.83128 0.60406 0.99191 0.0
H1552 H 0.82923 0.60481 0.02355 0.0
H1553 H 0.85774 0.60375 0.00951 0.0
H1554 H 0.90422 0.67986 0.03214 0.0
H1555 H 0.89718 0.67315 0.0745 0.0
H1556 H 0.83363 0.63392 0.05801 0.0
C1557 C 0.85415 0.64226 0.96355 0.0
C1558 C 0.87151 0.65143 0.94816 0.0
C1559 C 0.89004 0.66536 0.95741 0.0
C1560 C 0.89163 0.66975 0.98161 0.0
C1561 C 0.8744 0.66031 0.99632 0.0
C1562 C 0.8559 0.64701 0.98771 0.0
C1563 C 0.84028 0.63822 0.00757 0.0
C1564 C 0.81534 0.64866 0.00562 0.0
C1565 C 0.83961 0.6111 0.00816 0.0
C1566 C 0.8533 0.64814 0.02867 0.0
C1567 C 0.87288 0.66088 0.02169 0.0
C1568 C 0.88873 0.67029 0.03787 0.0
C1569 C 0.88463 0.66633 0.06185 0.0
C1570 C 0.86475 0.65328 0.06943 0.0
C1571 C 0.84866 0.64443 0.05265 0.0
H1572 H 0.92555 0.37477 0.11682 0.0
H1573 H 0.91641 0.34403 0.18635 0.0
H1574 H 0.95954 0.34152 0.19084 0.0
H1575 H 0.97882 0.34076 0.10035 0.0
H1576 H 0.99183 0.36554 0.08528 0.0
H1577 H 0.96022 0.36249 0.08649 0.0
H1578 H 0.957 0.40426 0.10467 0.0
H1579 H 0.98857 0.40734 0.10382 0.0
H1580 H 0.973 0.41093 0.13129 0.0
H1581 H 0.00341 0.34583 0.18947 0.0
H1582 H 0.04523 0.35468 0.18138 0.0
H1583 H 0.02599 0.38266 0.11276 0.0
C1584 C 0.93258 0.36697 0.13276 0.0
C1585 C 0.91753 0.35951 0.1512 0.0
C1586 C 0.92752 0.3498 0.17194 0.0
C1587 C 0.95203 0.3483 0.17468 0.0
C1588 C 0.96635 0.3565 0.15648 0.0
C1589 C 0.95703 0.36541 0.13582 0.0
C1590 C 0.97631 0.37423 0.11954 0.0
C1591 C 0.97682 0.35989 0.09656 0.0
C1592 C 0.97354 0.40076 0.11455 0.0
C1593 C 0.99787 0.36932 0.1345 0.0
C1594 C 0.99173 0.35899 0.15569 0.0
C1595 C 0.00848 0.35366 0.17282 0.0
C1596 C 0.03219 0.35886 0.1681 0.0
C1597 C 0.03893 0.36931 0.14641 0.0
C1598 C 0.02145 0.37455 0.12945 0.0
H1599 H 0.94364 0.64876 0.83735 0.0
H1600 H 0.9254 0.58788 0.87987 0.0
H1601 H 0.96762 0.57743 0.88319 0.0
H1602 H 0.99292 0.62379 0.80622 0.0
H1603 H 0.01055 0.65019 0.80759 0.0
H1604 H 0.97885 0.65227 0.8075 0.0
H1605 H 0.98007 0.67617 0.84638 0.0
H1606 H 0.01177 0.67429 0.84653 0.0
H1607 H 0.99512 0.66411 0.87164 0.0
H1608 H 0.01142 0.57245 0.87992 0.0
H1609 H 0.05469 0.57649 0.87543 0.0
H1610 H 0.04474 0.643 0.83905 0.0
C1611 C 0.94866 0.63324 0.84729 0.0
C1612 C 0.93149 0.61896 0.85823 0.0
C1613 C 0.93847 0.59899 0.87143 0.0
C1614 C 0.96232 0.59287 0.87329 0.0
C1615 C 0.9789 0.60724 0.86225 0.0
C1616 C 0.97246 0.62728 0.84993 0.0
C1617 C 0.9939 0.64049 0.84106 0.0
C1618 C 0.99406 0.64175 0.81398 0.0
C1619 C 0.99529 0.66523 0.85207 0.0
C1620 C 0.01335 0.62464 0.85016 0.0
C1621 C 0.00429 0.60531 0.86192 0.0
C1622 C 0.01877 0.58764 0.87101 0.0
C1623 C 0.04322 0.59001 0.8683 0.0
C1624 C 0.05281 0.61013 0.85715 0.0
C1625 C 0.03772 0.62761 0.84794 0.0
H1626 H 0.38027 0.02623 0.89502 0.0
H1627 H 0.37024 0.04827 0.82238 0.0
H1628 H 0.35963 0.00773 0.81152 0.0
H1629 H 0.40779 0.97127 0.88068 0.0
H1630 H 0.39463 0.95547 0.90493 0.0
H1631 H 0.39992 0.98666 0.90734 0.0
H1632 H 0.35576 0.99318 0.91729 0.0
H1633 H 0.35031 0.962 0.91455 0.0
H1634 H 0.33349 0.98266 0.89722 0.0
H1635 H 0.35025 0.96516 0.80822 0.0
H1636 H 0.34806 0.92196 0.81148 0.0
H1637 H 0.36587 0.92673 0.88582 0.0
C1638 C 0.37578 0.02254 0.87685 0.0
C1639 C 0.37573 0.04057 0.85964 0.0
C1640 C 0.37012 0.03491 0.83598 0.0
C1641 C 0.36396 0.0119 0.82961 0.0
C1642 C 0.36375 0.99467 0.84705 0.0
C1643 C 0.36988 -0.00045 0.87009 0.0
C1644 C 0.36981 0.97737 0.88499 0.0
C1645 C 0.39451 0.9724 0.89507 0.0
C1646 C 0.35123 0.97891 0.90468 0.0
C1647 C 0.36293 0.95928 0.8666 0.0
C1648 C 0.35912 0.96975 0.84496 0.0
C1649 C 0.35318 0.9567 0.82507 0.0
C1650 C 0.35192 0.93215 0.82714 0.0
C1651 C 0.35688 0.92088 0.84889 0.0
C1652 C 0.36184 0.93476 0.86899 0.0
H1653 H 0.95593 0.34206 0.83905 0.0
H1654 H 0.94632 0.41016 0.87241 0.0
H1655 H 0.98948 0.41373 0.87755 0.0
H1656 H 0.00372 0.32157 0.87369 0.0
H1657 H 0.01946 0.30807 0.84961 0.0
H1658 H 0.98784 0.31076 0.84839 0.0
H1659 H 0.99102 0.33314 0.80869 0.0
H1660 H 0.02265 0.33032 0.80966 0.0
H1661 H 0.00935 0.35904 0.80674 0.0
H1662 H 0.03277 0.4081 0.88248 0.0
H1663 H 0.07482 0.39681 0.88125 0.0
H1664 H 0.05713 0.33445 0.84075 0.0
C1665 C 0.96303 0.35775 0.84728 0.0
C1666 C 0.94801 0.3758 0.8555 0.0
C1667 C 0.9577 0.39624 0.86595 0.0
C1668 C 0.9821 0.39834 0.86904 0.0
C1669 C 0.99647 0.3801 0.86106 0.0
C1670 C 0.98741 0.36046 0.84987 0.0
C1671 C 0.00688 0.34383 0.84221 0.0
C1672 C 0.00431 0.31963 0.8542 0.0
C1673 C 0.00751 0.34145 0.81522 0.0
C1674 C 0.02826 0.35697 0.85129 0.0
C1675 C 0.02176 0.37766 0.86242 0.0
C1676 C 0.03815 0.39216 0.8735 0.0
C1677 C 0.0619 0.38552 0.87285 0.0
C1678 C 0.06903 0.36488 0.86081 0.0
C1679 C 0.05203 0.35044 0.84985 0.0
H1680 H 0.63457 0.05325 0.82678 0.0
H1681 H 0.67876 0.07334 0.88576 0.0
H1682 H 0.68532 0.03137 0.89528 0.0
H1683 H 0.60526 0.00847 0.85634 0.0
H1684 H 0.60291 0.98867 0.83162 0.0
H1685 H 0.60479 0.01996 0.82671 0.0
H1686 H 0.6412 0.01395 0.79974 0.0
H1687 H 0.63925 0.98255 0.80431 0.0
H1688 H 0.66634 0.99788 0.81071 0.0
H1689 H 0.68439 0.98793 0.90051 0.0
H1690 H 0.67569 0.94534 0.90149 0.0
H1691 H 0.63013 0.9533 0.84054 0.0
C1692 C 0.64625 0.04871 0.84118 0.0
C1693 C 0.65651 0.06636 0.85535 0.0
C1694 C 0.67097 0.05994 0.87461 0.0
C1695 C 0.67481 0.0362 0.88011 0.0
C1696 C 0.66386 0.01916 0.86629 0.0
C1697 C 0.64989 0.02505 0.8472 0.0
C1698 C 0.63826 0.00339 0.83676 0.0
C1699 C 0.61121 0.00524 0.83794 0.0
C1700 C 0.64678 -0.0008 0.81137 0.0
C1701 C 0.64746 0.98456 0.8533 0.0
C1702 C 0.66249 0.99402 0.86995 0.0
C1703 C 0.6728 0.98025 0.88745 0.0
C1704 C 0.6677 0.95611 0.88791 0.0
C1705 C 0.65217 0.94608 0.87117 0.0
C1706 C 0.64195 0.96053 0.85365 0.0
H1707 H 0.06808 0.6408 0.16042 0.0
H1708 H 0.0837 0.67171 0.09226 0.0
H1709 H 0.04124 0.68039 0.0866 0.0
H1710 H 0.01707 0.61111 0.1417 0.0
H1711 H 0.00116 0.61482 0.16897 0.0
H1712 H 0.03289 0.61401 0.1691 0.0
H1713 H 0.03403 0.65456 0.19008 0.0
H1714 H 0.00226 0.65546 0.19012 0.0
H1715 H 0.01882 0.67932 0.17718 0.0
H1716 H 0.99711 0.68465 0.08808 0.0
H1717 H 0.95422 0.68091 0.09457 0.0
H1718 H 0.9672 0.64377 0.16017 0.0
C1719 C 0.06259 0.64991 0.14456 0.0
C1720 C 0.07909 0.65605 0.12694 0.0
C1721 C 0.07126 0.66714 0.10603 0.0
C1722 C 0.04725 0.67217 0.10272 0.0
C1723 C 0.03136 0.66558 0.12033 0.0
C1724 C 0.03868 0.65447 0.14073 0.0
C1725 C 0.01789 0.6471 0.15584 0.0
C1726 C 0.01722 0.62016 0.15908 0.0
C1727 C 0.01828 0.65988 0.17972 0.0
C1728 C 0.99768 0.6556 0.14065 0.0
C1729 C 0.00585 0.66664 0.12049 0.0
C1730 C 0.99052 0.67604 0.10379 0.0
C1731 C 0.96621 0.67387 0.10766 0.0
C1732 C 0.95747 0.66197 0.12782 0.0
C1733 C 0.97344 0.65283 0.14455 0.0
H1734 H 0.36507 0.06406 0.16886 0.0
H1735 H 0.3214 0.08431 0.10955 0.0
H1736 H 0.31173 0.04252 0.10227 0.0
H1737 H 0.39058 0.01571 0.14112 0.0
H1738 H 0.39196 0.997 0.16678 0.0
H1739 H 0.39241 0.02855 0.17012 0.0
H1740 H 0.35619 0.02642 0.1979 0.0
H1741 H 0.35577 0.99478 0.19484 0.0
H1742 H 0.32975 0.01175 0.18811 0.0
H1743 H 0.30953 -0.00099 0.09909 0.0
H1744 H 0.31557 0.956 0.09956 0.0
H1745 H 0.36245 0.96324 0.15961 0.0
C1746 C 0.35287 0.05962 0.15488 0.0
C1747 C 0.34359 0.07727 0.13999 0.0
C1748 C 0.32842 0.07094 0.12126 0.0
C1749 C 0.32281 0.0473 0.11702 0.0
C1750 C 0.33274 0.03019 0.13155 0.0
C1751 C 0.34745 0.03597 0.15011 0.0
C1752 C 0.35766 0.01398 0.16141 0.0
C1753 C 0.38475 0.01381 0.15974 0.0
C1754 C 0.34934 0.0116 0.18709 0.0
C1755 C 0.34683 0.99507 0.14595 0.0
C1756 C 0.33221 0.00484 0.12911 0.0
C1757 C 0.32075 0.9911 0.11233 0.0
C1758 C 0.32435 0.96668 0.11271 0.0
C1759 C 0.33951 0.95625 0.12958 0.0
C1760 C 0.35077 0.97069 0.14648 0.0
H1761 H 0.62303 0.0344 0.15799 0.0
H1762 H 0.66319 0.04207 0.09329 0.0
H1763 H 0.66999 -0.0009 0.09239 0.0
H1764 H 0.66026 0.98873 0.18335 0.0
H1765 H 0.63595 0.97315 0.19667 0.0
H1766 H 0.63422 0.00459 0.19237 0.0
H1767 H 0.59545 -0.00054 0.16876 0.0
H1768 H 0.59697 0.96806 0.17316 0.0
H1769 H 0.59495 0.97989 0.14374 0.0
H1770 H 0.6702 0.95531 0.09699 0.0
H1771 H 0.66474 0.91337 0.10754 0.0
H1772 H 0.62707 0.93413 0.17077 0.0
C1773 C 0.63316 0.02698 0.14361 0.0
C1774 C 0.64246 0.04147 0.12561 0.0
C1775 C 0.65592 0.03123 0.10725 0.0
C1776 C 0.6599 0.00687 0.1066 0.0
C1777 C 0.65063 0.99306 0.12466 0.0
C1778 C 0.63768 0.0027 0.14291 0.0
C1779 C 0.62976 0.98385 0.16012 0.0
C1780 C 0.64071 0.98782 0.18458 0.0
C1781 C 0.60268 0.98275 0.16151 0.0
C1782 C 0.63987 0.96208 0.14841 0.0
C1783 C 0.6518 0.9678 0.12794 0.0
C1784 C 0.66125 0.9506 0.11317 0.0
C1785 C 0.65809 0.92687 0.11929 0.0
C1786 C 0.64589 0.92062 0.14015 0.0
C1787 C 0.63705 0.93848 0.15507 0.0
H1788 H 0.107 0.2576 0.31362 0.0
H1789 H 0.16802 0.28514 0.35059 0.0
H1790 H 0.17398 0.3142 0.31873 0.0
H1791 H 0.13488 0.25619 0.25935 0.0
H1792 H 0.10898 0.2632 0.24232 0.0
H1793 H 0.10602 0.24849 0.27025 0.0
H1794 H 0.07808 0.28151 0.28502 0.0
H1795 H 0.08079 0.29631 0.25702 0.0
H1796 H 0.08766 0.31181 0.28387 0.0
H1797 H 0.17556 0.33757 0.28092 0.0
H1798 H 0.17336 0.35247 0.24002 0.0
H1799 H 0.11585 0.30424 0.22558 0.0
C1800 C 0.12176 0.2695 0.31507 0.0
C1801 C 0.13747 0.26851 0.3343 0.0
C1802 C 0.15575 0.28547 0.33598 0.0
C1803 C 0.15932 0.30201 0.31793 0.0
C1804 C 0.14449 0.30129 0.29838 0.0
C1805 C 0.12606 0.28545 0.29688 0.0
C1806 C 0.11446 0.28616 0.2729 0.0
C1807 C 0.11621 0.26208 0.26048 0.0
C1808 C 0.08872 0.29445 0.27483 0.0
C1809 C 0.12965 0.30445 0.26091 0.0
C1810 C 0.14647 0.31344 0.27606 0.0
C1811 C 0.16253 0.33058 0.26888 0.0
C1812 C 0.16137 0.33869 0.24557 0.0
C1813 C 0.14476 0.3291 0.22961 0.0
C1814 C 0.12871 0.31184 0.23746 0.0
H1815 H 0.66281 0.1533 0.23289 0.0
H1816 H 0.69372 0.08993 0.20324 0.0
H1817 H 0.71319 0.08166 0.24126 0.0
H1818 H 0.71517 0.17098 0.26108 0.0
H1819 H 0.70055 0.18405 0.28609 0.0
H1820 H 0.68573 0.18259 0.25812 0.0
H1821 H 0.65087 0.16056 0.27796 0.0
H1822 H 0.66582 0.16166 0.30596 0.0
H1823 H 0.65643 0.13373 0.29408 0.0
H1824 H 0.73063 0.08122 0.2814 0.0
H1825 H 0.75063 0.09184 0.31842 0.0
H1826 H 0.71289 0.15833 0.31998 0.0
C1827 C 0.67377 0.13775 0.23434 0.0
C1828 C 0.67672 0.12217 0.21519 0.0
C1829 C 0.69094 0.10185 0.21788 0.0
C1830 C 0.70199 0.09699 0.23939 0.0
C1831 C 0.6989 0.11285 0.25787 0.0
C1832 C 0.68553 0.13305 0.25543 0.0
C1833 C 0.68764 0.14879 0.27687 0.0
C1834 C 0.69789 0.17302 0.27013 0.0
C1835 C 0.66377 0.15132 0.28946 0.0
C1836 C 0.70481 0.13454 0.29148 0.0
C1837 C 0.71046 0.11353 0.28048 0.0
C1838 C 0.7265 0.09769 0.2901 0.0
C1839 C 0.73793 0.10397 0.31099 0.0
C1840 C 0.73381 0.1262 0.32152 0.0
C1841 C 0.71633 0.14123 0.31221 0.0
H1842 H 0.8817 0.75899 0.30205 0.0
H1843 H 0.83363 0.71451 0.3418 0.0
H1844 H 0.83269 0.68633 0.30876 0.0
H1845 H 0.85207 0.75287 0.24774 0.0
H1846 H 0.87854 0.75319 0.23013 0.0
H1847 H 0.87788 0.76829 0.25801 0.0
H1848 H 0.91426 0.74432 0.27184 0.0
H1849 H 0.91497 0.72905 0.24401 0.0
H1850 H 0.91329 0.71256 0.27113 0.0
H1851 H 0.83469 0.66445 0.27066 0.0
H1852 H 0.83845 0.65096 0.22941 0.0
H1853 H 0.88264 0.71123 0.2134 0.0
C1854 C 0.87063 0.74362 0.30381 0.0
C1855 C 0.85723 0.73937 0.3244 0.0
C1856 C 0.844 0.71825 0.3262 0.0
C1857 C 0.84333 0.70212 0.30752 0.0
C1858 C 0.85608 0.70732 0.28719 0.0
C1859 C 0.86947 0.72756 0.2852 0.0
C1860 C 0.88023 0.72979 0.26085 0.0
C1861 C 0.87166 0.75237 0.24846 0.0
C1862 C 0.9073 0.72887 0.26204 0.0
C1863 C 0.87031 0.7079 0.24928 0.0
C1864 C 0.85676 0.695 0.26493 0.0
C1865 C 0.84527 0.67437 0.25826 0.0
C1866 C 0.8474 0.66694 0.23484 0.0
C1867 C 0.86054 0.68032 0.21838 0.0
C1868 C 0.87249 0.70079 0.22577 0.0
H1869 H 0.28217 0.84699 0.21278 0.0
H1870 H 0.3448 0.88556 0.23326 0.0
H1871 H 0.32838 0.89105 0.27336 0.0
H1872 H 0.24125 0.88319 0.2438 0.0
H1873 H 0.22213 0.85925 0.25228 0.0
H1874 H 0.23942 0.85712 0.22573 0.0
H1875 H 0.25792 0.81808 0.24067 0.0
H1876 H 0.24056 0.82005 0.26721 0.0
H1877 H 0.27219 0.81741 0.26904 0.0
H1878 H 0.30473 0.89272 0.31107 0.0
H1879 H 0.27481 0.89189 0.34299 0.0
H1880 H 0.2275 0.85297 0.29736 0.0
C1881 C 0.2924 0.85641 0.22585 0.0
C1882 C 0.31463 0.86593 0.22016 0.0
C1883 C 0.32764 0.87828 0.23746 0.0
C1884 C 0.3185 0.8814 0.26022 0.0
C1885 C 0.29634 0.87206 0.26529 0.0
C1886 C 0.28343 0.85985 0.24859 0.0
C1887 C 0.25968 0.8524 0.25827 0.0
C1888 C 0.23943 0.86367 0.24418 0.0
C1889 C 0.25747 0.82538 0.25883 0.0
C1890 C 0.26117 0.86253 0.2829 0.0
C1891 C 0.28252 0.8736 0.28672 0.0
C1892 C 0.28791 0.88418 0.30825 0.0
C1893 C 0.27089 0.88362 0.32625 0.0
C1894 C 0.24871 0.87291 0.3224 0.0
C1895 C 0.24401 0.86196 0.30056 0.0
H1896 H 0.14459 0.70459 0.66665 0.0
H1897 H 0.10859 0.76442 0.69808 0.0
H1898 H 0.10222 0.74193 0.73406 0.0
H1899 H 0.11222 0.6567 0.69708 0.0
H1900 H 0.13859 0.63963 0.70191 0.0
H1901 H 0.13635 0.65854 0.67646 0.0
H1902 H 0.17493 0.67968 0.68877 0.0
H1903 H 0.17721 0.66097 0.7143 0.0
H1904 H 0.17704 0.69256 0.71773 0.0
H1905 H 0.10187 0.71452 0.76795 0.0
H1906 H 0.11098 0.68491 0.79867 0.0
H1907 H 0.15135 0.64447 0.74798 0.0
C1908 C 0.13473 0.71271 0.68084 0.0
C1909 C 0.12565 0.73586 0.67857 0.0
C1910 C 0.11401 0.74621 0.69816 0.0
C1911 C 0.11067 0.73365 0.7191 0.0
C1912 C 0.11973 0.71095 0.72065 0.0
C1913 C 0.13184 0.70064 0.70222 0.0
C1914 C 0.14246 0.67723 0.70965 0.0
C1915 C 0.13176 0.65682 0.69543 0.0
C1916 C 0.16951 0.67765 0.70748 0.0
C1917 C 0.13473 0.6763 0.73521 0.0
C1918 C 0.12123 0.69574 0.74101 0.0
C1919 C 0.11234 0.69916 0.76365 0.0
C1920 C 0.11758 0.68235 0.78093 0.0
C1921 C 0.13189 0.66271 0.77552 0.0
C1922 C 0.14042 0.65949 0.75239 0.0
H1923 H 0.28148 0.15437 0.67459 0.0
H1924 H 0.24033 0.0915 0.68922 0.0
H1925 H 0.25877 0.08834 0.72827 0.0
H1926 H 0.33544 0.13156 0.70372 0.0
H1927 H 0.3439 0.16034 0.71418 0.0
H1928 H 0.32755 0.1575 0.68712 0.0
H1929 H 0.29583 0.18595 0.70364 0.0
H1930 H 0.31179 0.18846 0.73095 0.0
H1931 H 0.28144 0.17902 0.73114 0.0
H1932 H 0.27758 0.09476 0.76707 0.0
H1933 H 0.30247 0.10522 0.80111 0.0
H1934 H 0.33625 0.16004 0.75972 0.0
C1935 C 0.27664 0.13974 0.68589 0.0
C1936 C 0.25859 0.12386 0.6794 0.0
C1937 C 0.25307 0.10468 0.69439 0.0
C1938 C 0.26365 0.10256 0.71651 0.0
C1939 C 0.28035 0.11928 0.72296 0.0
C1940 C 0.28749 0.13702 0.70786 0.0
C1941 C 0.30647 0.15213 0.71904 0.0
C1942 C 0.32972 0.15026 0.7052 0.0
C1943 C 0.29839 0.17791 0.72132 0.0
C1944 C 0.30838 0.1404 0.74296 0.0
C1945 C 0.29286 0.12172 0.74488 0.0
C1946 C 0.29022 0.10899 0.76566 0.0
C1947 C 0.30435 0.11508 0.78486 0.0
C1948 C 0.32125 0.13334 0.78295 0.0
C1949 C 0.3232 0.14626 0.76177 0.0
H1950 H 0.84885 0.2959 0.78998 0.0
H1951 H 0.85848 0.36623 0.7618 0.0
H1952 H 0.85965 0.34997 0.72127 0.0
H1953 H 0.88742 0.26631 0.75002 0.0
H1954 H 0.86922 0.24038 0.7475 0.0
H1955 H 0.86853 0.25766 0.7741 0.0
H1956 H 0.82325 0.2626 0.77006 0.0
H1957 H 0.82377 0.24519 0.74353 0.0
H1958 H 0.81119 0.27437 0.74312 0.0
H1959 H 0.86013 0.3258 0.68403 0.0
H1960 H 0.86012 0.29534 0.65272 0.0
H1961 H 0.84976 0.24114 0.70567 0.0
C1962 C 0.85116 0.30776 0.77519 0.0
C1963 C 0.85393 0.33215 0.77871 0.0
C1964 C 0.85672 0.3474 0.75919 0.0
C1965 C 0.85731 0.33835 0.73623 0.0
C1966 C 0.85491 0.31409 0.73327 0.0
C1967 C 0.85181 0.29902 0.75221 0.0
C1968 C 0.84986 0.27366 0.74429 0.0
C1969 C 0.86996 0.25862 0.75459 0.0
C1970 C 0.82557 0.26336 0.75062 0.0
C1971 C 0.85259 0.27679 0.71797 0.0
C1972 C 0.85537 0.30022 0.71192 0.0
C1973 C 0.85807 0.30737 0.68856 0.0
C1974 C 0.85804 0.29003 0.67094 0.0
C1975 C 0.85562 0.26594 0.67691 0.0
C1976 C 0.85255 0.25935 0.70068 0.0
H1977 H 0.70846 0.88026 0.79064 0.0
H1978 H 0.64716 0.84322 0.76416 0.0
H1979 H 0.66375 0.84449 0.72385 0.0
H1980 H 0.71652 0.91863 0.73757 0.0
H1981 H 0.7482 0.91743 0.73977 0.0
H1982 H 0.73035 0.91559 0.76601 0.0
H1983 H 0.75082 0.87624 0.77701 0.0
H1984 H 0.7685 0.87779 0.75071 0.0
H1985 H 0.75051 0.85218 0.75626 0.0
H1986 H 0.68914 0.84542 0.6878 0.0
H1987 H 0.72042 0.84772 0.65791 0.0
H1988 H 0.76362 0.88769 0.70699 0.0
C1989 C 0.6984 0.87289 0.7762 0.0
C1990 C 0.67678 0.86134 0.78035 0.0
C1991 C 0.66397 0.85181 0.76121 0.0
C1992 C 0.67318 0.85257 0.73831 0.0
C1993 C 0.69496 0.86339 0.73484 0.0
C1994 C 0.70724 0.87376 0.75315 0.0
C1995 C 0.73071 0.88338 0.74477 0.0
C1996 C 0.73148 0.91036 0.74717 0.0
C1997 C 0.75134 0.87169 0.75797 0.0
C1998 C 0.7301 0.87594 0.71913 0.0
C1999 C 0.70929 0.86456 0.71376 0.0
C2000 C 0.70538 0.85464 0.6917 0.0
C2001 C 0.72337 0.85606 0.67481 0.0
C2002 C 0.74514 0.86733 0.67994 0.0
C2003 C 0.74801 0.87805 0.70229 0.0
H2004 H 0.2208 0.12878 0.31145 0.0
H2005 H 0.18976 0.19348 0.28492 0.0
H2006 H 0.22591 0.20148 0.26202 0.0
H2007 H 0.27934 0.14842 0.3169 0.0
H2008 H 0.29285 0.12165 0.30636 0.0
H2009 H 0.26446 0.12056 0.32056 0.0
H2010 H 0.24646 0.0998 0.2841 0.0
H2011 H 0.27492 0.10038 0.26997 0.0
H2012 H 0.2497 0.11309 0.25541 0.0
H2013 H 0.26602 0.20397 0.2446 0.0
H2014 H 0.30599 0.19782 0.22832 0.0
H2015 H 0.30988 0.12978 0.26294 0.0
C2016 C 0.2214 0.1443 0.30035 0.0
C2017 C 0.20263 0.16064 0.30001 0.0
C2018 C 0.20417 0.18097 0.28563 0.0
C2019 C 0.22457 0.18564 0.27257 0.0
C2020 C 0.24303 0.16952 0.27377 0.0
C2021 C 0.24147 0.14898 0.28679 0.0
C2022 C 0.26371 0.13436 0.28448 0.0
C2023 C 0.2758 0.13107 0.30851 0.0
C2024 C 0.25838 0.11049 0.27279 0.0
C2025 C 0.27811 0.1501 0.26843 0.0
C2026 C 0.26591 0.17043 0.26274 0.0
C2027 C 0.2757 0.18805 0.24873 0.0
C2028 C 0.2984 0.18453 0.23977 0.0
C2029 C 0.3108 0.16347 0.24465 0.0
C2030 C 0.30065 0.14609 0.25923 0.0
H2031 H 0.82439 0.29608 0.23447 0.0
H2032 H 0.85595 0.34417 0.28463 0.0
H2033 H 0.86104 0.3112 0.31297 0.0
H2034 H 0.79252 0.26078 0.27737 0.0
H2035 H 0.79719 0.23361 0.2616 0.0
H2036 H 0.79569 0.26111 0.24575 0.0
H2037 H 0.83661 0.25268 0.22717 0.0
H2038 H 0.83829 0.22521 0.24303 0.0
H2039 H 0.86144 0.24677 0.2461 0.0
H2040 H 0.86444 0.2726 0.33468 0.0
H2041 H 0.86334 0.23157 0.34962 0.0
H2042 H 0.82858 0.20897 0.28554 0.0
C2043 C 0.8324 0.29955 0.25145 0.0
C2044 C 0.84017 0.32237 0.25744 0.0
C2045 C 0.85007 0.32664 0.27986 0.0
C2046 C 0.85305 0.30807 0.29595 0.0
C2047 C 0.84568 0.28556 0.28931 0.0
C2048 C 0.8353 0.2813 0.26771 0.0
C2049 C 0.82878 0.25558 0.2649 0.0
C2050 C 0.80195 0.2526 0.26225 0.0
C2051 C 0.84208 0.24441 0.24407 0.0
C2052 C 0.83736 0.24592 0.28821 0.0
C2053 C 0.84714 0.26348 0.302 0.0
C2054 C 0.85674 0.25874 0.32409 0.0
C2055 C 0.85616 0.23546 0.33236 0.0
C2056 C 0.846 0.21736 0.31858 0.0
C2057 C 0.83645 0.22263 0.2963 0.0
H2058 H 0.69835 0.84032 0.24421 0.0
H2059 H 0.64961 0.87608 0.29108 0.0
H2060 H 0.68005 0.87638 0.32228 0.0
H2061 H 0.72589 0.80385 0.28825 0.0
H2062 H 0.75487 0.80608 0.27538 0.0
H2063 H 0.72911 0.80817 0.25693 0.0
H2064 H 0.74337 0.84861 0.24113 0.0
H2065 H 0.76927 0.84655 0.25935 0.0
H2066 H 0.75018 0.87186 0.26167 0.0
H2067 H 0.71617 0.8742 0.34766 0.0
H2068 H 0.75567 0.86962 0.36561 0.0
H2069 H 0.78082 0.83529 0.3022 0.0
C2070 C 0.6942 0.84864 0.26084 0.0
C2071 C 0.67182 0.85874 0.26507 0.0
C2072 C 0.66674 0.86844 0.28747 0.0
C2073 C 0.68389 0.86868 0.30526 0.0
C2074 C 0.70589 0.85885 0.30042 0.0
C2075 C 0.71107 0.84895 0.27879 0.0
C2076 C 0.73613 0.83973 0.27804 0.0
C2077 C 0.73651 0.81286 0.27444 0.0
C2078 C 0.75059 0.85245 0.25892 0.0
C2079 C 0.74438 0.84632 0.30252 0.0
C2080 C 0.72661 0.85725 0.31517 0.0
C2081 C 0.73018 0.86558 0.33797 0.0
C2082 C 0.7526 0.86297 0.34799 0.0
C2083 C 0.77108 0.85216 0.33519 0.0
C2084 C 0.76683 0.84342 0.31234 0.0
H2085 H 0.12471 0.68757 0.26467 0.0
H2086 H 0.17903 0.70586 0.21408 0.0
H2087 H 0.18512 0.74397 0.23397 0.0
H2088 H 0.09935 0.7446 0.26873 0.0
H2089 H 0.09343 0.74323 0.29992 0.0
H2090 H 0.09427 0.71653 0.28279 0.0
H2091 H 0.12612 0.69929 0.31063 0.0
H2092 H 0.12525 0.72588 0.32797 0.0
H2093 H 0.15283 0.71572 0.31586 0.0
H2094 H 0.18393 0.78057 0.25751 0.0
H2095 H 0.17597 0.81389 0.28436 0.0
H2096 H 0.12294 0.77224 0.32054 0.0
C2097 C 0.13803 0.69958 0.25808 0.0
C2098 C 0.15132 0.69407 0.23783 0.0
C2099 C 0.16857 0.71002 0.22946 0.0
C2100 C 0.17219 0.73162 0.24067 0.0
C2101 C 0.15849 0.73687 0.26031 0.0
C2102 C 0.14184 0.72134 0.26909 0.0
C2103 C 0.129 0.73184 0.29003 0.0
C2104 C 0.10244 0.73419 0.28506 0.0
C2105 C 0.13358 0.71732 0.31245 0.0
C2106 C 0.14081 0.75576 0.29132 0.0
C2107 C 0.15784 0.75819 0.27406 0.0
C2108 C 0.17077 0.77886 0.27124 0.0
C2109 C 0.16617 0.79763 0.28653 0.0
C2110 C 0.14879 0.79554 0.30429 0.0
C2111 C 0.13608 0.77431 0.30683 0.0
H2112 H 0.30373 0.87136 0.74514 0.0
H2113 H 0.33654 0.8053 0.7244 0.0
H2114 H 0.3048 0.79869 0.6957 0.0
H2115 H 0.24496 0.84958 0.74422 0.0
H2116 H 0.23223 0.87655 0.73321 0.0
H2117 H 0.25882 0.87748 0.75052 0.0
H2118 H 0.28001 0.90012 0.71694 0.0
H2119 H 0.25349 0.89921 0.69949 0.0
H2120 H 0.28068 0.8877 0.68771 0.0
H2121 H 0.26866 0.79777 0.67102 0.0
H2122 H 0.23011 0.80291 0.65153 0.0
H2123 H 0.21904 0.86796 0.69012 0.0
C2124 C 0.30418 0.85533 0.73491 0.0
C2125 C 0.3225 0.83861 0.73755 0.0
C2126 C 0.32275 0.81842 0.72282 0.0
C2127 C 0.30475 0.81443 0.70647 0.0
C2128 C 0.28658 0.83082 0.70494 0.0
C2129 C 0.28613 0.8509 0.71869 0.0
C2130 C 0.26392 0.86511 0.71428 0.0
C2131 C 0.24911 0.8673 0.7369 0.0
C2132 C 0.26989 0.88948 0.70399 0.0
C2133 C 0.25183 0.84965 0.69619 0.0
C2134 C 0.26537 0.83008 0.69091 0.0
C2135 C 0.25789 0.81301 0.67498 0.0
C2136 C 0.23592 0.81597 0.66416 0.0
C2137 C 0.22163 0.83571 0.6695 0.0
C2138 C 0.22975 0.85281 0.68563 0.0
H2139 H 0.12661 0.30863 0.72098 0.0
H2140 H 0.14582 0.27564 0.78729 0.0
H2141 H 0.1503 0.23757 0.76737 0.0
H2142 H 0.09326 0.25803 0.69781 0.0
H2143 H 0.1033 0.26249 0.668 0.0
H2144 H 0.10039 0.28729 0.68762 0.0
H2145 H 0.14407 0.29842 0.67999 0.0
H2146 H 0.14714 0.2736 0.66045 0.0
H2147 H 0.16681 0.27681 0.68517 0.0
H2148 H 0.15583 0.20396 0.74046 0.0
H2149 H 0.15948 0.17555 0.70758 0.0
H2150 H 0.13511 0.22887 0.6586 0.0
C2151 C 0.1314 0.29326 0.73126 0.0
C2152 C 0.13533 0.29498 0.75575 0.0
C2153 C 0.14203 0.27466 0.76865 0.0
C2154 C 0.1448 0.25293 0.75747 0.0
C2155 C 0.14076 0.25176 0.73337 0.0
C2156 C 0.13398 0.27124 0.72037 0.0
C2157 C 0.13117 0.26501 0.69455 0.0
C2158 C 0.1055 0.2684 0.68653 0.0
C2159 C 0.14832 0.27931 0.67914 0.0
C2160 C 0.13784 0.23914 0.69514 0.0
C2161 C 0.1434 0.23196 0.71774 0.0
C2162 C 0.15122 0.20921 0.72272 0.0
C2163 C 0.15331 0.19328 0.70405 0.0
C2164 C 0.14736 0.2002 0.68091 0.0
C2165 C 0.13946 0.2233 0.67633 0.0
H2166 H 0.70389 0.10753 0.74856 0.0
H2167 H 0.66137 0.16081 0.71369 0.0
H2168 H 0.6931 0.16696 0.68466 0.0
H2169 H 0.75669 0.13892 0.74546 0.0
H2170 H 0.7752 0.11351 0.74075 0.0
H2171 H 0.7478 0.11044 0.75646 0.0
H2172 H 0.73434 0.07826 0.72699 0.0
H2173 H 0.76175 0.08123 0.71114 0.0
H2174 H 0.73411 0.08468 0.69586 0.0
H2175 H 0.73065 0.17054 0.66218 0.0
H2176 H 0.77178 0.17128 0.64773 0.0
H2177 H 0.79082 0.11754 0.6986 0.0
C2178 C 0.70122 0.12062 0.735 0.0
C2179 C 0.6803 0.13409 0.73381 0.0
C2180 C 0.67725 0.15028 0.71503 0.0
C2181 C 0.69518 0.15393 0.69844 0.0
C2182 C 0.71598 0.14111 0.70078 0.0
C2183 C 0.71907 0.12469 0.7185 0.0
C2184 C 0.74382 0.11466 0.71824 0.0
C2185 C 0.75663 0.1197 0.74161 0.0
C2186 C 0.74347 0.08813 0.71272 0.0
C2187 C 0.7544 0.1286 0.69809 0.0
C2188 C 0.7379 0.14347 0.68802 0.0
C2189 C 0.74369 0.15888 0.6698 0.0
C2190 C 0.76705 0.15933 0.66186 0.0
C2191 C 0.7843 0.14473 0.67239 0.0
C2192 C 0.77782 0.12885 0.69036 0.0
H2193 H 0.86066 0.70455 0.76987 0.0
H2194 H 0.87232 0.65732 0.71092 0.0
H2195 H 0.87033 0.69136 0.68356 0.0
H2196 H 0.81958 0.74215 0.74157 0.0
H2197 H 0.8303 0.76864 0.75545 0.0
H2198 H 0.83315 0.74068 0.77025 0.0
H2199 H 0.87826 0.74693 0.77409 0.0
H2200 H 0.87554 0.77504 0.75957 0.0
H2201 H 0.89548 0.75312 0.74808 0.0
H2202 H 0.8673 0.73071 0.66294 0.0
H2203 H 0.86399 0.77253 0.65058 0.0
H2204 H 0.85417 0.79349 0.72328 0.0
C2205 C 0.86347 0.70132 0.75132 0.0
C2206 C 0.86736 0.67835 0.74255 0.0
C2207 C 0.86968 0.67487 0.71797 0.0
C2208 C 0.86853 0.69405 0.70235 0.0
C2209 C 0.86477 0.71649 0.71166 0.0
C2210 C 0.8623 0.72018 0.73558 0.0
C2211 C 0.8581 0.74593 0.74117 0.0
C2212 C 0.83384 0.74955 0.75279 0.0
C2213 C 0.87803 0.75584 0.75664 0.0
C2214 C 0.85875 0.75628 0.71662 0.0
C2215 C 0.86255 0.739 0.69982 0.0
C2216 C 0.86423 0.74435 0.67591 0.0
C2217 C 0.86228 0.76801 0.66905 0.0
C2218 C 0.85867 0.78585 0.68606 0.0
C2219 C 0.85669 0.77996 0.71005 0.0
H2220 H 0.32634 0.23894 0.15852 0.0
H2221 H 0.29917 0.2079 0.09418 0.0
H2222 H 0.276 0.24392 0.08659 0.0
H2223 H 0.27121 0.26318 0.17604 0.0
H2224 H 0.2838 0.28917 0.18928 0.0
H2225 H 0.30065 0.26231 0.18798 0.0
H2226 H 0.33427 0.28455 0.16639 0.0
H2227 H 0.31737 0.31145 0.1674 0.0
H2228 H 0.32789 0.30034 0.13955 0.0
H2229 H 0.25487 0.28242 0.08656 0.0
H2230 H 0.23323 0.31882 0.09635 0.0
H2231 H 0.27062 0.32329 0.16286 0.0
C2232 C 0.31545 0.2397 0.14288 0.0
C2233 C 0.31469 0.2207 0.12682 0.0
C2234 C 0.3004 0.22245 0.10645 0.0
C2235 C 0.28715 0.24281 0.10202 0.0
C2236 C 0.28815 0.26116 0.11829 0.0
C2237 C 0.30165 0.25969 0.13849 0.0
C2238 C 0.29781 0.28094 0.15422 0.0
C2239 C 0.28776 0.27345 0.1783 0.0
C2240 C 0.3207 0.29516 0.15705 0.0
C2241 C 0.27976 0.29441 0.13984 0.0
C2242 C 0.27484 0.28287 0.11896 0.0
C2243 C 0.25843 0.29153 0.10292 0.0
C2244 C 0.2461 0.3121 0.10872 0.0
C2245 C 0.24984 0.32347 0.13061 0.0
C2246 C 0.26743 0.31492 0.14601 0.0
H2247 H 0.27741 0.67359 0.82558 0.0
H2248 H 0.23479 0.67972 0.88882 0.0
H2249 H 0.2554 0.71632 0.89933 0.0
H2250 H 0.33237 0.69608 0.85378 0.0
H2251 H 0.3417 0.711 0.8273 0.0
H2252 H 0.32438 0.68443 0.82534 0.0
H2253 H 0.29361 0.70657 0.79982 0.0
H2254 H 0.31066 0.73324 0.80193 0.0
H2255 H 0.28021 0.73311 0.81106 0.0
H2256 H 0.27647 0.7547 0.90009 0.0
H2257 H 0.30057 0.7904 0.89361 0.0
H2258 H 0.3337 0.75714 0.83325 0.0
C2259 C 0.27272 0.68247 0.84181 0.0
C2260 C 0.25378 0.67445 0.85583 0.0
C2261 C 0.24832 0.68628 0.87711 0.0
C2262 C 0.2602 0.70689 0.88346 0.0
C2263 C 0.27803 0.71499 0.86872 0.0
C2264 C 0.28474 0.70291 0.84865 0.0
C2265 C 0.30433 0.71572 0.83579 0.0
C2266 C 0.32705 0.70092 0.83555 0.0
C2267 C 0.29673 0.72256 0.81067 0.0
C2268 C 0.30693 0.73724 0.85134 0.0
C2269 C 0.29152 0.73648 0.87019 0.0
C2270 C 0.28909 0.75528 0.88578 0.0
C2271 C 0.30282 0.77543 0.882 0.0
C2272 C 0.31897 0.77643 0.86301 0.0
C2273 C 0.32131 0.75691 0.84778 0.0
H2274 H 0.29989 0.23249 0.88525 0.0
H2275 H 0.33767 0.27682 0.83538 0.0
H2276 H 0.30365 0.3037 0.83393 0.0
H2277 H 0.24603 0.23488 0.8547 0.0
H2278 H 0.22792 0.23447 0.88082 0.0
H2279 H 0.25658 0.22083 0.88118 0.0
H2280 H 0.26847 0.24662 0.91694 0.0
H2281 H 0.23983 0.26041 0.91666 0.0
H2282 H 0.26608 0.27825 0.91491 0.0
H2283 H 0.26482 0.32422 0.83549 0.0
H2284 H 0.22294 0.33588 0.8383 0.0
H2285 H 0.20881 0.2755 0.88302 0.0
C2286 C 0.3011 0.24744 0.87359 0.0
C2287 C 0.32144 0.25193 0.85983 0.0
C2288 C 0.32235 0.27279 0.84605 0.0
C2289 C 0.30308 0.28822 0.84508 0.0
C2290 C 0.28297 0.28257 0.85796 0.0
C2291 C 0.28179 0.26266 0.8719 0.0
C2292 C 0.25735 0.25948 0.88229 0.0
C2293 C 0.24633 0.23603 0.87426 0.0
C2294 C 0.25798 0.26131 0.90931 0.0
C2295 C 0.24481 0.28041 0.87147 0.0
C2296 C 0.2601 0.29379 0.85795 0.0
C2297 C 0.25267 0.31386 0.84596 0.0
C2298 C 0.22889 0.32023 0.84752 0.0
C2299 C 0.21275 0.30624 0.86044 0.0
C2300 C 0.22087 0.28633 0.8729 0.0
H2301 H 0.71601 0.20603 0.83645 0.0
H2302 H 0.64671 0.22758 0.8603 0.0
H2303 H 0.661 0.26853 0.86527 0.0
H2304 H 0.7482 0.24051 0.877 0.0
H2305 H 0.77167 0.24803 0.85692 0.0
H2306 H 0.75563 0.2209 0.85312 0.0
H2307 H 0.74506 0.23275 0.81028 0.0
H2308 H 0.76139 0.25976 0.81382 0.0
H2309 H 0.73093 0.2607 0.80482 0.0
H2310 H 0.68314 0.30643 0.86912 0.0
H2311 H 0.7118 0.33925 0.87132 0.0
H2312 H 0.76688 0.29275 0.84573 0.0
C2313 C 0.70386 0.21957 0.84226 0.0
C2314 C 0.68033 0.21404 0.84786 0.0
C2315 C 0.66481 0.23183 0.85584 0.0
C2316 C 0.67276 0.255 0.85873 0.0
C2317 C 0.69627 0.25992 0.85359 0.0
C2318 C 0.7116 0.24277 0.84543 0.0
C2319 C 0.73624 0.25253 0.84224 0.0
C2320 C 0.75397 0.23973 0.85828 0.0
C2321 C 0.74384 0.25137 0.81625 0.0
C2322 C 0.7324 0.27772 0.85015 0.0
C2323 C 0.7092 0.28165 0.85647 0.0
C2324 C 0.70138 0.30359 0.86425 0.0
C2325 C 0.71773 0.32206 0.8655 0.0
C2326 C 0.7416 0.31833 0.85929 0.0
C2327 C 0.74895 0.2959 0.85142 0.0
H2328 H 0.68631 0.71956 0.86552 0.0
H2329 H 0.7049 0.7822 0.82577 0.0
H2330 H 0.74573 0.76824 0.8222 0.0
H2331 H 0.7395 0.71656 0.89855 0.0
H2332 H 0.74179 0.68486 0.89808 0.0
H2333 H 0.71327 0.69873 0.89634 0.0
H2334 H 0.70446 0.67657 0.8574 0.0
H2335 H 0.73281 0.66236 0.85922 0.0
H2336 H 0.72496 0.67881 0.83319 0.0
H2337 H 0.78457 0.74877 0.82401 0.0
H2338 H 0.81953 0.72331 0.82982 0.0
H2339 H 0.77672 0.67337 0.86882 0.0
C2340 C 0.69898 0.73001 0.85577 0.0
C2341 C 0.69255 0.75183 0.84578 0.0
C2342 C 0.70948 0.76534 0.83336 0.0
C2343 C 0.73275 0.75762 0.83133 0.0
C2344 C 0.73878 0.73634 0.84183 0.0
C2345 C 0.72246 0.72258 0.85367 0.0
C2346 C 0.73395 0.70068 0.86376 0.0
C2347 C 0.73201 0.70019 0.89079 0.0
C2348 C 0.72342 0.67828 0.85272 0.0
C2349 C 0.7592 0.70451 0.85588 0.0
C2350 C 0.76153 0.7252 0.84324 0.0
C2351 C 0.78305 0.73254 0.83393 0.0
C2352 C 0.80276 0.71813 0.83739 0.0
C2353 C 0.8007 0.69683 0.85013 0.0
C2354 C 0.77872 0.68994 0.85953 0.0
H2355 H 0.66706 0.75986 0.1279 0.0
H2356 H 0.69928 0.79394 0.18836 0.0
H2357 H 0.72564 0.75998 0.19349 0.0
H2358 H 0.67216 0.69947 0.14636 0.0
H2359 H 0.68087 0.6886 0.11781 0.0
H2360 H 0.66249 0.71443 0.12004 0.0
H2361 H 0.69265 0.73837 0.09541 0.0
H2362 H 0.71099 0.71255 0.09289 0.0
H2363 H 0.72303 0.73947 0.10471 0.0
H2364 H 0.74744 0.72217 0.19315 0.0
H2365 H 0.76863 0.68552 0.18339 0.0
H2366 H 0.72788 0.6786 0.1192 0.0
C2367 C 0.67979 0.76033 0.14207 0.0
C2368 C 0.68058 0.7794 0.15814 0.0
C2369 C 0.69754 0.77916 0.17645 0.0
C2370 C 0.71279 0.76002 0.1794 0.0
C2371 C 0.71141 0.74149 0.16343 0.0
C2372 C 0.69582 0.7417 0.14475 0.0
C2373 C 0.69959 0.72045 0.12893 0.0
C2374 C 0.67746 0.70481 0.12826 0.0
C2375 C 0.70701 0.72817 0.10401 0.0
C2376 C 0.71968 0.70828 0.14175 0.0
C2377 C 0.72576 0.72055 0.1619 0.0
C2378 C 0.74316 0.71261 0.17722 0.0
C2379 C 0.75515 0.69187 0.17151 0.0
C2380 C 0.75017 0.67971 0.15037 0.0
C2381 C 0.73203 0.68779 0.1354 0.0
H2382 H 0.22454 0.69841 0.10822 0.0
H2383 H 0.24121 0.64384 0.15896 0.0
H2384 H 0.28053 0.66161 0.1653 0.0
H2385 H 0.28635 0.70486 0.08404 0.0
H2386 H 0.28294 0.73629 0.08075 0.0
H2387 H 0.25776 0.71716 0.07759 0.0
H2388 H 0.23576 0.74113 0.10964 0.0
H2389 H 0.26096 0.76004 0.11324 0.0
H2390 H 0.24901 0.74458 0.13831 0.0
H2391 H 0.31498 0.68856 0.17062 0.0
H2392 H 0.34338 0.72139 0.17274 0.0
H2393 H 0.30579 0.75709 0.11641 0.0
C2394 C 0.23685 0.68986 0.12004 0.0
C2395 C 0.23006 0.66991 0.13321 0.0
C2396 C 0.24628 0.65923 0.14882 0.0
C2397 C 0.26859 0.66916 0.15249 0.0
C2398 C 0.27448 0.68951 0.14004 0.0
C2399 C 0.25928 0.69952 0.12379 0.0
C2400 C 0.26928 0.7223 0.11403 0.0
C2401 C 0.27439 0.72001 0.08753 0.0
C2402 C 0.25277 0.74324 0.11912 0.0
C2403 C 0.29189 0.72406 0.12812 0.0
C2404 C 0.29465 0.70489 0.14287 0.0
C2405 C 0.31323 0.70346 0.15884 0.0
C2406 C 0.32927 0.72225 0.15993 0.0
C2407 C 0.32661 0.7423 0.14522 0.0
C2408 C 0.30801 0.74271 0.12864 0.0
H2409 H 0.67851 0.26789 0.16849 0.0
H2410 H 0.68461 0.23419 0.10013 0.0
H2411 H 0.71792 0.26012 0.09017 0.0
H2412 H 0.69281 0.32809 0.14639 0.0
H2413 H 0.70854 0.33574 0.1729 0.0
H2414 H 0.68422 0.31531 0.17421 0.0
H2415 H 0.71136 0.28438 0.19408 0.0
H2416 H 0.73578 0.3046 0.19265 0.0
H2417 H 0.73834 0.27574 0.17963 0.0
H2418 H 0.75371 0.2857 0.08982 0.0
H2419 H 0.7873 0.31215 0.09757 0.0
H2420 H 0.75498 0.33371 0.16345 0.0
C2421 C 0.68663 0.26622 0.15129 0.0
C2422 C 0.6796 0.24831 0.13549 0.0
C2423 C 0.69046 0.24689 0.11305 0.0
C2424 C 0.70918 0.26182 0.10705 0.0
C2425 C 0.71635 0.27862 0.12339 0.0
C2426 C 0.70511 0.28131 0.14484 0.0
C2427 C 0.71665 0.30054 0.15934 0.0
C2428 C 0.69953 0.32115 0.16345 0.0
C2429 C 0.72609 0.29072 0.18281 0.0
C2430 C 0.7366 0.3076 0.14301 0.0
C2431 C 0.7361 0.2947 0.12239 0.0
C2432 C 0.75395 0.29641 0.10559 0.0
C2433 C 0.7729 0.3116 0.11008 0.0
C2434 C 0.77373 0.32509 0.13104 0.0
C2435 C 0.75498 0.32343 0.14738 0.0
loop_
_geom_bond_atom_site_label_1
_geom_bond_atom_site_label_2
_geom_bond_distance
_geom_bond_site_symmetry_2
_ccdc_geom_bond_type
Co0 O3 1.970 . S
Co0 N17 1.989 . S
Co0 O25 1.967 . S
Co0 O32 1.920 . S
Co1 O4 1.966 . S
Co1 N10 2.022 . S
Co1 N18 1.993 . S
Co1 O26 1.941 . S
C2 O3 1.258 . S
C2 O4 1.263 . S
O3 Co0 1.970 . S
O3 C2 1.258 . S
O4 Co1 1.966 . S
O4 C2 1.263 . S
C5 O6 1.235 . S
C5 O32 1.289 . S
O6 C5 1.235 . S
C7 C9 1.400 . S
C7 N10 1.351 . S
C7 C12 1.501 . S
C8 C9 1.387 . S
C8 N11 1.341 . S
C9 C7 1.400 . S
C9 C8 1.387 . S
N10 Co1 2.022 . S
N10 C7 1.351 . S
N10 N11 1.365 . S
N11 C8 1.341 . S
N11 N10 1.365 . S
N11 H31 0.862 . S
C12 C7 1.501 . S
C12 H13 0.961 . S
C12 H14 0.961 . S
C12 H15 0.960 . S
H13 C12 0.961 . S
H14 C12 0.961 . S
H15 C12 0.960 . S
C16 N17 1.342 . S
C16 C20 1.401 . S
C16 C21 1.499 . S
N17 Co0 1.989 . S
N17 C16 1.342 . S
N17 N18 1.388 . S
N18 Co1 1.993 . S
N18 N17 1.388 . S
N18 C19 1.346 . S
C19 N18 1.346 . S
C19 C20 1.396 . S
C19 C29 1.510 . S
C20 C16 1.401 . S
C20 C19 1.396 . S
C21 C16 1.499 . S
C21 H22 0.959 . S
C21 H23 0.960 . S
C21 H24 0.961 . S
H22 C21 0.959 . S
H23 C21 0.960 . S
H24 C21 0.961 . S
O25 Co0 1.967 . S
O25 C33 1.258 . S
O26 Co1 1.941 . S
O26 C33 1.266 . S
H27 C29 0.959 . S
H28 C29 0.961 . S
C29 C19 1.510 . S
C29 H27 0.959 . S
C29 H28 0.961 . S
C29 H30 0.960 . S
H30 C29 0.960 . S
H31 N11 0.862 . S
O32 Co0 1.920 . S
O32 C5 1.289 . S
C33 O25 1.258 . S
C33 O26 1.266 . S
Co34 O37 1.970 . S
Co34 N51 1.989 . S
Co34 O59 1.967 . S
Co34 O66 1.920 . S
Co35 O38 1.966 . S
Co35 N44 2.022 . S
Co35 N52 1.993 . S
Co35 O60 1.941 . S
C36 O37 1.258 . S
C36 O38 1.263 . S
O37 Co34 1.970 . S
O37 C36 1.258 . S
O38 Co35 1.966 . S
O38 C36 1.263 . S
C39 O40 1.235 . S
C39 O66 1.289 . S
O40 C39 1.235 . S
C41 C43 1.400 . S
C41 N44 1.351 . S
C41 C46 1.501 . S
C42 C43 1.387 . S
C42 N45 1.341 . S
C43 C41 1.400 . S
C43 C42 1.387 . S
N44 Co35 2.022 . S
N44 C41 1.351 . S
N44 N45 1.365 . S
N45 C42 1.341 . S
N45 N44 1.365 . S
N45 H65 0.862 . S
C46 C41 1.501 . S
C46 H47 0.961 . S
C46 H48 0.961 . S
C46 H49 0.960 . S
H47 C46 0.961 . S
H48 C46 0.961 . S
H49 C46 0.960 . S
C50 N51 1.342 . S
C50 C54 1.401 . S
C50 C55 1.499 . S
N51 Co34 1.989 . S
N51 C50 1.342 . S
N51 N52 1.388 . S
N52 Co35 1.993 . S
N52 N51 1.388 . S
N52 C53 1.346 . S
C53 N52 1.346 . S
C53 C54 1.396 . S
C53 C63 1.510 . S
C54 C50 1.401 . S
C54 C53 1.396 . S
C55 C50 1.499 . S
C55 H56 0.959 . S
C55 H57 0.960 . S
C55 H58 0.961 . S
H56 C55 0.959 . S
H57 C55 0.960 . S
H58 C55 0.961 . S
O59 Co34 1.967 . S
O59 C67 1.258 . S
O60 Co35 1.941 . S
O60 C67 1.266 . S
H61 C63 0.959 . S
H62 C63 0.961 . S
C63 C53 1.510 . S
C63 H61 0.959 . S
C63 H62 0.961 . S
C63 H64 0.960 . S
H64 C63 0.960 . S
H65 N45 0.862 . S
O66 Co34 1.920 . S
O66 C39 1.289 . S
C67 O59 1.258 . S
C67 O60 1.266 . S
Co68 O71 1.970 . S
Co68 N85 1.989 . S
Co68 O93 1.967 . S
Co68 O100 1.920 . S
Co69 O72 1.966 . S
Co69 N78 2.022 . S
Co69 N86 1.993 . S
Co69 O94 1.941 . S
C70 O71 1.258 . S
C70 O72 1.263 . S
O71 Co68 1.970 . S
O71 C70 1.258 . S
O72 Co69 1.966 . S
O72 C70 1.263 . S
C73 O74 1.235 . S
C73 O100 1.289 . S
O74 C73 1.235 . S
C75 C77 1.400 . S
C75 N78 1.351 . S
C75 C80 1.501 . S
C76 C77 1.387 . S
C76 N79 1.341 . S
C77 C75 1.400 . S
C77 C76 1.387 . S
N78 Co69 2.022 . S
N78 C75 1.351 . S
N78 N79 1.365 . S
N79 C76 1.341 . S
N79 N78 1.365 . S
N79 H99 0.862 . S
C80 C75 1.501 . S
C80 H81 0.961 . S
C80 H82 0.961 . S
C80 H83 0.960 . S
H81 C80 0.961 . S
H82 C80 0.961 . S
H83 C80 0.960 . S
C84 N85 1.342 . S
C84 C88 1.401 . S
C84 C89 1.499 . S
N85 Co68 1.989 . S
N85 C84 1.342 . S
N85 N86 1.388 . S
N86 Co69 1.993 . S
N86 N85 1.388 . S
N86 C87 1.346 . S
C87 N86 1.346 . S
C87 C88 1.396 . S
C87 C97 1.510 . S
C88 C84 1.401 . S
C88 C87 1.396 . S
C89 C84 1.499 . S
C89 H90 0.959 . S
C89 H91 0.960 . S
C89 H92 0.961 . S
H90 C89 0.959 . S
H91 C89 0.960 . S
H92 C89 0.961 . S
O93 Co68 1.967 . S
O93 C101 1.258 . S
O94 Co69 1.941 . S
O94 C101 1.266 . S
H95 C97 0.959 . S
H96 C97 0.961 . S
C97 C87 1.510 . S
C97 H95 0.959 . S
C97 H96 0.961 . S
C97 H98 0.960 . S
H98 C97 0.960 . S
H99 N79 0.862 . S
O100 Co68 1.920 . S
O100 C73 1.289 . S
C101 O93 1.258 . S
C101 O94 1.266 . S
Co102 O105 1.970 . S
Co102 N119 1.989 . S
Co102 O127 1.967 . S
Co102 O134 1.920 . S
Co103 O106 1.966 . S
Co103 N112 2.022 . S
Co103 N120 1.993 . S
Co103 O128 1.941 . S
C104 O105 1.258 . S
C104 O106 1.263 . S
O105 Co102 1.970 . S
O105 C104 1.258 . S
O106 Co103 1.966 . S
O106 C104 1.263 . S
C107 O108 1.235 . S
C107 O134 1.289 . S
O108 C107 1.235 . S
C109 C111 1.400 . S
C109 N112 1.351 . S
C109 C114 1.501 . S
C110 C111 1.387 . S
C110 N113 1.341 . S
C111 C109 1.400 . S
C111 C110 1.387 . S
N112 Co103 2.022 . S
N112 C109 1.351 . S
N112 N113 1.365 . S
N113 C110 1.341 . S
N113 N112 1.365 . S
N113 H133 0.862 . S
C114 C109 1.501 . S
C114 H115 0.961 . S
C114 H116 0.961 . S
C114 H117 0.960 . S
H115 C114 0.961 . S
H116 C114 0.961 . S
H117 C114 0.960 . S
C118 N119 1.342 . S
C118 C122 1.401 . S
C118 C123 1.499 . S
N119 Co102 1.989 . S
N119 C118 1.342 . S
N119 N120 1.388 . S
N120 Co103 1.993 . S
N120 N119 1.388 . S
N120 C121 1.346 . S
C121 N120 1.346 . S
C121 C122 1.396 . S
C121 C131 1.510 . S
C122 C118 1.401 . S
C122 C121 1.396 . S
C123 C118 1.499 . S
C123 H124 0.959 . S
C123 H125 0.960 . S
C123 H126 0.961 . S
H124 C123 0.959 . S
H125 C123 0.960 . S
H126 C123 0.961 . S
O127 Co102 1.967 . S
O127 C135 1.258 . S
O128 Co103 1.941 . S
O128 C135 1.266 . S
H129 C131 0.959 . S
H130 C131 0.961 . S
C131 C121 1.510 . S
C131 H129 0.959 . S
C131 H130 0.961 . S
C131 H132 0.960 . S
H132 C131 0.960 . S
H133 N113 0.862 . S
O134 Co102 1.920 . S
O134 C107 1.289 . S
C135 O127 1.258 . S
C135 O128 1.266 . S
Co136 O139 1.970 . S
Co136 N153 1.989 . S
Co136 O161 1.967 . S
Co136 O168 1.920 . S
Co137 O140 1.966 . S
Co137 N146 2.022 . S
Co137 N154 1.993 . S
Co137 O162 1.941 . S
C138 O139 1.258 . S
C138 O140 1.263 . S
O139 Co136 1.970 . S
O139 C138 1.258 . S
O140 Co137 1.966 . S
O140 C138 1.263 . S
C141 O142 1.235 . S
C141 O168 1.289 . S
O142 C141 1.235 . S
C143 C145 1.400 . S
C143 N146 1.351 . S
C143 C148 1.501 . S
C144 C145 1.387 . S
C144 N147 1.341 . S
C145 C143 1.400 . S
C145 C144 1.387 . S
N146 Co137 2.022 . S
N146 C143 1.351 . S
N146 N147 1.365 . S
N147 C144 1.341 . S
N147 N146 1.365 . S
N147 H167 0.862 . S
C148 C143 1.501 . S
C148 H149 0.961 . S
C148 H150 0.961 . S
C148 H151 0.960 . S
H149 C148 0.961 . S
H150 C148 0.961 . S
H151 C148 0.960 . S
C152 N153 1.342 . S
C152 C156 1.401 . S
C152 C157 1.499 . S
N153 Co136 1.989 . S
N153 C152 1.342 . S
N153 N154 1.388 . S
N154 Co137 1.993 . S
N154 N153 1.388 . S
N154 C155 1.346 . S
C155 N154 1.346 . S
C155 C156 1.396 . S
C155 C165 1.510 . S
C156 C152 1.401 . S
C156 C155 1.396 . S
C157 C152 1.499 . S
C157 H158 0.959 . S
C157 H159 0.960 . S
C157 H160 0.961 . S
H158 C157 0.959 . S
H159 C157 0.960 . S
H160 C157 0.961 . S
O161 Co136 1.967 . S
O161 C169 1.258 . S
O162 Co137 1.941 . S
O162 C169 1.266 . S
H163 C165 0.959 . S
H164 C165 0.961 . S
C165 C155 1.510 . S
C165 H163 0.959 . S
C165 H164 0.961 . S
C165 H166 0.960 . S
H166 C165 0.960 . S
H167 N147 0.862 . S
O168 Co136 1.920 . S
O168 C141 1.289 . S
C169 O161 1.258 . S
C169 O162 1.266 . S
Co170 O173 1.970 . S
Co170 N187 1.989 . S
Co170 O195 1.967 . S
Co170 O202 1.920 . S
Co171 O174 1.966 . S
Co171 N180 2.022 . S
Co171 N188 1.993 . S
Co171 O196 1.941 . S
C172 O173 1.258 . S
C172 O174 1.263 . S
O173 Co170 1.970 . S
O173 C172 1.258 . S
O174 Co171 1.966 . S
O174 C172 1.263 . S
C175 O176 1.235 . S
C175 O202 1.289 . S
O176 C175 1.235 . S
C177 C179 1.400 . S
C177 N180 1.351 . S
C177 C182 1.501 . S
C178 C179 1.387 . S
C178 N181 1.341 . S
C179 C177 1.400 . S
C179 C178 1.387 . S
N180 Co171 2.022 . S
N180 C177 1.351 . S
N180 N181 1.365 . S
N181 C178 1.341 . S
N181 N180 1.365 . S
N181 H201 0.862 . S
C182 C177 1.501 . S
C182 H183 0.961 . S
C182 H184 0.961 . S
C182 H185 0.960 . S
H183 C182 0.961 . S
H184 C182 0.961 . S
H185 C182 0.960 . S
C186 N187 1.342 . S
C186 C190 1.401 . S
C186 C191 1.499 . S
N187 Co170 1.989 . S
N187 C186 1.342 . S
N187 N188 1.388 . S
N188 Co171 1.993 . S
N188 N187 1.388 . S
N188 C189 1.346 . S
C189 N188 1.346 . S
C189 C190 1.396 . S
C189 C199 1.510 . S
C190 C186 1.401 . S
C190 C189 1.396 . S
C191 C186 1.499 . S
C191 H192 0.959 . S
C191 H193 0.960 . S
C191 H194 0.961 . S
H192 C191 0.959 . S
H193 C191 0.960 . S
H194 C191 0.961 . S
O195 Co170 1.967 . S
O195 C203 1.258 . S
O196 Co171 1.941 . S
O196 C203 1.266 . S
H197 C199 0.959 . S
H198 C199 0.961 . S
C199 C189 1.510 . S
C199 H197 0.959 . S
C199 H198 0.961 . S
C199 H200 0.960 . S
H200 C199 0.960 . S
H201 N181 0.862 . S
O202 Co170 1.920 . S
O202 C175 1.289 . S
C203 O195 1.258 . S
C203 O196 1.266 . S
Co204 O207 1.970 . S
Co204 N221 1.989 . S
Co204 O229 1.967 . S
Co204 O236 1.920 . S
Co205 O208 1.966 . S
Co205 N214 2.022 . S
Co205 N222 1.993 . S
Co205 O230 1.941 . S
C206 O207 1.258 . S
C206 O208 1.263 . S
O207 Co204 1.970 . S
O207 C206 1.258 . S
O208 Co205 1.966 . S
O208 C206 1.263 . S
C209 O210 1.235 . S
C209 O236 1.289 . S
O210 C209 1.235 . S
C211 C213 1.400 . S
C211 N214 1.351 . S
C211 C216 1.501 . S
C212 C213 1.387 . S
C212 N215 1.341 . S
C213 C211 1.400 . S
C213 C212 1.387 . S
N214 Co205 2.022 . S
N214 C211 1.351 . S
N214 N215 1.365 . S
N215 C212 1.341 . S
N215 N214 1.365 . S
N215 H235 0.862 . S
C216 C211 1.501 . S
C216 H217 0.961 . S
C216 H218 0.961 . S
C216 H219 0.960 . S
H217 C216 0.961 . S
H218 C216 0.961 . S
H219 C216 0.960 . S
C220 N221 1.342 . S
C220 C224 1.401 . S
C220 C225 1.499 . S
N221 Co204 1.989 . S
N221 C220 1.342 . S
N221 N222 1.388 . S
N222 Co205 1.993 . S
N222 N221 1.388 . S
N222 C223 1.346 . S
C223 N222 1.346 . S
C223 C224 1.396 . S
C223 C233 1.510 . S
C224 C220 1.401 . S
C224 C223 1.396 . S
C225 C220 1.499 . S
C225 H226 0.959 . S
C225 H227 0.960 . S
C225 H228 0.961 . S
H226 C225 0.959 . S
H227 C225 0.960 . S
H228 C225 0.961 . S
O229 Co204 1.967 . S
O229 C237 1.258 . S
O230 Co205 1.941 . S
O230 C237 1.266 . S
H231 C233 0.959 . S
H232 C233 0.961 . S
C233 C223 1.510 . S
C233 H231 0.959 . S
C233 H232 0.961 . S
C233 H234 0.960 . S
H234 C233 0.960 . S
H235 N215 0.862 . S
O236 Co204 1.920 . S
O236 C209 1.289 . S
C237 O229 1.258 . S
C237 O230 1.266 . S
Co238 O241 1.970 . S
Co238 N255 1.989 . S
Co238 O263 1.967 . S
Co238 O270 1.920 . S
Co239 O242 1.966 . S
Co239 N248 2.022 . S
Co239 N256 1.993 . S
Co239 O264 1.941 . S
C240 O241 1.258 . S
C240 O242 1.263 . S
O241 Co238 1.970 . S
O241 C240 1.258 . S
O242 Co239 1.966 . S
O242 C240 1.263 . S
C243 O244 1.235 . S
C243 O270 1.289 . S
O244 C243 1.235 . S
C245 C247 1.400 . S
C245 N248 1.351 . S
C245 C250 1.501 . S
C246 C247 1.387 . S
C246 N249 1.341 . S
C247 C245 1.400 . S
C247 C246 1.387 . S
N248 Co239 2.022 . S
N248 C245 1.351 . S
N248 N249 1.365 . S
N249 C246 1.341 . S
N249 N248 1.365 . S
N249 H269 0.862 . S
C250 C245 1.501 . S
C250 H251 0.961 . S
C250 H252 0.961 . S
C250 H253 0.960 . S
H251 C250 0.961 . S
H252 C250 0.961 . S
H253 C250 0.960 . S
C254 N255 1.342 . S
C254 C258 1.401 . S
C254 C259 1.499 . S
N255 Co238 1.989 . S
N255 C254 1.342 . S
N255 N256 1.388 . S
N256 Co239 1.993 . S
N256 N255 1.388 . S
N256 C257 1.346 . S
C257 N256 1.346 . S
C257 C258 1.396 . S
C257 C267 1.510 . S
C258 C254 1.401 . S
C258 C257 1.396 . S
C259 C254 1.499 . S
C259 H260 0.959 . S
C259 H261 0.960 . S
C259 H262 0.961 . S
H260 C259 0.959 . S
H261 C259 0.960 . S
H262 C259 0.961 . S
O263 Co238 1.967 . S
O263 C271 1.258 . S
O264 Co239 1.941 . S
O264 C271 1.266 . S
H265 C267 0.959 . S
H266 C267 0.961 . S
C267 C257 1.510 . S
C267 H265 0.959 . S
C267 H266 0.961 . S
C267 H268 0.960 . S
H268 C267 0.960 . S
H269 N249 0.862 . S
O270 Co238 1.920 . S
O270 C243 1.289 . S
C271 O263 1.258 . S
C271 O264 1.266 . S
Co272 O275 1.970 . S
Co272 N289 1.989 . S
Co272 O297 1.967 . S
Co272 O304 1.920 . S
Co273 O276 1.966 . S
Co273 N282 2.022 . S
Co273 N290 1.993 . S
Co273 O298 1.941 . S
C274 O275 1.258 . S
C274 O276 1.263 . S
O275 Co272 1.970 . S
O275 C274 1.258 . S
O276 Co273 1.966 . S
O276 C274 1.263 . S
C277 O278 1.235 . S
C277 O304 1.289 . S
O278 C277 1.235 . S
C279 C281 1.400 . S
C279 N282 1.351 . S
C279 C284 1.501 . S
C280 C281 1.387 . S
C280 N283 1.341 . S
C281 C279 1.400 . S
C281 C280 1.387 . S
N282 Co273 2.022 . S
N282 C279 1.351 . S
N282 N283 1.365 . S
N283 C280 1.341 . S
N283 N282 1.365 . S
N283 H303 0.862 . S
C284 C279 1.501 . S
C284 H285 0.961 . S
C284 H286 0.961 . S
C284 H287 0.960 . S
H285 C284 0.961 . S
H286 C284 0.961 . S
H287 C284 0.960 . S
C288 N289 1.342 . S
C288 C292 1.401 . S
C288 C293 1.499 . S
N289 Co272 1.989 . S
N289 C288 1.342 . S
N289 N290 1.388 . S
N290 Co273 1.993 . S
N290 N289 1.388 . S
N290 C291 1.346 . S
C291 N290 1.346 . S
C291 C292 1.396 . S
C291 C301 1.510 . S
C292 C288 1.401 . S
C292 C291 1.396 . S
C293 C288 1.499 . S
C293 H294 0.959 . S
C293 H295 0.960 . S
C293 H296 0.961 . S
H294 C293 0.959 . S
H295 C293 0.960 . S
H296 C293 0.961 . S
O297 Co272 1.967 . S
O297 C305 1.258 . S
O298 Co273 1.941 . S
O298 C305 1.266 . S
H299 C301 0.959 . S
H300 C301 0.961 . S
C301 C291 1.510 . S
C301 H299 0.959 . S
C301 H300 0.961 . S
C301 H302 0.960 . S
H302 C301 0.960 . S
H303 N283 0.862 . S
O304 Co272 1.920 . S
O304 C277 1.289 . S
C305 O297 1.258 . S
C305 O298 1.266 . S
Co306 O309 1.970 . S
Co306 N323 1.989 . S
Co306 O331 1.967 . S
Co306 O338 1.920 . S
Co307 O310 1.966 . S
Co307 N316 2.022 . S
Co307 N324 1.993 . S
Co307 O332 1.941 . S
C308 O309 1.258 . S
C308 O310 1.263 . S
O309 Co306 1.970 . S
O309 C308 1.258 . S
O310 Co307 1.966 . S
O310 C308 1.263 . S
C311 O312 1.235 . S
C311 O338 1.289 . S
O312 C311 1.235 . S
C313 C315 1.400 . S
C313 N316 1.351 . S
C313 C318 1.501 . S
C314 C315 1.387 . S
C314 N317 1.341 . S
C315 C313 1.400 . S
C315 C314 1.387 . S
N316 Co307 2.022 . S
N316 C313 1.351 . S
N316 N317 1.365 . S
N317 C314 1.341 . S
N317 N316 1.365 . S
N317 H337 0.862 . S
C318 C313 1.501 . S
C318 H319 0.961 . S
C318 H320 0.961 . S
C318 H321 0.960 . S
H319 C318 0.961 . S
H320 C318 0.961 . S
H321 C318 0.960 . S
C322 N323 1.342 . S
C322 C326 1.401 . S
C322 C327 1.499 . S
N323 Co306 1.989 . S
N323 C322 1.342 . S
N323 N324 1.388 . S
N324 Co307 1.993 . S
N324 N323 1.388 . S
N324 C325 1.346 . S
C325 N324 1.346 . S
C325 C326 1.396 . S
C325 C335 1.510 . S
C326 C322 1.401 . S
C326 C325 1.396 . S
C327 C322 1.499 . S
C327 H328 0.959 . S
C327 H329 0.960 . S
C327 H330 0.961 . S
H328 C327 0.959 . S
H329 C327 0.960 . S
H330 C327 0.961 . S
O331 Co306 1.967 . S
O331 C339 1.258 . S
O332 Co307 1.941 . S
O332 C339 1.266 . S
H333 C335 0.959 . S
H334 C335 0.961 . S
C335 C325 1.510 . S
C335 H333 0.959 . S
C335 H334 0.961 . S
C335 H336 0.960 . S
H336 C335 0.960 . S
H337 N317 0.862 . S
O338 Co306 1.920 . S
O338 C311 1.289 . S
C339 O331 1.258 . S
C339 O332 1.266 . S
Co340 O343 1.970 . S
Co340 N357 1.989 . S
Co340 O365 1.967 . S
Co340 O372 1.920 . S
Co341 O344 1.966 . S
Co341 N350 2.022 . S
Co341 N358 1.993 . S
Co341 O366 1.941 . S
C342 O343 1.258 . S
C342 O344 1.263 . S
O343 Co340 1.970 . S
O343 C342 1.258 . S
O344 Co341 1.966 . S
O344 C342 1.263 . S
C345 O346 1.235 . S
C345 O372 1.289 . S
O346 C345 1.235 . S
C347 C349 1.400 . S
C347 N350 1.351 . S
C347 C352 1.501 . S
C348 C349 1.387 . S
C348 N351 1.341 . S
C349 C347 1.400 . S
C349 C348 1.387 . S
N350 Co341 2.022 . S
N350 C347 1.351 . S
N350 N351 1.365 . S
N351 C348 1.341 . S
N351 N350 1.365 . S
N351 H371 0.862 . S
C352 C347 1.501 . S
C352 H353 0.961 . S
C352 H354 0.961 . S
C352 H355 0.960 . S
H353 C352 0.961 . S
H354 C352 0.961 . S
H355 C352 0.960 . S
C356 N357 1.342 . S
C356 C360 1.401 . S
C356 C361 1.499 . S
N357 Co340 1.989 . S
N357 C356 1.342 . S
N357 N358 1.388 . S
N358 Co341 1.993 . S
N358 N357 1.388 . S
N358 C359 1.346 . S
C359 N358 1.346 . S
C359 C360 1.396 . S
C359 C369 1.510 . S
C360 C356 1.401 . S
C360 C359 1.396 . S
C361 C356 1.499 . S
C361 H362 0.959 . S
C361 H363 0.960 . S
C361 H364 0.961 . S
H362 C361 0.959 . S
H363 C361 0.960 . S
H364 C361 0.961 . S
O365 Co340 1.967 . S
O365 C373 1.258 . S
O366 Co341 1.941 . S
O366 C373 1.266 . S
H367 C369 0.959 . S
H368 C369 0.961 . S
C369 C359 1.510 . S
C369 H367 0.959 . S
C369 H368 0.961 . S
C369 H370 0.960 . S
H370 C369 0.960 . S
H371 N351 0.862 . S
O372 Co340 1.920 . S
O372 C345 1.289 . S
C373 O365 1.258 . S
C373 O366 1.266 . S
Co374 O377 1.970 . S
Co374 N391 1.989 . S
Co374 O399 1.967 . S
Co374 O406 1.920 . S
Co375 O378 1.966 . S
Co375 N384 2.022 . S
Co375 N392 1.993 . S
Co375 O400 1.941 . S
C376 O377 1.258 . S
C376 O378 1.263 . S
O377 Co374 1.970 . S
O377 C376 1.258 . S
O378 Co375 1.966 . S
O378 C376 1.263 . S
C379 O380 1.235 . S
C379 O406 1.289 . S
O380 C379 1.235 . S
C381 C383 1.400 . S
C381 N384 1.351 . S
C381 C386 1.501 . S
C382 C383 1.387 . S
C382 N385 1.341 . S
C383 C381 1.400 . S
C383 C382 1.387 . S
N384 Co375 2.022 . S
N384 C381 1.351 . S
N384 N385 1.365 . S
N385 C382 1.341 . S
N385 N384 1.365 . S
N385 H405 0.862 . S
C386 C381 1.501 . S
C386 H387 0.961 . S
C386 H388 0.961 . S
C386 H389 0.960 . S
H387 C386 0.961 . S
H388 C386 0.961 . S
H389 C386 0.960 . S
C390 N391 1.342 . S
C390 C394 1.401 . S
C390 C395 1.499 . S
N391 Co374 1.989 . S
N391 C390 1.342 . S
N391 N392 1.388 . S
N392 Co375 1.993 . S
N392 N391 1.388 . S
N392 C393 1.346 . S
C393 N392 1.346 . S
C393 C394 1.396 . S
C393 C403 1.510 . S
C394 C390 1.401 . S
C394 C393 1.396 . S
C395 C390 1.499 . S
C395 H396 0.959 . S
C395 H397 0.960 . S
C395 H398 0.961 . S
H396 C395 0.959 . S
H397 C395 0.960 . S
H398 C395 0.961 . S
O399 Co374 1.967 . S
O399 C407 1.258 . S
O400 Co375 1.941 . S
O400 C407 1.266 . S
H401 C403 0.959 . S
H402 C403 0.961 . S
C403 C393 1.510 . S
C403 H401 0.959 . S
C403 H402 0.961 . S
C403 H404 0.960 . S
H404 C403 0.960 . S
H405 N385 0.862 . S
O406 Co374 1.920 . S
O406 C379 1.289 . S
C407 O399 1.258 . S
C407 O400 1.266 . S
Co408 O411 1.970 . S
Co408 N425 1.989 . S
Co408 O433 1.967 . S
Co408 O440 1.920 . S
Co409 O412 1.966 . S
Co409 N418 2.022 . S
Co409 N426 1.993 . S
Co409 O434 1.941 . S
C410 O411 1.258 . S
C410 O412 1.263 . S
O411 Co408 1.970 . S
O411 C410 1.258 . S
O412 Co409 1.966 . S
O412 C410 1.263 . S
C413 O414 1.235 . S
C413 O440 1.289 . S
O414 C413 1.235 . S
C415 C417 1.400 . S
C415 N418 1.351 . S
C415 C420 1.501 . S
C416 C417 1.387 . S
C416 N419 1.341 . S
C417 C415 1.400 . S
C417 C416 1.387 . S
N418 Co409 2.022 . S
N418 C415 1.351 . S
N418 N419 1.365 . S
N419 C416 1.341 . S
N419 N418 1.365 . S
N419 H439 0.862 . S
C420 C415 1.501 . S
C420 H421 0.961 . S
C420 H422 0.961 . S
C420 H423 0.960 . S
H421 C420 0.961 . S
H422 C420 0.961 . S
H423 C420 0.960 . S
C424 N425 1.342 . S
C424 C428 1.401 . S
C424 C429 1.499 . S
N425 Co408 1.989 . S
N425 C424 1.342 . S
N425 N426 1.388 . S
N426 Co409 1.993 . S
N426 N425 1.388 . S
N426 C427 1.346 . S
C427 N426 1.346 . S
C427 C428 1.396 . S
C427 C437 1.510 . S
C428 C424 1.401 . S
C428 C427 1.396 . S
C429 C424 1.499 . S
C429 H430 0.959 . S
C429 H431 0.960 . S
C429 H432 0.961 . S
H430 C429 0.959 . S
H431 C429 0.960 . S
H432 C429 0.961 . S
O433 Co408 1.967 . S
O433 C441 1.258 . S
O434 Co409 1.941 . S
O434 C441 1.266 . S
H435 C437 0.959 . S
H436 C437 0.961 . S
C437 C427 1.510 . S
C437 H435 0.959 . S
C437 H436 0.961 . S
C437 H438 0.960 . S
H438 C437 0.960 . S
H439 N419 0.862 . S
O440 Co408 1.920 . S
O440 C413 1.289 . S
C441 O433 1.258 . S
C441 O434 1.266 . S
Co442 O445 1.970 . S
Co442 N459 1.989 . S
Co442 O467 1.967 . S
Co442 O474 1.920 . S
Co443 O446 1.966 . S
Co443 N452 2.022 . S
Co443 N460 1.993 . S
Co443 O468 1.941 . S
C444 O445 1.258 . S
C444 O446 1.263 . S
O445 Co442 1.970 . S
O445 C444 1.258 . S
O446 Co443 1.966 . S
O446 C444 1.263 . S
C447 O448 1.235 . S
C447 O474 1.289 . S
O448 C447 1.235 . S
C449 C451 1.400 . S
C449 N452 1.351 . S
C449 C454 1.501 . S
C450 C451 1.387 . S
C450 N453 1.341 . S
C451 C449 1.400 . S
C451 C450 1.387 . S
N452 Co443 2.022 . S
N452 C449 1.351 . S
N452 N453 1.365 . S
N453 C450 1.341 . S
N453 N452 1.365 . S
N453 H473 0.862 . S
C454 C449 1.501 . S
C454 H455 0.961 . S
C454 H456 0.961 . S
C454 H457 0.960 . S
H455 C454 0.961 . S
H456 C454 0.961 . S
H457 C454 0.960 . S
C458 N459 1.342 . S
C458 C462 1.401 . S
C458 C463 1.499 . S
N459 Co442 1.989 . S
N459 C458 1.342 . S
N459 N460 1.388 . S
N460 Co443 1.993 . S
N460 N459 1.388 . S
N460 C461 1.346 . S
C461 N460 1.346 . S
C461 C462 1.396 . S
C461 C471 1.510 . S
C462 C458 1.401 . S
C462 C461 1.396 . S
C463 C458 1.499 . S
C463 H464 0.959 . S
C463 H465 0.960 . S
C463 H466 0.961 . S
H464 C463 0.959 . S
H465 C463 0.960 . S
H466 C463 0.961 . S
O467 Co442 1.967 . S
O467 C475 1.258 . S
O468 Co443 1.941 . S
O468 C475 1.266 . S
H469 C471 0.959 . S
H470 C471 0.961 . S
C471 C461 1.510 . S
C471 H469 0.959 . S
C471 H470 0.961 . S
C471 H472 0.960 . S
H472 C471 0.960 . S
H473 N453 0.862 . S
O474 Co442 1.920 . S
O474 C447 1.289 . S
C475 O467 1.258 . S
C475 O468 1.266 . S
Co476 O479 1.970 . S
Co476 N493 1.989 . S
Co476 O501 1.967 . S
Co476 O508 1.920 . S
Co477 O480 1.966 . S
Co477 N486 2.022 . S
Co477 N494 1.993 . S
Co477 O502 1.941 . S
C478 O479 1.258 . S
C478 O480 1.263 . S
O479 Co476 1.970 . S
O479 C478 1.258 . S
O480 Co477 1.966 . S
O480 C478 1.263 . S
C481 O482 1.235 . S
C481 O508 1.289 . S
O482 C481 1.235 . S
C483 C485 1.400 . S
C483 N486 1.351 . S
C483 C488 1.501 . S
C484 C485 1.387 . S
C484 N487 1.341 . S
C485 C483 1.400 . S
C485 C484 1.387 . S
N486 Co477 2.022 . S
N486 C483 1.351 . S
N486 N487 1.365 . S
N487 C484 1.341 . S
N487 N486 1.365 . S
N487 H507 0.862 . S
C488 C483 1.501 . S
C488 H489 0.961 . S
C488 H490 0.961 . S
C488 H491 0.960 . S
H489 C488 0.961 . S
H490 C488 0.961 . S
H491 C488 0.960 . S
C492 N493 1.342 . S
C492 C496 1.401 . S
C492 C497 1.499 . S
N493 Co476 1.989 . S
N493 C492 1.342 . S
N493 N494 1.388 . S
N494 Co477 1.993 . S
N494 N493 1.388 . S
N494 C495 1.346 . S
C495 N494 1.346 . S
C495 C496 1.396 . S
C495 C505 1.510 . S
C496 C492 1.401 . S
C496 C495 1.396 . S
C497 C492 1.499 . S
C497 H498 0.959 . S
C497 H499 0.960 . S
C497 H500 0.961 . S
H498 C497 0.959 . S
H499 C497 0.960 . S
H500 C497 0.961 . S
O501 Co476 1.967 . S
O501 C509 1.258 . S
O502 Co477 1.941 . S
O502 C509 1.266 . S
H503 C505 0.959 . S
H504 C505 0.961 . S
C505 C495 1.510 . S
C505 H503 0.959 . S
C505 H504 0.961 . S
C505 H506 0.960 . S
H506 C505 0.960 . S
H507 N487 0.862 . S
O508 Co476 1.920 . S
O508 C481 1.289 . S
C509 O501 1.258 . S
C509 O502 1.266 . S
Co510 O513 1.970 . S
Co510 N527 1.989 . S
Co510 O535 1.967 . S
Co510 O542 1.920 . S
Co511 O514 1.966 . S
Co511 N520 2.022 . S
Co511 N528 1.993 . S
Co511 O536 1.941 . S
C512 O513 1.258 . S
C512 O514 1.263 . S
O513 Co510 1.970 . S
O513 C512 1.258 . S
O514 Co511 1.966 . S
O514 C512 1.263 . S
C515 O516 1.235 . S
C515 O542 1.289 . S
O516 C515 1.235 . S
C517 C519 1.400 . S
C517 N520 1.351 . S
C517 C522 1.501 . S
C518 C519 1.387 . S
C518 N521 1.341 . S
C519 C517 1.400 . S
C519 C518 1.387 . S
N520 Co511 2.022 . S
N520 C517 1.351 . S
N520 N521 1.365 . S
N521 C518 1.341 . S
N521 N520 1.365 . S
N521 H541 0.862 . S
C522 C517 1.501 . S
C522 H523 0.961 . S
C522 H524 0.961 . S
C522 H525 0.960 . S
H523 C522 0.961 . S
H524 C522 0.961 . S
H525 C522 0.960 . S
C526 N527 1.342 . S
C526 C530 1.401 . S
C526 C531 1.499 . S
N527 Co510 1.989 . S
N527 C526 1.342 . S
N527 N528 1.388 . S
N528 Co511 1.993 . S
N528 N527 1.388 . S
N528 C529 1.346 . S
C529 N528 1.346 . S
C529 C530 1.396 . S
C529 C539 1.510 . S
C530 C526 1.401 . S
C530 C529 1.396 . S
C531 C526 1.499 . S
C531 H532 0.959 . S
C531 H533 0.960 . S
C531 H534 0.961 . S
H532 C531 0.959 . S
H533 C531 0.960 . S
H534 C531 0.961 . S
O535 Co510 1.967 . S
O535 C543 1.258 . S
O536 Co511 1.941 . S
O536 C543 1.266 . S
H537 C539 0.959 . S
H538 C539 0.961 . S
C539 C529 1.510 . S
C539 H537 0.959 . S
C539 H538 0.961 . S
C539 H540 0.960 . S
H540 C539 0.960 . S
H541 N521 0.862 . S
O542 Co510 1.920 . S
O542 C515 1.289 . S
C543 O535 1.258 . S
C543 O536 1.266 . S
Co544 O547 1.970 . S
Co544 N561 1.989 . S
Co544 O569 1.967 . S
Co544 O576 1.920 . S
Co545 O548 1.966 . S
Co545 N554 2.022 . S
Co545 N562 1.993 . S
Co545 O570 1.941 . S
C546 O547 1.258 . S
C546 O548 1.263 . S
O547 Co544 1.970 . S
O547 C546 1.258 . S
O548 Co545 1.966 . S
O548 C546 1.263 . S
C549 O550 1.235 . S
C549 O576 1.289 . S
O550 C549 1.235 . S
C551 C553 1.400 . S
C551 N554 1.351 . S
C551 C556 1.501 . S
C552 C553 1.387 . S
C552 N555 1.341 . S
C553 C551 1.400 . S
C553 C552 1.387 . S
N554 Co545 2.022 . S
N554 C551 1.351 . S
N554 N555 1.365 . S
N555 C552 1.341 . S
N555 N554 1.365 . S
N555 H575 0.862 . S
C556 C551 1.501 . S
C556 H557 0.961 . S
C556 H558 0.961 . S
C556 H559 0.960 . S
H557 C556 0.961 . S
H558 C556 0.961 . S
H559 C556 0.960 . S
C560 N561 1.342 . S
C560 C564 1.401 . S
C560 C565 1.499 . S
N561 Co544 1.989 . S
N561 C560 1.342 . S
N561 N562 1.388 . S
N562 Co545 1.993 . S
N562 N561 1.388 . S
N562 C563 1.346 . S
C563 N562 1.346 . S
C563 C564 1.396 . S
C563 C573 1.510 . S
C564 C560 1.401 . S
C564 C563 1.396 . S
C565 C560 1.499 . S
C565 H566 0.959 . S
C565 H567 0.960 . S
C565 H568 0.961 . S
H566 C565 0.959 . S
H567 C565 0.960 . S
H568 C565 0.961 . S
O569 Co544 1.967 . S
O569 C577 1.258 . S
O570 Co545 1.941 . S
O570 C577 1.266 . S
H571 C573 0.959 . S
H572 C573 0.961 . S
C573 C563 1.510 . S
C573 H571 0.959 . S
C573 H572 0.961 . S
C573 H574 0.960 . S
H574 C573 0.960 . S
H575 N555 0.862 . S
O576 Co544 1.920 . S
O576 C549 1.289 . S
C577 O569 1.258 . S
C577 O570 1.266 . S
Co578 O581 1.970 . S
Co578 N595 1.989 . S
Co578 O603 1.967 . S
Co578 O610 1.920 . S
Co579 O582 1.966 . S
Co579 N588 2.022 . S
Co579 N596 1.993 . S
Co579 O604 1.941 . S
C580 O581 1.258 . S
C580 O582 1.263 . S
O581 Co578 1.970 . S
O581 C580 1.258 . S
O582 Co579 1.966 . S
O582 C580 1.263 . S
C583 O584 1.235 . S
C583 O610 1.289 . S
O584 C583 1.235 . S
C585 C587 1.400 . S
C585 N588 1.351 . S
C585 C590 1.501 . S
C586 C587 1.387 . S
C586 N589 1.341 . S
C587 C585 1.400 . S
C587 C586 1.387 . S
N588 Co579 2.022 . S
N588 C585 1.351 . S
N588 N589 1.365 . S
N589 C586 1.341 . S
N589 N588 1.365 . S
N589 H609 0.862 . S
C590 C585 1.501 . S
C590 H591 0.961 . S
C590 H592 0.961 . S
C590 H593 0.960 . S
H591 C590 0.961 . S
H592 C590 0.961 . S
H593 C590 0.960 . S
C594 N595 1.342 . S
C594 C598 1.401 . S
C594 C599 1.499 . S
N595 Co578 1.989 . S
N595 C594 1.342 . S
N595 N596 1.388 . S
N596 Co579 1.993 . S
N596 N595 1.388 . S
N596 C597 1.346 . S
C597 N596 1.346 . S
C597 C598 1.396 . S
C597 C607 1.510 . S
C598 C594 1.401 . S
C598 C597 1.396 . S
C599 C594 1.499 . S
C599 H600 0.959 . S
C599 H601 0.960 . S
C599 H602 0.961 . S
H600 C599 0.959 . S
H601 C599 0.960 . S
H602 C599 0.961 . S
O603 Co578 1.967 . S
O603 C611 1.258 . S
O604 Co579 1.941 . S
O604 C611 1.266 . S
H605 C607 0.959 . S
H606 C607 0.961 . S
C607 C597 1.510 . S
C607 H605 0.959 . S
C607 H606 0.961 . S
C607 H608 0.960 . S
H608 C607 0.960 . S
H609 N589 0.862 . S
O610 Co578 1.920 . S
O610 C583 1.289 . S
C611 O603 1.258 . S
C611 O604 1.266 . S
Co612 O615 1.970 . S
Co612 N629 1.989 . S
Co612 O637 1.967 . S
Co612 O644 1.920 . S
Co613 O616 1.966 . S
Co613 N622 2.022 . S
Co613 N630 1.993 . S
Co613 O638 1.941 . S
C614 O615 1.258 . S
C614 O616 1.263 . S
O615 Co612 1.970 . S
O615 C614 1.258 . S
O616 Co613 1.966 . S
O616 C614 1.263 . S
C617 O618 1.235 . S
C617 O644 1.289 . S
O618 C617 1.235 . S
C619 C621 1.400 . S
C619 N622 1.351 . S
C619 C624 1.501 . S
C620 C621 1.387 . S
C620 N623 1.341 . S
C621 C619 1.400 . S
C621 C620 1.387 . S
N622 Co613 2.022 . S
N622 C619 1.351 . S
N622 N623 1.365 . S
N623 C620 1.341 . S
N623 N622 1.365 . S
N623 H643 0.862 . S
C624 C619 1.501 . S
C624 H625 0.961 . S
C624 H626 0.961 . S
C624 H627 0.960 . S
H625 C624 0.961 . S
H626 C624 0.961 . S
H627 C624 0.960 . S
C628 N629 1.342 . S
C628 C632 1.401 . S
C628 C633 1.499 . S
N629 Co612 1.989 . S
N629 C628 1.342 . S
N629 N630 1.388 . S
N630 Co613 1.993 . S
N630 N629 1.388 . S
N630 C631 1.346 . S
C631 N630 1.346 . S
C631 C632 1.396 . S
C631 C641 1.510 . S
C632 C628 1.401 . S
C632 C631 1.396 . S
C633 C628 1.499 . S
C633 H634 0.959 . S
C633 H635 0.960 . S
C633 H636 0.961 . S
H634 C633 0.959 . S
H635 C633 0.960 . S
H636 C633 0.961 . S
O637 Co612 1.967 . S
O637 C645 1.258 . S
O638 Co613 1.941 . S
O638 C645 1.266 . S
H639 C641 0.959 . S
H640 C641 0.961 . S
C641 C631 1.510 . S
C641 H639 0.959 . S
C641 H640 0.961 . S
C641 H642 0.960 . S
H642 C641 0.960 . S
H643 N623 0.862 . S
O644 Co612 1.920 . S
O644 C617 1.289 . S
C645 O637 1.258 . S
C645 O638 1.266 . S
Co646 O649 1.970 . S
Co646 N663 1.989 . S
Co646 O671 1.967 . S
Co646 O678 1.920 . S
Co647 O650 1.966 . S
Co647 N656 2.022 . S
Co647 N664 1.993 . S
Co647 O672 1.941 . S
C648 O649 1.258 . S
C648 O650 1.263 . S
O649 Co646 1.970 . S
O649 C648 1.258 . S
O650 Co647 1.966 . S
O650 C648 1.263 . S
C651 O652 1.235 . S
C651 O678 1.289 . S
O652 C651 1.235 . S
C653 C655 1.400 . S
C653 N656 1.351 . S
C653 C658 1.501 . S
C654 C655 1.387 . S
C654 N657 1.341 . S
C655 C653 1.400 . S
C655 C654 1.387 . S
N656 Co647 2.022 . S
N656 C653 1.351 . S
N656 N657 1.365 . S
N657 C654 1.341 . S
N657 N656 1.365 . S
N657 H677 0.862 . S
C658 C653 1.501 . S
C658 H659 0.961 . S
C658 H660 0.961 . S
C658 H661 0.960 . S
H659 C658 0.961 . S
H660 C658 0.961 . S
H661 C658 0.960 . S
C662 N663 1.342 . S
C662 C666 1.401 . S
C662 C667 1.499 . S
N663 Co646 1.989 . S
N663 C662 1.342 . S
N663 N664 1.388 . S
N664 Co647 1.993 . S
N664 N663 1.388 . S
N664 C665 1.346 . S
C665 N664 1.346 . S
C665 C666 1.396 . S
C665 C675 1.510 . S
C666 C662 1.401 . S
C666 C665 1.396 . S
C667 C662 1.499 . S
C667 H668 0.959 . S
C667 H669 0.960 . S
C667 H670 0.961 . S
H668 C667 0.959 . S
H669 C667 0.960 . S
H670 C667 0.961 . S
O671 Co646 1.967 . S
O671 C679 1.258 . S
O672 Co647 1.941 . S
O672 C679 1.266 . S
H673 C675 0.959 . S
H674 C675 0.961 . S
C675 C665 1.510 . S
C675 H673 0.959 . S
C675 H674 0.961 . S
C675 H676 0.960 . S
H676 C675 0.960 . S
H677 N657 0.862 . S
O678 Co646 1.920 . S
O678 C651 1.289 . S
C679 O671 1.258 . S
C679 O672 1.266 . S
Co680 O683 1.970 . S
Co680 N697 1.989 . S
Co680 O705 1.967 . S
Co680 O712 1.920 . S
Co681 O684 1.966 . S
Co681 N690 2.022 . S
Co681 N698 1.993 . S
Co681 O706 1.941 . S
C682 O683 1.258 . S
C682 O684 1.263 . S
O683 Co680 1.970 . S
O683 C682 1.258 . S
O684 Co681 1.966 . S
O684 C682 1.263 . S
C685 O686 1.235 . S
C685 O712 1.289 . S
O686 C685 1.235 . S
C687 C689 1.400 . S
C687 N690 1.351 . S
C687 C692 1.501 . S
C688 C689 1.387 . S
C688 N691 1.341 . S
C689 C687 1.400 . S
C689 C688 1.387 . S
N690 Co681 2.022 . S
N690 C687 1.351 . S
N690 N691 1.365 . S
N691 C688 1.341 . S
N691 N690 1.365 . S
N691 H711 0.862 . S
C692 C687 1.501 . S
C692 H693 0.961 . S
C692 H694 0.961 . S
C692 H695 0.960 . S
H693 C692 0.961 . S
H694 C692 0.961 . S
H695 C692 0.960 . S
C696 N697 1.342 . S
C696 C700 1.401 . S
C696 C701 1.499 . S
N697 Co680 1.989 . S
N697 C696 1.342 . S
N697 N698 1.388 . S
N698 Co681 1.993 . S
N698 N697 1.388 . S
N698 C699 1.346 . S
C699 N698 1.346 . S
C699 C700 1.396 . S
C699 C709 1.510 . S
C700 C696 1.401 . S
C700 C699 1.396 . S
C701 C696 1.499 . S
C701 H702 0.959 . S
C701 H703 0.960 . S
C701 H704 0.961 . S
H702 C701 0.959 . S
H703 C701 0.960 . S
H704 C701 0.961 . S
O705 Co680 1.967 . S
O705 C713 1.258 . S
O706 Co681 1.941 . S
O706 C713 1.266 . S
H707 C709 0.959 . S
H708 C709 0.961 . S
C709 C699 1.510 . S
C709 H707 0.959 . S
C709 H708 0.961 . S
C709 H710 0.960 . S
H710 C709 0.960 . S
H711 N691 0.862 . S
O712 Co680 1.920 . S
O712 C685 1.289 . S
C713 O705 1.258 . S
C713 O706 1.266 . S
Co714 O717 1.970 . S
Co714 N731 1.989 . S
Co714 O739 1.967 . S
Co714 O746 1.920 . S
Co715 O718 1.966 . S
Co715 N724 2.022 . S
Co715 N732 1.993 . S
Co715 O740 1.941 . S
C716 O717 1.258 . S
C716 O718 1.263 . S
O717 Co714 1.970 . S
O717 C716 1.258 . S
O718 Co715 1.966 . S
O718 C716 1.263 . S
C719 O720 1.235 . S
C719 O746 1.289 . S
O720 C719 1.235 . S
C721 C723 1.400 . S
C721 N724 1.351 . S
C721 C726 1.501 . S
C722 C723 1.387 . S
C722 N725 1.341 . S
C723 C721 1.400 . S
C723 C722 1.387 . S
N724 Co715 2.022 . S
N724 C721 1.351 . S
N724 N725 1.365 . S
N725 C722 1.341 . S
N725 N724 1.365 . S
N725 H745 0.862 . S
C726 C721 1.501 . S
C726 H727 0.961 . S
C726 H728 0.961 . S
C726 H729 0.960 . S
H727 C726 0.961 . S
H728 C726 0.961 . S
H729 C726 0.960 . S
C730 N731 1.342 . S
C730 C734 1.401 . S
C730 C735 1.499 . S
N731 Co714 1.989 . S
N731 C730 1.342 . S
N731 N732 1.388 . S
N732 Co715 1.993 . S
N732 N731 1.388 . S
N732 C733 1.346 . S
C733 N732 1.346 . S
C733 C734 1.396 . S
C733 C743 1.510 . S
C734 C730 1.401 . S
C734 C733 1.396 . S
C735 C730 1.499 . S
C735 H736 0.959 . S
C735 H737 0.960 . S
C735 H738 0.961 . S
H736 C735 0.959 . S
H737 C735 0.960 . S
H738 C735 0.961 . S
O739 Co714 1.967 . S
O739 C747 1.258 . S
O740 Co715 1.941 . S
O740 C747 1.266 . S
H741 C743 0.959 . S
H742 C743 0.961 . S
C743 C733 1.510 . S
C743 H741 0.959 . S
C743 H742 0.961 . S
C743 H744 0.960 . S
H744 C743 0.960 . S
H745 N725 0.862 . S
O746 Co714 1.920 . S
O746 C719 1.289 . S
C747 O739 1.258 . S
C747 O740 1.266 . S
Co748 O751 1.970 . S
Co748 N765 1.989 . S
Co748 O773 1.967 . S
Co748 O780 1.920 . S
Co749 O752 1.966 . S
Co749 N758 2.022 . S
Co749 N766 1.993 . S
Co749 O774 1.941 . S
C750 O751 1.258 . S
C750 O752 1.263 . S
O751 Co748 1.970 . S
O751 C750 1.258 . S
O752 Co749 1.966 . S
O752 C750 1.263 . S
C753 O754 1.235 . S
C753 O780 1.289 . S
O754 C753 1.235 . S
C755 C757 1.400 . S
C755 N758 1.351 . S
C755 C760 1.501 . S
C756 C757 1.387 . S
C756 N759 1.341 . S
C757 C755 1.400 . S
C757 C756 1.387 . S
N758 Co749 2.022 . S
N758 C755 1.351 . S
N758 N759 1.365 . S
N759 C756 1.341 . S
N759 N758 1.365 . S
N759 H779 0.862 . S
C760 C755 1.501 . S
C760 H761 0.961 . S
C760 H762 0.961 . S
C760 H763 0.960 . S
H761 C760 0.961 . S
H762 C760 0.961 . S
H763 C760 0.960 . S
C764 N765 1.342 . S
C764 C768 1.401 . S
C764 C769 1.499 . S
N765 Co748 1.989 . S
N765 C764 1.342 . S
N765 N766 1.388 . S
N766 Co749 1.993 . S
N766 N765 1.388 . S
N766 C767 1.346 . S
C767 N766 1.346 . S
C767 C768 1.396 . S
C767 C777 1.510 . S
C768 C764 1.401 . S
C768 C767 1.396 . S
C769 C764 1.499 . S
C769 H770 0.959 . S
C769 H771 0.960 . S
C769 H772 0.961 . S
H770 C769 0.959 . S
H771 C769 0.960 . S
H772 C769 0.961 . S
O773 Co748 1.967 . S
O773 C781 1.258 . S
O774 Co749 1.941 . S
O774 C781 1.266 . S
H775 C777 0.959 . S
H776 C777 0.961 . S
C777 C767 1.510 . S
C777 H775 0.959 . S
C777 H776 0.961 . S
C777 H778 0.960 . S
H778 C777 0.960 . S
H779 N759 0.862 . S
O780 Co748 1.920 . S
O780 C753 1.289 . S
C781 O773 1.258 . S
C781 O774 1.266 . S
Co782 O785 1.970 . S
Co782 N799 1.989 . S
Co782 O807 1.967 . S
Co782 O814 1.920 . S
Co783 O786 1.966 . S
Co783 N792 2.022 . S
Co783 N800 1.993 . S
Co783 O808 1.941 . S
C784 O785 1.258 . S
C784 O786 1.263 . S
O785 Co782 1.970 . S
O785 C784 1.258 . S
O786 Co783 1.966 . S
O786 C784 1.263 . S
C787 O788 1.235 . S
C787 O814 1.289 . S
O788 C787 1.235 . S
C789 C791 1.400 . S
C789 N792 1.351 . S
C789 C794 1.501 . S
C790 C791 1.387 . S
C790 N793 1.341 . S
C791 C789 1.400 . S
C791 C790 1.387 . S
N792 Co783 2.022 . S
N792 C789 1.351 . S
N792 N793 1.365 . S
N793 C790 1.341 . S
N793 N792 1.365 . S
N793 H813 0.862 . S
C794 C789 1.501 . S
C794 H795 0.961 . S
C794 H796 0.961 . S
C794 H797 0.960 . S
H795 C794 0.961 . S
H796 C794 0.961 . S
H797 C794 0.960 . S
C798 N799 1.342 . S
C798 C802 1.401 . S
C798 C803 1.499 . S
N799 Co782 1.989 . S
N799 C798 1.342 . S
N799 N800 1.388 . S
N800 Co783 1.993 . S
N800 N799 1.388 . S
N800 C801 1.346 . S
C801 N800 1.346 . S
C801 C802 1.396 . S
C801 C811 1.510 . S
C802 C798 1.401 . S
C802 C801 1.396 . S
C803 C798 1.499 . S
C803 H804 0.959 . S
C803 H805 0.960 . S
C803 H806 0.961 . S
H804 C803 0.959 . S
H805 C803 0.960 . S
H806 C803 0.961 . S
O807 Co782 1.967 . S
O807 C815 1.258 . S
O808 Co783 1.941 . S
O808 C815 1.266 . S
H809 C811 0.959 . S
H810 C811 0.961 . S
C811 C801 1.510 . S
C811 H809 0.959 . S
C811 H810 0.961 . S
C811 H812 0.960 . S
H812 C811 0.960 . S
H813 N793 0.862 . S
O814 Co782 1.920 . S
O814 C787 1.289 . S
C815 O807 1.258 . S
C815 O808 1.266 . S
H816 C828 0.930 . S
H817 C830 0.930 . S
H818 C831 0.930 . S
H819 C835 0.959 . S
H820 C835 0.959 . S
H821 C835 0.961 . S
H822 C836 0.960 . S
H823 C836 0.961 . S
H824 C836 0.959 . S
H825 C839 0.929 . S
H826 C840 0.931 . S
H827 C842 0.930 . S
C828 H816 0.930 . S
C828 C829 1.399 . S
C828 C833 1.399 . S
C829 C828 1.399 . S
C829 C830 1.376 . S
C830 H817 0.930 . S
C830 C829 1.376 . S
C830 C831 1.388 . S
C831 H818 0.930 . S
C831 C830 1.388 . S
C831 C832 1.390 . S
C832 C831 1.390 . S
C832 C833 1.394 . S
C832 C838 1.465 . S
C833 C828 1.399 . S
C833 C832 1.394 . S
C833 C834 1.516 . S
C834 C833 1.516 . S
C834 C835 1.502 . S
C834 C836 1.561 . S
C834 C837 1.526 . S
C835 H819 0.959 . S
C835 H820 0.959 . S
C835 H821 0.961 . S
C835 C834 1.502 . S
C836 H822 0.960 . S
C836 H823 0.961 . S
C836 H824 0.959 . S
C836 C834 1.561 . S
C837 C834 1.526 . S
C837 C838 1.396 . S
C837 C842 1.390 . S
C838 C832 1.465 . S
C838 C837 1.396 . S
C838 C839 1.399 . S
C839 H825 0.929 . S
C839 C838 1.399 . S
C839 C840 1.385 . S
C840 H826 0.931 . S
C840 C839 1.385 . S
C840 C841 1.389 . S
C841 C840 1.389 . S
C841 C842 1.387 . S
C842 H827 0.930 . S
C842 C837 1.390 . S
C842 C841 1.387 . S
H843 C855 0.930 . S
H844 C857 0.930 . S
H845 C858 0.930 . S
H846 C862 0.959 . S
H847 C862 0.959 . S
H848 C862 0.961 . S
H849 C863 0.960 . S
H850 C863 0.961 . S
H851 C863 0.959 . S
H852 C866 0.929 . S
H853 C867 0.931 . S
H854 C869 0.930 . S
C855 H843 0.930 . S
C855 C856 1.399 . S
C855 C860 1.399 . S
C856 C855 1.399 . S
C856 C857 1.376 . S
C857 H844 0.930 . S
C857 C856 1.376 . S
C857 C858 1.388 . S
C858 H845 0.930 . S
C858 C857 1.388 . S
C858 C859 1.390 . S
C859 C858 1.390 . S
C859 C860 1.394 . S
C859 C865 1.465 . S
C860 C855 1.399 . S
C860 C859 1.394 . S
C860 C861 1.516 . S
C861 C860 1.516 . S
C861 C862 1.502 . S
C861 C863 1.561 . S
C861 C864 1.526 . S
C862 H846 0.959 . S
C862 H847 0.959 . S
C862 H848 0.961 . S
C862 C861 1.502 . S
C863 H849 0.960 . S
C863 H850 0.961 . S
C863 H851 0.959 . S
C863 C861 1.561 . S
C864 C861 1.526 . S
C864 C865 1.396 . S
C864 C869 1.390 . S
C865 C859 1.465 . S
C865 C864 1.396 . S
C865 C866 1.399 . S
C866 H852 0.929 . S
C866 C865 1.399 . S
C866 C867 1.385 . S
C867 H853 0.931 . S
C867 C866 1.385 . S
C867 C868 1.389 . S
C868 C867 1.389 . S
C868 C869 1.387 . S
C869 H854 0.930 . S
C869 C864 1.390 . S
C869 C868 1.387 . S
H870 C882 0.930 . S
H871 C884 0.930 . S
H872 C885 0.930 . S
H873 C889 0.959 . S
H874 C889 0.959 . S
H875 C889 0.961 . S
H876 C890 0.960 . S
H877 C890 0.961 . S
H878 C890 0.959 . S
H879 C893 0.929 . S
H880 C894 0.931 . S
H881 C896 0.930 . S
C882 H870 0.930 . S
C882 C883 1.399 . S
C882 C887 1.399 . S
C883 C882 1.399 . S
C883 C884 1.376 . S
C884 H871 0.930 . S
C884 C883 1.376 . S
C884 C885 1.388 . S
C885 H872 0.930 . S
C885 C884 1.388 . S
C885 C886 1.390 . S
C886 C885 1.390 . S
C886 C887 1.394 . S
C886 C892 1.465 . S
C887 C882 1.399 . S
C887 C886 1.394 . S
C887 C888 1.516 . S
C888 C887 1.516 . S
C888 C889 1.502 . S
C888 C890 1.561 . S
C888 C891 1.526 . S
C889 H873 0.959 . S
C889 H874 0.959 . S
C889 H875 0.961 . S
C889 C888 1.502 . S
C890 H876 0.960 . S
C890 H877 0.961 . S
C890 H878 0.959 . S
C890 C888 1.561 . S
C891 C888 1.526 . S
C891 C892 1.396 . S
C891 C896 1.390 . S
C892 C886 1.465 . S
C892 C891 1.396 . S
C892 C893 1.399 . S
C893 H879 0.929 . S
C893 C892 1.399 . S
C893 C894 1.385 . S
C894 H880 0.931 . S
C894 C893 1.385 . S
C894 C895 1.389 . S
C895 C894 1.389 . S
C895 C896 1.387 . S
C896 H881 0.930 . S
C896 C891 1.390 . S
C896 C895 1.387 . S
H897 C909 0.930 . S
H898 C911 0.930 . S
H899 C912 0.930 . S
H900 C916 0.959 . S
H901 C916 0.959 . S
H902 C916 0.961 . S
H903 C917 0.960 . S
H904 C917 0.961 . S
H905 C917 0.959 . S
H906 C920 0.929 . S
H907 C921 0.931 . S
H908 C923 0.930 . S
C909 H897 0.930 . S
C909 C910 1.399 . S
C909 C914 1.399 . S
C910 C909 1.399 . S
C910 C911 1.376 . S
C911 H898 0.930 . S
C911 C910 1.376 . S
C911 C912 1.388 . S
C912 H899 0.930 . S
C912 C911 1.388 . S
C912 C913 1.390 . S
C913 C912 1.390 . S
C913 C914 1.394 . S
C913 C919 1.465 . S
C914 C909 1.399 . S
C914 C913 1.394 . S
C914 C915 1.516 . S
C915 C914 1.516 . S
C915 C916 1.502 . S
C915 C917 1.561 . S
C915 C918 1.526 . S
C916 H900 0.959 . S
C916 H901 0.959 . S
C916 H902 0.961 . S
C916 C915 1.502 . S
C917 H903 0.960 . S
C917 H904 0.961 . S
C917 H905 0.959 . S
C917 C915 1.561 . S
C918 C915 1.526 . S
C918 C919 1.396 . S
C918 C923 1.390 . S
C919 C913 1.465 . S
C919 C918 1.396 . S
C919 C920 1.399 . S
C920 H906 0.929 . S
C920 C919 1.399 . S
C920 C921 1.385 . S
C921 H907 0.931 . S
C921 C920 1.385 . S
C921 C922 1.389 . S
C922 C921 1.389 . S
C922 C923 1.387 . S
C923 H908 0.930 . S
C923 C918 1.390 . S
C923 C922 1.387 . S
H924 C936 0.930 . S
H925 C938 0.930 . S
H926 C939 0.930 . S
H927 C943 0.959 . S
H928 C943 0.959 . S
H929 C943 0.961 . S
H930 C944 0.960 . S
H931 C944 0.961 . S
H932 C944 0.959 . S
H933 C947 0.929 . S
H934 C948 0.931 . S
H935 C950 0.930 . S
C936 H924 0.930 . S
C936 C937 1.399 . S
C936 C941 1.399 . S
C937 C936 1.399 . S
C937 C938 1.376 . S
C938 H925 0.930 . S
C938 C937 1.376 . S
C938 C939 1.388 . S
C939 H926 0.930 . S
C939 C938 1.388 . S
C939 C940 1.390 . S
C940 C939 1.390 . S
C940 C941 1.394 . S
C940 C946 1.465 . S
C941 C936 1.399 . S
C941 C940 1.394 . S
C941 C942 1.516 . S
C942 C941 1.516 . S
C942 C943 1.502 . S
C942 C944 1.561 . S
C942 C945 1.526 . S
C943 H927 0.959 . S
C943 H928 0.959 . S
C943 H929 0.961 . S
C943 C942 1.502 . S
C944 H930 0.960 . S
C944 H931 0.961 . S
C944 H932 0.959 . S
C944 C942 1.561 . S
C945 C942 1.526 . S
C945 C946 1.396 . S
C945 C950 1.390 . S
C946 C940 1.465 . S
C946 C945 1.396 . S
C946 C947 1.399 . S
C947 H933 0.929 . S
C947 C946 1.399 . S
C947 C948 1.385 . S
C948 H934 0.931 . S
C948 C947 1.385 . S
C948 C949 1.389 . S
C949 C948 1.389 . S
C949 C950 1.387 . S
C950 H935 0.930 . S
C950 C945 1.390 . S
C950 C949 1.387 . S
H951 C963 0.930 . S
H952 C965 0.930 . S
H953 C966 0.930 . S
H954 C970 0.959 . S
H955 C970 0.959 . S
H956 C970 0.961 . S
H957 C971 0.960 . S
H958 C971 0.961 . S
H959 C971 0.959 . S
H960 C974 0.929 . S
H961 C975 0.931 . S
H962 C977 0.930 . S
C963 H951 0.930 . S
C963 C964 1.399 . S
C963 C968 1.399 . S
C964 C963 1.399 . S
C964 C965 1.376 . S
C965 H952 0.930 . S
C965 C964 1.376 . S
C965 C966 1.388 . S
C966 H953 0.930 . S
C966 C965 1.388 . S
C966 C967 1.390 . S
C967 C966 1.390 . S
C967 C968 1.394 . S
C967 C973 1.465 . S
C968 C963 1.399 . S
C968 C967 1.394 . S
C968 C969 1.516 . S
C969 C968 1.516 . S
C969 C970 1.502 . S
C969 C971 1.561 . S
C969 C972 1.526 . S
C970 H954 0.959 . S
C970 H955 0.959 . S
C970 H956 0.961 . S
C970 C969 1.502 . S
C971 H957 0.960 . S
C971 H958 0.961 . S
C971 H959 0.959 . S
C971 C969 1.561 . S
C972 C969 1.526 . S
C972 C973 1.396 . S
C972 C977 1.390 . S
C973 C967 1.465 . S
C973 C972 1.396 . S
C973 C974 1.399 . S
C974 H960 0.929 . S
C974 C973 1.399 . S
C974 C975 1.385 . S
C975 H961 0.931 . S
C975 C974 1.385 . S
C975 C976 1.389 . S
C976 C975 1.389 . S
C976 C977 1.387 . S
C977 H962 0.930 . S
C977 C972 1.390 . S
C977 C976 1.387 . S
H978 C990 0.930 . S
H979 C992 0.930 . S
H980 C993 0.930 . S
H981 C997 0.959 . S
H982 C997 0.959 . S
H983 C997 0.961 . S
H984 C998 0.960 . S
H985 C998 0.961 . S
H986 C998 0.959 . S
H987 C1001 0.929 . S
H988 C1002 0.931 . S
H989 C1004 0.930 . S
C990 H978 0.930 . S
C990 C991 1.399 . S
C990 C995 1.399 . S
C991 C990 1.399 . S
C991 C992 1.376 . S
C992 H979 0.930 . S
C992 C991 1.376 . S
C992 C993 1.388 . S
C993 H980 0.930 . S
C993 C992 1.388 . S
C993 C994 1.390 . S
C994 C993 1.390 . S
C994 C995 1.394 . S
C994 C1000 1.465 . S
C995 C990 1.399 . S
C995 C994 1.394 . S
C995 C996 1.516 . S
C996 C995 1.516 . S
C996 C997 1.502 . S
C996 C998 1.561 . S
C996 C999 1.526 . S
C997 H981 0.959 . S
C997 H982 0.959 . S
C997 H983 0.961 . S
C997 C996 1.502 . S
C998 H984 0.960 . S
C998 H985 0.961 . S
C998 H986 0.959 . S
C998 C996 1.561 . S
C999 C996 1.526 . S
C999 C1000 1.396 . S
C999 C1004 1.390 . S
C1000 C994 1.465 . S
C1000 C999 1.396 . S
C1000 C1001 1.399 . S
C1001 H987 0.929 . S
C1001 C1000 1.399 . S
C1001 C1002 1.385 . S
C1002 H988 0.931 . S
C1002 C1001 1.385 . S
C1002 C1003 1.389 . S
C1003 C1002 1.389 . S
C1003 C1004 1.387 . S
C1004 H989 0.930 . S
C1004 C999 1.390 . S
C1004 C1003 1.387 . S
H1005 C1017 0.930 . S
H1006 C1019 0.930 . S
H1007 C1020 0.930 . S
H1008 C1024 0.959 . S
H1009 C1024 0.959 . S
H1010 C1024 0.961 . S
H1011 C1025 0.960 . S
H1012 C1025 0.961 . S
H1013 C1025 0.959 . S
H1014 C1028 0.929 . S
H1015 C1029 0.931 . S
H1016 C1031 0.930 . S
C1017 H1005 0.930 . S
C1017 C1018 1.399 . S
C1017 C1022 1.399 . S
C1018 C1017 1.399 . S
C1018 C1019 1.376 . S
C1019 H1006 0.930 . S
C1019 C1018 1.376 . S
C1019 C1020 1.388 . S
C1020 H1007 0.930 . S
C1020 C1019 1.388 . S
C1020 C1021 1.390 . S
C1021 C1020 1.390 . S
C1021 C1022 1.394 . S
C1021 C1027 1.465 . S
C1022 C1017 1.399 . S
C1022 C1021 1.394 . S
C1022 C1023 1.516 . S
C1023 C1022 1.516 . S
C1023 C1024 1.502 . S
C1023 C1025 1.561 . S
C1023 C1026 1.526 . S
C1024 H1008 0.959 . S
C1024 H1009 0.959 . S
C1024 H1010 0.961 . S
C1024 C1023 1.502 . S
C1025 H1011 0.960 . S
C1025 H1012 0.961 . S
C1025 H1013 0.959 . S
C1025 C1023 1.561 . S
C1026 C1023 1.526 . S
C1026 C1027 1.396 . S
C1026 C1031 1.390 . S
C1027 C1021 1.465 . S
C1027 C1026 1.396 . S
C1027 C1028 1.399 . S
C1028 H1014 0.929 . S
C1028 C1027 1.399 . S
C1028 C1029 1.385 . S
C1029 H1015 0.931 . S
C1029 C1028 1.385 . S
C1029 C1030 1.389 . S
C1030 C1029 1.389 . S
C1030 C1031 1.387 . S
C1031 H1016 0.930 . S
C1031 C1026 1.390 . S
C1031 C1030 1.387 . S
H1032 C1044 0.930 . S
H1033 C1046 0.930 . S
H1034 C1047 0.930 . S
H1035 C1051 0.959 . S
H1036 C1051 0.959 . S
H1037 C1051 0.961 . S
H1038 C1052 0.960 . S
H1039 C1052 0.961 . S
H1040 C1052 0.959 . S
H1041 C1055 0.929 . S
H1042 C1056 0.931 . S
H1043 C1058 0.930 . S
C1044 H1032 0.930 . S
C1044 C1045 1.399 . S
C1044 C1049 1.399 . S
C1045 C1044 1.399 . S
C1045 C1046 1.376 . S
C1046 H1033 0.930 . S
C1046 C1045 1.376 . S
C1046 C1047 1.388 . S
C1047 H1034 0.930 . S
C1047 C1046 1.388 . S
C1047 C1048 1.390 . S
C1048 C1047 1.390 . S
C1048 C1049 1.394 . S
C1048 C1054 1.465 . S
C1049 C1044 1.399 . S
C1049 C1048 1.394 . S
C1049 C1050 1.516 . S
C1050 C1049 1.516 . S
C1050 C1051 1.502 . S
C1050 C1052 1.561 . S
C1050 C1053 1.526 . S
C1051 H1035 0.959 . S
C1051 H1036 0.959 . S
C1051 H1037 0.961 . S
C1051 C1050 1.502 . S
C1052 H1038 0.960 . S
C1052 H1039 0.961 . S
C1052 H1040 0.959 . S
C1052 C1050 1.561 . S
C1053 C1050 1.526 . S
C1053 C1054 1.396 . S
C1053 C1058 1.390 . S
C1054 C1048 1.465 . S
C1054 C1053 1.396 . S
C1054 C1055 1.399 . S
C1055 H1041 0.929 . S
C1055 C1054 1.399 . S
C1055 C1056 1.385 . S
C1056 H1042 0.931 . S
C1056 C1055 1.385 . S
C1056 C1057 1.389 . S
C1057 C1056 1.389 . S
C1057 C1058 1.387 . S
C1058 H1043 0.930 . S
C1058 C1053 1.390 . S
C1058 C1057 1.387 . S
H1059 C1071 0.930 . S
H1060 C1073 0.930 . S
H1061 C1074 0.930 . S
H1062 C1078 0.959 . S
H1063 C1078 0.959 . S
H1064 C1078 0.961 . S
H1065 C1079 0.960 . S
H1066 C1079 0.961 . S
H1067 C1079 0.959 . S
H1068 C1082 0.929 . S
H1069 C1083 0.931 . S
H1070 C1085 0.930 . S
C1071 H1059 0.930 . S
C1071 C1072 1.399 . S
C1071 C1076 1.399 . S
C1072 C1071 1.399 . S
C1072 C1073 1.376 . S
C1073 H1060 0.930 . S
C1073 C1072 1.376 . S
C1073 C1074 1.388 . S
C1074 H1061 0.930 . S
C1074 C1073 1.388 . S
C1074 C1075 1.390 . S
C1075 C1074 1.390 . S
C1075 C1076 1.394 . S
C1075 C1081 1.465 . S
C1076 C1071 1.399 . S
C1076 C1075 1.394 . S
C1076 C1077 1.516 . S
C1077 C1076 1.516 . S
C1077 C1078 1.502 . S
C1077 C1079 1.561 . S
C1077 C1080 1.526 . S
C1078 H1062 0.959 . S
C1078 H1063 0.959 . S
C1078 H1064 0.961 . S
C1078 C1077 1.502 . S
C1079 H1065 0.960 . S
C1079 H1066 0.961 . S
C1079 H1067 0.959 . S
C1079 C1077 1.561 . S
C1080 C1077 1.526 . S
C1080 C1081 1.396 . S
C1080 C1085 1.390 . S
C1081 C1075 1.465 . S
C1081 C1080 1.396 . S
C1081 C1082 1.399 . S
C1082 H1068 0.929 . S
C1082 C1081 1.399 . S
C1082 C1083 1.385 . S
C1083 H1069 0.931 . S
C1083 C1082 1.385 . S
C1083 C1084 1.389 . S
C1084 C1083 1.389 . S
C1084 C1085 1.387 . S
C1085 H1070 0.930 . S
C1085 C1080 1.390 . S
C1085 C1084 1.387 . S
H1086 C1098 0.930 . S
H1087 C1100 0.930 . S
H1088 C1101 0.930 . S
H1089 C1105 0.959 . S
H1090 C1105 0.959 . S
H1091 C1105 0.961 . S
H1092 C1106 0.960 . S
H1093 C1106 0.961 . S
H1094 C1106 0.959 . S
H1095 C1109 0.929 . S
H1096 C1110 0.931 . S
H1097 C1112 0.930 . S
C1098 H1086 0.930 . S
C1098 C1099 1.399 . S
C1098 C1103 1.399 . S
C1099 C1098 1.399 . S
C1099 C1100 1.376 . S
C1100 H1087 0.930 . S
C1100 C1099 1.376 . S
C1100 C1101 1.388 . S
C1101 H1088 0.930 . S
C1101 C1100 1.388 . S
C1101 C1102 1.390 . S
C1102 C1101 1.390 . S
C1102 C1103 1.394 . S
C1102 C1108 1.465 . S
C1103 C1098 1.399 . S
C1103 C1102 1.394 . S
C1103 C1104 1.516 . S
C1104 C1103 1.516 . S
C1104 C1105 1.502 . S
C1104 C1106 1.561 . S
C1104 C1107 1.526 . S
C1105 H1089 0.959 . S
C1105 H1090 0.959 . S
C1105 H1091 0.961 . S
C1105 C1104 1.502 . S
C1106 H1092 0.960 . S
C1106 H1093 0.961 . S
C1106 H1094 0.959 . S
C1106 C1104 1.561 . S
C1107 C1104 1.526 . S
C1107 C1108 1.396 . S
C1107 C1112 1.390 . S
C1108 C1102 1.465 . S
C1108 C1107 1.396 . S
C1108 C1109 1.399 . S
C1109 H1095 0.929 . S
C1109 C1108 1.399 . S
C1109 C1110 1.385 . S
C1110 H1096 0.931 . S
C1110 C1109 1.385 . S
C1110 C1111 1.389 . S
C1111 C1110 1.389 . S
C1111 C1112 1.387 . S
C1112 H1097 0.930 . S
C1112 C1107 1.390 . S
C1112 C1111 1.387 . S
H1113 C1125 0.930 . S
H1114 C1127 0.930 . S
H1115 C1128 0.930 . S
H1116 C1132 0.959 . S
H1117 C1132 0.959 . S
H1118 C1132 0.961 . S
H1119 C1133 0.960 . S
H1120 C1133 0.961 . S
H1121 C1133 0.959 . S
H1122 C1136 0.929 . S
H1123 C1137 0.931 . S
H1124 C1139 0.930 . S
C1125 H1113 0.930 . S
C1125 C1126 1.399 . S
C1125 C1130 1.399 . S
C1126 C1125 1.399 . S
C1126 C1127 1.376 . S
C1127 H1114 0.930 . S
C1127 C1126 1.376 . S
C1127 C1128 1.388 . S
C1128 H1115 0.930 . S
C1128 C1127 1.388 . S
C1128 C1129 1.390 . S
C1129 C1128 1.390 . S
C1129 C1130 1.394 . S
C1129 C1135 1.465 . S
C1130 C1125 1.399 . S
C1130 C1129 1.394 . S
C1130 C1131 1.516 . S
C1131 C1130 1.516 . S
C1131 C1132 1.502 . S
C1131 C1133 1.561 . S
C1131 C1134 1.526 . S
C1132 H1116 0.959 . S
C1132 H1117 0.959 . S
C1132 H1118 0.961 . S
C1132 C1131 1.502 . S
C1133 H1119 0.960 . S
C1133 H1120 0.961 . S
C1133 H1121 0.959 . S
C1133 C1131 1.561 . S
C1134 C1131 1.526 . S
C1134 C1135 1.396 . S
C1134 C1139 1.390 . S
C1135 C1129 1.465 . S
C1135 C1134 1.396 . S
C1135 C1136 1.399 . S
C1136 H1122 0.929 . S
C1136 C1135 1.399 . S
C1136 C1137 1.385 . S
C1137 H1123 0.931 . S
C1137 C1136 1.385 . S
C1137 C1138 1.389 . S
C1138 C1137 1.389 . S
C1138 C1139 1.387 . S
C1139 H1124 0.930 . S
C1139 C1134 1.390 . S
C1139 C1138 1.387 . S
H1140 C1152 0.930 . S
H1141 C1154 0.930 . S
H1142 C1155 0.930 . S
H1143 C1159 0.959 . S
H1144 C1159 0.959 . S
H1145 C1159 0.961 . S
H1146 C1160 0.960 . S
H1147 C1160 0.961 . S
H1148 C1160 0.959 . S
H1149 C1163 0.929 . S
H1150 C1164 0.931 . S
H1151 C1166 0.930 . S
C1152 H1140 0.930 . S
C1152 C1153 1.399 . S
C1152 C1157 1.399 . S
C1153 C1152 1.399 . S
C1153 C1154 1.376 . S
C1154 H1141 0.930 . S
C1154 C1153 1.376 . S
C1154 C1155 1.388 . S
C1155 H1142 0.930 . S
C1155 C1154 1.388 . S
C1155 C1156 1.390 . S
C1156 C1155 1.390 . S
C1156 C1157 1.394 . S
C1156 C1162 1.465 . S
C1157 C1152 1.399 . S
C1157 C1156 1.394 . S
C1157 C1158 1.516 . S
C1158 C1157 1.516 . S
C1158 C1159 1.502 . S
C1158 C1160 1.561 . S
C1158 C1161 1.526 1_565 S
C1159 H1143 0.959 . S
C1159 H1144 0.959 . S
C1159 H1145 0.961 . S
C1159 C1158 1.502 . S
C1160 H1146 0.960 . S
C1160 H1147 0.961 . S
C1160 H1148 0.959 . S
C1160 C1158 1.561 . S
C1161 C1158 1.526 1_545 S
C1161 C1162 1.396 1_545 S
C1161 C1166 1.390 . S
C1162 C1156 1.465 . S
C1162 C1161 1.396 1_565 S
C1162 C1163 1.399 1_565 S
C1163 H1149 0.929 . S
C1163 C1162 1.399 1_545 S
C1163 C1164 1.385 . S
C1164 H1150 0.931 . S
C1164 C1163 1.385 . S
C1164 C1165 1.389 . S
C1165 C1164 1.389 . S
C1165 C1166 1.387 . S
C1166 H1151 0.930 . S
C1166 C1161 1.390 . S
C1166 C1165 1.387 . S
H1167 C1179 0.930 . S
H1168 C1181 0.930 . S
H1169 C1182 0.930 . S
H1170 C1186 0.959 . S
H1171 C1186 0.959 . S
H1172 C1186 0.961 . S
H1173 C1187 0.960 . S
H1174 C1187 0.961 . S
H1175 C1187 0.959 . S
H1176 C1190 0.929 . S
H1177 C1191 0.931 . S
H1178 C1193 0.930 . S
C1179 H1167 0.930 . S
C1179 C1180 1.399 . S
C1179 C1184 1.399 . S
C1180 C1179 1.399 . S
C1180 C1181 1.376 . S
C1181 H1168 0.930 . S
C1181 C1180 1.376 . S
C1181 C1182 1.388 . S
C1182 H1169 0.930 . S
C1182 C1181 1.388 . S
C1182 C1183 1.390 1_655 S
C1183 C1182 1.390 1_455 S
C1183 C1184 1.394 1_455 S
C1183 C1189 1.465 . S
C1184 C1179 1.399 . S
C1184 C1183 1.394 1_655 S
C1184 C1185 1.516 1_655 S
C1185 C1184 1.516 1_455 S
C1185 C1186 1.502 . S
C1185 C1187 1.561 . S
C1185 C1188 1.526 . S
C1186 H1170 0.959 . S
C1186 H1171 0.959 . S
C1186 H1172 0.961 . S
C1186 C1185 1.502 . S
C1187 H1173 0.960 . S
C1187 H1174 0.961 . S
C1187 H1175 0.959 . S
C1187 C1185 1.561 . S
C1188 C1185 1.526 . S
C1188 C1189 1.396 . S
C1188 C1193 1.390 . S
C1189 C1183 1.465 . S
C1189 C1188 1.396 . S
C1189 C1190 1.399 . S
C1190 H1176 0.929 . S
C1190 C1189 1.399 . S
C1190 C1191 1.385 . S
C1191 H1177 0.931 . S
C1191 C1190 1.385 . S
C1191 C1192 1.389 . S
C1192 C1191 1.389 . S
C1192 C1193 1.387 . S
C1193 H1178 0.930 . S
C1193 C1188 1.390 . S
C1193 C1192 1.387 . S
H1194 C1206 0.930 . S
H1195 C1208 0.930 . S
H1196 C1209 0.930 . S
H1197 C1213 0.959 . S
H1198 C1213 0.959 . S
H1199 C1213 0.963 . S
H1200 C1214 0.978 . S
H1201 C1214 0.961 . S
H1202 C1214 0.959 . S
H1203 C1217 0.929 . S
H1204 C1218 0.931 . S
H1205 C1220 0.930 . S
C1206 H1194 0.930 . S
C1206 C1207 1.399 . S
C1206 C1211 1.399 . S
C1207 C1206 1.399 . S
C1207 C1208 1.376 . S
C1208 H1195 0.930 . S
C1208 C1207 1.376 . S
C1208 C1209 1.388 . S
C1209 H1196 0.930 . S
C1209 C1208 1.388 . S
C1209 C1210 1.390 1_565 S
C1210 C1209 1.390 1_545 S
C1210 C1211 1.394 1_545 S
C1210 C1216 1.465 . S
C1211 C1206 1.399 . S
C1211 C1210 1.394 1_565 S
C1211 C1212 1.516 1_565 S
C1212 C1211 1.516 1_545 S
C1212 C1213 1.502 . S
C1212 C1214 1.561 . S
C1212 C1215 1.526 . S
C1213 H1197 0.959 . S
C1213 H1198 0.959 . S
C1213 H1199 0.963 . S
C1213 C1212 1.502 . S
C1214 H1200 0.978 . S
C1214 H1201 0.961 . S
C1214 H1202 0.959 . S
C1214 C1212 1.561 . S
C1215 C1212 1.526 . S
C1215 C1216 1.396 . S
C1215 C1220 1.390 . S
C1216 C1210 1.465 . S
C1216 C1215 1.396 . S
C1216 C1217 1.399 . S
C1217 H1203 0.929 . S
C1217 C1216 1.399 . S
C1217 C1218 1.385 . S
C1218 H1204 0.931 . S
C1218 C1217 1.385 . S
C1218 C1219 1.389 . S
C1219 C1218 1.389 . S
C1219 C1220 1.387 . S
C1220 H1205 0.930 . S
C1220 C1215 1.390 . S
C1220 C1219 1.387 . S
H1221 C1233 0.930 . S
H1222 C1235 0.930 . S
H1223 C1236 0.930 . S
H1224 C1240 0.959 . S
H1225 C1240 0.959 . S
H1226 C1240 0.961 . S
H1227 C1241 0.960 . S
H1228 C1241 0.961 . S
H1229 C1241 0.959 . S
H1230 C1244 0.929 . S
H1231 C1245 0.931 . S
H1232 C1247 0.930 . S
C1233 H1221 0.930 . S
C1233 C1234 1.399 . S
C1233 C1238 1.399 . S
C1234 C1233 1.399 . S
C1234 C1235 1.376 . S
C1235 H1222 0.930 . S
C1235 C1234 1.376 . S
C1235 C1236 1.388 . S
C1236 H1223 0.930 . S
C1236 C1235 1.388 . S
C1236 C1237 1.390 . S
C1237 C1236 1.390 . S
C1237 C1238 1.394 . S
C1237 C1243 1.465 . S
C1238 C1233 1.399 . S
C1238 C1237 1.394 . S
C1238 C1239 1.516 . S
C1239 C1238 1.516 . S
C1239 C1240 1.502 . S
C1239 C1241 1.561 . S
C1239 C1242 1.526 1_655 S
C1240 H1224 0.959 . S
C1240 H1225 0.959 . S
C1240 H1226 0.961 . S
C1240 C1239 1.502 . S
C1241 H1227 0.960 . S
C1241 H1228 0.961 . S
C1241 H1229 0.959 . S
C1241 C1239 1.561 . S
C1242 C1239 1.526 1_455 S
C1242 C1243 1.396 1_455 S
C1242 C1247 1.390 . S
C1243 C1237 1.465 . S
C1243 C1242 1.396 1_655 S
C1243 C1244 1.399 1_655 S
C1244 H1230 0.929 . S
C1244 C1243 1.399 1_455 S
C1244 C1245 1.385 . S
C1245 H1231 0.931 . S
C1245 C1244 1.385 . S
C1245 C1246 1.389 . S
C1246 C1245 1.389 . S
C1246 C1247 1.387 . S
C1247 H1232 0.930 . S
C1247 C1242 1.390 . S
C1247 C1246 1.387 . S
H1248 C1260 0.930 . S
H1249 C1262 0.930 . S
H1250 C1263 0.930 . S
H1251 C1267 0.959 . S
H1252 C1267 0.959 . S
H1253 C1267 0.961 . S
H1254 C1268 0.960 . S
H1255 C1268 0.961 . S
H1256 C1268 0.959 . S
H1257 C1271 0.929 . S
H1258 C1272 0.931 . S
H1259 C1274 0.930 . S
C1260 H1248 0.930 . S
C1260 C1261 1.399 . S
C1260 C1265 1.399 . S
C1261 C1260 1.399 . S
C1261 C1262 1.376 . S
C1262 H1249 0.930 . S
C1262 C1261 1.376 . S
C1262 C1263 1.388 . S
C1263 H1250 0.930 . S
C1263 C1262 1.388 . S
C1263 C1264 1.390 . S
C1264 C1263 1.390 . S
C1264 C1265 1.394 . S
C1264 C1270 1.465 . S
C1265 C1260 1.399 . S
C1265 C1264 1.394 . S
C1265 C1266 1.516 . S
C1266 C1265 1.516 . S
C1266 C1267 1.502 . S
C1266 C1268 1.561 . S
C1266 C1269 1.526 1_545 S
C1267 H1251 0.959 . S
C1267 H1252 0.959 . S
C1267 H1253 0.961 . S
C1267 C1266 1.502 . S
C1268 H1254 0.960 . S
C1268 H1255 0.961 . S
C1268 H1256 0.959 . S
C1268 C1266 1.561 . S
C1269 C1266 1.526 1_565 S
C1269 C1270 1.396 1_565 S
C1269 C1274 1.390 . S
C1270 C1264 1.465 . S
C1270 C1269 1.396 1_545 S
C1270 C1271 1.399 1_545 S
C1271 H1257 0.929 . S
C1271 C1270 1.399 1_565 S
C1271 C1272 1.385 . S
C1272 H1258 0.931 . S
C1272 C1271 1.385 . S
C1272 C1273 1.389 . S
C1273 C1272 1.389 . S
C1273 C1274 1.387 . S
C1274 H1259 0.930 . S
C1274 C1269 1.390 . S
C1274 C1273 1.387 . S
H1275 C1287 0.930 . S
H1276 C1289 0.930 . S
H1277 C1290 0.930 . S
H1278 C1294 0.959 . S
H1279 C1294 0.959 . S
H1280 C1294 0.961 . S
H1281 C1295 0.960 . S
H1282 C1295 0.961 . S
H1283 C1295 0.959 . S
H1284 C1298 0.929 . S
H1285 C1299 0.931 . S
H1286 C1301 0.930 . S
C1287 H1275 0.930 . S
C1287 C1288 1.399 . S
C1287 C1292 1.399 . S
C1288 C1287 1.399 . S
C1288 C1289 1.376 . S
C1289 H1276 0.930 . S
C1289 C1288 1.376 . S
C1289 C1290 1.388 . S
C1290 H1277 0.930 . S
C1290 C1289 1.388 . S
C1290 C1291 1.390 1_455 S
C1291 C1290 1.390 1_655 S
C1291 C1292 1.394 1_655 S
C1291 C1297 1.465 . S
C1292 C1287 1.399 . S
C1292 C1291 1.394 1_455 S
C1292 C1293 1.516 1_455 S
C1293 C1292 1.516 1_655 S
C1293 C1294 1.502 . S
C1293 C1295 1.561 . S
C1293 C1296 1.526 . S
C1294 H1278 0.959 . S
C1294 H1279 0.959 . S
C1294 H1280 0.961 . S
C1294 C1293 1.502 . S
C1295 H1281 0.960 . S
C1295 H1282 0.961 . S
C1295 H1283 0.959 . S
C1295 C1293 1.561 . S
C1296 C1293 1.526 . S
C1296 C1297 1.396 . S
C1296 C1301 1.390 . S
C1297 C1291 1.465 . S
C1297 C1296 1.396 . S
C1297 C1298 1.399 . S
C1298 H1284 0.929 . S
C1298 C1297 1.399 . S
C1298 C1299 1.385 . S
C1299 H1285 0.931 . S
C1299 C1298 1.385 . S
C1299 C1300 1.389 . S
C1300 C1299 1.389 . S
C1300 C1301 1.387 . S
C1301 H1286 0.930 . S
C1301 C1296 1.390 . S
C1301 C1300 1.387 . S
H1302 C1314 0.930 . S
H1303 C1316 0.930 . S
H1304 C1317 0.930 . S
H1305 C1321 0.959 . S
H1306 C1321 0.959 . S
H1307 C1321 0.961 . S
H1308 C1322 0.960 . S
H1309 C1322 0.994 . S
H1310 C1322 0.959 . S
H1311 C1325 0.929 . S
H1312 C1326 0.931 . S
H1313 C1328 0.930 . S
C1314 H1302 0.930 . S
C1314 C1315 1.399 . S
C1314 C1319 1.399 . S
C1315 C1314 1.399 . S
C1315 C1316 1.376 . S
C1316 H1303 0.930 . S
C1316 C1315 1.376 . S
C1316 C1317 1.388 . S
C1317 H1304 0.930 . S
C1317 C1316 1.388 . S
C1317 C1318 1.390 . S
C1318 C1317 1.390 . S
C1318 C1319 1.394 . S
C1318 C1324 1.465 . S
C1319 C1314 1.399 . S
C1319 C1318 1.394 . S
C1319 C1320 1.516 . S
C1320 C1319 1.516 . S
C1320 C1321 1.502 . S
C1320 C1322 1.561 . S
C1320 C1323 1.526 1_565 S
C1321 H1305 0.959 . S
C1321 H1306 0.959 . S
C1321 H1307 0.961 . S
C1321 C1320 1.502 . S
C1322 H1308 0.960 . S
C1322 H1309 0.994 . S
C1322 H1310 0.959 . S
C1322 C1320 1.561 . S
C1323 C1320 1.526 1_545 S
C1323 C1324 1.396 1_545 S
C1323 C1328 1.390 . S
C1324 C1318 1.465 . S
C1324 C1323 1.396 1_565 S
C1324 C1325 1.399 1_565 S
C1325 H1311 0.929 . S
C1325 C1324 1.399 1_545 S
C1325 C1326 1.385 . S
C1326 H1312 0.931 . S
C1326 C1325 1.385 . S
C1326 C1327 1.389 . S
C1327 C1326 1.389 . S
C1327 C1328 1.387 . S
C1328 H1313 0.930 . S
C1328 C1323 1.390 . S
C1328 C1327 1.387 . S
H1329 C1341 0.930 . S
H1330 C1343 0.930 . S
H1331 C1344 0.930 . S
H1332 C1348 0.959 . S
H1333 C1348 0.959 . S
H1334 C1348 0.961 . S
H1335 C1349 0.960 . S
H1336 C1349 0.961 . S
H1337 C1349 0.959 . S
H1338 C1352 0.929 . S
H1339 C1353 0.931 . S
H1340 C1355 0.930 . S
C1341 H1329 0.930 . S
C1341 C1342 1.399 . S
C1341 C1346 1.399 . S
C1342 C1341 1.399 . S
C1342 C1343 1.376 . S
C1343 H1330 0.930 . S
C1343 C1342 1.376 . S
C1343 C1344 1.388 . S
C1344 H1331 0.930 . S
C1344 C1343 1.388 . S
C1344 C1345 1.390 . S
C1345 C1344 1.390 . S
C1345 C1346 1.394 . S
C1345 C1351 1.465 . S
C1346 C1341 1.399 . S
C1346 C1345 1.394 . S
C1346 C1347 1.516 . S
C1347 C1346 1.516 . S
C1347 C1348 1.502 . S
C1347 C1349 1.561 . S
C1347 C1350 1.526 1_455 S
C1348 H1332 0.959 . S
C1348 H1333 0.959 . S
C1348 H1334 0.961 . S
C1348 C1347 1.502 . S
C1349 H1335 0.960 . S
C1349 H1336 0.961 . S
C1349 H1337 0.959 . S
C1349 C1347 1.561 . S
C1350 C1347 1.526 1_655 S
C1350 C1351 1.396 1_655 S
C1350 C1355 1.390 . S
C1351 C1345 1.465 . S
C1351 C1350 1.396 1_455 S
C1351 C1352 1.399 1_455 S
C1352 H1338 0.929 . S
C1352 C1351 1.399 1_655 S
C1352 C1353 1.385 . S
C1353 H1339 0.931 . S
C1353 C1352 1.385 . S
C1353 C1354 1.389 . S
C1354 C1353 1.389 . S
C1354 C1355 1.387 . S
C1355 H1340 0.930 . S
C1355 C1350 1.390 . S
C1355 C1354 1.387 . S
H1356 C1368 0.930 . S
H1357 C1370 0.930 . S
H1358 C1371 0.930 . S
H1359 C1375 0.959 . S
H1360 C1375 0.959 . S
H1361 C1375 0.961 . S
H1362 C1376 0.960 . S
H1363 C1376 0.961 . S
H1364 C1376 0.959 . S
H1365 C1379 0.929 . S
H1366 C1380 0.931 . S
H1367 C1382 0.930 . S
C1368 H1356 0.930 . S
C1368 C1369 1.399 . S
C1368 C1373 1.399 . S
C1369 C1368 1.399 . S
C1369 C1370 1.376 . S
C1370 H1357 0.930 . S
C1370 C1369 1.376 . S
C1370 C1371 1.388 . S
C1371 H1358 0.930 . S
C1371 C1370 1.388 . S
C1371 C1372 1.390 . S
C1372 C1371 1.390 . S
C1372 C1373 1.394 . S
C1372 C1378 1.465 . S
C1373 C1368 1.399 . S
C1373 C1372 1.394 . S
C1373 C1374 1.516 . S
C1374 C1373 1.516 . S
C1374 C1375 1.502 . S
C1374 C1376 1.561 . S
C1374 C1377 1.526 1_556 S
C1375 H1359 0.959 . S
C1375 H1360 0.959 . S
C1375 H1361 0.961 . S
C1375 C1374 1.502 . S
C1376 H1362 0.960 . S
C1376 H1363 0.961 . S
C1376 H1364 0.959 . S
C1376 C1374 1.561 . S
C1377 C1374 1.526 1_554 S
C1377 C1378 1.396 1_554 S
C1377 C1382 1.390 . S
C1378 C1372 1.465 . S
C1378 C1377 1.396 1_556 S
C1378 C1379 1.399 1_556 S
C1379 H1365 0.929 . S
C1379 C1378 1.399 1_554 S
C1379 C1380 1.385 . S
C1380 H1366 0.931 . S
C1380 C1379 1.385 . S
C1380 C1381 1.389 . S
C1381 C1380 1.389 . S
C1381 C1382 1.387 . S
C1382 H1367 0.930 . S
C1382 C1377 1.390 . S
C1382 C1381 1.387 . S
H1383 C1395 0.930 . S
H1384 C1397 0.930 . S
H1385 C1398 0.930 . S
H1386 C1402 0.959 . S
H1387 C1402 0.959 . S
H1388 C1402 0.959 . S
H1389 C1403 0.999 . S
H1390 C1403 0.961 . S
H1391 C1403 0.959 . S
H1392 C1406 0.929 . S
H1393 C1407 0.931 . S
H1394 C1409 0.930 . S
C1395 H1383 0.930 . S
C1395 C1396 1.399 . S
C1395 C1400 1.399 . S
C1396 C1395 1.399 . S
C1396 C1397 1.376 . S
C1397 H1384 0.930 . S
C1397 C1396 1.376 . S
C1397 C1398 1.388 . S
C1398 H1385 0.930 . S
C1398 C1397 1.388 . S
C1398 C1399 1.390 1_554 S
C1399 C1398 1.390 1_556 S
C1399 C1400 1.394 1_556 S
C1399 C1405 1.465 . S
C1400 C1395 1.399 . S
C1400 C1399 1.394 1_554 S
C1400 C1401 1.516 1_554 S
C1401 C1400 1.516 1_556 S
C1401 C1402 1.502 . S
C1401 C1403 1.561 . S
C1401 C1404 1.526 . S
C1402 H1386 0.959 . S
C1402 H1387 0.959 . S
C1402 H1388 0.959 . S
C1402 C1401 1.502 . S
C1403 H1389 0.999 . S
C1403 H1390 0.961 . S
C1403 H1391 0.959 . S
C1403 C1401 1.561 . S
C1404 C1401 1.526 . S
C1404 C1405 1.396 . S
C1404 C1409 1.390 . S
C1405 C1399 1.465 . S
C1405 C1404 1.396 . S
C1405 C1406 1.399 . S
C1406 H1392 0.929 . S
C1406 C1405 1.399 . S
C1406 C1407 1.385 . S
C1407 H1393 0.931 . S
C1407 C1406 1.385 . S
C1407 C1408 1.389 . S
C1408 C1407 1.389 . S
C1408 C1409 1.387 . S
C1409 H1394 0.930 . S
C1409 C1404 1.390 . S
C1409 C1408 1.387 . S
H1410 C1422 0.930 . S
H1411 C1424 0.930 . S
H1412 C1425 0.930 . S
H1413 C1429 0.959 . S
H1414 C1429 0.992 . S
H1415 C1429 0.961 . S
H1416 C1430 0.960 . S
H1417 C1430 0.961 . S
H1418 C1430 0.959 . S
H1419 C1433 0.929 . S
H1420 C1434 0.931 . S
H1421 C1436 0.930 . S
C1422 H1410 0.930 . S
C1422 C1423 1.399 . S
C1422 C1427 1.399 . S
C1423 C1422 1.399 . S
C1423 C1424 1.376 . S
C1424 H1411 0.930 . S
C1424 C1423 1.376 . S
C1424 C1425 1.388 . S
C1425 H1412 0.930 . S
C1425 C1424 1.388 . S
C1425 C1426 1.390 . S
C1426 C1425 1.390 . S
C1426 C1427 1.394 . S
C1426 C1432 1.465 . S
C1427 C1422 1.399 . S
C1427 C1426 1.394 . S
C1427 C1428 1.516 . S
C1428 C1427 1.516 . S
C1428 C1429 1.502 . S
C1428 C1430 1.561 . S
C1428 C1431 1.526 1_556 S
C1429 H1413 0.959 . S
C1429 H1414 0.992 . S
C1429 H1415 0.961 . S
C1429 C1428 1.502 . S
C1430 H1416 0.960 . S
C1430 H1417 0.961 . S
C1430 H1418 0.959 . S
C1430 C1428 1.561 . S
C1431 C1428 1.526 1_554 S
C1431 C1432 1.396 1_554 S
C1431 C1436 1.390 . S
C1432 C1426 1.465 . S
C1432 C1431 1.396 1_556 S
C1432 C1433 1.399 1_556 S
C1433 H1419 0.929 . S
C1433 C1432 1.399 1_554 S
C1433 C1434 1.385 . S
C1434 H1420 0.931 . S
C1434 C1433 1.385 . S
C1434 C1435 1.389 . S
C1435 C1434 1.389 . S
C1435 C1436 1.387 . S
C1436 H1421 0.930 . S
C1436 C1431 1.390 . S
C1436 C1435 1.387 . S
H1437 C1449 0.930 . S
H1438 C1451 0.930 . S
H1439 C1452 0.930 . S
H1440 C1456 0.959 . S
H1441 C1456 0.959 . S
H1442 C1456 0.961 . S
H1443 C1457 0.960 . S
H1444 C1457 0.961 . S
H1445 C1457 0.959 . S
H1446 C1460 0.929 . S
H1447 C1461 0.931 . S
H1448 C1463 0.930 . S
C1449 H1437 0.930 . S
C1449 C1450 1.399 . S
C1449 C1454 1.399 . S
C1450 C1449 1.399 . S
C1450 C1451 1.376 . S
C1451 H1438 0.930 . S
C1451 C1450 1.376 . S
C1451 C1452 1.388 . S
C1452 H1439 0.930 . S
C1452 C1451 1.388 . S
C1452 C1453 1.390 1_554 S
C1453 C1452 1.390 1_556 S
C1453 C1454 1.394 1_556 S
C1453 C1459 1.465 . S
C1454 C1449 1.399 . S
C1454 C1453 1.394 1_554 S
C1454 C1455 1.516 1_554 S
C1455 C1454 1.516 1_556 S
C1455 C1456 1.502 . S
C1455 C1457 1.561 . S
C1455 C1458 1.526 . S
C1456 H1440 0.959 . S
C1456 H1441 0.959 . S
C1456 H1442 0.961 . S
C1456 C1455 1.502 . S
C1457 H1443 0.960 . S
C1457 H1444 0.961 . S
C1457 H1445 0.959 . S
C1457 C1455 1.561 . S
C1458 C1455 1.526 . S
C1458 C1459 1.396 . S
C1458 C1463 1.390 . S
C1459 C1453 1.465 . S
C1459 C1458 1.396 . S
C1459 C1460 1.399 . S
C1460 H1446 0.929 . S
C1460 C1459 1.399 . S
C1460 C1461 1.385 . S
C1461 H1447 0.931 . S
C1461 C1460 1.385 . S
C1461 C1462 1.389 . S
C1462 C1461 1.389 . S
C1462 C1463 1.387 . S
C1463 H1448 0.930 . S
C1463 C1458 1.390 . S
C1463 C1462 1.387 . S
H1464 C1476 0.930 . S
H1465 C1478 0.930 . S
H1466 C1479 0.930 . S
H1467 C1483 0.959 . S
H1468 C1483 0.965 . S
H1469 C1483 0.961 . S
H1470 C1484 0.960 . S
H1471 C1484 0.961 . S
H1472 C1484 0.959 . S
H1473 C1487 0.929 . S
H1474 C1488 0.931 . S
H1475 C1490 0.930 . S
C1476 H1464 0.930 . S
C1476 C1477 1.399 . S
C1476 C1481 1.399 . S
C1477 C1476 1.399 . S
C1477 C1478 1.376 . S
C1478 H1465 0.930 . S
C1478 C1477 1.376 . S
C1478 C1479 1.388 . S
C1479 H1466 0.930 . S
C1479 C1478 1.388 . S
C1479 C1480 1.390 . S
C1480 C1479 1.390 . S
C1480 C1481 1.394 . S
C1480 C1486 1.465 . S
C1481 C1476 1.399 . S
C1481 C1480 1.394 . S
C1481 C1482 1.516 . S
C1482 C1481 1.516 . S
C1482 C1483 1.502 . S
C1482 C1484 1.561 . S
C1482 C1485 1.526 1_554 S
C1483 H1467 0.959 . S
C1483 H1468 0.965 . S
C1483 H1469 0.961 . S
C1483 C1482 1.502 . S
C1484 H1470 0.960 . S
C1484 H1471 0.961 . S
C1484 H1472 0.959 . S
C1484 C1482 1.561 . S
C1485 C1482 1.526 1_556 S
C1485 C1486 1.396 1_556 S
C1485 C1490 1.390 . S
C1486 C1480 1.465 . S
C1486 C1485 1.396 1_554 S
C1486 C1487 1.399 1_554 S
C1487 H1473 0.929 . S
C1487 C1486 1.399 1_556 S
C1487 C1488 1.385 . S
C1488 H1474 0.931 . S
C1488 C1487 1.385 . S
C1488 C1489 1.389 . S
C1489 C1488 1.389 . S
C1489 C1490 1.387 . S
C1490 H1475 0.930 . S
C1490 C1485 1.390 . S
C1490 C1489 1.387 . S
H1491 C1503 0.930 . S
H1492 C1505 0.930 . S
H1493 C1506 0.930 . S
H1494 C1510 0.959 . S
H1495 C1510 0.959 . S
H1496 C1510 0.961 . S
H1497 C1511 0.960 . S
H1498 C1511 0.961 . S
H1499 C1511 0.959 . S
H1500 C1514 0.929 . S
H1501 C1515 0.931 . S
H1502 C1517 0.930 . S
C1503 H1491 0.930 . S
C1503 C1504 1.399 . S
C1503 C1508 1.399 . S
C1504 C1503 1.399 . S
C1504 C1505 1.376 . S
C1505 H1492 0.930 . S
C1505 C1504 1.376 . S
C1505 C1506 1.388 . S
C1506 H1493 0.930 . S
C1506 C1505 1.388 . S
C1506 C1507 1.390 1_556 S
C1507 C1506 1.390 1_554 S
C1507 C1508 1.394 1_554 S
C1507 C1513 1.465 . S
C1508 C1503 1.399 . S
C1508 C1507 1.394 1_556 S
C1508 C1509 1.516 1_556 S
C1509 C1508 1.516 1_554 S
C1509 C1510 1.502 . S
C1509 C1511 1.561 . S
C1509 C1512 1.526 . S
C1510 H1494 0.959 . S
C1510 H1495 0.959 . S
C1510 H1496 0.961 . S
C1510 C1509 1.502 . S
C1511 H1497 0.960 . S
C1511 H1498 0.961 . S
C1511 H1499 0.959 . S
C1511 C1509 1.561 . S
C1512 C1509 1.526 . S
C1512 C1513 1.396 . S
C1512 C1517 1.390 . S
C1513 C1507 1.465 . S
C1513 C1512 1.396 . S
C1513 C1514 1.399 . S
C1514 H1500 0.929 . S
C1514 C1513 1.399 . S
C1514 C1515 1.385 . S
C1515 H1501 0.931 . S
C1515 C1514 1.385 . S
C1515 C1516 1.389 . S
C1516 C1515 1.389 . S
C1516 C1517 1.387 . S
C1517 H1502 0.930 . S
C1517 C1512 1.390 . S
C1517 C1516 1.387 . S
H1518 C1530 0.930 . S
H1519 C1532 0.930 . S
H1520 C1533 0.930 . S
H1521 C1537 0.959 . S
H1522 C1537 0.969 . S
H1523 C1537 0.961 . S
H1524 C1538 0.960 . S
H1525 C1538 0.961 . S
H1526 C1538 0.959 . S
H1527 C1541 0.929 . S
H1528 C1542 0.931 . S
H1529 C1544 0.930 . S
C1530 H1518 0.930 . S
C1530 C1531 1.399 . S
C1530 C1535 1.399 . S
C1531 C1530 1.399 . S
C1531 C1532 1.376 . S
C1532 H1519 0.930 . S
C1532 C1531 1.376 . S
C1532 C1533 1.388 . S
C1533 H1520 0.930 . S
C1533 C1532 1.388 . S
C1533 C1534 1.390 . S
C1534 C1533 1.390 . S
C1534 C1535 1.394 . S
C1534 C1540 1.465 . S
C1535 C1530 1.399 . S
C1535 C1534 1.394 . S
C1535 C1536 1.516 . S
C1536 C1535 1.516 . S
C1536 C1537 1.502 . S
C1536 C1538 1.561 . S
C1536 C1539 1.526 1_554 S
C1537 H1521 0.959 . S
C1537 H1522 0.969 . S
C1537 H1523 0.961 . S
C1537 C1536 1.502 . S
C1538 H1524 0.960 . S
C1538 H1525 0.961 . S
C1538 H1526 0.959 . S
C1538 C1536 1.561 . S
C1539 C1536 1.526 1_556 S
C1539 C1540 1.396 1_556 S
C1539 C1544 1.390 . S
C1540 C1534 1.465 . S
C1540 C1539 1.396 1_554 S
C1540 C1541 1.399 1_554 S
C1541 H1527 0.929 . S
C1541 C1540 1.399 1_556 S
C1541 C1542 1.385 . S
C1542 H1528 0.931 . S
C1542 C1541 1.385 . S
C1542 C1543 1.389 . S
C1543 C1542 1.389 . S
C1543 C1544 1.387 . S
C1544 H1529 0.930 . S
C1544 C1539 1.390 . S
C1544 C1543 1.387 . S
H1545 C1557 0.930 . S
H1546 C1559 0.930 . S
H1547 C1560 0.930 . S
H1548 C1564 0.959 . S
H1549 C1564 0.959 . S
H1550 C1564 0.961 . S
H1551 C1565 0.960 . S
H1552 C1565 0.961 . S
H1553 C1565 0.959 . S
H1554 C1568 0.929 . S
H1555 C1569 0.931 . S
H1556 C1571 0.930 . S
C1557 H1545 0.930 . S
C1557 C1558 1.399 . S
C1557 C1562 1.399 . S
C1558 C1557 1.399 . S
C1558 C1559 1.376 . S
C1559 H1546 0.930 . S
C1559 C1558 1.376 . S
C1559 C1560 1.388 . S
C1560 H1547 0.930 . S
C1560 C1559 1.388 . S
C1560 C1561 1.390 1_556 S
C1561 C1560 1.390 1_554 S
C1561 C1562 1.394 1_554 S
C1561 C1567 1.465 . S
C1562 C1557 1.399 . S
C1562 C1561 1.394 1_556 S
C1562 C1563 1.516 1_556 S
C1563 C1562 1.516 1_554 S
C1563 C1564 1.502 . S
C1563 C1565 1.561 . S
C1563 C1566 1.526 . S
C1564 H1548 0.959 . S
C1564 H1549 0.959 . S
C1564 H1550 0.961 . S
C1564 C1563 1.502 . S
C1565 H1551 0.960 . S
C1565 H1552 0.961 . S
C1565 H1553 0.959 . S
C1565 C1563 1.561 . S
C1566 C1563 1.526 . S
C1566 C1567 1.396 . S
C1566 C1571 1.390 . S
C1567 C1561 1.465 . S
C1567 C1566 1.396 . S
C1567 C1568 1.399 . S
C1568 H1554 0.929 . S
C1568 C1567 1.399 . S
C1568 C1569 1.385 . S
C1569 H1555 0.931 . S
C1569 C1568 1.385 . S
C1569 C1570 1.389 . S
C1570 C1569 1.389 . S
C1570 C1571 1.387 . S
C1571 H1556 0.930 . S
C1571 C1566 1.390 . S
C1571 C1570 1.387 . S
H1572 C1584 0.930 . S
H1573 C1586 0.930 . S
H1574 C1587 0.930 . S
H1575 C1591 0.959 . S
H1576 C1591 0.959 . S
H1577 C1591 0.961 . S
H1578 C1592 0.960 . S
H1579 C1592 0.961 . S
H1580 C1592 0.959 . S
H1581 C1595 0.929 . S
H1582 C1596 0.931 . S
H1583 C1598 0.930 . S
C1584 H1572 0.930 . S
C1584 C1585 1.399 . S
C1584 C1589 1.399 . S
C1585 C1584 1.399 . S
C1585 C1586 1.376 . S
C1586 H1573 0.930 . S
C1586 C1585 1.376 . S
C1586 C1587 1.388 . S
C1587 H1574 0.930 . S
C1587 C1586 1.388 . S
C1587 C1588 1.390 . S
C1588 C1587 1.390 . S
C1588 C1589 1.394 . S
C1588 C1594 1.465 . S
C1589 C1584 1.399 . S
C1589 C1588 1.394 . S
C1589 C1590 1.516 . S
C1590 C1589 1.516 . S
C1590 C1591 1.502 . S
C1590 C1592 1.561 . S
C1590 C1593 1.526 1_655 S
C1591 H1575 0.959 . S
C1591 H1576 0.959 . S
C1591 H1577 0.961 . S
C1591 C1590 1.502 . S
C1592 H1578 0.960 . S
C1592 H1579 0.961 . S
C1592 H1580 0.959 . S
C1592 C1590 1.561 . S
C1593 C1590 1.526 1_455 S
C1593 C1594 1.396 1_455 S
C1593 C1598 1.390 . S
C1594 C1588 1.465 . S
C1594 C1593 1.396 1_655 S
C1594 C1595 1.399 1_655 S
C1595 H1581 0.929 . S
C1595 C1594 1.399 1_455 S
C1595 C1596 1.385 . S
C1596 H1582 0.931 . S
C1596 C1595 1.385 . S
C1596 C1597 1.389 . S
C1597 C1596 1.389 . S
C1597 C1598 1.387 . S
C1598 H1583 0.930 . S
C1598 C1593 1.390 . S
C1598 C1597 1.387 . S
H1599 C1611 0.930 . S
H1600 C1613 0.930 . S
H1601 C1614 0.930 . S
H1602 C1618 0.959 . S
H1603 C1618 0.959 . S
H1604 C1618 0.961 . S
H1605 C1619 0.960 . S
H1606 C1619 0.961 . S
H1607 C1619 0.959 . S
H1608 C1622 0.929 . S
H1609 C1623 0.931 . S
H1610 C1625 0.930 . S
C1611 H1599 0.930 . S
C1611 C1612 1.399 . S
C1611 C1616 1.399 . S
C1612 C1611 1.399 . S
C1612 C1613 1.376 . S
C1613 H1600 0.930 . S
C1613 C1612 1.376 . S
C1613 C1614 1.388 . S
C1614 H1601 0.930 . S
C1614 C1613 1.388 . S
C1614 C1615 1.390 . S
C1615 C1614 1.390 . S
C1615 C1616 1.394 . S
C1615 C1621 1.465 . S
C1616 C1611 1.399 . S
C1616 C1615 1.394 . S
C1616 C1617 1.516 . S
C1617 C1616 1.516 . S
C1617 C1618 1.502 . S
C1617 C1619 1.561 . S
C1617 C1620 1.526 1_655 S
C1618 H1602 0.959 . S
C1618 H1603 0.959 . S
C1618 H1604 0.961 . S
C1618 C1617 1.502 . S
C1619 H1605 0.960 . S
C1619 H1606 0.961 . S
C1619 H1607 0.959 . S
C1619 C1617 1.561 . S
C1620 C1617 1.526 1_455 S
C1620 C1621 1.396 1_455 S
C1620 C1625 1.390 . S
C1621 C1615 1.465 . S
C1621 C1620 1.396 1_655 S
C1621 C1622 1.399 1_655 S
C1622 H1608 0.929 . S
C1622 C1621 1.399 1_455 S
C1622 C1623 1.385 . S
C1623 H1609 0.931 . S
C1623 C1622 1.385 . S
C1623 C1624 1.389 . S
C1624 C1623 1.389 . S
C1624 C1625 1.387 . S
C1625 H1610 0.930 . S
C1625 C1620 1.390 . S
C1625 C1624 1.387 . S
H1626 C1638 0.930 . S
H1627 C1640 0.930 . S
H1628 C1641 0.930 . S
H1629 C1645 0.959 . S
H1630 C1645 0.959 . S
H1631 C1645 0.961 . S
H1632 C1646 0.960 . S
H1633 C1646 0.961 . S
H1634 C1646 0.959 . S
H1635 C1649 0.929 . S
H1636 C1650 0.931 . S
H1637 C1652 0.930 . S
C1638 H1626 0.930 . S
C1638 C1639 1.399 . S
C1638 C1643 1.399 . S
C1639 C1638 1.399 . S
C1639 C1640 1.376 . S
C1640 H1627 0.930 . S
C1640 C1639 1.376 . S
C1640 C1641 1.388 . S
C1641 H1628 0.930 . S
C1641 C1640 1.388 . S
C1641 C1642 1.390 1_545 S
C1642 C1641 1.390 1_565 S
C1642 C1643 1.394 1_565 S
C1642 C1648 1.465 . S
C1643 C1638 1.399 . S
C1643 C1642 1.394 1_545 S
C1643 C1644 1.516 1_545 S
C1644 C1643 1.516 1_565 S
C1644 C1645 1.502 . S
C1644 C1646 1.561 . S
C1644 C1647 1.526 . S
C1645 H1629 0.959 . S
C1645 H1630 0.959 . S
C1645 H1631 0.961 . S
C1645 C1644 1.502 . S
C1646 H1632 0.960 . S
C1646 H1633 0.961 . S
C1646 H1634 0.959 . S
C1646 C1644 1.561 . S
C1647 C1644 1.526 . S
C1647 C1648 1.396 . S
C1647 C1652 1.390 . S
C1648 C1642 1.465 . S
C1648 C1647 1.396 . S
C1648 C1649 1.399 . S
C1649 H1635 0.929 . S
C1649 C1648 1.399 . S
C1649 C1650 1.385 . S
C1650 H1636 0.931 . S
C1650 C1649 1.385 . S
C1650 C1651 1.389 . S
C1651 C1650 1.389 . S
C1651 C1652 1.387 . S
C1652 H1637 0.930 . S
C1652 C1647 1.390 . S
C1652 C1651 1.387 . S
H1653 C1665 0.930 . S
H1654 C1667 0.930 . S
H1655 C1668 0.930 . S
H1656 C1672 0.959 . S
H1657 C1672 0.959 . S
H1658 C1672 0.961 . S
H1659 C1673 0.960 . S
H1660 C1673 0.961 . S
H1661 C1673 0.959 . S
H1662 C1676 0.929 . S
H1663 C1677 0.931 . S
H1664 C1679 0.930 . S
C1665 H1653 0.930 . S
C1665 C1666 1.399 . S
C1665 C1670 1.399 . S
C1666 C1665 1.399 . S
C1666 C1667 1.376 . S
C1667 H1654 0.930 . S
C1667 C1666 1.376 . S
C1667 C1668 1.388 . S
C1668 H1655 0.930 . S
C1668 C1667 1.388 . S
C1668 C1669 1.390 1_655 S
C1669 C1668 1.390 1_455 S
C1669 C1670 1.394 1_455 S
C1669 C1675 1.465 . S
C1670 C1665 1.399 . S
C1670 C1669 1.394 1_655 S
C1670 C1671 1.516 1_655 S
C1671 C1670 1.516 1_455 S
C1671 C1672 1.502 . S
C1671 C1673 1.561 . S
C1671 C1674 1.526 . S
C1672 H1656 0.959 . S
C1672 H1657 0.959 . S
C1672 H1658 0.961 . S
C1672 C1671 1.502 . S
C1673 H1659 0.960 . S
C1673 H1660 0.961 . S
C1673 H1661 0.959 . S
C1673 C1671 1.561 . S
C1674 C1671 1.526 . S
C1674 C1675 1.396 . S
C1674 C1679 1.390 . S
C1675 C1669 1.465 . S
C1675 C1674 1.396 . S
C1675 C1676 1.399 . S
C1676 H1662 0.929 . S
C1676 C1675 1.399 . S
C1676 C1677 1.385 . S
C1677 H1663 0.931 . S
C1677 C1676 1.385 . S
C1677 C1678 1.389 . S
C1678 C1677 1.389 . S
C1678 C1679 1.387 . S
C1679 H1664 0.930 . S
C1679 C1674 1.390 . S
C1679 C1678 1.387 . S
H1680 C1692 0.930 . S
H1681 C1694 0.930 . S
H1682 C1695 0.930 . S
H1683 C1699 0.959 . S
H1684 C1699 0.959 . S
H1685 C1699 0.961 . S
H1686 C1700 0.960 . S
H1687 C1700 0.961 . S
H1688 C1700 0.959 . S
H1689 C1703 0.929 . S
H1690 C1704 0.931 . S
H1691 C1706 0.930 . S
C1692 H1680 0.930 . S
C1692 C1693 1.399 . S
C1692 C1697 1.399 . S
C1693 C1692 1.399 . S
C1693 C1694 1.376 . S
C1694 H1681 0.930 . S
C1694 C1693 1.376 . S
C1694 C1695 1.388 . S
C1695 H1682 0.930 . S
C1695 C1694 1.388 . S
C1695 C1696 1.390 . S
C1696 C1695 1.390 . S
C1696 C1697 1.394 . S
C1696 C1702 1.465 . S
C1697 C1692 1.399 . S
C1697 C1696 1.394 . S
C1697 C1698 1.516 . S
C1698 C1697 1.516 . S
C1698 C1699 1.502 . S
C1698 C1700 1.561 . S
C1698 C1701 1.526 1_545 S
C1699 H1683 0.959 . S
C1699 H1684 0.959 . S
C1699 H1685 0.961 . S
C1699 C1698 1.502 . S
C1700 H1686 0.960 . S
C1700 H1687 0.961 . S
C1700 H1688 0.959 . S
C1700 C1698 1.561 . S
C1701 C1698 1.526 1_565 S
C1701 C1702 1.396 1_565 S
C1701 C1706 1.390 . S
C1702 C1696 1.465 . S
C1702 C1701 1.396 1_545 S
C1702 C1703 1.399 1_545 S
C1703 H1689 0.929 . S
C1703 C1702 1.399 1_565 S
C1703 C1704 1.385 . S
C1704 H1690 0.931 . S
C1704 C1703 1.385 . S
C1704 C1705 1.389 . S
C1705 C1704 1.389 . S
C1705 C1706 1.387 . S
C1706 H1691 0.930 . S
C1706 C1701 1.390 . S
C1706 C1705 1.387 . S
H1707 C1719 0.930 . S
H1708 C1721 0.930 . S
H1709 C1722 0.930 . S
H1710 C1726 0.959 . S
H1711 C1726 0.959 . S
H1712 C1726 0.961 . S
H1713 C1727 0.960 . S
H1714 C1727 0.961 . S
H1715 C1727 0.959 . S
H1716 C1730 0.929 . S
H1717 C1731 0.931 . S
H1718 C1733 0.930 . S
C1719 H1707 0.930 . S
C1719 C1720 1.399 . S
C1719 C1724 1.399 . S
C1720 C1719 1.399 . S
C1720 C1721 1.376 . S
C1721 H1708 0.930 . S
C1721 C1720 1.376 . S
C1721 C1722 1.388 . S
C1722 H1709 0.930 . S
C1722 C1721 1.388 . S
C1722 C1723 1.390 . S
C1723 C1722 1.390 . S
C1723 C1724 1.394 . S
C1723 C1729 1.465 . S
C1724 C1719 1.399 . S
C1724 C1723 1.394 . S
C1724 C1725 1.516 . S
C1725 C1724 1.516 . S
C1725 C1726 1.502 . S
C1725 C1727 1.561 . S
C1725 C1728 1.526 1_455 S
C1726 H1710 0.959 . S
C1726 H1711 0.959 . S
C1726 H1712 0.961 . S
C1726 C1725 1.502 . S
C1727 H1713 0.960 . S
C1727 H1714 0.961 . S
C1727 H1715 0.959 . S
C1727 C1725 1.561 . S
C1728 C1725 1.526 1_655 S
C1728 C1729 1.396 1_655 S
C1728 C1733 1.390 . S
C1729 C1723 1.465 . S
C1729 C1728 1.396 1_455 S
C1729 C1730 1.399 1_455 S
C1730 H1716 0.929 . S
C1730 C1729 1.399 1_655 S
C1730 C1731 1.385 . S
C1731 H1717 0.931 . S
C1731 C1730 1.385 . S
C1731 C1732 1.389 . S
C1732 C1731 1.389 . S
C1732 C1733 1.387 . S
C1733 H1718 0.930 . S
C1733 C1728 1.390 . S
C1733 C1732 1.387 . S
H1734 C1746 0.930 . S
H1735 C1748 0.930 . S
H1736 C1749 0.930 . S
H1737 C1753 0.959 . S
H1738 C1753 0.959 . S
H1739 C1753 0.961 . S
H1740 C1754 0.960 . S
H1741 C1754 0.961 . S
H1742 C1754 0.959 . S
H1743 C1757 0.929 . S
H1744 C1758 0.931 . S
H1745 C1760 0.930 . S
C1746 H1734 0.930 . S
C1746 C1747 1.399 . S
C1746 C1751 1.399 . S
C1747 C1746 1.399 . S
C1747 C1748 1.376 . S
C1748 H1735 0.930 . S
C1748 C1747 1.376 . S
C1748 C1749 1.388 . S
C1749 H1736 0.930 . S
C1749 C1748 1.388 . S
C1749 C1750 1.390 . S
C1750 C1749 1.390 . S
C1750 C1751 1.394 . S
C1750 C1756 1.465 . S
C1751 C1746 1.399 . S
C1751 C1750 1.394 . S
C1751 C1752 1.516 . S
C1752 C1751 1.516 . S
C1752 C1753 1.502 . S
C1752 C1754 1.561 . S
C1752 C1755 1.526 1_545 S
C1753 H1737 0.959 . S
C1753 H1738 0.959 . S
C1753 H1739 0.961 . S
C1753 C1752 1.502 . S
C1754 H1740 0.960 . S
C1754 H1741 0.961 . S
C1754 H1742 0.959 . S
C1754 C1752 1.561 . S
C1755 C1752 1.526 1_565 S
C1755 C1756 1.396 1_565 S
C1755 C1760 1.390 . S
C1756 C1750 1.465 . S
C1756 C1755 1.396 1_545 S
C1756 C1757 1.399 1_545 S
C1757 H1743 0.929 . S
C1757 C1756 1.399 1_565 S
C1757 C1758 1.385 . S
C1758 H1744 0.931 . S
C1758 C1757 1.385 . S
C1758 C1759 1.389 . S
C1759 C1758 1.389 . S
C1759 C1760 1.387 . S
C1760 H1745 0.930 . S
C1760 C1755 1.390 . S
C1760 C1759 1.387 . S
H1761 C1773 0.930 . S
H1762 C1775 0.930 . S
H1763 C1776 0.930 . S
H1764 C1780 0.959 . S
H1765 C1780 0.959 . S
H1766 C1780 0.961 . S
H1767 C1781 0.960 . S
H1768 C1781 0.961 . S
H1769 C1781 0.959 . S
H1770 C1784 0.929 . S
H1771 C1785 0.931 . S
H1772 C1787 0.930 . S
C1773 H1761 0.930 . S
C1773 C1774 1.399 . S
C1773 C1778 1.399 . S
C1774 C1773 1.399 . S
C1774 C1775 1.376 . S
C1775 H1762 0.930 . S
C1775 C1774 1.376 . S
C1775 C1776 1.388 . S
C1776 H1763 0.930 . S
C1776 C1775 1.388 . S
C1776 C1777 1.390 1_545 S
C1777 C1776 1.390 1_565 S
C1777 C1778 1.394 1_565 S
C1777 C1783 1.465 . S
C1778 C1773 1.399 . S
C1778 C1777 1.394 1_545 S
C1778 C1779 1.516 1_545 S
C1779 C1778 1.516 1_565 S
C1779 C1780 1.502 . S
C1779 C1781 1.561 . S
C1779 C1782 1.526 . S
C1780 H1764 0.959 . S
C1780 H1765 0.959 . S
C1780 H1766 0.961 . S
C1780 C1779 1.502 . S
C1781 H1767 0.960 . S
C1781 H1768 0.961 . S
C1781 H1769 0.959 . S
C1781 C1779 1.561 . S
C1782 C1779 1.526 . S
C1782 C1783 1.396 . S
C1782 C1787 1.390 . S
C1783 C1777 1.465 . S
C1783 C1782 1.396 . S
C1783 C1784 1.399 . S
C1784 H1770 0.929 . S
C1784 C1783 1.399 . S
C1784 C1785 1.385 . S
C1785 H1771 0.931 . S
C1785 C1784 1.385 . S
C1785 C1786 1.389 . S
C1786 C1785 1.389 . S
C1786 C1787 1.387 . S
C1787 H1772 0.930 . S
C1787 C1782 1.390 . S
C1787 C1786 1.387 . S
H1788 C1800 0.930 . S
H1789 C1802 0.930 . S
H1790 C1803 0.930 . S
H1791 C1807 0.959 . S
H1792 C1807 0.959 . S
H1793 C1807 0.961 . S
H1794 C1808 0.960 . S
H1795 C1808 0.961 . S
H1796 C1808 0.959 . S
H1797 C1811 0.929 . S
H1798 C1812 0.931 . S
H1799 C1814 0.930 . S
C1800 H1788 0.930 . S
C1800 C1801 1.399 . S
C1800 C1805 1.399 . S
C1801 C1800 1.399 . S
C1801 C1802 1.376 . S
C1802 H1789 0.930 . S
C1802 C1801 1.376 . S
C1802 C1803 1.388 . S
C1803 H1790 0.930 . S
C1803 C1802 1.388 . S
C1803 C1804 1.390 . S
C1804 C1803 1.390 . S
C1804 C1805 1.394 . S
C1804 C1810 1.465 . S
C1805 C1800 1.399 . S
C1805 C1804 1.394 . S
C1805 C1806 1.516 . S
C1806 C1805 1.516 . S
C1806 C1807 1.502 . S
C1806 C1808 1.561 . S
C1806 C1809 1.526 . S
C1807 H1791 0.959 . S
C1807 H1792 0.959 . S
C1807 H1793 0.961 . S
C1807 C1806 1.502 . S
C1808 H1794 0.960 . S
C1808 H1795 0.961 . S
C1808 H1796 0.959 . S
C1808 C1806 1.561 . S
C1809 C1806 1.526 . S
C1809 C1810 1.396 . S
C1809 C1814 1.390 . S
C1810 C1804 1.465 . S
C1810 C1809 1.396 . S
C1810 C1811 1.399 . S
C1811 H1797 0.929 . S
C1811 C1810 1.399 . S
C1811 C1812 1.385 . S
C1812 H1798 0.931 . S
C1812 C1811 1.385 . S
C1812 C1813 1.389 . S
C1813 C1812 1.389 . S
C1813 C1814 1.387 . S
C1814 H1799 0.930 . S
C1814 C1809 1.390 . S
C1814 C1813 1.387 . S
H1815 C1827 0.930 . S
H1816 C1829 0.930 . S
H1817 C1830 0.930 . S
H1818 C1834 0.959 . S
H1819 C1834 0.959 . S
H1820 C1834 0.961 . S
H1821 C1835 0.960 . S
H1822 C1835 0.961 . S
H1823 C1835 0.959 . S
H1824 C1838 0.929 . S
H1825 C1839 0.931 . S
H1826 C1841 0.930 . S
C1827 H1815 0.930 . S
C1827 C1828 1.399 . S
C1827 C1832 1.399 . S
C1828 C1827 1.399 . S
C1828 C1829 1.376 . S
C1829 H1816 0.930 . S
C1829 C1828 1.376 . S
C1829 C1830 1.388 . S
C1830 H1817 0.930 . S
C1830 C1829 1.388 . S
C1830 C1831 1.390 . S
C1831 C1830 1.390 . S
C1831 C1832 1.394 . S
C1831 C1837 1.465 . S
C1832 C1827 1.399 . S
C1832 C1831 1.394 . S
C1832 C1833 1.516 . S
C1833 C1832 1.516 . S
C1833 C1834 1.502 . S
C1833 C1835 1.561 . S
C1833 C1836 1.526 . S
C1834 H1818 0.959 . S
C1834 H1819 0.959 . S
C1834 H1820 0.961 . S
C1834 C1833 1.502 . S
C1835 H1821 0.960 . S
C1835 H1822 0.961 . S
C1835 H1823 0.959 . S
C1835 C1833 1.561 . S
C1836 C1833 1.526 . S
C1836 C1837 1.396 . S
C1836 C1841 1.390 . S
C1837 C1831 1.465 . S
C1837 C1836 1.396 . S
C1837 C1838 1.399 . S
C1838 H1824 0.929 . S
C1838 C1837 1.399 . S
C1838 C1839 1.385 . S
C1839 H1825 0.931 . S
C1839 C1838 1.385 . S
C1839 C1840 1.389 . S
C1840 C1839 1.389 . S
C1840 C1841 1.387 . S
C1841 H1826 0.930 . S
C1841 C1836 1.390 . S
C1841 C1840 1.387 . S
H1842 C1854 0.930 . S
H1843 C1856 0.930 . S
H1844 C1857 0.930 . S
H1845 C1861 0.959 . S
H1846 C1861 0.959 . S
H1847 C1861 0.961 . S
H1848 C1862 0.960 . S
H1849 C1862 0.961 . S
H1850 C1862 0.959 . S
H1851 C1865 0.929 . S
H1852 C1866 0.931 . S
H1853 C1868 0.930 . S
C1854 H1842 0.930 . S
C1854 C1855 1.399 . S
C1854 C1859 1.399 . S
C1855 C1854 1.399 . S
C1855 C1856 1.376 . S
C1856 H1843 0.930 . S
C1856 C1855 1.376 . S
C1856 C1857 1.388 . S
C1857 H1844 0.930 . S
C1857 C1856 1.388 . S
C1857 C1858 1.390 . S
C1858 C1857 1.390 . S
C1858 C1859 1.394 . S
C1858 C1864 1.465 . S
C1859 C1854 1.399 . S
C1859 C1858 1.394 . S
C1859 C1860 1.516 . S
C1860 C1859 1.516 . S
C1860 C1861 1.502 . S
C1860 C1862 1.561 . S
C1860 C1863 1.526 . S
C1861 H1845 0.959 . S
C1861 H1846 0.959 . S
C1861 H1847 0.961 . S
C1861 C1860 1.502 . S
C1862 H1848 0.960 . S
C1862 H1849 0.961 . S
C1862 H1850 0.959 . S
C1862 C1860 1.561 . S
C1863 C1860 1.526 . S
C1863 C1864 1.396 . S
C1863 C1868 1.390 . S
C1864 C1858 1.465 . S
C1864 C1863 1.396 . S
C1864 C1865 1.399 . S
C1865 H1851 0.929 . S
C1865 C1864 1.399 . S
C1865 C1866 1.385 . S
C1866 H1852 0.931 . S
C1866 C1865 1.385 . S
C1866 C1867 1.389 . S
C1867 C1866 1.389 . S
C1867 C1868 1.387 . S
C1868 H1853 0.930 . S
C1868 C1863 1.390 . S
C1868 C1867 1.387 . S
H1869 C1881 0.930 . S
H1870 C1883 0.930 . S
H1871 C1884 0.930 . S
H1872 C1888 0.959 . S
H1873 C1888 0.959 . S
H1874 C1888 0.961 . S
H1875 C1889 0.960 . S
H1876 C1889 0.961 . S
H1877 C1889 0.959 . S
H1878 C1892 0.929 . S
H1879 C1893 0.931 . S
H1880 C1895 0.930 . S
C1881 H1869 0.930 . S
C1881 C1882 1.399 . S
C1881 C1886 1.399 . S
C1882 C1881 1.399 . S
C1882 C1883 1.376 . S
C1883 H1870 0.930 . S
C1883 C1882 1.376 . S
C1883 C1884 1.388 . S
C1884 H1871 0.930 . S
C1884 C1883 1.388 . S
C1884 C1885 1.390 . S
C1885 C1884 1.390 . S
C1885 C1886 1.394 . S
C1885 C1891 1.465 . S
C1886 C1881 1.399 . S
C1886 C1885 1.394 . S
C1886 C1887 1.516 . S
C1887 C1886 1.516 . S
C1887 C1888 1.502 . S
C1887 C1889 1.561 . S
C1887 C1890 1.526 . S
C1888 H1872 0.959 . S
C1888 H1873 0.959 . S
C1888 H1874 0.961 . S
C1888 C1887 1.502 . S
C1889 H1875 0.960 . S
C1889 H1876 0.961 . S
C1889 H1877 0.959 . S
C1889 C1887 1.561 . S
C1890 C1887 1.526 . S
C1890 C1891 1.396 . S
C1890 C1895 1.390 . S
C1891 C1885 1.465 . S
C1891 C1890 1.396 . S
C1891 C1892 1.399 . S
C1892 H1878 0.929 . S
C1892 C1891 1.399 . S
C1892 C1893 1.385 . S
C1893 H1879 0.931 . S
C1893 C1892 1.385 . S
C1893 C1894 1.389 . S
C1894 C1893 1.389 . S
C1894 C1895 1.387 . S
C1895 H1880 0.930 . S
C1895 C1890 1.390 . S
C1895 C1894 1.387 . S
H1896 C1908 0.930 . S
H1897 C1910 0.930 . S
H1898 C1911 0.930 . S
H1899 C1915 0.959 . S
H1900 C1915 0.959 . S
H1901 C1915 0.961 . S
H1902 C1916 0.960 . S
H1903 C1916 0.961 . S
H1904 C1916 0.959 . S
H1905 C1919 0.929 . S
H1906 C1920 0.931 . S
H1907 C1922 0.930 . S
C1908 H1896 0.930 . S
C1908 C1909 1.399 . S
C1908 C1913 1.399 . S
C1909 C1908 1.399 . S
C1909 C1910 1.376 . S
C1910 H1897 0.930 . S
C1910 C1909 1.376 . S
C1910 C1911 1.388 . S
C1911 H1898 0.930 . S
C1911 C1910 1.388 . S
C1911 C1912 1.390 . S
C1912 C1911 1.390 . S
C1912 C1913 1.394 . S
C1912 C1918 1.465 . S
C1913 C1908 1.399 . S
C1913 C1912 1.394 . S
C1913 C1914 1.516 . S
C1914 C1913 1.516 . S
C1914 C1915 1.502 . S
C1914 C1916 1.561 . S
C1914 C1917 1.526 . S
C1915 H1899 0.959 . S
C1915 H1900 0.959 . S
C1915 H1901 0.961 . S
C1915 C1914 1.502 . S
C1916 H1902 0.960 . S
C1916 H1903 0.961 . S
C1916 H1904 0.959 . S
C1916 C1914 1.561 . S
C1917 C1914 1.526 . S
C1917 C1918 1.396 . S
C1917 C1922 1.390 . S
C1918 C1912 1.465 . S
C1918 C1917 1.396 . S
C1918 C1919 1.399 . S
C1919 H1905 0.929 . S
C1919 C1918 1.399 . S
C1919 C1920 1.385 . S
C1920 H1906 0.931 . S
C1920 C1919 1.385 . S
C1920 C1921 1.389 . S
C1921 C1920 1.389 . S
C1921 C1922 1.387 . S
C1922 H1907 0.930 . S
C1922 C1917 1.390 . S
C1922 C1921 1.387 . S
H1923 C1935 0.930 . S
H1924 C1937 0.930 . S
H1925 C1938 0.930 . S
H1926 C1942 0.959 . S
H1927 C1942 0.959 . S
H1928 C1942 0.961 . S
H1929 C1943 0.960 . S
H1930 C1943 0.961 . S
H1931 C1943 0.959 . S
H1932 C1946 0.929 . S
H1933 C1947 0.931 . S
H1934 C1949 0.930 . S
C1935 H1923 0.930 . S
C1935 C1936 1.399 . S
C1935 C1940 1.399 . S
C1936 C1935 1.399 . S
C1936 C1937 1.376 . S
C1937 H1924 0.930 . S
C1937 C1936 1.376 . S
C1937 C1938 1.388 . S
C1938 H1925 0.930 . S
C1938 C1937 1.388 . S
C1938 C1939 1.390 . S
C1939 C1938 1.390 . S
C1939 C1940 1.394 . S
C1939 C1945 1.465 . S
C1940 C1935 1.399 . S
C1940 C1939 1.394 . S
C1940 C1941 1.516 . S
C1941 C1940 1.516 . S
C1941 C1942 1.502 . S
C1941 C1943 1.561 . S
C1941 C1944 1.526 . S
C1942 H1926 0.959 . S
C1942 H1927 0.959 . S
C1942 H1928 0.961 . S
C1942 C1941 1.502 . S
C1943 H1929 0.960 . S
C1943 H1930 0.961 . S
C1943 H1931 0.959 . S
C1943 C1941 1.561 . S
C1944 C1941 1.526 . S
C1944 C1945 1.396 . S
C1944 C1949 1.390 . S
C1945 C1939 1.465 . S
C1945 C1944 1.396 . S
C1945 C1946 1.399 . S
C1946 H1932 0.929 . S
C1946 C1945 1.399 . S
C1946 C1947 1.385 . S
C1947 H1933 0.931 . S
C1947 C1946 1.385 . S
C1947 C1948 1.389 . S
C1948 C1947 1.389 . S
C1948 C1949 1.387 . S
C1949 H1934 0.930 . S
C1949 C1944 1.390 . S
C1949 C1948 1.387 . S
H1950 C1962 0.930 . S
H1951 C1964 0.930 . S
H1952 C1965 0.930 . S
H1953 C1969 0.959 . S
H1954 C1969 0.959 . S
H1955 C1969 0.961 . S
H1956 C1970 0.960 . S
H1957 C1970 0.961 . S
H1958 C1970 0.959 . S
H1959 C1973 0.929 . S
H1960 C1974 0.931 . S
H1961 C1976 0.930 . S
C1962 H1950 0.930 . S
C1962 C1963 1.399 . S
C1962 C1967 1.399 . S
C1963 C1962 1.399 . S
C1963 C1964 1.376 . S
C1964 H1951 0.930 . S
C1964 C1963 1.376 . S
C1964 C1965 1.388 . S
C1965 H1952 0.930 . S
C1965 C1964 1.388 . S
C1965 C1966 1.390 . S
C1966 C1965 1.390 . S
C1966 C1967 1.394 . S
C1966 C1972 1.465 . S
C1967 C1962 1.399 . S
C1967 C1966 1.394 . S
C1967 C1968 1.516 . S
C1968 C1967 1.516 . S
C1968 C1969 1.502 . S
C1968 C1970 1.561 . S
C1968 C1971 1.526 . S
C1969 H1953 0.959 . S
C1969 H1954 0.959 . S
C1969 H1955 0.961 . S
C1969 C1968 1.502 . S
C1970 H1956 0.960 . S
C1970 H1957 0.961 . S
C1970 H1958 0.959 . S
C1970 C1968 1.561 . S
C1971 C1968 1.526 . S
C1971 C1972 1.396 . S
C1971 C1976 1.390 . S
C1972 C1966 1.465 . S
C1972 C1971 1.396 . S
C1972 C1973 1.399 . S
C1973 H1959 0.929 . S
C1973 C1972 1.399 . S
C1973 C1974 1.385 . S
C1974 H1960 0.931 . S
C1974 C1973 1.385 . S
C1974 C1975 1.389 . S
C1975 C1974 1.389 . S
C1975 C1976 1.387 . S
C1976 H1961 0.930 . S
C1976 C1971 1.390 . S
C1976 C1975 1.387 . S
H1977 C1989 0.930 . S
H1978 C1991 0.930 . S
H1979 C1992 0.930 . S
H1980 C1996 0.959 . S
H1981 C1996 0.959 . S
H1982 C1996 0.961 . S
H1983 C1997 0.960 . S
H1984 C1997 0.961 . S
H1985 C1997 0.959 . S
H1986 C2000 0.929 . S
H1987 C2001 0.931 . S
H1988 C2003 0.930 . S
C1989 H1977 0.930 . S
C1989 C1990 1.399 . S
C1989 C1994 1.399 . S
C1990 C1989 1.399 . S
C1990 C1991 1.376 . S
C1991 H1978 0.930 . S
C1991 C1990 1.376 . S
C1991 C1992 1.388 . S
C1992 H1979 0.930 . S
C1992 C1991 1.388 . S
C1992 C1993 1.390 . S
C1993 C1992 1.390 . S
C1993 C1994 1.394 . S
C1993 C1999 1.465 . S
C1994 C1989 1.399 . S
C1994 C1993 1.394 . S
C1994 C1995 1.516 . S
C1995 C1994 1.516 . S
C1995 C1996 1.502 . S
C1995 C1997 1.561 . S
C1995 C1998 1.526 . S
C1996 H1980 0.959 . S
C1996 H1981 0.959 . S
C1996 H1982 0.961 . S
C1996 C1995 1.502 . S
C1997 H1983 0.960 . S
C1997 H1984 0.961 . S
C1997 H1985 0.959 . S
C1997 C1995 1.561 . S
C1998 C1995 1.526 . S
C1998 C1999 1.396 . S
C1998 C2003 1.390 . S
C1999 C1993 1.465 . S
C1999 C1998 1.396 . S
C1999 C2000 1.399 . S
C2000 H1986 0.929 . S
C2000 C1999 1.399 . S
C2000 C2001 1.385 . S
C2001 H1987 0.931 . S
C2001 C2000 1.385 . S
C2001 C2002 1.389 . S
C2002 C2001 1.389 . S
C2002 C2003 1.387 . S
C2003 H1988 0.930 . S
C2003 C1998 1.390 . S
C2003 C2002 1.387 . S
H2004 C2016 0.930 . S
H2005 C2018 0.930 . S
H2006 C2019 0.930 . S
H2007 C2023 0.959 . S
H2008 C2023 0.959 . S
H2009 C2023 0.961 . S
H2010 C2024 0.960 . S
H2011 C2024 0.961 . S
H2012 C2024 0.959 . S
H2013 C2027 0.929 . S
H2014 C2028 0.931 . S
H2015 C2030 0.930 . S
C2016 H2004 0.930 . S
C2016 C2017 1.399 . S
C2016 C2021 1.399 . S
C2017 C2016 1.399 . S
C2017 C2018 1.376 . S
C2018 H2005 0.930 . S
C2018 C2017 1.376 . S
C2018 C2019 1.388 . S
C2019 H2006 0.930 . S
C2019 C2018 1.388 . S
C2019 C2020 1.390 . S
C2020 C2019 1.390 . S
C2020 C2021 1.394 . S
C2020 C2026 1.465 . S
C2021 C2016 1.399 . S
C2021 C2020 1.394 . S
C2021 C2022 1.516 . S
C2022 C2021 1.516 . S
C2022 C2023 1.502 . S
C2022 C2024 1.561 . S
C2022 C2025 1.526 . S
C2023 H2007 0.959 . S
C2023 H2008 0.959 . S
C2023 H2009 0.961 . S
C2023 C2022 1.502 . S
C2024 H2010 0.960 . S
C2024 H2011 0.961 . S
C2024 H2012 0.959 . S
C2024 C2022 1.561 . S
C2025 C2022 1.526 . S
C2025 C2026 1.396 . S
C2025 C2030 1.390 . S
C2026 C2020 1.465 . S
C2026 C2025 1.396 . S
C2026 C2027 1.399 . S
C2027 H2013 0.929 . S
C2027 C2026 1.399 . S
C2027 C2028 1.385 . S
C2028 H2014 0.931 . S
C2028 C2027 1.385 . S
C2028 C2029 1.389 . S
C2029 C2028 1.389 . S
C2029 C2030 1.387 . S
C2030 H2015 0.930 . S
C2030 C2025 1.390 . S
C2030 C2029 1.387 . S
H2031 C2043 0.930 . S
H2032 C2045 0.930 . S
H2033 C2046 0.930 . S
H2034 C2050 0.959 . S
H2035 C2050 0.959 . S
H2036 C2050 0.961 . S
H2037 C2051 0.960 . S
H2038 C2051 0.961 . S
H2039 C2051 0.959 . S
H2040 C2054 0.929 . S
H2041 C2055 0.931 . S
H2042 C2057 0.930 . S
C2043 H2031 0.930 . S
C2043 C2044 1.399 . S
C2043 C2048 1.399 . S
C2044 C2043 1.399 . S
C2044 C2045 1.376 . S
C2045 H2032 0.930 . S
C2045 C2044 1.376 . S
C2045 C2046 1.388 . S
C2046 H2033 0.930 . S
C2046 C2045 1.388 . S
C2046 C2047 1.390 . S
C2047 C2046 1.390 . S
C2047 C2048 1.394 . S
C2047 C2053 1.465 . S
C2048 C2043 1.399 . S
C2048 C2047 1.394 . S
C2048 C2049 1.516 . S
C2049 C2048 1.516 . S
C2049 C2050 1.502 . S
C2049 C2051 1.561 . S
C2049 C2052 1.526 . S
C2050 H2034 0.959 . S
C2050 H2035 0.959 . S
C2050 H2036 0.961 . S
C2050 C2049 1.502 . S
C2051 H2037 0.960 . S
C2051 H2038 0.961 . S
C2051 H2039 0.959 . S
C2051 C2049 1.561 . S
C2052 C2049 1.526 . S
C2052 C2053 1.396 . S
C2052 C2057 1.390 . S
C2053 C2047 1.465 . S
C2053 C2052 1.396 . S
C2053 C2054 1.399 . S
C2054 H2040 0.929 . S
C2054 C2053 1.399 . S
C2054 C2055 1.385 . S
C2055 H2041 0.931 . S
C2055 C2054 1.385 . S
C2055 C2056 1.389 . S
C2056 C2055 1.389 . S
C2056 C2057 1.387 . S
C2057 H2042 0.930 . S
C2057 C2052 1.390 . S
C2057 C2056 1.387 . S
H2058 C2070 0.930 . S
H2059 C2072 0.930 . S
H2060 C2073 0.930 . S
H2061 C2077 0.959 . S
H2062 C2077 0.959 . S
H2063 C2077 0.961 . S
H2064 C2078 0.960 . S
H2065 C2078 0.961 . S
H2066 C2078 0.959 . S
H2067 C2081 0.929 . S
H2068 C2082 0.931 . S
H2069 C2084 0.930 . S
C2070 H2058 0.930 . S
C2070 C2071 1.399 . S
C2070 C2075 1.399 . S
C2071 C2070 1.399 . S
C2071 C2072 1.376 . S
C2072 H2059 0.930 . S
C2072 C2071 1.376 . S
C2072 C2073 1.388 . S
C2073 H2060 0.930 . S
C2073 C2072 1.388 . S
C2073 C2074 1.390 . S
C2074 C2073 1.390 . S
C2074 C2075 1.394 . S
C2074 C2080 1.465 . S
C2075 C2070 1.399 . S
C2075 C2074 1.394 . S
C2075 C2076 1.516 . S
C2076 C2075 1.516 . S
C2076 C2077 1.502 . S
C2076 C2078 1.561 . S
C2076 C2079 1.526 . S
C2077 H2061 0.959 . S
C2077 H2062 0.959 . S
C2077 H2063 0.961 . S
C2077 C2076 1.502 . S
C2078 H2064 0.960 . S
C2078 H2065 0.961 . S
C2078 H2066 0.959 . S
C2078 C2076 1.561 . S
C2079 C2076 1.526 . S
C2079 C2080 1.396 . S
C2079 C2084 1.390 . S
C2080 C2074 1.465 . S
C2080 C2079 1.396 . S
C2080 C2081 1.399 . S
C2081 H2067 0.929 . S
C2081 C2080 1.399 . S
C2081 C2082 1.385 . S
C2082 H2068 0.931 . S
C2082 C2081 1.385 . S
C2082 C2083 1.389 . S
C2083 C2082 1.389 . S
C2083 C2084 1.387 . S
C2084 H2069 0.930 . S
C2084 C2079 1.390 . S
C2084 C2083 1.387 . S
H2085 C2097 0.930 . S
H2086 C2099 0.930 . S
H2087 C2100 0.930 . S
H2088 C2104 0.959 . S
H2089 C2104 0.959 . S
H2090 C2104 0.961 . S
H2091 C2105 0.960 . S
H2092 C2105 0.961 . S
H2093 C2105 0.959 . S
H2094 C2108 0.929 . S
H2095 C2109 0.931 . S
H2096 C2111 0.930 . S
C2097 H2085 0.930 . S
C2097 C2098 1.399 . S
C2097 C2102 1.399 . S
C2098 C2097 1.399 . S
C2098 C2099 1.376 . S
C2099 H2086 0.930 . S
C2099 C2098 1.376 . S
C2099 C2100 1.388 . S
C2100 H2087 0.930 . S
C2100 C2099 1.388 . S
C2100 C2101 1.390 . S
C2101 C2100 1.390 . S
C2101 C2102 1.394 . S
C2101 C2107 1.465 . S
C2102 C2097 1.399 . S
C2102 C2101 1.394 . S
C2102 C2103 1.516 . S
C2103 C2102 1.516 . S
C2103 C2104 1.502 . S
C2103 C2105 1.561 . S
C2103 C2106 1.526 . S
C2104 H2088 0.959 . S
C2104 H2089 0.959 . S
C2104 H2090 0.961 . S
C2104 C2103 1.502 . S
C2105 H2091 0.960 . S
C2105 H2092 0.961 . S
C2105 H2093 0.959 . S
C2105 C2103 1.561 . S
C2106 C2103 1.526 . S
C2106 C2107 1.396 . S
C2106 C2111 1.390 . S
C2107 C2101 1.465 . S
C2107 C2106 1.396 . S
C2107 C2108 1.399 . S
C2108 H2094 0.929 . S
C2108 C2107 1.399 . S
C2108 C2109 1.385 . S
C2109 H2095 0.931 . S
C2109 C2108 1.385 . S
C2109 C2110 1.389 . S
C2110 C2109 1.389 . S
C2110 C2111 1.387 . S
C2111 H2096 0.930 . S
C2111 C2106 1.390 . S
C2111 C2110 1.387 . S
H2112 C2124 0.930 . S
H2113 C2126 0.930 . S
H2114 C2127 0.930 . S
H2115 C2131 0.959 . S
H2116 C2131 0.959 . S
H2117 C2131 0.961 . S
H2118 C2132 0.960 . S
H2119 C2132 0.961 . S
H2120 C2132 0.959 . S
H2121 C2135 0.929 . S
H2122 C2136 0.931 . S
H2123 C2138 0.930 . S
C2124 H2112 0.930 . S
C2124 C2125 1.399 . S
C2124 C2129 1.399 . S
C2125 C2124 1.399 . S
C2125 C2126 1.376 . S
C2126 H2113 0.930 . S
C2126 C2125 1.376 . S
C2126 C2127 1.388 . S
C2127 H2114 0.930 . S
C2127 C2126 1.388 . S
C2127 C2128 1.390 . S
C2128 C2127 1.390 . S
C2128 C2129 1.394 . S
C2128 C2134 1.465 . S
C2129 C2124 1.399 . S
C2129 C2128 1.394 . S
C2129 C2130 1.516 . S
C2130 C2129 1.516 . S
C2130 C2131 1.502 . S
C2130 C2132 1.561 . S
C2130 C2133 1.526 . S
C2131 H2115 0.959 . S
C2131 H2116 0.959 . S
C2131 H2117 0.961 . S
C2131 C2130 1.502 . S
C2132 H2118 0.960 . S
C2132 H2119 0.961 . S
C2132 H2120 0.959 . S
C2132 C2130 1.561 . S
C2133 C2130 1.526 . S
C2133 C2134 1.396 . S
C2133 C2138 1.390 . S
C2134 C2128 1.465 . S
C2134 C2133 1.396 . S
C2134 C2135 1.399 . S
C2135 H2121 0.929 . S
C2135 C2134 1.399 . S
C2135 C2136 1.385 . S
C2136 H2122 0.931 . S
C2136 C2135 1.385 . S
C2136 C2137 1.389 . S
C2137 C2136 1.389 . S
C2137 C2138 1.387 . S
C2138 H2123 0.930 . S
C2138 C2133 1.390 . S
C2138 C2137 1.387 . S
H2139 C2151 0.930 . S
H2140 C2153 0.930 . S
H2141 C2154 0.930 . S
H2142 C2158 0.959 . S
H2143 C2158 0.959 . S
H2144 C2158 0.961 . S
H2145 C2159 0.960 . S
H2146 C2159 0.961 . S
H2147 C2159 0.959 . S
H2148 C2162 0.929 . S
H2149 C2163 0.931 . S
H2150 C2165 0.930 . S
C2151 H2139 0.930 . S
C2151 C2152 1.399 . S
C2151 C2156 1.399 . S
C2152 C2151 1.399 . S
C2152 C2153 1.376 . S
C2153 H2140 0.930 . S
C2153 C2152 1.376 . S
C2153 C2154 1.388 . S
C2154 H2141 0.930 . S
C2154 C2153 1.388 . S
C2154 C2155 1.390 . S
C2155 C2154 1.390 . S
C2155 C2156 1.394 . S
C2155 C2161 1.465 . S
C2156 C2151 1.399 . S
C2156 C2155 1.394 . S
C2156 C2157 1.516 . S
C2157 C2156 1.516 . S
C2157 C2158 1.502 . S
C2157 C2159 1.561 . S
C2157 C2160 1.526 . S
C2158 H2142 0.959 . S
C2158 H2143 0.959 . S
C2158 H2144 0.961 . S
C2158 C2157 1.502 . S
C2159 H2145 0.960 . S
C2159 H2146 0.961 . S
C2159 H2147 0.959 . S
C2159 C2157 1.561 . S
C2160 C2157 1.526 . S
C2160 C2161 1.396 . S
C2160 C2165 1.390 . S
C2161 C2155 1.465 . S
C2161 C2160 1.396 . S
C2161 C2162 1.399 . S
C2162 H2148 0.929 . S
C2162 C2161 1.399 . S
C2162 C2163 1.385 . S
C2163 H2149 0.931 . S
C2163 C2162 1.385 . S
C2163 C2164 1.389 . S
C2164 C2163 1.389 . S
C2164 C2165 1.387 . S
C2165 H2150 0.930 . S
C2165 C2160 1.390 . S
C2165 C2164 1.387 . S
H2166 C2178 0.930 . S
H2167 C2180 0.930 . S
H2168 C2181 0.930 . S
H2169 C2185 0.959 . S
H2170 C2185 0.959 . S
H2171 C2185 0.961 . S
H2172 C2186 0.960 . S
H2173 C2186 0.961 . S
H2174 C2186 0.959 . S
H2175 C2189 0.929 . S
H2176 C2190 0.931 . S
H2177 C2192 0.930 . S
C2178 H2166 0.930 . S
C2178 C2179 1.399 . S
C2178 C2183 1.399 . S
C2179 C2178 1.399 . S
C2179 C2180 1.376 . S
C2180 H2167 0.930 . S
C2180 C2179 1.376 . S
C2180 C2181 1.388 . S
C2181 H2168 0.930 . S
C2181 C2180 1.388 . S
C2181 C2182 1.390 . S
C2182 C2181 1.390 . S
C2182 C2183 1.394 . S
C2182 C2188 1.465 . S
C2183 C2178 1.399 . S
C2183 C2182 1.394 . S
C2183 C2184 1.516 . S
C2184 C2183 1.516 . S
C2184 C2185 1.502 . S
C2184 C2186 1.561 . S
C2184 C2187 1.526 . S
C2185 H2169 0.959 . S
C2185 H2170 0.959 . S
C2185 H2171 0.961 . S
C2185 C2184 1.502 . S
C2186 H2172 0.960 . S
C2186 H2173 0.961 . S
C2186 H2174 0.959 . S
C2186 C2184 1.561 . S
C2187 C2184 1.526 . S
C2187 C2188 1.396 . S
C2187 C2192 1.390 . S
C2188 C2182 1.465 . S
C2188 C2187 1.396 . S
C2188 C2189 1.399 . S
C2189 H2175 0.929 . S
C2189 C2188 1.399 . S
C2189 C2190 1.385 . S
C2190 H2176 0.931 . S
C2190 C2189 1.385 . S
C2190 C2191 1.389 . S
C2191 C2190 1.389 . S
C2191 C2192 1.387 . S
C2192 H2177 0.930 . S
C2192 C2187 1.390 . S
C2192 C2191 1.387 . S
H2193 C2205 0.930 . S
H2194 C2207 0.930 . S
H2195 C2208 0.930 . S
H2196 C2212 0.959 . S
H2197 C2212 0.959 . S
H2198 C2212 0.961 . S
H2199 C2213 0.960 . S
H2200 C2213 0.961 . S
H2201 C2213 0.959 . S
H2202 C2216 0.929 . S
H2203 C2217 0.931 . S
H2204 C2219 0.930 . S
C2205 H2193 0.930 . S
C2205 C2206 1.399 . S
C2205 C2210 1.399 . S
C2206 C2205 1.399 . S
C2206 C2207 1.376 . S
C2207 H2194 0.930 . S
C2207 C2206 1.376 . S
C2207 C2208 1.388 . S
C2208 H2195 0.930 . S
C2208 C2207 1.388 . S
C2208 C2209 1.390 . S
C2209 C2208 1.390 . S
C2209 C2210 1.394 . S
C2209 C2215 1.465 . S
C2210 C2205 1.399 . S
C2210 C2209 1.394 . S
C2210 C2211 1.516 . S
C2211 C2210 1.516 . S
C2211 C2212 1.502 . S
C2211 C2213 1.561 . S
C2211 C2214 1.526 . S
C2212 H2196 0.959 . S
C2212 H2197 0.959 . S
C2212 H2198 0.961 . S
C2212 C2211 1.502 . S
C2213 H2199 0.960 . S
C2213 H2200 0.961 . S
C2213 H2201 0.959 . S
C2213 C2211 1.561 . S
C2214 C2211 1.526 . S
C2214 C2215 1.396 . S
C2214 C2219 1.390 . S
C2215 C2209 1.465 . S
C2215 C2214 1.396 . S
C2215 C2216 1.399 . S
C2216 H2202 0.929 . S
C2216 C2215 1.399 . S
C2216 C2217 1.385 . S
C2217 H2203 0.931 . S
C2217 C2216 1.385 . S
C2217 C2218 1.389 . S
C2218 C2217 1.389 . S
C2218 C2219 1.387 . S
C2219 H2204 0.930 . S
C2219 C2214 1.390 . S
C2219 C2218 1.387 . S
H2220 C2232 0.930 . S
H2221 C2234 0.930 . S
H2222 C2235 0.930 . S
H2223 C2239 0.959 . S
H2224 C2239 0.959 . S
H2225 C2239 0.961 . S
H2226 C2240 0.960 . S
H2227 C2240 0.961 . S
H2228 C2240 0.959 . S
H2229 C2243 0.929 . S
H2230 C2244 0.931 . S
H2231 C2246 0.930 . S
C2232 H2220 0.930 . S
C2232 C2233 1.399 . S
C2232 C2237 1.399 . S
C2233 C2232 1.399 . S
C2233 C2234 1.376 . S
C2234 H2221 0.930 . S
C2234 C2233 1.376 . S
C2234 C2235 1.388 . S
C2235 H2222 0.930 . S
C2235 C2234 1.388 . S
C2235 C2236 1.390 . S
C2236 C2235 1.390 . S
C2236 C2237 1.394 . S
C2236 C2242 1.465 . S
C2237 C2232 1.399 . S
C2237 C2236 1.394 . S
C2237 C2238 1.516 . S
C2238 C2237 1.516 . S
C2238 C2239 1.502 . S
C2238 C2240 1.561 . S
C2238 C2241 1.526 . S
C2239 H2223 0.959 . S
C2239 H2224 0.959 . S
C2239 H2225 0.961 . S
C2239 C2238 1.502 . S
C2240 H2226 0.960 . S
C2240 H2227 0.961 . S
C2240 H2228 0.959 . S
C2240 C2238 1.561 . S
C2241 C2238 1.526 . S
C2241 C2242 1.396 . S
C2241 C2246 1.390 . S
C2242 C2236 1.465 . S
C2242 C2241 1.396 . S
C2242 C2243 1.399 . S
C2243 H2229 0.929 . S
C2243 C2242 1.399 . S
C2243 C2244 1.385 . S
C2244 H2230 0.931 . S
C2244 C2243 1.385 . S
C2244 C2245 1.389 . S
C2245 C2244 1.389 . S
C2245 C2246 1.387 . S
C2246 H2231 0.930 . S
C2246 C2241 1.390 . S
C2246 C2245 1.387 . S
H2247 C2259 0.930 . S
H2248 C2261 0.930 . S
H2249 C2262 0.930 . S
H2250 C2266 0.959 . S
H2251 C2266 0.959 . S
H2252 C2266 0.961 . S
H2253 C2267 0.960 . S
H2254 C2267 0.961 . S
H2255 C2267 0.959 . S
H2256 C2270 0.929 . S
H2257 C2271 0.931 . S
H2258 C2273 0.930 . S
C2259 H2247 0.930 . S
C2259 C2260 1.399 . S
C2259 C2264 1.399 . S
C2260 C2259 1.399 . S
C2260 C2261 1.376 . S
C2261 H2248 0.930 . S
C2261 C2260 1.376 . S
C2261 C2262 1.388 . S
C2262 H2249 0.930 . S
C2262 C2261 1.388 . S
C2262 C2263 1.390 . S
C2263 C2262 1.390 . S
C2263 C2264 1.394 . S
C2263 C2269 1.465 . S
C2264 C2259 1.399 . S
C2264 C2263 1.394 . S
C2264 C2265 1.516 . S
C2265 C2264 1.516 . S
C2265 C2266 1.502 . S
C2265 C2267 1.561 . S
C2265 C2268 1.526 . S
C2266 H2250 0.959 . S
C2266 H2251 0.959 . S
C2266 H2252 0.961 . S
C2266 C2265 1.502 . S
C2267 H2253 0.960 . S
C2267 H2254 0.961 . S
C2267 H2255 0.959 . S
C2267 C2265 1.561 . S
C2268 C2265 1.526 . S
C2268 C2269 1.396 . S
C2268 C2273 1.390 . S
C2269 C2263 1.465 . S
C2269 C2268 1.396 . S
C2269 C2270 1.399 . S
C2270 H2256 0.929 . S
C2270 C2269 1.399 . S
C2270 C2271 1.385 . S
C2271 H2257 0.931 . S
C2271 C2270 1.385 . S
C2271 C2272 1.389 . S
C2272 C2271 1.389 . S
C2272 C2273 1.387 . S
C2273 H2258 0.930 . S
C2273 C2268 1.390 . S
C2273 C2272 1.387 . S
H2274 C2286 0.930 . S
H2275 C2288 0.930 . S
H2276 C2289 0.930 . S
H2277 C2293 0.959 . S
H2278 C2293 0.959 . S
H2279 C2293 0.961 . S
H2280 C2294 0.960 . S
H2281 C2294 0.961 . S
H2282 C2294 0.959 . S
H2283 C2297 0.929 . S
H2284 C2298 0.931 . S
H2285 C2300 0.930 . S
C2286 H2274 0.930 . S
C2286 C2287 1.399 . S
C2286 C2291 1.399 . S
C2287 C2286 1.399 . S
C2287 C2288 1.376 . S
C2288 H2275 0.930 . S
C2288 C2287 1.376 . S
C2288 C2289 1.388 . S
C2289 H2276 0.930 . S
C2289 C2288 1.388 . S
C2289 C2290 1.390 . S
C2290 C2289 1.390 . S
C2290 C2291 1.394 . S
C2290 C2296 1.465 . S
C2291 C2286 1.399 . S
C2291 C2290 1.394 . S
C2291 C2292 1.516 . S
C2292 C2291 1.516 . S
C2292 C2293 1.502 . S
C2292 C2294 1.561 . S
C2292 C2295 1.526 . S
C2293 H2277 0.959 . S
C2293 H2278 0.959 . S
C2293 H2279 0.961 . S
C2293 C2292 1.502 . S
C2294 H2280 0.960 . S
C2294 H2281 0.961 . S
C2294 H2282 0.959 . S
C2294 C2292 1.561 . S
C2295 C2292 1.526 . S
C2295 C2296 1.396 . S
C2295 C2300 1.390 . S
C2296 C2290 1.465 . S
C2296 C2295 1.396 . S
C2296 C2297 1.399 . S
C2297 H2283 0.929 . S
C2297 C2296 1.399 . S
C2297 C2298 1.385 . S
C2298 H2284 0.931 . S
C2298 C2297 1.385 . S
C2298 C2299 1.389 . S
C2299 C2298 1.389 . S
C2299 C2300 1.387 . S
C2300 H2285 0.930 . S
C2300 C2295 1.390 . S
C2300 C2299 1.387 . S
H2301 C2313 0.930 . S
H2302 C2315 0.930 . S
H2303 C2316 0.930 . S
H2304 C2320 0.959 . S
H2305 C2320 0.959 . S
H2306 C2320 0.961 . S
H2307 C2321 0.960 . S
H2308 C2321 0.961 . S
H2309 C2321 0.959 . S
H2310 C2324 0.929 . S
H2311 C2325 0.931 . S
H2312 C2327 0.930 . S
C2313 H2301 0.930 . S
C2313 C2314 1.399 . S
C2313 C2318 1.399 . S
C2314 C2313 1.399 . S
C2314 C2315 1.376 . S
C2315 H2302 0.930 . S
C2315 C2314 1.376 . S
C2315 C2316 1.388 . S
C2316 H2303 0.930 . S
C2316 C2315 1.388 . S
C2316 C2317 1.390 . S
C2317 C2316 1.390 . S
C2317 C2318 1.394 . S
C2317 C2323 1.465 . S
C2318 C2313 1.399 . S
C2318 C2317 1.394 . S
C2318 C2319 1.516 . S
C2319 C2318 1.516 . S
C2319 C2320 1.502 . S
C2319 C2321 1.561 . S
C2319 C2322 1.526 . S
C2320 H2304 0.959 . S
C2320 H2305 0.959 . S
C2320 H2306 0.961 . S
C2320 C2319 1.502 . S
C2321 H2307 0.960 . S
C2321 H2308 0.961 . S
C2321 H2309 0.959 . S
C2321 C2319 1.561 . S
C2322 C2319 1.526 . S
C2322 C2323 1.396 . S
C2322 C2327 1.390 . S
C2323 C2317 1.465 . S
C2323 C2322 1.396 . S
C2323 C2324 1.399 . S
C2324 H2310 0.929 . S
C2324 C2323 1.399 . S
C2324 C2325 1.385 . S
C2325 H2311 0.931 . S
C2325 C2324 1.385 . S
C2325 C2326 1.389 . S
C2326 C2325 1.389 . S
C2326 C2327 1.387 . S
C2327 H2312 0.930 . S
C2327 C2322 1.390 . S
C2327 C2326 1.387 . S
H2328 C2340 0.930 . S
H2329 C2342 0.930 . S
H2330 C2343 0.930 . S
H2331 C2347 0.959 . S
H2332 C2347 0.959 . S
H2333 C2347 0.961 . S
H2334 C2348 0.960 . S
H2335 C2348 0.961 . S
H2336 C2348 0.959 . S
H2337 C2351 0.929 . S
H2338 C2352 0.931 . S
H2339 C2354 0.930 . S
C2340 H2328 0.930 . S
C2340 C2341 1.399 . S
C2340 C2345 1.399 . S
C2341 C2340 1.399 . S
C2341 C2342 1.376 . S
C2342 H2329 0.930 . S
C2342 C2341 1.376 . S
C2342 C2343 1.388 . S
C2343 H2330 0.930 . S
C2343 C2342 1.388 . S
C2343 C2344 1.390 . S
C2344 C2343 1.390 . S
C2344 C2345 1.394 . S
C2344 C2350 1.465 . S
C2345 C2340 1.399 . S
C2345 C2344 1.394 . S
C2345 C2346 1.516 . S
C2346 C2345 1.516 . S
C2346 C2347 1.502 . S
C2346 C2348 1.561 . S
C2346 C2349 1.526 . S
C2347 H2331 0.959 . S
C2347 H2332 0.959 . S
C2347 H2333 0.961 . S
C2347 C2346 1.502 . S
C2348 H2334 0.960 . S
C2348 H2335 0.961 . S
C2348 H2336 0.959 . S
C2348 C2346 1.561 . S
C2349 C2346 1.526 . S
C2349 C2350 1.396 . S
C2349 C2354 1.390 . S
C2350 C2344 1.465 . S
C2350 C2349 1.396 . S
C2350 C2351 1.399 . S
C2351 H2337 0.929 . S
C2351 C2350 1.399 . S
C2351 C2352 1.385 . S
C2352 H2338 0.931 . S
C2352 C2351 1.385 . S
C2352 C2353 1.389 . S
C2353 C2352 1.389 . S
C2353 C2354 1.387 . S
C2354 H2339 0.930 . S
C2354 C2349 1.390 . S
C2354 C2353 1.387 . S
H2355 C2367 0.930 . S
H2356 C2369 0.930 . S
H2357 C2370 0.930 . S
H2358 C2374 0.959 . S
H2359 C2374 0.959 . S
H2360 C2374 0.961 . S
H2361 C2375 0.960 . S
H2362 C2375 0.961 . S
H2363 C2375 0.959 . S
H2364 C2378 0.929 . S
H2365 C2379 0.931 . S
H2366 C2381 0.930 . S
C2367 H2355 0.930 . S
C2367 C2368 1.399 . S
C2367 C2372 1.399 . S
C2368 C2367 1.399 . S
C2368 C2369 1.376 . S
C2369 H2356 0.930 . S
C2369 C2368 1.376 . S
C2369 C2370 1.388 . S
C2370 H2357 0.930 . S
C2370 C2369 1.388 . S
C2370 C2371 1.390 . S
C2371 C2370 1.390 . S
C2371 C2372 1.394 . S
C2371 C2377 1.465 . S
C2372 C2367 1.399 . S
C2372 C2371 1.394 . S
C2372 C2373 1.516 . S
C2373 C2372 1.516 . S
C2373 C2374 1.502 . S
C2373 C2375 1.561 . S
C2373 C2376 1.526 . S
C2374 H2358 0.959 . S
C2374 H2359 0.959 . S
C2374 H2360 0.961 . S
C2374 C2373 1.502 . S
C2375 H2361 0.960 . S
C2375 H2362 0.961 . S
C2375 H2363 0.959 . S
C2375 C2373 1.561 . S
C2376 C2373 1.526 . S
C2376 C2377 1.396 . S
C2376 C2381 1.390 . S
C2377 C2371 1.465 . S
C2377 C2376 1.396 . S
C2377 C2378 1.399 . S
C2378 H2364 0.929 . S
C2378 C2377 1.399 . S
C2378 C2379 1.385 . S
C2379 H2365 0.931 . S
C2379 C2378 1.385 . S
C2379 C2380 1.389 . S
C2380 C2379 1.389 . S
C2380 C2381 1.387 . S
C2381 H2366 0.930 . S
C2381 C2376 1.390 . S
C2381 C2380 1.387 . S
H2382 C2394 0.930 . S
H2383 C2396 0.930 . S
H2384 C2397 0.930 . S
H2385 C2401 0.959 . S
H2386 C2401 0.959 . S
H2387 C2401 0.961 . S
H2388 C2402 0.960 . S
H2389 C2402 0.961 . S
H2390 C2402 0.959 . S
H2391 C2405 0.929 . S
H2392 C2406 0.931 . S
H2393 C2408 0.930 . S
C2394 H2382 0.930 . S
C2394 C2395 1.399 . S
C2394 C2399 1.399 . S
C2395 C2394 1.399 . S
C2395 C2396 1.376 . S
C2396 H2383 0.930 . S
C2396 C2395 1.376 . S
C2396 C2397 1.388 . S
C2397 H2384 0.930 . S
C2397 C2396 1.388 . S
C2397 C2398 1.390 . S
C2398 C2397 1.390 . S
C2398 C2399 1.394 . S
C2398 C2404 1.465 . S
C2399 C2394 1.399 . S
C2399 C2398 1.394 . S
C2399 C2400 1.516 . S
C2400 C2399 1.516 . S
C2400 C2401 1.502 . S
C2400 C2402 1.561 . S
C2400 C2403 1.526 . S
C2401 H2385 0.959 . S
C2401 H2386 0.959 . S
C2401 H2387 0.961 . S
C2401 C2400 1.502 . S
C2402 H2388 0.960 . S
C2402 H2389 0.961 . S
C2402 H2390 0.959 . S
C2402 C2400 1.561 . S
C2403 C2400 1.526 . S
C2403 C2404 1.396 . S
C2403 C2408 1.390 . S
C2404 C2398 1.465 . S
C2404 C2403 1.396 . S
C2404 C2405 1.399 . S
C2405 H2391 0.929 . S
C2405 C2404 1.399 . S
C2405 C2406 1.385 . S
C2406 H2392 0.931 . S
C2406 C2405 1.385 . S
C2406 C2407 1.389 . S
C2407 C2406 1.389 . S
C2407 C2408 1.387 . S
C2408 H2393 0.930 . S
C2408 C2403 1.390 . S
C2408 C2407 1.387 . S
H2409 C2421 0.930 . S
H2410 C2423 0.930 . S
H2411 C2424 0.930 . S
H2412 C2428 0.959 . S
H2413 C2428 0.959 . S
H2414 C2428 0.961 . S
H2415 C2429 0.960 . S
H2416 C2429 0.961 . S
H2417 C2429 0.959 . S
H2418 C2432 0.929 . S
H2419 C2433 0.931 . S
H2420 C2435 0.930 . S
C2421 H2409 0.930 . S
C2421 C2422 1.399 . S
C2421 C2426 1.399 . S
C2422 C2421 1.399 . S
C2422 C2423 1.376 . S
C2423 H2410 0.930 . S
C2423 C2422 1.376 . S
C2423 C2424 1.388 . S
C2424 H2411 0.930 . S
C2424 C2423 1.388 . S
C2424 C2425 1.390 . S
C2425 C2424 1.390 . S
C2425 C2426 1.394 . S
C2425 C2431 1.465 . S
C2426 C2421 1.399 . S
C2426 C2425 1.394 . S
C2426 C2427 1.516 . S
C2427 C2426 1.516 . S
C2427 C2428 1.502 . S
C2427 C2429 1.561 . S
C2427 C2430 1.526 . S
C2428 H2412 0.959 . S
C2428 H2413 0.959 . S
C2428 H2414 0.961 . S
C2428 C2427 1.502 . S
C2429 H2415 0.960 . S
C2429 H2416 0.961 . S
C2429 H2417 0.959 . S
C2429 C2427 1.561 . S
C2430 C2427 1.526 . S
C2430 C2431 1.396 . S
C2430 C2435 1.390 . S
C2431 C2425 1.465 . S
C2431 C2430 1.396 . S
C2431 C2432 1.399 . S
C2432 H2418 0.929 . S
C2432 C2431 1.399 . S
C2432 C2433 1.385 . S
C2433 H2419 0.931 . S
C2433 C2432 1.385 . S
C2433 C2434 1.389 . S
C2434 C2433 1.389 . S
C2434 C2435 1.387 . S
C2435 H2420 0.930 . S
C2435 C2430 1.390 . S
C2435 C2434 1.387 . S
C829 C203 0.593 . S
C841 C33 0.602 . S
C856 C67 0.591 . S
C868 C237 0.600 . S
C883 C101 0.637 . S
C895 C271 0.638 . S
C910 C169 0.630 . S
C922 C135 0.634 . S
C937 C305 0.560 . S
C949 C815 0.560 . S
C964 C747 0.560 . S
C976 C339 0.561 . S
C991 C373 0.562 . S
C1003 C781 0.567 . S
C1018 C577 0.609 . S
C1030 C407 0.600 . S
C1045 C441 0.571 . S
C1057 C713 0.579 . S
C1072 C475 0.560 . S
C1084 C611 0.560 . S
C1099 C645 0.632 . S
C1111 C509 0.625 . S
C1126 C543 0.561 . S
C1138 C679 0.560 . S
C1153 C104 1.881 . S
C1165 C5 1.847 . S
C1180 C39 1.804 . S
C1192 C2 1.887 . S
C1207 C73 1.854 . S
C1219 C36 1.880 . S
C1234 C70 1.885 . S
C1246 C107 1.822 . S
C1261 C172 1.885 . S
C1273 C141 1.814 . S
C1288 C175 1.803 . S
C1300 C206 1.887 . S
C1315 C240 1.881 . S
C1327 C209 1.849 . S
C1342 C138 1.885 . S
C1354 C243 1.824 . S
C1369 C614 1.887 . S
C1381 C277 1.807 . S
C1396 C311 1.856 . S
C1408 C648 1.880 . S
C1423 C682 1.880 . S
C1435 C345 1.848 . S
C1450 C379 1.803 . S
C1462 C580 1.888 . S
C1477 C750 1.880 . S
C1489 C413 1.853 . S
C1504 C447 1.803 . S
C1516 C546 1.888 . S
C1531 C784 1.880 . S
C1543 C481 1.853 . S
C1558 C515 1.813 . S
C1570 C716 1.887 . S
C1585 C308 1.881 . S
C1597 C549 1.846 . S
C1612 C512 1.884 . S
C1624 C583 1.828 . S
C1639 C617 1.814 . S
C1651 C410 1.886 . S
C1666 C651 1.844 . S
C1678 C444 1.882 . S
C1693 C478 1.887 . S
C1705 C685 1.810 . S
C1720 C376 1.888 . S
C1732 C719 1.801 . S
C1747 C274 1.887 . S
C1759 C753 1.807 . S
C1774 C787 1.840 . S
C1786 C342 1.883 . S
C1801 C9 1.348 . S
C1813 C564 1.375 . S
C1828 C802 1.392 . S
C1840 C43 1.391 . S
C1855 C77 1.354 . S
C1867 C734 1.377 . S
C1882 C768 1.391 . S
C1894 C111 1.390 . S
C1909 C145 1.364 . S
C1921 C598 1.381 . S
C1936 C179 1.381 . S
C1948 C632 1.388 . S
C1963 C666 1.374 . S
C1975 C213 1.347 . S
C1990 C700 1.371 . S
C2002 C247 1.342 . S
C2017 C20 1.372 . S
C2029 C281 1.342 . S
C2044 C315 1.378 . S
C2056 C54 1.387 . S
C2071 C349 1.391 . S
C2083 C88 1.392 . S
C2098 C383 1.342 . S
C2110 C122 1.372 . S
C2125 C417 1.349 . S
C2137 C156 1.375 . S
C2152 C451 1.345 . S
C2164 C190 1.373 . S
C2179 C485 1.350 . S
C2191 C224 1.375 . S
C2206 C519 1.391 . S
C2218 C258 1.392 . S
C2233 C292 1.392 . S
C2245 C553 1.391 . S
C2260 C587 1.378 . S
C2272 C428 1.387 . S
C2287 C621 1.350 . S
C2299 C462 1.375 . S
C2314 C496 1.391 . S
C2326 C655 1.390 . S
C2341 C689 1.376 . S
C2353 C530 1.386 . S
C2368 C360 1.372 . S
C2380 C723 1.344 . S
C2395 C394 1.371 . S
C2407 C757 1.342 . S
C2422 C791 1.378 . S
C2434 C326 1.387 . S
