# Generated by pormake.
# Topology sra, (4)-cn, num edge types: 1
# Building blocks:
#     Node 0, Type 0, BuildingBlock: QUQFOY_clean_sbu_3, # of connection points: 4
#     Node 1, Type 0, BuildingBlock: QUQFOY_clean_sbu_3, # of connection points: 4
#     Node 2, Type 0, BuildingBlock: QUQFOY_clean_sbu_3, # of connection points: 4
#     Node 3, Type 0, BuildingBlock: QUQFOY_clean_sbu_3, # of connection points: 4
#     Node 4, Type 0, BuildingBlock: QUQFOY_clean_sbu_3, # of connection points: 4
#     Node 5, Type 0, BuildingBlock: QUQFOY_clean_sbu_3, # of connection points: 4
#     Node 6, Type 0, BuildingBlock: QUQFOY_clean_sbu_3, # of connection points: 4
#     Node 7, Type 0, BuildingBlock: QUQFOY_clean_sbu_3, # of connection points: 4
#     Edge 8, Type (0, 0), BuildingBlock: FUNLAD_clean_linker_0, # of connection points: 2
#     Edge 9, Type (0, 0), BuildingBlock: FUNLAD_clean_linker_0, # of connection points: 2
#     Edge 10, Type (0, 0), BuildingBlock: FUNLAD_clean_linker_0, # of connection points: 2
#     Edge 11, Type (0, 0), BuildingBlock: FUNLAD_clean_linker_0, # of connection points: 2
#     Edge 12, Type (0, 0), BuildingBlock: FUNLAD_clean_linker_0, # of connection points: 2
#     Edge 13, Type (0, 0), BuildingBlock: FUNLAD_clean_linker_0, # of connection points: 2
#     Edge 14, Type (0, 0), BuildingBlock: FUNLAD_clean_linker_0, # of connection points: 2
#     Edge 15, Type (0, 0), BuildingBlock: FUNLAD_clean_linker_0, # of connection points: 2
#     Edge 16, Type (0, 0), BuildingBlock: FUNLAD_clean_linker_0, # of connection points: 2
#     Edge 17, Type (0, 0), BuildingBlock: FUNLAD_clean_linker_0, # of connection points: 2
#     Edge 18, Type (0, 0), BuildingBlock: FUNLAD_clean_linker_0, # of connection points: 2
#     Edge 19, Type (0, 0), BuildingBlock: FUNLAD_clean_linker_0, # of connection points: 2
#     Edge 20, Type (0, 0), BuildingBlock: FUNLAD_clean_linker_0, # of connection points: 2
#     Edge 21, Type (0, 0), BuildingBlock: FUNLAD_clean_linker_0, # of connection points: 2
#     Edge 22, Type (0, 0), BuildingBlock: FUNLAD_clean_linker_0, # of connection points: 2
#     Edge 23, Type (0, 0), BuildingBlock: FUNLAD_clean_linker_0, # of connection points: 2
# Relax obj value: 0.028
# Max RMSD: 0.060
# Mean RMSD: 0.060
data_MOF--net-sra--node1-QUQFOY_clean_sbu_3--edge1-FUNLAD_clean_linker_0
_symmetry_space_group_name_H-M    P1
_symmetry_Int_Tables_number       1
_symmetry_cell_setting            triclinic
loop_
_symmetry_equiv_pos_as_xyz
'x, y, z'
_cell_length_a     32.66774
_cell_length_b     62.759446
_cell_length_c     38.813974
_cell_angle_alpha  89.856681
_cell_angle_beta   90.037961
_cell_angle_gamma 90.298065
loop_
_atom_site_label
_atom_site_type_symbol
_atom_site_fract_x
_atom_site_fract_y
_atom_site_fract_z
_atom_type_partial_charge
C0 C 0.07983 0.09683 0.20658 0.0
O1 O 0.05544 0.09999 0.23148 0.0
Cd2 Cd 0.98368 0.10556 0.22095 0.0
O3 O 0.06616 0.09494 0.17604 0.0
Cd4 Cd 0.00193 0.09337 0.1431 0.0
C5 C -0.01016 0.14543 0.15888 0.0
O6 O 0.95824 0.07672 0.18673 0.0
O7 O 0.92777 0.08995 0.14219 0.0
O8 O 0.03322 0.06173 0.12072 0.0
C9 C 0.92519 0.07956 0.17016 0.0
O10 O 0.98102 0.13913 0.18923 0.0
C11 C 0.02613 0.06558 0.08921 0.0
O12 O 0.00094 0.13219 0.13591 0.0
O13 O 0.00791 0.08294 0.08218 0.0
C14 C 0.93467 0.39511 0.2083 0.0
O15 O 0.95947 0.39212 0.23303 0.0
Cd16 Cd 0.02809 0.3811 0.22114 0.0
O17 O 0.94718 0.3947 0.17726 0.0
Cd18 Cd 0.00913 0.39201 0.14137 0.0
C19 C 0.00504 0.34038 0.16291 0.0
O20 O 0.05734 0.40664 0.18257 0.0
O21 O 0.08364 0.39083 0.13848 0.0
O22 O 0.98351 0.42498 0.11902 0.0
C23 C 0.08913 0.4014 0.16593 0.0
O24 O 0.01566 0.34702 0.19263 0.0
C25 C 0.9874 0.42044 0.0874 0.0
O26 O -0.00027 0.35333 0.13796 0.0
O27 O 0.00132 0.40207 0.08024 0.0
C28 C 0.05146 0.87237 0.77112 0.0
O29 O 0.02422 0.86453 0.75147 0.0
Cd30 Cd 0.95316 0.86357 0.76835 0.0
O31 O 0.04154 0.88049 0.7999 0.0
Cd32 Cd 0.98076 0.88769 0.83502 0.0
C33 C 0.96154 0.83523 0.84383 0.0
O34 O 0.93405 0.89808 0.78901 0.0
O35 O 0.90687 0.89197 0.83882 0.0
O36 O 0.011 0.92241 0.84519 0.0
C37 C 0.90261 0.8986 0.80815 0.0
O38 O 0.94762 0.83638 0.81322 0.0
C39 C 0.00818 0.92165 0.87775 0.0
O40 O 0.97878 0.85125 0.85788 0.0
O41 O -0.00674 0.90469 0.89077 0.0
C42 C 0.93356 0.61312 0.77462 0.0
O43 O 0.95685 0.6227 0.75343 0.0
Cd44 Cd 0.02843 0.62803 0.76522 0.0
O45 O 0.94789 0.60566 0.8026 0.0
Cd46 Cd 0.01323 0.60244 0.83329 0.0
C47 C 0.0223 0.6554 0.84171 0.0
O48 O 0.05649 0.59488 0.78404 0.0
O49 O 0.08788 0.604 0.83083 0.0
O50 O -0.00541 0.56568 0.8436 0.0
C51 C 0.08992 0.59693 0.8003 0.0
O52 O 0.03329 0.65499 0.81024 0.0
C53 C -0.00123 0.56627 0.87605 0.0
O54 O 0.00938 0.63862 0.85679 0.0
O55 O 0.00921 0.58404 0.88916 0.0
C56 C 0.56422 0.58832 0.72183 0.0
O57 O 0.53521 0.5906 0.74324 0.0
Cd58 Cd 0.46643 0.59649 0.72345 0.0
O59 O 0.55691 0.58755 0.68965 0.0
Cd60 Cd 0.50152 0.58758 0.64695 0.0
C61 C 0.48726 0.63883 0.6678 0.0
O62 O 0.44945 0.57009 0.68154 0.0
O63 O 0.42848 0.58629 0.6357 0.0
O64 O 0.53524 0.55655 0.62474 0.0
C65 C 0.41998 0.57481 0.66168 0.0
O66 O 0.47177 0.63131 0.69546 0.0
C67 C 0.53455 0.56225 0.59338 0.0
O68 O 0.50285 0.62653 0.64529 0.0
O69 O 0.51906 0.58035 0.58661 0.0
C70 C 0.4245 0.87667 0.71384 0.0
O71 O 0.45236 0.87307 0.73589 0.0
Cd72 Cd 0.52342 0.87106 0.71983 0.0
O73 O 0.43373 0.88048 0.68256 0.0
Cd74 Cd 0.49353 0.88481 0.64467 0.0
C75 C 0.51537 0.83299 0.65576 0.0
O76 O 0.54028 0.90153 0.68556 0.0
O77 O 0.56689 0.89005 0.63825 0.0
O78 O 0.45986 0.91649 0.62384 0.0
C79 C 0.57161 0.89989 0.66646 0.0
O80 O 0.52791 0.83869 0.68545 0.0
C81 C 0.46339 0.91215 0.59208 0.0
O82 O 0.49858 0.84634 0.63546 0.0
O83 O 0.48015 0.89452 0.58452 0.0
C84 C 0.56837 0.38122 0.28172 0.0
O85 O 0.54401 0.37704 0.25713 0.0
Cd86 Cd 0.47302 0.36983 0.26937 0.0
O87 O 0.5549 0.38342 0.31223 0.0
Cd88 Cd 0.49238 0.38446 0.347 0.0
C89 C 0.48465 0.33174 0.33386 0.0
O90 O 0.44809 0.39905 0.30274 0.0
O91 O 0.41803 0.38741 0.34872 0.0
O92 O 0.52375 0.4168 0.3674 0.0
C93 C 0.41517 0.39651 0.31961 0.0
O94 O 0.47481 0.33688 0.30316 0.0
C95 C 0.51887 0.41298 0.39922 0.0
O96 O 0.49435 0.34595 0.35583 0.0
O97 O 0.5012 0.39554 0.40724 0.0
C98 C 0.4497 0.09399 0.27855 0.0
O99 O 0.47521 0.09593 0.25405 0.0
Cd100 Cd 0.54741 0.09926 0.26666 0.0
O101 O 0.46217 0.09178 0.30937 0.0
Cd102 Cd 0.52343 0.08794 0.34517 0.0
C103 C 0.54143 0.13957 0.32771 0.0
O104 O 0.56758 0.07055 0.30343 0.0
O105 O 0.59692 0.08272 0.34932 0.0
O106 O 0.48689 0.05737 0.36676 0.0
C107 C 0.6001 0.0728 0.32103 0.0
O108 O 0.55181 0.13294 0.29796 0.0
C109 C 0.49144 0.06165 0.39845 0.0
O110 O 0.52748 0.12673 0.35041 0.0
O111 O 0.51121 0.07856 0.40584 0.0
C112 C -0.00016 0.30722 0.12667 0.0
C113 C -0.00401 0.31746 0.15868 0.0
C114 C -0.00843 0.28533 0.12375 0.0
C115 C 0.97846 0.2736 0.1527 0.0
C116 C 0.97362 0.28404 0.18427 0.0
C117 C 0.98278 0.30563 0.18737 0.0
C118 C 0.96954 0.25047 0.15163 0.0
C119 C -0.00862 0.23645 0.13306 0.0
C120 C -0.01163 0.21304 0.13897 0.0
C121 C 5e-05 0.19883 0.11288 0.0
C122 C -0.00014 0.17678 0.11884 0.0
C123 C -0.01164 0.16856 0.1512 0.0
H124 H 0.96947 0.21497 0.1927 0.0
C125 C 0.97665 0.18283 0.17718 0.0
C126 C 0.97692 0.20471 0.17128 0.0
H127 H 0.968 0.17716 0.20255 0.0
H128 H 0.00977 0.31603 0.10412 0.0
H129 H -0.00508 0.27772 0.09892 0.0
H130 H 0.96342 0.27537 0.2069 0.0
H131 H 0.979 0.31312 0.21228 0.0
H132 H 0.94667 0.24468 0.1697 0.0
H133 H 0.01379 0.24219 0.11452 0.0
H134 H 0.00961 0.20481 0.08793 0.0
H135 H 0.00928 0.16623 0.09831 0.0
C136 C -0.00971 0.80901 0.88614 0.0
C137 C 0.96028 0.81443 0.86172 0.0
C138 C -0.00683 0.78806 0.89834 0.0
C139 C 0.96572 0.77231 0.88658 0.0
C140 C 0.93364 0.77824 0.86459 0.0
C141 C 0.9312 0.79903 0.85195 0.0
C142 C 0.97205 0.7493 0.89334 0.0
C143 C 0.00971 0.74067 0.89323 0.0
C144 C 0.01617 0.71781 0.88555 0.0
C145 C 0.04816 0.7124 0.86321 0.0
C146 C 0.05106 0.69181 0.85009 0.0
C147 C 0.02264 0.67605 0.85979 0.0
H148 H 0.96467 0.70539 0.91479 0.0
C149 C -0.00739 0.68094 0.88439 0.0
C150 C -0.01085 0.70175 0.89699 0.0
H151 H 0.97044 0.66903 0.8924 0.0
H152 H 0.01293 0.82062 0.89431 0.0
H153 H 0.01767 0.78405 0.91596 0.0
H154 H 0.91192 0.76645 0.85537 0.0
H155 H 0.90739 0.80283 0.83353 0.0
H156 H 0.94543 0.73891 0.89131 0.0
H157 H 0.03633 0.75109 0.89168 0.0
H158 H 0.06952 0.72445 0.85419 0.0
H159 H 0.07482 0.68838 0.83147 0.0
C160 C 0.50693 0.6716 0.63384 0.0
C161 C 0.48897 0.66225 0.6632 0.0
C162 C 0.51101 0.69379 0.63129 0.0
C163 C 0.49722 0.70696 0.65814 0.0
C164 C 0.47852 0.69759 0.68697 0.0
C165 C 0.4742 0.67557 0.68942 0.0
C166 C 0.50429 0.73029 0.65869 0.0
C167 C 0.50959 0.74261 0.63059 0.0
C168 C 0.51556 0.76594 0.63418 0.0
C169 C 0.49612 0.78002 0.61137 0.0
C170 C 0.49726 0.80203 0.6174 0.0
C171 C 0.5182 0.81022 0.64621 0.0
H172 H 0.55544 0.76386 0.67879 0.0
C173 C 0.54003 0.79613 0.66749 0.0
C174 C 0.53885 0.77428 0.66149 0.0
H175 H 0.55721 0.80191 0.68948 0.0
H176 H 0.51869 0.66178 0.61323 0.0
H177 H 0.52626 0.70046 0.60896 0.0
H178 H 0.4677 0.70736 0.70804 0.0
H179 H 0.46012 0.669 0.71238 0.0
H180 H 0.50341 0.73786 0.68385 0.0
H181 H 0.50644 0.73591 0.60495 0.0
H182 H 0.47845 0.77395 0.58987 0.0
H183 H 0.48045 0.81249 0.60032 0.0
C184 C 0.47859 0.29335 0.31791 0.0
C185 C 0.4875 0.30885 0.34293 0.0
C186 C 0.48511 0.27184 0.32475 0.0
C187 C 0.50081 0.26526 0.35674 0.0
C188 C 0.50749 0.28052 0.38252 0.0
C189 C 0.50119 0.30219 0.37561 0.0
C190 C 0.51082 0.24255 0.36299 0.0
C191 C 0.52773 0.2307 0.33792 0.0
C192 C 0.53548 0.20745 0.33993 0.0
C193 C 0.55992 0.19836 0.31422 0.0
C194 C 0.56345 0.17633 0.31145 0.0
C195 C 0.54255 0.16277 0.33436 0.0
H196 H 0.49666 0.2003 0.38405 0.0
C197 C 0.5199 0.1718 0.3614 0.0
C198 C 0.51621 0.19397 0.36411 0.0
H199 H 0.50335 0.16176 0.37942 0.0
H200 H 0.46743 0.29781 0.29264 0.0
H201 H 0.47822 0.26036 0.30474 0.0
H202 H 0.51901 0.27576 0.40755 0.0
H203 H 0.50801 0.31372 0.39556 0.0
H204 H 0.50549 0.23595 0.38846 0.0
H205 H 0.53612 0.23853 0.31388 0.0
H206 H 0.57522 0.20833 0.29531 0.0
H207 H 0.58151 0.16992 0.29052 0.0
C208 C 0.38954 0.09551 0.23819 0.0
C209 C 0.40512 0.09474 0.27192 0.0
C210 C 0.3473 0.09664 0.23248 0.0
C211 C 0.31989 0.09703 0.26048 0.0
C212 C 0.33557 0.09647 0.29407 0.0
C213 C 0.37761 0.09518 0.29977 0.0
C214 C 0.27495 0.09874 0.25594 0.0
C215 C 0.25491 0.09136 0.22808 0.0
C216 C 0.2098 0.0928 0.22369 0.0
C217 C 0.19354 0.09128 0.19033 0.0
C218 C 0.15141 0.09257 0.18484 0.0
C219 C 0.12443 0.09529 0.21269 0.0
H220 H 0.19368 0.0956 0.27797 0.0
C221 C 0.14055 0.09647 0.24619 0.0
C222 C 0.18275 0.09514 0.25169 0.0
H223 H 0.12058 0.09832 0.26823 0.0
H224 H 0.40994 0.09538 0.2162 0.0
H225 H 0.33643 0.09769 0.2062 0.0
H226 H 0.31518 0.09691 0.31607 0.0
H227 H 0.3885 0.09475 0.32613 0.0
H228 H 0.25805 0.10595 0.2769 0.0
H229 H 0.27209 0.08413 0.20726 0.0
H230 H 0.21355 0.08927 0.16833 0.0
H231 H 0.14006 0.09149 0.15867 0.0
C232 C 0.62856 0.38442 0.24182 0.0
C233 C 0.61277 0.38363 0.27546 0.0
C234 C 0.67067 0.38672 0.23637 0.0
C235 C 0.69771 0.38822 0.26454 0.0
C236 C 0.68192 0.38715 0.29805 0.0
C237 C 0.63993 0.38505 0.30349 0.0
C238 C 0.74264 0.38986 0.26014 0.0
C239 C 0.7605 0.39906 0.23261 0.0
C240 C 0.80552 0.39965 0.22755 0.0
C241 C 0.82079 0.40115 0.19388 0.0
C242 C 0.86282 0.40026 0.18771 0.0
C243 C 0.89055 0.398 0.2152 0.0
H244 H 0.82297 0.39818 0.28166 0.0
C245 C 0.87542 0.39754 0.24905 0.0
C246 C 0.83335 0.39845 0.25521 0.0
H247 H 0.89599 0.39612 0.27082 0.0
H248 H 0.60845 0.38323 0.2197 0.0
H249 H 0.68189 0.38681 0.21015 0.0
H250 H 0.70214 0.38805 0.32016 0.0
H251 H 0.62886 0.38436 0.32978 0.0
H252 H 0.76133 0.38325 0.28062 0.0
H253 H 0.74159 0.40563 0.2122 0.0
H254 H 0.80009 0.40238 0.17215 0.0
H255 H 0.87343 0.40086 0.16129 0.0
C256 C 0.12467 0.88201 0.78193 0.0
C257 C 0.0951 0.87212 0.76095 0.0
C258 C 0.16594 0.8818 0.77279 0.0
C259 C 0.17875 0.87148 0.74257 0.0
C260 C 0.14917 0.86183 0.72136 0.0
C261 C 0.10776 0.86208 0.73047 0.0
C262 C 0.22232 0.87127 0.73167 0.0
C263 C 0.25385 0.8738 0.75376 0.0
C264 C 0.29738 0.87443 0.74277 0.0
C265 C 0.328 0.86991 0.76708 0.0
C266 C 0.36934 0.87069 0.75786 0.0
C267 C 0.3809 0.87617 0.7241 0.0
H268 H 0.28656 0.88465 0.68993 0.0
C269 C 0.35026 0.88101 0.69991 0.0
C270 C 0.30901 0.88026 0.70913 0.0
H271 H 0.35807 0.88552 0.67375 0.0
H272 H 0.11596 0.89011 0.8054 0.0
H273 H 0.18742 0.89014 0.78922 0.0
H274 H 0.15813 0.85398 0.69772 0.0
H275 H 0.08576 0.85437 0.71369 0.0
H276 H 0.22839 0.86822 0.70465 0.0
H277 H 0.24794 0.87475 0.78122 0.0
H278 H 0.31992 0.86563 0.79329 0.0
H279 H 0.39216 0.86693 0.77715 0.0
C280 C 0.6386 0.58322 0.71021 0.0
C281 C 0.60717 0.58778 0.73372 0.0
C282 C 0.6795 0.58471 0.72012 0.0
C283 C 0.68993 0.59104 0.75373 0.0
C284 C 0.65858 0.59452 0.77776 0.0
C285 C 0.61751 0.59297 0.76785 0.0
C286 C 0.73315 0.59416 0.76432 0.0
C287 C 0.76254 0.60015 0.74187 0.0
C288 C 0.806 0.60368 0.75151 0.0
C289 C 0.831 0.61572 0.7293 0.0
C290 C 0.87237 0.61897 0.73684 0.0
C291 C 0.88964 0.61014 0.76674 0.0
H292 H 0.80564 0.58478 0.79862 0.0
C293 C 0.86465 0.59803 0.78894 0.0
C294 C 0.82336 0.59473 0.78135 0.0
H295 H 0.87708 0.59081 0.81204 0.0
H296 H 0.63168 0.57878 0.68387 0.0
H297 H 0.70278 0.58095 0.70131 0.0
H298 H 0.66586 0.59908 0.80397 0.0
H299 H 0.59398 0.59646 0.78662 0.0
H300 H 0.7401 0.59278 0.79157 0.0
H301 H 0.75425 0.60352 0.71532 0.0
H302 H 0.8185 0.62265 0.70599 0.0
H303 H 0.89078 0.62834 0.71916 0.0
C304 C 0.64743 0.90169 0.65875 0.0
C305 C 0.61267 0.90634 0.67857 0.0
C306 C 0.68655 0.90582 0.6716 0.0
C307 C 0.69181 0.9146 0.70454 0.0
C308 C 0.65692 0.92046 0.72353 0.0
C309 C 0.61774 0.91624 0.71071 0.0
C310 C 0.73401 0.91633 0.71857 0.0
C311 C 0.74238 0.91645 0.75258 0.0
C312 C 0.78429 0.91388 0.76689 0.0
C313 C 0.78833 0.90647 0.80088 0.0
C314 C 0.82683 0.90195 0.81456 0.0
C315 C 0.8622 0.90478 0.7945 0.0
H316 H 0.81849 0.92424 0.72161 0.0
C317 C 0.85846 0.91308 0.76103 0.0
C318 C 0.81994 0.91774 0.7474 0.0
H319 H 0.88529 0.91579 0.74519 0.0
H320 H 0.64452 0.89425 0.63371 0.0
H321 H 0.71283 0.9014 0.65622 0.0
H322 H 0.65955 0.92807 0.7484 0.0
H323 H 0.59146 0.92035 0.7263 0.0
H324 H 0.75881 0.91497 0.70015 0.0
H325 H 0.71737 0.91609 0.77095 0.0
H326 H 0.76149 0.90355 0.81663 0.0
H327 H 0.82875 0.89575 0.84058 0.0
C328 C 0.34627 0.58459 0.65957 0.0
C329 C 0.37724 0.57128 0.67233 0.0
C330 C 0.30684 0.58337 0.67312 0.0
C331 C 0.29758 0.56856 0.69913 0.0
C332 C 0.32766 0.55426 0.71024 0.0
C333 C 0.36747 0.5558 0.69727 0.0
C334 C 0.25749 0.56899 0.71646 0.0
C335 C 0.24296 0.58736 0.72908 0.0
C336 C 0.20405 0.58868 0.74812 0.0
C337 C 0.2013 0.60253 0.7763 0.0
C338 C 0.16441 0.60474 0.79399 0.0
C339 C 0.12939 0.59363 0.78302 0.0
H340 H 0.17046 0.56671 0.71546 0.0
C341 C 0.13206 0.57984 0.75468 0.0
C342 C 0.16925 0.57721 0.73754 0.0
H343 H 0.1054 0.57112 0.74575 0.0
H344 H 0.3529 0.59663 0.64029 0.0
H345 H 0.28379 0.59436 0.66389 0.0
H346 H 0.32091 0.54267 0.7302 0.0
H347 H 0.3908 0.54527 0.70732 0.0
H348 H 0.24168 0.55402 0.7215 0.0
H349 H 0.26146 0.60178 0.72712 0.0
H350 H 0.22779 0.61161 0.78467 0.0
H351 H 0.16303 0.61559 0.81563 0.0
C352 C 0.64412 0.05782 0.27425 0.0
C353 C 0.64057 0.06686 0.30718 0.0
C354 C 0.68269 0.0542 0.25988 0.0
C355 C 0.71846 0.05974 0.27812 0.0
C356 C 0.71478 0.06762 0.31177 0.0
C357 C 0.67628 0.07122 0.32613 0.0
C358 C 0.75997 0.05854 0.26261 0.0
C359 C 0.7667 0.05988 0.22842 0.0
C360 C 0.808 0.06296 0.21309 0.0
C361 C 0.81084 0.07262 0.18053 0.0
C362 C 0.84893 0.07758 0.16627 0.0
C363 C 0.88511 0.07286 0.18422 0.0
H364 H 0.84356 0.04913 0.25493 0.0
C365 C 0.88247 0.0623 0.21611 0.0
C366 C 0.8443 0.0573 0.23037 0.0
H367 H 0.90987 0.05817 0.23031 0.0
H368 H 0.61713 0.05398 0.25923 0.0
H369 H 0.68418 0.0473 0.2344 0.0
H370 H 0.74178 0.07179 0.32658 0.0
H371 H 0.67457 0.07798 0.35174 0.0
H372 H 0.78572 0.05909 0.28027 0.0
H373 H 0.74082 0.06117 0.211 0.0
H374 H 0.78345 0.07697 0.16646 0.0
H375 H 0.84993 0.08553 0.14148 0.0
C376 C 0.13567 0.41646 0.21096 0.0
C377 C 0.13053 0.40552 0.17971 0.0
C378 C 0.17461 0.41909 0.22522 0.0
C379 C 0.20918 0.41064 0.20861 0.0
C380 C 0.20416 0.40058 0.17662 0.0
C381 C 0.16522 0.39796 0.16234 0.0
C382 C 0.25068 0.41148 0.22413 0.0
C383 C 0.2571 0.41236 0.25839 0.0
C384 C 0.29817 0.40996 0.27426 0.0
C385 C 0.30078 0.40185 0.30791 0.0
C386 C 0.33881 0.39787 0.32295 0.0
C387 C 0.37506 0.40208 0.30467 0.0
H388 H 0.3338 0.42206 0.23103 0.0
C389 C 0.37255 0.41106 0.27155 0.0
C390 C 0.33449 0.41505 0.25651 0.0
H391 H 0.39999 0.41476 0.25702 0.0
H392 H 0.10954 0.42275 0.22468 0.0
H393 H 0.17736 0.42767 0.24926 0.0
H394 H 0.23031 0.39414 0.16309 0.0
H395 H 0.16228 0.38963 0.13805 0.0
H396 H 0.2764 0.40911 0.20689 0.0
H397 H 0.2311 0.41268 0.27578 0.0
H398 H 0.27329 0.39801 0.3223 0.0
H399 H 0.33976 0.39111 0.34865 0.0
C400 C 0.02012 0.0513 0.02919 0.0
C401 C 0.03624 0.0497 0.06262 0.0
C402 C 0.02527 0.03467 0.00568 0.0
C403 C 0.04708 0.01623 0.01515 0.0
C404 C 0.06474 0.01519 0.04805 0.0
C405 C 0.05944 0.03172 0.07151 0.0
C406 C 0.0485 -0.00311 -0.00678 0.0
C407 C 0.03957 -0.0033 0.95939 0.0
C408 C 0.03511 0.9767 0.93941 0.0
C409 C 0.04024 0.97735 0.90356 0.0
C410 C 0.03281 0.95924 0.88364 0.0
C411 C 0.0196 0.94015 0.89918 0.0
H412 H 0.01705 0.95643 0.98247 0.0
C413 C 0.01511 0.93935 0.93511 0.0
C414 C 0.02265 0.95744 0.95504 0.0
H415 H 0.00469 0.92492 0.94779 0.0
H416 H 0.00194 0.06494 0.0217 0.0
H417 H 0.01037 0.03602 0.9809 0.0
H418 H 0.08161 0.00121 0.05609 0.0
H419 H 0.07247 0.03007 0.09705 0.0
H420 H 0.05663 0.98205 0.00588 0.0
H421 H 0.03523 0.01159 0.94561 0.0
H422 H 0.04943 -0.008 0.89086 0.0
H423 H 0.03644 0.96038 0.85596 0.0
C424 C -0.00675 0.54797 0.93325 0.0
C425 C -0.00705 0.54689 0.89715 0.0
C426 C -0.01084 0.52943 0.95298 0.0
C427 C 0.98475 0.50945 0.93692 0.0
C428 C 0.98461 0.50841 0.90086 0.0
C429 C -0.01172 0.52694 0.88114 0.0
C430 C 0.98299 0.48938 0.95708 0.0
C431 C 0.96602 0.48835 0.98862 0.0
C432 C 0.96808 0.46952 0.01191 0.0
C433 C 0.95555 0.47223 0.04618 0.0
C434 C 0.96057 0.45598 0.07028 0.0
C435 C 0.97811 0.4365 0.0607 0.0
H436 H -0.00694 0.44644 0.97566 0.0
C437 C -0.01123 0.43323 0.0261 0.0
C438 C 0.98381 0.44957 0.00186 0.0
H439 H 0.00205 0.4183 0.01793 0.0
H440 H -0.00291 0.56309 0.94628 0.0
H441 H -0.00926 0.53077 0.98075 0.0
H442 H 0.98173 0.49319 0.88791 0.0
H443 H -0.0118 0.52558 0.85333 0.0
H444 H -0.00359 0.47542 0.94537 0.0
H445 H 0.95128 0.50249 -0.00123 0.0
H446 H 0.943 0.48728 0.0547 0.0
H447 H 0.95163 0.45894 0.09671 0.0
C448 C 0.55459 0.44673 0.41525 0.0
C449 C 0.53208 0.42862 0.42532 0.0
C450 C 0.56463 0.46247 0.43915 0.0
C451 C 0.5519 0.46053 0.47361 0.0
C452 C 0.53116 0.44192 0.484 0.0
C453 C 0.52124 0.42611 0.46007 0.0
C454 C 0.55844 0.47776 0.49915 0.0
C455 C 0.56231 0.49848 0.49035 0.0
C456 C 0.56127 0.51584 0.51616 0.0
C457 C 0.54477 0.53563 0.50667 0.0
C458 C 0.538 0.55133 0.53146 0.0
C459 C 0.54786 0.54749 0.56613 0.0
H460 H 0.58865 0.49803 0.55831 0.0
C461 C 0.56729 0.52834 0.57511 0.0
C462 C 0.57415 0.51271 0.55036 0.0
H463 H 0.57599 0.5251 0.60154 0.0
H464 H 0.56406 0.44893 0.38873 0.0
H465 H 0.58208 0.47613 0.43038 0.0
H466 H 0.52142 0.43991 0.5105 0.0
H467 H 0.50416 0.41224 0.46863 0.0
H468 H 0.55549 0.4734 0.52613 0.0
H469 H 0.56125 0.50313 0.46341 0.0
H470 H 0.53518 0.53856 0.48036 0.0
H471 H 0.52328 0.56602 0.52375 0.0
C472 C 0.43417 0.94731 0.57512 0.0
C473 C 0.45179 0.92783 0.56547 0.0
C474 C 0.42855 0.96347 0.55086 0.0
C475 C 0.44075 0.96051 0.51648 0.0
C476 C 0.45564 0.94053 0.50639 0.0
C477 C 0.46129 0.92434 0.53067 0.0
C478 C 0.4404 0.97811 0.49093 0.0
C479 C 0.44546 -0.00128 0.49983 0.0
C480 C 0.45299 0.01587 0.47419 0.0
C481 C 0.47602 0.03382 0.48408 0.0
C482 C 0.48747 0.04919 0.45976 0.0
C483 C 0.47591 0.0469 0.42513 0.0
H484 H 0.42009 0.00121 0.4316 0.0
C485 C 0.45087 0.0296 0.41565 0.0
C486 C 0.4393 0.01431 0.43994 0.0
H487 H 0.44078 0.02762 0.38925 0.0
H488 H 0.42588 0.95035 0.60167 0.0
H489 H 0.41539 0.97836 0.5593 0.0
H490 H 0.46472 0.93774 0.47994 0.0
H491 H 0.47461 0.90943 0.52241 0.0
H492 H 0.44097 0.97363 0.46394 0.0
H493 H 0.44892 0.00291 0.52681 0.0
H494 H 0.48651 0.03554 0.51041 0.0
H495 H 0.50649 0.06246 0.46786 0.0
loop_
_geom_bond_atom_site_label_1
_geom_bond_atom_site_label_2
_geom_bond_distance
_geom_bond_site_symmetry_2
_ccdc_geom_bond_type
C0 O1 1.306 . S
C0 O3 1.160 . S
O1 C0 1.306 . S
O1 Cd2 2.228 . S
Cd2 O1 2.228 . S
Cd2 O6 2.273 1_455 S
Cd2 O10 2.277 . S
O3 C0 1.160 . S
O3 Cd4 2.203 . S
Cd4 O3 2.203 . S
Cd4 O6 2.411 1_455 S
Cd4 O7 2.333 1_455 S
Cd4 O8 2.352 . S
Cd4 O12 2.277 . S
Cd4 O13 2.356 . S
C5 O10 1.209 . S
C5 O12 1.226 . S
O6 Cd2 2.273 1_655 S
O6 Cd4 2.411 1_655 S
O6 C9 1.320 . S
O7 Cd4 2.333 1_655 S
O7 C9 1.214 . S
O8 Cd4 2.352 . S
O8 C11 1.258 . S
C9 O6 1.320 . S
C9 O7 1.214 . S
O10 Cd2 2.277 . S
O10 C5 1.209 . S
C11 O8 1.258 . S
C11 O13 1.282 . S
O12 Cd4 2.277 . S
O12 C5 1.226 . S
O13 Cd4 2.356 . S
O13 C11 1.282 . S
C14 O15 1.306 . S
C14 O17 1.160 . S
O15 C14 1.306 . S
O15 Cd16 2.228 1_655 S
Cd16 O15 2.228 1_455 S
Cd16 O20 2.273 . S
Cd16 O24 2.277 . S
O17 C14 1.160 . S
O17 Cd18 2.203 1_655 S
Cd18 O17 2.203 1_455 S
Cd18 O20 2.411 . S
Cd18 O21 2.333 . S
Cd18 O22 2.352 . S
Cd18 O26 2.277 . S
Cd18 O27 2.356 . S
C19 O24 1.209 . S
C19 O26 1.226 . S
O20 Cd16 2.273 . S
O20 Cd18 2.411 . S
O20 C23 1.320 . S
O21 Cd18 2.333 . S
O21 C23 1.214 . S
O22 Cd18 2.352 . S
O22 C25 1.258 . S
C23 O20 1.320 . S
C23 O21 1.214 . S
O24 Cd16 2.277 . S
O24 C19 1.209 . S
C25 O22 1.258 . S
C25 O27 1.282 . S
O26 Cd18 2.277 . S
O26 C19 1.226 . S
O27 Cd18 2.356 . S
O27 C25 1.282 . S
C28 O29 1.306 . S
C28 O31 1.160 . S
O29 C28 1.306 . S
O29 Cd30 2.228 . S
Cd30 O29 2.228 . S
Cd30 O34 2.273 1_455 S
Cd30 O38 2.277 . S
O31 C28 1.160 . S
O31 Cd32 2.203 . S
Cd32 O31 2.203 . S
Cd32 O34 2.411 1_455 S
Cd32 O35 2.333 1_455 S
Cd32 O36 2.352 . S
Cd32 O40 2.277 . S
Cd32 O41 2.356 . S
C33 O38 1.209 . S
C33 O40 1.226 . S
O34 Cd30 2.273 1_655 S
O34 Cd32 2.411 1_655 S
O34 C37 1.320 . S
O35 Cd32 2.333 1_655 S
O35 C37 1.214 . S
O36 Cd32 2.352 . S
O36 C39 1.258 . S
C37 O34 1.320 . S
C37 O35 1.214 . S
O38 Cd30 2.277 . S
O38 C33 1.209 . S
C39 O36 1.258 . S
C39 O41 1.282 . S
O40 Cd32 2.277 . S
O40 C33 1.226 . S
O41 Cd32 2.356 . S
O41 C39 1.282 . S
C42 O43 1.306 . S
C42 O45 1.160 . S
O43 C42 1.306 . S
O43 Cd44 2.228 1_655 S
Cd44 O43 2.228 1_455 S
Cd44 O48 2.273 . S
Cd44 O52 2.277 . S
O45 C42 1.160 . S
O45 Cd46 2.203 1_655 S
Cd46 O45 2.203 1_455 S
Cd46 O48 2.411 . S
Cd46 O49 2.333 . S
Cd46 O50 2.352 . S
Cd46 O54 2.277 . S
Cd46 O55 2.356 . S
C47 O52 1.209 . S
C47 O54 1.226 . S
O48 Cd44 2.273 . S
O48 Cd46 2.411 . S
O48 C51 1.320 . S
O49 Cd46 2.333 . S
O49 C51 1.214 . S
O50 Cd46 2.352 . S
O50 C53 1.258 . S
C51 O48 1.320 . S
C51 O49 1.214 . S
O52 Cd44 2.277 . S
O52 C47 1.209 . S
C53 O50 1.258 . S
C53 O55 1.282 . S
O54 Cd46 2.277 . S
O54 C47 1.226 . S
O55 Cd46 2.356 . S
O55 C53 1.282 . S
C56 O57 1.306 . S
C56 O59 1.160 . S
O57 C56 1.306 . S
O57 Cd58 2.228 . S
Cd58 O57 2.228 . S
Cd58 O62 2.273 . S
Cd58 O66 2.277 . S
O59 C56 1.160 . S
O59 Cd60 2.203 . S
Cd60 O59 2.203 . S
Cd60 O62 2.411 . S
Cd60 O63 2.333 . S
Cd60 O64 2.352 . S
Cd60 O68 2.277 . S
Cd60 O69 2.356 . S
C61 O66 1.209 . S
C61 O68 1.226 . S
O62 Cd58 2.273 . S
O62 Cd60 2.411 . S
O62 C65 1.320 . S
O63 Cd60 2.333 . S
O63 C65 1.214 . S
O64 Cd60 2.352 . S
O64 C67 1.258 . S
C65 O62 1.320 . S
C65 O63 1.214 . S
O66 Cd58 2.277 . S
O66 C61 1.209 . S
C67 O64 1.258 . S
C67 O69 1.282 . S
O68 Cd60 2.277 . S
O68 C61 1.226 . S
O69 Cd60 2.356 . S
O69 C67 1.282 . S
C70 O71 1.306 . S
C70 O73 1.160 . S
O71 C70 1.306 . S
O71 Cd72 2.228 . S
Cd72 O71 2.228 . S
Cd72 O76 2.273 . S
Cd72 O80 2.277 . S
O73 C70 1.160 . S
O73 Cd74 2.203 . S
Cd74 O73 2.203 . S
Cd74 O76 2.411 . S
Cd74 O77 2.333 . S
Cd74 O78 2.352 . S
Cd74 O82 2.277 . S
Cd74 O83 2.356 . S
C75 O80 1.209 . S
C75 O82 1.226 . S
O76 Cd72 2.273 . S
O76 Cd74 2.411 . S
O76 C79 1.320 . S
O77 Cd74 2.333 . S
O77 C79 1.214 . S
O78 Cd74 2.352 . S
O78 C81 1.258 . S
C79 O76 1.320 . S
C79 O77 1.214 . S
O80 Cd72 2.277 . S
O80 C75 1.209 . S
C81 O78 1.258 . S
C81 O83 1.282 . S
O82 Cd74 2.277 . S
O82 C75 1.226 . S
O83 Cd74 2.356 . S
O83 C81 1.282 . S
C84 O85 1.306 . S
C84 O87 1.160 . S
O85 C84 1.306 . S
O85 Cd86 2.228 . S
Cd86 O85 2.228 . S
Cd86 O90 2.273 . S
Cd86 O94 2.277 . S
O87 C84 1.160 . S
O87 Cd88 2.203 . S
Cd88 O87 2.203 . S
Cd88 O90 2.411 . S
Cd88 O91 2.333 . S
Cd88 O92 2.352 . S
Cd88 O96 2.277 . S
Cd88 O97 2.356 . S
C89 O94 1.209 . S
C89 O96 1.226 . S
O90 Cd86 2.273 . S
O90 Cd88 2.411 . S
O90 C93 1.320 . S
O91 Cd88 2.333 . S
O91 C93 1.214 . S
O92 Cd88 2.352 . S
O92 C95 1.258 . S
C93 O90 1.320 . S
C93 O91 1.214 . S
O94 Cd86 2.277 . S
O94 C89 1.209 . S
C95 O92 1.258 . S
C95 O97 1.282 . S
O96 Cd88 2.277 . S
O96 C89 1.226 . S
O97 Cd88 2.356 . S
O97 C95 1.282 . S
C98 O99 1.306 . S
C98 O101 1.160 . S
O99 C98 1.306 . S
O99 Cd100 2.228 . S
Cd100 O99 2.228 . S
Cd100 O104 2.273 . S
Cd100 O108 2.277 . S
O101 C98 1.160 . S
O101 Cd102 2.203 . S
Cd102 O101 2.203 . S
Cd102 O104 2.411 . S
Cd102 O105 2.333 . S
Cd102 O106 2.352 . S
Cd102 O110 2.277 . S
Cd102 O111 2.356 . S
C103 O108 1.209 . S
C103 O110 1.226 . S
O104 Cd100 2.273 . S
O104 Cd102 2.411 . S
O104 C107 1.320 . S
O105 Cd102 2.333 . S
O105 C107 1.214 . S
O106 Cd102 2.352 . S
O106 C109 1.258 . S
C107 O104 1.320 . S
C107 O105 1.214 . S
O108 Cd100 2.277 . S
O108 C103 1.209 . S
C109 O106 1.258 . S
C109 O111 1.282 . S
O110 Cd102 2.277 . S
O110 C103 1.226 . S
O111 Cd102 2.356 . S
O111 C109 1.282 . S
C112 C113 1.386 . S
C112 C114 1.383 . S
C112 H128 0.951 . S
C113 C112 1.386 . S
C113 C117 1.383 1_455 S
C114 C112 1.383 . S
C114 C115 1.402 . S
C114 H129 0.951 . S
C115 C114 1.402 . S
C115 C116 1.375 1_455 S
C115 C118 1.481 . S
C116 C115 1.375 1_655 S
C116 C117 1.367 . S
C116 H130 0.951 . S
C117 C113 1.383 1_655 S
C117 C116 1.367 . S
C117 H131 0.950 . S
C118 C115 1.481 . S
C118 C119 1.297 . S
C118 H132 0.950 1_455 S
C119 C118 1.297 . S
C119 C120 1.479 . S
C119 H133 0.950 . S
C120 C119 1.479 . S
C120 C121 1.375 . S
C120 C126 1.404 . S
C121 C120 1.375 . S
C121 C122 1.369 . S
C121 H134 0.950 . S
C122 C121 1.369 . S
C122 C123 1.392 . S
C122 H135 0.951 . S
C123 C122 1.392 . S
C123 C125 1.384 . S
H124 C126 0.949 1_655 S
C125 C123 1.384 . S
C125 C126 1.385 . S
C125 H127 0.950 1_455 S
C126 C120 1.404 . S
C126 H124 0.949 1_455 S
C126 C125 1.385 . S
H127 C125 0.950 1_655 S
H128 C112 0.951 . S
H129 C114 0.951 . S
H130 C116 0.951 . S
H131 C117 0.950 . S
H132 C118 0.950 1_655 S
H133 C119 0.950 . S
H134 C121 0.950 . S
H135 C122 0.951 . S
C136 C137 1.386 . S
C136 C138 1.383 . S
C136 H152 0.951 . S
C137 C136 1.386 . S
C137 C141 1.383 1_455 S
C138 C136 1.383 . S
C138 C139 1.402 1_455 S
C138 H153 0.951 . S
C139 C138 1.402 1_655 S
C139 C140 1.375 . S
C139 C142 1.481 . S
C140 C139 1.375 . S
C140 C141 1.367 . S
C140 H154 0.951 . S
C141 C137 1.383 1_655 S
C141 C140 1.367 . S
C141 H155 0.950 . S
C142 C139 1.481 . S
C142 C143 1.297 1_655 S
C142 H156 0.950 . S
C143 C142 1.297 1_455 S
C143 C144 1.479 . S
C143 H157 0.950 . S
C144 C143 1.479 . S
C144 C145 1.375 . S
C144 C150 1.404 1_455 S
C145 C144 1.375 . S
C145 C146 1.369 . S
C145 H158 0.950 . S
C146 C145 1.369 . S
C146 C147 1.392 . S
C146 H159 0.951 . S
C147 C146 1.392 . S
C147 C149 1.384 1_455 S
H148 C150 0.949 . S
C149 C147 1.384 1_655 S
C149 C150 1.385 . S
C149 H151 0.950 . S
C150 C144 1.404 1_655 S
C150 H148 0.949 . S
C150 C149 1.385 . S
H151 C149 0.950 . S
H152 C136 0.951 . S
H153 C138 0.951 . S
H154 C140 0.951 . S
H155 C141 0.950 . S
H156 C142 0.950 . S
H157 C143 0.950 . S
H158 C145 0.950 . S
H159 C146 0.951 . S
C160 C161 1.386 . S
C160 C162 1.383 . S
C160 H176 0.951 . S
C161 C160 1.386 . S
C161 C165 1.383 . S
C162 C160 1.383 . S
C162 C163 1.402 . S
C162 H177 0.951 . S
C163 C162 1.402 . S
C163 C164 1.375 . S
C163 C166 1.481 . S
C164 C163 1.375 . S
C164 C165 1.367 . S
C164 H178 0.951 . S
C165 C161 1.383 . S
C165 C164 1.367 . S
C165 H179 0.950 . S
C166 C163 1.481 . S
C166 C167 1.297 . S
C166 H180 0.950 . S
C167 C166 1.297 . S
C167 C168 1.479 . S
C167 H181 0.950 . S
C168 C167 1.479 . S
C168 C169 1.375 . S
C168 C174 1.404 . S
C169 C168 1.375 . S
C169 C170 1.369 . S
C169 H182 0.950 . S
C170 C169 1.369 . S
C170 C171 1.392 . S
C170 H183 0.951 . S
C171 C170 1.392 . S
C171 C173 1.384 . S
H172 C174 0.949 . S
C173 C171 1.384 . S
C173 C174 1.385 . S
C173 H175 0.950 . S
C174 C168 1.404 . S
C174 H172 0.949 . S
C174 C173 1.385 . S
H175 C173 0.950 . S
H176 C160 0.951 . S
H177 C162 0.951 . S
H178 C164 0.951 . S
H179 C165 0.950 . S
H180 C166 0.950 . S
H181 C167 0.950 . S
H182 C169 0.950 . S
H183 C170 0.951 . S
C184 C185 1.386 . S
C184 C186 1.383 . S
C184 H200 0.951 . S
C185 C184 1.386 . S
C185 C189 1.383 . S
C186 C184 1.383 . S
C186 C187 1.402 . S
C186 H201 0.951 . S
C187 C186 1.402 . S
C187 C188 1.375 . S
C187 C190 1.481 . S
C188 C187 1.375 . S
C188 C189 1.367 . S
C188 H202 0.951 . S
C189 C185 1.383 . S
C189 C188 1.367 . S
C189 H203 0.950 . S
C190 C187 1.481 . S
C190 C191 1.297 . S
C190 H204 0.950 . S
C191 C190 1.297 . S
C191 C192 1.479 . S
C191 H205 0.950 . S
C192 C191 1.479 . S
C192 C193 1.375 . S
C192 C198 1.404 . S
C193 C192 1.375 . S
C193 C194 1.369 . S
C193 H206 0.950 . S
C194 C193 1.369 . S
C194 C195 1.392 . S
C194 H207 0.951 . S
C195 C194 1.392 . S
C195 C197 1.384 . S
H196 C198 0.949 . S
C197 C195 1.384 . S
C197 C198 1.385 . S
C197 H199 0.950 . S
C198 C192 1.404 . S
C198 H196 0.949 . S
C198 C197 1.385 . S
H199 C197 0.950 . S
H200 C184 0.951 . S
H201 C186 0.951 . S
H202 C188 0.951 . S
H203 C189 0.950 . S
H204 C190 0.950 . S
H205 C191 0.950 . S
H206 C193 0.950 . S
H207 C194 0.951 . S
C208 C209 1.386 . S
C208 C210 1.383 . S
C208 H224 0.951 . S
C209 C208 1.386 . S
C209 C213 1.383 . S
C210 C208 1.383 . S
C210 C211 1.402 . S
C210 H225 0.951 . S
C211 C210 1.402 . S
C211 C212 1.375 . S
C211 C214 1.481 . S
C212 C211 1.375 . S
C212 C213 1.367 . S
C212 H226 0.951 . S
C213 C209 1.383 . S
C213 C212 1.367 . S
C213 H227 0.950 . S
C214 C211 1.481 . S
C214 C215 1.297 . S
C214 H228 0.950 . S
C215 C214 1.297 . S
C215 C216 1.479 . S
C215 H229 0.950 . S
C216 C215 1.479 . S
C216 C217 1.375 . S
C216 C222 1.404 . S
C217 C216 1.375 . S
C217 C218 1.369 . S
C217 H230 0.950 . S
C218 C217 1.369 . S
C218 C219 1.392 . S
C218 H231 0.951 . S
C219 C218 1.392 . S
C219 C221 1.384 . S
H220 C222 0.949 . S
C221 C219 1.384 . S
C221 C222 1.385 . S
C221 H223 0.950 . S
C222 C216 1.404 . S
C222 H220 0.949 . S
C222 C221 1.385 . S
H223 C221 0.950 . S
H224 C208 0.951 . S
H225 C210 0.951 . S
H226 C212 0.951 . S
H227 C213 0.950 . S
H228 C214 0.950 . S
H229 C215 0.950 . S
H230 C217 0.950 . S
H231 C218 0.951 . S
C232 C233 1.386 . S
C232 C234 1.383 . S
C232 H248 0.951 . S
C233 C232 1.386 . S
C233 C237 1.383 . S
C234 C232 1.383 . S
C234 C235 1.402 . S
C234 H249 0.951 . S
C235 C234 1.402 . S
C235 C236 1.375 . S
C235 C238 1.481 . S
C236 C235 1.375 . S
C236 C237 1.367 . S
C236 H250 0.951 . S
C237 C233 1.383 . S
C237 C236 1.367 . S
C237 H251 0.950 . S
C238 C235 1.481 . S
C238 C239 1.297 . S
C238 H252 0.950 . S
C239 C238 1.297 . S
C239 C240 1.479 . S
C239 H253 0.950 . S
C240 C239 1.479 . S
C240 C241 1.375 . S
C240 C246 1.404 . S
C241 C240 1.375 . S
C241 C242 1.369 . S
C241 H254 0.950 . S
C242 C241 1.369 . S
C242 C243 1.392 . S
C242 H255 0.951 . S
C243 C242 1.392 . S
C243 C245 1.384 . S
H244 C246 0.949 . S
C245 C243 1.384 . S
C245 C246 1.385 . S
C245 H247 0.950 . S
C246 C240 1.404 . S
C246 H244 0.949 . S
C246 C245 1.385 . S
H247 C245 0.950 . S
H248 C232 0.951 . S
H249 C234 0.951 . S
H250 C236 0.951 . S
H251 C237 0.950 . S
H252 C238 0.950 . S
H253 C239 0.950 . S
H254 C241 0.950 . S
H255 C242 0.951 . S
C256 C257 1.386 . S
C256 C258 1.383 . S
C256 H272 0.951 . S
C257 C256 1.386 . S
C257 C261 1.383 . S
C258 C256 1.383 . S
C258 C259 1.402 . S
C258 H273 0.951 . S
C259 C258 1.402 . S
C259 C260 1.375 . S
C259 C262 1.481 . S
C260 C259 1.375 . S
C260 C261 1.367 . S
C260 H274 0.951 . S
C261 C257 1.383 . S
C261 C260 1.367 . S
C261 H275 0.950 . S
C262 C259 1.481 . S
C262 C263 1.297 . S
C262 H276 0.950 . S
C263 C262 1.297 . S
C263 C264 1.479 . S
C263 H277 0.950 . S
C264 C263 1.479 . S
C264 C265 1.375 . S
C264 C270 1.404 . S
C265 C264 1.375 . S
C265 C266 1.369 . S
C265 H278 0.950 . S
C266 C265 1.369 . S
C266 C267 1.392 . S
C266 H279 0.951 . S
C267 C266 1.392 . S
C267 C269 1.384 . S
H268 C270 0.949 . S
C269 C267 1.384 . S
C269 C270 1.385 . S
C269 H271 0.950 . S
C270 C264 1.404 . S
C270 H268 0.949 . S
C270 C269 1.385 . S
H271 C269 0.950 . S
H272 C256 0.951 . S
H273 C258 0.951 . S
H274 C260 0.951 . S
H275 C261 0.950 . S
H276 C262 0.950 . S
H277 C263 0.950 . S
H278 C265 0.950 . S
H279 C266 0.951 . S
C280 C281 1.386 . S
C280 C282 1.383 . S
C280 H296 0.951 . S
C281 C280 1.386 . S
C281 C285 1.383 . S
C282 C280 1.383 . S
C282 C283 1.402 . S
C282 H297 0.951 . S
C283 C282 1.402 . S
C283 C284 1.375 . S
C283 C286 1.481 . S
C284 C283 1.375 . S
C284 C285 1.367 . S
C284 H298 0.951 . S
C285 C281 1.383 . S
C285 C284 1.367 . S
C285 H299 0.950 . S
C286 C283 1.481 . S
C286 C287 1.297 . S
C286 H300 0.950 . S
C287 C286 1.297 . S
C287 C288 1.479 . S
C287 H301 0.950 . S
C288 C287 1.479 . S
C288 C289 1.375 . S
C288 C294 1.404 . S
C289 C288 1.375 . S
C289 C290 1.369 . S
C289 H302 0.950 . S
C290 C289 1.369 . S
C290 C291 1.392 . S
C290 H303 0.951 . S
C291 C290 1.392 . S
C291 C293 1.384 . S
H292 C294 0.949 . S
C293 C291 1.384 . S
C293 C294 1.385 . S
C293 H295 0.950 . S
C294 C288 1.404 . S
C294 H292 0.949 . S
C294 C293 1.385 . S
H295 C293 0.950 . S
H296 C280 0.951 . S
H297 C282 0.951 . S
H298 C284 0.951 . S
H299 C285 0.950 . S
H300 C286 0.950 . S
H301 C287 0.950 . S
H302 C289 0.950 . S
H303 C290 0.951 . S
C304 C305 1.386 . S
C304 C306 1.383 . S
C304 H320 0.951 . S
C305 C304 1.386 . S
C305 C309 1.383 . S
C306 C304 1.383 . S
C306 C307 1.402 . S
C306 H321 0.951 . S
C307 C306 1.402 . S
C307 C308 1.375 . S
C307 C310 1.481 . S
C308 C307 1.375 . S
C308 C309 1.367 . S
C308 H322 0.951 . S
C309 C305 1.383 . S
C309 C308 1.367 . S
C309 H323 0.950 . S
C310 C307 1.481 . S
C310 C311 1.297 . S
C310 H324 0.950 . S
C311 C310 1.297 . S
C311 C312 1.479 . S
C311 H325 0.950 . S
C312 C311 1.479 . S
C312 C313 1.375 . S
C312 C318 1.404 . S
C313 C312 1.375 . S
C313 C314 1.369 . S
C313 H326 0.950 . S
C314 C313 1.369 . S
C314 C315 1.392 . S
C314 H327 0.951 . S
C315 C314 1.392 . S
C315 C317 1.384 . S
H316 C318 0.949 . S
C317 C315 1.384 . S
C317 C318 1.385 . S
C317 H319 0.950 . S
C318 C312 1.404 . S
C318 H316 0.949 . S
C318 C317 1.385 . S
H319 C317 0.950 . S
H320 C304 0.951 . S
H321 C306 0.951 . S
H322 C308 0.951 . S
H323 C309 0.950 . S
H324 C310 0.950 . S
H325 C311 0.950 . S
H326 C313 0.950 . S
H327 C314 0.951 . S
C328 C329 1.386 . S
C328 C330 1.383 . S
C328 H344 0.951 . S
C329 C328 1.386 . S
C329 C333 1.383 . S
C330 C328 1.383 . S
C330 C331 1.402 . S
C330 H345 0.951 . S
C331 C330 1.402 . S
C331 C332 1.375 . S
C331 C334 1.481 . S
C332 C331 1.375 . S
C332 C333 1.367 . S
C332 H346 0.951 . S
C333 C329 1.383 . S
C333 C332 1.367 . S
C333 H347 0.950 . S
C334 C331 1.481 . S
C334 C335 1.297 . S
C334 H348 0.950 . S
C335 C334 1.297 . S
C335 C336 1.479 . S
C335 H349 0.950 . S
C336 C335 1.479 . S
C336 C337 1.375 . S
C336 C342 1.404 . S
C337 C336 1.375 . S
C337 C338 1.369 . S
C337 H350 0.950 . S
C338 C337 1.369 . S
C338 C339 1.392 . S
C338 H351 0.951 . S
C339 C338 1.392 . S
C339 C341 1.384 . S
H340 C342 0.949 . S
C341 C339 1.384 . S
C341 C342 1.385 . S
C341 H343 0.950 . S
C342 C336 1.404 . S
C342 H340 0.949 . S
C342 C341 1.385 . S
H343 C341 0.950 . S
H344 C328 0.951 . S
H345 C330 0.951 . S
H346 C332 0.951 . S
H347 C333 0.950 . S
H348 C334 0.950 . S
H349 C335 0.950 . S
H350 C337 0.950 . S
H351 C338 0.951 . S
C352 C353 1.386 . S
C352 C354 1.383 . S
C352 H368 0.951 . S
C353 C352 1.386 . S
C353 C357 1.383 . S
C354 C352 1.383 . S
C354 C355 1.402 . S
C354 H369 0.951 . S
C355 C354 1.402 . S
C355 C356 1.375 . S
C355 C358 1.481 . S
C356 C355 1.375 . S
C356 C357 1.367 . S
C356 H370 0.951 . S
C357 C353 1.383 . S
C357 C356 1.367 . S
C357 H371 0.950 . S
C358 C355 1.481 . S
C358 C359 1.297 . S
C358 H372 0.950 . S
C359 C358 1.297 . S
C359 C360 1.479 . S
C359 H373 0.950 . S
C360 C359 1.479 . S
C360 C361 1.375 . S
C360 C366 1.404 . S
C361 C360 1.375 . S
C361 C362 1.369 . S
C361 H374 0.950 . S
C362 C361 1.369 . S
C362 C363 1.392 . S
C362 H375 0.951 . S
C363 C362 1.392 . S
C363 C365 1.384 . S
H364 C366 0.949 . S
C365 C363 1.384 . S
C365 C366 1.385 . S
C365 H367 0.950 . S
C366 C360 1.404 . S
C366 H364 0.949 . S
C366 C365 1.385 . S
H367 C365 0.950 . S
H368 C352 0.951 . S
H369 C354 0.951 . S
H370 C356 0.951 . S
H371 C357 0.950 . S
H372 C358 0.950 . S
H373 C359 0.950 . S
H374 C361 0.950 . S
H375 C362 0.951 . S
C376 C377 1.386 . S
C376 C378 1.383 . S
C376 H392 0.951 . S
C377 C376 1.386 . S
C377 C381 1.383 . S
C378 C376 1.383 . S
C378 C379 1.402 . S
C378 H393 0.951 . S
C379 C378 1.402 . S
C379 C380 1.375 . S
C379 C382 1.481 . S
C380 C379 1.375 . S
C380 C381 1.367 . S
C380 H394 0.951 . S
C381 C377 1.383 . S
C381 C380 1.367 . S
C381 H395 0.950 . S
C382 C379 1.481 . S
C382 C383 1.297 . S
C382 H396 0.950 . S
C383 C382 1.297 . S
C383 C384 1.479 . S
C383 H397 0.950 . S
C384 C383 1.479 . S
C384 C385 1.375 . S
C384 C390 1.404 . S
C385 C384 1.375 . S
C385 C386 1.369 . S
C385 H398 0.950 . S
C386 C385 1.369 . S
C386 C387 1.392 . S
C386 H399 0.951 . S
C387 C386 1.392 . S
C387 C389 1.384 . S
H388 C390 0.949 . S
C389 C387 1.384 . S
C389 C390 1.385 . S
C389 H391 0.950 . S
C390 C384 1.404 . S
C390 H388 0.949 . S
C390 C389 1.385 . S
H391 C389 0.950 . S
H392 C376 0.951 . S
H393 C378 0.951 . S
H394 C380 0.951 . S
H395 C381 0.950 . S
H396 C382 0.950 . S
H397 C383 0.950 . S
H398 C385 0.950 . S
H399 C386 0.951 . S
C400 C401 1.386 . S
C400 C402 1.383 . S
C400 H416 0.951 . S
C401 C400 1.386 . S
C401 C405 1.377 1_455 S
C402 C400 1.383 . S
C402 C403 1.402 . S
C402 H417 0.951 . S
C403 C402 1.402 . S
C403 C404 1.381 . S
C403 C406 1.481 1_545 S
C404 C403 1.381 . S
C404 C405 1.366 1_455 S
C404 H418 0.945 1_455 S
C405 C401 1.377 1_655 S
C405 C404 1.366 1_655 S
C405 H419 0.957 . S
C406 C403 1.481 1_565 S
C406 C407 1.297 1_554 S
C406 H420 0.950 . S
C407 C406 1.297 1_556 S
C407 C408 1.479 . S
C407 H421 0.950 1_565 S
C408 C407 1.479 . S
C408 C409 1.375 . S
C408 C414 1.404 . S
C409 C408 1.375 . S
C409 C410 1.369 . S
C409 H422 0.950 . S
C410 C409 1.369 . S
C410 C411 1.392 . S
C410 H423 0.951 . S
C411 C410 1.392 . S
C411 C413 1.384 . S
H412 C414 0.949 1_554 S
C413 C411 1.384 . S
C413 C414 1.385 . S
C413 H415 0.950 . S
C414 C408 1.404 . S
C414 H412 0.949 1_556 S
C414 C413 1.385 . S
H415 C413 0.950 . S
H416 C400 0.951 . S
H417 C402 0.951 . S
H418 C404 0.945 1_655 S
H419 C405 0.957 . S
H420 C406 0.950 . S
H421 C407 0.950 1_545 S
H422 C409 0.950 . S
H423 C410 0.951 . S
C424 C425 1.386 1_655 S
C424 C426 1.383 . S
C424 H440 0.951 . S
C425 C424 1.386 1_455 S
C425 C429 1.383 . S
C426 C424 1.383 . S
C426 C427 1.402 1_655 S
C426 H441 0.951 . S
C427 C426 1.402 1_455 S
C427 C428 1.375 . S
C427 C430 1.481 . S
C428 C427 1.375 . S
C428 C429 1.367 . S
C428 H442 0.951 . S
C429 C425 1.383 . S
C429 C428 1.367 . S
C429 H443 0.950 . S
C430 C427 1.481 . S
C430 C431 1.297 1_456 S
C430 H444 0.950 . S
C431 C430 1.297 1_654 S
C431 C432 1.479 1_655 S
C431 H445 0.950 . S
C432 C431 1.479 1_455 S
C432 C433 1.375 1_455 S
C432 C438 1.404 . S
C433 C432 1.375 1_655 S
C433 C434 1.369 . S
C433 H446 0.950 . S
C434 C433 1.369 . S
C434 C435 1.392 1_655 S
C434 H447 0.951 . S
C435 C434 1.392 1_455 S
C435 C437 1.384 . S
H436 C438 0.949 . S
C437 C435 1.384 . S
C437 C438 1.385 . S
C437 H439 0.950 . S
C438 C432 1.404 . S
C438 H436 0.949 . S
C438 C437 1.385 . S
H439 C437 0.950 . S
H440 C424 0.951 . S
H441 C426 0.951 . S
H442 C428 0.951 . S
H443 C429 0.950 . S
H444 C430 0.950 . S
H445 C431 0.950 . S
H446 C433 0.950 . S
H447 C434 0.951 . S
C448 C449 1.386 . S
C448 C450 1.383 . S
C448 H464 0.951 . S
C449 C448 1.386 . S
C449 C453 1.383 . S
C450 C448 1.383 . S
C450 C451 1.402 . S
C450 H465 0.951 . S
C451 C450 1.402 . S
C451 C452 1.375 . S
C451 C454 1.481 . S
C452 C451 1.375 . S
C452 C453 1.367 . S
C452 H466 0.951 . S
C453 C449 1.383 . S
C453 C452 1.367 . S
C453 H467 0.950 . S
C454 C451 1.481 . S
C454 C455 1.297 . S
C454 H468 0.950 . S
C455 C454 1.297 . S
C455 C456 1.479 . S
C455 H469 0.950 . S
C456 C455 1.479 . S
C456 C457 1.375 . S
C456 C462 1.404 . S
C457 C456 1.375 . S
C457 C458 1.369 . S
C457 H470 0.950 . S
C458 C457 1.369 . S
C458 C459 1.392 . S
C458 H471 0.951 . S
C459 C458 1.392 . S
C459 C461 1.384 . S
H460 C462 0.949 . S
C461 C459 1.384 . S
C461 C462 1.385 . S
C461 H463 0.950 . S
C462 C456 1.404 . S
C462 H460 0.949 . S
C462 C461 1.385 . S
H463 C461 0.950 . S
H464 C448 0.951 . S
H465 C450 0.951 . S
H466 C452 0.951 . S
H467 C453 0.950 . S
H468 C454 0.950 . S
H469 C455 0.950 . S
H470 C457 0.950 . S
H471 C458 0.951 . S
C472 C473 1.386 . S
C472 C474 1.383 . S
C472 H488 0.951 . S
C473 C472 1.386 . S
C473 C477 1.383 . S
C474 C472 1.383 . S
C474 C475 1.402 . S
C474 H489 0.951 . S
C475 C474 1.402 . S
C475 C476 1.375 . S
C475 C478 1.481 . S
C476 C475 1.375 . S
C476 C477 1.367 . S
C476 H490 0.951 . S
C477 C473 1.383 . S
C477 C476 1.367 . S
C477 H491 0.950 . S
C478 C475 1.481 . S
C478 C479 1.297 1_565 S
C478 H492 0.950 . S
C479 C478 1.297 1_545 S
C479 C480 1.479 . S
C479 H493 0.950 . S
C480 C479 1.479 . S
C480 C481 1.375 . S
C480 C486 1.404 . S
C481 C480 1.375 . S
C481 C482 1.369 . S
C481 H494 0.950 . S
C482 C481 1.369 . S
C482 C483 1.392 . S
C482 H495 0.951 . S
C483 C482 1.392 . S
C483 C485 1.384 . S
H484 C486 0.949 . S
C485 C483 1.384 . S
C485 C486 1.385 . S
C485 H487 0.950 . S
C486 C480 1.404 . S
C486 H484 0.949 . S
C486 C485 1.385 . S
H487 C485 0.950 . S
H488 C472 0.951 . S
H489 C474 0.951 . S
H490 C476 0.951 . S
H491 C477 0.950 . S
H492 C478 0.950 . S
H493 C479 0.950 . S
H494 C481 0.950 . S
H495 C482 0.951 . S
C113 C19 1.421 . S
C123 C5 1.415 . S
C137 C33 1.429 . S
C147 C47 1.432 . S
C161 C61 1.421 . S
C171 C75 1.414 . S
C185 C89 1.435 . S
C195 C103 1.425 . S
C209 C98 1.416 . S
C219 C0 1.415 . S
C233 C84 1.409 . S
C243 C14 1.413 . S
C257 C28 1.391 . S
C267 C70 1.372 . S
C281 C56 1.392 . S
C291 C42 1.373 . S
C305 C79 1.394 . S
C315 C37 1.408 . S
C329 C65 1.390 . S
C339 C51 1.404 . S
C353 C107 1.387 . S
C363 C9 1.377 . S
C377 C23 1.387 . S
C387 C93 1.378 . S
C401 C11 1.368 . S
C411 C39 1.357 . S
C425 C53 1.367 . S
C435 C25 1.353 . S
C449 C95 1.357 . S
C459 C67 1.356 . S
C473 C81 1.357 . S
C483 C109 1.356 . S
