# Generated by pormake.
# Topology smd, (6)-cn, num edge types: 1
# Building blocks:
#     Node 0, Type 0, BuildingBlock: LEVNOQ01_clean_sbu_1, # of connection points: 6
#     Node 1, Type 0, BuildingBlock: LEVNOQ01_clean_sbu_1, # of connection points: 6
#     Node 2, Type 0, BuildingBlock: LEVNOQ01_clean_sbu_1, # of connection points: 6
#     Node 3, Type 0, BuildingBlock: LEVNOQ01_clean_sbu_1, # of connection points: 6
#     Node 4, Type 0, BuildingBlock: LEVNOQ01_clean_sbu_1, # of connection points: 6
#     Node 5, Type 0, BuildingBlock: LEVNOQ01_clean_sbu_1, # of connection points: 6
#     Node 6, Type 0, BuildingBlock: LEVNOQ01_clean_sbu_1, # of connection points: 6
#     Node 7, Type 0, BuildingBlock: LEVNOQ01_clean_sbu_1, # of connection points: 6
#     Node 8, Type 0, BuildingBlock: LEVNOQ01_clean_sbu_1, # of connection points: 6
#     Node 9, Type 0, BuildingBlock: LEVNOQ01_clean_sbu_1, # of connection points: 6
#     Node 10, Type 0, BuildingBlock: LEVNOQ01_clean_sbu_1, # of connection points: 6
#     Node 11, Type 0, BuildingBlock: LEVNOQ01_clean_sbu_1, # of connection points: 6
#     Node 12, Type 0, BuildingBlock: LEVNOQ01_clean_sbu_1, # of connection points: 6
#     Node 13, Type 0, BuildingBlock: LEVNOQ01_clean_sbu_1, # of connection points: 6
#     Node 14, Type 0, BuildingBlock: LEVNOQ01_clean_sbu_1, # of connection points: 6
#     Node 15, Type 0, BuildingBlock: LEVNOQ01_clean_sbu_1, # of connection points: 6
#     Node 16, Type 0, BuildingBlock: LEVNOQ01_clean_sbu_1, # of connection points: 6
#     Node 17, Type 0, BuildingBlock: LEVNOQ01_clean_sbu_1, # of connection points: 6
#     Edge 18, Type (0, 0), None
#     Edge 19, Type (0, 0), None
#     Edge 20, Type (0, 0), None
#     Edge 21, Type (0, 0), None
#     Edge 22, Type (0, 0), None
#     Edge 23, Type (0, 0), None
#     Edge 24, Type (0, 0), None
#     Edge 25, Type (0, 0), None
#     Edge 26, Type (0, 0), None
#     Edge 27, Type (0, 0), None
#     Edge 28, Type (0, 0), None
#     Edge 29, Type (0, 0), None
#     Edge 30, Type (0, 0), None
#     Edge 31, Type (0, 0), None
#     Edge 32, Type (0, 0), None
#     Edge 33, Type (0, 0), None
#     Edge 34, Type (0, 0), None
#     Edge 35, Type (0, 0), None
#     Edge 36, Type (0, 0), None
#     Edge 37, Type (0, 0), None
#     Edge 38, Type (0, 0), None
#     Edge 39, Type (0, 0), None
#     Edge 40, Type (0, 0), None
#     Edge 41, Type (0, 0), None
#     Edge 42, Type (0, 0), None
#     Edge 43, Type (0, 0), None
#     Edge 44, Type (0, 0), None
#     Edge 45, Type (0, 0), None
#     Edge 46, Type (0, 0), None
#     Edge 47, Type (0, 0), None
#     Edge 48, Type (0, 0), None
#     Edge 49, Type (0, 0), None
#     Edge 50, Type (0, 0), None
#     Edge 51, Type (0, 0), None
#     Edge 52, Type (0, 0), None
#     Edge 53, Type (0, 0), None
#     Edge 54, Type (0, 0), None
#     Edge 55, Type (0, 0), None
#     Edge 56, Type (0, 0), None
#     Edge 57, Type (0, 0), None
#     Edge 58, Type (0, 0), None
#     Edge 59, Type (0, 0), None
#     Edge 60, Type (0, 0), None
#     Edge 61, Type (0, 0), None
#     Edge 62, Type (0, 0), None
#     Edge 63, Type (0, 0), None
#     Edge 64, Type (0, 0), None
#     Edge 65, Type (0, 0), None
#     Edge 66, Type (0, 0), None
#     Edge 67, Type (0, 0), None
#     Edge 68, Type (0, 0), None
#     Edge 69, Type (0, 0), None
#     Edge 70, Type (0, 0), None
#     Edge 71, Type (0, 0), None
# Relax obj value: 0.154
# Max RMSD: 0.208
# Mean RMSD: 0.205
data_MOF--net-smd--node1-LEVNOQ01_clean_sbu_1--edge1-none
_symmetry_space_group_name_H-M    P1
_symmetry_Int_Tables_number       1
_symmetry_cell_setting            triclinic
loop_
_symmetry_equiv_pos_as_xyz
'x, y, z'
_cell_length_a     33.869578
_cell_length_b     34.927993
_cell_length_c     7.9206186
_cell_angle_alpha  89.835036
_cell_angle_beta   89.618182
_cell_angle_gamma 119.58943
loop_
_atom_site_label
_atom_site_type_symbol
_atom_site_fract_x
_atom_site_fract_y
_atom_site_fract_z
_atom_type_partial_charge
O0 O 0.98115 0.16956 -0.01151 0.0
Mg1 Mg -0.00153 0.14511 0.77297 0.0
O2 O -0.01565 0.22884 0.86562 0.0
Mg3 Mg 0.98154 0.21643 0.57652 0.0
O4 O 0.03945 0.20104 0.62254 0.0
O5 O 0.06349 0.15782 0.73415 0.0
O6 O 0.97927 0.20239 0.29409 0.0
O7 O 0.03777 0.28912 0.48289 0.0
Mg8 Mg 0.9386 0.27507 0.37069 0.0
O9 O 0.92096 0.22843 0.54161 0.0
O10 O 0.95681 0.24585 0.16705 0.0
O11 O -0.00548 0.31738 0.52414 0.0
O12 O 0.87523 0.25468 0.49221 0.0
C13 C 0.9207 0.1101 0.57106 0.0
C14 C 0.97975 0.20519 -0.00343 0.0
C15 C 0.07202 0.19249 0.64821 0.0
C16 C 0.97159 0.21863 0.16161 0.0
C17 C 0.03001 0.32095 0.45695 0.0
C18 C 0.89272 0.23992 0.60021 0.0
O19 O 0.9472 0.0971 0.62367 0.0
O20 O 0.9249 0.14546 0.63243 0.0
O21 O 0.82095 0.84953 -0.01065 0.0
Mg22 Mg 0.8671 0.85659 0.17667 0.0
O23 O 0.76575 0.79052 0.11354 0.0
Mg24 Mg 0.77762 0.80512 0.40184 0.0
O25 O 0.85262 0.82365 0.40542 0.0
O26 O 0.85972 0.79154 0.18586 0.0
O27 O 0.78444 0.81797 0.68794 0.0
O28 O 0.76495 0.73432 0.46981 0.0
Mg29 Mg 0.67809 0.74114 0.60383 0.0
O30 O 0.70236 0.78549 0.41037 0.0
O31 O 0.71822 0.77419 0.81728 0.0
O32 O 0.69209 0.6913 0.51017 0.0
O33 O 0.63075 0.75499 0.48249 0.0
C34 C 0.83569 0.91351 0.33598 0.0
C35 C 0.7823 0.81579 -0.01519 0.0
C36 C 0.87007 0.80191 0.33953 0.0
C37 C 0.75998 0.80308 0.82149 0.0
C38 C 0.73242 0.69875 0.53117 0.0
C39 C 0.66192 0.77781 0.37463 0.0
O40 O 0.87139 0.9113 0.30496 0.0
O41 O 0.7968 0.87877 0.35355 0.0
O42 O 0.13657 -0.00416 -0.03111 0.0
Mg43 Mg 0.09394 0.9867 0.7587 0.0
O44 O 0.19937 0.00549 0.83446 0.0
Mg45 Mg 0.18916 0.00531 0.54839 0.0
O46 O 0.11662 0.95977 0.58385 0.0
O47 O 0.04532 0.92458 0.66045 0.0
O48 O 0.17771 0.00561 0.26585 0.0
O49 O 0.19695 0.94258 0.4852 0.0
Mg50 Mg 0.28574 0.03036 0.33647 0.0
O51 O 0.26267 0.05347 0.52259 0.0
O52 O 0.24259 0.02332 0.12995 0.0
O53 O 0.2694 0.96671 0.43612 0.0
O54 O 0.33367 0.09052 0.45569 0.0
C55 C 0.14874 0.07653 0.59972 0.0
C56 C 0.17753 0.00377 -0.03074 0.0
C57 C 0.0773 0.92635 0.5664 0.0
C58 C 0.20062 0.01174 0.13029 0.0
C59 C 0.22838 0.93617 0.42325 0.0
C60 C 0.30232 0.08519 0.55781 0.0
O61 O 0.10888 0.04811 0.64767 0.0
O62 O 0.18 0.06667 0.57677 0.0
O63 O -0.00931 0.82329 -0.0044 0.0
Mg64 Mg -0.00845 0.84358 0.24042 0.0
O65 O 0.00809 0.77866 0.13175 0.0
Mg66 Mg -0.00247 0.7818 0.41994 0.0
O67 O 0.93716 0.79689 0.3908 0.0
O68 O 0.94282 0.85903 0.28611 0.0
O69 O -0.00693 0.78562 0.70392 0.0
O70 O 0.94157 0.7077 0.4262 0.0
Mg71 Mg 0.03713 0.72126 0.62955 0.0
O72 O 0.05204 0.76432 0.44025 0.0
O73 O 0.03325 0.75892 0.83322 0.0
O74 O 0.97116 0.67027 0.54111 0.0
O75 O 0.0945 0.73477 0.47382 0.0
C76 C 0.06603 0.89419 0.43308 0.0
C77 C 0.00309 0.79471 -0.00545 0.0
C78 C 0.9191 0.82147 0.35926 0.0
C79 C 0.011 0.77956 0.83512 0.0
C80 C 0.93744 0.67669 0.52444 0.0
C81 C 0.07746 0.75107 0.37104 0.0
O82 O 0.04969 0.9014 0.30363 0.0
O83 O 0.05172 0.85461 0.47893 0.0
O84 O 0.1828 0.18697 0.90989 0.0
Mg85 Mg 0.17291 0.19983 0.65837 0.0
O86 O 0.23538 0.25036 0.81703 0.0
Mg87 Mg 0.21858 0.22921 0.52168 0.0
O88 O 0.13961 0.21641 0.49903 0.0
O89 O 0.14212 0.23591 0.7571 0.0
O90 O 0.20991 0.21435 0.23745 0.0
O91 O 0.23826 0.30172 0.43563 0.0
Mg92 Mg 0.32356 0.28644 0.3411 0.0
O93 O 0.29292 0.24161 0.52075 0.0
O94 O 0.27822 0.26022 0.12829 0.0
O95 O 0.30947 0.32933 0.48607 0.0
O96 O 0.36464 0.2646 0.46268 0.0
C97 C 0.15977 0.12252 0.58423 0.0
C98 C 0.21737 0.22317 0.9398 0.0
C99 C 0.1199 0.2245 0.62036 0.0
C100 C 0.23614 0.23307 0.11106 0.0
C101 C 0.27876 0.33238 0.40849 0.0
C102 C 0.33223 0.24865 0.57216 0.0
O103 O 0.12935 0.13267 0.60661 0.0
O104 O 0.20051 0.15367 0.56667 0.0
O105 O 0.84687 0.043 0.95836 0.0
Mg106 Mg 0.88922 0.04967 0.1629 0.0
O107 O 0.78176 0.0203 0.10136 0.0
Mg108 Mg 0.79237 0.0219 0.38761 0.0
O109 O 0.86647 0.07017 0.35809 0.0
O110 O 0.93858 0.10597 0.28753 0.0
O111 O 0.80279 0.02337 0.66907 0.0
O112 O 0.78156 0.08327 0.44389 0.0
Mg113 Mg 0.69453 -0.00541 0.59748 0.0
O114 O 0.71759 0.97099 0.41111 0.0
O115 O 0.73749 0.00319 0.80647 0.0
O116 O 0.70876 0.05673 0.49119 0.0
O117 O 0.64653 0.93409 0.48616 0.0
C118 C 0.83963 0.95708 0.32131 0.0
C119 C 0.80414 0.02762 0.96348 0.0
C120 C 0.90727 0.09889 0.39649 0.0
C121 C 0.77996 0.01698 0.80483 0.0
C122 C 0.74922 0.0881 0.50677 0.0
C123 C 0.67738 0.93882 0.3819 0.0
O124 O 0.87604 -0.01258 0.25446 0.0
O125 O 0.80634 0.96287 0.36237 0.0
O126 O 0.67711 0.55081 0.37945 0.0
Mg127 Mg 0.64341 0.50966 0.58412 0.0
O128 O 0.65323 0.59339 0.48586 0.0
Mg129 Mg 0.65876 0.58037 0.77697 0.0
O130 O 0.60382 0.50443 0.78676 0.0
O131 O 0.57393 0.47782 0.53678 0.0
O132 O 0.6669 0.57668 0.06588 0.0
O133 O 0.59998 0.59464 0.86564 0.0
Mg134 Mg 0.7011 0.68353 0.9563 0.0
O135 O 0.71333 0.65141 0.77405 0.0
O136 O 0.6904 0.64331 0.1795 0.0
O137 O 0.63975 0.66498 0.82472 0.0
O138 O 0.76057 0.721 0.80403 0.0
C139 C 0.72215 0.53072 0.74387 0.0
C140 C 0.67004 0.58254 0.36244 0.0
C141 C 0.57408 0.47197 0.69655 0.0
C142 C 0.67626 0.60215 0.19373 0.0
C143 C 0.60559 0.63297 0.89284 0.0
C144 C 0.74117 0.68821 0.70309 0.0
O145 O 0.68695 0.49456 0.71228 0.0
O146 O 0.721 0.56682 0.73742 0.0
O147 O 0.46497 0.16508 0.36384 0.0
Mg148 Mg 0.5098 0.1659 0.54637 0.0
O149 O 0.41324 0.10229 0.47439 0.0
Mg150 Mg 0.42549 0.11877 0.7659 0.0
O151 O 0.49753 0.12685 0.75955 0.0
O152 O 0.50571 0.10318 0.51579 0.0
O153 O 0.43456 0.13267 0.05086 0.0
O154 O 0.40063 0.04516 0.8515 0.0
Mg155 Mg 0.31995 0.06641 0.95737 0.0
O156 O 0.35355 0.11237 0.78499 0.0
O157 O 0.3659 0.09149 0.16803 0.0
O158 O 0.32992 0.02227 0.8042 0.0
O159 O 0.28153 0.09076 0.83464 0.0
C160 C 0.49415 0.2272 0.72873 0.0
C161 C 0.42894 0.12897 0.3488 0.0
C162 C 0.51732 0.11037 0.67006 0.0
C163 C 0.40854 0.11706 0.18036 0.0
C164 C 0.35934 0.01627 0.877 0.0
C165 C 0.3144 0.10394 0.72698 0.0
O166 O 0.5277 0.22159 0.69693 0.0
O167 O 0.4535 0.19481 0.72204 0.0
O168 O 0.81527 0.31803 0.38456 0.0
Mg169 Mg 0.80103 0.35417 0.5609 0.0
O170 O 0.88399 0.34392 0.49166 0.0
Mg171 Mg 0.8689 0.33962 0.78168 0.0
O172 O 0.84139 0.38794 0.76609 0.0
O173 O 0.8617 0.41514 0.51512 0.0
O174 O 0.85506 0.33188 0.07128 0.0
O175 O 0.93908 0.40254 0.85228 0.0
Mg176 Mg 0.94299 0.31549 -0.01827 0.0
O177 O 0.89487 0.29217 0.80132 0.0
O178 O 0.90598 0.31762 0.19434 0.0
O179 O -0.01249 0.37872 0.87272 0.0
O180 O 0.9296 0.25609 0.8632 0.0
C181 C 0.75877 0.27297 0.74946 0.0
C182 C 0.85623 0.32775 0.36879 0.0
C183 C 0.85782 0.42207 0.67001 0.0
C184 C 0.87249 0.32442 0.20214 0.0
C185 C 0.97697 0.40796 0.9076 0.0
C186 C 0.90223 0.26041 0.7662 0.0
O187 O 0.75235 0.3053 0.72347 0.0
O188 O 0.79848 0.27761 0.74079 0.0
O189 O 0.66941 0.16832 0.37928 0.0
Mg190 Mg 0.64459 0.17065 0.63153 0.0
O191 O 0.664 0.10598 0.46192 0.0
Mg192 Mg 0.66392 0.12039 0.74941 0.0
O193 O 0.59001 0.11599 0.7345 0.0
O194 O 0.58717 0.17146 0.60185 0.0
O195 O 0.66674 0.1343 0.04257 0.0
O196 O 0.61659 0.04764 0.83985 0.0
Mg197 Mg 0.72872 0.08231 0.94894 0.0
O198 O 0.7287 0.11688 0.74977 0.0
O199 O 0.71037 0.11005 0.16102 0.0
O200 O 0.66943 0.0293 0.846 0.0
O201 O 0.78488 0.1041 0.77334 0.0
C202 C 0.71918 0.2291 0.7593 0.0
C203 C 0.67178 0.1341 0.34484 0.0
C204 C 0.56696 0.13425 0.6801 0.0
C205 C 0.68443 0.12687 0.17287 0.0
C206 C 0.63116 0.02284 0.8967 0.0
C207 C 0.75875 0.11047 0.67393 0.0
O208 O 0.68096 0.22521 0.78835 0.0
O209 O 0.72092 0.19558 0.70686 0.0
O210 O 0.82109 0.52703 0.37723 0.0
Mg211 Mg 0.8098 0.497 0.62739 0.0
O212 O 0.88915 0.57642 0.46283 0.0
Mg213 Mg 0.87487 0.56442 0.74935 0.0
O214 O 0.86157 0.49097 0.72742 0.0
O215 O 0.7985 0.4356 0.61405 0.0
O216 O 0.8601 0.55475 0.04316 0.0
O217 O 0.94702 0.57589 0.81779 0.0
Mg218 Mg 0.93803 0.66157 0.95544 0.0
O219 O 0.89607 0.63406 0.76267 0.0
O220 O 0.89908 0.6209 0.16502 0.0
O221 O -0.0096 0.64594 0.88498 0.0
O222 O 0.92887 0.70432 0.78206 0.0
C223 C 0.76442 0.52977 0.76631 0.0
C224 C 0.86004 0.55968 0.34515 0.0
C225 C 0.83737 0.4499 0.68508 0.0
C226 C 0.87233 0.5794 0.17435 0.0
C227 C -0.01673 0.60654 0.88392 0.0
C228 C 0.91266 0.67093 0.6846 0.0
O229 O 0.76116 0.49327 0.79979 0.0
O230 O 0.80236 0.56025 0.71023 0.0
O231 O 0.51033 0.34474 0.37112 0.0
Mg232 Mg 0.55241 0.35911 0.59689 0.0
O233 O 0.44901 0.34284 0.48753 0.0
Mg234 Mg 0.45904 0.34181 0.77194 0.0
O235 O 0.53152 0.39359 0.74183 0.0
O236 O 0.60231 0.42329 0.66349 0.0
O237 O 0.47188 0.34001 0.05815 0.0
O238 O 0.44846 0.40215 0.8371 0.0
Mg239 Mg 0.36172 0.31167 -0.0165 0.0
O240 O 0.38489 0.29084 0.79068 0.0
O241 O 0.40615 0.31978 0.19044 0.0
O242 O 0.3755 0.37454 0.881 0.0
O243 O 0.3137 0.25197 0.85808 0.0
C244 C 0.50268 0.27255 0.74167 0.0
C245 C 0.47066 0.34041 0.35895 0.0
C246 C 0.57034 0.42868 0.72725 0.0
C247 C 0.44839 0.3322 0.1934 0.0
C248 C 0.41568 0.40636 0.89777 0.0
C249 C 0.34488 0.2603 0.74964 0.0
O250 O 0.54342 0.30346 0.73239 0.0
O251 O 0.46976 0.28057 0.73497 0.0
O252 O 0.30454 0.85055 0.56579 0.0
Mg253 Mg 0.33047 0.8487 0.31845 0.0
O254 O 0.30815 0.91103 0.47082 0.0
Mg255 Mg 0.3106 0.89822 0.183 0.0
O256 O 0.38476 0.90211 0.20344 0.0
O257 O 0.38889 0.85102 0.36316 0.0
O258 O 0.3092 0.8873 0.89181 0.0
O259 O 0.35963 0.97223 0.10654 0.0
Mg260 Mg 0.24874 0.94059 -0.01213 0.0
O261 O 0.24627 0.90376 0.18383 0.0
O262 O 0.26536 0.91162 0.77526 0.0
O263 O 0.30785 -0.00828 0.09932 0.0
O264 O 0.1922 0.91982 0.15877 0.0
C265 C 0.26139 0.78971 0.13852 0.0
C266 C 0.30147 0.88464 0.59273 0.0
C267 C 0.40853 0.88588 0.27059 0.0
C268 C 0.29084 0.89429 0.76299 0.0
C269 C 0.34596 -0.00225 0.04952 0.0
C270 C 0.21741 0.91224 0.2589 0.0
O271 O 0.30044 0.79537 0.15931 0.0
O272 O 0.25333 0.82003 0.18744 0.0
O273 O 0.1332 0.4931 0.75386 0.0
Mg274 Mg 0.18086 0.49919 0.93482 0.0
O275 O 0.08484 0.42876 0.86287 0.0
Mg276 Mg 0.09781 0.44645 0.15393 0.0
O277 O 0.17389 0.46377 0.15467 0.0
O278 O 0.18216 0.43856 0.91518 0.0
O279 O 0.1031 0.45996 0.4423 0.0
O280 O 0.07959 0.37462 0.25602 0.0
Mg281 Mg -0.00807 0.39008 0.34097 0.0
O282 O 0.02517 0.43205 0.15209 0.0
O283 O 0.03423 0.41886 0.56091 0.0
O284 O 0.00684 0.34392 0.22214 0.0
O285 O 0.95367 0.41065 0.18649 0.0
C286 C 0.15519 0.55646 0.09326 0.0
C287 C 0.09777 0.45644 0.74027 0.0
C288 C 0.19548 0.44887 0.06663 0.0
C289 C 0.07693 0.44466 0.57239 0.0
C290 C 0.03998 0.34226 0.28659 0.0
C291 C -0.01249 0.42409 0.08371 0.0
O292 O 0.19163 0.55506 0.07146 0.0
O293 O 0.11686 0.52078 0.09835 0.0
O294 O 0.48957 0.68854 0.57759 0.0
Mg295 Mg 0.44838 0.66551 0.36268 0.0
O296 O 0.5474 0.68682 0.45554 0.0
Mg297 Mg 0.53482 0.69085 0.16674 0.0
O298 O 0.46027 0.6339 0.16301 0.0
O299 O 0.41093 0.59783 0.36844 0.0
O300 O 0.52578 0.69584 0.88326 0.0
O301 O 0.5539 0.63657 0.08318 0.0
Mg302 Mg 0.6382 0.73156 -0.02576 0.0
O303 O 0.60881 0.74907 0.1515 0.0
O304 O 0.59246 0.71388 0.76168 0.0
O305 O 0.62562 0.67665 0.12826 0.0
O306 O 0.68044 0.79361 0.08814 0.0
C307 C 0.47881 0.74906 0.22342 0.0
C308 C 0.52838 0.6921 0.58638 0.0
C309 C 0.42987 0.59685 0.2285 0.0
C310 C 0.55026 0.7013 0.75233 0.0
C311 C 0.5939 0.64267 0.06221 0.0
C312 C 0.6486 0.77911 0.19996 0.0
O313 O 0.44009 0.71557 0.24994 0.0
O314 O 0.51455 0.74541 0.21316 0.0
O315 O 0.32641 0.48728 0.7033 0.0
Mg316 Mg 0.31908 0.50852 0.94308 0.0
O317 O 0.3413 0.44024 0.83546 0.0
Mg318 Mg 0.33457 0.44753 0.12308 0.0
O319 O 0.27083 0.45804 0.09902 0.0
O320 O 0.26217 0.51186 -0.01714 0.0
O321 O 0.33143 0.45277 0.40629 0.0
O322 O 0.2787 0.37356 0.16845 0.0
Mg323 Mg 0.38681 0.39489 0.32291 0.0
O324 O 0.39524 0.43624 0.13516 0.0
O325 O 0.37155 0.42562 0.53249 0.0
O326 O 0.3285 0.35245 0.18121 0.0
O327 O 0.44665 0.41709 0.16938 0.0
C328 C 0.40049 0.56086 0.11692 0.0
C329 C 0.3377 0.45777 0.69978 0.0
C330 C 0.24538 0.47552 0.0673 0.0
C331 C 0.34727 0.44431 0.53775 0.0
C332 C 0.29091 0.34754 0.23121 0.0
C333 C 0.42462 0.42784 0.06563 0.0
O334 O 0.3734 0.56684 0.02824 0.0
O335 O 0.3917 0.52178 0.15072 0.0
O336 O 0.51135 0.85645 0.58305 0.0
Mg337 Mg 0.46612 0.85448 0.40046 0.0
O338 O 0.56419 0.9184 0.46991 0.0
Mg339 Mg 0.55143 0.90219 0.17906 0.0
O340 O 0.47805 0.89303 0.1852 0.0
O341 O 0.47115 0.91784 0.42823 0.0
O342 O 0.54278 0.88859 0.89368 0.0
O343 O 0.5763 0.97562 0.09439 0.0
Mg344 Mg 0.65752 0.95433 -0.01492 0.0
O345 O 0.62423 0.90897 0.16016 0.0
O346 O 0.61151 0.92893 0.77501 0.0
O347 O 0.64698 -0.00233 0.14043 0.0
O348 O 0.69618 0.93024 0.10568 0.0
C349 C 0.48369 0.79308 0.22902 0.0
C350 C 0.54813 0.89197 0.59603 0.0
C351 C 0.45854 0.90982 0.2752 0.0
C352 C 0.56878 0.90375 0.76376 0.0
C353 C 0.61772 0.004 0.06834 0.0
C354 C 0.66395 0.91814 0.21579 0.0
O355 O 0.44907 0.79692 0.26154 0.0
O356 O 0.52354 0.82683 0.22521 0.0
O357 O 0.15596 0.66532 0.68412 0.0
Mg358 Mg 0.18875 0.68094 0.9214 0.0
O359 O 0.09746 0.66563 0.80511 0.0
Mg360 Mg 0.11071 0.6673 0.09048 0.0
O361 O 0.18727 0.72575 0.08656 0.0
O362 O 0.24707 0.7385 0.92297 0.0
O363 O 0.11882 0.66508 0.37752 0.0
O364 O 0.09728 0.72618 0.13296 0.0
Mg365 Mg 0.01065 0.63419 0.29786 0.0
O366 O 0.03646 0.61748 0.10129 0.0
O367 O 0.05154 0.63766 0.50894 0.0
O368 O 0.02512 0.69785 0.20166 0.0
O369 O 0.96418 0.57859 0.15559 0.0
C370 C 0.15805 0.59987 0.07867 0.0
C371 C 0.1169 0.66132 0.67458 0.0
C372 C 0.22963 0.75075 0.0419 0.0
C373 C 0.09439 0.65315 0.51144 0.0
C374 C 0.06551 0.73003 0.20492 0.0
C375 C -0.00393 0.59393 0.04329 0.0
O376 O 0.19631 0.63229 0.04299 0.0
O377 O 0.1228 0.60455 0.07788 0.0
loop_
_geom_bond_atom_site_label_1
_geom_bond_atom_site_label_2
_geom_bond_distance
_geom_bond_site_symmetry_2
_ccdc_geom_bond_type
O0 Mg1 1.990 . S
O0 C14 1.253 . S
Mg1 O0 1.990 . S
Mg1 O4 2.180 . S
Mg1 O5 2.117 . S
Mg1 O19 2.030 1_455 S
O2 Mg3 2.072 . S
O2 C14 1.260 . S
Mg3 O2 2.072 . S
Mg3 O4 2.099 . S
Mg3 O6 2.079 . S
Mg3 O7 2.072 . S
Mg3 O9 2.099 1_455 S
Mg3 O20 2.079 1_455 S
O4 Mg1 2.180 . S
O4 Mg3 2.099 . S
O4 C15 1.279 . S
O5 Mg1 2.117 . S
O5 C15 1.250 . S
O6 Mg3 2.079 . S
O6 C16 1.263 . S
O7 Mg3 2.072 . S
O7 C17 1.260 . S
Mg8 O9 2.180 . S
Mg8 O10 2.030 1_655 S
Mg8 O11 1.990 1_655 S
Mg8 O12 2.117 . S
O9 Mg3 2.099 1_655 S
O9 Mg8 2.180 . S
O9 C18 1.279 . S
O10 Mg8 2.030 1_455 S
O10 C16 1.248 . S
O11 Mg8 1.990 1_455 S
O11 C17 1.253 . S
O12 Mg8 2.117 . S
O12 C18 1.250 . S
C13 O19 1.248 . S
C13 O20 1.264 . S
C14 O0 1.253 . S
C14 O2 1.260 . S
C15 O4 1.279 . S
C15 O5 1.250 . S
C16 O6 1.263 . S
C16 O10 1.248 . S
C17 O7 1.260 . S
C17 O11 1.253 . S
C18 O9 1.279 . S
C18 O12 1.250 . S
O19 Mg1 2.030 1_655 S
O19 C13 1.248 . S
O20 Mg3 2.079 1_655 S
O20 C13 1.264 . S
O21 Mg22 1.990 . S
O21 C35 1.253 . S
Mg22 O21 1.990 . S
Mg22 O25 2.180 . S
Mg22 O26 2.117 . S
Mg22 O40 2.030 . S
O23 Mg24 2.072 . S
O23 C35 1.260 . S
Mg24 O23 2.072 . S
Mg24 O25 2.099 . S
Mg24 O27 2.079 . S
Mg24 O28 2.072 . S
Mg24 O30 2.099 . S
Mg24 O41 2.079 . S
O25 Mg22 2.180 . S
O25 Mg24 2.099 . S
O25 C36 1.279 . S
O26 Mg22 2.117 . S
O26 C36 1.250 . S
O27 Mg24 2.079 . S
O27 C37 1.264 . S
O28 Mg24 2.072 . S
O28 C38 1.260 . S
Mg29 O30 2.180 . S
Mg29 O31 2.030 . S
Mg29 O32 1.990 . S
Mg29 O33 2.117 . S
O30 Mg24 2.099 . S
O30 Mg29 2.180 . S
O30 C39 1.279 . S
O31 Mg29 2.030 . S
O31 C37 1.248 . S
O32 Mg29 1.990 . S
O32 C38 1.253 . S
O33 Mg29 2.117 . S
O33 C39 1.250 . S
C34 O40 1.248 . S
C34 O41 1.264 . S
C35 O21 1.253 . S
C35 O23 1.260 . S
C36 O25 1.279 . S
C36 O26 1.250 . S
C37 O27 1.264 . S
C37 O31 1.248 . S
C38 O28 1.260 . S
C38 O32 1.253 . S
C39 O30 1.279 . S
C39 O33 1.250 . S
O40 Mg22 2.030 . S
O40 C34 1.248 . S
O41 Mg24 2.079 . S
O41 C34 1.264 . S
O42 Mg43 1.990 1_565 S
O42 C56 1.253 1_565 S
Mg43 O42 1.990 1_545 S
Mg43 O46 2.181 1_545 S
Mg43 O47 2.118 1_545 S
Mg43 O61 2.029 . S
O44 Mg45 2.072 . S
O44 C56 1.260 . S
Mg45 O44 2.072 . S
Mg45 O46 2.099 1_545 S
Mg45 O48 2.079 . S
Mg45 O49 2.072 1_545 S
Mg45 O51 2.099 . S
Mg45 O62 2.079 . S
O46 Mg43 2.181 1_565 S
O46 Mg45 2.099 1_565 S
O46 C57 1.279 . S
O47 Mg43 2.118 1_565 S
O47 C57 1.250 . S
O48 Mg45 2.079 . S
O48 C58 1.264 . S
O49 Mg45 2.072 1_565 S
O49 C59 1.260 . S
Mg50 O51 2.180 . S
Mg50 O52 2.030 . S
Mg50 O53 1.990 1_545 S
Mg50 O54 2.117 . S
O51 Mg45 2.099 . S
O51 Mg50 2.180 . S
O51 C60 1.279 . S
O52 Mg50 2.030 . S
O52 C58 1.248 . S
O53 Mg50 1.990 1_565 S
O53 C59 1.253 . S
O54 Mg50 2.117 . S
O54 C60 1.250 . S
C55 O61 1.248 . S
C55 O62 1.264 . S
C56 O42 1.253 1_545 S
C56 O44 1.260 . S
C57 O46 1.279 . S
C57 O47 1.250 . S
C58 O48 1.264 . S
C58 O52 1.248 . S
C59 O49 1.260 . S
C59 O53 1.253 . S
C60 O51 1.279 . S
C60 O54 1.250 . S
O61 Mg43 2.029 . S
O61 C55 1.248 . S
O62 Mg45 2.079 . S
O62 C55 1.264 . S
O63 Mg64 1.990 . S
O63 C77 1.253 1_655 S
Mg64 O63 1.990 . S
Mg64 O67 2.180 . S
Mg64 O68 2.117 . S
Mg64 O82 2.030 1_655 S
O65 Mg66 2.072 . S
O65 C77 1.260 . S
Mg66 O65 2.072 . S
Mg66 O67 2.099 1_455 S
Mg66 O69 2.079 . S
Mg66 O70 2.072 1_455 S
Mg66 O72 2.099 . S
Mg66 O83 2.079 . S
O67 Mg64 2.180 . S
O67 Mg66 2.099 1_655 S
O67 C78 1.279 . S
O68 Mg64 2.117 . S
O68 C78 1.250 . S
O69 Mg66 2.079 . S
O69 C79 1.264 . S
O70 Mg66 2.072 1_655 S
O70 C80 1.260 . S
Mg71 O72 2.180 . S
Mg71 O73 2.030 . S
Mg71 O74 1.990 1_455 S
Mg71 O75 2.117 . S
O72 Mg66 2.099 . S
O72 Mg71 2.180 . S
O72 C81 1.279 . S
O73 Mg71 2.030 . S
O73 C79 1.248 . S
O74 Mg71 1.990 1_655 S
O74 C80 1.253 . S
O75 Mg71 2.117 . S
O75 C81 1.250 . S
C76 O82 1.248 . S
C76 O83 1.264 . S
C77 O63 1.253 1_455 S
C77 O65 1.260 . S
C78 O67 1.279 . S
C78 O68 1.250 . S
C79 O69 1.264 . S
C79 O73 1.248 . S
C80 O70 1.260 . S
C80 O74 1.253 . S
C81 O72 1.279 . S
C81 O75 1.250 . S
O82 Mg64 2.030 1_455 S
O82 C76 1.248 . S
O83 Mg66 2.079 . S
O83 C76 1.264 . S
O84 Mg85 1.990 . S
O84 C98 1.253 . S
Mg85 O84 1.990 . S
Mg85 O88 2.180 . S
Mg85 O89 2.117 . S
Mg85 O103 2.030 . S
O86 Mg87 2.072 . S
O86 C98 1.260 . S
Mg87 O86 2.072 . S
Mg87 O88 2.099 . S
Mg87 O90 2.079 . S
Mg87 O91 2.072 . S
Mg87 O93 2.099 . S
Mg87 O104 2.079 . S
O88 Mg85 2.180 . S
O88 Mg87 2.099 . S
O88 C99 1.279 . S
O89 Mg85 2.117 . S
O89 C99 1.250 . S
O90 Mg87 2.079 . S
O90 C100 1.264 . S
O91 Mg87 2.072 . S
O91 C101 1.260 . S
Mg92 O93 2.180 . S
Mg92 O94 2.030 . S
Mg92 O95 1.990 . S
Mg92 O96 2.117 . S
O93 Mg87 2.099 . S
O93 Mg92 2.180 . S
O93 C102 1.279 . S
O94 Mg92 2.030 . S
O94 C100 1.248 . S
O95 Mg92 1.990 . S
O95 C101 1.253 . S
O96 Mg92 2.117 . S
O96 C102 1.250 . S
C97 O103 1.248 . S
C97 O104 1.264 . S
C98 O84 1.253 . S
C98 O86 1.260 . S
C99 O88 1.279 . S
C99 O89 1.250 . S
C100 O90 1.264 . S
C100 O94 1.248 . S
C101 O91 1.260 . S
C101 O95 1.253 . S
C102 O93 1.279 . S
C102 O96 1.250 . S
O103 Mg85 2.030 . S
O103 C97 1.248 . S
O104 Mg87 2.079 . S
O104 C97 1.264 . S
O105 Mg106 1.990 . S
O105 C119 1.253 . S
Mg106 O105 1.990 . S
Mg106 O109 2.180 . S
Mg106 O110 2.117 . S
Mg106 O124 2.030 1_545 S
O107 Mg108 2.072 . S
O107 C119 1.260 . S
Mg108 O107 2.072 . S
Mg108 O109 2.099 . S
Mg108 O111 2.079 . S
Mg108 O112 2.072 . S
Mg108 O114 2.099 1_545 S
Mg108 O125 2.079 1_545 S
O109 Mg106 2.180 . S
O109 Mg108 2.099 . S
O109 C120 1.279 . S
O110 Mg106 2.117 . S
O110 C120 1.250 . S
O111 Mg108 2.079 . S
O111 C121 1.264 . S
O112 Mg108 2.072 . S
O112 C122 1.260 . S
Mg113 O114 2.180 1_545 S
Mg113 O115 2.030 . S
Mg113 O116 1.990 . S
Mg113 O117 2.117 1_545 S
O114 Mg108 2.099 1_565 S
O114 Mg113 2.180 1_565 S
O114 C123 1.279 . S
O115 Mg113 2.030 . S
O115 C121 1.248 . S
O116 Mg113 1.990 . S
O116 C122 1.253 . S
O117 Mg113 2.117 1_565 S
O117 C123 1.250 . S
C118 O124 1.248 . S
C118 O125 1.264 . S
C119 O105 1.253 . S
C119 O107 1.260 . S
C120 O109 1.279 . S
C120 O110 1.250 . S
C121 O111 1.264 . S
C121 O115 1.248 . S
C122 O112 1.260 . S
C122 O116 1.253 . S
C123 O114 1.279 . S
C123 O117 1.250 . S
O124 Mg106 2.030 1_565 S
O124 C118 1.248 . S
O125 Mg108 2.079 1_565 S
O125 C118 1.264 . S
O126 Mg127 1.990 . S
O126 C140 1.253 . S
Mg127 O126 1.990 . S
Mg127 O130 2.180 . S
Mg127 O131 2.117 . S
Mg127 O145 2.030 . S
O128 Mg129 2.072 . S
O128 C140 1.260 . S
Mg129 O128 2.072 . S
Mg129 O130 2.099 . S
Mg129 O132 2.079 1_556 S
Mg129 O133 2.072 . S
Mg129 O135 2.099 . S
Mg129 O146 2.079 . S
O130 Mg127 2.180 . S
O130 Mg129 2.099 . S
O130 C141 1.279 . S
O131 Mg127 2.117 . S
O131 C141 1.250 . S
O132 Mg129 2.079 1_554 S
O132 C142 1.264 . S
O133 Mg129 2.072 . S
O133 C143 1.260 . S
Mg134 O135 2.180 1_554 S
Mg134 O136 2.030 . S
Mg134 O137 1.990 1_554 S
Mg134 O138 2.117 1_554 S
O135 Mg129 2.099 . S
O135 Mg134 2.180 1_556 S
O135 C144 1.279 . S
O136 Mg134 2.030 . S
O136 C142 1.248 . S
O137 Mg134 1.990 1_556 S
O137 C143 1.253 . S
O138 Mg134 2.117 1_556 S
O138 C144 1.250 . S
C139 O145 1.248 . S
C139 O146 1.264 . S
C140 O126 1.253 . S
C140 O128 1.260 . S
C141 O130 1.279 . S
C141 O131 1.250 . S
C142 O132 1.264 . S
C142 O136 1.248 . S
C143 O133 1.260 . S
C143 O137 1.253 . S
C144 O135 1.279 . S
C144 O138 1.250 . S
O145 Mg127 2.030 . S
O145 C139 1.248 . S
O146 Mg129 2.079 . S
O146 C139 1.264 . S
O147 Mg148 1.990 . S
O147 C161 1.253 . S
Mg148 O147 1.990 . S
Mg148 O151 2.180 . S
Mg148 O152 2.117 . S
Mg148 O166 2.030 . S
O149 Mg150 2.072 . S
O149 C161 1.260 . S
Mg150 O149 2.072 . S
Mg150 O151 2.099 . S
Mg150 O153 2.079 1_556 S
Mg150 O154 2.072 . S
Mg150 O156 2.099 . S
Mg150 O167 2.079 . S
O151 Mg148 2.180 . S
O151 Mg150 2.099 . S
O151 C162 1.279 . S
O152 Mg148 2.117 . S
O152 C162 1.250 . S
O153 Mg150 2.079 1_554 S
O153 C163 1.264 . S
O154 Mg150 2.072 . S
O154 C164 1.260 . S
Mg155 O156 2.180 1_554 S
Mg155 O157 2.030 . S
Mg155 O158 1.990 1_554 S
Mg155 O159 2.117 1_554 S
O156 Mg150 2.099 . S
O156 Mg155 2.180 1_556 S
O156 C165 1.279 . S
O157 Mg155 2.030 . S
O157 C163 1.248 . S
O158 Mg155 1.990 1_556 S
O158 C164 1.253 . S
O159 Mg155 2.117 1_556 S
O159 C165 1.250 . S
C160 O166 1.248 . S
C160 O167 1.264 . S
C161 O147 1.253 . S
C161 O149 1.260 . S
C162 O151 1.279 . S
C162 O152 1.250 . S
C163 O153 1.264 . S
C163 O157 1.248 . S
C164 O154 1.260 . S
C164 O158 1.253 . S
C165 O156 1.279 . S
C165 O159 1.250 . S
O166 Mg148 2.030 . S
O166 C160 1.248 . S
O167 Mg150 2.079 . S
O167 C160 1.264 . S
O168 Mg169 1.990 . S
O168 C182 1.253 . S
Mg169 O168 1.990 . S
Mg169 O172 2.180 . S
Mg169 O173 2.117 . S
Mg169 O187 2.030 . S
O170 Mg171 2.072 . S
O170 C182 1.260 . S
Mg171 O170 2.072 . S
Mg171 O172 2.099 . S
Mg171 O174 2.079 1_556 S
Mg171 O175 2.072 . S
Mg171 O177 2.099 . S
Mg171 O188 2.079 . S
O172 Mg169 2.180 . S
O172 Mg171 2.099 . S
O172 C183 1.279 . S
O173 Mg169 2.117 . S
O173 C183 1.250 . S
O174 Mg171 2.079 1_554 S
O174 C184 1.264 . S
O175 Mg171 2.072 . S
O175 C185 1.260 1_655 S
Mg176 O177 2.180 1_554 S
Mg176 O178 2.030 . S
Mg176 O179 1.990 1_654 S
Mg176 O180 2.117 1_554 S
O177 Mg171 2.099 . S
O177 Mg176 2.180 1_556 S
O177 C186 1.279 . S
O178 Mg176 2.030 . S
O178 C184 1.248 . S
O179 Mg176 1.990 1_456 S
O179 C185 1.253 . S
O180 Mg176 2.117 1_556 S
O180 C186 1.250 . S
C181 O187 1.248 . S
C181 O188 1.264 . S
C182 O168 1.253 . S
C182 O170 1.260 . S
C183 O172 1.279 . S
C183 O173 1.250 . S
C184 O174 1.264 . S
C184 O178 1.248 . S
C185 O175 1.260 1_455 S
C185 O179 1.253 . S
C186 O177 1.279 . S
C186 O180 1.250 . S
O187 Mg169 2.030 . S
O187 C181 1.248 . S
O188 Mg171 2.079 . S
O188 C181 1.264 . S
O189 Mg190 1.990 . S
O189 C203 1.253 . S
Mg190 O189 1.990 . S
Mg190 O193 2.180 . S
Mg190 O194 2.117 . S
Mg190 O208 2.030 . S
O191 Mg192 2.072 . S
O191 C203 1.260 . S
Mg192 O191 2.072 . S
Mg192 O193 2.099 . S
Mg192 O195 2.079 1_556 S
Mg192 O196 2.072 . S
Mg192 O198 2.099 . S
Mg192 O209 2.079 . S
O193 Mg190 2.180 . S
O193 Mg192 2.099 . S
O193 C204 1.279 . S
O194 Mg190 2.117 . S
O194 C204 1.250 . S
O195 Mg192 2.079 1_554 S
O195 C205 1.264 . S
O196 Mg192 2.072 . S
O196 C206 1.260 . S
Mg197 O198 2.180 1_554 S
Mg197 O199 2.030 . S
Mg197 O200 1.990 1_554 S
Mg197 O201 2.117 1_554 S
O198 Mg192 2.099 . S
O198 Mg197 2.180 1_556 S
O198 C207 1.279 . S
O199 Mg197 2.030 . S
O199 C205 1.248 . S
O200 Mg197 1.990 1_556 S
O200 C206 1.253 . S
O201 Mg197 2.117 1_556 S
O201 C207 1.250 . S
C202 O208 1.248 . S
C202 O209 1.264 . S
C203 O189 1.253 . S
C203 O191 1.260 . S
C204 O193 1.279 . S
C204 O194 1.250 . S
C205 O195 1.264 . S
C205 O199 1.248 . S
C206 O196 1.260 . S
C206 O200 1.253 . S
C207 O198 1.279 . S
C207 O201 1.250 . S
O208 Mg190 2.030 . S
O208 C202 1.248 . S
O209 Mg192 2.079 . S
O209 C202 1.264 . S
O210 Mg211 1.990 . S
O210 C224 1.253 . S
Mg211 O210 1.990 . S
Mg211 O214 2.180 . S
Mg211 O215 2.117 . S
Mg211 O229 2.030 . S
O212 Mg213 2.072 . S
O212 C224 1.260 . S
Mg213 O212 2.072 . S
Mg213 O214 2.099 . S
Mg213 O216 2.079 1_556 S
Mg213 O217 2.072 . S
Mg213 O219 2.099 . S
Mg213 O230 2.079 . S
O214 Mg211 2.180 . S
O214 Mg213 2.099 . S
O214 C225 1.279 . S
O215 Mg211 2.117 . S
O215 C225 1.250 . S
O216 Mg213 2.079 1_554 S
O216 C226 1.264 . S
O217 Mg213 2.072 . S
O217 C227 1.273 . S
Mg218 O219 2.180 1_554 S
Mg218 O220 2.030 . S
Mg218 O221 1.990 1_654 S
Mg218 O222 2.117 1_554 S
O219 Mg213 2.099 . S
O219 Mg218 2.180 1_556 S
O219 C228 1.279 . S
O220 Mg218 2.030 . S
O220 C226 1.248 . S
O221 Mg218 1.990 1_456 S
O221 C227 1.257 1_455 S
O222 Mg218 2.117 1_556 S
O222 C228 1.250 . S
C223 O229 1.248 . S
C223 O230 1.264 . S
C224 O210 1.253 . S
C224 O212 1.260 . S
C225 O214 1.279 . S
C225 O215 1.250 . S
C226 O216 1.264 . S
C226 O220 1.248 . S
C227 O217 1.273 . S
C227 O221 1.257 1_655 S
C228 O219 1.279 . S
C228 O222 1.250 . S
O229 Mg211 2.030 . S
O229 C223 1.248 . S
O230 Mg213 2.079 . S
O230 C223 1.264 . S
O231 Mg232 1.990 . S
O231 C245 1.253 . S
Mg232 O231 1.990 . S
Mg232 O235 2.180 . S
Mg232 O236 2.117 . S
Mg232 O250 2.030 . S
O233 Mg234 2.072 . S
O233 C245 1.260 . S
Mg234 O233 2.072 . S
Mg234 O235 2.099 . S
Mg234 O237 2.079 1_556 S
Mg234 O238 2.072 . S
Mg234 O240 2.099 . S
Mg234 O251 2.079 . S
O235 Mg232 2.180 . S
O235 Mg234 2.099 . S
O235 C246 1.279 . S
O236 Mg232 2.117 . S
O236 C246 1.250 . S
O237 Mg234 2.079 1_554 S
O237 C247 1.264 . S
O238 Mg234 2.072 . S
O238 C248 1.260 . S
Mg239 O240 2.180 1_554 S
Mg239 O241 2.030 . S
Mg239 O242 1.990 1_554 S
Mg239 O243 2.117 1_554 S
O240 Mg234 2.099 . S
O240 Mg239 2.180 1_556 S
O240 C249 1.279 . S
O241 Mg239 2.030 . S
O241 C247 1.248 . S
O242 Mg239 1.990 1_556 S
O242 C248 1.253 . S
O243 Mg239 2.117 1_556 S
O243 C249 1.250 . S
C244 O250 1.248 . S
C244 O251 1.264 . S
C245 O231 1.253 . S
C245 O233 1.260 . S
C246 O235 1.279 . S
C246 O236 1.250 . S
C247 O237 1.264 . S
C247 O241 1.248 . S
C248 O238 1.260 . S
C248 O242 1.253 . S
C249 O240 1.279 . S
C249 O243 1.250 . S
O250 Mg232 2.030 . S
O250 C244 1.248 . S
O251 Mg234 2.079 . S
O251 C244 1.264 . S
O252 Mg253 1.990 . S
O252 C266 1.253 . S
Mg253 O252 1.990 . S
Mg253 O256 2.180 . S
Mg253 O257 2.117 . S
Mg253 O271 2.030 . S
O254 Mg255 2.072 . S
O254 C266 1.260 . S
Mg255 O254 2.072 . S
Mg255 O256 2.099 . S
Mg255 O258 2.079 1_554 S
Mg255 O259 2.072 . S
Mg255 O261 2.099 . S
Mg255 O272 2.079 . S
O256 Mg253 2.180 . S
O256 Mg255 2.099 . S
O256 C267 1.279 . S
O257 Mg253 2.117 . S
O257 C267 1.250 . S
O258 Mg255 2.079 1_556 S
O258 C268 1.264 . S
O259 Mg255 2.072 . S
O259 C269 1.260 1_565 S
Mg260 O261 2.180 1_556 S
Mg260 O262 2.030 . S
Mg260 O263 1.990 1_566 S
Mg260 O264 2.117 1_556 S
O261 Mg255 2.099 . S
O261 Mg260 2.180 1_554 S
O261 C270 1.279 . S
O262 Mg260 2.030 . S
O262 C268 1.248 . S
O263 Mg260 1.990 1_544 S
O263 C269 1.253 . S
O264 Mg260 2.117 1_554 S
O264 C270 1.250 . S
C265 O271 1.248 . S
C265 O272 1.264 . S
C266 O252 1.253 . S
C266 O254 1.260 . S
C267 O256 1.279 . S
C267 O257 1.250 . S
C268 O258 1.264 . S
C268 O262 1.248 . S
C269 O259 1.260 1_545 S
C269 O263 1.253 . S
C270 O261 1.279 . S
C270 O264 1.250 . S
O271 Mg253 2.030 . S
O271 C265 1.248 . S
O272 Mg255 2.079 . S
O272 C265 1.264 . S
O273 Mg274 1.990 . S
O273 C287 1.253 . S
Mg274 O273 1.990 . S
Mg274 O277 2.180 1_556 S
Mg274 O278 2.117 1_556 S
Mg274 O292 2.030 . S
O275 Mg276 2.072 1_556 S
O275 C287 1.260 . S
Mg276 O275 2.072 1_554 S
Mg276 O277 2.099 . S
Mg276 O279 2.079 . S
Mg276 O280 2.072 . S
Mg276 O282 2.099 . S
Mg276 O293 2.079 . S
O277 Mg274 2.180 1_554 S
O277 Mg276 2.099 . S
O277 C288 1.279 . S
O278 Mg274 2.117 1_554 S
O278 C288 1.250 . S
O279 Mg276 2.079 . S
O279 C289 1.264 . S
O280 Mg276 2.072 . S
O280 C290 1.260 . S
Mg281 O282 2.180 . S
Mg281 O283 2.030 . S
Mg281 O284 1.990 . S
Mg281 O285 2.117 1_455 S
O282 Mg276 2.099 . S
O282 Mg281 2.180 . S
O282 C291 1.279 . S
O283 Mg281 2.030 . S
O283 C289 1.248 . S
O284 Mg281 1.990 . S
O284 C290 1.253 . S
O285 Mg281 2.117 1_655 S
O285 C291 1.250 1_655 S
C286 O292 1.248 1_554 S
C286 O293 1.264 . S
C287 O273 1.253 . S
C287 O275 1.260 . S
C288 O277 1.279 . S
C288 O278 1.250 . S
C289 O279 1.264 . S
C289 O283 1.248 . S
C290 O280 1.260 . S
C290 O284 1.253 . S
C291 O282 1.279 . S
C291 O285 1.250 1_455 S
O292 Mg274 2.030 . S
O292 C286 1.248 1_556 S
O293 Mg276 2.079 . S
O293 C286 1.264 . S
O294 Mg295 1.990 . S
O294 C308 1.253 . S
Mg295 O294 1.990 . S
Mg295 O298 2.180 . S
Mg295 O299 2.117 . S
Mg295 O313 2.030 . S
O296 Mg297 2.072 . S
O296 C308 1.260 . S
Mg297 O296 2.072 . S
Mg297 O298 2.099 . S
Mg297 O300 2.079 1_554 S
Mg297 O301 2.072 . S
Mg297 O303 2.099 . S
Mg297 O314 2.079 . S
O298 Mg295 2.180 . S
O298 Mg297 2.099 . S
O298 C309 1.279 . S
O299 Mg295 2.117 . S
O299 C309 1.250 . S
O300 Mg297 2.079 1_556 S
O300 C310 1.264 . S
O301 Mg297 2.072 . S
O301 C311 1.260 . S
Mg302 O303 2.180 1_556 S
Mg302 O304 2.030 . S
Mg302 O305 1.990 1_556 S
Mg302 O306 2.117 1_556 S
O303 Mg297 2.099 . S
O303 Mg302 2.180 1_554 S
O303 C312 1.279 . S
O304 Mg302 2.030 . S
O304 C310 1.248 . S
O305 Mg302 1.990 1_554 S
O305 C311 1.253 . S
O306 Mg302 2.117 1_554 S
O306 C312 1.250 . S
C307 O313 1.248 . S
C307 O314 1.264 . S
C308 O294 1.253 . S
C308 O296 1.260 . S
C309 O298 1.279 . S
C309 O299 1.250 . S
C310 O300 1.264 . S
C310 O304 1.248 . S
C311 O301 1.260 . S
C311 O305 1.253 . S
C312 O303 1.279 . S
C312 O306 1.250 . S
O313 Mg295 2.030 . S
O313 C307 1.248 . S
O314 Mg297 2.079 . S
O314 C307 1.264 . S
O315 Mg316 1.990 . S
O315 C329 1.253 . S
Mg316 O315 1.990 . S
Mg316 O319 2.180 1_556 S
Mg316 O320 2.117 1_556 S
Mg316 O334 2.030 . S
O317 Mg318 2.072 1_556 S
O317 C329 1.260 . S
Mg318 O317 2.072 1_554 S
Mg318 O319 2.099 . S
Mg318 O321 2.079 . S
Mg318 O322 2.072 . S
Mg318 O324 2.099 . S
Mg318 O335 2.079 . S
O319 Mg316 2.180 1_554 S
O319 Mg318 2.099 . S
O319 C330 1.279 . S
O320 Mg316 2.117 1_554 S
O320 C330 1.250 . S
O321 Mg318 2.079 . S
O321 C331 1.264 . S
O322 Mg318 2.072 . S
O322 C332 1.260 . S
Mg323 O324 2.180 . S
Mg323 O325 2.030 . S
Mg323 O326 1.990 . S
Mg323 O327 2.117 . S
O324 Mg318 2.099 . S
O324 Mg323 2.180 . S
O324 C333 1.279 . S
O325 Mg323 2.030 . S
O325 C331 1.248 . S
O326 Mg323 1.990 . S
O326 C332 1.253 . S
O327 Mg323 2.117 . S
O327 C333 1.250 . S
C328 O334 1.248 1_554 S
C328 O335 1.264 . S
C329 O315 1.253 . S
C329 O317 1.260 . S
C330 O319 1.279 . S
C330 O320 1.250 . S
C331 O321 1.264 . S
C331 O325 1.248 . S
C332 O322 1.260 . S
C332 O326 1.253 . S
C333 O324 1.279 . S
C333 O327 1.250 . S
O334 Mg316 2.030 . S
O334 C328 1.248 1_556 S
O335 Mg318 2.079 . S
O335 C328 1.264 . S
O336 Mg337 1.990 . S
O336 C350 1.253 . S
Mg337 O336 1.990 . S
Mg337 O340 2.180 . S
Mg337 O341 2.117 . S
Mg337 O355 2.030 . S
O338 Mg339 2.072 . S
O338 C350 1.260 . S
Mg339 O338 2.072 . S
Mg339 O340 2.099 . S
Mg339 O342 2.079 1_554 S
Mg339 O343 2.072 . S
Mg339 O345 2.099 . S
Mg339 O356 2.079 . S
O340 Mg337 2.180 . S
O340 Mg339 2.099 . S
O340 C351 1.279 . S
O341 Mg337 2.117 . S
O341 C351 1.250 . S
O342 Mg339 2.079 1_556 S
O342 C352 1.264 . S
O343 Mg339 2.072 . S
O343 C353 1.260 1_565 S
Mg344 O345 2.180 1_556 S
Mg344 O346 2.030 . S
Mg344 O347 1.990 1_566 S
Mg344 O348 2.117 1_556 S
O345 Mg339 2.099 . S
O345 Mg344 2.180 1_554 S
O345 C354 1.279 . S
O346 Mg344 2.030 . S
O346 C352 1.248 . S
O347 Mg344 1.990 1_544 S
O347 C353 1.253 . S
O348 Mg344 2.117 1_554 S
O348 C354 1.250 . S
C349 O355 1.248 . S
C349 O356 1.264 . S
C350 O336 1.253 . S
C350 O338 1.260 . S
C351 O340 1.279 . S
C351 O341 1.250 . S
C352 O342 1.264 . S
C352 O346 1.248 . S
C353 O343 1.260 1_545 S
C353 O347 1.253 . S
C354 O345 1.279 . S
C354 O348 1.250 . S
O355 Mg337 2.030 . S
O355 C349 1.248 . S
O356 Mg339 2.079 . S
O356 C349 1.264 . S
O357 Mg358 1.990 . S
O357 C371 1.253 . S
Mg358 O357 1.990 . S
Mg358 O361 2.180 1_556 S
Mg358 O362 2.117 1_556 S
Mg358 O376 2.030 . S
O359 Mg360 2.072 1_556 S
O359 C371 1.260 . S
Mg360 O359 2.072 1_554 S
Mg360 O361 2.099 . S
Mg360 O363 2.079 . S
Mg360 O364 2.072 . S
Mg360 O366 2.099 . S
Mg360 O377 2.079 . S
O361 Mg358 2.180 1_554 S
O361 Mg360 2.099 . S
O361 C372 1.279 . S
O362 Mg358 2.117 1_554 S
O362 C372 1.250 . S
O363 Mg360 2.079 . S
O363 C373 1.264 . S
O364 Mg360 2.072 . S
O364 C374 1.260 . S
Mg365 O366 2.180 . S
Mg365 O367 2.030 . S
Mg365 O368 1.990 . S
Mg365 O369 2.117 1_455 S
O366 Mg360 2.099 . S
O366 Mg365 2.180 . S
O366 C375 1.279 . S
O367 Mg365 2.030 . S
O367 C373 1.248 . S
O368 Mg365 1.990 . S
O368 C374 1.253 . S
O369 Mg365 2.117 1_655 S
O369 C375 1.250 1_655 S
C370 O376 1.248 1_554 S
C370 O377 1.264 . S
C371 O357 1.253 . S
C371 O359 1.260 . S
C372 O361 1.279 . S
C372 O362 1.250 . S
C373 O363 1.264 . S
C373 O367 1.248 . S
C374 O364 1.260 . S
C374 O368 1.253 . S
C375 O366 1.279 . S
C375 O369 1.250 1_455 S
O376 Mg358 2.030 . S
O376 C370 1.248 1_556 S
O377 Mg360 2.079 . S
O377 C370 1.264 . S
C290 C17 1.459 . S
C39 C312 1.889 . S
C59 C270 1.578 . S
C60 C165 1.868 . S
C186 C18 1.894 . S
C38 C144 1.635 . S
C80 C228 1.621 . S
C102 C249 1.836 . S
C207 C122 1.561 . S
C354 C123 1.887 . S
C81 C374 1.580 . S
C332 C101 1.457 . S
C185 C291 1.571 1_556 S
C143 C311 1.434 1_556 S
C164 C269 1.473 1_556 S
C206 C353 1.483 1_556 S
C375 C227 1.599 1_454 S
C333 C248 1.608 1_554 S
C15 C99 0.885 . S
C118 C34 1.820 . S
C76 C57 1.533 . S
C97 C55 1.751 . S
C120 C13 1.591 . S
C78 C36 1.045 . S
C223 C139 1.605 . S
C244 C160 1.756 . S
C202 C181 1.679 . S
C225 C183 1.006 . S
C246 C141 0.918 . S
C204 C162 0.829 . S
C351 C267 0.830 . S
C370 C286 1.565 . S
C309 C328 1.418 . S
C307 C349 1.704 . S
C265 C372 1.421 . S
C330 C288 0.746 . S
C16 C14 1.477 1_554 S
C35 C37 1.491 1_554 S
C58 C56 1.446 1_554 S
C79 C77 1.479 1_556 S
C100 C98 1.477 1_554 S
C119 C121 1.467 1_554 S
C142 C140 1.502 . S
C161 C163 1.478 . S
C184 C182 1.487 . S
C205 C203 1.467 . S
C226 C224 1.476 . S
C247 C245 1.453 . S
C266 C268 1.473 . S
C287 C289 1.494 . S
C310 C308 1.460 . S
C329 C331 1.495 . S
C352 C350 1.485 . S
C373 C371 1.463 . S
