# Generated by pormake.
# Topology ukg, (4)-cn, num edge types: 1
# Building blocks:
#     Node 0, Type 0, BuildingBlock: KUFVIS_clean_sbu_0, # of connection points: 4
#     Node 1, Type 0, BuildingBlock: KUFVIS_clean_sbu_0, # of connection points: 4
#     Node 2, Type 0, BuildingBlock: KUFVIS_clean_sbu_0, # of connection points: 4
#     Node 3, Type 0, BuildingBlock: KUFVIS_clean_sbu_0, # of connection points: 4
#     Node 4, Type 0, BuildingBlock: KUFVIS_clean_sbu_0, # of connection points: 4
#     Node 5, Type 0, BuildingBlock: KUFVIS_clean_sbu_0, # of connection points: 4
#     Node 6, Type 0, BuildingBlock: KUFVIS_clean_sbu_0, # of connection points: 4
#     Node 7, Type 0, BuildingBlock: KUFVIS_clean_sbu_0, # of connection points: 4
#     Edge 8, Type (0, 0), BuildingBlock: XUDNAN_clean_linker_2, # of connection points: 2
#     Edge 9, Type (0, 0), BuildingBlock: XUDNAN_clean_linker_2, # of connection points: 2
#     Edge 10, Type (0, 0), BuildingBlock: XUDNAN_clean_linker_2, # of connection points: 2
#     Edge 11, Type (0, 0), BuildingBlock: XUDNAN_clean_linker_2, # of connection points: 2
#     Edge 12, Type (0, 0), BuildingBlock: XUDNAN_clean_linker_2, # of connection points: 2
#     Edge 13, Type (0, 0), BuildingBlock: XUDNAN_clean_linker_2, # of connection points: 2
#     Edge 14, Type (0, 0), BuildingBlock: XUDNAN_clean_linker_2, # of connection points: 2
#     Edge 15, Type (0, 0), BuildingBlock: XUDNAN_clean_linker_2, # of connection points: 2
#     Edge 16, Type (0, 0), BuildingBlock: XUDNAN_clean_linker_2, # of connection points: 2
#     Edge 17, Type (0, 0), BuildingBlock: XUDNAN_clean_linker_2, # of connection points: 2
#     Edge 18, Type (0, 0), BuildingBlock: XUDNAN_clean_linker_2, # of connection points: 2
#     Edge 19, Type (0, 0), BuildingBlock: XUDNAN_clean_linker_2, # of connection points: 2
#     Edge 20, Type (0, 0), BuildingBlock: XUDNAN_clean_linker_2, # of connection points: 2
#     Edge 21, Type (0, 0), BuildingBlock: XUDNAN_clean_linker_2, # of connection points: 2
#     Edge 22, Type (0, 0), BuildingBlock: XUDNAN_clean_linker_2, # of connection points: 2
#     Edge 23, Type (0, 0), BuildingBlock: XUDNAN_clean_linker_2, # of connection points: 2
# Relax obj value: 0.155
# Max RMSD: 0.245
# Mean RMSD: 0.245
data_MOF--net-ukg--node1-KUFVIS_clean_sbu_0--edge1-XUDNAN_clean_linker_2
_symmetry_space_group_name_H-M    P1
_symmetry_Int_Tables_number       1
_symmetry_cell_setting            triclinic
loop_
_symmetry_equiv_pos_as_xyz
'x, y, z'
_cell_length_a     30.423385
_cell_length_b     30.525125
_cell_length_c     35.743871
_cell_angle_alpha  90.048291
_cell_angle_beta   90.012077
_cell_angle_gamma 90.128593
loop_
_atom_site_label
_atom_site_type_symbol
_atom_site_fract_x
_atom_site_fract_y
_atom_site_fract_z
_atom_type_partial_charge
Mn0 Mn 0.00959 0.65403 0.16543 0.0
Mn1 Mn 0.01487 0.72138 0.09028 0.0
C2 C 0.98968 0.72679 0.17065 0.0
C3 C 0.97192 0.60682 0.20553 0.0
C4 C 0.09416 0.69737 0.13666 0.0
O5 O 0.01397 0.6101 0.12201 0.0
O6 O 0.01724 0.6591 0.07502 0.0
C7 C 0.92915 0.69734 0.05668 0.0
N8 N 0.95706 0.72846 0.07028 0.0
C9 C 0.90521 0.78579 0.05694 0.0
C10 C 0.87602 0.75438 0.04259 0.0
C11 C 0.88802 0.70996 0.04253 0.0
C12 C 0.9458 0.77129 0.07054 0.0
H13 H 0.9382 0.66315 0.05668 0.0
C14 C 0.01702 0.61968 0.08724 0.0
O15 O 0.01454 0.60749 0.2045 0.0
O16 O 0.95137 0.63082 0.18131 0.0
N17 N 0.01268 0.78286 0.1006 0.0
C18 C 0.04397 0.80885 0.11661 0.0
C19 C 0.03666 0.85412 0.11957 0.0
C20 C 0.99757 0.87228 0.10565 0.0
C21 C 0.96627 0.84501 0.08859 0.0
C22 C 0.97549 0.80016 0.08621 0.0
H23 H 0.0741 0.79511 0.12735 0.0
O24 O 0.00102 0.70452 0.19989 0.0
O25 O 0.98944 0.70587 0.13894 0.0
O26 O 0.0743 0.67169 0.15924 0.0
O27 O 0.07528 0.71708 0.10962 0.0
C28 C 0.92589 0.86043 0.07455 0.0
C29 C 0.89535 0.83084 0.05881 0.0
H30 H 0.84419 0.76395 0.03178 0.0
H31 H 0.8656 0.6855 0.03165 0.0
H32 H 0.06106 0.87495 0.13264 0.0
H33 H 0.99184 0.90715 0.10837 0.0
H34 H 0.91776 0.89491 0.07615 0.0
H35 H 0.8642 0.84302 0.04851 0.0
Mn36 Mn 0.31169 0.50876 0.6596 0.0
Mn37 Mn 0.24633 0.519 0.584 0.0
C38 C 0.23626 0.50451 0.66591 0.0
C39 C 0.35096 0.4645 0.70043 0.0
C40 C 0.28346 0.59665 0.62585 0.0
O41 O 0.35588 0.50215 0.6168 0.0
O42 O 0.30876 0.51116 0.5691 0.0
C43 C 0.25797 0.42802 0.55698 0.0
N44 N 0.23104 0.4609 0.56867 0.0
C45 C 0.16717 0.41485 0.56231 0.0
C46 C 0.19419 0.38058 0.55005 0.0
C47 C 0.23979 0.38718 0.54744 0.0
C48 C 0.18717 0.45474 0.57164 0.0
H49 H 0.29305 0.43286 0.55505 0.0
C50 C 0.34762 0.50517 0.5819 0.0
O51 O 0.3595 0.50617 0.69822 0.0
O52 O 0.32242 0.44856 0.67727 0.0
N53 N 0.18493 0.52648 0.59361 0.0
C54 C 0.16328 0.56349 0.60424 0.0
C55 C 0.11732 0.56252 0.60793 0.0
C56 C 0.09408 0.52381 0.59998 0.0
C57 C 0.11694 0.48664 0.58771 0.0
C58 C 0.16271 0.4896 0.58447 0.0
H59 H 0.18098 0.59339 0.61026 0.0
O60 O 0.26095 0.51278 0.69453 0.0
O61 O 0.2565 0.497 0.63447 0.0
O62 O 0.30628 0.57471 0.64936 0.0
O63 O 0.26 0.57937 0.60001 0.0
C64 C 0.09607 0.44691 0.57825 0.0
C65 C 0.12118 0.411 0.56567 0.0
H66 H 0.18029 0.34905 0.54261 0.0
H67 H 0.26089 0.36085 0.5381 0.0
H68 H 0.09987 0.59151 0.61698 0.0
H69 H 0.05866 0.52312 0.60301 0.0
H70 H 0.06073 0.44359 0.5806 0.0
H71 H 0.10477 0.38054 0.55866 0.0
Mn72 Mn 0.48279 0.84539 0.16855 0.0
Mn73 Mn 0.47641 0.77056 0.09899 0.0
C74 C 0.49858 0.77282 0.18009 0.0
C75 C 0.52289 0.89514 0.20429 0.0
C76 C 0.39677 0.80584 0.13971 0.0
O77 O 0.48294 0.8837 0.12154 0.0
O78 O 0.48133 0.83044 0.07781 0.0
C79 C 0.56563 0.78163 0.06724 0.0
N80 N 0.53422 0.75539 0.08262 0.0
C81 C 0.58109 0.69221 0.07806 0.0
C82 C 0.61382 0.7185 0.06191 0.0
C83 C 0.60607 0.76341 0.05654 0.0
C84 C 0.54129 0.71211 0.08784 0.0
H85 H 0.55992 0.81621 0.06324 0.0
C86 C 0.48327 0.87086 0.08745 0.0
O87 O 0.48031 0.89748 0.20254 0.0
O88 O 0.54203 0.86614 0.18347 0.0
N89 N 0.47223 0.71117 0.11583 0.0
C90 C 0.43853 0.69104 0.13421 0.0
C91 C 0.44185 0.64638 0.14314 0.0
C92 C 0.47957 0.62282 0.13286 0.0
C93 C 0.51364 0.64414 0.11369 0.0
C94 C 0.50838 0.68864 0.10531 0.0
H95 H 0.40952 0.709 0.14234 0.0
O96 O 0.48729 0.79861 0.20726 0.0
O97 O 0.50041 0.79022 0.14698 0.0
O98 O 0.41734 0.83133 0.16199 0.0
O99 O 0.41555 0.78289 0.11452 0.0
C100 C 0.55309 0.62326 0.10342 0.0
C101 C 0.58679 0.64727 0.08562 0.0
H102 H 0.64519 0.70465 0.05389 0.0
H103 H 0.63127 0.78396 0.04429 0.0
H104 H 0.41549 0.6302 0.15809 0.0
H105 H 0.4822 0.58849 0.14013 0.0
H106 H 0.55815 0.58891 0.10963 0.0
H107 H 0.61724 0.63101 0.07839 0.0
Mn108 Mn 0.18987 0.00106 0.64111 0.0
Mn109 Mn 0.2586 0.98236 0.56877 0.0
C110 C 0.26482 0.00923 0.64917 0.0
C111 C 0.14761 0.04789 0.67739 0.0
C112 C 0.21877 0.90998 0.61551 0.0
O113 O 0.14804 0.00205 0.59643 0.0
O114 O 0.19722 0.99041 0.55045 0.0
C115 C 0.25235 0.06903 0.53206 0.0
N116 N 0.27719 0.03697 0.54794 0.0
C117 C 0.3438 0.07749 0.5366 0.0
C118 C 0.31896 0.11081 0.51988 0.0
C119 C 0.27304 0.10657 0.51766 0.0
C120 C 0.32142 0.04063 0.5501 0.0
H121 H 0.21704 0.066 0.53043 0.0
C122 C 0.15786 0.99726 0.56193 0.0
O123 O 0.14036 0.00595 0.67766 0.0
O124 O 0.17662 0.0626 0.654 0.0
N125 N 0.31892 0.97446 0.58232 0.0
C126 C 0.33767 0.94099 0.60181 0.0
C127 C 0.38323 0.94128 0.6081 0.0
C128 C 0.40907 0.97569 0.59399 0.0
C129 C 0.38909 0.00953 0.5737 0.0
C130 C 0.34355 0.00742 0.56818 0.0
H131 H 0.31795 0.91455 0.61287 0.0
O132 O 0.23912 0.00256 0.67749 0.0
O133 O 0.24585 0.01156 0.6165 0.0
O134 O 0.19633 0.93447 0.63719 0.0
O135 O 0.24244 0.92443 0.58875 0.0
C136 C 0.41238 0.04594 0.55969 0.0
C137 C 0.38976 0.07988 0.54114 0.0
H138 H 0.33475 0.13999 0.50902 0.0
H139 H 0.25363 0.13225 0.50497 0.0
H140 H 0.39838 0.91515 0.62393 0.0
H141 H 0.44413 0.97602 0.59924 0.0
H142 H 0.4476 0.04851 0.56358 0.0
H143 H 0.40795 0.108 0.53098 0.0
Mn144 Mn 0.9747 0.32596 0.84114 0.0
Mn145 Mn 0.99624 0.26685 0.91831 0.0
C146 C 0.99619 0.25417 0.83545 0.0
C147 C 0.00068 0.37297 0.79502 0.0
C148 C 0.90384 0.28793 0.89209 0.0
O149 O 0.98253 0.37192 0.88148 0.0
O150 O 1.00012 0.33056 0.9316 0.0
C151 C 0.0899 0.29027 0.92877 0.0
N152 N 0.05838 0.25929 0.92276 0.0
C153 C 0.11271 0.20227 0.91906 0.0
C154 C 0.14571 0.23352 0.92551 0.0
C155 C 0.13423 0.27771 0.93041 0.0
C156 C 0.06903 0.21662 0.91831 0.0
H157 H 0.0813 0.32436 0.93209 0.0
C158 C 0.99379 0.36773 0.9157 0.0
O159 O 0.95903 0.37182 0.80318 0.0
O160 O 0.02666 0.34805 0.81407 0.0
N161 N 0.99424 0.20517 0.90851 0.0
C162 C 0.95888 0.17974 0.89957 0.0
C163 C 0.965 0.135 0.8921 0.0
C164 C 0.00734 0.11688 0.89383 0.0
C165 C 0.04321 0.14368 0.90316 0.0
C166 C 0.03507 0.18796 0.9107 0.0
H167 H 0.92634 0.19359 0.89769 0.0
O168 O 0.97465 0.27304 0.80858 0.0
O169 O 0.00369 0.27813 0.86489 0.0
O170 O 0.9146 0.30867 0.86245 0.0
O171 O 0.93164 0.27206 0.9152 0.0
C172 C 0.08686 0.12842 0.90427 0.0
C173 C 0.12157 0.15767 0.91229 0.0
H174 H 0.17999 0.22405 0.92632 0.0
H175 H 0.15953 0.30207 0.93513 0.0
H176 H 0.93719 0.11459 0.88468 0.0
H177 H 0.012 0.08249 0.88755 0.0
H178 H 0.09416 0.09437 0.89847 0.0
H179 H 0.15505 0.14566 0.91257 0.0
Mn180 Mn 0.66348 0.48689 0.35164 0.0
Mn181 Mn 0.71616 0.47893 0.4341 0.0
C182 C 0.73792 0.49764 0.35319 0.0
C183 C 0.62422 0.52742 0.30874 0.0
C184 C 0.69171 0.40036 0.38696 0.0
O185 O 0.61443 0.48913 0.38917 0.0
O186 O 0.65092 0.48421 0.44362 0.0
C187 C 0.69739 0.56807 0.46262 0.0
N188 N 0.72697 0.53672 0.45265 0.0
C189 C 0.78776 0.58427 0.46744 0.0
C190 C 0.75794 0.61692 0.47814 0.0
C191 C 0.71257 0.60878 0.47568 0.0
C192 C 0.77071 0.54418 0.45498 0.0
H193 H 0.66248 0.56212 0.46053 0.0
C194 C 0.6152 0.48803 0.42471 0.0
O195 O 0.62081 0.48502 0.30941 0.0
O196 O 0.64902 0.54614 0.33352 0.0
N197 N 0.77872 0.47439 0.42967 0.0
C198 C 0.80312 0.44031 0.41644 0.0
C199 C 0.84913 0.44383 0.41576 0.0
C200 C 0.8696 0.48212 0.42894 0.0
C201 C 0.84385 0.51654 0.44281 0.0
C202 C 0.79811 0.51111 0.44296 0.0
H203 H 0.78763 0.41087 0.40606 0.0
O204 O 0.71798 0.48778 0.32225 0.0
O205 O 0.71301 0.50267 0.38281 0.0
O206 O 0.67246 0.4218 0.36117 0.0
O207 O 0.70806 0.41814 0.41621 0.0
C208 C 0.86172 0.55641 0.45569 0.0
C209 C 0.8337 0.59024 0.46802 0.0
H210 H 0.76951 0.64849 0.48796 0.0
H211 H 0.68935 0.63391 0.48369 0.0
H212 H 0.86877 0.41716 0.40494 0.0
H213 H 0.90509 0.48486 0.42807 0.0
H214 H 0.89695 0.56158 0.45584 0.0
H215 H 0.84783 0.62091 0.47749 0.0
Mn216 Mn 0.52129 0.1692 0.84157 0.0
Mn217 Mn 0.49805 0.22125 0.9223 0.0
C218 C 0.49444 0.23953 0.84012 0.0
C219 C 0.4981 0.12342 0.79339 0.0
C220 C 0.59078 0.20962 0.89258 0.0
O221 O 0.51989 0.12009 0.87974 0.0
O222 O 0.49929 0.15668 0.93168 0.0
C223 C 0.40678 0.19027 0.93365 0.0
N224 N 0.4358 0.22387 0.92902 0.0
C225 C 0.37778 0.27718 0.9325 0.0
C226 C 0.34731 0.24316 0.93759 0.0
C227 C 0.36189 0.19953 0.93815 0.0
C228 C 0.42217 0.266 0.92868 0.0
H229 H 0.41778 0.15666 0.93378 0.0
C230 C 0.50894 0.1212 0.91422 0.0
O231 O 0.53972 0.12873 0.80028 0.0
O232 O 0.47046 0.1434 0.81491 0.0
N233 N 0.49531 0.28357 0.9167 0.0
C234 C 0.52838 0.31224 0.90868 0.0
C235 C 0.51896 0.35709 0.90537 0.0
C236 C 0.47573 0.37199 0.91046 0.0
C237 C 0.44229 0.3419 0.91893 0.0
C238 C 0.4537 0.29763 0.92216 0.0
H239 H 0.5616 0.30094 0.90436 0.0
O240 O 0.51543 0.22367 0.81162 0.0
O241 O 0.48925 0.21328 0.86849 0.0
O242 O 0.58054 0.19062 0.86195 0.0
O243 O 0.56269 0.22109 0.91729 0.0
C244 C 0.39791 0.35395 0.92329 0.0
C245 C 0.36569 0.32163 0.93013 0.0
H246 H 0.3126 0.25012 0.94066 0.0
H247 H 0.33854 0.17308 0.94183 0.0
H248 H 0.54489 0.38008 0.89861 0.0
H249 H 0.4685 0.40654 0.90742 0.0
H250 H 0.3881 0.38792 0.92087 0.0
H251 H 0.33159 0.33124 0.93291 0.0
Mn252 Mn 0.84113 0.02216 0.3317 0.0
Mn253 Mn 0.79154 0.02112 0.41584 0.0
C254 C 0.76662 0.01366 0.33459 0.0
C255 C 0.87772 0.98454 0.28515 0.0
C256 C 0.8137 0.10457 0.37464 0.0
O257 O 0.89186 0.01563 0.36743 0.0
O258 O 0.85705 0.01666 0.42273 0.0
C259 C 0.81392 0.9291 0.4338 0.0
N260 N 0.78307 0.96064 0.42792 0.0
C261 C 0.72436 0.90814 0.43413 0.0
C262 C 0.7555 0.87518 0.44046 0.0
C263 C 0.80047 0.88574 0.44033 0.0
C264 C 0.73971 0.9508 0.42791 0.0
H265 H 0.84854 0.93687 0.43326 0.0
C266 C 0.8922 0.01455 0.40297 0.0
O267 O 0.88236 0.02671 0.28832 0.0
O268 O 0.85336 0.96451 0.3094 0.0
N269 N 0.72876 0.0245 0.41438 0.0
C270 C 0.70291 0.06057 0.41011 0.0
C271 C 0.65698 0.05582 0.41035 0.0
C272 C 0.63815 0.01418 0.41543 0.0
C273 C 0.66543 0.97784 0.42122 0.0
C274 C 0.71095 0.98469 0.42115 0.0
H275 H 0.71722 0.09262 0.40601 0.0
O276 O 0.78547 0.02519 0.30364 0.0
O277 O 0.79251 0.00466 0.36277 0.0
O278 O 0.83314 0.08613 0.34709 0.0
O279 O 0.79777 0.08379 0.40269 0.0
C280 C 0.64924 0.93514 0.42719 0.0
C281 C 0.67869 0.90029 0.43355 0.0
H282 H 0.74528 0.84166 0.44537 0.0
H283 H 0.82472 0.86045 0.44504 0.0
H284 H 0.63615 0.08412 0.40632 0.0
H285 H 0.60272 0.01057 0.41522 0.0
H286 H 0.61421 0.92875 0.42704 0.0
H287 H 0.66586 0.86759 0.43807 0.0
H288 H 0.98693 0.38162 0.99223 0.0
H289 H 0.01927 0.44613 0.88745 0.0
H290 H 0.03274 0.51496 0.92125 0.0
H291 H 0.92839 0.47264 0.03139 0.0
H292 H 0.94725 0.46415 0.07864 0.0
H293 H 0.94283 0.41839 0.047 0.0
H294 H 0.02462 0.3995 0.05867 0.0
H295 H 0.02931 0.44529 0.09031 0.0
H296 H 0.06614 0.44076 0.05101 0.0
H297 H 0.04144 0.57633 0.9643 0.0
H298 H 0.04087 0.63042 0.01466 0.0
H299 H 0.00037 0.52979 0.09369 0.0
C300 C 0.99725 0.41019 0.97657 0.0
C301 C 0.00212 0.40845 0.93715 0.0
C302 C 0.01507 0.44666 0.91755 0.0
C303 C 0.02307 0.4859 0.93652 0.0
C304 C 0.01771 0.48669 0.97516 0.0
C305 C 0.00482 0.45016 0.99513 0.0
C306 C 0.9993 0.46131 0.03639 0.0
C307 C 0.9516 0.45367 0.04909 0.0
C308 C 0.03179 0.43515 0.06052 0.0
C309 C 0.0108 0.50984 0.03621 0.0
C310 C 0.02173 0.52328 1.00049 0.0
C311 C 0.03294 0.56632 0.99242 0.0
C312 C 0.03235 0.59688 0.02144 0.0
C313 C 0.02029 0.58467 0.05838 0.0
C314 C 0.00992 0.54023 0.06591 0.0
H315 H 0.43701 0.48765 0.59308 0.0
H316 H 0.34094 0.51865 0.50691 0.0
H317 H 0.39893 0.51802 0.45969 0.0
H318 H 0.52587 0.55295 0.55487 0.0
H319 H 0.56843 0.51399 0.56576 0.0
H320 H 0.51958 0.51649 0.59418 0.0
H321 H 0.50538 0.43399 0.5824 0.0
H322 H 0.55426 0.4312 0.55402 0.0
H323 H 0.50213 0.41393 0.53502 0.0
H324 H 0.4648 0.51536 0.42143 0.0
H325 H 0.53705 0.50857 0.3924 0.0
H326 H 0.59467 0.47822 0.50076 0.0
C327 C 0.42824 0.49422 0.56427 0.0
C328 C 0.38403 0.50321 0.55402 0.0
C329 C 0.37417 0.51154 0.51587 0.0
C330 C 0.40701 0.51137 0.48861 0.0
C331 C 0.4499 0.50263 0.49955 0.0
C332 C 0.4609 0.49397 0.53627 0.0
C333 C 0.51007 0.48514 0.53963 0.0
C334 C 0.53229 0.51918 0.56513 0.0
C335 C 0.51845 0.43828 0.5536 0.0
C336 C 0.52459 0.49055 0.49908 0.0
C337 C 0.48898 0.50065 0.47676 0.0
C338 C 0.49301 0.50728 0.4385 0.0
C339 C 0.53449 0.50321 0.42228 0.0
C340 C 0.572 0.49252 0.44408 0.0
C341 C 0.56685 0.48636 0.48322 0.0
H342 H 0.48009 0.96182 0.0915 0.0
H343 H 0.4966 0.85375 0.01341 0.0
H344 H 0.50493 0.9059 0.96184 0.0
H345 H 0.41712 0.03063 0.02871 0.0
H346 H 0.44231 0.08096 0.04425 0.0
H347 H 0.43761 0.03528 0.07589 0.0
H348 H 0.52166 0.0376 0.08739 0.0
H349 H 0.52661 0.08326 0.05576 0.0
H350 H 0.55865 0.03448 0.04808 0.0
H351 H 0.51251 0.96836 0.91848 0.0
H352 H 0.51719 0.03865 0.88522 0.0
H353 H 0.49495 0.10784 0.98989 0.0
C354 C 0.48541 0.94914 0.06357 0.0
C355 C 0.48755 0.90347 0.05677 0.0
C356 C 0.49455 0.88841 0.01964 0.0
C357 C 0.49946 0.91781 0.98998 0.0
C358 C 0.4972 0.96238 0.99759 0.0
C359 C 0.4902 0.97818 0.03333 0.0
C360 C 0.48895 0.02792 0.03338 0.0
C361 C 0.44381 0.04468 0.04632 0.0
C362 C 0.52619 0.04693 0.05759 0.0
C363 C 0.49648 0.03731 0.99214 0.0
C364 C 0.50124 -0.00109 0.97216 0.0
C365 C 0.50879 -0.00125 0.93376 0.0
C366 C 0.51148 0.03896 0.91512 0.0
C367 C 0.50651 0.079 0.9348 0.0
C368 C 0.49886 0.07794 0.97392 0.0
H369 H 0.91189 0.01489 0.47913 0.0
H370 H 0.97203 0.00552 0.36904 0.0
H371 H 0.04478 0.00048 0.39808 0.0
H372 H 0.99733 0.08106 0.52115 0.0
H373 H 0.99506 0.054 0.56592 0.0
H374 H 0.94666 0.05654 0.53695 0.0
H375 H 0.93974 0.97202 0.53925 0.0
H376 H 0.98807 0.96924 0.5683 0.0
H377 H 0.98572 0.9387 0.52515 0.0
H378 H 0.11102 0.99708 0.43757 0.0
H379 H 0.16798 0.99437 0.48606 0.0
H380 H 0.06751 0.00563 0.57206 0.0
C381 C 0.94034 0.0117 0.46115 0.0
C382 C 0.93583 0.01074 0.42165 0.0
C383 C 0.97415 0.0065 0.39927 0.0
C384 C 0.01586 0.00358 0.4155 0.0
C385 C 0.01916 0.00488 0.45427 0.0
C386 C 0.98262 0.00874 0.47695 0.0
C387 C 0.99601 0.00932 0.51797 0.0
C388 C 0.98299 0.05282 0.53659 0.0
C389 C 0.9762 0.96997 0.5389 0.0
C390 C 0.04567 0.00526 0.51455 0.0
C391 C 0.05805 0.00276 0.47745 0.0
C392 C 0.10182 -0.00109 0.46677 0.0
C393 C 0.134 0.99737 0.49469 0.0
C394 C 0.12253 -0.00035 0.53312 0.0
C395 C 0.07755 0.0038 0.54304 0.0
H396 H 0.15862 0.7173 0.08612 0.0
H397 H 0.13254 0.70669 0.20508 0.0
H398 H 0.20569 0.7384 0.21875 0.0
H399 H 0.2744 0.6871 0.09256 0.0
H400 H 0.29045 0.72385 0.05552 0.0
H401 H 0.23617 0.7002 0.05569 0.0
H402 H 0.20276 0.77818 0.05251 0.0
H403 H 0.25693 0.80209 0.05321 0.0
H404 H 0.21698 0.81787 0.08791 0.0
H405 H 0.27938 0.77635 0.21916 0.0
H406 H 0.3542 0.8046 0.20676 0.0
H407 H 0.33401 0.78553 0.08771 0.0
C408 C 0.16863 0.7211 0.11503 0.0
C409 C 0.14014 0.7095 0.14458 0.0
C410 C 0.15421 0.71488 0.18207 0.0
C411 C 0.19543 0.73331 0.19008 0.0
C412 C 0.22232 0.74548 0.16027 0.0
C413 C 0.20998 0.73855 0.12352 0.0
C414 C 0.2457 0.75282 0.09667 0.0
C415 C 0.26269 0.71366 0.07377 0.0
C416 C 0.22961 0.78995 0.07107 0.0
C417 C 0.27998 0.76913 0.12405 0.0
C418 C 0.26553 0.76541 0.16057 0.0
C419 C 0.29119 0.77913 0.1907 0.0
C420 C 0.33341 0.79557 0.18337 0.0
C421 C 0.34969 0.79735 0.1463 0.0
C422 C 0.32227 0.78462 0.11631 0.0
H423 H 0.27195 0.65966 0.5724 0.0
H424 H 0.28319 0.64039 0.69225 0.0
H425 H 0.2637 0.718 0.70275 0.0
H426 H 0.3197 0.76992 0.57226 0.0
H427 H 0.28411 0.78857 0.53526 0.0
H428 H 0.29967 0.73176 0.53767 0.0
H429 H 0.2173 0.70976 0.5378 0.0
H430 H 0.20148 0.76655 0.53624 0.0
H431 H 0.18138 0.73175 0.57322 0.0
H432 H 0.23679 0.79581 0.70019 0.0
H433 H 0.21804 0.87243 0.68461 0.0
H434 H 0.22957 0.84215 0.56641 0.0
C435 C 0.27098 0.67204 0.6008 0.0
C436 C 0.27916 0.64424 0.63153 0.0
C437 C 0.27759 0.6614 0.66832 0.0
C438 C 0.26609 0.70525 0.67456 0.0
C439 C 0.25702 0.73152 0.64367 0.0
C440 C 0.26049 0.71591 0.60749 0.0
C441 C 0.25047 0.75133 0.57917 0.0
C442 C 0.2909 0.76097 0.55466 0.0
C443 C 0.21027 0.7391 0.5552 0.0
C444 C 0.24036 0.78919 0.60509 0.0
C445 C 0.24356 0.77689 0.64219 0.0
C446 C 0.23458 0.80597 0.67125 0.0
C447 C 0.22351 0.84923 0.66214 0.0
C448 C 0.22231 0.86301 0.62435 0.0
C449 C 0.23026 0.83239 0.59554 0.0
H450 H 0.65609 0.22491 0.84112 0.0
H451 H 0.63039 0.21956 0.96049 0.0
H452 H 0.70732 0.24059 0.97321 0.0
H453 H 0.76688 0.18294 0.8439 0.0
H454 H 0.78669 0.21925 0.80788 0.0
H455 H 0.72991 0.20245 0.80821 0.0
H456 H 0.70592 0.28387 0.80857 0.0
H457 H 0.76264 0.30092 0.80855 0.0
H458 H 0.72606 0.31987 0.84475 0.0
H459 H 0.78708 0.26013 0.97313 0.0
H460 H 0.86452 0.27923 0.96017 0.0
H461 H 0.83762 0.27643 0.84095 0.0
C462 C 0.66682 0.22774 0.86991 0.0
C463 C 0.6374 0.22029 0.89985 0.0
C464 C 0.65241 0.2251 0.93715 0.0
C465 C 0.69601 0.23701 0.94466 0.0
C466 C 0.72405 0.24454 0.91456 0.0
C467 C 0.71009 0.24033 0.87793 0.0
C468 C 0.74669 0.25143 0.85077 0.0
C469 C 0.75822 0.21164 0.82625 0.0
C470 C 0.73459 0.2914 0.82675 0.0
C471 C 0.78346 0.26217 0.87788 0.0
C472 C 0.76971 0.25772 0.91453 0.0
C473 C 0.79818 0.2641 0.94457 0.0
C474 C 0.84204 0.2749 0.93694 0.0
C475 C 0.85684 0.27977 0.89961 0.0
C476 C 0.82696 0.27376 0.86977 0.0
H477 H 0.7169 0.33657 0.4372 0.0
H478 H 0.69323 0.36019 0.319 0.0
H479 H 0.72565 0.28879 0.30377 0.0
H480 H 0.81875 0.28381 0.42831 0.0
H481 H 0.80913 0.24294 0.46377 0.0
H482 H 0.78196 0.29521 0.46662 0.0
H483 H 0.70589 0.25689 0.46889 0.0
H484 H 0.73288 0.20446 0.46709 0.0
H485 H 0.69145 0.21793 0.43296 0.0
H486 H 0.7679 0.22001 0.30028 0.0
H487 H 0.80278 0.1483 0.30926 0.0
H488 H 0.79448 0.16485 0.42981 0.0
C489 C 0.71766 0.32626 0.40821 0.0
C490 C 0.70255 0.35407 0.37933 0.0
C491 C 0.70421 0.33943 0.3417 0.0
C492 C 0.72301 0.29908 0.33266 0.0
C493 C 0.73923 0.27334 0.36158 0.0
C494 C 0.73553 0.28552 0.39866 0.0
C495 C 0.75478 0.25086 0.42421 0.0
C496 C 0.79345 0.26933 0.44707 0.0
C497 C 0.71912 0.23138 0.44979 0.0
C498 C 0.77039 0.21775 0.39554 0.0
C499 C 0.76177 0.23196 0.35961 0.0
C500 C 0.77435 0.20814 0.32826 0.0
C501 C 0.79468 0.16765 0.33371 0.0
C502 C 0.80147 0.15101 0.37027 0.0
C503 C 0.78979 0.17681 0.40157 0.0
H504 H 0.80129 0.45835 0.31302 0.0
H505 H 0.7746 0.57295 0.38034 0.0
H506 H 0.84359 0.60686 0.35832 0.0
H507 H 0.92733 0.46511 0.31213 0.0
H508 H 0.92834 0.44939 0.26351 0.0
H509 H 0.88618 0.42819 0.29405 0.0
H510 H 0.82677 0.45723 0.24863 0.0
H511 H 0.86834 0.47936 0.2184 0.0
H512 H 0.8261 0.51465 0.2368 0.0
H513 H 0.905 0.63456 0.31921 0.0
H514 H 0.95297 0.65462 0.26613 0.0
H515 H 0.93606 0.52516 0.21867 0.0
C516 C 0.8115 0.48951 0.3247 0.0
C517 C 0.78404 0.51204 0.35009 0.0
C518 C 0.79659 0.554 0.36292 0.0
C519 C 0.83551 0.57369 0.35005 0.0
C520 C 0.86087 0.5514 0.32362 0.0
C521 C 0.84943 0.51004 0.31114 0.0
C522 C 0.87689 0.49658 0.27759 0.0
C523 C 0.90646 0.4575 0.28741 0.0
C524 C 0.84778 0.48639 0.24336 0.0
C525 C 0.90382 0.53777 0.27166 0.0
C526 C 0.89501 0.56844 0.29925 0.0
C527 C 0.91291 0.61045 0.29807 0.0
C528 C 0.93996 0.6216 0.2678 0.0
C529 C 0.94846 0.59114 0.23891 0.0
C530 C 0.93072 0.54853 0.24101 0.0
H531 H 0.43569 0.45192 0.7261 0.0
H532 H 0.29979 0.41466 0.74401 0.0
H533 H 0.32249 0.36236 0.79264 0.0
H534 H 0.47636 0.34827 0.72826 0.0
H535 H 0.52724 0.36018 0.75209 0.0
H536 H 0.50043 0.40221 0.72543 0.0
H537 H 0.49934 0.45247 0.784 0.0
H538 H 0.52611 0.41024 0.81089 0.0
H539 H 0.47472 0.43285 0.82673 0.0
H540 H 0.35867 0.30604 0.82986 0.0
H541 H 0.40703 0.24656 0.85146 0.0
H542 H 0.52066 0.31754 0.81078 0.0
C543 C 0.4109 0.4337 0.7413 0.0
C544 C 0.36607 0.43736 0.73181 0.0
C545 C 0.33433 0.41217 0.75114 0.0
C546 C 0.34685 0.38273 0.77903 0.0
C547 C 0.39135 0.37867 0.7872 0.0
C548 C 0.42305 0.40336 0.76899 0.0
C549 C 0.46881 0.38771 0.77922 0.0
C550 C 0.4947 0.37375 0.74417 0.0
C551 C 0.49371 0.42294 0.80153 0.0
C552 C 0.45762 0.34881 0.80385 0.0
C553 C 0.41275 0.34515 0.80905 0.0
C554 C 0.39395 0.30932 0.82719 0.0
C555 C 0.42162 0.27585 0.83966 0.0
C556 C 0.46753 0.27877 0.83443 0.0
C557 C 0.48575 0.31576 0.81653 0.0
H558 H 0.58912 0.86481 0.24742 0.0
H559 H 0.51421 0.98186 0.22311 0.0
H560 H 0.56205 0.02436 0.26625 0.0
H561 H 0.6103 0.89322 0.34935 0.0
H562 H 0.66408 0.86872 0.34772 0.0
H563 H 0.62017 0.84671 0.3194 0.0
H564 H 0.66802 0.85619 0.25981 0.0
H565 H 0.71192 0.87751 0.28802 0.0
H566 H 0.69113 0.90925 0.24939 0.0
H567 H 0.62716 0.05554 0.30011 0.0
H568 H 0.70139 0.07221 0.32439 0.0
H569 H 0.72862 0.93386 0.33428 0.0
C570 C 0.58241 0.89928 0.25177 0.0
C571 C 0.54853 0.92044 0.23182 0.0
C572 C 0.54018 0.96531 0.23821 0.0
C573 C 0.56698 0.98949 0.26279 0.0
C574 C 0.60074 0.96777 0.2817 0.0
C575 C 0.60785 0.92339 0.27707 0.0
C576 C 0.64794 0.90827 0.2986 0.0
C577 C 0.63482 0.8774 0.33067 0.0
C578 C 0.68173 0.88658 0.27239 0.0
C579 C 0.66442 0.95162 0.3137 0.0
C580 C 0.63637 0.98552 0.30412 0.0
C581 C 0.64832 0.02922 0.30931 0.0
C582 C 0.6904 0.03844 0.32329 0.0
C583 C 0.71941 0.00423 0.33311 0.0
C584 C 0.70578 0.96038 0.32925 0.0
H585 H 0.97325 0.17734 0.80108 0.0
H586 H 0.08405 0.25188 0.84315 0.0
H587 H 0.13506 0.20012 0.81338 0.0
H588 H 0.0302 0.0652 0.80602 0.0
H589 H 0.00354 0.04751 0.76353 0.0
H590 H 0.97588 0.08468 0.79491 0.0
H591 H 0.96534 0.13917 0.74019 0.0
H592 H 0.99379 0.10294 0.70883 0.0
H593 H 0.01279 0.15848 0.71481 0.0
H594 H 0.17248 0.15295 0.76837 0.0
H595 H 0.19622 0.1046 0.71708 0.0
H596 H 0.06304 0.05561 0.70508 0.0
C597 C 0.00828 0.18131 0.80531 0.0
C598 C 0.02493 0.21743 0.82554 0.0
C599 C 0.07082 0.22324 0.82917 0.0
C600 C 0.10001 0.19421 0.81208 0.0
C601 C 0.08272 0.15958 0.79139 0.0
C602 C 0.03798 0.15223 0.78857 0.0
C603 C 0.02827 0.11485 0.76173 0.0
C604 C 0.0083 0.07572 0.7828 0.0
C605 C 0.99829 0.12979 0.72949 0.0
C606 C 0.07428 0.10456 0.74796 0.0
C607 C 0.10506 0.1307 0.76577 0.0
C608 C 0.149 0.13132 0.75503 0.0
C609 C 0.16203 0.1042 0.72559 0.0
C610 C 0.13142 0.07646 0.70747 0.0
C611 C 0.08707 0.07612 0.71904 0.0
H612 H 0.05675 0.34727 0.74121 0.0
H613 H 0.98859 0.46085 0.78433 0.0
H614 H 0.03469 0.50894 0.74438 0.0
H615 H 0.15816 0.38795 0.74298 0.0
H616 H 0.17803 0.36338 0.70035 0.0
H617 H 0.13371 0.33811 0.72549 0.0
H618 H 0.08542 0.34077 0.66626 0.0
H619 H 0.12917 0.36682 0.64047 0.0
H620 H 0.07574 0.39222 0.64315 0.0
H621 H 0.10088 0.54342 0.71502 0.0
H622 H 0.17508 0.56169 0.69125 0.0
H623 H 0.19524 0.42632 0.6603 0.0
C624 C 0.05035 0.38217 0.74087 0.0
C625 C 0.01911 0.40064 0.76531 0.0
C626 C 0.01191 0.4463 0.76512 0.0
C627 C 0.03803 0.47372 0.74262 0.0
C628 C 0.07006 0.4546 0.71985 0.0
C629 C 0.07539 0.40967 0.71802 0.0
C630 C 0.11483 0.39731 0.69448 0.0
C631 C 0.14812 0.37013 0.7172 0.0
C632 C 0.10044 0.37286 0.65895 0.0
C633 C 0.13275 0.4423 0.68531 0.0
C634 C 0.10641 0.475 0.70011 0.0
C635 C 0.12058 0.51846 0.70163 0.0
C636 C 0.16271 0.52857 0.6882 0.0
C637 C 0.18944 0.49573 0.67223 0.0
C638 C 0.17404 0.45229 0.67027 0.0
H639 H 0.54192 0.56198 0.30307 0.0
H640 H 0.66836 0.55375 0.24802 0.0
H641 H 0.64527 0.61018 0.20263 0.0
H642 H 0.47548 0.58725 0.2151 0.0
H643 H 0.44041 0.62482 0.23997 0.0
H644 H 0.46281 0.57773 0.26366 0.0
H645 H 0.49645 0.62799 0.31444 0.0
H646 H 0.47439 0.67534 0.29131 0.0
H647 H 0.53251 0.6721 0.3007 0.0
H648 H 0.61598 0.67671 0.1734 0.0
H649 H 0.57786 0.74505 0.15616 0.0
H650 H 0.46814 0.70933 0.22705 0.0
C651 C 0.56371 0.57089 0.28035 0.0
C652 C 0.60637 0.55335 0.2781 0.0
C653 C 0.63519 0.56655 0.2493 0.0
C654 C 0.62238 0.59847 0.22354 0.0
C655 C 0.58057 0.61647 0.22704 0.0
C656 C 0.55124 0.60269 0.25423 0.0
C657 C 0.51015 0.63066 0.25419 0.0
C658 C 0.46982 0.60349 0.24253 0.0
C659 C 0.503 0.65283 0.29242 0.0
C660 C 0.52218 0.66373 0.22435 0.0
C661 C 0.56276 0.6546 0.20881 0.0
C662 C 0.58336 0.68323 0.18407 0.0
C663 C 0.5615 0.72179 0.17433 0.0
C664 C 0.51922 0.73077 0.18867 0.0
C665 C 0.49963 0.70186 0.21446 0.0
H666 H 0.4587 0.04357 0.78912 0.0
H667 H 0.49637 0.15671 0.72375 0.0
H668 H 0.44822 0.13189 0.67218 0.0
H669 H 0.4441 0.96544 0.70351 0.0
H670 H 0.39854 0.93882 0.7264 0.0
H671 H 0.4439 0.9596 0.75371 0.0
H672 H 0.38919 0.00506 0.79343 0.0
H673 H 0.34399 0.98521 0.76594 0.0
H674 H 0.35314 0.04335 0.7704 0.0
H675 H 0.38093 0.10794 0.63837 0.0
H676 H 0.3085 0.07889 0.61922 0.0
H677 H 0.32009 0.97495 0.70064 0.0
C678 C 0.45863 0.0615 0.76299 0.0
C679 C 0.48183 0.10129 0.7597 0.0
C680 C 0.4797 0.12542 0.72607 0.0
C681 C 0.4523 0.11165 0.69677 0.0
C682 C 0.42813 0.07315 0.70135 0.0
C683 C 0.43221 0.0475 0.7331 0.0
C684 C 0.39934 0.01012 0.73273 0.0
C685 C 0.42289 0.96587 0.72885 0.0
C686 C 0.36968 0.01105 0.76768 0.0
C687 C 0.37382 0.02091 0.69757 0.0
C688 C 0.39112 0.05719 0.67965 0.0
C689 C 0.36859 0.07796 0.65067 0.0
C690 C 0.32766 0.06105 0.63964 0.0
C691 C 0.3105 0.02283 0.65648 0.0
C692 C 0.33393 0.00267 0.68581 0.0
H693 H 0.02399 0.79331 0.21168 0.0
H694 H 0.91155 0.75635 0.14444 0.0
H695 H 0.87766 0.82856 0.15648 0.0
H696 H 0.96397 0.84059 0.28197 0.0
H697 H 0.00249 0.88384 0.29248 0.0
H698 H 0.02165 0.83361 0.27209 0.0
H699 H 0.05684 0.87723 0.21714 0.0
H700 H 0.03779 0.92753 0.23807 0.0
H701 H 0.0233 0.9145 0.19046 0.0
H702 H 0.85255 0.89972 0.18121 0.0
H703 H 0.8325 0.95966 0.22436 0.0
H704 H 0.95946 0.94986 0.27822 0.0
C705 C 0.99286 0.80123 0.19865 0.0
C706 C 0.97125 0.7707 0.17547 0.0
C707 C 0.92943 0.78055 0.16062 0.0
C708 C 0.91004 0.82136 0.16735 0.0
C709 C 0.93273 0.85148 0.18949 0.0
C710 C 0.97298 0.84169 0.20537 0.0
C711 C 0.98726 0.87681 0.23275 0.0
C712 C 0.99421 0.85756 0.27214 0.0
C713 C 0.02877 0.9004 0.21876 0.0
C714 C 0.94771 0.90675 0.2313 0.0
C715 C 0.91736 0.8923 0.20515 0.0
C716 C 0.87639 0.912 0.20111 0.0
C717 C 0.86536 0.94608 0.22552 0.0
C718 C 0.8951 0.9598 0.25353 0.0
C719 C 0.93713 0.94088 0.25587 0.0
loop_
_geom_bond_atom_site_label_1
_geom_bond_atom_site_label_2
_geom_bond_distance
_geom_bond_site_symmetry_2
_ccdc_geom_bond_type
Mn0 O5 2.095 . S
Mn0 O15 2.162 . S
Mn0 O16 2.297 1_455 S
Mn0 O24 2.392 . S
Mn0 O25 2.209 1_455 S
Mn0 O26 2.094 . S
Mn1 O6 2.121 . S
Mn1 N8 2.256 . S
Mn1 N17 2.282 . S
Mn1 O25 2.215 1_455 S
Mn1 O27 2.117 . S
C2 O24 1.226 1_655 S
C2 O25 1.283 . S
C3 O15 1.281 1_655 S
C3 O16 1.236 . S
C4 O26 1.240 . S
C4 O27 1.264 . S
O5 Mn0 2.095 . S
O5 C14 1.250 . S
O6 Mn1 2.121 . S
O6 C14 1.258 . S
C7 N8 1.328 1_655 S
C7 C11 1.460 . S
C7 H13 0.929 . S
N8 Mn1 2.256 . S
N8 C7 1.328 1_455 S
N8 C12 1.362 . S
C9 C10 1.258 . S
C9 C12 1.431 1_655 S
C9 C29 1.449 . S
C10 C9 1.258 . S
C10 C11 1.477 . S
C10 H30 0.931 . S
C11 C7 1.460 . S
C11 C10 1.477 . S
C11 H31 0.930 . S
C12 N8 1.362 . S
C12 C9 1.431 1_455 S
C12 C22 1.476 . S
H13 C7 0.929 . S
C14 O5 1.250 . S
C14 O6 1.258 . S
O15 Mn0 2.162 . S
O15 C3 1.281 1_455 S
O16 Mn0 2.297 1_655 S
O16 C3 1.236 . S
N17 Mn1 2.282 . S
N17 C18 1.328 . S
N17 C22 1.318 . S
C18 N17 1.328 . S
C18 C19 1.457 . S
C18 H23 0.929 . S
C19 C18 1.457 . S
C19 C20 1.291 . S
C19 H32 0.931 . S
C20 C19 1.291 . S
C20 C21 1.373 . S
C20 H33 0.929 . S
C21 C20 1.373 . S
C21 C22 1.396 . S
C21 C28 1.403 . S
C22 C12 1.476 . S
C22 N17 1.318 . S
C22 C21 1.396 . S
H23 C18 0.929 . S
O24 Mn0 2.392 . S
O24 C2 1.226 1_455 S
O25 Mn0 2.209 1_655 S
O25 Mn1 2.215 1_655 S
O25 C2 1.283 . S
O26 Mn0 2.094 . S
O26 C4 1.240 . S
O27 Mn1 2.117 . S
O27 C4 1.264 . S
C28 C21 1.403 . S
C28 C29 1.399 1_455 S
C28 H34 0.929 . S
C29 C9 1.449 . S
C29 C28 1.399 1_655 S
C29 H35 0.930 . S
H30 C10 0.931 . S
H31 C11 0.930 . S
H32 C19 0.931 . S
H33 C20 0.929 . S
H34 C28 0.929 . S
H35 C29 0.930 . S
Mn36 O41 2.095 . S
Mn36 O51 2.162 . S
Mn36 O52 2.297 . S
Mn36 O60 2.385 . S
Mn36 O61 2.209 . S
Mn36 O62 2.094 . S
Mn37 O42 2.121 . S
Mn37 N44 2.257 . S
Mn37 N53 2.282 . S
Mn37 O61 2.215 . S
Mn37 O63 2.117 . S
C38 O60 1.234 . S
C38 O61 1.283 . S
C39 O51 1.281 . S
C39 O52 1.236 . S
C40 O62 1.240 . S
C40 O63 1.264 . S
O41 Mn36 2.095 . S
O41 C50 1.250 . S
O42 Mn37 2.121 . S
O42 C50 1.258 . S
C43 N44 1.326 . S
C43 C47 1.460 . S
C43 H49 0.929 . S
N44 Mn37 2.257 . S
N44 C43 1.326 . S
N44 C48 1.362 . S
C45 C46 1.258 . S
C45 C48 1.431 . S
C45 C65 1.449 . S
C46 C45 1.258 . S
C46 C47 1.477 . S
C46 H66 0.931 . S
C47 C43 1.460 . S
C47 C46 1.477 . S
C47 H67 0.930 . S
C48 N44 1.362 . S
C48 C45 1.431 . S
C48 C58 1.476 . S
H49 C43 0.929 . S
C50 O41 1.250 . S
C50 O42 1.258 . S
O51 Mn36 2.162 . S
O51 C39 1.281 . S
O52 Mn36 2.297 . S
O52 C39 1.236 . S
N53 Mn37 2.282 . S
N53 C54 1.328 . S
N53 C58 1.318 . S
C54 N53 1.328 . S
C54 C55 1.457 . S
C54 H59 0.929 . S
C55 C54 1.457 . S
C55 C56 1.291 . S
C55 H68 0.931 . S
C56 C55 1.291 . S
C56 C57 1.373 . S
C56 H69 0.929 . S
C57 C56 1.373 . S
C57 C58 1.396 . S
C57 C64 1.403 . S
C58 C48 1.476 . S
C58 N53 1.318 . S
C58 C57 1.396 . S
H59 C54 0.929 . S
O60 Mn36 2.385 . S
O60 C38 1.234 . S
O61 Mn36 2.209 . S
O61 Mn37 2.215 . S
O61 C38 1.283 . S
O62 Mn36 2.094 . S
O62 C40 1.240 . S
O63 Mn37 2.117 . S
O63 C40 1.264 . S
C64 C57 1.403 . S
C64 C65 1.399 . S
C64 H70 0.929 . S
C65 C45 1.449 . S
C65 C64 1.399 . S
C65 H71 0.930 . S
H66 C46 0.931 . S
H67 C47 0.930 . S
H68 C55 0.931 . S
H69 C56 0.929 . S
H70 C64 0.929 . S
H71 C65 0.930 . S
Mn72 O77 2.095 . S
Mn72 O87 2.162 . S
Mn72 O88 2.297 . S
Mn72 O96 2.385 . S
Mn72 O97 2.209 . S
Mn72 O98 2.094 . S
Mn73 O78 2.121 . S
Mn73 N80 2.257 . S
Mn73 N89 2.282 . S
Mn73 O97 2.215 . S
Mn73 O99 2.117 . S
C74 O96 1.234 . S
C74 O97 1.283 . S
C75 O87 1.281 . S
C75 O88 1.236 . S
C76 O98 1.240 . S
C76 O99 1.264 . S
O77 Mn72 2.095 . S
O77 C86 1.250 . S
O78 Mn73 2.121 . S
O78 C86 1.258 . S
C79 N80 1.326 . S
C79 C83 1.460 . S
C79 H85 0.929 . S
N80 Mn73 2.257 . S
N80 C79 1.326 . S
N80 C84 1.362 . S
C81 C82 1.258 . S
C81 C84 1.431 . S
C81 C101 1.449 . S
C82 C81 1.258 . S
C82 C83 1.477 . S
C82 H102 0.931 . S
C83 C79 1.460 . S
C83 C82 1.477 . S
C83 H103 0.930 . S
C84 N80 1.362 . S
C84 C81 1.431 . S
C84 C94 1.476 . S
H85 C79 0.929 . S
C86 O77 1.250 . S
C86 O78 1.258 . S
O87 Mn72 2.162 . S
O87 C75 1.281 . S
O88 Mn72 2.297 . S
O88 C75 1.236 . S
N89 Mn73 2.282 . S
N89 C90 1.328 . S
N89 C94 1.318 . S
C90 N89 1.328 . S
C90 C91 1.457 . S
C90 H95 0.929 . S
C91 C90 1.457 . S
C91 C92 1.291 . S
C91 H104 0.931 . S
C92 C91 1.291 . S
C92 C93 1.373 . S
C92 H105 0.929 . S
C93 C92 1.373 . S
C93 C94 1.396 . S
C93 C100 1.403 . S
C94 C84 1.476 . S
C94 N89 1.318 . S
C94 C93 1.396 . S
H95 C90 0.929 . S
O96 Mn72 2.385 . S
O96 C74 1.234 . S
O97 Mn72 2.209 . S
O97 Mn73 2.215 . S
O97 C74 1.283 . S
O98 Mn72 2.094 . S
O98 C76 1.240 . S
O99 Mn73 2.117 . S
O99 C76 1.264 . S
C100 C93 1.403 . S
C100 C101 1.399 . S
C100 H106 0.929 . S
C101 C81 1.449 . S
C101 C100 1.399 . S
C101 H107 0.930 . S
H102 C82 0.931 . S
H103 C83 0.930 . S
H104 C91 0.931 . S
H105 C92 0.929 . S
H106 C100 0.929 . S
H107 C101 0.930 . S
Mn108 O113 2.095 . S
Mn108 O123 2.162 . S
Mn108 O124 2.297 1_565 S
Mn108 O132 2.392 . S
Mn108 O133 2.209 1_565 S
Mn108 O134 2.094 . S
Mn109 O114 2.121 . S
Mn109 N116 2.256 . S
Mn109 N125 2.282 . S
Mn109 O133 2.215 1_565 S
Mn109 O135 2.117 . S
C110 O132 1.226 1_545 S
C110 O133 1.283 . S
C111 O123 1.281 1_545 S
C111 O124 1.236 . S
C112 O134 1.240 . S
C112 O135 1.264 . S
O113 Mn108 2.095 . S
O113 C122 1.250 . S
O114 Mn109 2.121 . S
O114 C122 1.258 . S
C115 N116 1.328 1_545 S
C115 C119 1.460 . S
C115 H121 0.929 . S
N116 Mn109 2.256 . S
N116 C115 1.328 1_565 S
N116 C120 1.362 . S
C117 C118 1.258 . S
C117 C120 1.431 1_545 S
C117 C137 1.449 . S
C118 C117 1.258 . S
C118 C119 1.477 . S
C118 H138 0.931 . S
C119 C115 1.460 . S
C119 C118 1.477 . S
C119 H139 0.930 . S
C120 N116 1.362 . S
C120 C117 1.431 1_565 S
C120 C130 1.476 . S
H121 C115 0.929 . S
C122 O113 1.250 . S
C122 O114 1.258 . S
O123 Mn108 2.162 . S
O123 C111 1.281 1_565 S
O124 Mn108 2.297 1_545 S
O124 C111 1.236 . S
N125 Mn109 2.282 . S
N125 C126 1.328 . S
N125 C130 1.318 . S
C126 N125 1.328 . S
C126 C127 1.457 . S
C126 H131 0.929 . S
C127 C126 1.457 . S
C127 C128 1.291 . S
C127 H140 0.931 . S
C128 C127 1.291 . S
C128 C129 1.373 . S
C128 H141 0.929 . S
C129 C128 1.373 . S
C129 C130 1.396 . S
C129 C136 1.403 . S
C130 C120 1.476 . S
C130 N125 1.318 . S
C130 C129 1.396 . S
H131 C126 0.929 . S
O132 Mn108 2.392 . S
O132 C110 1.226 1_565 S
O133 Mn108 2.209 1_545 S
O133 Mn109 2.215 1_545 S
O133 C110 1.283 . S
O134 Mn108 2.094 . S
O134 C112 1.240 . S
O135 Mn109 2.117 . S
O135 C112 1.264 . S
C136 C129 1.403 . S
C136 C137 1.399 1_565 S
C136 H142 0.929 . S
C137 C117 1.449 . S
C137 C136 1.399 1_545 S
C137 H143 0.930 . S
H138 C118 0.931 . S
H139 C119 0.930 . S
H140 C127 0.931 . S
H141 C128 0.929 . S
H142 C136 0.929 . S
H143 C137 0.930 . S
Mn144 O149 2.095 . S
Mn144 O159 2.162 . S
Mn144 O160 2.297 1_655 S
Mn144 O168 2.392 . S
Mn144 O169 2.209 1_655 S
Mn144 O170 2.094 . S
Mn145 O150 2.121 . S
Mn145 N152 2.256 . S
Mn145 N161 2.282 . S
Mn145 O169 2.215 1_655 S
Mn145 O171 2.117 . S
C146 O168 1.226 1_455 S
C146 O169 1.283 . S
C147 O159 1.281 1_455 S
C147 O160 1.236 . S
C148 O170 1.240 . S
C148 O171 1.264 . S
O149 Mn144 2.095 . S
O149 C158 1.250 . S
O150 Mn145 2.121 . S
O150 C158 1.258 . S
C151 N152 1.328 1_455 S
C151 C155 1.460 . S
C151 H157 0.929 . S
N152 Mn145 2.256 . S
N152 C151 1.328 1_655 S
N152 C156 1.362 . S
C153 C154 1.258 . S
C153 C156 1.431 1_455 S
C153 C173 1.449 . S
C154 C153 1.258 . S
C154 C155 1.477 . S
C154 H174 0.931 . S
C155 C151 1.460 . S
C155 C154 1.477 . S
C155 H175 0.930 . S
C156 N152 1.362 . S
C156 C153 1.431 1_655 S
C156 C166 1.476 . S
H157 C151 0.929 . S
C158 O149 1.250 . S
C158 O150 1.258 . S
O159 Mn144 2.162 . S
O159 C147 1.281 1_655 S
O160 Mn144 2.297 1_455 S
O160 C147 1.236 . S
N161 Mn145 2.282 . S
N161 C162 1.328 . S
N161 C166 1.318 . S
C162 N161 1.328 . S
C162 C163 1.457 . S
C162 H167 0.929 . S
C163 C162 1.457 . S
C163 C164 1.291 . S
C163 H176 0.931 . S
C164 C163 1.291 . S
C164 C165 1.373 . S
C164 H177 0.929 . S
C165 C164 1.373 . S
C165 C166 1.396 . S
C165 C172 1.403 . S
C166 C156 1.476 . S
C166 N161 1.318 . S
C166 C165 1.396 . S
H167 C162 0.929 . S
O168 Mn144 2.392 . S
O168 C146 1.226 1_655 S
O169 Mn144 2.209 1_455 S
O169 Mn145 2.215 1_455 S
O169 C146 1.283 . S
O170 Mn144 2.094 . S
O170 C148 1.240 . S
O171 Mn145 2.117 . S
O171 C148 1.264 . S
C172 C165 1.403 . S
C172 C173 1.399 1_655 S
C172 H178 0.929 . S
C173 C153 1.449 . S
C173 C172 1.399 1_455 S
C173 H179 0.930 . S
H174 C154 0.931 . S
H175 C155 0.930 . S
H176 C163 0.931 . S
H177 C164 0.929 . S
H178 C172 0.929 . S
H179 C173 0.930 . S
Mn180 O185 2.095 . S
Mn180 O195 2.162 . S
Mn180 O196 2.297 . S
Mn180 O204 2.385 . S
Mn180 O205 2.209 . S
Mn180 O206 2.094 . S
Mn181 O186 2.121 . S
Mn181 N188 2.257 . S
Mn181 N197 2.282 . S
Mn181 O205 2.215 . S
Mn181 O207 2.117 . S
C182 O204 1.234 . S
C182 O205 1.283 . S
C183 O195 1.281 . S
C183 O196 1.236 . S
C184 O206 1.240 . S
C184 O207 1.264 . S
O185 Mn180 2.095 . S
O185 C194 1.250 . S
O186 Mn181 2.121 . S
O186 C194 1.258 . S
C187 N188 1.326 . S
C187 C191 1.460 . S
C187 H193 0.929 . S
N188 Mn181 2.257 . S
N188 C187 1.326 . S
N188 C192 1.362 . S
C189 C190 1.258 . S
C189 C192 1.431 . S
C189 C209 1.449 . S
C190 C189 1.258 . S
C190 C191 1.477 . S
C190 H210 0.931 . S
C191 C187 1.460 . S
C191 C190 1.477 . S
C191 H211 0.930 . S
C192 N188 1.362 . S
C192 C189 1.431 . S
C192 C202 1.476 . S
H193 C187 0.929 . S
C194 O185 1.250 . S
C194 O186 1.258 . S
O195 Mn180 2.162 . S
O195 C183 1.281 . S
O196 Mn180 2.297 . S
O196 C183 1.236 . S
N197 Mn181 2.282 . S
N197 C198 1.328 . S
N197 C202 1.318 . S
C198 N197 1.328 . S
C198 C199 1.457 . S
C198 H203 0.929 . S
C199 C198 1.457 . S
C199 C200 1.291 . S
C199 H212 0.931 . S
C200 C199 1.291 . S
C200 C201 1.373 . S
C200 H213 0.929 . S
C201 C200 1.373 . S
C201 C202 1.396 . S
C201 C208 1.403 . S
C202 C192 1.476 . S
C202 N197 1.318 . S
C202 C201 1.396 . S
H203 C198 0.929 . S
O204 Mn180 2.385 . S
O204 C182 1.234 . S
O205 Mn180 2.209 . S
O205 Mn181 2.215 . S
O205 C182 1.283 . S
O206 Mn180 2.094 . S
O206 C184 1.240 . S
O207 Mn181 2.117 . S
O207 C184 1.264 . S
C208 C201 1.403 . S
C208 C209 1.399 . S
C208 H214 0.929 . S
C209 C189 1.449 . S
C209 C208 1.399 . S
C209 H215 0.930 . S
H210 C190 0.931 . S
H211 C191 0.930 . S
H212 C199 0.931 . S
H213 C200 0.929 . S
H214 C208 0.929 . S
H215 C209 0.930 . S
Mn216 O221 2.095 . S
Mn216 O231 2.162 . S
Mn216 O232 2.297 . S
Mn216 O240 2.385 . S
Mn216 O241 2.209 . S
Mn216 O242 2.094 . S
Mn217 O222 2.121 . S
Mn217 N224 2.257 . S
Mn217 N233 2.282 . S
Mn217 O241 2.215 . S
Mn217 O243 2.117 . S
C218 O240 1.234 . S
C218 O241 1.283 . S
C219 O231 1.281 . S
C219 O232 1.236 . S
C220 O242 1.240 . S
C220 O243 1.264 . S
O221 Mn216 2.095 . S
O221 C230 1.250 . S
O222 Mn217 2.121 . S
O222 C230 1.258 . S
C223 N224 1.326 . S
C223 C227 1.460 . S
C223 H229 0.929 . S
N224 Mn217 2.257 . S
N224 C223 1.326 . S
N224 C228 1.362 . S
C225 C226 1.258 . S
C225 C228 1.431 . S
C225 C245 1.449 . S
C226 C225 1.258 . S
C226 C227 1.477 . S
C226 H246 0.931 . S
C227 C223 1.460 . S
C227 C226 1.477 . S
C227 H247 0.930 . S
C228 N224 1.362 . S
C228 C225 1.431 . S
C228 C238 1.476 . S
H229 C223 0.929 . S
C230 O221 1.250 . S
C230 O222 1.258 . S
O231 Mn216 2.162 . S
O231 C219 1.281 . S
O232 Mn216 2.297 . S
O232 C219 1.236 . S
N233 Mn217 2.282 . S
N233 C234 1.328 . S
N233 C238 1.318 . S
C234 N233 1.328 . S
C234 C235 1.457 . S
C234 H239 0.929 . S
C235 C234 1.457 . S
C235 C236 1.291 . S
C235 H248 0.931 . S
C236 C235 1.291 . S
C236 C237 1.373 . S
C236 H249 0.929 . S
C237 C236 1.373 . S
C237 C238 1.396 . S
C237 C244 1.403 . S
C238 C228 1.476 . S
C238 N233 1.318 . S
C238 C237 1.396 . S
H239 C234 0.929 . S
O240 Mn216 2.385 . S
O240 C218 1.234 . S
O241 Mn216 2.209 . S
O241 Mn217 2.215 . S
O241 C218 1.283 . S
O242 Mn216 2.094 . S
O242 C220 1.240 . S
O243 Mn217 2.117 . S
O243 C220 1.264 . S
C244 C237 1.403 . S
C244 C245 1.399 . S
C244 H250 0.929 . S
C245 C225 1.449 . S
C245 C244 1.399 . S
C245 H251 0.930 . S
H246 C226 0.931 . S
H247 C227 0.930 . S
H248 C235 0.931 . S
H249 C236 0.929 . S
H250 C244 0.929 . S
H251 C245 0.930 . S
Mn252 O257 2.095 . S
Mn252 O267 2.162 . S
Mn252 O268 2.297 1_545 S
Mn252 O276 2.392 . S
Mn252 O277 2.209 1_545 S
Mn252 O278 2.094 . S
Mn253 O258 2.121 . S
Mn253 N260 2.256 . S
Mn253 N269 2.282 . S
Mn253 O277 2.215 1_545 S
Mn253 O279 2.117 . S
C254 O276 1.226 1_565 S
C254 O277 1.283 . S
C255 O267 1.281 1_565 S
C255 O268 1.236 . S
C256 O278 1.240 . S
C256 O279 1.264 . S
O257 Mn252 2.095 . S
O257 C266 1.250 . S
O258 Mn253 2.121 . S
O258 C266 1.258 . S
C259 N260 1.328 1_565 S
C259 C263 1.460 . S
C259 H265 0.929 . S
N260 Mn253 2.256 . S
N260 C259 1.328 1_545 S
N260 C264 1.362 . S
C261 C262 1.258 . S
C261 C264 1.431 1_565 S
C261 C281 1.449 . S
C262 C261 1.258 . S
C262 C263 1.477 . S
C262 H282 0.931 . S
C263 C259 1.460 . S
C263 C262 1.477 . S
C263 H283 0.930 . S
C264 N260 1.362 . S
C264 C261 1.431 1_545 S
C264 C274 1.476 . S
H265 C259 0.929 . S
C266 O257 1.250 . S
C266 O258 1.258 . S
O267 Mn252 2.162 . S
O267 C255 1.281 1_545 S
O268 Mn252 2.297 1_565 S
O268 C255 1.236 . S
N269 Mn253 2.282 . S
N269 C270 1.328 . S
N269 C274 1.318 . S
C270 N269 1.328 . S
C270 C271 1.457 . S
C270 H275 0.929 . S
C271 C270 1.457 . S
C271 C272 1.291 . S
C271 H284 0.931 . S
C272 C271 1.291 . S
C272 C273 1.373 . S
C272 H285 0.929 . S
C273 C272 1.373 . S
C273 C274 1.396 . S
C273 C280 1.403 . S
C274 C264 1.476 . S
C274 N269 1.318 . S
C274 C273 1.396 . S
H275 C270 0.929 . S
O276 Mn252 2.392 . S
O276 C254 1.226 1_545 S
O277 Mn252 2.209 1_565 S
O277 Mn253 2.215 1_565 S
O277 C254 1.283 . S
O278 Mn252 2.094 . S
O278 C256 1.240 . S
O279 Mn253 2.117 . S
O279 C256 1.264 . S
C280 C273 1.403 . S
C280 C281 1.399 1_545 S
C280 H286 0.929 . S
C281 C261 1.449 . S
C281 C280 1.399 1_565 S
C281 H287 0.930 . S
H282 C262 0.931 . S
H283 C263 0.930 . S
H284 C271 0.931 . S
H285 C272 0.929 . S
H286 C280 0.929 . S
H287 C281 0.930 . S
H288 C300 0.930 . S
H289 C302 0.930 . S
H290 C303 0.930 . S
H291 C307 0.959 . S
H292 C307 0.959 . S
H293 C307 0.961 . S
H294 C308 0.960 . S
H295 C308 0.961 . S
H296 C308 0.959 . S
H297 C311 0.929 . S
H298 C312 0.931 . S
H299 C314 0.930 . S
C300 H288 0.930 . S
C300 C301 1.399 . S
C300 C305 1.399 . S
C301 C300 1.399 . S
C301 C302 1.376 1_655 S
C302 H289 0.930 . S
C302 C301 1.376 1_455 S
C302 C303 1.388 . S
C303 H290 0.930 . S
C303 C302 1.388 . S
C303 C304 1.390 . S
C304 C303 1.390 . S
C304 C305 1.394 1_455 S
C304 C310 1.465 1_556 S
C305 C300 1.399 . S
C305 C304 1.394 1_655 S
C305 C306 1.516 1_556 S
C306 C305 1.516 1_554 S
C306 C307 1.502 . S
C306 C308 1.561 1_655 S
C306 C309 1.526 . S
C307 H291 0.959 . S
C307 H292 0.959 . S
C307 H293 0.961 . S
C307 C306 1.502 . S
C308 H294 0.960 . S
C308 H295 0.961 . S
C308 H296 0.959 . S
C308 C306 1.561 1_455 S
C309 C306 1.526 . S
C309 C310 1.396 1_655 S
C309 C314 1.390 . S
C310 C304 1.465 1_554 S
C310 C309 1.396 1_455 S
C310 C311 1.399 1_554 S
C311 H297 0.929 . S
C311 C310 1.399 1_556 S
C311 C312 1.385 1_556 S
C312 H298 0.931 . S
C312 C311 1.385 1_554 S
C312 C313 1.389 . S
C313 C312 1.389 . S
C313 C314 1.387 1_455 S
C314 H299 0.930 . S
C314 C309 1.390 . S
C314 C313 1.387 1_655 S
H315 C327 0.930 . S
H316 C329 0.930 . S
H317 C330 0.930 . S
H318 C334 0.959 . S
H319 C334 0.959 . S
H320 C334 0.961 . S
H321 C335 0.960 . S
H322 C335 0.961 . S
H323 C335 0.959 . S
H324 C338 0.929 . S
H325 C339 0.931 . S
H326 C341 0.930 . S
C327 H315 0.930 . S
C327 C328 1.399 . S
C327 C332 1.399 . S
C328 C327 1.399 . S
C328 C329 1.376 . S
C329 H316 0.930 . S
C329 C328 1.376 . S
C329 C330 1.388 . S
C330 H317 0.930 . S
C330 C329 1.388 . S
C330 C331 1.390 . S
C331 C330 1.390 . S
C331 C332 1.394 . S
C331 C337 1.465 . S
C332 C327 1.399 . S
C332 C331 1.394 . S
C332 C333 1.516 . S
C333 C332 1.516 . S
C333 C334 1.502 . S
C333 C335 1.561 . S
C333 C336 1.526 . S
C334 H318 0.959 . S
C334 H319 0.959 . S
C334 H320 0.961 . S
C334 C333 1.502 . S
C335 H321 0.960 . S
C335 H322 0.961 . S
C335 H323 0.959 . S
C335 C333 1.561 . S
C336 C333 1.526 . S
C336 C337 1.396 . S
C336 C341 1.390 . S
C337 C331 1.465 . S
C337 C336 1.396 . S
C337 C338 1.399 . S
C338 H324 0.929 . S
C338 C337 1.399 . S
C338 C339 1.385 . S
C339 H325 0.931 . S
C339 C338 1.385 . S
C339 C340 1.389 . S
C340 C339 1.389 . S
C340 C341 1.387 . S
C341 H326 0.930 . S
C341 C336 1.390 . S
C341 C340 1.387 . S
H342 C354 0.930 . S
H343 C356 0.930 . S
H344 C357 0.930 . S
H345 C361 0.959 . S
H346 C361 0.959 . S
H347 C361 0.961 . S
H348 C362 0.960 . S
H349 C362 0.961 . S
H350 C362 0.959 . S
H351 C365 0.929 1_565 S
H352 C366 0.931 . S
H353 C368 0.930 . S
C354 H342 0.930 . S
C354 C355 1.399 . S
C354 C359 1.399 . S
C355 C354 1.399 . S
C355 C356 1.376 . S
C356 H343 0.930 . S
C356 C355 1.376 . S
C356 C357 1.388 1_554 S
C357 H344 0.930 . S
C357 C356 1.388 1_556 S
C357 C358 1.391 . S
C358 C357 1.391 . S
C358 C359 1.384 1_556 S
C358 C364 1.472 1_565 S
C359 C354 1.399 . S
C359 C358 1.384 1_554 S
C359 C360 1.516 1_565 S
C360 C359 1.516 1_545 S
C360 C361 1.502 . S
C360 C362 1.561 . S
C360 C363 1.526 1_554 S
C361 H345 0.959 . S
C361 H346 0.959 . S
C361 H347 0.961 . S
C361 C360 1.502 . S
C362 H348 0.960 . S
C362 H349 0.961 . S
C362 H350 0.959 . S
C362 C360 1.561 . S
C363 C360 1.526 1_556 S
C363 C364 1.396 . S
C363 C368 1.390 . S
C364 C358 1.472 1_545 S
C364 C363 1.396 . S
C364 C365 1.399 . S
C365 H351 0.929 1_545 S
C365 C364 1.399 . S
C365 C366 1.385 . S
C366 H352 0.931 . S
C366 C365 1.385 . S
C366 C367 1.389 . S
C367 C366 1.389 . S
C367 C368 1.387 . S
C368 H353 0.930 . S
C368 C363 1.390 . S
C368 C367 1.387 . S
H369 C381 0.930 . S
H370 C383 0.930 . S
H371 C384 0.930 1_455 S
H372 C388 0.959 1_545 S
H373 C388 0.959 . S
H374 C388 0.961 . S
H375 C389 0.960 . S
H376 C389 0.961 . S
H377 C389 0.959 . S
H378 C392 0.929 . S
H379 C393 0.931 . S
H380 C395 0.930 . S
C381 H369 0.930 . S
C381 C382 1.399 1_565 S
C381 C386 1.399 . S
C382 C381 1.399 1_545 S
C382 C383 1.376 . S
C383 H370 0.930 . S
C383 C382 1.376 . S
C383 C384 1.388 . S
C384 H371 0.930 1_655 S
C384 C383 1.388 . S
C384 C385 1.390 . S
C385 C384 1.390 . S
C385 C386 1.394 1_545 S
C385 C391 1.465 1_655 S
C386 C381 1.399 . S
C386 C385 1.394 1_565 S
C386 C387 1.516 . S
C387 C386 1.516 . S
C387 C388 1.502 . S
C387 C389 1.561 . S
C387 C390 1.526 1_655 S
C388 H372 0.959 1_565 S
C388 H373 0.959 . S
C388 H374 0.961 . S
C388 C387 1.502 . S
C389 H375 0.960 . S
C389 H376 0.961 . S
C389 H377 0.959 . S
C389 C387 1.561 . S
C390 C387 1.526 1_455 S
C390 C391 1.396 1_565 S
C390 C395 1.390 . S
C391 C385 1.465 1_455 S
C391 C390 1.396 1_545 S
C391 C392 1.399 . S
C392 H378 0.929 . S
C392 C391 1.399 . S
C392 C393 1.385 . S
C393 H379 0.931 . S
C393 C392 1.385 . S
C393 C394 1.389 1_545 S
C394 C393 1.389 1_565 S
C394 C395 1.387 . S
C395 H380 0.930 . S
C395 C390 1.390 . S
C395 C394 1.387 . S
H396 C408 0.930 . S
H397 C410 0.930 . S
H398 C411 0.930 . S
H399 C415 0.959 . S
H400 C415 0.959 . S
H401 C415 0.961 . S
H402 C416 0.960 . S
H403 C416 0.961 . S
H404 C416 0.959 . S
H405 C419 0.929 . S
H406 C420 0.931 . S
H407 C422 0.930 . S
C408 H396 0.930 . S
C408 C409 1.399 . S
C408 C413 1.399 . S
C409 C408 1.399 . S
C409 C410 1.376 . S
C410 H397 0.930 . S
C410 C409 1.376 . S
C410 C411 1.388 . S
C411 H398 0.930 . S
C411 C410 1.388 . S
C411 C412 1.390 . S
C412 C411 1.390 . S
C412 C413 1.394 . S
C412 C418 1.465 . S
C413 C408 1.399 . S
C413 C412 1.394 . S
C413 C414 1.516 . S
C414 C413 1.516 . S
C414 C415 1.502 . S
C414 C416 1.561 . S
C414 C417 1.526 . S
C415 H399 0.959 . S
C415 H400 0.959 . S
C415 H401 0.961 . S
C415 C414 1.502 . S
C416 H402 0.960 . S
C416 H403 0.961 . S
C416 H404 0.959 . S
C416 C414 1.561 . S
C417 C414 1.526 . S
C417 C418 1.396 . S
C417 C422 1.390 . S
C418 C412 1.465 . S
C418 C417 1.396 . S
C418 C419 1.399 . S
C419 H405 0.929 . S
C419 C418 1.399 . S
C419 C420 1.385 . S
C420 H406 0.931 . S
C420 C419 1.385 . S
C420 C421 1.389 . S
C421 C420 1.389 . S
C421 C422 1.387 . S
C422 H407 0.930 . S
C422 C417 1.390 . S
C422 C421 1.387 . S
H423 C435 0.930 . S
H424 C437 0.930 . S
H425 C438 0.930 . S
H426 C442 0.959 . S
H427 C442 0.959 . S
H428 C442 0.961 . S
H429 C443 0.960 . S
H430 C443 0.961 . S
H431 C443 0.959 . S
H432 C446 0.929 . S
H433 C447 0.931 . S
H434 C449 0.930 . S
C435 H423 0.930 . S
C435 C436 1.399 . S
C435 C440 1.399 . S
C436 C435 1.399 . S
C436 C437 1.376 . S
C437 H424 0.930 . S
C437 C436 1.376 . S
C437 C438 1.388 . S
C438 H425 0.930 . S
C438 C437 1.388 . S
C438 C439 1.390 . S
C439 C438 1.390 . S
C439 C440 1.394 . S
C439 C445 1.465 . S
C440 C435 1.399 . S
C440 C439 1.394 . S
C440 C441 1.516 . S
C441 C440 1.516 . S
C441 C442 1.502 . S
C441 C443 1.561 . S
C441 C444 1.526 . S
C442 H426 0.959 . S
C442 H427 0.959 . S
C442 H428 0.961 . S
C442 C441 1.502 . S
C443 H429 0.960 . S
C443 H430 0.961 . S
C443 H431 0.959 . S
C443 C441 1.561 . S
C444 C441 1.526 . S
C444 C445 1.396 . S
C444 C449 1.390 . S
C445 C439 1.465 . S
C445 C444 1.396 . S
C445 C446 1.399 . S
C446 H432 0.929 . S
C446 C445 1.399 . S
C446 C447 1.385 . S
C447 H433 0.931 . S
C447 C446 1.385 . S
C447 C448 1.389 . S
C448 C447 1.389 . S
C448 C449 1.387 . S
C449 H434 0.930 . S
C449 C444 1.390 . S
C449 C448 1.387 . S
H450 C462 0.930 . S
H451 C464 0.930 . S
H452 C465 0.930 . S
H453 C469 0.959 . S
H454 C469 0.959 . S
H455 C469 0.961 . S
H456 C470 0.960 . S
H457 C470 0.961 . S
H458 C470 0.959 . S
H459 C473 0.929 . S
H460 C474 0.931 . S
H461 C476 0.930 . S
C462 H450 0.930 . S
C462 C463 1.399 . S
C462 C467 1.399 . S
C463 C462 1.399 . S
C463 C464 1.376 . S
C464 H451 0.930 . S
C464 C463 1.376 . S
C464 C465 1.388 . S
C465 H452 0.930 . S
C465 C464 1.388 . S
C465 C466 1.390 . S
C466 C465 1.390 . S
C466 C467 1.394 . S
C466 C472 1.465 . S
C467 C462 1.399 . S
C467 C466 1.394 . S
C467 C468 1.516 . S
C468 C467 1.516 . S
C468 C469 1.502 . S
C468 C470 1.561 . S
C468 C471 1.526 . S
C469 H453 0.959 . S
C469 H454 0.959 . S
C469 H455 0.961 . S
C469 C468 1.502 . S
C470 H456 0.960 . S
C470 H457 0.961 . S
C470 H458 0.959 . S
C470 C468 1.561 . S
C471 C468 1.526 . S
C471 C472 1.396 . S
C471 C476 1.390 . S
C472 C466 1.465 . S
C472 C471 1.396 . S
C472 C473 1.399 . S
C473 H459 0.929 . S
C473 C472 1.399 . S
C473 C474 1.385 . S
C474 H460 0.931 . S
C474 C473 1.385 . S
C474 C475 1.389 . S
C475 C474 1.389 . S
C475 C476 1.387 . S
C476 H461 0.930 . S
C476 C471 1.390 . S
C476 C475 1.387 . S
H477 C489 0.930 . S
H478 C491 0.930 . S
H479 C492 0.930 . S
H480 C496 0.959 . S
H481 C496 0.959 . S
H482 C496 0.961 . S
H483 C497 0.960 . S
H484 C497 0.961 . S
H485 C497 0.959 . S
H486 C500 0.929 . S
H487 C501 0.931 . S
H488 C503 0.930 . S
C489 H477 0.930 . S
C489 C490 1.399 . S
C489 C494 1.399 . S
C490 C489 1.399 . S
C490 C491 1.376 . S
C491 H478 0.930 . S
C491 C490 1.376 . S
C491 C492 1.388 . S
C492 H479 0.930 . S
C492 C491 1.388 . S
C492 C493 1.390 . S
C493 C492 1.390 . S
C493 C494 1.394 . S
C493 C499 1.465 . S
C494 C489 1.399 . S
C494 C493 1.394 . S
C494 C495 1.516 . S
C495 C494 1.516 . S
C495 C496 1.502 . S
C495 C497 1.561 . S
C495 C498 1.526 . S
C496 H480 0.959 . S
C496 H481 0.959 . S
C496 H482 0.961 . S
C496 C495 1.502 . S
C497 H483 0.960 . S
C497 H484 0.961 . S
C497 H485 0.959 . S
C497 C495 1.561 . S
C498 C495 1.526 . S
C498 C499 1.396 . S
C498 C503 1.390 . S
C499 C493 1.465 . S
C499 C498 1.396 . S
C499 C500 1.399 . S
C500 H486 0.929 . S
C500 C499 1.399 . S
C500 C501 1.385 . S
C501 H487 0.931 . S
C501 C500 1.385 . S
C501 C502 1.389 . S
C502 C501 1.389 . S
C502 C503 1.387 . S
C503 H488 0.930 . S
C503 C498 1.390 . S
C503 C502 1.387 . S
H504 C516 0.930 . S
H505 C518 0.930 . S
H506 C519 0.930 . S
H507 C523 0.959 . S
H508 C523 0.959 . S
H509 C523 0.961 . S
H510 C524 0.960 . S
H511 C524 0.961 . S
H512 C524 0.959 . S
H513 C527 0.929 . S
H514 C528 0.931 . S
H515 C530 0.930 . S
C516 H504 0.930 . S
C516 C517 1.399 . S
C516 C521 1.399 . S
C517 C516 1.399 . S
C517 C518 1.376 . S
C518 H505 0.930 . S
C518 C517 1.376 . S
C518 C519 1.388 . S
C519 H506 0.930 . S
C519 C518 1.388 . S
C519 C520 1.390 . S
C520 C519 1.390 . S
C520 C521 1.394 . S
C520 C526 1.465 . S
C521 C516 1.399 . S
C521 C520 1.394 . S
C521 C522 1.516 . S
C522 C521 1.516 . S
C522 C523 1.502 . S
C522 C524 1.561 . S
C522 C525 1.526 . S
C523 H507 0.959 . S
C523 H508 0.959 . S
C523 H509 0.961 . S
C523 C522 1.502 . S
C524 H510 0.960 . S
C524 H511 0.961 . S
C524 H512 0.959 . S
C524 C522 1.561 . S
C525 C522 1.526 . S
C525 C526 1.396 . S
C525 C530 1.390 . S
C526 C520 1.465 . S
C526 C525 1.396 . S
C526 C527 1.399 . S
C527 H513 0.929 . S
C527 C526 1.399 . S
C527 C528 1.385 . S
C528 H514 0.931 . S
C528 C527 1.385 . S
C528 C529 1.389 . S
C529 C528 1.389 . S
C529 C530 1.387 . S
C530 H515 0.930 . S
C530 C525 1.390 . S
C530 C529 1.387 . S
H531 C543 0.930 . S
H532 C545 0.930 . S
H533 C546 0.930 . S
H534 C550 0.959 . S
H535 C550 0.959 . S
H536 C550 0.961 . S
H537 C551 0.960 . S
H538 C551 0.961 . S
H539 C551 0.959 . S
H540 C554 0.929 . S
H541 C555 0.931 . S
H542 C557 0.930 . S
C543 H531 0.930 . S
C543 C544 1.399 . S
C543 C548 1.399 . S
C544 C543 1.399 . S
C544 C545 1.376 . S
C545 H532 0.930 . S
C545 C544 1.376 . S
C545 C546 1.388 . S
C546 H533 0.930 . S
C546 C545 1.388 . S
C546 C547 1.390 . S
C547 C546 1.390 . S
C547 C548 1.394 . S
C547 C553 1.465 . S
C548 C543 1.399 . S
C548 C547 1.394 . S
C548 C549 1.516 . S
C549 C548 1.516 . S
C549 C550 1.502 . S
C549 C551 1.561 . S
C549 C552 1.526 . S
C550 H534 0.959 . S
C550 H535 0.959 . S
C550 H536 0.961 . S
C550 C549 1.502 . S
C551 H537 0.960 . S
C551 H538 0.961 . S
C551 H539 0.959 . S
C551 C549 1.561 . S
C552 C549 1.526 . S
C552 C553 1.396 . S
C552 C557 1.390 . S
C553 C547 1.465 . S
C553 C552 1.396 . S
C553 C554 1.399 . S
C554 H540 0.929 . S
C554 C553 1.399 . S
C554 C555 1.385 . S
C555 H541 0.931 . S
C555 C554 1.385 . S
C555 C556 1.389 . S
C556 C555 1.389 . S
C556 C557 1.387 . S
C557 H542 0.930 . S
C557 C552 1.390 . S
C557 C556 1.387 . S
H558 C570 0.930 . S
H559 C572 0.930 . S
H560 C573 0.930 1_545 S
H561 C577 0.959 . S
H562 C577 0.959 . S
H563 C577 0.961 . S
H564 C578 0.960 . S
H565 C578 0.961 . S
H566 C578 0.959 . S
H567 C581 0.929 . S
H568 C582 0.931 . S
H569 C584 0.930 . S
C570 H558 0.930 . S
C570 C571 1.399 . S
C570 C575 1.399 . S
C571 C570 1.399 . S
C571 C572 1.376 . S
C572 H559 0.930 . S
C572 C571 1.376 . S
C572 C573 1.388 . S
C573 H560 0.930 1_565 S
C573 C572 1.388 . S
C573 C574 1.390 . S
C574 C573 1.390 . S
C574 C575 1.394 . S
C574 C580 1.465 . S
C575 C570 1.399 . S
C575 C574 1.394 . S
C575 C576 1.516 . S
C576 C575 1.516 . S
C576 C577 1.502 . S
C576 C578 1.561 . S
C576 C579 1.526 . S
C577 H561 0.959 . S
C577 H562 0.959 . S
C577 H563 0.961 . S
C577 C576 1.502 . S
C578 H564 0.960 . S
C578 H565 0.961 . S
C578 H566 0.959 . S
C578 C576 1.561 . S
C579 C576 1.526 . S
C579 C580 1.396 . S
C579 C584 1.390 . S
C580 C574 1.465 . S
C580 C579 1.396 . S
C580 C581 1.399 1_565 S
C581 H567 0.929 . S
C581 C580 1.399 1_545 S
C581 C582 1.385 . S
C582 H568 0.931 . S
C582 C581 1.385 . S
C582 C583 1.389 1_545 S
C583 C582 1.389 1_565 S
C583 C584 1.387 . S
C584 H569 0.930 . S
C584 C579 1.390 . S
C584 C583 1.387 . S
H585 C597 0.930 . S
H586 C599 0.930 . S
H587 C600 0.930 . S
H588 C604 0.959 . S
H589 C604 0.959 . S
H590 C604 0.961 . S
H591 C605 0.960 . S
H592 C605 0.961 . S
H593 C605 0.959 1_655 S
H594 C608 0.929 . S
H595 C609 0.931 . S
H596 C611 0.930 . S
C597 H585 0.930 . S
C597 C598 1.399 . S
C597 C602 1.399 . S
C598 C597 1.399 . S
C598 C599 1.376 . S
C599 H586 0.930 . S
C599 C598 1.376 . S
C599 C600 1.388 . S
C600 H587 0.930 . S
C600 C599 1.388 . S
C600 C601 1.390 . S
C601 C600 1.390 . S
C601 C602 1.394 . S
C601 C607 1.465 . S
C602 C597 1.399 . S
C602 C601 1.394 . S
C602 C603 1.516 . S
C603 C602 1.516 . S
C603 C604 1.502 . S
C603 C605 1.561 . S
C603 C606 1.526 . S
C604 H588 0.959 . S
C604 H589 0.959 . S
C604 H590 0.961 . S
C604 C603 1.502 . S
C605 H591 0.960 . S
C605 H592 0.961 . S
C605 H593 0.959 1_455 S
C605 C603 1.561 . S
C606 C603 1.526 . S
C606 C607 1.396 . S
C606 C611 1.390 . S
C607 C601 1.465 . S
C607 C606 1.396 . S
C607 C608 1.399 . S
C608 H594 0.929 . S
C608 C607 1.399 . S
C608 C609 1.385 . S
C609 H595 0.931 . S
C609 C608 1.385 . S
C609 C610 1.389 . S
C610 C609 1.389 . S
C610 C611 1.387 . S
C611 H596 0.930 . S
C611 C606 1.390 . S
C611 C610 1.387 . S
H612 C624 0.930 . S
H613 C626 0.930 . S
H614 C627 0.930 . S
H615 C631 0.959 . S
H616 C631 0.959 . S
H617 C631 0.961 . S
H618 C632 0.960 . S
H619 C632 0.961 . S
H620 C632 0.959 . S
H621 C635 0.929 . S
H622 C636 0.931 . S
H623 C638 0.930 . S
C624 H612 0.930 . S
C624 C625 1.399 . S
C624 C629 1.399 . S
C625 C624 1.399 . S
C625 C626 1.376 . S
C626 H613 0.930 . S
C626 C625 1.376 . S
C626 C627 1.388 . S
C627 H614 0.930 . S
C627 C626 1.388 . S
C627 C628 1.390 . S
C628 C627 1.390 . S
C628 C629 1.394 . S
C628 C634 1.465 . S
C629 C624 1.399 . S
C629 C628 1.394 . S
C629 C630 1.516 . S
C630 C629 1.516 . S
C630 C631 1.502 . S
C630 C632 1.561 . S
C630 C633 1.526 . S
C631 H615 0.959 . S
C631 H616 0.959 . S
C631 H617 0.961 . S
C631 C630 1.502 . S
C632 H618 0.960 . S
C632 H619 0.961 . S
C632 H620 0.959 . S
C632 C630 1.561 . S
C633 C630 1.526 . S
C633 C634 1.396 . S
C633 C638 1.390 . S
C634 C628 1.465 . S
C634 C633 1.396 . S
C634 C635 1.399 . S
C635 H621 0.929 . S
C635 C634 1.399 . S
C635 C636 1.385 . S
C636 H622 0.931 . S
C636 C635 1.385 . S
C636 C637 1.389 . S
C637 C636 1.389 . S
C637 C638 1.387 . S
C638 H623 0.930 . S
C638 C633 1.390 . S
C638 C637 1.387 . S
H639 C651 0.930 . S
H640 C653 0.930 . S
H641 C654 0.930 . S
H642 C658 0.959 . S
H643 C658 0.959 . S
H644 C658 0.961 . S
H645 C659 0.960 . S
H646 C659 0.961 . S
H647 C659 0.959 . S
H648 C662 0.929 . S
H649 C663 0.931 . S
H650 C665 0.930 . S
C651 H639 0.930 . S
C651 C652 1.399 . S
C651 C656 1.399 . S
C652 C651 1.399 . S
C652 C653 1.376 . S
C653 H640 0.930 . S
C653 C652 1.376 . S
C653 C654 1.388 . S
C654 H641 0.930 . S
C654 C653 1.388 . S
C654 C655 1.390 . S
C655 C654 1.390 . S
C655 C656 1.394 . S
C655 C661 1.465 . S
C656 C651 1.399 . S
C656 C655 1.394 . S
C656 C657 1.516 . S
C657 C656 1.516 . S
C657 C658 1.502 . S
C657 C659 1.561 . S
C657 C660 1.526 . S
C658 H642 0.959 . S
C658 H643 0.959 . S
C658 H644 0.961 . S
C658 C657 1.502 . S
C659 H645 0.960 . S
C659 H646 0.961 . S
C659 H647 0.959 . S
C659 C657 1.561 . S
C660 C657 1.526 . S
C660 C661 1.396 . S
C660 C665 1.390 . S
C661 C655 1.465 . S
C661 C660 1.396 . S
C661 C662 1.399 . S
C662 H648 0.929 . S
C662 C661 1.399 . S
C662 C663 1.385 . S
C663 H649 0.931 . S
C663 C662 1.385 . S
C663 C664 1.389 . S
C664 C663 1.389 . S
C664 C665 1.387 . S
C665 H650 0.930 . S
C665 C660 1.390 . S
C665 C664 1.387 . S
H666 C678 0.930 . S
H667 C680 0.930 . S
H668 C681 0.930 . S
H669 C685 0.959 . S
H670 C685 0.959 . S
H671 C685 0.961 . S
H672 C686 0.960 . S
H673 C686 0.961 . S
H674 C686 0.959 . S
H675 C689 0.929 . S
H676 C690 0.931 . S
H677 C692 0.930 . S
C678 H666 0.930 . S
C678 C679 1.399 . S
C678 C683 1.399 . S
C679 C678 1.399 . S
C679 C680 1.376 . S
C680 H667 0.930 . S
C680 C679 1.376 . S
C680 C681 1.388 . S
C681 H668 0.930 . S
C681 C680 1.388 . S
C681 C682 1.390 . S
C682 C681 1.390 . S
C682 C683 1.394 . S
C682 C688 1.465 . S
C683 C678 1.399 . S
C683 C682 1.394 . S
C683 C684 1.516 . S
C684 C683 1.516 . S
C684 C685 1.502 . S
C684 C686 1.561 . S
C684 C687 1.526 . S
C685 H669 0.959 . S
C685 H670 0.959 . S
C685 H671 0.961 . S
C685 C684 1.502 . S
C686 H672 0.960 . S
C686 H673 0.961 . S
C686 H674 0.959 . S
C686 C684 1.561 . S
C687 C684 1.526 . S
C687 C688 1.396 . S
C687 C692 1.390 . S
C688 C682 1.465 . S
C688 C687 1.396 . S
C688 C689 1.399 . S
C689 H675 0.929 . S
C689 C688 1.399 . S
C689 C690 1.385 . S
C690 H676 0.931 . S
C690 C689 1.385 . S
C690 C691 1.389 . S
C691 C690 1.389 . S
C691 C692 1.387 . S
C692 H677 0.930 . S
C692 C687 1.390 . S
C692 C691 1.387 . S
H693 C705 0.930 . S
H694 C707 0.930 . S
H695 C708 0.930 . S
H696 C712 0.959 . S
H697 C712 0.959 . S
H698 C712 0.961 . S
H699 C713 0.960 1_455 S
H700 C713 0.961 . S
H701 C713 0.959 1_455 S
H702 C716 0.929 . S
H703 C717 0.931 . S
H704 C719 0.930 . S
C705 H693 0.930 . S
C705 C706 1.399 . S
C705 C710 1.399 . S
C706 C705 1.399 . S
C706 C707 1.376 . S
C707 H694 0.930 . S
C707 C706 1.376 . S
C707 C708 1.388 . S
C708 H695 0.930 . S
C708 C707 1.388 . S
C708 C709 1.390 . S
C709 C708 1.390 . S
C709 C710 1.394 . S
C709 C715 1.465 . S
C710 C705 1.399 . S
C710 C709 1.394 . S
C710 C711 1.516 . S
C711 C710 1.516 . S
C711 C712 1.502 . S
C711 C713 1.561 . S
C711 C714 1.526 . S
C712 H696 0.959 . S
C712 H697 0.959 . S
C712 H698 0.961 . S
C712 C711 1.502 . S
C713 H699 0.960 1_655 S
C713 H700 0.961 . S
C713 H701 0.959 1_655 S
C713 C711 1.561 . S
C714 C711 1.526 . S
C714 C715 1.396 . S
C714 C719 1.390 . S
C715 C709 1.465 . S
C715 C714 1.396 . S
C715 C716 1.399 . S
C716 H702 0.929 . S
C716 C715 1.399 . S
C716 C717 1.385 . S
C717 H703 0.931 . S
C717 C716 1.385 . S
C717 C718 1.389 . S
C718 C717 1.389 . S
C718 C719 1.387 . S
C719 H704 0.930 . S
C719 C714 1.390 . S
C719 C718 1.387 . S
C301 C158 1.622 . S
C313 C14 1.596 . S
C328 C50 1.592 . S
C340 C194 1.623 . S
C355 C86 1.611 . S
C367 C230 1.608 . S
C382 C266 1.607 . S
C394 C122 1.612 . S
C409 C4 1.432 . S
C421 C76 1.372 . S
C436 C40 1.374 . S
C448 C112 1.429 . S
C463 C220 1.356 . S
C475 C148 1.403 . S
C490 C184 1.434 . S
C502 C256 1.357 . S
C517 C182 1.006 . S
C529 C3 0.990 . S
C544 C39 1.000 . S
C556 C218 0.989 . S
C571 C75 0.977 . S
C583 C254 0.904 . S
C598 C146 0.886 . S
C610 C111 0.952 . S
C625 C147 1.001 . S
C637 C38 0.932 . S
C652 C183 0.963 . S
C664 C74 1.007 . S
C679 C219 0.974 . S
C691 C110 1.003 . S
C706 C2 0.987 . S
C718 C255 0.989 . S
