# Generated by pormake.
# Topology vmh, (6)-cn, num edge types: 1
# Building blocks:
#     Node 0, Type 0, BuildingBlock: IZENUY_clean_sbu_0, # of connection points: 6
#     Node 1, Type 0, BuildingBlock: IZENUY_clean_sbu_0, # of connection points: 6
#     Node 2, Type 0, BuildingBlock: IZENUY_clean_sbu_0, # of connection points: 6
#     Node 3, Type 0, BuildingBlock: IZENUY_clean_sbu_0, # of connection points: 6
#     Node 4, Type 0, BuildingBlock: IZENUY_clean_sbu_0, # of connection points: 6
#     Node 5, Type 0, BuildingBlock: IZENUY_clean_sbu_0, # of connection points: 6
#     Node 6, Type 0, BuildingBlock: IZENUY_clean_sbu_0, # of connection points: 6
#     Node 7, Type 0, BuildingBlock: IZENUY_clean_sbu_0, # of connection points: 6
#     Edge 8, Type (0, 0), BuildingBlock: UVAHIK_clean_linker_0, # of connection points: 2
#     Edge 9, Type (0, 0), BuildingBlock: UVAHIK_clean_linker_0, # of connection points: 2
#     Edge 10, Type (0, 0), BuildingBlock: UVAHIK_clean_linker_0, # of connection points: 2
#     Edge 11, Type (0, 0), BuildingBlock: UVAHIK_clean_linker_0, # of connection points: 2
#     Edge 12, Type (0, 0), BuildingBlock: UVAHIK_clean_linker_0, # of connection points: 2
#     Edge 13, Type (0, 0), BuildingBlock: UVAHIK_clean_linker_0, # of connection points: 2
#     Edge 14, Type (0, 0), BuildingBlock: UVAHIK_clean_linker_0, # of connection points: 2
#     Edge 15, Type (0, 0), BuildingBlock: UVAHIK_clean_linker_0, # of connection points: 2
#     Edge 16, Type (0, 0), BuildingBlock: UVAHIK_clean_linker_0, # of connection points: 2
#     Edge 17, Type (0, 0), BuildingBlock: UVAHIK_clean_linker_0, # of connection points: 2
#     Edge 18, Type (0, 0), BuildingBlock: UVAHIK_clean_linker_0, # of connection points: 2
#     Edge 19, Type (0, 0), BuildingBlock: UVAHIK_clean_linker_0, # of connection points: 2
#     Edge 20, Type (0, 0), BuildingBlock: UVAHIK_clean_linker_0, # of connection points: 2
#     Edge 21, Type (0, 0), BuildingBlock: UVAHIK_clean_linker_0, # of connection points: 2
#     Edge 22, Type (0, 0), BuildingBlock: UVAHIK_clean_linker_0, # of connection points: 2
#     Edge 23, Type (0, 0), BuildingBlock: UVAHIK_clean_linker_0, # of connection points: 2
#     Edge 24, Type (0, 0), BuildingBlock: UVAHIK_clean_linker_0, # of connection points: 2
#     Edge 25, Type (0, 0), BuildingBlock: UVAHIK_clean_linker_0, # of connection points: 2
#     Edge 26, Type (0, 0), BuildingBlock: UVAHIK_clean_linker_0, # of connection points: 2
#     Edge 27, Type (0, 0), BuildingBlock: UVAHIK_clean_linker_0, # of connection points: 2
#     Edge 28, Type (0, 0), BuildingBlock: UVAHIK_clean_linker_0, # of connection points: 2
#     Edge 29, Type (0, 0), BuildingBlock: UVAHIK_clean_linker_0, # of connection points: 2
#     Edge 30, Type (0, 0), BuildingBlock: UVAHIK_clean_linker_0, # of connection points: 2
#     Edge 31, Type (0, 0), BuildingBlock: UVAHIK_clean_linker_0, # of connection points: 2
# Relax obj value: 0.247
# Max RMSD: 0.263
# Mean RMSD: 0.263
data_MOF--net-vmh--node1-IZENUY_clean_sbu_0--edge1-UVAHIK_clean_linker_0
_symmetry_space_group_name_H-M    P1
_symmetry_Int_Tables_number       1
_symmetry_cell_setting            triclinic
loop_
_symmetry_equiv_pos_as_xyz
'x, y, z'
_cell_length_a     35.882975
_cell_length_b     55.254387
_cell_length_c     37.05871
_cell_angle_alpha  89.887394
_cell_angle_beta   104.59437
_cell_angle_gamma 90.168092
loop_
_atom_site_label
_atom_site_type_symbol
_atom_site_fract_x
_atom_site_fract_y
_atom_site_fract_z
_atom_type_partial_charge
Fe0 Fe 0.25529 0.09187 0.08527 0.0
Fe1 Fe 0.26371 0.0442 0.04432 0.0
O2 O 0.27689 0.07479 0.05535 0.0
Fe3 Fe 0.3128 0.08817 0.03653 0.0
O4 O 0.34389 0.09163 0.08254 0.0
O5 O 0.30079 0.10798 0.10835 0.0
O6 O 0.2688 0.07003 0.12235 0.0
C7 C 0.26195 0.04769 0.12042 0.0
C8 C 0.26256 0.12747 0.03611 0.0
O9 O 0.25393 0.03673 0.08947 0.0
C10 C 0.27142 0.06434 0.97575 0.0
O11 O 0.20683 0.07772 0.06792 0.0
O12 O 0.21431 0.05245 0.02424 0.0
O13 O 0.29517 0.11902 0.03631 0.0
O14 O 0.23989 0.11584 0.05082 0.0
C15 C 0.3411 0.04134 0.05302 0.0
O16 O 0.2706 0.04632 0.99693 0.0
O17 O 0.2833 0.08476 0.98928 0.0
C18 C 0.19278 0.06392 0.04025 0.0
O19 O 0.31268 0.03347 0.06367 0.0
O20 O 0.33827 0.06019 0.03342 0.0
C21 C 0.3354 0.10205 0.10956 0.0
Fe22 Fe 0.76789 0.0936 0.41683 0.0
Fe23 Fe 0.75209 0.04772 0.45745 0.0
O24 O 0.74355 0.07875 0.44677 0.0
Fe25 Fe 0.71011 0.09487 0.46524 0.0
O26 O 0.69327 0.1141 0.42391 0.0
O27 O 0.72215 0.09956 0.38303 0.0
O28 O 0.7718 0.06657 0.38956 0.0
C29 C 0.75142 0.04756 0.38374 0.0
C30 C 0.76341 0.13023 0.46978 0.0
O31 O 0.73638 0.0393 0.40855 0.0
C32 C 0.74881 0.06499 0.52565 0.0
O33 O 0.81502 0.08766 0.44878 0.0
O34 O 0.80249 0.04907 0.45608 0.0
O35 O 0.74636 0.11653 0.48762 0.0
O36 O 0.76792 0.1237 0.43836 0.0
C37 C 0.6718 0.05204 0.4497 0.0
O38 O 0.76836 0.054 0.50693 0.0
O39 O 0.72072 0.07827 0.50969 0.0
C40 C 0.82604 0.06655 0.46025 0.0
O41 O 0.70328 0.04092 0.4613 0.0
O42 O 0.67141 0.07449 0.44407 0.0
C43 C 0.69337 0.10967 0.39042 0.0
Fe44 Fe 0.75086 0.96733 0.95929 0.0
Fe45 Fe 0.75599 0.92043 0.91562 0.0
O46 O 0.73724 0.93678 0.94834 0.0
Fe47 Fe 0.70408 0.92292 0.97018 0.0
O48 O 0.67845 0.95071 0.97446 0.0
O49 O 0.70143 0.97788 0.94253 0.0
O50 O 0.75828 0.97517 0.91332 0.0
C51 C 0.74689 0.96501 0.88193 0.0
C52 C 0.74791 0.94727 0.02915 0.0
O53 O 0.73908 0.9428 0.8797 0.0
C54 C 0.75406 0.88412 0.96579 0.0
O55 O 0.8005 0.95883 0.97674 0.0
O56 O 0.80472 0.93483 0.93036 0.0
O57 O 0.73638 0.92672 0.01611 0.0
O58 O 0.74674 0.96525 0.00757 0.0
C59 C 0.67587 0.90845 0.89762 0.0
O60 O 0.77424 0.89594 0.94845 0.0
O61 O 0.72258 0.89242 0.96951 0.0
C62 C 0.82053 0.94785 0.95856 0.0
O63 O 0.71003 0.90415 0.89506 0.0
O64 O 0.66995 0.91863 0.92603 0.0
C65 C 0.6742 0.96962 0.95478 0.0
Fe66 Fe 0.24764 0.91921 0.58743 0.0
Fe67 Fe 0.30343 0.91726 0.53701 0.0
O68 O 0.27139 0.9338 0.55674 0.0
Fe69 Fe 0.26358 0.96494 0.54662 0.0
O70 O 0.28088 0.97304 0.5955 0.0
O71 O 0.24513 0.94629 0.61509 0.0
O72 O 0.2938 0.91285 0.6202 0.0
C73 C 0.32198 0.90251 0.61197 0.0
C74 C 0.18954 0.94686 0.5453 0.0
O75 O 0.32103 0.898 0.57824 0.0
C76 C 0.26409 0.94773 0.47763 0.0
O77 O 0.24633 0.88904 0.56581 0.0
O78 O 0.26614 0.896 0.51555 0.0
O79 O 0.21353 0.96411 0.54933 0.0
O80 O 0.20018 0.92562 0.5564 0.0
C81 C 0.34327 0.95966 0.55177 0.0
O82 O 0.29176 0.93385 0.49255 0.0
O83 O 0.24587 0.95905 0.49724 0.0
C84 C 0.24972 0.8824 0.53405 0.0
O85 O 0.34314 0.93719 0.55707 0.0
O86 O 0.31206 0.97122 0.54144 0.0
C87 C 0.26628 0.96497 0.62071 0.0
Fe88 Fe 0.7585 0.59223 0.08357 0.0
Fe89 Fe 0.76546 0.5454 0.04034 0.0
O90 O 0.77797 0.57617 0.05105 0.0
Fe91 Fe 0.81066 0.59046 0.02903 0.0
O92 O 0.84464 0.59555 0.07313 0.0
O93 O 0.80391 0.60887 0.10438 0.0
O94 O 0.77563 0.56995 0.11966 0.0
C95 C 0.76884 0.54761 0.11742 0.0
C96 C 0.7595 0.62865 0.03311 0.0
O97 O 0.75796 0.5374 0.08607 0.0
C98 C 0.76752 0.5653 0.97037 0.0
O99 O 0.71029 0.57739 0.0684 0.0
O100 O 0.71558 0.55323 0.0225 0.0
O101 O 0.79102 0.62067 0.02909 0.0
O102 O 0.73981 0.61666 0.05075 0.0
C103 C 0.84231 0.54441 0.04589 0.0
O104 O 0.76993 0.54737 0.9922 0.0
O105 O 0.77846 0.58602 0.9831 0.0
C106 C 0.69509 0.56418 0.04027 0.0
O107 O 0.81514 0.53564 0.05768 0.0
O108 O 0.83736 0.563 0.02547 0.0
C109 C 0.8382 0.60539 0.1016 0.0
Fe110 Fe 0.261 0.5918 0.41765 0.0
Fe111 Fe 0.25363 0.54535 0.46163 0.0
O112 O 0.24146 0.57608 0.45057 0.0
Fe113 Fe 0.2091 0.59062 0.47252 0.0
O114 O 0.17522 0.59595 0.42839 0.0
O115 O 0.2161 0.60875 0.39689 0.0
O116 O 0.243 0.56943 0.38196 0.0
C117 C 0.24986 0.54713 0.38458 0.0
C118 C 0.2614 0.62833 0.46795 0.0
O119 O 0.26134 0.53721 0.41611 0.0
C120 C 0.25099 0.56512 0.53146 0.0
O121 O 0.30883 0.57673 0.43278 0.0
O122 O 0.30352 0.55327 0.47959 0.0
O123 O 0.22982 0.62066 0.47255 0.0
O124 O 0.28044 0.61617 0.45004 0.0
C125 C 0.1767 0.54459 0.45562 0.0
O126 O 0.24877 0.54732 0.50956 0.0
O127 O 0.24096 0.58595 0.51866 0.0
C128 C 0.32403 0.56399 0.46146 0.0
O129 O 0.2039 0.53566 0.44419 0.0
O130 O 0.18167 0.5633 0.47579 0.0
C131 C 0.18178 0.60554 0.39973 0.0
Fe132 Fe 0.25496 0.46615 0.96238 0.0
Fe133 Fe 0.26147 0.4193 0.91907 0.0
O134 O 0.24208 0.43545 0.95156 0.0
Fe135 Fe 0.20915 0.42132 0.97345 0.0
O136 O 0.18262 0.4489 0.97677 0.0
O137 O 0.20544 0.47618 0.94484 0.0
O138 O 0.26285 0.47408 0.91678 0.0
C139 C 0.25177 0.46395 0.88538 0.0
C140 C 0.2517 0.44649 0.0323 0.0
O141 O 0.24463 0.44166 0.88304 0.0
C142 C 0.25996 0.38288 0.96937 0.0
O143 O 0.3047 0.45803 0.98046 0.0
O144 O 0.30982 0.43396 0.93439 0.0
O145 O 0.24115 0.42573 0.01952 0.0
O146 O 0.25008 0.46429 0.01037 0.0
C147 C 0.18165 0.4064 0.90086 0.0
O148 O 0.27983 0.39481 0.95185 0.0
O149 O 0.22858 0.39104 0.97349 0.0
C150 C 0.32512 0.44703 0.96266 0.0
O151 O 0.21591 0.40283 0.89808 0.0
O152 O 0.17527 0.41628 0.9293 0.0
C153 C 0.17807 0.46756 0.95649 0.0
Fe154 Fe 0.75729 0.42167 0.58571 0.0
Fe155 Fe 0.80969 0.42264 0.53123 0.0
O156 O 0.77704 0.43725 0.55278 0.0
Fe157 Fe 0.76472 0.46791 0.54116 0.0
O158 O 0.7565 0.4763 0.58634 0.0
O159 O 0.77442 0.44431 0.62121 0.0
O160 O 0.80237 0.40502 0.60714 0.0
C161 C 0.83672 0.40814 0.60427 0.0
C162 C 0.69427 0.44912 0.54103 0.0
O163 O 0.84335 0.41756 0.57554 0.0
C164 C 0.76805 0.44777 0.47175 0.0
O165 O 0.73842 0.39704 0.55364 0.0
O166 O 0.78922 0.39255 0.53145 0.0
O167 O 0.71491 0.45981 0.52298 0.0
O168 O 0.70932 0.43647 0.56985 0.0
C169 C 0.84172 0.46882 0.54768 0.0
O170 O 0.77806 0.42702 0.48489 0.0
O171 O 0.77 0.46569 0.4934 0.0
C172 C 0.75769 0.38481 0.53607 0.0
O173 O 0.837 0.44998 0.5278 0.0
O174 O 0.81433 0.47777 0.55881 0.0
C175 C 0.76705 0.46654 0.61807 0.0
C176 C 0.24966 0.03776 0.92035 0.0
C177 C 0.26625 0.05972 0.93553 0.0
C178 C 0.25077 0.03093 0.88453 0.0
C179 C 0.26413 0.05013 0.79442 0.0
H180 H 0.30259 0.98464 0.79317 0.0
C181 C 0.28643 1.0018 0.66105 0.0
C182 C 0.27052 0.97837 0.65602 0.0
C183 C 0.28919 0.01424 0.69457 0.0
C184 C 0.29178 1.00294 0.79303 0.0
H185 H 0.29429 0.09264 0.9239 0.0
H186 H 0.29604 0.08054 0.86069 0.0
H187 H 0.29842 1.00255 0.85191 0.0
H188 H 0.24541 0.94959 0.68232 0.0
H189 H 0.25018 0.97112 0.74013 0.0
H190 H 0.25655 0.05009 0.73503 0.0
C191 C 0.28245 0.06867 0.87689 0.0
C192 C 0.28933 0.01316 0.82661 0.0
C193 C 0.2814 0.07556 0.913 0.0
C194 C 0.25779 0.9676 0.68516 0.0
C195 C 0.26076 0.97989 0.71847 0.0
C196 C 0.26644 0.03979 0.76053 0.0
C197 C 0.26842 0.04588 0.86299 0.0
C198 C 0.27444 0.03655 0.82752 0.0
C199 C 0.27655 1.00328 0.72364 0.0
C200 C 0.27924 0.01582 0.75949 0.0
H201 H 0.23716 0.02534 0.93672 0.0
H202 H 0.23891 0.0135 0.87407 0.0
H203 H 0.25274 0.06825 0.7945 0.0
H204 H 0.29642 0.01059 0.63905 0.0
H205 H 0.30157 0.03225 0.69792 0.0
C206 C 0.76365 1.00155 0.84851 0.0
C207 C 0.74689 0.97842 0.84727 0.0
C208 C 0.76637 0.01313 0.81561 0.0
C209 C 0.76718 0.99909 0.71841 0.0
H210 H 0.74701 0.06754 0.70076 0.0
C211 C 0.72899 0.06779 0.58572 0.0
C212 C 0.75499 0.05938 0.56586 0.0
C213 C 0.73212 0.06029 0.62239 0.0
C214 C 0.7527 0.04839 0.70527 0.0
H215 H 0.7183 0.94984 0.81031 0.0
H216 H 0.72256 0.97009 0.75326 0.0
H217 H 0.74224 0.0495 0.75972 0.0
H218 H 0.80616 0.03765 0.56986 0.0
H219 H 0.81193 0.02486 0.63402 0.0
H220 H 0.77632 0.99766 0.66371 0.0
C221 C 0.73446 0.97907 0.77963 0.0
C222 C 0.7503 0.03811 0.73917 0.0
C223 C 0.7318 0.96752 0.81238 0.0
C224 C 0.78536 0.04426 0.58417 0.0
C225 C 0.78856 0.03683 0.62091 0.0
C226 C 0.76958 0.00933 0.68463 0.0
C227 C 0.75237 1.00181 0.78085 0.0
C228 C 0.75693 0.01325 0.74587 0.0
C229 C 0.76143 0.04428 0.64015 0.0
C230 C 0.76193 0.03404 0.67742 0.0
H231 H 0.77561 0.01045 0.87493 0.0
H232 H 0.78045 0.03062 0.81748 0.0
H233 H 0.77312 0.97996 0.72292 0.0
H234 H 0.70528 0.07949 0.57253 0.0
H235 H 0.71052 0.06622 0.63621 0.0
C236 C 0.76261 0.0448 0.32028 0.0
C237 C 0.74855 0.0341 0.34867 0.0
C238 C 0.76075 0.03253 0.28716 0.0
C239 C 0.75512 0.97267 0.24462 0.0
H240 H 0.72574 0.01022 0.15335 0.0
C241 C 0.73988 0.93631 0.09267 0.0
C242 C 0.75449 0.95197 0.0695 0.0
C243 C 0.73961 0.94345 0.12887 0.0
C244 C 0.73422 0.99953 0.17863 0.0
H245 H 0.72153 1.00196 0.36448 0.0
H246 H 0.71829 0.98034 0.30592 0.0
H247 H 0.72111 0.02822 0.21185 0.0
H248 H 0.78355 0.98621 0.06724 0.0
H249 H 0.78336 0.99844 0.13015 0.0
H250 H 0.76852 0.94399 0.21086 0.0
C251 C 0.73087 0.99828 0.30974 0.0
C252 C 0.73148 0.00981 0.21209 0.0
C253 C 0.73254 0.0107 0.34309 0.0
C254 C 0.77149 0.97394 0.08416 0.0
C255 C 0.77123 0.98099 0.12012 0.0
C256 C 0.75775 0.96228 0.21087 0.0
C257 C 0.74476 0.00921 0.28139 0.0
C258 C 0.74291 0.99678 0.2456 0.0
C259 C 0.75394 0.96628 0.14228 0.0
C260 C 0.74834 0.97592 0.17778 0.0
H261 H 0.77514 0.06277 0.32355 0.0
H262 H 0.77228 0.04127 0.26609 0.0
H263 H 0.76416 0.96224 0.2701 0.0
H264 H 0.72666 0.91924 0.08216 0.0
H265 H 0.72627 0.93174 0.14551 0.0
C266 C 0.26596 0.00976 0.1589 0.0
C267 C 0.26002 0.03485 0.15491 0.0
C268 C 0.2652 0.9982 0.19243 0.0
C269 C 0.27209 0.01261 0.29213 0.0
H270 H 0.23095 0.94788 0.29536 0.0
C271 C 0.23689 0.97493 0.42341 0.0
C272 C 0.25729 0.95386 0.43761 0.0
C273 C 0.23508 0.98266 0.38715 0.0
C274 C 0.24259 0.96594 0.29469 0.0
H275 H 0.24674 0.06728 0.18208 0.0
H276 H 0.24377 0.04721 0.23936 0.0
H277 H 0.23251 0.96581 0.23518 0.0
H278 H 0.2895 0.9235 0.424 0.0
H279 H 0.2855 0.93692 0.36007 0.0
H280 H 0.28091 0.01301 0.35141 0.0
C281 C 0.25073 0.03645 0.21756 0.0
C282 C 0.24375 0.97617 0.26035 0.0
C283 C 0.25218 0.04799 0.18452 0.0
C284 C 0.2738 0.9399 0.41394 0.0
C285 C 0.27141 0.94748 0.37737 0.0
C286 C 0.27026 1.00258 0.32616 0.0
C287 C 0.2579 0.01149 0.22232 0.0
C288 C 0.25814 0.99979 0.25864 0.0
C289 C 0.253 0.96928 0.36413 0.0
C290 C 0.25521 0.97928 0.32773 0.0
H291 H 0.27207 0.99921 0.13647 0.0
H292 H 0.27112 0.97899 0.19514 0.0
H293 H 0.28452 0.03049 0.2922 0.0
H294 H 0.22376 0.98607 0.4408 0.0
H295 H 0.22048 0.99947 0.37735 0.0
C296 C 0.7628 0.46859 0.68424 0.0
C297 C 0.76574 0.48061 0.65162 0.0
C298 C 0.75854 0.48169 0.71507 0.0
C299 C 0.77927 0.53817 0.76428 0.0
H300 H 0.69564 0.51966 0.80768 0.0
C301 C 0.76523 0.57814 0.90455 0.0
C302 C 0.75826 0.56068 0.92975 0.0
C303 C 0.76053 0.57228 0.86688 0.0
C304 C 0.71923 0.52502 0.79602 0.0
H305 H 0.7678 0.51583 0.62618 0.0
H306 H 0.76149 0.53881 0.68092 0.0
H307 H 0.70051 0.50132 0.74927 0.0
H308 H 0.73893 0.52384 0.93474 0.0
H309 H 0.73153 0.5136 0.86995 0.0
H310 H 0.79939 0.56081 0.81209 0.0
C311 C 0.76192 0.51922 0.68213 0.0
C312 C 0.72189 0.51457 0.76254 0.0
C313 C 0.76547 0.50607 0.65091 0.0
C314 C 0.7448 0.53771 0.91619 0.0
C315 C 0.74017 0.53188 0.87879 0.0
C316 C 0.77694 0.54842 0.79815 0.0
C317 C 0.75778 0.50708 0.71419 0.0
C318 C 0.75247 0.52057 0.74692 0.0
C319 C 0.7486 0.54891 0.85374 0.0
C320 C 0.74751 0.54139 0.81497 0.0
H321 H 0.7628 0.449 0.68569 0.0
H322 H 0.75585 0.47196 0.7397 0.0
H323 H 0.80314 0.54304 0.75269 0.0
H324 H 0.77548 0.59604 0.9141 0.0
H325 H 0.76684 0.5859 0.84821 0.0
C326 C 0.2502 0.57751 0.59682 0.0
C327 C 0.2575 0.56005 0.57184 0.0
C328 C 0.25059 0.571 0.63353 0.0
C329 C 0.22566 0.5204 0.68232 0.0
H330 H 0.2942 0.54248 0.77478 0.0
C331 C 0.24442 0.4659 0.81655 0.0
C332 C 0.25019 0.47793 0.85088 0.0
C333 C 0.24389 0.47875 0.78402 0.0
C334 C 0.27432 0.53646 0.74928 0.0
H335 H 0.27387 0.5226 0.56678 0.0
H336 H 0.27378 0.51139 0.63016 0.0
H337 H 0.2976 0.5611 0.71549 0.0
H338 H 0.2595 0.51304 0.87783 0.0
H339 H 0.25771 0.53563 0.82063 0.0
H340 H 0.20209 0.4959 0.7153 0.0
C341 C 0.26752 0.52997 0.62129 0.0
C342 C 0.27641 0.54709 0.71546 0.0
C343 C 0.26754 0.53645 0.585 0.0
C344 C 0.2551 0.50322 0.85183 0.0
C345 C 0.25428 0.51615 0.81909 0.0
C346 C 0.2232 0.51004 0.71594 0.0
C347 C 0.25801 0.54696 0.64549 0.0
C348 C 0.25278 0.53861 0.68173 0.0
C349 C 0.24865 0.50404 0.78478 0.0
C350 C 0.2483 0.51737 0.74976 0.0
H351 H 0.24252 0.59585 0.58759 0.0
H352 H 0.24324 0.58436 0.65193 0.0
H353 H 0.20686 0.51381 0.65655 0.0
H354 H 0.24084 0.44643 0.81477 0.0
H355 H 0.24039 0.46871 0.75831 0.0
C356 C 0.2546 0.50785 0.35192 0.0
C357 C 0.24784 0.53294 0.35027 0.0
C358 C 0.25379 0.49475 0.31943 0.0
C359 C 0.22001 0.49922 0.21625 0.0
H360 H 0.2994 0.45169 0.21603 0.0
C361 C 0.2667 0.47524 0.08571 0.0
C362 C 0.25781 0.45151 0.07261 0.0
C363 C 0.26624 0.48148 0.12195 0.0
C364 C 0.27682 0.46468 0.21597 0.0
H365 H 0.23481 0.56391 0.31313 0.0
H366 H 0.23428 0.54135 0.25701 0.0
H367 H 0.29514 0.47013 0.27505 0.0
H368 H 0.24439 0.41527 0.0884 0.0
H369 H 0.24437 0.42635 0.15263 0.0
H370 H 0.20313 0.49471 0.15701 0.0
C371 C 0.23936 0.53158 0.28315 0.0
C372 C 0.27424 0.47519 0.24963 0.0
C373 C 0.23996 0.5446 0.31546 0.0
C374 C 0.25118 0.43373 0.09758 0.0
C375 C 0.25115 0.44 0.13423 0.0
C376 C 0.22292 0.48897 0.18277 0.0
C377 C 0.24625 0.5065 0.28466 0.0
C378 C 0.24639 0.49306 0.24997 0.0
C379 C 0.25747 0.4641 0.14612 0.0
C380 C 0.25181 0.47205 0.18228 0.0
H381 H 0.26063 0.4983 0.3783 0.0
H382 H 0.25886 0.47543 0.32153 0.0
H383 H 0.19759 0.51242 0.21558 0.0
H384 H 0.27242 0.48936 0.06749 0.0
H385 H 0.27157 0.50013 0.1308 0.0
C386 C 0.76513 0.50841 0.15107 0.0
C387 C 0.77058 0.53366 0.152 0.0
C388 C 0.76592 0.49553 0.18384 0.0
C389 C 0.79767 0.50149 0.28702 0.0
H390 H 0.72187 0.45136 0.28771 0.0
C391 C 0.75211 0.47619 0.41784 0.0
C392 C 0.76191 0.45264 0.43134 0.0
C393 C 0.75242 0.48245 0.38154 0.0
C394 C 0.74346 0.4651 0.28767 0.0
H395 H 0.78099 0.56512 0.18818 0.0
H396 H 0.78142 0.54293 0.24472 0.0
H397 H 0.72559 0.46975 0.22837 0.0
H398 H 0.77681 0.41668 0.41615 0.0
H399 H 0.77659 0.42778 0.35176 0.0
H400 H 0.81407 0.49771 0.34641 0.0
C401 C 0.77748 0.53288 0.21896 0.0
C402 C 0.74573 0.4756 0.25382 0.0
C403 C 0.77695 0.54568 0.18639 0.0
C404 C 0.76931 0.435 0.40666 0.0
C405 C 0.7692 0.44129 0.36992 0.0
C406 C 0.79504 0.49126 0.32068 0.0
C407 C 0.77208 0.50764 0.2182 0.0
C408 C 0.77226 0.49437 0.25325 0.0
C409 C 0.76197 0.46527 0.35764 0.0
C410 C 0.76743 0.47338 0.32136 0.0
H411 H 0.76025 0.49858 0.12503 0.0
H412 H 0.76199 0.47609 0.18229 0.0
H413 H 0.81914 0.5154 0.2876 0.0
H414 H 0.74573 0.49018 0.43582 0.0
H415 H 0.74634 0.501 0.37241 0.0
C416 C 0.375 0.00717 0.03267 0.0
C417 C 0.37588 0.02695 0.05647 0.0
C418 C 0.40879 0.99969 0.02373 0.0
C419 C 0.49789 0.02815 0.01409 0.0
H420 H 0.52574 0.96329 0.9915 0.0
C421 C 0.64022 1.00315 0.97675 0.0
C422 C 0.63916 0.9835 0.95267 0.0
C423 C 0.60669 0.0103 0.98649 0.0
C424 C 0.51794 0.98156 0.99711 0.0
H425 H 0.41234 0.05315 0.0921 0.0
H426 H 0.47164 0.03945 0.07791 0.0
H427 H 0.47237 0.96906 0.0203 0.0
H428 H 0.60265 0.95709 0.91757 0.0
H429 H 0.54374 0.9702 0.93318 0.0
H430 H 0.54338 0.04067 0.99082 0.0
C431 C 0.445 0.03003 0.06544 0.0
C432 C 0.48756 0.98481 0.01388 0.0
C433 C 0.41127 0.03758 0.0741 0.0
C434 C 0.60382 0.97256 0.93577 0.0
C435 C 0.57033 0.97977 0.94525 0.0
C436 C 0.52825 0.0249 0.99731 0.0
C437 C 0.44372 0.01197 0.03852 0.0
C438 C 0.47725 0.00814 0.02262 0.0
C439 C 0.57184 0.99781 0.97226 0.0
C440 C 0.53854 1.00158 0.98853 0.0
H441 H 0.34777 0.99919 0.01806 0.0
H442 H 0.40685 0.98575 0.00283 0.0
H443 H 0.49006 0.04643 0.01966 0.0
H444 H 0.66747 0.01134 0.99081 0.0
H445 H 0.60881 0.02421 0.00747 0.0
C446 C 0.37911 0.99491 0.53491 0.0
C447 C 0.37953 0.97136 0.54942 0.0
C448 C 0.41151 1.00415 0.52537 0.0
C449 C 0.51534 0.99517 0.53546 0.0
H450 H 0.49298 0.02262 0.43582 0.0
C451 C 0.63623 0.01629 0.46537 0.0
C452 C 0.63556 0.03993 0.45116 0.0
C453 C 0.60374 0.00668 0.47433 0.0
C454 C 0.4996 0.01511 0.46373 0.0
H455 H 0.41533 0.93993 0.56854 0.0
H456 H 0.4718 0.95609 0.55172 0.0
H457 H 0.44013 0.01034 0.46233 0.0
H458 H 0.59928 0.07112 0.43179 0.0
H459 H 0.54271 0.05436 0.44765 0.0
H460 H 0.57479 0.99997 0.53691 0.0
C461 C 0.44638 0.96732 0.54755 0.0
C462 C 0.46943 0.00824 0.479 0.0
C463 C 0.41396 0.95805 0.55706 0.0
C464 C 0.60084 0.05295 0.44308 0.0
C465 C 0.56836 0.04332 0.45203 0.0
C466 C 0.54551 1.00204 0.5202 0.0
C467 C 0.44493 0.99008 0.53035 0.0
C468 C 0.47703 0.99825 0.51503 0.0
C469 C 0.57002 0.02049 0.46907 0.0
C470 C 0.53791 0.01207 0.48419 0.0
H471 H 0.35316 1.00574 0.52906 0.0
H472 H 0.41 0.02199 0.5129 0.0
H473 H 0.52196 0.98769 0.56339 0.0
H474 H 0.6624 1.00567 0.4715 0.0
H475 H 0.60545 0.9888 0.48666 0.0
C476 C 0.87903 0.50955 0.03115 0.0
C477 C 0.87849 0.53147 0.04991 0.0
C478 C 0.91312 0.50177 0.02317 0.0
C479 C 0.99863 0.53003 0.00468 0.0
H480 H 0.03271 0.46408 0.99849 0.0
C481 C 0.14228 0.50261 0.97203 0.0
C482 C 0.14223 0.48083 0.95275 0.0
C483 C 0.10849 0.51052 0.9805 0.0
C484 C 0.02313 0.48258 0.99953 0.0
H485 H 0.91275 0.56136 0.07814 0.0
H486 H 0.97265 0.54731 0.06567 0.0
H487 H 0.97939 0.47207 0.02652 0.0
H488 H 0.10721 0.45133 0.92418 0.0
H489 H 0.04786 0.46561 0.93756 0.0
H490 H 0.04239 0.54053 0.97769 0.0
C491 C 0.94688 0.53643 0.0562 0.0
C492 C 0.99281 0.48712 0.01582 0.0
C493 C 0.91285 0.54428 0.06382 0.0
C494 C 0.10757 0.46832 0.93885 0.0
C495 C 0.07386 0.47629 0.947 0.0
C496 C 0.02898 0.52548 0.98841 0.0
C497 C 0.94684 0.51587 0.03401 0.0
C498 C 0.98027 0.51089 0.01859 0.0
C499 C 0.07451 0.49668 0.96968 0.0
C500 C 0.04141 0.5017 0.98553 0.0
H501 H 0.85253 0.49974 0.0196 0.0
H502 H 0.91224 0.48586 0.00596 0.0
H503 H 0.98902 0.54852 0.00564 0.0
H504 H 0.16901 0.51217 0.98361 0.0
H505 H 0.10981 0.5263 0.99807 0.0
C506 C 0.1399 0.50975 0.4707 0.0
C507 C 0.14049 0.53163 0.45173 0.0
C508 C 0.10585 0.502 0.47893 0.0
C509 C 0.02139 0.53054 0.49816 0.0
H510 H 0.98623 0.46477 0.50502 0.0
C511 C 0.87797 0.50377 0.53207 0.0
C512 C 0.87774 0.48195 0.5513 0.0
C513 C 0.91181 0.51159 0.52349 0.0
C514 C 0.99614 0.48321 0.5038 0.0
H515 H 0.10635 0.56144 0.42328 0.0
H516 H 0.0465 0.54745 0.43624 0.0
H517 H 0.03915 0.47247 0.47621 0.0
H518 H 0.91234 0.45234 0.57985 0.0
H519 H 0.97182 0.46646 0.56627 0.0
H520 H 0.97837 0.54128 0.52576 0.0
C521 C 0.07221 0.53658 0.44566 0.0
C522 C 0.02621 0.48759 0.48706 0.0
C523 C 0.1062 0.5444 0.43778 0.0
C524 C 0.91221 0.46934 0.56516 0.0
C525 C 0.94598 0.47722 0.55692 0.0
C526 C 0.99131 0.52617 0.5149 0.0
C527 C 0.07226 0.5161 0.46814 0.0
C528 C 0.03908 0.5113 0.48402 0.0
C529 C 0.94555 0.49762 0.53419 0.0
C530 C 0.9785 0.50245 0.518 0.0
H531 H 0.16636 0.49997 0.48226 0.0
H532 H 0.10672 0.48615 0.49636 0.0
H533 H 0.03132 0.54899 0.49699 0.0
H534 H 0.85137 0.51342 0.52057 0.0
H535 H 0.91067 0.52738 0.50588 0.0
C536 C 0.13482 0.04801 0.99379 0.0
C537 C 0.1512 0.05725 0.02967 0.0
C538 C 0.09863 0.03683 0.98529 0.0
C539 C 0.01002 0.0269 0.01894 0.0
H540 H 1.00062 0.96905 0.95805 0.0
C541 C 0.8802 0.9629 0.00335 0.0
C542 C 0.86213 0.95444 0.96737 0.0
C543 C 0.91621 0.97422 0.01071 0.0
C544 C 1.00255 0.98527 0.97478 0.0
H545 H 0.14141 0.06281 0.08435 0.0
H546 H 0.07814 0.04316 0.06969 0.0
H547 H 0.06002 0.99265 0.97094 0.0
H548 H 0.86893 0.95022 0.91131 0.0
H549 H 0.93227 0.96995 0.9242 0.0
H550 H 0.95265 0.01939 0.02301 0.0
C551 C 0.09317 0.04478 0.04787 0.0
C552 C 0.03668 0.99893 0.98214 0.0
C553 C 0.12945 0.05618 0.05632 0.0
C554 C 0.88219 0.95627 0.93941 0.0
C555 C 0.91843 0.96773 0.9468 0.0
C556 C 0.97597 0.01321 0.01168 0.0
C557 C 0.07773 0.03431 0.01251 0.0
C558 C 0.04097 0.01997 0.00435 0.0
C559 C 0.93533 0.97755 0.98231 0.0
C560 C 0.97176 0.99213 0.98961 0.0
H561 H 0.15069 0.04863 0.9725 0.0
H562 H 0.0874 0.02968 0.95748 0.0
H563 H 0.01183 0.04313 0.03564 0.0
H564 H 0.86571 0.96164 0.02566 0.0
H565 H 0.92868 0.9809 0.03862 0.0
C566 C 0.87703 0.04359 0.5041 0.0
C567 C 0.86709 0.06034 0.47469 0.0
C568 C 0.91292 0.03231 0.51273 0.0
C569 C 0.98802 0.01387 0.46716 0.0
H570 H 0.04328 0.9955 0.56739 0.0
C571 C 0.13878 0.9704 0.50214 0.0
C572 C 0.14859 0.95346 0.53129 0.0
C573 C 0.10298 0.98178 0.49367 0.0
C574 C 0.02784 1.00012 0.53918 0.0
H575 H 0.88751 0.07935 0.43229 0.0
H576 H 0.95101 0.05976 0.44765 0.0
H577 H 0.98727 0.02187 0.55815 0.0
H578 H 0.12806 0.93425 0.57344 0.0
H579 H 0.06471 0.95407 0.55841 0.0
H580 H 0.0286 0.99212 0.4482 0.0
C581 C 0.93073 0.05524 0.46388 0.0
C582 C 0.99587 0.01542 0.53388 0.0
C583 C 0.89469 0.06675 0.45543 0.0
C584 C 0.12098 0.94702 0.55051 0.0
C585 C 0.08502 0.95864 0.54224 0.0
C586 C 0.01999 0.99858 0.47247 0.0
C587 C 0.93978 0.03733 0.49193 0.0
C588 C 0.9755 0.02249 0.4978 0.0
C589 C 0.07607 0.97667 0.51439 0.0
C590 C 0.04036 0.99151 0.50855 0.0
H591 H 0.85611 0.03821 0.51921 0.0
H592 H 0.91859 0.01855 0.53425 0.0
H593 H 0.97257 0.01847 0.43895 0.0
H594 H 0.15971 0.97581 0.48704 0.0
H595 H 0.09737 0.99565 0.47231 0.0
C596 C 0.38705 0.45495 0.94411 0.0
C597 C 0.36663 0.45365 0.97182 0.0
C598 C 0.42333 0.46627 0.95152 0.0
C599 C 0.50402 0.48946 0.02858 0.0
H600 H 0.52018 0.53404 0.95305 0.0
C601 C 0.63319 0.55617 0.05884 0.0
C602 C 0.65362 0.55747 0.03113 0.0
C603 C 0.59695 0.54481 0.05143 0.0
C604 C 0.51632 0.52156 0.97439 0.0
H605 H 0.3694 0.46183 0.02965 0.0
H606 H 0.43215 0.48125 0.04253 0.0
H607 H 0.4623 0.50899 0.94041 0.0
H608 H 0.65092 0.54923 0.97333 0.0
H609 H 0.58822 0.52975 0.96047 0.0
H610 H 0.55804 0.50204 0.06256 0.0
C611 C 0.42049 0.47364 0.01508 0.0
C612 C 0.48316 0.50705 0.96703 0.0
C613 C 0.38433 0.46252 0.00763 0.0
C614 C 0.63598 0.54854 0.99534 0.0
C615 C 0.59985 0.53738 0.9879 0.0
C616 C 0.53718 0.50397 0.03594 0.0
C617 C 0.44006 0.47632 0.98688 0.0
C618 C 0.4765 0.4908 0.99402 0.0
C619 C 0.58026 0.53471 0.01609 0.0
C620 C 0.54383 0.52023 0.00895 0.0
H621 H 0.37413 0.44848 0.91617 0.0
H622 H 0.43785 0.46766 0.92929 0.0
H623 H 0.50016 0.47698 0.04992 0.0
H624 H 0.64607 0.56268 0.08676 0.0
H625 H 0.58241 0.54342 0.07365 0.0
C626 C 0.63535 0.46446 0.49566 0.0
C627 C 0.65285 0.45568 0.53158 0.0
C628 C 0.59911 0.47535 0.48796 0.0
C629 C 0.53626 0.50848 0.53537 0.0
H630 H 0.4612 0.50255 0.44008 0.0
C631 C 0.38309 0.54866 0.5066 0.0
C632 C 0.36544 0.55743 0.4707 0.0
C633 C 0.41933 0.5378 0.51419 0.0
C634 C 0.48212 0.50473 0.46661 0.0
H635 H 0.645 0.45036 0.58713 0.0
H636 H 0.58119 0.46918 0.57355 0.0
H637 H 0.51929 0.47786 0.45306 0.0
H638 H 0.37304 0.56272 0.41506 0.0
H639 H 0.43689 0.54394 0.42845 0.0
H640 H 0.49911 0.53535 0.54892 0.0
C641 C 0.5959 0.46789 0.55145 0.0
C642 C 0.51537 0.49043 0.47416 0.0
C643 C 0.63223 0.45681 0.55913 0.0
C644 C 0.38593 0.55629 0.44305 0.0
C645 C 0.42227 0.54523 0.45061 0.0
C646 C 0.50302 0.52278 0.52781 0.0
C647 C 0.57935 0.47786 0.516 0.0
C648 C 0.5429 0.49211 0.50865 0.0
C649 C 0.43897 0.53529 0.48606 0.0
C650 C 0.47547 0.52109 0.49334 0.0
H651 H 0.65044 0.46386 0.47377 0.0
H652 H 0.58752 0.4829 0.46044 0.0
H653 H 0.55717 0.51065 0.56191 0.0
H654 H 0.3681 0.54927 0.52857 0.0
H655 H 0.43102 0.53026 0.5417 0.0
C656 C 0.37877 0.12904 0.15699 0.0
C657 C 0.36705 0.10586 0.14324 0.0
C658 C 0.41369 0.13215 0.18425 0.0
C659 C 0.50677 0.09984 0.22153 0.0
H660 H 0.52399 0.14813 0.29961 0.0
C661 C 0.65707 0.11121 0.3226 0.0
C662 C 0.65817 0.11505 0.36034 0.0
C663 C 0.62235 0.11333 0.29503 0.0
C664 C 0.51969 0.13442 0.27812 0.0
H665 H 0.38097 0.06774 0.14827 0.0
H666 H 0.44033 0.07285 0.19665 0.0
H667 H 0.46067 0.14464 0.25608 0.0
H668 H 0.62349 0.12476 0.39838 0.0
H669 H 0.56335 0.12781 0.35085 0.0
H670 H 0.56492 0.08879 0.2443 0.0
C671 C 0.42385 0.08883 0.18582 0.0
C672 C 0.48337 0.13262 0.25283 0.0
C673 C 0.38951 0.08582 0.15844 0.0
C674 C 0.62395 0.12185 0.3696 0.0
C675 C 0.58926 0.12372 0.34216 0.0
C676 C 0.54285 0.1015 0.24691 0.0
C677 C 0.43723 0.11207 0.19826 0.0
C678 C 0.47623 0.11504 0.22448 0.0
C679 C 0.58772 0.11906 0.3045 0.0
C680 C 0.54985 0.11864 0.27585 0.0
H681 H 0.36213 0.14479 0.14525 0.0
H682 H 0.42302 0.15033 0.19303 0.0
H683 H 0.50287 0.08645 0.1996 0.0
H684 H 0.68283 0.10598 0.31441 0.0
H685 H 0.62263 0.11009 0.2663 0.0
C686 C 0.60466 0.90313 0.87436 0.0
C687 C 0.64146 0.90152 0.86754 0.0
C688 C 0.57143 0.89916 0.84599 0.0
C689 C 0.53491 0.90026 0.74352 0.0
H690 H 0.44419 0.87217 0.76621 0.0
C691 C 0.39085 0.8889 0.63136 0.0
C692 C 0.35754 0.89681 0.64139 0.0
C693 C 0.42585 0.88638 0.65821 0.0
C694 C 0.4692 0.88015 0.75946 0.0
H695 H 0.67186 0.89384 0.82525 0.0
H696 H 0.61337 0.88645 0.77537 0.0
H697 H 0.50528 0.87226 0.81353 0.0
H698 H 0.33503 0.90764 0.68798 0.0
H699 H 0.39607 0.9029 0.73494 0.0
H700 H 0.49858 0.90819 0.6894 0.0
C701 C 0.61049 0.89111 0.8029 0.0
C702 C 0.5043 0.88024 0.7866 0.0
C703 C 0.64405 0.89512 0.83154 0.0
C704 C 0.35994 0.90135 0.67924 0.0
C705 C 0.39497 0.89861 0.70619 0.0
C706 C 0.49981 0.9 0.71625 0.0
C707 C 0.57369 0.89331 0.80974 0.0
C708 C 0.53751 0.89073 0.77931 0.0
C709 C 0.42851 0.8915 0.69589 0.0
C710 C 0.46637 0.89031 0.7241 0.0
H711 H 0.60129 0.90805 0.90164 0.0
H712 H 0.54382 0.90149 0.85236 0.0
H713 H 0.55961 0.90879 0.73695 0.0
H714 H 0.39026 0.88533 0.60249 0.0
H715 H 0.45099 0.8806 0.64938 0.0
C716 C 0.87013 0.61426 0.16923 0.0
C717 C 0.87214 0.61253 0.13192 0.0
C718 C 0.90384 0.61738 0.19797 0.0
C719 C 0.00936 0.60699 0.21684 0.0
H720 H 0.01421 0.64417 0.30643 0.0
C721 C 0.15139 0.61609 0.33239 0.0
C722 C 0.14805 0.61246 0.369 0.0
C723 C 0.11839 0.61939 0.30298 0.0
C724 C 0.0133 0.63362 0.28162 0.0
H725 H 0.91089 0.61422 0.09547 0.0
H726 H 0.96886 0.62027 0.14499 0.0
H727 H 0.9548 0.64373 0.25659 0.0
H728 H 0.10731 0.61053 0.40347 0.0
H729 H 0.05038 0.61622 0.35261 0.0
H730 H 0.06757 0.59662 0.24193 0.0
C731 C 0.94166 0.61849 0.15243 0.0
C732 C 0.97915 0.63332 0.25307 0.0
C733 C 0.90824 0.61521 0.12392 0.0
C734 C 0.11111 0.61324 0.37565 0.0
C735 C 0.07831 0.61666 0.34643 0.0
C736 C 0.04345 0.60734 0.24528 0.0
C737 C 0.94018 0.61896 0.18995 0.0
C738 C 0.97665 0.61991 0.22031 0.0
C739 C 0.08136 0.61932 0.30958 0.0
C740 C 0.04585 0.62051 0.27819 0.0
H741 H 0.84284 0.61206 0.17636 0.0
H742 H 0.90154 0.61753 0.22655 0.0
H743 H 0.00842 0.59602 0.19244 0.0
H744 H 0.17933 0.61548 0.32623 0.0
H745 H 0.12184 0.62164 0.27496 0.0
C746 C 0.90735 0.40025 0.6281 0.0
C747 C 0.87049 0.40113 0.63493 0.0
C748 C 0.94022 0.39664 0.65716 0.0
C749 C 0.97579 0.40538 0.75841 0.0
H750 H 0.06389 0.36891 0.74584 0.0
C751 C 0.11163 0.39652 0.87883 0.0
C752 C 0.14761 0.39932 0.8706 0.0
C753 C 0.07804 0.39343 0.85046 0.0
C754 C 0.03969 0.37934 0.74971 0.0
H755 H 0.83944 0.39809 0.67787 0.0
H756 H 0.89708 0.3916 0.72889 0.0
H757 H 1.00417 0.36884 0.69638 0.0
H758 H 0.17652 0.40015 0.8259 0.0
H759 H 0.1175 0.39498 0.77593 0.0
H760 H 0.01129 0.41632 0.81126 0.0
C761 C 0.9004 0.39393 0.70084 0.0
C762 C 1.00536 0.37925 0.72138 0.0
C763 C 0.8673 0.39743 0.67158 0.0
C764 C 0.14933 0.39785 0.83319 0.0
C765 C 0.11545 0.39491 0.80458 0.0
C766 C 0.01005 0.4055 0.78665 0.0
C767 C 0.93735 0.39388 0.69405 0.0
C768 C 0.97301 0.3924 0.72525 0.0
C769 C 0.07923 0.39326 0.81285 0.0
C770 C 0.04257 0.39255 0.78271 0.0
H771 H 0.91105 0.403 0.60026 0.0
H772 H 0.96807 0.397 0.65082 0.0
H773 H 0.95183 0.41612 0.76212 0.0
H774 H 0.1092 0.39731 0.90737 0.0
H775 H 0.05095 0.39158 0.85808 0.0
C776 C 0.23425 0.16851 0.04153 0.0
C777 C 0.25489 0.15288 0.02388 0.0
C778 C 0.23413 0.19351 0.0348 0.0
C779 C 0.2556 0.24023 0.97053 0.0
H780 H 0.27895 0.2808 0.05863 0.0
C781 C 0.28873 0.34229 0.96141 0.0
C782 C 0.26937 0.35749 0.98096 0.0
C783 C 0.29005 0.31723 0.96791 0.0
C784 C 0.27215 0.26979 0.03368 0.0
H785 H 0.28935 0.15088 0.9836 0.0
H786 H 0.28872 0.19418 0.97157 0.0
H787 H 0.26951 0.23745 0.06489 0.0
H788 H 0.23864 0.35863 0.0244 0.0
H789 H 0.24084 0.31537 0.03557 0.0
H790 H 0.25787 0.27258 0.93925 0.0
C791 C 0.27279 0.18733 0.99069 0.0
C792 C 0.26652 0.24493 0.03728 0.0
C793 C 0.27324 0.16251 0.99769 0.0
C794 C 0.25366 0.34738 0.00873 0.0
C795 C 0.25509 0.32251 0.0153 0.0
C796 C 0.26105 0.26512 0.9669 0.0
C797 C 0.25422 0.20323 0.00995 0.0
C798 C 0.25812 0.22985 0.00575 0.0
C799 C 0.2723 0.30699 0.99428 0.0
C800 C 0.26929 0.28025 0.99842 0.0
H801 H 0.22006 0.16162 0.06202 0.0
H802 H 0.21912 0.2053 0.0497 0.0
H803 H 0.24894 0.22913 0.94566 0.0
H804 H 0.30095 0.34954 0.93973 0.0
H805 H 0.30411 0.3058 0.95165 0.0
C806 C 0.7576 0.16433 0.51261 0.0
C807 C 0.76871 0.15605 0.48097 0.0
C808 C 0.75535 0.1891 0.51932 0.0
C809 C 0.74228 0.24716 0.46823 0.0
H810 H 0.76813 0.27554 0.56705 0.0
C811 C 0.75914 0.34952 0.49506 0.0
C812 C 0.74717 0.35953 0.52509 0.0
C813 C 0.75677 0.32465 0.48855 0.0
C814 C 0.76015 0.26779 0.53933 0.0
H815 H 0.78887 0.16745 0.43309 0.0
H816 H 0.78583 0.21062 0.44532 0.0
H817 H 0.77862 0.23239 0.55973 0.0
H818 H 0.72161 0.35153 0.57085 0.0
H819 H 0.71745 0.30774 0.55948 0.0
H820 H 0.72447 0.28264 0.44781 0.0
C821 C 0.77778 0.19793 0.46436 0.0
C822 C 0.76634 0.24308 0.5351 0.0
C823 C 0.77995 0.17315 0.45758 0.0
C824 C 0.73075 0.34431 0.54733 0.0
C825 C 0.72881 0.31926 0.54108 0.0
C826 C 0.73624 0.27184 0.47245 0.0
C827 C 0.76431 0.20622 0.49466 0.0
C828 C 0.75784 0.2325 0.49945 0.0
C829 C 0.7427 0.30914 0.51216 0.0
C830 C 0.74544 0.2825 0.50801 0.0
H831 H 0.74881 0.15171 0.53132 0.0
H832 H 0.74479 0.19479 0.54287 0.0
H833 H 0.73448 0.23952 0.44044 0.0
H834 H 0.77193 0.36085 0.47747 0.0
H835 H 0.76795 0.31747 0.46622 0.0
C836 C 0.74873 0.84914 0.0064 0.0
C837 C 0.76306 0.85872 0.97738 0.0
C838 C 0.74936 0.82428 0.0131 0.0
C839 C 0.78998 0.76583 0.99262 0.0
H840 H 0.69559 0.73982 0.0105 0.0
C841 C 0.76347 0.66354 0.99189 0.0
C842 C 0.74978 0.65394 0.0213 0.0
C843 C 0.76258 0.68838 0.98511 0.0
C844 C 0.72225 0.74679 0.00589 0.0
H845 H 0.79123 0.84987 0.93388 0.0
H846 H 0.79226 0.80614 0.94546 0.0
H847 H 0.70235 0.78336 0.00323 0.0
H848 H 0.72233 0.66274 0.06535 0.0
H849 H 0.72073 0.70646 0.05354 0.0
H850 H 0.80985 0.72925 0.99523 0.0
C851 C 0.78071 0.81797 0.96322 0.0
C852 C 0.72622 0.77177 0.00179 0.0
C853 C 0.78029 0.84301 0.95663 0.0
C854 C 0.73277 0.6696 0.04229 0.0
C855 C 0.73205 0.69464 0.03559 0.0
C856 C 0.78599 0.74084 0.99669 0.0
C857 C 0.76407 0.80827 0.99077 0.0
C858 C 0.76018 0.78163 0.9952 0.0
C859 C 0.74818 0.70436 0.00771 0.0
C860 C 0.75204 0.731 0.00329 0.0
H861 H 0.7356 0.86084 0.02312 0.0
H862 H 0.73734 0.81755 0.03524 0.0
H863 H 0.81666 0.77278 0.98804 0.0
H864 H 0.77642 0.65186 0.97498 0.0
H865 H 0.77422 0.69514 0.96274 0.0
C866 C 0.28688 0.66912 0.45613 0.0
C867 C 0.27201 0.65356 0.4791 0.0
C868 C 0.28814 0.69416 0.46243 0.0
C869 C 0.28126 0.74129 0.53167 0.0
H870 H 0.23371 0.77991 0.44488 0.0
C871 C 0.23496 0.83936 0.54752 0.0
C872 C 0.24435 0.85653 0.52316 0.0
C873 C 0.23757 0.81459 0.54085 0.0
C874 C 0.24743 0.76947 0.46935 0.0
H875 H 0.24947 0.65161 0.52806 0.0
H876 H 0.25236 0.695 0.53945 0.0
H877 H 0.24591 0.73701 0.43747 0.0
H878 H 0.26123 0.86099 0.47122 0.0
H879 H 0.26606 0.81797 0.45986 0.0
H880 H 0.28281 0.77362 0.56361 0.0
C881 C 0.26282 0.68809 0.51649 0.0
C882 C 0.25459 0.7449 0.46507 0.0
C883 C 0.2611 0.66322 0.50993 0.0
C884 C 0.2539 0.84831 0.4907 0.0
C885 C 0.25661 0.82357 0.4841 0.0
C886 C 0.27426 0.76585 0.53594 0.0
C887 C 0.27512 0.70393 0.49212 0.0
C888 C 0.27123 0.73048 0.49623 0.0
C889 C 0.24964 0.8064 0.50968 0.0
C890 C 0.25687 0.78021 0.5049 0.0
H891 H 0.29513 0.66215 0.43196 0.0
H892 H 0.29815 0.70594 0.44342 0.0
H893 H 0.29446 0.73071 0.55617 0.0
H894 H 0.22728 0.84501 0.57267 0.0
H895 H 0.23104 0.80184 0.56064 0.0
loop_
_geom_bond_atom_site_label_1
_geom_bond_atom_site_label_2
_geom_bond_distance
_geom_bond_site_symmetry_2
_ccdc_geom_bond_type
Fe0 O2 1.918 . S
Fe0 O5 1.997 . S
Fe0 O6 2.002 . S
Fe0 O11 1.976 . S
Fe0 O14 1.996 . S
Fe1 O2 1.918 . S
Fe1 O9 1.997 . S
Fe1 O12 1.996 . S
Fe1 O16 1.976 1_554 S
Fe1 O19 2.002 . S
O2 Fe0 1.918 . S
O2 Fe1 1.918 . S
O2 Fe3 1.918 . S
Fe3 O2 1.918 . S
Fe3 O4 2.002 . S
Fe3 O13 1.976 . S
Fe3 O17 1.996 1_554 S
Fe3 O20 1.997 . S
O4 Fe3 2.002 . S
O4 C21 1.295 . S
O5 Fe0 1.997 . S
O5 C21 1.235 . S
O6 Fe0 2.002 . S
O6 C7 1.295 . S
C7 O6 1.295 . S
C7 O9 1.235 . S
C8 O13 1.287 . S
C8 O14 1.255 . S
O9 Fe1 1.997 . S
O9 C7 1.235 . S
C10 O16 1.287 . S
C10 O17 1.255 . S
O11 Fe0 1.976 . S
O11 C18 1.287 . S
O12 Fe1 1.996 . S
O12 C18 1.255 . S
O13 Fe3 1.976 . S
O13 C8 1.287 . S
O14 Fe0 1.996 . S
O14 C8 1.255 . S
C15 O19 1.295 . S
C15 O20 1.235 . S
O16 Fe1 1.976 1_556 S
O16 C10 1.287 . S
O17 Fe3 1.996 1_556 S
O17 C10 1.255 . S
C18 O11 1.287 . S
C18 O12 1.255 . S
O19 Fe1 2.002 . S
O19 C15 1.295 . S
O20 Fe3 1.997 . S
O20 C15 1.235 . S
C21 O4 1.295 . S
C21 O5 1.235 . S
Fe22 O24 1.918 . S
Fe22 O27 1.997 . S
Fe22 O28 2.002 . S
Fe22 O33 1.976 . S
Fe22 O36 1.996 . S
Fe23 O24 1.918 . S
Fe23 O31 1.997 . S
Fe23 O34 1.996 . S
Fe23 O38 1.976 . S
Fe23 O41 2.002 . S
O24 Fe22 1.918 . S
O24 Fe23 1.918 . S
O24 Fe25 1.918 . S
Fe25 O24 1.918 . S
Fe25 O26 2.002 . S
Fe25 O35 1.976 . S
Fe25 O39 1.996 . S
Fe25 O42 1.997 . S
O26 Fe25 2.002 . S
O26 C43 1.295 . S
O27 Fe22 1.997 . S
O27 C43 1.235 . S
O28 Fe22 2.002 . S
O28 C29 1.295 . S
C29 O28 1.295 . S
C29 O31 1.235 . S
C30 O35 1.287 . S
C30 O36 1.255 . S
O31 Fe23 1.997 . S
O31 C29 1.235 . S
C32 O38 1.287 . S
C32 O39 1.255 . S
O33 Fe22 1.976 . S
O33 C40 1.287 . S
O34 Fe23 1.996 . S
O34 C40 1.255 . S
O35 Fe25 1.976 . S
O35 C30 1.287 . S
O36 Fe22 1.996 . S
O36 C30 1.255 . S
C37 O41 1.295 . S
C37 O42 1.235 . S
O38 Fe23 1.976 . S
O38 C32 1.287 . S
O39 Fe25 1.996 . S
O39 C32 1.255 . S
C40 O33 1.287 . S
C40 O34 1.255 . S
O41 Fe23 2.002 . S
O41 C37 1.295 . S
O42 Fe25 1.997 . S
O42 C37 1.235 . S
C43 O26 1.295 . S
C43 O27 1.235 . S
Fe44 O46 1.918 . S
Fe44 O49 1.997 . S
Fe44 O50 2.002 . S
Fe44 O55 1.976 . S
Fe44 O58 1.996 1_556 S
Fe45 O46 1.918 . S
Fe45 O53 1.997 . S
Fe45 O56 1.996 . S
Fe45 O60 1.976 . S
Fe45 O63 2.002 . S
O46 Fe44 1.918 . S
O46 Fe45 1.918 . S
O46 Fe47 1.918 . S
Fe47 O46 1.918 . S
Fe47 O48 2.002 . S
Fe47 O57 1.976 1_556 S
Fe47 O61 1.996 . S
Fe47 O64 1.997 . S
O48 Fe47 2.002 . S
O48 C65 1.295 . S
O49 Fe44 1.997 . S
O49 C65 1.235 . S
O50 Fe44 2.002 . S
O50 C51 1.295 . S
C51 O50 1.295 . S
C51 O53 1.235 . S
C52 O57 1.287 . S
C52 O58 1.255 . S
O53 Fe45 1.997 . S
O53 C51 1.235 . S
C54 O60 1.287 . S
C54 O61 1.255 . S
O55 Fe44 1.976 . S
O55 C62 1.287 . S
O56 Fe45 1.996 . S
O56 C62 1.255 . S
O57 Fe47 1.976 1_554 S
O57 C52 1.287 . S
O58 Fe44 1.996 1_554 S
O58 C52 1.255 . S
C59 O63 1.295 . S
C59 O64 1.235 . S
O60 Fe45 1.976 . S
O60 C54 1.287 . S
O61 Fe47 1.996 . S
O61 C54 1.255 . S
C62 O55 1.287 . S
C62 O56 1.255 . S
O63 Fe45 2.002 . S
O63 C59 1.295 . S
O64 Fe47 1.997 . S
O64 C59 1.235 . S
C65 O48 1.295 . S
C65 O49 1.235 . S
Fe66 O68 1.918 . S
Fe66 O71 1.997 . S
Fe66 O72 2.002 . S
Fe66 O77 1.976 . S
Fe66 O80 1.996 . S
Fe67 O68 1.918 . S
Fe67 O75 1.997 . S
Fe67 O78 1.996 . S
Fe67 O82 1.976 . S
Fe67 O85 2.002 . S
O68 Fe66 1.918 . S
O68 Fe67 1.918 . S
O68 Fe69 1.918 . S
Fe69 O68 1.918 . S
Fe69 O70 2.002 . S
Fe69 O79 1.976 . S
Fe69 O83 1.996 . S
Fe69 O86 1.997 . S
O70 Fe69 2.002 . S
O70 C87 1.295 . S
O71 Fe66 1.997 . S
O71 C87 1.235 . S
O72 Fe66 2.002 . S
O72 C73 1.295 . S
C73 O72 1.295 . S
C73 O75 1.235 . S
C74 O79 1.287 . S
C74 O80 1.255 . S
O75 Fe67 1.997 . S
O75 C73 1.235 . S
C76 O82 1.287 . S
C76 O83 1.255 . S
O77 Fe66 1.976 . S
O77 C84 1.287 . S
O78 Fe67 1.996 . S
O78 C84 1.255 . S
O79 Fe69 1.976 . S
O79 C74 1.287 . S
O80 Fe66 1.996 . S
O80 C74 1.255 . S
C81 O85 1.295 . S
C81 O86 1.235 . S
O82 Fe67 1.976 . S
O82 C76 1.287 . S
O83 Fe69 1.996 . S
O83 C76 1.255 . S
C84 O77 1.287 . S
C84 O78 1.255 . S
O85 Fe67 2.002 . S
O85 C81 1.295 . S
O86 Fe69 1.997 . S
O86 C81 1.235 . S
C87 O70 1.295 . S
C87 O71 1.235 . S
Fe88 O90 1.918 . S
Fe88 O93 1.997 . S
Fe88 O94 2.002 . S
Fe88 O99 1.976 . S
Fe88 O102 1.996 . S
Fe89 O90 1.918 . S
Fe89 O97 1.997 . S
Fe89 O100 1.996 . S
Fe89 O104 1.976 1_554 S
Fe89 O107 2.002 . S
O90 Fe88 1.918 . S
O90 Fe89 1.918 . S
O90 Fe91 1.918 . S
Fe91 O90 1.918 . S
Fe91 O92 2.002 . S
Fe91 O101 1.976 . S
Fe91 O105 1.996 1_554 S
Fe91 O108 1.997 . S
O92 Fe91 2.002 . S
O92 C109 1.295 . S
O93 Fe88 1.997 . S
O93 C109 1.235 . S
O94 Fe88 2.002 . S
O94 C95 1.295 . S
C95 O94 1.295 . S
C95 O97 1.235 . S
C96 O101 1.287 . S
C96 O102 1.255 . S
O97 Fe89 1.997 . S
O97 C95 1.235 . S
C98 O104 1.287 . S
C98 O105 1.255 . S
O99 Fe88 1.976 . S
O99 C106 1.287 . S
O100 Fe89 1.996 . S
O100 C106 1.255 . S
O101 Fe91 1.976 . S
O101 C96 1.287 . S
O102 Fe88 1.996 . S
O102 C96 1.255 . S
C103 O107 1.295 . S
C103 O108 1.235 . S
O104 Fe89 1.976 1_556 S
O104 C98 1.287 . S
O105 Fe91 1.996 1_556 S
O105 C98 1.255 . S
C106 O99 1.287 . S
C106 O100 1.255 . S
O107 Fe89 2.002 . S
O107 C103 1.295 . S
O108 Fe91 1.997 . S
O108 C103 1.235 . S
C109 O92 1.295 . S
C109 O93 1.235 . S
Fe110 O112 1.918 . S
Fe110 O115 1.997 . S
Fe110 O116 2.002 . S
Fe110 O121 1.976 . S
Fe110 O124 1.996 . S
Fe111 O112 1.918 . S
Fe111 O119 1.997 . S
Fe111 O122 1.996 . S
Fe111 O126 1.976 . S
Fe111 O129 2.002 . S
O112 Fe110 1.918 . S
O112 Fe111 1.918 . S
O112 Fe113 1.918 . S
Fe113 O112 1.918 . S
Fe113 O114 2.002 . S
Fe113 O123 1.976 . S
Fe113 O127 1.996 . S
Fe113 O130 1.997 . S
O114 Fe113 2.002 . S
O114 C131 1.295 . S
O115 Fe110 1.997 . S
O115 C131 1.235 . S
O116 Fe110 2.002 . S
O116 C117 1.295 . S
C117 O116 1.295 . S
C117 O119 1.235 . S
C118 O123 1.287 . S
C118 O124 1.255 . S
O119 Fe111 1.997 . S
O119 C117 1.235 . S
C120 O126 1.287 . S
C120 O127 1.255 . S
O121 Fe110 1.976 . S
O121 C128 1.287 . S
O122 Fe111 1.996 . S
O122 C128 1.255 . S
O123 Fe113 1.976 . S
O123 C118 1.287 . S
O124 Fe110 1.996 . S
O124 C118 1.255 . S
C125 O129 1.295 . S
C125 O130 1.235 . S
O126 Fe111 1.976 . S
O126 C120 1.287 . S
O127 Fe113 1.996 . S
O127 C120 1.255 . S
C128 O121 1.287 . S
C128 O122 1.255 . S
O129 Fe111 2.002 . S
O129 C125 1.295 . S
O130 Fe113 1.997 . S
O130 C125 1.235 . S
C131 O114 1.295 . S
C131 O115 1.235 . S
Fe132 O134 1.918 . S
Fe132 O137 1.997 . S
Fe132 O138 2.002 . S
Fe132 O143 1.976 . S
Fe132 O146 1.996 1_556 S
Fe133 O134 1.918 . S
Fe133 O141 1.997 . S
Fe133 O144 1.996 . S
Fe133 O148 1.976 . S
Fe133 O151 2.002 . S
O134 Fe132 1.918 . S
O134 Fe133 1.918 . S
O134 Fe135 1.918 . S
Fe135 O134 1.918 . S
Fe135 O136 2.002 . S
Fe135 O145 1.976 1_556 S
Fe135 O149 1.996 . S
Fe135 O152 1.997 . S
O136 Fe135 2.002 . S
O136 C153 1.295 . S
O137 Fe132 1.997 . S
O137 C153 1.235 . S
O138 Fe132 2.002 . S
O138 C139 1.295 . S
C139 O138 1.295 . S
C139 O141 1.235 . S
C140 O145 1.287 . S
C140 O146 1.255 . S
O141 Fe133 1.997 . S
O141 C139 1.235 . S
C142 O148 1.287 . S
C142 O149 1.255 . S
O143 Fe132 1.976 . S
O143 C150 1.287 . S
O144 Fe133 1.996 . S
O144 C150 1.255 . S
O145 Fe135 1.976 1_554 S
O145 C140 1.287 . S
O146 Fe132 1.996 1_554 S
O146 C140 1.255 . S
C147 O151 1.295 . S
C147 O152 1.235 . S
O148 Fe133 1.976 . S
O148 C142 1.287 . S
O149 Fe135 1.996 . S
O149 C142 1.255 . S
C150 O143 1.287 . S
C150 O144 1.255 . S
O151 Fe133 2.002 . S
O151 C147 1.295 . S
O152 Fe135 1.997 . S
O152 C147 1.235 . S
C153 O136 1.295 . S
C153 O137 1.235 . S
Fe154 O156 1.918 . S
Fe154 O159 1.997 . S
Fe154 O160 2.002 . S
Fe154 O165 1.976 . S
Fe154 O168 1.996 . S
Fe155 O156 1.918 . S
Fe155 O163 1.997 . S
Fe155 O166 1.996 . S
Fe155 O170 1.976 . S
Fe155 O173 2.002 . S
O156 Fe154 1.918 . S
O156 Fe155 1.918 . S
O156 Fe157 1.918 . S
Fe157 O156 1.918 . S
Fe157 O158 2.002 . S
Fe157 O167 1.976 . S
Fe157 O171 1.996 . S
Fe157 O174 1.997 . S
O158 Fe157 2.002 . S
O158 C175 1.295 . S
O159 Fe154 1.997 . S
O159 C175 1.235 . S
O160 Fe154 2.002 . S
O160 C161 1.295 . S
C161 O160 1.295 . S
C161 O163 1.235 . S
C162 O167 1.287 . S
C162 O168 1.255 . S
O163 Fe155 1.997 . S
O163 C161 1.235 . S
C164 O170 1.287 . S
C164 O171 1.255 . S
O165 Fe154 1.976 . S
O165 C172 1.287 . S
O166 Fe155 1.996 . S
O166 C172 1.255 . S
O167 Fe157 1.976 . S
O167 C162 1.287 . S
O168 Fe154 1.996 . S
O168 C162 1.255 . S
C169 O173 1.295 . S
C169 O174 1.235 . S
O170 Fe155 1.976 . S
O170 C164 1.287 . S
O171 Fe157 1.996 . S
O171 C164 1.255 . S
C172 O165 1.287 . S
C172 O166 1.255 . S
O173 Fe155 2.002 . S
O173 C169 1.295 . S
O174 Fe157 1.997 . S
O174 C169 1.235 . S
C175 O158 1.295 . S
C175 O159 1.235 . S
C176 C177 1.349 . S
C176 C178 1.327 . S
C176 H201 0.950 . S
C177 C176 1.349 . S
C177 C193 1.349 . S
C178 C176 1.327 . S
C178 C197 1.429 . S
C178 H202 0.950 . S
C179 C196 1.574 . S
C179 C198 1.368 . S
C179 H203 0.949 . S
H180 C184 0.949 . S
C181 C182 1.349 . S
C181 C183 1.327 1_565 S
C181 H204 0.950 1_565 S
C182 C181 1.349 . S
C182 C194 1.349 . S
C183 C181 1.327 1_545 S
C183 C199 1.429 1_545 S
C183 H205 0.950 . S
C184 H180 0.949 . S
C184 C192 1.574 1_565 S
C184 C200 1.368 1_565 S
H185 C193 0.950 . S
H186 C191 0.950 . S
H187 C192 0.949 1_565 S
H188 C194 0.950 . S
H189 C195 0.950 . S
H190 C196 0.949 . S
C191 H186 0.950 . S
C191 C193 1.327 . S
C191 C197 1.429 . S
C192 C184 1.574 1_545 S
C192 H187 0.949 1_545 S
C192 C198 1.368 . S
C193 C177 1.349 . S
C193 H185 0.950 . S
C193 C191 1.327 . S
C194 C182 1.349 . S
C194 H188 0.950 . S
C194 C195 1.327 . S
C195 H189 0.950 . S
C195 C194 1.327 . S
C195 C199 1.429 . S
C196 C179 1.574 . S
C196 H190 0.949 . S
C196 C200 1.368 . S
C197 C178 1.429 . S
C197 C191 1.429 . S
C197 C198 1.523 . S
C198 C179 1.368 . S
C198 C192 1.368 . S
C198 C197 1.523 . S
C199 C183 1.429 1_565 S
C199 C195 1.429 . S
C199 C200 1.523 1_565 S
C200 C184 1.368 1_545 S
C200 C196 1.368 . S
C200 C199 1.523 1_545 S
H201 C176 0.950 . S
H202 C178 0.950 . S
H203 C179 0.949 . S
H204 C181 0.950 1_545 S
H205 C183 0.950 . S
C206 C207 1.349 . S
C206 C208 1.327 1_565 S
C206 H231 0.950 1_565 S
C207 C206 1.349 . S
C207 C223 1.349 . S
C208 C206 1.327 1_545 S
C208 C227 1.429 1_545 S
C208 H232 0.950 . S
C209 C226 1.574 1_565 S
C209 C228 1.368 1_565 S
C209 H233 0.949 . S
H210 C214 0.949 . S
C211 C212 1.349 . S
C211 C213 1.327 . S
C211 H234 0.950 . S
C212 C211 1.349 . S
C212 C224 1.349 . S
C213 C211 1.327 . S
C213 C229 1.429 . S
C213 H235 0.950 . S
C214 H210 0.949 . S
C214 C222 1.574 . S
C214 C230 1.368 . S
H215 C223 0.950 . S
H216 C221 0.950 . S
H217 C222 0.949 . S
H218 C224 0.950 . S
H219 C225 0.950 . S
H220 C226 0.949 1_565 S
C221 H216 0.950 . S
C221 C223 1.327 . S
C221 C227 1.429 . S
C222 C214 1.574 . S
C222 H217 0.949 . S
C222 C228 1.368 . S
C223 C207 1.349 . S
C223 H215 0.950 . S
C223 C221 1.327 . S
C224 C212 1.349 . S
C224 H218 0.950 . S
C224 C225 1.327 . S
C225 H219 0.950 . S
C225 C224 1.327 . S
C225 C229 1.429 . S
C226 C209 1.574 1_545 S
C226 H220 0.949 1_545 S
C226 C230 1.368 . S
C227 C208 1.429 1_565 S
C227 C221 1.429 . S
C227 C228 1.523 1_565 S
C228 C209 1.368 1_545 S
C228 C222 1.368 . S
C228 C227 1.523 1_545 S
C229 C213 1.429 . S
C229 C225 1.429 . S
C229 C230 1.523 . S
C230 C214 1.368 . S
C230 C226 1.368 . S
C230 C229 1.523 . S
H231 C206 0.950 1_545 S
H232 C208 0.950 . S
H233 C209 0.949 . S
H234 C211 0.950 . S
H235 C213 0.950 . S
C236 C237 1.349 . S
C236 C238 1.327 . S
C236 H261 0.950 . S
C237 C236 1.349 . S
C237 C253 1.349 . S
C238 C236 1.327 . S
C238 C257 1.429 . S
C238 H262 0.950 . S
C239 C256 1.574 . S
C239 C258 1.368 . S
C239 H263 0.949 . S
H240 C244 0.949 1_545 S
C241 C242 1.349 . S
C241 C243 1.327 . S
C241 H264 0.950 . S
C242 C241 1.349 . S
C242 C254 1.349 . S
C243 C241 1.327 . S
C243 C259 1.429 . S
C243 H265 0.950 . S
C244 H240 0.949 1_565 S
C244 C252 1.574 1_565 S
C244 C260 1.368 . S
H245 C253 0.950 1_565 S
H246 C251 0.950 . S
H247 C252 0.949 . S
H248 C254 0.950 . S
H249 C255 0.950 . S
H250 C256 0.949 . S
C251 H246 0.950 . S
C251 C253 1.327 1_565 S
C251 C257 1.429 1_565 S
C252 C244 1.574 1_545 S
C252 H247 0.949 . S
C252 C258 1.368 1_545 S
C253 C237 1.349 . S
C253 H245 0.950 1_545 S
C253 C251 1.327 1_545 S
C254 C242 1.349 . S
C254 H248 0.950 . S
C254 C255 1.327 . S
C255 H249 0.950 . S
C255 C254 1.327 . S
C255 C259 1.429 . S
C256 C239 1.574 . S
C256 H250 0.949 . S
C256 C260 1.368 . S
C257 C238 1.429 . S
C257 C251 1.429 1_545 S
C257 C258 1.523 1_545 S
C258 C239 1.368 . S
C258 C252 1.368 1_565 S
C258 C257 1.523 1_565 S
C259 C243 1.429 . S
C259 C255 1.429 . S
C259 C260 1.523 . S
C260 C244 1.368 . S
C260 C256 1.368 . S
C260 C259 1.523 . S
H261 C236 0.950 . S
H262 C238 0.950 . S
H263 C239 0.949 . S
H264 C241 0.950 . S
H265 C243 0.950 . S
C266 C267 1.349 . S
C266 C268 1.327 1_545 S
C266 H291 0.950 1_545 S
C267 C266 1.349 . S
C267 C283 1.349 . S
C268 C266 1.327 1_565 S
C268 C287 1.429 1_565 S
C268 H292 0.950 . S
C269 C286 1.574 1_545 S
C269 C288 1.368 1_545 S
C269 H293 0.949 . S
H270 C274 0.949 . S
C271 C272 1.349 . S
C271 C273 1.327 . S
C271 H294 0.950 . S
C272 C271 1.349 . S
C272 C284 1.349 . S
C273 C271 1.327 . S
C273 C289 1.429 . S
C273 H295 0.950 . S
C274 H270 0.949 . S
C274 C282 1.574 . S
C274 C290 1.368 . S
H275 C283 0.950 . S
H276 C281 0.950 . S
H277 C282 0.949 . S
H278 C284 0.950 . S
H279 C285 0.950 . S
H280 C286 0.949 1_545 S
C281 H276 0.950 . S
C281 C283 1.327 . S
C281 C287 1.429 . S
C282 C274 1.574 . S
C282 H277 0.949 . S
C282 C288 1.368 . S
C283 C267 1.349 . S
C283 H275 0.950 . S
C283 C281 1.327 . S
C284 C272 1.349 . S
C284 H278 0.950 . S
C284 C285 1.327 . S
C285 H279 0.950 . S
C285 C284 1.327 . S
C285 C289 1.429 . S
C286 C269 1.574 1_565 S
C286 H280 0.949 1_565 S
C286 C290 1.368 . S
C287 C268 1.429 1_545 S
C287 C281 1.429 . S
C287 C288 1.523 1_545 S
C288 C269 1.368 1_565 S
C288 C282 1.368 . S
C288 C287 1.523 1_565 S
C289 C273 1.429 . S
C289 C285 1.429 . S
C289 C290 1.523 . S
C290 C274 1.368 . S
C290 C286 1.368 . S
C290 C289 1.523 . S
H291 C266 0.950 1_565 S
H292 C268 0.950 . S
H293 C269 0.949 . S
H294 C271 0.950 . S
H295 C273 0.950 . S
C296 C297 1.349 . S
C296 C298 1.327 . S
C296 H321 0.950 . S
C297 C296 1.349 . S
C297 C313 1.349 . S
C298 C296 1.327 . S
C298 C317 1.429 . S
C298 H322 0.950 . S
C299 C316 1.574 . S
C299 C318 1.368 . S
C299 H323 0.949 . S
H300 C304 0.949 . S
C301 C302 1.349 . S
C301 C303 1.327 . S
C301 H324 0.950 . S
C302 C301 1.349 . S
C302 C314 1.349 . S
C303 C301 1.327 . S
C303 C319 1.429 . S
C303 H325 0.950 . S
C304 H300 0.949 . S
C304 C312 1.574 . S
C304 C320 1.368 . S
H305 C313 0.950 . S
H306 C311 0.950 . S
H307 C312 0.949 . S
H308 C314 0.950 . S
H309 C315 0.950 . S
H310 C316 0.949 . S
C311 H306 0.950 . S
C311 C313 1.327 . S
C311 C317 1.429 . S
C312 C304 1.574 . S
C312 H307 0.949 . S
C312 C318 1.368 . S
C313 C297 1.349 . S
C313 H305 0.950 . S
C313 C311 1.327 . S
C314 C302 1.349 . S
C314 H308 0.950 . S
C314 C315 1.327 . S
C315 H309 0.950 . S
C315 C314 1.327 . S
C315 C319 1.429 . S
C316 C299 1.574 . S
C316 H310 0.949 . S
C316 C320 1.368 . S
C317 C298 1.429 . S
C317 C311 1.429 . S
C317 C318 1.523 . S
C318 C299 1.368 . S
C318 C312 1.368 . S
C318 C317 1.523 . S
C319 C303 1.429 . S
C319 C315 1.429 . S
C319 C320 1.523 . S
C320 C304 1.368 . S
C320 C316 1.368 . S
C320 C319 1.523 . S
H321 C296 0.950 . S
H322 C298 0.950 . S
H323 C299 0.949 . S
H324 C301 0.950 . S
H325 C303 0.950 . S
C326 C327 1.349 . S
C326 C328 1.327 . S
C326 H351 0.950 . S
C327 C326 1.349 . S
C327 C343 1.349 . S
C328 C326 1.327 . S
C328 C347 1.429 . S
C328 H352 0.950 . S
C329 C346 1.574 . S
C329 C348 1.368 . S
C329 H353 0.949 . S
H330 C334 0.949 . S
C331 C332 1.349 . S
C331 C333 1.327 . S
C331 H354 0.950 . S
C332 C331 1.349 . S
C332 C344 1.349 . S
C333 C331 1.327 . S
C333 C349 1.429 . S
C333 H355 0.950 . S
C334 H330 0.949 . S
C334 C342 1.574 . S
C334 C350 1.368 . S
H335 C343 0.950 . S
H336 C341 0.950 . S
H337 C342 0.949 . S
H338 C344 0.950 . S
H339 C345 0.950 . S
H340 C346 0.949 . S
C341 H336 0.950 . S
C341 C343 1.327 . S
C341 C347 1.429 . S
C342 C334 1.574 . S
C342 H337 0.949 . S
C342 C348 1.368 . S
C343 C327 1.349 . S
C343 H335 0.950 . S
C343 C341 1.327 . S
C344 C332 1.349 . S
C344 H338 0.950 . S
C344 C345 1.327 . S
C345 H339 0.950 . S
C345 C344 1.327 . S
C345 C349 1.429 . S
C346 C329 1.574 . S
C346 H340 0.949 . S
C346 C350 1.368 . S
C347 C328 1.429 . S
C347 C341 1.429 . S
C347 C348 1.523 . S
C348 C329 1.368 . S
C348 C342 1.368 . S
C348 C347 1.523 . S
C349 C333 1.429 . S
C349 C345 1.429 . S
C349 C350 1.523 . S
C350 C334 1.368 . S
C350 C346 1.368 . S
C350 C349 1.523 . S
H351 C326 0.950 . S
H352 C328 0.950 . S
H353 C329 0.949 . S
H354 C331 0.950 . S
H355 C333 0.950 . S
C356 C357 1.349 . S
C356 C358 1.327 . S
C356 H381 0.950 . S
C357 C356 1.349 . S
C357 C373 1.349 . S
C358 C356 1.327 . S
C358 C377 1.429 . S
C358 H382 0.950 . S
C359 C376 1.574 . S
C359 C378 1.368 . S
C359 H383 0.949 . S
H360 C364 0.949 . S
C361 C362 1.349 . S
C361 C363 1.327 . S
C361 H384 0.950 . S
C362 C361 1.349 . S
C362 C374 1.349 . S
C363 C361 1.327 . S
C363 C379 1.429 . S
C363 H385 0.950 . S
C364 H360 0.949 . S
C364 C372 1.574 . S
C364 C380 1.368 . S
H365 C373 0.950 . S
H366 C371 0.950 . S
H367 C372 0.949 . S
H368 C374 0.950 . S
H369 C375 0.950 . S
H370 C376 0.949 . S
C371 H366 0.950 . S
C371 C373 1.327 . S
C371 C377 1.429 . S
C372 C364 1.574 . S
C372 H367 0.949 . S
C372 C378 1.368 . S
C373 C357 1.349 . S
C373 H365 0.950 . S
C373 C371 1.327 . S
C374 C362 1.349 . S
C374 H368 0.950 . S
C374 C375 1.327 . S
C375 H369 0.950 . S
C375 C374 1.327 . S
C375 C379 1.429 . S
C376 C359 1.574 . S
C376 H370 0.949 . S
C376 C380 1.368 . S
C377 C358 1.429 . S
C377 C371 1.429 . S
C377 C378 1.523 . S
C378 C359 1.368 . S
C378 C372 1.368 . S
C378 C377 1.523 . S
C379 C363 1.429 . S
C379 C375 1.429 . S
C379 C380 1.523 . S
C380 C364 1.368 . S
C380 C376 1.368 . S
C380 C379 1.523 . S
H381 C356 0.950 . S
H382 C358 0.950 . S
H383 C359 0.949 . S
H384 C361 0.950 . S
H385 C363 0.950 . S
C386 C387 1.349 . S
C386 C388 1.327 . S
C386 H411 0.950 . S
C387 C386 1.349 . S
C387 C403 1.349 . S
C388 C386 1.327 . S
C388 C407 1.429 . S
C388 H412 0.950 . S
C389 C406 1.574 . S
C389 C408 1.368 . S
C389 H413 0.949 . S
H390 C394 0.949 . S
C391 C392 1.349 . S
C391 C393 1.327 . S
C391 H414 0.950 . S
C392 C391 1.349 . S
C392 C404 1.349 . S
C393 C391 1.327 . S
C393 C409 1.429 . S
C393 H415 0.950 . S
C394 H390 0.949 . S
C394 C402 1.574 . S
C394 C410 1.368 . S
H395 C403 0.950 . S
H396 C401 0.950 . S
H397 C402 0.949 . S
H398 C404 0.950 . S
H399 C405 0.950 . S
H400 C406 0.949 . S
C401 H396 0.950 . S
C401 C403 1.327 . S
C401 C407 1.429 . S
C402 C394 1.574 . S
C402 H397 0.949 . S
C402 C408 1.368 . S
C403 C387 1.349 . S
C403 H395 0.950 . S
C403 C401 1.327 . S
C404 C392 1.349 . S
C404 H398 0.950 . S
C404 C405 1.327 . S
C405 H399 0.950 . S
C405 C404 1.327 . S
C405 C409 1.429 . S
C406 C389 1.574 . S
C406 H400 0.949 . S
C406 C410 1.368 . S
C407 C388 1.429 . S
C407 C401 1.429 . S
C407 C408 1.523 . S
C408 C389 1.368 . S
C408 C402 1.368 . S
C408 C407 1.523 . S
C409 C393 1.429 . S
C409 C405 1.429 . S
C409 C410 1.523 . S
C410 C394 1.368 . S
C410 C406 1.368 . S
C410 C409 1.523 . S
H411 C386 0.950 . S
H412 C388 0.950 . S
H413 C389 0.949 . S
H414 C391 0.950 . S
H415 C393 0.950 . S
C416 C417 1.349 . S
C416 C418 1.327 . S
C416 H441 0.950 . S
C417 C416 1.349 . S
C417 C433 1.349 . S
C418 C416 1.327 . S
C418 C437 1.429 . S
C418 H442 0.950 1_544 S
C419 C436 1.574 . S
C419 C438 1.368 . S
C419 H443 0.949 . S
H420 C424 0.949 . S
C421 C422 1.349 . S
C421 C423 1.327 . S
C421 H444 0.950 . S
C422 C421 1.349 . S
C422 C434 1.349 . S
C423 C421 1.327 . S
C423 C439 1.429 . S
C423 H445 0.950 1_566 S
C424 H420 0.949 . S
C424 C432 1.574 . S
C424 C440 1.368 . S
H425 C433 0.950 . S
H426 C431 0.950 . S
H427 C432 0.949 . S
H428 C434 0.950 . S
H429 C435 0.950 . S
H430 C436 0.949 . S
C431 H426 0.950 . S
C431 C433 1.327 . S
C431 C437 1.429 . S
C432 C424 1.574 . S
C432 H427 0.949 . S
C432 C438 1.368 1_566 S
C433 C417 1.349 . S
C433 H425 0.950 . S
C433 C431 1.327 . S
C434 C422 1.349 . S
C434 H428 0.950 . S
C434 C435 1.327 . S
C435 H429 0.950 . S
C435 C434 1.327 . S
C435 C439 1.429 . S
C436 C419 1.574 . S
C436 H430 0.949 . S
C436 C440 1.368 1_544 S
C437 C418 1.429 . S
C437 C431 1.429 . S
C437 C438 1.523 . S
C438 C419 1.368 . S
C438 C432 1.368 1_544 S
C438 C437 1.523 . S
C439 C423 1.429 . S
C439 C435 1.429 . S
C439 C440 1.523 . S
C440 C424 1.368 . S
C440 C436 1.368 1_566 S
C440 C439 1.523 . S
H441 C416 0.950 . S
H442 C418 0.950 1_566 S
H443 C419 0.949 . S
H444 C421 0.950 . S
H445 C423 0.950 1_544 S
C446 C447 1.349 . S
C446 C448 1.318 1_565 S
C446 H471 0.950 1_565 S
C447 C446 1.349 . S
C447 C463 1.349 . S
C448 C446 1.318 1_545 S
C448 C467 1.410 1_545 S
C448 H472 0.979 . S
C449 C466 1.574 . S
C449 C468 1.368 . S
C449 H473 0.949 . S
H450 C454 0.949 . S
C451 C452 1.349 . S
C451 C453 1.327 1_545 S
C451 H474 0.950 1_545 S
C452 C451 1.349 . S
C452 C464 1.349 . S
C453 C451 1.327 1_565 S
C453 C469 1.429 1_565 S
C453 H475 0.950 . S
C454 H450 0.949 . S
C454 C462 1.574 . S
C454 C470 1.368 . S
H455 C463 0.950 . S
H456 C461 0.950 . S
H457 C462 0.949 . S
H458 C464 0.950 . S
H459 C465 0.950 . S
H460 C466 0.949 . S
C461 H456 0.950 . S
C461 C463 1.327 . S
C461 C467 1.429 . S
C462 C454 1.574 . S
C462 H457 0.949 . S
C462 C468 1.368 1_545 S
C463 C447 1.349 . S
C463 H455 0.950 . S
C463 C461 1.327 . S
C464 C452 1.349 . S
C464 H458 0.950 . S
C464 C465 1.327 . S
C465 H459 0.950 . S
C465 C464 1.327 . S
C465 C469 1.429 . S
C466 C449 1.574 . S
C466 H460 0.949 . S
C466 C470 1.368 1_565 S
C467 C448 1.410 1_565 S
C467 C461 1.429 . S
C467 C468 1.523 . S
C468 C449 1.368 . S
C468 C462 1.368 1_565 S
C468 C467 1.523 . S
C469 C453 1.429 1_545 S
C469 C465 1.429 . S
C469 C470 1.523 . S
C470 C454 1.368 . S
C470 C466 1.368 1_545 S
C470 C469 1.523 . S
H471 C446 0.950 1_545 S
H472 C448 0.979 . S
H473 C449 0.949 . S
H474 C451 0.950 1_565 S
H475 C453 0.950 . S
C476 C477 1.349 . S
C476 C478 1.327 . S
C476 H501 0.950 . S
C477 C476 1.349 . S
C477 C493 1.349 . S
C478 C476 1.327 . S
C478 C497 1.429 . S
C478 H502 0.950 . S
C479 C496 1.575 1_655 S
C479 C498 1.368 . S
C479 H503 0.949 . S
H480 C484 0.949 . S
C481 C482 1.349 . S
C481 C483 1.327 . S
C481 H504 0.950 . S
C482 C481 1.349 . S
C482 C494 1.349 . S
C483 C481 1.327 . S
C483 C499 1.429 . S
C483 H505 0.950 . S
C484 H480 0.949 . S
C484 C492 1.573 1_455 S
C484 C500 1.368 . S
H485 C493 0.950 . S
H486 C491 0.950 . S
H487 C492 0.950 1_554 S
H488 C494 0.950 . S
H489 C495 0.950 . S
H490 C496 0.948 . S
C491 H486 0.950 . S
C491 C493 1.327 . S
C491 C497 1.429 . S
C492 C484 1.573 1_655 S
C492 H487 0.950 1_556 S
C492 C498 1.369 1_556 S
C493 C477 1.349 . S
C493 H485 0.950 . S
C493 C491 1.327 . S
C494 C482 1.349 . S
C494 H488 0.950 . S
C494 C495 1.327 . S
C495 H489 0.950 . S
C495 C494 1.327 . S
C495 C499 1.429 . S
C496 C479 1.575 1_455 S
C496 H490 0.948 . S
C496 C500 1.368 1_554 S
C497 C478 1.429 . S
C497 C491 1.429 . S
C497 C498 1.523 . S
C498 C479 1.368 . S
C498 C492 1.369 1_554 S
C498 C497 1.523 . S
C499 C483 1.429 . S
C499 C495 1.429 . S
C499 C500 1.523 . S
C500 C484 1.368 . S
C500 C496 1.368 1_556 S
C500 C499 1.523 . S
H501 C476 0.950 . S
H502 C478 0.950 . S
H503 C479 0.949 . S
H504 C481 0.950 . S
H505 C483 0.950 . S
C506 C507 1.349 . S
C506 C508 1.327 . S
C506 H531 0.950 . S
C507 C506 1.349 . S
C507 C523 1.349 . S
C508 C506 1.327 . S
C508 C527 1.429 . S
C508 H532 0.950 . S
C509 C526 1.574 1_455 S
C509 C528 1.368 . S
C509 H533 0.949 . S
H510 C514 0.949 . S
C511 C512 1.349 . S
C511 C513 1.327 . S
C511 H534 0.950 . S
C512 C511 1.349 . S
C512 C524 1.349 . S
C513 C511 1.327 . S
C513 C529 1.429 . S
C513 H535 0.950 . S
C514 H510 0.949 . S
C514 C522 1.574 1_655 S
C514 C530 1.368 . S
H515 C523 0.950 . S
H516 C521 0.950 . S
H517 C522 0.949 . S
H518 C524 0.950 . S
H519 C525 0.950 . S
H520 C526 0.949 . S
C521 H516 0.950 . S
C521 C523 1.327 . S
C521 C527 1.429 . S
C522 C514 1.574 1_455 S
C522 H517 0.949 . S
C522 C528 1.368 . S
C523 C507 1.349 . S
C523 H515 0.950 . S
C523 C521 1.327 . S
C524 C512 1.349 . S
C524 H518 0.950 . S
C524 C525 1.327 . S
C525 H519 0.950 . S
C525 C524 1.327 . S
C525 C529 1.429 . S
C526 C509 1.574 1_655 S
C526 H520 0.949 . S
C526 C530 1.368 . S
C527 C508 1.429 . S
C527 C521 1.429 . S
C527 C528 1.523 . S
C528 C509 1.368 . S
C528 C522 1.368 . S
C528 C527 1.523 . S
C529 C513 1.429 . S
C529 C525 1.429 . S
C529 C530 1.523 . S
C530 C514 1.368 . S
C530 C526 1.368 . S
C530 C529 1.523 . S
H531 C506 0.950 . S
H532 C508 0.950 . S
H533 C509 0.949 . S
H534 C511 0.950 . S
H535 C513 0.950 . S
C536 C537 1.349 1_556 S
C536 C538 1.327 . S
C536 H561 0.950 . S
C537 C536 1.349 1_554 S
C537 C553 1.349 . S
C538 C536 1.327 . S
C538 C557 1.429 1_556 S
C538 H562 0.950 . S
C539 C556 1.574 1_455 S
C539 C558 1.368 . S
C539 H563 0.949 . S
H540 C544 0.949 . S
C541 C542 1.349 1_554 S
C541 C543 1.327 . S
C541 H564 0.950 . S
C542 C541 1.349 1_556 S
C542 C554 1.349 . S
C543 C541 1.327 . S
C543 C559 1.429 1_554 S
C543 H565 0.950 . S
C544 H540 0.949 . S
C544 C552 1.574 1_655 S
C544 C560 1.368 . S
H545 C553 0.950 . S
H546 C551 0.950 . S
H547 C552 0.949 . S
H548 C554 0.950 . S
H549 C555 0.950 . S
H550 C556 0.949 . S
C551 H546 0.950 . S
C551 C553 1.327 . S
C551 C557 1.429 . S
C552 C544 1.574 1_455 S
C552 H547 0.949 . S
C552 C558 1.368 1_566 S
C553 C537 1.349 . S
C553 H545 0.950 . S
C553 C551 1.327 . S
C554 C542 1.349 . S
C554 H548 0.950 . S
C554 C555 1.327 . S
C555 H549 0.950 . S
C555 C554 1.327 . S
C555 C559 1.429 . S
C556 C539 1.574 1_655 S
C556 H550 0.949 . S
C556 C560 1.368 1_544 S
C557 C538 1.429 1_554 S
C557 C551 1.429 . S
C557 C558 1.523 . S
C558 C539 1.368 . S
C558 C552 1.368 1_544 S
C558 C557 1.523 . S
C559 C543 1.429 1_556 S
C559 C555 1.429 . S
C559 C560 1.523 . S
C560 C544 1.368 . S
C560 C556 1.368 1_566 S
C560 C559 1.523 . S
H561 C536 0.950 . S
H562 C538 0.950 . S
H563 C539 0.949 . S
H564 C541 0.950 . S
H565 C543 0.950 . S
C566 C567 1.349 . S
C566 C568 1.327 . S
C566 H591 0.950 . S
C567 C566 1.349 . S
C567 C583 1.349 . S
C568 C566 1.327 . S
C568 C587 1.429 . S
C568 H592 0.950 . S
C569 C586 1.574 1_655 S
C569 C588 1.368 . S
C569 H593 0.949 . S
H570 C574 0.949 . S
C571 C572 1.349 . S
C571 C573 1.327 . S
C571 H594 0.950 . S
C572 C571 1.349 . S
C572 C584 1.349 . S
C573 C571 1.327 . S
C573 C589 1.429 . S
C573 H595 0.950 . S
C574 H570 0.949 . S
C574 C582 1.574 1_455 S
C574 C590 1.368 . S
H575 C583 0.950 . S
H576 C581 0.950 . S
H577 C582 0.949 . S
H578 C584 0.950 . S
H579 C585 0.950 . S
H580 C586 0.949 . S
C581 H576 0.950 . S
C581 C583 1.327 . S
C581 C587 1.429 . S
C582 C574 1.574 1_655 S
C582 H577 0.949 . S
C582 C588 1.368 1_565 S
C583 C567 1.349 . S
C583 H575 0.950 . S
C583 C581 1.327 . S
C584 C572 1.349 . S
C584 H578 0.950 . S
C584 C585 1.327 . S
C585 H579 0.950 . S
C585 C584 1.327 . S
C585 C589 1.429 . S
C586 C569 1.574 1_455 S
C586 H580 0.949 . S
C586 C590 1.368 1_545 S
C587 C568 1.429 . S
C587 C581 1.429 . S
C587 C588 1.523 . S
C588 C569 1.368 . S
C588 C582 1.368 1_545 S
C588 C587 1.523 . S
C589 C573 1.429 . S
C589 C585 1.429 . S
C589 C590 1.523 . S
C590 C574 1.368 . S
C590 C586 1.368 1_565 S
C590 C589 1.523 . S
H591 C566 0.950 . S
H592 C568 0.950 . S
H593 C569 0.949 . S
H594 C571 0.950 . S
H595 C573 0.950 . S
C596 C597 1.349 . S
C596 C598 1.327 . S
C596 H621 0.950 . S
C597 C596 1.349 . S
C597 C613 1.349 1_556 S
C598 C596 1.327 . S
C598 C617 1.429 . S
C598 H622 0.950 . S
C599 C616 1.574 . S
C599 C618 1.368 1_554 S
C599 H623 0.949 . S
H600 C604 0.949 . S
C601 C602 1.349 . S
C601 C603 1.327 . S
C601 H624 0.950 . S
C602 C601 1.349 . S
C602 C614 1.349 1_554 S
C603 C601 1.327 . S
C603 C619 1.429 . S
C603 H625 0.950 . S
C604 H600 0.949 . S
C604 C612 1.574 . S
C604 C620 1.368 1_556 S
H605 C613 0.950 . S
H606 C611 0.950 . S
H607 C612 0.949 . S
H608 C614 0.950 . S
H609 C615 0.950 . S
H610 C616 0.949 . S
C611 H606 0.950 . S
C611 C613 1.327 . S
C611 C617 1.429 1_554 S
C612 C604 1.574 . S
C612 H607 0.949 . S
C612 C618 1.368 . S
C613 C597 1.349 1_554 S
C613 H605 0.950 . S
C613 C611 1.327 . S
C614 C602 1.349 1_556 S
C614 H608 0.950 . S
C614 C615 1.327 . S
C615 H609 0.950 . S
C615 C614 1.327 . S
C615 C619 1.429 1_556 S
C616 C599 1.574 . S
C616 H610 0.949 . S
C616 C620 1.368 . S
C617 C598 1.429 . S
C617 C611 1.429 1_556 S
C617 C618 1.523 . S
C618 C599 1.368 1_556 S
C618 C612 1.368 . S
C618 C617 1.523 . S
C619 C603 1.429 . S
C619 C615 1.429 1_554 S
C619 C620 1.523 . S
C620 C604 1.368 1_554 S
C620 C616 1.368 . S
C620 C619 1.523 . S
H621 C596 0.950 . S
H622 C598 0.950 . S
H623 C599 0.949 . S
H624 C601 0.950 . S
H625 C603 0.950 . S
C626 C627 1.349 . S
C626 C628 1.327 . S
C626 H651 0.950 . S
C627 C626 1.349 . S
C627 C643 1.349 . S
C628 C626 1.327 . S
C628 C647 1.429 . S
C628 H652 0.950 . S
C629 C646 1.574 . S
C629 C648 1.368 . S
C629 H653 0.949 . S
H630 C634 0.949 . S
C631 C632 1.349 . S
C631 C633 1.327 . S
C631 H654 0.950 . S
C632 C631 1.349 . S
C632 C644 1.349 . S
C633 C631 1.327 . S
C633 C649 1.429 . S
C633 H655 0.950 . S
C634 H630 0.949 . S
C634 C642 1.574 . S
C634 C650 1.368 . S
H635 C643 0.950 . S
H636 C641 0.950 . S
H637 C642 0.949 . S
H638 C644 0.950 . S
H639 C645 0.950 . S
H640 C646 0.949 . S
C641 H636 0.950 . S
C641 C643 1.327 . S
C641 C647 1.429 . S
C642 C634 1.574 . S
C642 H637 0.949 . S
C642 C648 1.368 . S
C643 C627 1.349 . S
C643 H635 0.950 . S
C643 C641 1.327 . S
C644 C632 1.349 . S
C644 H638 0.950 . S
C644 C645 1.327 . S
C645 H639 0.950 . S
C645 C644 1.327 . S
C645 C649 1.429 . S
C646 C629 1.574 . S
C646 H640 0.949 . S
C646 C650 1.368 . S
C647 C628 1.429 . S
C647 C641 1.429 . S
C647 C648 1.523 . S
C648 C629 1.368 . S
C648 C642 1.368 . S
C648 C647 1.523 . S
C649 C633 1.429 . S
C649 C645 1.429 . S
C649 C650 1.523 . S
C650 C634 1.368 . S
C650 C646 1.368 . S
C650 C649 1.523 . S
H651 C626 0.950 . S
H652 C628 0.950 . S
H653 C629 0.949 . S
H654 C631 0.950 . S
H655 C633 0.950 . S
C656 C657 1.349 . S
C656 C658 1.327 . S
C656 H681 0.950 . S
C657 C656 1.349 . S
C657 C673 1.349 . S
C658 C656 1.327 . S
C658 C677 1.429 . S
C658 H682 0.950 . S
C659 C676 1.574 . S
C659 C678 1.368 . S
C659 H683 0.949 . S
H660 C664 0.949 . S
C661 C662 1.349 . S
C661 C663 1.327 . S
C661 H684 0.950 . S
C662 C661 1.349 . S
C662 C674 1.349 . S
C663 C661 1.327 . S
C663 C679 1.429 . S
C663 H685 0.950 . S
C664 H660 0.949 . S
C664 C672 1.574 . S
C664 C680 1.368 . S
H665 C673 0.950 . S
H666 C671 0.950 . S
H667 C672 0.949 . S
H668 C674 0.950 . S
H669 C675 0.950 . S
H670 C676 0.949 . S
C671 H666 0.950 . S
C671 C673 1.327 . S
C671 C677 1.429 . S
C672 C664 1.574 . S
C672 H667 0.949 . S
C672 C678 1.368 . S
C673 C657 1.349 . S
C673 H665 0.950 . S
C673 C671 1.327 . S
C674 C662 1.349 . S
C674 H668 0.950 . S
C674 C675 1.327 . S
C675 H669 0.950 . S
C675 C674 1.327 . S
C675 C679 1.429 . S
C676 C659 1.574 . S
C676 H670 0.949 . S
C676 C680 1.368 . S
C677 C658 1.429 . S
C677 C671 1.429 . S
C677 C678 1.523 . S
C678 C659 1.368 . S
C678 C672 1.368 . S
C678 C677 1.523 . S
C679 C663 1.429 . S
C679 C675 1.429 . S
C679 C680 1.523 . S
C680 C664 1.368 . S
C680 C676 1.368 . S
C680 C679 1.523 . S
H681 C656 0.950 . S
H682 C658 0.950 . S
H683 C659 0.949 . S
H684 C661 0.950 . S
H685 C663 0.950 . S
C686 C687 1.349 . S
C686 C688 1.327 . S
C686 H711 0.950 . S
C687 C686 1.349 . S
C687 C703 1.349 . S
C688 C686 1.327 . S
C688 C707 1.429 . S
C688 H712 0.950 . S
C689 C706 1.574 . S
C689 C708 1.368 . S
C689 H713 0.949 . S
H690 C694 0.949 . S
C691 C692 1.349 . S
C691 C693 1.327 . S
C691 H714 0.950 . S
C692 C691 1.349 . S
C692 C704 1.349 . S
C693 C691 1.327 . S
C693 C709 1.429 . S
C693 H715 0.950 . S
C694 H690 0.949 . S
C694 C702 1.574 . S
C694 C710 1.368 . S
H695 C703 0.950 . S
H696 C701 0.950 . S
H697 C702 0.949 . S
H698 C704 0.950 . S
H699 C705 0.950 . S
H700 C706 0.949 . S
C701 H696 0.950 . S
C701 C703 1.327 . S
C701 C707 1.429 . S
C702 C694 1.574 . S
C702 H697 0.949 . S
C702 C708 1.368 . S
C703 C687 1.349 . S
C703 H695 0.950 . S
C703 C701 1.327 . S
C704 C692 1.349 . S
C704 H698 0.950 . S
C704 C705 1.327 . S
C705 H699 0.950 . S
C705 C704 1.327 . S
C705 C709 1.429 . S
C706 C689 1.574 . S
C706 H700 0.949 . S
C706 C710 1.368 . S
C707 C688 1.429 . S
C707 C701 1.429 . S
C707 C708 1.523 . S
C708 C689 1.368 . S
C708 C702 1.368 . S
C708 C707 1.523 . S
C709 C693 1.429 . S
C709 C705 1.429 . S
C709 C710 1.523 . S
C710 C694 1.368 . S
C710 C706 1.368 . S
C710 C709 1.523 . S
H711 C686 0.950 . S
H712 C688 0.950 . S
H713 C689 0.949 . S
H714 C691 0.950 . S
H715 C693 0.950 . S
C716 C717 1.349 . S
C716 C718 1.327 . S
C716 H741 0.950 . S
C717 C716 1.349 . S
C717 C733 1.349 . S
C718 C716 1.327 . S
C718 C737 1.429 . S
C718 H742 0.950 . S
C719 C736 1.574 1_655 S
C719 C738 1.368 . S
C719 H743 0.949 . S
H720 C724 0.949 . S
C721 C722 1.349 . S
C721 C723 1.327 . S
C721 H744 0.950 . S
C722 C721 1.349 . S
C722 C734 1.349 . S
C723 C721 1.327 . S
C723 C739 1.429 . S
C723 H745 0.950 . S
C724 H720 0.949 . S
C724 C732 1.574 1_455 S
C724 C740 1.368 . S
H725 C733 0.950 . S
H726 C731 0.950 . S
H727 C732 0.949 . S
H728 C734 0.950 . S
H729 C735 0.950 . S
H730 C736 0.949 . S
C731 H726 0.950 . S
C731 C733 1.327 . S
C731 C737 1.429 . S
C732 C724 1.574 1_655 S
C732 H727 0.949 . S
C732 C738 1.368 . S
C733 C717 1.349 . S
C733 H725 0.950 . S
C733 C731 1.327 . S
C734 C722 1.349 . S
C734 H728 0.950 . S
C734 C735 1.327 . S
C735 H729 0.950 . S
C735 C734 1.327 . S
C735 C739 1.429 . S
C736 C719 1.574 1_455 S
C736 H730 0.949 . S
C736 C740 1.368 . S
C737 C718 1.429 . S
C737 C731 1.429 . S
C737 C738 1.523 . S
C738 C719 1.368 . S
C738 C732 1.368 . S
C738 C737 1.523 . S
C739 C723 1.429 . S
C739 C735 1.429 . S
C739 C740 1.523 . S
C740 C724 1.368 . S
C740 C736 1.368 . S
C740 C739 1.523 . S
H741 C716 0.950 . S
H742 C718 0.950 . S
H743 C719 0.949 . S
H744 C721 0.950 . S
H745 C723 0.950 . S
C746 C747 1.349 . S
C746 C748 1.327 . S
C746 H771 0.950 . S
C747 C746 1.349 . S
C747 C763 1.349 . S
C748 C746 1.327 . S
C748 C767 1.429 . S
C748 H772 0.950 . S
C749 C766 1.574 1_655 S
C749 C768 1.368 . S
C749 H773 0.949 . S
H750 C754 0.949 . S
C751 C752 1.349 . S
C751 C753 1.327 . S
C751 H774 0.950 . S
C752 C751 1.349 . S
C752 C764 1.349 . S
C753 C751 1.327 . S
C753 C769 1.429 . S
C753 H775 0.950 . S
C754 H750 0.949 . S
C754 C762 1.574 1_455 S
C754 C770 1.368 . S
H755 C763 0.950 . S
H756 C761 0.950 . S
H757 C762 0.949 . S
H758 C764 0.950 . S
H759 C765 0.950 . S
H760 C766 0.949 . S
C761 H756 0.950 . S
C761 C763 1.327 . S
C761 C767 1.429 . S
C762 C754 1.574 1_655 S
C762 H757 0.949 . S
C762 C768 1.368 . S
C763 C747 1.349 . S
C763 H755 0.950 . S
C763 C761 1.327 . S
C764 C752 1.349 . S
C764 H758 0.950 . S
C764 C765 1.327 . S
C765 H759 0.950 . S
C765 C764 1.327 . S
C765 C769 1.429 . S
C766 C749 1.574 1_455 S
C766 H760 0.949 . S
C766 C770 1.368 . S
C767 C748 1.429 . S
C767 C761 1.429 . S
C767 C768 1.523 . S
C768 C749 1.368 . S
C768 C762 1.368 . S
C768 C767 1.523 . S
C769 C753 1.429 . S
C769 C765 1.429 . S
C769 C770 1.523 . S
C770 C754 1.368 . S
C770 C766 1.368 . S
C770 C769 1.523 . S
H771 C746 0.950 . S
H772 C748 0.950 . S
H773 C749 0.949 . S
H774 C751 0.950 . S
H775 C753 0.950 . S
C776 C777 1.349 . S
C776 C778 1.327 . S
C776 H801 0.950 . S
C777 C776 1.349 . S
C777 C793 1.349 1_554 S
C778 C776 1.327 . S
C778 C797 1.429 . S
C778 H802 0.950 . S
C779 C796 1.574 . S
C779 C798 1.368 1_556 S
C779 H803 0.949 . S
H780 C784 0.949 . S
C781 C782 1.349 . S
C781 C783 1.327 . S
C781 H804 0.950 . S
C782 C781 1.349 . S
C782 C794 1.349 1_556 S
C783 C781 1.327 . S
C783 C799 1.429 . S
C783 H805 0.950 . S
C784 H780 0.949 . S
C784 C792 1.574 . S
C784 C800 1.368 1_554 S
H785 C793 0.950 . S
H786 C791 0.950 . S
H787 C792 0.949 . S
H788 C794 0.950 . S
H789 C795 0.950 . S
H790 C796 0.949 . S
C791 H786 0.950 . S
C791 C793 1.327 . S
C791 C797 1.429 1_556 S
C792 C784 1.574 . S
C792 H787 0.949 . S
C792 C798 1.368 . S
C793 C777 1.349 1_556 S
C793 H785 0.950 . S
C793 C791 1.327 . S
C794 C782 1.349 1_554 S
C794 H788 0.950 . S
C794 C795 1.327 . S
C795 H789 0.950 . S
C795 C794 1.327 . S
C795 C799 1.429 1_554 S
C796 C779 1.574 . S
C796 H790 0.949 . S
C796 C800 1.368 . S
C797 C778 1.429 . S
C797 C791 1.429 1_554 S
C797 C798 1.523 . S
C798 C779 1.368 1_554 S
C798 C792 1.368 . S
C798 C797 1.523 . S
C799 C783 1.429 . S
C799 C795 1.429 1_556 S
C799 C800 1.523 . S
C800 C784 1.368 1_556 S
C800 C796 1.368 . S
C800 C799 1.523 . S
H801 C776 0.950 . S
H802 C778 0.950 . S
H803 C779 0.949 . S
H804 C781 0.950 . S
H805 C783 0.950 . S
C806 C807 1.349 . S
C806 C808 1.327 . S
C806 H831 0.950 . S
C807 C806 1.349 . S
C807 C823 1.349 . S
C808 C806 1.327 . S
C808 C827 1.429 . S
C808 H832 0.950 . S
C809 C826 1.574 . S
C809 C828 1.368 . S
C809 H833 0.949 . S
H810 C814 0.949 . S
C811 C812 1.349 . S
C811 C813 1.327 . S
C811 H834 0.950 . S
C812 C811 1.349 . S
C812 C824 1.349 . S
C813 C811 1.327 . S
C813 C829 1.429 . S
C813 H835 0.950 . S
C814 H810 0.949 . S
C814 C822 1.574 . S
C814 C830 1.368 . S
H815 C823 0.950 . S
H816 C821 0.950 . S
H817 C822 0.949 . S
H818 C824 0.950 . S
H819 C825 0.950 . S
H820 C826 0.949 . S
C821 H816 0.950 . S
C821 C823 1.327 . S
C821 C827 1.429 . S
C822 C814 1.574 . S
C822 H817 0.949 . S
C822 C828 1.368 . S
C823 C807 1.349 . S
C823 H815 0.950 . S
C823 C821 1.327 . S
C824 C812 1.349 . S
C824 H818 0.950 . S
C824 C825 1.327 . S
C825 H819 0.950 . S
C825 C824 1.327 . S
C825 C829 1.429 . S
C826 C809 1.574 . S
C826 H820 0.949 . S
C826 C830 1.368 . S
C827 C808 1.429 . S
C827 C821 1.429 . S
C827 C828 1.523 . S
C828 C809 1.368 . S
C828 C822 1.368 . S
C828 C827 1.523 . S
C829 C813 1.429 . S
C829 C825 1.429 . S
C829 C830 1.523 . S
C830 C814 1.368 . S
C830 C826 1.368 . S
C830 C829 1.523 . S
H831 C806 0.950 . S
H832 C808 0.950 . S
H833 C809 0.949 . S
H834 C811 0.950 . S
H835 C813 0.950 . S
C836 C837 1.368 . S
C836 C838 1.324 1_556 S
C836 H861 0.935 1_556 S
C837 C836 1.368 . S
C837 C853 1.349 . S
C838 C836 1.324 1_554 S
C838 C857 1.429 1_554 S
C838 H862 0.950 . S
C839 C856 1.574 . S
C839 C858 1.368 . S
C839 H863 0.949 . S
H840 C844 0.949 . S
C841 C842 1.349 . S
C841 C843 1.327 1_554 S
C841 H864 0.950 1_554 S
C842 C841 1.349 . S
C842 C854 1.349 . S
C843 C841 1.327 1_556 S
C843 C859 1.429 1_556 S
C843 H865 0.950 . S
C844 H840 0.949 . S
C844 C852 1.574 . S
C844 C860 1.368 . S
H845 C853 0.950 . S
H846 C851 0.950 . S
H847 C852 0.949 . S
H848 C854 0.950 . S
H849 C855 0.950 . S
H850 C856 0.949 . S
C851 H846 0.950 . S
C851 C853 1.327 . S
C851 C857 1.429 . S
C852 C844 1.574 . S
C852 H847 0.949 . S
C852 C858 1.368 1_554 S
C853 C837 1.349 . S
C853 H845 0.950 . S
C853 C851 1.327 . S
C854 C842 1.349 . S
C854 H848 0.950 . S
C854 C855 1.327 . S
C855 H849 0.950 . S
C855 C854 1.327 . S
C855 C859 1.429 . S
C856 C839 1.574 . S
C856 H850 0.949 . S
C856 C860 1.368 1_556 S
C857 C838 1.429 1_556 S
C857 C851 1.429 . S
C857 C858 1.523 . S
C858 C839 1.368 . S
C858 C852 1.368 1_556 S
C858 C857 1.523 . S
C859 C843 1.429 1_554 S
C859 C855 1.429 . S
C859 C860 1.523 . S
C860 C844 1.368 . S
C860 C856 1.368 1_554 S
C860 C859 1.523 . S
H861 C836 0.935 1_554 S
H862 C838 0.950 . S
H863 C839 0.949 . S
H864 C841 0.950 1_556 S
H865 C843 0.950 . S
C866 C867 1.349 . S
C866 C868 1.327 . S
C866 H891 0.950 . S
C867 C866 1.349 . S
C867 C883 1.349 . S
C868 C866 1.327 . S
C868 C887 1.429 . S
C868 H892 0.950 . S
C869 C886 1.574 . S
C869 C888 1.368 . S
C869 H893 0.949 . S
H870 C874 0.949 . S
C871 C872 1.349 . S
C871 C873 1.327 . S
C871 H894 0.950 . S
C872 C871 1.349 . S
C872 C884 1.349 . S
C873 C871 1.327 . S
C873 C889 1.429 . S
C873 H895 0.950 . S
C874 H870 0.949 . S
C874 C882 1.574 . S
C874 C890 1.368 . S
H875 C883 0.950 . S
H876 C881 0.950 . S
H877 C882 0.949 . S
H878 C884 0.950 . S
H879 C885 0.950 . S
H880 C886 0.949 . S
C881 H876 0.950 . S
C881 C883 1.327 . S
C881 C887 1.429 . S
C882 C874 1.574 . S
C882 H877 0.949 . S
C882 C888 1.368 . S
C883 C867 1.349 . S
C883 H875 0.950 . S
C883 C881 1.327 . S
C884 C872 1.349 . S
C884 H878 0.950 . S
C884 C885 1.327 . S
C885 H879 0.950 . S
C885 C884 1.327 . S
C885 C889 1.429 . S
C886 C869 1.574 . S
C886 H880 0.949 . S
C886 C890 1.368 . S
C887 C868 1.429 . S
C887 C881 1.429 . S
C887 C888 1.523 . S
C888 C869 1.368 . S
C888 C882 1.368 . S
C888 C887 1.523 . S
C889 C873 1.429 . S
C889 C885 1.429 . S
C889 C890 1.523 . S
C890 C874 1.368 . S
C890 C886 1.368 . S
C890 C889 1.523 . S
H891 C866 0.950 . S
H892 C868 0.950 . S
H893 C869 0.949 . S
H894 C871 0.950 . S
H895 C873 0.950 . S
C177 C10 1.318 . S
C182 C87 1.331 . S
C207 C51 1.331 . S
C212 C32 1.318 . S
C237 C29 1.315 . S
C242 C52 1.304 . S
C267 C7 1.315 . S
C272 C76 1.304 . S
C297 C175 1.331 . S
C302 C98 1.318 . S
C327 C120 1.318 . S
C332 C139 1.331 . S
C357 C117 1.315 . S
C362 C140 1.304 . S
C387 C95 1.315 . S
C392 C164 1.304 . S
C417 C15 0.619 . S
C422 C65 0.623 . S
C447 C81 0.623 . S
C452 C37 0.619 . S
C477 C103 0.619 . S
C482 C153 0.623 . S
C507 C125 0.619 . S
C512 C169 0.623 . S
C537 C18 2.101 . S
C542 C62 2.111 . S
C567 C40 2.101 . S
C572 C74 2.111 . S
C597 C150 2.111 . S
C602 C106 2.101 . S
C627 C162 2.111 . S
C632 C128 2.101 . S
C657 C21 1.367 . S
C662 C43 1.367 . S
C687 C59 1.358 . S
C692 C73 1.358 . S
C717 C109 1.367 . S
C722 C131 1.367 . S
C747 C161 1.358 . S
C752 C147 1.358 . S
C777 C8 1.395 . S
C782 C142 1.394 . S
C807 C30 1.395 . S
C812 C172 1.394 . S
C837 C54 1.394 . S
C842 C96 1.395 . S
C867 C118 1.395 . S
C872 C84 1.394 . S
