# Generated by pormake.
# Topology uoq, (4)-cn, num edge types: 1
# Building blocks:
#     Node 0, Type 0, BuildingBlock: QUQFOY_clean_sbu_3, # of connection points: 4
#     Node 1, Type 0, BuildingBlock: QUQFOY_clean_sbu_3, # of connection points: 4
#     Node 2, Type 0, BuildingBlock: QUQFOY_clean_sbu_3, # of connection points: 4
#     Node 3, Type 0, BuildingBlock: QUQFOY_clean_sbu_3, # of connection points: 4
#     Node 4, Type 0, BuildingBlock: QUQFOY_clean_sbu_3, # of connection points: 4
#     Node 5, Type 0, BuildingBlock: QUQFOY_clean_sbu_3, # of connection points: 4
#     Node 6, Type 0, BuildingBlock: QUQFOY_clean_sbu_3, # of connection points: 4
#     Node 7, Type 0, BuildingBlock: QUQFOY_clean_sbu_3, # of connection points: 4
#     Node 8, Type 0, BuildingBlock: QUQFOY_clean_sbu_3, # of connection points: 4
#     Node 9, Type 0, BuildingBlock: QUQFOY_clean_sbu_3, # of connection points: 4
#     Node 10, Type 0, BuildingBlock: QUQFOY_clean_sbu_3, # of connection points: 4
#     Node 11, Type 0, BuildingBlock: QUQFOY_clean_sbu_3, # of connection points: 4
#     Edge 12, Type (0, 0), BuildingBlock: XIVTED_clean_linker_0, # of connection points: 2
#     Edge 13, Type (0, 0), BuildingBlock: XIVTED_clean_linker_0, # of connection points: 2
#     Edge 14, Type (0, 0), BuildingBlock: XIVTED_clean_linker_0, # of connection points: 2
#     Edge 15, Type (0, 0), BuildingBlock: XIVTED_clean_linker_0, # of connection points: 2
#     Edge 16, Type (0, 0), BuildingBlock: XIVTED_clean_linker_0, # of connection points: 2
#     Edge 17, Type (0, 0), BuildingBlock: XIVTED_clean_linker_0, # of connection points: 2
#     Edge 18, Type (0, 0), BuildingBlock: XIVTED_clean_linker_0, # of connection points: 2
#     Edge 19, Type (0, 0), BuildingBlock: XIVTED_clean_linker_0, # of connection points: 2
#     Edge 20, Type (0, 0), BuildingBlock: XIVTED_clean_linker_0, # of connection points: 2
#     Edge 21, Type (0, 0), BuildingBlock: XIVTED_clean_linker_0, # of connection points: 2
#     Edge 22, Type (0, 0), BuildingBlock: XIVTED_clean_linker_0, # of connection points: 2
#     Edge 23, Type (0, 0), BuildingBlock: XIVTED_clean_linker_0, # of connection points: 2
#     Edge 24, Type (0, 0), BuildingBlock: XIVTED_clean_linker_0, # of connection points: 2
#     Edge 25, Type (0, 0), BuildingBlock: XIVTED_clean_linker_0, # of connection points: 2
#     Edge 26, Type (0, 0), BuildingBlock: XIVTED_clean_linker_0, # of connection points: 2
#     Edge 27, Type (0, 0), BuildingBlock: XIVTED_clean_linker_0, # of connection points: 2
#     Edge 28, Type (0, 0), BuildingBlock: XIVTED_clean_linker_0, # of connection points: 2
#     Edge 29, Type (0, 0), BuildingBlock: XIVTED_clean_linker_0, # of connection points: 2
#     Edge 30, Type (0, 0), BuildingBlock: XIVTED_clean_linker_0, # of connection points: 2
#     Edge 31, Type (0, 0), BuildingBlock: XIVTED_clean_linker_0, # of connection points: 2
#     Edge 32, Type (0, 0), BuildingBlock: XIVTED_clean_linker_0, # of connection points: 2
#     Edge 33, Type (0, 0), BuildingBlock: XIVTED_clean_linker_0, # of connection points: 2
#     Edge 34, Type (0, 0), BuildingBlock: XIVTED_clean_linker_0, # of connection points: 2
#     Edge 35, Type (0, 0), BuildingBlock: XIVTED_clean_linker_0, # of connection points: 2
# Relax obj value: 0.158
# Max RMSD: 0.152
# Mean RMSD: 0.152
data_MOF--net-uoq--node1-QUQFOY_clean_sbu_3--edge1-XIVTED_clean_linker_0
_symmetry_space_group_name_H-M    P1
_symmetry_Int_Tables_number       1
_symmetry_cell_setting            triclinic
loop_
_symmetry_equiv_pos_as_xyz
'x, y, z'
_cell_length_a     60.828136
_cell_length_b     60.893899
_cell_length_c     23.460252
_cell_angle_alpha  90.110308
_cell_angle_beta   89.923314
_cell_angle_gamma 120.08084
loop_
_atom_site_label
_atom_site_type_symbol
_atom_site_fract_x
_atom_site_fract_y
_atom_site_fract_z
_atom_type_partial_charge
C0 C 0.29411 0.39499 0.33867 0.0
O1 O 0.29103 0.40456 0.38392 0.0
Cd2 Cd 0.28974 0.44268 0.38648 0.0
O3 O 0.29588 0.40538 0.29029 0.0
Cd4 Cd 0.29379 0.44283 0.25262 0.0
C5 C 0.34738 0.48252 0.32116 0.0
O6 O 0.26074 0.4387 0.31389 0.0
O7 O 0.28428 0.47643 0.28094 0.0
O8 O 0.26552 0.41627 0.17698 0.0
C9 C 0.26398 0.46063 0.30587 0.0
O10 O 0.33323 0.47591 0.36525 0.0
C11 C 0.27457 0.43335 0.13895 0.0
O12 O 0.3385 0.47218 0.27294 0.0
O13 O 0.29427 0.45414 0.1522 0.0
C14 C 0.89019 0.29954 0.68276 0.0
O15 O 0.87721 0.2967 0.72732 0.0
Cd16 Cd 0.83746 0.29483 0.7271 0.0
O17 O 0.88176 0.3007 0.63364 0.0
Cd18 Cd 0.84213 0.29774 0.59349 0.0
C19 C 0.85544 0.35174 0.65897 0.0
O20 O 0.81303 0.2651 0.65495 0.0
O21 O 0.79875 0.28821 0.62022 0.0
O22 O 0.84082 0.26905 0.51931 0.0
C23 C 0.79424 0.26809 0.64579 0.0
O24 O 0.84757 0.338 0.70356 0.0
C25 C 0.83289 0.27779 0.48044 0.0
O26 O 0.85728 0.34248 0.61162 0.0
O27 O 0.83173 0.29754 0.49259 0.0
C28 C 0.58167 0.89315 0.01629 0.0
O29 O 0.57219 0.8808 0.06188 0.0
Cd30 Cd 0.53464 0.84083 0.06506 0.0
O31 O 0.57151 0.8839 0.96798 0.0
Cd32 Cd 0.53465 0.84345 0.9312 0.0
C33 C 0.49416 0.85691 -0.00263 0.0
O34 O 0.53978 0.81583 -0.00588 0.0
O35 O 0.50182 0.80015 0.96111 0.0
O36 O 0.56183 0.84215 0.85653 0.0
C37 C 0.51812 0.79657 0.98649 0.0
O38 O 0.50086 0.84997 0.04216 0.0
C39 C 0.54473 0.83314 0.81848 0.0
O40 O 0.50465 0.85811 0.9495 0.0
O41 O 0.52355 0.8313 0.83113 0.0
C42 C 0.67958 0.58322 0.33619 0.0
O43 O 0.6827 0.57335 0.38078 0.0
Cd44 Cd 0.68541 0.53599 0.38062 0.0
O45 O 0.67843 0.57352 0.28712 0.0
Cd46 Cd 0.68176 0.53702 0.24725 0.0
C47 C 0.62831 0.49577 0.31448 0.0
O48 O 0.71527 0.5422 0.30787 0.0
O49 O 0.69317 0.50448 0.27359 0.0
O50 O 0.70938 0.56435 0.17166 0.0
C51 C 0.71319 0.52081 0.29866 0.0
O52 O 0.64228 0.50208 0.35878 0.0
C53 C 0.7005 0.54743 0.13315 0.0
O54 O 0.63727 0.50673 0.26691 0.0
O55 O 0.68118 0.52633 0.14631 0.0
C56 C 0.08893 0.68952 0.67737 0.0
O57 O 0.10244 0.69343 0.72149 0.0
Cd58 Cd 0.1421 0.695 0.72066 0.0
O59 O 0.09688 0.68735 0.62839 0.0
Cd60 Cd 0.13621 0.69006 0.58717 0.0
C61 C 0.12363 0.63708 0.65615 0.0
O62 O 0.16612 0.72346 0.64629 0.0
O63 O 0.17978 0.69977 0.61159 0.0
O64 O 0.13693 0.71796 0.51217 0.0
C65 C 0.1847 0.72018 0.63659 0.0
O66 O 0.13177 0.65144 0.69985 0.0
C67 C 0.14407 0.7085 0.47309 0.0
O68 O 0.12142 0.64565 0.60827 0.0
O69 O 0.14509 0.68874 0.48572 0.0
C70 C 0.39342 0.09217 0.00092 0.0
O71 O 0.40309 0.10536 0.04548 0.0
Cd72 Cd 0.44103 0.14522 0.04535 0.0
O73 O 0.40355 0.10037 0.95209 0.0
Cd74 Cd 0.44055 0.13955 0.91171 0.0
C75 C 0.48092 0.12715 0.98169 0.0
O76 O 0.43674 0.16924 0.97086 0.0
O77 O 0.47421 0.18321 0.93628 0.0
O78 O 0.41319 0.13982 0.83658 0.0
C79 C 0.45859 0.18793 0.9613 0.0
O80 O 0.47447 0.1352 0.02517 0.0
C81 C 0.42983 0.14713 0.79756 0.0
O82 O 0.47028 0.1249 0.93354 0.0
O83 O 0.4508 0.14852 0.8103 0.0
C84 C 0.60394 0.6903 0.35922 0.0
O85 O 0.59798 0.69168 0.30805 0.0
Cd86 Cd 0.56191 0.69205 0.27332 0.0
O87 O 0.59075 0.69089 0.40112 0.0
Cd88 Cd 0.55359 0.69814 0.41245 0.0
C89 C 0.51544 0.64104 0.35112 0.0
O90 O 0.56154 0.72335 0.32989 0.0
O91 O 0.52382 0.70839 0.36275 0.0
O92 O 0.57494 0.73191 0.48285 0.0
C93 C 0.54004 0.72156 0.32514 0.0
O94 O 0.52602 0.65151 0.30409 0.0
C95 C 0.55619 0.7233 0.5169 0.0
O96 O 0.52267 0.65315 0.39821 0.0
O97 O 0.53706 0.70189 0.50459 0.0
C98 C 0.90534 0.60878 0.67977 0.0
O99 O 0.89964 0.60246 0.62794 0.0
Cd100 Cd 0.86398 0.5664 0.58959 0.0
O101 O 0.89015 0.5959 0.72006 0.0
Cd102 Cd 0.8457 0.55857 0.72679 0.0
C103 C 0.86637 0.5204 0.67314 0.0
O104 O 0.83048 0.56571 0.63962 0.0
O105 O 0.80668 0.52854 0.67436 0.0
O106 O 0.83174 0.57999 0.79353 0.0
C107 C 0.81077 0.54419 0.63467 0.0
O108 O 0.8677 0.53072 0.62503 0.0
C109 C 0.82106 0.56137 0.8277 0.0
O110 O 0.86031 0.52784 0.71836 0.0
O111 O 0.82354 0.54225 0.81706 0.0
C112 C 0.28799 0.90872 0.01202 0.0
O113 O 0.28768 0.90178 0.96082 0.0
Cd114 Cd 0.28741 0.86532 0.92604 0.0
O115 O 0.28631 0.89449 0.05383 0.0
Cd116 Cd 0.27895 0.85015 0.06494 0.0
C117 C 0.33703 0.86938 0.00834 0.0
O118 O 0.25532 0.83299 0.97992 0.0
O119 O 0.26958 0.81027 0.01614 0.0
O120 O 0.24412 0.83771 0.13246 0.0
C121 C 0.25731 0.81337 0.97649 0.0
O122 O 0.32731 0.86973 0.96043 0.0
C123 C 0.25212 0.82745 0.16757 0.0
O124 O 0.32421 0.86433 0.05445 0.0
O125 O 0.27362 0.82959 0.1571 0.0
C126 C 0.37045 0.28848 0.33612 0.0
O127 O 0.37721 0.28836 0.28495 0.0
Cd128 Cd 0.41376 0.28859 0.25063 0.0
O129 O 0.38302 0.28685 0.37796 0.0
Cd130 Cd 0.42034 0.28004 0.3895 0.0
C131 C 0.45901 0.33822 0.33375 0.0
O132 O 0.41432 0.25666 0.30421 0.0
O133 O 0.45132 0.27127 0.34106 0.0
O134 O 0.39827 0.24507 0.45669 0.0
C135 C 0.4361 0.25897 0.3011 0.0
O136 O 0.44908 0.32854 0.28567 0.0
C137 C 0.41653 0.25338 0.49201 0.0
O138 O 0.45118 0.32534 0.37969 0.0
O139 O 0.43567 0.27507 0.4818 0.0
C140 C 0.07351 0.37983 0.68395 0.0
O141 O 0.07977 0.38636 0.63246 0.0
Cd142 Cd 0.11575 0.42241 0.59587 0.0
O143 O 0.08818 0.39261 0.72512 0.0
Cd144 Cd 0.13266 0.43 0.73399 0.0
C145 C 0.11305 0.46865 0.67856 0.0
O146 O 0.14816 0.42217 0.64822 0.0
O147 O 0.17244 0.45938 0.68228 0.0
O148 O 0.14555 0.40809 0.80155 0.0
C149 C 0.16822 0.44338 0.64321 0.0
O150 O 0.11198 0.45819 0.6307 0.0
C151 C 0.15626 0.42665 0.83598 0.0
O152 O 0.11869 0.46121 0.72427 0.0
O153 O 0.15425 0.44601 0.82511 0.0
C154 C 0.68732 0.07724 0.02017 0.0
O155 O 0.68816 0.08423 0.96888 0.0
Cd156 Cd 0.6895 0.12101 0.93342 0.0
O157 O 0.68889 0.09157 0.06182 0.0
Cd158 Cd 0.69664 0.13611 0.07274 0.0
C159 C 0.63931 0.11755 0.01265 0.0
O160 O 0.72128 0.15281 0.98902 0.0
O161 O 0.70739 0.17623 0.02319 0.0
O162 O 0.73071 0.14831 0.14218 0.0
C163 C 0.71986 0.17271 0.9846 0.0
O164 O 0.64949 0.1171 0.96541 0.0
C165 C 0.72243 0.15861 0.17662 0.0
O166 O 0.65161 0.12247 0.05947 0.0
O167 O 0.70109 0.15659 0.1649 0.0
H168 H 0.30023 0.37372 0.43558 0.0
H169 H 0.33361 0.28203 0.26109 0.0
H170 H 0.29547 0.3652 0.25243 0.0
H171 H 0.3605 0.3082 0.4318 0.0
H172 H 0.30732 0.30173 0.2665 0.0
H173 H 0.3108 0.34005 0.44182 0.0
C174 C 0.30104 0.36455 0.39668 0.0
C175 C 0.29739 0.37261 0.3432 0.0
C176 C 0.31861 0.30277 0.30316 0.0
C177 C 0.30928 0.33396 0.3504 0.0
C178 C 0.33357 0.29147 0.30025 0.0
C179 C 0.34976 0.29406 0.34559 0.0
C180 C 0.31989 0.31682 0.35166 0.0
C181 C 0.34854 0.30603 0.39564 0.0
C182 C 0.30708 0.34533 0.40041 0.0
C183 C 0.29852 0.35988 0.29442 0.0
N184 N 0.33422 0.31745 0.39696 0.0
N185 N 0.30458 0.34132 0.29917 0.0
H186 H 0.91744 0.30783 0.78101 0.0
H187 H 0.04388 0.3412 0.61201 0.0
H188 H 0.92198 0.30018 0.59894 0.0
H189 H 0.04363 0.37107 0.77883 0.0
H190 H -0.00207 0.31398 0.61758 0.0
H191 H 0.96205 0.3196 0.78942 0.0
C192 C 0.92768 0.30825 0.74284 0.0
C193 C 0.91607 0.30343 0.68894 0.0
C194 C 0.00796 0.32614 0.65343 0.0
C195 C 0.967 0.31669 0.69864 0.0
C196 C 0.03419 0.34163 0.65043 0.0
C197 C 0.04747 0.35886 0.6945 0.0
C198 C -0.00512 0.32797 0.70071 0.0
C199 C 0.03406 0.35825 0.74368 0.0
C200 C 0.95314 0.31498 0.74781 0.0
C201 C 0.93025 0.30411 0.64117 0.0
N202 N 0.00832 0.34339 0.74503 0.0
N203 N 0.95506 0.31085 0.64711 0.0
H204 H 0.61166 0.92375 0.92972 0.0
H205 H 0.66705 0.04784 0.11596 0.0
H206 H 0.60168 0.92186 0.1123 0.0
H207 H 0.69286 0.0462 0.94532 0.0
H208 H 0.64702 0.00154 0.11984 0.0
H209 H 0.6447 0.96829 0.93704 0.0
C210 C 0.61658 0.93262 0.97138 0.0
C211 C 0.60363 0.91917 0.0203 0.0
C212 C 0.65754 0.01139 0.08202 0.0
C213 C 0.64126 0.97017 0.02907 0.0
C214 C 0.66908 0.03783 0.07995 0.0
C215 C 0.68107 0.05079 0.02976 0.0
C216 C 0.65791 -0.00199 0.0334 0.0
C217 C 0.68324 0.03689 0.9844 0.0
C218 C 0.63554 0.95803 0.97564 0.0
C219 C 0.61101 0.93156 0.07333 0.0
N220 N 0.67132 0.01123 0.98687 0.0
N221 N 0.62905 0.95648 0.0762 0.0
H222 H 0.67735 0.61312 0.25184 0.0
H223 H 0.64545 0.70466 0.29255 0.0
H224 H 0.67285 0.60329 0.43457 0.0
H225 H 0.60849 0.66188 0.44399 0.0
H226 H 0.67169 0.68481 0.28983 0.0
H227 H 0.66659 0.6464 0.26277 0.0
C228 C 0.67454 0.61828 0.29433 0.0
C229 C 0.67582 0.60526 0.34224 0.0
C230 C 0.65792 0.6798 0.32378 0.0
C231 C 0.66395 0.64376 0.35543 0.0
C232 C 0.6432 0.69138 0.32586 0.0
C233 C 0.62439 0.68439 0.3678 0.0
C234 C 0.65345 0.66078 0.36339 0.0
C235 C 0.62261 0.66756 0.4106 0.0
C236 C 0.6687 0.63755 0.30071 0.0
C237 C 0.67198 0.61276 0.39636 0.0
N238 N 0.63665 0.65589 0.40668 0.0
N239 N 0.66578 0.63121 0.40139 0.0
H240 H 0.93315 0.61731 0.77781 0.0
H241 H 0.06454 0.68858 0.77643 0.0
H242 H 0.93712 0.6466 0.60842 0.0
H243 H 0.05419 0.68153 0.59385 0.0
H244 H 0.02006 0.67663 0.78759 0.0
H245 H 0.9792 0.64391 0.78572 0.0
C246 C 0.94361 0.63001 0.74311 0.0
C247 C 0.9314 0.62939 0.692 0.0
C248 C 0.02747 0.67761 0.74514 0.0
C249 C 0.98405 0.65993 0.70052 0.0
C250 C 0.05296 0.68464 0.73859 0.0
C251 C 0.063 0.6855 0.68407 0.0
C252 C 0.01191 0.67133 0.69679 0.0
C253 C 0.04719 0.68068 0.6367 0.0
C254 C 0.96999 0.64527 0.74758 0.0
C255 C 0.94587 0.64612 0.6482 0.0
N256 N 0.02238 0.67359 0.64423 0.0
N257 N 0.97148 0.66028 0.653 0.0
H258 H 0.30857 0.93868 0.10702 0.0
H259 H 0.36219 0.06097 0.91666 0.0
H260 H 0.28124 0.93894 0.93747 0.0
H261 H 0.37422 0.06459 0.0986 0.0
H262 H 0.3289 0.01668 0.92644 0.0
H263 H 0.32834 0.98498 0.10979 0.0
C264 C 0.30612 0.94839 0.07108 0.0
C265 C 0.29382 0.93506 0.02142 0.0
C266 C 0.33855 0.02725 0.96439 0.0
C267 C 0.31668 0.98782 0.02377 0.0
C268 C 0.35766 0.05252 0.95872 0.0
C269 C 0.37126 0.06637 0.0067 0.0
C270 C 0.33335 0.01562 0.01829 0.0
C271 C 0.36436 0.05454 0.06033 0.0
C272 C 0.31751 0.97483 0.0725 0.0
C273 C 0.29112 0.94856 0.97611 0.0
N274 N 0.34618 0.02971 0.06457 0.0
N275 N 0.3029 0.97423 0.97792 0.0
H276 H 0.19024 0.46718 0.89937 0.0
H277 H 0.23493 0.39009 0.09386 0.0
H278 H 0.16044 0.38676 0.87707 0.0
H279 H 0.28047 0.47082 0.06596 0.0
H280 H 0.20587 0.38772 0.01876 0.0
H281 H 0.2209 0.46823 0.96808 0.0
C282 C 0.18992 0.44967 0.90945 0.0
C283 C 0.17271 0.42683 0.88253 0.0
C284 C 0.22243 0.40587 0.02858 0.0
C285 C 0.20796 0.42798 0.96072 0.0
C286 C 0.23909 0.40723 0.07118 0.0
C287 C 0.26014 0.4307 0.08626 0.0
C288 C 0.22661 0.42822 0.00167 0.0
C289 C 0.26454 0.45232 0.05564 0.0
C290 C 0.20763 0.45035 0.9482 0.0
C291 C 0.17336 0.40477 0.8969 0.0
N292 N 0.24771 0.45061 0.01539 0.0
N293 N 0.19066 0.40587 0.93518 0.0
H294 H 0.83653 0.23785 0.43761 0.0
H295 H 0.71521 0.1921 0.24006 0.0
H296 H 0.80155 0.28322 0.40576 0.0
H297 H 0.76635 0.16286 0.21939 0.0
H298 H 0.74447 0.2228 0.30936 0.0
H299 H 0.80998 0.20835 0.36277 0.0
C300 C 0.82363 0.24187 0.41413 0.0
C301 C 0.82122 0.26301 0.42799 0.0
C302 C 0.74926 0.20962 0.28975 0.0
C303 C 0.79034 0.22899 0.34376 0.0
C304 C 0.73243 0.19189 0.25067 0.0
C305 C 0.73833 0.17486 0.22395 0.0
C306 C 0.77204 0.21015 0.30282 0.0
C307 C 0.76106 0.17564 0.23903 0.0
C308 C 0.80841 0.22496 0.37169 0.0
C309 C 0.80411 0.26723 0.3964 0.0
N310 N 0.77708 0.19298 0.27761 0.0
N311 N 0.78906 0.25017 0.35635 0.0
H312 H 0.58874 0.83811 0.7746 0.0
H313 H 0.51506 0.71501 0.58035 0.0
H314 H 0.50779 0.79997 0.74606 0.0
H315 H 0.59525 0.7677 0.55975 0.0
H316 H 0.51277 0.7439 0.64935 0.0
H317 H 0.59229 0.81158 0.7007 0.0
C318 C 0.57179 0.8245 0.75204 0.0
C319 C 0.54792 0.82123 0.76655 0.0
C320 C 0.53088 0.74911 0.62983 0.0
C321 C 0.55177 0.79037 0.68334 0.0
C322 C 0.53227 0.73249 0.59093 0.0
C323 C 0.5554 0.73894 0.56429 0.0
C324 C 0.55282 0.77223 0.64276 0.0
C325 C 0.57704 0.76198 0.57932 0.0
C326 C 0.57382 0.80928 0.71014 0.0
C327 C 0.52658 0.80321 0.73615 0.0
N328 N 0.57524 0.7778 0.61766 0.0
N329 N 0.52896 0.78822 0.69655 0.0
H330 H 0.6939 0.51087 0.05623 0.0
H331 H 0.81673 0.60099 0.8705 0.0
H332 H 0.7402 0.59113 0.08986 0.0
H333 H 0.78625 0.52029 0.88809 0.0
H334 H 0.78534 0.59849 0.93989 0.0
H335 H 0.72317 0.51494 0.98006 0.0
C336 C 0.7099 0.52946 0.04679 0.0
C337 C 0.71471 0.55067 0.07969 0.0
C338 C 0.78565 0.58139 0.92865 0.0
C339 C 0.74842 0.55535 -0.00687 0.0
C340 C 0.80359 0.5828 0.88931 0.0
C341 C 0.80419 0.56083 0.87378 0.0
C342 C 0.76792 0.55777 0.95173 0.0
C343 C 0.78662 0.53774 0.89917 0.0
C344 C 0.72675 0.5317 0.00375 0.0
C345 C 0.73585 0.57426 0.0657 0.0
N346 N 0.76909 0.53678 0.93655 0.0
N347 N 0.75204 0.57596 0.02363 0.0
H348 H 0.17321 0.70098 0.39555 0.0
H349 H 0.2086 0.82421 0.21028 0.0
H350 H 0.14111 0.74878 0.43038 0.0
H351 H 0.2579 0.79275 0.22926 0.0
H352 H 0.17932 0.79329 0.27983 0.0
H353 H 0.19889 0.73006 0.31968 0.0
C354 C 0.17111 0.71727 0.3864 0.0
C355 C 0.1551 0.72255 0.41957 0.0
C356 C 0.19663 0.7933 0.26888 0.0
C357 C 0.1847 0.75604 0.3334 0.0
C358 C 0.21338 0.81098 0.22948 0.0
C359 C 0.23579 0.81114 0.21425 0.0
C360 C 0.20211 0.77538 0.29226 0.0
C361 C 0.24097 0.79346 0.24011 0.0
C362 C 0.18601 0.73401 0.34356 0.0
C363 C 0.15331 0.74406 0.40599 0.0
N364 N 0.22415 0.77616 0.27748 0.0
N365 N 0.16805 0.76012 0.36409 0.0
H366 H 0.46638 0.17676 0.72032 0.0
H367 H 0.37669 0.20938 0.53413 0.0
H368 H 0.38613 0.14306 0.7544 0.0
H369 H 0.45732 0.26011 0.55417 0.0
H370 H 0.37899 0.18051 0.60361 0.0
H371 H 0.46239 0.20197 0.64435 0.0
C372 C 0.4478 0.17421 0.71098 0.0
C373 C 0.42657 0.1579 0.74397 0.0
C374 C 0.39611 0.19804 0.5929 0.0
C375 C 0.42199 0.18693 0.6577 0.0
C376 C 0.39481 0.21456 0.55355 0.0
C377 C 0.41683 0.23725 0.53863 0.0
C378 C 0.41966 0.20406 0.61655 0.0
C379 C 0.43983 0.24294 0.56477 0.0
C380 C 0.44561 0.18884 0.66808 0.0
C381 C 0.403 0.15551 0.73016 0.0
N382 N 0.44069 0.22636 0.60208 0.0
N383 N 0.40135 0.17 0.68821 0.0
H384 H 0.15123 0.41891 0.54238 0.0
H385 H 0.28089 0.49951 0.38234 0.0
H386 H 0.214 0.4857 0.61747 0.0
H387 H 0.21313 0.43821 0.30772 0.0
H388 H 0.25523 0.50143 0.46094 0.0
H389 H 0.17186 0.43112 0.45059 0.0
C390 C 0.16945 0.43622 0.53955 0.0
C391 C 0.18113 0.45114 0.58778 0.0
C392 C 0.24586 0.48816 0.42637 0.0
C393 C 0.2052 0.46519 0.48217 0.0
C394 C 0.26044 0.48726 0.38135 0.0
C395 C 0.24891 0.46848 0.33941 0.0
C396 C 0.21983 0.47003 0.42884 0.0
C397 C 0.22257 0.45277 0.33989 0.0
C398 C 0.18118 0.44333 0.4868 0.0
C399 C 0.20456 0.47354 0.58126 0.0
N400 N 0.20893 0.45362 0.38453 0.0
N401 N 0.21612 0.47972 0.52938 0.0
H402 H 0.77363 0.28528 0.72481 0.0
H403 H 0.72996 0.15752 0.88419 0.0
H404 H 0.76461 0.21739 0.64551 0.0
H405 H 0.72071 0.21721 0.95924 0.0
H406 H 0.73723 0.17799 0.79251 0.0
H407 H 0.74725 0.25968 0.80475 0.0
C408 C 0.76502 0.26482 0.72308 0.0
C409 C 0.77131 0.25323 0.67939 0.0
C410 C 0.73341 0.18664 0.82869 0.0
C411 C 0.74213 0.22422 0.77038 0.0
C412 C 0.7295 0.17504 0.88139 0.0
C413 C 0.72502 0.18587 0.92955 0.0
C414 C 0.73357 0.20968 0.82401 0.0
C415 C 0.72438 0.20844 0.92309 0.0
C416 C 0.75024 0.25026 0.76887 0.0
C417 C 0.76022 0.22686 0.67899 0.0
N418 N 0.72903 0.21989 0.87124 0.0
N419 N 0.74651 0.21325 0.72445 0.0
H420 H 0.48013 0.77461 0.06504 0.0
H421 H 0.56631 0.73345 0.22593 0.0
H422 H 0.54155 0.7692 0.98794 0.0
H423 H 0.496 0.72166 0.29899 0.0
H424 H 0.55361 0.74146 0.13446 0.0
H425 H 0.48007 0.74857 0.14484 0.0
C426 C 0.49277 0.76691 0.0638 0.0
C427 C 0.51106 0.77406 0.02074 0.0
C428 C 0.54074 0.73694 0.17015 0.0
C429 C 0.51166 0.74525 0.1115 0.0
C430 C 0.54814 0.73261 0.22275 0.0
C431 C 0.5323 0.72718 0.2703 0.0
C432 C 0.51756 0.73654 0.16497 0.0
C433 C 0.50885 0.72606 0.26333 0.0
C434 C 0.49294 0.75231 0.10949 0.0
C435 C 0.52734 0.76412 0.02094 0.0
N436 N 0.5023 0.7311 0.2116 0.0
N437 N 0.52755 0.75054 0.06624 0.0
H438 H 0.69825 0.48208 0.37461 0.0
H439 H 0.8274 0.56804 0.53305 0.0
H440 H 0.76416 0.54524 0.29907 0.0
H441 H 0.76584 0.50086 0.60967 0.0
H442 H 0.80688 0.55452 0.44119 0.0
H443 H 0.72491 0.48192 0.45282 0.0
C444 C 0.71856 0.49512 0.37329 0.0
C445 C 0.72921 0.51389 0.33123 0.0
C446 C 0.79782 0.54253 0.4778 0.0
C447 C 0.75939 0.51438 0.42033 0.0
C448 C 0.80947 0.55039 0.53053 0.0
C449 C 0.79805 0.53575 0.57919 0.0
C450 C 0.77418 0.52015 0.47364 0.0
C451 C 0.77504 0.51284 0.57314 0.0
C452 C 0.7337 0.49524 0.41813 0.0
C453 C 0.75539 0.53064 0.33133 0.0
N454 N 0.76358 0.5059 0.52129 0.0
N455 N 0.76956 0.53078 0.37586 0.0
H456 H 0.21553 0.77076 0.63417 0.0
H457 H 0.25811 0.76948 0.95341 0.0
H458 H 0.20457 0.70283 0.71654 0.0
H459 H 0.24729 0.82744 0.87468 0.0
H460 H 0.25094 0.7484 0.86014 0.0
H461 H 0.24276 0.79595 0.71276 0.0
C462 C 0.21975 0.76132 0.66796 0.0
C463 C 0.20783 0.73488 0.66969 0.0
C464 C 0.2505 0.76591 0.86352 0.0
C465 C 0.23749 0.76313 0.76083 0.0
C466 C 0.25434 0.77778 0.91657 0.0
C467 C 0.25287 0.79997 0.92181 0.0
C468 C 0.24556 0.77663 0.81574 0.0
C469 C 0.24825 0.81017 0.87286 0.0
C470 C 0.23501 0.77559 0.71307 0.0
C471 C 0.21358 0.7233 0.71418 0.0
N472 N 0.24471 0.79838 0.82203 0.0
N473 N 0.22753 0.7375 0.7592 0.0
H474 H 0.4386 0.21851 0.95847 0.0
H475 H 0.4812 0.26042 0.27876 0.0
H476 H 0.49565 0.2079 0.04182 0.0
H477 H 0.41233 0.24904 0.19878 0.0
H478 H 0.49566 0.25381 0.18562 0.0
H479 H 0.44024 0.24551 0.03719 0.0
C480 C 0.4522 0.22277 0.9925 0.0
C481 C 0.46684 0.211 -0.00553 0.0
C482 C 0.47756 0.25312 0.1887 0.0
C483 C 0.46779 0.24037 0.08574 0.0
C484 C 0.46922 0.25665 0.24167 0.0
C485 C 0.44537 0.25485 0.24651 0.0
C486 C 0.46203 0.24817 0.14062 0.0
C487 C 0.43069 0.25024 0.19726 0.0
C488 C 0.45295 0.23788 0.03769 0.0
C489 C 0.4841 0.21679 0.03928 0.0
N490 N 0.43924 0.24701 0.14652 0.0
N491 N 0.4836 0.23059 0.08435 0.0
H492 H 0.38323 0.50404 0.23654 0.0
H493 H 0.48488 0.61313 0.44023 0.0
H494 H 0.37254 0.50807 0.41752 0.0
H495 H 0.49524 0.60959 0.25892 0.0
H496 H 0.44571 0.5721 0.43451 0.0
H497 H 0.42626 0.54026 0.24556 0.0
C498 C 0.38997 0.51239 0.27822 0.0
C499 C 0.37413 0.50313 0.32621 0.0
C500 C 0.45668 0.58022 0.39606 0.0
C501 C 0.42333 0.54464 0.33683 0.0
C502 C 0.47909 0.60364 0.39933 0.0
C503 C 0.49326 0.615 0.3499 0.0
C504 C 0.44834 0.5681 0.34298 0.0
C505 C 0.48484 0.60172 0.29811 0.0
C506 C 0.41455 0.53309 0.28336 0.0
C507 C 0.38396 0.51467 0.37921 0.0
N508 N 0.46284 0.5791 0.29595 0.0
N509 N 0.40784 0.53491 0.383 0.0
H510 H 0.86103 0.49009 0.76483 0.0
H511 H 0.87172 0.38712 0.57321 0.0
H512 H 0.87999 0.49989 0.58566 0.0
H513 H 0.8533 0.37744 0.75266 0.0
H514 H 0.87892 0.43029 0.57912 0.0
H515 H 0.86248 0.45071 0.76358 0.0
C516 C 0.86577 0.48414 0.72539 0.0
C517 C 0.8701 0.4982 0.67514 0.0
C518 C 0.87347 0.41877 0.61728 0.0
C519 C 0.8716 0.45305 0.67331 0.0
C520 C 0.86934 0.3941 0.61392 0.0
C521 C 0.86164 0.37851 0.66236 0.0
C522 C 0.8698 0.4279 0.6694 0.0
C523 C 0.85901 0.38867 0.71405 0.0
C524 C 0.86654 0.46161 0.72467 0.0
C525 C 0.87626 0.48957 0.62534 0.0
N526 N 0.8629 0.41264 0.7161 0.0
N527 N 0.8766 0.46746 0.6256 0.0
H528 H 0.4681 0.85681 0.09263 0.0
H529 H 0.37041 0.88261 0.91942 0.0
H530 H 0.47305 0.87083 0.91135 0.0
H531 H 0.36275 0.86416 0.09871 0.0
H532 H 0.41088 0.8835 0.9183 0.0
H533 H 0.43233 0.86423 0.09778 0.0
C534 C 0.46177 0.86158 0.05388 0.0
C535 C 0.47349 0.86295 0.00131 0.0
C536 C 0.40047 0.87945 0.958 0.0
C537 C 0.43243 0.87147 0.00707 0.0
C538 C 0.37733 0.87897 0.95876 0.0
C539 C 0.36296 0.873 0.00915 0.0
C540 C 0.40935 0.87385 0.00793 0.0
C541 C 0.37307 0.86869 0.05882 0.0
C542 C 0.44132 0.86583 0.05692 0.0
C543 C 0.46452 0.86939 0.95271 0.0
N544 N 0.39554 0.86897 0.05682 0.0
N545 N 0.44442 0.87325 0.95672 0.0
H546 H 0.59251 0.47603 0.22952 0.0
H547 H 0.48953 0.36403 0.42484 0.0
H548 H 0.6031 0.46823 0.40884 0.0
H549 H 0.47956 0.37155 0.24506 0.0
H550 H 0.5292 0.40473 0.42225 0.0
H551 H 0.54926 0.44012 0.23661 0.0
C552 C 0.58573 0.46688 0.27044 0.0
C553 C 0.60158 0.47504 0.31851 0.0
C554 C 0.5182 0.39756 0.3835 0.0
C555 C 0.55207 0.43388 0.32693 0.0
C556 C 0.49549 0.37434 0.38499 0.0
C557 C 0.48131 0.36418 0.33497 0.0
C558 C 0.52679 0.41066 0.33161 0.0
C559 C 0.48997 0.37848 0.2846 0.0
C560 C 0.561 0.44637 0.27449 0.0
C561 C 0.59166 0.4625 0.37051 0.0
N562 N 0.51223 0.40085 0.28412 0.0
N563 N 0.56761 0.44246 0.37324 0.0
H564 H 0.10658 0.60052 0.57272 0.0
H565 H 0.11912 0.50007 0.76885 0.0
H566 H 0.12691 0.61276 0.75101 0.0
H567 H 0.09898 0.48826 0.59042 0.0
H568 H 0.11774 0.53949 0.76584 0.0
H569 H 0.09963 0.55753 0.58089 0.0
C570 C 0.10944 0.59415 0.61367 0.0
C571 C 0.11759 0.6104 0.66109 0.0
C572 C 0.11341 0.52814 0.72749 0.0
C573 C 0.10972 0.56119 0.67073 0.0
C574 C 0.11413 0.50558 0.72923 0.0
C575 C 0.10944 0.49094 0.67967 0.0
C576 C 0.108 0.53612 0.67584 0.0
C577 C 0.103 0.49903 0.62958 0.0
C578 C 0.10545 0.56957 0.61832 0.0
C579 C 0.12083 0.601 0.71316 0.0
N580 N 0.10268 0.52115 0.62886 0.0
N581 N 0.11706 0.57709 0.71646 0.0
H582 H 0.61234 0.12207 0.10155 0.0
H583 H 0.50181 0.11142 0.89851 0.0
H584 H 0.60717 0.10499 0.92161 0.0
H585 H 0.50739 0.12952 0.07793 0.0
H586 H 0.53806 0.1048 0.90825 0.0
H587 H 0.57143 0.12048 0.09598 0.0
C588 C 0.60251 0.11773 0.06103 0.0
C589 C 0.61337 0.11394 0.01187 0.0
C590 C 0.53123 0.11006 0.94557 0.0
C591 C 0.56664 0.11225 0.00511 0.0
C592 C 0.51052 0.11384 0.94002 0.0
C593 C 0.50166 0.12128 0.98733 0.0
C594 C 0.54322 0.1138 -0.00123 0.0
C595 C 0.51366 0.124 0.04013 0.0
C596 C 0.57917 0.11688 0.05783 0.0
C597 C 0.59969 0.1083 0.96055 0.0
N598 N 0.53391 0.12043 0.04432 0.0
N599 N 0.57717 0.10783 0.95844 0.0
loop_
_geom_bond_atom_site_label_1
_geom_bond_atom_site_label_2
_geom_bond_distance
_geom_bond_site_symmetry_2
_ccdc_geom_bond_type
C0 O1 1.306 . S
C0 O3 1.160 . S
O1 C0 1.306 . S
O1 Cd2 2.228 . S
Cd2 O1 2.228 . S
Cd2 O6 2.273 . S
Cd2 O10 2.277 . S
O3 C0 1.160 . S
O3 Cd4 2.203 . S
Cd4 O3 2.203 . S
Cd4 O6 2.411 . S
Cd4 O7 2.333 . S
Cd4 O8 2.352 . S
Cd4 O12 2.277 . S
Cd4 O13 2.356 . S
C5 O10 1.209 . S
C5 O12 1.226 . S
O6 Cd2 2.273 . S
O6 Cd4 2.411 . S
O6 C9 1.320 . S
O7 Cd4 2.333 . S
O7 C9 1.214 . S
O8 Cd4 2.352 . S
O8 C11 1.258 . S
C9 O6 1.320 . S
C9 O7 1.214 . S
O10 Cd2 2.277 . S
O10 C5 1.209 . S
C11 O8 1.258 . S
C11 O13 1.282 . S
O12 Cd4 2.277 . S
O12 C5 1.226 . S
O13 Cd4 2.356 . S
O13 C11 1.282 . S
C14 O15 1.306 . S
C14 O17 1.160 . S
O15 C14 1.306 . S
O15 Cd16 2.228 . S
Cd16 O15 2.228 . S
Cd16 O20 2.273 . S
Cd16 O24 2.277 . S
O17 C14 1.160 . S
O17 Cd18 2.203 . S
Cd18 O17 2.203 . S
Cd18 O20 2.411 . S
Cd18 O21 2.333 . S
Cd18 O22 2.352 . S
Cd18 O26 2.277 . S
Cd18 O27 2.356 . S
C19 O24 1.209 . S
C19 O26 1.226 . S
O20 Cd16 2.273 . S
O20 Cd18 2.411 . S
O20 C23 1.320 . S
O21 Cd18 2.333 . S
O21 C23 1.214 . S
O22 Cd18 2.352 . S
O22 C25 1.258 . S
C23 O20 1.320 . S
C23 O21 1.214 . S
O24 Cd16 2.277 . S
O24 C19 1.209 . S
C25 O22 1.258 . S
C25 O27 1.282 . S
O26 Cd18 2.277 . S
O26 C19 1.226 . S
O27 Cd18 2.356 . S
O27 C25 1.282 . S
C28 O29 1.306 1_556 S
C28 O31 1.160 . S
O29 C28 1.306 1_554 S
O29 Cd30 2.228 . S
Cd30 O29 2.228 . S
Cd30 O34 2.273 . S
Cd30 O38 2.277 . S
O31 C28 1.160 . S
O31 Cd32 2.203 . S
Cd32 O31 2.203 . S
Cd32 O34 2.411 1_556 S
Cd32 O35 2.333 . S
Cd32 O36 2.352 . S
Cd32 O40 2.277 . S
Cd32 O41 2.356 . S
C33 O38 1.209 1_556 S
C33 O40 1.226 . S
O34 Cd30 2.273 . S
O34 Cd32 2.411 1_554 S
O34 C37 1.320 . S
O35 Cd32 2.333 . S
O35 C37 1.214 1_556 S
O36 Cd32 2.352 . S
O36 C39 1.258 . S
C37 O34 1.320 . S
C37 O35 1.214 1_554 S
O38 Cd30 2.277 . S
O38 C33 1.209 1_554 S
C39 O36 1.258 . S
C39 O41 1.282 . S
O40 Cd32 2.277 . S
O40 C33 1.226 . S
O41 Cd32 2.356 . S
O41 C39 1.282 . S
C42 O43 1.306 . S
C42 O45 1.160 . S
O43 C42 1.306 . S
O43 Cd44 2.228 . S
Cd44 O43 2.228 . S
Cd44 O48 2.273 . S
Cd44 O52 2.277 . S
O45 C42 1.160 . S
O45 Cd46 2.203 . S
Cd46 O45 2.203 . S
Cd46 O48 2.411 . S
Cd46 O49 2.333 . S
Cd46 O50 2.352 . S
Cd46 O54 2.277 . S
Cd46 O55 2.356 . S
C47 O52 1.209 . S
C47 O54 1.226 . S
O48 Cd44 2.273 . S
O48 Cd46 2.411 . S
O48 C51 1.320 . S
O49 Cd46 2.333 . S
O49 C51 1.214 . S
O50 Cd46 2.352 . S
O50 C53 1.258 . S
C51 O48 1.320 . S
C51 O49 1.214 . S
O52 Cd44 2.277 . S
O52 C47 1.209 . S
C53 O50 1.258 . S
C53 O55 1.282 . S
O54 Cd46 2.277 . S
O54 C47 1.226 . S
O55 Cd46 2.356 . S
O55 C53 1.282 . S
C56 O57 1.306 . S
C56 O59 1.160 . S
O57 C56 1.306 . S
O57 Cd58 2.228 . S
Cd58 O57 2.228 . S
Cd58 O62 2.273 . S
Cd58 O66 2.277 . S
O59 C56 1.160 . S
O59 Cd60 2.203 . S
Cd60 O59 2.203 . S
Cd60 O62 2.411 . S
Cd60 O63 2.333 . S
Cd60 O64 2.352 . S
Cd60 O68 2.277 . S
Cd60 O69 2.356 . S
C61 O66 1.209 . S
C61 O68 1.226 . S
O62 Cd58 2.273 . S
O62 Cd60 2.411 . S
O62 C65 1.320 . S
O63 Cd60 2.333 . S
O63 C65 1.214 . S
O64 Cd60 2.352 . S
O64 C67 1.258 . S
C65 O62 1.320 . S
C65 O63 1.214 . S
O66 Cd58 2.277 . S
O66 C61 1.209 . S
C67 O64 1.258 . S
C67 O69 1.282 . S
O68 Cd60 2.277 . S
O68 C61 1.226 . S
O69 Cd60 2.356 . S
O69 C67 1.282 . S
C70 O71 1.306 1_556 S
C70 O73 1.160 . S
O71 C70 1.306 1_554 S
O71 Cd72 2.228 . S
Cd72 O71 2.228 . S
Cd72 O76 2.273 . S
Cd72 O80 2.277 . S
O73 C70 1.160 . S
O73 Cd74 2.203 . S
Cd74 O73 2.203 . S
Cd74 O76 2.411 1_556 S
Cd74 O77 2.333 . S
Cd74 O78 2.352 . S
Cd74 O82 2.277 . S
Cd74 O83 2.356 . S
C75 O80 1.209 1_556 S
C75 O82 1.226 . S
O76 Cd72 2.273 . S
O76 Cd74 2.411 1_554 S
O76 C79 1.320 . S
O77 Cd74 2.333 . S
O77 C79 1.214 1_556 S
O78 Cd74 2.352 . S
O78 C81 1.258 . S
C79 O76 1.320 . S
C79 O77 1.214 1_554 S
O80 Cd72 2.277 . S
O80 C75 1.209 1_554 S
C81 O78 1.258 . S
C81 O83 1.282 . S
O82 Cd74 2.277 . S
O82 C75 1.226 . S
O83 Cd74 2.356 . S
O83 C81 1.282 . S
C84 O85 1.306 . S
C84 O87 1.160 . S
O85 C84 1.306 . S
O85 Cd86 2.228 . S
Cd86 O85 2.228 . S
Cd86 O90 2.273 . S
Cd86 O94 2.277 . S
O87 C84 1.160 . S
O87 Cd88 2.203 . S
Cd88 O87 2.203 . S
Cd88 O90 2.411 . S
Cd88 O91 2.333 . S
Cd88 O92 2.352 . S
Cd88 O96 2.277 . S
Cd88 O97 2.356 . S
C89 O94 1.209 . S
C89 O96 1.226 . S
O90 Cd86 2.273 . S
O90 Cd88 2.411 . S
O90 C93 1.320 . S
O91 Cd88 2.333 . S
O91 C93 1.214 . S
O92 Cd88 2.352 . S
O92 C95 1.258 . S
C93 O90 1.320 . S
C93 O91 1.214 . S
O94 Cd86 2.277 . S
O94 C89 1.209 . S
C95 O92 1.258 . S
C95 O97 1.282 . S
O96 Cd88 2.277 . S
O96 C89 1.226 . S
O97 Cd88 2.356 . S
O97 C95 1.282 . S
C98 O99 1.306 . S
C98 O101 1.160 . S
O99 C98 1.306 . S
O99 Cd100 2.228 . S
Cd100 O99 2.228 . S
Cd100 O104 2.273 . S
Cd100 O108 2.277 . S
O101 C98 1.160 . S
O101 Cd102 2.203 . S
Cd102 O101 2.203 . S
Cd102 O104 2.411 . S
Cd102 O105 2.333 . S
Cd102 O106 2.352 . S
Cd102 O110 2.277 . S
Cd102 O111 2.356 . S
C103 O108 1.209 . S
C103 O110 1.226 . S
O104 Cd100 2.273 . S
O104 Cd102 2.411 . S
O104 C107 1.320 . S
O105 Cd102 2.333 . S
O105 C107 1.214 . S
O106 Cd102 2.352 . S
O106 C109 1.258 . S
C107 O104 1.320 . S
C107 O105 1.214 . S
O108 Cd100 2.277 . S
O108 C103 1.209 . S
C109 O106 1.258 . S
C109 O111 1.282 . S
O110 Cd102 2.277 . S
O110 C103 1.226 . S
O111 Cd102 2.356 . S
O111 C109 1.282 . S
C112 O113 1.306 1_554 S
C112 O115 1.160 . S
O113 C112 1.306 1_556 S
O113 Cd114 2.228 . S
Cd114 O113 2.228 . S
Cd114 O118 2.273 . S
Cd114 O122 2.277 . S
O115 C112 1.160 . S
O115 Cd116 2.203 . S
Cd116 O115 2.203 . S
Cd116 O118 2.411 1_554 S
Cd116 O119 2.333 . S
Cd116 O120 2.352 . S
Cd116 O124 2.277 . S
Cd116 O125 2.356 . S
C117 O122 1.209 1_554 S
C117 O124 1.226 . S
O118 Cd114 2.273 . S
O118 Cd116 2.411 1_556 S
O118 C121 1.320 . S
O119 Cd116 2.333 . S
O119 C121 1.214 1_554 S
O120 Cd116 2.352 . S
O120 C123 1.258 . S
C121 O118 1.320 . S
C121 O119 1.214 1_556 S
O122 Cd114 2.277 . S
O122 C117 1.209 1_556 S
C123 O120 1.258 . S
C123 O125 1.282 . S
O124 Cd116 2.277 . S
O124 C117 1.226 . S
O125 Cd116 2.356 . S
O125 C123 1.282 . S
C126 O127 1.306 . S
C126 O129 1.160 . S
O127 C126 1.306 . S
O127 Cd128 2.228 . S
Cd128 O127 2.228 . S
Cd128 O132 2.273 . S
Cd128 O136 2.277 . S
O129 C126 1.160 . S
O129 Cd130 2.203 . S
Cd130 O129 2.203 . S
Cd130 O132 2.411 . S
Cd130 O133 2.333 . S
Cd130 O134 2.352 . S
Cd130 O138 2.277 . S
Cd130 O139 2.356 . S
C131 O136 1.209 . S
C131 O138 1.226 . S
O132 Cd128 2.273 . S
O132 Cd130 2.411 . S
O132 C135 1.320 . S
O133 Cd130 2.333 . S
O133 C135 1.214 . S
O134 Cd130 2.352 . S
O134 C137 1.258 . S
C135 O132 1.320 . S
C135 O133 1.214 . S
O136 Cd128 2.277 . S
O136 C131 1.209 . S
C137 O134 1.258 . S
C137 O139 1.282 . S
O138 Cd130 2.277 . S
O138 C131 1.226 . S
O139 Cd130 2.356 . S
O139 C137 1.282 . S
C140 O141 1.306 . S
C140 O143 1.160 . S
O141 C140 1.306 . S
O141 Cd142 2.228 . S
Cd142 O141 2.228 . S
Cd142 O146 2.273 . S
Cd142 O150 2.277 . S
O143 C140 1.160 . S
O143 Cd144 2.203 . S
Cd144 O143 2.203 . S
Cd144 O146 2.411 . S
Cd144 O147 2.333 . S
Cd144 O148 2.352 . S
Cd144 O152 2.277 . S
Cd144 O153 2.356 . S
C145 O150 1.209 . S
C145 O152 1.226 . S
O146 Cd142 2.273 . S
O146 Cd144 2.411 . S
O146 C149 1.320 . S
O147 Cd144 2.333 . S
O147 C149 1.214 . S
O148 Cd144 2.352 . S
O148 C151 1.258 . S
C149 O146 1.320 . S
C149 O147 1.214 . S
O150 Cd142 2.277 . S
O150 C145 1.209 . S
C151 O148 1.258 . S
C151 O153 1.282 . S
O152 Cd144 2.277 . S
O152 C145 1.226 . S
O153 Cd144 2.356 . S
O153 C151 1.282 . S
C154 O155 1.306 1_554 S
C154 O157 1.160 . S
O155 C154 1.306 1_556 S
O155 Cd156 2.228 . S
Cd156 O155 2.228 . S
Cd156 O160 2.273 . S
Cd156 O164 2.277 . S
O157 C154 1.160 . S
O157 Cd158 2.203 . S
Cd158 O157 2.203 . S
Cd158 O160 2.411 1_554 S
Cd158 O161 2.333 . S
Cd158 O162 2.352 . S
Cd158 O166 2.277 . S
Cd158 O167 2.356 . S
C159 O164 1.209 1_554 S
C159 O166 1.226 . S
O160 Cd156 2.273 . S
O160 Cd158 2.411 1_556 S
O160 C163 1.320 . S
O161 Cd158 2.333 . S
O161 C163 1.214 1_554 S
O162 Cd158 2.352 . S
O162 C165 1.258 . S
C163 O160 1.320 . S
C163 O161 1.214 1_556 S
O164 Cd156 2.277 . S
O164 C159 1.209 1_556 S
C165 O162 1.258 . S
C165 O167 1.282 . S
O166 Cd158 2.277 . S
O166 C159 1.226 . S
O167 Cd158 2.356 . S
O167 C165 1.282 . S
H168 C174 0.930 . S
H169 C178 0.930 . S
H170 C183 0.929 . S
H171 C181 0.929 . S
H172 C176 0.929 . S
H173 C182 0.929 . S
C174 H168 0.930 . S
C174 C175 1.367 . S
C174 C182 1.378 . S
C175 C174 1.367 . S
C175 C183 1.433 . S
C176 H172 0.929 . S
C176 C178 1.378 . S
C176 C180 1.350 . S
C177 C180 1.463 . S
C177 C182 1.350 . S
C177 N185 1.427 . S
C178 H169 0.930 . S
C178 C176 1.378 . S
C178 C179 1.367 . S
C179 C178 1.367 . S
C179 C181 1.433 . S
C180 C176 1.350 . S
C180 C177 1.463 . S
C180 N184 1.427 . S
C181 H171 0.929 . S
C181 C179 1.433 . S
C181 N184 1.384 . S
C182 H173 0.929 . S
C182 C174 1.378 . S
C182 C177 1.350 . S
C183 H170 0.929 . S
C183 C175 1.433 . S
C183 N185 1.384 . S
N184 C180 1.427 . S
N184 C181 1.384 . S
N185 C177 1.427 . S
N185 C183 1.384 . S
H186 C192 0.930 . S
H187 C196 0.930 . S
H188 C201 0.929 . S
H189 C199 0.929 . S
H190 C194 0.929 . S
H191 C200 0.929 . S
C192 H186 0.930 . S
C192 C193 1.367 . S
C192 C200 1.378 . S
C193 C192 1.367 . S
C193 C201 1.433 . S
C194 H190 0.929 . S
C194 C196 1.378 . S
C194 C198 1.350 . S
C195 C198 1.463 1_655 S
C195 C200 1.350 . S
C195 N203 1.427 . S
C196 H187 0.930 . S
C196 C194 1.378 . S
C196 C197 1.367 . S
C197 C196 1.367 . S
C197 C199 1.433 . S
C198 C194 1.350 . S
C198 C195 1.463 1_455 S
C198 N202 1.427 . S
C199 H189 0.929 . S
C199 C197 1.433 . S
C199 N202 1.384 . S
C200 H191 0.929 . S
C200 C192 1.378 . S
C200 C195 1.350 . S
C201 H188 0.929 . S
C201 C193 1.433 . S
C201 N203 1.384 . S
N202 C198 1.427 . S
N202 C199 1.384 . S
N203 C195 1.427 . S
N203 C201 1.384 . S
H204 C210 0.930 . S
H205 C214 0.930 . S
H206 C219 0.929 . S
H207 C217 0.929 . S
H208 C212 0.929 . S
H209 C218 0.929 . S
C210 H204 0.930 . S
C210 C211 1.367 . S
C210 C218 1.378 . S
C211 C210 1.367 . S
C211 C219 1.433 1_556 S
C212 H208 0.929 . S
C212 C214 1.378 . S
C212 C216 1.350 . S
C213 C216 1.463 1_566 S
C213 C218 1.350 . S
C213 N221 1.427 1_556 S
C214 H205 0.930 . S
C214 C212 1.378 . S
C214 C215 1.367 . S
C215 C214 1.367 . S
C215 C217 1.433 1_554 S
C216 C212 1.350 . S
C216 C213 1.463 1_544 S
C216 N220 1.427 1_554 S
C217 H207 0.929 . S
C217 C215 1.433 1_556 S
C217 N220 1.384 . S
C218 H209 0.929 . S
C218 C210 1.378 . S
C218 C213 1.350 . S
C219 H206 0.929 . S
C219 C211 1.433 1_554 S
C219 N221 1.384 . S
N220 C216 1.427 1_556 S
N220 C217 1.384 . S
N221 C213 1.427 1_554 S
N221 C219 1.384 . S
H222 C228 0.930 . S
H223 C232 0.930 . S
H224 C237 0.929 . S
H225 C235 0.929 . S
H226 C230 0.929 . S
H227 C236 0.929 . S
C228 H222 0.930 . S
C228 C229 1.367 . S
C228 C236 1.378 . S
C229 C228 1.367 . S
C229 C237 1.433 . S
C230 H226 0.929 . S
C230 C232 1.378 . S
C230 C234 1.350 . S
C231 C234 1.463 . S
C231 C236 1.350 . S
C231 N239 1.427 . S
C232 H223 0.930 . S
C232 C230 1.378 . S
C232 C233 1.367 . S
C233 C232 1.367 . S
C233 C235 1.433 . S
C234 C230 1.350 . S
C234 C231 1.463 . S
C234 N238 1.427 . S
C235 H225 0.929 . S
C235 C233 1.433 . S
C235 N238 1.384 . S
C236 H227 0.929 . S
C236 C228 1.378 . S
C236 C231 1.350 . S
C237 H224 0.929 . S
C237 C229 1.433 . S
C237 N239 1.384 . S
N238 C234 1.427 . S
N238 C235 1.384 . S
N239 C231 1.427 . S
N239 C237 1.384 . S
H240 C246 0.930 . S
H241 C250 0.930 . S
H242 C255 0.929 . S
H243 C253 0.929 . S
H244 C248 0.929 . S
H245 C254 0.929 . S
C246 H240 0.930 . S
C246 C247 1.367 . S
C246 C254 1.378 . S
C247 C246 1.367 . S
C247 C255 1.433 . S
C248 H244 0.929 . S
C248 C250 1.378 . S
C248 C252 1.350 . S
C249 C252 1.463 1_655 S
C249 C254 1.350 . S
C249 N257 1.427 . S
C250 H241 0.930 . S
C250 C248 1.378 . S
C250 C251 1.367 . S
C251 C250 1.367 . S
C251 C253 1.433 . S
C252 C248 1.350 . S
C252 C249 1.463 1_455 S
C252 N256 1.427 . S
C253 H243 0.929 . S
C253 C251 1.433 . S
C253 N256 1.384 . S
C254 H245 0.929 . S
C254 C246 1.378 . S
C254 C249 1.350 . S
C255 H242 0.929 . S
C255 C247 1.433 . S
C255 N257 1.384 . S
N256 C252 1.427 . S
N256 C253 1.384 . S
N257 C249 1.427 . S
N257 C255 1.384 . S
H258 C264 0.930 . S
H259 C268 0.930 . S
H260 C273 0.929 . S
H261 C271 0.929 . S
H262 C266 0.929 . S
H263 C272 0.929 . S
C264 H258 0.930 . S
C264 C265 1.367 . S
C264 C272 1.378 . S
C265 C264 1.367 . S
C265 C273 1.433 1_554 S
C266 H262 0.929 . S
C266 C268 1.378 . S
C266 C270 1.350 . S
C267 C270 1.463 1_564 S
C267 C272 1.350 . S
C267 N275 1.427 1_554 S
C268 H259 0.930 . S
C268 C266 1.378 . S
C268 C269 1.367 . S
C269 C268 1.367 . S
C269 C271 1.433 1_556 S
C270 C266 1.350 . S
C270 C267 1.463 1_546 S
C270 N274 1.427 1_556 S
C271 H261 0.929 . S
C271 C269 1.433 1_554 S
C271 N274 1.384 . S
C272 H263 0.929 . S
C272 C264 1.378 . S
C272 C267 1.350 . S
C273 H260 0.929 . S
C273 C265 1.433 1_556 S
C273 N275 1.384 . S
N274 C270 1.427 1_554 S
N274 C271 1.384 . S
N275 C267 1.427 1_556 S
N275 C273 1.384 . S
H276 C282 0.930 . S
H277 C286 0.930 . S
H278 C291 0.929 . S
H279 C289 0.929 . S
H280 C284 0.929 . S
H281 C290 0.929 . S
C282 H276 0.930 . S
C282 C283 1.367 . S
C282 C290 1.378 . S
C283 C282 1.367 . S
C283 C291 1.433 . S
C284 H280 0.929 . S
C284 C286 1.378 . S
C284 C288 1.350 . S
C285 C288 1.463 1_556 S
C285 C290 1.350 . S
C285 N293 1.427 . S
C286 H277 0.930 . S
C286 C284 1.378 . S
C286 C287 1.367 . S
C287 C286 1.367 . S
C287 C289 1.433 . S
C288 C284 1.350 . S
C288 C285 1.463 1_554 S
C288 N292 1.427 . S
C289 H279 0.929 . S
C289 C287 1.433 . S
C289 N292 1.384 . S
C290 H281 0.929 . S
C290 C282 1.378 . S
C290 C285 1.350 . S
C291 H278 0.929 . S
C291 C283 1.433 . S
C291 N293 1.384 . S
N292 C288 1.427 . S
N292 C289 1.384 . S
N293 C285 1.427 . S
N293 C291 1.384 . S
H294 C300 0.930 . S
H295 C304 0.930 . S
H296 C309 0.929 . S
H297 C307 0.929 . S
H298 C302 0.929 . S
H299 C308 0.929 . S
C300 H294 0.930 . S
C300 C301 1.367 . S
C300 C308 1.378 . S
C301 C300 1.367 . S
C301 C309 1.433 . S
C302 H298 0.929 . S
C302 C304 1.378 . S
C302 C306 1.350 . S
C303 C306 1.463 . S
C303 C308 1.350 . S
C303 N311 1.427 . S
C304 H295 0.930 . S
C304 C302 1.378 . S
C304 C305 1.367 . S
C305 C304 1.367 . S
C305 C307 1.433 . S
C306 C302 1.350 . S
C306 C303 1.463 . S
C306 N310 1.427 . S
C307 H297 0.929 . S
C307 C305 1.433 . S
C307 N310 1.384 . S
C308 H299 0.929 . S
C308 C300 1.378 . S
C308 C303 1.350 . S
C309 H296 0.929 . S
C309 C301 1.433 . S
C309 N311 1.384 . S
N310 C306 1.427 . S
N310 C307 1.384 . S
N311 C303 1.427 . S
N311 C309 1.384 . S
H312 C318 0.930 . S
H313 C322 0.930 . S
H314 C327 0.929 . S
H315 C325 0.929 . S
H316 C320 0.929 . S
H317 C326 0.929 . S
C318 H312 0.930 . S
C318 C319 1.367 . S
C318 C326 1.378 . S
C319 C318 1.367 . S
C319 C327 1.433 . S
C320 H316 0.929 . S
C320 C322 1.378 . S
C320 C324 1.350 . S
C321 C324 1.463 . S
C321 C326 1.350 . S
C321 N329 1.427 . S
C322 H313 0.930 . S
C322 C320 1.378 . S
C322 C323 1.367 . S
C323 C322 1.367 . S
C323 C325 1.433 . S
C324 C320 1.350 . S
C324 C321 1.463 . S
C324 N328 1.427 . S
C325 H315 0.929 . S
C325 C323 1.433 . S
C325 N328 1.384 . S
C326 H317 0.929 . S
C326 C318 1.378 . S
C326 C321 1.350 . S
C327 H314 0.929 . S
C327 C319 1.433 . S
C327 N329 1.384 . S
N328 C324 1.427 . S
N328 C325 1.384 . S
N329 C321 1.427 . S
N329 C327 1.384 . S
H330 C336 0.930 . S
H331 C340 0.930 . S
H332 C345 0.929 . S
H333 C343 0.929 . S
H334 C338 0.929 1_554 S
H335 C344 0.929 1_556 S
C336 H330 0.930 . S
C336 C337 1.367 . S
C336 C344 1.378 . S
C337 C336 1.367 . S
C337 C345 1.433 . S
C338 H334 0.929 1_556 S
C338 C340 1.378 . S
C338 C342 1.350 . S
C339 C342 1.463 1_554 S
C339 C344 1.350 . S
C339 N347 1.427 . S
C340 H331 0.930 . S
C340 C338 1.378 . S
C340 C341 1.367 . S
C341 C340 1.367 . S
C341 C343 1.433 . S
C342 C338 1.350 . S
C342 C339 1.463 1_556 S
C342 N346 1.427 . S
C343 H333 0.929 . S
C343 C341 1.433 . S
C343 N346 1.384 . S
C344 H335 0.929 1_554 S
C344 C336 1.378 . S
C344 C339 1.350 . S
C345 H332 0.929 . S
C345 C337 1.433 . S
C345 N347 1.384 . S
N346 C342 1.427 . S
N346 C343 1.384 . S
N347 C339 1.427 . S
N347 C345 1.384 . S
H348 C354 0.930 . S
H349 C358 0.930 . S
H350 C363 0.929 . S
H351 C361 0.929 . S
H352 C356 0.929 . S
H353 C362 0.929 . S
C354 H348 0.930 . S
C354 C355 1.367 . S
C354 C362 1.378 . S
C355 C354 1.367 . S
C355 C363 1.433 . S
C356 H352 0.929 . S
C356 C358 1.378 . S
C356 C360 1.350 . S
C357 C360 1.463 . S
C357 C362 1.350 . S
C357 N365 1.427 . S
C358 H349 0.930 . S
C358 C356 1.378 . S
C358 C359 1.367 . S
C359 C358 1.367 . S
C359 C361 1.433 . S
C360 C356 1.350 . S
C360 C357 1.463 . S
C360 N364 1.427 . S
C361 H351 0.929 . S
C361 C359 1.433 . S
C361 N364 1.384 . S
C362 H353 0.929 . S
C362 C354 1.378 . S
C362 C357 1.350 . S
C363 H350 0.929 . S
C363 C355 1.433 . S
C363 N365 1.384 . S
N364 C360 1.427 . S
N364 C361 1.384 . S
N365 C357 1.427 . S
N365 C363 1.384 . S
H366 C372 0.930 . S
H367 C376 0.930 . S
H368 C381 0.929 . S
H369 C379 0.929 . S
H370 C374 0.929 . S
H371 C380 0.929 . S
C372 H366 0.930 . S
C372 C373 1.367 . S
C372 C380 1.378 . S
C373 C372 1.367 . S
C373 C381 1.433 . S
C374 H370 0.929 . S
C374 C376 1.378 . S
C374 C378 1.350 . S
C375 C378 1.463 . S
C375 C380 1.350 . S
C375 N383 1.427 . S
C376 H367 0.930 . S
C376 C374 1.378 . S
C376 C377 1.367 . S
C377 C376 1.367 . S
C377 C379 1.433 . S
C378 C374 1.350 . S
C378 C375 1.463 . S
C378 N382 1.427 . S
C379 H369 0.929 . S
C379 C377 1.433 . S
C379 N382 1.384 . S
C380 H371 0.929 . S
C380 C372 1.378 . S
C380 C375 1.350 . S
C381 H368 0.929 . S
C381 C373 1.433 . S
C381 N383 1.384 . S
N382 C378 1.427 . S
N382 C379 1.384 . S
N383 C375 1.427 . S
N383 C381 1.384 . S
H384 C390 0.930 . S
H385 C394 0.930 . S
H386 C399 0.929 . S
H387 C397 0.929 . S
H388 C392 0.929 . S
H389 C398 0.929 . S
C390 H384 0.930 . S
C390 C391 1.367 . S
C390 C398 1.378 . S
C391 C390 1.367 . S
C391 C399 1.433 . S
C392 H388 0.929 . S
C392 C394 1.378 . S
C392 C396 1.350 . S
C393 C396 1.463 . S
C393 C398 1.350 . S
C393 N401 1.427 . S
C394 H385 0.930 . S
C394 C392 1.378 . S
C394 C395 1.367 . S
C395 C394 1.367 . S
C395 C397 1.433 . S
C396 C392 1.350 . S
C396 C393 1.463 . S
C396 N400 1.427 . S
C397 H387 0.929 . S
C397 C395 1.433 . S
C397 N400 1.384 . S
C398 H389 0.929 . S
C398 C390 1.378 . S
C398 C393 1.350 . S
C399 H386 0.929 . S
C399 C391 1.433 . S
C399 N401 1.384 . S
N400 C396 1.427 . S
N400 C397 1.384 . S
N401 C393 1.427 . S
N401 C399 1.384 . S
H402 C408 0.930 . S
H403 C412 0.930 . S
H404 C417 0.929 . S
H405 C415 0.929 . S
H406 C410 0.929 . S
H407 C416 0.929 . S
C408 H402 0.930 . S
C408 C409 1.367 . S
C408 C416 1.378 . S
C409 C408 1.367 . S
C409 C417 1.433 . S
C410 H406 0.929 . S
C410 C412 1.378 . S
C410 C414 1.350 . S
C411 C414 1.463 . S
C411 C416 1.350 . S
C411 N419 1.427 . S
C412 H403 0.930 . S
C412 C410 1.378 . S
C412 C413 1.367 . S
C413 C412 1.367 . S
C413 C415 1.433 . S
C414 C410 1.350 . S
C414 C411 1.463 . S
C414 N418 1.427 . S
C415 H405 0.929 . S
C415 C413 1.433 . S
C415 N418 1.384 . S
C416 H407 0.929 . S
C416 C408 1.378 . S
C416 C411 1.350 . S
C417 H404 0.929 . S
C417 C409 1.433 . S
C417 N419 1.384 . S
N418 C414 1.427 . S
N418 C415 1.384 . S
N419 C411 1.427 . S
N419 C417 1.384 . S
H420 C426 0.930 . S
H421 C430 0.930 . S
H422 C435 0.929 . S
H423 C433 0.929 . S
H424 C428 0.929 . S
H425 C434 0.929 . S
C426 H420 0.930 . S
C426 C427 1.367 . S
C426 C434 1.378 . S
C427 C426 1.367 . S
C427 C435 1.433 . S
C428 H424 0.929 . S
C428 C430 1.378 . S
C428 C432 1.350 . S
C429 C432 1.463 . S
C429 C434 1.350 . S
C429 N437 1.427 . S
C430 H421 0.930 . S
C430 C428 1.378 . S
C430 C431 1.367 . S
C431 C430 1.367 . S
C431 C433 1.433 . S
C432 C428 1.350 . S
C432 C429 1.463 . S
C432 N436 1.427 . S
C433 H423 0.929 . S
C433 C431 1.433 . S
C433 N436 1.384 . S
C434 H425 0.929 . S
C434 C426 1.378 . S
C434 C429 1.350 . S
C435 H422 0.929 . S
C435 C427 1.433 . S
C435 N437 1.384 . S
N436 C432 1.427 . S
N436 C433 1.384 . S
N437 C429 1.427 . S
N437 C435 1.384 . S
H438 C444 0.930 . S
H439 C448 0.930 . S
H440 C453 0.929 . S
H441 C451 0.929 . S
H442 C446 0.929 . S
H443 C452 0.929 . S
C444 H438 0.930 . S
C444 C445 1.367 . S
C444 C452 1.378 . S
C445 C444 1.367 . S
C445 C453 1.433 . S
C446 H442 0.929 . S
C446 C448 1.378 . S
C446 C450 1.350 . S
C447 C450 1.463 . S
C447 C452 1.350 . S
C447 N455 1.427 . S
C448 H439 0.930 . S
C448 C446 1.378 . S
C448 C449 1.367 . S
C449 C448 1.367 . S
C449 C451 1.433 . S
C450 C446 1.350 . S
C450 C447 1.463 . S
C450 N454 1.427 . S
C451 H441 0.929 . S
C451 C449 1.433 . S
C451 N454 1.384 . S
C452 H443 0.929 . S
C452 C444 1.378 . S
C452 C447 1.350 . S
C453 H440 0.929 . S
C453 C445 1.433 . S
C453 N455 1.384 . S
N454 C450 1.427 . S
N454 C451 1.384 . S
N455 C447 1.427 . S
N455 C453 1.384 . S
H456 C462 0.930 . S
H457 C466 0.930 . S
H458 C471 0.929 . S
H459 C469 0.929 . S
H460 C464 0.929 . S
H461 C470 0.929 . S
C462 H456 0.930 . S
C462 C463 1.367 . S
C462 C470 1.378 . S
C463 C462 1.367 . S
C463 C471 1.433 . S
C464 H460 0.929 . S
C464 C466 1.378 . S
C464 C468 1.350 . S
C465 C468 1.463 . S
C465 C470 1.350 . S
C465 N473 1.427 . S
C466 H457 0.930 . S
C466 C464 1.378 . S
C466 C467 1.367 . S
C467 C466 1.367 . S
C467 C469 1.433 . S
C468 C464 1.350 . S
C468 C465 1.463 . S
C468 N472 1.427 . S
C469 H459 0.929 . S
C469 C467 1.433 . S
C469 N472 1.384 . S
C470 H461 0.929 . S
C470 C462 1.378 . S
C470 C465 1.350 . S
C471 H458 0.929 . S
C471 C463 1.433 . S
C471 N473 1.384 . S
N472 C468 1.427 . S
N472 C469 1.384 . S
N473 C465 1.427 . S
N473 C471 1.384 . S
H474 C480 0.930 . S
H475 C484 0.930 . S
H476 C489 0.929 . S
H477 C487 0.929 . S
H478 C482 0.929 . S
H479 C488 0.929 . S
C480 H474 0.930 . S
C480 C481 1.367 . S
C480 C488 1.378 . S
C481 C480 1.367 . S
C481 C489 1.433 . S
C482 H478 0.929 . S
C482 C484 1.378 . S
C482 C486 1.350 . S
C483 C486 1.463 . S
C483 C488 1.350 . S
C483 N491 1.427 . S
C484 H475 0.930 . S
C484 C482 1.378 . S
C484 C485 1.367 . S
C485 C484 1.367 . S
C485 C487 1.433 . S
C486 C482 1.350 . S
C486 C483 1.463 . S
C486 N490 1.427 . S
C487 H477 0.929 . S
C487 C485 1.433 . S
C487 N490 1.384 . S
C488 H479 0.929 . S
C488 C480 1.378 . S
C488 C483 1.350 . S
C489 H476 0.929 . S
C489 C481 1.433 . S
C489 N491 1.384 . S
N490 C486 1.427 . S
N490 C487 1.384 . S
N491 C483 1.427 . S
N491 C489 1.384 . S
H492 C498 0.930 . S
H493 C502 0.930 . S
H494 C507 0.929 . S
H495 C505 0.929 . S
H496 C500 0.929 . S
H497 C506 0.929 . S
C498 H492 0.930 . S
C498 C499 1.367 . S
C498 C506 1.378 . S
C499 C498 1.367 . S
C499 C507 1.433 . S
C500 H496 0.929 . S
C500 C502 1.378 . S
C500 C504 1.350 . S
C501 C504 1.463 . S
C501 C506 1.350 . S
C501 N509 1.427 . S
C502 H493 0.930 . S
C502 C500 1.378 . S
C502 C503 1.367 . S
C503 C502 1.367 . S
C503 C505 1.433 . S
C504 C500 1.350 . S
C504 C501 1.463 . S
C504 N508 1.427 . S
C505 H495 0.929 . S
C505 C503 1.433 . S
C505 N508 1.384 . S
C506 H497 0.929 . S
C506 C498 1.378 . S
C506 C501 1.350 . S
C507 H494 0.929 . S
C507 C499 1.433 . S
C507 N509 1.384 . S
N508 C504 1.427 . S
N508 C505 1.384 . S
N509 C501 1.427 . S
N509 C507 1.384 . S
H510 C516 0.930 . S
H511 C520 0.930 . S
H512 C525 0.929 . S
H513 C523 0.929 . S
H514 C518 0.929 . S
H515 C524 0.929 . S
C516 H510 0.930 . S
C516 C517 1.367 . S
C516 C524 1.378 . S
C517 C516 1.367 . S
C517 C525 1.433 . S
C518 H514 0.929 . S
C518 C520 1.378 . S
C518 C522 1.350 . S
C519 C522 1.463 . S
C519 C524 1.350 . S
C519 N527 1.427 . S
C520 H511 0.930 . S
C520 C518 1.378 . S
C520 C521 1.367 . S
C521 C520 1.367 . S
C521 C523 1.433 . S
C522 C518 1.350 . S
C522 C519 1.463 . S
C522 N526 1.427 . S
C523 H513 0.929 . S
C523 C521 1.433 . S
C523 N526 1.384 . S
C524 H515 0.929 . S
C524 C516 1.378 . S
C524 C519 1.350 . S
C525 H512 0.929 . S
C525 C517 1.433 . S
C525 N527 1.384 . S
N526 C522 1.427 . S
N526 C523 1.384 . S
N527 C519 1.427 . S
N527 C525 1.384 . S
H528 C534 0.930 . S
H529 C538 0.930 . S
H530 C543 0.929 . S
H531 C541 0.929 . S
H532 C536 0.929 . S
H533 C542 0.929 . S
C534 H528 0.930 . S
C534 C535 1.367 1_554 S
C534 C542 1.378 . S
C535 C534 1.367 1_556 S
C535 C543 1.433 . S
C536 H532 0.929 . S
C536 C538 1.378 . S
C536 C540 1.342 1_556 S
C537 C540 1.462 1_556 S
C537 C542 1.342 1_556 S
C537 N545 1.437 . S
C538 H529 0.930 . S
C538 C536 1.378 . S
C538 C539 1.367 1_556 S
C539 C538 1.367 1_554 S
C539 C541 1.433 . S
C540 C536 1.342 1_554 S
C540 C537 1.462 1_554 S
C540 N544 1.437 . S
C541 H531 0.929 . S
C541 C539 1.433 . S
C541 N544 1.384 . S
C542 H533 0.929 . S
C542 C534 1.378 . S
C542 C537 1.342 1_554 S
C543 H530 0.929 . S
C543 C535 1.433 . S
C543 N545 1.384 . S
N544 C540 1.437 . S
N544 C541 1.384 . S
N545 C537 1.437 . S
N545 C543 1.384 . S
H546 C552 0.930 . S
H547 C556 0.930 . S
H548 C561 0.929 . S
H549 C559 0.929 . S
H550 C554 0.929 . S
H551 C560 0.929 . S
C552 H546 0.930 . S
C552 C553 1.367 . S
C552 C560 1.378 . S
C553 C552 1.367 . S
C553 C561 1.433 . S
C554 H550 0.929 . S
C554 C556 1.378 . S
C554 C558 1.350 . S
C555 C558 1.463 . S
C555 C560 1.350 . S
C555 N563 1.427 . S
C556 H547 0.930 . S
C556 C554 1.378 . S
C556 C557 1.367 . S
C557 C556 1.367 . S
C557 C559 1.433 . S
C558 C554 1.350 . S
C558 C555 1.463 . S
C558 N562 1.427 . S
C559 H549 0.929 . S
C559 C557 1.433 . S
C559 N562 1.384 . S
C560 H551 0.929 . S
C560 C552 1.378 . S
C560 C555 1.350 . S
C561 H548 0.929 . S
C561 C553 1.433 . S
C561 N563 1.384 . S
N562 C558 1.427 . S
N562 C559 1.384 . S
N563 C555 1.427 . S
N563 C561 1.384 . S
H564 C570 0.930 . S
H565 C574 0.930 . S
H566 C579 0.929 . S
H567 C577 0.929 . S
H568 C572 0.929 . S
H569 C578 0.929 . S
C570 H564 0.930 . S
C570 C571 1.367 . S
C570 C578 1.378 . S
C571 C570 1.367 . S
C571 C579 1.433 . S
C572 H568 0.929 . S
C572 C574 1.378 . S
C572 C576 1.350 . S
C573 C576 1.463 . S
C573 C578 1.350 . S
C573 N581 1.427 . S
C574 H565 0.930 . S
C574 C572 1.378 . S
C574 C575 1.367 . S
C575 C574 1.367 . S
C575 C577 1.433 . S
C576 C572 1.350 . S
C576 C573 1.463 . S
C576 N580 1.427 . S
C577 H567 0.929 . S
C577 C575 1.433 . S
C577 N580 1.384 . S
C578 H569 0.929 . S
C578 C570 1.378 . S
C578 C573 1.350 . S
C579 H566 0.929 . S
C579 C571 1.433 . S
C579 N581 1.384 . S
N580 C576 1.427 . S
N580 C577 1.384 . S
N581 C573 1.427 . S
N581 C579 1.384 . S
H582 C588 0.930 . S
H583 C592 0.930 . S
H584 C597 0.929 . S
H585 C595 0.929 . S
H586 C590 0.929 . S
H587 C596 0.929 . S
C588 H582 0.930 . S
C588 C589 1.367 . S
C588 C596 1.378 . S
C589 C588 1.367 . S
C589 C597 1.433 1_554 S
C590 H586 0.929 . S
C590 C592 1.378 . S
C590 C594 1.350 . S
C591 C594 1.463 1_554 S
C591 C596 1.350 . S
C591 N599 1.427 1_554 S
C592 H583 0.930 . S
C592 C590 1.378 . S
C592 C593 1.367 . S
C593 C592 1.367 . S
C593 C595 1.433 1_556 S
C594 C590 1.350 . S
C594 C591 1.463 1_556 S
C594 N598 1.427 1_556 S
C595 H585 0.929 . S
C595 C593 1.433 1_554 S
C595 N598 1.384 . S
C596 H587 0.929 . S
C596 C588 1.378 . S
C596 C591 1.350 . S
C597 H584 0.929 . S
C597 C589 1.433 1_556 S
C597 N599 1.384 . S
N598 C594 1.427 1_554 S
N598 C595 1.384 . S
N599 C591 1.427 1_556 S
N599 C597 1.384 . S
C175 C0 1.352 . S
C179 C126 1.357 . S
C193 C14 1.353 . S
C197 C140 1.352 . S
C211 C28 1.365 . S
C215 C154 1.369 . S
C229 C42 1.357 . S
C233 C84 1.363 . S
C247 C98 1.357 . S
C251 C56 1.363 . S
C265 C112 1.366 . S
C269 C70 1.369 . S
C283 C151 1.755 . S
C287 C11 1.758 . S
C301 C25 1.761 . S
C305 C165 1.758 . S
C319 C39 1.762 . S
C323 C95 1.754 . S
C337 C53 1.757 . S
C341 C109 1.761 . S
C355 C67 1.756 . S
C359 C123 1.762 . S
C373 C81 1.753 . S
C377 C137 1.761 . S
C391 C149 0.961 . S
C395 C9 0.960 . S
C409 C23 0.960 . S
C413 C163 0.961 . S
C427 C37 0.960 . S
C431 C93 0.961 . S
C445 C51 0.960 . S
C449 C107 0.961 . S
C463 C65 0.961 . S
C467 C121 0.960 . S
C481 C79 0.959 . S
C485 C135 0.958 . S
C499 C5 1.643 . S
C503 C89 1.642 . S
C517 C103 1.641 . S
C521 C19 1.641 . S
C535 C33 1.644 . S
C539 C117 1.644 . S
C553 C47 1.641 . S
C557 C131 1.641 . S
C571 C61 1.641 . S
C575 C145 1.641 . S
C589 C159 1.642 . S
C593 C75 1.641 . S
