# Generated by pormake.
# Topology qtz-e, (6)-cn, num edge types: 1
# Building blocks:
#     Node 0, Type 0, BuildingBlock: GEDQOX_clean_sbu_0, # of connection points: 6
#     Node 1, Type 0, BuildingBlock: GEDQOX_clean_sbu_0, # of connection points: 6
#     Node 2, Type 0, BuildingBlock: GEDQOX_clean_sbu_0, # of connection points: 6
#     Node 3, Type 0, BuildingBlock: GEDQOX_clean_sbu_0, # of connection points: 6
#     Node 4, Type 0, BuildingBlock: GEDQOX_clean_sbu_0, # of connection points: 6
#     Node 5, Type 0, BuildingBlock: GEDQOX_clean_sbu_0, # of connection points: 6
#     Edge 6, Type (0, 0), BuildingBlock: TEMPAE_clean_linker_10, # of connection points: 2
#     Edge 7, Type (0, 0), BuildingBlock: TEMPAE_clean_linker_10, # of connection points: 2
#     Edge 8, Type (0, 0), BuildingBlock: TEMPAE_clean_linker_10, # of connection points: 2
#     Edge 9, Type (0, 0), BuildingBlock: TEMPAE_clean_linker_10, # of connection points: 2
#     Edge 10, Type (0, 0), BuildingBlock: TEMPAE_clean_linker_10, # of connection points: 2
#     Edge 11, Type (0, 0), BuildingBlock: TEMPAE_clean_linker_10, # of connection points: 2
#     Edge 12, Type (0, 0), BuildingBlock: TEMPAE_clean_linker_10, # of connection points: 2
#     Edge 13, Type (0, 0), BuildingBlock: TEMPAE_clean_linker_10, # of connection points: 2
#     Edge 14, Type (0, 0), BuildingBlock: TEMPAE_clean_linker_10, # of connection points: 2
#     Edge 15, Type (0, 0), BuildingBlock: TEMPAE_clean_linker_10, # of connection points: 2
#     Edge 16, Type (0, 0), BuildingBlock: TEMPAE_clean_linker_10, # of connection points: 2
#     Edge 17, Type (0, 0), BuildingBlock: TEMPAE_clean_linker_10, # of connection points: 2
#     Edge 18, Type (0, 0), BuildingBlock: TEMPAE_clean_linker_10, # of connection points: 2
#     Edge 19, Type (0, 0), BuildingBlock: TEMPAE_clean_linker_10, # of connection points: 2
#     Edge 20, Type (0, 0), BuildingBlock: TEMPAE_clean_linker_10, # of connection points: 2
#     Edge 21, Type (0, 0), BuildingBlock: TEMPAE_clean_linker_10, # of connection points: 2
#     Edge 22, Type (0, 0), BuildingBlock: TEMPAE_clean_linker_10, # of connection points: 2
#     Edge 23, Type (0, 0), BuildingBlock: TEMPAE_clean_linker_10, # of connection points: 2
# Relax obj value: 0.085
# Max RMSD: 0.171
# Mean RMSD: 0.171
data_MOF--net-qtz-e--node1-GEDQOX_clean_sbu_0--edge1-TEMPAE_clean_linker_10
_symmetry_space_group_name_H-M    P1
_symmetry_Int_Tables_number       1
_symmetry_cell_setting            triclinic
loop_
_symmetry_equiv_pos_as_xyz
'x, y, z'
_cell_length_a     26.262521
_cell_length_b     26.313294
_cell_length_c     52.803451
_cell_angle_alpha  89.983624
_cell_angle_beta   90.237533
_cell_angle_gamma 119.95558
loop_
_atom_site_label
_atom_site_type_symbol
_atom_site_fract_x
_atom_site_fract_y
_atom_site_fract_z
_atom_type_partial_charge
Nd0 Nd 0.15468 0.36107 0.05491 0.0
Nd1 Nd 0.26023 0.47947 0.04078 0.0
C2 C 0.05798 0.27861 0.07681 0.0
C3 C 0.0351 0.2684 0.10326 0.0
C4 C 0.98837 0.27757 0.10965 0.0
C5 C 0.96731 0.26934 0.13456 0.0
C6 C 0.99216 0.25134 0.15381 0.0
C7 C 0.03885 0.24202 0.14735 0.0
C8 C 0.06 0.2504 0.12247 0.0
C9 C 0.26394 0.3781 0.06668 0.0
C10 C 0.20679 0.47203 0.09584 0.0
C11 C 0.3627 0.56046 0.02283 0.0
C12 C 0.38597 0.57822 0.99688 0.0
C13 C 0.37885 0.53632 0.97858 0.0
C14 C 0.39513 0.55294 0.95342 0.0
C15 C 0.41875 0.6118 0.94593 0.0
C16 C 0.42769 0.65391 0.96449 0.0
C17 C 0.41146 0.63725 0.98969 0.0
C18 C 0.15632 0.47368 0.03074 0.0
C19 C 0.2038 0.36785 0.99902 0.0
O20 O 0.06031 0.32323 0.06475 0.0
O21 O 0.10394 0.27297 0.07241 0.0
O22 O 0.22386 0.3299 0.05619 0.0
O23 O 0.24546 0.41294 0.06975 0.0
O24 O 0.16057 0.42429 0.08684 0.0
O25 O 0.25637 0.49866 0.08289 0.0
O26 O 0.35261 0.50888 0.03055 0.0
O27 O 0.32107 0.57145 0.02927 0.0
O28 O 0.20326 0.52075 0.03824 0.0
O29 O 0.16547 0.43134 0.02694 0.0
O30 O 0.24827 0.41893 1.00656 0.0
O31 O 0.15707 0.33724 1.01338 0.0
H32 H 0.96824 0.29154 0.09537 0.0
H33 H 0.93196 0.27789 0.13878 0.0
H34 H 0.05869 0.22741 0.16148 0.0
H35 H 0.09599 0.24276 0.11834 0.0
H36 H 0.35944 0.49042 0.98352 0.0
H37 H 0.38856 0.51948 0.93976 0.0
H38 H 0.44523 0.69951 0.9594 0.0
H39 H 0.41718 0.67029 1.00343 0.0
Nd40 Nd 0.77978 0.15835 0.38711 0.0
Nd41 Nd 0.78045 0.27122 0.37328 0.0
C42 C 0.75613 0.05787 0.40887 0.0
C43 C 0.74025 0.03299 0.43502 0.0
C44 C 0.68679 0.0205 0.4464 0.0
C45 C 0.67327 -0.00173 0.47119 0.0
C46 C 0.71277 0.98791 0.48538 0.0
C47 C 0.7659 -0.00014 0.47381 0.0
C48 C 0.77933 0.02194 0.44903 0.0
C49 C 0.87715 0.26214 0.40105 0.0
C50 C 0.72452 0.21598 0.42659 0.0
C51 C 0.81111 0.37664 0.35585 0.0
C52 C 0.81782 0.40134 0.32999 0.0
C53 C 0.86662 0.41336 0.31488 0.0
C54 C 0.86983 0.43182 0.28979 0.0
C55 C 0.82419 0.4382 0.27913 0.0
C56 C 0.77655 0.42833 0.29454 0.0
C57 C 0.77358 0.41041 0.31969 0.0
C58 C 0.67863 0.17402 0.36024 0.0
C59 C 0.83163 0.21025 0.33238 0.0
O60 O 0.71718 0.06486 0.39612 0.0
O61 O 0.80959 0.10154 0.40562 0.0
O62 O 0.88138 0.22034 0.39002 0.0
O63 O 0.82463 0.24837 0.40329 0.0
O64 O 0.72028 0.16768 0.41688 0.0
O65 O 0.75535 0.2669 0.415 0.0
O66 O 0.84933 0.36125 0.36302 0.0
O67 O 0.75746 0.33896 0.36287 0.0
O68 O 0.68222 0.22248 0.36789 0.0
O69 O 0.72856 0.17819 0.3579 0.0
O70 O 0.83191 0.25771 0.34094 0.0
O71 O 0.80705 0.16077 0.34554 0.0
H72 H 0.65538 0.02821 0.43625 0.0
H73 H 0.63213 0.99006 0.47936 0.0
H74 H 0.79709 0.99156 0.48381 0.0
H75 H 0.82061 0.03056 0.4408 0.0
H76 H 0.90194 0.40755 0.32224 0.0
H77 H 0.90789 0.44074 0.27864 0.0
H78 H 0.74049 0.43256 0.28693 0.0
H79 H 0.73568 0.40202 0.33088 0.0
Nd80 Nd 0.61239 0.7792 0.72003 0.0
Nd81 Nd 0.50438 0.78922 0.7086 0.0
C82 C 0.68292 0.74715 0.7418 0.0
C83 C 0.69139 0.73621 0.76888 0.0
C84 C 0.6789 0.6801 0.77676 0.0
C85 C 0.68466 0.66878 0.80233 0.0
C86 C 0.70324 0.71333 0.82081 0.0
C87 C 0.71558 0.76947 0.81283 0.0
C88 C 0.70964 0.7807 0.78731 0.0
C89 C 0.61594 0.88096 0.73499 0.0
C90 C 0.50437 0.7336 0.76197 0.0
C91 C 0.43506 0.82507 0.68968 0.0
C92 C 0.42329 0.8314 0.66273 0.0
C93 C 0.46965 0.86545 0.64603 0.0
C94 C 0.46002 0.86225 0.61986 0.0
C95 C 0.40364 0.8253 0.6098 0.0
C96 C 0.35667 0.79413 0.62666 0.0
C97 C 0.36645 0.79703 0.65282 0.0
C98 C 0.49001 0.68342 0.69598 0.0
C99 C 0.61204 0.83164 0.66591 0.0
O100 O 0.63273 0.70962 0.7313 0.0
O101 O 0.70015 0.80135 0.7352 0.0
O102 O 0.6592 0.88152 0.72296 0.0
O103 O 0.57479 0.82983 0.73751 0.0
O104 O 0.54452 0.72484 0.751 0.0
O105 O 0.48603 0.76679 0.75088 0.0
O106 O 0.48801 0.86132 0.69825 0.0
O107 O 0.4153 0.77116 0.69737 0.0
O108 O 0.4486 0.69105 0.70505 0.0
O109 O 0.53722 0.73129 0.69232 0.0
O110 O 0.57038 0.83916 0.67621 0.0
O111 O 0.63236 0.80088 0.6777 0.0
H112 H 0.66414 0.64469 0.76313 0.0
H113 H 0.6737 0.62473 0.80764 0.0
H114 H 0.7307 0.80525 0.82626 0.0
H115 H 0.71926 0.82441 0.7821 0.0
H116 H 0.5139 0.89287 0.65307 0.0
H117 H 0.49722 0.88693 0.60751 0.0
H118 H 0.31236 0.7665 0.61962 0.0
H119 H 0.32991 0.77057 0.66525 0.0
Nd120 Nd 0.81852 0.64336 0.05933 0.0
Nd121 Nd 0.72918 0.51725 0.04163 0.0
C122 C 0.90234 0.73254 0.08499 0.0
C123 C 0.92826 0.73655 0.11074 0.0
C124 C 0.97381 0.72382 0.11474 0.0
C125 C -0.00443 0.72503 0.13926 0.0
C126 C 0.97215 0.73858 0.16049 0.0
C127 C 0.92709 0.75187 0.15641 0.0
C128 C 0.90575 0.75118 0.13195 0.0
C129 C 0.70162 0.60312 0.06808 0.0
C130 C 0.79095 0.53032 0.09654 0.0
C131 C 0.63895 0.41707 0.02724 0.0
C132 C 0.61439 0.39847 1.00145 0.0
C133 C 0.60586 0.43687 0.98577 0.0
C134 C 0.59116 0.42359 0.96026 0.0
C135 C 0.58427 0.37146 0.94983 0.0
C136 C 0.59025 0.33178 0.96572 0.0
C137 C 0.60549 0.34535 0.99131 0.0
C138 C 0.83929 0.56259 0.02097 0.0
C139 C 0.76035 0.62824 1.00423 0.0
O140 O 0.91362 0.70498 0.06711 0.0
O141 O 0.84769 0.72064 0.08439 0.0
O142 O 0.73611 0.65516 0.05899 0.0
O143 O 0.72901 0.57627 0.0713 0.0
O144 O 0.82218 0.58705 0.09175 0.0
O145 O 0.75002 0.49305 0.08073 0.0
O146 O 0.63323 0.45965 0.03719 0.0
O147 O 0.69131 0.42349 0.03098 0.0
O148 O 0.79082 0.53097 1.00856 0.0
O149 O 0.82798 0.56876 0.04355 0.0
O150 O 0.71772 0.57859 1.01379 0.0
O151 O 0.81055 0.65989 1.0168 0.0
H152 H -0.00771 0.71226 0.09897 0.0
H153 H 0.03 0.71415 0.14164 0.0
H154 H 0.90859 0.76348 0.17216 0.0
H155 H 0.87102 0.76168 0.1297 0.0
H156 H 0.61221 0.47812 0.993 0.0
H157 H 0.58592 0.45453 0.94858 0.0
H158 H 0.58541 0.29133 0.95815 0.0
H159 H 0.61224 0.31529 1.00295 0.0
Nd160 Nd 0.17922 0.81602 0.39483 0.0
Nd161 Nd 0.2175 0.72909 0.37332 0.0
C162 C 0.17783 0.90214 0.42059 0.0
C163 C 0.20232 0.93164 0.44532 0.0
C164 C 0.24811 0.92778 0.45739 0.0
C165 C 0.26728 0.95117 0.48174 0.0
C166 C 0.24222 0.98046 0.49434 0.0
C167 C 0.19779 0.98608 0.48188 0.0
C168 C 0.17768 0.96141 0.45774 0.0
C169 C 0.10374 0.6986 0.40116 0.0
C170 C 0.2638 0.78134 0.42983 0.0
C171 C 0.2269 0.63983 0.35695 0.0
C172 C 0.21928 0.61435 0.33127 0.0
C173 C 0.16832 0.59921 0.31694 0.0
C174 C 0.16374 0.58069 0.29182 0.0
C175 C 0.21005 0.57708 0.28034 0.0
C176 C 0.26035 0.59073 0.29491 0.0
C177 C 0.26487 0.60916 0.32012 0.0
C178 C 0.27954 0.8416 0.35533 0.0
C179 C 0.13485 0.76316 0.33872 0.0
O180 O 0.2153 0.91121 0.40242 0.0
O181 O 0.13598 0.84733 0.42178 0.0
O182 O 0.08491 0.73414 0.39462 0.0
O183 O 0.15822 0.72554 0.40374 0.0
O184 O 0.23355 0.80884 0.42726 0.0
O185 O 0.26635 0.74798 0.41165 0.0
O186 O 0.17921 0.63369 0.36773 0.0
O187 O 0.27279 0.69229 0.36024 0.0
O188 O 0.26472 0.79542 0.34156 0.0
O189 O 0.26249 0.82683 0.37776 0.0
O190 O 0.14427 0.72042 0.34622 0.0
O191 O 0.15194 0.81092 0.35279 0.0
H192 H 0.26893 0.90635 0.44813 0.0
H193 H 0.30205 0.94669 0.49067 0.0
H194 H 0.1775 0.00823 0.49109 0.0
H195 H 0.1423 0.96499 0.4489 0.0
H196 H 0.13229 0.60276 0.32491 0.0
H197 H 0.124 0.56957 0.28132 0.0
H198 H 0.29707 0.58897 0.28661 0.0
H199 H 0.30469 0.62089 0.3307 0.0
Nd200 Nd 0.37518 0.19007 0.72774 0.0
Nd201 Nd 0.49951 0.21912 0.71047 0.0
C202 C 0.28584 0.19305 0.74953 0.0
C203 C 0.27478 0.21024 0.77482 0.0
C204 C 0.31855 0.25995 0.78752 0.0
C205 C 0.30865 0.27433 0.81186 0.0
C206 C 0.25442 0.23979 0.82398 0.0
C207 C 0.21017 0.19066 0.81103 0.0
C208 C 0.22041 0.17588 0.78678 0.0
C209 C 0.41076 0.11087 0.73945 0.0
C210 C 0.49171 0.26576 0.76536 0.0
C211 C 0.58625 0.21074 0.69009 0.0
C212 C 0.60044 0.21059 0.66317 0.0
C213 C 0.62827 0.18009 0.65482 0.0
C214 C 0.63844 0.17756 0.62894 0.0
C215 C 0.62116 0.20584 0.61101 0.0
C216 C 0.5934 0.23648 0.61964 0.0
C217 C 0.58272 0.23838 0.64537 0.0
C218 C 0.47453 0.30495 0.7014 0.0
C219 C 0.38308 0.14791 0.67133 0.0
O220 O 0.32434 0.23512 0.73508 0.0
O221 O 0.29062 0.14591 0.74876 0.0
O222 O 0.35803 0.09412 0.73111 0.0
O223 O 0.43979 0.1652 0.741 0.0
O224 O 0.43958 0.25653 0.75766 0.0
O225 O 0.52102 0.24621 0.75206 0.0
O226 O 0.53742 0.16481 0.69756 0.0
O227 O 0.59241 0.26028 0.69865 0.0
O228 O 0.52681 0.31514 0.70727 0.0
O229 O 0.43819 0.25116 0.69832 0.0
O230 O 0.43775 0.16277 0.67763 0.0
O231 O 0.34955 0.15845 0.68664 0.0
H232 H 0.36045 0.28773 0.77859 0.0
H233 H 0.34318 0.313 0.8211 0.0
H234 H 0.16799 0.16304 0.81987 0.0
H235 H 0.18592 0.13731 0.7774 0.0
H236 H 0.64157 0.15776 0.66824 0.0
H237 H 0.65902 0.15273 0.62299 0.0
H238 H 0.58025 0.25954 0.60655 0.0
H239 H 0.56031 0.26148 0.65136 0.0
C240 C 0.18358 0.5837 0.23514 0.0
C241 C 0.20661 0.56101 0.25307 0.0
C242 C 0.18138 0.57019 0.20928 0.0
C243 C 0.2029 0.53324 0.20106 0.0
C244 C 0.22559 0.50967 0.21906 0.0
C245 C 0.22718 0.52383 0.24481 0.0
C246 C 0.15661 0.59602 0.19073 0.0
C247 C 0.24846 0.46965 0.21109 0.0
C248 C 0.15489 0.45618 0.13727 0.0
C249 C 0.20425 0.4907 0.12213 0.0
C250 C 0.15347 0.46991 0.16286 0.0
C251 C 0.20242 0.5197 0.1736 0.0
C252 C 0.25174 0.55559 0.15829 0.0
C253 C 0.25215 0.54057 0.13277 0.0
C254 C 0.10015 0.43019 0.17852 0.0
C255 C 0.3047 0.60914 0.16905 0.0
H256 H 0.16826 0.61306 0.24127 0.0
H257 H 0.24421 0.5054 0.25855 0.0
H258 H 0.19089 0.62406 0.17688 0.0
H259 H 0.11981 0.56048 0.17987 0.0
H260 H 0.14037 0.62284 0.20025 0.0
H261 H 0.26432 0.45466 0.22743 0.0
H262 H 0.21333 0.43057 0.20119 0.0
H263 H 0.28518 0.49271 0.19754 0.0
H264 H 0.11764 0.41734 0.12934 0.0
H265 H 0.29044 0.56744 0.12127 0.0
H266 H 0.08223 0.45598 0.18756 0.0
H267 H 0.11283 0.41001 0.19395 0.0
H268 H 0.0648 0.39449 0.16706 0.0
H269 H 0.29119 0.639 0.17769 0.0
H270 H 0.33852 0.63375 0.15444 0.0
H271 H 0.3249 0.59586 0.18427 0.0
C272 C 0.59106 0.20028 0.56537 0.0
C273 C 0.63222 0.20399 0.58344 0.0
C274 C 0.6018 0.20089 0.53934 0.0
C275 C 0.65498 0.20522 0.53108 0.0
C276 C 0.6962 0.20774 0.54913 0.0
C277 C 0.68447 0.20734 0.57507 0.0
C278 C 0.55622 0.19689 0.52066 0.0
C279 C 0.753 0.21137 0.54101 0.0
C280 C 0.66818 0.15887 0.46448 0.0
C281 C 0.70099 0.21322 0.45234 0.0
C282 C 0.65133 0.15543 0.48987 0.0
C283 C 0.66791 0.20769 0.50355 0.0
C284 C 0.69898 0.26259 0.49115 0.0
C285 C 0.71513 0.26471 0.46568 0.0
C286 C 0.6182 0.09583 0.50222 0.0
C287 C 0.71685 0.31924 0.50505 0.0
H288 H 0.55019 0.1968 0.57154 0.0
H289 H 0.71694 0.21098 0.58878 0.0
H290 H 0.57555 0.23622 0.50833 0.0
H291 H 0.54197 0.15808 0.50821 0.0
H292 H 0.5169 0.19331 0.53017 0.0
H293 H 0.78017 0.21237 0.5574 0.0
H294 H 0.74346 0.17311 0.52892 0.0
H295 H 0.77908 0.25142 0.5295 0.0
H296 H 0.65675 0.11875 0.45434 0.0
H297 H 0.74047 0.30689 0.45648 0.0
H298 H 0.58482 0.0934 0.51572 0.0
H299 H 0.64964 0.0874 0.51297 0.0
H300 H 0.59578 0.06036 0.48795 0.0
H301 H 0.67786 0.31774 0.51388 0.0
H302 H 0.73813 0.35802 0.49238 0.0
H303 H 0.74802 0.32505 0.52054 0.0
C304 C 0.48146 0.68129 0.9116 0.0
C305 C 0.43141 0.6287 0.91872 0.0
C306 C 0.4925 0.69826 0.88603 0.0
C307 C 0.45272 0.66165 0.86707 0.0
C308 C 0.40254 0.60826 0.8741 0.0
C309 C 0.39237 0.59269 0.89978 0.0
C310 C 0.5467 0.75541 0.87932 0.0
C311 C 0.35944 0.56753 0.8545 0.0
C312 C 0.45259 0.72795 0.8028 0.0
C313 C 0.48692 0.7119 0.78828 0.0
C314 C 0.4409 0.71174 0.82845 0.0
C315 C 0.46402 0.67865 0.83983 0.0
C316 C 0.49803 0.66168 0.82515 0.0
C317 C 0.50892 0.67836 0.79963 0.0
C318 C 0.40476 0.73098 0.84354 0.0
C319 C 0.52375 0.6266 0.83649 0.0
H320 H 0.5123 0.70909 0.92602 0.0
H321 H 0.35308 0.55262 0.90507 0.0
H322 H 0.57497 0.7471 0.86641 0.0
H323 H 0.53392 0.78422 0.8691 0.0
H324 H 0.57295 0.77915 0.89629 0.0
H325 H 0.32316 0.52708 0.86305 0.0
H326 H 0.3402 0.5904 0.84393 0.0
H327 H 0.38251 0.5547 0.84055 0.0
H328 H 0.43586 0.75424 0.7943 0.0
H329 H 0.53574 0.66579 0.78869 0.0
H330 H 0.43109 0.75878 0.85969 0.0
H331 H 0.36575 0.69216 0.85156 0.0
H332 H 0.38961 0.75614 0.83191 0.0
H333 H 0.55449 0.65177 0.8521 0.0
H334 H 0.54794 0.61559 0.82232 0.0
H335 H 0.48831 0.58525 0.84472 0.0
C336 C 0.84135 0.42495 0.23345 0.0
C337 C 0.82479 0.4525 0.25179 0.0
C338 C 0.83882 0.43526 0.20748 0.0
C339 C 0.81885 0.4738 0.19961 0.0
C340 C 0.80328 0.50273 0.21804 0.0
C341 C 0.8065 0.49179 0.24387 0.0
C342 C 0.85677 0.40431 0.18848 0.0
C343 C 0.78252 0.54478 0.21048 0.0
C344 C 0.8535 0.54455 0.13456 0.0
C345 C 0.80026 0.51043 0.12151 0.0
C346 C 0.86102 0.53162 0.15961 0.0
C347 C 0.81385 0.48389 0.17213 0.0
C348 C 0.7607 0.44799 0.15879 0.0
C349 C 0.7547 0.46141 0.13353 0.0
C350 C 0.91879 0.57026 0.17295 0.0
C351 C 0.70918 0.39708 0.17157 0.0
H352 H 0.85489 0.39405 0.23936 0.0
H353 H 0.79457 0.51399 0.25792 0.0
H354 H 0.81854 0.37485 0.17645 0.0
H355 H 0.89116 0.43678 0.17575 0.0
H356 H 0.87388 0.37785 0.19771 0.0
H357 H 0.77191 0.56357 0.22712 0.0
H358 H 0.81687 0.58135 0.19922 0.0
H359 H 0.74278 0.5219 0.19831 0.0
H360 H 0.88914 0.58234 0.12534 0.0
H361 H 0.71335 0.43523 0.12364 0.0
H362 H 0.93604 0.54314 0.18133 0.0
H363 H 0.91207 0.59403 0.18874 0.0
H364 H 0.95249 0.60293 0.16002 0.0
H365 H 0.7229 0.36723 0.1801 0.0
H366 H 0.67217 0.3715 0.15824 0.0
H367 H 0.69319 0.41364 0.18718 0.0
C368 C 0.35533 0.76228 0.57166 0.0
C369 C 0.39376 0.81785 0.58188 0.0
C370 C 0.34157 0.75485 0.54573 0.0
C371 C 0.36713 0.80412 0.52948 0.0
C372 C 0.40896 0.85971 0.53934 0.0
C373 C 0.42162 0.86598 0.56544 0.0
C374 C 0.29678 0.69479 0.53607 0.0
C375 C 0.43761 0.91335 0.52266 0.0
C376 C 0.33941 0.77714 0.45825 0.0
C377 C 0.29148 0.78615 0.45494 0.0
C378 C 0.36566 0.78393 0.48234 0.0
C379 C 0.34272 0.79912 0.50347 0.0
C380 C 0.29409 0.80769 0.50011 0.0
C381 C 0.26935 0.80127 0.47601 0.0
C382 C 0.41792 0.77513 0.48521 0.0
C383 C 0.26754 0.82305 0.52209 0.0
H384 H 0.33496 0.72449 0.58406 0.0
H385 H 0.45152 0.90909 0.57308 0.0
H386 H 0.25549 0.69447 0.53116 0.0
H387 H 0.31271 0.68396 0.51859 0.0
H388 H 0.2865 0.65995 0.55032 0.0
H389 H 0.47609 0.95058 0.53207 0.0
H390 H 0.45217 0.90337 0.50457 0.0
H391 H 0.4052 0.92733 0.51798 0.0
H392 H 0.35686 0.76572 0.44204 0.0
H393 H 0.23175 0.80746 0.4738 0.0
H394 H 0.40788 0.73956 0.499 0.0
H395 H 0.45598 0.81565 0.49286 0.0
H396 H 0.43079 0.76386 0.46696 0.0
H397 H 0.2519 0.78808 0.53664 0.0
H398 H 0.22994 0.82856 0.51619 0.0
H399 H 0.30134 0.86432 0.53115 0.0
C400 C 0.60643 0.40403 0.90464 0.0
C401 C 0.57312 0.35985 0.92224 0.0
C402 C 0.59711 0.39369 0.87848 0.0
C403 C 0.55305 0.33798 0.86972 0.0
C404 C 0.51875 0.29349 0.88742 0.0
C405 C 0.52951 0.30482 0.91347 0.0
C406 C 0.63446 0.44231 0.86024 0.0
C407 C 0.47035 0.234 0.87884 0.0
C408 C 0.48719 0.31906 0.80382 0.0
C409 C 0.51312 0.2912 0.79092 0.0
C410 C 0.50127 0.33646 0.82922 0.0
C411 C 0.54251 0.3259 0.84204 0.0
C412 C 0.57127 0.30074 0.82873 0.0
C413 C 0.55622 0.28366 0.80333 0.0
C414 C 0.4698 0.36354 0.84256 0.0
C415 C 0.61631 0.28978 0.8416 0.0
H416 H 0.64053 0.44655 0.91134 0.0
H417 H 0.50322 0.27086 0.92702 0.0
H418 H 0.65885 0.42813 0.84769 0.0
H419 H 0.60611 0.45214 0.84795 0.0
H420 H 0.66656 0.48326 0.87013 0.0
H421 H 0.44777 0.20415 0.89499 0.0
H422 H 0.43729 0.239 0.86762 0.0
H423 H 0.4886 0.21317 0.86634 0.0
H424 H 0.45494 0.32636 0.79424 0.0
H425 H 0.57671 0.26237 0.79352 0.0
H426 H 0.44891 0.37984 0.82894 0.0
H427 H 0.50027 0.40054 0.85489 0.0
H428 H 0.43505 0.33006 0.85483 0.0
H429 H 0.65049 0.33048 0.85092 0.0
H430 H 0.63803 0.27424 0.82814 0.0
H431 H 0.59479 0.25623 0.85661 0.0
C432 C 0.35653 0.38582 0.05012 0.0
C433 C 0.32693 0.39918 0.06855 0.0
C434 C 0.41825 0.41816 0.04885 0.0
C435 C 0.4499 0.46445 0.06636 0.0
C436 C 0.41986 0.47617 0.08555 0.0
C437 C 0.35878 0.44307 0.08648 0.0
C438 C 0.44942 0.40438 0.02834 0.0
C439 C 0.45201 0.52494 0.10463 0.0
C440 C 0.60872 0.51914 0.08216 0.0
C441 C 0.63725 0.57158 0.06841 0.0
C442 C 0.54797 0.4827 0.08073 0.0
C443 C 0.51472 0.49976 0.06556 0.0
C444 C 0.54306 0.55313 0.0518 0.0
C445 C 0.60448 0.5887 0.05339 0.0
C446 C 0.51939 0.42613 0.09562 0.0
C447 C 0.50848 0.57278 0.03569 0.0
H448 H 0.33155 0.35265 0.03596 0.0
H449 H 0.33547 0.45341 0.10064 0.0
H450 H 0.47157 0.44228 1.01529 0.0
H451 H 0.48404 0.39707 0.03673 0.0
H452 H 0.41877 0.365 1.01715 0.0
H453 H 0.42169 0.52846 0.1182 0.0
H454 H 0.48392 0.51752 0.11552 0.0
H455 H 0.47731 0.56751 0.09469 0.0
H456 H 0.63429 0.50587 0.09373 0.0
H457 H 0.62683 0.6289 0.04252 0.0
H458 H 0.49174 0.38864 0.08292 0.0
H459 H 0.49011 0.42784 0.11027 0.0
H460 H 0.55215 0.41754 0.10514 0.0
H461 H 0.47941 0.53741 0.02236 0.0
H462 H 0.53739 0.6129 0.02464 0.0
H463 H 0.47988 0.58202 0.04798 0.0
C464 C 0.09658 0.60509 0.41337 0.0
C465 C 0.07019 0.63437 0.40194 0.0
C466 C 0.06997 0.54412 0.41254 0.0
C467 C 0.01502 0.51149 0.40035 0.0
C468 C 0.98757 0.54073 0.38908 0.0
C469 C 0.01569 0.60224 0.38997 0.0
C470 C 0.10059 0.51469 0.42482 0.0
C471 C 0.9289 0.50711 0.37595 0.0
C472 C 0.9617 0.35233 0.38323 0.0
C473 C 0.92285 0.32371 0.40315 0.0
C474 C -0.00722 0.41395 0.38207 0.0
C475 C 0.98449 0.44666 0.40133 0.0
C476 C 0.94755 0.41753 0.4221 0.0
C477 C 0.91718 0.35637 0.42271 0.0
C478 C 0.03195 0.44389 0.35966 0.0
C479 C 0.93797 0.4508 0.44312 0.0
H480 H 0.1389 0.6301 0.42272 0.0
H481 H -0.00423 0.62509 0.38093 0.0
H482 H 0.07337 0.4861 0.44051 0.0
H483 H 0.10608 0.48628 0.41087 0.0
H484 H 0.14454 0.54682 0.43253 0.0
H485 H 0.91278 0.53619 0.36868 0.0
H486 H 0.93281 0.48239 0.35982 0.0
H487 H 0.89578 0.47486 0.38916 0.0
H488 H 0.96459 0.32676 0.36778 0.0
H489 H 0.88628 0.33376 0.43789 0.0
H490 H 0.07591 0.47884 0.36613 0.0
H491 H 0.01267 0.46523 0.34802 0.0
H492 H 0.03752 0.4126 0.34748 0.0
H493 H 0.98064 0.48273 0.45187 0.0
H494 H 0.90868 0.4213 0.45818 0.0
H495 H 0.91813 0.4761 0.43526 0.0
C496 C 0.41717 0.02152 0.72917 0.0
C497 C 0.44027 0.07618 0.74086 0.0
C498 C 0.45046 0.99327 0.72801 0.0
C499 C 0.50817 0.02115 0.73838 0.0
C500 C 0.53112 0.07614 0.7504 0.0
C501 C 0.49647 0.10241 0.75189 0.0
C502 C 0.42432 0.93433 0.71527 0.0
C503 C 0.59251 0.10761 0.76146 0.0
C504 C 0.57015 0.92592 0.75912 0.0
C505 C 0.60453 0.92942 0.7383 0.0
C506 C 0.53907 0.95607 0.75942 0.0
C507 C 0.54329 0.99134 0.73846 0.0
C508 C 0.58137 -0.00154 0.7181 0.0
C509 C 0.61169 0.967 0.7182 0.0
C510 C 0.49885 0.94718 0.78144 0.0
C511 C 0.58721 0.03623 0.69557 0.0
H512 H 0.37398 0.00167 0.72045 0.0
H513 H 0.51425 0.14461 0.7612 0.0
H514 H 0.44813 0.93914 0.69735 0.0
H515 H 0.42934 0.90289 0.72755 0.0
H516 H 0.37695 0.91583 0.71075 0.0
H517 H 0.60456 0.15152 0.76916 0.0
H518 H 0.59626 0.08108 0.77691 0.0
H519 H 0.62489 0.11317 0.74672 0.0
H520 H 0.5641 0.89587 0.77443 0.0
H521 H 0.63692 0.96814 0.70179 0.0
H522 H 0.45273 0.92661 0.77462 0.0
H523 H 0.51011 0.99002 0.79002 0.0
H524 H 0.50141 0.91883 0.79641 0.0
H525 H 0.54634 0.01417 0.68406 0.0
H526 H 0.62473 0.04411 0.68331 0.0
H527 H 0.5931 0.0791 0.70183 0.0
C528 C 0.42469 0.57637 0.6938 0.0
C529 C 0.48023 0.62525 0.68948 0.0
C530 C 0.41561 0.51967 0.69153 0.0
C531 C 0.46328 0.51215 0.68464 0.0
C532 C 0.51804 0.56119 0.67799 0.0
C533 C 0.52607 0.61766 0.68066 0.0
C534 C 0.35676 0.46841 0.69894 0.0
C535 C 0.56945 0.5543 0.67012 0.0
C536 C 0.47895 0.39394 0.71724 0.0
C537 C 0.46157 0.35194 0.69812 0.0
C538 C 0.47729 0.4454 0.71331 0.0
C539 C 0.45945 0.45527 0.68935 0.0
C540 C 0.43979 0.41179 0.67021 0.0
C541 C 0.44049 0.35976 0.67498 0.0
C542 C 0.49683 0.49008 0.73447 0.0
C543 C 0.42138 0.42158 0.64439 0.0
H544 H 0.38887 0.58231 0.70029 0.0
H545 H 0.56876 0.65565 0.677 0.0
H546 H 0.34289 0.43133 0.68553 0.0
H547 H 0.3605 0.45269 0.71798 0.0
H548 H 0.32194 0.48062 0.69962 0.0
H549 H 0.60495 0.59494 0.66135 0.0
H550 H 0.58786 0.54393 0.68701 0.0
H551 H 0.55517 0.51749 0.65651 0.0
H552 H 0.49527 0.38704 0.73508 0.0
H553 H 0.42806 0.32698 0.6602 0.0
H554 H 0.46285 0.50248 0.73806 0.0
H555 H 0.53773 0.53048 0.72895 0.0
H556 H 0.50535 0.47347 0.75242 0.0
H557 H 0.39029 0.43836 0.64608 0.0
H558 H 0.40049 0.38082 0.63283 0.0
H559 H 0.46061 0.4553 0.63417 0.0
C560 C 0.12109 0.52725 1.00457 0.0
C561 C 0.1079 0.47813 0.01942 0.0
C562 C 0.07789 0.54162 0.99874 0.0
C563 C 0.02078 0.50653 1.00854 0.0
C564 C 0.00605 0.45384 0.0216 0.0
C565 C 0.05012 0.43998 0.02679 0.0
C566 C 0.09491 0.59729 0.98424 0.0
C567 C 0.94534 0.41521 0.03221 0.0
C568 C 0.93818 0.57984 0.03232 0.0
C569 C 0.89261 0.56059 1.01454 0.0
C570 C 0.98182 0.56456 0.0299 0.0
C571 C 0.9799 0.52979 1.00904 0.0
C572 C 0.93703 0.51475 0.98985 0.0
C573 C 0.89368 0.53046 0.99282 0.0
C574 C 0.02759 0.58232 0.05059 0.0
C575 C 0.93446 0.47875 0.96712 0.0
H576 H 0.16608 0.55633 0.99871 0.0
H577 H 0.04042 0.40218 0.03834 0.0
H578 H 0.06001 0.59072 0.97053 0.0
H579 H 0.10053 0.63218 0.99767 0.0
H580 H 0.13682 0.61294 0.97385 0.0
H581 H 0.93903 0.37242 0.03891 0.0
H582 H 0.93833 0.43783 0.04843 0.0
H583 H 0.91131 0.40699 0.01774 0.0
H584 H 0.93764 0.60365 0.04899 0.0
H585 H 0.85865 0.51595 0.97891 0.0
H586 H 0.07234 0.60477 0.04235 0.0
H587 H 0.02179 0.54262 0.06054 0.0
H588 H 0.02474 0.61199 0.06476 0.0
H589 H 0.97896 0.49469 0.95921 0.0
H590 H 0.90545 0.47968 0.95197 0.0
H591 H 0.9171 0.43251 0.97298 0.0
C592 C 0.35884 0.90691 0.32574 0.0
C593 C 0.33222 0.89766 0.34954 0.0
C594 C 0.41586 0.9538 0.32188 0.0
C595 C 0.44653 0.99121 0.34244 0.0
C596 C 0.41817 0.98429 0.36598 0.0
C597 C 0.36091 0.93791 0.36913 0.0
C598 C 0.44424 0.96121 0.29632 0.0
C599 C 0.44949 0.02361 0.38837 0.0
C600 C 0.61043 0.0682 0.352 0.0
C601 C 0.62379 0.12643 0.34988 0.0
C602 C 0.55297 0.0225 0.3475 0.0
C603 C 0.50916 0.03617 0.34019 0.0
C604 C 0.52446 0.0948 0.33523 0.0
C605 C 0.58164 0.13945 0.34049 0.0
C606 C 0.53803 0.96028 0.35298 0.0
C607 C 0.47937 0.11086 0.32668 0.0
H608 H 0.3363 0.87594 0.31051 0.0
H609 H 0.3401 0.93101 0.38748 0.0
H610 H 0.46819 0.00806 0.29068 0.0
H611 H 0.47677 0.94609 0.29734 0.0
H612 H 0.41146 0.93547 0.28138 0.0
H613 H 0.42056 0.01284 0.40517 0.0
H614 H 0.48807 0.01929 0.39371 0.0
H615 H 0.46602 0.07015 0.38331 0.0
H616 H 0.6435 0.05854 0.35901 0.0
H617 H 0.59262 0.1848 0.33833 0.0
H618 H 0.51031 0.93037 0.33763 0.0
H619 H 0.51242 0.94537 0.37079 0.0
H620 H 0.57801 0.95632 0.35517 0.0
H621 H 0.44972 0.07969 0.31208 0.0
H622 H 0.50033 0.15605 0.31887 0.0
H623 H 0.45188 0.10847 0.34304 0.0
C624 C 0.28653 0.26944 0.86914 0.0
C625 C 0.24426 0.25521 0.84999 0.0
C626 C 0.27822 0.28523 0.89361 0.0
C627 C 0.22667 0.28765 0.89911 0.0
C628 C 0.18381 0.27327 0.87983 0.0
C629 C 0.19286 0.25672 0.85562 0.0
C630 C 0.32495 0.29982 0.91353 0.0
C631 C 0.12929 0.2773 0.88452 0.0
C632 C 0.18161 0.28634 0.9681 0.0
C633 C 0.207 0.34642 0.97334 0.0
C634 C 0.18796 0.26654 0.94411 0.0
C635 C 0.2188 0.30769 0.92464 0.0
C636 C 0.2428 0.36832 0.9297 0.0
C637 C 0.23758 0.38688 0.95404 0.0
C638 C 0.16277 0.20166 0.93976 0.0
C639 C 0.27486 0.41412 0.90962 0.0
H640 H 0.32604 0.26773 0.86502 0.0
H641 H 0.16034 0.24648 0.84085 0.0
H642 H 0.34472 0.34656 0.91913 0.0
H643 H 0.30509 0.27302 0.93074 0.0
H644 H 0.36057 0.29213 0.90677 0.0
H645 H 0.09962 0.26361 0.86776 0.0
H646 H 0.10462 0.24938 0.90083 0.0
H647 H 0.14199 0.32315 0.88946 0.0
H648 H 0.15836 0.25489 0.98299 0.0
H649 H 0.257 0.43341 0.95786 0.0
H650 H 0.19846 0.19283 0.93439 0.0
H651 H 0.13088 0.18666 0.92382 0.0
H652 H 0.1403 0.17531 0.9568 0.0
H653 H 0.32068 0.42285 0.90821 0.0
H654 H 0.27638 0.45597 0.91432 0.0
H655 H 0.25376 0.39921 0.89076 0.0
C656 C 0.87762 0.26505 0.29227 0.0
C657 C 0.85755 0.21375 0.30681 0.0
C658 C 0.90052 0.26965 0.26783 0.0
C659 C 0.90387 0.22192 0.25737 0.0
C660 C 0.88465 0.17028 0.272 0.0
C661 C 0.86154 0.16669 0.29648 0.0
C662 C 0.91995 0.32538 0.25297 0.0
C663 C 0.88816 0.11866 0.26169 0.0
C664 C 0.90896 0.21709 0.18515 0.0
C665 C 0.96943 0.24219 0.18044 0.0
C666 C 0.88703 0.2091 0.21001 0.0
C667 C 0.92627 0.22611 0.23089 0.0
C668 C 0.98725 0.25073 0.22633 0.0
C669 C 0.00805 0.25867 0.20126 0.0
C670 C 0.82182 0.18341 0.2139 0.0
C671 C 0.0308 0.27001 0.24795 0.0
H672 H 0.87481 0.30185 0.29983 0.0
H673 H 0.84642 0.12696 0.30746 0.0
H674 H 0.96487 0.34216 0.24541 0.0
H675 H 0.89009 0.31616 0.23654 0.0
H676 H 0.91979 0.36035 0.26462 0.0
H677 H 0.87336 0.08246 0.27565 0.0
H678 H 0.86051 0.10159 0.24441 0.0
H679 H 0.93401 0.13272 0.25612 0.0
H680 H 0.87847 0.20331 0.16934 0.0
H681 H 0.0549 0.27902 0.19798 0.0
H682 H 0.81341 0.21614 0.22337 0.0
H683 H 0.8047 0.14459 0.22648 0.0
H684 H 0.79681 0.17005 0.19578 0.0
H685 H 0.03099 0.30679 0.2583 0.0
H686 H 0.07618 0.28464 0.24137 0.0
H687 H 0.01771 0.23357 0.26161 0.0
C688 C 0.62918 0.906 0.63242 0.0
C689 C 0.63306 0.85693 0.64018 0.0
C690 C 0.64245 0.92752 0.60749 0.0
C691 C 0.66024 0.89948 0.58956 0.0
C692 C 0.66549 0.85061 0.59739 0.0
C693 C 0.65219 0.83014 0.62261 0.0
C694 C 0.63677 0.98005 0.6003 0.0
C695 C 0.68388 0.81908 0.57894 0.0
C696 C 0.64158 0.92268 0.51916 0.0
C697 C 0.69896 0.9651 0.5121 0.0
C698 C 0.6284 0.9008 0.54413 0.0
C699 C 0.67358 0.9216 0.56273 0.0
C700 C 0.73141 0.96467 0.5558 0.0
C701 C 0.74332 0.98575 0.53072 0.0
C702 C 0.56598 0.85526 0.55058 0.0
C703 C 0.78077 0.9891 0.575 0.0
H704 H 0.61552 0.92773 0.64596 0.0
H705 H 0.65487 0.79198 0.62832 0.0
H706 H 0.67927 0.01557 0.59296 0.0
H707 H 0.6038 0.96801 0.58491 0.0
H708 H 0.62324 -0.00258 0.61653 0.0
H709 H 0.68646 0.78224 0.58792 0.0
H710 H 0.65203 0.80151 0.56298 0.0
H711 H 0.72742 0.85018 0.57081 0.0
H712 H 0.60688 0.90578 0.50504 0.0
H713 H 0.78754 0.0193 0.52581 0.0
H714 H 0.54927 0.87171 0.56594 0.0
H715 H 0.56471 0.81496 0.5577 0.0
H716 H 0.53583 0.84349 0.53405 0.0
H717 H 0.77024 0.01018 0.59075 0.0
H718 H 0.82342 0.02193 0.56663 0.0
H719 H 0.78576 0.95307 0.5833 0.0
C720 C 0.73234 0.66451 0.85482 0.0
C721 C 0.71033 0.70171 0.84817 0.0
C722 C 0.74027 0.65415 0.88037 0.0
C723 C 0.72645 0.68193 0.90002 0.0
C724 C 0.70376 0.71912 0.89349 0.0
C725 C 0.69585 0.72835 0.8678 0.0
C726 C 0.76368 0.61345 0.88633 0.0
C727 C 0.68711 0.74869 0.91369 0.0
C728 C 0.69698 0.61205 0.96576 0.0
C729 C 0.75118 0.64573 0.9783 0.0
C730 C 0.68812 0.62385 0.94061 0.0
C731 C 0.73445 0.67089 0.92735 0.0
C732 C 0.78879 0.70621 0.94005 0.0
C733 C 0.79656 0.69319 0.96528 0.0
C734 C 0.62955 0.58444 0.92802 0.0
C735 C 0.83915 0.75726 0.92681 0.0
H736 H 0.7444 0.64406 0.84002 0.0
H737 H 0.67762 0.75613 0.8631 0.0
H738 H 0.80597 0.63772 0.89674 0.0
H739 H 0.73256 0.57743 0.89881 0.0
H740 H 0.77081 0.59392 0.869 0.0
H741 H 0.67413 0.77956 0.90558 0.0
H742 H 0.64977 0.71506 0.92487 0.0
H743 H 0.7244 0.77316 0.92698 0.0
H744 H 0.66124 0.57547 0.97546 0.0
H745 H 0.8386 0.71958 0.97462 0.0
H746 H 0.63468 0.55609 0.9139 0.0
H747 H 0.61359 0.61062 0.91775 0.0
H748 H 0.5955 0.55578 0.94186 0.0
H749 H 0.85303 0.74118 0.91027 0.0
H750 H 0.8777 0.78203 0.9395 0.0
H751 H 0.82483 0.78771 0.91951 0.0
C752 C 0.09166 0.70799 0.29798 0.0
C753 C 0.10673 0.75736 0.3133 0.0
C754 C 0.06845 0.70284 0.2734 0.0
C755 C 0.05979 0.74811 0.26359 0.0
C756 C 0.07395 0.79761 0.27906 0.0
C757 C 0.09724 0.80169 0.30363 0.0
C758 C 0.05436 0.64933 0.25772 0.0
C759 C 0.06525 0.84681 0.26949 0.0
C760 C 0.05505 0.76437 0.19164 0.0
C761 C -0.00543 0.73933 0.18679 0.0
C762 C 0.07672 0.76728 0.21641 0.0
C763 C 0.03712 0.74426 0.23702 0.0
C764 C 0.97593 0.71774 0.23217 0.0
C765 C 0.95553 0.7159 0.20726 0.0
C766 C 0.14221 0.79558 0.22055 0.0
C767 C 0.93186 0.69129 0.25334 0.0
H768 H 0.09878 0.67335 0.30503 0.0
H769 H 0.10869 0.84006 0.31513 0.0
H770 H 0.00887 0.62893 0.25015 0.0
H771 H 0.0844 0.66241 0.24125 0.0
H772 H 0.05894 0.61586 0.26875 0.0
H773 H 0.07701 0.88165 0.28394 0.0
H774 H 0.09264 0.86679 0.25245 0.0
H775 H 0.01874 0.82935 0.26376 0.0
H776 H 0.08573 0.783 0.17609 0.0
H777 H 0.90868 0.69543 0.20375 0.0
H778 H 0.15281 0.76391 0.2296 0.0
H779 H 0.15737 0.83349 0.23362 0.0
H780 H 0.16722 0.81109 0.2026 0.0
H781 H 0.93731 0.65702 0.26317 0.0
H782 H 0.8858 0.67128 0.24642 0.0
H783 H 0.93974 0.72554 0.26755 0.0
C784 C 0.3013 0.09645 0.63911 0.0
C785 C 0.36089 0.12139 0.64574 0.0
C786 C 0.28072 0.07216 0.61483 0.0
C787 C 0.32066 0.0734 0.59647 0.0
C788 C 0.38078 0.09821 0.60312 0.0
C789 C 0.40003 0.12169 0.62754 0.0
C790 C 0.21609 0.045 0.60881 0.0
C791 C 0.42536 0.10133 0.58428 0.0
C792 C 0.26468 0.96883 0.53967 0.0
C793 C 0.26188 0.00431 0.5205 0.0
C794 C 0.283 0.99037 0.56444 0.0
C795 C 0.29979 0.04933 0.57028 0.0
C796 C 0.29742 0.08552 0.55091 0.0
C797 C 0.27795 0.06245 0.5264 0.0
C798 C 0.28445 0.94996 0.58437 0.0
C799 C 0.31632 0.14896 0.556 0.0
H800 H 0.27055 0.09563 0.65296 0.0
H801 H 0.44627 0.14114 0.63223 0.0
H802 H 0.20969 0.06887 0.59293 0.0
H803 H 0.1982 -0.00115 0.60262 0.0
H804 H 0.19036 0.04573 0.62532 0.0
H805 H 0.46814 0.1136 0.59344 0.0
H806 H 0.40918 0.05872 0.57445 0.0
H807 H 0.43271 0.13455 0.56963 0.0
H808 H 0.2515 0.92371 0.53536 0.0
H809 H 0.27634 0.09028 0.51164 0.0
H810 H 0.25673 0.94731 0.60068 0.0
H811 H 0.32996 0.96772 0.59159 0.0
H812 H 0.26868 0.90496 0.57699 0.0
H813 H 0.28953 0.1521 0.57145 0.0
H814 H 0.31198 0.17137 0.53898 0.0
H815 H 0.36283 0.1727 0.56241 0.0
loop_
_geom_bond_atom_site_label_1
_geom_bond_atom_site_label_2
_geom_bond_distance
_geom_bond_site_symmetry_2
_ccdc_geom_bond_type
Nd0 C2 2.836 . S
Nd0 O20 2.500 . S
Nd0 O21 2.492 . S
Nd0 O22 2.487 . S
Nd0 O23 2.682 . S
Nd0 O24 2.410 . S
Nd0 O29 2.414 . S
Nd0 O31 2.424 . S
Nd1 C11 2.836 1_554 S
Nd1 O23 2.414 . S
Nd1 O25 2.424 . S
Nd1 O26 2.500 1_554 S
Nd1 O27 2.492 1_554 S
Nd1 O28 2.487 . S
Nd1 O29 2.682 . S
Nd1 O30 2.410 1_554 S
C2 Nd0 2.836 . S
C2 C3 1.498 . S
C2 O20 1.258 . S
C2 O21 1.239 . S
C3 C2 1.498 . S
C3 C4 1.366 . S
C3 C8 1.407 . S
C4 C3 1.366 . S
C4 C5 1.392 . S
C4 H32 0.930 . S
C5 C4 1.392 . S
C5 C6 1.398 . S
C5 H33 0.929 1_455 S
C6 C5 1.398 . S
C6 C7 1.352 . S
C7 C6 1.352 . S
C7 C8 1.384 . S
C7 H34 0.930 . S
C8 C3 1.407 . S
C8 C7 1.384 . S
C8 H35 0.929 . S
C9 O22 1.241 . S
C9 O23 1.273 . S
C10 O24 1.251 . S
C10 O25 1.268 . S
C11 Nd1 2.836 1_556 S
C11 C12 1.498 . S
C11 O26 1.258 . S
C11 O27 1.239 . S
C12 C11 1.498 . S
C12 C13 1.366 . S
C12 C17 1.407 . S
C13 C12 1.366 . S
C13 C14 1.392 . S
C13 H36 0.930 . S
C14 C13 1.392 . S
C14 C15 1.398 . S
C14 H37 0.929 . S
C15 C14 1.398 . S
C15 C16 1.352 . S
C16 C15 1.352 . S
C16 C17 1.384 . S
C16 H38 0.930 . S
C17 C12 1.407 . S
C17 C16 1.384 . S
C17 H39 0.929 . S
C18 O28 1.241 . S
C18 O29 1.273 . S
C19 O30 1.251 . S
C19 O31 1.268 1_556 S
O20 Nd0 2.500 . S
O20 C2 1.258 . S
O21 Nd0 2.492 . S
O21 C2 1.239 . S
O22 Nd0 2.487 . S
O22 C9 1.241 . S
O23 Nd0 2.682 . S
O23 Nd1 2.414 . S
O23 C9 1.273 . S
O24 Nd0 2.410 . S
O24 C10 1.251 . S
O25 Nd1 2.424 . S
O25 C10 1.268 . S
O26 Nd1 2.500 1_556 S
O26 C11 1.258 . S
O27 Nd1 2.492 1_556 S
O27 C11 1.239 . S
O28 Nd1 2.487 . S
O28 C18 1.241 . S
O29 Nd0 2.414 . S
O29 Nd1 2.682 . S
O29 C18 1.273 . S
O30 Nd1 2.410 1_556 S
O30 C19 1.251 . S
O31 Nd0 2.424 . S
O31 C19 1.268 1_554 S
H32 C4 0.930 . S
H33 C5 0.929 1_655 S
H34 C7 0.930 . S
H35 C8 0.929 . S
H36 C13 0.930 . S
H37 C14 0.929 . S
H38 C16 0.930 . S
H39 C17 0.929 . S
Nd40 C42 2.836 . S
Nd40 O60 2.500 . S
Nd40 O61 2.492 . S
Nd40 O62 2.487 . S
Nd40 O63 2.682 . S
Nd40 O64 2.410 . S
Nd40 O69 2.414 . S
Nd40 O71 2.424 . S
Nd41 C51 2.836 . S
Nd41 O63 2.414 . S
Nd41 O65 2.424 . S
Nd41 O66 2.500 . S
Nd41 O67 2.492 . S
Nd41 O68 2.487 . S
Nd41 O69 2.682 . S
Nd41 O70 2.410 . S
C42 Nd40 2.836 . S
C42 C43 1.498 . S
C42 O60 1.258 . S
C42 O61 1.239 . S
C43 C42 1.498 . S
C43 C44 1.366 . S
C43 C48 1.407 . S
C44 C43 1.366 . S
C44 C45 1.392 . S
C44 H72 0.930 . S
C45 C44 1.392 . S
C45 C46 1.398 . S
C45 H73 0.929 1_545 S
C46 C45 1.398 . S
C46 C47 1.352 . S
C47 C46 1.352 . S
C47 C48 1.384 . S
C47 H74 0.930 . S
C48 C43 1.407 . S
C48 C47 1.384 . S
C48 H75 0.929 . S
C49 O62 1.241 . S
C49 O63 1.273 . S
C50 O64 1.251 . S
C50 O65 1.268 . S
C51 Nd41 2.836 . S
C51 C52 1.498 . S
C51 O66 1.258 . S
C51 O67 1.239 . S
C52 C51 1.498 . S
C52 C53 1.366 . S
C52 C57 1.407 . S
C53 C52 1.366 . S
C53 C54 1.392 . S
C53 H76 0.930 . S
C54 C53 1.392 . S
C54 C55 1.398 . S
C54 H77 0.929 . S
C55 C54 1.398 . S
C55 C56 1.352 . S
C56 C55 1.352 . S
C56 C57 1.384 . S
C56 H78 0.930 . S
C57 C52 1.407 . S
C57 C56 1.384 . S
C57 H79 0.929 . S
C58 O68 1.241 . S
C58 O69 1.273 . S
C59 O70 1.251 . S
C59 O71 1.268 . S
O60 Nd40 2.500 . S
O60 C42 1.258 . S
O61 Nd40 2.492 . S
O61 C42 1.239 . S
O62 Nd40 2.487 . S
O62 C49 1.241 . S
O63 Nd40 2.682 . S
O63 Nd41 2.414 . S
O63 C49 1.273 . S
O64 Nd40 2.410 . S
O64 C50 1.251 . S
O65 Nd41 2.424 . S
O65 C50 1.268 . S
O66 Nd41 2.500 . S
O66 C51 1.258 . S
O67 Nd41 2.492 . S
O67 C51 1.239 . S
O68 Nd41 2.487 . S
O68 C58 1.241 . S
O69 Nd40 2.414 . S
O69 Nd41 2.682 . S
O69 C58 1.273 . S
O70 Nd41 2.410 . S
O70 C59 1.251 . S
O71 Nd40 2.424 . S
O71 C59 1.268 . S
H72 C44 0.930 . S
H73 C45 0.929 1_565 S
H74 C47 0.930 . S
H75 C48 0.929 . S
H76 C53 0.930 . S
H77 C54 0.929 . S
H78 C56 0.930 . S
H79 C57 0.929 . S
Nd80 C82 2.836 . S
Nd80 O100 2.500 . S
Nd80 O101 2.492 . S
Nd80 O102 2.487 . S
Nd80 O103 2.682 . S
Nd80 O104 2.410 . S
Nd80 O109 2.414 . S
Nd80 O111 2.424 . S
Nd81 C91 2.836 . S
Nd81 O103 2.414 . S
Nd81 O105 2.424 . S
Nd81 O106 2.500 . S
Nd81 O107 2.492 . S
Nd81 O108 2.487 . S
Nd81 O109 2.682 . S
Nd81 O110 2.410 . S
C82 Nd80 2.836 . S
C82 C83 1.498 . S
C82 O100 1.258 . S
C82 O101 1.239 . S
C83 C82 1.498 . S
C83 C84 1.366 . S
C83 C88 1.407 . S
C84 C83 1.366 . S
C84 C85 1.392 . S
C84 H112 0.930 . S
C85 C84 1.392 . S
C85 C86 1.398 . S
C85 H113 0.929 . S
C86 C85 1.398 . S
C86 C87 1.352 . S
C87 C86 1.352 . S
C87 C88 1.384 . S
C87 H114 0.930 . S
C88 C83 1.407 . S
C88 C87 1.384 . S
C88 H115 0.929 . S
C89 O102 1.241 . S
C89 O103 1.273 . S
C90 O104 1.251 . S
C90 O105 1.268 . S
C91 Nd81 2.836 . S
C91 C92 1.498 . S
C91 O106 1.258 . S
C91 O107 1.239 . S
C92 C91 1.498 . S
C92 C93 1.366 . S
C92 C97 1.407 . S
C93 C92 1.366 . S
C93 C94 1.392 . S
C93 H116 0.930 . S
C94 C93 1.392 . S
C94 C95 1.398 . S
C94 H117 0.929 . S
C95 C94 1.398 . S
C95 C96 1.352 . S
C96 C95 1.352 . S
C96 C97 1.384 . S
C96 H118 0.930 . S
C97 C92 1.407 . S
C97 C96 1.384 . S
C97 H119 0.929 . S
C98 O108 1.241 . S
C98 O109 1.273 . S
C99 O110 1.251 . S
C99 O111 1.268 . S
O100 Nd80 2.500 . S
O100 C82 1.258 . S
O101 Nd80 2.492 . S
O101 C82 1.239 . S
O102 Nd80 2.487 . S
O102 C89 1.241 . S
O103 Nd80 2.682 . S
O103 Nd81 2.414 . S
O103 C89 1.273 . S
O104 Nd80 2.410 . S
O104 C90 1.251 . S
O105 Nd81 2.424 . S
O105 C90 1.268 . S
O106 Nd81 2.500 . S
O106 C91 1.258 . S
O107 Nd81 2.492 . S
O107 C91 1.239 . S
O108 Nd81 2.487 . S
O108 C98 1.241 . S
O109 Nd80 2.414 . S
O109 Nd81 2.682 . S
O109 C98 1.273 . S
O110 Nd81 2.410 . S
O110 C99 1.251 . S
O111 Nd80 2.424 . S
O111 C99 1.268 . S
H112 C84 0.930 . S
H113 C85 0.929 . S
H114 C87 0.930 . S
H115 C88 0.929 . S
H116 C93 0.930 . S
H117 C94 0.929 . S
H118 C96 0.930 . S
H119 C97 0.929 . S
Nd120 C122 2.836 . S
Nd120 O140 2.500 . S
Nd120 O141 2.492 . S
Nd120 O142 2.487 . S
Nd120 O143 2.682 . S
Nd120 O144 2.410 . S
Nd120 O149 2.414 . S
Nd120 O151 2.424 . S
Nd121 C131 2.836 1_554 S
Nd121 O143 2.414 . S
Nd121 O145 2.424 . S
Nd121 O146 2.500 1_554 S
Nd121 O147 2.492 1_554 S
Nd121 O148 2.487 . S
Nd121 O149 2.682 . S
Nd121 O150 2.410 1_554 S
C122 Nd120 2.836 . S
C122 C123 1.498 . S
C122 O140 1.258 . S
C122 O141 1.239 . S
C123 C122 1.498 . S
C123 C124 1.366 . S
C123 C128 1.407 . S
C124 C123 1.366 . S
C124 C125 1.392 . S
C124 H152 0.930 . S
C125 C124 1.392 . S
C125 C126 1.398 . S
C125 H153 0.929 1_655 S
C126 C125 1.398 . S
C126 C127 1.352 . S
C127 C126 1.352 . S
C127 C128 1.384 . S
C127 H154 0.930 . S
C128 C123 1.407 . S
C128 C127 1.384 . S
C128 H155 0.929 . S
C129 O142 1.241 . S
C129 O143 1.273 . S
C130 O144 1.251 . S
C130 O145 1.268 . S
C131 Nd121 2.836 1_556 S
C131 C132 1.498 . S
C131 O146 1.258 . S
C131 O147 1.239 . S
C132 C131 1.498 . S
C132 C133 1.366 . S
C132 C137 1.407 . S
C133 C132 1.366 . S
C133 C134 1.392 . S
C133 H156 0.930 . S
C134 C133 1.392 . S
C134 C135 1.398 . S
C134 H157 0.929 . S
C135 C134 1.398 . S
C135 C136 1.352 . S
C136 C135 1.352 . S
C136 C137 1.384 . S
C136 H158 0.930 . S
C137 C132 1.407 . S
C137 C136 1.384 . S
C137 H159 0.929 . S
C138 O148 1.241 . S
C138 O149 1.273 . S
C139 O150 1.251 . S
C139 O151 1.268 1_556 S
O140 Nd120 2.500 . S
O140 C122 1.258 . S
O141 Nd120 2.492 . S
O141 C122 1.239 . S
O142 Nd120 2.487 . S
O142 C129 1.241 . S
O143 Nd120 2.682 . S
O143 Nd121 2.414 . S
O143 C129 1.273 . S
O144 Nd120 2.410 . S
O144 C130 1.251 . S
O145 Nd121 2.424 . S
O145 C130 1.268 . S
O146 Nd121 2.500 1_556 S
O146 C131 1.258 . S
O147 Nd121 2.492 1_556 S
O147 C131 1.239 . S
O148 Nd121 2.487 . S
O148 C138 1.241 . S
O149 Nd120 2.414 . S
O149 Nd121 2.682 . S
O149 C138 1.273 . S
O150 Nd121 2.410 1_556 S
O150 C139 1.251 . S
O151 Nd120 2.424 . S
O151 C139 1.268 1_554 S
H152 C124 0.930 . S
H153 C125 0.929 1_455 S
H154 C127 0.930 . S
H155 C128 0.929 . S
H156 C133 0.930 . S
H157 C134 0.929 . S
H158 C136 0.930 . S
H159 C137 0.929 . S
Nd160 C162 2.836 . S
Nd160 O180 2.500 . S
Nd160 O181 2.492 . S
Nd160 O182 2.487 . S
Nd160 O183 2.682 . S
Nd160 O184 2.410 . S
Nd160 O189 2.414 . S
Nd160 O191 2.424 . S
Nd161 C171 2.836 . S
Nd161 O183 2.414 . S
Nd161 O185 2.424 . S
Nd161 O186 2.500 . S
Nd161 O187 2.492 . S
Nd161 O188 2.487 . S
Nd161 O189 2.682 . S
Nd161 O190 2.410 . S
C162 Nd160 2.836 . S
C162 C163 1.498 . S
C162 O180 1.258 . S
C162 O181 1.239 . S
C163 C162 1.498 . S
C163 C164 1.366 . S
C163 C168 1.407 . S
C164 C163 1.366 . S
C164 C165 1.392 . S
C164 H192 0.930 . S
C165 C164 1.392 . S
C165 C166 1.398 . S
C165 H193 0.929 1_565 S
C166 C165 1.398 . S
C166 C167 1.352 . S
C167 C166 1.352 . S
C167 C168 1.384 . S
C167 H194 0.930 . S
C168 C163 1.407 . S
C168 C167 1.384 . S
C168 H195 0.929 . S
C169 O182 1.241 . S
C169 O183 1.273 . S
C170 O184 1.251 . S
C170 O185 1.268 . S
C171 Nd161 2.836 . S
C171 C172 1.498 . S
C171 O186 1.258 . S
C171 O187 1.239 . S
C172 C171 1.498 . S
C172 C173 1.366 . S
C172 C177 1.407 . S
C173 C172 1.366 . S
C173 C174 1.392 . S
C173 H196 0.930 . S
C174 C173 1.392 . S
C174 C175 1.398 . S
C174 H197 0.929 . S
C175 C174 1.398 . S
C175 C176 1.352 . S
C176 C175 1.352 . S
C176 C177 1.384 . S
C176 H198 0.930 . S
C177 C172 1.407 . S
C177 C176 1.384 . S
C177 H199 0.929 . S
C178 O188 1.241 . S
C178 O189 1.273 . S
C179 O190 1.251 . S
C179 O191 1.268 . S
O180 Nd160 2.500 . S
O180 C162 1.258 . S
O181 Nd160 2.492 . S
O181 C162 1.239 . S
O182 Nd160 2.487 . S
O182 C169 1.241 . S
O183 Nd160 2.682 . S
O183 Nd161 2.414 . S
O183 C169 1.273 . S
O184 Nd160 2.410 . S
O184 C170 1.251 . S
O185 Nd161 2.424 . S
O185 C170 1.268 . S
O186 Nd161 2.500 . S
O186 C171 1.258 . S
O187 Nd161 2.492 . S
O187 C171 1.239 . S
O188 Nd161 2.487 . S
O188 C178 1.241 . S
O189 Nd160 2.414 . S
O189 Nd161 2.682 . S
O189 C178 1.273 . S
O190 Nd161 2.410 . S
O190 C179 1.251 . S
O191 Nd160 2.424 . S
O191 C179 1.268 . S
H192 C164 0.930 . S
H193 C165 0.929 1_545 S
H194 C167 0.930 . S
H195 C168 0.929 . S
H196 C173 0.930 . S
H197 C174 0.929 . S
H198 C176 0.930 . S
H199 C177 0.929 . S
Nd200 C202 2.836 . S
Nd200 O220 2.500 . S
Nd200 O221 2.492 . S
Nd200 O222 2.487 . S
Nd200 O223 2.682 . S
Nd200 O224 2.410 . S
Nd200 O229 2.414 . S
Nd200 O231 2.424 . S
Nd201 C211 2.836 . S
Nd201 O223 2.414 . S
Nd201 O225 2.424 . S
Nd201 O226 2.500 . S
Nd201 O227 2.492 . S
Nd201 O228 2.487 . S
Nd201 O229 2.682 . S
Nd201 O230 2.410 . S
C202 Nd200 2.836 . S
C202 C203 1.498 . S
C202 O220 1.258 . S
C202 O221 1.239 . S
C203 C202 1.498 . S
C203 C204 1.366 . S
C203 C208 1.407 . S
C204 C203 1.366 . S
C204 C205 1.392 . S
C204 H232 0.930 . S
C205 C204 1.392 . S
C205 C206 1.398 . S
C205 H233 0.929 . S
C206 C205 1.398 . S
C206 C207 1.352 . S
C207 C206 1.352 . S
C207 C208 1.384 . S
C207 H234 0.930 . S
C208 C203 1.407 . S
C208 C207 1.384 . S
C208 H235 0.929 . S
C209 O222 1.241 . S
C209 O223 1.273 . S
C210 O224 1.251 . S
C210 O225 1.268 . S
C211 Nd201 2.836 . S
C211 C212 1.498 . S
C211 O226 1.258 . S
C211 O227 1.239 . S
C212 C211 1.498 . S
C212 C213 1.366 . S
C212 C217 1.407 . S
C213 C212 1.366 . S
C213 C214 1.392 . S
C213 H236 0.930 . S
C214 C213 1.392 . S
C214 C215 1.398 . S
C214 H237 0.929 . S
C215 C214 1.398 . S
C215 C216 1.352 . S
C216 C215 1.352 . S
C216 C217 1.384 . S
C216 H238 0.930 . S
C217 C212 1.407 . S
C217 C216 1.384 . S
C217 H239 0.929 . S
C218 O228 1.241 . S
C218 O229 1.273 . S
C219 O230 1.251 . S
C219 O231 1.268 . S
O220 Nd200 2.500 . S
O220 C202 1.258 . S
O221 Nd200 2.492 . S
O221 C202 1.239 . S
O222 Nd200 2.487 . S
O222 C209 1.241 . S
O223 Nd200 2.682 . S
O223 Nd201 2.414 . S
O223 C209 1.273 . S
O224 Nd200 2.410 . S
O224 C210 1.251 . S
O225 Nd201 2.424 . S
O225 C210 1.268 . S
O226 Nd201 2.500 . S
O226 C211 1.258 . S
O227 Nd201 2.492 . S
O227 C211 1.239 . S
O228 Nd201 2.487 . S
O228 C218 1.241 . S
O229 Nd200 2.414 . S
O229 Nd201 2.682 . S
O229 C218 1.273 . S
O230 Nd201 2.410 . S
O230 C219 1.251 . S
O231 Nd200 2.424 . S
O231 C219 1.268 . S
H232 C204 0.930 . S
H233 C205 0.929 . S
H234 C207 0.930 . S
H235 C208 0.929 . S
H236 C213 0.930 . S
H237 C214 0.929 . S
H238 C216 0.930 . S
H239 C217 0.929 . S
C240 C241 1.391 . S
C240 C242 1.394 . S
C240 H256 0.931 . S
C241 C240 1.391 . S
C241 C245 1.376 . S
C242 C240 1.394 . S
C242 C243 1.369 . S
C242 C246 1.531 . S
C243 C242 1.369 . S
C243 C244 1.410 . S
C243 C251 1.503 . S
C244 C243 1.410 . S
C244 C245 1.392 . S
C244 C247 1.511 . S
C245 C241 1.376 . S
C245 C244 1.392 . S
C245 H257 0.929 . S
C246 C242 1.531 . S
C246 H258 0.960 . S
C246 H259 0.962 . S
C246 H260 0.960 . S
C247 C244 1.511 . S
C247 H261 0.961 . S
C247 H262 0.961 . S
C247 H263 0.961 . S
C248 C249 1.370 . S
C248 C250 1.363 . S
C248 H264 0.931 . S
C249 C248 1.370 . S
C249 C253 1.408 . S
C250 C248 1.363 . S
C250 C251 1.370 . S
C250 C254 1.524 . S
C251 C243 1.503 . S
C251 C250 1.370 . S
C251 C252 1.403 . S
C252 C251 1.403 . S
C252 C253 1.404 . S
C252 C255 1.539 . S
C253 C249 1.408 . S
C253 C252 1.404 . S
C253 H265 0.930 . S
C254 C250 1.524 . S
C254 H266 0.956 . S
C254 H267 0.961 . S
C254 H268 0.961 . S
C255 C252 1.539 . S
C255 H269 0.958 . S
C255 H270 0.961 . S
C255 H271 0.960 . S
H256 C240 0.931 . S
H257 C245 0.929 . S
H258 C246 0.960 . S
H259 C246 0.962 . S
H260 C246 0.960 . S
H261 C247 0.961 . S
H262 C247 0.961 . S
H263 C247 0.961 . S
H264 C248 0.931 . S
H265 C253 0.930 . S
H266 C254 0.956 . S
H267 C254 0.961 . S
H268 C254 0.961 . S
H269 C255 0.958 . S
H270 C255 0.961 . S
H271 C255 0.960 . S
C272 C273 1.391 . S
C272 C274 1.394 . S
C272 H288 0.931 . S
C273 C272 1.391 . S
C273 C277 1.376 . S
C274 C272 1.394 . S
C274 C275 1.369 . S
C274 C278 1.531 . S
C275 C274 1.369 . S
C275 C276 1.410 . S
C275 C283 1.503 . S
C276 C275 1.410 . S
C276 C277 1.392 . S
C276 C279 1.511 . S
C277 C273 1.376 . S
C277 C276 1.392 . S
C277 H289 0.929 . S
C278 C274 1.531 . S
C278 H290 0.960 . S
C278 H291 0.962 . S
C278 H292 0.960 . S
C279 C276 1.511 . S
C279 H293 0.961 . S
C279 H294 0.961 . S
C279 H295 0.961 . S
C280 C281 1.370 . S
C280 C282 1.363 . S
C280 H296 0.931 . S
C281 C280 1.370 . S
C281 C285 1.408 . S
C282 C280 1.363 . S
C282 C283 1.370 . S
C282 C286 1.524 . S
C283 C275 1.503 . S
C283 C282 1.370 . S
C283 C284 1.403 . S
C284 C283 1.403 . S
C284 C285 1.404 . S
C284 C287 1.539 . S
C285 C281 1.408 . S
C285 C284 1.404 . S
C285 H297 0.930 . S
C286 C282 1.524 . S
C286 H298 0.956 . S
C286 H299 0.961 . S
C286 H300 0.961 . S
C287 C284 1.539 . S
C287 H301 0.958 . S
C287 H302 0.961 . S
C287 H303 0.960 . S
H288 C272 0.931 . S
H289 C277 0.929 . S
H290 C278 0.960 . S
H291 C278 0.962 . S
H292 C278 0.960 . S
H293 C279 0.961 . S
H294 C279 0.961 . S
H295 C279 0.961 . S
H296 C280 0.931 . S
H297 C285 0.930 . S
H298 C286 0.956 . S
H299 C286 0.961 . S
H300 C286 0.961 . S
H301 C287 0.958 . S
H302 C287 0.961 . S
H303 C287 0.960 . S
C304 C305 1.391 . S
C304 C306 1.394 . S
C304 H320 0.931 . S
C305 C304 1.391 . S
C305 C309 1.376 . S
C306 C304 1.394 . S
C306 C307 1.369 . S
C306 C310 1.531 . S
C307 C306 1.369 . S
C307 C308 1.410 . S
C307 C315 1.503 . S
C308 C307 1.410 . S
C308 C309 1.392 . S
C308 C311 1.511 . S
C309 C305 1.376 . S
C309 C308 1.392 . S
C309 H321 0.929 . S
C310 C306 1.531 . S
C310 H322 0.960 . S
C310 H323 0.962 . S
C310 H324 0.960 . S
C311 C308 1.511 . S
C311 H325 0.961 . S
C311 H326 0.961 . S
C311 H327 0.961 . S
C312 C313 1.370 . S
C312 C314 1.363 . S
C312 H328 0.931 . S
C313 C312 1.370 . S
C313 C317 1.408 . S
C314 C312 1.363 . S
C314 C315 1.370 . S
C314 C318 1.524 . S
C315 C307 1.503 . S
C315 C314 1.370 . S
C315 C316 1.403 . S
C316 C315 1.403 . S
C316 C317 1.404 . S
C316 C319 1.539 . S
C317 C313 1.408 . S
C317 C316 1.404 . S
C317 H329 0.930 . S
C318 C314 1.524 . S
C318 H330 0.956 . S
C318 H331 0.961 . S
C318 H332 0.961 . S
C319 C316 1.539 . S
C319 H333 0.958 . S
C319 H334 0.961 . S
C319 H335 0.960 . S
H320 C304 0.931 . S
H321 C309 0.929 . S
H322 C310 0.960 . S
H323 C310 0.962 . S
H324 C310 0.960 . S
H325 C311 0.961 . S
H326 C311 0.961 . S
H327 C311 0.961 . S
H328 C312 0.931 . S
H329 C317 0.930 . S
H330 C318 0.956 . S
H331 C318 0.961 . S
H332 C318 0.961 . S
H333 C319 0.958 . S
H334 C319 0.961 . S
H335 C319 0.960 . S
C336 C337 1.391 . S
C336 C338 1.394 . S
C336 H352 0.931 . S
C337 C336 1.391 . S
C337 C341 1.376 . S
C338 C336 1.394 . S
C338 C339 1.369 . S
C338 C342 1.531 . S
C339 C338 1.369 . S
C339 C340 1.410 . S
C339 C347 1.503 . S
C340 C339 1.410 . S
C340 C341 1.392 . S
C340 C343 1.511 . S
C341 C337 1.376 . S
C341 C340 1.392 . S
C341 H353 0.929 . S
C342 C338 1.531 . S
C342 H354 0.960 . S
C342 H355 0.962 . S
C342 H356 0.960 . S
C343 C340 1.511 . S
C343 H357 0.961 . S
C343 H358 0.961 . S
C343 H359 0.961 . S
C344 C345 1.370 . S
C344 C346 1.363 . S
C344 H360 0.931 . S
C345 C344 1.370 . S
C345 C349 1.408 . S
C346 C344 1.363 . S
C346 C347 1.370 . S
C346 C350 1.524 . S
C347 C339 1.503 . S
C347 C346 1.370 . S
C347 C348 1.403 . S
C348 C347 1.403 . S
C348 C349 1.404 . S
C348 C351 1.539 . S
C349 C345 1.408 . S
C349 C348 1.404 . S
C349 H361 0.930 . S
C350 C346 1.524 . S
C350 H362 0.956 . S
C350 H363 0.961 . S
C350 H364 0.961 . S
C351 C348 1.539 . S
C351 H365 0.958 . S
C351 H366 0.961 . S
C351 H367 0.960 . S
H352 C336 0.931 . S
H353 C341 0.929 . S
H354 C342 0.960 . S
H355 C342 0.962 . S
H356 C342 0.960 . S
H357 C343 0.961 . S
H358 C343 0.961 . S
H359 C343 0.961 . S
H360 C344 0.931 . S
H361 C349 0.930 . S
H362 C350 0.956 . S
H363 C350 0.961 . S
H364 C350 0.961 . S
H365 C351 0.958 . S
H366 C351 0.961 . S
H367 C351 0.960 . S
C368 C369 1.391 . S
C368 C370 1.394 . S
C368 H384 0.931 . S
C369 C368 1.391 . S
C369 C373 1.376 . S
C370 C368 1.394 . S
C370 C371 1.369 . S
C370 C374 1.531 . S
C371 C370 1.369 . S
C371 C372 1.410 . S
C371 C379 1.503 . S
C372 C371 1.410 . S
C372 C373 1.392 . S
C372 C375 1.511 . S
C373 C369 1.376 . S
C373 C372 1.392 . S
C373 H385 0.929 . S
C374 C370 1.531 . S
C374 H386 0.960 . S
C374 H387 0.962 . S
C374 H388 0.960 . S
C375 C372 1.511 . S
C375 H389 0.961 . S
C375 H390 0.961 . S
C375 H391 0.961 . S
C376 C377 1.370 . S
C376 C378 1.363 . S
C376 H392 0.931 . S
C377 C376 1.370 . S
C377 C381 1.408 . S
C378 C376 1.363 . S
C378 C379 1.370 . S
C378 C382 1.524 . S
C379 C371 1.503 . S
C379 C378 1.370 . S
C379 C380 1.403 . S
C380 C379 1.403 . S
C380 C381 1.404 . S
C380 C383 1.539 . S
C381 C377 1.408 . S
C381 C380 1.404 . S
C381 H393 0.930 . S
C382 C378 1.524 . S
C382 H394 0.956 . S
C382 H395 0.961 . S
C382 H396 0.961 . S
C383 C380 1.539 . S
C383 H397 0.958 . S
C383 H398 0.961 . S
C383 H399 0.960 . S
H384 C368 0.931 . S
H385 C373 0.929 . S
H386 C374 0.960 . S
H387 C374 0.962 . S
H388 C374 0.960 . S
H389 C375 0.961 . S
H390 C375 0.961 . S
H391 C375 0.961 . S
H392 C376 0.931 . S
H393 C381 0.930 . S
H394 C382 0.956 . S
H395 C382 0.961 . S
H396 C382 0.961 . S
H397 C383 0.958 . S
H398 C383 0.961 . S
H399 C383 0.960 . S
C400 C401 1.391 . S
C400 C402 1.394 . S
C400 H416 0.931 . S
C401 C400 1.391 . S
C401 C405 1.376 . S
C402 C400 1.394 . S
C402 C403 1.369 . S
C402 C406 1.531 . S
C403 C402 1.369 . S
C403 C404 1.410 . S
C403 C411 1.503 . S
C404 C403 1.410 . S
C404 C405 1.392 . S
C404 C407 1.511 . S
C405 C401 1.376 . S
C405 C404 1.392 . S
C405 H417 0.929 . S
C406 C402 1.531 . S
C406 H418 0.960 . S
C406 H419 0.962 . S
C406 H420 0.960 . S
C407 C404 1.511 . S
C407 H421 0.961 . S
C407 H422 0.961 . S
C407 H423 0.961 . S
C408 C409 1.370 . S
C408 C410 1.363 . S
C408 H424 0.931 . S
C409 C408 1.370 . S
C409 C413 1.408 . S
C410 C408 1.363 . S
C410 C411 1.370 . S
C410 C414 1.524 . S
C411 C403 1.503 . S
C411 C410 1.370 . S
C411 C412 1.403 . S
C412 C411 1.403 . S
C412 C413 1.404 . S
C412 C415 1.539 . S
C413 C409 1.408 . S
C413 C412 1.404 . S
C413 H425 0.930 . S
C414 C410 1.524 . S
C414 H426 0.956 . S
C414 H427 0.961 . S
C414 H428 0.961 . S
C415 C412 1.539 . S
C415 H429 0.958 . S
C415 H430 0.961 . S
C415 H431 0.960 . S
H416 C400 0.931 . S
H417 C405 0.929 . S
H418 C406 0.960 . S
H419 C406 0.962 . S
H420 C406 0.960 . S
H421 C407 0.961 . S
H422 C407 0.961 . S
H423 C407 0.961 . S
H424 C408 0.931 . S
H425 C413 0.930 . S
H426 C414 0.956 . S
H427 C414 0.961 . S
H428 C414 0.961 . S
H429 C415 0.958 . S
H430 C415 0.961 . S
H431 C415 0.960 . S
C432 C433 1.391 . S
C432 C434 1.394 . S
C432 H448 0.931 . S
C433 C432 1.391 . S
C433 C437 1.376 . S
C434 C432 1.394 . S
C434 C435 1.369 . S
C434 C438 1.531 . S
C435 C434 1.369 . S
C435 C436 1.410 . S
C435 C443 1.503 . S
C436 C435 1.410 . S
C436 C437 1.392 . S
C436 C439 1.511 . S
C437 C433 1.376 . S
C437 C436 1.392 . S
C437 H449 0.929 . S
C438 C434 1.531 . S
C438 H450 0.960 . S
C438 H451 0.962 . S
C438 H452 0.960 1_554 S
C439 C436 1.511 . S
C439 H453 0.961 . S
C439 H454 0.961 . S
C439 H455 0.961 . S
C440 C441 1.370 . S
C440 C442 1.363 . S
C440 H456 0.931 . S
C441 C440 1.370 . S
C441 C445 1.408 . S
C442 C440 1.363 . S
C442 C443 1.370 . S
C442 C446 1.524 . S
C443 C435 1.503 . S
C443 C442 1.370 . S
C443 C444 1.403 . S
C444 C443 1.403 . S
C444 C445 1.404 . S
C444 C447 1.539 1_554 S
C445 C441 1.408 . S
C445 C444 1.404 . S
C445 H457 0.930 . S
C446 C442 1.524 . S
C446 H458 0.956 . S
C446 H459 0.961 . S
C446 H460 0.961 . S
C447 C444 1.539 1_556 S
C447 H461 0.958 . S
C447 H462 0.961 . S
C447 H463 0.974 . S
H448 C432 0.931 . S
H449 C437 0.929 . S
H450 C438 0.960 . S
H451 C438 0.962 . S
H452 C438 0.960 1_556 S
H453 C439 0.961 . S
H454 C439 0.961 . S
H455 C439 0.961 . S
H456 C440 0.931 . S
H457 C445 0.930 . S
H458 C446 0.956 . S
H459 C446 0.961 . S
H460 C446 0.961 . S
H461 C447 0.958 . S
H462 C447 0.961 . S
H463 C447 0.974 . S
C464 C465 1.391 . S
C464 C466 1.394 . S
C464 H480 0.931 . S
C465 C464 1.391 . S
C465 C469 1.376 . S
C466 C464 1.394 . S
C466 C467 1.369 . S
C466 C470 1.531 . S
C467 C466 1.369 . S
C467 C468 1.410 1_455 S
C467 C475 1.503 1_455 S
C468 C467 1.410 1_655 S
C468 C469 1.392 1_655 S
C468 C471 1.511 . S
C469 C465 1.376 . S
C469 C468 1.392 1_455 S
C469 H481 0.929 1_455 S
C470 C466 1.531 . S
C470 H482 0.960 . S
C470 H483 0.962 . S
C470 H484 0.960 . S
C471 C468 1.511 . S
C471 H485 0.961 . S
C471 H486 0.961 . S
C471 H487 0.961 . S
C472 C473 1.370 . S
C472 C474 1.363 . S
C472 H488 0.931 . S
C473 C472 1.370 . S
C473 C477 1.408 . S
C474 C472 1.363 . S
C474 C475 1.370 . S
C474 C478 1.524 . S
C475 C467 1.503 1_655 S
C475 C474 1.370 . S
C475 C476 1.403 . S
C476 C475 1.403 . S
C476 C477 1.404 . S
C476 C479 1.539 . S
C477 C473 1.408 . S
C477 C476 1.404 . S
C477 H489 0.930 . S
C478 C474 1.524 . S
C478 H490 0.956 1_655 S
C478 H491 0.961 . S
C478 H492 0.961 . S
C479 C476 1.539 . S
C479 H493 0.958 1_655 S
C479 H494 0.961 . S
C479 H495 0.960 . S
H480 C464 0.931 . S
H481 C469 0.929 1_655 S
H482 C470 0.960 . S
H483 C470 0.962 . S
H484 C470 0.960 . S
H485 C471 0.961 . S
H486 C471 0.961 . S
H487 C471 0.961 . S
H488 C472 0.931 . S
H489 C477 0.930 . S
H490 C478 0.956 1_455 S
H491 C478 0.961 . S
H492 C478 0.961 . S
H493 C479 0.958 1_455 S
H494 C479 0.961 . S
H495 C479 0.960 . S
C496 C497 1.391 . S
C496 C498 1.394 1_545 S
C496 H512 0.931 1_545 S
C497 C496 1.391 . S
C497 C501 1.376 . S
C498 C496 1.394 1_565 S
C498 C499 1.369 1_565 S
C498 C502 1.531 . S
C499 C498 1.369 1_545 S
C499 C500 1.410 . S
C499 C507 1.503 1_545 S
C500 C499 1.410 . S
C500 C501 1.392 . S
C500 C503 1.511 . S
C501 C497 1.376 . S
C501 C500 1.392 . S
C501 H513 0.929 . S
C502 C498 1.531 . S
C502 H514 0.960 . S
C502 H515 0.962 . S
C502 H516 0.960 . S
C503 C500 1.511 . S
C503 H517 0.961 . S
C503 H518 0.961 . S
C503 H519 0.961 . S
C504 C505 1.370 . S
C504 C506 1.363 . S
C504 H520 0.931 . S
C505 C504 1.370 . S
C505 C509 1.408 . S
C506 C504 1.363 . S
C506 C507 1.370 . S
C506 C510 1.524 1_565 S
C507 C499 1.503 1_565 S
C507 C506 1.370 . S
C507 C508 1.403 . S
C508 C507 1.403 . S
C508 C509 1.404 . S
C508 C511 1.539 . S
C509 C505 1.408 . S
C509 C508 1.404 . S
C509 H521 0.930 . S
C510 C506 1.524 1_545 S
C510 H522 0.956 . S
C510 H523 0.961 . S
C510 H524 0.961 . S
C511 C508 1.539 . S
C511 H525 0.958 . S
C511 H526 0.961 . S
C511 H527 0.960 . S
H512 C496 0.931 1_565 S
H513 C501 0.929 . S
H514 C502 0.960 . S
H515 C502 0.962 . S
H516 C502 0.960 . S
H517 C503 0.961 . S
H518 C503 0.961 . S
H519 C503 0.961 . S
H520 C504 0.931 . S
H521 C509 0.930 . S
H522 C510 0.956 . S
H523 C510 0.961 . S
H524 C510 0.961 . S
H525 C511 0.958 . S
H526 C511 0.961 . S
H527 C511 0.960 . S
C528 C529 1.391 . S
C528 C530 1.394 . S
C528 H544 0.931 . S
C529 C528 1.391 . S
C529 C533 1.376 . S
C530 C528 1.394 . S
C530 C531 1.369 . S
C530 C534 1.531 . S
C531 C530 1.369 . S
C531 C532 1.410 . S
C531 C539 1.503 . S
C532 C531 1.410 . S
C532 C533 1.392 . S
C532 C535 1.511 . S
C533 C529 1.376 . S
C533 C532 1.392 . S
C533 H545 0.929 . S
C534 C530 1.531 . S
C534 H546 0.960 . S
C534 H547 0.962 . S
C534 H548 0.960 . S
C535 C532 1.511 . S
C535 H549 0.961 . S
C535 H550 0.961 . S
C535 H551 0.961 . S
C536 C537 1.370 . S
C536 C538 1.363 . S
C536 H552 0.931 . S
C537 C536 1.370 . S
C537 C541 1.408 . S
C538 C536 1.363 . S
C538 C539 1.370 . S
C538 C542 1.524 . S
C539 C531 1.503 . S
C539 C538 1.370 . S
C539 C540 1.403 . S
C540 C539 1.403 . S
C540 C541 1.404 . S
C540 C543 1.539 . S
C541 C537 1.408 . S
C541 C540 1.404 . S
C541 H553 0.930 . S
C542 C538 1.524 . S
C542 H554 0.956 . S
C542 H555 0.961 . S
C542 H556 0.961 . S
C543 C540 1.539 . S
C543 H557 0.958 . S
C543 H558 0.961 . S
C543 H559 0.960 . S
H544 C528 0.931 . S
H545 C533 0.929 . S
H546 C534 0.960 . S
H547 C534 0.962 . S
H548 C534 0.960 . S
H549 C535 0.961 . S
H550 C535 0.961 . S
H551 C535 0.961 . S
H552 C536 0.931 . S
H553 C541 0.930 . S
H554 C542 0.956 . S
H555 C542 0.961 . S
H556 C542 0.961 . S
H557 C543 0.958 . S
H558 C543 0.961 . S
H559 C543 0.960 . S
C560 C561 1.391 . S
C560 C562 1.394 . S
C560 H576 0.931 1_554 S
C561 C560 1.391 . S
C561 C565 1.376 . S
C562 C560 1.394 . S
C562 C563 1.369 . S
C562 C566 1.531 1_454 S
C563 C562 1.369 . S
C563 C564 1.410 . S
C563 C571 1.503 1_455 S
C564 C563 1.410 . S
C564 C565 1.392 . S
C564 C567 1.511 . S
C565 C561 1.376 . S
C565 C564 1.392 . S
C565 H577 0.929 . S
C566 C562 1.531 1_656 S
C566 H578 0.960 . S
C566 H579 0.962 1_655 S
C566 H580 0.960 . S
C567 C564 1.511 . S
C567 H581 0.961 . S
C567 H582 0.961 . S
C567 H583 0.961 1_455 S
C568 C569 1.370 . S
C568 C570 1.363 1_655 S
C568 H584 0.931 1_655 S
C569 C568 1.370 . S
C569 C573 1.408 . S
C570 C568 1.363 1_455 S
C570 C571 1.370 1_455 S
C570 C574 1.524 . S
C571 C563 1.503 1_655 S
C571 C570 1.370 1_655 S
C571 C572 1.403 . S
C572 C571 1.403 . S
C572 C573 1.404 . S
C572 C575 1.539 . S
C573 C569 1.408 . S
C573 C572 1.404 . S
C573 H585 0.930 . S
C574 C570 1.524 . S
C574 H586 0.956 1_554 S
C574 H587 0.961 . S
C574 H588 0.961 . S
C575 C572 1.539 . S
C575 H589 0.958 . S
C575 H590 0.961 . S
C575 H591 0.960 . S
H576 C560 0.931 1_556 S
H577 C565 0.929 . S
H578 C566 0.960 . S
H579 C566 0.962 1_455 S
H580 C566 0.960 . S
H581 C567 0.961 . S
H582 C567 0.961 . S
H583 C567 0.961 1_655 S
H584 C568 0.931 1_455 S
H585 C573 0.930 . S
H586 C574 0.956 1_556 S
H587 C574 0.961 . S
H588 C574 0.961 . S
H589 C575 0.958 . S
H590 C575 0.961 . S
H591 C575 0.960 . S
C592 C593 1.391 . S
C592 C594 1.394 1_565 S
C592 H608 0.931 1_565 S
C593 C592 1.391 . S
C593 C597 1.376 . S
C594 C592 1.394 1_545 S
C594 C595 1.369 1_545 S
C594 C598 1.531 . S
C595 C594 1.369 1_565 S
C595 C596 1.410 . S
C595 C603 1.503 1_565 S
C596 C595 1.410 . S
C596 C597 1.392 . S
C596 C599 1.511 . S
C597 C593 1.376 . S
C597 C596 1.392 . S
C597 H609 0.929 . S
C598 C594 1.531 . S
C598 H610 0.960 . S
C598 H611 0.962 . S
C598 H612 0.960 . S
C599 C596 1.511 . S
C599 H613 0.961 . S
C599 H614 0.961 . S
C599 H615 0.961 . S
C600 C601 1.370 . S
C600 C602 1.363 . S
C600 H616 0.931 . S
C601 C600 1.370 . S
C601 C605 1.408 . S
C602 C600 1.363 . S
C602 C603 1.370 . S
C602 C606 1.524 1_545 S
C603 C595 1.503 1_545 S
C603 C602 1.370 . S
C603 C604 1.403 . S
C604 C603 1.403 . S
C604 C605 1.404 . S
C604 C607 1.539 . S
C605 C601 1.408 . S
C605 C604 1.404 . S
C605 H617 0.930 . S
C606 C602 1.524 1_565 S
C606 H618 0.956 . S
C606 H619 0.961 . S
C606 H620 0.961 . S
C607 C604 1.539 . S
C607 H621 0.958 . S
C607 H622 0.961 . S
C607 H623 0.960 . S
H608 C592 0.931 1_545 S
H609 C597 0.929 . S
H610 C598 0.960 . S
H611 C598 0.962 . S
H612 C598 0.960 . S
H613 C599 0.961 . S
H614 C599 0.961 . S
H615 C599 0.961 . S
H616 C600 0.931 . S
H617 C605 0.930 . S
H618 C606 0.956 . S
H619 C606 0.961 . S
H620 C606 0.961 . S
H621 C607 0.958 . S
H622 C607 0.961 . S
H623 C607 0.960 . S
C624 C625 1.391 . S
C624 C626 1.394 . S
C624 H640 0.931 . S
C625 C624 1.391 . S
C625 C629 1.376 . S
C626 C624 1.394 . S
C626 C627 1.369 . S
C626 C630 1.531 . S
C627 C626 1.369 . S
C627 C628 1.410 . S
C627 C635 1.503 . S
C628 C627 1.410 . S
C628 C629 1.392 . S
C628 C631 1.511 . S
C629 C625 1.376 . S
C629 C628 1.392 . S
C629 H641 0.929 . S
C630 C626 1.531 . S
C630 H642 0.960 . S
C630 H643 0.962 . S
C630 H644 0.960 . S
C631 C628 1.511 . S
C631 H645 0.961 . S
C631 H646 0.961 . S
C631 H647 0.961 . S
C632 C633 1.370 . S
C632 C634 1.363 . S
C632 H648 0.931 . S
C633 C632 1.370 . S
C633 C637 1.408 . S
C634 C632 1.363 . S
C634 C635 1.370 . S
C634 C638 1.524 . S
C635 C627 1.503 . S
C635 C634 1.370 . S
C635 C636 1.403 . S
C636 C635 1.403 . S
C636 C637 1.404 . S
C636 C639 1.539 . S
C637 C633 1.408 . S
C637 C636 1.404 . S
C637 H649 0.930 . S
C638 C634 1.524 . S
C638 H650 0.956 . S
C638 H651 0.961 . S
C638 H652 0.961 . S
C639 C636 1.539 . S
C639 H653 0.958 . S
C639 H654 0.961 . S
C639 H655 0.960 . S
H640 C624 0.931 . S
H641 C629 0.929 . S
H642 C630 0.960 . S
H643 C630 0.962 . S
H644 C630 0.960 . S
H645 C631 0.961 . S
H646 C631 0.961 . S
H647 C631 0.961 . S
H648 C632 0.931 . S
H649 C637 0.930 . S
H650 C638 0.956 . S
H651 C638 0.961 . S
H652 C638 0.961 . S
H653 C639 0.958 . S
H654 C639 0.961 . S
H655 C639 0.960 . S
C656 C657 1.391 . S
C656 C658 1.394 . S
C656 H672 0.931 . S
C657 C656 1.391 . S
C657 C661 1.376 . S
C658 C656 1.394 . S
C658 C659 1.369 . S
C658 C662 1.531 . S
C659 C658 1.369 . S
C659 C660 1.410 . S
C659 C667 1.503 . S
C660 C659 1.410 . S
C660 C661 1.392 . S
C660 C663 1.511 . S
C661 C657 1.376 . S
C661 C660 1.392 . S
C661 H673 0.929 . S
C662 C658 1.531 . S
C662 H674 0.960 . S
C662 H675 0.962 . S
C662 H676 0.960 . S
C663 C660 1.511 . S
C663 H677 0.961 . S
C663 H678 0.961 . S
C663 H679 0.980 . S
C664 C665 1.370 1_655 S
C664 C666 1.363 . S
C664 H680 0.931 . S
C665 C664 1.370 1_455 S
C665 C669 1.408 . S
C666 C664 1.363 . S
C666 C667 1.370 . S
C666 C670 1.524 . S
C667 C659 1.503 . S
C667 C666 1.370 . S
C667 C668 1.403 1_655 S
C668 C667 1.403 1_455 S
C668 C669 1.404 . S
C668 C671 1.539 . S
C669 C665 1.408 . S
C669 C668 1.404 . S
C669 H681 0.930 . S
C670 C666 1.524 . S
C670 H682 0.956 . S
C670 H683 0.961 . S
C670 H684 0.961 . S
C671 C668 1.539 . S
C671 H685 0.958 . S
C671 H686 0.961 . S
C671 H687 0.960 . S
H672 C656 0.931 . S
H673 C661 0.929 . S
H674 C662 0.960 . S
H675 C662 0.962 . S
H676 C662 0.960 . S
H677 C663 0.961 . S
H678 C663 0.961 . S
H679 C663 0.980 . S
H680 C664 0.931 . S
H681 C669 0.930 . S
H682 C670 0.956 . S
H683 C670 0.961 . S
H684 C670 0.961 . S
H685 C671 0.958 . S
H686 C671 0.961 . S
H687 C671 0.960 . S
C688 C689 1.391 . S
C688 C690 1.394 . S
C688 H704 0.931 . S
C689 C688 1.391 . S
C689 C693 1.376 . S
C690 C688 1.394 . S
C690 C691 1.369 . S
C690 C694 1.531 1_565 S
C691 C690 1.369 . S
C691 C692 1.410 . S
C691 C699 1.503 . S
C692 C691 1.410 . S
C692 C693 1.392 . S
C692 C695 1.511 . S
C693 C689 1.376 . S
C693 C692 1.392 . S
C693 H705 0.929 . S
C694 C690 1.531 1_545 S
C694 H706 0.960 . S
C694 H707 0.962 1_545 S
C694 H708 0.960 . S
C695 C692 1.511 . S
C695 H709 0.961 . S
C695 H710 0.961 . S
C695 H711 0.961 . S
C696 C697 1.370 1_565 S
C696 C698 1.363 . S
C696 H712 0.931 . S
C697 C696 1.370 1_545 S
C697 C701 1.408 . S
C698 C696 1.363 . S
C698 C699 1.370 . S
C698 C702 1.524 . S
C699 C691 1.503 . S
C699 C698 1.370 . S
C699 C700 1.403 1_565 S
C700 C699 1.403 1_545 S
C700 C701 1.404 . S
C700 C703 1.539 . S
C701 C697 1.408 . S
C701 C700 1.404 . S
C701 H713 0.930 . S
C702 C698 1.524 . S
C702 H714 0.956 . S
C702 H715 0.961 . S
C702 H716 0.961 . S
C703 C700 1.539 . S
C703 H717 0.958 . S
C703 H718 0.961 . S
C703 H719 0.960 . S
H704 C688 0.931 . S
H705 C693 0.929 . S
H706 C694 0.960 . S
H707 C694 0.962 1_565 S
H708 C694 0.960 . S
H709 C695 0.961 . S
H710 C695 0.961 . S
H711 C695 0.961 . S
H712 C696 0.931 . S
H713 C701 0.930 . S
H714 C702 0.956 . S
H715 C702 0.961 . S
H716 C702 0.961 . S
H717 C703 0.958 . S
H718 C703 0.961 . S
H719 C703 0.960 . S
C720 C721 1.391 . S
C720 C722 1.394 . S
C720 H736 0.931 . S
C721 C720 1.391 . S
C721 C725 1.376 . S
C722 C720 1.394 . S
C722 C723 1.369 . S
C722 C726 1.531 . S
C723 C722 1.369 . S
C723 C724 1.410 . S
C723 C731 1.503 . S
C724 C723 1.410 . S
C724 C725 1.392 . S
C724 C727 1.511 . S
C725 C721 1.376 . S
C725 C724 1.392 . S
C725 H737 0.929 . S
C726 C722 1.531 . S
C726 H738 0.960 . S
C726 H739 0.962 . S
C726 H740 0.960 . S
C727 C724 1.511 . S
C727 H741 0.961 . S
C727 H742 0.961 . S
C727 H743 0.961 . S
C728 C729 1.370 . S
C728 C730 1.363 . S
C728 H744 0.931 . S
C729 C728 1.370 . S
C729 C733 1.408 . S
C730 C728 1.363 . S
C730 C731 1.370 . S
C730 C734 1.524 . S
C731 C723 1.503 . S
C731 C730 1.370 . S
C731 C732 1.403 . S
C732 C731 1.403 . S
C732 C733 1.404 . S
C732 C735 1.539 . S
C733 C729 1.408 . S
C733 C732 1.404 . S
C733 H745 0.930 . S
C734 C730 1.524 . S
C734 H746 0.956 . S
C734 H747 0.961 . S
C734 H748 0.961 . S
C735 C732 1.539 . S
C735 H749 0.958 . S
C735 H750 0.961 . S
C735 H751 0.960 . S
H736 C720 0.931 . S
H737 C725 0.929 . S
H738 C726 0.960 . S
H739 C726 0.962 . S
H740 C726 0.960 . S
H741 C727 0.961 . S
H742 C727 0.961 . S
H743 C727 0.961 . S
H744 C728 0.931 . S
H745 C733 0.930 . S
H746 C734 0.956 . S
H747 C734 0.961 . S
H748 C734 0.961 . S
H749 C735 0.958 . S
H750 C735 0.961 . S
H751 C735 0.960 . S
C752 C753 1.391 . S
C752 C754 1.394 . S
C752 H768 0.931 . S
C753 C752 1.391 . S
C753 C757 1.376 . S
C754 C752 1.394 . S
C754 C755 1.369 . S
C754 C758 1.531 . S
C755 C754 1.369 . S
C755 C756 1.410 . S
C755 C763 1.503 . S
C756 C755 1.410 . S
C756 C757 1.392 . S
C756 C759 1.511 . S
C757 C753 1.376 . S
C757 C756 1.392 . S
C757 H769 0.929 . S
C758 C754 1.531 . S
C758 H770 0.960 . S
C758 H771 0.962 . S
C758 H772 0.960 . S
C759 C756 1.511 . S
C759 H773 0.961 . S
C759 H774 0.961 . S
C759 H775 0.961 1_455 S
C760 C761 1.370 1_455 S
C760 C762 1.363 . S
C760 H776 0.931 . S
C761 C760 1.370 1_655 S
C761 C765 1.408 . S
C762 C760 1.363 . S
C762 C763 1.370 . S
C762 C766 1.524 . S
C763 C755 1.503 . S
C763 C762 1.370 . S
C763 C764 1.403 1_455 S
C764 C763 1.403 1_655 S
C764 C765 1.404 . S
C764 C767 1.539 . S
C765 C761 1.408 . S
C765 C764 1.404 . S
C765 H777 0.930 . S
C766 C762 1.524 . S
C766 H778 0.956 . S
C766 H779 0.961 . S
C766 H780 0.961 . S
C767 C764 1.539 . S
C767 H781 0.958 . S
C767 H782 0.961 . S
C767 H783 0.960 . S
H768 C752 0.931 . S
H769 C757 0.929 . S
H770 C758 0.960 . S
H771 C758 0.962 . S
H772 C758 0.960 . S
H773 C759 0.961 . S
H774 C759 0.961 . S
H775 C759 0.961 1_655 S
H776 C760 0.931 . S
H777 C765 0.930 . S
H778 C766 0.956 . S
H779 C766 0.961 . S
H780 C766 0.961 . S
H781 C767 0.958 . S
H782 C767 0.961 . S
H783 C767 0.960 . S
C784 C785 1.391 . S
C784 C786 1.394 . S
C784 H800 0.931 . S
C785 C784 1.391 . S
C785 C789 1.376 . S
C786 C784 1.394 . S
C786 C787 1.369 . S
C786 C790 1.531 1_545 S
C787 C786 1.369 . S
C787 C788 1.410 . S
C787 C795 1.503 . S
C788 C787 1.410 . S
C788 C789 1.392 . S
C788 C791 1.511 . S
C789 C785 1.376 . S
C789 C788 1.392 . S
C789 H801 0.929 . S
C790 C786 1.531 1_565 S
C790 H802 0.960 . S
C790 H803 0.962 . S
C790 H804 0.960 . S
C791 C788 1.511 . S
C791 H805 0.961 . S
C791 H806 0.961 . S
C791 H807 0.961 . S
C792 C793 1.370 . S
C792 C794 1.363 1_565 S
C792 H808 0.931 . S
C793 C792 1.370 . S
C793 C797 1.408 1_565 S
C794 C792 1.363 1_545 S
C794 C795 1.370 . S
C794 C798 1.524 . S
C795 C787 1.503 . S
C795 C794 1.370 . S
C795 C796 1.403 . S
C796 C795 1.403 . S
C796 C797 1.404 . S
C796 C799 1.539 . S
C797 C793 1.408 1_545 S
C797 C796 1.404 . S
C797 H809 0.930 . S
C798 C794 1.524 . S
C798 H810 0.956 1_545 S
C798 H811 0.961 . S
C798 H812 0.961 1_545 S
C799 C796 1.539 . S
C799 H813 0.958 . S
C799 H814 0.961 . S
C799 H815 0.960 . S
H800 C784 0.931 . S
H801 C789 0.929 . S
H802 C790 0.960 . S
H803 C790 0.962 . S
H804 C790 0.960 . S
H805 C791 0.961 . S
H806 C791 0.961 . S
H807 C791 0.961 . S
H808 C792 0.931 . S
H809 C797 0.930 . S
H810 C798 0.956 1_565 S
H811 C798 0.961 . S
H812 C798 0.961 1_565 S
H813 C799 0.958 . S
H814 C799 0.961 . S
H815 C799 0.960 . S
C241 C175 1.193 . S
C249 C10 1.187 . S
C273 C215 1.193 . S
C281 C50 1.184 . S
C305 C15 1.193 . S
C313 C90 1.188 . S
C337 C55 1.193 . S
C345 C130 1.186 . S
C369 C95 1.193 . S
C377 C170 1.186 . S
C401 C135 1.193 . S
C409 C210 1.188 . S
C433 C9 1.066 . S
C441 C129 1.070 . S
C465 C169 1.048 . S
C473 C49 1.058 . S
C497 C209 1.076 . S
C505 C89 1.065 . S
C529 C98 1.007 . S
C537 C218 0.947 . S
C561 C18 1.046 . S
C569 C138 0.947 . S
C593 C178 1.018 . S
C601 C58 0.971 . S
C625 C206 1.301 . S
C633 C19 1.352 . S
C657 C59 1.354 . S
C665 C6 1.329 . S
C689 C99 1.347 . S
C697 C46 1.337 . S
C721 C86 1.346 . S
C729 C139 1.347 . S
C753 C179 1.355 . S
C761 C126 1.326 . S
C785 C219 1.339 . S
C793 C166 1.337 . S
