# Generated by pormake.
# Topology whk, (6)-cn, num edge types: 1
# Building blocks:
#     Node 0, Type 0, BuildingBlock: IZENUY_clean_sbu_0, # of connection points: 6
#     Node 1, Type 0, BuildingBlock: IZENUY_clean_sbu_0, # of connection points: 6
#     Node 2, Type 0, BuildingBlock: IZENUY_clean_sbu_0, # of connection points: 6
#     Node 3, Type 0, BuildingBlock: IZENUY_clean_sbu_0, # of connection points: 6
#     Node 4, Type 0, BuildingBlock: IZENUY_clean_sbu_0, # of connection points: 6
#     Node 5, Type 0, BuildingBlock: IZENUY_clean_sbu_0, # of connection points: 6
#     Node 6, Type 0, BuildingBlock: IZENUY_clean_sbu_0, # of connection points: 6
#     Node 7, Type 0, BuildingBlock: IZENUY_clean_sbu_0, # of connection points: 6
#     Node 8, Type 0, BuildingBlock: IZENUY_clean_sbu_0, # of connection points: 6
#     Node 9, Type 0, BuildingBlock: IZENUY_clean_sbu_0, # of connection points: 6
#     Node 10, Type 0, BuildingBlock: IZENUY_clean_sbu_0, # of connection points: 6
#     Node 11, Type 0, BuildingBlock: IZENUY_clean_sbu_0, # of connection points: 6
#     Node 12, Type 0, BuildingBlock: IZENUY_clean_sbu_0, # of connection points: 6
#     Node 13, Type 0, BuildingBlock: IZENUY_clean_sbu_0, # of connection points: 6
#     Node 14, Type 0, BuildingBlock: IZENUY_clean_sbu_0, # of connection points: 6
#     Node 15, Type 0, BuildingBlock: IZENUY_clean_sbu_0, # of connection points: 6
#     Edge 16, Type (0, 0), BuildingBlock: KIFKEQ_clean_linker_1, # of connection points: 2
#     Edge 17, Type (0, 0), BuildingBlock: KIFKEQ_clean_linker_1, # of connection points: 2
#     Edge 18, Type (0, 0), BuildingBlock: KIFKEQ_clean_linker_1, # of connection points: 2
#     Edge 19, Type (0, 0), BuildingBlock: KIFKEQ_clean_linker_1, # of connection points: 2
#     Edge 20, Type (0, 0), BuildingBlock: KIFKEQ_clean_linker_1, # of connection points: 2
#     Edge 21, Type (0, 0), BuildingBlock: KIFKEQ_clean_linker_1, # of connection points: 2
#     Edge 22, Type (0, 0), BuildingBlock: KIFKEQ_clean_linker_1, # of connection points: 2
#     Edge 23, Type (0, 0), BuildingBlock: KIFKEQ_clean_linker_1, # of connection points: 2
#     Edge 24, Type (0, 0), BuildingBlock: KIFKEQ_clean_linker_1, # of connection points: 2
#     Edge 25, Type (0, 0), BuildingBlock: KIFKEQ_clean_linker_1, # of connection points: 2
#     Edge 26, Type (0, 0), BuildingBlock: KIFKEQ_clean_linker_1, # of connection points: 2
#     Edge 27, Type (0, 0), BuildingBlock: KIFKEQ_clean_linker_1, # of connection points: 2
#     Edge 28, Type (0, 0), BuildingBlock: KIFKEQ_clean_linker_1, # of connection points: 2
#     Edge 29, Type (0, 0), BuildingBlock: KIFKEQ_clean_linker_1, # of connection points: 2
#     Edge 30, Type (0, 0), BuildingBlock: KIFKEQ_clean_linker_1, # of connection points: 2
#     Edge 31, Type (0, 0), BuildingBlock: KIFKEQ_clean_linker_1, # of connection points: 2
#     Edge 32, Type (0, 0), BuildingBlock: KIFKEQ_clean_linker_1, # of connection points: 2
#     Edge 33, Type (0, 0), BuildingBlock: KIFKEQ_clean_linker_1, # of connection points: 2
#     Edge 34, Type (0, 0), BuildingBlock: KIFKEQ_clean_linker_1, # of connection points: 2
#     Edge 35, Type (0, 0), BuildingBlock: KIFKEQ_clean_linker_1, # of connection points: 2
#     Edge 36, Type (0, 0), BuildingBlock: KIFKEQ_clean_linker_1, # of connection points: 2
#     Edge 37, Type (0, 0), BuildingBlock: KIFKEQ_clean_linker_1, # of connection points: 2
#     Edge 38, Type (0, 0), BuildingBlock: KIFKEQ_clean_linker_1, # of connection points: 2
#     Edge 39, Type (0, 0), BuildingBlock: KIFKEQ_clean_linker_1, # of connection points: 2
#     Edge 40, Type (0, 0), BuildingBlock: KIFKEQ_clean_linker_1, # of connection points: 2
#     Edge 41, Type (0, 0), BuildingBlock: KIFKEQ_clean_linker_1, # of connection points: 2
#     Edge 42, Type (0, 0), BuildingBlock: KIFKEQ_clean_linker_1, # of connection points: 2
#     Edge 43, Type (0, 0), BuildingBlock: KIFKEQ_clean_linker_1, # of connection points: 2
#     Edge 44, Type (0, 0), BuildingBlock: KIFKEQ_clean_linker_1, # of connection points: 2
#     Edge 45, Type (0, 0), BuildingBlock: KIFKEQ_clean_linker_1, # of connection points: 2
#     Edge 46, Type (0, 0), BuildingBlock: KIFKEQ_clean_linker_1, # of connection points: 2
#     Edge 47, Type (0, 0), BuildingBlock: KIFKEQ_clean_linker_1, # of connection points: 2
#     Edge 48, Type (0, 0), BuildingBlock: KIFKEQ_clean_linker_1, # of connection points: 2
#     Edge 49, Type (0, 0), BuildingBlock: KIFKEQ_clean_linker_1, # of connection points: 2
#     Edge 50, Type (0, 0), BuildingBlock: KIFKEQ_clean_linker_1, # of connection points: 2
#     Edge 51, Type (0, 0), BuildingBlock: KIFKEQ_clean_linker_1, # of connection points: 2
#     Edge 52, Type (0, 0), BuildingBlock: KIFKEQ_clean_linker_1, # of connection points: 2
#     Edge 53, Type (0, 0), BuildingBlock: KIFKEQ_clean_linker_1, # of connection points: 2
#     Edge 54, Type (0, 0), BuildingBlock: KIFKEQ_clean_linker_1, # of connection points: 2
#     Edge 55, Type (0, 0), BuildingBlock: KIFKEQ_clean_linker_1, # of connection points: 2
#     Edge 56, Type (0, 0), BuildingBlock: KIFKEQ_clean_linker_1, # of connection points: 2
#     Edge 57, Type (0, 0), BuildingBlock: KIFKEQ_clean_linker_1, # of connection points: 2
#     Edge 58, Type (0, 0), BuildingBlock: KIFKEQ_clean_linker_1, # of connection points: 2
#     Edge 59, Type (0, 0), BuildingBlock: KIFKEQ_clean_linker_1, # of connection points: 2
#     Edge 60, Type (0, 0), BuildingBlock: KIFKEQ_clean_linker_1, # of connection points: 2
#     Edge 61, Type (0, 0), BuildingBlock: KIFKEQ_clean_linker_1, # of connection points: 2
#     Edge 62, Type (0, 0), BuildingBlock: KIFKEQ_clean_linker_1, # of connection points: 2
#     Edge 63, Type (0, 0), BuildingBlock: KIFKEQ_clean_linker_1, # of connection points: 2
# Relax obj value: 0.294
# Max RMSD: 0.219
# Mean RMSD: 0.219
data_MOF--net-whk--node1-IZENUY_clean_sbu_0--edge1-KIFKEQ_clean_linker_1
_symmetry_space_group_name_H-M    P1
_symmetry_Int_Tables_number       1
_symmetry_cell_setting            triclinic
loop_
_symmetry_equiv_pos_as_xyz
'x, y, z'
_cell_length_a     36.167481
_cell_length_b     36.179995
_cell_length_c     51.784926
_cell_angle_alpha  90.074963
_cell_angle_beta   90.028525
_cell_angle_gamma 90.071483
loop_
_atom_site_label
_atom_site_type_symbol
_atom_site_fract_x
_atom_site_fract_y
_atom_site_fract_z
_atom_type_partial_charge
Fe0 Fe 0.57278 0.15668 0.40857 0.0
Fe1 Fe 0.52614 0.20725 0.44382 0.0
O2 O 0.55703 0.20136 0.41763 0.0
Fe3 Fe 0.57328 0.24107 0.40084 0.0
O4 O 0.61891 0.23193 0.41179 0.0
O5 O 0.62044 0.17262 0.40155 0.0
O6 O 0.58987 0.14669 0.44046 0.0
C7 C 0.5741 0.15082 0.46186 0.0
C8 C 0.57219 0.18573 0.36065 0.0
O9 O 0.54425 0.16891 0.46363 0.0
C10 C 0.50149 0.25948 0.40572 0.0
O11 O 0.52786 0.13384 0.41445 0.0
O12 O 0.49165 0.17847 0.42884 0.0
O13 O 0.58261 0.21676 0.36963 0.0
O14 O 0.55757 0.16267 0.37559 0.0
C15 C 0.57103 0.26659 0.45263 0.0
O16 O 0.50263 0.24703 0.42871 0.0
O17 O 0.52717 0.25252 0.38984 0.0
C18 C 0.49592 0.14678 0.4192 0.0
O19 O 0.55869 0.23635 0.46092 0.0
O20 O 0.56953 0.27358 0.42864 0.0
C21 C 0.63616 0.20205 0.40926 0.0
Fe22 Fe 0.29998 0.53027 0.44044 0.0
Fe23 Fe 0.2826 0.58689 0.39781 0.0
O24 O 0.31488 0.56349 0.41769 0.0
Fe25 Fe 0.36249 0.5748 0.41593 0.0
O26 O 0.37294 0.56442 0.44981 0.0
O27 O 0.3186 0.55744 0.46716 0.0
O28 O 0.25577 0.55252 0.44737 0.0
C29 C 0.2454 0.58563 0.44461 0.0
C30 C 0.36515 0.49965 0.41891 0.0
O31 O 0.25737 0.60483 0.42597 0.0
C32 C 0.33943 0.57993 0.36335 0.0
O33 O 0.27916 0.50182 0.41539 0.0
O34 O 0.25097 0.54732 0.39518 0.0
O35 O 0.37377 0.52794 0.40586 0.0
O36 O 0.34194 0.50188 0.43727 0.0
C37 C 0.32993 0.64254 0.41476 0.0
O38 O 0.30589 0.5719 0.36808 0.0
O39 O 0.36144 0.58752 0.38166 0.0
C40 C 0.25371 0.51325 0.40066 0.0
O41 O 0.30865 0.63001 0.39754 0.0
O42 O 0.3525 0.62186 0.42637 0.0
C43 C 0.35158 0.56831 0.46888 0.0
Fe44 Fe 0.94277 0.27336 0.40026 0.0
Fe45 Fe 0.94312 0.3579 0.40813 0.0
O46 O 0.95796 0.31311 0.41752 0.0
Fe47 Fe 0.98721 0.3073 0.44465 0.0
O48 O 0.95281 0.27949 0.46102 0.0
O49 O 0.94356 0.24171 0.42855 0.0
O50 O 0.89629 0.283 0.40902 0.0
C51 C 0.87944 0.31301 0.40607 0.0
C52 C 0.01276 0.25227 0.40879 0.0
O53 O 0.8958 0.34266 0.39966 0.0
C54 C 0.01969 0.36634 0.42025 0.0
O55 O 0.93634 0.29735 0.36868 0.0
O56 O 0.96 0.35196 0.37554 0.0
O57 O 0.01009 0.26621 0.43125 0.0
O58 O 0.98984 0.26098 0.39134 0.0
C59 C 0.93944 0.36431 0.46125 0.0
O60 O 0.98804 0.37999 0.41538 0.0
O61 O 0.02315 0.33461 0.43 0.0
C62 C 0.94651 0.32869 0.36016 0.0
O63 O 0.9242 0.36783 0.43961 0.0
O64 O 0.96955 0.34686 0.46339 0.0
C65 C 0.94075 0.24916 0.45246 0.0
Fe66 Fe 0.2115 0.98614 0.44453 0.0
Fe67 Fe 0.24057 0.93161 0.40397 0.0
O68 O 0.20298 0.95116 0.42135 0.0
Fe69 Fe 0.1572 0.93489 0.41585 0.0
O70 O 0.15137 0.92189 0.44906 0.0
O71 O 0.1747 0.97152 0.46727 0.0
O72 O 0.24212 0.95679 0.46287 0.0
C73 C 0.27092 0.94201 0.454 0.0
C74 C 0.14922 0.01261 0.42048 0.0
O75 O 0.27518 0.93787 0.42989 0.0
C76 C 0.18167 0.93076 0.36653 0.0
O77 O 0.25012 1.00642 0.4263 0.0
O78 O 0.25284 0.97561 0.38952 0.0
O79 O 0.1352 0.98044 0.42071 0.0
O80 O 0.18202 0.01808 0.42761 0.0
C81 C 0.20081 0.87107 0.4184 0.0
O82 O 0.21304 0.91996 0.37464 0.0
O83 O 0.15949 0.94605 0.38188 0.0
C84 C 0.26121 1.0035 0.40311 0.0
O85 O 0.2313 0.88766 0.41822 0.0
O86 O 0.17145 0.88644 0.4105 0.0
C87 C 0.1574 0.94105 0.46883 0.0
Fe88 Fe 0.02893 0.80538 0.11656 0.0
Fe89 Fe 0.07697 0.77288 0.15953 0.0
O90 O 0.05957 0.81198 0.14283 0.0
Fe91 Fe 0.07378 0.85711 0.15209 0.0
O92 O 0.09156 0.86672 0.12049 0.0
O93 O 0.04603 0.84483 0.09712 0.0
O94 O 0.06224 0.77746 0.0992 0.0
C95 C 0.07584 0.74779 0.10757 0.0
C96 C 0.99691 0.86424 0.14175 0.0
O97 O 0.07488 0.74079 0.13157 0.0
C98 C 0.07247 0.82759 0.19984 0.0
O99 O 1.00673 0.7646 0.13124 0.0
O100 O 0.03127 0.7596 0.17014 0.0
O101 O 0.02852 0.87875 0.1453 0.0
O102 O 0.99367 0.83244 0.13212 0.0
C103 C 0.13853 0.81437 0.15207 0.0
O104 O 0.08446 0.79725 0.19077 0.0
O105 O 0.05788 0.85072 0.18489 0.0
C106 C 1.00584 0.75213 0.15421 0.0
O107 O 0.12246 0.78389 0.14907 0.0
O108 O 0.12161 0.84293 0.15994 0.0
C109 C 0.07651 0.86202 0.09891 0.0
Fe110 Fe 0.7078 0.02842 0.11365 0.0
Fe111 Fe 0.73914 0.07915 0.15563 0.0
O112 O 0.70037 0.06024 0.13908 0.0
Fe113 Fe 0.65476 0.074 0.14766 0.0
O114 O 0.6444 0.08946 0.11545 0.0
O115 O 0.66846 0.0436 0.09346 0.0
O116 O 0.73538 0.06115 0.09571 0.0
C117 C 0.76515 0.07499 0.10379 0.0
C118 C 0.64945 0.99651 0.13956 0.0
O119 O 0.7717 0.07628 0.12787 0.0
C120 C 0.68368 0.07641 0.19571 0.0
O121 O 0.74869 0.00779 0.12905 0.0
O122 O 0.75347 0.03412 0.1674 0.0
O123 O 0.63415 0.02785 0.14228 0.0
O124 O 0.68121 0.99353 0.12989 0.0
C125 C 0.69653 0.13941 0.14601 0.0
O126 O 0.71425 0.08799 0.18665 0.0
O127 O 0.66122 0.06035 0.18094 0.0
C128 C 0.76138 0.00811 0.15197 0.0
O129 O 0.72738 0.12378 0.14396 0.0
O130 O 0.66805 0.1225 0.15407 0.0
C131 C 0.64937 0.07293 0.09443 0.0
Fe132 Fe 0.44143 0.65573 0.14577 0.0
Fe133 Fe 0.48926 0.70926 0.11367 0.0
O134 O 0.45723 0.70128 0.13887 0.0
Fe135 Fe 0.44017 0.7395 0.15684 0.0
O136 O 0.39492 0.73056 0.14501 0.0
O137 O 0.39357 0.67059 0.15291 0.0
O138 O 0.42521 0.64876 0.1132 0.0
C139 C 0.44172 0.65496 0.09233 0.0
C140 C 0.44134 0.6815 0.19486 0.0
O141 O 0.47227 0.67214 0.09216 0.0
C142 C 0.51193 0.75926 0.1537 0.0
O143 O 0.48671 0.63362 0.13948 0.0
O144 O 0.52296 0.68017 0.12887 0.0
O145 O 0.43076 0.7129 0.18682 0.0
O146 O 0.4555 0.65889 0.17928 0.0
C147 C 0.44489 0.76881 0.10616 0.0
O148 O 0.51169 0.74812 0.13041 0.0
O149 O 0.48582 0.75105 0.16892 0.0
C150 C 0.5187 0.6479 0.13738 0.0
O151 O 0.45774 0.73941 0.09683 0.0
O152 O 0.44415 0.77372 0.13039 0.0
C153 C 0.37786 0.70037 0.1461 0.0
Fe154 Fe 0.85983 0.43773 0.14779 0.0
Fe155 Fe 0.80659 0.4826 0.11349 0.0
O156 O 0.81431 0.45205 0.13961 0.0
Fe157 Fe 0.77565 0.43461 0.15706 0.0
O158 O 0.78611 0.38923 0.14619 0.0
O159 O 0.84594 0.38968 0.15504 0.0
O160 O 0.86909 0.42098 0.11565 0.0
C161 C 0.86391 0.43688 0.09442 0.0
C162 C 0.83238 0.43761 0.19628 0.0
O163 O 0.84506 0.46624 0.09317 0.0
C164 C 0.75437 0.50555 0.15207 0.0
O165 O 0.88078 0.48333 0.14153 0.0
O166 O 0.83439 0.5181 0.12807 0.0
O167 O 0.80124 0.42651 0.18788 0.0
O168 O 0.85468 0.45261 0.18094 0.0
C169 C 0.74864 0.43582 0.10559 0.0
O170 O 0.7664 0.50452 0.12899 0.0
O171 O 0.76264 0.48041 0.16805 0.0
C172 C 0.86654 0.51476 0.1371 0.0
O173 O 0.77832 0.4489 0.09686 0.0
O174 O 0.74233 0.43696 0.12969 0.0
C175 C 0.81673 0.37308 0.14796 0.0
Fe176 Fe 0.44005 0.85766 0.65107 0.0
Fe177 Fe 0.48335 0.80438 0.61592 0.0
O178 O 0.45256 0.81207 0.64189 0.0
Fe179 Fe 0.43321 0.77356 0.65836 0.0
O180 O 0.38839 0.78628 0.64712 0.0
O181 O 0.39141 0.84528 0.65793 0.0
O182 O 0.42377 0.86858 0.61934 0.0
C183 C 0.43929 0.86368 0.59798 0.0
C184 C 0.43841 0.82807 0.69873 0.0
O185 O 0.46838 0.84435 0.59632 0.0
C186 C 0.50385 0.75042 0.65379 0.0
O187 O 0.48636 0.87749 0.64512 0.0
O188 O 0.51947 0.83014 0.63169 0.0
O189 O 0.42553 0.79817 0.6895 0.0
O190 O 0.45474 0.85029 0.684 0.0
C191 C 0.43476 0.74836 0.60654 0.0
O192 O 0.5036 0.76298 0.63084 0.0
O193 O 0.47829 0.75843 0.66956 0.0
C194 C 0.51739 0.86199 0.6414 0.0
O195 O 0.44925 0.7777 0.59828 0.0
O196 O 0.43502 0.74141 0.63052 0.0
C197 C 0.37367 0.81757 0.64936 0.0
Fe198 Fe 0.65781 0.44014 0.64915 0.0
Fe199 Fe 0.70843 0.48681 0.61425 0.0
O200 O 0.70265 0.45581 0.64031 0.0
Fe201 Fe 0.74234 0.43971 0.65712 0.0
O202 O 0.73278 0.3939 0.6467 0.0
O203 O 0.67334 0.39258 0.65653 0.0
O204 O 0.64826 0.42274 0.61722 0.0
C205 C 0.65178 0.43913 0.59603 0.0
C206 C 0.68677 0.44149 0.69723 0.0
O207 O 0.66914 0.46952 0.59473 0.0
C208 C 0.76205 0.51115 0.65153 0.0
O209 O 0.63522 0.4851 0.64286 0.0
O210 O 0.68089 0.52124 0.63021 0.0
O211 O 0.71801 0.43129 0.68847 0.0
O212 O 0.66356 0.45558 0.68211 0.0
C213 C 0.76674 0.44124 0.605 0.0
O214 O 0.74908 0.50972 0.62871 0.0
O215 O 0.75469 0.48597 0.66771 0.0
C216 C 0.64923 0.51707 0.6399 0.0
O217 O 0.73658 0.454 0.59681 0.0
O218 O 0.77422 0.44268 0.62897 0.0
C219 C 0.70283 0.37675 0.64922 0.0
Fe220 Fe 0.0774 0.65594 0.63898 0.0
Fe221 Fe 0.02985 0.71724 0.61585 0.0
O222 O 0.06349 0.70293 0.63851 0.0
Fe223 Fe 0.08436 0.7353 0.6597 0.0
O224 O 0.12912 0.71234 0.65949 0.0
O225 O 0.12415 0.66903 0.62974 0.0
O226 O 0.06862 0.6473 0.60444 0.0
C227 C 0.07139 0.67025 0.58614 0.0
C228 C 0.0806 0.67607 0.69237 0.0
O229 O 0.0589 0.70247 0.58897 0.0
C230 C 0.00895 0.75938 0.6568 0.0
O231 O 0.03098 0.64145 0.64802 0.0
O232 O 1.00405 0.67324 0.61707 0.0
O233 O 0.07057 0.7092 0.68846 0.0
O234 O 0.08924 0.65538 0.67354 0.0
C235 C 0.08085 0.77668 0.61495 0.0
O236 O 0.99963 0.73412 0.64118 0.0
O237 O 0.04262 0.76391 0.66302 0.0
C238 C 1.00249 0.64924 0.63494 0.0
O239 O 0.04901 0.76352 0.61085 0.0
O240 O 0.10103 0.76367 0.63269 0.0
C241 C 0.14323 0.69211 0.64225 0.0
Fe242 Fe 0.80741 0.02665 0.61204 0.0
Fe243 Fe 0.77556 0.07467 0.65517 0.0
O244 O 0.81452 0.05741 0.63812 0.0
Fe245 Fe 0.85984 0.07171 0.64684 0.0
O246 O 0.86968 0.08873 0.61497 0.0
O247 O 0.84659 0.0431 0.5922 0.0
O248 O 0.77959 0.06016 0.59493 0.0
C249 C 0.74977 0.07329 0.60342 0.0
C250 C 0.86628 0.99458 0.63712 0.0
O251 O 0.74291 0.07203 0.62745 0.0
C252 C 0.83136 0.07173 0.69493 0.0
O253 O 0.76673 1.00477 0.62702 0.0
O254 O 0.76263 0.02883 0.66608 0.0
O255 O 0.88109 0.02612 0.64046 0.0
O256 O 0.83446 0.99139 0.6275 0.0
C257 C 0.81663 0.13639 0.64684 0.0
O258 O 0.80052 0.08299 0.6862 0.0
O259 O 0.85383 0.0565 0.67981 0.0
C260 C 0.75466 1.00355 0.65008 0.0
O261 O 0.78614 0.12009 0.6444 0.0
O262 O 0.84564 0.11974 0.65424 0.0
C263 C 0.86509 0.07278 0.59368 0.0
Fe264 Fe 0.94054 0.15824 0.90527 0.0
Fe265 Fe 0.98502 0.2094 0.94115 0.0
O266 O 0.95542 0.20317 0.91432 0.0
Fe267 Fe 0.93977 0.2425 0.89699 0.0
O268 O 0.89358 0.23274 0.90645 0.0
O269 O 0.89333 0.17332 0.89648 0.0
O270 O 0.92123 0.14958 0.93664 0.0
C271 C 0.93577 0.15411 0.9584 0.0
C272 C 0.94395 0.18652 0.85728 0.0
O273 O 0.96681 0.17019 0.96038 0.0
C274 C 0.01094 0.26219 0.90399 0.0
O275 O 0.98523 0.13593 0.91301 0.0
O276 O 0.02037 0.18199 0.92629 0.0
O277 O 0.93288 0.21766 0.86569 0.0
O278 O 0.95784 0.16373 0.87278 0.0
C279 C 0.9388 0.26752 0.94896 0.0
O280 O 0.00844 0.24993 0.92696 0.0
O281 O 0.98637 0.2547 0.88736 0.0
C282 C 0.01694 0.15025 0.91664 0.0
O283 O 0.95118 0.23748 0.95754 0.0
O284 O 0.94142 0.27482 0.92503 0.0
C285 C 0.87688 0.20259 0.90351 0.0
Fe286 Fe 0.27228 0.93637 0.90218 0.0
Fe287 Fe 0.35646 0.93931 0.90993 0.0
O288 O 0.31149 0.95397 0.91901 0.0
Fe289 Fe 0.30495 0.98496 0.94511 0.0
O290 O 0.27572 0.95262 0.9621 0.0
O291 O 0.2394 0.93995 0.92952 0.0
O292 O 0.28254 0.8911 0.91366 0.0
C293 C 0.3131 0.8749 0.91154 0.0
C294 C 0.25266 0.00799 0.90646 0.0
O295 O 0.34166 0.89129 0.90301 0.0
C296 C 0.36525 0.01609 0.92093 0.0
O297 O 0.29697 0.9272 0.87122 0.0
O298 O 0.34995 0.95454 0.87707 0.0
O299 O 0.26528 0.00771 0.92945 0.0
O300 O 0.25984 0.982 0.89082 0.0
C301 C 0.36161 0.93745 0.96323 0.0
O302 O 0.37858 0.98449 0.91587 0.0
O303 O 0.33349 0.0198 0.93046 0.0
C304 C 0.32734 0.93912 0.86216 0.0
O305 O 0.36656 0.92252 0.94164 0.0
O306 O 0.34327 0.96715 0.96524 0.0
C307 C 0.24557 0.94033 0.95359 0.0
Fe308 Fe 0.52663 0.30574 0.94376 0.0
Fe309 Fe 0.57619 0.27469 0.90105 0.0
O310 O 0.55802 0.31339 0.91807 0.0
Fe311 Fe 0.57255 0.35883 0.90981 0.0
O312 O 0.58826 0.36868 0.9421 0.0
O313 O 0.54307 0.34397 0.96445 0.0
O314 O 0.55956 0.2772 0.96086 0.0
C315 C 0.57285 0.24753 0.95232 0.0
C316 C 0.49511 0.36578 0.91964 0.0
O317 O 0.57251 0.2413 0.92822 0.0
C318 C 0.57469 0.33084 0.86151 0.0
O319 O 0.50482 0.26575 0.92764 0.0
O320 O 0.53092 0.26178 0.88912 0.0
O321 O 0.52671 0.37984 0.91527 0.0
O322 O 0.49161 0.33378 0.92886 0.0
C323 C 0.63733 0.31588 0.91116 0.0
O324 O 0.58577 0.30003 0.87036 0.0
O325 O 0.55877 0.35312 0.87644 0.0
C326 C 0.50488 0.2538 0.90448 0.0
O327 O 0.62106 0.28529 0.91297 0.0
O328 O 0.6209 0.3448 0.90338 0.0
C329 C 0.5723 0.36319 0.96327 0.0
Fe330 Fe 0.23457 0.58722 0.89906 0.0
Fe331 Fe 0.15385 0.57658 0.91613 0.0
O332 O 0.20128 0.56449 0.9185 0.0
Fe333 Fe 0.21489 0.53081 0.94138 0.0
O334 O 0.25983 0.55138 0.94863 0.0
O335 O 0.2604 0.60388 0.92745 0.0
O336 O 0.21007 0.6311 0.89905 0.0
C337 C 0.18765 0.64386 0.91544 0.0
C338 C 0.2611 0.51267 0.90174 0.0
O339 O 0.16417 0.62356 0.92652 0.0
C340 C 0.14954 0.50153 0.91923 0.0
O341 O 0.21138 0.57355 0.86896 0.0
O342 O 0.15563 0.58932 0.88187 0.0
O343 O 0.23538 0.50176 0.91649 0.0
O344 O 0.26466 0.54666 0.89622 0.0
C345 C 0.16367 0.57017 0.96928 0.0
O346 O 0.14198 0.52987 0.90595 0.0
O347 O 0.17216 0.50354 0.93795 0.0
C348 C 0.17808 0.58191 0.86386 0.0
O349 O 0.14264 0.5665 0.94996 0.0
O350 O 0.19651 0.55867 0.96794 0.0
C351 C 0.27264 0.58351 0.94539 0.0
H352 H 0.55796 0.11898 0.33782 0.0
H353 H 0.61848 0.22028 0.32537 0.0
H354 H 0.58664 0.09189 0.30013 0.0
H355 H 0.6462 0.19359 0.28645 0.0
H356 H 0.71707 0.12372 0.23095 0.0
H357 H 0.68975 0.151 0.2698 0.0
H358 H 0.58938 0.08913 0.25604 0.0
H359 H 0.61713 0.06091 0.21841 0.0
C360 C 0.57682 0.13594 0.3267 0.0
C361 C 0.58555 0.1721 0.33484 0.0
C362 C 0.59337 0.12028 0.30479 0.0
C363 C 0.61908 0.14023 0.28981 0.0
C364 C 0.62712 0.17687 0.29752 0.0
C365 C 0.61069 0.19251 0.31971 0.0
C366 C 0.68947 0.11536 0.23657 0.0
C367 C 0.66964 0.08969 0.22144 0.0
C368 C 0.67345 0.13152 0.25872 0.0
C369 C 0.637 0.12268 0.26639 0.0
C370 C 0.61762 0.09648 0.2514 0.0
C371 C 0.63366 0.08019 0.22953 0.0
H372 H 0.38935 0.71134 0.22766 0.0
H373 H 0.46368 0.6187 0.21998 0.0
H374 H 0.36332 0.68376 0.26675 0.0
H375 H 0.43748 0.59107 0.2588 0.0
H376 H 0.40957 0.57493 0.34514 0.0
H377 H 0.43454 0.59954 0.30507 0.0
H378 H 0.32465 0.63093 0.28109 0.0
H379 H 0.29956 0.60633 0.32167 0.0
C380 C 0.40058 0.68538 0.23448 0.0
C381 C 0.42895 0.6675 0.22065 0.0
C382 C 0.3852 0.66925 0.25672 0.0
C383 C 0.39796 0.63493 0.26595 0.0
C384 C 0.42699 0.61758 0.25247 0.0
C385 C 0.44212 0.63352 0.23015 0.0
C386 C 0.39055 0.58643 0.33113 0.0
C387 C 0.35248 0.58842 0.33665 0.0
C388 C 0.40493 0.60061 0.30807 0.0
C389 C 0.38178 0.61762 0.28978 0.0
C390 C 0.34343 0.61851 0.29485 0.0
C391 C 0.32892 0.60388 0.31794 0.0
H392 H 0.90088 0.29399 0.32456 0.0
H393 H 0.96085 0.39555 0.33751 0.0
H394 H 0.87268 0.32083 0.28594 0.0
H395 H 0.93175 0.42276 0.29997 0.0
H396 H 0.89933 0.45375 0.21831 0.0
H397 H 0.92809 0.42576 0.25569 0.0
H398 H 0.8283 0.36355 0.27048 0.0
H399 H 0.79992 0.39065 0.232 0.0
C400 C 0.90852 0.32183 0.31904 0.0
C401 C 0.93356 0.3423 0.33426 0.0
C402 C 0.89178 0.33757 0.29703 0.0
C403 C 0.89944 0.37434 0.28957 0.0
C404 C 0.92524 0.39431 0.30452 0.0
C405 C 0.94206 0.37857 0.3263 0.0
C406 C 0.88316 0.43444 0.22962 0.0
C407 C 0.84702 0.42477 0.22193 0.0
C408 C 0.89978 0.41829 0.25133 0.0
C409 C 0.88088 0.392 0.26647 0.0
C410 C 0.84425 0.38307 0.25924 0.0
C411 C 0.82762 0.39914 0.2373 0.0
H412 H 0.11416 0.9458 0.34514 0.0
H413 H 0.21532 0.88636 0.32995 0.0
H414 H 0.08644 0.91926 0.30677 0.0
H415 H 0.18789 0.86072 0.29062 0.0
H416 H 0.05721 0.89375 0.22328 0.0
H417 H 0.08491 0.9196 0.26193 0.0
H418 H 0.14364 0.81736 0.27485 0.0
H419 H 0.11683 0.79188 0.23531 0.0
C420 C 0.13086 0.92756 0.33335 0.0
C421 C 0.16717 0.9184 0.34083 0.0
C422 C 0.11486 0.9123 0.31112 0.0
C423 C 0.13465 0.88753 0.29535 0.0
C424 C 0.17138 0.8791 0.30241 0.0
C425 C 0.18739 0.89426 0.32484 0.0
C426 C 0.07563 0.87645 0.23447 0.0
C427 C 0.08457 0.84054 0.226 0.0
C428 C 0.09161 0.89137 0.25684 0.0
C429 C 0.1169 0.87084 0.27173 0.0
C430 C 0.12492 0.83443 0.26375 0.0
C431 C 0.10904 0.81952 0.24121 0.0
H432 H 0.39399 0.95459 0.83982 0.0
H433 H 0.29353 0.89273 0.82672 0.0
H434 H 0.42191 0.92599 0.80242 0.0
H435 H 0.32101 0.86521 0.78806 0.0
H436 H 0.45356 0.895 0.72095 0.0
H437 H 0.42482 0.92295 0.7583 0.0
H438 H 0.36465 0.8218 0.77279 0.0
H439 H 0.39229 0.79429 0.7342 0.0
C440 C 0.37741 0.93546 0.82861 0.0
C441 C 0.3413 0.92617 0.83648 0.0
C442 C 0.39353 0.91898 0.8069 0.0
C443 C 0.37402 0.89293 0.79191 0.0
C444 C 0.33736 0.88452 0.79925 0.0
C445 C 0.32128 0.90081 0.82126 0.0
C446 C 0.43456 0.87837 0.73219 0.0
C447 C 0.42548 0.84217 0.72438 0.0
C448 C 0.41799 0.89452 0.75387 0.0
C449 C 0.39206 0.87494 0.76887 0.0
C450 C 0.38386 0.83821 0.76159 0.0
C451 C 0.40022 0.82211 0.73962 0.0
H452 H 0.56116 0.39829 0.8395 0.0
H453 H 0.62144 0.29719 0.82615 0.0
H454 H 0.59024 0.42604 0.80216 0.0
H455 H 0.64959 0.32456 0.78766 0.0
H456 H 0.72051 0.39462 0.7325 0.0
H457 H 0.69331 0.36737 0.7714 0.0
H458 H 0.59307 0.4293 0.75803 0.0
H459 H 0.62067 0.45744 0.72034 0.0
C460 C 0.58007 0.38154 0.82827 0.0
C461 C 0.58857 0.3452 0.83603 0.0
C462 C 0.59686 0.39758 0.80658 0.0
C463 C 0.62261 0.37787 0.79147 0.0
C464 C 0.6305 0.34111 0.79884 0.0
C465 C 0.61383 0.32508 0.82079 0.0
C466 C 0.69299 0.40305 0.73824 0.0
C467 C 0.67311 0.42864 0.72316 0.0
C468 C 0.67703 0.38689 0.76041 0.0
C469 C 0.64061 0.39569 0.76818 0.0
C470 C 0.62126 0.42194 0.75331 0.0
C471 C 0.63722 0.43818 0.7314 0.0
H472 H 0.11147 0.7152 0.7326 0.0
H473 H 0.07375 0.60621 0.71132 0.0
H474 H 0.13686 0.69019 0.77301 0.0
H475 H 0.09818 0.58148 0.75187 0.0
H476 H 0.11148 0.56625 0.84212 0.0
H477 H 0.08643 0.58904 0.80121 0.0
H478 H 0.19033 0.64272 0.78486 0.0
H479 H 0.2158 0.61896 0.82566 0.0
C480 C 0.10776 0.68612 0.73683 0.0
C481 C 0.09016 0.6628 0.71883 0.0
C482 C 0.12279 0.67168 0.7598 0.0
C483 C 0.11984 0.63374 0.7656 0.0
C484 C 0.10095 0.61078 0.74805 0.0
C485 C 0.08678 0.62501 0.72487 0.0
C486 C 0.12929 0.58217 0.8295 0.0
C487 C 0.16584 0.59027 0.83699 0.0
C488 C 0.11485 0.5954 0.80611 0.0
C489 C 0.13621 0.61803 0.78984 0.0
C490 C 0.17304 0.62564 0.79706 0.0
C491 C 0.18782 0.61158 0.82023 0.0
H492 H 0.89852 0.05717 0.71703 0.0
H493 H 0.79817 0.11884 0.73017 0.0
H494 H 0.92697 0.08671 0.75398 0.0
H495 H 0.82622 0.14743 0.7683 0.0
H496 H 0.95949 0.11955 0.83524 0.0
H497 H 0.93069 0.09088 0.7981 0.0
H498 H 0.86991 0.19134 0.78313 0.0
H499 H 0.89773 0.21963 0.82145 0.0
C500 C 0.88207 0.07645 0.72816 0.0
C501 C 0.84579 0.08531 0.72043 0.0
C502 C 0.89852 0.09352 0.74961 0.0
C503 C 0.87923 0.11985 0.76446 0.0
C504 C 0.84244 0.12791 0.75724 0.0
C505 C 0.82602 0.11098 0.73553 0.0
C506 C 0.94037 0.1359 0.82392 0.0
C507 C 0.93122 0.17216 0.83154 0.0
C508 C 0.92374 0.11932 0.80236 0.0
C509 C 0.89756 0.13844 0.78729 0.0
C510 C 0.88931 0.17524 0.79436 0.0
C511 C 0.90582 0.19181 0.81618 0.0
H512 H 0.43061 0.1503 0.44466 0.0
H513 H 0.485 0.09354 0.38197 0.0
H514 H 0.37384 0.1174 0.43548 0.0
H515 H 0.42709 0.06153 0.37166 0.0
H516 H 0.32715 0.98113 0.38342 0.0
H517 H 0.38486 0.01596 0.38464 0.0
H518 H 0.32436 0.11372 0.40756 0.0
H519 H 0.26728 0.0779 0.40802 0.0
C520 C 0.43029 0.13089 0.42871 0.0
C521 C 0.4623 0.12451 0.41405 0.0
C522 C 0.39746 0.11228 0.42316 0.0
C523 C 0.39528 0.08722 0.40239 0.0
C524 C 0.42757 0.08045 0.38786 0.0
C525 C 0.46082 0.09872 0.39376 0.0
C526 C 0.32616 0.01038 0.38789 0.0
C527 C 0.29282 0.02691 0.39562 0.0
C528 C 0.35934 0.03041 0.38871 0.0
C529 C 0.35969 0.06756 0.39691 0.0
C530 C 0.32556 0.08484 0.40211 0.0
C531 C 0.29264 0.06459 0.40192 0.0
H532 H 0.40124 0.47646 0.37516 0.0
H533 H 0.37133 0.44178 0.45212 0.0
H534 H 0.42939 0.41608 0.36725 0.0
H535 H 0.40075 0.38261 0.44487 0.0
H536 H 0.43188 0.26923 0.42436 0.0
H537 H 0.3959 0.32609 0.42403 0.0
H538 H 0.48008 0.37846 0.37734 0.0
H539 H 0.51472 0.32084 0.37649 0.0
C540 C 0.40105 0.45609 0.39047 0.0
C541 C 0.38403 0.46391 0.41425 0.0
C542 C 0.41721 0.42144 0.38597 0.0
C543 C 0.41713 0.39403 0.40529 0.0
C544 C 0.40051 0.40234 0.42918 0.0
C545 C 0.38393 0.4366 0.43349 0.0
C546 C 0.44206 0.29263 0.41341 0.0
C547 C 0.47609 0.29061 0.40051 0.0
C548 C 0.42175 0.32547 0.41351 0.0
C549 C 0.43547 0.35744 0.40127 0.0
C550 C 0.4684 0.35457 0.38691 0.0
C551 C 0.48833 0.32142 0.38637 0.0
H552 H 0.08644 0.35976 0.44399 0.0
H553 H 0.03005 0.4209 0.38429 0.0
H554 H 0.14316 0.39302 0.43484 0.0
H555 H 0.08757 0.45309 0.37398 0.0
H556 H 0.18441 0.53417 0.3859 0.0
H557 H 0.12821 0.49807 0.38842 0.0
H558 H 0.19244 0.40082 0.40677 0.0
H559 H 0.2488 0.4378 0.40575 0.0
C560 C 0.08629 0.38019 0.42871 0.0
C561 C 0.05369 0.3879 0.41499 0.0
C562 C 0.11905 0.39901 0.42319 0.0
C563 C 0.12041 0.42563 0.40342 0.0
C564 C 0.08768 0.4332 0.38958 0.0
C565 C 0.05463 0.41477 0.39546 0.0
C566 C 0.18675 0.50491 0.38998 0.0
C567 C 0.22121 0.48903 0.39596 0.0
C568 C 0.15428 0.48405 0.39137 0.0
C569 C 0.15539 0.4465 0.39833 0.0
C570 C 0.19023 0.42992 0.4022 0.0
C571 C 0.2227 0.451 0.40127 0.0
H572 H 0.07422 0.02192 0.42512 0.0
H573 H 0.17374 0.07694 0.3996 0.0
H574 H 0.03925 0.0791 0.41796 0.0
H575 H 0.13863 0.13357 0.39196 0.0
H576 H 0.04754 0.2213 0.36635 0.0
H577 H 0.07861 0.16056 0.36455 0.0
H578 H 0.05132 0.14203 0.44458 0.0
H579 H 0.02177 0.20205 0.44671 0.0
C580 C 0.08842 0.04592 0.41749 0.0
C581 C 0.12675 0.04516 0.41329 0.0
C582 C 0.06846 0.07854 0.41337 0.0
C583 C 0.08634 0.11061 0.40438 0.0
C584 C 0.12418 0.10915 0.39867 0.0
C585 C 0.14426 0.07685 0.4033 0.0
C586 C 0.04853 0.20424 0.3835 0.0
C587 C 0.03287 0.21676 0.40674 0.0
C588 C 0.06605 0.16958 0.38246 0.0
C589 C 0.06689 0.1466 0.40439 0.0
C590 C 0.05068 0.15899 0.42735 0.0
C591 C 0.03421 0.19367 0.42859 0.0
H592 H 0.98765 0.93894 0.15058 0.0
H593 H 0.92827 0.83529 0.14819 0.0
H594 H 0.9293 0.97157 0.15826 0.0
H595 H 0.87073 0.86745 0.15655 0.0
H596 H 0.77487 0.9415 0.13001 0.0
H597 H 0.83191 0.90643 0.13131 0.0
H598 H 0.87669 0.98277 0.18747 0.0
H599 H 0.81929 0.01863 0.1857 0.0
C600 C 0.96229 0.92311 0.15199 0.0
C601 C 0.96255 0.88463 0.14823 0.0
C602 C 0.92889 0.94174 0.1566 0.0
C603 C 0.89521 0.92217 0.15774 0.0
C604 C 0.89595 0.88352 0.15521 0.0
C605 C 0.92905 0.86507 0.15041 0.0
C606 C 0.79654 0.95042 0.14307 0.0
C607 C 0.79255 0.98289 0.15769 0.0
C608 C 0.82933 0.93022 0.14388 0.0
C609 C 0.85911 0.94188 0.15936 0.0
C610 C 0.85447 0.97332 0.17508 0.0
C611 C 0.8214 0.99355 0.17435 0.0
H612 H 0.50026 0.81686 0.18726 0.0
H613 H 0.57944 0.77251 0.13311 0.0
H614 H 0.53495 0.87501 0.18869 0.0
H615 H 0.61351 0.83031 0.13415 0.0
H616 H 0.68088 0.92989 0.14899 0.0
H617 H 0.65073 0.87181 0.15913 0.0
H618 H 0.54445 0.92616 0.15777 0.0
H619 H 0.57502 0.98512 0.14826 0.0
C620 C 0.52565 0.81911 0.17629 0.0
C621 C 0.53715 0.79015 0.16004 0.0
C622 C 0.54519 0.8526 0.17681 0.0
C623 C 0.57676 0.8575 0.16132 0.0
C624 C 0.58953 0.82751 0.1465 0.0
C625 C 0.56997 0.7943 0.14587 0.0
C626 C 0.65105 0.92963 0.15093 0.0
C627 C 0.63024 0.96205 0.14728 0.0
C628 C 0.63378 0.89624 0.15678 0.0
C629 C 0.59515 0.89416 0.15893 0.0
C630 C 0.57432 0.92686 0.15643 0.0
C631 C 0.59175 0.96058 0.15076 0.0
H632 H 0.58647 0.67664 0.14717 0.0
H633 H 0.52768 0.57262 0.14453 0.0
H634 H 0.64355 0.64443 0.15648 0.0
H635 H 0.58582 0.53994 0.15339 0.0
H636 H 0.69535 0.49405 0.18447 0.0
H637 H 0.63723 0.5289 0.18495 0.0
H638 H 0.68345 0.60637 0.13032 0.0
H639 H 0.74111 0.57208 0.13012 0.0
C640 C 0.5857 0.64676 0.14849 0.0
C641 C 0.55254 0.62713 0.14455 0.0
C642 C 0.61856 0.6283 0.15387 0.0
C643 C 0.61942 0.5896 0.15532 0.0
C644 C 0.58603 0.56985 0.15252 0.0
C645 C 0.5528 0.58849 0.14726 0.0
C646 C 0.69338 0.51919 0.17321 0.0
C647 C 0.72284 0.53045 0.15731 0.0
C648 C 0.65993 0.53879 0.17319 0.0
C649 C 0.65558 0.57024 0.15753 0.0
C650 C 0.68587 0.5825 0.14281 0.0
C651 C 0.71899 0.56284 0.14267 0.0
H652 H 0.02449 0.68762 0.17744 0.0
H653 H 0.93361 0.74425 0.14093 0.0
H654 H 0.99048 0.62972 0.17531 0.0
H655 H 0.89803 0.68702 0.14053 0.0
H656 H 0.86648 0.57643 0.10776 0.0
H657 H 0.89796 0.63441 0.11595 0.0
H658 H 0.94375 0.58917 0.18641 0.0
H659 H 0.91387 0.52999 0.17693 0.0
C660 C 0.99652 0.68789 0.16995 0.0
C661 C 0.98161 0.72026 0.15926 0.0
C662 C 0.97692 0.65461 0.16868 0.0
C663 C 0.94167 0.65322 0.15717 0.0
C664 C 0.92562 0.68654 0.14862 0.0
C665 C 0.94566 0.71955 0.14922 0.0
C666 C 0.88355 0.57887 0.12489 0.0
C667 C 0.88793 0.5488 0.14166 0.0
C668 C 0.90122 0.61236 0.12986 0.0
C669 C 0.92299 0.61708 0.15218 0.0
C670 C 0.92757 0.58667 0.16891 0.0
C671 C 0.9105 0.55272 0.16353 0.0
H672 H 0.69908 0.0111 0.6859 0.0
H673 H 0.73924 0.93905 0.62558 0.0
H674 H 0.64166 0.9753 0.68793 0.0
H675 H 0.68207 0.90395 0.62725 0.0
H676 H 0.58604 0.83185 0.64486 0.0
H677 H 0.64448 0.86294 0.6525 0.0
H678 H 0.58742 0.96731 0.65939 0.0
H679 H 0.52828 0.93582 0.65232 0.0
C680 C 0.69605 0.98712 0.67354 0.0
C681 C 0.72367 0.97794 0.65552 0.0
C682 C 0.66296 0.96693 0.67446 0.0
C683 C 0.65708 0.93698 0.65759 0.0
C684 C 0.68569 0.92662 0.64069 0.0
C685 C 0.71851 0.94683 0.63967 0.0
C686 C 0.58577 0.86144 0.64808 0.0
C687 C 0.55244 0.88146 0.64753 0.0
C688 C 0.61939 0.87927 0.65247 0.0
C689 C 0.62075 0.91767 0.65627 0.0
C690 C 0.58732 0.93762 0.65673 0.0
C691 C 0.55346 0.91965 0.65248 0.0
H692 H 0.6777 0.58527 0.64868 0.0
H693 H 0.57432 0.52526 0.64836 0.0
H694 H 0.64505 0.64212 0.65823 0.0
H695 H 0.5412 0.583 0.65727 0.0
H696 H 0.49332 0.69173 0.68667 0.0
H697 H 0.52953 0.6345 0.68783 0.0
H698 H 0.60617 0.68125 0.63279 0.0
H699 H 0.57069 0.73807 0.63205 0.0
C700 C 0.64788 0.58421 0.65056 0.0
C701 C 0.62851 0.5508 0.64722 0.0
C702 C 0.62916 0.6169 0.65607 0.0
C703 C 0.59047 0.61728 0.65816 0.0
C704 C 0.57107 0.58362 0.65595 0.0
C705 C 0.58996 0.5506 0.65064 0.0
C706 C 0.51854 0.69006 0.67546 0.0
C707 C 0.5292 0.71936 0.65924 0.0
C708 C 0.53896 0.65713 0.67584 0.0
C709 C 0.57057 0.65315 0.66025 0.0
C710 C 0.58223 0.68337 0.64525 0.0
C711 C 0.56182 0.716 0.64476 0.0
H712 H 0.9813 0.61053 0.67804 0.0
H713 H 0.94355 0.64304 0.60231 0.0
H714 H 0.92162 0.58118 0.68634 0.0
H715 H 0.8849 0.61238 0.60994 0.0
H716 H 0.77185 0.58068 0.63291 0.0
H717 H 0.82918 0.61602 0.63176 0.0
H718 H 0.88318 0.53098 0.67661 0.0
H719 H 0.82511 0.49689 0.6789 0.0
C720 C 0.96042 0.61097 0.66303 0.0
C721 C 0.96723 0.62915 0.63951 0.0
C722 C 0.92614 0.59408 0.66777 0.0
C723 C 0.89793 0.59457 0.64897 0.0
C724 C 0.90525 0.61222 0.62527 0.0
C725 C 0.93921 0.62951 0.62072 0.0
C726 C 0.79576 0.57015 0.64314 0.0
C727 C 0.79394 0.53609 0.65602 0.0
C728 C 0.82889 0.59008 0.64215 0.0
C729 C 0.8614 0.57604 0.65348 0.0
C730 C 0.8589 0.54295 0.66773 0.0
C731 C 0.82548 0.52335 0.66914 0.0
H732 H 0.94091 0.98441 0.64529 0.0
H733 H 0.83616 0.92691 0.64556 0.0
H734 H 0.97254 0.92625 0.6548 0.0
H735 H 0.86729 0.86953 0.65597 0.0
H736 H 0.93966 0.76879 0.63652 0.0
H737 H 0.90463 0.82579 0.63485 0.0
H738 H 0.98391 0.8781 0.6856 0.0
H739 H 0.01979 0.82115 0.68662 0.0
C740 C 0.92464 0.95949 0.64765 0.0
C741 C 0.88613 0.96021 0.6442 0.0
C742 C 0.94268 0.92616 0.65332 0.0
C743 C 0.92251 0.89299 0.65598 0.0
C744 C 0.88386 0.89422 0.65349 0.0
C745 C 0.86598 0.92726 0.64754 0.0
C746 C 0.94926 0.79209 0.64786 0.0
C747 C 0.98286 0.79036 0.66146 0.0
C748 C 0.92908 0.82497 0.6469 0.0
C749 C 0.94171 0.85691 0.65975 0.0
C750 C 0.97384 0.85437 0.67494 0.0
C751 C 0.99417 0.82149 0.67579 0.0
H752 H 0.02652 0.07555 0.90776 0.0
H753 H 0.08518 0.17966 0.9101 0.0
H754 H 0.08521 0.0434 0.90006 0.0
H755 H 0.14293 0.14797 0.90189 0.0
H756 H 0.23839 0.07371 0.92963 0.0
H757 H 0.18108 0.10848 0.92821 0.0
H758 H 0.13836 0.03409 0.87005 0.0
H759 H 0.19596 0.99869 0.87176 0.0
C760 C 0.05176 0.09155 0.90636 0.0
C761 C 0.05127 0.13001 0.91013 0.0
C762 C 0.08531 0.07324 0.90175 0.0
C763 C 0.1188 0.09315 0.90067 0.0
C764 C 0.11781 0.13174 0.90317 0.0
C765 C 0.08459 0.14988 0.90792 0.0
C766 C 0.21714 0.06522 0.91609 0.0
C767 C 0.22171 0.03342 0.90088 0.0
C768 C 0.18424 0.08519 0.91524 0.0
C769 C 0.15499 0.07386 0.89916 0.0
C770 C 0.16022 0.04319 0.88288 0.0
C771 C 0.1934 0.02326 0.88361 0.0
H772 H 0.36486 0.07849 0.9497 0.0
H773 H 0.41423 0.03041 0.88172 0.0
H774 H 0.39671 0.13618 0.9415 0.0
H775 H 0.44478 0.08931 0.8723 0.0
H776 H 0.52491 0.18899 0.88188 0.0
H777 H 0.49118 0.13078 0.88381 0.0
H778 H 0.39699 0.18811 0.91617 0.0
H779 H 0.43208 0.24562 0.9159 0.0
C780 C 0.38245 0.08046 0.93282 0.0
C781 C 0.38713 0.04998 0.91637 0.0
C782 C 0.40039 0.11381 0.92784 0.0
C783 C 0.42286 0.11806 0.90585 0.0
C784 C 0.42795 0.08723 0.88951 0.0
C785 C 0.4105 0.05341 0.89487 0.0
C786 C 0.49661 0.18919 0.88873 0.0
C787 C 0.48103 0.22173 0.89877 0.0
C788 C 0.4772 0.15572 0.88993 0.0
C789 C 0.44152 0.15426 0.90077 0.0
C790 C 0.42489 0.18768 0.90861 0.0
C791 C 0.44466 0.22087 0.90805 0.0
H792 H 0.42915 0.35959 0.94427 0.0
H793 H 0.48373 0.41941 0.88312 0.0
H794 H 0.37217 0.39248 0.93558 0.0
H795 H 0.42585 0.4511 0.87317 0.0
H796 H 0.32988 0.53241 0.88513 0.0
H797 H 0.38581 0.49621 0.88723 0.0
H798 H 0.32176 0.40004 0.90879 0.0
H799 H 0.26564 0.43731 0.9083 0.0
C800 C 0.42881 0.37964 0.92875 0.0
C801 C 0.461 0.38713 0.9145 0.0
C802 C 0.39587 0.39824 0.92349 0.0
C803 C 0.39388 0.42437 0.90343 0.0
C804 C 0.4262 0.43164 0.88902 0.0
C805 C 0.45947 0.41349 0.89467 0.0
C806 C 0.32746 0.50336 0.88988 0.0
C807 C 0.29314 0.48795 0.89691 0.0
C808 C 0.35981 0.4824 0.891 0.0
C809 C 0.35878 0.44516 0.89869 0.0
C810 C 0.32398 0.42894 0.90362 0.0
C811 C 0.29161 0.45016 0.903 0.0
H812 H 0.14113 0.44409 0.95257 0.0
H813 H 0.11431 0.47857 0.875 0.0
H814 H 0.11097 0.38528 0.94505 0.0
H815 H 0.0854 0.41853 0.86686 0.0
H816 H 0.99895 0.32374 0.87469 0.0
H817 H 0.03392 0.38128 0.87617 0.0
H818 H 0.11603 0.32863 0.92442 0.0
H819 H 0.07972 0.27189 0.92407 0.0
C820 C 0.12903 0.43894 0.93376 0.0
C821 C 0.13006 0.46609 0.91441 0.0
C822 C 0.11203 0.40489 0.92929 0.0
C823 C 0.09609 0.39659 0.90516 0.0
C824 C 0.09704 0.42388 0.88576 0.0
C825 C 0.11365 0.45833 0.89039 0.0
C826 C 0.02496 0.32426 0.88507 0.0
C827 C 0.03653 0.29341 0.8994 0.0
C828 C 0.04507 0.35736 0.88597 0.0
C829 C 0.07751 0.36012 0.90092 0.0
C830 C 0.09055 0.32811 0.91344 0.0
C831 C 0.07006 0.29534 0.91296 0.0
H832 H 0.6897 0.19116 0.37323 0.0
H833 H 0.66991 0.22346 0.45218 0.0
H834 H 0.74896 0.2238 0.37407 0.0
H835 H 0.72668 0.25849 0.45266 0.0
H836 H 0.84535 0.29839 0.45008 0.0
H837 H 0.78872 0.26329 0.45269 0.0
H838 H 0.76734 0.28574 0.37188 0.0
H839 H 0.82648 0.31838 0.36912 0.0
C840 C 0.69894 0.20388 0.39106 0.0
C841 C 0.67586 0.2048 0.4127 0.0
C842 C 0.73213 0.22366 0.39135 0.0
C843 C 0.74197 0.245 0.41311 0.0
C844 C 0.72032 0.24249 0.43555 0.0
C845 C 0.68788 0.22205 0.43543 0.0
C846 C 0.82756 0.29721 0.43322 0.0
C847 C 0.83974 0.31105 0.40947 0.0
C848 C 0.79523 0.27667 0.43458 0.0
C849 C 0.77388 0.27065 0.41229 0.0
C850 C 0.78393 0.2886 0.38917 0.0
C851 C 0.81701 0.30842 0.38771 0.0
H852 H 0.30052 0.66153 0.46061 0.0
H853 H 0.33668 0.70498 0.38733 0.0
H854 H 0.25814 0.71385 0.46564 0.0
H855 H 0.29529 0.75754 0.39249 0.0
H856 H 0.19102 0.81379 0.38555 0.0
H857 H 0.22518 0.75587 0.38987 0.0
H858 H 0.25344 0.78446 0.46847 0.0
H859 H 0.21874 0.84192 0.46416 0.0
C860 C 0.301 0.6835 0.4464 0.0
C861 C 0.32185 0.67975 0.42368 0.0
C862 C 0.27623 0.71289 0.44899 0.0
C863 C 0.27248 0.73864 0.42891 0.0
C864 C 0.29676 0.73716 0.40777 0.0
C865 C 0.3212 0.70781 0.40514 0.0
C866 C 0.20253 0.80647 0.40418 0.0
C867 C 0.20251 0.8319 0.42451 0.0
C868 C 0.22273 0.77386 0.40653 0.0
C869 C 0.24298 0.76667 0.4292 0.0
C870 C 0.23838 0.78962 0.45075 0.0
C871 C 0.2182 0.8222 0.44837 0.0
H872 H 0.32362 0.68839 0.1813 0.0
H873 H 0.34512 0.72274 0.10306 0.0
H874 H 0.26551 0.72279 0.18086 0.0
H875 H 0.28952 0.75953 0.10304 0.0
H876 H 0.17184 0.8035 0.10716 0.0
H877 H 0.22767 0.76745 0.10324 0.0
H878 H 0.2505 0.78542 0.18445 0.0
H879 H 0.1922 0.81897 0.18846 0.0
C880 C 0.31491 0.70191 0.16365 0.0
C881 C 0.33827 0.70302 0.14218 0.0
C882 C 0.28245 0.72272 0.16363 0.0
C883 C 0.27363 0.74529 0.14232 0.0
C884 C 0.29521 0.74272 0.11985 0.0
C885 C 0.32693 0.72122 0.11968 0.0
C886 C 0.18986 0.80121 0.12383 0.0
C887 C 0.17813 0.81374 0.14807 0.0
C888 C 0.2217 0.78007 0.12173 0.0
C889 C 0.24297 0.77227 0.14376 0.0
C890 C 0.2338 0.7895 0.16733 0.0
C891 C 0.20124 0.80989 0.16953 0.0
H892 H 0.80263 0.34085 0.10307 0.0
H893 H 0.82339 0.31861 0.1835 0.0
H894 H 0.76334 0.28713 0.10024 0.0
H895 H 0.78681 0.26205 0.18041 0.0
H896 H 0.68778 0.19333 0.18183 0.0
H897 H 0.72379 0.25033 0.17981 0.0
H898 H 0.74992 0.22676 0.0998 0.0
H899 H 0.7112 0.17256 0.10153 0.0
C900 C 0.80083 0.32268 0.11967 0.0
C901 C 0.81555 0.33361 0.14351 0.0
C902 C 0.77777 0.29208 0.11822 0.0
C903 C 0.77047 0.27103 0.14043 0.0
C904 C 0.79029 0.2788 0.16327 0.0
C905 C 0.81246 0.31028 0.16488 0.0
C906 C 0.69914 0.20207 0.16345 0.0
C907 C 0.6971 0.17897 0.14185 0.0
C908 C 0.72099 0.23383 0.16247 0.0
C909 C 0.74145 0.24212 0.14003 0.0
C910 C 0.735 0.22139 0.11751 0.0
C911 C 0.71228 0.1905 0.11833 0.0
H912 H 0.16554 0.72599 0.59886 0.0
H913 H 0.20364 0.68199 0.67146 0.0
H914 H 0.21818 0.76848 0.59788 0.0
H915 H 0.25692 0.72313 0.6702 0.0
H916 H 0.31801 0.8225 0.68396 0.0
H917 H 0.2596 0.78984 0.67749 0.0
H918 H 0.28503 0.77718 0.5964 0.0
H919 H 0.34243 0.81115 0.60288 0.0
C920 C 0.18649 0.72393 0.61377 0.0
C921 C 0.18105 0.70082 0.63516 0.0
C922 C 0.21611 0.74872 0.61351 0.0
C923 C 0.24054 0.75022 0.63458 0.0
C924 C 0.23751 0.72368 0.65427 0.0
C925 C 0.20779 0.69931 0.65464 0.0
C926 C 0.30977 0.8149 0.66454 0.0
C927 C 0.33433 0.81897 0.64392 0.0
C928 C 0.27695 0.79535 0.66089 0.0
C929 C 0.26884 0.77951 0.63667 0.0
C930 C 0.29082 0.7886 0.61532 0.0
C931 C 0.3234 0.80848 0.61895 0.0
H932 H 0.79987 0.17078 0.60326 0.0
H933 H 0.82549 0.18929 0.68354 0.0
H934 H 0.76393 0.22683 0.60214 0.0
H935 H 0.79208 0.24793 0.68217 0.0
H936 H 0.69578 0.32269 0.6852 0.0
H937 H 0.72983 0.26448 0.6826 0.0
H938 H 0.75645 0.28837 0.60275 0.0
H939 H 0.71986 0.34393 0.60508 0.0
C940 C 0.79978 0.18843 0.62022 0.0
C941 C 0.81521 0.17611 0.64346 0.0
C942 C 0.77874 0.22044 0.61973 0.0
C943 C 0.77392 0.24139 0.64234 0.0
C944 C 0.79386 0.23155 0.66471 0.0
C945 C 0.81416 0.19877 0.66533 0.0
C946 C 0.70696 0.31392 0.66677 0.0
C947 C 0.70518 0.33716 0.64527 0.0
C948 C 0.72762 0.2814 0.66544 0.0
C949 C 0.74724 0.27242 0.64275 0.0
C950 C 0.74189 0.29406 0.62056 0.0
C951 C 0.72048 0.32579 0.62174 0.0
H952 H 0.84429 0.21416 0.94853 0.0
H953 H 0.82277 0.19903 0.86734 0.0
H954 H 0.78899 0.25085 0.95281 0.0
H955 H 0.76481 0.23307 0.87175 0.0
H956 H 0.6906 0.32873 0.87538 0.0
H957 H 0.74923 0.29526 0.87538 0.0
H958 H 0.72754 0.25924 0.95371 0.0
H959 H 0.6715 0.29524 0.9541 0.0
C960 C 0.8261 0.21668 0.93196 0.0
C961 C 0.83735 0.20398 0.90766 0.0
C962 C 0.79455 0.23819 0.93427 0.0
C963 C 0.773 0.24616 0.9124 0.0
C964 C 0.78173 0.22889 0.88875 0.0
C965 C 0.81408 0.20821 0.88632 0.0
C966 C 0.69994 0.31563 0.89302 0.0
C967 C 0.67704 0.31434 0.91474 0.0
C968 C 0.73272 0.29532 0.89281 0.0
C969 C 0.7423 0.27309 0.91413 0.0
C970 C 0.72128 0.27575 0.93686 0.0
C971 C 0.68928 0.2968 0.93727 0.0
H972 H 0.31577 0.81967 0.87645 0.0
H973 H 0.30426 0.84328 0.95766 0.0
H974 H 0.28152 0.76205 0.88226 0.0
H975 H 0.26888 0.78657 0.9635 0.0
H976 H 0.21983 0.66585 0.9595 0.0
H977 H 0.26097 0.71943 0.96134 0.0
H978 H 0.21455 0.75918 0.88962 0.0
H979 H 0.17469 0.70494 0.8875 0.0
C980 C 0.30771 0.8114 0.89575 0.0
C981 C 0.31243 0.83546 0.91662 0.0
C982 C 0.28725 0.77907 0.89902 0.0
C983 C 0.27119 0.77088 0.92313 0.0
C984 C 0.2805 0.79244 0.94468 0.0
C985 C 0.30118 0.82458 0.94141 0.0
C986 C 0.2171 0.68722 0.94497 0.0
C987 C 0.19419 0.68175 0.92343 0.0
C988 C 0.24114 0.71742 0.94571 0.0
C989 C 0.24205 0.74242 0.925 0.0
C990 C 0.21548 0.73939 0.90529 0.0
C991 C 0.19183 0.70909 0.90444 0.0
H992 H 0.5699 0.17487 0.51236 0.0
H993 H 0.62167 0.0929 0.46376 0.0
H994 H 0.61023 0.15646 0.54829 0.0
H995 H 0.661 0.07414 0.4994 0.0
H996 H 0.75918 0.08533 0.55196 0.0
H997 H 0.71335 0.10265 0.52006 0.0
H998 H 0.6297 0.10755 0.57944 0.0
H999 H 0.67625 0.09058 0.61186 0.0
C1000 C 0.58914 0.1523 0.50954 0.0
C1001 C 0.59273 0.13554 0.48512 0.0
C1002 C 0.61235 0.14182 0.5301 0.0
C1003 C 0.63949 0.11434 0.52661 0.0
C1004 C 0.64122 0.09611 0.50264 0.0
C1005 C 0.61838 0.10667 0.48221 0.0
C1006 C 0.73106 0.09005 0.55837 0.0
C1007 C 0.72142 0.08607 0.58453 0.0
C1008 C 0.70461 0.09981 0.53996 0.0
C1009 C 0.66754 0.10582 0.54701 0.0
C1010 C 0.65797 0.10309 0.57331 0.0
C1011 C 0.68463 0.09328 0.59188 0.0
H1012 H 0.44209 0.74941 0.55403 0.0
H1013 H 0.397 0.68369 0.61616 0.0
H1014 H 0.42222 0.70298 0.52298 0.0
H1015 H 0.37694 0.63698 0.58474 0.0
H1016 H 0.31216 0.58789 0.51228 0.0
H1017 H 0.33184 0.62967 0.54694 0.0
H1018 H 0.43986 0.63811 0.51206 0.0
H1019 H 0.42049 0.59661 0.47762 0.0
C1020 C 0.4279 0.72507 0.56112 0.0
C1021 C 0.4214 0.72025 0.58769 0.0
C1022 C 0.41669 0.6983 0.54327 0.0
C1023 C 0.39834 0.66608 0.5514 0.0
C1024 C 0.391 0.66153 0.57788 0.0
C1025 C 0.40262 0.68822 0.59586 0.0
C1026 C 0.34033 0.59809 0.51228 0.0
C1027 C 0.36468 0.58889 0.49206 0.0
C1028 C 0.35157 0.62205 0.53215 0.0
C1029 C 0.38726 0.63758 0.53206 0.0
C1030 C 0.41199 0.62712 0.51246 0.0
C1031 C 0.40091 0.60306 0.49278 0.0
H1032 H 0.88749 0.4186 0.4624 0.0
H1033 H 0.94691 0.34371 0.51222 0.0
H1034 H 0.84886 0.43737 0.49841 0.0
H1035 H 0.90727 0.36199 0.54849 0.0
H1036 H 0.84142 0.42787 0.61187 0.0
H1037 H 0.88683 0.41119 0.57859 0.0
H1038 H 0.79962 0.40834 0.52162 0.0
H1039 H 0.75494 0.42548 0.55433 0.0
C1040 C 0.89255 0.40634 0.48115 0.0
C1041 C 0.92022 0.37948 0.48434 0.0
C1042 C 0.87012 0.4169 0.50182 0.0
C1043 C 0.87431 0.40064 0.52631 0.0
C1044 C 0.90326 0.37513 0.52993 0.0
C1045 C 0.92603 0.36469 0.50915 0.0
C1046 C 0.83204 0.42351 0.59223 0.0
C1047 C 0.79456 0.42853 0.58575 0.0
C1048 C 0.85805 0.41389 0.57317 0.0
C1049 C 0.84709 0.40909 0.54726 0.0
C1050 C 0.80938 0.41285 0.54115 0.0
C1051 C 0.78361 0.42251 0.56003 0.0
H1052 H 0.03712 0.82516 0.58922 0.0
H1053 H 0.15192 0.80029 0.6038 0.0
H1054 H 0.05504 0.87142 0.55776 0.0
H1055 H 0.17012 0.84638 0.57134 0.0
H1056 H 0.1889 0.94741 0.51725 0.0
H1057 H 0.17139 0.91277 0.55633 0.0
H1058 H 0.07949 0.86463 0.51488 0.0
H1059 H 0.09657 0.89902 0.4766 0.0
C1060 C 0.06633 0.82969 0.58581 0.0
C1061 C 0.09308 0.80841 0.59873 0.0
C1062 C 0.07662 0.85626 0.56765 0.0
C1063 C 0.11402 0.8622 0.56152 0.0
C1064 C 0.14104 0.84259 0.57557 0.0
C1065 C 0.13065 0.81603 0.59408 0.0
C1066 C 0.16439 0.93017 0.51685 0.0
C1067 C 0.14393 0.92622 0.49389 0.0
C1068 C 0.15466 0.90994 0.53909 0.0
C1069 C 0.12395 0.88588 0.53885 0.0
C1070 C 0.10292 0.88323 0.51607 0.0
C1071 C 0.11279 0.90295 0.49399 0.0
H1072 H 0.1896 0.88875 0.94935 0.0
H1073 H 0.23433 0.97215 1.00019 0.0
H1074 H 0.14486 0.87105 0.98292 0.0
H1075 H 0.18908 0.95619 0.0328 0.0
H1076 H 0.14667 0.88796 0.09776 0.0
H1077 H 0.18322 0.90678 0.06142 0.0
H1078 H 0.09108 0.88593 1.01027 0.0
H1079 H 0.05398 0.86518 0.04745 0.0
C1080 C 0.18946 0.90364 0.96751 0.0
C1081 C 0.21595 0.9313 0.97237 0.0
C1082 C 0.16372 0.89368 0.98668 0.0
C1083 C 0.16375 0.91162 1.01087 0.0
C1084 C 0.1889 0.94081 1.01484 0.0
C1085 C 0.21486 0.95014 0.99606 0.0
C1086 C 0.13364 0.88767 0.07892 0.0
C1087 C 0.09691 0.87557 0.07576 0.0
C1088 C 0.15481 0.89873 0.0579 0.0
C1089 C 0.14006 0.89875 0.0328 0.0
C1090 C 0.10337 0.88634 0.02934 0.0
C1091 C 0.08199 0.87475 0.05064 0.0
H1092 H 0.58887 0.11692 0.091 0.0
H1093 H 0.67573 0.06955 0.04445 0.0
H1094 H 0.57012 0.15562 0.05504 0.0
H1095 H 0.65725 0.10925 1.00818 0.0
H1096 H 0.59229 0.17455 0.9434 0.0
H1097 H 0.60887 0.12764 0.97569 0.0
H1098 H 0.59839 0.20952 0.03596 0.0
H1099 H 0.5816 0.25567 1.00423 0.0
C1100 C 0.60367 0.11436 0.0729 0.0
C1101 C 0.63394 0.09023 0.07069 0.0
C1102 C 0.59311 0.13686 0.05229 0.0
C1103 C 0.61271 0.13631 1.02884 0.0
C1104 C 0.64155 0.11044 1.02596 0.0
C1105 C 0.65206 0.08758 0.0467 0.0
C1106 C 0.59366 0.18246 0.96356 0.0
C1107 C 0.58511 0.21887 0.97117 0.0
C1108 C 0.60324 0.15559 0.98205 0.0
C1109 C 0.60432 0.16454 1.00853 0.0
C1110 C 0.59686 0.20123 1.01588 0.0
C1111 C 0.58739 0.22788 0.99756 0.0
H1112 H 0.29765 0.65442 0.95675 0.0
H1113 H 0.31775 0.53929 0.97351 0.0
H1114 H 0.34315 0.67189 0.99004 0.0
H1115 H 0.36281 0.55651 1.00597 0.0
H1116 H 0.3919 0.59935 0.08644 0.0
H1117 H 0.35506 0.58415 0.04872 0.0
H1118 H 0.41119 0.6688 1.005 0.0
H1119 H 0.44848 0.68433 0.04332 0.0
C1120 C 0.31209 0.6329 0.96716 0.0
C1121 C 0.30342 0.59548 0.96273 0.0
C1122 C 0.33824 0.64287 0.98618 0.0
C1123 C 0.35621 0.61557 1.00104 0.0
C1124 C 0.34895 0.57829 0.9954 0.0
C1125 C 0.32302 0.56843 0.97665 0.0
C1126 C 0.39693 0.61445 0.06873 0.0
C1127 C 0.4235 0.64282 0.06792 0.0
C1128 C 0.37575 0.60568 0.047 0.0
C1129 C 0.38014 0.62515 1.0237 0.0
C1130 C 0.407 0.65336 1.02266 0.0
C1131 C 0.42869 0.6619 0.04449 0.0
H1132 H 0.91958 0.38669 0.09131 0.0
H1133 H 0.8411 0.44571 0.04395 0.0
H1134 H 0.93728 0.34926 0.05442 0.0
H1135 H 0.85867 0.40742 1.00671 0.0
H1136 H 0.92662 0.34251 0.94216 0.0
H1137 H 0.91 0.38792 0.97561 0.0
H1138 H 0.90379 0.30014 0.03184 0.0
H1139 H 0.92044 0.25544 0.99903 0.0
C1140 C 0.90637 0.39201 0.07291 0.0
C1141 C 0.87868 0.41905 0.07069 0.0
C1142 C 0.91637 0.37033 0.05174 0.0
C1143 C 0.89884 0.37476 1.02771 0.0
C1144 C 0.87269 0.4033 1.02496 0.0
C1145 C 0.86269 0.42526 0.04627 0.0
C1146 C 0.92141 0.33301 0.96164 0.0
C1147 C 0.92546 0.29538 0.96795 0.0
C1148 C 0.91188 0.35899 0.98078 0.0
C1149 C 0.90635 0.34777 1.00653 0.0
C1150 C 0.90887 0.30995 1.01241 0.0
C1151 C 0.91829 0.28422 0.99347 0.0
H1152 H 0.37811 0.90679 0.59723 0.0
H1153 H 0.45768 0.85568 0.54622 0.0
H1154 H 0.34229 0.92662 0.56083 0.0
H1155 H 0.42196 0.87761 0.50888 0.0
H1156 H 0.31878 0.88328 0.4531 0.0
H1157 H 0.36469 0.86704 0.48609 0.0
H1158 H 0.33925 0.96809 0.52708 0.0
H1159 H 0.29221 0.98264 0.49524 0.0
C1160 C 0.38857 0.90044 0.57814 0.0
C1161 C 0.42106 0.87964 0.57479 0.0
C1162 C 0.36794 0.91221 0.55705 0.0
C1163 C 0.37925 0.90422 0.5317 0.0
C1164 C 0.41225 0.88411 0.52813 0.0
C1165 C 0.43296 0.87187 0.5495 0.0
C1166 C 0.32337 0.90196 0.46916 0.0
C1167 C 0.30154 0.9338 0.47197 0.0
C1168 C 0.34981 0.89285 0.48797 0.0
C1169 C 0.35531 0.91585 0.50963 0.0
C1170 C 0.33503 0.94898 0.51124 0.0
C1171 C 0.30813 0.9575 0.49291 0.0
H1172 H 0.59405 0.39118 0.59398 0.0
H1173 H 0.67461 0.44478 0.54524 0.0
H1174 H 0.57434 0.35292 0.55798 0.0
H1175 H 0.65526 0.40545 0.5089 0.0
H1176 H 0.58803 0.34055 0.44495 0.0
H1177 H 0.60582 0.38636 0.47782 0.0
H1178 H 0.60178 0.30136 0.5362 0.0
H1179 H 0.58368 0.25635 0.50393 0.0
C1180 C 0.60734 0.3951 0.57543 0.0
C1181 C 0.63607 0.42099 0.5726 0.0
C1182 C 0.59622 0.37285 0.55477 0.0
C1183 C 0.61373 0.37535 0.53058 0.0
C1184 C 0.64112 0.40271 0.52722 0.0
C1185 C 0.65216 0.42535 0.54803 0.0
C1186 C 0.59104 0.33174 0.46482 0.0
C1187 C 0.58388 0.29477 0.47176 0.0
C1188 C 0.60134 0.35798 0.48365 0.0
C1189 C 0.60461 0.34783 0.50983 0.0
C1190 C 0.59855 0.3106 0.51644 0.0
C1191 C 0.58831 0.2846 0.49779 0.0
H1192 H 0.22654 0.55558 0.49069 0.0
H1193 H 0.20329 0.64985 0.44227 0.0
H1194 H 0.18283 0.57742 0.5223 0.0
H1195 H 0.1576 0.6714 0.474 0.0
H1196 H 0.10732 0.71538 0.55176 0.0
H1197 H 0.14776 0.69687 0.51618 0.0
H1198 H 0.12 0.58244 0.53035 0.0
H1199 H 0.08133 0.60093 0.5665 0.0
C1200 C 0.21163 0.58084 0.48654 0.0
C1201 C 0.21817 0.60057 0.46359 0.0
C1202 C 0.18612 0.59331 0.50475 0.0
C1203 C 0.1657 0.62583 0.50066 0.0
C1204 C 0.17267 0.64619 0.47791 0.0
C1205 C 0.19874 0.63377 0.45961 0.0
C1206 C 0.10951 0.6863 0.54698 0.0
C1207 C 0.09125 0.65959 0.56209 0.0
C1208 C 0.13271 0.67565 0.52651 0.0
C1209 C 0.13792 0.63802 0.52049 0.0
C1210 C 0.11781 0.6116 0.53477 0.0
C1211 C 0.09522 0.62219 0.55543 0.0
H1212 H 0.92327 0.1201 0.59137 0.0
H1213 H 0.8405 0.06829 0.54329 0.0
H1214 H 0.94135 0.15971 0.55574 0.0
H1215 H 0.85845 0.10877 0.50732 0.0
H1216 H 0.92505 0.17537 0.44384 0.0
H1217 H 0.90843 0.12848 0.47607 0.0
H1218 H 0.91074 0.21211 0.5356 0.0
H1219 H 0.9275 0.25842 0.50386 0.0
C1220 C 0.90923 0.11679 0.57303 0.0
C1221 C 0.88027 0.09112 0.57027 0.0
C1222 C 0.91942 0.13978 0.55261 0.0
C1223 C 0.90081 0.13809 0.5288 0.0
C1224 C 0.87334 0.11083 0.52541 0.0
C1225 C 0.86315 0.08754 0.54598 0.0
C1226 C 0.92177 0.18371 0.4638 0.0
C1227 C 0.92804 0.22067 0.47125 0.0
C1228 C 0.9122 0.15684 0.48225 0.0
C1229 C 0.90886 0.16635 0.50852 0.0
C1230 C 0.91398 0.20353 0.51568 0.0
C1231 C 0.92343 0.23022 0.49738 0.0
H1232 H 0.9583 0.14619 1.00965 0.0
H1233 H 0.86328 0.13577 0.95956 0.0
H1234 H 0.91999 0.12621 0.04644 0.0
H1235 H 0.82558 0.11768 0.99563 0.0
H1236 H 0.77164 0.04924 0.05479 0.0
H1237 H 0.81603 0.0664 1.02202 0.0
H1238 H 0.86832 0.14208 0.07538 0.0
H1239 H 0.82417 0.12325 0.10904 0.0
C1240 C 0.92945 0.1396 1.00644 0.0
C1241 C 0.91426 0.14178 0.98145 0.0
C1242 C 0.90739 0.12842 1.02754 0.0
C1243 C 0.86969 0.11952 1.02405 0.0
C1244 C 0.85464 0.12291 0.99914 0.0
C1245 C 0.87648 0.13352 0.97828 0.0
C1246 C 0.79258 0.06951 0.0597 0.0
C1247 C 0.79394 0.08523 0.0845 0.0
C1248 C 0.8181 0.07955 0.04076 0.0
C1249 C 0.84547 0.10635 0.0457 0.0
C1250 C 0.84773 0.12132 0.07082 0.0
C1251 C 0.82231 0.11071 0.09008 0.0
H1252 H 0.36136 0.95872 1.01493 0.0
H1253 H 0.39419 0.87016 0.96372 0.0
H1254 H 0.38381 0.92239 0.05194 0.0
H1255 H 0.41474 0.83429 0.99987 0.0
H1256 H 0.47994 0.78581 0.06172 0.0
H1257 H 0.46313 0.83192 0.02989 0.0
H1258 H 0.3711 0.86606 0.07747 0.0
H1259 H 0.38957 0.82062 0.11031 0.0
C1260 C 0.37352 0.93182 1.01151 0.0
C1261 C 0.37646 0.91779 0.98623 0.0
C1262 C 0.3861 0.91089 0.0327 0.0
C1263 C 0.4017 0.87558 1.02892 0.0
C1264 C 0.40409 0.86174 1.00363 0.0
C1265 C 0.392 0.88249 0.98273 0.0
C1266 C 0.45631 0.80337 0.06552 0.0
C1267 C 0.43569 0.79925 0.08827 0.0
C1268 C 0.44652 0.82978 0.04722 0.0
C1269 C 0.41514 0.85219 0.05073 0.0
C1270 C 0.39544 0.84935 0.07412 0.0
C1271 C 0.40584 0.82323 0.09285 0.0
H1272 H 0.67506 0.41849 0.11443 0.0
H1273 H 0.75712 0.42472 0.05398 0.0
H1274 H 0.62786 0.40263 0.08205 0.0
H1275 H 0.71065 0.40874 1.02217 0.0
H1276 H 0.61851 0.42218 0.96686 0.0
H1277 H 0.65776 0.43958 1.00295 0.0
H1278 H 0.60836 0.35387 0.04955 0.0
H1279 H 0.5682 0.33667 1.01315 0.0
C1280 C 0.68312 0.41624 0.09435 0.0
C1281 C 0.71987 0.42341 0.08683 0.0
C1282 C 0.65608 0.4071 0.07581 0.0
C1283 C 0.66525 0.40511 0.0494 0.0
C1284 C 0.70227 0.41101 0.04219 0.0
C1285 C 0.72907 0.42002 0.06055 0.0
C1286 C 0.61544 0.40739 0.98492 0.0
C1287 C 0.59032 0.37786 0.98701 0.0
C1288 C 0.63821 0.41719 1.0056 0.0
C1289 C 0.6369 0.39759 1.02901 0.0
C1290 C 0.61013 0.36954 0.03178 0.0
C1291 C 0.58702 0.35976 1.01096 0.0
H1292 H 0.06957 0.74918 0.055 0.0
H1293 H 0.11345 0.68291 0.1172 0.0
H1294 H 0.09067 0.70355 1.02386 0.0
H1295 H 0.1348 0.63694 0.08565 0.0
H1296 H 0.20188 0.58933 1.0135 0.0
H1297 H 0.181 0.63028 0.04835 0.0
H1298 H 0.07412 0.63905 1.01182 0.0
H1299 H 0.09465 0.59845 0.97726 0.0
C1300 C 0.08371 0.72485 0.06211 0.0
C1301 C 0.08953 0.71972 0.08874 0.0
C1302 C 0.09567 0.69853 0.04418 0.0
C1303 C 0.11413 0.66637 0.05223 0.0
C1304 C 0.1207 0.66143 0.07881 0.0
C1305 C 0.10831 0.68769 0.09688 0.0
C1306 C 0.17371 0.59946 1.01316 0.0
C1307 C 0.15004 0.59057 0.99245 0.0
C1308 C 0.16177 0.62294 0.03315 0.0
C1309 C 0.12603 0.63833 0.03271 0.0
C1310 C 0.10201 0.62821 1.01255 0.0
C1311 C 0.11378 0.60465 0.99278 0.0
loop_
_geom_bond_atom_site_label_1
_geom_bond_atom_site_label_2
_geom_bond_distance
_geom_bond_site_symmetry_2
_ccdc_geom_bond_type
Fe0 O2 1.918 . S
Fe0 O5 1.997 . S
Fe0 O6 2.002 . S
Fe0 O11 1.976 . S
Fe0 O14 1.996 . S
Fe1 O2 1.918 . S
Fe1 O9 1.997 . S
Fe1 O12 1.996 . S
Fe1 O16 1.976 . S
Fe1 O19 2.002 . S
O2 Fe0 1.918 . S
O2 Fe1 1.918 . S
O2 Fe3 1.918 . S
Fe3 O2 1.918 . S
Fe3 O4 2.002 . S
Fe3 O13 1.976 . S
Fe3 O17 1.996 . S
Fe3 O20 1.997 . S
O4 Fe3 2.002 . S
O4 C21 1.295 . S
O5 Fe0 1.997 . S
O5 C21 1.235 . S
O6 Fe0 2.002 . S
O6 C7 1.295 . S
C7 O6 1.295 . S
C7 O9 1.235 . S
C8 O13 1.287 . S
C8 O14 1.255 . S
O9 Fe1 1.997 . S
O9 C7 1.235 . S
C10 O16 1.287 . S
C10 O17 1.255 . S
O11 Fe0 1.976 . S
O11 C18 1.287 . S
O12 Fe1 1.996 . S
O12 C18 1.255 . S
O13 Fe3 1.976 . S
O13 C8 1.287 . S
O14 Fe0 1.996 . S
O14 C8 1.255 . S
C15 O19 1.295 . S
C15 O20 1.235 . S
O16 Fe1 1.976 . S
O16 C10 1.287 . S
O17 Fe3 1.996 . S
O17 C10 1.255 . S
C18 O11 1.287 . S
C18 O12 1.255 . S
O19 Fe1 2.002 . S
O19 C15 1.295 . S
O20 Fe3 1.997 . S
O20 C15 1.235 . S
C21 O4 1.295 . S
C21 O5 1.235 . S
Fe22 O24 1.918 . S
Fe22 O27 1.997 . S
Fe22 O28 2.002 . S
Fe22 O33 1.976 . S
Fe22 O36 1.996 . S
Fe23 O24 1.918 . S
Fe23 O31 1.997 . S
Fe23 O34 1.996 . S
Fe23 O38 1.976 . S
Fe23 O41 2.002 . S
O24 Fe22 1.918 . S
O24 Fe23 1.918 . S
O24 Fe25 1.918 . S
Fe25 O24 1.918 . S
Fe25 O26 2.002 . S
Fe25 O35 1.976 . S
Fe25 O39 1.996 . S
Fe25 O42 1.997 . S
O26 Fe25 2.002 . S
O26 C43 1.295 . S
O27 Fe22 1.997 . S
O27 C43 1.235 . S
O28 Fe22 2.002 . S
O28 C29 1.295 . S
C29 O28 1.295 . S
C29 O31 1.235 . S
C30 O35 1.287 . S
C30 O36 1.255 . S
O31 Fe23 1.997 . S
O31 C29 1.235 . S
C32 O38 1.287 . S
C32 O39 1.255 . S
O33 Fe22 1.976 . S
O33 C40 1.287 . S
O34 Fe23 1.996 . S
O34 C40 1.255 . S
O35 Fe25 1.976 . S
O35 C30 1.287 . S
O36 Fe22 1.996 . S
O36 C30 1.255 . S
C37 O41 1.295 . S
C37 O42 1.235 . S
O38 Fe23 1.976 . S
O38 C32 1.287 . S
O39 Fe25 1.996 . S
O39 C32 1.255 . S
C40 O33 1.287 . S
C40 O34 1.255 . S
O41 Fe23 2.002 . S
O41 C37 1.295 . S
O42 Fe25 1.997 . S
O42 C37 1.235 . S
C43 O26 1.295 . S
C43 O27 1.235 . S
Fe44 O46 1.918 . S
Fe44 O49 1.997 . S
Fe44 O50 2.002 . S
Fe44 O55 1.976 . S
Fe44 O58 1.996 . S
Fe45 O46 1.918 . S
Fe45 O53 1.997 . S
Fe45 O56 1.996 . S
Fe45 O60 1.976 . S
Fe45 O63 2.002 . S
O46 Fe44 1.918 . S
O46 Fe45 1.918 . S
O46 Fe47 1.918 . S
Fe47 O46 1.918 . S
Fe47 O48 2.002 . S
Fe47 O57 1.976 . S
Fe47 O61 2.015 . S
Fe47 O64 1.997 . S
O48 Fe47 2.002 . S
O48 C65 1.295 . S
O49 Fe44 1.997 . S
O49 C65 1.235 . S
O50 Fe44 2.002 . S
O50 C51 1.295 . S
C51 O50 1.295 . S
C51 O53 1.235 . S
C52 O57 1.287 . S
C52 O58 1.255 . S
O53 Fe45 1.997 . S
O53 C51 1.235 . S
C54 O60 1.287 . S
C54 O61 1.261 . S
O55 Fe44 1.976 . S
O55 C62 1.287 . S
O56 Fe45 1.996 . S
O56 C62 1.255 . S
O57 Fe47 1.976 . S
O57 C52 1.287 . S
O58 Fe44 1.996 . S
O58 C52 1.255 . S
C59 O63 1.295 . S
C59 O64 1.235 . S
O60 Fe45 1.976 . S
O60 C54 1.287 . S
O61 Fe47 2.015 . S
O61 C54 1.261 . S
C62 O55 1.287 . S
C62 O56 1.255 . S
O63 Fe45 2.002 . S
O63 C59 1.295 . S
O64 Fe47 1.997 . S
O64 C59 1.235 . S
C65 O48 1.295 . S
C65 O49 1.235 . S
Fe66 O68 1.918 . S
Fe66 O71 1.997 . S
Fe66 O72 2.002 . S
Fe66 O77 1.976 . S
Fe66 O80 2.015 . S
Fe67 O68 1.918 . S
Fe67 O75 1.997 . S
Fe67 O78 1.996 . S
Fe67 O82 1.976 . S
Fe67 O85 2.002 . S
O68 Fe66 1.918 . S
O68 Fe67 1.918 . S
O68 Fe69 1.918 . S
Fe69 O68 1.918 . S
Fe69 O70 2.002 . S
Fe69 O79 1.976 . S
Fe69 O83 1.996 . S
Fe69 O86 1.997 . S
O70 Fe69 2.002 . S
O70 C87 1.295 . S
O71 Fe66 1.997 . S
O71 C87 1.235 . S
O72 Fe66 2.002 . S
O72 C73 1.295 . S
C73 O72 1.295 . S
C73 O75 1.235 . S
C74 O79 1.287 . S
C74 O80 1.261 . S
O75 Fe67 1.997 . S
O75 C73 1.235 . S
C76 O82 1.287 . S
C76 O83 1.255 . S
O77 Fe66 1.976 . S
O77 C84 1.287 . S
O78 Fe67 1.996 . S
O78 C84 1.255 . S
O79 Fe69 1.976 . S
O79 C74 1.287 . S
O80 Fe66 2.015 . S
O80 C74 1.261 . S
C81 O85 1.295 . S
C81 O86 1.235 . S
O82 Fe67 1.976 . S
O82 C76 1.287 . S
O83 Fe69 1.996 . S
O83 C76 1.255 . S
C84 O77 1.287 . S
C84 O78 1.255 . S
O85 Fe67 2.002 . S
O85 C81 1.295 . S
O86 Fe69 1.997 . S
O86 C81 1.235 . S
C87 O70 1.295 . S
C87 O71 1.235 . S
Fe88 O90 1.918 . S
Fe88 O93 1.997 . S
Fe88 O94 2.002 . S
Fe88 O99 1.976 . S
Fe88 O102 2.015 . S
Fe89 O90 1.918 . S
Fe89 O97 1.997 . S
Fe89 O100 1.996 . S
Fe89 O104 1.976 . S
Fe89 O107 2.002 . S
O90 Fe88 1.918 . S
O90 Fe89 1.918 . S
O90 Fe91 1.918 . S
Fe91 O90 1.918 . S
Fe91 O92 2.002 . S
Fe91 O101 1.976 . S
Fe91 O105 1.996 . S
Fe91 O108 1.997 . S
O92 Fe91 2.002 . S
O92 C109 1.295 . S
O93 Fe88 1.997 . S
O93 C109 1.235 . S
O94 Fe88 2.002 . S
O94 C95 1.295 . S
C95 O94 1.295 . S
C95 O97 1.235 . S
C96 O101 1.287 . S
C96 O102 1.261 . S
O97 Fe89 1.997 . S
O97 C95 1.235 . S
C98 O104 1.287 . S
C98 O105 1.255 . S
O99 Fe88 1.976 . S
O99 C106 1.287 . S
O100 Fe89 1.996 . S
O100 C106 1.255 . S
O101 Fe91 1.976 . S
O101 C96 1.287 . S
O102 Fe88 2.015 . S
O102 C96 1.261 . S
C103 O107 1.295 . S
C103 O108 1.235 . S
O104 Fe89 1.976 . S
O104 C98 1.287 . S
O105 Fe91 1.996 . S
O105 C98 1.255 . S
C106 O99 1.287 . S
C106 O100 1.255 . S
O107 Fe89 2.002 . S
O107 C103 1.295 . S
O108 Fe91 1.997 . S
O108 C103 1.235 . S
C109 O92 1.295 . S
C109 O93 1.235 . S
Fe110 O112 1.918 . S
Fe110 O115 1.997 . S
Fe110 O116 2.002 . S
Fe110 O121 1.976 . S
Fe110 O124 2.015 . S
Fe111 O112 1.918 . S
Fe111 O119 1.997 . S
Fe111 O122 1.996 . S
Fe111 O126 1.976 . S
Fe111 O129 2.002 . S
O112 Fe110 1.918 . S
O112 Fe111 1.918 . S
O112 Fe113 1.918 . S
Fe113 O112 1.918 . S
Fe113 O114 2.002 . S
Fe113 O123 1.976 . S
Fe113 O127 1.996 . S
Fe113 O130 1.997 . S
O114 Fe113 2.002 . S
O114 C131 1.295 . S
O115 Fe110 1.997 . S
O115 C131 1.235 . S
O116 Fe110 2.002 . S
O116 C117 1.295 . S
C117 O116 1.295 . S
C117 O119 1.235 . S
C118 O123 1.287 . S
C118 O124 1.261 . S
O119 Fe111 1.997 . S
O119 C117 1.235 . S
C120 O126 1.287 . S
C120 O127 1.255 . S
O121 Fe110 1.976 . S
O121 C128 1.287 . S
O122 Fe111 1.996 . S
O122 C128 1.255 . S
O123 Fe113 1.976 . S
O123 C118 1.287 . S
O124 Fe110 2.015 . S
O124 C118 1.261 . S
C125 O129 1.295 . S
C125 O130 1.235 . S
O126 Fe111 1.976 . S
O126 C120 1.287 . S
O127 Fe113 1.996 . S
O127 C120 1.255 . S
C128 O121 1.287 . S
C128 O122 1.255 . S
O129 Fe111 2.002 . S
O129 C125 1.295 . S
O130 Fe113 1.997 . S
O130 C125 1.235 . S
C131 O114 1.295 . S
C131 O115 1.235 . S
Fe132 O134 1.918 . S
Fe132 O137 1.997 . S
Fe132 O138 2.002 . S
Fe132 O143 1.976 . S
Fe132 O146 1.996 . S
Fe133 O134 1.918 . S
Fe133 O141 1.997 . S
Fe133 O144 1.996 . S
Fe133 O148 1.976 . S
Fe133 O151 2.002 . S
O134 Fe132 1.918 . S
O134 Fe133 1.918 . S
O134 Fe135 1.918 . S
Fe135 O134 1.918 . S
Fe135 O136 2.002 . S
Fe135 O145 1.976 . S
Fe135 O149 1.996 . S
Fe135 O152 1.997 . S
O136 Fe135 2.002 . S
O136 C153 1.295 . S
O137 Fe132 1.997 . S
O137 C153 1.235 . S
O138 Fe132 2.002 . S
O138 C139 1.295 . S
C139 O138 1.295 . S
C139 O141 1.235 . S
C140 O145 1.287 . S
C140 O146 1.255 . S
O141 Fe133 1.997 . S
O141 C139 1.235 . S
C142 O148 1.287 . S
C142 O149 1.255 . S
O143 Fe132 1.976 . S
O143 C150 1.287 . S
O144 Fe133 1.996 . S
O144 C150 1.255 . S
O145 Fe135 1.976 . S
O145 C140 1.287 . S
O146 Fe132 1.996 . S
O146 C140 1.255 . S
C147 O151 1.295 . S
C147 O152 1.235 . S
O148 Fe133 1.976 . S
O148 C142 1.287 . S
O149 Fe135 1.996 . S
O149 C142 1.255 . S
C150 O143 1.287 . S
C150 O144 1.255 . S
O151 Fe133 2.002 . S
O151 C147 1.295 . S
O152 Fe135 1.997 . S
O152 C147 1.235 . S
C153 O136 1.295 . S
C153 O137 1.235 . S
Fe154 O156 1.918 . S
Fe154 O159 1.997 . S
Fe154 O160 2.002 . S
Fe154 O165 1.976 . S
Fe154 O168 1.996 . S
Fe155 O156 1.918 . S
Fe155 O163 1.997 . S
Fe155 O166 1.996 . S
Fe155 O170 1.976 . S
Fe155 O173 2.002 . S
O156 Fe154 1.918 . S
O156 Fe155 1.918 . S
O156 Fe157 1.918 . S
Fe157 O156 1.918 . S
Fe157 O158 2.002 . S
Fe157 O167 1.976 . S
Fe157 O171 1.996 . S
Fe157 O174 1.997 . S
O158 Fe157 2.002 . S
O158 C175 1.295 . S
O159 Fe154 1.997 . S
O159 C175 1.235 . S
O160 Fe154 2.002 . S
O160 C161 1.295 . S
C161 O160 1.295 . S
C161 O163 1.235 . S
C162 O167 1.287 . S
C162 O168 1.255 . S
O163 Fe155 1.997 . S
O163 C161 1.235 . S
C164 O170 1.287 . S
C164 O171 1.255 . S
O165 Fe154 1.976 . S
O165 C172 1.287 . S
O166 Fe155 1.996 . S
O166 C172 1.255 . S
O167 Fe157 1.976 . S
O167 C162 1.287 . S
O168 Fe154 1.996 . S
O168 C162 1.255 . S
C169 O173 1.295 . S
C169 O174 1.235 . S
O170 Fe155 1.976 . S
O170 C164 1.287 . S
O171 Fe157 1.996 . S
O171 C164 1.255 . S
C172 O165 1.287 . S
C172 O166 1.255 . S
O173 Fe155 2.002 . S
O173 C169 1.295 . S
O174 Fe157 1.997 . S
O174 C169 1.235 . S
C175 O158 1.295 . S
C175 O159 1.235 . S
Fe176 O178 1.918 . S
Fe176 O181 1.997 . S
Fe176 O182 2.002 . S
Fe176 O187 1.976 . S
Fe176 O190 1.996 . S
Fe177 O178 1.918 . S
Fe177 O185 1.997 . S
Fe177 O188 1.996 . S
Fe177 O192 1.976 . S
Fe177 O195 2.002 . S
O178 Fe176 1.918 . S
O178 Fe177 1.918 . S
O178 Fe179 1.918 . S
Fe179 O178 1.918 . S
Fe179 O180 2.002 . S
Fe179 O189 1.976 . S
Fe179 O193 1.996 . S
Fe179 O196 1.997 . S
O180 Fe179 2.002 . S
O180 C197 1.295 . S
O181 Fe176 1.997 . S
O181 C197 1.235 . S
O182 Fe176 2.002 . S
O182 C183 1.295 . S
C183 O182 1.295 . S
C183 O185 1.235 . S
C184 O189 1.287 . S
C184 O190 1.255 . S
O185 Fe177 1.997 . S
O185 C183 1.235 . S
C186 O192 1.287 . S
C186 O193 1.255 . S
O187 Fe176 1.976 . S
O187 C194 1.287 . S
O188 Fe177 1.996 . S
O188 C194 1.255 . S
O189 Fe179 1.976 . S
O189 C184 1.287 . S
O190 Fe176 1.996 . S
O190 C184 1.255 . S
C191 O195 1.295 . S
C191 O196 1.235 . S
O192 Fe177 1.976 . S
O192 C186 1.287 . S
O193 Fe179 1.996 . S
O193 C186 1.255 . S
C194 O187 1.287 . S
C194 O188 1.255 . S
O195 Fe177 2.002 . S
O195 C191 1.295 . S
O196 Fe179 1.997 . S
O196 C191 1.235 . S
C197 O180 1.295 . S
C197 O181 1.235 . S
Fe198 O200 1.918 . S
Fe198 O203 1.997 . S
Fe198 O204 2.002 . S
Fe198 O209 1.976 . S
Fe198 O212 1.996 . S
Fe199 O200 1.918 . S
Fe199 O207 1.997 . S
Fe199 O210 1.996 . S
Fe199 O214 1.976 . S
Fe199 O217 2.002 . S
O200 Fe198 1.918 . S
O200 Fe199 1.918 . S
O200 Fe201 1.918 . S
Fe201 O200 1.918 . S
Fe201 O202 2.002 . S
Fe201 O211 1.976 . S
Fe201 O215 1.996 . S
Fe201 O218 1.997 . S
O202 Fe201 2.002 . S
O202 C219 1.295 . S
O203 Fe198 1.997 . S
O203 C219 1.235 . S
O204 Fe198 2.002 . S
O204 C205 1.295 . S
C205 O204 1.295 . S
C205 O207 1.235 . S
C206 O211 1.287 . S
C206 O212 1.255 . S
O207 Fe199 1.997 . S
O207 C205 1.235 . S
C208 O214 1.287 . S
C208 O215 1.255 . S
O209 Fe198 1.976 . S
O209 C216 1.287 . S
O210 Fe199 1.996 . S
O210 C216 1.255 . S
O211 Fe201 1.976 . S
O211 C206 1.287 . S
O212 Fe198 1.996 . S
O212 C206 1.255 . S
C213 O217 1.295 . S
C213 O218 1.235 . S
O214 Fe199 1.976 . S
O214 C208 1.287 . S
O215 Fe201 1.996 . S
O215 C208 1.255 . S
C216 O209 1.287 . S
C216 O210 1.255 . S
O217 Fe199 2.002 . S
O217 C213 1.295 . S
O218 Fe201 1.997 . S
O218 C213 1.235 . S
C219 O202 1.295 . S
C219 O203 1.235 . S
Fe220 O222 1.918 . S
Fe220 O225 1.997 . S
Fe220 O226 2.002 . S
Fe220 O231 1.976 . S
Fe220 O234 1.996 . S
Fe221 O222 1.918 . S
Fe221 O229 1.997 . S
Fe221 O232 2.015 . S
Fe221 O236 1.976 . S
Fe221 O239 2.002 . S
O222 Fe220 1.918 . S
O222 Fe221 1.918 . S
O222 Fe223 1.918 . S
Fe223 O222 1.918 . S
Fe223 O224 2.002 . S
Fe223 O233 1.976 . S
Fe223 O237 1.996 . S
Fe223 O240 1.997 . S
O224 Fe223 2.002 . S
O224 C241 1.295 . S
O225 Fe220 1.997 . S
O225 C241 1.235 . S
O226 Fe220 2.002 . S
O226 C227 1.295 . S
C227 O226 1.295 . S
C227 O229 1.235 . S
C228 O233 1.287 . S
C228 O234 1.255 . S
O229 Fe221 1.997 . S
O229 C227 1.235 . S
C230 O236 1.287 . S
C230 O237 1.255 . S
O231 Fe220 1.976 . S
O231 C238 1.287 . S
O232 Fe221 2.015 . S
O232 C238 1.261 . S
O233 Fe223 1.976 . S
O233 C228 1.287 . S
O234 Fe220 1.996 . S
O234 C228 1.255 . S
C235 O239 1.295 . S
C235 O240 1.235 . S
O236 Fe221 1.976 . S
O236 C230 1.287 . S
O237 Fe223 1.996 . S
O237 C230 1.255 . S
C238 O231 1.287 . S
C238 O232 1.261 . S
O239 Fe221 2.002 . S
O239 C235 1.295 . S
O240 Fe223 1.997 . S
O240 C235 1.235 . S
C241 O224 1.295 . S
C241 O225 1.235 . S
Fe242 O244 1.918 . S
Fe242 O247 1.997 . S
Fe242 O248 2.002 . S
Fe242 O253 1.976 . S
Fe242 O256 2.015 . S
Fe243 O244 1.918 . S
Fe243 O251 1.997 . S
Fe243 O254 1.996 . S
Fe243 O258 1.976 . S
Fe243 O261 2.002 . S
O244 Fe242 1.918 . S
O244 Fe243 1.918 . S
O244 Fe245 1.918 . S
Fe245 O244 1.918 . S
Fe245 O246 2.002 . S
Fe245 O255 1.976 . S
Fe245 O259 1.996 . S
Fe245 O262 1.997 . S
O246 Fe245 2.002 . S
O246 C263 1.295 . S
O247 Fe242 1.997 . S
O247 C263 1.235 . S
O248 Fe242 2.002 . S
O248 C249 1.295 . S
C249 O248 1.295 . S
C249 O251 1.235 . S
C250 O255 1.287 . S
C250 O256 1.261 . S
O251 Fe243 1.997 . S
O251 C249 1.235 . S
C252 O258 1.287 . S
C252 O259 1.255 . S
O253 Fe242 1.976 . S
O253 C260 1.287 . S
O254 Fe243 1.996 . S
O254 C260 1.255 . S
O255 Fe245 1.976 . S
O255 C250 1.287 . S
O256 Fe242 2.015 . S
O256 C250 1.261 . S
C257 O261 1.295 . S
C257 O262 1.235 . S
O258 Fe243 1.976 . S
O258 C252 1.287 . S
O259 Fe245 1.996 . S
O259 C252 1.255 . S
C260 O253 1.287 . S
C260 O254 1.255 . S
O261 Fe243 2.002 . S
O261 C257 1.295 . S
O262 Fe245 1.997 . S
O262 C257 1.235 . S
C263 O246 1.295 . S
C263 O247 1.235 . S
Fe264 O266 1.918 . S
Fe264 O269 1.997 . S
Fe264 O270 2.002 . S
Fe264 O275 1.976 . S
Fe264 O278 1.996 . S
Fe265 O266 1.918 . S
Fe265 O273 1.997 . S
Fe265 O276 2.015 . S
Fe265 O280 1.976 . S
Fe265 O283 2.002 . S
O266 Fe264 1.918 . S
O266 Fe265 1.918 . S
O266 Fe267 1.918 . S
Fe267 O266 1.918 . S
Fe267 O268 2.002 . S
Fe267 O277 1.976 . S
Fe267 O281 1.996 . S
Fe267 O284 1.997 . S
O268 Fe267 2.002 . S
O268 C285 1.295 . S
O269 Fe264 1.997 . S
O269 C285 1.235 . S
O270 Fe264 2.002 . S
O270 C271 1.295 . S
C271 O270 1.295 . S
C271 O273 1.235 . S
C272 O277 1.287 . S
C272 O278 1.255 . S
O273 Fe265 1.997 . S
O273 C271 1.235 . S
C274 O280 1.287 . S
C274 O281 1.255 . S
O275 Fe264 1.976 . S
O275 C282 1.287 . S
O276 Fe265 2.015 . S
O276 C282 1.261 . S
O277 Fe267 1.976 . S
O277 C272 1.287 . S
O278 Fe264 1.996 . S
O278 C272 1.255 . S
C279 O283 1.295 . S
C279 O284 1.235 . S
O280 Fe265 1.976 . S
O280 C274 1.287 . S
O281 Fe267 1.996 . S
O281 C274 1.255 . S
C282 O275 1.287 . S
C282 O276 1.261 . S
O283 Fe265 2.002 . S
O283 C279 1.295 . S
O284 Fe267 1.997 . S
O284 C279 1.235 . S
C285 O268 1.295 . S
C285 O269 1.235 . S
Fe286 O288 1.918 . S
Fe286 O291 1.997 . S
Fe286 O292 2.002 . S
Fe286 O297 1.976 . S
Fe286 O300 1.996 . S
Fe287 O288 1.918 . S
Fe287 O295 1.997 . S
Fe287 O298 1.996 . S
Fe287 O302 1.976 . S
Fe287 O305 2.002 . S
O288 Fe286 1.918 . S
O288 Fe287 1.918 . S
O288 Fe289 1.918 . S
Fe289 O288 1.918 . S
Fe289 O290 2.002 . S
Fe289 O299 1.976 . S
Fe289 O303 2.015 . S
Fe289 O306 1.997 . S
O290 Fe289 2.002 . S
O290 C307 1.295 . S
O291 Fe286 1.997 . S
O291 C307 1.235 . S
O292 Fe286 2.002 . S
O292 C293 1.295 . S
C293 O292 1.295 . S
C293 O295 1.235 . S
C294 O299 1.287 . S
C294 O300 1.255 . S
O295 Fe287 1.997 . S
O295 C293 1.235 . S
C296 O302 1.287 . S
C296 O303 1.261 . S
O297 Fe286 1.976 . S
O297 C304 1.287 . S
O298 Fe287 1.996 . S
O298 C304 1.255 . S
O299 Fe289 1.976 . S
O299 C294 1.287 . S
O300 Fe286 1.996 . S
O300 C294 1.255 . S
C301 O305 1.295 . S
C301 O306 1.235 . S
O302 Fe287 1.976 . S
O302 C296 1.287 . S
O303 Fe289 2.015 . S
O303 C296 1.261 . S
C304 O297 1.287 . S
C304 O298 1.255 . S
O305 Fe287 2.002 . S
O305 C301 1.295 . S
O306 Fe289 1.997 . S
O306 C301 1.235 . S
C307 O290 1.295 . S
C307 O291 1.235 . S
Fe308 O310 1.918 . S
Fe308 O313 1.997 . S
Fe308 O314 2.002 . S
Fe308 O319 1.976 . S
Fe308 O322 1.996 . S
Fe309 O310 1.918 . S
Fe309 O317 1.997 . S
Fe309 O320 1.996 . S
Fe309 O324 1.976 . S
Fe309 O327 2.002 . S
O310 Fe308 1.918 . S
O310 Fe309 1.918 . S
O310 Fe311 1.918 . S
Fe311 O310 1.918 . S
Fe311 O312 2.002 . S
Fe311 O321 1.976 . S
Fe311 O325 1.996 . S
Fe311 O328 1.997 . S
O312 Fe311 2.002 . S
O312 C329 1.295 . S
O313 Fe308 1.997 . S
O313 C329 1.235 . S
O314 Fe308 2.002 . S
O314 C315 1.295 . S
C315 O314 1.295 . S
C315 O317 1.235 . S
C316 O321 1.287 . S
C316 O322 1.255 . S
O317 Fe309 1.997 . S
O317 C315 1.235 . S
C318 O324 1.287 . S
C318 O325 1.255 . S
O319 Fe308 1.976 . S
O319 C326 1.287 . S
O320 Fe309 1.996 . S
O320 C326 1.255 . S
O321 Fe311 1.976 . S
O321 C316 1.287 . S
O322 Fe308 1.996 . S
O322 C316 1.255 . S
C323 O327 1.295 . S
C323 O328 1.235 . S
O324 Fe309 1.976 . S
O324 C318 1.287 . S
O325 Fe311 1.996 . S
O325 C318 1.255 . S
C326 O319 1.287 . S
C326 O320 1.255 . S
O327 Fe309 2.002 . S
O327 C323 1.295 . S
O328 Fe311 1.997 . S
O328 C323 1.235 . S
C329 O312 1.295 . S
C329 O313 1.235 . S
Fe330 O332 1.918 . S
Fe330 O335 1.997 . S
Fe330 O336 2.002 . S
Fe330 O341 1.976 . S
Fe330 O344 1.996 . S
Fe331 O332 1.918 . S
Fe331 O339 1.997 . S
Fe331 O342 1.996 . S
Fe331 O346 1.976 . S
Fe331 O349 2.002 . S
O332 Fe330 1.918 . S
O332 Fe331 1.918 . S
O332 Fe333 1.918 . S
Fe333 O332 1.918 . S
Fe333 O334 2.002 . S
Fe333 O343 1.976 . S
Fe333 O347 1.996 . S
Fe333 O350 1.997 . S
O334 Fe333 2.002 . S
O334 C351 1.295 . S
O335 Fe330 1.997 . S
O335 C351 1.235 . S
O336 Fe330 2.002 . S
O336 C337 1.295 . S
C337 O336 1.295 . S
C337 O339 1.235 . S
C338 O343 1.287 . S
C338 O344 1.255 . S
O339 Fe331 1.997 . S
O339 C337 1.235 . S
C340 O346 1.287 . S
C340 O347 1.255 . S
O341 Fe330 1.976 . S
O341 C348 1.287 . S
O342 Fe331 1.996 . S
O342 C348 1.255 . S
O343 Fe333 1.976 . S
O343 C338 1.287 . S
O344 Fe330 1.996 . S
O344 C338 1.255 . S
C345 O349 1.295 . S
C345 O350 1.235 . S
O346 Fe331 1.976 . S
O346 C340 1.287 . S
O347 Fe333 1.996 . S
O347 C340 1.255 . S
C348 O341 1.287 . S
C348 O342 1.255 . S
O349 Fe331 2.002 . S
O349 C345 1.295 . S
O350 Fe333 1.997 . S
O350 C345 1.235 . S
C351 O334 1.295 . S
C351 O335 1.235 . S
H352 C360 0.950 . S
H353 C365 0.950 . S
H354 C362 0.950 . S
H355 C364 0.950 . S
H356 C366 0.950 . S
H357 C368 0.950 . S
H358 C370 0.950 . S
H359 C371 0.950 . S
C360 H352 0.950 . S
C360 C361 1.386 . S
C360 C362 1.391 . S
C361 C360 1.386 . S
C361 C365 1.393 . S
C362 H354 0.950 . S
C362 C360 1.391 . S
C362 C363 1.400 . S
C363 C362 1.400 . S
C363 C364 1.398 . S
C363 C369 1.491 . S
C364 H355 0.950 . S
C364 C363 1.398 . S
C364 C365 1.391 . S
C365 H353 0.950 . S
C365 C361 1.393 . S
C365 C364 1.391 . S
C366 H356 0.950 . S
C366 C367 1.386 . S
C366 C368 1.391 . S
C367 C366 1.386 . S
C367 C371 1.393 . S
C368 H357 0.950 . S
C368 C366 1.391 . S
C368 C369 1.400 . S
C369 C363 1.491 . S
C369 C368 1.400 . S
C369 C370 1.398 . S
C370 H358 0.950 . S
C370 C369 1.398 . S
C370 C371 1.391 . S
C371 H359 0.950 . S
C371 C367 1.393 . S
C371 C370 1.391 . S
H372 C380 0.950 . S
H373 C385 0.950 . S
H374 C382 0.950 . S
H375 C384 0.950 . S
H376 C386 0.950 . S
H377 C388 0.950 . S
H378 C390 0.950 . S
H379 C391 0.950 . S
C380 H372 0.950 . S
C380 C381 1.386 . S
C380 C382 1.391 . S
C381 C380 1.386 . S
C381 C385 1.393 . S
C382 H374 0.950 . S
C382 C380 1.391 . S
C382 C383 1.400 . S
C383 C382 1.400 . S
C383 C384 1.398 . S
C383 C389 1.491 . S
C384 H375 0.950 . S
C384 C383 1.398 . S
C384 C385 1.391 . S
C385 H373 0.950 . S
C385 C381 1.393 . S
C385 C384 1.391 . S
C386 H376 0.950 . S
C386 C387 1.386 . S
C386 C388 1.391 . S
C387 C386 1.386 . S
C387 C391 1.393 . S
C388 H377 0.950 . S
C388 C386 1.391 . S
C388 C389 1.400 . S
C389 C383 1.491 . S
C389 C388 1.400 . S
C389 C390 1.398 . S
C390 H378 0.950 . S
C390 C389 1.398 . S
C390 C391 1.391 . S
C391 H379 0.950 . S
C391 C387 1.393 . S
C391 C390 1.391 . S
H392 C400 0.950 . S
H393 C405 0.950 . S
H394 C402 0.950 . S
H395 C404 0.950 . S
H396 C406 0.950 . S
H397 C408 0.950 . S
H398 C410 0.950 . S
H399 C411 0.950 . S
C400 H392 0.950 . S
C400 C401 1.386 . S
C400 C402 1.391 . S
C401 C400 1.386 . S
C401 C405 1.393 . S
C402 H394 0.950 . S
C402 C400 1.391 . S
C402 C403 1.400 . S
C403 C402 1.400 . S
C403 C404 1.398 . S
C403 C409 1.491 . S
C404 H395 0.950 . S
C404 C403 1.398 . S
C404 C405 1.391 . S
C405 H393 0.950 . S
C405 C401 1.393 . S
C405 C404 1.391 . S
C406 H396 0.950 . S
C406 C407 1.386 . S
C406 C408 1.391 . S
C407 C406 1.386 . S
C407 C411 1.393 . S
C408 H397 0.950 . S
C408 C406 1.391 . S
C408 C409 1.400 . S
C409 C403 1.491 . S
C409 C408 1.400 . S
C409 C410 1.398 . S
C410 H398 0.950 . S
C410 C409 1.398 . S
C410 C411 1.391 . S
C411 H399 0.950 . S
C411 C407 1.393 . S
C411 C410 1.391 . S
H412 C420 0.950 . S
H413 C425 0.950 . S
H414 C422 0.950 . S
H415 C424 0.950 . S
H416 C426 0.950 . S
H417 C428 0.950 . S
H418 C430 0.950 . S
H419 C431 0.950 . S
C420 H412 0.950 . S
C420 C421 1.386 . S
C420 C422 1.391 . S
C421 C420 1.386 . S
C421 C425 1.393 . S
C422 H414 0.950 . S
C422 C420 1.391 . S
C422 C423 1.400 . S
C423 C422 1.400 . S
C423 C424 1.398 . S
C423 C429 1.491 . S
C424 H415 0.950 . S
C424 C423 1.398 . S
C424 C425 1.391 . S
C425 H413 0.950 . S
C425 C421 1.393 . S
C425 C424 1.391 . S
C426 H416 0.950 . S
C426 C427 1.386 . S
C426 C428 1.391 . S
C427 C426 1.386 . S
C427 C431 1.393 . S
C428 H417 0.950 . S
C428 C426 1.391 . S
C428 C429 1.400 . S
C429 C423 1.491 . S
C429 C428 1.400 . S
C429 C430 1.398 . S
C430 H418 0.950 . S
C430 C429 1.398 . S
C430 C431 1.391 . S
C431 H419 0.950 . S
C431 C427 1.393 . S
C431 C430 1.391 . S
H432 C440 0.950 . S
H433 C445 0.950 . S
H434 C442 0.950 . S
H435 C444 0.950 . S
H436 C446 0.950 . S
H437 C448 0.950 . S
H438 C450 0.950 . S
H439 C451 0.950 . S
C440 H432 0.950 . S
C440 C441 1.386 . S
C440 C442 1.391 . S
C441 C440 1.386 . S
C441 C445 1.393 . S
C442 H434 0.950 . S
C442 C440 1.391 . S
C442 C443 1.400 . S
C443 C442 1.400 . S
C443 C444 1.398 . S
C443 C449 1.491 . S
C444 H435 0.950 . S
C444 C443 1.398 . S
C444 C445 1.391 . S
C445 H433 0.950 . S
C445 C441 1.393 . S
C445 C444 1.391 . S
C446 H436 0.950 . S
C446 C447 1.386 . S
C446 C448 1.391 . S
C447 C446 1.386 . S
C447 C451 1.393 . S
C448 H437 0.950 . S
C448 C446 1.391 . S
C448 C449 1.400 . S
C449 C443 1.491 . S
C449 C448 1.400 . S
C449 C450 1.398 . S
C450 H438 0.950 . S
C450 C449 1.398 . S
C450 C451 1.391 . S
C451 H439 0.950 . S
C451 C447 1.393 . S
C451 C450 1.391 . S
H452 C460 0.950 . S
H453 C465 0.950 . S
H454 C462 0.950 . S
H455 C464 0.950 . S
H456 C466 0.950 . S
H457 C468 0.950 . S
H458 C470 0.950 . S
H459 C471 0.950 . S
C460 H452 0.950 . S
C460 C461 1.386 . S
C460 C462 1.391 . S
C461 C460 1.386 . S
C461 C465 1.393 . S
C462 H454 0.950 . S
C462 C460 1.391 . S
C462 C463 1.400 . S
C463 C462 1.400 . S
C463 C464 1.398 . S
C463 C469 1.491 . S
C464 H455 0.950 . S
C464 C463 1.398 . S
C464 C465 1.391 . S
C465 H453 0.950 . S
C465 C461 1.393 . S
C465 C464 1.391 . S
C466 H456 0.950 . S
C466 C467 1.386 . S
C466 C468 1.391 . S
C467 C466 1.386 . S
C467 C471 1.393 . S
C468 H457 0.950 . S
C468 C466 1.391 . S
C468 C469 1.400 . S
C469 C463 1.491 . S
C469 C468 1.400 . S
C469 C470 1.398 . S
C470 H458 0.950 . S
C470 C469 1.398 . S
C470 C471 1.391 . S
C471 H459 0.950 . S
C471 C467 1.393 . S
C471 C470 1.391 . S
H472 C480 0.950 . S
H473 C485 0.950 . S
H474 C482 0.950 . S
H475 C484 0.950 . S
H476 C486 0.950 . S
H477 C488 0.950 . S
H478 C490 0.950 . S
H479 C491 0.950 . S
C480 H472 0.950 . S
C480 C481 1.386 . S
C480 C482 1.391 . S
C481 C480 1.386 . S
C481 C485 1.393 . S
C482 H474 0.950 . S
C482 C480 1.391 . S
C482 C483 1.400 . S
C483 C482 1.400 . S
C483 C484 1.398 . S
C483 C489 1.491 . S
C484 H475 0.950 . S
C484 C483 1.398 . S
C484 C485 1.391 . S
C485 H473 0.950 . S
C485 C481 1.393 . S
C485 C484 1.391 . S
C486 H476 0.950 . S
C486 C487 1.386 . S
C486 C488 1.391 . S
C487 C486 1.386 . S
C487 C491 1.393 . S
C488 H477 0.950 . S
C488 C486 1.391 . S
C488 C489 1.400 . S
C489 C483 1.491 . S
C489 C488 1.400 . S
C489 C490 1.398 . S
C490 H478 0.950 . S
C490 C489 1.398 . S
C490 C491 1.391 . S
C491 H479 0.950 . S
C491 C487 1.393 . S
C491 C490 1.391 . S
H492 C500 0.950 . S
H493 C505 0.950 . S
H494 C502 0.950 . S
H495 C504 0.950 . S
H496 C506 0.950 . S
H497 C508 0.950 . S
H498 C510 0.950 . S
H499 C511 0.950 . S
C500 H492 0.950 . S
C500 C501 1.386 . S
C500 C502 1.391 . S
C501 C500 1.386 . S
C501 C505 1.393 . S
C502 H494 0.950 . S
C502 C500 1.391 . S
C502 C503 1.400 . S
C503 C502 1.400 . S
C503 C504 1.398 . S
C503 C509 1.491 . S
C504 H495 0.950 . S
C504 C503 1.398 . S
C504 C505 1.391 . S
C505 H493 0.950 . S
C505 C501 1.393 . S
C505 C504 1.391 . S
C506 H496 0.950 . S
C506 C507 1.386 . S
C506 C508 1.391 . S
C507 C506 1.386 . S
C507 C511 1.393 . S
C508 H497 0.950 . S
C508 C506 1.391 . S
C508 C509 1.400 . S
C509 C503 1.491 . S
C509 C508 1.400 . S
C509 C510 1.398 . S
C510 H498 0.950 . S
C510 C509 1.398 . S
C510 C511 1.391 . S
C511 H499 0.950 . S
C511 C507 1.393 . S
C511 C510 1.391 . S
H512 C520 0.950 . S
H513 C525 0.950 . S
H514 C522 0.950 . S
H515 C524 0.950 . S
H516 C526 0.950 1_565 S
H517 C528 0.950 . S
H518 C530 0.950 . S
H519 C531 0.950 . S
C520 H512 0.950 . S
C520 C521 1.386 . S
C520 C522 1.391 . S
C521 C520 1.386 . S
C521 C525 1.393 . S
C522 H514 0.950 . S
C522 C520 1.391 . S
C522 C523 1.400 . S
C523 C522 1.400 . S
C523 C524 1.398 . S
C523 C529 1.491 . S
C524 H515 0.950 . S
C524 C523 1.398 . S
C524 C525 1.391 . S
C525 H513 0.950 . S
C525 C521 1.393 . S
C525 C524 1.391 . S
C526 H516 0.950 1_545 S
C526 C527 1.386 . S
C526 C528 1.391 . S
C527 C526 1.386 . S
C527 C531 1.393 . S
C528 H517 0.950 . S
C528 C526 1.391 . S
C528 C529 1.400 . S
C529 C523 1.491 . S
C529 C528 1.400 . S
C529 C530 1.398 . S
C530 H518 0.950 . S
C530 C529 1.398 . S
C530 C531 1.391 . S
C531 H519 0.950 . S
C531 C527 1.393 . S
C531 C530 1.391 . S
H532 C540 0.950 . S
H533 C545 0.950 . S
H534 C542 0.950 . S
H535 C544 0.950 . S
H536 C546 0.950 . S
H537 C548 0.950 . S
H538 C550 0.950 . S
H539 C551 0.950 . S
C540 H532 0.950 . S
C540 C541 1.386 . S
C540 C542 1.391 . S
C541 C540 1.386 . S
C541 C545 1.393 . S
C542 H534 0.950 . S
C542 C540 1.391 . S
C542 C543 1.400 . S
C543 C542 1.400 . S
C543 C544 1.398 . S
C543 C549 1.491 . S
C544 H535 0.950 . S
C544 C543 1.398 . S
C544 C545 1.391 . S
C545 H533 0.950 . S
C545 C541 1.393 . S
C545 C544 1.391 . S
C546 H536 0.950 . S
C546 C547 1.386 . S
C546 C548 1.391 . S
C547 C546 1.386 . S
C547 C551 1.393 . S
C548 H537 0.950 . S
C548 C546 1.391 . S
C548 C549 1.400 . S
C549 C543 1.491 . S
C549 C548 1.400 . S
C549 C550 1.398 . S
C550 H538 0.950 . S
C550 C549 1.398 . S
C550 C551 1.391 . S
C551 H539 0.950 . S
C551 C547 1.393 . S
C551 C550 1.391 . S
H552 C560 0.950 . S
H553 C565 0.950 . S
H554 C562 0.950 . S
H555 C564 0.950 . S
H556 C566 0.950 . S
H557 C568 0.950 . S
H558 C570 0.950 . S
H559 C571 0.950 . S
C560 H552 0.950 . S
C560 C561 1.386 . S
C560 C562 1.391 . S
C561 C560 1.386 . S
C561 C565 1.393 . S
C562 H554 0.950 . S
C562 C560 1.391 . S
C562 C563 1.400 . S
C563 C562 1.400 . S
C563 C564 1.398 . S
C563 C569 1.491 . S
C564 H555 0.950 . S
C564 C563 1.398 . S
C564 C565 1.391 . S
C565 H553 0.950 . S
C565 C561 1.393 . S
C565 C564 1.391 . S
C566 H556 0.950 . S
C566 C567 1.386 . S
C566 C568 1.391 . S
C567 C566 1.386 . S
C567 C571 1.393 . S
C568 H557 0.950 . S
C568 C566 1.391 . S
C568 C569 1.400 . S
C569 C563 1.491 . S
C569 C568 1.400 . S
C569 C570 1.398 . S
C570 H558 0.950 . S
C570 C569 1.398 . S
C570 C571 1.391 . S
C571 H559 0.950 . S
C571 C567 1.393 . S
C571 C570 1.391 . S
H572 C580 0.950 . S
H573 C585 0.950 . S
H574 C582 0.950 . S
H575 C584 0.950 . S
H576 C586 0.950 . S
H577 C588 0.950 . S
H578 C590 0.950 . S
H579 C591 0.950 1_655 S
C580 H572 0.950 . S
C580 C581 1.386 . S
C580 C582 1.391 . S
C581 C580 1.386 . S
C581 C585 1.393 . S
C582 H574 0.950 . S
C582 C580 1.391 . S
C582 C583 1.400 . S
C583 C582 1.400 . S
C583 C584 1.398 . S
C583 C589 1.491 . S
C584 H575 0.950 . S
C584 C583 1.398 . S
C584 C585 1.391 . S
C585 H573 0.950 . S
C585 C581 1.393 . S
C585 C584 1.391 . S
C586 H576 0.950 . S
C586 C587 1.386 . S
C586 C588 1.391 . S
C587 C586 1.386 . S
C587 C591 1.393 . S
C588 H577 0.950 . S
C588 C586 1.391 . S
C588 C589 1.400 . S
C589 C583 1.491 . S
C589 C588 1.400 . S
C589 C590 1.398 . S
C590 H578 0.950 . S
C590 C589 1.398 . S
C590 C591 1.391 . S
C591 H579 0.950 1_455 S
C591 C587 1.393 . S
C591 C590 1.391 . S
H592 C600 0.950 1_455 S
H593 C605 0.950 . S
H594 C602 0.950 . S
H595 C604 0.950 . S
H596 C606 0.950 . S
H597 C608 0.950 . S
H598 C610 0.950 . S
H599 C611 0.950 1_545 S
C600 H592 0.950 1_655 S
C600 C601 1.386 . S
C600 C602 1.391 . S
C601 C600 1.386 . S
C601 C605 1.393 . S
C602 H594 0.950 . S
C602 C600 1.391 . S
C602 C603 1.400 . S
C603 C602 1.400 . S
C603 C604 1.398 . S
C603 C609 1.491 . S
C604 H595 0.950 . S
C604 C603 1.398 . S
C604 C605 1.391 . S
C605 H593 0.950 . S
C605 C601 1.393 . S
C605 C604 1.391 . S
C606 H596 0.950 . S
C606 C607 1.386 . S
C606 C608 1.391 . S
C607 C606 1.386 . S
C607 C611 1.393 . S
C608 H597 0.950 . S
C608 C606 1.391 . S
C608 C609 1.400 . S
C609 C603 1.491 . S
C609 C608 1.400 . S
C609 C610 1.398 . S
C610 H598 0.950 . S
C610 C609 1.398 . S
C610 C611 1.391 . S
C611 H599 0.950 1_565 S
C611 C607 1.393 . S
C611 C610 1.391 . S
H612 C620 0.950 . S
H613 C625 0.950 . S
H614 C622 0.950 . S
H615 C624 0.950 . S
H616 C626 0.950 . S
H617 C628 0.950 . S
H618 C630 0.950 . S
H619 C631 0.936 1_545 S
C620 H612 0.950 . S
C620 C621 1.386 . S
C620 C622 1.391 . S
C621 C620 1.386 . S
C621 C625 1.393 . S
C622 H614 0.950 . S
C622 C620 1.391 . S
C622 C623 1.400 . S
C623 C622 1.400 . S
C623 C624 1.398 . S
C623 C629 1.491 . S
C624 H615 0.950 . S
C624 C623 1.398 . S
C624 C625 1.391 . S
C625 H613 0.950 . S
C625 C621 1.393 . S
C625 C624 1.391 . S
C626 H616 0.950 . S
C626 C627 1.386 . S
C626 C628 1.391 . S
C627 C626 1.386 . S
C627 C631 1.393 . S
C628 H617 0.950 . S
C628 C626 1.391 . S
C628 C629 1.400 . S
C629 C623 1.491 . S
C629 C628 1.400 . S
C629 C630 1.398 . S
C630 H618 0.950 . S
C630 C629 1.398 . S
C630 C631 1.391 . S
C631 H619 0.936 1_565 S
C631 C627 1.393 . S
C631 C630 1.391 . S
H632 C640 0.950 . S
H633 C645 0.950 . S
H634 C642 0.950 . S
H635 C644 0.950 . S
H636 C646 0.950 . S
H637 C648 0.950 . S
H638 C650 0.950 . S
H639 C651 0.950 . S
C640 H632 0.950 . S
C640 C641 1.386 . S
C640 C642 1.391 . S
C641 C640 1.386 . S
C641 C645 1.393 . S
C642 H634 0.950 . S
C642 C640 1.391 . S
C642 C643 1.400 . S
C643 C642 1.400 . S
C643 C644 1.398 . S
C643 C649 1.491 . S
C644 H635 0.950 . S
C644 C643 1.398 . S
C644 C645 1.391 . S
C645 H633 0.950 . S
C645 C641 1.393 . S
C645 C644 1.391 . S
C646 H636 0.950 . S
C646 C647 1.386 . S
C646 C648 1.391 . S
C647 C646 1.386 . S
C647 C651 1.393 . S
C648 H637 0.950 . S
C648 C646 1.391 . S
C648 C649 1.400 . S
C649 C643 1.491 . S
C649 C648 1.400 . S
C649 C650 1.398 . S
C650 H638 0.950 . S
C650 C649 1.398 . S
C650 C651 1.391 . S
C651 H639 0.950 . S
C651 C647 1.393 . S
C651 C650 1.391 . S
H652 C660 0.950 1_455 S
H653 C665 0.950 . S
H654 C662 0.950 . S
H655 C664 0.950 . S
H656 C666 0.950 . S
H657 C668 0.950 . S
H658 C670 0.950 . S
H659 C671 0.950 . S
C660 H652 0.950 1_655 S
C660 C661 1.386 . S
C660 C662 1.391 . S
C661 C660 1.386 . S
C661 C665 1.393 . S
C662 H654 0.950 . S
C662 C660 1.391 . S
C662 C663 1.400 . S
C663 C662 1.400 . S
C663 C664 1.398 . S
C663 C669 1.491 . S
C664 H655 0.950 . S
C664 C663 1.398 . S
C664 C665 1.391 . S
C665 H653 0.950 . S
C665 C661 1.393 . S
C665 C664 1.391 . S
C666 H656 0.950 . S
C666 C667 1.386 . S
C666 C668 1.391 . S
C667 C666 1.386 . S
C667 C671 1.393 . S
C668 H657 0.950 . S
C668 C666 1.391 . S
C668 C669 1.400 . S
C669 C663 1.491 . S
C669 C668 1.400 . S
C669 C670 1.398 . S
C670 H658 0.950 . S
C670 C669 1.398 . S
C670 C671 1.391 . S
C671 H659 0.950 . S
C671 C667 1.393 . S
C671 C670 1.391 . S
H672 C680 0.950 . S
H673 C685 0.950 . S
H674 C682 0.950 . S
H675 C684 0.950 . S
H676 C686 0.950 . S
H677 C688 0.950 . S
H678 C690 0.950 . S
H679 C691 0.950 . S
C680 H672 0.950 . S
C680 C681 1.386 . S
C680 C682 1.391 . S
C681 C680 1.386 . S
C681 C685 1.393 . S
C682 H674 0.950 . S
C682 C680 1.391 . S
C682 C683 1.400 . S
C683 C682 1.400 . S
C683 C684 1.398 . S
C683 C689 1.491 . S
C684 H675 0.950 . S
C684 C683 1.398 . S
C684 C685 1.391 . S
C685 H673 0.950 . S
C685 C681 1.393 . S
C685 C684 1.391 . S
C686 H676 0.950 . S
C686 C687 1.386 . S
C686 C688 1.391 . S
C687 C686 1.386 . S
C687 C691 1.393 . S
C688 H677 0.950 . S
C688 C686 1.391 . S
C688 C689 1.400 . S
C689 C683 1.491 . S
C689 C688 1.400 . S
C689 C690 1.398 . S
C690 H678 0.950 . S
C690 C689 1.398 . S
C690 C691 1.391 . S
C691 H679 0.950 . S
C691 C687 1.393 . S
C691 C690 1.391 . S
H692 C700 0.950 . S
H693 C705 0.950 . S
H694 C702 0.950 . S
H695 C704 0.950 . S
H696 C706 0.950 . S
H697 C708 0.950 . S
H698 C710 0.950 . S
H699 C711 0.950 . S
C700 H692 0.950 . S
C700 C701 1.386 . S
C700 C702 1.391 . S
C701 C700 1.386 . S
C701 C705 1.393 . S
C702 H694 0.950 . S
C702 C700 1.391 . S
C702 C703 1.400 . S
C703 C702 1.400 . S
C703 C704 1.398 . S
C703 C709 1.491 . S
C704 H695 0.950 . S
C704 C703 1.398 . S
C704 C705 1.391 . S
C705 H693 0.950 . S
C705 C701 1.393 . S
C705 C704 1.391 . S
C706 H696 0.950 . S
C706 C707 1.386 . S
C706 C708 1.391 . S
C707 C706 1.386 . S
C707 C711 1.393 . S
C708 H697 0.950 . S
C708 C706 1.391 . S
C708 C709 1.400 . S
C709 C703 1.491 . S
C709 C708 1.400 . S
C709 C710 1.398 . S
C710 H698 0.950 . S
C710 C709 1.398 . S
C710 C711 1.391 . S
C711 H699 0.950 . S
C711 C707 1.393 . S
C711 C710 1.391 . S
H712 C720 0.950 . S
H713 C725 0.950 . S
H714 C722 0.950 . S
H715 C724 0.950 . S
H716 C726 0.950 . S
H717 C728 0.950 . S
H718 C730 0.950 . S
H719 C731 0.950 . S
C720 H712 0.950 . S
C720 C721 1.386 . S
C720 C722 1.391 . S
C721 C720 1.386 . S
C721 C725 1.393 . S
C722 H714 0.950 . S
C722 C720 1.391 . S
C722 C723 1.400 . S
C723 C722 1.400 . S
C723 C724 1.398 . S
C723 C729 1.491 . S
C724 H715 0.950 . S
C724 C723 1.398 . S
C724 C725 1.391 . S
C725 H713 0.950 . S
C725 C721 1.393 . S
C725 C724 1.391 . S
C726 H716 0.950 . S
C726 C727 1.386 . S
C726 C728 1.391 . S
C727 C726 1.386 . S
C727 C731 1.393 . S
C728 H717 0.950 . S
C728 C726 1.391 . S
C728 C729 1.400 . S
C729 C723 1.491 . S
C729 C728 1.400 . S
C729 C730 1.398 . S
C730 H718 0.950 . S
C730 C729 1.398 . S
C730 C731 1.391 . S
C731 H719 0.950 . S
C731 C727 1.393 . S
C731 C730 1.391 . S
H732 C740 0.931 1_545 S
H733 C745 0.950 . S
H734 C742 0.950 . S
H735 C744 0.950 . S
H736 C746 0.950 . S
H737 C748 0.950 . S
H738 C750 0.950 . S
H739 C751 0.950 1_455 S
C740 H732 0.931 1_565 S
C740 C741 1.386 . S
C740 C742 1.391 . S
C741 C740 1.386 . S
C741 C745 1.393 . S
C742 H734 0.950 . S
C742 C740 1.391 . S
C742 C743 1.400 . S
C743 C742 1.400 . S
C743 C744 1.398 . S
C743 C749 1.491 . S
C744 H735 0.950 . S
C744 C743 1.398 . S
C744 C745 1.391 . S
C745 H733 0.950 . S
C745 C741 1.393 . S
C745 C744 1.391 . S
C746 H736 0.950 . S
C746 C747 1.386 . S
C746 C748 1.391 . S
C747 C746 1.386 . S
C747 C751 1.393 . S
C748 H737 0.950 . S
C748 C746 1.391 . S
C748 C749 1.400 . S
C749 C743 1.491 . S
C749 C748 1.400 . S
C749 C750 1.398 . S
C750 H738 0.950 . S
C750 C749 1.398 . S
C750 C751 1.391 . S
C751 H739 0.950 1_655 S
C751 C747 1.393 . S
C751 C750 1.391 . S
H752 C760 0.950 . S
H753 C765 0.950 . S
H754 C762 0.950 . S
H755 C764 0.950 . S
H756 C766 0.950 . S
H757 C768 0.950 . S
H758 C770 0.950 . S
H759 C771 0.950 . S
C760 H752 0.950 . S
C760 C761 1.386 . S
C760 C762 1.391 . S
C761 C760 1.386 . S
C761 C765 1.393 . S
C762 H754 0.950 . S
C762 C760 1.391 . S
C762 C763 1.400 . S
C763 C762 1.400 . S
C763 C764 1.398 . S
C763 C769 1.491 . S
C764 H755 0.950 . S
C764 C763 1.398 . S
C764 C765 1.391 . S
C765 H753 0.950 . S
C765 C761 1.393 . S
C765 C764 1.391 . S
C766 H756 0.950 . S
C766 C767 1.386 . S
C766 C768 1.391 . S
C767 C766 1.386 . S
C767 C771 1.393 . S
C768 H757 0.950 . S
C768 C766 1.391 . S
C768 C769 1.400 . S
C769 C763 1.491 . S
C769 C768 1.400 . S
C769 C770 1.398 . S
C770 H758 0.950 . S
C770 C769 1.398 . S
C770 C771 1.391 . S
C771 H759 0.950 . S
C771 C767 1.393 . S
C771 C770 1.391 . S
H772 C780 0.950 . S
H773 C785 0.950 . S
H774 C782 0.950 . S
H775 C784 0.950 . S
H776 C786 0.950 . S
H777 C788 0.950 . S
H778 C790 0.950 . S
H779 C791 0.950 . S
C780 H772 0.950 . S
C780 C781 1.386 . S
C780 C782 1.391 . S
C781 C780 1.386 . S
C781 C785 1.393 . S
C782 H774 0.950 . S
C782 C780 1.391 . S
C782 C783 1.400 . S
C783 C782 1.400 . S
C783 C784 1.398 . S
C783 C789 1.491 . S
C784 H775 0.950 . S
C784 C783 1.398 . S
C784 C785 1.391 . S
C785 H773 0.950 . S
C785 C781 1.393 . S
C785 C784 1.391 . S
C786 H776 0.950 . S
C786 C787 1.386 . S
C786 C788 1.391 . S
C787 C786 1.386 . S
C787 C791 1.393 . S
C788 H777 0.950 . S
C788 C786 1.391 . S
C788 C789 1.400 . S
C789 C783 1.491 . S
C789 C788 1.400 . S
C789 C790 1.398 . S
C790 H778 0.950 . S
C790 C789 1.398 . S
C790 C791 1.391 . S
C791 H779 0.950 . S
C791 C787 1.393 . S
C791 C790 1.391 . S
H792 C800 0.950 . S
H793 C805 0.950 . S
H794 C802 0.950 . S
H795 C804 0.950 . S
H796 C806 0.950 . S
H797 C808 0.950 . S
H798 C810 0.950 . S
H799 C811 0.950 . S
C800 H792 0.950 . S
C800 C801 1.386 . S
C800 C802 1.391 . S
C801 C800 1.386 . S
C801 C805 1.393 . S
C802 H794 0.950 . S
C802 C800 1.391 . S
C802 C803 1.400 . S
C803 C802 1.400 . S
C803 C804 1.398 . S
C803 C809 1.491 . S
C804 H795 0.950 . S
C804 C803 1.398 . S
C804 C805 1.391 . S
C805 H793 0.950 . S
C805 C801 1.393 . S
C805 C804 1.391 . S
C806 H796 0.950 . S
C806 C807 1.386 . S
C806 C808 1.391 . S
C807 C806 1.386 . S
C807 C811 1.393 . S
C808 H797 0.950 . S
C808 C806 1.391 . S
C808 C809 1.400 . S
C809 C803 1.491 . S
C809 C808 1.400 . S
C809 C810 1.398 . S
C810 H798 0.950 . S
C810 C809 1.398 . S
C810 C811 1.391 . S
C811 H799 0.950 . S
C811 C807 1.393 . S
C811 C810 1.391 . S
H812 C820 0.950 . S
H813 C825 0.950 . S
H814 C822 0.950 . S
H815 C824 0.950 . S
H816 C826 0.950 . S
H817 C828 0.950 . S
H818 C830 0.950 . S
H819 C831 0.950 . S
C820 H812 0.950 . S
C820 C821 1.386 . S
C820 C822 1.391 . S
C821 C820 1.386 . S
C821 C825 1.393 . S
C822 H814 0.950 . S
C822 C820 1.391 . S
C822 C823 1.400 . S
C823 C822 1.400 . S
C823 C824 1.398 . S
C823 C829 1.491 . S
C824 H815 0.950 . S
C824 C823 1.398 . S
C824 C825 1.391 . S
C825 H813 0.950 . S
C825 C821 1.393 . S
C825 C824 1.391 . S
C826 H816 0.950 . S
C826 C827 1.386 . S
C826 C828 1.391 . S
C827 C826 1.386 . S
C827 C831 1.393 . S
C828 H817 0.950 . S
C828 C826 1.391 . S
C828 C829 1.400 . S
C829 C823 1.491 . S
C829 C828 1.400 . S
C829 C830 1.398 . S
C830 H818 0.950 . S
C830 C829 1.398 . S
C830 C831 1.391 . S
C831 H819 0.950 . S
C831 C827 1.393 . S
C831 C830 1.391 . S
H832 C840 0.950 . S
H833 C845 0.950 . S
H834 C842 0.950 . S
H835 C844 0.950 . S
H836 C846 0.950 . S
H837 C848 0.950 . S
H838 C850 0.950 . S
H839 C851 0.950 . S
C840 H832 0.950 . S
C840 C841 1.386 . S
C840 C842 1.391 . S
C841 C840 1.386 . S
C841 C845 1.393 . S
C842 H834 0.950 . S
C842 C840 1.391 . S
C842 C843 1.400 . S
C843 C842 1.400 . S
C843 C844 1.398 . S
C843 C849 1.491 . S
C844 H835 0.950 . S
C844 C843 1.398 . S
C844 C845 1.391 . S
C845 H833 0.950 . S
C845 C841 1.393 . S
C845 C844 1.391 . S
C846 H836 0.950 . S
C846 C847 1.386 . S
C846 C848 1.391 . S
C847 C846 1.386 . S
C847 C851 1.393 . S
C848 H837 0.950 . S
C848 C846 1.391 . S
C848 C849 1.400 . S
C849 C843 1.491 . S
C849 C848 1.400 . S
C849 C850 1.398 . S
C850 H838 0.950 . S
C850 C849 1.398 . S
C850 C851 1.391 . S
C851 H839 0.950 . S
C851 C847 1.393 . S
C851 C850 1.391 . S
H852 C860 0.950 . S
H853 C865 0.950 . S
H854 C862 0.950 . S
H855 C864 0.950 . S
H856 C866 0.950 . S
H857 C868 0.950 . S
H858 C870 0.950 . S
H859 C871 0.950 . S
C860 H852 0.950 . S
C860 C861 1.386 . S
C860 C862 1.391 . S
C861 C860 1.386 . S
C861 C865 1.393 . S
C862 H854 0.950 . S
C862 C860 1.391 . S
C862 C863 1.400 . S
C863 C862 1.400 . S
C863 C864 1.398 . S
C863 C869 1.491 . S
C864 H855 0.950 . S
C864 C863 1.398 . S
C864 C865 1.391 . S
C865 H853 0.950 . S
C865 C861 1.393 . S
C865 C864 1.391 . S
C866 H856 0.950 . S
C866 C867 1.386 . S
C866 C868 1.391 . S
C867 C866 1.386 . S
C867 C871 1.393 . S
C868 H857 0.950 . S
C868 C866 1.391 . S
C868 C869 1.400 . S
C869 C863 1.491 . S
C869 C868 1.400 . S
C869 C870 1.398 . S
C870 H858 0.950 . S
C870 C869 1.398 . S
C870 C871 1.391 . S
C871 H859 0.950 . S
C871 C867 1.393 . S
C871 C870 1.391 . S
H872 C880 0.950 . S
H873 C885 0.950 . S
H874 C882 0.950 . S
H875 C884 0.950 . S
H876 C886 0.950 . S
H877 C888 0.950 . S
H878 C890 0.950 . S
H879 C891 0.950 . S
C880 H872 0.950 . S
C880 C881 1.386 . S
C880 C882 1.391 . S
C881 C880 1.386 . S
C881 C885 1.393 . S
C882 H874 0.950 . S
C882 C880 1.391 . S
C882 C883 1.400 . S
C883 C882 1.400 . S
C883 C884 1.398 . S
C883 C889 1.491 . S
C884 H875 0.950 . S
C884 C883 1.398 . S
C884 C885 1.391 . S
C885 H873 0.950 . S
C885 C881 1.393 . S
C885 C884 1.391 . S
C886 H876 0.950 . S
C886 C887 1.386 . S
C886 C888 1.391 . S
C887 C886 1.386 . S
C887 C891 1.393 . S
C888 H877 0.950 . S
C888 C886 1.391 . S
C888 C889 1.400 . S
C889 C883 1.491 . S
C889 C888 1.400 . S
C889 C890 1.398 . S
C890 H878 0.950 . S
C890 C889 1.398 . S
C890 C891 1.391 . S
C891 H879 0.950 . S
C891 C887 1.393 . S
C891 C890 1.391 . S
H892 C900 0.950 . S
H893 C905 0.950 . S
H894 C902 0.950 . S
H895 C904 0.950 . S
H896 C906 0.950 . S
H897 C908 0.950 . S
H898 C910 0.950 . S
H899 C911 0.950 . S
C900 H892 0.950 . S
C900 C901 1.386 . S
C900 C902 1.391 . S
C901 C900 1.386 . S
C901 C905 1.393 . S
C902 H894 0.950 . S
C902 C900 1.391 . S
C902 C903 1.400 . S
C903 C902 1.400 . S
C903 C904 1.398 . S
C903 C909 1.491 . S
C904 H895 0.950 . S
C904 C903 1.398 . S
C904 C905 1.391 . S
C905 H893 0.950 . S
C905 C901 1.393 . S
C905 C904 1.391 . S
C906 H896 0.950 . S
C906 C907 1.386 . S
C906 C908 1.391 . S
C907 C906 1.386 . S
C907 C911 1.393 . S
C908 H897 0.950 . S
C908 C906 1.391 . S
C908 C909 1.400 . S
C909 C903 1.491 . S
C909 C908 1.400 . S
C909 C910 1.398 . S
C910 H898 0.950 . S
C910 C909 1.398 . S
C910 C911 1.391 . S
C911 H899 0.950 . S
C911 C907 1.393 . S
C911 C910 1.391 . S
H912 C920 0.950 . S
H913 C925 0.950 . S
H914 C922 0.950 . S
H915 C924 0.950 . S
H916 C926 0.950 . S
H917 C928 0.950 . S
H918 C930 0.950 . S
H919 C931 0.950 . S
C920 H912 0.950 . S
C920 C921 1.386 . S
C920 C922 1.391 . S
C921 C920 1.386 . S
C921 C925 1.393 . S
C922 H914 0.950 . S
C922 C920 1.391 . S
C922 C923 1.400 . S
C923 C922 1.400 . S
C923 C924 1.398 . S
C923 C929 1.491 . S
C924 H915 0.950 . S
C924 C923 1.398 . S
C924 C925 1.391 . S
C925 H913 0.950 . S
C925 C921 1.393 . S
C925 C924 1.391 . S
C926 H916 0.950 . S
C926 C927 1.386 . S
C926 C928 1.391 . S
C927 C926 1.386 . S
C927 C931 1.393 . S
C928 H917 0.950 . S
C928 C926 1.391 . S
C928 C929 1.400 . S
C929 C923 1.491 . S
C929 C928 1.400 . S
C929 C930 1.398 . S
C930 H918 0.950 . S
C930 C929 1.398 . S
C930 C931 1.391 . S
C931 H919 0.950 . S
C931 C927 1.393 . S
C931 C930 1.391 . S
H932 C940 0.950 . S
H933 C945 0.950 . S
H934 C942 0.950 . S
H935 C944 0.950 . S
H936 C946 0.950 . S
H937 C948 0.950 . S
H938 C950 0.950 . S
H939 C951 0.950 . S
C940 H932 0.950 . S
C940 C941 1.386 . S
C940 C942 1.391 . S
C941 C940 1.386 . S
C941 C945 1.393 . S
C942 H934 0.950 . S
C942 C940 1.391 . S
C942 C943 1.400 . S
C943 C942 1.400 . S
C943 C944 1.398 . S
C943 C949 1.491 . S
C944 H935 0.950 . S
C944 C943 1.398 . S
C944 C945 1.391 . S
C945 H933 0.950 . S
C945 C941 1.393 . S
C945 C944 1.391 . S
C946 H936 0.950 . S
C946 C947 1.386 . S
C946 C948 1.391 . S
C947 C946 1.386 . S
C947 C951 1.393 . S
C948 H937 0.950 . S
C948 C946 1.391 . S
C948 C949 1.400 . S
C949 C943 1.491 . S
C949 C948 1.400 . S
C949 C950 1.398 . S
C950 H938 0.950 . S
C950 C949 1.398 . S
C950 C951 1.391 . S
C951 H939 0.950 . S
C951 C947 1.393 . S
C951 C950 1.391 . S
H952 C960 0.950 . S
H953 C965 0.950 . S
H954 C962 0.950 . S
H955 C964 0.950 . S
H956 C966 0.950 . S
H957 C968 0.950 . S
H958 C970 0.950 . S
H959 C971 0.950 . S
C960 H952 0.950 . S
C960 C961 1.386 . S
C960 C962 1.391 . S
C961 C960 1.386 . S
C961 C965 1.393 . S
C962 H954 0.950 . S
C962 C960 1.391 . S
C962 C963 1.400 . S
C963 C962 1.400 . S
C963 C964 1.398 . S
C963 C969 1.491 . S
C964 H955 0.950 . S
C964 C963 1.398 . S
C964 C965 1.391 . S
C965 H953 0.950 . S
C965 C961 1.393 . S
C965 C964 1.391 . S
C966 H956 0.950 . S
C966 C967 1.386 . S
C966 C968 1.391 . S
C967 C966 1.386 . S
C967 C971 1.393 . S
C968 H957 0.950 . S
C968 C966 1.391 . S
C968 C969 1.400 . S
C969 C963 1.491 . S
C969 C968 1.400 . S
C969 C970 1.398 . S
C970 H958 0.950 . S
C970 C969 1.398 . S
C970 C971 1.391 . S
C971 H959 0.950 . S
C971 C967 1.393 . S
C971 C970 1.391 . S
H972 C980 0.950 . S
H973 C985 0.950 . S
H974 C982 0.950 . S
H975 C984 0.950 . S
H976 C986 0.950 . S
H977 C988 0.950 . S
H978 C990 0.950 . S
H979 C991 0.950 . S
C980 H972 0.950 . S
C980 C981 1.386 . S
C980 C982 1.391 . S
C981 C980 1.386 . S
C981 C985 1.393 . S
C982 H974 0.950 . S
C982 C980 1.391 . S
C982 C983 1.400 . S
C983 C982 1.400 . S
C983 C984 1.398 . S
C983 C989 1.491 . S
C984 H975 0.950 . S
C984 C983 1.398 . S
C984 C985 1.391 . S
C985 H973 0.950 . S
C985 C981 1.393 . S
C985 C984 1.391 . S
C986 H976 0.950 . S
C986 C987 1.386 . S
C986 C988 1.391 . S
C987 C986 1.386 . S
C987 C991 1.393 . S
C988 H977 0.950 . S
C988 C986 1.391 . S
C988 C989 1.400 . S
C989 C983 1.491 . S
C989 C988 1.400 . S
C989 C990 1.398 . S
C990 H978 0.950 . S
C990 C989 1.398 . S
C990 C991 1.391 . S
C991 H979 0.950 . S
C991 C987 1.393 . S
C991 C990 1.391 . S
H992 C1000 0.950 . S
H993 C1005 0.950 . S
H994 C1002 0.950 . S
H995 C1004 0.950 . S
H996 C1006 0.950 . S
H997 C1008 0.950 . S
H998 C1010 0.950 . S
H999 C1011 0.950 . S
C1000 H992 0.950 . S
C1000 C1001 1.386 . S
C1000 C1002 1.391 . S
C1001 C1000 1.386 . S
C1001 C1005 1.393 . S
C1002 H994 0.950 . S
C1002 C1000 1.391 . S
C1002 C1003 1.400 . S
C1003 C1002 1.400 . S
C1003 C1004 1.398 . S
C1003 C1009 1.491 . S
C1004 H995 0.950 . S
C1004 C1003 1.398 . S
C1004 C1005 1.391 . S
C1005 H993 0.950 . S
C1005 C1001 1.393 . S
C1005 C1004 1.391 . S
C1006 H996 0.950 . S
C1006 C1007 1.386 . S
C1006 C1008 1.391 . S
C1007 C1006 1.386 . S
C1007 C1011 1.393 . S
C1008 H997 0.950 . S
C1008 C1006 1.391 . S
C1008 C1009 1.400 . S
C1009 C1003 1.491 . S
C1009 C1008 1.400 . S
C1009 C1010 1.398 . S
C1010 H998 0.950 . S
C1010 C1009 1.398 . S
C1010 C1011 1.391 . S
C1011 H999 0.950 . S
C1011 C1007 1.393 . S
C1011 C1010 1.391 . S
H1012 C1020 0.950 . S
H1013 C1025 0.950 . S
H1014 C1022 0.950 . S
H1015 C1024 0.950 . S
H1016 C1026 0.950 . S
H1017 C1028 0.950 . S
H1018 C1030 0.950 . S
H1019 C1031 0.950 . S
C1020 H1012 0.950 . S
C1020 C1021 1.386 . S
C1020 C1022 1.391 . S
C1021 C1020 1.386 . S
C1021 C1025 1.393 . S
C1022 H1014 0.950 . S
C1022 C1020 1.391 . S
C1022 C1023 1.400 . S
C1023 C1022 1.400 . S
C1023 C1024 1.398 . S
C1023 C1029 1.491 . S
C1024 H1015 0.950 . S
C1024 C1023 1.398 . S
C1024 C1025 1.391 . S
C1025 H1013 0.950 . S
C1025 C1021 1.393 . S
C1025 C1024 1.391 . S
C1026 H1016 0.950 . S
C1026 C1027 1.386 . S
C1026 C1028 1.391 . S
C1027 C1026 1.386 . S
C1027 C1031 1.393 . S
C1028 H1017 0.950 . S
C1028 C1026 1.391 . S
C1028 C1029 1.400 . S
C1029 C1023 1.491 . S
C1029 C1028 1.400 . S
C1029 C1030 1.398 . S
C1030 H1018 0.950 . S
C1030 C1029 1.398 . S
C1030 C1031 1.391 . S
C1031 H1019 0.950 . S
C1031 C1027 1.393 . S
C1031 C1030 1.391 . S
H1032 C1040 0.950 . S
H1033 C1045 0.950 . S
H1034 C1042 0.950 . S
H1035 C1044 0.950 . S
H1036 C1046 0.950 . S
H1037 C1048 0.950 . S
H1038 C1050 0.950 . S
H1039 C1051 0.950 . S
C1040 H1032 0.950 . S
C1040 C1041 1.386 . S
C1040 C1042 1.391 . S
C1041 C1040 1.386 . S
C1041 C1045 1.393 . S
C1042 H1034 0.950 . S
C1042 C1040 1.391 . S
C1042 C1043 1.400 . S
C1043 C1042 1.400 . S
C1043 C1044 1.398 . S
C1043 C1049 1.491 . S
C1044 H1035 0.950 . S
C1044 C1043 1.398 . S
C1044 C1045 1.391 . S
C1045 H1033 0.950 . S
C1045 C1041 1.393 . S
C1045 C1044 1.391 . S
C1046 H1036 0.950 . S
C1046 C1047 1.386 . S
C1046 C1048 1.391 . S
C1047 C1046 1.386 . S
C1047 C1051 1.393 . S
C1048 H1037 0.950 . S
C1048 C1046 1.391 . S
C1048 C1049 1.400 . S
C1049 C1043 1.491 . S
C1049 C1048 1.400 . S
C1049 C1050 1.398 . S
C1050 H1038 0.950 . S
C1050 C1049 1.398 . S
C1050 C1051 1.391 . S
C1051 H1039 0.950 . S
C1051 C1047 1.393 . S
C1051 C1050 1.391 . S
H1052 C1060 0.950 . S
H1053 C1065 0.950 . S
H1054 C1062 0.950 . S
H1055 C1064 0.950 . S
H1056 C1066 0.950 . S
H1057 C1068 0.950 . S
H1058 C1070 0.950 . S
H1059 C1071 0.950 . S
C1060 H1052 0.950 . S
C1060 C1061 1.386 . S
C1060 C1062 1.391 . S
C1061 C1060 1.386 . S
C1061 C1065 1.393 . S
C1062 H1054 0.950 . S
C1062 C1060 1.391 . S
C1062 C1063 1.400 . S
C1063 C1062 1.400 . S
C1063 C1064 1.398 . S
C1063 C1069 1.491 . S
C1064 H1055 0.950 . S
C1064 C1063 1.398 . S
C1064 C1065 1.391 . S
C1065 H1053 0.950 . S
C1065 C1061 1.393 . S
C1065 C1064 1.391 . S
C1066 H1056 0.950 . S
C1066 C1067 1.386 . S
C1066 C1068 1.391 . S
C1067 C1066 1.386 . S
C1067 C1071 1.393 . S
C1068 H1057 0.950 . S
C1068 C1066 1.391 . S
C1068 C1069 1.400 . S
C1069 C1063 1.491 . S
C1069 C1068 1.400 . S
C1069 C1070 1.398 . S
C1070 H1058 0.950 . S
C1070 C1069 1.398 . S
C1070 C1071 1.391 . S
C1071 H1059 0.950 . S
C1071 C1067 1.393 . S
C1071 C1070 1.391 . S
H1072 C1080 0.950 . S
H1073 C1085 0.950 . S
H1074 C1082 0.950 . S
H1075 C1084 0.950 . S
H1076 C1086 0.950 . S
H1077 C1088 0.950 . S
H1078 C1090 0.950 . S
H1079 C1091 0.950 . S
C1080 H1072 0.950 . S
C1080 C1081 1.386 . S
C1080 C1082 1.391 . S
C1081 C1080 1.386 . S
C1081 C1085 1.393 . S
C1082 H1074 0.950 . S
C1082 C1080 1.391 . S
C1082 C1083 1.400 . S
C1083 C1082 1.400 . S
C1083 C1084 1.398 . S
C1083 C1089 1.491 1_556 S
C1084 H1075 0.950 . S
C1084 C1083 1.398 . S
C1084 C1085 1.391 . S
C1085 H1073 0.950 . S
C1085 C1081 1.393 . S
C1085 C1084 1.391 . S
C1086 H1076 0.950 . S
C1086 C1087 1.386 . S
C1086 C1088 1.391 . S
C1087 C1086 1.386 . S
C1087 C1091 1.393 . S
C1088 H1077 0.950 . S
C1088 C1086 1.391 . S
C1088 C1089 1.400 . S
C1089 C1083 1.491 1_554 S
C1089 C1088 1.400 . S
C1089 C1090 1.398 . S
C1090 H1078 0.950 . S
C1090 C1089 1.398 . S
C1090 C1091 1.391 . S
C1091 H1079 0.950 . S
C1091 C1087 1.393 . S
C1091 C1090 1.391 . S
H1092 C1100 0.950 . S
H1093 C1105 0.950 . S
H1094 C1102 0.950 . S
H1095 C1104 0.967 . S
H1096 C1106 0.950 . S
H1097 C1108 0.950 . S
H1098 C1110 0.950 . S
H1099 C1111 0.950 . S
C1100 H1092 0.950 . S
C1100 C1101 1.386 . S
C1100 C1102 1.391 . S
C1101 C1100 1.386 . S
C1101 C1105 1.393 . S
C1102 H1094 0.950 . S
C1102 C1100 1.391 . S
C1102 C1103 1.400 . S
C1103 C1102 1.400 . S
C1103 C1104 1.398 . S
C1103 C1109 1.491 1_554 S
C1104 H1095 0.967 . S
C1104 C1103 1.398 . S
C1104 C1105 1.391 . S
C1105 H1093 0.950 . S
C1105 C1101 1.393 . S
C1105 C1104 1.391 . S
C1106 H1096 0.950 . S
C1106 C1107 1.386 . S
C1106 C1108 1.391 . S
C1107 C1106 1.386 . S
C1107 C1111 1.393 . S
C1108 H1097 0.950 . S
C1108 C1106 1.391 . S
C1108 C1109 1.400 . S
C1109 C1103 1.491 1_556 S
C1109 C1108 1.400 . S
C1109 C1110 1.398 . S
C1110 H1098 0.950 . S
C1110 C1109 1.398 . S
C1110 C1111 1.391 . S
C1111 H1099 0.950 . S
C1111 C1107 1.393 . S
C1111 C1110 1.391 . S
H1112 C1120 0.950 . S
H1113 C1125 0.950 . S
H1114 C1122 0.950 . S
H1115 C1124 0.934 1_554 S
H1116 C1126 0.950 . S
H1117 C1128 0.950 . S
H1118 C1130 0.950 1_556 S
H1119 C1131 0.950 . S
C1120 H1112 0.950 . S
C1120 C1121 1.386 . S
C1120 C1122 1.391 . S
C1121 C1120 1.386 . S
C1121 C1125 1.393 . S
C1122 H1114 0.950 . S
C1122 C1120 1.391 . S
C1122 C1123 1.400 . S
C1123 C1122 1.400 . S
C1123 C1124 1.398 . S
C1123 C1129 1.491 1_556 S
C1124 H1115 0.934 1_556 S
C1124 C1123 1.398 . S
C1124 C1125 1.391 . S
C1125 H1113 0.950 . S
C1125 C1121 1.393 . S
C1125 C1124 1.391 . S
C1126 H1116 0.950 . S
C1126 C1127 1.386 . S
C1126 C1128 1.391 . S
C1127 C1126 1.386 . S
C1127 C1131 1.393 . S
C1128 H1117 0.950 . S
C1128 C1126 1.391 . S
C1128 C1129 1.400 . S
C1129 C1123 1.491 1_554 S
C1129 C1128 1.400 . S
C1129 C1130 1.398 . S
C1130 H1118 0.950 1_554 S
C1130 C1129 1.398 . S
C1130 C1131 1.391 . S
C1131 H1119 0.950 . S
C1131 C1127 1.393 . S
C1131 C1130 1.391 . S
H1132 C1140 0.950 . S
H1133 C1145 0.950 . S
H1134 C1142 0.950 . S
H1135 C1144 0.950 1_556 S
H1136 C1146 0.950 . S
H1137 C1148 0.950 . S
H1138 C1150 0.950 . S
H1139 C1151 0.950 . S
C1140 H1132 0.950 . S
C1140 C1141 1.386 . S
C1140 C1142 1.391 . S
C1141 C1140 1.386 . S
C1141 C1145 1.393 . S
C1142 H1134 0.950 . S
C1142 C1140 1.391 . S
C1142 C1143 1.400 . S
C1143 C1142 1.400 . S
C1143 C1144 1.398 . S
C1143 C1149 1.491 1_554 S
C1144 H1135 0.950 1_554 S
C1144 C1143 1.398 . S
C1144 C1145 1.391 . S
C1145 H1133 0.950 . S
C1145 C1141 1.393 . S
C1145 C1144 1.391 . S
C1146 H1136 0.950 . S
C1146 C1147 1.386 . S
C1146 C1148 1.391 . S
C1147 C1146 1.386 . S
C1147 C1151 1.393 . S
C1148 H1137 0.950 . S
C1148 C1146 1.391 . S
C1148 C1149 1.400 . S
C1149 C1143 1.491 1_556 S
C1149 C1148 1.400 . S
C1149 C1150 1.398 . S
C1150 H1138 0.950 . S
C1150 C1149 1.398 . S
C1150 C1151 1.391 . S
C1151 H1139 0.950 . S
C1151 C1147 1.393 . S
C1151 C1150 1.391 . S
H1152 C1160 0.950 . S
H1153 C1165 0.950 . S
H1154 C1162 0.950 . S
H1155 C1164 0.950 . S
H1156 C1166 0.950 . S
H1157 C1168 0.950 . S
H1158 C1170 0.950 . S
H1159 C1171 0.950 . S
C1160 H1152 0.950 . S
C1160 C1161 1.386 . S
C1160 C1162 1.391 . S
C1161 C1160 1.386 . S
C1161 C1165 1.393 . S
C1162 H1154 0.950 . S
C1162 C1160 1.391 . S
C1162 C1163 1.400 . S
C1163 C1162 1.400 . S
C1163 C1164 1.398 . S
C1163 C1169 1.491 . S
C1164 H1155 0.950 . S
C1164 C1163 1.398 . S
C1164 C1165 1.391 . S
C1165 H1153 0.950 . S
C1165 C1161 1.393 . S
C1165 C1164 1.391 . S
C1166 H1156 0.950 . S
C1166 C1167 1.386 . S
C1166 C1168 1.391 . S
C1167 C1166 1.386 . S
C1167 C1171 1.393 . S
C1168 H1157 0.950 . S
C1168 C1166 1.391 . S
C1168 C1169 1.400 . S
C1169 C1163 1.491 . S
C1169 C1168 1.400 . S
C1169 C1170 1.398 . S
C1170 H1158 0.950 . S
C1170 C1169 1.398 . S
C1170 C1171 1.391 . S
C1171 H1159 0.950 . S
C1171 C1167 1.393 . S
C1171 C1170 1.391 . S
H1172 C1180 0.950 . S
H1173 C1185 0.950 . S
H1174 C1182 0.950 . S
H1175 C1184 0.950 . S
H1176 C1186 0.950 . S
H1177 C1188 0.950 . S
H1178 C1190 0.950 . S
H1179 C1191 0.950 . S
C1180 H1172 0.950 . S
C1180 C1181 1.386 . S
C1180 C1182 1.391 . S
C1181 C1180 1.386 . S
C1181 C1185 1.393 . S
C1182 H1174 0.950 . S
C1182 C1180 1.391 . S
C1182 C1183 1.400 . S
C1183 C1182 1.400 . S
C1183 C1184 1.398 . S
C1183 C1189 1.491 . S
C1184 H1175 0.950 . S
C1184 C1183 1.398 . S
C1184 C1185 1.391 . S
C1185 H1173 0.950 . S
C1185 C1181 1.393 . S
C1185 C1184 1.391 . S
C1186 H1176 0.950 . S
C1186 C1187 1.386 . S
C1186 C1188 1.391 . S
C1187 C1186 1.386 . S
C1187 C1191 1.393 . S
C1188 H1177 0.950 . S
C1188 C1186 1.391 . S
C1188 C1189 1.400 . S
C1189 C1183 1.491 . S
C1189 C1188 1.400 . S
C1189 C1190 1.398 . S
C1190 H1178 0.950 . S
C1190 C1189 1.398 . S
C1190 C1191 1.391 . S
C1191 H1179 0.950 . S
C1191 C1187 1.393 . S
C1191 C1190 1.391 . S
H1192 C1200 0.950 . S
H1193 C1205 0.950 . S
H1194 C1202 0.950 . S
H1195 C1204 0.950 . S
H1196 C1206 0.950 . S
H1197 C1208 0.950 . S
H1198 C1210 0.950 . S
H1199 C1211 0.950 . S
C1200 H1192 0.950 . S
C1200 C1201 1.386 . S
C1200 C1202 1.391 . S
C1201 C1200 1.386 . S
C1201 C1205 1.393 . S
C1202 H1194 0.950 . S
C1202 C1200 1.391 . S
C1202 C1203 1.400 . S
C1203 C1202 1.400 . S
C1203 C1204 1.398 . S
C1203 C1209 1.491 . S
C1204 H1195 0.950 . S
C1204 C1203 1.398 . S
C1204 C1205 1.391 . S
C1205 H1193 0.950 . S
C1205 C1201 1.393 . S
C1205 C1204 1.391 . S
C1206 H1196 0.950 . S
C1206 C1207 1.386 . S
C1206 C1208 1.391 . S
C1207 C1206 1.386 . S
C1207 C1211 1.393 . S
C1208 H1197 0.950 . S
C1208 C1206 1.391 . S
C1208 C1209 1.400 . S
C1209 C1203 1.491 . S
C1209 C1208 1.400 . S
C1209 C1210 1.398 . S
C1210 H1198 0.950 . S
C1210 C1209 1.398 . S
C1210 C1211 1.391 . S
C1211 H1199 0.950 . S
C1211 C1207 1.393 . S
C1211 C1210 1.391 . S
H1212 C1220 0.950 . S
H1213 C1225 0.950 . S
H1214 C1222 0.950 . S
H1215 C1224 0.950 . S
H1216 C1226 0.950 . S
H1217 C1228 0.950 . S
H1218 C1230 0.950 . S
H1219 C1231 0.950 . S
C1220 H1212 0.950 . S
C1220 C1221 1.386 . S
C1220 C1222 1.391 . S
C1221 C1220 1.386 . S
C1221 C1225 1.393 . S
C1222 H1214 0.950 . S
C1222 C1220 1.391 . S
C1222 C1223 1.400 . S
C1223 C1222 1.400 . S
C1223 C1224 1.398 . S
C1223 C1229 1.491 . S
C1224 H1215 0.950 . S
C1224 C1223 1.398 . S
C1224 C1225 1.391 . S
C1225 H1213 0.950 . S
C1225 C1221 1.393 . S
C1225 C1224 1.391 . S
C1226 H1216 0.950 . S
C1226 C1227 1.386 . S
C1226 C1228 1.391 . S
C1227 C1226 1.386 . S
C1227 C1231 1.393 . S
C1228 H1217 0.950 . S
C1228 C1226 1.391 . S
C1228 C1229 1.400 . S
C1229 C1223 1.491 . S
C1229 C1228 1.400 . S
C1229 C1230 1.398 . S
C1230 H1218 0.950 . S
C1230 C1229 1.398 . S
C1230 C1231 1.391 . S
C1231 H1219 0.950 . S
C1231 C1227 1.393 . S
C1231 C1230 1.391 . S
H1232 C1240 0.950 . S
H1233 C1245 0.950 . S
H1234 C1242 0.950 1_554 S
H1235 C1244 0.950 . S
H1236 C1246 0.950 . S
H1237 C1248 0.950 . S
H1238 C1250 0.950 . S
H1239 C1251 0.950 . S
C1240 H1232 0.950 . S
C1240 C1241 1.386 . S
C1240 C1242 1.391 . S
C1241 C1240 1.386 . S
C1241 C1245 1.393 . S
C1242 H1234 0.950 1_556 S
C1242 C1240 1.391 . S
C1242 C1243 1.400 . S
C1243 C1242 1.400 . S
C1243 C1244 1.398 . S
C1243 C1249 1.491 1_556 S
C1244 H1235 0.950 . S
C1244 C1243 1.398 . S
C1244 C1245 1.391 . S
C1245 H1233 0.950 . S
C1245 C1241 1.393 . S
C1245 C1244 1.391 . S
C1246 H1236 0.950 . S
C1246 C1247 1.386 . S
C1246 C1248 1.391 . S
C1247 C1246 1.386 . S
C1247 C1251 1.393 . S
C1248 H1237 0.950 . S
C1248 C1246 1.391 . S
C1248 C1249 1.400 . S
C1249 C1243 1.491 1_554 S
C1249 C1248 1.400 . S
C1249 C1250 1.398 . S
C1250 H1238 0.950 . S
C1250 C1249 1.398 . S
C1250 C1251 1.391 . S
C1251 H1239 0.950 . S
C1251 C1247 1.393 . S
C1251 C1250 1.391 . S
H1252 C1260 0.950 . S
H1253 C1265 0.950 . S
H1254 C1262 0.950 1_554 S
H1255 C1264 0.950 . S
H1256 C1266 0.950 . S
H1257 C1268 0.950 . S
H1258 C1270 0.950 . S
H1259 C1271 0.950 . S
C1260 H1252 0.950 . S
C1260 C1261 1.386 . S
C1260 C1262 1.391 . S
C1261 C1260 1.386 . S
C1261 C1265 1.393 . S
C1262 H1254 0.950 1_556 S
C1262 C1260 1.391 . S
C1262 C1263 1.400 . S
C1263 C1262 1.400 . S
C1263 C1264 1.398 . S
C1263 C1269 1.491 1_556 S
C1264 H1255 0.950 . S
C1264 C1263 1.398 . S
C1264 C1265 1.391 . S
C1265 H1253 0.950 . S
C1265 C1261 1.393 . S
C1265 C1264 1.391 . S
C1266 H1256 0.950 . S
C1266 C1267 1.386 . S
C1266 C1268 1.391 . S
C1267 C1266 1.386 . S
C1267 C1271 1.393 . S
C1268 H1257 0.950 . S
C1268 C1266 1.391 . S
C1268 C1269 1.400 . S
C1269 C1263 1.491 1_554 S
C1269 C1268 1.400 . S
C1269 C1270 1.398 . S
C1270 H1258 0.950 . S
C1270 C1269 1.398 . S
C1270 C1271 1.391 . S
C1271 H1259 0.950 . S
C1271 C1267 1.393 . S
C1271 C1270 1.391 . S
H1272 C1280 0.950 . S
H1273 C1285 0.950 . S
H1274 C1282 0.950 . S
H1275 C1284 0.950 1_556 S
H1276 C1286 0.950 . S
H1277 C1288 0.950 . S
H1278 C1290 0.950 1_554 S
H1279 C1291 0.950 . S
C1280 H1272 0.950 . S
C1280 C1281 1.386 . S
C1280 C1282 1.391 . S
C1281 C1280 1.386 . S
C1281 C1285 1.393 . S
C1282 H1274 0.950 . S
C1282 C1280 1.391 . S
C1282 C1283 1.400 . S
C1283 C1282 1.400 . S
C1283 C1284 1.398 . S
C1283 C1289 1.491 1_554 S
C1284 H1275 0.950 1_554 S
C1284 C1283 1.398 . S
C1284 C1285 1.391 . S
C1285 H1273 0.950 . S
C1285 C1281 1.393 . S
C1285 C1284 1.391 . S
C1286 H1276 0.950 . S
C1286 C1287 1.386 . S
C1286 C1288 1.391 . S
C1287 C1286 1.386 . S
C1287 C1291 1.393 . S
C1288 H1277 0.950 . S
C1288 C1286 1.391 . S
C1288 C1289 1.400 . S
C1289 C1283 1.491 1_556 S
C1289 C1288 1.400 . S
C1289 C1290 1.398 . S
C1290 H1278 0.950 1_556 S
C1290 C1289 1.398 . S
C1290 C1291 1.391 . S
C1291 H1279 0.950 . S
C1291 C1287 1.393 . S
C1291 C1290 1.391 . S
H1292 C1300 0.950 . S
H1293 C1305 0.950 . S
H1294 C1302 0.950 . S
H1295 C1304 0.950 . S
H1296 C1306 0.950 . S
H1297 C1308 0.950 . S
H1298 C1310 0.950 . S
H1299 C1311 0.950 . S
C1300 H1292 0.950 . S
C1300 C1301 1.386 . S
C1300 C1302 1.391 . S
C1301 C1300 1.386 . S
C1301 C1305 1.393 . S
C1302 H1294 0.950 . S
C1302 C1300 1.391 . S
C1302 C1303 1.400 . S
C1303 C1302 1.400 . S
C1303 C1304 1.398 . S
C1303 C1309 1.491 1_554 S
C1304 H1295 0.950 . S
C1304 C1303 1.398 . S
C1304 C1305 1.391 . S
C1305 H1293 0.950 . S
C1305 C1301 1.393 . S
C1305 C1304 1.391 . S
C1306 H1296 0.950 . S
C1306 C1307 1.386 . S
C1306 C1308 1.391 . S
C1307 C1306 1.386 . S
C1307 C1311 1.393 . S
C1308 H1297 0.950 . S
C1308 C1306 1.391 . S
C1308 C1309 1.400 . S
C1309 C1303 1.491 1_556 S
C1309 C1308 1.400 . S
C1309 C1310 1.398 . S
C1310 H1298 0.950 . S
C1310 C1309 1.398 . S
C1310 C1311 1.391 . S
C1311 H1299 0.950 . S
C1311 C1307 1.393 . S
C1311 C1310 1.391 . S
C361 C8 2.239 . S
C367 C120 2.240 . S
C381 C140 2.218 . S
C387 C32 2.218 . S
C401 C62 2.225 . S
C407 C162 2.223 . S
C421 C76 2.230 . S
C427 C98 2.228 . S
C441 C304 2.231 . S
C447 C184 2.233 . S
C461 C318 2.217 . S
C467 C206 2.218 . S
C481 C228 2.239 . S
C487 C348 2.238 . S
C501 C252 2.231 . S
C507 C272 2.233 . S
C521 C18 1.555 . S
C527 C84 1.521 1_545 S
C541 C30 1.548 . S
C547 C10 1.522 . S
C561 C54 1.555 1_455 S
C567 C40 1.522 . S
C581 C74 1.548 1_545 S
C587 C52 1.519 1_455 S
C601 C96 1.550 1_655 S
C607 C128 1.527 1_565 S
C621 C142 1.530 . S
C627 C118 1.551 1_565 S
C641 C150 1.548 . S
C647 C164 1.515 . S
C661 C106 1.527 1_655 S
C667 C172 1.549 . S
C681 C260 1.515 1_565 S
C687 C194 1.548 . S
C701 C216 1.551 . S
C707 C186 1.529 . S
C721 C238 1.550 1_655 S
C727 C208 1.511 . S
C741 C250 1.553 1_565 S
C747 C230 1.514 1_655 S
C761 C282 1.548 1_455 S
C767 C294 1.515 1_545 S
C781 C296 1.549 1_545 S
C787 C326 1.526 . S
C801 C316 1.554 . S
C807 C338 1.531 . S
C821 C340 1.554 . S
C827 C274 1.530 1_455 S
C841 C21 0.208 . S
C847 C51 0.203 . S
C861 C37 0.272 . S
C867 C81 0.257 . S
C881 C153 0.203 . S
C887 C103 0.205 . S
C901 C175 0.263 . S
C907 C125 0.276 . S
C921 C241 0.210 . S
C927 C197 0.222 . S
C941 C257 0.209 . S
C947 C219 0.221 . S
C961 C285 0.221 . S
C967 C323 0.209 . S
C981 C293 0.259 . S
C987 C337 0.273 . S
C1001 C7 1.155 . S
C1007 C249 1.150 . S
C1021 C191 1.151 . S
C1027 C43 1.148 . S
C1041 C59 1.150 . S
C1047 C213 1.142 . S
C1061 C235 1.146 . S
C1067 C87 1.149 . S
C1081 C307 1.153 . S
C1087 C109 1.154 . S
C1101 C131 1.151 . S
C1107 C315 1.141 . S
C1121 C351 1.148 . S
C1127 C139 1.156 . S
C1141 C161 1.151 . S
C1147 C279 1.142 . S
C1161 C183 1.155 . S
C1167 C73 1.142 . S
C1181 C205 1.156 . S
C1187 C15 1.146 . S
C1201 C29 1.141 . S
C1207 C227 1.154 . S
C1221 C263 1.156 . S
C1227 C65 1.148 . S
C1241 C271 1.150 . S
C1247 C117 1.154 . S
C1261 C301 1.149 . S
C1267 C147 1.154 . S
C1281 C169 1.146 . S
C1287 C329 1.148 . S
C1301 C95 1.141 . S
C1307 C345 1.154 . S
