# Generated by pormake.
# Topology ilc, (8)-cn, num edge types: 1
# Building blocks:
#     Node 0, Type 0, BuildingBlock: EBIMEJ_clean_sbu_0, # of connection points: 8
#     Node 1, Type 0, BuildingBlock: EBIMEJ_clean_sbu_0, # of connection points: 8
#     Node 2, Type 0, BuildingBlock: EBIMEJ_clean_sbu_0, # of connection points: 8
#     Edge 3, Type (0, 0), BuildingBlock: TEMPAE_clean_linker_10, # of connection points: 2
#     Edge 4, Type (0, 0), BuildingBlock: TEMPAE_clean_linker_10, # of connection points: 2
#     Edge 5, Type (0, 0), BuildingBlock: TEMPAE_clean_linker_10, # of connection points: 2
#     Edge 6, Type (0, 0), BuildingBlock: TEMPAE_clean_linker_10, # of connection points: 2
#     Edge 7, Type (0, 0), BuildingBlock: TEMPAE_clean_linker_10, # of connection points: 2
#     Edge 8, Type (0, 0), BuildingBlock: TEMPAE_clean_linker_10, # of connection points: 2
#     Edge 9, Type (0, 0), BuildingBlock: TEMPAE_clean_linker_10, # of connection points: 2
#     Edge 10, Type (0, 0), BuildingBlock: TEMPAE_clean_linker_10, # of connection points: 2
#     Edge 11, Type (0, 0), BuildingBlock: TEMPAE_clean_linker_10, # of connection points: 2
#     Edge 12, Type (0, 0), BuildingBlock: TEMPAE_clean_linker_10, # of connection points: 2
#     Edge 13, Type (0, 0), BuildingBlock: TEMPAE_clean_linker_10, # of connection points: 2
#     Edge 14, Type (0, 0), BuildingBlock: TEMPAE_clean_linker_10, # of connection points: 2
# Relax obj value: 0.143
# Max RMSD: 0.227
# Mean RMSD: 0.227
data_MOF--net-ilc--node1-EBIMEJ_clean_sbu_0--edge1-TEMPAE_clean_linker_10
_symmetry_space_group_name_H-M    P1
_symmetry_Int_Tables_number       1
_symmetry_cell_setting            triclinic
loop_
_symmetry_equiv_pos_as_xyz
'x, y, z'
_cell_length_a     25.662325
_cell_length_b     23.244442
_cell_length_c     17.05159
_cell_angle_alpha  85.682896
_cell_angle_beta   96.223948
_cell_angle_gamma 136.20805
loop_
_atom_site_label
_atom_site_type_symbol
_atom_site_fract_x
_atom_site_fract_y
_atom_site_fract_z
_atom_type_partial_charge
Co0 Co 0.96871 0.91105 0.17025 0.0
Co1 Co 0.04826 0.94456 0.01745 0.0
Co2 Co 0.94797 0.97391 0.01697 0.0
H3 H 0.95544 0.92668 0.07699 0.0
O4 O 0.95142 0.88984 0.05835 0.0
H5 H 0.04458 -0.00325 0.95925 0.0
O6 O 0.04614 0.03028 0.98093 0.0
Co7 Co 0.04419 0.03173 0.86909 0.0
O8 O 0.1093 0.01596 0.84455 0.0
O9 O 0.14318 0.0003 0.96477 0.0
O10 O 0.95863 0.01888 0.83362 0.0
O11 O 0.93808 0.04204 0.94609 0.0
O12 O 0.94723 0.94081 0.26176 0.0
O13 O 0.99191 0.89325 0.28121 0.0
O14 O 0.94736 0.91153 0.85906 0.0
O15 O 0.98916 0.86416 0.92459 0.0
C16 C 0.83128 0.87737 0.13652 0.0
C17 C 0.04923 0.85947 0.15704 0.0
C18 C 0.13691 0.16654 0.79969 0.0
C19 C 0.06781 0.08388 0.14535 0.0
C20 C 0.14997 0.01233 0.8898 0.0
C21 C 0.9322 0.03867 0.86959 0.0
C22 C 0.97206 0.9218 0.31194 0.0
C23 C 0.94958 0.85877 0.86657 0.0
O24 O 0.86184 0.85594 0.17075 0.0
O25 O 0.85598 0.92218 0.0735 0.0
O26 O 0.05496 0.87123 0.08161 0.0
O27 O 1.0197 0.87437 0.19478 0.0
O28 O 0.06648 0.11382 0.78641 0.0
O29 O 0.15368 0.14416 0.85733 0.0
O30 O 0.06855 0.03049 0.16233 0.0
O31 O 1.01295 0.06372 0.10128 0.0
Co32 Co 0.67612 0.28389 0.51383 0.0
Co33 Co 0.72254 0.29453 0.3445 0.0
Co34 Co 0.60687 0.29764 0.36246 0.0
H35 H 0.63715 0.27268 0.42377 0.0
O36 O 0.63515 0.23701 0.40672 0.0
H37 H 0.70883 0.34154 0.29257 0.0
O38 O 0.70532 0.36904 0.31813 0.0
Co39 Co 0.70273 0.37855 0.20665 0.0
O40 O 0.77227 0.37801 0.16403 0.0
O41 O 0.80884 0.35126 0.27389 0.0
O42 O 0.60557 0.34593 0.17705 0.0
O43 O 0.57419 0.34635 0.29482 0.0
O44 O 0.75235 0.37169 0.59944 0.0
O45 O 0.64611 0.25871 0.62796 0.0
O46 O 0.63272 0.26458 0.16433 0.0
O47 O 0.65077 0.20618 0.25832 0.0
C48 C 0.51115 0.19709 0.49561 0.0
C49 C 0.73742 0.21382 0.47628 0.0
C50 C 0.7795 0.52068 0.15321 0.0
C51 C 0.72916 0.43704 0.46761 0.0
C52 C 0.81392 0.37169 0.20036 0.0
C53 C 0.57018 0.35059 0.21849 0.0
C54 C 0.70827 0.3281 0.65307 0.0
C55 C 0.62143 0.2041 0.19065 0.0
O56 O 0.56583 0.21063 0.53117 0.0
O57 O 0.51535 0.22685 0.42647 0.0
O58 O 0.74155 0.22959 0.40118 0.0
O59 O 0.71461 0.23186 0.52228 0.0
O60 O 0.79953 0.48465 0.16091 0.0
O61 O 0.71967 0.47904 0.18614 0.0
O62 O 0.75384 0.40589 0.48592 0.0
O63 O 0.66112 0.39031 0.43945 0.0
Co64 Co 0.32126 0.57582 0.82837 0.0
Co65 Co 0.401 0.63177 0.67561 0.0
Co66 Co 0.27297 0.61975 0.68207 0.0
H67 H 0.29588 0.5844 0.73811 0.0
O68 O 0.29977 0.55541 0.71608 0.0
H69 H 0.38266 0.67323 0.61773 0.0
O70 O 0.37506 0.69741 0.64261 0.0
Co71 Co 0.37534 0.70735 0.52925 0.0
O72 O 0.47966 0.75524 0.52239 0.0
O73 O 0.50249 0.71052 0.62805 0.0
O74 O 0.2755 0.67139 0.50465 0.0
O75 O 0.24617 0.67551 0.62164 0.0
O76 O 0.29153 0.54056 0.94069 0.0
O77 O 0.40471 0.62982 0.91568 0.0
O78 O 0.35421 0.61778 0.47755 0.0
O79 O 0.35566 0.55447 0.58216 0.0
C80 C 0.17043 0.52081 0.81267 0.0
C81 C 0.38548 0.51889 0.79342 0.0
C82 C 0.41142 0.815 0.43319 0.0
C83 C 0.38139 0.73758 0.81542 0.0
C84 C 0.52252 0.7526 0.56382 0.0
C85 C 0.24447 0.6822 0.54588 0.0
C86 C 0.359 0.59063 0.96843 0.0
C87 C 0.34696 0.56088 0.50742 0.0
O88 O 0.22257 0.53173 0.85083 0.0
O89 O 0.17561 0.54376 0.73977 0.0
O90 O 0.42609 0.57401 0.73958 0.0
O91 O 0.32407 0.49454 0.80558 0.0
O92 O 0.35063 0.73889 0.4281 0.0
O93 O 0.44769 0.83012 0.49826 0.0
O94 O 0.40111 0.7012 0.83241 0.0
O95 O 0.32268 0.70328 0.76944 0.0
C96 C 0.19466 0.15914 0.70893 0.0
C97 C 0.18135 0.20402 0.73109 0.0
C98 C 0.1543 0.10982 0.64149 0.0
C99 C 0.12856 0.1318 0.58194 0.0
C100 C 0.13766 0.19843 0.59555 0.0
C101 C 0.16271 0.23286 0.67168 0.0
C102 C 0.13034 0.02833 0.6403 0.0
C103 C 0.11392 0.22794 0.53472 0.0
C104 C 0.0829 0.01276 0.40298 0.0
C105 C 1.00657 0.96453 0.38668 0.0
C106 C 0.1246 0.0712 0.46312 0.0
C107 C 0.08791 0.08001 0.50997 0.0
C108 C 1.00884 0.02725 0.49568 0.0
C109 C 0.96964 0.97165 0.43215 0.0
C110 C 0.20687 0.11934 0.4759 0.0
C111 C 0.96384 0.02536 0.54839 0.0
H112 H 0.21479 0.14196 0.75366 0.0
H113 H 0.15654 0.27197 0.68736 0.0
H114 H 0.0815 0.98191 0.59787 0.0
H115 H 0.17837 0.04005 0.62647 0.0
H116 H 0.11268 -0.0012 0.6988 0.0
H117 H 0.16005 0.2967 0.53082 0.0
H118 H 0.0989 0.20111 0.47527 0.0
H119 H 0.06508 0.21241 0.55431 0.0
H120 H 0.11145 0.00782 0.36602 0.0
H121 H 0.90982 0.93254 0.41873 0.0
H122 H 0.23868 0.16769 0.52185 0.0
H123 H 0.23435 0.14889 0.41974 0.0
H124 H 0.21135 0.07578 0.49215 0.0
H125 H 0.90418 0.96335 0.54705 0.0
H126 H 0.96255 0.07035 0.52618 0.0
H127 H 0.98775 0.04072 0.61065 0.0
C128 C 0.72305 0.42868 0.72065 0.0
C129 C 0.7179 0.36455 0.72623 0.0
C130 C 0.73311 0.46702 0.78812 0.0
C131 C 0.73919 0.44115 0.86281 0.0
C132 C 0.73031 0.37325 0.86921 0.0
C133 C 0.71948 0.33524 0.80014 0.0
C134 C 0.73669 0.53476 0.7781 0.0
C135 C 0.73306 0.34154 0.94848 0.0
C136 C 0.8491 0.5886 0.03723 0.0
C137 C 0.78895 0.55981 0.07693 0.0
C138 C 0.83381 0.54991 0.96672 0.0
C139 C 0.75823 0.48816 0.93327 0.0
C140 C 0.70148 0.47469 0.96501 0.0
C141 C 0.72023 0.51833 0.03303 0.0
C142 C 0.89695 0.56726 0.9362 0.0
C143 C 0.61966 0.4064 0.934 0.0
H144 H 0.71887 0.44878 0.66312 0.0
H145 H 0.7137 0.28409 0.8038 0.0
H146 H 0.76362 0.57666 0.82975 0.0
H147 H 0.76891 0.57293 0.72748 0.0
H148 H 0.67885 0.50654 0.76433 0.0
H149 H 0.79257 0.38475 0.9734 0.0
H150 H 0.7011 0.33873 0.9905 0.0
H151 H 0.70965 0.27882 0.94388 0.0
H152 H 0.90409 0.62589 0.06922 0.0
H153 H 0.67527 0.50234 0.06135 0.0
H154 H 0.88315 0.54198 0.87634 0.0
H155 H 0.90901 0.53783 0.97647 0.0
H156 H 0.94927 0.63516 0.93691 0.0
H157 H 0.58251 0.40295 0.96674 0.0
H158 H 0.60052 0.34563 0.93941 0.0
H159 H 0.61234 0.41558 0.87074 0.0
C160 C 0.45791 0.69422 0.06757 0.0
C161 C 0.38165 0.62386 0.04772 0.0
C162 C 0.48016 0.74772 0.12681 0.0
C163 C 0.42371 0.72774 0.16888 0.0
C164 C 0.34747 0.64909 0.15704 0.0
C165 C 0.32703 0.59926 0.09457 0.0
C166 C 0.56413 0.82478 0.14005 0.0
C167 C 0.28652 0.61642 0.20892 0.0
C168 C 0.5016 0.84904 0.35671 0.0
C169 C 0.45137 0.85432 0.36158 0.0
C170 C 0.48738 0.79998 0.29802 0.0
C171 C 0.44346 0.78456 0.22896 0.0
C172 C 0.41034 0.81433 0.22386 0.0
C173 C 0.4115 0.84531 0.29234 0.0
C174 C 0.51032 0.75585 0.31577 0.0
C175 C 0.36766 0.80694 0.15025 0.0
H176 H 0.50024 0.71148 0.03229 0.0
H177 H 0.26788 0.54286 0.08052 0.0
H178 H 0.58034 0.86751 0.18568 0.0
H179 H 0.59317 0.80604 0.15709 0.0
H180 H 0.58655 0.85923 0.08372 0.0
H181 H 0.30957 0.64432 0.2689 0.0
H182 H 0.25474 0.62922 0.18074 0.0
H183 H 0.24497 0.54789 0.21517 0.0
H184 H 0.53469 0.85995 0.40913 0.0
H185 H 0.37449 0.8527 0.29412 0.0
H186 H 0.56865 0.79675 0.29955 0.0
H187 H 0.47325 0.69621 0.28345 0.0
H188 H 0.50873 0.7414 0.37938 0.0
H189 H 0.3891 0.86831 0.13782 0.0
H190 H 0.30707 0.76329 0.16039 0.0
H191 H 0.37313 0.78652 0.09787 0.0
C192 C 0.13656 0.65776 0.47947 0.0
C193 C 0.21402 0.71187 0.50106 0.0
C194 C 0.11013 0.68026 0.42098 0.0
C195 C 0.1623 0.75757 0.38099 0.0
C196 C 0.24045 0.81243 0.4035 0.0
C197 C 0.26489 0.78954 0.4637 0.0
C198 C 1.02629 0.62087 0.40107 0.0
C199 C 0.29879 0.89444 0.36209 0.0
C200 C 0.09433 0.7893 0.18403 0.0
C201 C 0.08222 0.83487 0.20924 0.0
C202 C 0.12157 0.76473 0.23859 0.0
C203 C 0.13535 0.78426 0.3205 0.0
C204 C 0.12507 0.83198 0.34527 0.0
C205 C 0.10006 0.85714 0.28996 0.0
C206 C 0.13492 0.71729 0.20825 0.0
C207 C 0.14148 0.85799 0.43058 0.0
H208 H 0.09684 0.59683 0.50636 0.0
H209 H 0.32476 0.83172 0.47979 0.0
H210 H 1.00924 0.65224 0.4094 0.0
H211 H 1.01229 0.6022 0.33809 0.0
H212 H 0.99275 0.56409 0.43813 0.0
H213 H 0.35745 0.92824 0.38363 0.0
H214 H 0.29126 0.88376 0.29764 0.0
H215 H 0.29129 0.93482 0.37092 0.0
H216 H 0.08177 0.77193 0.12238 0.0
H217 H 0.09456 0.89518 0.31104 0.0
H218 H 0.14631 0.73074 0.14499 0.0
H219 H 0.08377 0.6497 0.21462 0.0
H220 H 0.18324 0.73265 0.2419 0.0
H221 H 0.11724 0.80504 0.47073 0.0
H222 H 0.11888 0.88273 0.44271 0.0
H223 H 0.20337 0.90741 0.44543 0.0
C224 C 0.33052 0.51614 0.36957 0.0
C225 C 0.32812 0.50108 0.45143 0.0
C226 C 0.30648 0.45701 0.31525 0.0
C227 C 0.27583 0.37964 0.34268 0.0
C228 C 0.28321 0.36933 0.42456 0.0
C229 C 0.30877 0.42975 0.47825 0.0
C230 C 0.31312 0.4769 0.2286 0.0
C231 C 0.26454 0.2948 0.45536 0.0
C232 C 0.10031 0.19635 0.21877 0.0
C233 C 0.12347 0.16379 0.18906 0.0
C234 C 0.14948 0.26598 0.26904 0.0
C235 C 0.22496 0.30638 0.28787 0.0
C236 C 0.2496 0.27565 0.25499 0.0
C237 C 0.19798 0.20359 0.20755 0.0
C238 C 0.11978 0.29526 0.30307 0.0
C239 C 0.32958 0.31691 0.26982 0.0
H240 H 0.35008 0.57358 0.34745 0.0
H241 H 0.31112 0.41967 0.54109 0.0
H242 H 0.3207 0.44362 0.19686 0.0
H243 H 0.26089 0.45758 0.20243 0.0
H244 H 0.36215 0.54459 0.21956 0.0
H245 H 0.26817 0.29286 0.52077 0.0
H246 H 0.20736 0.23774 0.43109 0.0
H247 H 0.30559 0.29696 0.4355 0.0
H248 H 0.04247 0.16503 0.20552 0.0
H249 H 0.21611 0.17845 0.18468 0.0
H250 H 0.14584 0.35514 0.27557 0.0
H251 H 0.13496 0.306 0.36756 0.0
H252 H 0.05744 0.24996 0.29252 0.0
H253 H 0.36994 0.38241 0.28969 0.0
H254 H 0.34895 0.31525 0.21569 0.0
H255 H 0.3311 0.28137 0.31536 0.0
C256 C 0.63263 0.86732 0.48601 0.0
C257 C 0.59347 0.79309 0.52783 0.0
C258 C 0.6748 0.88855 0.42241 0.0
C259 C 0.68656 0.83941 0.4058 0.0
C260 C 0.6611 0.77529 0.46072 0.0
C261 C 0.61172 0.75008 0.51803 0.0
C262 C 0.70077 0.96018 0.37116 0.0
C263 C 0.68304 0.73039 0.45855 0.0
C264 C 0.71287 0.79739 0.20487 0.0
C265 C 0.78576 0.87317 0.18914 0.0
C266 C 0.67902 0.78607 0.27282 0.0
C267 C 0.72074 0.8514 0.33031 0.0
C268 C 0.79562 0.92801 0.31425 0.0
C269 C 0.82519 0.93852 0.24312 0.0
C270 C 0.59956 0.70145 0.28191 0.0
C271 C 0.84802 -0.00085 0.37268 0.0
H272 H 0.62476 0.90554 0.49874 0.0
H273 H 0.58477 0.69438 0.55222 0.0
H274 H 0.71024 0.95697 0.31049 0.0
H275 H 0.65916 0.96288 0.36642 0.0
H276 H 0.75334 0.01937 0.39979 0.0
H277 H 0.6333 0.6657 0.43737 0.0
H278 H 0.73027 0.76175 0.42108 0.0
H279 H 0.7004 0.72642 0.51941 0.0
H280 H 0.68298 0.74551 0.16521 0.0
H281 H 0.88295 -0.00345 0.23322 0.0
H282 H 0.57224 0.69697 0.33118 0.0
H283 H 0.6006 0.65451 0.29132 0.0
H284 H 0.56359 0.68375 0.22652 0.0
H285 H 0.85126 0.04826 0.3537 0.0
H286 H 0.90656 0.02919 0.3726 0.0
H287 H 0.83038 0.97961 0.4337 0.0
C288 C 0.71215 0.10822 0.56843 0.0
C289 C 0.76143 0.17579 0.51761 0.0
C290 C 0.73757 0.08491 0.62683 0.0
C291 C 0.81508 0.13079 0.63661 0.0
C292 C 0.8648 0.19728 0.58353 0.0
C293 C 0.83756 0.21898 0.52502 0.0
C294 C 0.68138 0.01188 0.67932 0.0
C295 C 0.94761 0.24765 0.59055 0.0
C296 C 0.89415 0.11479 0.83492 0.0
C297 C 0.89547 0.05804 0.81595 0.0
C298 C 0.86864 0.13949 0.77759 0.0
C299 C 0.84284 0.10614 0.69943 0.0
C300 C 0.84233 0.04733 0.6812 0.0
C301 C 0.86837 0.0245 0.73879 0.0
C302 C 0.8702 0.20217 0.80046 0.0
C303 C 0.81611 0.00971 0.59971 0.0
H304 H 0.6536 0.07546 0.56463 0.0
H305 H 0.87679 0.27294 0.48827 0.0
H306 H 0.68026 0.96381 0.67301 0.0
H307 H 0.69875 0.03205 0.742 0.0
H308 H 0.62328 0.98305 0.66513 0.0
H309 H 0.97915 0.29711 0.54517 0.0
H310 H 0.97311 0.277 0.64986 0.0
H311 H 0.95472 0.20647 0.58457 0.0
H312 H 0.91538 0.14203 0.89349 0.0
H313 H 0.86853 0.98046 0.72237 0.0
H314 H 0.89971 0.22957 0.85969 0.0
H315 H 0.81149 0.17164 0.80089 0.0
H316 H 0.89875 0.25313 0.7566 0.0
H317 H 0.76275 0.98975 0.57824 0.0
H318 H 0.8072 0.95541 0.59796 0.0
H319 H 0.85891 0.05732 0.55813 0.0
C320 C 0.85069 0.58279 0.50534 0.0
C321 C 0.77166 0.51972 0.49876 0.0
C322 C 0.89054 0.65634 0.54689 0.0
C323 C 0.85028 0.66315 0.58869 0.0
C324 C 0.77033 0.60378 0.57323 0.0
C325 C 0.73252 0.5337 0.5272 0.0
C326 C 0.97504 0.72618 0.54375 0.0
C327 C 0.72241 0.61068 0.60575 0.0
C328 C 0.93328 0.75516 0.79539 0.0
C329 C 0.92618 0.80946 0.79528 0.0
C330 C 0.91589 0.71297 0.7262 0.0
C331 C 0.88882 0.72376 0.65536 0.0
C332 C 0.88976 0.78534 0.65328 0.0
C333 C 0.90672 0.82595 0.72313 0.0
C334 C 0.92629 0.65665 0.72995 0.0
C335 C 0.875 0.81105 0.5777 0.0
H336 H 0.88137 0.57451 0.47852 0.0
H337 H 0.67136 0.48657 0.51877 0.0
H338 H 1.00213 0.78082 0.58004 0.0
H339 H 1.00058 0.70353 0.562 0.0
H340 H 0.98762 0.74672 0.48158 0.0
H341 H 0.66509 0.54827 0.61595 0.0
H342 H 0.74703 0.64619 0.66164 0.0
H343 H 0.71509 0.64196 0.56125 0.0
H344 H 0.95256 0.74565 0.84958 0.0
H345 H 0.90598 0.87213 0.72027 0.0
H346 H 0.87622 0.59532 0.70243 0.0
H347 H 0.93808 0.64745 0.79113 0.0
H348 H 0.97587 0.68579 0.69804 0.0
H349 H 0.85564 0.77179 0.52601 0.0
H350 H 0.92873 0.87509 0.56474 0.0
H351 H 0.83343 0.81234 0.58546 0.0
C352 C 0.42417 0.08915 0.59512 0.0
C353 C 0.44584 0.15278 0.54402 0.0
C354 C 0.37896 0.06122 0.65785 0.0
C355 C 0.35259 0.09633 0.66978 0.0
C356 C 0.37435 0.16075 0.61779 0.0
C357 C 0.41957 0.18711 0.55531 0.0
C358 C 0.36442 -0.0023 0.71328 0.0
C359 C 0.35643 0.20811 0.63145 0.0
C360 C 0.17886 0.96727 0.78936 0.0
C361 C 0.20531 0.02239 0.85014 0.0
C362 C 0.22629 0.98892 0.73183 0.0
C363 C 0.30356 0.067 0.73651 0.0
C364 C 0.33245 0.11779 0.80407 0.0
C365 C 0.28257 0.09583 0.85855 0.0
C366 C 0.19157 0.92956 0.6638 0.0
C367 C 0.41553 0.19639 0.81921 0.0
H368 H 0.44616 0.0639 0.58863 0.0
H369 H 0.43908 0.2391 0.51896 0.0
H370 H 0.32277 0.93618 0.68342 0.0
H371 H 0.41714 0.01397 0.72721 0.0
H372 H 0.34321 0.99205 0.76966 0.0
H373 H 0.35817 0.23816 0.57655 0.0
H374 H 0.30091 0.16785 0.65549 0.0
H375 H 0.39991 0.25857 0.67476 0.0
H376 H 0.11908 0.90977 0.78282 0.0
H377 H 0.30295 0.13802 0.90538 0.0
H378 H 0.20237 0.89128 0.67623 0.0
H379 H 0.2159 0.96301 0.60752 0.0
H380 H 0.1294 0.88648 0.65573 0.0
H381 H 0.43513 0.19557 0.88019 0.0
H382 H 0.42446 0.25082 0.81467 0.0
H383 H 0.45145 0.20503 0.77825 0.0
C384 C 0.48439 0.32214 0.1045 0.0
C385 C 0.53137 0.37033 0.17183 0.0
C386 C 0.46365 0.34942 0.04467 0.0
C387 C 0.48993 0.4275 0.05064 0.0
C388 C 0.53576 0.47587 0.11983 0.0
C389 C 0.55603 0.44702 0.17928 0.0
C390 C 0.41637 0.29577 0.97272 0.0
C391 C 0.56574 0.5596 0.12964 0.0
C392 C 0.48391 0.52214 0.85576 0.0
C393 C 0.41344 0.49367 0.85513 0.0
C394 C 0.51082 0.50359 0.9193 0.0
C395 C 0.46694 0.45584 0.9852 0.0
C396 C 0.39658 0.42848 0.98515 0.0
C397 C 0.37071 0.44643 0.92073 0.0
C398 C 0.58592 0.53452 0.91368 0.0
C399 C 0.34839 0.38063 0.05411 0.0
H400 H 0.46675 0.26408 0.09663 0.0
H401 H 0.59472 0.48666 0.22924 0.0
H402 H 0.35924 0.2697 0.97185 0.0
H403 H 0.442 0.33293 0.9183 0.0
H404 H 0.411 0.24408 0.97233 0.0
H405 H 0.51802 0.55196 0.13268 0.0
H406 H 0.60447 0.59217 0.18374 0.0
H407 H 0.59653 0.59919 0.07777 0.0
H408 H 0.51847 0.55936 0.80686 0.0
H409 H 0.31662 0.4244 0.92317 0.0
H410 H 0.57777 0.49279 0.8735 0.0
H411 H 0.61139 0.53647 0.97159 0.0
H412 H 0.62638 0.5977 0.88755 0.0
H413 H 0.33019 0.32047 0.0602 0.0
H414 H 0.29727 0.36791 0.04784 0.0
H415 H 0.38197 0.41634 0.10945 0.0
C416 C 0.49749 0.87708 0.87388 0.0
C417 C 0.41882 0.81297 0.86011 0.0
C418 C 0.53277 0.94697 0.9196 0.0
C419 C 0.48792 0.95016 0.95696 0.0
C420 C 0.40811 0.8861 0.94077 0.0
C421 C 0.37501 0.81936 0.89157 0.0
C422 C 0.61804 0.0165 0.92641 0.0
C423 C 0.35564 0.88557 0.97443 0.0
C424 C 0.58021 0.07429 0.14972 0.0
C425 C 0.58175 0.13515 0.13385 0.0
C426 C 0.55181 0.01562 0.09209 0.0
C427 C 0.52339 0.01667 0.01633 0.0
C428 C 0.52707 0.08002 0.99905 0.0
C429 C 0.55454 0.13706 0.05827 0.0
C430 C 0.55705 0.95611 0.1123 0.0
C431 C 0.50355 0.08946 0.91808 0.0
H432 H 0.53168 0.87323 0.84796 0.0
H433 H 0.31405 0.77011 0.88033 0.0
H434 H 0.6415 0.07344 0.95472 0.0
H435 H 0.64037 0.9945 0.96041 0.0
H436 H 0.63914 0.03319 0.86678 0.0
H437 H 0.3053 0.82213 0.99488 0.0
H438 H 0.38224 0.92955 0.02408 0.0
H439 H 0.33477 0.90162 0.92688 0.0
H440 H 0.60346 0.07393 0.20657 0.0
H441 H 0.5567 0.18498 0.04401 0.0
H442 H 0.61117 0.98336 0.09357 0.0
H443 H 0.51006 0.89527 0.08246 0.0
H444 H 0.55805 0.94707 0.17702 0.0
H445 H 0.53756 0.1558 0.90518 0.0
H446 H 0.4436 0.05549 0.91601 0.0
H447 H 0.50962 0.06464 0.87088 0.0
C448 C 0.04508 0.47192 0.83362 0.0
C449 C 0.10742 0.48663 0.86187 0.0
C450 C 0.9917 0.44659 0.88561 0.0
C451 C 1.00188 0.43789 0.96796 0.0
C452 C 0.06355 0.45094 0.99593 0.0
C453 C 0.11406 0.47366 0.9432 0.0
C454 C 0.92604 0.43218 0.85289 0.0
C455 C 0.07826 0.44397 0.08275 0.0
C456 C 0.92933 0.47011 0.12581 0.0
C457 C 0.86852 0.3888 0.15172 0.0
C458 C 0.97151 0.48656 0.06466 0.0
C459 C 0.95189 0.42002 0.02694 0.0
C460 C 0.88989 0.33754 0.05258 0.0
C461 C 0.84898 0.323 0.11433 0.0
C462 C 0.03733 0.57558 0.0407 0.0
C463 C 0.86581 0.26443 1.01365 0.0
H464 H 0.03852 0.48129 0.77159 0.0
H465 H 0.16088 0.4838 0.96758 0.0
H466 H 0.91757 0.42594 0.78759 0.0
H467 H 0.87314 0.37551 0.87866 0.0
H468 H 0.93688 0.48556 0.86898 0.0
H469 H 0.09137 0.49273 0.11635 0.0
H470 H 1.02726 0.38283 0.10587 0.0
H471 H 0.12618 0.45121 0.09464 0.0
H472 H 0.94263 0.52092 0.15207 0.0
H473 H 0.79965 0.25975 0.1313 0.0
H474 H 0.03942 0.58132 0.97568 0.0
H475 H 0.09078 0.59736 0.06654 0.0
H476 H 0.0343 0.61719 0.06148 0.0
H477 H 0.84835 0.26173 0.95045 0.0
H478 H 0.81803 0.20444 0.04167 0.0
H479 H 0.91389 0.27198 1.01627 0.0
loop_
_geom_bond_atom_site_label_1
_geom_bond_atom_site_label_2
_geom_bond_distance
_geom_bond_site_symmetry_2
_ccdc_geom_bond_type
Co0 H3 2.400 . S
Co0 O4 2.009 . S
Co0 O12 2.115 . S
Co0 O13 2.315 . S
Co0 O24 2.053 . S
Co0 O27 2.094 1_655 S
Co0 O30 2.122 1_665 S
Co1 O4 2.126 1_456 S
Co1 H5 2.388 1_565 S
Co1 O6 2.053 1_565 S
Co1 O9 2.047 1_565 S
Co1 O15 2.113 1_455 S
Co1 O26 2.063 1_556 S
Co2 H3 2.388 1_545 S
Co2 O4 2.053 1_545 S
Co2 O6 2.126 1_654 S
Co2 O11 2.063 1_554 S
Co2 O25 2.047 1_545 S
Co2 O31 2.113 1_655 S
H3 Co0 2.400 . S
H3 Co2 2.388 1_565 S
H3 O4 0.760 . S
O4 Co0 2.009 . S
O4 Co1 2.126 1_654 S
O4 Co2 2.053 1_565 S
O4 H3 0.760 . S
H5 Co1 2.388 1_545 S
H5 O6 0.760 . S
H5 Co7 2.400 . S
O6 Co1 2.053 1_545 S
O6 Co2 2.126 1_456 S
O6 H5 0.760 . S
O6 Co7 2.009 . S
Co7 H5 2.400 . S
Co7 O6 2.009 . S
Co7 O8 2.053 . S
Co7 O10 2.094 1_455 S
Co7 O14 2.122 1_445 S
Co7 O28 2.115 . S
Co7 O29 2.315 . S
O8 Co7 2.053 . S
O8 C20 1.259 . S
O9 Co1 2.047 1_545 S
O9 C20 1.257 . S
O10 Co7 2.094 1_655 S
O10 C21 1.253 . S
O11 Co2 2.063 1_556 S
O11 C21 1.268 . S
O12 Co0 2.115 . S
O12 C22 1.281 . S
O13 Co0 2.315 . S
O13 C22 1.252 . S
O14 Co7 2.122 1_665 S
O14 C23 1.272 . S
O15 Co1 2.113 1_655 S
O15 C23 1.245 . S
C16 O24 1.259 . S
C16 O25 1.257 . S
C17 O26 1.268 . S
C17 O27 1.253 . S
C18 O28 1.281 . S
C18 O29 1.252 . S
C19 O30 1.272 . S
C19 O31 1.245 . S
C20 O8 1.259 . S
C20 O9 1.257 . S
C21 O10 1.253 . S
C21 O11 1.268 . S
C22 O12 1.281 . S
C22 O13 1.252 . S
C23 O14 1.272 . S
C23 O15 1.245 . S
O24 Co0 2.053 . S
O24 C16 1.259 . S
O25 Co2 2.047 1_565 S
O25 C16 1.257 . S
O26 Co1 2.063 1_554 S
O26 C17 1.268 . S
O27 Co0 2.094 1_455 S
O27 C17 1.253 . S
O28 Co7 2.115 . S
O28 C18 1.281 . S
O29 Co7 2.315 . S
O29 C18 1.252 . S
O30 Co0 2.122 1_445 S
O30 C19 1.272 . S
O31 Co2 2.113 1_455 S
O31 C19 1.245 . S
Co32 H35 2.400 . S
Co32 O36 2.009 . S
Co32 O44 2.115 . S
Co32 O45 2.315 . S
Co32 O56 2.053 . S
Co32 O59 2.094 . S
Co32 O62 2.122 . S
Co33 O36 2.126 . S
Co33 H37 2.388 . S
Co33 O38 2.053 . S
Co33 O41 2.047 . S
Co33 O47 2.113 . S
Co33 O58 2.063 . S
Co34 H35 2.388 . S
Co34 O36 2.053 . S
Co34 O38 2.126 . S
Co34 O43 2.063 . S
Co34 O57 2.047 . S
Co34 O63 2.113 . S
H35 Co32 2.400 . S
H35 Co34 2.388 . S
H35 O36 0.760 . S
O36 Co32 2.009 . S
O36 Co33 2.126 . S
O36 Co34 2.053 . S
O36 H35 0.760 . S
H37 Co33 2.388 . S
H37 O38 0.760 . S
H37 Co39 2.400 . S
O38 Co33 2.053 . S
O38 Co34 2.126 . S
O38 H37 0.760 . S
O38 Co39 2.009 . S
Co39 H37 2.400 . S
Co39 O38 2.009 . S
Co39 O40 2.053 . S
Co39 O42 2.094 . S
Co39 O46 2.122 . S
Co39 O60 2.115 . S
Co39 O61 2.315 . S
O40 Co39 2.053 . S
O40 C52 1.259 . S
O41 Co33 2.047 . S
O41 C52 1.257 . S
O42 Co39 2.094 . S
O42 C53 1.253 . S
O43 Co34 2.063 . S
O43 C53 1.268 . S
O44 Co32 2.115 . S
O44 C54 1.281 . S
O45 Co32 2.315 . S
O45 C54 1.252 . S
O46 Co39 2.122 . S
O46 C55 1.272 . S
O47 Co33 2.113 . S
O47 C55 1.245 . S
C48 O56 1.259 . S
C48 O57 1.257 . S
C49 O58 1.268 . S
C49 O59 1.253 . S
C50 O60 1.281 . S
C50 O61 1.252 . S
C51 O62 1.272 . S
C51 O63 1.245 . S
C52 O40 1.259 . S
C52 O41 1.257 . S
C53 O42 1.253 . S
C53 O43 1.268 . S
C54 O44 1.281 . S
C54 O45 1.252 . S
C55 O46 1.272 . S
C55 O47 1.245 . S
O56 Co32 2.053 . S
O56 C48 1.259 . S
O57 Co34 2.047 . S
O57 C48 1.257 . S
O58 Co33 2.063 . S
O58 C49 1.268 . S
O59 Co32 2.094 . S
O59 C49 1.253 . S
O60 Co39 2.115 . S
O60 C50 1.281 . S
O61 Co39 2.315 . S
O61 C50 1.252 . S
O62 Co32 2.122 . S
O62 C51 1.272 . S
O63 Co34 2.113 . S
O63 C51 1.245 . S
Co64 H67 2.400 . S
Co64 O68 2.009 . S
Co64 O76 2.115 . S
Co64 O77 2.315 . S
Co64 O88 2.053 . S
Co64 O91 2.094 . S
Co64 O94 2.122 . S
Co65 O68 2.126 . S
Co65 H69 2.388 . S
Co65 O70 2.053 . S
Co65 O73 2.047 . S
Co65 O79 2.113 . S
Co65 O90 2.063 . S
Co66 H67 2.388 . S
Co66 O68 2.053 . S
Co66 O70 2.126 . S
Co66 O75 2.063 . S
Co66 O89 2.047 . S
Co66 O95 2.113 . S
H67 Co64 2.400 . S
H67 Co66 2.388 . S
H67 O68 0.760 . S
O68 Co64 2.009 . S
O68 Co65 2.126 . S
O68 Co66 2.053 . S
O68 H67 0.760 . S
H69 Co65 2.388 . S
H69 O70 0.760 . S
H69 Co71 2.400 . S
O70 Co65 2.053 . S
O70 Co66 2.126 . S
O70 H69 0.760 . S
O70 Co71 2.009 . S
Co71 H69 2.400 . S
Co71 O70 2.009 . S
Co71 O72 2.053 . S
Co71 O74 2.094 . S
Co71 O78 2.122 . S
Co71 O92 2.115 . S
Co71 O93 2.315 . S
O72 Co71 2.053 . S
O72 C84 1.259 . S
O73 Co65 2.047 . S
O73 C84 1.257 . S
O74 Co71 2.094 . S
O74 C85 1.253 . S
O75 Co66 2.063 . S
O75 C85 1.268 . S
O76 Co64 2.115 . S
O76 C86 1.281 . S
O77 Co64 2.315 . S
O77 C86 1.252 . S
O78 Co71 2.122 . S
O78 C87 1.272 . S
O79 Co65 2.113 . S
O79 C87 1.245 . S
C80 O88 1.259 . S
C80 O89 1.257 . S
C81 O90 1.268 . S
C81 O91 1.253 . S
C82 O92 1.281 . S
C82 O93 1.252 . S
C83 O94 1.272 . S
C83 O95 1.245 . S
C84 O72 1.259 . S
C84 O73 1.257 . S
C85 O74 1.253 . S
C85 O75 1.268 . S
C86 O76 1.281 . S
C86 O77 1.252 . S
C87 O78 1.272 . S
C87 O79 1.245 . S
O88 Co64 2.053 . S
O88 C80 1.259 . S
O89 Co66 2.047 . S
O89 C80 1.257 . S
O90 Co65 2.063 . S
O90 C81 1.268 . S
O91 Co64 2.094 . S
O91 C81 1.253 . S
O92 Co71 2.115 . S
O92 C82 1.281 . S
O93 Co71 2.315 . S
O93 C82 1.252 . S
O94 Co64 2.122 . S
O94 C83 1.272 . S
O95 Co66 2.113 . S
O95 C83 1.245 . S
C96 C97 1.391 . S
C96 C98 1.394 1_545 S
C96 H112 0.931 . S
C97 C96 1.391 . S
C97 C101 1.376 . S
C98 C96 1.394 1_565 S
C98 C99 1.369 1_465 S
C98 C102 1.531 . S
C99 C98 1.369 1_645 S
C99 C100 1.410 . S
C99 C107 1.503 1_545 S
C100 C99 1.410 . S
C100 C101 1.392 1_655 S
C100 C103 1.511 . S
C101 C97 1.376 . S
C101 C100 1.392 1_455 S
C101 H113 0.929 . S
C102 C98 1.531 . S
C102 H114 0.960 1_455 S
C102 H115 0.962 . S
C102 H116 0.960 1_455 S
C103 C100 1.511 . S
C103 H117 0.961 . S
C103 H118 0.961 . S
C103 H119 0.961 . S
C104 C105 1.370 1_455 S
C104 C106 1.363 1_565 S
C104 H120 0.931 . S
C105 C104 1.370 1_655 S
C105 C109 1.408 . S
C106 C104 1.363 1_545 S
C106 C107 1.370 1_445 S
C106 C110 1.524 . S
C107 C99 1.503 1_565 S
C107 C106 1.370 1_665 S
C107 C108 1.403 . S
C108 C107 1.403 . S
C108 C109 1.404 . S
C108 C111 1.539 . S
C109 C105 1.408 . S
C109 C108 1.404 . S
C109 H121 0.930 . S
C110 C106 1.524 . S
C110 H122 0.956 . S
C110 H123 0.961 . S
C110 H124 0.961 . S
C111 C108 1.539 . S
C111 H125 0.958 . S
C111 H126 0.961 . S
C111 H127 0.960 . S
H112 C96 0.931 . S
H113 C101 0.929 . S
H114 C102 0.960 1_655 S
H115 C102 0.962 . S
H116 C102 0.960 1_655 S
H117 C103 0.961 . S
H118 C103 0.961 . S
H119 C103 0.961 . S
H120 C104 0.931 . S
H121 C109 0.930 . S
H122 C110 0.956 . S
H123 C110 0.961 . S
H124 C110 0.961 . S
H125 C111 0.958 . S
H126 C111 0.961 . S
H127 C111 0.960 . S
C128 C129 1.391 . S
C128 C130 1.394 . S
C128 H144 0.931 . S
C129 C128 1.391 . S
C129 C133 1.376 . S
C130 C128 1.394 . S
C130 C131 1.369 . S
C130 C134 1.531 . S
C131 C130 1.369 . S
C131 C132 1.410 . S
C131 C139 1.503 . S
C132 C131 1.410 . S
C132 C133 1.392 . S
C132 C135 1.511 . S
C133 C129 1.376 . S
C133 C132 1.392 . S
C133 H145 0.929 . S
C134 C130 1.531 . S
C134 H146 0.960 . S
C134 H147 0.962 . S
C134 H148 0.960 . S
C135 C132 1.511 . S
C135 H149 0.961 . S
C135 H150 0.961 . S
C135 H151 0.961 . S
C136 C137 1.370 1_556 S
C136 C138 1.363 . S
C136 H152 0.931 . S
C137 C136 1.370 1_554 S
C137 C141 1.408 1_554 S
C138 C136 1.363 . S
C138 C139 1.370 . S
C138 C142 1.524 . S
C139 C131 1.503 . S
C139 C138 1.370 . S
C139 C140 1.403 . S
C140 C139 1.403 . S
C140 C141 1.404 . S
C140 C143 1.539 . S
C141 C137 1.408 1_556 S
C141 C140 1.404 . S
C141 H153 0.930 1_556 S
C142 C138 1.524 . S
C142 H154 0.956 . S
C142 H155 0.961 . S
C142 H156 0.961 . S
C143 C140 1.539 . S
C143 H157 0.958 . S
C143 H158 0.961 . S
C143 H159 0.960 . S
H144 C128 0.931 . S
H145 C133 0.929 . S
H146 C134 0.960 . S
H147 C134 0.962 . S
H148 C134 0.960 . S
H149 C135 0.961 . S
H150 C135 0.961 . S
H151 C135 0.961 . S
H152 C136 0.931 . S
H153 C141 0.930 1_554 S
H154 C142 0.956 . S
H155 C142 0.961 . S
H156 C142 0.961 . S
H157 C143 0.958 . S
H158 C143 0.961 . S
H159 C143 0.960 . S
C160 C161 1.391 1_554 S
C160 C162 1.394 . S
C160 H176 0.931 1_554 S
C161 C160 1.391 1_556 S
C161 C165 1.376 1_556 S
C162 C160 1.394 . S
C162 C163 1.369 . S
C162 C166 1.531 . S
C163 C162 1.369 . S
C163 C164 1.410 . S
C163 C171 1.503 . S
C164 C163 1.410 . S
C164 C165 1.392 . S
C164 C167 1.511 . S
C165 C161 1.376 1_554 S
C165 C164 1.392 . S
C165 H177 0.929 . S
C166 C162 1.531 . S
C166 H178 0.960 . S
C166 H179 0.962 . S
C166 H180 0.960 . S
C167 C164 1.511 . S
C167 H181 0.961 . S
C167 H182 0.961 . S
C167 H183 0.961 . S
C168 C169 1.370 . S
C168 C170 1.363 . S
C168 H184 0.931 . S
C169 C168 1.370 . S
C169 C173 1.408 . S
C170 C168 1.363 . S
C170 C171 1.370 . S
C170 C174 1.524 . S
C171 C163 1.503 . S
C171 C170 1.370 . S
C171 C172 1.403 . S
C172 C171 1.403 . S
C172 C173 1.404 . S
C172 C175 1.539 . S
C173 C169 1.408 . S
C173 C172 1.404 . S
C173 H185 0.930 . S
C174 C170 1.524 . S
C174 H186 0.956 . S
C174 H187 0.961 . S
C174 H188 0.961 . S
C175 C172 1.539 . S
C175 H189 0.958 . S
C175 H190 0.961 . S
C175 H191 0.960 . S
H176 C160 0.931 1_556 S
H177 C165 0.929 . S
H178 C166 0.960 . S
H179 C166 0.962 . S
H180 C166 0.960 . S
H181 C167 0.961 . S
H182 C167 0.961 . S
H183 C167 0.961 . S
H184 C168 0.931 . S
H185 C173 0.930 . S
H186 C174 0.956 . S
H187 C174 0.961 . S
H188 C174 0.961 . S
H189 C175 0.958 . S
H190 C175 0.961 . S
H191 C175 0.960 . S
C192 C193 1.391 . S
C192 C194 1.394 . S
C192 H208 0.931 . S
C193 C192 1.391 . S
C193 C197 1.376 . S
C194 C192 1.394 . S
C194 C195 1.369 . S
C194 C198 1.531 . S
C195 C194 1.369 . S
C195 C196 1.410 . S
C195 C203 1.503 . S
C196 C195 1.410 . S
C196 C197 1.392 . S
C196 C199 1.511 . S
C197 C193 1.376 . S
C197 C196 1.392 . S
C197 H209 0.929 . S
C198 C194 1.531 . S
C198 H210 0.960 . S
C198 H211 0.962 . S
C198 H212 0.960 . S
C199 C196 1.511 . S
C199 H213 0.961 . S
C199 H214 0.961 . S
C199 H215 0.961 . S
C200 C201 1.370 . S
C200 C202 1.363 . S
C200 H216 0.931 . S
C201 C200 1.370 . S
C201 C205 1.408 . S
C202 C200 1.363 . S
C202 C203 1.370 . S
C202 C206 1.524 . S
C203 C195 1.503 . S
C203 C202 1.370 . S
C203 C204 1.403 . S
C204 C203 1.403 . S
C204 C205 1.404 . S
C204 C207 1.539 . S
C205 C201 1.408 . S
C205 C204 1.404 . S
C205 H217 0.930 . S
C206 C202 1.524 . S
C206 H218 0.956 . S
C206 H219 0.961 . S
C206 H220 0.961 . S
C207 C204 1.539 . S
C207 H221 0.958 . S
C207 H222 0.961 . S
C207 H223 0.960 . S
H208 C192 0.931 . S
H209 C197 0.929 . S
H210 C198 0.960 . S
H211 C198 0.962 . S
H212 C198 0.960 . S
H213 C199 0.961 . S
H214 C199 0.961 . S
H215 C199 0.961 . S
H216 C200 0.931 . S
H217 C205 0.930 . S
H218 C206 0.956 . S
H219 C206 0.961 . S
H220 C206 0.961 . S
H221 C207 0.958 . S
H222 C207 0.961 . S
H223 C207 0.960 . S
C224 C225 1.391 . S
C224 C226 1.394 . S
C224 H240 0.931 . S
C225 C224 1.391 . S
C225 C229 1.376 . S
C226 C224 1.394 . S
C226 C227 1.369 . S
C226 C230 1.531 . S
C227 C226 1.369 . S
C227 C228 1.410 . S
C227 C235 1.503 . S
C228 C227 1.410 . S
C228 C229 1.392 . S
C228 C231 1.511 . S
C229 C225 1.376 . S
C229 C228 1.392 . S
C229 H241 0.929 . S
C230 C226 1.531 . S
C230 H242 0.960 . S
C230 H243 0.962 . S
C230 H244 0.960 . S
C231 C228 1.511 . S
C231 H245 0.961 . S
C231 H246 0.961 . S
C231 H247 0.961 . S
C232 C233 1.370 . S
C232 C234 1.363 . S
C232 H248 0.931 . S
C233 C232 1.370 . S
C233 C237 1.408 . S
C234 C232 1.363 . S
C234 C235 1.370 . S
C234 C238 1.524 . S
C235 C227 1.503 . S
C235 C234 1.370 . S
C235 C236 1.403 . S
C236 C235 1.403 . S
C236 C237 1.404 . S
C236 C239 1.539 . S
C237 C233 1.408 . S
C237 C236 1.404 . S
C237 H249 0.930 . S
C238 C234 1.524 . S
C238 H250 0.956 . S
C238 H251 0.961 . S
C238 H252 0.961 . S
C239 C236 1.539 . S
C239 H253 0.958 . S
C239 H254 0.961 . S
C239 H255 0.960 . S
H240 C224 0.931 . S
H241 C229 0.929 . S
H242 C230 0.960 . S
H243 C230 0.962 . S
H244 C230 0.960 . S
H245 C231 0.961 . S
H246 C231 0.961 . S
H247 C231 0.961 . S
H248 C232 0.931 . S
H249 C237 0.930 . S
H250 C238 0.956 . S
H251 C238 0.961 . S
H252 C238 0.961 . S
H253 C239 0.958 . S
H254 C239 0.961 . S
H255 C239 0.960 . S
C256 C257 1.391 . S
C256 C258 1.394 . S
C256 H272 0.931 . S
C257 C256 1.391 . S
C257 C261 1.376 . S
C258 C256 1.394 . S
C258 C259 1.369 . S
C258 C262 1.531 . S
C259 C258 1.369 . S
C259 C260 1.410 . S
C259 C267 1.503 . S
C260 C259 1.410 . S
C260 C261 1.392 . S
C260 C263 1.511 . S
C261 C257 1.376 . S
C261 C260 1.392 . S
C261 H273 0.929 . S
C262 C258 1.531 . S
C262 H274 0.960 . S
C262 H275 0.962 . S
C262 H276 0.960 . S
C263 C260 1.511 . S
C263 H277 0.961 . S
C263 H278 0.961 . S
C263 H279 0.961 . S
C264 C265 1.370 . S
C264 C266 1.363 . S
C264 H280 0.931 . S
C265 C264 1.370 . S
C265 C269 1.408 . S
C266 C264 1.363 . S
C266 C267 1.370 . S
C266 C270 1.524 . S
C267 C259 1.503 . S
C267 C266 1.370 . S
C267 C268 1.403 . S
C268 C267 1.403 . S
C268 C269 1.404 . S
C268 C271 1.539 1_565 S
C269 C265 1.408 . S
C269 C268 1.404 . S
C269 H281 0.930 1_565 S
C270 C266 1.524 . S
C270 H282 0.956 . S
C270 H283 0.961 . S
C270 H284 0.961 . S
C271 C268 1.539 1_545 S
C271 H285 0.958 . S
C271 H286 0.961 . S
C271 H287 0.960 1_545 S
H272 C256 0.931 . S
H273 C261 0.929 . S
H274 C262 0.960 . S
H275 C262 0.962 . S
H276 C262 0.960 . S
H277 C263 0.961 . S
H278 C263 0.961 . S
H279 C263 0.961 . S
H280 C264 0.931 . S
H281 C269 0.930 1_545 S
H282 C270 0.956 . S
H283 C270 0.961 . S
H284 C270 0.961 . S
H285 C271 0.958 . S
H286 C271 0.961 . S
H287 C271 0.960 1_565 S
C288 C289 1.391 . S
C288 C290 1.394 . S
C288 H304 0.931 . S
C289 C288 1.391 . S
C289 C293 1.376 . S
C290 C288 1.394 . S
C290 C291 1.369 . S
C290 C294 1.531 . S
C291 C290 1.369 . S
C291 C292 1.410 . S
C291 C299 1.503 . S
C292 C291 1.410 . S
C292 C293 1.392 . S
C292 C295 1.511 . S
C293 C289 1.376 . S
C293 C292 1.392 . S
C293 H305 0.929 . S
C294 C290 1.531 . S
C294 H306 0.960 . S
C294 H307 0.962 . S
C294 H308 0.960 . S
C295 C292 1.511 . S
C295 H309 0.961 . S
C295 H310 0.961 . S
C295 H311 0.961 . S
C296 C297 1.370 . S
C296 C298 1.363 . S
C296 H312 0.931 . S
C297 C296 1.370 . S
C297 C301 1.408 . S
C298 C296 1.363 . S
C298 C299 1.370 . S
C298 C302 1.524 . S
C299 C291 1.503 . S
C299 C298 1.370 . S
C299 C300 1.403 . S
C300 C299 1.403 . S
C300 C301 1.404 . S
C300 C303 1.539 . S
C301 C297 1.408 . S
C301 C300 1.404 . S
C301 H313 0.930 . S
C302 C298 1.524 . S
C302 H314 0.956 . S
C302 H315 0.961 . S
C302 H316 0.961 . S
C303 C300 1.539 . S
C303 H317 0.958 . S
C303 H318 0.961 . S
C303 H319 0.960 . S
H304 C288 0.931 . S
H305 C293 0.929 . S
H306 C294 0.960 . S
H307 C294 0.962 . S
H308 C294 0.960 . S
H309 C295 0.961 . S
H310 C295 0.961 . S
H311 C295 0.961 . S
H312 C296 0.931 . S
H313 C301 0.930 . S
H314 C302 0.956 . S
H315 C302 0.961 . S
H316 C302 0.961 . S
H317 C303 0.958 . S
H318 C303 0.961 . S
H319 C303 0.960 . S
C320 C321 1.391 . S
C320 C322 1.394 . S
C320 H336 0.931 . S
C321 C320 1.391 . S
C321 C325 1.376 . S
C322 C320 1.394 . S
C322 C323 1.369 . S
C322 C326 1.531 . S
C323 C322 1.369 . S
C323 C324 1.410 . S
C323 C331 1.503 . S
C324 C323 1.410 . S
C324 C325 1.392 . S
C324 C327 1.511 . S
C325 C321 1.376 . S
C325 C324 1.392 . S
C325 H337 0.929 . S
C326 C322 1.531 . S
C326 H338 0.960 . S
C326 H339 0.962 . S
C326 H340 0.960 . S
C327 C324 1.511 . S
C327 H341 0.961 . S
C327 H342 0.961 . S
C327 H343 0.961 . S
C328 C329 1.370 . S
C328 C330 1.363 . S
C328 H344 0.931 . S
C329 C328 1.370 . S
C329 C333 1.408 . S
C330 C328 1.363 . S
C330 C331 1.370 . S
C330 C334 1.524 . S
C331 C323 1.503 . S
C331 C330 1.370 . S
C331 C332 1.403 . S
C332 C331 1.403 . S
C332 C333 1.404 . S
C332 C335 1.539 . S
C333 C329 1.408 . S
C333 C332 1.404 . S
C333 H345 0.930 . S
C334 C330 1.524 . S
C334 H346 0.956 . S
C334 H347 0.961 . S
C334 H348 0.961 . S
C335 C332 1.539 . S
C335 H349 0.958 . S
C335 H350 0.961 . S
C335 H351 0.960 . S
H336 C320 0.931 . S
H337 C325 0.929 . S
H338 C326 0.960 . S
H339 C326 0.962 . S
H340 C326 0.960 . S
H341 C327 0.961 . S
H342 C327 0.961 . S
H343 C327 0.961 . S
H344 C328 0.931 . S
H345 C333 0.930 . S
H346 C334 0.956 . S
H347 C334 0.961 . S
H348 C334 0.961 . S
H349 C335 0.958 . S
H350 C335 0.961 . S
H351 C335 0.960 . S
C352 C353 1.391 . S
C352 C354 1.394 . S
C352 H368 0.931 . S
C353 C352 1.391 . S
C353 C357 1.376 . S
C354 C352 1.394 . S
C354 C355 1.369 . S
C354 C358 1.531 . S
C355 C354 1.369 . S
C355 C356 1.410 . S
C355 C363 1.503 . S
C356 C355 1.410 . S
C356 C357 1.392 . S
C356 C359 1.511 . S
C357 C353 1.376 . S
C357 C356 1.392 . S
C357 H369 0.929 . S
C358 C354 1.531 . S
C358 H370 0.960 . S
C358 H371 0.962 . S
C358 H372 0.960 . S
C359 C356 1.511 . S
C359 H373 0.961 . S
C359 H374 0.961 . S
C359 H375 0.961 . S
C360 C361 1.370 . S
C360 C362 1.363 . S
C360 H376 0.931 1_545 S
C361 C360 1.370 . S
C361 C365 1.408 . S
C362 C360 1.363 . S
C362 C363 1.370 . S
C362 C366 1.524 . S
C363 C355 1.503 . S
C363 C362 1.370 . S
C363 C364 1.403 . S
C364 C363 1.403 . S
C364 C365 1.404 . S
C364 C367 1.539 . S
C365 C361 1.408 . S
C365 C364 1.404 . S
C365 H377 0.930 . S
C366 C362 1.524 . S
C366 H378 0.956 . S
C366 H379 0.961 . S
C366 H380 0.961 1_545 S
C367 C364 1.539 . S
C367 H381 0.958 . S
C367 H382 0.961 . S
C367 H383 0.960 . S
H368 C352 0.931 . S
H369 C357 0.929 . S
H370 C358 0.960 . S
H371 C358 0.962 . S
H372 C358 0.960 . S
H373 C359 0.961 . S
H374 C359 0.961 . S
H375 C359 0.961 . S
H376 C360 0.931 1_565 S
H377 C365 0.930 . S
H378 C366 0.956 . S
H379 C366 0.961 . S
H380 C366 0.961 1_565 S
H381 C367 0.958 . S
H382 C367 0.961 . S
H383 C367 0.960 . S
C384 C385 1.391 . S
C384 C386 1.394 1_554 S
C384 H400 0.931 . S
C385 C384 1.391 . S
C385 C389 1.376 . S
C386 C384 1.394 1_556 S
C386 C387 1.369 1_556 S
C386 C390 1.531 . S
C387 C386 1.369 1_554 S
C387 C388 1.410 . S
C387 C395 1.503 1_554 S
C388 C387 1.410 . S
C388 C389 1.392 . S
C388 C391 1.511 . S
C389 C385 1.376 . S
C389 C388 1.392 . S
C389 H401 0.929 . S
C390 C386 1.531 . S
C390 H402 0.960 . S
C390 H403 0.962 . S
C390 H404 0.960 . S
C391 C388 1.511 . S
C391 H405 0.961 . S
C391 H406 0.961 . S
C391 H407 0.961 . S
C392 C393 1.370 . S
C392 C394 1.363 . S
C392 H408 0.931 . S
C393 C392 1.370 . S
C393 C397 1.408 . S
C394 C392 1.363 . S
C394 C395 1.370 . S
C394 C398 1.524 . S
C395 C387 1.503 1_556 S
C395 C394 1.370 . S
C395 C396 1.403 . S
C396 C395 1.403 . S
C396 C397 1.404 . S
C396 C399 1.539 . S
C397 C393 1.408 . S
C397 C396 1.404 . S
C397 H409 0.930 . S
C398 C394 1.524 . S
C398 H410 0.956 . S
C398 H411 0.961 1_556 S
C398 H412 0.961 . S
C399 C396 1.539 . S
C399 H413 0.958 . S
C399 H414 0.961 . S
C399 H415 0.960 1_556 S
H400 C384 0.931 . S
H401 C389 0.929 . S
H402 C390 0.960 . S
H403 C390 0.962 . S
H404 C390 0.960 . S
H405 C391 0.961 . S
H406 C391 0.961 . S
H407 C391 0.961 . S
H408 C392 0.931 . S
H409 C397 0.930 . S
H410 C398 0.956 . S
H411 C398 0.961 1_554 S
H412 C398 0.961 . S
H413 C399 0.958 . S
H414 C399 0.961 . S
H415 C399 0.960 1_554 S
C416 C417 1.391 . S
C416 C418 1.394 1_565 S
C416 H432 0.931 . S
C417 C416 1.391 . S
C417 C421 1.376 . S
C418 C416 1.394 1_545 S
C418 C419 1.369 1_545 S
C418 C422 1.531 . S
C419 C418 1.369 1_565 S
C419 C420 1.410 . S
C419 C427 1.503 1_566 S
C420 C419 1.410 . S
C420 C421 1.392 . S
C420 C423 1.511 . S
C421 C417 1.376 . S
C421 C420 1.392 . S
C421 H433 0.929 . S
C422 C418 1.531 . S
C422 H434 0.960 . S
C422 H435 0.962 . S
C422 H436 0.960 . S
C423 C420 1.511 . S
C423 H437 0.961 . S
C423 H438 0.961 1_556 S
C423 H439 0.961 . S
C424 C425 1.370 . S
C424 C426 1.363 . S
C424 H440 0.931 . S
C425 C424 1.370 . S
C425 C429 1.408 . S
C426 C424 1.363 . S
C426 C427 1.370 . S
C426 C430 1.524 1_545 S
C427 C419 1.503 1_544 S
C427 C426 1.370 . S
C427 C428 1.403 . S
C428 C427 1.403 . S
C428 C429 1.404 . S
C428 C431 1.539 1_554 S
C429 C425 1.408 . S
C429 C428 1.404 . S
C429 H441 0.930 . S
C430 C426 1.524 1_565 S
C430 H442 0.956 . S
C430 H443 0.961 . S
C430 H444 0.961 . S
C431 C428 1.539 1_556 S
C431 H445 0.958 . S
C431 H446 0.961 . S
C431 H447 0.960 . S
H432 C416 0.931 . S
H433 C421 0.929 . S
H434 C422 0.960 . S
H435 C422 0.962 . S
H436 C422 0.960 . S
H437 C423 0.961 . S
H438 C423 0.961 1_554 S
H439 C423 0.961 . S
H440 C424 0.931 . S
H441 C429 0.930 . S
H442 C430 0.956 . S
H443 C430 0.961 . S
H444 C430 0.961 . S
H445 C431 0.958 . S
H446 C431 0.961 . S
H447 C431 0.960 . S
C448 C449 1.391 . S
C448 C450 1.394 . S
C448 H464 0.931 . S
C449 C448 1.391 . S
C449 C453 1.376 . S
C450 C448 1.394 . S
C450 C451 1.369 . S
C450 C454 1.531 1_455 S
C451 C450 1.369 . S
C451 C452 1.410 . S
C451 C459 1.503 1_456 S
C452 C451 1.410 . S
C452 C453 1.393 . S
C452 C455 1.511 1_556 S
C453 C449 1.376 . S
C453 C452 1.393 . S
C453 H465 0.929 . S
C454 C450 1.531 1_655 S
C454 H466 0.960 . S
C454 H467 0.962 . S
C454 H468 0.960 . S
C455 C452 1.511 1_554 S
C455 H469 0.961 . S
C455 H470 0.961 . S
C455 H471 0.961 . S
C456 C457 1.370 . S
C456 C458 1.363 . S
C456 H472 0.931 . S
C457 C456 1.370 . S
C457 C461 1.408 . S
C458 C456 1.363 . S
C458 C459 1.370 . S
C458 C462 1.524 1_554 S
C459 C451 1.503 1_654 S
C459 C458 1.370 . S
C459 C460 1.403 . S
C460 C459 1.403 . S
C460 C461 1.404 . S
C460 C463 1.539 . S
C461 C457 1.408 . S
C461 C460 1.404 . S
C461 H473 0.930 . S
C462 C458 1.524 1_556 S
C462 H474 0.956 . S
C462 H475 0.961 1_656 S
C462 H476 0.961 1_556 S
C463 C460 1.539 . S
C463 H477 0.958 . S
C463 H478 0.961 . S
C463 H479 0.960 1_655 S
H464 C448 0.931 . S
H465 C453 0.929 . S
H466 C454 0.960 . S
H467 C454 0.962 . S
H468 C454 0.960 . S
H469 C455 0.961 . S
H470 C455 0.961 . S
H471 C455 0.961 . S
H472 C456 0.931 . S
H473 C461 0.930 . S
H474 C462 0.956 . S
H475 C462 0.961 1_454 S
H476 C462 0.961 1_554 S
H477 C463 0.958 . S
H478 C463 0.961 . S
H479 C463 0.960 1_455 S
C97 C18 0.830 . S
C105 C22 0.853 . S
C129 C54 0.867 . S
C137 C50 0.837 . S
C161 C86 0.753 . S
C169 C82 0.887 . S
C193 C85 2.517 . S
C201 C17 2.515 . S
C225 C87 0.988 . S
C233 C19 0.950 . S
C257 C84 1.748 . S
C265 C16 1.760 . S
C289 C49 2.518 . S
C297 C21 2.516 . S
C321 C51 1.028 . S
C329 C23 0.941 . S
C353 C48 1.775 . S
C361 C20 1.749 . S
C385 C53 2.519 . S
C393 C81 2.514 . S
C417 C83 1.022 . S
C425 C55 0.943 . S
C449 C80 1.728 . S
C457 C52 1.770 . S
