# Generated by pormake.
# Topology mdf, (4)-cn, num edge types: 1
# Building blocks:
#     Node 0, Type 0, BuildingBlock: TATPOV_clean_sbu_0, # of connection points: 4
#     Node 1, Type 0, BuildingBlock: TATPOV_clean_sbu_0, # of connection points: 4
#     Node 2, Type 0, BuildingBlock: TATPOV_clean_sbu_0, # of connection points: 4
#     Node 3, Type 0, BuildingBlock: TATPOV_clean_sbu_0, # of connection points: 4
#     Node 4, Type 0, BuildingBlock: TATPOV_clean_sbu_0, # of connection points: 4
#     Node 5, Type 0, BuildingBlock: TATPOV_clean_sbu_0, # of connection points: 4
#     Node 6, Type 0, BuildingBlock: TATPOV_clean_sbu_0, # of connection points: 4
#     Node 7, Type 0, BuildingBlock: TATPOV_clean_sbu_0, # of connection points: 4
#     Edge 8, Type (0, 0), BuildingBlock: TEMPAE_clean_linker_10, # of connection points: 2
#     Edge 9, Type (0, 0), BuildingBlock: TEMPAE_clean_linker_10, # of connection points: 2
#     Edge 10, Type (0, 0), BuildingBlock: TEMPAE_clean_linker_10, # of connection points: 2
#     Edge 11, Type (0, 0), BuildingBlock: TEMPAE_clean_linker_10, # of connection points: 2
#     Edge 12, Type (0, 0), BuildingBlock: TEMPAE_clean_linker_10, # of connection points: 2
#     Edge 13, Type (0, 0), BuildingBlock: TEMPAE_clean_linker_10, # of connection points: 2
#     Edge 14, Type (0, 0), BuildingBlock: TEMPAE_clean_linker_10, # of connection points: 2
#     Edge 15, Type (0, 0), BuildingBlock: TEMPAE_clean_linker_10, # of connection points: 2
#     Edge 16, Type (0, 0), BuildingBlock: TEMPAE_clean_linker_10, # of connection points: 2
#     Edge 17, Type (0, 0), BuildingBlock: TEMPAE_clean_linker_10, # of connection points: 2
#     Edge 18, Type (0, 0), BuildingBlock: TEMPAE_clean_linker_10, # of connection points: 2
#     Edge 19, Type (0, 0), BuildingBlock: TEMPAE_clean_linker_10, # of connection points: 2
#     Edge 20, Type (0, 0), BuildingBlock: TEMPAE_clean_linker_10, # of connection points: 2
#     Edge 21, Type (0, 0), BuildingBlock: TEMPAE_clean_linker_10, # of connection points: 2
#     Edge 22, Type (0, 0), BuildingBlock: TEMPAE_clean_linker_10, # of connection points: 2
#     Edge 23, Type (0, 0), BuildingBlock: TEMPAE_clean_linker_10, # of connection points: 2
# Relax obj value: 0.041
# Max RMSD: 0.067
# Mean RMSD: 0.055
data_MOF--net-mdf--node1-TATPOV_clean_sbu_0--edge1-TEMPAE_clean_linker_10
_symmetry_space_group_name_H-M    P1
_symmetry_Int_Tables_number       1
_symmetry_cell_setting            triclinic
loop_
_symmetry_equiv_pos_as_xyz
'x, y, z'
_cell_length_a     35.703125
_cell_length_b     35.730218
_cell_length_c     14.905264
_cell_angle_alpha  92.279006
_cell_angle_beta   92.466018
_cell_angle_gamma 90.124227
loop_
_atom_site_label
_atom_site_type_symbol
_atom_site_fract_x
_atom_site_fract_y
_atom_site_fract_z
_atom_type_partial_charge
Zn0 Zn 0.26494 0.52012 0.53801 0.0
Zn1 Zn 0.26679 0.55953 0.39389 0.0
O2 O 0.24831 0.59577 0.4948 0.0
O3 O 0.24823 0.56268 0.61606 0.0
O4 O 0.27694 0.59546 0.29648 0.0
O5 O 0.3192 0.50743 0.53771 0.0
O6 O 0.31854 0.53297 0.4059 0.0
C7 C 0.24228 0.59322 0.57806 0.0
C8 C 0.21262 0.49485 0.39032 0.0
O9 O 0.2246 0.523 0.34966 0.0
O10 O 0.22622 0.4876 0.46772 0.0
C11 C 0.27981 0.58699 0.21345 0.0
O12 O 0.27282 0.55245 0.18378 0.0
C13 C 0.33566 0.51498 0.46728 0.0
Zn14 Zn 0.47712 0.77833 0.48226 0.0
Zn15 Zn 0.44559 0.77026 0.63759 0.0
O16 O 0.40058 0.78513 0.5538 0.0
O17 O 0.42926 0.79859 0.43083 0.0
O18 O 0.42303 0.75569 0.75341 0.0
O19 O 0.48972 0.72375 0.46799 0.0
O20 O 0.47208 0.72052 0.60683 0.0
C21 C 0.39973 0.79726 0.47447 0.0
C22 C 0.50941 0.82636 0.62511 0.0
O23 O 0.48281 0.81377 0.67012 0.0
O24 O 0.51396 0.81398 0.54555 0.0
C25 C 0.38945 0.7608 0.77622 0.0
O26 O 0.36666 0.78064 0.72559 0.0
C27 C 0.4867 0.70535 0.53805 0.0
Zn28 Zn 0.2403 0.98294 0.70645 0.0
Zn29 Zn 0.25257 0.93753 0.83771 0.0
O30 O 0.22952 0.90345 0.73561 0.0
O31 O 0.21032 0.94397 0.63612 0.0
O32 O 0.2606 0.90277 0.94022 0.0
O33 O 0.29509 0.98471 0.68704 0.0
O34 O 0.30634 0.95562 0.81286 0.0
C35 C 0.21267 0.91063 0.6612 0.0
C36 C 0.20569 0.00934 0.8627 0.0
O37 O 0.21639 0.97739 0.88859 0.0
O38 O 0.21512 0.02058 0.78745 0.0
C39 C 0.23833 0.89902 0.0038 0.0
O40 O 0.20715 0.91843 0.00487 0.0
C41 C 0.31811 0.97194 0.74486 0.0
Zn42 Zn 0.96848 0.73822 0.24066 0.0
Zn43 Zn 0.0134 0.71608 0.10962 0.0
O44 O 0.05096 0.73166 0.21061 0.0
O45 O 0.0146 0.74723 0.32167 0.0
O46 O 0.04575 0.70096 0.00846 0.0
O47 O 0.94449 0.6879 0.23447 0.0
O48 O 0.98438 0.66783 0.13447 0.0
C49 C 0.04703 0.74272 0.29184 0.0
C50 C 0.95958 0.7824 0.08634 0.0
O51 O 0.98458 0.7604 0.05679 0.0
O52 O 0.94745 0.77874 0.16405 0.0
C53 C 0.06785 0.72468 0.97735 0.0
O54 O 0.06958 0.75882 0.01353 0.0
C55 C 0.95743 0.66176 0.18535 0.0
Zn56 Zn 0.76698 0.02262 0.02724 0.0
Zn57 Zn 0.7709 0.05913 0.87995 0.0
O58 O 0.75838 0.0999 0.97848 0.0
O59 O 0.75708 0.06801 0.10177 0.0
O60 O 0.78524 0.08761 0.77146 0.0
O61 O 0.81868 0.00285 0.02693 0.0
O62 O 0.81898 0.02659 0.89322 0.0
C63 C 0.75393 0.09868 0.06296 0.0
C64 C 0.71004 0.00098 0.8882 0.0
O65 O 0.7244 0.02683 0.8438 0.0
O66 O 0.72386 0.99358 0.96525 0.0
C67 C 0.77399 0.11869 0.7416 0.0
O68 O 0.74671 0.13668 0.78086 0.0
C69 C 0.83477 0.00751 0.95446 0.0
Zn70 Zn 0.99558 0.26185 0.96064 0.0
Zn71 Zn 0.96395 0.25025 0.11357 0.0
O72 O 0.92059 0.26374 0.02343 0.0
O73 O 0.9475 0.27541 0.89774 0.0
O74 O 0.93392 0.23456 0.21777 0.0
O75 O 0.01395 0.20915 0.95019 0.0
O76 O 0.99494 0.20223 0.08711 0.0
C77 C 0.91818 0.27331 0.94189 0.0
C78 C 0.02271 0.31137 0.11008 0.0
O79 O -0.00206 0.29533 0.15475 0.0
O80 O 0.02721 0.30135 0.02872 0.0
C81 C 0.93614 0.24398 0.30096 0.0
O82 O 0.96178 0.26829 0.33125 0.0
C83 C 0.01172 0.18957 0.01855 0.0
Zn84 Zn 0.71198 0.48659 0.30767 0.0
Zn85 Zn 0.72485 0.44436 0.43412 0.0
O86 O 0.7038 0.40786 0.33439 0.0
O87 O 0.67812 0.44896 0.24457 0.0
O88 O 0.73569 0.41427 0.54311 0.0
O89 O 0.76516 0.48601 0.27373 0.0
O90 O 0.77807 0.46305 0.40602 0.0
C91 C 0.68365 0.41533 0.26476 0.0
C92 C 0.67795 0.51568 0.45595 0.0
O93 O 0.68597 0.48275 0.48009 0.0
O94 O 0.69095 0.52769 0.38496 0.0
C95 C 0.72116 0.38363 0.56523 0.0
O96 O 0.69549 0.36697 0.51182 0.0
C97 C 0.78896 0.47574 0.33277 0.0
Zn98 Zn 0.48333 0.24867 0.72323 0.0
Zn99 Zn 0.53368 0.23386 0.60396 0.0
O100 O 0.56797 0.24851 0.7133 0.0
O101 O 0.52563 0.25586 0.81576 0.0
O102 O 0.56848 0.22001 0.50642 0.0
O103 O 0.4596 0.19864 0.70647 0.0
O104 O 0.5055 0.18356 0.61805 0.0
C105 C 0.55959 0.25516 0.79455 0.0
C106 C 0.47798 0.29878 0.58018 0.0
O107 O 0.50511 0.27913 0.55185 0.0
O108 O 0.46333 0.29138 0.6532 0.0
C109 C 0.59397 0.24132 0.48005 0.0
O110 O 0.59914 0.27461 0.51936 0.0
C111 C 0.47648 0.17446 0.65923 0.0
C112 C 0.39689 0.71188 0.89125 0.0
C113 C 0.37491 0.73976 0.85133 0.0
C114 C 0.38213 0.68848 0.95451 0.0
C115 C 0.34456 0.69321 0.97911 0.0
C116 C 0.32291 0.72267 0.9431 0.0
C117 C 0.33822 0.74541 0.87903 0.0
C118 C 0.40646 0.65816 0.9936 0.0
C119 C 0.28332 0.72964 0.971 0.0
C120 C 0.29268 0.60864 0.05966 0.0
C121 C 0.29481 0.61494 0.15317 0.0
C122 C 0.30878 0.63398 0.00256 0.0
C123 C 0.32745 0.66642 0.03976 0.0
C124 C 0.33018 0.67262 0.13426 0.0
C125 C 0.31345 0.64708 0.18959 0.0
C126 C 0.30689 0.62548 0.90242 0.0
C127 C 0.3524 0.70474 0.17884 0.0
H128 H 0.42538 0.70743 0.87094 0.0
H129 H 0.32117 0.76717 0.84951 0.0
H130 H 0.40885 0.66215 0.06784 0.0
H131 H 0.39337 0.63031 0.97819 0.0
H132 H 0.4351 0.65803 0.96722 0.0
H133 H 0.27125 0.75546 0.94249 0.0
H134 H 0.26533 0.70548 0.94817 0.0
H135 H 0.28264 0.73216 0.0454 0.0
H136 H 0.27867 0.58371 0.03102 0.0
H137 H 0.3161 0.65182 0.2619 0.0
H138 H 0.33564 0.62355 0.87718 0.0
H139 H 0.29249 0.64859 0.86741 0.0
H140 H 0.29195 0.59878 0.88421 0.0
H141 H 0.37908 0.6937 0.20805 0.0
H142 H 0.33698 0.71746 0.23538 0.0
H143 H 0.35932 0.72686 0.13218 0.0
C144 C 0.33405 0.78803 0.41386 0.0
C145 C 0.3651 0.81145 0.432 0.0
C146 C 0.3051 0.79852 0.35302 0.0
C147 C 0.3072 0.83361 0.31189 0.0
C148 C 0.33711 0.85854 0.33701 0.0
C149 C 0.36585 0.84693 0.39603 0.0
C150 C 0.27382 0.77084 0.33072 0.0
C151 C 0.34065 0.89622 0.29546 0.0
C152 C 0.27821 0.84954 0.07099 0.0
C153 C 0.24993 0.87627 0.08084 0.0
C154 C 0.2945 0.83244 0.14586 0.0
C155 C 0.28251 0.84258 0.23282 0.0
C156 C 0.25141 0.86669 0.24237 0.0
C157 C 0.23538 0.88332 0.16593 0.0
C158 C 0.32635 0.80543 0.1325 0.0
C159 C 0.23698 0.87754 0.33348 0.0
H160 H 0.33367 0.76048 0.44185 0.0
H161 H 0.39004 0.86493 0.41069 0.0
H162 H 0.25552 0.77853 0.27247 0.0
H163 H 0.28547 0.74255 0.31669 0.0
H164 H 0.25654 0.76865 0.3904 0.0
H165 H 0.36403 0.91326 0.32738 0.0
H166 H 0.34571 0.89213 0.22277 0.0
H167 H 0.31428 0.91228 0.30159 0.0
H168 H 0.28877 0.84314 0.005 0.0
H169 H 0.21308 0.90356 0.17389 0.0
H170 H 0.32066 0.77941 0.16758 0.0
H171 H 0.3528 0.81775 0.16251 0.0
H172 H 0.3304 0.79818 0.06041 0.0
H173 H 0.24219 0.85535 0.3825 0.0
H174 H 0.20646 0.88355 0.32866 0.0
H175 H 0.2515 0.90342 0.35995 0.0
C176 C 0.07655 0.7609 0.44154 0.0
C177 C 0.07999 0.75447 0.34892 0.0
C178 C 0.10462 0.77999 0.49345 0.0
C179 C 0.13658 0.79313 0.4512 0.0
C180 C 0.14192 0.78322 0.35979 0.0
C181 C 0.11355 0.76376 0.30965 0.0
C182 C 0.09801 0.78961 0.59109 0.0
C183 C 0.17553 0.79629 0.31178 0.0
C184 C 0.16633 0.88897 0.54181 0.0
C185 C 0.19534 0.88042 0.6037 0.0
C186 C 0.14808 0.86077 0.48908 0.0
C187 C 0.15959 0.82315 0.49742 0.0
C188 C 0.19059 0.81461 0.55528 0.0
C189 C 0.20769 0.84336 0.60939 0.0
C190 C 0.11563 0.87118 0.42659 0.0
C191 C 0.20505 0.77521 0.5626 0.0
H192 H 0.05093 0.753 0.47258 0.0
H193 H 0.1166 0.75846 0.23819 0.0
H194 H 0.12423 0.78708 0.63306 0.0
H195 H 0.08848 0.8191 0.59785 0.0
H196 H 0.07626 0.77131 0.61781 0.0
H197 H 0.18372 0.77499 0.25997 0.0
H198 H 0.16829 0.82232 0.27686 0.0
H199 H 0.19978 0.80223 0.35892 0.0
H200 H 0.15702 0.9177 0.53656 0.0
H201 H 0.23073 0.83682 0.65585 0.0
H202 H 0.08955 0.85749 0.44689 0.0
H203 H 0.12085 0.86109 0.35692 0.0
H204 H 0.11092 0.90191 0.42654 0.0
H205 H 0.18915 0.76098 0.61353 0.0
H206 H 0.23516 0.77504 0.58473 0.0
H207 H 0.20143 0.75892 0.49786 0.0
C208 C 0.08667 0.67888 0.85743 0.0
C209 C 0.09275 0.71316 0.9047 0.0
C210 C 0.112 0.66556 0.79467 0.0
C211 C 0.14441 0.68691 0.77936 0.0
C212 C 0.14972 0.72252 0.82343 0.0
C213 C 0.12358 0.73535 0.88516 0.0
C214 C 0.1052 0.62749 0.749 0.0
C215 C 0.18352 0.74682 0.81008 0.0
C216 C 0.22555 0.6244 0.72258 0.0
C217 C 0.22351 0.62365 0.62844 0.0
C218 C 0.20149 0.64703 0.77256 0.0
C219 C 0.17458 0.66925 0.72717 0.0
C220 C 0.17413 0.67066 0.63228 0.0
C221 C 0.19892 0.64798 0.58388 0.0
C222 C 0.20279 0.64491 0.87371 0.0
C223 C 0.14543 0.69328 0.58084 0.0
H224 H 0.06255 0.66188 0.87118 0.0
H225 H 0.1283 0.76211 0.9208 0.0
H226 H 0.10692 0.62927 0.67519 0.0
H227 H 0.12723 0.60775 0.77204 0.0
H228 H 0.07741 0.61567 0.76352 0.0
H229 H 0.17406 0.77439 0.7859 0.0
H230 H 0.19888 0.75226 0.87571 0.0
H231 H 0.20328 0.73449 0.76188 0.0
H232 H 0.24463 0.60572 0.75712 0.0
H233 H 0.19703 0.64731 0.51103 0.0
H234 H 0.17601 0.63321 0.89563 0.0
H235 H 0.20603 0.67342 0.90538 0.0
H236 H 0.22595 0.62703 0.89915 0.0
H237 H 0.12043 0.67553 0.56344 0.0
H238 H 0.15658 0.70261 0.51694 0.0
H239 H 0.13623 0.71809 0.62095 0.0
C240 C 0.82843 0.12021 0.6415 0.0
C241 C 0.79456 0.13596 0.66895 0.0
C242 C 0.85007 0.13746 0.5784 0.0
C243 C 0.83758 0.17126 0.54113 0.0
C244 C 0.80259 0.18639 0.56496 0.0
C245 C 0.78163 0.16881 0.62937 0.0
C246 C 0.88649 0.11962 0.55196 0.0
C247 C 0.78775 0.22157 0.52372 0.0
C248 C 0.91303 0.23462 0.45565 0.0
C249 C 0.91021 0.22655 0.36273 0.0
C250 C 0.88913 0.21722 0.51416 0.0
C251 C 0.8618 0.19111 0.47904 0.0
C252 C 0.85869 0.18311 0.38524 0.0
C253 C 0.88267 0.20109 0.3284 0.0
C254 C 0.89357 0.22621 0.61386 0.0
C255 C 0.82961 0.15625 0.34361 0.0
H256 H 0.83861 0.09469 0.67088 0.0
H257 H 0.75532 0.18097 0.6492 0.0
H258 H 0.88609 0.11429 0.47804 0.0
H259 H 0.9102 0.13899 0.57005 0.0
H260 H 0.89179 0.09274 0.58519 0.0
H261 H 0.75792 0.22663 0.53843 0.0
H262 H 0.80475 0.24587 0.55019 0.0
H263 H 0.7903 0.21997 0.44979 0.0
H264 H 0.93415 0.25426 0.48291 0.0
H265 H 0.87987 0.1949 0.25663 0.0
H266 H 0.90263 0.20079 0.64915 0.0
H267 H 0.86627 0.23489 0.64066 0.0
H268 H 0.91454 0.24875 0.63001 0.0
H269 H 0.82346 0.1331 0.38821 0.0
H270 H 0.83846 0.14397 0.27824 0.0
H271 H 0.80335 0.17198 0.33055 0.0
C272 C 0.84907 0.28657 0.94807 0.0
C273 C 0.88171 0.28374 0.89892 0.0
C274 C 0.81545 0.29998 0.90853 0.0
C275 C 0.81456 0.31033 0.81774 0.0
C276 C 0.84706 0.30604 0.76711 0.0
C277 C 0.88008 0.29285 0.80825 0.0
C278 C 0.78136 0.304 0.96443 0.0
C279 C 0.84758 0.31717 0.6703 0.0
C280 C 0.73352 0.32646 0.65434 0.0
C281 C 0.73698 0.36523 0.64546 0.0
C282 C 0.75552 0.30808 0.71949 0.0
C283 C 0.78145 0.32906 0.77586 0.0
C284 C 0.78129 0.36861 0.77464 0.0
C285 C 0.75916 0.38622 0.70915 0.0
C286 C 0.75311 0.26606 0.72376 0.0
C287 C 0.80757 0.3922 0.83569 0.0
H288 H 0.85006 0.27935 0.01807 0.0
H289 H 0.90504 0.29065 0.76954 0.0
H290 H 0.76963 0.33264 0.96037 0.0
H291 H 0.75933 0.28413 0.93785 0.0
H292 H 0.78773 0.29824 0.03615 0.0
H293 H 0.87428 0.30967 0.63862 0.0
H294 H 0.82414 0.30348 0.63024 0.0
H295 H 0.84374 0.3479 0.66679 0.0
H296 H 0.7156 0.31018 0.60685 0.0
H297 H 0.76103 0.41637 0.70451 0.0
H298 H 0.73123 0.25384 0.67604 0.0
H299 H 0.74647 0.25836 0.79262 0.0
H300 H 0.78059 0.25333 0.70894 0.0
H301 H 0.80871 0.38174 0.90481 0.0
H302 H 0.79907 0.4221 0.83864 0.0
H303 H 0.8363 0.39049 0.81018 0.0
C304 C 0.63856 0.39236 0.14443 0.0
C305 C 0.66978 0.38553 0.20131 0.0
C306 C 0.62696 0.36623 0.07674 0.0
C307 C 0.64729 0.33251 0.06547 0.0
C308 C 0.67936 0.32582 0.12147 0.0
C309 C 0.6899 0.35221 0.19011 0.0
C310 C 0.59294 0.3748 0.01727 0.0
C311 C 0.70215 0.2907 0.11048 0.0
C312 C 0.58137 0.26162 0.95453 0.0
C313 C 0.58859 0.266 0.86387 0.0
C314 C 0.6033 0.28008 0.02255 0.0
C315 C 0.63278 0.30372 0.99879 0.0
C316 C 0.64279 0.3049 0.908 0.0
C317 C 0.62056 0.2857 0.84119 0.0
C318 C 0.59203 0.2776 0.11872 0.0
C319 C 0.67416 0.3297 0.88016 0.0
H320 H 0.62322 0.41835 0.15266 0.0
H321 H 0.71456 0.3473 0.23302 0.0
H322 H 0.60002 0.37233 0.94551 0.0
H323 H 0.57035 0.35422 0.02742 0.0
H324 H 0.58184 0.40336 0.03136 0.0
H325 H 0.73104 0.29436 0.14028 0.0
H326 H 0.68831 0.26827 0.14583 0.0
H327 H 0.70372 0.2814 0.03892 0.0
H328 H 0.55705 0.2457 0.97219 0.0
H329 H 0.62633 0.28885 0.77105 0.0
H330 H 0.5735 0.30152 0.13568 0.0
H331 H 0.6168 0.27906 0.16635 0.0
H332 H 0.57639 0.25128 0.12879 0.0
H333 H 0.66417 0.35907 0.87868 0.0
H334 H 0.68354 0.32134 0.81222 0.0
H335 H 0.69851 0.32901 0.92875 0.0
C336 C 0.71371 0.15537 0.07449 0.0
C337 C 0.7392 0.13092 0.11506 0.0
C338 C 0.69088 0.17864 0.12685 0.0
C339 C 0.69478 0.17834 0.22217 0.0
C340 C 0.72237 0.15537 0.26299 0.0
C341 C 0.74436 0.13216 0.20887 0.0
C342 C 0.66051 0.20018 0.07819 0.0
C343 C 0.72613 0.15239 0.36391 0.0
C344 C 0.65186 0.24627 0.39185 0.0
C345 C 0.61833 0.22774 0.40797 0.0
C346 C 0.67662 0.23151 0.32897 0.0
C347 C 0.66727 0.1976 0.28015 0.0
C348 C 0.6328 0.1795 0.2944 0.0
C349 C 0.60874 0.1949 0.35763 0.0
C350 C 0.71341 0.25166 0.32028 0.0
C351 C 0.62201 0.14279 0.24613 0.0
H352 H 0.70912 0.15398 0.00201 0.0
H353 H 0.76397 0.11304 0.24032 0.0
H354 H 0.64081 0.1802 0.04179 0.0
H355 H 0.6443 0.21851 0.12352 0.0
H356 H 0.67296 0.21729 0.02641 0.0
H357 H 0.74813 0.13221 0.3849 0.0
H358 H 0.7331 0.18015 0.39604 0.0
H359 H 0.69907 0.14327 0.39 0.0
H360 H 0.65955 0.27165 0.43068 0.0
H361 H 0.58267 0.1806 0.36913 0.0
H362 H 0.72988 0.24057 0.26377 0.0
H363 H 0.73057 0.24947 0.38364 0.0
H364 H 0.70824 0.28197 0.31182 0.0
H365 H 0.6174 0.14717 0.17329 0.0
H366 H 0.59598 0.13063 0.2713 0.0
H367 H 0.64493 0.12209 0.25413 0.0
C368 C 0.39758 0.49345 0.52501 0.0
C369 C 0.37195 0.49688 0.45211 0.0
C370 C 0.4245 0.46501 0.5246 0.0
C371 C 0.42473 0.43887 0.4507 0.0
C372 C 0.40298 0.44598 0.37155 0.0
C373 C 0.37669 0.47521 0.37303 0.0
C374 C 0.44874 0.45972 0.60856 0.0
C375 C 0.40359 0.41969 0.28999 0.0
C376 C 0.48809 0.35465 0.48688 0.0
C377 C 0.46388 0.33134 0.53129 0.0
C378 C 0.47548 0.3892 0.45485 0.0
C379 C 0.43787 0.40017 0.46724 0.0
C380 C 0.41282 0.37521 0.506 0.0
C381 C 0.42623 0.34131 0.53791 0.0
C382 C 0.50311 0.41466 0.4134 0.0
C383 C 0.37222 0.3852 0.51922 0.0
H384 H 0.3943 0.51076 0.58559 0.0
H385 H 0.35706 0.47809 0.31618 0.0
H386 H 0.43657 0.43723 0.6477 0.0
H387 H 0.47745 0.45111 0.5913 0.0
H388 H 0.45059 0.48574 0.65193 0.0
H389 H 0.39314 0.43359 0.22847 0.0
H390 H 0.43233 0.40906 0.27959 0.0
H391 H 0.38521 0.39526 0.30009 0.0
H392 H 0.5173 0.34696 0.48181 0.0
H393 H 0.40739 0.32302 0.5711 0.0
H394 H 0.51661 0.43319 0.46695 0.0
H395 H 0.48924 0.43266 0.36301 0.0
H396 H 0.52556 0.39827 0.38081 0.0
H397 H 0.37062 0.4093 0.56822 0.0
H398 H 0.35601 0.36156 0.54463 0.0
H399 H 0.35854 0.39363 0.45497 0.0
C400 C 0.66966 0.94403 0.88714 0.0
C401 C 0.67759 0.97868 0.85085 0.0
C402 C 0.6398 0.92166 0.85242 0.0
C403 C 0.61678 0.93444 0.78042 0.0
C404 C 0.62373 0.96997 0.74536 0.0
C405 C 0.65441 0.99153 0.78031 0.0
C406 C 0.63376 0.8837 0.89078 0.0
C407 C 0.59939 0.98478 0.66953 0.0
C408 C 0.57173 0.85769 0.63003 0.0
C409 C 0.53595 0.85492 0.66462 0.0
C410 C 0.59788 0.88407 0.66582 0.0
C411 C 0.58785 0.90887 0.73706 0.0
C412 C 0.55138 0.90705 0.77068 0.0
C413 C 0.52593 0.8797 0.73475 0.0
C414 C 0.63666 0.88461 0.62902 0.0
C415 C 0.53942 0.93378 0.84493 0.0
H416 H 0.68747 0.93384 0.94157 0.0
H417 H 0.66014 0.01844 0.75264 0.0
H418 H 0.60453 0.88105 0.91213 0.0
H419 H 0.6381 0.86141 0.83829 0.0
H420 H 0.65315 0.87863 0.94932 0.0
H421 H 0.6043 0.01509 0.6606 0.0
H422 H 0.60553 0.96929 0.6059 0.0
H423 H 0.56928 0.98035 0.68164 0.0
H424 H 0.57969 0.83854 0.57593 0.0
H425 H 0.49812 0.87797 0.76079 0.0
H426 H 0.65781 0.878 0.68278 0.0
H427 H 0.64328 0.91295 0.60623 0.0
H428 H 0.63961 0.86411 0.57175 0.0
H429 H 0.55665 0.92922 0.90723 0.0
H430 H 0.50939 0.9303 0.85957 0.0
H431 H 0.54419 0.96313 0.8263 0.0
C432 C 0.03356 0.13146 0.94162 0.0
C433 C 0.03244 0.15403 0.02033 0.0
C434 C 0.06 0.10279 0.93344 0.0
C435 C 0.08664 0.09737 0.00488 0.0
C436 C 0.08355 0.11798 0.0874 0.0
C437 C 0.0561 0.14599 0.09447 0.0
C438 C 0.06155 0.0807 0.84517 0.0
C439 C 0.11136 0.11306 0.16508 0.0
C440 C 0.15166 0.01508 0.96365 0.0
C441 C 0.17944 0.03216 0.91539 0.0
C442 C 0.12211 0.03625 0.99875 0.0
C443 C 0.12094 0.07533 0.9864 0.0
C444 C 0.15077 0.09298 0.94449 0.0
C445 C 0.1794 0.07111 0.90857 0.0
C446 C 0.09082 0.01634 0.04255 0.0
C447 C 0.15116 0.13472 0.93184 0.0
H448 H 0.01499 0.13757 0.88459 0.0
H449 H 0.05532 0.16364 0.15525 0.0
H450 H 0.08582 0.09035 0.808 0.0
H451 H 0.0655 0.05047 0.85677 0.0
H452 H 0.03569 0.08419 0.80215 0.0
H453 H 0.10083 0.12506 0.22909 0.0
H454 H 0.11795 0.08304 0.17341 0.0
H455 H 0.1379 0.12759 0.15142 0.0
H456 H 0.1516 0.98489 0.96876 0.0
H457 H 0.20113 0.08438 0.8722 0.0
H458 H 0.0665 0.01308 0.99392 0.0
H459 H 0.0813 0.03279 0.10194 0.0
H460 H 0.09944 0.98805 0.06371 0.0
H461 H 0.12882 0.14198 0.88149 0.0
H462 H 0.17844 0.14457 0.90821 0.0
H463 H 0.14533 0.15017 0.99574 0.0
C464 C 0.90264 0.62115 0.2003 0.0
C465 C 0.94125 0.62423 0.19122 0.0
C466 C 0.88645 0.58734 0.22203 0.0
C467 C 0.90967 0.55578 0.23644 0.0
C468 C 0.94864 0.55817 0.22316 0.0
C469 C 0.96407 0.5926 0.20016 0.0
C470 C 0.84452 0.58603 0.23293 0.0
C471 C 0.97443 0.5254 0.23804 0.0
C472 C 0.85188 0.5002 0.38392 0.0
C473 C 0.82873 0.48231 0.31729 0.0
C474 C 0.88383 0.51983 0.36004 0.0
C475 C 0.89203 0.52136 0.26803 0.0
C476 C 0.87283 0.49734 0.20398 0.0
C477 C 0.84093 0.4783 0.22931 0.0
C478 C 0.90505 0.54364 0.43096 0.0
C479 C 0.88193 0.49662 0.10605 0.0
H480 H 0.88514 0.64572 0.19283 0.0
H481 H 0.99411 0.59527 0.19415 0.0
H482 H 0.83167 0.56335 0.18878 0.0
H483 H 0.83854 0.58 0.30335 0.0
H484 H 0.83061 0.6128 0.21614 0.0
H485 H -0.00011 0.52747 0.19814 0.0
H486 H 0.98364 0.52543 0.3101 0.0
H487 H 0.96027 0.49825 0.22058 0.0
H488 H 0.84277 0.50265 0.45238 0.0
H489 H 0.82347 0.46338 0.17827 0.0
H490 H 0.89444 0.5728 0.42952 0.0
H491 H 0.93539 0.54427 0.41778 0.0
H492 H 0.90135 0.53319 0.49926 0.0
H493 H 0.8682 0.52074 0.07358 0.0
H494 H 0.87154 0.47048 0.07035 0.0
H495 H 0.91258 0.49908 0.09809 0.0
C496 C 0.37915 -0.00335 0.80857 0.0
C497 C 0.35801 0.98057 0.73574 0.0
C498 C 0.41017 0.01946 0.79343 0.0
C499 C 0.41945 0.02609 0.70389 0.0
C500 C 0.40272 0.00389 0.63244 0.0
C501 C 0.37175 0.98154 0.64917 0.0
C502 C 0.42898 0.04103 0.87187 0.0
C503 C 0.41318 0.00852 0.53654 0.0
C504 C 0.42427 0.12941 0.6625 0.0
C505 C 0.46274 0.13558 0.65703 0.0
C506 C 0.41013 0.09366 0.67509 0.0
C507 C 0.43522 0.06314 0.68357 0.0
C508 C 0.47413 0.06883 0.67434 0.0
C509 C 0.4875 0.1052 0.66075 0.0
C510 C 0.36823 0.08901 0.68224 0.0
C511 C 0.50192 0.0373 0.68338 0.0
H512 H 0.36892 0.99531 0.87582 0.0
H513 H 0.3559 0.9681 0.59304 0.0
H514 H 0.45942 0.04423 0.86194 0.0
H515 H 0.4166 0.06947 0.8773 0.0
H516 H 0.42505 0.02704 0.93606 0.0
H517 H 0.40487 0.98358 0.49327 0.0
H518 H 0.39842 0.03327 0.50962 0.0
H519 H 0.44376 0.0133 0.53245 0.0
H520 H 0.40517 0.15293 0.65904 0.0
H521 H 0.51738 0.11012 0.65762 0.0
H522 H 0.36196 0.07927 0.74975 0.0
H523 H 0.3573 0.06763 0.63172 0.0
H524 H 0.35275 0.11551 0.67151 0.0
H525 H 0.51059 0.03501 0.75533 0.0
H526 H 0.52749 0.04279 0.64597 0.0
H527 H 0.48974 0.00997 0.65905 0.0
C528 C 0.89497 0.98062 0.00719 0.0
C529 C 0.8682 0.98496 0.93717 0.0
C530 C 0.91824 0.94917 0.00816 0.0
C531 C 0.91356 0.92113 0.93872 0.0
C532 C 0.89059 0.92826 0.86153 0.0
C533 C 0.86813 0.96048 0.8614 0.0
C534 C 0.9437 0.94347 0.08991 0.0
C535 C 0.88568 0.89957 0.78497 0.0
C536 C 0.97019 0.83304 0.97888 0.0
C537 C 0.94608 0.81398 0.03344 0.0
C538 C 0.95937 0.86719 0.94194 0.0
C539 C 0.92357 0.88202 0.95955 0.0
C540 C 0.89813 0.8611 0.00842 0.0
C541 C 0.90987 0.82754 0.0454 0.0
C542 C 0.98727 0.88839 0.89001 0.0
C543 C 0.85926 0.87531 0.02712 0.0
H544 H 0.89525 -5e-05 0.06522 0.0
H545 H 0.84743 0.96399 0.80699 0.0
H546 H 0.92996 0.92414 0.13498 0.0
H547 H 0.97057 0.93064 0.07045 0.0
H548 H 0.94976 0.97027 0.12821 0.0
H549 H 0.87517 0.9126 0.72233 0.0
H550 H 0.91242 0.88497 0.77202 0.0
H551 H 0.86493 0.87821 0.80279 0.0
H552 H -0.00171 0.82252 0.96964 0.0
H553 H 0.89106 0.81247 0.08652 0.0
H554 H 0.00309 0.90821 0.93675 0.0
H555 H 0.97322 0.90487 0.83686 0.0
H556 H 0.00777 0.86911 0.85866 0.0
H557 H 0.86134 0.9005 0.07313 0.0
H558 H 0.84192 0.85402 0.05866 0.0
H559 H 0.84451 0.88357 0.96398 0.0
C560 C 0.0823 0.3478 0.11435 0.0
C561 C 0.04777 0.3408 0.15223 0.0
C562 C 0.10728 0.37477 0.15276 0.0
C563 C 0.09732 0.39594 0.23024 0.0
C564 C 0.06208 0.38979 0.26771 0.0
C565 C 0.03785 0.3619 0.22885 0.0
C566 C 0.14487 0.37979 0.11176 0.0
C567 C 0.05019 0.41242 0.34921 0.0
C568 C 0.17897 0.43357 0.37824 0.0
C569 C 0.18267 0.47019 0.34903 0.0
C570 C 0.1508 0.40949 0.3415 0.0
C571 C 0.12512 0.42249 0.27491 0.0
C572 C 0.12808 0.45974 0.24649 0.0
C573 C 0.15716 0.48306 0.28316 0.0
C574 C 0.1492 0.36975 0.37229 0.0
C575 C 0.10074 0.47481 0.17689 0.0
H576 H 0.09031 0.33147 0.05542 0.0
H577 H 0.01108 0.35683 0.2579 0.0
H578 H 0.14876 0.40938 0.09424 0.0
H579 H 0.16769 0.37302 0.16133 0.0
H580 H 0.14795 0.36166 0.05024 0.0
H581 H 0.02097 0.40599 0.36652 0.0
H582 H 0.06919 0.40663 0.40783 0.0
H583 H 0.05241 0.44278 0.33724 0.0
H584 H 0.19866 0.42339 0.42899 0.0
H585 H 0.1596 0.51149 0.2612 0.0
H586 H 0.15382 0.34986 0.31476 0.0
H587 H 0.12108 0.36366 0.39712 0.0
H588 H 0.17058 0.36437 0.42658 0.0
H589 H 0.10365 0.45923 0.11171 0.0
H590 H 0.10521 0.5051 0.16671 0.0
H591 H 0.07155 0.47058 0.1973 0.0
C592 C 0.51233 0.64784 0.46413 0.0
C593 C 0.50478 0.66835 0.54326 0.0
C594 C 0.53665 0.61716 0.46574 0.0
C595 C 0.55433 0.6073 0.54831 0.0
C596 C 0.54401 0.62561 0.62941 0.0
C597 C 0.51907 0.65591 0.626 0.0
C598 C 0.54603 0.59759 0.37791 0.0
C599 C 0.56193 0.61564 0.71878 0.0
C600 C 0.6163 0.52163 0.52718 0.0
C601 C 0.64963 0.53825 0.50184 0.0
C602 C 0.58523 0.54379 0.54889 0.0
C603 C 0.58818 0.58327 0.54646 0.0
C604 C 0.62304 0.60002 0.52935 0.0
C605 C 0.65321 0.57725 0.5061 0.0
C606 C 0.54859 0.5248 0.56637 0.0
C607 C 0.62769 0.64204 0.52816 0.0
H608 H 0.50076 0.65698 0.40022 0.0
H609 H 0.51311 0.67156 0.68752 0.0
H610 H 0.57457 0.60603 0.3597 0.0
H611 H 0.54602 0.56677 0.38434 0.0
H612 H 0.52595 0.60471 0.32221 0.0
H613 H 0.54569 0.62675 0.77586 0.0
H614 H 0.56461 0.58484 0.72344 0.0
H615 H 0.59059 0.62781 0.72552 0.0
H616 H 0.61349 0.49137 0.52309 0.0
H617 H 0.67913 0.58998 0.4869 0.0
H618 H 0.53061 0.52374 0.5037 0.0
H619 H 0.53315 0.54052 0.61865 0.0
H620 H 0.55299 0.49561 0.58759 0.0
H621 H 0.61192 0.65279 0.46883 0.0
H622 H 0.65754 0.65049 0.52467 0.0
H623 H 0.61613 0.65567 0.58908 0.0
loop_
_geom_bond_atom_site_label_1
_geom_bond_atom_site_label_2
_geom_bond_distance
_geom_bond_site_symmetry_2
_ccdc_geom_bond_type
Zn0 O3 2.031 . S
Zn0 O5 2.049 . S
Zn0 O10 2.067 . S
Zn1 O2 1.962 . S
Zn1 O4 1.986 . S
Zn1 O6 1.996 . S
Zn1 O9 1.943 . S
O2 Zn1 1.962 . S
O2 C7 1.254 . S
O3 Zn0 2.031 . S
O3 C7 1.269 . S
O4 Zn1 1.986 . S
O4 C11 1.262 . S
O5 Zn0 2.049 . S
O5 C13 1.260 . S
O6 Zn1 1.996 . S
O6 C13 1.257 . S
C7 O2 1.254 . S
C7 O3 1.269 . S
C8 O9 1.249 . S
C8 O10 1.270 . S
O9 Zn1 1.943 . S
O9 C8 1.249 . S
O10 Zn0 2.067 . S
O10 C8 1.270 . S
C11 O4 1.262 . S
C11 O12 1.232 . S
O12 C11 1.232 . S
C13 O5 1.260 . S
C13 O6 1.257 . S
Zn14 O17 2.031 . S
Zn14 O19 2.049 . S
Zn14 O24 2.067 . S
Zn15 O16 1.962 . S
Zn15 O18 1.986 . S
Zn15 O20 1.996 . S
Zn15 O23 1.943 . S
O16 Zn15 1.962 . S
O16 C21 1.254 . S
O17 Zn14 2.031 . S
O17 C21 1.269 . S
O18 Zn15 1.986 . S
O18 C25 1.262 . S
O19 Zn14 2.049 . S
O19 C27 1.260 . S
O20 Zn15 1.996 . S
O20 C27 1.257 . S
C21 O16 1.254 . S
C21 O17 1.269 . S
C22 O23 1.249 . S
C22 O24 1.270 . S
O23 Zn15 1.943 . S
O23 C22 1.249 . S
O24 Zn14 2.067 . S
O24 C22 1.270 . S
C25 O18 1.262 . S
C25 O26 1.232 . S
O26 C25 1.232 . S
C27 O19 1.260 . S
C27 O20 1.257 . S
Zn28 O31 2.031 1_545 S
Zn28 O33 2.049 . S
Zn28 O38 2.067 . S
Zn29 O30 1.962 . S
Zn29 O32 1.986 . S
Zn29 O34 1.996 . S
Zn29 O37 1.943 . S
O30 Zn29 1.962 . S
O30 C35 1.254 . S
O31 Zn28 2.031 1_565 S
O31 C35 1.269 . S
O32 Zn29 1.986 . S
O32 C39 1.262 1_556 S
O33 Zn28 2.049 . S
O33 C41 1.260 . S
O34 Zn29 1.996 . S
O34 C41 1.257 1_565 S
C35 O30 1.254 . S
C35 O31 1.269 . S
C36 O37 1.249 1_545 S
C36 O38 1.270 . S
O37 Zn29 1.943 . S
O37 C36 1.249 1_565 S
O38 Zn28 2.067 . S
O38 C36 1.270 . S
C39 O32 1.262 1_554 S
C39 O40 1.232 1_554 S
O40 C39 1.232 1_556 S
C41 O33 1.260 . S
C41 O34 1.257 1_545 S
Zn42 O45 2.031 1_655 S
Zn42 O47 2.049 . S
Zn42 O52 2.067 . S
Zn43 O44 1.962 . S
Zn43 O46 1.986 . S
Zn43 O48 1.996 . S
Zn43 O51 1.943 . S
O44 Zn43 1.962 . S
O44 C49 1.254 . S
O45 Zn42 2.031 1_455 S
O45 C49 1.269 . S
O46 Zn43 1.986 . S
O46 C53 1.262 1_554 S
O47 Zn42 2.049 . S
O47 C55 1.260 . S
O48 Zn43 1.996 . S
O48 C55 1.257 1_455 S
C49 O44 1.254 . S
C49 O45 1.269 . S
C50 O51 1.249 1_655 S
C50 O52 1.270 . S
O51 Zn43 1.943 . S
O51 C50 1.249 1_455 S
O52 Zn42 2.067 . S
O52 C50 1.270 . S
C53 O46 1.262 1_556 S
C53 O54 1.232 1_556 S
O54 C53 1.232 1_554 S
C55 O47 1.260 . S
C55 O48 1.257 1_655 S
Zn56 O59 2.031 1_565 S
Zn56 O61 2.049 . S
Zn56 O66 2.067 1_554 S
Zn57 O58 1.962 . S
Zn57 O60 1.986 . S
Zn57 O62 1.996 . S
Zn57 O65 1.943 . S
O58 Zn57 1.962 . S
O58 C63 1.254 1_556 S
O59 Zn56 2.031 1_545 S
O59 C63 1.269 . S
O60 Zn57 1.986 . S
O60 C67 1.262 . S
O61 Zn56 2.049 . S
O61 C69 1.260 1_554 S
O62 Zn57 1.996 . S
O62 C69 1.257 1_545 S
C63 O58 1.254 1_554 S
C63 O59 1.269 . S
C64 O65 1.249 1_565 S
C64 O66 1.270 . S
O65 Zn57 1.943 . S
O65 C64 1.249 1_545 S
O66 Zn56 2.067 1_556 S
O66 C64 1.270 . S
C67 O60 1.262 . S
C67 O68 1.232 . S
O68 C67 1.232 . S
C69 O61 1.260 1_556 S
C69 O62 1.257 1_565 S
Zn70 O73 2.031 1_455 S
Zn70 O75 2.049 . S
Zn70 O80 2.067 1_556 S
Zn71 O72 1.962 . S
Zn71 O74 1.986 . S
Zn71 O76 1.996 . S
Zn71 O79 1.943 . S
O72 Zn71 1.962 . S
O72 C77 1.254 1_554 S
O73 Zn70 2.031 1_655 S
O73 C77 1.269 . S
O74 Zn71 1.986 . S
O74 C81 1.262 . S
O75 Zn70 2.049 . S
O75 C83 1.260 1_556 S
O76 Zn71 1.996 . S
O76 C83 1.257 1_655 S
C77 O72 1.254 1_556 S
C77 O73 1.269 . S
C78 O79 1.249 1_455 S
C78 O80 1.270 . S
O79 Zn71 1.943 . S
O79 C78 1.249 1_655 S
O80 Zn70 2.067 1_554 S
O80 C78 1.270 . S
C81 O74 1.262 . S
C81 O82 1.232 . S
O82 C81 1.232 . S
C83 O75 1.260 1_554 S
C83 O76 1.257 1_455 S
Zn84 O87 2.031 . S
Zn84 O89 2.049 . S
Zn84 O94 2.067 . S
Zn85 O86 1.962 . S
Zn85 O88 1.986 . S
Zn85 O90 1.996 . S
Zn85 O93 1.943 . S
O86 Zn85 1.962 . S
O86 C91 1.254 . S
O87 Zn84 2.031 . S
O87 C91 1.269 . S
O88 Zn85 1.986 . S
O88 C95 1.262 . S
O89 Zn84 2.049 . S
O89 C97 1.260 . S
O90 Zn85 1.996 . S
O90 C97 1.257 . S
C91 O86 1.254 . S
C91 O87 1.269 . S
C92 O93 1.249 . S
C92 O94 1.270 . S
O93 Zn85 1.943 . S
O93 C92 1.249 . S
O94 Zn84 2.067 . S
O94 C92 1.270 . S
C95 O88 1.262 . S
C95 O96 1.232 . S
O96 C95 1.232 . S
C97 O89 1.260 . S
C97 O90 1.257 . S
Zn98 O101 2.031 . S
Zn98 O103 2.049 . S
Zn98 O108 2.067 . S
Zn99 O100 1.962 . S
Zn99 O102 1.986 . S
Zn99 O104 1.996 . S
Zn99 O107 1.943 . S
O100 Zn99 1.962 . S
O100 C105 1.254 . S
O101 Zn98 2.031 . S
O101 C105 1.269 . S
O102 Zn99 1.986 . S
O102 C109 1.262 . S
O103 Zn98 2.049 . S
O103 C111 1.260 . S
O104 Zn99 1.996 . S
O104 C111 1.257 . S
C105 O100 1.254 . S
C105 O101 1.269 . S
C106 O107 1.249 . S
C106 O108 1.270 . S
O107 Zn99 1.943 . S
O107 C106 1.249 . S
O108 Zn98 2.067 . S
O108 C106 1.270 . S
C109 O102 1.262 . S
C109 O110 1.232 . S
O110 C109 1.232 . S
C111 O103 1.260 . S
C111 O104 1.257 . S
C112 C113 1.391 . S
C112 C114 1.394 . S
C112 H128 0.931 . S
C113 C112 1.391 . S
C113 C117 1.376 . S
C114 C112 1.394 . S
C114 C115 1.369 . S
C114 C118 1.531 . S
C115 C114 1.369 . S
C115 C116 1.410 . S
C115 C123 1.503 1_556 S
C116 C115 1.410 . S
C116 C117 1.392 . S
C116 C119 1.511 1_556 S
C117 C113 1.376 . S
C117 C116 1.392 . S
C117 H129 0.929 . S
C118 C114 1.531 . S
C118 H130 0.960 . S
C118 H131 0.962 . S
C118 H132 0.960 . S
C119 C116 1.511 1_554 S
C119 H133 0.961 . S
C119 H134 0.961 . S
C119 H135 0.961 . S
C120 C121 1.370 . S
C120 C122 1.363 . S
C120 H136 0.931 . S
C121 C120 1.370 . S
C121 C125 1.408 . S
C122 C120 1.363 . S
C122 C123 1.370 . S
C122 C126 1.524 1_554 S
C123 C115 1.503 1_554 S
C123 C122 1.370 . S
C123 C124 1.403 . S
C124 C123 1.403 . S
C124 C125 1.404 . S
C124 C127 1.539 . S
C125 C121 1.408 . S
C125 C124 1.404 . S
C125 H137 0.930 . S
C126 C122 1.524 1_556 S
C126 H138 0.956 . S
C126 H139 0.961 . S
C126 H140 0.961 . S
C127 C124 1.539 . S
C127 H141 0.958 . S
C127 H142 0.961 . S
C127 H143 0.960 . S
H128 C112 0.931 . S
H129 C117 0.929 . S
H130 C118 0.960 . S
H131 C118 0.962 . S
H132 C118 0.960 . S
H133 C119 0.961 . S
H134 C119 0.961 . S
H135 C119 0.961 . S
H136 C120 0.931 . S
H137 C125 0.930 . S
H138 C126 0.956 . S
H139 C126 0.961 . S
H140 C126 0.961 . S
H141 C127 0.958 . S
H142 C127 0.961 . S
H143 C127 0.960 . S
C144 C145 1.391 . S
C144 C146 1.394 . S
C144 H160 0.931 . S
C145 C144 1.391 . S
C145 C149 1.376 . S
C146 C144 1.394 . S
C146 C147 1.369 . S
C146 C150 1.531 . S
C147 C146 1.369 . S
C147 C148 1.410 . S
C147 C155 1.503 . S
C148 C147 1.410 . S
C148 C149 1.392 . S
C148 C151 1.511 . S
C149 C145 1.376 . S
C149 C148 1.392 . S
C149 H161 0.929 . S
C150 C146 1.531 . S
C150 H162 0.960 . S
C150 H163 0.962 . S
C150 H164 0.960 . S
C151 C148 1.511 . S
C151 H165 0.961 . S
C151 H166 0.961 . S
C151 H167 0.961 . S
C152 C153 1.370 . S
C152 C154 1.363 . S
C152 H168 0.931 . S
C153 C152 1.370 . S
C153 C157 1.408 . S
C154 C152 1.363 . S
C154 C155 1.370 . S
C154 C158 1.524 . S
C155 C147 1.503 . S
C155 C154 1.370 . S
C155 C156 1.403 . S
C156 C155 1.403 . S
C156 C157 1.404 . S
C156 C159 1.539 . S
C157 C153 1.408 . S
C157 C156 1.404 . S
C157 H169 0.930 . S
C158 C154 1.524 . S
C158 H170 0.956 . S
C158 H171 0.961 . S
C158 H172 0.961 . S
C159 C156 1.539 . S
C159 H173 0.958 . S
C159 H174 0.961 . S
C159 H175 0.960 . S
H160 C144 0.931 . S
H161 C149 0.929 . S
H162 C150 0.960 . S
H163 C150 0.962 . S
H164 C150 0.960 . S
H165 C151 0.961 . S
H166 C151 0.961 . S
H167 C151 0.961 . S
H168 C152 0.931 . S
H169 C157 0.930 . S
H170 C158 0.956 . S
H171 C158 0.961 . S
H172 C158 0.961 . S
H173 C159 0.958 . S
H174 C159 0.961 . S
H175 C159 0.960 . S
C176 C177 1.391 . S
C176 C178 1.394 . S
C176 H192 0.931 . S
C177 C176 1.391 . S
C177 C181 1.376 . S
C178 C176 1.394 . S
C178 C179 1.369 . S
C178 C182 1.531 . S
C179 C178 1.369 . S
C179 C180 1.410 . S
C179 C187 1.503 . S
C180 C179 1.410 . S
C180 C181 1.392 . S
C180 C183 1.511 . S
C181 C177 1.376 . S
C181 C180 1.392 . S
C181 H193 0.929 . S
C182 C178 1.531 . S
C182 H194 0.960 . S
C182 H195 0.962 . S
C182 H196 0.960 . S
C183 C180 1.511 . S
C183 H197 0.961 . S
C183 H198 0.961 . S
C183 H199 0.961 . S
C184 C185 1.370 . S
C184 C186 1.363 . S
C184 H200 0.931 . S
C185 C184 1.370 . S
C185 C189 1.408 . S
C186 C184 1.363 . S
C186 C187 1.370 . S
C186 C190 1.524 . S
C187 C179 1.503 . S
C187 C186 1.370 . S
C187 C188 1.403 . S
C188 C187 1.403 . S
C188 C189 1.404 . S
C188 C191 1.539 . S
C189 C185 1.408 . S
C189 C188 1.404 . S
C189 H201 0.930 . S
C190 C186 1.524 . S
C190 H202 0.956 . S
C190 H203 0.961 . S
C190 H204 0.961 . S
C191 C188 1.539 . S
C191 H205 0.958 . S
C191 H206 0.961 . S
C191 H207 0.960 . S
H192 C176 0.931 . S
H193 C181 0.929 . S
H194 C182 0.960 . S
H195 C182 0.962 . S
H196 C182 0.960 . S
H197 C183 0.961 . S
H198 C183 0.961 . S
H199 C183 0.961 . S
H200 C184 0.931 . S
H201 C189 0.930 . S
H202 C190 0.956 . S
H203 C190 0.961 . S
H204 C190 0.961 . S
H205 C191 0.958 . S
H206 C191 0.961 . S
H207 C191 0.960 . S
C208 C209 1.391 . S
C208 C210 1.394 . S
C208 H224 0.931 . S
C209 C208 1.391 . S
C209 C213 1.376 . S
C210 C208 1.394 . S
C210 C211 1.369 . S
C210 C214 1.531 . S
C211 C210 1.369 . S
C211 C212 1.410 . S
C211 C219 1.503 . S
C212 C211 1.410 . S
C212 C213 1.392 . S
C212 C215 1.511 . S
C213 C209 1.376 . S
C213 C212 1.392 . S
C213 H225 0.929 . S
C214 C210 1.531 . S
C214 H226 0.960 . S
C214 H227 0.962 . S
C214 H228 0.960 . S
C215 C212 1.511 . S
C215 H229 0.961 . S
C215 H230 0.961 . S
C215 H231 0.961 . S
C216 C217 1.370 . S
C216 C218 1.363 . S
C216 H232 0.931 . S
C217 C216 1.370 . S
C217 C221 1.408 . S
C218 C216 1.363 . S
C218 C219 1.370 . S
C218 C222 1.524 . S
C219 C211 1.503 . S
C219 C218 1.370 . S
C219 C220 1.403 . S
C220 C219 1.403 . S
C220 C221 1.404 . S
C220 C223 1.539 . S
C221 C217 1.408 . S
C221 C220 1.404 . S
C221 H233 0.930 . S
C222 C218 1.524 . S
C222 H234 0.956 . S
C222 H235 0.961 . S
C222 H236 0.961 . S
C223 C220 1.539 . S
C223 H237 0.958 . S
C223 H238 0.961 . S
C223 H239 0.960 . S
H224 C208 0.931 . S
H225 C213 0.929 . S
H226 C214 0.960 . S
H227 C214 0.962 . S
H228 C214 0.960 . S
H229 C215 0.961 . S
H230 C215 0.961 . S
H231 C215 0.961 . S
H232 C216 0.931 . S
H233 C221 0.930 . S
H234 C222 0.956 . S
H235 C222 0.961 . S
H236 C222 0.961 . S
H237 C223 0.958 . S
H238 C223 0.961 . S
H239 C223 0.960 . S
C240 C241 1.391 . S
C240 C242 1.394 . S
C240 H256 0.931 . S
C241 C240 1.391 . S
C241 C245 1.376 . S
C242 C240 1.394 . S
C242 C243 1.369 . S
C242 C246 1.531 . S
C243 C242 1.369 . S
C243 C244 1.410 . S
C243 C251 1.503 . S
C244 C243 1.410 . S
C244 C245 1.392 . S
C244 C247 1.511 . S
C245 C241 1.376 . S
C245 C244 1.392 . S
C245 H257 0.929 . S
C246 C242 1.531 . S
C246 H258 0.960 . S
C246 H259 0.962 . S
C246 H260 0.960 . S
C247 C244 1.511 . S
C247 H261 0.961 . S
C247 H262 0.961 . S
C247 H263 0.961 . S
C248 C249 1.370 . S
C248 C250 1.363 . S
C248 H264 0.931 . S
C249 C248 1.370 . S
C249 C253 1.408 . S
C250 C248 1.363 . S
C250 C251 1.370 . S
C250 C254 1.524 . S
C251 C243 1.503 . S
C251 C250 1.370 . S
C251 C252 1.403 . S
C252 C251 1.403 . S
C252 C253 1.404 . S
C252 C255 1.539 . S
C253 C249 1.408 . S
C253 C252 1.404 . S
C253 H265 0.930 . S
C254 C250 1.524 . S
C254 H266 0.956 . S
C254 H267 0.961 . S
C254 H268 0.961 . S
C255 C252 1.539 . S
C255 H269 0.958 . S
C255 H270 0.961 . S
C255 H271 0.960 . S
H256 C240 0.931 . S
H257 C245 0.929 . S
H258 C246 0.960 . S
H259 C246 0.962 . S
H260 C246 0.960 . S
H261 C247 0.961 . S
H262 C247 0.961 . S
H263 C247 0.961 . S
H264 C248 0.931 . S
H265 C253 0.930 . S
H266 C254 0.956 . S
H267 C254 0.961 . S
H268 C254 0.961 . S
H269 C255 0.958 . S
H270 C255 0.961 . S
H271 C255 0.960 . S
C272 C273 1.391 . S
C272 C274 1.394 . S
C272 H288 0.931 . S
C273 C272 1.391 . S
C273 C277 1.376 . S
C274 C272 1.394 . S
C274 C275 1.369 . S
C274 C278 1.531 . S
C275 C274 1.369 . S
C275 C276 1.410 . S
C275 C283 1.503 . S
C276 C275 1.410 . S
C276 C277 1.392 . S
C276 C279 1.511 . S
C277 C273 1.376 . S
C277 C276 1.392 . S
C277 H289 0.929 . S
C278 C274 1.531 . S
C278 H290 0.960 . S
C278 H291 0.962 . S
C278 H292 0.960 . S
C279 C276 1.511 . S
C279 H293 0.961 . S
C279 H294 0.961 . S
C279 H295 0.961 . S
C280 C281 1.370 . S
C280 C282 1.363 . S
C280 H296 0.931 . S
C281 C280 1.370 . S
C281 C285 1.408 . S
C282 C280 1.363 . S
C282 C283 1.370 . S
C282 C286 1.524 . S
C283 C275 1.503 . S
C283 C282 1.370 . S
C283 C284 1.403 . S
C284 C283 1.403 . S
C284 C285 1.404 . S
C284 C287 1.539 . S
C285 C281 1.408 . S
C285 C284 1.404 . S
C285 H297 0.930 . S
C286 C282 1.524 . S
C286 H298 0.956 . S
C286 H299 0.961 . S
C286 H300 0.961 . S
C287 C284 1.539 . S
C287 H301 0.958 . S
C287 H302 0.961 . S
C287 H303 0.960 . S
H288 C272 0.931 . S
H289 C277 0.929 . S
H290 C278 0.960 . S
H291 C278 0.962 . S
H292 C278 0.960 . S
H293 C279 0.961 . S
H294 C279 0.961 . S
H295 C279 0.961 . S
H296 C280 0.931 . S
H297 C285 0.930 . S
H298 C286 0.956 . S
H299 C286 0.961 . S
H300 C286 0.961 . S
H301 C287 0.958 . S
H302 C287 0.961 . S
H303 C287 0.960 . S
C304 C305 1.391 . S
C304 C306 1.394 . S
C304 H320 0.931 . S
C305 C304 1.391 . S
C305 C309 1.376 . S
C306 C304 1.394 . S
C306 C307 1.369 . S
C306 C310 1.531 1_554 S
C307 C306 1.369 . S
C307 C308 1.410 . S
C307 C315 1.503 1_554 S
C308 C307 1.410 . S
C308 C309 1.392 . S
C308 C311 1.511 . S
C309 C305 1.376 . S
C309 C308 1.392 . S
C309 H321 0.929 . S
C310 C306 1.531 1_556 S
C310 H322 0.960 . S
C310 H323 0.962 1_556 S
C310 H324 0.960 . S
C311 C308 1.511 . S
C311 H325 0.961 . S
C311 H326 0.961 . S
C311 H327 0.961 . S
C312 C313 1.370 . S
C312 C314 1.363 . S
C312 H328 0.931 . S
C313 C312 1.370 . S
C313 C317 1.408 . S
C314 C312 1.363 . S
C314 C315 1.370 . S
C314 C318 1.524 1_556 S
C315 C307 1.503 1_556 S
C315 C314 1.370 . S
C315 C316 1.403 . S
C316 C315 1.403 . S
C316 C317 1.404 . S
C316 C319 1.539 . S
C317 C313 1.408 . S
C317 C316 1.404 . S
C317 H329 0.930 . S
C318 C314 1.524 1_554 S
C318 H330 0.956 . S
C318 H331 0.961 . S
C318 H332 0.961 . S
C319 C316 1.539 . S
C319 H333 0.958 . S
C319 H334 0.961 . S
C319 H335 0.960 . S
H320 C304 0.931 . S
H321 C309 0.929 . S
H322 C310 0.960 . S
H323 C310 0.962 1_554 S
H324 C310 0.960 . S
H325 C311 0.961 . S
H326 C311 0.961 . S
H327 C311 0.961 . S
H328 C312 0.931 . S
H329 C317 0.930 . S
H330 C318 0.956 . S
H331 C318 0.961 . S
H332 C318 0.961 . S
H333 C319 0.958 . S
H334 C319 0.961 . S
H335 C319 0.960 . S
C336 C337 1.391 . S
C336 C338 1.394 . S
C336 H352 0.931 1_554 S
C337 C336 1.391 . S
C337 C341 1.376 . S
C338 C336 1.394 . S
C338 C339 1.369 . S
C338 C342 1.531 . S
C339 C338 1.369 . S
C339 C340 1.410 . S
C339 C347 1.503 . S
C340 C339 1.410 . S
C340 C341 1.392 . S
C340 C343 1.511 . S
C341 C337 1.376 . S
C341 C340 1.392 . S
C341 H353 0.929 . S
C342 C338 1.531 . S
C342 H354 0.960 . S
C342 H355 0.962 . S
C342 H356 0.960 . S
C343 C340 1.511 . S
C343 H357 0.961 . S
C343 H358 0.961 . S
C343 H359 0.961 . S
C344 C345 1.370 . S
C344 C346 1.363 . S
C344 H360 0.931 . S
C345 C344 1.370 . S
C345 C349 1.408 . S
C346 C344 1.363 . S
C346 C347 1.370 . S
C346 C350 1.524 . S
C347 C339 1.503 . S
C347 C346 1.370 . S
C347 C348 1.403 . S
C348 C347 1.403 . S
C348 C349 1.404 . S
C348 C351 1.539 . S
C349 C345 1.408 . S
C349 C348 1.404 . S
C349 H361 0.930 . S
C350 C346 1.524 . S
C350 H362 0.956 . S
C350 H363 0.961 . S
C350 H364 0.961 . S
C351 C348 1.539 . S
C351 H365 0.958 . S
C351 H366 0.961 . S
C351 H367 0.960 . S
H352 C336 0.931 1_556 S
H353 C341 0.929 . S
H354 C342 0.960 . S
H355 C342 0.962 . S
H356 C342 0.960 . S
H357 C343 0.961 . S
H358 C343 0.961 . S
H359 C343 0.961 . S
H360 C344 0.931 . S
H361 C349 0.930 . S
H362 C350 0.956 . S
H363 C350 0.961 . S
H364 C350 0.961 . S
H365 C351 0.958 . S
H366 C351 0.961 . S
H367 C351 0.960 . S
C368 C369 1.391 . S
C368 C370 1.394 . S
C368 H384 0.931 . S
C369 C368 1.391 . S
C369 C373 1.376 . S
C370 C368 1.394 . S
C370 C371 1.369 . S
C370 C374 1.531 . S
C371 C370 1.369 . S
C371 C372 1.410 . S
C371 C379 1.503 . S
C372 C371 1.410 . S
C372 C373 1.392 . S
C372 C375 1.511 . S
C373 C369 1.376 . S
C373 C372 1.392 . S
C373 H385 0.929 . S
C374 C370 1.531 . S
C374 H386 0.960 . S
C374 H387 0.962 . S
C374 H388 0.960 . S
C375 C372 1.511 . S
C375 H389 0.961 . S
C375 H390 0.961 . S
C375 H391 0.961 . S
C376 C377 1.370 . S
C376 C378 1.363 . S
C376 H392 0.931 . S
C377 C376 1.370 . S
C377 C381 1.408 . S
C378 C376 1.363 . S
C378 C379 1.370 . S
C378 C382 1.524 . S
C379 C371 1.503 . S
C379 C378 1.370 . S
C379 C380 1.403 . S
C380 C379 1.403 . S
C380 C381 1.404 . S
C380 C383 1.539 . S
C381 C377 1.408 . S
C381 C380 1.404 . S
C381 H393 0.930 . S
C382 C378 1.524 . S
C382 H394 0.956 . S
C382 H395 0.961 . S
C382 H396 0.961 . S
C383 C380 1.539 . S
C383 H397 0.958 . S
C383 H398 0.961 . S
C383 H399 0.960 . S
H384 C368 0.931 . S
H385 C373 0.929 . S
H386 C374 0.960 . S
H387 C374 0.962 . S
H388 C374 0.960 . S
H389 C375 0.961 . S
H390 C375 0.961 . S
H391 C375 0.961 . S
H392 C376 0.931 . S
H393 C381 0.930 . S
H394 C382 0.956 . S
H395 C382 0.961 . S
H396 C382 0.961 . S
H397 C383 0.958 . S
H398 C383 0.961 . S
H399 C383 0.960 . S
C400 C401 1.391 . S
C400 C402 1.394 . S
C400 H416 0.931 . S
C401 C400 1.391 . S
C401 C405 1.376 . S
C402 C400 1.394 . S
C402 C403 1.369 . S
C402 C406 1.531 . S
C403 C402 1.369 . S
C403 C404 1.410 . S
C403 C411 1.503 . S
C404 C403 1.410 . S
C404 C405 1.392 . S
C404 C407 1.511 . S
C405 C401 1.376 . S
C405 C404 1.392 . S
C405 H417 0.929 1_565 S
C406 C402 1.531 . S
C406 H418 0.960 . S
C406 H419 0.962 . S
C406 H420 0.960 . S
C407 C404 1.511 . S
C407 H421 0.961 . S
C407 H422 0.961 . S
C407 H423 0.961 . S
C408 C409 1.370 . S
C408 C410 1.363 . S
C408 H424 0.931 . S
C409 C408 1.370 . S
C409 C413 1.408 . S
C410 C408 1.363 . S
C410 C411 1.370 . S
C410 C414 1.524 . S
C411 C403 1.503 . S
C411 C410 1.370 . S
C411 C412 1.403 . S
C412 C411 1.403 . S
C412 C413 1.404 . S
C412 C415 1.539 . S
C413 C409 1.408 . S
C413 C412 1.404 . S
C413 H425 0.930 . S
C414 C410 1.524 . S
C414 H426 0.956 . S
C414 H427 0.961 . S
C414 H428 0.961 . S
C415 C412 1.539 . S
C415 H429 0.958 . S
C415 H430 0.961 . S
C415 H431 0.960 . S
H416 C400 0.931 . S
H417 C405 0.929 1_545 S
H418 C406 0.960 . S
H419 C406 0.962 . S
H420 C406 0.960 . S
H421 C407 0.961 . S
H422 C407 0.961 . S
H423 C407 0.961 . S
H424 C408 0.931 . S
H425 C413 0.930 . S
H426 C414 0.956 . S
H427 C414 0.961 . S
H428 C414 0.961 . S
H429 C415 0.958 . S
H430 C415 0.961 . S
H431 C415 0.960 . S
C432 C433 1.391 . S
C432 C434 1.394 1_554 S
C432 H448 0.931 1_454 S
C433 C432 1.391 . S
C433 C437 1.376 . S
C434 C432 1.394 1_556 S
C434 C435 1.369 . S
C434 C438 1.531 . S
C435 C434 1.369 . S
C435 C436 1.410 1_556 S
C435 C443 1.503 . S
C436 C435 1.410 1_554 S
C436 C437 1.392 . S
C436 C439 1.511 . S
C437 C433 1.376 . S
C437 C436 1.392 . S
C437 H449 0.929 . S
C438 C434 1.531 . S
C438 H450 0.960 . S
C438 H451 0.962 . S
C438 H452 0.960 . S
C439 C436 1.511 . S
C439 H453 0.961 . S
C439 H454 0.961 . S
C439 H455 0.961 1_554 S
C440 C441 1.370 1_554 S
C440 C442 1.363 . S
C440 H456 0.931 . S
C441 C440 1.370 1_556 S
C441 C445 1.408 . S
C442 C440 1.363 . S
C442 C443 1.370 1_554 S
C442 C446 1.524 . S
C443 C435 1.503 . S
C443 C442 1.370 1_556 S
C443 C444 1.403 . S
C444 C443 1.403 . S
C444 C445 1.404 . S
C444 C447 1.539 . S
C445 C441 1.408 . S
C445 C444 1.404 . S
C445 H457 0.930 . S
C446 C442 1.524 . S
C446 H458 0.956 . S
C446 H459 0.961 . S
C446 H460 0.961 . S
C447 C444 1.539 . S
C447 H461 0.958 . S
C447 H462 0.961 . S
C447 H463 0.960 . S
H448 C432 0.931 1_656 S
H449 C437 0.929 . S
H450 C438 0.960 . S
H451 C438 0.962 . S
H452 C438 0.960 . S
H453 C439 0.961 . S
H454 C439 0.961 . S
H455 C439 0.961 1_556 S
H456 C440 0.931 . S
H457 C445 0.930 . S
H458 C446 0.956 . S
H459 C446 0.961 . S
H460 C446 0.961 . S
H461 C447 0.958 . S
H462 C447 0.961 . S
H463 C447 0.960 . S
C464 C465 1.391 . S
C464 C466 1.394 . S
C464 H480 0.931 . S
C465 C464 1.391 . S
C465 C469 1.376 . S
C466 C464 1.394 . S
C466 C467 1.369 . S
C466 C470 1.531 . S
C467 C466 1.369 . S
C467 C468 1.410 . S
C467 C475 1.503 . S
C468 C467 1.410 . S
C468 C469 1.392 . S
C468 C471 1.511 . S
C469 C465 1.376 . S
C469 C468 1.392 . S
C469 H481 0.929 . S
C470 C466 1.531 . S
C470 H482 0.960 . S
C470 H483 0.962 . S
C470 H484 0.960 . S
C471 C468 1.511 . S
C471 H485 0.961 . S
C471 H486 0.961 . S
C471 H487 0.961 . S
C472 C473 1.370 . S
C472 C474 1.363 . S
C472 H488 0.931 . S
C473 C472 1.370 . S
C473 C477 1.408 . S
C474 C472 1.363 . S
C474 C475 1.370 . S
C474 C478 1.524 . S
C475 C467 1.503 . S
C475 C474 1.370 . S
C475 C476 1.403 . S
C476 C475 1.403 . S
C476 C477 1.404 . S
C476 C479 1.539 . S
C477 C473 1.408 . S
C477 C476 1.404 . S
C477 H489 0.930 . S
C478 C474 1.524 . S
C478 H490 0.956 . S
C478 H491 0.961 . S
C478 H492 0.961 . S
C479 C476 1.539 . S
C479 H493 0.958 . S
C479 H494 0.961 . S
C479 H495 0.960 . S
H480 C464 0.931 . S
H481 C469 0.929 . S
H482 C470 0.960 . S
H483 C470 0.962 . S
H484 C470 0.960 . S
H485 C471 0.961 . S
H486 C471 0.961 . S
H487 C471 0.961 . S
H488 C472 0.931 . S
H489 C477 0.930 . S
H490 C478 0.956 . S
H491 C478 0.961 . S
H492 C478 0.961 . S
H493 C479 0.958 . S
H494 C479 0.961 . S
H495 C479 0.960 . S
C496 C497 1.391 . S
C496 C498 1.394 . S
C496 H512 0.931 . S
C497 C496 1.391 . S
C497 C501 1.376 . S
C498 C496 1.394 . S
C498 C499 1.369 . S
C498 C502 1.531 . S
C499 C498 1.369 . S
C499 C500 1.410 . S
C499 C507 1.503 . S
C500 C499 1.410 . S
C500 C501 1.392 . S
C500 C503 1.511 . S
C501 C497 1.376 . S
C501 C500 1.392 . S
C501 H513 0.929 . S
C502 C498 1.531 . S
C502 H514 0.960 . S
C502 H515 0.962 . S
C502 H516 0.960 . S
C503 C500 1.511 . S
C503 H517 0.961 . S
C503 H518 0.961 . S
C503 H519 0.961 . S
C504 C505 1.370 . S
C504 C506 1.363 . S
C504 H520 0.931 . S
C505 C504 1.370 . S
C505 C509 1.408 . S
C506 C504 1.363 . S
C506 C507 1.370 . S
C506 C510 1.524 . S
C507 C499 1.503 . S
C507 C506 1.370 . S
C507 C508 1.403 . S
C508 C507 1.403 . S
C508 C509 1.404 . S
C508 C511 1.539 . S
C509 C505 1.408 . S
C509 C508 1.404 . S
C509 H521 0.930 . S
C510 C506 1.524 . S
C510 H522 0.956 . S
C510 H523 0.961 . S
C510 H524 0.961 . S
C511 C508 1.539 . S
C511 H525 0.958 . S
C511 H526 0.961 . S
C511 H527 0.960 . S
H512 C496 0.931 . S
H513 C501 0.929 . S
H514 C502 0.960 . S
H515 C502 0.962 . S
H516 C502 0.960 . S
H517 C503 0.961 . S
H518 C503 0.961 . S
H519 C503 0.961 . S
H520 C504 0.931 . S
H521 C509 0.930 . S
H522 C510 0.956 . S
H523 C510 0.961 . S
H524 C510 0.961 . S
H525 C511 0.958 . S
H526 C511 0.961 . S
H527 C511 0.960 . S
C528 C529 1.391 . S
C528 C530 1.394 1_556 S
C528 H544 0.931 1_566 S
C529 C528 1.391 . S
C529 C533 1.376 . S
C530 C528 1.394 1_554 S
C530 C531 1.369 . S
C530 C534 1.531 . S
C531 C530 1.369 . S
C531 C532 1.410 1_554 S
C531 C539 1.503 . S
C532 C531 1.410 1_556 S
C532 C533 1.392 . S
C532 C535 1.511 . S
C533 C529 1.376 . S
C533 C532 1.392 . S
C533 H545 0.929 . S
C534 C530 1.531 . S
C534 H546 0.960 . S
C534 H547 0.962 . S
C534 H548 0.960 . S
C535 C532 1.511 . S
C535 H549 0.961 . S
C535 H550 0.961 . S
C535 H551 0.961 1_556 S
C536 C537 1.370 1_556 S
C536 C538 1.363 . S
C536 H552 0.931 . S
C537 C536 1.370 1_554 S
C537 C541 1.408 . S
C538 C536 1.363 . S
C538 C539 1.370 1_556 S
C538 C542 1.524 . S
C539 C531 1.503 . S
C539 C538 1.370 1_554 S
C539 C540 1.403 . S
C540 C539 1.403 . S
C540 C541 1.404 . S
C540 C543 1.539 . S
C541 C537 1.408 . S
C541 C540 1.404 . S
C541 H553 0.930 . S
C542 C538 1.524 . S
C542 H554 0.956 . S
C542 H555 0.961 . S
C542 H556 0.961 . S
C543 C540 1.539 . S
C543 H557 0.958 . S
C543 H558 0.961 . S
C543 H559 0.960 . S
H544 C528 0.931 1_544 S
H545 C533 0.929 . S
H546 C534 0.960 . S
H547 C534 0.962 . S
H548 C534 0.960 . S
H549 C535 0.961 . S
H550 C535 0.961 . S
H551 C535 0.961 1_554 S
H552 C536 0.931 . S
H553 C541 0.930 . S
H554 C542 0.956 . S
H555 C542 0.961 . S
H556 C542 0.961 . S
H557 C543 0.958 . S
H558 C543 0.961 . S
H559 C543 0.960 . S
C560 C561 1.391 . S
C560 C562 1.394 . S
C560 H576 0.931 . S
C561 C560 1.391 . S
C561 C565 1.376 . S
C562 C560 1.394 . S
C562 C563 1.369 . S
C562 C566 1.531 . S
C563 C562 1.369 . S
C563 C564 1.410 . S
C563 C571 1.503 . S
C564 C563 1.410 . S
C564 C565 1.392 . S
C564 C567 1.511 . S
C565 C561 1.376 . S
C565 C564 1.392 . S
C565 H577 0.929 1_455 S
C566 C562 1.531 . S
C566 H578 0.960 . S
C566 H579 0.962 . S
C566 H580 0.960 . S
C567 C564 1.511 . S
C567 H581 0.961 . S
C567 H582 0.961 . S
C567 H583 0.961 . S
C568 C569 1.370 . S
C568 C570 1.363 . S
C568 H584 0.931 . S
C569 C568 1.370 . S
C569 C573 1.408 . S
C570 C568 1.363 . S
C570 C571 1.370 . S
C570 C574 1.524 . S
C571 C563 1.503 . S
C571 C570 1.370 . S
C571 C572 1.403 . S
C572 C571 1.403 . S
C572 C573 1.404 . S
C572 C575 1.539 . S
C573 C569 1.408 . S
C573 C572 1.404 . S
C573 H585 0.930 . S
C574 C570 1.524 . S
C574 H586 0.956 . S
C574 H587 0.961 . S
C574 H588 0.961 . S
C575 C572 1.539 . S
C575 H589 0.958 . S
C575 H590 0.961 . S
C575 H591 0.960 . S
H576 C560 0.931 . S
H577 C565 0.929 1_655 S
H578 C566 0.960 . S
H579 C566 0.962 . S
H580 C566 0.960 . S
H581 C567 0.961 . S
H582 C567 0.961 . S
H583 C567 0.961 . S
H584 C568 0.931 . S
H585 C573 0.930 . S
H586 C574 0.956 . S
H587 C574 0.961 . S
H588 C574 0.961 . S
H589 C575 0.958 . S
H590 C575 0.961 . S
H591 C575 0.960 . S
C592 C593 1.391 . S
C592 C594 1.394 . S
C592 H608 0.931 . S
C593 C592 1.391 . S
C593 C597 1.376 . S
C594 C592 1.394 . S
C594 C595 1.369 . S
C594 C598 1.531 . S
C595 C594 1.369 . S
C595 C596 1.410 . S
C595 C603 1.503 . S
C596 C595 1.410 . S
C596 C597 1.392 . S
C596 C599 1.511 . S
C597 C593 1.376 . S
C597 C596 1.392 . S
C597 H609 0.929 . S
C598 C594 1.531 . S
C598 H610 0.960 . S
C598 H611 0.962 . S
C598 H612 0.960 . S
C599 C596 1.511 . S
C599 H613 0.961 . S
C599 H614 0.961 . S
C599 H615 0.961 . S
C600 C601 1.370 . S
C600 C602 1.363 . S
C600 H616 0.931 . S
C601 C600 1.370 . S
C601 C605 1.408 . S
C602 C600 1.363 . S
C602 C603 1.370 . S
C602 C606 1.524 . S
C603 C595 1.503 . S
C603 C602 1.370 . S
C603 C604 1.403 . S
C604 C603 1.403 . S
C604 C605 1.404 . S
C604 C607 1.539 . S
C605 C601 1.408 . S
C605 C604 1.404 . S
C605 H617 0.930 . S
C606 C602 1.524 . S
C606 H618 0.956 . S
C606 H619 0.961 . S
C606 H620 0.961 . S
C607 C604 1.539 . S
C607 H621 0.958 . S
C607 H622 0.961 . S
C607 H623 0.960 . S
H608 C592 0.931 . S
H609 C597 0.929 . S
H610 C598 0.960 . S
H611 C598 0.962 . S
H612 C598 0.960 . S
H613 C599 0.961 . S
H614 C599 0.961 . S
H615 C599 0.961 . S
H616 C600 0.931 . S
H617 C605 0.930 . S
H618 C606 0.956 . S
H619 C606 0.961 . S
H620 C606 0.961 . S
H621 C607 0.958 . S
H622 C607 0.961 . S
H623 C607 0.960 . S
C113 C25 1.458 . S
C121 C11 1.455 . S
C145 C21 1.415 . S
C153 C39 1.415 . S
C177 C49 1.366 . S
C185 C35 1.373 . S
C209 C53 1.415 . S
C217 C7 1.407 . S
C241 C67 1.458 . S
C249 C81 1.454 . S
C273 C77 1.401 . S
C281 C95 1.417 . S
C305 C91 1.350 . S
C313 C105 1.376 . S
C337 C63 1.392 . S
C345 C109 1.416 . S
C369 C13 1.352 . S
C377 C106 1.399 . S
C401 C64 1.510 . S
C409 C22 1.549 . S
C433 C83 1.351 . S
C441 C36 1.398 . S
C465 C55 1.294 . S
C473 C97 1.258 . S
C497 C41 1.294 . S
C505 C111 1.259 . S
C529 C69 1.352 . S
C537 C50 1.398 . S
C561 C78 1.534 . S
C569 C8 1.556 . S
C593 C27 1.345 . S
C601 C92 1.397 . S
