# Generated by pormake.
# Topology sml, (6)-cn, num edge types: 1
# Building blocks:
#     Node 0, Type 0, BuildingBlock: GEDQOX_clean_sbu_0, # of connection points: 6
#     Node 1, Type 0, BuildingBlock: GEDQOX_clean_sbu_0, # of connection points: 6
#     Node 2, Type 0, BuildingBlock: GEDQOX_clean_sbu_0, # of connection points: 6
#     Node 3, Type 0, BuildingBlock: GEDQOX_clean_sbu_0, # of connection points: 6
#     Node 4, Type 0, BuildingBlock: GEDQOX_clean_sbu_0, # of connection points: 6
#     Node 5, Type 0, BuildingBlock: GEDQOX_clean_sbu_0, # of connection points: 6
#     Edge 6, Type (0, 0), BuildingBlock: KIFKEQ_clean_linker_1, # of connection points: 2
#     Edge 7, Type (0, 0), BuildingBlock: KIFKEQ_clean_linker_1, # of connection points: 2
#     Edge 8, Type (0, 0), BuildingBlock: KIFKEQ_clean_linker_1, # of connection points: 2
#     Edge 9, Type (0, 0), BuildingBlock: KIFKEQ_clean_linker_1, # of connection points: 2
#     Edge 10, Type (0, 0), BuildingBlock: KIFKEQ_clean_linker_1, # of connection points: 2
#     Edge 11, Type (0, 0), BuildingBlock: KIFKEQ_clean_linker_1, # of connection points: 2
#     Edge 12, Type (0, 0), BuildingBlock: KIFKEQ_clean_linker_1, # of connection points: 2
#     Edge 13, Type (0, 0), BuildingBlock: KIFKEQ_clean_linker_1, # of connection points: 2
#     Edge 14, Type (0, 0), BuildingBlock: KIFKEQ_clean_linker_1, # of connection points: 2
#     Edge 15, Type (0, 0), BuildingBlock: KIFKEQ_clean_linker_1, # of connection points: 2
#     Edge 16, Type (0, 0), BuildingBlock: KIFKEQ_clean_linker_1, # of connection points: 2
#     Edge 17, Type (0, 0), BuildingBlock: KIFKEQ_clean_linker_1, # of connection points: 2
#     Edge 18, Type (0, 0), BuildingBlock: KIFKEQ_clean_linker_1, # of connection points: 2
#     Edge 19, Type (0, 0), BuildingBlock: KIFKEQ_clean_linker_1, # of connection points: 2
#     Edge 20, Type (0, 0), BuildingBlock: KIFKEQ_clean_linker_1, # of connection points: 2
#     Edge 21, Type (0, 0), BuildingBlock: KIFKEQ_clean_linker_1, # of connection points: 2
#     Edge 22, Type (0, 0), BuildingBlock: KIFKEQ_clean_linker_1, # of connection points: 2
#     Edge 23, Type (0, 0), BuildingBlock: KIFKEQ_clean_linker_1, # of connection points: 2
# Relax obj value: 0.234
# Max RMSD: 0.230
# Mean RMSD: 0.230
data_MOF--net-sml--node1-GEDQOX_clean_sbu_0--edge1-KIFKEQ_clean_linker_1
_symmetry_space_group_name_H-M    P1
_symmetry_Int_Tables_number       1
_symmetry_cell_setting            triclinic
loop_
_symmetry_equiv_pos_as_xyz
'x, y, z'
_cell_length_a     54.300274
_cell_length_b     53.987854
_cell_length_c     15.850126
_cell_angle_alpha  89.666114
_cell_angle_beta   90.271206
_cell_angle_gamma 120.19834
loop_
_atom_site_label
_atom_site_type_symbol
_atom_site_fract_x
_atom_site_fract_y
_atom_site_fract_z
_atom_type_partial_charge
Nd0 Nd 0.23191 0.41155 1.02267 0.0
Nd1 Nd 0.2141 0.45891 0.0282 0.0
C2 C 0.26284 0.38692 0.99698 0.0
C3 C 0.26682 0.36713 0.94109 0.0
C4 C 0.29 0.37845 0.88524 0.0
C5 C 0.29764 0.36056 0.8435 0.0
C6 C 0.28222 0.33063 0.85588 0.0
C7 C 0.25758 0.31915 0.90679 0.0
C8 C 0.25013 0.33717 0.94947 0.0
C9 C 0.17277 0.38478 1.02244 0.0
C10 C 0.21473 0.4323 0.84691 0.0
C11 C 0.1919 0.49203 0.05893 0.0
C12 C 0.19281 0.5144 0.11546 0.0
C13 C 0.16776 0.5096 0.15583 0.0
C14 C 0.16684 0.53187 0.19829 0.0
C15 C 0.19106 0.55941 0.20195 0.0
C16 C 0.21647 0.56387 0.1648 0.0
C17 C 0.21733 0.5417 0.1218 0.0
C18 C 0.27103 0.47876 0.99826 0.0
C19 C 0.22742 0.43531 0.20785 0.0
O20 O 0.26937 0.41208 0.9662 0.0
O21 O 0.24094 0.37633 0.04822 0.0
O22 O 0.18681 0.37118 1.02055 0.0
O23 O 0.19038 0.41134 1.02255 0.0
O24 O 0.22943 0.42166 0.88276 0.0
O25 O 0.20255 0.44402 0.89079 0.0
O26 O 0.18062 0.46569 0.08706 0.0
O27 O 0.2137 0.49931 1.0094 0.0
O28 O 0.25642 0.48908 0.96368 0.0
O29 O 0.25576 0.45939 0.05118 0.0
O30 O 0.22045 0.45278 0.16927 0.0
O31 O 0.23367 0.41796 0.16637 0.0
H32 H 0.30332 0.40142 0.87723 0.0
H33 H 0.31682 0.37061 0.80581 0.0
H34 H 0.24446 0.29625 0.91621 0.0
H35 H 0.23195 0.32762 0.99145 0.0
H36 H 0.14854 0.48882 0.15193 0.0
H37 H 0.14706 0.52767 0.22717 0.0
H38 H 0.23545 0.58488 0.16597 0.0
H39 H 0.23698 0.54629 0.09118 0.0
Nd40 Nd 0.83147 0.23039 0.35654 0.0
Nd41 Nd 0.76228 0.21054 0.36772 0.0
C42 C 0.8873 0.26037 0.33243 0.0
C43 C 0.91098 0.26506 0.27493 0.0
C44 C 0.9185 0.2841 0.20614 0.0
C45 C 0.9441 0.29332 0.16274 0.0
C46 C 0.96294 0.28379 0.18679 0.0
C47 C 0.95438 0.26297 0.25106 0.0
C48 C 0.92878 0.25384 0.29495 0.0
C49 C 0.79555 0.17112 0.35837 0.0
C50 C 0.79289 0.21568 0.1826 0.0
C51 C 0.70674 0.18101 0.39512 0.0
C52 C 0.68499 0.18379 0.44416 0.0
C53 C 0.66665 0.16164 0.49907 0.0
C54 C 0.64474 0.16299 0.54171 0.0
C55 C 0.64085 0.18667 0.53078 0.0
C56 C 0.65976 0.20918 0.47751 0.0
C57 C 0.68154 0.20778 0.43478 0.0
C58 C 0.79654 0.2696 0.3657 0.0
C59 C 0.80156 0.22522 0.54168 0.0
O60 O 0.86966 0.26879 0.30674 0.0
O61 O 0.87489 0.23693 0.3784 0.0
O62 O 0.8231 0.1834 0.35215 0.0
O63 O 0.78917 0.19048 0.36011 0.0
O64 O 0.81833 0.22732 0.21862 0.0
O65 O 0.7686 0.20559 0.22535 0.0
O66 O 0.72505 0.17686 0.43825 0.0
O67 O 0.71827 0.19818 0.33004 0.0
O68 O 0.76895 0.25633 0.37117 0.0
O69 O 0.80448 0.25124 0.36363 0.0
O70 O 0.77612 0.2145 0.50595 0.0
O71 O 0.82566 0.23432 0.49905 0.0
H72 H 0.90533 0.29308 0.18829 0.0
H73 H 0.94972 0.30887 0.11232 0.0
H74 H 0.9683 0.25511 0.27117 0.0
H75 H 0.92369 0.23915 0.34749 0.0
H76 H 0.66899 0.14302 0.50801 0.0
H77 H 0.63082 0.14548 0.58304 0.0
H78 H 0.65724 0.22762 0.46686 0.0
H79 H 0.69536 0.22532 0.39335 0.0
Nd80 Nd 0.6095 0.82745 0.68969 0.0
Nd81 Nd 0.56453 0.76402 0.6994 0.0
C82 C 0.64609 0.88265 0.66152 0.0
C83 C 0.66132 0.90768 0.60433 0.0
C84 C 0.64695 0.91678 0.54949 0.0
C85 C 0.66194 0.94337 0.50778 0.0
C86 C 0.69137 0.96138 0.52132 0.0
C87 C 0.70586 0.95145 0.57217 0.0
C88 C 0.69103 0.92483 0.6127 0.0
C89 C 0.62963 0.79094 0.72704 0.0
C90 C 0.58543 0.79159 0.51212 0.0
C91 C 0.53787 0.70814 0.7298 0.0
C92 C 0.51283 0.6863 0.7781 0.0
C93 C 0.5155 0.66615 0.82773 0.0
C94 C 0.4918 0.644 0.86908 0.0
C95 C 0.46476 0.64144 0.86198 0.0
C96 C 0.46237 0.66238 0.81489 0.0
C97 C 0.48611 0.68455 0.77344 0.0
C98 C 0.53434 0.79245 0.6925 0.0
C99 C 0.58615 0.80217 0.87385 0.0
O100 O 0.61909 0.87258 0.67848 0.0
O101 O 0.65324 0.8629 0.66071 0.0
O102 O 0.63694 0.8144 0.76769 0.0
O103 O 0.61146 0.78671 0.67048 0.0
O104 O 0.59992 0.8168 0.54899 0.0
O105 O 0.57155 0.76742 0.55553 0.0
O106 O 0.55987 0.72681 0.77364 0.0
O107 O 0.53298 0.71946 0.66298 0.0
O108 O 0.52349 0.76517 0.70166 0.0
O109 O 0.56137 0.80506 0.69147 0.0
O110 O 0.57642 0.77687 0.83863 0.0
O111 O 0.59672 0.82588 0.82842 0.0
H112 H 0.62407 0.90399 0.54163 0.0
H113 H 0.65028 0.95059 0.46898 0.0
H114 H 0.72855 0.96482 0.58317 0.0
H115 H 0.70264 0.91829 0.65434 0.0
H116 H 0.53591 0.66722 0.83325 0.0
H117 H 0.49463 0.62867 0.90604 0.0
H118 H 0.44192 0.66109 0.80749 0.0
H119 H 0.48339 0.69992 0.73636 0.0
Nd120 Nd 0.7901 0.60739 0.02806 0.0
Nd121 Nd 0.81074 0.56313 0.03307 0.0
C122 C 0.77026 0.64274 0.99945 0.0
C123 C 0.76154 0.65813 0.93921 0.0
C124 C 0.73599 0.64404 0.89302 0.0
C125 C 0.72569 0.65986 0.85005 0.0
C126 C 0.74067 0.69008 0.85266 0.0
C127 C 0.76736 0.70396 0.89335 0.0
C128 C 0.77753 0.68821 0.93641 0.0
C129 C 0.8474 0.62962 0.05947 0.0
C130 C 0.80218 0.58455 0.84951 0.0
C131 C 0.84032 0.53704 0.06192 0.0
C132 C 0.83743 0.51174 0.10898 0.0
C133 C 0.86028 0.51471 0.1586 0.0
C134 C 0.85914 0.49083 0.19828 0.0
C135 C 0.83491 0.46347 0.19023 0.0
C136 C 0.81152 0.46065 0.14358 0.0
C137 C 0.8128 0.48449 0.10299 0.0
C138 C 0.75178 0.53216 0.02835 0.0
C139 C 0.7949 0.58442 0.20902 0.0
O140 O 0.75364 0.61521 1.01327 0.0
O141 O 0.79731 0.65095 1.00386 0.0
O142 O 0.83136 0.6371 0.09912 0.0
O143 O 0.8331 0.61054 1.00525 0.0
O144 O 0.78903 0.59606 0.8889 0.0
O145 O 0.81561 0.57342 0.89089 0.0
O146 O 0.84329 0.55867 0.10682 0.0
O147 O 0.82427 0.53228 0.995 0.0
O148 O 0.76814 0.52126 0.0334 0.0
O149 O 0.76677 0.55922 0.02909 0.0
O150 O 0.81088 0.57587 0.17096 0.0
O151 O 0.77994 0.5934 0.16613 0.0
H152 H 0.72325 0.62088 0.89343 0.0
H153 H 0.70511 0.6483 0.81938 0.0
H154 H 0.77999 0.72713 0.89495 0.0
H155 H 0.79736 0.69972 0.97117 0.0
H156 H 0.87936 0.53549 0.16522 0.0
H157 H 0.8773 0.49371 0.23479 0.0
H158 H 0.79258 0.4398 0.13625 0.0
H159 H 0.79471 0.48147 0.06582 0.0
Nd160 Nd 0.18932 0.78787 0.3574 0.0
Nd161 Nd 0.25942 0.81106 0.36446 0.0
C162 C 0.13369 0.75662 0.33141 0.0
C163 C 0.1102 0.75288 0.27412 0.0
C164 C 0.10348 0.73578 0.20151 0.0
C165 C 0.07816 0.72743 0.15698 0.0
C166 C 0.05875 0.73576 0.1841 0.0
C167 C 0.0666 0.75478 0.25267 0.0
C168 C 0.09197 0.76315 0.29727 0.0
C169 C 0.22306 0.84757 0.35973 0.0
C170 C 0.22716 0.80318 0.18149 0.0
C171 C 0.315 0.84124 0.39107 0.0
C172 C 0.33688 0.83851 0.44046 0.0
C173 C 0.35619 0.8613 0.49162 0.0
C174 C 0.37811 0.85992 0.53479 0.0
C175 C 0.38099 0.83555 0.5284 0.0
C176 C 0.36108 0.81237 0.47924 0.0
C177 C 0.33932 0.81382 0.4357 0.0
C178 C 0.22655 0.7516 0.36824 0.0
C179 C 0.22108 0.7958 0.53989 0.0
O180 O 0.15208 0.74974 0.3027 0.0
O181 O 0.14525 0.77885 0.38186 0.0
O182 O 0.19536 0.83381 0.36112 0.0
O183 O 0.23063 0.82913 0.35302 0.0
O184 O 0.20202 0.79029 0.21929 0.0
O185 O 0.2519 0.81568 0.22287 0.0
O186 O 0.29661 0.84508 0.43408 0.0
O187 O 0.3035 0.82415 0.32611 0.0
O188 O 0.25417 0.76558 0.37115 0.0
O189 O 0.21816 0.7695 0.3656 0.0
O190 O 0.24621 0.80958 0.5021 0.0
O191 O 0.19642 0.78286 0.49843 0.0
H192 H 0.11707 0.72763 0.18117 0.0
H193 H 0.07325 0.71343 0.10317 0.0
H194 H 0.0523 0.76173 0.27553 0.0
H195 H 0.09649 0.77642 0.35268 0.0
H196 H 0.35458 0.88043 0.49717 0.0
H197 H 0.39284 0.87794 0.57303 0.0
H198 H 0.36282 0.79334 0.47253 0.0
H199 H 0.32468 0.79577 0.39739 0.0
Nd200 Nd 0.41118 0.19168 0.69235 0.0
Nd201 Nd 0.45631 0.25571 0.7005 0.0
C202 C 0.37462 0.13652 0.66468 0.0
C203 C 0.36061 0.11153 0.60731 0.0
C204 C 0.37609 0.10363 0.55405 0.0
C205 C 0.36224 0.07745 0.51054 0.0
C206 C 0.33266 0.05863 0.51955 0.0
C207 C 0.31712 0.0675 0.56932 0.0
C208 C 0.33094 0.09358 0.61257 0.0
C209 C 0.39111 0.22806 0.73002 0.0
C210 C 0.43547 0.22776 0.51418 0.0
C211 C 0.4823 0.31157 0.72976 0.0
C212 C 0.50733 0.33364 0.7775 0.0
C213 C 0.50428 0.3528 0.8301 0.0
C214 C 0.52792 0.3749 0.87192 0.0
C215 C 0.55513 0.37815 0.8626 0.0
C216 C 0.55799 0.35842 0.81171 0.0
C217 C 0.5344 0.33645 0.76964 0.0
C218 C 0.48617 0.22687 0.69316 0.0
C219 C 0.43535 0.21733 0.87597 0.0
O220 O 0.40115 0.14635 0.68768 0.0
O221 O 0.3679 0.15651 0.65756 0.0
O222 O 0.38375 0.20437 0.7701 0.0
O223 O 0.40915 0.23246 0.67325 0.0
O224 O 0.42149 0.2025 0.55173 0.0
O225 O 0.44875 0.25204 0.55685 0.0
O226 O 0.46062 0.29265 0.77418 0.0
O227 O 0.48721 0.30045 0.6631 0.0
O228 O 0.49742 0.25428 0.70061 0.0
O229 O 0.45921 0.21475 0.69326 0.0
O230 O 0.44537 0.2427 0.84014 0.0
O231 O 0.42422 0.19352 0.83134 0.0
H232 H 0.39896 0.11721 0.54809 0.0
H233 H 0.37481 0.07164 0.47133 0.0
H234 H 0.29442 0.05364 0.57851 0.0
H235 H 0.3185 0.09918 0.65328 0.0
H236 H 0.4836 0.35092 0.83792 0.0
H237 H 0.52492 0.38946 0.91149 0.0
H238 H 0.57867 0.36043 0.80254 0.0
H239 H 0.53749 0.32195 0.73005 0.0
H240 H 0.37067 0.23577 0.87591 0.0
H241 H 0.37761 0.25678 0.61127 0.0
H242 H 0.3432 0.25915 0.89859 0.0
H243 H 0.34774 0.27832 0.6315 0.0
H244 H 0.31424 0.3378 0.71211 0.0
H245 H 0.34085 0.31416 0.67859 0.0
H246 H 0.30034 0.25547 0.88677 0.0
H247 H 0.27665 0.2812 0.92627 0.0
C248 C 0.36608 0.24534 0.82232 0.0
C249 C 0.37635 0.24455 0.74208 0.0
C250 C 0.34978 0.25839 0.83483 0.0
C251 C 0.34228 0.27025 0.76675 0.0
C252 C 0.35304 0.26978 0.68607 0.0
C253 C 0.37019 0.25738 0.67414 0.0
C254 C 0.3113 0.32015 0.7518 0.0
C255 C 0.29377 0.31228 0.8239 0.0
C256 C 0.32635 0.30613 0.73149 0.0
C257 C 0.3238 0.28327 0.78139 0.0
C258 C 0.30419 0.27377 0.84869 0.0
C259 C 0.28981 0.28824 0.87035 0.0
H260 H 0.1364 0.40639 1.00543 0.0
H261 H 0.13869 0.33049 0.07737 0.0
H262 H 0.08528 0.3815 0.03244 0.0
H263 H 0.08873 0.30636 0.11207 0.0
H264 H 0.99385 0.25888 0.13408 0.0
H265 H 0.04279 0.28263 0.08457 0.0
H266 H 0.04856 0.36498 0.11873 0.0
H267 H 0.99928 0.34086 0.16165 0.0
C268 C 0.12596 0.38443 0.0278 0.0
C269 C 0.14159 0.37042 0.03876 0.0
C270 C 0.0965 0.37003 0.04446 0.0
C271 C 0.08198 0.34145 0.07521 0.0
C272 C 0.09814 0.32782 0.08652 0.0
C273 C 0.12723 0.34189 0.06745 0.0
C274 C 1.00562 0.28206 0.12997 0.0
C275 C 0.99251 0.2979 0.15169 0.0
C276 C 0.03405 0.29595 0.10234 0.0
C277 C 0.05065 0.32624 0.09801 0.0
C278 C 0.03708 0.34183 0.11891 0.0
C279 C 1.00851 0.3279 0.14432 0.0
H280 H 0.79663 0.12791 0.27536 0.0
H281 H 0.75274 0.14417 0.47398 0.0
H282 H 0.77054 0.07668 0.3098 0.0
H283 H 0.72697 0.09297 0.51007 0.0
H284 H 0.71778 1.00905 0.61768 0.0
H285 H 0.74076 0.05916 0.57296 0.0
H286 H 0.72194 0.0324 0.31305 0.0
H287 H 0.69848 0.98197 0.35864 0.0
C288 C 0.78099 0.12037 0.32552 0.0
C289 C 0.77641 0.13991 0.37128 0.0
C290 C 0.76605 0.09104 0.34528 0.0
C291 C 0.74675 0.08067 0.41304 0.0
C292 C 0.74179 0.10024 0.45778 0.0
C293 C 0.75624 0.1295 0.43655 0.0
C294 C 0.71862 0.01391 0.55097 0.0
C295 C 0.70626 0.99167 0.49164 0.0
C296 C 0.73155 0.04261 0.52535 0.0
C297 C 0.73289 0.04988 0.43946 0.0
C298 C 0.72118 0.02757 0.37972 0.0
C299 C 0.70769 0.99873 0.40565 0.0
H300 H 0.64809 0.78075 0.87401 0.0
H301 H 0.64459 0.76415 0.60743 0.0
H302 H 0.67526 0.75689 0.89717 0.0
H303 H 0.67398 0.74192 0.62882 0.0
H304 H 0.70583 0.68027 0.71363 0.0
H305 H 0.67868 0.70375 0.67862 0.0
H306 H 0.7196 0.76289 0.88448 0.0
H307 H 0.74456 0.73812 0.92328 0.0
C308 C 0.65333 0.77204 0.82018 0.0
C309 C 0.64417 0.77421 0.73918 0.0
C310 C 0.66938 0.75867 0.83306 0.0
C311 C 0.67765 0.74788 0.76477 0.0
C312 C 0.66798 0.74967 0.68332 0.0
C313 C 0.65114 0.76243 0.67083 0.0
C314 C 0.70883 0.69815 0.75178 0.0
C315 C 0.72718 0.70685 0.82223 0.0
C316 C 0.69346 0.71192 0.73103 0.0
C317 C 0.69614 0.73489 0.77993 0.0
C318 C 0.71594 0.74467 0.84686 0.0
C319 C 0.7309 0.73073 0.8682 0.0
H320 H 0.02554 0.7602 0.15097 0.0
H321 H 0.02471 0.67993 0.13648 0.0
H322 H 0.97559 0.73594 0.10798 0.0
H323 H 0.97499 0.65569 0.09533 0.0
H324 H 0.88651 0.61848 0.98433 0.0
H325 H 0.9385 0.64606 0.9985 0.0
H326 H 0.93101 0.70476 0.16645 0.0
H327 H 0.87967 0.67784 0.1501 0.0
C328 C 0.01479 0.73742 0.13831 0.0
C329 C 0.02929 0.72209 0.14778 0.0
C330 C 0.98602 0.72341 0.11388 0.0
C331 C 0.97085 0.6936 0.09902 0.0
C332 C 0.98579 0.67862 0.10498 0.0
C333 C 0.01452 0.69264 0.12879 0.0
C334 C 0.89611 0.63739 1.02378 0.0
C335 C 0.87896 0.64584 0.06652 0.0
C336 C 0.92593 0.65319 0.03233 0.0
C337 C 0.93927 0.67781 0.08383 0.0
C338 C 0.92187 0.68633 0.12517 0.0
C339 C 0.89224 0.6706 0.11665 0.0
H340 H 0.35311 0.02145 0.51169 0.0
H341 H 0.27956 0.02831 0.44608 0.0
H342 H 0.32818 0.97162 0.46882 0.0
H343 H 0.25489 0.97889 0.39922 0.0
H344 H 0.20432 0.88279 0.40978 0.0
H345 H 0.23112 0.93318 0.44207 0.0
H346 H 0.30915 0.93476 0.37566 0.0
H347 H 0.28176 0.88311 0.34881 0.0
C348 C 0.33177 0.0125 0.48627 0.0
C349 C 0.31836 0.02901 0.48323 0.0
C350 C 0.31734 0.98368 0.46126 0.0
C351 C 0.28905 0.97043 0.43126 0.0
C352 C 0.27619 0.98754 0.4245 0.0
C353 C 0.29048 0.0162 0.45082 0.0
C354 C 0.22725 0.89383 0.40223 0.0
C355 C 0.24087 0.87882 0.37695 0.0
C356 C 0.24279 0.92313 0.4198 0.0
C357 C 0.27264 0.93884 0.4109 0.0
C358 C 0.28633 0.92373 0.38473 0.0
C359 C 0.27065 0.89403 0.36865 0.0
H360 H 0.24586 0.47825 0.74656 0.0
H361 H 0.18468 0.38799 0.73903 0.0
H362 H 0.25136 0.47899 0.59433 0.0
H363 H 0.18782 0.38865 0.58549 0.0
H364 H 0.2142 0.39021 0.31471 0.0
H365 H 0.2112 0.38949 0.46805 0.0
H366 H 0.236 0.47934 0.46448 0.0
H367 H 0.24035 0.47997 0.31251 0.0
C368 C 0.23289 0.45872 0.7114 0.0
C369 C 0.21445 0.43321 0.75388 0.0
C370 C 0.23588 0.45903 0.62357 0.0
C371 C 0.21996 0.43389 0.57537 0.0
C372 C 0.20102 0.40844 0.61898 0.0
C373 C 0.1987 0.40804 0.70718 0.0
C374 C 0.21955 0.40988 0.34731 0.0
C375 C 0.2276 0.43516 0.30154 0.0
C376 C 0.21735 0.40945 0.43563 0.0
C377 C 0.2231 0.43432 0.48074 0.0
C378 C 0.2317 0.4597 0.43397 0.0
C379 C 0.23394 0.46009 0.34599 0.0
H380 H 0.75276 0.21421 0.07281 0.0
H381 H 0.83282 0.21564 0.08076 0.0
H382 H 0.75478 0.21624 0.92045 0.0
H383 H 0.83668 0.22024 0.93074 0.0
H384 H 0.83578 0.21592 0.64844 0.0
H385 H 0.83231 0.21106 0.79978 0.0
H386 H 0.7664 0.23426 0.79657 0.0
H387 H 0.76837 0.23592 0.64493 0.0
C388 C 0.77078 0.21486 0.04163 0.0
C389 C 0.79255 0.21473 0.08905 0.0
C390 C 0.77244 0.21666 0.95323 0.0
C391 C 0.79621 0.21888 0.90946 0.0
C392 C 0.81766 0.21824 0.95848 0.0
C393 C 0.81569 0.21592 0.04621 0.0
C394 C 0.82067 0.22003 0.68085 0.0
C395 C 0.8023 0.22617 0.63494 0.0
C396 C 0.81861 0.21742 0.76892 0.0
C397 C 0.79876 0.22195 0.81431 0.0
C398 C 0.78134 0.22943 0.76692 0.0
C399 C 0.78272 0.23094 0.67887 0.0
H400 H 0.6312 0.81188 0.40893 0.0
H401 H 0.53967 0.77135 0.40581 0.0
H402 H 0.63226 0.81608 0.25548 0.0
H403 H 0.54031 0.7751 0.2516 0.0
H404 H 0.55197 0.81018 0.9828 0.0
H405 H 0.5517 0.80713 0.13723 0.0
H406 H 0.62271 0.79207 0.12729 0.0
H407 H 0.62311 0.79592 0.97383 0.0
C408 C 0.61125 0.80356 0.37485 0.0
C409 C 0.58536 0.79104 0.41881 0.0
C410 C 0.61177 0.80584 0.2867 0.0
C411 C 0.58637 0.79603 0.2401 0.0
C412 C 0.56037 0.78324 0.28476 0.0
C413 C 0.55988 0.78065 0.37308 0.0
C414 C 0.56778 0.80677 1.01428 0.0
C415 C 0.58777 0.80363 0.96694 0.0
C416 C 0.56743 0.80458 0.10271 0.0
C417 C 0.58709 0.79917 0.14572 0.0
C418 C 0.60742 0.79659 0.09739 0.0
C419 C 0.60766 0.7987 1.00923 0.0
H420 H 0.77269 0.60147 0.74797 0.0
H421 H 0.82949 0.56735 0.73856 0.0
H422 H 0.77181 0.60319 0.59667 0.0
H423 H 0.82677 0.56653 0.58589 0.0
H424 H 0.836 0.58603 0.31049 0.0
H425 H 0.83866 0.58749 0.46199 0.0
H426 H 0.75728 0.58427 0.47156 0.0
H427 H 0.75639 0.58562 0.31856 0.0
C428 C 0.78491 0.59407 0.71337 0.0
C429 C 0.80136 0.58444 0.75586 0.0
C430 C 0.78405 0.59463 0.62543 0.0
C431 C 0.79911 0.58497 0.57648 0.0
C432 C 0.81529 0.5749 0.6196 0.0
C433 C 0.81661 0.57492 0.70795 0.0
C434 C 0.81871 0.58578 0.34507 0.0
C435 C 0.79582 0.58545 0.30237 0.0
C436 C 0.82002 0.58624 0.43297 0.0
C437 C 0.79801 0.5855 0.4816 0.0
C438 C 0.77509 0.58534 0.43813 0.0
C439 C 0.77427 0.5858 0.34971 0.0
H440 H 0.26708 0.81394 0.64355 0.0
H441 H 0.17583 0.77773 0.64889 0.0
H442 H 0.26873 0.81481 0.79451 0.0
H443 H 0.17737 0.78099 0.80092 0.0
H444 H 0.18142 0.77192 0.07946 0.0
H445 H 0.17975 0.7686 0.92894 0.0
H446 H 0.26995 0.83175 0.91843 0.0
H447 H 0.27173 0.83261 0.07088 0.0
C448 C 0.24723 0.80635 0.67724 0.0
C449 C 0.22128 0.7957 0.63358 0.0
C450 C 0.24819 0.80727 0.76518 0.0
C451 C 0.2233 0.79831 0.81315 0.0
C452 C 0.19723 0.78765 0.76868 0.0
C453 C 0.19621 0.786 0.68039 0.0
C454 C 0.20102 0.78503 0.04507 0.0
C455 C 0.22677 0.80259 0.08781 0.0
C456 C 0.20002 0.78341 0.95724 0.0
C457 C 0.2246 0.79996 0.90823 0.0
C458 C 0.2504 0.81792 0.95169 0.0
C459 C 0.25152 0.81885 0.04009 0.0
H460 H 0.48141 0.24781 0.40933 0.0
H461 H 0.38991 0.20753 0.40952 0.0
H462 H 0.48108 0.24427 0.25527 0.0
H463 H 0.38912 0.20341 0.25628 0.0
H464 H 0.39803 0.22289 0.97455 0.0
H465 H 0.39843 0.22684 0.12772 0.0
H466 H 0.47041 0.21329 0.14063 0.0
H467 H 0.47022 0.21032 0.98633 0.0
C468 C 0.46126 0.23858 0.37595 0.0
C469 C 0.43571 0.22826 0.42084 0.0
C470 C 0.46095 0.23611 0.28769 0.0
C471 C 0.43505 0.22344 0.24219 0.0
C472 C 0.40956 0.21361 0.28801 0.0
C473 C 0.40992 0.21583 0.37609 0.0
C474 C 0.41369 0.22046 1.01055 0.0
C475 C 0.43385 0.21595 0.96909 0.0
C476 C 0.41393 0.22262 0.09862 0.0
C477 C 0.43448 0.22044 0.14779 0.0
C478 C 0.45447 0.21552 0.10556 0.0
C479 C 0.45417 0.21336 1.01719 0.0
H480 H 0.15113 0.57569 0.17616 0.0
H481 H 0.22838 0.59881 0.31378 0.0
H482 H 0.1521 0.61886 0.22777 0.0
H483 H 0.23 0.64207 0.36342 0.0
H484 H 0.22642 0.71325 0.47736 0.0
H485 H 0.21147 0.66335 0.44927 0.0
H486 H 0.17743 0.66959 0.20808 0.0
H487 H 0.19112 0.71932 0.23951 0.0
C488 C 0.1681 0.58981 0.21846 0.0
C489 C 0.18979 0.58392 0.24052 0.0
C490 C 0.16884 0.61475 0.24742 0.0
C491 C 0.19116 0.63429 0.29988 0.0
C492 C 0.21218 0.6276 0.32428 0.0
C493 C 0.2115 0.60285 0.29503 0.0
C494 C 0.21468 0.70353 0.41991 0.0
C495 C 0.20966 0.72002 0.36113 0.0
C496 C 0.20653 0.67502 0.40289 0.0
C497 C 0.19395 0.6624 0.32513 0.0
C498 C 0.18698 0.67834 0.26877 0.0
C499 C 0.19469 0.70687 0.28679 0.0
H500 H 0.64234 0.2321 0.61023 0.0
H501 H 0.58465 0.14378 0.54466 0.0
H502 H 0.60227 0.23688 0.65632 0.0
H503 H 0.54414 0.14871 0.59035 0.0
H504 H 0.48189 0.17456 0.73799 0.0
H505 H 0.51833 0.16079 0.7102 0.0
H506 H 0.56634 0.23808 0.56315 0.0
H507 H 0.53107 0.25165 0.59136 0.0
C508 C 0.62108 0.21362 0.60617 0.0
C509 C 0.61669 0.1878 0.57168 0.0
C510 C 0.59806 0.21631 0.63272 0.0
C511 C 0.56989 0.19339 0.62487 0.0
C512 C 0.56553 0.16681 0.59677 0.0
C513 C 0.58875 0.16404 0.57048 0.0
C514 C 0.50008 0.1882 0.69877 0.0
C515 C 0.50392 0.21441 0.66792 0.0
C516 C 0.52095 0.18044 0.68317 0.0
C517 C 0.54573 0.19885 0.63668 0.0
C518 C 0.54815 0.2239 0.60168 0.0
C519 C 0.52774 0.23158 0.61739 0.0
H520 H 0.30192 0.52243 0.10604 0.0
H521 H 0.30999 0.47744 0.89428 0.0
H522 H 0.35134 0.56078 0.08764 0.0
H523 H 0.35923 0.51585 0.87402 0.0
H524 H 0.45129 0.58513 0.86608 0.0
H525 H 0.40767 0.54355 0.91663 0.0
H526 H 0.37535 0.59885 0.98981 0.0
H527 H 0.41946 0.64047 0.94244 0.0
C528 C 0.31469 0.52033 0.05736 0.0
C529 C 0.30238 0.4968 1.00248 0.0
C530 C 0.34288 0.54253 0.04574 0.0
C531 C 0.35938 0.54184 0.97838 0.0
C532 C 0.34746 0.51722 0.92697 0.0
C533 C 0.31922 0.49507 0.93859 0.0
C534 C 0.43513 0.58852 0.89455 0.0
C535 C 0.43893 0.61627 0.89941 0.0
C536 C 0.40989 0.56455 0.92278 0.0
C537 C 0.38765 0.56757 0.95688 0.0
C538 C 0.39194 0.59548 0.96473 0.0
C539 C 0.41717 0.61944 0.93641 0.0
H540 H 0.83082 0.30087 0.23376 0.0
H541 H 0.79795 0.30884 0.47242 0.0
H542 H 0.84398 0.35024 0.19798 0.0
H543 H 0.81211 0.35837 0.43942 0.0
H544 H 0.79606 0.42382 0.29957 0.0
H545 H 0.79332 0.37985 0.35132 0.0
H546 H 0.87032 0.40098 0.21534 0.0
H547 H 0.87266 0.4449 0.16316 0.0
C548 C 0.82775 0.31368 0.2803 0.0
C549 C 0.8137 0.30115 0.35633 0.0
C550 C 0.83507 0.34199 0.25968 0.0
C551 C 0.82858 0.35837 0.31492 0.0
C552 C 0.81674 0.34637 0.394 0.0
C553 C 0.8091 0.31809 0.41382 0.0
C554 C 0.81244 0.41907 0.2812 0.0
C555 C 0.83447 0.43772 0.22701 0.0
C556 C 0.8111 0.39395 0.31149 0.0
C557 C 0.83161 0.38655 0.28772 0.0
C558 C 0.85398 0.40563 0.23459 0.0
C559 C 0.85547 0.43096 0.20513 0.0
H560 H 0.37846 0.79209 0.62346 0.0
H561 H 0.43802 0.87632 0.52778 0.0
H562 H 0.4179 0.78655 0.67309 0.0
H563 H 0.47791 0.87041 0.57526 0.0
H564 H 0.54228 0.84753 0.71716 0.0
H565 H 0.5063 0.86209 0.6903 0.0
H566 H 0.4494 0.77822 0.58768 0.0
H567 H 0.48404 0.76394 0.61557 0.0
C568 C 0.40004 0.80951 0.61347 0.0
C569 C 0.40509 0.83433 0.56993 0.0
C570 C 0.42272 0.80637 0.64178 0.0
C571 C 0.45118 0.82769 0.62587 0.0
C572 C 0.45632 0.85351 0.58815 0.0
C573 C 0.43346 0.85683 0.5607 0.0
C574 C 0.52208 0.83247 0.68851 0.0
C575 C 0.51578 0.8044 0.67003 0.0
C576 C 0.50148 0.84071 0.6733 0.0
C577 C 0.4745 0.82097 0.63936 0.0
C578 C 0.46932 0.79366 0.61703 0.0
C579 C 0.48943 0.78551 0.63254 0.0
H580 H 0.70457 0.53842 0.06382 0.0
H581 H 0.73039 0.4848 0.93594 0.0
H582 H 0.65404 0.50233 0.03491 0.0
H583 H 0.68139 0.45003 0.90631 0.0
H584 H 0.59763 0.37592 0.94841 0.0
H585 H 0.64282 0.41575 0.99622 0.0
H586 H 0.61654 0.47554 0.91613 0.0
H587 H 0.57062 0.43522 0.86951 0.0
C588 C 0.69953 0.51927 0.0288 0.0
C589 C 0.7214 0.51413 1.00373 0.0
C590 C 0.6707 0.49861 1.01242 0.0
C591 C 0.66363 0.47277 0.97077 0.0
C592 C 0.68584 0.46901 0.9414 0.0
C593 C 0.7141 0.48917 0.95801 0.0
C594 C 0.60129 0.3975 0.94167 0.0
C595 C 0.58078 0.40238 0.90319 0.0
C596 C 0.62722 0.4204 0.96911 0.0
C597 C 0.63368 0.44895 0.95781 0.0
C598 C 0.61235 0.45386 0.92533 0.0
C599 C 0.58609 0.43075 0.89843 0.0
loop_
_geom_bond_atom_site_label_1
_geom_bond_atom_site_label_2
_geom_bond_distance
_geom_bond_site_symmetry_2
_ccdc_geom_bond_type
Nd0 C2 2.836 1_554 S
Nd0 O20 2.500 1_554 S
Nd0 O21 2.492 1_554 S
Nd0 O22 2.487 . S
Nd0 O23 2.682 . S
Nd0 O24 2.410 1_554 S
Nd0 O29 2.414 1_554 S
Nd0 O31 2.424 . S
Nd1 C11 2.836 1_556 S
Nd1 O23 2.414 1_556 S
Nd1 O25 2.424 . S
Nd1 O26 2.500 1_556 S
Nd1 O27 2.492 1_556 S
Nd1 O28 2.487 . S
Nd1 O29 2.682 . S
Nd1 O30 2.410 1_556 S
C2 Nd0 2.836 1_556 S
C2 C3 1.498 . S
C2 O20 1.258 . S
C2 O21 1.239 . S
C3 C2 1.498 . S
C3 C4 1.366 . S
C3 C8 1.407 . S
C4 C3 1.366 . S
C4 C5 1.392 . S
C4 H32 0.930 . S
C5 C4 1.392 . S
C5 C6 1.398 . S
C5 H33 0.929 . S
C6 C5 1.398 . S
C6 C7 1.352 . S
C7 C6 1.352 . S
C7 C8 1.384 . S
C7 H34 0.930 . S
C8 C3 1.407 . S
C8 C7 1.384 . S
C8 H35 0.929 . S
C9 O22 1.241 . S
C9 O23 1.273 . S
C10 O24 1.251 . S
C10 O25 1.268 . S
C11 Nd1 2.836 1_554 S
C11 C12 1.498 . S
C11 O26 1.258 . S
C11 O27 1.239 . S
C12 C11 1.498 . S
C12 C13 1.366 . S
C12 C17 1.407 . S
C13 C12 1.366 . S
C13 C14 1.392 . S
C13 H36 0.930 . S
C14 C13 1.392 . S
C14 C15 1.398 . S
C14 H37 0.929 . S
C15 C14 1.398 . S
C15 C16 1.352 . S
C16 C15 1.352 . S
C16 C17 1.384 . S
C16 H38 0.930 . S
C17 C12 1.407 . S
C17 C16 1.384 . S
C17 H39 0.929 . S
C18 O28 1.241 . S
C18 O29 1.273 . S
C19 O30 1.251 . S
C19 O31 1.268 . S
O20 Nd0 2.500 1_556 S
O20 C2 1.258 . S
O21 Nd0 2.492 1_556 S
O21 C2 1.239 . S
O22 Nd0 2.487 . S
O22 C9 1.241 . S
O23 Nd0 2.682 . S
O23 Nd1 2.414 1_554 S
O23 C9 1.273 . S
O24 Nd0 2.410 1_556 S
O24 C10 1.251 . S
O25 Nd1 2.424 . S
O25 C10 1.268 . S
O26 Nd1 2.500 1_554 S
O26 C11 1.258 . S
O27 Nd1 2.492 1_554 S
O27 C11 1.239 . S
O28 Nd1 2.487 . S
O28 C18 1.241 . S
O29 Nd0 2.414 1_556 S
O29 Nd1 2.682 . S
O29 C18 1.273 . S
O30 Nd1 2.410 1_554 S
O30 C19 1.251 . S
O31 Nd0 2.424 . S
O31 C19 1.268 . S
H32 C4 0.930 . S
H33 C5 0.929 . S
H34 C7 0.930 . S
H35 C8 0.929 . S
H36 C13 0.930 . S
H37 C14 0.929 . S
H38 C16 0.930 . S
H39 C17 0.929 . S
Nd40 C42 2.836 . S
Nd40 O60 2.500 . S
Nd40 O61 2.492 . S
Nd40 O62 2.487 . S
Nd40 O63 2.682 . S
Nd40 O64 2.410 . S
Nd40 O69 2.414 . S
Nd40 O71 2.424 . S
Nd41 C51 2.836 . S
Nd41 O63 2.414 . S
Nd41 O65 2.424 . S
Nd41 O66 2.500 . S
Nd41 O67 2.492 . S
Nd41 O68 2.487 . S
Nd41 O69 2.682 . S
Nd41 O70 2.410 . S
C42 Nd40 2.836 . S
C42 C43 1.498 . S
C42 O60 1.258 . S
C42 O61 1.239 . S
C43 C42 1.498 . S
C43 C44 1.366 . S
C43 C48 1.407 . S
C44 C43 1.366 . S
C44 C45 1.392 . S
C44 H72 0.930 . S
C45 C44 1.392 . S
C45 C46 1.398 . S
C45 H73 0.929 . S
C46 C45 1.398 . S
C46 C47 1.352 . S
C47 C46 1.352 . S
C47 C48 1.384 . S
C47 H74 0.930 . S
C48 C43 1.407 . S
C48 C47 1.384 . S
C48 H75 0.929 . S
C49 O62 1.241 . S
C49 O63 1.273 . S
C50 O64 1.251 . S
C50 O65 1.268 . S
C51 Nd41 2.836 . S
C51 C52 1.498 . S
C51 O66 1.258 . S
C51 O67 1.239 . S
C52 C51 1.498 . S
C52 C53 1.366 . S
C52 C57 1.407 . S
C53 C52 1.366 . S
C53 C54 1.392 . S
C53 H76 0.930 . S
C54 C53 1.392 . S
C54 C55 1.398 . S
C54 H77 0.929 . S
C55 C54 1.398 . S
C55 C56 1.352 . S
C56 C55 1.352 . S
C56 C57 1.384 . S
C56 H78 0.930 . S
C57 C52 1.407 . S
C57 C56 1.384 . S
C57 H79 0.929 . S
C58 O68 1.241 . S
C58 O69 1.273 . S
C59 O70 1.251 . S
C59 O71 1.268 . S
O60 Nd40 2.500 . S
O60 C42 1.258 . S
O61 Nd40 2.492 . S
O61 C42 1.239 . S
O62 Nd40 2.487 . S
O62 C49 1.241 . S
O63 Nd40 2.682 . S
O63 Nd41 2.414 . S
O63 C49 1.273 . S
O64 Nd40 2.410 . S
O64 C50 1.251 . S
O65 Nd41 2.424 . S
O65 C50 1.268 . S
O66 Nd41 2.500 . S
O66 C51 1.258 . S
O67 Nd41 2.492 . S
O67 C51 1.239 . S
O68 Nd41 2.487 . S
O68 C58 1.241 . S
O69 Nd40 2.414 . S
O69 Nd41 2.682 . S
O69 C58 1.273 . S
O70 Nd41 2.410 . S
O70 C59 1.251 . S
O71 Nd40 2.424 . S
O71 C59 1.268 . S
H72 C44 0.930 . S
H73 C45 0.929 . S
H74 C47 0.930 . S
H75 C48 0.929 . S
H76 C53 0.930 . S
H77 C54 0.929 . S
H78 C56 0.930 . S
H79 C57 0.929 . S
Nd80 C82 2.836 . S
Nd80 O100 2.500 . S
Nd80 O101 2.492 . S
Nd80 O102 2.487 . S
Nd80 O103 2.682 . S
Nd80 O104 2.410 . S
Nd80 O109 2.414 . S
Nd80 O111 2.424 . S
Nd81 C91 2.836 . S
Nd81 O103 2.414 . S
Nd81 O105 2.424 . S
Nd81 O106 2.500 . S
Nd81 O107 2.492 . S
Nd81 O108 2.487 . S
Nd81 O109 2.682 . S
Nd81 O110 2.410 . S
C82 Nd80 2.836 . S
C82 C83 1.498 . S
C82 O100 1.258 . S
C82 O101 1.239 . S
C83 C82 1.498 . S
C83 C84 1.366 . S
C83 C88 1.407 . S
C84 C83 1.366 . S
C84 C85 1.392 . S
C84 H112 0.930 . S
C85 C84 1.392 . S
C85 C86 1.398 . S
C85 H113 0.929 . S
C86 C85 1.398 . S
C86 C87 1.352 . S
C87 C86 1.352 . S
C87 C88 1.384 . S
C87 H114 0.930 . S
C88 C83 1.407 . S
C88 C87 1.384 . S
C88 H115 0.929 . S
C89 O102 1.241 . S
C89 O103 1.273 . S
C90 O104 1.251 . S
C90 O105 1.268 . S
C91 Nd81 2.836 . S
C91 C92 1.498 . S
C91 O106 1.258 . S
C91 O107 1.239 . S
C92 C91 1.498 . S
C92 C93 1.366 . S
C92 C97 1.407 . S
C93 C92 1.366 . S
C93 C94 1.392 . S
C93 H116 0.930 . S
C94 C93 1.392 . S
C94 C95 1.398 . S
C94 H117 0.929 . S
C95 C94 1.398 . S
C95 C96 1.352 . S
C96 C95 1.352 . S
C96 C97 1.384 . S
C96 H118 0.930 . S
C97 C92 1.407 . S
C97 C96 1.384 . S
C97 H119 0.929 . S
C98 O108 1.241 . S
C98 O109 1.273 . S
C99 O110 1.251 . S
C99 O111 1.268 . S
O100 Nd80 2.500 . S
O100 C82 1.258 . S
O101 Nd80 2.492 . S
O101 C82 1.239 . S
O102 Nd80 2.487 . S
O102 C89 1.241 . S
O103 Nd80 2.682 . S
O103 Nd81 2.414 . S
O103 C89 1.273 . S
O104 Nd80 2.410 . S
O104 C90 1.251 . S
O105 Nd81 2.424 . S
O105 C90 1.268 . S
O106 Nd81 2.500 . S
O106 C91 1.258 . S
O107 Nd81 2.492 . S
O107 C91 1.239 . S
O108 Nd81 2.487 . S
O108 C98 1.241 . S
O109 Nd80 2.414 . S
O109 Nd81 2.682 . S
O109 C98 1.273 . S
O110 Nd81 2.410 . S
O110 C99 1.251 . S
O111 Nd80 2.424 . S
O111 C99 1.268 . S
H112 C84 0.930 . S
H113 C85 0.929 . S
H114 C87 0.930 . S
H115 C88 0.929 . S
H116 C93 0.930 . S
H117 C94 0.929 . S
H118 C96 0.930 . S
H119 C97 0.929 . S
Nd120 C122 2.836 1_554 S
Nd120 O140 2.500 1_554 S
Nd120 O141 2.492 1_554 S
Nd120 O142 2.487 . S
Nd120 O143 2.682 . S
Nd120 O144 2.410 1_554 S
Nd120 O149 2.414 1_554 S
Nd120 O151 2.424 . S
Nd121 C131 2.836 1_556 S
Nd121 O143 2.414 1_556 S
Nd121 O145 2.424 . S
Nd121 O146 2.500 1_556 S
Nd121 O147 2.492 1_556 S
Nd121 O148 2.487 . S
Nd121 O149 2.682 . S
Nd121 O150 2.410 1_556 S
C122 Nd120 2.836 1_556 S
C122 C123 1.498 . S
C122 O140 1.258 . S
C122 O141 1.239 . S
C123 C122 1.498 . S
C123 C124 1.366 . S
C123 C128 1.407 . S
C124 C123 1.366 . S
C124 C125 1.392 . S
C124 H152 0.930 . S
C125 C124 1.392 . S
C125 C126 1.398 . S
C125 H153 0.929 . S
C126 C125 1.398 . S
C126 C127 1.352 . S
C127 C126 1.352 . S
C127 C128 1.384 . S
C127 H154 0.930 . S
C128 C123 1.407 . S
C128 C127 1.384 . S
C128 H155 0.929 . S
C129 O142 1.241 . S
C129 O143 1.273 . S
C130 O144 1.251 . S
C130 O145 1.268 . S
C131 Nd121 2.836 1_554 S
C131 C132 1.498 . S
C131 O146 1.258 . S
C131 O147 1.239 . S
C132 C131 1.498 . S
C132 C133 1.366 . S
C132 C137 1.407 . S
C133 C132 1.366 . S
C133 C134 1.392 . S
C133 H156 0.930 . S
C134 C133 1.392 . S
C134 C135 1.398 . S
C134 H157 0.929 . S
C135 C134 1.398 . S
C135 C136 1.352 . S
C136 C135 1.352 . S
C136 C137 1.384 . S
C136 H158 0.930 . S
C137 C132 1.407 . S
C137 C136 1.384 . S
C137 H159 0.929 . S
C138 O148 1.241 . S
C138 O149 1.273 . S
C139 O150 1.251 . S
C139 O151 1.268 . S
O140 Nd120 2.500 1_556 S
O140 C122 1.258 . S
O141 Nd120 2.492 1_556 S
O141 C122 1.239 . S
O142 Nd120 2.487 . S
O142 C129 1.241 . S
O143 Nd120 2.682 . S
O143 Nd121 2.414 1_554 S
O143 C129 1.273 . S
O144 Nd120 2.410 1_556 S
O144 C130 1.251 . S
O145 Nd121 2.424 . S
O145 C130 1.268 . S
O146 Nd121 2.500 1_554 S
O146 C131 1.258 . S
O147 Nd121 2.492 1_554 S
O147 C131 1.239 . S
O148 Nd121 2.487 . S
O148 C138 1.241 . S
O149 Nd120 2.414 1_556 S
O149 Nd121 2.682 . S
O149 C138 1.273 . S
O150 Nd121 2.410 1_554 S
O150 C139 1.251 . S
O151 Nd120 2.424 . S
O151 C139 1.268 . S
H152 C124 0.930 . S
H153 C125 0.929 . S
H154 C127 0.930 . S
H155 C128 0.929 . S
H156 C133 0.930 . S
H157 C134 0.929 . S
H158 C136 0.930 . S
H159 C137 0.929 . S
Nd160 C162 2.836 . S
Nd160 O180 2.500 . S
Nd160 O181 2.492 . S
Nd160 O182 2.487 . S
Nd160 O183 2.682 . S
Nd160 O184 2.410 . S
Nd160 O189 2.414 . S
Nd160 O191 2.424 . S
Nd161 C171 2.836 . S
Nd161 O183 2.414 . S
Nd161 O185 2.424 . S
Nd161 O186 2.500 . S
Nd161 O187 2.492 . S
Nd161 O188 2.487 . S
Nd161 O189 2.682 . S
Nd161 O190 2.410 . S
C162 Nd160 2.836 . S
C162 C163 1.498 . S
C162 O180 1.258 . S
C162 O181 1.239 . S
C163 C162 1.498 . S
C163 C164 1.366 . S
C163 C168 1.407 . S
C164 C163 1.366 . S
C164 C165 1.392 . S
C164 H192 0.930 . S
C165 C164 1.392 . S
C165 C166 1.398 . S
C165 H193 0.929 . S
C166 C165 1.398 . S
C166 C167 1.352 . S
C167 C166 1.352 . S
C167 C168 1.384 . S
C167 H194 0.930 . S
C168 C163 1.407 . S
C168 C167 1.384 . S
C168 H195 0.929 . S
C169 O182 1.241 . S
C169 O183 1.273 . S
C170 O184 1.251 . S
C170 O185 1.268 . S
C171 Nd161 2.836 . S
C171 C172 1.498 . S
C171 O186 1.258 . S
C171 O187 1.239 . S
C172 C171 1.498 . S
C172 C173 1.366 . S
C172 C177 1.407 . S
C173 C172 1.366 . S
C173 C174 1.392 . S
C173 H196 0.930 . S
C174 C173 1.392 . S
C174 C175 1.398 . S
C174 H197 0.929 . S
C175 C174 1.398 . S
C175 C176 1.352 . S
C176 C175 1.352 . S
C176 C177 1.384 . S
C176 H198 0.930 . S
C177 C172 1.407 . S
C177 C176 1.384 . S
C177 H199 0.929 . S
C178 O188 1.241 . S
C178 O189 1.273 . S
C179 O190 1.251 . S
C179 O191 1.268 . S
O180 Nd160 2.500 . S
O180 C162 1.258 . S
O181 Nd160 2.492 . S
O181 C162 1.239 . S
O182 Nd160 2.487 . S
O182 C169 1.241 . S
O183 Nd160 2.682 . S
O183 Nd161 2.414 . S
O183 C169 1.273 . S
O184 Nd160 2.410 . S
O184 C170 1.251 . S
O185 Nd161 2.424 . S
O185 C170 1.268 . S
O186 Nd161 2.500 . S
O186 C171 1.258 . S
O187 Nd161 2.492 . S
O187 C171 1.239 . S
O188 Nd161 2.487 . S
O188 C178 1.241 . S
O189 Nd160 2.414 . S
O189 Nd161 2.682 . S
O189 C178 1.273 . S
O190 Nd161 2.410 . S
O190 C179 1.251 . S
O191 Nd160 2.424 . S
O191 C179 1.268 . S
H192 C164 0.930 . S
H193 C165 0.929 . S
H194 C167 0.930 . S
H195 C168 0.929 . S
H196 C173 0.930 . S
H197 C174 0.929 . S
H198 C176 0.930 . S
H199 C177 0.929 . S
Nd200 C202 2.836 . S
Nd200 O220 2.500 . S
Nd200 O221 2.492 . S
Nd200 O222 2.487 . S
Nd200 O223 2.682 . S
Nd200 O224 2.410 . S
Nd200 O229 2.414 . S
Nd200 O231 2.424 . S
Nd201 C211 2.836 . S
Nd201 O223 2.414 . S
Nd201 O225 2.424 . S
Nd201 O226 2.500 . S
Nd201 O227 2.492 . S
Nd201 O228 2.487 . S
Nd201 O229 2.682 . S
Nd201 O230 2.410 . S
C202 Nd200 2.836 . S
C202 C203 1.498 . S
C202 O220 1.258 . S
C202 O221 1.239 . S
C203 C202 1.498 . S
C203 C204 1.366 . S
C203 C208 1.407 . S
C204 C203 1.366 . S
C204 C205 1.392 . S
C204 H232 0.930 . S
C205 C204 1.392 . S
C205 C206 1.398 . S
C205 H233 0.929 . S
C206 C205 1.398 . S
C206 C207 1.352 . S
C207 C206 1.352 . S
C207 C208 1.384 . S
C207 H234 0.930 . S
C208 C203 1.407 . S
C208 C207 1.384 . S
C208 H235 0.929 . S
C209 O222 1.241 . S
C209 O223 1.273 . S
C210 O224 1.251 . S
C210 O225 1.268 . S
C211 Nd201 2.836 . S
C211 C212 1.498 . S
C211 O226 1.258 . S
C211 O227 1.239 . S
C212 C211 1.498 . S
C212 C213 1.366 . S
C212 C217 1.407 . S
C213 C212 1.366 . S
C213 C214 1.392 . S
C213 H236 0.930 . S
C214 C213 1.392 . S
C214 C215 1.398 . S
C214 H237 0.929 . S
C215 C214 1.398 . S
C215 C216 1.352 . S
C216 C215 1.352 . S
C216 C217 1.384 . S
C216 H238 0.930 . S
C217 C212 1.407 . S
C217 C216 1.384 . S
C217 H239 0.929 . S
C218 O228 1.241 . S
C218 O229 1.273 . S
C219 O230 1.251 . S
C219 O231 1.268 . S
O220 Nd200 2.500 . S
O220 C202 1.258 . S
O221 Nd200 2.492 . S
O221 C202 1.239 . S
O222 Nd200 2.487 . S
O222 C209 1.241 . S
O223 Nd200 2.682 . S
O223 Nd201 2.414 . S
O223 C209 1.273 . S
O224 Nd200 2.410 . S
O224 C210 1.251 . S
O225 Nd201 2.424 . S
O225 C210 1.268 . S
O226 Nd201 2.500 . S
O226 C211 1.258 . S
O227 Nd201 2.492 . S
O227 C211 1.239 . S
O228 Nd201 2.487 . S
O228 C218 1.241 . S
O229 Nd200 2.414 . S
O229 Nd201 2.682 . S
O229 C218 1.273 . S
O230 Nd201 2.410 . S
O230 C219 1.251 . S
O231 Nd200 2.424 . S
O231 C219 1.268 . S
H232 C204 0.930 . S
H233 C205 0.929 . S
H234 C207 0.930 . S
H235 C208 0.929 . S
H236 C213 0.930 . S
H237 C214 0.929 . S
H238 C216 0.930 . S
H239 C217 0.929 . S
H240 C248 0.950 . S
H241 C253 0.950 . S
H242 C250 0.950 . S
H243 C252 0.950 . S
H244 C254 0.950 . S
H245 C256 0.950 . S
H246 C258 0.950 . S
H247 C259 0.950 . S
C248 H240 0.950 . S
C248 C249 1.386 . S
C248 C250 1.391 . S
C249 C248 1.386 . S
C249 C253 1.393 . S
C250 H242 0.950 . S
C250 C248 1.391 . S
C250 C251 1.400 . S
C251 C250 1.400 . S
C251 C252 1.398 . S
C251 C257 1.491 . S
C252 H243 0.950 . S
C252 C251 1.398 . S
C252 C253 1.391 . S
C253 H241 0.950 . S
C253 C249 1.393 . S
C253 C252 1.391 . S
C254 H244 0.950 . S
C254 C255 1.386 . S
C254 C256 1.391 . S
C255 C254 1.386 . S
C255 C259 1.393 . S
C256 H245 0.950 . S
C256 C254 1.391 . S
C256 C257 1.400 . S
C257 C251 1.491 . S
C257 C256 1.400 . S
C257 C258 1.398 . S
C258 H246 0.950 . S
C258 C257 1.398 . S
C258 C259 1.391 . S
C259 H247 0.950 . S
C259 C255 1.393 . S
C259 C258 1.391 . S
H260 C268 0.950 . S
H261 C273 0.950 . S
H262 C270 0.950 . S
H263 C272 0.950 . S
H264 C274 0.950 . S
H265 C276 0.950 . S
H266 C278 0.950 . S
H267 C279 0.950 . S
C268 H260 0.950 . S
C268 C269 1.386 . S
C268 C270 1.391 . S
C269 C268 1.386 . S
C269 C273 1.393 . S
C270 H262 0.950 . S
C270 C268 1.391 . S
C270 C271 1.400 . S
C271 C270 1.400 . S
C271 C272 1.398 . S
C271 C277 1.491 . S
C272 H263 0.950 . S
C272 C271 1.398 . S
C272 C273 1.391 . S
C273 H261 0.950 . S
C273 C269 1.393 . S
C273 C272 1.391 . S
C274 H264 0.950 . S
C274 C275 1.386 . S
C274 C276 1.391 1_655 S
C275 C274 1.386 . S
C275 C279 1.393 . S
C276 H265 0.950 . S
C276 C274 1.391 1_455 S
C276 C277 1.400 . S
C277 C271 1.491 . S
C277 C276 1.400 . S
C277 C278 1.398 . S
C278 H266 0.950 . S
C278 C277 1.398 . S
C278 C279 1.391 1_455 S
C279 H267 0.950 . S
C279 C275 1.393 . S
C279 C278 1.391 1_655 S
H280 C288 0.950 . S
H281 C293 0.950 . S
H282 C290 0.950 . S
H283 C292 0.950 . S
H284 C294 0.950 . S
H285 C296 0.950 . S
H286 C298 0.950 . S
H287 C299 0.950 . S
C288 H280 0.950 . S
C288 C289 1.386 . S
C288 C290 1.391 . S
C289 C288 1.386 . S
C289 C293 1.393 . S
C290 H282 0.950 . S
C290 C288 1.391 . S
C290 C291 1.400 . S
C291 C290 1.400 . S
C291 C292 1.398 . S
C291 C297 1.491 . S
C292 H283 0.950 . S
C292 C291 1.398 . S
C292 C293 1.391 . S
C293 H281 0.950 . S
C293 C289 1.393 . S
C293 C292 1.391 . S
C294 H284 0.950 . S
C294 C295 1.386 . S
C294 C296 1.391 1_565 S
C295 C294 1.386 . S
C295 C299 1.393 . S
C296 H285 0.950 . S
C296 C294 1.391 1_545 S
C296 C297 1.400 . S
C297 C291 1.491 . S
C297 C296 1.400 . S
C297 C298 1.398 . S
C298 H286 0.950 . S
C298 C297 1.398 . S
C298 C299 1.391 1_545 S
C299 H287 0.950 . S
C299 C295 1.393 . S
C299 C298 1.391 1_565 S
H300 C308 0.950 . S
H301 C313 0.950 . S
H302 C310 0.950 . S
H303 C312 0.950 . S
H304 C314 0.950 . S
H305 C316 0.950 . S
H306 C318 0.950 . S
H307 C319 0.950 . S
C308 H300 0.950 . S
C308 C309 1.386 . S
C308 C310 1.391 . S
C309 C308 1.386 . S
C309 C313 1.393 . S
C310 H302 0.950 . S
C310 C308 1.391 . S
C310 C311 1.400 . S
C311 C310 1.400 . S
C311 C312 1.398 . S
C311 C317 1.491 . S
C312 H303 0.950 . S
C312 C311 1.398 . S
C312 C313 1.391 . S
C313 H301 0.950 . S
C313 C309 1.393 . S
C313 C312 1.391 . S
C314 H304 0.950 . S
C314 C315 1.386 . S
C314 C316 1.391 . S
C315 C314 1.386 . S
C315 C319 1.393 . S
C316 H305 0.950 . S
C316 C314 1.391 . S
C316 C317 1.400 . S
C317 C311 1.491 . S
C317 C316 1.400 . S
C317 C318 1.398 . S
C318 H306 0.950 . S
C318 C317 1.398 . S
C318 C319 1.391 . S
C319 H307 0.950 . S
C319 C315 1.393 . S
C319 C318 1.391 . S
H320 C328 0.950 . S
H321 C333 0.950 . S
H322 C330 0.950 . S
H323 C332 0.950 . S
H324 C334 0.950 . S
H325 C336 0.950 . S
H326 C338 0.950 . S
H327 C339 0.950 . S
C328 H320 0.950 . S
C328 C329 1.386 . S
C328 C330 1.391 1_455 S
C329 C328 1.386 . S
C329 C333 1.393 . S
C330 H322 0.950 . S
C330 C328 1.391 1_655 S
C330 C331 1.400 . S
C331 C330 1.400 . S
C331 C332 1.398 . S
C331 C337 1.491 . S
C332 H323 0.950 . S
C332 C331 1.398 . S
C332 C333 1.391 1_655 S
C333 H321 0.950 . S
C333 C329 1.393 . S
C333 C332 1.391 1_455 S
C334 H324 0.950 . S
C334 C335 1.386 . S
C334 C336 1.391 . S
C335 C334 1.386 . S
C335 C339 1.393 . S
C336 H325 0.950 . S
C336 C334 1.391 . S
C336 C337 1.400 . S
C337 C331 1.491 . S
C337 C336 1.400 . S
C337 C338 1.398 . S
C338 H326 0.950 . S
C338 C337 1.398 . S
C338 C339 1.391 . S
C339 H327 0.950 . S
C339 C335 1.393 . S
C339 C338 1.391 . S
H340 C348 0.950 . S
H341 C353 0.950 . S
H342 C350 0.950 . S
H343 C352 0.950 . S
H344 C354 0.950 . S
H345 C356 0.950 . S
H346 C358 0.950 . S
H347 C359 0.950 . S
C348 H340 0.950 . S
C348 C349 1.386 . S
C348 C350 1.391 1_545 S
C349 C348 1.386 . S
C349 C353 1.393 . S
C350 H342 0.950 . S
C350 C348 1.391 1_565 S
C350 C351 1.400 . S
C351 C350 1.400 . S
C351 C352 1.398 . S
C351 C357 1.491 . S
C352 H343 0.950 . S
C352 C351 1.398 . S
C352 C353 1.391 1_565 S
C353 H341 0.950 . S
C353 C349 1.393 . S
C353 C352 1.391 1_545 S
C354 H344 0.950 . S
C354 C355 1.386 . S
C354 C356 1.391 . S
C355 C354 1.386 . S
C355 C359 1.393 . S
C356 H345 0.950 . S
C356 C354 1.391 . S
C356 C357 1.400 . S
C357 C351 1.491 . S
C357 C356 1.400 . S
C357 C358 1.398 . S
C358 H346 0.950 . S
C358 C357 1.398 . S
C358 C359 1.391 . S
C359 H347 0.950 . S
C359 C355 1.393 . S
C359 C358 1.391 . S
H360 C368 0.950 . S
H361 C373 0.950 . S
H362 C370 0.950 . S
H363 C372 0.950 . S
H364 C374 0.950 . S
H365 C376 0.950 . S
H366 C378 0.950 . S
H367 C379 0.950 . S
C368 H360 0.950 . S
C368 C369 1.386 . S
C368 C370 1.391 . S
C369 C368 1.386 . S
C369 C373 1.393 . S
C370 H362 0.950 . S
C370 C368 1.391 . S
C370 C371 1.400 . S
C371 C370 1.400 . S
C371 C372 1.398 . S
C371 C377 1.491 . S
C372 H363 0.950 . S
C372 C371 1.398 . S
C372 C373 1.391 . S
C373 H361 0.950 . S
C373 C369 1.393 . S
C373 C372 1.391 . S
C374 H364 0.950 . S
C374 C375 1.386 . S
C374 C376 1.391 . S
C375 C374 1.386 . S
C375 C379 1.393 . S
C376 H365 0.950 . S
C376 C374 1.391 . S
C376 C377 1.400 . S
C377 C371 1.491 . S
C377 C376 1.400 . S
C377 C378 1.398 . S
C378 H366 0.950 . S
C378 C377 1.398 . S
C378 C379 1.391 . S
C379 H367 0.950 . S
C379 C375 1.393 . S
C379 C378 1.391 . S
H380 C388 0.950 . S
H381 C393 0.950 1_554 S
H382 C390 0.950 . S
H383 C392 0.950 . S
H384 C394 0.950 . S
H385 C396 0.950 . S
H386 C398 0.950 . S
H387 C399 0.950 . S
C388 H380 0.950 . S
C388 C389 1.386 . S
C388 C390 1.391 1_554 S
C389 C388 1.386 . S
C389 C393 1.393 1_554 S
C390 H382 0.950 . S
C390 C388 1.391 1_556 S
C390 C391 1.400 . S
C391 C390 1.400 . S
C391 C392 1.398 . S
C391 C397 1.491 . S
C392 H383 0.950 . S
C392 C391 1.398 . S
C392 C393 1.391 . S
C393 H381 0.950 1_556 S
C393 C389 1.393 1_556 S
C393 C392 1.391 . S
C394 H384 0.950 . S
C394 C395 1.386 . S
C394 C396 1.391 . S
C395 C394 1.386 . S
C395 C399 1.393 . S
C396 H385 0.950 . S
C396 C394 1.391 . S
C396 C397 1.400 . S
C397 C391 1.491 . S
C397 C396 1.400 . S
C397 C398 1.398 . S
C398 H386 0.950 . S
C398 C397 1.398 . S
C398 C399 1.391 . S
C399 H387 0.950 . S
C399 C395 1.393 . S
C399 C398 1.391 . S
H400 C408 0.950 . S
H401 C413 0.950 . S
H402 C410 0.950 . S
H403 C412 0.950 . S
H404 C414 0.950 1_556 S
H405 C416 0.950 . S
H406 C418 0.950 . S
H407 C419 0.950 . S
C408 H400 0.950 . S
C408 C409 1.386 . S
C408 C410 1.391 . S
C409 C408 1.386 . S
C409 C413 1.393 . S
C410 H402 0.950 . S
C410 C408 1.391 . S
C410 C411 1.400 . S
C411 C410 1.400 . S
C411 C412 1.398 . S
C411 C417 1.491 . S
C412 H403 0.950 . S
C412 C411 1.398 . S
C412 C413 1.391 . S
C413 H401 0.950 . S
C413 C409 1.393 . S
C413 C412 1.391 . S
C414 H404 0.950 1_554 S
C414 C415 1.386 1_554 S
C414 C416 1.391 . S
C415 C414 1.386 1_556 S
C415 C419 1.393 . S
C416 H405 0.950 . S
C416 C414 1.391 . S
C416 C417 1.400 . S
C417 C411 1.491 . S
C417 C416 1.400 . S
C417 C418 1.398 . S
C418 H406 0.950 . S
C418 C417 1.398 . S
C418 C419 1.391 1_554 S
C419 H407 0.950 . S
C419 C415 1.393 . S
C419 C418 1.391 1_556 S
H420 C428 0.950 . S
H421 C433 0.950 . S
H422 C430 0.950 . S
H423 C432 0.950 . S
H424 C434 0.950 . S
H425 C436 0.950 . S
H426 C438 0.950 . S
H427 C439 0.950 . S
C428 H420 0.950 . S
C428 C429 1.386 . S
C428 C430 1.391 . S
C429 C428 1.386 . S
C429 C433 1.393 . S
C430 H422 0.950 . S
C430 C428 1.391 . S
C430 C431 1.400 . S
C431 C430 1.400 . S
C431 C432 1.398 . S
C431 C437 1.491 . S
C432 H423 0.950 . S
C432 C431 1.398 . S
C432 C433 1.391 . S
C433 H421 0.950 . S
C433 C429 1.393 . S
C433 C432 1.391 . S
C434 H424 0.950 . S
C434 C435 1.386 . S
C434 C436 1.391 . S
C435 C434 1.386 . S
C435 C439 1.393 . S
C436 H425 0.950 . S
C436 C434 1.391 . S
C436 C437 1.400 . S
C437 C431 1.491 . S
C437 C436 1.400 . S
C437 C438 1.398 . S
C438 H426 0.950 . S
C438 C437 1.398 . S
C438 C439 1.391 . S
C439 H427 0.950 . S
C439 C435 1.393 . S
C439 C438 1.391 . S
H440 C448 0.950 . S
H441 C453 0.950 . S
H442 C450 0.950 . S
H443 C452 0.950 . S
H444 C454 0.951 . S
H445 C456 0.950 . S
H446 C458 0.950 . S
H447 C459 0.950 . S
C448 H440 0.950 . S
C448 C449 1.386 . S
C448 C450 1.391 . S
C449 C448 1.386 . S
C449 C453 1.393 . S
C450 H442 0.950 . S
C450 C448 1.391 . S
C450 C451 1.400 . S
C451 C450 1.400 . S
C451 C452 1.398 . S
C451 C457 1.491 . S
C452 H443 0.950 . S
C452 C451 1.398 . S
C452 C453 1.391 . S
C453 H441 0.950 . S
C453 C449 1.393 . S
C453 C452 1.391 . S
C454 H444 0.951 . S
C454 C455 1.388 . S
C454 C456 1.387 1_554 S
C455 C454 1.388 . S
C455 C459 1.393 . S
C456 H445 0.950 . S
C456 C454 1.387 1_556 S
C456 C457 1.400 . S
C457 C451 1.491 . S
C457 C456 1.400 . S
C457 C458 1.398 . S
C458 H446 0.950 . S
C458 C457 1.398 . S
C458 C459 1.391 1_556 S
C459 H447 0.950 . S
C459 C455 1.393 . S
C459 C458 1.391 1_554 S
H460 C468 0.950 . S
H461 C473 0.950 . S
H462 C470 0.950 . S
H463 C472 0.950 . S
H464 C474 0.950 . S
H465 C476 0.950 . S
H466 C478 0.950 . S
H467 C479 0.950 1_556 S
C468 H460 0.950 . S
C468 C469 1.386 . S
C468 C470 1.391 . S
C469 C468 1.386 . S
C469 C473 1.393 . S
C470 H462 0.950 . S
C470 C468 1.391 . S
C470 C471 1.400 . S
C471 C470 1.400 . S
C471 C472 1.398 . S
C471 C477 1.491 . S
C472 H463 0.950 . S
C472 C471 1.398 . S
C472 C473 1.391 . S
C473 H461 0.950 . S
C473 C469 1.393 . S
C473 C472 1.391 . S
C474 H464 0.950 . S
C474 C475 1.386 . S
C474 C476 1.391 1_556 S
C475 C474 1.386 . S
C475 C479 1.393 1_556 S
C476 H465 0.950 . S
C476 C474 1.391 1_554 S
C476 C477 1.400 . S
C477 C471 1.491 . S
C477 C476 1.400 . S
C477 C478 1.398 . S
C478 H466 0.950 . S
C478 C477 1.398 . S
C478 C479 1.391 . S
C479 H467 0.950 1_554 S
C479 C475 1.393 1_554 S
C479 C478 1.391 . S
H480 C488 0.950 . S
H481 C493 0.950 . S
H482 C490 0.950 . S
H483 C492 0.950 . S
H484 C494 0.950 . S
H485 C496 0.950 . S
H486 C498 0.950 . S
H487 C499 0.950 . S
C488 H480 0.950 . S
C488 C489 1.386 . S
C488 C490 1.391 . S
C489 C488 1.386 . S
C489 C493 1.393 . S
C490 H482 0.950 . S
C490 C488 1.391 . S
C490 C491 1.400 . S
C491 C490 1.400 . S
C491 C492 1.398 . S
C491 C497 1.491 . S
C492 H483 0.950 . S
C492 C491 1.398 . S
C492 C493 1.391 . S
C493 H481 0.950 . S
C493 C489 1.393 . S
C493 C492 1.391 . S
C494 H484 0.950 . S
C494 C495 1.386 . S
C494 C496 1.391 . S
C495 C494 1.386 . S
C495 C499 1.393 . S
C496 H485 0.950 . S
C496 C494 1.391 . S
C496 C497 1.400 . S
C497 C491 1.491 . S
C497 C496 1.400 . S
C497 C498 1.398 . S
C498 H486 0.950 . S
C498 C497 1.398 . S
C498 C499 1.391 . S
C499 H487 0.950 . S
C499 C495 1.393 . S
C499 C498 1.391 . S
H500 C508 0.950 . S
H501 C513 0.950 . S
H502 C510 0.950 . S
H503 C512 0.950 . S
H504 C514 0.950 . S
H505 C516 0.950 . S
H506 C518 0.950 . S
H507 C519 0.950 . S
C508 H500 0.950 . S
C508 C509 1.386 . S
C508 C510 1.391 . S
C509 C508 1.386 . S
C509 C513 1.393 . S
C510 H502 0.950 . S
C510 C508 1.391 . S
C510 C511 1.400 . S
C511 C510 1.400 . S
C511 C512 1.398 . S
C511 C517 1.491 . S
C512 H503 0.950 . S
C512 C511 1.398 . S
C512 C513 1.391 . S
C513 H501 0.950 . S
C513 C509 1.393 . S
C513 C512 1.391 . S
C514 H504 0.950 . S
C514 C515 1.386 . S
C514 C516 1.391 . S
C515 C514 1.386 . S
C515 C519 1.393 . S
C516 H505 0.950 . S
C516 C514 1.391 . S
C516 C517 1.400 . S
C517 C511 1.491 . S
C517 C516 1.400 . S
C517 C518 1.398 . S
C518 H506 0.950 . S
C518 C517 1.398 . S
C518 C519 1.391 . S
C519 H507 0.950 . S
C519 C515 1.393 . S
C519 C518 1.391 . S
H520 C528 0.950 1_554 S
H521 C533 0.950 . S
H522 C530 0.950 1_554 S
H523 C532 0.950 . S
H524 C534 0.950 . S
H525 C536 0.950 . S
H526 C538 0.950 1_554 S
H527 C539 0.950 . S
C528 H520 0.950 1_556 S
C528 C529 1.386 . S
C528 C530 1.391 . S
C529 C528 1.386 . S
C529 C533 1.393 . S
C530 H522 0.950 1_556 S
C530 C528 1.391 . S
C530 C531 1.400 . S
C531 C530 1.400 . S
C531 C532 1.398 . S
C531 C537 1.491 . S
C532 H523 0.950 . S
C532 C531 1.398 . S
C532 C533 1.391 . S
C533 H521 0.950 . S
C533 C529 1.393 . S
C533 C532 1.391 . S
C534 H524 0.950 . S
C534 C535 1.386 . S
C534 C536 1.391 . S
C535 C534 1.386 . S
C535 C539 1.393 . S
C536 H525 0.950 . S
C536 C534 1.391 . S
C536 C537 1.400 . S
C537 C531 1.491 . S
C537 C536 1.400 . S
C537 C538 1.398 . S
C538 H526 0.950 1_556 S
C538 C537 1.398 . S
C538 C539 1.391 . S
C539 H527 0.950 . S
C539 C535 1.393 . S
C539 C538 1.391 . S
H540 C548 0.950 . S
H541 C553 0.950 . S
H542 C550 0.950 . S
H543 C552 0.950 . S
H544 C554 0.950 . S
H545 C556 0.950 . S
H546 C558 0.950 . S
H547 C559 0.950 . S
C548 H540 0.950 . S
C548 C549 1.386 . S
C548 C550 1.391 . S
C549 C548 1.386 . S
C549 C553 1.393 . S
C550 H542 0.950 . S
C550 C548 1.391 . S
C550 C551 1.400 . S
C551 C550 1.400 . S
C551 C552 1.398 . S
C551 C557 1.491 . S
C552 H543 0.950 . S
C552 C551 1.398 . S
C552 C553 1.391 . S
C553 H541 0.950 . S
C553 C549 1.393 . S
C553 C552 1.391 . S
C554 H544 0.950 . S
C554 C555 1.386 . S
C554 C556 1.391 . S
C555 C554 1.386 . S
C555 C559 1.393 . S
C556 H545 0.950 . S
C556 C554 1.391 . S
C556 C557 1.400 . S
C557 C551 1.491 . S
C557 C556 1.400 . S
C557 C558 1.398 . S
C558 H546 0.950 . S
C558 C557 1.398 . S
C558 C559 1.391 . S
C559 H547 0.950 . S
C559 C555 1.393 . S
C559 C558 1.391 . S
H560 C568 0.950 . S
H561 C573 0.950 . S
H562 C570 0.950 . S
H563 C572 0.950 . S
H564 C574 0.950 . S
H565 C576 0.950 . S
H566 C578 0.950 . S
H567 C579 0.950 . S
C568 H560 0.950 . S
C568 C569 1.386 . S
C568 C570 1.391 . S
C569 C568 1.386 . S
C569 C573 1.393 . S
C570 H562 0.950 . S
C570 C568 1.391 . S
C570 C571 1.400 . S
C571 C570 1.400 . S
C571 C572 1.398 . S
C571 C577 1.491 . S
C572 H563 0.950 . S
C572 C571 1.398 . S
C572 C573 1.391 . S
C573 H561 0.950 . S
C573 C569 1.393 . S
C573 C572 1.391 . S
C574 H564 0.950 . S
C574 C575 1.386 . S
C574 C576 1.391 . S
C575 C574 1.386 . S
C575 C579 1.393 . S
C576 H565 0.950 . S
C576 C574 1.391 . S
C576 C577 1.400 . S
C577 C571 1.491 . S
C577 C576 1.400 . S
C577 C578 1.398 . S
C578 H566 0.950 . S
C578 C577 1.398 . S
C578 C579 1.391 . S
C579 H567 0.950 . S
C579 C575 1.393 . S
C579 C578 1.391 . S
H580 C588 0.950 . S
H581 C593 0.950 . S
H582 C590 0.950 . S
H583 C592 0.950 . S
H584 C594 0.950 . S
H585 C596 0.950 . S
H586 C598 0.950 . S
H587 C599 0.950 . S
C588 H580 0.950 . S
C588 C589 1.386 . S
C588 C590 1.391 . S
C589 C588 1.386 . S
C589 C593 1.393 . S
C590 H582 0.950 . S
C590 C588 1.391 . S
C590 C591 1.400 . S
C591 C590 1.400 . S
C591 C592 1.398 . S
C591 C597 1.491 . S
C592 H583 0.950 . S
C592 C591 1.398 . S
C592 C593 1.391 . S
C593 H581 0.950 . S
C593 C589 1.393 . S
C593 C592 1.391 . S
C594 H584 0.950 . S
C594 C595 1.386 . S
C594 C596 1.391 . S
C595 C594 1.386 . S
C595 C599 1.393 . S
C596 H585 0.950 . S
C596 C594 1.391 . S
C596 C597 1.400 . S
C597 C591 1.491 . S
C597 C596 1.400 . S
C597 C598 1.398 . S
C598 H586 0.950 . S
C598 C597 1.398 . S
C598 C599 1.391 . S
C599 H587 0.950 . S
C599 C595 1.393 . S
C599 C598 1.391 . S
C249 C209 1.691 . S
C255 C6 1.649 . S
C269 C9 1.679 . S
C275 C46 1.629 . S
C289 C49 1.676 . S
C295 C86 1.639 . S
C309 C89 1.691 . S
C315 C126 1.648 . S
C329 C166 1.653 . S
C335 C129 1.686 . S
C349 C206 1.632 . S
C355 C169 1.682 . S
C369 C10 2.108 . S
C375 C19 2.108 . S
C389 C50 2.107 . S
C395 C59 2.107 . S
C409 C90 2.095 . S
C415 C99 2.095 . S
C429 C130 2.105 . S
C435 C139 2.105 . S
C449 C179 2.099 . S
C455 C170 2.099 . S
C469 C210 2.109 . S
C475 C219 2.109 . S
C489 C15 1.594 . S
C495 C178 1.578 . S
C509 C55 1.573 . S
C515 C218 1.578 . S
C529 C18 1.592 . S
C535 C95 1.566 . S
C549 C58 1.574 . S
C555 C135 1.593 . S
C569 C175 1.571 . S
C575 C98 1.580 . S
C589 C138 1.586 . S
C595 C215 1.591 . S
