# Generated by pormake.
# Topology vbm, (6)-cn, num edge types: 1
# Building blocks:
#     Node 0, Type 0, BuildingBlock: CUKXOW_clean_sbu_0, # of connection points: 6
#     Node 1, Type 0, BuildingBlock: CUKXOW_clean_sbu_0, # of connection points: 6
#     Node 2, Type 0, BuildingBlock: CUKXOW_clean_sbu_0, # of connection points: 6
#     Node 3, Type 0, BuildingBlock: CUKXOW_clean_sbu_0, # of connection points: 6
#     Node 4, Type 0, BuildingBlock: CUKXOW_clean_sbu_0, # of connection points: 6
#     Node 5, Type 0, BuildingBlock: CUKXOW_clean_sbu_0, # of connection points: 6
#     Node 6, Type 0, BuildingBlock: CUKXOW_clean_sbu_0, # of connection points: 6
#     Node 7, Type 0, BuildingBlock: CUKXOW_clean_sbu_0, # of connection points: 6
#     Node 8, Type 0, BuildingBlock: CUKXOW_clean_sbu_0, # of connection points: 6
#     Node 9, Type 0, BuildingBlock: CUKXOW_clean_sbu_0, # of connection points: 6
#     Node 10, Type 0, BuildingBlock: CUKXOW_clean_sbu_0, # of connection points: 6
#     Node 11, Type 0, BuildingBlock: CUKXOW_clean_sbu_0, # of connection points: 6
#     Node 12, Type 0, BuildingBlock: CUKXOW_clean_sbu_0, # of connection points: 6
#     Node 13, Type 0, BuildingBlock: CUKXOW_clean_sbu_0, # of connection points: 6
#     Node 14, Type 0, BuildingBlock: CUKXOW_clean_sbu_0, # of connection points: 6
#     Node 15, Type 0, BuildingBlock: CUKXOW_clean_sbu_0, # of connection points: 6
#     Edge 16, Type (0, 0), BuildingBlock: KIFKEQ_clean_linker_1, # of connection points: 2
#     Edge 17, Type (0, 0), BuildingBlock: KIFKEQ_clean_linker_1, # of connection points: 2
#     Edge 18, Type (0, 0), BuildingBlock: KIFKEQ_clean_linker_1, # of connection points: 2
#     Edge 19, Type (0, 0), BuildingBlock: KIFKEQ_clean_linker_1, # of connection points: 2
#     Edge 20, Type (0, 0), BuildingBlock: KIFKEQ_clean_linker_1, # of connection points: 2
#     Edge 21, Type (0, 0), BuildingBlock: KIFKEQ_clean_linker_1, # of connection points: 2
#     Edge 22, Type (0, 0), BuildingBlock: KIFKEQ_clean_linker_1, # of connection points: 2
#     Edge 23, Type (0, 0), BuildingBlock: KIFKEQ_clean_linker_1, # of connection points: 2
#     Edge 24, Type (0, 0), BuildingBlock: KIFKEQ_clean_linker_1, # of connection points: 2
#     Edge 25, Type (0, 0), BuildingBlock: KIFKEQ_clean_linker_1, # of connection points: 2
#     Edge 26, Type (0, 0), BuildingBlock: KIFKEQ_clean_linker_1, # of connection points: 2
#     Edge 27, Type (0, 0), BuildingBlock: KIFKEQ_clean_linker_1, # of connection points: 2
#     Edge 28, Type (0, 0), BuildingBlock: KIFKEQ_clean_linker_1, # of connection points: 2
#     Edge 29, Type (0, 0), BuildingBlock: KIFKEQ_clean_linker_1, # of connection points: 2
#     Edge 30, Type (0, 0), BuildingBlock: KIFKEQ_clean_linker_1, # of connection points: 2
#     Edge 31, Type (0, 0), BuildingBlock: KIFKEQ_clean_linker_1, # of connection points: 2
#     Edge 32, Type (0, 0), BuildingBlock: KIFKEQ_clean_linker_1, # of connection points: 2
#     Edge 33, Type (0, 0), BuildingBlock: KIFKEQ_clean_linker_1, # of connection points: 2
#     Edge 34, Type (0, 0), BuildingBlock: KIFKEQ_clean_linker_1, # of connection points: 2
#     Edge 35, Type (0, 0), BuildingBlock: KIFKEQ_clean_linker_1, # of connection points: 2
#     Edge 36, Type (0, 0), BuildingBlock: KIFKEQ_clean_linker_1, # of connection points: 2
#     Edge 37, Type (0, 0), BuildingBlock: KIFKEQ_clean_linker_1, # of connection points: 2
#     Edge 38, Type (0, 0), BuildingBlock: KIFKEQ_clean_linker_1, # of connection points: 2
#     Edge 39, Type (0, 0), BuildingBlock: KIFKEQ_clean_linker_1, # of connection points: 2
#     Edge 40, Type (0, 0), BuildingBlock: KIFKEQ_clean_linker_1, # of connection points: 2
#     Edge 41, Type (0, 0), BuildingBlock: KIFKEQ_clean_linker_1, # of connection points: 2
#     Edge 42, Type (0, 0), BuildingBlock: KIFKEQ_clean_linker_1, # of connection points: 2
#     Edge 43, Type (0, 0), BuildingBlock: KIFKEQ_clean_linker_1, # of connection points: 2
#     Edge 44, Type (0, 0), BuildingBlock: KIFKEQ_clean_linker_1, # of connection points: 2
#     Edge 45, Type (0, 0), BuildingBlock: KIFKEQ_clean_linker_1, # of connection points: 2
#     Edge 46, Type (0, 0), BuildingBlock: KIFKEQ_clean_linker_1, # of connection points: 2
#     Edge 47, Type (0, 0), BuildingBlock: KIFKEQ_clean_linker_1, # of connection points: 2
#     Edge 48, Type (0, 0), BuildingBlock: KIFKEQ_clean_linker_1, # of connection points: 2
#     Edge 49, Type (0, 0), BuildingBlock: KIFKEQ_clean_linker_1, # of connection points: 2
#     Edge 50, Type (0, 0), BuildingBlock: KIFKEQ_clean_linker_1, # of connection points: 2
#     Edge 51, Type (0, 0), BuildingBlock: KIFKEQ_clean_linker_1, # of connection points: 2
#     Edge 52, Type (0, 0), BuildingBlock: KIFKEQ_clean_linker_1, # of connection points: 2
#     Edge 53, Type (0, 0), BuildingBlock: KIFKEQ_clean_linker_1, # of connection points: 2
#     Edge 54, Type (0, 0), BuildingBlock: KIFKEQ_clean_linker_1, # of connection points: 2
#     Edge 55, Type (0, 0), BuildingBlock: KIFKEQ_clean_linker_1, # of connection points: 2
#     Edge 56, Type (0, 0), BuildingBlock: KIFKEQ_clean_linker_1, # of connection points: 2
#     Edge 57, Type (0, 0), BuildingBlock: KIFKEQ_clean_linker_1, # of connection points: 2
#     Edge 58, Type (0, 0), BuildingBlock: KIFKEQ_clean_linker_1, # of connection points: 2
#     Edge 59, Type (0, 0), BuildingBlock: KIFKEQ_clean_linker_1, # of connection points: 2
#     Edge 60, Type (0, 0), BuildingBlock: KIFKEQ_clean_linker_1, # of connection points: 2
#     Edge 61, Type (0, 0), BuildingBlock: KIFKEQ_clean_linker_1, # of connection points: 2
#     Edge 62, Type (0, 0), BuildingBlock: KIFKEQ_clean_linker_1, # of connection points: 2
#     Edge 63, Type (0, 0), BuildingBlock: KIFKEQ_clean_linker_1, # of connection points: 2
# Relax obj value: 0.128
# Max RMSD: 0.179
# Mean RMSD: 0.179
data_MOF--net-vbm--node1-CUKXOW_clean_sbu_0--edge1-KIFKEQ_clean_linker_1
_symmetry_space_group_name_H-M    P1
_symmetry_Int_Tables_number       1
_symmetry_cell_setting            triclinic
loop_
_symmetry_equiv_pos_as_xyz
'x, y, z'
_cell_length_a     72.441934
_cell_length_b     14.794104
_cell_length_c     61.874777
_cell_angle_alpha  89.777709
_cell_angle_beta   89.98966
_cell_angle_gamma 90.044072
loop_
_atom_site_label
_atom_site_type_symbol
_atom_site_fract_x
_atom_site_fract_y
_atom_site_fract_z
_atom_type_partial_charge
Tb0 Tb 0.09962 0.12251 0.12266 0.0
C1 C 0.11983 0.15091 0.07813 0.0
Tb2 Tb 0.14329 0.15224 0.12164 0.0
O3 O 0.09193 0.26718 0.12411 0.0
O4 O 0.11889 0.22987 0.12277 0.0
O5 O 0.10531 0.11524 0.0882 0.0
C6 C 0.17743 0.21944 0.11981 0.0
O7 O 0.13473 0.18136 0.08843 0.0
C8 C 0.13454 0.97662 0.1214 0.0
C9 C 0.12339 0.10907 0.16574 0.0
O10 O 0.16977 0.16855 0.10533 0.0
O11 O 0.16568 0.23442 0.13531 0.0
O12 O 0.15126 1.00809 0.12176 0.0
O13 O 0.12409 0.04483 0.12124 0.0
O14 O 0.13772 0.14959 0.15631 0.0
O15 O 0.10855 0.08154 0.15491 0.0
C16 C 0.06476 0.06517 0.12506 0.0
O17 O 0.07396 0.10363 0.14048 0.0
O18 O 0.07545 0.05597 0.10829 0.0
C19 C 0.10863 0.29834 0.1237 0.0
Tb20 Tb 0.89097 0.96578 0.12299 0.0
C21 C 0.87082 0.93916 0.07865 0.0
Tb22 Tb 0.84732 0.93517 0.12191 0.0
O23 O 0.8987 0.82084 0.12248 0.0
O24 O 0.87179 0.85819 0.12346 0.0
O25 O 0.88484 0.97882 0.08873 0.0
C26 C 0.81325 0.86697 0.12037 0.0
O27 O 0.85641 0.90363 0.08904 0.0
C28 C 0.85598 0.11098 0.12064 0.0
C29 C 0.86714 0.97805 0.16611 0.0
O30 O 0.8211 0.91466 0.10531 0.0
O31 O 0.82477 0.85578 0.13628 0.0
O32 O 0.83927 0.07924 0.12032 0.0
O33 O 0.86644 0.04302 0.12161 0.0
O34 O 0.85271 0.93887 0.15662 0.0
O35 O 0.88215 1.00441 0.15538 0.0
C36 C 0.92585 1.02257 0.12555 0.0
O37 O 0.9167 0.9822 0.14082 0.0
O38 O 0.91511 1.03402 0.1089 0.0
C39 C 0.88201 0.78951 0.12292 0.0
Tb40 Tb 0.09975 0.97313 0.37034 0.0
C41 C 0.1208 0.95103 0.4147 0.0
Tb42 Tb 0.14357 0.94396 0.37076 0.0
O43 O 0.09213 0.82834 0.36937 0.0
O44 O 0.11907 0.86629 0.37044 0.0
O45 O 0.10604 0.98435 0.40464 0.0
C46 C 0.17786 0.87877 0.37182 0.0
O47 O 0.13568 0.92037 0.40441 0.0
C48 C 0.13456 0.1193 0.37035 0.0
C49 C 0.12332 0.98628 0.32686 0.0
O50 O 0.17166 0.94526 0.38332 0.0
O51 O 0.16457 0.84697 0.35987 0.0
O52 O 0.1513 0.08835 0.36965 0.0
O53 O 0.12421 0.05068 0.37102 0.0
O54 O 0.13786 0.94729 0.33617 0.0
O55 O 0.1084 1.01244 0.33777 0.0
C56 C 0.06472 1.02859 0.36828 0.0
O57 O 0.07401 0.99227 0.35265 0.0
O58 O 0.07542 1.03701 0.38506 0.0
C59 C 0.10884 0.79751 0.36972 0.0
Tb60 Tb 0.89049 0.11441 0.3705 0.0
C61 C 0.86968 0.13851 0.41482 0.0
Tb62 Tb 0.84665 0.14304 0.37106 0.0
O63 O 0.89805 0.25922 0.37113 0.0
O64 O 0.87111 0.22101 0.37015 0.0
O65 O 0.88428 0.1034 0.40483 0.0
C66 C 0.81219 0.20649 0.37205 0.0
O67 O 0.85486 0.16978 0.40444 0.0
C68 C 0.85571 0.96791 0.37184 0.0
C69 C 0.86677 0.10054 0.32707 0.0
O70 O 0.81872 0.14246 0.38418 0.0
O71 O 0.82523 0.23687 0.35948 0.0
O72 O 0.83895 0.99866 0.37176 0.0
O73 O 0.86607 1.03646 0.3713 0.0
O74 O 0.85206 0.13767 0.33641 0.0
O75 O 0.8819 0.07648 0.33789 0.0
C76 C 0.92554 0.06004 0.36792 0.0
O77 O 0.91642 0.10215 0.35291 0.0
O78 O 0.91465 0.04529 0.38433 0.0
C79 C 0.88133 0.28992 0.37071 0.0
Tb80 Tb 0.84701 0.93906 0.87115 0.0
C81 C 0.86712 0.98223 0.82718 0.0
Tb82 Tb 0.8908 0.96848 0.87049 0.0
O83 O 0.83931 0.08349 0.8701 0.0
O84 O 0.86636 0.04581 0.87159 0.0
O85 O 0.85261 0.94281 0.83651 0.0
C86 C 0.92571 1.02512 0.86817 0.0
O87 O 0.88202 1.00866 0.83808 0.0
C88 C 0.88174 0.79285 0.86964 0.0
C89 C 0.87013 0.94256 0.91496 0.0
O90 O 0.91652 0.98649 0.85276 0.0
O91 O 0.91497 1.03501 0.88488 0.0
O92 O 0.89845 0.82387 0.8693 0.0
O93 O 0.87148 0.86146 0.87044 0.0
O94 O 0.88486 0.97634 0.9049 0.0
O95 O 0.85508 0.91354 0.9047 0.0
C96 C 0.81266 0.87481 0.87242 0.0
O97 O 0.81907 0.94024 0.88411 0.0
O98 O 0.82577 0.84341 0.86016 0.0
C99 C 0.85606 0.11447 0.87083 0.0
Tb100 Tb 0.14326 0.14834 0.87108 0.0
C101 C 0.12323 0.10454 0.82705 0.0
Tb102 Tb 0.0996 0.11792 0.87027 0.0
O103 O 0.15128 1.00425 0.87274 0.0
O104 O 0.12412 1.04059 0.87157 0.0
O105 O 0.1377 0.14405 0.83639 0.0
C106 C 0.06469 0.06166 0.86787 0.0
O107 O 0.10829 0.07832 0.83792 0.0
C108 C 0.10856 0.29416 0.87007 0.0
C109 C 0.11988 0.14537 0.91448 0.0
O110 O 0.07387 0.10113 0.8525 0.0
O111 O 0.07542 0.05074 0.88455 0.0
O112 O 0.09188 0.26282 0.87053 0.0
O113 O 0.11881 0.22551 0.8697 0.0
O114 O 0.10583 0.10544 0.9045 0.0
O115 O 0.13428 0.18049 0.90399 0.0
C116 C 0.17741 0.21585 0.87237 0.0
O117 O 0.16962 0.16802 0.88744 0.0
O118 O 0.16578 0.22766 0.85659 0.0
C119 C 0.13457 0.97259 0.87252 0.0
Tb120 Tb 0.84713 0.14696 0.62195 0.0
C121 C 0.86766 0.10476 0.66602 0.0
Tb122 Tb 0.89079 0.11684 0.62241 0.0
O123 O 0.83911 1.00275 0.62051 0.0
O124 O 0.86628 1.03937 0.62121 0.0
O125 O 0.85297 0.14201 0.65657 0.0
C126 C 0.92572 0.05863 0.62122 0.0
O127 O 0.8828 0.08048 0.6553 0.0
C128 C 0.88196 0.29303 0.62345 0.0
C129 C 0.86966 0.13941 0.57854 0.0
O130 O 0.91602 0.07045 0.63864 0.0
O131 O 0.91549 0.07635 0.60451 0.0
O132 O 0.89862 0.26152 0.62346 0.0
O133 O 0.87162 0.22464 0.62317 0.0
O134 O 0.88326 0.09661 0.58871 0.0
O135 O 0.85584 0.17913 0.589 0.0
C136 C 0.81292 0.21435 0.62085 0.0
O137 O 0.82069 0.16731 0.60572 0.0
O138 O 0.82461 0.22542 0.63659 0.0
C139 C 0.85583 0.9713 0.62049 0.0
Tb140 Tb 0.14379 0.94136 0.62202 0.0
C141 C 0.12288 0.98055 0.66609 0.0
Tb142 Tb 0.10002 0.97142 0.62203 0.0
O143 O 0.15165 0.08588 0.62122 0.0
O144 O 0.12453 0.04844 0.62105 0.0
O145 O 0.138 0.94783 0.65663 0.0
C146 C 0.06506 1.02857 0.61955 0.0
O147 O 0.10742 1.0012 0.65546 0.0
C148 C 0.10888 0.79541 0.62345 0.0
C149 C 0.12175 0.95397 0.57842 0.0
O150 O 0.07545 1.0333 0.63666 0.0
O151 O 0.07464 0.99491 0.6038 0.0
O152 O 0.09221 0.82687 0.62364 0.0
O153 O 0.11923 0.86387 0.62293 0.0
O154 O 0.10819 0.99665 0.58864 0.0
O155 O 0.13545 0.91286 0.58884 0.0
C156 C 0.17803 0.87474 0.62076 0.0
O157 O 0.17147 0.9371 0.60815 0.0
O158 O 0.16517 0.84828 0.63406 0.0
C159 C 0.1349 0.1169 0.62076 0.0
Tb160 Tb 0.59985 0.6166 0.12291 0.0
C161 C 0.6201 0.64276 0.07846 0.0
Tb162 Tb 0.64349 0.64728 0.12183 0.0
O163 O 0.59207 0.76137 0.12413 0.0
O164 O 0.61902 0.72439 0.12289 0.0
O165 O 0.60595 0.60428 0.08864 0.0
C166 C 0.67755 0.71542 0.12004 0.0
O167 O 0.63463 0.67725 0.08874 0.0
C168 C 0.63484 0.47137 0.1216 0.0
C169 C 0.62361 0.60417 0.166 0.0
O170 O 0.66996 0.66442 0.10552 0.0
O171 O 0.66577 0.72994 0.13553 0.0
O172 O 0.65155 0.50311 0.12183 0.0
O173 O 0.62438 0.53945 0.12153 0.0
O174 O 0.63791 0.64478 0.15652 0.0
O175 O 0.60877 0.57631 0.15521 0.0
C176 C 0.56499 0.55895 0.12504 0.0
O177 O 0.57434 0.59377 0.14083 0.0
O178 O 0.57553 0.55347 0.10806 0.0
C179 C 0.60875 0.7928 0.12371 0.0
Tb180 Tb 0.39117 0.46304 0.12234 0.0
C181 C 0.37108 0.43481 0.07802 0.0
Tb182 Tb 0.34751 0.43245 0.12123 0.0
O183 O 0.39888 0.31809 0.12184 0.0
O184 O 0.37197 0.35551 0.1229 0.0
O185 O 0.3851 0.4749 0.08804 0.0
C186 C 0.31339 0.36484 0.11973 0.0
O187 O 0.35665 0.39972 0.08846 0.0
C188 C 0.35618 0.60827 0.11985 0.0
C189 C 0.36729 0.47541 0.16541 0.0
O190 O 0.3213 0.41189 0.10461 0.0
O191 O 0.32489 0.35388 0.13569 0.0
O192 O 0.33948 0.57653 0.11952 0.0
O193 O 0.36664 0.5403 0.12087 0.0
O194 O 0.35289 0.43606 0.15593 0.0
O195 O 0.38229 0.50192 0.15469 0.0
C196 C 0.42604 0.51963 0.12514 0.0
O197 O 0.41686 0.47839 0.14025 0.0
O198 O 0.41532 0.53204 0.10849 0.0
C199 C 0.38219 0.28679 0.12234 0.0
Tb200 Tb 0.59945 0.4695 0.37054 0.0
C201 C 0.62005 0.44465 0.41488 0.0
Tb202 Tb 0.64325 0.43989 0.3714 0.0
O203 O 0.59181 0.32458 0.37136 0.0
O204 O 0.61873 0.36253 0.37034 0.0
O205 O 0.60584 0.48299 0.40475 0.0
C206 C 0.67766 0.37585 0.37247 0.0
O207 O 0.63459 0.41036 0.40458 0.0
C208 C 0.63429 0.61534 0.37214 0.0
C209 C 0.62335 0.48357 0.32724 0.0
O210 O 0.67106 0.43847 0.38486 0.0
O211 O 0.6647 0.34719 0.35961 0.0
O212 O 0.65103 0.58429 0.37229 0.0
O213 O 0.62392 0.5469 0.37146 0.0
O214 O 0.63798 0.44599 0.33672 0.0
O215 O 0.60819 0.50786 0.33795 0.0
C216 C 0.56442 0.52444 0.36787 0.0
O217 O 0.57371 0.48511 0.35264 0.0
O218 O 0.57513 0.53612 0.38454 0.0
C219 C 0.60852 0.29365 0.37097 0.0
Tb220 Tb 0.39017 0.60881 0.37 0.0
C221 C 0.36901 0.63118 0.41402 0.0
Tb222 Tb 0.34637 0.63837 0.37021 0.0
O223 O 0.3978 0.75369 0.37101 0.0
O224 O 0.37089 0.71581 0.36956 0.0
O225 O 0.38335 0.59334 0.40409 0.0
C226 C 0.31199 0.70253 0.37117 0.0
O227 O 0.35465 0.66636 0.40351 0.0
C228 C 0.35532 0.4629 0.37102 0.0
C229 C 0.3667 0.5964 0.32637 0.0
O230 O 0.31852 0.63933 0.38355 0.0
O231 O 0.32498 0.73161 0.35836 0.0
O232 O 0.33858 0.49395 0.37089 0.0
O233 O 0.3657 0.53134 0.37054 0.0
O234 O 0.35198 0.63376 0.33563 0.0
O235 O 0.38174 0.57169 0.33728 0.0
C236 C 0.42522 0.55407 0.36762 0.0
O237 O 0.41597 0.59325 0.35227 0.0
O238 O 0.41446 0.54244 0.38427 0.0
C239 C 0.38111 0.78465 0.37036 0.0
Tb240 Tb 0.34748 0.43239 0.87084 0.0
C241 C 0.36766 0.47919 0.827 0.0
Tb242 Tb 0.39117 0.46182 0.87025 0.0
O243 O 0.33952 0.57634 0.87239 0.0
O244 O 0.36671 0.53967 0.87156 0.0
O245 O 0.35311 0.43941 0.83615 0.0
C246 C 0.42609 0.51784 0.8678 0.0
O247 O 0.3826 0.504 0.83801 0.0
C248 C 0.38211 0.28593 0.86973 0.0
C249 C 0.37079 0.4324 0.91445 0.0
O250 O 0.41698 0.47754 0.85257 0.0
O251 O 0.41529 0.52963 0.88438 0.0
O252 O 0.39881 0.317 0.87019 0.0
O253 O 0.37186 0.35464 0.86949 0.0
O254 O 0.3852 0.46988 0.90456 0.0
O255 O 0.35607 0.4009 0.90396 0.0
C256 C 0.31331 0.365 0.87212 0.0
O257 O 0.32105 0.41298 0.8871 0.0
O258 O 0.32499 0.35301 0.85641 0.0
C259 C 0.35625 0.6077 0.8724 0.0
Tb260 Tb 0.64366 0.64353 0.87103 0.0
C261 C 0.62356 0.60152 0.827 0.0
Tb262 Tb 0.59988 0.61463 0.87044 0.0
O263 O 0.65138 0.4992 0.87173 0.0
O264 O 0.62426 0.53677 0.87124 0.0
O265 O 0.63826 0.63866 0.83636 0.0
C266 C 0.56498 0.55855 0.86782 0.0
O267 O 0.60846 0.577 0.83784 0.0
C268 C 0.60896 0.79022 0.87054 0.0
C269 C 0.62055 0.63983 0.91477 0.0
O270 O 0.57403 0.60106 0.85281 0.0
O271 O 0.57584 0.54459 0.88428 0.0
O272 O 0.59224 0.75926 0.87087 0.0
O273 O 0.61923 0.72151 0.87017 0.0
O274 O 0.60597 0.60451 0.90479 0.0
O275 O 0.63542 0.6707 0.9044 0.0
C276 C 0.6781 0.7069 0.87207 0.0
O277 O 0.67148 0.64365 0.88439 0.0
O278 O 0.66516 0.7366 0.85929 0.0
C279 C 0.63462 0.46831 0.87178 0.0
Tb280 Tb 0.34736 0.63856 0.6228 0.0
C281 C 0.36886 0.61404 0.66645 0.0
Tb282 Tb 0.38976 0.61428 0.6216 0.0
O283 O 0.34381 0.50274 0.63577 0.0
O284 O 0.36621 0.52979 0.6156 0.0
O285 O 0.35416 0.65063 0.65699 0.0
C286 C 0.42502 0.56247 0.61821 0.0
O287 O 0.38348 0.58576 0.65541 0.0
C288 C 0.38133 0.78953 0.62525 0.0
C289 C 0.36794 0.63219 0.5777 0.0
O290 O 0.4136 0.53503 0.63312 0.0
O291 O 0.41635 0.61611 0.60511 0.0
O292 O 0.3979 0.75736 0.62507 0.0
O293 O 0.37077 0.72201 0.62411 0.0
O294 O 0.38284 0.6002 0.58757 0.0
O295 O 0.35304 0.65927 0.5884 0.0
C296 C 0.31213 0.69208 0.62083 0.0
O297 O 0.31859 0.61684 0.61324 0.0
O298 O 0.32558 0.73801 0.62931 0.0
C299 C 0.35883 0.4698 0.62755 0.0
Tb300 Tb 0.64285 0.43422 0.62209 0.0
C301 C 0.62272 0.478 0.66611 0.0
Tb302 Tb 0.59912 0.46356 0.62288 0.0
O303 O 0.65077 0.57843 0.62054 0.0
O304 O 0.6236 0.54141 0.62149 0.0
O305 O 0.63723 0.43917 0.65674 0.0
C306 C 0.5642 0.52165 0.62324 0.0
O307 O 0.60766 0.50322 0.65532 0.0
C308 C 0.6081 0.28767 0.62359 0.0
C309 C 0.61976 0.43692 0.5786 0.0
O310 O 0.57308 0.48907 0.63975 0.0
O311 O 0.57524 0.52461 0.60668 0.0
O312 O 0.5914 0.31883 0.62352 0.0
O313 O 0.6184 0.35624 0.62347 0.0
O314 O 0.60548 0.47471 0.58859 0.0
O315 O 0.63433 0.40358 0.58903 0.0
C316 C 0.67709 0.36734 0.62096 0.0
O317 O 0.66936 0.41558 0.60594 0.0
O318 O 0.66535 0.35478 0.63661 0.0
C319 C 0.63403 0.60963 0.62063 0.0
H320 H 0.19706 0.30387 0.1517 0.0
H321 H 0.20212 0.1924 0.08761 0.0
H322 H 0.23023 0.33717 0.15189 0.0
H323 H 0.23511 0.22439 0.08783 0.0
H324 H 0.28905 0.38508 0.08683 0.0
H325 H 0.25604 0.35349 0.08705 0.0
H326 H 0.2602 0.25488 0.15269 0.0
H327 H 0.29338 0.28779 0.15249 0.0
C328 C 0.20525 0.28713 0.13763 0.0
C329 C 0.19706 0.24596 0.11961 0.0
C330 C 0.22424 0.30532 0.1378 0.0
C331 C 0.23531 0.28316 0.11989 0.0
C332 C 0.22696 0.24317 0.10179 0.0
C333 C 0.20807 0.22467 0.10167 0.0
C334 C 0.28294 0.35599 0.10125 0.0
C335 C 0.29375 0.33855 0.11962 0.0
C336 C 0.26404 0.33774 0.10137 0.0
C337 C 0.25548 0.30185 0.1199 0.0
C338 C 0.26635 0.28356 0.13825 0.0
C339 C 0.28535 0.30152 0.13809 0.0
H340 H 0.78891 0.88673 0.08743 0.0
H341 H 0.79333 0.78844 0.15301 0.0
H342 H 0.75597 0.85343 0.08754 0.0
H343 H 0.76022 0.75388 0.15309 0.0
H344 H 0.69699 0.80029 0.15201 0.0
H345 H 0.73009 0.83502 0.15228 0.0
H346 H 0.73528 0.7231 0.08817 0.0
H347 H 0.70234 0.68961 0.08787 0.0
C348 C 0.78284 0.85709 0.10181 0.0
C349 C 0.79365 0.83986 0.12019 0.0
C350 C 0.76397 0.83785 0.10186 0.0
C351 C 0.75546 0.80119 0.12034 0.0
C352 C 0.76634 0.78313 0.1387 0.0
C353 C 0.78529 0.80205 0.1386 0.0
C354 C 0.70523 0.78401 0.13794 0.0
C355 C 0.69714 0.74266 0.11989 0.0
C356 C 0.72418 0.80303 0.13816 0.0
C357 C 0.73532 0.78154 0.12027 0.0
C358 C 0.72707 0.74135 0.10212 0.0
C359 C 0.70821 0.72201 0.10196 0.0
H360 H 0.2969 0.85447 0.353 0.0
H361 H 0.28298 0.61044 0.38788 0.0
H362 H 0.26409 0.89686 0.3523 0.0
H363 H 0.2503 0.65146 0.38661 0.0
H364 H 0.19249 0.72236 0.35563 0.0
H365 H 0.22527 0.67939 0.3546 0.0
H366 H 0.23987 0.93228 0.38464 0.0
H367 H 0.20725 0.974 0.38625 0.0
C368 C 0.28683 0.80995 0.36041 0.0
C369 C 0.29241 0.72958 0.37059 0.0
C370 C 0.26813 0.83406 0.36001 0.0
C371 C 0.25474 0.77698 0.3693 0.0
C372 C 0.26035 0.69609 0.37918 0.0
C373 C 0.27903 0.67309 0.38002 0.0
C374 C 0.20274 0.76838 0.36204 0.0
C375 C 0.1974 0.85113 0.37112 0.0
C376 C 0.22142 0.74395 0.36145 0.0
C377 C 0.23502 0.80295 0.36943 0.0
C378 C 0.22965 0.8861 0.37822 0.0
C379 C 0.211 0.90953 0.37927 0.0
H380 H 0.79699 0.36032 0.35488 0.0
H381 H 0.78318 0.11106 0.38763 0.0
H382 H 0.76409 0.4015 0.35413 0.0
H383 H 0.75045 0.15085 0.38626 0.0
H384 H 0.6929 0.2245 0.35444 0.0
H385 H 0.7258 0.18359 0.35345 0.0
H386 H 0.73939 0.42957 0.38715 0.0
H387 H 0.70664 0.46903 0.38876 0.0
C388 C 0.78693 0.3144 0.36181 0.0
C389 C 0.79257 0.23289 0.37142 0.0
C390 C 0.76818 0.33781 0.36138 0.0
C391 C 0.75482 0.2789 0.37003 0.0
C392 C 0.76048 0.19691 0.37933 0.0
C393 C 0.7792 0.1746 0.38023 0.0
C394 C 0.70295 0.26944 0.36167 0.0
C395 C 0.69728 0.34951 0.37178 0.0
C396 C 0.72169 0.24619 0.36109 0.0
C397 C 0.73504 0.3039 0.37011 0.0
C398 C 0.72936 0.38448 0.37993 0.0
C399 C 0.71064 0.40657 0.38097 0.0
H400 H 0.69352 0.85848 0.85404 0.0
H401 H 0.7069 0.61278 0.88849 0.0
H402 H 0.72646 0.8989 0.85321 0.0
H403 H 0.73968 0.65182 0.88708 0.0
H404 H 0.79753 0.72045 0.8557 0.0
H405 H 0.76461 0.67963 0.85468 0.0
H406 H 0.75088 0.93124 0.88581 0.0
H407 H 0.78361 0.97076 0.88742 0.0
C408 C 0.7035 0.81319 0.86133 0.0
C409 C 0.69773 0.73293 0.87143 0.0
C410 C 0.72226 0.83615 0.86084 0.0
C411 C 0.73552 0.77801 0.86997 0.0
C412 C 0.72973 0.69723 0.87978 0.0
C413 C 0.71099 0.67538 0.88071 0.0
C414 C 0.78744 0.76663 0.86236 0.0
C415 C 0.79305 0.84836 0.87174 0.0
C416 C 0.76869 0.74345 0.86176 0.0
C417 C 0.7553 0.80276 0.87005 0.0
C418 C 0.76094 0.8849 0.87915 0.0
C419 C 0.77965 0.90704 0.8802 0.0
H420 H 0.29357 0.28446 0.8397 0.0
H421 H 0.2887 0.38757 0.90462 0.0
H422 H 0.26044 0.25016 0.83951 0.0
H423 H 0.25576 0.35476 0.90438 0.0
H424 H 0.20204 0.19314 0.90489 0.0
H425 H 0.235 0.22568 0.90453 0.0
H426 H 0.23029 0.33008 0.83945 0.0
H427 H 0.19715 0.29607 0.83978 0.0
C428 C 0.28543 0.29922 0.85394 0.0
C429 C 0.29367 0.33825 0.8722 0.0
C430 C 0.26646 0.28045 0.85378 0.0
C431 C 0.25545 0.29993 0.87192 0.0
C432 C 0.26385 0.33796 0.89024 0.0
C433 C 0.28273 0.35696 0.89036 0.0
C434 C 0.20801 0.22366 0.89056 0.0
C435 C 0.19705 0.24243 0.87239 0.0
C436 C 0.2269 0.24248 0.89037 0.0
C437 C 0.23529 0.28038 0.87195 0.0
C438 C 0.22427 0.29988 0.85379 0.0
C439 C 0.2053 0.28129 0.85403 0.0
H440 H 0.69673 0.2857 0.65345 0.0
H441 H 0.70183 0.39073 0.58855 0.0
H442 H 0.72982 0.25051 0.6537 0.0
H443 H 0.73474 0.35698 0.58884 0.0
H444 H 0.78823 0.1937 0.58832 0.0
H445 H 0.75532 0.22747 0.58866 0.0
H446 H 0.76016 0.32863 0.65383 0.0
H447 H 0.79324 0.29343 0.65352 0.0
C448 C 0.70492 0.30074 0.63922 0.0
C449 C 0.69673 0.3405 0.62095 0.0
C450 C 0.72387 0.28144 0.63943 0.0
C451 C 0.73494 0.30108 0.6213 0.0
C452 C 0.72661 0.33999 0.60297 0.0
C453 C 0.70775 0.35954 0.60282 0.0
C454 C 0.7823 0.22375 0.60267 0.0
C455 C 0.79328 0.24128 0.62086 0.0
C456 C 0.76344 0.2433 0.60286 0.0
C457 C 0.75508 0.28071 0.62128 0.0
C458 C 0.76613 0.29887 0.63947 0.0
C459 C 0.78508 0.27957 0.63924 0.0
H460 H 0.20691 0.9577 0.60117 0.0
H461 H 0.19304 0.72597 0.64057 0.0
H462 H 0.23938 0.91336 0.60172 0.0
H463 H 0.22566 0.68037 0.64077 0.0
H464 H 0.2825 0.58672 0.61105 0.0
H465 H 0.24982 0.62902 0.6117 0.0
H466 H 0.26479 0.89921 0.63115 0.0
H467 H 0.29748 0.85647 0.63084 0.0
C468 C 0.21081 0.89693 0.60986 0.0
C469 C 0.19749 0.84512 0.62082 0.0
C470 C 0.2294 0.87194 0.61027 0.0
C471 C 0.23503 0.79363 0.62133 0.0
C472 C 0.22166 0.74092 0.63206 0.0
C473 C 0.20306 0.767 0.63199 0.0
C474 C 0.27879 0.65511 0.61547 0.0
C475 C 0.29248 0.71849 0.62084 0.0
C476 C 0.26011 0.67905 0.61598 0.0
C477 C 0.2548 0.76728 0.62149 0.0
C478 C 0.26852 0.83084 0.62672 0.0
C479 C 0.28719 0.80643 0.62658 0.0
H480 H 0.096 0.05842 0.30167 0.0
H481 H 0.15182 0.95609 0.2984 0.0
H482 H 0.09666 0.0894 0.2631 0.0
H483 H 0.15232 0.98614 0.25954 0.0
H484 H 0.15173 0.14221 0.19428 0.0
H485 H 0.15217 0.11288 0.23319 0.0
H486 H 0.09688 1.00477 0.22946 0.0
H487 H 0.09627 1.03496 0.19089 0.0
C488 C 0.10842 0.04221 0.29276 0.0
C489 C 0.12385 1.00441 0.30323 0.0
C490 C 0.10875 0.05963 0.27056 0.0
C491 C 0.12451 1.0399 0.2582 0.0
C492 C 0.14002 1.00286 0.26864 0.0
C493 C 0.13968 0.98508 0.2909 0.0
C494 C 0.13966 0.11231 0.20176 0.0
C495 C 0.12395 0.09133 0.18938 0.0
C496 C 0.13996 0.09498 0.22405 0.0
C497 C 0.12453 0.0568 0.23446 0.0
C498 C 0.1089 1.03548 0.22204 0.0
C499 C 0.10861 0.05243 0.19983 0.0
H500 H 0.83821 0.12968 0.29853 0.0
H501 H 0.89416 1.02901 0.30202 0.0
H502 H 0.8378 0.09967 0.25971 0.0
H503 H 0.89357 0.99802 0.26352 0.0
H504 H 0.89415 0.05219 0.19127 0.0
H505 H 0.89339 0.08227 0.22979 0.0
H506 H 0.83811 0.97376 0.23346 0.0
H507 H 0.8387 0.9446 0.19459 0.0
C508 C 0.8504 0.10104 0.29109 0.0
C509 C 0.86625 0.08225 0.30347 0.0
C510 C 0.85011 0.08328 0.26885 0.0
C511 C 0.86568 0.04676 0.25848 0.0
C512 C 0.88144 1.02745 0.27091 0.0
C513 C 0.88173 0.0449 0.29307 0.0
C514 C 0.88178 1.03457 0.20019 0.0
C515 C 0.86649 0.99562 0.18973 0.0
C516 C 0.8814 0.05147 0.22237 0.0
C517 C 0.86573 1.03001 0.23476 0.0
C518 C 0.85035 0.99178 0.22434 0.0
C519 C 0.85073 0.97455 0.20208 0.0
H520 H 0.89502 1.03398 0.69139 0.0
H521 H 0.83906 0.1348 0.69436 0.0
H522 H 0.89427 1.00341 0.72997 0.0
H523 H 0.83849 0.10522 0.73323 0.0
H524 H 0.83889 0.94947 0.79847 0.0
H525 H 0.8386 0.97909 0.75958 0.0
H526 H 0.89388 0.0872 0.76364 0.0
H527 H 0.89435 0.05662 0.80221 0.0
C528 C 0.88255 0.05004 0.70024 0.0
C529 C 0.86711 0.08722 0.68968 0.0
C530 C 0.88217 1.03284 0.72245 0.0
C531 C 0.86635 0.05221 0.73474 0.0
C532 C 0.85084 0.08876 0.7242 0.0
C533 C 0.85122 0.10627 0.70193 0.0
C534 C 0.85099 0.97945 0.79107 0.0
C535 C 0.86666 1.00027 0.80354 0.0
C536 C 0.85077 0.99695 0.76879 0.0
C537 C 0.86625 1.03522 0.75848 0.0
C538 C 0.88183 0.05642 0.77099 0.0
C539 C 0.88204 1.03924 0.79319 0.0
H540 H 0.09643 1.02558 0.80243 0.0
H541 H 0.15113 0.14138 0.79805 0.0
H542 H 0.09691 0.99449 0.76398 0.0
H543 H 0.15142 0.11133 0.75922 0.0
H544 H 0.15179 0.95594 0.69434 0.0
H545 H 0.15232 0.98594 0.73312 0.0
H546 H 0.09571 0.0763 0.73008 0.0
H547 H 0.095 0.04512 0.69158 0.0
C548 C 0.10857 0.04484 0.79329 0.0
C549 C 0.12373 0.08634 0.80344 0.0
C550 C 0.10879 1.02734 0.77114 0.0
C551 C 0.12416 0.0508 0.75845 0.0
C552 C 0.13942 0.09166 0.76856 0.0
C553 C 0.1392 0.10939 0.79081 0.0
C554 C 0.13943 0.98194 0.70194 0.0
C555 C 0.12333 0.99761 0.68976 0.0
C556 C 0.13979 0.99976 0.72417 0.0
C557 C 0.12405 1.03333 0.73474 0.0
C558 C 0.108 0.04921 0.72254 0.0
C559 C 0.10764 1.03162 0.70037 0.0
H560 H 0.59606 0.5548 0.30187 0.0
H561 H 0.65206 0.45463 0.29896 0.0
H562 H 0.59681 0.58534 0.2633 0.0
H563 H 0.65265 0.48426 0.26008 0.0
H564 H 0.6519 0.63874 0.19453 0.0
H565 H 0.65235 0.61016 0.23348 0.0
H566 H 0.59722 0.50001 0.2298 0.0
H567 H 0.5966 0.52946 0.1912 0.0
C568 C 0.60855 0.53897 0.29304 0.0
C569 C 0.62398 0.50185 0.30362 0.0
C570 C 0.60893 0.55615 0.27083 0.0
C571 C 0.62475 0.53683 0.25855 0.0
C572 C 0.64029 0.50062 0.2691 0.0
C573 C 0.6399 0.4831 0.29138 0.0
C574 C 0.63987 0.60854 0.20203 0.0
C575 C 0.62419 0.58681 0.18966 0.0
C576 C 0.64018 0.59165 0.22435 0.0
C577 C 0.62479 0.55316 0.23478 0.0
C578 C 0.60921 0.53102 0.22236 0.0
C579 C 0.60891 0.54754 0.20013 0.0
H580 H 0.33825 0.62619 0.29776 0.0
H581 H 0.39418 0.52527 0.30137 0.0
H582 H 0.33792 0.59664 0.25894 0.0
H583 H 0.39367 0.49475 0.26284 0.0
H584 H 0.39428 0.54963 0.19059 0.0
H585 H 0.39351 0.57946 0.22912 0.0
H586 H 0.33826 0.47058 0.23272 0.0
H587 H 0.33885 0.44166 0.19385 0.0
C588 C 0.35045 0.59761 0.29034 0.0
C589 C 0.36626 0.57855 0.30276 0.0
C590 C 0.3502 0.58012 0.2681 0.0
C591 C 0.36578 0.54362 0.25777 0.0
C592 C 0.38152 0.52413 0.27022 0.0
C593 C 0.38176 0.5413 0.29239 0.0
C594 C 0.38192 0.53189 0.19949 0.0
C595 C 0.36664 0.49291 0.18902 0.0
C596 C 0.38153 0.54864 0.22168 0.0
C597 C 0.36586 0.527 0.23405 0.0
C598 C 0.35049 0.48873 0.22362 0.0
C599 C 0.35088 0.47165 0.20135 0.0
H600 H 0.33972 0.4481 0.79772 0.0
H601 H 0.39489 0.55781 0.80286 0.0
H602 H 0.33973 0.4826 0.75902 0.0
H603 H 0.3947 0.5932 0.76457 0.0
H604 H 0.39656 0.54724 0.6919 0.0
H605 H 0.39566 0.51394 0.73037 0.0
H606 H 0.33959 0.61202 0.73355 0.0
H607 H 0.34033 0.64422 0.69481 0.0
C608 C 0.35181 0.47966 0.79067 0.0
C609 C 0.36732 0.49974 0.80348 0.0
C610 C 0.35176 0.49996 0.76851 0.0
C611 C 0.36724 0.54041 0.75868 0.0
C612 C 0.38266 0.56083 0.77153 0.0
C613 C 0.3827 0.54082 0.79359 0.0
C614 C 0.38404 0.56225 0.70074 0.0
C615 C 0.36854 0.59882 0.69019 0.0
C616 C 0.38355 0.54336 0.72287 0.0
C617 C 0.36756 0.5604 0.73507 0.0
C618 C 0.35206 0.59721 0.72458 0.0
C619 C 0.35256 0.61643 0.7024 0.0
H620 H 0.65201 0.63146 0.79834 0.0
H621 H 0.59604 0.5307 0.80202 0.0
H622 H 0.65227 0.60212 0.75948 0.0
H623 H 0.59647 0.5004 0.7635 0.0
H624 H 0.65119 0.4458 0.69455 0.0
H625 H 0.65186 0.47606 0.73333 0.0
H626 H 0.59659 0.58417 0.72969 0.0
H627 H 0.59574 0.55294 0.69121 0.0
C628 C 0.63979 0.60296 0.79093 0.0
C629 C 0.62399 0.58384 0.80338 0.0
C630 C 0.63999 0.58562 0.76867 0.0
C631 C 0.62437 0.54922 0.75836 0.0
C632 C 0.60864 0.52975 0.77085 0.0
C633 C 0.60845 0.54677 0.79302 0.0
C634 C 0.63917 0.47592 0.70201 0.0
C635 C 0.62338 0.49645 0.68969 0.0
C636 C 0.63961 0.4938 0.72424 0.0
C637 C 0.62426 0.53222 0.73465 0.0
C638 C 0.60855 0.55326 0.72227 0.0
C639 C 0.60812 0.53568 0.70012 0.0
H640 H 0.09776 0.05095 0.94235 0.0
H641 H 0.14112 0.25148 0.94085 0.0
H642 H 0.09771 0.05531 0.9816 0.0
H643 H 0.14058 0.25879 0.98017 0.0
H644 H 0.14904 0.17659 0.05075 0.0
H645 H 0.14883 0.17747 0.01144 0.0
H646 H 0.0896 0.14131 0.01194 0.0
H647 H 0.08996 0.13659 0.05126 0.0
C648 C 0.10715 0.09685 0.95039 0.0
C649 C 0.11947 0.1507 0.93841 0.0
C650 C 0.10704 0.09982 0.97297 0.0
C651 C 0.11912 0.15754 0.98422 0.0
C652 C 0.13129 0.2123 0.97217 0.0
C653 C 0.13154 0.20854 0.94957 0.0
C654 C 0.13595 0.16918 0.04248 0.0
C655 C 0.11953 0.15611 0.05419 0.0
C656 C 0.13581 0.1702 0.01987 0.0
C657 C 0.1192 0.15926 0.00836 0.0
C658 C 0.10272 0.14808 0.02015 0.0
C659 C 0.1029 0.14593 0.04275 0.0
H660 H 0.90012 0.95405 0.94171 0.0
H661 H 0.8409 0.91913 0.94248 0.0
H662 H 0.90065 0.94745 0.981 0.0
H663 H 0.84131 0.91624 0.9818 0.0
H664 H 0.84924 0.8359 0.052 0.0
H665 H 0.84955 0.83152 0.01265 0.0
H666 H 0.89295 1.03225 0.01173 0.0
H667 H 0.89313 1.03377 0.051 0.0
C668 C 0.88718 0.94554 0.95026 0.0
C669 C 0.87046 0.93725 0.93891 0.0
C670 C 0.88747 0.94227 0.97286 0.0
C671 C 0.87101 0.93175 0.98472 0.0
C672 C 0.8543 0.92294 0.9733 0.0
C673 C 0.85405 0.92514 0.95069 0.0
C674 C 0.8589 0.87883 0.04339 0.0
C675 C 0.87118 0.93511 0.05469 0.0
C676 C 0.859 0.87677 0.02077 0.0
C677 C 0.87124 0.93169 0.00887 0.0
C678 C 0.88355 0.98774 0.02025 0.0
C679 C 0.88358 0.98903 0.04285 0.0
H680 H 0.09133 0.97078 0.44202 0.0
H681 H 0.15026 0.92595 0.44174 0.0
H682 H 0.0914 0.96825 0.48136 0.0
H683 H 0.15047 0.92692 0.48104 0.0
H684 H 0.14256 0.84856 0.55151 0.0
H685 H 0.14194 0.84442 0.51219 0.0
H686 H 0.10035 0.05386 0.5117 0.0
H687 H 0.10048 0.05538 0.55101 0.0
C688 C 0.10433 0.96093 0.45034 0.0
C689 C 0.12078 0.94852 0.43868 0.0
C690 C 0.10439 0.96004 0.47295 0.0
C691 C 0.12095 0.9477 0.48451 0.0
C692 C 0.13739 0.93509 0.47279 0.0
C693 C 0.13729 0.93502 0.45018 0.0
C694 C 0.13328 0.89372 0.54301 0.0
C695 C 0.12156 0.95224 0.55445 0.0
C696 C 0.13298 0.89172 0.52041 0.0
C697 C 0.1211 0.94886 0.50864 0.0
C698 C 0.10945 1.00765 0.52014 0.0
C699 C 0.10961 1.00898 0.54274 0.0
H700 H 0.89102 1.03948 0.55114 0.0
H701 H 0.84876 0.24539 0.5516 0.0
H702 H 0.89095 1.04094 0.51187 0.0
H703 H 0.84919 0.24958 0.51224 0.0
H704 H 0.84043 0.16563 0.44203 0.0
H705 H 0.84052 0.16686 0.48135 0.0
H706 H 0.8996 0.12545 0.4812 0.0
H707 H 0.89935 0.12062 0.4419 0.0
C708 C 0.88183 0.08581 0.54287 0.0
C709 C 0.86987 0.1422 0.55457 0.0
C710 C 0.88187 0.0871 0.52027 0.0
C711 C 0.8701 0.14554 0.50874 0.0
C712 C 0.85824 0.20256 0.52049 0.0
C713 C 0.85807 0.20057 0.54311 0.0
C714 C 0.85346 0.15702 0.45038 0.0
C715 C 0.86987 0.14267 0.43877 0.0
C716 C 0.85353 0.15824 0.47299 0.0
C717 C 0.87006 0.14613 0.48459 0.0
C718 C 0.88653 0.13323 0.47291 0.0
C719 C 0.88642 0.13099 0.45031 0.0
H720 H 0.64162 0.74606 0.05157 0.0
H721 H 0.59781 0.54779 0.05105 0.0
H722 H 0.64125 0.75051 0.01222 0.0
H723 H 0.59794 0.54925 0.01177 0.0
H724 H 0.59063 0.62701 0.94161 0.0
H725 H 0.59015 0.6334 0.98089 0.0
H726 H 0.64946 0.66665 0.98147 0.0
H727 H 0.64978 0.66411 0.94215 0.0
C728 C 0.63197 0.70302 0.04306 0.0
C729 C 0.61974 0.64665 0.0545 0.0
C730 C 0.63183 0.70511 0.02044 0.0
C731 C 0.6196 0.65008 0.00866 0.0
C732 C 0.60734 0.59388 0.02018 0.0
C733 C 0.60733 0.59261 0.04278 0.0
C734 C 0.60357 0.63592 0.95012 0.0
C735 C 0.62024 0.64493 0.93871 0.0
C736 C 0.60332 0.63907 0.97271 0.0
C737 C 0.61978 0.65011 0.98452 0.0
C738 C 0.63645 0.65958 0.97302 0.0
C739 C 0.63666 0.65757 0.95042 0.0
H740 H 0.40066 0.44604 0.94124 0.0
H741 H 0.34162 0.405 0.94182 0.0
H742 H 0.40112 0.44032 0.98053 0.0
H743 H 0.34191 0.40312 0.98116 0.0
H744 H 0.34993 0.32822 0.05168 0.0
H745 H 0.35035 0.32146 0.01236 0.0
H746 H 0.393 0.52602 0.01089 0.0
H747 H 0.39309 0.52984 0.05015 0.0
C748 C 0.38774 0.43626 0.94977 0.0
C749 C 0.3711 0.42617 0.93837 0.0
C750 C 0.38798 0.43354 0.97235 0.0
C751 C 0.37154 0.42189 0.98417 0.0
C752 C 0.3549 0.41084 0.9727 0.0
C753 C 0.35471 0.4124 0.95008 0.0
C754 C 0.35945 0.37148 0.04296 0.0
C755 C 0.3715 0.42949 0.0541 0.0
C756 C 0.35962 0.36804 0.02036 0.0
C757 C 0.37169 0.42329 0.0083 0.0
C758 C 0.38375 0.48114 0.01953 0.0
C759 C 0.38373 0.48378 0.04211 0.0
H760 H 0.64104 0.33798 0.44151 0.0
H761 H 0.59825 0.54111 0.44252 0.0
H762 H 0.64048 0.33099 0.48082 0.0
H763 H 0.59822 0.5372 0.4818 0.0
H764 H 0.59008 0.45553 0.5516 0.0
H765 H 0.58981 0.45231 0.51229 0.0
H766 H 0.64889 0.41051 0.51204 0.0
H767 H 0.64896 0.40975 0.55136 0.0
C768 C 0.63159 0.38166 0.45013 0.0
C769 C 0.61967 0.44003 0.43884 0.0
C770 C 0.63134 0.37808 0.47273 0.0
C771 C 0.61932 0.43364 0.48466 0.0
C772 C 0.60742 0.49206 0.47328 0.0
C773 C 0.60751 0.49477 0.45068 0.0
C774 C 0.603 0.44529 0.54315 0.0
C775 C 0.61954 0.43291 0.55465 0.0
C776 C 0.60288 0.44404 0.52054 0.0
C777 C 0.61934 0.43163 0.50881 0.0
C778 C 0.63587 0.41873 0.5204 0.0
C779 C 0.63594 0.41877 0.54302 0.0
H780 H 0.39759 0.619 0.55072 0.0
H781 H 0.33837 0.65306 0.5504 0.0
H782 H 0.3979 0.62273 0.51149 0.0
H783 H 0.33855 0.6532 0.51099 0.0
H784 H 0.34705 0.73327 0.44044 0.0
H785 H 0.34688 0.73693 0.47979 0.0
H786 H 0.39009 0.53559 0.48118 0.0
H787 H 0.39074 0.53473 0.4419 0.0
C788 C 0.38459 0.62656 0.54227 0.0
C789 C 0.36794 0.6354 0.55374 0.0
C790 C 0.38475 0.62816 0.51969 0.0
C791 C 0.36825 0.63757 0.50792 0.0
C792 C 0.35158 0.64703 0.51944 0.0
C793 C 0.35144 0.64644 0.54207 0.0
C794 C 0.35655 0.68993 0.44915 0.0
C795 C 0.36895 0.6339 0.43798 0.0
C796 C 0.35637 0.69159 0.47177 0.0
C797 C 0.36846 0.63656 0.48379 0.0
C798 C 0.38081 0.58027 0.47255 0.0
C799 C 0.38113 0.57938 0.44996 0.0
H800 H 0.9492 0.98577 0.1586 0.0
H801 H 0.94801 0.08719 0.09312 0.0
H802 H 0.98274 0.99051 0.15833 0.0
H803 H 0.98179 0.09469 0.09297 0.0
H804 H 0.0416 0.09767 0.15847 0.0
H805 H 0.00806 0.09265 0.15848 0.0
H806 H 0.00865 0.99636 0.0926 0.0
H807 H 0.04243 1.00421 0.09249 0.0
C808 C 0.95614 1.01061 0.14425 0.0
C809 C 0.94602 1.03645 0.12591 0.0
C810 C 0.9754 1.01347 0.14409 0.0
C811 C 0.98503 0.04272 0.1256 0.0
C812 C 0.97484 0.07045 0.10736 0.0
C813 C 0.9555 0.06727 0.10751 0.0
C814 C 0.03458 0.0745 0.14406 0.0
C815 C 0.0446 0.05102 0.1255 0.0
C816 C 0.01532 0.07146 0.14406 0.0
C817 C 0.00559 0.04436 0.12552 0.0
C818 C 0.01568 1.01893 0.10705 0.0
C819 C 0.03502 1.0223 0.10704 0.0
H820 H 0.94782 0.994 0.40014 0.0
H821 H 0.94891 0.10159 0.33522 0.0
H822 H 0.98165 0.98891 0.40035 0.0
H823 H 0.98245 0.09924 0.33556 0.0
H824 H 0.04159 0.9975 0.33475 0.0
H825 H 0.00804 0.99942 0.33484 0.0
H826 H 0.00836 0.08842 0.4013 0.0
H827 H 0.04218 0.0837 0.4013 0.0
C828 C 0.9553 1.01577 0.38587 0.0
C829 C 0.94577 0.04761 0.36762 0.0
C830 C 0.97466 1.01397 0.38606 0.0
C831 C 0.98483 0.04408 0.368 0.0
C832 C 0.97515 0.0744 0.34965 0.0
C833 C 0.95588 0.07591 0.34946 0.0
C834 C 0.03451 1.01843 0.34932 0.0
C835 C 0.04448 1.04086 0.36799 0.0
C836 C 0.01524 1.01967 0.34937 0.0
C837 C 0.00542 0.04388 0.36809 0.0
C838 C 0.01545 0.06811 0.3867 0.0
C839 C 0.03481 0.06655 0.38665 0.0
H840 H 0.04142 0.09794 0.83474 0.0
H841 H 0.04241 0.99926 0.90046 0.0
H842 H 0.00787 0.09478 0.83501 0.0
H843 H 0.00861 0.99321 0.90061 0.0
H844 H 0.94807 0.08602 0.90074 0.0
H845 H 0.98187 0.09228 0.90073 0.0
H846 H 0.98242 0.99398 0.83503 0.0
H847 H 0.94889 0.99066 0.83491 0.0
C848 C 0.03442 0.07401 0.84915 0.0
C849 C 0.0445 0.0485 0.86755 0.0
C850 C 0.01517 0.07205 0.8493 0.0
C851 C 0.00548 0.04398 0.86785 0.0
C852 C 0.01561 1.01655 0.88617 0.0
C853 C 0.03495 1.01888 0.88602 0.0
C854 C 0.95548 0.06718 0.88624 0.0
C855 C 0.94589 1.03843 0.8678 0.0
C856 C 0.97483 0.06963 0.8863 0.0
C857 C 0.98491 0.04319 0.8679 0.0
C858 C 0.97517 1.01599 0.84938 0.0
C859 C 0.95591 1.01392 0.84931 0.0
H860 H 0.94823 0.07453 0.5863 0.0
H861 H 0.94887 1.01846 0.65476 0.0
H862 H 0.9818 0.07385 0.58567 0.0
H863 H 0.98257 1.01312 0.65411 0.0
H864 H 0.0428 0.09867 0.65106 0.0
H865 H 0.00907 0.10482 0.65124 0.0
H866 H 0.00812 0.98471 0.58762 0.0
H867 H 0.04165 0.98315 0.58717 0.0
C868 C 0.95559 0.06012 0.60115 0.0
C869 C 0.94596 0.04629 0.62056 0.0
C870 C 0.97489 0.05951 0.60082 0.0
C871 C 0.98507 0.0438 0.61987 0.0
C872 C 0.97531 1.02738 0.6392 0.0
C873 C 0.95597 1.02918 0.63956 0.0
C874 C 0.03531 0.07504 0.63703 0.0
C875 C 0.04482 1.04096 0.61907 0.0
C876 C 0.01596 0.07738 0.6372 0.0
C877 C 0.00571 0.04458 0.6195 0.0
C878 C 0.0154 1.01191 0.60142 0.0
C879 C 0.03469 1.01073 0.60116 0.0
H880 H 0.44827 0.58727 0.09311 0.0
H881 H 0.44931 0.47959 0.15803 0.0
H882 H 0.48206 0.59446 0.09309 0.0
H883 H 0.48285 0.48382 0.15785 0.0
H884 H 0.54258 0.50306 0.09206 0.0
H885 H 0.50879 0.49635 0.09212 0.0
H886 H 0.50833 0.58419 0.15868 0.0
H887 H 0.54188 0.58787 0.15872 0.0
C888 C 0.45573 0.5659 0.10741 0.0
C889 C 0.44621 0.53338 0.12561 0.0
C890 C 0.47507 0.5689 0.10733 0.0
C891 C 0.48522 0.53921 0.12543 0.0
C892 C 0.47555 0.50833 0.14373 0.0
C893 C 0.45629 0.50574 0.14383 0.0
C894 C 0.53519 0.51952 0.10675 0.0
C895 C 0.54481 0.54542 0.12542 0.0
C896 C 0.51585 0.51683 0.10673 0.0
C897 C 0.50579 0.54025 0.12537 0.0
C898 C 0.51556 0.56457 0.14411 0.0
C899 C 0.53483 0.56682 0.14415 0.0
H900 H 0.44768 0.49369 0.40027 0.0
H901 H 0.44845 0.59052 0.33439 0.0
H902 H 0.48149 0.48926 0.40037 0.0
H903 H 0.482 0.58881 0.3346 0.0
H904 H 0.54189 0.5851 0.40031 0.0
H905 H 0.50808 0.58954 0.40029 0.0
H906 H 0.50773 0.48957 0.33474 0.0
H907 H 0.54129 0.48784 0.33465 0.0
C908 C 0.45508 0.51323 0.38578 0.0
C909 C 0.44546 0.54188 0.36729 0.0
C910 C 0.47444 0.51183 0.38589 0.0
C911 C 0.48453 0.53915 0.36752 0.0
C912 C 0.47476 0.5662 0.34895 0.0
C913 C 0.45549 0.56732 0.34883 0.0
C914 C 0.53452 0.56547 0.38584 0.0
C915 C 0.54419 0.53668 0.36744 0.0
C916 C 0.51516 0.56688 0.38589 0.0
C917 C 0.50512 0.53943 0.36755 0.0
C918 C 0.51493 0.51227 0.34906 0.0
C919 C 0.53421 0.51113 0.34901 0.0
H920 H 0.44834 0.5793 0.9004 0.0
H921 H 0.44935 0.4837 0.83459 0.0
H922 H 0.48214 0.58621 0.90047 0.0
H923 H 0.4829 0.48808 0.83476 0.0
H924 H 0.54277 0.49322 0.90016 0.0
H925 H 0.50896 0.48608 0.90023 0.0
H926 H 0.50816 0.59149 0.83498 0.0
H927 H 0.5417 0.59612 0.8348 0.0
C928 C 0.45579 0.56058 0.88592 0.0
C929 C 0.44626 0.53151 0.86746 0.0
C930 C 0.47513 0.56342 0.88602 0.0
C931 C 0.48526 0.53722 0.86765 0.0
C932 C 0.47559 0.50978 0.8491 0.0
C933 C 0.45634 0.50714 0.849 0.0
C934 C 0.5353 0.51347 0.88578 0.0
C935 C 0.54482 0.54469 0.86744 0.0
C936 C 0.51596 0.5105 0.88588 0.0
C937 C 0.50582 0.53867 0.86764 0.0
C938 C 0.51548 0.56824 0.84921 0.0
C939 C 0.53473 0.57102 0.84911 0.0
H940 H 0.44953 0.63934 0.59071 0.0
H941 H 0.44617 0.45851 0.64545 0.0
H942 H 0.48299 0.63374 0.59215 0.0
H943 H 0.4799 0.44909 0.6464 0.0
H944 H 0.54012 0.52639 0.65707 0.0
H945 H 0.50647 0.53359 0.65554 0.0
H946 H 0.50913 0.54627 0.58576 0.0
H947 H 0.54271 0.54339 0.58752 0.0
C948 C 0.45599 0.5969 0.60284 0.0
C949 C 0.44525 0.54928 0.61796 0.0
C950 C 0.47524 0.59334 0.60362 0.0
C951 C 0.48431 0.54114 0.61943 0.0
C952 C 0.47347 0.49141 0.63424 0.0
C953 C 0.45413 0.49581 0.63357 0.0
C954 C 0.53345 0.53209 0.64145 0.0
C955 C 0.544 0.53506 0.62243 0.0
C956 C 0.51414 0.53498 0.64053 0.0
C957 C 0.50493 0.53977 0.62051 0.0
C958 C 0.51563 0.54395 0.6015 0.0
C959 C 0.53492 0.54222 0.60247 0.0
H960 H 0.10109 0.89002 0.11408 0.0
H961 H 0.15791 0.84043 0.13102 0.0
H962 H 0.09533 0.72659 0.11402 0.0
H963 H 0.15218 0.67903 0.13206 0.0
H964 H 0.14172 0.38429 0.11391 0.0
H965 H 0.14748 0.54768 0.11273 0.0
H966 H 0.09159 0.5964 0.1343 0.0
H967 H 0.08582 0.43495 0.13438 0.0
C968 C 0.11227 0.8443 0.11806 0.0
C969 C 0.12994 0.8784 0.12251 0.0
C970 C 0.10902 0.75022 0.11813 0.0
C971 C 0.12331 0.68787 0.12296 0.0
C972 C 0.14086 0.72325 0.12775 0.0
C973 C 0.14412 0.81658 0.12738 0.0
C974 C 0.13077 0.43025 0.11845 0.0
C975 C 0.11333 0.39648 0.12423 0.0
C976 C 0.13402 0.52431 0.11787 0.0
C977 C 0.11998 0.58697 0.12333 0.0
C978 C 0.10269 0.55191 0.12946 0.0
C979 C 0.09942 0.45859 0.12975 0.0
H980 H 0.83288 0.24803 0.11067 0.0
H981 H 0.88911 0.19696 0.12988 0.0
H982 H 0.83863 0.40959 0.11069 0.0
H983 H 0.89486 0.36029 0.131 0.0
H984 H 0.90511 0.65343 0.11259 0.0
H985 H 0.89929 0.49213 0.11156 0.0
H986 H 0.84273 0.53955 0.13076 0.0
H987 H 0.84858 0.70289 0.1307 0.0
C988 C 0.84654 0.27159 0.11502 0.0
C989 C 0.86056 0.20933 0.12019 0.0
C990 C 0.84981 0.36497 0.11527 0.0
C991 C 0.8672 0.39991 0.121 0.0
C992 C 0.88131 0.33709 0.12615 0.0
C993 C 0.87807 0.24304 0.12562 0.0
C994 C 0.89136 0.62959 0.11646 0.0
C995 C 0.87729 0.69141 0.12166 0.0
C996 C 0.88805 0.53629 0.11612 0.0
C997 C 0.87055 0.50085 0.12126 0.0
C998 C 0.85637 0.5632 0.12638 0.0
C999 C 0.85967 0.65726 0.12644 0.0
H1000 H 0.10122 0.20551 0.37853 0.0
H1001 H 0.15771 0.2557 0.36013 0.0
H1002 H 0.09551 0.36903 0.37898 0.0
H1003 H 0.15202 0.41715 0.35958 0.0
H1004 H 0.14197 0.71091 0.3791 0.0
H1005 H 0.14767 0.54742 0.37974 0.0
H1006 H 0.09159 0.4999 0.3587 0.0
H1007 H 0.08592 0.66137 0.359 0.0
C1008 C 0.11232 0.25136 0.3743 0.0
C1009 C 0.12989 0.21741 0.36932 0.0
C1010 C 0.10911 0.34545 0.37447 0.0
C1011 C 0.12334 0.40793 0.36942 0.0
C1012 C 0.14077 0.37274 0.36408 0.0
C1013 C 0.14399 0.27941 0.36416 0.0
C1014 C 0.13098 0.66525 0.37451 0.0
C1015 C 0.11353 0.69938 0.36895 0.0
C1016 C 0.13418 0.57114 0.37481 0.0
C1017 C 0.12006 0.50882 0.36936 0.0
C1018 C 0.10275 0.54418 0.36351 0.0
C1019 C 0.09954 0.63752 0.36345 0.0
H1020 H 0.9042 0.42536 0.38211 0.0
H1021 H 0.84828 0.37719 0.36141 0.0
H1022 H 0.89857 0.58688 0.38271 0.0
H1023 H 0.84263 0.54052 0.36103 0.0
H1024 H 0.83246 0.83111 0.38116 0.0
H1025 H 0.83814 0.66973 0.38136 0.0
H1026 H 0.89481 0.71864 0.36269 0.0
H1027 H 0.8891 0.88218 0.36353 0.0
C1028 C 0.89062 0.44949 0.37761 0.0
C1029 C 0.87664 0.38797 0.37183 0.0
C1030 C 0.88744 0.54285 0.37771 0.0
C1031 C 0.87018 0.57854 0.37176 0.0
C1032 C 0.85608 0.51655 0.36606 0.0
C1033 C 0.85925 0.42247 0.36621 0.0
C1034 C 0.84621 0.80758 0.37719 0.0
C1035 C 0.86035 0.86977 0.37238 0.0
C1036 C 0.84943 0.71431 0.37708 0.0
C1037 C 0.86691 0.67938 0.37187 0.0
C1038 C 0.88118 0.74204 0.3671 0.0
C1039 C 0.87796 0.83611 0.36748 0.0
H1040 H 0.83297 0.2505 0.8603 0.0
H1041 H 0.88939 0.20101 0.879 0.0
H1042 H 0.83866 0.41196 0.8596 0.0
H1043 H 0.89511 0.36458 0.8793 0.0
H1044 H 0.90473 0.65683 0.85911 0.0
H1045 H 0.89907 0.49528 0.85892 0.0
H1046 H 0.84294 0.54244 0.87974 0.0
H1047 H 0.84861 0.706 0.879 0.0
C1048 C 0.84668 0.27436 0.86435 0.0
C1049 C 0.86075 0.21255 0.86965 0.0
C1050 C 0.8499 0.3677 0.8642 0.0
C1051 C 0.86731 0.40311 0.86958 0.0
C1052 C 0.88153 0.34083 0.87475 0.0
C1053 C 0.87831 0.2467 0.87467 0.0
C1054 C 0.8911 0.63288 0.86354 0.0
C1055 C 0.87708 0.69464 0.86896 0.0
C1056 C 0.8879 0.5395 0.86366 0.0
C1057 C 0.87057 0.50403 0.86947 0.0
C1058 C 0.85644 0.56625 0.87484 0.0
C1059 C 0.85963 0.66039 0.87448 0.0
H1060 H 0.14202 0.38082 0.86244 0.0
H1061 H 0.0854 0.43021 0.88018 0.0
H1062 H 0.14786 0.54418 0.86243 0.0
H1063 H 0.09121 0.59149 0.88127 0.0
H1064 H 0.10146 0.88671 0.86314 0.0
H1065 H 0.09572 0.72341 0.86194 0.0
H1066 H 0.15187 0.67399 0.88256 0.0
H1067 H 0.15761 0.83556 0.88265 0.0
C1068 C 0.13091 0.42644 0.86661 0.0
C1069 C 0.11326 0.39228 0.87127 0.0
C1070 C 0.13421 0.5205 0.86671 0.0
C1071 C 0.11999 0.58281 0.87175 0.0
C1072 C 0.10247 0.54736 0.87677 0.0
C1073 C 0.09917 0.45407 0.87638 0.0
C1074 C 0.11249 0.84062 0.86746 0.0
C1075 C 0.12997 0.87428 0.87299 0.0
C1076 C 0.10925 0.74658 0.86687 0.0
C1077 C 0.12334 0.68374 0.87209 0.0
C1078 C 0.14071 0.71864 0.87793 0.0
C1079 C 0.14397 0.81201 0.87822 0.0
H1080 H 0.83298 0.83404 0.61002 0.0
H1081 H 0.88882 0.88597 0.63056 0.0
H1082 H 0.83881 0.67259 0.61038 0.0
H1083 H 0.89461 0.72285 0.63214 0.0
H1084 H 0.90542 0.42998 0.61474 0.0
H1085 H 0.89959 0.59115 0.61352 0.0
H1086 H 0.84249 0.54225 0.63033 0.0
H1087 H 0.84837 0.37903 0.63034 0.0
C1088 C 0.84657 0.81065 0.61475 0.0
C1089 C 0.86047 0.8731 0.62017 0.0
C1090 C 0.84988 0.71734 0.61521 0.0
C1091 C 0.86717 0.68266 0.62146 0.0
C1092 C 0.88116 0.74574 0.62687 0.0
C1093 C 0.87789 0.83971 0.62607 0.0
C1094 C 0.89156 0.4535 0.61809 0.0
C1095 C 0.87735 0.3913 0.6226 0.0
C1096 C 0.88823 0.54675 0.61762 0.0
C1097 C 0.87057 0.58177 0.62198 0.0
C1098 C 0.85626 0.51903 0.62652 0.0
C1099 C 0.85958 0.42501 0.62667 0.0
H1100 H 0.10178 0.20168 0.6306 0.0
H1101 H 0.15774 0.25464 0.61059 0.0
H1102 H 0.09596 0.36478 0.63222 0.0
H1103 H 0.1519 0.41597 0.61096 0.0
H1104 H 0.14237 0.70846 0.63071 0.0
H1105 H 0.14815 0.54536 0.63084 0.0
H1106 H 0.09108 0.49761 0.61379 0.0
H1107 H 0.08535 0.65886 0.61487 0.0
C1108 C 0.11274 0.24816 0.62624 0.0
C1109 C 0.1302 0.21506 0.62049 0.0
C1110 C 0.10945 0.34212 0.62706 0.0
C1111 C 0.12347 0.40546 0.6218 0.0
C1112 C 0.1408 0.37105 0.61568 0.0
C1113 C 0.14412 0.27778 0.61522 0.0
C1114 C 0.13114 0.66287 0.627 0.0
C1115 C 0.11343 0.69701 0.62281 0.0
C1116 C 0.13441 0.56882 0.62694 0.0
C1117 C 0.12009 0.50637 0.62235 0.0
C1118 C 0.10246 0.54175 0.61792 0.0
C1119 C 0.09919 0.63507 0.61831 0.0
H1120 H 0.58591 0.92974 0.13418 0.0
H1121 H 0.64186 0.87862 0.11395 0.0
H1122 H 0.59175 0.09116 0.13412 0.0
H1123 H 0.64768 0.04193 0.11276 0.0
H1124 H 0.65824 0.33478 0.13093 0.0
H1125 H 0.65245 0.17337 0.13189 0.0
H1126 H 0.59557 0.22164 0.11412 0.0
H1127 H 0.60139 0.38499 0.11429 0.0
C1128 C 0.59953 0.95328 0.12959 0.0
C1129 C 0.61345 0.89101 0.12416 0.0
C1130 C 0.60284 0.0466 0.12932 0.0
C1131 C 0.62017 0.08155 0.12326 0.0
C1132 C 0.63419 1.01873 0.11785 0.0
C1133 C 0.6309 0.92468 0.11843 0.0
C1134 C 0.64443 0.31105 0.12733 0.0
C1135 C 0.63026 0.37307 0.12259 0.0
C1136 C 0.64114 0.21771 0.12765 0.0
C1137 C 0.62355 0.18249 0.12293 0.0
C1138 C 0.60928 0.24506 0.1182 0.0
C1139 C 0.61256 0.33912 0.11818 0.0
H1140 H 0.3331 0.7453 0.10982 0.0
H1141 H 0.3893 0.6943 0.12916 0.0
H1142 H 0.33883 0.90688 0.10989 0.0
H1143 H 0.39503 0.85764 0.13031 0.0
H1144 H 0.40529 0.1508 0.11195 0.0
H1145 H 0.39947 0.98951 0.11087 0.0
H1146 H 0.34289 1.03677 0.13003 0.0
H1147 H 0.34874 0.20013 0.13004 0.0
C1148 C 0.34675 0.76887 0.11421 0.0
C1149 C 0.36077 0.70662 0.1194 0.0
C1150 C 0.35 0.86226 0.11448 0.0
C1151 C 0.36738 0.89722 0.12026 0.0
C1152 C 0.3815 0.83441 0.12543 0.0
C1153 C 0.37826 0.74035 0.12488 0.0
C1154 C 0.39153 0.12694 0.11581 0.0
C1155 C 0.37746 0.18872 0.12102 0.0
C1156 C 0.38822 1.03364 0.11543 0.0
C1157 C 0.37073 0.99816 0.12055 0.0
C1158 C 0.35653 0.06046 0.12567 0.0
C1159 C 0.35983 0.15454 0.12578 0.0
H1160 H 0.58561 0.15758 0.38222 0.0
H1161 H 0.64163 0.20681 0.36193 0.0
H1162 H 0.5913 0.99605 0.38287 0.0
H1163 H 0.64733 0.04356 0.36158 0.0
H1164 H 0.65752 0.75202 0.38152 0.0
H1165 H 0.6518 0.9134 0.38177 0.0
H1166 H 0.59518 0.86488 0.36297 0.0
H1167 H 0.60092 0.70138 0.36377 0.0
C1168 C 0.59923 0.13369 0.37782 0.0
C1169 C 0.61322 0.19552 0.37214 0.0
C1170 C 0.60244 1.04031 0.37795 0.0
C1171 C 0.61975 1.00491 0.37212 0.0
C1172 C 0.63385 0.06723 0.36652 0.0
C1173 C 0.63065 0.16129 0.36665 0.0
C1174 C 0.64378 0.77564 0.37753 0.0
C1175 C 0.62966 0.71354 0.37268 0.0
C1176 C 0.64053 0.86894 0.37744 0.0
C1177 C 0.62305 0.90402 0.37222 0.0
C1178 C 0.60881 0.84142 0.3674 0.0
C1179 C 0.61205 0.74734 0.36775 0.0
H1180 H 0.40388 0.92035 0.38198 0.0
H1181 H 0.34811 0.87177 0.36076 0.0
H1182 H 0.39819 0.08188 0.3825 0.0
H1183 H 0.34242 1.03502 0.3603 0.0
H1184 H 0.33197 0.32592 0.38002 0.0
H1185 H 0.3377 0.16454 0.38039 0.0
H1186 H 0.39455 0.21366 0.36253 0.0
H1187 H 0.38879 0.37714 0.3632 0.0
C1188 C 0.39032 0.94439 0.37735 0.0
C1189 C 0.3764 0.88274 0.37145 0.0
C1190 C 0.3871 1.03777 0.37741 0.0
C1191 C 0.36987 0.07335 0.37129 0.0
C1192 C 0.35584 1.01121 0.36546 0.0
C1193 C 0.35904 0.91714 0.36566 0.0
C1194 C 0.34576 0.30243 0.37626 0.0
C1195 C 0.35994 0.36469 0.37163 0.0
C1196 C 0.34902 0.20914 0.37624 0.0
C1197 C 0.36657 0.17423 0.37131 0.0
C1198 C 0.38086 0.23698 0.36672 0.0
C1199 C 0.37761 0.33105 0.36701 0.0
H1200 H 0.33322 0.74426 0.88254 0.0
H1201 H 0.38934 0.69381 0.86284 0.0
H1202 H 0.33892 0.90583 0.88231 0.0
H1203 H 0.39502 0.85719 0.8615 0.0
H1204 H 0.40529 0.14973 0.87977 0.0
H1205 H 0.39952 0.98846 0.88086 0.0
H1206 H 0.34286 1.03603 0.86202 0.0
H1207 H 0.34866 0.19945 0.86203 0.0
C1208 C 0.34685 0.76798 0.87804 0.0
C1209 C 0.36086 0.70593 0.87281 0.0
C1210 C 0.35008 0.86134 0.87767 0.0
C1211 C 0.36742 0.89643 0.87173 0.0
C1212 C 0.38152 0.83381 0.86651 0.0
C1213 C 0.37832 0.73976 0.86718 0.0
C1214 C 0.39153 0.12594 0.87597 0.0
C1215 C 0.37741 0.18781 0.87087 0.0
C1216 C 0.38825 1.03266 0.87635 0.0
C1217 C 0.37074 0.99731 0.87135 0.0
C1218 C 0.35651 0.05967 0.8663 0.0
C1219 C 0.35978 0.15374 0.8662 0.0
H1220 H 0.65778 0.33164 0.88137 0.0
H1221 H 0.60129 0.38249 0.86315 0.0
H1222 H 0.65207 0.17024 0.88152 0.0
H1223 H 0.59557 0.21896 0.86223 0.0
H1224 H 0.58594 0.92565 0.88145 0.0
H1225 H 0.59159 0.08717 0.88209 0.0
H1226 H 0.64775 1.04096 0.86122 0.0
H1227 H 0.6421 0.8776 0.8616 0.0
C1228 C 0.64407 0.30805 0.87726 0.0
C1229 C 0.62997 0.37017 0.87231 0.0
C1230 C 0.64083 0.21476 0.87711 0.0
C1231 C 0.62338 0.17977 0.8717 0.0
C1232 C 0.60917 0.24238 0.86679 0.0
C1233 C 0.61239 0.33646 0.86722 0.0
C1234 C 0.59958 0.94982 0.87713 0.0
C1235 C 0.61362 0.88834 0.87158 0.0
C1236 C 0.60277 0.04319 0.87726 0.0
C1237 C 0.6201 0.07892 0.87155 0.0
C1238 C 0.63425 1.01697 0.86606 0.0
C1239 C 0.63107 0.92288 0.8662 0.0
H1240 H 0.34749 0.87756 0.62152 0.0
H1241 H 0.40576 0.92571 0.62993 0.0
H1242 H 0.34206 0.04164 0.6213 0.0
H1243 H 0.40046 0.0878 0.62985 0.0
H1244 H 0.38744 0.37761 0.60783 0.0
H1245 H 0.39214 0.2133 0.60659 0.0
H1246 H 0.3429 0.17372 0.64482 0.0
H1247 H 0.33825 0.33656 0.64594 0.0
C1248 C 0.35908 0.92287 0.62352 0.0
C1249 C 0.37702 0.88818 0.62587 0.0
C1250 C 0.35602 1.01709 0.62337 0.0
C1251 C 0.37085 0.07877 0.62542 0.0
C1252 C 0.38872 0.04327 0.62782 0.0
C1253 C 0.39173 0.94979 0.62806 0.0
C1254 C 0.37768 0.33367 0.61597 0.0
C1255 C 0.3625 0.3705 0.62698 0.0
C1256 C 0.38035 0.23935 0.61533 0.0
C1257 C 0.36784 0.17944 0.62554 0.0
C1258 C 0.35268 0.21691 0.63648 0.0
C1259 C 0.35011 0.31077 0.63727 0.0
H1260 H 0.60105 0.6949 0.63075 0.0
H1261 H 0.65687 0.7469 0.61003 0.0
H1262 H 0.59533 0.8581 0.63226 0.0
H1263 H 0.65112 0.90837 0.61037 0.0
H1264 H 0.64166 0.20126 0.63058 0.0
H1265 H 0.64748 1.03793 0.63055 0.0
H1266 H 0.59046 0.99018 0.6133 0.0
H1267 H 0.58469 0.15135 0.61448 0.0
C1268 C 0.61199 0.74118 0.62621 0.0
C1269 C 0.62939 0.7078 0.62027 0.0
C1270 C 0.60876 0.83516 0.62698 0.0
C1271 C 0.62278 0.8982 0.62151 0.0
C1272 C 0.64004 0.86357 0.61522 0.0
C1273 C 0.6433 0.77026 0.61478 0.0
C1274 C 0.63046 0.15552 0.62678 0.0
C1275 C 0.61273 0.18951 0.62258 0.0
C1276 C 0.63374 0.06148 0.62664 0.0
C1277 C 0.61943 0.99906 0.622 0.0
C1278 C 0.60181 1.03436 0.61748 0.0
C1279 C 0.59852 0.12761 0.61793 0.0
loop_
_geom_bond_atom_site_label_1
_geom_bond_atom_site_label_2
_geom_bond_distance
_geom_bond_site_symmetry_2
_ccdc_geom_bond_type
Tb0 O3 2.453 . S
Tb0 O4 2.596 . S
Tb0 O5 2.374 . S
Tb0 O13 2.343 . S
Tb0 O15 2.353 . S
Tb0 O17 2.427 . S
Tb0 O18 2.513 . S
C1 O5 1.251 . S
C1 O7 1.263 . S
Tb2 O4 2.343 . S
Tb2 O7 2.353 . S
Tb2 O10 2.427 . S
Tb2 O11 2.513 . S
Tb2 O12 2.453 1_545 S
Tb2 O13 2.596 . S
Tb2 O14 2.374 . S
O3 Tb0 2.453 . S
O3 C19 1.245 . S
O4 Tb0 2.596 . S
O4 Tb2 2.343 . S
O4 C19 1.259 . S
O5 Tb0 2.374 . S
O5 C1 1.251 . S
C6 O10 1.275 . S
C6 O11 1.246 . S
O7 C1 1.263 . S
O7 Tb2 2.353 . S
C8 O12 1.245 . S
C8 O13 1.259 1_565 S
C9 O14 1.250 . S
C9 O15 1.263 . S
O10 Tb2 2.427 . S
O10 C6 1.275 . S
O11 Tb2 2.513 . S
O11 C6 1.246 . S
O12 Tb2 2.453 1_565 S
O12 C8 1.245 . S
O13 Tb0 2.343 . S
O13 Tb2 2.596 . S
O13 C8 1.259 1_545 S
O14 Tb2 2.374 . S
O14 C9 1.250 . S
O15 Tb0 2.353 . S
O15 C9 1.263 . S
C16 O17 1.275 . S
C16 O18 1.246 . S
O17 Tb0 2.427 . S
O17 C16 1.275 . S
O18 Tb0 2.513 . S
O18 C16 1.246 . S
C19 O3 1.245 . S
C19 O4 1.259 . S
Tb20 O23 2.453 . S
Tb20 O24 2.596 . S
Tb20 O25 2.374 . S
Tb20 O33 2.343 . S
Tb20 O35 2.353 . S
Tb20 O37 2.427 . S
Tb20 O38 2.513 . S
C21 O25 1.251 . S
C21 O27 1.263 . S
Tb22 O24 2.343 . S
Tb22 O27 2.353 . S
Tb22 O30 2.427 . S
Tb22 O31 2.513 . S
Tb22 O32 2.453 1_565 S
Tb22 O33 2.596 . S
Tb22 O34 2.374 . S
O23 Tb20 2.453 . S
O23 C39 1.245 . S
O24 Tb20 2.596 . S
O24 Tb22 2.343 . S
O24 C39 1.259 . S
O25 Tb20 2.374 . S
O25 C21 1.251 . S
C26 O30 1.275 . S
C26 O31 1.246 . S
O27 C21 1.263 . S
O27 Tb22 2.353 . S
C28 O32 1.245 . S
C28 O33 1.259 1_545 S
C29 O34 1.250 . S
C29 O35 1.263 . S
O30 Tb22 2.427 . S
O30 C26 1.275 . S
O31 Tb22 2.513 . S
O31 C26 1.246 . S
O32 Tb22 2.453 1_545 S
O32 C28 1.245 . S
O33 Tb20 2.343 . S
O33 Tb22 2.596 . S
O33 C28 1.259 1_565 S
O34 Tb22 2.374 . S
O34 C29 1.250 . S
O35 Tb20 2.353 . S
O35 C29 1.263 . S
C36 O37 1.275 . S
C36 O38 1.246 . S
O37 Tb20 2.427 . S
O37 C36 1.275 . S
O38 Tb20 2.513 . S
O38 C36 1.246 . S
C39 O23 1.245 . S
C39 O24 1.259 . S
Tb40 O43 2.453 . S
Tb40 O44 2.596 . S
Tb40 O45 2.374 . S
Tb40 O53 2.343 . S
Tb40 O55 2.353 . S
Tb40 O57 2.427 . S
Tb40 O58 2.513 . S
C41 O45 1.251 . S
C41 O47 1.263 . S
Tb42 O44 2.343 . S
Tb42 O47 2.353 . S
Tb42 O50 2.427 . S
Tb42 O51 2.513 . S
Tb42 O52 2.453 1_565 S
Tb42 O53 2.596 . S
Tb42 O54 2.374 . S
O43 Tb40 2.453 . S
O43 C59 1.245 . S
O44 Tb40 2.596 . S
O44 Tb42 2.343 . S
O44 C59 1.259 . S
O45 Tb40 2.374 . S
O45 C41 1.251 . S
C46 O50 1.275 . S
C46 O51 1.246 . S
O47 C41 1.263 . S
O47 Tb42 2.353 . S
C48 O52 1.245 . S
C48 O53 1.259 1_545 S
C49 O54 1.250 . S
C49 O55 1.263 . S
O50 Tb42 2.427 . S
O50 C46 1.275 . S
O51 Tb42 2.513 . S
O51 C46 1.246 . S
O52 Tb42 2.453 1_545 S
O52 C48 1.245 . S
O53 Tb40 2.343 . S
O53 Tb42 2.596 . S
O53 C48 1.259 1_565 S
O54 Tb42 2.374 . S
O54 C49 1.250 . S
O55 Tb40 2.353 . S
O55 C49 1.263 . S
C56 O57 1.275 . S
C56 O58 1.246 . S
O57 Tb40 2.427 . S
O57 C56 1.275 . S
O58 Tb40 2.513 . S
O58 C56 1.246 . S
C59 O43 1.245 . S
C59 O44 1.259 . S
Tb60 O63 2.453 . S
Tb60 O64 2.596 . S
Tb60 O65 2.374 . S
Tb60 O73 2.343 . S
Tb60 O75 2.353 . S
Tb60 O77 2.427 . S
Tb60 O78 2.513 . S
C61 O65 1.251 . S
C61 O67 1.263 . S
Tb62 O64 2.343 . S
Tb62 O67 2.353 . S
Tb62 O70 2.427 . S
Tb62 O71 2.513 . S
Tb62 O72 2.453 1_545 S
Tb62 O73 2.596 . S
Tb62 O74 2.374 . S
O63 Tb60 2.453 . S
O63 C79 1.245 . S
O64 Tb60 2.596 . S
O64 Tb62 2.343 . S
O64 C79 1.259 . S
O65 Tb60 2.374 . S
O65 C61 1.251 . S
C66 O70 1.275 . S
C66 O71 1.246 . S
O67 C61 1.263 . S
O67 Tb62 2.353 . S
C68 O72 1.245 . S
C68 O73 1.259 1_565 S
C69 O74 1.250 . S
C69 O75 1.263 . S
O70 Tb62 2.427 . S
O70 C66 1.275 . S
O71 Tb62 2.513 . S
O71 C66 1.246 . S
O72 Tb62 2.453 1_565 S
O72 C68 1.245 . S
O73 Tb60 2.343 . S
O73 Tb62 2.596 . S
O73 C68 1.259 1_545 S
O74 Tb62 2.374 . S
O74 C69 1.250 . S
O75 Tb60 2.353 . S
O75 C69 1.263 . S
C76 O77 1.275 . S
C76 O78 1.246 . S
O77 Tb60 2.427 . S
O77 C76 1.275 . S
O78 Tb60 2.513 . S
O78 C76 1.246 . S
C79 O63 1.245 . S
C79 O64 1.259 . S
Tb80 O83 2.453 1_565 S
Tb80 O84 2.596 . S
Tb80 O85 2.374 . S
Tb80 O93 2.343 . S
Tb80 O95 2.353 . S
Tb80 O97 2.427 . S
Tb80 O98 2.513 . S
C81 O85 1.251 . S
C81 O87 1.263 . S
Tb82 O84 2.343 . S
Tb82 O87 2.353 . S
Tb82 O90 2.427 . S
Tb82 O91 2.513 . S
Tb82 O92 2.453 . S
Tb82 O93 2.596 . S
Tb82 O94 2.374 . S
O83 Tb80 2.453 1_545 S
O83 C99 1.245 . S
O84 Tb80 2.596 . S
O84 Tb82 2.343 . S
O84 C99 1.259 1_565 S
O85 Tb80 2.374 . S
O85 C81 1.251 . S
C86 O90 1.275 . S
C86 O91 1.246 . S
O87 C81 1.263 . S
O87 Tb82 2.353 . S
C88 O92 1.245 . S
C88 O93 1.259 . S
C89 O94 1.250 . S
C89 O95 1.263 . S
O90 Tb82 2.427 . S
O90 C86 1.275 . S
O91 Tb82 2.513 . S
O91 C86 1.246 . S
O92 Tb82 2.453 . S
O92 C88 1.245 . S
O93 Tb80 2.343 . S
O93 Tb82 2.596 . S
O93 C88 1.259 . S
O94 Tb82 2.374 . S
O94 C89 1.250 . S
O95 Tb80 2.353 . S
O95 C89 1.263 . S
C96 O97 1.275 . S
C96 O98 1.246 . S
O97 Tb80 2.427 . S
O97 C96 1.275 . S
O98 Tb80 2.513 . S
O98 C96 1.246 . S
C99 O83 1.245 . S
C99 O84 1.259 1_545 S
Tb100 O103 2.453 1_545 S
Tb100 O104 2.596 . S
Tb100 O105 2.374 . S
Tb100 O113 2.343 . S
Tb100 O115 2.353 . S
Tb100 O117 2.427 . S
Tb100 O118 2.513 . S
C101 O105 1.251 . S
C101 O107 1.263 . S
Tb102 O104 2.343 . S
Tb102 O107 2.353 . S
Tb102 O110 2.427 . S
Tb102 O111 2.513 . S
Tb102 O112 2.453 . S
Tb102 O113 2.596 . S
Tb102 O114 2.374 . S
O103 Tb100 2.453 1_565 S
O103 C119 1.245 . S
O104 Tb100 2.596 . S
O104 Tb102 2.343 . S
O104 C119 1.259 1_545 S
O105 Tb100 2.374 . S
O105 C101 1.251 . S
C106 O110 1.275 . S
C106 O111 1.246 . S
O107 C101 1.263 . S
O107 Tb102 2.353 . S
C108 O112 1.245 . S
C108 O113 1.259 . S
C109 O114 1.250 . S
C109 O115 1.263 . S
O110 Tb102 2.427 . S
O110 C106 1.275 . S
O111 Tb102 2.513 . S
O111 C106 1.246 . S
O112 Tb102 2.453 . S
O112 C108 1.245 . S
O113 Tb100 2.343 . S
O113 Tb102 2.596 . S
O113 C108 1.259 . S
O114 Tb102 2.374 . S
O114 C109 1.250 . S
O115 Tb100 2.353 . S
O115 C109 1.263 . S
C116 O117 1.275 . S
C116 O118 1.246 . S
O117 Tb100 2.427 . S
O117 C116 1.275 . S
O118 Tb100 2.513 . S
O118 C116 1.246 . S
C119 O103 1.245 . S
C119 O104 1.259 1_565 S
Tb120 O123 2.453 1_545 S
Tb120 O124 2.596 . S
Tb120 O125 2.374 . S
Tb120 O133 2.343 . S
Tb120 O135 2.353 . S
Tb120 O137 2.427 . S
Tb120 O138 2.513 . S
C121 O125 1.251 . S
C121 O127 1.263 . S
Tb122 O124 2.343 . S
Tb122 O127 2.353 . S
Tb122 O130 2.427 . S
Tb122 O131 2.513 . S
Tb122 O132 2.453 . S
Tb122 O133 2.596 . S
Tb122 O134 2.374 . S
O123 Tb120 2.453 1_565 S
O123 C139 1.245 . S
O124 Tb120 2.596 . S
O124 Tb122 2.343 . S
O124 C139 1.259 1_545 S
O125 Tb120 2.374 . S
O125 C121 1.251 . S
C126 O130 1.275 . S
C126 O131 1.246 . S
O127 C121 1.263 . S
O127 Tb122 2.353 . S
C128 O132 1.245 . S
C128 O133 1.259 . S
C129 O134 1.250 . S
C129 O135 1.263 . S
O130 Tb122 2.427 . S
O130 C126 1.275 . S
O131 Tb122 2.513 . S
O131 C126 1.246 . S
O132 Tb122 2.453 . S
O132 C128 1.245 . S
O133 Tb120 2.343 . S
O133 Tb122 2.596 . S
O133 C128 1.259 . S
O134 Tb122 2.374 . S
O134 C129 1.250 . S
O135 Tb120 2.353 . S
O135 C129 1.263 . S
C136 O137 1.275 . S
C136 O138 1.246 . S
O137 Tb120 2.427 . S
O137 C136 1.275 . S
O138 Tb120 2.513 . S
O138 C136 1.246 . S
C139 O123 1.245 . S
C139 O124 1.259 1_565 S
Tb140 O143 2.453 1_565 S
Tb140 O144 2.596 . S
Tb140 O145 2.374 . S
Tb140 O153 2.343 . S
Tb140 O155 2.353 . S
Tb140 O157 2.427 . S
Tb140 O158 2.513 . S
C141 O145 1.251 . S
C141 O147 1.263 . S
Tb142 O144 2.343 . S
Tb142 O147 2.353 . S
Tb142 O150 2.427 . S
Tb142 O151 2.513 . S
Tb142 O152 2.453 . S
Tb142 O153 2.596 . S
Tb142 O154 2.374 . S
O143 Tb140 2.453 1_545 S
O143 C159 1.245 . S
O144 Tb140 2.596 . S
O144 Tb142 2.343 . S
O144 C159 1.259 1_565 S
O145 Tb140 2.374 . S
O145 C141 1.251 . S
C146 O150 1.275 . S
C146 O151 1.246 . S
O147 C141 1.263 . S
O147 Tb142 2.353 . S
C148 O152 1.245 . S
C148 O153 1.259 . S
C149 O154 1.250 . S
C149 O155 1.263 . S
O150 Tb142 2.427 . S
O150 C146 1.275 . S
O151 Tb142 2.513 . S
O151 C146 1.246 . S
O152 Tb142 2.453 . S
O152 C148 1.245 . S
O153 Tb140 2.343 . S
O153 Tb142 2.596 . S
O153 C148 1.259 . S
O154 Tb142 2.374 . S
O154 C149 1.250 . S
O155 Tb140 2.353 . S
O155 C149 1.263 . S
C156 O157 1.275 . S
C156 O158 1.246 . S
O157 Tb140 2.427 . S
O157 C156 1.275 . S
O158 Tb140 2.513 . S
O158 C156 1.246 . S
C159 O143 1.245 . S
C159 O144 1.259 1_545 S
Tb160 O163 2.453 . S
Tb160 O164 2.596 . S
Tb160 O165 2.374 . S
Tb160 O173 2.343 . S
Tb160 O175 2.353 . S
Tb160 O177 2.427 . S
Tb160 O178 2.513 . S
C161 O165 1.251 . S
C161 O167 1.263 . S
Tb162 O164 2.343 . S
Tb162 O167 2.353 . S
Tb162 O170 2.427 . S
Tb162 O171 2.513 . S
Tb162 O172 2.453 . S
Tb162 O173 2.596 . S
Tb162 O174 2.374 . S
O163 Tb160 2.453 . S
O163 C179 1.245 . S
O164 Tb160 2.596 . S
O164 Tb162 2.343 . S
O164 C179 1.259 . S
O165 Tb160 2.374 . S
O165 C161 1.251 . S
C166 O170 1.275 . S
C166 O171 1.246 . S
O167 C161 1.263 . S
O167 Tb162 2.353 . S
C168 O172 1.245 . S
C168 O173 1.259 . S
C169 O174 1.250 . S
C169 O175 1.263 . S
O170 Tb162 2.427 . S
O170 C166 1.275 . S
O171 Tb162 2.513 . S
O171 C166 1.246 . S
O172 Tb162 2.453 . S
O172 C168 1.245 . S
O173 Tb160 2.343 . S
O173 Tb162 2.596 . S
O173 C168 1.259 . S
O174 Tb162 2.374 . S
O174 C169 1.250 . S
O175 Tb160 2.353 . S
O175 C169 1.263 . S
C176 O177 1.275 . S
C176 O178 1.246 . S
O177 Tb160 2.427 . S
O177 C176 1.275 . S
O178 Tb160 2.513 . S
O178 C176 1.246 . S
C179 O163 1.245 . S
C179 O164 1.259 . S
Tb180 O183 2.453 . S
Tb180 O184 2.596 . S
Tb180 O185 2.374 . S
Tb180 O193 2.343 . S
Tb180 O195 2.353 . S
Tb180 O197 2.427 . S
Tb180 O198 2.513 . S
C181 O185 1.251 . S
C181 O187 1.263 . S
Tb182 O184 2.343 . S
Tb182 O187 2.353 . S
Tb182 O190 2.427 . S
Tb182 O191 2.513 . S
Tb182 O192 2.453 . S
Tb182 O193 2.596 . S
Tb182 O194 2.374 . S
O183 Tb180 2.453 . S
O183 C199 1.245 . S
O184 Tb180 2.596 . S
O184 Tb182 2.343 . S
O184 C199 1.259 . S
O185 Tb180 2.374 . S
O185 C181 1.251 . S
C186 O190 1.275 . S
C186 O191 1.246 . S
O187 C181 1.263 . S
O187 Tb182 2.353 . S
C188 O192 1.245 . S
C188 O193 1.259 . S
C189 O194 1.250 . S
C189 O195 1.263 . S
O190 Tb182 2.427 . S
O190 C186 1.275 . S
O191 Tb182 2.513 . S
O191 C186 1.246 . S
O192 Tb182 2.453 . S
O192 C188 1.245 . S
O193 Tb180 2.343 . S
O193 Tb182 2.596 . S
O193 C188 1.259 . S
O194 Tb182 2.374 . S
O194 C189 1.250 . S
O195 Tb180 2.353 . S
O195 C189 1.263 . S
C196 O197 1.275 . S
C196 O198 1.246 . S
O197 Tb180 2.427 . S
O197 C196 1.275 . S
O198 Tb180 2.513 . S
O198 C196 1.246 . S
C199 O183 1.245 . S
C199 O184 1.259 . S
Tb200 O203 2.453 . S
Tb200 O204 2.596 . S
Tb200 O205 2.374 . S
Tb200 O213 2.343 . S
Tb200 O215 2.353 . S
Tb200 O217 2.427 . S
Tb200 O218 2.513 . S
C201 O205 1.251 . S
C201 O207 1.263 . S
Tb202 O204 2.343 . S
Tb202 O207 2.353 . S
Tb202 O210 2.427 . S
Tb202 O211 2.513 . S
Tb202 O212 2.453 . S
Tb202 O213 2.596 . S
Tb202 O214 2.374 . S
O203 Tb200 2.453 . S
O203 C219 1.245 . S
O204 Tb200 2.596 . S
O204 Tb202 2.343 . S
O204 C219 1.259 . S
O205 Tb200 2.374 . S
O205 C201 1.251 . S
C206 O210 1.275 . S
C206 O211 1.246 . S
O207 C201 1.263 . S
O207 Tb202 2.353 . S
C208 O212 1.245 . S
C208 O213 1.259 . S
C209 O214 1.250 . S
C209 O215 1.263 . S
O210 Tb202 2.427 . S
O210 C206 1.275 . S
O211 Tb202 2.513 . S
O211 C206 1.246 . S
O212 Tb202 2.453 . S
O212 C208 1.245 . S
O213 Tb200 2.343 . S
O213 Tb202 2.596 . S
O213 C208 1.259 . S
O214 Tb202 2.374 . S
O214 C209 1.250 . S
O215 Tb200 2.353 . S
O215 C209 1.263 . S
C216 O217 1.275 . S
C216 O218 1.246 . S
O217 Tb200 2.427 . S
O217 C216 1.275 . S
O218 Tb200 2.513 . S
O218 C216 1.246 . S
C219 O203 1.245 . S
C219 O204 1.259 . S
Tb220 O223 2.453 . S
Tb220 O224 2.596 . S
Tb220 O225 2.374 . S
Tb220 O233 2.343 . S
Tb220 O235 2.353 . S
Tb220 O237 2.427 . S
Tb220 O238 2.513 . S
C221 O225 1.251 . S
C221 O227 1.263 . S
Tb222 O224 2.343 . S
Tb222 O227 2.353 . S
Tb222 O230 2.427 . S
Tb222 O231 2.513 . S
Tb222 O232 2.453 . S
Tb222 O233 2.596 . S
Tb222 O234 2.374 . S
O223 Tb220 2.453 . S
O223 C239 1.245 . S
O224 Tb220 2.596 . S
O224 Tb222 2.343 . S
O224 C239 1.259 . S
O225 Tb220 2.374 . S
O225 C221 1.251 . S
C226 O230 1.275 . S
C226 O231 1.246 . S
O227 C221 1.263 . S
O227 Tb222 2.353 . S
C228 O232 1.245 . S
C228 O233 1.259 . S
C229 O234 1.250 . S
C229 O235 1.263 . S
O230 Tb222 2.427 . S
O230 C226 1.275 . S
O231 Tb222 2.513 . S
O231 C226 1.246 . S
O232 Tb222 2.453 . S
O232 C228 1.245 . S
O233 Tb220 2.343 . S
O233 Tb222 2.596 . S
O233 C228 1.259 . S
O234 Tb222 2.374 . S
O234 C229 1.250 . S
O235 Tb220 2.353 . S
O235 C229 1.263 . S
C236 O237 1.275 . S
C236 O238 1.246 . S
O237 Tb220 2.427 . S
O237 C236 1.275 . S
O238 Tb220 2.513 . S
O238 C236 1.246 . S
C239 O223 1.245 . S
C239 O224 1.259 . S
Tb240 O243 2.453 . S
Tb240 O244 2.596 . S
Tb240 O245 2.374 . S
Tb240 O253 2.343 . S
Tb240 O255 2.353 . S
Tb240 O257 2.427 . S
Tb240 O258 2.513 . S
C241 O245 1.251 . S
C241 O247 1.263 . S
Tb242 O244 2.343 . S
Tb242 O247 2.353 . S
Tb242 O250 2.427 . S
Tb242 O251 2.513 . S
Tb242 O252 2.453 . S
Tb242 O253 2.596 . S
Tb242 O254 2.374 . S
O243 Tb240 2.453 . S
O243 C259 1.245 . S
O244 Tb240 2.596 . S
O244 Tb242 2.343 . S
O244 C259 1.259 . S
O245 Tb240 2.374 . S
O245 C241 1.251 . S
C246 O250 1.275 . S
C246 O251 1.246 . S
O247 C241 1.263 . S
O247 Tb242 2.353 . S
C248 O252 1.245 . S
C248 O253 1.259 . S
C249 O254 1.250 . S
C249 O255 1.263 . S
O250 Tb242 2.427 . S
O250 C246 1.275 . S
O251 Tb242 2.513 . S
O251 C246 1.246 . S
O252 Tb242 2.453 . S
O252 C248 1.245 . S
O253 Tb240 2.343 . S
O253 Tb242 2.596 . S
O253 C248 1.259 . S
O254 Tb242 2.374 . S
O254 C249 1.250 . S
O255 Tb240 2.353 . S
O255 C249 1.263 . S
C256 O257 1.275 . S
C256 O258 1.246 . S
O257 Tb240 2.427 . S
O257 C256 1.275 . S
O258 Tb240 2.513 . S
O258 C256 1.246 . S
C259 O243 1.245 . S
C259 O244 1.259 . S
Tb260 O263 2.453 . S
Tb260 O264 2.596 . S
Tb260 O265 2.374 . S
Tb260 O273 2.343 . S
Tb260 O275 2.353 . S
Tb260 O277 2.427 . S
Tb260 O278 2.513 . S
C261 O265 1.251 . S
C261 O267 1.263 . S
Tb262 O264 2.343 . S
Tb262 O267 2.353 . S
Tb262 O270 2.427 . S
Tb262 O271 2.513 . S
Tb262 O272 2.453 . S
Tb262 O273 2.596 . S
Tb262 O274 2.374 . S
O263 Tb260 2.453 . S
O263 C279 1.245 . S
O264 Tb260 2.596 . S
O264 Tb262 2.343 . S
O264 C279 1.259 . S
O265 Tb260 2.374 . S
O265 C261 1.251 . S
C266 O270 1.275 . S
C266 O271 1.246 . S
O267 C261 1.263 . S
O267 Tb262 2.353 . S
C268 O272 1.245 . S
C268 O273 1.259 . S
C269 O274 1.250 . S
C269 O275 1.263 . S
O270 Tb262 2.427 . S
O270 C266 1.275 . S
O271 Tb262 2.513 . S
O271 C266 1.246 . S
O272 Tb262 2.453 . S
O272 C268 1.245 . S
O273 Tb260 2.343 . S
O273 Tb262 2.596 . S
O273 C268 1.259 . S
O274 Tb262 2.374 . S
O274 C269 1.250 . S
O275 Tb260 2.353 . S
O275 C269 1.263 . S
C276 O277 1.275 . S
C276 O278 1.246 . S
O277 Tb260 2.427 . S
O277 C276 1.275 . S
O278 Tb260 2.513 . S
O278 C276 1.246 . S
C279 O263 1.245 . S
C279 O264 1.259 . S
Tb280 O283 2.453 . S
Tb280 O284 2.596 . S
Tb280 O285 2.374 . S
Tb280 O293 2.343 . S
Tb280 O295 2.353 . S
Tb280 O297 2.427 . S
Tb280 O298 2.513 . S
C281 O285 1.251 . S
C281 O287 1.263 . S
Tb282 O284 2.343 . S
Tb282 O287 2.353 . S
Tb282 O290 2.427 . S
Tb282 O291 2.513 . S
Tb282 O292 2.453 . S
Tb282 O293 2.596 . S
Tb282 O294 2.374 . S
O283 Tb280 2.453 . S
O283 C299 1.245 . S
O284 Tb280 2.596 . S
O284 Tb282 2.343 . S
O284 C299 1.259 . S
O285 Tb280 2.374 . S
O285 C281 1.251 . S
C286 O290 1.275 . S
C286 O291 1.246 . S
O287 C281 1.263 . S
O287 Tb282 2.353 . S
C288 O292 1.245 . S
C288 O293 1.259 . S
C289 O294 1.250 . S
C289 O295 1.263 . S
O290 Tb282 2.427 . S
O290 C286 1.275 . S
O291 Tb282 2.513 . S
O291 C286 1.246 . S
O292 Tb282 2.453 . S
O292 C288 1.245 . S
O293 Tb280 2.343 . S
O293 Tb282 2.596 . S
O293 C288 1.259 . S
O294 Tb282 2.374 . S
O294 C289 1.250 . S
O295 Tb280 2.353 . S
O295 C289 1.263 . S
C296 O297 1.275 . S
C296 O298 1.246 . S
O297 Tb280 2.427 . S
O297 C296 1.275 . S
O298 Tb280 2.513 . S
O298 C296 1.246 . S
C299 O283 1.245 . S
C299 O284 1.259 . S
Tb300 O303 2.453 . S
Tb300 O304 2.596 . S
Tb300 O305 2.374 . S
Tb300 O313 2.343 . S
Tb300 O315 2.353 . S
Tb300 O317 2.427 . S
Tb300 O318 2.513 . S
C301 O305 1.251 . S
C301 O307 1.263 . S
Tb302 O304 2.343 . S
Tb302 O307 2.353 . S
Tb302 O310 2.427 . S
Tb302 O311 2.513 . S
Tb302 O312 2.453 . S
Tb302 O313 2.596 . S
Tb302 O314 2.374 . S
O303 Tb300 2.453 . S
O303 C319 1.245 . S
O304 Tb300 2.596 . S
O304 Tb302 2.343 . S
O304 C319 1.259 . S
O305 Tb300 2.374 . S
O305 C301 1.251 . S
C306 O310 1.275 . S
C306 O311 1.246 . S
O307 C301 1.263 . S
O307 Tb302 2.353 . S
C308 O312 1.245 . S
C308 O313 1.259 . S
C309 O314 1.250 . S
C309 O315 1.263 . S
O310 Tb302 2.427 . S
O310 C306 1.275 . S
O311 Tb302 2.513 . S
O311 C306 1.246 . S
O312 Tb302 2.453 . S
O312 C308 1.245 . S
O313 Tb300 2.343 . S
O313 Tb302 2.596 . S
O313 C308 1.259 . S
O314 Tb302 2.374 . S
O314 C309 1.250 . S
O315 Tb300 2.353 . S
O315 C309 1.263 . S
C316 O317 1.275 . S
C316 O318 1.246 . S
O317 Tb300 2.427 . S
O317 C316 1.275 . S
O318 Tb300 2.513 . S
O318 C316 1.246 . S
C319 O303 1.245 . S
C319 O304 1.259 . S
H320 C328 0.950 . S
H321 C333 0.950 . S
H322 C330 0.950 . S
H323 C332 0.950 . S
H324 C334 0.950 . S
H325 C336 0.950 . S
H326 C338 0.950 . S
H327 C339 0.950 . S
C328 H320 0.950 . S
C328 C329 1.386 . S
C328 C330 1.391 . S
C329 C328 1.386 . S
C329 C333 1.393 . S
C330 H322 0.950 . S
C330 C328 1.391 . S
C330 C331 1.400 . S
C331 C330 1.400 . S
C331 C332 1.398 . S
C331 C337 1.491 . S
C332 H323 0.950 . S
C332 C331 1.398 . S
C332 C333 1.391 . S
C333 H321 0.950 . S
C333 C329 1.393 . S
C333 C332 1.391 . S
C334 H324 0.950 . S
C334 C335 1.386 . S
C334 C336 1.391 . S
C335 C334 1.386 . S
C335 C339 1.393 . S
C336 H325 0.950 . S
C336 C334 1.391 . S
C336 C337 1.400 . S
C337 C331 1.491 . S
C337 C336 1.400 . S
C337 C338 1.398 . S
C338 H326 0.950 . S
C338 C337 1.398 . S
C338 C339 1.391 . S
C339 H327 0.950 . S
C339 C335 1.393 . S
C339 C338 1.391 . S
H340 C348 0.950 . S
H341 C353 0.950 . S
H342 C350 0.950 . S
H343 C352 0.950 . S
H344 C354 0.950 . S
H345 C356 0.950 . S
H346 C358 0.950 . S
H347 C359 0.950 . S
C348 H340 0.950 . S
C348 C349 1.386 . S
C348 C350 1.391 . S
C349 C348 1.386 . S
C349 C353 1.393 . S
C350 H342 0.950 . S
C350 C348 1.391 . S
C350 C351 1.400 . S
C351 C350 1.400 . S
C351 C352 1.398 . S
C351 C357 1.491 . S
C352 H343 0.950 . S
C352 C351 1.398 . S
C352 C353 1.391 . S
C353 H341 0.950 . S
C353 C349 1.393 . S
C353 C352 1.391 . S
C354 H344 0.950 . S
C354 C355 1.386 . S
C354 C356 1.391 . S
C355 C354 1.386 . S
C355 C359 1.393 . S
C356 H345 0.950 . S
C356 C354 1.391 . S
C356 C357 1.400 . S
C357 C351 1.491 . S
C357 C356 1.400 . S
C357 C358 1.398 . S
C358 H346 0.950 . S
C358 C357 1.398 . S
C358 C359 1.391 . S
C359 H347 0.950 . S
C359 C355 1.393 . S
C359 C358 1.391 . S
H360 C368 0.950 . S
H361 C373 0.950 . S
H362 C370 0.950 . S
H363 C372 0.950 . S
H364 C374 0.950 . S
H365 C376 0.950 . S
H366 C378 0.950 . S
H367 C379 0.950 . S
C368 H360 0.950 . S
C368 C369 1.386 . S
C368 C370 1.391 . S
C369 C368 1.386 . S
C369 C373 1.393 . S
C370 H362 0.950 . S
C370 C368 1.391 . S
C370 C371 1.400 . S
C371 C370 1.400 . S
C371 C372 1.398 . S
C371 C377 1.491 . S
C372 H363 0.950 . S
C372 C371 1.398 . S
C372 C373 1.391 . S
C373 H361 0.950 . S
C373 C369 1.393 . S
C373 C372 1.391 . S
C374 H364 0.950 . S
C374 C375 1.386 . S
C374 C376 1.391 . S
C375 C374 1.386 . S
C375 C379 1.393 . S
C376 H365 0.950 . S
C376 C374 1.391 . S
C376 C377 1.400 . S
C377 C371 1.491 . S
C377 C376 1.400 . S
C377 C378 1.398 . S
C378 H366 0.950 . S
C378 C377 1.398 . S
C378 C379 1.391 . S
C379 H367 0.950 . S
C379 C375 1.393 . S
C379 C378 1.391 . S
H380 C388 0.950 . S
H381 C393 0.950 . S
H382 C390 0.950 . S
H383 C392 0.950 . S
H384 C394 0.950 . S
H385 C396 0.950 . S
H386 C398 0.950 . S
H387 C399 0.950 . S
C388 H380 0.950 . S
C388 C389 1.386 . S
C388 C390 1.391 . S
C389 C388 1.386 . S
C389 C393 1.393 . S
C390 H382 0.950 . S
C390 C388 1.391 . S
C390 C391 1.400 . S
C391 C390 1.400 . S
C391 C392 1.398 . S
C391 C397 1.491 . S
C392 H383 0.950 . S
C392 C391 1.398 . S
C392 C393 1.391 . S
C393 H381 0.950 . S
C393 C389 1.393 . S
C393 C392 1.391 . S
C394 H384 0.950 . S
C394 C395 1.386 . S
C394 C396 1.391 . S
C395 C394 1.386 . S
C395 C399 1.393 . S
C396 H385 0.950 . S
C396 C394 1.391 . S
C396 C397 1.400 . S
C397 C391 1.491 . S
C397 C396 1.400 . S
C397 C398 1.398 . S
C398 H386 0.950 . S
C398 C397 1.398 . S
C398 C399 1.391 . S
C399 H387 0.950 . S
C399 C395 1.393 . S
C399 C398 1.391 . S
H400 C408 0.950 . S
H401 C413 0.950 . S
H402 C410 0.950 . S
H403 C412 0.950 . S
H404 C414 0.950 . S
H405 C416 0.950 . S
H406 C418 0.950 . S
H407 C419 0.950 . S
C408 H400 0.950 . S
C408 C409 1.386 . S
C408 C410 1.391 . S
C409 C408 1.386 . S
C409 C413 1.393 . S
C410 H402 0.950 . S
C410 C408 1.391 . S
C410 C411 1.400 . S
C411 C410 1.400 . S
C411 C412 1.398 . S
C411 C417 1.491 . S
C412 H403 0.950 . S
C412 C411 1.398 . S
C412 C413 1.391 . S
C413 H401 0.950 . S
C413 C409 1.393 . S
C413 C412 1.391 . S
C414 H404 0.950 . S
C414 C415 1.386 . S
C414 C416 1.391 . S
C415 C414 1.386 . S
C415 C419 1.393 . S
C416 H405 0.950 . S
C416 C414 1.391 . S
C416 C417 1.400 . S
C417 C411 1.491 . S
C417 C416 1.400 . S
C417 C418 1.398 . S
C418 H406 0.950 . S
C418 C417 1.398 . S
C418 C419 1.391 . S
C419 H407 0.950 . S
C419 C415 1.393 . S
C419 C418 1.391 . S
H420 C428 0.950 . S
H421 C433 0.950 . S
H422 C430 0.950 . S
H423 C432 0.950 . S
H424 C434 0.950 . S
H425 C436 0.950 . S
H426 C438 0.950 . S
H427 C439 0.950 . S
C428 H420 0.950 . S
C428 C429 1.386 . S
C428 C430 1.391 . S
C429 C428 1.386 . S
C429 C433 1.393 . S
C430 H422 0.950 . S
C430 C428 1.391 . S
C430 C431 1.400 . S
C431 C430 1.400 . S
C431 C432 1.398 . S
C431 C437 1.491 . S
C432 H423 0.950 . S
C432 C431 1.398 . S
C432 C433 1.391 . S
C433 H421 0.950 . S
C433 C429 1.393 . S
C433 C432 1.391 . S
C434 H424 0.950 . S
C434 C435 1.386 . S
C434 C436 1.391 . S
C435 C434 1.386 . S
C435 C439 1.393 . S
C436 H425 0.950 . S
C436 C434 1.391 . S
C436 C437 1.400 . S
C437 C431 1.491 . S
C437 C436 1.400 . S
C437 C438 1.398 . S
C438 H426 0.950 . S
C438 C437 1.398 . S
C438 C439 1.391 . S
C439 H427 0.950 . S
C439 C435 1.393 . S
C439 C438 1.391 . S
H440 C448 0.950 . S
H441 C453 0.950 . S
H442 C450 0.950 . S
H443 C452 0.950 . S
H444 C454 0.950 . S
H445 C456 0.950 . S
H446 C458 0.950 . S
H447 C459 0.950 . S
C448 H440 0.950 . S
C448 C449 1.386 . S
C448 C450 1.391 . S
C449 C448 1.386 . S
C449 C453 1.393 . S
C450 H442 0.950 . S
C450 C448 1.391 . S
C450 C451 1.400 . S
C451 C450 1.400 . S
C451 C452 1.398 . S
C451 C457 1.491 . S
C452 H443 0.950 . S
C452 C451 1.398 . S
C452 C453 1.391 . S
C453 H441 0.950 . S
C453 C449 1.393 . S
C453 C452 1.391 . S
C454 H444 0.950 . S
C454 C455 1.386 . S
C454 C456 1.391 . S
C455 C454 1.386 . S
C455 C459 1.393 . S
C456 H445 0.950 . S
C456 C454 1.391 . S
C456 C457 1.400 . S
C457 C451 1.491 . S
C457 C456 1.400 . S
C457 C458 1.398 . S
C458 H446 0.950 . S
C458 C457 1.398 . S
C458 C459 1.391 . S
C459 H447 0.950 . S
C459 C455 1.393 . S
C459 C458 1.391 . S
H460 C468 0.950 . S
H461 C473 0.950 . S
H462 C470 0.950 . S
H463 C472 0.950 . S
H464 C474 0.950 . S
H465 C476 0.950 . S
H466 C478 0.950 . S
H467 C479 0.950 . S
C468 H460 0.950 . S
C468 C469 1.386 . S
C468 C470 1.391 . S
C469 C468 1.386 . S
C469 C473 1.393 . S
C470 H462 0.950 . S
C470 C468 1.391 . S
C470 C471 1.400 . S
C471 C470 1.400 . S
C471 C472 1.398 . S
C471 C477 1.491 . S
C472 H463 0.950 . S
C472 C471 1.398 . S
C472 C473 1.391 . S
C473 H461 0.950 . S
C473 C469 1.393 . S
C473 C472 1.391 . S
C474 H464 0.950 . S
C474 C475 1.386 . S
C474 C476 1.391 . S
C475 C474 1.386 . S
C475 C479 1.393 . S
C476 H465 0.950 . S
C476 C474 1.391 . S
C476 C477 1.400 . S
C477 C471 1.491 . S
C477 C476 1.400 . S
C477 C478 1.398 . S
C478 H466 0.950 . S
C478 C477 1.398 . S
C478 C479 1.391 . S
C479 H467 0.950 . S
C479 C475 1.393 . S
C479 C478 1.391 . S
H480 C488 0.951 . S
H481 C493 0.950 . S
H482 C490 0.950 . S
H483 C492 0.950 . S
H484 C494 0.951 . S
H485 C496 0.950 . S
H486 C498 0.950 . S
H487 C499 0.950 . S
C488 H480 0.951 . S
C488 C489 1.383 1_545 S
C488 C490 1.392 . S
C489 C488 1.383 1_565 S
C489 C493 1.393 . S
C490 H482 0.950 . S
C490 C488 1.392 . S
C490 C491 1.400 1_545 S
C491 C490 1.400 1_565 S
C491 C492 1.398 . S
C491 C497 1.491 1_565 S
C492 H483 0.950 . S
C492 C491 1.398 . S
C492 C493 1.391 . S
C493 H481 0.950 . S
C493 C489 1.393 . S
C493 C492 1.391 . S
C494 H484 0.951 . S
C494 C495 1.383 1_565 S
C494 C496 1.392 . S
C495 C494 1.383 1_545 S
C495 C499 1.393 . S
C496 H485 0.950 . S
C496 C494 1.392 . S
C496 C497 1.400 1_565 S
C497 C491 1.491 1_545 S
C497 C496 1.400 1_545 S
C497 C498 1.398 . S
C498 H486 0.950 . S
C498 C497 1.398 . S
C498 C499 1.391 . S
C499 H487 0.950 . S
C499 C495 1.393 . S
C499 C498 1.391 . S
H500 C508 0.950 1_565 S
H501 C513 0.950 . S
H502 C510 0.950 . S
H503 C512 0.950 . S
H504 C514 0.950 1_545 S
H505 C516 0.950 . S
H506 C518 0.950 . S
H507 C519 0.950 . S
C508 H500 0.950 1_545 S
C508 C509 1.386 . S
C508 C510 1.391 1_545 S
C509 C508 1.386 . S
C509 C513 1.393 . S
C510 H502 0.950 . S
C510 C508 1.391 1_565 S
C510 C511 1.400 1_565 S
C511 C510 1.400 1_545 S
C511 C512 1.398 . S
C511 C517 1.491 1_545 S
C512 H503 0.950 . S
C512 C511 1.398 . S
C512 C513 1.391 . S
C513 H501 0.950 . S
C513 C509 1.393 . S
C513 C512 1.391 . S
C514 H504 0.950 1_565 S
C514 C515 1.386 . S
C514 C516 1.391 1_565 S
C515 C514 1.386 . S
C515 C519 1.393 . S
C516 H505 0.950 . S
C516 C514 1.391 1_545 S
C516 C517 1.400 1_545 S
C517 C511 1.491 1_565 S
C517 C516 1.400 1_565 S
C517 C518 1.398 . S
C518 H506 0.950 . S
C518 C517 1.398 . S
C518 C519 1.391 . S
C519 H507 0.950 . S
C519 C515 1.393 . S
C519 C518 1.391 . S
H520 C528 0.950 . S
H521 C533 0.950 . S
H522 C530 0.950 . S
H523 C532 0.950 . S
H524 C534 0.950 . S
H525 C536 0.950 . S
H526 C538 0.950 . S
H527 C539 0.950 . S
C528 H520 0.950 . S
C528 C529 1.386 . S
C528 C530 1.391 . S
C529 C528 1.386 . S
C529 C533 1.393 . S
C530 H522 0.950 . S
C530 C528 1.391 . S
C530 C531 1.400 . S
C531 C530 1.400 . S
C531 C532 1.398 . S
C531 C537 1.491 1_545 S
C532 H523 0.950 . S
C532 C531 1.398 . S
C532 C533 1.391 . S
C533 H521 0.950 . S
C533 C529 1.393 . S
C533 C532 1.391 . S
C534 H524 0.950 . S
C534 C535 1.386 . S
C534 C536 1.391 . S
C535 C534 1.386 . S
C535 C539 1.393 . S
C536 H525 0.950 . S
C536 C534 1.391 . S
C536 C537 1.400 . S
C537 C531 1.491 1_565 S
C537 C536 1.400 . S
C537 C538 1.398 . S
C538 H526 0.950 . S
C538 C537 1.398 . S
C538 C539 1.391 . S
C539 H527 0.950 . S
C539 C535 1.393 . S
C539 C538 1.391 . S
H540 C548 0.950 . S
H541 C553 0.950 1_565 S
H542 C550 0.950 . S
H543 C552 0.950 . S
H544 C554 0.950 . S
H545 C556 0.950 . S
H546 C558 0.950 . S
H547 C559 0.950 1_545 S
C548 H540 0.950 . S
C548 C549 1.386 . S
C548 C550 1.391 . S
C549 C548 1.386 . S
C549 C553 1.393 . S
C550 H542 0.950 . S
C550 C548 1.391 . S
C550 C551 1.400 . S
C551 C550 1.400 . S
C551 C552 1.398 1_545 S
C551 C557 1.491 1_545 S
C552 H543 0.950 . S
C552 C551 1.398 1_565 S
C552 C553 1.391 1_565 S
C553 H541 0.950 1_545 S
C553 C549 1.393 . S
C553 C552 1.391 1_545 S
C554 H544 0.950 . S
C554 C555 1.386 . S
C554 C556 1.391 . S
C555 C554 1.386 . S
C555 C559 1.393 . S
C556 H545 0.950 . S
C556 C554 1.391 . S
C556 C557 1.400 . S
C557 C551 1.491 1_565 S
C557 C556 1.400 . S
C557 C558 1.398 1_565 S
C558 H546 0.950 . S
C558 C557 1.398 1_545 S
C558 C559 1.391 1_545 S
C559 H547 0.950 1_565 S
C559 C555 1.393 . S
C559 C558 1.391 1_565 S
H560 C568 0.950 . S
H561 C573 0.950 . S
H562 C570 0.950 . S
H563 C572 0.950 . S
H564 C574 0.950 . S
H565 C576 0.950 . S
H566 C578 0.950 . S
H567 C579 0.950 . S
C568 H560 0.950 . S
C568 C569 1.386 . S
C568 C570 1.391 . S
C569 C568 1.386 . S
C569 C573 1.393 . S
C570 H562 0.950 . S
C570 C568 1.391 . S
C570 C571 1.400 . S
C571 C570 1.400 . S
C571 C572 1.398 . S
C571 C577 1.491 . S
C572 H563 0.950 . S
C572 C571 1.398 . S
C572 C573 1.391 . S
C573 H561 0.950 . S
C573 C569 1.393 . S
C573 C572 1.391 . S
C574 H564 0.950 . S
C574 C575 1.386 . S
C574 C576 1.391 . S
C575 C574 1.386 . S
C575 C579 1.393 . S
C576 H565 0.950 . S
C576 C574 1.391 . S
C576 C577 1.400 . S
C577 C571 1.491 . S
C577 C576 1.400 . S
C577 C578 1.398 . S
C578 H566 0.950 . S
C578 C577 1.398 . S
C578 C579 1.391 . S
C579 H567 0.950 . S
C579 C575 1.393 . S
C579 C578 1.391 . S
H580 C588 0.950 . S
H581 C593 0.950 . S
H582 C590 0.950 . S
H583 C592 0.950 . S
H584 C594 0.950 . S
H585 C596 0.950 . S
H586 C598 0.950 . S
H587 C599 0.950 . S
C588 H580 0.950 . S
C588 C589 1.386 . S
C588 C590 1.391 . S
C589 C588 1.386 . S
C589 C593 1.393 . S
C590 H582 0.950 . S
C590 C588 1.391 . S
C590 C591 1.400 . S
C591 C590 1.400 . S
C591 C592 1.398 . S
C591 C597 1.491 . S
C592 H583 0.950 . S
C592 C591 1.398 . S
C592 C593 1.391 . S
C593 H581 0.950 . S
C593 C589 1.393 . S
C593 C592 1.391 . S
C594 H584 0.950 . S
C594 C595 1.386 . S
C594 C596 1.391 . S
C595 C594 1.386 . S
C595 C599 1.393 . S
C596 H585 0.950 . S
C596 C594 1.391 . S
C596 C597 1.400 . S
C597 C591 1.491 . S
C597 C596 1.400 . S
C597 C598 1.398 . S
C598 H586 0.950 . S
C598 C597 1.398 . S
C598 C599 1.391 . S
C599 H587 0.950 . S
C599 C595 1.393 . S
C599 C598 1.391 . S
H600 C608 0.950 . S
H601 C613 0.950 . S
H602 C610 0.950 . S
H603 C612 0.950 . S
H604 C614 0.950 . S
H605 C616 0.950 . S
H606 C618 0.950 . S
H607 C619 0.950 . S
C608 H600 0.950 . S
C608 C609 1.386 . S
C608 C610 1.391 . S
C609 C608 1.386 . S
C609 C613 1.393 . S
C610 H602 0.950 . S
C610 C608 1.391 . S
C610 C611 1.400 . S
C611 C610 1.400 . S
C611 C612 1.398 . S
C611 C617 1.491 . S
C612 H603 0.950 . S
C612 C611 1.398 . S
C612 C613 1.391 . S
C613 H601 0.950 . S
C613 C609 1.393 . S
C613 C612 1.391 . S
C614 H604 0.950 . S
C614 C615 1.386 . S
C614 C616 1.391 . S
C615 C614 1.386 . S
C615 C619 1.393 . S
C616 H605 0.950 . S
C616 C614 1.391 . S
C616 C617 1.400 . S
C617 C611 1.491 . S
C617 C616 1.400 . S
C617 C618 1.398 . S
C618 H606 0.950 . S
C618 C617 1.398 . S
C618 C619 1.391 . S
C619 H607 0.950 . S
C619 C615 1.393 . S
C619 C618 1.391 . S
H620 C628 0.950 . S
H621 C633 0.950 . S
H622 C630 0.950 . S
H623 C632 0.950 . S
H624 C634 0.950 . S
H625 C636 0.950 . S
H626 C638 0.950 . S
H627 C639 0.950 . S
C628 H620 0.950 . S
C628 C629 1.386 . S
C628 C630 1.391 . S
C629 C628 1.386 . S
C629 C633 1.393 . S
C630 H622 0.950 . S
C630 C628 1.391 . S
C630 C631 1.400 . S
C631 C630 1.400 . S
C631 C632 1.398 . S
C631 C637 1.491 . S
C632 H623 0.950 . S
C632 C631 1.398 . S
C632 C633 1.391 . S
C633 H621 0.950 . S
C633 C629 1.393 . S
C633 C632 1.391 . S
C634 H624 0.950 . S
C634 C635 1.386 . S
C634 C636 1.391 . S
C635 C634 1.386 . S
C635 C639 1.393 . S
C636 H625 0.950 . S
C636 C634 1.391 . S
C636 C637 1.400 . S
C637 C631 1.491 . S
C637 C636 1.400 . S
C637 C638 1.398 . S
C638 H626 0.950 . S
C638 C637 1.398 . S
C638 C639 1.391 . S
C639 H627 0.950 . S
C639 C635 1.393 . S
C639 C638 1.391 . S
H640 C648 0.950 . S
H641 C653 0.950 . S
H642 C650 0.950 . S
H643 C652 0.950 . S
H644 C654 0.950 . S
H645 C656 0.950 . S
H646 C658 0.950 . S
H647 C659 0.950 . S
C648 H640 0.950 . S
C648 C649 1.386 . S
C648 C650 1.391 . S
C649 C648 1.386 . S
C649 C653 1.393 . S
C650 H642 0.950 . S
C650 C648 1.391 . S
C650 C651 1.400 . S
C651 C650 1.400 . S
C651 C652 1.398 . S
C651 C657 1.491 1_556 S
C652 H643 0.950 . S
C652 C651 1.398 . S
C652 C653 1.391 . S
C653 H641 0.950 . S
C653 C649 1.393 . S
C653 C652 1.391 . S
C654 H644 0.950 . S
C654 C655 1.386 . S
C654 C656 1.391 . S
C655 C654 1.386 . S
C655 C659 1.393 . S
C656 H645 0.950 . S
C656 C654 1.391 . S
C656 C657 1.400 . S
C657 C651 1.491 1_554 S
C657 C656 1.400 . S
C657 C658 1.398 . S
C658 H646 0.950 . S
C658 C657 1.398 . S
C658 C659 1.391 . S
C659 H647 0.950 . S
C659 C655 1.393 . S
C659 C658 1.391 . S
H660 C668 0.950 . S
H661 C673 0.950 . S
H662 C670 0.950 . S
H663 C672 0.950 . S
H664 C674 0.950 . S
H665 C676 0.950 . S
H666 C678 0.950 . S
H667 C679 0.950 . S
C668 H660 0.950 . S
C668 C669 1.386 . S
C668 C670 1.391 . S
C669 C668 1.386 . S
C669 C673 1.393 . S
C670 H662 0.950 . S
C670 C668 1.391 . S
C670 C671 1.400 . S
C671 C670 1.400 . S
C671 C672 1.398 . S
C671 C677 1.491 1_556 S
C672 H663 0.950 . S
C672 C671 1.398 . S
C672 C673 1.391 . S
C673 H661 0.950 . S
C673 C669 1.393 . S
C673 C672 1.391 . S
C674 H664 0.950 . S
C674 C675 1.386 . S
C674 C676 1.391 . S
C675 C674 1.386 . S
C675 C679 1.393 . S
C676 H665 0.950 . S
C676 C674 1.391 . S
C676 C677 1.400 . S
C677 C671 1.491 1_554 S
C677 C676 1.400 . S
C677 C678 1.398 . S
C678 H666 0.950 . S
C678 C677 1.398 . S
C678 C679 1.391 . S
C679 H667 0.950 . S
C679 C675 1.393 . S
C679 C678 1.391 . S
H680 C688 0.950 . S
H681 C693 0.950 . S
H682 C690 0.950 . S
H683 C692 0.950 . S
H684 C694 0.950 . S
H685 C696 0.950 . S
H686 C698 0.950 . S
H687 C699 0.950 . S
C688 H680 0.950 . S
C688 C689 1.386 . S
C688 C690 1.391 . S
C689 C688 1.386 . S
C689 C693 1.393 . S
C690 H682 0.950 . S
C690 C688 1.391 . S
C690 C691 1.400 . S
C691 C690 1.400 . S
C691 C692 1.398 . S
C691 C697 1.491 . S
C692 H683 0.950 . S
C692 C691 1.398 . S
C692 C693 1.391 . S
C693 H681 0.950 . S
C693 C689 1.393 . S
C693 C692 1.391 . S
C694 H684 0.950 . S
C694 C695 1.386 . S
C694 C696 1.391 . S
C695 C694 1.386 . S
C695 C699 1.393 . S
C696 H685 0.950 . S
C696 C694 1.391 . S
C696 C697 1.400 . S
C697 C691 1.491 . S
C697 C696 1.400 . S
C697 C698 1.398 . S
C698 H686 0.950 . S
C698 C697 1.398 . S
C698 C699 1.391 . S
C699 H687 0.950 . S
C699 C695 1.393 . S
C699 C698 1.391 . S
H700 C708 0.950 . S
H701 C713 0.950 . S
H702 C710 0.950 . S
H703 C712 0.950 . S
H704 C714 0.950 . S
H705 C716 0.950 . S
H706 C718 0.950 . S
H707 C719 0.950 . S
C708 H700 0.950 . S
C708 C709 1.386 . S
C708 C710 1.391 . S
C709 C708 1.386 . S
C709 C713 1.393 . S
C710 H702 0.950 . S
C710 C708 1.391 . S
C710 C711 1.400 . S
C711 C710 1.400 . S
C711 C712 1.398 . S
C711 C717 1.491 . S
C712 H703 0.950 . S
C712 C711 1.398 . S
C712 C713 1.391 . S
C713 H701 0.950 . S
C713 C709 1.393 . S
C713 C712 1.391 . S
C714 H704 0.950 . S
C714 C715 1.386 . S
C714 C716 1.391 . S
C715 C714 1.386 . S
C715 C719 1.393 . S
C716 H705 0.950 . S
C716 C714 1.391 . S
C716 C717 1.400 . S
C717 C711 1.491 . S
C717 C716 1.400 . S
C717 C718 1.398 . S
C718 H706 0.950 . S
C718 C717 1.398 . S
C718 C719 1.391 . S
C719 H707 0.950 . S
C719 C715 1.393 . S
C719 C718 1.391 . S
H720 C728 0.950 . S
H721 C733 0.950 . S
H722 C730 0.950 . S
H723 C732 0.950 . S
H724 C734 0.950 . S
H725 C736 0.950 . S
H726 C738 0.950 . S
H727 C739 0.950 . S
C728 H720 0.950 . S
C728 C729 1.386 . S
C728 C730 1.391 . S
C729 C728 1.386 . S
C729 C733 1.393 . S
C730 H722 0.950 . S
C730 C728 1.391 . S
C730 C731 1.400 . S
C731 C730 1.400 . S
C731 C732 1.398 . S
C731 C737 1.491 1_554 S
C732 H723 0.950 . S
C732 C731 1.398 . S
C732 C733 1.391 . S
C733 H721 0.950 . S
C733 C729 1.393 . S
C733 C732 1.391 . S
C734 H724 0.950 . S
C734 C735 1.386 . S
C734 C736 1.391 . S
C735 C734 1.386 . S
C735 C739 1.393 . S
C736 H725 0.950 . S
C736 C734 1.391 . S
C736 C737 1.400 . S
C737 C731 1.491 1_556 S
C737 C736 1.400 . S
C737 C738 1.398 . S
C738 H726 0.950 . S
C738 C737 1.398 . S
C738 C739 1.391 . S
C739 H727 0.950 . S
C739 C735 1.393 . S
C739 C738 1.391 . S
H740 C748 0.950 . S
H741 C753 0.950 . S
H742 C750 0.950 . S
H743 C752 0.950 . S
H744 C754 0.950 . S
H745 C756 0.950 . S
H746 C758 0.950 . S
H747 C759 0.950 . S
C748 H740 0.950 . S
C748 C749 1.386 . S
C748 C750 1.391 . S
C749 C748 1.386 . S
C749 C753 1.393 . S
C750 H742 0.950 . S
C750 C748 1.391 . S
C750 C751 1.400 . S
C751 C750 1.400 . S
C751 C752 1.398 . S
C751 C757 1.491 1_556 S
C752 H743 0.950 . S
C752 C751 1.398 . S
C752 C753 1.391 . S
C753 H741 0.950 . S
C753 C749 1.393 . S
C753 C752 1.391 . S
C754 H744 0.950 . S
C754 C755 1.386 . S
C754 C756 1.391 . S
C755 C754 1.386 . S
C755 C759 1.393 . S
C756 H745 0.950 . S
C756 C754 1.391 . S
C756 C757 1.400 . S
C757 C751 1.491 1_554 S
C757 C756 1.400 . S
C757 C758 1.398 . S
C758 H746 0.950 . S
C758 C757 1.398 . S
C758 C759 1.391 . S
C759 H747 0.950 . S
C759 C755 1.393 . S
C759 C758 1.391 . S
H760 C768 0.950 . S
H761 C773 0.950 . S
H762 C770 0.950 . S
H763 C772 0.950 . S
H764 C774 0.950 . S
H765 C776 0.950 . S
H766 C778 0.950 . S
H767 C779 0.950 . S
C768 H760 0.950 . S
C768 C769 1.386 . S
C768 C770 1.391 . S
C769 C768 1.386 . S
C769 C773 1.393 . S
C770 H762 0.950 . S
C770 C768 1.391 . S
C770 C771 1.400 . S
C771 C770 1.400 . S
C771 C772 1.398 . S
C771 C777 1.491 . S
C772 H763 0.950 . S
C772 C771 1.398 . S
C772 C773 1.391 . S
C773 H761 0.950 . S
C773 C769 1.393 . S
C773 C772 1.391 . S
C774 H764 0.950 . S
C774 C775 1.386 . S
C774 C776 1.391 . S
C775 C774 1.386 . S
C775 C779 1.393 . S
C776 H765 0.950 . S
C776 C774 1.391 . S
C776 C777 1.400 . S
C777 C771 1.491 . S
C777 C776 1.400 . S
C777 C778 1.398 . S
C778 H766 0.950 . S
C778 C777 1.398 . S
C778 C779 1.391 . S
C779 H767 0.950 . S
C779 C775 1.393 . S
C779 C778 1.391 . S
H780 C788 0.950 . S
H781 C793 0.950 . S
H782 C790 0.950 . S
H783 C792 0.950 . S
H784 C794 0.950 . S
H785 C796 0.950 . S
H786 C798 0.950 . S
H787 C799 0.950 . S
C788 H780 0.950 . S
C788 C789 1.386 . S
C788 C790 1.391 . S
C789 C788 1.386 . S
C789 C793 1.393 . S
C790 H782 0.950 . S
C790 C788 1.391 . S
C790 C791 1.400 . S
C791 C790 1.400 . S
C791 C792 1.398 . S
C791 C797 1.491 . S
C792 H783 0.950 . S
C792 C791 1.398 . S
C792 C793 1.391 . S
C793 H781 0.950 . S
C793 C789 1.393 . S
C793 C792 1.391 . S
C794 H784 0.950 . S
C794 C795 1.386 . S
C794 C796 1.391 . S
C795 C794 1.386 . S
C795 C799 1.393 . S
C796 H785 0.950 . S
C796 C794 1.391 . S
C796 C797 1.400 . S
C797 C791 1.491 . S
C797 C796 1.400 . S
C797 C798 1.398 . S
C798 H786 0.950 . S
C798 C797 1.398 . S
C798 C799 1.391 . S
C799 H787 0.950 . S
C799 C795 1.393 . S
C799 C798 1.391 . S
H800 C808 0.950 . S
H801 C813 0.950 . S
H802 C810 0.950 . S
H803 C812 0.950 . S
H804 C814 0.950 . S
H805 C816 0.950 . S
H806 C818 0.950 . S
H807 C819 0.950 . S
C808 H800 0.950 . S
C808 C809 1.386 . S
C808 C810 1.391 . S
C809 C808 1.386 . S
C809 C813 1.393 1_565 S
C810 H802 0.950 . S
C810 C808 1.391 . S
C810 C811 1.409 . S
C811 C810 1.409 . S
C811 C812 1.389 1_565 S
C811 C817 1.490 1_665 S
C812 H803 0.950 . S
C812 C811 1.389 1_545 S
C812 C813 1.391 . S
C813 H801 0.950 . S
C813 C809 1.393 1_545 S
C813 C812 1.391 . S
C814 H804 0.950 . S
C814 C815 1.386 . S
C814 C816 1.391 . S
C815 C814 1.386 . S
C815 C819 1.393 1_545 S
C816 H805 0.950 . S
C816 C814 1.391 . S
C816 C817 1.409 . S
C817 C811 1.490 1_445 S
C817 C816 1.409 . S
C817 C818 1.389 1_545 S
C818 H806 0.950 . S
C818 C817 1.389 1_565 S
C818 C819 1.391 . S
C819 H807 0.950 . S
C819 C815 1.393 1_565 S
C819 C818 1.391 . S
H820 C828 0.950 . S
H821 C833 0.950 . S
H822 C830 0.950 . S
H823 C832 0.950 . S
H824 C834 0.950 . S
H825 C836 0.950 . S
H826 C838 0.950 . S
H827 C839 0.950 . S
C828 H820 0.950 . S
C828 C829 1.382 1_545 S
C828 C830 1.391 . S
C829 C828 1.382 1_565 S
C829 C833 1.397 . S
C830 H822 0.950 . S
C830 C828 1.391 . S
C830 C831 1.400 1_545 S
C831 C830 1.400 1_565 S
C831 C832 1.398 . S
C831 C837 1.491 1_665 S
C832 H823 0.950 . S
C832 C831 1.398 . S
C832 C833 1.391 . S
C833 H821 0.950 . S
C833 C829 1.397 . S
C833 C832 1.391 . S
C834 H824 0.950 . S
C834 C835 1.382 1_565 S
C834 C836 1.391 . S
C835 C834 1.382 1_545 S
C835 C839 1.397 . S
C836 H825 0.950 . S
C836 C834 1.391 . S
C836 C837 1.400 1_565 S
C837 C831 1.491 1_445 S
C837 C836 1.400 1_545 S
C837 C838 1.398 . S
C838 H826 0.950 . S
C838 C837 1.398 . S
C838 C839 1.391 . S
C839 H827 0.950 . S
C839 C835 1.397 . S
C839 C838 1.391 . S
H840 C848 0.950 . S
H841 C853 0.950 . S
H842 C850 0.950 . S
H843 C852 0.950 . S
H844 C854 0.950 . S
H845 C856 0.950 . S
H846 C858 0.950 . S
H847 C859 0.950 . S
C848 H840 0.950 . S
C848 C849 1.385 1_545 S
C848 C850 1.391 . S
C849 C848 1.385 1_565 S
C849 C853 1.394 . S
C850 H842 0.950 . S
C850 C848 1.391 . S
C850 C851 1.394 1_545 S
C851 C850 1.394 1_565 S
C851 C852 1.405 . S
C851 C857 1.490 1_465 S
C852 H843 0.950 . S
C852 C851 1.405 . S
C852 C853 1.391 . S
C853 H841 0.950 . S
C853 C849 1.394 . S
C853 C852 1.391 . S
C854 H844 0.950 . S
C854 C855 1.385 1_565 S
C854 C856 1.391 . S
C855 C854 1.385 1_545 S
C855 C859 1.394 . S
C856 H845 0.950 . S
C856 C854 1.391 . S
C856 C857 1.394 1_565 S
C857 C851 1.490 1_645 S
C857 C856 1.394 1_545 S
C857 C858 1.405 . S
C858 H846 0.950 . S
C858 C857 1.405 . S
C858 C859 1.391 . S
C859 H847 0.950 . S
C859 C855 1.394 . S
C859 C858 1.391 . S
H860 C868 0.950 . S
H861 C873 0.950 . S
H862 C870 0.950 . S
H863 C872 0.950 . S
H864 C874 0.950 . S
H865 C876 0.950 . S
H866 C878 0.950 . S
H867 C879 0.950 . S
C868 H860 0.950 . S
C868 C869 1.386 1_565 S
C868 C870 1.391 . S
C869 C868 1.386 1_545 S
C869 C873 1.393 . S
C870 H862 0.950 . S
C870 C868 1.391 . S
C870 C871 1.400 1_565 S
C871 C870 1.400 1_545 S
C871 C872 1.398 . S
C871 C877 1.491 1_645 S
C872 H863 0.950 . S
C872 C871 1.398 . S
C872 C873 1.391 . S
C873 H861 0.950 . S
C873 C869 1.393 . S
C873 C872 1.391 . S
C874 H864 0.950 . S
C874 C875 1.386 1_545 S
C874 C876 1.391 . S
C875 C874 1.386 1_565 S
C875 C879 1.393 . S
C876 H865 0.950 . S
C876 C874 1.391 . S
C876 C877 1.400 1_545 S
C877 C871 1.491 1_465 S
C877 C876 1.400 1_565 S
C877 C878 1.398 . S
C878 H866 0.950 . S
C878 C877 1.398 . S
C878 C879 1.391 . S
C879 H867 0.950 . S
C879 C875 1.393 . S
C879 C878 1.391 . S
H880 C888 0.950 . S
H881 C893 0.950 . S
H882 C890 0.950 . S
H883 C892 0.950 . S
H884 C894 0.950 . S
H885 C896 0.950 . S
H886 C898 0.950 . S
H887 C899 0.950 . S
C888 H880 0.950 . S
C888 C889 1.386 . S
C888 C890 1.391 . S
C889 C888 1.386 . S
C889 C893 1.393 . S
C890 H882 0.950 . S
C890 C888 1.391 . S
C890 C891 1.400 . S
C891 C890 1.400 . S
C891 C892 1.398 . S
C891 C897 1.491 . S
C892 H883 0.950 . S
C892 C891 1.398 . S
C892 C893 1.391 . S
C893 H881 0.950 . S
C893 C889 1.393 . S
C893 C892 1.391 . S
C894 H884 0.950 . S
C894 C895 1.386 . S
C894 C896 1.391 . S
C895 C894 1.386 . S
C895 C899 1.393 . S
C896 H885 0.950 . S
C896 C894 1.391 . S
C896 C897 1.400 . S
C897 C891 1.491 . S
C897 C896 1.400 . S
C897 C898 1.398 . S
C898 H886 0.950 . S
C898 C897 1.398 . S
C898 C899 1.391 . S
C899 H887 0.950 . S
C899 C895 1.393 . S
C899 C898 1.391 . S
H900 C908 0.950 . S
H901 C913 0.950 . S
H902 C910 0.950 . S
H903 C912 0.950 . S
H904 C914 0.950 . S
H905 C916 0.950 . S
H906 C918 0.950 . S
H907 C919 0.950 . S
C908 H900 0.950 . S
C908 C909 1.386 . S
C908 C910 1.391 . S
C909 C908 1.386 . S
C909 C913 1.393 . S
C910 H902 0.950 . S
C910 C908 1.391 . S
C910 C911 1.400 . S
C911 C910 1.400 . S
C911 C912 1.398 . S
C911 C917 1.491 . S
C912 H903 0.950 . S
C912 C911 1.398 . S
C912 C913 1.391 . S
C913 H901 0.950 . S
C913 C909 1.393 . S
C913 C912 1.391 . S
C914 H904 0.950 . S
C914 C915 1.386 . S
C914 C916 1.391 . S
C915 C914 1.386 . S
C915 C919 1.393 . S
C916 H905 0.950 . S
C916 C914 1.391 . S
C916 C917 1.400 . S
C917 C911 1.491 . S
C917 C916 1.400 . S
C917 C918 1.398 . S
C918 H906 0.950 . S
C918 C917 1.398 . S
C918 C919 1.391 . S
C919 H907 0.950 . S
C919 C915 1.393 . S
C919 C918 1.391 . S
H920 C928 0.950 . S
H921 C933 0.950 . S
H922 C930 0.950 . S
H923 C932 0.950 . S
H924 C934 0.950 . S
H925 C936 0.950 . S
H926 C938 0.950 . S
H927 C939 0.950 . S
C928 H920 0.950 . S
C928 C929 1.386 . S
C928 C930 1.391 . S
C929 C928 1.386 . S
C929 C933 1.393 . S
C930 H922 0.950 . S
C930 C928 1.391 . S
C930 C931 1.400 . S
C931 C930 1.400 . S
C931 C932 1.398 . S
C931 C937 1.491 . S
C932 H923 0.950 . S
C932 C931 1.398 . S
C932 C933 1.391 . S
C933 H921 0.950 . S
C933 C929 1.393 . S
C933 C932 1.391 . S
C934 H924 0.950 . S
C934 C935 1.386 . S
C934 C936 1.391 . S
C935 C934 1.386 . S
C935 C939 1.393 . S
C936 H925 0.950 . S
C936 C934 1.391 . S
C936 C937 1.400 . S
C937 C931 1.491 . S
C937 C936 1.400 . S
C937 C938 1.398 . S
C938 H926 0.950 . S
C938 C937 1.398 . S
C938 C939 1.391 . S
C939 H927 0.950 . S
C939 C935 1.393 . S
C939 C938 1.391 . S
H940 C948 0.950 . S
H941 C953 0.950 . S
H942 C950 0.950 . S
H943 C952 0.950 . S
H944 C954 0.950 . S
H945 C956 0.950 . S
H946 C958 0.950 . S
H947 C959 0.950 . S
C948 H940 0.950 . S
C948 C949 1.386 . S
C948 C950 1.391 . S
C949 C948 1.386 . S
C949 C953 1.393 . S
C950 H942 0.950 . S
C950 C948 1.391 . S
C950 C951 1.400 . S
C951 C950 1.400 . S
C951 C952 1.398 . S
C951 C957 1.491 . S
C952 H943 0.950 . S
C952 C951 1.398 . S
C952 C953 1.391 . S
C953 H941 0.950 . S
C953 C949 1.393 . S
C953 C952 1.391 . S
C954 H944 0.950 . S
C954 C955 1.386 . S
C954 C956 1.391 . S
C955 C954 1.386 . S
C955 C959 1.393 . S
C956 H945 0.950 . S
C956 C954 1.391 . S
C956 C957 1.400 . S
C957 C951 1.491 . S
C957 C956 1.400 . S
C957 C958 1.398 . S
C958 H946 0.950 . S
C958 C957 1.398 . S
C958 C959 1.391 . S
C959 H947 0.950 . S
C959 C955 1.393 . S
C959 C958 1.391 . S
H960 C968 0.950 . S
H961 C973 0.950 . S
H962 C970 0.950 . S
H963 C972 0.950 . S
H964 C974 0.950 . S
H965 C976 0.950 . S
H966 C978 0.950 . S
H967 C979 0.950 . S
C968 H960 0.950 . S
C968 C969 1.386 . S
C968 C970 1.391 . S
C969 C968 1.386 . S
C969 C973 1.393 . S
C970 H962 0.950 . S
C970 C968 1.391 . S
C970 C971 1.400 . S
C971 C970 1.400 . S
C971 C972 1.398 . S
C971 C977 1.491 . S
C972 H963 0.950 . S
C972 C971 1.398 . S
C972 C973 1.391 . S
C973 H961 0.950 . S
C973 C969 1.393 . S
C973 C972 1.391 . S
C974 H964 0.950 . S
C974 C975 1.386 . S
C974 C976 1.391 . S
C975 C974 1.386 . S
C975 C979 1.393 . S
C976 H965 0.950 . S
C976 C974 1.391 . S
C976 C977 1.400 . S
C977 C971 1.491 . S
C977 C976 1.400 . S
C977 C978 1.398 . S
C978 H966 0.950 . S
C978 C977 1.398 . S
C978 C979 1.391 . S
C979 H967 0.950 . S
C979 C975 1.393 . S
C979 C978 1.391 . S
H980 C988 0.950 . S
H981 C993 0.950 . S
H982 C990 0.950 . S
H983 C992 0.950 . S
H984 C994 0.950 . S
H985 C996 0.950 . S
H986 C998 0.950 . S
H987 C999 0.950 . S
C988 H980 0.950 . S
C988 C989 1.386 . S
C988 C990 1.391 . S
C989 C988 1.386 . S
C989 C993 1.393 . S
C990 H982 0.950 . S
C990 C988 1.391 . S
C990 C991 1.400 . S
C991 C990 1.400 . S
C991 C992 1.398 . S
C991 C997 1.491 . S
C992 H983 0.950 . S
C992 C991 1.398 . S
C992 C993 1.391 . S
C993 H981 0.950 . S
C993 C989 1.393 . S
C993 C992 1.391 . S
C994 H984 0.950 . S
C994 C995 1.386 . S
C994 C996 1.391 . S
C995 C994 1.386 . S
C995 C999 1.393 . S
C996 H985 0.950 . S
C996 C994 1.391 . S
C996 C997 1.400 . S
C997 C991 1.491 . S
C997 C996 1.400 . S
C997 C998 1.398 . S
C998 H986 0.950 . S
C998 C997 1.398 . S
C998 C999 1.391 . S
C999 H987 0.950 . S
C999 C995 1.393 . S
C999 C998 1.391 . S
H1000 C1008 0.950 . S
H1001 C1013 0.950 . S
H1002 C1010 0.950 . S
H1003 C1012 0.950 . S
H1004 C1014 0.950 . S
H1005 C1016 0.950 . S
H1006 C1018 0.950 . S
H1007 C1019 0.950 . S
C1008 H1000 0.950 . S
C1008 C1009 1.386 . S
C1008 C1010 1.391 . S
C1009 C1008 1.386 . S
C1009 C1013 1.393 . S
C1010 H1002 0.950 . S
C1010 C1008 1.391 . S
C1010 C1011 1.400 . S
C1011 C1010 1.400 . S
C1011 C1012 1.398 . S
C1011 C1017 1.491 . S
C1012 H1003 0.950 . S
C1012 C1011 1.398 . S
C1012 C1013 1.391 . S
C1013 H1001 0.950 . S
C1013 C1009 1.393 . S
C1013 C1012 1.391 . S
C1014 H1004 0.950 . S
C1014 C1015 1.386 . S
C1014 C1016 1.391 . S
C1015 C1014 1.386 . S
C1015 C1019 1.393 . S
C1016 H1005 0.950 . S
C1016 C1014 1.391 . S
C1016 C1017 1.400 . S
C1017 C1011 1.491 . S
C1017 C1016 1.400 . S
C1017 C1018 1.398 . S
C1018 H1006 0.950 . S
C1018 C1017 1.398 . S
C1018 C1019 1.391 . S
C1019 H1007 0.950 . S
C1019 C1015 1.393 . S
C1019 C1018 1.391 . S
H1020 C1028 0.950 . S
H1021 C1033 0.950 . S
H1022 C1030 0.950 . S
H1023 C1032 0.950 . S
H1024 C1034 0.950 . S
H1025 C1036 0.950 . S
H1026 C1038 0.950 . S
H1027 C1039 0.950 . S
C1028 H1020 0.950 . S
C1028 C1029 1.386 . S
C1028 C1030 1.391 . S
C1029 C1028 1.386 . S
C1029 C1033 1.393 . S
C1030 H1022 0.950 . S
C1030 C1028 1.391 . S
C1030 C1031 1.400 . S
C1031 C1030 1.400 . S
C1031 C1032 1.398 . S
C1031 C1037 1.491 . S
C1032 H1023 0.950 . S
C1032 C1031 1.398 . S
C1032 C1033 1.391 . S
C1033 H1021 0.950 . S
C1033 C1029 1.393 . S
C1033 C1032 1.391 . S
C1034 H1024 0.950 . S
C1034 C1035 1.386 . S
C1034 C1036 1.391 . S
C1035 C1034 1.386 . S
C1035 C1039 1.393 . S
C1036 H1025 0.950 . S
C1036 C1034 1.391 . S
C1036 C1037 1.400 . S
C1037 C1031 1.491 . S
C1037 C1036 1.400 . S
C1037 C1038 1.398 . S
C1038 H1026 0.950 . S
C1038 C1037 1.398 . S
C1038 C1039 1.391 . S
C1039 H1027 0.950 . S
C1039 C1035 1.393 . S
C1039 C1038 1.391 . S
H1040 C1048 0.950 . S
H1041 C1053 0.950 . S
H1042 C1050 0.950 . S
H1043 C1052 0.950 . S
H1044 C1054 0.950 . S
H1045 C1056 0.950 . S
H1046 C1058 0.950 . S
H1047 C1059 0.950 . S
C1048 H1040 0.950 . S
C1048 C1049 1.386 . S
C1048 C1050 1.391 . S
C1049 C1048 1.386 . S
C1049 C1053 1.393 . S
C1050 H1042 0.950 . S
C1050 C1048 1.391 . S
C1050 C1051 1.400 . S
C1051 C1050 1.400 . S
C1051 C1052 1.398 . S
C1051 C1057 1.491 . S
C1052 H1043 0.950 . S
C1052 C1051 1.398 . S
C1052 C1053 1.391 . S
C1053 H1041 0.950 . S
C1053 C1049 1.393 . S
C1053 C1052 1.391 . S
C1054 H1044 0.950 . S
C1054 C1055 1.386 . S
C1054 C1056 1.391 . S
C1055 C1054 1.386 . S
C1055 C1059 1.393 . S
C1056 H1045 0.950 . S
C1056 C1054 1.391 . S
C1056 C1057 1.400 . S
C1057 C1051 1.491 . S
C1057 C1056 1.400 . S
C1057 C1058 1.398 . S
C1058 H1046 0.950 . S
C1058 C1057 1.398 . S
C1058 C1059 1.391 . S
C1059 H1047 0.950 . S
C1059 C1055 1.393 . S
C1059 C1058 1.391 . S
H1060 C1068 0.950 . S
H1061 C1073 0.950 . S
H1062 C1070 0.950 . S
H1063 C1072 0.950 . S
H1064 C1074 0.950 . S
H1065 C1076 0.950 . S
H1066 C1078 0.950 . S
H1067 C1079 0.950 . S
C1068 H1060 0.950 . S
C1068 C1069 1.386 . S
C1068 C1070 1.391 . S
C1069 C1068 1.386 . S
C1069 C1073 1.393 . S
C1070 H1062 0.950 . S
C1070 C1068 1.391 . S
C1070 C1071 1.400 . S
C1071 C1070 1.400 . S
C1071 C1072 1.398 . S
C1071 C1077 1.491 . S
C1072 H1063 0.950 . S
C1072 C1071 1.398 . S
C1072 C1073 1.391 . S
C1073 H1061 0.950 . S
C1073 C1069 1.393 . S
C1073 C1072 1.391 . S
C1074 H1064 0.950 . S
C1074 C1075 1.386 . S
C1074 C1076 1.391 . S
C1075 C1074 1.386 . S
C1075 C1079 1.393 . S
C1076 H1065 0.950 . S
C1076 C1074 1.391 . S
C1076 C1077 1.400 . S
C1077 C1071 1.491 . S
C1077 C1076 1.400 . S
C1077 C1078 1.398 . S
C1078 H1066 0.950 . S
C1078 C1077 1.398 . S
C1078 C1079 1.391 . S
C1079 H1067 0.950 . S
C1079 C1075 1.393 . S
C1079 C1078 1.391 . S
H1080 C1088 0.950 . S
H1081 C1093 0.950 . S
H1082 C1090 0.950 . S
H1083 C1092 0.950 . S
H1084 C1094 0.950 . S
H1085 C1096 0.950 . S
H1086 C1098 0.950 . S
H1087 C1099 0.950 . S
C1088 H1080 0.950 . S
C1088 C1089 1.386 . S
C1088 C1090 1.391 . S
C1089 C1088 1.386 . S
C1089 C1093 1.393 . S
C1090 H1082 0.950 . S
C1090 C1088 1.391 . S
C1090 C1091 1.400 . S
C1091 C1090 1.400 . S
C1091 C1092 1.398 . S
C1091 C1097 1.491 . S
C1092 H1083 0.950 . S
C1092 C1091 1.398 . S
C1092 C1093 1.391 . S
C1093 H1081 0.950 . S
C1093 C1089 1.393 . S
C1093 C1092 1.391 . S
C1094 H1084 0.950 . S
C1094 C1095 1.386 . S
C1094 C1096 1.391 . S
C1095 C1094 1.386 . S
C1095 C1099 1.393 . S
C1096 H1085 0.950 . S
C1096 C1094 1.391 . S
C1096 C1097 1.400 . S
C1097 C1091 1.491 . S
C1097 C1096 1.400 . S
C1097 C1098 1.398 . S
C1098 H1086 0.950 . S
C1098 C1097 1.398 . S
C1098 C1099 1.391 . S
C1099 H1087 0.950 . S
C1099 C1095 1.393 . S
C1099 C1098 1.391 . S
H1100 C1108 0.950 . S
H1101 C1113 0.950 . S
H1102 C1110 0.950 . S
H1103 C1112 0.950 . S
H1104 C1114 0.950 . S
H1105 C1116 0.950 . S
H1106 C1118 0.950 . S
H1107 C1119 0.950 . S
C1108 H1100 0.950 . S
C1108 C1109 1.386 . S
C1108 C1110 1.391 . S
C1109 C1108 1.386 . S
C1109 C1113 1.393 . S
C1110 H1102 0.950 . S
C1110 C1108 1.391 . S
C1110 C1111 1.400 . S
C1111 C1110 1.400 . S
C1111 C1112 1.398 . S
C1111 C1117 1.491 . S
C1112 H1103 0.950 . S
C1112 C1111 1.398 . S
C1112 C1113 1.391 . S
C1113 H1101 0.950 . S
C1113 C1109 1.393 . S
C1113 C1112 1.391 . S
C1114 H1104 0.950 . S
C1114 C1115 1.386 . S
C1114 C1116 1.391 . S
C1115 C1114 1.386 . S
C1115 C1119 1.393 . S
C1116 H1105 0.950 . S
C1116 C1114 1.391 . S
C1116 C1117 1.400 . S
C1117 C1111 1.491 . S
C1117 C1116 1.400 . S
C1117 C1118 1.398 . S
C1118 H1106 0.950 . S
C1118 C1117 1.398 . S
C1118 C1119 1.391 . S
C1119 H1107 0.950 . S
C1119 C1115 1.393 . S
C1119 C1118 1.391 . S
H1120 C1128 0.950 . S
H1121 C1133 0.950 . S
H1122 C1130 0.950 . S
H1123 C1132 0.950 . S
H1124 C1134 0.950 . S
H1125 C1136 0.950 . S
H1126 C1138 0.950 . S
H1127 C1139 0.950 . S
C1128 H1120 0.950 . S
C1128 C1129 1.386 . S
C1128 C1130 1.391 1_565 S
C1129 C1128 1.386 . S
C1129 C1133 1.393 . S
C1130 H1122 0.950 . S
C1130 C1128 1.391 1_545 S
C1130 C1131 1.400 . S
C1131 C1130 1.400 . S
C1131 C1132 1.398 . S
C1131 C1137 1.491 . S
C1132 H1123 0.950 . S
C1132 C1131 1.398 . S
C1132 C1133 1.391 1_545 S
C1133 H1121 0.950 . S
C1133 C1129 1.393 . S
C1133 C1132 1.391 1_565 S
C1134 H1124 0.950 . S
C1134 C1135 1.386 . S
C1134 C1136 1.391 . S
C1135 C1134 1.386 . S
C1135 C1139 1.393 . S
C1136 H1125 0.950 . S
C1136 C1134 1.391 . S
C1136 C1137 1.400 . S
C1137 C1131 1.491 . S
C1137 C1136 1.400 . S
C1137 C1138 1.398 . S
C1138 H1126 0.950 . S
C1138 C1137 1.398 . S
C1138 C1139 1.391 . S
C1139 H1127 0.950 . S
C1139 C1135 1.393 . S
C1139 C1138 1.391 . S
H1140 C1148 0.950 . S
H1141 C1153 0.950 . S
H1142 C1150 0.950 . S
H1143 C1152 0.950 . S
H1144 C1154 0.950 . S
H1145 C1156 0.950 . S
H1146 C1158 0.950 . S
H1147 C1159 0.950 . S
C1148 H1140 0.950 . S
C1148 C1149 1.386 . S
C1148 C1150 1.391 . S
C1149 C1148 1.386 . S
C1149 C1153 1.393 . S
C1150 H1142 0.950 . S
C1150 C1148 1.391 . S
C1150 C1151 1.400 . S
C1151 C1150 1.400 . S
C1151 C1152 1.398 . S
C1151 C1157 1.491 . S
C1152 H1143 0.950 . S
C1152 C1151 1.398 . S
C1152 C1153 1.391 . S
C1153 H1141 0.950 . S
C1153 C1149 1.393 . S
C1153 C1152 1.391 . S
C1154 H1144 0.950 . S
C1154 C1155 1.386 . S
C1154 C1156 1.391 1_545 S
C1155 C1154 1.386 . S
C1155 C1159 1.393 . S
C1156 H1145 0.950 . S
C1156 C1154 1.391 1_565 S
C1156 C1157 1.400 . S
C1157 C1151 1.491 . S
C1157 C1156 1.400 . S
C1157 C1158 1.398 . S
C1158 H1146 0.950 . S
C1158 C1157 1.398 . S
C1158 C1159 1.391 1_565 S
C1159 H1147 0.950 . S
C1159 C1155 1.393 . S
C1159 C1158 1.391 1_545 S
H1160 C1168 0.950 . S
H1161 C1173 0.950 . S
H1162 C1170 0.950 . S
H1163 C1172 0.950 . S
H1164 C1174 0.950 . S
H1165 C1176 0.950 . S
H1166 C1178 0.950 . S
H1167 C1179 0.950 . S
C1168 H1160 0.950 . S
C1168 C1169 1.386 . S
C1168 C1170 1.391 1_545 S
C1169 C1168 1.386 . S
C1169 C1173 1.393 . S
C1170 H1162 0.950 . S
C1170 C1168 1.391 1_565 S
C1170 C1171 1.400 . S
C1171 C1170 1.400 . S
C1171 C1172 1.398 . S
C1171 C1177 1.491 . S
C1172 H1163 0.950 . S
C1172 C1171 1.398 . S
C1172 C1173 1.391 1_565 S
C1173 H1161 0.950 . S
C1173 C1169 1.393 . S
C1173 C1172 1.391 1_545 S
C1174 H1164 0.950 . S
C1174 C1175 1.386 . S
C1174 C1176 1.391 . S
C1175 C1174 1.386 . S
C1175 C1179 1.393 . S
C1176 H1165 0.950 . S
C1176 C1174 1.391 . S
C1176 C1177 1.400 . S
C1177 C1171 1.491 . S
C1177 C1176 1.400 . S
C1177 C1178 1.398 . S
C1178 H1166 0.950 . S
C1178 C1177 1.398 . S
C1178 C1179 1.391 . S
C1179 H1167 0.950 . S
C1179 C1175 1.393 . S
C1179 C1178 1.391 . S
H1180 C1188 0.950 . S
H1181 C1193 0.950 . S
H1182 C1190 0.950 . S
H1183 C1192 0.950 . S
H1184 C1194 0.950 . S
H1185 C1196 0.950 . S
H1186 C1198 0.950 . S
H1187 C1199 0.950 . S
C1188 H1180 0.950 . S
C1188 C1189 1.386 . S
C1188 C1190 1.391 1_565 S
C1189 C1188 1.386 . S
C1189 C1193 1.393 . S
C1190 H1182 0.950 . S
C1190 C1188 1.391 1_545 S
C1190 C1191 1.400 . S
C1191 C1190 1.400 . S
C1191 C1192 1.398 . S
C1191 C1197 1.491 . S
C1192 H1183 0.950 . S
C1192 C1191 1.398 . S
C1192 C1193 1.391 1_545 S
C1193 H1181 0.950 . S
C1193 C1189 1.393 . S
C1193 C1192 1.391 1_565 S
C1194 H1184 0.950 . S
C1194 C1195 1.386 . S
C1194 C1196 1.391 . S
C1195 C1194 1.386 . S
C1195 C1199 1.393 . S
C1196 H1185 0.950 . S
C1196 C1194 1.391 . S
C1196 C1197 1.400 . S
C1197 C1191 1.491 . S
C1197 C1196 1.400 . S
C1197 C1198 1.398 . S
C1198 H1186 0.950 . S
C1198 C1197 1.398 . S
C1198 C1199 1.391 . S
C1199 H1187 0.950 . S
C1199 C1195 1.393 . S
C1199 C1198 1.391 . S
H1200 C1208 0.950 . S
H1201 C1213 0.950 . S
H1202 C1210 0.950 . S
H1203 C1212 0.950 . S
H1204 C1214 0.950 . S
H1205 C1216 0.950 . S
H1206 C1218 0.950 . S
H1207 C1219 0.950 . S
C1208 H1200 0.950 . S
C1208 C1209 1.386 . S
C1208 C1210 1.391 . S
C1209 C1208 1.386 . S
C1209 C1213 1.393 . S
C1210 H1202 0.950 . S
C1210 C1208 1.391 . S
C1210 C1211 1.400 . S
C1211 C1210 1.400 . S
C1211 C1212 1.398 . S
C1211 C1217 1.491 . S
C1212 H1203 0.950 . S
C1212 C1211 1.398 . S
C1212 C1213 1.391 . S
C1213 H1201 0.950 . S
C1213 C1209 1.393 . S
C1213 C1212 1.391 . S
C1214 H1204 0.950 . S
C1214 C1215 1.386 . S
C1214 C1216 1.391 1_545 S
C1215 C1214 1.386 . S
C1215 C1219 1.393 . S
C1216 H1205 0.950 . S
C1216 C1214 1.391 1_565 S
C1216 C1217 1.400 . S
C1217 C1211 1.491 . S
C1217 C1216 1.400 . S
C1217 C1218 1.398 . S
C1218 H1206 0.950 . S
C1218 C1217 1.398 . S
C1218 C1219 1.391 1_565 S
C1219 H1207 0.950 . S
C1219 C1215 1.393 . S
C1219 C1218 1.391 1_545 S
H1220 C1228 0.950 . S
H1221 C1233 0.950 . S
H1222 C1230 0.950 . S
H1223 C1232 0.950 . S
H1224 C1234 0.950 . S
H1225 C1236 0.950 . S
H1226 C1238 0.950 . S
H1227 C1239 0.950 . S
C1228 H1220 0.950 . S
C1228 C1229 1.386 . S
C1228 C1230 1.391 . S
C1229 C1228 1.386 . S
C1229 C1233 1.393 . S
C1230 H1222 0.950 . S
C1230 C1228 1.391 . S
C1230 C1231 1.400 . S
C1231 C1230 1.400 . S
C1231 C1232 1.398 . S
C1231 C1237 1.491 . S
C1232 H1223 0.950 . S
C1232 C1231 1.398 . S
C1232 C1233 1.391 . S
C1233 H1221 0.950 . S
C1233 C1229 1.393 . S
C1233 C1232 1.391 . S
C1234 H1224 0.950 . S
C1234 C1235 1.386 . S
C1234 C1236 1.391 1_565 S
C1235 C1234 1.386 . S
C1235 C1239 1.393 . S
C1236 H1225 0.950 . S
C1236 C1234 1.391 1_545 S
C1236 C1237 1.400 . S
C1237 C1231 1.491 . S
C1237 C1236 1.400 . S
C1237 C1238 1.398 . S
C1238 H1226 0.950 . S
C1238 C1237 1.398 . S
C1238 C1239 1.391 1_545 S
C1239 H1227 0.950 . S
C1239 C1235 1.393 . S
C1239 C1238 1.391 1_565 S
H1240 C1248 0.950 . S
H1241 C1253 0.950 . S
H1242 C1250 0.950 . S
H1243 C1252 0.950 . S
H1244 C1254 0.950 . S
H1245 C1256 0.950 . S
H1246 C1258 0.950 . S
H1247 C1259 0.950 . S
C1248 H1240 0.950 . S
C1248 C1249 1.386 . S
C1248 C1250 1.391 1_565 S
C1249 C1248 1.386 . S
C1249 C1253 1.393 . S
C1250 H1242 0.950 . S
C1250 C1248 1.391 1_545 S
C1250 C1251 1.400 . S
C1251 C1250 1.400 . S
C1251 C1252 1.398 . S
C1251 C1257 1.491 . S
C1252 H1243 0.950 . S
C1252 C1251 1.398 . S
C1252 C1253 1.391 1_545 S
C1253 H1241 0.950 . S
C1253 C1249 1.393 . S
C1253 C1252 1.391 1_565 S
C1254 H1244 0.950 . S
C1254 C1255 1.386 . S
C1254 C1256 1.391 . S
C1255 C1254 1.386 . S
C1255 C1259 1.393 . S
C1256 H1245 0.950 . S
C1256 C1254 1.391 . S
C1256 C1257 1.400 . S
C1257 C1251 1.491 . S
C1257 C1256 1.400 . S
C1257 C1258 1.398 . S
C1258 H1246 0.950 . S
C1258 C1257 1.398 . S
C1258 C1259 1.391 . S
C1259 H1247 0.950 . S
C1259 C1255 1.393 . S
C1259 C1258 1.391 . S
H1260 C1268 0.950 . S
H1261 C1273 0.950 . S
H1262 C1270 0.950 . S
H1263 C1272 0.950 . S
H1264 C1274 0.950 . S
H1265 C1276 0.950 . S
H1266 C1278 0.950 . S
H1267 C1279 0.950 . S
C1268 H1260 0.950 . S
C1268 C1269 1.386 . S
C1268 C1270 1.391 . S
C1269 C1268 1.386 . S
C1269 C1273 1.393 . S
C1270 H1262 0.950 . S
C1270 C1268 1.391 . S
C1270 C1271 1.400 . S
C1271 C1270 1.400 . S
C1271 C1272 1.398 . S
C1271 C1277 1.491 . S
C1272 H1263 0.950 . S
C1272 C1271 1.398 . S
C1272 C1273 1.391 . S
C1273 H1261 0.950 . S
C1273 C1269 1.393 . S
C1273 C1272 1.391 . S
C1274 H1264 0.950 . S
C1274 C1275 1.386 . S
C1274 C1276 1.391 1_545 S
C1275 C1274 1.386 . S
C1275 C1279 1.393 . S
C1276 H1265 0.950 . S
C1276 C1274 1.391 1_565 S
C1276 C1277 1.400 . S
C1277 C1271 1.491 . S
C1277 C1276 1.400 . S
C1277 C1278 1.398 . S
C1278 H1266 0.950 . S
C1278 C1277 1.398 . S
C1278 C1279 1.391 1_565 S
C1279 H1267 0.950 . S
C1279 C1275 1.393 . S
C1279 C1278 1.391 1_545 S
C329 C6 1.566 . S
C335 C186 1.567 . S
C349 C26 1.588 . S
C355 C166 1.589 . S
C369 C226 1.576 . S
C375 C46 1.578 . S
C389 C66 1.579 . S
C395 C206 1.580 . S
C409 C276 1.575 . S
C415 C96 1.574 . S
C429 C256 1.585 . S
C435 C116 1.583 . S
C449 C316 1.588 . S
C455 C136 1.590 . S
C469 C156 1.577 . S
C475 C296 1.579 . S
C489 C49 1.549 . S
C495 C9 1.553 . S
C509 C69 1.545 . S
C515 C29 1.547 . S
C529 C121 1.545 . S
C535 C81 1.547 . S
C549 C101 1.545 . S
C555 C141 1.549 . S
C569 C209 1.553 . S
C575 C169 1.549 . S
C589 C229 1.545 . S
C595 C189 1.547 . S
C609 C241 1.552 . S
C615 C281 1.553 . S
C629 C261 1.547 . S
C635 C301 1.552 . S
C649 C109 1.564 . S
C655 C1 1.580 . S
C669 C89 1.564 . S
C675 C21 1.580 . S
C689 C41 1.574 . S
C695 C149 1.570 . S
C709 C129 1.574 . S
C715 C61 1.570 . S
C729 C161 1.568 . S
C735 C269 1.576 . S
C749 C249 1.562 . S
C755 C181 1.582 . S
C769 C201 1.574 . S
C775 C309 1.570 . S
C789 C289 1.563 . S
C795 C221 1.581 . S
C809 C36 1.570 . S
C815 C16 1.572 . S
C829 C76 1.585 1_565 S
C835 C56 1.585 1_545 S
C849 C106 1.586 1_565 S
C855 C86 1.585 1_545 S
C869 C126 1.564 . S
C875 C146 1.566 . S
C889 C196 1.567 . S
C895 C176 1.565 . S
C909 C236 1.566 . S
C915 C216 1.565 . S
C929 C246 1.566 . S
C935 C266 1.568 . S
C949 C286 1.569 . S
C955 C306 1.568 . S
C969 C8 1.921 . S
C975 C19 1.921 . S
C989 C28 1.946 . S
C995 C39 1.946 . S
C1009 C48 1.923 . S
C1015 C59 1.923 . S
C1029 C79 1.931 . S
C1035 C68 1.931 . S
C1049 C99 1.934 . S
C1055 C88 1.934 . S
C1069 C108 1.927 . S
C1075 C119 1.927 . S
C1089 C139 1.933 . S
C1095 C128 1.933 . S
C1109 C159 1.920 . S
C1115 C148 1.920 . S
C1129 C179 1.921 . S
C1135 C168 1.921 . S
C1149 C188 1.936 . S
C1155 C199 1.936 . S
C1169 C219 1.947 . S
C1175 C208 1.947 . S
C1189 C239 1.920 . S
C1195 C228 1.920 . S
C1209 C259 1.942 . S
C1215 C248 1.942 . S
C1229 C279 1.932 . S
C1235 C268 1.932 . S
C1249 C288 1.922 . S
C1255 C299 1.922 . S
C1269 C319 1.930 . S
C1275 C308 1.930 . S
