# Generated by pormake.
# Topology rkf, (6)-cn, num edge types: 1
# Building blocks:
#     Node 0, Type 0, BuildingBlock: BETFEN_clean_sbu_0, # of connection points: 6
#     Node 1, Type 0, BuildingBlock: BETFEN_clean_sbu_0, # of connection points: 6
#     Node 2, Type 0, BuildingBlock: BETFEN_clean_sbu_0, # of connection points: 6
#     Node 3, Type 0, BuildingBlock: BETFEN_clean_sbu_0, # of connection points: 6
#     Node 4, Type 0, BuildingBlock: BETFEN_clean_sbu_0, # of connection points: 6
#     Node 5, Type 0, BuildingBlock: BETFEN_clean_sbu_0, # of connection points: 6
#     Edge 6, Type (0, 0), BuildingBlock: OJICUG_clean_linker_0, # of connection points: 2
#     Edge 7, Type (0, 0), BuildingBlock: OJICUG_clean_linker_0, # of connection points: 2
#     Edge 8, Type (0, 0), BuildingBlock: OJICUG_clean_linker_0, # of connection points: 2
#     Edge 9, Type (0, 0), BuildingBlock: OJICUG_clean_linker_0, # of connection points: 2
#     Edge 10, Type (0, 0), BuildingBlock: OJICUG_clean_linker_0, # of connection points: 2
#     Edge 11, Type (0, 0), BuildingBlock: OJICUG_clean_linker_0, # of connection points: 2
#     Edge 12, Type (0, 0), BuildingBlock: OJICUG_clean_linker_0, # of connection points: 2
#     Edge 13, Type (0, 0), BuildingBlock: OJICUG_clean_linker_0, # of connection points: 2
#     Edge 14, Type (0, 0), BuildingBlock: OJICUG_clean_linker_0, # of connection points: 2
#     Edge 15, Type (0, 0), BuildingBlock: OJICUG_clean_linker_0, # of connection points: 2
#     Edge 16, Type (0, 0), BuildingBlock: OJICUG_clean_linker_0, # of connection points: 2
#     Edge 17, Type (0, 0), BuildingBlock: OJICUG_clean_linker_0, # of connection points: 2
#     Edge 18, Type (0, 0), BuildingBlock: OJICUG_clean_linker_0, # of connection points: 2
#     Edge 19, Type (0, 0), BuildingBlock: OJICUG_clean_linker_0, # of connection points: 2
#     Edge 20, Type (0, 0), BuildingBlock: OJICUG_clean_linker_0, # of connection points: 2
#     Edge 21, Type (0, 0), BuildingBlock: OJICUG_clean_linker_0, # of connection points: 2
#     Edge 22, Type (0, 0), BuildingBlock: OJICUG_clean_linker_0, # of connection points: 2
#     Edge 23, Type (0, 0), BuildingBlock: OJICUG_clean_linker_0, # of connection points: 2
# Relax obj value: 1.049
# Max RMSD: 0.249
# Mean RMSD: 0.249
data_MOF--net-rkf--node1-BETFEN_clean_sbu_0--edge1-OJICUG_clean_linker_0
_symmetry_space_group_name_H-M    P1
_symmetry_Int_Tables_number       1
_symmetry_cell_setting            triclinic
loop_
_symmetry_equiv_pos_as_xyz
'x, y, z'
_cell_length_a     20.151147
_cell_length_b     19.76882
_cell_length_c     31.995355
_cell_angle_alpha  89.632336
_cell_angle_beta   90.351261
_cell_angle_gamma 121.43545
loop_
_atom_site_label
_atom_site_type_symbol
_atom_site_fract_x
_atom_site_fract_y
_atom_site_fract_z
_atom_type_partial_charge
Pr0 Pr 0.30401 0.01665 0.25705 0.0
Pr1 Pr 0.36084 0.17749 1.21438 0.0
C2 C 0.29112 0.87686 0.27501 0.0
C3 C 0.30055 0.83366 0.30945 0.0
C4 C 0.33535 0.87242 0.34687 0.0
C5 C 0.32705 0.82828 0.38271 0.0
C6 C 0.28276 0.74468 0.38165 0.0
C7 C 0.25686 0.7068 0.34275 0.0
C8 C 0.26523 0.75117 0.30686 0.0
C9 C 0.19793 0.06485 0.25883 0.0
C10 C 0.35224 0.16393 0.32006 0.0
C11 C 0.4095 0.3274 1.1916 0.0
C12 C 0.40284 0.39689 1.19972 0.0
C13 C 0.47071 0.47087 1.20635 0.0
C14 C 0.46933 0.54055 1.20209 0.0
C15 C 0.40007 0.53695 1.19071 0.0
C16 C 0.33035 0.46243 1.19004 0.0
C17 C 0.33176 0.39294 1.19438 0.0
C18 C 0.46205 0.12243 1.21052 0.0
C19 C 0.26061 0.02048 1.15462 0.0
O20 O 0.35458 0.93797 0.26006 0.0
O21 O 0.23372 0.88937 0.27879 0.0
O22 O 0.24055 0.07309 1.22835 0.0
O23 O 0.2028 0.02277 0.28899 0.0
O24 O 0.34567 0.19864 0.28592 0.0
O25 O 0.35062 0.09609 0.31759 0.0
O26 O 0.44688 0.30992 1.21888 0.0
O27 O 0.35005 0.26528 1.17431 0.0
O28 O 0.42531 0.12134 1.24238 0.0
O29 O 0.44894 0.1549 1.17882 0.0
O30 O 0.26605 -0.02015 1.18618 0.0
O31 O 0.28756 0.09734 1.15795 0.0
H32 H 0.36326 0.93626 0.34919 0.0
H33 H 0.34754 0.85985 0.41201 0.0
H34 H 0.22332 0.64269 0.34086 0.0
H35 H 0.23885 0.72062 0.27786 0.0
H36 H 0.5259 0.47505 1.21147 0.0
H37 H 0.52358 0.59708 1.2037 0.0
H38 H 0.27574 0.45701 1.18139 0.0
H39 H 0.27816 0.33652 1.19 0.0
Pr40 Pr 0.38868 0.34195 0.58539 0.0
Pr41 Pr 0.25799 0.35903 0.54456 0.0
C42 C 0.53025 0.36556 0.6025 0.0
C43 C 0.58124 0.37799 0.63798 0.0
C44 C 0.56166 0.39065 0.67778 0.0
C45 C 0.59551 0.37887 0.71297 0.0
C46 C 0.64859 0.35314 0.70871 0.0
C47 C 0.67589 0.35171 0.66856 0.0
C48 C 0.64174 0.36339 0.63331 0.0
C49 C 0.24223 0.20864 0.5891 0.0
C50 C 0.2772 0.36739 0.65059 0.0
C51 C 0.12555 0.35228 0.52281 0.0
C52 C 0.07268 0.38254 0.5276 0.0
C53 C 0.00855 0.34503 0.55474 0.0
C54 C -0.0527 0.35889 0.55083 0.0
C55 C -0.05161 0.40918 0.51911 0.0
C56 C 0.0165 0.45233 0.49503 0.0
C57 C 0.07783 0.43949 0.49935 0.0
C58 C 0.40538 0.4967 0.54815 0.0
C59 C 0.3414 0.29522 0.48208 0.0
O60 O 0.51889 0.42332 0.59303 0.0
O61 O 0.46677 0.29528 0.6008 0.0
O62 O 0.27157 0.25381 0.55788 0.0
O63 O 0.29206 0.22777 0.6197 0.0
O64 O 0.23432 0.35855 0.61706 0.0
O65 O 0.34512 0.37168 0.64749 0.0
O66 O 0.19164 0.39666 0.50336 0.0
O67 O 0.12887 0.30842 0.55257 0.0
O68 O 0.37231 0.44655 0.57664 0.0
O69 O 0.36099 0.47833 0.5154 0.0
O70 O 0.39481 0.31703 0.51209 0.0
O71 O 0.27757 0.29672 0.48844 0.0
H72 H 0.51515 0.4023 0.68178 0.0
H73 H 0.57261 0.38052 0.74322 0.0
H74 H 0.71759 0.33346 0.66426 0.0
H75 H 0.65789 0.35424 0.60256 0.0
H76 H 0.00301 0.30085 0.577 0.0
H77 H 0.89671 0.3256 0.57052 0.0
H78 H 0.01971 0.48983 0.46946 0.0
H79 H 0.12616 0.46925 0.47782 0.0
Pr80 Pr 0.14114 0.39811 0.9164 0.0
Pr81 Pr -0.00997 0.2526 0.87938 0.0
C82 C 0.25422 0.54615 0.93693 0.0
C83 C 0.27511 0.59228 0.97559 0.0
C84 C 0.34914 0.66013 0.98038 0.0
C85 C 0.37618 0.69191 1.0202 0.0
C86 C 0.33007 0.65478 1.05578 0.0
C87 C 0.25247 0.59245 1.04977 0.0
C88 C 0.22539 0.56152 1.01004 0.0
C89 C 0.13761 0.25656 0.91386 0.0
C90 C 0.01011 0.27686 0.98525 0.0
C91 C 0.86673 0.10791 0.86296 0.0
C92 C 0.7838 0.0542 0.87157 0.0
C93 C 0.73464 0.0828 0.88027 0.0
C94 C 0.65387 0.03162 0.8781 0.0
C95 C 0.62172 0.95192 0.86608 0.0
C96 C 0.67164 0.92205 0.8634 0.0
C97 C 0.75199 -0.02704 0.86595 0.0
C98 C -0.0087 0.39366 0.88187 0.0
C99 C 0.13569 0.3522 0.81288 0.0
O100 O 0.18887 0.5301 0.91911 0.0
O101 O 0.26327 0.48517 0.93837 0.0
O102 O 0.1145 0.28425 0.88606 0.0
O103 O 0.16999 0.30581 0.94497 0.0
O104 O -0.0249 0.22927 0.95294 0.0
O105 O 0.07092 0.34968 0.97978 0.0
O106 O 0.88602 0.17042 0.83985 0.0
O107 O 0.91552 0.12115 0.89339 0.0
O108 O 0.01534 0.36727 0.91015 0.0
O109 O -0.04036 0.34372 0.85133 0.0
O110 O 0.16944 0.40723 0.84258 0.0
O111 O 0.07066 0.28379 0.82056 0.0
H112 H 0.38795 0.68508 0.95388 0.0
H113 H 0.43543 0.74123 1.02342 0.0
H114 H 0.21474 0.5615 1.07597 0.0
H115 H 0.16777 0.50929 1.00679 0.0
H116 H 0.75853 0.14541 0.88566 0.0
H117 H 0.6172 0.05624 0.88158 0.0
H118 H 0.65003 0.86134 0.85434 0.0
H119 H 0.78935 0.94982 0.85991 0.0
Pr120 Pr 0.84874 0.17714 0.25261 0.0
Pr121 Pr 0.81342 0.00833 1.22537 0.0
C122 C 0.82846 0.29509 0.27664 0.0
C123 C 0.78902 0.30546 0.31216 0.0
C124 C 0.75327 0.24532 0.34212 0.0
C125 C 0.73624 0.26183 0.38152 0.0
C126 C 0.75483 0.33935 0.39182 0.0
C127 C 0.77724 0.39481 0.35871 0.0
C128 C 0.79618 0.37862 0.3195 0.0
C129 C -0.02305 0.16104 0.24912 0.0
C130 C 0.81828 0.04736 0.32855 0.0
C131 C 0.78417 0.85937 1.22556 0.0
C132 C 0.74367 0.77988 1.2076 0.0
C133 C 0.71753 0.76664 1.16622 0.0
C134 C 0.68312 0.6906 1.14946 0.0
C135 C 0.67418 0.62668 1.17394 0.0
C136 C 0.69644 0.63982 1.21617 0.0
C137 C 0.73096 0.71597 1.23283 0.0
C138 C 0.6948 0.03898 1.21385 0.0
C139 C 0.88891 0.151 1.15374 0.0
O140 O 0.78343 0.24171 0.24905 0.0
O141 O 0.8901 0.29198 0.28661 0.0
O142 O 0.91054 0.11056 0.26183 0.0
O143 O -0.01776 0.22778 1.23926 0.0
O144 O 0.82368 0.00483 0.29853 0.0
O145 O 0.82062 0.1144 0.31982 0.0
O146 O 0.84278 0.91733 1.20501 0.0
O147 O 0.74092 0.88046 0.2449 0.0
O148 O 0.73857 0.05673 0.24491 0.0
O149 O 0.70966 0.00104 1.18612 0.0
O150 O 0.86787 0.1903 1.17872 0.0
O151 O 0.8831 0.08365 1.16604 0.0
H152 H 0.74483 0.18741 0.33639 0.0
H153 H 0.71648 0.21516 0.40455 0.0
H154 H 0.787 0.45333 0.36366 0.0
H155 H 0.82137 0.42503 0.29602 0.0
H156 H 0.72597 0.81535 1.14657 0.0
H157 H 0.66787 0.68314 1.1166 0.0
H158 H 0.68979 0.59191 1.23586 0.0
H159 H 0.74975 0.72539 0.2652 0.0
Pr160 Pr 0.76042 0.89024 0.60061 0.0
Pr161 Pr 0.88402 0.8576 0.56625 0.0
C162 C 0.62346 0.87849 0.61604 0.0
C163 C 0.56617 0.84634 0.64984 0.0
C164 C 0.57348 0.80227 0.68197 0.0
C165 C 0.53263 0.78877 0.71916 0.0
C166 C 0.48432 0.81994 0.72498 0.0
C167 C 0.46925 0.85446 0.69037 0.0
C168 C 0.51076 0.86848 0.65318 0.0
C169 C 0.9111 0.01974 0.60048 0.0
C170 C 0.8656 0.86575 0.66921 0.0
C171 C 0.01084 0.84628 0.56033 0.0
C172 C 0.04891 0.80479 0.5459 0.0
C173 C 0.0099 0.72168 0.5444 0.0
C174 C 0.04884 0.68467 0.53045 0.0
C175 C 0.12689 0.73034 0.51774 0.0
C176 C 0.16636 0.81335 0.52147 0.0
C177 C 0.12765 0.85008 0.53541 0.0
C178 C 0.73193 0.72997 0.56195 0.0
C179 C 0.81425 0.92721 0.49691 0.0
O180 O 0.62958 0.82665 0.59381 0.0
O181 O 0.69088 0.94075 0.62596 0.0
O182 O 0.8786 -0.03109 0.57241 0.0
O183 O 0.86388 0.00761 0.63125 0.0
O184 O 0.91421 0.88841 0.63749 0.0
O185 O 0.7933 0.84865 0.6631 0.0
O186 O -0.00437 0.8865 0.53328 0.0
O187 O -0.04129 0.81202 0.58967 0.0
O188 O 0.76191 0.77638 0.59246 0.0
O189 O 0.78303 0.74435 0.53323 0.0
O190 O 0.76426 0.91888 0.52669 0.0
O191 O 0.87039 0.91283 0.50466 0.0
H192 H 0.61564 0.78411 0.67967 0.0
H193 H 0.54638 0.76202 0.74476 0.0
H194 H 0.43126 0.87765 0.69338 0.0
H195 H 0.50374 0.9017 0.62829 0.0
H196 H -0.05074 0.68565 0.55319 0.0
H197 H 0.01747 0.62074 0.52813 0.0
H198 H 0.22595 0.8505 0.51109 0.0
H199 H 0.15886 0.91424 0.53708 0.0
Pr200 Pr -0.0273 0.76771 0.92666 0.0
Pr201 Pr 0.14082 0.88245 0.89303 0.0
C202 C 0.83959 0.63509 0.94822 0.0
C203 C 0.80672 0.57296 0.98015 0.0
C204 C 0.84708 0.58305 1.0175 0.0
C205 C 0.80719 0.53871 1.05261 0.0
C206 C 0.72604 0.4844 1.05083 0.0
C207 C 0.68966 0.46496 1.01133 0.0
C208 C 0.72959 0.51009 0.97624 0.0
C209 C 0.01405 0.92377 0.91926 0.0
C210 C 0.11118 0.86393 0.99792 0.0
C211 C 0.29337 -0.01037 0.88658 0.0
C212 C 0.36818 0.02708 0.86517 0.0
C213 C 0.43618 0.07342 0.88861 0.0
C214 C 0.50734 0.12078 0.86856 0.0
C215 C 0.51117 0.12201 0.82478 0.0
C216 C 0.44349 0.07077 0.80164 0.0
C217 C 0.37241 0.02365 0.82173 0.0
C218 C 0.08033 0.72083 0.88231 0.0
C219 C -0.0036 0.83765 0.82814 0.0
O220 O 0.88964 0.635 0.92229 0.0
O221 O 0.85878 0.70613 0.96087 0.0
O222 O 0.05672 0.89941 0.93179 0.0
O223 O -0.05666 0.86626 0.91135 0.0
O224 O 0.15544 0.90254 0.96548 0.0
O225 O 0.03821 0.80405 0.99279 0.0
O226 O 0.23948 0.00161 0.87166 0.0
O227 O 0.26656 0.91949 0.90323 0.0
O228 O 0.07585 0.75383 0.91453 0.0
O229 O 0.11905 0.77224 0.85305 0.0
O230 O -0.04627 0.77694 0.85372 0.0
O231 O 0.06903 0.89285 0.83779 0.0
H232 H 0.90726 0.63057 1.02067 0.0
H233 H 0.83846 0.55529 1.08202 0.0
H234 H 0.62811 0.42153 1.00842 0.0
H235 H 0.69822 0.50055 0.94712 0.0
H236 H 0.43356 0.07611 0.92234 0.0
H237 H 0.5585 0.15921 0.88711 0.0
H238 H 0.4442 0.07099 0.76779 0.0
H239 H 0.32031 -0.01214 0.80328 0.0
C240 C 0.10156 0.17654 1.22541 0.0
C241 C 0.04171 0.14858 0.25474 0.0
H242 H 0.19815 0.17002 1.20344 0.0
C243 C 0.03784 0.09901 0.28755 0.0
H244 H 0.10504 0.21448 1.19985 0.0
C245 C 0.09078 0.07417 0.28987 0.0
C246 C 0.14748 0.09758 0.25902 0.0
H247 H -0.00776 0.07738 0.31078 0.0
H248 H 0.0853 0.03421 0.31479 0.0
C249 C 0.15401 0.15055 1.22735 0.0
C250 C 0.03165 0.09402 0.56056 0.0
C251 C -0.0047 0.07461 0.59972 0.0
H252 H 0.13819 0.14973 0.52688 0.0
C253 C 0.04065 0.09853 0.63626 0.0
H254 H -0.00225 0.07578 0.53193 0.0
C255 C 0.122 0.14034 0.6333 0.0
C256 C 0.1578 0.15868 0.59383 0.0
H257 H 0.01345 0.08281 0.66674 0.0
H258 H 0.15666 0.15906 0.66163 0.0
C259 C 0.11193 0.13555 0.55764 0.0
C260 C 0.08718 0.05525 0.95233 0.0
C261 C 0.04117 0.00761 0.919 0.0
H262 H 0.15408 0.17292 0.97712 0.0
C263 C 0.02966 0.04192 0.88371 0.0
H264 H 0.09703 0.02894 0.97965 0.0
C265 C 0.06475 0.12379 0.88154 0.0
C266 C 0.1092 0.17182 0.91531 0.0
H267 H -0.00411 0.00584 0.8574 0.0
H268 H 0.05573 0.14925 0.85363 0.0
C269 C 0.12036 0.13713 0.95075 0.0
C270 C 0.33878 0.61437 1.16909 0.0
C271 C 0.40267 0.60404 1.16797 0.0
H272 H 0.26687 0.64428 1.13401 0.0
C273 C 0.45702 0.64049 1.13554 0.0
H274 H 0.29735 0.58952 1.19448 0.0
C275 C 0.43893 0.67036 1.10061 0.0
C276 C 0.3665 0.6648 1.0978 0.0
H277 H 0.50781 0.63525 1.13386 0.0
H278 H 0.47683 0.68655 1.07379 0.0
C279 C 0.32114 0.64534 1.13426 0.0
C280 C 0.87917 0.46425 0.47938 0.0
C281 C 0.8752 0.40285 0.50374 0.0
H282 H 0.84229 0.49386 0.42396 0.0
C283 C 0.80616 0.32807 0.50184 0.0
H284 H 0.92819 0.52423 0.48209 0.0
C285 C 0.75344 0.31085 0.46911 0.0
C286 C 0.77211 0.36651 0.4366 0.0
H287 H 0.79751 0.27956 0.52163 0.0
H288 H 0.70468 0.25067 0.46651 0.0
C289 C 0.82862 0.44622 0.44559 0.0
C290 C 0.52934 0.95152 0.81444 0.0
C291 C 0.54553 0.90876 0.84376 0.0
H292 H 0.49265 0.95477 0.75266 0.0
C293 C 0.50551 0.8257 0.83983 0.0
H294 H 0.55747 0.01513 0.81645 0.0
C295 C 0.46888 0.79034 0.802 0.0
C296 C 0.47184 0.83809 0.76835 0.0
H297 H 0.51299 0.79002 0.86301 0.0
H298 H 0.44945 0.72854 0.79711 0.0
C299 C 0.49201 0.91622 0.77703 0.0
C300 C 0.7028 0.52028 1.16036 0.0
C301 C 0.6553 0.55186 1.15311 0.0
H302 H 0.75812 0.46424 1.13278 0.0
C303 C 0.6051 0.52487 1.11848 0.0
H304 H 0.74029 0.53724 1.18756 0.0
C305 C 0.61698 0.48477 1.08653 0.0
C306 C 0.67936 0.47175 1.08923 0.0
H307 H 0.56454 0.54448 1.1133 0.0
H308 H 0.58607 0.47691 1.05747 0.0
C309 C 0.71336 0.4785 1.12871 0.0
C310 C 0.12195 0.65291 0.45633 0.0
C311 C 0.16242 0.69566 0.49203 0.0
H312 H 0.13015 0.63162 0.39221 0.0
C313 C 0.24275 0.72575 0.4948 0.0
H314 H 0.05999 0.62862 0.45326 0.0
C315 C 0.28383 0.72847 0.45917 0.0
C316 C 0.24453 0.7015 0.42077 0.0
H317 H 0.27503 0.75717 0.52251 0.0
H318 H 0.34681 0.76224 0.46026 0.0
C319 C 0.16279 0.65488 0.42096 0.0
C320 C 0.60137 0.16904 0.7639 0.0
C321 C 0.58041 0.18512 0.80264 0.0
H322 H 0.64312 0.21249 0.70282 0.0
C323 C 0.61181 0.26452 0.8145 0.0
H324 H 0.58021 0.10855 0.75452 0.0
C325 C 0.64959 0.32503 0.78495 0.0
C326 C 0.65465 0.30614 0.74327 0.0
H327 H 0.59814 0.27913 0.84454 0.0
H328 H 0.66431 0.38438 0.79318 0.0
C329 C 0.63848 0.22932 0.73431 0.0
C330 C 0.54493 0.08286 1.17308 0.0
C331 C 0.51875 0.09728 1.21067 0.0
H332 H 0.6211 0.05092 1.14455 0.0
C333 C 0.54826 0.08903 0.24883 0.0
H334 H 0.52241 0.0886 1.1433 0.0
C335 C 0.60498 0.06913 0.24944 0.0
C336 C 0.63189 0.05537 1.21197 0.0
H337 H 0.52891 0.09981 0.2782 0.0
H338 H 0.62811 0.06491 0.27936 0.0
C339 C 0.60076 0.06105 1.17375 0.0
C340 C 0.5343 0.588 0.51484 0.0
C341 C 0.48765 0.56045 0.55069 0.0
H342 H 0.64955 0.6624 0.49051 0.0
C343 C 0.5215 0.58985 0.59003 0.0
H344 H 0.50947 0.56557 0.48424 0.0
C345 C 0.60087 0.64559 0.59358 0.0
C346 C 0.64811 0.67153 0.55794 0.0
H347 H 0.48657 0.56922 0.61815 0.0
H348 H 0.6255 0.6674 0.6243 0.0
C349 C 0.61429 0.64258 0.5185 0.0
C350 C 0.0191 0.51597 0.84322 0.0
C351 C 0.00823 0.4754 0.88118 0.0
H352 H 0.05263 0.62734 0.81373 0.0
C353 C 0.01886 0.51517 0.919 0.0
H354 H 0.01173 0.48633 0.81368 0.0
C355 C 0.04059 0.59454 0.919 0.0
C356 C 0.05407 0.63616 0.88118 0.0
H357 H 0.01097 0.485 0.94862 0.0
H358 H 0.04872 0.62387 0.94874 0.0
C359 C 0.04292 0.59638 0.84323 0.0
C360 C 0.38704 0.1873 0.39778 0.0
C361 C 0.35336 0.19908 0.36181 0.0
H362 H 0.41224 0.21027 0.46368 0.0
C363 C 0.31896 0.24506 0.36591 0.0
H364 H 0.41416 0.15239 0.39589 0.0
C365 C 0.31649 0.27661 0.40465 0.0
C366 C 0.35011 0.26527 0.44065 0.0
H367 H 0.29193 0.25522 0.3392 0.0
H368 H 0.28784 0.31008 0.40641 0.0
C369 C 0.38643 0.22097 0.4366 0.0
C370 C 0.29002 0.40574 0.72783 0.0
C371 C 0.24357 0.36708 0.69251 0.0
H372 H 0.29299 0.43399 0.79318 0.0
C373 C 0.16216 0.32677 0.69723 0.0
H374 H 0.35281 0.43748 0.72546 0.0
C375 C 0.12814 0.32359 0.73591 0.0
C376 C 0.17406 0.36232 0.77124 0.0
H377 H 0.12415 0.29575 0.67103 0.0
H378 H 0.06528 0.29029 0.73817 0.0
C379 C 0.25568 0.40431 0.76657 0.0
C380 C -0.05839 0.16371 1.03739 0.0
C381 C -0.01985 0.24573 1.02869 0.0
H382 H 0.88461 0.07012 1.08293 0.0
C383 C -0.01132 0.2964 1.06183 0.0
H384 H 0.93414 0.12256 1.01297 0.0
C385 C -0.04178 0.26582 1.10196 0.0
C386 C 0.92027 0.18377 1.11069 0.0
H387 H 0.01781 0.35976 1.05658 0.0
H388 H -0.03457 0.30678 1.12641 0.0
C389 C 0.91325 0.13345 1.07773 0.0
C390 C 0.84784 -0.02845 0.38059 0.0
C391 C 0.8171 0.02008 0.37257 0.0
H392 H 0.87073 0.90503 0.42502 0.0
C393 C 0.78366 0.03754 0.40621 0.0
H394 H 0.87446 0.95678 0.3558 0.0
C395 C 0.78024 0.00595 0.44657 0.0
C396 C 0.81167 0.9577 0.45424 0.0
H397 H 0.7591 0.07436 0.40121 0.0
H398 H 0.7543 0.02041 0.47184 0.0
C399 C 0.84572 0.94157 0.42058 0.0
C400 C -0.02293 0.90595 0.71907 0.0
C401 C 0.8962 0.86157 0.71149 0.0
H402 H 0.07139 0.93379 0.76092 0.0
C403 C 0.84793 0.80995 0.74323 0.0
H404 H 0.01641 0.94658 0.69558 0.0
C405 C 0.8801 0.80147 0.78088 0.0
C406 C -0.03872 0.84533 0.78807 0.0
H407 H 0.78559 0.77444 0.73852 0.0
H408 H 0.84124 0.76053 0.80439 0.0
C409 C 0.00891 0.8985 0.75672 0.0
C410 C 0.13012 0.85671 1.07651 0.0
C411 C 0.14353 0.90073 1.03953 0.0
H412 H 0.15807 0.8596 1.14187 0.0
C413 C 0.19417 -0.01629 1.04131 0.0
H414 H 0.0919 0.79285 1.07622 0.0
C415 C 0.23102 0.02179 1.07851 0.0
C416 C 0.21987 -0.02175 1.1153 0.0
H417 H 0.20587 0.01993 1.01359 0.0
H418 H 0.2695 0.08563 1.07816 0.0
C419 C 0.16866 0.89505 1.11395 0.0
loop_
_geom_bond_atom_site_label_1
_geom_bond_atom_site_label_2
_geom_bond_distance
_geom_bond_site_symmetry_2
_ccdc_geom_bond_type
Pr0 C2 2.880 . S
Pr0 O20 2.562 . S
Pr0 O21 2.490 . S
Pr0 O22 2.695 . S
Pr0 O23 2.512 . S
Pr0 O25 2.437 . S
Pr0 O28 2.436 . S
Pr0 O30 2.438 1_554 S
Pr1 C11 2.880 . S
Pr1 O22 2.436 1_556 S
Pr1 O24 2.438 1_556 S
Pr1 O26 2.562 . S
Pr1 O27 2.490 . S
Pr1 O28 2.695 1_556 S
Pr1 O29 2.512 . S
Pr1 O31 2.437 . S
C2 Pr0 2.880 . S
C2 C3 1.491 . S
C2 O20 1.254 . S
C2 O21 1.225 . S
C3 C2 1.491 . S
C3 C4 1.392 1_545 S
C3 C8 1.356 . S
C4 C3 1.392 1_565 S
C4 C5 1.368 . S
C4 H32 0.929 . S
C5 C4 1.368 . S
C5 C6 1.386 . S
C5 H33 0.929 . S
C6 C5 1.386 . S
C6 C7 1.373 1_565 S
C7 C6 1.373 1_545 S
C7 C8 1.409 . S
C7 H34 0.931 . S
C8 C3 1.356 . S
C8 C7 1.409 . S
C8 H35 0.930 . S
C9 O22 1.270 . S
C9 O23 1.248 . S
C10 O24 1.267 . S
C10 O25 1.278 . S
C11 Pr1 2.880 . S
C11 C12 1.491 . S
C11 O26 1.254 . S
C11 O27 1.225 . S
C12 C11 1.491 . S
C12 C13 1.392 . S
C12 C17 1.356 . S
C13 C12 1.392 . S
C13 C14 1.368 . S
C13 H36 0.929 . S
C14 C13 1.368 . S
C14 C15 1.386 . S
C14 H37 0.929 . S
C15 C14 1.386 . S
C15 C16 1.373 . S
C16 C15 1.373 . S
C16 C17 1.409 . S
C16 H38 0.931 . S
C17 C12 1.356 . S
C17 C16 1.409 . S
C17 H39 0.930 . S
C18 O28 1.270 . S
C18 O29 1.248 1_554 S
C19 O30 1.267 . S
C19 O31 1.278 . S
O20 Pr0 2.562 . S
O20 C2 1.254 . S
O21 Pr0 2.490 . S
O21 C2 1.225 . S
O22 Pr0 2.695 . S
O22 Pr1 2.436 1_554 S
O22 C9 1.270 . S
O23 Pr0 2.512 . S
O23 C9 1.248 . S
O24 Pr1 2.438 1_554 S
O24 C10 1.267 . S
O25 Pr0 2.437 . S
O25 C10 1.278 . S
O26 Pr1 2.562 . S
O26 C11 1.254 . S
O27 Pr1 2.490 . S
O27 C11 1.225 . S
O28 Pr0 2.436 . S
O28 Pr1 2.695 1_554 S
O28 C18 1.270 . S
O29 Pr1 2.512 . S
O29 C18 1.248 1_556 S
O30 Pr0 2.438 1_556 S
O30 C19 1.267 . S
O31 Pr1 2.437 . S
O31 C19 1.278 . S
H32 C4 0.929 . S
H33 C5 0.929 . S
H34 C7 0.931 . S
H35 C8 0.930 . S
H36 C13 0.929 . S
H37 C14 0.929 . S
H38 C16 0.931 . S
H39 C17 0.930 . S
Pr40 C42 2.880 . S
Pr40 O60 2.562 . S
Pr40 O61 2.490 . S
Pr40 O62 2.695 . S
Pr40 O63 2.512 . S
Pr40 O65 2.437 . S
Pr40 O68 2.436 . S
Pr40 O70 2.438 . S
Pr41 C51 2.880 . S
Pr41 O62 2.436 . S
Pr41 O64 2.438 . S
Pr41 O66 2.562 . S
Pr41 O67 2.490 . S
Pr41 O68 2.695 . S
Pr41 O69 2.512 . S
Pr41 O71 2.437 . S
C42 Pr40 2.880 . S
C42 C43 1.491 . S
C42 O60 1.254 . S
C42 O61 1.225 . S
C43 C42 1.491 . S
C43 C44 1.392 . S
C43 C48 1.356 . S
C44 C43 1.392 . S
C44 C45 1.368 . S
C44 H72 0.929 . S
C45 C44 1.368 . S
C45 C46 1.386 . S
C45 H73 0.929 . S
C46 C45 1.386 . S
C46 C47 1.373 . S
C47 C46 1.373 . S
C47 C48 1.409 . S
C47 H74 0.931 . S
C48 C43 1.356 . S
C48 C47 1.409 . S
C48 H75 0.930 . S
C49 O62 1.270 . S
C49 O63 1.248 . S
C50 O64 1.267 . S
C50 O65 1.278 . S
C51 Pr41 2.880 . S
C51 C52 1.491 . S
C51 O66 1.254 . S
C51 O67 1.225 . S
C52 C51 1.491 . S
C52 C53 1.392 . S
C52 C57 1.356 . S
C53 C52 1.392 . S
C53 C54 1.368 . S
C53 H76 0.929 . S
C54 C53 1.368 . S
C54 C55 1.386 . S
C54 H77 0.929 . S
C55 C54 1.386 . S
C55 C56 1.373 . S
C56 C55 1.373 . S
C56 C57 1.409 . S
C56 H78 0.931 . S
C57 C52 1.356 . S
C57 C56 1.409 . S
C57 H79 0.930 . S
C58 O68 1.270 . S
C58 O69 1.248 . S
C59 O70 1.267 . S
C59 O71 1.278 . S
O60 Pr40 2.562 . S
O60 C42 1.254 . S
O61 Pr40 2.490 . S
O61 C42 1.225 . S
O62 Pr40 2.695 . S
O62 Pr41 2.436 . S
O62 C49 1.270 . S
O63 Pr40 2.512 . S
O63 C49 1.248 . S
O64 Pr41 2.438 . S
O64 C50 1.267 . S
O65 Pr40 2.437 . S
O65 C50 1.278 . S
O66 Pr41 2.562 . S
O66 C51 1.254 . S
O67 Pr41 2.490 . S
O67 C51 1.225 . S
O68 Pr40 2.436 . S
O68 Pr41 2.695 . S
O68 C58 1.270 . S
O69 Pr41 2.512 . S
O69 C58 1.248 . S
O70 Pr40 2.438 . S
O70 C59 1.267 . S
O71 Pr41 2.437 . S
O71 C59 1.278 . S
H72 C44 0.929 . S
H73 C45 0.929 . S
H74 C47 0.931 . S
H75 C48 0.930 . S
H76 C53 0.929 . S
H77 C54 0.929 . S
H78 C56 0.931 . S
H79 C57 0.930 . S
Pr80 C82 2.880 . S
Pr80 O100 2.562 . S
Pr80 O101 2.490 . S
Pr80 O102 2.695 . S
Pr80 O103 2.512 . S
Pr80 O105 2.437 . S
Pr80 O108 2.436 . S
Pr80 O110 2.438 . S
Pr81 C91 2.880 . S
Pr81 O102 2.436 1_655 S
Pr81 O104 2.438 . S
Pr81 O106 2.562 . S
Pr81 O107 2.490 . S
Pr81 O108 2.695 1_655 S
Pr81 O109 2.512 . S
Pr81 O111 2.437 1_655 S
C82 Pr80 2.880 . S
C82 C83 1.491 . S
C82 O100 1.254 . S
C82 O101 1.225 . S
C83 C82 1.491 . S
C83 C84 1.392 . S
C83 C88 1.356 . S
C84 C83 1.392 . S
C84 C85 1.368 . S
C84 H112 0.929 . S
C85 C84 1.368 . S
C85 C86 1.386 . S
C85 H113 0.929 . S
C86 C85 1.386 . S
C86 C87 1.373 . S
C87 C86 1.373 . S
C87 C88 1.409 . S
C87 H114 0.931 . S
C88 C83 1.356 . S
C88 C87 1.409 . S
C88 H115 0.930 . S
C89 O102 1.270 . S
C89 O103 1.248 . S
C90 O104 1.267 . S
C90 O105 1.278 1_655 S
C91 Pr81 2.880 . S
C91 C92 1.491 . S
C91 O106 1.254 . S
C91 O107 1.225 . S
C92 C91 1.491 . S
C92 C93 1.392 . S
C92 C97 1.356 . S
C93 C92 1.392 . S
C93 C94 1.368 . S
C93 H116 0.929 . S
C94 C93 1.368 . S
C94 C95 1.386 . S
C94 H117 0.929 . S
C95 C94 1.386 . S
C95 C96 1.373 . S
C96 C95 1.373 . S
C96 C97 1.409 . S
C96 H118 0.931 . S
C97 C92 1.356 . S
C97 C96 1.409 . S
C97 H119 0.930 . S
C98 O108 1.270 1_655 S
C98 O109 1.248 . S
C99 O110 1.267 . S
C99 O111 1.278 . S
O100 Pr80 2.562 . S
O100 C82 1.254 . S
O101 Pr80 2.490 . S
O101 C82 1.225 . S
O102 Pr80 2.695 . S
O102 Pr81 2.436 1_455 S
O102 C89 1.270 . S
O103 Pr80 2.512 . S
O103 C89 1.248 . S
O104 Pr81 2.438 . S
O104 C90 1.267 . S
O105 Pr80 2.437 . S
O105 C90 1.278 1_455 S
O106 Pr81 2.562 . S
O106 C91 1.254 . S
O107 Pr81 2.490 . S
O107 C91 1.225 . S
O108 Pr80 2.436 . S
O108 Pr81 2.695 1_455 S
O108 C98 1.270 1_455 S
O109 Pr81 2.512 . S
O109 C98 1.248 . S
O110 Pr80 2.438 . S
O110 C99 1.267 . S
O111 Pr81 2.437 1_455 S
O111 C99 1.278 . S
H112 C84 0.929 . S
H113 C85 0.929 . S
H114 C87 0.931 . S
H115 C88 0.930 . S
H116 C93 0.929 . S
H117 C94 0.929 . S
H118 C96 0.931 . S
H119 C97 0.930 . S
Pr120 C122 2.880 . S
Pr120 O140 2.562 . S
Pr120 O141 2.490 . S
Pr120 O142 2.695 . S
Pr120 O143 2.512 . S
Pr120 O145 2.437 1_545 S
Pr120 O148 2.436 . S
Pr120 O150 2.438 1_554 S
Pr121 C131 2.880 . S
Pr121 O142 2.436 1_566 S
Pr121 O144 2.438 1_556 S
Pr121 O146 2.562 . S
Pr121 O147 2.490 . S
Pr121 O148 2.695 1_566 S
Pr121 O149 2.512 . S
Pr121 O151 2.437 1_565 S
C122 Pr120 2.880 . S
C122 C123 1.491 . S
C122 O140 1.254 . S
C122 O141 1.225 . S
C123 C122 1.491 . S
C123 C124 1.392 . S
C123 C128 1.356 . S
C124 C123 1.392 . S
C124 C125 1.368 . S
C124 H152 0.929 1_655 S
C125 C124 1.368 . S
C125 C126 1.386 . S
C125 H153 0.929 1_655 S
C126 C125 1.386 . S
C126 C127 1.373 . S
C127 C126 1.373 . S
C127 C128 1.409 . S
C127 H154 0.931 . S
C128 C123 1.356 . S
C128 C127 1.409 . S
C128 H155 0.930 . S
C129 O142 1.270 . S
C129 O143 1.248 . S
C130 O144 1.267 . S
C130 O145 1.278 . S
C131 Pr121 2.880 . S
C131 C132 1.491 . S
C131 O146 1.254 . S
C131 O147 1.225 . S
C132 C131 1.491 . S
C132 C133 1.392 . S
C132 C137 1.356 . S
C133 C132 1.392 . S
C133 C134 1.368 . S
C133 H156 0.929 . S
C134 C133 1.368 . S
C134 C135 1.386 . S
C134 H157 0.929 . S
C135 C134 1.386 . S
C135 C136 1.373 . S
C136 C135 1.373 . S
C136 C137 1.409 . S
C136 H158 0.931 . S
C137 C132 1.356 . S
C137 C136 1.409 . S
C137 H159 0.930 . S
C138 O148 1.270 1_565 S
C138 O149 1.248 1_554 S
C139 O150 1.267 . S
C139 O151 1.278 . S
O140 Pr120 2.562 . S
O140 C122 1.254 . S
O141 Pr120 2.490 . S
O141 C122 1.225 . S
O142 Pr120 2.695 . S
O142 Pr121 2.436 1_544 S
O142 C129 1.270 . S
O143 Pr120 2.512 . S
O143 C129 1.248 . S
O144 Pr121 2.438 1_554 S
O144 C130 1.267 . S
O145 Pr120 2.437 1_565 S
O145 C130 1.278 . S
O146 Pr121 2.562 . S
O146 C131 1.254 . S
O147 Pr121 2.490 . S
O147 C131 1.225 . S
O148 Pr120 2.436 . S
O148 Pr121 2.695 1_544 S
O148 C138 1.270 1_545 S
O149 Pr121 2.512 . S
O149 C138 1.248 1_556 S
O150 Pr120 2.438 1_556 S
O150 C139 1.267 . S
O151 Pr121 2.437 1_545 S
O151 C139 1.278 . S
H152 C124 0.929 1_455 S
H153 C125 0.929 1_455 S
H154 C127 0.931 . S
H155 C128 0.930 . S
H156 C133 0.929 . S
H157 C134 0.929 . S
H158 C136 0.931 . S
H159 C137 0.930 . S
Pr160 C162 2.880 . S
Pr160 O180 2.562 . S
Pr160 O181 2.490 . S
Pr160 O182 2.695 1_655 S
Pr160 O183 2.512 1_655 S
Pr160 O185 2.437 . S
Pr160 O188 2.436 . S
Pr160 O190 2.438 . S
Pr161 C171 2.880 1_655 S
Pr161 O182 2.436 1_655 S
Pr161 O184 2.438 . S
Pr161 O186 2.562 1_655 S
Pr161 O187 2.490 . S
Pr161 O188 2.695 . S
Pr161 O189 2.512 . S
Pr161 O191 2.437 . S
C162 Pr160 2.880 . S
C162 C163 1.491 . S
C162 O180 1.254 . S
C162 O181 1.225 . S
C163 C162 1.491 . S
C163 C164 1.392 . S
C163 C168 1.356 . S
C164 C163 1.392 . S
C164 C165 1.368 . S
C164 H192 0.929 . S
C165 C164 1.368 . S
C165 C166 1.386 . S
C165 H193 0.929 1_565 S
C166 C165 1.386 . S
C166 C167 1.373 . S
C167 C166 1.373 . S
C167 C168 1.409 . S
C167 H194 0.931 . S
C168 C163 1.356 . S
C168 C167 1.409 . S
C168 H195 0.930 . S
C169 O182 1.270 . S
C169 O183 1.248 . S
C170 O184 1.267 . S
C170 O185 1.278 . S
C171 Pr161 2.880 1_455 S
C171 C172 1.491 . S
C171 O186 1.254 . S
C171 O187 1.225 1_455 S
C172 C171 1.491 . S
C172 C173 1.392 . S
C172 C177 1.356 . S
C173 C172 1.392 . S
C173 C174 1.368 . S
C173 H196 0.929 1_455 S
C174 C173 1.368 . S
C174 C175 1.386 . S
C174 H197 0.929 . S
C175 C174 1.386 . S
C175 C176 1.373 . S
C176 C175 1.373 . S
C176 C177 1.409 . S
C176 H198 0.931 . S
C177 C172 1.356 . S
C177 C176 1.409 . S
C177 H199 0.930 . S
C178 O188 1.270 . S
C178 O189 1.248 . S
C179 O190 1.267 . S
C179 O191 1.278 . S
O180 Pr160 2.562 . S
O180 C162 1.254 . S
O181 Pr160 2.490 . S
O181 C162 1.225 . S
O182 Pr160 2.695 1_455 S
O182 Pr161 2.436 1_455 S
O182 C169 1.270 . S
O183 Pr160 2.512 1_455 S
O183 C169 1.248 . S
O184 Pr161 2.438 . S
O184 C170 1.267 . S
O185 Pr160 2.437 . S
O185 C170 1.278 . S
O186 Pr161 2.562 1_455 S
O186 C171 1.254 . S
O187 Pr161 2.490 . S
O187 C171 1.225 1_655 S
O188 Pr160 2.436 . S
O188 Pr161 2.695 . S
O188 C178 1.270 . S
O189 Pr161 2.512 . S
O189 C178 1.248 . S
O190 Pr160 2.438 . S
O190 C179 1.267 . S
O191 Pr161 2.437 . S
O191 C179 1.278 . S
H192 C164 0.929 . S
H193 C165 0.929 1_545 S
H194 C167 0.931 . S
H195 C168 0.930 . S
H196 C173 0.929 1_655 S
H197 C174 0.929 . S
H198 C176 0.931 . S
H199 C177 0.930 . S
Pr200 C202 2.880 . S
Pr200 O220 2.562 . S
Pr200 O221 2.490 . S
Pr200 O222 2.701 . S
Pr200 O223 2.512 1_565 S
Pr200 O225 2.437 . S
Pr200 O228 2.436 . S
Pr200 O230 2.438 . S
Pr201 C211 2.880 1_565 S
Pr201 O222 2.442 . S
Pr201 O224 2.438 . S
Pr201 O226 2.562 1_565 S
Pr201 O227 2.490 . S
Pr201 O228 2.695 . S
Pr201 O229 2.512 . S
Pr201 O231 2.437 . S
C202 Pr200 2.880 . S
C202 C203 1.491 . S
C202 O220 1.254 . S
C202 O221 1.225 . S
C203 C202 1.491 . S
C203 C204 1.392 1_455 S
C203 C208 1.356 . S
C204 C203 1.392 1_655 S
C204 C205 1.368 . S
C204 H232 0.929 . S
C205 C204 1.368 . S
C205 C206 1.386 . S
C205 H233 0.929 . S
C206 C205 1.386 . S
C206 C207 1.373 1_655 S
C207 C206 1.373 1_455 S
C207 C208 1.409 . S
C207 H234 0.931 . S
C208 C203 1.356 . S
C208 C207 1.409 . S
C208 H235 0.930 . S
C209 O222 1.262 1_545 S
C209 O223 1.248 . S
C210 O224 1.267 . S
C210 O225 1.278 . S
C211 Pr201 2.880 1_545 S
C211 C212 1.491 . S
C211 O226 1.254 . S
C211 O227 1.225 1_545 S
C212 C211 1.491 . S
C212 C213 1.392 . S
C212 C217 1.356 . S
C213 C212 1.392 . S
C213 C214 1.368 . S
C213 H236 0.929 1_545 S
C214 C213 1.368 . S
C214 C215 1.386 . S
C214 H237 0.929 . S
C215 C214 1.386 . S
C215 C216 1.373 . S
C216 C215 1.373 . S
C216 C217 1.409 . S
C216 H238 0.931 . S
C217 C212 1.356 . S
C217 C216 1.409 . S
C217 H239 0.930 . S
C218 O228 1.270 . S
C218 O229 1.248 . S
C219 O230 1.267 . S
C219 O231 1.278 . S
O220 Pr200 2.562 . S
O220 C202 1.254 . S
O221 Pr200 2.490 . S
O221 C202 1.225 . S
O222 Pr200 2.701 . S
O222 Pr201 2.442 . S
O222 C209 1.262 1_565 S
O223 Pr200 2.512 1_545 S
O223 C209 1.248 . S
O224 Pr201 2.438 . S
O224 C210 1.267 . S
O225 Pr200 2.437 . S
O225 C210 1.278 . S
O226 Pr201 2.562 1_545 S
O226 C211 1.254 . S
O227 Pr201 2.490 . S
O227 C211 1.225 1_565 S
O228 Pr200 2.436 . S
O228 Pr201 2.695 . S
O228 C218 1.270 . S
O229 Pr201 2.512 . S
O229 C218 1.248 . S
O230 Pr200 2.438 . S
O230 C219 1.267 . S
O231 Pr201 2.437 . S
O231 C219 1.278 . S
H232 C204 0.929 . S
H233 C205 0.929 . S
H234 C207 0.931 . S
H235 C208 0.930 . S
H236 C213 0.929 1_565 S
H237 C214 0.929 . S
H238 C216 0.931 . S
H239 C217 0.930 . S
C240 C241 1.387 1_556 S
C240 H244 0.950 . S
C240 C249 1.390 . S
C241 C240 1.387 1_554 S
C241 C243 1.387 . S
H242 C249 0.950 . S
C243 C241 1.387 . S
C243 C245 1.390 . S
C243 H247 0.950 . S
H244 C240 0.950 . S
C245 C243 1.390 . S
C245 C246 1.387 . S
C245 H248 0.950 . S
C246 C245 1.387 . S
C246 C249 1.387 1_554 S
H247 C243 0.950 . S
H248 C245 0.950 . S
C249 C240 1.390 . S
C249 H242 0.950 . S
C249 C246 1.387 1_556 S
C250 C251 1.387 . S
C250 H254 0.950 . S
C250 C259 1.390 . S
C251 C250 1.387 . S
C251 C253 1.387 . S
H252 C259 0.950 . S
C253 C251 1.387 . S
C253 C255 1.390 . S
C253 H257 0.950 . S
H254 C250 0.950 . S
C255 C253 1.390 . S
C255 C256 1.387 . S
C255 H258 0.950 . S
C256 C255 1.387 . S
C256 C259 1.387 . S
H257 C253 0.950 . S
H258 C255 0.950 . S
C259 C250 1.390 . S
C259 H252 0.950 . S
C259 C256 1.387 . S
C260 C261 1.387 . S
C260 H264 0.950 . S
C260 C269 1.390 . S
C261 C260 1.387 . S
C261 C263 1.387 . S
H262 C269 0.950 . S
C263 C261 1.387 . S
C263 C265 1.390 . S
C263 H267 0.950 . S
H264 C260 0.950 . S
C265 C263 1.390 . S
C265 C266 1.387 . S
C265 H268 0.950 . S
C266 C265 1.387 . S
C266 C269 1.387 . S
H267 C263 0.950 . S
H268 C265 0.950 . S
C269 C260 1.390 . S
C269 H262 0.950 . S
C269 C266 1.387 . S
C270 C271 1.387 . S
C270 H274 0.950 . S
C270 C279 1.390 . S
C271 C270 1.387 . S
C271 C273 1.387 . S
H272 C279 0.950 . S
C273 C271 1.387 . S
C273 C275 1.390 . S
C273 H277 0.950 . S
H274 C270 0.950 . S
C275 C273 1.390 . S
C275 C276 1.387 . S
C275 H278 0.950 . S
C276 C275 1.387 . S
C276 C279 1.387 . S
H277 C273 0.950 . S
H278 C275 0.950 . S
C279 C270 1.390 . S
C279 H272 0.950 . S
C279 C276 1.387 . S
C280 C281 1.387 . S
C280 H284 0.950 . S
C280 C289 1.390 1_455 S
C281 C280 1.387 . S
C281 C283 1.387 . S
H282 C289 0.950 . S
C283 C281 1.387 . S
C283 C285 1.390 1_455 S
C283 H287 0.950 . S
H284 C280 0.950 . S
C285 C283 1.390 1_655 S
C285 C286 1.387 . S
C285 H288 0.950 . S
C286 C285 1.387 . S
C286 C289 1.387 . S
H287 C283 0.950 . S
H288 C285 0.950 . S
C289 C280 1.390 1_655 S
C289 H282 0.950 . S
C289 C286 1.387 . S
C290 C291 1.387 . S
C290 H294 0.950 . S
C290 C299 1.390 1_545 S
C291 C290 1.387 . S
C291 C293 1.387 . S
H292 C299 0.950 . S
C293 C291 1.387 . S
C293 C295 1.390 . S
C293 H297 0.950 . S
H294 C290 0.950 . S
C295 C293 1.390 . S
C295 C296 1.387 1_545 S
C295 H298 0.950 1_545 S
C296 C295 1.387 1_565 S
C296 C299 1.387 . S
H297 C293 0.950 . S
H298 C295 0.950 1_565 S
C299 C290 1.390 1_565 S
C299 H292 0.950 . S
C299 C296 1.387 . S
C300 C301 1.387 . S
C300 H304 0.950 . S
C300 C309 1.390 . S
C301 C300 1.387 . S
C301 C303 1.387 . S
H302 C309 0.950 . S
C303 C301 1.387 . S
C303 C305 1.390 . S
C303 H307 0.950 . S
H304 C300 0.950 . S
C305 C303 1.390 . S
C305 C306 1.387 . S
C305 H308 0.950 . S
C306 C305 1.387 . S
C306 C309 1.387 . S
H307 C303 0.950 . S
H308 C305 0.950 . S
C309 C300 1.390 . S
C309 H302 0.950 . S
C309 C306 1.387 . S
C310 C311 1.387 . S
C310 H314 0.950 . S
C310 C319 1.390 . S
C311 C310 1.387 . S
C311 C313 1.387 . S
H312 C319 0.950 . S
C313 C311 1.387 . S
C313 C315 1.390 . S
C313 H317 0.950 . S
H314 C310 0.950 . S
C315 C313 1.390 . S
C315 C316 1.387 . S
C315 H318 0.950 . S
C316 C315 1.387 . S
C316 C319 1.387 . S
H317 C313 0.950 . S
H318 C315 0.950 . S
C319 C310 1.390 . S
C319 H312 0.950 . S
C319 C316 1.387 . S
C320 C321 1.387 . S
C320 H324 0.950 . S
C320 C329 1.390 . S
C321 C320 1.387 . S
C321 C323 1.387 . S
H322 C329 0.950 . S
C323 C321 1.387 . S
C323 C325 1.390 . S
C323 H327 0.950 . S
H324 C320 0.950 . S
C325 C323 1.390 . S
C325 C326 1.387 . S
C325 H328 0.950 . S
C326 C325 1.387 . S
C326 C329 1.387 . S
H327 C323 0.950 . S
H328 C325 0.950 . S
C329 C320 1.390 . S
C329 H322 0.950 . S
C329 C326 1.387 . S
C330 C331 1.387 1_556 S
C330 H334 0.950 . S
C330 C339 1.390 . S
C331 C330 1.387 1_554 S
C331 C333 1.387 . S
H332 C339 0.950 . S
C333 C331 1.387 . S
C333 C335 1.390 . S
C333 H337 0.950 . S
H334 C330 0.950 . S
C335 C333 1.390 . S
C335 C336 1.387 . S
C335 H338 0.950 . S
C336 C335 1.387 . S
C336 C339 1.387 1_554 S
H337 C333 0.950 . S
H338 C335 0.950 . S
C339 C330 1.390 . S
C339 H332 0.950 . S
C339 C336 1.387 1_556 S
C340 C341 1.387 . S
C340 H344 0.950 . S
C340 C349 1.390 . S
C341 C340 1.387 . S
C341 C343 1.387 . S
H342 C349 0.950 . S
C343 C341 1.387 . S
C343 C345 1.390 . S
C343 H347 0.950 . S
H344 C340 0.950 . S
C345 C343 1.390 . S
C345 C346 1.387 . S
C345 H348 0.950 . S
C346 C345 1.387 . S
C346 C349 1.387 . S
H347 C343 0.950 . S
H348 C345 0.950 . S
C349 C340 1.390 . S
C349 H342 0.950 . S
C349 C346 1.387 . S
C350 C351 1.387 . S
C350 H354 0.950 . S
C350 C359 1.390 . S
C351 C350 1.387 . S
C351 C353 1.387 . S
H352 C359 0.950 . S
C353 C351 1.387 . S
C353 C355 1.390 . S
C353 H357 0.950 . S
H354 C350 0.950 . S
C355 C353 1.390 . S
C355 C356 1.387 . S
C355 H358 0.950 . S
C356 C355 1.387 . S
C356 C359 1.387 . S
H357 C353 0.950 . S
H358 C355 0.950 . S
C359 C350 1.390 . S
C359 H352 0.950 . S
C359 C356 1.387 . S
C360 C361 1.387 . S
C360 H364 0.950 . S
C360 C369 1.390 . S
C361 C360 1.387 . S
C361 C363 1.387 . S
H362 C369 0.950 . S
C363 C361 1.387 . S
C363 C365 1.390 . S
C363 H367 0.950 . S
H364 C360 0.950 . S
C365 C363 1.390 . S
C365 C366 1.387 . S
C365 H368 0.950 . S
C366 C365 1.387 . S
C366 C369 1.387 . S
H367 C363 0.950 . S
H368 C365 0.950 . S
C369 C360 1.390 . S
C369 H362 0.950 . S
C369 C366 1.387 . S
C370 C371 1.387 . S
C370 H374 0.950 . S
C370 C379 1.390 . S
C371 C370 1.387 . S
C371 C373 1.387 . S
H372 C379 0.950 . S
C373 C371 1.387 . S
C373 C375 1.390 . S
C373 H377 0.950 . S
H374 C370 0.950 . S
C375 C373 1.390 . S
C375 C376 1.387 . S
C375 H378 0.950 . S
C376 C375 1.387 . S
C376 C379 1.387 . S
H377 C373 0.950 . S
H378 C375 0.950 . S
C379 C370 1.390 . S
C379 H372 0.950 . S
C379 C376 1.387 . S
C380 C381 1.387 . S
C380 H384 0.950 . S
C380 C389 1.390 . S
C381 C380 1.387 . S
C381 C383 1.387 . S
H382 C389 0.950 . S
C383 C381 1.387 . S
C383 C385 1.390 . S
C383 H387 0.950 1_655 S
H384 C380 0.950 . S
C385 C383 1.390 . S
C385 C386 1.387 . S
C385 H388 0.950 . S
C386 C385 1.387 . S
C386 C389 1.387 . S
H387 C383 0.950 1_455 S
H388 C385 0.950 . S
C389 C380 1.390 . S
C389 H382 0.950 . S
C389 C386 1.387 . S
C390 C391 1.387 . S
C390 H394 0.950 . S
C390 C399 1.390 . S
C391 C390 1.387 . S
C391 C393 1.387 . S
H392 C399 0.950 . S
C393 C391 1.387 . S
C393 C395 1.390 . S
C393 H397 0.950 1_565 S
H394 C390 0.950 . S
C395 C393 1.390 . S
C395 C396 1.387 . S
C395 H398 0.950 . S
C396 C395 1.387 . S
C396 C399 1.387 . S
H397 C393 0.950 1_545 S
H398 C395 0.950 . S
C399 C390 1.390 . S
C399 H392 0.950 . S
C399 C396 1.387 . S
C400 C401 1.387 . S
C400 H404 0.950 . S
C400 C409 1.390 . S
C401 C400 1.387 . S
C401 C403 1.387 . S
H402 C409 0.950 . S
C403 C401 1.387 . S
C403 C405 1.390 . S
C403 H407 0.950 1_455 S
H404 C400 0.950 . S
C405 C403 1.390 . S
C405 C406 1.387 . S
C405 H408 0.950 . S
C406 C405 1.387 . S
C406 C409 1.387 . S
H407 C403 0.950 1_655 S
H408 C405 0.950 . S
C409 C400 1.390 . S
C409 H402 0.950 . S
C409 C406 1.387 . S
C410 C411 1.387 . S
C410 H414 0.950 . S
C410 C419 1.390 . S
C411 C410 1.387 . S
C411 C413 1.387 . S
H412 C419 0.950 . S
C413 C411 1.387 . S
C413 C415 1.390 . S
C413 H417 0.950 . S
H414 C410 0.950 . S
C415 C413 1.390 . S
C415 C416 1.387 . S
C415 H418 0.950 . S
C416 C415 1.387 . S
C416 C419 1.387 . S
H417 C413 0.950 . S
H418 C415 0.950 . S
C419 C410 1.390 . S
C419 H412 0.950 . S
C419 C416 1.387 . S
C241 C129 1.267 1_455 S
C246 C9 1.267 . S
C251 C169 1.267 1_545 S
C256 C49 1.267 . S
C261 C209 1.261 . S
C266 C89 1.261 . S
C271 C15 1.174 . S
C276 C86 1.287 . S
C281 C55 1.180 . S
C286 C126 1.290 . S
C291 C95 1.178 . S
C296 C166 1.289 . S
C301 C135 1.181 . S
C306 C206 1.294 . S
C311 C175 1.180 . S
C316 C6 1.290 . S
C321 C215 1.179 . S
C326 C46 1.289 . S
C331 C18 1.651 . S
C336 C138 1.651 1_545 S
C341 C58 1.651 . S
C346 C178 1.651 . S
C351 C98 1.651 1_455 S
C356 C218 1.651 . S
C361 C10 4.232 . S
C366 C59 4.292 . S
C371 C50 4.232 . S
C376 C99 4.292 . S
C381 C90 4.233 . S
C386 C139 4.292 . S
C391 C130 4.233 . S
C396 C179 4.292 . S
C401 C170 4.233 1_455 S
C406 C219 4.292 . S
C411 C210 4.232 1_545 S
C416 C19 4.292 . S
