# Generated by pormake.
# Topology crr, (4)-cn, num edge types: 1
# Building blocks:
#     Node 0, Type 0, BuildingBlock: ESEHIV_clean_sbu_0, # of connection points: 4
#     Node 1, Type 0, BuildingBlock: ESEHIV_clean_sbu_0, # of connection points: 4
#     Node 2, Type 0, BuildingBlock: ESEHIV_clean_sbu_0, # of connection points: 4
#     Node 3, Type 0, BuildingBlock: ESEHIV_clean_sbu_0, # of connection points: 4
#     Node 4, Type 0, BuildingBlock: ESEHIV_clean_sbu_0, # of connection points: 4
#     Node 5, Type 0, BuildingBlock: ESEHIV_clean_sbu_0, # of connection points: 4
#     Node 6, Type 0, BuildingBlock: ESEHIV_clean_sbu_0, # of connection points: 4
#     Node 7, Type 0, BuildingBlock: ESEHIV_clean_sbu_0, # of connection points: 4
#     Node 8, Type 0, BuildingBlock: ESEHIV_clean_sbu_0, # of connection points: 4
#     Node 9, Type 0, BuildingBlock: ESEHIV_clean_sbu_0, # of connection points: 4
#     Node 10, Type 0, BuildingBlock: ESEHIV_clean_sbu_0, # of connection points: 4
#     Node 11, Type 0, BuildingBlock: ESEHIV_clean_sbu_0, # of connection points: 4
#     Edge 12, Type (0, 0), BuildingBlock: UVAHIK_clean_linker_0, # of connection points: 2
#     Edge 13, Type (0, 0), BuildingBlock: UVAHIK_clean_linker_0, # of connection points: 2
#     Edge 14, Type (0, 0), BuildingBlock: UVAHIK_clean_linker_0, # of connection points: 2
#     Edge 15, Type (0, 0), BuildingBlock: UVAHIK_clean_linker_0, # of connection points: 2
#     Edge 16, Type (0, 0), BuildingBlock: UVAHIK_clean_linker_0, # of connection points: 2
#     Edge 17, Type (0, 0), BuildingBlock: UVAHIK_clean_linker_0, # of connection points: 2
#     Edge 18, Type (0, 0), BuildingBlock: UVAHIK_clean_linker_0, # of connection points: 2
#     Edge 19, Type (0, 0), BuildingBlock: UVAHIK_clean_linker_0, # of connection points: 2
#     Edge 20, Type (0, 0), BuildingBlock: UVAHIK_clean_linker_0, # of connection points: 2
#     Edge 21, Type (0, 0), BuildingBlock: UVAHIK_clean_linker_0, # of connection points: 2
#     Edge 22, Type (0, 0), BuildingBlock: UVAHIK_clean_linker_0, # of connection points: 2
#     Edge 23, Type (0, 0), BuildingBlock: UVAHIK_clean_linker_0, # of connection points: 2
#     Edge 24, Type (0, 0), BuildingBlock: UVAHIK_clean_linker_0, # of connection points: 2
#     Edge 25, Type (0, 0), BuildingBlock: UVAHIK_clean_linker_0, # of connection points: 2
#     Edge 26, Type (0, 0), BuildingBlock: UVAHIK_clean_linker_0, # of connection points: 2
#     Edge 27, Type (0, 0), BuildingBlock: UVAHIK_clean_linker_0, # of connection points: 2
#     Edge 28, Type (0, 0), BuildingBlock: UVAHIK_clean_linker_0, # of connection points: 2
#     Edge 29, Type (0, 0), BuildingBlock: UVAHIK_clean_linker_0, # of connection points: 2
#     Edge 30, Type (0, 0), BuildingBlock: UVAHIK_clean_linker_0, # of connection points: 2
#     Edge 31, Type (0, 0), BuildingBlock: UVAHIK_clean_linker_0, # of connection points: 2
#     Edge 32, Type (0, 0), BuildingBlock: UVAHIK_clean_linker_0, # of connection points: 2
#     Edge 33, Type (0, 0), BuildingBlock: UVAHIK_clean_linker_0, # of connection points: 2
#     Edge 34, Type (0, 0), BuildingBlock: UVAHIK_clean_linker_0, # of connection points: 2
#     Edge 35, Type (0, 0), BuildingBlock: UVAHIK_clean_linker_0, # of connection points: 2
# Relax obj value: 0.027
# Max RMSD: 0.136
# Mean RMSD: 0.118
data_MOF--net-crr--node1-ESEHIV_clean_sbu_0--edge1-UVAHIK_clean_linker_0
_symmetry_space_group_name_H-M    P1
_symmetry_Int_Tables_number       1
_symmetry_cell_setting            triclinic
loop_
_symmetry_equiv_pos_as_xyz
'x, y, z'
_cell_length_a     54.737409
_cell_length_b     59.213256
_cell_length_c     55.123181
_cell_angle_alpha  91.330057
_cell_angle_beta   87.131056
_cell_angle_gamma 87.976239
loop_
_atom_site_label
_atom_site_type_symbol
_atom_site_fract_x
_atom_site_fract_y
_atom_site_fract_z
_atom_type_partial_charge
Cu0 Cu 0.15759 0.39717 0.39601 0.0
N1 N 0.15221 0.42868 0.39639 0.0
N2 N 0.13236 0.46234 0.39436 0.0
C3 C 0.13044 0.43961 0.39405 0.0
C4 C 0.15637 0.46571 0.39721 0.0
C5 C 0.16852 0.44495 0.39847 0.0
O6 O 0.1308 0.38427 0.41521 0.0
C7 C 0.15873 0.39725 0.34384 0.0
O8 O 0.14718 0.41704 0.34622 0.0
H9 H 0.11367 0.43092 0.39149 0.0
H10 H 0.18789 0.44193 0.4006 0.0
N11 N 0.18683 0.38833 0.40997 0.0
N12 N 0.21956 0.3659 0.41623 0.0
C13 C 0.20172 0.37115 0.4011 0.0
C14 C 0.19573 0.39433 0.43144 0.0
C15 C 0.21587 0.38039 0.43541 0.0
C16 C 0.12656 0.39331 0.4363 0.0
O17 O 0.13983 0.41027 0.44279 0.0
H18 H 0.19869 0.3618 0.38447 0.0
H19 H 0.18768 0.40731 0.44375 0.0
O20 O 0.16208 0.38561 0.36261 0.0
H21 H 0.16467 0.48198 0.39842 0.0
H22 H 0.22666 0.3806 0.45134 0.0
Cu23 Cu 0.34239 0.89438 0.64378 0.0
N24 N 0.30868 0.88988 0.6472 0.0
N25 N 0.27414 0.87067 0.64743 0.0
C26 C 0.29871 0.86973 0.64339 0.0
C27 C 0.2685 0.89242 0.65412 0.0
C28 C 0.28984 0.90422 0.65398 0.0
O29 O 0.35743 0.86947 0.66121 0.0
C30 C 0.33784 0.911 0.59822 0.0
O31 O 0.3187 0.92047 0.61023 0.0
H32 H 0.30951 0.85455 0.63828 0.0
H33 H 0.29144 0.92197 0.65839 0.0
N34 N 0.35238 0.92116 0.65831 0.0
N35 N 0.37932 0.94683 0.6684 0.0
C36 C 0.37477 0.92918 0.65364 0.0
C37 C 0.34219 0.9344 0.67657 0.0
C38 C 0.35889 0.95021 0.68295 0.0
C39 C 0.35071 0.87036 0.68374 0.0
O40 O 0.3357 0.88701 0.69163 0.0
H41 H 0.38801 0.92135 0.64049 0.0
H42 H 0.32439 0.93211 0.6854 0.0
O43 O 0.35163 0.8972 0.60923 0.0
H44 H 0.25028 0.89944 0.65862 0.0
H45 H 0.35642 0.96285 0.69745 0.0
Cu46 Cu 0.9009 0.65915 0.35689 0.0
N47 N 0.86905 0.64879 0.3556 0.0
N48 N 0.83296 0.63997 0.34137 0.0
C49 C 0.8538 0.65111 0.33727 0.0
C50 C 0.83523 0.6301 0.36299 0.0
C51 C 0.85749 0.63564 0.37176 0.0
O52 O 0.91135 0.67186 0.32595 0.0
C53 C 0.9462 0.63648 0.36081 0.0
O54 O 0.9538 0.65693 0.35681 0.0
H55 H 0.8582 0.66022 0.32091 0.0
H56 H 0.865 0.63008 0.38849 0.0
N57 N 0.9045 0.67929 0.38299 0.0
N58 N 0.91414 0.69095 0.42013 0.0
C59 C 0.90693 0.6735 0.40628 0.0
C60 C 0.91045 0.70112 0.38206 0.0
C61 C 0.91616 0.7084 0.40492 0.0
C62 C 0.9074 0.68903 0.3129 0.0
O63 O 0.92029 0.6898 0.29218 0.0
H64 H 0.9053 0.65636 0.41243 0.0
H65 H 0.9122 0.71069 0.36567 0.0
O66 O 0.92326 0.63334 0.36161 0.0
H67 H 0.82177 0.61963 0.37178 0.0
H68 H 0.92237 0.72501 0.40966 0.0
Cu69 Cu 0.65166 0.09585 0.64637 0.0
N70 N 0.6854 0.09994 0.64474 0.0
N71 N 0.7193 0.1198 0.6405 0.0
C72 C 0.6951 0.12045 0.6465 0.0
C73 C 0.72516 0.09788 0.63488 0.0
C74 C 0.70416 0.08561 0.63762 0.0
O75 O 0.63761 0.12029 0.66769 0.0
C76 C 0.65313 0.09628 0.59447 0.0
O77 O 0.67407 0.10621 0.5961 0.0
H78 H 0.68419 0.13584 0.65034 0.0
H79 H 0.70243 0.06784 0.63334 0.0
N80 N 0.6425 0.06848 0.65964 0.0
N81 N 0.61663 0.04115 0.66838 0.0
C82 C 0.62073 0.05976 0.65545 0.0
C83 C 0.65283 0.05471 0.67566 0.0
C84 C 0.63668 0.03787 0.68132 0.0
C85 C 0.64416 0.1188 0.6895 0.0
O86 O 0.6583 0.10148 0.69496 0.0
H87 H 0.60763 0.06757 0.64385 0.0
H88 H 0.67043 0.0571 0.68325 0.0
O89 O 0.63963 0.09387 0.61366 0.0
H90 H 0.74308 0.09133 0.62844 0.0
H91 H 0.63934 0.02448 0.69406 0.0
Cu92 Cu 0.09681 0.64123 0.66023 0.0
N93 N 0.10876 0.63738 0.69121 0.0
N94 N 0.13597 0.63171 0.71966 0.0
C95 C 0.13217 0.63175 0.69563 0.0
C96 C 0.11404 0.63762 0.73076 0.0
C97 C 0.09736 0.64125 0.71318 0.0
O98 O 0.11712 0.66405 0.64527 0.0
C99 C 0.0873 0.59592 0.65518 0.0
O100 O 0.08383 0.5988 0.67881 0.0
H101 H 0.14616 0.62799 0.6814 0.0
H102 H 0.07848 0.64698 0.71626 0.0
N103 N 0.06428 0.65198 0.66087 0.0
N104 N 0.02965 0.66274 0.6438 0.0
C105 C 0.05434 0.66203 0.64186 0.0
C106 C 0.04521 0.64609 0.67545 0.0
C107 C 0.02381 0.65282 0.66502 0.0
C108 C 0.114 0.6835 0.65565 0.0
O109 O 0.09735 0.68604 0.67362 0.0
H110 H 0.06503 0.66666 0.6258 0.0
H111 H 0.04662 0.63588 0.69134 0.0
O112 O 0.09572 0.61217 0.64287 0.0
H113 H 0.11048 0.63997 0.75016 0.0
H114 H 1.00544 0.64943 0.67181 0.0
Cu115 Cu 0.67783 0.91694 0.35384 0.0
N116 N 0.71098 0.90793 0.34901 0.0
N117 N 0.74411 0.88458 0.34485 0.0
C118 C 0.71978 0.88646 0.35034 0.0
C119 C 0.75087 0.90577 0.3399 0.0
C120 C 0.73043 0.92012 0.34251 0.0
O121 O 0.66001 0.89336 0.33768 0.0
C122 C 0.68325 0.93695 0.39809 0.0
O123 O 0.70242 0.94355 0.38523 0.0
H124 H 0.70834 0.87238 0.35457 0.0
H125 H 0.72987 0.93814 0.3398 0.0
N126 N 0.66978 0.94477 0.34021 0.0
N127 N 0.64731 0.97649 0.33507 0.0
C128 C 0.64913 0.95682 0.34686 0.0
C129 C 0.68161 0.95721 0.32353 0.0
C130 C 0.66773 0.97677 0.32026 0.0
C131 C 0.66161 0.89377 0.31452 0.0
O132 O 0.6733 0.91024 0.30411 0.0
H133 H 0.63556 0.95099 0.35999 0.0
H134 H 0.69893 0.95239 0.31426 0.0
O135 O 0.6696 0.92261 0.3884 0.0
H136 H 0.76928 0.9106 0.33483 0.0
H137 H 0.67248 0.99019 0.3081 0.0
Cu138 Cu 0.89083 0.37028 0.62144 0.0
N139 N 0.8698 0.353 0.60352 0.0
N140 N 0.84568 0.32433 0.59557 0.0
C141 C 0.85678 0.33609 0.61285 0.0
C142 C 0.85186 0.33432 0.57447 0.0
C143 C 0.86667 0.35213 0.57946 0.0
O144 O 0.87584 0.37341 0.65426 0.0
C145 C 0.93022 0.34026 0.60442 0.0
O146 O 0.91335 0.32769 0.59554 0.0
H147 H 0.8566 0.33173 0.63183 0.0
H148 H 0.87543 0.36299 0.5664 0.0
N149 N 0.8956 0.39898 0.60889 0.0
N150 N 0.91593 0.43024 0.60044 0.0
C151 C 0.917 0.40943 0.60987 0.0
C152 C 0.88035 0.41364 0.5983 0.0
C153 C 0.89283 0.43305 0.59321 0.0
C154 C 0.85433 0.3825 0.65589 0.0
O155 O 0.84478 0.38986 0.63602 0.0
H156 H 0.93292 0.40209 0.61801 0.0
H157 H 0.8615 0.41054 0.5947 0.0
O158 O 0.92377 0.35647 0.61925 0.0
H159 H 0.84649 0.32887 0.5567 0.0
H160 H 0.88551 0.44801 0.58481 0.0
Cu161 Cu 0.37552 0.11696 0.36665 0.0
N162 N 0.36811 0.11634 0.33381 0.0
N163 N 0.35914 0.1277 0.29673 0.0
C164 C 0.3602 0.13367 0.32046 0.0
C165 C 0.36638 0.10565 0.2952 0.0
C166 C 0.37181 0.0987 0.31809 0.0
O167 O 0.36426 0.14614 0.3812 0.0
C168 C 0.42633 0.1146 0.35227 0.0
O169 O 0.41943 0.12565 0.33324 0.0
H170 H 0.35625 0.15057 0.32778 0.0
H171 H 0.37872 0.08213 0.32285 0.0
N172 N 0.35891 0.09386 0.3822 0.0
N173 N 0.35047 0.06429 0.40549 0.0
C174 C 0.36711 0.0798 0.39918 0.0
C175 C 0.33645 0.08705 0.37751 0.0
C176 C 0.33118 0.06889 0.39178 0.0
C177 C 0.37238 0.16471 0.37353 0.0
O178 O 0.39044 0.16418 0.35689 0.0
H179 H 0.38493 0.08099 0.40666 0.0
H180 H 0.32489 0.09454 0.36428 0.0
O181 O 0.41047 0.11049 0.36916 0.0
H182 H 0.36799 0.09534 0.27869 0.0
H183 H 0.31458 0.05952 0.39154 0.0
Cu184 Cu 0.34007 0.35137 0.08615 0.0
N185 N 0.33491 0.32044 0.08846 0.0
N186 N 0.33325 0.28698 0.10643 0.0
C187 C 0.33694 0.30927 0.10929 0.0
C188 C 0.3286 0.28399 0.08276 0.0
C189 C 0.32978 0.30467 0.07167 0.0
O190 O 0.32998 0.36422 0.11821 0.0
C191 C 0.37926 0.35001 0.05304 0.0
O192 O 0.36215 0.34107 0.04041 0.0
H193 H 0.34104 0.31748 0.12628 0.0
H194 H 0.32754 0.30781 0.05266 0.0
N195 N 0.32095 0.3661 0.06367 0.0
N196 N 0.30597 0.39532 0.04343 0.0
C197 C 0.32016 0.38867 0.06143 0.0
C198 C 0.30663 0.35807 0.04652 0.0
C199 C 0.29746 0.37612 0.03387 0.0
C200 C 0.30685 0.3662 0.12242 0.0
O201 O 0.29236 0.36041 0.10522 0.0
H202 H 0.33041 0.39995 0.07246 0.0
H203 H 0.30326 0.34043 0.04324 0.0
O204 O 0.37412 0.35563 0.07525 0.0
H205 H 0.32525 0.26795 0.07394 0.0
H206 H 0.28546 0.37519 0.01888 0.0
Cu207 Cu 0.36216 0.65169 0.9065 0.0
N208 N 0.35942 0.68247 0.89979 0.0
N209 N 0.35952 0.71361 0.87744 0.0
C210 C 0.36086 0.69077 0.87724 0.0
C211 C 0.3571 0.71984 0.90123 0.0
C212 C 0.35709 0.70062 0.91494 0.0
O213 O 0.35271 0.63578 0.87712 0.0
C214 C 0.3977 0.65175 0.93984 0.0
O215 O 0.37961 0.66334 0.95135 0.0
H216 H 0.36279 0.68011 0.86101 0.0
H217 H 0.35585 0.7 0.93454 0.0
N218 N 0.3399 0.64264 0.93098 0.0
N219 N 0.3199 0.61823 0.95424 0.0
C220 C 0.33611 0.62078 0.93537 0.0
C221 C 0.32546 0.6545 0.94759 0.0
C222 C 0.3132 0.6394 0.96214 0.0
C223 C 0.32995 0.63887 0.8737 0.0
O224 O 0.31656 0.65199 0.88907 0.0
H225 H 0.3456 0.60698 0.9252 0.0
H226 H 0.32416 0.67273 0.94921 0.0
O227 O 0.39488 0.64478 0.91809 0.0
H228 H 0.35593 0.73704 0.90836 0.0
H229 H 0.30037 0.64365 0.97728 0.0
Cu230 Cu 0.64341 0.64797 0.11941 0.0
N231 N 0.66741 0.63129 0.10072 0.0
N232 N 0.6846 0.60225 0.07863 0.0
C233 C 0.66374 0.61147 0.08933 0.0
C234 C 0.70212 0.61697 0.08351 0.0
C235 C 0.69143 0.63492 0.09714 0.0
O236 O 0.61215 0.64453 0.10423 0.0
C237 C 0.65647 0.62162 0.16019 0.0
O238 O 0.66349 0.60548 0.14437 0.0
H239 H 0.64621 0.60357 0.08981 0.0
H240 H 0.70057 0.64931 0.10435 0.0
N241 N 0.65031 0.67856 0.1211 0.0
N242 N 0.6537 0.71279 0.1384 0.0
C243 C 0.64652 0.69144 0.14147 0.0
C244 C 0.66023 0.69217 0.10438 0.0
C245 C 0.66226 0.71338 0.115 0.0
C246 C 0.6122 0.6479 0.08144 0.0
O247 O 0.63265 0.6538 0.07021 0.0
H248 H 0.63848 0.68518 0.15822 0.0
H249 H 0.66588 0.68699 0.08595 0.0
O250 O 0.64456 0.63892 0.15311 0.0
H251 H 0.72129 0.61488 0.07781 0.0
H252 H 0.66996 0.72791 0.10632 0.0
Cu253 Cu 0.65883 0.35179 0.90282 0.0
N254 N 0.67729 0.36188 0.9283 0.0
N255 N 0.68952 0.38627 0.95636 0.0
C256 C 0.67442 0.38283 0.93815 0.0
C257 C 0.70266 0.36666 0.95791 0.0
C258 C 0.69497 0.35156 0.94059 0.0
O259 O 0.6248 0.36122 0.9115 0.0
C260 C 0.69615 0.35645 0.86927 0.0
O261 O 0.70546 0.34263 0.88498 0.0
H262 H 0.66148 0.39536 0.93187 0.0
H263 H 0.70172 0.33432 0.93726 0.0
N264 N 0.65958 0.32041 0.89857 0.0
N265 N 0.65573 0.28719 0.87913 0.0
C266 C 0.65638 0.30987 0.87715 0.0
C267 C 0.66109 0.30397 0.91487 0.0
C268 C 0.65878 0.28344 0.90293 0.0
C269 C 0.61775 0.35651 0.93318 0.0
O270 O 0.63327 0.34597 0.94683 0.0
H271 H 0.65444 0.31888 0.86048 0.0
H272 H 0.66314 0.30672 0.93411 0.0
O273 O 0.67399 0.36363 0.87311 0.0
H274 H 0.71646 0.36333 0.97089 0.0
H275 H 0.65871 0.26713 0.91137 0.0
C276 C 0.24792 0.34138 0.39025 0.0
C277 C 0.23713 0.34718 0.41328 0.0
C278 C 0.26392 0.32247 0.38698 0.0
C279 C 0.2999 0.27936 0.42108 0.0
H280 H 0.30057 0.24662 0.3593 0.0
C281 C 0.34336 0.18854 0.40125 0.0
C282 C 0.35923 0.18646 0.38037 0.0
C283 C 0.32964 0.20868 0.40648 0.0
C284 C 0.30065 0.25567 0.3766 0.0
H285 H 0.23453 0.33775 0.45096 0.0
H286 H 0.26154 0.30418 0.44525 0.0
H287 H 0.27411 0.28027 0.36601 0.0
H288 H 0.37321 0.20399 0.34874 0.0
H289 H 0.34879 0.23879 0.35758 0.0
H290 H 0.32581 0.25381 0.4318 0.0
C291 C 0.25845 0.31457 0.42973 0.0
C292 C 0.28561 0.27514 0.38046 0.0
C293 C 0.24285 0.3338 0.43306 0.0
C294 C 0.36129 0.20504 0.36505 0.0
C295 C 0.34721 0.22494 0.37 0.0
C296 C 0.31459 0.25956 0.41736 0.0
C297 C 0.26913 0.30848 0.40657 0.0
C298 C 0.28512 0.28747 0.40268 0.0
C299 C 0.33111 0.22692 0.39065 0.0
C300 C 0.31525 0.24765 0.39501 0.0
H301 H 0.24402 0.35157 0.37476 0.0
H302 H 0.27219 0.31891 0.36899 0.0
H303 H 0.30048 0.28843 0.4383 0.0
H304 H 0.34135 0.17453 0.41339 0.0
H305 H 0.31728 0.20975 0.42247 0.0
C306 C 0.26463 0.83246 0.63177 0.0
C307 C 0.25772 0.85212 0.6457 0.0
C308 C 0.2492 0.81414 0.63089 0.0
C309 C 0.19729 0.78928 0.66531 0.0
H310 H 0.19063 0.75363 0.60621 0.0
C311 C 0.12303 0.7243 0.65955 0.0
C312 C 0.12975 0.70271 0.64973 0.0
C313 C 0.13873 0.74221 0.65702 0.0
C314 C 0.1925 0.7633 0.62289 0.0
H315 H 0.22872 0.8678 0.66928 0.0
H316 H 0.20165 0.83622 0.66725 0.0
H317 H 0.21755 0.7858 0.6058 0.0
H318 H 0.15789 0.6833 0.62849 0.0
H319 H 0.18559 0.71489 0.624 0.0
H320 H 0.1722 0.767 0.68237 0.0
C321 C 0.21925 0.83479 0.65734 0.0
C322 C 0.20793 0.78174 0.62269 0.0
C323 C 0.2347 0.85309 0.65828 0.0
C324 C 0.15218 0.69973 0.63625 0.0
C325 C 0.16801 0.71781 0.63369 0.0
C326 C 0.18186 0.771 0.66547 0.0
C327 C 0.2264 0.81496 0.64386 0.0
C328 C 0.21034 0.79509 0.64388 0.0
C329 C 0.16168 0.7391 0.64462 0.0
C330 C 0.17905 0.75791 0.64424 0.0
H331 H 0.282 0.83114 0.6215 0.0
H332 H 0.25541 0.79913 0.62044 0.0
H333 H 0.19914 0.79875 0.68212 0.0
H334 H 0.10575 0.72732 0.66978 0.0
H335 H 0.13301 0.7585 0.66514 0.0
C336 C 0.78004 0.86226 0.32719 0.0
C337 C 0.75939 0.86412 0.34342 0.0
C338 C 0.79452 0.84229 0.32529 0.0
C339 C 0.81193 0.79078 0.35748 0.0
H340 H 0.83263 0.76853 0.29276 0.0
C341 C 0.87123 0.70719 0.33825 0.0
C342 C 0.88945 0.70805 0.31941 0.0
C343 C 0.85393 0.72518 0.34248 0.0
C344 C 0.82725 0.77458 0.311 0.0
H345 H 0.73816 0.84654 0.37083 0.0
H346 H 0.76358 0.8116 0.36754 0.0
H347 H 0.80559 0.80195 0.2977 0.0
H348 H 0.90418 0.72926 0.29094 0.0
H349 H 0.87481 0.76025 0.29852 0.0
H350 H 0.83413 0.76357 0.37074 0.0
C351 C 0.76847 0.82564 0.35625 0.0
C352 C 0.81169 0.79376 0.31381 0.0
C353 C 0.75379 0.84558 0.35797 0.0
C354 C 0.89028 0.72763 0.30542 0.0
C355 C 0.87323 0.74549 0.30965 0.0
C356 C 0.82772 0.77158 0.35467 0.0
C357 C 0.78887 0.8237 0.3397 0.0
C358 C 0.80416 0.80236 0.33705 0.0
C359 C 0.85453 0.74443 0.32794 0.0
C360 C 0.83597 0.76351 0.33136 0.0
H361 H 0.78478 0.87609 0.31558 0.0
H362 H 0.81026 0.84145 0.31255 0.0
H363 H 0.80648 0.79702 0.37564 0.0
H364 H 0.87019 0.69273 0.34969 0.0
H365 H 0.83984 0.7238 0.35681 0.0
C366 C 0.83402 0.28629 0.58165 0.0
C367 C 0.83216 0.30408 0.59907 0.0
C368 C 0.82219 0.26605 0.58592 0.0
C369 C 0.77116 0.24191 0.62136 0.0
H370 H 0.80757 0.18484 0.61112 0.0
C371 C 0.72987 0.15858 0.65234 0.0
C372 C 0.73433 0.13918 0.63741 0.0
C373 C 0.74266 0.17824 0.64802 0.0
C374 C 0.79698 0.20057 0.61377 0.0
H375 H 0.81589 0.31484 0.63423 0.0
H376 H 0.7949 0.27968 0.64154 0.0
H377 H 0.82736 0.22016 0.60184 0.0
H378 H 0.75605 0.12509 0.60643 0.0
H379 H 0.7781 0.15948 0.59849 0.0
H380 H 0.74063 0.22256 0.63276 0.0
C381 C 0.80564 0.28131 0.62467 0.0
C382 C 0.80838 0.22083 0.60848 0.0
C383 C 0.81776 0.30138 0.62056 0.0
C384 C 0.7524 0.13968 0.61843 0.0
C385 C 0.76505 0.15945 0.6139 0.0
C386 C 0.75968 0.22169 0.62638 0.0
C387 C 0.80792 0.26332 0.60752 0.0
C388 C 0.79563 0.24173 0.61237 0.0
C389 C 0.76009 0.17914 0.62843 0.0
C390 C 0.77245 0.20069 0.62284 0.0
H391 H 0.84518 0.28781 0.56503 0.0
H392 H 0.82414 0.25255 0.57229 0.0
H393 H 0.76076 0.25773 0.62424 0.0
H394 H 0.71629 0.1586 0.66732 0.0
H395 H 0.73875 0.19278 0.66004 0.0
C396 C 0.32122 0.25037 0.12359 0.0
C397 C 0.33477 0.27006 0.12482 0.0
C398 C 0.3223 0.23436 0.14189 0.0
C399 C 0.3395 0.22816 0.20591 0.0
H400 H 0.34034 0.16401 0.1901 0.0
C401 C 0.33842 0.16181 0.28101 0.0
C402 C 0.35374 0.14239 0.27698 0.0
C403 C 0.33422 0.1767 0.26219 0.0
C404 C 0.34027 0.18186 0.19484 0.0
H405 H 0.36082 0.28786 0.14585 0.0
H406 H 0.36292 0.26004 0.17742 0.0
H407 H 0.33747 0.19124 0.15775 0.0
H408 H 0.37658 0.12342 0.24983 0.0
H409 H 0.36954 0.14941 0.21714 0.0
H410 H 0.34319 0.21889 0.24282 0.0
C411 C 0.35089 0.25717 0.16273 0.0
C412 C 0.33831 0.1975 0.17629 0.0
C413 C 0.34972 0.27316 0.14456 0.0
C414 C 0.36441 0.13802 0.25353 0.0
C415 C 0.36033 0.15296 0.23473 0.0
C416 C 0.34154 0.21256 0.22441 0.0
C417 C 0.33705 0.23763 0.16179 0.0
C418 C 0.33812 0.22087 0.18155 0.0
C419 C 0.34536 0.17262 0.23884 0.0
C420 C 0.34212 0.18919 0.21914 0.0
H421 H 0.30937 0.24756 0.10876 0.0
H422 H 0.31119 0.21964 0.14066 0.0
H423 H 0.33902 0.24601 0.21075 0.0
H424 H 0.3296 0.16551 0.29874 0.0
H425 H 0.32221 0.19141 0.26595 0.0
C426 C 0.32528 0.63175 0.82916 0.0
C427 C 0.31764 0.62829 0.85342 0.0
C428 C 0.30961 0.62701 0.8104 0.0
C429 C 0.25109 0.59941 0.79701 0.0
H430 H 0.24117 0.65014 0.75495 0.0
C431 C 0.15896 0.61928 0.75481 0.0
C432 C 0.15882 0.62752 0.73111 0.0
C433 C 0.18096 0.61596 0.7663 0.0
C434 C 0.24393 0.63562 0.76622 0.0
H435 H 0.28862 0.616 0.87714 0.0
H436 H 0.26166 0.60737 0.84478 0.0
H437 H 0.27632 0.64892 0.78045 0.0
H438 H 0.18189 0.63866 0.7009 0.0
H439 H 0.22034 0.63279 0.72095 0.0
H440 H 0.21815 0.58657 0.7835 0.0
C441 C 0.27957 0.6136 0.8399 0.0
C442 C 0.26418 0.63487 0.78079 0.0
C443 C 0.295 0.61858 0.85851 0.0
C444 C 0.18132 0.6321 0.71907 0.0
C445 C 0.20336 0.62892 0.73064 0.0
C446 C 0.23084 0.60019 0.7825 0.0
C447 C 0.28624 0.61851 0.81569 0.0
C448 C 0.2676 0.61709 0.79692 0.0
C449 C 0.20344 0.6209 0.75446 0.0
C450 C 0.22661 0.61863 0.76745 0.0
H451 H 0.3425 0.63959 0.82487 0.0
H452 H 0.31536 0.63083 0.79191 0.0
H453 H 0.25339 0.58527 0.8089 0.0
H454 H 0.14202 0.61538 0.76453 0.0
H455 H 0.18029 0.61004 0.78476 0.0
C456 C 0.65111 0.75355 0.14994 0.0
C457 C 0.65274 0.73081 0.1566 0.0
C458 C 0.64988 0.77094 0.16766 0.0
C459 C 0.63615 0.78267 0.23368 0.0
H460 H 0.67255 0.83647 0.22111 0.0
C461 C 0.6532 0.85268 0.30695 0.0
C462 C 0.65364 0.87502 0.2989 0.0
C463 C 0.65045 0.8347 0.29034 0.0
C464 C 0.66199 0.82171 0.22483 0.0
H465 H 0.65493 0.70862 0.18727 0.0
H466 H 0.65292 0.73884 0.21805 0.0
H467 H 0.67352 0.80615 0.19058 0.0
H468 H 0.64958 0.89619 0.26769 0.0
H469 H 0.64422 0.86514 0.23909 0.0
H470 H 0.62488 0.79832 0.26815 0.0
C471 C 0.65204 0.74327 0.19916 0.0
C472 C 0.66255 0.80429 0.20726 0.0
C473 C 0.65322 0.7259 0.18145 0.0
C474 C 0.64962 0.87913 0.2744 0.0
C475 C 0.64674 0.86131 0.25794 0.0
C476 C 0.63562 0.80015 0.25133 0.0
C477 C 0.65036 0.76602 0.19252 0.0
C478 C 0.64958 0.78456 0.21138 0.0
C479 C 0.64802 0.83881 0.26547 0.0
C480 C 0.64842 0.81995 0.24703 0.0
H481 H 0.65037 0.75793 0.13103 0.0
H482 H 0.64824 0.78825 0.16188 0.0
H483 H 0.62574 0.76782 0.23737 0.0
H484 H 0.65642 0.849 0.3257 0.0
H485 H 0.65151 0.81756 0.29674 0.0
C486 C 0.73641 0.35532 0.84599 0.0
C487 C 0.71166 0.36272 0.84776 0.0
C488 C 0.75147 0.36018 0.82579 0.0
C489 C 0.74999 0.37459 0.76131 0.0
H490 H 0.81814 0.38758 0.76945 0.0
C491 C 0.8156 0.3938 0.67977 0.0
C492 C 0.83911 0.3833 0.679 0.0
C493 C 0.80019 0.39336 0.70071 0.0
C494 C 0.79922 0.38379 0.76685 0.0
H495 H 0.68341 0.38132 0.8296 0.0
H496 H 0.70994 0.38999 0.79401 0.0
H497 H 0.79049 0.38401 0.80513 0.0
H498 H 0.86504 0.36454 0.69996 0.0
H499 H 0.83801 0.36369 0.73667 0.0
H500 H 0.7588 0.37416 0.72302 0.0
C501 C 0.71755 0.38022 0.80838 0.0
C502 C 0.78333 0.38178 0.7873 0.0
C503 C 0.70238 0.37538 0.8288 0.0
C504 C 0.84708 0.37283 0.69997 0.0
C505 C 0.8316 0.37242 0.72102 0.0
C506 C 0.76589 0.37665 0.74084 0.0
C507 C 0.74231 0.37262 0.80665 0.0
C508 C 0.75858 0.37684 0.78482 0.0
C509 C 0.80783 0.38243 0.72151 0.0
C510 C 0.79077 0.38103 0.74335 0.0
H511 H 0.74428 0.3455 0.86019 0.0
H512 H 0.77024 0.35367 0.82495 0.0
H513 H 0.73117 0.37047 0.7587 0.0
H514 H 0.80887 0.40217 0.66404 0.0
H515 H 0.78221 0.40159 0.70057 0.0
C516 C 0.36471 0.83059 0.69398 0.0
C517 C 0.35767 0.85291 0.70123 0.0
C518 C 0.36715 0.81381 0.71149 0.0
C519 C 0.3418 0.80156 0.77221 0.0
H520 H 0.39665 0.75922 0.77815 0.0
C521 C 0.35175 0.75074 0.85877 0.0
C522 C 0.36055 0.72814 0.85666 0.0
C523 C 0.35234 0.76468 0.83863 0.0
C524 C 0.38102 0.77071 0.77655 0.0
H525 H 0.34959 0.87544 0.73247 0.0
H526 H 0.35381 0.84652 0.76249 0.0
H527 H 0.39675 0.78538 0.74426 0.0
H528 H 0.3775 0.70284 0.83137 0.0
H529 H 0.37783 0.72694 0.79624 0.0
H530 H 0.32585 0.78712 0.80413 0.0
C531 C 0.35695 0.84176 0.74346 0.0
C532 C 0.38113 0.78567 0.75714 0.0
C533 C 0.35462 0.85835 0.72619 0.0
C534 C 0.37019 0.71999 0.83379 0.0
C535 C 0.37069 0.73394 0.81359 0.0
C536 C 0.34159 0.78659 0.79139 0.0
C537 C 0.36247 0.81919 0.73636 0.0
C538 C 0.36173 0.80158 0.75513 0.0
C539 C 0.3616 0.75644 0.8157 0.0
C540 C 0.36141 0.77128 0.79418 0.0
H541 H 0.36716 0.82591 0.67488 0.0
H542 H 0.37153 0.79652 0.70555 0.0
H543 H 0.32636 0.81335 0.77086 0.0
H544 H 0.34405 0.75769 0.8759 0.0
H545 H 0.34559 0.78203 0.84111 0.0
C546 C 0.67973 0.60337 0.19313 0.0
C547 C 0.66796 0.62266 0.184 0.0
C548 C 0.69459 0.60523 0.21301 0.0
C549 C 0.73571 0.64436 0.23851 0.0
H550 H 0.73383 0.60797 0.29604 0.0
C551 C 0.80507 0.65721 0.31263 0.0
C552 C 0.81289 0.63838 0.32555 0.0
C553 C 0.7857 0.65568 0.2971 0.0
C554 C 0.73495 0.61805 0.27992 0.0
H555 H 0.66173 0.65889 0.18942 0.0
H556 H 0.68805 0.6621 0.22367 0.0
H557 H 0.70248 0.60395 0.26636 0.0
H558 H 0.80687 0.60312 0.33221 0.0
H559 H 0.77397 0.59995 0.30426 0.0
H560 H 0.76869 0.65765 0.25094 0.0
C561 C 0.68561 0.64556 0.21552 0.0
C562 C 0.71681 0.61583 0.26304 0.0
C563 C 0.6704 0.64365 0.19599 0.0
C564 C 0.801 0.61795 0.32263 0.0
C565 C 0.78199 0.61624 0.30668 0.0
C566 C 0.75412 0.64624 0.25505 0.0
C567 C 0.69832 0.62647 0.22383 0.0
C568 C 0.71698 0.62904 0.24223 0.0
C569 C 0.77402 0.63508 0.29361 0.0
C570 C 0.75405 0.63317 0.27609 0.0
H571 H 0.67826 0.58698 0.18429 0.0
H572 H 0.70423 0.59026 0.21906 0.0
H573 H 0.73649 0.6545 0.22239 0.0
H574 H 0.81373 0.67324 0.31484 0.0
H575 H 0.77985 0.67077 0.28798 0.0
C576 C 0.64142 0.13152 0.73279 0.0
C577 C 0.63859 0.13674 0.70832 0.0
C578 C 0.64052 0.1485 0.75074 0.0
C579 C 0.62197 0.20723 0.76704 0.0
H580 H 0.67679 0.20256 0.80885 0.0
C581 C 0.6428 0.27741 0.83768 0.0
C582 C 0.65205 0.27072 0.85993 0.0
C583 C 0.63985 0.26161 0.81889 0.0
C584 C 0.66114 0.204 0.79764 0.0
H585 H 0.63109 0.16382 0.68369 0.0
H586 H 0.62939 0.19384 0.71544 0.0
H587 H 0.67283 0.17443 0.77665 0.0
H588 H 0.66501 0.2417 0.87962 0.0
H589 H 0.6591 0.21419 0.84733 0.0
H590 H 0.61007 0.23668 0.78836 0.0
C591 C 0.63236 0.17644 0.72054 0.0
C592 C 0.65894 0.1879 0.77908 0.0
C593 C 0.63327 0.1593 0.7024 0.0
C594 C 0.65778 0.24764 0.86293 0.0
C595 C 0.65465 0.23182 0.84419 0.0
C596 C 0.62405 0.22333 0.78583 0.0
C597 C 0.6368 0.17122 0.74477 0.0
C598 C 0.63923 0.18917 0.76371 0.0
C599 C 0.64588 0.2386 0.82181 0.0
C600 C 0.64359 0.2218 0.80152 0.0
H601 H 0.64518 0.11427 0.73804 0.0
H602 H 0.64342 0.14388 0.76931 0.0
H603 H 0.60654 0.20857 0.75553 0.0
H604 H 0.63774 0.29488 0.83461 0.0
H605 H 0.63325 0.26754 0.80189 0.0
C606 C 0.27319 0.38529 0.14767 0.0
C607 C 0.29556 0.3729 0.14649 0.0
C608 C 0.25947 0.38815 0.1696 0.0
C609 C 0.26047 0.38101 0.23662 0.0
H610 H 0.19034 0.37764 0.23063 0.0
C611 C 0.19205 0.37506 0.3199 0.0
C612 C 0.17213 0.3908 0.3205 0.0
C613 C 0.20714 0.37164 0.29877 0.0
C614 C 0.20987 0.37871 0.23259 0.0
H615 H 0.32166 0.35443 0.16741 0.0
H616 H 0.29735 0.35891 0.20593 0.0
H617 H 0.21756 0.37513 0.19434 0.0
H618 H 0.15184 0.4145 0.29905 0.0
H619 H 0.17782 0.40811 0.26204 0.0
H620 H 0.25251 0.38414 0.27509 0.0
C621 C 0.29059 0.36685 0.18996 0.0
C622 C 0.22554 0.37743 0.21177 0.0
C623 C 0.30459 0.36432 0.16795 0.0
C624 C 0.16698 0.40223 0.29918 0.0
C625 C 0.18187 0.39856 0.27798 0.0
C626 C 0.24475 0.38203 0.25752 0.0
C627 C 0.26746 0.37823 0.19089 0.0
C628 C 0.25105 0.37891 0.21341 0.0
C629 C 0.20242 0.38361 0.27769 0.0
C630 C 0.21926 0.38116 0.25569 0.0
H631 H 0.26589 0.3922 0.13138 0.0
H632 H 0.24221 0.39768 0.16967 0.0
H633 H 0.27994 0.38237 0.23865 0.0
H634 H 0.19664 0.36606 0.33603 0.0
H635 H 0.22269 0.35983 0.29901 0.0
C636 C 0.97142 0.35691 0.59725 0.0
C637 C 0.95486 0.34012 0.59181 0.0
C638 C 0.99198 0.36017 0.58179 0.0
C639 C 0.03017 0.33582 0.52888 0.0
H640 H 0.03924 0.39899 0.51526 0.0
C641 C 0.09299 0.36682 0.4483 0.0
C642 C 0.10739 0.3853 0.45372 0.0
C643 C 0.07503 0.35977 0.46532 0.0
C644 C 0.03716 0.38127 0.51899 0.0
H645 H 0.94815 0.31237 0.56689 0.0
H646 H 0.98384 0.31816 0.53995 0.0
H647 H 0.00847 0.38882 0.54594 0.0
H648 H 0.11437 0.41061 0.48145 0.0
H649 H 0.08352 0.39835 0.51075 0.0
H650 H 0.05886 0.32841 0.50155 0.0
C651 C 0.98098 0.32882 0.55614 0.0
C652 C 0.01956 0.37542 0.53672 0.0
C653 C 0.96044 0.32553 0.57162 0.0
C654 C 0.10356 0.39641 0.4765 0.0
C655 C 0.08572 0.38944 0.49335 0.0
C656 C 0.04785 0.3417 0.51105 0.0
C657 C 0.99648 0.34674 0.56052 0.0
C658 C 0.01591 0.35264 0.54205 0.0
C659 C 0.07109 0.37117 0.48797 0.0
C660 C 0.05165 0.36453 0.50603 0.0
H661 H 0.96785 0.36838 0.61272 0.0
H662 H 1.00388 0.37379 0.58606 0.0
H663 H 0.0279 0.31811 0.53257 0.0
H664 H 0.09553 0.35787 0.43095 0.0
H665 H 0.06395 0.34568 0.46058 0.0
C666 C 0.37574 0.03868 0.4303 0.0
C667 C 0.3527 0.0463 0.42276 0.0
C668 C 0.3777 0.021 0.44671 0.0
C669 C 0.34355 0.97279 0.47109 0.0
H670 H 0.38384 0.97842 0.52664 0.0
C671 C 0.32454 0.92577 0.5591 0.0
C672 C 0.34381 0.91876 0.57337 0.0
C673 C 0.32908 0.93753 0.53781 0.0
C674 C 0.37289 0.97631 0.51096 0.0
H675 H 0.31363 0.04139 0.42747 0.0
H676 H 0.3171 0.0107 0.45556 0.0
H677 H 0.38514 1.00709 0.49541 0.0
H678 H 0.38315 0.91783 0.57607 0.0
H679 H 0.39125 0.93858 0.53852 0.0
H680 H 0.33085 0.94237 0.4868 0.0
C681 C 0.33371 0.01812 0.44847 0.0
C682 C 0.37358 0.9928 0.4931 0.0
C683 C 0.33174 0.03582 0.43227 0.0
C684 C 0.36797 0.92279 0.56524 0.0
C685 C 0.37255 0.9349 0.54393 0.0
C686 C 0.34292 0.95631 0.48885 0.0
C687 C 0.35669 0.01039 0.45584 0.0
C688 C 0.35836 0.99158 0.47331 0.0
C689 C 0.35306 0.94285 0.53026 0.0
C690 C 0.35702 0.95819 0.5094 0.0
H691 H 0.39236 0.04609 0.42329 0.0
H692 H 0.39569 0.01539 0.45193 0.0
H693 H 0.33202 0.97104 0.4558 0.0
H694 H 0.30571 0.923 0.56498 0.0
H695 H 0.31357 0.94357 0.52802 0.0
C696 C 0.0201 0.68502 0.60791 0.0
C697 C 0.01356 0.66856 0.62477 0.0
C698 C 1.00597 0.68903 0.5879 0.0
C699 C 0.96399 0.66035 0.54861 0.0
H700 H 0.95229 0.72029 0.52381 0.0
C701 C 0.91202 0.67433 0.46101 0.0
C702 C 0.92174 0.6901 0.44482 0.0
C703 C 0.92038 0.67273 0.48453 0.0
C704 C 0.95555 0.70341 0.53038 0.0
H705 H 0.98661 0.6438 0.6341 0.0
H706 H 0.96183 0.65091 0.59928 0.0
H707 H 0.97191 0.71596 0.56229 0.0
H708 H 0.94802 0.71652 0.44084 0.0
H709 H 0.96265 0.71365 0.48152 0.0
H710 H 0.94832 0.64771 0.51644 0.0
C711 C 0.97801 0.66062 0.60149 0.0
C712 C 0.96676 0.70095 0.55247 0.0
C713 C 0.99206 0.65673 0.6216 0.0
C714 C 0.93976 0.70446 0.45288 0.0
C715 C 0.94818 0.70281 0.47631 0.0
C716 C 0.9529 0.66279 0.52646 0.0
C717 C 0.98501 0.67657 0.5842 0.0
C718 C 0.97138 0.67937 0.5617 0.0
C719 C 0.93875 0.68682 0.4924 0.0
C720 C 0.94883 0.68434 0.51688 0.0
H721 H 0.03644 0.69452 0.60996 0.0
H722 H 0.01199 0.70132 0.57485 0.0
H723 H 0.96759 0.64346 0.55504 0.0
H724 H 0.89791 0.66322 0.45549 0.0
H725 H 0.91244 0.66045 0.49654 0.0
C726 C 0.66513 0.08338 0.55182 0.0
C727 C 0.64845 0.08305 0.57202 0.0
C728 C 0.6637 0.06793 0.53243 0.0
C729 C 0.64059 0.01124 0.51843 0.0
H730 H 0.6643 0.02558 0.45336 0.0
C731 C 0.65196 0.94961 0.43153 0.0
C732 C 0.67598 0.94954 0.4211 0.0
C733 C 0.64464 0.96495 0.45063 0.0
C734 C 0.65747 0.02137 0.47142 0.0
H735 H 0.61624 0.06689 0.58694 0.0
H736 H 0.61337 0.04029 0.55275 0.0
H737 H 0.65717 0.05581 0.4839 0.0
H738 H 0.71146 0.96447 0.42368 0.0
H739 H 0.69861 0.9911 0.45638 0.0
H740 H 0.64109 0.97662 0.50554 0.0
C741 C 0.62793 0.05221 0.55217 0.0
C742 C 0.65354 0.03866 0.489 0.0
C743 C 0.62941 0.06767 0.57168 0.0
C744 C 0.69276 0.96417 0.43104 0.0
C745 C 0.68542 0.97952 0.44975 0.0
C746 C 0.64424 0.99392 0.50064 0.0
C747 C 0.64543 0.05177 0.53254 0.0
C748 C 0.64585 0.03379 0.51299 0.0
C749 C 0.66118 0.98052 0.45929 0.0
C750 C 0.65344 0.99879 0.4772 0.0
H751 H 0.68009 0.09488 0.55144 0.0
H752 H 0.67774 0.06802 0.51789 0.0
H753 H 0.63483 1.00675 0.53671 0.0
H754 H 0.63858 0.93863 0.42421 0.0
H755 H 0.62584 0.96538 0.45781 0.0
C756 C 0.45863 0.0908 0.3716 0.0
C757 C 0.45156 0.10455 0.3525 0.0
C758 C 0.48154 0.07941 0.37045 0.0
C759 C 0.52905 0.05709 0.32566 0.0
H760 H 0.56802 0.04937 0.38189 0.0
C761 C 0.62251 1.00804 0.31875 0.0
C762 C 0.62743 0.99326 0.33765 0.0
C763 C 0.6025 0.0235 0.3209 0.0
C764 C 0.55727 0.05119 0.36604 0.0
H765 H 0.46352 0.11778 0.31766 0.0
H766 H 0.50342 0.09806 0.31578 0.0
H767 H 0.53054 0.07307 0.38535 0.0
H768 H 0.61554 0.98395 0.37411 0.0
H769 H 0.58046 0.01029 0.37756 0.0
H770 H 0.55537 0.03489 0.30645 0.0
C771 C 0.49112 0.09582 0.33148 0.0
C772 C 0.53579 0.06481 0.36804 0.0
C773 C 0.46828 0.10725 0.33266 0.0
C774 C 0.61214 0.99474 0.35898 0.0
C775 C 0.59215 0.01013 0.36111 0.0
C776 C 0.55045 0.04342 0.32368 0.0
C777 C 0.49787 0.08145 0.35015 0.0
C778 C 0.52133 0.06782 0.34791 0.0
C779 C 0.58689 0.02459 0.34202 0.0
C780 C 0.56477 0.04013 0.34389 0.0
H781 H 0.4462 0.0883 0.38714 0.0
H782 H 0.48606 0.06835 0.38507 0.0
H783 H 0.51816 0.05873 0.30988 0.0
H784 H 0.63377 1.00736 0.30203 0.0
H785 H 0.59923 0.03457 0.30595 0.0
C786 C 0.07056 0.55739 0.65763 0.0
C787 C 0.07678 0.57593 0.64341 0.0
C788 C 0.05642 0.54029 0.64851 0.0
C789 C 0.03261 0.50155 0.62355 0.0
H790 H 0.97682 0.52127 0.58784 0.0
C791 C 0.95991 0.43857 0.5971 0.0
C792 C 0.93528 0.44621 0.59965 0.0
C793 C 0.97882 0.4538 0.59824 0.0
C794 C 0.99222 0.51546 0.5979 0.0
H795 H 0.07397 0.59043 0.60787 0.0
H796 H 0.04949 0.56021 0.59166 0.0
H797 H 0.00783 0.54813 0.59758 0.0
H798 H 0.91123 0.47591 0.60486 0.0
H799 H 0.94413 0.50249 0.60748 0.0
H800 H 0.01646 0.46929 0.62515 0.0
C801 C 0.05532 0.55913 0.6101 0.0
C802 C 0.01026 0.53082 0.60317 0.0
C803 C 0.06962 0.57631 0.61927 0.0
C804 C 0.93001 0.46953 0.60263 0.0
C805 C 0.94894 0.48477 0.60405 0.0
C806 C 0.01454 0.48626 0.61844 0.0
C807 C 0.04804 0.54116 0.62483 0.0
C808 C 0.03047 0.52419 0.6165 0.0
C809 C 0.97365 0.47709 0.60225 0.0
C810 C 0.99385 0.49305 0.60589 0.0
H811 H 0.07575 0.55655 0.67631 0.0
H812 H 0.05103 0.52697 0.66057 0.0
H813 H 0.04806 0.49569 0.63352 0.0
H814 H 0.96457 0.42075 0.59432 0.0
H815 H 0.99754 0.44722 0.59615 0.0
C816 C 0.58382 0.02179 0.69134 0.0
C817 C 0.59433 0.02895 0.6692 0.0
C818 C 0.56051 0.01264 0.69232 0.0
C819 C 0.50452 0.01106 0.65654 0.0
H820 H 0.48569 0.96414 0.7009 0.0
C821 C 0.41669 0.96111 0.64819 0.0
C822 C 0.40223 0.95796 0.66954 0.0
C823 C 0.43965 0.97055 0.64922 0.0
C824 C 0.49066 0.97741 0.6886 0.0
H825 H 0.58959 0.03087 0.63058 0.0
H826 H 0.54958 0.01413 0.63196 0.0
H827 H 0.52737 0.97774 0.70034 0.0
H828 H 0.40046 0.96224 0.70871 0.0
H829 H 0.44093 0.9786 0.71057 0.0
H830 H 0.46802 0.01022 0.64435 0.0
C831 C 0.55866 0.01636 0.64881 0.0
C832 C 0.51454 0.98525 0.68827 0.0
C833 C 0.5817 0.02578 0.64793 0.0
C834 C 0.41113 0.96468 0.69197 0.0
C835 C 0.43434 0.97382 0.69305 0.0
C836 C 0.48083 1.00303 0.65666 0.0
C837 C 0.54741 0.01022 0.67109 0.0
C838 C 0.52187 1.00205 0.67206 0.0
C839 C 0.44886 0.97678 0.67166 0.0
C840 C 0.47368 0.98603 0.67256 0.0
H841 H 0.59313 0.02426 0.70802 0.0
H842 H 0.55244 1.00828 0.70984 0.0
H843 H 0.50916 0.02446 0.64428 0.0
H844 H 0.41021 0.95617 0.63067 0.0
H845 H 0.45048 0.9725 0.63245 0.0
C846 C 0.95691 0.59586 0.37028 0.0
C847 C 0.96433 0.61761 0.36418 0.0
C848 C 0.97434 0.57832 0.37344 0.0
C849 C 0.03923 0.56129 0.35763 0.0
H850 H 0.03195 0.52081 0.41157 0.0
C851 C 0.11856 0.50112 0.38365 0.0
C852 C 0.11304 0.4793 0.39135 0.0
C853 C 0.09991 0.51738 0.3803 0.0
C854 C 0.03415 0.53176 0.39621 0.0
H855 H 0.99598 0.63788 0.35672 0.0
H856 H 0.0261 0.60753 0.36224 0.0
H857 H 1.00019 0.54985 0.4055 0.0
H858 H 0.08318 0.45785 0.40195 0.0
H859 H 0.05076 0.48597 0.39556 0.0
H860 H 0.07306 0.54326 0.34822 0.0
C861 C 1.00687 0.60388 0.36435 0.0
C862 C 0.0159 0.54844 0.39274 0.0
C863 C 0.98953 0.62136 0.36133 0.0
C864 C 0.08825 0.47431 0.39574 0.0
C865 C 0.06958 0.49059 0.39235 0.0
C866 C 0.05739 0.54459 0.36103 0.0
C867 C 0.99956 0.5821 0.3704 0.0
C868 C 0.01832 0.56358 0.37354 0.0
C869 C 0.07513 0.51234 0.38447 0.0
C870 C 0.05527 0.52971 0.3805 0.0
H871 H 0.93766 0.59236 0.37263 0.0
H872 H 0.96805 0.56172 0.37793 0.0
H873 H 0.04151 0.57235 0.34237 0.0
H874 H 0.1373 0.50566 0.37986 0.0
H875 H 0.10499 0.53402 0.37458 0.0
C876 C 0.29933 0.42272 0.01097 0.0
C877 C 0.302 0.41816 0.0356 0.0
C878 C 0.29755 0.44504 1.00323 0.0
C879 C 0.31269 0.50311 0.02259 0.0
H880 H 0.27435 0.52045 0.96831 0.0
C881 C 0.30808 0.59496 0.98935 0.0
C882 C 0.31261 0.59708 0.96421 0.0
C883 C 0.30344 0.57382 0.99912 0.0
C884 C 0.28516 0.51583 0.98348 0.0
H885 H 0.30349 0.43333 0.0716 0.0
H886 H 0.29983 0.47219 0.05829 0.0
H887 H 0.27226 0.48212 0.9835 0.0
H888 H 0.31447 0.57902 0.9295 0.0
H889 H 0.30635 0.5422 0.94647 0.0
H890 H 0.32564 0.5368 0.02248 0.0
C891 C 0.29989 0.45862 0.04477 0.0
C892 C 0.28406 0.49384 0.99213 0.0
C893 C 0.30192 0.43634 0.05244 0.0
C894 C 0.31135 0.57784 0.94897 0.0
C895 C 0.30646 0.55679 0.95868 0.0
C896 C 0.31363 0.52512 0.01407 0.0
C897 C 0.29815 0.46331 0.02 0.0
C898 C 0.29805 0.48709 0.01162 0.0
C899 C 0.30291 0.55445 0.9839 0.0
C900 C 0.30013 0.53166 0.99422 0.0
H901 H 0.29957 0.40905 0.99757 0.0
H902 H 0.29655 0.44794 0.98397 0.0
H903 H 0.32408 0.49849 0.03733 0.0
H904 H 0.30905 0.60948 1.00153 0.0
H905 H 0.30056 0.57256 0.01862 0.0
C906 C 0.41831 0.64671 0.97859 0.0
C907 C 0.42015 0.64681 0.95307 0.0
C908 C 0.43912 0.64441 0.99203 0.0
C909 C 0.50567 0.62863 0.9884 0.0
H910 H 0.50481 0.66574 0.04742 0.0
C911 C 0.59222 0.64507 0.04169 0.0
C912 C 0.59005 0.64521 0.06725 0.0
C913 C 0.57161 0.64337 0.02787 0.0
C914 C 0.50526 0.65503 0.03119 0.0
H915 H 0.44536 0.64375 0.92155 0.0
H916 H 0.48218 0.64027 0.94515 0.0
H917 H 0.46941 0.66652 0.02251 0.0
H918 H 0.56441 0.64328 0.0983 0.0
H919 H 0.5282 0.64051 0.07409 0.0
H920 H 0.54194 0.61765 0.99698 0.0
C921 C 0.46443 0.64167 0.95476 0.0
C922 C 0.4849 0.65544 0.01684 0.0
C923 C 0.44338 0.6437 0.9412 0.0
C924 C 0.56671 0.64327 0.07867 0.0
C925 C 0.54598 0.64179 0.06479 0.0
C926 C 0.52616 0.62836 1.00271 0.0
C927 C 0.46256 0.6425 0.98042 0.0
C928 C 0.48471 0.64216 0.99529 0.0
C929 C 0.54819 0.64195 0.03921 0.0
C930 C 0.52617 0.64153 0.02433 0.0
H931 H 0.40064 0.64866 0.98834 0.0
H932 H 0.43676 0.64438 0.01165 0.0
H933 H 0.50615 0.61799 0.97213 0.0
H934 H 0.60991 0.64644 0.03223 0.0
H935 H 0.57398 0.64379 0.00826 0.0
C936 C 0.71263 0.41286 0.98113 0.0
C937 C 0.69067 0.40664 0.97106 0.0
C938 C 0.71375 0.43327 0.9944 0.0
C939 C 0.67416 0.47712 0.02752 0.0
H940 H 0.72814 0.51654 0.01462 0.0
C941 C 0.66728 0.57102 0.05531 0.0
C942 C 0.68738 0.58054 0.06611 0.0
C943 C 0.66929 0.5494 0.04462 0.0
C944 C 0.7131 0.5056 0.01864 0.0
H945 H 0.65248 0.41658 0.96783 0.0
H946 H 0.65447 0.45204 0.99048 0.0
H947 H 0.72877 0.47893 0.99519 0.0
H948 H 0.72562 0.57483 0.07354 0.0
H949 H 0.72918 0.53701 0.05463 0.0
H950 H 0.65826 0.5038 0.05061 0.0
C951 C 0.67085 0.44123 0.98828 0.0
C952 C 0.71348 0.48404 0.00755 0.0
C953 C 0.66978 0.42099 0.975 0.0
C954 C 0.70982 0.56811 0.06525 0.0
C955 C 0.71185 0.54641 0.05445 0.0
C956 C 0.67376 0.49861 0.03852 0.0
C957 C 0.69285 0.44772 0.99805 0.0
C958 C 0.69377 0.46973 0.01152 0.0
C959 C 0.69148 0.53669 0.04437 0.0
C960 C 0.69298 0.51328 0.03387 0.0
H961 H 0.72905 0.40222 0.97831 0.0
H962 H 0.73093 0.4377 1.00185 0.0
H963 H 0.65894 0.46634 0.0314 0.0
H964 H 0.6499 0.58028 0.05509 0.0
H965 H 0.65341 0.54263 0.03649 0.0
C966 C 0.42401 0.35928 0.05373 0.0
C967 C 0.40344 0.35399 0.04072 0.0
C968 C 0.44675 0.36222 0.04143 0.0
C969 C 0.48009 0.34866 0.9818 0.0
H970 H 0.52574 0.39211 1.00427 0.0
C971 C 0.57233 0.36296 0.929 0.0
C972 C 0.59268 0.36195 0.94354 0.0
C973 C 0.54853 0.36491 0.93983 0.0
C974 C 0.51317 0.3799 0.99777 0.0
H975 H 0.39049 0.34854 1.00453 0.0
H976 H 0.4295 0.35422 0.98334 0.0
H977 H 0.48589 0.3893 0.02577 0.0
H978 H 0.60415 0.36356 0.98062 0.0
H979 H 0.56301 0.36723 0.99929 0.0
H980 H 0.5074 0.33925 0.95386 0.0
C981 C 0.42851 0.35541 1.00299 0.0
C982 C 0.49036 0.37817 0.0102 0.0
C983 C 0.40599 0.35227 0.01522 0.0
C984 C 0.58883 0.36415 0.96891 0.0
C985 C 0.56522 0.36641 0.97965 0.0
C986 C 0.50278 0.35052 0.96929 0.0
C987 C 0.44933 0.36013 0.01586 0.0
C988 C 0.47356 0.36239 1.00251 0.0
C989 C 0.54473 0.36629 0.96533 0.0
C990 C 0.5197 0.36599 0.97725 0.0
H991 H 0.42265 0.36072 0.07337 0.0
H992 H 0.4624 0.36564 0.05201 0.0
H993 H 0.46792 0.336 0.97553 0.0
H994 H 0.57475 0.36123 0.90942 0.0
H995 H 0.53308 0.36495 0.92829 0.0
loop_
_geom_bond_atom_site_label_1
_geom_bond_atom_site_label_2
_geom_bond_distance
_geom_bond_site_symmetry_2
_ccdc_geom_bond_type
Cu0 N1 1.999 . S
Cu0 O6 1.974 . S
Cu0 N11 1.985 . S
Cu0 O20 1.959 . S
N1 Cu0 1.999 . S
N1 C3 1.263 . S
N1 C5 1.389 . S
N2 C3 1.358 . S
N2 C4 1.400 . S
C3 N1 1.263 . S
C3 N2 1.358 . S
C3 H9 0.930 . S
C4 N2 1.400 . S
C4 C5 1.351 . S
C4 H21 0.930 . S
C5 N1 1.389 . S
C5 C4 1.351 . S
C5 H10 0.930 . S
O6 Cu0 1.974 . S
O6 C16 1.282 . S
C7 O8 1.261 . S
C7 O20 1.251 . S
O8 C7 1.261 . S
H9 C3 0.930 . S
H10 C5 0.930 . S
N11 Cu0 1.985 . S
N11 C13 1.335 . S
N11 C14 1.390 . S
N12 C13 1.345 . S
N12 C15 1.336 . S
C13 N11 1.335 . S
C13 N12 1.345 . S
C13 H18 0.930 . S
C14 N11 1.390 . S
C14 C15 1.346 . S
C14 H19 0.930 . S
C15 N12 1.336 . S
C15 C14 1.346 . S
C15 H22 0.929 . S
C16 O6 1.282 . S
C16 O17 1.216 . S
O17 C16 1.216 . S
H18 C13 0.930 . S
H19 C14 0.930 . S
O20 Cu0 1.959 . S
O20 C7 1.251 . S
H21 C4 0.930 . S
H22 C15 0.929 . S
Cu23 N24 1.999 . S
Cu23 O29 1.974 . S
Cu23 N34 1.985 . S
Cu23 O43 1.959 . S
N24 Cu23 1.999 . S
N24 C26 1.263 . S
N24 C28 1.389 . S
N25 C26 1.358 . S
N25 C27 1.400 . S
C26 N24 1.263 . S
C26 N25 1.358 . S
C26 H32 0.930 . S
C27 N25 1.400 . S
C27 C28 1.351 . S
C27 H44 0.930 . S
C28 N24 1.389 . S
C28 C27 1.351 . S
C28 H33 0.930 . S
O29 Cu23 1.974 . S
O29 C39 1.282 . S
C30 O31 1.261 . S
C30 O43 1.251 . S
O31 C30 1.261 . S
H32 C26 0.930 . S
H33 C28 0.930 . S
N34 Cu23 1.985 . S
N34 C36 1.335 . S
N34 C37 1.390 . S
N35 C36 1.345 . S
N35 C38 1.336 . S
C36 N34 1.335 . S
C36 N35 1.345 . S
C36 H41 0.930 . S
C37 N34 1.390 . S
C37 C38 1.346 . S
C37 H42 0.930 . S
C38 N35 1.336 . S
C38 C37 1.346 . S
C38 H45 0.929 . S
C39 O29 1.282 . S
C39 O40 1.216 . S
O40 C39 1.216 . S
H41 C36 0.930 . S
H42 C37 0.930 . S
O43 Cu23 1.959 . S
O43 C30 1.251 . S
H44 C27 0.930 . S
H45 C38 0.929 . S
Cu46 N47 1.999 . S
Cu46 O52 1.974 . S
Cu46 N57 1.985 . S
Cu46 O66 1.959 . S
N47 Cu46 1.999 . S
N47 C49 1.263 . S
N47 C51 1.389 . S
N48 C49 1.358 . S
N48 C50 1.400 . S
C49 N47 1.263 . S
C49 N48 1.358 . S
C49 H55 0.930 . S
C50 N48 1.400 . S
C50 C51 1.351 . S
C50 H67 0.930 . S
C51 N47 1.389 . S
C51 C50 1.351 . S
C51 H56 0.930 . S
O52 Cu46 1.974 . S
O52 C62 1.282 . S
C53 O54 1.261 . S
C53 O66 1.251 . S
O54 C53 1.261 . S
H55 C49 0.930 . S
H56 C51 0.930 . S
N57 Cu46 1.985 . S
N57 C59 1.335 . S
N57 C60 1.390 . S
N58 C59 1.345 . S
N58 C61 1.336 . S
C59 N57 1.335 . S
C59 N58 1.345 . S
C59 H64 0.930 . S
C60 N57 1.390 . S
C60 C61 1.346 . S
C60 H65 0.930 . S
C61 N58 1.336 . S
C61 C60 1.346 . S
C61 H68 0.929 . S
C62 O52 1.282 . S
C62 O63 1.216 . S
O63 C62 1.216 . S
H64 C59 0.930 . S
H65 C60 0.930 . S
O66 Cu46 1.959 . S
O66 C53 1.251 . S
H67 C50 0.930 . S
H68 C61 0.929 . S
Cu69 N70 1.999 . S
Cu69 O75 1.974 . S
Cu69 N80 1.985 . S
Cu69 O89 1.959 . S
N70 Cu69 1.999 . S
N70 C72 1.263 . S
N70 C74 1.389 . S
N71 C72 1.358 . S
N71 C73 1.400 . S
C72 N70 1.263 . S
C72 N71 1.358 . S
C72 H78 0.930 . S
C73 N71 1.400 . S
C73 C74 1.351 . S
C73 H90 0.930 . S
C74 N70 1.389 . S
C74 C73 1.351 . S
C74 H79 0.930 . S
O75 Cu69 1.974 . S
O75 C85 1.282 . S
C76 O77 1.261 . S
C76 O89 1.251 . S
O77 C76 1.261 . S
H78 C72 0.930 . S
H79 C74 0.930 . S
N80 Cu69 1.985 . S
N80 C82 1.335 . S
N80 C83 1.390 . S
N81 C82 1.345 . S
N81 C84 1.336 . S
C82 N80 1.335 . S
C82 N81 1.345 . S
C82 H87 0.930 . S
C83 N80 1.390 . S
C83 C84 1.346 . S
C83 H88 0.930 . S
C84 N81 1.336 . S
C84 C83 1.346 . S
C84 H91 0.929 . S
C85 O75 1.282 . S
C85 O86 1.216 . S
O86 C85 1.216 . S
H87 C82 0.930 . S
H88 C83 0.930 . S
O89 Cu69 1.959 . S
O89 C76 1.251 . S
H90 C73 0.930 . S
H91 C84 0.929 . S
Cu92 N93 1.999 . S
Cu92 O98 1.974 . S
Cu92 N103 1.985 . S
Cu92 O112 1.959 . S
N93 Cu92 1.999 . S
N93 C95 1.263 . S
N93 C97 1.389 . S
N94 C95 1.358 . S
N94 C96 1.400 . S
C95 N93 1.263 . S
C95 N94 1.358 . S
C95 H101 0.930 . S
C96 N94 1.400 . S
C96 C97 1.351 . S
C96 H113 0.930 . S
C97 N93 1.389 . S
C97 C96 1.351 . S
C97 H102 0.930 . S
O98 Cu92 1.974 . S
O98 C108 1.282 . S
C99 O100 1.261 . S
C99 O112 1.251 . S
O100 C99 1.261 . S
H101 C95 0.930 . S
H102 C97 0.930 . S
N103 Cu92 1.985 . S
N103 C105 1.335 . S
N103 C106 1.390 . S
N104 C105 1.345 . S
N104 C107 1.336 . S
C105 N103 1.335 . S
C105 N104 1.345 . S
C105 H110 0.930 . S
C106 N103 1.390 . S
C106 C107 1.346 . S
C106 H111 0.930 . S
C107 N104 1.336 . S
C107 C106 1.346 . S
C107 H114 0.929 . S
C108 O98 1.282 . S
C108 O109 1.216 . S
O109 C108 1.216 . S
H110 C105 0.930 . S
H111 C106 0.930 . S
O112 Cu92 1.959 . S
O112 C99 1.251 . S
H113 C96 0.930 . S
H114 C107 0.929 . S
Cu115 N116 1.999 . S
Cu115 O121 1.974 . S
Cu115 N126 1.985 . S
Cu115 O135 1.959 . S
N116 Cu115 1.999 . S
N116 C118 1.263 . S
N116 C120 1.389 . S
N117 C118 1.358 . S
N117 C119 1.400 . S
C118 N116 1.263 . S
C118 N117 1.358 . S
C118 H124 0.930 . S
C119 N117 1.400 . S
C119 C120 1.351 . S
C119 H136 0.930 . S
C120 N116 1.389 . S
C120 C119 1.351 . S
C120 H125 0.930 . S
O121 Cu115 1.974 . S
O121 C131 1.282 . S
C122 O123 1.261 . S
C122 O135 1.251 . S
O123 C122 1.261 . S
H124 C118 0.930 . S
H125 C120 0.930 . S
N126 Cu115 1.985 . S
N126 C128 1.335 . S
N126 C129 1.390 . S
N127 C128 1.345 . S
N127 C130 1.336 . S
C128 N126 1.335 . S
C128 N127 1.345 . S
C128 H133 0.930 . S
C129 N126 1.390 . S
C129 C130 1.346 . S
C129 H134 0.930 . S
C130 N127 1.336 . S
C130 C129 1.346 . S
C130 H137 0.929 . S
C131 O121 1.282 . S
C131 O132 1.216 . S
O132 C131 1.216 . S
H133 C128 0.930 . S
H134 C129 0.930 . S
O135 Cu115 1.959 . S
O135 C122 1.251 . S
H136 C119 0.930 . S
H137 C130 0.929 . S
Cu138 N139 1.999 . S
Cu138 O144 1.974 . S
Cu138 N149 1.985 . S
Cu138 O158 1.959 . S
N139 Cu138 1.999 . S
N139 C141 1.263 . S
N139 C143 1.389 . S
N140 C141 1.358 . S
N140 C142 1.400 . S
C141 N139 1.263 . S
C141 N140 1.358 . S
C141 H147 0.930 . S
C142 N140 1.400 . S
C142 C143 1.351 . S
C142 H159 0.930 . S
C143 N139 1.389 . S
C143 C142 1.351 . S
C143 H148 0.930 . S
O144 Cu138 1.974 . S
O144 C154 1.282 . S
C145 O146 1.261 . S
C145 O158 1.251 . S
O146 C145 1.261 . S
H147 C141 0.930 . S
H148 C143 0.930 . S
N149 Cu138 1.985 . S
N149 C151 1.335 . S
N149 C152 1.390 . S
N150 C151 1.345 . S
N150 C153 1.336 . S
C151 N149 1.335 . S
C151 N150 1.345 . S
C151 H156 0.930 . S
C152 N149 1.390 . S
C152 C153 1.346 . S
C152 H157 0.930 . S
C153 N150 1.336 . S
C153 C152 1.346 . S
C153 H160 0.929 . S
C154 O144 1.282 . S
C154 O155 1.216 . S
O155 C154 1.216 . S
H156 C151 0.930 . S
H157 C152 0.930 . S
O158 Cu138 1.959 . S
O158 C145 1.251 . S
H159 C142 0.930 . S
H160 C153 0.929 . S
Cu161 N162 1.999 . S
Cu161 O167 1.974 . S
Cu161 N172 1.985 . S
Cu161 O181 1.959 . S
N162 Cu161 1.999 . S
N162 C164 1.263 . S
N162 C166 1.389 . S
N163 C164 1.358 . S
N163 C165 1.400 . S
C164 N162 1.263 . S
C164 N163 1.358 . S
C164 H170 0.930 . S
C165 N163 1.400 . S
C165 C166 1.351 . S
C165 H182 0.930 . S
C166 N162 1.389 . S
C166 C165 1.351 . S
C166 H171 0.930 . S
O167 Cu161 1.974 . S
O167 C177 1.282 . S
C168 O169 1.261 . S
C168 O181 1.251 . S
O169 C168 1.261 . S
H170 C164 0.930 . S
H171 C166 0.930 . S
N172 Cu161 1.985 . S
N172 C174 1.335 . S
N172 C175 1.390 . S
N173 C174 1.345 . S
N173 C176 1.336 . S
C174 N172 1.335 . S
C174 N173 1.345 . S
C174 H179 0.930 . S
C175 N172 1.390 . S
C175 C176 1.346 . S
C175 H180 0.930 . S
C176 N173 1.336 . S
C176 C175 1.346 . S
C176 H183 0.929 . S
C177 O167 1.282 . S
C177 O178 1.216 . S
O178 C177 1.216 . S
H179 C174 0.930 . S
H180 C175 0.930 . S
O181 Cu161 1.959 . S
O181 C168 1.251 . S
H182 C165 0.930 . S
H183 C176 0.929 . S
Cu184 N185 1.999 . S
Cu184 O190 1.974 . S
Cu184 N195 1.985 . S
Cu184 O204 1.959 . S
N185 Cu184 1.999 . S
N185 C187 1.263 . S
N185 C189 1.389 . S
N186 C187 1.358 . S
N186 C188 1.400 . S
C187 N185 1.263 . S
C187 N186 1.358 . S
C187 H193 0.930 . S
C188 N186 1.400 . S
C188 C189 1.351 . S
C188 H205 0.930 . S
C189 N185 1.389 . S
C189 C188 1.351 . S
C189 H194 0.930 . S
O190 Cu184 1.974 . S
O190 C200 1.282 . S
C191 O192 1.261 . S
C191 O204 1.251 . S
O192 C191 1.261 . S
H193 C187 0.930 . S
H194 C189 0.930 . S
N195 Cu184 1.985 . S
N195 C197 1.335 . S
N195 C198 1.390 . S
N196 C197 1.345 . S
N196 C199 1.336 . S
C197 N195 1.335 . S
C197 N196 1.345 . S
C197 H202 0.930 . S
C198 N195 1.390 . S
C198 C199 1.346 . S
C198 H203 0.930 . S
C199 N196 1.336 . S
C199 C198 1.346 . S
C199 H206 0.929 . S
C200 O190 1.282 . S
C200 O201 1.216 . S
O201 C200 1.216 . S
H202 C197 0.930 . S
H203 C198 0.930 . S
O204 Cu184 1.959 . S
O204 C191 1.251 . S
H205 C188 0.930 . S
H206 C199 0.929 . S
Cu207 N208 1.999 . S
Cu207 O213 1.974 . S
Cu207 N218 1.985 . S
Cu207 O227 1.959 . S
N208 Cu207 1.999 . S
N208 C210 1.263 . S
N208 C212 1.389 . S
N209 C210 1.358 . S
N209 C211 1.400 . S
C210 N208 1.263 . S
C210 N209 1.358 . S
C210 H216 0.930 . S
C211 N209 1.400 . S
C211 C212 1.351 . S
C211 H228 0.930 . S
C212 N208 1.389 . S
C212 C211 1.351 . S
C212 H217 0.930 . S
O213 Cu207 1.974 . S
O213 C223 1.282 . S
C214 O215 1.261 . S
C214 O227 1.251 . S
O215 C214 1.261 . S
H216 C210 0.930 . S
H217 C212 0.930 . S
N218 Cu207 1.985 . S
N218 C220 1.335 . S
N218 C221 1.390 . S
N219 C220 1.345 . S
N219 C222 1.336 . S
C220 N218 1.335 . S
C220 N219 1.345 . S
C220 H225 0.930 . S
C221 N218 1.390 . S
C221 C222 1.346 . S
C221 H226 0.930 . S
C222 N219 1.336 . S
C222 C221 1.346 . S
C222 H229 0.929 . S
C223 O213 1.282 . S
C223 O224 1.216 . S
O224 C223 1.216 . S
H225 C220 0.930 . S
H226 C221 0.930 . S
O227 Cu207 1.959 . S
O227 C214 1.251 . S
H228 C211 0.930 . S
H229 C222 0.929 . S
Cu230 N231 1.999 . S
Cu230 O236 1.974 . S
Cu230 N241 1.985 . S
Cu230 O250 1.959 . S
N231 Cu230 1.999 . S
N231 C233 1.263 . S
N231 C235 1.389 . S
N232 C233 1.358 . S
N232 C234 1.400 . S
C233 N231 1.263 . S
C233 N232 1.358 . S
C233 H239 0.930 . S
C234 N232 1.400 . S
C234 C235 1.351 . S
C234 H251 0.930 . S
C235 N231 1.389 . S
C235 C234 1.351 . S
C235 H240 0.930 . S
O236 Cu230 1.974 . S
O236 C246 1.282 . S
C237 O238 1.261 . S
C237 O250 1.251 . S
O238 C237 1.261 . S
H239 C233 0.930 . S
H240 C235 0.930 . S
N241 Cu230 1.985 . S
N241 C243 1.335 . S
N241 C244 1.390 . S
N242 C243 1.345 . S
N242 C245 1.336 . S
C243 N241 1.335 . S
C243 N242 1.345 . S
C243 H248 0.930 . S
C244 N241 1.390 . S
C244 C245 1.346 . S
C244 H249 0.930 . S
C245 N242 1.336 . S
C245 C244 1.346 . S
C245 H252 0.929 . S
C246 O236 1.282 . S
C246 O247 1.216 . S
O247 C246 1.216 . S
H248 C243 0.930 . S
H249 C244 0.930 . S
O250 Cu230 1.959 . S
O250 C237 1.251 . S
H251 C234 0.930 . S
H252 C245 0.929 . S
Cu253 N254 1.999 . S
Cu253 O259 1.974 . S
Cu253 N264 1.985 . S
Cu253 O273 1.959 . S
N254 Cu253 1.999 . S
N254 C256 1.263 . S
N254 C258 1.389 . S
N255 C256 1.358 . S
N255 C257 1.400 . S
C256 N254 1.263 . S
C256 N255 1.358 . S
C256 H262 0.930 . S
C257 N255 1.400 . S
C257 C258 1.351 . S
C257 H274 0.930 . S
C258 N254 1.389 . S
C258 C257 1.351 . S
C258 H263 0.930 . S
O259 Cu253 1.974 . S
O259 C269 1.282 . S
C260 O261 1.261 . S
C260 O273 1.251 . S
O261 C260 1.261 . S
H262 C256 0.930 . S
H263 C258 0.930 . S
N264 Cu253 1.985 . S
N264 C266 1.335 . S
N264 C267 1.390 . S
N265 C266 1.345 . S
N265 C268 1.336 . S
C266 N264 1.335 . S
C266 N265 1.345 . S
C266 H271 0.930 . S
C267 N264 1.390 . S
C267 C268 1.346 . S
C267 H272 0.930 . S
C268 N265 1.336 . S
C268 C267 1.346 . S
C268 H275 0.929 . S
C269 O259 1.282 . S
C269 O270 1.216 . S
O270 C269 1.216 . S
H271 C266 0.930 . S
H272 C267 0.930 . S
O273 Cu253 1.959 . S
O273 C260 1.251 . S
H274 C257 0.930 . S
H275 C268 0.929 . S
C276 C277 1.349 . S
C276 C278 1.327 . S
C276 H301 0.950 . S
C277 C276 1.349 . S
C277 C293 1.349 . S
C278 C276 1.327 . S
C278 C297 1.429 . S
C278 H302 0.950 . S
C279 C296 1.574 . S
C279 C298 1.368 . S
C279 H303 0.949 . S
H280 C284 0.949 . S
C281 C282 1.349 . S
C281 C283 1.327 . S
C281 H304 0.950 . S
C282 C281 1.349 . S
C282 C294 1.349 . S
C283 C281 1.327 . S
C283 C299 1.429 . S
C283 H305 0.950 . S
C284 H280 0.949 . S
C284 C292 1.574 . S
C284 C300 1.368 . S
H285 C293 0.950 . S
H286 C291 0.950 . S
H287 C292 0.949 . S
H288 C294 0.950 . S
H289 C295 0.950 . S
H290 C296 0.949 . S
C291 H286 0.950 . S
C291 C293 1.327 . S
C291 C297 1.429 . S
C292 C284 1.574 . S
C292 H287 0.949 . S
C292 C298 1.368 . S
C293 C277 1.349 . S
C293 H285 0.950 . S
C293 C291 1.327 . S
C294 C282 1.349 . S
C294 H288 0.950 . S
C294 C295 1.327 . S
C295 H289 0.950 . S
C295 C294 1.327 . S
C295 C299 1.429 . S
C296 C279 1.574 . S
C296 H290 0.949 . S
C296 C300 1.368 . S
C297 C278 1.429 . S
C297 C291 1.429 . S
C297 C298 1.523 . S
C298 C279 1.368 . S
C298 C292 1.368 . S
C298 C297 1.523 . S
C299 C283 1.429 . S
C299 C295 1.429 . S
C299 C300 1.523 . S
C300 C284 1.368 . S
C300 C296 1.368 . S
C300 C299 1.523 . S
H301 C276 0.950 . S
H302 C278 0.950 . S
H303 C279 0.949 . S
H304 C281 0.950 . S
H305 C283 0.950 . S
C306 C307 1.349 . S
C306 C308 1.327 . S
C306 H331 0.950 . S
C307 C306 1.349 . S
C307 C323 1.349 . S
C308 C306 1.327 . S
C308 C327 1.429 . S
C308 H332 0.950 . S
C309 C326 1.574 . S
C309 C328 1.368 . S
C309 H333 0.949 . S
H310 C314 0.949 . S
C311 C312 1.349 . S
C311 C313 1.327 . S
C311 H334 0.950 . S
C312 C311 1.349 . S
C312 C324 1.349 . S
C313 C311 1.327 . S
C313 C329 1.429 . S
C313 H335 0.950 . S
C314 H310 0.949 . S
C314 C322 1.574 . S
C314 C330 1.368 . S
H315 C323 0.950 . S
H316 C321 0.950 . S
H317 C322 0.949 . S
H318 C324 0.950 . S
H319 C325 0.950 . S
H320 C326 0.949 . S
C321 H316 0.950 . S
C321 C323 1.327 . S
C321 C327 1.429 . S
C322 C314 1.574 . S
C322 H317 0.949 . S
C322 C328 1.368 . S
C323 C307 1.349 . S
C323 H315 0.950 . S
C323 C321 1.327 . S
C324 C312 1.349 . S
C324 H318 0.950 . S
C324 C325 1.327 . S
C325 H319 0.950 . S
C325 C324 1.327 . S
C325 C329 1.429 . S
C326 C309 1.574 . S
C326 H320 0.949 . S
C326 C330 1.368 . S
C327 C308 1.429 . S
C327 C321 1.429 . S
C327 C328 1.523 . S
C328 C309 1.368 . S
C328 C322 1.368 . S
C328 C327 1.523 . S
C329 C313 1.429 . S
C329 C325 1.429 . S
C329 C330 1.523 . S
C330 C314 1.368 . S
C330 C326 1.368 . S
C330 C329 1.523 . S
H331 C306 0.950 . S
H332 C308 0.950 . S
H333 C309 0.949 . S
H334 C311 0.950 . S
H335 C313 0.950 . S
C336 C337 1.349 . S
C336 C338 1.327 . S
C336 H361 0.950 . S
C337 C336 1.349 . S
C337 C353 1.349 . S
C338 C336 1.327 . S
C338 C357 1.429 . S
C338 H362 0.950 . S
C339 C356 1.574 . S
C339 C358 1.368 . S
C339 H363 0.949 . S
H340 C344 0.949 . S
C341 C342 1.349 . S
C341 C343 1.327 . S
C341 H364 0.950 . S
C342 C341 1.349 . S
C342 C354 1.349 . S
C343 C341 1.327 . S
C343 C359 1.429 . S
C343 H365 0.950 . S
C344 H340 0.949 . S
C344 C352 1.574 . S
C344 C360 1.368 . S
H345 C353 0.950 . S
H346 C351 0.950 . S
H347 C352 0.949 . S
H348 C354 0.950 . S
H349 C355 0.950 . S
H350 C356 0.949 . S
C351 H346 0.950 . S
C351 C353 1.327 . S
C351 C357 1.429 . S
C352 C344 1.574 . S
C352 H347 0.949 . S
C352 C358 1.368 . S
C353 C337 1.349 . S
C353 H345 0.950 . S
C353 C351 1.327 . S
C354 C342 1.349 . S
C354 H348 0.950 . S
C354 C355 1.327 . S
C355 H349 0.950 . S
C355 C354 1.327 . S
C355 C359 1.429 . S
C356 C339 1.574 . S
C356 H350 0.949 . S
C356 C360 1.368 . S
C357 C338 1.429 . S
C357 C351 1.429 . S
C357 C358 1.523 . S
C358 C339 1.368 . S
C358 C352 1.368 . S
C358 C357 1.523 . S
C359 C343 1.429 . S
C359 C355 1.429 . S
C359 C360 1.523 . S
C360 C344 1.368 . S
C360 C356 1.368 . S
C360 C359 1.523 . S
H361 C336 0.950 . S
H362 C338 0.950 . S
H363 C339 0.949 . S
H364 C341 0.950 . S
H365 C343 0.950 . S
C366 C367 1.349 . S
C366 C368 1.327 . S
C366 H391 0.950 . S
C367 C366 1.349 . S
C367 C383 1.349 . S
C368 C366 1.327 . S
C368 C387 1.429 . S
C368 H392 0.950 . S
C369 C386 1.574 . S
C369 C388 1.368 . S
C369 H393 0.949 . S
H370 C374 0.949 . S
C371 C372 1.349 . S
C371 C373 1.327 . S
C371 H394 0.950 . S
C372 C371 1.349 . S
C372 C384 1.349 . S
C373 C371 1.327 . S
C373 C389 1.429 . S
C373 H395 0.950 . S
C374 H370 0.949 . S
C374 C382 1.574 . S
C374 C390 1.368 . S
H375 C383 0.950 . S
H376 C381 0.950 . S
H377 C382 0.949 . S
H378 C384 0.950 . S
H379 C385 0.950 . S
H380 C386 0.949 . S
C381 H376 0.950 . S
C381 C383 1.327 . S
C381 C387 1.429 . S
C382 C374 1.574 . S
C382 H377 0.949 . S
C382 C388 1.368 . S
C383 C367 1.349 . S
C383 H375 0.950 . S
C383 C381 1.327 . S
C384 C372 1.349 . S
C384 H378 0.950 . S
C384 C385 1.327 . S
C385 H379 0.950 . S
C385 C384 1.327 . S
C385 C389 1.429 . S
C386 C369 1.574 . S
C386 H380 0.949 . S
C386 C390 1.368 . S
C387 C368 1.429 . S
C387 C381 1.429 . S
C387 C388 1.523 . S
C388 C369 1.368 . S
C388 C382 1.368 . S
C388 C387 1.523 . S
C389 C373 1.429 . S
C389 C385 1.429 . S
C389 C390 1.523 . S
C390 C374 1.368 . S
C390 C386 1.368 . S
C390 C389 1.523 . S
H391 C366 0.950 . S
H392 C368 0.950 . S
H393 C369 0.949 . S
H394 C371 0.950 . S
H395 C373 0.950 . S
C396 C397 1.349 . S
C396 C398 1.327 . S
C396 H421 0.950 . S
C397 C396 1.349 . S
C397 C413 1.349 . S
C398 C396 1.327 . S
C398 C417 1.429 . S
C398 H422 0.950 . S
C399 C416 1.574 . S
C399 C418 1.368 . S
C399 H423 0.949 . S
H400 C404 0.949 . S
C401 C402 1.349 . S
C401 C403 1.327 . S
C401 H424 0.950 . S
C402 C401 1.349 . S
C402 C414 1.349 . S
C403 C401 1.327 . S
C403 C419 1.429 . S
C403 H425 0.950 . S
C404 H400 0.949 . S
C404 C412 1.574 . S
C404 C420 1.368 . S
H405 C413 0.950 . S
H406 C411 0.950 . S
H407 C412 0.949 . S
H408 C414 0.950 . S
H409 C415 0.950 . S
H410 C416 0.949 . S
C411 H406 0.950 . S
C411 C413 1.327 . S
C411 C417 1.429 . S
C412 C404 1.574 . S
C412 H407 0.949 . S
C412 C418 1.368 . S
C413 C397 1.349 . S
C413 H405 0.950 . S
C413 C411 1.327 . S
C414 C402 1.349 . S
C414 H408 0.950 . S
C414 C415 1.327 . S
C415 H409 0.950 . S
C415 C414 1.327 . S
C415 C419 1.429 . S
C416 C399 1.574 . S
C416 H410 0.949 . S
C416 C420 1.368 . S
C417 C398 1.429 . S
C417 C411 1.429 . S
C417 C418 1.523 . S
C418 C399 1.368 . S
C418 C412 1.368 . S
C418 C417 1.523 . S
C419 C403 1.429 . S
C419 C415 1.429 . S
C419 C420 1.523 . S
C420 C404 1.368 . S
C420 C416 1.368 . S
C420 C419 1.523 . S
H421 C396 0.950 . S
H422 C398 0.950 . S
H423 C399 0.949 . S
H424 C401 0.950 . S
H425 C403 0.950 . S
C426 C427 1.349 . S
C426 C428 1.327 . S
C426 H451 0.950 . S
C427 C426 1.349 . S
C427 C443 1.349 . S
C428 C426 1.327 . S
C428 C447 1.429 . S
C428 H452 0.950 . S
C429 C446 1.574 . S
C429 C448 1.368 . S
C429 H453 0.949 . S
H430 C434 0.949 . S
C431 C432 1.349 . S
C431 C433 1.327 . S
C431 H454 0.950 . S
C432 C431 1.349 . S
C432 C444 1.349 . S
C433 C431 1.327 . S
C433 C449 1.429 . S
C433 H455 0.950 . S
C434 H430 0.949 . S
C434 C442 1.574 . S
C434 C450 1.368 . S
H435 C443 0.950 . S
H436 C441 0.950 . S
H437 C442 0.949 . S
H438 C444 0.950 . S
H439 C445 0.950 . S
H440 C446 0.949 . S
C441 H436 0.950 . S
C441 C443 1.327 . S
C441 C447 1.429 . S
C442 C434 1.574 . S
C442 H437 0.949 . S
C442 C448 1.368 . S
C443 C427 1.349 . S
C443 H435 0.950 . S
C443 C441 1.327 . S
C444 C432 1.349 . S
C444 H438 0.950 . S
C444 C445 1.327 . S
C445 H439 0.950 . S
C445 C444 1.327 . S
C445 C449 1.429 . S
C446 C429 1.574 . S
C446 H440 0.949 . S
C446 C450 1.368 . S
C447 C428 1.429 . S
C447 C441 1.429 . S
C447 C448 1.523 . S
C448 C429 1.368 . S
C448 C442 1.368 . S
C448 C447 1.523 . S
C449 C433 1.429 . S
C449 C445 1.429 . S
C449 C450 1.523 . S
C450 C434 1.368 . S
C450 C446 1.368 . S
C450 C449 1.523 . S
H451 C426 0.950 . S
H452 C428 0.950 . S
H453 C429 0.949 . S
H454 C431 0.950 . S
H455 C433 0.950 . S
C456 C457 1.349 . S
C456 C458 1.327 . S
C456 H481 0.950 . S
C457 C456 1.349 . S
C457 C473 1.349 . S
C458 C456 1.327 . S
C458 C477 1.429 . S
C458 H482 0.950 . S
C459 C476 1.574 . S
C459 C478 1.368 . S
C459 H483 0.949 . S
H460 C464 0.949 . S
C461 C462 1.349 . S
C461 C463 1.327 . S
C461 H484 0.950 . S
C462 C461 1.349 . S
C462 C474 1.349 . S
C463 C461 1.327 . S
C463 C479 1.429 . S
C463 H485 0.950 . S
C464 H460 0.949 . S
C464 C472 1.574 . S
C464 C480 1.368 . S
H465 C473 0.950 . S
H466 C471 0.950 . S
H467 C472 0.949 . S
H468 C474 0.950 . S
H469 C475 0.950 . S
H470 C476 0.949 . S
C471 H466 0.950 . S
C471 C473 1.327 . S
C471 C477 1.429 . S
C472 C464 1.574 . S
C472 H467 0.949 . S
C472 C478 1.368 . S
C473 C457 1.349 . S
C473 H465 0.950 . S
C473 C471 1.327 . S
C474 C462 1.349 . S
C474 H468 0.950 . S
C474 C475 1.327 . S
C475 H469 0.950 . S
C475 C474 1.327 . S
C475 C479 1.429 . S
C476 C459 1.574 . S
C476 H470 0.949 . S
C476 C480 1.368 . S
C477 C458 1.429 . S
C477 C471 1.429 . S
C477 C478 1.523 . S
C478 C459 1.368 . S
C478 C472 1.368 . S
C478 C477 1.523 . S
C479 C463 1.429 . S
C479 C475 1.429 . S
C479 C480 1.523 . S
C480 C464 1.368 . S
C480 C476 1.368 . S
C480 C479 1.523 . S
H481 C456 0.950 . S
H482 C458 0.950 . S
H483 C459 0.949 . S
H484 C461 0.950 . S
H485 C463 0.950 . S
C486 C487 1.349 . S
C486 C488 1.327 . S
C486 H511 0.950 . S
C487 C486 1.349 . S
C487 C503 1.349 . S
C488 C486 1.327 . S
C488 C507 1.429 . S
C488 H512 0.950 . S
C489 C506 1.574 . S
C489 C508 1.368 . S
C489 H513 0.949 . S
H490 C494 0.949 . S
C491 C492 1.349 . S
C491 C493 1.327 . S
C491 H514 0.950 . S
C492 C491 1.349 . S
C492 C504 1.349 . S
C493 C491 1.327 . S
C493 C509 1.429 . S
C493 H515 0.950 . S
C494 H490 0.949 . S
C494 C502 1.574 . S
C494 C510 1.368 . S
H495 C503 0.950 . S
H496 C501 0.950 . S
H497 C502 0.949 . S
H498 C504 0.950 . S
H499 C505 0.950 . S
H500 C506 0.949 . S
C501 H496 0.950 . S
C501 C503 1.327 . S
C501 C507 1.429 . S
C502 C494 1.574 . S
C502 H497 0.949 . S
C502 C508 1.368 . S
C503 C487 1.349 . S
C503 H495 0.950 . S
C503 C501 1.327 . S
C504 C492 1.349 . S
C504 H498 0.950 . S
C504 C505 1.327 . S
C505 H499 0.950 . S
C505 C504 1.327 . S
C505 C509 1.429 . S
C506 C489 1.574 . S
C506 H500 0.949 . S
C506 C510 1.368 . S
C507 C488 1.429 . S
C507 C501 1.429 . S
C507 C508 1.523 . S
C508 C489 1.368 . S
C508 C502 1.368 . S
C508 C507 1.523 . S
C509 C493 1.429 . S
C509 C505 1.429 . S
C509 C510 1.523 . S
C510 C494 1.368 . S
C510 C506 1.368 . S
C510 C509 1.523 . S
H511 C486 0.950 . S
H512 C488 0.950 . S
H513 C489 0.949 . S
H514 C491 0.950 . S
H515 C493 0.950 . S
C516 C517 1.349 . S
C516 C518 1.327 . S
C516 H541 0.950 . S
C517 C516 1.349 . S
C517 C533 1.349 . S
C518 C516 1.327 . S
C518 C537 1.429 . S
C518 H542 0.950 . S
C519 C536 1.574 . S
C519 C538 1.368 . S
C519 H543 0.949 . S
H520 C524 0.949 . S
C521 C522 1.349 . S
C521 C523 1.327 . S
C521 H544 0.950 . S
C522 C521 1.349 . S
C522 C534 1.349 . S
C523 C521 1.327 . S
C523 C539 1.429 . S
C523 H545 0.950 . S
C524 H520 0.949 . S
C524 C532 1.574 . S
C524 C540 1.368 . S
H525 C533 0.950 . S
H526 C531 0.950 . S
H527 C532 0.949 . S
H528 C534 0.950 . S
H529 C535 0.950 . S
H530 C536 0.949 . S
C531 H526 0.950 . S
C531 C533 1.327 . S
C531 C537 1.429 . S
C532 C524 1.574 . S
C532 H527 0.949 . S
C532 C538 1.368 . S
C533 C517 1.349 . S
C533 H525 0.950 . S
C533 C531 1.327 . S
C534 C522 1.349 . S
C534 H528 0.950 . S
C534 C535 1.327 . S
C535 H529 0.950 . S
C535 C534 1.327 . S
C535 C539 1.429 . S
C536 C519 1.574 . S
C536 H530 0.949 . S
C536 C540 1.368 . S
C537 C518 1.429 . S
C537 C531 1.429 . S
C537 C538 1.523 . S
C538 C519 1.368 . S
C538 C532 1.368 . S
C538 C537 1.523 . S
C539 C523 1.429 . S
C539 C535 1.429 . S
C539 C540 1.523 . S
C540 C524 1.368 . S
C540 C536 1.368 . S
C540 C539 1.523 . S
H541 C516 0.950 . S
H542 C518 0.950 . S
H543 C519 0.949 . S
H544 C521 0.950 . S
H545 C523 0.950 . S
C546 C547 1.349 . S
C546 C548 1.327 . S
C546 H571 0.950 . S
C547 C546 1.349 . S
C547 C563 1.349 . S
C548 C546 1.327 . S
C548 C567 1.429 . S
C548 H572 0.950 . S
C549 C566 1.574 . S
C549 C568 1.368 . S
C549 H573 0.949 . S
H550 C554 0.949 . S
C551 C552 1.349 . S
C551 C553 1.327 . S
C551 H574 0.950 . S
C552 C551 1.349 . S
C552 C564 1.349 . S
C553 C551 1.327 . S
C553 C569 1.429 . S
C553 H575 0.950 . S
C554 H550 0.949 . S
C554 C562 1.574 . S
C554 C570 1.368 . S
H555 C563 0.950 . S
H556 C561 0.950 . S
H557 C562 0.949 . S
H558 C564 0.950 . S
H559 C565 0.950 . S
H560 C566 0.949 . S
C561 H556 0.950 . S
C561 C563 1.327 . S
C561 C567 1.429 . S
C562 C554 1.574 . S
C562 H557 0.949 . S
C562 C568 1.368 . S
C563 C547 1.349 . S
C563 H555 0.950 . S
C563 C561 1.327 . S
C564 C552 1.349 . S
C564 H558 0.950 . S
C564 C565 1.327 . S
C565 H559 0.950 . S
C565 C564 1.327 . S
C565 C569 1.429 . S
C566 C549 1.574 . S
C566 H560 0.949 . S
C566 C570 1.368 . S
C567 C548 1.429 . S
C567 C561 1.429 . S
C567 C568 1.523 . S
C568 C549 1.368 . S
C568 C562 1.368 . S
C568 C567 1.523 . S
C569 C553 1.429 . S
C569 C565 1.429 . S
C569 C570 1.523 . S
C570 C554 1.368 . S
C570 C566 1.368 . S
C570 C569 1.523 . S
H571 C546 0.950 . S
H572 C548 0.950 . S
H573 C549 0.949 . S
H574 C551 0.950 . S
H575 C553 0.950 . S
C576 C577 1.349 . S
C576 C578 1.327 . S
C576 H601 0.950 . S
C577 C576 1.349 . S
C577 C593 1.349 . S
C578 C576 1.327 . S
C578 C597 1.429 . S
C578 H602 0.950 . S
C579 C596 1.574 . S
C579 C598 1.368 . S
C579 H603 0.949 . S
H580 C584 0.949 . S
C581 C582 1.349 . S
C581 C583 1.327 . S
C581 H604 0.950 . S
C582 C581 1.349 . S
C582 C594 1.349 . S
C583 C581 1.327 . S
C583 C599 1.429 . S
C583 H605 0.950 . S
C584 H580 0.949 . S
C584 C592 1.574 . S
C584 C600 1.368 . S
H585 C593 0.950 . S
H586 C591 0.950 . S
H587 C592 0.949 . S
H588 C594 0.950 . S
H589 C595 0.950 . S
H590 C596 0.949 . S
C591 H586 0.950 . S
C591 C593 1.327 . S
C591 C597 1.429 . S
C592 C584 1.574 . S
C592 H587 0.949 . S
C592 C598 1.368 . S
C593 C577 1.349 . S
C593 H585 0.950 . S
C593 C591 1.327 . S
C594 C582 1.349 . S
C594 H588 0.950 . S
C594 C595 1.327 . S
C595 H589 0.950 . S
C595 C594 1.327 . S
C595 C599 1.429 . S
C596 C579 1.574 . S
C596 H590 0.949 . S
C596 C600 1.368 . S
C597 C578 1.429 . S
C597 C591 1.429 . S
C597 C598 1.523 . S
C598 C579 1.368 . S
C598 C592 1.368 . S
C598 C597 1.523 . S
C599 C583 1.429 . S
C599 C595 1.429 . S
C599 C600 1.523 . S
C600 C584 1.368 . S
C600 C596 1.368 . S
C600 C599 1.523 . S
H601 C576 0.950 . S
H602 C578 0.950 . S
H603 C579 0.949 . S
H604 C581 0.950 . S
H605 C583 0.950 . S
C606 C607 1.349 . S
C606 C608 1.327 . S
C606 H631 0.950 . S
C607 C606 1.349 . S
C607 C623 1.349 . S
C608 C606 1.327 . S
C608 C627 1.429 . S
C608 H632 0.950 . S
C609 C626 1.574 . S
C609 C628 1.368 . S
C609 H633 0.949 . S
H610 C614 0.949 . S
C611 C612 1.349 . S
C611 C613 1.327 . S
C611 H634 0.950 . S
C612 C611 1.349 . S
C612 C624 1.349 . S
C613 C611 1.327 . S
C613 C629 1.429 . S
C613 H635 0.950 . S
C614 H610 0.949 . S
C614 C622 1.574 . S
C614 C630 1.368 . S
H615 C623 0.950 . S
H616 C621 0.950 . S
H617 C622 0.949 . S
H618 C624 0.950 . S
H619 C625 0.950 . S
H620 C626 0.949 . S
C621 H616 0.950 . S
C621 C623 1.327 . S
C621 C627 1.429 . S
C622 C614 1.574 . S
C622 H617 0.949 . S
C622 C628 1.368 . S
C623 C607 1.349 . S
C623 H615 0.950 . S
C623 C621 1.327 . S
C624 C612 1.349 . S
C624 H618 0.950 . S
C624 C625 1.327 . S
C625 H619 0.950 . S
C625 C624 1.327 . S
C625 C629 1.429 . S
C626 C609 1.574 . S
C626 H620 0.949 . S
C626 C630 1.368 . S
C627 C608 1.429 . S
C627 C621 1.429 . S
C627 C628 1.523 . S
C628 C609 1.368 . S
C628 C622 1.368 . S
C628 C627 1.523 . S
C629 C613 1.429 . S
C629 C625 1.429 . S
C629 C630 1.523 . S
C630 C614 1.368 . S
C630 C626 1.368 . S
C630 C629 1.523 . S
H631 C606 0.950 . S
H632 C608 0.950 . S
H633 C609 0.949 . S
H634 C611 0.950 . S
H635 C613 0.950 . S
C636 C637 1.349 . S
C636 C638 1.327 . S
C636 H661 0.950 . S
C637 C636 1.349 . S
C637 C653 1.349 . S
C638 C636 1.327 . S
C638 C657 1.429 . S
C638 H662 0.950 . S
C639 C656 1.574 . S
C639 C658 1.368 . S
C639 H663 0.949 . S
H640 C644 0.949 . S
C641 C642 1.349 . S
C641 C643 1.327 . S
C641 H664 0.950 . S
C642 C641 1.349 . S
C642 C654 1.349 . S
C643 C641 1.327 . S
C643 C659 1.429 . S
C643 H665 0.950 . S
C644 H640 0.949 . S
C644 C652 1.574 . S
C644 C660 1.368 . S
H645 C653 0.950 . S
H646 C651 0.950 . S
H647 C652 0.949 . S
H648 C654 0.950 . S
H649 C655 0.950 . S
H650 C656 0.949 . S
C651 H646 0.950 . S
C651 C653 1.327 . S
C651 C657 1.429 . S
C652 C644 1.574 . S
C652 H647 0.949 . S
C652 C658 1.368 1_455 S
C653 C637 1.349 . S
C653 H645 0.950 . S
C653 C651 1.327 . S
C654 C642 1.349 . S
C654 H648 0.950 . S
C654 C655 1.327 . S
C655 H649 0.950 . S
C655 C654 1.327 . S
C655 C659 1.429 . S
C656 C639 1.574 . S
C656 H650 0.949 . S
C656 C660 1.368 1_655 S
C657 C638 1.429 . S
C657 C651 1.429 . S
C657 C658 1.523 . S
C658 C639 1.368 . S
C658 C652 1.368 1_655 S
C658 C657 1.523 . S
C659 C643 1.429 . S
C659 C655 1.429 . S
C659 C660 1.523 . S
C660 C644 1.368 . S
C660 C656 1.368 1_455 S
C660 C659 1.523 . S
H661 C636 0.950 . S
H662 C638 0.950 . S
H663 C639 0.949 . S
H664 C641 0.950 . S
H665 C643 0.950 . S
C666 C667 1.367 . S
C666 C668 1.319 1_545 S
C666 H691 0.940 1_545 S
C667 C666 1.367 . S
C667 C683 1.349 . S
C668 C666 1.319 1_565 S
C668 C687 1.429 1_565 S
C668 H692 0.950 . S
C669 C686 1.574 . S
C669 C688 1.368 1_545 S
C669 H693 0.949 . S
H670 C674 0.949 . S
C671 C672 1.349 . S
C671 C673 1.327 . S
C671 H694 0.950 . S
C672 C671 1.349 . S
C672 C684 1.349 . S
C673 C671 1.327 . S
C673 C689 1.429 . S
C673 H695 0.950 . S
C674 H670 0.949 . S
C674 C682 1.574 . S
C674 C690 1.368 . S
H675 C683 0.950 . S
H676 C681 0.950 . S
H677 C682 0.949 . S
H678 C684 0.950 . S
H679 C685 0.950 . S
H680 C686 0.949 . S
C681 H676 0.950 . S
C681 C683 1.327 . S
C681 C687 1.429 . S
C682 C674 1.574 . S
C682 H677 0.949 . S
C682 C688 1.368 . S
C683 C667 1.349 . S
C683 H675 0.950 . S
C683 C681 1.327 . S
C684 C672 1.349 . S
C684 H678 0.950 . S
C684 C685 1.327 . S
C685 H679 0.950 . S
C685 C684 1.327 . S
C685 C689 1.429 . S
C686 C669 1.574 . S
C686 H680 0.949 . S
C686 C690 1.368 1_545 S
C687 C668 1.429 1_545 S
C687 C681 1.429 . S
C687 C688 1.523 1_545 S
C688 C669 1.368 1_565 S
C688 C682 1.368 . S
C688 C687 1.523 1_565 S
C689 C673 1.429 . S
C689 C685 1.429 . S
C689 C690 1.523 . S
C690 C674 1.368 . S
C690 C686 1.368 1_565 S
C690 C689 1.523 . S
H691 C666 0.940 1_565 S
H692 C668 0.950 . S
H693 C669 0.949 . S
H694 C671 0.950 . S
H695 C673 0.950 . S
C696 C697 1.349 . S
C696 C698 1.327 . S
C696 H721 0.950 . S
C697 C696 1.349 . S
C697 C713 1.349 . S
C698 C696 1.327 . S
C698 C717 1.429 . S
C698 H722 0.950 . S
C699 C716 1.574 . S
C699 C718 1.368 1_655 S
C699 H723 0.949 . S
H700 C704 0.949 . S
C701 C702 1.349 . S
C701 C703 1.327 . S
C701 H724 0.950 . S
C702 C701 1.349 . S
C702 C714 1.349 . S
C703 C701 1.327 . S
C703 C719 1.429 . S
C703 H725 0.950 . S
C704 H700 0.949 . S
C704 C712 1.574 . S
C704 C720 1.368 1_455 S
H705 C713 0.950 . S
H706 C711 0.950 1_655 S
H707 C712 0.949 . S
H708 C714 0.950 . S
H709 C715 0.950 . S
H710 C716 0.949 . S
C711 H706 0.950 1_455 S
C711 C713 1.327 . S
C711 C717 1.429 . S
C712 C704 1.574 . S
C712 H707 0.949 . S
C712 C718 1.368 . S
C713 C697 1.349 . S
C713 H705 0.950 . S
C713 C711 1.327 . S
C714 C702 1.349 . S
C714 H708 0.950 . S
C714 C715 1.327 . S
C715 H709 0.950 . S
C715 C714 1.327 . S
C715 C719 1.429 . S
C716 C699 1.574 . S
C716 H710 0.949 . S
C716 C720 1.368 . S
C717 C698 1.429 . S
C717 C711 1.429 . S
C717 C718 1.523 . S
C718 C699 1.368 1_455 S
C718 C712 1.368 . S
C718 C717 1.523 . S
C719 C703 1.429 . S
C719 C715 1.429 . S
C719 C720 1.523 . S
C720 C704 1.368 1_655 S
C720 C716 1.368 . S
C720 C719 1.523 . S
H721 C696 0.950 . S
H722 C698 0.950 . S
H723 C699 0.949 . S
H724 C701 0.950 . S
H725 C703 0.950 . S
C726 C727 1.349 . S
C726 C728 1.327 . S
C726 H751 0.950 . S
C727 C726 1.349 . S
C727 C743 1.349 . S
C728 C726 1.327 . S
C728 C747 1.429 . S
C728 H752 0.950 . S
C729 C746 1.574 . S
C729 C748 1.368 1_565 S
C729 H753 0.949 . S
H730 C734 0.949 . S
C731 C732 1.349 . S
C731 C733 1.327 . S
C731 H754 0.950 . S
C732 C731 1.349 . S
C732 C744 1.349 . S
C733 C731 1.327 . S
C733 C749 1.429 . S
C733 H755 0.950 . S
C734 H730 0.949 . S
C734 C742 1.574 . S
C734 C750 1.368 1_545 S
H735 C743 0.950 . S
H736 C741 0.950 1_565 S
H737 C742 0.949 . S
H738 C744 0.950 . S
H739 C745 0.950 1_545 S
H740 C746 0.949 . S
C741 H736 0.950 1_545 S
C741 C743 1.327 . S
C741 C747 1.429 . S
C742 C734 1.574 . S
C742 H737 0.949 . S
C742 C748 1.368 . S
C743 C727 1.349 . S
C743 H735 0.950 . S
C743 C741 1.327 . S
C744 C732 1.349 . S
C744 H738 0.950 . S
C744 C745 1.327 . S
C745 H739 0.950 1_565 S
C745 C744 1.327 . S
C745 C749 1.429 . S
C746 C729 1.574 . S
C746 H740 0.949 . S
C746 C750 1.368 . S
C747 C728 1.429 . S
C747 C741 1.429 . S
C747 C748 1.523 . S
C748 C729 1.368 1_545 S
C748 C742 1.368 . S
C748 C747 1.523 . S
C749 C733 1.429 . S
C749 C745 1.429 . S
C749 C750 1.523 . S
C750 C734 1.368 1_565 S
C750 C746 1.368 . S
C750 C749 1.523 . S
H751 C726 0.950 . S
H752 C728 0.950 . S
H753 C729 0.949 . S
H754 C731 0.950 . S
H755 C733 0.950 . S
C756 C757 1.349 . S
C756 C758 1.327 . S
C756 H781 0.950 . S
C757 C756 1.349 . S
C757 C773 1.349 . S
C758 C756 1.327 . S
C758 C777 1.429 . S
C758 H782 0.950 . S
C759 C776 1.574 . S
C759 C778 1.368 . S
C759 H783 0.949 . S
H760 C764 0.949 . S
C761 C762 1.349 . S
C761 C763 1.327 . S
C761 H784 0.950 . S
C762 C761 1.349 . S
C762 C774 1.349 . S
C763 C761 1.327 . S
C763 C779 1.429 . S
C763 H785 0.950 1_565 S
C764 H760 0.949 . S
C764 C772 1.574 1_565 S
C764 C780 1.367 . S
H765 C773 0.950 . S
H766 C771 0.950 . S
H767 C772 0.937 1_565 S
H768 C774 0.950 . S
H769 C775 0.950 . S
H770 C776 0.949 . S
C771 H766 0.950 . S
C771 C773 1.327 . S
C771 C777 1.429 . S
C772 C764 1.574 1_545 S
C772 H767 0.937 1_545 S
C772 C778 1.368 . S
C773 C757 1.349 . S
C773 H765 0.950 . S
C773 C771 1.327 . S
C774 C762 1.349 . S
C774 H768 0.950 . S
C774 C775 1.327 . S
C775 H769 0.950 . S
C775 C774 1.327 . S
C775 C779 1.429 . S
C776 C759 1.574 . S
C776 H770 0.949 . S
C776 C780 1.370 1_545 S
C777 C758 1.429 . S
C777 C771 1.429 . S
C777 C778 1.523 . S
C778 C759 1.368 . S
C778 C772 1.368 . S
C778 C777 1.523 . S
C779 C763 1.429 . S
C779 C775 1.429 . S
C779 C780 1.522 . S
C780 C764 1.367 . S
C780 C776 1.370 1_565 S
C780 C779 1.522 . S
H781 C756 0.950 . S
H782 C758 0.950 . S
H783 C759 0.949 . S
H784 C761 0.950 . S
H785 C763 0.950 1_545 S
C786 C787 1.349 . S
C786 C788 1.327 . S
C786 H811 0.950 . S
C787 C786 1.349 . S
C787 C803 1.349 . S
C788 C786 1.327 . S
C788 C807 1.429 . S
C788 H812 0.950 . S
C789 C806 1.574 . S
C789 C808 1.368 . S
C789 H813 0.949 . S
H790 C794 0.949 . S
C791 C792 1.349 . S
C791 C793 1.311 1_655 S
C791 H814 0.956 . S
C792 C791 1.349 . S
C792 C804 1.349 . S
C793 C791 1.311 1_455 S
C793 C809 1.415 1_455 S
C793 H815 0.982 . S
C794 H790 0.949 . S
C794 C802 1.574 . S
C794 C810 1.363 1_655 S
H795 C803 0.950 . S
H796 C801 0.950 . S
H797 C802 0.949 . S
H798 C804 0.950 . S
H799 C805 0.950 . S
H800 C806 0.949 . S
C801 H796 0.950 . S
C801 C803 1.327 . S
C801 C807 1.429 . S
C802 C794 1.574 . S
C802 H797 0.949 . S
C802 C808 1.368 1_655 S
C803 C787 1.349 . S
C803 H795 0.950 . S
C803 C801 1.327 . S
C804 C792 1.349 . S
C804 H798 0.950 . S
C804 C805 1.327 . S
C805 H799 0.950 . S
C805 C804 1.327 . S
C805 C809 1.429 . S
C806 C789 1.574 . S
C806 H800 0.949 . S
C806 C810 1.377 . S
C807 C788 1.429 . S
C807 C801 1.429 . S
C807 C808 1.523 . S
C808 C789 1.368 . S
C808 C802 1.368 1_455 S
C808 C807 1.523 . S
C809 C793 1.415 1_655 S
C809 C805 1.429 . S
C809 C810 1.519 1_655 S
C810 C794 1.363 1_455 S
C810 C806 1.377 . S
C810 C809 1.519 1_455 S
H811 C786 0.950 . S
H812 C788 0.950 . S
H813 C789 0.949 . S
H814 C791 0.956 . S
H815 C793 0.982 . S
C816 C817 1.349 . S
C816 C818 1.327 . S
C816 H841 0.950 . S
C817 C816 1.349 . S
C817 C833 1.349 . S
C818 C816 1.327 . S
C818 C837 1.429 . S
C818 H842 0.950 . S
C819 C836 1.574 . S
C819 C838 1.368 1_565 S
C819 H843 0.949 . S
H820 C824 0.949 . S
C821 C822 1.349 . S
C821 C823 1.327 . S
C821 H844 0.950 . S
C822 C821 1.349 . S
C822 C834 1.349 . S
C823 C821 1.327 . S
C823 C839 1.429 . S
C823 H845 0.950 . S
C824 H820 0.949 . S
C824 C832 1.574 1_565 S
C824 C840 1.368 . S
H825 C833 0.950 . S
H826 C831 0.950 . S
H827 C832 0.949 . S
H828 C834 0.950 . S
H829 C835 0.950 . S
H830 C836 0.949 . S
C831 H826 0.950 . S
C831 C833 1.327 . S
C831 C837 1.429 . S
C832 C824 1.574 1_545 S
C832 H827 0.949 . S
C832 C838 1.368 . S
C833 C817 1.349 . S
C833 H825 0.950 . S
C833 C831 1.327 . S
C834 C822 1.349 . S
C834 H828 0.950 . S
C834 C835 1.327 . S
C835 H829 0.950 . S
C835 C834 1.327 . S
C835 C839 1.429 . S
C836 C819 1.574 . S
C836 H830 0.949 . S
C836 C840 1.368 . S
C837 C818 1.429 . S
C837 C831 1.429 . S
C837 C838 1.523 . S
C838 C819 1.368 1_545 S
C838 C832 1.368 . S
C838 C837 1.523 . S
C839 C823 1.429 . S
C839 C835 1.429 . S
C839 C840 1.523 . S
C840 C824 1.368 . S
C840 C836 1.368 . S
C840 C839 1.523 . S
H841 C816 0.950 . S
H842 C818 0.950 . S
H843 C819 0.949 . S
H844 C821 0.950 . S
H845 C823 0.950 . S
C846 C847 1.349 . S
C846 C848 1.327 . S
C846 H871 0.950 . S
C847 C846 1.349 . S
C847 C863 1.349 . S
C848 C846 1.327 . S
C848 C867 1.429 . S
C848 H872 0.950 . S
C849 C866 1.574 1_655 S
C849 C868 1.368 . S
C849 H873 0.942 1_655 S
H850 C854 0.949 . S
C851 C852 1.349 . S
C851 C853 1.327 . S
C851 H874 0.950 . S
C852 C851 1.349 . S
C852 C864 1.349 . S
C853 C851 1.327 . S
C853 C869 1.429 . S
C853 H875 0.950 . S
C854 H850 0.949 . S
C854 C862 1.574 . S
C854 C870 1.391 . S
H855 C863 0.950 . S
H856 C861 0.950 . S
H857 C862 0.949 . S
H858 C864 0.950 . S
H859 C865 0.950 1_655 S
H860 C866 0.949 . S
C861 H856 0.950 . S
C861 C863 1.327 . S
C861 C867 1.429 . S
C862 C854 1.574 . S
C862 H857 0.949 . S
C862 C868 1.368 . S
C863 C847 1.349 . S
C863 H855 0.950 . S
C863 C861 1.327 . S
C864 C852 1.349 . S
C864 H858 0.950 . S
C864 C865 1.327 . S
C865 H859 0.950 1_455 S
C865 C864 1.327 . S
C865 C869 1.429 . S
C866 C849 1.574 1_455 S
C866 H860 0.949 . S
C866 C870 1.357 1_455 S
C867 C848 1.429 . S
C867 C861 1.429 . S
C867 C868 1.523 . S
C868 C849 1.368 . S
C868 C862 1.368 . S
C868 C867 1.523 . S
C869 C853 1.429 . S
C869 C865 1.429 . S
C869 C870 1.510 1_455 S
C870 C854 1.391 . S
C870 C866 1.357 1_655 S
C870 C869 1.510 1_655 S
H871 C846 0.950 . S
H872 C848 0.950 . S
H873 C849 0.942 1_455 S
H874 C851 0.950 . S
H875 C853 0.950 . S
C876 C877 1.349 . S
C876 C878 1.327 . S
C876 H901 0.950 . S
C877 C876 1.349 . S
C877 C893 1.349 . S
C878 C876 1.327 . S
C878 C897 1.429 . S
C878 H902 0.950 1_554 S
C879 C896 1.574 . S
C879 C898 1.368 . S
C879 H903 0.949 . S
H880 C884 0.949 . S
C881 C882 1.349 . S
C881 C883 1.327 1_556 S
C881 H904 0.950 1_556 S
C882 C881 1.349 . S
C882 C894 1.349 . S
C883 C881 1.327 1_554 S
C883 C899 1.429 1_554 S
C883 H905 0.950 . S
C884 H880 0.949 . S
C884 C892 1.574 . S
C884 C900 1.368 . S
H885 C893 0.950 . S
H886 C891 0.950 . S
H887 C892 0.949 . S
H888 C894 0.950 . S
H889 C895 0.950 . S
H890 C896 0.949 . S
C891 H886 0.950 . S
C891 C893 1.327 . S
C891 C897 1.429 . S
C892 C884 1.574 . S
C892 H887 0.949 . S
C892 C898 1.368 1_556 S
C893 C877 1.349 . S
C893 H885 0.950 . S
C893 C891 1.327 . S
C894 C882 1.349 . S
C894 H888 0.950 . S
C894 C895 1.327 . S
C895 H889 0.950 . S
C895 C894 1.327 . S
C895 C899 1.429 . S
C896 C879 1.574 . S
C896 H890 0.949 . S
C896 C900 1.368 1_554 S
C897 C878 1.429 . S
C897 C891 1.429 . S
C897 C898 1.523 . S
C898 C879 1.368 . S
C898 C892 1.368 1_554 S
C898 C897 1.523 . S
C899 C883 1.429 1_556 S
C899 C895 1.429 . S
C899 C900 1.523 . S
C900 C884 1.368 . S
C900 C896 1.368 1_556 S
C900 C899 1.523 . S
H901 C876 0.950 . S
H902 C878 0.950 1_556 S
H903 C879 0.949 . S
H904 C881 0.950 1_554 S
H905 C883 0.950 . S
C906 C907 1.349 . S
C906 C908 1.327 . S
C906 H931 0.950 . S
C907 C906 1.349 . S
C907 C923 1.349 . S
C908 C906 1.327 . S
C908 C927 1.429 . S
C908 H932 0.950 1_556 S
C909 C926 1.574 . S
C909 C928 1.368 . S
C909 H933 0.949 . S
H910 C914 0.949 . S
C911 C912 1.349 . S
C911 C913 1.327 . S
C911 H934 0.950 . S
C912 C911 1.349 . S
C912 C924 1.349 . S
C913 C911 1.327 . S
C913 C929 1.429 . S
C913 H935 0.950 1_554 S
C914 H910 0.949 . S
C914 C922 1.574 . S
C914 C930 1.368 . S
H915 C923 0.950 . S
H916 C921 0.950 . S
H917 C922 0.949 . S
H918 C924 0.950 . S
H919 C925 0.950 . S
H920 C926 0.949 . S
C921 H916 0.950 . S
C921 C923 1.327 . S
C921 C927 1.429 . S
C922 C914 1.574 . S
C922 H917 0.949 . S
C922 C928 1.368 1_554 S
C923 C907 1.349 . S
C923 H915 0.950 . S
C923 C921 1.327 . S
C924 C912 1.349 . S
C924 H918 0.950 . S
C924 C925 1.327 . S
C925 H919 0.950 . S
C925 C924 1.327 . S
C925 C929 1.429 . S
C926 C909 1.574 . S
C926 H920 0.949 . S
C926 C930 1.368 1_556 S
C927 C908 1.429 . S
C927 C921 1.429 . S
C927 C928 1.523 . S
C928 C909 1.368 . S
C928 C922 1.368 1_556 S
C928 C927 1.523 . S
C929 C913 1.429 . S
C929 C925 1.429 . S
C929 C930 1.523 . S
C930 C914 1.368 . S
C930 C926 1.368 1_554 S
C930 C929 1.523 . S
H931 C906 0.950 . S
H932 C908 0.950 1_554 S
H933 C909 0.949 . S
H934 C911 0.950 . S
H935 C913 0.950 1_556 S
C936 C937 1.349 . S
C936 C938 1.327 . S
C936 H961 0.950 . S
C937 C936 1.349 . S
C937 C953 1.349 . S
C938 C936 1.327 . S
C938 C957 1.429 . S
C938 H962 0.950 . S
C939 C956 1.574 1_556 S
C939 C958 1.368 . S
C939 H963 0.949 . S
H940 C944 0.949 . S
C941 C942 1.349 . S
C941 C943 1.327 . S
C941 H964 0.950 . S
C942 C941 1.349 . S
C942 C954 1.349 . S
C943 C941 1.327 . S
C943 C959 1.429 . S
C943 H965 0.950 . S
C944 H940 0.949 . S
C944 C952 1.574 . S
C944 C960 1.368 1_556 S
H945 C953 0.950 . S
H946 C951 0.950 . S
H947 C952 0.949 . S
H948 C954 0.950 . S
H949 C955 0.950 . S
H950 C956 0.949 . S
C951 H946 0.950 . S
C951 C953 1.327 . S
C951 C957 1.429 . S
C952 C944 1.574 . S
C952 H947 0.949 . S
C952 C958 1.368 . S
C953 C937 1.349 . S
C953 H945 0.950 . S
C953 C951 1.327 . S
C954 C942 1.349 . S
C954 H948 0.950 . S
C954 C955 1.327 . S
C955 H949 0.950 . S
C955 C954 1.327 . S
C955 C959 1.429 . S
C956 C939 1.574 1_554 S
C956 H950 0.949 . S
C956 C960 1.368 . S
C957 C938 1.429 . S
C957 C951 1.429 . S
C957 C958 1.523 . S
C958 C939 1.368 . S
C958 C952 1.368 . S
C958 C957 1.523 . S
C959 C943 1.429 . S
C959 C955 1.429 . S
C959 C960 1.523 . S
C960 C944 1.368 1_554 S
C960 C956 1.368 . S
C960 C959 1.523 . S
H961 C936 0.950 . S
H962 C938 0.950 . S
H963 C939 0.949 . S
H964 C941 0.950 . S
H965 C943 0.950 . S
C966 C967 1.349 . S
C966 C968 1.327 . S
C966 H991 0.950 . S
C967 C966 1.349 . S
C967 C983 1.349 . S
C968 C966 1.327 . S
C968 C987 1.429 . S
C968 H992 0.950 . S
C969 C986 1.574 . S
C969 C988 1.368 1_556 S
C969 H993 0.949 . S
H970 C974 0.949 . S
C971 C972 1.349 . S
C971 C973 1.327 . S
C971 H994 0.950 . S
C972 C971 1.349 . S
C972 C984 1.349 . S
C973 C971 1.327 . S
C973 C989 1.429 . S
C973 H995 0.950 . S
C974 H970 0.949 . S
C974 C982 1.574 . S
C974 C990 1.368 1_554 S
H975 C983 0.950 . S
H976 C981 0.950 . S
H977 C982 0.949 . S
H978 C984 0.950 . S
H979 C985 0.950 . S
H980 C986 0.949 . S
C981 H976 0.950 . S
C981 C983 1.327 . S
C981 C987 1.429 . S
C982 C974 1.574 . S
C982 H977 0.949 . S
C982 C988 1.368 . S
C983 C967 1.349 . S
C983 H975 0.950 . S
C983 C981 1.327 . S
C984 C972 1.349 . S
C984 H978 0.950 . S
C984 C985 1.327 . S
C985 H979 0.950 . S
C985 C984 1.327 . S
C985 C989 1.429 . S
C986 C969 1.574 . S
C986 H980 0.949 . S
C986 C990 1.368 . S
C987 C968 1.429 . S
C987 C981 1.429 . S
C987 C988 1.523 . S
C988 C969 1.368 1_554 S
C988 C982 1.368 . S
C988 C987 1.523 . S
C989 C973 1.429 . S
C989 C985 1.429 . S
C989 C990 1.523 . S
C990 C974 1.368 1_556 S
C990 C986 1.368 . S
C990 C989 1.523 . S
H991 C966 0.950 . S
H992 C968 0.950 . S
H993 C969 0.949 . S
H994 C971 0.950 . S
H995 C973 0.950 . S
C277 N12 1.360 . S
C282 C177 1.383 . S
C307 N25 1.296 . S
C312 C108 1.335 . S
C337 N117 1.329 . S
C342 C62 1.369 . S
C367 N140 1.226 . S
C372 N71 1.209 . S
C397 N186 1.178 . S
C402 N163 1.193 . S
C427 C223 1.359 . S
C432 N94 1.325 . S
C457 N242 1.402 . S
C462 C131 1.412 . S
C487 C260 1.573 . S
C492 C154 1.570 . S
C517 C39 1.388 . S
C522 N209 1.361 . S
C547 C237 1.362 . S
C552 N48 1.335 . S
C577 C85 1.355 . S
C582 N265 1.341 . S
C607 C200 1.561 . S
C612 C7 1.559 . S
C637 C145 1.586 . S
C642 C16 1.561 . S
C667 N173 1.752 . S
C672 C30 1.816 . S
C697 N104 1.342 . S
C702 N58 1.340 . S
C727 C76 1.951 . S
C732 C122 1.948 . S
C757 C168 1.598 . S
C762 N127 1.559 . S
C787 C99 1.797 . S
C792 N150 1.731 . S
C817 N81 1.445 . S
C822 N35 1.455 . S
C847 C53 1.825 . S
C852 N2 1.793 . S
C877 N196 1.432 . S
C882 N219 1.433 . S
C907 C214 1.828 . S
C912 C246 1.838 . S
C937 N255 1.443 . S
C942 N232 1.445 . S
C967 C191 1.797 . S
C972 C269 1.804 . S
