# Generated by pormake.
# Topology ukn, (4)-cn, num edge types: 1
# Building blocks:
#     Node 0, Type 0, BuildingBlock: NAHDIM_clean_sbu_0, # of connection points: 4
#     Node 1, Type 0, BuildingBlock: NAHDIM_clean_sbu_0, # of connection points: 4
#     Node 2, Type 0, BuildingBlock: NAHDIM_clean_sbu_0, # of connection points: 4
#     Node 3, Type 0, BuildingBlock: NAHDIM_clean_sbu_0, # of connection points: 4
#     Node 4, Type 0, BuildingBlock: NAHDIM_clean_sbu_0, # of connection points: 4
#     Node 5, Type 0, BuildingBlock: NAHDIM_clean_sbu_0, # of connection points: 4
#     Node 6, Type 0, BuildingBlock: NAHDIM_clean_sbu_0, # of connection points: 4
#     Node 7, Type 0, BuildingBlock: NAHDIM_clean_sbu_0, # of connection points: 4
#     Node 8, Type 0, BuildingBlock: NAHDIM_clean_sbu_0, # of connection points: 4
#     Node 9, Type 0, BuildingBlock: NAHDIM_clean_sbu_0, # of connection points: 4
#     Node 10, Type 0, BuildingBlock: NAHDIM_clean_sbu_0, # of connection points: 4
#     Node 11, Type 0, BuildingBlock: NAHDIM_clean_sbu_0, # of connection points: 4
#     Node 12, Type 0, BuildingBlock: NAHDIM_clean_sbu_0, # of connection points: 4
#     Node 13, Type 0, BuildingBlock: NAHDIM_clean_sbu_0, # of connection points: 4
#     Node 14, Type 0, BuildingBlock: NAHDIM_clean_sbu_0, # of connection points: 4
#     Node 15, Type 0, BuildingBlock: NAHDIM_clean_sbu_0, # of connection points: 4
#     Node 16, Type 0, BuildingBlock: NAHDIM_clean_sbu_0, # of connection points: 4
#     Node 17, Type 0, BuildingBlock: NAHDIM_clean_sbu_0, # of connection points: 4
#     Node 18, Type 0, BuildingBlock: NAHDIM_clean_sbu_0, # of connection points: 4
#     Node 19, Type 0, BuildingBlock: NAHDIM_clean_sbu_0, # of connection points: 4
#     Node 20, Type 0, BuildingBlock: NAHDIM_clean_sbu_0, # of connection points: 4
#     Node 21, Type 0, BuildingBlock: NAHDIM_clean_sbu_0, # of connection points: 4
#     Node 22, Type 0, BuildingBlock: NAHDIM_clean_sbu_0, # of connection points: 4
#     Node 23, Type 0, BuildingBlock: NAHDIM_clean_sbu_0, # of connection points: 4
#     Node 24, Type 0, BuildingBlock: NAHDIM_clean_sbu_0, # of connection points: 4
#     Node 25, Type 0, BuildingBlock: NAHDIM_clean_sbu_0, # of connection points: 4
#     Node 26, Type 0, BuildingBlock: NAHDIM_clean_sbu_0, # of connection points: 4
#     Node 27, Type 0, BuildingBlock: NAHDIM_clean_sbu_0, # of connection points: 4
#     Node 28, Type 0, BuildingBlock: NAHDIM_clean_sbu_0, # of connection points: 4
#     Node 29, Type 0, BuildingBlock: NAHDIM_clean_sbu_0, # of connection points: 4
#     Node 30, Type 0, BuildingBlock: NAHDIM_clean_sbu_0, # of connection points: 4
#     Node 31, Type 0, BuildingBlock: NAHDIM_clean_sbu_0, # of connection points: 4
#     Node 32, Type 0, BuildingBlock: NAHDIM_clean_sbu_0, # of connection points: 4
#     Node 33, Type 0, BuildingBlock: NAHDIM_clean_sbu_0, # of connection points: 4
#     Node 34, Type 0, BuildingBlock: NAHDIM_clean_sbu_0, # of connection points: 4
#     Node 35, Type 0, BuildingBlock: NAHDIM_clean_sbu_0, # of connection points: 4
#     Edge 36, Type (0, 0), BuildingBlock: CIFDUS_clean_linker_0, # of connection points: 2
#     Edge 37, Type (0, 0), BuildingBlock: CIFDUS_clean_linker_0, # of connection points: 2
#     Edge 38, Type (0, 0), BuildingBlock: CIFDUS_clean_linker_0, # of connection points: 2
#     Edge 39, Type (0, 0), BuildingBlock: CIFDUS_clean_linker_0, # of connection points: 2
#     Edge 40, Type (0, 0), BuildingBlock: CIFDUS_clean_linker_0, # of connection points: 2
#     Edge 41, Type (0, 0), BuildingBlock: CIFDUS_clean_linker_0, # of connection points: 2
#     Edge 42, Type (0, 0), BuildingBlock: CIFDUS_clean_linker_0, # of connection points: 2
#     Edge 43, Type (0, 0), BuildingBlock: CIFDUS_clean_linker_0, # of connection points: 2
#     Edge 44, Type (0, 0), BuildingBlock: CIFDUS_clean_linker_0, # of connection points: 2
#     Edge 45, Type (0, 0), BuildingBlock: CIFDUS_clean_linker_0, # of connection points: 2
#     Edge 46, Type (0, 0), BuildingBlock: CIFDUS_clean_linker_0, # of connection points: 2
#     Edge 47, Type (0, 0), BuildingBlock: CIFDUS_clean_linker_0, # of connection points: 2
#     Edge 48, Type (0, 0), BuildingBlock: CIFDUS_clean_linker_0, # of connection points: 2
#     Edge 49, Type (0, 0), BuildingBlock: CIFDUS_clean_linker_0, # of connection points: 2
#     Edge 50, Type (0, 0), BuildingBlock: CIFDUS_clean_linker_0, # of connection points: 2
#     Edge 51, Type (0, 0), BuildingBlock: CIFDUS_clean_linker_0, # of connection points: 2
#     Edge 52, Type (0, 0), BuildingBlock: CIFDUS_clean_linker_0, # of connection points: 2
#     Edge 53, Type (0, 0), BuildingBlock: CIFDUS_clean_linker_0, # of connection points: 2
#     Edge 54, Type (0, 0), BuildingBlock: CIFDUS_clean_linker_0, # of connection points: 2
#     Edge 55, Type (0, 0), BuildingBlock: CIFDUS_clean_linker_0, # of connection points: 2
#     Edge 56, Type (0, 0), BuildingBlock: CIFDUS_clean_linker_0, # of connection points: 2
#     Edge 57, Type (0, 0), BuildingBlock: CIFDUS_clean_linker_0, # of connection points: 2
#     Edge 58, Type (0, 0), BuildingBlock: CIFDUS_clean_linker_0, # of connection points: 2
#     Edge 59, Type (0, 0), BuildingBlock: CIFDUS_clean_linker_0, # of connection points: 2
#     Edge 60, Type (0, 0), BuildingBlock: CIFDUS_clean_linker_0, # of connection points: 2
#     Edge 61, Type (0, 0), BuildingBlock: CIFDUS_clean_linker_0, # of connection points: 2
#     Edge 62, Type (0, 0), BuildingBlock: CIFDUS_clean_linker_0, # of connection points: 2
#     Edge 63, Type (0, 0), BuildingBlock: CIFDUS_clean_linker_0, # of connection points: 2
#     Edge 64, Type (0, 0), BuildingBlock: CIFDUS_clean_linker_0, # of connection points: 2
#     Edge 65, Type (0, 0), BuildingBlock: CIFDUS_clean_linker_0, # of connection points: 2
#     Edge 66, Type (0, 0), BuildingBlock: CIFDUS_clean_linker_0, # of connection points: 2
#     Edge 67, Type (0, 0), BuildingBlock: CIFDUS_clean_linker_0, # of connection points: 2
#     Edge 68, Type (0, 0), BuildingBlock: CIFDUS_clean_linker_0, # of connection points: 2
#     Edge 69, Type (0, 0), BuildingBlock: CIFDUS_clean_linker_0, # of connection points: 2
#     Edge 70, Type (0, 0), BuildingBlock: CIFDUS_clean_linker_0, # of connection points: 2
#     Edge 71, Type (0, 0), BuildingBlock: CIFDUS_clean_linker_0, # of connection points: 2
#     Edge 72, Type (0, 0), BuildingBlock: CIFDUS_clean_linker_0, # of connection points: 2
#     Edge 73, Type (0, 0), BuildingBlock: CIFDUS_clean_linker_0, # of connection points: 2
#     Edge 74, Type (0, 0), BuildingBlock: CIFDUS_clean_linker_0, # of connection points: 2
#     Edge 75, Type (0, 0), BuildingBlock: CIFDUS_clean_linker_0, # of connection points: 2
#     Edge 76, Type (0, 0), BuildingBlock: CIFDUS_clean_linker_0, # of connection points: 2
#     Edge 77, Type (0, 0), BuildingBlock: CIFDUS_clean_linker_0, # of connection points: 2
#     Edge 78, Type (0, 0), BuildingBlock: CIFDUS_clean_linker_0, # of connection points: 2
#     Edge 79, Type (0, 0), BuildingBlock: CIFDUS_clean_linker_0, # of connection points: 2
#     Edge 80, Type (0, 0), BuildingBlock: CIFDUS_clean_linker_0, # of connection points: 2
#     Edge 81, Type (0, 0), BuildingBlock: CIFDUS_clean_linker_0, # of connection points: 2
#     Edge 82, Type (0, 0), BuildingBlock: CIFDUS_clean_linker_0, # of connection points: 2
#     Edge 83, Type (0, 0), BuildingBlock: CIFDUS_clean_linker_0, # of connection points: 2
#     Edge 84, Type (0, 0), BuildingBlock: CIFDUS_clean_linker_0, # of connection points: 2
#     Edge 85, Type (0, 0), BuildingBlock: CIFDUS_clean_linker_0, # of connection points: 2
#     Edge 86, Type (0, 0), BuildingBlock: CIFDUS_clean_linker_0, # of connection points: 2
#     Edge 87, Type (0, 0), BuildingBlock: CIFDUS_clean_linker_0, # of connection points: 2
#     Edge 88, Type (0, 0), BuildingBlock: CIFDUS_clean_linker_0, # of connection points: 2
#     Edge 89, Type (0, 0), BuildingBlock: CIFDUS_clean_linker_0, # of connection points: 2
#     Edge 90, Type (0, 0), BuildingBlock: CIFDUS_clean_linker_0, # of connection points: 2
#     Edge 91, Type (0, 0), BuildingBlock: CIFDUS_clean_linker_0, # of connection points: 2
#     Edge 92, Type (0, 0), BuildingBlock: CIFDUS_clean_linker_0, # of connection points: 2
#     Edge 93, Type (0, 0), BuildingBlock: CIFDUS_clean_linker_0, # of connection points: 2
#     Edge 94, Type (0, 0), BuildingBlock: CIFDUS_clean_linker_0, # of connection points: 2
#     Edge 95, Type (0, 0), BuildingBlock: CIFDUS_clean_linker_0, # of connection points: 2
#     Edge 96, Type (0, 0), BuildingBlock: CIFDUS_clean_linker_0, # of connection points: 2
#     Edge 97, Type (0, 0), BuildingBlock: CIFDUS_clean_linker_0, # of connection points: 2
#     Edge 98, Type (0, 0), BuildingBlock: CIFDUS_clean_linker_0, # of connection points: 2
#     Edge 99, Type (0, 0), BuildingBlock: CIFDUS_clean_linker_0, # of connection points: 2
#     Edge 100, Type (0, 0), BuildingBlock: CIFDUS_clean_linker_0, # of connection points: 2
#     Edge 101, Type (0, 0), BuildingBlock: CIFDUS_clean_linker_0, # of connection points: 2
#     Edge 102, Type (0, 0), BuildingBlock: CIFDUS_clean_linker_0, # of connection points: 2
#     Edge 103, Type (0, 0), BuildingBlock: CIFDUS_clean_linker_0, # of connection points: 2
#     Edge 104, Type (0, 0), BuildingBlock: CIFDUS_clean_linker_0, # of connection points: 2
#     Edge 105, Type (0, 0), BuildingBlock: CIFDUS_clean_linker_0, # of connection points: 2
#     Edge 106, Type (0, 0), BuildingBlock: CIFDUS_clean_linker_0, # of connection points: 2
#     Edge 107, Type (0, 0), BuildingBlock: CIFDUS_clean_linker_0, # of connection points: 2
# Relax obj value: 0.143
# Max RMSD: 0.134
# Mean RMSD: 0.134
data_MOF--net-ukn--node1-NAHDIM_clean_sbu_0--edge1-CIFDUS_clean_linker_0
_symmetry_space_group_name_H-M    P1
_symmetry_Int_Tables_number       1
_symmetry_cell_setting            triclinic
loop_
_symmetry_equiv_pos_as_xyz
'x, y, z'
_cell_length_a     96.197474
_cell_length_b     96.190373
_cell_length_c     21.022638
_cell_angle_alpha  90.023327
_cell_angle_beta   89.975576
_cell_angle_gamma 120.01117
loop_
_atom_site_label
_atom_site_type_symbol
_atom_site_fract_x
_atom_site_fract_y
_atom_site_fract_z
_atom_type_partial_charge
C0 C 0.04279 0.28178 0.07475 0.0
O1 O 0.05008 0.29707 0.08997 0.0
O2 O 0.08076 0.30265 0.15769 0.0
Zn3 Zn 0.0751 0.28966 0.07618 0.0
O4 O 0.08201 0.30458 0.00121 0.0
C5 C 0.0925 0.27411 0.12121 0.0
O6 O 0.08836 0.27675 0.17755 0.0
O7 O 0.05116 0.27501 0.06795 0.0
C8 C 0.09667 0.31264 0.98481 0.0
O9 O 0.1075 0.31134 0.0182 0.0
C10 C 0.08378 0.31712 0.1589 0.0
O11 O 0.08292 0.32388 0.10591 0.0
O12 O 0.08742 0.27781 0.07186 0.0
C13 C 0.742 0.78434 0.07885 0.0
O14 O 0.74431 0.78967 0.13766 0.0
O15 O 0.70475 0.77944 0.16333 0.0
Zn16 Zn 0.71451 0.78968 0.07869 0.0
O17 O 0.69745 0.78295 0.01155 0.0
C18 C 0.7302 0.82026 0.14307 0.0
O19 O 0.72959 0.8114 0.19173 0.0
O20 O 0.73033 0.78345 0.04723 0.0
C21 C 0.68718 0.78758 0.01167 0.0
O22 O 0.68735 0.79681 0.05812 0.0
C23 C 0.69022 0.76852 0.17149 0.0
O24 O 0.68082 0.76236 0.12178 0.0
O25 O 0.72503 0.81362 0.08926 0.0
C26 C 0.22913 0.95687 0.0524 0.0
O27 O 0.238 0.95001 0.05157 0.0
O28 O 0.21113 0.91955 0.16209 0.0
Zn29 Zn 0.20592 0.92455 0.07478 0.0
O30 O 0.21623 0.91784 0.00686 0.0
C31 C 0.17201 0.90489 0.10545 0.0
O32 O 0.17719 0.90765 0.16446 0.0
O33 O 0.21421 0.94826 0.06392 0.0
C34 C 0.20898 0.90382 0.98295 0.0
O35 O 0.19476 0.89327 0.0049 0.0
C36 C 0.22336 0.91821 0.17404 0.0
O37 O 0.23364 0.92065 0.12824 0.0
O38 O 0.182 0.91161 0.06043 0.0
C39 C 0.28127 0.04872 0.94605 0.0
O40 O 0.29668 0.05665 0.93275 0.0
O41 O 0.29808 0.08224 0.83984 0.0
Zn42 Zn 0.28783 0.07978 0.92616 0.0
O43 O 0.30504 0.0884 0.99338 0.0
C44 C 0.27264 0.09784 0.88228 0.0
O45 O 0.27473 0.09353 0.82539 0.0
O46 O 0.27354 0.05626 0.94529 0.0
C47 C 0.30229 0.09257 0.04715 0.0
O48 O 0.28825 0.09136 0.05755 0.0
C49 C 0.31238 0.09342 0.82946 0.0
O50 O 0.32035 0.1036 0.87535 0.0
O51 O 0.27652 0.09267 0.93086 0.0
C52 C 0.9524 0.22968 0.95278 0.0
O53 O 0.94484 0.23778 0.96028 0.0
O54 O 0.91809 0.21757 0.83434 0.0
Zn55 Zn 0.92127 0.2075 0.9131 0.0
O56 O 0.91263 0.21419 0.98699 0.0
C57 C 0.90588 0.17666 0.85041 0.0
O58 O 0.91299 0.18542 0.79996 0.0
O59 O 0.94472 0.21557 0.92991 0.0
C60 C 0.90574 0.20544 0.03511 0.0
O61 O 0.90386 0.19095 0.03803 0.0
C62 C 0.90429 0.21613 0.82796 0.0
O63 O 0.89339 0.2084 0.87194 0.0
O64 O 0.90834 0.18348 0.90433 0.0
C65 C 0.77977 0.73993 0.88779 0.0
O66 O 0.77445 0.73211 0.83391 0.0
O67 O 0.77647 0.70332 0.83836 0.0
Zn68 Zn 0.79011 0.71672 0.91223 0.0
O69 O 0.78185 0.7042 0.9935 0.0
C70 C 0.8192 0.72465 0.8434 0.0
O71 O 0.8103 0.72346 0.79403 0.0
O72 O 0.78764 0.73608 0.92531 0.0
C73 C 0.78643 0.69508 0.0179 0.0
O74 O 0.79723 0.69291 0.98833 0.0
C75 C 0.77626 0.69043 0.82324 0.0
O76 O 0.78491 0.68595 0.85653 0.0
O77 O 0.81325 0.72273 0.89891 0.0
C78 C 0.95349 0.72239 0.95908 0.0
O79 O 0.94604 0.70677 0.96754 0.0
O80 O 0.9213 0.70159 0.82697 0.0
Zn81 Zn 0.92276 0.71302 0.90962 0.0
O82 O 0.91313 0.69652 0.97873 0.0
C83 C 0.90091 0.72283 0.85789 0.0
O84 O 0.90265 0.71655 0.80506 0.0
O85 O 0.94591 0.72856 0.93304 0.0
C86 C 0.89853 0.68543 0.97678 0.0
O87 O 0.8896 0.68469 0.92814 0.0
C88 C 0.92175 0.6886 0.82545 0.0
O89 O 0.9239 0.68277 0.87866 0.0
O90 O 0.90909 0.72351 0.90654 0.0
C91 C 0.27515 0.23316 0.92253 0.0
O92 O 0.29058 0.24127 0.90992 0.0
O93 O 0.2973 0.21821 0.83746 0.0
Zn94 Zn 0.28358 0.2094 0.91681 0.0
O95 O 0.29757 0.21679 0.99455 0.0
C96 C 0.26868 0.178 0.85988 0.0
O97 O 0.27008 0.1863 0.80826 0.0
O98 O 0.26826 0.21794 0.92594 0.0
C99 C 0.30778 0.2125 0.00728 0.0
O100 O 0.30949 0.20283 0.968 0.0
C101 C 0.31177 0.22969 0.83747 0.0
O102 O 0.31842 0.23686 0.89133 0.0
O103 O 0.27269 0.18524 0.9131 0.0
C104 C 0.76733 0.04417 0.92755 0.0
O105 O 0.75975 0.05172 0.90991 0.0
O106 O 0.78401 0.07823 0.82742 0.0
Zn107 Zn 0.79161 0.07559 0.91383 0.0
O108 O 0.78281 0.08393 0.9814 0.0
C109 C 0.82464 0.09381 0.86936 0.0
O110 O 0.8181 0.08957 0.81267 0.0
O111 O 0.78254 0.05211 0.93206 0.0
C112 C 0.79068 0.0903 0.03198 0.0
O113 O 0.80485 0.09163 0.03965 0.0
C114 C 0.7797 0.08857 0.81773 0.0
O115 O 0.78031 0.09782 0.86489 0.0
O116 O 0.81573 0.08846 0.91827 0.0
C117 C 0.72745 0.95365 0.05004 0.0
O118 O 0.712 0.94598 0.03758 0.0
O119 O 0.70692 0.9186 0.17738 0.0
Zn120 Zn 0.7185 0.92246 0.09338 0.0
O121 O 0.70196 0.91361 0.02407 0.0
C122 C 0.73257 0.90352 0.13704 0.0
O123 O 0.72949 0.9069 0.19406 0.0
O124 O 0.73355 0.94605 0.07647 0.0
C125 C 0.69058 0.89914 0.0258 0.0
O126 O 0.68967 0.88999 0.07386 0.0
C127 C 0.69441 0.91985 0.18202 0.0
O128 O 0.68959 0.92456 0.13229 0.0
O129 O 0.72975 0.90966 0.08874 0.0
C130 C 0.0436 0.76176 0.08667 0.0
O131 O 0.05151 0.75418 0.09838 0.0
O132 O 0.07865 0.77641 0.18168 0.0
Zn133 Zn 0.07485 0.78687 0.10576 0.0
O134 O 0.08503 0.78233 0.03096 0.0
C135 C 0.09188 0.82126 0.07932 0.0
O136 O 0.08885 0.81667 0.01966 0.0
O137 O 0.05115 0.77702 0.08841 0.0
C138 C 0.08068 0.78208 0.97372 0.0
O139 O 0.0691 0.78515 0.96134 0.0
C140 C 0.09313 0.78001 0.19105 0.0
O141 O 0.10427 0.79015 0.15202 0.0
O142 O 0.08628 0.81071 0.12296 0.0
C143 C 0.22438 0.27241 0.05045 0.0
O144 O 0.23266 0.288 0.04136 0.0
O145 O 0.21277 0.29577 0.16787 0.0
Zn146 Zn 0.20305 0.28256 0.08816 0.0
O147 O 0.21005 0.29681 0.01084 0.0
C148 C 0.1719 0.26892 0.14788 0.0
O149 O 0.18024 0.27043 0.19947 0.0
O150 O 0.21038 0.26636 0.07431 0.0
C151 C 0.20973 0.30979 0.00512 0.0
O152 O 0.20442 0.31477 0.05251 0.0
C153 C 0.22608 0.30888 0.17042 0.0
O154 O 0.23486 0.31437 0.11877 0.0
O155 O 0.179 0.27245 0.09433 0.0
C156 C 0.70758 0.60645 0.36775 0.0
O157 O 0.71597 0.622 0.35789 0.0
O158 O 0.74225 0.62458 0.49723 0.0
Zn159 Zn 0.7381 0.61283 0.41307 0.0
O160 O 0.74947 0.62794 0.34003 0.0
C161 C 0.76205 0.60593 0.44656 0.0
O162 O 0.76689 0.61987 0.47409 0.0
O163 O 0.71444 0.59945 0.39298 0.0
C164 C 0.75299 0.64247 0.3335 0.0
O165 O 0.74899 0.64939 0.37803 0.0
C166 C 0.73756 0.63375 0.52033 0.0
O167 O 0.7277 0.63673 0.48767 0.0
O168 O 0.74871 0.59928 0.41715 0.0
C169 C 0.41047 0.12127 0.43784 0.0
O170 O 0.40762 0.12258 0.49804 0.0
O171 O 0.37862 0.12666 0.50164 0.0
Zn172 Zn 0.38849 0.13327 0.41414 0.0
O173 O 0.37117 0.1243 0.3477 0.0
C174 C 0.4038 0.1663 0.45628 0.0
O175 O 0.40296 0.15992 0.51239 0.0
O176 O 0.4039 0.12542 0.39525 0.0
C177 C 0.35979 0.12741 0.3497 0.0
O178 O 0.35929 0.13616 0.39668 0.0
C179 C 0.36506 0.1143 0.51262 0.0
O180 O 0.35712 0.10454 0.46556 0.0
O181 O 0.39916 0.15729 0.4075 0.0
C182 C 0.89249 0.28294 0.36217 0.0
O183 O 0.8995 0.27466 0.34713 0.0
O184 O 0.87931 0.24934 0.49464 0.0
Zn185 Zn 0.87019 0.25249 0.41306 0.0
O186 O 0.87579 0.24224 0.34181 0.0
C187 C 0.83889 0.23843 0.47264 0.0
O188 O 0.84737 0.24502 0.52423 0.0
O189 O 0.87932 0.27601 0.39279 0.0
C190 C 0.87252 0.22772 0.34395 0.0
O191 O 0.8651 0.21898 0.39408 0.0
C192 C 0.89286 0.25006 0.49728 0.0
O193 O 0.90172 0.25372 0.44571 0.0
O194 O 0.8461 0.24074 0.41967 0.0
C195 C 0.94458 0.37316 0.23781 0.0
O196 O 0.95955 0.38031 0.21823 0.0
O197 O 0.962 0.41121 0.14893 0.0
Zn198 Zn 0.9519 0.40549 0.23648 0.0
O199 O 0.96904 0.41323 0.30403 0.0
C200 C 0.93494 0.4226 0.20668 0.0
O201 O 0.93688 0.41951 0.1475 0.0
O202 O 0.93798 0.38158 0.24742 0.0
C203 C 0.975 0.4273 0.32698 0.0
O204 O 0.97041 0.43707 0.30404 0.0
C205 C 0.97635 0.41461 0.13765 0.0
O206 O 0.98512 0.414 0.18425 0.0
O207 O 0.93947 0.41692 0.25148 0.0
C208 C 0.61777 0.5712 0.2422 0.0
O209 O 0.61031 0.57923 0.23058 0.0
O210 O 0.58216 0.55676 0.14908 0.0
Zn211 Zn 0.58614 0.54604 0.22395 0.0
O212 O 0.57622 0.54953 0.30265 0.0
C213 C 0.57238 0.51641 0.15099 0.0
O214 O 0.57731 0.52616 0.10188 0.0
O215 O 0.60981 0.55595 0.24043 0.0
C216 C 0.56848 0.53841 0.34289 0.0
O217 O 0.56671 0.52414 0.33296 0.0
C218 C 0.5684 0.55544 0.14321 0.0
O219 O 0.55742 0.54744 0.18657 0.0
O220 O 0.57554 0.52228 0.2068 0.0
C221 C 0.45162 0.07517 0.28238 0.0
O222 O 0.45283 0.07233 0.22208 0.0
O223 O 0.45119 0.04006 0.2202 0.0
Zn224 Zn 0.46025 0.05059 0.30459 0.0
O225 O 0.45085 0.03376 0.373 0.0
C226 C 0.49206 0.06386 0.2519 0.0
O227 O 0.48479 0.06426 0.1996 0.0
O228 O 0.45465 0.06764 0.32471 0.0
C229 C 0.44688 0.01921 0.36263 0.0
O230 O 0.44902 0.01496 0.30571 0.0
C231 C 0.43629 0.03108 0.20923 0.0
O232 O 0.42587 0.02905 0.25382 0.0
O233 O 0.48408 0.05922 0.30336 0.0
C234 C 0.62003 0.05434 0.24949 0.0
O235 O 0.61348 0.03876 0.25737 0.0
O236 O 0.58285 0.03105 0.13804 0.0
Zn237 Zn 0.58771 0.04374 0.22 0.0
O238 O 0.58129 0.02893 0.29542 0.0
C239 C 0.5701 0.05896 0.1741 0.0
O240 O 0.57553 0.05769 0.11832 0.0
O241 O 0.61128 0.0599 0.22993 0.0
C242 C 0.5673 0.01691 0.30232 0.0
O243 O 0.55648 0.01365 0.25793 0.0
C244 C 0.58294 0.01791 0.13343 0.0
O245 O 0.587 0.01246 0.18312 0.0
O246 O 0.57429 0.05437 0.22351 0.0
C247 C 0.92549 0.54255 0.30451 0.0
O248 O 0.92218 0.53828 0.24459 0.0
O249 O 0.9618 0.54591 0.21486 0.0
Zn250 Zn 0.95119 0.53411 0.29608 0.0
O251 O 0.96791 0.53967 0.36405 0.0
C252 C 0.93469 0.50437 0.22488 0.0
O253 O 0.93567 0.5139 0.17818 0.0
O254 O 0.93656 0.54133 0.33212 0.0
C255 C 0.97005 0.52937 0.39366 0.0
O256 O 0.96167 0.51417 0.37736 0.0
C257 C 0.97506 0.54704 0.19859 0.0
O258 O 0.98157 0.54092 0.23598 0.0
O259 O 0.93981 0.51032 0.27967 0.0
C260 C 0.44256 0.3797 0.2718 0.0
O261 O 0.43459 0.3875 0.2732 0.0
O262 O 0.45556 0.41415 0.16252 0.0
Zn263 Zn 0.46599 0.41085 0.24006 0.0
O264 O 0.46023 0.41947 0.31706 0.0
C265 C 0.4971 0.42962 0.17901 0.0
O266 O 0.48856 0.4262 0.12663 0.0
O267 O 0.45729 0.38729 0.2559 0.0
C268 C 0.47008 0.43257 0.34417 0.0
O269 O 0.48463 0.44122 0.32096 0.0
C270 C 0.45457 0.42681 0.15771 0.0
O271 O 0.46028 0.43747 0.20374 0.0
O272 O 0.49006 0.42331 0.23111 0.0
C273 C 0.38704 0.28958 0.39268 0.0
O274 O 0.37138 0.28185 0.40033 0.0
O275 O 0.36671 0.25431 0.49321 0.0
Zn276 Zn 0.38068 0.25826 0.41579 0.0
O277 O 0.36662 0.24848 0.33861 0.0
C278 C 0.39756 0.2447 0.48322 0.0
O279 O 0.39419 0.25041 0.53403 0.0
O280 O 0.39453 0.2819 0.39902 0.0
C281 C 0.36977 0.24089 0.29682 0.0
O282 O 0.38248 0.23931 0.304 0.0
C283 C 0.3532 0.24145 0.49696 0.0
O284 O 0.3485 0.23117 0.4496 0.0
O285 O 0.39367 0.24738 0.42878 0.0
C286 C 0.71027 0.09888 0.37813 0.0
O287 O 0.71901 0.09225 0.39123 0.0
O288 O 0.74467 0.11927 0.48754 0.0
Zn289 Zn 0.74053 0.12533 0.40016 0.0
O290 O 0.7508 0.11849 0.3334 0.0
C291 C 0.75584 0.15831 0.44312 0.0
O292 O 0.75129 0.15162 0.49944 0.0
O293 O 0.71685 0.11409 0.38044 0.0
C294 C 0.76589 0.12418 0.33142 0.0
O295 O 0.77499 0.13451 0.3751 0.0
C296 C 0.74907 0.10898 0.49683 0.0
O297 O 0.75046 0.10123 0.44803 0.0
O298 O 0.75145 0.14941 0.394 0.0
C299 C 0.88705 0.59439 0.42389 0.0
O300 O 0.89378 0.60183 0.47724 0.0
O301 O 0.89059 0.63152 0.48633 0.0
Zn302 Zn 0.87689 0.61825 0.41268 0.0
O303 O 0.88411 0.63251 0.3357 0.0
C304 C 0.84104 0.6008 0.41667 0.0
O305 O 0.84077 0.5906 0.37444 0.0
O306 O 0.87897 0.59902 0.39155 0.0
C307 C 0.87539 0.63063 0.2875 0.0
O308 O 0.86054 0.61862 0.28629 0.0
C309 C 0.89157 0.64519 0.49007 0.0
O310 O 0.88445 0.64919 0.4463 0.0
O311 O 0.85439 0.61229 0.43589 0.0
C312 C 0.37558 0.94863 0.78419 0.0
O313 O 0.38325 0.96416 0.79527 0.0
O314 O 0.41002 0.96945 0.88402 0.0
Zn315 Zn 0.40676 0.95537 0.80811 0.0
O316 O 0.4168 0.97023 0.73369 0.0
C317 C 0.42277 0.93687 0.78275 0.0
O318 O 0.41731 0.93579 0.72465 0.0
O319 O 0.38323 0.94108 0.78897 0.0
C320 C 0.41269 0.96605 0.67631 0.0
O321 O 0.40153 0.95123 0.66363 0.0
C322 C 0.42443 0.98061 0.89254 0.0
O323 O 0.43554 0.98183 0.85283 0.0
O324 O 0.41891 0.9437 0.82532 0.0
C325 C 0.07726 0.4526 0.73414 0.0
O326 O 0.07623 0.45456 0.79549 0.0
O327 O 0.04105 0.44958 0.80336 0.0
Zn328 Zn 0.05244 0.46143 0.72329 0.0
O329 O 0.0366 0.45537 0.65126 0.0
C330 C 0.06762 0.49117 0.79447 0.0
O331 O 0.06679 0.48175 0.84133 0.0
O332 O 0.06861 0.45523 0.69595 0.0
C333 C 0.03176 0.46463 0.63049 0.0
O334 O 0.03676 0.4786 0.65807 0.0
C335 C 0.0275 0.44799 0.81801 0.0
O336 O 0.02083 0.45369 0.77932 0.0
O337 O 0.06285 0.48519 0.73944 0.0
C338 C 0.5455 0.6236 0.7516 0.0
O339 O 0.54866 0.62026 0.80852 0.0
O340 O 0.54327 0.58712 0.80664 0.0
Zn341 Zn 0.53343 0.58959 0.72573 0.0
O342 O 0.54246 0.58381 0.65062 0.0
C343 C 0.50245 0.57136 0.78366 0.0
O344 O 0.5104 0.57994 0.83337 0.0
O345 O 0.53851 0.61235 0.71129 0.0
C346 C 0.5394 0.5696 0.63883 0.0
O347 O 0.53005 0.55794 0.67771 0.0
C348 C 0.55727 0.58895 0.81089 0.0
O349 O 0.5666 0.59349 0.76048 0.0
O350 O 0.50967 0.57404 0.73053 0.0
C351 C 0.58766 0.70832 0.57714 0.0
O352 O 0.58822 0.71149 0.5161 0.0
O353 O 0.62511 0.73935 0.50342 0.0
Zn354 Zn 0.61534 0.74077 0.58682 0.0
O355 O 0.63207 0.74863 0.6559 0.0
C356 C 0.60394 0.76 0.52374 0.0
O357 O 0.60425 0.75218 0.47301 0.0
O358 O 0.59764 0.71906 0.61448 0.0
C359 C 0.63049 0.75521 0.7057 0.0
O360 O 0.61787 0.75701 0.71123 0.0
C361 C 0.64014 0.74799 0.49397 0.0
O362 O 0.64926 0.75739 0.53989 0.0
O363 O 0.6076 0.75665 0.57744 0.0
C364 C 0.28782 0.89718 0.63498 0.0
O365 O 0.28031 0.90543 0.63642 0.0
O366 O 0.25684 0.88611 0.50596 0.0
Zn367 Zn 0.25754 0.87507 0.58685 0.0
O368 O 0.24702 0.88038 0.65894 0.0
C369 C 0.24138 0.84436 0.52014 0.0
O370 O 0.24702 0.85324 0.46878 0.0
O371 O 0.28046 0.88297 0.61292 0.0
C372 C 0.23297 0.87052 0.67876 0.0
O373 O 0.22466 0.85659 0.65012 0.0
C374 C 0.24442 0.88696 0.492 0.0
O375 O 0.23221 0.88087 0.53153 0.0
O376 O 0.24519 0.85107 0.57441 0.0
C377 C 0.117 0.40797 0.55585 0.0
O378 O 0.11542 0.40325 0.49631 0.0
O379 O 0.11703 0.37196 0.50238 0.0
Zn380 Zn 0.12937 0.38608 0.57661 0.0
O381 O 0.12436 0.37224 0.65489 0.0
C382 C 0.1584 0.39798 0.5012 0.0
O383 O 0.14849 0.39426 0.45291 0.0
O384 O 0.12294 0.40253 0.59599 0.0
C385 C 0.13502 0.37122 0.68697 0.0
O386 O 0.15009 0.37939 0.66879 0.0
C387 C 0.11613 0.35836 0.49754 0.0
O388 O 0.12267 0.35387 0.54194 0.0
O389 O 0.15295 0.39631 0.55748 0.0
C390 C 0.28572 0.38758 0.63154 0.0
O391 O 0.27755 0.37224 0.64587 0.0
O392 O 0.25087 0.3654 0.5109 0.0
Zn393 Zn 0.25489 0.37948 0.58803 0.0
O394 O 0.24539 0.36567 0.66592 0.0
C395 C 0.23807 0.39409 0.52609 0.0
O396 O 0.24089 0.38869 0.47307 0.0
O397 O 0.27855 0.39392 0.60352 0.0
C398 C 0.24241 0.37159 0.71461 0.0
O399 O 0.24557 0.38654 0.71278 0.0
C400 C 0.23735 0.3526 0.50564 0.0
O401 O 0.22663 0.34892 0.55086 0.0
O402 O 0.24356 0.39214 0.57817 0.0
C403 C 0.614 0.90108 0.59709 0.0
O404 O 0.6295 0.90911 0.58542 0.0
O405 O 0.63534 0.88523 0.51397 0.0
Zn406 Zn 0.62208 0.87707 0.59384 0.0
O407 O 0.63728 0.88557 0.66789 0.0
C408 C 0.6079 0.84426 0.54684 0.0
O409 O 0.6107 0.8511 0.49059 0.0
O410 O 0.60706 0.88588 0.60163 0.0
C411 C 0.63478 0.87748 0.71862 0.0
O412 O 0.62185 0.86325 0.72312 0.0
C413 C 0.64779 0.88387 0.5091 0.0
O414 O 0.65125 0.87694 0.5554 0.0
O415 O 0.61095 0.8529 0.59633 0.0
C416 C 0.10684 0.71337 0.65975 0.0
O417 O 0.09938 0.72107 0.67692 0.0
O418 O 0.11909 0.74604 0.51823 0.0
Zn419 Zn 0.12733 0.74395 0.60383 0.0
O420 O 0.11936 0.75335 0.67056 0.0
C421 C 0.15988 0.76215 0.55455 0.0
O422 O 0.1528 0.75715 0.49912 0.0
O423 O 0.1195 0.72067 0.62612 0.0
C424 C 0.11488 0.76349 0.65905 0.0
O425 O 0.11571 0.76872 0.60069 0.0
C426 C 0.10426 0.74017 0.50577 0.0
O427 O 0.09356 0.73149 0.54908 0.0
O428 O 0.15147 0.75734 0.60495 0.0
C429 C 0.05874 0.62316 0.78724 0.0
O430 O 0.04418 0.61593 0.81129 0.0
O431 O 0.04062 0.5846 0.8682 0.0
Zn432 Zn 0.05116 0.59077 0.78147 0.0
O433 O 0.03442 0.58322 0.71268 0.0
C434 C 0.06762 0.57324 0.81155 0.0
O435 O 0.06542 0.57617 0.87063 0.0
O436 O 0.06505 0.61477 0.77205 0.0
C437 C 0.0276 0.56876 0.69349 0.0
O438 O 0.03099 0.55861 0.72154 0.0
C439 C 0.02619 0.58101 0.87913 0.0
O440 O 0.01747 0.58171 0.83253 0.0
O441 O 0.06353 0.57927 0.76656 0.0
C442 C 0.37672 0.42585 0.74568 0.0
O443 O 0.38387 0.418 0.76477 0.0
O444 O 0.41608 0.4445 0.82032 0.0
Zn445 Zn 0.40925 0.4506 0.73873 0.0
O446 O 0.41608 0.4424 0.66418 0.0
C447 C 0.42593 0.48419 0.7773 0.0
O448 O 0.4225 0.47826 0.83517 0.0
O449 O 0.38523 0.44074 0.73341 0.0
C450 C 0.43063 0.44981 0.64607 0.0
O451 O 0.44108 0.46264 0.67743 0.0
C452 C 0.41916 0.43308 0.82198 0.0
O453 O 0.41748 0.42482 0.76995 0.0
O454 O 0.42075 0.47467 0.73013 0.0
C455 C 0.55849 0.93799 0.68956 0.0
O456 O 0.56647 0.95366 0.68231 0.0
O457 O 0.54573 0.96059 0.79733 0.0
Zn458 Zn 0.53553 0.94656 0.72014 0.0
O459 O 0.54151 0.96047 0.64175 0.0
C460 C 0.5037 0.93459 0.7766 0.0
O461 O 0.51163 0.94031 0.83 0.0
O462 O 0.54398 0.93131 0.70815 0.0
C463 C 0.53271 0.95516 0.59252 0.0
O464 O 0.51992 0.94077 0.59416 0.0
C465 C 0.54584 0.97382 0.80242 0.0
O466 O 0.53929 0.97804 0.75708 0.0
O467 O 0.51137 0.93519 0.72646 0.0
H468 H 0.10773 0.26779 0.2165 0.0
H469 H 0.10565 0.27034 0.01192 0.0
H470 H 0.12913 0.26711 0.00195 0.0
H471 H 0.15197 0.26666 0.05147 0.0
H472 H 0.15448 0.26478 0.2561 0.0
H473 H 0.12903 0.26443 0.26564 0.0
C474 C 0.11225 0.2674 0.16967 0.0
C475 C 0.10504 0.26953 0.11513 0.0
C476 C 0.12594 0.26578 0.16421 0.0
C477 C 0.11101 0.26885 0.0548 0.0
C478 C 0.12449 0.26705 0.049 0.0
C479 C 0.14685 0.26593 0.09817 0.0
C480 C 0.15527 0.26598 0.15299 0.0
C481 C 0.13232 0.26599 0.10342 0.0
C482 C 0.14835 0.26488 0.21306 0.0
C483 C 0.1338 0.26474 0.21862 0.0
H484 H 0.73517 0.84236 0.05232 0.0
H485 H 0.73468 0.83611 0.25578 0.0
H486 H 0.73735 0.86246 0.27207 0.0
H487 H 0.73652 0.88574 0.22853 0.0
H488 H 0.73664 0.89169 0.02487 0.0
H489 H 0.73767 0.86714 0.00889 0.0
C490 C 0.73587 0.84685 0.10024 0.0
C491 C 0.73446 0.83717 0.1527 0.0
C492 C 0.73724 0.86194 0.10932 0.0
C493 C 0.73562 0.84326 0.21449 0.0
C494 C 0.73709 0.85832 0.2239 0.0
C495 C 0.73705 0.88182 0.18065 0.0
C496 C 0.73623 0.89042 0.12805 0.0
C497 C 0.73741 0.86754 0.17166 0.0
C498 C 0.73709 0.88524 0.06632 0.0
C499 C 0.73762 0.87115 0.05704 0.0
H500 H 0.10972 0.84565 0.99719 0.0
H501 H 0.10156 0.83455 0.19745 0.0
H502 H 0.12469 0.86059 0.22353 0.0
H503 H 0.14908 0.88494 0.18913 0.0
H504 H 0.15784 0.89549 0.98867 0.0
H505 H 0.13253 0.87135 0.96325 0.0
C506 C 0.11282 0.84901 0.0466 0.0
C507 C 0.10403 0.83804 0.0952 0.0
C508 C 0.12635 0.86388 0.06129 0.0
C509 C 0.10818 0.84268 0.15899 0.0
C510 C 0.12145 0.85757 0.174 0.0
C511 C 0.14534 0.88213 0.13991 0.0
C512 C 0.15547 0.89192 0.09091 0.0
C513 C 0.13092 0.86803 0.12548 0.0
C514 C 0.15036 0.88811 0.02739 0.0
C515 C 0.1359 0.87427 0.01274 0.0
H516 H 0.26574 0.11309 0.78884 0.0
H517 H 0.27023 0.1115 0.99271 0.0
H518 H 0.26755 0.13527 0.00429 0.0
H519 H 0.26703 0.1582 0.95587 0.0
H520 H 0.26311 0.16015 0.75187 0.0
H521 H 0.26225 0.13447 0.74131 0.0
C522 C 0.26589 0.11779 0.83591 0.0
C523 C 0.26842 0.11062 0.88968 0.0
C524 C 0.26456 0.13162 0.84227 0.0
C525 C 0.26844 0.11682 0.95035 0.0
C526 C 0.26695 0.13046 0.95708 0.0
C527 C 0.26574 0.15291 0.90914 0.0
C528 C 0.26537 0.16124 0.85472 0.0
C529 C 0.26549 0.13823 0.90325 0.0
C530 C 0.26355 0.15409 0.79461 0.0
C531 C 0.26311 0.13941 0.78845 0.0
H532 H 0.846 0.11058 0.77527 0.0
H533 H 0.8411 0.1067 0.97969 0.0
H534 H 0.86691 0.13123 0.99181 0.0
H535 H 0.88916 0.15542 0.94454 0.0
H536 H 0.89381 0.15974 0.7402 0.0
H537 H 0.86994 0.13332 0.72809 0.0
C538 C 0.85069 0.11494 0.8225 0.0
C539 C 0.84148 0.10693 0.87641 0.0
C540 C 0.86545 0.12923 0.82923 0.0
C541 C 0.84784 0.11269 0.93727 0.0
C542 C 0.8626 0.12677 0.94432 0.0
C543 C 0.88511 0.1505 0.89732 0.0
C544 C 0.89313 0.15966 0.84338 0.0
C545 C 0.87124 0.13541 0.89064 0.0
C546 C 0.88781 0.15301 0.78259 0.0
C547 C 0.87411 0.13791 0.77557 0.0
H548 H 0.84175 0.73048 0.93381 0.0
H549 H 0.83281 0.72281 0.73207 0.0
H550 H 0.85805 0.72294 0.71791 0.0
H551 H 0.88155 0.72303 0.76395 0.0
H552 H 0.89051 0.73074 0.9657 0.0
H553 H 0.86651 0.73301 0.97838 0.0
C554 C 0.84539 0.72899 0.88664 0.0
C555 C 0.8353 0.72647 0.83422 0.0
C556 C 0.85992 0.72904 0.87878 0.0
C557 C 0.84029 0.72472 0.77334 0.0
C558 C 0.85472 0.72475 0.76517 0.0
C559 C 0.87838 0.7254 0.8106 0.0
C560 C 0.88775 0.72654 0.86383 0.0
C561 C 0.86447 0.72657 0.81772 0.0
C562 C 0.88351 0.72975 0.92384 0.0
C563 C 0.86973 0.73098 0.93125 0.0
H564 H 0.81114 0.58434 0.36317 0.0
H565 H 0.83749 0.61596 0.51875 0.0
H566 H 0.81432 0.61846 0.54678 0.0
H567 H 0.78797 0.61438 0.51988 0.0
H568 H 0.76149 0.58376 0.3625 0.0
H569 H 0.78314 0.57786 0.34333 0.0
C570 C 0.81169 0.59154 0.40382 0.0
C571 C 0.8261 0.60015 0.43814 0.0
C572 C 0.79834 0.59318 0.4192 0.0
C573 C 0.82662 0.6094 0.49089 0.0
C574 C 0.81337 0.61084 0.50707 0.0
C575 C 0.78681 0.60622 0.48189 0.0
C576 C 0.77329 0.59972 0.44207 0.0
C577 C 0.79938 0.60321 0.47036 0.0
C578 C 0.77183 0.58897 0.39372 0.0
C579 C 0.78426 0.58569 0.38247 0.0
H580 H 0.40735 0.18674 0.55264 0.0
H581 H 0.40733 0.18334 0.3478 0.0
H582 H 0.40761 0.20874 0.33841 0.0
H583 H 0.40422 0.22986 0.38791 0.0
H584 H 0.40296 0.23271 0.59262 0.0
H585 H 0.40708 0.20973 0.60238 0.0
C586 C 0.40772 0.1917 0.50593 0.0
C587 C 0.40706 0.18301 0.45103 0.0
C588 C 0.40749 0.20614 0.5008 0.0
C589 C 0.40764 0.18967 0.39088 0.0
C590 C 0.40776 0.20419 0.38542 0.0
C591 C 0.4051 0.22564 0.43475 0.0
C592 C 0.40301 0.23284 0.48943 0.0
C593 C 0.4071 0.21221 0.44002 0.0
C594 C 0.40438 0.22731 0.5497 0.0
C595 C 0.40668 0.21412 0.55534 0.0
H596 H 0.81815 0.22276 0.37577 0.0
H597 H 0.82088 0.22648 0.58057 0.0
H598 H 0.79405 0.20304 0.5892 0.0
H599 H 0.77156 0.17945 0.53911 0.0
H600 H 0.76935 0.17532 0.33434 0.0
H601 H 0.79408 0.20109 0.32535 0.0
C602 C 0.81279 0.21862 0.42231 0.0
C603 C 0.82165 0.22621 0.47744 0.0
C604 C 0.79747 0.20496 0.427 0.0
C605 C 0.81441 0.22079 0.53731 0.0
C606 C 0.79907 0.20734 0.54234 0.0
C607 C 0.7763 0.18432 0.49244 0.0
C608 C 0.76873 0.1753 0.43756 0.0
C609 C 0.79074 0.199 0.48757 0.0
C610 C 0.77499 0.1819 0.37746 0.0
C611 C 0.78919 0.19662 0.37223 0.0
H612 H 0.93116 0.48169 0.31053 0.0
H613 H 0.9287 0.48932 0.10946 0.0
H614 H 0.92639 0.46337 0.08639 0.0
H615 H 0.92865 0.44028 0.1225 0.0
H616 H 0.93191 0.43319 0.3236 0.0
H617 H 0.93009 0.45703 0.34729 0.0
C618 C 0.92987 0.47758 0.26168 0.0
C619 C 0.93038 0.48757 0.21177 0.0
C620 C 0.92882 0.46278 0.24865 0.0
C621 C 0.92848 0.48195 0.14882 0.0
C622 C 0.92722 0.46712 0.13553 0.0
C623 C 0.92867 0.44377 0.17158 0.0
C624 C 0.93068 0.43509 0.22107 0.0
C625 C 0.92792 0.45769 0.18494 0.0
C626 C 0.93053 0.43972 0.28444 0.0
C627 C 0.92955 0.4534 0.29811 0.0
H628 H 0.56092 0.49308 0.24133 0.0
H629 H 0.55789 0.50079 0.04074 0.0
H630 H 0.53545 0.47343 0.02987 0.0
H631 H 0.51447 0.44876 0.08018 0.0
H632 H 0.51718 0.44143 0.28144 0.0
H633 H 0.54209 0.46707 0.28877 0.0
C634 C 0.55553 0.4887 0.19499 0.0
C635 C 0.5609 0.49907 0.14219 0.0
C636 C 0.54247 0.47304 0.18922 0.0
C637 C 0.55392 0.49313 0.08234 0.0
C638 C 0.54103 0.47748 0.07609 0.0
C639 C 0.52066 0.4526 0.12542 0.0
C640 C 0.51378 0.44329 0.18034 0.0
C641 C 0.53486 0.46753 0.12964 0.0
C642 C 0.52209 0.44841 0.23845 0.0
C643 C 0.53632 0.46313 0.24281 0.0
H644 H 0.55599 0.06183 0.28145 0.0
H645 H 0.55578 0.06612 0.07706 0.0
H646 H 0.5325 0.06982 0.08384 0.0
H647 H 0.51056 0.06896 0.14681 0.0
H648 H 0.5104 0.06381 0.3509 0.0
H649 H 0.53557 0.06351 0.34512 0.0
C650 C 0.55099 0.06377 0.23837 0.0
C651 C 0.55751 0.06348 0.17878 0.0
C652 C 0.53746 0.06564 0.2425 0.0
C653 C 0.55095 0.06617 0.12355 0.0
C654 C 0.53759 0.06824 0.12735 0.0
C655 C 0.51615 0.06802 0.19015 0.0
C656 C 0.50848 0.06621 0.24911 0.0
C657 C 0.53049 0.06756 0.18643 0.0
C658 C 0.51595 0.06508 0.3048 0.0
C659 C 0.53033 0.06487 0.30156 0.0
H660 H 0.43686 0.92605 0.69917 0.0
H661 H 0.4378 0.93933 0.89601 0.0
H662 H 0.46205 0.93779 0.91349 0.0
H663 H 0.48479 0.93607 0.8697 0.0
H664 H 0.4843 0.92368 0.67194 0.0
H665 H 0.45801 0.92128 0.65846 0.0
C666 C 0.44219 0.92834 0.74619 0.0
C667 C 0.43563 0.93304 0.79588 0.0
C668 C 0.45634 0.92774 0.75571 0.0
C669 C 0.44266 0.93583 0.85665 0.0
C670 C 0.45658 0.93501 0.86671 0.0
C671 C 0.47882 0.93257 0.8239 0.0
C672 C 0.48665 0.93031 0.77174 0.0
C673 C 0.46382 0.9315 0.81608 0.0
C674 C 0.47865 0.92566 0.71285 0.0
C675 C 0.46362 0.92432 0.70498 0.0
H676 H 0.07358 0.55537 0.89593 0.0
H677 H 0.07037 0.56238 0.69473 0.0
H678 H 0.07188 0.53836 0.67139 0.0
H679 H 0.07076 0.51368 0.70851 0.0
H680 H 0.0733 0.50624 0.90971 0.0
H681 H 0.07559 0.53219 0.93239 0.0
C682 C 0.07349 0.55182 0.8469 0.0
C683 C 0.07162 0.56056 0.79728 0.0
C684 C 0.07408 0.5378 0.83375 0.0
C685 C 0.07166 0.55583 0.73398 0.0
C686 C 0.07247 0.54203 0.72052 0.0
C687 C 0.07205 0.51782 0.7573 0.0
C688 C 0.07161 0.5079 0.80735 0.0
C689 C 0.07314 0.53265 0.77011 0.0
C690 C 0.07348 0.51356 0.87023 0.0
C691 C 0.07473 0.52839 0.88331 0.0
H692 H 0.44064 0.50762 0.86675 0.0
H693 H 0.43818 0.49935 0.66409 0.0
H694 H 0.46072 0.52636 0.64761 0.0
H695 H 0.48293 0.55117 0.69149 0.0
H696 H 0.48571 0.55937 0.89419 0.0
H697 H 0.46116 0.53367 0.90959 0.0
C698 C 0.44487 0.5118 0.81888 0.0
C699 C 0.43785 0.50136 0.76691 0.0
C700 C 0.458 0.52732 0.80968 0.0
C701 C 0.44342 0.50705 0.70512 0.0
C702 C 0.45636 0.5225 0.69558 0.0
C703 C 0.47805 0.54745 0.73897 0.0
C704 C 0.48629 0.5571 0.79164 0.0
C705 C 0.46403 0.53256 0.74764 0.0
C706 C 0.47969 0.55215 0.85276 0.0
C707 C 0.46567 0.53741 0.8617 0.0
H708 H 0.60293 0.82301 0.45172 0.0
H709 H 0.60397 0.82741 0.65635 0.0
H710 H 0.60138 0.80099 0.66719 0.0
H711 H 0.60155 0.77789 0.61878 0.0
H712 H 0.6009 0.77357 0.41424 0.0
H713 H 0.60045 0.79861 0.40336 0.0
C714 C 0.60236 0.81811 0.49872 0.0
C715 C 0.60385 0.8273 0.55306 0.0
C716 C 0.60107 0.80295 0.50471 0.0
C717 C 0.60297 0.82067 0.61361 0.0
C718 C 0.60154 0.80556 0.61992 0.0
C719 C 0.60112 0.78231 0.57179 0.0
C720 C 0.60147 0.77395 0.51744 0.0
C721 C 0.60102 0.7968 0.56582 0.0
C722 C 0.60074 0.77979 0.45694 0.0
C723 C 0.60053 0.79415 0.45063 0.0
H724 H 0.17995 0.77841 0.45625 0.0
H725 H 0.17788 0.77549 0.66133 0.0
H726 H 0.20406 0.7998 0.66832 0.0
H727 H 0.22589 0.82352 0.61691 0.0
H728 H 0.22762 0.82705 0.41201 0.0
H729 H 0.20336 0.80077 0.4044 0.0
C730 C 0.18533 0.78293 0.50248 0.0
C731 C 0.17683 0.77524 0.55817 0.0
C732 C 0.20029 0.79712 0.50627 0.0
C733 C 0.18406 0.78123 0.61765 0.0
C734 C 0.19903 0.79518 0.62175 0.0
C735 C 0.22113 0.81845 0.57049 0.0
C736 C 0.22846 0.82737 0.51516 0.0
C737 C 0.20701 0.80348 0.56645 0.0
C738 C 0.22217 0.82052 0.45544 0.0
C739 C 0.20825 0.8055 0.45102 0.0
H740 H 0.22004 0.395 0.42788 0.0
H741 H 0.22931 0.40547 0.62825 0.0
H742 H 0.20645 0.40973 0.63614 0.0
H743 H 0.18187 0.40691 0.58974 0.0
H744 H 0.17198 0.39567 0.39023 0.0
H745 H 0.19717 0.39557 0.37833 0.0
C746 C 0.21725 0.39851 0.47301 0.0
C747 C 0.22622 0.39963 0.52758 0.0
C748 C 0.20388 0.40067 0.47757 0.0
C749 C 0.22251 0.40433 0.58558 0.0
C750 C 0.2094 0.40673 0.59025 0.0
C751 C 0.18534 0.4047 0.54337 0.0
C752 C 0.17492 0.40103 0.49124 0.0
C753 C 0.19968 0.40437 0.5371 0.0
C754 C 0.17971 0.39841 0.43133 0.0
C755 C 0.19409 0.39827 0.42451 0.0
H756 H 0.02476 0.25223 0.01983 0.0
H757 H 0.02176 0.29227 0.09697 0.0
H758 H 0.99363 0.27959 0.06639 0.0
H759 H 0.97019 0.25777 0.01488 0.0
H760 H 0.97265 0.21755 0.93679 0.0
H761 H 0.0007 0.2297 0.97051 0.0
C762 C 0.01791 0.2581 0.03044 0.0
C763 C 0.0254 0.27321 0.06048 0.0
C764 C 0.00169 0.25079 0.01211 0.0
C765 C 0.01634 0.28067 0.07368 0.0
C766 C 0.00024 0.27345 0.05612 0.0
C767 C 0.97683 0.25162 0.00508 0.0
C768 C 0.96935 0.23682 0.97297 0.0
C769 C 0.99286 0.25863 0.02468 0.0
C770 C 0.97813 0.22899 0.96123 0.0
C771 C 0.99417 0.23593 0.98057 0.0
H772 H 0.78494 0.75447 0.00344 0.0
H773 H 0.76156 0.74969 0.82285 0.0
H774 H 0.74866 0.76405 0.86523 0.0
H775 H 0.74208 0.77567 0.95601 0.0
H776 H 0.76492 0.77994 0.13741 0.0
H777 H 0.78001 0.76809 0.092 0.0
C778 C 0.77721 0.75676 0.97297 0.0
C779 C 0.7741 0.75084 0.91019 0.0
C780 C 0.76958 0.76476 0.99798 0.0
C781 C 0.7641 0.75401 0.87142 0.0
C782 C 0.75665 0.76217 0.8957 0.0
C783 C 0.75043 0.77411 0.98562 0.0
C784 C 0.75221 0.7785 0.05027 0.0
C785 C 0.75898 0.7672 0.95936 0.0
C786 C 0.76324 0.77658 0.08763 0.0
C787 C 0.77187 0.76979 0.06171 0.0
H788 H 0.25977 0.97711 0.01621 0.0
H789 H 0.21471 0.97534 0.05157 0.0
H790 H 0.22675 0.00361 0.02123 0.0
H791 H 0.25018 0.02885 0.9838 0.0
H792 H 0.29495 0.02994 0.94819 0.0
H793 H 0.28284 0.00191 0.97921 0.0
C794 C 0.25255 0.98288 0.01756 0.0
C795 C 0.23637 0.97411 0.03626 0.0
C796 C 0.25948 0.99904 0.99969 0.0
C797 C 0.22721 0.98182 0.03744 0.0
C798 C 0.23408 0.99798 0.01999 0.0
C799 C 0.25725 0.02293 0.98269 0.0
C800 C 0.27345 0.03153 0.96363 0.0
C801 C 0.25021 0.0067 0.00079 0.0
C802 C 0.28246 0.02367 0.96262 0.0
C803 C 0.27556 0.00761 0.98044 0.0
H804 H 0.97206 0.71209 0.01463 0.0
H805 H 0.97279 0.75518 0.95206 0.0
H806 H 0.00063 0.77135 0.98815 0.0
H807 H 0.02494 0.77309 0.03611 0.0
H808 H 0.02371 0.72957 0.09649 0.0
H809 H 0.99584 0.71377 0.06287 0.0
C810 C 0.97825 0.72502 0.00881 0.0
C811 C 0.97034 0.73239 0.98055 0.0
C812 C 0.99419 0.73419 0.02944 0.0
C813 C 0.97861 0.74918 0.97355 0.0
C814 C 0.99452 0.75844 0.99424 0.0
C815 C 0.01853 0.76017 0.04228 0.0
C816 C 0.02643 0.75254 0.06879 0.0
C817 C 0.00245 0.75106 0.02216 0.0
C818 C 0.01797 0.73577 0.07608 0.0
C819 C 0.00201 0.72669 0.05683 0.0
H820 H 0.24583 0.22178 0.9802 0.0
H821 H 0.28549 0.26453 0.8994 0.0
H822 H 0.2732 0.28019 0.93172 0.0
H823 H 0.25193 0.28214 0.9857 0.0
H824 H 0.212 0.23993 0.06782 0.0
H825 H 0.22369 0.22369 0.03238 0.0
C826 C 0.25167 0.23448 0.96913 0.0
C827 C 0.26659 0.24197 0.93757 0.0
C828 C 0.24459 0.24355 0.98858 0.0
C829 C 0.27405 0.25846 0.92387 0.0
C830 C 0.26705 0.26746 0.94243 0.0
C831 C 0.24574 0.26938 0.99608 0.0
C832 C 0.23116 0.26229 0.02979 0.0
C833 C 0.25246 0.26019 0.97546 0.0
C834 C 0.22328 0.24571 0.04218 0.0
C835 C 0.22995 0.23642 0.02182 0.0
H836 H 0.77826 0.02578 0.98362 0.0
H837 H 0.73542 0.02392 0.91029 0.0
H838 H 0.71949 0.99593 0.94198 0.0
H839 H 0.7175 0.97214 0.99147 0.0
H840 H 0.75993 0.97344 0.06612 0.0
H841 H 0.77622 0.00152 0.03312 0.0
C842 C 0.76546 0.01921 0.97428 0.0
C843 C 0.75806 0.02696 0.94462 0.0
C844 C 0.75627 0.00306 0.99313 0.0
C845 C 0.74144 0.01829 0.93314 0.0
C846 C 0.73229 0.00227 0.95129 0.0
C847 C 0.73031 0.97852 0.00068 0.0
C848 C 0.73747 0.9707 0.03133 0.0
C849 C 0.73956 0.99457 0.98159 0.0
C850 C 0.7541 0.97919 0.04271 0.0
C851 C 0.76343 0.99524 0.02376 0.0
H852 H 0.63537 0.55865 0.29166 0.0
H853 H 0.63867 0.60331 0.23436 0.0
H854 H 0.66662 0.61803 0.26826 0.0
H855 H 0.68998 0.61836 0.31528 0.0
H856 H 0.68694 0.57396 0.37456 0.0
H857 H 0.659 0.55902 0.33902 0.0
C858 C 0.64224 0.57159 0.28625 0.0
C859 C 0.63493 0.57986 0.26042 0.0
C860 C 0.65832 0.58004 0.30652 0.0
C861 C 0.64397 0.59664 0.25416 0.0
C862 C 0.65997 0.60508 0.27359 0.0
C863 C 0.68324 0.60541 0.32054 0.0
C864 C 0.69056 0.5973 0.3476 0.0
C865 C 0.66723 0.59692 0.30012 0.0
C866 C 0.6816 0.58051 0.35401 0.0
C867 C 0.66563 0.57195 0.33358 0.0
H868 H 0.44751 0.08316 0.40227 0.0
H869 H 0.44158 0.09118 0.2045 0.0
H870 H 0.42914 0.10692 0.2354 0.0
H871 H 0.41851 0.11702 0.31825 0.0
H872 H 0.42413 0.10872 0.51599 0.0
H873 H 0.43822 0.09455 0.48522 0.0
C874 C 0.44361 0.08844 0.36584 0.0
C875 C 0.44538 0.08588 0.30112 0.0
C876 C 0.43634 0.09737 0.38389 0.0
C877 C 0.44033 0.0929 0.25465 0.0
C878 C 0.43318 0.10188 0.27227 0.0
C879 C 0.4229 0.11221 0.35472 0.0
C880 C 0.42014 0.11383 0.41936 0.0
C881 C 0.4309 0.10398 0.33671 0.0
C882 C 0.42602 0.10761 0.46589 0.0
C883 C 0.43406 0.09947 0.44834 0.0
H884 H 0.91992 0.30024 0.29511 0.0
H885 H 0.88146 0.30386 0.3846 0.0
H886 H 0.89381 0.33196 0.35159 0.0
H887 H 0.91589 0.35566 0.29909 0.0
H888 H 0.95437 0.35171 0.21126 0.0
H889 H 0.94154 0.32353 0.24155 0.0
C890 C 0.9142 0.30713 0.30747 0.0
C891 C 0.89981 0.29995 0.34247 0.0
C892 C 0.92135 0.32323 0.28846 0.0
C893 C 0.89257 0.3091 0.35783 0.0
C894 C 0.89961 0.32516 0.3389 0.0
C895 C 0.9214 0.34859 0.28617 0.0
C896 C 0.93609 0.35581 0.25298 0.0
C897 C 0.91404 0.33237 0.30436 0.0
C898 C 0.9431 0.3465 0.23689 0.0
C899 C 0.93579 0.33037 0.25427 0.0
H900 H 0.69001 0.10834 0.32843 0.0
H901 H 0.69261 0.06634 0.38186 0.0
H902 H 0.66523 0.04905 0.34524 0.0
H903 H 0.64062 0.04567 0.2981 0.0
H904 H 0.63744 0.08727 0.24393 0.0
H905 H 0.66501 0.10486 0.28028 0.0
C906 C 0.68454 0.09541 0.33232 0.0
C907 C 0.69337 0.08867 0.35797 0.0
C908 C 0.66873 0.08544 0.31066 0.0
C909 C 0.68613 0.07188 0.36231 0.0
C910 C 0.67046 0.06194 0.34129 0.0
C911 C 0.64593 0.05859 0.29392 0.0
C912 C 0.63696 0.06513 0.26825 0.0
C913 C 0.66168 0.06858 0.31522 0.0
C914 C 0.64408 0.0819 0.26339 0.0
C915 C 0.65983 0.09197 0.28435 0.0
H916 H 0.90485 0.58266 0.47711 0.0
H917 H 0.87723 0.57891 0.3096 0.0
H918 H 0.88575 0.56154 0.25934 0.0
H919 H 0.90286 0.54926 0.25937 0.0
H920 H 0.93062 0.55332 0.42696 0.0
H921 H 0.92014 0.56859 0.48052 0.0
C922 C 0.90054 0.57791 0.4299 0.0
C923 C 0.89057 0.58225 0.39702 0.0
C924 C 0.90561 0.56805 0.40091 0.0
C925 C 0.88501 0.57586 0.33598 0.0
C926 C 0.88991 0.56595 0.30702 0.0
C927 C 0.90649 0.55334 0.30781 0.0
C928 C 0.91767 0.55029 0.33863 0.0
C929 C 0.9005 0.56225 0.33847 0.0
C930 C 0.92214 0.55559 0.40169 0.0
C931 C 0.91616 0.56435 0.43251 0.0
H932 H 0.41185 0.36123 0.31137 0.0
H933 H 0.45544 0.35991 0.27761 0.0
H934 H 0.44225 0.33199 0.31365 0.0
H935 H 0.41824 0.30793 0.35468 0.0
H936 H 0.37478 0.30963 0.38727 0.0
H937 H 0.3881 0.33748 0.3521 0.0
C938 C 0.4185 0.35486 0.31169 0.0
C939 C 0.4346 0.36266 0.29171 0.0
C940 C 0.41088 0.33889 0.33257 0.0
C941 C 0.44301 0.35419 0.29261 0.0
C942 C 0.43549 0.33823 0.31335 0.0
C943 C 0.41171 0.31443 0.35439 0.0
C944 C 0.39553 0.30669 0.37367 0.0
C945 C 0.41942 0.33047 0.33356 0.0
C946 C 0.38723 0.31526 0.37265 0.0
C947 C 0.39483 0.3312 0.35246 0.0
H948 H 0.30541 0.92635 0.68989 0.0
H949 H 0.30725 0.88385 0.63865 0.0
H950 H 0.33439 0.89572 0.68258 0.0
H951 H 0.35779 0.91846 0.73426 0.0
H952 H 0.35552 0.96085 0.78395 0.0
H953 H 0.32831 0.94864 0.74228 0.0
C954 C 0.31172 0.91965 0.68818 0.0
C955 C 0.30431 0.90425 0.6608 0.0
C956 C 0.32724 0.92651 0.71352 0.0
C957 C 0.31268 0.89575 0.65931 0.0
C958 C 0.32819 0.90252 0.68452 0.0
C959 C 0.35129 0.92496 0.73639 0.0
C960 C 0.35871 0.94056 0.76221 0.0
C961 C 0.33561 0.91792 0.71169 0.0
C962 C 0.35014 0.94886 0.76424 0.0
C963 C 0.33457 0.9419 0.74033 0.0
H964 H 0.08088 0.44621 0.61115 0.0
H965 H 0.09598 0.44402 0.80253 0.0
H966 H 0.1105 0.43097 0.76336 0.0
H967 H 0.11746 0.41867 0.67601 0.0
H968 H 0.10188 0.42033 0.48494 0.0
H969 H 0.0891 0.43523 0.52291 0.0
C970 C 0.08745 0.443 0.64434 0.0
C971 C 0.08722 0.44599 0.70981 0.0
C972 C 0.09564 0.43535 0.62161 0.0
C973 C 0.09587 0.44181 0.75197 0.0
C974 C 0.10417 0.43432 0.72962 0.0
C975 C 0.11138 0.42239 0.64247 0.0
C976 C 0.11054 0.41827 0.57773 0.0
C977 C 0.10391 0.43079 0.66471 0.0
C978 C 0.10267 0.42327 0.53503 0.0
C979 C 0.09532 0.43177 0.55673 0.0
H980 H 0.54367 0.63452 0.6342 0.0
H981 H 0.56219 0.65073 0.8234 0.0
H982 H 0.57584 0.67854 0.78686 0.0
H983 H 0.58435 0.698 0.69958 0.0
H984 H 0.56646 0.68174 0.50972 0.0
H985 H 0.55063 0.6542 0.54842 0.0
C986 C 0.55053 0.64413 0.66771 0.0
C987 C 0.55202 0.6405 0.73138 0.0
C988 C 0.55856 0.66008 0.64618 0.0
C989 C 0.5609 0.65314 0.77409 0.0
C990 C 0.56876 0.66906 0.75319 0.0
C991 C 0.57688 0.68847 0.66666 0.0
C992 C 0.57674 0.69194 0.60165 0.0
C993 C 0.56796 0.67264 0.68905 0.0
C994 C 0.56688 0.67943 0.55989 0.0
C995 C 0.55784 0.66366 0.58197 0.0
H996 H 0.35892 0.43687 0.68592 0.0
H997 H 0.35526 0.39492 0.77696 0.0
H998 H 0.32684 0.37955 0.75009 0.0
H999 H 0.30328 0.37768 0.69809 0.0
H1000 H 0.30663 0.41933 0.60583 0.0
H1001 H 0.33494 0.43513 0.63576 0.0
C1002 C 0.35187 0.42441 0.70034 0.0
C1003 C 0.35923 0.41706 0.73329 0.0
C1004 C 0.33552 0.41554 0.68413 0.0
C1005 C 0.34993 0.40088 0.7514 0.0
C1006 C 0.33367 0.39205 0.73598 0.0
C1007 C 0.31017 0.39021 0.68443 0.0
C1008 C 0.30285 0.39727 0.64947 0.0
C1009 C 0.32639 0.3992 0.70177 0.0
C1010 C 0.31198 0.41357 0.63257 0.0
C1011 C 0.32816 0.42262 0.64973 0.0
H1012 H 0.58317 0.88905 0.63944 0.0
H1013 H 0.62523 0.93296 0.58036 0.0
H1014 H 0.61172 0.94805 0.60357 0.0
H1015 H 0.58837 0.94904 0.6425 0.0
H1016 H 0.54613 0.90548 0.7025 0.0
H1017 H 0.55934 0.89003 0.67717 0.0
C1018 C 0.58933 0.9019 0.63129 0.0
C1019 C 0.60521 0.90984 0.60827 0.0
C1020 C 0.58151 0.9106 0.64522 0.0
C1021 C 0.61303 0.92652 0.59818 0.0
C1022 C 0.60533 0.93519 0.6115 0.0
C1023 C 0.58201 0.93616 0.65016 0.0
C1024 C 0.5663 0.92845 0.67461 0.0
C1025 C 0.58964 0.92739 0.63546 0.0
C1026 C 0.55825 0.91174 0.68387 0.0
C1027 C 0.56579 0.90289 0.66933 0.0
H1028 H 0.08603 0.64097 0.71749 0.0
H1029 H 0.0496 0.64445 0.82494 0.0
H1030 H 0.06151 0.67263 0.79587 0.0
H1031 H 0.08148 0.69594 0.73713 0.0
H1032 H 0.1179 0.6929 0.62814 0.0
H1033 H 0.10675 0.66487 0.66067 0.0
C1034 C 0.08079 0.64794 0.73499 0.0
C1035 C 0.0669 0.64057 0.77321 0.0
C1036 C 0.08761 0.66417 0.71749 0.0
C1037 C 0.06024 0.64977 0.79528 0.0
C1038 C 0.06702 0.6659 0.77862 0.0
C1039 C 0.08703 0.6892 0.72042 0.0
C1040 C 0.10046 0.6965 0.67995 0.0
C1041 C 0.08057 0.67315 0.73917 0.0
C1042 C 0.10752 0.68756 0.65918 0.0
C1043 C 0.10116 0.67153 0.6778 0.0
H1044 H 0.10525 0.35353 0.73831 0.0
H1045 H 0.15463 0.36586 0.76471 0.0
H1046 H 0.14715 0.34895 0.85945 0.0
H1047 H 0.12658 0.33059 0.93456 0.0
H1048 H 0.07723 0.31834 0.90775 0.0
H1049 H 0.08476 0.33534 0.81348 0.0
C1050 C 0.11439 0.35253 0.76472 0.0
C1051 C 0.13047 0.36095 0.74434 0.0
C1052 C 0.11003 0.34282 0.81916 0.0
C1053 C 0.14215 0.35952 0.77926 0.0
C1054 C 0.1379 0.34985 0.8335 0.0
C1055 C 0.11747 0.33165 0.90819 0.0
C1056 C 0.10137 0.32318 0.92824 0.0
C1057 C 0.12187 0.34144 0.85386 0.0
C1058 C 0.08972 0.3247 0.89342 0.0
C1059 C 0.09401 0.33442 0.83943 0.0
H1060 H 0.68599 0.77169 0.90314 0.0
H1061 H 0.6616 0.79251 0.00323 0.0
H1062 H 0.64196 0.7844 0.9173 0.0
H1063 H 0.63166 0.77129 0.81397 0.0
H1064 H 0.6564 0.75088 0.71351 0.0
H1065 H 0.67598 0.75899 0.79944 0.0
C1066 C 0.67637 0.77444 0.90631 0.0
C1067 C 0.67525 0.78266 0.95969 0.0
C1068 C 0.66518 0.76983 0.85662 0.0
C1069 C 0.66275 0.7862 0.96272 0.0
C1070 C 0.6515 0.78156 0.9136 0.0
C1071 C 0.64133 0.76862 0.81082 0.0
C1072 C 0.64252 0.76045 0.75739 0.0
C1073 C 0.6526 0.77336 0.86034 0.0
C1074 C 0.65518 0.75715 0.75403 0.0
C1075 C 0.66639 0.76176 0.8032 0.0
H1076 H 0.19506 0.87649 0.91238 0.0
H1077 H 0.23876 0.92216 0.9305 0.0
H1078 H 0.24999 0.91592 0.8379 0.0
H1079 H 0.2473 0.89766 0.75103 0.0
H1080 H 0.20346 0.8521 0.73265 0.0
H1081 H 0.19241 0.85821 0.82597 0.0
C1082 C 0.20707 0.88506 0.89633 0.0
C1083 C 0.21604 0.89976 0.92842 0.0
C1084 C 0.21342 0.88147 0.84276 0.0
C1085 C 0.23157 0.91075 0.90671 0.0
C1086 C 0.23801 0.90721 0.85367 0.0
C1087 C 0.23531 0.88907 0.76733 0.0
C1088 C 0.22623 0.87445 0.73473 0.0
C1089 C 0.22901 0.89264 0.82114 0.0
C1090 C 0.21073 0.86345 0.75669 0.0
C1091 C 0.20439 0.86692 0.81016 0.0
H1092 H 0.30162 0.10579 0.16056 0.0
H1093 H 0.33069 0.0926 0.04728 0.0
H1094 H 0.35088 0.10195 0.13136 0.0
H1095 H 0.36028 0.11385 0.23691 0.0
H1096 H 0.33155 0.12768 0.3491 0.0
H1097 H 0.31121 0.11805 0.26551 0.0
C1098 C 0.31236 0.10494 0.15424 0.0
C1099 C 0.31462 0.09847 0.09776 0.0
C1100 C 0.32398 0.11043 0.20259 0.0
C1101 C 0.32866 0.09755 0.09023 0.0
C1102 C 0.34021 0.10287 0.13834 0.0
C1103 C 0.34955 0.11472 0.24321 0.0
C1104 C 0.34742 0.12143 0.29927 0.0
C1105 C 0.33798 0.10931 0.19472 0.0
C1106 C 0.3335 0.12258 0.3064 0.0
C1107 C 0.32185 0.11707 0.25864 0.0
H1108 H 0.88777 0.24272 0.23508 0.0
H1109 H 0.86813 0.1974 0.33371 0.0
H1110 H 0.87656 0.18643 0.24664 0.0
H1111 H 0.88977 0.18983 0.1429 0.0
H1112 H 0.90928 0.23529 0.0451 0.0
H1113 H 0.90059 0.24603 0.13158 0.0
C1114 C 0.88529 0.23043 0.23762 0.0
C1115 C 0.87735 0.22092 0.29092 0.0
C1116 C 0.89016 0.22421 0.18754 0.0
C1117 C 0.87424 0.205 0.29327 0.0
C1118 C 0.87906 0.19871 0.2435 0.0
C1119 C 0.89211 0.20208 0.14047 0.0
C1120 C 0.90019 0.21173 0.08757 0.0
C1121 C 0.88707 0.20823 0.19047 0.0
C1122 C 0.90309 0.22757 0.08518 0.0
C1123 C 0.89813 0.23375 0.13466 0.0
H1124 H 0.75342 0.66881 0.28454 0.0
H1125 H 0.7701 0.63538 0.24941 0.0
H1126 H 0.78236 0.64899 0.14961 0.0
H1127 H 0.78781 0.67 0.07093 0.0
H1128 H 0.76994 0.70257 0.10367 0.0
H1129 H 0.75869 0.68969 0.20553 0.0
C1130 C 0.75984 0.66459 0.25524 0.0
C1131 C 0.76088 0.65115 0.2744 0.0
C1132 C 0.76659 0.67226 0.19726 0.0
C1133 C 0.76908 0.64569 0.23559 0.0
C1134 C 0.77611 0.65346 0.17853 0.0
C1135 C 0.78151 0.67431 0.10048 0.0
C1136 C 0.77973 0.68722 0.07972 0.0
C1137 C 0.77485 0.66669 0.15865 0.0
C1138 C 0.77142 0.69259 0.11836 0.0
C1139 C 0.76501 0.68526 0.17673 0.0
H1140 H 0.91374 0.68443 0.08364 0.0
H1141 H 0.86797 0.65994 0.9876 0.0
H1142 H 0.85676 0.6407 0.07507 0.0
H1143 H 0.85995 0.63099 0.1793 0.0
H1144 H 0.90582 0.65586 0.27477 0.0
H1145 H 0.91695 0.67478 0.18685 0.0
C1146 C 0.90131 0.67488 0.08168 0.0
C1147 C 0.89171 0.67364 0.02916 0.0
C1148 C 0.89494 0.66393 0.13206 0.0
C1149 C 0.87563 0.66119 0.0275 0.0
C1150 C 0.8692 0.65018 0.0775 0.0
C1151 C 0.87239 0.64053 0.18084 0.0
C1152 C 0.88202 0.64198 0.2336 0.0
C1153 C 0.87875 0.65145 0.1301 0.0
C1154 C 0.89811 0.65444 0.23482 0.0
C1155 C 0.90451 0.66529 0.18454 0.0
H1156 H 0.33252 0.20812 0.04331 0.0
H1157 H 0.30552 0.23078 0.10147 0.0
H1158 H 0.3221 0.24129 0.19642 0.0
H1159 H 0.34443 0.24435 0.26246 0.0
H1160 H 0.37179 0.22212 0.20386 0.0
H1161 H 0.35488 0.21115 0.10973 0.0
C1162 C 0.33023 0.21532 0.07681 0.0
C1163 C 0.31779 0.21864 0.06519 0.0
C1164 C 0.33989 0.22144 0.13128 0.0
C1165 C 0.31503 0.22804 0.10908 0.0
C1166 C 0.32451 0.23407 0.16349 0.0
C1167 C 0.34669 0.23707 0.22921 0.0
C1168 C 0.35937 0.23408 0.24025 0.0
C1169 C 0.33699 0.23088 0.17498 0.0
C1170 C 0.36213 0.22465 0.19652 0.0
C1171 C 0.35246 0.21836 0.14264 0.0
H1172 H 0.80563 0.10756 0.13785 0.0
H1173 H 0.76019 0.08531 0.03908 0.0
H1174 H 0.74854 0.09373 0.1233 0.0
H1175 H 0.75116 0.10719 0.22512 0.0
H1176 H 0.79671 0.13002 0.32304 0.0
H1177 H 0.80841 0.12157 0.23886 0.0
C1178 C 0.79318 0.10455 0.13472 0.0
C1179 C 0.78379 0.09577 0.08234 0.0
C1180 C 0.78657 0.10951 0.18314 0.0
C1181 C 0.7677 0.09207 0.07883 0.0
C1182 C 0.76101 0.09685 0.12702 0.0
C1183 C 0.76364 0.1103 0.22817 0.0
C1184 C 0.77303 0.11917 0.28041 0.0
C1185 C 0.77032 0.10553 0.17944 0.0
C1186 C 0.78922 0.12321 0.28333 0.0
C1187 C 0.79592 0.11837 0.23525 0.0
H1188 H 0.63463 0.86218 0.82762 0.0
H1189 H 0.66118 0.90734 0.72834 0.0
H1190 H 0.68062 0.91802 0.81494 0.0
H1191 H 0.69021 0.91452 0.91816 0.0
H1192 H 0.66398 0.86929 0.01714 0.0
H1193 H 0.64428 0.85868 0.93118 0.0
C1194 C 0.64464 0.87438 0.82497 0.0
C1195 C 0.64643 0.88394 0.77158 0.0
C1196 C 0.65585 0.88043 0.87478 0.0
C1197 C 0.65952 0.8997 0.76883 0.0
C1198 C 0.67065 0.90583 0.81834 0.0
C1199 C 0.68018 0.90234 0.92107 0.0
C1200 C 0.67858 0.89272 0.97403 0.0
C1201 C 0.66895 0.89629 0.87144 0.0
C1202 C 0.66552 0.87696 0.97689 0.0
C1203 C 0.65423 0.87087 0.92777 0.0
H1204 H 0.11667 0.75961 0.78593 0.0
H1205 H 0.09784 0.77912 0.64792 0.0
H1206 H 0.08554 0.78659 0.73315 0.0
H1207 H 0.07966 0.78704 0.84685 0.0
H1208 H 0.09932 0.76827 0.98452 0.0
H1209 H 0.11177 0.76106 0.89934 0.0
C1210 C 0.1099 0.76552 0.77446 0.0
C1211 C 0.1081 0.76873 0.71068 0.0
C1212 C 0.10297 0.76989 0.82361 0.0
C1213 C 0.09942 0.77653 0.69666 0.0
C1214 C 0.09235 0.78077 0.74535 0.0
C1215 C 0.08667 0.78137 0.85816 0.0
C1216 C 0.08848 0.77811 0.92186 0.0
C1217 C 0.09396 0.77741 0.80897 0.0
C1218 C 0.09774 0.77092 0.93586 0.0
C1219 C 0.10485 0.76676 0.88719 0.0
H1220 H 0.21366 0.33937 0.98043 0.0
H1221 H 0.21932 0.30152 0.89647 0.0
H1222 H 0.22963 0.31713 0.79916 0.0
H1223 H 0.23739 0.34163 0.73815 0.0
H1224 H 0.23224 0.37976 0.82223 0.0
H1225 H 0.22138 0.36393 0.91901 0.0
C1226 C 0.2171 0.33452 0.9408 0.0
C1227 C 0.2157 0.31929 0.94587 0.0
C1228 C 0.22314 0.34362 0.88492 0.0
C1229 C 0.22028 0.31321 0.89402 0.0
C1230 C 0.22618 0.32213 0.83824 0.0
C1231 C 0.23386 0.34648 0.77755 0.0
C1232 C 0.23564 0.36186 0.77288 0.0
C1233 C 0.22772 0.33736 0.83323 0.0
C1234 C 0.23104 0.36796 0.82454 0.0
C1235 C 0.22481 0.35892 0.87995 0.0
H1236 H 0.02055 0.43743 0.55966 0.0
H1237 H 0.01886 0.48133 0.57522 0.0
H1238 H 0.00152 0.47383 0.48181 0.0
H1239 H 0.98674 0.45479 0.39609 0.0
H1240 H 0.9883 0.41082 0.38098 0.0
H1241 H 0.00588 0.41846 0.47368 0.0
C1242 C 0.01638 0.44536 0.54274 0.0
C1243 C 0.021 0.45991 0.57453 0.0
C1244 C 0.00644 0.44101 0.48892 0.0
C1245 C 0.01549 0.47005 0.55178 0.0
C1246 C 0.00558 0.46579 0.49827 0.0
C1247 C 0.99098 0.4469 0.41282 0.0
C1248 C 0.9862 0.43226 0.38155 0.0
C1249 C 0.00099 0.45131 0.46645 0.0
C1250 C 0.99177 0.42216 0.40413 0.0
C1251 C 0.00181 0.4265 0.45722 0.0
H1252 H 0.57236 0.56703 0.3829 0.0
H1253 H 0.54941 0.51684 0.43321 0.0
H1254 H 0.53843 0.52203 0.52918 0.0
H1255 H 0.53536 0.54083 0.59902 0.0
H1256 H 0.55857 0.59105 0.54865 0.0
H1257 H 0.56943 0.5858 0.45273 0.0
C1258 C 0.56494 0.55721 0.41476 0.0
C1259 C 0.56172 0.54158 0.40077 0.0
C1260 C 0.55872 0.56028 0.47002 0.0
C1261 C 0.55211 0.52901 0.44278 0.0
C1262 C 0.54581 0.53196 0.49773 0.0
C1263 C 0.54281 0.55064 0.56712 0.0
C1264 C 0.54612 0.5663 0.58113 0.0
C1265 C 0.54905 0.54755 0.51189 0.0
C1266 C 0.55581 0.57886 0.53917 0.0
C1267 C 0.56203 0.57588 0.48418 0.0
H1268 H 0.41211 0.96022 0.54949 0.0
H1269 H 0.43025 0.9986 0.68749 0.0
H1270 H 0.4423 0.01839 0.60256 0.0
H1271 H 0.44752 0.02485 0.48926 0.0
H1272 H 0.43034 0.98657 0.35117 0.0
H1273 H 0.41811 0.96669 0.43603 0.0
C1274 C 0.41869 0.97292 0.56093 0.0
C1275 C 0.42022 0.97792 0.62464 0.0
C1276 C 0.42576 0.98425 0.51191 0.0
C1277 C 0.42891 0.99441 0.63881 0.0
C1278 C 0.43579 0.00575 0.59029 0.0
C1279 C 0.44108 0.01216 0.47771 0.0
C1280 C 0.43977 0.0072 0.41404 0.0
C1281 C 0.43425 0.00081 0.5267 0.0
C1282 C 0.43154 0.9907 0.39987 0.0
C1283 C 0.42452 0.97933 0.44833 0.0
H1284 H 0.5603 0.983 0.56688 0.0
H1285 H 0.51426 0.94925 0.4864 0.0
H1286 H 0.52086 0.96534 0.38962 0.0
H1287 H 0.53967 0.98903 0.32782 0.0
H1288 H 0.58594 0.02245 0.40765 0.0
H1289 H 0.57926 0.00642 0.50448 0.0
C1290 C 0.55169 0.97917 0.52823 0.0
C1291 C 0.53679 0.96497 0.53399 0.0
C1292 C 0.55561 0.98841 0.47247 0.0
C1293 C 0.52583 0.96013 0.48324 0.0
C1294 C 0.52958 0.96933 0.42784 0.0
C1295 C 0.5483 0.99281 0.36638 0.0
C1296 C 0.56326 0.00695 0.36045 0.0
C1297 C 0.54443 0.98349 0.42193 0.0
C1298 C 0.57433 0.01162 0.41083 0.0
C1299 C 0.57052 0.00247 0.46634 0.0
H1300 H 0.98525 0.55868 0.45017 0.0
H1301 H 0.97914 0.51113 0.46256 0.0
H1302 H 0.99618 0.51905 0.55706 0.0
H1303 H 0.01266 0.53942 0.63653 0.0
H1304 H 0.01844 0.58686 0.62433 0.0
H1305 H 0.00157 0.57895 0.52957 0.0
C1306 C 0.9877 0.55005 0.47327 0.0
C1307 C 0.98095 0.53435 0.44917 0.0
C1308 C 0.99737 0.55463 0.52789 0.0
C1309 C 0.98419 0.52331 0.48003 0.0
C1310 C 0.99391 0.52781 0.53417 0.0
C1311 C 0.01019 0.54802 0.61332 0.0
C1312 C 0.01681 0.56371 0.6376 0.0
C1313 C 0.0005 0.54342 0.55867 0.0
C1314 C 0.0135 0.5747 0.60678 0.0
C1315 C 0.00388 0.57021 0.55245 0.0
H1316 H 0.44095 0.41777 0.40243 0.0
H1317 H 0.48829 0.45955 0.41482 0.0
H1318 H 0.48032 0.46842 0.50981 0.0
H1319 H 0.45991 0.46439 0.58904 0.0
H1320 H 0.41252 0.42271 0.576 0.0
H1321 H 0.42057 0.41373 0.4816 0.0
C1322 C 0.44954 0.42883 0.42585 0.0
C1323 C 0.46519 0.43798 0.40148 0.0
C1324 C 0.44489 0.43387 0.48039 0.0
C1325 C 0.47616 0.45227 0.43248 0.0
C1326 C 0.47162 0.45736 0.48687 0.0
C1327 C 0.45135 0.45332 0.56568 0.0
C1328 C 0.43564 0.44425 0.58959 0.0
C1329 C 0.45602 0.44826 0.51122 0.0
C1330 C 0.42469 0.42995 0.55858 0.0
C1331 C 0.42927 0.4248 0.50456 0.0
H1332 H 0.09011 0.3081 0.27303 0.0
H1333 H 0.08848 0.3472 0.17945 0.0
H1334 H 0.09754 0.36309 0.27682 0.0
H1335 H 0.10691 0.36632 0.38739 0.0
H1336 H 0.10924 0.32748 0.47989 0.0
H1337 H 0.09885 0.31107 0.38427 0.0
C1338 C 0.09165 0.32006 0.27398 0.0
C1339 C 0.08866 0.32644 0.2189 0.0
C1340 C 0.09702 0.32922 0.32998 0.0
C1341 C 0.09075 0.34199 0.22103 0.0
C1342 C 0.09593 0.35111 0.27675 0.0
C1343 C 0.10502 0.35422 0.38682 0.0
C1344 C 0.10887 0.34816 0.44072 0.0
C1345 C 0.09923 0.3449 0.33134 0.0
C1346 C 0.10643 0.33247 0.43902 0.0
C1347 C 0.10049 0.32307 0.38432 0.0
H1348 H 0.67168 0.76386 0.46131 0.0
H1349 H 0.62433 0.73326 0.3841 0.0
H1350 H 0.6358 0.73596 0.278 0.0
H1351 H 0.65909 0.74847 0.20611 0.0
H1352 H 0.70634 0.77938 0.28385 0.0
H1353 H 0.69507 0.77495 0.39073 0.0
C1354 C 0.66386 0.75768 0.42141 0.0
C1355 C 0.64716 0.74848 0.43066 0.0
C1356 C 0.67051 0.75936 0.36049 0.0
C1357 C 0.63723 0.74046 0.37839 0.0
C1358 C 0.64377 0.74202 0.31762 0.0
C1359 C 0.66696 0.7541 0.24647 0.0
C1360 C 0.68353 0.76434 0.23674 0.0
C1361 C 0.66037 0.75166 0.30794 0.0
C1362 C 0.69353 0.7715 0.28974 0.0
C1363 C 0.68709 0.76901 0.35098 0.0
H1364 H 0.24843 0.91506 0.21656 0.0
H1365 H 0.20299 0.90969 0.27558 0.0
H1366 H 0.20572 0.89996 0.3793 0.0
H1367 H 0.22054 0.89219 0.45222 0.0
H1368 H 0.26601 0.89759 0.39383 0.0
H1369 H 0.26373 0.90813 0.29109 0.0
C1370 C 0.23914 0.91182 0.25215 0.0
C1371 C 0.2255 0.91306 0.23804 0.0
C1372 C 0.24077 0.9062 0.31186 0.0
C1373 C 0.21362 0.90886 0.28497 0.0
C1374 C 0.21515 0.90326 0.34437 0.0
C1375 C 0.22999 0.89571 0.41715 0.0
C1376 C 0.24339 0.89402 0.43074 0.0
C1377 C 0.2286 0.90176 0.35815 0.0
C1378 C 0.25555 0.89874 0.38473 0.0
C1379 C 0.25425 0.90475 0.32586 0.0
H1380 H 0.33492 0.09154 0.54873 0.0
H1381 H 0.37881 0.13149 0.62064 0.0
H1382 H 0.36642 0.12844 0.72478 0.0
H1383 H 0.34299 0.11493 0.79477 0.0
H1384 H 0.29898 0.07513 0.72309 0.0
H1385 H 0.31158 0.07767 0.61958 0.0
C1386 C 0.34182 0.09952 0.58727 0.0
C1387 C 0.35778 0.11173 0.57673 0.0
C1388 C 0.33458 0.09779 0.64704 0.0
C1389 C 0.36651 0.12199 0.62727 0.0
C1390 C 0.35943 0.12028 0.6869 0.0
C1391 C 0.33613 0.1068 0.75658 0.0
C1392 C 0.32004 0.09489 0.76674 0.0
C1393 C 0.34344 0.10831 0.69717 0.0
C1394 C 0.31138 0.08442 0.71665 0.0
C1395 C 0.31857 0.08585 0.65739 0.0
H1396 H 0.92272 0.23012 0.72278 0.0
H1397 H 0.87675 0.21687 0.80665 0.0
H1398 H 0.86951 0.22685 0.71324 0.0
H1399 H 0.87578 0.23852 0.60654 0.0
H1400 H 0.92143 0.25132 0.52085 0.0
H1401 H 0.92925 0.24242 0.61627 0.0
C1402 C 0.91115 0.22948 0.72072 0.0
C1403 C 0.90029 0.2227 0.77164 0.0
C1404 C 0.90698 0.23515 0.66651 0.0
C1405 C 0.88533 0.22196 0.76812 0.0
C1406 C 0.88117 0.22767 0.71469 0.0
C1407 C 0.88749 0.23948 0.60879 0.0
C1408 C 0.89798 0.24557 0.5565 0.0
C1409 C 0.89184 0.23418 0.66344 0.0
C1410 C 0.91309 0.24666 0.56032 0.0
C1411 C 0.91758 0.24155 0.61487 0.0
H1412 H 0.77452 0.66327 0.77694 0.0
H1413 H 0.75723 0.69627 0.74347 0.0
H1414 H 0.74292 0.68114 0.64868 0.0
H1415 H 0.73624 0.65911 0.57265 0.0
H1416 H 0.75428 0.62668 0.60616 0.0
H1417 H 0.76725 0.64097 0.70359 0.0
C1418 C 0.76757 0.66714 0.74916 0.0
C1419 C 0.76702 0.68093 0.76726 0.0
C1420 C 0.75949 0.65848 0.69453 0.0
C1421 C 0.75791 0.68573 0.7306 0.0
C1422 C 0.74972 0.67708 0.67633 0.0
C1423 C 0.74288 0.65508 0.6016 0.0
C1424 C 0.7443 0.64186 0.58187 0.0
C1425 C 0.75054 0.66351 0.65747 0.0
C1426 C 0.75303 0.63686 0.61989 0.0
C1427 C 0.76048 0.64503 0.67571 0.0
H1428 H 0.90234 0.63878 0.60039 0.0
H1429 H 0.89786 0.67591 0.50338 0.0
H1430 H 0.90778 0.69299 0.5971 0.0
H1431 H 0.91593 0.69675 0.70879 0.0
H1432 H 0.92001 0.65961 0.80745 0.0
H1433 H 0.91218 0.6433 0.71094 0.0
C1434 C 0.90371 0.65068 0.59955 0.0
C1435 C 0.89922 0.65597 0.54509 0.0
C1436 C 0.90927 0.66044 0.65408 0.0
C1437 C 0.90109 0.67144 0.5448 0.0
C1438 C 0.90676 0.68125 0.59844 0.0
C1439 C 0.91525 0.68515 0.70914 0.0
C1440 C 0.91843 0.67938 0.76547 0.0
C1441 C 0.91059 0.67576 0.65371 0.0
C1442 C 0.91756 0.66434 0.76485 0.0
C1443 C 0.91305 0.65497 0.70966 0.0
H1444 H 0.30303 0.21501 0.72198 0.0
H1445 H 0.34185 0.25531 0.81887 0.0
H1446 H 0.35786 0.26284 0.72162 0.0
H1447 H 0.36117 0.25757 0.60982 0.0
H1448 H 0.32256 0.21685 0.51401 0.0
H1449 H 0.30618 0.20997 0.61 0.0
C1450 C 0.31496 0.22549 0.72181 0.0
C1451 C 0.32121 0.23456 0.77773 0.0
C1452 C 0.32418 0.22968 0.66589 0.0
C1453 C 0.33673 0.24808 0.7766 0.0
C1454 C 0.34591 0.25241 0.72097 0.0
C1455 C 0.34914 0.24724 0.60981 0.0
C1456 C 0.34313 0.23774 0.55474 0.0
C1457 C 0.33981 0.24323 0.66545 0.0
C1458 C 0.32753 0.22436 0.55572 0.0
C1459 C 0.31813 0.2204 0.61063 0.0
H1460 H 0.76798 0.10802 0.78369 0.0
H1461 H 0.7788 0.07272 0.70847 0.0
H1462 H 0.76989 0.07563 0.60315 0.0
H1463 H 0.75948 0.0885 0.53199 0.0
H1464 H 0.74869 0.12383 0.60718 0.0
H1465 H 0.75707 0.12051 0.71295 0.0
C1466 C 0.76839 0.10095 0.74431 0.0
C1467 C 0.77411 0.09021 0.75403 0.0
C1468 C 0.76323 0.10266 0.68383 0.0
C1469 C 0.77448 0.08109 0.70242 0.0
C1470 C 0.76938 0.08274 0.64211 0.0
C1471 C 0.75889 0.09544 0.57151 0.0
C1472 C 0.75348 0.10641 0.56151 0.0
C1473 C 0.76379 0.09353 0.63222 0.0
C1474 C 0.75279 0.11529 0.6134 0.0
C1475 C 0.75761 0.11342 0.67396 0.0
H1476 H 0.69872 0.90591 0.28716 0.0
H1477 H 0.66801 0.92239 0.20884 0.0
H1478 H 0.65097 0.91285 0.30314 0.0
H1479 H 0.6444 0.89927 0.40673 0.0
H1480 H 0.67495 0.88253 0.4845 0.0
H1481 H 0.69238 0.89271 0.39148 0.0
C1482 C 0.68836 0.90752 0.29085 0.0
C1483 C 0.68467 0.91486 0.24093 0.0
C1484 C 0.67852 0.90187 0.34499 0.0
C1485 C 0.67115 0.91678 0.24648 0.0
C1486 C 0.66137 0.9113 0.30038 0.0
C1487 C 0.65487 0.89785 0.40339 0.0
C1488 C 0.65832 0.89011 0.45252 0.0
C1489 C 0.66486 0.90372 0.3497 0.0
C1490 C 0.67197 0.88841 0.44739 0.0
C1491 C 0.68198 0.89424 0.3942 0.0
H1492 H 0.12357 0.75957 0.4117 0.0
H1493 H 0.07379 0.73133 0.46684 0.0
H1494 H 0.06586 0.74085 0.37351 0.0
H1495 H 0.0732 0.75813 0.27863 0.0
H1496 H 0.1231 0.78649 0.22506 0.0
H1497 H 0.13079 0.77598 0.31545 0.0
C1498 C 0.11096 0.75538 0.40316 0.0
C1499 C 0.09931 0.74479 0.44642 0.0
C1500 C 0.1065 0.76101 0.34985 0.0
C1501 C 0.08303 0.73949 0.43441 0.0
C1502 C 0.07848 0.74497 0.38111 0.0
C1503 C 0.08575 0.76198 0.28664 0.0
C1504 C 0.09754 0.77316 0.24524 0.0
C1505 C 0.09013 0.7559 0.33894 0.0
C1506 C 0.11375 0.77795 0.2562 0.0
C1507 C 0.11818 0.77194 0.30792 0.0
H1508 H 0.20932 0.30237 0.28119 0.0
H1509 H 0.25409 0.33685 0.1937 0.0
H1510 H 0.26177 0.35318 0.29022 0.0
H1511 H 0.2554 0.35811 0.3984 0.0
H1512 H 0.21036 0.32375 0.4845 0.0
H1513 H 0.20323 0.30698 0.38965 0.0
C1514 C 0.22081 0.31341 0.28325 0.0
C1515 C 0.23109 0.31836 0.23012 0.0
C1516 C 0.2251 0.32282 0.33866 0.0
C1517 C 0.24591 0.33273 0.23377 0.0
C1518 C 0.25032 0.3421 0.28898 0.0
C1519 C 0.24406 0.34691 0.39655 0.0
C1520 C 0.23343 0.34224 0.44856 0.0
C1521 C 0.23995 0.33733 0.34154 0.0
C1522 C 0.21877 0.3277 0.4452 0.0
C1523 C 0.21466 0.31807 0.39093 0.0
H1524 H 0.99762 0.44035 0.85781 0.0
H1525 H 0.04001 0.43916 0.91647 0.0
H1526 H 0.02778 0.42838 0.01988 0.0
H1527 H 0.00541 0.42011 0.09494 0.0
H1528 H 0.96294 0.42109 0.03563 0.0
H1529 H 0.97485 0.43108 0.93121 0.0
C1530 C 0.00418 0.43769 0.89309 0.0
C1531 C 0.01974 0.44064 0.87942 0.0
C1532 C 0.99707 0.43147 0.95246 0.0
C1533 C 0.02801 0.43701 0.92564 0.0
C1534 C 0.02104 0.43087 0.9849 0.0
C1535 C 0.99872 0.42246 0.05914 0.0
C1536 C 0.98333 0.41992 0.07333 0.0
C1537 C 0.00563 0.42819 0.99903 0.0
C1538 C 0.97481 0.42294 0.02613 0.0
C1539 C 0.98162 0.42868 0.96635 0.0
H1540 H 0.5872 0.57005 0.03951 0.0
H1541 H 0.54071 0.55585 0.12055 0.0
H1542 H 0.53354 0.56566 0.02638 0.0
H1543 H 0.53996 0.57727 0.91957 0.0
H1544 H 0.58617 0.59107 0.83684 0.0
H1545 H 0.59395 0.58251 0.93332 0.0
C1546 C 0.57553 0.56918 0.03674 0.0
C1547 C 0.5645 0.56215 0.08703 0.0
C1548 C 0.57141 0.57475 0.9821 0.0
C1549 C 0.54943 0.56113 0.08255 0.0
C1550 C 0.5453 0.56675 0.02867 0.0
C1551 C 0.55179 0.57852 0.92265 0.0
C1552 C 0.56243 0.58477 0.87084 0.0
C1553 C 0.55613 0.57343 0.97794 0.0
C1554 C 0.57771 0.58628 0.87588 0.0
C1555 C 0.58217 0.58136 0.93104 0.0
H1556 H 0.45508 0.03185 0.11159 0.0
H1557 H 0.40571 0.0087 0.17374 0.0
H1558 H 0.39753 0.99129 0.0801 0.0
H1559 H 0.40465 0.98178 0.98316 0.0
H1560 H 0.45422 0.00496 0.92315 0.0
H1561 H 0.46201 0.02317 0.0135 0.0
C1562 C 0.4425 0.02309 0.10456 0.0
C1563 C 0.43104 0.02154 0.14984 0.0
C1564 C 0.43791 0.01302 0.05117 0.0
C1565 C 0.41479 0.01014 0.1397 0.0
C1566 C 0.41011 0.00013 0.08625 0.0
C1567 C 0.41715 0.99085 0.98976 0.0
C1568 C 0.42883 0.99191 0.94658 0.0
C1569 C 0.42161 0.00132 0.04212 0.0
C1570 C 0.44496 0.0038 0.9557 0.0
C1571 C 0.44946 0.01425 0.00739 0.0
H1572 H 0.55943 0.96826 0.90609 0.0
H1573 H 0.54804 0.00274 0.82645 0.0
H1574 H 0.55898 0.01962 0.92053 0.0
H1575 H 0.57118 0.02436 0.02651 0.0
H1576 H 0.58231 0.98978 0.10698 0.0
H1577 H 0.57215 0.97327 0.01142 0.0
C1578 C 0.55937 0.97948 0.90918 0.0
C1579 C 0.55287 0.98417 0.8592 0.0
C1580 C 0.56564 0.98915 0.96363 0.0
C1581 C 0.55292 0.99878 0.86414 0.0
C1582 C 0.55919 0.00847 0.91799 0.0
C1583 C 0.57148 0.01326 0.02309 0.0
C1584 C 0.5775 0.00833 0.07402 0.0
C1585 C 0.5655 0.00374 0.96817 0.0
C1586 C 0.57774 0.99388 0.06864 0.0
C1587 C 0.5719 0.9844 0.01398 0.0
H1588 H 0.99714 0.57553 0.92226 0.0
H1589 H 0.0394 0.57394 0.9801 0.0
H1590 H 0.02744 0.56366 0.08415 0.0
H1591 H 0.00475 0.5544 0.15774 0.0
H1592 H 0.96258 0.55625 0.10112 0.0
H1593 H 0.97479 0.56721 0.99774 0.0
C1594 C 0.00376 0.57298 0.95767 0.0
C1595 C 0.01912 0.57544 0.94316 0.0
C1596 C 0.99683 0.5671 0.01765 0.0
C1597 C 0.02756 0.57217 0.98985 0.0
C1598 C 0.02072 0.56625 0.04941 0.0
C1599 C 0.99823 0.55723 0.1229 0.0
C1600 C 0.98274 0.55443 0.13712 0.0
C1601 C 0.00532 0.56356 0.06366 0.0
C1602 C 0.97453 0.55829 0.0915 0.0
C1603 C 0.98148 0.56453 0.03228 0.0
H1604 H 0.44484 0.40912 0.04881 0.0
H1605 H 0.44845 0.45127 0.13777 0.0
H1606 H 0.4374 0.45668 0.04266 0.0
H1607 H 0.42725 0.4498 0.93335 0.0
H1608 H 0.42415 0.40795 0.84365 0.0
H1609 H 0.43442 0.40209 0.93993 0.0
C1610 C 0.44315 0.41946 0.04752 0.0
C1611 C 0.44749 0.42977 0.10038 0.0
C1612 C 0.4369 0.42258 0.99246 0.0
C1613 C 0.44526 0.44314 0.09775 0.0
C1614 C 0.43893 0.44625 0.04335 0.0
C1615 C 0.42875 0.43935 0.93492 0.0
C1616 C 0.42494 0.42935 0.88128 0.0
C1617 C 0.43479 0.43611 0.9903 0.0
C1618 C 0.42701 0.41589 0.88414 0.0
C1619 C 0.43289 0.41251 0.93923 0.0
loop_
_geom_bond_atom_site_label_1
_geom_bond_atom_site_label_2
_geom_bond_distance
_geom_bond_site_symmetry_2
_ccdc_geom_bond_type
C0 O1 1.160 . S
C0 O7 1.185 . S
O1 C0 1.160 . S
O2 Zn3 1.899 . S
O2 C10 1.284 . S
Zn3 O2 1.899 . S
Zn3 O4 2.032 . S
Zn3 O7 2.086 . S
Zn3 O12 1.977 . S
O4 Zn3 2.032 . S
O4 C8 1.278 1_554 S
C5 O6 1.203 . S
C5 O12 1.267 . S
O6 C5 1.203 . S
O7 C0 1.185 . S
O7 Zn3 2.086 . S
C8 O4 1.278 1_556 S
C8 O9 1.211 . S
O9 C8 1.211 . S
C10 O2 1.284 . S
C10 O11 1.273 . S
O11 C10 1.273 . S
O12 Zn3 1.977 . S
O12 C5 1.267 . S
C13 O14 1.160 . S
C13 O20 1.185 . S
O14 C13 1.160 . S
O15 Zn16 1.899 . S
O15 C23 1.284 . S
Zn16 O15 1.899 . S
Zn16 O17 2.032 . S
Zn16 O20 2.086 . S
Zn16 O25 1.977 . S
O17 Zn16 2.032 . S
O17 C21 1.278 1_554 S
C18 O19 1.203 . S
C18 O25 1.267 . S
O19 C18 1.203 . S
O20 C13 1.185 . S
O20 Zn16 2.086 . S
C21 O17 1.278 1_556 S
C21 O22 1.211 . S
O22 C21 1.211 . S
C23 O15 1.284 . S
C23 O24 1.273 . S
O24 C23 1.273 . S
O25 Zn16 1.977 . S
O25 C18 1.267 . S
C26 O27 1.160 . S
C26 O33 1.185 . S
O27 C26 1.160 . S
O28 Zn29 1.899 . S
O28 C36 1.284 . S
Zn29 O28 1.899 . S
Zn29 O30 2.032 . S
Zn29 O33 2.086 . S
Zn29 O38 1.977 . S
O30 Zn29 2.032 . S
O30 C34 1.278 1_554 S
C31 O32 1.203 . S
C31 O38 1.267 . S
O32 C31 1.203 . S
O33 C26 1.185 . S
O33 Zn29 2.086 . S
C34 O30 1.278 1_556 S
C34 O35 1.211 . S
O35 C34 1.211 . S
C36 O28 1.284 . S
C36 O37 1.273 . S
O37 C36 1.273 . S
O38 Zn29 1.977 . S
O38 C31 1.267 . S
C39 O40 1.160 . S
C39 O46 1.185 . S
O40 C39 1.160 . S
O41 Zn42 1.899 . S
O41 C49 1.284 . S
Zn42 O41 1.899 . S
Zn42 O43 2.032 . S
Zn42 O46 2.086 . S
Zn42 O51 1.977 . S
O43 Zn42 2.032 . S
O43 C47 1.278 1_556 S
C44 O45 1.203 . S
C44 O51 1.267 . S
O45 C44 1.203 . S
O46 C39 1.185 . S
O46 Zn42 2.086 . S
C47 O43 1.278 1_554 S
C47 O48 1.211 . S
O48 C47 1.211 . S
C49 O41 1.284 . S
C49 O50 1.273 . S
O50 C49 1.273 . S
O51 Zn42 1.977 . S
O51 C44 1.267 . S
C52 O53 1.160 . S
C52 O59 1.185 . S
O53 C52 1.160 . S
O54 Zn55 1.899 . S
O54 C62 1.284 . S
Zn55 O54 1.899 . S
Zn55 O56 2.032 . S
Zn55 O59 2.086 . S
Zn55 O64 1.977 . S
O56 Zn55 2.032 . S
O56 C60 1.278 1_556 S
C57 O58 1.203 . S
C57 O64 1.267 . S
O58 C57 1.203 . S
O59 C52 1.185 . S
O59 Zn55 2.086 . S
C60 O56 1.278 1_554 S
C60 O61 1.211 . S
O61 C60 1.211 . S
C62 O54 1.284 . S
C62 O63 1.273 . S
O63 C62 1.273 . S
O64 Zn55 1.977 . S
O64 C57 1.267 . S
C65 O66 1.160 . S
C65 O72 1.185 . S
O66 C65 1.160 . S
O67 Zn68 1.899 . S
O67 C75 1.284 . S
Zn68 O67 1.899 . S
Zn68 O69 2.032 . S
Zn68 O72 2.086 . S
Zn68 O77 1.977 . S
O69 Zn68 2.032 . S
O69 C73 1.278 1_556 S
C70 O71 1.203 . S
C70 O77 1.267 . S
O71 C70 1.203 . S
O72 C65 1.185 . S
O72 Zn68 2.086 . S
C73 O69 1.278 1_554 S
C73 O74 1.211 . S
O74 C73 1.211 . S
C75 O67 1.284 . S
C75 O76 1.273 . S
O76 C75 1.273 . S
O77 Zn68 1.977 . S
O77 C70 1.267 . S
C78 O79 1.160 . S
C78 O85 1.185 . S
O79 C78 1.160 . S
O80 Zn81 1.899 . S
O80 C88 1.284 . S
Zn81 O80 1.899 . S
Zn81 O82 2.032 . S
Zn81 O85 2.086 . S
Zn81 O90 1.977 . S
O82 Zn81 2.032 . S
O82 C86 1.278 1_556 S
C83 O84 1.203 . S
C83 O90 1.267 . S
O84 C83 1.203 . S
O85 C78 1.185 . S
O85 Zn81 2.086 . S
C86 O82 1.278 1_554 S
C86 O87 1.211 . S
O87 C86 1.211 . S
C88 O80 1.284 . S
C88 O89 1.273 . S
O89 C88 1.273 . S
O90 Zn81 1.977 . S
O90 C83 1.267 . S
C91 O92 1.160 . S
C91 O98 1.185 . S
O92 C91 1.160 . S
O93 Zn94 1.899 . S
O93 C101 1.284 . S
Zn94 O93 1.899 . S
Zn94 O95 2.032 . S
Zn94 O98 2.086 . S
Zn94 O103 1.977 . S
O95 Zn94 2.032 . S
O95 C99 1.278 1_556 S
C96 O97 1.203 . S
C96 O103 1.267 . S
O97 C96 1.203 . S
O98 C91 1.185 . S
O98 Zn94 2.086 . S
C99 O95 1.278 1_554 S
C99 O100 1.211 . S
O100 C99 1.211 . S
C101 O93 1.284 . S
C101 O102 1.273 . S
O102 C101 1.273 . S
O103 Zn94 1.977 . S
O103 C96 1.267 . S
C104 O105 1.160 . S
C104 O111 1.185 . S
O105 C104 1.160 . S
O106 Zn107 1.899 . S
O106 C114 1.284 . S
Zn107 O106 1.899 . S
Zn107 O108 2.032 . S
Zn107 O111 2.086 . S
Zn107 O116 1.977 . S
O108 Zn107 2.032 . S
O108 C112 1.278 1_556 S
C109 O110 1.203 . S
C109 O116 1.267 . S
O110 C109 1.203 . S
O111 C104 1.185 . S
O111 Zn107 2.086 . S
C112 O108 1.278 1_554 S
C112 O113 1.211 . S
O113 C112 1.211 . S
C114 O106 1.284 . S
C114 O115 1.273 . S
O115 C114 1.273 . S
O116 Zn107 1.977 . S
O116 C109 1.267 . S
C117 O118 1.160 . S
C117 O124 1.185 . S
O118 C117 1.160 . S
O119 Zn120 1.899 . S
O119 C127 1.284 . S
Zn120 O119 1.899 . S
Zn120 O121 2.032 . S
Zn120 O124 2.086 . S
Zn120 O129 1.977 . S
O121 Zn120 2.032 . S
O121 C125 1.278 1_554 S
C122 O123 1.203 . S
C122 O129 1.267 . S
O123 C122 1.203 . S
O124 C117 1.185 . S
O124 Zn120 2.086 . S
C125 O121 1.278 1_556 S
C125 O126 1.211 . S
O126 C125 1.211 . S
C127 O119 1.284 . S
C127 O128 1.273 . S
O128 C127 1.273 . S
O129 Zn120 1.977 . S
O129 C122 1.267 . S
C130 O131 1.160 . S
C130 O137 1.185 . S
O131 C130 1.160 . S
O132 Zn133 1.899 . S
O132 C140 1.284 . S
Zn133 O132 1.899 . S
Zn133 O134 2.032 . S
Zn133 O137 2.086 . S
Zn133 O142 1.977 . S
O134 Zn133 2.032 . S
O134 C138 1.278 1_554 S
C135 O136 1.203 . S
C135 O142 1.267 . S
O136 C135 1.203 . S
O137 C130 1.185 . S
O137 Zn133 2.086 . S
C138 O134 1.278 1_556 S
C138 O139 1.211 . S
O139 C138 1.211 . S
C140 O132 1.284 . S
C140 O141 1.273 . S
O141 C140 1.273 . S
O142 Zn133 1.977 . S
O142 C135 1.267 . S
C143 O144 1.160 . S
C143 O150 1.185 . S
O144 C143 1.160 . S
O145 Zn146 1.899 . S
O145 C153 1.284 . S
Zn146 O145 1.899 . S
Zn146 O147 2.032 . S
Zn146 O150 2.086 . S
Zn146 O155 1.977 . S
O147 Zn146 2.032 . S
O147 C151 1.278 1_554 S
C148 O149 1.203 . S
C148 O155 1.267 . S
O149 C148 1.203 . S
O150 C143 1.185 . S
O150 Zn146 2.086 . S
C151 O147 1.278 1_556 S
C151 O152 1.211 . S
O152 C151 1.211 . S
C153 O145 1.284 . S
C153 O154 1.273 . S
O154 C153 1.273 . S
O155 Zn146 1.977 . S
O155 C148 1.267 . S
C156 O157 1.160 . S
C156 O163 1.185 . S
O157 C156 1.160 . S
O158 Zn159 1.899 . S
O158 C166 1.284 . S
Zn159 O158 1.899 . S
Zn159 O160 2.032 . S
Zn159 O163 2.086 . S
Zn159 O168 1.977 . S
O160 Zn159 2.032 . S
O160 C164 1.278 . S
C161 O162 1.203 . S
C161 O168 1.267 . S
O162 C161 1.203 . S
O163 C156 1.185 . S
O163 Zn159 2.086 . S
C164 O160 1.278 . S
C164 O165 1.211 . S
O165 C164 1.211 . S
C166 O158 1.284 . S
C166 O167 1.273 . S
O167 C166 1.273 . S
O168 Zn159 1.977 . S
O168 C161 1.267 . S
C169 O170 1.160 . S
C169 O176 1.185 . S
O170 C169 1.160 . S
O171 Zn172 1.899 . S
O171 C179 1.284 . S
Zn172 O171 1.899 . S
Zn172 O173 2.032 . S
Zn172 O176 2.086 . S
Zn172 O181 1.977 . S
O173 Zn172 2.032 . S
O173 C177 1.278 . S
C174 O175 1.203 . S
C174 O181 1.267 . S
O175 C174 1.203 . S
O176 C169 1.185 . S
O176 Zn172 2.086 . S
C177 O173 1.278 . S
C177 O178 1.211 . S
O178 C177 1.211 . S
C179 O171 1.284 . S
C179 O180 1.273 . S
O180 C179 1.273 . S
O181 Zn172 1.977 . S
O181 C174 1.267 . S
C182 O183 1.160 . S
C182 O189 1.185 . S
O183 C182 1.160 . S
O184 Zn185 1.899 . S
O184 C192 1.284 . S
Zn185 O184 1.899 . S
Zn185 O186 2.032 . S
Zn185 O189 2.086 . S
Zn185 O194 1.977 . S
O186 Zn185 2.032 . S
O186 C190 1.278 . S
C187 O188 1.203 . S
C187 O194 1.267 . S
O188 C187 1.203 . S
O189 C182 1.185 . S
O189 Zn185 2.086 . S
C190 O186 1.278 . S
C190 O191 1.211 . S
O191 C190 1.211 . S
C192 O184 1.284 . S
C192 O193 1.273 . S
O193 C192 1.273 . S
O194 Zn185 1.977 . S
O194 C187 1.267 . S
C195 O196 1.160 . S
C195 O202 1.185 . S
O196 C195 1.160 . S
O197 Zn198 1.899 . S
O197 C205 1.284 . S
Zn198 O197 1.899 . S
Zn198 O199 2.032 . S
Zn198 O202 2.086 . S
Zn198 O207 1.977 . S
O199 Zn198 2.032 . S
O199 C203 1.278 . S
C200 O201 1.203 . S
C200 O207 1.267 . S
O201 C200 1.203 . S
O202 C195 1.185 . S
O202 Zn198 2.086 . S
C203 O199 1.278 . S
C203 O204 1.211 . S
O204 C203 1.211 . S
C205 O197 1.284 . S
C205 O206 1.273 . S
O206 C205 1.273 . S
O207 Zn198 1.977 . S
O207 C200 1.267 . S
C208 O209 1.160 . S
C208 O215 1.185 . S
O209 C208 1.160 . S
O210 Zn211 1.899 . S
O210 C218 1.284 . S
Zn211 O210 1.899 . S
Zn211 O212 2.032 . S
Zn211 O215 2.086 . S
Zn211 O220 1.977 . S
O212 Zn211 2.032 . S
O212 C216 1.278 . S
C213 O214 1.203 . S
C213 O220 1.267 . S
O214 C213 1.203 . S
O215 C208 1.185 . S
O215 Zn211 2.086 . S
C216 O212 1.278 . S
C216 O217 1.211 . S
O217 C216 1.211 . S
C218 O210 1.284 . S
C218 O219 1.273 . S
O219 C218 1.273 . S
O220 Zn211 1.977 . S
O220 C213 1.267 . S
C221 O222 1.160 . S
C221 O228 1.185 . S
O222 C221 1.160 . S
O223 Zn224 1.899 . S
O223 C231 1.284 . S
Zn224 O223 1.899 . S
Zn224 O225 2.032 . S
Zn224 O228 2.086 . S
Zn224 O233 1.977 . S
O225 Zn224 2.032 . S
O225 C229 1.278 . S
C226 O227 1.203 . S
C226 O233 1.267 . S
O227 C226 1.203 . S
O228 C221 1.185 . S
O228 Zn224 2.086 . S
C229 O225 1.278 . S
C229 O230 1.211 . S
O230 C229 1.211 . S
C231 O223 1.284 . S
C231 O232 1.273 . S
O232 C231 1.273 . S
O233 Zn224 1.977 . S
O233 C226 1.267 . S
C234 O235 1.160 . S
C234 O241 1.185 . S
O235 C234 1.160 . S
O236 Zn237 1.899 . S
O236 C244 1.284 . S
Zn237 O236 1.899 . S
Zn237 O238 2.032 . S
Zn237 O241 2.086 . S
Zn237 O246 1.977 . S
O238 Zn237 2.032 . S
O238 C242 1.278 . S
C239 O240 1.203 . S
C239 O246 1.267 . S
O240 C239 1.203 . S
O241 C234 1.185 . S
O241 Zn237 2.086 . S
C242 O238 1.278 . S
C242 O243 1.211 . S
O243 C242 1.211 . S
C244 O236 1.284 . S
C244 O245 1.273 . S
O245 C244 1.273 . S
O246 Zn237 1.977 . S
O246 C239 1.267 . S
C247 O248 1.160 . S
C247 O254 1.185 . S
O248 C247 1.160 . S
O249 Zn250 1.899 . S
O249 C257 1.284 . S
Zn250 O249 1.899 . S
Zn250 O251 2.032 . S
Zn250 O254 2.086 . S
Zn250 O259 1.977 . S
O251 Zn250 2.032 . S
O251 C255 1.278 . S
C252 O253 1.203 . S
C252 O259 1.267 . S
O253 C252 1.203 . S
O254 C247 1.185 . S
O254 Zn250 2.086 . S
C255 O251 1.278 . S
C255 O256 1.211 . S
O256 C255 1.211 . S
C257 O249 1.284 . S
C257 O258 1.273 . S
O258 C257 1.273 . S
O259 Zn250 1.977 . S
O259 C252 1.267 . S
C260 O261 1.160 . S
C260 O267 1.185 . S
O261 C260 1.160 . S
O262 Zn263 1.899 . S
O262 C270 1.284 . S
Zn263 O262 1.899 . S
Zn263 O264 2.032 . S
Zn263 O267 2.086 . S
Zn263 O272 1.977 . S
O264 Zn263 2.032 . S
O264 C268 1.278 . S
C265 O266 1.203 . S
C265 O272 1.267 . S
O266 C265 1.203 . S
O267 C260 1.185 . S
O267 Zn263 2.086 . S
C268 O264 1.278 . S
C268 O269 1.211 . S
O269 C268 1.211 . S
C270 O262 1.284 . S
C270 O271 1.273 . S
O271 C270 1.273 . S
O272 Zn263 1.977 . S
O272 C265 1.267 . S
C273 O274 1.160 . S
C273 O280 1.185 . S
O274 C273 1.160 . S
O275 Zn276 1.899 . S
O275 C283 1.284 . S
Zn276 O275 1.899 . S
Zn276 O277 2.032 . S
Zn276 O280 2.086 . S
Zn276 O285 1.977 . S
O277 Zn276 2.032 . S
O277 C281 1.278 . S
C278 O279 1.203 . S
C278 O285 1.267 . S
O279 C278 1.203 . S
O280 C273 1.185 . S
O280 Zn276 2.086 . S
C281 O277 1.278 . S
C281 O282 1.211 . S
O282 C281 1.211 . S
C283 O275 1.284 . S
C283 O284 1.273 . S
O284 C283 1.273 . S
O285 Zn276 1.977 . S
O285 C278 1.267 . S
C286 O287 1.160 . S
C286 O293 1.185 . S
O287 C286 1.160 . S
O288 Zn289 1.899 . S
O288 C296 1.284 . S
Zn289 O288 1.899 . S
Zn289 O290 2.032 . S
Zn289 O293 2.086 . S
Zn289 O298 1.977 . S
O290 Zn289 2.032 . S
O290 C294 1.278 . S
C291 O292 1.203 . S
C291 O298 1.267 . S
O292 C291 1.203 . S
O293 C286 1.185 . S
O293 Zn289 2.086 . S
C294 O290 1.278 . S
C294 O295 1.211 . S
O295 C294 1.211 . S
C296 O288 1.284 . S
C296 O297 1.273 . S
O297 C296 1.273 . S
O298 Zn289 1.977 . S
O298 C291 1.267 . S
C299 O300 1.160 . S
C299 O306 1.185 . S
O300 C299 1.160 . S
O301 Zn302 1.899 . S
O301 C309 1.284 . S
Zn302 O301 1.899 . S
Zn302 O303 2.032 . S
Zn302 O306 2.086 . S
Zn302 O311 1.977 . S
O303 Zn302 2.032 . S
O303 C307 1.278 . S
C304 O305 1.203 . S
C304 O311 1.267 . S
O305 C304 1.203 . S
O306 C299 1.185 . S
O306 Zn302 2.086 . S
C307 O303 1.278 . S
C307 O308 1.211 . S
O308 C307 1.211 . S
C309 O301 1.284 . S
C309 O310 1.273 . S
O310 C309 1.273 . S
O311 Zn302 1.977 . S
O311 C304 1.267 . S
C312 O313 1.160 . S
C312 O319 1.185 . S
O313 C312 1.160 . S
O314 Zn315 1.899 . S
O314 C322 1.284 . S
Zn315 O314 1.899 . S
Zn315 O316 2.032 . S
Zn315 O319 2.086 . S
Zn315 O324 1.977 . S
O316 Zn315 2.032 . S
O316 C320 1.278 . S
C317 O318 1.203 . S
C317 O324 1.267 . S
O318 C317 1.203 . S
O319 C312 1.185 . S
O319 Zn315 2.086 . S
C320 O316 1.278 . S
C320 O321 1.211 . S
O321 C320 1.211 . S
C322 O314 1.284 . S
C322 O323 1.273 . S
O323 C322 1.273 . S
O324 Zn315 1.977 . S
O324 C317 1.267 . S
C325 O326 1.160 . S
C325 O332 1.185 . S
O326 C325 1.160 . S
O327 Zn328 1.899 . S
O327 C335 1.284 . S
Zn328 O327 1.899 . S
Zn328 O329 2.032 . S
Zn328 O332 2.086 . S
Zn328 O337 1.977 . S
O329 Zn328 2.032 . S
O329 C333 1.278 . S
C330 O331 1.203 . S
C330 O337 1.267 . S
O331 C330 1.203 . S
O332 C325 1.185 . S
O332 Zn328 2.086 . S
C333 O329 1.278 . S
C333 O334 1.211 . S
O334 C333 1.211 . S
C335 O327 1.284 . S
C335 O336 1.273 . S
O336 C335 1.273 . S
O337 Zn328 1.977 . S
O337 C330 1.267 . S
C338 O339 1.160 . S
C338 O345 1.185 . S
O339 C338 1.160 . S
O340 Zn341 1.899 . S
O340 C348 1.284 . S
Zn341 O340 1.899 . S
Zn341 O342 2.032 . S
Zn341 O345 2.086 . S
Zn341 O350 1.977 . S
O342 Zn341 2.032 . S
O342 C346 1.278 . S
C343 O344 1.203 . S
C343 O350 1.267 . S
O344 C343 1.203 . S
O345 C338 1.185 . S
O345 Zn341 2.086 . S
C346 O342 1.278 . S
C346 O347 1.211 . S
O347 C346 1.211 . S
C348 O340 1.284 . S
C348 O349 1.273 . S
O349 C348 1.273 . S
O350 Zn341 1.977 . S
O350 C343 1.267 . S
C351 O352 1.160 . S
C351 O358 1.185 . S
O352 C351 1.160 . S
O353 Zn354 1.899 . S
O353 C361 1.284 . S
Zn354 O353 1.899 . S
Zn354 O355 2.032 . S
Zn354 O358 2.086 . S
Zn354 O363 1.977 . S
O355 Zn354 2.032 . S
O355 C359 1.278 . S
C356 O357 1.203 . S
C356 O363 1.267 . S
O357 C356 1.203 . S
O358 C351 1.185 . S
O358 Zn354 2.086 . S
C359 O355 1.278 . S
C359 O360 1.211 . S
O360 C359 1.211 . S
C361 O353 1.284 . S
C361 O362 1.273 . S
O362 C361 1.273 . S
O363 Zn354 1.977 . S
O363 C356 1.267 . S
C364 O365 1.160 . S
C364 O371 1.185 . S
O365 C364 1.160 . S
O366 Zn367 1.899 . S
O366 C374 1.284 . S
Zn367 O366 1.899 . S
Zn367 O368 2.032 . S
Zn367 O371 2.086 . S
Zn367 O376 1.977 . S
O368 Zn367 2.032 . S
O368 C372 1.278 . S
C369 O370 1.203 . S
C369 O376 1.267 . S
O370 C369 1.203 . S
O371 C364 1.185 . S
O371 Zn367 2.086 . S
C372 O368 1.278 . S
C372 O373 1.211 . S
O373 C372 1.211 . S
C374 O366 1.284 . S
C374 O375 1.273 . S
O375 C374 1.273 . S
O376 Zn367 1.977 . S
O376 C369 1.267 . S
C377 O378 1.160 . S
C377 O384 1.185 . S
O378 C377 1.160 . S
O379 Zn380 1.899 . S
O379 C387 1.284 . S
Zn380 O379 1.899 . S
Zn380 O381 2.032 . S
Zn380 O384 2.086 . S
Zn380 O389 1.977 . S
O381 Zn380 2.032 . S
O381 C385 1.278 . S
C382 O383 1.203 . S
C382 O389 1.267 . S
O383 C382 1.203 . S
O384 C377 1.185 . S
O384 Zn380 2.086 . S
C385 O381 1.278 . S
C385 O386 1.211 . S
O386 C385 1.211 . S
C387 O379 1.284 . S
C387 O388 1.273 . S
O388 C387 1.273 . S
O389 Zn380 1.977 . S
O389 C382 1.267 . S
C390 O391 1.160 . S
C390 O397 1.185 . S
O391 C390 1.160 . S
O392 Zn393 1.899 . S
O392 C400 1.284 . S
Zn393 O392 1.899 . S
Zn393 O394 2.032 . S
Zn393 O397 2.086 . S
Zn393 O402 1.977 . S
O394 Zn393 2.032 . S
O394 C398 1.278 . S
C395 O396 1.203 . S
C395 O402 1.267 . S
O396 C395 1.203 . S
O397 C390 1.185 . S
O397 Zn393 2.086 . S
C398 O394 1.278 . S
C398 O399 1.211 . S
O399 C398 1.211 . S
C400 O392 1.284 . S
C400 O401 1.273 . S
O401 C400 1.273 . S
O402 Zn393 1.977 . S
O402 C395 1.267 . S
C403 O404 1.160 . S
C403 O410 1.185 . S
O404 C403 1.160 . S
O405 Zn406 1.899 . S
O405 C413 1.284 . S
Zn406 O405 1.899 . S
Zn406 O407 2.032 . S
Zn406 O410 2.086 . S
Zn406 O415 1.977 . S
O407 Zn406 2.032 . S
O407 C411 1.278 . S
C408 O409 1.203 . S
C408 O415 1.267 . S
O409 C408 1.203 . S
O410 C403 1.185 . S
O410 Zn406 2.086 . S
C411 O407 1.278 . S
C411 O412 1.211 . S
O412 C411 1.211 . S
C413 O405 1.284 . S
C413 O414 1.273 . S
O414 C413 1.273 . S
O415 Zn406 1.977 . S
O415 C408 1.267 . S
C416 O417 1.160 . S
C416 O423 1.185 . S
O417 C416 1.160 . S
O418 Zn419 1.899 . S
O418 C426 1.284 . S
Zn419 O418 1.899 . S
Zn419 O420 2.032 . S
Zn419 O423 2.086 . S
Zn419 O428 1.977 . S
O420 Zn419 2.032 . S
O420 C424 1.278 . S
C421 O422 1.203 . S
C421 O428 1.267 . S
O422 C421 1.203 . S
O423 C416 1.185 . S
O423 Zn419 2.086 . S
C424 O420 1.278 . S
C424 O425 1.211 . S
O425 C424 1.211 . S
C426 O418 1.284 . S
C426 O427 1.273 . S
O427 C426 1.273 . S
O428 Zn419 1.977 . S
O428 C421 1.267 . S
C429 O430 1.160 . S
C429 O436 1.185 . S
O430 C429 1.160 . S
O431 Zn432 1.899 . S
O431 C439 1.284 . S
Zn432 O431 1.899 . S
Zn432 O433 2.032 . S
Zn432 O436 2.086 . S
Zn432 O441 1.977 . S
O433 Zn432 2.032 . S
O433 C437 1.278 . S
C434 O435 1.203 . S
C434 O441 1.267 . S
O435 C434 1.203 . S
O436 C429 1.185 . S
O436 Zn432 2.086 . S
C437 O433 1.278 . S
C437 O438 1.211 . S
O438 C437 1.211 . S
C439 O431 1.284 . S
C439 O440 1.273 . S
O440 C439 1.273 . S
O441 Zn432 1.977 . S
O441 C434 1.267 . S
C442 O443 1.160 . S
C442 O449 1.185 . S
O443 C442 1.160 . S
O444 Zn445 1.899 . S
O444 C452 1.284 . S
Zn445 O444 1.899 . S
Zn445 O446 2.032 . S
Zn445 O449 2.086 . S
Zn445 O454 1.977 . S
O446 Zn445 2.032 . S
O446 C450 1.278 . S
C447 O448 1.203 . S
C447 O454 1.267 . S
O448 C447 1.203 . S
O449 C442 1.185 . S
O449 Zn445 2.086 . S
C450 O446 1.278 . S
C450 O451 1.211 . S
O451 C450 1.211 . S
C452 O444 1.284 . S
C452 O453 1.273 . S
O453 C452 1.273 . S
O454 Zn445 1.977 . S
O454 C447 1.267 . S
C455 O456 1.160 . S
C455 O462 1.185 . S
O456 C455 1.160 . S
O457 Zn458 1.899 . S
O457 C465 1.284 . S
Zn458 O457 1.899 . S
Zn458 O459 2.032 . S
Zn458 O462 2.086 . S
Zn458 O467 1.977 . S
O459 Zn458 2.032 . S
O459 C463 1.278 . S
C460 O461 1.203 . S
C460 O467 1.267 . S
O461 C460 1.203 . S
O462 C455 1.185 . S
O462 Zn458 2.086 . S
C463 O459 1.278 . S
C463 O464 1.211 . S
O464 C463 1.211 . S
C465 O457 1.284 . S
C465 O466 1.273 . S
O466 C465 1.273 . S
O467 Zn458 1.977 . S
O467 C460 1.267 . S
H468 C474 0.930 . S
H469 C477 0.920 1_556 S
H470 C478 0.930 1_556 S
H471 C479 0.930 . S
H472 C482 0.930 . S
H473 C483 0.930 . S
C474 H468 0.930 . S
C474 C475 1.355 . S
C474 C476 1.415 . S
C475 C474 1.355 . S
C475 C477 1.419 . S
C476 C474 1.415 . S
C476 C481 1.425 . S
C476 C483 1.409 . S
C477 H469 0.920 1_554 S
C477 C475 1.419 . S
C477 C478 1.362 . S
C478 H470 0.930 1_554 S
C478 C477 1.362 . S
C478 C481 1.409 . S
C479 H471 0.930 . S
C479 C480 1.355 . S
C479 C481 1.415 . S
C480 C479 1.355 . S
C480 C482 1.419 . S
C481 C476 1.425 . S
C481 C478 1.409 . S
C481 C479 1.415 . S
C482 H472 0.930 . S
C482 C480 1.419 . S
C482 C483 1.362 . S
C483 H473 0.930 . S
C483 C476 1.409 . S
C483 C482 1.362 . S
H484 C490 0.930 . S
H485 C493 0.930 . S
H486 C494 0.930 . S
H487 C495 0.930 . S
H488 C498 0.930 . S
H489 C499 0.930 . S
C490 H484 0.930 . S
C490 C491 1.355 . S
C490 C492 1.415 . S
C491 C490 1.355 . S
C491 C493 1.419 . S
C492 C490 1.415 . S
C492 C497 1.425 . S
C492 C499 1.409 . S
C493 H485 0.930 . S
C493 C491 1.419 . S
C493 C494 1.362 . S
C494 H486 0.930 . S
C494 C493 1.362 . S
C494 C497 1.409 . S
C495 H487 0.930 . S
C495 C496 1.355 . S
C495 C497 1.415 . S
C496 C495 1.355 . S
C496 C498 1.419 . S
C497 C492 1.425 . S
C497 C494 1.409 . S
C497 C495 1.415 . S
C498 H488 0.930 . S
C498 C496 1.419 . S
C498 C499 1.362 . S
C499 H489 0.930 . S
C499 C492 1.409 . S
C499 C498 1.362 . S
H500 C506 0.930 . S
H501 C509 0.930 . S
H502 C510 0.930 . S
H503 C511 0.930 . S
H504 C514 0.930 . S
H505 C515 0.930 . S
C506 H500 0.930 . S
C506 C507 1.355 . S
C506 C508 1.415 . S
C507 C506 1.355 . S
C507 C509 1.419 . S
C508 C506 1.415 . S
C508 C513 1.425 . S
C508 C515 1.409 . S
C509 H501 0.930 . S
C509 C507 1.419 . S
C509 C510 1.362 . S
C510 H502 0.930 . S
C510 C509 1.362 . S
C510 C513 1.409 . S
C511 H503 0.930 . S
C511 C512 1.355 . S
C511 C513 1.415 . S
C512 C511 1.355 . S
C512 C514 1.419 . S
C513 C508 1.425 . S
C513 C510 1.409 . S
C513 C511 1.415 . S
C514 H504 0.930 . S
C514 C512 1.419 . S
C514 C515 1.362 . S
C515 H505 0.930 . S
C515 C508 1.409 . S
C515 C514 1.362 . S
H516 C522 0.930 . S
H517 C525 0.930 1_554 S
H518 C526 0.930 1_554 S
H519 C527 0.930 . S
H520 C530 0.930 . S
H521 C531 0.930 . S
C522 H516 0.930 . S
C522 C523 1.355 . S
C522 C524 1.415 . S
C523 C522 1.355 . S
C523 C525 1.419 . S
C524 C522 1.415 . S
C524 C529 1.425 . S
C524 C531 1.409 . S
C525 H517 0.930 1_556 S
C525 C523 1.419 . S
C525 C526 1.362 . S
C526 H518 0.930 1_556 S
C526 C525 1.362 . S
C526 C529 1.409 . S
C527 H519 0.930 . S
C527 C528 1.355 . S
C527 C529 1.415 . S
C528 C527 1.355 . S
C528 C530 1.419 . S
C529 C524 1.425 . S
C529 C526 1.409 . S
C529 C527 1.415 . S
C530 H520 0.930 . S
C530 C528 1.419 . S
C530 C531 1.362 . S
C531 H521 0.930 . S
C531 C524 1.409 . S
C531 C530 1.362 . S
H532 C538 0.930 . S
H533 C541 0.930 . S
H534 C542 0.930 . S
H535 C543 0.930 . S
H536 C546 0.930 . S
H537 C547 0.930 . S
C538 H532 0.930 . S
C538 C539 1.355 . S
C538 C540 1.415 . S
C539 C538 1.355 . S
C539 C541 1.419 . S
C540 C538 1.415 . S
C540 C545 1.425 . S
C540 C547 1.409 . S
C541 H533 0.930 . S
C541 C539 1.419 . S
C541 C542 1.362 . S
C542 H534 0.930 . S
C542 C541 1.362 . S
C542 C545 1.409 . S
C543 H535 0.930 . S
C543 C544 1.355 . S
C543 C545 1.415 . S
C544 C543 1.355 . S
C544 C546 1.419 . S
C545 C540 1.425 . S
C545 C542 1.409 . S
C545 C543 1.415 . S
C546 H536 0.930 . S
C546 C544 1.419 . S
C546 C547 1.362 . S
C547 H537 0.930 . S
C547 C540 1.409 . S
C547 C546 1.362 . S
H548 C554 0.930 . S
H549 C557 0.930 . S
H550 C558 0.930 . S
H551 C559 0.930 . S
H552 C562 0.930 . S
H553 C563 0.930 1_554 S
C554 H548 0.930 . S
C554 C555 1.355 . S
C554 C556 1.415 . S
C555 C554 1.355 . S
C555 C557 1.419 . S
C556 C554 1.415 . S
C556 C561 1.425 . S
C556 C563 1.409 . S
C557 H549 0.930 . S
C557 C555 1.419 . S
C557 C558 1.362 . S
C558 H550 0.930 . S
C558 C557 1.362 . S
C558 C561 1.409 . S
C559 H551 0.930 . S
C559 C560 1.355 . S
C559 C561 1.415 . S
C560 C559 1.355 . S
C560 C562 1.419 . S
C561 C556 1.425 . S
C561 C558 1.409 . S
C561 C559 1.415 . S
C562 H552 0.930 . S
C562 C560 1.419 . S
C562 C563 1.362 . S
C563 H553 0.930 1_556 S
C563 C556 1.409 . S
C563 C562 1.362 . S
H564 C570 0.930 . S
H565 C573 0.930 . S
H566 C574 0.930 . S
H567 C575 0.930 . S
H568 C578 0.930 . S
H569 C579 0.930 . S
C570 H564 0.930 . S
C570 C571 1.355 . S
C570 C572 1.415 . S
C571 C570 1.355 . S
C571 C573 1.419 . S
C572 C570 1.415 . S
C572 C577 1.425 . S
C572 C579 1.409 . S
C573 H565 0.930 . S
C573 C571 1.419 . S
C573 C574 1.362 . S
C574 H566 0.930 . S
C574 C573 1.362 . S
C574 C577 1.409 . S
C575 H567 0.930 . S
C575 C576 1.355 . S
C575 C577 1.415 . S
C576 C575 1.355 . S
C576 C578 1.419 . S
C577 C572 1.425 . S
C577 C574 1.409 . S
C577 C575 1.415 . S
C578 H568 0.930 . S
C578 C576 1.419 . S
C578 C579 1.362 . S
C579 H569 0.930 . S
C579 C572 1.409 . S
C579 C578 1.362 . S
H580 C586 0.930 . S
H581 C589 0.930 . S
H582 C590 0.930 . S
H583 C591 0.930 . S
H584 C594 0.930 . S
H585 C595 0.930 . S
C586 H580 0.930 . S
C586 C587 1.355 . S
C586 C588 1.415 . S
C587 C586 1.355 . S
C587 C589 1.419 . S
C588 C586 1.415 . S
C588 C593 1.425 . S
C588 C595 1.409 . S
C589 H581 0.930 . S
C589 C587 1.419 . S
C589 C590 1.362 . S
C590 H582 0.930 . S
C590 C589 1.362 . S
C590 C593 1.409 . S
C591 H583 0.930 . S
C591 C592 1.355 . S
C591 C593 1.415 . S
C592 C591 1.355 . S
C592 C594 1.419 . S
C593 C588 1.425 . S
C593 C590 1.409 . S
C593 C591 1.415 . S
C594 H584 0.930 . S
C594 C592 1.419 . S
C594 C595 1.362 . S
C595 H585 0.930 . S
C595 C588 1.409 . S
C595 C594 1.362 . S
H596 C602 0.930 . S
H597 C605 0.930 . S
H598 C606 0.930 . S
H599 C607 0.930 . S
H600 C610 0.930 . S
H601 C611 0.930 . S
C602 H596 0.930 . S
C602 C603 1.355 . S
C602 C604 1.415 . S
C603 C602 1.355 . S
C603 C605 1.419 . S
C604 C602 1.415 . S
C604 C609 1.425 . S
C604 C611 1.409 . S
C605 H597 0.930 . S
C605 C603 1.419 . S
C605 C606 1.362 . S
C606 H598 0.930 . S
C606 C605 1.362 . S
C606 C609 1.409 . S
C607 H599 0.930 . S
C607 C608 1.355 . S
C607 C609 1.415 . S
C608 C607 1.355 . S
C608 C610 1.419 . S
C609 C604 1.425 . S
C609 C606 1.409 . S
C609 C607 1.415 . S
C610 H600 0.930 . S
C610 C608 1.419 . S
C610 C611 1.362 . S
C611 H601 0.930 . S
C611 C604 1.409 . S
C611 C610 1.362 . S
H612 C618 0.930 . S
H613 C621 0.930 . S
H614 C622 0.930 . S
H615 C623 0.930 . S
H616 C626 0.930 . S
H617 C627 0.930 . S
C618 H612 0.930 . S
C618 C619 1.355 . S
C618 C620 1.415 . S
C619 C618 1.355 . S
C619 C621 1.419 . S
C620 C618 1.415 . S
C620 C625 1.425 . S
C620 C627 1.409 . S
C621 H613 0.930 . S
C621 C619 1.419 . S
C621 C622 1.362 . S
C622 H614 0.930 . S
C622 C621 1.362 . S
C622 C625 1.409 . S
C623 H615 0.930 . S
C623 C624 1.355 . S
C623 C625 1.415 . S
C624 C623 1.355 . S
C624 C626 1.419 . S
C625 C620 1.425 . S
C625 C622 1.409 . S
C625 C623 1.415 . S
C626 H616 0.930 . S
C626 C624 1.419 . S
C626 C627 1.362 . S
C627 H617 0.930 . S
C627 C620 1.409 . S
C627 C626 1.362 . S
H628 C634 0.930 . S
H629 C637 0.930 . S
H630 C638 0.930 . S
H631 C639 0.930 . S
H632 C642 0.930 . S
H633 C643 0.930 . S
C634 H628 0.930 . S
C634 C635 1.355 . S
C634 C636 1.415 . S
C635 C634 1.355 . S
C635 C637 1.419 . S
C636 C634 1.415 . S
C636 C641 1.425 . S
C636 C643 1.409 . S
C637 H629 0.930 . S
C637 C635 1.419 . S
C637 C638 1.362 . S
C638 H630 0.930 . S
C638 C637 1.362 . S
C638 C641 1.409 . S
C639 H631 0.930 . S
C639 C640 1.355 . S
C639 C641 1.415 . S
C640 C639 1.355 . S
C640 C642 1.419 . S
C641 C636 1.425 . S
C641 C638 1.409 . S
C641 C639 1.415 . S
C642 H632 0.930 . S
C642 C640 1.419 . S
C642 C643 1.362 . S
C643 H633 0.930 . S
C643 C636 1.409 . S
C643 C642 1.362 . S
H644 C650 0.930 . S
H645 C653 0.930 . S
H646 C654 0.930 . S
H647 C655 0.930 . S
H648 C658 0.930 . S
H649 C659 0.930 . S
C650 H644 0.930 . S
C650 C651 1.355 . S
C650 C652 1.415 . S
C651 C650 1.355 . S
C651 C653 1.419 . S
C652 C650 1.415 . S
C652 C657 1.425 . S
C652 C659 1.409 . S
C653 H645 0.930 . S
C653 C651 1.419 . S
C653 C654 1.362 . S
C654 H646 0.930 . S
C654 C653 1.362 . S
C654 C657 1.409 . S
C655 H647 0.930 . S
C655 C656 1.355 . S
C655 C657 1.415 . S
C656 C655 1.355 . S
C656 C658 1.419 . S
C657 C652 1.425 . S
C657 C654 1.409 . S
C657 C655 1.415 . S
C658 H648 0.930 . S
C658 C656 1.419 . S
C658 C659 1.362 . S
C659 H649 0.930 . S
C659 C652 1.409 . S
C659 C658 1.362 . S
H660 C666 0.930 . S
H661 C669 0.930 . S
H662 C670 0.930 . S
H663 C671 0.930 . S
H664 C674 0.930 . S
H665 C675 0.930 . S
C666 H660 0.930 . S
C666 C667 1.355 . S
C666 C668 1.415 . S
C667 C666 1.355 . S
C667 C669 1.419 . S
C668 C666 1.415 . S
C668 C673 1.425 . S
C668 C675 1.409 . S
C669 H661 0.930 . S
C669 C667 1.419 . S
C669 C670 1.362 . S
C670 H662 0.930 . S
C670 C669 1.362 . S
C670 C673 1.409 . S
C671 H663 0.930 . S
C671 C672 1.355 . S
C671 C673 1.415 . S
C672 C671 1.355 . S
C672 C674 1.419 . S
C673 C668 1.425 . S
C673 C670 1.409 . S
C673 C671 1.415 . S
C674 H664 0.930 . S
C674 C672 1.419 . S
C674 C675 1.362 . S
C675 H665 0.930 . S
C675 C668 1.409 . S
C675 C674 1.362 . S
H676 C682 0.930 . S
H677 C685 0.930 . S
H678 C686 0.930 . S
H679 C687 0.930 . S
H680 C690 0.930 . S
H681 C691 0.930 . S
C682 H676 0.930 . S
C682 C683 1.355 . S
C682 C684 1.415 . S
C683 C682 1.355 . S
C683 C685 1.419 . S
C684 C682 1.415 . S
C684 C689 1.425 . S
C684 C691 1.409 . S
C685 H677 0.930 . S
C685 C683 1.419 . S
C685 C686 1.362 . S
C686 H678 0.930 . S
C686 C685 1.362 . S
C686 C689 1.409 . S
C687 H679 0.930 . S
C687 C688 1.355 . S
C687 C689 1.415 . S
C688 C687 1.355 . S
C688 C690 1.419 . S
C689 C684 1.425 . S
C689 C686 1.409 . S
C689 C687 1.415 . S
C690 H680 0.930 . S
C690 C688 1.419 . S
C690 C691 1.362 . S
C691 H681 0.930 . S
C691 C684 1.409 . S
C691 C690 1.362 . S
H692 C698 0.930 . S
H693 C701 0.930 . S
H694 C702 0.930 . S
H695 C703 0.930 . S
H696 C706 0.930 . S
H697 C707 0.930 . S
C698 H692 0.930 . S
C698 C699 1.355 . S
C698 C700 1.415 . S
C699 C698 1.355 . S
C699 C701 1.419 . S
C700 C698 1.415 . S
C700 C705 1.425 . S
C700 C707 1.409 . S
C701 H693 0.930 . S
C701 C699 1.419 . S
C701 C702 1.362 . S
C702 H694 0.930 . S
C702 C701 1.362 . S
C702 C705 1.409 . S
C703 H695 0.930 . S
C703 C704 1.355 . S
C703 C705 1.415 . S
C704 C703 1.355 . S
C704 C706 1.419 . S
C705 C700 1.425 . S
C705 C702 1.409 . S
C705 C703 1.415 . S
C706 H696 0.930 . S
C706 C704 1.419 . S
C706 C707 1.362 . S
C707 H697 0.930 . S
C707 C700 1.409 . S
C707 C706 1.362 . S
H708 C714 0.930 . S
H709 C717 0.930 . S
H710 C718 0.930 . S
H711 C719 0.930 . S
H712 C722 0.930 . S
H713 C723 0.930 . S
C714 H708 0.930 . S
C714 C715 1.355 . S
C714 C716 1.415 . S
C715 C714 1.355 . S
C715 C717 1.419 . S
C716 C714 1.415 . S
C716 C721 1.425 . S
C716 C723 1.409 . S
C717 H709 0.930 . S
C717 C715 1.419 . S
C717 C718 1.362 . S
C718 H710 0.930 . S
C718 C717 1.362 . S
C718 C721 1.409 . S
C719 H711 0.930 . S
C719 C720 1.355 . S
C719 C721 1.415 . S
C720 C719 1.355 . S
C720 C722 1.419 . S
C721 C716 1.425 . S
C721 C718 1.409 . S
C721 C719 1.415 . S
C722 H712 0.930 . S
C722 C720 1.419 . S
C722 C723 1.362 . S
C723 H713 0.930 . S
C723 C716 1.409 . S
C723 C722 1.362 . S
H724 C730 0.930 . S
H725 C733 0.930 . S
H726 C734 0.930 . S
H727 C735 0.930 . S
H728 C738 0.930 . S
H729 C739 0.930 . S
C730 H724 0.930 . S
C730 C731 1.355 . S
C730 C732 1.415 . S
C731 C730 1.355 . S
C731 C733 1.419 . S
C732 C730 1.415 . S
C732 C737 1.425 . S
C732 C739 1.409 . S
C733 H725 0.930 . S
C733 C731 1.419 . S
C733 C734 1.362 . S
C734 H726 0.930 . S
C734 C733 1.362 . S
C734 C737 1.409 . S
C735 H727 0.930 . S
C735 C736 1.355 . S
C735 C737 1.415 . S
C736 C735 1.355 . S
C736 C738 1.419 . S
C737 C732 1.425 . S
C737 C734 1.409 . S
C737 C735 1.415 . S
C738 H728 0.930 . S
C738 C736 1.419 . S
C738 C739 1.362 . S
C739 H729 0.930 . S
C739 C732 1.409 . S
C739 C738 1.362 . S
H740 C746 0.930 . S
H741 C749 0.930 . S
H742 C750 0.930 . S
H743 C751 0.930 . S
H744 C754 0.930 . S
H745 C755 0.930 . S
C746 H740 0.930 . S
C746 C747 1.355 . S
C746 C748 1.415 . S
C747 C746 1.355 . S
C747 C749 1.419 . S
C748 C746 1.415 . S
C748 C753 1.425 . S
C748 C755 1.409 . S
C749 H741 0.930 . S
C749 C747 1.419 . S
C749 C750 1.362 . S
C750 H742 0.930 . S
C750 C749 1.362 . S
C750 C753 1.409 . S
C751 H743 0.930 . S
C751 C752 1.355 . S
C751 C753 1.415 . S
C752 C751 1.355 . S
C752 C754 1.419 . S
C753 C748 1.425 . S
C753 C750 1.409 . S
C753 C751 1.415 . S
C754 H744 0.930 . S
C754 C752 1.419 . S
C754 C755 1.362 . S
C755 H745 0.930 . S
C755 C748 1.409 . S
C755 C754 1.362 . S
H756 C762 0.930 . S
H757 C765 0.930 . S
H758 C766 0.930 . S
H759 C767 0.930 . S
H760 C770 0.930 . S
H761 C771 0.930 . S
C762 H756 0.930 . S
C762 C763 1.355 . S
C762 C764 1.415 . S
C763 C762 1.355 . S
C763 C765 1.419 . S
C764 C762 1.415 . S
C764 C769 1.425 1_454 S
C764 C771 1.409 1_455 S
C765 H757 0.930 . S
C765 C763 1.419 . S
C765 C766 1.362 1_554 S
C766 H758 0.930 . S
C766 C765 1.362 1_556 S
C766 C769 1.409 1_455 S
C767 H759 0.930 . S
C767 C768 1.355 . S
C767 C769 1.415 . S
C768 C767 1.355 . S
C768 C770 1.419 . S
C769 C764 1.425 1_656 S
C769 C766 1.409 1_655 S
C769 C767 1.415 . S
C770 H760 0.930 . S
C770 C768 1.419 . S
C770 C771 1.362 1_556 S
C771 H761 0.930 . S
C771 C764 1.409 1_655 S
C771 C770 1.362 1_554 S
H772 C778 0.930 . S
H773 C781 0.930 . S
H774 C782 0.930 . S
H775 C783 0.930 . S
H776 C786 0.930 . S
H777 C787 0.930 . S
C778 H772 0.930 . S
C778 C779 1.355 1_554 S
C778 C780 1.415 . S
C779 C778 1.355 1_556 S
C779 C781 1.419 . S
C780 C778 1.415 . S
C780 C785 1.425 1_554 S
C780 C787 1.409 . S
C781 H773 0.930 . S
C781 C779 1.419 . S
C781 C782 1.362 . S
C782 H774 0.930 . S
C782 C781 1.362 . S
C782 C785 1.409 . S
C783 H775 0.930 . S
C783 C784 1.355 1_556 S
C783 C785 1.415 . S
C784 C783 1.355 1_554 S
C784 C786 1.419 . S
C785 C780 1.425 1_556 S
C785 C782 1.409 . S
C785 C783 1.415 . S
C786 H776 0.930 . S
C786 C784 1.419 . S
C786 C787 1.362 . S
C787 H777 0.930 . S
C787 C780 1.409 . S
C787 C786 1.362 . S
H788 C794 0.930 . S
H789 C797 0.931 . S
H790 C798 0.930 . S
H791 C799 0.930 . S
H792 C802 0.931 . S
H793 C803 0.930 . S
C794 H788 0.930 . S
C794 C795 1.355 . S
C794 C796 1.415 . S
C795 C794 1.355 . S
C795 C797 1.415 1_554 S
C796 C794 1.415 . S
C796 C801 1.425 1_564 S
C796 C803 1.409 1_565 S
C797 H789 0.931 . S
C797 C795 1.415 1_556 S
C797 C798 1.365 . S
C798 H790 0.930 . S
C798 C797 1.365 . S
C798 C801 1.409 1_565 S
C799 H791 0.930 . S
C799 C800 1.355 . S
C799 C801 1.415 . S
C800 C799 1.355 . S
C800 C802 1.415 1_556 S
C801 C796 1.425 1_546 S
C801 C798 1.409 1_545 S
C801 C799 1.415 . S
C802 H792 0.931 . S
C802 C800 1.415 1_554 S
C802 C803 1.365 . S
C803 H793 0.930 . S
C803 C796 1.409 1_545 S
C803 C802 1.365 . S
H804 C810 0.930 . S
H805 C813 0.930 . S
H806 C814 0.930 . S
H807 C815 0.930 . S
H808 C818 0.930 . S
H809 C819 0.930 . S
C810 H804 0.930 . S
C810 C811 1.355 . S
C810 C812 1.415 1_556 S
C811 C810 1.355 . S
C811 C813 1.419 . S
C812 C810 1.415 1_554 S
C812 C817 1.425 1_654 S
C812 C819 1.409 1_655 S
C813 H805 0.930 . S
C813 C811 1.419 . S
C813 C814 1.362 . S
C814 H806 0.930 . S
C814 C813 1.362 . S
C814 C817 1.409 1_655 S
C815 H807 0.930 . S
C815 C816 1.355 . S
C815 C817 1.415 1_554 S
C816 C815 1.355 . S
C816 C818 1.419 . S
C817 C812 1.425 1_456 S
C817 C814 1.409 1_455 S
C817 C815 1.415 1_556 S
C818 H808 0.930 . S
C818 C816 1.419 . S
C818 C819 1.362 . S
C819 H809 0.930 . S
C819 C812 1.409 1_455 S
C819 C818 1.362 . S
H820 C826 0.930 . S
H821 C829 0.930 . S
H822 C830 0.930 . S
H823 C831 0.930 . S
H824 C834 0.930 . S
H825 C835 0.930 . S
C826 H820 0.930 . S
C826 C827 1.355 . S
C826 C828 1.415 . S
C827 C826 1.355 . S
C827 C829 1.419 . S
C828 C826 1.415 . S
C828 C833 1.425 1_556 S
C828 C835 1.409 1_556 S
C829 H821 0.930 . S
C829 C827 1.419 . S
C829 C830 1.362 . S
C830 H822 0.930 . S
C830 C829 1.362 . S
C830 C833 1.409 1_556 S
C831 H823 0.930 . S
C831 C832 1.355 . S
C831 C833 1.415 . S
C832 C831 1.355 . S
C832 C834 1.419 . S
C833 C828 1.425 1_554 S
C833 C830 1.409 1_554 S
C833 C831 1.415 . S
C834 H824 0.930 . S
C834 C832 1.419 . S
C834 C835 1.362 . S
C835 H825 0.930 . S
C835 C828 1.409 1_554 S
C835 C834 1.362 . S
H836 C842 0.930 . S
H837 C845 0.930 . S
H838 C846 0.930 . S
H839 C847 0.930 . S
H840 C850 0.930 . S
H841 C851 0.930 . S
C842 H836 0.930 . S
C842 C843 1.355 . S
C842 C844 1.413 1_545 S
C843 C842 1.355 . S
C843 C845 1.419 1_556 S
C844 C842 1.413 1_565 S
C844 C849 1.425 1_566 S
C844 C851 1.411 . S
C845 H837 0.930 . S
C845 C843 1.419 1_554 S
C845 C846 1.362 . S
C846 H838 0.930 . S
C846 C845 1.362 . S
C846 C849 1.411 . S
C847 H839 0.930 . S
C847 C848 1.355 . S
C847 C849 1.413 1_565 S
C848 C847 1.355 . S
C848 C850 1.419 1_554 S
C849 C844 1.425 1_544 S
C849 C846 1.411 . S
C849 C847 1.413 1_545 S
C850 H840 0.930 . S
C850 C848 1.419 1_556 S
C850 C851 1.362 . S
C851 H841 0.930 . S
C851 C844 1.411 . S
C851 C850 1.362 . S
H852 C858 0.930 . S
H853 C861 0.930 . S
H854 C862 0.930 . S
H855 C863 0.930 . S
H856 C866 0.930 . S
H857 C867 0.930 . S
C858 H852 0.930 . S
C858 C859 1.355 . S
C858 C860 1.415 . S
C859 C858 1.355 . S
C859 C861 1.419 . S
C860 C858 1.415 . S
C860 C865 1.425 . S
C860 C867 1.409 . S
C861 H853 0.930 . S
C861 C859 1.419 . S
C861 C862 1.362 . S
C862 H854 0.930 . S
C862 C861 1.362 . S
C862 C865 1.409 . S
C863 H855 0.930 . S
C863 C864 1.355 . S
C863 C865 1.415 . S
C864 C863 1.355 . S
C864 C866 1.419 . S
C865 C860 1.425 . S
C865 C862 1.409 . S
C865 C863 1.415 . S
C866 H856 0.930 . S
C866 C864 1.419 . S
C866 C867 1.362 . S
C867 H857 0.930 . S
C867 C860 1.409 . S
C867 C866 1.362 . S
H868 C874 0.930 . S
H869 C877 0.930 . S
H870 C878 0.930 . S
H871 C879 0.930 . S
H872 C882 0.930 . S
H873 C883 0.930 . S
C874 H868 0.930 . S
C874 C875 1.355 . S
C874 C876 1.415 . S
C875 C874 1.355 . S
C875 C877 1.419 . S
C876 C874 1.415 . S
C876 C881 1.425 . S
C876 C883 1.409 . S
C877 H869 0.930 . S
C877 C875 1.419 . S
C877 C878 1.362 . S
C878 H870 0.930 . S
C878 C877 1.362 . S
C878 C881 1.409 . S
C879 H871 0.930 . S
C879 C880 1.355 . S
C879 C881 1.415 . S
C880 C879 1.355 . S
C880 C882 1.419 . S
C881 C876 1.425 . S
C881 C878 1.409 . S
C881 C879 1.415 . S
C882 H872 0.930 . S
C882 C880 1.419 . S
C882 C883 1.362 . S
C883 H873 0.930 . S
C883 C876 1.409 . S
C883 C882 1.362 . S
H884 C890 0.930 . S
H885 C893 0.930 . S
H886 C894 0.930 . S
H887 C895 0.930 . S
H888 C898 0.930 . S
H889 C899 0.930 . S
C890 H884 0.930 . S
C890 C891 1.355 . S
C890 C892 1.415 . S
C891 C890 1.355 . S
C891 C893 1.419 . S
C892 C890 1.415 . S
C892 C897 1.425 . S
C892 C899 1.409 . S
C893 H885 0.930 . S
C893 C891 1.419 . S
C893 C894 1.362 . S
C894 H886 0.930 . S
C894 C893 1.362 . S
C894 C897 1.409 . S
C895 H887 0.930 . S
C895 C896 1.355 . S
C895 C897 1.415 . S
C896 C895 1.355 . S
C896 C898 1.419 . S
C897 C892 1.425 . S
C897 C894 1.409 . S
C897 C895 1.415 . S
C898 H888 0.930 . S
C898 C896 1.419 . S
C898 C899 1.362 . S
C899 H889 0.930 . S
C899 C892 1.409 . S
C899 C898 1.362 . S
H900 C906 0.930 . S
H901 C909 0.930 . S
H902 C910 0.930 . S
H903 C911 0.930 . S
H904 C914 0.930 . S
H905 C915 0.930 . S
C906 H900 0.930 . S
C906 C907 1.355 . S
C906 C908 1.415 . S
C907 C906 1.355 . S
C907 C909 1.419 . S
C908 C906 1.415 . S
C908 C913 1.425 . S
C908 C915 1.409 . S
C909 H901 0.930 . S
C909 C907 1.419 . S
C909 C910 1.362 . S
C910 H902 0.930 . S
C910 C909 1.362 . S
C910 C913 1.409 . S
C911 H903 0.930 . S
C911 C912 1.355 . S
C911 C913 1.415 . S
C912 C911 1.355 . S
C912 C914 1.419 . S
C913 C908 1.425 . S
C913 C910 1.409 . S
C913 C911 1.415 . S
C914 H904 0.930 . S
C914 C912 1.419 . S
C914 C915 1.362 . S
C915 H905 0.930 . S
C915 C908 1.409 . S
C915 C914 1.362 . S
H916 C922 0.930 . S
H917 C925 0.930 . S
H918 C926 0.930 . S
H919 C927 0.930 . S
H920 C930 0.930 . S
H921 C931 0.930 . S
C922 H916 0.930 . S
C922 C923 1.355 . S
C922 C924 1.415 . S
C923 C922 1.355 . S
C923 C925 1.419 . S
C924 C922 1.415 . S
C924 C929 1.425 . S
C924 C931 1.409 . S
C925 H917 0.930 . S
C925 C923 1.419 . S
C925 C926 1.362 . S
C926 H918 0.930 . S
C926 C925 1.362 . S
C926 C929 1.409 . S
C927 H919 0.930 . S
C927 C928 1.355 . S
C927 C929 1.415 . S
C928 C927 1.355 . S
C928 C930 1.419 . S
C929 C924 1.425 . S
C929 C926 1.409 . S
C929 C927 1.415 . S
C930 H920 0.930 . S
C930 C928 1.419 . S
C930 C931 1.362 . S
C931 H921 0.930 . S
C931 C924 1.409 . S
C931 C930 1.362 . S
H932 C938 0.930 . S
H933 C941 0.930 . S
H934 C942 0.930 . S
H935 C943 0.930 . S
H936 C946 0.930 . S
H937 C947 0.930 . S
C938 H932 0.930 . S
C938 C939 1.355 . S
C938 C940 1.415 . S
C939 C938 1.355 . S
C939 C941 1.419 . S
C940 C938 1.415 . S
C940 C945 1.425 . S
C940 C947 1.409 . S
C941 H933 0.930 . S
C941 C939 1.419 . S
C941 C942 1.362 . S
C942 H934 0.930 . S
C942 C941 1.362 . S
C942 C945 1.409 . S
C943 H935 0.930 . S
C943 C944 1.355 . S
C943 C945 1.415 . S
C944 C943 1.355 . S
C944 C946 1.419 . S
C945 C940 1.425 . S
C945 C942 1.409 . S
C945 C943 1.415 . S
C946 H936 0.930 . S
C946 C944 1.419 . S
C946 C947 1.362 . S
C947 H937 0.930 . S
C947 C940 1.409 . S
C947 C946 1.362 . S
H948 C954 0.930 . S
H949 C957 0.930 . S
H950 C958 0.930 . S
H951 C959 0.930 . S
H952 C962 0.930 . S
H953 C963 0.930 . S
C954 H948 0.930 . S
C954 C955 1.355 . S
C954 C956 1.415 . S
C955 C954 1.355 . S
C955 C957 1.419 . S
C956 C954 1.415 . S
C956 C961 1.425 . S
C956 C963 1.409 . S
C957 H949 0.930 . S
C957 C955 1.419 . S
C957 C958 1.362 . S
C958 H950 0.930 . S
C958 C957 1.362 . S
C958 C961 1.409 . S
C959 H951 0.930 . S
C959 C960 1.355 . S
C959 C961 1.415 . S
C960 C959 1.355 . S
C960 C962 1.419 . S
C961 C956 1.425 . S
C961 C958 1.409 . S
C961 C959 1.415 . S
C962 H952 0.930 . S
C962 C960 1.419 . S
C962 C963 1.362 . S
C963 H953 0.930 . S
C963 C956 1.409 . S
C963 C962 1.362 . S
H964 C970 0.930 . S
H965 C973 0.930 . S
H966 C974 0.930 . S
H967 C975 0.930 . S
H968 C978 0.930 . S
H969 C979 0.930 . S
C970 H964 0.930 . S
C970 C971 1.355 . S
C970 C972 1.415 . S
C971 C970 1.355 . S
C971 C973 1.419 . S
C972 C970 1.415 . S
C972 C977 1.425 . S
C972 C979 1.409 . S
C973 H965 0.930 . S
C973 C971 1.419 . S
C973 C974 1.362 . S
C974 H966 0.930 . S
C974 C973 1.362 . S
C974 C977 1.409 . S
C975 H967 0.930 . S
C975 C976 1.355 . S
C975 C977 1.415 . S
C976 C975 1.355 . S
C976 C978 1.419 . S
C977 C972 1.425 . S
C977 C974 1.409 . S
C977 C975 1.415 . S
C978 H968 0.930 . S
C978 C976 1.419 . S
C978 C979 1.362 . S
C979 H969 0.930 . S
C979 C972 1.409 . S
C979 C978 1.362 . S
H980 C986 0.930 . S
H981 C989 0.930 . S
H982 C990 0.930 . S
H983 C991 0.930 . S
H984 C994 0.930 . S
H985 C995 0.930 . S
C986 H980 0.930 . S
C986 C987 1.355 . S
C986 C988 1.415 . S
C987 C986 1.355 . S
C987 C989 1.419 . S
C988 C986 1.415 . S
C988 C993 1.425 . S
C988 C995 1.409 . S
C989 H981 0.930 . S
C989 C987 1.419 . S
C989 C990 1.362 . S
C990 H982 0.930 . S
C990 C989 1.362 . S
C990 C993 1.409 . S
C991 H983 0.930 . S
C991 C992 1.355 . S
C991 C993 1.415 . S
C992 C991 1.355 . S
C992 C994 1.419 . S
C993 C988 1.425 . S
C993 C990 1.409 . S
C993 C991 1.415 . S
C994 H984 0.930 . S
C994 C992 1.419 . S
C994 C995 1.362 . S
C995 H985 0.930 . S
C995 C988 1.409 . S
C995 C994 1.362 . S
H996 C1002 0.930 . S
H997 C1005 0.930 . S
H998 C1006 0.930 . S
H999 C1007 0.930 . S
H1000 C1010 0.930 . S
H1001 C1011 0.930 . S
C1002 H996 0.930 . S
C1002 C1003 1.355 . S
C1002 C1004 1.415 . S
C1003 C1002 1.355 . S
C1003 C1005 1.419 . S
C1004 C1002 1.415 . S
C1004 C1009 1.425 . S
C1004 C1011 1.409 . S
C1005 H997 0.930 . S
C1005 C1003 1.419 . S
C1005 C1006 1.362 . S
C1006 H998 0.930 . S
C1006 C1005 1.362 . S
C1006 C1009 1.409 . S
C1007 H999 0.930 . S
C1007 C1008 1.355 . S
C1007 C1009 1.415 . S
C1008 C1007 1.355 . S
C1008 C1010 1.419 . S
C1009 C1004 1.425 . S
C1009 C1006 1.409 . S
C1009 C1007 1.415 . S
C1010 H1000 0.930 . S
C1010 C1008 1.419 . S
C1010 C1011 1.362 . S
C1011 H1001 0.930 . S
C1011 C1004 1.409 . S
C1011 C1010 1.362 . S
H1012 C1018 0.930 . S
H1013 C1021 0.930 . S
H1014 C1022 0.930 . S
H1015 C1023 0.930 . S
H1016 C1026 0.930 . S
H1017 C1027 0.930 . S
C1018 H1012 0.930 . S
C1018 C1019 1.355 . S
C1018 C1020 1.415 . S
C1019 C1018 1.355 . S
C1019 C1021 1.419 . S
C1020 C1018 1.415 . S
C1020 C1025 1.425 . S
C1020 C1027 1.409 . S
C1021 H1013 0.930 . S
C1021 C1019 1.419 . S
C1021 C1022 1.362 . S
C1022 H1014 0.930 . S
C1022 C1021 1.362 . S
C1022 C1025 1.409 . S
C1023 H1015 0.930 . S
C1023 C1024 1.355 . S
C1023 C1025 1.415 . S
C1024 C1023 1.355 . S
C1024 C1026 1.419 . S
C1025 C1020 1.425 . S
C1025 C1022 1.409 . S
C1025 C1023 1.415 . S
C1026 H1016 0.930 . S
C1026 C1024 1.419 . S
C1026 C1027 1.362 . S
C1027 H1017 0.930 . S
C1027 C1020 1.409 . S
C1027 C1026 1.362 . S
H1028 C1034 0.930 . S
H1029 C1037 0.930 . S
H1030 C1038 0.930 . S
H1031 C1039 0.930 . S
H1032 C1042 0.930 . S
H1033 C1043 0.930 . S
C1034 H1028 0.930 . S
C1034 C1035 1.355 . S
C1034 C1036 1.415 . S
C1035 C1034 1.355 . S
C1035 C1037 1.419 . S
C1036 C1034 1.415 . S
C1036 C1041 1.425 . S
C1036 C1043 1.409 . S
C1037 H1029 0.930 . S
C1037 C1035 1.419 . S
C1037 C1038 1.362 . S
C1038 H1030 0.930 . S
C1038 C1037 1.362 . S
C1038 C1041 1.409 . S
C1039 H1031 0.930 . S
C1039 C1040 1.355 . S
C1039 C1041 1.415 . S
C1040 C1039 1.355 . S
C1040 C1042 1.419 . S
C1041 C1036 1.425 . S
C1041 C1038 1.409 . S
C1041 C1039 1.415 . S
C1042 H1032 0.930 . S
C1042 C1040 1.419 . S
C1042 C1043 1.362 . S
C1043 H1033 0.930 . S
C1043 C1036 1.409 . S
C1043 C1042 1.362 . S
H1044 C1050 0.930 . S
H1045 C1053 0.930 . S
H1046 C1054 0.930 . S
H1047 C1055 0.930 . S
H1048 C1058 0.930 . S
H1049 C1059 0.930 . S
C1050 H1044 0.930 . S
C1050 C1051 1.355 . S
C1050 C1052 1.415 . S
C1051 C1050 1.355 . S
C1051 C1053 1.419 . S
C1052 C1050 1.415 . S
C1052 C1057 1.425 . S
C1052 C1059 1.409 . S
C1053 H1045 0.930 . S
C1053 C1051 1.419 . S
C1053 C1054 1.362 . S
C1054 H1046 0.930 . S
C1054 C1053 1.362 . S
C1054 C1057 1.409 . S
C1055 H1047 0.930 . S
C1055 C1056 1.355 . S
C1055 C1057 1.415 . S
C1056 C1055 1.355 . S
C1056 C1058 1.419 . S
C1057 C1052 1.425 . S
C1057 C1054 1.409 . S
C1057 C1055 1.415 . S
C1058 H1048 0.930 . S
C1058 C1056 1.419 . S
C1058 C1059 1.362 . S
C1059 H1049 0.930 . S
C1059 C1052 1.409 . S
C1059 C1058 1.362 . S
H1060 C1066 0.930 . S
H1061 C1069 0.930 . S
H1062 C1070 0.930 . S
H1063 C1071 0.930 . S
H1064 C1074 0.930 . S
H1065 C1075 0.930 . S
C1066 H1060 0.930 . S
C1066 C1067 1.355 . S
C1066 C1068 1.415 . S
C1067 C1066 1.355 . S
C1067 C1069 1.419 . S
C1068 C1066 1.415 . S
C1068 C1073 1.425 . S
C1068 C1075 1.409 . S
C1069 H1061 0.930 . S
C1069 C1067 1.419 . S
C1069 C1070 1.362 . S
C1070 H1062 0.930 . S
C1070 C1069 1.362 . S
C1070 C1073 1.409 . S
C1071 H1063 0.930 . S
C1071 C1072 1.355 . S
C1071 C1073 1.415 . S
C1072 C1071 1.355 . S
C1072 C1074 1.419 . S
C1073 C1068 1.425 . S
C1073 C1070 1.409 . S
C1073 C1071 1.415 . S
C1074 H1064 0.930 . S
C1074 C1072 1.419 . S
C1074 C1075 1.362 . S
C1075 H1065 0.930 . S
C1075 C1068 1.409 . S
C1075 C1074 1.362 . S
H1076 C1082 0.930 . S
H1077 C1085 0.930 . S
H1078 C1086 0.930 . S
H1079 C1087 0.930 . S
H1080 C1090 0.930 . S
H1081 C1091 0.930 . S
C1082 H1076 0.930 . S
C1082 C1083 1.355 . S
C1082 C1084 1.415 . S
C1083 C1082 1.355 . S
C1083 C1085 1.419 . S
C1084 C1082 1.415 . S
C1084 C1089 1.425 . S
C1084 C1091 1.409 . S
C1085 H1077 0.930 . S
C1085 C1083 1.419 . S
C1085 C1086 1.362 . S
C1086 H1078 0.930 . S
C1086 C1085 1.362 . S
C1086 C1089 1.409 . S
C1087 H1079 0.930 . S
C1087 C1088 1.355 . S
C1087 C1089 1.415 . S
C1088 C1087 1.355 . S
C1088 C1090 1.419 . S
C1089 C1084 1.425 . S
C1089 C1086 1.409 . S
C1089 C1087 1.415 . S
C1090 H1080 0.930 . S
C1090 C1088 1.419 . S
C1090 C1091 1.362 . S
C1091 H1081 0.930 . S
C1091 C1084 1.409 . S
C1091 C1090 1.362 . S
H1092 C1098 0.930 . S
H1093 C1101 0.930 . S
H1094 C1102 0.930 . S
H1095 C1103 0.930 . S
H1096 C1106 0.930 . S
H1097 C1107 0.930 . S
C1098 H1092 0.930 . S
C1098 C1099 1.355 . S
C1098 C1100 1.415 . S
C1099 C1098 1.355 . S
C1099 C1101 1.419 . S
C1100 C1098 1.415 . S
C1100 C1105 1.425 . S
C1100 C1107 1.409 . S
C1101 H1093 0.930 . S
C1101 C1099 1.419 . S
C1101 C1102 1.362 . S
C1102 H1094 0.930 . S
C1102 C1101 1.362 . S
C1102 C1105 1.409 . S
C1103 H1095 0.930 . S
C1103 C1104 1.355 . S
C1103 C1105 1.415 . S
C1104 C1103 1.355 . S
C1104 C1106 1.419 . S
C1105 C1100 1.425 . S
C1105 C1102 1.409 . S
C1105 C1103 1.415 . S
C1106 H1096 0.930 . S
C1106 C1104 1.419 . S
C1106 C1107 1.362 . S
C1107 H1097 0.930 . S
C1107 C1100 1.409 . S
C1107 C1106 1.362 . S
H1108 C1114 0.930 . S
H1109 C1117 0.930 . S
H1110 C1118 0.930 . S
H1111 C1119 0.930 . S
H1112 C1122 0.930 . S
H1113 C1123 0.930 . S
C1114 H1108 0.930 . S
C1114 C1115 1.355 . S
C1114 C1116 1.415 . S
C1115 C1114 1.355 . S
C1115 C1117 1.419 . S
C1116 C1114 1.415 . S
C1116 C1121 1.425 . S
C1116 C1123 1.409 . S
C1117 H1109 0.930 . S
C1117 C1115 1.419 . S
C1117 C1118 1.362 . S
C1118 H1110 0.930 . S
C1118 C1117 1.362 . S
C1118 C1121 1.409 . S
C1119 H1111 0.930 . S
C1119 C1120 1.355 . S
C1119 C1121 1.415 . S
C1120 C1119 1.355 . S
C1120 C1122 1.419 . S
C1121 C1116 1.425 . S
C1121 C1118 1.409 . S
C1121 C1119 1.415 . S
C1122 H1112 0.930 . S
C1122 C1120 1.419 . S
C1122 C1123 1.362 . S
C1123 H1113 0.930 . S
C1123 C1116 1.409 . S
C1123 C1122 1.362 . S
H1124 C1130 0.930 . S
H1125 C1133 0.930 . S
H1126 C1134 0.930 . S
H1127 C1135 0.930 . S
H1128 C1138 0.930 . S
H1129 C1139 0.930 . S
C1130 H1124 0.930 . S
C1130 C1131 1.355 . S
C1130 C1132 1.415 . S
C1131 C1130 1.355 . S
C1131 C1133 1.419 . S
C1132 C1130 1.415 . S
C1132 C1137 1.425 . S
C1132 C1139 1.409 . S
C1133 H1125 0.930 . S
C1133 C1131 1.419 . S
C1133 C1134 1.362 . S
C1134 H1126 0.930 . S
C1134 C1133 1.362 . S
C1134 C1137 1.409 . S
C1135 H1127 0.930 . S
C1135 C1136 1.355 . S
C1135 C1137 1.415 . S
C1136 C1135 1.355 . S
C1136 C1138 1.419 . S
C1137 C1132 1.425 . S
C1137 C1134 1.409 . S
C1137 C1135 1.415 . S
C1138 H1128 0.930 . S
C1138 C1136 1.419 . S
C1138 C1139 1.362 . S
C1139 H1129 0.930 . S
C1139 C1132 1.409 . S
C1139 C1138 1.362 . S
H1140 C1146 0.930 . S
H1141 C1149 0.930 . S
H1142 C1150 0.930 . S
H1143 C1151 0.930 . S
H1144 C1154 0.930 . S
H1145 C1155 0.930 . S
C1146 H1140 0.930 . S
C1146 C1147 1.355 . S
C1146 C1148 1.415 . S
C1147 C1146 1.355 . S
C1147 C1149 1.419 . S
C1148 C1146 1.415 . S
C1148 C1153 1.425 . S
C1148 C1155 1.409 . S
C1149 H1141 0.930 . S
C1149 C1147 1.419 . S
C1149 C1150 1.362 . S
C1150 H1142 0.930 . S
C1150 C1149 1.362 . S
C1150 C1153 1.409 . S
C1151 H1143 0.930 . S
C1151 C1152 1.355 . S
C1151 C1153 1.415 . S
C1152 C1151 1.355 . S
C1152 C1154 1.419 . S
C1153 C1148 1.425 . S
C1153 C1150 1.409 . S
C1153 C1151 1.415 . S
C1154 H1144 0.930 . S
C1154 C1152 1.419 . S
C1154 C1155 1.362 . S
C1155 H1145 0.930 . S
C1155 C1148 1.409 . S
C1155 C1154 1.362 . S
H1156 C1162 0.930 . S
H1157 C1165 0.930 . S
H1158 C1166 0.930 . S
H1159 C1167 0.930 . S
H1160 C1170 0.930 . S
H1161 C1171 0.930 . S
C1162 H1156 0.930 . S
C1162 C1163 1.355 . S
C1162 C1164 1.415 . S
C1163 C1162 1.355 . S
C1163 C1165 1.419 . S
C1164 C1162 1.415 . S
C1164 C1169 1.425 . S
C1164 C1171 1.409 . S
C1165 H1157 0.930 . S
C1165 C1163 1.419 . S
C1165 C1166 1.362 . S
C1166 H1158 0.930 . S
C1166 C1165 1.362 . S
C1166 C1169 1.409 . S
C1167 H1159 0.930 . S
C1167 C1168 1.355 . S
C1167 C1169 1.415 . S
C1168 C1167 1.355 . S
C1168 C1170 1.419 . S
C1169 C1164 1.425 . S
C1169 C1166 1.409 . S
C1169 C1167 1.415 . S
C1170 H1160 0.930 . S
C1170 C1168 1.419 . S
C1170 C1171 1.362 . S
C1171 H1161 0.930 . S
C1171 C1164 1.409 . S
C1171 C1170 1.362 . S
H1172 C1178 0.930 . S
H1173 C1181 0.930 . S
H1174 C1182 0.930 . S
H1175 C1183 0.930 . S
H1176 C1186 0.930 . S
H1177 C1187 0.930 . S
C1178 H1172 0.930 . S
C1178 C1179 1.355 . S
C1178 C1180 1.415 . S
C1179 C1178 1.355 . S
C1179 C1181 1.419 . S
C1180 C1178 1.415 . S
C1180 C1185 1.425 . S
C1180 C1187 1.409 . S
C1181 H1173 0.930 . S
C1181 C1179 1.419 . S
C1181 C1182 1.362 . S
C1182 H1174 0.930 . S
C1182 C1181 1.362 . S
C1182 C1185 1.409 . S
C1183 H1175 0.930 . S
C1183 C1184 1.355 . S
C1183 C1185 1.415 . S
C1184 C1183 1.355 . S
C1184 C1186 1.419 . S
C1185 C1180 1.425 . S
C1185 C1182 1.409 . S
C1185 C1183 1.415 . S
C1186 H1176 0.930 . S
C1186 C1184 1.419 . S
C1186 C1187 1.362 . S
C1187 H1177 0.930 . S
C1187 C1180 1.409 . S
C1187 C1186 1.362 . S
H1188 C1194 0.930 . S
H1189 C1197 0.930 . S
H1190 C1198 0.930 . S
H1191 C1199 0.930 . S
H1192 C1202 0.930 . S
H1193 C1203 0.930 . S
C1194 H1188 0.930 . S
C1194 C1195 1.355 . S
C1194 C1196 1.415 . S
C1195 C1194 1.355 . S
C1195 C1197 1.419 . S
C1196 C1194 1.415 . S
C1196 C1201 1.425 . S
C1196 C1203 1.409 . S
C1197 H1189 0.930 . S
C1197 C1195 1.419 . S
C1197 C1198 1.362 . S
C1198 H1190 0.930 . S
C1198 C1197 1.362 . S
C1198 C1201 1.409 . S
C1199 H1191 0.930 . S
C1199 C1200 1.355 . S
C1199 C1201 1.415 . S
C1200 C1199 1.355 . S
C1200 C1202 1.419 . S
C1201 C1196 1.425 . S
C1201 C1198 1.409 . S
C1201 C1199 1.415 . S
C1202 H1192 0.930 . S
C1202 C1200 1.419 . S
C1202 C1203 1.362 . S
C1203 H1193 0.930 . S
C1203 C1196 1.409 . S
C1203 C1202 1.362 . S
H1204 C1210 0.930 . S
H1205 C1213 0.930 . S
H1206 C1214 0.930 . S
H1207 C1215 0.930 . S
H1208 C1218 0.930 . S
H1209 C1219 0.930 . S
C1210 H1204 0.930 . S
C1210 C1211 1.355 . S
C1210 C1212 1.415 . S
C1211 C1210 1.355 . S
C1211 C1213 1.419 . S
C1212 C1210 1.415 . S
C1212 C1217 1.425 . S
C1212 C1219 1.409 . S
C1213 H1205 0.930 . S
C1213 C1211 1.419 . S
C1213 C1214 1.362 . S
C1214 H1206 0.930 . S
C1214 C1213 1.362 . S
C1214 C1217 1.409 . S
C1215 H1207 0.930 . S
C1215 C1216 1.355 . S
C1215 C1217 1.415 . S
C1216 C1215 1.355 . S
C1216 C1218 1.419 . S
C1217 C1212 1.425 . S
C1217 C1214 1.409 . S
C1217 C1215 1.415 . S
C1218 H1208 0.930 . S
C1218 C1216 1.419 . S
C1218 C1219 1.362 . S
C1219 H1209 0.930 . S
C1219 C1212 1.409 . S
C1219 C1218 1.362 . S
H1220 C1226 0.930 . S
H1221 C1229 0.930 . S
H1222 C1230 0.930 . S
H1223 C1231 0.930 . S
H1224 C1234 0.930 . S
H1225 C1235 0.930 . S
C1226 H1220 0.930 . S
C1226 C1227 1.355 . S
C1226 C1228 1.415 . S
C1227 C1226 1.355 . S
C1227 C1229 1.419 . S
C1228 C1226 1.415 . S
C1228 C1233 1.425 . S
C1228 C1235 1.409 . S
C1229 H1221 0.930 . S
C1229 C1227 1.419 . S
C1229 C1230 1.362 . S
C1230 H1222 0.930 . S
C1230 C1229 1.362 . S
C1230 C1233 1.409 . S
C1231 H1223 0.930 . S
C1231 C1232 1.355 . S
C1231 C1233 1.415 . S
C1232 C1231 1.355 . S
C1232 C1234 1.419 . S
C1233 C1228 1.425 . S
C1233 C1230 1.409 . S
C1233 C1231 1.415 . S
C1234 H1224 0.930 . S
C1234 C1232 1.419 . S
C1234 C1235 1.362 . S
C1235 H1225 0.930 . S
C1235 C1228 1.409 . S
C1235 C1234 1.362 . S
H1236 C1242 0.930 . S
H1237 C1245 0.930 . S
H1238 C1246 0.930 . S
H1239 C1247 0.930 . S
H1240 C1250 0.930 . S
H1241 C1251 0.930 . S
C1242 H1236 0.930 . S
C1242 C1243 1.355 . S
C1242 C1244 1.415 . S
C1243 C1242 1.355 . S
C1243 C1245 1.419 . S
C1244 C1242 1.415 . S
C1244 C1249 1.425 1_455 S
C1244 C1251 1.409 . S
C1245 H1237 0.930 . S
C1245 C1243 1.419 . S
C1245 C1246 1.362 1_455 S
C1246 H1238 0.930 . S
C1246 C1245 1.362 1_655 S
C1246 C1249 1.409 . S
C1247 H1239 0.930 . S
C1247 C1248 1.355 . S
C1247 C1249 1.415 . S
C1248 C1247 1.355 . S
C1248 C1250 1.419 . S
C1249 C1244 1.425 1_655 S
C1249 C1246 1.409 . S
C1249 C1247 1.415 . S
C1250 H1240 0.930 . S
C1250 C1248 1.419 . S
C1250 C1251 1.362 1_655 S
C1251 H1241 0.930 . S
C1251 C1244 1.409 . S
C1251 C1250 1.362 1_455 S
H1252 C1258 0.930 . S
H1253 C1261 0.930 . S
H1254 C1262 0.930 . S
H1255 C1263 0.930 . S
H1256 C1266 0.930 . S
H1257 C1267 0.930 . S
C1258 H1252 0.930 . S
C1258 C1259 1.355 . S
C1258 C1260 1.415 . S
C1259 C1258 1.355 . S
C1259 C1261 1.419 . S
C1260 C1258 1.415 . S
C1260 C1265 1.425 . S
C1260 C1267 1.409 . S
C1261 H1253 0.930 . S
C1261 C1259 1.419 . S
C1261 C1262 1.362 . S
C1262 H1254 0.930 . S
C1262 C1261 1.362 . S
C1262 C1265 1.409 . S
C1263 H1255 0.930 . S
C1263 C1264 1.355 . S
C1263 C1265 1.415 . S
C1264 C1263 1.355 . S
C1264 C1266 1.419 . S
C1265 C1260 1.425 . S
C1265 C1262 1.409 . S
C1265 C1263 1.415 . S
C1266 H1256 0.930 . S
C1266 C1264 1.419 . S
C1266 C1267 1.362 . S
C1267 H1257 0.930 . S
C1267 C1260 1.409 . S
C1267 C1266 1.362 . S
H1268 C1274 0.930 . S
H1269 C1277 0.921 1_545 S
H1270 C1278 0.930 . S
H1271 C1279 0.930 . S
H1272 C1282 0.922 1_565 S
H1273 C1283 0.930 . S
C1274 H1268 0.930 . S
C1274 C1275 1.355 . S
C1274 C1276 1.415 . S
C1275 C1274 1.355 . S
C1275 C1277 1.419 . S
C1276 C1274 1.415 . S
C1276 C1281 1.425 1_565 S
C1276 C1283 1.409 . S
C1277 H1269 0.921 1_565 S
C1277 C1275 1.419 . S
C1277 C1278 1.362 1_565 S
C1278 H1270 0.930 . S
C1278 C1277 1.362 1_545 S
C1278 C1281 1.409 . S
C1279 H1271 0.930 . S
C1279 C1280 1.355 . S
C1279 C1281 1.415 . S
C1280 C1279 1.355 . S
C1280 C1282 1.419 . S
C1281 C1276 1.425 1_545 S
C1281 C1278 1.409 . S
C1281 C1279 1.415 . S
C1282 H1272 0.922 1_545 S
C1282 C1280 1.419 . S
C1282 C1283 1.362 1_545 S
C1283 H1273 0.930 . S
C1283 C1276 1.409 . S
C1283 C1282 1.362 1_565 S
H1284 C1290 0.930 1_545 S
H1285 C1293 0.930 . S
H1286 C1294 0.930 . S
H1287 C1295 0.930 1_565 S
H1288 C1298 0.930 . S
H1289 C1299 0.930 . S
C1290 H1284 0.930 1_565 S
C1290 C1291 1.355 . S
C1290 C1292 1.415 1_565 S
C1291 C1290 1.355 . S
C1291 C1293 1.419 . S
C1292 C1290 1.415 1_545 S
C1292 C1297 1.425 1_545 S
C1292 C1299 1.409 . S
C1293 H1285 0.930 . S
C1293 C1291 1.419 . S
C1293 C1294 1.362 . S
C1294 H1286 0.930 . S
C1294 C1293 1.362 . S
C1294 C1297 1.409 . S
C1295 H1287 0.930 1_545 S
C1295 C1296 1.355 . S
C1295 C1297 1.415 1_545 S
C1296 C1295 1.355 . S
C1296 C1298 1.419 . S
C1297 C1292 1.425 1_565 S
C1297 C1294 1.409 . S
C1297 C1295 1.415 1_565 S
C1298 H1288 0.930 . S
C1298 C1296 1.419 . S
C1298 C1299 1.362 . S
C1299 H1289 0.930 . S
C1299 C1292 1.409 . S
C1299 C1298 1.362 . S
H1300 C1306 0.930 . S
H1301 C1309 0.930 . S
H1302 C1310 0.930 . S
H1303 C1311 0.930 . S
H1304 C1314 0.930 . S
H1305 C1315 0.930 . S
C1306 H1300 0.930 . S
C1306 C1307 1.355 . S
C1306 C1308 1.415 1_655 S
C1307 C1306 1.355 . S
C1307 C1309 1.419 . S
C1308 C1306 1.415 1_455 S
C1308 C1313 1.425 1_455 S
C1308 C1315 1.409 . S
C1309 H1301 0.930 . S
C1309 C1307 1.419 . S
C1309 C1310 1.362 . S
C1310 H1302 0.930 . S
C1310 C1309 1.362 . S
C1310 C1313 1.409 . S
C1311 H1303 0.930 . S
C1311 C1312 1.355 . S
C1311 C1313 1.415 1_455 S
C1312 C1311 1.355 . S
C1312 C1314 1.419 . S
C1313 C1308 1.425 1_655 S
C1313 C1310 1.409 . S
C1313 C1311 1.415 1_655 S
C1314 H1304 0.930 . S
C1314 C1312 1.419 . S
C1314 C1315 1.362 . S
C1315 H1305 0.930 . S
C1315 C1308 1.409 . S
C1315 C1314 1.362 . S
H1316 C1322 0.930 . S
H1317 C1325 0.930 . S
H1318 C1326 0.930 . S
H1319 C1327 0.930 . S
H1320 C1330 0.930 . S
H1321 C1331 0.930 . S
C1322 H1316 0.930 . S
C1322 C1323 1.355 . S
C1322 C1324 1.415 . S
C1323 C1322 1.355 . S
C1323 C1325 1.419 . S
C1324 C1322 1.415 . S
C1324 C1329 1.425 . S
C1324 C1331 1.409 . S
C1325 H1317 0.930 . S
C1325 C1323 1.419 . S
C1325 C1326 1.362 . S
C1326 H1318 0.930 . S
C1326 C1325 1.362 . S
C1326 C1329 1.409 . S
C1327 H1319 0.930 . S
C1327 C1328 1.355 . S
C1327 C1329 1.415 . S
C1328 C1327 1.355 . S
C1328 C1330 1.419 . S
C1329 C1324 1.425 . S
C1329 C1326 1.409 . S
C1329 C1327 1.415 . S
C1330 H1320 0.930 . S
C1330 C1328 1.419 . S
C1330 C1331 1.362 . S
C1331 H1321 0.930 . S
C1331 C1324 1.409 . S
C1331 C1330 1.362 . S
H1332 C1338 0.930 . S
H1333 C1341 0.930 . S
H1334 C1342 0.930 . S
H1335 C1343 0.930 . S
H1336 C1346 0.930 . S
H1337 C1347 0.930 . S
C1338 H1332 0.930 . S
C1338 C1339 1.355 . S
C1338 C1340 1.415 . S
C1339 C1338 1.355 . S
C1339 C1341 1.419 . S
C1340 C1338 1.415 . S
C1340 C1345 1.425 . S
C1340 C1347 1.409 . S
C1341 H1333 0.930 . S
C1341 C1339 1.419 . S
C1341 C1342 1.362 . S
C1342 H1334 0.930 . S
C1342 C1341 1.362 . S
C1342 C1345 1.409 . S
C1343 H1335 0.930 . S
C1343 C1344 1.355 . S
C1343 C1345 1.415 . S
C1344 C1343 1.355 . S
C1344 C1346 1.419 . S
C1345 C1340 1.425 . S
C1345 C1342 1.409 . S
C1345 C1343 1.415 . S
C1346 H1336 0.930 . S
C1346 C1344 1.419 . S
C1346 C1347 1.362 . S
C1347 H1337 0.930 . S
C1347 C1340 1.409 . S
C1347 C1346 1.362 . S
H1348 C1354 0.930 . S
H1349 C1357 0.930 . S
H1350 C1358 0.930 . S
H1351 C1359 0.930 . S
H1352 C1362 0.930 . S
H1353 C1363 0.930 . S
C1354 H1348 0.930 . S
C1354 C1355 1.355 . S
C1354 C1356 1.415 . S
C1355 C1354 1.355 . S
C1355 C1357 1.419 . S
C1356 C1354 1.415 . S
C1356 C1361 1.425 . S
C1356 C1363 1.409 . S
C1357 H1349 0.930 . S
C1357 C1355 1.419 . S
C1357 C1358 1.362 . S
C1358 H1350 0.930 . S
C1358 C1357 1.362 . S
C1358 C1361 1.409 . S
C1359 H1351 0.930 . S
C1359 C1360 1.355 . S
C1359 C1361 1.415 . S
C1360 C1359 1.355 . S
C1360 C1362 1.419 . S
C1361 C1356 1.425 . S
C1361 C1358 1.409 . S
C1361 C1359 1.415 . S
C1362 H1352 0.930 . S
C1362 C1360 1.419 . S
C1362 C1363 1.362 . S
C1363 H1353 0.930 . S
C1363 C1356 1.409 . S
C1363 C1362 1.362 . S
H1364 C1370 0.930 . S
H1365 C1373 0.930 . S
H1366 C1374 0.930 . S
H1367 C1375 0.930 . S
H1368 C1378 0.930 . S
H1369 C1379 0.930 . S
C1370 H1364 0.930 . S
C1370 C1371 1.355 . S
C1370 C1372 1.415 . S
C1371 C1370 1.355 . S
C1371 C1373 1.419 . S
C1372 C1370 1.415 . S
C1372 C1377 1.425 . S
C1372 C1379 1.409 . S
C1373 H1365 0.930 . S
C1373 C1371 1.419 . S
C1373 C1374 1.362 . S
C1374 H1366 0.930 . S
C1374 C1373 1.362 . S
C1374 C1377 1.409 . S
C1375 H1367 0.930 . S
C1375 C1376 1.355 . S
C1375 C1377 1.415 . S
C1376 C1375 1.355 . S
C1376 C1378 1.419 . S
C1377 C1372 1.425 . S
C1377 C1374 1.409 . S
C1377 C1375 1.415 . S
C1378 H1368 0.930 . S
C1378 C1376 1.419 . S
C1378 C1379 1.362 . S
C1379 H1369 0.930 . S
C1379 C1372 1.409 . S
C1379 C1378 1.362 . S
H1380 C1386 0.930 . S
H1381 C1389 0.930 . S
H1382 C1390 0.930 . S
H1383 C1391 0.930 . S
H1384 C1394 0.930 . S
H1385 C1395 0.930 . S
C1386 H1380 0.930 . S
C1386 C1387 1.355 . S
C1386 C1388 1.415 . S
C1387 C1386 1.355 . S
C1387 C1389 1.419 . S
C1388 C1386 1.415 . S
C1388 C1393 1.425 . S
C1388 C1395 1.409 . S
C1389 H1381 0.930 . S
C1389 C1387 1.419 . S
C1389 C1390 1.362 . S
C1390 H1382 0.930 . S
C1390 C1389 1.362 . S
C1390 C1393 1.409 . S
C1391 H1383 0.930 . S
C1391 C1392 1.355 . S
C1391 C1393 1.415 . S
C1392 C1391 1.355 . S
C1392 C1394 1.419 . S
C1393 C1388 1.425 . S
C1393 C1390 1.409 . S
C1393 C1391 1.415 . S
C1394 H1384 0.930 . S
C1394 C1392 1.419 . S
C1394 C1395 1.362 . S
C1395 H1385 0.930 . S
C1395 C1388 1.409 . S
C1395 C1394 1.362 . S
H1396 C1402 0.930 . S
H1397 C1405 0.930 . S
H1398 C1406 0.930 . S
H1399 C1407 0.930 . S
H1400 C1410 0.930 . S
H1401 C1411 0.930 . S
C1402 H1396 0.930 . S
C1402 C1403 1.355 . S
C1402 C1404 1.415 . S
C1403 C1402 1.355 . S
C1403 C1405 1.419 . S
C1404 C1402 1.415 . S
C1404 C1409 1.425 . S
C1404 C1411 1.409 . S
C1405 H1397 0.930 . S
C1405 C1403 1.419 . S
C1405 C1406 1.362 . S
C1406 H1398 0.930 . S
C1406 C1405 1.362 . S
C1406 C1409 1.409 . S
C1407 H1399 0.930 . S
C1407 C1408 1.355 . S
C1407 C1409 1.415 . S
C1408 C1407 1.355 . S
C1408 C1410 1.419 . S
C1409 C1404 1.425 . S
C1409 C1406 1.409 . S
C1409 C1407 1.415 . S
C1410 H1400 0.930 . S
C1410 C1408 1.419 . S
C1410 C1411 1.362 . S
C1411 H1401 0.930 . S
C1411 C1404 1.409 . S
C1411 C1410 1.362 . S
H1412 C1418 0.930 . S
H1413 C1421 0.930 . S
H1414 C1422 0.930 . S
H1415 C1423 0.930 . S
H1416 C1426 0.930 . S
H1417 C1427 0.930 . S
C1418 H1412 0.930 . S
C1418 C1419 1.355 . S
C1418 C1420 1.415 . S
C1419 C1418 1.355 . S
C1419 C1421 1.419 . S
C1420 C1418 1.415 . S
C1420 C1425 1.425 . S
C1420 C1427 1.409 . S
C1421 H1413 0.930 . S
C1421 C1419 1.419 . S
C1421 C1422 1.362 . S
C1422 H1414 0.930 . S
C1422 C1421 1.362 . S
C1422 C1425 1.409 . S
C1423 H1415 0.930 . S
C1423 C1424 1.355 . S
C1423 C1425 1.415 . S
C1424 C1423 1.355 . S
C1424 C1426 1.419 . S
C1425 C1420 1.425 . S
C1425 C1422 1.409 . S
C1425 C1423 1.415 . S
C1426 H1416 0.930 . S
C1426 C1424 1.419 . S
C1426 C1427 1.362 . S
C1427 H1417 0.930 . S
C1427 C1420 1.409 . S
C1427 C1426 1.362 . S
H1428 C1434 0.930 . S
H1429 C1437 0.930 . S
H1430 C1438 0.930 . S
H1431 C1439 0.930 . S
H1432 C1442 0.930 . S
H1433 C1443 0.930 . S
C1434 H1428 0.930 . S
C1434 C1435 1.355 . S
C1434 C1436 1.415 . S
C1435 C1434 1.355 . S
C1435 C1437 1.419 . S
C1436 C1434 1.415 . S
C1436 C1441 1.425 . S
C1436 C1443 1.409 . S
C1437 H1429 0.930 . S
C1437 C1435 1.419 . S
C1437 C1438 1.362 . S
C1438 H1430 0.930 . S
C1438 C1437 1.362 . S
C1438 C1441 1.409 . S
C1439 H1431 0.930 . S
C1439 C1440 1.355 . S
C1439 C1441 1.415 . S
C1440 C1439 1.355 . S
C1440 C1442 1.419 . S
C1441 C1436 1.425 . S
C1441 C1438 1.409 . S
C1441 C1439 1.415 . S
C1442 H1432 0.930 . S
C1442 C1440 1.419 . S
C1442 C1443 1.362 . S
C1443 H1433 0.930 . S
C1443 C1436 1.409 . S
C1443 C1442 1.362 . S
H1444 C1450 0.930 . S
H1445 C1453 0.930 . S
H1446 C1454 0.930 . S
H1447 C1455 0.930 . S
H1448 C1458 0.930 . S
H1449 C1459 0.930 . S
C1450 H1444 0.930 . S
C1450 C1451 1.355 . S
C1450 C1452 1.415 . S
C1451 C1450 1.355 . S
C1451 C1453 1.419 . S
C1452 C1450 1.415 . S
C1452 C1457 1.425 . S
C1452 C1459 1.409 . S
C1453 H1445 0.930 . S
C1453 C1451 1.419 . S
C1453 C1454 1.362 . S
C1454 H1446 0.930 . S
C1454 C1453 1.362 . S
C1454 C1457 1.409 . S
C1455 H1447 0.930 . S
C1455 C1456 1.355 . S
C1455 C1457 1.415 . S
C1456 C1455 1.355 . S
C1456 C1458 1.419 . S
C1457 C1452 1.425 . S
C1457 C1454 1.409 . S
C1457 C1455 1.415 . S
C1458 H1448 0.930 . S
C1458 C1456 1.419 . S
C1458 C1459 1.362 . S
C1459 H1449 0.930 . S
C1459 C1452 1.409 . S
C1459 C1458 1.362 . S
H1460 C1466 0.930 . S
H1461 C1469 0.930 . S
H1462 C1470 0.930 . S
H1463 C1471 0.930 . S
H1464 C1474 0.930 . S
H1465 C1475 0.930 . S
C1466 H1460 0.930 . S
C1466 C1467 1.355 . S
C1466 C1468 1.415 . S
C1467 C1466 1.355 . S
C1467 C1469 1.419 . S
C1468 C1466 1.415 . S
C1468 C1473 1.425 . S
C1468 C1475 1.409 . S
C1469 H1461 0.930 . S
C1469 C1467 1.419 . S
C1469 C1470 1.362 . S
C1470 H1462 0.930 . S
C1470 C1469 1.362 . S
C1470 C1473 1.409 . S
C1471 H1463 0.930 . S
C1471 C1472 1.355 . S
C1471 C1473 1.415 . S
C1472 C1471 1.355 . S
C1472 C1474 1.419 . S
C1473 C1468 1.425 . S
C1473 C1470 1.409 . S
C1473 C1471 1.415 . S
C1474 H1464 0.930 . S
C1474 C1472 1.419 . S
C1474 C1475 1.362 . S
C1475 H1465 0.930 . S
C1475 C1468 1.409 . S
C1475 C1474 1.362 . S
H1476 C1482 0.930 . S
H1477 C1485 0.930 . S
H1478 C1486 0.930 . S
H1479 C1487 0.930 . S
H1480 C1490 0.930 . S
H1481 C1491 0.930 . S
C1482 H1476 0.930 . S
C1482 C1483 1.355 . S
C1482 C1484 1.415 . S
C1483 C1482 1.355 . S
C1483 C1485 1.419 . S
C1484 C1482 1.415 . S
C1484 C1489 1.425 . S
C1484 C1491 1.409 . S
C1485 H1477 0.930 . S
C1485 C1483 1.419 . S
C1485 C1486 1.362 . S
C1486 H1478 0.930 . S
C1486 C1485 1.362 . S
C1486 C1489 1.409 . S
C1487 H1479 0.930 . S
C1487 C1488 1.355 . S
C1487 C1489 1.415 . S
C1488 C1487 1.355 . S
C1488 C1490 1.419 . S
C1489 C1484 1.425 . S
C1489 C1486 1.409 . S
C1489 C1487 1.415 . S
C1490 H1480 0.930 . S
C1490 C1488 1.419 . S
C1490 C1491 1.362 . S
C1491 H1481 0.930 . S
C1491 C1484 1.409 . S
C1491 C1490 1.362 . S
H1492 C1498 0.930 . S
H1493 C1501 0.930 . S
H1494 C1502 0.930 . S
H1495 C1503 0.930 . S
H1496 C1506 0.930 . S
H1497 C1507 0.930 . S
C1498 H1492 0.930 . S
C1498 C1499 1.355 . S
C1498 C1500 1.415 . S
C1499 C1498 1.355 . S
C1499 C1501 1.419 . S
C1500 C1498 1.415 . S
C1500 C1505 1.425 . S
C1500 C1507 1.409 . S
C1501 H1493 0.930 . S
C1501 C1499 1.419 . S
C1501 C1502 1.362 . S
C1502 H1494 0.930 . S
C1502 C1501 1.362 . S
C1502 C1505 1.409 . S
C1503 H1495 0.930 . S
C1503 C1504 1.355 . S
C1503 C1505 1.415 . S
C1504 C1503 1.355 . S
C1504 C1506 1.419 . S
C1505 C1500 1.425 . S
C1505 C1502 1.409 . S
C1505 C1503 1.415 . S
C1506 H1496 0.930 . S
C1506 C1504 1.419 . S
C1506 C1507 1.362 . S
C1507 H1497 0.930 . S
C1507 C1500 1.409 . S
C1507 C1506 1.362 . S
H1508 C1514 0.930 . S
H1509 C1517 0.930 . S
H1510 C1518 0.930 . S
H1511 C1519 0.930 . S
H1512 C1522 0.930 . S
H1513 C1523 0.930 . S
C1514 H1508 0.930 . S
C1514 C1515 1.355 . S
C1514 C1516 1.415 . S
C1515 C1514 1.355 . S
C1515 C1517 1.419 . S
C1516 C1514 1.415 . S
C1516 C1521 1.425 . S
C1516 C1523 1.409 . S
C1517 H1509 0.930 . S
C1517 C1515 1.419 . S
C1517 C1518 1.362 . S
C1518 H1510 0.930 . S
C1518 C1517 1.362 . S
C1518 C1521 1.409 . S
C1519 H1511 0.930 . S
C1519 C1520 1.355 . S
C1519 C1521 1.415 . S
C1520 C1519 1.355 . S
C1520 C1522 1.419 . S
C1521 C1516 1.425 . S
C1521 C1518 1.409 . S
C1521 C1519 1.415 . S
C1522 H1512 0.930 . S
C1522 C1520 1.419 . S
C1522 C1523 1.362 . S
C1523 H1513 0.930 . S
C1523 C1516 1.409 . S
C1523 C1522 1.362 . S
H1524 C1530 0.926 1_655 S
H1525 C1533 0.930 . S
H1526 C1534 0.930 . S
H1527 C1535 0.924 1_455 S
H1528 C1538 0.930 . S
H1529 C1539 0.930 . S
C1530 H1524 0.926 1_455 S
C1530 C1531 1.355 . S
C1530 C1532 1.415 1_455 S
C1531 C1530 1.355 . S
C1531 C1533 1.419 . S
C1532 C1530 1.415 1_655 S
C1532 C1537 1.425 1_656 S
C1532 C1539 1.409 . S
C1533 H1525 0.930 . S
C1533 C1531 1.419 . S
C1533 C1534 1.362 1_556 S
C1534 H1526 0.930 . S
C1534 C1533 1.362 1_554 S
C1534 C1537 1.409 . S
C1535 H1527 0.924 1_655 S
C1535 C1536 1.355 . S
C1535 C1537 1.415 1_655 S
C1536 C1535 1.355 . S
C1536 C1538 1.419 . S
C1537 C1532 1.425 1_454 S
C1537 C1534 1.409 . S
C1537 C1535 1.415 1_455 S
C1538 H1528 0.930 . S
C1538 C1536 1.419 . S
C1538 C1539 1.362 1_554 S
C1539 H1529 0.930 . S
C1539 C1532 1.409 . S
C1539 C1538 1.362 1_556 S
H1540 C1546 0.930 . S
H1541 C1549 0.930 . S
H1542 C1550 0.930 . S
H1543 C1551 0.930 . S
H1544 C1554 0.930 . S
H1545 C1555 0.930 . S
C1546 H1540 0.930 . S
C1546 C1547 1.355 . S
C1546 C1548 1.415 1_554 S
C1547 C1546 1.355 . S
C1547 C1549 1.419 . S
C1548 C1546 1.415 1_556 S
C1548 C1553 1.425 1_556 S
C1548 C1555 1.409 . S
C1549 H1541 0.930 . S
C1549 C1547 1.419 . S
C1549 C1550 1.362 . S
C1550 H1542 0.930 . S
C1550 C1549 1.362 . S
C1550 C1553 1.409 . S
C1551 H1543 0.930 . S
C1551 C1552 1.355 . S
C1551 C1553 1.415 1_556 S
C1552 C1551 1.355 . S
C1552 C1554 1.419 . S
C1553 C1548 1.425 1_554 S
C1553 C1550 1.409 . S
C1553 C1551 1.415 1_554 S
C1554 H1544 0.930 . S
C1554 C1552 1.419 . S
C1554 C1555 1.362 . S
C1555 H1545 0.930 . S
C1555 C1548 1.409 . S
C1555 C1554 1.362 . S
H1556 C1562 0.930 . S
H1557 C1565 0.930 . S
H1558 C1566 0.929 . S
H1559 C1567 0.930 . S
H1560 C1570 0.930 . S
H1561 C1571 0.929 . S
C1562 H1556 0.930 . S
C1562 C1563 1.355 . S
C1562 C1564 1.415 . S
C1563 C1562 1.355 . S
C1563 C1565 1.419 . S
C1564 C1562 1.415 . S
C1564 C1569 1.425 1_544 S
C1564 C1571 1.420 1_554 S
C1565 H1557 0.930 . S
C1565 C1563 1.419 . S
C1565 C1566 1.354 1_545 S
C1566 H1558 0.929 . S
C1566 C1565 1.354 1_565 S
C1566 C1569 1.418 1_554 S
C1567 H1559 0.930 . S
C1567 C1568 1.355 . S
C1567 C1569 1.415 . S
C1568 C1567 1.355 . S
C1568 C1570 1.419 . S
C1569 C1564 1.425 1_566 S
C1569 C1566 1.418 1_556 S
C1569 C1567 1.415 . S
C1570 H1560 0.930 . S
C1570 C1568 1.419 . S
C1570 C1571 1.353 1_565 S
C1571 H1561 0.929 . S
C1571 C1564 1.420 1_556 S
C1571 C1570 1.353 1_545 S
H1572 C1578 0.930 . S
H1573 C1581 0.930 . S
H1574 C1582 0.930 . S
H1575 C1583 0.930 . S
H1576 C1586 0.930 . S
H1577 C1587 0.930 . S
C1578 H1572 0.930 . S
C1578 C1579 1.355 . S
C1578 C1580 1.415 1_556 S
C1579 C1578 1.355 . S
C1579 C1581 1.419 . S
C1580 C1578 1.415 1_554 S
C1580 C1585 1.425 1_564 S
C1580 C1587 1.409 . S
C1581 H1573 0.930 . S
C1581 C1579 1.419 . S
C1581 C1582 1.362 1_565 S
C1582 H1574 0.930 . S
C1582 C1581 1.362 1_545 S
C1582 C1585 1.409 . S
C1583 H1575 0.930 . S
C1583 C1584 1.355 . S
C1583 C1585 1.415 1_554 S
C1584 C1583 1.355 . S
C1584 C1586 1.419 . S
C1585 C1580 1.425 1_546 S
C1585 C1582 1.409 . S
C1585 C1583 1.415 1_556 S
C1586 H1576 0.930 . S
C1586 C1584 1.419 . S
C1586 C1587 1.362 1_545 S
C1587 H1577 0.930 . S
C1587 C1580 1.409 . S
C1587 C1586 1.362 1_565 S
H1588 C1594 0.930 . S
H1589 C1597 0.930 . S
H1590 C1598 0.933 . S
H1591 C1599 0.930 . S
H1592 C1602 0.930 . S
H1593 C1603 0.932 . S
C1594 H1588 0.930 . S
C1594 C1595 1.355 . S
C1594 C1596 1.415 1_455 S
C1595 C1594 1.355 . S
C1595 C1597 1.419 . S
C1596 C1594 1.415 1_655 S
C1596 C1601 1.425 1_656 S
C1596 C1603 1.410 . S
C1597 H1589 0.930 . S
C1597 C1595 1.419 . S
C1597 C1598 1.358 1_556 S
C1598 H1590 0.933 . S
C1598 C1597 1.358 1_554 S
C1598 C1601 1.410 . S
C1599 H1591 0.930 . S
C1599 C1600 1.355 . S
C1599 C1601 1.415 1_655 S
C1600 C1599 1.355 . S
C1600 C1602 1.419 . S
C1601 C1596 1.425 1_454 S
C1601 C1598 1.410 . S
C1601 C1599 1.415 1_455 S
C1602 H1592 0.930 . S
C1602 C1600 1.419 . S
C1602 C1603 1.359 1_554 S
C1603 H1593 0.932 . S
C1603 C1596 1.410 . S
C1603 C1602 1.359 1_556 S
H1604 C1610 0.930 . S
H1605 C1613 0.930 . S
H1606 C1614 0.930 . S
H1607 C1615 0.930 . S
H1608 C1618 0.930 . S
H1609 C1619 0.930 . S
C1610 H1604 0.930 . S
C1610 C1611 1.355 . S
C1610 C1612 1.415 1_554 S
C1611 C1610 1.355 . S
C1611 C1613 1.419 . S
C1612 C1610 1.415 1_556 S
C1612 C1617 1.425 1_556 S
C1612 C1619 1.409 . S
C1613 H1605 0.930 . S
C1613 C1611 1.419 . S
C1613 C1614 1.362 . S
C1614 H1606 0.930 . S
C1614 C1613 1.362 . S
C1614 C1617 1.409 . S
C1615 H1607 0.930 . S
C1615 C1616 1.355 . S
C1615 C1617 1.415 1_556 S
C1616 C1615 1.355 . S
C1616 C1618 1.419 . S
C1617 C1612 1.425 1_554 S
C1617 C1614 1.409 . S
C1617 C1615 1.415 1_554 S
C1618 H1608 0.930 . S
C1618 C1616 1.419 . S
C1618 C1619 1.362 . S
C1619 H1609 0.930 . S
C1619 C1612 1.409 . S
C1619 C1618 1.362 . S
C475 C5 1.228 . S
C480 C148 1.166 . S
C491 C18 1.145 . S
C496 C122 1.248 . S
C507 C135 1.224 . S
C512 C31 1.169 . S
C523 C44 1.225 . S
C528 C96 1.170 . S
C539 C109 1.247 . S
C544 C57 1.144 . S
C555 C70 1.163 . S
C560 C83 1.231 . S
C571 C304 1.158 . S
C576 C161 1.236 . S
C587 C174 1.196 . S
C592 C278 1.199 . S
C603 C187 1.161 . S
C608 C291 1.232 . S
C619 C252 1.180 . S
C624 C200 1.215 . S
C635 C213 1.146 . S
C640 C265 1.246 . S
C651 C239 1.196 . S
C656 C226 1.199 . S
C667 C317 1.186 . S
C672 C460 1.209 . S
C683 C434 1.246 . S
C688 C330 1.147 . S
C699 C447 1.245 . S
C704 C343 1.146 . S
C715 C408 1.247 . S
C720 C356 1.146 . S
C731 C421 1.241 . S
C736 C369 1.151 . S
C747 C395 1.243 . S
C752 C382 1.150 . S
C763 C0 1.226 . S
C768 C52 1.275 . S
C779 C65 1.215 . S
C784 C13 1.268 . S
C795 C26 1.276 . S
C800 C39 1.219 . S
C811 C78 1.275 . S
C816 C130 1.216 . S
C827 C91 1.215 . S
C832 C143 1.271 . S
C843 C104 1.237 . S
C848 C117 1.269 . S
C859 C208 1.214 . S
C864 C156 1.272 . S
C875 C221 1.216 . S
C880 C169 1.266 . S
C891 C182 1.275 . S
C896 C195 1.225 . S
C907 C286 1.215 . S
C912 C234 1.274 . S
C923 C299 1.249 . S
C928 C247 1.262 . S
C939 C260 1.276 . S
C944 C273 1.222 . S
C955 C364 1.270 . S
C960 C312 1.214 . S
C971 C325 1.233 . S
C976 C377 1.241 . S
C987 C338 1.221 . S
C992 C351 1.254 . S
C1003 C442 1.219 . S
C1008 C390 1.276 . S
C1019 C403 1.215 . S
C1024 C455 1.270 . S
C1035 C429 1.214 . S
C1040 C416 1.273 . S
C1051 C385 1.233 . S
C1056 C8 1.288 . S
C1067 C21 1.230 . S
C1072 C359 1.292 . S
C1083 C34 1.296 . S
C1088 C372 1.231 . S
C1099 C47 1.262 . S
C1104 C177 1.270 . S
C1115 C190 1.229 . S
C1120 C60 1.298 . S
C1131 C164 1.259 . S
C1136 C73 1.261 . S
C1147 C86 1.278 . S
C1152 C307 1.254 . S
C1163 C99 1.266 . S
C1168 C281 1.253 . S
C1179 C112 1.297 . S
C1184 C294 1.229 . S
C1195 C411 1.299 . S
C1200 C125 1.227 . S
C1211 C424 1.274 . S
C1216 C138 1.258 . S
C1227 C151 1.282 . S
C1232 C398 1.238 . S
C1243 C333 1.226 . S
C1248 C203 1.298 . S
C1259 C216 1.233 . S
C1264 C346 1.288 . S
C1275 C320 1.268 . S
C1280 C229 1.264 . S
C1291 C463 1.230 . S
C1296 C242 1.290 . S
C1307 C255 1.230 . S
C1312 C437 1.291 . S
C1323 C268 1.229 . S
C1328 C450 1.292 . S
C1339 C10 1.622 . S
C1344 C387 1.612 . S
C1355 C361 1.632 . S
C1360 C23 1.642 . S
C1371 C36 1.634 . S
C1376 C374 1.643 . S
C1387 C179 1.649 . S
C1392 C49 1.650 . S
C1403 C62 1.611 . S
C1408 C192 1.622 . S
C1419 C75 1.636 . S
C1424 C166 1.645 . S
C1435 C309 1.603 . S
C1440 C88 1.611 . S
C1451 C101 1.601 . S
C1456 C283 1.606 . S
C1467 C114 1.639 . S
C1472 C296 1.647 . S
C1483 C127 1.601 . S
C1488 C413 1.601 . S
C1499 C426 1.608 . S
C1504 C140 1.602 . S
C1515 C153 1.600 . S
C1520 C400 1.603 . S
C1531 C335 1.650 . S
C1536 C205 1.649 . S
C1547 C218 1.602 . S
C1552 C348 1.600 . S
C1563 C231 1.631 . S
C1568 C322 1.619 . S
C1579 C465 1.609 . S
C1584 C244 1.619 . S
C1595 C439 1.640 . S
C1600 C257 1.648 . S
C1611 C270 1.610 . S
C1616 C452 1.603 . S
