# Generated by pormake.
# Topology uny, (4)-cn, num edge types: 1
# Building blocks:
#     Node 0, Type 0, BuildingBlock: CEKHIL_clean_sbu_0, # of connection points: 4
#     Node 1, Type 0, BuildingBlock: CEKHIL_clean_sbu_0, # of connection points: 4
#     Node 2, Type 0, BuildingBlock: CEKHIL_clean_sbu_0, # of connection points: 4
#     Node 3, Type 0, BuildingBlock: CEKHIL_clean_sbu_0, # of connection points: 4
#     Node 4, Type 0, BuildingBlock: CEKHIL_clean_sbu_0, # of connection points: 4
#     Node 5, Type 0, BuildingBlock: CEKHIL_clean_sbu_0, # of connection points: 4
#     Node 6, Type 0, BuildingBlock: CEKHIL_clean_sbu_0, # of connection points: 4
#     Node 7, Type 0, BuildingBlock: CEKHIL_clean_sbu_0, # of connection points: 4
#     Node 8, Type 0, BuildingBlock: CEKHIL_clean_sbu_0, # of connection points: 4
#     Node 9, Type 0, BuildingBlock: CEKHIL_clean_sbu_0, # of connection points: 4
#     Node 10, Type 0, BuildingBlock: CEKHIL_clean_sbu_0, # of connection points: 4
#     Node 11, Type 0, BuildingBlock: CEKHIL_clean_sbu_0, # of connection points: 4
#     Node 12, Type 0, BuildingBlock: CEKHIL_clean_sbu_0, # of connection points: 4
#     Node 13, Type 0, BuildingBlock: CEKHIL_clean_sbu_0, # of connection points: 4
#     Node 14, Type 0, BuildingBlock: CEKHIL_clean_sbu_0, # of connection points: 4
#     Node 15, Type 0, BuildingBlock: CEKHIL_clean_sbu_0, # of connection points: 4
#     Node 16, Type 0, BuildingBlock: CEKHIL_clean_sbu_0, # of connection points: 4
#     Node 17, Type 0, BuildingBlock: CEKHIL_clean_sbu_0, # of connection points: 4
#     Edge 18, Type (0, 0), BuildingBlock: ZUJKAS_clean_linker_0, # of connection points: 2
#     Edge 19, Type (0, 0), BuildingBlock: ZUJKAS_clean_linker_0, # of connection points: 2
#     Edge 20, Type (0, 0), BuildingBlock: ZUJKAS_clean_linker_0, # of connection points: 2
#     Edge 21, Type (0, 0), BuildingBlock: ZUJKAS_clean_linker_0, # of connection points: 2
#     Edge 22, Type (0, 0), BuildingBlock: ZUJKAS_clean_linker_0, # of connection points: 2
#     Edge 23, Type (0, 0), BuildingBlock: ZUJKAS_clean_linker_0, # of connection points: 2
#     Edge 24, Type (0, 0), BuildingBlock: ZUJKAS_clean_linker_0, # of connection points: 2
#     Edge 25, Type (0, 0), BuildingBlock: ZUJKAS_clean_linker_0, # of connection points: 2
#     Edge 26, Type (0, 0), BuildingBlock: ZUJKAS_clean_linker_0, # of connection points: 2
#     Edge 27, Type (0, 0), BuildingBlock: ZUJKAS_clean_linker_0, # of connection points: 2
#     Edge 28, Type (0, 0), BuildingBlock: ZUJKAS_clean_linker_0, # of connection points: 2
#     Edge 29, Type (0, 0), BuildingBlock: ZUJKAS_clean_linker_0, # of connection points: 2
#     Edge 30, Type (0, 0), BuildingBlock: ZUJKAS_clean_linker_0, # of connection points: 2
#     Edge 31, Type (0, 0), BuildingBlock: ZUJKAS_clean_linker_0, # of connection points: 2
#     Edge 32, Type (0, 0), BuildingBlock: ZUJKAS_clean_linker_0, # of connection points: 2
#     Edge 33, Type (0, 0), BuildingBlock: ZUJKAS_clean_linker_0, # of connection points: 2
#     Edge 34, Type (0, 0), BuildingBlock: ZUJKAS_clean_linker_0, # of connection points: 2
#     Edge 35, Type (0, 0), BuildingBlock: ZUJKAS_clean_linker_0, # of connection points: 2
#     Edge 36, Type (0, 0), BuildingBlock: ZUJKAS_clean_linker_0, # of connection points: 2
#     Edge 37, Type (0, 0), BuildingBlock: ZUJKAS_clean_linker_0, # of connection points: 2
#     Edge 38, Type (0, 0), BuildingBlock: ZUJKAS_clean_linker_0, # of connection points: 2
#     Edge 39, Type (0, 0), BuildingBlock: ZUJKAS_clean_linker_0, # of connection points: 2
#     Edge 40, Type (0, 0), BuildingBlock: ZUJKAS_clean_linker_0, # of connection points: 2
#     Edge 41, Type (0, 0), BuildingBlock: ZUJKAS_clean_linker_0, # of connection points: 2
#     Edge 42, Type (0, 0), BuildingBlock: ZUJKAS_clean_linker_0, # of connection points: 2
#     Edge 43, Type (0, 0), BuildingBlock: ZUJKAS_clean_linker_0, # of connection points: 2
#     Edge 44, Type (0, 0), BuildingBlock: ZUJKAS_clean_linker_0, # of connection points: 2
#     Edge 45, Type (0, 0), BuildingBlock: ZUJKAS_clean_linker_0, # of connection points: 2
#     Edge 46, Type (0, 0), BuildingBlock: ZUJKAS_clean_linker_0, # of connection points: 2
#     Edge 47, Type (0, 0), BuildingBlock: ZUJKAS_clean_linker_0, # of connection points: 2
#     Edge 48, Type (0, 0), BuildingBlock: ZUJKAS_clean_linker_0, # of connection points: 2
#     Edge 49, Type (0, 0), BuildingBlock: ZUJKAS_clean_linker_0, # of connection points: 2
#     Edge 50, Type (0, 0), BuildingBlock: ZUJKAS_clean_linker_0, # of connection points: 2
#     Edge 51, Type (0, 0), BuildingBlock: ZUJKAS_clean_linker_0, # of connection points: 2
#     Edge 52, Type (0, 0), BuildingBlock: ZUJKAS_clean_linker_0, # of connection points: 2
#     Edge 53, Type (0, 0), BuildingBlock: ZUJKAS_clean_linker_0, # of connection points: 2
# Relax obj value: 0.265
# Max RMSD: 0.449
# Mean RMSD: 0.418
data_MOF--net-uny--node1-CEKHIL_clean_sbu_0--edge1-ZUJKAS_clean_linker_0
_symmetry_space_group_name_H-M    P1
_symmetry_Int_Tables_number       1
_symmetry_cell_setting            triclinic
loop_
_symmetry_equiv_pos_as_xyz
'x, y, z'
_cell_length_a     57.108467
_cell_length_b     56.028537
_cell_length_c     9.0174944
_cell_angle_alpha  97.790871
_cell_angle_beta   87.600631
_cell_angle_gamma 120.702
loop_
_atom_site_label
_atom_site_type_symbol
_atom_site_fract_x
_atom_site_fract_y
_atom_site_fract_z
_atom_type_partial_charge
Co0 Co 0.04308 0.20438 0.4219 0.0
O1 O 0.01853 0.21792 0.45791 0.0
O2 O 0.02048 0.19416 0.24367 0.0
C3 C 0.08115 0.24328 0.51594 0.0
O4 O 0.06741 0.18936 0.34031 0.0
Co5 Co 0.07085 0.19801 0.68854 0.0
O6 O 0.09703 0.20094 0.52961 0.0
C7 C 0.01399 0.15552 0.61211 0.0
C8 C 0.00973 0.20726 0.32074 0.0
C9 C 0.09048 0.19456 0.39043 0.0
O10 O 0.0157 0.16784 0.49776 0.0
O11 O 0.03359 0.16489 0.70816 0.0
O12 O 0.07197 0.24101 0.38216 0.0
O13 O 0.06497 0.22397 0.59582 0.0
Co14 Co 0.84395 0.82186 0.14658 0.0
O15 O 0.80611 0.80155 0.19612 0.0
O16 O 0.83952 0.83412 0.351 0.0
C17 C 0.84891 0.78606 0.03671 0.0
O18 O 0.886 0.84675 0.13118 0.0
Co19 Co 0.85842 0.8306 0.83185 0.0
O20 O 0.89696 0.84961 0.88861 0.0
C21 C 0.8529 0.87275 0.02361 0.0
C22 C 0.81349 0.81715 0.32536 0.0
C23 C 0.90374 0.85512 0.0262 0.0
O24 O 0.83802 0.85192 0.09245 0.0
O25 O 0.86396 0.86951 0.90274 0.0
O26 O 0.84792 0.79131 0.18044 0.0
O27 O 0.84151 0.7995 0.95822 0.0
Co28 Co 0.25662 0.03692 0.17424 0.0
O29 O 0.27053 0.01521 0.23432 0.0
O30 O 0.24123 0.023 0.36593 0.0
C31 C 0.29708 0.07275 0.12565 0.0
O32 O 0.23986 0.05999 0.11824 0.0
Co33 Co 0.26354 0.04105 0.83452 0.0
O34 O 0.2625 0.07517 0.90852 0.0
C35 C 0.21072 0.00262 0.9543 0.0
C36 C 0.25684 0.01206 0.35375 0.0
C37 C 0.2456 0.0744 0.00652 0.0
O38 O 0.22421 0.00315 0.06591 0.0
O39 O 0.22272 0.01463 0.84065 0.0
O40 O 0.28865 0.07009 0.26063 0.0
O41 O 0.28292 0.05087 0.02669 0.0
Co42 Co 0.06796 0.88718 0.81223 0.0
O43 O 0.0788 0.85879 0.75802 0.0
O44 O 0.10094 0.89382 0.92291 0.0
C45 C 0.03784 0.85099 0.62104 0.0
O46 O 0.04025 0.86602 0.96653 0.0
Co47 Co 0.03018 0.9015 0.71728 0.0
O48 O 0.00898 0.87031 0.85082 0.0
C49 C 0.0891 0.93144 0.6213 0.0
C50 C 0.10064 0.87339 0.83884 0.0
C51 C 0.01604 0.86259 0.96158 0.0
O52 O 0.09222 0.91173 0.65987 0.0
O53 O 0.06697 0.93198 0.64828 0.0
O54 O 0.05717 0.84974 0.67887 0.0
O55 O 0.03922 0.87354 0.67275 0.0
Co56 Co 0.26456 0.25307 0.81155 0.0
O57 O 0.28847 0.27653 0.67038 0.0
O58 O 0.25765 0.23172 0.61522 0.0
C59 C 0.25229 0.28327 0.91721 0.0
O60 O 0.23508 0.22266 0.92759 0.0
Co61 Co 0.2795 0.26414 0.12037 0.0
O62 O 0.24077 0.24283 0.16373 0.0
C63 C 0.29072 0.22643 0.93683 0.0
C64 C 0.27828 0.25418 0.57303 0.0
C65 C 0.22617 0.22364 0.06049 0.0
O66 O 0.29243 0.24257 0.84546 0.0
O67 O 0.28585 0.2315 0.07234 0.0
O68 O 0.24015 0.26594 0.79775 0.0
O69 O 0.27391 0.28404 0.96895 0.0
Co70 Co 0.89543 0.04335 0.87943 0.0
O71 O 0.88004 0.0681 0.9158 0.0
O72 O 0.90999 0.07201 0.74875 0.0
C73 C 0.85294 0.00198 0.84544 0.0
O74 O 0.91469 0.02132 0.83488 0.0
Co75 Co 0.8921 0.04392 0.0907 0.0
O76 O 0.91098 0.02094 0.07791 0.0
C77 C 0.93514 0.08775 0.11232 0.0
C78 C 0.89478 0.08117 0.80933 0.0
C79 C 0.91959 0.01442 0.95525 0.0
O80 O 0.93062 0.0708 0.9952 0.0
O81 O 0.91489 0.08312 0.19028 0.0
O82 O 0.86488 0.0184 0.74854 0.0
O83 O 0.86513 0.00891 0.97463 0.0
Co84 Co 0.73419 0.56883 0.74583 0.0
O85 O 0.75781 0.60849 0.75749 0.0
O86 O 0.76297 0.58033 0.88656 0.0
C87 C 0.69608 0.56967 0.76504 0.0
O88 O 0.71184 0.52664 0.76672 0.0
Co89 Co 0.69608 0.53643 0.47848 0.0
O90 O 0.67456 0.51061 0.62227 0.0
C91 C 0.74735 0.53739 0.51404 0.0
C92 C 0.77047 0.60557 0.86295 0.0
C93 C 0.68743 0.50725 0.7211 0.0
O94 O 0.75587 0.56171 0.5856 0.0
O95 O 0.72271 0.52239 0.46537 0.0
O96 O 0.71105 0.5748 0.8822 0.0
O97 O 0.70638 0.5681 0.63456 0.0
Co98 Co 0.51492 0.17894 0.81123 0.0
O99 O 0.47843 0.17202 0.77459 0.0
O100 O 0.50946 0.20525 0.93887 0.0
C101 C 0.50642 0.13489 0.82237 0.0
O102 O 0.55306 0.19382 0.88859 0.0
Co103 Co 0.54272 0.15762 0.57083 0.0
O104 O 0.57505 0.18283 0.7044 0.0
C105 C 0.5482 0.21242 0.55999 0.0
C106 C 0.48579 0.19403 0.87389 0.0
C107 C 0.57465 0.19587 0.83062 0.0
O108 O 0.53048 0.20686 0.66242 0.0
O109 O 0.55576 0.19525 0.50463 0.0
O110 O 0.50149 0.14866 0.93497 0.0
O111 O 0.51163 0.14603 0.69917 0.0
Co112 Co 0.93236 0.38082 0.06504 0.0
O113 O 0.94202 0.35363 0.11027 0.0
O114 O 0.91224 0.36219 0.23264 0.0
C115 C 0.9734 0.41753 0.03677 0.0
O116 O 0.91582 0.40621 0.06035 0.0
Co117 Co 0.93884 0.40276 0.7648 0.0
O118 O 0.92948 0.43052 0.86522 0.0
C119 C 0.89191 0.348 0.80228 0.0
C120 C 0.92394 0.34741 0.21399 0.0
C121 C 0.91742 0.42549 0.98839 0.0
O122 O 0.90373 0.35058 0.92508 0.0
O123 O 0.90191 0.36734 0.71799 0.0
O124 O 0.96434 0.41166 0.16986 0.0
O125 O 0.95889 0.39912 0.92446 0.0
Co126 Co 0.73618 0.18587 0.9815 0.0
O127 O 0.76083 0.17366 0.91533 0.0
O128 O 0.76 0.19135 0.14842 0.0
C129 C 0.69901 0.14972 0.84403 0.0
O130 O 0.71197 0.20133 0.06786 0.0
Co131 Co 0.72077 0.20413 0.70962 0.0
O132 O 0.72224 0.22961 0.89484 0.0
C133 C 0.77284 0.24003 0.85407 0.0
C134 C 0.77249 0.18338 0.04635 0.0
C135 C 0.71229 0.22228 0.02014 0.0
O136 O 0.7642 0.22547 0.96143 0.0
O137 O 0.76114 0.23092 0.72489 0.0
O138 O 0.70561 0.1463 0.9726 0.0
O139 O 0.71654 0.17314 0.8007 0.0
Co140 Co 0.9166 0.58805 0.00318 0.0
O141 O 0.952 0.60283 0.92005 0.0
O142 O 0.91939 0.55804 0.88811 0.0
C143 C 0.90908 0.62089 0.93872 0.0
O144 O 0.87661 0.56519 0.062 0.0
Co145 Co 0.90443 0.61504 0.26793 0.0
O146 O 0.8668 0.59591 0.1867 0.0
C147 C 0.91578 0.57113 0.29687 0.0
C148 C 0.94385 0.57734 0.86029 0.0
C149 C 0.85928 0.57239 0.10979 0.0
O150 O 0.92992 0.58031 0.18303 0.0
O151 O 0.90265 0.58259 0.35673 0.0
O152 O 0.90475 0.5992 0.84584 0.0
O153 O 0.92047 0.6243 0.06923 0.0
Co154 Co 0.5289 0.39516 0.86445 0.0
O155 O 0.50332 0.36459 0.72465 0.0
O156 O 0.49614 0.37022 0.9662 0.0
C157 C 0.53517 0.42948 0.7129 0.0
O158 O 0.55308 0.42479 0.02405 0.0
Co159 Co 0.5507 0.38684 0.73569 0.0
O160 O 0.58154 0.4192 0.87211 0.0
C161 C 0.54117 0.34937 0.87646 0.0
C162 C 0.48766 0.35534 0.83538 0.0
C163 C 0.57744 0.43142 0.99205 0.0
O164 O 0.54278 0.37148 0.94678 0.0
O165 O 0.53953 0.34679 0.73604 0.0
O166 O 0.51519 0.41751 0.79816 0.0
O167 O 0.55316 0.42205 0.71089 0.0
Co168 Co 0.38889 0.90296 0.1277 0.0
O169 O 0.36594 0.91558 0.22795 0.0
O170 O 0.35994 0.89622 0.99139 0.0
C171 C 0.42853 0.94178 0.22185 0.0
O172 O 0.40896 0.88806 0.98101 0.0
Co173 Co 0.42784 0.8929 0.29575 0.0
O174 O 0.44787 0.90189 0.1005 0.0
C175 C 0.36856 0.85119 0.29142 0.0
C176 C 0.35198 0.90741 0.10284 0.0
C177 C 0.4335 0.89246 0.97931 0.0
O178 O 0.36513 0.86421 0.19384 0.0
O179 O 0.39166 0.86078 0.35817 0.0
O180 O 0.41639 0.94222 0.10413 0.0
O181 O 0.41583 0.91887 0.28058 0.0
Co182 Co 0.18918 0.52187 0.37997 0.0
O183 O 0.1554 0.51045 0.47315 0.0
O184 O 0.19071 0.55394 0.50246 0.0
C185 C 0.19454 0.48636 0.41973 0.0
O186 O 0.2269 0.53707 0.29025 0.0
Co187 Co 0.17529 0.48311 0.08601 0.0
O188 O 0.21565 0.50137 0.10426 0.0
C189 C 0.16232 0.52598 0.09875 0.0
C190 C 0.16505 0.53647 0.52515 0.0
C191 C 0.23343 0.52326 0.18669 0.0
O192 O 0.17652 0.53441 0.2198 0.0
O193 O 0.15693 0.50306 0.01836 0.0
O194 O 0.20001 0.50687 0.52482 0.0
O195 O 0.18126 0.48581 0.30343 0.0
Co196 Co 0.58455 0.70441 0.97793 0.0
O197 O 0.60024 0.69072 0.10697 0.0
O198 O 0.55753 0.68038 0.10742 0.0
C199 C 0.61853 0.74839 0.00705 0.0
O200 O 0.56057 0.71603 0.87441 0.0
Co201 Co 0.60501 0.7207 0.68542 0.0
O202 O 0.58613 0.74202 0.70055 0.0
C203 C 0.56102 0.66628 0.71103 0.0
C204 C 0.57621 0.67708 0.1616 0.0
C205 C 0.5654 0.73363 0.78167 0.0
O206 O 0.57576 0.67165 0.82566 0.0
O207 O 0.57043 0.68389 0.61755 0.0
O208 O 0.59914 0.73919 0.103 0.0
O209 O 0.61821 0.73025 0.8984 0.0
Co210 Co 0.39861 0.50797 0.81313 0.0
O211 O 0.42995 0.50432 0.80185 0.0
O212 O 0.41378 0.51517 0.01254 0.0
C213 C 0.36991 0.46994 0.65681 0.0
O214 O 0.36746 0.51417 0.86688 0.0
Co215 Co 0.38235 0.52115 0.52118 0.0
O216 O 0.35631 0.52477 0.65808 0.0
C217 C 0.42028 0.56715 0.74136 0.0
C218 C 0.43301 0.51241 0.94545 0.0
C219 C 0.35441 0.52245 0.79707 0.0
O220 O 0.42174 0.54897 0.80527 0.0
O221 O 0.406 0.56103 0.62168 0.0
O222 O 0.37443 0.46794 0.79356 0.0
O223 O 0.38646 0.49386 0.61142 0.0
Co224 Co 0.57844 0.89422 0.20999 0.0
O225 O 0.61647 0.91205 0.15526 0.0
O226 O 0.58542 0.8676 0.09125 0.0
C227 C 0.56974 0.92768 0.1645 0.0
O228 O 0.5373 0.86764 0.23267 0.0
Co229 Co 0.55937 0.91491 0.48309 0.0
O230 O 0.52166 0.88535 0.42139 0.0
C231 C 0.56953 0.86947 0.48081 0.0
C232 C 0.61047 0.88749 0.08741 0.0
C233 C 0.51766 0.86637 0.31377 0.0
O234 O 0.58763 0.88352 0.3913 0.0
O235 O 0.55655 0.88029 0.55066 0.0
O236 O 0.56955 0.90953 0.05696 0.0
O237 O 0.57852 0.92756 0.29569 0.0
Co238 Co 0.18793 0.72 0.98803 0.0
O239 O 0.18281 0.74729 0.91562 0.0
O240 O 0.20197 0.72506 0.78847 0.0
C241 C 0.14634 0.69639 0.08114 0.0
O242 O 0.19528 0.68927 0.03279 0.0
Co243 Co 0.18956 0.72079 0.32631 0.0
O244 O 0.19001 0.68513 0.27868 0.0
C245 C 0.2359 0.76543 0.18799 0.0
C246 C 0.19502 0.74403 0.79715 0.0
C247 C 0.19401 0.67686 0.14649 0.0
O248 O 0.22529 0.75024 0.06339 0.0
O249 O 0.22326 0.75889 0.31035 0.0
O250 O 0.15032 0.6919 0.93982 0.0
O251 O 0.16697 0.71719 0.15903 0.0
H252 H 0.34432 0.41579 0.68769 0.0
H253 H 0.29763 0.38196 0.62996 0.0
H254 H 0.29026 0.43765 0.37457 0.0
H255 H 0.33793 0.47331 0.44316 0.0
H256 H 0.21338 0.40573 0.70454 0.0
H257 H 0.25493 0.32589 0.31276 0.0
H258 H 0.27866 0.33932 0.46765 0.0
H259 H 0.28238 0.36195 0.33089 0.0
C260 C 0.3328 0.42108 0.61992 0.0
C261 C 0.3444 0.44774 0.57721 0.0
C262 C 0.30555 0.40165 0.58858 0.0
C263 C 0.28855 0.4079 0.51457 0.0
C264 C 0.30146 0.43286 0.44701 0.0
H265 H 0.12255 0.25337 0.32952 0.0
H266 H 0.17071 0.28524 0.38067 0.0
C267 C 0.32914 0.45308 0.48211 0.0
C268 C 0.25759 0.38754 0.52384 0.0
H269 H 0.21624 0.3054 0.50003 0.0
C270 C 0.21637 0.38865 0.65418 0.0
C271 C 0.24962 0.35289 0.48557 0.0
C272 C 0.26763 0.34485 0.39349 0.0
C273 C 0.19083 0.35654 0.67546 0.0
C274 C 0.1927 0.32759 0.61626 0.0
C275 C 0.21942 0.32617 0.53327 0.0
C276 C 0.16627 0.3003 0.60909 0.0
C277 C 0.16507 0.35493 0.73289 0.0
C278 C 0.14773 0.29406 0.72659 0.0
C279 C 0.11998 0.27452 0.69884 0.0
C280 C 0.11045 0.26118 0.55327 0.0
C281 C 0.1293 0.26456 0.44139 0.0
C282 C 0.15705 0.28295 0.47121 0.0
H283 H 0.16606 0.37526 0.73383 0.0
H284 H 0.14728 0.33871 0.66124 0.0
H285 H 0.16219 0.34999 0.84952 0.0
H286 H 0.15403 0.30561 0.83746 0.0
H287 H 0.10584 0.27127 0.7885 0.0
H288 H 0.82295 0.85693 0.56498 0.0
H289 H 0.79004 0.86907 0.67514 0.0
H290 H 0.72508 0.79631 0.41675 0.0
H291 H 0.75791 0.78411 0.30296 0.0
H292 H 0.72652 0.88959 0.39557 0.0
H293 H 0.70608 0.79338 0.81155 0.0
H294 H 0.72625 0.82207 0.95298 0.0
H295 H 0.74247 0.8142 0.79351 0.0
C296 C 0.80162 0.84333 0.53216 0.0
C297 C 0.79318 0.82013 0.42094 0.0
C298 C 0.78284 0.85059 0.59336 0.0
C299 C 0.75551 0.83526 0.54109 0.0
C300 C 0.74646 0.80986 0.44732 0.0
H301 H 0.60347 0.83663 0.97301 0.0
H302 H 0.63631 0.82678 0.83985 0.0
C303 C 0.76519 0.80262 0.38504 0.0
C304 C 0.73588 0.84547 0.58902 0.0
H305 H 0.68829 0.83541 0.93082 0.0
C306 C 0.72082 0.87811 0.49262 0.0
C307 C 0.71922 0.83369 0.75091 0.0
C308 C 0.72408 0.81485 0.83106 0.0
C309 C 0.69778 0.88092 0.60709 0.0
C310 C 0.68745 0.86462 0.76348 0.0
C311 C 0.69721 0.84351 0.82764 0.0
C312 C 0.66863 0.87018 0.85786 0.0
C313 C 0.68593 0.89749 0.56313 0.0
C314 C 0.6762 0.89778 0.91633 0.0
C315 C 0.65748 0.90355 0.99303 0.0
C316 C 0.6309 0.88174 0.01225 0.0
C317 C 0.62373 0.85398 0.9583 0.0
C318 C 0.64252 0.84825 0.88269 0.0
H319 H 0.68838 0.89942 0.44182 0.0
H320 H 0.66401 0.88741 0.58927 0.0
H321 H 0.69683 0.91882 0.62679 0.0
H322 H 0.6965 0.91495 0.90045 0.0
H323 H 0.66367 0.92507 0.03476 0.0
H324 H 0.22057 0.98363 0.56719 0.0
H325 H 0.21691 0.94321 0.65851 0.0
H326 H 0.29308 0.9601 0.46979 0.0
H327 H 0.29805 0.00191 0.38294 0.0
H328 H 0.20092 0.8663 0.24354 0.0
H329 H 0.2835 0.91942 0.86647 0.0
H330 H 0.26762 0.9397 0.8414 0.0
H331 H 0.29602 0.94398 0.73137 0.0
C332 C 0.23698 0.97932 0.54877 0.0
C333 C 0.25852 0.99473 0.45825 0.0
C334 C 0.23475 0.95569 0.59938 0.0
C335 C 0.25267 0.94601 0.54877 0.0
C336 C 0.27731 0.96519 0.49164 0.0
H337 H 0.24684 0.77848 0.71652 0.0
H338 H 0.26287 0.8234 0.62092 0.0
C339 C 0.28013 0.98924 0.44422 0.0
C340 C 0.24445 0.91492 0.53099 0.0
H341 H 0.26074 0.8691 0.75576 0.0
C342 C 0.21305 0.86977 0.34382 0.0
C343 C 0.25857 0.90624 0.66558 0.0
C344 C 0.27752 0.9285 0.78426 0.0
C345 C 0.21264 0.8414 0.38907 0.0
C346 C 0.23057 0.84326 0.54053 0.0
C347 C 0.25167 0.8726 0.66425 0.0
C348 C 0.22229 0.81577 0.58548 0.0
C349 C 0.19758 0.81488 0.28231 0.0
C350 C 0.19429 0.79664 0.59555 0.0
C351 C 0.1853 0.77133 0.64818 0.0
C352 C 0.20409 0.76466 0.69344 0.0
C353 C 0.23207 0.78312 0.67875 0.0
C354 C 0.24122 0.80883 0.62639 0.0
H355 H 0.19906 0.81988 0.16608 0.0
H356 H 0.20586 0.80092 0.28835 0.0
H357 H 0.17569 0.80383 0.30914 0.0
H358 H 0.17921 0.80189 0.57079 0.0
H359 H 0.1637 0.75787 0.66392 0.0
H360 H 0.43742 0.34174 0.74454 0.0
H361 H 0.40614 0.29766 0.59012 0.0
H362 H 0.45589 0.26361 0.68513 0.0
H363 H 0.48585 0.30678 0.84714 0.0
H364 H 0.4194 0.28373 0.32345 0.0
H365 H 0.38664 0.19454 0.72231 0.0
H366 H 0.40535 0.23206 0.78082 0.0
H367 H 0.42243 0.21494 0.69192 0.0
C368 C 0.44054 0.32414 0.74005 0.0
C369 C 0.46364 0.32734 0.80945 0.0
C370 C 0.42312 0.29924 0.64907 0.0
C371 C 0.42885 0.27748 0.62506 0.0
C372 C 0.45077 0.27988 0.70364 0.0
H373 H 0.35024 0.09919 0.04484 0.0
H374 H 0.38177 0.14974 0.11521 0.0
C375 C 0.46781 0.30454 0.79718 0.0
C376 C 0.41346 0.2538 0.50737 0.0
H377 H 0.3696 0.17073 0.47378 0.0
C378 C 0.40937 0.2615 0.33686 0.0
C379 C 0.39787 0.22005 0.54498 0.0
C380 C 0.40313 0.21511 0.69458 0.0
C381 C 0.37722 0.21551 0.15838 0.0
C382 C 0.36747 0.187 0.24893 0.0
C383 C 0.37725 0.19022 0.42823 0.0
C384 C 0.34976 0.1589 0.17392 0.0
C385 C 0.36248 0.20707 0.00352 0.0
C386 C 0.32194 0.1482 0.18089 0.0
C387 C 0.30436 0.1198 0.1451 0.0
C388 C 0.31408 0.10161 0.09438 0.0
C389 C 0.34209 0.11284 0.07539 0.0
C390 C 0.36002 0.14154 0.11728 0.0
H391 H 0.36925 0.2226 0.92449 0.0
H392 H 0.36254 0.18848 0.94394 0.0
H393 H 0.34089 0.20011 0.02376 0.0
H394 H 0.3139 0.16128 0.22868 0.0
H395 H 0.28359 0.11204 0.17719 0.0
H396 H 0.79868 0.15433 0.04232 0.0
H397 H 0.83943 0.16635 0.90167 0.0
H398 H 0.85154 0.24796 0.87218 0.0
H399 H 0.81274 0.2373 0.03371 0.0
H400 H 0.83335 0.18934 0.47501 0.0
H401 H 0.93835 0.25767 0.96293 0.0
H402 H 0.91898 0.22239 0.00493 0.0
H403 H 0.90323 0.24368 0.01876 0.0
C404 C 0.8109 0.17539 0.0135 0.0
C405 C 0.80213 0.19462 0.04804 0.0
C406 C 0.83354 0.18184 0.9248 0.0
C407 C 0.8473 0.2072 0.86332 0.0
C408 C 0.84074 0.22781 0.91307 0.0
H409 H 0.01211 0.2552 0.28648 0.0
H410 H 0.97318 0.26159 0.31714 0.0
C411 C 0.81874 0.22179 0.00792 0.0
C412 C 0.8673 0.21146 0.74319 0.0
H413 H 0.95837 0.24131 0.67819 0.0
C414 C 0.8545 0.19863 0.50961 0.0
C415 C 0.90822 0.22867 0.79766 0.0
C416 C 0.91767 0.23882 0.95648 0.0
C417 C 0.88379 0.20318 0.3535 0.0
C418 C 0.92475 0.2203 0.40799 0.0
C419 C 0.93757 0.2336 0.64259 0.0
C420 C 0.94346 0.21729 0.30157 0.0
C421 C 0.874 0.19029 0.19759 0.0
C422 C 0.93923 0.19029 0.25903 0.0
C423 C 0.96164 0.18657 0.24032 0.0
C424 C 0.98802 0.20999 0.26082 0.0
C425 C 0.9918 0.2369 0.27285 0.0
C426 C 0.96949 0.24053 0.29226 0.0
H427 H 0.85342 0.17145 0.19815 0.0
H428 H 0.87245 0.20558 0.13989 0.0
H429 H 0.88834 0.18476 0.1388 0.0
H430 H 0.91916 0.17201 0.26401 0.0
H431 H 0.95836 0.16559 0.23141 0.0
H432 H 0.94102 0.67856 0.9505 0.0
H433 H 0.93124 0.70873 0.82063 0.0
H434 H 0.85592 0.63562 0.64331 0.0
H435 H 0.86416 0.60695 0.78502 0.0
H436 H 0.92647 0.71392 0.55124 0.0
H437 H 0.825 0.68202 0.72731 0.0
H438 H 0.84299 0.66857 0.81426 0.0
H439 H 0.82268 0.65007 0.64381 0.0
C440 C 0.92157 0.66957 0.89238 0.0
C441 C 0.90258 0.64075 0.8855 0.0
C442 C 0.91628 0.68661 0.81446 0.0
C443 C 0.8922 0.67488 0.72582 0.0
C444 C 0.87381 0.64588 0.71706 0.0
H445 H 0.84126 0.73406 0.87121 0.0
H446 H 0.86544 0.71347 0.96196 0.0
C447 C 0.87865 0.62928 0.79771 0.0
C448 C 0.88654 0.69164 0.63226 0.0
H449 H 0.83721 0.69462 0.47302 0.0
C450 C 0.90574 0.70932 0.53655 0.0
C451 C 0.86063 0.68707 0.61039 0.0
C452 C 0.83667 0.67106 0.70555 0.0
C453 C 0.89689 0.71861 0.408 0.0
C454 C 0.88193 0.7172 0.39738 0.0
C455 C 0.85782 0.69911 0.49228 0.0
C456 C 0.88443 0.74494 0.16963 0.0
C457 C 0.92294 0.74478 0.17249 0.0
C458 C 0.89726 0.77588 0.17302 0.0
C459 C 0.89166 0.78932 0.07305 0.0
C460 C 0.86747 0.77509 0.99071 0.0
C461 C 0.85805 0.74656 0.95175 0.0
C462 C 0.87055 0.73393 0.01809 0.0
H463 H 0.94472 0.75046 0.14568 0.0
H464 H 0.91604 0.7347 0.05324 0.0
H465 H 0.93315 0.76802 0.17814 0.0
H466 H 0.91375 0.79173 0.24766 0.0
H467 H 0.90236 0.81158 0.09054 0.0
H468 H 0.80666 0.60737 0.05289 0.0
H469 H 0.84008 0.6477 0.21655 0.0
H470 H 0.81137 0.69878 0.06973 0.0
H471 H 0.77663 0.65765 0.90787 0.0
H472 H 0.884 0.67643 0.09544 0.0
H473 H 0.8482 0.76826 0.43629 0.0
H474 H 0.82799 0.73517 0.50657 0.0
H475 H 0.82356 0.73715 0.31293 0.0
C476 C 0.80709 0.62699 0.05705 0.0
C477 C 0.78988 0.62976 0.96445 0.0
C478 C 0.82609 0.65003 0.15071 0.0
C479 C 0.82846 0.67616 0.15088 0.0
C480 C 0.80977 0.67867 0.06949 0.0
H481 H 0.99392 0.85082 0.53369 0.0
H482 H 0.95081 0.81102 0.44441 0.0
C483 C 0.79044 0.65538 0.97543 0.0
C484 C 0.85431 0.70023 0.20647 0.0
H485 H 0.90742 0.78371 0.50202 0.0
C486 C 0.8884 0.69505 0.17071 0.0
C487 C 0.86005 0.73808 0.3672 0.0
C488 C 0.83864 0.74525 0.40735 0.0
C489 C 0.92812 0.71551 0.28139 0.0
C490 C 0.93584 0.75691 0.41454 0.0
C491 C 0.90288 0.76427 0.4345 0.0
C492 C 0.96289 0.78032 0.45931 0.0
C493 C 0.94856 0.70658 0.25228 0.0
C494 C 0.98475 0.77666 0.48532 0.0
C495 C 0.0102 0.80005 0.52958 0.0
C496 C 0.01354 0.82692 0.5479 0.0
C497 C 0.99183 0.83034 0.51664 0.0
C498 C 0.96684 0.8073 0.4706 0.0
H499 H 0.93792 0.68381 0.21266 0.0
H500 H 0.96263 0.71833 0.16606 0.0
H501 H 0.96061 0.71115 0.35614 0.0
H502 H 0.98206 0.75599 0.47661 0.0
H503 H 0.02681 0.79706 0.55566 0.0
H504 H 0.32267 0.29719 0.46099 0.0
H505 H 0.36055 0.29387 0.3454 0.0
H506 H 0.31246 0.20393 0.31287 0.0
H507 H 0.27373 0.20687 0.41374 0.0
H508 H 0.3565 0.21879 0.47933 0.0
H509 H 0.38372 0.27853 0.93445 0.0
H510 H 0.38318 0.29841 0.10732 0.0
H511 H 0.35261 0.2665 0.03713 0.0
C512 C 0.31962 0.27665 0.42095 0.0
C513 C 0.29543 0.25229 0.45035 0.0
C514 C 0.34138 0.2748 0.35554 0.0
C515 C 0.33922 0.24862 0.31951 0.0
C516 C 0.31439 0.22431 0.33765 0.0
H517 H 0.43023 0.16893 0.87149 0.0
H518 H 0.40447 0.19042 0.9809 0.0
C519 C 0.2923 0.22607 0.39691 0.0
C520 C 0.36334 0.24633 0.28136 0.0
H521 H 0.41965 0.26884 0.97155 0.0
C522 C 0.37003 0.22731 0.38666 0.0
C523 C 0.38312 0.26114 0.13533 0.0
C524 C 0.37511 0.27691 0.04778 0.0
C525 C 0.41274 0.22452 0.28823 0.0
C526 C 0.42475 0.24184 0.1343 0.0
C527 C 0.41073 0.25899 0.07027 0.0
C528 C 0.43955 0.23224 0.02982 0.0
C529 C 0.42944 0.21133 0.33181 0.0
C530 C 0.46768 0.24871 0.01922 0.0
C531 C 0.48237 0.23611 0.9609 0.0
C532 C 0.46924 0.2072 0.91013 0.0
C533 C 0.44087 0.19123 0.90934 0.0
C534 C 0.42619 0.20362 0.97114 0.0
H535 H 0.43761 0.21814 0.44848 0.0
H536 H 0.4175 0.18812 0.31098 0.0
H537 H 0.44804 0.21783 0.26638 0.0
H538 H 0.47843 0.27057 0.06703 0.0
H539 H 0.50416 0.24866 0.96268 0.0
H540 H 0.89675 0.12693 0.9764 0.0
H541 H 0.90122 0.16836 0.88146 0.0
H542 H 0.89575 0.12944 0.42871 0.0
H543 H 0.89106 0.08815 0.52191 0.0
H544 H 0.91923 0.18935 0.54993 0.0
H545 H 0.83398 0.15913 0.63886 0.0
H546 H 0.85417 0.14895 0.71812 0.0
H547 H 0.84874 0.14256 0.52237 0.0
C548 C 0.89578 0.12698 0.85673 0.0
C549 C 0.894 0.10459 0.75604 0.0
C550 C 0.89816 0.1505 0.80296 0.0
C551 C 0.89774 0.15142 0.64802 0.0
C552 C 0.89523 0.12872 0.5483 0.0
H553 H 0.90595 0.29246 0.10432 0.0
H554 H 0.88763 0.25237 0.24828 0.0
C555 C 0.89309 0.10542 0.60164 0.0
C556 C 0.90691 0.17985 0.58428 0.0
H557 H 0.87378 0.24386 0.60679 0.0
C558 C 0.89618 0.19575 0.58207 0.0
C559 C 0.8865 0.19117 0.59319 0.0
C560 C 0.85302 0.15851 0.62158 0.0
C561 C 0.90552 0.24061 0.55609 0.0
C562 C 0.88542 0.25208 0.55883 0.0
C563 C 0.896 0.23626 0.56976 0.0
C564 C 0.89415 0.27699 0.46421 0.0
C565 C 0.93883 0.27239 0.51363 0.0
C566 C 0.90259 0.30401 0.53706 0.0
C567 C 0.91301 0.32689 0.45555 0.0
C568 C 0.91499 0.3233 0.29931 0.0
C569 C 0.90556 0.29607 0.22528 0.0
C570 C 0.89484 0.27311 0.30688 0.0
H571 H 0.93881 0.27524 0.39432 0.0
H572 H 0.94115 0.29147 0.58288 0.0
H573 H 0.95882 0.27427 0.53063 0.0
H574 H 0.90227 0.30747 0.65787 0.0
H575 H 0.92022 0.34764 0.51439 0.0
H576 H 0.82932 0.95422 0.98346 0.0
H577 H 0.79135 0.90795 0.88015 0.0
H578 H 0.78287 0.9435 0.5049 0.0
H579 H 0.82004 0.98922 0.60685 0.0
H580 H 0.73559 0.89061 0.83073 0.0
H581 H 0.79252 0.88215 0.27036 0.0
H582 H 0.80817 0.90676 0.43795 0.0
H583 H 0.79092 0.91361 0.3013 0.0
C584 C 0.81932 0.95203 0.87911 0.0
C585 C 0.82819 0.97499 0.80021 0.0
C586 C 0.79784 0.9257 0.82002 0.0
C587 C 0.78543 0.92235 0.68168 0.0
C588 C 0.79318 0.94554 0.60815 0.0
H589 H 0.62445 0.79811 0.12617 0.0
H590 H 0.66238 0.83414 0.29183 0.0
C591 C 0.8143 0.97165 0.66713 0.0
C592 C 0.76308 0.89522 0.61649 0.0
H593 H 0.74312 0.84988 0.21524 0.0
C594 C 0.73446 0.88032 0.71667 0.0
C595 C 0.76412 0.88224 0.4357 0.0
C596 C 0.79054 0.89699 0.35745 0.0
C597 C 0.69467 0.83662 0.55548 0.0
C598 C 0.70608 0.83233 0.37839 0.0
C599 C 0.73844 0.85395 0.33009 0.0
C600 C 0.68643 0.81408 0.25568 0.0
C601 C 0.66425 0.8145 0.57578 0.0
C602 C 0.6891 0.79305 0.1678 0.0
C603 C 0.66789 0.77304 0.06907 0.0
C604 C 0.64394 0.77402 0.05875 0.0
C605 C 0.64273 0.79695 0.13363 0.0
C606 C 0.66412 0.81716 0.22985 0.0
H607 H 0.65928 0.80539 0.68215 0.0
H608 H 0.65124 0.82351 0.56174 0.0
H609 H 0.6573 0.79598 0.48968 0.0
H610 H 0.70675 0.79109 0.1812 0.0
H611 H 0.66919 0.75547 0.01209 0.0
H612 H 0.10399 0.84498 0.57875 0.0
H613 H 0.14453 0.8558 0.4381 0.0
H614 H 0.19425 0.91376 0.81579 0.0
H615 H 0.15342 0.90574 0.95157 0.0
H616 H 0.19486 0.91763 0.35225 0.0
H617 H 0.20647 0.84663 0.7707 0.0
H618 H 0.17747 0.84676 0.71066 0.0
H619 H 0.20383 0.87642 0.82342 0.0
C620 C 0.12354 0.86038 0.63227 0.0
C621 C 0.1255 0.87483 0.77665 0.0
C622 C 0.14664 0.86689 0.54956 0.0
C623 C 0.17224 0.887 0.61156 0.0
C624 C 0.17455 0.8998 0.7604 0.0
H625 H 0.34705 0.9532 0.17801 0.0
H626 H 0.30494 0.95294 0.24139 0.0
C627 C 0.15128 0.89437 0.84099 0.0
C628 C 0.19629 0.89038 0.52986 0.0
H629 H 0.26959 0.87824 0.41824 0.0
C630 C 0.20702 0.90903 0.3809 0.0
C631 C 0.21266 0.87444 0.58652 0.0
C632 C 0.19989 0.85994 0.7284 0.0
C633 C 0.23472 0.91576 0.27154 0.0
C634 C 0.2572 0.90455 0.28575 0.0
C635 C 0.25432 0.88457 0.41831 0.0
C636 C 0.27863 0.90838 0.17727 0.0
C637 C 0.23862 0.93212 0.14542 0.0
C638 C 0.27772 0.88413 0.10286 0.0
C639 C 0.30178 0.88447 0.06073 0.0
C640 C 0.32706 0.90899 0.09532 0.0
C641 C 0.32772 0.93394 0.15237 0.0
C642 C 0.30358 0.93374 0.18971 0.0
H643 H 0.26044 0.94822 0.13902 0.0
H644 H 0.23238 0.91769 0.03872 0.0
H645 H 0.2262 0.94232 0.15902 0.0
H646 H 0.25871 0.86421 0.09237 0.0
H647 H 0.30073 0.86494 0.01699 0.0
H648 H 0.29114 0.33866 0.93264 0.0
H649 H 0.28278 0.37304 0.84595 0.0
H650 H 0.19724 0.31908 0.87514 0.0
H651 H 0.20434 0.28317 0.94672 0.0
H652 H 0.24738 0.38423 0.76115 0.0
H653 H 0.17519 0.32987 0.35243 0.0
H654 H 0.20279 0.32414 0.28399 0.0
H655 H 0.1978 0.34929 0.21945 0.0
C656 C 0.27035 0.33382 0.91853 0.0
C657 C 0.24842 0.30749 0.93897 0.0
C658 C 0.26555 0.35285 0.86011 0.0
C659 C 0.23908 0.34552 0.81508 0.0
C660 C 0.21745 0.3225 0.87344 0.0
H661 H 0.21431 0.46138 0.19748 0.0
H662 H 0.24238 0.44131 0.24081 0.0
C663 C 0.22189 0.30284 0.92695 0.0
C664 C 0.23655 0.36734 0.71803 0.0
H665 H 0.21757 0.39556 0.2981 0.0
C666 C 0.25795 0.40403 0.78347 0.0
C667 C 0.21511 0.3627 0.45001 0.0
C668 C 0.19684 0.3399 0.32184 0.0
C669 C 0.26163 0.42882 0.6809 0.0
C670 C 0.24665 0.42465 0.51068 0.0
C671 C 0.2262 0.39469 0.40023 0.0
C672 C 0.24031 0.44647 0.48321 0.0
C673 C 0.28137 0.45802 0.75039 0.0
C674 C 0.2305 0.45728 0.60321 0.0
C675 C 0.21495 0.46902 0.57843 0.0
C676 C 0.20827 0.47032 0.43277 0.0
C677 C 0.21872 0.46054 0.31124 0.0
C678 C 0.23517 0.44938 0.33656 0.0
H679 H 0.2997 0.45889 0.79435 0.0
H680 H 0.28766 0.47298 0.66761 0.0
H681 H 0.27198 0.46404 0.84722 0.0
H682 H 0.23271 0.45476 0.71746 0.0
H683 H 0.20757 0.47665 0.6753 0.0
H684 H 0.01715 0.45158 0.22187 0.0
H685 H 0.04502 0.50244 0.23611 0.0
H686 H 0.00522 0.49969 0.83401 0.0
H687 H 0.97906 0.44833 0.8102 0.0
H688 H 0.078 0.54217 0.06329 0.0
H689 H 0.98158 0.54405 0.13971 0.0
H690 H 0.98398 0.51485 0.18443 0.0
H691 H 0.98282 0.51952 0.99468 0.0
C692 C 0.01485 0.46175 0.13419 0.0
C693 C 0.99501 0.44624 0.01912 0.0
C694 C 0.03049 0.49078 0.14351 0.0
C695 C 0.02537 0.50477 0.04349 0.0
C696 C 0.00807 0.48921 0.91778 0.0
H697 H 0.09655 0.67211 0.94837 0.0
H698 H 0.05832 0.62674 0.99187 0.0
C699 C 0.99325 0.45993 0.9042 0.0
C700 C 0.03751 0.53545 0.07645 0.0
H701 H 0.0225 0.58719 0.17708 0.0
C702 C 0.06585 0.552 0.08797 0.0
C703 C 0.0215 0.54809 0.11033 0.0
C704 C 0.9908 0.53091 0.1077 0.0
C705 C 0.07882 0.58095 0.12952 0.0
C706 C 0.06306 0.5938 0.16545 0.0
C707 C 0.03455 0.57725 0.15328 0.0
C708 C 0.07651 0.62475 0.1916 0.0
C709 C 0.10946 0.59745 0.1306 0.0
C710 C 0.0974 0.6404 0.30242 0.0
C711 C 0.11946 0.66661 0.27794 0.0
C712 C 0.12021 0.6771 0.14401 0.0
C713 C 0.09669 0.66398 0.05058 0.0
C714 C 0.0747 0.63806 0.07572 0.0
H715 H 0.11747 0.58558 0.06017 0.0
H716 H 0.11743 0.61773 0.08732 0.0
H717 H 0.11721 0.60177 0.24768 0.0
H718 H 0.0987 0.63069 0.39538 0.0
H719 H 0.13718 0.67665 0.35306 0.0
H720 H 0.45508 0.50134 0.17657 0.0
H721 H 0.50417 0.52078 0.21841 0.0
H722 H 0.52047 0.57439 0.87797 0.0
H723 H 0.47298 0.55865 0.85749 0.0
H724 H 0.52766 0.50768 0.04255 0.0
H725 H 0.58899 0.62084 0.04839 0.0
H726 H 0.55271 0.605 0.05653 0.0
H727 H 0.56891 0.60946 0.87912 0.0
C728 C 0.46958 0.51844 0.11796 0.0
C729 C 0.46071 0.52789 0.00927 0.0
C730 C 0.4976 0.52941 0.14012 0.0
C731 C 0.51656 0.54869 0.04792 0.0
C732 C 0.50717 0.56013 0.95326 0.0
H733 H 0.66178 0.57569 0.58808 0.0
H734 H 0.61667 0.5684 0.6598 0.0
C735 C 0.47965 0.55048 0.93816 0.0
C736 C 0.54375 0.55146 0.02225 0.0
H737 H 0.60722 0.59382 0.89662 0.0
C738 C 0.54512 0.52691 0.01464 0.0
C739 C 0.56697 0.57615 0.98191 0.0
C740 C 0.56921 0.60429 0.99344 0.0
C741 C 0.56811 0.52599 0.96333 0.0
C742 C 0.59039 0.55025 0.91584 0.0
C743 C 0.58962 0.57495 0.92783 0.0
C744 C 0.61576 0.55165 0.86404 0.0
C745 C 0.56774 0.4988 0.96034 0.0
C746 C 0.63032 0.54566 0.95814 0.0
C747 C 0.65616 0.55112 0.92177 0.0
C748 C 0.66771 0.56176 0.78804 0.0
C749 C 0.65296 0.56692 0.69012 0.0
C750 C 0.62732 0.56262 0.7305 0.0
H751 H 0.54713 0.48071 0.92739 0.0
H752 H 0.58293 0.49747 0.88541 0.0
H753 H 0.57227 0.49656 0.07381 0.0
H754 H 0.62237 0.5379 0.06316 0.0
H755 H 0.6675 0.54792 0.00204 0.0
H756 H 0.49457 0.10735 0.06759 0.0
H757 H 0.50462 0.07142 0.11463 0.0
H758 H 0.5383 0.07326 0.67712 0.0
H759 H 0.52821 0.10927 0.62839 0.0
H760 H 0.48805 0.01512 0.91159 0.0
H761 H 0.59993 0.089 0.9865 0.0
H762 H 0.5762 0.10165 0.01042 0.0
H763 H 0.58126 0.08867 0.82948 0.0
C764 C 0.5039 0.09999 0.98044 0.0
C765 C 0.51055 0.11129 0.844 0.0
C766 C 0.50964 0.0794 0.00772 0.0
C767 C 0.5224 0.06974 0.89999 0.0
C768 C 0.5286 0.0805 0.76229 0.0
H769 H 0.54205 0.925 0.9191 0.0
H770 H 0.53088 0.95877 0.85547 0.0
C771 C 0.52269 0.10102 0.73438 0.0
C772 C 0.52961 0.04887 0.9345 0.0
H773 H 0.58299 0.04281 0.04009 0.0
C774 C 0.50878 0.02111 0.94026 0.0
C775 C 0.55674 0.05652 0.96675 0.0
C776 C 0.58002 0.08549 0.94858 0.0
C777 C 0.51426 0.00075 0.9774 0.0
C778 C 0.54128 0.00869 0.01998 0.0
C779 C 0.56215 0.03668 0.01381 0.0
C780 C 0.54871 0.98797 0.05848 0.0
C781 C 0.49102 0.97077 0.96221 0.0
C782 C 0.56373 0.9931 0.19104 0.0
C783 C 0.56999 0.97336 0.22899 0.0
C784 C 0.56228 0.94845 0.1321 0.0
C785 C 0.54811 0.94379 0.9974 0.0
C786 C 0.54152 0.96322 0.96106 0.0
H787 H 0.4711 0.96957 0.97839 0.0
H788 H 0.4903 0.96055 0.84687 0.0
H789 H 0.49338 0.95856 0.04082 0.0
H790 H 0.57057 0.01236 0.26593 0.0
H791 H 0.5813 0.97786 0.33253 0.0
H792 H 0.46888 0.93517 0.31908 0.0
H793 H 0.51548 0.96989 0.37364 0.0
H794 H 0.49674 0.03509 0.35784 0.0
H795 H 0.4511 0.9992 0.25458 0.0
H796 H 0.54299 0.05646 0.29791 0.0
H797 H 0.54922 0.00011 0.74019 0.0
H798 H 0.54221 0.98084 0.56289 0.0
H799 H 0.51688 0.98832 0.64969 0.0
C800 C 0.47467 0.95679 0.32146 0.0
C801 C 0.45629 0.96421 0.27707 0.0
C802 C 0.50153 0.97709 0.3618 0.0
C803 C 0.51001 0.00572 0.38431 0.0
C804 C 0.49122 0.01332 0.34447 0.0
H805 H 0.66771 0.16029 0.67618 0.0
H806 H 0.62121 0.12867 0.59206 0.0
C807 C 0.46491 0.99279 0.28684 0.0
C808 C 0.53829 0.0274 0.44607 0.0
H809 H 0.58689 0.04073 0.70435 0.0
C810 C 0.55263 0.05292 0.3867 0.0
C811 C 0.55164 0.02315 0.56054 0.0
C812 C 0.53892 0.99669 0.63246 0.0
C813 C 0.57962 0.07362 0.43414 0.0
C814 C 0.59283 0.06951 0.55079 0.0
C815 C 0.57802 0.0442 0.61183 0.0
C816 C 0.62137 0.09051 0.61521 0.0
C817 C 0.59333 0.09902 0.35335 0.0
C818 C 0.63738 0.08132 0.67709 0.0
C819 C 0.6622 0.10036 0.7545 0.0
C820 C 0.67316 0.12924 0.75963 0.0
C821 C 0.65887 0.13846 0.68526 0.0
C822 C 0.63255 0.11971 0.62578 0.0
H823 H 0.58361 0.09454 0.2424 0.0
H824 H 0.59056 0.11586 0.41551 0.0
H825 H 0.61528 0.10647 0.33808 0.0
H826 H 0.63068 0.0593 0.66871 0.0
H827 H 0.67317 0.09248 0.80684 0.0
H828 H 0.9852 0.61095 0.69283 0.0
H829 H 0.02145 0.60339 0.58917 0.0
H830 H 0.98154 0.52217 0.74221 0.0
H831 H 0.94467 0.52907 0.83754 0.0
H832 H 0.05482 0.60212 0.7499 0.0
H833 H 0.00747 0.50108 0.38319 0.0
H834 H 0.98841 0.51757 0.44923 0.0
H835 H 0.99317 0.49609 0.56264 0.0
C836 C 0.98391 0.59117 0.70013 0.0
C837 C 0.96252 0.57069 0.77438 0.0
C838 C 0.00459 0.58688 0.64127 0.0
C839 C 0.00451 0.56234 0.65931 0.0
C840 C 0.98209 0.54115 0.72512 0.0
H841 H 0.11728 0.50543 0.65384 0.0
H842 H 0.08013 0.51471 0.69127 0.0
C843 C 0.96101 0.54511 0.78032 0.0
C844 C 0.02946 0.5608 0.63051 0.0
H845 H 0.05226 0.51692 0.49389 0.0
C846 C 0.05432 0.58365 0.6915 0.0
C847 C 0.02883 0.53666 0.55527 0.0
C848 C 0.00305 0.51169 0.48301 0.0
C849 C 0.07835 0.58269 0.68518 0.0
C850 C 0.07763 0.55829 0.61341 0.0
C851 C 0.05289 0.5357 0.5486 0.0
C852 C 0.10183 0.55502 0.60952 0.0
C853 C 0.10385 0.60748 0.76091 0.0
C854 C 0.12706 0.57529 0.55938 0.0
C855 C 0.14905 0.57081 0.54796 0.0
C856 C 0.14543 0.54517 0.57593 0.0
C857 C 0.12049 0.52532 0.62999 0.0
C858 C 0.09915 0.53047 0.64983 0.0
H859 H 0.09897 0.61974 0.85023 0.0
H860 H 0.11679 0.60097 0.8108 0.0
H861 H 0.11579 0.62167 0.67738 0.0
H862 H 0.12952 0.59405 0.52323 0.0
H863 H 0.16803 0.58627 0.50492 0.0
H864 H 0.49609 0.43935 0.62499 0.0
H865 H 0.50244 0.48058 0.52753 0.0
H866 H 0.5897 0.51634 0.56173 0.0
H867 H 0.58287 0.47326 0.63195 0.0
H868 H 0.51534 0.5251 0.62216 0.0
H869 H 0.59903 0.55103 0.23024 0.0
H870 H 0.58344 0.51838 0.30627 0.0
H871 H 0.61039 0.55017 0.4075 0.0
C872 C 0.51662 0.45582 0.60663 0.0
C873 C 0.53901 0.45319 0.63783 0.0
C874 C 0.5204 0.47986 0.55305 0.0
C875 C 0.54677 0.50278 0.53692 0.0
C876 C 0.56904 0.49953 0.56624 0.0
H877 H 0.61167 0.67196 0.33099 0.0
H878 H 0.60201 0.63151 0.45075 0.0
C879 C 0.56515 0.47464 0.60884 0.0
C880 C 0.55043 0.53 0.49836 0.0
H881 H 0.59009 0.58653 0.31371 0.0
C882 C 0.53147 0.538 0.55149 0.0
C883 C 0.57166 0.548 0.40896 0.0
C884 C 0.59199 0.54119 0.334 0.0
C885 C 0.53258 0.56231 0.51581 0.0
C886 C 0.5546 0.58086 0.43347 0.0
C887 C 0.5737 0.57315 0.38192 0.0
C888 C 0.55864 0.6081 0.39553 0.0
C889 C 0.50969 0.56723 0.56522 0.0
C890 C 0.53741 0.61007 0.33494 0.0
C891 C 0.5428 0.63414 0.27495 0.0
C892 C 0.56974 0.65602 0.26419 0.0
C893 C 0.59072 0.65516 0.33445 0.0
C894 C 0.58515 0.63177 0.40188 0.0
H895 H 0.49714 0.55358 0.64875 0.0
H896 H 0.5175 0.58949 0.61066 0.0
H897 H 0.49546 0.56118 0.46896 0.0
H898 H 0.517 0.59232 0.31929 0.0
H899 H 0.52615 0.63413 0.22208 0.0
H900 H 0.14318 0.20794 0.49108 0.0
H901 H 0.18197 0.20195 0.34559 0.0
H902 H 0.10864 0.16593 0.85099 0.0
H903 H 0.08091 0.17715 0.06896 0.0
H904 H 0.12276 0.12402 0.88871 0.0
H905 H 0.17226 0.19894 0.63803 0.0
H906 H 0.20777 0.21051 0.65032 0.0
H907 H 0.19112 0.21993 0.80283 0.0
C908 C 0.1398 0.20086 0.37216 0.0
C909 C 0.11034 0.19283 0.28679 0.0
C910 C 0.16433 0.19755 0.27837 0.0
C911 C 0.14988 0.17904 0.99228 0.0
C912 C 0.11828 0.17449 0.96128 0.0
H913 H 0.21471 0.04689 0.73604 0.0
H914 H 0.18195 0.08517 0.54621 0.0
C915 C 0.10083 0.18137 0.10134 0.0
C916 C 0.1577 0.16394 0.86251 0.0
H917 H 0.21467 0.17185 0.68733 0.0
C918 C 0.14232 0.13473 0.84073 0.0
C919 C 0.18117 0.17657 0.77699 0.0
C920 C 0.18898 0.20316 0.71496 0.0
C921 C 0.15342 0.11878 0.77743 0.0
C922 C 0.18136 0.13258 0.74502 0.0
C923 C 0.1944 0.16135 0.73122 0.0
C924 C 0.19739 0.11929 0.76981 0.0
C925 C 0.1357 0.08755 0.76564 0.0
C926 C 0.21353 0.12833 0.94132 0.0
C927 C 0.22674 0.11155 0.02249 0.0
C928 C 0.22717 0.08224 0.95009 0.0
C929 C 0.21303 0.06513 0.77748 0.0
C930 C 0.19284 0.09022 0.65338 0.0
H931 H 0.11383 0.08078 0.75219 0.0
H932 H 0.14099 0.07718 0.66801 0.0
H933 H 0.13803 0.08076 0.87099 0.0
H934 H 0.2163 0.14713 0.00615 0.0
H935 H 0.23688 0.12148 0.13092 0.0
H936 H 0.00665 0.11499 0.7821 0.0
H937 H 0.97016 0.066 0.75008 0.0
H938 H 0.92851 0.0849 0.44163 0.0
H939 H 0.96369 0.13371 0.47989 0.0
H940 H 0.89432 0.04299 0.4832 0.0
H941 H 0.96885 0.02552 0.65385 0.0
H942 H 0.98357 0.04948 0.51628 0.0
H943 H 0.97413 0.01381 0.4687 0.0
C944 C 0.98969 0.1085 0.70642 0.0
C945 C 0.98925 0.12778 0.62331 0.0
C946 C 0.96904 0.08017 0.6845 0.0
C947 C 0.9483 0.07034 0.57345 0.0
C948 C 0.94535 0.09086 0.51573 0.0
H949 H 0.85671 0.91997 0.92716 0.0
H950 H 0.87367 0.96628 0.07631 0.0
C951 C 0.96566 0.11911 0.53826 0.0
C952 C 0.92992 0.03954 0.51455 0.0
H953 H 0.92964 0.97888 0.40893 0.0
C954 C 0.90273 0.02941 0.46522 0.0
C955 C 0.93956 0.02042 0.49172 0.0
C956 C 0.96809 0.02791 0.53429 0.0
C957 C 0.88584 0.00185 0.39211 0.0
C958 C 0.8961 0.98355 0.36584 0.0
C959 C 0.92228 0.99303 0.42218 0.0
C960 C 0.88068 0.95443 0.28136 0.0
C961 C 0.85687 0.99216 0.34812 0.0
C962 C 0.87844 0.93193 0.34573 0.0
C963 C 0.86885 0.90568 0.26101 0.0
C964 C 0.86145 0.90095 0.10807 0.0
C965 C 0.86254 0.92297 0.044 0.0
C966 C 0.87181 0.94938 0.13052 0.0
H967 H 0.85045 0.00702 0.39913 0.0
H968 H 0.85483 0.99028 0.22515 0.0
H969 H 0.84283 0.97112 0.38141 0.0
H970 H 0.88504 0.93492 0.46113 0.0
H971 H 0.86825 0.88922 0.3146 0.0
H972 H 0.94726 0.89268 0.84405 0.0
H973 H 0.00163 0.91989 0.8642 0.0
H974 H 0.97408 0.8661 0.3899 0.0
H975 H 0.92364 0.84637 0.28843 0.0
H976 H 0.03369 0.95479 0.99834 0.0
H977 H 0.06428 0.90855 0.36736 0.0
H978 H 0.09202 0.91349 0.26205 0.0
H979 H 0.06156 0.88728 0.19009 0.0
C980 C 0.95591 0.89018 0.94115 0.0
C981 C 0.93299 0.86841 0.06241 0.0
C982 C 0.991 0.90839 0.9557 0.0
C983 C 0.00893 0.90686 0.10618 0.0
C984 C 0.97233 0.87238 0.28336 0.0
H985 H 0.19071 0.0316 0.13229 0.0
H986 H 0.14332 0.01918 0.16581 0.0
C987 C 0.94007 0.85977 0.22106 0.0
C988 C 0.0418 0.92755 0.10795 0.0
H989 H 0.10977 0.9546 0.21981 0.0
C990 C 0.04907 0.95063 0.03041 0.0
C991 C 0.06611 0.92871 0.17382 0.0
C992 C 0.07056 0.90839 0.25061 0.0
C993 C 0.0758 0.96921 0.99021 0.0
C994 C 0.09786 0.96928 0.05577 0.0
C995 C 0.09209 0.95197 0.16181 0.0
C996 C 0.1266 0.98149 0.00639 0.0
C997 C 0.07923 0.98901 0.88406 0.0
C998 C 0.13355 0.96336 0.91877 0.0
C999 C 0.16064 0.97 0.90078 0.0
C1000 C 0.18179 0.99483 0.9747 0.0
C1001 C 0.17508 0.01264 0.06908 0.0
C1002 C 0.14785 0.00584 0.08661 0.0
H1003 H 0.09078 0.0107 0.94199 0.0
H1004 H 0.08949 0.98566 0.78433 0.0
H1005 H 0.05952 0.98563 0.84343 0.0
H1006 H 0.11769 0.94293 0.87367 0.0
H1007 H 0.16499 0.95528 0.83329 0.0
H1008 H 0.02522 0.87 0.31894 0.0
H1009 H 0.03015 0.91872 0.46561 0.0
H1010 H 0.96072 0.91618 0.17896 0.0
H1011 H 0.96193 0.85122 0.94209 0.0
H1012 H 0.03884 0.97438 0.29667 0.0
H1013 H 0.94589 0.93884 0.60535 0.0
H1014 H 0.96855 0.9254 0.61996 0.0
H1015 H 0.94185 0.90956 0.47626 0.0
C1016 C 0.01641 0.87975 0.2644 0.0
C1017 C -0.00122 0.86065 0.10144 0.0
C1018 C 0.01663 0.90867 0.36869 0.0
C1019 C 0.99639 0.922 0.33689 0.0
C1020 C 0.97291 0.90673 0.19506 0.0
H1021 H 0.90989 0.96013 0.91739 0.0
H1022 H 0.93496 0.94484 0.05709 0.0
C1023 C 0.97367 0.8651 0.04268 0.0
C1024 C 0.00047 0.94993 0.39656 0.0
H1025 H 0.94412 0.95246 0.34358 0.0
C1026 C 0.01871 0.97143 0.31439 0.0
C1027 C 0.97599 0.94923 0.43505 0.0
C1028 C 0.95712 0.92969 0.54109 0.0
C1029 C 0.00957 0.98502 0.23034 0.0
C1030 C 0.98172 0.97763 0.23505 0.0
C1031 C 0.96564 0.96022 0.34203 0.0
C1032 C 0.96852 0.98671 0.13002 0.0
C1033 C 0.0291 0.0048 0.1268 0.0
C1034 C 0.97928 0.01511 0.11458 0.0
C1035 C 0.96498 0.02352 0.03215 0.0
C1036 C 0.93896 0.0042 0.96808 0.0
C1037 C 0.92935 0.97566 0.97059 0.0
C1038 C 0.94377 0.96699 0.05127 0.0
H1039 H 0.04798 0.00378 0.11429 0.0
H1040 H 0.01937 0.00018 0.01435 0.0
H1041 H 0.03531 0.02662 0.17378 0.0
H1042 H 0.99794 0.03114 0.17367 0.0
H1043 H 0.97333 0.04555 0.02781 0.0
H1044 H 0.29671 0.18779 0.06976 0.0
H1045 H 0.27744 0.13816 0.97487 0.0
H1046 H 0.24617 0.15005 0.58244 0.0
H1047 H 0.2718 0.1998 0.6573 0.0
H1048 H 0.1775 0.08272 0.98291 0.0
H1049 H 0.25873 0.0872 0.40813 0.0
H1050 H 0.27688 0.11649 0.55413 0.0
H1051 H 0.25616 0.11791 0.41395 0.0
C1052 C 0.28708 0.18002 0.95988 0.0
C1053 C 0.285 0.19793 0.87385 0.0
C1054 C 0.27517 0.15135 0.90715 0.0
C1055 C 0.25718 0.13964 0.78047 0.0
C1056 C 0.25851 0.15798 0.68503 0.0
H1057 H 0.08723 0.97256 0.49575 0.0
H1058 H 0.12523 0.01913 0.46768 0.0
C1059 C 0.27292 0.18676 0.72962 0.0
C1060 C 0.23336 0.10923 0.75344 0.0
H1061 H 0.20855 0.05013 0.40368 0.0
C1062 C 0.18621 0.07893 0.87796 0.0
C1063 C 0.23351 0.09157 0.57906 0.0
C1064 C 0.25789 0.10401 0.4838 0.0
C1065 C 0.1659 0.04893 0.76441 0.0
C1066 C 0.17576 0.04028 0.59485 0.0
C1067 C 0.20613 0.05965 0.51131 0.0
C1068 C 0.15643 0.01084 0.52654 0.0
C1069 C 0.13845 0.03084 0.81527 0.0
C1070 C 0.1612 0.9894 0.55208 0.0
C1071 C 0.13926 0.96208 0.56311 0.0
C1072 C 0.11217 0.95616 0.55702 0.0
C1073 C 0.10774 0.9765 0.50849 0.0
C1074 C 0.12963 0.00324 0.4896 0.0
H1075 H 0.13432 0.00926 0.79548 0.0
H1076 H 0.13671 0.03747 0.93463 0.0
H1077 H 0.12359 0.03211 0.74673 0.0
H1078 H 0.18162 0.99445 0.58013 0.0
H1079 H 0.14354 0.94656 0.59245 0.0
H1080 H 0.19369 0.24779 0.06558 0.0
H1081 H 0.14073 0.22748 0.12549 0.0
H1082 H 0.14485 0.13078 0.19098 0.0
H1083 H 0.19687 0.16629 0.12927 0.0
H1084 H 0.08786 0.12066 0.98121 0.0
H1085 H 0.10374 0.1605 0.57118 0.0
H1086 H 0.12556 0.1491 0.47437 0.0
H1087 H 0.09536 0.12518 0.56437 0.0
C1088 C 0.18175 0.22637 0.08628 0.0
C1089 C 0.19695 0.20728 0.08495 0.0
C1090 C 0.14873 0.21345 0.12784 0.0
C1091 C 0.1265 0.16148 0.18516 0.0
C1092 C 0.15048 0.15158 0.17 0.0
H1093 H 0.95069 0.0592 0.24825 0.0
H1094 H 0.99684 0.07164 0.31177 0.0
C1095 C 0.18307 0.17379 0.12438 0.0
C1096 C 0.09801 0.13789 0.21452 0.0
H1097 H 0.0503 0.1261 0.47886 0.0
C1098 C 0.0803 0.12163 0.09113 0.0
C1099 C 0.0869 0.135 0.35866 0.0
C1100 C 0.10417 0.14312 0.49879 0.0
C1101 C 0.05245 0.11096 0.10114 0.0
C1102 C 0.04234 0.11596 0.23956 0.0
C1103 C 0.05885 0.12516 0.37004 0.0
C1104 C 0.01522 0.11264 0.24511 0.0
C1105 C 0.03506 0.09688 0.95909 0.0
C1106 C 0.01053 0.13181 0.1851 0.0
C1107 C 0.98391 0.12523 0.15419 0.0
C1108 C 0.96202 0.09924 0.18119 0.0
C1109 C 0.96713 0.08016 0.23783 0.0
C1110 C 0.99338 0.08717 0.27494 0.0
H1111 H 0.03737 0.0789 0.91084 0.0
H1112 H 0.0131 0.08908 0.97482 0.0
H1113 H 0.04267 0.1118 0.87519 0.0
H1114 H 0.02747 0.15086 0.15217 0.0
H1115 H 0.98057 0.13933 0.09941 0.0
H1116 H 0.72712 0.48548 0.58371 0.0
H1117 H 0.75144 0.46874 0.70427 0.0
H1118 H 0.82645 0.53569 0.54891 0.0
H1119 H 0.80211 0.55751 0.4877 0.0
H1120 H 0.77377 0.44789 0.70217 0.0
H1121 H 0.87443 0.54461 0.80806 0.0
H1122 H 0.85844 0.53229 0.6323 0.0
H1123 H 0.84764 0.55095 0.77396 0.0
C1124 C 0.74908 0.49723 0.5846 0.0
C1125 C 0.76273 0.52348 0.53528 0.0
C1126 C 0.76348 0.48712 0.64931 0.0
C1127 C 0.79232 0.50113 0.64908 0.0
C1128 C 0.80539 0.52543 0.57541 0.0
H1129 H 0.92351 0.47903 0.92276 0.0
H1130 H 0.88855 0.49514 0.89796 0.0
C1131 C 0.79108 0.53755 0.5306 0.0
C1132 C 0.80727 0.49058 0.73293 0.0
H1133 H 0.86239 0.51209 0.96387 0.0
C1134 C 0.79309 0.46238 0.76004 0.0
C1135 C 0.83382 0.50783 0.80053 0.0
C1136 C 0.85444 0.53554 0.75222 0.0
C1137 C 0.80328 0.45163 0.85588 0.0
C1138 C 0.82946 0.46943 0.92788 0.0
C1139 C 0.84309 0.49771 0.90524 0.0
C1140 C 0.84636 0.45938 0.99452 0.0
C1141 C 0.78475 0.42147 0.87912 0.0
C1142 C 0.83196 0.42764 0.066 0.0
C1143 C 0.86783 0.41258 0.08195 0.0
C1144 C 0.8985 0.43614 0.02502 0.0
C1145 C 0.9036 0.46586 0.96562 0.0
C1146 C 0.88052 0.47648 0.95148 0.0
H1147 H 0.77828 0.42053 0.99689 0.0
H1148 H 0.76585 0.41076 0.80746 0.0
H1149 H 0.79503 0.40942 0.85245 0.0
H1150 H 0.81072 0.41744 0.09691 0.0
H1151 H 0.86649 0.39394 0.11667 0.0
H1152 H 0.53279 0.25172 0.59104 0.0
H1153 H 0.5627 0.30229 0.59823 0.0
H1154 H 0.63124 0.29091 0.50227 0.0
H1155 H 0.60041 0.24037 0.46175 0.0
H1156 H 0.59595 0.33038 0.80436 0.0
H1157 H 0.65673 0.35505 0.29621 0.0
H1158 H 0.62995 0.32004 0.31719 0.0
H1159 H 0.66335 0.33353 0.39738 0.0
C1160 C 0.55406 0.25998 0.56555 0.0
C1161 C 0.56435 0.24198 0.53014 0.0
C1162 C 0.57129 0.28897 0.57264 0.0
C1163 C 0.59958 0.30086 0.55727 0.0
C1164 C 0.60963 0.28279 0.51377 0.0
H1165 H 0.71317 0.48358 0.842 0.0
H1166 H 0.69693 0.4331 0.81609 0.0
C1167 C 0.59191 0.25368 0.49309 0.0
C1168 C 0.61802 0.33167 0.60336 0.0
H1169 H 0.67054 0.39256 0.49768 0.0
C1170 C 0.61227 0.3436 0.7368 0.0
C1171 C 0.64012 0.34957 0.51848 0.0
C1172 C 0.64781 0.33893 0.37371 0.0
C1173 C 0.62648 0.37242 0.78324 0.0
C1174 C 0.64735 0.3902 0.69482 0.0
C1175 C 0.65459 0.37864 0.56613 0.0
C1176 C 0.65765 0.42051 0.71852 0.0
C1177 C 0.6177 0.3835 0.92258 0.0
C1178 C 0.64028 0.42966 0.68119 0.0
C1179 C 0.64927 0.45804 0.6975 0.0
C1180 C 0.67606 0.478 0.74943 0.0
C1181 C 0.69262 0.4687 0.79969 0.0
C1182 C 0.68359 0.44 0.78249 0.0
H1183 H 0.61806 0.37313 0.01816 0.0
H1184 H 0.63025 0.40637 0.95324 0.0
H1185 H 0.59667 0.37868 0.90377 0.0
H1186 H 0.61989 0.41478 0.63575 0.0
H1187 H 0.63561 0.46435 0.66128 0.0
H1188 H 0.86651 0.32009 0.05465 0.0
H1189 H 0.81779 0.307 0.1504 0.0
H1190 H 0.80012 0.3196 0.55834 0.0
H1191 H 0.853 0.33321 0.54926 0.0
H1192 H 0.76314 0.33852 0.93199 0.0
H1193 H 0.73251 0.24348 0.53533 0.0
H1194 H 0.76826 0.26802 0.57679 0.0
H1195 H 0.74852 0.27798 0.48143 0.0
C1196 C 0.85258 0.31901 0.97282 0.0
C1197 C 0.86245 0.32695 0.79508 0.0
C1198 C 0.82154 0.31136 0.03415 0.0
C1199 C 0.79085 0.31067 0.82055 0.0
C1200 C 0.80947 0.31875 0.65784 0.0
H1201 H 0.61217 0.24393 0.70603 0.0
H1202 H 0.66651 0.27344 0.71907 0.0
C1203 C 0.84269 0.32611 0.65152 0.0
C1204 C 0.76031 0.30218 0.80196 0.0
H1205 H 0.69839 0.24486 0.68977 0.0
C1206 C 0.74952 0.31668 0.89016 0.0
C1207 C 0.74082 0.27718 0.71507 0.0
C1208 C 0.74797 0.26582 0.57041 0.0
C1209 C 0.72372 0.30191 0.95417 0.0
C1210 C 0.70514 0.27318 0.89359 0.0
C1211 C 0.71327 0.26384 0.75796 0.0
C1212 C 0.67456 0.2551 0.93065 0.0
C1213 C 0.71998 0.31763 0.09457 0.0
C1214 C 0.64252 0.2182 0.09586 0.0
C1215 C 0.6098 0.20554 0.04593 0.0
C1216 C 0.60086 0.21603 0.90303 0.0
C1217 C 0.62177 0.24089 0.79474 0.0
C1218 C 0.65608 0.25936 0.80156 0.0
H1219 H 0.73363 0.34067 0.09948 0.0
H1220 H 0.69952 0.31415 0.10811 0.0
H1221 H 0.72552 0.31164 0.19384 0.0
H1222 H 0.65403 0.22823 0.06289 0.0
H1223 H 0.59411 0.18855 0.10055 0.0
H1224 H 0.67002 0.19407 0.81644 0.0
H1225 H 0.62826 0.20098 0.74837 0.0
H1226 H 0.67057 0.28398 0.27309 0.0
H1227 H 0.70717 0.26465 0.25899 0.0
H1228 H 0.59086 0.2367 0.17818 0.0
H1229 H 0.67108 0.33422 0.0394 0.0
H1230 H 0.6572 0.32134 0.85252 0.0
H1231 H 0.67246 0.30556 0.93658 0.0
C1232 C 0.66701 0.20863 0.89149 0.0
C1233 C 0.68977 0.22748 0.04345 0.0
C1234 C 0.64073 0.2137 0.84888 0.0
C1235 C 0.64032 0.25466 0.04819 0.0
C1236 C 0.66786 0.26776 0.18345 0.0
H1237 H 0.56616 0.36106 0.15143 0.0
H1238 H 0.58713 0.33646 0.23939 0.0
C1239 C 0.69072 0.2547 0.17554 0.0
C1240 C 0.6235 0.26938 0.06691 0.0
H1241 H 0.62174 0.32691 0.99246 0.0
C1242 C 0.59772 0.25604 0.13286 0.0
C1243 C 0.6324 0.29607 0.0198 0.0
C1244 C 0.65981 0.31483 0.95881 0.0
C1245 C 0.57987 0.26648 0.13445 0.0
C1246 C 0.58853 0.29194 0.08011 0.0
C1247 C 0.61484 0.30674 0.02864 0.0
C1248 C 0.56993 0.30231 0.05787 0.0
C1249 C 0.55163 0.25043 0.19187 0.0
C1250 C 0.55234 0.29055 0.93159 0.0
C1251 C 0.54057 0.30459 0.88004 0.0
C1252 C 0.54666 0.3309 0.9533 0.0
C1253 C 0.56149 0.34098 0.09096 0.0
C1254 C 0.5735 0.32699 0.14159 0.0
H1255 H 0.54699 0.23028 0.22746 0.0
H1256 H 0.54878 0.26375 0.2842 0.0
H1257 H 0.53669 0.24638 0.10467 0.0
H1258 H 0.54926 0.27137 0.86713 0.0
H1259 H 0.52827 0.29579 0.77723 0.0
H1260 H 0.77847 0.30303 0.0684 0.0
H1261 H 0.77639 0.3307 0.18256 0.0
H1262 H 0.85061 0.36155 0.8576 0.0
H1263 H 0.82269 0.27988 0.72549 0.0
H1264 H 0.81817 0.38117 0.31308 0.0
H1265 H 0.81726 0.39485 0.67961 0.0
H1266 H 0.79962 0.36132 0.74537 0.0
H1267 H 0.83338 0.3749 0.66383 0.0
C1268 C 0.77295 0.28388 0.03146 0.0
C1269 C 0.7868 0.27002 0.89846 0.0
C1270 C 0.78553 0.32074 0.09034 0.0
C1271 C 0.81285 0.3484 0.01836 0.0
C1272 C 0.83241 0.34293 0.88873 0.0
H1273 H 0.94644 0.5457 0.27187 0.0
H1274 H 0.92856 0.49503 0.2207 0.0
C1275 C 0.81502 0.29054 0.806 0.0
C1276 C 0.82024 0.37862 0.04575 0.0
H1277 H 0.86551 0.43475 0.78385 0.0
C1278 C 0.82788 0.39479 0.22791 0.0
C1279 C 0.83352 0.39388 0.88705 0.0
C1280 C 0.81992 0.37998 0.73607 0.0
C1281 C 0.85187 0.42894 0.29254 0.0
C1282 C 0.87229 0.45276 0.17027 0.0
C1283 C 0.85922 0.42717 0.89272 0.0
C1284 C 0.88617 0.48344 0.24622 0.0
C1285 C 0.85543 0.43763 0.4581 0.0
C1286 C 0.86936 0.49396 0.30308 0.0
C1287 C 0.87982 0.52279 0.33932 0.0
C1288 C 0.90741 0.54196 0.31961 0.0
C1289 C 0.92494 0.53139 0.28383 0.0
C1290 C 0.91456 0.50235 0.25154 0.0
H1291 H 0.85264 0.42 0.51433 0.0
H1292 H 0.8759 0.45613 0.48881 0.0
H1293 H 0.83966 0.44277 0.49755 0.0
H1294 H 0.84755 0.48 0.30732 0.0
H1295 H 0.86578 0.53011 0.36796 0.0
H1296 H 0.61447 0.48099 0.91526 0.0
H1297 H 0.66211 0.50494 0.98761 0.0
H1298 H 0.64388 0.45399 0.34135 0.0
H1299 H 0.5955 0.42833 0.26124 0.0
H1300 H 0.69663 0.53385 0.18427 0.0
H1301 H 0.67716 0.44036 0.30731 0.0
H1302 H 0.69179 0.43125 0.14534 0.0
H1303 H 0.66165 0.433 0.1253 0.0
C1304 C 0.62037 0.47575 0.01311 0.0
C1305 C 0.6014 0.45295 0.08282 0.0
C1306 C 0.64783 0.48926 0.05349 0.0
C1307 C 0.65709 0.4804 0.16422 0.0
C1308 C 0.63761 0.46025 0.24945 0.0
H1309 H 0.82849 0.52624 0.24935 0.0
H1310 H 0.77876 0.50078 0.2622 0.0
C1311 C 0.60985 0.44616 0.20687 0.0
C1312 C 0.68697 0.49117 0.17644 0.0
H1313 H 0.73448 0.47099 0.13806 0.0
C1314 C 0.70474 0.51991 0.17202 0.0
C1315 C 0.69821 0.47354 0.17226 0.0
C1316 C 0.68127 0.44281 0.18724 0.0
C1317 C 0.73291 0.53142 0.16027 0.0
C1318 C 0.74369 0.5133 0.13765 0.0
C1319 C 0.72624 0.48478 0.1495 0.0
C1320 C 0.77293 0.52369 0.10619 0.0
C1321 C 0.75027 0.5629 0.19589 0.0
C1322 C 0.78594 0.54205 -0.00058 0.0
C1323 C 0.81431 0.55722 0.9955 0.0
C1324 C 0.82993 0.55239 0.08955 0.0
C1325 C 0.81681 0.53073 0.17847 0.0
C1326 C 0.78839 0.51632 0.18628 0.0
H1327 H 0.74657 0.56941 0.31186 0.0
H1328 H 0.77242 0.57135 0.18842 0.0
H1329 H 0.74332 0.57308 0.12647 0.0
H1330 H 0.77417 0.5458 0.92561 0.0
H1331 H 0.82403 0.57338 0.92294 0.0
H1332 H 0.57832 0.78128 0.67006 0.0
H1333 H 0.55103 0.80215 0.65152 0.0
H1334 H 0.48236 0.73242 0.82226 0.0
H1335 H 0.51056 0.71129 0.84689 0.0
H1336 H 0.46211 0.75132 0.66134 0.0
H1337 H 0.54232 0.84749 0.97321 0.0
H1338 H 0.55651 0.83975 0.80789 0.0
H1339 H 0.54417 0.81615 0.9497 0.0
C1340 C 0.55748 0.7703 0.70604 0.0
C1341 C 0.54707 0.745 0.76594 0.0
C1342 C 0.54168 0.78251 0.69589 0.0
C1343 C 0.51482 0.77026 0.74617 0.0
C1344 C 0.50346 0.74356 0.79267 0.0
H1345 H 0.40124 0.83859 0.84014 0.0
H1346 H 0.4172 0.80607 0.78836 0.0
C1347 C 0.51957 0.73135 0.80596 0.0
C1348 C 0.4998 0.78628 0.75615 0.0
H1349 H 0.51017 0.85154 0.86516 0.0
C1350 C 0.47255 0.77341 0.70479 0.0
C1351 C 0.51284 0.81498 0.81388 0.0
C1352 C 0.5405 0.83014 0.89049 0.0
C1353 C 0.4588 0.78863 0.70197 0.0
C1354 C 0.47238 0.81806 0.75745 0.0
C1355 C 0.49938 0.83009 0.81198 0.0
C1356 C 0.4602 0.83733 0.77219 0.0
C1357 C 0.42998 0.77205 0.63902 0.0
C1358 C 0.47774 0.86694 0.78378 0.0
C1359 C 0.46867 0.88555 0.83562 0.0
C1360 C 0.44114 0.87567 0.86476 0.0
C1361 C 0.42275 0.84689 0.82427 0.0
C1362 C 0.43215 0.82789 0.78926 0.0
H1363 H 0.41583 0.76382 0.73179 0.0
H1364 H 0.42459 0.78472 0.58105 0.0
H1365 H 0.42664 0.75373 0.55766 0.0
H1366 H 0.49911 0.87623 0.7594 0.0
H1367 H 0.48354 0.90765 0.86134 0.0
H1368 H 0.13814 0.55214 0.26602 0.0
H1369 H 0.15704 0.60095 0.26781 0.0
H1370 H 0.17573 0.59338 0.81723 0.0
H1371 H 0.16301 0.54484 0.82712 0.0
H1372 H 0.24803 0.65421 0.38401 0.0
H1373 H 0.29709 0.6761 0.90709 0.0
H1374 H 0.26664 0.66035 0.79762 0.0
H1375 H 0.27287 0.64085 0.92144 0.0
C1376 C 0.1495 0.5618 0.17149 0.0
C1377 C 0.15469 0.54603 0.05731 0.0
C1378 C 0.16185 0.59085 0.17063 0.0
C1379 C 0.18409 0.60603 0.06667 0.0
C1380 C 0.1716 0.58636 0.92638 0.0
H1381 H 0.37405 0.80701 0.41555 0.0
H1382 H 0.34315 0.751 0.3829 0.0
C1383 C 0.16212 0.55745 0.92493 0.0
C1384 C 0.2396 0.65241 0.13397 0.0
H1385 H 0.28416 0.71263 0.98576 0.0
C1386 C 0.2546 0.6648 0.28557 0.0
C1387 C 0.26102 0.6706 0.03275 0.0
C1388 C 0.27483 0.66115 0.90887 0.0
C1389 C 0.27694 0.69223 0.32632 0.0
C1390 C 0.28669 0.71046 0.21991 0.0
C1391 C 0.27645 0.69939 0.07373 0.0
C1392 C 0.3025 0.74131 0.25566 0.0
C1393 C 0.28787 0.70239 0.48636 0.0
C1394 C 0.2869 0.75556 0.18259 0.0
C1395 C 0.31599 0.80954 0.21234 0.0
C1396 C 0.34662 0.82148 0.30186 0.0
C1397 C 0.3541 0.79816 0.36337 0.0
C1398 C 0.33415 0.76184 0.34152 0.0
H1399 H 0.27735 0.68596 0.56112 0.0
H1400 H 0.30989 0.70947 0.48955 0.0
H1401 H 0.28571 0.72061 0.53151 0.0
H1402 H 0.26683 0.74076 0.12909 0.0
H1403 H 0.31227 0.82519 0.1756 0.0
H1404 H 0.53458 0.62871 0.90167 0.0
H1405 H 0.49516 0.61741 0.00837 0.0
H1406 H 0.47844 0.65523 0.65451 0.0
H1407 H 0.5207 0.66846 0.57578 0.0
H1408 H 0.42457 0.6083 0.22928 0.0
H1409 H 0.38539 0.65426 0.89528 0.0
H1410 H 0.40925 0.65277 0.77257 0.0
H1411 H 0.41887 0.6731 0.95915 0.0
C1412 C 0.52168 0.63443 0.84946 0.0
C1413 C 0.53136 0.6504 0.73366 0.0
C1414 C 0.49687 0.62801 0.91306 0.0
C1415 C 0.47636 0.63512 0.86598 0.0
C1416 C 0.48822 0.64853 0.72569 0.0
H1417 H 0.28248 0.56532 0.36881 0.0
H1418 H 0.33621 0.59097 0.31682 0.0
C1419 C 0.51389 0.65624 0.66812 0.0
C1420 C 0.42511 0.62367 0.00499 0.0
H1421 H 0.35941 0.61402 0.95306 0.0
C1422 C 0.41266 0.60828 0.13911 0.0
C1423 C 0.40231 0.62835 0.95976 0.0
C1424 C 0.40435 0.65325 0.89289 0.0
C1425 C 0.38512 0.58714 0.14824 0.0
C1426 C 0.36562 0.58617 0.05668 0.0
C1427 C 0.37458 0.60954 0.98472 0.0
C1428 C 0.33494 0.5663 0.06963 0.0
C1429 C 0.37761 0.56617 0.25742 0.0
C1430 C 0.29397 0.52575 0.89674 0.0
C1431 C 0.2641 0.51633 0.9787 0.0
C1432 C 0.26196 0.53199 0.14964 0.0
C1433 C 0.28819 0.55796 0.26435 0.0
C1434 C 0.32224 0.57453 0.23272 0.0
H1435 H 0.39256 0.57474 0.35298 0.0
H1436 H 0.35717 0.55909 0.30354 0.0
H1437 H 0.3776 0.54749 0.1978 0.0
H1438 H 0.29287 0.51535 0.78337 0.0
H1439 H 0.24594 0.50048 0.91465 0.0
H1440 H 0.20828 0.65485 0.85172 0.0
H1441 H 0.22796 0.61717 0.80571 0.0
H1442 H 0.21641 0.60418 0.34586 0.0
H1443 H 0.19722 0.64404 0.39224 0.0
H1444 H 0.2681 0.62411 0.23094 0.0
H1445 H 0.22391 0.55345 0.70449 0.0
H1446 H 0.20815 0.57169 0.79 0.0
H1447 H 0.20058 0.53908 0.84998 0.0
C1448 C 0.20909 0.64494 0.94478 0.0
C1449 C 0.19972 0.65361 0.12509 0.0
C1450 C 0.22166 0.6213 0.91632 0.0
C1451 C 0.22412 0.60532 0.06872 0.0
C1452 C 0.21396 0.61297 0.25199 0.0
H1453 H 0.32666 0.50301 0.07388 0.0
H1454 H 0.29165 0.51607 0.2265 0.0
C1455 C 0.20205 0.63809 0.28107 0.0
C1456 C 0.24156 0.59328 0.05182 0.0
H1457 H 0.25694 0.54993 0.82509 0.0
C1458 C 0.26498 0.60711 0.14547 0.0
C1459 C 0.23944 0.57361 0.92859 0.0
C1460 C 0.21668 0.55895 0.81274 0.0
C1461 C 0.286 0.60151 0.12017 0.0
C1462 C 0.28113 0.57815 0.01607 0.0
C1463 C 0.2591 0.56602 0.91479 0.0
C1464 C 0.29814 0.56479 0.00396 0.0
C1465 C 0.31332 0.62208 0.19583 0.0
C1466 C 0.31777 0.57265 0.85093 0.0
C1467 C 0.33648 0.55768 0.79871 0.0
C1468 C 0.33902 0.53333 0.88157 0.0
C1469 C 0.32353 0.51878 0.03686 0.0
C1470 C 0.30177 0.52722 0.13118 0.0
H1471 H 0.31753 0.64382 0.19862 0.0
H1472 H 0.31305 0.61855 0.31416 0.0
H1473 H 0.33011 0.62078 0.13663 0.0
H1474 H 0.31792 0.58725 0.78307 0.0
H1475 H 0.34793 0.56436 0.69884 0.0
H1476 H 0.42715 0.62206 0.64577 0.0
H1477 H 0.4569 0.67716 0.81845 0.0
H1478 H 0.47281 0.63512 0.22661 0.0
H1479 H 0.44634 0.58173 0.04859 0.0
H1480 H 0.45829 0.70485 0.02696 0.0
H1481 H 0.53562 0.69817 0.34388 0.0
H1482 H 0.51474 0.6709 0.19762 0.0
H1483 H 0.50078 0.67376 0.37784 0.0
C1484 C 0.43566 0.62458 0.75569 0.0
C1485 C 0.43358 0.59538 0.82513 0.0
C1486 C 0.4536 0.65912 0.86745 0.0
C1487 C 0.46827 0.66357 0.04731 0.0
C1488 C 0.46558 0.63394 0.11591 0.0
H1489 H 0.51622 0.83102 0.51904 0.0
H1490 H 0.49167 0.78152 0.42445 0.0
C1491 C 0.44806 0.59956 0.00422 0.0
C1492 C 0.48292 0.69284 0.1344 0.0
H1493 H 0.53575 0.73989 0.38124 0.0
C1494 C 0.47495 0.71167 0.10355 0.0
C1495 C 0.5051 0.70345 0.23979 0.0
C1496 C 0.51476 0.6856 0.29183 0.0
C1497 C 0.48842 0.73991 0.16584 0.0
C1498 C 0.51103 0.75049 0.26505 0.0
C1499 C 0.51882 0.73197 0.3019 0.0
C1500 C 0.52672 0.78062 0.33127 0.0
C1501 C 0.47863 0.75832 0.11982 0.0
C1502 C 0.55508 0.79683 0.31621 0.0
C1503 C 0.56942 0.82546 0.37259 0.0
C1504 C 0.55576 0.8384 0.44724 0.0
C1505 C 0.52759 0.82183 0.46556 0.0
C1506 C 0.51333 0.79344 0.40844 0.0
H1507 H 0.46665 0.7618 0.21087 0.0
H1508 H 0.49622 0.77874 0.0977 0.0
H1509 H 0.4649 0.74867 0.01876 0.0
H1510 H 0.56601 0.78756 0.25689 0.0
H1511 H 0.59105 0.83766 0.35385 0.0
H1512 H 0.26944 0.78075 0.92433 0.0
H1513 H 0.31602 0.78012 0.86901 0.0
H1514 H 0.31299 0.78364 0.5011 0.0
H1515 H 0.26697 0.78366 0.4628 0.0
H1516 H 0.37504 0.82424 0.04993 0.0
H1517 H 0.35185 0.72031 0.92994 0.0
H1518 H 0.32615 0.72952 0.92745 0.0
H1519 H 0.33186 0.71641 0.09077 0.0
C1520 C 0.28096 0.78277 0.02164 0.0
C1521 C 0.2662 0.78335 0.19379 0.0
C1522 C 0.30986 0.78098 0.98376 0.0
C1523 C 0.32921 0.78035 0.12464 0.0
C1524 C 0.30723 0.78327 0.38604 0.0
H1525 H 0.47391 0.85219 0.4908 0.0
H1526 H 0.42694 0.81565 0.4337 0.0
C1527 C 0.27875 0.78491 0.36496 0.0
C1528 C 0.35586 0.7811 0.07259 0.0
H1529 H 0.39149 0.74782 0.11379 0.0
C1530 C 0.37837 0.80762 0.06999 0.0
C1531 C 0.36134 0.7588 0.0665 0.0
C1532 C 0.3413 0.72961 0.00025 0.0
C1533 C 0.40379 0.81395 0.12487 0.0
C1534 C 0.40828 0.79242 0.15072 0.0
C1535 C 0.38754 0.7647 0.10948 0.0
C1536 C 0.43496 0.8001 0.21709 0.0
C1537 C 0.4249 0.84392 0.16877 0.0
C1538 C 0.45556 0.80153 0.12242 0.0
C1539 C 0.48291 0.82145 0.1614 0.0
C1540 C 0.48979 0.84137 0.28855 0.0
C1541 C 0.46943 0.83743 0.39126 0.0
C1542 C 0.4425 0.81602 0.35931 0.0
H1543 H 0.41661 0.85636 0.14101 0.0
H1544 H 0.42863 0.84907 0.29129 0.0
H1545 H 0.44446 0.84942 0.11379 0.0
H1546 H 0.45037 0.78881 0.01419 0.0
H1547 H 0.49862 0.82239 0.08931 0.0
loop_
_geom_bond_atom_site_label_1
_geom_bond_atom_site_label_2
_geom_bond_distance
_geom_bond_site_symmetry_2
_ccdc_geom_bond_type
Co0 O1 2.216 . S
Co0 O2 2.091 1_554 S
Co0 O4 2.004 1_554 S
Co0 O10 2.021 . S
Co0 O12 2.137 . S
Co0 O13 2.244 . S
O1 Co0 2.216 . S
O1 C8 1.247 . S
O2 Co0 2.091 1_556 S
O2 C8 1.261 1_556 S
C3 O12 1.247 . S
C3 O13 1.272 . S
O4 Co0 2.004 1_556 S
O4 C9 1.259 . S
Co5 O6 2.061 . S
Co5 O11 2.052 . S
Co5 O13 2.135 . S
O6 Co5 2.061 . S
O6 C9 1.235 1_554 S
C7 O10 1.238 . S
C7 O11 1.241 . S
C8 O1 1.247 . S
C8 O2 1.261 1_554 S
C9 O4 1.259 . S
C9 O6 1.235 1_556 S
O10 Co0 2.021 . S
O10 C7 1.238 . S
O11 Co5 2.052 . S
O11 C7 1.241 . S
O12 Co0 2.137 . S
O12 C3 1.247 . S
O13 Co0 2.244 . S
O13 C3 1.272 . S
O13 Co5 2.135 . S
Co14 O15 2.216 . S
Co14 O16 2.091 . S
Co14 O18 2.004 . S
Co14 O24 2.021 . S
Co14 O26 2.137 . S
Co14 O27 2.244 1_554 S
O15 Co14 2.216 . S
O15 C22 1.247 . S
O16 Co14 2.091 . S
O16 C22 1.261 . S
C17 O26 1.247 . S
C17 O27 1.272 1_554 S
O18 Co14 2.004 . S
O18 C23 1.259 . S
Co19 O20 2.061 1_556 S
Co19 O25 2.052 . S
Co19 O27 2.135 . S
O20 Co19 2.061 1_554 S
O20 C23 1.235 . S
C21 O24 1.238 1_556 S
C21 O25 1.241 . S
C22 O15 1.247 . S
C22 O16 1.261 . S
C23 O18 1.259 . S
C23 O20 1.235 . S
O24 Co14 2.021 . S
O24 C21 1.238 1_554 S
O25 Co19 2.052 . S
O25 C21 1.241 . S
O26 Co14 2.137 . S
O26 C17 1.247 . S
O27 Co14 2.244 1_556 S
O27 C17 1.272 1_556 S
O27 Co19 2.135 . S
Co28 O29 2.216 1_545 S
Co28 O30 2.091 . S
Co28 O32 2.004 . S
Co28 O38 2.021 1_544 S
Co28 O40 2.137 . S
Co28 O41 2.244 1_554 S
O29 Co28 2.216 1_565 S
O29 C36 1.247 . S
O30 Co28 2.091 . S
O30 C36 1.261 1_545 S
C31 O40 1.247 . S
C31 O41 1.272 1_554 S
O32 Co28 2.004 . S
O32 C37 1.259 . S
Co33 O34 2.061 . S
Co33 O39 2.052 . S
Co33 O41 2.135 . S
O34 Co33 2.061 . S
O34 C37 1.235 1_556 S
C35 O38 1.238 . S
C35 O39 1.241 1_565 S
C36 O29 1.247 . S
C36 O30 1.261 1_565 S
C37 O32 1.259 . S
C37 O34 1.235 1_554 S
O38 Co28 2.021 1_566 S
O38 C35 1.238 . S
O39 Co33 2.052 . S
O39 C35 1.241 1_545 S
O40 Co28 2.137 . S
O40 C31 1.247 . S
O41 Co28 2.244 1_556 S
O41 C31 1.272 1_556 S
O41 Co33 2.135 . S
Co42 O43 2.216 . S
Co42 O44 2.091 1_556 S
Co42 O46 2.004 1_556 S
Co42 O52 2.021 . S
Co42 O54 2.137 . S
Co42 O55 2.244 . S
O43 Co42 2.216 . S
O43 C50 1.247 . S
O44 Co42 2.091 1_554 S
O44 C50 1.261 1_554 S
C45 O54 1.247 . S
C45 O55 1.272 . S
O46 Co42 2.004 1_554 S
O46 C51 1.259 . S
Co47 O48 2.061 1_556 S
Co47 O53 2.052 . S
Co47 O55 2.135 . S
O48 Co47 2.061 1_554 S
O48 C51 1.235 . S
C49 O52 1.238 . S
C49 O53 1.241 . S
C50 O43 1.247 . S
C50 O44 1.261 1_556 S
C51 O46 1.259 . S
C51 O48 1.235 . S
O52 Co42 2.021 . S
O52 C49 1.238 . S
O53 Co47 2.052 . S
O53 C49 1.241 . S
O54 Co42 2.137 . S
O54 C45 1.247 . S
O55 Co42 2.244 . S
O55 C45 1.272 . S
O55 Co47 2.135 . S
Co56 O57 2.216 . S
Co56 O58 2.091 . S
Co56 O60 2.004 . S
Co56 O66 2.021 . S
Co56 O68 2.137 . S
Co56 O69 2.244 1_556 S
O57 Co56 2.216 . S
O57 C64 1.247 . S
O58 Co56 2.091 . S
O58 C64 1.261 . S
C59 O68 1.247 . S
C59 O69 1.272 1_556 S
O60 Co56 2.004 . S
O60 C65 1.259 . S
Co61 O62 2.061 . S
Co61 O67 2.052 . S
Co61 O69 2.135 . S
O62 Co61 2.061 . S
O62 C65 1.235 1_554 S
C63 O66 1.238 1_554 S
C63 O67 1.241 . S
C64 O57 1.247 . S
C64 O58 1.261 . S
C65 O60 1.259 . S
C65 O62 1.235 1_556 S
O66 Co56 2.021 . S
O66 C63 1.238 1_556 S
O67 Co61 2.052 . S
O67 C63 1.241 . S
O68 Co56 2.137 . S
O68 C59 1.247 . S
O69 Co56 2.244 1_554 S
O69 C59 1.272 1_554 S
O69 Co61 2.135 . S
Co70 O71 2.216 . S
Co70 O72 2.091 . S
Co70 O74 2.004 . S
Co70 O80 2.021 1_556 S
Co70 O82 2.137 . S
Co70 O83 2.244 1_556 S
O71 Co70 2.216 . S
O71 C78 1.247 . S
O72 Co70 2.091 . S
O72 C78 1.261 . S
C73 O82 1.247 . S
C73 O83 1.272 1_556 S
O74 Co70 2.004 . S
O74 C79 1.259 . S
Co75 O76 2.061 . S
Co75 O81 2.052 . S
Co75 O83 2.135 . S
O76 Co75 2.061 . S
O76 C79 1.235 1_554 S
C77 O80 1.238 . S
C77 O81 1.241 . S
C78 O71 1.247 . S
C78 O72 1.261 . S
C79 O74 1.259 . S
C79 O76 1.235 1_556 S
O80 Co70 2.021 1_554 S
O80 C77 1.238 . S
O81 Co75 2.052 . S
O81 C77 1.241 . S
O82 Co70 2.137 . S
O82 C73 1.247 . S
O83 Co70 2.244 1_554 S
O83 C73 1.272 1_554 S
O83 Co75 2.135 . S
Co84 O85 2.216 . S
Co84 O86 2.091 . S
Co84 O88 2.004 . S
Co84 O94 2.021 1_554 S
Co84 O96 2.137 . S
Co84 O97 2.244 1_554 S
O85 Co84 2.216 . S
O85 C92 1.247 . S
O86 Co84 2.091 . S
O86 C92 1.261 . S
C87 O96 1.247 1_556 S
C87 O97 1.272 . S
O88 Co84 2.004 . S
O88 C93 1.259 . S
Co89 O90 2.061 . S
Co89 O95 2.052 . S
Co89 O97 2.135 . S
O90 Co89 2.061 . S
O90 C93 1.235 1_556 S
C91 O94 1.238 . S
C91 O95 1.241 . S
C92 O85 1.247 . S
C92 O86 1.261 . S
C93 O88 1.259 . S
C93 O90 1.235 1_554 S
O94 Co84 2.021 1_556 S
O94 C91 1.238 . S
O95 Co89 2.052 . S
O95 C91 1.241 . S
O96 Co84 2.137 . S
O96 C87 1.247 1_554 S
O97 Co84 2.244 1_556 S
O97 C87 1.272 . S
O97 Co89 2.135 . S
Co98 O99 2.216 . S
Co98 O100 2.091 . S
Co98 O102 2.004 . S
Co98 O108 2.021 1_554 S
Co98 O110 2.137 . S
Co98 O111 2.244 1_554 S
O99 Co98 2.216 . S
O99 C106 1.247 . S
O100 Co98 2.091 . S
O100 C106 1.261 . S
C101 O110 1.247 1_556 S
C101 O111 1.272 . S
O102 Co98 2.004 . S
O102 C107 1.259 . S
Co103 O104 2.061 . S
Co103 O109 2.052 . S
Co103 O111 2.135 . S
O104 Co103 2.061 . S
O104 C107 1.235 1_556 S
C105 O108 1.238 . S
C105 O109 1.241 . S
C106 O99 1.247 . S
C106 O100 1.261 . S
C107 O102 1.259 . S
C107 O104 1.235 1_554 S
O108 Co98 2.021 1_556 S
O108 C105 1.238 . S
O109 Co103 2.052 . S
O109 C105 1.241 . S
O110 Co98 2.137 . S
O110 C101 1.247 1_554 S
O111 Co98 2.244 1_556 S
O111 C101 1.272 . S
O111 Co103 2.135 . S
Co112 O113 2.216 . S
Co112 O114 2.091 . S
Co112 O116 2.004 . S
Co112 O122 2.021 1_554 S
Co112 O124 2.137 . S
Co112 O125 2.244 1_554 S
O113 Co112 2.216 . S
O113 C120 1.247 . S
O114 Co112 2.091 . S
O114 C120 1.261 . S
C115 O124 1.247 1_556 S
C115 O125 1.272 . S
O116 Co112 2.004 . S
O116 C121 1.259 . S
Co117 O118 2.061 . S
Co117 O123 2.052 . S
Co117 O125 2.135 . S
O118 Co117 2.061 . S
O118 C121 1.235 1_556 S
C119 O122 1.238 . S
C119 O123 1.241 . S
C120 O113 1.247 . S
C120 O114 1.261 . S
C121 O116 1.259 . S
C121 O118 1.235 1_554 S
O122 Co112 2.021 1_556 S
O122 C119 1.238 . S
O123 Co117 2.052 . S
O123 C119 1.241 . S
O124 Co112 2.137 . S
O124 C115 1.247 1_554 S
O125 Co112 2.244 1_556 S
O125 C115 1.272 . S
O125 Co117 2.135 . S
Co126 O127 2.216 1_554 S
Co126 O128 2.091 . S
Co126 O130 2.004 . S
Co126 O136 2.021 . S
Co126 O138 2.137 1_554 S
Co126 O139 2.244 1_554 S
O127 Co126 2.216 1_556 S
O127 C134 1.247 1_556 S
O128 Co126 2.091 . S
O128 C134 1.261 . S
C129 O138 1.247 . S
C129 O139 1.272 . S
O130 Co126 2.004 . S
O130 C135 1.259 . S
Co131 O132 2.061 1_556 S
Co131 O137 2.052 . S
Co131 O139 2.135 . S
O132 Co131 2.061 1_554 S
O132 C135 1.235 . S
C133 O136 1.238 1_556 S
C133 O137 1.241 . S
C134 O127 1.247 1_554 S
C134 O128 1.261 . S
C135 O130 1.259 . S
C135 O132 1.235 . S
O136 Co126 2.021 . S
O136 C133 1.238 1_554 S
O137 Co131 2.052 . S
O137 C133 1.241 . S
O138 Co126 2.137 1_556 S
O138 C129 1.247 . S
O139 Co126 2.244 1_556 S
O139 C129 1.272 . S
O139 Co131 2.135 . S
Co140 O141 2.216 . S
Co140 O142 2.091 . S
Co140 O144 2.004 . S
Co140 O150 2.021 1_556 S
Co140 O152 2.137 . S
Co140 O153 2.244 1_556 S
O141 Co140 2.216 . S
O141 C148 1.247 . S
O142 Co140 2.091 . S
O142 C148 1.261 . S
C143 O152 1.247 1_554 S
C143 O153 1.272 . S
O144 Co140 2.004 . S
O144 C149 1.259 . S
Co145 O146 2.061 . S
Co145 O151 2.052 . S
Co145 O153 2.135 . S
O146 Co145 2.061 . S
O146 C149 1.235 1_554 S
C147 O150 1.238 . S
C147 O151 1.241 . S
C148 O141 1.247 . S
C148 O142 1.261 . S
C149 O144 1.259 . S
C149 O146 1.235 1_556 S
O150 Co140 2.021 1_554 S
O150 C147 1.238 . S
O151 Co145 2.052 . S
O151 C147 1.241 . S
O152 Co140 2.137 . S
O152 C143 1.247 1_556 S
O153 Co140 2.244 1_554 S
O153 C143 1.272 . S
O153 Co145 2.135 . S
Co154 O155 2.216 1_554 S
Co154 O156 2.091 . S
Co154 O158 2.004 . S
Co154 O164 2.021 . S
Co154 O166 2.137 1_554 S
Co154 O167 2.244 1_554 S
O155 Co154 2.216 1_556 S
O155 C162 1.247 1_556 S
O156 Co154 2.091 . S
O156 C162 1.261 . S
C157 O166 1.247 . S
C157 O167 1.272 . S
O158 Co154 2.004 . S
O158 C163 1.259 . S
Co159 O160 2.061 1_556 S
Co159 O165 2.052 . S
Co159 O167 2.135 . S
O160 Co159 2.061 1_554 S
O160 C163 1.235 . S
C161 O164 1.238 1_556 S
C161 O165 1.241 . S
C162 O155 1.247 1_554 S
C162 O156 1.261 . S
C163 O158 1.259 . S
C163 O160 1.235 . S
O164 Co154 2.021 . S
O164 C161 1.238 1_554 S
O165 Co159 2.052 . S
O165 C161 1.241 . S
O166 Co154 2.137 1_556 S
O166 C157 1.247 . S
O167 Co154 2.244 1_556 S
O167 C157 1.272 . S
O167 Co159 2.135 . S
Co168 O169 2.218 . S
Co168 O170 2.088 1_554 S
Co168 O172 2.001 1_554 S
Co168 O178 2.022 . S
Co168 O180 2.138 . S
Co168 O181 2.248 . S
O169 Co168 2.218 . S
O169 C176 1.247 1_554 S
O170 Co168 2.088 1_556 S
O170 C176 1.261 . S
C171 O180 1.247 . S
C171 O181 1.272 . S
O172 Co168 2.001 1_556 S
O172 C177 1.259 . S
Co173 O174 2.061 1_554 S
Co173 O179 2.052 . S
Co173 O181 2.135 . S
O174 Co173 2.061 1_556 S
O174 C177 1.235 . S
C175 O178 1.238 . S
C175 O179 1.241 . S
C176 O169 1.247 1_556 S
C176 O170 1.261 . S
C177 O172 1.259 . S
C177 O174 1.235 . S
O178 Co168 2.022 . S
O178 C175 1.238 . S
O179 Co173 2.052 . S
O179 C175 1.241 . S
O180 Co168 2.138 . S
O180 C171 1.247 . S
O181 Co168 2.248 . S
O181 C171 1.272 . S
O181 Co173 2.135 . S
Co182 O183 2.216 . S
Co182 O184 2.091 . S
Co182 O186 2.004 . S
Co182 O192 2.021 1_554 S
Co182 O194 2.137 . S
Co182 O195 2.244 1_554 S
O183 Co182 2.216 . S
O183 C190 1.247 . S
O184 Co182 2.091 . S
O184 C190 1.261 . S
C185 O194 1.247 . S
C185 O195 1.272 1_554 S
O186 Co182 2.004 . S
O186 C191 1.259 . S
Co187 O188 2.061 . S
Co187 O193 2.052 . S
Co187 O195 2.135 . S
O188 Co187 2.061 . S
O188 C191 1.235 1_556 S
C189 O192 1.238 . S
C189 O193 1.241 . S
C190 O183 1.247 . S
C190 O184 1.261 . S
C191 O186 1.259 . S
C191 O188 1.235 1_554 S
O192 Co182 2.021 1_556 S
O192 C189 1.238 . S
O193 Co187 2.052 . S
O193 C189 1.241 . S
O194 Co182 2.137 . S
O194 C185 1.247 . S
O195 Co182 2.244 1_556 S
O195 C185 1.272 1_556 S
O195 Co187 2.135 . S
Co196 O197 2.216 . S
Co196 O198 2.091 . S
Co196 O200 2.004 . S
Co196 O206 2.021 1_554 S
Co196 O208 2.137 . S
Co196 O209 2.244 1_554 S
O197 Co196 2.216 . S
O197 C204 1.247 . S
O198 Co196 2.091 . S
O198 C204 1.261 . S
C199 O208 1.247 . S
C199 O209 1.272 1_554 S
O200 Co196 2.004 . S
O200 C205 1.259 . S
Co201 O202 2.061 . S
Co201 O207 2.052 . S
Co201 O209 2.135 . S
O202 Co201 2.061 . S
O202 C205 1.235 1_556 S
C203 O206 1.238 . S
C203 O207 1.241 . S
C204 O197 1.247 . S
C204 O198 1.261 . S
C205 O200 1.259 . S
C205 O202 1.235 1_554 S
O206 Co196 2.021 1_556 S
O206 C203 1.238 . S
O207 Co201 2.052 . S
O207 C203 1.241 . S
O208 Co196 2.137 . S
O208 C199 1.247 . S
O209 Co196 2.244 1_556 S
O209 C199 1.272 1_556 S
O209 Co201 2.135 . S
Co210 O211 2.216 1_554 S
Co210 O212 2.091 . S
Co210 O214 2.004 . S
Co210 O220 2.021 . S
Co210 O222 2.137 1_554 S
Co210 O223 2.244 1_554 S
O211 Co210 2.216 1_556 S
O211 C218 1.247 1_556 S
O212 Co210 2.091 . S
O212 C218 1.261 . S
C213 O222 1.247 . S
C213 O223 1.272 . S
O214 Co210 2.004 . S
O214 C219 1.259 . S
Co215 O216 2.061 . S
Co215 O221 2.052 . S
Co215 O223 2.135 . S
O216 Co215 2.061 . S
O216 C219 1.235 1_556 S
C217 O220 1.238 1_556 S
C217 O221 1.241 . S
C218 O211 1.247 1_554 S
C218 O212 1.261 . S
C219 O214 1.259 . S
C219 O216 1.235 1_554 S
O220 Co210 2.021 . S
O220 C217 1.238 1_554 S
O221 Co215 2.052 . S
O221 C217 1.241 . S
O222 Co210 2.137 1_556 S
O222 C213 1.247 . S
O223 Co210 2.244 1_556 S
O223 C213 1.272 . S
O223 Co215 2.135 . S
Co224 O225 2.216 . S
Co224 O226 2.091 . S
Co224 O228 2.004 . S
Co224 O234 2.021 1_556 S
Co224 O236 2.137 . S
Co224 O237 2.244 1_556 S
O225 Co224 2.216 . S
O225 C232 1.247 . S
O226 Co224 2.091 . S
O226 C232 1.261 . S
C227 O236 1.247 1_554 S
C227 O237 1.272 . S
O228 Co224 2.004 . S
O228 C233 1.259 . S
Co229 O230 2.061 . S
Co229 O235 2.052 . S
Co229 O237 2.135 . S
O230 Co229 2.061 . S
O230 C233 1.235 1_554 S
C231 O234 1.238 . S
C231 O235 1.241 . S
C232 O225 1.247 . S
C232 O226 1.261 . S
C233 O228 1.259 . S
C233 O230 1.235 1_556 S
O234 Co224 2.021 1_554 S
O234 C231 1.238 . S
O235 Co229 2.052 . S
O235 C231 1.241 . S
O236 Co224 2.137 . S
O236 C227 1.247 1_556 S
O237 Co224 2.244 1_554 S
O237 C227 1.272 . S
O237 Co229 2.135 . S
Co238 O239 2.216 . S
Co238 O240 2.091 . S
Co238 O242 2.004 . S
Co238 O248 2.021 1_556 S
Co238 O250 2.137 . S
Co238 O251 2.244 1_556 S
O239 Co238 2.216 . S
O239 C246 1.247 . S
O240 Co238 2.091 . S
O240 C246 1.261 . S
C241 O250 1.247 1_554 S
C241 O251 1.272 . S
O242 Co238 2.004 . S
O242 C247 1.259 . S
Co243 O244 2.061 . S
Co243 O249 2.052 . S
Co243 O251 2.135 . S
O244 Co243 2.061 . S
O244 C247 1.235 1_554 S
C245 O248 1.238 . S
C245 O249 1.241 . S
C246 O239 1.247 . S
C246 O240 1.261 . S
C247 O242 1.259 . S
C247 O244 1.235 1_556 S
O248 Co238 2.021 1_554 S
O248 C245 1.238 . S
O249 Co243 2.052 . S
O249 C245 1.241 . S
O250 Co238 2.137 . S
O250 C241 1.247 1_556 S
O251 Co238 2.244 1_554 S
O251 C241 1.272 . S
O251 Co243 2.135 . S
H252 C260 0.929 . S
H253 C262 0.930 . S
H254 C264 0.930 . S
H255 C267 0.929 . S
H256 C270 0.930 . S
H257 C272 0.960 . S
H258 C272 0.960 . S
H259 C272 0.960 . S
C260 H252 0.929 . S
C260 C261 1.377 . S
C260 C262 1.384 . S
C261 C260 1.377 . S
C261 C267 1.390 . S
C262 H253 0.930 . S
C262 C260 1.384 . S
C262 C263 1.372 . S
C263 C262 1.372 . S
C263 C264 1.400 . S
C263 C268 1.490 . S
C264 H254 0.930 . S
C264 C263 1.400 . S
C264 C267 1.386 . S
H265 C281 0.930 . S
H266 C282 0.931 . S
C267 H255 0.929 . S
C267 C261 1.390 . S
C267 C264 1.386 . S
C268 C263 1.490 . S
C268 C270 1.395 . S
C268 C271 1.403 . S
H269 C275 0.930 . S
C270 H256 0.930 . S
C270 C268 1.395 . S
C270 C273 1.403 . S
C271 C268 1.403 . S
C271 C272 1.524 . S
C271 C275 1.400 . S
C272 H257 0.960 . S
C272 H258 0.960 . S
C272 H259 0.960 . S
C272 C271 1.524 . S
C273 C270 1.403 . S
C273 C274 1.392 . S
C273 C277 1.495 . S
C274 C273 1.392 . S
C274 C275 1.385 . S
C274 C276 1.478 . S
C275 H269 0.930 . S
C275 C271 1.400 . S
C275 C274 1.385 . S
C276 C274 1.478 . S
C276 C278 1.381 . S
C276 C282 1.383 . S
C277 C273 1.495 . S
C277 H283 0.959 . S
C277 H284 0.961 . S
C277 H285 0.960 . S
C278 C276 1.381 . S
C278 C279 1.394 . S
C278 H286 0.930 . S
C279 C278 1.394 . S
C279 C280 1.383 . S
C279 H287 0.929 . S
C280 C279 1.383 . S
C280 C281 1.377 . S
C281 H265 0.930 . S
C281 C280 1.377 . S
C281 C282 1.379 . S
C282 H266 0.931 . S
C282 C276 1.383 . S
C282 C281 1.379 . S
H283 C277 0.959 . S
H284 C277 0.961 . S
H285 C277 0.960 . S
H286 C278 0.930 . S
H287 C279 0.929 . S
H288 C296 0.929 . S
H289 C298 0.930 . S
H290 C300 0.930 . S
H291 C303 0.929 . S
H292 C306 0.930 . S
H293 C308 0.960 . S
H294 C308 0.960 . S
H295 C308 0.960 . S
C296 H288 0.929 . S
C296 C297 1.377 . S
C296 C298 1.384 . S
C297 C296 1.377 . S
C297 C303 1.390 . S
C298 H289 0.930 . S
C298 C296 1.384 . S
C298 C299 1.372 . S
C299 C298 1.372 . S
C299 C300 1.400 . S
C299 C304 1.490 . S
C300 H290 0.930 . S
C300 C299 1.400 . S
C300 C303 1.386 . S
H301 C317 0.930 . S
H302 C318 0.931 . S
C303 H291 0.929 . S
C303 C297 1.390 . S
C303 C300 1.386 . S
C304 C299 1.490 . S
C304 C306 1.395 . S
C304 C307 1.403 . S
H305 C311 0.930 . S
C306 H292 0.930 . S
C306 C304 1.395 . S
C306 C309 1.403 . S
C307 C304 1.403 . S
C307 C308 1.524 . S
C307 C311 1.400 . S
C308 H293 0.960 . S
C308 H294 0.960 . S
C308 H295 0.960 . S
C308 C307 1.524 . S
C309 C306 1.403 . S
C309 C310 1.392 . S
C309 C313 1.495 . S
C310 C309 1.392 . S
C310 C311 1.385 . S
C310 C312 1.478 . S
C311 H305 0.930 . S
C311 C307 1.400 . S
C311 C310 1.385 . S
C312 C310 1.478 . S
C312 C314 1.381 . S
C312 C318 1.383 . S
C313 C309 1.495 . S
C313 H319 0.959 . S
C313 H320 0.961 . S
C313 H321 0.960 . S
C314 C312 1.381 . S
C314 C315 1.394 . S
C314 H322 0.930 . S
C315 C314 1.394 . S
C315 C316 1.383 . S
C315 H323 0.929 . S
C316 C315 1.383 . S
C316 C317 1.377 . S
C317 H301 0.930 . S
C317 C316 1.377 . S
C317 C318 1.379 . S
C318 H302 0.931 . S
C318 C312 1.383 . S
C318 C317 1.379 . S
H319 C313 0.959 . S
H320 C313 0.961 . S
H321 C313 0.960 . S
H322 C314 0.930 . S
H323 C315 0.929 . S
H324 C332 0.929 . S
H325 C334 0.930 . S
H326 C336 0.930 . S
H327 C339 0.929 . S
H328 C342 0.930 . S
H329 C344 0.960 . S
H330 C344 0.960 . S
H331 C344 0.960 . S
C332 H324 0.929 . S
C332 C333 1.377 . S
C332 C334 1.384 . S
C333 C332 1.377 . S
C333 C339 1.390 . S
C334 H325 0.930 . S
C334 C332 1.384 . S
C334 C335 1.372 . S
C335 C334 1.372 . S
C335 C336 1.400 . S
C335 C340 1.490 . S
C336 H326 0.930 . S
C336 C335 1.400 . S
C336 C339 1.386 . S
H337 C353 0.930 . S
H338 C354 0.931 . S
C339 H327 0.929 . S
C339 C333 1.390 . S
C339 C336 1.386 . S
C340 C335 1.490 . S
C340 C342 1.395 . S
C340 C343 1.403 . S
H341 C347 0.930 . S
C342 H328 0.930 . S
C342 C340 1.395 . S
C342 C345 1.403 . S
C343 C340 1.403 . S
C343 C344 1.524 . S
C343 C347 1.400 . S
C344 H329 0.960 . S
C344 H330 0.960 . S
C344 H331 0.960 . S
C344 C343 1.524 . S
C345 C342 1.403 . S
C345 C346 1.392 . S
C345 C349 1.495 . S
C346 C345 1.392 . S
C346 C347 1.385 . S
C346 C348 1.478 . S
C347 H341 0.930 . S
C347 C343 1.400 . S
C347 C346 1.385 . S
C348 C346 1.478 . S
C348 C350 1.381 . S
C348 C354 1.383 . S
C349 C345 1.495 . S
C349 H355 0.959 . S
C349 H356 0.961 . S
C349 H357 0.960 . S
C350 C348 1.381 . S
C350 C351 1.394 . S
C350 H358 0.930 . S
C351 C350 1.394 . S
C351 C352 1.383 . S
C351 H359 0.929 . S
C352 C351 1.383 . S
C352 C353 1.377 . S
C353 H337 0.930 . S
C353 C352 1.377 . S
C353 C354 1.379 . S
C354 H338 0.931 . S
C354 C348 1.383 . S
C354 C353 1.379 . S
H355 C349 0.959 . S
H356 C349 0.961 . S
H357 C349 0.960 . S
H358 C350 0.930 . S
H359 C351 0.929 . S
H360 C368 0.929 1_554 S
H361 C370 0.930 . S
H362 C372 0.930 . S
H363 C375 0.929 . S
H364 C378 0.930 . S
H365 C380 0.960 . S
H366 C380 0.960 . S
H367 C380 0.960 . S
C368 H360 0.929 1_556 S
C368 C369 1.377 . S
C368 C370 1.384 . S
C369 C368 1.377 . S
C369 C375 1.390 . S
C370 H361 0.930 . S
C370 C368 1.384 . S
C370 C371 1.372 . S
C371 C370 1.372 . S
C371 C372 1.400 . S
C371 C376 1.490 . S
C372 H362 0.930 . S
C372 C371 1.400 . S
C372 C375 1.386 . S
H373 C389 0.930 . S
H374 C390 0.931 . S
C375 H363 0.929 . S
C375 C369 1.390 . S
C375 C372 1.386 . S
C376 C371 1.490 . S
C376 C378 1.395 . S
C376 C379 1.403 . S
H377 C383 0.930 . S
C378 H364 0.930 . S
C378 C376 1.395 . S
C378 C381 1.403 . S
C379 C376 1.403 . S
C379 C380 1.524 . S
C379 C383 1.400 . S
C380 H365 0.960 . S
C380 H366 0.960 . S
C380 H367 0.960 . S
C380 C379 1.524 . S
C381 C378 1.403 . S
C381 C382 1.392 . S
C381 C385 1.495 . S
C382 C381 1.392 . S
C382 C383 1.385 . S
C382 C384 1.478 . S
C383 H377 0.930 . S
C383 C379 1.400 . S
C383 C382 1.385 . S
C384 C382 1.478 . S
C384 C386 1.381 . S
C384 C390 1.383 . S
C385 C381 1.495 . S
C385 H391 0.959 . S
C385 H392 0.961 . S
C385 H393 0.960 . S
C386 C384 1.381 . S
C386 C387 1.394 . S
C386 H394 0.930 . S
C387 C386 1.394 . S
C387 C388 1.383 . S
C387 H395 0.929 . S
C388 C387 1.383 . S
C388 C389 1.377 . S
C389 H373 0.930 . S
C389 C388 1.377 . S
C389 C390 1.379 . S
C390 H374 0.931 . S
C390 C384 1.383 . S
C390 C389 1.379 . S
H391 C385 0.959 . S
H392 C385 0.961 . S
H393 C385 0.960 . S
H394 C386 0.930 . S
H395 C387 0.929 . S
H396 C404 0.929 . S
H397 C406 0.930 . S
H398 C408 0.930 . S
H399 C411 0.929 . S
H400 C414 0.930 . S
H401 C416 0.960 . S
H402 C416 0.960 . S
H403 C416 0.960 . S
C404 H396 0.929 . S
C404 C405 1.377 . S
C404 C406 1.384 . S
C405 C404 1.377 . S
C405 C411 1.390 . S
C406 H397 0.930 . S
C406 C404 1.384 . S
C406 C407 1.372 . S
C407 C406 1.372 . S
C407 C408 1.400 . S
C407 C412 1.490 . S
C408 H398 0.930 . S
C408 C407 1.400 . S
C408 C411 1.386 . S
H409 C425 0.930 . S
H410 C426 0.931 . S
C411 H399 0.929 . S
C411 C405 1.390 . S
C411 C408 1.386 . S
C412 C407 1.490 . S
C412 C414 1.395 . S
C412 C415 1.403 . S
H413 C419 0.930 . S
C414 H400 0.930 . S
C414 C412 1.395 . S
C414 C417 1.403 . S
C415 C412 1.403 . S
C415 C416 1.524 . S
C415 C419 1.400 . S
C416 H401 0.960 . S
C416 H402 0.960 . S
C416 H403 0.960 . S
C416 C415 1.524 . S
C417 C414 1.403 . S
C417 C418 1.392 . S
C417 C421 1.495 . S
C418 C417 1.392 . S
C418 C419 1.385 . S
C418 C420 1.478 . S
C419 H413 0.930 . S
C419 C415 1.400 . S
C419 C418 1.385 . S
C420 C418 1.478 . S
C420 C422 1.381 . S
C420 C426 1.383 . S
C421 C417 1.495 . S
C421 H427 0.959 . S
C421 H428 0.961 . S
C421 H429 0.960 . S
C422 C420 1.381 . S
C422 C423 1.394 . S
C422 H430 0.930 . S
C423 C422 1.394 . S
C423 C424 1.383 . S
C423 H431 0.929 . S
C424 C423 1.383 . S
C424 C425 1.377 . S
C425 H409 0.930 . S
C425 C424 1.377 . S
C425 C426 1.379 . S
C426 H410 0.931 . S
C426 C420 1.383 . S
C426 C425 1.379 . S
H427 C421 0.959 . S
H428 C421 0.961 . S
H429 C421 0.960 . S
H430 C422 0.930 . S
H431 C423 0.929 . S
H432 C440 0.929 1_554 S
H433 C442 0.930 . S
H434 C444 0.930 . S
H435 C447 0.929 . S
H436 C450 0.930 . S
H437 C452 0.960 . S
H438 C452 0.960 . S
H439 C452 0.960 . S
C440 H432 0.929 1_556 S
C440 C441 1.377 . S
C440 C442 1.384 . S
C441 C440 1.377 . S
C441 C447 1.390 . S
C442 H433 0.930 . S
C442 C440 1.384 . S
C442 C443 1.372 . S
C443 C442 1.372 . S
C443 C444 1.400 . S
C443 C448 1.490 . S
C444 H434 0.930 . S
C444 C443 1.400 . S
C444 C447 1.386 . S
H445 C461 0.930 . S
H446 C462 0.931 . S
C447 H435 0.929 . S
C447 C441 1.390 . S
C447 C444 1.386 . S
C448 C443 1.490 . S
C448 C450 1.395 . S
C448 C451 1.403 . S
H449 C455 0.930 . S
C450 H436 0.930 . S
C450 C448 1.395 . S
C450 C453 1.403 . S
C451 C448 1.403 . S
C451 C452 1.524 . S
C451 C455 1.400 . S
C452 H437 0.960 . S
C452 H438 0.960 . S
C452 H439 0.960 . S
C452 C451 1.524 . S
C453 C450 1.403 . S
C453 C454 1.392 . S
C453 C457 1.495 . S
C454 C453 1.392 . S
C454 C455 1.385 . S
C454 C456 1.478 . S
C455 H449 0.930 . S
C455 C451 1.400 . S
C455 C454 1.385 . S
C456 C454 1.478 . S
C456 C458 1.381 . S
C456 C462 1.383 . S
C457 C453 1.495 . S
C457 H463 0.959 . S
C457 H464 0.961 . S
C457 H465 0.960 . S
C458 C456 1.381 . S
C458 C459 1.394 . S
C458 H466 0.930 . S
C459 C458 1.394 . S
C459 C460 1.383 . S
C459 H467 0.929 . S
C460 C459 1.383 . S
C460 C461 1.377 . S
C461 H445 0.930 . S
C461 C460 1.377 . S
C461 C462 1.379 . S
C462 H446 0.931 . S
C462 C456 1.383 . S
C462 C461 1.379 . S
H463 C457 0.959 . S
H464 C457 0.961 . S
H465 C457 0.960 . S
H466 C458 0.930 . S
H467 C459 0.929 . S
H468 C476 0.929 . S
H469 C478 0.930 . S
H470 C480 0.930 . S
H471 C483 0.929 . S
H472 C486 0.930 . S
H473 C488 0.960 . S
H474 C488 0.960 . S
H475 C488 0.960 . S
C476 H468 0.929 . S
C476 C477 1.377 . S
C476 C478 1.384 . S
C477 C476 1.377 . S
C477 C483 1.390 . S
C478 H469 0.930 . S
C478 C476 1.384 . S
C478 C479 1.372 . S
C479 C478 1.372 . S
C479 C480 1.400 . S
C479 C484 1.490 . S
C480 H470 0.930 . S
C480 C479 1.400 . S
C480 C483 1.386 . S
H481 C497 0.930 . S
H482 C498 0.931 . S
C483 H471 0.929 . S
C483 C477 1.390 . S
C483 C480 1.386 . S
C484 C479 1.490 . S
C484 C486 1.395 . S
C484 C487 1.403 . S
H485 C491 0.930 . S
C486 H472 0.930 . S
C486 C484 1.395 . S
C486 C489 1.403 . S
C487 C484 1.403 . S
C487 C488 1.524 . S
C487 C491 1.400 . S
C488 H473 0.960 . S
C488 H474 0.960 . S
C488 H475 0.960 . S
C488 C487 1.524 . S
C489 C486 1.403 . S
C489 C490 1.392 . S
C489 C493 1.495 . S
C490 C489 1.392 . S
C490 C491 1.385 . S
C490 C492 1.478 . S
C491 H485 0.930 . S
C491 C487 1.400 . S
C491 C490 1.385 . S
C492 C490 1.478 . S
C492 C494 1.381 . S
C492 C498 1.383 . S
C493 C489 1.495 . S
C493 H499 0.959 . S
C493 H500 0.961 . S
C493 H501 0.960 . S
C494 C492 1.381 . S
C494 C495 1.394 . S
C494 H502 0.930 . S
C495 C494 1.394 . S
C495 C496 1.383 1_655 S
C495 H503 0.929 . S
C496 C495 1.383 1_455 S
C496 C497 1.377 1_455 S
C497 H481 0.930 . S
C497 C496 1.377 1_655 S
C497 C498 1.379 . S
C498 H482 0.931 . S
C498 C492 1.383 . S
C498 C497 1.379 . S
H499 C493 0.959 . S
H500 C493 0.961 . S
H501 C493 0.960 . S
H502 C494 0.930 . S
H503 C495 0.929 . S
H504 C512 0.929 . S
H505 C514 0.930 . S
H506 C516 0.930 . S
H507 C519 0.929 . S
H508 C522 0.930 . S
H509 C524 0.960 . S
H510 C524 0.960 . S
H511 C524 0.960 . S
C512 H504 0.929 . S
C512 C513 1.377 . S
C512 C514 1.384 . S
C513 C512 1.377 . S
C513 C519 1.390 . S
C514 H505 0.930 . S
C514 C512 1.384 . S
C514 C515 1.372 . S
C515 C514 1.372 . S
C515 C516 1.400 . S
C515 C520 1.490 . S
C516 H506 0.930 . S
C516 C515 1.400 . S
C516 C519 1.386 . S
H517 C533 0.930 . S
H518 C534 0.931 . S
C519 H507 0.929 . S
C519 C513 1.390 . S
C519 C516 1.386 . S
C520 C515 1.490 . S
C520 C522 1.395 . S
C520 C523 1.403 . S
H521 C527 0.930 . S
C522 H508 0.930 . S
C522 C520 1.395 . S
C522 C525 1.403 . S
C523 C520 1.403 . S
C523 C524 1.524 . S
C523 C527 1.400 . S
C524 H509 0.960 . S
C524 H510 0.960 . S
C524 H511 0.960 . S
C524 C523 1.524 . S
C525 C522 1.403 . S
C525 C526 1.392 . S
C525 C529 1.495 . S
C526 C525 1.392 . S
C526 C527 1.385 . S
C526 C528 1.478 . S
C527 H521 0.930 . S
C527 C523 1.400 . S
C527 C526 1.385 . S
C528 C526 1.478 . S
C528 C530 1.381 . S
C528 C534 1.383 . S
C529 C525 1.495 . S
C529 H535 0.959 . S
C529 H536 0.961 . S
C529 H537 0.960 . S
C530 C528 1.381 . S
C530 C531 1.394 . S
C530 H538 0.930 . S
C531 C530 1.394 . S
C531 C532 1.383 . S
C531 H539 0.929 . S
C532 C531 1.383 . S
C532 C533 1.377 . S
C533 H517 0.930 . S
C533 C532 1.377 . S
C533 C534 1.379 . S
C534 H518 0.931 . S
C534 C528 1.383 . S
C534 C533 1.379 . S
H535 C529 0.959 . S
H536 C529 0.961 . S
H537 C529 0.960 . S
H538 C530 0.930 . S
H539 C531 0.929 . S
H540 C548 0.929 . S
H541 C550 0.930 . S
H542 C552 0.930 . S
H543 C555 0.929 . S
H544 C558 0.930 . S
H545 C560 0.960 . S
H546 C560 0.960 . S
H547 C560 0.960 . S
C548 H540 0.929 . S
C548 C549 1.377 . S
C548 C550 1.384 . S
C549 C548 1.377 . S
C549 C555 1.390 . S
C550 H541 0.930 . S
C550 C548 1.384 . S
C550 C551 1.372 . S
C551 C550 1.372 . S
C551 C552 1.400 . S
C551 C556 1.490 . S
C552 H542 0.930 . S
C552 C551 1.400 . S
C552 C555 1.386 . S
H553 C569 0.930 . S
H554 C570 0.931 . S
C555 H543 0.929 . S
C555 C549 1.390 . S
C555 C552 1.386 . S
C556 C551 1.490 . S
C556 C558 1.395 . S
C556 C559 1.403 . S
H557 C563 0.930 . S
C558 H544 0.930 . S
C558 C556 1.395 . S
C558 C561 1.403 . S
C559 C556 1.403 . S
C559 C560 1.524 . S
C559 C563 1.400 . S
C560 H545 0.960 . S
C560 H546 0.960 . S
C560 H547 0.960 . S
C560 C559 1.524 . S
C561 C558 1.403 . S
C561 C562 1.392 . S
C561 C565 1.495 . S
C562 C561 1.392 . S
C562 C563 1.385 . S
C562 C564 1.478 . S
C563 H557 0.930 . S
C563 C559 1.400 . S
C563 C562 1.385 . S
C564 C562 1.478 . S
C564 C566 1.381 . S
C564 C570 1.383 . S
C565 C561 1.495 . S
C565 H571 0.959 . S
C565 H572 0.961 . S
C565 H573 0.960 . S
C566 C564 1.381 . S
C566 C567 1.394 . S
C566 H574 0.930 . S
C567 C566 1.394 . S
C567 C568 1.383 . S
C567 H575 0.929 . S
C568 C567 1.383 . S
C568 C569 1.377 . S
C569 H553 0.930 . S
C569 C568 1.377 . S
C569 C570 1.379 . S
C570 H554 0.931 . S
C570 C564 1.383 . S
C570 C569 1.379 . S
H571 C565 0.959 . S
H572 C565 0.961 . S
H573 C565 0.960 . S
H574 C566 0.930 . S
H575 C567 0.929 . S
H576 C584 0.929 1_554 S
H577 C586 0.930 . S
H578 C588 0.930 . S
H579 C591 0.929 . S
H580 C594 0.930 . S
H581 C596 0.960 . S
H582 C596 0.960 . S
H583 C596 0.960 . S
C584 H576 0.929 1_556 S
C584 C585 1.377 . S
C584 C586 1.384 . S
C585 C584 1.377 . S
C585 C591 1.390 . S
C586 H577 0.930 . S
C586 C584 1.384 . S
C586 C587 1.372 . S
C587 C586 1.372 . S
C587 C588 1.400 . S
C587 C592 1.490 . S
C588 H578 0.930 . S
C588 C587 1.400 . S
C588 C591 1.386 . S
H589 C605 0.930 1_556 S
H590 C606 0.931 . S
C591 H579 0.929 . S
C591 C585 1.390 . S
C591 C588 1.386 . S
C592 C587 1.490 . S
C592 C594 1.395 . S
C592 C595 1.403 . S
H593 C599 0.930 . S
C594 H580 0.930 . S
C594 C592 1.395 . S
C594 C597 1.403 . S
C595 C592 1.403 . S
C595 C596 1.524 . S
C595 C599 1.400 . S
C596 H581 0.960 . S
C596 H582 0.960 . S
C596 H583 0.960 . S
C596 C595 1.524 . S
C597 C594 1.403 . S
C597 C598 1.392 . S
C597 C601 1.495 . S
C598 C597 1.392 . S
C598 C599 1.385 . S
C598 C600 1.478 . S
C599 H593 0.930 . S
C599 C595 1.400 . S
C599 C598 1.385 . S
C600 C598 1.478 . S
C600 C602 1.381 . S
C600 C606 1.383 . S
C601 C597 1.495 . S
C601 H607 0.959 . S
C601 H608 0.961 . S
C601 H609 0.960 . S
C602 C600 1.381 . S
C602 C603 1.394 . S
C602 H610 0.930 . S
C603 C602 1.394 . S
C603 C604 1.383 . S
C603 H611 0.929 . S
C604 C603 1.383 . S
C604 C605 1.377 . S
C605 H589 0.930 1_554 S
C605 C604 1.377 . S
C605 C606 1.379 . S
C606 H590 0.931 . S
C606 C600 1.383 . S
C606 C605 1.379 . S
H607 C601 0.959 . S
H608 C601 0.961 . S
H609 C601 0.960 . S
H610 C602 0.930 . S
H611 C603 0.929 . S
H612 C620 0.929 . S
H613 C622 0.930 . S
H614 C624 0.930 . S
H615 C627 0.929 . S
H616 C630 0.930 . S
H617 C632 0.960 . S
H618 C632 0.960 . S
H619 C632 0.960 . S
C620 H612 0.929 . S
C620 C621 1.377 . S
C620 C622 1.384 . S
C621 C620 1.377 . S
C621 C627 1.390 . S
C622 H613 0.930 . S
C622 C620 1.384 . S
C622 C623 1.372 . S
C623 C622 1.372 . S
C623 C624 1.400 . S
C623 C628 1.490 . S
C624 H614 0.930 . S
C624 C623 1.400 . S
C624 C627 1.386 . S
H625 C641 0.930 . S
H626 C642 0.931 . S
C627 H615 0.929 . S
C627 C621 1.390 . S
C627 C624 1.386 . S
C628 C623 1.490 . S
C628 C630 1.395 . S
C628 C631 1.403 . S
H629 C635 0.930 . S
C630 H616 0.930 . S
C630 C628 1.395 . S
C630 C633 1.403 . S
C631 C628 1.403 . S
C631 C632 1.524 . S
C631 C635 1.400 . S
C632 H617 0.960 . S
C632 H618 0.960 . S
C632 H619 0.960 . S
C632 C631 1.524 . S
C633 C630 1.403 . S
C633 C634 1.392 . S
C633 C637 1.495 . S
C634 C633 1.392 . S
C634 C635 1.385 . S
C634 C636 1.478 . S
C635 H629 0.930 . S
C635 C631 1.400 . S
C635 C634 1.385 . S
C636 C634 1.478 . S
C636 C638 1.381 . S
C636 C642 1.383 . S
C637 C633 1.495 . S
C637 H643 0.959 . S
C637 H644 0.961 . S
C637 H645 0.960 . S
C638 C636 1.381 . S
C638 C639 1.394 . S
C638 H646 0.930 . S
C639 C638 1.394 . S
C639 C640 1.383 . S
C639 H647 0.929 1_554 S
C640 C639 1.383 . S
C640 C641 1.377 . S
C641 H625 0.930 . S
C641 C640 1.377 . S
C641 C642 1.379 . S
C642 H626 0.931 . S
C642 C636 1.383 . S
C642 C641 1.379 . S
H643 C637 0.959 . S
H644 C637 0.961 . S
H645 C637 0.960 . S
H646 C638 0.930 . S
H647 C639 0.929 1_556 S
H648 C656 0.929 1_554 S
H649 C658 0.930 . S
H650 C660 0.930 . S
H651 C663 0.929 . S
H652 C666 0.930 . S
H653 C668 0.960 . S
H654 C668 0.960 . S
H655 C668 0.960 . S
C656 H648 0.929 1_556 S
C656 C657 1.377 . S
C656 C658 1.384 . S
C657 C656 1.377 . S
C657 C663 1.390 . S
C658 H649 0.930 . S
C658 C656 1.384 . S
C658 C659 1.372 . S
C659 C658 1.372 . S
C659 C660 1.400 . S
C659 C664 1.490 . S
C660 H650 0.930 . S
C660 C659 1.400 . S
C660 C663 1.386 . S
H661 C677 0.930 1_556 S
H662 C678 0.931 . S
C663 H651 0.929 . S
C663 C657 1.390 . S
C663 C660 1.386 . S
C664 C659 1.490 . S
C664 C666 1.395 . S
C664 C667 1.403 . S
H665 C671 0.930 . S
C666 H652 0.930 . S
C666 C664 1.395 . S
C666 C669 1.403 . S
C667 C664 1.403 . S
C667 C668 1.524 . S
C667 C671 1.400 . S
C668 H653 0.960 . S
C668 H654 0.960 . S
C668 H655 0.960 . S
C668 C667 1.524 . S
C669 C666 1.403 . S
C669 C670 1.392 . S
C669 C673 1.495 . S
C670 C669 1.392 . S
C670 C671 1.385 . S
C670 C672 1.478 . S
C671 H665 0.930 . S
C671 C667 1.400 . S
C671 C670 1.385 . S
C672 C670 1.478 . S
C672 C674 1.381 . S
C672 C678 1.383 . S
C673 C669 1.495 . S
C673 H679 0.959 . S
C673 H680 0.961 . S
C673 H681 0.960 . S
C674 C672 1.381 . S
C674 C675 1.394 . S
C674 H682 0.930 . S
C675 C674 1.394 . S
C675 C676 1.383 . S
C675 H683 0.929 . S
C676 C675 1.383 . S
C676 C677 1.377 . S
C677 H661 0.930 1_554 S
C677 C676 1.377 . S
C677 C678 1.379 . S
C678 H662 0.931 . S
C678 C672 1.383 . S
C678 C677 1.379 . S
H679 C673 0.959 . S
H680 C673 0.961 . S
H681 C673 0.960 . S
H682 C674 0.930 . S
H683 C675 0.929 . S
H684 C692 0.929 . S
H685 C694 0.930 . S
H686 C696 0.930 . S
H687 C699 0.929 . S
H688 C702 0.930 . S
H689 C704 0.960 . S
H690 C704 0.960 1_655 S
H691 C704 0.960 1_656 S
C692 H684 0.929 . S
C692 C693 1.377 1_554 S
C692 C694 1.384 1_655 S
C693 C692 1.377 1_556 S
C693 C699 1.390 . S
C694 H685 0.930 . S
C694 C692 1.384 1_455 S
C694 C695 1.372 1_554 S
C695 C694 1.372 1_556 S
C695 C696 1.400 1_455 S
C695 C700 1.490 . S
C696 H686 0.930 . S
C696 C695 1.400 1_655 S
C696 C699 1.386 . S
H697 C713 0.930 . S
H698 C714 0.931 . S
C699 H687 0.929 . S
C699 C693 1.390 . S
C699 C696 1.386 . S
C700 C695 1.490 . S
C700 C702 1.395 . S
C700 C703 1.403 1_556 S
H701 C707 0.930 . S
C702 H688 0.930 . S
C702 C700 1.395 . S
C702 C705 1.403 1_556 S
C703 C700 1.403 1_554 S
C703 C704 1.524 . S
C703 C707 1.400 . S
C704 H689 0.960 . S
C704 H690 0.960 1_455 S
C704 H691 0.960 1_454 S
C704 C703 1.524 . S
C705 C702 1.403 1_554 S
C705 C706 1.392 . S
C705 C709 1.495 1_554 S
C706 C705 1.392 . S
C706 C707 1.385 . S
C706 C708 1.478 . S
C707 H701 0.930 . S
C707 C703 1.400 . S
C707 C706 1.385 . S
C708 C706 1.478 . S
C708 C710 1.381 . S
C708 C714 1.383 1_554 S
C709 C705 1.495 1_556 S
C709 H715 0.959 . S
C709 H716 0.961 . S
C709 H717 0.960 1_556 S
C710 C708 1.381 . S
C710 C711 1.394 . S
C710 H718 0.930 . S
C711 C710 1.394 . S
C711 C712 1.383 . S
C711 H719 0.929 . S
C712 C711 1.383 . S
C712 C713 1.377 1_554 S
C713 H697 0.930 . S
C713 C712 1.377 1_556 S
C713 C714 1.379 . S
C714 H698 0.931 . S
C714 C708 1.383 1_556 S
C714 C713 1.379 . S
H715 C709 0.959 . S
H716 C709 0.961 . S
H717 C709 0.960 1_554 S
H718 C710 0.930 . S
H719 C711 0.929 . S
H720 C728 0.929 . S
H721 C730 0.930 . S
H722 C732 0.930 . S
H723 C735 0.929 . S
H724 C738 0.930 . S
H725 C740 0.960 . S
H726 C740 0.960 . S
H727 C740 0.960 . S
C728 H720 0.929 . S
C728 C729 1.377 . S
C728 C730 1.384 . S
C729 C728 1.377 . S
C729 C735 1.390 . S
C730 H721 0.930 . S
C730 C728 1.384 . S
C730 C731 1.372 . S
C731 C730 1.372 . S
C731 C732 1.400 . S
C731 C736 1.490 . S
C732 H722 0.930 . S
C732 C731 1.400 . S
C732 C735 1.386 . S
H733 C749 0.930 . S
H734 C750 0.931 . S
C735 H723 0.929 . S
C735 C729 1.390 . S
C735 C732 1.386 . S
C736 C731 1.490 . S
C736 C738 1.395 1_554 S
C736 C739 1.403 . S
H737 C743 0.930 . S
C738 H724 0.930 . S
C738 C736 1.395 1_556 S
C738 C741 1.403 . S
C739 C736 1.403 . S
C739 C740 1.524 . S
C739 C743 1.400 . S
C740 H725 0.960 . S
C740 H726 0.960 . S
C740 H727 0.960 . S
C740 C739 1.524 . S
C741 C738 1.403 . S
C741 C742 1.392 . S
C741 C745 1.495 . S
C742 C741 1.392 . S
C742 C743 1.385 1_556 S
C742 C744 1.478 . S
C743 H737 0.930 . S
C743 C739 1.400 . S
C743 C742 1.385 1_554 S
C744 C742 1.478 . S
C744 C746 1.381 . S
C744 C750 1.383 . S
C745 C741 1.495 . S
C745 H751 0.959 . S
C745 H752 0.961 . S
C745 H753 0.960 . S
C746 C744 1.381 . S
C746 C747 1.394 . S
C746 H754 0.930 . S
C747 C746 1.394 . S
C747 C748 1.383 . S
C747 H755 0.929 . S
C748 C747 1.383 . S
C748 C749 1.377 . S
C749 H733 0.930 . S
C749 C748 1.377 . S
C749 C750 1.379 . S
C750 H734 0.931 . S
C750 C744 1.383 . S
C750 C749 1.379 . S
H751 C745 0.959 . S
H752 C745 0.961 . S
H753 C745 0.960 . S
H754 C746 0.930 . S
H755 C747 0.929 . S
H756 C764 0.929 . S
H757 C766 0.930 . S
H758 C768 0.930 . S
H759 C771 0.929 . S
H760 C774 0.930 . S
H761 C776 0.960 . S
H762 C776 0.960 . S
H763 C776 0.960 . S
C764 H756 0.929 . S
C764 C765 1.377 1_554 S
C764 C766 1.384 . S
C765 C764 1.377 1_556 S
C765 C771 1.390 . S
C766 H757 0.930 . S
C766 C764 1.384 . S
C766 C767 1.372 1_554 S
C767 C766 1.372 1_556 S
C767 C768 1.400 . S
C767 C772 1.490 . S
C768 H758 0.930 . S
C768 C767 1.400 . S
C768 C771 1.386 . S
H769 C785 0.930 . S
H770 C786 0.931 . S
C771 H759 0.929 . S
C771 C765 1.390 . S
C771 C768 1.386 . S
C772 C767 1.490 . S
C772 C774 1.395 1_556 S
C772 C775 1.403 . S
H773 C779 0.930 . S
C774 H760 0.930 . S
C774 C772 1.395 1_554 S
C774 C777 1.403 . S
C775 C772 1.403 . S
C775 C776 1.524 . S
C775 C779 1.400 . S
C776 H761 0.960 . S
C776 H762 0.960 . S
C776 H763 0.960 . S
C776 C775 1.524 . S
C777 C774 1.403 . S
C777 C778 1.392 . S
C777 C781 1.495 . S
C778 C777 1.392 . S
C778 C779 1.385 1_554 S
C778 C780 1.478 1_545 S
C779 H773 0.930 . S
C779 C775 1.400 . S
C779 C778 1.385 1_556 S
C780 C778 1.478 1_565 S
C780 C782 1.381 . S
C780 C786 1.383 1_554 S
C781 C777 1.495 . S
C781 H787 0.959 . S
C781 H788 0.961 1_545 S
C781 H789 0.960 . S
C782 C780 1.381 . S
C782 C783 1.394 . S
C782 H790 0.930 1_565 S
C783 C782 1.394 . S
C783 C784 1.383 . S
C783 H791 0.929 . S
C784 C783 1.383 . S
C784 C785 1.377 1_554 S
C785 H769 0.930 . S
C785 C784 1.377 1_556 S
C785 C786 1.379 . S
C786 H770 0.931 . S
C786 C780 1.383 1_556 S
C786 C785 1.379 . S
H787 C781 0.959 . S
H788 C781 0.961 1_565 S
H789 C781 0.960 . S
H790 C782 0.930 1_545 S
H791 C783 0.929 . S
H792 C800 0.929 . S
H793 C802 0.930 . S
H794 C804 0.930 1_545 S
H795 C807 0.929 . S
H796 C810 0.930 . S
H797 C812 0.960 . S
H798 C812 0.960 1_565 S
H799 C812 0.960 1_565 S
C800 H792 0.929 . S
C800 C801 1.377 . S
C800 C802 1.384 . S
C801 C800 1.377 . S
C801 C807 1.390 . S
C802 H793 0.930 . S
C802 C800 1.384 . S
C802 C803 1.374 . S
C803 C802 1.374 . S
C803 C804 1.399 . S
C803 C808 1.488 1_565 S
C804 H794 0.930 1_565 S
C804 C803 1.399 . S
C804 C807 1.386 . S
H805 C821 0.930 . S
H806 C822 0.931 . S
C807 H795 0.929 . S
C807 C801 1.390 . S
C807 C804 1.386 . S
C808 C803 1.488 1_545 S
C808 C810 1.395 . S
C808 C811 1.403 . S
H809 C815 0.930 . S
C810 H796 0.930 . S
C810 C808 1.395 . S
C810 C813 1.403 . S
C811 C808 1.403 . S
C811 C812 1.524 . S
C811 C815 1.400 . S
C812 H797 0.960 . S
C812 H798 0.960 1_545 S
C812 H799 0.960 1_545 S
C812 C811 1.524 . S
C813 C810 1.403 . S
C813 C814 1.392 . S
C813 C817 1.495 . S
C814 C813 1.392 . S
C814 C815 1.385 . S
C814 C816 1.478 . S
C815 H809 0.930 . S
C815 C811 1.400 . S
C815 C814 1.385 . S
C816 C814 1.478 . S
C816 C818 1.381 . S
C816 C822 1.383 . S
C817 C813 1.495 . S
C817 H823 0.959 . S
C817 H824 0.961 . S
C817 H825 0.960 . S
C818 C816 1.381 . S
C818 C819 1.394 . S
C818 H826 0.930 . S
C819 C818 1.394 . S
C819 C820 1.383 . S
C819 H827 0.929 . S
C820 C819 1.383 . S
C820 C821 1.377 . S
C821 H805 0.930 . S
C821 C820 1.377 . S
C821 C822 1.379 . S
C822 H806 0.931 . S
C822 C816 1.383 . S
C822 C821 1.379 . S
H823 C817 0.959 . S
H824 C817 0.961 . S
H825 C817 0.960 . S
H826 C818 0.930 . S
H827 C819 0.929 . S
H828 C836 0.929 . S
H829 C838 0.930 . S
H830 C840 0.930 . S
H831 C843 0.929 . S
H832 C846 0.930 . S
H833 C848 0.960 . S
H834 C848 0.960 . S
H835 C848 0.960 . S
C836 H828 0.929 . S
C836 C837 1.377 1_455 S
C836 C838 1.384 . S
C837 C836 1.377 1_655 S
C837 C843 1.390 . S
C838 H829 0.930 . S
C838 C836 1.384 . S
C838 C839 1.372 . S
C839 C838 1.372 . S
C839 C840 1.400 1_455 S
C839 C844 1.490 . S
C840 H830 0.930 . S
C840 C839 1.400 1_655 S
C840 C843 1.386 . S
H841 C857 0.930 . S
H842 C858 0.931 . S
C843 H831 0.929 . S
C843 C837 1.390 . S
C843 C840 1.386 . S
C844 C839 1.490 . S
C844 C846 1.395 . S
C844 C847 1.403 . S
H845 C851 0.930 . S
C846 H832 0.930 . S
C846 C844 1.395 . S
C846 C849 1.403 . S
C847 C844 1.403 . S
C847 C848 1.524 . S
C847 C851 1.400 . S
C848 H833 0.960 . S
C848 H834 0.960 . S
C848 H835 0.960 . S
C848 C847 1.524 . S
C849 C846 1.403 . S
C849 C850 1.392 . S
C849 C853 1.495 . S
C850 C849 1.392 . S
C850 C851 1.385 . S
C850 C852 1.478 . S
C851 H845 0.930 . S
C851 C847 1.400 . S
C851 C850 1.385 . S
C852 C850 1.478 . S
C852 C854 1.381 . S
C852 C858 1.383 . S
C853 C849 1.495 . S
C853 H859 0.959 . S
C853 H860 0.961 . S
C853 H861 0.960 . S
C854 C852 1.381 . S
C854 C855 1.394 . S
C854 H862 0.930 . S
C855 C854 1.394 . S
C855 C856 1.383 . S
C855 H863 0.929 . S
C856 C855 1.383 . S
C856 C857 1.377 . S
C857 H841 0.930 . S
C857 C856 1.377 . S
C857 C858 1.379 . S
C858 H842 0.931 . S
C858 C852 1.383 . S
C858 C857 1.379 . S
H859 C853 0.959 . S
H860 C853 0.961 . S
H861 C853 0.960 . S
H862 C854 0.930 . S
H863 C855 0.929 . S
H864 C872 0.929 . S
H865 C874 0.930 . S
H866 C876 0.930 . S
H867 C879 0.929 . S
H868 C882 0.930 . S
H869 C884 0.960 . S
H870 C884 0.960 . S
H871 C884 0.960 . S
C872 H864 0.929 . S
C872 C873 1.377 . S
C872 C874 1.384 . S
C873 C872 1.377 . S
C873 C879 1.390 . S
C874 H865 0.930 . S
C874 C872 1.384 . S
C874 C875 1.372 . S
C875 C874 1.372 . S
C875 C876 1.400 . S
C875 C880 1.490 . S
C876 H866 0.930 . S
C876 C875 1.400 . S
C876 C879 1.386 . S
H877 C893 0.930 . S
H878 C894 0.931 . S
C879 H867 0.929 . S
C879 C873 1.390 . S
C879 C876 1.386 . S
C880 C875 1.490 . S
C880 C882 1.395 . S
C880 C883 1.403 . S
H881 C887 0.930 . S
C882 H868 0.930 . S
C882 C880 1.395 . S
C882 C885 1.403 . S
C883 C880 1.403 . S
C883 C884 1.524 . S
C883 C887 1.400 . S
C884 H869 0.960 . S
C884 H870 0.960 . S
C884 H871 0.960 . S
C884 C883 1.524 . S
C885 C882 1.403 . S
C885 C886 1.392 . S
C885 C889 1.495 . S
C886 C885 1.392 . S
C886 C887 1.385 . S
C886 C888 1.478 . S
C887 H881 0.930 . S
C887 C883 1.400 . S
C887 C886 1.385 . S
C888 C886 1.478 . S
C888 C890 1.381 . S
C888 C894 1.383 . S
C889 C885 1.495 . S
C889 H895 0.959 . S
C889 H896 0.961 . S
C889 H897 0.960 . S
C890 C888 1.381 . S
C890 C891 1.394 . S
C890 H898 0.930 . S
C891 C890 1.394 . S
C891 C892 1.383 . S
C891 H899 0.929 . S
C892 C891 1.383 . S
C892 C893 1.377 . S
C893 H877 0.930 . S
C893 C892 1.377 . S
C893 C894 1.379 . S
C894 H878 0.931 . S
C894 C888 1.383 . S
C894 C893 1.379 . S
H895 C889 0.959 . S
H896 C889 0.961 . S
H897 C889 0.960 . S
H898 C890 0.930 . S
H899 C891 0.929 . S
H900 C908 0.929 1_554 S
H901 C910 0.930 1_554 S
H902 C912 0.930 . S
H903 C915 0.929 . S
H904 C918 0.930 . S
H905 C920 0.960 . S
H906 C920 0.960 . S
H907 C920 0.960 . S
C908 H900 0.929 1_556 S
C908 C909 1.377 . S
C908 C910 1.384 . S
C909 C908 1.377 . S
C909 C915 1.390 . S
C910 H901 0.930 1_556 S
C910 C908 1.384 . S
C910 C911 1.372 . S
C911 C910 1.372 . S
C911 C912 1.400 . S
C911 C916 1.490 . S
C912 H902 0.930 . S
C912 C911 1.400 . S
C912 C915 1.386 . S
H913 C929 0.930 . S
H914 C930 0.931 1_556 S
C915 H903 0.929 . S
C915 C909 1.390 . S
C915 C912 1.386 . S
C916 C911 1.490 . S
C916 C918 1.395 1_556 S
C916 C919 1.403 . S
H917 C923 0.930 . S
C918 H904 0.930 . S
C918 C916 1.395 1_554 S
C918 C921 1.403 . S
C919 C916 1.403 . S
C919 C920 1.524 . S
C919 C923 1.400 . S
C920 H905 0.960 . S
C920 H906 0.960 . S
C920 H907 0.960 . S
C920 C919 1.524 . S
C921 C918 1.403 . S
C921 C922 1.392 . S
C921 C925 1.495 . S
C922 C921 1.392 . S
C922 C923 1.385 1_554 S
C922 C924 1.478 . S
C923 H917 0.930 . S
C923 C919 1.400 . S
C923 C922 1.385 1_556 S
C924 C922 1.478 . S
C924 C926 1.381 . S
C924 C930 1.383 . S
C925 C921 1.495 . S
C925 H931 0.959 . S
C925 H932 0.961 . S
C925 H933 0.960 . S
C926 C924 1.381 . S
C926 C927 1.394 . S
C926 H934 0.930 . S
C927 C926 1.394 . S
C927 C928 1.383 . S
C927 H935 0.929 . S
C928 C927 1.383 . S
C928 C929 1.377 . S
C929 H913 0.930 . S
C929 C928 1.377 . S
C929 C930 1.379 . S
C930 H914 0.931 1_554 S
C930 C924 1.383 . S
C930 C929 1.379 . S
H931 C925 0.959 . S
H932 C925 0.961 . S
H933 C925 0.960 . S
H934 C926 0.930 . S
H935 C927 0.929 . S
H936 C944 0.929 . S
H937 C946 0.930 . S
H938 C948 0.930 1_556 S
H939 C951 0.929 . S
H940 C954 0.930 . S
H941 C956 0.960 . S
H942 C956 0.960 1_455 S
H943 C956 0.960 . S
C944 H936 0.929 . S
C944 C945 1.377 . S
C944 C946 1.384 . S
C945 C944 1.377 . S
C945 C951 1.390 1_455 S
C946 H937 0.930 . S
C946 C944 1.384 . S
C946 C947 1.372 1_455 S
C947 C946 1.372 1_655 S
C947 C948 1.400 . S
C947 C952 1.490 . S
C948 H938 0.930 1_554 S
C948 C947 1.400 . S
C948 C951 1.386 . S
H949 C965 0.930 . S
H950 C966 0.931 . S
C951 H939 0.929 . S
C951 C945 1.390 1_655 S
C951 C948 1.386 . S
C952 C947 1.490 . S
C952 C954 1.395 . S
C952 C955 1.403 1_554 S
H953 C959 0.930 1_565 S
C954 H940 0.930 . S
C954 C952 1.395 . S
C954 C957 1.403 . S
C955 C952 1.403 1_556 S
C955 C956 1.524 . S
C955 C959 1.400 . S
C956 H941 0.960 . S
C956 H942 0.960 1_655 S
C956 H943 0.960 . S
C956 C955 1.524 . S
C957 C954 1.403 . S
C957 C958 1.392 1_545 S
C957 C961 1.495 1_545 S
C958 C957 1.392 1_565 S
C958 C959 1.385 1_564 S
C958 C960 1.478 1_554 S
C959 H953 0.930 1_545 S
C959 C955 1.400 . S
C959 C958 1.385 1_546 S
C960 C958 1.478 1_556 S
C960 C962 1.381 1_556 S
C960 C966 1.383 . S
C961 C957 1.495 1_565 S
C961 H967 0.959 . S
C961 H968 0.961 . S
C961 H969 0.960 . S
C962 C960 1.381 1_554 S
C962 C963 1.394 1_554 S
C962 H970 0.930 . S
C963 C962 1.394 1_556 S
C963 C964 1.383 . S
C963 H971 0.931 . S
C964 C963 1.383 . S
C964 C965 1.377 . S
C965 H949 0.930 . S
C965 C964 1.377 . S
C965 C966 1.379 . S
C966 H950 0.931 . S
C966 C960 1.383 . S
C966 C965 1.379 . S
H967 C961 0.959 . S
H968 C961 0.961 . S
H969 C961 0.960 . S
H970 C962 0.930 . S
H971 C963 0.931 . S
H972 C980 0.929 1_556 S
H973 C982 0.930 . S
H974 C984 0.930 . S
H975 C987 0.929 . S
H976 C990 0.930 . S
H977 C992 0.960 . S
H978 C992 0.960 . S
H979 C992 0.960 . S
C980 H972 0.929 1_554 S
C980 C981 1.377 . S
C980 C982 1.384 1_554 S
C981 C980 1.377 . S
C981 C987 1.390 . S
C982 H973 0.930 . S
C982 C980 1.384 1_556 S
C982 C983 1.372 1_656 S
C983 C982 1.372 1_454 S
C983 C984 1.400 . S
C983 C988 1.490 . S
C984 H974 0.930 . S
C984 C983 1.400 . S
C984 C987 1.386 1_455 S
H985 C1001 0.930 1_554 S
H986 C1002 0.931 . S
C987 H975 0.929 . S
C987 C981 1.390 . S
C987 C984 1.386 1_655 S
C988 C983 1.490 . S
C988 C990 1.395 1_554 S
C988 C991 1.403 . S
H989 C995 0.930 . S
C990 H976 0.930 . S
C990 C988 1.395 1_556 S
C990 C993 1.403 . S
C991 C988 1.403 . S
C991 C992 1.524 . S
C991 C995 1.400 . S
C992 H977 0.960 . S
C992 H978 0.960 . S
C992 H979 0.960 . S
C992 C991 1.524 . S
C993 C990 1.403 . S
C993 C994 1.392 . S
C993 C997 1.495 . S
C994 C993 1.392 . S
C994 C995 1.385 1_556 S
C994 C996 1.478 . S
C995 H989 0.930 . S
C995 C991 1.400 . S
C995 C994 1.385 1_554 S
C996 C994 1.478 . S
C996 C998 1.381 . S
C996 C1002 1.383 1_556 S
C997 C993 1.495 . S
C997 H1003 0.959 . S
C997 H1004 0.973 . S
C997 H1005 0.960 . S
C998 C996 1.381 . S
C998 C999 1.394 . S
C998 H1006 0.930 . S
C999 C998 1.394 . S
C999 C1000 1.383 . S
C999 H1007 0.929 . S
C1000 C999 1.383 . S
C1000 C1001 1.377 . S
C1001 H985 0.930 1_556 S
C1001 C1000 1.377 . S
C1001 C1002 1.379 1_556 S
C1002 H986 0.931 . S
C1002 C996 1.383 1_554 S
C1002 C1001 1.379 1_554 S
H1003 C997 0.959 . S
H1004 C997 0.973 . S
H1005 C997 0.960 . S
H1006 C998 0.930 . S
H1007 C999 0.929 . S
H1008 C1016 0.929 . S
H1009 C1018 0.930 . S
H1010 C1020 0.930 . S
H1011 C1023 0.929 . S
H1012 C1026 0.930 1_455 S
H1013 C1028 0.960 . S
H1014 C1028 0.960 . S
H1015 C1028 0.960 . S
C1016 H1008 0.929 . S
C1016 C1017 1.377 . S
C1016 C1018 1.384 . S
C1017 C1016 1.377 . S
C1017 C1023 1.390 1_455 S
C1018 H1009 0.930 . S
C1018 C1016 1.384 . S
C1018 C1019 1.372 1_455 S
C1019 C1018 1.372 1_655 S
C1019 C1020 1.400 . S
C1019 C1024 1.490 . S
C1020 H1010 0.930 . S
C1020 C1019 1.400 . S
C1020 C1023 1.386 . S
H1021 C1037 0.930 . S
H1022 C1038 0.931 . S
C1023 H1011 0.929 . S
C1023 C1017 1.390 1_655 S
C1023 C1020 1.386 . S
C1024 C1019 1.490 . S
C1024 C1026 1.395 1_554 S
C1024 C1027 1.403 . S
H1025 C1031 0.930 . S
C1026 H1012 0.930 1_655 S
C1026 C1024 1.395 1_556 S
C1026 C1029 1.403 . S
C1027 C1024 1.403 . S
C1027 C1028 1.524 . S
C1027 C1031 1.400 . S
C1028 H1013 0.960 . S
C1028 H1014 0.960 . S
C1028 H1015 0.960 . S
C1028 C1027 1.524 . S
C1029 C1026 1.403 . S
C1029 C1030 1.392 . S
C1029 C1033 1.503 . S
C1030 C1029 1.392 . S
C1030 C1031 1.385 1_556 S
C1030 C1032 1.478 . S
C1031 H1025 0.930 . S
C1031 C1027 1.400 . S
C1031 C1030 1.385 1_554 S
C1032 C1030 1.478 . S
C1032 C1034 1.381 1_565 S
C1032 C1038 1.383 . S
C1033 C1029 1.503 . S
C1033 H1039 0.963 1_655 S
C1033 H1040 0.960 . S
C1033 H1041 0.947 1_665 S
C1034 C1032 1.381 1_545 S
C1034 C1035 1.394 . S
C1034 H1042 0.930 1_556 S
C1035 C1034 1.394 . S
C1035 C1036 1.383 . S
C1035 H1043 0.929 . S
C1036 C1035 1.383 . S
C1036 C1037 1.377 1_545 S
C1037 H1021 0.930 . S
C1037 C1036 1.377 1_565 S
C1037 C1038 1.379 . S
C1038 H1022 0.931 . S
C1038 C1032 1.383 . S
C1038 C1037 1.379 . S
H1039 C1033 0.963 1_455 S
H1040 C1033 0.960 . S
H1041 C1033 0.947 1_445 S
H1042 C1034 0.930 1_554 S
H1043 C1035 0.929 . S
H1044 C1052 0.929 . S
H1045 C1054 0.930 . S
H1046 C1056 0.930 . S
H1047 C1059 0.929 . S
H1048 C1062 0.930 . S
H1049 C1064 0.960 . S
H1050 C1064 0.960 . S
H1051 C1064 0.960 . S
C1052 H1044 0.929 . S
C1052 C1053 1.377 . S
C1052 C1054 1.384 . S
C1053 C1052 1.377 . S
C1053 C1059 1.390 . S
C1054 H1045 0.930 . S
C1054 C1052 1.384 . S
C1054 C1055 1.372 . S
C1055 C1054 1.372 . S
C1055 C1056 1.400 . S
C1055 C1060 1.490 . S
C1056 H1046 0.930 . S
C1056 C1055 1.400 . S
C1056 C1059 1.386 . S
H1057 C1073 0.930 . S
H1058 C1074 0.936 . S
C1059 H1047 0.929 . S
C1059 C1053 1.390 . S
C1059 C1056 1.386 . S
C1060 C1055 1.490 . S
C1060 C1062 1.395 . S
C1060 C1063 1.403 1_554 S
H1061 C1067 0.930 . S
C1062 H1048 0.930 . S
C1062 C1060 1.395 . S
C1062 C1065 1.403 . S
C1063 C1060 1.403 1_556 S
C1063 C1064 1.524 . S
C1063 C1067 1.400 . S
C1064 H1049 0.960 . S
C1064 H1050 0.960 . S
C1064 H1051 0.960 . S
C1064 C1063 1.524 . S
C1065 C1062 1.403 . S
C1065 C1066 1.392 1_554 S
C1065 C1069 1.495 . S
C1066 C1065 1.392 1_556 S
C1066 C1067 1.385 . S
C1066 C1068 1.478 . S
C1067 H1061 0.930 . S
C1067 C1063 1.400 . S
C1067 C1066 1.385 . S
C1068 C1066 1.478 . S
C1068 C1070 1.381 1_545 S
C1068 C1074 1.382 . S
C1069 C1065 1.495 . S
C1069 H1075 0.959 . S
C1069 H1076 0.961 . S
C1069 H1077 0.960 . S
C1070 C1068 1.381 1_565 S
C1070 C1071 1.394 . S
C1070 H1078 0.930 1_565 S
C1071 C1070 1.394 . S
C1071 C1072 1.383 . S
C1071 H1079 0.929 . S
C1072 C1071 1.383 . S
C1072 C1073 1.377 . S
C1073 H1057 0.930 . S
C1073 C1072 1.377 . S
C1073 C1074 1.375 1_565 S
C1074 H1058 0.936 . S
C1074 C1068 1.382 . S
C1074 C1073 1.375 1_545 S
H1075 C1069 0.959 . S
H1076 C1069 0.961 . S
H1077 C1069 0.960 . S
H1078 C1070 0.930 1_545 S
H1079 C1071 0.929 . S
H1080 C1088 0.929 . S
H1081 C1090 0.930 . S
H1082 C1092 0.930 . S
H1083 C1095 0.929 1_554 S
H1084 C1098 0.930 . S
H1085 C1100 0.960 . S
H1086 C1100 0.960 . S
H1087 C1100 0.960 . S
C1088 H1080 0.929 . S
C1088 C1089 1.377 . S
C1088 C1090 1.384 . S
C1089 C1088 1.377 . S
C1089 C1095 1.390 . S
C1090 H1081 0.930 . S
C1090 C1088 1.384 . S
C1090 C1091 1.372 . S
C1091 C1090 1.372 . S
C1091 C1092 1.400 1_556 S
C1091 C1096 1.490 . S
C1092 H1082 0.930 . S
C1092 C1091 1.400 1_554 S
C1092 C1095 1.386 1_554 S
H1093 C1109 0.930 . S
H1094 C1110 0.931 . S
C1095 H1083 0.929 1_556 S
C1095 C1089 1.390 . S
C1095 C1092 1.386 1_556 S
C1096 C1091 1.490 . S
C1096 C1098 1.395 . S
C1096 C1099 1.403 1_556 S
H1097 C1103 0.930 . S
C1098 H1084 0.930 . S
C1098 C1096 1.395 . S
C1098 C1101 1.403 . S
C1099 C1096 1.403 1_554 S
C1099 C1100 1.524 . S
C1099 C1103 1.400 . S
C1100 H1085 0.960 . S
C1100 H1086 0.960 . S
C1100 H1087 0.960 . S
C1100 C1099 1.524 . S
C1101 C1098 1.403 . S
C1101 C1102 1.392 1_556 S
C1101 C1105 1.495 . S
C1102 C1101 1.392 1_554 S
C1102 C1103 1.385 . S
C1102 C1104 1.478 1_455 S
C1103 H1097 0.930 . S
C1103 C1099 1.400 . S
C1103 C1102 1.385 . S
C1104 C1102 1.478 1_655 S
C1104 C1106 1.381 . S
C1104 C1110 1.383 . S
C1105 C1101 1.495 . S
C1105 H1111 0.959 . S
C1105 H1112 0.961 1_455 S
C1105 H1113 0.960 1_455 S
C1106 C1104 1.381 . S
C1106 C1107 1.394 . S
C1106 H1114 0.930 1_554 S
C1107 C1106 1.394 . S
C1107 C1108 1.383 . S
C1107 H1115 0.929 . S
C1108 C1107 1.383 . S
C1108 C1109 1.377 . S
C1109 H1093 0.930 . S
C1109 C1108 1.377 . S
C1109 C1110 1.379 . S
C1110 H1094 0.931 . S
C1110 C1104 1.383 . S
C1110 C1109 1.379 . S
H1111 C1105 0.959 . S
H1112 C1105 0.961 1_655 S
H1113 C1105 0.960 1_655 S
H1114 C1106 0.930 1_556 S
H1115 C1107 0.929 . S
H1116 C1124 0.929 . S
H1117 C1126 0.930 1_554 S
H1118 C1128 0.930 . S
H1119 C1131 0.929 . S
H1120 C1134 0.930 . S
H1121 C1136 0.960 . S
H1122 C1136 0.960 . S
H1123 C1136 0.960 1_556 S
C1124 H1116 0.929 . S
C1124 C1125 1.377 . S
C1124 C1126 1.384 . S
C1125 C1124 1.377 . S
C1125 C1131 1.390 . S
C1126 H1117 0.930 1_556 S
C1126 C1124 1.384 . S
C1126 C1127 1.372 . S
C1127 C1126 1.372 . S
C1127 C1128 1.400 . S
C1127 C1132 1.490 . S
C1128 H1118 0.930 . S
C1128 C1127 1.400 . S
C1128 C1131 1.386 . S
H1129 C1145 0.930 . S
H1130 C1146 0.931 . S
C1131 H1119 0.929 . S
C1131 C1125 1.390 . S
C1131 C1128 1.386 . S
C1132 C1127 1.490 . S
C1132 C1134 1.395 . S
C1132 C1135 1.403 . S
H1133 C1139 0.930 . S
C1134 H1120 0.930 . S
C1134 C1132 1.395 . S
C1134 C1137 1.403 . S
C1135 C1132 1.403 . S
C1135 C1136 1.524 1_556 S
C1135 C1139 1.400 1_556 S
C1136 H1121 0.960 . S
C1136 H1122 0.960 . S
C1136 H1123 0.960 1_554 S
C1136 C1135 1.524 1_554 S
C1137 C1134 1.403 . S
C1137 C1138 1.392 . S
C1137 C1141 1.495 . S
C1138 C1137 1.392 . S
C1138 C1139 1.385 1_556 S
C1138 C1140 1.478 1_556 S
C1139 H1133 0.930 . S
C1139 C1135 1.400 1_554 S
C1139 C1138 1.385 1_554 S
C1140 C1138 1.478 1_554 S
C1140 C1142 1.381 . S
C1140 C1146 1.383 1_554 S
C1141 C1137 1.495 . S
C1141 H1147 0.959 . S
C1141 H1148 0.961 . S
C1141 H1149 0.960 . S
C1142 C1140 1.381 . S
C1142 C1143 1.394 . S
C1142 H1150 0.930 . S
C1143 C1142 1.394 . S
C1143 C1144 1.383 . S
C1143 H1151 0.929 . S
C1144 C1143 1.383 . S
C1144 C1145 1.377 1_554 S
C1145 H1129 0.930 . S
C1145 C1144 1.377 1_556 S
C1145 C1146 1.379 . S
C1146 H1130 0.931 . S
C1146 C1140 1.383 1_556 S
C1146 C1145 1.379 . S
H1147 C1141 0.959 . S
H1148 C1141 0.961 . S
H1149 C1141 0.960 . S
H1150 C1142 0.930 . S
H1151 C1143 0.929 . S
H1152 C1160 0.929 . S
H1153 C1162 0.930 . S
H1154 C1164 0.930 . S
H1155 C1167 0.929 . S
H1156 C1170 0.930 . S
H1157 C1172 0.960 . S
H1158 C1172 0.960 . S
H1159 C1172 0.960 . S
C1160 H1152 0.929 . S
C1160 C1161 1.377 . S
C1160 C1162 1.384 . S
C1161 C1160 1.377 . S
C1161 C1167 1.390 . S
C1162 H1153 0.930 . S
C1162 C1160 1.384 . S
C1162 C1163 1.372 . S
C1163 C1162 1.372 . S
C1163 C1164 1.400 . S
C1163 C1168 1.490 . S
C1164 H1154 0.930 . S
C1164 C1163 1.400 . S
C1164 C1167 1.386 . S
H1165 C1181 0.930 . S
H1166 C1182 0.931 . S
C1167 H1155 0.929 . S
C1167 C1161 1.390 . S
C1167 C1164 1.386 . S
C1168 C1163 1.490 . S
C1168 C1170 1.395 1_556 S
C1168 C1171 1.403 . S
H1169 C1175 0.930 . S
C1170 H1156 0.930 . S
C1170 C1168 1.395 1_554 S
C1170 C1173 1.403 . S
C1171 C1168 1.403 . S
C1171 C1172 1.524 . S
C1171 C1175 1.400 . S
C1172 H1157 0.960 . S
C1172 H1158 0.960 . S
C1172 H1159 0.960 . S
C1172 C1171 1.524 . S
C1173 C1170 1.403 . S
C1173 C1174 1.392 . S
C1173 C1177 1.495 . S
C1174 C1173 1.392 . S
C1174 C1175 1.385 1_554 S
C1174 C1176 1.478 . S
C1175 H1169 0.930 . S
C1175 C1171 1.400 . S
C1175 C1174 1.385 1_556 S
C1176 C1174 1.478 . S
C1176 C1178 1.381 . S
C1176 C1182 1.383 . S
C1177 C1173 1.495 . S
C1177 H1183 0.959 . S
C1177 H1184 0.961 . S
C1177 H1185 0.960 . S
C1178 C1176 1.381 . S
C1178 C1179 1.394 . S
C1178 H1186 0.930 . S
C1179 C1178 1.394 . S
C1179 C1180 1.383 . S
C1179 H1187 0.929 . S
C1180 C1179 1.383 . S
C1180 C1181 1.377 . S
C1181 H1165 0.930 . S
C1181 C1180 1.377 . S
C1181 C1182 1.379 . S
C1182 H1166 0.931 . S
C1182 C1176 1.383 . S
C1182 C1181 1.379 . S
H1183 C1177 0.959 . S
H1184 C1177 0.961 . S
H1185 C1177 0.960 . S
H1186 C1178 0.930 . S
H1187 C1179 0.929 . S
H1188 C1196 0.929 . S
H1189 C1198 0.930 . S
H1190 C1200 0.930 . S
H1191 C1203 0.929 . S
H1192 C1206 0.930 . S
H1193 C1208 0.960 . S
H1194 C1208 0.960 . S
H1195 C1208 0.960 . S
C1196 H1188 0.929 . S
C1196 C1197 1.377 . S
C1196 C1198 1.384 . S
C1197 C1196 1.377 . S
C1197 C1203 1.390 . S
C1198 H1189 0.930 . S
C1198 C1196 1.384 . S
C1198 C1199 1.372 . S
C1199 C1198 1.372 . S
C1199 C1200 1.400 . S
C1199 C1204 1.490 . S
C1200 H1190 0.930 . S
C1200 C1199 1.400 . S
C1200 C1203 1.386 . S
H1201 C1217 0.930 . S
H1202 C1218 0.931 1_556 S
C1203 H1191 0.929 . S
C1203 C1197 1.390 . S
C1203 C1200 1.386 . S
C1204 C1199 1.490 . S
C1204 C1206 1.395 1_556 S
C1204 C1207 1.403 . S
H1205 C1211 0.930 . S
C1206 H1192 0.930 . S
C1206 C1204 1.395 1_554 S
C1206 C1209 1.403 . S
C1207 C1204 1.403 . S
C1207 C1208 1.524 . S
C1207 C1211 1.400 . S
C1208 H1193 0.960 . S
C1208 H1194 0.960 . S
C1208 H1195 0.960 . S
C1208 C1207 1.524 . S
C1209 C1206 1.403 . S
C1209 C1210 1.392 . S
C1209 C1213 1.495 . S
C1210 C1209 1.392 . S
C1210 C1211 1.385 1_554 S
C1210 C1212 1.478 . S
C1211 H1205 0.930 . S
C1211 C1207 1.400 . S
C1211 C1210 1.385 1_556 S
C1212 C1210 1.478 . S
C1212 C1214 1.381 . S
C1212 C1218 1.383 . S
C1213 C1209 1.495 . S
C1213 H1219 0.959 . S
C1213 H1220 0.961 . S
C1213 H1221 0.960 . S
C1214 C1212 1.381 . S
C1214 C1215 1.394 . S
C1214 H1222 0.930 . S
C1215 C1214 1.394 . S
C1215 C1216 1.383 . S
C1215 H1223 0.929 . S
C1216 C1215 1.383 . S
C1216 C1217 1.377 . S
C1217 H1201 0.930 . S
C1217 C1216 1.377 . S
C1217 C1218 1.379 . S
C1218 H1202 0.931 1_554 S
C1218 C1212 1.383 . S
C1218 C1217 1.379 . S
H1219 C1213 0.959 . S
H1220 C1213 0.961 . S
H1221 C1213 0.960 . S
H1222 C1214 0.930 . S
H1223 C1215 0.929 . S
H1224 C1232 0.929 . S
H1225 C1234 0.930 . S
H1226 C1236 0.930 . S
H1227 C1239 0.929 . S
H1228 C1242 0.930 . S
H1229 C1244 0.960 . S
H1230 C1244 0.960 . S
H1231 C1244 0.960 1_554 S
C1232 H1224 0.929 . S
C1232 C1233 1.377 . S
C1232 C1234 1.384 . S
C1233 C1232 1.377 . S
C1233 C1239 1.390 . S
C1234 H1225 0.930 . S
C1234 C1232 1.384 . S
C1234 C1235 1.372 . S
C1235 C1234 1.372 . S
C1235 C1236 1.400 . S
C1235 C1240 1.490 . S
C1236 H1226 0.930 . S
C1236 C1235 1.400 . S
C1236 C1239 1.386 . S
H1237 C1253 0.930 . S
H1238 C1254 0.931 . S
C1239 H1227 0.929 . S
C1239 C1233 1.390 . S
C1239 C1236 1.386 . S
C1240 C1235 1.490 . S
C1240 C1242 1.395 . S
C1240 C1243 1.403 . S
H1241 C1247 0.930 . S
C1242 H1228 0.930 . S
C1242 C1240 1.395 . S
C1242 C1245 1.403 . S
C1243 C1240 1.403 . S
C1243 C1244 1.524 1_554 S
C1243 C1247 1.400 1_554 S
C1244 H1229 0.960 . S
C1244 H1230 0.960 . S
C1244 H1231 0.960 1_556 S
C1244 C1243 1.524 1_556 S
C1245 C1242 1.403 . S
C1245 C1246 1.392 . S
C1245 C1249 1.495 . S
C1246 C1245 1.392 . S
C1246 C1247 1.385 1_554 S
C1246 C1248 1.478 . S
C1247 H1241 0.930 . S
C1247 C1243 1.400 1_556 S
C1247 C1246 1.385 1_556 S
C1248 C1246 1.478 . S
C1248 C1250 1.381 1_554 S
C1248 C1254 1.383 . S
C1249 C1245 1.495 . S
C1249 H1255 0.959 . S
C1249 H1256 0.961 . S
C1249 H1257 0.960 . S
C1250 C1248 1.381 1_556 S
C1250 C1251 1.394 . S
C1250 H1258 0.930 . S
C1251 C1250 1.394 . S
C1251 C1252 1.383 . S
C1251 H1259 0.929 . S
C1252 C1251 1.383 . S
C1252 C1253 1.377 1_556 S
C1253 H1237 0.930 . S
C1253 C1252 1.377 1_554 S
C1253 C1254 1.379 . S
C1254 H1238 0.931 . S
C1254 C1248 1.383 . S
C1254 C1253 1.379 . S
H1255 C1249 0.959 . S
H1256 C1249 0.961 . S
H1257 C1249 0.960 . S
H1258 C1250 0.930 . S
H1259 C1251 0.929 . S
H1260 C1268 0.929 1_554 S
H1261 C1270 0.930 . S
H1262 C1272 0.930 . S
H1263 C1275 0.929 . S
H1264 C1278 0.930 . S
H1265 C1280 0.960 . S
H1266 C1280 0.960 . S
H1267 C1280 0.960 . S
C1268 H1260 0.929 1_556 S
C1268 C1269 1.377 . S
C1268 C1270 1.384 1_556 S
C1269 C1268 1.377 . S
C1269 C1275 1.390 . S
C1270 H1261 0.930 . S
C1270 C1268 1.384 1_554 S
C1270 C1271 1.372 1_554 S
C1271 C1270 1.372 1_556 S
C1271 C1272 1.400 . S
C1271 C1276 1.490 1_556 S
C1272 H1262 0.930 . S
C1272 C1271 1.400 . S
C1272 C1275 1.386 . S
H1273 C1289 0.930 . S
H1274 C1290 0.931 . S
C1275 H1263 0.929 . S
C1275 C1269 1.390 . S
C1275 C1272 1.386 . S
C1276 C1271 1.490 1_554 S
C1276 C1278 1.395 . S
C1276 C1279 1.403 1_554 S
H1277 C1283 0.930 . S
C1278 H1264 0.930 . S
C1278 C1276 1.395 . S
C1278 C1281 1.403 . S
C1279 C1276 1.403 1_556 S
C1279 C1280 1.524 . S
C1279 C1283 1.400 . S
C1280 H1265 0.960 . S
C1280 H1266 0.960 . S
C1280 H1267 0.960 . S
C1280 C1279 1.524 . S
C1281 C1278 1.403 . S
C1281 C1282 1.392 . S
C1281 C1285 1.495 . S
C1282 C1281 1.392 . S
C1282 C1283 1.385 1_554 S
C1282 C1284 1.478 . S
C1283 H1277 0.930 . S
C1283 C1279 1.400 . S
C1283 C1282 1.385 1_556 S
C1284 C1282 1.478 . S
C1284 C1286 1.381 . S
C1284 C1290 1.383 . S
C1285 C1281 1.495 . S
C1285 H1291 0.959 . S
C1285 H1292 0.961 . S
C1285 H1293 0.960 . S
C1286 C1284 1.381 . S
C1286 C1287 1.394 . S
C1286 H1294 0.930 . S
C1287 C1286 1.394 . S
C1287 C1288 1.383 . S
C1287 H1295 0.929 . S
C1288 C1287 1.383 . S
C1288 C1289 1.377 . S
C1289 H1273 0.930 . S
C1289 C1288 1.377 . S
C1289 C1290 1.379 . S
C1290 H1274 0.931 . S
C1290 C1284 1.383 . S
C1290 C1289 1.379 . S
H1291 C1285 0.959 . S
H1292 C1285 0.961 . S
H1293 C1285 0.960 . S
H1294 C1286 0.930 . S
H1295 C1287 0.929 . S
H1296 C1304 0.929 . S
H1297 C1306 0.930 . S
H1298 C1308 0.930 . S
H1299 C1311 0.929 . S
H1300 C1314 0.930 . S
H1301 C1316 0.960 . S
H1302 C1316 0.960 . S
H1303 C1316 0.960 1_554 S
C1304 H1296 0.929 . S
C1304 C1305 1.377 . S
C1304 C1306 1.384 . S
C1305 C1304 1.377 . S
C1305 C1311 1.390 . S
C1306 H1297 0.930 . S
C1306 C1304 1.384 . S
C1306 C1307 1.372 . S
C1307 C1306 1.372 . S
C1307 C1308 1.400 . S
C1307 C1312 1.490 . S
C1308 H1298 0.930 . S
C1308 C1307 1.400 . S
C1308 C1311 1.386 . S
H1309 C1325 0.930 . S
H1310 C1326 0.931 . S
C1311 H1299 0.929 . S
C1311 C1305 1.390 . S
C1311 C1308 1.386 . S
C1312 C1307 1.490 . S
C1312 C1314 1.395 . S
C1312 C1315 1.403 . S
H1313 C1319 0.927 1_556 S
C1314 H1300 0.930 . S
C1314 C1312 1.395 . S
C1314 C1317 1.403 . S
C1315 C1312 1.403 . S
C1315 C1316 1.524 1_554 S
C1315 C1319 1.401 . S
C1316 H1301 0.960 . S
C1316 H1302 0.960 . S
C1316 H1303 0.960 1_556 S
C1316 C1315 1.524 1_556 S
C1317 C1314 1.403 . S
C1317 C1318 1.392 . S
C1317 C1321 1.495 . S
C1318 C1317 1.392 . S
C1318 C1319 1.387 . S
C1318 C1320 1.478 . S
C1319 H1313 0.927 1_554 S
C1319 C1315 1.401 . S
C1319 C1318 1.387 . S
C1320 C1318 1.478 . S
C1320 C1322 1.381 1_554 S
C1320 C1326 1.383 . S
C1321 C1317 1.495 . S
C1321 H1327 0.959 . S
C1321 H1328 0.961 . S
C1321 H1329 0.960 . S
C1322 C1320 1.381 1_556 S
C1322 C1323 1.394 . S
C1322 H1330 0.930 . S
C1323 C1322 1.394 . S
C1323 C1324 1.383 . S
C1323 H1331 0.929 . S
C1324 C1323 1.383 . S
C1324 C1325 1.377 1_556 S
C1325 H1309 0.930 . S
C1325 C1324 1.377 1_554 S
C1325 C1326 1.379 . S
C1326 H1310 0.931 . S
C1326 C1320 1.383 . S
C1326 C1325 1.379 . S
H1327 C1321 0.959 . S
H1328 C1321 0.961 . S
H1329 C1321 0.960 . S
H1330 C1322 0.930 . S
H1331 C1323 0.929 . S
H1332 C1340 0.929 . S
H1333 C1342 0.930 . S
H1334 C1344 0.930 . S
H1335 C1347 0.929 . S
H1336 C1350 0.930 . S
H1337 C1352 0.960 . S
H1338 C1352 0.960 . S
H1339 C1352 0.960 . S
C1340 H1332 0.929 . S
C1340 C1341 1.377 1_556 S
C1340 C1342 1.384 . S
C1341 C1340 1.377 1_554 S
C1341 C1347 1.390 . S
C1342 H1333 0.930 . S
C1342 C1340 1.384 . S
C1342 C1343 1.372 1_556 S
C1343 C1342 1.372 1_554 S
C1343 C1344 1.400 . S
C1343 C1348 1.490 1_554 S
C1344 H1334 0.930 . S
C1344 C1343 1.400 . S
C1344 C1347 1.386 . S
H1345 C1361 0.930 . S
H1346 C1362 0.931 1_554 S
C1347 H1335 0.929 . S
C1347 C1341 1.390 . S
C1347 C1344 1.386 . S
C1348 C1343 1.490 1_556 S
C1348 C1350 1.395 . S
C1348 C1351 1.403 1_556 S
H1349 C1355 0.930 . S
C1350 H1336 0.930 . S
C1350 C1348 1.395 . S
C1350 C1353 1.403 . S
C1351 C1348 1.403 1_554 S
C1351 C1352 1.524 . S
C1351 C1355 1.400 . S
C1352 H1337 0.960 . S
C1352 H1338 0.960 . S
C1352 H1339 0.960 . S
C1352 C1351 1.524 . S
C1353 C1350 1.403 . S
C1353 C1354 1.392 . S
C1353 C1357 1.495 . S
C1354 C1353 1.392 . S
C1354 C1355 1.385 1_556 S
C1354 C1356 1.478 . S
C1355 H1349 0.930 . S
C1355 C1351 1.400 . S
C1355 C1354 1.385 1_554 S
C1356 C1354 1.478 . S
C1356 C1358 1.381 . S
C1356 C1362 1.383 . S
C1357 C1353 1.495 . S
C1357 H1363 0.959 . S
C1357 H1364 0.961 . S
C1357 H1365 0.960 . S
C1358 C1356 1.381 . S
C1358 C1359 1.394 . S
C1358 H1366 0.930 . S
C1359 C1358 1.394 . S
C1359 C1360 1.383 . S
C1359 H1367 0.929 . S
C1360 C1359 1.383 . S
C1360 C1361 1.377 . S
C1361 H1345 0.930 . S
C1361 C1360 1.377 . S
C1361 C1362 1.379 . S
C1362 H1346 0.931 1_556 S
C1362 C1356 1.383 . S
C1362 C1361 1.379 . S
H1363 C1357 0.959 . S
H1364 C1357 0.961 . S
H1365 C1357 0.960 . S
H1366 C1358 0.930 . S
H1367 C1359 0.929 . S
H1368 C1376 0.929 . S
H1369 C1378 0.930 . S
H1370 C1380 0.930 . S
H1371 C1383 0.929 . S
H1372 C1386 0.930 . S
H1373 C1388 0.960 . S
H1374 C1388 0.960 . S
H1375 C1388 0.960 . S
C1376 H1368 0.929 . S
C1376 C1377 1.377 . S
C1376 C1378 1.384 . S
C1377 C1376 1.377 . S
C1377 C1383 1.390 . S
C1378 H1369 0.930 . S
C1378 C1376 1.384 . S
C1378 C1379 1.372 . S
C1379 C1378 1.372 . S
C1379 C1380 1.400 . S
C1379 C1384 1.490 . S
C1380 H1370 0.930 . S
C1380 C1379 1.400 . S
C1380 C1383 1.386 . S
H1381 C1397 0.930 . S
H1382 C1398 0.931 . S
C1383 H1371 0.929 . S
C1383 C1377 1.390 . S
C1383 C1380 1.386 . S
C1384 C1379 1.490 . S
C1384 C1386 1.395 1_556 S
C1384 C1387 1.403 . S
H1385 C1391 0.930 . S
C1386 H1372 0.930 . S
C1386 C1384 1.395 1_554 S
C1386 C1389 1.403 . S
C1387 C1384 1.403 . S
C1387 C1388 1.524 . S
C1387 C1391 1.400 . S
C1388 H1373 0.960 . S
C1388 H1374 0.960 . S
C1388 H1375 0.960 . S
C1388 C1387 1.524 . S
C1389 C1386 1.403 . S
C1389 C1390 1.392 . S
C1389 C1393 1.495 . S
C1390 C1389 1.392 . S
C1390 C1391 1.385 1_554 S
C1390 C1392 1.478 . S
C1391 H1385 0.930 . S
C1391 C1387 1.400 . S
C1391 C1390 1.385 1_556 S
C1392 C1390 1.478 . S
C1392 C1394 1.381 . S
C1392 C1398 1.383 . S
C1393 C1389 1.495 . S
C1393 H1399 0.959 . S
C1393 H1400 0.961 . S
C1393 H1401 0.960 . S
C1394 C1392 1.381 . S
C1394 C1395 1.394 . S
C1394 H1402 0.930 . S
C1395 C1394 1.394 . S
C1395 C1396 1.383 . S
C1395 H1403 0.929 . S
C1396 C1395 1.383 . S
C1396 C1397 1.377 . S
C1397 H1381 0.930 . S
C1397 C1396 1.377 . S
C1397 C1398 1.379 . S
C1398 H1382 0.931 . S
C1398 C1392 1.383 . S
C1398 C1397 1.379 . S
H1399 C1393 0.959 . S
H1400 C1393 0.961 . S
H1401 C1393 0.960 . S
H1402 C1394 0.930 . S
H1403 C1395 0.929 . S
H1404 C1412 0.929 . S
H1405 C1414 0.930 . S
H1406 C1416 0.930 . S
H1407 C1419 0.929 . S
H1408 C1422 0.930 . S
H1409 C1424 0.960 . S
H1410 C1424 0.960 . S
H1411 C1424 0.960 . S
C1412 H1404 0.929 . S
C1412 C1413 1.377 . S
C1412 C1414 1.384 . S
C1413 C1412 1.377 . S
C1413 C1419 1.390 . S
C1414 H1405 0.930 . S
C1414 C1412 1.384 . S
C1414 C1415 1.372 . S
C1415 C1414 1.372 . S
C1415 C1416 1.400 . S
C1415 C1420 1.490 . S
C1416 H1406 0.930 . S
C1416 C1415 1.400 . S
C1416 C1419 1.386 . S
H1417 C1433 0.930 . S
H1418 C1434 0.931 . S
C1419 H1407 0.929 . S
C1419 C1413 1.390 . S
C1419 C1416 1.386 . S
C1420 C1415 1.490 . S
C1420 C1422 1.395 1_556 S
C1420 C1423 1.403 . S
H1421 C1427 0.930 . S
C1422 H1408 0.930 . S
C1422 C1420 1.395 1_554 S
C1422 C1425 1.403 . S
C1423 C1420 1.403 . S
C1423 C1424 1.524 . S
C1423 C1427 1.400 . S
C1424 H1409 0.960 . S
C1424 H1410 0.960 . S
C1424 H1411 0.960 . S
C1424 C1423 1.524 . S
C1425 C1422 1.403 . S
C1425 C1426 1.392 . S
C1425 C1429 1.495 . S
C1426 C1425 1.392 . S
C1426 C1427 1.385 1_554 S
C1426 C1428 1.478 . S
C1427 H1421 0.930 . S
C1427 C1423 1.400 . S
C1427 C1426 1.385 1_556 S
C1428 C1426 1.478 . S
C1428 C1430 1.381 . S
C1428 C1434 1.383 . S
C1429 C1425 1.495 . S
C1429 H1435 0.959 . S
C1429 H1436 0.961 . S
C1429 H1437 0.960 . S
C1430 C1428 1.381 . S
C1430 C1431 1.394 . S
C1430 H1438 0.930 1_554 S
C1431 C1430 1.394 . S
C1431 C1432 1.383 . S
C1431 H1439 0.929 . S
C1432 C1431 1.383 . S
C1432 C1433 1.377 . S
C1433 H1417 0.930 . S
C1433 C1432 1.377 . S
C1433 C1434 1.379 . S
C1434 H1418 0.931 . S
C1434 C1428 1.383 . S
C1434 C1433 1.379 . S
H1435 C1429 0.959 . S
H1436 C1429 0.961 . S
H1437 C1429 0.960 . S
H1438 C1430 0.930 1_556 S
H1439 C1431 0.929 . S
H1440 C1448 0.929 . S
H1441 C1450 0.930 . S
H1442 C1452 0.930 . S
H1443 C1455 0.929 . S
H1444 C1458 0.930 . S
H1445 C1460 0.960 . S
H1446 C1460 0.960 . S
H1447 C1460 0.960 1_554 S
C1448 H1440 0.929 . S
C1448 C1449 1.377 . S
C1448 C1450 1.384 . S
C1449 C1448 1.377 . S
C1449 C1455 1.390 1_556 S
C1450 H1441 0.930 . S
C1450 C1448 1.384 . S
C1450 C1451 1.372 . S
C1451 C1450 1.372 . S
C1451 C1452 1.400 1_556 S
C1451 C1456 1.490 . S
C1452 H1442 0.930 . S
C1452 C1451 1.400 1_554 S
C1452 C1455 1.386 . S
H1453 C1469 0.930 . S
H1454 C1470 0.931 . S
C1455 H1443 0.929 . S
C1455 C1449 1.390 1_554 S
C1455 C1452 1.386 . S
C1456 C1451 1.490 . S
C1456 C1458 1.395 1_556 S
C1456 C1459 1.403 1_556 S
H1457 C1463 0.930 . S
C1458 H1444 0.930 . S
C1458 C1456 1.395 1_554 S
C1458 C1461 1.403 . S
C1459 C1456 1.403 1_554 S
C1459 C1460 1.524 1_554 S
C1459 C1463 1.400 . S
C1460 H1445 0.960 . S
C1460 H1446 0.960 . S
C1460 H1447 0.960 1_556 S
C1460 C1459 1.524 1_556 S
C1461 C1458 1.403 . S
C1461 C1462 1.392 . S
C1461 C1465 1.495 . S
C1462 C1461 1.392 . S
C1462 C1463 1.385 . S
C1462 C1464 1.478 . S
C1463 H1457 0.930 . S
C1463 C1459 1.400 . S
C1463 C1462 1.385 . S
C1464 C1462 1.478 . S
C1464 C1466 1.381 . S
C1464 C1470 1.383 . S
C1465 C1461 1.495 . S
C1465 H1471 0.959 . S
C1465 H1472 0.961 . S
C1465 H1473 0.960 . S
C1466 C1464 1.381 . S
C1466 C1467 1.394 . S
C1466 H1474 0.930 1_554 S
C1467 C1466 1.394 . S
C1467 C1468 1.383 . S
C1467 H1475 0.929 1_554 S
C1468 C1467 1.383 . S
C1468 C1469 1.377 . S
C1469 H1453 0.930 . S
C1469 C1468 1.377 . S
C1469 C1470 1.379 . S
C1470 H1454 0.931 . S
C1470 C1464 1.383 . S
C1470 C1469 1.379 . S
H1471 C1465 0.959 . S
H1472 C1465 0.961 . S
H1473 C1465 0.960 . S
H1474 C1466 0.930 1_556 S
H1475 C1467 0.929 1_556 S
H1476 C1484 0.929 . S
H1477 C1486 0.930 . S
H1478 C1488 0.930 . S
H1479 C1491 0.929 . S
H1480 C1494 0.930 . S
H1481 C1496 0.960 . S
H1482 C1496 0.960 . S
H1483 C1496 0.960 1_554 S
C1484 H1476 0.929 . S
C1484 C1485 1.377 . S
C1484 C1486 1.384 . S
C1485 C1484 1.377 . S
C1485 C1491 1.390 1_556 S
C1486 H1477 0.930 . S
C1486 C1484 1.384 . S
C1486 C1487 1.372 . S
C1487 C1486 1.372 . S
C1487 C1488 1.400 1_556 S
C1487 C1492 1.490 . S
C1488 H1478 0.930 . S
C1488 C1487 1.400 1_554 S
C1488 C1491 1.386 . S
H1489 C1505 0.930 . S
H1490 C1506 0.931 . S
C1491 H1479 0.929 . S
C1491 C1485 1.390 1_554 S
C1491 C1488 1.386 . S
C1492 C1487 1.490 . S
C1492 C1494 1.395 1_556 S
C1492 C1495 1.403 1_556 S
H1493 C1499 0.930 . S
C1494 H1480 0.930 . S
C1494 C1492 1.395 1_554 S
C1494 C1497 1.403 . S
C1495 C1492 1.403 1_554 S
C1495 C1496 1.524 1_554 S
C1495 C1499 1.400 . S
C1496 H1481 0.960 . S
C1496 H1482 0.960 . S
C1496 H1483 0.960 1_556 S
C1496 C1495 1.524 1_556 S
C1497 C1494 1.403 . S
C1497 C1498 1.392 . S
C1497 C1501 1.495 . S
C1498 C1497 1.392 . S
C1498 C1499 1.385 . S
C1498 C1500 1.478 . S
C1499 H1493 0.930 . S
C1499 C1495 1.400 . S
C1499 C1498 1.385 . S
C1500 C1498 1.478 . S
C1500 C1502 1.381 . S
C1500 C1506 1.383 . S
C1501 C1497 1.495 . S
C1501 H1507 0.959 . S
C1501 H1508 0.961 . S
C1501 H1509 0.960 . S
C1502 C1500 1.381 . S
C1502 C1503 1.394 . S
C1502 H1510 0.930 1_554 S
C1503 C1502 1.394 . S
C1503 C1504 1.383 . S
C1503 H1511 0.929 1_554 S
C1504 C1503 1.383 . S
C1504 C1505 1.377 . S
C1505 H1489 0.930 . S
C1505 C1504 1.377 . S
C1505 C1506 1.379 . S
C1506 H1490 0.931 . S
C1506 C1500 1.383 . S
C1506 C1505 1.379 . S
H1507 C1501 0.959 . S
H1508 C1501 0.961 . S
H1509 C1501 0.960 . S
H1510 C1502 0.930 1_556 S
H1511 C1503 0.929 1_556 S
H1512 C1520 0.929 . S
H1513 C1522 0.930 1_556 S
H1514 C1524 0.930 . S
H1515 C1527 0.929 . S
H1516 C1530 0.930 . S
H1517 C1532 0.960 . S
H1518 C1532 0.960 . S
H1519 C1532 0.960 1_554 S
C1520 H1512 0.929 . S
C1520 C1521 1.377 . S
C1520 C1522 1.384 . S
C1521 C1520 1.377 . S
C1521 C1527 1.390 . S
C1522 H1513 0.930 1_554 S
C1522 C1520 1.384 . S
C1522 C1523 1.372 . S
C1523 C1522 1.372 . S
C1523 C1524 1.400 . S
C1523 C1528 1.490 . S
C1524 H1514 0.930 . S
C1524 C1523 1.400 . S
C1524 C1527 1.386 . S
H1525 C1541 0.930 . S
H1526 C1542 0.931 . S
C1527 H1515 0.929 . S
C1527 C1521 1.390 . S
C1527 C1524 1.386 . S
C1528 C1523 1.490 . S
C1528 C1530 1.395 . S
C1528 C1531 1.403 1_554 S
H1529 C1535 0.930 . S
C1530 H1516 0.930 . S
C1530 C1528 1.395 . S
C1530 C1533 1.403 . S
C1531 C1528 1.403 1_556 S
C1531 C1532 1.524 . S
C1531 C1535 1.400 . S
C1532 H1517 0.960 . S
C1532 H1518 0.960 . S
C1532 H1519 0.960 1_556 S
C1532 C1531 1.524 . S
C1533 C1530 1.403 . S
C1533 C1534 1.392 . S
C1533 C1537 1.495 . S
C1534 C1533 1.392 . S
C1534 C1535 1.385 1_554 S
C1534 C1536 1.478 1_554 S
C1535 H1529 0.930 . S
C1535 C1531 1.400 . S
C1535 C1534 1.385 1_556 S
C1536 C1534 1.478 1_556 S
C1536 C1538 1.381 . S
C1536 C1542 1.383 1_556 S
C1537 C1533 1.495 . S
C1537 H1543 0.959 . S
C1537 H1544 0.961 . S
C1537 H1545 0.960 . S
C1538 C1536 1.381 . S
C1538 C1539 1.394 . S
C1538 H1546 0.930 . S
C1539 C1538 1.394 . S
C1539 C1540 1.383 . S
C1539 H1547 0.929 . S
C1540 C1539 1.383 . S
C1540 C1541 1.376 1_556 S
C1541 H1525 0.930 . S
C1541 C1540 1.376 1_554 S
C1541 C1542 1.380 . S
C1542 H1526 0.931 . S
C1542 C1536 1.383 1_554 S
C1542 C1541 1.380 . S
H1543 C1537 0.959 . S
H1544 C1537 0.961 . S
H1545 C1537 0.960 . S
H1546 C1538 0.930 . S
H1547 C1539 0.929 . S
C261 C213 1.680 . S
C280 C3 1.688 . S
C297 C22 1.734 . S
C316 C232 1.733 . S
C333 C36 1.730 . S
C352 C246 1.729 . S
C369 C162 2.472 1_556 S
C388 C31 2.367 . S
C405 C134 2.430 1_556 S
C424 C8 2.440 1_655 S
C441 C143 2.365 1_556 S
C460 C17 2.358 . S
C477 C92 1.670 . S
C496 C45 1.663 . S
C513 C64 1.719 . S
C532 C106 1.719 . S
C549 C78 1.716 . S
C568 C120 1.710 . S
C585 C73 2.412 1_565 S
C604 C199 2.382 . S
C621 C50 2.466 . S
C640 C176 2.475 1_554 S
C657 C59 2.350 . S
C676 C185 2.318 . S
C693 C115 1.715 . S
C712 C241 1.700 . S
C729 C218 1.830 . S
C748 C87 1.782 . S
C765 C101 1.696 . S
C784 C227 1.704 . S
C801 C171 1.769 . S
C820 C129 1.775 . S
C837 C148 1.806 . S
C856 C190 1.807 . S
C873 C157 1.832 . S
C892 C204 1.842 . S
C909 C9 0.835 . S
C928 C37 0.967 . S
C945 C7 0.973 . S
C964 C21 0.893 . S
C981 C23 0.932 . S
C1000 C35 0.868 . S
C1017 C51 0.847 . S
C1036 C79 0.961 . S
C1053 C63 0.867 . S
C1072 C49 0.908 . S
C1089 C65 0.989 . S
C1108 C77 0.876 . S
C1125 C91 0.602 . S
C1144 C121 0.562 . S
C1161 C105 0.615 . S
C1180 C93 0.676 . S
C1197 C119 0.629 . S
C1216 C107 0.690 . S
C1233 C135 0.862 . S
C1252 C161 1.025 . S
C1269 C133 1.023 . S
C1288 C147 1.006 . S
C1305 C163 0.859 . S
C1324 C149 0.961 . S
C1341 C205 1.030 . S
C1360 C177 0.951 . S
C1377 C189 0.955 . S
C1396 C175 1.032 . S
C1413 C203 0.975 . S
C1432 C191 1.045 . S
C1449 C247 0.645 . S
C1468 C219 0.675 . S
C1485 C217 0.576 . S
C1504 C231 0.547 . S
C1521 C245 0.604 . S
C1540 C233 0.571 . S
