# Generated by pormake.
# Topology uno, (4)-cn, num edge types: 1
# Building blocks:
#     Node 0, Type 0, BuildingBlock: ESEHIV_clean_sbu_0, # of connection points: 4
#     Node 1, Type 0, BuildingBlock: ESEHIV_clean_sbu_0, # of connection points: 4
#     Node 2, Type 0, BuildingBlock: ESEHIV_clean_sbu_0, # of connection points: 4
#     Node 3, Type 0, BuildingBlock: ESEHIV_clean_sbu_0, # of connection points: 4
#     Node 4, Type 0, BuildingBlock: ESEHIV_clean_sbu_0, # of connection points: 4
#     Node 5, Type 0, BuildingBlock: ESEHIV_clean_sbu_0, # of connection points: 4
#     Node 6, Type 0, BuildingBlock: ESEHIV_clean_sbu_0, # of connection points: 4
#     Node 7, Type 0, BuildingBlock: ESEHIV_clean_sbu_0, # of connection points: 4
#     Node 8, Type 0, BuildingBlock: ESEHIV_clean_sbu_0, # of connection points: 4
#     Node 9, Type 0, BuildingBlock: ESEHIV_clean_sbu_0, # of connection points: 4
#     Node 10, Type 0, BuildingBlock: ESEHIV_clean_sbu_0, # of connection points: 4
#     Node 11, Type 0, BuildingBlock: ESEHIV_clean_sbu_0, # of connection points: 4
#     Node 12, Type 0, BuildingBlock: ESEHIV_clean_sbu_0, # of connection points: 4
#     Node 13, Type 0, BuildingBlock: ESEHIV_clean_sbu_0, # of connection points: 4
#     Node 14, Type 0, BuildingBlock: ESEHIV_clean_sbu_0, # of connection points: 4
#     Node 15, Type 0, BuildingBlock: ESEHIV_clean_sbu_0, # of connection points: 4
#     Node 16, Type 0, BuildingBlock: ESEHIV_clean_sbu_0, # of connection points: 4
#     Node 17, Type 0, BuildingBlock: ESEHIV_clean_sbu_0, # of connection points: 4
#     Node 18, Type 0, BuildingBlock: ESEHIV_clean_sbu_0, # of connection points: 4
#     Node 19, Type 0, BuildingBlock: ESEHIV_clean_sbu_0, # of connection points: 4
#     Node 20, Type 0, BuildingBlock: ESEHIV_clean_sbu_0, # of connection points: 4
#     Node 21, Type 0, BuildingBlock: ESEHIV_clean_sbu_0, # of connection points: 4
#     Node 22, Type 0, BuildingBlock: ESEHIV_clean_sbu_0, # of connection points: 4
#     Node 23, Type 0, BuildingBlock: ESEHIV_clean_sbu_0, # of connection points: 4
#     Edge 24, Type (0, 0), None
#     Edge 25, Type (0, 0), None
#     Edge 26, Type (0, 0), None
#     Edge 27, Type (0, 0), None
#     Edge 28, Type (0, 0), None
#     Edge 29, Type (0, 0), None
#     Edge 30, Type (0, 0), None
#     Edge 31, Type (0, 0), None
#     Edge 32, Type (0, 0), None
#     Edge 33, Type (0, 0), None
#     Edge 34, Type (0, 0), None
#     Edge 35, Type (0, 0), None
#     Edge 36, Type (0, 0), None
#     Edge 37, Type (0, 0), None
#     Edge 38, Type (0, 0), None
#     Edge 39, Type (0, 0), None
#     Edge 40, Type (0, 0), None
#     Edge 41, Type (0, 0), None
#     Edge 42, Type (0, 0), None
#     Edge 43, Type (0, 0), None
#     Edge 44, Type (0, 0), None
#     Edge 45, Type (0, 0), None
#     Edge 46, Type (0, 0), None
#     Edge 47, Type (0, 0), None
#     Edge 48, Type (0, 0), None
#     Edge 49, Type (0, 0), None
#     Edge 50, Type (0, 0), None
#     Edge 51, Type (0, 0), None
#     Edge 52, Type (0, 0), None
#     Edge 53, Type (0, 0), None
#     Edge 54, Type (0, 0), None
#     Edge 55, Type (0, 0), None
#     Edge 56, Type (0, 0), None
#     Edge 57, Type (0, 0), None
#     Edge 58, Type (0, 0), None
#     Edge 59, Type (0, 0), None
#     Edge 60, Type (0, 0), None
#     Edge 61, Type (0, 0), None
#     Edge 62, Type (0, 0), None
#     Edge 63, Type (0, 0), None
#     Edge 64, Type (0, 0), None
#     Edge 65, Type (0, 0), None
#     Edge 66, Type (0, 0), None
#     Edge 67, Type (0, 0), None
#     Edge 68, Type (0, 0), None
#     Edge 69, Type (0, 0), None
#     Edge 70, Type (0, 0), None
#     Edge 71, Type (0, 0), None
# Relax obj value: 0.439
# Max RMSD: 0.257
# Mean RMSD: 0.207
data_MOF--net-uno--node1-ESEHIV_clean_sbu_0--edge1-none
_symmetry_space_group_name_H-M    P1
_symmetry_Int_Tables_number       1
_symmetry_cell_setting            triclinic
loop_
_symmetry_equiv_pos_as_xyz
'x, y, z'
_cell_length_a     26.090728
_cell_length_b     29.132741
_cell_length_c     28.411616
_cell_angle_alpha  90.025673
_cell_angle_beta   90.101731
_cell_angle_gamma 96.278792
loop_
_atom_site_label
_atom_site_type_symbol
_atom_site_fract_x
_atom_site_fract_y
_atom_site_fract_z
_atom_type_partial_charge
Cu0 Cu 0.03345 0.16708 0.22834 0.0
N1 N 0.0907 0.14351 0.25114 0.0
N2 N 0.14523 0.09116 0.25824 0.0
C3 C 0.10539 0.10429 0.23402 0.0
C4 C 0.15675 0.12337 0.29188 0.0
C5 C 0.12214 0.15581 0.28769 0.0
O6 O 0.97894 0.12631 0.25907 0.0
C7 C 0.08475 0.17771 0.13959 0.0
O8 O 0.12169 0.19868 0.16553 0.0
H9 H 0.08773 0.08638 0.20378 0.0
H10 H 0.11978 0.18582 0.30967 0.0
N11 N 0.03082 0.22632 0.25247 0.0
N12 N 0.05125 0.29941 0.27471 0.0
C13 C 0.06611 0.26359 0.24984 0.0
C14 C 0.99283 0.23907 0.27999 0.0
C15 C 1.00509 0.28436 0.29347 0.0
C16 C 0.96985 0.08327 0.25065 0.0
O17 O 0.98423 0.06725 0.21012 0.0
H18 H 0.10113 0.26467 0.22941 0.0
H19 H 0.95845 0.21686 0.28947 0.0
O20 O 0.04126 0.16412 0.15901 0.0
H21 H 0.18782 0.12354 0.31718 0.0
H22 H 0.98156 0.30481 0.31453 0.0
Cu23 Cu 0.09904 0.79952 0.46272 0.0
N24 N 0.06798 0.85191 0.44288 0.0
N25 N 1.00784 0.89725 0.41941 0.0
C26 C 0.02538 0.87201 0.45534 0.0
C27 C 0.03969 0.89148 0.38353 0.0
C28 C 0.07663 0.86486 0.39793 0.0
O29 O 0.0453 0.74824 0.4504 0.0
C30 C 0.20155 0.83352 0.43947 0.0
O31 O 0.19902 0.85134 0.4817 0.0
H32 H 1.00563 0.86581 0.48857 0.0
H33 H 0.10469 0.85159 0.37516 0.0
N34 N 0.12105 0.79299 0.52526 0.0
N35 N 0.17454 0.77371 0.58212 0.0
C36 C 0.16275 0.77129 0.53588 0.0
C37 C 0.10419 0.8079 0.56668 0.0
C38 C 0.13698 0.79578 0.60192 0.0
C39 C 1.00442 0.74697 0.47557 0.0
O40 O 1.00269 0.7769 0.50989 0.0
H41 H 0.18643 0.7572 0.5094 0.0
H42 H 0.07193 0.82792 0.57077 0.0
O43 O 0.16311 0.80613 0.42429 0.0
H44 H 0.0346 0.90232 0.34839 0.0
H45 H 0.1357 0.80594 0.63854 0.0
Cu46 Cu 0.45714 0.82269 0.8019 0.0
N47 N 0.40237 0.8346 0.84006 0.0
N48 N 0.35168 0.88983 0.82466 0.0
C49 C 0.3973 0.87996 0.84209 0.0
C50 C 0.32384 0.84853 0.81848 0.0
C51 C 0.35497 0.81451 0.82872 0.0
O52 O 0.5099 0.87634 0.80953 0.0
C53 C 0.40529 0.78666 0.7159 0.0
O54 O 0.41982 0.7457 0.72387 0.0
H55 H 0.43052 0.9055 0.84416 0.0
H56 H 0.34733 0.77913 0.81686 0.0
N57 N 0.48189 0.76664 0.81719 0.0
N58 N 0.48673 0.69071 0.82183 0.0
C59 C 0.45517 0.72431 0.81803 0.0
C60 C 0.53176 0.75951 0.82188 0.0
C61 C 0.53493 0.71263 0.8245 0.0
C62 C 0.52581 0.90567 0.77793 0.0
O63 O 0.51222 0.89782 0.73389 0.0
H64 H 0.41408 0.71818 0.8118 0.0
H65 H 0.56377 0.7864 0.82031 0.0
O66 O 0.42307 0.82147 0.7405 0.0
H67 H 0.28798 0.84318 0.79902 0.0
H68 H 0.57002 0.69597 0.82514 0.0
Cu69 Cu 0.44568 0.20941 0.9387 0.0
N70 N 0.47546 0.1619 0.90603 0.0
N71 N 0.53254 0.11552 0.87811 0.0
C72 C 0.51157 0.13347 0.91714 0.0
C73 C 0.51015 0.13485 0.8417 0.0
C74 C 0.47486 0.16233 0.85866 0.0
O75 O 0.50164 0.26115 0.94259 0.0
C76 C 0.35157 0.18815 0.89478 0.0
O77 O 0.35889 0.14834 0.91348 0.0
H78 H 0.52455 0.12832 0.95277 0.0
H79 H 0.45388 0.18503 0.83772 0.0
N80 N 0.41446 0.19926 0.99892 0.0
N81 N 0.35429 0.21371 0.05235 0.0
C82 C 0.36323 0.20009 0.00803 0.0
C83 C 0.43791 0.21152 0.04003 0.0
C84 C 0.40124 0.22046 0.07273 0.0
C85 C 0.54463 0.25605 0.96291 0.0
O86 O 0.55028 0.21668 0.98366 0.0
H87 H 0.33323 0.19652 0.98186 0.0
H88 H 0.47907 0.21851 0.0448 0.0
O89 O 0.38691 0.2219 0.89968 0.0
H90 H 0.52208 0.13342 0.80574 0.0
H91 H 0.4089 0.23336 0.10809 0.0
Cu92 Cu 0.98268 0.96042 0.31973 0.0
N93 N 0.05151 0.98289 0.32668 0.0
N94 N 0.12901 0.99292 0.35977 0.0
C95 C 0.07795 0.9927 0.36686 0.0
C96 C 0.13455 0.9833 0.3139 0.0
C97 C 0.08687 0.97879 0.29328 0.0
O98 O 0.95348 1.00798 0.28278 0.0
C99 C 0.96494 0.92051 0.4185 0.0
O100 O 0.9352 0.91925 0.45585 0.0
H101 H 0.05997 0.99401 0.40104 0.0
H102 H 0.07804 0.96823 0.25748 0.0
N103 N 0.97587 0.90891 0.27915 0.0
N104 N 0.99279 0.85321 0.22938 0.0
C105 C 1.01275 0.8855 0.26013 0.0
C106 C 0.93132 0.89042 0.25946 0.0
C107 C 0.94153 0.85569 0.22899 0.0
C108 C 0.96225 0.05108 0.29097 0.0
O109 O 0.98026 0.0649 0.3324 0.0
H110 H 0.05305 0.89066 0.26961 0.0
H111 H 0.89396 0.90167 0.26667 0.0
O112 O 0.95234 0.94433 0.38269 0.0
H113 H 0.16972 0.97512 0.29749 0.0
H114 H 0.91356 0.83378 0.20862 0.0
Cu115 Cu 0.32835 0.7911 0.58514 0.0
N116 N 0.31926 0.85455 0.59005 0.0
N117 N 0.26907 0.9054 0.6207 0.0
C118 C 0.27219 0.8701 0.59016 0.0
C119 C 0.31703 0.91406 0.63786 0.0
C120 C 0.34831 0.88429 0.61783 0.0
O121 O 0.25865 0.76023 0.57453 0.0
C122 C 0.36448 0.79236 0.68141 0.0
O123 O 0.33103 0.82163 0.6905 0.0
H124 H 0.23915 0.85254 0.57238 0.0
H125 H 0.38673 0.87933 0.6297 0.0
N126 N 0.37233 0.77745 0.53551 0.0
N127 N 0.43637 0.74578 0.4994 0.0
C128 C 0.41576 0.75656 0.54107 0.0
C129 C 0.36541 0.77992 0.48857 0.0
C130 C 0.40497 0.76039 0.46612 0.0
C131 C 0.22119 0.76736 0.60157 0.0
O132 O 0.23154 0.78144 0.64486 0.0
H133 H 0.43077 0.74789 0.57504 0.0
H134 H 0.33299 0.79356 0.47187 0.0
O135 O 0.36387 0.772 0.64173 0.0
H136 H 0.32738 0.93545 0.66718 0.0
H137 H 0.40961 0.75653 0.42855 0.0
Cu138 Cu 0.55919 0.05025 0.7752 0.0
N139 N 0.49048 0.05595 0.7739 0.0
N140 N 0.41255 0.05654 0.80214 0.0
C141 C 0.45841 0.04121 0.80844 0.0
C142 C 0.41507 0.0816 0.76224 0.0
C143 C 0.46364 0.08037 0.7441 0.0
O144 O 0.55963 0.98392 0.7614 0.0
C145 C 0.57333 0.08963 0.87642 0.0
O146 O 0.60054 0.0855 0.91487 0.0
H147 H 0.46967 0.02282 0.83916 0.0
H148 H 0.47895 0.09817 0.713 0.0
N149 N 0.58599 0.08724 0.72495 0.0
N150 N 0.57534 0.14735 0.67819 0.0
C151 C 0.58409 0.13335 0.72252 0.0
C152 C 0.5808 0.07238 0.68004 0.0
C153 C 0.57369 0.10928 0.65118 0.0
C154 C 0.54808 0.95269 0.79235 0.0
O155 O 0.54521 0.96479 0.83672 0.0
H156 H 0.58119 0.155 0.75302 0.0
H157 H 0.5741 0.0364 0.67 0.0
O158 O 0.58643 0.06817 0.83918 0.0
H159 H 0.38456 0.09974 0.74788 0.0
H160 H 0.56251 0.10741 0.61448 0.0
Cu161 Cu 0.20248 0.21098 0.09402 0.0
N162 N 0.21957 0.17927 0.14828 0.0
N163 N 0.27781 0.14593 0.19154 0.0
C164 C 0.25946 0.18622 0.17923 0.0
C165 C 0.24768 0.11363 0.16807 0.0
C166 C 0.21158 0.13338 0.14306 0.0
O167 O 0.26478 0.20922 0.05383 0.0
C168 C 0.0952 0.16558 0.08981 0.0
O169 O 0.05812 0.14201 0.06583 0.0
H170 H 0.27783 0.21999 0.18896 0.0
H171 H 0.18694 0.11588 0.11651 0.0
N172 N 0.18093 0.27016 0.09729 0.0
N173 N 0.12399 0.31841 0.07531 0.0
C174 C 0.15341 0.28573 0.06136 0.0
C175 C 0.1687 0.29431 0.13531 0.0
C176 C 0.13313 0.32379 0.12189 0.0
C177 C 0.3088 0.22348 0.07191 0.0
O178 O 0.30996 0.24663 0.11156 0.0
H179 H 0.14922 0.26864 0.02751 0.0
H180 H 0.17949 0.28682 0.17104 0.0
O181 O 0.13944 0.17497 0.06979 0.0
H182 H 0.25411 0.079 0.16486 0.0
H183 H 0.11183 0.34407 0.14528 0.0
Cu184 Cu 0.31219 0.03498 0.2062 0.0
N185 N 0.24404 0.02434 0.22503 0.0
N186 N 0.17374 0.05494 0.24568 0.0
C187 C 0.22419 0.05432 0.25373 0.0
C188 C 0.16059 0.02238 0.21267 0.0
C189 C 0.20407 1.0021 0.2013 0.0
O190 O 0.34207 0.98799 0.24321 0.0
C191 C 0.32084 0.13982 0.21752 0.0
O192 O 0.34775 0.17611 0.23614 0.0
H193 H 0.24754 0.08034 0.27382 0.0
H194 H 0.20716 0.97679 0.17399 0.0
N195 N 0.32126 0.03088 0.13986 0.0
N196 N 0.2997 0.04642 0.06543 0.0
C197 C 0.28408 0.02572 0.10623 0.0
C198 C 0.3624 0.05353 0.1181 0.0
C199 C 0.34929 0.06329 0.07238 0.0
C200 C 0.34878 0.99623 0.28699 0.0
O201 O 0.35016 0.03912 0.30163 0.0
H202 H 0.24438 0.01375 0.11327 0.0
H203 H 0.39731 0.06746 0.136 0.0
O204 O 0.3366 0.09982 0.22468 0.0
H205 H 0.1233 0.01583 0.19583 0.0
H206 H 0.37272 0.08511 0.04809 0.0
Cu207 Cu 0.3023 0.94341 0.42069 0.0
N208 N 0.23994 0.96786 0.42256 0.0
N209 N 0.16706 0.9894 0.39427 0.0
C210 C 0.21663 0.98404 0.38509 0.0
C211 C 0.15897 0.97705 0.43961 0.0
C212 C 0.20442 0.96375 0.45711 0.0
O213 O 0.33883 0.97062 0.36539 0.0
C214 C 0.24143 0.85613 0.40755 0.0
O215 O 0.22557 0.87181 0.36737 0.0
H216 H 0.23441 0.98769 0.35077 0.0
H217 H 0.21006 0.94869 0.49127 0.0
N218 N 0.33849 0.96678 0.47378 0.0
N219 N 0.35514 0.00999 0.5382 0.0
C220 C 0.32648 1.00338 0.49872 0.0
C221 C 0.37677 0.94989 0.49779 0.0
C222 C 0.38699 0.97639 0.53781 0.0
C223 C 0.33775 0.95898 0.32214 0.0
O224 O 0.31414 0.9188 0.3093 0.0
H225 H 0.29452 0.02246 0.48989 0.0
H226 H 0.39395 0.91903 0.48827 0.0
O227 O 0.28234 0.87655 0.42656 0.0
H228 H 0.12211 0.97378 0.45737 0.0
H229 H 0.41312 0.96944 0.56588 0.0
Cu230 Cu 0.27207 0.99906 0.69923 0.0
N231 N 0.31632 0.97248 0.74038 0.0
N232 N 0.34771 0.92808 0.79488 0.0
C233 C 0.30467 0.94065 0.77439 0.0
C234 C 0.3875 0.95168 0.77201 0.0
C235 C 0.36803 0.97917 0.73889 0.0
O236 O 0.23791 0.04325 0.73695 0.0
C237 C 0.22441 0.92057 0.637 0.0
O238 O 0.18003 0.90079 0.62118 0.0
H239 H 0.26596 0.92547 0.7823 0.0
H240 H 0.39011 1.00068 0.7136 0.0
N241 N 0.30669 0.03291 0.65022 0.0
N242 N 0.34132 0.03492 0.5781 0.0
C243 C 0.34444 0.01954 0.62266 0.0
C244 C 0.28217 0.06148 0.62314 0.0
C245 C 0.30333 0.06284 0.57876 0.0
C246 C 0.21262 0.03479 0.77501 0.0
O247 O 0.20208 0.99193 0.7892 0.0
H248 H 0.3697 0.99452 0.63295 0.0
H249 H 0.24642 0.07462 0.63275 0.0
O250 O 0.22297 0.95258 0.6681 0.0
H251 H 0.42779 0.94739 0.77665 0.0
H252 H 0.28721 0.07795 0.54807 0.0
Cu253 Cu 0.25163 0.09836 0.89439 0.0
N254 N 0.30815 0.07091 0.87751 0.0
N255 N 0.37249 0.05231 0.83472 0.0
C256 C 0.33683 0.08148 0.83944 0.0
C257 C 0.36603 0.02171 0.87025 0.0
C258 C 0.32513 0.03296 0.89648 0.0
O259 O 0.20221 0.06427 0.85213 0.0
C260 C 0.29971 0.19614 0.87801 0.0
O261 O 0.29221 0.23786 0.8641 0.0
H262 H 0.33242 0.11047 0.81657 0.0
H263 H 0.30843 0.01441 0.92668 0.0
N264 N 0.2427 0.08432 0.95858 0.0
N265 N 0.26737 0.0586 0.02838 0.0
C266 C 0.28217 0.08242 0.98912 0.0
C267 C 0.20138 0.06145 0.9798 0.0
C268 C 0.21641 0.04574 0.02314 0.0
C269 C 0.20851 0.07321 0.80837 0.0
O270 O 0.23024 0.11427 0.79623 0.0
H271 H 0.32169 0.09477 0.98095 0.0
H272 H 0.16396 0.05367 0.96346 0.0
O273 O 0.26081 0.16506 0.87917 0.0
H274 H 0.38888 0.99346 0.87646 0.0
H275 H 0.19233 0.02458 0.04748 0.0
Cu276 Cu 0.69911 0.29974 0.92985 0.0
N277 N 0.68277 0.2868 0.8666 0.0
N278 N 0.62571 0.29491 0.80916 0.0
C279 C 0.63434 0.27424 0.85044 0.0
C280 C 0.67114 0.31838 0.79722 0.0
C281 C 0.70627 0.31256 0.83193 0.0
O282 O 0.63566 0.27711 0.96445 0.0
C283 C 0.76079 0.38475 0.91158 0.0
O284 O 0.79791 0.35873 0.90376 0.0
H285 H 0.60436 0.25493 0.87076 0.0
H286 H 0.74458 0.33048 0.83382 0.0
N287 N 0.75755 0.27207 0.95018 0.0
N288 N 0.83539 0.2687 0.98336 0.0
C289 C 0.78941 0.28624 0.98628 0.0
C290 C 0.78381 0.24373 0.92441 0.0
C291 C 0.83171 0.24171 0.9446 0.0
C292 C 0.59102 0.28951 0.95533 0.0
O293 O 0.58737 0.32598 0.92888 0.0
H294 H 0.78139 0.31303 0.0108 0.0
H295 H 0.77085 0.22888 0.89098 0.0
O296 O 0.71775 0.36678 0.92878 0.0
H297 H 0.67804 0.33984 0.76653 0.0
H298 H 0.8627 0.22432 0.92999 0.0
Cu299 Cu 0.04568 0.46676 0.2204 0.0
N300 N 0.97632 0.47184 0.2265 0.0
N301 N 0.9072 0.49347 0.19127 0.0
C302 C 0.95847 0.49814 0.19305 0.0
C303 C 0.89093 0.46332 0.22559 0.0
C304 C 0.93438 0.44997 0.24784 0.0
O305 O 0.07678 0.52863 0.23965 0.0
C306 C 1.01597 0.42391 0.12968 0.0
O307 O 1.01477 0.42822 0.08384 0.0
H308 H 0.98316 0.51822 0.16843 0.0
H309 H 0.93506 0.42396 0.27486 0.0
N310 N 0.07335 0.41948 0.25319 0.0
N311 N 0.07401 0.34561 0.27348 0.0
C312 C 0.04744 0.38284 0.27469 0.0
C313 C 0.11924 0.40576 0.24128 0.0
C314 C 0.11974 0.36013 0.25359 0.0
C315 C 0.08398 0.56359 0.2124 0.0
O316 O 0.08251 0.55704 0.16665 0.0
H317 H 1.00711 0.38122 0.2838 0.0
H318 H 0.14731 0.42546 0.21919 0.0
O319 O 0.04738 0.45292 0.15279 0.0
H320 H 0.85119 0.45074 0.23288 0.0
H321 H 0.14876 0.33817 0.24354 0.0
Cu322 Cu 0.84993 0.7202 0.43257 0.0
N323 N 0.86955 0.73203 0.36968 0.0
N324 N 0.92953 0.71886 0.31655 0.0
C325 C 0.9192 0.74224 0.35583 0.0
C326 C 0.88413 0.69639 0.30299 0.0
C327 C 0.84726 0.7055 0.33485 0.0
O328 O 0.91302 0.7356 0.46987 0.0
C329 C 0.78408 0.63797 0.41248 0.0
O330 O 0.74904 0.66536 0.40174 0.0
H331 H 0.94862 0.76124 0.37721 0.0
H332 H 0.80825 0.68905 0.3351 0.0
N333 N 0.79475 0.75257 0.4522 0.0
N334 N 0.7183 0.76409 0.48407 0.0
C335 C 0.75998 0.74009 0.48653 0.0
C336 C 0.77492 0.78626 0.4281 0.0
C337 C 0.72788 0.79329 0.44745 0.0
C338 C 0.95593 0.71988 0.46081 0.0
O339 O 0.95729 0.68607 0.4304 0.0
H340 H 0.7626 0.71068 0.50938 0.0
H341 H 0.79158 0.80207 0.3964 0.0
O342 O 0.8264 0.65448 0.43193 0.0
H343 H 0.87831 0.67339 0.2733 0.0
H344 H 0.70125 0.81596 0.43361 0.0
Cu345 Cu 1.01726 0.68415 0.20766 0.0
N346 N 0.96417 0.65675 0.17043 0.0
N347 N 0.89995 0.60896 0.20032 0.0
C348 C 0.95009 0.61498 0.18894 0.0
C349 C 0.87959 0.64569 0.18238 0.0
C350 C 0.91944 0.67515 0.16369 0.0
O351 O 0.0718 0.64271 0.20219 0.0
C352 C 0.97588 0.71544 0.29573 0.0
O353 O 1.01429 0.74808 0.30145 0.0
H354 H 0.97782 0.59497 0.20467 0.0
H355 H 0.91678 0.7107 0.15424 0.0
N356 N 0.03345 0.74622 0.19336 0.0
N357 N 1.01897 0.81885 0.20793 0.0
C358 C 0.99766 0.7757 0.19884 0.0
C359 C 0.07928 0.77196 0.19808 0.0
C360 C 0.07044 0.8171 0.20707 0.0
C361 C 0.07603 0.60986 0.23123 0.0
O362 O 0.05564 0.6122 0.27328 0.0
H363 H 0.95736 0.76434 0.20462 0.0
H364 H 0.1159 0.75801 0.20116 0.0
O365 O 0.97974 0.68263 0.26669 0.0
H366 H 0.84099 0.65428 0.18927 0.0
H367 H 0.09921 0.84501 0.21707 0.0
Cu368 Cu 0.54355 0.32287 0.69239 0.0
N369 N 0.59733 0.35308 0.6588 0.0
N370 N 0.6579 0.40274 0.69138 0.0
C371 C 0.60865 0.39527 0.67725 0.0
C372 C 0.68069 0.36648 0.67545 0.0
C373 C 0.64301 0.33571 0.65524 0.0
O374 O 0.48777 0.36386 0.6856 0.0
C375 C 0.58072 0.2952 0.78496 0.0
O376 O 0.5429 0.26201 0.79065 0.0
H377 H 0.57918 0.41464 0.69097 0.0
H378 H 0.64689 0.29967 0.64878 0.0
N379 N 0.53488 0.26107 0.67278 0.0
N380 N 0.55466 0.18868 0.66642 0.0
C381 C 0.56557 0.22966 0.68787 0.0
C382 C 0.50364 0.23898 0.6402 0.0
C383 C 0.51562 0.19388 0.63637 0.0
C384 C 0.48008 0.39475 0.7162 0.0
O385 O 0.49822 0.39067 0.75897 0.0
H386 H 0.59616 0.2368 0.71339 0.0
H387 H 0.4745 0.25454 0.62054 0.0
O388 O 0.57837 0.32524 0.75277 0.0
H389 H 0.71889 0.35881 0.68543 0.0
H390 H 0.49647 0.16696 0.61429 0.0
Cu391 Cu 0.49862 0.54019 0.72204 0.0
N392 N 0.56817 0.53562 0.72274 0.0
N393 N 0.63756 0.51856 0.68502 0.0
C394 C 0.58626 0.51299 0.68654 0.0
C395 C 0.65336 0.54631 0.72144 0.0
C396 C 0.60982 0.55681 0.74518 0.0
O397 O 0.47058 0.47432 0.73063 0.0
C398 C 0.52504 0.6096 0.65646 0.0
O399 O 0.54913 0.62797 0.69354 0.0
H400 H 0.56195 0.49452 0.66049 0.0
H401 H 0.60888 0.57958 0.77507 0.0
N402 N 0.47748 0.57843 0.76995 0.0
N403 N 0.47366 0.64357 0.81086 0.0
C404 C 0.5044 0.61652 0.78818 0.0
C405 C 0.42821 0.58111 0.7828 0.0
C406 C 0.42564 0.62141 0.8079 0.0
C407 C 0.46862 0.44148 0.70039 0.0
O408 O 0.47162 0.45156 0.65537 0.0
H409 H 0.54451 0.62685 0.78076 0.0
H410 H 0.39577 0.5576 0.77098 0.0
O411 O 0.49505 0.57176 0.66094 0.0
H412 H 0.69297 0.55856 0.7297 0.0
H413 H 0.39087 0.63502 0.81962 0.0
Cu414 Cu 0.933 0.35633 0.06371 0.0
N415 N 0.89935 0.40853 0.052 0.0
N416 N 0.82123 0.43191 0.06554 0.0
C417 C 0.86293 0.41516 0.08425 0.0
C418 C 0.83238 0.43825 0.0195 0.0
C419 C 0.88006 0.42266 0.01102 0.0
O420 O 0.8779 0.30908 0.04362 0.0
C421 C 0.97939 0.38773 0.1531 0.0
O422 O 0.9839 0.38092 0.19809 0.0
H423 H 0.86398 0.40196 0.11981 0.0
H424 H 0.89561 0.41602 0.97671 0.0
N425 N 0.99866 0.34654 0.04041 0.0
N426 N 0.07967 0.33014 0.05137 0.0
C427 C 0.03176 0.32734 0.06908 0.0
C428 C 0.02688 0.3612 1.00243 0.0
C429 C 0.07727 0.35076 0.00908 0.0
C430 C 0.87959 0.2833 0.00751 0.0
O431 O 0.92464 0.27663 0.98972 0.0
H432 H 1.02151 0.31351 0.10354 0.0
H433 H 1.01281 0.38043 0.97347 0.0
O434 O 0.94595 0.36008 0.13093 0.0
H435 H 0.80584 0.44832 0.9931 0.0
H436 H 0.10984 0.35983 0.9861 0.0
Cu437 Cu 0.60893 0.67643 0.54543 0.0
N438 N 0.64619 0.62655 0.5335 0.0
N439 N 0.71934 0.59639 0.55194 0.0
C440 C 0.679 0.617 0.56798 0.0
C441 C 0.71093 0.59102 0.50528 0.0
C442 C 0.66645 0.61094 0.49371 0.0
O443 O 0.66724 0.72464 0.5397 0.0
C444 C 0.54164 0.62823 0.61005 0.0
O445 O 0.5241 0.60674 0.57169 0.0
H446 H 0.67573 0.62907 0.60381 0.0
H447 H 0.6529 0.61734 0.45856 0.0
N448 N 0.55295 0.68985 0.50776 0.0
N449 N 0.48037 0.72192 0.49252 0.0
C450 C 0.51472 0.71234 0.52564 0.0
C451 C 0.54235 0.68506 0.46145 0.0
C452 C 0.49737 0.70492 0.45189 0.0
C453 C 0.67176 0.75361 0.50587 0.0
O454 O 0.62992 0.7668 0.48667 0.0
H455 H 0.51305 0.72246 0.56218 0.0
H456 H 0.56615 0.66931 0.4363 0.0
O457 O 0.57835 0.66129 0.60708 0.0
H458 H 0.73632 0.57591 0.48113 0.0
H459 H 0.47909 0.70699 0.41786 0.0
Cu460 Cu 0.80234 0.50054 0.59094 0.0
N461 N 0.73657 0.48295 0.61191 0.0
N462 N 0.66781 0.49916 0.65115 0.0
C463 C 0.71909 0.50009 0.65182 0.0
C464 C 0.65162 0.4797 0.60994 0.0
C465 C 0.69452 0.46968 0.58559 0.0
O466 O 0.84578 0.49303 0.64728 0.0
C467 C 0.75927 0.58416 0.57868 0.0
O468 O 0.75829 0.59029 0.62443 0.0
H469 H 0.74353 0.51698 0.6787 0.0
H470 H 0.69504 0.45786 0.54961 0.0
N471 N 0.81478 0.46178 0.54104 0.0
N472 N 0.80508 0.43371 0.46839 0.0
C473 C 0.7881 0.46207 0.50059 0.0
C474 C 0.85095 0.4328 0.53364 0.0
C475 C 0.8454 0.41572 0.48803 0.0
C476 C 0.84882 0.51925 0.68356 0.0
O477 O 0.83658 0.56157 0.6795 0.0
H478 H 0.75861 0.48465 0.49386 0.0
H479 H 0.88041 0.4261 0.55876 0.0
O480 O 0.79243 0.55979 0.56139 0.0
H481 H 0.61231 0.47556 0.59717 0.0
H482 H 0.86988 0.39355 0.47028 0.0
Cu483 Cu 0.78207 0.49382 0.81586 0.0
N484 N 0.72344 0.46834 0.7844 0.0
N485 N 0.67365 0.42902 0.73155 0.0
C486 C 0.72222 0.44296 0.74472 0.0
C487 C 0.64295 0.4442 0.76504 0.0
C488 C 0.67396 0.46877 0.79757 0.0
O489 O 0.82893 0.51953 0.76526 0.0
C490 C 0.76293 0.43027 0.88864 0.0
O491 O 0.72275 0.45334 0.89303 0.0
H492 H 0.75573 0.43513 0.72549 0.0
H493 H 0.66129 0.48579 0.8286 0.0
N494 N 0.76507 0.54251 0.85388 0.0
N495 N 0.74864 0.57805 0.92092 0.0
C496 C 0.77596 0.54699 0.90005 0.0
C497 C 0.73095 0.57297 0.84494 0.0
C498 C 0.72054 0.59494 0.88642 0.0
C499 C 0.84732 0.49776 0.73119 0.0
O500 O 0.84966 0.45311 0.73493 0.0
H501 H 0.7999 0.52487 0.91854 0.0
H502 H 0.7118 0.57624 0.81158 0.0
O503 O 0.79746 0.4433 0.85778 0.0
H504 H 0.60134 0.43821 0.76604 0.0
H505 H 0.69163 0.61844 0.89136 0.0
Cu506 Cu 0.744 0.52338 0.09687 0.0
N507 N 0.81068 0.5342 0.11802 0.0
N508 N 0.87783 0.51418 0.15742 0.0
C509 C 0.82668 0.51464 0.15737 0.0
C510 C 0.89522 0.53472 0.11704 0.0
C511 C 0.85327 0.54699 0.09254 0.0
O512 O 0.70259 0.53732 0.15197 0.0
C513 C 0.77594 0.43586 0.08867 0.0
O514 O 0.77176 0.4233 0.13303 0.0
H515 H 0.80118 0.49799 0.18362 0.0
H516 H 0.85338 0.56036 0.05705 0.0
N517 N 0.73591 0.56129 0.04532 0.0
N518 N 0.74084 0.58209 0.96987 0.0
C519 C 0.75631 0.55365 1.00306 0.0
C520 C 0.70658 0.59607 0.03889 0.0
C521 C 0.70943 0.60901 0.99194 0.0
C522 C 0.69496 0.51046 0.18734 0.0
O523 O 0.69993 0.46643 0.18201 0.0
H524 H 0.77983 0.52605 0.99658 0.0
H525 H 0.68313 0.60962 0.06582 0.0
O526 O 0.74283 0.46069 0.07201 0.0
H527 H 0.93471 0.5383 0.10489 0.0
H528 H 0.68847 0.63461 0.97518 0.0
Cu529 Cu 0.76384 0.52609 0.3199 0.0
N530 N 0.82595 0.54646 0.29063 0.0
N531 N 0.88052 0.58283 0.23946 0.0
C532 C 0.83084 0.57232 0.25122 0.0
C533 C 0.90828 0.56465 0.27348 0.0
C534 C 0.87439 0.54187 0.3048 0.0
O535 O 0.7167 0.50572 0.26793 0.0
C536 C 0.78216 0.59216 0.39047 0.0
O537 O 0.82235 0.56952 0.39608 0.0
H538 H 0.79905 0.58308 0.23134 0.0
H539 H 0.88474 0.52355 0.33573 0.0
N540 N 0.76982 0.47428 0.35841 0.0
N541 N 0.79062 0.43287 0.42073 0.0
C542 C 0.80595 0.4678 0.39114 0.0
C543 C 0.73088 0.44114 0.36698 0.0
C544 C 0.74328 0.41606 0.4057 0.0
C545 C 0.70034 0.53052 0.23531 0.0
O546 O 0.70364 0.57553 0.24066 0.0
H547 H 0.84015 0.49121 0.39736 0.0
H548 H 0.69377 0.43872 0.34958 0.0
O549 O 0.7485 0.57844 0.3592 0.0
H550 H 0.94986 0.56744 0.27578 0.0
H551 H 0.71706 0.39153 0.42493 0.0
loop_
_geom_bond_atom_site_label_1
_geom_bond_atom_site_label_2
_geom_bond_distance
_geom_bond_site_symmetry_2
_ccdc_geom_bond_type
Cu0 N1 1.999 . S
Cu0 O6 1.974 . S
Cu0 N11 1.985 . S
Cu0 O20 1.959 . S
N1 Cu0 1.999 . S
N1 C3 1.263 . S
N1 C5 1.389 . S
N2 C3 1.358 . S
N2 C4 1.400 . S
C3 N1 1.263 . S
C3 N2 1.358 . S
C3 H9 0.930 . S
C4 N2 1.400 . S
C4 C5 1.351 . S
C4 H21 0.930 . S
C5 N1 1.389 . S
C5 C4 1.351 . S
C5 H10 0.930 . S
O6 Cu0 1.974 . S
O6 C16 1.282 . S
C7 O8 1.261 . S
C7 O20 1.251 . S
O8 C7 1.261 . S
H9 C3 0.930 . S
H10 C5 0.930 . S
N11 Cu0 1.985 . S
N11 C13 1.335 . S
N11 C14 1.390 . S
N12 C13 1.345 . S
N12 C15 1.336 1_455 S
C13 N11 1.335 . S
C13 N12 1.345 . S
C13 H18 0.930 . S
C14 N11 1.390 . S
C14 C15 1.346 1_455 S
C14 H19 0.930 1_455 S
C15 N12 1.336 1_655 S
C15 C14 1.346 1_655 S
C15 H22 0.929 . S
C16 O6 1.282 . S
C16 O17 1.216 . S
O17 C16 1.216 . S
H18 C13 0.930 . S
H19 C14 0.930 1_655 S
O20 Cu0 1.959 . S
O20 C7 1.251 . S
H21 C4 0.930 . S
H22 C15 0.929 . S
Cu23 N24 1.999 . S
Cu23 O29 1.974 1_455 S
Cu23 N34 1.985 . S
Cu23 O43 1.959 . S
N24 Cu23 1.999 . S
N24 C26 1.263 1_455 S
N24 C28 1.389 . S
N25 C26 1.358 . S
N25 C27 1.400 1_655 S
C26 N24 1.263 1_655 S
C26 N25 1.358 . S
C26 H32 0.930 . S
C27 N25 1.400 1_455 S
C27 C28 1.351 . S
C27 H44 0.930 . S
C28 N24 1.389 . S
C28 C27 1.351 . S
C28 H33 0.930 . S
O29 Cu23 1.974 1_655 S
O29 C39 1.282 . S
C30 O31 1.261 . S
C30 O43 1.251 . S
O31 C30 1.261 . S
H32 C26 0.930 . S
H33 C28 0.930 . S
N34 Cu23 1.985 . S
N34 C36 1.335 . S
N34 C37 1.390 1_455 S
N35 C36 1.345 . S
N35 C38 1.336 . S
C36 N34 1.335 . S
C36 N35 1.345 . S
C36 H41 0.930 . S
C37 N34 1.390 1_655 S
C37 C38 1.346 1_655 S
C37 H42 0.930 . S
C38 N35 1.336 . S
C38 C37 1.346 1_455 S
C38 H45 0.929 1_455 S
C39 O29 1.282 . S
C39 O40 1.216 . S
O40 C39 1.216 . S
H41 C36 0.930 . S
H42 C37 0.930 . S
O43 Cu23 1.959 . S
O43 C30 1.251 . S
H44 C27 0.930 . S
H45 C38 0.929 1_655 S
Cu46 N47 1.999 . S
Cu46 O52 1.974 . S
Cu46 N57 1.985 . S
Cu46 O66 1.959 . S
N47 Cu46 1.999 . S
N47 C49 1.263 . S
N47 C51 1.389 . S
N48 C49 1.358 . S
N48 C50 1.400 . S
C49 N47 1.263 . S
C49 N48 1.358 . S
C49 H55 0.930 . S
C50 N48 1.400 . S
C50 C51 1.351 . S
C50 H67 0.930 . S
C51 N47 1.389 . S
C51 C50 1.351 . S
C51 H56 0.930 . S
O52 Cu46 1.974 . S
O52 C62 1.282 . S
C53 O54 1.261 . S
C53 O66 1.251 . S
O54 C53 1.261 . S
H55 C49 0.930 . S
H56 C51 0.930 . S
N57 Cu46 1.985 . S
N57 C59 1.335 . S
N57 C60 1.390 . S
N58 C59 1.345 . S
N58 C61 1.336 . S
C59 N57 1.335 . S
C59 N58 1.345 . S
C59 H64 0.930 . S
C60 N57 1.390 . S
C60 C61 1.346 . S
C60 H65 0.930 . S
C61 N58 1.336 . S
C61 C60 1.346 . S
C61 H68 0.929 . S
C62 O52 1.282 . S
C62 O63 1.216 . S
O63 C62 1.216 . S
H64 C59 0.930 . S
H65 C60 0.930 . S
O66 Cu46 1.959 . S
O66 C53 1.251 . S
H67 C50 0.930 . S
H68 C61 0.929 . S
Cu69 N70 1.999 . S
Cu69 O75 1.974 . S
Cu69 N80 1.985 1_556 S
Cu69 O89 1.959 . S
N70 Cu69 1.999 . S
N70 C72 1.263 . S
N70 C74 1.389 . S
N71 C72 1.358 . S
N71 C73 1.400 . S
C72 N70 1.263 . S
C72 N71 1.358 . S
C72 H78 0.930 . S
C73 N71 1.400 . S
C73 C74 1.351 . S
C73 H90 0.930 . S
C74 N70 1.389 . S
C74 C73 1.351 . S
C74 H79 0.930 . S
O75 Cu69 1.974 . S
O75 C85 1.282 . S
C76 O77 1.261 . S
C76 O89 1.251 1_554 S
O77 C76 1.261 . S
H78 C72 0.930 . S
H79 C74 0.930 . S
N80 Cu69 1.985 1_554 S
N80 C82 1.335 . S
N80 C83 1.390 . S
N81 C82 1.345 . S
N81 C84 1.336 . S
C82 N80 1.335 . S
C82 N81 1.345 . S
C82 H87 0.930 . S
C83 N80 1.390 . S
C83 C84 1.346 . S
C83 H88 0.930 . S
C84 N81 1.336 . S
C84 C83 1.346 . S
C84 H91 0.929 . S
C85 O75 1.282 . S
C85 O86 1.216 . S
O86 C85 1.216 . S
H87 C82 0.930 . S
H88 C83 0.930 . S
O89 Cu69 1.959 . S
O89 C76 1.251 1_556 S
H90 C73 0.930 . S
H91 C84 0.929 . S
Cu92 N93 1.999 1_565 S
Cu92 O98 1.974 1_565 S
Cu92 N103 1.985 1_455 S
Cu92 O112 1.959 . S
N93 Cu92 1.999 1_545 S
N93 C95 1.263 . S
N93 C97 1.389 1_545 S
N94 C95 1.358 . S
N94 C96 1.400 . S
C95 N93 1.263 . S
C95 N94 1.358 . S
C95 H101 0.930 . S
C96 N94 1.400 . S
C96 C97 1.351 1_545 S
C96 H113 0.930 . S
C97 N93 1.389 1_565 S
C97 C96 1.351 1_565 S
C97 H102 0.930 . S
O98 Cu92 1.974 1_545 S
O98 C108 1.282 . S
C99 O100 1.261 . S
C99 O112 1.251 1_655 S
O100 C99 1.261 . S
H101 C95 0.930 . S
H102 C97 0.930 . S
N103 Cu92 1.985 1_655 S
N103 C105 1.335 . S
N103 C106 1.390 1_565 S
N104 C105 1.345 . S
N104 C107 1.336 . S
C105 N103 1.335 . S
C105 N104 1.345 . S
C105 H110 0.930 . S
C106 N103 1.390 1_545 S
C106 C107 1.346 1_545 S
C106 H111 0.930 . S
C107 N104 1.336 . S
C107 C106 1.346 1_565 S
C107 H114 0.929 . S
C108 O98 1.282 . S
C108 O109 1.216 1_455 S
O109 C108 1.216 1_655 S
H110 C105 0.930 . S
H111 C106 0.930 . S
O112 Cu92 1.959 . S
O112 C99 1.251 1_455 S
H113 C96 0.930 . S
H114 C107 0.929 . S
Cu115 N116 1.999 . S
Cu115 O121 1.974 . S
Cu115 N126 1.985 . S
Cu115 O135 1.959 . S
N116 Cu115 1.999 . S
N116 C118 1.263 . S
N116 C120 1.389 . S
N117 C118 1.358 . S
N117 C119 1.400 . S
C118 N116 1.263 . S
C118 N117 1.358 . S
C118 H124 0.930 . S
C119 N117 1.400 . S
C119 C120 1.351 . S
C119 H136 0.930 . S
C120 N116 1.389 . S
C120 C119 1.351 . S
C120 H125 0.930 . S
O121 Cu115 1.974 . S
O121 C131 1.282 . S
C122 O123 1.261 . S
C122 O135 1.251 . S
O123 C122 1.261 . S
H124 C118 0.930 . S
H125 C120 0.930 . S
N126 Cu115 1.985 . S
N126 C128 1.335 . S
N126 C129 1.390 . S
N127 C128 1.345 . S
N127 C130 1.336 . S
C128 N126 1.335 . S
C128 N127 1.345 . S
C128 H133 0.930 . S
C129 N126 1.390 . S
C129 C130 1.346 . S
C129 H134 0.930 . S
C130 N127 1.336 . S
C130 C129 1.346 . S
C130 H137 0.929 . S
C131 O121 1.282 . S
C131 O132 1.216 . S
O132 C131 1.216 . S
H133 C128 0.930 . S
H134 C129 0.930 . S
O135 Cu115 1.959 . S
O135 C122 1.251 . S
H136 C119 0.930 . S
H137 C130 0.929 . S
Cu138 N139 1.999 1_545 S
Cu138 O144 1.974 1_545 S
Cu138 N149 1.985 . S
Cu138 O158 1.959 . S
N139 Cu138 1.999 1_565 S
N139 C141 1.263 . S
N139 C143 1.389 1_565 S
N140 C141 1.358 . S
N140 C142 1.400 . S
C141 N139 1.263 . S
C141 N140 1.358 . S
C141 H147 0.930 . S
C142 N140 1.400 . S
C142 C143 1.351 1_565 S
C142 H159 0.930 . S
C143 N139 1.389 1_545 S
C143 C142 1.351 1_545 S
C143 H148 0.930 . S
O144 Cu138 1.974 1_565 S
O144 C154 1.282 . S
C145 O146 1.261 . S
C145 O158 1.251 . S
O146 C145 1.261 . S
H147 C141 0.930 . S
H148 C143 0.930 . S
N149 Cu138 1.985 . S
N149 C151 1.335 . S
N149 C152 1.390 1_545 S
N150 C151 1.345 . S
N150 C153 1.336 . S
C151 N149 1.335 . S
C151 N150 1.345 . S
C151 H156 0.930 . S
C152 N149 1.390 1_565 S
C152 C153 1.346 1_565 S
C152 H157 0.930 . S
C153 N150 1.336 . S
C153 C152 1.346 1_545 S
C153 H160 0.929 . S
C154 O144 1.282 . S
C154 O155 1.216 . S
O155 C154 1.216 . S
H156 C151 0.930 . S
H157 C152 0.930 . S
O158 Cu138 1.959 . S
O158 C145 1.251 . S
H159 C142 0.930 . S
H160 C153 0.929 . S
Cu161 N162 1.999 . S
Cu161 O167 1.974 . S
Cu161 N172 1.985 . S
Cu161 O181 1.959 . S
N162 Cu161 1.999 . S
N162 C164 1.263 . S
N162 C166 1.389 . S
N163 C164 1.358 . S
N163 C165 1.400 . S
C164 N162 1.263 . S
C164 N163 1.358 . S
C164 H170 0.930 . S
C165 N163 1.400 . S
C165 C166 1.351 . S
C165 H182 0.930 . S
C166 N162 1.389 . S
C166 C165 1.351 . S
C166 H171 0.930 . S
O167 Cu161 1.974 . S
O167 C177 1.282 . S
C168 O169 1.261 . S
C168 O181 1.251 . S
O169 C168 1.261 . S
H170 C164 0.930 . S
H171 C166 0.930 . S
N172 Cu161 1.985 . S
N172 C174 1.335 . S
N172 C175 1.390 . S
N173 C174 1.345 . S
N173 C176 1.336 . S
C174 N172 1.335 . S
C174 N173 1.345 . S
C174 H179 0.930 . S
C175 N172 1.390 . S
C175 C176 1.346 . S
C175 H180 0.930 . S
C176 N173 1.336 . S
C176 C175 1.346 . S
C176 H183 0.929 . S
C177 O167 1.282 . S
C177 O178 1.216 . S
O178 C177 1.216 . S
H179 C174 0.930 . S
H180 C175 0.930 . S
O181 Cu161 1.959 . S
O181 C168 1.251 . S
H182 C165 0.930 . S
H183 C176 0.929 . S
Cu184 N185 1.999 . S
Cu184 O190 1.974 . S
Cu184 N195 1.985 . S
Cu184 O204 1.959 . S
N185 Cu184 1.999 . S
N185 C187 1.263 . S
N185 C189 1.389 . S
N186 C187 1.358 . S
N186 C188 1.400 . S
C187 N185 1.263 . S
C187 N186 1.358 . S
C187 H193 0.930 . S
C188 N186 1.400 . S
C188 C189 1.351 . S
C188 H205 0.930 . S
C189 N185 1.389 . S
C189 C188 1.351 . S
C189 H194 0.930 . S
O190 Cu184 1.974 . S
O190 C200 1.282 . S
C191 O192 1.261 . S
C191 O204 1.251 . S
O192 C191 1.261 . S
H193 C187 0.930 . S
H194 C189 0.930 . S
N195 Cu184 1.985 . S
N195 C197 1.335 . S
N195 C198 1.390 . S
N196 C197 1.345 . S
N196 C199 1.336 1_545 S
C197 N195 1.335 . S
C197 N196 1.345 . S
C197 H202 0.930 . S
C198 N195 1.390 . S
C198 C199 1.346 1_545 S
C198 H203 0.931 1_545 S
C199 N196 1.336 1_565 S
C199 C198 1.346 1_565 S
C199 H206 0.929 . S
C200 O190 1.282 . S
C200 O201 1.216 . S
O201 C200 1.216 . S
H202 C197 0.930 . S
H203 C198 0.931 1_565 S
O204 Cu184 1.959 . S
O204 C191 1.251 . S
H205 C188 0.930 . S
H206 C199 0.929 . S
Cu207 N208 1.999 . S
Cu207 O213 1.974 . S
Cu207 N218 1.985 . S
Cu207 O227 1.959 1_545 S
N208 Cu207 1.999 . S
N208 C210 1.263 . S
N208 C212 1.389 . S
N209 C210 1.358 . S
N209 C211 1.400 . S
C210 N208 1.263 . S
C210 N209 1.358 . S
C210 H216 0.930 . S
C211 N209 1.400 . S
C211 C212 1.351 . S
C211 H228 0.930 . S
C212 N208 1.389 . S
C212 C211 1.351 . S
C212 H217 0.930 . S
O213 Cu207 1.974 . S
O213 C223 1.282 . S
C214 O215 1.261 . S
C214 O227 1.251 . S
O215 C214 1.261 . S
H216 C210 0.930 . S
H217 C212 0.930 . S
N218 Cu207 1.985 . S
N218 C220 1.335 1_545 S
N218 C221 1.390 . S
N219 C220 1.345 . S
N219 C222 1.335 1_565 S
C220 N218 1.335 1_565 S
C220 N219 1.345 . S
C220 H225 0.930 . S
C221 N218 1.390 . S
C221 C222 1.347 . S
C221 H226 0.930 . S
C222 N219 1.335 1_545 S
C222 C221 1.347 . S
C222 H229 0.929 . S
C223 O213 1.282 . S
C223 O224 1.216 . S
O224 C223 1.216 . S
H225 C220 0.930 . S
H226 C221 0.930 . S
O227 Cu207 1.959 1_565 S
O227 C214 1.251 . S
H228 C211 0.930 . S
H229 C222 0.929 . S
Cu230 N231 1.999 . S
Cu230 O236 1.974 . S
Cu230 N241 1.985 . S
Cu230 O250 1.959 . S
N231 Cu230 1.999 . S
N231 C233 1.263 . S
N231 C235 1.389 . S
N232 C233 1.358 . S
N232 C234 1.400 . S
C233 N231 1.263 . S
C233 N232 1.358 . S
C233 H239 0.930 . S
C234 N232 1.400 . S
C234 C235 1.351 . S
C234 H251 0.930 . S
C235 N231 1.389 . S
C235 C234 1.351 . S
C235 H240 0.930 . S
O236 Cu230 1.974 . S
O236 C246 1.282 . S
C237 O238 1.261 . S
C237 O250 1.251 . S
O238 C237 1.261 . S
H239 C233 0.930 . S
H240 C235 0.930 . S
N241 Cu230 1.985 . S
N241 C243 1.335 . S
N241 C244 1.396 . S
N242 C243 1.345 . S
N242 C245 1.336 1_565 S
C243 N241 1.335 . S
C243 N242 1.345 . S
C243 H248 0.930 . S
C244 N241 1.396 . S
C244 C245 1.343 1_565 S
C244 H249 0.928 1_565 S
C245 N242 1.336 1_545 S
C245 C244 1.343 1_545 S
C245 H252 0.929 . S
C246 O236 1.282 . S
C246 O247 1.216 . S
O247 C246 1.216 . S
H248 C243 0.930 . S
H249 C244 0.928 1_545 S
O250 Cu230 1.959 . S
O250 C237 1.251 . S
H251 C234 0.930 . S
H252 C245 0.929 . S
Cu253 N254 1.999 1_554 S
Cu253 O259 1.974 1_554 S
Cu253 N264 1.985 . S
Cu253 O273 1.959 1_565 S
N254 Cu253 1.999 1_556 S
N254 C256 1.263 . S
N254 C258 1.389 . S
N255 C256 1.358 . S
N255 C257 1.400 . S
C256 N254 1.263 . S
C256 N255 1.358 . S
C256 H262 0.930 . S
C257 N255 1.400 . S
C257 C258 1.351 . S
C257 H274 0.930 . S
C258 N254 1.389 . S
C258 C257 1.351 . S
C258 H263 0.930 . S
O259 Cu253 1.974 1_556 S
O259 C269 1.282 . S
C260 O261 1.261 1_554 S
C260 O273 1.251 . S
O261 C260 1.261 1_556 S
H262 C256 0.930 . S
H263 C258 0.930 . S
N264 Cu253 1.985 . S
N264 C266 1.335 1_565 S
N264 C267 1.390 . S
N265 C266 1.345 . S
N265 C268 1.336 . S
C266 N264 1.335 1_545 S
C266 N265 1.345 . S
C266 H271 0.930 . S
C267 N264 1.390 . S
C267 C268 1.346 1_565 S
C267 H272 0.930 . S
C268 N265 1.336 . S
C268 C267 1.346 1_545 S
C268 H275 0.930 1_545 S
C269 O259 1.282 . S
C269 O270 1.216 . S
O270 C269 1.216 . S
H271 C266 0.930 . S
H272 C267 0.930 . S
O273 Cu253 1.959 1_545 S
O273 C260 1.251 . S
H274 C257 0.930 . S
H275 C268 0.930 1_565 S
Cu276 N277 1.999 . S
Cu276 O282 1.974 . S
Cu276 N287 1.985 . S
Cu276 O296 1.959 . S
N277 Cu276 1.999 . S
N277 C279 1.263 . S
N277 C281 1.389 . S
N278 C279 1.358 . S
N278 C280 1.400 . S
C279 N277 1.263 . S
C279 N278 1.358 . S
C279 H285 0.930 . S
C280 N278 1.400 . S
C280 C281 1.351 . S
C280 H297 0.930 . S
C281 N277 1.389 . S
C281 C280 1.351 . S
C281 H286 0.930 . S
O282 Cu276 1.974 . S
O282 C292 1.282 . S
C283 O284 1.261 . S
C283 O296 1.251 . S
O284 C283 1.261 . S
H285 C279 0.930 . S
H286 C281 0.930 . S
N287 Cu276 1.985 . S
N287 C289 1.335 . S
N287 C290 1.390 . S
N288 C289 1.345 . S
N288 C291 1.336 . S
C289 N287 1.335 . S
C289 N288 1.345 . S
C289 H294 0.930 . S
C290 N287 1.390 . S
C290 C291 1.346 . S
C290 H295 0.930 . S
C291 N288 1.336 . S
C291 C290 1.346 . S
C291 H298 0.929 1_556 S
C292 O282 1.282 . S
C292 O293 1.216 . S
O293 C292 1.216 . S
H294 C289 0.930 . S
H295 C290 0.930 . S
O296 Cu276 1.959 . S
O296 C283 1.251 . S
H297 C280 0.930 . S
H298 C291 0.929 1_554 S
Cu299 N300 1.999 . S
Cu299 O305 1.974 . S
Cu299 N310 1.985 1_655 S
Cu299 O319 1.959 . S
N300 Cu299 1.999 . S
N300 C302 1.263 . S
N300 C304 1.389 . S
N301 C302 1.358 . S
N301 C303 1.400 . S
C302 N300 1.263 . S
C302 N301 1.358 . S
C302 H308 0.930 . S
C303 N301 1.400 . S
C303 C304 1.351 . S
C303 H320 0.930 . S
C304 N300 1.389 . S
C304 C303 1.351 . S
C304 H309 0.930 . S
O305 Cu299 1.974 . S
O305 C315 1.282 . S
C306 O307 1.261 . S
C306 O319 1.251 1_455 S
O307 C306 1.261 . S
H308 C302 0.930 . S
H309 C304 0.930 . S
N310 Cu299 1.985 1_455 S
N310 C312 1.335 . S
N310 C313 1.390 . S
N311 C312 1.345 . S
N311 C314 1.336 . S
C312 N310 1.335 . S
C312 N311 1.345 . S
C312 H317 0.930 . S
C313 N310 1.390 . S
C313 C314 1.346 . S
C313 H318 0.930 . S
C314 N311 1.336 . S
C314 C313 1.346 . S
C314 H321 0.929 . S
C315 O305 1.282 . S
C315 O316 1.216 1_655 S
O316 C315 1.216 1_455 S
H317 C312 0.930 . S
H318 C313 0.930 . S
O319 Cu299 1.959 . S
O319 C306 1.251 1_655 S
H320 C303 0.930 . S
H321 C314 0.929 . S
Cu322 N323 1.999 . S
Cu322 O328 1.974 . S
Cu322 N333 1.985 . S
Cu322 O342 1.959 . S
N323 Cu322 1.999 . S
N323 C325 1.263 . S
N323 C327 1.389 . S
N324 C325 1.358 . S
N324 C326 1.400 . S
C325 N323 1.263 . S
C325 N324 1.358 . S
C325 H331 0.930 . S
C326 N324 1.400 . S
C326 C327 1.351 . S
C326 H343 0.930 . S
C327 N323 1.389 . S
C327 C326 1.351 . S
C327 H332 0.930 . S
O328 Cu322 1.974 . S
O328 C338 1.282 . S
C329 O330 1.261 . S
C329 O342 1.251 . S
O330 C329 1.261 . S
H331 C325 0.930 . S
H332 C327 0.930 . S
N333 Cu322 1.985 . S
N333 C335 1.335 . S
N333 C336 1.390 . S
N334 C335 1.345 . S
N334 C337 1.336 . S
C335 N333 1.335 . S
C335 N334 1.345 . S
C335 H340 0.930 . S
C336 N333 1.390 . S
C336 C337 1.346 . S
C336 H341 0.930 . S
C337 N334 1.336 . S
C337 C336 1.346 . S
C337 H344 0.929 . S
C338 O328 1.282 . S
C338 O339 1.216 . S
O339 C338 1.216 . S
H340 C335 0.930 . S
H341 C336 0.930 . S
O342 Cu322 1.959 . S
O342 C329 1.251 . S
H343 C326 0.930 . S
H344 C337 0.929 . S
Cu345 N346 1.999 . S
Cu345 O351 1.974 . S
Cu345 N356 1.985 . S
Cu345 O365 1.959 . S
N346 Cu345 1.999 . S
N346 C348 1.263 . S
N346 C350 1.389 . S
N347 C348 1.358 . S
N347 C349 1.400 . S
C348 N346 1.263 . S
C348 N347 1.358 . S
C348 H354 0.930 . S
C349 N347 1.400 . S
C349 C350 1.351 . S
C349 H366 0.930 . S
C350 N346 1.389 . S
C350 C349 1.351 . S
C350 H355 0.930 . S
O351 Cu345 1.974 . S
O351 C361 1.282 . S
C352 O353 1.261 . S
C352 O365 1.251 . S
O353 C352 1.261 . S
H354 C348 0.930 . S
H355 C350 0.930 . S
N356 Cu345 1.985 . S
N356 C358 1.335 . S
N356 C359 1.390 1_655 S
N357 C358 1.345 1_455 S
N357 C360 1.336 . S
C358 N356 1.335 . S
C358 N357 1.345 1_655 S
C358 H363 0.930 . S
C359 N356 1.390 1_455 S
C359 C360 1.346 . S
C359 H364 0.930 . S
C360 N357 1.336 . S
C360 C359 1.346 . S
C360 H367 0.929 . S
C361 O351 1.282 . S
C361 O362 1.216 . S
O362 C361 1.216 . S
H363 C358 0.930 . S
H364 C359 0.930 . S
O365 Cu345 1.959 . S
O365 C352 1.251 . S
H366 C349 0.930 . S
H367 C360 0.929 . S
Cu368 N369 1.999 . S
Cu368 O374 1.974 . S
Cu368 N379 1.985 . S
Cu368 O388 1.959 . S
N369 Cu368 1.999 . S
N369 C371 1.263 . S
N369 C373 1.389 . S
N370 C371 1.358 . S
N370 C372 1.400 . S
C371 N369 1.263 . S
C371 N370 1.358 . S
C371 H377 0.930 . S
C372 N370 1.400 . S
C372 C373 1.351 . S
C372 H389 0.930 . S
C373 N369 1.389 . S
C373 C372 1.351 . S
C373 H378 0.930 . S
O374 Cu368 1.974 . S
O374 C384 1.282 . S
C375 O376 1.261 . S
C375 O388 1.251 . S
O376 C375 1.261 . S
H377 C371 0.930 . S
H378 C373 0.930 . S
N379 Cu368 1.985 . S
N379 C381 1.335 . S
N379 C382 1.390 . S
N380 C381 1.345 . S
N380 C383 1.336 . S
C381 N379 1.335 . S
C381 N380 1.345 . S
C381 H386 0.930 . S
C382 N379 1.390 . S
C382 C383 1.346 . S
C382 H387 0.930 . S
C383 N380 1.336 . S
C383 C382 1.346 . S
C383 H390 0.929 . S
C384 O374 1.282 . S
C384 O385 1.216 . S
O385 C384 1.216 . S
H386 C381 0.930 . S
H387 C382 0.930 . S
O388 Cu368 1.959 . S
O388 C375 1.251 . S
H389 C372 0.930 . S
H390 C383 0.929 . S
Cu391 N392 1.999 . S
Cu391 O397 1.974 . S
Cu391 N402 1.985 . S
Cu391 O411 1.959 . S
N392 Cu391 1.999 . S
N392 C394 1.263 . S
N392 C396 1.389 . S
N393 C394 1.358 . S
N393 C395 1.400 . S
C394 N392 1.263 . S
C394 N393 1.358 . S
C394 H400 0.930 . S
C395 N393 1.400 . S
C395 C396 1.351 . S
C395 H412 0.930 . S
C396 N392 1.389 . S
C396 C395 1.351 . S
C396 H401 0.930 . S
O397 Cu391 1.974 . S
O397 C407 1.282 . S
C398 O399 1.261 . S
C398 O411 1.251 . S
O399 C398 1.261 . S
H400 C394 0.930 . S
H401 C396 0.930 . S
N402 Cu391 1.985 . S
N402 C404 1.335 . S
N402 C405 1.390 . S
N403 C404 1.345 . S
N403 C406 1.336 . S
C404 N402 1.335 . S
C404 N403 1.345 . S
C404 H409 0.930 . S
C405 N402 1.390 . S
C405 C406 1.346 . S
C405 H410 0.930 . S
C406 N403 1.336 . S
C406 C405 1.346 . S
C406 H413 0.929 . S
C407 O397 1.282 . S
C407 O408 1.216 . S
O408 C407 1.216 . S
H409 C404 0.930 . S
H410 C405 0.930 . S
O411 Cu391 1.959 . S
O411 C398 1.251 . S
H412 C395 0.930 . S
H413 C406 0.929 . S
Cu414 N415 1.999 1_455 S
Cu414 O420 1.974 1_455 S
Cu414 N425 1.985 1_556 S
Cu414 O434 1.959 1_556 S
N415 Cu414 1.999 1_655 S
N415 C417 1.263 . S
N415 C419 1.389 . S
N416 C417 1.358 . S
N416 C418 1.400 . S
C417 N415 1.263 . S
C417 N416 1.358 . S
C417 H423 0.930 . S
C418 N416 1.400 . S
C418 C419 1.351 . S
C418 H435 0.930 . S
C419 N415 1.389 . S
C419 C418 1.351 . S
C419 H424 0.930 1_655 S
O420 Cu414 1.974 1_655 S
O420 C430 1.282 . S
C421 O422 1.261 1_455 S
C421 O434 1.251 . S
O422 C421 1.261 1_655 S
H423 C417 0.930 . S
H424 C419 0.930 1_455 S
N425 Cu414 1.985 1_554 S
N425 C427 1.335 . S
N425 C428 1.390 1_554 S
N426 C427 1.345 . S
N426 C429 1.336 . S
C427 N425 1.335 . S
C427 N426 1.345 . S
C427 H432 0.930 . S
C428 N425 1.390 1_556 S
C428 C429 1.346 1_556 S
C428 H433 0.930 . S
C429 N426 1.336 . S
C429 C428 1.346 1_554 S
C429 H436 0.929 . S
C430 O420 1.282 . S
C430 O431 1.216 . S
O431 C430 1.216 . S
H432 C427 0.930 . S
H433 C428 0.930 . S
O434 Cu414 1.959 1_554 S
O434 C421 1.251 . S
H435 C418 0.930 . S
H436 C429 0.929 . S
Cu437 N438 1.999 . S
Cu437 O443 1.974 . S
Cu437 N448 1.985 . S
Cu437 O457 1.959 . S
N438 Cu437 1.999 . S
N438 C440 1.263 . S
N438 C442 1.389 . S
N439 C440 1.358 . S
N439 C441 1.400 . S
C440 N438 1.263 . S
C440 N439 1.358 . S
C440 H446 0.930 . S
C441 N439 1.400 . S
C441 C442 1.351 . S
C441 H458 0.930 . S
C442 N438 1.389 . S
C442 C441 1.351 . S
C442 H447 0.930 . S
O443 Cu437 1.974 . S
O443 C453 1.282 . S
C444 O445 1.261 . S
C444 O457 1.251 . S
O445 C444 1.261 . S
H446 C440 0.930 . S
H447 C442 0.930 . S
N448 Cu437 1.985 . S
N448 C450 1.335 . S
N448 C451 1.390 . S
N449 C450 1.345 . S
N449 C452 1.336 . S
C450 N448 1.335 . S
C450 N449 1.345 . S
C450 H455 0.930 . S
C451 N448 1.390 . S
C451 C452 1.346 . S
C451 H456 0.930 . S
C452 N449 1.336 . S
C452 C451 1.346 . S
C452 H459 0.929 . S
C453 O443 1.282 . S
C453 O454 1.216 . S
O454 C453 1.216 . S
H455 C450 0.930 . S
H456 C451 0.930 . S
O457 Cu437 1.959 . S
O457 C444 1.251 . S
H458 C441 0.930 . S
H459 C452 0.929 . S
Cu460 N461 1.999 . S
Cu460 O466 1.974 . S
Cu460 N471 1.985 . S
Cu460 O480 1.959 . S
N461 Cu460 1.999 . S
N461 C463 1.263 . S
N461 C465 1.389 . S
N462 C463 1.358 . S
N462 C464 1.400 . S
C463 N461 1.263 . S
C463 N462 1.358 . S
C463 H469 0.930 . S
C464 N462 1.400 . S
C464 C465 1.351 . S
C464 H481 0.930 . S
C465 N461 1.389 . S
C465 C464 1.351 . S
C465 H470 0.930 . S
O466 Cu460 1.974 . S
O466 C476 1.282 . S
C467 O468 1.261 . S
C467 O480 1.251 . S
O468 C467 1.261 . S
H469 C463 0.930 . S
H470 C465 0.930 . S
N471 Cu460 1.985 . S
N471 C473 1.335 . S
N471 C474 1.390 . S
N472 C473 1.345 . S
N472 C475 1.336 . S
C473 N471 1.335 . S
C473 N472 1.345 . S
C473 H478 0.930 . S
C474 N471 1.390 . S
C474 C475 1.346 . S
C474 H479 0.930 . S
C475 N472 1.336 . S
C475 C474 1.346 . S
C475 H482 0.929 . S
C476 O466 1.282 . S
C476 O477 1.216 . S
O477 C476 1.216 . S
H478 C473 0.930 . S
H479 C474 0.930 . S
O480 Cu460 1.959 . S
O480 C467 1.251 . S
H481 C464 0.930 . S
H482 C475 0.929 . S
Cu483 N484 1.999 . S
Cu483 O489 1.974 . S
Cu483 N494 1.985 . S
Cu483 O503 1.959 . S
N484 Cu483 1.999 . S
N484 C486 1.263 . S
N484 C488 1.389 . S
N485 C486 1.358 . S
N485 C487 1.400 . S
C486 N484 1.263 . S
C486 N485 1.358 . S
C486 H492 0.930 . S
C487 N485 1.400 . S
C487 C488 1.351 . S
C487 H504 0.930 . S
C488 N484 1.389 . S
C488 C487 1.351 . S
C488 H493 0.930 . S
O489 Cu483 1.974 . S
O489 C499 1.282 . S
C490 O491 1.261 . S
C490 O503 1.251 . S
O491 C490 1.261 . S
H492 C486 0.930 . S
H493 C488 0.930 . S
N494 Cu483 1.985 . S
N494 C496 1.335 . S
N494 C497 1.390 . S
N495 C496 1.345 . S
N495 C498 1.336 . S
C496 N494 1.335 . S
C496 N495 1.345 . S
C496 H501 0.930 . S
C497 N494 1.390 . S
C497 C498 1.346 . S
C497 H502 0.930 . S
C498 N495 1.336 . S
C498 C497 1.346 . S
C498 H505 0.929 . S
C499 O489 1.282 . S
C499 O500 1.216 . S
O500 C499 1.216 . S
H501 C496 0.930 . S
H502 C497 0.930 . S
O503 Cu483 1.959 . S
O503 C490 1.251 . S
H504 C487 0.930 . S
H505 C498 0.929 . S
Cu506 N507 1.999 1_556 S
Cu506 O512 1.974 1_556 S
Cu506 N517 1.985 . S
Cu506 O526 1.959 . S
N507 Cu506 1.999 1_554 S
N507 C509 1.263 . S
N507 C511 1.389 . S
N508 C509 1.358 . S
N508 C510 1.400 . S
C509 N507 1.263 . S
C509 N508 1.358 . S
C509 H515 0.930 . S
C510 N508 1.400 . S
C510 C511 1.351 . S
C510 H527 0.930 . S
C511 N507 1.389 . S
C511 C510 1.351 . S
C511 H516 0.930 . S
O512 Cu506 1.974 1_554 S
O512 C522 1.282 . S
C513 O514 1.261 . S
C513 O526 1.251 . S
O514 C513 1.261 . S
H515 C509 0.930 . S
H516 C511 0.930 . S
N517 Cu506 1.985 . S
N517 C519 1.335 . S
N517 C520 1.390 . S
N518 C519 1.345 . S
N518 C521 1.336 . S
C519 N517 1.335 . S
C519 N518 1.345 . S
C519 H524 0.930 . S
C520 N517 1.390 . S
C520 C521 1.346 . S
C520 H525 0.930 . S
C521 N518 1.336 . S
C521 C520 1.346 . S
C521 H528 0.929 . S
C522 O512 1.282 . S
C522 O523 1.216 . S
O523 C522 1.216 . S
H524 C519 0.930 . S
H525 C520 0.930 . S
O526 Cu506 1.959 . S
O526 C513 1.251 . S
H527 C510 0.930 . S
H528 C521 0.929 . S
Cu529 N530 1.999 . S
Cu529 O535 1.974 . S
Cu529 N540 1.985 . S
Cu529 O549 1.959 . S
N530 Cu529 1.999 . S
N530 C532 1.263 . S
N530 C534 1.389 . S
N531 C532 1.358 . S
N531 C533 1.400 . S
C532 N530 1.263 . S
C532 N531 1.358 . S
C532 H538 0.930 . S
C533 N531 1.400 . S
C533 C534 1.351 . S
C533 H550 0.930 . S
C534 N530 1.389 . S
C534 C533 1.351 . S
C534 H539 0.930 . S
O535 Cu529 1.974 . S
O535 C545 1.282 . S
C536 O537 1.261 . S
C536 O549 1.251 . S
O537 C536 1.261 . S
H538 C532 0.930 . S
H539 C534 0.930 . S
N540 Cu529 1.985 . S
N540 C542 1.335 . S
N540 C543 1.390 . S
N541 C542 1.345 . S
N541 C544 1.336 . S
C542 N540 1.335 . S
C542 N541 1.345 . S
C542 H547 0.930 . S
C543 N540 1.390 . S
C543 C544 1.346 . S
C543 H548 0.930 . S
C544 N541 1.336 . S
C544 C543 1.346 . S
C544 H551 0.929 . S
C545 O535 1.282 . S
C545 O546 1.216 . S
O546 C545 1.216 . S
H547 C542 0.930 . S
H548 C543 0.930 . S
O549 Cu529 1.959 . S
O549 C536 1.251 . S
H550 C533 0.930 . S
H551 C544 0.929 . S
C168 C7 2.425 . S
N25 C99 1.394 . S
C122 C53 2.360 . S
N71 C145 1.538 . S
N186 N2 0.866 . S
C30 C214 1.874 . S
N232 N48 1.009 . S
C260 C76 1.810 . S
N94 N209 0.604 . S
N117 C237 1.557 . S
N255 N140 0.588 . S
C191 N163 1.636 . S
C490 C283 2.507 . S
N301 N508 1.218 . S
C329 C536 2.455 . S
N531 N347 1.364 . S
N370 N485 1.299 . S
C444 C398 2.155 . S
N278 C375 1.780 . S
C306 C421 2.056 . S
N324 C352 1.876 . S
N393 N462 1.391 . S
N416 C513 1.273 . S
C467 N439 1.391 . S
C108 C16 3.634 . S
C131 N35 2.394 . S
C154 C62 3.842 . S
C177 N81 2.671 . S
N196 N265 3.623 . S
C223 C200 3.047 . S
N242 N219 3.635 . S
C246 C269 2.765 . S
N426 N173 2.717 . S
C292 C85 2.805 . S
N12 N311 3.429 . S
C39 C338 2.953 . S
N127 N449 2.739 . S
N104 N357 3.227 1_655 S
N150 N380 3.143 . S
C384 C407 3.993 . S
N288 C430 2.252 . S
C361 C315 4.145 . S
C453 N334 2.772 . S
N472 N541 3.852 . S
C476 C499 3.899 . S
N518 N495 3.793 . S
C545 C522 3.131 . S
N58 N403 3.908 . S
