# Generated by pormake.
# Topology smm, (6)-cn, num edge types: 1
# Building blocks:
#     Node 0, Type 0, BuildingBlock: JUFBIX_clean_sbu_0, # of connection points: 6
#     Node 1, Type 0, BuildingBlock: JUFBIX_clean_sbu_0, # of connection points: 6
#     Node 2, Type 0, BuildingBlock: JUFBIX_clean_sbu_0, # of connection points: 6
#     Node 3, Type 0, BuildingBlock: JUFBIX_clean_sbu_0, # of connection points: 6
#     Node 4, Type 0, BuildingBlock: JUFBIX_clean_sbu_0, # of connection points: 6
#     Node 5, Type 0, BuildingBlock: JUFBIX_clean_sbu_0, # of connection points: 6
#     Node 6, Type 0, BuildingBlock: JUFBIX_clean_sbu_0, # of connection points: 6
#     Node 7, Type 0, BuildingBlock: JUFBIX_clean_sbu_0, # of connection points: 6
#     Node 8, Type 0, BuildingBlock: JUFBIX_clean_sbu_0, # of connection points: 6
#     Edge 9, Type (0, 0), BuildingBlock: ZUJKAS_clean_linker_0, # of connection points: 2
#     Edge 10, Type (0, 0), BuildingBlock: ZUJKAS_clean_linker_0, # of connection points: 2
#     Edge 11, Type (0, 0), BuildingBlock: ZUJKAS_clean_linker_0, # of connection points: 2
#     Edge 12, Type (0, 0), BuildingBlock: ZUJKAS_clean_linker_0, # of connection points: 2
#     Edge 13, Type (0, 0), BuildingBlock: ZUJKAS_clean_linker_0, # of connection points: 2
#     Edge 14, Type (0, 0), BuildingBlock: ZUJKAS_clean_linker_0, # of connection points: 2
#     Edge 15, Type (0, 0), BuildingBlock: ZUJKAS_clean_linker_0, # of connection points: 2
#     Edge 16, Type (0, 0), BuildingBlock: ZUJKAS_clean_linker_0, # of connection points: 2
#     Edge 17, Type (0, 0), BuildingBlock: ZUJKAS_clean_linker_0, # of connection points: 2
#     Edge 18, Type (0, 0), BuildingBlock: ZUJKAS_clean_linker_0, # of connection points: 2
#     Edge 19, Type (0, 0), BuildingBlock: ZUJKAS_clean_linker_0, # of connection points: 2
#     Edge 20, Type (0, 0), BuildingBlock: ZUJKAS_clean_linker_0, # of connection points: 2
#     Edge 21, Type (0, 0), BuildingBlock: ZUJKAS_clean_linker_0, # of connection points: 2
#     Edge 22, Type (0, 0), BuildingBlock: ZUJKAS_clean_linker_0, # of connection points: 2
#     Edge 23, Type (0, 0), BuildingBlock: ZUJKAS_clean_linker_0, # of connection points: 2
#     Edge 24, Type (0, 0), BuildingBlock: ZUJKAS_clean_linker_0, # of connection points: 2
#     Edge 25, Type (0, 0), BuildingBlock: ZUJKAS_clean_linker_0, # of connection points: 2
#     Edge 26, Type (0, 0), BuildingBlock: ZUJKAS_clean_linker_0, # of connection points: 2
#     Edge 27, Type (0, 0), BuildingBlock: ZUJKAS_clean_linker_0, # of connection points: 2
#     Edge 28, Type (0, 0), BuildingBlock: ZUJKAS_clean_linker_0, # of connection points: 2
#     Edge 29, Type (0, 0), BuildingBlock: ZUJKAS_clean_linker_0, # of connection points: 2
#     Edge 30, Type (0, 0), BuildingBlock: ZUJKAS_clean_linker_0, # of connection points: 2
#     Edge 31, Type (0, 0), BuildingBlock: ZUJKAS_clean_linker_0, # of connection points: 2
#     Edge 32, Type (0, 0), BuildingBlock: ZUJKAS_clean_linker_0, # of connection points: 2
#     Edge 33, Type (0, 0), BuildingBlock: ZUJKAS_clean_linker_0, # of connection points: 2
#     Edge 34, Type (0, 0), BuildingBlock: ZUJKAS_clean_linker_0, # of connection points: 2
#     Edge 35, Type (0, 0), BuildingBlock: ZUJKAS_clean_linker_0, # of connection points: 2
# Relax obj value: 0.254
# Max RMSD: 0.208
# Mean RMSD: 0.208
data_MOF--net-smm--node1-JUFBIX_clean_sbu_0--edge1-ZUJKAS_clean_linker_0
_symmetry_space_group_name_H-M    P1
_symmetry_Int_Tables_number       1
_symmetry_cell_setting            triclinic
loop_
_symmetry_equiv_pos_as_xyz
'x, y, z'
_cell_length_a     72.767375
_cell_length_b     72.754662
_cell_length_c     18.960461
_cell_angle_alpha  89.927318
_cell_angle_beta   90.054978
_cell_angle_gamma 120.0326
loop_
_atom_site_label
_atom_site_type_symbol
_atom_site_fract_x
_atom_site_fract_y
_atom_site_fract_z
_atom_type_partial_charge
Co0 Co 0.99866 0.16655 0.0224 0.0
C1 C 0.01989 0.18098 0.14962 0.0
Co2 Co 0.02761 0.1982 0.01859 0.0
C3 C 0.96957 0.12159 9e-05 0.0
C4 C 0.95857 0.13509 0.07794 0.0
N5 N 0.97441 0.14014 0.03144 0.0
N6 N 0.95142 0.10513 0.02564 0.0
C7 C 0.94446 0.11368 0.07444 0.0
H8 H 0.97949 0.12016 0.96056 0.0
H9 H 0.9578 0.14611 0.11441 0.0
C10 C 0.00632 0.1837 0.89146 0.0
N11 N 0.05175 0.2246 0.01081 0.0
C12 C 0.05376 0.24154 0.97497 0.0
C13 C 0.07107 0.23112 0.03888 0.0
N14 N 0.07357 0.25843 0.97947 0.0
C15 C 0.08451 0.25194 0.01985 0.0
C16 C 0.03495 0.1648 -0.00702 0.0
O17 O 0.99345 0.16728 0.92599 0.0
O18 O 0.02214 0.1988 0.92239 0.0
O19 O 0.04377 0.18488 -0.00237 0.0
O20 O 0.01503 0.15353 0.00209 0.0
O21 O 0.03278 0.19733 0.11499 0.0
H22 H 0.07512 0.22134 0.07087 0.0
H23 H 0.0408 0.24152 0.94686 0.0
O24 O 1.00406 0.16592 0.11871 0.0
O25 O 0.98261 0.18 0.04276 0.0
O26 O 0.01135 0.21131 0.03994 0.0
C27 C 0.99143 0.20003 0.04883 0.0
H28 H 0.93073 0.10498 0.10802 0.0
H29 H 0.10111 0.26142 0.03387 0.0
Co30 Co 0.86037 0.84149 0.97037 0.0
C31 C 0.84064 0.8369 0.09798 0.0
Co32 Co 0.82852 0.83831 0.96529 0.0
C33 C 0.90578 0.85935 0.95545 0.0
C34 C 0.89124 0.8305 0.01516 0.0
N35 N 0.88683 0.84389 0.97957 0.0
N36 N 0.92184 0.85612 0.97458 0.0
C37 C 0.91269 0.83792 0.01204 0.0
H38 H 0.90774 0.87276 0.92469 0.0
H39 H 0.87965 0.81644 0.04293 0.0
C40 C 0.84828 0.84294 0.83776 0.0
N41 N 0.80195 0.83559 0.95622 0.0
C42 C 0.7863 0.82242 0.91219 0.0
C43 C 0.794 0.84621 -0.00898 0.0
N44 N 0.76884 0.82434 0.91794 0.0
C45 C 0.77366 0.83936 0.96753 0.0
C46 C 0.86129 0.88006 0.97514 0.0
O47 O 0.86347 0.84386 0.87327 0.0
O48 O 0.83157 0.84008 0.86828 0.0
O49 O 0.84127 0.86836 0.96949 0.0
O50 O 0.87278 0.87145 0.97747 0.0
O51 O 0.82574 0.83664 0.06261 0.0
H52 H 0.80243 0.85811 0.03103 0.0
H53 H 0.78783 0.81179 0.87591 0.0
O54 O 0.85707 0.83909 0.06729 0.0
O55 O 0.84762 0.81155 0.96376 0.0
O56 O 0.81601 0.80823 0.96182 0.0
C57 C 0.82757 0.79971 0.96262 0.0
H58 H 0.92098 0.83084 0.03746 0.0
H59 H 0.76313 0.84475 -0.01355 0.0
Co60 Co 0.18459 0.02853 0.0002 0.0
C61 C 0.17873 0.0077 0.12764 0.0
Co62 Co 0.18865 1.00041 -0.00324 0.0
C63 C 0.16716 0.05605 0.97536 0.0
C64 C 0.19217 0.06878 0.05177 0.0
N65 N 0.18137 0.05215 0.00801 0.0
N66 N 0.16866 0.07441 -0.00283 0.0
C67 C 0.18446 0.0825 0.04506 0.0
H68 H 0.15574 0.04546 0.93704 0.0
H69 H 0.20444 0.07052 0.08796 0.0
C70 C 0.19454 0.02137 0.86939 0.0
N71 N 0.19203 0.97695 -0.01103 0.0
C72 C 0.20652 0.9754 0.94898 0.0
C73 C 0.18029 0.9576 0.01839 0.0
N74 N 0.20426 0.95585 0.95173 0.0
C75 C 0.18781 0.9446 -0.00426 0.0
C76 C 0.14725 0.99126 0.97167 0.0
O77 O 0.1903 0.03374 0.90368 0.0
O78 O 0.19456 0.00595 0.90057 0.0
O79 O 0.15923 0.98324 0.97586 0.0
O80 O 0.1552 0.01112 0.98046 0.0
O81 O 0.18275 0.99519 0.09315 0.0
H82 H 0.1669 0.95315 0.05302 0.0
H83 H 0.21852 0.98845 0.91835 0.0
O84 O 0.17883 0.0232 0.09657 0.0
O85 O 0.21405 0.04558 0.02039 0.0
O86 O 0.21798 0.01764 0.01828 0.0
C87 C 0.2259 0.03749 0.02715 0.0
H88 H 0.18946 0.09683 0.07541 0.0
H89 H 0.18132 0.92802 0.00917 0.0
Co90 Co 0.66965 0.50498 0.3333 0.0
C91 C 0.69117 0.51945 0.45984 0.0
Co92 Co 0.69817 0.5369 0.32839 0.0
C93 C 0.64088 0.46032 0.30733 0.0
C94 C 0.62963 0.47274 0.38809 0.0
N95 N 0.64563 0.47841 0.3417 0.0
N96 N 0.62261 0.44358 0.33064 0.0
C97 C 0.61546 0.45141 0.38128 0.0
H98 H 0.65085 0.45938 0.26681 0.0
H99 H 0.62869 0.48329 0.42622 0.0
C100 C 0.67654 0.52232 0.20191 0.0
N101 N 0.72215 0.56341 0.32012 0.0
C102 C 0.72429 0.57986 0.28091 0.0
C103 C 0.74157 0.57004 0.34752 0.0
N104 N 0.74432 0.59645 0.28205 0.0
C105 C 0.75525 0.59034 0.32414 0.0
C106 C 0.70602 0.50385 0.30088 0.0
O107 O 0.66385 0.50599 0.23714 0.0
O108 O 0.69248 0.53745 0.23216 0.0
O109 O 0.71461 0.52389 0.30663 0.0
O110 O 0.68614 0.49235 0.31001 0.0
O111 O 0.70353 0.53604 0.4251 0.0
H112 H 0.74561 0.56055 0.3811 0.0
H113 H 0.71151 0.57933 0.25007 0.0
O114 O 0.6756 0.50406 0.42905 0.0
O115 O 0.65353 0.51802 0.35736 0.0
O116 O 0.68168 0.54975 0.35054 0.0
C117 C 0.66198 0.53803 0.36288 0.0
H118 H 0.60151 0.44219 0.41351 0.0
H119 H 0.77194 0.59979 0.33693 0.0
Co120 Co 0.52706 0.18121 0.34967 0.0
C121 C 0.51401 0.1888 0.47759 0.0
Co122 Co 0.49544 0.17855 0.34776 0.0
C123 C 0.57153 0.19724 0.31962 0.0
C124 C 0.55955 0.17273 0.3978 0.0
N125 N 0.55363 0.18355 0.3544 0.0
N126 N 0.58838 0.19546 0.33984 0.0
C127 C 0.58083 0.17995 0.38881 0.0
H128 H 0.57226 0.20855 0.28099 0.0
H129 H 0.54922 0.16083 0.43539 0.0
C130 C 0.50858 0.17094 0.21989 0.0
N131 N 0.46893 0.17614 0.34337 0.0
C132 C 0.45165 0.161 0.30953 0.0
C133 C 0.46272 0.18916 0.3715 0.0
N134 N 0.43486 0.16404 0.31507 0.0
C135 C 0.44179 0.18178 0.35414 0.0
C136 C 0.52844 0.2191 0.31815 0.0
O137 O 0.52515 0.17456 0.25351 0.0
O138 O 0.49372 0.17185 0.25166 0.0
O139 O 0.50841 0.20788 0.32454 0.0
O140 O 0.53974 0.21048 0.32701 0.0
O141 O 0.49747 0.18525 0.44394 0.0
H142 H 0.4728 0.20317 0.40231 0.0
H143 H 0.4516 0.14824 0.2801 0.0
O144 O 0.52886 0.18788 0.44578 0.0
O145 O 0.51394 0.15187 0.37275 0.0
O146 O 0.48265 0.14934 0.37153 0.0
C147 C 0.49396 0.14075 0.38092 0.0
H148 H 0.59022 0.17486 0.41847 0.0
H149 H 0.43241 0.18887 0.36962 0.0
Co150 Co 0.85114 0.3639 0.33863 0.0
C151 C 0.84399 0.34383 0.46736 0.0
Co152 Co 0.85347 0.33478 0.33773 0.0
C153 C 0.8357 0.3927 0.30736 0.0
C154 C 0.86018 0.40507 0.38562 0.0
N155 N 0.84922 0.38833 0.34246 0.0
N156 N 0.83769 0.41143 0.32725 0.0
C157 C 0.85318 0.4193 0.37628 0.0
H158 H 0.82433 0.38213 0.2689 0.0
H159 H 0.87198 0.40651 0.42338 0.0
C160 C 0.86064 0.35493 0.20905 0.0
N161 N 0.85547 0.31046 0.33457 0.0
C162 C 0.87058 0.30802 0.30203 0.0
C163 C 0.84221 0.29137 0.36335 0.0
N164 N 0.86732 0.28814 0.30914 0.0
C165 C 0.84943 0.2776 0.34775 0.0
C166 C 0.81284 0.32745 0.31049 0.0
O167 O 0.85723 0.36807 0.24224 0.0
O168 O 0.85972 0.33921 0.24135 0.0
O169 O 0.824 0.31856 0.31637 0.0
O170 O 0.82167 0.34744 0.31814 0.0
O171 O 0.84723 0.33062 0.43406 0.0
H172 H 0.8282 0.28771 0.39368 0.0
H173 H 0.88355 0.32057 0.27268 0.0
O174 O 0.84501 0.3596 0.4351 0.0
O175 O 0.88063 0.38001 0.35942 0.0
O176 O 0.88288 0.35109 0.35966 0.0
C177 C 0.89168 0.37108 0.36731 0.0
H178 H 0.85838 0.43379 0.40588 0.0
H179 H 0.8422 0.26119 0.36434 0.0
Co180 Co 0.33308 0.83772 0.68474 0.0
C181 C 0.34814 0.85963 0.81085 0.0
Co182 Co 0.36257 0.86901 0.67784 0.0
C183 C 0.30436 0.79228 0.68045 0.0
C184 C 0.29054 0.80893 0.72981 0.0
N185 N 0.30829 0.81196 0.6971 0.0
N186 N 0.28491 0.77705 0.70202 0.0
C187 C 0.27616 0.78756 0.73278 0.0
H188 H 0.31587 0.78917 0.65532 0.0
H189 H 0.28836 0.82143 0.75167 0.0
C190 C 0.34757 0.84715 0.55171 0.0
N191 N 0.3875 0.89488 0.66467 0.0
C192 C 0.39035 0.91471 0.66726 0.0
C193 C 0.40611 0.89755 0.64037 0.0
N194 N 0.40985 0.92955 0.64475 0.0
C195 C 0.41984 0.91875 0.62839 0.0
C196 C 0.36968 0.83529 0.6995 0.0
O197 O 0.33247 0.83294 0.58785 0.0
O198 O 0.36184 0.86387 0.58133 0.0
O199 O 0.37858 0.85528 0.69225 0.0
O200 O 0.34955 0.82428 0.69832 0.0
O201 O 0.36315 0.87392 0.77455 0.0
H202 H 0.40919 0.88484 0.62806 0.0
H203 H 0.37811 0.91816 0.68297 0.0
O204 O 0.33394 0.84282 0.78142 0.0
O205 O 0.31692 0.85139 0.67146 0.0
O206 O 0.34599 0.88231 0.6643 0.0
C207 C 0.32585 0.87141 0.66486 0.0
H208 H 0.26055 0.78036 0.7564 0.0
H209 H 0.43545 0.92547 0.60494 0.0
Co210 Co 0.19098 0.512 0.7204 0.0
C211 C 0.17237 0.51297 0.84634 0.0
Co212 Co 0.15943 0.50919 0.71059 0.0
C213 C 0.23644 0.52914 0.70955 0.0
C214 C 0.2214 0.5025 0.77955 0.0
N215 N 0.21725 0.51427 0.73417 0.0
N216 N 0.25235 0.52727 0.73878 0.0
C217 C 0.24294 0.5105 0.78266 0.0
H218 H 0.23878 0.54176 0.67388 0.0
H219 H 0.20956 0.48949 0.81071 0.0
C220 C 0.17836 0.50876 0.58466 0.0
N221 N 0.1331 0.5068 0.69843 0.0
C222 C 0.11671 0.49232 0.65946 0.0
C223 C 0.1261 0.51912 0.72705 0.0
N224 N 0.09967 0.49504 0.66272 0.0
C225 C 0.10557 0.51193 0.70528 0.0
C226 C 0.19276 0.55076 0.70638 0.0
O227 O 0.19399 0.51174 0.62253 0.0
O228 O 0.16153 0.50645 0.61296 0.0
O229 O 0.17276 0.53916 0.7 0.0
O230 O 0.20388 0.54205 0.71754 0.0
O231 O 0.15765 0.51217 0.80838 0.0
H232 H 0.13535 0.53246 0.76156 0.0
H233 H 0.1172 0.47981 0.63021 0.0
O234 O 0.1879 0.51249 0.81816 0.0
O235 O 0.17774 0.4819 0.72332 0.0
O236 O 0.14638 0.47925 0.72165 0.0
C237 C 0.15764 0.47042 0.72557 0.0
H238 H 0.25111 0.50474 0.81582 0.0
H239 H 0.09586 0.51878 0.71917 0.0
Co240 Co 0.51753 0.69694 0.67077 0.0
C241 C 0.52352 0.68019 0.79529 0.0
Co242 Co 0.5192 0.66746 0.66075 0.0
C243 C 0.50055 0.72521 0.67159 0.0
C244 C 0.53093 0.73899 0.72178 0.0
N245 N 0.51651 0.7215 0.68694 0.0
N246 N 0.50433 0.74423 0.69584 0.0
C247 C 0.52352 0.75301 0.72711 0.0
H248 H 0.48626 0.71402 0.64394 0.0
H249 H 0.54557 0.74111 0.74392 0.0
C250 C 0.51324 0.68419 0.53617 0.0
N251 N 0.51996 0.64267 0.64262 0.0
C252 C 0.53671 0.6394 0.64253 0.0
C253 C 0.50415 0.62522 0.61124 0.0
N254 N 0.53195 0.62088 0.61127 0.0
C255 C 0.51149 0.6119 0.59186 0.0
C256 C 0.47826 0.66027 0.68037 0.0
O257 O 0.51381 0.69887 0.57377 0.0
O258 O 0.51565 0.66974 0.56444 0.0
O259 O 0.48928 0.65137 0.67168 0.0
O260 O 0.48751 0.68038 0.68278 0.0
O261 O 0.52265 0.66533 0.75773 0.0
H262 H 0.48874 0.62301 0.59785 0.0
H263 H 0.55253 0.65107 0.65946 0.0
O264 O 0.52138 0.69484 0.76706 0.0
O265 O 0.54743 0.71319 0.65942 0.0
O266 O 0.54926 0.68413 0.65057 0.0
C267 C 0.55854 0.70428 0.65289 0.0
H268 H 0.53127 0.76809 0.75443 0.0
H269 H 0.50287 0.59736 0.56187 0.0
H270 H 0.10548 0.29603 0.02744 0.0
H271 H 0.11821 0.33109 0.97512 0.0
H272 H 0.07182 0.30297 0.80898 0.0
H273 H 0.05928 0.26775 0.86011 0.0
H274 H 0.11376 0.33341 0.76253 0.0
H275 H 0.08537 0.364 0.97978 0.0
H276 H 0.10139 0.35293 0.00793 0.0
H277 H 0.076 0.33606 0.96773 0.0
C278 C 0.09809 0.29726 0.9795 0.0
C279 C 0.08127 0.27909 0.94821 0.0
C280 C 0.10525 0.31732 0.95003 0.0
C281 C 0.09574 0.31962 0.88881 0.0
C282 C 0.07925 0.30152 0.85659 0.0
H283 H 0.11534 0.44161 0.74038 0.0
H284 H 0.0992 0.40408 0.7722 0.0
C285 C 0.07201 0.28144 0.88618 0.0
C286 C 0.1031 0.34093 0.8584 0.0
H287 H 0.10834 0.38922 0.89538 0.0
C288 C 0.11248 0.3456 0.79126 0.0
C289 C 0.1011 0.35666 0.89566 0.0
C290 C 0.09025 0.35218 0.96651 0.0
C291 C 0.12053 0.36586 0.76129 0.0
C292 C 0.11932 0.38184 0.79989 0.0
C293 C 0.10936 0.37696 0.86608 0.0
C294 C 0.12887 0.40396 0.77391 0.0
C295 C 0.13019 0.36998 0.68857 0.0
C296 C 0.15088 0.41628 0.76387 0.0
C297 C 0.16016 0.43772 0.74577 0.0
C298 C 0.14759 0.44728 0.73773 0.0
C299 C 0.12547 0.43475 0.74609 0.0
C300 C 0.11622 0.4133 0.76434 0.0
H301 H 0.12473 0.35498 0.65877 0.0
H302 H 0.12621 0.38052 0.65783 0.0
H303 H 0.14772 0.37795 0.69342 0.0
H304 H 0.16098 0.40948 0.77232 0.0
H305 H 0.17725 0.44693 0.74004 0.0
H306 H 0.75228 0.78475 0.86314 0.0
H307 H 0.71847 0.76447 0.80112 0.0
H308 H 0.70639 0.81636 0.82665 0.0
H309 H 0.74042 0.83696 0.88721 0.0
H310 H 0.67838 0.75267 0.85727 0.0
H311 H 0.69422 0.80157 0.61599 0.0
H312 H 0.71516 0.8038 0.67294 0.0
H313 H 0.70009 0.81627 0.69693 0.0
C314 C 0.74263 0.79201 0.85452 0.0
C315 C 0.74911 0.81253 0.88002 0.0
C316 C 0.72326 0.78035 0.81934 0.0
C317 C 0.71008 0.78903 0.80837 0.0
C318 C 0.71651 0.80952 0.83338 0.0
H319 H 0.58285 0.74705 0.67403 0.0
H320 H 0.62053 0.76696 0.70385 0.0
C321 C 0.73585 0.82117 0.86878 0.0
C322 C 0.68899 0.77615 0.77489 0.0
H323 H 0.65815 0.77524 0.63749 0.0
C324 C 0.67401 0.75744 0.80876 0.0
C325 C 0.68336 0.78249 0.71177 0.0
C326 C 0.69909 0.80203 0.67181 0.0
C327 C 0.65327 0.74528 0.78265 0.0
C328 C 0.64752 0.75175 0.71994 0.0
C329 C 0.66263 0.77027 0.68533 0.0
C330 C 0.6255 0.74018 0.69231 0.0
C331 C 0.63746 0.7261 0.82413 0.0
C332 C 0.616 0.71872 0.67294 0.0
C333 C 0.59439 0.70722 0.65615 0.0
C334 C 0.58197 0.71707 0.65784 0.0
C335 C 0.59191 0.73894 0.67247 0.0
C336 C 0.61347 0.75037 0.68956 0.0
H337 H 0.64301 0.72617 0.87879 0.0
H338 H 0.62185 0.72534 0.82676 0.0
H339 H 0.63513 0.71149 0.79768 0.0
H340 H 0.62514 0.71069 0.67316 0.0
H341 H 0.58727 0.69045 0.64458 0.0
H342 H 0.21207 0.92459 -0.00889 0.0
H343 H 0.23321 0.91241 0.92725 0.0
H344 H 0.24554 0.95823 0.76311 0.0
H345 H 0.22405 0.9702 0.82584 0.0
H346 H 0.23359 0.91636 0.7139 0.0
H347 H 0.29885 0.94689 0.91057 0.0
H348 H 0.27284 0.93045 0.94714 0.0
H349 H 0.2795 0.95552 0.9078 0.0
C350 C 0.21915 0.93198 0.94123 0.0
C351 C 0.21651 0.94848 0.91389 0.0
C352 C 0.23136 0.92512 0.9051 0.0
C353 C 0.24115 0.93464 0.84103 0.0
C354 C 0.23823 0.95081 0.81278 0.0
H355 H 0.34004 0.91408 0.6656 0.0
H356 H 0.31952 0.93122 0.69572 0.0
C357 C 0.22609 0.95774 0.84901 0.0
C358 C 0.2545 0.92772 0.80372 0.0
H359 H 0.29888 0.92357 0.8229 0.0
C360 C 0.24797 0.91808 0.73731 0.0
C361 C 0.27342 0.93033 0.83393 0.0
C362 C 0.28173 0.94153 0.90349 0.0
C363 C 0.25949 0.9102 0.70151 0.0
C364 C 0.27784 0.91187 0.73341 0.0
C365 C 0.28476 0.92224 0.79859 0.0
C366 C 0.28946 0.9019 0.70281 0.0
C367 C 0.25189 0.90012 0.63005 0.0
C368 C 0.27926 0.87977 0.69497 0.0
C369 C 0.29092 0.86992 0.67767 0.0
C370 C 0.31305 0.88202 0.66851 0.0
C371 C 0.32303 0.90429 0.67237 0.0
C372 C 0.31134 0.91412 0.68971 0.0
H373 H 0.24194 0.90578 0.60404 0.0
H374 H 0.26545 0.90353 0.59498 0.0
H375 H 0.24206 0.88265 0.63651 0.0
H376 H 0.26248 0.87 0.70609 0.0
H377 H 0.28274 0.85275 0.6753 0.0
H378 H 0.41572 0.12227 0.28049 0.0
H379 H 0.38072 0.10077 0.22711 0.0
H380 H 0.37156 0.1549 0.22732 0.0
H381 H 0.40664 0.17661 0.2801 0.0
H382 H 0.33691 0.11744 0.28086 0.0
H383 H 0.36357 0.10341 0.02224 0.0
H384 H 0.37393 0.09665 0.09776 0.0
H385 H 0.38131 0.12387 0.08238 0.0
C386 C 0.40641 0.12971 0.26841 0.0
C387 C 0.41409 0.15124 0.28432 0.0
C388 C 0.3864 0.11737 0.23787 0.0
C389 C 0.37371 0.12634 0.22227 0.0
C390 C 0.38117 0.14772 0.23874 0.0
H391 H 0.2472 0.08013 0.05359 0.0
H392 H 0.28326 0.10167 0.09918 0.0
C393 C 0.40118 0.16007 0.26928 0.0
C394 C 0.35238 0.11328 0.19063 0.0
H395 H 0.32654 0.08427 0.04479 0.0
C396 C 0.33462 0.11026 0.22913 0.0
C397 C 0.34949 0.10387 0.12326 0.0
C398 C 0.36807 0.10721 0.07858 0.0
C399 C 0.31399 0.09783 0.20247 0.0
C400 C 0.3111 0.08852 0.13492 0.0
C401 C 0.32884 0.09146 0.09651 0.0
C402 C 0.28973 0.07572 0.10335 0.0
C403 C 0.29542 0.0944 0.24745 0.0
C404 C 0.28173 0.05417 0.0881 0.0
C405 C 0.26115 0.04181 0.06156 0.0
C406 C 0.24827 0.05085 0.04952 0.0
C407 C 0.25664 0.07263 0.06263 0.0
C408 C 0.2772 0.08495 0.08911 0.0
H409 H 0.29993 0.09799 0.30388 0.0
H410 H 0.28964 0.1051 0.22904 0.0
H411 H 0.28213 0.07779 0.24317 0.0
H412 H 0.29123 0.0468 0.09831 0.0
H413 H 0.25521 0.0251 0.05186 0.0
H414 H 0.85462 0.24718 0.27662 0.0
H415 H 0.87656 0.23333 0.2296 0.0
H416 H 0.93091 0.29655 0.228 0.0
H417 H 0.90928 0.31046 0.27711 0.0
H418 H 0.89979 0.24432 0.10258 0.0
H419 H 0.95231 0.26196 0.33581 0.0
H420 H 0.92761 0.26214 0.33964 0.0
H421 H 0.95082 0.28425 0.30198 0.0
C422 C 0.87129 0.25812 0.26718 0.0
C423 C 0.88019 0.27993 0.28102 0.0
C424 C 0.88377 0.25019 0.2398 0.0
C425 C 0.90539 0.26388 0.22618 0.0
C426 C 0.91431 0.28567 0.23922 0.0
H427 H 0.0054 0.24223 0.06951 0.0
H428 H 0.98451 0.25831 0.10792 0.0
C429 C 0.90186 0.29362 0.26657 0.0
C430 C 0.91852 0.25536 0.19736 0.0
H431 H 0.96116 0.24932 0.23381 0.0
C432 C 0.91319 0.24537 0.13124 0.0
C433 C 0.93602 0.25684 0.23489 0.0
C434 C 0.94199 0.26671 0.30729 0.0
C435 C 0.92502 0.23693 0.10131 0.0
C436 C 0.94239 0.23825 0.13912 0.0
C437 C 0.94785 0.24841 0.20493 0.0
C438 C 0.95476 0.22861 0.11241 0.0
C439 C 0.91899 0.22694 0.02911 0.0
C440 C 0.94493 0.20659 0.10249 0.0
C441 C 0.95678 0.19735 0.08058 0.0
C442 C 0.97873 0.20997 0.06858 0.0
C443 C 0.98851 0.23207 0.07813 0.0
C444 C 0.97663 0.24129 0.10013 0.0
H445 H 0.90926 0.23225 -0.00034 0.0
H446 H 0.93333 0.23082 -0.00252 0.0
H447 H 0.90948 0.20943 0.03486 0.0
H448 H 0.92815 0.19649 0.11306 0.0
H449 H 0.94878 0.18028 0.07413 0.0
H450 H 0.84798 0.77689 0.97232 0.0
H451 H 0.83297 0.74021 0.01205 0.0
H452 H 0.77069 0.73355 0.01913 0.0
H453 H 0.7855 0.77018 0.97859 0.0
H454 H 0.8132 0.72777 0.14296 0.0
H455 H 0.75899 0.67732 0.93024 0.0
H456 H 0.77964 0.70446 0.91559 0.0
H457 H 0.75519 0.69884 0.95719 0.0
C458 C 0.83099 0.76748 0.98049 0.0
C459 C 0.81795 0.77651 0.97269 0.0
C460 C 0.82246 0.74652 0.00333 0.0
C461 C 0.80072 0.73414 0.0183 0.0
C462 C 0.78745 0.74271 0.00678 0.0
H463 H 0.72254 0.6158 0.24 0.0
H464 H 0.73644 0.64905 0.17397 0.0
C465 C 0.79597 0.76369 0.98385 0.0
C466 C 0.79248 0.71335 0.05396 0.0
H467 H 0.75611 0.66052 0.04092 0.0
C468 C 0.80086 0.71303 0.12036 0.0
C469 C 0.77622 0.69422 0.02468 0.0
C470 C 0.76707 0.6936 0.95273 0.0
C471 C 0.79318 0.69414 0.15892 0.0
C472 C 0.77697 0.67496 0.12962 0.0
C473 C 0.76857 0.67525 0.06316 0.0
C474 C 0.76847 0.65449 0.16761 0.0
C475 C 0.8021 0.695 0.23156 0.0
C476 C 0.78181 0.64641 0.18508 0.0
C477 C 0.77393 0.62745 0.22289 0.0
C478 C 0.75248 0.61609 0.24337 0.0
C479 C 0.73908 0.62406 0.22462 0.0
C480 C 0.747 0.64307 0.18701 0.0
H481 H 0.81018 0.71136 0.25341 0.0
H482 H 0.7894 0.68436 0.26871 0.0
H483 H 0.81395 0.68967 0.22844 0.0
H484 H 0.79833 0.65475 0.16928 0.0
H485 H 0.78457 0.62154 0.23513 0.0
H486 H 0.09144 0.47188 0.54259 0.0
H487 H 0.05685 0.45011 0.4865 0.0
H488 H 0.02729 0.46802 0.64853 0.0
H489 H 0.06165 0.48929 0.70607 0.0
H490 H 0.00609 0.42436 0.62038 0.0
H491 H 0.02298 0.4718 0.37442 0.0
H492 H 0.04174 0.46339 0.39533 0.0
H493 H 0.03938 0.48182 0.45223 0.0
C494 C 0.07758 0.4711 0.56658 0.0
C495 C 0.07937 0.4824 0.62882 0.0
C496 C 0.05785 0.45883 0.53399 0.0
C497 C 0.03957 0.4577 0.56286 0.0
C498 C 0.04125 0.46881 0.62516 0.0
H499 H 0.91481 0.41381 0.39132 0.0
H500 H 0.95116 0.43414 0.43573 0.0
C501 C 0.06094 0.48108 0.6577 0.0
C502 C 0.01855 0.44459 0.52927 0.0
H503 H 0.98999 0.43979 0.38047 0.0
C504 C 1.00256 0.42767 0.56786 0.0
C505 C 0.01399 0.44911 0.46101 0.0
C506 C 0.03033 0.46762 0.41837 0.0
C507 C 0.98209 0.41514 0.54004 0.0
C508 C 0.9776 0.41948 0.47141 0.0
C509 C 0.99357 0.4364 0.43279 0.0
C510 C 0.95611 0.40722 0.44029 0.0
C511 C 0.96527 0.39773 0.58505 0.0
C512 C 0.94705 0.38543 0.42665 0.0
C513 C 0.92626 0.37374 0.40127 0.0
C514 C 0.91421 0.38367 0.38889 0.0
C515 C 0.92362 0.40565 0.40047 0.0
C516 C 0.9444 0.41731 0.42578 0.0
H517 H 0.97 0.39945 0.64146 0.0
H518 H 0.94999 0.39763 0.58093 0.0
H519 H 0.96261 0.38214 0.56632 0.0
H520 H 0.95598 0.37744 0.43642 0.0
H521 H 0.91953 0.35686 0.39252 0.0
H522 H 0.5358 0.60933 0.48037 0.0
H523 H 0.55959 0.59677 0.44128 0.0
H524 H 0.58455 0.60444 0.65258 0.0
H525 H 0.56131 0.61815 0.69076 0.0
H526 H 0.61542 0.61635 0.56 0.0
H527 H 0.54931 0.53853 0.4755 0.0
H528 H 0.54851 0.55968 0.42983 0.0
H529 H 0.54496 0.55727 0.52419 0.0
C530 C 0.54638 0.60828 0.51831 0.0
C531 C 0.54657 0.61429 0.58872 0.0
C532 C 0.55987 0.60101 0.49614 0.0
C533 C 0.57335 0.59895 0.54447 0.0
C534 C 0.57409 0.60566 0.61452 0.0
H535 H 0.62653 0.51882 0.44387 0.0
H536 H 0.60635 0.53435 0.49228 0.0
C537 C 0.56088 0.61343 0.63638 0.0
C538 C 0.58649 0.5897 0.52149 0.0
H539 H 0.58379 0.54751 0.43374 0.0
C540 C 0.6085 0.60119 0.533 0.0
C541 C 0.57743 0.56971 0.48755 0.0
C542 C 0.55373 0.5555 0.4793 0.0
C543 C 0.62175 0.59349 0.51004 0.0
C544 C 0.61281 0.57413 0.47207 0.0
C545 C 0.59074 0.56249 0.46187 0.0
C546 C 0.62578 0.56521 0.44401 0.0
C547 C 0.64505 0.60595 0.52832 0.0
C548 C 0.64339 0.57727 0.40019 0.0
C549 C 0.65527 0.56851 0.37365 0.0
C550 C 0.6493 0.54733 0.38861 0.0
C551 C 0.63139 0.53514 0.43093 0.0
C552 C 0.61987 0.54403 0.45879 0.0
H553 H 0.6479 0.61602 0.57569 0.0
H554 H 0.6516 0.59531 0.5384 0.0
H555 H 0.65388 0.61665 0.48376 0.0
H556 H 0.64788 0.59339 0.38596 0.0
H557 H 0.66894 0.5782 0.34074 0.0
H558 H 0.51401 0.11879 0.4165 0.0
H559 H 0.49802 0.08284 0.46475 0.0
H560 H 0.43601 0.07664 0.45127 0.0
H561 H 0.4518 0.11253 0.40245 0.0
H562 H 0.47317 0.06814 0.5908 0.0
H563 H 0.42855 0.02245 0.35414 0.0
H564 H 0.44984 0.04968 0.34912 0.0
H565 H 0.4241 0.04366 0.38014 0.0
C566 C 0.49694 0.10971 0.42301 0.0
C567 C 0.48417 0.1185 0.40541 0.0
C568 C 0.48786 0.08921 0.45083 0.0
C569 C 0.46585 0.07707 0.46102 0.0
C570 C 0.45301 0.08566 0.44282 0.0
H571 H 0.38605 0.94781 0.61431 0.0
H572 H 0.39908 0.98446 0.57727 0.0
C573 C 0.46207 0.10619 0.41512 0.0
C574 C 0.45647 0.05568 0.49298 0.0
H575 H 0.42338 1.00304 0.45932 0.0
C576 C 0.46228 0.05388 0.56216 0.0
C577 C 0.44217 0.03718 0.45554 0.0
C578 C 0.43587 0.0382 0.38042 0.0
C579 C 0.45412 0.03402 0.59506 0.0
C580 C 0.44013 0.01547 0.55715 0.0
C581 C 0.43408 0.0173 0.48832 0.0
C582 C 0.43229 0.99391 0.58649 0.0
C583 C 0.46038 0.03311 0.67032 0.0
C584 C 0.44664 0.98713 0.60469 0.0
C585 C 0.43926 0.96625 0.62651 0.0
C586 C 0.41735 0.95164 0.62991 0.0
C587 C 0.403 0.95865 0.61331 0.0
C588 C 0.41042 0.97957 0.59155 0.0
H589 H 0.46565 0.04839 0.69815 0.0
H590 H 0.447 0.02021 0.70014 0.0
H591 H 0.47381 0.02996 0.67058 0.0
H592 H 0.46359 0.99781 0.59996 0.0
H593 H 0.45072 0.96143 0.63946 0.0
H594 H 0.12711 0.05186 0.96037 0.0
H595 H 0.10304 0.06579 0.94158 0.0
H596 H 0.1547 0.12937 0.97758 0.0
H597 H 0.1789 0.11561 -0.00481 0.0
H598 H 0.09542 0.08905 0.04633 0.0
H599 H 0.12564 0.13539 0.79887 0.0
H600 H 0.13159 0.115 0.82443 0.0
H601 H 0.14576 0.14091 0.86377 0.0
C602 C 0.13345 0.06884 0.9626 0.0
C603 C 0.15491 0.08265 0.97937 0.0
C604 C 0.11966 0.07676 0.95221 0.0
C605 C 0.12716 0.09861 0.95746 0.0
C606 C 0.14868 0.11249 0.97214 0.0
H607 H 0.07819 0.18367 -0.01133 0.0
H608 H 0.09938 0.16636 0.97503 0.0
C609 C 0.16243 0.10458 0.98293 0.0
C610 C 0.11221 0.10679 0.9542 0.0
H611 H 0.10209 0.14196 0.86782 0.0
C612 C 0.09665 0.1004 0.00678 0.0
C613 C 0.11402 0.12169 0.90279 0.0
C614 C 0.13003 0.12855 0.84383 0.0
C615 C 0.08332 0.10912 0.01104 0.0
C616 C 0.08531 0.12428 0.96021 0.0
C617 C 0.10059 0.13034 0.90667 0.0
C618 C 0.07232 0.13473 0.96378 0.0
C619 C 0.06788 0.10271 0.0717 0.0
C620 C 0.05009 0.12273 0.96035 0.0
C621 C 0.03793 0.13255 0.96873 0.0
C622 C 0.04781 0.15459 0.9798 0.0
C623 C 0.0701 0.16666 0.98044 0.0
C624 C 0.08224 0.1568 0.97254 0.0
H625 H 0.07198 0.0951 0.11504 0.0
H626 H 0.06743 0.11665 0.09341 0.0
H627 H 0.05172 0.09109 0.05273 0.0
H628 H 0.04215 0.10574 0.95202 0.0
H629 H 0.02079 0.12283 0.96722 0.0
H630 H 0.90297 0.90937 -0.00029 0.0
H631 H 0.91915 0.94808 0.00394 0.0
H632 H 0.85836 0.94236 0.96037 0.0
H633 H 0.84193 0.90365 0.95659 0.0
H634 H 0.89965 0.97426 0.87287 0.0
H635 H 0.90303 0.98066 0.16619 0.0
H636 H 0.91068 0.96326 0.12435 0.0
H637 H 0.88351 0.9569 0.12154 0.0
C638 C 0.89302 0.91633 -0.00892 0.0
C639 C 0.87114 0.90343 0.97801 0.0
C640 C 0.9023 0.93842 -0.0065 0.0
C641 C 0.8899 0.94794 0.9825 0.0
C642 C 0.86814 0.9352 0.96892 0.0
H643 H 0.91063 0.0739 0.0451 0.0
H644 H 0.89628 0.03578 0.03088 0.0
C645 C 0.8588 0.91311 0.967 0.0
C646 C 0.89958 0.97124 -0.0142 0.0
H647 H 0.91677 0.01251 0.10147 0.0
C648 C 0.90351 0.9827 0.92269 0.0
C649 C 0.90443 0.98202 0.05102 0.0
C650 C 0.90018 0.9702 0.11995 0.0
C651 C 0.91224 0.00483 0.92325 0.0
C652 C 0.91705 0.0156 -0.01149 0.0
C653 C 0.9131 0.00412 0.05158 0.0
C654 C 0.92563 0.03876 -0.00728 0.0
C655 C 0.91595 0.01659 0.85444 0.0
C656 C 0.94685 0.053 0.97541 0.0
C657 C 0.95523 0.07485 0.98428 0.0
C658 C 0.94248 0.0828 0.01063 0.0
C659 C 0.92102 0.06839 0.02591 0.0
C660 C 0.91274 0.04658 0.01746 0.0
H661 H 0.90912 0.00563 0.80884 0.0
H662 H 0.90887 0.02702 0.85645 0.0
H663 H 0.93327 0.02689 0.84578 0.0
H664 H 0.95706 0.04716 0.95678 0.0
H665 H 0.97185 0.08537 0.97276 0.0
H666 H 0.94296 0.89891 0.95745 0.0
H667 H 0.98135 0.92219 0.94569 0.0
H668 H 0.98995 0.86772 0.95283 0.0
H669 H 0.95162 0.84437 0.96453 0.0
H670 H 0.0154 0.89911 0.04698 0.0
H671 H 0.0215 0.93322 0.78015 0.0
H672 H 1.00342 0.93574 0.83833 0.0
H673 H 0.99785 0.90983 0.81065 0.0
C674 C 0.95297 0.89185 0.95507 0.0
C675 C 0.94423 0.86978 0.96211 0.0
C676 C 0.97492 0.90519 0.94827 0.0
C677 C 0.98848 0.89666 0.94762 0.0
C678 C 0.97976 0.87462 0.95313 0.0
H679 H 0.12496 0.94811 0.95612 0.0
H680 H 0.08647 0.92521 0.94653 0.0
C681 C 0.95787 0.86131 0.96016 0.0
C682 C 0.01185 0.91073 0.94636 0.0
H683 H 0.05292 0.94885 0.84986 0.0
C684 C 0.02362 0.90988 0.00366 0.0
C685 C 0.02249 0.92486 0.88997 0.0
C686 C 0.01072 0.9259 0.82594 0.0
C687 C 0.04574 0.92296 0.00661 0.0
C688 C 0.0564 0.93703 0.95016 0.0
C689 C 0.04466 0.93799 0.89292 0.0
C690 C 0.07976 0.95099 0.95029 0.0
C691 C 0.05746 0.92194 0.07086 0.0
C692 C 0.08874 0.97311 0.95305 0.0
C693 C 0.11074 0.98627 0.95826 0.0
C694 C 0.12413 0.97751 0.96045 0.0
C695 C 0.11509 0.95536 0.95502 0.0
C696 C 0.0931 0.94224 0.94984 0.0
H697 H 0.04661 0.91419 0.11617 0.0
H698 H 0.06525 0.91256 0.05816 0.0
H699 H 0.06998 0.93808 0.08712 0.0
H700 H 0.07868 0.98016 0.95312 0.0
H701 H 0.11719 0.00327 0.96203 0.0
H702 H 0.7493 0.52324 0.29425 0.0
H703 H 0.77083 0.5063 0.2814 0.0
H704 H 0.71398 0.44514 0.26299 0.0
H705 H 0.6923 0.46189 0.27722 0.0
H706 H 0.74126 0.44531 0.36072 0.0
H707 H 0.78487 0.48135 0.11296 0.0
H708 H 0.78727 0.50074 0.1763 0.0
H709 H 0.7617 0.48267 0.13911 0.0
C710 C 0.74137 0.50622 0.28648 0.0
C711 C 0.71909 0.49391 0.28692 0.0
C712 C 0.75371 0.49657 0.2786 0.0
C713 C 0.74401 0.47449 0.27015 0.0
C714 C 0.72178 0.46222 0.26902 0.0
H715 H 0.79668 0.38966 0.28326 0.0
H716 H 0.77333 0.40418 0.26088 0.0
C717 C 0.70942 0.47183 0.27722 0.0
C718 C 0.75701 0.46402 0.26884 0.0
H719 H 0.79857 0.46393 0.18555 0.0
C720 C 0.7536 0.44915 0.32183 0.0
C721 C 0.77313 0.46913 0.21816 0.0
C722 C 0.77685 0.48419 0.158 0.0
C723 C 0.76633 0.43979 0.32704 0.0
C724 C 0.78274 0.44524 0.27731 0.0
C725 C 0.78596 0.45982 0.22354 0.0
C726 C 0.79733 0.43668 0.28275 0.0
C727 C 0.76264 0.42472 0.38724 0.0
C728 C 0.81872 0.45027 0.29977 0.0
C729 C 0.83215 0.44205 0.31212 0.0
C730 C 0.82443 0.42009 0.30734 0.0
C731 C 0.80319 0.40664 0.28702 0.0
C732 C 0.78976 0.41488 0.27479 0.0
H733 H 0.75224 0.42548 0.4286 0.0
H734 H 0.75488 0.40823 0.36678 0.0
H735 H 0.77794 0.42829 0.41184 0.0
H736 H 0.82487 0.46717 0.30574 0.0
H737 H 0.84849 0.45285 0.32652 0.0
H738 H 0.58128 0.41291 0.33597 0.0
H739 H 0.56676 0.37484 0.3172 0.0
H740 H 0.62912 0.38614 0.2633 0.0
H741 H 0.64387 0.4242 0.28345 0.0
H742 H 0.56877 0.3512 0.19571 0.0
H743 H 0.60968 0.34461 0.43462 0.0
H744 H 0.6065 0.36732 0.41836 0.0
H745 H 0.62612 0.36428 0.37069 0.0
C746 C 0.59189 0.4073 0.31997 0.0
C747 C 0.61376 0.42155 0.31197 0.0
C748 C 0.58355 0.38559 0.30878 0.0
C749 C 0.59693 0.37772 0.28977 0.0
C750 C 0.6186 0.39194 0.27871 0.0
H751 H 0.57037 0.24684 0.29157 0.0
H752 H 0.58748 0.28526 0.27484 0.0
C753 C 0.62696 0.41369 0.28968 0.0
C754 C 0.58831 0.35453 0.28555 0.0
H755 H 0.58872 0.31336 0.37031 0.0
C756 C 0.57319 0.34288 0.23353 0.0
C757 C 0.59416 0.34382 0.33501 0.0
C758 C 0.60989 0.35554 0.39325 0.0
C759 C 0.56369 0.32069 0.22976 0.0
C760 C 0.56915 0.30991 0.28039 0.0
C761 C 0.58459 0.32165 0.33149 0.0
C762 C 0.55843 0.28642 0.2837 0.0
C763 C 0.54804 0.30904 0.17134 0.0
C764 C 0.53641 0.27431 0.29408 0.0
C765 C 0.52656 0.25234 0.30334 0.0
C766 C 0.53861 0.24211 0.30333 0.0
C767 C 0.56063 0.25424 0.29196 0.0
C768 C 0.57044 0.27619 0.28232 0.0
H769 H 0.55066 0.31961 0.12549 0.0
H770 H 0.54913 0.29512 0.15312 0.0
H771 H 0.53171 0.30331 0.1911 0.0
H772 H 0.5269 0.28192 0.29717 0.0
H773 H 0.50958 0.24348 0.31243 0.0
H774 H 0.60764 0.23674 0.29912 0.0
H775 H 0.64552 0.26017 0.27603 0.0
H776 H 0.65679 0.20823 0.31485 0.0
H777 H 0.61892 0.18463 0.33669 0.0
H778 H 0.6774 0.26856 0.37716 0.0
H779 H 0.69021 0.23504 0.1318 0.0
H780 H 0.66425 0.22963 0.15986 0.0
H781 H 0.67625 0.21576 0.19967 0.0
C782 C 0.61809 0.23018 0.30109 0.0
C783 C 0.61027 0.20881 0.31982 0.0
C784 C 0.63974 0.24361 0.28825 0.0
C785 C 0.6539 0.23587 0.293 0.0
C786 C 0.64608 0.21444 0.30975 0.0
H787 H 0.78821 0.28419 0.31009 0.0
H788 H 0.74956 0.26308 0.3004 0.0
C789 C 0.62447 0.20103 0.32296 0.0
C790 C 0.67707 0.25054 0.28678 0.0
H791 H 0.72122 0.25923 0.19607 0.0
C792 C 0.68698 0.26673 0.33704 0.0
C793 C 0.68947 0.24797 0.23464 0.0
C794 C 0.67952 0.23128 0.17798 0.0
C795 C 0.70911 0.27996 0.33828 0.0
C796 C 0.7216 0.27724 0.28669 0.0
C797 C 0.71162 0.2613 0.23549 0.0
C798 C 0.7451 0.29014 0.28717 0.0
C799 C 0.71895 0.29613 0.39665 0.0
C800 C 0.75545 0.31233 0.2811 0.0
C801 C 0.77753 0.32447 0.28719 0.0
C802 C 0.78968 0.31459 0.29857 0.0
C803 C 0.77932 0.2923 0.30155 0.0
C804 C 0.75724 0.2802 0.29593 0.0
H805 H 0.70779 0.29262 0.44128 0.0
H806 H 0.73355 0.29674 0.41714 0.0
H807 H 0.72336 0.31207 0.37577 0.0
H808 H 0.74643 0.32029 0.27268 0.0
H809 H 0.78504 0.3416 0.28392 0.0
H810 H 0.4613 0.72196 0.69456 0.0
H811 H 0.43733 0.73645 0.69458 0.0
H812 H 0.49115 0.8 0.69558 0.0
H813 H 0.51522 0.78566 0.6942 0.0
H814 H 0.43584 0.76465 0.79833 0.0
H815 H 0.45383 0.79952 0.52912 0.0
H816 H 0.46015 0.77959 0.55715 0.0
H817 H 0.47669 0.80677 0.58354 0.0
C818 C 0.46804 0.73902 0.69366 0.0
C819 C 0.49018 0.75269 0.69393 0.0
C820 C 0.45433 0.74725 0.69425 0.0
C821 C 0.4625 0.76926 0.69435 0.0
C822 C 0.48455 0.78295 0.69458 0.0
H823 H 0.41289 0.85453 0.70197 0.0
H824 H 0.43457 0.83758 0.70419 0.0
C825 C 0.49827 0.77474 0.69435 0.0
C826 C 0.448 0.77798 0.69589 0.0
H827 H 0.43332 0.80871 0.60277 0.0
C828 C 0.43513 0.77416 0.75545 0.0
C829 C 0.44718 0.79035 0.63978 0.0
C830 C 0.46004 0.7942 0.57343 0.0
C831 C 0.42185 0.78294 0.76125 0.0
C832 C 0.42124 0.79553 0.70546 0.0
C833 C 0.4339 0.7991 0.64554 0.0
C834 C 0.40787 0.80555 0.70845 0.0
C835 C 0.40908 0.77921 0.82775 0.0
C836 C 0.38566 0.79312 0.71037 0.0
C837 C 0.37317 0.80276 0.70916 0.0
C838 C 0.38273 0.825 0.70563 0.0
C839 C 0.40501 0.83737 0.70473 0.0
C840 C 0.41744 0.82772 0.7059 0.0
H841 H 0.41494 0.77333 0.87154 0.0
H842 H 0.40955 0.79402 0.84497 0.0
H843 H 0.39228 0.76711 0.81734 0.0
H844 H 0.37797 0.77596 0.71118 0.0
H845 H 0.35605 0.79278 0.70957 0.0
H846 H 0.23518 0.57996 0.71128 0.0
H847 H 0.25189 0.61863 0.70531 0.0
H848 H 0.19032 0.61317 0.68477 0.0
H849 H 0.17345 0.57448 0.68973 0.0
H850 H 0.22064 0.64229 0.59047 0.0
H851 H 0.25108 0.65606 0.86552 0.0
H852 H 0.25891 0.64074 0.81228 0.0
H853 H 0.23139 0.6302 0.83382 0.0
C854 C 0.22517 0.58697 0.70551 0.0
C855 C 0.20296 0.57414 0.70148 0.0
C856 C 0.23476 0.60908 0.70237 0.0
C857 C 0.22232 0.61875 0.69565 0.0
C858 C 0.20019 0.606 0.69023 0.0
H859 H 0.25502 0.74726 0.78793 0.0
H860 H 0.24008 0.70894 0.78187 0.0
C861 C 0.19058 0.58389 0.69322 0.0
C862 C 0.23229 0.64217 0.69478 0.0
H863 H 0.26145 0.68649 0.79475 0.0
C864 C 0.22961 0.65199 0.63501 0.0
C865 C 0.24377 0.65471 0.75334 0.0
C866 C 0.24635 0.64494 0.82019 0.0
C867 C 0.23814 0.67408 0.63218 0.0
C868 C 0.24989 0.68665 0.69032 0.0
C869 C 0.25257 0.67681 0.75005 0.0
C870 C 0.25876 0.70994 0.69178 0.0
C871 C 0.23402 0.68372 0.56785 0.0
C872 C 0.27431 0.72325 0.6432 0.0
C873 C 0.2828 0.74526 0.64609 0.0
C874 C 0.27595 0.75434 0.69787 0.0
C875 C 0.26042 0.74088 0.74656 0.0
C876 C 0.25196 0.71894 0.74358 0.0
H877 H 0.22078 0.67159 0.53541 0.0
H878 H 0.23018 0.69615 0.58313 0.0
H879 H 0.2485 0.69127 0.53459 0.0
H880 H 0.28003 0.71664 0.60348 0.0
H881 H 0.29462 0.75511 0.60755 0.0
H882 H 0.45326 0.61969 0.63488 0.0
H883 H 0.41466 0.59828 0.63901 0.0
H884 H 0.41181 0.64957 0.74284 0.0
H885 H 0.45051 0.67152 0.73538 0.0
H886 H 0.38913 0.58331 0.74375 0.0
H887 H 0.36808 0.63569 0.5951 0.0
H888 H 0.39489 0.64049 0.59926 0.0
H889 H 0.38431 0.64884 0.67029 0.0
C890 C 0.44442 0.62646 0.65828 0.0
C891 C 0.4549 0.64729 0.68471 0.0
C892 C 0.42233 0.61421 0.66055 0.0
C893 C 0.41021 0.62239 0.69012 0.0
C894 C 0.42069 0.6431 0.71774 0.0
H895 H 0.28197 0.54034 0.84105 0.0
H896 H 0.3202 0.56395 0.82808 0.0
C897 C 0.44283 0.65556 0.71414 0.0
C898 C 0.38675 0.60877 0.69466 0.0
H899 H 0.33988 0.60694 0.65803 0.0
C900 C 0.37839 0.58846 0.72449 0.0
C901 C 0.37265 0.61528 0.66848 0.0
C902 C 0.38044 0.63617 0.6308 0.0
C903 C 0.35644 0.5746 0.72962 0.0
C904 C 0.34236 0.58155 0.70709 0.0
C905 C 0.35066 0.60172 0.67621 0.0
C906 C 0.319 0.56811 0.71536 0.0
C907 C 0.34866 0.55247 0.75761 0.0
C908 C 0.30543 0.56344 0.65704 0.0
C909 C 0.28347 0.55029 0.6648 0.0
C910 C 0.27479 0.54144 0.73079 0.0
C911 C 0.28833 0.54655 0.78929 0.0
C912 C 0.31018 0.55997 0.78183 0.0
H913 H 0.36067 0.54748 0.74991 0.0
H914 H 0.3457 0.55219 0.81511 0.0
H915 H 0.33369 0.54068 0.73143 0.0
H916 H 0.31185 0.56968 0.60532 0.0
H917 H 0.27331 0.54661 0.61903 0.0
H918 H 0.98043 0.15129 0.80379 0.0
H919 H 0.98249 0.15144 0.67499 0.0
H920 H 0.02987 0.21795 0.67814 0.0
H921 H 0.02808 0.21803 0.80662 0.0
H922 H 0.97955 0.17922 0.56581 0.0
H923 H 0.05871 0.18536 0.59065 0.0
H924 H 0.04019 0.17744 0.66311 0.0
H925 H 0.0553 0.20487 0.63789 0.0
C926 C 0.99094 0.16604 0.77694 0.0
C927 C 0.00438 0.18455 0.81491 0.0
C928 C 0.9921 0.16607 0.70368 0.0
C929 C 0.00664 0.18459 0.6682 0.0
C930 C 0.01884 0.20347 0.70545 0.0
H931 H 0.04635 0.21332 0.23656 0.0
H932 H 0.04435 0.21356 0.36531 0.0
C933 C 0.01776 0.20346 0.77856 0.0
C934 C 0.01028 0.18378 0.59283 0.0
H935 H 0.04685 0.1863 0.47527 0.0
C936 C 0.99419 0.18072 0.54574 0.0
C937 C 0.02947 0.18573 0.56787 0.0
C938 C 0.04689 0.18837 0.61738 0.0
C939 C 0.99695 0.17986 0.4732 0.0
C940 C 0.01611 0.18171 0.44825 0.0
C941 C 0.03222 0.18483 0.49534 0.0
C942 C 0.01965 0.18064 0.37291 0.0
C943 C 0.97955 0.17729 0.42373 0.0
C944 C 0.00711 0.16173 0.33613 0.0
C945 C 0.00814 0.16153 0.26303 0.0
C946 C 0.02182 0.18024 0.22623 0.0
C947 C 0.03559 0.19873 0.26376 0.0
C948 C 0.03447 0.19892 0.337 0.0
H949 H 0.96796 0.18068 0.45027 0.0
H950 H 0.98628 0.18797 0.37742 0.0
H951 H 0.97084 0.16069 0.40415 0.0
H952 H 0.99588 0.14742 0.36377 0.0
H953 H 0.99756 0.14698 0.23533 0.0
H954 H 0.82199 0.84878 0.752 0.0
H955 H 0.82215 0.84886 0.62369 0.0
H956 H 0.87779 0.84209 0.62353 0.0
H957 H 0.87784 0.84194 0.75271 0.0
H958 H 0.85849 0.87575 0.52358 0.0
H959 H 0.82585 0.78806 0.52254 0.0
H960 H 0.82407 0.80196 0.59876 0.0
H961 H 0.84897 0.80412 0.57571 0.0
C962 C 0.83437 0.84748 0.72474 0.0
C963 C 0.84971 0.84498 0.76162 0.0
C964 C 0.83449 0.84768 0.65188 0.0
C965 C 0.84986 0.8453 0.61572 0.0
C966 C 0.86582 0.84384 0.65188 0.0
H967 H 0.86597 0.82958 0.18357 0.0
H968 H 0.86622 0.83006 0.31187 0.0
C969 C 0.86579 0.84372 0.72504 0.0
C970 C 0.84797 0.84265 0.54007 0.0
H971 H 0.83111 0.80497 0.41232 0.0
C972 C 0.8526 0.86037 0.49878 0.0
C973 C 0.84 0.82239 0.50971 0.0
C974 C 0.83428 0.80295 0.55373 0.0
C975 C 0.84968 0.85835 0.4261 0.0
C976 C 0.84166 0.83808 0.39573 0.0
C977 C 0.83704 0.82037 0.43706 0.0
C978 C 0.83956 0.83533 0.32008 0.0
C979 C 0.85547 0.87783 0.38215 0.0
C980 C 0.82401 0.83754 0.28403 0.0
C981 C 0.82383 0.83736 0.21087 0.0
C982 C 0.83927 0.83503 0.17416 0.0
C983 C 0.85411 0.83174 0.21094 0.0
C984 C 0.85423 0.83187 0.28381 0.0
H985 H 0.86444 0.89272 0.41299 0.0
H986 H 0.86518 0.87852 0.33599 0.0
H987 H 0.84076 0.87701 0.36194 0.0
H988 H 0.81253 0.84004 0.31242 0.0
H989 H 0.81215 0.83977 0.18328 0.0
H990 H 0.18713 0.04659 0.7813 0.0
H991 H 0.18553 0.04462 0.65245 0.0
H992 H 0.20664 0.99879 0.65663 0.0
H993 H 0.20822 1.0005 0.78514 0.0
H994 H 0.21713 0.0485 0.54392 0.0
H995 H 0.14499 0.96854 0.56831 0.0
H996 H 0.15509 0.98719 0.64053 0.0
H997 H 0.16804 0.97261 0.61649 0.0
C998 C 0.19186 0.03645 0.75467 0.0
C999 C 0.19741 0.0234 0.7929 0.0
C1000 C 0.19093 0.03535 0.68139 0.0
C1001 C 0.19558 0.02127 0.64619 0.0
C1002 C 0.2027 0.00948 0.68374 0.0
H1003 H 0.18548 0.98178 0.21454 0.0
H1004 H 0.18784 0.98383 0.34327 0.0
C1005 C 0.2036 0.01051 0.75686 0.0
C1006 C 0.19127 0.01755 0.5708 0.0
H1007 H 0.15768 0.98062 0.4531 0.0
C1008 C 0.20416 0.03372 0.52377 0.0
C1009 C 0.17426 0.99819 0.54578 0.0
C1010 C 0.15965 0.98064 0.59526 0.0
C1011 C 0.20061 0.0309 0.4512 0.0
C1012 C 0.18352 0.01159 0.4262 0.0
C1013 C 0.17068 0.99538 0.47323 0.0
C1014 C 0.17892 0.00801 0.35089 0.0
C1015 C 0.21529 0.04842 0.40176 0.0
C1016 C 0.17213 0.02022 0.31416 0.0
C1017 C 0.17081 0.01915 0.24109 0.0
C1018 C 0.1762 0.00577 0.20426 0.0
C1019 C 0.18138 0.99232 0.24176 0.0
C1020 C 0.18276 0.99347 0.31498 0.0
H1021 H 0.23017 0.06021 0.42843 0.0
H1022 H 0.21944 0.04182 0.35565 0.0
H1023 H 0.20716 0.05685 0.38186 0.0
H1024 H 0.16877 0.03123 0.34184 0.0
H1025 H 0.1665 0.02948 0.21343 0.0
H1026 H 0.71693 0.55215 0.54695 0.0
H1027 H 0.7151 0.55229 0.67562 0.0
H1028 H 0.66822 0.4856 0.67432 0.0
H1029 H 0.6697 0.4853 0.54585 0.0
H1030 H 0.65553 0.51203 0.74173 0.0
H1031 H 0.73435 0.52713 0.83509 0.0
H1032 H 0.7352 0.54488 0.76751 0.0
H1033 H 0.72435 0.51721 0.74781 0.0
C1034 C 0.70663 0.5374 0.57417 0.0
C1035 C 0.69328 0.51877 0.53657 0.0
C1036 C 0.70566 0.53751 0.64754 0.0
C1037 C 0.69155 0.51894 0.68385 0.0
C1038 C 0.67918 0.50004 0.64674 0.0
H1039 H 0.65074 0.48958 0.115 0.0
H1040 H 0.65241 0.48948 -0.01374 0.0
C1041 C 0.68007 0.49993 0.57352 0.0
C1042 C 0.68789 0.51976 0.75953 0.0
H1043 H 0.71187 0.52979 0.92009 0.0
C1044 C 0.66777 0.51579 0.78097 0.0
C1045 C 0.70401 0.52482 0.8098 0.0
C1046 C 0.72566 0.52859 0.78919 0.0
C1047 C 0.66339 0.517 0.85203 0.0
C1048 C 0.67951 0.52206 0.90229 0.0
C1049 C 0.69963 0.52603 0.88085 0.0
C1050 C 0.67586 0.52286 0.97798 0.0
C1051 C 0.64174 0.51322 0.87268 0.0
C1052 C 0.68821 0.54177 0.01507 0.0
C1053 C 0.68741 0.54186 0.0883 0.0
C1054 C 0.6743 0.52299 0.12526 0.0
C1055 C 0.66094 0.50435 0.08773 0.0
C1056 C 0.66182 0.50427 0.01434 0.0
H1057 H 0.63302 0.51462 0.82676 0.0
H1058 H 0.63223 0.49695 0.89456 0.0
H1059 H 0.64305 0.52464 0.91394 0.0
H1060 H 0.6991 0.55624 -0.01255 0.0
H1061 H 0.69776 0.5565 0.11597 0.0
H1062 H 0.54733 0.19751 0.56363 0.0
H1063 H 0.54655 0.19507 0.6921 0.0
H1064 H 0.48225 0.18325 0.69322 0.0
H1065 H 0.48284 0.18583 0.56462 0.0
H1066 H 0.5107 0.2114 0.80345 0.0
H1067 H 0.50891 0.13428 0.7784 0.0
H1068 H 0.53018 0.15636 0.73288 0.0
H1069 H 0.50325 0.14664 0.7054 0.0
C1070 C 0.53315 0.19479 0.59124 0.0
C1071 C 0.515 0.19147 0.55429 0.0
C1072 C 0.53274 0.19334 0.66437 0.0
C1073 C 0.51419 0.18851 0.70107 0.0
C1074 C 0.49661 0.18681 0.66503 0.0
H1075 H 0.47483 0.16114 0.1346 0.0
H1076 H 0.47523 0.16319 0.00604 0.0
C1077 C 0.497 0.1883 0.59182 0.0
C1078 C 0.51257 0.18367 0.77644 0.0
H1079 H 0.51102 0.14745 0.89401 0.0
C1080 C 0.51071 0.19743 0.8235 0.0
C1081 C 0.51249 0.16531 0.80142 0.0
C1082 C 0.51364 0.14966 0.752 0.0
C1083 C 0.50917 0.1935 0.896 0.0
C1084 C 0.50917 0.17519 0.92098 0.0
C1085 C 0.51098 0.1614 0.87393 0.0
C1086 C 0.50781 0.17051 -0.00359 0.0
C1087 C 0.50794 0.2091 0.94545 0.0
C1088 C 0.5257 0.17283 0.03213 0.0
C1089 C 0.52554 0.17161 0.10539 0.0
C1090 C 0.50748 0.16809 0.14326 0.0
C1091 C 0.48906 0.16415 0.10669 0.0
C1092 C 0.48924 0.16535 0.03351 0.0
H1093 H 0.51229 0.22436 0.91883 0.0
H1094 H 0.49147 0.20218 0.96553 0.0
H1095 H 0.5186 0.2124 -0.00854 0.0
H1096 H 0.54009 0.17668 0.00361 0.0
H1097 H 0.53991 0.17457 0.13231 0.0
H1098 H 0.83627 0.36916 0.55301 0.0
H1099 H 0.83845 0.37059 0.68152 0.0
H1100 H 0.84827 0.31682 0.68303 0.0
H1101 H 0.84594 0.31506 0.55445 0.0
H1102 H 0.82024 0.31799 0.79233 0.0
H1103 H 0.89891 0.39175 0.76871 0.0
H1104 H 0.87734 0.3918 0.72252 0.0
H1105 H 0.88626 0.3739 0.69559 0.0
C1106 C 0.8385 0.35739 0.58072 0.0
C1107 C 0.84134 0.34224 0.54396 0.0
C1108 C 0.83979 0.35829 0.65384 0.0
C1109 C 0.84397 0.3441 0.69061 0.0
C1110 C 0.84521 0.32796 0.65472 0.0
H1111 H 0.86959 0.33032 0.12424 0.0
H1112 H 0.86785 0.3289 -0.00436 0.0
C1113 C 0.84388 0.32701 0.58154 0.0
C1114 C 0.84868 0.3471 0.76594 0.0
H1115 H 0.88538 0.38077 0.88405 0.0
C1116 C 0.83446 0.33164 0.81266 0.0
C1117 C 0.86738 0.36493 0.79116 0.0
C1118 C 0.88348 0.3815 0.742 0.0
C1119 C 0.83828 0.3338 0.88517 0.0
C1120 C 0.85693 0.35168 0.91041 0.0
C1121 C 0.87118 0.36711 0.86369 0.0
C1122 C 0.86147 0.3548 -0.0142 0.0
C1123 C 0.82224 0.3172 0.93436 0.0
C1124 C 0.85952 0.37059 0.02131 0.0
C1125 C 0.86055 0.37151 0.09454 0.0
C1126 C 0.86349 0.35659 0.13252 0.0
C1127 C 0.86702 0.34182 0.09619 0.0
C1128 C 0.86602 0.34095 0.02303 0.0
H1129 H 0.80693 0.30664 0.90741 0.0
H1130 H 0.82863 0.30722 0.95491 0.0
H1131 H 0.81916 0.32479 0.9801 0.0
H1132 H 0.85613 0.38145 -0.00737 0.0
H1133 H 0.85793 0.38315 0.12131 0.0
H1134 H 0.3811 0.87035 0.46612 0.0
H1135 H 0.38076 0.87125 0.33775 0.0
H1136 H 0.31552 0.82053 0.33648 0.0
H1137 H 0.31558 0.81954 0.4657 0.0
H1138 H 0.3687 0.83781 0.23092 0.0
H1139 H 0.31747 0.87455 0.24493 0.0
H1140 H 0.33201 0.87323 0.32013 0.0
H1141 H 0.30833 0.8499 0.29139 0.0
C1142 C 0.36675 0.85918 0.43855 0.0
C1143 C 0.34821 0.84515 0.47539 0.0
C1144 C 0.36665 0.85967 0.3655 0.0
C1145 C 0.34803 0.8462 0.32881 0.0
C1146 C 0.32991 0.83116 0.36491 0.0
H1147 H 0.31467 0.8365 0.89671 0.0
H1148 H 0.31511 0.83565 0.02508 0.0
C1149 C 0.33 0.83059 0.43825 0.0
C1150 C 0.34724 0.84933 0.25325 0.0
H1151 H 0.32725 0.86911 0.13165 0.0
C1152 C 0.35964 0.8446 0.20886 0.0
C1153 C 0.33556 0.85846 0.22601 0.0
C1154 C 0.32268 0.86451 0.27293 0.0
C1155 C 0.36039 0.84846 0.13656 0.0
C1156 C 0.3487 0.85758 0.10931 0.0
C1157 C 0.33631 0.86233 0.15371 0.0
C1158 C 0.34786 0.86067 0.03374 0.0
C1159 C 0.37328 0.84242 0.08964 0.0
C1160 C 0.36597 0.87568 -0.00251 0.0
C1161 C 0.36582 0.87622 0.92415 0.0
C1162 C 0.34757 0.86166 0.88717 0.0
C1163 C 0.32905 0.84766 0.92416 0.0
C1164 C 0.32921 0.8472 -0.00279 0.0
H1165 H 0.3785 0.83239 0.11765 0.0
H1166 H 0.36394 0.83369 0.04246 0.0
H1167 H 0.38762 0.85703 0.07115 0.0
H1168 H 0.38038 0.8863 0.02578 0.0
H1169 H 0.38022 0.88724 0.89657 0.0
H1170 H 0.16183 0.53843 0.91925 0.0
H1171 H 0.16654 0.54568 0.0465 0.0
H1172 H 0.18625 0.49897 0.06982 0.0
H1173 H 0.1829 0.49283 0.94292 0.0
H1174 H 0.14939 0.52346 0.15722 0.0
H1175 H 0.23385 0.5474 0.16764 0.0
H1176 H 0.22023 0.54422 0.08505 0.0
H1177 H 0.21996 0.52179 0.12715 0.0
C1178 C 0.16708 0.52974 0.95212 0.0
C1179 C 0.17221 0.51525 0.92238 0.0
C1180 C 0.16989 0.53396 0.02426 0.0
C1181 C 0.17752 0.52343 0.06688 0.0
C1182 C 0.18133 0.50799 0.03729 0.0
H1183 H 0.14981 0.48398 0.48642 0.0
H1184 H 0.15143 0.49131 0.36 0.0
C1185 C 0.17911 0.50424 0.96526 0.0
C1186 C 0.18067 0.52762 0.14301 0.0
H1187 H 0.2136 0.53096 0.27583 0.0
C1188 C 0.16363 0.52563 0.18325 0.0
C1189 C 0.19957 0.5314 0.17683 0.0
C1190 C 0.21949 0.5366 0.13657 0.0
C1191 C 0.16425 0.52526 0.25686 0.0
C1192 C 0.18191 0.52576 0.2902 0.0
C1193 C 0.19974 0.52982 0.25015 0.0
C1194 C 0.18164 0.52069 0.36549 0.0
C1195 C 0.14586 0.52401 0.29764 0.0
C1196 C 0.1989 0.53378 0.40905 0.0
C1197 C 0.19848 0.52893 0.48026 0.0
C1198 C 0.18061 0.51122 0.50864 0.0
C1199 C 0.16369 0.49773 0.46494 0.0
C1200 C 0.16444 0.50217 0.39335 0.0
H1201 H 0.13888 0.53244 0.26921 0.0
H1202 H 0.13321 0.50715 0.30278 0.0
H1203 H 0.15073 0.531 0.35112 0.0
H1204 H 0.21244 0.548 0.3884 0.0
H1205 H 0.21153 0.53965 0.51385 0.0
H1206 H 0.49943 0.65014 0.45104 0.0
H1207 H 0.50055 0.65021 0.32273 0.0
H1208 H 0.52225 0.71732 0.32045 0.0
H1209 H 0.52126 0.71748 0.44994 0.0
H1210 H 0.482 0.66536 0.21551 0.0
H1211 H 0.57042 0.70856 0.22882 0.0
H1212 H 0.55394 0.6953 0.30432 0.0
H1213 H 0.55704 0.72013 0.27475 0.0
C1214 C 0.50416 0.66487 0.42323 0.0
C1215 C 0.51065 0.68391 0.45986 0.0
C1216 C 0.50468 0.66483 0.35021 0.0
C1217 C 0.51177 0.68381 0.31318 0.0
C1218 C 0.51694 0.70262 0.34908 0.0
H1219 H 0.53797 0.71434 0.88029 0.0
H1220 H 0.53686 0.71434 0.0086 0.0
C1221 C 0.5163 0.70266 0.42253 0.0
C1222 C 0.51545 0.68397 0.23752 0.0
H1223 H 0.55484 0.69915 0.11596 0.0
C1224 C 0.49787 0.67278 0.19338 0.0
C1225 C 0.53626 0.69345 0.21015 0.0
C1226 C 0.55557 0.70494 0.25679 0.0
C1227 C 0.50058 0.67109 0.12129 0.0
C1228 C 0.5214 0.68054 0.09392 0.0
C1229 C 0.53897 0.69175 0.13807 0.0
C1230 C 0.52508 0.68063 0.01827 0.0
C1231 C 0.48125 0.65963 0.07469 0.0
C1232 C 0.51962 0.66174 0.98243 0.0
C1233 C 0.52023 0.66166 0.90898 0.0
C1234 C 0.52617 0.68046 0.87158 0.0
C1235 C 0.53299 0.69957 0.90815 0.0
C1236 C 0.53249 0.69965 0.98118 0.0
H1237 H 0.46645 0.65625 0.1025 0.0
H1238 H 0.48298 0.66917 0.02678 0.0
H1239 H 0.47961 0.64431 0.05739 0.0
H1240 H 0.51409 0.64701 0.01109 0.0
H1241 H 0.51501 0.64679 0.88163 0.0
loop_
_geom_bond_atom_site_label_1
_geom_bond_atom_site_label_2
_geom_bond_distance
_geom_bond_site_symmetry_2
_ccdc_geom_bond_type
Co0 N5 2.057 . S
Co0 O17 2.021 1_554 S
Co0 O20 2.062 1_654 S
Co0 O24 2.117 1_655 S
Co0 O25 2.020 . S
C1 O21 1.259 . S
C1 O24 1.258 . S
Co2 N11 2.057 1_554 S
Co2 O18 2.117 1_554 S
Co2 O19 2.020 1_554 S
Co2 O21 2.021 . S
Co2 O26 2.062 . S
C3 N5 1.325 . S
C3 N6 1.354 . S
C3 H8 0.916 1_554 S
C4 N5 1.375 . S
C4 C7 1.350 . S
C4 H9 0.930 . S
N5 Co0 2.057 . S
N5 C3 1.325 . S
N5 C4 1.375 . S
N6 C3 1.354 . S
N6 C7 1.373 . S
C7 C4 1.350 . S
C7 N6 1.373 . S
C7 H28 0.931 . S
H8 C3 0.916 1_556 S
H9 C4 0.930 . S
C10 O17 1.259 1_455 S
C10 O18 1.258 . S
N11 Co2 2.057 1_556 S
N11 C12 1.316 1_556 S
N11 C13 1.375 . S
C12 N11 1.316 1_554 S
C12 N14 1.347 1_554 S
C12 H23 0.931 . S
C13 N11 1.375 . S
C13 C15 1.350 . S
C13 H22 0.930 . S
N14 C12 1.347 1_556 S
N14 C15 1.373 . S
C15 C13 1.350 . S
C15 N14 1.373 . S
C15 H29 0.931 . S
C16 O19 1.256 . S
C16 O20 1.255 . S
O17 Co0 2.021 1_556 S
O17 C10 1.259 1_655 S
O18 Co2 2.117 1_556 S
O18 C10 1.258 . S
O19 Co2 2.020 1_556 S
O19 C16 1.256 . S
O20 Co0 2.062 1_456 S
O20 C16 1.255 . S
O21 C1 1.259 . S
O21 Co2 2.021 . S
H22 C13 0.930 . S
H23 C12 0.931 . S
O24 Co0 2.117 1_455 S
O24 C1 1.258 . S
O25 Co0 2.020 . S
O25 C27 1.256 . S
O26 Co2 2.062 . S
O26 C27 1.255 1_455 S
C27 O25 1.256 . S
C27 O26 1.255 1_655 S
H28 C7 0.931 . S
H29 C15 0.931 . S
Co30 N35 2.057 . S
Co30 O47 2.021 1_554 S
Co30 O50 2.062 1_554 S
Co30 O54 2.117 . S
Co30 O55 2.020 . S
C31 O51 1.259 . S
C31 O54 1.258 . S
Co32 N41 2.057 1_554 S
Co32 O48 2.117 1_554 S
Co32 O49 2.020 1_554 S
Co32 O51 2.021 . S
Co32 O56 2.062 . S
C33 N35 1.324 . S
C33 N36 1.354 . S
C33 H38 0.917 1_554 S
C34 N35 1.375 . S
C34 C37 1.350 . S
C34 H39 0.930 . S
N35 Co30 2.057 . S
N35 C33 1.324 . S
N35 C34 1.375 . S
N36 C33 1.354 . S
N36 C37 1.373 . S
C37 C34 1.350 . S
C37 N36 1.373 . S
C37 H58 0.931 . S
H38 C33 0.917 1_556 S
H39 C34 0.930 . S
C40 O47 1.259 . S
C40 O48 1.258 . S
N41 Co32 2.057 1_556 S
N41 C42 1.316 1_556 S
N41 C43 1.375 . S
C42 N41 1.316 1_554 S
C42 N44 1.347 1_554 S
C42 H53 0.931 . S
C43 N41 1.375 . S
C43 C45 1.350 . S
C43 H52 0.930 . S
N44 C42 1.347 1_556 S
N44 C45 1.373 . S
C45 C43 1.350 . S
C45 N44 1.373 . S
C45 H59 0.931 . S
C46 O49 1.256 . S
C46 O50 1.255 . S
O47 Co30 2.021 1_556 S
O47 C40 1.259 . S
O48 Co32 2.117 1_556 S
O48 C40 1.258 . S
O49 Co32 2.020 1_556 S
O49 C46 1.256 . S
O50 Co30 2.062 1_556 S
O50 C46 1.255 . S
O51 C31 1.259 . S
O51 Co32 2.021 . S
H52 C43 0.930 . S
H53 C42 0.931 . S
O54 Co30 2.117 . S
O54 C31 1.258 . S
O55 Co30 2.020 . S
O55 C57 1.256 . S
O56 Co32 2.062 . S
O56 C57 1.255 . S
C57 O55 1.256 . S
C57 O56 1.255 . S
H58 C37 0.931 . S
H59 C45 0.931 . S
Co60 N65 2.057 . S
Co60 O77 2.021 1_554 S
Co60 O80 2.062 1_554 S
Co60 O84 2.117 . S
Co60 O85 2.020 . S
C61 O81 1.259 1_545 S
C61 O84 1.258 . S
Co62 N71 2.057 1_554 S
Co62 O78 2.117 1_564 S
Co62 O79 2.020 1_554 S
Co62 O81 2.021 . S
Co62 O86 2.062 1_565 S
C63 N65 1.324 . S
C63 N66 1.354 . S
C63 H68 0.917 1_554 S
C64 N65 1.375 . S
C64 C67 1.350 . S
C64 H69 0.930 . S
N65 Co60 2.057 . S
N65 C63 1.324 . S
N65 C64 1.375 . S
N66 C63 1.354 . S
N66 C67 1.373 . S
C67 C64 1.350 . S
C67 N66 1.373 . S
C67 H88 0.931 . S
H68 C63 0.917 1_556 S
H69 C64 0.930 . S
C70 O77 1.259 . S
C70 O78 1.258 . S
N71 Co62 2.057 1_556 S
N71 C72 1.316 1_556 S
N71 C73 1.375 . S
C72 N71 1.316 1_554 S
C72 N74 1.347 1_554 S
C72 H83 0.931 . S
C73 N71 1.375 . S
C73 C75 1.350 . S
C73 H82 0.930 . S
N74 C72 1.347 1_556 S
N74 C75 1.373 . S
C75 C73 1.350 . S
C75 N74 1.373 . S
C75 H89 0.931 . S
C76 O79 1.256 . S
C76 O80 1.255 1_565 S
O77 Co60 2.021 1_556 S
O77 C70 1.259 . S
O78 Co62 2.117 1_546 S
O78 C70 1.258 . S
O79 Co62 2.020 1_556 S
O79 C76 1.256 . S
O80 Co60 2.062 1_556 S
O80 C76 1.255 1_545 S
O81 C61 1.259 1_565 S
O81 Co62 2.021 . S
H82 C73 0.930 . S
H83 C72 0.931 . S
O84 Co60 2.117 . S
O84 C61 1.258 . S
O85 Co60 2.020 . S
O85 C87 1.256 . S
O86 Co62 2.062 1_545 S
O86 C87 1.255 . S
C87 O85 1.256 . S
C87 O86 1.255 . S
H88 C67 0.931 . S
H89 C75 0.931 . S
Co90 N95 2.057 . S
Co90 O107 2.021 . S
Co90 O110 2.062 . S
Co90 O114 2.117 . S
Co90 O115 2.020 . S
C91 O111 1.259 . S
C91 O114 1.258 . S
Co92 N101 2.057 . S
Co92 O108 2.117 . S
Co92 O109 2.020 . S
Co92 O111 2.021 . S
Co92 O116 2.062 . S
C93 N95 1.316 . S
C93 N96 1.347 . S
C93 H98 0.931 . S
C94 N95 1.375 . S
C94 C97 1.350 . S
C94 H99 0.930 . S
N95 Co90 2.057 . S
N95 C93 1.316 . S
N95 C94 1.375 . S
N96 C93 1.347 . S
N96 C97 1.373 . S
C97 C94 1.350 . S
C97 N96 1.373 . S
C97 H118 0.931 . S
H98 C93 0.931 . S
H99 C94 0.930 . S
C100 O107 1.259 . S
C100 O108 1.258 . S
N101 Co92 2.057 . S
N101 C102 1.316 . S
N101 C103 1.375 . S
C102 N101 1.316 . S
C102 N104 1.347 . S
C102 H113 0.931 . S
C103 N101 1.375 . S
C103 C105 1.350 . S
C103 H112 0.930 . S
N104 C102 1.347 . S
N104 C105 1.373 . S
C105 C103 1.350 . S
C105 N104 1.373 . S
C105 H119 0.931 . S
C106 O109 1.256 . S
C106 O110 1.255 . S
O107 Co90 2.021 . S
O107 C100 1.259 . S
O108 Co92 2.117 . S
O108 C100 1.258 . S
O109 Co92 2.020 . S
O109 C106 1.256 . S
O110 Co90 2.062 . S
O110 C106 1.255 . S
O111 C91 1.259 . S
O111 Co92 2.021 . S
H112 C103 0.930 . S
H113 C102 0.931 . S
O114 Co90 2.117 . S
O114 C91 1.258 . S
O115 Co90 2.020 . S
O115 C117 1.256 . S
O116 Co92 2.062 . S
O116 C117 1.255 . S
C117 O115 1.256 . S
C117 O116 1.255 . S
H118 C97 0.931 . S
H119 C105 0.931 . S
Co120 N125 2.057 . S
Co120 O137 2.021 . S
Co120 O140 2.062 . S
Co120 O144 2.117 . S
Co120 O145 2.020 . S
C121 O141 1.259 . S
C121 O144 1.258 . S
Co122 N131 2.057 . S
Co122 O138 2.117 . S
Co122 O139 2.020 . S
Co122 O141 2.021 . S
Co122 O146 2.062 . S
C123 N125 1.316 . S
C123 N126 1.347 . S
C123 H128 0.931 . S
C124 N125 1.375 . S
C124 C127 1.350 . S
C124 H129 0.930 . S
N125 Co120 2.057 . S
N125 C123 1.316 . S
N125 C124 1.375 . S
N126 C123 1.347 . S
N126 C127 1.373 . S
C127 C124 1.350 . S
C127 N126 1.373 . S
C127 H148 0.931 . S
H128 C123 0.931 . S
H129 C124 0.930 . S
C130 O137 1.259 . S
C130 O138 1.258 . S
N131 Co122 2.057 . S
N131 C132 1.316 . S
N131 C133 1.375 . S
C132 N131 1.316 . S
C132 N134 1.347 . S
C132 H143 0.931 . S
C133 N131 1.375 . S
C133 C135 1.350 . S
C133 H142 0.930 . S
N134 C132 1.347 . S
N134 C135 1.373 . S
C135 C133 1.350 . S
C135 N134 1.373 . S
C135 H149 0.931 . S
C136 O139 1.256 . S
C136 O140 1.255 . S
O137 Co120 2.021 . S
O137 C130 1.259 . S
O138 Co122 2.117 . S
O138 C130 1.258 . S
O139 Co122 2.020 . S
O139 C136 1.256 . S
O140 Co120 2.062 . S
O140 C136 1.255 . S
O141 C121 1.259 . S
O141 Co122 2.021 . S
H142 C133 0.930 . S
H143 C132 0.931 . S
O144 Co120 2.117 . S
O144 C121 1.258 . S
O145 Co120 2.020 . S
O145 C147 1.256 . S
O146 Co122 2.062 . S
O146 C147 1.255 . S
C147 O145 1.256 . S
C147 O146 1.255 . S
H148 C127 0.931 . S
H149 C135 0.931 . S
Co150 N155 2.057 . S
Co150 O167 2.021 . S
Co150 O170 2.062 . S
Co150 O174 2.117 . S
Co150 O175 2.020 . S
C151 O171 1.259 . S
C151 O174 1.258 . S
Co152 N161 2.057 . S
Co152 O168 2.117 . S
Co152 O169 2.020 . S
Co152 O171 2.021 . S
Co152 O176 2.062 . S
C153 N155 1.316 . S
C153 N156 1.347 . S
C153 H158 0.931 . S
C154 N155 1.375 . S
C154 C157 1.350 . S
C154 H159 0.930 . S
N155 Co150 2.057 . S
N155 C153 1.316 . S
N155 C154 1.375 . S
N156 C153 1.347 . S
N156 C157 1.373 . S
C157 C154 1.350 . S
C157 N156 1.373 . S
C157 H178 0.931 . S
H158 C153 0.931 . S
H159 C154 0.930 . S
C160 O167 1.259 . S
C160 O168 1.258 . S
N161 Co152 2.057 . S
N161 C162 1.316 . S
N161 C163 1.375 . S
C162 N161 1.316 . S
C162 N164 1.347 . S
C162 H173 0.931 . S
C163 N161 1.375 . S
C163 C165 1.350 . S
C163 H172 0.930 . S
N164 C162 1.347 . S
N164 C165 1.373 . S
C165 C163 1.350 . S
C165 N164 1.373 . S
C165 H179 0.931 . S
C166 O169 1.256 . S
C166 O170 1.255 . S
O167 Co150 2.021 . S
O167 C160 1.259 . S
O168 Co152 2.117 . S
O168 C160 1.258 . S
O169 Co152 2.020 . S
O169 C166 1.256 . S
O170 Co150 2.062 . S
O170 C166 1.255 . S
O171 C151 1.259 . S
O171 Co152 2.021 . S
H172 C163 0.930 . S
H173 C162 0.931 . S
O174 Co150 2.117 . S
O174 C151 1.258 . S
O175 Co150 2.020 . S
O175 C177 1.256 . S
O176 Co152 2.062 . S
O176 C177 1.255 . S
C177 O175 1.256 . S
C177 O176 1.255 . S
H178 C157 0.931 . S
H179 C165 0.931 . S
Co180 N185 2.057 . S
Co180 O197 2.021 . S
Co180 O200 2.062 . S
Co180 O204 2.117 . S
Co180 O205 2.020 . S
C181 O201 1.259 . S
C181 O204 1.258 . S
Co182 N191 2.057 . S
Co182 O198 2.117 . S
Co182 O199 2.020 . S
Co182 O201 2.021 . S
Co182 O206 2.062 . S
C183 N185 1.316 . S
C183 N186 1.347 . S
C183 H188 0.931 . S
C184 N185 1.375 . S
C184 C187 1.350 . S
C184 H189 0.930 . S
N185 Co180 2.057 . S
N185 C183 1.316 . S
N185 C184 1.375 . S
N186 C183 1.347 . S
N186 C187 1.373 . S
C187 C184 1.350 . S
C187 N186 1.373 . S
C187 H208 0.931 . S
H188 C183 0.931 . S
H189 C184 0.930 . S
C190 O197 1.259 . S
C190 O198 1.258 . S
N191 Co182 2.057 . S
N191 C192 1.316 . S
N191 C193 1.375 . S
C192 N191 1.316 . S
C192 N194 1.347 . S
C192 H203 0.931 . S
C193 N191 1.375 . S
C193 C195 1.350 . S
C193 H202 0.930 . S
N194 C192 1.347 . S
N194 C195 1.373 . S
C195 C193 1.350 . S
C195 N194 1.373 . S
C195 H209 0.931 . S
C196 O199 1.256 . S
C196 O200 1.255 . S
O197 Co180 2.021 . S
O197 C190 1.259 . S
O198 Co182 2.117 . S
O198 C190 1.258 . S
O199 Co182 2.020 . S
O199 C196 1.256 . S
O200 Co180 2.062 . S
O200 C196 1.255 . S
O201 C181 1.259 . S
O201 Co182 2.021 . S
H202 C193 0.930 . S
H203 C192 0.931 . S
O204 Co180 2.117 . S
O204 C181 1.258 . S
O205 Co180 2.020 . S
O205 C207 1.256 . S
O206 Co182 2.062 . S
O206 C207 1.255 . S
C207 O205 1.256 . S
C207 O206 1.255 . S
H208 C187 0.931 . S
H209 C195 0.931 . S
Co210 N215 2.057 . S
Co210 O227 2.021 . S
Co210 O230 2.062 . S
Co210 O234 2.117 . S
Co210 O235 2.020 . S
C211 O231 1.259 . S
C211 O234 1.258 . S
Co212 N221 2.057 . S
Co212 O228 2.117 . S
Co212 O229 2.020 . S
Co212 O231 2.021 . S
Co212 O236 2.062 . S
C213 N215 1.316 . S
C213 N216 1.347 . S
C213 H218 0.931 . S
C214 N215 1.375 . S
C214 C217 1.350 . S
C214 H219 0.930 . S
N215 Co210 2.057 . S
N215 C213 1.316 . S
N215 C214 1.375 . S
N216 C213 1.347 . S
N216 C217 1.373 . S
C217 C214 1.350 . S
C217 N216 1.373 . S
C217 H238 0.931 . S
H218 C213 0.931 . S
H219 C214 0.930 . S
C220 O227 1.259 . S
C220 O228 1.258 . S
N221 Co212 2.057 . S
N221 C222 1.316 . S
N221 C223 1.375 . S
C222 N221 1.316 . S
C222 N224 1.347 . S
C222 H233 0.931 . S
C223 N221 1.375 . S
C223 C225 1.350 . S
C223 H232 0.930 . S
N224 C222 1.347 . S
N224 C225 1.373 . S
C225 C223 1.350 . S
C225 N224 1.373 . S
C225 H239 0.931 . S
C226 O229 1.256 . S
C226 O230 1.255 . S
O227 Co210 2.021 . S
O227 C220 1.259 . S
O228 Co212 2.117 . S
O228 C220 1.258 . S
O229 Co212 2.020 . S
O229 C226 1.256 . S
O230 Co210 2.062 . S
O230 C226 1.255 . S
O231 C211 1.259 . S
O231 Co212 2.021 . S
H232 C223 0.930 . S
H233 C222 0.931 . S
O234 Co210 2.117 . S
O234 C211 1.258 . S
O235 Co210 2.020 . S
O235 C237 1.256 . S
O236 Co212 2.062 . S
O236 C237 1.255 . S
C237 O235 1.256 . S
C237 O236 1.255 . S
H238 C217 0.931 . S
H239 C225 0.931 . S
Co240 N245 2.057 . S
Co240 O257 2.021 . S
Co240 O260 2.062 . S
Co240 O264 2.117 . S
Co240 O265 2.020 . S
C241 O261 1.259 . S
C241 O264 1.258 . S
Co242 N251 2.057 . S
Co242 O258 2.117 . S
Co242 O259 2.020 . S
Co242 O261 2.021 . S
Co242 O266 2.062 . S
C243 N245 1.316 . S
C243 N246 1.347 . S
C243 H248 0.931 . S
C244 N245 1.375 . S
C244 C247 1.350 . S
C244 H249 0.930 . S
N245 Co240 2.057 . S
N245 C243 1.316 . S
N245 C244 1.375 . S
N246 C243 1.347 . S
N246 C247 1.373 . S
C247 C244 1.350 . S
C247 N246 1.373 . S
C247 H268 0.931 . S
H248 C243 0.931 . S
H249 C244 0.930 . S
C250 O257 1.259 . S
C250 O258 1.258 . S
N251 Co242 2.057 . S
N251 C252 1.316 . S
N251 C253 1.375 . S
C252 N251 1.316 . S
C252 N254 1.347 . S
C252 H263 0.931 . S
C253 N251 1.375 . S
C253 C255 1.350 . S
C253 H262 0.930 . S
N254 C252 1.347 . S
N254 C255 1.373 . S
C255 C253 1.350 . S
C255 N254 1.373 . S
C255 H269 0.931 . S
C256 O259 1.256 . S
C256 O260 1.255 . S
O257 Co240 2.021 . S
O257 C250 1.259 . S
O258 Co242 2.117 . S
O258 C250 1.258 . S
O259 Co242 2.020 . S
O259 C256 1.256 . S
O260 Co240 2.062 . S
O260 C256 1.255 . S
O261 C241 1.259 . S
O261 Co242 2.021 . S
H262 C253 0.930 . S
H263 C252 0.931 . S
O264 Co240 2.117 . S
O264 C241 1.258 . S
O265 Co240 2.020 . S
O265 C267 1.256 . S
O266 Co242 2.062 . S
O266 C267 1.255 . S
C267 O265 1.256 . S
C267 O266 1.255 . S
H268 C247 0.931 . S
H269 C255 0.931 . S
H270 C278 0.929 . S
H271 C280 0.930 1_554 S
H272 C282 0.930 . S
H273 C285 0.929 . S
H274 C288 0.930 . S
H275 C290 0.960 . S
H276 C290 0.960 . S
H277 C290 0.960 . S
C278 H270 0.929 . S
C278 C279 1.377 1_554 S
C278 C280 1.384 1_554 S
C279 C278 1.377 1_556 S
C279 C285 1.390 . S
C280 H271 0.930 1_556 S
C280 C278 1.384 1_556 S
C280 C281 1.372 . S
C281 C280 1.372 . S
C281 C282 1.400 . S
C281 C286 1.490 . S
C282 H272 0.930 . S
C282 C281 1.400 . S
C282 C285 1.386 . S
H283 C299 0.930 . S
H284 C300 0.931 . S
C285 H273 0.929 . S
C285 C279 1.390 . S
C285 C282 1.386 . S
C286 C281 1.490 . S
C286 C288 1.395 . S
C286 C289 1.403 . S
H287 C293 0.930 . S
C288 H274 0.930 . S
C288 C286 1.395 . S
C288 C291 1.403 . S
C289 C286 1.403 . S
C289 C290 1.524 . S
C289 C293 1.400 . S
C290 H275 0.960 . S
C290 H276 0.960 . S
C290 H277 0.960 . S
C290 C289 1.524 . S
C291 C288 1.403 . S
C291 C292 1.392 . S
C291 C295 1.495 . S
C292 C291 1.392 . S
C292 C293 1.385 . S
C292 C294 1.478 . S
C293 H287 0.930 . S
C293 C289 1.400 . S
C293 C292 1.385 . S
C294 C292 1.478 . S
C294 C296 1.381 . S
C294 C300 1.383 . S
C295 C291 1.495 . S
C295 H301 0.959 . S
C295 H302 0.961 . S
C295 H303 0.960 . S
C296 C294 1.381 . S
C296 C297 1.394 . S
C296 H304 0.930 . S
C297 C296 1.394 . S
C297 C298 1.383 . S
C297 H305 0.929 . S
C298 C297 1.383 . S
C298 C299 1.377 . S
C299 H283 0.930 . S
C299 C298 1.377 . S
C299 C300 1.379 . S
C300 H284 0.931 . S
C300 C294 1.383 . S
C300 C299 1.379 . S
H301 C295 0.959 . S
H302 C295 0.961 . S
H303 C295 0.960 . S
H304 C296 0.930 . S
H305 C297 0.929 . S
H306 C314 0.929 . S
H307 C316 0.930 . S
H308 C318 0.930 . S
H309 C321 0.929 . S
H310 C324 0.930 . S
H311 C326 0.960 . S
H312 C326 0.960 . S
H313 C326 0.960 . S
C314 H306 0.929 . S
C314 C315 1.377 . S
C314 C316 1.384 . S
C315 C314 1.377 . S
C315 C321 1.390 . S
C316 H307 0.930 . S
C316 C314 1.384 . S
C316 C317 1.372 . S
C317 C316 1.372 . S
C317 C318 1.400 . S
C317 C322 1.490 . S
C318 H308 0.930 . S
C318 C317 1.400 . S
C318 C321 1.386 . S
H319 C335 0.930 . S
H320 C336 0.931 . S
C321 H309 0.929 . S
C321 C315 1.390 . S
C321 C318 1.386 . S
C322 C317 1.490 . S
C322 C324 1.395 . S
C322 C325 1.403 . S
H323 C329 0.930 . S
C324 H310 0.930 . S
C324 C322 1.395 . S
C324 C327 1.403 . S
C325 C322 1.403 . S
C325 C326 1.524 . S
C325 C329 1.400 . S
C326 H311 0.960 . S
C326 H312 0.960 . S
C326 H313 0.960 . S
C326 C325 1.524 . S
C327 C324 1.403 . S
C327 C328 1.392 . S
C327 C331 1.495 . S
C328 C327 1.392 . S
C328 C329 1.385 . S
C328 C330 1.478 . S
C329 H323 0.930 . S
C329 C325 1.400 . S
C329 C328 1.385 . S
C330 C328 1.478 . S
C330 C332 1.381 . S
C330 C336 1.383 . S
C331 C327 1.495 . S
C331 H337 0.959 . S
C331 H338 0.961 . S
C331 H339 0.960 . S
C332 C330 1.381 . S
C332 C333 1.394 . S
C332 H340 0.930 . S
C333 C332 1.394 . S
C333 C334 1.383 . S
C333 H341 0.929 . S
C334 C333 1.383 . S
C334 C335 1.377 . S
C335 H319 0.930 . S
C335 C334 1.377 . S
C335 C336 1.379 . S
C336 H320 0.931 . S
C336 C330 1.383 . S
C336 C335 1.379 . S
H337 C331 0.959 . S
H338 C331 0.961 . S
H339 C331 0.960 . S
H340 C332 0.930 . S
H341 C333 0.929 . S
H342 C350 0.929 . S
H343 C352 0.930 1_554 S
H344 C354 0.930 . S
H345 C357 0.929 . S
H346 C360 0.930 . S
H347 C362 0.960 . S
H348 C362 0.960 . S
H349 C362 0.960 . S
C350 H342 0.929 . S
C350 C351 1.377 1_554 S
C350 C352 1.384 1_554 S
C351 C350 1.377 1_556 S
C351 C357 1.390 . S
C352 H343 0.930 1_556 S
C352 C350 1.384 1_556 S
C352 C353 1.372 . S
C353 C352 1.372 . S
C353 C354 1.400 . S
C353 C358 1.490 . S
C354 H344 0.930 . S
C354 C353 1.400 . S
C354 C357 1.386 . S
H355 C371 0.930 . S
H356 C372 0.931 . S
C357 H345 0.929 . S
C357 C351 1.390 . S
C357 C354 1.386 . S
C358 C353 1.490 . S
C358 C360 1.395 . S
C358 C361 1.403 . S
H359 C365 0.930 . S
C360 H346 0.930 . S
C360 C358 1.395 . S
C360 C363 1.403 . S
C361 C358 1.403 . S
C361 C362 1.524 . S
C361 C365 1.400 . S
C362 H347 0.960 . S
C362 H348 0.960 . S
C362 H349 0.960 . S
C362 C361 1.524 . S
C363 C360 1.403 . S
C363 C364 1.392 . S
C363 C367 1.495 . S
C364 C363 1.392 . S
C364 C365 1.385 . S
C364 C366 1.478 . S
C365 H359 0.930 . S
C365 C361 1.400 . S
C365 C364 1.385 . S
C366 C364 1.478 . S
C366 C368 1.381 . S
C366 C372 1.383 . S
C367 C363 1.495 . S
C367 H373 0.959 . S
C367 H374 0.961 . S
C367 H375 0.960 . S
C368 C366 1.381 . S
C368 C369 1.394 . S
C368 H376 0.930 . S
C369 C368 1.394 . S
C369 C370 1.383 . S
C369 H377 0.929 . S
C370 C369 1.383 . S
C370 C371 1.377 . S
C371 H355 0.930 . S
C371 C370 1.377 . S
C371 C372 1.379 . S
C372 H356 0.931 . S
C372 C366 1.383 . S
C372 C371 1.379 . S
H373 C367 0.959 . S
H374 C367 0.961 . S
H375 C367 0.960 . S
H376 C368 0.930 . S
H377 C369 0.929 . S
H378 C386 0.929 . S
H379 C388 0.930 . S
H380 C390 0.930 . S
H381 C393 0.929 . S
H382 C396 0.930 . S
H383 C398 0.960 . S
H384 C398 0.960 . S
H385 C398 0.960 . S
C386 H378 0.929 . S
C386 C387 1.377 . S
C386 C388 1.384 . S
C387 C386 1.377 . S
C387 C393 1.390 . S
C388 H379 0.930 . S
C388 C386 1.384 . S
C388 C389 1.372 . S
C389 C388 1.372 . S
C389 C390 1.400 . S
C389 C394 1.490 . S
C390 H380 0.930 . S
C390 C389 1.400 . S
C390 C393 1.386 . S
H391 C407 0.930 1_556 S
H392 C408 0.931 . S
C393 H381 0.929 . S
C393 C387 1.390 . S
C393 C390 1.386 . S
C394 C389 1.490 . S
C394 C396 1.395 . S
C394 C397 1.403 . S
H395 C401 0.930 . S
C396 H382 0.930 . S
C396 C394 1.395 . S
C396 C399 1.403 . S
C397 C394 1.403 . S
C397 C398 1.524 . S
C397 C401 1.400 . S
C398 H383 0.960 . S
C398 H384 0.960 . S
C398 H385 0.960 . S
C398 C397 1.524 . S
C399 C396 1.403 . S
C399 C400 1.392 . S
C399 C403 1.495 . S
C400 C399 1.392 . S
C400 C401 1.385 . S
C400 C402 1.478 . S
C401 H395 0.930 . S
C401 C397 1.400 . S
C401 C400 1.385 . S
C402 C400 1.478 . S
C402 C404 1.381 . S
C402 C408 1.383 . S
C403 C399 1.495 . S
C403 H409 0.959 . S
C403 H410 0.961 . S
C403 H411 0.960 . S
C404 C402 1.381 . S
C404 C405 1.394 . S
C404 H412 0.930 . S
C405 C404 1.394 . S
C405 C406 1.383 . S
C405 H413 0.929 . S
C406 C405 1.383 . S
C406 C407 1.377 . S
C407 H391 0.930 1_554 S
C407 C406 1.377 . S
C407 C408 1.379 . S
C408 H392 0.931 . S
C408 C402 1.383 . S
C408 C407 1.379 . S
H409 C403 0.959 . S
H410 C403 0.961 . S
H411 C403 0.960 . S
H412 C404 0.930 . S
H413 C405 0.929 . S
H414 C422 0.929 . S
H415 C424 0.930 . S
H416 C426 0.930 . S
H417 C429 0.929 . S
H418 C432 0.930 . S
H419 C434 0.960 . S
H420 C434 0.960 . S
H421 C434 0.960 . S
C422 H414 0.929 . S
C422 C423 1.377 . S
C422 C424 1.384 . S
C423 C422 1.377 . S
C423 C429 1.390 . S
C424 H415 0.930 . S
C424 C422 1.384 . S
C424 C425 1.372 . S
C425 C424 1.372 . S
C425 C426 1.400 . S
C425 C430 1.490 . S
C426 H416 0.930 . S
C426 C425 1.400 . S
C426 C429 1.386 . S
H427 C443 0.922 1_556 S
H428 C444 0.931 . S
C429 H417 0.929 . S
C429 C423 1.390 . S
C429 C426 1.386 . S
C430 C425 1.490 . S
C430 C432 1.395 . S
C430 C433 1.403 . S
H431 C437 0.930 . S
C432 H418 0.930 . S
C432 C430 1.395 . S
C432 C435 1.403 . S
C433 C430 1.403 . S
C433 C434 1.524 . S
C433 C437 1.400 . S
C434 H419 0.960 . S
C434 H420 0.960 . S
C434 H421 0.960 . S
C434 C433 1.524 . S
C435 C432 1.403 . S
C435 C436 1.392 . S
C435 C439 1.495 . S
C436 C435 1.392 . S
C436 C437 1.385 . S
C436 C438 1.478 . S
C437 H431 0.930 . S
C437 C433 1.400 . S
C437 C436 1.385 . S
C438 C436 1.478 . S
C438 C440 1.381 . S
C438 C444 1.383 . S
C439 C435 1.495 . S
C439 H445 0.959 . S
C439 H446 0.961 . S
C439 H447 0.960 . S
C440 C438 1.381 . S
C440 C441 1.394 . S
C440 H448 0.930 . S
C441 C440 1.394 . S
C441 C442 1.383 . S
C441 H449 0.929 . S
C442 C441 1.383 . S
C442 C443 1.377 . S
C443 H427 0.922 1_554 S
C443 C442 1.377 . S
C443 C444 1.379 . S
C444 H428 0.931 . S
C444 C438 1.383 . S
C444 C443 1.379 . S
H445 C439 0.959 . S
H446 C439 0.961 . S
H447 C439 0.960 . S
H448 C440 0.930 . S
H449 C441 0.929 . S
H450 C458 0.929 . S
H451 C460 0.930 . S
H452 C462 0.930 . S
H453 C465 0.929 . S
H454 C468 0.930 . S
H455 C470 0.960 . S
H456 C470 0.960 . S
H457 C470 0.960 . S
C458 H450 0.929 . S
C458 C459 1.377 . S
C458 C460 1.384 . S
C459 C458 1.377 . S
C459 C465 1.390 . S
C460 H451 0.930 . S
C460 C458 1.384 . S
C460 C461 1.372 . S
C461 C460 1.372 . S
C461 C462 1.400 . S
C461 C466 1.490 . S
C462 H452 0.930 . S
C462 C461 1.400 . S
C462 C465 1.386 . S
H463 C479 0.930 . S
H464 C480 0.931 . S
C465 H453 0.929 . S
C465 C459 1.390 . S
C465 C462 1.386 . S
C466 C461 1.490 . S
C466 C468 1.395 . S
C466 C469 1.403 . S
H467 C473 0.930 . S
C468 H454 0.930 . S
C468 C466 1.395 . S
C468 C471 1.403 . S
C469 C466 1.403 . S
C469 C470 1.524 . S
C469 C473 1.400 . S
C470 H455 0.960 . S
C470 H456 0.960 . S
C470 H457 0.960 . S
C470 C469 1.524 . S
C471 C468 1.403 . S
C471 C472 1.392 . S
C471 C475 1.495 . S
C472 C471 1.392 . S
C472 C473 1.385 . S
C472 C474 1.478 . S
C473 H467 0.930 . S
C473 C469 1.400 . S
C473 C472 1.385 . S
C474 C472 1.478 . S
C474 C476 1.381 . S
C474 C480 1.383 . S
C475 C471 1.495 . S
C475 H481 0.959 . S
C475 H482 0.961 . S
C475 H483 0.960 . S
C476 C474 1.381 . S
C476 C477 1.394 . S
C476 H484 0.930 . S
C477 C476 1.394 . S
C477 C478 1.383 . S
C477 H485 0.929 . S
C478 C477 1.383 . S
C478 C479 1.377 . S
C479 H463 0.930 . S
C479 C478 1.377 . S
C479 C480 1.379 . S
C480 H464 0.931 . S
C480 C474 1.383 . S
C480 C479 1.379 . S
H481 C475 0.959 . S
H482 C475 0.961 . S
H483 C475 0.960 . S
H484 C476 0.930 . S
H485 C477 0.929 . S
H486 C494 0.929 . S
H487 C496 0.930 . S
H488 C498 0.930 . S
H489 C501 0.929 . S
H490 C504 0.930 1_455 S
H491 C506 0.960 1_655 S
H492 C506 0.960 . S
H493 C506 0.960 . S
C494 H486 0.929 . S
C494 C495 1.377 . S
C494 C496 1.384 . S
C495 C494 1.377 . S
C495 C501 1.390 . S
C496 H487 0.930 . S
C496 C494 1.384 . S
C496 C497 1.372 . S
C497 C496 1.372 . S
C497 C498 1.400 . S
C497 C502 1.490 . S
C498 H488 0.930 . S
C498 C497 1.400 . S
C498 C501 1.386 . S
H499 C515 0.930 . S
H500 C516 0.931 . S
C501 H489 0.929 . S
C501 C495 1.390 . S
C501 C498 1.386 . S
C502 C497 1.490 . S
C502 C504 1.395 1_455 S
C502 C505 1.403 1_455 S
H503 C509 0.930 . S
C504 H490 0.930 1_655 S
C504 C502 1.395 1_655 S
C504 C507 1.403 . S
C505 C502 1.403 1_655 S
C505 C506 1.524 1_655 S
C505 C509 1.400 . S
C506 H491 0.960 1_455 S
C506 H492 0.960 . S
C506 H493 0.960 . S
C506 C505 1.524 1_455 S
C507 C504 1.403 . S
C507 C508 1.392 . S
C507 C511 1.495 . S
C508 C507 1.392 . S
C508 C509 1.385 . S
C508 C510 1.478 . S
C509 H503 0.930 . S
C509 C505 1.400 . S
C509 C508 1.385 . S
C510 C508 1.478 . S
C510 C512 1.381 . S
C510 C516 1.383 . S
C511 C507 1.495 . S
C511 H517 0.959 . S
C511 H518 0.961 . S
C511 H519 0.960 . S
C512 C510 1.381 . S
C512 C513 1.394 . S
C512 H520 0.930 . S
C513 C512 1.394 . S
C513 C514 1.383 . S
C513 H521 0.929 . S
C514 C513 1.383 . S
C514 C515 1.377 . S
C515 H499 0.930 . S
C515 C514 1.377 . S
C515 C516 1.379 . S
C516 H500 0.931 . S
C516 C510 1.383 . S
C516 C515 1.379 . S
H517 C511 0.959 . S
H518 C511 0.961 . S
H519 C511 0.960 . S
H520 C512 0.930 . S
H521 C513 0.929 . S
H522 C530 0.929 . S
H523 C532 0.930 . S
H524 C534 0.930 . S
H525 C537 0.929 . S
H526 C540 0.930 . S
H527 C542 0.960 . S
H528 C542 0.960 . S
H529 C542 0.960 . S
C530 H522 0.929 . S
C530 C531 1.377 . S
C530 C532 1.384 . S
C531 C530 1.377 . S
C531 C537 1.390 . S
C532 H523 0.930 . S
C532 C530 1.384 . S
C532 C533 1.372 . S
C533 C532 1.372 . S
C533 C534 1.400 . S
C533 C538 1.490 . S
C534 H524 0.930 . S
C534 C533 1.400 . S
C534 C537 1.386 . S
H535 C551 0.930 . S
H536 C552 0.931 . S
C537 H525 0.929 . S
C537 C531 1.390 . S
C537 C534 1.386 . S
C538 C533 1.490 . S
C538 C540 1.395 . S
C538 C541 1.403 . S
H539 C545 0.930 . S
C540 H526 0.930 . S
C540 C538 1.395 . S
C540 C543 1.403 . S
C541 C538 1.403 . S
C541 C542 1.524 . S
C541 C545 1.400 . S
C542 H527 0.960 . S
C542 H528 0.960 . S
C542 H529 0.960 . S
C542 C541 1.524 . S
C543 C540 1.403 . S
C543 C544 1.392 . S
C543 C547 1.495 . S
C544 C543 1.392 . S
C544 C545 1.385 . S
C544 C546 1.478 . S
C545 H539 0.930 . S
C545 C541 1.400 . S
C545 C544 1.385 . S
C546 C544 1.478 . S
C546 C548 1.381 . S
C546 C552 1.383 . S
C547 C543 1.495 . S
C547 H553 0.959 . S
C547 H554 0.961 . S
C547 H555 0.960 . S
C548 C546 1.381 . S
C548 C549 1.394 . S
C548 H556 0.930 . S
C549 C548 1.394 . S
C549 C550 1.383 . S
C549 H557 0.929 . S
C550 C549 1.383 . S
C550 C551 1.377 . S
C551 H535 0.930 . S
C551 C550 1.377 . S
C551 C552 1.379 . S
C552 H536 0.931 . S
C552 C546 1.383 . S
C552 C551 1.379 . S
H553 C547 0.959 . S
H554 C547 0.961 . S
H555 C547 0.960 . S
H556 C548 0.930 . S
H557 C549 0.929 . S
H558 C566 0.929 . S
H559 C568 0.930 . S
H560 C570 0.930 . S
H561 C573 0.929 . S
H562 C576 0.930 . S
H563 C578 0.960 . S
H564 C578 0.960 . S
H565 C578 0.960 . S
C566 H558 0.929 . S
C566 C567 1.377 . S
C566 C568 1.384 . S
C567 C566 1.377 . S
C567 C573 1.390 . S
C568 H559 0.930 . S
C568 C566 1.384 . S
C568 C569 1.372 . S
C569 C568 1.372 . S
C569 C570 1.400 . S
C569 C574 1.490 . S
C570 H560 0.930 . S
C570 C569 1.400 . S
C570 C573 1.386 . S
H571 C587 0.930 . S
H572 C588 0.931 . S
C573 H561 0.929 . S
C573 C567 1.390 . S
C573 C570 1.386 . S
C574 C569 1.490 . S
C574 C576 1.395 . S
C574 C577 1.403 . S
H575 C581 0.930 . S
C576 H562 0.930 . S
C576 C574 1.395 . S
C576 C579 1.403 . S
C577 C574 1.403 . S
C577 C578 1.524 . S
C577 C581 1.400 . S
C578 H563 0.960 . S
C578 H564 0.960 . S
C578 H565 0.960 . S
C578 C577 1.524 . S
C579 C576 1.403 . S
C579 C580 1.392 . S
C579 C583 1.495 . S
C580 C579 1.392 . S
C580 C581 1.385 . S
C580 C582 1.478 1_545 S
C581 H575 0.930 . S
C581 C577 1.400 . S
C581 C580 1.385 . S
C582 C580 1.478 1_565 S
C582 C584 1.381 . S
C582 C588 1.383 . S
C583 C579 1.495 . S
C583 H589 0.959 . S
C583 H590 0.961 . S
C583 H591 0.960 . S
C584 C582 1.381 . S
C584 C585 1.394 . S
C584 H592 0.930 . S
C585 C584 1.394 . S
C585 C586 1.383 . S
C585 H593 0.929 . S
C586 C585 1.383 . S
C586 C587 1.377 . S
C587 H571 0.930 . S
C587 C586 1.377 . S
C587 C588 1.379 . S
C588 H572 0.931 . S
C588 C582 1.383 . S
C588 C587 1.379 . S
H589 C583 0.959 . S
H590 C583 0.961 . S
H591 C583 0.960 . S
H592 C584 0.930 . S
H593 C585 0.929 . S
H594 C602 0.929 . S
H595 C604 0.930 . S
H596 C606 0.930 . S
H597 C609 0.929 . S
H598 C612 0.930 . S
H599 C614 0.960 . S
H600 C614 0.960 . S
H601 C614 0.960 1_554 S
C602 H594 0.929 . S
C602 C603 1.377 1_556 S
C602 C604 1.384 . S
C603 C602 1.377 1_554 S
C603 C609 1.390 . S
C604 H595 0.930 . S
C604 C602 1.384 . S
C604 C605 1.372 1_556 S
C605 C604 1.372 1_554 S
C605 C606 1.400 . S
C605 C610 1.490 . S
C606 H596 0.930 . S
C606 C605 1.400 . S
C606 C609 1.386 . S
H607 C623 0.930 . S
H608 C624 0.931 . S
C609 H597 0.929 . S
C609 C603 1.390 . S
C609 C606 1.386 . S
C610 C605 1.490 . S
C610 C612 1.395 . S
C610 C613 1.403 1_554 S
H611 C617 0.930 . S
C612 H598 0.930 . S
C612 C610 1.395 . S
C612 C615 1.403 . S
C613 C610 1.403 1_556 S
C613 C614 1.524 . S
C613 C617 1.400 . S
C614 H599 0.960 . S
C614 H600 0.960 . S
C614 H601 0.960 1_556 S
C614 C613 1.524 . S
C615 C612 1.403 . S
C615 C616 1.392 . S
C615 C619 1.495 . S
C616 C615 1.392 . S
C616 C617 1.385 1_554 S
C616 C618 1.478 . S
C617 H611 0.930 . S
C617 C613 1.400 . S
C617 C616 1.385 1_556 S
C618 C616 1.478 . S
C618 C620 1.381 1_554 S
C618 C624 1.383 . S
C619 C615 1.495 . S
C619 H625 0.959 . S
C619 H626 0.961 . S
C619 H627 0.960 1_554 S
C620 C618 1.381 1_556 S
C620 C621 1.394 . S
C620 H628 0.930 . S
C621 C620 1.394 . S
C621 C622 1.383 . S
C621 H629 0.929 . S
C622 C621 1.383 . S
C622 C623 1.377 1_556 S
C623 H607 0.930 . S
C623 C622 1.377 1_554 S
C623 C624 1.379 . S
C624 H608 0.931 . S
C624 C618 1.383 . S
C624 C623 1.379 . S
H625 C619 0.959 . S
H626 C619 0.961 . S
H627 C619 0.960 1_556 S
H628 C620 0.930 . S
H629 C621 0.929 . S
H630 C638 0.929 . S
H631 C640 0.930 . S
H632 C642 0.930 . S
H633 C645 0.929 . S
H634 C648 0.930 . S
H635 C650 0.960 . S
H636 C650 0.960 . S
H637 C650 0.960 . S
C638 H630 0.929 . S
C638 C639 1.377 . S
C638 C640 1.384 . S
C639 C638 1.377 . S
C639 C645 1.390 1_556 S
C640 H631 0.930 . S
C640 C638 1.384 . S
C640 C641 1.372 . S
C641 C640 1.372 . S
C641 C642 1.400 1_556 S
C641 C646 1.490 1_556 S
C642 H632 0.930 . S
C642 C641 1.400 1_554 S
C642 C645 1.386 . S
H643 C659 0.930 . S
H644 C660 0.931 . S
C645 H633 0.929 . S
C645 C639 1.390 1_554 S
C645 C642 1.386 . S
C646 C641 1.490 1_554 S
C646 C648 1.394 1_554 S
C646 C649 1.403 . S
H647 C653 0.930 . S
C648 H634 0.930 . S
C648 C646 1.394 1_556 S
C648 C651 1.400 1_565 S
C649 C646 1.403 . S
C649 C650 1.524 . S
C649 C653 1.400 1_565 S
C650 H635 0.960 . S
C650 H636 0.960 . S
C650 H637 0.960 . S
C650 C649 1.524 . S
C651 C648 1.400 1_545 S
C651 C652 1.389 1_556 S
C651 C655 1.498 . S
C652 C651 1.389 1_554 S
C652 C653 1.389 . S
C652 C654 1.478 . S
C653 H647 0.930 . S
C653 C649 1.400 1_545 S
C653 C652 1.389 . S
C654 C652 1.478 . S
C654 C656 1.381 1_554 S
C654 C660 1.383 . S
C655 C651 1.498 . S
C655 H661 0.952 1_545 S
C655 H662 0.961 . S
C655 H663 0.960 . S
C656 C654 1.381 1_556 S
C656 C657 1.394 . S
C656 H664 0.930 . S
C657 C656 1.394 . S
C657 C658 1.383 1_556 S
C657 H665 0.929 . S
C658 C657 1.383 1_554 S
C658 C659 1.377 . S
C659 H643 0.930 . S
C659 C658 1.377 . S
C659 C660 1.379 . S
C660 H644 0.931 . S
C660 C654 1.383 . S
C660 C659 1.379 . S
H661 C655 0.952 1_565 S
H662 C655 0.961 . S
H663 C655 0.960 . S
H664 C656 0.930 . S
H665 C657 0.929 . S
H666 C674 0.929 . S
H667 C676 0.930 . S
H668 C678 0.930 . S
H669 C681 0.926 1_556 S
H670 C684 0.930 . S
H671 C686 0.960 . S
H672 C686 0.960 . S
H673 C686 0.960 . S
C674 H666 0.929 . S
C674 C675 1.377 . S
C674 C676 1.384 . S
C675 C674 1.377 . S
C675 C681 1.394 . S
C676 H667 0.930 . S
C676 C674 1.384 . S
C676 C677 1.372 . S
C677 C676 1.372 . S
C677 C678 1.400 1_554 S
C677 C682 1.490 1_655 S
C678 H668 0.930 . S
C678 C677 1.400 1_556 S
C678 C681 1.385 1_556 S
H679 C695 0.930 . S
H680 C696 0.931 . S
C681 H669 0.926 1_554 S
C681 C675 1.394 . S
C681 C678 1.385 1_554 S
C682 C677 1.490 1_455 S
C682 C684 1.395 . S
C682 C685 1.403 1_554 S
H683 C689 0.930 . S
C684 H670 0.930 . S
C684 C682 1.395 . S
C684 C687 1.403 . S
C685 C682 1.403 1_556 S
C685 C686 1.524 . S
C685 C689 1.400 . S
C686 H671 0.960 . S
C686 H672 0.960 . S
C686 H673 0.960 . S
C686 C685 1.524 . S
C687 C684 1.403 . S
C687 C688 1.392 . S
C687 C691 1.495 . S
C688 C687 1.392 . S
C688 C689 1.385 1_554 S
C688 C690 1.478 . S
C689 H683 0.930 . S
C689 C685 1.400 . S
C689 C688 1.385 1_556 S
C690 C688 1.478 . S
C690 C692 1.381 . S
C690 C696 1.383 1_554 S
C691 C687 1.495 . S
C691 H697 0.959 . S
C691 H698 0.961 . S
C691 H699 0.960 . S
C692 C690 1.381 . S
C692 C693 1.394 . S
C692 H700 0.930 . S
C693 C692 1.394 . S
C693 C694 1.383 1_554 S
C693 H701 0.915 1_565 S
C694 C693 1.383 1_556 S
C694 C695 1.377 . S
C695 H679 0.930 . S
C695 C694 1.377 . S
C695 C696 1.379 . S
C696 H680 0.931 . S
C696 C690 1.383 1_556 S
C696 C695 1.379 . S
H697 C691 0.959 . S
H698 C691 0.961 . S
H699 C691 0.960 . S
H700 C692 0.930 . S
H701 C693 0.915 1_545 S
H702 C710 0.929 . S
H703 C712 0.930 . S
H704 C714 0.930 . S
H705 C717 0.929 . S
H706 C720 0.930 . S
H707 C722 0.960 . S
H708 C722 0.960 . S
H709 C722 0.960 . S
C710 H702 0.929 . S
C710 C711 1.377 . S
C710 C712 1.384 . S
C711 C710 1.377 . S
C711 C717 1.390 . S
C712 H703 0.930 . S
C712 C710 1.384 . S
C712 C713 1.372 . S
C713 C712 1.372 . S
C713 C714 1.400 . S
C713 C718 1.490 . S
C714 H704 0.930 . S
C714 C713 1.400 . S
C714 C717 1.386 . S
H715 C731 0.930 . S
H716 C732 0.931 . S
C717 H705 0.929 . S
C717 C711 1.390 . S
C717 C714 1.386 . S
C718 C713 1.490 . S
C718 C720 1.395 . S
C718 C721 1.403 . S
H719 C725 0.930 . S
C720 H706 0.930 . S
C720 C718 1.395 . S
C720 C723 1.403 . S
C721 C718 1.403 . S
C721 C722 1.524 . S
C721 C725 1.400 . S
C722 H707 0.960 . S
C722 H708 0.960 . S
C722 H709 0.960 . S
C722 C721 1.524 . S
C723 C720 1.403 . S
C723 C724 1.392 . S
C723 C727 1.495 . S
C724 C723 1.392 . S
C724 C725 1.385 . S
C724 C726 1.478 . S
C725 H719 0.930 . S
C725 C721 1.400 . S
C725 C724 1.385 . S
C726 C724 1.478 . S
C726 C728 1.381 . S
C726 C732 1.383 . S
C727 C723 1.495 . S
C727 H733 0.959 . S
C727 H734 0.961 . S
C727 H735 0.960 . S
C728 C726 1.381 . S
C728 C729 1.394 . S
C728 H736 0.930 . S
C729 C728 1.394 . S
C729 C730 1.383 . S
C729 H737 0.929 . S
C730 C729 1.383 . S
C730 C731 1.377 . S
C731 H715 0.930 . S
C731 C730 1.377 . S
C731 C732 1.379 . S
C732 H716 0.931 . S
C732 C726 1.383 . S
C732 C731 1.379 . S
H733 C727 0.959 . S
H734 C727 0.961 . S
H735 C727 0.960 . S
H736 C728 0.930 . S
H737 C729 0.929 . S
H738 C746 0.929 . S
H739 C748 0.930 . S
H740 C750 0.930 . S
H741 C753 0.929 . S
H742 C756 0.930 . S
H743 C758 0.960 . S
H744 C758 0.960 . S
H745 C758 0.960 . S
C746 H738 0.929 . S
C746 C747 1.377 . S
C746 C748 1.384 . S
C747 C746 1.377 . S
C747 C753 1.390 . S
C748 H739 0.930 . S
C748 C746 1.384 . S
C748 C749 1.372 . S
C749 C748 1.372 . S
C749 C750 1.400 . S
C749 C754 1.490 . S
C750 H740 0.930 . S
C750 C749 1.400 . S
C750 C753 1.386 . S
H751 C767 0.930 . S
H752 C768 0.931 . S
C753 H741 0.929 . S
C753 C747 1.390 . S
C753 C750 1.386 . S
C754 C749 1.490 . S
C754 C756 1.395 . S
C754 C757 1.403 . S
H755 C761 0.930 . S
C756 H742 0.930 . S
C756 C754 1.395 . S
C756 C759 1.403 . S
C757 C754 1.403 . S
C757 C758 1.524 . S
C757 C761 1.400 . S
C758 H743 0.960 . S
C758 H744 0.960 . S
C758 H745 0.960 . S
C758 C757 1.524 . S
C759 C756 1.403 . S
C759 C760 1.392 . S
C759 C763 1.495 . S
C760 C759 1.392 . S
C760 C761 1.385 . S
C760 C762 1.478 . S
C761 H755 0.930 . S
C761 C757 1.400 . S
C761 C760 1.385 . S
C762 C760 1.478 . S
C762 C764 1.381 . S
C762 C768 1.383 . S
C763 C759 1.495 . S
C763 H769 0.959 . S
C763 H770 0.961 . S
C763 H771 0.960 . S
C764 C762 1.381 . S
C764 C765 1.394 . S
C764 H772 0.930 . S
C765 C764 1.394 . S
C765 C766 1.383 . S
C765 H773 0.929 . S
C766 C765 1.383 . S
C766 C767 1.377 . S
C767 H751 0.930 . S
C767 C766 1.377 . S
C767 C768 1.379 . S
C768 H752 0.931 . S
C768 C762 1.383 . S
C768 C767 1.379 . S
H769 C763 0.959 . S
H770 C763 0.961 . S
H771 C763 0.960 . S
H772 C764 0.930 . S
H773 C765 0.929 . S
H774 C782 0.929 . S
H775 C784 0.930 . S
H776 C786 0.930 . S
H777 C789 0.929 . S
H778 C792 0.930 . S
H779 C794 0.960 . S
H780 C794 0.960 . S
H781 C794 0.960 . S
C782 H774 0.929 . S
C782 C783 1.377 . S
C782 C784 1.384 . S
C783 C782 1.377 . S
C783 C789 1.390 . S
C784 H775 0.930 . S
C784 C782 1.384 . S
C784 C785 1.372 . S
C785 C784 1.372 . S
C785 C786 1.400 . S
C785 C790 1.490 . S
C786 H776 0.930 . S
C786 C785 1.400 . S
C786 C789 1.386 . S
H787 C803 0.930 . S
H788 C804 0.931 . S
C789 H777 0.929 . S
C789 C783 1.390 . S
C789 C786 1.386 . S
C790 C785 1.490 . S
C790 C792 1.395 . S
C790 C793 1.403 . S
H791 C797 0.930 . S
C792 H778 0.930 . S
C792 C790 1.395 . S
C792 C795 1.403 . S
C793 C790 1.403 . S
C793 C794 1.524 . S
C793 C797 1.400 . S
C794 H779 0.960 . S
C794 H780 0.960 . S
C794 H781 0.960 . S
C794 C793 1.524 . S
C795 C792 1.403 . S
C795 C796 1.392 . S
C795 C799 1.495 . S
C796 C795 1.392 . S
C796 C797 1.385 . S
C796 C798 1.478 . S
C797 H791 0.930 . S
C797 C793 1.400 . S
C797 C796 1.385 . S
C798 C796 1.478 . S
C798 C800 1.381 . S
C798 C804 1.383 . S
C799 C795 1.495 . S
C799 H805 0.959 . S
C799 H806 0.961 . S
C799 H807 0.960 . S
C800 C798 1.381 . S
C800 C801 1.394 . S
C800 H808 0.930 . S
C801 C800 1.394 . S
C801 C802 1.383 . S
C801 H809 0.929 . S
C802 C801 1.383 . S
C802 C803 1.377 . S
C803 H787 0.930 . S
C803 C802 1.377 . S
C803 C804 1.379 . S
C804 H788 0.931 . S
C804 C798 1.383 . S
C804 C803 1.379 . S
H805 C799 0.959 . S
H806 C799 0.961 . S
H807 C799 0.960 . S
H808 C800 0.930 . S
H809 C801 0.929 . S
H810 C818 0.929 . S
H811 C820 0.930 . S
H812 C822 0.930 . S
H813 C825 0.929 . S
H814 C828 0.930 . S
H815 C830 0.960 . S
H816 C830 0.960 . S
H817 C830 0.960 . S
C818 H810 0.929 . S
C818 C819 1.377 . S
C818 C820 1.384 . S
C819 C818 1.377 . S
C819 C825 1.390 . S
C820 H811 0.930 . S
C820 C818 1.384 . S
C820 C821 1.372 . S
C821 C820 1.372 . S
C821 C822 1.400 . S
C821 C826 1.490 . S
C822 H812 0.930 . S
C822 C821 1.400 . S
C822 C825 1.386 . S
H823 C839 0.930 . S
H824 C840 0.931 . S
C825 H813 0.929 . S
C825 C819 1.390 . S
C825 C822 1.386 . S
C826 C821 1.490 . S
C826 C828 1.395 . S
C826 C829 1.403 . S
H827 C833 0.930 . S
C828 H814 0.930 . S
C828 C826 1.395 . S
C828 C831 1.403 . S
C829 C826 1.403 . S
C829 C830 1.524 . S
C829 C833 1.400 . S
C830 H815 0.960 . S
C830 H816 0.960 . S
C830 H817 0.960 . S
C830 C829 1.524 . S
C831 C828 1.403 . S
C831 C832 1.392 . S
C831 C835 1.495 . S
C832 C831 1.392 . S
C832 C833 1.385 . S
C832 C834 1.478 . S
C833 H827 0.930 . S
C833 C829 1.400 . S
C833 C832 1.385 . S
C834 C832 1.478 . S
C834 C836 1.381 . S
C834 C840 1.383 . S
C835 C831 1.495 . S
C835 H841 0.959 . S
C835 H842 0.961 . S
C835 H843 0.960 . S
C836 C834 1.381 . S
C836 C837 1.394 . S
C836 H844 0.930 . S
C837 C836 1.394 . S
C837 C838 1.383 . S
C837 H845 0.929 . S
C838 C837 1.383 . S
C838 C839 1.377 . S
C839 H823 0.930 . S
C839 C838 1.377 . S
C839 C840 1.379 . S
C840 H824 0.931 . S
C840 C834 1.383 . S
C840 C839 1.379 . S
H841 C835 0.959 . S
H842 C835 0.961 . S
H843 C835 0.960 . S
H844 C836 0.930 . S
H845 C837 0.929 . S
H846 C854 0.929 . S
H847 C856 0.930 . S
H848 C858 0.930 . S
H849 C861 0.929 . S
H850 C864 0.930 . S
H851 C866 0.960 . S
H852 C866 0.960 . S
H853 C866 0.960 . S
C854 H846 0.929 . S
C854 C855 1.377 . S
C854 C856 1.384 . S
C855 C854 1.377 . S
C855 C861 1.390 . S
C856 H847 0.930 . S
C856 C854 1.384 . S
C856 C857 1.372 . S
C857 C856 1.372 . S
C857 C858 1.400 . S
C857 C862 1.490 . S
C858 H848 0.930 . S
C858 C857 1.400 . S
C858 C861 1.386 . S
H859 C875 0.930 . S
H860 C876 0.931 . S
C861 H849 0.929 . S
C861 C855 1.390 . S
C861 C858 1.386 . S
C862 C857 1.490 . S
C862 C864 1.395 . S
C862 C865 1.403 . S
H863 C869 0.930 . S
C864 H850 0.930 . S
C864 C862 1.395 . S
C864 C867 1.403 . S
C865 C862 1.403 . S
C865 C866 1.524 . S
C865 C869 1.400 . S
C866 H851 0.960 . S
C866 H852 0.960 . S
C866 H853 0.960 . S
C866 C865 1.524 . S
C867 C864 1.403 . S
C867 C868 1.392 . S
C867 C871 1.495 . S
C868 C867 1.392 . S
C868 C869 1.385 . S
C868 C870 1.478 . S
C869 H863 0.930 . S
C869 C865 1.400 . S
C869 C868 1.385 . S
C870 C868 1.478 . S
C870 C872 1.381 . S
C870 C876 1.383 . S
C871 C867 1.495 . S
C871 H877 0.959 . S
C871 H878 0.961 . S
C871 H879 0.960 . S
C872 C870 1.381 . S
C872 C873 1.394 . S
C872 H880 0.930 . S
C873 C872 1.394 . S
C873 C874 1.383 . S
C873 H881 0.929 . S
C874 C873 1.383 . S
C874 C875 1.377 . S
C875 H859 0.930 . S
C875 C874 1.377 . S
C875 C876 1.379 . S
C876 H860 0.931 . S
C876 C870 1.383 . S
C876 C875 1.379 . S
H877 C871 0.959 . S
H878 C871 0.961 . S
H879 C871 0.960 . S
H880 C872 0.930 . S
H881 C873 0.929 . S
H882 C890 0.929 . S
H883 C892 0.930 . S
H884 C894 0.930 . S
H885 C897 0.929 . S
H886 C900 0.930 . S
H887 C902 0.960 . S
H888 C902 0.960 . S
H889 C902 0.960 . S
C890 H882 0.929 . S
C890 C891 1.377 . S
C890 C892 1.384 . S
C891 C890 1.377 . S
C891 C897 1.390 . S
C892 H883 0.930 . S
C892 C890 1.384 . S
C892 C893 1.372 . S
C893 C892 1.372 . S
C893 C894 1.400 . S
C893 C898 1.490 . S
C894 H884 0.930 . S
C894 C893 1.400 . S
C894 C897 1.386 . S
H895 C911 0.930 . S
H896 C912 0.931 . S
C897 H885 0.929 . S
C897 C891 1.390 . S
C897 C894 1.386 . S
C898 C893 1.490 . S
C898 C900 1.395 . S
C898 C901 1.403 . S
H899 C905 0.930 . S
C900 H886 0.930 . S
C900 C898 1.395 . S
C900 C903 1.403 . S
C901 C898 1.403 . S
C901 C902 1.524 . S
C901 C905 1.400 . S
C902 H887 0.960 . S
C902 H888 0.960 . S
C902 H889 0.960 . S
C902 C901 1.524 . S
C903 C900 1.403 . S
C903 C904 1.392 . S
C903 C907 1.495 . S
C904 C903 1.392 . S
C904 C905 1.385 . S
C904 C906 1.478 . S
C905 H899 0.930 . S
C905 C901 1.400 . S
C905 C904 1.385 . S
C906 C904 1.478 . S
C906 C908 1.381 . S
C906 C912 1.383 . S
C907 C903 1.495 . S
C907 H913 0.959 . S
C907 H914 0.961 . S
C907 H915 0.960 . S
C908 C906 1.381 . S
C908 C909 1.394 . S
C908 H916 0.930 . S
C909 C908 1.394 . S
C909 C910 1.383 . S
C909 H917 0.929 . S
C910 C909 1.383 . S
C910 C911 1.377 . S
C911 H895 0.930 . S
C911 C910 1.377 . S
C911 C912 1.379 . S
C912 H896 0.931 . S
C912 C906 1.383 . S
C912 C911 1.379 . S
H913 C907 0.959 . S
H914 C907 0.961 . S
H915 C907 0.960 . S
H916 C908 0.930 . S
H917 C909 0.929 . S
H918 C926 0.929 . S
H919 C928 0.930 . S
H920 C930 0.930 . S
H921 C933 0.929 . S
H922 C936 0.930 . S
H923 C938 0.960 . S
H924 C938 0.960 . S
H925 C938 0.960 . S
C926 H918 0.929 . S
C926 C927 1.377 . S
C926 C928 1.384 . S
C927 C926 1.377 . S
C927 C933 1.390 . S
C928 H919 0.930 . S
C928 C926 1.384 . S
C928 C929 1.372 . S
C929 C928 1.372 . S
C929 C930 1.400 . S
C929 C934 1.490 . S
C930 H920 0.930 . S
C930 C929 1.400 . S
C930 C933 1.386 . S
H931 C947 0.930 . S
H932 C948 0.931 . S
C933 H921 0.929 . S
C933 C927 1.390 . S
C933 C930 1.386 . S
C934 C929 1.490 . S
C934 C936 1.395 1_455 S
C934 C937 1.403 . S
H935 C941 0.930 . S
C936 H922 0.930 . S
C936 C934 1.395 1_655 S
C936 C939 1.403 . S
C937 C934 1.403 . S
C937 C938 1.524 . S
C937 C941 1.400 . S
C938 H923 0.960 . S
C938 H924 0.960 . S
C938 H925 0.960 . S
C938 C937 1.524 . S
C939 C936 1.403 . S
C939 C940 1.392 1_655 S
C939 C943 1.495 . S
C940 C939 1.392 1_455 S
C940 C941 1.385 . S
C940 C942 1.478 . S
C941 H935 0.930 . S
C941 C937 1.400 . S
C941 C940 1.385 . S
C942 C940 1.478 . S
C942 C944 1.381 . S
C942 C948 1.383 . S
C943 C939 1.495 . S
C943 H949 0.959 . S
C943 H950 0.961 . S
C943 H951 0.960 . S
C944 C942 1.381 . S
C944 C945 1.394 . S
C944 H952 0.930 . S
C945 C944 1.394 . S
C945 C946 1.383 . S
C945 H953 0.929 . S
C946 C945 1.383 . S
C946 C947 1.377 . S
C947 H931 0.930 . S
C947 C946 1.377 . S
C947 C948 1.379 . S
C948 H932 0.931 . S
C948 C942 1.383 . S
C948 C947 1.379 . S
H949 C943 0.959 . S
H950 C943 0.961 . S
H951 C943 0.960 . S
H952 C944 0.930 . S
H953 C945 0.929 . S
H954 C962 0.929 . S
H955 C964 0.930 . S
H956 C966 0.930 . S
H957 C969 0.929 . S
H958 C972 0.930 . S
H959 C974 0.960 . S
H960 C974 0.960 . S
H961 C974 0.960 . S
C962 H954 0.929 . S
C962 C963 1.377 . S
C962 C964 1.384 . S
C963 C962 1.377 . S
C963 C969 1.390 . S
C964 H955 0.930 . S
C964 C962 1.384 . S
C964 C965 1.372 . S
C965 C964 1.372 . S
C965 C966 1.400 . S
C965 C970 1.490 . S
C966 H956 0.930 . S
C966 C965 1.400 . S
C966 C969 1.386 . S
H967 C983 0.930 . S
H968 C984 0.931 . S
C969 H957 0.929 . S
C969 C963 1.390 . S
C969 C966 1.386 . S
C970 C965 1.490 . S
C970 C972 1.395 . S
C970 C973 1.403 . S
H971 C977 0.930 . S
C972 H958 0.930 . S
C972 C970 1.395 . S
C972 C975 1.403 . S
C973 C970 1.403 . S
C973 C974 1.524 . S
C973 C977 1.400 . S
C974 H959 0.960 . S
C974 H960 0.960 . S
C974 H961 0.960 . S
C974 C973 1.524 . S
C975 C972 1.403 . S
C975 C976 1.392 . S
C975 C979 1.495 . S
C976 C975 1.392 . S
C976 C977 1.385 . S
C976 C978 1.478 . S
C977 H971 0.930 . S
C977 C973 1.400 . S
C977 C976 1.385 . S
C978 C976 1.478 . S
C978 C980 1.381 . S
C978 C984 1.383 . S
C979 C975 1.495 . S
C979 H985 0.959 . S
C979 H986 0.961 . S
C979 H987 0.960 . S
C980 C978 1.381 . S
C980 C981 1.394 . S
C980 H988 0.930 . S
C981 C980 1.394 . S
C981 C982 1.383 . S
C981 H989 0.929 . S
C982 C981 1.383 . S
C982 C983 1.377 . S
C983 H967 0.930 . S
C983 C982 1.377 . S
C983 C984 1.379 . S
C984 H968 0.931 . S
C984 C978 1.383 . S
C984 C983 1.379 . S
H985 C979 0.959 . S
H986 C979 0.961 . S
H987 C979 0.960 . S
H988 C980 0.930 . S
H989 C981 0.929 . S
H990 C998 0.929 . S
H991 C1000 0.930 . S
H992 C1002 0.930 . S
H993 C1005 0.929 . S
H994 C1008 0.930 . S
H995 C1010 0.960 . S
H996 C1010 0.960 . S
H997 C1010 0.960 . S
C998 H990 0.929 . S
C998 C999 1.377 . S
C998 C1000 1.384 . S
C999 C998 1.377 . S
C999 C1005 1.390 . S
C1000 H991 0.930 . S
C1000 C998 1.384 . S
C1000 C1001 1.372 . S
C1001 C1000 1.372 . S
C1001 C1002 1.400 . S
C1001 C1006 1.490 . S
C1002 H992 0.930 . S
C1002 C1001 1.400 . S
C1002 C1005 1.386 . S
H1003 C1019 0.930 . S
H1004 C1020 0.931 . S
C1005 H993 0.929 . S
C1005 C999 1.390 . S
C1005 C1002 1.386 . S
C1006 C1001 1.490 . S
C1006 C1008 1.395 . S
C1006 C1009 1.400 1_545 S
H1007 C1013 0.913 1_565 S
C1008 H994 0.930 . S
C1008 C1006 1.395 . S
C1008 C1011 1.403 . S
C1009 C1006 1.400 1_565 S
C1009 C1010 1.527 . S
C1009 C1013 1.399 1_565 S
C1010 H995 0.960 . S
C1010 H996 0.960 . S
C1010 H997 0.960 . S
C1010 C1009 1.527 . S
C1011 C1008 1.403 . S
C1011 C1012 1.392 . S
C1011 C1015 1.495 . S
C1012 C1011 1.392 . S
C1012 C1013 1.402 . S
C1012 C1014 1.478 . S
C1013 H1007 0.913 1_545 S
C1013 C1009 1.399 1_545 S
C1013 C1012 1.402 . S
C1014 C1012 1.478 . S
C1014 C1016 1.381 . S
C1014 C1020 1.383 . S
C1015 C1011 1.495 . S
C1015 H1021 0.959 . S
C1015 H1022 0.961 . S
C1015 H1023 0.960 . S
C1016 C1014 1.381 . S
C1016 C1017 1.394 . S
C1016 H1024 0.925 . S
C1017 C1016 1.394 . S
C1017 C1018 1.383 . S
C1017 H1025 0.929 1_545 S
C1018 C1017 1.383 . S
C1018 C1019 1.377 . S
C1019 H1003 0.930 . S
C1019 C1018 1.377 . S
C1019 C1020 1.379 . S
C1020 H1004 0.931 . S
C1020 C1014 1.383 . S
C1020 C1019 1.379 . S
H1021 C1015 0.959 . S
H1022 C1015 0.961 . S
H1023 C1015 0.960 . S
H1024 C1016 0.925 . S
H1025 C1017 0.929 1_565 S
H1026 C1034 0.929 . S
H1027 C1036 0.930 . S
H1028 C1038 0.930 . S
H1029 C1041 0.929 . S
H1030 C1044 0.930 . S
H1031 C1046 0.960 . S
H1032 C1046 0.960 . S
H1033 C1046 0.960 . S
C1034 H1026 0.929 . S
C1034 C1035 1.377 . S
C1034 C1036 1.384 . S
C1035 C1034 1.377 . S
C1035 C1041 1.390 . S
C1036 H1027 0.930 . S
C1036 C1034 1.384 . S
C1036 C1037 1.372 . S
C1037 C1036 1.372 . S
C1037 C1038 1.400 . S
C1037 C1042 1.490 . S
C1038 H1028 0.930 . S
C1038 C1037 1.400 . S
C1038 C1041 1.386 . S
H1039 C1055 0.930 . S
H1040 C1056 0.931 . S
C1041 H1029 0.929 . S
C1041 C1035 1.390 . S
C1041 C1038 1.386 . S
C1042 C1037 1.490 . S
C1042 C1044 1.395 . S
C1042 C1045 1.403 . S
H1043 C1049 0.930 . S
C1044 H1030 0.930 . S
C1044 C1042 1.395 . S
C1044 C1047 1.403 . S
C1045 C1042 1.403 . S
C1045 C1046 1.524 . S
C1045 C1049 1.400 . S
C1046 H1031 0.960 . S
C1046 H1032 0.960 . S
C1046 H1033 0.960 . S
C1046 C1045 1.524 . S
C1047 C1044 1.403 . S
C1047 C1048 1.392 . S
C1047 C1051 1.495 . S
C1048 C1047 1.392 . S
C1048 C1049 1.385 . S
C1048 C1050 1.478 . S
C1049 H1043 0.930 . S
C1049 C1045 1.400 . S
C1049 C1048 1.385 . S
C1050 C1048 1.478 . S
C1050 C1052 1.381 1_556 S
C1050 C1056 1.383 1_556 S
C1051 C1047 1.495 . S
C1051 H1057 0.959 . S
C1051 H1058 0.961 . S
C1051 H1059 0.960 . S
C1052 C1050 1.381 1_554 S
C1052 C1053 1.394 . S
C1052 H1060 0.930 . S
C1053 C1052 1.394 . S
C1053 C1054 1.383 . S
C1053 H1061 0.929 . S
C1054 C1053 1.383 . S
C1054 C1055 1.377 . S
C1055 H1039 0.930 . S
C1055 C1054 1.377 . S
C1055 C1056 1.379 . S
C1056 H1040 0.931 . S
C1056 C1050 1.383 1_554 S
C1056 C1055 1.379 . S
H1057 C1051 0.959 . S
H1058 C1051 0.961 . S
H1059 C1051 0.960 . S
H1060 C1052 0.930 . S
H1061 C1053 0.929 . S
H1062 C1070 0.929 . S
H1063 C1072 0.930 . S
H1064 C1074 0.930 . S
H1065 C1077 0.929 . S
H1066 C1080 0.930 . S
H1067 C1082 0.960 . S
H1068 C1082 0.960 . S
H1069 C1082 0.960 . S
C1070 H1062 0.929 . S
C1070 C1071 1.377 . S
C1070 C1072 1.384 . S
C1071 C1070 1.377 . S
C1071 C1077 1.390 . S
C1072 H1063 0.930 . S
C1072 C1070 1.384 . S
C1072 C1073 1.372 . S
C1073 C1072 1.372 . S
C1073 C1074 1.400 . S
C1073 C1078 1.490 . S
C1074 H1064 0.930 . S
C1074 C1073 1.400 . S
C1074 C1077 1.386 . S
H1075 C1091 0.930 . S
H1076 C1092 0.931 . S
C1077 H1065 0.929 . S
C1077 C1071 1.390 . S
C1077 C1074 1.386 . S
C1078 C1073 1.490 . S
C1078 C1080 1.395 . S
C1078 C1081 1.403 . S
H1079 C1085 0.930 . S
C1080 H1066 0.930 . S
C1080 C1078 1.395 . S
C1080 C1083 1.403 . S
C1081 C1078 1.403 . S
C1081 C1082 1.524 . S
C1081 C1085 1.400 . S
C1082 H1067 0.960 . S
C1082 H1068 0.960 . S
C1082 H1069 0.960 . S
C1082 C1081 1.524 . S
C1083 C1080 1.403 . S
C1083 C1084 1.392 . S
C1083 C1087 1.495 . S
C1084 C1083 1.392 . S
C1084 C1085 1.385 . S
C1084 C1086 1.469 1_556 S
C1085 H1079 0.930 . S
C1085 C1081 1.400 . S
C1085 C1084 1.385 . S
C1086 C1084 1.469 1_554 S
C1086 C1088 1.386 . S
C1086 C1092 1.387 . S
C1087 C1083 1.495 . S
C1087 H1093 0.959 . S
C1087 H1094 0.961 . S
C1087 H1095 0.960 . S
C1088 C1086 1.386 . S
C1088 C1089 1.394 . S
C1088 H1096 0.930 . S
C1089 C1088 1.394 . S
C1089 C1090 1.383 . S
C1089 H1097 0.929 . S
C1090 C1089 1.383 . S
C1090 C1091 1.377 . S
C1091 H1075 0.930 . S
C1091 C1090 1.377 . S
C1091 C1092 1.379 . S
C1092 H1076 0.931 . S
C1092 C1086 1.387 . S
C1092 C1091 1.379 . S
H1093 C1087 0.959 . S
H1094 C1087 0.961 . S
H1095 C1087 0.960 . S
H1096 C1088 0.930 . S
H1097 C1089 0.929 . S
H1098 C1106 0.929 . S
H1099 C1108 0.930 . S
H1100 C1110 0.930 . S
H1101 C1113 0.929 . S
H1102 C1116 0.930 . S
H1103 C1118 0.960 . S
H1104 C1118 0.960 . S
H1105 C1118 0.960 . S
C1106 H1098 0.929 . S
C1106 C1107 1.377 . S
C1106 C1108 1.384 . S
C1107 C1106 1.377 . S
C1107 C1113 1.390 . S
C1108 H1099 0.930 . S
C1108 C1106 1.384 . S
C1108 C1109 1.372 . S
C1109 C1108 1.372 . S
C1109 C1110 1.400 . S
C1109 C1114 1.490 . S
C1110 H1100 0.930 . S
C1110 C1109 1.400 . S
C1110 C1113 1.386 . S
H1111 C1127 0.930 . S
H1112 C1128 0.931 . S
C1113 H1101 0.929 . S
C1113 C1107 1.390 . S
C1113 C1110 1.386 . S
C1114 C1109 1.490 . S
C1114 C1116 1.395 . S
C1114 C1117 1.403 . S
H1115 C1121 0.930 . S
C1116 H1102 0.930 . S
C1116 C1114 1.395 . S
C1116 C1119 1.403 . S
C1117 C1114 1.403 . S
C1117 C1118 1.524 . S
C1117 C1121 1.400 . S
C1118 H1103 0.960 . S
C1118 H1104 0.960 . S
C1118 H1105 0.960 . S
C1118 C1117 1.524 . S
C1119 C1116 1.403 . S
C1119 C1120 1.392 . S
C1119 C1123 1.495 . S
C1120 C1119 1.392 . S
C1120 C1121 1.385 . S
C1120 C1122 1.467 1_556 S
C1121 H1115 0.930 . S
C1121 C1117 1.400 . S
C1121 C1120 1.385 . S
C1122 C1120 1.467 1_554 S
C1122 C1124 1.387 . S
C1122 C1128 1.387 . S
C1123 C1119 1.495 . S
C1123 H1129 0.959 . S
C1123 H1130 0.961 . S
C1123 H1131 0.960 . S
C1124 C1122 1.387 . S
C1124 C1125 1.394 . S
C1124 H1132 0.930 . S
C1125 C1124 1.394 . S
C1125 C1126 1.383 . S
C1125 H1133 0.929 . S
C1126 C1125 1.383 . S
C1126 C1127 1.377 . S
C1127 H1111 0.930 . S
C1127 C1126 1.377 . S
C1127 C1128 1.379 . S
C1128 H1112 0.931 . S
C1128 C1122 1.387 . S
C1128 C1127 1.379 . S
H1129 C1123 0.959 . S
H1130 C1123 0.961 . S
H1131 C1123 0.960 . S
H1132 C1124 0.930 . S
H1133 C1125 0.929 . S
H1134 C1142 0.929 . S
H1135 C1144 0.930 . S
H1136 C1146 0.930 . S
H1137 C1149 0.929 . S
H1138 C1152 0.930 . S
H1139 C1154 0.960 . S
H1140 C1154 0.960 . S
H1141 C1154 0.960 . S
C1142 H1134 0.929 . S
C1142 C1143 1.377 . S
C1142 C1144 1.384 . S
C1143 C1142 1.377 . S
C1143 C1149 1.390 . S
C1144 H1135 0.930 . S
C1144 C1142 1.384 . S
C1144 C1145 1.372 . S
C1145 C1144 1.372 . S
C1145 C1146 1.400 . S
C1145 C1150 1.490 . S
C1146 H1136 0.930 . S
C1146 C1145 1.400 . S
C1146 C1149 1.386 . S
H1147 C1163 0.930 . S
H1148 C1164 0.931 1_554 S
C1149 H1137 0.929 . S
C1149 C1143 1.390 . S
C1149 C1146 1.386 . S
C1150 C1145 1.490 . S
C1150 C1152 1.395 . S
C1150 C1153 1.403 . S
H1151 C1157 0.930 . S
C1152 H1138 0.930 . S
C1152 C1150 1.395 . S
C1152 C1155 1.403 . S
C1153 C1150 1.403 . S
C1153 C1154 1.524 . S
C1153 C1157 1.400 . S
C1154 H1139 0.960 . S
C1154 H1140 0.960 . S
C1154 H1141 0.960 . S
C1154 C1153 1.524 . S
C1155 C1152 1.403 . S
C1155 C1156 1.392 . S
C1155 C1159 1.495 . S
C1156 C1155 1.392 . S
C1156 C1157 1.385 . S
C1156 C1158 1.478 . S
C1157 H1151 0.930 . S
C1157 C1153 1.400 . S
C1157 C1156 1.385 . S
C1158 C1156 1.478 . S
C1158 C1160 1.381 1_554 S
C1158 C1164 1.383 1_554 S
C1159 C1155 1.495 . S
C1159 H1165 0.959 . S
C1159 H1166 0.961 . S
C1159 H1167 0.960 . S
C1160 C1158 1.381 1_556 S
C1160 C1161 1.394 . S
C1160 H1168 0.930 1_556 S
C1161 C1160 1.394 . S
C1161 C1162 1.383 . S
C1161 H1169 0.929 . S
C1162 C1161 1.383 . S
C1162 C1163 1.377 . S
C1163 H1147 0.930 . S
C1163 C1162 1.377 . S
C1163 C1164 1.379 . S
C1164 H1148 0.931 1_556 S
C1164 C1158 1.383 1_556 S
C1164 C1163 1.379 . S
H1165 C1159 0.959 . S
H1166 C1159 0.961 . S
H1167 C1159 0.960 . S
H1168 C1160 0.930 1_554 S
H1169 C1161 0.929 . S
H1170 C1178 0.929 . S
H1171 C1180 0.930 1_554 S
H1172 C1182 0.930 1_554 S
H1173 C1185 0.929 . S
H1174 C1188 0.930 . S
H1175 C1190 0.960 . S
H1176 C1190 0.960 . S
H1177 C1190 0.960 . S
C1178 H1170 0.929 . S
C1178 C1179 1.377 . S
C1178 C1180 1.384 . S
C1179 C1178 1.377 . S
C1179 C1185 1.390 . S
C1180 H1171 0.930 1_556 S
C1180 C1178 1.384 . S
C1180 C1181 1.372 1_556 S
C1181 C1180 1.372 1_554 S
C1181 C1182 1.400 1_554 S
C1181 C1186 1.490 . S
C1182 H1172 0.930 1_556 S
C1182 C1181 1.400 1_556 S
C1182 C1185 1.386 . S
H1183 C1199 0.930 . S
H1184 C1200 0.931 . S
C1185 H1173 0.929 . S
C1185 C1179 1.390 . S
C1185 C1182 1.386 . S
C1186 C1181 1.490 . S
C1186 C1188 1.395 . S
C1186 C1189 1.403 . S
H1187 C1193 0.930 . S
C1188 H1174 0.930 . S
C1188 C1186 1.395 . S
C1188 C1191 1.403 . S
C1189 C1186 1.403 . S
C1189 C1190 1.524 . S
C1189 C1193 1.400 . S
C1190 H1175 0.960 . S
C1190 H1176 0.960 . S
C1190 H1177 0.960 . S
C1190 C1189 1.524 . S
C1191 C1188 1.403 . S
C1191 C1192 1.392 . S
C1191 C1195 1.495 . S
C1192 C1191 1.392 . S
C1192 C1193 1.385 . S
C1192 C1194 1.478 . S
C1193 H1187 0.930 . S
C1193 C1189 1.400 . S
C1193 C1192 1.385 . S
C1194 C1192 1.478 . S
C1194 C1196 1.381 . S
C1194 C1200 1.383 . S
C1195 C1191 1.495 . S
C1195 H1201 0.959 . S
C1195 H1202 0.961 . S
C1195 H1203 0.960 . S
C1196 C1194 1.381 . S
C1196 C1197 1.394 . S
C1196 H1204 0.930 . S
C1197 C1196 1.394 . S
C1197 C1198 1.383 . S
C1197 H1205 0.929 . S
C1198 C1197 1.383 . S
C1198 C1199 1.377 . S
C1199 H1183 0.930 . S
C1199 C1198 1.377 . S
C1199 C1200 1.379 . S
C1200 H1184 0.931 . S
C1200 C1194 1.383 . S
C1200 C1199 1.379 . S
H1201 C1195 0.959 . S
H1202 C1195 0.961 . S
H1203 C1195 0.960 . S
H1204 C1196 0.930 . S
H1205 C1197 0.929 . S
H1206 C1214 0.929 . S
H1207 C1216 0.930 . S
H1208 C1218 0.930 . S
H1209 C1221 0.929 . S
H1210 C1224 0.930 . S
H1211 C1226 0.960 . S
H1212 C1226 0.960 . S
H1213 C1226 0.960 . S
C1214 H1206 0.929 . S
C1214 C1215 1.377 . S
C1214 C1216 1.384 . S
C1215 C1214 1.377 . S
C1215 C1221 1.390 . S
C1216 H1207 0.930 . S
C1216 C1214 1.384 . S
C1216 C1217 1.372 . S
C1217 C1216 1.372 . S
C1217 C1218 1.400 . S
C1217 C1222 1.490 . S
C1218 H1208 0.930 . S
C1218 C1217 1.400 . S
C1218 C1221 1.386 . S
H1219 C1235 0.930 . S
H1220 C1236 0.931 1_554 S
C1221 H1209 0.929 . S
C1221 C1215 1.390 . S
C1221 C1218 1.386 . S
C1222 C1217 1.490 . S
C1222 C1224 1.395 . S
C1222 C1225 1.403 . S
H1223 C1229 0.930 . S
C1224 H1210 0.930 . S
C1224 C1222 1.395 . S
C1224 C1227 1.403 . S
C1225 C1222 1.403 . S
C1225 C1226 1.524 . S
C1225 C1229 1.400 . S
C1226 H1211 0.960 . S
C1226 H1212 0.960 . S
C1226 H1213 0.960 . S
C1226 C1225 1.524 . S
C1227 C1224 1.403 . S
C1227 C1228 1.392 . S
C1227 C1231 1.495 . S
C1228 C1227 1.392 . S
C1228 C1229 1.385 . S
C1228 C1230 1.478 . S
C1229 H1223 0.930 . S
C1229 C1225 1.400 . S
C1229 C1228 1.385 . S
C1230 C1228 1.478 . S
C1230 C1232 1.381 1_554 S
C1230 C1236 1.383 1_554 S
C1231 C1227 1.495 . S
C1231 H1237 0.959 . S
C1231 H1238 0.961 . S
C1231 H1239 0.960 . S
C1232 C1230 1.381 1_556 S
C1232 C1233 1.394 . S
C1232 H1240 0.930 1_556 S
C1233 C1232 1.394 . S
C1233 C1234 1.383 . S
C1233 H1241 0.929 . S
C1234 C1233 1.383 . S
C1234 C1235 1.377 . S
C1235 H1219 0.930 . S
C1235 C1234 1.377 . S
C1235 C1236 1.379 . S
C1236 H1220 0.931 1_556 S
C1236 C1230 1.383 1_556 S
C1236 C1235 1.379 . S
H1237 C1231 0.959 . S
H1238 C1231 0.961 . S
H1239 C1231 0.960 . S
H1240 C1232 0.930 1_554 S
H1241 C1233 0.929 . S
C279 N14 1.304 . S
C298 C237 1.373 . S
C315 N44 1.292 . S
C334 C267 1.353 . S
C351 N74 1.306 . S
C370 C207 1.380 . S
C387 N134 1.301 . S
C406 C87 1.365 . S
C423 N164 1.308 . S
C442 C27 1.394 . S
C459 C57 1.382 . S
C478 N104 1.330 . S
C495 N224 1.291 . S
C514 C177 1.363 . S
C531 N254 1.291 . S
C550 C117 1.366 . S
C567 C147 1.381 . S
C586 N194 1.337 . S
C603 N66 1.083 . S
C622 C16 1.071 . S
C639 C46 1.082 . S
C658 N6 1.092 . S
C675 N36 1.080 . S
C694 C76 1.073 . S
C711 C106 1.086 . S
C730 N156 1.058 . S
C747 N96 1.075 . S
C766 C136 1.093 . S
C783 N126 1.081 . S
C802 C166 1.070 . S
C819 N246 1.080 . S
C838 C196 1.074 . S
C855 C226 1.082 . S
C874 N186 1.090 . S
C891 C256 1.084 . S
C910 N216 1.083 . S
C927 C10 0.960 . S
C946 C1 0.957 . S
C963 C40 0.960 . S
C982 C31 0.958 . S
C999 C70 0.960 . S
C1018 C61 0.957 . S
C1035 C91 0.961 . S
C1054 C100 0.962 . S
C1071 C121 0.960 . S
C1090 C130 0.957 . S
C1107 C151 0.961 . S
C1126 C160 0.957 . S
C1143 C190 0.960 . S
C1162 C181 0.960 . S
C1179 C211 0.961 . S
C1198 C220 0.958 . S
C1215 C250 0.960 . S
C1234 C241 0.959 . S
